# Generated by pormake.
# Topology yft, (5)-cn, num edge types: 1
# Building blocks:
#     Node 0, Type 0, BuildingBlock: BEQFEK_clean_sbu_0, # of connection points: 5
#     Node 1, Type 0, BuildingBlock: BEQFEK_clean_sbu_0, # of connection points: 5
#     Node 2, Type 0, BuildingBlock: BEQFEK_clean_sbu_0, # of connection points: 5
#     Node 3, Type 0, BuildingBlock: BEQFEK_clean_sbu_0, # of connection points: 5
#     Node 4, Type 0, BuildingBlock: BEQFEK_clean_sbu_0, # of connection points: 5
#     Node 5, Type 0, BuildingBlock: BEQFEK_clean_sbu_0, # of connection points: 5
#     Node 6, Type 0, BuildingBlock: BEQFEK_clean_sbu_0, # of connection points: 5
#     Node 7, Type 0, BuildingBlock: BEQFEK_clean_sbu_0, # of connection points: 5
#     Node 8, Type 0, BuildingBlock: BEQFEK_clean_sbu_0, # of connection points: 5
#     Node 9, Type 0, BuildingBlock: BEQFEK_clean_sbu_0, # of connection points: 5
#     Node 10, Type 0, BuildingBlock: BEQFEK_clean_sbu_0, # of connection points: 5
#     Node 11, Type 0, BuildingBlock: BEQFEK_clean_sbu_0, # of connection points: 5
#     Node 12, Type 0, BuildingBlock: BEQFEK_clean_sbu_0, # of connection points: 5
#     Node 13, Type 0, BuildingBlock: BEQFEK_clean_sbu_0, # of connection points: 5
#     Node 14, Type 0, BuildingBlock: BEQFEK_clean_sbu_0, # of connection points: 5
#     Node 15, Type 0, BuildingBlock: BEQFEK_clean_sbu_0, # of connection points: 5
#     Node 16, Type 0, BuildingBlock: BEQFEK_clean_sbu_0, # of connection points: 5
#     Node 17, Type 0, BuildingBlock: BEQFEK_clean_sbu_0, # of connection points: 5
#     Node 18, Type 0, BuildingBlock: BEQFEK_clean_sbu_0, # of connection points: 5
#     Node 19, Type 0, BuildingBlock: BEQFEK_clean_sbu_0, # of connection points: 5
#     Node 20, Type 0, BuildingBlock: BEQFEK_clean_sbu_0, # of connection points: 5
#     Node 21, Type 0, BuildingBlock: BEQFEK_clean_sbu_0, # of connection points: 5
#     Node 22, Type 0, BuildingBlock: BEQFEK_clean_sbu_0, # of connection points: 5
#     Node 23, Type 0, BuildingBlock: BEQFEK_clean_sbu_0, # of connection points: 5
#     Node 24, Type 0, BuildingBlock: BEQFEK_clean_sbu_0, # of connection points: 5
#     Node 25, Type 0, BuildingBlock: BEQFEK_clean_sbu_0, # of connection points: 5
#     Node 26, Type 0, BuildingBlock: BEQFEK_clean_sbu_0, # of connection points: 5
#     Node 27, Type 0, BuildingBlock: BEQFEK_clean_sbu_0, # of connection points: 5
#     Node 28, Type 0, BuildingBlock: BEQFEK_clean_sbu_0, # of connection points: 5
#     Node 29, Type 0, BuildingBlock: BEQFEK_clean_sbu_0, # of connection points: 5
#     Node 30, Type 0, BuildingBlock: BEQFEK_clean_sbu_0, # of connection points: 5
#     Node 31, Type 0, BuildingBlock: BEQFEK_clean_sbu_0, # of connection points: 5
#     Edge 32, Type (0, 0), BuildingBlock: TEMPAE_clean_linker_10, # of connection points: 2
#     Edge 33, Type (0, 0), BuildingBlock: TEMPAE_clean_linker_10, # of connection points: 2
#     Edge 34, Type (0, 0), BuildingBlock: TEMPAE_clean_linker_10, # of connection points: 2
#     Edge 35, Type (0, 0), BuildingBlock: TEMPAE_clean_linker_10, # of connection points: 2
#     Edge 36, Type (0, 0), BuildingBlock: TEMPAE_clean_linker_10, # of connection points: 2
#     Edge 37, Type (0, 0), BuildingBlock: TEMPAE_clean_linker_10, # of connection points: 2
#     Edge 38, Type (0, 0), BuildingBlock: TEMPAE_clean_linker_10, # of connection points: 2
#     Edge 39, Type (0, 0), BuildingBlock: TEMPAE_clean_linker_10, # of connection points: 2
#     Edge 40, Type (0, 0), BuildingBlock: TEMPAE_clean_linker_10, # of connection points: 2
#     Edge 41, Type (0, 0), BuildingBlock: TEMPAE_clean_linker_10, # of connection points: 2
#     Edge 42, Type (0, 0), BuildingBlock: TEMPAE_clean_linker_10, # of connection points: 2
#     Edge 43, Type (0, 0), BuildingBlock: TEMPAE_clean_linker_10, # of connection points: 2
#     Edge 44, Type (0, 0), BuildingBlock: TEMPAE_clean_linker_10, # of connection points: 2
#     Edge 45, Type (0, 0), BuildingBlock: TEMPAE_clean_linker_10, # of connection points: 2
#     Edge 46, Type (0, 0), BuildingBlock: TEMPAE_clean_linker_10, # of connection points: 2
#     Edge 47, Type (0, 0), BuildingBlock: TEMPAE_clean_linker_10, # of connection points: 2
#     Edge 48, Type (0, 0), BuildingBlock: TEMPAE_clean_linker_10, # of connection points: 2
#     Edge 49, Type (0, 0), BuildingBlock: TEMPAE_clean_linker_10, # of connection points: 2
#     Edge 50, Type (0, 0), BuildingBlock: TEMPAE_clean_linker_10, # of connection points: 2
#     Edge 51, Type (0, 0), BuildingBlock: TEMPAE_clean_linker_10, # of connection points: 2
#     Edge 52, Type (0, 0), BuildingBlock: TEMPAE_clean_linker_10, # of connection points: 2
#     Edge 53, Type (0, 0), BuildingBlock: TEMPAE_clean_linker_10, # of connection points: 2
#     Edge 54, Type (0, 0), BuildingBlock: TEMPAE_clean_linker_10, # of connection points: 2
#     Edge 55, Type (0, 0), BuildingBlock: TEMPAE_clean_linker_10, # of connection points: 2
#     Edge 56, Type (0, 0), BuildingBlock: TEMPAE_clean_linker_10, # of connection points: 2
#     Edge 57, Type (0, 0), BuildingBlock: TEMPAE_clean_linker_10, # of connection points: 2
#     Edge 58, Type (0, 0), BuildingBlock: TEMPAE_clean_linker_10, # of connection points: 2
#     Edge 59, Type (0, 0), BuildingBlock: TEMPAE_clean_linker_10, # of connection points: 2
#     Edge 60, Type (0, 0), BuildingBlock: TEMPAE_clean_linker_10, # of connection points: 2
#     Edge 61, Type (0, 0), BuildingBlock: TEMPAE_clean_linker_10, # of connection points: 2
#     Edge 62, Type (0, 0), BuildingBlock: TEMPAE_clean_linker_10, # of connection points: 2
#     Edge 63, Type (0, 0), BuildingBlock: TEMPAE_clean_linker_10, # of connection points: 2
#     Edge 64, Type (0, 0), BuildingBlock: TEMPAE_clean_linker_10, # of connection points: 2
#     Edge 65, Type (0, 0), BuildingBlock: TEMPAE_clean_linker_10, # of connection points: 2
#     Edge 66, Type (0, 0), BuildingBlock: TEMPAE_clean_linker_10, # of connection points: 2
#     Edge 67, Type (0, 0), BuildingBlock: TEMPAE_clean_linker_10, # of connection points: 2
#     Edge 68, Type (0, 0), BuildingBlock: TEMPAE_clean_linker_10, # of connection points: 2
#     Edge 69, Type (0, 0), BuildingBlock: TEMPAE_clean_linker_10, # of connection points: 2
#     Edge 70, Type (0, 0), BuildingBlock: TEMPAE_clean_linker_10, # of connection points: 2
#     Edge 71, Type (0, 0), BuildingBlock: TEMPAE_clean_linker_10, # of connection points: 2
#     Edge 72, Type (0, 0), BuildingBlock: TEMPAE_clean_linker_10, # of connection points: 2
#     Edge 73, Type (0, 0), BuildingBlock: TEMPAE_clean_linker_10, # of connection points: 2
#     Edge 74, Type (0, 0), BuildingBlock: TEMPAE_clean_linker_10, # of connection points: 2
#     Edge 75, Type (0, 0), BuildingBlock: TEMPAE_clean_linker_10, # of connection points: 2
#     Edge 76, Type (0, 0), BuildingBlock: TEMPAE_clean_linker_10, # of connection points: 2
#     Edge 77, Type (0, 0), BuildingBlock: TEMPAE_clean_linker_10, # of connection points: 2
#     Edge 78, Type (0, 0), BuildingBlock: TEMPAE_clean_linker_10, # of connection points: 2
#     Edge 79, Type (0, 0), BuildingBlock: TEMPAE_clean_linker_10, # of connection points: 2
#     Edge 80, Type (0, 0), BuildingBlock: TEMPAE_clean_linker_10, # of connection points: 2
#     Edge 81, Type (0, 0), BuildingBlock: TEMPAE_clean_linker_10, # of connection points: 2
#     Edge 82, Type (0, 0), BuildingBlock: TEMPAE_clean_linker_10, # of connection points: 2
#     Edge 83, Type (0, 0), BuildingBlock: TEMPAE_clean_linker_10, # of connection points: 2
#     Edge 84, Type (0, 0), BuildingBlock: TEMPAE_clean_linker_10, # of connection points: 2
#     Edge 85, Type (0, 0), BuildingBlock: TEMPAE_clean_linker_10, # of connection points: 2
#     Edge 86, Type (0, 0), BuildingBlock: TEMPAE_clean_linker_10, # of connection points: 2
#     Edge 87, Type (0, 0), BuildingBlock: TEMPAE_clean_linker_10, # of connection points: 2
#     Edge 88, Type (0, 0), BuildingBlock: TEMPAE_clean_linker_10, # of connection points: 2
#     Edge 89, Type (0, 0), BuildingBlock: TEMPAE_clean_linker_10, # of connection points: 2
#     Edge 90, Type (0, 0), BuildingBlock: TEMPAE_clean_linker_10, # of connection points: 2
#     Edge 91, Type (0, 0), BuildingBlock: TEMPAE_clean_linker_10, # of connection points: 2
#     Edge 92, Type (0, 0), BuildingBlock: TEMPAE_clean_linker_10, # of connection points: 2
#     Edge 93, Type (0, 0), BuildingBlock: TEMPAE_clean_linker_10, # of connection points: 2
#     Edge 94, Type (0, 0), BuildingBlock: TEMPAE_clean_linker_10, # of connection points: 2
#     Edge 95, Type (0, 0), BuildingBlock: TEMPAE_clean_linker_10, # of connection points: 2
#     Edge 96, Type (0, 0), BuildingBlock: TEMPAE_clean_linker_10, # of connection points: 2
#     Edge 97, Type (0, 0), BuildingBlock: TEMPAE_clean_linker_10, # of connection points: 2
#     Edge 98, Type (0, 0), BuildingBlock: TEMPAE_clean_linker_10, # of connection points: 2
#     Edge 99, Type (0, 0), BuildingBlock: TEMPAE_clean_linker_10, # of connection points: 2
#     Edge 100, Type (0, 0), BuildingBlock: TEMPAE_clean_linker_10, # of connection points: 2
#     Edge 101, Type (0, 0), BuildingBlock: TEMPAE_clean_linker_10, # of connection points: 2
#     Edge 102, Type (0, 0), BuildingBlock: TEMPAE_clean_linker_10, # of connection points: 2
#     Edge 103, Type (0, 0), BuildingBlock: TEMPAE_clean_linker_10, # of connection points: 2
#     Edge 104, Type (0, 0), BuildingBlock: TEMPAE_clean_linker_10, # of connection points: 2
#     Edge 105, Type (0, 0), BuildingBlock: TEMPAE_clean_linker_10, # of connection points: 2
#     Edge 106, Type (0, 0), BuildingBlock: TEMPAE_clean_linker_10, # of connection points: 2
#     Edge 107, Type (0, 0), BuildingBlock: TEMPAE_clean_linker_10, # of connection points: 2
#     Edge 108, Type (0, 0), BuildingBlock: TEMPAE_clean_linker_10, # of connection points: 2
#     Edge 109, Type (0, 0), BuildingBlock: TEMPAE_clean_linker_10, # of connection points: 2
#     Edge 110, Type (0, 0), BuildingBlock: TEMPAE_clean_linker_10, # of connection points: 2
#     Edge 111, Type (0, 0), BuildingBlock: TEMPAE_clean_linker_10, # of connection points: 2
# Relax obj value: 0.343
# Max RMSD: 0.209
# Mean RMSD: 0.209
data_MOF--net-yft--node1-BEQFEK_clean_sbu_0--edge1-TEMPAE_clean_linker_10
_symmetry_space_group_name_H-M    P1
_symmetry_Int_Tables_number       1
_symmetry_cell_setting            triclinic
loop_
_symmetry_equiv_pos_as_xyz
'x, y, z'
_cell_length_a     49.167756
_cell_length_b     49.169908
_cell_length_c     81.078863
_cell_angle_alpha  90.016338
_cell_angle_beta   90.012909
_cell_angle_gamma 90.013489
loop_
_atom_site_label
_atom_site_type_symbol
_atom_site_fract_x
_atom_site_fract_y
_atom_site_fract_z
_atom_type_partial_charge
Co0 Co 0.37049 0.18542 0.18997 0.0
Co1 Co 0.3193 0.16878 0.16935 0.0
C2 C 0.37386 0.14123 0.1653 0.0
O3 O 0.38433 0.15548 0.1767 0.0
O4 O 0.34908 0.1444 0.16111 0.0
C5 C 0.4205 0.18367 0.20842 0.0
O6 O 0.42145 0.15812 0.20371 0.0
C7 C 0.2758 0.13178 0.1582 0.0
C8 C 0.24725 0.16072 0.14661 0.0
C9 C 0.25112 0.13323 0.14972 0.0
N10 N 0.2857 0.15715 0.1599 0.0
N11 N 0.26849 0.17431 0.15299 0.0
C12 C 0.2906 0.10696 0.16399 0.0
H13 H 0.312 0.11171 0.16703 0.0
H14 H 0.28081 0.09927 0.1754 0.0
H15 H 0.28989 0.09081 0.15443 0.0
C16 C 0.33175 0.18426 0.21656 0.0
N17 N 0.33873 0.17604 0.20137 0.0
N18 N 0.31664 0.17077 0.19279 0.0
C19 C 0.29474 0.17646 0.20218 0.0
C20 C 0.30362 0.18585 0.21747 0.0
C21 C 0.35164 0.19552 0.22878 0.0
H22 H 0.35934 0.21543 0.22434 0.0
H23 H 0.3692 0.18149 0.22993 0.0
H24 H 0.34206 0.19828 0.24107 0.0
O25 O 0.36301 0.21692 0.17538 0.0
O26 O 0.32617 0.20588 0.16104 0.0
H27 H 0.26684 0.19531 0.18552 0.0
H28 H 0.25161 0.18511 0.20481 0.0
C29 C 0.26667 0.17944 0.19524 0.0
H30 H 0.26034 0.15997 0.18952 0.0
H31 H 0.27143 0.19531 0.15245 0.0
O32 O 0.39983 0.19792 0.20475 0.0
C33 C 0.34488 0.2227 0.16472 0.0
Co34 Co 0.05432 0.11699 0.43859 0.0
Co35 Co 0.07942 0.0702 0.41735 0.0
C36 C 0.10419 0.12556 0.41796 0.0
O37 O 0.08614 0.13356 0.42806 0.0
O38 O 0.10438 0.10117 0.41265 0.0
C39 C 0.05413 0.16175 0.46125 0.0
O40 O 0.08067 0.1609 0.45945 0.0
C41 C 0.11767 0.03081 0.4026 0.0
C42 C 0.08934 0.99808 0.39515 0.0
C43 C 0.11654 0.00539 0.39513 0.0
N44 N 0.09229 0.0379 0.40702 0.0
N45 N 0.07548 0.01832 0.40246 0.0
C46 C 0.14172 0.04933 0.40418 0.0
H47 H 0.13684 0.06915 0.39843 0.0
H48 H 0.14599 0.053 0.41744 0.0
H49 H 0.16006 0.04117 0.398 0.0
C50 C 0.05357 0.07433 0.46335 0.0
N51 N 0.06265 0.08408 0.44891 0.0
N52 N 0.0742 0.06446 0.44041 0.0
C53 C 0.07367 0.04155 0.44953 0.0
C54 C 0.06019 0.04689 0.46429 0.0
C55 C 0.034 0.08975 0.47404 0.0
H56 H 0.01895 0.10042 0.46617 0.0
H57 H 0.04536 0.10534 0.48114 0.0
H58 H 0.02277 0.07651 0.48272 0.0
O59 O 0.02617 0.11101 0.42179 0.0
O60 O 0.04367 0.07769 0.40671 0.0
H61 H 0.06856 0.00573 0.43493 0.0
H62 H 0.08626 0.00019 0.45412 0.0
C63 C 0.08357 0.01447 0.44365 0.0
H64 H 0.10323 0.01692 0.43711 0.0
H65 H 0.05448 0.01886 0.40429 0.0
O66 O 0.03954 0.14392 0.45417 0.0
C67 C 0.0246 0.09449 0.40975 0.0
Co68 Co 0.12728 0.80209 0.6833 0.0
Co69 Co 0.17353 0.82687 0.66121 0.0
C70 C 0.11671 0.84705 0.65892 0.0
O71 O 0.10965 0.83035 0.67006 0.0
O72 O 0.14127 0.84839 0.65402 0.0
C73 C 0.08068 0.80476 0.70399 0.0
O74 O 0.08079 0.83038 0.69943 0.0
C75 C 0.21391 0.86505 0.64675 0.0
C76 C 0.24532 0.83587 0.63857 0.0
C77 C 0.23933 0.8634 0.63917 0.0
N78 N 0.20571 0.83968 0.65056 0.0
N79 N 0.22453 0.82241 0.64554 0.0
C80 C 0.19719 0.88995 0.6499 0.0
H81 H 0.17543 0.88474 0.65115 0.0
H82 H 0.20387 0.89945 0.66164 0.0
H83 H 0.19973 0.90486 0.63974 0.0
C84 C 0.16923 0.80692 0.70813 0.0
N85 N 0.1591 0.81444 0.69345 0.0
N86 N 0.17823 0.82609 0.6846 0.0
C87 C 0.20111 0.82731 0.69372 0.0
C88 C 0.19644 0.81463 0.70882 0.0
C89 C 0.15475 0.78719 0.71919 0.0
H90 H 0.14486 0.77121 0.71161 0.0
H91 H 0.13854 0.79815 0.72601 0.0
H92 H 0.16842 0.77713 0.72814 0.0
O93 O 0.13606 0.77145 0.66877 0.0
O94 O 0.16884 0.78887 0.65317 0.0
H95 H 0.23642 0.8225 0.6786 0.0
H96 H 0.24251 0.84056 0.69765 0.0
C97 C 0.22784 0.83746 0.68741 0.0
H98 H 0.22483 0.85699 0.68084 0.0
H99 H 0.22326 0.80135 0.64697 0.0
O100 O 0.09988 0.78925 0.69938 0.0
C101 C 0.1534 0.76916 0.65721 0.0
Co102 Co 0.43647 0.87963 0.93236 0.0
Co103 Co 0.41957 0.92967 0.91085 0.0
C104 C 0.39316 0.8748 0.90698 0.0
O105 O 0.40762 0.86514 0.91853 0.0
O106 O 0.39547 0.89958 0.90259 0.0
C107 C 0.43276 0.83028 0.95093 0.0
O108 O 0.40805 0.82932 0.94481 0.0
C109 C 0.3822 0.97033 0.89751 0.0
C110 C 0.41019 0.00292 0.88951 0.0
C111 C 0.38297 0.99585 0.89031 0.0
N112 N 0.40781 0.96263 0.90085 0.0
N113 N 0.42448 0.9821 0.89591 0.0
C114 C 0.35759 0.95391 0.9018 0.0
H115 H 0.36168 0.94127 0.91287 0.0
H116 H 0.33979 0.96729 0.90405 0.0
H117 H 0.35277 0.94012 0.89137 0.0
C118 C 0.43312 0.91899 0.9585 0.0
N119 N 0.42582 0.91149 0.94322 0.0
N120 N 0.42061 0.93324 0.93433 0.0
C121 C 0.42544 0.95547 0.94365 0.0
C122 C 0.43433 0.94716 0.95917 0.0
C123 C 0.4438 0.89955 0.97116 0.0
H124 H 0.46394 0.89175 0.96719 0.0
H125 H 0.42975 0.88199 0.97226 0.0
H126 H 0.4459 0.90954 0.98338 0.0
O127 O 0.46869 0.88724 0.91835 0.0
O128 O 0.45701 0.92298 0.90315 0.0
H129 H 0.4455 0.98394 0.92793 0.0
H130 H 0.43141 -0.00098 0.9463 0.0
C131 C 0.42807 0.98349 0.93661 0.0
H132 H 0.40931 0.9887 0.92972 0.0
H133 H 0.44562 0.98121 0.89698 0.0
O134 O 0.44776 0.85069 0.94786 0.0
C135 C 0.47427 0.90501 0.90742 0.0
Co136 Co 0.37606 0.81446 0.31456 0.0
Co137 Co 0.32658 0.84226 0.33188 0.0
C138 C 0.38123 0.86824 0.33194 0.0
O139 O 0.39056 0.84877 0.32329 0.0
O140 O 0.35641 0.86868 0.33647 0.0
C141 C 0.41622 0.803 0.28819 0.0
O142 O 0.40754 0.82415 0.27981 0.0
C143 C 0.2837 0.87907 0.3451 0.0
C144 C 0.25035 0.84931 0.34826 0.0
C145 C 0.25687 0.87647 0.35035 0.0
N146 N 0.29231 0.85455 0.3399 0.0
N147 N 0.27233 0.8369 0.34196 0.0
C148 C 0.30173 0.9035 0.34649 0.0
H149 H 0.32208 0.89732 0.35095 0.0
H150 H 0.30415 0.91286 0.33413 0.0
H151 H 0.29338 0.91875 0.3552 0.0
C152 C 0.33565 0.80799 0.28822 0.0
N153 N 0.34415 0.81958 0.30232 0.0
N154 N 0.32403 0.83342 0.30897 0.0
C155 C 0.30246 0.83233 0.29873 0.0
C156 C 0.30894 0.81581 0.28538 0.0
C157 C 0.35064 0.78539 0.27975 0.0
H158 H 0.36445 0.77499 0.28849 0.0
H159 H 0.36275 0.79393 0.26943 0.0
H160 H 0.33643 0.77004 0.27462 0.0
O161 O 0.36865 0.78955 0.33274 0.0
O162 O 0.33299 0.8084 0.34486 0.0
H163 H 0.26297 0.83236 0.3098 0.0
H164 H 0.26463 0.84937 0.29023 0.0
C165 C 0.27567 0.84573 0.30197 0.0
H166 H 0.2788 0.86535 0.30845 0.0
H167 H 0.27382 0.81623 0.33916 0.0
O168 O 0.40524 0.79692 0.30188 0.0
C169 C 0.35048 0.78941 0.34386 0.0
Co170 Co 0.44161 0.11686 0.56444 0.0
Co171 Co 0.41904 0.06732 0.58448 0.0
C172 C 0.39083 0.12201 0.58358 0.0
O173 O 0.40798 0.13158 0.5734 0.0
O174 O 0.39297 0.09779 0.58903 0.0
C175 C 0.44994 0.1605 0.53979 0.0
O176 O 0.42478 0.15733 0.53468 0.0
C177 C 0.37998 0.02424 0.59412 0.0
C178 C 0.40731 0.99628 0.60754 0.0
C179 C 0.38039 -0.00021 0.60288 0.0
N180 N 0.40543 0.03432 0.59371 0.0
N181 N 0.42161 0.01747 0.60174 0.0
C182 C 0.35597 0.03858 0.58685 0.0
H183 H 0.36085 0.06003 0.58402 0.0
H184 H 0.35025 0.02854 0.5751 0.0
H185 H 0.3384 0.03774 0.59542 0.0
C186 C 0.44759 0.07553 0.53913 0.0
N187 N 0.43605 0.08397 0.55323 0.0
N188 N 0.42755 0.06273 0.56167 0.0
C189 C 0.43398 0.03997 0.55324 0.0
C190 C 0.44736 0.04735 0.53883 0.0
C191 C 0.46278 0.09385 0.52761 0.0
H192 H 0.48051 0.1028 0.53411 0.0
H193 H 0.44923 0.1106 0.52364 0.0
H194 H 0.46989 0.08277 0.51649 0.0
O195 O 0.46778 0.11085 0.58252 0.0
O196 O 0.45316 0.07494 0.59644 0.0
H197 H 0.44688 0.01106 0.57128 0.0
H198 H 0.43893 0.99622 0.5515 0.0
C199 C 0.43293 0.01203 0.56054 0.0
H200 H 0.412 0.00773 0.5649 0.0
H201 H 0.44243 0.02056 0.60337 0.0
O202 O 0.45936 0.14514 0.55101 0.0
C203 C 0.47057 0.09366 0.59412 0.0
Co204 Co 0.12547 0.19167 0.81299 0.0
Co205 Co 0.1768 0.16431 0.82858 0.0
C206 C 0.12237 0.13722 0.82925 0.0
O207 O 0.11206 0.1566 0.82096 0.0
O208 O 0.14729 0.13759 0.8336 0.0
C209 C 0.08147 0.20385 0.78911 0.0
O210 O 0.08729 0.18151 0.78095 0.0
C211 C 0.21864 0.12485 0.83925 0.0
C212 C 0.2544 0.15181 0.8418 0.0
C213 C 0.24597 0.12511 0.84346 0.0
N214 N 0.21126 0.15032 0.83518 0.0
N215 N 0.23269 0.16633 0.83688 0.0
C216 C 0.20002 0.10082 0.83862 0.0
H217 H 0.18646 0.10124 0.84955 0.0
H218 H 0.18709 0.10197 0.82742 0.0
H219 H 0.21161 0.08145 0.83859 0.0
C220 C 0.16302 0.19887 0.78529 0.0
N221 N 0.15633 0.18746 0.79978 0.0
N222 N 0.17736 0.17409 0.80571 0.0
C223 C 0.1978 0.17549 0.79467 0.0
C224 C 0.18952 0.19155 0.78148 0.0
C225 C 0.14635 0.22054 0.77709 0.0
H226 H 0.13419 0.23173 0.78637 0.0
H227 H 0.13236 0.21092 0.76808 0.0
H228 H 0.15928 0.23542 0.77046 0.0
O229 O 0.13421 0.21527 0.83159 0.0
O230 O 0.17181 0.1978 0.84227 0.0
H231 H 0.23813 0.17627 0.80451 0.0
H232 H 0.2353 0.15961 0.78484 0.0
C233 C 0.22516 0.16272 0.79693 0.0
H234 H 0.22309 0.14288 0.8033 0.0
H235 H 0.23245 0.18724 0.83469 0.0
O236 O 0.09531 0.2103 0.80174 0.0
C237 C 0.1534 0.21599 0.84206 0.0
Co238 Co 0.06065 0.88101 0.06261 0.0
Co239 Co 0.08085 0.92802 0.08564 0.0
C240 C 0.10467 0.87144 0.0869 0.0
O241 O 0.08952 0.86351 0.07516 0.0
O242 O 0.10345 0.8958 0.09228 0.0
C243 C 0.06004 0.83655 0.03896 0.0
O244 O 0.08662 0.83616 0.04059 0.0
C245 C 0.11841 0.96922 0.09969 0.0
C246 C 0.08884 0.99772 0.11074 0.0
C247 C 0.11649 0.99356 0.10851 0.0
N248 N 0.09308 0.9599 0.09686 0.0
N249 N 0.07558 0.97701 0.10355 0.0
C250 C 0.14351 0.95431 0.0945 0.0
H251 H 0.13885 0.9328 0.09164 0.0
H252 H 0.15175 0.96381 0.08314 0.0
H253 H 0.15919 0.95526 0.10434 0.0
C254 C 0.06512 0.92311 0.03798 0.0
N255 N 0.07237 0.91352 0.05282 0.0
N256 N 0.07953 0.93392 0.0624 0.0
C257 C 0.07627 0.95732 0.05396 0.0
C258 C 0.06635 0.95127 0.03833 0.0
C259 C 0.05134 0.90621 0.02508 0.0
H260 H 0.03123 0.89939 0.02973 0.0
H261 H 0.06384 0.88796 0.02244 0.0
H262 H 0.04841 0.91785 0.01348 0.0
O263 O 0.0295 0.88844 0.07737 0.0
O264 O 0.0433 0.92224 0.09343 0.0
H265 H 0.05918 0.9857 0.07101 0.0
H266 H 0.07315 0.00121 0.05268 0.0
C267 C 0.07599 0.98479 0.0619 0.0
H268 H 0.09546 0.98817 0.06848 0.0
H269 H 0.0545 0.97457 0.10318 0.0
O270 O 0.04636 0.85458 0.04651 0.0
C271 C 0.02511 0.90547 0.08888 0.0
Co272 Co 0.63322 0.81165 0.81185 0.0
Co273 Co 0.68274 0.82716 0.83423 0.0
C274 C 0.62881 0.85631 0.83622 0.0
O275 O 0.6191 0.84212 0.82455 0.0
O276 O 0.65309 0.8527 0.84125 0.0
C277 C 0.58467 0.81457 0.79211 0.0
O278 O 0.58341 0.83978 0.79742 0.0
C279 C 0.72665 0.86298 0.84587 0.0
C280 C 0.75189 0.83429 0.86019 0.0
C281 C 0.74991 0.86141 0.85565 0.0
N282 N 0.71566 0.838 0.84477 0.0
N283 N 0.73091 0.82094 0.8533 0.0
C284 C 0.71404 0.88778 0.83838 0.0
H285 H 0.69256 0.88396 0.83501 0.0
H286 H 0.72515 0.89308 0.82692 0.0
H287 H 0.71528 0.90523 0.84704 0.0
C288 C 0.67455 0.81066 0.78682 0.0
N289 N 0.66638 0.81977 0.8016 0.0
N290 N 0.68775 0.82423 0.81099 0.0
C291 C 0.71028 0.81698 0.80259 0.0
C292 C 0.70259 0.80751 0.78708 0.0
C293 C 0.65544 0.80016 0.77391 0.0
H294 H 0.64648 0.78063 0.77808 0.0
H295 H 0.63863 0.81491 0.77209 0.0
H296 H 0.66611 0.7969 0.762 0.0
O297 O 0.63826 0.7802 0.8269 0.0
O298 O 0.67367 0.7907 0.84266 0.0
H299 H 0.73501 0.79792 0.82093 0.0
H300 H 0.75285 0.80511 0.80195 0.0
C301 C 0.73731 0.81273 0.8107 0.0
H302 H 0.74443 0.83225 0.81602 0.0
H303 H 0.72675 0.80024 0.85462 0.0
O304 O 0.60497 0.79995 0.79602 0.0
C305 C 0.65495 0.77428 0.83838 0.0
Co306 Co 0.92258 0.87442 0.56203 0.0
Co307 Co 0.90653 0.92677 0.58167 0.0
C308 C 0.87386 0.87482 0.58341 0.0
O309 O 0.88918 0.86323 0.57295 0.0
O310 O 0.87833 0.89921 0.588 0.0
C311 C 0.93892 0.82229 0.55608 0.0
O312 O 0.93162 0.82162 0.57167 0.0
C313 C 0.87185 0.97134 0.59376 0.0
C314 C 0.90274 0.00025 0.60308 0.0
C315 C 0.87495 0.99639 0.60152 0.0
N316 N 0.89674 0.96116 0.59075 0.0
N317 N 0.91507 0.97851 0.59637 0.0
C318 C 0.84619 0.95555 0.59101 0.0
H319 H 0.84648 0.93726 0.599 0.0
H320 H 0.84539 0.94849 0.57802 0.0
H321 H 0.82768 0.96731 0.59404 0.0
C322 C 0.92834 0.91296 0.53543 0.0
N323 N 0.91794 0.90677 0.55025 0.0
N324 N 0.91263 0.92927 0.55842 0.0
C325 C 0.92022 0.95067 0.54908 0.0
C326 C 0.93103 0.94098 0.53432 0.0
C327 C 0.93969 0.89221 0.52379 0.0
H328 H 0.95871 0.88364 0.52901 0.0
H329 H 0.92493 0.87532 0.5223 0.0
H330 H 0.94409 0.90128 0.51154 0.0
O331 O 0.95186 0.87941 0.57852 0.0
O332 O 0.94124 0.91687 0.59229 0.0
H333 H 0.93921 0.97938 0.56512 0.0
H334 H 0.92795 0.99385 0.5459 0.0
C335 C 0.92289 0.97897 0.55569 0.0
H336 H 0.90353 0.98515 0.56161 0.0
H337 H 0.93603 0.97525 0.59591 0.0
O338 O 0.93548 0.8442 0.54807 0.0
C339 C 0.95714 0.89698 0.5896 0.0
Co340 Co 0.86861 0.19552 0.31259 0.0
Co341 Co 0.82014 0.16647 0.33008 0.0
C342 C 0.87686 0.14549 0.33307 0.0
O343 O 0.8854 0.16412 0.32351 0.0
O344 O 0.85179 0.14376 0.33688 0.0
C345 C 0.91029 0.20429 0.28728 0.0
O346 O 0.90425 0.18019 0.28131 0.0
C347 C 0.78215 0.12448 0.34182 0.0
C348 C 0.74527 0.14904 0.34643 0.0
C349 C 0.75549 0.12285 0.34728 0.0
N350 N 0.78743 0.1505 0.3379 0.0
N351 N 0.76535 0.16508 0.34077 0.0
C352 C 0.80198 0.10169 0.3397 0.0
H353 H 0.81521 0.10059 0.35077 0.0
H354 H 0.81508 0.10554 0.3288 0.0
H355 H 0.7913 0.08195 0.33823 0.0
C356 C 0.83003 0.19539 0.28514 0.0
N357 N 0.83828 0.18592 0.29986 0.0
N358 N 0.81843 0.17208 0.30678 0.0
C359 C 0.79722 0.17126 0.29625 0.0
C360 C 0.80369 0.18635 0.28228 0.0
C361 C 0.84458 0.2176 0.27601 0.0
H362 H 0.85608 0.23056 0.28474 0.0
H363 H 0.85903 0.20834 0.26713 0.0
H364 H 0.83033 0.23081 0.26908 0.0
O365 O 0.85761 0.22198 0.32931 0.0
O366 O 0.82235 0.20235 0.34151 0.0
H367 H 0.75845 0.17232 0.30815 0.0
H368 H 0.75851 0.15492 0.2886 0.0
C369 C 0.77031 0.15854 0.30007 0.0
H370 H 0.77338 0.13897 0.3066 0.0
H371 H 0.76402 0.18603 0.33886 0.0
O372 O 0.89728 0.21342 0.29963 0.0
C373 C 0.83861 0.22234 0.33993 0.0
Co374 Co 0.5514 0.12096 0.0605 0.0
Co375 Co 0.57461 0.07169 0.08081 0.0
C376 C 0.59817 0.12744 0.0839 0.0
O377 O 0.58155 0.13635 0.07319 0.0
O378 O 0.59795 0.10257 0.08825 0.0
C379 C 0.55226 0.17011 0.04163 0.0
O380 O 0.57775 0.17118 0.04643 0.0
C381 C 0.61241 0.0294 0.09358 0.0
C382 C 0.58286 -0.00137 0.10213 0.0
C383 C 0.61049 0.00396 0.1011 0.0
N384 N 0.58708 0.03836 0.09031 0.0
N385 N 0.56959 0.01983 0.09547 0.0
C386 C 0.63762 0.04549 0.0901 0.0
H387 H 0.63291 0.06728 0.08846 0.0
H388 H 0.64691 0.03807 0.07847 0.0
H389 H 0.65256 0.04308 0.10026 0.0
C390 C 0.55312 0.08112 0.03428 0.0
N391 N 0.56145 0.0894 0.04922 0.0
N392 N 0.57202 0.06881 0.05735 0.0
C393 C 0.57145 0.04671 0.04753 0.0
C394 C 0.55896 0.05357 0.03267 0.0
C395 C 0.53442 0.09788 0.02376 0.0
H396 H 0.51781 0.10618 0.03153 0.0
H397 H 0.54594 0.11535 0.01864 0.0
H398 H 0.52519 0.08628 0.0135 0.0
O399 O 0.52156 0.11252 0.07573 0.0
O400 O 0.53744 0.07738 0.08996 0.0
H401 H 0.5643 0.01085 0.06178 0.0
H402 H 0.5812 0.00471 0.04234 0.0
C403 C 0.57962 0.01882 0.05299 0.0
H404 H 0.59953 0.01979 0.05938 0.0
H405 H 0.54851 0.02174 0.09452 0.0
O406 O 0.53785 0.14965 0.04548 0.0
C407 C 0.51865 0.09444 0.08681 0.0
Co408 Co 0.62868 0.20265 0.68331 0.0
Co409 Co 0.67795 0.17368 0.66622 0.0
C410 C 0.62212 0.14987 0.66527 0.0
O411 O 0.61311 0.16937 0.67401 0.0
O412 O 0.64707 0.14872 0.66103 0.0
C413 C 0.58574 0.21296 0.70785 0.0
O414 O 0.59078 0.18899 0.71432 0.0
C415 C 0.7179 0.1351 0.65186 0.0
C416 C 0.75491 0.16067 0.65206 0.0
C417 C 0.74537 0.13515 0.64771 0.0
N418 N 0.7118 0.15932 0.65864 0.0
N419 N 0.73395 0.17454 0.65855 0.0
C420 C 0.69703 0.11402 0.64768 0.0
H421 H 0.67931 0.124 0.6418 0.0
H422 H 0.68994 0.10407 0.65918 0.0
H423 H 0.70498 0.0985 0.63902 0.0
C424 C 0.66663 0.20367 0.71111 0.0
N425 N 0.6595 0.19514 0.69599 0.0
N426 N 0.67965 0.18128 0.68938 0.0
C427 C 0.69987 0.17942 0.70057 0.0
C428 C 0.6924 0.19378 0.71463 0.0
C429 C 0.65127 0.22495 0.72053 0.0
H430 H 0.63965 0.2381 0.71197 0.0
H431 H 0.63691 0.21486 0.72912 0.0
H432 H 0.66511 0.2381 0.72782 0.0
O433 O 0.63806 0.22752 0.66554 0.0
O434 O 0.67351 0.20819 0.65345 0.0
H435 H 0.74067 0.17844 0.69148 0.0
H436 H 0.73526 0.15852 0.70976 0.0
C437 C 0.72614 0.16475 0.69782 0.0
H438 H 0.72277 0.14652 0.69003 0.0
H439 H 0.73464 0.19459 0.66275 0.0
O440 O 0.59974 0.22125 0.69569 0.0
C441 C 0.65646 0.22759 0.65457 0.0
Co442 Co 0.55657 0.8766 0.43359 0.0
Co443 Co 0.58611 0.92524 0.41657 0.0
C444 C 0.60722 0.86868 0.41351 0.0
O445 O 0.58825 0.86009 0.42282 0.0
O446 O 0.60912 0.89379 0.40978 0.0
C447 C 0.54687 0.83449 0.45859 0.0
O448 O 0.5709 0.84006 0.46483 0.0
C449 C 0.62748 0.964 0.40469 0.0
C450 C 0.60261 0.00117 0.40185 0.0
C451 C 0.6287 0.99108 0.39999 0.0
N452 N 0.60178 0.95838 0.40918 0.0
N453 N 0.58701 0.98063 0.40734 0.0
C454 C 0.65041 0.94407 0.4056 0.0
H455 H 0.64771 0.93057 0.41644 0.0
H456 H 0.67031 0.95465 0.40644 0.0
H457 H 0.65022 0.93125 0.39434 0.0
C458 C 0.55758 0.91416 0.46163 0.0
N459 N 0.56615 0.90657 0.44658 0.0
N460 N 0.5803 0.9264 0.43988 0.0
C461 C 0.58229 0.94688 0.45088 0.0
C462 C 0.5677 0.93994 0.46496 0.0
C463 C 0.53547 0.89969 0.47088 0.0
H464 H 0.52227 0.88829 0.46224 0.0
H465 H 0.54479 0.88524 0.47973 0.0
H466 H 0.52248 0.91407 0.47787 0.0
O467 O 0.53046 0.88788 0.41678 0.0
O468 O 0.55046 0.92309 0.4048 0.0
H469 H 0.58265 0.98663 0.44024 0.0
H470 H 0.60111 0.98396 0.45935 0.0
C471 C 0.59623 0.97338 0.44761 0.0
H472 H 0.61523 0.96988 0.44057 0.0
H473 H 0.56623 0.98177 0.40988 0.0
O474 O 0.53826 0.8478 0.44623 0.0
C475 C 0.53037 0.90689 0.40617 0.0
Co476 Co 0.86576 0.80811 0.18029 0.0
Co477 Co 0.81534 0.82901 0.16032 0.0
C478 C 0.87043 0.85642 0.15889 0.0
O479 O 0.88031 0.84024 0.16952 0.0
O480 O 0.84584 0.85419 0.15406 0.0
C481 C 0.91086 0.80189 0.2043 0.0
O482 O 0.90829 0.82754 0.20854 0.0
C483 C 0.77197 0.86719 0.14968 0.0
C484 C 0.74338 0.83847 0.13788 0.0
C485 C 0.74722 0.86585 0.14126 0.0
N486 N 0.78193 0.84179 0.15113 0.0
N487 N 0.76469 0.8248 0.14406 0.0
C488 C 0.78673 0.89198 0.15556 0.0
H489 H 0.80831 0.88736 0.15818 0.0
H490 H 0.77731 0.89917 0.1672 0.0
H491 H 0.78544 0.90845 0.14624 0.0
C492 C 0.826 0.80532 0.20653 0.0
N493 N 0.83367 0.81562 0.19193 0.0
N494 N 0.81197 0.82296 0.18352 0.0
C495 C 0.78966 0.81674 0.19243 0.0
C496 C 0.79783 0.80474 0.20715 0.0
C497 C 0.84506 0.79163 0.2183 0.0
H498 H 0.85382 0.77324 0.21241 0.0
H499 H 0.86189 0.80572 0.22137 0.0
H500 H 0.83461 0.78574 0.22989 0.0
O501 O 0.85822 0.77988 0.16359 0.0
O502 O 0.8219 0.79354 0.1497 0.0
H503 H 0.76072 0.80106 0.17524 0.0
H504 H 0.74608 0.81082 0.19476 0.0
C505 C 0.76154 0.81621 0.18536 0.0
H506 H 0.75656 0.83647 0.1802 0.0
H507 H 0.76763 0.80381 0.14331 0.0
O508 O 0.89474 0.79156 0.19378 0.0
C509 C 0.84037 0.77606 0.15247 0.0
Co510 Co 0.94943 0.12002 0.9307 0.0
Co511 Co 0.92127 0.06903 0.91489 0.0
C512 C 0.89541 0.12386 0.91373 0.0
O513 O 0.91504 0.13376 0.92199 0.0
O514 O 0.89491 0.09879 0.90973 0.0
C515 C 0.96056 0.16345 0.95502 0.0
O516 O 0.93864 0.15632 0.96321 0.0
C517 C 0.88358 0.02676 0.90187 0.0
C518 C 0.911 0.99111 0.90185 0.0
C519 C 0.88478 -0.00082 0.898 0.0
N520 N 0.90788 0.03431 0.90803 0.0
N521 N 0.92417 0.01295 0.9078 0.0
C522 C 0.8612 0.04637 0.89798 0.0
H523 H 0.86988 0.06481 0.89218 0.0
H524 H 0.85101 0.05256 0.90961 0.0
H525 H 0.84605 0.03759 0.88938 0.0
C526 C 0.95469 0.08271 0.95865 0.0
N527 N 0.94416 0.08932 0.9439 0.0
N528 N 0.9305 0.0685 0.93791 0.0
C529 C 0.93077 0.04835 0.9492 0.0
C530 C 0.94638 0.05658 0.96261 0.0
C531 C 0.97653 0.09888 0.96706 0.0
H532 H 0.98781 0.11135 0.95798 0.0
H533 H 0.9671 0.11246 0.97636 0.0
H534 H 0.9913 0.08547 0.97345 0.0
O535 O 0.97357 0.11085 0.91253 0.0
O536 O 0.95497 0.07412 0.90142 0.0
H537 H 0.93079 0.00727 0.94053 0.0
H538 H 0.91218 0.0124 0.95932 0.0
C539 C 0.91703 0.02142 0.94712 0.0
H540 H 0.89805 0.02379 0.93987 0.0
H541 H 0.9445 0.0134 0.91151 0.0
O542 O 0.96746 0.15041 0.94217 0.0
C543 C 0.97377 0.09191 0.90189 0.0
Co544 Co 0.86586 0.69416 0.68235 0.0
Co545 Co 0.81612 0.66969 0.66301 0.0
C546 C 0.87281 0.65009 0.65712 0.0
O547 O 0.88168 0.66641 0.668 0.0
O548 O 0.84755 0.6489 0.65371 0.0
C549 C 0.91615 0.69343 0.6999 0.0
O550 O 0.91755 0.66849 0.69416 0.0
C551 C 0.77498 0.63058 0.65027 0.0
C552 C 0.74219 0.65903 0.64324 0.0
C553 C 0.74909 0.63169 0.64327 0.0
N554 N 0.78273 0.65607 0.65416 0.0
N555 N 0.76297 0.67289 0.64995 0.0
C556 C 0.79261 0.60607 0.6526 0.0
H557 H 0.81413 0.61189 0.65428 0.0
H558 H 0.78605 0.59511 0.66388 0.0
H559 H 0.79074 0.59213 0.64189 0.0
C560 C 0.82902 0.68753 0.70981 0.0
N561 N 0.8362 0.68093 0.69435 0.0
N562 N 0.81535 0.67011 0.68658 0.0
C563 C 0.79417 0.66898 0.69711 0.0
C564 C 0.80189 0.68049 0.71211 0.0
C565 C 0.84596 0.70606 0.72034 0.0
H566 H 0.85172 0.7243 0.71307 0.0
H567 H 0.86497 0.69537 0.72385 0.0
H568 H 0.83546 0.71284 0.73167 0.0
O569 O 0.85408 0.72483 0.66859 0.0
O570 O 0.81868 0.70788 0.65501 0.0
H571 H 0.75717 0.67656 0.68404 0.0
H572 H 0.75275 0.65818 0.70316 0.0
C573 C 0.76601 0.66076 0.69219 0.0
H574 H 0.76679 0.64135 0.68524 0.0
H575 H 0.76381 0.69394 0.65149 0.0
O576 O 0.89521 0.70772 0.69693 0.0
C577 C 0.83477 0.72747 0.65826 0.0
Co578 Co 0.5472 0.6183 0.93389 0.0
Co579 Co 0.57113 0.56796 0.91516 0.0
C580 C 0.59439 0.62342 0.91063 0.0
O581 O 0.57744 0.63299 0.92092 0.0
O582 O 0.59457 0.59822 0.90704 0.0
C583 C 0.54753 0.66854 0.95168 0.0
O584 O 0.57282 0.66992 0.94655 0.0
C585 C 0.61073 0.52818 0.90295 0.0
C586 C 0.58476 0.49219 0.89856 0.0
C587 C 0.61132 0.50141 0.89766 0.0
N588 N 0.58495 0.53454 0.90684 0.0
N589 N 0.56948 0.51303 0.90403 0.0
C590 C 0.63437 0.54698 0.90511 0.0
H591 H 0.63111 0.56016 0.91605 0.0
H592 H 0.65364 0.53546 0.90653 0.0
H593 H 0.63602 0.56022 0.89408 0.0
C594 C 0.54869 0.58047 0.96121 0.0
N595 N 0.55723 0.58776 0.94612 0.0
N596 N 0.56838 0.56678 0.93867 0.0
C597 C 0.56816 0.54552 0.94915 0.0
C598 C 0.55509 0.55323 0.96366 0.0
C599 C 0.5294 0.59762 0.97108 0.0
H600 H 0.51297 0.60523 0.96292 0.0
H601 H 0.54052 0.61552 0.97599 0.0
H602 H 0.51996 0.58651 0.98147 0.0
O603 O 0.51777 0.60839 0.91872 0.0
O604 O 0.53402 0.57226 0.90555 0.0
H605 H 0.56207 0.50759 0.9368 0.0
H606 H 0.58039 0.50491 0.956 0.0
C607 C 0.5775 0.51748 0.94476 0.0
H608 H 0.59695 0.51858 0.93788 0.0
H609 H 0.54852 0.5125 0.90603 0.0
O610 O 0.5333 0.64776 0.94821 0.0
C611 C 0.5151 0.58946 0.90814 0.0
Co612 Co 0.62989 0.31582 0.18255 0.0
Co613 Co 0.68141 0.3329 0.16254 0.0
C614 C 0.62837 0.36338 0.16019 0.0
O615 O 0.61758 0.34822 0.17104 0.0
O616 O 0.65284 0.35966 0.15552 0.0
C617 C 0.57815 0.29891 0.18875 0.0
O618 O 0.57752 0.30541 0.17303 0.0
C619 C 0.724 0.36925 0.15023 0.0
C620 C 0.75581 0.34016 0.14249 0.0
C621 C 0.74972 0.3676 0.14334 0.0
N622 N 0.71526 0.3439 0.15336 0.0
N623 N 0.73427 0.32659 0.1486 0.0
C624 C 0.70829 0.3944 0.15431 0.0
H625 H 0.6957 0.39098 0.16548 0.0
H626 H 0.72214 0.41194 0.15631 0.0
H627 H 0.69448 0.39924 0.14389 0.0
C628 C 0.6687 0.31278 0.20916 0.0
N629 N 0.662 0.32225 0.1942 0.0
N630 N 0.6842 0.32838 0.18594 0.0
C631 C 0.70592 0.32249 0.19546 0.0
C632 C 0.6968 0.31174 0.21034 0.0
C633 C 0.64867 0.30015 0.22078 0.0
H634 H 0.6411 0.28077 0.21546 0.0
H635 H 0.63102 0.31396 0.22238 0.0
H636 H 0.65804 0.29607 0.23299 0.0
O637 O 0.63585 0.28606 0.16658 0.0
O638 O 0.67293 0.29722 0.15258 0.0
H639 H 0.73616 0.30416 0.18019 0.0
H640 H 0.74936 0.31804 0.19914 0.0
C641 C 0.73444 0.32123 0.18907 0.0
H642 H 0.73944 0.34045 0.18261 0.0
H643 H 0.73252 0.30549 0.14949 0.0
O644 O 0.6 0.30287 0.19674 0.0
C645 C 0.65355 0.28082 0.15559 0.0
Co646 Co 0.92823 0.37468 0.43385 0.0
Co647 Co 0.90439 0.42489 0.41529 0.0
C648 C 0.8764 0.37094 0.41473 0.0
O649 O 0.89435 0.36103 0.42427 0.0
O650 O 0.8777 0.39558 0.40993 0.0
C651 C 0.94864 0.32412 0.43946 0.0
O652 O 0.94241 0.3236 0.42369 0.0
C653 C 0.86595 0.46619 0.40342 0.0
C654 C 0.89372 0.50007 0.39723 0.0
C655 C 0.86661 0.49248 0.39731 0.0
N656 N 0.89157 0.45856 0.40684 0.0
N657 N 0.90807 0.47882 0.40301 0.0
C658 C 0.84144 0.44894 0.40656 0.0
H659 H 0.83869 0.43469 0.39607 0.0
H660 H 0.84444 0.43675 0.41793 0.0
H661 H 0.82286 0.4616 0.40778 0.0
C662 C 0.93421 0.4144 0.46004 0.0
N663 N 0.92288 0.40667 0.44572 0.0
N664 N 0.91176 0.42777 0.43839 0.0
C665 C 0.91484 0.44964 0.44823 0.0
C666 C 0.92969 0.44208 0.46211 0.0
C667 C 0.95383 0.39675 0.46931 0.0
H668 H 0.96845 0.38751 0.46053 0.0
H669 H 0.94244 0.37995 0.4753 0.0
H670 H 0.96543 0.408 0.47882 0.0
O671 O 0.95494 0.38134 0.41632 0.0
O672 O 0.93902 0.4176 0.40326 0.0
H673 H 0.92093 0.48674 0.435 0.0
H674 H 0.90512 0.491 0.45487 0.0
C675 C 0.9061 0.47784 0.44376 0.0
H676 H 0.88584 0.47727 0.43777 0.0
H677 H 0.92917 0.47813 0.40436 0.0
O678 O 0.94343 0.34547 0.44766 0.0
C679 C 0.95703 0.39923 0.40507 0.0
Co680 Co 0.86638 0.30984 0.81708 0.0
Co681 Co 0.81839 0.33222 0.8384 0.0
C682 C 0.87403 0.35807 0.8385 0.0
O683 O 0.88261 0.34122 0.82782 0.0
O684 O 0.84963 0.35703 0.84385 0.0
C685 C 0.91027 0.30535 0.79279 0.0
O686 O 0.90961 0.33197 0.79151 0.0
C687 C 0.77766 0.3714 0.85032 0.0
C688 C 0.7457 0.34375 0.85966 0.0
C689 C 0.75205 0.3709 0.85742 0.0
N690 N 0.78605 0.34561 0.84834 0.0
N691 N 0.767 0.32921 0.85414 0.0
C692 C 0.79334 0.39577 0.84476 0.0
H693 H 0.80627 0.39047 0.834 0.0
H694 H 0.77943 0.41274 0.84155 0.0
H695 H 0.80682 0.40255 0.85495 0.0
C696 C 0.82508 0.30963 0.79173 0.0
N697 N 0.83394 0.31883 0.80635 0.0
N698 N 0.81309 0.32698 0.81525 0.0
C699 C 0.7901 0.32256 0.80655 0.0
C700 C 0.79694 0.31078 0.79154 0.0
C701 C 0.84271 0.29495 0.77958 0.0
H702 H 0.85031 0.27582 0.78519 0.0
H703 H 0.86041 0.30788 0.77642 0.0
H704 H 0.83143 0.29009 0.76809 0.0
O705 O 0.85927 0.28124 0.83361 0.0
O706 O 0.82477 0.29635 0.84863 0.0
H707 H 0.76006 0.30739 0.82318 0.0
H708 H 0.74627 0.32078 0.80424 0.0
C709 C 0.76215 0.32367 0.8138 0.0
H710 H 0.75897 0.34363 0.81985 0.0
H711 H 0.76834 0.30803 0.85406 0.0
O712 O 0.89345 0.29339 0.8022 0.0
C713 C 0.84219 0.27809 0.84524 0.0
Co714 Co 0.95077 0.62099 0.06679 0.0
Co715 Co 0.92297 0.56954 0.08199 0.0
C716 C 0.89648 0.6239 0.08348 0.0
O717 O 0.91597 0.6342 0.07529 0.0
O718 O 0.89643 0.59883 0.08744 0.0
C719 C 0.96161 0.66421 0.04245 0.0
O720 O 0.94057 0.65578 0.03387 0.0
C721 C 0.88332 0.52788 0.09238 0.0
C722 C 0.90989 0.49182 0.0948 0.0
C723 C 0.88329 0.50054 0.09652 0.0
N724 N 0.90885 0.53502 0.08833 0.0
N725 N 0.92463 0.51342 0.08993 0.0
C726 C 0.85946 0.54672 0.09179 0.0
H727 H 0.86082 0.55981 0.08067 0.0
H728 H 0.83999 0.53531 0.09161 0.0
H729 H 0.85989 0.56008 0.10282 0.0
C730 C 0.95741 0.58389 0.03874 0.0
N731 N 0.94616 0.59047 0.0533 0.0
N732 N 0.93249 0.56952 0.05909 0.0
C733 C 0.93345 0.54932 0.04786 0.0
C734 C 0.94957 0.55762 0.03471 0.0
C735 C 0.97956 0.60013 0.0307 0.0
H736 H 0.99004 0.61307 0.03991 0.0
H737 H 0.97058 0.61325 0.021 0.0
H738 H 0.99491 0.58672 0.02484 0.0
O739 O 0.97465 0.6117 0.08514 0.0
O740 O 0.95642 0.57434 0.09571 0.0
H741 H 0.93361 0.50879 0.0574 0.0
H742 H 0.91693 0.51227 0.03777 0.0
C743 C 0.92025 0.52212 0.04993 0.0
H744 H 0.90047 0.52438 0.05636 0.0
H745 H 0.94554 0.51346 0.08771 0.0
O746 O 0.96837 0.65189 0.05559 0.0
C747 C 0.97495 0.59244 0.09558 0.0
Co748 Co 0.62414 0.69249 0.30828 0.0
Co749 Co 0.67139 0.6649 0.3278 0.0
C750 C 0.61504 0.64245 0.32869 0.0
O751 O 0.60698 0.66089 0.31882 0.0
O752 O 0.63974 0.6413 0.33343 0.0
C753 C 0.58249 0.69818 0.28284 0.0
O754 O 0.5845 0.67182 0.28047 0.0
C755 C 0.71009 0.62509 0.34156 0.0
C756 C 0.74608 0.65125 0.34561 0.0
C757 C 0.73672 0.62485 0.34716 0.0
N758 N 0.70401 0.65057 0.33684 0.0
N759 N 0.72552 0.66613 0.33944 0.0
C760 C 0.69115 0.60144 0.33993 0.0
H761 H 0.6787 0.60362 0.32859 0.0
H762 H 0.70251 0.58194 0.33956 0.0
H763 H 0.6772 0.60118 0.35068 0.0
C764 C 0.66454 0.69105 0.28196 0.0
N765 N 0.65572 0.68298 0.29685 0.0
N766 N 0.67525 0.6699 0.30458 0.0
C767 C 0.69694 0.66823 0.29446 0.0
C768 C 0.69101 0.68186 0.27986 0.0
C769 C 0.64993 0.71186 0.27173 0.0
H770 H 0.63937 0.7266 0.27985 0.0
H771 H 0.63453 0.70148 0.26395 0.0
H772 H 0.66388 0.72345 0.26363 0.0
O773 O 0.63272 0.71971 0.32513 0.0
O774 O 0.66677 0.70082 0.33889 0.0
H775 H 0.7353 0.66999 0.30682 0.0
H776 H 0.73571 0.65081 0.28789 0.0
C777 C 0.72356 0.6556 0.29906 0.0
H778 H 0.72004 0.63669 0.30619 0.0
H779 H 0.72621 0.6869 0.33685 0.0
O780 O 0.59731 0.70963 0.29363 0.0
C781 C 0.65042 0.72052 0.33655 0.0
Co782 Co 0.56003 0.37601 0.55709 0.0
Co783 Co 0.58141 0.42593 0.57734 0.0
C784 C 0.60982 0.3712 0.57724 0.0
O785 O 0.59298 0.36125 0.56699 0.0
O786 O 0.60749 0.39561 0.58238 0.0
C787 C 0.55421 0.3301 0.53405 0.0
O788 O 0.58081 0.32981 0.53249 0.0
C789 C 0.61893 0.4693 0.58928 0.0
C790 C 0.58925 0.49693 0.60104 0.0
C791 C 0.61683 0.49351 0.59819 0.0
N792 N 0.59372 0.45917 0.58707 0.0
N793 N 0.57617 0.47587 0.5941 0.0
C794 C 0.64429 0.45516 0.58376 0.0
H795 H 0.64026 0.43359 0.58082 0.0
H796 H 0.65195 0.46509 0.57239 0.0
H797 H 0.66024 0.45652 0.59342 0.0
C798 C 0.55616 0.41662 0.5314 0.0
N799 N 0.56677 0.40868 0.54586 0.0
N800 N 0.57429 0.43022 0.55437 0.0
C801 C 0.56784 0.4527 0.54568 0.0
C802 C 0.55553 0.44479 0.53098 0.0
C803 C 0.54248 0.3977 0.51953 0.0
H804 H 0.55615 0.38034 0.51685 0.0
H805 H 0.53737 0.40816 0.5078 0.0
H806 H 0.52356 0.38964 0.52517 0.0
O807 O 0.53225 0.38226 0.57435 0.0
O808 O 0.54649 0.41824 0.58835 0.0
H809 H 0.5522 0.48155 0.56292 0.0
H810 H 0.56265 0.49638 0.54359 0.0
C811 C 0.56759 0.48069 0.55294 0.0
H812 H 0.5878 0.48527 0.55833 0.0
H813 H 0.5552 0.47266 0.59439 0.0
O814 O 0.54305 0.34812 0.54299 0.0
C815 C 0.52893 0.39978 0.58572 0.0
Co816 Co 0.12423 0.3031 0.31441 0.0
Co817 Co 0.1701 0.33171 0.33483 0.0
C818 C 0.11311 0.35336 0.33397 0.0
O819 O 0.10593 0.33487 0.32391 0.0
O820 O 0.1374 0.3546 0.33941 0.0
C821 C 0.08535 0.29486 0.28751 0.0
O822 O 0.09006 0.32009 0.283 0.0
C823 C 0.2096 0.37291 0.34724 0.0
C824 C 0.24102 0.34556 0.35749 0.0
C825 C 0.23461 0.37277 0.35534 0.0
N826 N 0.20191 0.34694 0.3447 0.0
N827 N 0.22079 0.3308 0.35089 0.0
C828 C 0.19276 0.39706 0.34258 0.0
H829 H 0.17109 0.39147 0.34136 0.0
H830 H 0.19978 0.40489 0.33047 0.0
H831 H 0.19486 0.41345 0.35191 0.0
C832 C 0.16691 0.30269 0.28943 0.0
N833 N 0.1567 0.31219 0.30368 0.0
N834 N 0.17577 0.3253 0.31184 0.0
C835 C 0.19867 0.32529 0.3027 0.0
C836 C 0.19391 0.31076 0.28825 0.0
C837 C 0.15292 0.28139 0.27924 0.0
H838 H 0.14122 0.26752 0.28733 0.0
H839 H 0.13862 0.29146 0.2706 0.0
H840 H 0.16742 0.26894 0.272 0.0
O841 O 0.13186 0.27685 0.33199 0.0
O842 O 0.16514 0.29619 0.34623 0.0
H843 H 0.23406 0.32287 0.31792 0.0
H844 H 0.23995 0.33826 0.29801 0.0
C845 C 0.22535 0.33651 0.3084 0.0
H846 H 0.22223 0.35686 0.31396 0.0
H847 H 0.21984 0.3096 0.35062 0.0
O848 O 0.09804 0.28494 0.29975 0.0
C849 C 0.14889 0.27644 0.34378 0.0
Co850 Co 0.43603 0.38043 0.06586 0.0
Co851 Co 0.41816 0.43112 0.08657 0.0
C852 C 0.39306 0.37589 0.09152 0.0
O853 O 0.40762 0.36594 0.08009 0.0
O854 O 0.3949 0.40092 0.09544 0.0
C855 C 0.43453 0.32946 0.04867 0.0
O856 O 0.4107 0.32688 0.0558 0.0
C857 C 0.38016 0.47135 0.09976 0.0
C858 C 0.4075 0.50524 0.10655 0.0
C859 C 0.3805 0.4973 0.10637 0.0
N860 N 0.40583 0.46423 0.09612 0.0
N861 N 0.42212 0.48447 0.10035 0.0
C862 C 0.35586 0.45394 0.09637 0.0
H863 H 0.35956 0.44102 0.08537 0.0
H864 H 0.33743 0.46659 0.09445 0.0
H865 H 0.35232 0.4404 0.10711 0.0
C866 C 0.43151 0.41858 0.0391 0.0
N867 N 0.42452 0.41157 0.05452 0.0
N868 N 0.41866 0.43356 0.06304 0.0
C869 C 0.42262 0.45548 0.05332 0.0
C870 C 0.43175 0.44674 0.03795 0.0
C871 C 0.44291 0.39895 0.02678 0.0
H872 H 0.46327 0.39201 0.03092 0.0
H873 H 0.42946 0.38089 0.02594 0.0
H874 H 0.44475 0.40846 0.01441 0.0
O875 O 0.46821 0.38953 0.07956 0.0
O876 O 0.45593 0.42582 0.0941 0.0
H877 H 0.44204 0.48562 0.06818 0.0
H878 H 0.42645 0.49908 0.04981 0.0
C879 C 0.42426 0.48392 0.05983 0.0
H880 H 0.40558 0.48865 0.06691 0.0
H881 H 0.44321 0.48415 0.09893 0.0
O882 O 0.44807 0.3512 0.05071 0.0
C883 C 0.47355 0.40806 0.09006 0.0
Co884 Co 0.37282 0.68421 0.80812 0.0
Co885 Co 0.31982 0.66766 0.82683 0.0
C886 C 0.37234 0.63634 0.83018 0.0
O887 O 0.38406 0.65131 0.8196 0.0
O888 O 0.34776 0.64067 0.83435 0.0
C889 C 0.4259 0.69817 0.80272 0.0
O890 O 0.42607 0.68962 0.81808 0.0
C891 C 0.27741 0.63059 0.83831 0.0
C892 C 0.2447 0.6588 0.84584 0.0
C893 C 0.25156 0.63154 0.84502 0.0
N894 N 0.28556 0.65616 0.83525 0.0
N895 N 0.26598 0.67296 0.83987 0.0
C896 C 0.29394 0.60582 0.83459 0.0
H897 H 0.30662 0.6093 0.82346 0.0
H898 H 0.28066 0.58782 0.83268 0.0
H899 H 0.30767 0.60166 0.84516 0.0
C900 C 0.3356 0.68815 0.78064 0.0
N901 N 0.3413 0.67837 0.79568 0.0
N902 N 0.31853 0.67253 0.80344 0.0
C903 C 0.29743 0.67908 0.79358 0.0
C904 C 0.30756 0.68984 0.77891 0.0
C905 C 0.35664 0.6998 0.76931 0.0
H906 H 0.37396 0.68545 0.76826 0.0
H907 H 0.3481 0.70372 0.75686 0.0
H908 H 0.36448 0.71912 0.77456 0.0
O909 O 0.36611 0.71397 0.82413 0.0
O910 O 0.32767 0.70332 0.83694 0.0
H911 H 0.26734 0.69766 0.80882 0.0
H912 H 0.25413 0.68521 0.78956 0.0
C913 C 0.26873 0.68102 0.79964 0.0
H914 H 0.26291 0.66167 0.80569 0.0
H915 H 0.26726 0.6941 0.83912 0.0
O916 O 0.40379 0.69692 0.79466 0.0
C917 C 0.34749 0.71948 0.83452 0.0
Co918 Co 0.0618 0.61927 0.55702 0.0
Co919 Co 0.07859 0.56906 0.57838 0.0
C920 C 0.10786 0.62282 0.58052 0.0
O921 O 0.0929 0.6331 0.56937 0.0
O922 O 0.10455 0.59831 0.58521 0.0
C923 C 0.06174 0.66937 0.53852 0.0
O924 O 0.08691 0.67187 0.54373 0.0
C925 C 0.11545 0.52772 0.59143 0.0
C926 C 0.08695 0.49583 0.59982 0.0
C927 C 0.11427 0.50229 0.59868 0.0
N928 N 0.08993 0.536 0.58836 0.0
N929 N 0.07296 0.51697 0.59355 0.0
C930 C 0.14036 0.54349 0.5869 0.0
H931 H 0.1365 0.55576 0.57565 0.0
H932 H 0.15792 0.52971 0.58485 0.0
H933 H 0.14545 0.55759 0.59713 0.0
C934 C 0.06146 0.57897 0.53111 0.0
N935 N 0.0698 0.58664 0.54616 0.0
N936 N 0.07542 0.56497 0.55503 0.0
C937 C 0.07014 0.54264 0.54591 0.0
C938 C 0.06038 0.55078 0.53056 0.0
C939 C 0.04997 0.59826 0.51863 0.0
H940 H 0.03014 0.60614 0.52308 0.0
H941 H 0.06395 0.6158 0.51712 0.0
H942 H 0.04703 0.58813 0.50652 0.0
O943 O 0.0311 0.61344 0.57243 0.0
O944 O 0.04232 0.57749 0.58747 0.0
H945 H 0.05116 0.51391 0.56194 0.0
H946 H 0.06487 0.49898 0.54344 0.0
C947 C 0.06827 0.51463 0.55305 0.0
H948 H 0.08737 0.50978 0.55969 0.0
H949 H 0.05183 0.51836 0.59273 0.0
O950 O 0.04862 0.64782 0.54187 0.0
C951 C 0.02565 0.59628 0.58372 0.0
Co952 Co 0.12587 0.68774 0.18977 0.0
Co953 Co 0.17574 0.665 0.1702 0.0
C954 C 0.12138 0.63627 0.17103 0.0
O955 O 0.11138 0.65389 0.18078 0.0
O956 O 0.14579 0.63824 0.16581 0.0
C957 C 0.07958 0.69568 0.21236 0.0
O958 O 0.07881 0.66924 0.21461 0.0
C959 C 0.21709 0.62617 0.15841 0.0
C960 C 0.24963 0.65417 0.15027 0.0
C961 C 0.24294 0.62695 0.15164 0.0
N962 N 0.20889 0.65188 0.16106 0.0
N963 N 0.22831 0.66849 0.15598 0.0
C964 C 0.20072 0.60154 0.1627 0.0
H965 H 0.18887 0.60531 0.17412 0.0
H966 H 0.214 0.58349 0.16433 0.0
H967 H 0.18615 0.59738 0.15255 0.0
C968 C 0.16633 0.69268 0.21569 0.0
N969 N 0.15846 0.68203 0.20122 0.0
N970 N 0.17991 0.67322 0.19312 0.0
C971 C 0.20229 0.67835 0.20225 0.0
C972 C 0.19444 0.69146 0.21668 0.0
C973 C 0.14768 0.7077 0.22709 0.0
H974 H 0.14032 0.72647 0.22094 0.0
H975 H 0.12981 0.69477 0.22993 0.0
H976 H 0.15804 0.71319 0.23879 0.0
O977 O 0.13202 0.71401 0.17176 0.0
O978 O 0.16815 0.69915 0.15818 0.0
H979 H 0.23436 0.69214 0.18662 0.0
H980 H 0.24594 0.67812 0.20586 0.0
C981 C 0.23073 0.67594 0.19586 0.0
H982 H 0.23354 0.65586 0.1899 0.0
H983 H 0.22705 0.68966 0.15648 0.0
O984 O 0.09797 0.70591 0.20329 0.0
C985 C 0.14948 0.71667 0.16031 0.0
Co986 Co 0.06622 0.37887 0.93436 0.0
Co987 Co 0.08792 0.42689 0.9128 0.0
C988 C 0.1147 0.37175 0.91292 0.0
O989 O 0.09791 0.363 0.92359 0.0
O990 O 0.11322 0.39602 0.9074 0.0
C991 C 0.06287 0.33409 0.95797 0.0
O992 O 0.08959 0.33373 0.95791 0.0
C993 C 0.12539 0.4678 0.89895 0.0
C994 C 0.09638 0.49977 0.8913 0.0
C995 C 0.12375 0.49342 0.89193 0.0
N996 N 0.10003 0.45941 0.90244 0.0
N997 N 0.0828 0.47847 0.89764 0.0
C998 C 0.15054 0.45201 0.90289 0.0
H999 H 0.14743 0.4399 0.91429 0.0
H1000 H 0.1683 0.46574 0.90438 0.0
H1001 H 0.15476 0.4377 0.89262 0.0
C1002 C 0.06649 0.42051 0.95964 0.0
N1003 N 0.07501 0.4116 0.94489 0.0
N1004 N 0.08339 0.43234 0.93598 0.0
C1005 C 0.08005 0.4553 0.94487 0.0
C1006 C 0.06856 0.4486 0.95999 0.0
C1007 C 0.05182 0.40305 0.97188 0.0
H1008 H 0.03235 0.39594 0.96646 0.0
H1009 H 0.06441 0.38498 0.97478 0.0
H1010 H 0.0476 0.41429 0.98348 0.0
O1011 O 0.03711 0.38524 0.91802 0.0
O1012 O 0.05181 0.41988 0.903 0.0
H1013 H 0.06493 0.48682 0.92927 0.0
H1014 H 0.08139 0.49904 0.94768 0.0
C1015 C 0.08214 0.48336 0.93785 0.0
H1016 H 0.1015 0.48551 0.93099 0.0
H1017 H 0.06172 0.47707 0.8989 0.0
O1018 O 0.05038 0.35192 0.94955 0.0
C1019 C 0.03368 0.40236 0.90646 0.0
Co1020 Co 0.36607 0.30849 0.68056 0.0
Co1021 Co 0.31752 0.3304 0.65958 0.0
C1022 C 0.37343 0.35531 0.65792 0.0
O1023 O 0.38224 0.33899 0.66883 0.0
O1024 O 0.34877 0.35437 0.65304 0.0
C1025 C 0.41012 0.30534 0.70478 0.0
O1026 O 0.40808 0.33183 0.70645 0.0
C1027 C 0.27722 0.36936 0.64701 0.0
C1028 C 0.24412 0.34177 0.63918 0.0
C1029 C 0.25132 0.36889 0.64034 0.0
N1030 N 0.28499 0.34359 0.64979 0.0
N1031 N 0.26526 0.32719 0.64489 0.0
C1032 C 0.29386 0.39379 0.65135 0.0
H1033 H 0.30664 0.38945 0.66233 0.0
H1034 H 0.28065 0.41167 0.65373 0.0
H1035 H 0.30754 0.39862 0.64087 0.0
C1036 C 0.32575 0.31038 0.70657 0.0
N1037 N 0.3342 0.31853 0.69164 0.0
N1038 N 0.31318 0.32676 0.68292 0.0
C1039 C 0.29049 0.32358 0.69209 0.0
C1040 C 0.29765 0.31238 0.70721 0.0
C1041 C 0.34351 0.29585 0.71872 0.0
H1042 H 0.35107 0.27665 0.71317 0.0
H1043 H 0.36125 0.30882 0.72174 0.0
H1044 H 0.33242 0.29118 0.7303 0.0
O1045 O 0.35799 0.27904 0.66474 0.0
O1046 O 0.32303 0.29389 0.65003 0.0
H1047 H 0.25904 0.30823 0.6765 0.0
H1048 H 0.24676 0.32384 0.69517 0.0
C1049 C 0.26226 0.32522 0.68528 0.0
H1050 H 0.25957 0.34474 0.67865 0.0
H1051 H 0.26606 0.30603 0.64568 0.0
O1052 O 0.39385 0.29286 0.69525 0.0
C1053 C 0.34036 0.27556 0.65345 0.0
Co1054 Co 0.43938 0.62357 0.43394 0.0
Co1055 Co 0.41018 0.57742 0.41401 0.0
C1056 C 0.38792 0.63404 0.41539 0.0
O1057 O 0.40697 0.64143 0.42501 0.0
O1058 O 0.3866 0.60977 0.40992 0.0
C1059 C 0.4487 0.66318 0.46042 0.0
O1060 O 0.42335 0.65951 0.46503 0.0
C1061 C 0.36989 0.53789 0.4003 0.0
C1062 C 0.3978 0.50432 0.39379 0.0
C1063 C 0.37067 0.51182 0.39357 0.0
N1064 N 0.39543 0.5451 0.40447 0.0
N1065 N 0.41192 0.52497 0.40043 0.0
C1066 C 0.34575 0.55627 0.40179 0.0
H1067 H 0.35186 0.57773 0.40019 0.0
H1068 H 0.3368 0.55398 0.41428 0.0
H1069 H 0.3301 0.55128 0.39241 0.0
C1070 C 0.43985 0.58144 0.45929 0.0
N1071 N 0.43078 0.59119 0.44484 0.0
N1072 N 0.41723 0.57211 0.43697 0.0
C1073 C 0.41636 0.54974 0.44657 0.0
C1074 C 0.43088 0.55481 0.46098 0.0
C1075 C 0.46124 0.59544 0.46942 0.0
H1076 H 0.47511 0.60707 0.46129 0.0
H1077 H 0.45125 0.60978 0.47807 0.0
H1078 H 0.47369 0.5809 0.47662 0.0
O1079 O 0.46496 0.61614 0.41602 0.0
O1080 O 0.44526 0.58276 0.40208 0.0
H1081 H 0.41747 0.51251 0.43299 0.0
H1082 H 0.4 0.5102 0.45248 0.0
C1083 C 0.40366 0.52334 0.44157 0.0
H1084 H 0.38411 0.52718 0.43517 0.0
H1085 H 0.43294 0.52535 0.40224 0.0
O1086 O 0.4581 0.64979 0.44831 0.0
C1087 C 0.46501 0.59912 0.40423 0.0
C1088 C 0.53181 0.27908 0.18665 0.0
C1089 C 0.55496 0.28427 0.19621 0.0
C1090 C 0.51082 0.26256 0.19256 0.0
C1091 C 0.51285 0.25113 0.20855 0.0
C1092 C 0.5355 0.2574 0.21864 0.0
C1093 C 0.55644 0.27382 0.2123 0.0
C1094 C 0.48693 0.25653 0.18139 0.0
C1095 C 0.53814 0.24598 0.23584 0.0
C1096 C 0.44392 0.22429 0.22008 0.0
C1097 C 0.44552 0.19787 0.21363 0.0
C1098 C 0.46688 0.24119 0.22045 0.0
C1099 C 0.49175 0.23147 0.21395 0.0
C1100 C 0.49417 0.2038 0.20932 0.0
C1101 C 0.47098 0.1872 0.20934 0.0
C1102 C 0.46372 0.27028 0.22606 0.0
C1103 C 0.52039 0.19257 0.20243 0.0
H1104 H 0.53038 0.28725 0.17426 0.0
H1105 H 0.57427 0.27785 0.21979 0.0
H1106 H 0.48593 0.23438 0.17882 0.0
H1107 H 0.46764 0.26237 0.18752 0.0
H1108 H 0.48824 0.2675 0.16944 0.0
H1109 H 0.55379 0.25696 0.24315 0.0
H1110 H 0.51844 0.24701 0.24249 0.0
H1111 H 0.5441 0.22427 0.2351 0.0
H1112 H 0.42434 0.23243 0.22375 0.0
H1113 H 0.47241 0.1667 0.20449 0.0
H1114 H 0.46135 0.28362 0.21512 0.0
H1115 H 0.482 0.27719 0.23291 0.0
H1116 H 0.44554 0.27289 0.23404 0.0
H1117 H 0.52336 0.20039 0.18971 0.0
H1118 H 0.52026 0.16999 0.20195 0.0
H1119 H 0.53801 0.19931 0.20992 0.0
C1120 C 0.01302 0.1863 0.47106 0.0
C1121 C 0.04073 0.18681 0.46703 0.0
C1122 C 0.99767 0.2103 0.47119 0.0
C1123 C 0.01039 0.23513 0.46694 0.0
C1124 C 0.03901 0.23617 0.46508 0.0
C1125 C 0.05395 0.21189 0.46527 0.0
C1126 C 0.96734 0.20847 0.47382 0.0
C1127 C 0.05341 0.26229 0.46068 0.0
C1128 C 0.97119 0.27912 0.43707 0.0
C1129 C 0.9632 0.30099 0.447 0.0
C1130 C 0.98638 0.2576 0.44353 0.0
C1131 C 0.99356 0.25776 0.46046 0.0
C1132 C 0.98501 0.27942 0.47071 0.0
C1133 C 0.97004 0.30097 0.46382 0.0
C1134 C 0.99507 0.23487 0.43212 0.0
C1135 C 0.99207 0.28011 0.48882 0.0
H1136 H 0.00286 0.16692 0.47278 0.0
H1137 H 0.07545 0.21243 0.46232 0.0
H1138 H 0.95972 0.22634 0.48078 0.0
H1139 H 0.95697 0.20823 0.46166 0.0
H1140 H 0.96165 0.18964 0.48056 0.0
H1141 H 0.07566 0.26088 0.46291 0.0
H1142 H 0.05012 0.26671 0.4474 0.0
H1143 H 0.04515 0.27963 0.46784 0.0
H1144 H 0.96599 0.27897 0.42407 0.0
H1145 H 0.9639 0.31785 0.47157 0.0
H1146 H 0.98693 0.21517 0.43661 0.0
H1147 H 0.01758 0.23326 0.43197 0.0
H1148 H 0.98792 0.23799 0.41926 0.0
H1149 H 0.98804 0.26009 0.49465 0.0
H1150 H 0.98043 0.29599 0.49554 0.0
H1151 H 0.01407 0.28444 0.4903 0.0
C1152 C 0.0558 0.77004 0.72054 0.0
C1153 C 0.05526 0.79218 0.70969 0.0
C1154 C 0.03238 0.75428 0.72317 0.0
C1155 C 0.00853 0.76006 0.71403 0.0
C1156 C 0.00753 0.78344 0.70383 0.0
C1157 C 0.03082 0.79956 0.70207 0.0
C1158 C 0.03375 0.73045 0.73486 0.0
C1159 C 0.98279 0.78997 0.6935 0.0
C1160 C 0.96556 0.70211 0.69801 0.0
C1161 C 0.94082 0.70697 0.70599 0.0
C1162 C 0.98821 0.7186 0.70107 0.0
C1163 C 0.9863 0.7397 0.71293 0.0
C1164 C 0.96203 0.74305 0.72211 0.0
C1165 C 0.93925 0.72706 0.7182 0.0
C1166 C 0.01342 0.71478 0.69065 0.0
C1167 C 0.95966 0.76433 0.73544 0.0
H1168 H 0.07475 0.76449 0.7265 0.0
H1169 H 0.03053 0.81656 0.69354 0.0
H1170 H 0.01448 0.7284 0.74188 0.0
H1171 H 0.03677 0.71142 0.72775 0.0
H1172 H 0.05088 0.73254 0.7437 0.0
H1173 H 0.98487 0.80962 0.68685 0.0
H1174 H 0.97958 0.77361 0.68427 0.0
H1175 H 0.96434 0.7909 0.70133 0.0
H1176 H 0.96664 0.68671 0.68845 0.0
H1177 H 0.92006 0.73063 0.72443 0.0
H1178 H 0.03148 0.71177 0.69862 0.0
H1179 H 0.01707 0.73333 0.68317 0.0
H1180 H 0.01171 0.69711 0.68218 0.0
H1181 H 0.97873 0.76567 0.74272 0.0
H1182 H 0.94249 0.75991 0.74393 0.0
H1183 H 0.95601 0.7845 0.72975 0.0
C1184 C 0.5124 0.69137 0.96898 0.0
C1185 C 0.53366 0.69317 0.95754 0.0
C1186 C 0.4958 0.71396 0.97226 0.0
C1187 C 0.49983 0.73826 0.96323 0.0
C1188 C 0.52225 0.74051 0.95233 0.0
C1189 C 0.53925 0.71804 0.94989 0.0
C1190 C 0.47308 0.71127 0.98466 0.0
C1191 C 0.52693 0.7658 0.94212 0.0
C1192 C 0.44017 0.78064 0.94929 0.0
C1193 C 0.44565 0.80537 0.95716 0.0
C1194 C 0.45684 0.75797 0.95191 0.0
C1195 C 0.47878 0.75988 0.96319 0.0
C1196 C 0.48254 0.78398 0.97247 0.0
C1197 C 0.46631 0.80677 0.96903 0.0
C1198 C 0.45248 0.73291 0.94143 0.0
C1199 C 0.50472 0.78629 0.98526 0.0
H1200 H 0.50828 0.6721 0.97499 0.0
H1201 H 0.5556 0.71931 0.94094 0.0
H1202 H 0.47058 0.73034 0.99183 0.0
H1203 H 0.45367 0.70726 0.97813 0.0
H1204 H 0.47679 0.69421 0.99335 0.0
H1205 H 0.54582 0.76455 0.93464 0.0
H1206 H 0.50947 0.76892 0.93364 0.0
H1207 H 0.52827 0.78396 0.95017 0.0
H1208 H 0.42431 0.77966 0.94001 0.0
H1209 H 0.47036 0.82592 0.97519 0.0
H1210 H 0.45096 0.71456 0.9493 0.0
H1211 H 0.47017 0.73004 0.93311 0.0
H1212 H 0.43379 0.73432 0.93378 0.0
H1213 H 0.5068 0.76705 0.99231 0.0
H1214 H 0.50069 0.80319 0.99402 0.0
H1215 H 0.52442 0.79034 0.97908 0.0
C1216 C 0.44999 0.78914 0.26643 0.0
C1217 C 0.43962 0.78667 0.28248 0.0
C1218 C 0.473 0.77418 0.2615 0.0
C1219 C 0.48616 0.75706 0.27307 0.0
C1220 C 0.47525 0.75403 0.28912 0.0
C1221 C 0.45206 0.76865 0.29354 0.0
C1222 C 0.48357 0.77746 0.24415 0.0
C1223 C 0.4887 0.73619 0.30196 0.0
C1224 C 0.53752 0.70122 0.26845 0.0
C1225 C 0.56036 0.71412 0.27523 0.0
C1226 C 0.5136 0.71598 0.26537 0.0
C1227 C 0.51266 0.74399 0.26939 0.0
C1228 C 0.53678 0.75764 0.27406 0.0
C1229 C 0.56041 0.74251 0.27687 0.0
C1230 C 0.48855 0.70103 0.25961 0.0
C1231 C 0.53685 0.78759 0.27817 0.0
H1232 H 0.44028 0.80283 0.25777 0.0
H1233 H 0.44417 0.76654 0.30596 0.0
H1234 H 0.49958 0.79336 0.24401 0.0
H1235 H 0.49268 0.75831 0.23948 0.0
H1236 H 0.46716 0.78394 0.23559 0.0
H1237 H 0.47731 0.73584 0.31379 0.0
H1238 H 0.49037 0.71502 0.29735 0.0
H1239 H 0.50961 0.74363 0.30447 0.0
H1240 H 0.53754 0.67934 0.26677 0.0
H1241 H 0.57834 0.75273 0.28161 0.0
H1242 H 0.47645 0.71381 0.25104 0.0
H1243 H 0.47553 0.69621 0.2704 0.0
H1244 H 0.49387 0.68165 0.25336 0.0
H1245 H 0.52552 0.79932 0.26874 0.0
H1246 H 0.55782 0.79588 0.27908 0.0
H1247 H 0.52653 0.79077 0.2902 0.0
C1248 C 0.50998 0.30555 0.53273 0.0
C1249 C 0.53744 0.30708 0.5281 0.0
C1250 C 0.49514 0.2815 0.53071 0.0
C1251 C 0.50787 0.25861 0.5235 0.0
C1252 C 0.53448 0.26106 0.51697 0.0
C1253 C 0.54915 0.28524 0.51954 0.0
C1254 C 0.46685 0.27981 0.53791 0.0
C1255 C 0.5482 0.23748 0.50847 0.0
C1256 C 0.48777 0.19304 0.54431 0.0
C1257 C 0.46653 0.1838 0.53422 0.0
C1258 C 0.50207 0.21678 0.54052 0.0
C1259 C 0.49555 0.23134 0.52598 0.0
C1260 C 0.47536 0.22117 0.51514 0.0
C1261 C 0.46067 0.19771 0.51955 0.0
C1262 C 0.52308 0.2271 0.55263 0.0
C1263 C 0.4685 0.23553 0.49923 0.0
H1264 H 0.50052 0.32251 0.53906 0.0
H1265 H 0.57017 0.28646 0.51558 0.0
H1266 H 0.45257 0.27057 0.52894 0.0
H1267 H 0.46718 0.26659 0.54901 0.0
H1268 H 0.45888 0.30008 0.54155 0.0
H1269 H 0.56583 0.24427 0.50096 0.0
H1270 H 0.55567 0.22286 0.51786 0.0
H1271 H 0.53363 0.22651 0.50039 0.0
H1272 H 0.49243 0.18242 0.55568 0.0
H1273 H 0.44447 0.19044 0.51162 0.0
H1274 H 0.51668 0.24717 0.55755 0.0
H1275 H 0.54292 0.22997 0.54638 0.0
H1276 H 0.52607 0.21301 0.56319 0.0
H1277 H 0.45423 0.25247 0.5018 0.0
H1278 H 0.45854 0.22156 0.49031 0.0
H1279 H 0.48697 0.24428 0.49342 0.0
C1280 C 0.04917 0.24117 0.79565 0.0
C1281 C 0.05753 0.22061 0.78478 0.0
C1282 C 0.02498 0.25543 0.79308 0.0
C1283 C 0.00889 0.24945 0.77907 0.0
C1284 C 0.01808 0.23009 0.76739 0.0
C1285 C 0.04222 0.21558 0.7705 0.0
C1286 C 0.01589 0.27574 0.80596 0.0
C1287 C 0.00194 0.2238 0.75203 0.0
C1288 C 0.9356 0.26183 0.78968 0.0
C1289 C 0.93287 0.28942 0.78559 0.0
C1290 C 0.95957 0.24764 0.78619 0.0
C1291 C 0.98113 0.26122 0.77809 0.0
C1292 C 0.97727 0.28804 0.77218 0.0
C1293 C 0.95323 0.30201 0.77618 0.0
C1294 C 0.9628 0.21907 0.79276 0.0
C1295 C -0.00063 0.30272 0.76284 0.0
H1296 H 0.06096 0.24542 0.80665 0.0
H1297 H 0.04874 0.19998 0.76192 0.0
H1298 H 0.01175 0.29574 0.80017 0.0
H1299 H 0.99669 0.26868 0.81175 0.0
H1300 H 0.03128 0.27868 0.81584 0.0
H1301 H 0.01486 0.21427 0.74239 0.0
H1302 H 0.98535 0.20938 0.75511 0.0
H1303 H 0.99249 0.24246 0.7469 0.0
H1304 H 0.91976 0.25171 0.79666 0.0
H1305 H 0.95103 0.32316 0.77265 0.0
H1306 H 0.97731 0.21923 0.80326 0.0
H1307 H 0.97128 0.20547 0.78315 0.0
H1308 H 0.94322 0.2104 0.79713 0.0
H1309 H 0.01487 0.31032 0.77165 0.0
H1310 H 0.99118 0.32038 0.75589 0.0
H1311 H 0.00972 0.28877 0.75409 0.0
C1312 C 0.01693 0.81238 0.03215 0.0
C1313 C 0.04546 0.81316 0.03162 0.0
C1314 C 0.00283 0.78799 0.02968 0.0
C1315 C 0.01761 0.76394 0.02632 0.0
C1316 C 0.04599 0.7654 0.02352 0.0
C1317 C 0.0597 0.79003 0.02634 0.0
C1318 C 0.97252 0.78742 0.03269 0.0
C1319 C 0.06228 0.74038 0.01925 0.0
C1320 C 0.99219 0.70254 0.04962 0.0
C1321 C 0.97676 0.68891 0.03767 0.0
C1322 C 0.00588 0.72665 0.04589 0.0
C1323 C 0.00466 0.73722 0.02967 0.0
C1324 C 0.98994 0.72309 0.01733 0.0
C1325 C 0.97576 0.69921 0.02155 0.0
C1326 C 0.02103 0.74122 0.05953 0.0
C1327 C 0.98868 0.73337 -0.00018 0.0
H1328 H 0.00566 0.83034 0.03582 0.0
H1329 H 0.08169 0.79059 0.02552 0.0
H1330 H 0.96208 0.77479 0.0233 0.0
H1331 H 0.96847 0.7782 0.04494 0.0
H1332 H 0.96353 0.80815 0.03252 0.0
H1333 H 0.08237 0.74574 0.01388 0.0
H1334 H 0.06583 0.72826 0.03059 0.0
H1335 H 0.05106 0.72733 0.01038 0.0
H1336 H 0.99297 0.69476 0.06212 0.0
H1337 H 0.96401 0.68859 0.01224 0.0
H1338 H 0.01247 0.7619 0.06128 0.0
H1339 H 0.04276 0.74358 0.05617 0.0
H1340 H 0.01988 0.73023 0.07148 0.0
H1341 H 0.97403 0.75047 -0.00093 0.0
H1342 H 0.98191 0.71726 0.99112 0.0
H1343 H 0.0088 0.74112 0.99575 0.0
C1344 C 0.56219 0.77615 0.77739 0.0
C1345 C 0.56003 0.80091 0.78587 0.0
C1346 C 0.53948 0.75917 0.77546 0.0
C1347 C 0.51441 0.7669 0.78262 0.0
C1348 C 0.51153 0.79315 0.78962 0.0
C1349 C 0.53439 0.81003 0.79097 0.0
C1350 C 0.54303 0.73189 0.76722 0.0
C1351 C 0.48517 0.80217 0.79744 0.0
C1352 C 0.44882 0.72615 0.78086 0.0
C1353 C 0.44995 0.71239 0.79601 0.0
C1354 C 0.47044 0.74283 0.7757 0.0
C1355 C 0.49337 0.746 0.78608 0.0
C1356 C 0.49523 0.73085 0.80089 0.0
C1357 C 0.47359 0.71413 0.8056 0.0
C1358 C 0.46804 0.75803 0.75961 0.0
C1359 C 0.51943 0.73346 0.81231 0.0
H1360 H 0.58196 0.76928 0.77317 0.0
H1361 H 0.5326 0.82922 0.79747 0.0
H1362 H 0.54589 0.716 0.77678 0.0
H1363 H 0.52474 0.72642 0.75992 0.0
H1364 H 0.56109 0.73168 0.75899 0.0
H1365 H 0.48522 0.82423 0.80041 0.0
H1366 H 0.46773 0.79782 0.78919 0.0
H1367 H 0.4819 0.79065 0.80905 0.0
H1368 H 0.43068 0.72471 0.7733 0.0
H1369 H 0.47479 0.70326 0.81721 0.0
H1370 H 0.48789 0.75886 0.75311 0.0
H1371 H 0.46158 0.77925 0.76209 0.0
H1372 H 0.45274 0.74855 0.75131 0.0
H1373 H 0.53851 0.72893 0.80556 0.0
H1374 H 0.51807 0.71955 0.82308 0.0
H1375 H 0.5209 0.75465 0.81694 0.0
C1376 C 0.02009 0.69048 0.52653 0.0
C1377 C 0.04626 0.69355 0.53318 0.0
C1378 C 0.002 0.7125 0.52595 0.0
C1379 C 0.01024 0.73793 0.5324 0.0
C1380 C 0.03762 0.74185 0.53729 0.0
C1381 C 0.05543 0.71959 0.53749 0.0
C1382 C 0.97326 0.70775 0.52007 0.0
C1383 C 0.04729 0.76871 0.54415 0.0
C1384 C 0.96523 0.80082 0.53295 0.0
C1385 C 0.95433 0.79933 0.54893 0.0
C1386 C 0.9826 0.78035 0.52698 0.0
C1387 C 0.98941 0.75821 0.53734 0.0
C1388 C 0.97749 0.75608 0.55319 0.0
C1389 C 0.96 0.77656 0.55872 0.0
C1390 C 0.99446 0.78302 0.50989 0.0
C1391 C 0.98411 0.73273 0.56465 0.0
H1392 H 0.01308 0.67045 0.52286 0.0
H1393 H 0.07572 0.72218 0.54248 0.0
H1394 H 0.95975 0.70491 0.53089 0.0
H1395 H 0.96563 0.72552 0.51302 0.0
H1396 H 0.97178 0.68931 0.51219 0.0
H1397 H 0.06983 0.7697 0.54497 0.0
H1398 H 0.04003 0.78584 0.53644 0.0
H1399 H 0.03881 0.77153 0.55673 0.0
H1400 H 0.96084 0.81832 0.52527 0.0
H1401 H 0.95151 0.77513 0.57103 0.0
H1402 H 0.99434 0.76315 0.5034 0.0
H1403 H 0.01593 0.78978 0.51082 0.0
H1404 H 0.98317 0.79811 0.50233 0.0
H1405 H 0.9794 0.71306 0.55859 0.0
H1406 H 0.97259 0.73381 0.57642 0.0
H1407 H 0.00617 0.7328 0.56755 0.0
C1408 C 0.94972 0.21028 0.26788 0.0
C1409 C 0.93414 0.21965 0.28121 0.0
C1410 C 0.97454 0.22283 0.26382 0.0
C1411 C 0.98412 0.24465 0.27363 0.0
C1412 C 0.96747 0.25536 0.28631 0.0
C1413 C 0.94258 0.24293 0.28979 0.0
C1414 C 0.99112 0.21161 0.24973 0.0
C1415 C 0.97687 0.27854 0.29718 0.0
C1416 C 0.0568 0.25318 0.28657 0.0
C1417 C 0.06256 0.27917 0.28035 0.0
C1418 C 0.0321 0.24033 0.28309 0.0
C1419 C 0.01293 0.25355 0.27285 0.0
C1420 C 0.02006 0.27811 0.26484 0.0
C1421 C 0.04477 0.29089 0.26884 0.0
C1422 C 0.02544 0.21403 0.29186 0.0
C1423 C 0.00071 0.29202 0.25313 0.0
H1424 H 0.94307 0.19261 0.26098 0.0
H1425 H 0.93048 0.25063 0.29994 0.0
H1426 H 0.0031 0.22782 0.24357 0.0
H1427 H 0.00554 0.19617 0.25451 0.0
H1428 H 0.97791 0.20155 0.24043 0.0
H1429 H 0.96084 0.28536 0.3059 0.0
H1430 H 0.99486 0.27204 0.30445 0.0
H1431 H 0.98311 0.29618 0.28955 0.0
H1432 H 0.07076 0.2436 0.29514 0.0
H1433 H 0.04937 0.31068 0.26366 0.0
H1434 H 0.01736 0.19882 0.28304 0.0
H1435 H 0.00946 0.21781 0.30126 0.0
H1436 H 0.04346 0.20517 0.29815 0.0
H1437 H 0.9895 0.27692 0.24555 0.0
H1438 H 0.01158 0.3063 0.24481 0.0
H1439 H 0.98554 0.30383 0.26029 0.0
C1440 C 0.51592 0.19362 0.02563 0.0
C1441 C 0.53836 0.19504 0.03624 0.0
C1442 C 0.49898 0.21629 0.02334 0.0
C1443 C 0.50396 0.24026 0.03253 0.0
C1444 C 0.52765 0.24225 0.04242 0.0
C1445 C 0.54488 0.21971 0.04388 0.0
C1446 C 0.47481 0.21393 0.01196 0.0
C1447 C 0.53343 0.26718 0.05275 0.0
C1448 C 0.4677 0.30799 0.02936 0.0
C1449 C 0.44842 0.30538 0.04199 0.0
C1450 C 0.48441 0.28598 0.02499 0.0
C1451 C 0.4826 0.26144 0.03405 0.0
C1452 C 0.46219 0.25839 0.04626 0.0
C1453 C 0.44497 0.28028 0.04983 0.0
C1454 C 0.50491 0.28953 0.01131 0.0
C1455 C 0.45995 0.23283 0.05653 0.0
H1456 H 0.51105 0.17452 0.01963 0.0
H1457 H 0.56215 0.22071 0.05218 0.0
H1458 H 0.45624 0.20975 0.0193 0.0
H1459 H 0.47148 0.2332 0.00513 0.0
H1460 H 0.47743 0.19711 0.00295 0.0
H1461 H 0.55345 0.266 0.05907 0.0
H1462 H 0.5331 0.28573 0.045 0.0
H1463 H 0.51735 0.26948 0.06226 0.0
H1464 H 0.47017 0.32742 0.02322 0.0
H1465 H 0.43018 0.27836 0.05968 0.0
H1466 H 0.50687 0.27062 0.00392 0.0
H1467 H 0.52513 0.29415 0.01667 0.0
H1468 H 0.49923 0.30654 0.00297 0.0
H1469 H 0.45755 0.21479 0.04846 0.0
H1470 H 0.44251 0.23352 0.06522 0.0
H1471 H 0.47891 0.22997 0.06376 0.0
C1472 C 0.55408 0.2517 0.7036 0.0
C1473 C 0.56183 0.22909 0.71303 0.0
C1474 C 0.52927 0.2648 0.70633 0.0
C1475 C 0.51201 0.25552 0.7191 0.0
C1476 C 0.52082 0.23438 0.72969 0.0
C1477 C 0.54556 0.22109 0.72638 0.0
C1478 C 0.52065 0.28713 0.69461 0.0
C1479 C 0.50351 0.22472 0.74389 0.0
C1480 C 0.4519 0.30299 0.72254 0.0
C1481 C 0.43362 0.2904 0.71167 0.0
C1482 C 0.47663 0.29039 0.72669 0.0
C1483 C 0.48341 0.26514 0.71936 0.0
C1484 C 0.46402 0.2514 0.70951 0.0
C1485 C 0.43924 0.26405 0.70598 0.0
C1486 C 0.49625 0.30499 0.73793 0.0
C1487 C 0.47042 0.22454 0.70131 0.0
H1488 H 0.56667 0.25832 0.69339 0.0
H1489 H 0.55165 0.20394 0.73392 0.0
H1490 H 0.50276 0.2803 0.68735 0.0
H1491 H 0.51451 0.30553 0.70158 0.0
H1492 H 0.53708 0.29287 0.68588 0.0
H1493 H 0.51595 0.21418 0.75337 0.0
H1494 H 0.49259 0.24192 0.74977 0.0
H1495 H 0.48807 0.21013 0.73927 0.0
H1496 H 0.44743 0.32311 0.72729 0.0
H1497 H 0.42507 0.25395 0.69776 0.0
H1498 H 0.51161 0.31589 0.73041 0.0
H1499 H 0.50721 0.29038 0.74598 0.0
H1500 H 0.48565 0.32016 0.74579 0.0
H1501 H 0.48656 0.22757 0.69192 0.0
H1502 H 0.45237 0.21553 0.69513 0.0
H1503 H 0.47823 0.20975 0.71047 0.0
C1504 C 0.45409 0.70464 0.47822 0.0
C1505 C 0.46529 0.68557 0.4673 0.0
C1506 C 0.46796 0.72893 0.48182 0.0
C1507 C 0.49315 0.73429 0.47401 0.0
C1508 C 0.50574 0.71381 0.46442 0.0
C1509 C 0.49176 0.68959 0.46134 0.0
C1510 C 0.45461 0.74974 0.49283 0.0
C1511 C 0.53266 0.71856 0.4559 0.0
C1512 C 0.5076 0.80305 0.45574 0.0
C1513 C 0.5307 0.81116 0.46461 0.0
C1514 C 0.49408 0.77885 0.45947 0.0
C1515 C 0.50349 0.76254 0.47267 0.0
C1516 C 0.52526 0.77178 0.48264 0.0
C1517 C 0.53892 0.7959 0.47835 0.0
C1518 C 0.47103 0.76976 0.4484 0.0
C1519 C 0.53519 0.75555 0.49724 0.0
H1520 H 0.43389 0.7014 0.48321 0.0
H1521 H 0.50091 0.67462 0.45324 0.0
H1522 H 0.46995 0.76055 0.50043 0.0
H1523 H 0.44404 0.76509 0.48512 0.0
H1524 H 0.43933 0.74022 0.5011 0.0
H1525 H 0.54089 0.69969 0.45025 0.0
H1526 H 0.52999 0.73395 0.44601 0.0
H1527 H 0.54788 0.72662 0.46471 0.0
H1528 H 0.50083 0.81489 0.44524 0.0
H1529 H 0.55646 0.8023 0.48546 0.0
H1530 H 0.45278 0.76481 0.45584 0.0
H1531 H 0.47705 0.75104 0.44167 0.0
H1532 H 0.46535 0.78549 0.43919 0.0
H1533 H 0.5182 0.74477 0.50344 0.0
H1534 H 0.54559 0.7688 0.50638 0.0
H1535 H 0.55002 0.74009 0.49298 0.0
C1536 C 0.05547 0.74021 0.21204 0.0
C1537 C 0.0567 0.71323 0.21765 0.0
C1538 C 0.03164 0.75552 0.21357 0.0
C1539 C 0.00864 0.74383 0.22129 0.0
C1540 C 0.01076 0.71782 0.22868 0.0
C1541 C 0.03472 0.70261 0.22659 0.0
C1542 C 0.03028 0.7831 0.2054 0.0
C1543 C 0.98704 0.70522 0.23767 0.0
C1544 C 0.94866 0.79237 0.22436 0.0
C1545 C 0.93422 0.78553 0.21004 0.0
C1546 C 0.97204 0.77769 0.22896 0.0
C1547 C 0.98156 0.75648 0.21864 0.0
C1548 C 0.96651 0.74905 0.20445 0.0
C1549 C 0.94287 0.7634 0.20048 0.0
C1550 C 0.98697 0.78555 0.24451 0.0
C1551 C 0.97615 0.72694 0.19288 0.0
H1552 H 0.07252 0.74883 0.20536 0.0
H1553 H 0.03569 0.68198 0.23127 0.0
H1554 H 0.01694 0.7819 0.19437 0.0
H1555 H 0.02133 0.79835 0.21387 0.0
H1556 H 0.05062 0.79043 0.20142 0.0
H1557 H 0.99362 0.68814 0.24571 0.0
H1558 H 0.9764 0.72062 0.24532 0.0
H1559 H 0.9722 0.6972 0.22858 0.0
H1560 H 0.94185 0.80927 0.23189 0.0
H1561 H 0.93183 0.75801 0.18937 0.0
H1562 H 0.00463 0.79855 0.24131 0.0
H1563 H 0.99483 0.7673 0.251 0.0
H1564 H 0.97369 0.79716 0.25307 0.0
H1565 H 0.99619 0.7326 0.1876 0.0
H1566 H 0.96174 0.72334 0.18255 0.0
H1567 H 0.97888 0.70758 0.19968 0.0
C1568 C 0.06037 0.28843 0.97167 0.0
C1569 C 0.04715 0.31111 0.96491 0.0
C1570 C 0.04607 0.26415 0.97456 0.0
C1571 C 0.01819 0.26255 0.9703 0.0
C1572 C 0.00421 0.28626 0.96524 0.0
C1573 C 0.01883 0.31034 0.96276 0.0
C1574 C 0.06138 0.23956 0.98068 0.0
C1575 C 0.97447 0.28552 0.96059 0.0
C1576 C 0.99431 0.1993 0.94828 0.0
C1577 C 0.97654 0.18767 0.95981 0.0
C1578 C 0.00849 0.22321 0.95182 0.0
C1579 C 0.00533 0.23563 0.96746 0.0
C1580 C 0.98841 0.22337 0.97949 0.0
C1581 C 0.97384 0.19965 0.97542 0.0
C1582 C 0.02604 0.23573 0.93851 0.0
C1583 C 0.98506 0.23561 0.99643 0.0
H1584 H 0.08214 0.28902 0.97372 0.0
H1585 H 0.00829 0.32797 0.95791 0.0
H1586 H 0.04876 0.2276 0.98941 0.0
H1587 H 0.06639 0.22618 0.97008 0.0
H1588 H 0.08068 0.24538 0.98688 0.0
H1589 H 0.96581 0.30625 0.95915 0.0
H1590 H 0.9721 0.27454 0.94871 0.0
H1591 H 0.96248 0.27442 0.96999 0.0
H1592 H 0.99651 0.1902 0.93617 0.0
H1593 H 0.96032 0.19058 0.98444 0.0
H1594 H 0.0472 0.23818 0.94301 0.0
H1595 H 0.01827 0.25627 0.93534 0.0
H1596 H 0.02649 0.22328 0.92708 0.0
H1597 H 0.00469 0.24363 0.00113 0.0
H1598 H 0.97697 0.22056 0.00539 0.0
H1599 H 0.97057 0.25286 0.99578 0.0
C1600 C 0.48659 0.07225 0.10678 0.0
C1601 C 0.49368 0.09466 0.09697 0.0
C1602 C 0.46432 0.07355 0.11762 0.0
C1603 C 0.4494 0.09806 0.11894 0.0
C1604 C 0.45575 0.12027 0.10851 0.0
C1605 C 0.4776 0.11817 0.09754 0.0
C1606 C 0.45759 0.04915 0.12814 0.0
C1607 C 0.44058 0.14695 0.10965 0.0
C1608 C 0.38282 0.11087 0.14096 0.0
C1609 C 0.39215 0.12387 0.1553 0.0
C1610 C 0.40128 0.09975 0.12957 0.0
C1611 C 0.42956 0.10219 0.13252 0.0
C1612 C 0.4389 0.113 0.14766 0.0
C1613 C 0.42006 0.12339 0.15894 0.0
C1614 C 0.39056 0.08735 0.11384 0.0
C1615 C 0.46889 0.11612 0.15131 0.0
H1616 H 0.49872 0.05386 0.10622 0.0
H1617 H 0.48289 0.13556 0.08997 0.0
H1618 H 0.46535 0.05243 0.14083 0.0
H1619 H 0.43525 0.0462 0.12898 0.0
H1620 H 0.46696 0.03026 0.12321 0.0
H1621 H 0.44718 0.16173 0.10009 0.0
H1622 H 0.4184 0.14352 0.10828 0.0
H1623 H 0.44398 0.15619 0.12197 0.0
H1624 H 0.36126 0.11071 0.13817 0.0
H1625 H 0.42752 0.13292 0.17012 0.0
H1626 H 0.40262 0.06919 0.1103 0.0
H1627 H 0.39228 0.10237 0.10368 0.0
H1628 H 0.36884 0.08141 0.11502 0.0
H1629 H 0.4798 0.09677 0.149 0.0
H1630 H 0.47273 0.12247 0.16426 0.0
H1631 H 0.47771 0.1317 0.14297 0.0
C1632 C 0.12647 0.2353 0.35534 0.0
C1633 C 0.14886 0.25293 0.35515 0.0
C1634 C 0.125 0.21377 0.36656 0.0
C1635 C 0.1467 0.20939 0.37773 0.0
C1636 C 0.16991 0.22641 0.37721 0.0
C1637 C 0.17058 0.24825 0.36602 0.0
C1638 C 0.0997 0.19627 0.3668 0.0
C1639 C 0.19367 0.22198 0.38868 0.0
C1640 C 0.1197 0.17359 0.41523 0.0
C1641 C 0.12209 0.14629 0.41035 0.0
C1642 C 0.13011 0.19459 0.40544 0.0
C1643 C 0.14368 0.18808 0.39057 0.0
C1644 C 0.14924 0.16056 0.3867 0.0
C1645 C 0.13819 0.1399 0.3966 0.0
C1646 C 0.12374 0.22366 0.41007 0.0
C1647 C 0.16451 0.15286 0.37125 0.0
H1648 H 0.10958 0.23877 0.347 0.0
H1649 H 0.18808 0.26168 0.36583 0.0
H1650 H 0.1052 0.17461 0.36494 0.0
H1651 H 0.08958 0.19791 0.379 0.0
H1652 H 0.08485 0.20219 0.35712 0.0
H1653 H 0.21186 0.23378 0.38481 0.0
H1654 H 0.18801 0.22844 0.40133 0.0
H1655 H 0.19912 0.20011 0.38925 0.0
H1656 H 0.10779 0.17878 0.42604 0.0
H1657 H 0.1406 0.11888 0.39287 0.0
H1658 H 0.10739 0.23147 0.4019 0.0
H1659 H 0.14179 0.23686 0.40834 0.0
H1660 H 0.11676 0.22547 0.42306 0.0
H1661 H 0.15066 0.15441 0.36048 0.0
H1662 H 0.17231 0.13168 0.37188 0.0
H1663 H 0.18182 0.16689 0.36909 0.0
C1664 C 0.10042 0.87631 0.63555 0.0
C1665 C 0.09505 0.86241 0.6503 0.0
C1666 C 0.07903 0.88626 0.62576 0.0
C1667 C 0.0518 0.88203 0.63084 0.0
C1668 C 0.04641 0.86984 0.6463 0.0
C1669 C 0.06809 0.86035 0.65587 0.0
C1670 C 0.08554 0.89963 0.60948 0.0
C1671 C 0.01766 0.8649 0.65219 0.0
C1672 C 0.99108 0.91501 0.60995 0.0
C1673 C 0.98218 0.89395 0.59957 0.0
C1674 C 0.01442 0.91192 0.61976 0.0
C1675 C 0.02893 0.88709 0.61929 0.0
C1676 C 0.02036 0.866 0.60858 0.0
C1677 C 0.99719 0.86974 0.5988 0.0
C1678 C 0.02318 0.93494 0.63088 0.0
C1679 C 0.03516 0.83909 0.60784 0.0
H1680 H 0.12118 0.8782 0.63121 0.0
H1681 H 0.06369 0.84998 0.66736 0.0
H1682 H 0.08071 0.88539 0.59927 0.0
H1683 H 0.07295 0.91811 0.60769 0.0
H1684 H 0.10735 0.90534 0.60855 0.0
H1685 H 0.01699 0.85756 0.66514 0.0
H1686 H 0.00544 0.88379 0.65126 0.0
H1687 H 0.00783 0.84941 0.64421 0.0
H1688 H 0.97973 0.93389 0.61049 0.0
H1689 H 0.99051 0.85338 0.59081 0.0
H1690 H 0.04508 0.93945 0.62904 0.0
H1691 H 0.02051 0.9289 0.64396 0.0
H1692 H 0.01128 0.95379 0.62864 0.0
H1693 H 0.05699 0.84242 0.60504 0.0
H1694 H 0.02653 0.82522 0.59837 0.0
H1695 H 0.03401 0.82885 0.62002 0.0
C1696 C 0.37416 0.75874 0.84538 0.0
C1697 C 0.34926 0.74502 0.8441 0.0
C1698 C 0.37673 0.78209 0.85515 0.0
C1699 C 0.3537 0.79228 0.86364 0.0
C1700 C 0.32819 0.77932 0.86177 0.0
C1701 C 0.32632 0.75562 0.85216 0.0
C1702 C 0.40442 0.79509 0.85699 0.0
C1703 C 0.30309 0.78998 0.87032 0.0
C1704 C 0.37399 0.82852 0.90269 0.0
C1705 C 0.37661 0.85546 0.89719 0.0
C1706 C 0.36474 0.80797 0.89217 0.0
C1707 C 0.35735 0.81459 0.8758 0.0
C1708 C 0.3572 0.84214 0.87068 0.0
C1709 C 0.36701 0.86234 0.88144 0.0
C1710 C 0.36533 0.77887 0.89815 0.0
C1711 C 0.34867 0.85005 0.85346 0.0
H1712 H 0.39196 0.7507 0.83917 0.0
H1713 H 0.30691 0.74532 0.85102 0.0
H1714 H 0.40333 0.81705 0.85394 0.0
H1715 H 0.41129 0.79342 0.86999 0.0
H1716 H 0.41995 0.78544 0.84894 0.0
H1717 H 0.28425 0.78006 0.86572 0.0
H1718 H 0.30469 0.78621 0.88377 0.0
H1719 H 0.30127 0.81228 0.86855 0.0
H1720 H 0.38087 0.82304 0.91495 0.0
H1721 H 0.36869 0.88314 0.87713 0.0
H1722 H 0.38171 0.76763 0.89165 0.0
H1723 H 0.34586 0.7685 0.89532 0.0
H1724 H 0.3691 0.77744 0.91164 0.0
H1725 H 0.36519 0.84489 0.84468 0.0
H1726 H 0.34449 0.87219 0.85248 0.0
H1727 H 0.33026 0.83863 0.84963 0.0
C1728 C 0.48875 0.88721 0.39351 0.0
C1729 C 0.50687 0.9091 0.39484 0.0
C1730 C 0.46727 0.88769 0.38222 0.0
C1731 C 0.4634 0.9109 0.37215 0.0
C1732 C 0.48084 0.93364 0.37391 0.0
C1733 C 0.50267 0.93233 0.38511 0.0
C1734 C 0.44934 0.8628 0.3807 0.0
C1735 C 0.47708 0.95901 0.36369 0.0
C1736 C 0.42821 0.88686 0.33391 0.0
C1737 C 0.401 0.88765 0.33914 0.0
C1738 C 0.449 0.8976 0.34375 0.0
C1739 C 0.44231 0.90972 0.35903 0.0
C1740 C 0.41469 0.91437 0.36308 0.0
C1741 C 0.39423 0.90308 0.3531 0.0
C1742 C 0.47818 0.89268 0.33878 0.0
C1743 C 0.4068 0.92848 0.37889 0.0
H1744 H 0.4918 0.86917 0.40097 0.0
H1745 H 0.51647 0.94944 0.38618 0.0
H1746 H 0.42778 0.86838 0.38286 0.0
H1747 H 0.45082 0.85436 0.36803 0.0
H1748 H 0.455 0.84657 0.38959 0.0
H1749 H 0.48625 0.97702 0.36982 0.0
H1750 H 0.48731 0.95629 0.35162 0.0
H1751 H 0.45525 0.96317 0.36132 0.0
H1752 H 0.43358 0.87568 0.32285 0.0
H1753 H 0.37322 0.90437 0.35707 0.0
H1754 H 0.4867 0.87592 0.34635 0.0
H1755 H 0.49073 0.91103 0.34104 0.0
H1756 H 0.47999 0.88694 0.32557 0.0
H1757 H 0.40842 0.91392 0.3893 0.0
H1758 H 0.38554 0.9361 0.3784 0.0
H1759 H 0.42067 0.94577 0.38149 0.0
C1760 C 0.3702 0.16811 0.58557 0.0
C1761 C 0.3713 0.14115 0.59122 0.0
C1762 C 0.35882 0.18867 0.59529 0.0
C1763 C 0.34779 0.18199 0.61088 0.0
C1764 C 0.34546 0.15438 0.61562 0.0
C1765 C 0.35744 0.13418 0.60575 0.0
C1766 C 0.36155 0.21784 0.58969 0.0
C1767 C 0.33275 0.1464 0.63184 0.0
C1768 C 0.36457 0.23432 0.64344 0.0
C1769 C 0.34093 0.2502 0.64369 0.0
C1770 C 0.36655 0.21146 0.63324 0.0
C1771 C 0.34412 0.20392 0.62327 0.0
C1772 C 0.31962 0.21895 0.62413 0.0
C1773 C 0.31843 0.24221 0.63418 0.0
C1774 C 0.3932 0.19615 0.63259 0.0
C1775 C 0.29503 0.21113 0.61405 0.0
H1776 H 0.38026 0.17362 0.57415 0.0
H1777 H 0.35769 0.11332 0.61007 0.0
H1778 H 0.34228 0.22909 0.59164 0.0
H1779 H 0.37754 0.22808 0.5971 0.0
H1780 H 0.36722 0.21935 0.57645 0.0
H1781 H 0.32694 0.12457 0.632 0.0
H1782 H 0.34755 0.14998 0.64195 0.0
H1783 H 0.31446 0.15891 0.63443 0.0
H1784 H 0.38201 0.24035 0.65076 0.0
H1785 H 0.29996 0.25424 0.63449 0.0
H1786 H 0.40193 0.19752 0.61999 0.0
H1787 H 0.38983 0.17431 0.63532 0.0
H1788 H 0.40838 0.20422 0.64148 0.0
H1789 H 0.29779 0.21818 0.60117 0.0
H1790 H 0.27615 0.22053 0.61898 0.0
H1791 H 0.29238 0.18872 0.61374 0.0
C1792 C 0.01208 0.11464 0.88752 0.0
C1793 C 0.9963 0.09122 0.88983 0.0
C1794 C 0.03366 0.11499 0.87634 0.0
C1795 C 0.03994 0.09118 0.86727 0.0
C1796 C 0.02432 0.06729 0.86961 0.0
C1797 C 0.0025 0.06762 0.88084 0.0
C1798 C 0.04946 0.14114 0.87408 0.0
C1799 C 0.03083 0.04141 0.86042 0.0
C1800 C 0.07704 0.11484 0.82977 0.0
C1801 C 0.10357 0.1166 0.83605 0.0
C1802 C 0.05616 0.10298 0.83903 0.0
C1803 C 0.06211 0.09253 0.85487 0.0
C1804 C 0.08953 0.09041 0.86008 0.0
C1805 C 0.11007 0.1026 0.85059 0.0
C1806 C 0.02728 0.10529 0.83284 0.0
C1807 C 0.09679 0.0785 0.87665 0.0
H1808 H 0.00735 0.13301 0.89435 0.0
H1809 H 0.99052 0.04937 0.88273 0.0
H1810 H 0.07126 0.13775 0.87696 0.0
H1811 H 0.04814 0.14794 0.86105 0.0
H1812 H 0.04184 0.15781 0.88209 0.0
H1813 H 0.01504 0.02554 0.86229 0.0
H1814 H 0.0329 0.0454 0.84702 0.0
H1815 H 0.05062 0.03332 0.86478 0.0
H1816 H 0.07202 0.12493 0.81827 0.0
H1817 H 0.13065 0.10338 0.85538 0.0
H1818 H 0.01731 0.12293 0.83888 0.0
H1819 H 0.01534 0.08686 0.83594 0.0
H1820 H 0.02656 0.10847 0.81928 0.0
H1821 H 0.09324 0.09398 0.88638 0.0
H1822 H 0.11852 0.07234 0.87715 0.0
H1823 H 0.08389 0.0606 0.8795 0.0
C1824 C 0.12364 0.75573 0.1486 0.0
C1825 C 0.14778 0.74063 0.14934 0.0
C1826 C 0.12123 0.77816 0.13808 0.0
C1827 C 0.14366 0.78599 0.12821 0.0
C1828 C 0.16837 0.77133 0.1292 0.0
C1829 C 0.17007 0.7486 0.13966 0.0
C1830 C 0.09435 0.79302 0.13721 0.0
C1831 C 0.19282 0.77942 0.11908 0.0
C1832 C 0.12047 0.82361 0.09025 0.0
C1833 C 0.12082 0.85067 0.0958 0.0
C1834 C 0.1298 0.80239 0.10025 0.0
C1835 C 0.14019 0.80839 0.1161 0.0
C1836 C 0.14324 0.83582 0.12111 0.0
C1837 C 0.13337 0.85672 0.11091 0.0
C1838 C 0.12608 0.77342 0.09444 0.0
C1839 C 0.1549 0.84302 0.13776 0.0
H1840 H 0.10633 0.74968 0.15602 0.0
H1841 H 0.18889 0.73717 0.14032 0.0
H1842 H 0.09733 0.81489 0.14002 0.0
H1843 H 0.08595 0.79162 0.12453 0.0
H1844 H 0.0791 0.78465 0.14595 0.0
H1845 H 0.21121 0.76747 0.12238 0.0
H1846 H 0.18846 0.77629 0.10579 0.0
H1847 H 0.19729 0.80136 0.12081 0.0
H1848 H 0.11124 0.8187 0.07847 0.0
H1849 H 0.13406 0.87757 0.11523 0.0
H1850 H 0.10936 0.76377 0.10154 0.0
H1851 H 0.14475 0.76133 0.09666 0.0
H1852 H 0.12093 0.77231 0.08111 0.0
H1853 H 0.13953 0.83885 0.14745 0.0
H1854 H 0.16067 0.86484 0.1385 0.0
H1855 H 0.17304 0.8304 0.14052 0.0
C1856 C 0.51071 0.92631 0.89012 0.0
C1857 C 0.50073 0.90373 0.89881 0.0
C1858 C 0.53453 0.92438 0.88064 0.0
C1859 C 0.54815 0.89911 0.87949 0.0
C1860 C 0.53883 0.87663 0.88884 0.0
C1861 C 0.5154 0.87931 0.89852 0.0
C1862 C 0.54435 0.94902 0.87127 0.0
C1863 C 0.55258 0.84919 0.88783 0.0
C1864 C 0.58264 0.8758 0.84051 0.0
C1865 C 0.60984 0.87382 0.84565 0.0
C1866 C 0.56254 0.88587 0.85107 0.0
C1867 C 0.56988 0.89482 0.86704 0.0
C1868 C 0.59766 0.89575 0.87164 0.0
C1869 C 0.61738 0.88501 0.8609 0.0
C1870 C 0.53315 0.88445 0.84565 0.0
C1871 C 0.60634 0.90611 0.88834 0.0
H1872 H 0.49966 0.94538 0.8905 0.0
H1873 H 0.50782 0.86181 0.90523 0.0
H1874 H 0.56679 0.95091 0.87212 0.0
H1875 H 0.53907 0.94681 0.85803 0.0
H1876 H 0.53491 0.96806 0.87592 0.0
H1877 H 0.54371 0.83425 0.89659 0.0
H1878 H 0.55054 0.84097 0.87514 0.0
H1879 H 0.57461 0.85119 0.89048 0.0
H1880 H 0.57661 0.86769 0.82863 0.0
H1881 H 0.63839 0.88393 0.8649 0.0
H1882 H 0.52277 0.90411 0.84791 0.0
H1883 H 0.52238 0.86871 0.85298 0.0
H1884 H 0.53109 0.87925 0.83237 0.0
H1885 H 0.59463 0.92453 0.89182 0.0
H1886 H 0.6284 0.91099 0.88866 0.0
H1887 H 0.60225 0.8903 0.89778 0.0
C1888 C 0.84286 0.86636 0.60744 0.0
C1889 C 0.85412 0.85763 0.59244 0.0
C1890 C 0.8316 0.8475 0.61852 0.0
C1891 C 0.83227 0.81946 0.61458 0.0
C1892 C 0.84022 0.81114 0.5986 0.0
C1893 C 0.85072 0.83042 0.58763 0.0
C1894 C 0.82162 0.85727 0.63508 0.0
C1895 C 0.84097 0.78147 0.59376 0.0
C1896 C 0.85558 0.76954 0.64694 0.0
C1897 C 0.83255 0.7531 0.64886 0.0
C1898 C 0.85523 0.79203 0.6364 0.0
C1899 C 0.83096 0.79875 0.62788 0.0
C1900 C 0.80702 0.78346 0.63073 0.0
C1901 C 0.80822 0.76044 0.64098 0.0
C1902 C 0.88141 0.80751 0.63358 0.0
C1903 C 0.78046 0.7905 0.62245 0.0
H1904 H 0.84478 0.88747 0.61113 0.0
H1905 H 0.85862 0.82359 0.57585 0.0
H1906 H 0.80369 0.84531 0.63917 0.0
H1907 H 0.83792 0.85451 0.6444 0.0
H1908 H 0.8161 0.87917 0.63475 0.0
H1909 H 0.8448 0.77867 0.58036 0.0
H1910 H 0.85741 0.77106 0.60071 0.0
H1911 H 0.82153 0.77135 0.59695 0.0
H1912 H 0.87443 0.76399 0.65301 0.0
H1913 H 0.79022 0.74798 0.64261 0.0
H1914 H 0.87838 0.82944 0.63616 0.0
H1915 H 0.88767 0.80557 0.62048 0.0
H1916 H 0.89829 0.80001 0.64147 0.0
H1917 H 0.77856 0.8127 0.62028 0.0
H1918 H 0.76288 0.78357 0.62996 0.0
H1919 H 0.77932 0.78004 0.61035 0.0
C1920 C 0.92499 0.13192 0.33819 0.0
C1921 C 0.89725 0.12842 0.34169 0.0
C1922 C 0.94504 0.12132 0.34862 0.0
C1923 C 0.93718 0.10647 0.36278 0.0
C1924 C 0.90937 0.10041 0.36544 0.0
C1925 C 0.88965 0.11159 0.35489 0.0
C1926 C 0.97447 0.12828 0.3453 0.0
C1927 C 0.90027 0.08398 0.38016 0.0
C1928 C 0.99582 0.07555 0.38687 0.0
C1929 C 0.00074 0.09591 0.39864 0.0
C1930 C 0.97422 0.07788 0.3756 0.0
C1931 C 0.95758 0.10136 0.37594 0.0
C1932 C 0.96194 0.12152 0.38814 0.0
C1933 C 0.98331 0.11844 0.39939 0.0
C1934 C 0.9698 0.05572 0.363 0.0
C1935 C 0.94482 0.14702 0.38885 0.0
H1936 H 0.93114 0.1445 0.32786 0.0
H1937 H 0.86829 0.10845 0.35759 0.0
H1938 H 0.9816 0.14325 0.3546 0.0
H1939 H 0.98747 0.10996 0.34644 0.0
H1940 H 0.97745 0.13716 0.33284 0.0
H1941 H 0.87906 0.07655 0.37871 0.0
H1942 H 0.91389 0.0663 0.38215 0.0
H1943 H 0.90123 0.09685 0.39139 0.0
H1944 H 0.00904 0.05793 0.38632 0.0
H1945 H 0.9869 0.13427 0.40845 0.0
H1946 H 0.97605 0.0631 0.35064 0.0
H1947 H 0.94793 0.05027 0.36225 0.0
H1948 H 0.9817 0.03712 0.36591 0.0
H1949 H 0.9476 0.15892 0.37735 0.0
H1950 H 0.95018 0.1602 0.3995 0.0
H1951 H 0.92295 0.14167 0.38974 0.0
C1952 C 0.67188 0.24675 0.13541 0.0
C1953 C 0.65081 0.25558 0.14579 0.0
C1954 C 0.66861 0.22372 0.12535 0.0
C1955 C 0.64355 0.20957 0.12551 0.0
C1956 C 0.6226 0.21785 0.13639 0.0
C1957 C 0.62655 0.24062 0.14646 0.0
C1958 C 0.69156 0.21513 0.11414 0.0
C1959 C 0.59544 0.20344 0.13684 0.0
C1960 C 0.61474 0.17483 0.08796 0.0
C1961 C 0.61531 0.14742 0.09278 0.0
C1962 C 0.62563 0.19519 0.09804 0.0
C1963 C 0.6378 0.18794 0.11322 0.0
C1964 C 0.6408 0.16016 0.11744 0.0
C1965 C 0.62939 0.14014 0.10718 0.0
C1966 C 0.62196 0.22458 0.09306 0.0
C1967 C 0.65425 0.15167 0.13336 0.0
H1968 H 0.69082 0.25802 0.13497 0.0
H1969 H 0.61019 0.24723 0.15447 0.0
H1970 H 0.69488 0.19285 0.11496 0.0
H1971 H 0.68619 0.21984 0.10117 0.0
H1972 H 0.71089 0.22571 0.11718 0.0
H1973 H 0.58185 0.21155 0.14662 0.0
H1974 H 0.58507 0.20576 0.12476 0.0
H1975 H 0.59839 0.18137 0.13899 0.0
H1976 H 0.6043 0.18068 0.07674 0.0
H1977 H 0.6302 0.11899 0.11092 0.0
H1978 H 0.64137 0.23588 0.09429 0.0
H1979 H 0.60695 0.23438 0.10138 0.0
H1980 H 0.61458 0.22666 0.08017 0.0
H1981 H 0.67295 0.16374 0.1356 0.0
H1982 H 0.65959 0.12971 0.13334 0.0
H1983 H 0.64016 0.15551 0.14379 0.0
C1984 C 0.57494 0.13179 0.66339 0.0
C1985 C 0.60208 0.13081 0.65806 0.0
C1986 C 0.55413 0.11999 0.65405 0.0
C1987 C 0.56068 0.1066 0.63913 0.0
C1988 C 0.58828 0.10265 0.63475 0.0
C1989 C 0.60875 0.11492 0.64428 0.0
C1990 C 0.52497 0.12458 0.65922 0.0
C1991 C 0.59609 0.08783 0.61916 0.0
C1992 C 0.50136 0.07486 0.61603 0.0
C1993 C 0.49438 0.09598 0.60518 0.0
C1994 C 0.52365 0.07743 0.62677 0.0
C1995 C 0.53889 0.10184 0.6268 0.0
C1996 C 0.5322 0.12298 0.61566 0.0
C1997 C 0.51017 0.11971 0.60494 0.0
C1998 C 0.53052 0.05432 0.63829 0.0
C1999 C 0.54779 0.14948 0.61538 0.0
H2000 H 0.56964 0.14351 0.67425 0.0
H2001 H 0.62969 0.11369 0.64019 0.0
H2002 H 0.51576 0.1404 0.65121 0.0
H2003 H 0.51281 0.10576 0.65774 0.0
H2004 H 0.52343 0.13148 0.67224 0.0
H2005 H 0.61776 0.08142 0.61936 0.0
H2006 H 0.58311 0.06963 0.61729 0.0
H2007 H 0.59303 0.10149 0.60843 0.0
H2008 H 0.48939 0.05634 0.61617 0.0
H2009 H 0.50494 0.13612 0.59659 0.0
H2010 H 0.52569 0.06026 0.65116 0.0
H2011 H 0.55261 0.04976 0.6378 0.0
H2012 H 0.519 0.03553 0.63528 0.0
H2013 H 0.54598 0.15977 0.62752 0.0
H2014 H 0.54033 0.1636 0.60569 0.0
H2015 H 0.5697 0.14554 0.61319 0.0
C2016 C 0.62886 0.76243 0.3478 0.0
C2017 C 0.65086 0.7443 0.34775 0.0
C2018 C 0.62751 0.78382 0.35914 0.0
C2019 C 0.64892 0.78753 0.37061 0.0
C2020 C 0.67189 0.7702 0.37011 0.0
C2021 C 0.67247 0.74854 0.35878 0.0
C2022 C 0.60247 0.80167 0.35933 0.0
C2023 C 0.69539 0.77394 0.38187 0.0
C2024 C 0.64079 0.85564 0.39158 0.0
C2025 C 0.62447 0.84829 0.40505 0.0
C2026 C 0.65155 0.83569 0.38101 0.0
C2027 C 0.64553 0.80795 0.38395 0.0
C2028 C 0.63155 0.80037 0.39849 0.0
C2029 C 0.6214 0.82063 0.40893 0.0
C2030 C 0.6672 0.84449 0.36593 0.0
C2031 C 0.62471 0.77103 0.40215 0.0
H2032 H 0.61209 0.75937 0.33932 0.0
H2033 H 0.68969 0.73478 0.3587 0.0
H2034 H 0.59167 0.7993 0.37126 0.0
H2035 H 0.60834 0.82336 0.35816 0.0
H2036 H 0.58809 0.79664 0.34921 0.0
H2037 H 0.71361 0.76227 0.37793 0.0
H2038 H 0.70092 0.79575 0.38293 0.0
H2039 H 0.68939 0.76682 0.39433 0.0
H2040 H 0.64367 0.87694 0.38861 0.0
H2041 H 0.60931 0.8147 0.41952 0.0
H2042 H 0.65356 0.84398 0.35503 0.0
H2043 H 0.6844 0.83046 0.36346 0.0
H2044 H 0.67522 0.8655 0.36726 0.0
H2045 H 0.60881 0.76396 0.39342 0.0
H2046 H 0.61698 0.76826 0.41491 0.0
H2047 H 0.64277 0.75786 0.40043 0.0
C2048 C 0.88207 0.88749 0.13536 0.0
C2049 C 0.88945 0.87489 0.15023 0.0
C2050 C 0.90197 0.89883 0.12499 0.0
C2051 C 0.92971 0.89707 0.12955 0.0
C2052 C 0.93687 0.88697 0.1453 0.0
C2053 C 0.9166 0.87631 0.15552 0.0
C2054 C 0.89349 0.91053 0.10858 0.0
C2055 C 0.96621 0.88471 0.15069 0.0
C2056 C 0.98325 0.88094 0.09763 0.0
C2057 C -0.00115 0.90478 0.0977 0.0
C2058 C 0.95985 0.87872 0.10737 0.0
C2059 C 0.95148 0.90114 0.11711 0.0
C2060 C 0.96606 0.92591 0.11633 0.0
C2061 C 0.98987 0.92733 0.10681 0.0
C2062 C 0.94507 0.85178 0.10798 0.0
C2063 C 0.95726 0.95052 0.1261 0.0
H2064 H 0.86108 0.88691 0.13129 0.0
H2065 H 0.92245 0.86718 0.16716 0.0
H2066 H 0.90579 0.92876 0.10549 0.0
H2067 H 0.89693 0.89519 0.09876 0.0
H2068 H 0.87161 0.91615 0.10849 0.0
H2069 H 0.96812 0.87897 0.1639 0.0
H2070 H 0.97662 0.86901 0.14315 0.0
H2071 H 0.97703 0.90421 0.14872 0.0
H2072 H 0.99006 0.86348 0.09059 0.0
H2073 H 0.00165 0.94597 0.10669 0.0
H2074 H 0.92315 0.8547 0.10529 0.0
H2075 H 0.94667 0.84304 0.12056 0.0
H2076 H 0.95343 0.83682 0.09905 0.0
H2077 H 0.93482 0.95292 0.12573 0.0
H2078 H 0.96685 0.96945 0.1214 0.0
H2079 H 0.96327 0.94793 0.13919 0.0
C2080 C 0.8607 0.13652 0.89243 0.0
C2081 C 0.87553 0.14318 0.90665 0.0
C2082 C 0.84836 0.15698 0.88293 0.0
C2083 C 0.85127 0.18452 0.88775 0.0
C2084 C 0.8633 0.19087 0.90312 0.0
C2085 C 0.8751 0.17007 0.91245 0.0
C2086 C 0.83469 0.14935 0.86693 0.0
C2087 C 0.86668 0.21993 0.90881 0.0
C2088 C 0.86683 0.23696 0.85506 0.0
C2089 C 0.84328 0.25299 0.85524 0.0
C2090 C 0.86916 0.21406 0.86518 0.0
C2091 C 0.84718 0.20664 0.87555 0.0
C2092 C 0.8228 0.22191 0.8752 0.0
C2093 C 0.82125 0.24518 0.86519 0.0
C2094 C 0.89568 0.1985 0.86529 0.0
C2095 C 0.79871 0.21426 0.88575 0.0
H2096 H 0.86056 0.11573 0.88799 0.0
H2097 H 0.88594 0.17528 0.92366 0.0
H2098 H 0.81642 0.1621 0.86476 0.0
H2099 H 0.84898 0.15289 0.85655 0.0
H2100 H 0.82862 0.12759 0.86678 0.0
H2101 H 0.87297 0.22118 0.92196 0.0
H2102 H 0.88249 0.23003 0.9012 0.0
H2103 H 0.84751 0.23148 0.90722 0.0
H2104 H 0.88391 0.24284 0.8474 0.0
H2105 H 0.80284 0.25732 0.86521 0.0
H2106 H 0.89196 0.17672 0.86255 0.0
H2107 H 0.90508 0.19968 0.87772 0.0
H2108 H 0.91047 0.2065 0.85613 0.0
H2109 H 0.79562 0.19191 0.88582 0.0
H2110 H 0.77972 0.22422 0.88142 0.0
H2111 H 0.80246 0.22074 0.89866 0.0
C2112 C 0.99149 0.57871 0.60407 0.0
C2113 C 1e-05 0.59914 0.59313 0.0
C2114 C 0.96844 0.58236 0.61405 0.0
C2115 C 0.9539 0.60716 0.61324 0.0
C2116 C 0.9617 0.62731 0.6017 0.0
C2117 C 0.98454 0.62298 0.59172 0.0
C2118 C 0.96043 0.56022 0.62599 0.0
C2119 C 0.94688 0.65417 0.60055 0.0
C2120 C 0.88516 0.62024 0.63307 0.0
C2121 C 0.89294 0.63469 0.64724 0.0
C2122 C 0.90484 0.60954 0.62228 0.0
C2123 C 0.93279 0.61366 0.62572 0.0
C2124 C 0.94067 0.6267 0.64052 0.0
C2125 C 0.92068 0.63686 0.65112 0.0
C2126 C 0.89572 0.59522 0.60678 0.0
C2127 C 0.97025 0.63159 0.64467 0.0
H2128 H 0.00313 0.56006 0.60508 0.0
H2129 H 0.99087 0.63883 0.58326 0.0
H2130 H 0.9655 0.56664 0.63874 0.0
H2131 H 0.93816 0.55661 0.62552 0.0
H2132 H 0.97112 0.54078 0.62339 0.0
H2133 H 0.95424 0.66684 0.59012 0.0
H2134 H 0.92473 0.65075 0.599 0.0
H2135 H 0.94977 0.66576 0.61216 0.0
H2136 H 0.86378 0.61827 0.63003 0.0
H2137 H 0.92697 0.64769 0.66212 0.0
H2138 H 0.90779 0.57644 0.60476 0.0
H2139 H 0.89913 0.60869 0.596 0.0
H2140 H 0.8738 0.58978 0.60721 0.0
H2141 H 0.98188 0.61231 0.64396 0.0
H2142 H 0.97297 0.64039 0.65718 0.0
H2143 H 0.97923 0.64582 0.63554 0.0
C2144 C 0.61047 0.67061 0.90523 0.0
C2145 C 0.61152 0.64283 0.90129 0.0
C2146 C 0.62179 0.69018 0.89478 0.0
C2147 C 0.63488 0.68179 0.8801 0.0
C2148 C 0.63809 0.65372 0.87672 0.0
C2149 C 0.62623 0.63449 0.88735 0.0
C2150 C 0.6179 0.71993 0.89887 0.0
C2151 C 0.6525 0.64403 0.86138 0.0
C2152 C 0.62735 0.73356 0.84597 0.0
C2153 C 0.65151 0.74849 0.84754 0.0
C2154 C 0.62234 0.71083 0.85592 0.0
C2155 C 0.64214 0.70259 0.86758 0.0
C2156 C 0.6673 0.71647 0.86849 0.0
C2157 C 0.67162 0.73943 0.85854 0.0
C2158 C 0.59513 0.69668 0.85465 0.0
C2159 C 0.68911 0.70791 0.88052 0.0
H2160 H 0.59949 0.6773 0.91609 0.0
H2161 H 0.62736 0.61307 0.88427 0.0
H2162 H 0.63757 0.73091 0.8982 0.0
H2163 H 0.60405 0.72933 0.88969 0.0
H2164 H 0.6091 0.72299 0.91135 0.0
H2165 H 0.65755 0.62204 0.86204 0.0
H2166 H 0.63922 0.64738 0.8505 0.0
H2167 H 0.6715 0.65574 0.85935 0.0
H2168 H 0.61175 0.74032 0.83746 0.0
H2169 H 0.69052 0.75064 0.85966 0.0
H2170 H 0.58345 0.69994 0.8662 0.0
H2171 H 0.598 0.67445 0.85317 0.0
H2172 H 0.58281 0.7043 0.84413 0.0
H2173 H 0.68286 0.7135 0.89322 0.0
H2174 H 0.70892 0.71785 0.87785 0.0
H2175 H 0.69192 0.68553 0.88024 0.0
C2176 C 0.61768 0.39224 0.13551 0.0
C2177 C 0.61025 0.3821 0.15104 0.0
C2178 C 0.59794 0.40301 0.1248 0.0
C2179 C 0.57032 0.40318 0.12973 0.0
C2180 C 0.56333 0.39586 0.14606 0.0
C2181 C 0.58346 0.38574 0.15658 0.0
C2182 C 0.60632 0.41184 0.10772 0.0
C2183 C 0.53413 0.39577 0.15189 0.0
C2184 C 0.51029 0.43161 0.10601 0.0
C2185 C 0.50022 0.408 0.09844 0.0
C2186 C 0.53447 0.43098 0.11523 0.0
C2187 C 0.54828 0.40598 0.11732 0.0
C2188 C 0.53881 0.38238 0.10908 0.0
C2189 C 0.51509 0.38378 0.09958 0.0
C2190 C 0.54443 0.45677 0.12333 0.0
C2191 C 0.55274 0.35519 0.11114 0.0
H2192 H 0.63844 0.38994 0.13121 0.0
H2193 H 0.57764 0.37856 0.16872 0.0
H2194 H 0.60207 0.39519 0.09885 0.0
H2195 H 0.59457 0.42994 0.10372 0.0
H2196 H 0.62838 0.41664 0.10713 0.0
H2197 H 0.53249 0.39229 0.1654 0.0
H2198 H 0.52404 0.41529 0.14888 0.0
H2199 H 0.52281 0.37937 0.14546 0.0
H2200 H 0.49907 0.45051 0.10493 0.0
H2201 H 0.50742 0.36549 0.09372 0.0
H2202 H 0.56695 0.45812 0.12284 0.0
H2203 H 0.53835 0.45682 0.1365 0.0
H2204 H 0.53565 0.47514 0.11739 0.0
H2205 H 0.57462 0.3569 0.10801 0.0
H2206 H 0.54353 0.33913 0.10327 0.0
H2207 H 0.55136 0.3486 0.12421 0.0
C2208 C 0.81261 0.25129 0.36005 0.0
C2209 C 0.83644 0.24606 0.35106 0.0
C2210 C 0.81118 0.27339 0.37103 0.0
C2211 C 0.8344 0.29 0.37338 0.0
C2212 C 0.85827 0.28505 0.36406 0.0
C2213 C 0.85886 0.26337 0.35292 0.0
C2214 C 0.78515 0.27833 0.38041 0.0
C2215 C 0.88367 0.30203 0.36628 0.0
C2216 C 0.84315 0.35905 0.39243 0.0
C2217 C 0.85697 0.35186 0.40693 0.0
C2218 C 0.83205 0.33891 0.38214 0.0
C2219 C 0.83528 0.31119 0.38642 0.0
C2220 C 0.84573 0.30422 0.40211 0.0
C2221 C 0.85625 0.3247 0.41225 0.0
C2222 C 0.81972 0.34715 0.36586 0.0
C2223 C 0.84916 0.27493 0.40731 0.0
H2224 H 0.7951 0.23811 0.35853 0.0
H2225 H 0.87736 0.25946 0.34605 0.0
H2226 H 0.78649 0.26841 0.39267 0.0
H2227 H 0.78157 0.30037 0.38242 0.0
H2228 H 0.76735 0.26959 0.37383 0.0
H2229 H 0.90041 0.2956 0.35794 0.0
H2230 H 0.87914 0.32375 0.36384 0.0
H2231 H 0.89097 0.30043 0.3792 0.0
H2232 H 0.84302 0.38006 0.38838 0.0
H2233 H 0.86618 0.31903 0.42369 0.0
H2234 H 0.80218 0.33391 0.36271 0.0
H2235 H 0.83514 0.34487 0.35596 0.0
H2236 H 0.81286 0.36868 0.36603 0.0
H2237 H 0.83061 0.26301 0.40449 0.0
H2238 H 0.85367 0.27305 0.42069 0.0
H2239 H 0.86626 0.26575 0.40031 0.0
C2240 C 0.889 0.38807 0.86184 0.0
C2241 C 0.89438 0.37589 0.84654 0.0
C2242 C 0.91032 0.39842 0.87155 0.0
C2243 C 0.93745 0.39618 0.86584 0.0
C2244 C 0.94256 0.3866 0.84969 0.0
C2245 C 0.92092 0.37685 0.84018 0.0
C2246 C 0.90401 0.40944 0.88849 0.0
C2247 C 0.97116 0.38382 0.84308 0.0
C2248 C -0.00061 0.42452 0.88796 0.0
C2249 C 0.00822 0.40161 0.89678 0.0
C2250 C 0.97549 0.42364 0.87847 0.0
C2251 C 0.96059 0.39907 0.87748 0.0
C2252 C 0.96918 0.37607 0.88663 0.0
C2253 C 0.99271 0.37773 0.8963 0.0
C2254 C 0.96657 0.44875 0.86923 0.0
C2255 C 0.95409 0.34932 0.88573 0.0
H2256 H 0.86851 0.38778 0.86677 0.0
H2257 H 0.92521 0.36803 0.8282 0.0
H2258 H 0.90844 0.39361 0.89786 0.0
H2259 H 0.91689 0.42737 0.89133 0.0
H2260 H 0.88227 0.41532 0.88966 0.0
H2261 H 0.97142 0.37935 0.82964 0.0
H2262 H 0.98301 0.40264 0.84532 0.0
H2263 H 0.98164 0.36698 0.84961 0.0
H2264 H 0.01114 0.44316 0.88848 0.0
H2265 H -0.00056 0.35997 0.90309 0.0
H2266 H 0.94447 0.45232 0.871 0.0
H2267 H 0.97006 0.44584 0.85584 0.0
H2268 H 0.97788 0.46715 0.87326 0.0
H2269 H 0.9325 0.35224 0.88926 0.0
H2270 H 0.96309 0.33361 0.89393 0.0
H2271 H 0.9544 0.34155 0.87288 0.0
C2272 C 0.87514 0.66963 0.08484 0.0
C2273 C 0.87613 0.64271 0.09054 0.0
C2274 C 0.86271 0.69004 0.09419 0.0
C2275 C 0.85069 0.68323 0.10948 0.0
C2276 C 0.84834 0.65559 0.11417 0.0
C2277 C 0.86124 0.63553 0.10463 0.0
C2278 C 0.86542 0.71923 0.08862 0.0
C2279 C 0.83472 0.64748 0.13009 0.0
C2280 C 0.86558 0.73547 0.14238 0.0
C2281 C 0.84176 0.75109 0.14236 0.0
C2282 C 0.86821 0.71273 0.13216 0.0
C2283 C 0.84627 0.70508 0.12182 0.0
C2284 C 0.82163 0.71991 0.12231 0.0
C2285 C 0.81976 0.74301 0.13246 0.0
C2286 C 0.89498 0.69759 0.13194 0.0
C2287 C 0.7976 0.71202 0.11176 0.0
H2288 H 0.88601 0.67522 0.07371 0.0
H2289 H 0.86151 0.61468 0.10898 0.0
H2290 H 0.846 0.73032 0.09027 0.0
H2291 H 0.88103 0.72959 0.09627 0.0
H2292 H 0.87164 0.72075 0.07548 0.0
H2293 H 0.82906 0.6256 0.1301 0.0
H2294 H 0.84889 0.65111 0.14052 0.0
H2295 H 0.81621 0.65986 0.1323 0.0
H2296 H 0.88264 0.74153 0.15002 0.0
H2297 H 0.80114 0.75481 0.13254 0.0
H2298 H 0.90432 0.69913 0.11951 0.0
H2299 H 0.89161 0.67571 0.13454 0.0
H2300 H 0.90966 0.70568 0.14113 0.0
H2301 H 0.80102 0.71908 0.09894 0.0
H2302 H 0.77844 0.72133 0.11632 0.0
H2303 H 0.79506 0.6896 0.11139 0.0
C2304 C 0.49274 0.57739 0.38177 0.0
C2305 C 0.48817 0.5992 0.39259 0.0
C2306 C 0.51441 0.57801 0.37045 0.0
C2307 C 0.53139 0.60124 0.36975 0.0
C2308 C 0.52707 0.62308 0.38083 0.0
C2309 C 0.5057 0.62168 0.39218 0.0
C2310 C 0.51877 0.55414 0.35905 0.0
C2311 C 0.54451 0.64841 0.38039 0.0
C2312 C 0.60073 0.60915 0.35046 0.0
C2313 C 0.59422 0.62504 0.33663 0.0
C2314 C 0.58015 0.59849 0.36058 0.0
C2315 C 0.55259 0.60412 0.35682 0.0
C2316 C 0.54595 0.61749 0.34191 0.0
C2317 C 0.56686 0.62761 0.33193 0.0
C2318 C 0.588 0.58354 0.37611 0.0
C2319 C 0.51684 0.6239 0.33739 0.0
H2320 H 0.4794 0.55984 0.38214 0.0
H2321 H 0.50231 0.63865 0.40046 0.0
H2322 H 0.51309 0.55993 0.34629 0.0
H2323 H 0.54054 0.54821 0.35887 0.0
H2324 H 0.5064 0.53622 0.36272 0.0
H2325 H 0.53869 0.66335 0.39005 0.0
H2326 H 0.56621 0.64299 0.38216 0.0
H2327 H 0.54266 0.65839 0.36817 0.0
H2328 H 0.62182 0.60664 0.35405 0.0
H2329 H 0.56159 0.63934 0.32107 0.0
H2330 H 0.57397 0.5663 0.37847 0.0
H2331 H 0.5866 0.59762 0.38678 0.0
H2332 H 0.60916 0.57568 0.37546 0.0
H2333 H 0.50356 0.60598 0.33936 0.0
H2334 H 0.51488 0.63056 0.32435 0.0
H2335 H 0.50925 0.6405 0.34544 0.0
C2336 C 0.6339 0.26682 0.64099 0.0
C2337 C 0.65696 0.25028 0.6426 0.0
C2338 C 0.63292 0.28769 0.62933 0.0
C2339 C 0.6558 0.29261 0.61914 0.0
C2340 C 0.67961 0.27672 0.6211 0.0
C2341 C 0.67978 0.25542 0.63269 0.0
C2342 C 0.60693 0.30391 0.62758 0.0
C2343 C 0.70461 0.28166 0.61074 0.0
C2344 C 0.63004 0.32503 0.5804 0.0
C2345 C 0.62943 0.35246 0.5852 0.0
C2346 C 0.64165 0.30522 0.59059 0.0
C2347 C 0.6533 0.31313 0.6058 0.0
C2348 C 0.65634 0.3411 0.60951 0.0
C2349 C 0.64415 0.36055 0.5992 0.0
C2350 C 0.63825 0.27563 0.58604 0.0
C2351 C 0.66983 0.35035 0.62525 0.0
H2352 H 0.61615 0.26299 0.64857 0.0
H2353 H 0.69776 0.24283 0.63397 0.0
H2354 H 0.6111 0.32586 0.62946 0.0
H2355 H 0.59861 0.30143 0.61494 0.0
H2356 H 0.59108 0.29754 0.63655 0.0
H2357 H 0.72314 0.27324 0.61669 0.0
H2358 H 0.7021 0.27152 0.59862 0.0
H2359 H 0.70773 0.30369 0.60845 0.0
H2360 H 0.61939 0.31862 0.56935 0.0
H2361 H 0.6444 0.38178 0.60282 0.0
H2362 H 0.62186 0.26658 0.5937 0.0
H2363 H 0.65718 0.26411 0.58852 0.0
H2364 H 0.63271 0.273 0.57284 0.0
H2365 H 0.65532 0.34816 0.63565 0.0
H2366 H 0.67617 0.372 0.62454 0.0
H2367 H 0.68791 0.33764 0.62806 0.0
C2368 C 0.98701 0.41981 0.38326 0.0
C2369 C 0.98075 0.39809 0.39385 0.0
C2370 C 0.00942 0.41841 0.37251 0.0
C2371 C 0.02561 0.3946 0.37223 0.0
C2372 C 0.0195 0.37278 0.383 0.0
C2373 C 0.9973 0.37487 0.39371 0.0
C2374 C 0.01559 0.44218 0.36135 0.0
C2375 C 0.03608 0.34688 0.383 0.0
C2376 C 0.06472 0.36832 0.33564 0.0
C2377 C 0.0916 0.37063 0.34134 0.0
C2378 C 0.04292 0.37839 0.34493 0.0
C2379 C 0.04814 0.39136 0.36017 0.0
C2380 C 0.07532 0.39655 0.36504 0.0
C2381 C 0.09681 0.38604 0.35556 0.0
C2382 C 0.01426 0.37248 0.33923 0.0
C2383 C 0.08172 0.41089 0.38103 0.0
H2384 H 0.97443 0.43791 0.38338 0.0
H2385 H 0.99263 0.35795 0.40181 0.0
H2386 H 0.03721 0.44829 0.36265 0.0
H2387 H 0.01245 0.43616 0.34831 0.0
H2388 H 0.0025 0.46004 0.36405 0.0
H2389 H 0.02884 0.33201 0.39233 0.0
H2390 H 0.03508 0.33715 0.37066 0.0
H2391 H 0.05774 0.35156 0.38555 0.0
H2392 H 0.06047 0.35691 0.32449 0.0
H2393 H 0.11751 0.38829 0.35995 0.0
H2394 H 0.00102 0.39051 0.3409 0.0
H2395 H 0.00565 0.35575 0.34679 0.0
H2396 H 0.01358 0.36623 0.32607 0.0
H2397 H 0.06788 0.42842 0.38297 0.0
H2398 H 0.10309 0.41823 0.38138 0.0
H2399 H 0.0787 0.39658 0.39145 0.0
C2400 C 0.36566 0.36483 0.11683 0.0
C2401 C 0.37669 0.35685 0.10162 0.0
C2402 C 0.35531 0.34537 0.12789 0.0
C2403 C 0.35641 0.31744 0.12366 0.0
C2404 C 0.36546 0.30959 0.10781 0.0
C2405 C 0.3752 0.3294 0.09695 0.0
C2406 C 0.34497 0.35456 0.1445 0.0
C2407 C 0.36708 0.28003 0.10277 0.0
C2408 C 0.37106 0.26343 0.15558 0.0
C2409 C 0.34652 0.24893 0.15584 0.0
C2410 C 0.37404 0.28672 0.14581 0.0
C2411 C 0.35176 0.29606 0.13629 0.0
C2412 C 0.32639 0.28259 0.13735 0.0
C2413 C 0.32414 0.25894 0.14697 0.0
C2414 C 0.40158 0.30029 0.14488 0.0
C2415 C 0.30199 0.29237 0.12774 0.0
H2416 H 0.36644 0.38602 0.12049 0.0
H2417 H 0.38319 0.32302 0.08512 0.0
H2418 H 0.32644 0.34307 0.14804 0.0
H2419 H 0.36069 0.35054 0.15401 0.0
H2420 H 0.34026 0.37666 0.14462 0.0
H2421 H 0.37263 0.27751 0.08957 0.0
H2422 H 0.38261 0.26952 0.11039 0.0
H2423 H 0.34736 0.26971 0.10495 0.0
H2424 H 0.38843 0.25588 0.16244 0.0
H2425 H 0.30498 0.24804 0.14732 0.0
H2426 H 0.39966 0.32242 0.14723 0.0
H2427 H 0.41009 0.29776 0.1323 0.0
H2428 H 0.41626 0.29165 0.15389 0.0
H2429 H 0.30004 0.31481 0.12862 0.0
H2430 H 0.28283 0.28288 0.13217 0.0
H2431 H 0.30459 0.28719 0.11452 0.0
C2432 C 0.3797 0.60495 0.85418 0.0
C2433 C 0.38933 0.61691 0.8396 0.0
C2434 C 0.39784 0.59302 0.86546 0.0
C2435 C 0.4261 0.59363 0.86212 0.0
C2436 C 0.43544 0.60271 0.84657 0.0
C2437 C 0.41687 0.61394 0.83542 0.0
C2438 C 0.38703 0.5822 0.88158 0.0
C2439 C 0.46539 0.60365 0.84244 0.0
C2440 C 0.47476 0.61266 0.8962 0.0
C2441 C 0.4903 0.58893 0.89785 0.0
C2442 C 0.45298 0.61392 0.88514 0.0
C2443 C 0.44607 0.59063 0.87575 0.0
C2444 C 0.46045 0.56601 0.87817 0.0
C2445 C 0.48276 0.56556 0.88902 0.0
C2446 C 0.43846 0.64076 0.88282 0.0
C2447 C 0.45313 0.54048 0.86884 0.0
H2448 H 0.35836 0.60661 0.85738 0.0
H2449 H 0.42445 0.62249 0.82398 0.0
H2450 H 0.39844 0.56382 0.88548 0.0
H2451 H 0.38958 0.59785 0.89131 0.0
H2452 H 0.36506 0.5771 0.8807 0.0
H2453 H 0.46902 0.60826 0.8292 0.0
H2454 H 0.47538 0.61966 0.84996 0.0
H2455 H 0.4753 0.58403 0.84544 0.0
H2456 H 0.48043 0.6308 0.90299 0.0
H2457 H 0.49449 0.54704 0.89041 0.0
H2458 H 0.41628 0.63816 0.8847 0.0
H2459 H 0.44154 0.64814 0.87002 0.0
H2460 H 0.44583 0.65667 0.89147 0.0
H2461 H 0.43081 0.53882 0.86704 0.0
H2462 H 0.46047 0.52201 0.87535 0.0
H2463 H 0.46279 0.54098 0.85649 0.0
C2464 C 0.13105 0.72696 0.6471 0.0
C2465 C 0.15401 0.74382 0.64742 0.0
C2466 C 0.12954 0.70487 0.63626 0.0
C2467 C 0.15183 0.69908 0.62576 0.0
C2468 C 0.1759 0.71475 0.62694 0.0
C2469 C 0.17656 0.73728 0.63759 0.0
C2470 C 0.1033 0.68891 0.63527 0.0
C2471 C 0.20045 0.70861 0.61641 0.0
C2472 C 0.13965 0.6322 0.60408 0.0
C2473 C 0.126 0.64123 0.5899 0.0
C2474 C 0.15101 0.65091 0.61523 0.0
C2475 C 0.14808 0.67912 0.61222 0.0
C2476 C 0.13685 0.68815 0.59712 0.0
C2477 C 0.12629 0.66906 0.58605 0.0
C2478 C 0.16403 0.64053 0.63086 0.0
C2479 C 0.13327 0.71805 0.59339 0.0
H2480 H 0.11357 0.73187 0.65469 0.0
H2481 H 0.19453 0.75004 0.63799 0.0
H2482 H 0.09389 0.69183 0.62295 0.0
H2483 H 0.10737 0.66687 0.63677 0.0
H2484 H 0.08839 0.69524 0.64482 0.0
H2485 H 0.2192 0.71787 0.6216 0.0
H2486 H 0.20356 0.68635 0.61517 0.0
H2487 H 0.1973 0.71702 0.60386 0.0
H2488 H 0.14002 0.6107 0.60702 0.0
H2489 H 0.1163 0.67627 0.57497 0.0
H2490 H 0.14919 0.64183 0.64113 0.0
H2491 H 0.18195 0.65306 0.63425 0.0
H2492 H 0.17049 0.61897 0.6296 0.0
H2493 H 0.11772 0.72674 0.6018 0.0
H2494 H 0.12662 0.72165 0.58047 0.0
H2495 H 0.15251 0.72925 0.59552 0.0
C2496 C 0.07573 0.61447 0.16934 0.0
C2497 C 0.10257 0.61624 0.16353 0.0
C2498 C 0.05517 0.60312 0.15957 0.0
C2499 C 0.06175 0.59309 0.14371 0.0
C2500 C 0.08936 0.59101 0.13892 0.0
C2501 C 0.10956 0.60276 0.14889 0.0
C2502 C 0.02605 0.60532 0.16532 0.0
C2503 C 0.09727 0.57941 0.12237 0.0
C2504 C 0.0033 0.56808 0.11679 0.0
C2505 C 0.99724 0.59174 0.10783 0.0
C2506 C 0.02484 0.56771 0.12823 0.0
C2507 C 0.04007 0.59174 0.13098 0.0
C2508 C 0.03396 0.6156 0.12193 0.0
C2509 C 0.01281 0.61522 0.11043 0.0
C2510 C 0.03092 0.5418 0.13749 0.0
C2511 C 0.04948 0.64183 0.12454 0.0
H2512 H 0.07025 0.62413 0.1809 0.0
H2513 H 0.13035 0.60345 0.14446 0.0
H2514 H 0.01615 0.62272 0.15899 0.0
H2515 H 0.01445 0.5867 0.16215 0.0
H2516 H 0.02472 0.60872 0.17884 0.0
H2517 H 0.11907 0.5735 0.12207 0.0
H2518 H 0.08464 0.5614 0.1193 0.0
H2519 H 0.0938 0.59497 0.11268 0.0
H2520 H 0.99141 0.54981 0.11477 0.0
H2521 H 0.0082 0.63363 0.10362 0.0
H2522 H 0.02231 0.54319 0.1501 0.0
H2523 H 0.05317 0.5386 0.13872 0.0
H2524 H 0.02184 0.52378 0.13132 0.0
H2525 H 0.04758 0.64846 0.13757 0.0
H2526 H 0.04206 0.65853 0.11649 0.0
H2527 H 0.07141 0.63862 0.12199 0.0
C2528 C 0.14409 0.3564 0.88946 0.0
C2529 C 0.13316 0.35169 0.90517 0.0
C2530 C 0.15444 0.33477 0.88003 0.0
C2531 C 0.15364 0.30801 0.8865 0.0
C2532 C 0.14594 0.30386 0.90311 0.0
C2533 C 0.1359 0.3258 0.91228 0.0
C2534 C 0.16322 0.34015 0.8625 0.0
C2535 C 0.14493 0.27575 0.91059 0.0
C2536 C 0.13008 0.25347 0.85692 0.0
C2537 C 0.15402 0.23883 0.85392 0.0
C2538 C 0.12991 0.27596 0.86746 0.0
C2539 C 0.15441 0.28434 0.87512 0.0
C2540 C 0.17873 0.26967 0.87221 0.0
C2541 C 0.17822 0.24689 0.86169 0.0
C2542 C 0.10335 0.2907 0.87041 0.0
C2543 C 0.20525 0.27828 0.87999 0.0
H2544 H 0.14246 0.37643 0.88396 0.0
H2545 H 0.12813 0.32211 0.92459 0.0
H2546 H 0.18099 0.32741 0.85914 0.0
H2547 H 0.14633 0.33485 0.854 0.0
H2548 H 0.1685 0.36189 0.86057 0.0
H2549 H 0.14378 0.27653 0.92427 0.0
H2550 H 0.12662 0.26496 0.90595 0.0
H2551 H 0.16298 0.26362 0.90698 0.0
H2552 H 0.11126 0.24726 0.85105 0.0
H2553 H 0.19683 0.23577 0.85928 0.0
H2554 H 0.1052 0.31225 0.86652 0.0
H2555 H 0.09839 0.29058 0.88376 0.0
H2556 H 0.08611 0.28137 0.86359 0.0
H2557 H 0.21098 0.29877 0.87544 0.0
H2558 H 0.22205 0.26392 0.87717 0.0
H2559 H 0.203 0.27981 0.89357 0.0
C2560 C 0.49569 0.42118 0.60523 0.0
C2561 C 0.50422 0.39849 0.59607 0.0
C2562 C 0.47251 0.41985 0.61532 0.0
C2563 C 0.45797 0.39509 0.61653 0.0
C2564 C 0.46622 0.37232 0.60707 0.0
C2565 C 0.48908 0.37438 0.59685 0.0
C2566 C 0.46393 0.4447 0.62494 0.0
C2567 C 0.45148 0.3454 0.60817 0.0
C2568 C 0.42063 0.37284 0.65476 0.0
C2569 C 0.39362 0.37232 0.64913 0.0
C2570 C 0.4417 0.38224 0.64467 0.0
C2571 C 0.43557 0.39186 0.62866 0.0
C2572 C 0.40809 0.39428 0.62361 0.0
C2573 C 0.38735 0.38433 0.6339 0.0
C2574 C 0.47071 0.37927 0.65056 0.0
C2575 C 0.40073 0.40523 0.60681 0.0
H2576 H 0.50712 0.43999 0.6045 0.0
H2577 H 0.49555 0.3568 0.5898 0.0
H2578 H 0.44183 0.44842 0.62336 0.0
H2579 H 0.46763 0.44132 0.63827 0.0
H2580 H 0.47525 0.46318 0.62106 0.0
H2581 H 0.46004 0.32993 0.59964 0.0
H2582 H 0.45279 0.33742 0.62095 0.0
H2583 H 0.42962 0.34815 0.60524 0.0
H2584 H 0.42565 0.3641 0.66665 0.0
H2585 H 0.36652 0.38433 0.62953 0.0
H2586 H 0.48245 0.3981 0.64815 0.0
H2587 H 0.48071 0.36252 0.64366 0.0
H2588 H 0.47187 0.37457 0.66394 0.0
H2589 H 0.41331 0.42326 0.60372 0.0
H2590 H 0.3789 0.41094 0.60608 0.0
H2591 H 0.40478 0.38944 0.59735 0.0
C2592 C 0.37271 0.74966 0.35718 0.0
C2593 C 0.34991 0.76658 0.35572 0.0
C2594 C 0.3729 0.72776 0.36816 0.0
C2595 C 0.34955 0.72235 0.37785 0.0
C2596 C 0.32629 0.73912 0.37636 0.0
C2597 C 0.3268 0.76124 0.36536 0.0
C2598 C 0.39831 0.71057 0.3695 0.0
C2599 C 0.30096 0.73368 0.38634 0.0
C2600 C 0.35562 0.65077 0.39379 0.0
C2601 C 0.37013 0.65543 0.40841 0.0
C2602 C 0.34566 0.67264 0.38443 0.0
C2603 C 0.3505 0.69959 0.38986 0.0
C2604 C 0.36198 0.70415 0.40562 0.0
C2605 C 0.37155 0.68196 0.41475 0.0
C2606 C 0.33284 0.66692 0.36788 0.0
C2607 C 0.36736 0.73252 0.41197 0.0
H2608 H 0.39068 0.75371 0.34984 0.0
H2609 H 0.30903 0.77413 0.36418 0.0
H2610 H 0.40618 0.71115 0.38232 0.0
H2611 H 0.39354 0.68907 0.36654 0.0
H2612 H 0.4147 0.71757 0.36107 0.0
H2613 H 0.28436 0.74823 0.38344 0.0
H2614 H 0.29358 0.71272 0.38394 0.0
H2615 H 0.30563 0.73504 0.39969 0.0
H2616 H 0.35402 0.6303 0.38891 0.0
H2617 H 0.38216 0.68572 0.42626 0.0
H2618 H 0.34833 0.66962 0.35806 0.0
H2619 H 0.31595 0.68127 0.36534 0.0
H2620 H 0.32497 0.64577 0.36713 0.0
H2621 H 0.3855 0.74096 0.40563 0.0
H2622 H 0.37133 0.73265 0.42546 0.0
H2623 H 0.34999 0.74621 0.40932 0.0
C2624 C 0.13185 0.02946 0.12814 0.0
C2625 C 0.138 0.01208 0.1149 0.0
C2626 C 0.15078 0.04845 0.13398 0.0
C2627 C 0.17683 0.04981 0.12666 0.0
C2628 C 0.18348 0.03206 0.11352 0.0
C2629 C 0.16381 0.0138 0.10758 0.0
C2630 C 0.14264 0.06753 0.14773 0.0
C2631 C 0.21123 0.03268 0.10556 0.0
C2632 C 0.21554 0.11624 0.13033 0.0
C2633 C 0.23272 0.11122 0.14384 0.0
C2634 C 0.19737 0.09641 0.12458 0.0
C2635 C 0.19664 0.07065 0.13231 0.0
C2636 C 0.21401 0.06524 0.14582 0.0
C2637 C 0.2314 0.08577 0.15165 0.0
C2638 C 0.17861 0.10324 0.11041 0.0
C2639 C 0.21402 0.03786 0.15425 0.0
H2640 H 0.11197 0.02849 0.13388 0.0
H2641 H 0.16863 0.00163 0.09691 0.0
H2642 H 0.15675 0.06533 0.15832 0.0
H2643 H 0.14409 0.0889 0.14342 0.0
H2644 H 0.12157 0.06378 0.15213 0.0
H2645 H 0.214 0.01595 0.0965 0.0
H2646 H 0.21421 0.05235 0.0991 0.0
H2647 H 0.22733 0.03107 0.1151 0.0
H2648 H 0.21617 0.13582 0.12422 0.0
H2649 H 0.24331 0.08183 0.16254 0.0
H2650 H 0.15712 0.10094 0.11436 0.0
H2651 H 0.18198 0.08891 0.10005 0.0
H2652 H 0.18162 0.12431 0.10582 0.0
H2653 H 0.19412 0.03436 0.16034 0.0
H2654 H 0.2303 0.03616 0.1637 0.0
H2655 H 0.21683 0.02143 0.14502 0.0
C2656 C 0.21939 0.88939 0.36934 0.0
C2657 C 0.2383 0.89714 0.35729 0.0
C2658 C 0.20044 0.90798 0.37557 0.0
C2659 C 0.2005 0.93504 0.36965 0.0
C2660 C 0.21968 0.94311 0.3576 0.0
C2661 C 0.23815 0.92392 0.35137 0.0
C2662 C 0.18 0.89849 0.38824 0.0
C2663 C 0.22038 0.97186 0.35107 0.0
C2664 C 0.13427 0.97373 0.3738 0.0
C2665 C 0.13877 0.98874 0.38823 0.0
C2666 C 0.15443 0.95657 0.36742 0.0
C2667 C 0.17971 0.9545 0.37567 0.0
C2668 C 0.18448 0.96982 0.39017 0.0
C2669 C 0.16375 0.98646 0.39642 0.0
C2670 C 0.14843 0.94017 0.35209 0.0
C2671 C 0.21124 0.96814 0.39926 0.0
H2672 H 0.21932 0.86864 0.37386 0.0
H2673 H 0.25195 0.92975 0.34158 0.0
H2674 H 0.18153 0.91111 0.39954 0.0
H2675 H 0.15907 0.90099 0.38333 0.0
H2676 H 0.18295 0.87683 0.3917 0.0
H2677 H 0.23768 0.9753 0.34252 0.0
H2678 H 0.20117 0.97637 0.34444 0.0
H2679 H 0.22196 0.9865 0.36145 0.0
H2680 H 0.11484 0.97527 0.36754 0.0
H2681 H 0.16688 0.99713 0.40797 0.0
H2682 H 0.1494 0.91814 0.35499 0.0
H2683 H 0.16399 0.94427 0.3425 0.0
H2684 H 0.12804 0.94476 0.34688 0.0
H2685 H 0.214 0.94737 0.40431 0.0
H2686 H 0.21244 0.98295 0.40958 0.0
H2687 H 0.22835 0.97201 0.39065 0.0
C2688 C 0.27629 0.87897 0.62039 0.0
C2689 C 0.2575 0.88518 0.63286 0.0
C2690 C 0.29527 0.89823 0.61494 0.0
C2691 C 0.29517 0.92459 0.62191 0.0
C2692 C 0.27585 0.93131 0.63417 0.0
C2693 C 0.25763 0.91136 0.63976 0.0
C2694 C 0.31605 0.89004 0.60214 0.0
C2695 C 0.2749 0.95937 0.64173 0.0
C2696 C 0.3612 0.96427 0.62147 0.0
C2697 C 0.35786 0.98118 0.60765 0.0
C2698 C 0.34098 0.9458 0.62621 0.0
C2699 C 0.31646 0.94451 0.61713 0.0
C2700 C 0.31272 0.96159 0.60328 0.0
C2701 C 0.33369 0.9793 0.5985 0.0
C2702 C 0.34605 0.92739 0.64081 0.0
C2703 C 0.28665 0.96099 0.59344 0.0
H2704 H 0.2765 0.85877 0.61503 0.0
H2705 H 0.24429 0.91622 0.64991 0.0
H2706 H 0.31521 0.90405 0.59144 0.0
H2707 H 0.33679 0.89156 0.60746 0.0
H2708 H 0.3129 0.86892 0.59764 0.0
H2709 H 0.25685 0.9622 0.64979 0.0
H2710 H 0.29347 0.96287 0.64921 0.0
H2711 H 0.27451 0.97509 0.63191 0.0
H2712 H 0.37979 0.96534 0.62862 0.0
H2713 H 0.33115 0.99103 0.58738 0.0
H2714 H 0.34441 0.9058 0.63694 0.0
H2715 H 0.3304 0.93089 0.65042 0.0
H2716 H 0.36643 0.93065 0.64639 0.0
H2717 H 0.28426 0.94088 0.58742 0.0
H2718 H 0.28612 0.97698 0.58377 0.0
H2719 H 0.26894 0.96385 0.60175 0.0
C2720 C 0.28866 0.09834 0.84227 0.0
C2721 C 0.26312 0.10262 0.84939 0.0
C2722 C 0.3065 0.07881 0.84869 0.0
C2723 C 0.29888 0.06391 0.86291 0.0
C2724 C 0.27284 0.06787 0.86998 0.0
C2725 C 0.25509 0.08706 0.863 0.0
C2726 C 0.33383 0.07472 0.84056 0.0
C2727 C 0.26426 0.05286 0.88536 0.0
C2728 C 0.3407 0.0014 0.87362 0.0
C2729 C 0.36014 0.01251 0.88429 0.0
C2730 C 0.32024 0.01777 0.86674 0.0
C2731 C 0.319 0.04569 0.87097 0.0
C2732 C 0.33809 0.0567 0.88223 0.0
C2733 C 0.35873 0.04004 0.88855 0.0
C2734 C 0.30068 0.00548 0.85447 0.0
C2735 C 0.33707 0.08623 0.88734 0.0
H2736 H 0.29475 0.11048 0.83173 0.0
H2737 H 0.23545 0.09079 0.86863 0.0
H2738 H 0.35021 0.08189 0.84891 0.0
H2739 H 0.33741 0.05278 0.83819 0.0
H2740 H 0.33551 0.08592 0.8287 0.0
H2741 H 0.2427 0.05689 0.88866 0.0
H2742 H 0.26701 0.03063 0.88373 0.0
H2743 H 0.27735 0.05918 0.89583 0.0
H2744 H 0.34215 0.98016 0.87014 0.0
H2745 H 0.37381 0.04851 0.89685 0.0
H2746 H 0.30373 0.01506 0.84222 0.0
H2747 H 0.27938 0.00957 0.85822 0.0
H2748 H 0.30346 0.98316 0.85318 0.0
H2749 H 0.34157 0.09938 0.87657 0.0
H2750 H 0.35191 0.09098 0.89727 0.0
H2751 H 0.31636 0.09154 0.89173 0.0
C2752 C 0.83627 0.98374 0.89527 0.0
C2753 C 0.86371 0.98118 0.89084 0.0
C2754 C 0.81661 0.96577 0.88901 0.0
C2755 C 0.82476 0.94427 0.8785 0.0
C2756 C 0.85245 0.94152 0.87405 0.0
C2757 C 0.87155 0.96005 0.88024 0.0
C2758 C 0.78722 0.96942 0.89393 0.0
C2759 C 0.86203 0.91859 0.86309 0.0
C2760 C 0.78151 0.8805 0.87671 0.0
C2761 C 0.76835 0.88333 0.86145 0.0
C2762 C 0.79966 0.90033 0.88248 0.0
C2763 C 0.80465 0.92374 0.87281 0.0
C2764 C 0.79134 0.9269 0.85745 0.0
C2765 C 0.77366 0.90646 0.85184 0.0
C2766 C 0.81383 0.89597 0.8988 0.0
C2767 C 0.7961 0.95168 0.84684 0.0
H2768 H 0.83021 -0.0007 0.90398 0.0
H2769 H 0.89278 0.95786 0.87688 0.0
H2770 H 0.7741 0.96999 0.8828 0.0
H2771 H 0.78052 0.95186 0.9015 0.0
H2772 H 0.78392 0.98836 0.90113 0.0
H2773 H 0.88418 0.91973 0.86048 0.0
H2774 H 0.85764 0.89877 0.86908 0.0
H2775 H 0.85085 0.91892 0.85121 0.0
H2776 H 0.77764 0.86266 0.88421 0.0
H2777 H 0.76466 0.90842 0.83975 0.0
H2778 H 0.80947 0.91317 0.90725 0.0
H2779 H 0.83617 0.89539 0.89691 0.0
H2780 H 0.80746 0.87677 0.9049 0.0
H2781 H 0.79241 0.97046 0.8541 0.0
H2782 H 0.78275 0.95197 0.83578 0.0
H2783 H 0.81759 0.9522 0.8427 0.0
C2784 C 0.83076 0.02144 0.59884 0.0
C2785 C 0.85401 0.01506 0.60805 0.0
C2786 C 0.81135 0.03983 0.60492 0.0
C2787 C 0.8158 0.05267 0.62032 0.0
C2788 C 0.83944 0.04652 0.62955 0.0
C2789 C 0.85823 0.02775 0.62331 0.0
C2790 C 0.78634 0.04585 0.59475 0.0
C2791 C 0.84513 0.06013 0.6459 0.0
C2792 C 0.78291 0.12084 0.62906 0.0
C2793 C 0.762 0.11359 0.63996 0.0
C2794 C 0.80021 0.10113 0.62231 0.0
C2795 C 0.79643 0.07346 0.62651 0.0
C2796 C 0.77511 0.06593 0.63732 0.0
C2797 C 0.75838 0.08616 0.64411 0.0
C2798 C 0.82298 0.11002 0.61102 0.0
C2799 C 0.77042 0.03659 0.64202 0.0
H2800 H 0.82804 0.01259 0.58672 0.0
H2801 H 0.87636 0.02303 0.63036 0.0
H2802 H 0.76775 0.04271 0.60228 0.0
H2803 H 0.78651 0.06747 0.59084 0.0
H2804 H 0.78504 0.03284 0.58358 0.0
H2805 H 0.86427 0.05276 0.65165 0.0
H2806 H 0.84669 0.08245 0.64416 0.0
H2807 H 0.82811 0.05639 0.65458 0.0
H2808 H 0.78591 0.14206 0.62592 0.0
H2809 H 0.74298 0.08054 0.65304 0.0
H2810 H 0.82164 0.0991 0.59908 0.0
H2811 H 0.84288 0.10474 0.61663 0.0
H2812 H 0.82261 0.13225 0.60858 0.0
H2813 H 0.76877 0.02382 0.63078 0.0
H2814 H 0.75169 0.03391 0.64951 0.0
H2815 H 0.78801 0.02896 0.64922 0.0
C2816 C 0.66796 0.99606 0.3807 0.0
C2817 C 0.65189 0.00663 0.39344 0.0
C2818 C 0.68762 0.01229 0.3729 0.0
C2819 C 0.69131 0.03952 0.37814 0.0
C2820 C 0.67601 0.04975 0.39157 0.0
C2821 C 0.65623 0.03326 0.39892 0.0
C2822 C 0.70327 0.00083 0.35847 0.0
C2823 C 0.67967 0.07853 0.3977 0.0
C2824 C 0.75223 0.08204 0.36549 0.0
C2825 C 0.74052 0.09914 0.35364 0.0
C2826 C 0.73677 0.06165 0.37317 0.0
C2827 C 0.70914 0.05826 0.36871 0.0
C2828 C 0.69768 0.07467 0.35615 0.0
C2829 C 0.71345 0.09515 0.34891 0.0
C2830 C 0.74954 0.04482 0.38667 0.0
C2831 C 0.6684 0.07139 0.35085 0.0
H2832 H 0.6642 0.97561 0.37627 0.0
H2833 H 0.64375 0.04134 0.4088 0.0
H2834 H 0.6965 0.01095 0.34695 0.0
H2835 H 0.72533 0.00495 0.35987 0.0
H2836 H 0.70021 0.97855 0.3571 0.0
H2837 H 0.66821 0.0824 0.40928 0.0
H2838 H 0.70151 0.08285 0.39993 0.0
H2839 H 0.67246 0.09305 0.38818 0.0
H2840 H 0.77304 0.08551 0.36937 0.0
H2841 H 0.70448 0.10842 0.33972 0.0
H2842 H 0.74538 0.02289 0.38469 0.0
H2843 H 0.74043 0.0505 0.39871 0.0
H2844 H 0.7719 0.04789 0.38742 0.0
H2845 H 0.66397 0.04976 0.34804 0.0
H2846 H 0.66348 0.08384 0.33981 0.0
H2847 H 0.65474 0.07765 0.36105 0.0
C2848 C 0.71163 0.88311 0.12202 0.0
C2849 C 0.72863 0.88786 0.13565 0.0
C2850 C 0.6931 0.90279 0.11658 0.0
C2851 C 0.69176 0.92814 0.12477 0.0
C2852 C 0.70895 0.9333 0.13842 0.0
C2853 C 0.72681 0.9129 0.14389 0.0
C2854 C 0.67463 0.89625 0.10222 0.0
C2855 C 0.70827 0.96025 0.14734 0.0
C2856 C 0.65821 0.985 0.1005 0.0
C2857 C 0.63213 0.98571 0.10751 0.0
C2858 C 0.67821 0.96716 0.10647 0.0
C2859 C 0.67166 0.94883 0.11932 0.0
C2860 C 0.64534 0.94921 0.12635 0.0
C2861 C 0.62601 0.96776 0.12045 0.0
C2862 C 0.70618 0.96753 0.09879 0.0
C2863 C 0.63734 0.92952 0.13981 0.0
H2864 H 0.71269 0.86383 0.11557 0.0
H2865 H 0.7387 0.91657 0.15485 0.0
H2866 H 0.65306 0.89795 0.1061 0.0
H2867 H 0.67786 0.9111 0.09211 0.0
H2868 H 0.67809 0.87546 0.09728 0.0
H2869 H 0.7243 0.96177 0.15696 0.0
H2870 H 0.711 0.97716 0.13843 0.0
H2871 H 0.68817 0.96309 0.1533 0.0
H2872 H 0.66297 0.99768 0.09003 0.0
H2873 H 0.60589 0.968 0.12592 0.0
H2874 H 0.70978 0.94821 0.09207 0.0
H2875 H 0.72198 0.96913 0.10852 0.0
H2876 H 0.70879 0.98468 0.09001 0.0
H2877 H 0.63912 0.90834 0.13519 0.0
H2878 H 0.61618 0.93281 0.14417 0.0
H2879 H 0.65132 0.93151 0.15047 0.0
C2880 C 0.66342 0.51513 0.59673 0.0
C2881 C 0.63834 0.51183 0.60473 0.0
C2882 C 0.68319 0.53306 0.60293 0.0
C2883 C 0.67737 0.54872 0.61715 0.0
C2884 C 0.65206 0.54565 0.62521 0.0
C2885 C 0.63298 0.52716 0.61898 0.0
C2886 C 0.71009 0.53564 0.59409 0.0
C2887 C 0.64485 0.56237 0.64023 0.0
C2888 C 0.73278 0.58301 0.64234 0.0
C2889 C 0.73195 0.60969 0.63621 0.0
C2890 C 0.71591 0.56265 0.63578 0.0
C2891 C 0.69711 0.56933 0.6232 0.0
C2892 C 0.69603 0.59621 0.61703 0.0
C2893 C 0.71354 0.61597 0.62354 0.0
C2894 C 0.71777 0.53412 0.64257 0.0
C2895 C 0.67586 0.6043 0.60385 0.0
H2896 H 0.6675 0.50441 0.58537 0.0
H2897 H 0.61366 0.52486 0.62526 0.0
H2898 H 0.712 0.55627 0.5887 0.0
H2899 H 0.72712 0.53303 0.60294 0.0
H2900 H 0.71234 0.52043 0.58405 0.0
H2901 H 0.62441 0.55728 0.64518 0.0
H2902 H 0.6601 0.5591 0.65011 0.0
H2903 H 0.64523 0.58432 0.63706 0.0
H2904 H 0.74591 0.57804 0.65257 0.0
H2905 H 0.71264 0.63653 0.61874 0.0
H2906 H 0.72009 0.51927 0.63236 0.0
H2907 H 0.69872 0.52896 0.64919 0.0
H2908 H 0.73511 0.53166 0.65123 0.0
H2909 H 0.67848 0.59134 0.59277 0.0
H2910 H 0.67805 0.62593 0.60013 0.0
H2911 H 0.65483 0.60107 0.60842 0.0
C2912 C 0.74303 0.41398 0.87263 0.0
C2913 C 0.73422 0.39383 0.86167 0.0
C2914 C 0.72487 0.43385 0.87843 0.0
C2915 C 0.69762 0.43379 0.87274 0.0
C2916 C 0.68919 0.4143 0.86093 0.0
C2917 C 0.70751 0.39423 0.85577 0.0
C2918 C 0.73441 0.45387 0.89131 0.0
C2919 C 0.66054 0.41402 0.85421 0.0
C2920 C 0.6396 0.45974 0.89908 0.0
C2921 C 0.63485 0.48534 0.89216 0.0
C2922 C 0.66093 0.44335 0.89339 0.0
C2923 C 0.67721 0.45247 0.88008 0.0
C2924 C 0.67263 0.47852 0.87317 0.0
C2925 C 0.65162 0.49484 0.87946 0.0
C2926 C 0.66559 0.41598 0.90136 0.0
C2927 C 0.68905 0.48861 0.85869 0.0
H2928 H 0.7637 0.41335 0.87728 0.0
H2929 H 0.70088 0.37859 0.84723 0.0
H2930 H 0.72915 0.47494 0.88763 0.0
H2931 H 0.72387 0.44968 0.90314 0.0
H2932 H 0.75671 0.45266 0.89341 0.0
H2933 H 0.65819 0.39955 0.84378 0.0
H2934 H 0.64614 0.40809 0.86411 0.0
H2935 H 0.65466 0.43464 0.84995 0.0
H2936 H 0.62658 0.45257 0.90896 0.0
H2937 H 0.64759 0.51458 0.87402 0.0
H2938 H 0.68731 0.41367 0.90482 0.0
H2939 H 0.66066 0.39955 0.89247 0.0
H2940 H 0.65291 0.41311 0.91257 0.0
H2941 H 0.71112 0.48709 0.86136 0.0
H2942 H 0.68416 0.51002 0.85547 0.0
H2943 H 0.68492 0.47561 0.84778 0.0
C2944 C 0.8451 0.49225 0.11607 0.0
C2945 C 0.86063 0.48373 0.10256 0.0
C2946 C 0.82544 0.47502 0.12303 0.0
C2947 C 0.82099 0.449 0.11605 0.0
C2948 C 0.83594 0.44083 0.10197 0.0
C2949 C 0.85594 0.45817 0.09555 0.0
C2950 C 0.81037 0.48416 0.13828 0.0
C2951 C 0.83133 0.4135 0.09393 0.0
C2952 C 0.79468 0.39038 0.14182 0.0
C2953 C 0.76722 0.38979 0.13736 0.0
C2954 C 0.81216 0.41033 0.13549 0.0
C2955 C 0.80201 0.42953 0.12402 0.0
C2956 C 0.77415 0.42911 0.11958 0.0
C2957 C 0.75698 0.40934 0.12646 0.0
C2958 C 0.84159 0.4105 0.14083 0.0
C2959 C 0.76277 0.44881 0.10708 0.0
H2960 H 0.84916 0.5119 0.12162 0.0
H2961 H 0.86805 0.4517 0.08509 0.0
H2962 H 0.7881 0.48218 0.13644 0.0
H2963 H 0.81595 0.47088 0.14882 0.0
H2964 H 0.81507 0.50557 0.14161 0.0
H2965 H 0.84282 0.41132 0.08221 0.0
H2966 H 0.83777 0.39706 0.10244 0.0
H2967 H 0.80937 0.4105 0.09134 0.0
H2968 H 0.80248 0.37519 0.15029 0.0
H2969 H 0.73578 0.4085 0.12282 0.0
H2970 H 0.84745 0.43109 0.14518 0.0
H2971 H 0.85483 0.40547 0.13018 0.0
H2972 H 0.84566 0.39565 0.15085 0.0
H2973 H 0.76734 0.47005 0.11077 0.0
H2974 H 0.74042 0.44663 0.10556 0.0
H2975 H 0.77262 0.44534 0.09494 0.0
C2976 C 0.77909 0.59765 0.34795 0.0
C2977 C 0.75264 0.60196 0.3537 0.0
C2978 C 0.79564 0.57758 0.35496 0.0
C2979 C 0.78568 0.56208 0.36838 0.0
C2980 C 0.75873 0.56604 0.37405 0.0
C2981 C 0.74236 0.58585 0.3665 0.0
C2982 C 0.82406 0.57354 0.34833 0.0
C2983 C 0.74765 0.55032 0.38856 0.0
C2984 C 0.82583 0.4988 0.37949 0.0
C2985 C 0.84395 0.50921 0.39122 0.0
C2986 C 0.80609 0.51558 0.37224 0.0
C2987 C 0.80427 0.54318 0.37712 0.0
C2988 C 0.82182 0.55337 0.38953 0.0
C2989 C 0.84177 0.53632 0.39624 0.0
C2990 C 0.78817 0.50419 0.35878 0.0
C2991 C 0.82012 0.58251 0.39532 0.0
H2992 H 0.7869 0.61019 0.33802 0.0
H2993 H 0.72199 0.58958 0.37108 0.0
H2994 H 0.83916 0.57993 0.35773 0.0
H2995 H 0.82772 0.55171 0.34567 0.0
H2996 H 0.82773 0.58543 0.33689 0.0
H2997 H 0.72571 0.55441 0.39067 0.0
H2998 H 0.75049 0.52816 0.38665 0.0
H2999 H 0.75908 0.55596 0.39986 0.0
H3000 H 0.82792 0.47789 0.37543 0.0
H3001 H 0.85586 0.54423 0.40535 0.0
H3002 H 0.79327 0.51412 0.34689 0.0
H3003 H 0.76648 0.50864 0.3614 0.0
H3004 H 0.79067 0.48186 0.35734 0.0
H3005 H 0.82646 0.59634 0.38521 0.0
H3006 H 0.83332 0.58642 0.40619 0.0
H3007 H 0.79885 0.58775 0.39859 0.0
C3008 C 0.25267 0.42056 0.35269 0.0
C3009 C 0.2517 0.39571 0.36116 0.0
C3010 C 0.26997 0.44159 0.35792 0.0
C3011 C 0.28733 0.4373 0.3716 0.0
C3012 C 0.28643 0.41229 0.3802 0.0
C3013 C 0.26853 0.3919 0.37493 0.0
C3014 C 0.27023 0.46812 0.34855 0.0
C3015 C 0.30499 0.40672 0.39467 0.0
C3016 C 0.35378 0.47591 0.37455 0.0
C3017 C 0.34832 0.49452 0.38723 0.0
C3018 C 0.33388 0.45763 0.36907 0.0
C3019 C 0.30773 0.45814 0.37634 0.0
C3020 C 0.30182 0.47732 0.38886 0.0
C3021 C 0.32234 0.49499 0.39436 0.0
C3022 C 0.34116 0.43713 0.35591 0.0
C3023 C 0.27406 0.47861 0.39678 0.0
H3024 H 0.2407 0.42343 0.34165 0.0
H3025 H 0.26799 0.37273 0.38153 0.0
H3026 H 0.26811 0.48548 0.3572 0.0
H3027 H 0.28997 0.47054 0.3421 0.0
H3028 H 0.25364 0.46923 0.33927 0.0
H3029 H 0.30122 0.38646 0.40029 0.0
H3030 H 0.32651 0.40764 0.3906 0.0
H3031 H 0.30224 0.42251 0.4043 0.0
H3032 H 0.37386 0.47534 0.36903 0.0
H3033 H 0.3182 0.50845 0.40461 0.0
H3034 H 0.32672 0.43858 0.34543 0.0
H3035 H 0.33949 0.41625 0.361 0.0
H3036 H 0.36214 0.44004 0.35113 0.0
H3037 H 0.25801 0.47963 0.38718 0.0
H3038 H 0.27191 0.49645 0.40509 0.0
H3039 H 0.27044 0.45987 0.40408 0.0
C3040 C 0.33983 0.50313 0.12435 0.0
C3041 C 0.35745 0.51359 0.11237 0.0
C3042 C 0.3193 0.51944 0.13121 0.0
C3043 C 0.31604 0.54651 0.12558 0.0
C3044 C 0.33316 0.55669 0.11295 0.0
C3045 C 0.35402 0.54022 0.10671 0.0
C3046 C 0.30196 0.50814 0.14495 0.0
C3047 C 0.32988 0.58519 0.10631 0.0
C3048 C 0.25125 0.58605 0.13427 0.0
C3049 C 0.26027 0.60422 0.14637 0.0
C3050 C 0.269 0.56656 0.1276 0.0
C3051 C 0.29604 0.56492 0.13356 0.0
C3052 C 0.30468 0.5824 0.14643 0.0
C3053 C 0.28679 0.60221 0.15247 0.0
C3054 C 0.25929 0.54879 0.1136 0.0
C3055 C 0.33309 0.58079 0.15344 0.0
H3056 H 0.34284 0.48257 0.12883 0.0
H3057 H 0.36769 0.54814 0.09738 0.0
H3058 H 0.30605 0.51959 0.15649 0.0
H3059 H 0.28007 0.51074 0.14205 0.0
H3060 H 0.306 0.48623 0.14723 0.0
H3061 H 0.34308 0.58902 0.09544 0.0
H3062 H 0.3084 0.58883 0.10271 0.0
H3063 H 0.33509 0.60017 0.11603 0.0
H3064 H 0.23076 0.58798 0.12946 0.0
H3065 H 0.29359 0.61636 0.16187 0.0
H3066 H 0.26355 0.52709 0.11627 0.0
H3067 H 0.27055 0.55412 0.10219 0.0
H3068 H 0.23717 0.5512 0.11122 0.0
H3069 H 0.33812 0.55948 0.15675 0.0
H3070 H 0.33559 0.59375 0.16457 0.0
H3071 H 0.34801 0.58749 0.14402 0.0
C3072 C 0.24573 0.59107 0.86309 0.0
C3073 C 0.23505 0.60884 0.85126 0.0
C3074 C 0.22947 0.57067 0.87011 0.0
C3075 C 0.2022 0.56768 0.86479 0.0
C3076 C 0.1917 0.58506 0.85239 0.0
C3077 C 0.20817 0.6058 0.84598 0.0
C3078 C 0.2411 0.5531 0.88365 0.0
C3079 C 0.16294 0.58207 0.84611 0.0
C3080 C 0.16343 0.5025 0.87371 0.0
C3081 C 0.14585 0.51115 0.88621 0.0
C3082 C 0.18235 0.52056 0.86675 0.0
C3083 C 0.18403 0.54753 0.87283 0.0
C3084 C 0.16712 0.55582 0.88604 0.0
C3085 C 0.14785 0.53763 0.89237 0.0
C3086 C 0.19953 0.51123 0.8524 0.0
C3087 C 0.16886 0.58414 0.8932 0.0
H3088 H 0.26648 0.59382 0.8673 0.0
H3089 H 0.20007 0.61962 0.83679 0.0
H3090 H 0.22983 0.55684 0.89529 0.0
H3091 H 0.23858 0.53127 0.88057 0.0
H3092 H 0.26303 0.55722 0.88583 0.0
H3093 H 0.15875 0.59558 0.83542 0.0
H3094 H 0.15907 0.56071 0.84236 0.0
H3095 H 0.14835 0.58707 0.85609 0.0
H3096 H 0.16151 0.48202 0.86887 0.0
H3097 H 0.13415 0.54413 0.90209 0.0
H3098 H 0.22136 0.51517 0.85488 0.0
H3099 H 0.19395 0.52298 0.84122 0.0
H3100 H 0.19682 0.48923 0.84974 0.0
H3101 H 0.19025 0.58918 0.8963 0.0
H3102 H 0.15623 0.58643 0.90448 0.0
H3103 H 0.16185 0.59919 0.88394 0.0
C3104 C 0.20817 0.39458 0.64245 0.0
C3105 C 0.23405 0.39189 0.63551 0.0
C3106 C 0.19031 0.41484 0.63697 0.0
C3107 C 0.19827 0.43207 0.62384 0.0
C3108 C 0.2247 0.42973 0.61702 0.0
C3109 C 0.2425 0.40981 0.62314 0.0
C3110 C 0.16261 0.41723 0.64489 0.0
C3111 C 0.23364 0.44724 0.60273 0.0
C3112 C 0.13898 0.45836 0.59866 0.0
C3113 C 0.13694 0.48515 0.60428 0.0
C3114 C 0.1597 0.44125 0.6044 0.0
C3115 C 0.17812 0.45099 0.61648 0.0
C3116 C 0.17617 0.47818 0.62211 0.0
C3117 C 0.15574 0.49512 0.61574 0.0
C3118 C 0.16157 0.41261 0.59775 0.0
C3119 C 0.1949 0.489 0.63533 0.0
H3120 H 0.20185 0.38063 0.65207 0.0
H3121 H 0.26252 0.40738 0.61774 0.0
H3122 H 0.15844 0.43868 0.64832 0.0
H3123 H 0.1467 0.4109 0.63598 0.0
H3124 H 0.16076 0.40438 0.6561 0.0
H3125 H 0.25542 0.44415 0.5996 0.0
H3126 H 0.22118 0.44229 0.59171 0.0
H3127 H 0.23032 0.46905 0.60555 0.0
H3128 H 0.12438 0.45084 0.58973 0.0
H3129 H 0.15381 0.51584 0.62016 0.0
H3130 H 0.15682 0.39785 0.60769 0.0
H3131 H 0.18258 0.40833 0.59348 0.0
H3132 H 0.1473 0.40906 0.58735 0.0
H3133 H 0.19154 0.47759 0.64696 0.0
H3134 H 0.19156 0.51099 0.63777 0.0
H3135 H 0.21645 0.48592 0.63175 0.0
C3136 C 0.29747 0.23263 0.22839 0.0
C3137 C 0.28881 0.20547 0.2279 0.0
C3138 C 0.28391 0.25187 0.23804 0.0
C3139 C 0.26056 0.24391 0.24696 0.0
C3140 C 0.25131 0.21661 0.24623 0.0
C3141 C 0.26578 0.19757 0.23678 0.0
C3142 C 0.29461 0.28065 0.23874 0.0
C3143 C 0.22611 0.2076 0.25535 0.0
C3144 C 0.23592 0.28346 0.28404 0.0
C3145 C 0.21425 0.29817 0.27727 0.0
C3146 C 0.25209 0.2667 0.27411 0.0
C3147 C 0.24586 0.26411 0.25715 0.0
C3148 C 0.22479 0.27992 0.25012 0.0
C3149 C 0.20944 0.29712 0.26027 0.0
C3150 C 0.27492 0.25071 0.28194 0.0
C3151 C 0.21735 0.27742 0.23211 0.0
H3152 H 0.31486 0.23889 0.22111 0.0
H3153 H 0.25904 0.17659 0.2362 0.0
H3154 H 0.27908 0.29498 0.23396 0.0
H3155 H 0.2988 0.28646 0.25172 0.0
H3156 H 0.31356 0.28325 0.23145 0.0
H3157 H 0.2211 0.18591 0.25299 0.0
H3158 H 0.22899 0.21046 0.26881 0.0
H3159 H 0.20851 0.22031 0.25161 0.0
H3160 H 0.23933 0.28382 0.29724 0.0
H3161 H 0.19254 0.30847 0.25513 0.0
H3162 H 0.29389 0.253 0.27466 0.0
H3163 H 0.26964 0.22877 0.28203 0.0
H3164 H 0.27896 0.25726 0.29483 0.0
H3165 H 0.23555 0.2804 0.22424 0.0
H3166 H 0.20155 0.29234 0.22838 0.0
H3167 H 0.20956 0.25663 0.22963 0.0
C3168 C 0.97823 0.94538 0.5237 0.0
C3169 C 0.95143 0.95511 0.5241 0.0
C3170 C 0.99814 0.95831 0.5142 0.0
C3171 C 0.99126 0.98214 0.50543 0.0
C3172 C 0.96435 0.99246 0.50609 0.0
C3173 C 0.94459 0.97854 0.51528 0.0
C3174 C 0.02641 0.94636 0.51347 0.0
C3175 C 0.95649 0.01822 0.49714 0.0
C3176 C 0.04649 0.03123 0.49228 0.0
C3177 C 0.04686 0.02694 0.47522 0.0
C3178 C 0.02886 0.01633 0.50242 0.0
C3179 C 0.01206 0.99609 0.4953 0.0
C3180 C 0.01406 0.9902 0.47828 0.0
C3181 C 0.03112 0.00605 0.46837 0.0
C3182 C 0.02691 0.02349 0.52049 0.0
C3183 C 0.99711 0.96814 0.47036 0.0
H3184 H 0.9837 0.92765 0.5309 0.0
H3185 H 0.92386 0.98602 0.51569 0.0
H3186 H 0.03204 0.94212 0.50046 0.0
H3187 H 0.04142 0.96116 0.51835 0.0
H3188 H 0.02815 0.9272 0.52065 0.0
H3189 H 0.93513 0.02428 0.49965 0.0
H3190 H 0.97014 0.03511 0.50088 0.0
H3191 H 0.95897 0.01536 0.48366 0.0
H3192 H 0.05871 0.04745 0.4975 0.0
H3193 H 0.03095 0.00301 0.45514 0.0
H3194 H 0.02907 0.00501 0.52821 0.0
H3195 H 0.00655 0.03223 0.52309 0.0
H3196 H 0.04263 0.03848 0.52428 0.0
H3197 H -0.00147 0.94903 0.47759 0.0
H3198 H 0.00355 0.96392 0.45747 0.0
H3199 H 0.97543 0.97437 0.47022 0.0
C3200 C 0.26996 0.70168 0.75947 0.0
C3201 C 0.29321 0.70943 0.7682 0.0
C3202 C 0.25524 0.72084 0.75028 0.0
C3203 C 0.26468 0.74805 0.74941 0.0
C3204 C 0.28854 0.75578 0.75791 0.0
C3205 C 0.30218 0.73649 0.7675 0.0
C3206 C 0.22945 0.71207 0.74167 0.0
C3207 C 0.29967 0.78436 0.75684 0.0
C3208 C 0.23803 0.78648 0.7125 0.0
C3209 C 0.2171 0.80192 0.71956 0.0
C3210 C 0.25481 0.77011 0.72226 0.0
C3211 C 0.24973 0.7683 0.73938 0.0
C3212 C 0.22935 0.78468 0.7467 0.0
C3213 C 0.2136 0.80178 0.73669 0.0
C3214 C 0.27703 0.7537 0.71411 0.0
C3215 C 0.22295 0.78278 0.76488 0.0
H3216 H 0.26309 0.68075 0.76006 0.0
H3217 H 0.31976 0.74269 0.77463 0.0
H3218 H 0.21227 0.72525 0.74554 0.0
H3219 H 0.23178 0.71442 0.72814 0.0
H3220 H 0.22411 0.69057 0.74436 0.0
H3221 H 0.31924 0.78664 0.76356 0.0
H3222 H 0.30291 0.79005 0.74374 0.0
H3223 H 0.28482 0.79897 0.76206 0.0
H3224 H 0.24045 0.78599 0.69923 0.0
H3225 H 0.19733 0.81371 0.74209 0.0
H3226 H 0.27136 0.73187 0.71407 0.0
H3227 H 0.29634 0.75564 0.7211 0.0
H3228 H 0.28065 0.76019 0.70117 0.0
H3229 H 0.21504 0.76216 0.76772 0.0
H3230 H 0.20756 0.79802 0.76878 0.0
H3231 H 0.24162 0.78574 0.77233 0.0
C3232 C 0.48054 0.9536 0.9709 0.0
C3233 C 0.4535 0.96246 0.96968 0.0
C3234 C 0.49928 0.96727 0.98086 0.0
C3235 C 0.49106 0.99109 0.98922 0.0
C3236 C 0.46401 0.00073 0.98758 0.0
C3237 C 0.44536 0.986 0.97797 0.0
C3238 C 0.5277 0.95595 0.98265 0.0
C3239 C 0.45482 0.02654 0.99599 0.0
C3240 C 0.52796 0.0145 0.02756 0.0
C3241 C 0.54499 0.03483 0.02124 0.0
C3242 C 0.51112 -0.00067 0.01714 0.0
C3243 C 0.51056 0.0054 0.0001 0.0
C3244 C 0.52825 0.02541 0.99357 0.0
C3245 C 0.54571 0.03954 0.00423 0.0
C3246 C 0.49324 0.97745 0.02446 0.0
C3247 C 0.52776 0.03283 0.9755 0.0
H3248 H 0.48709 0.93586 0.96404 0.0
H3249 H 0.4245 0.99291 0.97686 0.0
H3250 H 0.54285 0.97106 0.97834 0.0
H3251 H 0.53207 0.95183 0.99585 0.0
H3252 H 0.53058 0.93683 0.97557 0.0
H3253 H 0.43371 0.03225 0.99253 0.0
H3254 H 0.45575 0.02395 0.00956 0.0
H3255 H 0.46865 0.04355 0.99273 0.0
H3256 H 0.52689 0.01121 0.04075 0.0
H3257 H 0.55887 0.05536 -0.00058 0.0
H3258 H 0.49558 0.95819 0.01747 0.0
H3259 H 0.47159 0.98361 0.02355 0.0
H3260 H 0.49807 0.97351 0.03763 0.0
H3261 H 0.53121 0.01453 0.96778 0.0
H3262 H 0.54334 0.04833 0.97233 0.0
H3263 H 0.5074 0.04096 0.97222 0.0
C3264 C 0.26632 0.78991 0.28027 0.0
C3265 C 0.28991 0.8021 0.27403 0.0
C3266 C 0.25029 0.77307 0.27034 0.0
C3267 C 0.25853 0.76776 0.25394 0.0
C3268 C 0.28192 0.78063 0.24742 0.0
C3269 C 0.29721 0.79796 0.25754 0.0
C3270 C 0.22513 0.7601 0.2776 0.0
C3271 C 0.29145 0.77513 0.23003 0.0
C3272 C 0.23285 0.70145 0.23588 0.0
C3273 C 0.21138 0.71067 0.22609 0.0
C3274 C 0.24896 0.71997 0.24471 0.0
C3275 C 0.24298 0.74814 0.24383 0.0
C3276 C 0.22142 0.75747 0.2338 0.0
C3277 C 0.20609 0.7386 0.22487 0.0
C3278 C 0.27216 0.70942 0.2551 0.0
C3279 C 0.21421 0.78728 0.23275 0.0
H3280 H 0.26107 0.79238 0.29315 0.0
H3281 H 0.31557 0.80734 0.2528 0.0
H3282 H 0.20735 0.76367 0.26945 0.0
H3283 H 0.22806 0.73778 0.27851 0.0
H3284 H 0.22037 0.76811 0.29008 0.0
H3285 H 0.30939 0.78767 0.22663 0.0
H3286 H 0.29696 0.75335 0.22877 0.0
H3287 H 0.27486 0.77925 0.22111 0.0
H3288 H 0.23692 0.67982 0.23666 0.0
H3289 H 0.18979 0.74568 0.21696 0.0
H3290 H 0.2682 0.71384 0.2683 0.0
H3291 H 0.29133 0.71994 0.25171 0.0
H3292 H 0.27512 0.68715 0.25364 0.0
H3293 H 0.20861 0.79498 0.24516 0.0
H3294 H 0.19699 0.79115 0.2242 0.0
H3295 H 0.23205 0.7992 0.22853 0.0
C3296 C 0.49497 0.03653 0.53124 0.0
C3297 C 0.4672 0.03053 0.52986 0.0
C3298 C 0.51426 0.02229 0.52199 0.0
C3299 C 0.5055 0.00118 0.51142 0.0
C3300 C 0.47755 0.99415 0.51062 0.0
C3301 C 0.45861 0.00912 0.51984 0.0
C3302 C 0.54381 0.03053 0.52302 0.0
C3303 C 0.4676 0.97139 0.49967 0.0
C3304 C 0.54441 0.98279 0.47292 0.0
C3305 C 0.55692 0.95846 0.47768 0.0
C3306 C 0.52882 0.99775 0.48413 0.0
C3307 C 0.5252 0.9877 0.50033 0.0
C3308 C 0.53901 0.96393 0.50547 0.0
C3309 C 0.55502 0.9497 0.49406 0.0
C3310 C 0.51487 0.0234 0.47833 0.0
C3311 C 0.53542 0.95252 0.52261 0.0
H3312 H 0.50153 0.05283 0.53933 0.0
H3313 H 0.4371 0.00447 0.51898 0.0
H3314 H 0.55671 0.01261 0.5258 0.0
H3315 H 0.55053 0.03868 0.51092 0.0
H3316 H 0.54742 0.04629 0.53259 0.0
H3317 H 0.44564 0.96704 0.50152 0.0
H3318 H 0.47088 0.97688 0.48655 0.0
H3319 H 0.47935 0.95255 0.5021 0.0
H3320 H 0.54531 0.9893 0.46017 0.0
H3321 H 0.56468 0.93078 0.49766 0.0
H3322 H 0.5183 0.04019 0.48724 0.0
H3323 H 0.49261 0.01989 0.4776 0.0
H3324 H 0.52217 0.02999 0.46599 0.0
H3325 H 0.53846 0.9686 0.53202 0.0
H3326 H 0.54972 0.93555 0.52516 0.0
H3327 H 0.51432 0.94484 0.52403 0.0
C3328 C 0.28501 0.26576 0.71573 0.0
C3329 C 0.28035 0.29381 0.71682 0.0
C3330 C 0.27016 0.24746 0.72533 0.0
C3331 C 0.24967 0.25752 0.73591 0.0
C3332 C 0.244 0.28578 0.73648 0.0
C3333 C 0.25966 0.30373 0.72694 0.0
C3334 C 0.27704 0.21754 0.72458 0.0
C3335 C 0.22187 0.29705 0.74742 0.0
C3336 C 0.1976 0.20821 0.75291 0.0
C3337 C 0.20688 0.20501 0.76912 0.0
C3338 C 0.2114 0.22518 0.74185 0.0
C3339 C 0.23534 0.23861 0.7471 0.0
C3340 C 0.24557 0.23426 0.76319 0.0
C3341 C 0.23098 0.21777 0.77409 0.0
C3342 C 0.19979 0.22965 0.72482 0.0
C3343 C 0.27141 0.24777 0.76908 0.0
H3344 H 0.30072 0.25817 0.70755 0.0
H3345 H 0.25601 0.32545 0.72755 0.0
H3346 H 0.28444 0.21063 0.73682 0.0
H3347 H 0.25863 0.20546 0.72163 0.0
H3348 H 0.29294 0.21302 0.71524 0.0
H3349 H 0.2186 0.31916 0.74542 0.0
H3350 H 0.20246 0.28617 0.74512 0.0
H3351 H 0.2273 0.29375 0.76055 0.0
H3352 H 0.17887 0.19835 0.74915 0.0
H3353 H 0.23781 0.21593 0.78674 0.0
H3354 H 0.21529 0.22501 0.71529 0.0
H3355 H 0.19409 0.25135 0.72333 0.0
H3356 H 0.18153 0.21691 0.72248 0.0
H3357 H 0.28827 0.24363 0.76033 0.0
H3358 H 0.27759 0.24068 0.78154 0.0
H3359 H 0.26851 0.27013 0.76952 0.0
C3360 C 0.05697 0.98933 0.01879 0.0
C3361 C 0.04743 0.96866 0.02906 0.0
C3362 C 0.0387 0.00448 0.00918 0.0
C3363 C 0.01052 -0.0016 0.00987 0.0
C3364 C 0.00084 0.97813 0.02072 0.0
C3365 C 0.01945 0.9637 0.03034 0.0
C3366 C 0.04959 0.02636 -0.00209 0.0
C3367 C 0.97102 0.97089 0.02167 0.0
C3368 C 0.96131 0.04936 0.99159 0.0
C3369 C 0.95862 0.03937 0.9755 0.0
C3370 C 0.97784 0.036 0.0031 0.0
C3371 C 0.99141 0.01185 -0.00161 0.0
C3372 C 0.98737 0.0008 0.98246 0.0
C3373 C 0.97122 0.0149 0.97112 0.0
C3374 C 0.98188 0.04843 0.01995 0.0
C3375 C 0.00108 0.97474 0.97714 0.0
H3376 H 0.07864 0.9932 0.01804 0.0
H3377 H 0.01221 0.94793 0.0386 0.0
H3378 H 0.04645 0.02029 0.98487 0.0
H3379 H 0.03835 0.04565 -0.00012 0.0
H3380 H 0.07163 0.03014 -0.00011 0.0
H3381 H 0.96672 0.95572 0.03148 0.0
H3382 H 0.95865 0.98934 0.02404 0.0
H3383 H 0.96427 0.96237 0.00967 0.0
H3384 H 0.95154 0.06837 0.99489 0.0
H3385 H 0.96975 0.00749 0.95858 0.0
H3386 H 0.00335 0.05503 0.02131 0.0
H3387 H 0.97785 0.03318 0.02972 0.0
H3388 H 0.96848 0.0663 0.02201 0.0
H3389 H 0.02342 0.97783 0.97664 0.0
H3390 H 0.99404 0.96779 0.96481 0.0
H3391 H 0.99708 0.95836 0.98623 0.0
C3392 C 0.76351 0.71151 0.71862 0.0
C3393 C 0.78369 0.69364 0.7242 0.0
C3394 C 0.74948 0.72829 0.72964 0.0
C3395 C 0.75649 0.72778 0.74656 0.0
C3396 C 0.77609 0.70899 0.75237 0.0
C3397 C 0.78916 0.69175 0.7411 0.0
C3398 C 0.72805 0.74744 0.72306 0.0
C3399 C 0.78443 0.70826 0.77029 0.0
C3400 C 0.74153 0.7937 0.76911 0.0
C3401 C 0.71744 0.78703 0.7773 0.0
C3402 C 0.75515 0.77418 0.75954 0.0
C3403 C 0.74395 0.74772 0.75795 0.0
C3404 C 0.71989 0.74082 0.7665 0.0
C3405 C 0.70722 0.76045 0.77632 0.0
C3406 C 0.78118 0.78199 0.75089 0.0
C3407 C 0.70705 0.71304 0.76485 0.0
H3408 H 0.75962 0.71345 0.70552 0.0
H3409 H 0.80491 0.67797 0.74533 0.0
H3410 H 0.70914 0.74578 0.73046 0.0
H3411 H 0.73534 0.76872 0.72408 0.0
H3412 H 0.72307 0.74328 0.70993 0.0
H3413 H 0.7986 0.69123 0.77299 0.0
H3414 H 0.79461 0.72767 0.77356 0.0
H3415 H 0.76632 0.70629 0.77835 0.0
H3416 H 0.74951 0.8142 0.77009 0.0
H3417 H 0.68901 0.75508 0.78311 0.0
H3418 H 0.77796 0.78181 0.73735 0.0
H3419 H 0.79738 0.76694 0.75367 0.0
H3420 H 0.78842 0.80252 0.75456 0.0
H3421 H 0.70123 0.70944 0.75181 0.0
H3422 H 0.68863 0.7108 0.77267 0.0
H3423 H 0.72183 0.697 0.7683 0.0
C3424 C 0.70422 0.26441 0.2199 0.0
C3425 C 0.71182 0.29187 0.22045 0.0
C3426 C 0.71788 0.24495 0.22935 0.0
C3427 C 0.74011 0.25313 0.23921 0.0
C3428 C 0.74833 0.28078 0.23948 0.0
C3429 C 0.73387 0.29995 0.23013 0.0
C3430 C 0.70833 0.21576 0.22893 0.0
C3431 C 0.77226 0.29008 0.2497 0.0
C3432 C 0.76152 0.21252 0.27654 0.0
C3433 C 0.78452 0.19893 0.27056 0.0
C3434 C 0.74607 0.22925 0.2662 0.0
C3435 C 0.7543 0.23293 0.24964 0.0
C3436 C 0.77681 0.21829 0.24334 0.0
C3437 C 0.79153 0.20117 0.25389 0.0
C3438 C 0.7218 0.24408 0.27325 0.0
C3439 C 0.7863 0.22196 0.22578 0.0
H3440 H 0.68751 0.25813 0.21205 0.0
H3441 H 0.73975 0.3212 0.23037 0.0
H3442 H 0.72508 0.20228 0.2248 0.0
H3443 H 0.70247 0.20914 0.24152 0.0
H3444 H 0.69065 0.21282 0.22059 0.0
H3445 H 0.7768 0.31202 0.24792 0.0
H3446 H 0.76806 0.28649 0.26297 0.0
H3447 H 0.79061 0.2781 0.24645 0.0
H3448 H 0.75646 0.2114 0.28952 0.0
H3449 H 0.80948 0.19075 0.24937 0.0
H3450 H 0.70383 0.24144 0.26513 0.0
H3451 H 0.72624 0.26618 0.27389 0.0
H3452 H 0.71651 0.23684 0.28582 0.0
H3453 H 0.76918 0.21889 0.21707 0.0
H3454 H 0.80295 0.20768 0.2225 0.0
H3455 H 0.79375 0.24307 0.22404 0.0
C3456 C 0.73505 0.21595 0.72397 0.0
C3457 C 0.71018 0.20377 0.72794 0.0
C3458 C 0.74936 0.23105 0.73573 0.0
C3459 C 0.7381 0.23448 0.75165 0.0
C3460 C 0.71381 0.22085 0.75602 0.0
C3461 C 0.70027 0.2053 0.7441 0.0
C3462 C 0.77563 0.24474 0.73079 0.0
C3463 C 0.70114 0.22423 0.77285 0.0
C3464 C 0.78512 0.26351 0.78392 0.0
C3465 C 0.77984 0.2914 0.78242 0.0
C3466 C 0.7711 0.24455 0.77431 0.0
C3467 C 0.75093 0.2538 0.76325 0.0
C3468 C 0.74443 0.28187 0.7624 0.0
C3469 C 0.75919 0.30048 0.77198 0.0
C3470 C 0.77878 0.21486 0.77541 0.0
C3471 C 0.72259 0.2923 0.75094 0.0
H3472 H 0.74249 0.21525 0.71141 0.0
H3473 H 0.681 0.19577 0.74709 0.0
H3474 H 0.77249 0.26705 0.73011 0.0
H3475 H 0.79164 0.24092 0.74015 0.0
H3476 H 0.78309 0.23755 0.71861 0.0
H3477 H 0.68396 0.20993 0.77485 0.0
H3478 H 0.71648 0.22103 0.78269 0.0
H3479 H 0.69341 0.24533 0.77416 0.0
H3480 H 0.80084 0.25661 0.79232 0.0
H3481 H 0.75509 0.32209 0.77105 0.0
H3482 H 0.78806 0.20827 0.76359 0.0
H3483 H 0.76044 0.20215 0.77742 0.0
H3484 H 0.7935 0.21084 0.78552 0.0
H3485 H 0.72902 0.28926 0.73795 0.0
H3486 H 0.71834 0.31426 0.75287 0.0
H3487 H 0.70347 0.28069 0.75276 0.0
C3488 C 0.78962 0.75704 0.21574 0.0
C3489 C 0.78206 0.7845 0.21652 0.0
C3490 C 0.77611 0.73742 0.22513 0.0
C3491 C 0.75394 0.74541 0.23508 0.0
C3492 C 0.7454 0.77296 0.23532 0.0
C3493 C 0.75982 0.79233 0.22611 0.0
C3494 C 0.78609 0.70837 0.22481 0.0
C3495 C 0.72138 0.78203 0.24553 0.0
C3496 C 0.70357 0.69354 0.25102 0.0
C3497 C 0.71049 0.69284 0.26776 0.0
C3498 C 0.71808 0.71001 0.24 0.0
C3499 C 0.74047 0.72528 0.24588 0.0
C3500 C 0.74898 0.72265 0.26247 0.0
C3501 C 0.73361 0.70674 0.27329 0.0
C3502 C 0.7082 0.71261 0.22244 0.0
C3503 C 0.7733 0.738 0.26904 0.0
H3504 H 0.80647 0.75096 0.20794 0.0
H3505 H 0.75394 0.81357 0.2265 0.0
H3506 H 0.79299 0.70234 0.23732 0.0
H3507 H 0.76931 0.69443 0.22132 0.0
H3508 H 0.80321 0.70543 0.21605 0.0
H3509 H 0.71609 0.80369 0.24334 0.0
H3510 H 0.70335 0.76927 0.24269 0.0
H3511 H 0.72601 0.77935 0.25882 0.0
H3512 H 0.68562 0.68275 0.24682 0.0
H3513 H 0.73872 0.70665 0.28629 0.0
H3514 H 0.7253 0.7102 0.21364 0.0
H3515 H 0.69962 0.73325 0.22054 0.0
H3516 H 0.69225 0.69739 0.21942 0.0
H3517 H 0.79101 0.73547 0.2607 0.0
H3518 H 0.77917 0.7311 0.28159 0.0
H3519 H 0.76854 0.76003 0.2696 0.0
C3520 C 0.44181 0.48501 0.01854 0.0
C3521 C 0.45058 0.46215 0.02728 0.0
C3522 C 0.46017 0.50001 0.00889 0.0
C3523 C 0.4876 0.49133 0.00769 0.0
C3524 C 0.49645 0.4682 0.01651 0.0
C3525 C 0.47795 0.45426 0.02648 0.0
C3526 C 0.45025 0.52506 -3e-05 0.0
C3527 C 0.52533 0.45791 0.0152 0.0
C3528 C 0.52478 0.51384 0.96928 0.0
C3529 C 0.54106 0.53498 0.97535 0.0
C3530 C 0.50806 0.49878 0.97982 0.0
C3531 C 0.50683 0.50579 0.99672 0.0
C3532 C 0.52367 0.52673 0.00301 0.0
C3533 C 0.54103 0.54078 0.99225 0.0
C3534 C 0.49109 0.47595 0.97277 0.0
C3535 C 0.52241 0.53512 0.02091 0.0
H3536 H 0.42068 0.49119 0.01935 0.0
H3537 H 0.48495 0.43708 0.03369 0.0
H3538 H 0.46336 0.54272 0.00306 0.0
H3539 H 0.45164 0.52189 0.98645 0.0
H3540 H 0.42886 0.53014 0.00313 0.0
H3541 H 0.52875 0.43929 0.02268 0.0
H3542 H 0.5302 0.45326 0.00214 0.0
H3543 H 0.53978 0.47381 0.01935 0.0
H3544 H 0.52421 0.50974 0.95616 0.0
H3545 H 0.55358 0.55724 0.99687 0.0
H3546 H 0.46922 0.48138 0.97344 0.0
H3547 H 0.49397 0.45713 0.98011 0.0
H3548 H 0.49629 0.47154 0.95971 0.0
H3549 H 0.50166 0.54257 0.02385 0.0
H3550 H 0.53727 0.55142 0.02389 0.0
H3551 H 0.52643 0.51742 0.02901 0.0
C3552 C 0.01371 0.54345 0.51982 0.0
C3553 C 0.04096 0.53515 0.52044 0.0
C3554 C 0.99457 0.52903 0.51056 0.0
C3555 C 0.00271 0.50515 0.50224 0.0
C3556 C 0.03009 0.49622 0.50316 0.0
C3557 C 0.04906 0.51161 0.51213 0.0
C3558 C 0.96573 0.53951 0.50957 0.0
C3559 C 0.03926 0.47044 0.49472 0.0
C3560 C 0.94751 0.45541 0.48976 0.0
C3561 C 0.94586 0.46023 0.47278 0.0
C3562 C 0.96611 0.46978 0.49956 0.0
C3563 C 0.98267 0.48997 0.4922 0.0
C3564 C 0.98012 0.49578 0.4752 0.0
C3565 C 0.96205 0.48049 0.46563 0.0
C3566 C 0.9687 0.46274 0.51761 0.0
C3567 C 0.9969 0.5177 0.46702 0.0
H3568 H 0.00729 0.56125 0.52668 0.0
H3569 H 0.07012 0.50517 0.51278 0.0
H3570 H 0.96005 0.54301 0.49649 0.0
H3571 H 0.95143 0.52416 0.51458 0.0
H3572 H 0.96294 0.55882 0.51648 0.0
H3573 H 0.06088 0.46557 0.49739 0.0
H3574 H 0.02642 0.45311 0.49874 0.0
H3575 H 0.03676 0.47247 0.48118 0.0
H3576 H 0.93501 0.43962 0.49521 0.0
H3577 H 0.96133 0.48378 0.45243 0.0
H3578 H 0.96495 0.481 0.52531 0.0
H3579 H 0.98973 0.45579 0.52026 0.0
H3580 H 0.95428 0.4465 0.5214 0.0
H3581 H 0.99451 0.53723 0.47374 0.0
H3582 H 0.99108 0.52088 0.45393 0.0
H3583 H 0.01876 0.51218 0.4675 0.0
C3584 C 0.02208 0.46199 0.96833 0.0
C3585 C 0.05019 0.46628 0.96945 0.0
C3586 C 0.00397 0.47717 0.97788 0.0
C3587 C 0.01429 0.49749 0.98849 0.0
C3588 C 0.04262 0.5028 0.98907 0.0
C3589 C 0.06037 0.48691 0.97955 0.0
C3590 C 0.97394 0.47076 0.97706 0.0
C3591 C 0.05419 0.52469 8e-05 0.0
C3592 C 0.96598 0.55 0.00605 0.0
C3593 C 0.96267 0.54035 0.02216 0.0
C3594 C 0.98259 0.53613 0.9948 0.0
C3595 C 0.99562 0.51185 -0.00019 0.0
C3596 C 0.99121 0.50133 0.01583 0.0
C3597 C 0.97501 0.51592 0.02689 0.0
C3598 C 0.98708 0.548 0.97785 0.0
C3599 C 0.00438 0.47518 0.02148 0.0
H3600 H 0.01432 0.4463 0.96019 0.0
H3601 H 0.08214 0.49025 0.98018 0.0
H3602 H 0.96695 0.46305 0.98921 0.0
H3603 H 0.96212 0.48943 0.97435 0.0
H3604 H 0.96917 0.45524 0.96753 0.0
H3605 H 0.07632 0.52775 -0.00195 0.0
H3606 H 0.04353 0.54425 -0.00211 0.0
H3607 H 0.05091 0.51914 0.01319 0.0
H3608 H 0.95645 0.56899 0.00248 0.0
H3609 H 0.97312 0.50882 0.03948 0.0
H3610 H 0.98227 0.53272 0.96822 0.0
H3611 H 0.00881 0.55357 0.97637 0.0
H3612 H 0.97448 0.56641 0.97567 0.0
H3613 H -0.00013 0.45855 0.01263 0.0
H3614 H 0.99735 0.46888 0.03392 0.0
H3615 H 0.02679 0.47774 0.02183 0.0
C3616 C 0.45597 0.51189 0.4664 0.0
C3617 C 0.44237 0.53476 0.47254 0.0
C3618 C 0.4723 0.49599 0.47673 0.0
C3619 C 0.47558 0.50369 0.49342 0.0
C3620 C 0.46065 0.52584 0.4999 0.0
C3621 C 0.44382 0.54091 0.48937 0.0
C3622 C 0.48731 0.47197 0.46952 0.0
C3623 C 0.46394 0.53484 0.51759 0.0
C3624 C 0.50778 0.45314 0.52254 0.0
C3625 C 0.53523 0.46076 0.52179 0.0
C3626 C 0.48806 0.467 0.51341 0.0
C3627 C 0.49594 0.48955 0.50375 0.0
C3628 C 0.52351 0.49804 0.50347 0.0
C3629 C 0.54297 0.48329 0.51242 0.0
C3630 C 0.45897 0.45713 0.5138 0.0
C3631 C 0.53247 0.52242 0.49355 0.0
H3632 H 0.45528 0.50738 0.45333 0.0
H3633 H 0.43326 0.55868 0.49404 0.0
H3634 H 0.50935 0.47664 0.46884 0.0
H3635 H 0.48489 0.45384 0.47754 0.0
H3636 H 0.48003 0.46681 0.45693 0.0
H3637 H 0.44906 0.55086 0.52106 0.0
H3638 H 0.46151 0.51736 0.5261 0.0
H3639 H 0.48477 0.54301 0.51942 0.0
H3640 H 0.50177 0.43606 0.53017 0.0
H3641 H 0.56421 0.48919 0.51203 0.0
H3642 H 0.45252 0.4511 0.5012 0.0
H3643 H 0.44525 0.47373 0.51786 0.0
H3644 H 0.4562 0.43946 0.52217 0.0
H3645 H 0.52926 0.51844 0.48022 0.0
H3646 H 0.55426 0.5274 0.49555 0.0
H3647 H 0.52001 0.54043 0.49686 0.0
loop_
_geom_bond_atom_site_label_1
_geom_bond_atom_site_label_2
_geom_bond_distance
_geom_bond_site_symmetry_2
_ccdc_geom_bond_type
Co0 O3 1.970 . S
Co0 N17 1.989 . S
Co0 O25 1.967 . S
Co0 O32 1.920 . S
Co1 O4 1.966 . S
Co1 N10 2.022 . S
Co1 N18 1.993 . S
Co1 O26 1.941 . S
C2 O3 1.258 . S
C2 O4 1.263 . S
O3 Co0 1.970 . S
O3 C2 1.258 . S
O4 Co1 1.966 . S
O4 C2 1.263 . S
C5 O6 1.235 . S
C5 O32 1.289 . S
O6 C5 1.235 . S
C7 C9 1.400 . S
C7 N10 1.351 . S
C7 C12 1.501 . S
C8 C9 1.387 . S
C8 N11 1.341 . S
C9 C7 1.400 . S
C9 C8 1.387 . S
N10 Co1 2.022 . S
N10 C7 1.351 . S
N10 N11 1.365 . S
N11 C8 1.341 . S
N11 N10 1.365 . S
N11 H31 0.862 . S
C12 C7 1.501 . S
C12 H13 0.961 . S
C12 H14 0.961 . S
C12 H15 0.960 . S
H13 C12 0.961 . S
H14 C12 0.961 . S
H15 C12 0.960 . S
C16 N17 1.342 . S
C16 C20 1.401 . S
C16 C21 1.499 . S
N17 Co0 1.989 . S
N17 C16 1.342 . S
N17 N18 1.388 . S
N18 Co1 1.993 . S
N18 N17 1.388 . S
N18 C19 1.346 . S
C19 N18 1.346 . S
C19 C20 1.396 . S
C19 C29 1.510 . S
C20 C16 1.401 . S
C20 C19 1.396 . S
C21 C16 1.499 . S
C21 H22 0.959 . S
C21 H23 0.960 . S
C21 H24 0.961 . S
H22 C21 0.959 . S
H23 C21 0.960 . S
H24 C21 0.961 . S
O25 Co0 1.967 . S
O25 C33 1.258 . S
O26 Co1 1.941 . S
O26 C33 1.266 . S
H27 C29 0.959 . S
H28 C29 0.961 . S
C29 C19 1.510 . S
C29 H27 0.959 . S
C29 H28 0.961 . S
C29 H30 0.960 . S
H30 C29 0.960 . S
H31 N11 0.862 . S
O32 Co0 1.920 . S
O32 C5 1.289 . S
C33 O25 1.258 . S
C33 O26 1.266 . S
Co34 O37 1.970 . S
Co34 N51 1.989 . S
Co34 O59 1.967 . S
Co34 O66 1.920 . S
Co35 O38 1.966 . S
Co35 N44 2.022 . S
Co35 N52 1.993 . S
Co35 O60 1.941 . S
C36 O37 1.258 . S
C36 O38 1.263 . S
O37 Co34 1.970 . S
O37 C36 1.258 . S
O38 Co35 1.966 . S
O38 C36 1.263 . S
C39 O40 1.235 . S
C39 O66 1.289 . S
O40 C39 1.235 . S
C41 C43 1.400 . S
C41 N44 1.351 . S
C41 C46 1.501 . S
C42 C43 1.387 . S
C42 N45 1.341 . S
C43 C41 1.400 . S
C43 C42 1.387 . S
N44 Co35 2.022 . S
N44 C41 1.351 . S
N44 N45 1.365 . S
N45 C42 1.341 . S
N45 N44 1.365 . S
N45 H65 0.862 . S
C46 C41 1.501 . S
C46 H47 0.961 . S
C46 H48 0.961 . S
C46 H49 0.960 . S
H47 C46 0.961 . S
H48 C46 0.961 . S
H49 C46 0.960 . S
C50 N51 1.342 . S
C50 C54 1.401 . S
C50 C55 1.499 . S
N51 Co34 1.989 . S
N51 C50 1.342 . S
N51 N52 1.388 . S
N52 Co35 1.993 . S
N52 N51 1.388 . S
N52 C53 1.346 . S
C53 N52 1.346 . S
C53 C54 1.396 . S
C53 C63 1.510 . S
C54 C50 1.401 . S
C54 C53 1.396 . S
C55 C50 1.499 . S
C55 H56 0.959 . S
C55 H57 0.960 . S
C55 H58 0.961 . S
H56 C55 0.959 . S
H57 C55 0.960 . S
H58 C55 0.961 . S
O59 Co34 1.967 . S
O59 C67 1.258 . S
O60 Co35 1.941 . S
O60 C67 1.266 . S
H61 C63 0.959 . S
H62 C63 0.961 . S
C63 C53 1.510 . S
C63 H61 0.959 . S
C63 H62 0.961 . S
C63 H64 0.960 . S
H64 C63 0.960 . S
H65 N45 0.862 . S
O66 Co34 1.920 . S
O66 C39 1.289 . S
C67 O59 1.258 . S
C67 O60 1.266 . S
Co68 O71 1.970 . S
Co68 N85 1.989 . S
Co68 O93 1.967 . S
Co68 O100 1.920 . S
Co69 O72 1.966 . S
Co69 N78 2.022 . S
Co69 N86 1.993 . S
Co69 O94 1.941 . S
C70 O71 1.258 . S
C70 O72 1.263 . S
O71 Co68 1.970 . S
O71 C70 1.258 . S
O72 Co69 1.966 . S
O72 C70 1.263 . S
C73 O74 1.235 . S
C73 O100 1.289 . S
O74 C73 1.235 . S
C75 C77 1.400 . S
C75 N78 1.351 . S
C75 C80 1.501 . S
C76 C77 1.387 . S
C76 N79 1.341 . S
C77 C75 1.400 . S
C77 C76 1.387 . S
N78 Co69 2.022 . S
N78 C75 1.351 . S
N78 N79 1.365 . S
N79 C76 1.341 . S
N79 N78 1.365 . S
N79 H99 0.862 . S
C80 C75 1.501 . S
C80 H81 0.961 . S
C80 H82 0.961 . S
C80 H83 0.960 . S
H81 C80 0.961 . S
H82 C80 0.961 . S
H83 C80 0.960 . S
C84 N85 1.342 . S
C84 C88 1.401 . S
C84 C89 1.499 . S
N85 Co68 1.989 . S
N85 C84 1.342 . S
N85 N86 1.388 . S
N86 Co69 1.993 . S
N86 N85 1.388 . S
N86 C87 1.346 . S
C87 N86 1.346 . S
C87 C88 1.396 . S
C87 C97 1.510 . S
C88 C84 1.401 . S
C88 C87 1.396 . S
C89 C84 1.499 . S
C89 H90 0.959 . S
C89 H91 0.960 . S
C89 H92 0.961 . S
H90 C89 0.959 . S
H91 C89 0.960 . S
H92 C89 0.961 . S
O93 Co68 1.967 . S
O93 C101 1.258 . S
O94 Co69 1.941 . S
O94 C101 1.266 . S
H95 C97 0.959 . S
H96 C97 0.961 . S
C97 C87 1.510 . S
C97 H95 0.959 . S
C97 H96 0.961 . S
C97 H98 0.960 . S
H98 C97 0.960 . S
H99 N79 0.862 . S
O100 Co68 1.920 . S
O100 C73 1.289 . S
C101 O93 1.258 . S
C101 O94 1.266 . S
Co102 O105 1.970 . S
Co102 N119 1.989 . S
Co102 O127 1.967 . S
Co102 O134 1.920 . S
Co103 O106 1.966 . S
Co103 N112 2.022 . S
Co103 N120 1.993 . S
Co103 O128 1.941 . S
C104 O105 1.258 . S
C104 O106 1.263 . S
O105 Co102 1.970 . S
O105 C104 1.258 . S
O106 Co103 1.966 . S
O106 C104 1.263 . S
C107 O108 1.235 . S
C107 O134 1.289 . S
O108 C107 1.235 . S
C109 C111 1.400 . S
C109 N112 1.351 . S
C109 C114 1.501 . S
C110 C111 1.387 . S
C110 N113 1.341 . S
C111 C109 1.400 . S
C111 C110 1.387 . S
N112 Co103 2.022 . S
N112 C109 1.351 . S
N112 N113 1.365 . S
N113 C110 1.341 . S
N113 N112 1.365 . S
N113 H133 0.862 . S
C114 C109 1.501 . S
C114 H115 0.961 . S
C114 H116 0.961 . S
C114 H117 0.960 . S
H115 C114 0.961 . S
H116 C114 0.961 . S
H117 C114 0.960 . S
C118 N119 1.342 . S
C118 C122 1.401 . S
C118 C123 1.499 . S
N119 Co102 1.989 . S
N119 C118 1.342 . S
N119 N120 1.388 . S
N120 Co103 1.993 . S
N120 N119 1.388 . S
N120 C121 1.346 . S
C121 N120 1.346 . S
C121 C122 1.396 . S
C121 C131 1.510 . S
C122 C118 1.401 . S
C122 C121 1.396 . S
C123 C118 1.499 . S
C123 H124 0.959 . S
C123 H125 0.960 . S
C123 H126 0.961 . S
H124 C123 0.959 . S
H125 C123 0.960 . S
H126 C123 0.961 . S
O127 Co102 1.967 . S
O127 C135 1.258 . S
O128 Co103 1.941 . S
O128 C135 1.266 . S
H129 C131 0.959 . S
H130 C131 0.961 . S
C131 C121 1.510 . S
C131 H129 0.959 . S
C131 H130 0.961 . S
C131 H132 0.960 . S
H132 C131 0.960 . S
H133 N113 0.862 . S
O134 Co102 1.920 . S
O134 C107 1.289 . S
C135 O127 1.258 . S
C135 O128 1.266 . S
Co136 O139 1.970 . S
Co136 N153 1.989 . S
Co136 O161 1.967 . S
Co136 O168 1.920 . S
Co137 O140 1.966 . S
Co137 N146 2.022 . S
Co137 N154 1.993 . S
Co137 O162 1.941 . S
C138 O139 1.258 . S
C138 O140 1.263 . S
O139 Co136 1.970 . S
O139 C138 1.258 . S
O140 Co137 1.966 . S
O140 C138 1.263 . S
C141 O142 1.235 . S
C141 O168 1.289 . S
O142 C141 1.235 . S
C143 C145 1.400 . S
C143 N146 1.351 . S
C143 C148 1.501 . S
C144 C145 1.387 . S
C144 N147 1.341 . S
C145 C143 1.400 . S
C145 C144 1.387 . S
N146 Co137 2.022 . S
N146 C143 1.351 . S
N146 N147 1.365 . S
N147 C144 1.341 . S
N147 N146 1.365 . S
N147 H167 0.862 . S
C148 C143 1.501 . S
C148 H149 0.961 . S
C148 H150 0.961 . S
C148 H151 0.960 . S
H149 C148 0.961 . S
H150 C148 0.961 . S
H151 C148 0.960 . S
C152 N153 1.342 . S
C152 C156 1.401 . S
C152 C157 1.499 . S
N153 Co136 1.989 . S
N153 C152 1.342 . S
N153 N154 1.388 . S
N154 Co137 1.993 . S
N154 N153 1.388 . S
N154 C155 1.346 . S
C155 N154 1.346 . S
C155 C156 1.396 . S
C155 C165 1.510 . S
C156 C152 1.401 . S
C156 C155 1.396 . S
C157 C152 1.499 . S
C157 H158 0.959 . S
C157 H159 0.960 . S
C157 H160 0.961 . S
H158 C157 0.959 . S
H159 C157 0.960 . S
H160 C157 0.961 . S
O161 Co136 1.967 . S
O161 C169 1.258 . S
O162 Co137 1.941 . S
O162 C169 1.266 . S
H163 C165 0.959 . S
H164 C165 0.961 . S
C165 C155 1.510 . S
C165 H163 0.959 . S
C165 H164 0.961 . S
C165 H166 0.960 . S
H166 C165 0.960 . S
H167 N147 0.862 . S
O168 Co136 1.920 . S
O168 C141 1.289 . S
C169 O161 1.258 . S
C169 O162 1.266 . S
Co170 O173 1.970 . S
Co170 N187 1.989 . S
Co170 O195 1.967 . S
Co170 O202 1.920 . S
Co171 O174 1.966 . S
Co171 N180 2.022 . S
Co171 N188 1.993 . S
Co171 O196 1.941 . S
C172 O173 1.258 . S
C172 O174 1.263 . S
O173 Co170 1.970 . S
O173 C172 1.258 . S
O174 Co171 1.966 . S
O174 C172 1.263 . S
C175 O176 1.235 . S
C175 O202 1.289 . S
O176 C175 1.235 . S
C177 C179 1.400 . S
C177 N180 1.351 . S
C177 C182 1.501 . S
C178 C179 1.387 . S
C178 N181 1.341 . S
C179 C177 1.400 . S
C179 C178 1.387 . S
N180 Co171 2.022 . S
N180 C177 1.351 . S
N180 N181 1.365 . S
N181 C178 1.341 . S
N181 N180 1.365 . S
N181 H201 0.862 . S
C182 C177 1.501 . S
C182 H183 0.961 . S
C182 H184 0.961 . S
C182 H185 0.960 . S
H183 C182 0.961 . S
H184 C182 0.961 . S
H185 C182 0.960 . S
C186 N187 1.342 . S
C186 C190 1.401 . S
C186 C191 1.499 . S
N187 Co170 1.989 . S
N187 C186 1.342 . S
N187 N188 1.388 . S
N188 Co171 1.993 . S
N188 N187 1.388 . S
N188 C189 1.346 . S
C189 N188 1.346 . S
C189 C190 1.396 . S
C189 C199 1.510 . S
C190 C186 1.401 . S
C190 C189 1.396 . S
C191 C186 1.499 . S
C191 H192 0.959 . S
C191 H193 0.960 . S
C191 H194 0.961 . S
H192 C191 0.959 . S
H193 C191 0.960 . S
H194 C191 0.961 . S
O195 Co170 1.967 . S
O195 C203 1.258 . S
O196 Co171 1.941 . S
O196 C203 1.266 . S
H197 C199 0.959 . S
H198 C199 0.961 . S
C199 C189 1.510 . S
C199 H197 0.959 . S
C199 H198 0.961 . S
C199 H200 0.960 . S
H200 C199 0.960 . S
H201 N181 0.862 . S
O202 Co170 1.920 . S
O202 C175 1.289 . S
C203 O195 1.258 . S
C203 O196 1.266 . S
Co204 O207 1.970 . S
Co204 N221 1.989 . S
Co204 O229 1.967 . S
Co204 O236 1.920 . S
Co205 O208 1.966 . S
Co205 N214 2.022 . S
Co205 N222 1.993 . S
Co205 O230 1.941 . S
C206 O207 1.258 . S
C206 O208 1.263 . S
O207 Co204 1.970 . S
O207 C206 1.258 . S
O208 Co205 1.966 . S
O208 C206 1.263 . S
C209 O210 1.235 . S
C209 O236 1.289 . S
O210 C209 1.235 . S
C211 C213 1.400 . S
C211 N214 1.351 . S
C211 C216 1.501 . S
C212 C213 1.387 . S
C212 N215 1.341 . S
C213 C211 1.400 . S
C213 C212 1.387 . S
N214 Co205 2.022 . S
N214 C211 1.351 . S
N214 N215 1.365 . S
N215 C212 1.341 . S
N215 N214 1.365 . S
N215 H235 0.862 . S
C216 C211 1.501 . S
C216 H217 0.961 . S
C216 H218 0.961 . S
C216 H219 0.960 . S
H217 C216 0.961 . S
H218 C216 0.961 . S
H219 C216 0.960 . S
C220 N221 1.342 . S
C220 C224 1.401 . S
C220 C225 1.499 . S
N221 Co204 1.989 . S
N221 C220 1.342 . S
N221 N222 1.388 . S
N222 Co205 1.993 . S
N222 N221 1.388 . S
N222 C223 1.346 . S
C223 N222 1.346 . S
C223 C224 1.396 . S
C223 C233 1.510 . S
C224 C220 1.401 . S
C224 C223 1.396 . S
C225 C220 1.499 . S
C225 H226 0.959 . S
C225 H227 0.960 . S
C225 H228 0.961 . S
H226 C225 0.959 . S
H227 C225 0.960 . S
H228 C225 0.961 . S
O229 Co204 1.967 . S
O229 C237 1.258 . S
O230 Co205 1.941 . S
O230 C237 1.266 . S
H231 C233 0.959 . S
H232 C233 0.961 . S
C233 C223 1.510 . S
C233 H231 0.959 . S
C233 H232 0.961 . S
C233 H234 0.960 . S
H234 C233 0.960 . S
H235 N215 0.862 . S
O236 Co204 1.920 . S
O236 C209 1.289 . S
C237 O229 1.258 . S
C237 O230 1.266 . S
Co238 O241 1.970 . S
Co238 N255 1.989 . S
Co238 O263 1.967 . S
Co238 O270 1.920 . S
Co239 O242 1.966 . S
Co239 N248 2.022 . S
Co239 N256 1.993 . S
Co239 O264 1.941 . S
C240 O241 1.258 . S
C240 O242 1.263 . S
O241 Co238 1.970 . S
O241 C240 1.258 . S
O242 Co239 1.966 . S
O242 C240 1.263 . S
C243 O244 1.235 . S
C243 O270 1.289 . S
O244 C243 1.235 . S
C245 C247 1.400 . S
C245 N248 1.351 . S
C245 C250 1.501 . S
C246 C247 1.387 . S
C246 N249 1.341 . S
C247 C245 1.400 . S
C247 C246 1.387 . S
N248 Co239 2.022 . S
N248 C245 1.351 . S
N248 N249 1.365 . S
N249 C246 1.341 . S
N249 N248 1.365 . S
N249 H269 0.862 . S
C250 C245 1.501 . S
C250 H251 0.961 . S
C250 H252 0.961 . S
C250 H253 0.960 . S
H251 C250 0.961 . S
H252 C250 0.961 . S
H253 C250 0.960 . S
C254 N255 1.342 . S
C254 C258 1.401 . S
C254 C259 1.499 . S
N255 Co238 1.989 . S
N255 C254 1.342 . S
N255 N256 1.388 . S
N256 Co239 1.993 . S
N256 N255 1.388 . S
N256 C257 1.346 . S
C257 N256 1.346 . S
C257 C258 1.396 . S
C257 C267 1.510 . S
C258 C254 1.401 . S
C258 C257 1.396 . S
C259 C254 1.499 . S
C259 H260 0.959 . S
C259 H261 0.960 . S
C259 H262 0.961 . S
H260 C259 0.959 . S
H261 C259 0.960 . S
H262 C259 0.961 . S
O263 Co238 1.967 . S
O263 C271 1.258 . S
O264 Co239 1.941 . S
O264 C271 1.266 . S
H265 C267 0.959 . S
H266 C267 0.961 . S
C267 C257 1.510 . S
C267 H265 0.959 . S
C267 H266 0.961 . S
C267 H268 0.960 . S
H268 C267 0.960 . S
H269 N249 0.862 . S
O270 Co238 1.920 . S
O270 C243 1.289 . S
C271 O263 1.258 . S
C271 O264 1.266 . S
Co272 O275 1.970 . S
Co272 N289 1.989 . S
Co272 O297 1.967 . S
Co272 O304 1.920 . S
Co273 O276 1.966 . S
Co273 N282 2.022 . S
Co273 N290 1.993 . S
Co273 O298 1.941 . S
C274 O275 1.258 . S
C274 O276 1.263 . S
O275 Co272 1.970 . S
O275 C274 1.258 . S
O276 Co273 1.966 . S
O276 C274 1.263 . S
C277 O278 1.235 . S
C277 O304 1.289 . S
O278 C277 1.235 . S
C279 C281 1.400 . S
C279 N282 1.351 . S
C279 C284 1.501 . S
C280 C281 1.387 . S
C280 N283 1.341 . S
C281 C279 1.400 . S
C281 C280 1.387 . S
N282 Co273 2.022 . S
N282 C279 1.351 . S
N282 N283 1.365 . S
N283 C280 1.341 . S
N283 N282 1.365 . S
N283 H303 0.862 . S
C284 C279 1.501 . S
C284 H285 0.961 . S
C284 H286 0.961 . S
C284 H287 0.960 . S
H285 C284 0.961 . S
H286 C284 0.961 . S
H287 C284 0.960 . S
C288 N289 1.342 . S
C288 C292 1.401 . S
C288 C293 1.499 . S
N289 Co272 1.989 . S
N289 C288 1.342 . S
N289 N290 1.388 . S
N290 Co273 1.993 . S
N290 N289 1.388 . S
N290 C291 1.346 . S
C291 N290 1.346 . S
C291 C292 1.396 . S
C291 C301 1.510 . S
C292 C288 1.401 . S
C292 C291 1.396 . S
C293 C288 1.499 . S
C293 H294 0.959 . S
C293 H295 0.960 . S
C293 H296 0.961 . S
H294 C293 0.959 . S
H295 C293 0.960 . S
H296 C293 0.961 . S
O297 Co272 1.967 . S
O297 C305 1.258 . S
O298 Co273 1.941 . S
O298 C305 1.266 . S
H299 C301 0.959 . S
H300 C301 0.961 . S
C301 C291 1.510 . S
C301 H299 0.959 . S
C301 H300 0.961 . S
C301 H302 0.960 . S
H302 C301 0.960 . S
H303 N283 0.862 . S
O304 Co272 1.920 . S
O304 C277 1.289 . S
C305 O297 1.258 . S
C305 O298 1.266 . S
Co306 O309 1.970 . S
Co306 N323 1.989 . S
Co306 O331 1.967 . S
Co306 O338 1.920 . S
Co307 O310 1.966 . S
Co307 N316 2.022 . S
Co307 N324 1.993 . S
Co307 O332 1.941 . S
C308 O309 1.258 . S
C308 O310 1.263 . S
O309 Co306 1.970 . S
O309 C308 1.258 . S
O310 Co307 1.966 . S
O310 C308 1.263 . S
C311 O312 1.235 . S
C311 O338 1.289 . S
O312 C311 1.235 . S
C313 C315 1.400 . S
C313 N316 1.351 . S
C313 C318 1.501 . S
C314 C315 1.387 . S
C314 N317 1.341 . S
C315 C313 1.400 . S
C315 C314 1.387 . S
N316 Co307 2.022 . S
N316 C313 1.351 . S
N316 N317 1.365 . S
N317 C314 1.341 . S
N317 N316 1.365 . S
N317 H337 0.862 . S
C318 C313 1.501 . S
C318 H319 0.961 . S
C318 H320 0.961 . S
C318 H321 0.960 . S
H319 C318 0.961 . S
H320 C318 0.961 . S
H321 C318 0.960 . S
C322 N323 1.342 . S
C322 C326 1.401 . S
C322 C327 1.499 . S
N323 Co306 1.989 . S
N323 C322 1.342 . S
N323 N324 1.388 . S
N324 Co307 1.993 . S
N324 N323 1.388 . S
N324 C325 1.346 . S
C325 N324 1.346 . S
C325 C326 1.396 . S
C325 C335 1.510 . S
C326 C322 1.401 . S
C326 C325 1.396 . S
C327 C322 1.499 . S
C327 H328 0.959 . S
C327 H329 0.960 . S
C327 H330 0.961 . S
H328 C327 0.959 . S
H329 C327 0.960 . S
H330 C327 0.961 . S
O331 Co306 1.967 . S
O331 C339 1.258 . S
O332 Co307 1.941 . S
O332 C339 1.266 . S
H333 C335 0.959 . S
H334 C335 0.961 . S
C335 C325 1.510 . S
C335 H333 0.959 . S
C335 H334 0.961 . S
C335 H336 0.960 . S
H336 C335 0.960 . S
H337 N317 0.862 . S
O338 Co306 1.920 . S
O338 C311 1.289 . S
C339 O331 1.258 . S
C339 O332 1.266 . S
Co340 O343 1.970 . S
Co340 N357 1.989 . S
Co340 O365 1.967 . S
Co340 O372 1.920 . S
Co341 O344 1.966 . S
Co341 N350 2.022 . S
Co341 N358 1.993 . S
Co341 O366 1.941 . S
C342 O343 1.258 . S
C342 O344 1.263 . S
O343 Co340 1.970 . S
O343 C342 1.258 . S
O344 Co341 1.966 . S
O344 C342 1.263 . S
C345 O346 1.235 . S
C345 O372 1.289 . S
O346 C345 1.235 . S
C347 C349 1.400 . S
C347 N350 1.351 . S
C347 C352 1.501 . S
C348 C349 1.387 . S
C348 N351 1.341 . S
C349 C347 1.400 . S
C349 C348 1.387 . S
N350 Co341 2.022 . S
N350 C347 1.351 . S
N350 N351 1.365 . S
N351 C348 1.341 . S
N351 N350 1.365 . S
N351 H371 0.862 . S
C352 C347 1.501 . S
C352 H353 0.961 . S
C352 H354 0.961 . S
C352 H355 0.960 . S
H353 C352 0.961 . S
H354 C352 0.961 . S
H355 C352 0.960 . S
C356 N357 1.342 . S
C356 C360 1.401 . S
C356 C361 1.499 . S
N357 Co340 1.989 . S
N357 C356 1.342 . S
N357 N358 1.388 . S
N358 Co341 1.993 . S
N358 N357 1.388 . S
N358 C359 1.346 . S
C359 N358 1.346 . S
C359 C360 1.396 . S
C359 C369 1.510 . S
C360 C356 1.401 . S
C360 C359 1.396 . S
C361 C356 1.499 . S
C361 H362 0.959 . S
C361 H363 0.960 . S
C361 H364 0.961 . S
H362 C361 0.959 . S
H363 C361 0.960 . S
H364 C361 0.961 . S
O365 Co340 1.967 . S
O365 C373 1.258 . S
O366 Co341 1.941 . S
O366 C373 1.266 . S
H367 C369 0.959 . S
H368 C369 0.961 . S
C369 C359 1.510 . S
C369 H367 0.959 . S
C369 H368 0.961 . S
C369 H370 0.960 . S
H370 C369 0.960 . S
H371 N351 0.862 . S
O372 Co340 1.920 . S
O372 C345 1.289 . S
C373 O365 1.258 . S
C373 O366 1.266 . S
Co374 O377 1.970 . S
Co374 N391 1.989 . S
Co374 O399 1.967 . S
Co374 O406 1.920 . S
Co375 O378 1.966 . S
Co375 N384 2.022 . S
Co375 N392 1.993 . S
Co375 O400 1.941 . S
C376 O377 1.258 . S
C376 O378 1.263 . S
O377 Co374 1.970 . S
O377 C376 1.258 . S
O378 Co375 1.966 . S
O378 C376 1.263 . S
C379 O380 1.235 . S
C379 O406 1.289 . S
O380 C379 1.235 . S
C381 C383 1.400 . S
C381 N384 1.351 . S
C381 C386 1.501 . S
C382 C383 1.387 . S
C382 N385 1.341 . S
C383 C381 1.400 . S
C383 C382 1.387 . S
N384 Co375 2.022 . S
N384 C381 1.351 . S
N384 N385 1.365 . S
N385 C382 1.341 . S
N385 N384 1.365 . S
N385 H405 0.862 . S
C386 C381 1.501 . S
C386 H387 0.961 . S
C386 H388 0.961 . S
C386 H389 0.960 . S
H387 C386 0.961 . S
H388 C386 0.961 . S
H389 C386 0.960 . S
C390 N391 1.342 . S
C390 C394 1.401 . S
C390 C395 1.499 . S
N391 Co374 1.989 . S
N391 C390 1.342 . S
N391 N392 1.388 . S
N392 Co375 1.993 . S
N392 N391 1.388 . S
N392 C393 1.346 . S
C393 N392 1.346 . S
C393 C394 1.396 . S
C393 C403 1.510 . S
C394 C390 1.401 . S
C394 C393 1.396 . S
C395 C390 1.499 . S
C395 H396 0.959 . S
C395 H397 0.960 . S
C395 H398 0.961 . S
H396 C395 0.959 . S
H397 C395 0.960 . S
H398 C395 0.961 . S
O399 Co374 1.967 . S
O399 C407 1.258 . S
O400 Co375 1.941 . S
O400 C407 1.266 . S
H401 C403 0.959 . S
H402 C403 0.961 . S
C403 C393 1.510 . S
C403 H401 0.959 . S
C403 H402 0.961 . S
C403 H404 0.960 . S
H404 C403 0.960 . S
H405 N385 0.862 . S
O406 Co374 1.920 . S
O406 C379 1.289 . S
C407 O399 1.258 . S
C407 O400 1.266 . S
Co408 O411 1.970 . S
Co408 N425 1.989 . S
Co408 O433 1.967 . S
Co408 O440 1.920 . S
Co409 O412 1.966 . S
Co409 N418 2.022 . S
Co409 N426 1.993 . S
Co409 O434 1.941 . S
C410 O411 1.258 . S
C410 O412 1.263 . S
O411 Co408 1.970 . S
O411 C410 1.258 . S
O412 Co409 1.966 . S
O412 C410 1.263 . S
C413 O414 1.235 . S
C413 O440 1.289 . S
O414 C413 1.235 . S
C415 C417 1.400 . S
C415 N418 1.351 . S
C415 C420 1.501 . S
C416 C417 1.387 . S
C416 N419 1.341 . S
C417 C415 1.400 . S
C417 C416 1.387 . S
N418 Co409 2.022 . S
N418 C415 1.351 . S
N418 N419 1.365 . S
N419 C416 1.341 . S
N419 N418 1.365 . S
N419 H439 0.862 . S
C420 C415 1.501 . S
C420 H421 0.961 . S
C420 H422 0.961 . S
C420 H423 0.960 . S
H421 C420 0.961 . S
H422 C420 0.961 . S
H423 C420 0.960 . S
C424 N425 1.342 . S
C424 C428 1.401 . S
C424 C429 1.499 . S
N425 Co408 1.989 . S
N425 C424 1.342 . S
N425 N426 1.388 . S
N426 Co409 1.993 . S
N426 N425 1.388 . S
N426 C427 1.346 . S
C427 N426 1.346 . S
C427 C428 1.396 . S
C427 C437 1.510 . S
C428 C424 1.401 . S
C428 C427 1.396 . S
C429 C424 1.499 . S
C429 H430 0.959 . S
C429 H431 0.960 . S
C429 H432 0.961 . S
H430 C429 0.959 . S
H431 C429 0.960 . S
H432 C429 0.961 . S
O433 Co408 1.967 . S
O433 C441 1.258 . S
O434 Co409 1.941 . S
O434 C441 1.266 . S
H435 C437 0.959 . S
H436 C437 0.961 . S
C437 C427 1.510 . S
C437 H435 0.959 . S
C437 H436 0.961 . S
C437 H438 0.960 . S
H438 C437 0.960 . S
H439 N419 0.862 . S
O440 Co408 1.920 . S
O440 C413 1.289 . S
C441 O433 1.258 . S
C441 O434 1.266 . S
Co442 O445 1.970 . S
Co442 N459 1.989 . S
Co442 O467 1.967 . S
Co442 O474 1.920 . S
Co443 O446 1.966 . S
Co443 N452 2.022 . S
Co443 N460 1.993 . S
Co443 O468 1.941 . S
C444 O445 1.258 . S
C444 O446 1.263 . S
O445 Co442 1.970 . S
O445 C444 1.258 . S
O446 Co443 1.966 . S
O446 C444 1.263 . S
C447 O448 1.235 . S
C447 O474 1.289 . S
O448 C447 1.235 . S
C449 C451 1.400 . S
C449 N452 1.351 . S
C449 C454 1.501 . S
C450 C451 1.387 . S
C450 N453 1.341 . S
C451 C449 1.400 . S
C451 C450 1.387 . S
N452 Co443 2.022 . S
N452 C449 1.351 . S
N452 N453 1.365 . S
N453 C450 1.341 . S
N453 N452 1.365 . S
N453 H473 0.862 . S
C454 C449 1.501 . S
C454 H455 0.961 . S
C454 H456 0.961 . S
C454 H457 0.960 . S
H455 C454 0.961 . S
H456 C454 0.961 . S
H457 C454 0.960 . S
C458 N459 1.342 . S
C458 C462 1.401 . S
C458 C463 1.499 . S
N459 Co442 1.989 . S
N459 C458 1.342 . S
N459 N460 1.388 . S
N460 Co443 1.993 . S
N460 N459 1.388 . S
N460 C461 1.346 . S
C461 N460 1.346 . S
C461 C462 1.396 . S
C461 C471 1.510 . S
C462 C458 1.401 . S
C462 C461 1.396 . S
C463 C458 1.499 . S
C463 H464 0.959 . S
C463 H465 0.960 . S
C463 H466 0.961 . S
H464 C463 0.959 . S
H465 C463 0.960 . S
H466 C463 0.961 . S
O467 Co442 1.967 . S
O467 C475 1.258 . S
O468 Co443 1.941 . S
O468 C475 1.266 . S
H469 C471 0.959 . S
H470 C471 0.961 . S
C471 C461 1.510 . S
C471 H469 0.959 . S
C471 H470 0.961 . S
C471 H472 0.960 . S
H472 C471 0.960 . S
H473 N453 0.862 . S
O474 Co442 1.920 . S
O474 C447 1.289 . S
C475 O467 1.258 . S
C475 O468 1.266 . S
Co476 O479 1.970 . S
Co476 N493 1.989 . S
Co476 O501 1.967 . S
Co476 O508 1.920 . S
Co477 O480 1.966 . S
Co477 N486 2.022 . S
Co477 N494 1.993 . S
Co477 O502 1.941 . S
C478 O479 1.258 . S
C478 O480 1.263 . S
O479 Co476 1.970 . S
O479 C478 1.258 . S
O480 Co477 1.966 . S
O480 C478 1.263 . S
C481 O482 1.235 . S
C481 O508 1.289 . S
O482 C481 1.235 . S
C483 C485 1.400 . S
C483 N486 1.351 . S
C483 C488 1.501 . S
C484 C485 1.387 . S
C484 N487 1.341 . S
C485 C483 1.400 . S
C485 C484 1.387 . S
N486 Co477 2.022 . S
N486 C483 1.351 . S
N486 N487 1.365 . S
N487 C484 1.341 . S
N487 N486 1.365 . S
N487 H507 0.862 . S
C488 C483 1.501 . S
C488 H489 0.961 . S
C488 H490 0.961 . S
C488 H491 0.960 . S
H489 C488 0.961 . S
H490 C488 0.961 . S
H491 C488 0.960 . S
C492 N493 1.342 . S
C492 C496 1.401 . S
C492 C497 1.499 . S
N493 Co476 1.989 . S
N493 C492 1.342 . S
N493 N494 1.388 . S
N494 Co477 1.993 . S
N494 N493 1.388 . S
N494 C495 1.346 . S
C495 N494 1.346 . S
C495 C496 1.396 . S
C495 C505 1.510 . S
C496 C492 1.401 . S
C496 C495 1.396 . S
C497 C492 1.499 . S
C497 H498 0.959 . S
C497 H499 0.960 . S
C497 H500 0.961 . S
H498 C497 0.959 . S
H499 C497 0.960 . S
H500 C497 0.961 . S
O501 Co476 1.967 . S
O501 C509 1.258 . S
O502 Co477 1.941 . S
O502 C509 1.266 . S
H503 C505 0.959 . S
H504 C505 0.961 . S
C505 C495 1.510 . S
C505 H503 0.959 . S
C505 H504 0.961 . S
C505 H506 0.960 . S
H506 C505 0.960 . S
H507 N487 0.862 . S
O508 Co476 1.920 . S
O508 C481 1.289 . S
C509 O501 1.258 . S
C509 O502 1.266 . S
Co510 O513 1.970 . S
Co510 N527 1.989 . S
Co510 O535 1.967 . S
Co510 O542 1.920 . S
Co511 O514 1.966 . S
Co511 N520 2.022 . S
Co511 N528 1.993 . S
Co511 O536 1.941 . S
C512 O513 1.258 . S
C512 O514 1.263 . S
O513 Co510 1.970 . S
O513 C512 1.258 . S
O514 Co511 1.966 . S
O514 C512 1.263 . S
C515 O516 1.235 . S
C515 O542 1.289 . S
O516 C515 1.235 . S
C517 C519 1.400 . S
C517 N520 1.351 . S
C517 C522 1.501 . S
C518 C519 1.387 . S
C518 N521 1.341 . S
C519 C517 1.400 . S
C519 C518 1.387 . S
N520 Co511 2.022 . S
N520 C517 1.351 . S
N520 N521 1.365 . S
N521 C518 1.341 . S
N521 N520 1.365 . S
N521 H541 0.862 . S
C522 C517 1.501 . S
C522 H523 0.961 . S
C522 H524 0.961 . S
C522 H525 0.960 . S
H523 C522 0.961 . S
H524 C522 0.961 . S
H525 C522 0.960 . S
C526 N527 1.342 . S
C526 C530 1.401 . S
C526 C531 1.499 . S
N527 Co510 1.989 . S
N527 C526 1.342 . S
N527 N528 1.388 . S
N528 Co511 1.993 . S
N528 N527 1.388 . S
N528 C529 1.346 . S
C529 N528 1.346 . S
C529 C530 1.396 . S
C529 C539 1.510 . S
C530 C526 1.401 . S
C530 C529 1.396 . S
C531 C526 1.499 . S
C531 H532 0.959 . S
C531 H533 0.960 . S
C531 H534 0.961 . S
H532 C531 0.959 . S
H533 C531 0.960 . S
H534 C531 0.961 . S
O535 Co510 1.967 . S
O535 C543 1.258 . S
O536 Co511 1.941 . S
O536 C543 1.266 . S
H537 C539 0.959 . S
H538 C539 0.961 . S
C539 C529 1.510 . S
C539 H537 0.959 . S
C539 H538 0.961 . S
C539 H540 0.960 . S
H540 C539 0.960 . S
H541 N521 0.862 . S
O542 Co510 1.920 . S
O542 C515 1.289 . S
C543 O535 1.258 . S
C543 O536 1.266 . S
Co544 O547 1.970 . S
Co544 N561 1.989 . S
Co544 O569 1.967 . S
Co544 O576 1.920 . S
Co545 O548 1.966 . S
Co545 N554 2.022 . S
Co545 N562 1.993 . S
Co545 O570 1.941 . S
C546 O547 1.258 . S
C546 O548 1.263 . S
O547 Co544 1.970 . S
O547 C546 1.258 . S
O548 Co545 1.966 . S
O548 C546 1.263 . S
C549 O550 1.235 . S
C549 O576 1.289 . S
O550 C549 1.235 . S
C551 C553 1.400 . S
C551 N554 1.351 . S
C551 C556 1.501 . S
C552 C553 1.387 . S
C552 N555 1.341 . S
C553 C551 1.400 . S
C553 C552 1.387 . S
N554 Co545 2.022 . S
N554 C551 1.351 . S
N554 N555 1.365 . S
N555 C552 1.341 . S
N555 N554 1.365 . S
N555 H575 0.862 . S
C556 C551 1.501 . S
C556 H557 0.961 . S
C556 H558 0.961 . S
C556 H559 0.960 . S
H557 C556 0.961 . S
H558 C556 0.961 . S
H559 C556 0.960 . S
C560 N561 1.342 . S
C560 C564 1.401 . S
C560 C565 1.499 . S
N561 Co544 1.989 . S
N561 C560 1.342 . S
N561 N562 1.388 . S
N562 Co545 1.993 . S
N562 N561 1.388 . S
N562 C563 1.346 . S
C563 N562 1.346 . S
C563 C564 1.396 . S
C563 C573 1.510 . S
C564 C560 1.401 . S
C564 C563 1.396 . S
C565 C560 1.499 . S
C565 H566 0.959 . S
C565 H567 0.960 . S
C565 H568 0.961 . S
H566 C565 0.959 . S
H567 C565 0.960 . S
H568 C565 0.961 . S
O569 Co544 1.967 . S
O569 C577 1.258 . S
O570 Co545 1.941 . S
O570 C577 1.266 . S
H571 C573 0.959 . S
H572 C573 0.961 . S
C573 C563 1.510 . S
C573 H571 0.959 . S
C573 H572 0.961 . S
C573 H574 0.960 . S
H574 C573 0.960 . S
H575 N555 0.862 . S
O576 Co544 1.920 . S
O576 C549 1.289 . S
C577 O569 1.258 . S
C577 O570 1.266 . S
Co578 O581 1.970 . S
Co578 N595 1.989 . S
Co578 O603 1.967 . S
Co578 O610 1.920 . S
Co579 O582 1.966 . S
Co579 N588 2.022 . S
Co579 N596 1.993 . S
Co579 O604 1.941 . S
C580 O581 1.258 . S
C580 O582 1.263 . S
O581 Co578 1.970 . S
O581 C580 1.258 . S
O582 Co579 1.966 . S
O582 C580 1.263 . S
C583 O584 1.235 . S
C583 O610 1.289 . S
O584 C583 1.235 . S
C585 C587 1.400 . S
C585 N588 1.351 . S
C585 C590 1.501 . S
C586 C587 1.387 . S
C586 N589 1.341 . S
C587 C585 1.400 . S
C587 C586 1.387 . S
N588 Co579 2.022 . S
N588 C585 1.351 . S
N588 N589 1.365 . S
N589 C586 1.341 . S
N589 N588 1.365 . S
N589 H609 0.862 . S
C590 C585 1.501 . S
C590 H591 0.961 . S
C590 H592 0.961 . S
C590 H593 0.960 . S
H591 C590 0.961 . S
H592 C590 0.961 . S
H593 C590 0.960 . S
C594 N595 1.342 . S
C594 C598 1.401 . S
C594 C599 1.499 . S
N595 Co578 1.989 . S
N595 C594 1.342 . S
N595 N596 1.388 . S
N596 Co579 1.993 . S
N596 N595 1.388 . S
N596 C597 1.346 . S
C597 N596 1.346 . S
C597 C598 1.396 . S
C597 C607 1.510 . S
C598 C594 1.401 . S
C598 C597 1.396 . S
C599 C594 1.499 . S
C599 H600 0.959 . S
C599 H601 0.960 . S
C599 H602 0.961 . S
H600 C599 0.959 . S
H601 C599 0.960 . S
H602 C599 0.961 . S
O603 Co578 1.967 . S
O603 C611 1.258 . S
O604 Co579 1.941 . S
O604 C611 1.266 . S
H605 C607 0.959 . S
H606 C607 0.961 . S
C607 C597 1.510 . S
C607 H605 0.959 . S
C607 H606 0.961 . S
C607 H608 0.960 . S
H608 C607 0.960 . S
H609 N589 0.862 . S
O610 Co578 1.920 . S
O610 C583 1.289 . S
C611 O603 1.258 . S
C611 O604 1.266 . S
Co612 O615 1.970 . S
Co612 N629 1.989 . S
Co612 O637 1.967 . S
Co612 O644 1.920 . S
Co613 O616 1.966 . S
Co613 N622 2.022 . S
Co613 N630 1.993 . S
Co613 O638 1.941 . S
C614 O615 1.258 . S
C614 O616 1.263 . S
O615 Co612 1.970 . S
O615 C614 1.258 . S
O616 Co613 1.966 . S
O616 C614 1.263 . S
C617 O618 1.235 . S
C617 O644 1.289 . S
O618 C617 1.235 . S
C619 C621 1.400 . S
C619 N622 1.351 . S
C619 C624 1.501 . S
C620 C621 1.387 . S
C620 N623 1.341 . S
C621 C619 1.400 . S
C621 C620 1.387 . S
N622 Co613 2.022 . S
N622 C619 1.351 . S
N622 N623 1.365 . S
N623 C620 1.341 . S
N623 N622 1.365 . S
N623 H643 0.862 . S
C624 C619 1.501 . S
C624 H625 0.961 . S
C624 H626 0.961 . S
C624 H627 0.960 . S
H625 C624 0.961 . S
H626 C624 0.961 . S
H627 C624 0.960 . S
C628 N629 1.342 . S
C628 C632 1.401 . S
C628 C633 1.499 . S
N629 Co612 1.989 . S
N629 C628 1.342 . S
N629 N630 1.388 . S
N630 Co613 1.993 . S
N630 N629 1.388 . S
N630 C631 1.346 . S
C631 N630 1.346 . S
C631 C632 1.396 . S
C631 C641 1.510 . S
C632 C628 1.401 . S
C632 C631 1.396 . S
C633 C628 1.499 . S
C633 H634 0.959 . S
C633 H635 0.960 . S
C633 H636 0.961 . S
H634 C633 0.959 . S
H635 C633 0.960 . S
H636 C633 0.961 . S
O637 Co612 1.967 . S
O637 C645 1.258 . S
O638 Co613 1.941 . S
O638 C645 1.266 . S
H639 C641 0.959 . S
H640 C641 0.961 . S
C641 C631 1.510 . S
C641 H639 0.959 . S
C641 H640 0.961 . S
C641 H642 0.960 . S
H642 C641 0.960 . S
H643 N623 0.862 . S
O644 Co612 1.920 . S
O644 C617 1.289 . S
C645 O637 1.258 . S
C645 O638 1.266 . S
Co646 O649 1.970 . S
Co646 N663 1.989 . S
Co646 O671 1.967 . S
Co646 O678 1.920 . S
Co647 O650 1.966 . S
Co647 N656 2.022 . S
Co647 N664 1.993 . S
Co647 O672 1.941 . S
C648 O649 1.258 . S
C648 O650 1.263 . S
O649 Co646 1.970 . S
O649 C648 1.258 . S
O650 Co647 1.966 . S
O650 C648 1.263 . S
C651 O652 1.235 . S
C651 O678 1.289 . S
O652 C651 1.235 . S
C653 C655 1.400 . S
C653 N656 1.351 . S
C653 C658 1.501 . S
C654 C655 1.387 . S
C654 N657 1.341 . S
C655 C653 1.400 . S
C655 C654 1.387 . S
N656 Co647 2.022 . S
N656 C653 1.351 . S
N656 N657 1.365 . S
N657 C654 1.341 . S
N657 N656 1.365 . S
N657 H677 0.862 . S
C658 C653 1.501 . S
C658 H659 0.961 . S
C658 H660 0.961 . S
C658 H661 0.960 . S
H659 C658 0.961 . S
H660 C658 0.961 . S
H661 C658 0.960 . S
C662 N663 1.342 . S
C662 C666 1.401 . S
C662 C667 1.499 . S
N663 Co646 1.989 . S
N663 C662 1.342 . S
N663 N664 1.388 . S
N664 Co647 1.993 . S
N664 N663 1.388 . S
N664 C665 1.346 . S
C665 N664 1.346 . S
C665 C666 1.396 . S
C665 C675 1.510 . S
C666 C662 1.401 . S
C666 C665 1.396 . S
C667 C662 1.499 . S
C667 H668 0.959 . S
C667 H669 0.960 . S
C667 H670 0.961 . S
H668 C667 0.959 . S
H669 C667 0.960 . S
H670 C667 0.961 . S
O671 Co646 1.967 . S
O671 C679 1.258 . S
O672 Co647 1.941 . S
O672 C679 1.266 . S
H673 C675 0.959 . S
H674 C675 0.961 . S
C675 C665 1.510 . S
C675 H673 0.959 . S
C675 H674 0.961 . S
C675 H676 0.960 . S
H676 C675 0.960 . S
H677 N657 0.862 . S
O678 Co646 1.920 . S
O678 C651 1.289 . S
C679 O671 1.258 . S
C679 O672 1.266 . S
Co680 O683 1.970 . S
Co680 N697 1.989 . S
Co680 O705 1.967 . S
Co680 O712 1.920 . S
Co681 O684 1.966 . S
Co681 N690 2.022 . S
Co681 N698 1.993 . S
Co681 O706 1.941 . S
C682 O683 1.258 . S
C682 O684 1.263 . S
O683 Co680 1.970 . S
O683 C682 1.258 . S
O684 Co681 1.966 . S
O684 C682 1.263 . S
C685 O686 1.235 . S
C685 O712 1.289 . S
O686 C685 1.235 . S
C687 C689 1.400 . S
C687 N690 1.351 . S
C687 C692 1.501 . S
C688 C689 1.387 . S
C688 N691 1.341 . S
C689 C687 1.400 . S
C689 C688 1.387 . S
N690 Co681 2.022 . S
N690 C687 1.351 . S
N690 N691 1.365 . S
N691 C688 1.341 . S
N691 N690 1.365 . S
N691 H711 0.862 . S
C692 C687 1.501 . S
C692 H693 0.961 . S
C692 H694 0.961 . S
C692 H695 0.960 . S
H693 C692 0.961 . S
H694 C692 0.961 . S
H695 C692 0.960 . S
C696 N697 1.342 . S
C696 C700 1.401 . S
C696 C701 1.499 . S
N697 Co680 1.989 . S
N697 C696 1.342 . S
N697 N698 1.388 . S
N698 Co681 1.993 . S
N698 N697 1.388 . S
N698 C699 1.346 . S
C699 N698 1.346 . S
C699 C700 1.396 . S
C699 C709 1.510 . S
C700 C696 1.401 . S
C700 C699 1.396 . S
C701 C696 1.499 . S
C701 H702 0.959 . S
C701 H703 0.960 . S
C701 H704 0.961 . S
H702 C701 0.959 . S
H703 C701 0.960 . S
H704 C701 0.961 . S
O705 Co680 1.967 . S
O705 C713 1.258 . S
O706 Co681 1.941 . S
O706 C713 1.266 . S
H707 C709 0.959 . S
H708 C709 0.961 . S
C709 C699 1.510 . S
C709 H707 0.959 . S
C709 H708 0.961 . S
C709 H710 0.960 . S
H710 C709 0.960 . S
H711 N691 0.862 . S
O712 Co680 1.920 . S
O712 C685 1.289 . S
C713 O705 1.258 . S
C713 O706 1.266 . S
Co714 O717 1.970 . S
Co714 N731 1.989 . S
Co714 O739 1.967 . S
Co714 O746 1.920 . S
Co715 O718 1.966 . S
Co715 N724 2.022 . S
Co715 N732 1.993 . S
Co715 O740 1.941 . S
C716 O717 1.258 . S
C716 O718 1.263 . S
O717 Co714 1.970 . S
O717 C716 1.258 . S
O718 Co715 1.966 . S
O718 C716 1.263 . S
C719 O720 1.235 . S
C719 O746 1.289 . S
O720 C719 1.235 . S
C721 C723 1.400 . S
C721 N724 1.351 . S
C721 C726 1.501 . S
C722 C723 1.387 . S
C722 N725 1.341 . S
C723 C721 1.400 . S
C723 C722 1.387 . S
N724 Co715 2.022 . S
N724 C721 1.351 . S
N724 N725 1.365 . S
N725 C722 1.341 . S
N725 N724 1.365 . S
N725 H745 0.862 . S
C726 C721 1.501 . S
C726 H727 0.961 . S
C726 H728 0.961 . S
C726 H729 0.960 . S
H727 C726 0.961 . S
H728 C726 0.961 . S
H729 C726 0.960 . S
C730 N731 1.342 . S
C730 C734 1.401 . S
C730 C735 1.499 . S
N731 Co714 1.989 . S
N731 C730 1.342 . S
N731 N732 1.388 . S
N732 Co715 1.993 . S
N732 N731 1.388 . S
N732 C733 1.346 . S
C733 N732 1.346 . S
C733 C734 1.396 . S
C733 C743 1.510 . S
C734 C730 1.401 . S
C734 C733 1.396 . S
C735 C730 1.499 . S
C735 H736 0.959 . S
C735 H737 0.960 . S
C735 H738 0.961 . S
H736 C735 0.959 . S
H737 C735 0.960 . S
H738 C735 0.961 . S
O739 Co714 1.967 . S
O739 C747 1.258 . S
O740 Co715 1.941 . S
O740 C747 1.266 . S
H741 C743 0.959 . S
H742 C743 0.961 . S
C743 C733 1.510 . S
C743 H741 0.959 . S
C743 H742 0.961 . S
C743 H744 0.960 . S
H744 C743 0.960 . S
H745 N725 0.862 . S
O746 Co714 1.920 . S
O746 C719 1.289 . S
C747 O739 1.258 . S
C747 O740 1.266 . S
Co748 O751 1.970 . S
Co748 N765 1.989 . S
Co748 O773 1.967 . S
Co748 O780 1.920 . S
Co749 O752 1.966 . S
Co749 N758 2.022 . S
Co749 N766 1.993 . S
Co749 O774 1.941 . S
C750 O751 1.258 . S
C750 O752 1.263 . S
O751 Co748 1.970 . S
O751 C750 1.258 . S
O752 Co749 1.966 . S
O752 C750 1.263 . S
C753 O754 1.235 . S
C753 O780 1.289 . S
O754 C753 1.235 . S
C755 C757 1.400 . S
C755 N758 1.351 . S
C755 C760 1.501 . S
C756 C757 1.387 . S
C756 N759 1.341 . S
C757 C755 1.400 . S
C757 C756 1.387 . S
N758 Co749 2.022 . S
N758 C755 1.351 . S
N758 N759 1.365 . S
N759 C756 1.341 . S
N759 N758 1.365 . S
N759 H779 0.862 . S
C760 C755 1.501 . S
C760 H761 0.961 . S
C760 H762 0.961 . S
C760 H763 0.960 . S
H761 C760 0.961 . S
H762 C760 0.961 . S
H763 C760 0.960 . S
C764 N765 1.342 . S
C764 C768 1.401 . S
C764 C769 1.499 . S
N765 Co748 1.989 . S
N765 C764 1.342 . S
N765 N766 1.388 . S
N766 Co749 1.993 . S
N766 N765 1.388 . S
N766 C767 1.346 . S
C767 N766 1.346 . S
C767 C768 1.396 . S
C767 C777 1.510 . S
C768 C764 1.401 . S
C768 C767 1.396 . S
C769 C764 1.499 . S
C769 H770 0.959 . S
C769 H771 0.960 . S
C769 H772 0.961 . S
H770 C769 0.959 . S
H771 C769 0.960 . S
H772 C769 0.961 . S
O773 Co748 1.967 . S
O773 C781 1.258 . S
O774 Co749 1.941 . S
O774 C781 1.266 . S
H775 C777 0.959 . S
H776 C777 0.961 . S
C777 C767 1.510 . S
C777 H775 0.959 . S
C777 H776 0.961 . S
C777 H778 0.960 . S
H778 C777 0.960 . S
H779 N759 0.862 . S
O780 Co748 1.920 . S
O780 C753 1.289 . S
C781 O773 1.258 . S
C781 O774 1.266 . S
Co782 O785 1.970 . S
Co782 N799 1.989 . S
Co782 O807 1.967 . S
Co782 O814 1.920 . S
Co783 O786 1.966 . S
Co783 N792 2.022 . S
Co783 N800 1.993 . S
Co783 O808 1.941 . S
C784 O785 1.258 . S
C784 O786 1.263 . S
O785 Co782 1.970 . S
O785 C784 1.258 . S
O786 Co783 1.966 . S
O786 C784 1.263 . S
C787 O788 1.235 . S
C787 O814 1.289 . S
O788 C787 1.235 . S
C789 C791 1.400 . S
C789 N792 1.351 . S
C789 C794 1.501 . S
C790 C791 1.387 . S
C790 N793 1.341 . S
C791 C789 1.400 . S
C791 C790 1.387 . S
N792 Co783 2.022 . S
N792 C789 1.351 . S
N792 N793 1.365 . S
N793 C790 1.341 . S
N793 N792 1.365 . S
N793 H813 0.862 . S
C794 C789 1.501 . S
C794 H795 0.961 . S
C794 H796 0.961 . S
C794 H797 0.960 . S
H795 C794 0.961 . S
H796 C794 0.961 . S
H797 C794 0.960 . S
C798 N799 1.342 . S
C798 C802 1.401 . S
C798 C803 1.499 . S
N799 Co782 1.989 . S
N799 C798 1.342 . S
N799 N800 1.388 . S
N800 Co783 1.993 . S
N800 N799 1.388 . S
N800 C801 1.346 . S
C801 N800 1.346 . S
C801 C802 1.396 . S
C801 C811 1.510 . S
C802 C798 1.401 . S
C802 C801 1.396 . S
C803 C798 1.499 . S
C803 H804 0.959 . S
C803 H805 0.960 . S
C803 H806 0.961 . S
H804 C803 0.959 . S
H805 C803 0.960 . S
H806 C803 0.961 . S
O807 Co782 1.967 . S
O807 C815 1.258 . S
O808 Co783 1.941 . S
O808 C815 1.266 . S
H809 C811 0.959 . S
H810 C811 0.961 . S
C811 C801 1.510 . S
C811 H809 0.959 . S
C811 H810 0.961 . S
C811 H812 0.960 . S
H812 C811 0.960 . S
H813 N793 0.862 . S
O814 Co782 1.920 . S
O814 C787 1.289 . S
C815 O807 1.258 . S
C815 O808 1.266 . S
Co816 O819 1.970 . S
Co816 N833 1.989 . S
Co816 O841 1.967 . S
Co816 O848 1.920 . S
Co817 O820 1.966 . S
Co817 N826 2.022 . S
Co817 N834 1.993 . S
Co817 O842 1.941 . S
C818 O819 1.258 . S
C818 O820 1.263 . S
O819 Co816 1.970 . S
O819 C818 1.258 . S
O820 Co817 1.966 . S
O820 C818 1.263 . S
C821 O822 1.235 . S
C821 O848 1.289 . S
O822 C821 1.235 . S
C823 C825 1.400 . S
C823 N826 1.351 . S
C823 C828 1.501 . S
C824 C825 1.387 . S
C824 N827 1.341 . S
C825 C823 1.400 . S
C825 C824 1.387 . S
N826 Co817 2.022 . S
N826 C823 1.351 . S
N826 N827 1.365 . S
N827 C824 1.341 . S
N827 N826 1.365 . S
N827 H847 0.862 . S
C828 C823 1.501 . S
C828 H829 0.961 . S
C828 H830 0.961 . S
C828 H831 0.960 . S
H829 C828 0.961 . S
H830 C828 0.961 . S
H831 C828 0.960 . S
C832 N833 1.342 . S
C832 C836 1.401 . S
C832 C837 1.499 . S
N833 Co816 1.989 . S
N833 C832 1.342 . S
N833 N834 1.388 . S
N834 Co817 1.993 . S
N834 N833 1.388 . S
N834 C835 1.346 . S
C835 N834 1.346 . S
C835 C836 1.396 . S
C835 C845 1.510 . S
C836 C832 1.401 . S
C836 C835 1.396 . S
C837 C832 1.499 . S
C837 H838 0.959 . S
C837 H839 0.960 . S
C837 H840 0.961 . S
H838 C837 0.959 . S
H839 C837 0.960 . S
H840 C837 0.961 . S
O841 Co816 1.967 . S
O841 C849 1.258 . S
O842 Co817 1.941 . S
O842 C849 1.266 . S
H843 C845 0.959 . S
H844 C845 0.961 . S
C845 C835 1.510 . S
C845 H843 0.959 . S
C845 H844 0.961 . S
C845 H846 0.960 . S
H846 C845 0.960 . S
H847 N827 0.862 . S
O848 Co816 1.920 . S
O848 C821 1.289 . S
C849 O841 1.258 . S
C849 O842 1.266 . S
Co850 O853 1.970 . S
Co850 N867 1.989 . S
Co850 O875 1.967 . S
Co850 O882 1.920 . S
Co851 O854 1.966 . S
Co851 N860 2.022 . S
Co851 N868 1.993 . S
Co851 O876 1.941 . S
C852 O853 1.258 . S
C852 O854 1.263 . S
O853 Co850 1.970 . S
O853 C852 1.258 . S
O854 Co851 1.966 . S
O854 C852 1.263 . S
C855 O856 1.235 . S
C855 O882 1.289 . S
O856 C855 1.235 . S
C857 C859 1.400 . S
C857 N860 1.351 . S
C857 C862 1.501 . S
C858 C859 1.387 . S
C858 N861 1.341 . S
C859 C857 1.400 . S
C859 C858 1.387 . S
N860 Co851 2.022 . S
N860 C857 1.351 . S
N860 N861 1.365 . S
N861 C858 1.341 . S
N861 N860 1.365 . S
N861 H881 0.862 . S
C862 C857 1.501 . S
C862 H863 0.961 . S
C862 H864 0.961 . S
C862 H865 0.960 . S
H863 C862 0.961 . S
H864 C862 0.961 . S
H865 C862 0.960 . S
C866 N867 1.342 . S
C866 C870 1.401 . S
C866 C871 1.499 . S
N867 Co850 1.989 . S
N867 C866 1.342 . S
N867 N868 1.388 . S
N868 Co851 1.993 . S
N868 N867 1.388 . S
N868 C869 1.346 . S
C869 N868 1.346 . S
C869 C870 1.396 . S
C869 C879 1.510 . S
C870 C866 1.401 . S
C870 C869 1.396 . S
C871 C866 1.499 . S
C871 H872 0.959 . S
C871 H873 0.960 . S
C871 H874 0.961 . S
H872 C871 0.959 . S
H873 C871 0.960 . S
H874 C871 0.961 . S
O875 Co850 1.967 . S
O875 C883 1.258 . S
O876 Co851 1.941 . S
O876 C883 1.266 . S
H877 C879 0.959 . S
H878 C879 0.961 . S
C879 C869 1.510 . S
C879 H877 0.959 . S
C879 H878 0.961 . S
C879 H880 0.960 . S
H880 C879 0.960 . S
H881 N861 0.862 . S
O882 Co850 1.920 . S
O882 C855 1.289 . S
C883 O875 1.258 . S
C883 O876 1.266 . S
Co884 O887 1.970 . S
Co884 N901 1.989 . S
Co884 O909 1.967 . S
Co884 O916 1.920 . S
Co885 O888 1.966 . S
Co885 N894 2.022 . S
Co885 N902 1.993 . S
Co885 O910 1.941 . S
C886 O887 1.258 . S
C886 O888 1.263 . S
O887 Co884 1.970 . S
O887 C886 1.258 . S
O888 Co885 1.966 . S
O888 C886 1.263 . S
C889 O890 1.235 . S
C889 O916 1.289 . S
O890 C889 1.235 . S
C891 C893 1.400 . S
C891 N894 1.351 . S
C891 C896 1.501 . S
C892 C893 1.387 . S
C892 N895 1.341 . S
C893 C891 1.400 . S
C893 C892 1.387 . S
N894 Co885 2.022 . S
N894 C891 1.351 . S
N894 N895 1.365 . S
N895 C892 1.341 . S
N895 N894 1.365 . S
N895 H915 0.862 . S
C896 C891 1.501 . S
C896 H897 0.961 . S
C896 H898 0.961 . S
C896 H899 0.960 . S
H897 C896 0.961 . S
H898 C896 0.961 . S
H899 C896 0.960 . S
C900 N901 1.342 . S
C900 C904 1.401 . S
C900 C905 1.499 . S
N901 Co884 1.989 . S
N901 C900 1.342 . S
N901 N902 1.388 . S
N902 Co885 1.993 . S
N902 N901 1.388 . S
N902 C903 1.346 . S
C903 N902 1.346 . S
C903 C904 1.396 . S
C903 C913 1.510 . S
C904 C900 1.401 . S
C904 C903 1.396 . S
C905 C900 1.499 . S
C905 H906 0.959 . S
C905 H907 0.960 . S
C905 H908 0.961 . S
H906 C905 0.959 . S
H907 C905 0.960 . S
H908 C905 0.961 . S
O909 Co884 1.967 . S
O909 C917 1.258 . S
O910 Co885 1.941 . S
O910 C917 1.266 . S
H911 C913 0.959 . S
H912 C913 0.961 . S
C913 C903 1.510 . S
C913 H911 0.959 . S
C913 H912 0.961 . S
C913 H914 0.960 . S
H914 C913 0.960 . S
H915 N895 0.862 . S
O916 Co884 1.920 . S
O916 C889 1.289 . S
C917 O909 1.258 . S
C917 O910 1.266 . S
Co918 O921 1.970 . S
Co918 N935 1.989 . S
Co918 O943 1.967 . S
Co918 O950 1.920 . S
Co919 O922 1.966 . S
Co919 N928 2.022 . S
Co919 N936 1.993 . S
Co919 O944 1.941 . S
C920 O921 1.258 . S
C920 O922 1.263 . S
O921 Co918 1.970 . S
O921 C920 1.258 . S
O922 Co919 1.966 . S
O922 C920 1.263 . S
C923 O924 1.235 . S
C923 O950 1.289 . S
O924 C923 1.235 . S
C925 C927 1.400 . S
C925 N928 1.351 . S
C925 C930 1.501 . S
C926 C927 1.387 . S
C926 N929 1.341 . S
C927 C925 1.400 . S
C927 C926 1.387 . S
N928 Co919 2.022 . S
N928 C925 1.351 . S
N928 N929 1.365 . S
N929 C926 1.341 . S
N929 N928 1.365 . S
N929 H949 0.862 . S
C930 C925 1.501 . S
C930 H931 0.961 . S
C930 H932 0.961 . S
C930 H933 0.960 . S
H931 C930 0.961 . S
H932 C930 0.961 . S
H933 C930 0.960 . S
C934 N935 1.342 . S
C934 C938 1.401 . S
C934 C939 1.499 . S
N935 Co918 1.989 . S
N935 C934 1.342 . S
N935 N936 1.388 . S
N936 Co919 1.993 . S
N936 N935 1.388 . S
N936 C937 1.346 . S
C937 N936 1.346 . S
C937 C938 1.396 . S
C937 C947 1.510 . S
C938 C934 1.401 . S
C938 C937 1.396 . S
C939 C934 1.499 . S
C939 H940 0.959 . S
C939 H941 0.960 . S
C939 H942 0.961 . S
H940 C939 0.959 . S
H941 C939 0.960 . S
H942 C939 0.961 . S
O943 Co918 1.967 . S
O943 C951 1.258 . S
O944 Co919 1.941 . S
O944 C951 1.266 . S
H945 C947 0.959 . S
H946 C947 0.961 . S
C947 C937 1.510 . S
C947 H945 0.959 . S
C947 H946 0.961 . S
C947 H948 0.960 . S
H948 C947 0.960 . S
H949 N929 0.862 . S
O950 Co918 1.920 . S
O950 C923 1.289 . S
C951 O943 1.258 . S
C951 O944 1.266 . S
Co952 O955 1.970 . S
Co952 N969 1.989 . S
Co952 O977 1.967 . S
Co952 O984 1.920 . S
Co953 O956 1.966 . S
Co953 N962 2.022 . S
Co953 N970 1.993 . S
Co953 O978 1.941 . S
C954 O955 1.258 . S
C954 O956 1.263 . S
O955 Co952 1.970 . S
O955 C954 1.258 . S
O956 Co953 1.966 . S
O956 C954 1.263 . S
C957 O958 1.235 . S
C957 O984 1.289 . S
O958 C957 1.235 . S
C959 C961 1.400 . S
C959 N962 1.351 . S
C959 C964 1.501 . S
C960 C961 1.387 . S
C960 N963 1.341 . S
C961 C959 1.400 . S
C961 C960 1.387 . S
N962 Co953 2.022 . S
N962 C959 1.351 . S
N962 N963 1.365 . S
N963 C960 1.341 . S
N963 N962 1.365 . S
N963 H983 0.862 . S
C964 C959 1.501 . S
C964 H965 0.961 . S
C964 H966 0.961 . S
C964 H967 0.960 . S
H965 C964 0.961 . S
H966 C964 0.961 . S
H967 C964 0.960 . S
C968 N969 1.342 . S
C968 C972 1.401 . S
C968 C973 1.499 . S
N969 Co952 1.989 . S
N969 C968 1.342 . S
N969 N970 1.388 . S
N970 Co953 1.993 . S
N970 N969 1.388 . S
N970 C971 1.346 . S
C971 N970 1.346 . S
C971 C972 1.396 . S
C971 C981 1.510 . S
C972 C968 1.401 . S
C972 C971 1.396 . S
C973 C968 1.499 . S
C973 H974 0.959 . S
C973 H975 0.960 . S
C973 H976 0.961 . S
H974 C973 0.959 . S
H975 C973 0.960 . S
H976 C973 0.961 . S
O977 Co952 1.967 . S
O977 C985 1.258 . S
O978 Co953 1.941 . S
O978 C985 1.266 . S
H979 C981 0.959 . S
H980 C981 0.961 . S
C981 C971 1.510 . S
C981 H979 0.959 . S
C981 H980 0.961 . S
C981 H982 0.960 . S
H982 C981 0.960 . S
H983 N963 0.862 . S
O984 Co952 1.920 . S
O984 C957 1.289 . S
C985 O977 1.258 . S
C985 O978 1.266 . S
Co986 O989 1.970 . S
Co986 N1003 1.989 . S
Co986 O1011 1.967 . S
Co986 O1018 1.920 . S
Co987 O990 1.966 . S
Co987 N996 2.022 . S
Co987 N1004 1.993 . S
Co987 O1012 1.941 . S
C988 O989 1.258 . S
C988 O990 1.263 . S
O989 Co986 1.970 . S
O989 C988 1.258 . S
O990 Co987 1.966 . S
O990 C988 1.263 . S
C991 O992 1.235 . S
C991 O1018 1.289 . S
O992 C991 1.235 . S
C993 C995 1.400 . S
C993 N996 1.351 . S
C993 C998 1.501 . S
C994 C995 1.387 . S
C994 N997 1.341 . S
C995 C993 1.400 . S
C995 C994 1.387 . S
N996 Co987 2.022 . S
N996 C993 1.351 . S
N996 N997 1.365 . S
N997 C994 1.341 . S
N997 N996 1.365 . S
N997 H1017 0.862 . S
C998 C993 1.501 . S
C998 H999 0.961 . S
C998 H1000 0.961 . S
C998 H1001 0.960 . S
H999 C998 0.961 . S
H1000 C998 0.961 . S
H1001 C998 0.960 . S
C1002 N1003 1.342 . S
C1002 C1006 1.401 . S
C1002 C1007 1.499 . S
N1003 Co986 1.989 . S
N1003 C1002 1.342 . S
N1003 N1004 1.388 . S
N1004 Co987 1.993 . S
N1004 N1003 1.388 . S
N1004 C1005 1.346 . S
C1005 N1004 1.346 . S
C1005 C1006 1.396 . S
C1005 C1015 1.510 . S
C1006 C1002 1.401 . S
C1006 C1005 1.396 . S
C1007 C1002 1.499 . S
C1007 H1008 0.959 . S
C1007 H1009 0.960 . S
C1007 H1010 0.961 . S
H1008 C1007 0.959 . S
H1009 C1007 0.960 . S
H1010 C1007 0.961 . S
O1011 Co986 1.967 . S
O1011 C1019 1.258 . S
O1012 Co987 1.941 . S
O1012 C1019 1.266 . S
H1013 C1015 0.959 . S
H1014 C1015 0.961 . S
C1015 C1005 1.510 . S
C1015 H1013 0.959 . S
C1015 H1014 0.961 . S
C1015 H1016 0.960 . S
H1016 C1015 0.960 . S
H1017 N997 0.862 . S
O1018 Co986 1.920 . S
O1018 C991 1.289 . S
C1019 O1011 1.258 . S
C1019 O1012 1.266 . S
Co1020 O1023 1.970 . S
Co1020 N1037 1.989 . S
Co1020 O1045 1.967 . S
Co1020 O1052 1.920 . S
Co1021 O1024 1.966 . S
Co1021 N1030 2.022 . S
Co1021 N1038 1.993 . S
Co1021 O1046 1.941 . S
C1022 O1023 1.258 . S
C1022 O1024 1.263 . S
O1023 Co1020 1.970 . S
O1023 C1022 1.258 . S
O1024 Co1021 1.966 . S
O1024 C1022 1.263 . S
C1025 O1026 1.235 . S
C1025 O1052 1.289 . S
O1026 C1025 1.235 . S
C1027 C1029 1.400 . S
C1027 N1030 1.351 . S
C1027 C1032 1.501 . S
C1028 C1029 1.387 . S
C1028 N1031 1.341 . S
C1029 C1027 1.400 . S
C1029 C1028 1.387 . S
N1030 Co1021 2.022 . S
N1030 C1027 1.351 . S
N1030 N1031 1.365 . S
N1031 C1028 1.341 . S
N1031 N1030 1.365 . S
N1031 H1051 0.862 . S
C1032 C1027 1.501 . S
C1032 H1033 0.961 . S
C1032 H1034 0.961 . S
C1032 H1035 0.960 . S
H1033 C1032 0.961 . S
H1034 C1032 0.961 . S
H1035 C1032 0.960 . S
C1036 N1037 1.342 . S
C1036 C1040 1.401 . S
C1036 C1041 1.499 . S
N1037 Co1020 1.989 . S
N1037 C1036 1.342 . S
N1037 N1038 1.388 . S
N1038 Co1021 1.993 . S
N1038 N1037 1.388 . S
N1038 C1039 1.346 . S
C1039 N1038 1.346 . S
C1039 C1040 1.396 . S
C1039 C1049 1.510 . S
C1040 C1036 1.401 . S
C1040 C1039 1.396 . S
C1041 C1036 1.499 . S
C1041 H1042 0.959 . S
C1041 H1043 0.960 . S
C1041 H1044 0.961 . S
H1042 C1041 0.959 . S
H1043 C1041 0.960 . S
H1044 C1041 0.961 . S
O1045 Co1020 1.967 . S
O1045 C1053 1.258 . S
O1046 Co1021 1.941 . S
O1046 C1053 1.266 . S
H1047 C1049 0.959 . S
H1048 C1049 0.961 . S
C1049 C1039 1.510 . S
C1049 H1047 0.959 . S
C1049 H1048 0.961 . S
C1049 H1050 0.960 . S
H1050 C1049 0.960 . S
H1051 N1031 0.862 . S
O1052 Co1020 1.920 . S
O1052 C1025 1.289 . S
C1053 O1045 1.258 . S
C1053 O1046 1.266 . S
Co1054 O1057 1.970 . S
Co1054 N1071 1.989 . S
Co1054 O1079 1.967 . S
Co1054 O1086 1.920 . S
Co1055 O1058 1.966 . S
Co1055 N1064 2.022 . S
Co1055 N1072 1.993 . S
Co1055 O1080 1.941 . S
C1056 O1057 1.258 . S
C1056 O1058 1.263 . S
O1057 Co1054 1.970 . S
O1057 C1056 1.258 . S
O1058 Co1055 1.966 . S
O1058 C1056 1.263 . S
C1059 O1060 1.235 . S
C1059 O1086 1.289 . S
O1060 C1059 1.235 . S
C1061 C1063 1.400 . S
C1061 N1064 1.351 . S
C1061 C1066 1.501 . S
C1062 C1063 1.387 . S
C1062 N1065 1.341 . S
C1063 C1061 1.400 . S
C1063 C1062 1.387 . S
N1064 Co1055 2.022 . S
N1064 C1061 1.351 . S
N1064 N1065 1.365 . S
N1065 C1062 1.341 . S
N1065 N1064 1.365 . S
N1065 H1085 0.862 . S
C1066 C1061 1.501 . S
C1066 H1067 0.961 . S
C1066 H1068 0.961 . S
C1066 H1069 0.960 . S
H1067 C1066 0.961 . S
H1068 C1066 0.961 . S
H1069 C1066 0.960 . S
C1070 N1071 1.342 . S
C1070 C1074 1.401 . S
C1070 C1075 1.499 . S
N1071 Co1054 1.989 . S
N1071 C1070 1.342 . S
N1071 N1072 1.388 . S
N1072 Co1055 1.993 . S
N1072 N1071 1.388 . S
N1072 C1073 1.346 . S
C1073 N1072 1.346 . S
C1073 C1074 1.396 . S
C1073 C1083 1.510 . S
C1074 C1070 1.401 . S
C1074 C1073 1.396 . S
C1075 C1070 1.499 . S
C1075 H1076 0.959 . S
C1075 H1077 0.960 . S
C1075 H1078 0.961 . S
H1076 C1075 0.959 . S
H1077 C1075 0.960 . S
H1078 C1075 0.961 . S
O1079 Co1054 1.967 . S
O1079 C1087 1.258 . S
O1080 Co1055 1.941 . S
O1080 C1087 1.266 . S
H1081 C1083 0.959 . S
H1082 C1083 0.961 . S
C1083 C1073 1.510 . S
C1083 H1081 0.959 . S
C1083 H1082 0.961 . S
C1083 H1084 0.960 . S
H1084 C1083 0.960 . S
H1085 N1065 0.862 . S
O1086 Co1054 1.920 . S
O1086 C1059 1.289 . S
C1087 O1079 1.258 . S
C1087 O1080 1.266 . S
C1088 C1089 1.391 . S
C1088 C1090 1.394 . S
C1088 H1104 0.931 . S
C1089 C1088 1.391 . S
C1089 C1093 1.376 . S
C1090 C1088 1.394 . S
C1090 C1091 1.369 . S
C1090 C1094 1.531 . S
C1091 C1090 1.369 . S
C1091 C1092 1.410 . S
C1091 C1099 1.503 . S
C1092 C1091 1.410 . S
C1092 C1093 1.392 . S
C1092 C1095 1.511 . S
C1093 C1089 1.376 . S
C1093 C1092 1.392 . S
C1093 H1105 0.929 . S
C1094 C1090 1.531 . S
C1094 H1106 0.960 . S
C1094 H1107 0.962 . S
C1094 H1108 0.960 . S
C1095 C1092 1.511 . S
C1095 H1109 0.961 . S
C1095 H1110 0.961 . S
C1095 H1111 0.961 . S
C1096 C1097 1.370 . S
C1096 C1098 1.363 . S
C1096 H1112 0.931 . S
C1097 C1096 1.370 . S
C1097 C1101 1.408 . S
C1098 C1096 1.363 . S
C1098 C1099 1.370 . S
C1098 C1102 1.524 . S
C1099 C1091 1.503 . S
C1099 C1098 1.370 . S
C1099 C1100 1.403 . S
C1100 C1099 1.403 . S
C1100 C1101 1.404 . S
C1100 C1103 1.539 . S
C1101 C1097 1.408 . S
C1101 C1100 1.404 . S
C1101 H1113 0.930 . S
C1102 C1098 1.524 . S
C1102 H1114 0.956 . S
C1102 H1115 0.961 . S
C1102 H1116 0.961 . S
C1103 C1100 1.539 . S
C1103 H1117 0.958 . S
C1103 H1118 0.961 . S
C1103 H1119 0.960 . S
H1104 C1088 0.931 . S
H1105 C1093 0.929 . S
H1106 C1094 0.960 . S
H1107 C1094 0.962 . S
H1108 C1094 0.960 . S
H1109 C1095 0.961 . S
H1110 C1095 0.961 . S
H1111 C1095 0.961 . S
H1112 C1096 0.931 . S
H1113 C1101 0.930 . S
H1114 C1102 0.956 . S
H1115 C1102 0.961 . S
H1116 C1102 0.961 . S
H1117 C1103 0.958 . S
H1118 C1103 0.961 . S
H1119 C1103 0.960 . S
C1120 C1121 1.391 . S
C1120 C1122 1.379 1_455 S
C1120 H1136 0.931 . S
C1121 C1120 1.391 . S
C1121 C1125 1.376 . S
C1122 C1120 1.379 1_655 S
C1122 C1123 1.354 1_655 S
C1122 C1126 1.561 . S
C1123 C1122 1.354 1_455 S
C1123 C1124 1.410 . S
C1123 C1131 1.503 1_455 S
C1124 C1123 1.410 . S
C1124 C1125 1.392 . S
C1124 C1127 1.511 . S
C1125 C1121 1.376 . S
C1125 C1124 1.392 . S
C1125 H1137 0.929 . S
C1126 C1122 1.561 . S
C1126 H1138 0.960 . S
C1126 H1139 0.962 . S
C1126 H1140 0.960 . S
C1127 C1124 1.511 . S
C1127 H1141 0.961 . S
C1127 H1142 0.961 . S
C1127 H1143 0.961 . S
C1128 C1129 1.370 . S
C1128 C1130 1.363 . S
C1128 H1144 0.931 . S
C1129 C1128 1.370 . S
C1129 C1133 1.408 . S
C1130 C1128 1.363 . S
C1130 C1131 1.370 . S
C1130 C1134 1.524 . S
C1131 C1123 1.503 1_655 S
C1131 C1130 1.370 . S
C1131 C1132 1.403 1_655 S
C1132 C1131 1.403 1_455 S
C1132 C1133 1.404 1_455 S
C1132 C1135 1.539 . S
C1133 C1129 1.408 . S
C1133 C1132 1.404 1_655 S
C1133 H1145 0.930 . S
C1134 C1130 1.524 . S
C1134 H1146 0.956 . S
C1134 H1147 0.961 . S
C1134 H1148 0.961 . S
C1135 C1132 1.539 . S
C1135 H1149 0.958 . S
C1135 H1150 0.961 . S
C1135 H1151 0.960 . S
H1136 C1120 0.931 . S
H1137 C1125 0.929 . S
H1138 C1126 0.960 . S
H1139 C1126 0.962 . S
H1140 C1126 0.960 . S
H1141 C1127 0.961 . S
H1142 C1127 0.961 . S
H1143 C1127 0.961 . S
H1144 C1128 0.931 . S
H1145 C1133 0.930 . S
H1146 C1134 0.956 . S
H1147 C1134 0.961 . S
H1148 C1134 0.961 . S
H1149 C1135 0.958 . S
H1150 C1135 0.961 . S
H1151 C1135 0.960 . S
C1152 C1153 1.391 . S
C1152 C1154 1.394 . S
C1152 H1168 0.931 . S
C1153 C1152 1.391 . S
C1153 C1157 1.376 . S
C1154 C1152 1.394 . S
C1154 C1155 1.369 . S
C1154 C1158 1.531 . S
C1155 C1154 1.369 . S
C1155 C1156 1.410 . S
C1155 C1163 1.503 1_455 S
C1156 C1155 1.410 . S
C1156 C1157 1.392 . S
C1156 C1159 1.511 1_455 S
C1157 C1153 1.376 . S
C1157 C1156 1.392 . S
C1157 H1169 0.929 . S
C1158 C1154 1.531 . S
C1158 H1170 0.960 . S
C1158 H1171 0.962 . S
C1158 H1172 0.960 . S
C1159 C1156 1.511 1_655 S
C1159 H1173 0.946 1_655 S
C1159 H1174 0.961 . S
C1159 H1175 0.961 . S
C1160 C1161 1.370 . S
C1160 C1162 1.363 . S
C1160 H1176 0.931 . S
C1161 C1160 1.370 . S
C1161 C1165 1.408 . S
C1162 C1160 1.363 . S
C1162 C1163 1.370 . S
C1162 C1166 1.524 1_655 S
C1163 C1155 1.503 1_655 S
C1163 C1162 1.370 . S
C1163 C1164 1.403 . S
C1164 C1163 1.403 . S
C1164 C1165 1.404 . S
C1164 C1167 1.539 . S
C1165 C1161 1.408 . S
C1165 C1164 1.404 . S
C1165 H1177 0.930 . S
C1166 C1162 1.524 1_455 S
C1166 H1178 0.956 . S
C1166 H1179 0.961 . S
C1166 H1180 0.961 1_455 S
C1167 C1164 1.539 . S
C1167 H1181 0.958 . S
C1167 H1182 0.961 . S
C1167 H1183 0.960 . S
H1168 C1152 0.931 . S
H1169 C1157 0.929 . S
H1170 C1158 0.960 . S
H1171 C1158 0.962 . S
H1172 C1158 0.960 . S
H1173 C1159 0.946 1_455 S
H1174 C1159 0.961 . S
H1175 C1159 0.961 . S
H1176 C1160 0.931 . S
H1177 C1165 0.930 . S
H1178 C1166 0.956 . S
H1179 C1166 0.961 . S
H1180 C1166 0.961 1_655 S
H1181 C1167 0.958 . S
H1182 C1167 0.961 . S
H1183 C1167 0.960 . S
C1184 C1185 1.391 . S
C1184 C1186 1.394 . S
C1184 H1200 0.931 . S
C1185 C1184 1.391 . S
C1185 C1189 1.376 . S
C1186 C1184 1.394 . S
C1186 C1187 1.369 . S
C1186 C1190 1.531 . S
C1187 C1186 1.369 . S
C1187 C1188 1.410 . S
C1187 C1195 1.503 . S
C1188 C1187 1.410 . S
C1188 C1189 1.392 . S
C1188 C1191 1.511 . S
C1189 C1185 1.376 . S
C1189 C1188 1.392 . S
C1189 H1201 0.929 . S
C1190 C1186 1.531 . S
C1190 H1202 0.960 . S
C1190 H1203 0.962 . S
C1190 H1204 0.960 . S
C1191 C1188 1.511 . S
C1191 H1205 0.961 . S
C1191 H1206 0.961 . S
C1191 H1207 0.961 . S
C1192 C1193 1.370 . S
C1192 C1194 1.363 . S
C1192 H1208 0.931 . S
C1193 C1192 1.370 . S
C1193 C1197 1.408 . S
C1194 C1192 1.363 . S
C1194 C1195 1.370 . S
C1194 C1198 1.524 . S
C1195 C1187 1.503 . S
C1195 C1194 1.370 . S
C1195 C1196 1.403 . S
C1196 C1195 1.403 . S
C1196 C1197 1.404 . S
C1196 C1199 1.539 . S
C1197 C1193 1.408 . S
C1197 C1196 1.404 . S
C1197 H1209 0.930 . S
C1198 C1194 1.524 . S
C1198 H1210 0.956 . S
C1198 H1211 0.961 . S
C1198 H1212 0.961 . S
C1199 C1196 1.539 . S
C1199 H1213 0.958 . S
C1199 H1214 0.961 . S
C1199 H1215 0.960 . S
H1200 C1184 0.931 . S
H1201 C1189 0.929 . S
H1202 C1190 0.960 . S
H1203 C1190 0.962 . S
H1204 C1190 0.960 . S
H1205 C1191 0.961 . S
H1206 C1191 0.961 . S
H1207 C1191 0.961 . S
H1208 C1192 0.931 . S
H1209 C1197 0.930 . S
H1210 C1198 0.956 . S
H1211 C1198 0.961 . S
H1212 C1198 0.961 . S
H1213 C1199 0.958 . S
H1214 C1199 0.961 . S
H1215 C1199 0.960 . S
C1216 C1217 1.391 . S
C1216 C1218 1.394 . S
C1216 H1232 0.931 . S
C1217 C1216 1.391 . S
C1217 C1221 1.376 . S
C1218 C1216 1.394 . S
C1218 C1219 1.369 . S
C1218 C1222 1.531 . S
C1219 C1218 1.369 . S
C1219 C1220 1.410 . S
C1219 C1227 1.503 . S
C1220 C1219 1.410 . S
C1220 C1221 1.392 . S
C1220 C1223 1.511 . S
C1221 C1217 1.376 . S
C1221 C1220 1.392 . S
C1221 H1233 0.929 . S
C1222 C1218 1.531 . S
C1222 H1234 0.960 . S
C1222 H1235 0.962 . S
C1222 H1236 0.960 . S
C1223 C1220 1.511 . S
C1223 H1237 0.961 . S
C1223 H1238 0.961 . S
C1223 H1239 0.961 . S
C1224 C1225 1.370 . S
C1224 C1226 1.363 . S
C1224 H1240 0.931 . S
C1225 C1224 1.370 . S
C1225 C1229 1.408 . S
C1226 C1224 1.363 . S
C1226 C1227 1.370 . S
C1226 C1230 1.524 . S
C1227 C1219 1.503 . S
C1227 C1226 1.370 . S
C1227 C1228 1.403 . S
C1228 C1227 1.403 . S
C1228 C1229 1.404 . S
C1228 C1231 1.539 . S
C1229 C1225 1.408 . S
C1229 C1228 1.404 . S
C1229 H1241 0.930 . S
C1230 C1226 1.524 . S
C1230 H1242 0.956 . S
C1230 H1243 0.961 . S
C1230 H1244 0.961 . S
C1231 C1228 1.539 . S
C1231 H1245 0.958 . S
C1231 H1246 0.961 . S
C1231 H1247 0.960 . S
H1232 C1216 0.931 . S
H1233 C1221 0.929 . S
H1234 C1222 0.960 . S
H1235 C1222 0.962 . S
H1236 C1222 0.960 . S
H1237 C1223 0.961 . S
H1238 C1223 0.961 . S
H1239 C1223 0.961 . S
H1240 C1224 0.931 . S
H1241 C1229 0.930 . S
H1242 C1230 0.956 . S
H1243 C1230 0.961 . S
H1244 C1230 0.961 . S
H1245 C1231 0.958 . S
H1246 C1231 0.961 . S
H1247 C1231 0.960 . S
C1248 C1249 1.391 . S
C1248 C1250 1.394 . S
C1248 H1264 0.931 . S
C1249 C1248 1.391 . S
C1249 C1253 1.376 . S
C1250 C1248 1.394 . S
C1250 C1251 1.369 . S
C1250 C1254 1.531 . S
C1251 C1250 1.369 . S
C1251 C1252 1.410 . S
C1251 C1259 1.503 . S
C1252 C1251 1.410 . S
C1252 C1253 1.392 . S
C1252 C1255 1.511 . S
C1253 C1249 1.376 . S
C1253 C1252 1.392 . S
C1253 H1265 0.929 . S
C1254 C1250 1.531 . S
C1254 H1266 0.960 . S
C1254 H1267 0.962 . S
C1254 H1268 0.960 . S
C1255 C1252 1.511 . S
C1255 H1269 0.961 . S
C1255 H1270 0.961 . S
C1255 H1271 0.961 . S
C1256 C1257 1.370 . S
C1256 C1258 1.363 . S
C1256 H1272 0.931 . S
C1257 C1256 1.370 . S
C1257 C1261 1.408 . S
C1258 C1256 1.363 . S
C1258 C1259 1.370 . S
C1258 C1262 1.524 . S
C1259 C1251 1.503 . S
C1259 C1258 1.370 . S
C1259 C1260 1.403 . S
C1260 C1259 1.403 . S
C1260 C1261 1.404 . S
C1260 C1263 1.539 . S
C1261 C1257 1.408 . S
C1261 C1260 1.404 . S
C1261 H1273 0.930 . S
C1262 C1258 1.524 . S
C1262 H1274 0.956 . S
C1262 H1275 0.961 . S
C1262 H1276 0.961 . S
C1263 C1260 1.539 . S
C1263 H1277 0.958 . S
C1263 H1278 0.961 . S
C1263 H1279 0.960 . S
H1264 C1248 0.931 . S
H1265 C1253 0.929 . S
H1266 C1254 0.960 . S
H1267 C1254 0.962 . S
H1268 C1254 0.960 . S
H1269 C1255 0.961 . S
H1270 C1255 0.961 . S
H1271 C1255 0.961 . S
H1272 C1256 0.931 . S
H1273 C1261 0.930 . S
H1274 C1262 0.956 . S
H1275 C1262 0.961 . S
H1276 C1262 0.961 . S
H1277 C1263 0.958 . S
H1278 C1263 0.961 . S
H1279 C1263 0.960 . S
C1280 C1281 1.391 . S
C1280 C1282 1.394 . S
C1280 H1296 0.931 . S
C1281 C1280 1.391 . S
C1281 C1285 1.376 . S
C1282 C1280 1.394 . S
C1282 C1283 1.369 . S
C1282 C1286 1.531 . S
C1283 C1282 1.369 . S
C1283 C1284 1.410 . S
C1283 C1291 1.503 1_455 S
C1284 C1283 1.410 . S
C1284 C1285 1.392 . S
C1284 C1287 1.511 1_455 S
C1285 C1281 1.376 . S
C1285 C1284 1.392 . S
C1285 H1297 0.929 . S
C1286 C1282 1.531 . S
C1286 H1298 0.960 . S
C1286 H1299 0.962 . S
C1286 H1300 0.960 . S
C1287 C1284 1.511 1_655 S
C1287 H1301 0.961 . S
C1287 H1302 0.961 . S
C1287 H1303 0.961 . S
C1288 C1289 1.370 . S
C1288 C1290 1.363 . S
C1288 H1304 0.931 . S
C1289 C1288 1.370 . S
C1289 C1293 1.408 . S
C1290 C1288 1.363 . S
C1290 C1291 1.370 . S
C1290 C1294 1.524 . S
C1291 C1283 1.503 1_655 S
C1291 C1290 1.370 . S
C1291 C1292 1.403 . S
C1292 C1291 1.403 . S
C1292 C1293 1.404 . S
C1292 C1295 1.539 . S
C1293 C1289 1.408 . S
C1293 C1292 1.404 . S
C1293 H1305 0.930 . S
C1294 C1290 1.524 . S
C1294 H1306 0.956 . S
C1294 H1307 0.961 . S
C1294 H1308 0.961 . S
C1295 C1292 1.539 . S
C1295 H1309 0.958 1_655 S
C1295 H1310 0.961 . S
C1295 H1311 0.960 1_655 S
H1296 C1280 0.931 . S
H1297 C1285 0.929 . S
H1298 C1286 0.960 . S
H1299 C1286 0.962 . S
H1300 C1286 0.960 . S
H1301 C1287 0.961 . S
H1302 C1287 0.961 . S
H1303 C1287 0.961 . S
H1304 C1288 0.931 . S
H1305 C1293 0.930 . S
H1306 C1294 0.956 . S
H1307 C1294 0.961 . S
H1308 C1294 0.961 . S
H1309 C1295 0.958 1_455 S
H1310 C1295 0.961 . S
H1311 C1295 0.960 1_455 S
C1312 C1313 1.391 . S
C1312 C1314 1.394 1_455 S
C1312 H1328 0.931 1_455 S
C1313 C1312 1.391 . S
C1313 C1317 1.376 . S
C1314 C1312 1.394 1_655 S
C1314 C1315 1.369 1_655 S
C1314 C1318 1.531 . S
C1315 C1314 1.369 1_455 S
C1315 C1316 1.410 . S
C1315 C1323 1.503 1_455 S
C1316 C1315 1.410 . S
C1316 C1317 1.392 . S
C1316 C1319 1.511 . S
C1317 C1313 1.376 . S
C1317 C1316 1.392 . S
C1317 H1329 0.929 . S
C1318 C1314 1.531 . S
C1318 H1330 0.960 . S
C1318 H1331 0.962 . S
C1318 H1332 0.960 . S
C1319 C1316 1.511 . S
C1319 H1333 0.961 . S
C1319 H1334 0.961 . S
C1319 H1335 0.961 . S
C1320 C1321 1.370 . S
C1320 C1322 1.363 . S
C1320 H1336 0.931 . S
C1321 C1320 1.370 . S
C1321 C1325 1.408 . S
C1322 C1320 1.363 . S
C1322 C1323 1.370 . S
C1322 C1326 1.524 . S
C1323 C1315 1.503 1_655 S
C1323 C1322 1.370 . S
C1323 C1324 1.403 . S
C1324 C1323 1.403 . S
C1324 C1325 1.404 . S
C1324 C1327 1.539 1_655 S
C1325 C1321 1.408 . S
C1325 C1324 1.404 . S
C1325 H1337 0.930 . S
C1326 C1322 1.524 . S
C1326 H1338 0.956 . S
C1326 H1339 0.961 1_655 S
C1326 H1340 0.961 . S
C1327 C1324 1.539 1_455 S
C1327 H1341 0.987 1_455 S
C1327 H1342 0.961 . S
C1327 H1343 0.960 . S
H1328 C1312 0.931 1_655 S
H1329 C1317 0.929 . S
H1330 C1318 0.960 . S
H1331 C1318 0.962 . S
H1332 C1318 0.960 . S
H1333 C1319 0.961 . S
H1334 C1319 0.961 . S
H1335 C1319 0.961 . S
H1336 C1320 0.931 . S
H1337 C1325 0.930 . S
H1338 C1326 0.956 . S
H1339 C1326 0.961 1_455 S
H1340 C1326 0.961 . S
H1341 C1327 0.987 1_655 S
H1342 C1327 0.961 . S
H1343 C1327 0.960 . S
C1344 C1345 1.391 . S
C1344 C1346 1.394 . S
C1344 H1360 0.931 . S
C1345 C1344 1.391 . S
C1345 C1349 1.376 . S
C1346 C1344 1.394 . S
C1346 C1347 1.369 . S
C1346 C1350 1.531 . S
C1347 C1346 1.369 . S
C1347 C1348 1.410 . S
C1347 C1355 1.503 . S
C1348 C1347 1.410 . S
C1348 C1349 1.392 . S
C1348 C1351 1.511 . S
C1349 C1345 1.376 . S
C1349 C1348 1.392 . S
C1349 H1361 0.929 . S
C1350 C1346 1.531 . S
C1350 H1362 0.960 . S
C1350 H1363 0.962 . S
C1350 H1364 0.960 . S
C1351 C1348 1.511 . S
C1351 H1365 0.961 . S
C1351 H1366 0.961 . S
C1351 H1367 0.961 . S
C1352 C1353 1.370 . S
C1352 C1354 1.363 . S
C1352 H1368 0.931 . S
C1353 C1352 1.370 . S
C1353 C1357 1.408 . S
C1354 C1352 1.363 . S
C1354 C1355 1.370 . S
C1354 C1358 1.524 . S
C1355 C1347 1.503 . S
C1355 C1354 1.370 . S
C1355 C1356 1.403 . S
C1356 C1355 1.403 . S
C1356 C1357 1.404 . S
C1356 C1359 1.539 . S
C1357 C1353 1.408 . S
C1357 C1356 1.404 . S
C1357 H1369 0.930 . S
C1358 C1354 1.524 . S
C1358 H1370 0.956 . S
C1358 H1371 0.961 . S
C1358 H1372 0.961 . S
C1359 C1356 1.539 . S
C1359 H1373 0.958 . S
C1359 H1374 0.961 . S
C1359 H1375 0.960 . S
H1360 C1344 0.931 . S
H1361 C1349 0.929 . S
H1362 C1350 0.960 . S
H1363 C1350 0.962 . S
H1364 C1350 0.960 . S
H1365 C1351 0.961 . S
H1366 C1351 0.961 . S
H1367 C1351 0.961 . S
H1368 C1352 0.931 . S
H1369 C1357 0.930 . S
H1370 C1358 0.956 . S
H1371 C1358 0.961 . S
H1372 C1358 0.961 . S
H1373 C1359 0.958 . S
H1374 C1359 0.961 . S
H1375 C1359 0.960 . S
C1376 C1377 1.391 . S
C1376 C1378 1.394 1_455 S
C1376 H1392 0.931 1_455 S
C1377 C1376 1.391 . S
C1377 C1381 1.376 . S
C1378 C1376 1.394 1_655 S
C1378 C1379 1.369 1_655 S
C1378 C1382 1.531 . S
C1379 C1378 1.369 1_455 S
C1379 C1380 1.410 . S
C1379 C1387 1.503 1_455 S
C1380 C1379 1.410 . S
C1380 C1381 1.392 . S
C1380 C1383 1.511 . S
C1381 C1377 1.376 . S
C1381 C1380 1.392 . S
C1381 H1393 0.929 . S
C1382 C1378 1.531 . S
C1382 H1394 0.960 . S
C1382 H1395 0.962 . S
C1382 H1396 0.960 . S
C1383 C1380 1.511 . S
C1383 H1397 0.961 . S
C1383 H1398 0.961 . S
C1383 H1399 0.961 . S
C1384 C1385 1.370 . S
C1384 C1386 1.363 . S
C1384 H1400 0.931 . S
C1385 C1384 1.370 . S
C1385 C1389 1.408 . S
C1386 C1384 1.363 . S
C1386 C1387 1.370 . S
C1386 C1390 1.524 1_655 S
C1387 C1379 1.503 1_655 S
C1387 C1386 1.370 . S
C1387 C1388 1.403 . S
C1388 C1387 1.403 . S
C1388 C1389 1.404 . S
C1388 C1391 1.539 . S
C1389 C1385 1.408 . S
C1389 C1388 1.404 . S
C1389 H1401 0.930 . S
C1390 C1386 1.524 1_455 S
C1390 H1402 0.956 . S
C1390 H1403 0.961 . S
C1390 H1404 0.961 . S
C1391 C1388 1.539 . S
C1391 H1405 0.958 . S
C1391 H1406 0.961 . S
C1391 H1407 0.960 . S
H1392 C1376 0.931 1_655 S
H1393 C1381 0.929 . S
H1394 C1382 0.960 . S
H1395 C1382 0.962 . S
H1396 C1382 0.960 . S
H1397 C1383 0.961 . S
H1398 C1383 0.961 . S
H1399 C1383 0.961 . S
H1400 C1384 0.931 . S
H1401 C1389 0.930 . S
H1402 C1390 0.956 . S
H1403 C1390 0.961 . S
H1404 C1390 0.961 . S
H1405 C1391 0.958 . S
H1406 C1391 0.961 . S
H1407 C1391 0.960 . S
C1408 C1409 1.391 . S
C1408 C1410 1.394 . S
C1408 H1424 0.931 . S
C1409 C1408 1.391 . S
C1409 C1413 1.376 . S
C1410 C1408 1.394 . S
C1410 C1411 1.369 . S
C1410 C1414 1.531 1_655 S
C1411 C1410 1.369 . S
C1411 C1412 1.410 . S
C1411 C1419 1.503 1_655 S
C1412 C1411 1.410 . S
C1412 C1413 1.392 . S
C1412 C1415 1.511 . S
C1413 C1409 1.376 . S
C1413 C1412 1.392 . S
C1413 H1425 0.929 . S
C1414 C1410 1.531 1_455 S
C1414 H1426 0.960 . S
C1414 H1427 0.962 . S
C1414 H1428 0.960 1_455 S
C1415 C1412 1.511 . S
C1415 H1429 0.961 . S
C1415 H1430 0.961 . S
C1415 H1431 0.961 . S
C1416 C1417 1.370 . S
C1416 C1418 1.363 . S
C1416 H1432 0.931 . S
C1417 C1416 1.370 . S
C1417 C1421 1.408 . S
C1418 C1416 1.363 . S
C1418 C1419 1.370 . S
C1418 C1422 1.524 . S
C1419 C1411 1.503 1_455 S
C1419 C1418 1.370 . S
C1419 C1420 1.403 . S
C1420 C1419 1.403 . S
C1420 C1421 1.404 . S
C1420 C1423 1.539 . S
C1421 C1417 1.408 . S
C1421 C1420 1.404 . S
C1421 H1433 0.930 . S
C1422 C1418 1.524 . S
C1422 H1434 0.956 . S
C1422 H1435 0.961 . S
C1422 H1436 0.961 . S
C1423 C1420 1.539 . S
C1423 H1437 0.958 . S
C1423 H1438 0.961 . S
C1423 H1439 0.960 1_455 S
H1424 C1408 0.931 . S
H1425 C1413 0.929 . S
H1426 C1414 0.960 . S
H1427 C1414 0.962 . S
H1428 C1414 0.960 1_655 S
H1429 C1415 0.961 . S
H1430 C1415 0.961 . S
H1431 C1415 0.961 . S
H1432 C1416 0.931 . S
H1433 C1421 0.930 . S
H1434 C1422 0.956 . S
H1435 C1422 0.961 . S
H1436 C1422 0.961 . S
H1437 C1423 0.958 . S
H1438 C1423 0.961 . S
H1439 C1423 0.960 1_655 S
C1440 C1441 1.391 . S
C1440 C1442 1.394 . S
C1440 H1456 0.931 . S
C1441 C1440 1.391 . S
C1441 C1445 1.376 . S
C1442 C1440 1.394 . S
C1442 C1443 1.369 . S
C1442 C1446 1.531 . S
C1443 C1442 1.369 . S
C1443 C1444 1.410 . S
C1443 C1451 1.503 . S
C1444 C1443 1.410 . S
C1444 C1445 1.392 . S
C1444 C1447 1.511 . S
C1445 C1441 1.376 . S
C1445 C1444 1.392 . S
C1445 H1457 0.929 . S
C1446 C1442 1.531 . S
C1446 H1458 0.960 . S
C1446 H1459 0.962 . S
C1446 H1460 0.960 . S
C1447 C1444 1.511 . S
C1447 H1461 0.961 . S
C1447 H1462 0.961 . S
C1447 H1463 0.961 . S
C1448 C1449 1.370 . S
C1448 C1450 1.363 . S
C1448 H1464 0.931 . S
C1449 C1448 1.370 . S
C1449 C1453 1.408 . S
C1450 C1448 1.363 . S
C1450 C1451 1.370 . S
C1450 C1454 1.524 . S
C1451 C1443 1.503 . S
C1451 C1450 1.370 . S
C1451 C1452 1.403 . S
C1452 C1451 1.403 . S
C1452 C1453 1.404 . S
C1452 C1455 1.539 . S
C1453 C1449 1.408 . S
C1453 C1452 1.404 . S
C1453 H1465 0.930 . S
C1454 C1450 1.524 . S
C1454 H1466 0.956 . S
C1454 H1467 0.961 . S
C1454 H1468 0.961 . S
C1455 C1452 1.539 . S
C1455 H1469 0.958 . S
C1455 H1470 0.961 . S
C1455 H1471 0.960 . S
H1456 C1440 0.931 . S
H1457 C1445 0.929 . S
H1458 C1446 0.960 . S
H1459 C1446 0.962 . S
H1460 C1446 0.960 . S
H1461 C1447 0.961 . S
H1462 C1447 0.961 . S
H1463 C1447 0.961 . S
H1464 C1448 0.931 . S
H1465 C1453 0.930 . S
H1466 C1454 0.956 . S
H1467 C1454 0.961 . S
H1468 C1454 0.961 . S
H1469 C1455 0.958 . S
H1470 C1455 0.961 . S
H1471 C1455 0.960 . S
C1472 C1473 1.391 . S
C1472 C1474 1.394 . S
C1472 H1488 0.931 . S
C1473 C1472 1.391 . S
C1473 C1477 1.376 . S
C1474 C1472 1.394 . S
C1474 C1475 1.369 . S
C1474 C1478 1.531 . S
C1475 C1474 1.369 . S
C1475 C1476 1.410 . S
C1475 C1483 1.503 . S
C1476 C1475 1.410 . S
C1476 C1477 1.392 . S
C1476 C1479 1.511 . S
C1477 C1473 1.376 . S
C1477 C1476 1.392 . S
C1477 H1489 0.929 . S
C1478 C1474 1.531 . S
C1478 H1490 0.960 . S
C1478 H1491 0.962 . S
C1478 H1492 0.960 . S
C1479 C1476 1.511 . S
C1479 H1493 0.961 . S
C1479 H1494 0.961 . S
C1479 H1495 0.961 . S
C1480 C1481 1.370 . S
C1480 C1482 1.363 . S
C1480 H1496 0.931 . S
C1481 C1480 1.370 . S
C1481 C1485 1.408 . S
C1482 C1480 1.363 . S
C1482 C1483 1.370 . S
C1482 C1486 1.524 . S
C1483 C1475 1.503 . S
C1483 C1482 1.370 . S
C1483 C1484 1.403 . S
C1484 C1483 1.403 . S
C1484 C1485 1.404 . S
C1484 C1487 1.539 . S
C1485 C1481 1.408 . S
C1485 C1484 1.404 . S
C1485 H1497 0.930 . S
C1486 C1482 1.524 . S
C1486 H1498 0.956 . S
C1486 H1499 0.961 . S
C1486 H1500 0.961 . S
C1487 C1484 1.539 . S
C1487 H1501 0.958 . S
C1487 H1502 0.961 . S
C1487 H1503 0.960 . S
H1488 C1472 0.931 . S
H1489 C1477 0.929 . S
H1490 C1478 0.960 . S
H1491 C1478 0.962 . S
H1492 C1478 0.960 . S
H1493 C1479 0.961 . S
H1494 C1479 0.961 . S
H1495 C1479 0.961 . S
H1496 C1480 0.931 . S
H1497 C1485 0.930 . S
H1498 C1486 0.956 . S
H1499 C1486 0.961 . S
H1500 C1486 0.961 . S
H1501 C1487 0.958 . S
H1502 C1487 0.961 . S
H1503 C1487 0.960 . S
C1504 C1505 1.391 . S
C1504 C1506 1.394 . S
C1504 H1520 0.931 . S
C1505 C1504 1.391 . S
C1505 C1509 1.376 . S
C1506 C1504 1.394 . S
C1506 C1507 1.369 . S
C1506 C1510 1.531 . S
C1507 C1506 1.369 . S
C1507 C1508 1.410 . S
C1507 C1515 1.503 . S
C1508 C1507 1.410 . S
C1508 C1509 1.392 . S
C1508 C1511 1.511 . S
C1509 C1505 1.376 . S
C1509 C1508 1.392 . S
C1509 H1521 0.929 . S
C1510 C1506 1.531 . S
C1510 H1522 0.960 . S
C1510 H1523 0.962 . S
C1510 H1524 0.960 . S
C1511 C1508 1.511 . S
C1511 H1525 0.961 . S
C1511 H1526 0.961 . S
C1511 H1527 0.961 . S
C1512 C1513 1.370 . S
C1512 C1514 1.363 . S
C1512 H1528 0.931 . S
C1513 C1512 1.370 . S
C1513 C1517 1.408 . S
C1514 C1512 1.363 . S
C1514 C1515 1.370 . S
C1514 C1518 1.524 . S
C1515 C1507 1.503 . S
C1515 C1514 1.370 . S
C1515 C1516 1.403 . S
C1516 C1515 1.403 . S
C1516 C1517 1.404 . S
C1516 C1519 1.539 . S
C1517 C1513 1.408 . S
C1517 C1516 1.404 . S
C1517 H1529 0.930 . S
C1518 C1514 1.524 . S
C1518 H1530 0.956 . S
C1518 H1531 0.961 . S
C1518 H1532 0.961 . S
C1519 C1516 1.539 . S
C1519 H1533 0.958 . S
C1519 H1534 0.961 . S
C1519 H1535 0.960 . S
H1520 C1504 0.931 . S
H1521 C1509 0.929 . S
H1522 C1510 0.960 . S
H1523 C1510 0.962 . S
H1524 C1510 0.960 . S
H1525 C1511 0.961 . S
H1526 C1511 0.961 . S
H1527 C1511 0.961 . S
H1528 C1512 0.931 . S
H1529 C1517 0.930 . S
H1530 C1518 0.956 . S
H1531 C1518 0.961 . S
H1532 C1518 0.961 . S
H1533 C1519 0.958 . S
H1534 C1519 0.961 . S
H1535 C1519 0.960 . S
C1536 C1537 1.391 . S
C1536 C1538 1.394 . S
C1536 H1552 0.931 . S
C1537 C1536 1.391 . S
C1537 C1541 1.376 . S
C1538 C1536 1.394 . S
C1538 C1539 1.369 . S
C1538 C1542 1.531 . S
C1539 C1538 1.369 . S
C1539 C1540 1.410 . S
C1539 C1547 1.503 1_455 S
C1540 C1539 1.410 . S
C1540 C1541 1.392 . S
C1540 C1543 1.511 1_455 S
C1541 C1537 1.376 . S
C1541 C1540 1.392 . S
C1541 H1553 0.929 . S
C1542 C1538 1.531 . S
C1542 H1554 0.960 . S
C1542 H1555 0.962 . S
C1542 H1556 0.960 . S
C1543 C1540 1.511 1_655 S
C1543 H1557 0.961 . S
C1543 H1558 0.961 . S
C1543 H1559 0.961 . S
C1544 C1545 1.370 . S
C1544 C1546 1.363 . S
C1544 H1560 0.931 . S
C1545 C1544 1.370 . S
C1545 C1549 1.408 . S
C1546 C1544 1.363 . S
C1546 C1547 1.370 . S
C1546 C1550 1.524 . S
C1547 C1539 1.503 1_655 S
C1547 C1546 1.370 . S
C1547 C1548 1.403 . S
C1548 C1547 1.403 . S
C1548 C1549 1.404 . S
C1548 C1551 1.539 . S
C1549 C1545 1.408 . S
C1549 C1548 1.404 . S
C1549 H1561 0.930 . S
C1550 C1546 1.524 . S
C1550 H1562 0.956 1_655 S
C1550 H1563 0.961 . S
C1550 H1564 0.961 . S
C1551 C1548 1.539 . S
C1551 H1565 0.958 . S
C1551 H1566 0.961 . S
C1551 H1567 0.960 . S
H1552 C1536 0.931 . S
H1553 C1541 0.929 . S
H1554 C1542 0.960 . S
H1555 C1542 0.962 . S
H1556 C1542 0.960 . S
H1557 C1543 0.961 . S
H1558 C1543 0.961 . S
H1559 C1543 0.961 . S
H1560 C1544 0.931 . S
H1561 C1549 0.930 . S
H1562 C1550 0.956 1_455 S
H1563 C1550 0.961 . S
H1564 C1550 0.961 . S
H1565 C1551 0.958 . S
H1566 C1551 0.961 . S
H1567 C1551 0.960 . S
C1568 C1569 1.391 . S
C1568 C1570 1.394 . S
C1568 H1584 0.931 . S
C1569 C1568 1.391 . S
C1569 C1573 1.376 . S
C1570 C1568 1.394 . S
C1570 C1571 1.369 . S
C1570 C1574 1.531 . S
C1571 C1570 1.369 . S
C1571 C1572 1.410 1_455 S
C1571 C1579 1.503 1_455 S
C1572 C1571 1.410 1_655 S
C1572 C1573 1.392 1_655 S
C1572 C1575 1.511 . S
C1573 C1569 1.376 . S
C1573 C1572 1.392 1_455 S
C1573 H1585 0.929 1_455 S
C1574 C1570 1.531 . S
C1574 H1586 0.960 . S
C1574 H1587 0.962 . S
C1574 H1588 0.960 . S
C1575 C1572 1.511 . S
C1575 H1589 0.961 . S
C1575 H1590 0.961 . S
C1575 H1591 0.961 . S
C1576 C1577 1.370 . S
C1576 C1578 1.363 . S
C1576 H1592 0.931 . S
C1577 C1576 1.370 . S
C1577 C1581 1.408 . S
C1578 C1576 1.363 . S
C1578 C1579 1.370 . S
C1578 C1582 1.524 1_655 S
C1579 C1571 1.503 1_655 S
C1579 C1578 1.370 . S
C1579 C1580 1.403 . S
C1580 C1579 1.403 . S
C1580 C1581 1.404 . S
C1580 C1583 1.539 . S
C1581 C1577 1.408 . S
C1581 C1580 1.404 . S
C1581 H1593 0.930 . S
C1582 C1578 1.524 1_455 S
C1582 H1594 0.956 . S
C1582 H1595 0.961 . S
C1582 H1596 0.961 . S
C1583 C1580 1.539 . S
C1583 H1597 0.958 . S
C1583 H1598 0.961 . S
C1583 H1599 0.960 . S
H1584 C1568 0.931 . S
H1585 C1573 0.929 1_655 S
H1586 C1574 0.960 . S
H1587 C1574 0.962 . S
H1588 C1574 0.960 . S
H1589 C1575 0.961 . S
H1590 C1575 0.961 . S
H1591 C1575 0.961 . S
H1592 C1576 0.931 . S
H1593 C1581 0.930 . S
H1594 C1582 0.956 . S
H1595 C1582 0.961 . S
H1596 C1582 0.961 . S
H1597 C1583 0.958 . S
H1598 C1583 0.961 . S
H1599 C1583 0.960 . S
C1600 C1601 1.391 . S
C1600 C1602 1.394 . S
C1600 H1616 0.931 . S
C1601 C1600 1.391 . S
C1601 C1605 1.376 . S
C1602 C1600 1.394 . S
C1602 C1603 1.369 . S
C1602 C1606 1.531 . S
C1603 C1602 1.369 . S
C1603 C1604 1.410 . S
C1603 C1611 1.503 . S
C1604 C1603 1.410 . S
C1604 C1605 1.392 . S
C1604 C1607 1.511 . S
C1605 C1601 1.376 . S
C1605 C1604 1.392 . S
C1605 H1617 0.929 . S
C1606 C1602 1.531 . S
C1606 H1618 0.960 . S
C1606 H1619 0.962 . S
C1606 H1620 0.960 . S
C1607 C1604 1.511 . S
C1607 H1621 0.961 . S
C1607 H1622 0.961 . S
C1607 H1623 0.961 . S
C1608 C1609 1.370 . S
C1608 C1610 1.363 . S
C1608 H1624 0.931 . S
C1609 C1608 1.370 . S
C1609 C1613 1.408 . S
C1610 C1608 1.363 . S
C1610 C1611 1.370 . S
C1610 C1614 1.524 . S
C1611 C1603 1.503 . S
C1611 C1610 1.370 . S
C1611 C1612 1.403 . S
C1612 C1611 1.403 . S
C1612 C1613 1.404 . S
C1612 C1615 1.539 . S
C1613 C1609 1.408 . S
C1613 C1612 1.404 . S
C1613 H1625 0.930 . S
C1614 C1610 1.524 . S
C1614 H1626 0.956 . S
C1614 H1627 0.961 . S
C1614 H1628 0.961 . S
C1615 C1612 1.539 . S
C1615 H1629 0.958 . S
C1615 H1630 0.961 . S
C1615 H1631 0.960 . S
H1616 C1600 0.931 . S
H1617 C1605 0.929 . S
H1618 C1606 0.960 . S
H1619 C1606 0.962 . S
H1620 C1606 0.960 . S
H1621 C1607 0.961 . S
H1622 C1607 0.961 . S
H1623 C1607 0.961 . S
H1624 C1608 0.931 . S
H1625 C1613 0.930 . S
H1626 C1614 0.956 . S
H1627 C1614 0.961 . S
H1628 C1614 0.961 . S
H1629 C1615 0.958 . S
H1630 C1615 0.961 . S
H1631 C1615 0.960 . S
C1632 C1633 1.391 . S
C1632 C1634 1.394 . S
C1632 H1648 0.931 . S
C1633 C1632 1.391 . S
C1633 C1637 1.376 . S
C1634 C1632 1.394 . S
C1634 C1635 1.369 . S
C1634 C1638 1.531 . S
C1635 C1634 1.369 . S
C1635 C1636 1.410 . S
C1635 C1643 1.503 . S
C1636 C1635 1.410 . S
C1636 C1637 1.392 . S
C1636 C1639 1.511 . S
C1637 C1633 1.376 . S
C1637 C1636 1.392 . S
C1637 H1649 0.929 . S
C1638 C1634 1.531 . S
C1638 H1650 0.960 . S
C1638 H1651 0.962 . S
C1638 H1652 0.960 . S
C1639 C1636 1.511 . S
C1639 H1653 0.961 . S
C1639 H1654 0.961 . S
C1639 H1655 0.961 . S
C1640 C1641 1.370 . S
C1640 C1642 1.363 . S
C1640 H1656 0.931 . S
C1641 C1640 1.370 . S
C1641 C1645 1.408 . S
C1642 C1640 1.363 . S
C1642 C1643 1.370 . S
C1642 C1646 1.524 . S
C1643 C1635 1.503 . S
C1643 C1642 1.370 . S
C1643 C1644 1.403 . S
C1644 C1643 1.403 . S
C1644 C1645 1.404 . S
C1644 C1647 1.539 . S
C1645 C1641 1.408 . S
C1645 C1644 1.404 . S
C1645 H1657 0.930 . S
C1646 C1642 1.524 . S
C1646 H1658 0.956 . S
C1646 H1659 0.961 . S
C1646 H1660 0.961 . S
C1647 C1644 1.539 . S
C1647 H1661 0.958 . S
C1647 H1662 0.961 . S
C1647 H1663 0.960 . S
H1648 C1632 0.931 . S
H1649 C1637 0.929 . S
H1650 C1638 0.960 . S
H1651 C1638 0.962 . S
H1652 C1638 0.960 . S
H1653 C1639 0.961 . S
H1654 C1639 0.961 . S
H1655 C1639 0.961 . S
H1656 C1640 0.931 . S
H1657 C1645 0.930 . S
H1658 C1646 0.956 . S
H1659 C1646 0.961 . S
H1660 C1646 0.961 . S
H1661 C1647 0.958 . S
H1662 C1647 0.961 . S
H1663 C1647 0.960 . S
C1664 C1665 1.391 . S
C1664 C1666 1.394 . S
C1664 H1680 0.931 . S
C1665 C1664 1.391 . S
C1665 C1669 1.376 . S
C1666 C1664 1.394 . S
C1666 C1667 1.369 . S
C1666 C1670 1.531 . S
C1667 C1666 1.369 . S
C1667 C1668 1.410 . S
C1667 C1675 1.503 . S
C1668 C1667 1.410 . S
C1668 C1669 1.392 . S
C1668 C1671 1.511 . S
C1669 C1665 1.376 . S
C1669 C1668 1.392 . S
C1669 H1681 0.929 . S
C1670 C1666 1.531 . S
C1670 H1682 0.960 . S
C1670 H1683 0.962 . S
C1670 H1684 0.960 . S
C1671 C1668 1.511 . S
C1671 H1685 0.961 . S
C1671 H1686 0.961 . S
C1671 H1687 0.961 . S
C1672 C1673 1.370 1_455 S
C1672 C1674 1.363 . S
C1672 H1688 0.931 . S
C1673 C1672 1.370 1_655 S
C1673 C1677 1.408 . S
C1674 C1672 1.363 . S
C1674 C1675 1.370 . S
C1674 C1678 1.524 . S
C1675 C1667 1.503 . S
C1675 C1674 1.370 . S
C1675 C1676 1.403 . S
C1676 C1675 1.403 . S
C1676 C1677 1.404 1_455 S
C1676 C1679 1.539 1_455 S
C1677 C1673 1.408 . S
C1677 C1676 1.404 1_655 S
C1677 H1689 0.930 . S
C1678 C1674 1.524 . S
C1678 H1690 0.956 . S
C1678 H1691 0.961 . S
C1678 H1692 0.961 . S
C1679 C1676 1.539 1_655 S
C1679 H1693 0.958 1_655 S
C1679 H1694 0.961 . S
C1679 H1695 0.960 1_655 S
H1680 C1664 0.931 . S
H1681 C1669 0.929 . S
H1682 C1670 0.960 . S
H1683 C1670 0.962 . S
H1684 C1670 0.960 . S
H1685 C1671 0.961 . S
H1686 C1671 0.961 . S
H1687 C1671 0.961 . S
H1688 C1672 0.931 . S
H1689 C1677 0.930 . S
H1690 C1678 0.956 . S
H1691 C1678 0.961 . S
H1692 C1678 0.961 . S
H1693 C1679 0.958 1_455 S
H1694 C1679 0.961 . S
H1695 C1679 0.960 1_455 S
C1696 C1697 1.391 . S
C1696 C1698 1.394 . S
C1696 H1712 0.931 . S
C1697 C1696 1.391 . S
C1697 C1701 1.376 . S
C1698 C1696 1.394 . S
C1698 C1699 1.369 . S
C1698 C1702 1.531 . S
C1699 C1698 1.369 . S
C1699 C1700 1.410 . S
C1699 C1707 1.503 . S
C1700 C1699 1.410 . S
C1700 C1701 1.392 . S
C1700 C1703 1.511 . S
C1701 C1697 1.376 . S
C1701 C1700 1.392 . S
C1701 H1713 0.929 . S
C1702 C1698 1.531 . S
C1702 H1714 0.960 . S
C1702 H1715 0.962 . S
C1702 H1716 0.960 . S
C1703 C1700 1.511 . S
C1703 H1717 0.961 . S
C1703 H1718 0.961 . S
C1703 H1719 0.961 . S
C1704 C1705 1.370 . S
C1704 C1706 1.363 . S
C1704 H1720 0.931 . S
C1705 C1704 1.370 . S
C1705 C1709 1.408 . S
C1706 C1704 1.363 . S
C1706 C1707 1.370 . S
C1706 C1710 1.524 . S
C1707 C1699 1.503 . S
C1707 C1706 1.370 . S
C1707 C1708 1.403 . S
C1708 C1707 1.403 . S
C1708 C1709 1.404 . S
C1708 C1711 1.539 . S
C1709 C1705 1.408 . S
C1709 C1708 1.404 . S
C1709 H1721 0.930 . S
C1710 C1706 1.524 . S
C1710 H1722 0.956 . S
C1710 H1723 0.961 . S
C1710 H1724 0.961 . S
C1711 C1708 1.539 . S
C1711 H1725 0.958 . S
C1711 H1726 0.961 . S
C1711 H1727 0.960 . S
H1712 C1696 0.931 . S
H1713 C1701 0.929 . S
H1714 C1702 0.960 . S
H1715 C1702 0.962 . S
H1716 C1702 0.960 . S
H1717 C1703 0.961 . S
H1718 C1703 0.961 . S
H1719 C1703 0.961 . S
H1720 C1704 0.931 . S
H1721 C1709 0.930 . S
H1722 C1710 0.956 . S
H1723 C1710 0.961 . S
H1724 C1710 0.961 . S
H1725 C1711 0.958 . S
H1726 C1711 0.961 . S
H1727 C1711 0.960 . S
C1728 C1729 1.391 . S
C1728 C1730 1.394 . S
C1728 H1744 0.931 . S
C1729 C1728 1.391 . S
C1729 C1733 1.376 . S
C1730 C1728 1.394 . S
C1730 C1731 1.369 . S
C1730 C1734 1.531 . S
C1731 C1730 1.369 . S
C1731 C1732 1.410 . S
C1731 C1739 1.503 . S
C1732 C1731 1.410 . S
C1732 C1733 1.392 . S
C1732 C1735 1.511 . S
C1733 C1729 1.376 . S
C1733 C1732 1.392 . S
C1733 H1745 0.929 . S
C1734 C1730 1.531 . S
C1734 H1746 0.960 . S
C1734 H1747 0.962 . S
C1734 H1748 0.960 . S
C1735 C1732 1.511 . S
C1735 H1749 0.961 . S
C1735 H1750 0.961 . S
C1735 H1751 0.961 . S
C1736 C1737 1.370 . S
C1736 C1738 1.363 . S
C1736 H1752 0.931 . S
C1737 C1736 1.370 . S
C1737 C1741 1.408 . S
C1738 C1736 1.363 . S
C1738 C1739 1.370 . S
C1738 C1742 1.524 . S
C1739 C1731 1.503 . S
C1739 C1738 1.370 . S
C1739 C1740 1.403 . S
C1740 C1739 1.403 . S
C1740 C1741 1.404 . S
C1740 C1743 1.539 . S
C1741 C1737 1.408 . S
C1741 C1740 1.404 . S
C1741 H1753 0.930 . S
C1742 C1738 1.524 . S
C1742 H1754 0.956 . S
C1742 H1755 0.961 . S
C1742 H1756 0.961 . S
C1743 C1740 1.539 . S
C1743 H1757 0.958 . S
C1743 H1758 0.961 . S
C1743 H1759 0.960 . S
H1744 C1728 0.931 . S
H1745 C1733 0.929 . S
H1746 C1734 0.960 . S
H1747 C1734 0.962 . S
H1748 C1734 0.960 . S
H1749 C1735 0.961 . S
H1750 C1735 0.961 . S
H1751 C1735 0.961 . S
H1752 C1736 0.931 . S
H1753 C1741 0.930 . S
H1754 C1742 0.956 . S
H1755 C1742 0.961 . S
H1756 C1742 0.961 . S
H1757 C1743 0.958 . S
H1758 C1743 0.961 . S
H1759 C1743 0.960 . S
C1760 C1761 1.391 . S
C1760 C1762 1.394 . S
C1760 H1776 0.931 . S
C1761 C1760 1.391 . S
C1761 C1765 1.376 . S
C1762 C1760 1.394 . S
C1762 C1763 1.369 . S
C1762 C1766 1.531 . S
C1763 C1762 1.369 . S
C1763 C1764 1.410 . S
C1763 C1771 1.503 . S
C1764 C1763 1.410 . S
C1764 C1765 1.392 . S
C1764 C1767 1.511 . S
C1765 C1761 1.376 . S
C1765 C1764 1.392 . S
C1765 H1777 0.929 . S
C1766 C1762 1.531 . S
C1766 H1778 0.960 . S
C1766 H1779 0.962 . S
C1766 H1780 0.960 . S
C1767 C1764 1.511 . S
C1767 H1781 0.961 . S
C1767 H1782 0.961 . S
C1767 H1783 0.961 . S
C1768 C1769 1.370 . S
C1768 C1770 1.363 . S
C1768 H1784 0.931 . S
C1769 C1768 1.370 . S
C1769 C1773 1.408 . S
C1770 C1768 1.363 . S
C1770 C1771 1.370 . S
C1770 C1774 1.524 . S
C1771 C1763 1.503 . S
C1771 C1770 1.370 . S
C1771 C1772 1.403 . S
C1772 C1771 1.403 . S
C1772 C1773 1.404 . S
C1772 C1775 1.539 . S
C1773 C1769 1.408 . S
C1773 C1772 1.404 . S
C1773 H1785 0.930 . S
C1774 C1770 1.524 . S
C1774 H1786 0.956 . S
C1774 H1787 0.961 . S
C1774 H1788 0.961 . S
C1775 C1772 1.539 . S
C1775 H1789 0.958 . S
C1775 H1790 0.961 . S
C1775 H1791 0.960 . S
H1776 C1760 0.931 . S
H1777 C1765 0.929 . S
H1778 C1766 0.960 . S
H1779 C1766 0.962 . S
H1780 C1766 0.960 . S
H1781 C1767 0.961 . S
H1782 C1767 0.961 . S
H1783 C1767 0.961 . S
H1784 C1768 0.931 . S
H1785 C1773 0.930 . S
H1786 C1774 0.956 . S
H1787 C1774 0.961 . S
H1788 C1774 0.961 . S
H1789 C1775 0.958 . S
H1790 C1775 0.961 . S
H1791 C1775 0.960 . S
C1792 C1793 1.391 . S
C1792 C1794 1.394 1_655 S
C1792 H1808 0.931 . S
C1793 C1792 1.391 . S
C1793 C1797 1.376 1_655 S
C1794 C1792 1.394 1_455 S
C1794 C1795 1.369 . S
C1794 C1798 1.528 1_455 S
C1795 C1794 1.369 . S
C1795 C1796 1.410 . S
C1795 C1803 1.503 . S
C1796 C1795 1.410 . S
C1796 C1797 1.392 . S
C1796 C1799 1.511 . S
C1797 C1793 1.376 1_455 S
C1797 C1796 1.392 . S
C1797 H1809 0.929 . S
C1798 C1794 1.528 1_655 S
C1798 H1810 0.942 1_655 S
C1798 H1811 0.966 . S
C1798 H1812 0.978 . S
C1799 C1796 1.511 . S
C1799 H1813 0.961 . S
C1799 H1814 0.961 . S
C1799 H1815 0.961 . S
C1800 C1801 1.370 . S
C1800 C1802 1.363 . S
C1800 H1816 0.931 . S
C1801 C1800 1.370 . S
C1801 C1805 1.408 . S
C1802 C1800 1.363 . S
C1802 C1803 1.370 . S
C1802 C1806 1.524 . S
C1803 C1795 1.503 . S
C1803 C1802 1.370 . S
C1803 C1804 1.403 . S
C1804 C1803 1.403 . S
C1804 C1805 1.404 . S
C1804 C1807 1.539 . S
C1805 C1801 1.408 . S
C1805 C1804 1.404 . S
C1805 H1817 0.930 . S
C1806 C1802 1.524 . S
C1806 H1818 0.956 . S
C1806 H1819 0.961 . S
C1806 H1820 0.961 . S
C1807 C1804 1.539 . S
C1807 H1821 0.958 . S
C1807 H1822 0.961 . S
C1807 H1823 0.960 . S
H1808 C1792 0.931 . S
H1809 C1797 0.929 . S
H1810 C1798 0.942 1_455 S
H1811 C1798 0.966 . S
H1812 C1798 0.978 . S
H1813 C1799 0.961 . S
H1814 C1799 0.961 . S
H1815 C1799 0.961 . S
H1816 C1800 0.931 . S
H1817 C1805 0.930 . S
H1818 C1806 0.956 . S
H1819 C1806 0.961 . S
H1820 C1806 0.961 . S
H1821 C1807 0.958 . S
H1822 C1807 0.961 . S
H1823 C1807 0.960 . S
C1824 C1825 1.391 . S
C1824 C1826 1.394 . S
C1824 H1840 0.931 . S
C1825 C1824 1.391 . S
C1825 C1829 1.376 . S
C1826 C1824 1.394 . S
C1826 C1827 1.369 . S
C1826 C1830 1.531 . S
C1827 C1826 1.369 . S
C1827 C1828 1.410 . S
C1827 C1835 1.503 . S
C1828 C1827 1.410 . S
C1828 C1829 1.392 . S
C1828 C1831 1.511 . S
C1829 C1825 1.376 . S
C1829 C1828 1.392 . S
C1829 H1841 0.929 . S
C1830 C1826 1.531 . S
C1830 H1842 0.960 . S
C1830 H1843 0.962 . S
C1830 H1844 0.960 . S
C1831 C1828 1.511 . S
C1831 H1845 0.961 . S
C1831 H1846 0.961 . S
C1831 H1847 0.961 . S
C1832 C1833 1.370 . S
C1832 C1834 1.363 . S
C1832 H1848 0.931 . S
C1833 C1832 1.370 . S
C1833 C1837 1.408 . S
C1834 C1832 1.363 . S
C1834 C1835 1.370 . S
C1834 C1838 1.524 . S
C1835 C1827 1.503 . S
C1835 C1834 1.370 . S
C1835 C1836 1.403 . S
C1836 C1835 1.403 . S
C1836 C1837 1.404 . S
C1836 C1839 1.539 . S
C1837 C1833 1.408 . S
C1837 C1836 1.404 . S
C1837 H1849 0.930 . S
C1838 C1834 1.524 . S
C1838 H1850 0.956 . S
C1838 H1851 0.961 . S
C1838 H1852 0.961 . S
C1839 C1836 1.539 . S
C1839 H1853 0.958 . S
C1839 H1854 0.961 . S
C1839 H1855 0.960 . S
H1840 C1824 0.931 . S
H1841 C1829 0.929 . S
H1842 C1830 0.960 . S
H1843 C1830 0.962 . S
H1844 C1830 0.960 . S
H1845 C1831 0.961 . S
H1846 C1831 0.961 . S
H1847 C1831 0.961 . S
H1848 C1832 0.931 . S
H1849 C1837 0.930 . S
H1850 C1838 0.956 . S
H1851 C1838 0.961 . S
H1852 C1838 0.961 . S
H1853 C1839 0.958 . S
H1854 C1839 0.961 . S
H1855 C1839 0.960 . S
C1856 C1857 1.391 . S
C1856 C1858 1.394 . S
C1856 H1872 0.931 . S
C1857 C1856 1.391 . S
C1857 C1861 1.376 . S
C1858 C1856 1.394 . S
C1858 C1859 1.369 . S
C1858 C1862 1.531 . S
C1859 C1858 1.369 . S
C1859 C1860 1.410 . S
C1859 C1867 1.503 . S
C1860 C1859 1.410 . S
C1860 C1861 1.392 . S
C1860 C1863 1.511 . S
C1861 C1857 1.376 . S
C1861 C1860 1.392 . S
C1861 H1873 0.929 . S
C1862 C1858 1.531 . S
C1862 H1874 0.960 . S
C1862 H1875 0.962 . S
C1862 H1876 0.960 . S
C1863 C1860 1.511 . S
C1863 H1877 0.961 . S
C1863 H1878 0.961 . S
C1863 H1879 0.961 . S
C1864 C1865 1.370 . S
C1864 C1866 1.363 . S
C1864 H1880 0.931 . S
C1865 C1864 1.370 . S
C1865 C1869 1.408 . S
C1866 C1864 1.363 . S
C1866 C1867 1.370 . S
C1866 C1870 1.524 . S
C1867 C1859 1.503 . S
C1867 C1866 1.370 . S
C1867 C1868 1.403 . S
C1868 C1867 1.403 . S
C1868 C1869 1.404 . S
C1868 C1871 1.539 . S
C1869 C1865 1.408 . S
C1869 C1868 1.404 . S
C1869 H1881 0.930 . S
C1870 C1866 1.524 . S
C1870 H1882 0.956 . S
C1870 H1883 0.961 . S
C1870 H1884 0.961 . S
C1871 C1868 1.539 . S
C1871 H1885 0.958 . S
C1871 H1886 0.961 . S
C1871 H1887 0.960 . S
H1872 C1856 0.931 . S
H1873 C1861 0.929 . S
H1874 C1862 0.960 . S
H1875 C1862 0.962 . S
H1876 C1862 0.960 . S
H1877 C1863 0.961 . S
H1878 C1863 0.961 . S
H1879 C1863 0.961 . S
H1880 C1864 0.931 . S
H1881 C1869 0.930 . S
H1882 C1870 0.956 . S
H1883 C1870 0.961 . S
H1884 C1870 0.961 . S
H1885 C1871 0.958 . S
H1886 C1871 0.961 . S
H1887 C1871 0.960 . S
C1888 C1889 1.391 . S
C1888 C1890 1.394 . S
C1888 H1904 0.931 . S
C1889 C1888 1.391 . S
C1889 C1893 1.376 . S
C1890 C1888 1.394 . S
C1890 C1891 1.369 . S
C1890 C1894 1.531 . S
C1891 C1890 1.369 . S
C1891 C1892 1.410 . S
C1891 C1899 1.503 . S
C1892 C1891 1.410 . S
C1892 C1893 1.392 . S
C1892 C1895 1.511 . S
C1893 C1889 1.376 . S
C1893 C1892 1.392 . S
C1893 H1905 0.929 . S
C1894 C1890 1.531 . S
C1894 H1906 0.960 . S
C1894 H1907 0.962 . S
C1894 H1908 0.960 . S
C1895 C1892 1.511 . S
C1895 H1909 0.961 . S
C1895 H1910 0.961 . S
C1895 H1911 0.961 . S
C1896 C1897 1.370 . S
C1896 C1898 1.363 . S
C1896 H1912 0.931 . S
C1897 C1896 1.370 . S
C1897 C1901 1.408 . S
C1898 C1896 1.363 . S
C1898 C1899 1.370 . S
C1898 C1902 1.524 . S
C1899 C1891 1.503 . S
C1899 C1898 1.370 . S
C1899 C1900 1.403 . S
C1900 C1899 1.403 . S
C1900 C1901 1.404 . S
C1900 C1903 1.539 . S
C1901 C1897 1.408 . S
C1901 C1900 1.404 . S
C1901 H1913 0.930 . S
C1902 C1898 1.524 . S
C1902 H1914 0.956 . S
C1902 H1915 0.961 . S
C1902 H1916 0.961 . S
C1903 C1900 1.539 . S
C1903 H1917 0.958 . S
C1903 H1918 0.961 . S
C1903 H1919 0.960 . S
H1904 C1888 0.931 . S
H1905 C1893 0.929 . S
H1906 C1894 0.960 . S
H1907 C1894 0.962 . S
H1908 C1894 0.960 . S
H1909 C1895 0.961 . S
H1910 C1895 0.961 . S
H1911 C1895 0.961 . S
H1912 C1896 0.931 . S
H1913 C1901 0.930 . S
H1914 C1902 0.956 . S
H1915 C1902 0.961 . S
H1916 C1902 0.961 . S
H1917 C1903 0.958 . S
H1918 C1903 0.961 . S
H1919 C1903 0.960 . S
C1920 C1921 1.391 . S
C1920 C1922 1.394 . S
C1920 H1936 0.931 . S
C1921 C1920 1.391 . S
C1921 C1925 1.376 . S
C1922 C1920 1.394 . S
C1922 C1923 1.369 . S
C1922 C1926 1.531 . S
C1923 C1922 1.369 . S
C1923 C1924 1.410 . S
C1923 C1931 1.503 . S
C1924 C1923 1.410 . S
C1924 C1925 1.392 . S
C1924 C1927 1.511 . S
C1925 C1921 1.376 . S
C1925 C1924 1.392 . S
C1925 H1937 0.929 . S
C1926 C1922 1.531 . S
C1926 H1938 0.960 . S
C1926 H1939 0.962 . S
C1926 H1940 0.960 . S
C1927 C1924 1.511 . S
C1927 H1941 0.961 . S
C1927 H1942 0.961 . S
C1927 H1943 0.961 . S
C1928 C1929 1.370 . S
C1928 C1930 1.363 1_455 S
C1928 H1944 0.931 . S
C1929 C1928 1.370 . S
C1929 C1933 1.408 1_455 S
C1930 C1928 1.363 1_655 S
C1930 C1931 1.370 . S
C1930 C1934 1.524 . S
C1931 C1923 1.503 . S
C1931 C1930 1.370 . S
C1931 C1932 1.403 . S
C1932 C1931 1.403 . S
C1932 C1933 1.404 . S
C1932 C1935 1.539 . S
C1933 C1929 1.408 1_655 S
C1933 C1932 1.404 . S
C1933 H1945 0.930 . S
C1934 C1930 1.524 . S
C1934 H1946 0.956 . S
C1934 H1947 0.961 . S
C1934 H1948 0.961 1_655 S
C1935 C1932 1.539 . S
C1935 H1949 0.958 . S
C1935 H1950 0.961 . S
C1935 H1951 0.960 . S
H1936 C1920 0.931 . S
H1937 C1925 0.929 . S
H1938 C1926 0.960 . S
H1939 C1926 0.962 . S
H1940 C1926 0.960 . S
H1941 C1927 0.961 . S
H1942 C1927 0.961 . S
H1943 C1927 0.961 . S
H1944 C1928 0.931 . S
H1945 C1933 0.930 . S
H1946 C1934 0.956 . S
H1947 C1934 0.961 . S
H1948 C1934 0.961 1_455 S
H1949 C1935 0.958 . S
H1950 C1935 0.961 . S
H1951 C1935 0.960 . S
C1952 C1953 1.391 . S
C1952 C1954 1.394 . S
C1952 H1968 0.931 . S
C1953 C1952 1.391 . S
C1953 C1957 1.376 . S
C1954 C1952 1.394 . S
C1954 C1955 1.369 . S
C1954 C1958 1.531 . S
C1955 C1954 1.369 . S
C1955 C1956 1.410 . S
C1955 C1963 1.503 . S
C1956 C1955 1.410 . S
C1956 C1957 1.392 . S
C1956 C1959 1.511 . S
C1957 C1953 1.376 . S
C1957 C1956 1.392 . S
C1957 H1969 0.929 . S
C1958 C1954 1.531 . S
C1958 H1970 0.960 . S
C1958 H1971 0.962 . S
C1958 H1972 0.960 . S
C1959 C1956 1.511 . S
C1959 H1973 0.961 . S
C1959 H1974 0.961 . S
C1959 H1975 0.961 . S
C1960 C1961 1.370 . S
C1960 C1962 1.363 . S
C1960 H1976 0.931 . S
C1961 C1960 1.370 . S
C1961 C1965 1.408 . S
C1962 C1960 1.363 . S
C1962 C1963 1.370 . S
C1962 C1966 1.524 . S
C1963 C1955 1.503 . S
C1963 C1962 1.370 . S
C1963 C1964 1.403 . S
C1964 C1963 1.403 . S
C1964 C1965 1.404 . S
C1964 C1967 1.539 . S
C1965 C1961 1.408 . S
C1965 C1964 1.404 . S
C1965 H1977 0.930 . S
C1966 C1962 1.524 . S
C1966 H1978 0.956 . S
C1966 H1979 0.961 . S
C1966 H1980 0.961 . S
C1967 C1964 1.539 . S
C1967 H1981 0.958 . S
C1967 H1982 0.961 . S
C1967 H1983 0.960 . S
H1968 C1952 0.931 . S
H1969 C1957 0.929 . S
H1970 C1958 0.960 . S
H1971 C1958 0.962 . S
H1972 C1958 0.960 . S
H1973 C1959 0.961 . S
H1974 C1959 0.961 . S
H1975 C1959 0.961 . S
H1976 C1960 0.931 . S
H1977 C1965 0.930 . S
H1978 C1966 0.956 . S
H1979 C1966 0.961 . S
H1980 C1966 0.961 . S
H1981 C1967 0.958 . S
H1982 C1967 0.961 . S
H1983 C1967 0.960 . S
C1984 C1985 1.391 . S
C1984 C1986 1.394 . S
C1984 H2000 0.931 . S
C1985 C1984 1.391 . S
C1985 C1989 1.376 . S
C1986 C1984 1.394 . S
C1986 C1987 1.369 . S
C1986 C1990 1.531 . S
C1987 C1986 1.369 . S
C1987 C1988 1.410 . S
C1987 C1995 1.503 . S
C1988 C1987 1.410 . S
C1988 C1989 1.392 . S
C1988 C1991 1.511 . S
C1989 C1985 1.376 . S
C1989 C1988 1.392 . S
C1989 H2001 0.929 . S
C1990 C1986 1.531 . S
C1990 H2002 0.960 . S
C1990 H2003 0.962 . S
C1990 H2004 0.960 . S
C1991 C1988 1.511 . S
C1991 H2005 0.961 . S
C1991 H2006 0.961 . S
C1991 H2007 0.961 . S
C1992 C1993 1.370 . S
C1992 C1994 1.363 . S
C1992 H2008 0.931 . S
C1993 C1992 1.370 . S
C1993 C1997 1.408 . S
C1994 C1992 1.363 . S
C1994 C1995 1.370 . S
C1994 C1998 1.524 . S
C1995 C1987 1.503 . S
C1995 C1994 1.370 . S
C1995 C1996 1.403 . S
C1996 C1995 1.403 . S
C1996 C1997 1.404 . S
C1996 C1999 1.539 . S
C1997 C1993 1.408 . S
C1997 C1996 1.404 . S
C1997 H2009 0.930 . S
C1998 C1994 1.524 . S
C1998 H2010 0.956 . S
C1998 H2011 0.961 . S
C1998 H2012 0.961 . S
C1999 C1996 1.539 . S
C1999 H2013 0.958 . S
C1999 H2014 0.961 . S
C1999 H2015 0.960 . S
H2000 C1984 0.931 . S
H2001 C1989 0.929 . S
H2002 C1990 0.960 . S
H2003 C1990 0.962 . S
H2004 C1990 0.960 . S
H2005 C1991 0.961 . S
H2006 C1991 0.961 . S
H2007 C1991 0.961 . S
H2008 C1992 0.931 . S
H2009 C1997 0.930 . S
H2010 C1998 0.956 . S
H2011 C1998 0.961 . S
H2012 C1998 0.961 . S
H2013 C1999 0.958 . S
H2014 C1999 0.961 . S
H2015 C1999 0.960 . S
C2016 C2017 1.391 . S
C2016 C2018 1.394 . S
C2016 H2032 0.931 . S
C2017 C2016 1.391 . S
C2017 C2021 1.376 . S
C2018 C2016 1.394 . S
C2018 C2019 1.369 . S
C2018 C2022 1.531 . S
C2019 C2018 1.369 . S
C2019 C2020 1.410 . S
C2019 C2027 1.503 . S
C2020 C2019 1.410 . S
C2020 C2021 1.392 . S
C2020 C2023 1.511 . S
C2021 C2017 1.376 . S
C2021 C2020 1.392 . S
C2021 H2033 0.929 . S
C2022 C2018 1.531 . S
C2022 H2034 0.960 . S
C2022 H2035 0.962 . S
C2022 H2036 0.960 . S
C2023 C2020 1.511 . S
C2023 H2037 0.961 . S
C2023 H2038 0.961 . S
C2023 H2039 0.961 . S
C2024 C2025 1.370 . S
C2024 C2026 1.363 . S
C2024 H2040 0.931 . S
C2025 C2024 1.370 . S
C2025 C2029 1.408 . S
C2026 C2024 1.363 . S
C2026 C2027 1.370 . S
C2026 C2030 1.524 . S
C2027 C2019 1.503 . S
C2027 C2026 1.370 . S
C2027 C2028 1.403 . S
C2028 C2027 1.403 . S
C2028 C2029 1.404 . S
C2028 C2031 1.539 . S
C2029 C2025 1.408 . S
C2029 C2028 1.404 . S
C2029 H2041 0.930 . S
C2030 C2026 1.524 . S
C2030 H2042 0.956 . S
C2030 H2043 0.961 . S
C2030 H2044 0.961 . S
C2031 C2028 1.539 . S
C2031 H2045 0.958 . S
C2031 H2046 0.961 . S
C2031 H2047 0.960 . S
H2032 C2016 0.931 . S
H2033 C2021 0.929 . S
H2034 C2022 0.960 . S
H2035 C2022 0.962 . S
H2036 C2022 0.960 . S
H2037 C2023 0.961 . S
H2038 C2023 0.961 . S
H2039 C2023 0.961 . S
H2040 C2024 0.931 . S
H2041 C2029 0.930 . S
H2042 C2030 0.956 . S
H2043 C2030 0.961 . S
H2044 C2030 0.961 . S
H2045 C2031 0.958 . S
H2046 C2031 0.961 . S
H2047 C2031 0.960 . S
C2048 C2049 1.391 . S
C2048 C2050 1.394 . S
C2048 H2064 0.931 . S
C2049 C2048 1.391 . S
C2049 C2053 1.376 . S
C2050 C2048 1.394 . S
C2050 C2051 1.369 . S
C2050 C2054 1.531 . S
C2051 C2050 1.369 . S
C2051 C2052 1.410 . S
C2051 C2059 1.503 . S
C2052 C2051 1.410 . S
C2052 C2053 1.392 . S
C2052 C2055 1.511 . S
C2053 C2049 1.376 . S
C2053 C2052 1.392 . S
C2053 H2065 0.929 . S
C2054 C2050 1.531 . S
C2054 H2066 0.960 . S
C2054 H2067 0.962 . S
C2054 H2068 0.960 . S
C2055 C2052 1.511 . S
C2055 H2069 0.961 . S
C2055 H2070 0.961 . S
C2055 H2071 0.961 . S
C2056 C2057 1.370 . S
C2056 C2058 1.363 1_455 S
C2056 H2072 0.931 . S
C2057 C2056 1.370 . S
C2057 C2061 1.408 1_455 S
C2058 C2056 1.363 1_655 S
C2058 C2059 1.370 . S
C2058 C2062 1.524 . S
C2059 C2051 1.503 . S
C2059 C2058 1.370 . S
C2059 C2060 1.403 . S
C2060 C2059 1.403 . S
C2060 C2061 1.404 . S
C2060 C2063 1.539 . S
C2061 C2057 1.408 1_655 S
C2061 C2060 1.404 . S
C2061 H2073 0.930 . S
C2062 C2058 1.524 . S
C2062 H2074 0.956 . S
C2062 H2075 0.961 . S
C2062 H2076 0.961 1_655 S
C2063 C2060 1.539 . S
C2063 H2077 0.958 . S
C2063 H2078 0.961 . S
C2063 H2079 0.960 . S
H2064 C2048 0.931 . S
H2065 C2053 0.929 . S
H2066 C2054 0.960 . S
H2067 C2054 0.962 . S
H2068 C2054 0.960 . S
H2069 C2055 0.961 . S
H2070 C2055 0.961 . S
H2071 C2055 0.961 . S
H2072 C2056 0.931 . S
H2073 C2061 0.930 . S
H2074 C2062 0.956 . S
H2075 C2062 0.961 . S
H2076 C2062 0.961 1_455 S
H2077 C2063 0.958 . S
H2078 C2063 0.961 . S
H2079 C2063 0.960 . S
C2080 C2081 1.391 . S
C2080 C2082 1.394 . S
C2080 H2096 0.931 . S
C2081 C2080 1.391 . S
C2081 C2085 1.376 . S
C2082 C2080 1.394 . S
C2082 C2083 1.369 . S
C2082 C2086 1.531 . S
C2083 C2082 1.369 . S
C2083 C2084 1.410 . S
C2083 C2091 1.503 . S
C2084 C2083 1.410 . S
C2084 C2085 1.392 . S
C2084 C2087 1.511 . S
C2085 C2081 1.376 . S
C2085 C2084 1.392 . S
C2085 H2097 0.929 . S
C2086 C2082 1.531 . S
C2086 H2098 0.960 . S
C2086 H2099 0.962 . S
C2086 H2100 0.960 . S
C2087 C2084 1.511 . S
C2087 H2101 0.961 . S
C2087 H2102 0.961 . S
C2087 H2103 0.961 . S
C2088 C2089 1.370 . S
C2088 C2090 1.363 . S
C2088 H2104 0.931 . S
C2089 C2088 1.370 . S
C2089 C2093 1.408 . S
C2090 C2088 1.363 . S
C2090 C2091 1.370 . S
C2090 C2094 1.524 . S
C2091 C2083 1.503 . S
C2091 C2090 1.370 . S
C2091 C2092 1.403 . S
C2092 C2091 1.403 . S
C2092 C2093 1.404 . S
C2092 C2095 1.539 . S
C2093 C2089 1.408 . S
C2093 C2092 1.404 . S
C2093 H2105 0.930 . S
C2094 C2090 1.524 . S
C2094 H2106 0.956 . S
C2094 H2107 0.961 . S
C2094 H2108 0.961 . S
C2095 C2092 1.539 . S
C2095 H2109 0.958 . S
C2095 H2110 0.961 . S
C2095 H2111 0.960 . S
H2096 C2080 0.931 . S
H2097 C2085 0.929 . S
H2098 C2086 0.960 . S
H2099 C2086 0.962 . S
H2100 C2086 0.960 . S
H2101 C2087 0.961 . S
H2102 C2087 0.961 . S
H2103 C2087 0.961 . S
H2104 C2088 0.931 . S
H2105 C2093 0.930 . S
H2106 C2094 0.956 . S
H2107 C2094 0.961 . S
H2108 C2094 0.961 . S
H2109 C2095 0.958 . S
H2110 C2095 0.961 . S
H2111 C2095 0.960 . S
C2112 C2113 1.391 . S
C2112 C2114 1.394 1_455 S
C2112 H2128 0.931 . S
C2113 C2112 1.391 . S
C2113 C2117 1.376 1_455 S
C2114 C2112 1.394 1_655 S
C2114 C2115 1.369 . S
C2114 C2118 1.531 1_655 S
C2115 C2114 1.369 . S
C2115 C2116 1.410 . S
C2115 C2123 1.503 . S
C2116 C2115 1.410 . S
C2116 C2117 1.392 . S
C2116 C2119 1.511 . S
C2117 C2113 1.376 1_655 S
C2117 C2116 1.392 . S
C2117 H2129 0.929 . S
C2118 C2114 1.531 1_455 S
C2118 H2130 0.960 1_455 S
C2118 H2131 0.962 . S
C2118 H2132 0.960 . S
C2119 C2116 1.511 . S
C2119 H2133 0.961 . S
C2119 H2134 0.961 . S
C2119 H2135 0.961 . S
C2120 C2121 1.370 . S
C2120 C2122 1.363 . S
C2120 H2136 0.931 . S
C2121 C2120 1.370 . S
C2121 C2125 1.408 . S
C2122 C2120 1.363 . S
C2122 C2123 1.370 . S
C2122 C2126 1.524 . S
C2123 C2115 1.503 . S
C2123 C2122 1.370 . S
C2123 C2124 1.403 . S
C2124 C2123 1.403 . S
C2124 C2125 1.404 . S
C2124 C2127 1.539 . S
C2125 C2121 1.408 . S
C2125 C2124 1.404 . S
C2125 H2137 0.930 . S
C2126 C2122 1.524 . S
C2126 H2138 0.956 . S
C2126 H2139 0.961 . S
C2126 H2140 0.961 . S
C2127 C2124 1.539 . S
C2127 H2141 0.958 . S
C2127 H2142 0.961 . S
C2127 H2143 0.960 . S
H2128 C2112 0.931 . S
H2129 C2117 0.929 . S
H2130 C2118 0.960 1_655 S
H2131 C2118 0.962 . S
H2132 C2118 0.960 . S
H2133 C2119 0.961 . S
H2134 C2119 0.961 . S
H2135 C2119 0.961 . S
H2136 C2120 0.931 . S
H2137 C2125 0.930 . S
H2138 C2126 0.956 . S
H2139 C2126 0.961 . S
H2140 C2126 0.961 . S
H2141 C2127 0.958 . S
H2142 C2127 0.961 . S
H2143 C2127 0.960 . S
C2144 C2145 1.391 . S
C2144 C2146 1.394 . S
C2144 H2160 0.931 . S
C2145 C2144 1.391 . S
C2145 C2149 1.376 . S
C2146 C2144 1.394 . S
C2146 C2147 1.369 . S
C2146 C2150 1.531 . S
C2147 C2146 1.369 . S
C2147 C2148 1.410 . S
C2147 C2155 1.503 . S
C2148 C2147 1.410 . S
C2148 C2149 1.392 . S
C2148 C2151 1.511 . S
C2149 C2145 1.376 . S
C2149 C2148 1.392 . S
C2149 H2161 0.929 . S
C2150 C2146 1.531 . S
C2150 H2162 0.960 . S
C2150 H2163 0.962 . S
C2150 H2164 0.960 . S
C2151 C2148 1.511 . S
C2151 H2165 0.961 . S
C2151 H2166 0.961 . S
C2151 H2167 0.961 . S
C2152 C2153 1.370 . S
C2152 C2154 1.363 . S
C2152 H2168 0.931 . S
C2153 C2152 1.370 . S
C2153 C2157 1.408 . S
C2154 C2152 1.363 . S
C2154 C2155 1.370 . S
C2154 C2158 1.524 . S
C2155 C2147 1.503 . S
C2155 C2154 1.370 . S
C2155 C2156 1.403 . S
C2156 C2155 1.403 . S
C2156 C2157 1.404 . S
C2156 C2159 1.539 . S
C2157 C2153 1.408 . S
C2157 C2156 1.404 . S
C2157 H2169 0.930 . S
C2158 C2154 1.524 . S
C2158 H2170 0.956 . S
C2158 H2171 0.961 . S
C2158 H2172 0.961 . S
C2159 C2156 1.539 . S
C2159 H2173 0.958 . S
C2159 H2174 0.961 . S
C2159 H2175 0.960 . S
H2160 C2144 0.931 . S
H2161 C2149 0.929 . S
H2162 C2150 0.960 . S
H2163 C2150 0.962 . S
H2164 C2150 0.960 . S
H2165 C2151 0.961 . S
H2166 C2151 0.961 . S
H2167 C2151 0.961 . S
H2168 C2152 0.931 . S
H2169 C2157 0.930 . S
H2170 C2158 0.956 . S
H2171 C2158 0.961 . S
H2172 C2158 0.961 . S
H2173 C2159 0.958 . S
H2174 C2159 0.961 . S
H2175 C2159 0.960 . S
C2176 C2177 1.391 . S
C2176 C2178 1.394 . S
C2176 H2192 0.931 . S
C2177 C2176 1.391 . S
C2177 C2181 1.376 . S
C2178 C2176 1.394 . S
C2178 C2179 1.369 . S
C2178 C2182 1.531 . S
C2179 C2178 1.369 . S
C2179 C2180 1.410 . S
C2179 C2187 1.503 . S
C2180 C2179 1.410 . S
C2180 C2181 1.392 . S
C2180 C2183 1.511 . S
C2181 C2177 1.376 . S
C2181 C2180 1.392 . S
C2181 H2193 0.929 . S
C2182 C2178 1.531 . S
C2182 H2194 0.960 . S
C2182 H2195 0.962 . S
C2182 H2196 0.960 . S
C2183 C2180 1.511 . S
C2183 H2197 0.961 . S
C2183 H2198 0.961 . S
C2183 H2199 0.961 . S
C2184 C2185 1.370 . S
C2184 C2186 1.363 . S
C2184 H2200 0.931 . S
C2185 C2184 1.370 . S
C2185 C2189 1.408 . S
C2186 C2184 1.363 . S
C2186 C2187 1.370 . S
C2186 C2190 1.524 . S
C2187 C2179 1.503 . S
C2187 C2186 1.370 . S
C2187 C2188 1.403 . S
C2188 C2187 1.403 . S
C2188 C2189 1.404 . S
C2188 C2191 1.539 . S
C2189 C2185 1.408 . S
C2189 C2188 1.404 . S
C2189 H2201 0.930 . S
C2190 C2186 1.524 . S
C2190 H2202 0.956 . S
C2190 H2203 0.961 . S
C2190 H2204 0.961 . S
C2191 C2188 1.539 . S
C2191 H2205 0.958 . S
C2191 H2206 0.961 . S
C2191 H2207 0.960 . S
H2192 C2176 0.931 . S
H2193 C2181 0.929 . S
H2194 C2182 0.960 . S
H2195 C2182 0.962 . S
H2196 C2182 0.960 . S
H2197 C2183 0.961 . S
H2198 C2183 0.961 . S
H2199 C2183 0.961 . S
H2200 C2184 0.931 . S
H2201 C2189 0.930 . S
H2202 C2190 0.956 . S
H2203 C2190 0.961 . S
H2204 C2190 0.961 . S
H2205 C2191 0.958 . S
H2206 C2191 0.961 . S
H2207 C2191 0.960 . S
C2208 C2209 1.391 . S
C2208 C2210 1.394 . S
C2208 H2224 0.931 . S
C2209 C2208 1.391 . S
C2209 C2213 1.376 . S
C2210 C2208 1.394 . S
C2210 C2211 1.369 . S
C2210 C2214 1.531 . S
C2211 C2210 1.369 . S
C2211 C2212 1.410 . S
C2211 C2219 1.503 . S
C2212 C2211 1.410 . S
C2212 C2213 1.392 . S
C2212 C2215 1.511 . S
C2213 C2209 1.376 . S
C2213 C2212 1.392 . S
C2213 H2225 0.929 . S
C2214 C2210 1.531 . S
C2214 H2226 0.960 . S
C2214 H2227 0.962 . S
C2214 H2228 0.960 . S
C2215 C2212 1.511 . S
C2215 H2229 0.961 . S
C2215 H2230 0.961 . S
C2215 H2231 0.961 . S
C2216 C2217 1.370 . S
C2216 C2218 1.363 . S
C2216 H2232 0.931 . S
C2217 C2216 1.370 . S
C2217 C2221 1.408 . S
C2218 C2216 1.363 . S
C2218 C2219 1.370 . S
C2218 C2222 1.524 . S
C2219 C2211 1.503 . S
C2219 C2218 1.370 . S
C2219 C2220 1.403 . S
C2220 C2219 1.403 . S
C2220 C2221 1.404 . S
C2220 C2223 1.539 . S
C2221 C2217 1.408 . S
C2221 C2220 1.404 . S
C2221 H2233 0.930 . S
C2222 C2218 1.524 . S
C2222 H2234 0.956 . S
C2222 H2235 0.961 . S
C2222 H2236 0.961 . S
C2223 C2220 1.539 . S
C2223 H2237 0.958 . S
C2223 H2238 0.961 . S
C2223 H2239 0.960 . S
H2224 C2208 0.931 . S
H2225 C2213 0.929 . S
H2226 C2214 0.960 . S
H2227 C2214 0.962 . S
H2228 C2214 0.960 . S
H2229 C2215 0.961 . S
H2230 C2215 0.961 . S
H2231 C2215 0.961 . S
H2232 C2216 0.931 . S
H2233 C2221 0.930 . S
H2234 C2222 0.956 . S
H2235 C2222 0.961 . S
H2236 C2222 0.961 . S
H2237 C2223 0.958 . S
H2238 C2223 0.961 . S
H2239 C2223 0.960 . S
C2240 C2241 1.391 . S
C2240 C2242 1.394 . S
C2240 H2256 0.931 . S
C2241 C2240 1.391 . S
C2241 C2245 1.376 . S
C2242 C2240 1.394 . S
C2242 C2243 1.369 . S
C2242 C2246 1.531 . S
C2243 C2242 1.369 . S
C2243 C2244 1.410 . S
C2243 C2251 1.503 . S
C2244 C2243 1.410 . S
C2244 C2245 1.392 . S
C2244 C2247 1.511 . S
C2245 C2241 1.376 . S
C2245 C2244 1.392 . S
C2245 H2257 0.929 . S
C2246 C2242 1.531 . S
C2246 H2258 0.960 . S
C2246 H2259 0.962 . S
C2246 H2260 0.960 . S
C2247 C2244 1.511 . S
C2247 H2261 0.961 . S
C2247 H2262 0.961 . S
C2247 H2263 0.961 . S
C2248 C2249 1.377 . S
C2248 C2250 1.353 1_455 S
C2248 H2264 0.934 . S
C2249 C2248 1.377 . S
C2249 C2253 1.408 . S
C2250 C2248 1.353 1_655 S
C2250 C2251 1.370 . S
C2250 C2254 1.524 . S
C2251 C2243 1.503 . S
C2251 C2250 1.370 . S
C2251 C2252 1.403 . S
C2252 C2251 1.403 . S
C2252 C2253 1.404 1_655 S
C2252 C2255 1.539 . S
C2253 C2249 1.408 . S
C2253 C2252 1.404 1_455 S
C2253 H2265 0.930 . S
C2254 C2250 1.524 . S
C2254 H2266 0.956 . S
C2254 H2267 0.961 . S
C2254 H2268 0.961 . S
C2255 C2252 1.539 . S
C2255 H2269 0.958 . S
C2255 H2270 0.961 . S
C2255 H2271 0.960 . S
H2256 C2240 0.931 . S
H2257 C2245 0.929 . S
H2258 C2246 0.960 . S
H2259 C2246 0.962 . S
H2260 C2246 0.960 . S
H2261 C2247 0.961 . S
H2262 C2247 0.961 . S
H2263 C2247 0.961 . S
H2264 C2248 0.934 . S
H2265 C2253 0.930 . S
H2266 C2254 0.956 . S
H2267 C2254 0.961 . S
H2268 C2254 0.961 . S
H2269 C2255 0.958 . S
H2270 C2255 0.961 . S
H2271 C2255 0.960 . S
C2272 C2273 1.391 . S
C2272 C2274 1.394 . S
C2272 H2288 0.931 . S
C2273 C2272 1.391 . S
C2273 C2277 1.376 . S
C2274 C2272 1.394 . S
C2274 C2275 1.369 . S
C2274 C2278 1.531 . S
C2275 C2274 1.369 . S
C2275 C2276 1.410 . S
C2275 C2283 1.503 . S
C2276 C2275 1.410 . S
C2276 C2277 1.392 . S
C2276 C2279 1.511 . S
C2277 C2273 1.376 . S
C2277 C2276 1.392 . S
C2277 H2289 0.929 . S
C2278 C2274 1.531 . S
C2278 H2290 0.960 . S
C2278 H2291 0.962 . S
C2278 H2292 0.960 . S
C2279 C2276 1.511 . S
C2279 H2293 0.961 . S
C2279 H2294 0.961 . S
C2279 H2295 0.961 . S
C2280 C2281 1.370 . S
C2280 C2282 1.363 . S
C2280 H2296 0.931 . S
C2281 C2280 1.370 . S
C2281 C2285 1.408 . S
C2282 C2280 1.363 . S
C2282 C2283 1.370 . S
C2282 C2286 1.524 . S
C2283 C2275 1.503 . S
C2283 C2282 1.370 . S
C2283 C2284 1.403 . S
C2284 C2283 1.403 . S
C2284 C2285 1.404 . S
C2284 C2287 1.539 . S
C2285 C2281 1.408 . S
C2285 C2284 1.404 . S
C2285 H2297 0.930 . S
C2286 C2282 1.524 . S
C2286 H2298 0.956 . S
C2286 H2299 0.961 . S
C2286 H2300 0.961 . S
C2287 C2284 1.539 . S
C2287 H2301 0.958 . S
C2287 H2302 0.961 . S
C2287 H2303 0.960 . S
H2288 C2272 0.931 . S
H2289 C2277 0.929 . S
H2290 C2278 0.960 . S
H2291 C2278 0.962 . S
H2292 C2278 0.960 . S
H2293 C2279 0.961 . S
H2294 C2279 0.961 . S
H2295 C2279 0.961 . S
H2296 C2280 0.931 . S
H2297 C2285 0.930 . S
H2298 C2286 0.956 . S
H2299 C2286 0.961 . S
H2300 C2286 0.961 . S
H2301 C2287 0.958 . S
H2302 C2287 0.961 . S
H2303 C2287 0.960 . S
C2304 C2305 1.391 . S
C2304 C2306 1.394 . S
C2304 H2320 0.931 . S
C2305 C2304 1.391 . S
C2305 C2309 1.376 . S
C2306 C2304 1.394 . S
C2306 C2307 1.369 . S
C2306 C2310 1.531 . S
C2307 C2306 1.369 . S
C2307 C2308 1.410 . S
C2307 C2315 1.503 . S
C2308 C2307 1.410 . S
C2308 C2309 1.392 . S
C2308 C2311 1.511 . S
C2309 C2305 1.376 . S
C2309 C2308 1.392 . S
C2309 H2321 0.929 . S
C2310 C2306 1.531 . S
C2310 H2322 0.960 . S
C2310 H2323 0.962 . S
C2310 H2324 0.960 . S
C2311 C2308 1.511 . S
C2311 H2325 0.961 . S
C2311 H2326 0.961 . S
C2311 H2327 0.961 . S
C2312 C2313 1.370 . S
C2312 C2314 1.363 . S
C2312 H2328 0.931 . S
C2313 C2312 1.370 . S
C2313 C2317 1.408 . S
C2314 C2312 1.363 . S
C2314 C2315 1.370 . S
C2314 C2318 1.524 . S
C2315 C2307 1.503 . S
C2315 C2314 1.370 . S
C2315 C2316 1.403 . S
C2316 C2315 1.403 . S
C2316 C2317 1.404 . S
C2316 C2319 1.539 . S
C2317 C2313 1.408 . S
C2317 C2316 1.404 . S
C2317 H2329 0.930 . S
C2318 C2314 1.524 . S
C2318 H2330 0.956 . S
C2318 H2331 0.961 . S
C2318 H2332 0.961 . S
C2319 C2316 1.539 . S
C2319 H2333 0.958 . S
C2319 H2334 0.961 . S
C2319 H2335 0.960 . S
H2320 C2304 0.931 . S
H2321 C2309 0.929 . S
H2322 C2310 0.960 . S
H2323 C2310 0.962 . S
H2324 C2310 0.960 . S
H2325 C2311 0.961 . S
H2326 C2311 0.961 . S
H2327 C2311 0.961 . S
H2328 C2312 0.931 . S
H2329 C2317 0.930 . S
H2330 C2318 0.956 . S
H2331 C2318 0.961 . S
H2332 C2318 0.961 . S
H2333 C2319 0.958 . S
H2334 C2319 0.961 . S
H2335 C2319 0.960 . S
C2336 C2337 1.391 . S
C2336 C2338 1.394 . S
C2336 H2352 0.931 . S
C2337 C2336 1.391 . S
C2337 C2341 1.376 . S
C2338 C2336 1.394 . S
C2338 C2339 1.369 . S
C2338 C2342 1.531 . S
C2339 C2338 1.369 . S
C2339 C2340 1.410 . S
C2339 C2347 1.503 . S
C2340 C2339 1.410 . S
C2340 C2341 1.392 . S
C2340 C2343 1.511 . S
C2341 C2337 1.376 . S
C2341 C2340 1.392 . S
C2341 H2353 0.929 . S
C2342 C2338 1.531 . S
C2342 H2354 0.960 . S
C2342 H2355 0.962 . S
C2342 H2356 0.960 . S
C2343 C2340 1.511 . S
C2343 H2357 0.961 . S
C2343 H2358 0.961 . S
C2343 H2359 0.961 . S
C2344 C2345 1.370 . S
C2344 C2346 1.363 . S
C2344 H2360 0.931 . S
C2345 C2344 1.370 . S
C2345 C2349 1.408 . S
C2346 C2344 1.363 . S
C2346 C2347 1.370 . S
C2346 C2350 1.524 . S
C2347 C2339 1.503 . S
C2347 C2346 1.370 . S
C2347 C2348 1.403 . S
C2348 C2347 1.403 . S
C2348 C2349 1.404 . S
C2348 C2351 1.539 . S
C2349 C2345 1.408 . S
C2349 C2348 1.404 . S
C2349 H2361 0.930 . S
C2350 C2346 1.524 . S
C2350 H2362 0.956 . S
C2350 H2363 0.961 . S
C2350 H2364 0.961 . S
C2351 C2348 1.539 . S
C2351 H2365 0.958 . S
C2351 H2366 0.961 . S
C2351 H2367 0.960 . S
H2352 C2336 0.931 . S
H2353 C2341 0.929 . S
H2354 C2342 0.960 . S
H2355 C2342 0.962 . S
H2356 C2342 0.960 . S
H2357 C2343 0.961 . S
H2358 C2343 0.961 . S
H2359 C2343 0.961 . S
H2360 C2344 0.931 . S
H2361 C2349 0.930 . S
H2362 C2350 0.956 . S
H2363 C2350 0.961 . S
H2364 C2350 0.961 . S
H2365 C2351 0.958 . S
H2366 C2351 0.961 . S
H2367 C2351 0.960 . S
C2368 C2369 1.391 . S
C2368 C2370 1.394 1_655 S
C2368 H2384 0.931 . S
C2369 C2368 1.391 . S
C2369 C2373 1.376 1_655 S
C2370 C2368 1.394 1_455 S
C2370 C2371 1.369 . S
C2370 C2374 1.531 . S
C2371 C2370 1.369 . S
C2371 C2372 1.410 . S
C2371 C2379 1.503 . S
C2372 C2371 1.410 . S
C2372 C2373 1.392 . S
C2372 C2375 1.511 . S
C2373 C2369 1.376 1_455 S
C2373 C2372 1.392 . S
C2373 H2385 0.929 . S
C2374 C2370 1.531 . S
C2374 H2386 0.960 . S
C2374 H2387 0.962 . S
C2374 H2388 0.960 1_455 S
C2375 C2372 1.511 . S
C2375 H2389 0.961 . S
C2375 H2390 0.961 . S
C2375 H2391 0.961 . S
C2376 C2377 1.370 . S
C2376 C2378 1.363 . S
C2376 H2392 0.931 . S
C2377 C2376 1.370 . S
C2377 C2381 1.408 . S
C2378 C2376 1.363 . S
C2378 C2379 1.370 . S
C2378 C2382 1.524 . S
C2379 C2371 1.503 . S
C2379 C2378 1.370 . S
C2379 C2380 1.403 . S
C2380 C2379 1.403 . S
C2380 C2381 1.404 . S
C2380 C2383 1.539 . S
C2381 C2377 1.408 . S
C2381 C2380 1.404 . S
C2381 H2393 0.930 . S
C2382 C2378 1.524 . S
C2382 H2394 0.956 . S
C2382 H2395 0.961 . S
C2382 H2396 0.961 . S
C2383 C2380 1.539 . S
C2383 H2397 0.958 . S
C2383 H2398 0.961 . S
C2383 H2399 0.960 . S
H2384 C2368 0.931 . S
H2385 C2373 0.929 . S
H2386 C2374 0.960 . S
H2387 C2374 0.962 . S
H2388 C2374 0.960 1_655 S
H2389 C2375 0.961 . S
H2390 C2375 0.961 . S
H2391 C2375 0.961 . S
H2392 C2376 0.931 . S
H2393 C2381 0.930 . S
H2394 C2382 0.956 . S
H2395 C2382 0.961 . S
H2396 C2382 0.961 . S
H2397 C2383 0.958 . S
H2398 C2383 0.961 . S
H2399 C2383 0.960 . S
C2400 C2401 1.391 . S
C2400 C2402 1.394 . S
C2400 H2416 0.931 . S
C2401 C2400 1.391 . S
C2401 C2405 1.376 . S
C2402 C2400 1.394 . S
C2402 C2403 1.369 . S
C2402 C2406 1.531 . S
C2403 C2402 1.369 . S
C2403 C2404 1.410 . S
C2403 C2411 1.503 . S
C2404 C2403 1.410 . S
C2404 C2405 1.392 . S
C2404 C2407 1.511 . S
C2405 C2401 1.376 . S
C2405 C2404 1.392 . S
C2405 H2417 0.929 . S
C2406 C2402 1.531 . S
C2406 H2418 0.960 . S
C2406 H2419 0.962 . S
C2406 H2420 0.960 . S
C2407 C2404 1.511 . S
C2407 H2421 0.961 . S
C2407 H2422 0.961 . S
C2407 H2423 0.961 . S
C2408 C2409 1.370 . S
C2408 C2410 1.363 . S
C2408 H2424 0.931 . S
C2409 C2408 1.370 . S
C2409 C2413 1.408 . S
C2410 C2408 1.363 . S
C2410 C2411 1.370 . S
C2410 C2414 1.524 . S
C2411 C2403 1.503 . S
C2411 C2410 1.370 . S
C2411 C2412 1.403 . S
C2412 C2411 1.403 . S
C2412 C2413 1.404 . S
C2412 C2415 1.539 . S
C2413 C2409 1.408 . S
C2413 C2412 1.404 . S
C2413 H2425 0.930 . S
C2414 C2410 1.524 . S
C2414 H2426 0.956 . S
C2414 H2427 0.961 . S
C2414 H2428 0.961 . S
C2415 C2412 1.539 . S
C2415 H2429 0.958 . S
C2415 H2430 0.961 . S
C2415 H2431 0.960 . S
H2416 C2400 0.931 . S
H2417 C2405 0.929 . S
H2418 C2406 0.960 . S
H2419 C2406 0.962 . S
H2420 C2406 0.960 . S
H2421 C2407 0.961 . S
H2422 C2407 0.961 . S
H2423 C2407 0.961 . S
H2424 C2408 0.931 . S
H2425 C2413 0.930 . S
H2426 C2414 0.956 . S
H2427 C2414 0.961 . S
H2428 C2414 0.961 . S
H2429 C2415 0.958 . S
H2430 C2415 0.961 . S
H2431 C2415 0.960 . S
C2432 C2433 1.391 . S
C2432 C2434 1.394 . S
C2432 H2448 0.931 . S
C2433 C2432 1.391 . S
C2433 C2437 1.376 . S
C2434 C2432 1.394 . S
C2434 C2435 1.369 . S
C2434 C2438 1.531 . S
C2435 C2434 1.369 . S
C2435 C2436 1.410 . S
C2435 C2443 1.503 . S
C2436 C2435 1.410 . S
C2436 C2437 1.392 . S
C2436 C2439 1.511 . S
C2437 C2433 1.376 . S
C2437 C2436 1.392 . S
C2437 H2449 0.929 . S
C2438 C2434 1.531 . S
C2438 H2450 0.960 . S
C2438 H2451 0.962 . S
C2438 H2452 0.960 . S
C2439 C2436 1.511 . S
C2439 H2453 0.961 . S
C2439 H2454 0.961 . S
C2439 H2455 0.961 . S
C2440 C2441 1.370 . S
C2440 C2442 1.363 . S
C2440 H2456 0.931 . S
C2441 C2440 1.370 . S
C2441 C2445 1.408 . S
C2442 C2440 1.363 . S
C2442 C2443 1.370 . S
C2442 C2446 1.524 . S
C2443 C2435 1.503 . S
C2443 C2442 1.370 . S
C2443 C2444 1.403 . S
C2444 C2443 1.403 . S
C2444 C2445 1.404 . S
C2444 C2447 1.539 . S
C2445 C2441 1.408 . S
C2445 C2444 1.404 . S
C2445 H2457 0.930 . S
C2446 C2442 1.524 . S
C2446 H2458 0.956 . S
C2446 H2459 0.961 . S
C2446 H2460 0.961 . S
C2447 C2444 1.539 . S
C2447 H2461 0.958 . S
C2447 H2462 0.961 . S
C2447 H2463 0.960 . S
H2448 C2432 0.931 . S
H2449 C2437 0.929 . S
H2450 C2438 0.960 . S
H2451 C2438 0.962 . S
H2452 C2438 0.960 . S
H2453 C2439 0.961 . S
H2454 C2439 0.961 . S
H2455 C2439 0.961 . S
H2456 C2440 0.931 . S
H2457 C2445 0.930 . S
H2458 C2446 0.956 . S
H2459 C2446 0.961 . S
H2460 C2446 0.961 . S
H2461 C2447 0.958 . S
H2462 C2447 0.961 . S
H2463 C2447 0.960 . S
C2464 C2465 1.391 . S
C2464 C2466 1.394 . S
C2464 H2480 0.931 . S
C2465 C2464 1.391 . S
C2465 C2469 1.376 . S
C2466 C2464 1.394 . S
C2466 C2467 1.369 . S
C2466 C2470 1.531 . S
C2467 C2466 1.369 . S
C2467 C2468 1.410 . S
C2467 C2475 1.503 . S
C2468 C2467 1.410 . S
C2468 C2469 1.392 . S
C2468 C2471 1.511 . S
C2469 C2465 1.376 . S
C2469 C2468 1.392 . S
C2469 H2481 0.929 . S
C2470 C2466 1.531 . S
C2470 H2482 0.960 . S
C2470 H2483 0.962 . S
C2470 H2484 0.960 . S
C2471 C2468 1.511 . S
C2471 H2485 0.961 . S
C2471 H2486 0.961 . S
C2471 H2487 0.961 . S
C2472 C2473 1.370 . S
C2472 C2474 1.363 . S
C2472 H2488 0.931 . S
C2473 C2472 1.370 . S
C2473 C2477 1.408 . S
C2474 C2472 1.363 . S
C2474 C2475 1.370 . S
C2474 C2478 1.524 . S
C2475 C2467 1.503 . S
C2475 C2474 1.370 . S
C2475 C2476 1.403 . S
C2476 C2475 1.403 . S
C2476 C2477 1.404 . S
C2476 C2479 1.539 . S
C2477 C2473 1.408 . S
C2477 C2476 1.404 . S
C2477 H2489 0.930 . S
C2478 C2474 1.524 . S
C2478 H2490 0.956 . S
C2478 H2491 0.961 . S
C2478 H2492 0.961 . S
C2479 C2476 1.539 . S
C2479 H2493 0.958 . S
C2479 H2494 0.961 . S
C2479 H2495 0.960 . S
H2480 C2464 0.931 . S
H2481 C2469 0.929 . S
H2482 C2470 0.960 . S
H2483 C2470 0.962 . S
H2484 C2470 0.960 . S
H2485 C2471 0.961 . S
H2486 C2471 0.961 . S
H2487 C2471 0.961 . S
H2488 C2472 0.931 . S
H2489 C2477 0.930 . S
H2490 C2478 0.956 . S
H2491 C2478 0.961 . S
H2492 C2478 0.961 . S
H2493 C2479 0.958 . S
H2494 C2479 0.961 . S
H2495 C2479 0.960 . S
C2496 C2497 1.391 . S
C2496 C2498 1.394 . S
C2496 H2512 0.931 . S
C2497 C2496 1.391 . S
C2497 C2501 1.376 . S
C2498 C2496 1.394 . S
C2498 C2499 1.369 . S
C2498 C2502 1.531 . S
C2499 C2498 1.369 . S
C2499 C2500 1.410 . S
C2499 C2507 1.503 . S
C2500 C2499 1.410 . S
C2500 C2501 1.392 . S
C2500 C2503 1.511 . S
C2501 C2497 1.376 . S
C2501 C2500 1.392 . S
C2501 H2513 0.929 . S
C2502 C2498 1.531 . S
C2502 H2514 0.960 . S
C2502 H2515 0.962 . S
C2502 H2516 0.960 . S
C2503 C2500 1.511 . S
C2503 H2517 0.961 . S
C2503 H2518 0.961 . S
C2503 H2519 0.961 . S
C2504 C2505 1.370 1_455 S
C2504 C2506 1.363 . S
C2504 H2520 0.931 . S
C2505 C2504 1.370 1_655 S
C2505 C2509 1.408 . S
C2506 C2504 1.363 . S
C2506 C2507 1.370 . S
C2506 C2510 1.524 . S
C2507 C2499 1.503 . S
C2507 C2506 1.370 . S
C2507 C2508 1.403 . S
C2508 C2507 1.403 . S
C2508 C2509 1.404 1_455 S
C2508 C2511 1.539 . S
C2509 C2505 1.408 . S
C2509 C2508 1.404 1_655 S
C2509 H2521 0.930 . S
C2510 C2506 1.524 . S
C2510 H2522 0.956 . S
C2510 H2523 0.961 . S
C2510 H2524 0.961 . S
C2511 C2508 1.539 . S
C2511 H2525 0.959 1_455 S
C2511 H2526 0.961 . S
C2511 H2527 0.960 . S
H2512 C2496 0.931 . S
H2513 C2501 0.929 . S
H2514 C2502 0.960 . S
H2515 C2502 0.962 . S
H2516 C2502 0.960 . S
H2517 C2503 0.961 . S
H2518 C2503 0.961 . S
H2519 C2503 0.961 . S
H2520 C2504 0.931 . S
H2521 C2509 0.930 . S
H2522 C2510 0.956 . S
H2523 C2510 0.961 . S
H2524 C2510 0.961 . S
H2525 C2511 0.959 1_655 S
H2526 C2511 0.961 . S
H2527 C2511 0.960 . S
C2528 C2529 1.391 . S
C2528 C2530 1.394 . S
C2528 H2544 0.931 . S
C2529 C2528 1.391 . S
C2529 C2533 1.376 . S
C2530 C2528 1.394 . S
C2530 C2531 1.369 . S
C2530 C2534 1.531 . S
C2531 C2530 1.369 . S
C2531 C2532 1.410 . S
C2531 C2539 1.503 . S
C2532 C2531 1.410 . S
C2532 C2533 1.392 . S
C2532 C2535 1.511 . S
C2533 C2529 1.376 . S
C2533 C2532 1.392 . S
C2533 H2545 0.929 . S
C2534 C2530 1.531 . S
C2534 H2546 0.960 . S
C2534 H2547 0.962 . S
C2534 H2548 0.960 . S
C2535 C2532 1.511 . S
C2535 H2549 0.961 . S
C2535 H2550 0.961 . S
C2535 H2551 0.961 . S
C2536 C2537 1.370 . S
C2536 C2538 1.363 . S
C2536 H2552 0.931 . S
C2537 C2536 1.370 . S
C2537 C2541 1.408 . S
C2538 C2536 1.363 . S
C2538 C2539 1.370 . S
C2538 C2542 1.524 . S
C2539 C2531 1.503 . S
C2539 C2538 1.370 . S
C2539 C2540 1.403 . S
C2540 C2539 1.403 . S
C2540 C2541 1.404 . S
C2540 C2543 1.539 . S
C2541 C2537 1.408 . S
C2541 C2540 1.404 . S
C2541 H2553 0.930 . S
C2542 C2538 1.524 . S
C2542 H2554 0.956 . S
C2542 H2555 0.961 . S
C2542 H2556 0.961 . S
C2543 C2540 1.539 . S
C2543 H2557 0.958 . S
C2543 H2558 0.961 . S
C2543 H2559 0.960 . S
H2544 C2528 0.931 . S
H2545 C2533 0.929 . S
H2546 C2534 0.960 . S
H2547 C2534 0.962 . S
H2548 C2534 0.960 . S
H2549 C2535 0.961 . S
H2550 C2535 0.961 . S
H2551 C2535 0.961 . S
H2552 C2536 0.931 . S
H2553 C2541 0.930 . S
H2554 C2542 0.956 . S
H2555 C2542 0.961 . S
H2556 C2542 0.961 . S
H2557 C2543 0.958 . S
H2558 C2543 0.961 . S
H2559 C2543 0.960 . S
C2560 C2561 1.391 . S
C2560 C2562 1.394 . S
C2560 H2576 0.931 . S
C2561 C2560 1.391 . S
C2561 C2565 1.376 . S
C2562 C2560 1.394 . S
C2562 C2563 1.369 . S
C2562 C2566 1.531 . S
C2563 C2562 1.369 . S
C2563 C2564 1.410 . S
C2563 C2571 1.503 . S
C2564 C2563 1.410 . S
C2564 C2565 1.392 . S
C2564 C2567 1.511 . S
C2565 C2561 1.376 . S
C2565 C2564 1.392 . S
C2565 H2577 0.929 . S
C2566 C2562 1.531 . S
C2566 H2578 0.960 . S
C2566 H2579 0.962 . S
C2566 H2580 0.960 . S
C2567 C2564 1.511 . S
C2567 H2581 0.961 . S
C2567 H2582 0.961 . S
C2567 H2583 0.961 . S
C2568 C2569 1.370 . S
C2568 C2570 1.363 . S
C2568 H2584 0.931 . S
C2569 C2568 1.370 . S
C2569 C2573 1.408 . S
C2570 C2568 1.363 . S
C2570 C2571 1.370 . S
C2570 C2574 1.524 . S
C2571 C2563 1.503 . S
C2571 C2570 1.370 . S
C2571 C2572 1.403 . S
C2572 C2571 1.403 . S
C2572 C2573 1.404 . S
C2572 C2575 1.539 . S
C2573 C2569 1.408 . S
C2573 C2572 1.404 . S
C2573 H2585 0.930 . S
C2574 C2570 1.524 . S
C2574 H2586 0.956 . S
C2574 H2587 0.961 . S
C2574 H2588 0.961 . S
C2575 C2572 1.539 . S
C2575 H2589 0.958 . S
C2575 H2590 0.961 . S
C2575 H2591 0.960 . S
H2576 C2560 0.931 . S
H2577 C2565 0.929 . S
H2578 C2566 0.960 . S
H2579 C2566 0.962 . S
H2580 C2566 0.960 . S
H2581 C2567 0.961 . S
H2582 C2567 0.961 . S
H2583 C2567 0.961 . S
H2584 C2568 0.931 . S
H2585 C2573 0.930 . S
H2586 C2574 0.956 . S
H2587 C2574 0.961 . S
H2588 C2574 0.961 . S
H2589 C2575 0.958 . S
H2590 C2575 0.961 . S
H2591 C2575 0.960 . S
C2592 C2593 1.391 . S
C2592 C2594 1.394 . S
C2592 H2608 0.931 . S
C2593 C2592 1.391 . S
C2593 C2597 1.376 . S
C2594 C2592 1.394 . S
C2594 C2595 1.369 . S
C2594 C2598 1.531 . S
C2595 C2594 1.369 . S
C2595 C2596 1.410 . S
C2595 C2603 1.503 . S
C2596 C2595 1.410 . S
C2596 C2597 1.392 . S
C2596 C2599 1.511 . S
C2597 C2593 1.376 . S
C2597 C2596 1.392 . S
C2597 H2609 0.929 . S
C2598 C2594 1.531 . S
C2598 H2610 0.960 . S
C2598 H2611 0.962 . S
C2598 H2612 0.960 . S
C2599 C2596 1.511 . S
C2599 H2613 0.961 . S
C2599 H2614 0.961 . S
C2599 H2615 0.961 . S
C2600 C2601 1.370 . S
C2600 C2602 1.363 . S
C2600 H2616 0.931 . S
C2601 C2600 1.370 . S
C2601 C2605 1.408 . S
C2602 C2600 1.363 . S
C2602 C2603 1.370 . S
C2602 C2606 1.524 . S
C2603 C2595 1.503 . S
C2603 C2602 1.370 . S
C2603 C2604 1.403 . S
C2604 C2603 1.403 . S
C2604 C2605 1.404 . S
C2604 C2607 1.539 . S
C2605 C2601 1.408 . S
C2605 C2604 1.404 . S
C2605 H2617 0.930 . S
C2606 C2602 1.524 . S
C2606 H2618 0.956 . S
C2606 H2619 0.961 . S
C2606 H2620 0.961 . S
C2607 C2604 1.539 . S
C2607 H2621 0.958 . S
C2607 H2622 0.961 . S
C2607 H2623 0.960 . S
H2608 C2592 0.931 . S
H2609 C2597 0.929 . S
H2610 C2598 0.960 . S
H2611 C2598 0.962 . S
H2612 C2598 0.960 . S
H2613 C2599 0.961 . S
H2614 C2599 0.961 . S
H2615 C2599 0.961 . S
H2616 C2600 0.931 . S
H2617 C2605 0.930 . S
H2618 C2606 0.956 . S
H2619 C2606 0.961 . S
H2620 C2606 0.961 . S
H2621 C2607 0.958 . S
H2622 C2607 0.961 . S
H2623 C2607 0.960 . S
C2624 C2625 1.390 . S
C2624 C2626 1.394 . S
C2624 H2640 0.931 . S
C2625 C2624 1.390 . S
C2625 C2629 1.376 . S
C2626 C2624 1.394 . S
C2626 C2627 1.369 . S
C2626 C2630 1.531 . S
C2627 C2626 1.369 . S
C2627 C2628 1.410 . S
C2627 C2635 1.503 . S
C2628 C2627 1.410 . S
C2628 C2629 1.392 . S
C2628 C2631 1.511 . S
C2629 C2625 1.376 . S
C2629 C2628 1.392 . S
C2629 H2641 0.929 1_545 S
C2630 C2626 1.531 . S
C2630 H2642 0.960 . S
C2630 H2643 0.962 . S
C2630 H2644 0.960 . S
C2631 C2628 1.511 . S
C2631 H2645 0.961 . S
C2631 H2646 0.961 . S
C2631 H2647 0.961 . S
C2632 C2633 1.370 . S
C2632 C2634 1.363 . S
C2632 H2648 0.931 . S
C2633 C2632 1.370 . S
C2633 C2637 1.408 . S
C2634 C2632 1.363 . S
C2634 C2635 1.370 . S
C2634 C2638 1.524 . S
C2635 C2627 1.503 . S
C2635 C2634 1.370 . S
C2635 C2636 1.403 . S
C2636 C2635 1.403 . S
C2636 C2637 1.404 . S
C2636 C2639 1.539 . S
C2637 C2633 1.408 . S
C2637 C2636 1.404 . S
C2637 H2649 0.930 . S
C2638 C2634 1.524 . S
C2638 H2650 0.956 . S
C2638 H2651 0.961 . S
C2638 H2652 0.961 . S
C2639 C2636 1.539 . S
C2639 H2653 0.958 . S
C2639 H2654 0.961 . S
C2639 H2655 0.960 1_545 S
H2640 C2624 0.931 . S
H2641 C2629 0.929 1_565 S
H2642 C2630 0.960 . S
H2643 C2630 0.962 . S
H2644 C2630 0.960 . S
H2645 C2631 0.961 . S
H2646 C2631 0.961 . S
H2647 C2631 0.961 . S
H2648 C2632 0.931 . S
H2649 C2637 0.930 . S
H2650 C2638 0.956 . S
H2651 C2638 0.961 . S
H2652 C2638 0.961 . S
H2653 C2639 0.958 . S
H2654 C2639 0.961 . S
H2655 C2639 0.960 1_565 S
C2656 C2657 1.391 . S
C2656 C2658 1.394 . S
C2656 H2672 0.931 . S
C2657 C2656 1.391 . S
C2657 C2661 1.376 . S
C2658 C2656 1.394 . S
C2658 C2659 1.369 . S
C2658 C2662 1.531 . S
C2659 C2658 1.369 . S
C2659 C2660 1.410 . S
C2659 C2667 1.503 . S
C2660 C2659 1.410 . S
C2660 C2661 1.392 . S
C2660 C2663 1.511 . S
C2661 C2657 1.376 . S
C2661 C2660 1.392 . S
C2661 H2673 0.929 . S
C2662 C2658 1.531 . S
C2662 H2674 0.960 . S
C2662 H2675 0.962 . S
C2662 H2676 0.960 . S
C2663 C2660 1.511 . S
C2663 H2677 0.961 . S
C2663 H2678 0.961 . S
C2663 H2679 0.961 . S
C2664 C2665 1.370 . S
C2664 C2666 1.363 . S
C2664 H2680 0.931 . S
C2665 C2664 1.370 . S
C2665 C2669 1.408 . S
C2666 C2664 1.363 . S
C2666 C2667 1.370 . S
C2666 C2670 1.524 . S
C2667 C2659 1.503 . S
C2667 C2666 1.370 . S
C2667 C2668 1.403 . S
C2668 C2667 1.403 . S
C2668 C2669 1.404 . S
C2668 C2671 1.539 . S
C2669 C2665 1.408 . S
C2669 C2668 1.404 . S
C2669 H2681 0.930 . S
C2670 C2666 1.524 . S
C2670 H2682 0.956 . S
C2670 H2683 0.961 . S
C2670 H2684 0.961 . S
C2671 C2668 1.539 . S
C2671 H2685 0.958 . S
C2671 H2686 0.961 . S
C2671 H2687 0.960 . S
H2672 C2656 0.931 . S
H2673 C2661 0.929 . S
H2674 C2662 0.960 . S
H2675 C2662 0.962 . S
H2676 C2662 0.960 . S
H2677 C2663 0.961 . S
H2678 C2663 0.961 . S
H2679 C2663 0.961 . S
H2680 C2664 0.931 . S
H2681 C2669 0.930 . S
H2682 C2670 0.956 . S
H2683 C2670 0.961 . S
H2684 C2670 0.961 . S
H2685 C2671 0.958 . S
H2686 C2671 0.961 . S
H2687 C2671 0.960 . S
C2688 C2689 1.391 . S
C2688 C2690 1.394 . S
C2688 H2704 0.931 . S
C2689 C2688 1.391 . S
C2689 C2693 1.376 . S
C2690 C2688 1.394 . S
C2690 C2691 1.369 . S
C2690 C2694 1.531 . S
C2691 C2690 1.369 . S
C2691 C2692 1.410 . S
C2691 C2699 1.503 . S
C2692 C2691 1.410 . S
C2692 C2693 1.392 . S
C2692 C2695 1.511 . S
C2693 C2689 1.376 . S
C2693 C2692 1.392 . S
C2693 H2705 0.929 . S
C2694 C2690 1.531 . S
C2694 H2706 0.960 . S
C2694 H2707 0.962 . S
C2694 H2708 0.960 . S
C2695 C2692 1.511 . S
C2695 H2709 0.961 . S
C2695 H2710 0.961 . S
C2695 H2711 0.961 . S
C2696 C2697 1.370 . S
C2696 C2698 1.363 . S
C2696 H2712 0.931 . S
C2697 C2696 1.370 . S
C2697 C2701 1.408 . S
C2698 C2696 1.363 . S
C2698 C2699 1.370 . S
C2698 C2702 1.524 . S
C2699 C2691 1.503 . S
C2699 C2698 1.370 . S
C2699 C2700 1.403 . S
C2700 C2699 1.403 . S
C2700 C2701 1.404 . S
C2700 C2703 1.539 . S
C2701 C2697 1.408 . S
C2701 C2700 1.404 . S
C2701 H2713 0.930 . S
C2702 C2698 1.524 . S
C2702 H2714 0.956 . S
C2702 H2715 0.961 . S
C2702 H2716 0.961 . S
C2703 C2700 1.539 . S
C2703 H2717 0.958 . S
C2703 H2718 0.961 . S
C2703 H2719 0.960 . S
H2704 C2688 0.931 . S
H2705 C2693 0.929 . S
H2706 C2694 0.960 . S
H2707 C2694 0.962 . S
H2708 C2694 0.960 . S
H2709 C2695 0.961 . S
H2710 C2695 0.961 . S
H2711 C2695 0.961 . S
H2712 C2696 0.931 . S
H2713 C2701 0.930 . S
H2714 C2702 0.956 . S
H2715 C2702 0.961 . S
H2716 C2702 0.961 . S
H2717 C2703 0.958 . S
H2718 C2703 0.961 . S
H2719 C2703 0.960 . S
C2720 C2721 1.391 . S
C2720 C2722 1.394 . S
C2720 H2736 0.931 . S
C2721 C2720 1.391 . S
C2721 C2725 1.376 . S
C2722 C2720 1.394 . S
C2722 C2723 1.369 . S
C2722 C2726 1.531 . S
C2723 C2722 1.369 . S
C2723 C2724 1.410 . S
C2723 C2731 1.503 . S
C2724 C2723 1.410 . S
C2724 C2725 1.392 . S
C2724 C2727 1.511 . S
C2725 C2721 1.376 . S
C2725 C2724 1.392 . S
C2725 H2737 0.929 . S
C2726 C2722 1.531 . S
C2726 H2738 0.960 . S
C2726 H2739 0.962 . S
C2726 H2740 0.960 . S
C2727 C2724 1.511 . S
C2727 H2741 0.961 . S
C2727 H2742 0.961 . S
C2727 H2743 0.961 . S
C2728 C2729 1.370 1_565 S
C2728 C2730 1.363 1_565 S
C2728 H2744 0.931 . S
C2729 C2728 1.370 1_545 S
C2729 C2733 1.408 . S
C2730 C2728 1.363 1_545 S
C2730 C2731 1.370 . S
C2730 C2734 1.539 . S
C2731 C2723 1.503 . S
C2731 C2730 1.370 . S
C2731 C2732 1.403 . S
C2732 C2731 1.403 . S
C2732 C2733 1.404 . S
C2732 C2735 1.539 . S
C2733 C2729 1.408 . S
C2733 C2732 1.404 . S
C2733 H2745 0.930 . S
C2734 C2730 1.539 . S
C2734 H2746 0.961 . S
C2734 H2747 0.982 . S
C2734 H2748 0.921 1_545 S
C2735 C2732 1.539 . S
C2735 H2749 0.958 . S
C2735 H2750 0.961 . S
C2735 H2751 0.960 . S
H2736 C2720 0.931 . S
H2737 C2725 0.929 . S
H2738 C2726 0.960 . S
H2739 C2726 0.962 . S
H2740 C2726 0.960 . S
H2741 C2727 0.961 . S
H2742 C2727 0.961 . S
H2743 C2727 0.961 . S
H2744 C2728 0.931 . S
H2745 C2733 0.930 . S
H2746 C2734 0.961 . S
H2747 C2734 0.982 . S
H2748 C2734 0.921 1_565 S
H2749 C2735 0.958 . S
H2750 C2735 0.961 . S
H2751 C2735 0.960 . S
C2752 C2753 1.391 . S
C2752 C2754 1.394 . S
C2752 H2768 0.931 . S
C2753 C2752 1.391 . S
C2753 C2757 1.376 . S
C2754 C2752 1.394 . S
C2754 C2755 1.369 . S
C2754 C2758 1.531 . S
C2755 C2754 1.369 . S
C2755 C2756 1.410 . S
C2755 C2763 1.503 . S
C2756 C2755 1.410 . S
C2756 C2757 1.392 . S
C2756 C2759 1.511 . S
C2757 C2753 1.376 . S
C2757 C2756 1.392 . S
C2757 H2769 0.929 1_565 S
C2758 C2754 1.531 . S
C2758 H2770 0.960 . S
C2758 H2771 0.962 . S
C2758 H2772 0.960 . S
C2759 C2756 1.511 . S
C2759 H2773 0.961 . S
C2759 H2774 0.961 . S
C2759 H2775 0.961 . S
C2760 C2761 1.370 . S
C2760 C2762 1.363 . S
C2760 H2776 0.931 . S
C2761 C2760 1.370 . S
C2761 C2765 1.408 . S
C2762 C2760 1.363 . S
C2762 C2763 1.370 . S
C2762 C2766 1.524 . S
C2763 C2755 1.503 . S
C2763 C2762 1.370 . S
C2763 C2764 1.403 . S
C2764 C2763 1.403 . S
C2764 C2765 1.404 . S
C2764 C2767 1.539 . S
C2765 C2761 1.408 . S
C2765 C2764 1.404 . S
C2765 H2777 0.930 . S
C2766 C2762 1.524 . S
C2766 H2778 0.956 . S
C2766 H2779 0.961 . S
C2766 H2780 0.961 . S
C2767 C2764 1.539 . S
C2767 H2781 0.958 . S
C2767 H2782 0.961 . S
C2767 H2783 0.960 1_565 S
H2768 C2752 0.931 . S
H2769 C2757 0.929 1_545 S
H2770 C2758 0.960 . S
H2771 C2758 0.962 . S
H2772 C2758 0.960 . S
H2773 C2759 0.961 . S
H2774 C2759 0.961 . S
H2775 C2759 0.961 . S
H2776 C2760 0.931 . S
H2777 C2765 0.930 . S
H2778 C2766 0.956 . S
H2779 C2766 0.961 . S
H2780 C2766 0.961 . S
H2781 C2767 0.958 . S
H2782 C2767 0.961 . S
H2783 C2767 0.960 1_545 S
C2784 C2785 1.390 . S
C2784 C2786 1.394 . S
C2784 H2800 0.931 . S
C2785 C2784 1.390 . S
C2785 C2789 1.375 . S
C2786 C2784 1.394 . S
C2786 C2787 1.369 . S
C2786 C2790 1.531 . S
C2787 C2786 1.369 . S
C2787 C2788 1.410 . S
C2787 C2795 1.503 . S
C2788 C2787 1.410 . S
C2788 C2789 1.392 . S
C2788 C2791 1.511 . S
C2789 C2785 1.375 . S
C2789 C2788 1.392 . S
C2789 H2801 0.929 . S
C2790 C2786 1.531 . S
C2790 H2802 0.960 . S
C2790 H2803 0.962 . S
C2790 H2804 0.960 . S
C2791 C2788 1.511 . S
C2791 H2805 0.961 . S
C2791 H2806 0.961 . S
C2791 H2807 0.961 . S
C2792 C2793 1.370 . S
C2792 C2794 1.363 . S
C2792 H2808 0.931 . S
C2793 C2792 1.370 . S
C2793 C2797 1.408 . S
C2794 C2792 1.363 . S
C2794 C2795 1.370 . S
C2794 C2798 1.524 . S
C2795 C2787 1.503 . S
C2795 C2794 1.370 . S
C2795 C2796 1.403 . S
C2796 C2795 1.403 . S
C2796 C2797 1.404 . S
C2796 C2799 1.539 . S
C2797 C2793 1.408 . S
C2797 C2796 1.404 . S
C2797 H2809 0.930 . S
C2798 C2794 1.524 . S
C2798 H2810 0.956 . S
C2798 H2811 0.961 . S
C2798 H2812 0.961 . S
C2799 C2796 1.539 . S
C2799 H2813 0.958 . S
C2799 H2814 0.961 . S
C2799 H2815 0.951 1_545 S
H2800 C2784 0.931 . S
H2801 C2789 0.929 . S
H2802 C2790 0.960 . S
H2803 C2790 0.962 . S
H2804 C2790 0.960 . S
H2805 C2791 0.961 . S
H2806 C2791 0.961 . S
H2807 C2791 0.961 . S
H2808 C2792 0.931 . S
H2809 C2797 0.930 . S
H2810 C2798 0.956 . S
H2811 C2798 0.961 . S
H2812 C2798 0.961 . S
H2813 C2799 0.958 . S
H2814 C2799 0.961 . S
H2815 C2799 0.951 1_565 S
C2816 C2817 1.391 1_565 S
C2816 C2818 1.394 1_565 S
C2816 H2832 0.931 . S
C2817 C2816 1.391 1_545 S
C2817 C2821 1.376 . S
C2818 C2816 1.394 1_545 S
C2818 C2819 1.369 . S
C2818 C2822 1.531 1_545 S
C2819 C2818 1.369 . S
C2819 C2820 1.410 . S
C2819 C2827 1.503 . S
C2820 C2819 1.410 . S
C2820 C2821 1.392 . S
C2820 C2823 1.511 . S
C2821 C2817 1.376 . S
C2821 C2820 1.392 . S
C2821 H2833 0.929 . S
C2822 C2818 1.531 1_565 S
C2822 H2834 0.960 1_565 S
C2822 H2835 0.961 . S
C2822 H2836 0.960 . S
C2823 C2820 1.511 . S
C2823 H2837 0.961 . S
C2823 H2838 0.961 . S
C2823 H2839 0.961 . S
C2824 C2825 1.370 . S
C2824 C2826 1.363 . S
C2824 H2840 0.931 . S
C2825 C2824 1.370 . S
C2825 C2829 1.408 . S
C2826 C2824 1.363 . S
C2826 C2827 1.370 . S
C2826 C2830 1.524 . S
C2827 C2819 1.503 . S
C2827 C2826 1.370 . S
C2827 C2828 1.403 . S
C2828 C2827 1.403 . S
C2828 C2829 1.404 . S
C2828 C2831 1.539 . S
C2829 C2825 1.408 . S
C2829 C2828 1.404 . S
C2829 H2841 0.930 . S
C2830 C2826 1.524 . S
C2830 H2842 0.956 . S
C2830 H2843 0.961 . S
C2830 H2844 0.961 . S
C2831 C2828 1.539 . S
C2831 H2845 0.958 . S
C2831 H2846 0.961 . S
C2831 H2847 0.960 . S
H2832 C2816 0.931 . S
H2833 C2821 0.929 . S
H2834 C2822 0.960 1_545 S
H2835 C2822 0.961 . S
H2836 C2822 0.960 . S
H2837 C2823 0.961 . S
H2838 C2823 0.961 . S
H2839 C2823 0.961 . S
H2840 C2824 0.931 . S
H2841 C2829 0.930 . S
H2842 C2830 0.956 . S
H2843 C2830 0.961 . S
H2844 C2830 0.961 . S
H2845 C2831 0.958 . S
H2846 C2831 0.961 . S
H2847 C2831 0.960 . S
C2848 C2849 1.391 . S
C2848 C2850 1.394 . S
C2848 H2864 0.931 . S
C2849 C2848 1.391 . S
C2849 C2853 1.376 . S
C2850 C2848 1.394 . S
C2850 C2851 1.369 . S
C2850 C2854 1.531 . S
C2851 C2850 1.369 . S
C2851 C2852 1.410 . S
C2851 C2859 1.503 . S
C2852 C2851 1.410 . S
C2852 C2853 1.392 . S
C2852 C2855 1.511 . S
C2853 C2849 1.376 . S
C2853 C2852 1.392 . S
C2853 H2865 0.929 . S
C2854 C2850 1.531 . S
C2854 H2866 0.960 . S
C2854 H2867 0.962 . S
C2854 H2868 0.960 . S
C2855 C2852 1.511 . S
C2855 H2869 0.961 . S
C2855 H2870 0.961 . S
C2855 H2871 0.961 . S
C2856 C2857 1.370 . S
C2856 C2858 1.363 . S
C2856 H2872 0.931 1_565 S
C2857 C2856 1.370 . S
C2857 C2861 1.408 . S
C2858 C2856 1.363 . S
C2858 C2859 1.370 . S
C2858 C2862 1.524 . S
C2859 C2851 1.503 . S
C2859 C2858 1.370 . S
C2859 C2860 1.403 . S
C2860 C2859 1.403 . S
C2860 C2861 1.404 . S
C2860 C2863 1.539 . S
C2861 C2857 1.408 . S
C2861 C2860 1.404 . S
C2861 H2873 0.930 . S
C2862 C2858 1.524 . S
C2862 H2874 0.956 . S
C2862 H2875 0.961 . S
C2862 H2876 0.961 . S
C2863 C2860 1.539 . S
C2863 H2877 0.958 . S
C2863 H2878 0.961 . S
C2863 H2879 0.960 . S
H2864 C2848 0.931 . S
H2865 C2853 0.929 . S
H2866 C2854 0.960 . S
H2867 C2854 0.962 . S
H2868 C2854 0.960 . S
H2869 C2855 0.961 . S
H2870 C2855 0.961 . S
H2871 C2855 0.961 . S
H2872 C2856 0.931 1_545 S
H2873 C2861 0.930 . S
H2874 C2862 0.956 . S
H2875 C2862 0.961 . S
H2876 C2862 0.961 . S
H2877 C2863 0.958 . S
H2878 C2863 0.961 . S
H2879 C2863 0.960 . S
C2880 C2881 1.391 . S
C2880 C2882 1.394 . S
C2880 H2896 0.931 . S
C2881 C2880 1.391 . S
C2881 C2885 1.376 . S
C2882 C2880 1.394 . S
C2882 C2883 1.369 . S
C2882 C2886 1.531 . S
C2883 C2882 1.369 . S
C2883 C2884 1.410 . S
C2883 C2891 1.503 . S
C2884 C2883 1.410 . S
C2884 C2885 1.392 . S
C2884 C2887 1.511 . S
C2885 C2881 1.376 . S
C2885 C2884 1.392 . S
C2885 H2897 0.929 . S
C2886 C2882 1.531 . S
C2886 H2898 0.960 . S
C2886 H2899 0.962 . S
C2886 H2900 0.960 . S
C2887 C2884 1.511 . S
C2887 H2901 0.961 . S
C2887 H2902 0.961 . S
C2887 H2903 0.961 . S
C2888 C2889 1.370 . S
C2888 C2890 1.363 . S
C2888 H2904 0.931 . S
C2889 C2888 1.370 . S
C2889 C2893 1.408 . S
C2890 C2888 1.363 . S
C2890 C2891 1.370 . S
C2890 C2894 1.524 . S
C2891 C2883 1.503 . S
C2891 C2890 1.370 . S
C2891 C2892 1.403 . S
C2892 C2891 1.403 . S
C2892 C2893 1.404 . S
C2892 C2895 1.539 . S
C2893 C2889 1.408 . S
C2893 C2892 1.404 . S
C2893 H2905 0.930 . S
C2894 C2890 1.524 . S
C2894 H2906 0.956 . S
C2894 H2907 0.961 . S
C2894 H2908 0.961 . S
C2895 C2892 1.539 . S
C2895 H2909 0.958 . S
C2895 H2910 0.961 . S
C2895 H2911 0.960 . S
H2896 C2880 0.931 . S
H2897 C2885 0.929 . S
H2898 C2886 0.960 . S
H2899 C2886 0.962 . S
H2900 C2886 0.960 . S
H2901 C2887 0.961 . S
H2902 C2887 0.961 . S
H2903 C2887 0.961 . S
H2904 C2888 0.931 . S
H2905 C2893 0.930 . S
H2906 C2894 0.956 . S
H2907 C2894 0.961 . S
H2908 C2894 0.961 . S
H2909 C2895 0.958 . S
H2910 C2895 0.961 . S
H2911 C2895 0.960 . S
C2912 C2913 1.391 . S
C2912 C2914 1.394 . S
C2912 H2928 0.931 . S
C2913 C2912 1.391 . S
C2913 C2917 1.376 . S
C2914 C2912 1.394 . S
C2914 C2915 1.369 . S
C2914 C2918 1.531 . S
C2915 C2914 1.369 . S
C2915 C2916 1.410 . S
C2915 C2923 1.503 . S
C2916 C2915 1.410 . S
C2916 C2917 1.392 . S
C2916 C2919 1.511 . S
C2917 C2913 1.376 . S
C2917 C2916 1.392 . S
C2917 H2929 0.929 . S
C2918 C2914 1.531 . S
C2918 H2930 0.960 . S
C2918 H2931 0.962 . S
C2918 H2932 0.960 . S
C2919 C2916 1.511 . S
C2919 H2933 0.961 . S
C2919 H2934 0.961 . S
C2919 H2935 0.961 . S
C2920 C2921 1.370 . S
C2920 C2922 1.363 . S
C2920 H2936 0.931 . S
C2921 C2920 1.370 . S
C2921 C2925 1.408 . S
C2922 C2920 1.363 . S
C2922 C2923 1.370 . S
C2922 C2926 1.524 . S
C2923 C2915 1.503 . S
C2923 C2922 1.370 . S
C2923 C2924 1.403 . S
C2924 C2923 1.403 . S
C2924 C2925 1.404 . S
C2924 C2927 1.539 . S
C2925 C2921 1.408 . S
C2925 C2924 1.404 . S
C2925 H2937 0.930 . S
C2926 C2922 1.524 . S
C2926 H2938 0.956 . S
C2926 H2939 0.961 . S
C2926 H2940 0.961 . S
C2927 C2924 1.539 . S
C2927 H2941 0.958 . S
C2927 H2942 0.961 . S
C2927 H2943 0.960 . S
H2928 C2912 0.931 . S
H2929 C2917 0.929 . S
H2930 C2918 0.960 . S
H2931 C2918 0.962 . S
H2932 C2918 0.960 . S
H2933 C2919 0.961 . S
H2934 C2919 0.961 . S
H2935 C2919 0.961 . S
H2936 C2920 0.931 . S
H2937 C2925 0.930 . S
H2938 C2926 0.956 . S
H2939 C2926 0.961 . S
H2940 C2926 0.961 . S
H2941 C2927 0.958 . S
H2942 C2927 0.961 . S
H2943 C2927 0.960 . S
C2944 C2945 1.391 . S
C2944 C2946 1.394 . S
C2944 H2960 0.931 . S
C2945 C2944 1.391 . S
C2945 C2949 1.376 . S
C2946 C2944 1.394 . S
C2946 C2947 1.369 . S
C2946 C2950 1.531 . S
C2947 C2946 1.369 . S
C2947 C2948 1.410 . S
C2947 C2955 1.503 . S
C2948 C2947 1.410 . S
C2948 C2949 1.392 . S
C2948 C2951 1.511 . S
C2949 C2945 1.376 . S
C2949 C2948 1.392 . S
C2949 H2961 0.929 . S
C2950 C2946 1.531 . S
C2950 H2962 0.960 . S
C2950 H2963 0.962 . S
C2950 H2964 0.960 . S
C2951 C2948 1.511 . S
C2951 H2965 0.961 . S
C2951 H2966 0.961 . S
C2951 H2967 0.961 . S
C2952 C2953 1.370 . S
C2952 C2954 1.363 . S
C2952 H2968 0.931 . S
C2953 C2952 1.370 . S
C2953 C2957 1.408 . S
C2954 C2952 1.363 . S
C2954 C2955 1.370 . S
C2954 C2958 1.524 . S
C2955 C2947 1.503 . S
C2955 C2954 1.370 . S
C2955 C2956 1.403 . S
C2956 C2955 1.403 . S
C2956 C2957 1.404 . S
C2956 C2959 1.539 . S
C2957 C2953 1.408 . S
C2957 C2956 1.404 . S
C2957 H2969 0.930 . S
C2958 C2954 1.524 . S
C2958 H2970 0.956 . S
C2958 H2971 0.961 . S
C2958 H2972 0.961 . S
C2959 C2956 1.539 . S
C2959 H2973 0.958 . S
C2959 H2974 0.961 . S
C2959 H2975 0.960 . S
H2960 C2944 0.931 . S
H2961 C2949 0.929 . S
H2962 C2950 0.960 . S
H2963 C2950 0.962 . S
H2964 C2950 0.960 . S
H2965 C2951 0.961 . S
H2966 C2951 0.961 . S
H2967 C2951 0.961 . S
H2968 C2952 0.931 . S
H2969 C2957 0.930 . S
H2970 C2958 0.956 . S
H2971 C2958 0.961 . S
H2972 C2958 0.961 . S
H2973 C2959 0.958 . S
H2974 C2959 0.961 . S
H2975 C2959 0.960 . S
C2976 C2977 1.391 . S
C2976 C2978 1.394 . S
C2976 H2992 0.931 . S
C2977 C2976 1.391 . S
C2977 C2981 1.376 . S
C2978 C2976 1.394 . S
C2978 C2979 1.369 . S
C2978 C2982 1.531 . S
C2979 C2978 1.369 . S
C2979 C2980 1.410 . S
C2979 C2987 1.503 . S
C2980 C2979 1.410 . S
C2980 C2981 1.392 . S
C2980 C2983 1.511 . S
C2981 C2977 1.376 . S
C2981 C2980 1.392 . S
C2981 H2993 0.929 . S
C2982 C2978 1.531 . S
C2982 H2994 0.960 . S
C2982 H2995 0.962 . S
C2982 H2996 0.960 . S
C2983 C2980 1.511 . S
C2983 H2997 0.961 . S
C2983 H2998 0.961 . S
C2983 H2999 0.961 . S
C2984 C2985 1.370 . S
C2984 C2986 1.363 . S
C2984 H3000 0.931 . S
C2985 C2984 1.370 . S
C2985 C2989 1.408 . S
C2986 C2984 1.363 . S
C2986 C2987 1.370 . S
C2986 C2990 1.524 . S
C2987 C2979 1.503 . S
C2987 C2986 1.370 . S
C2987 C2988 1.403 . S
C2988 C2987 1.403 . S
C2988 C2989 1.404 . S
C2988 C2991 1.539 . S
C2989 C2985 1.408 . S
C2989 C2988 1.404 . S
C2989 H3001 0.930 . S
C2990 C2986 1.524 . S
C2990 H3002 0.956 . S
C2990 H3003 0.961 . S
C2990 H3004 0.961 . S
C2991 C2988 1.539 . S
C2991 H3005 0.958 . S
C2991 H3006 0.961 . S
C2991 H3007 0.960 . S
H2992 C2976 0.931 . S
H2993 C2981 0.929 . S
H2994 C2982 0.960 . S
H2995 C2982 0.962 . S
H2996 C2982 0.960 . S
H2997 C2983 0.961 . S
H2998 C2983 0.961 . S
H2999 C2983 0.961 . S
H3000 C2984 0.931 . S
H3001 C2989 0.930 . S
H3002 C2990 0.956 . S
H3003 C2990 0.961 . S
H3004 C2990 0.961 . S
H3005 C2991 0.958 . S
H3006 C2991 0.961 . S
H3007 C2991 0.960 . S
C3008 C3009 1.391 . S
C3008 C3010 1.394 . S
C3008 H3024 0.931 . S
C3009 C3008 1.391 . S
C3009 C3013 1.376 . S
C3010 C3008 1.394 . S
C3010 C3011 1.369 . S
C3010 C3014 1.531 . S
C3011 C3010 1.369 . S
C3011 C3012 1.410 . S
C3011 C3019 1.503 . S
C3012 C3011 1.410 . S
C3012 C3013 1.392 . S
C3012 C3015 1.511 . S
C3013 C3009 1.376 . S
C3013 C3012 1.392 . S
C3013 H3025 0.929 . S
C3014 C3010 1.531 . S
C3014 H3026 0.960 . S
C3014 H3027 0.962 . S
C3014 H3028 0.960 . S
C3015 C3012 1.511 . S
C3015 H3029 0.961 . S
C3015 H3030 0.961 . S
C3015 H3031 0.961 . S
C3016 C3017 1.370 . S
C3016 C3018 1.363 . S
C3016 H3032 0.931 . S
C3017 C3016 1.370 . S
C3017 C3021 1.408 . S
C3018 C3016 1.363 . S
C3018 C3019 1.370 . S
C3018 C3022 1.524 . S
C3019 C3011 1.503 . S
C3019 C3018 1.370 . S
C3019 C3020 1.403 . S
C3020 C3019 1.403 . S
C3020 C3021 1.404 . S
C3020 C3023 1.539 . S
C3021 C3017 1.408 . S
C3021 C3020 1.404 . S
C3021 H3033 0.930 . S
C3022 C3018 1.524 . S
C3022 H3034 0.956 . S
C3022 H3035 0.961 . S
C3022 H3036 0.961 . S
C3023 C3020 1.539 . S
C3023 H3037 0.958 . S
C3023 H3038 0.961 . S
C3023 H3039 0.960 . S
H3024 C3008 0.931 . S
H3025 C3013 0.929 . S
H3026 C3014 0.960 . S
H3027 C3014 0.962 . S
H3028 C3014 0.960 . S
H3029 C3015 0.961 . S
H3030 C3015 0.961 . S
H3031 C3015 0.961 . S
H3032 C3016 0.931 . S
H3033 C3021 0.930 . S
H3034 C3022 0.956 . S
H3035 C3022 0.961 . S
H3036 C3022 0.961 . S
H3037 C3023 0.958 . S
H3038 C3023 0.961 . S
H3039 C3023 0.960 . S
C3040 C3041 1.391 . S
C3040 C3042 1.394 . S
C3040 H3056 0.931 . S
C3041 C3040 1.391 . S
C3041 C3045 1.376 . S
C3042 C3040 1.394 . S
C3042 C3043 1.369 . S
C3042 C3046 1.531 . S
C3043 C3042 1.369 . S
C3043 C3044 1.410 . S
C3043 C3051 1.503 . S
C3044 C3043 1.410 . S
C3044 C3045 1.392 . S
C3044 C3047 1.511 . S
C3045 C3041 1.376 . S
C3045 C3044 1.392 . S
C3045 H3057 0.929 . S
C3046 C3042 1.531 . S
C3046 H3058 0.960 . S
C3046 H3059 0.962 . S
C3046 H3060 0.960 . S
C3047 C3044 1.511 . S
C3047 H3061 0.961 . S
C3047 H3062 0.961 . S
C3047 H3063 0.961 . S
C3048 C3049 1.370 . S
C3048 C3050 1.363 . S
C3048 H3064 0.931 . S
C3049 C3048 1.370 . S
C3049 C3053 1.408 . S
C3050 C3048 1.363 . S
C3050 C3051 1.370 . S
C3050 C3054 1.524 . S
C3051 C3043 1.503 . S
C3051 C3050 1.370 . S
C3051 C3052 1.403 . S
C3052 C3051 1.403 . S
C3052 C3053 1.404 . S
C3052 C3055 1.539 . S
C3053 C3049 1.408 . S
C3053 C3052 1.404 . S
C3053 H3065 0.930 . S
C3054 C3050 1.524 . S
C3054 H3066 0.956 . S
C3054 H3067 0.961 . S
C3054 H3068 0.961 . S
C3055 C3052 1.539 . S
C3055 H3069 0.958 . S
C3055 H3070 0.961 . S
C3055 H3071 0.960 . S
H3056 C3040 0.931 . S
H3057 C3045 0.929 . S
H3058 C3046 0.960 . S
H3059 C3046 0.962 . S
H3060 C3046 0.960 . S
H3061 C3047 0.961 . S
H3062 C3047 0.961 . S
H3063 C3047 0.961 . S
H3064 C3048 0.931 . S
H3065 C3053 0.930 . S
H3066 C3054 0.956 . S
H3067 C3054 0.961 . S
H3068 C3054 0.961 . S
H3069 C3055 0.958 . S
H3070 C3055 0.961 . S
H3071 C3055 0.960 . S
C3072 C3073 1.391 . S
C3072 C3074 1.394 . S
C3072 H3088 0.931 . S
C3073 C3072 1.391 . S
C3073 C3077 1.376 . S
C3074 C3072 1.394 . S
C3074 C3075 1.369 . S
C3074 C3078 1.531 . S
C3075 C3074 1.369 . S
C3075 C3076 1.410 . S
C3075 C3083 1.503 . S
C3076 C3075 1.410 . S
C3076 C3077 1.392 . S
C3076 C3079 1.511 . S
C3077 C3073 1.376 . S
C3077 C3076 1.392 . S
C3077 H3089 0.929 . S
C3078 C3074 1.531 . S
C3078 H3090 0.960 . S
C3078 H3091 0.962 . S
C3078 H3092 0.960 . S
C3079 C3076 1.511 . S
C3079 H3093 0.961 . S
C3079 H3094 0.961 . S
C3079 H3095 0.961 . S
C3080 C3081 1.370 . S
C3080 C3082 1.363 . S
C3080 H3096 0.931 . S
C3081 C3080 1.370 . S
C3081 C3085 1.408 . S
C3082 C3080 1.363 . S
C3082 C3083 1.370 . S
C3082 C3086 1.524 . S
C3083 C3075 1.503 . S
C3083 C3082 1.370 . S
C3083 C3084 1.403 . S
C3084 C3083 1.403 . S
C3084 C3085 1.404 . S
C3084 C3087 1.539 . S
C3085 C3081 1.408 . S
C3085 C3084 1.404 . S
C3085 H3097 0.930 . S
C3086 C3082 1.524 . S
C3086 H3098 0.956 . S
C3086 H3099 0.961 . S
C3086 H3100 0.961 . S
C3087 C3084 1.539 . S
C3087 H3101 0.958 . S
C3087 H3102 0.961 . S
C3087 H3103 0.960 . S
H3088 C3072 0.931 . S
H3089 C3077 0.929 . S
H3090 C3078 0.960 . S
H3091 C3078 0.962 . S
H3092 C3078 0.960 . S
H3093 C3079 0.961 . S
H3094 C3079 0.961 . S
H3095 C3079 0.961 . S
H3096 C3080 0.931 . S
H3097 C3085 0.930 . S
H3098 C3086 0.956 . S
H3099 C3086 0.961 . S
H3100 C3086 0.961 . S
H3101 C3087 0.958 . S
H3102 C3087 0.961 . S
H3103 C3087 0.960 . S
C3104 C3105 1.391 . S
C3104 C3106 1.394 . S
C3104 H3120 0.931 . S
C3105 C3104 1.391 . S
C3105 C3109 1.376 . S
C3106 C3104 1.394 . S
C3106 C3107 1.369 . S
C3106 C3110 1.531 . S
C3107 C3106 1.369 . S
C3107 C3108 1.410 . S
C3107 C3115 1.503 . S
C3108 C3107 1.410 . S
C3108 C3109 1.392 . S
C3108 C3111 1.511 . S
C3109 C3105 1.376 . S
C3109 C3108 1.392 . S
C3109 H3121 0.929 . S
C3110 C3106 1.531 . S
C3110 H3122 0.960 . S
C3110 H3123 0.962 . S
C3110 H3124 0.960 . S
C3111 C3108 1.511 . S
C3111 H3125 0.961 . S
C3111 H3126 0.961 . S
C3111 H3127 0.961 . S
C3112 C3113 1.370 . S
C3112 C3114 1.363 . S
C3112 H3128 0.931 . S
C3113 C3112 1.370 . S
C3113 C3117 1.408 . S
C3114 C3112 1.363 . S
C3114 C3115 1.370 . S
C3114 C3118 1.524 . S
C3115 C3107 1.503 . S
C3115 C3114 1.370 . S
C3115 C3116 1.403 . S
C3116 C3115 1.403 . S
C3116 C3117 1.404 . S
C3116 C3119 1.539 . S
C3117 C3113 1.408 . S
C3117 C3116 1.404 . S
C3117 H3129 0.930 . S
C3118 C3114 1.524 . S
C3118 H3130 0.956 . S
C3118 H3131 0.961 . S
C3118 H3132 0.961 . S
C3119 C3116 1.539 . S
C3119 H3133 0.958 . S
C3119 H3134 0.961 . S
C3119 H3135 0.960 . S
H3120 C3104 0.931 . S
H3121 C3109 0.929 . S
H3122 C3110 0.960 . S
H3123 C3110 0.962 . S
H3124 C3110 0.960 . S
H3125 C3111 0.961 . S
H3126 C3111 0.961 . S
H3127 C3111 0.961 . S
H3128 C3112 0.931 . S
H3129 C3117 0.930 . S
H3130 C3118 0.956 . S
H3131 C3118 0.961 . S
H3132 C3118 0.961 . S
H3133 C3119 0.958 . S
H3134 C3119 0.961 . S
H3135 C3119 0.960 . S
C3136 C3137 1.391 . S
C3136 C3138 1.394 . S
C3136 H3152 0.931 . S
C3137 C3136 1.391 . S
C3137 C3141 1.376 . S
C3138 C3136 1.394 . S
C3138 C3139 1.369 . S
C3138 C3142 1.531 . S
C3139 C3138 1.369 . S
C3139 C3140 1.410 . S
C3139 C3147 1.503 . S
C3140 C3139 1.410 . S
C3140 C3141 1.392 . S
C3140 C3143 1.511 . S
C3141 C3137 1.376 . S
C3141 C3140 1.392 . S
C3141 H3153 0.929 . S
C3142 C3138 1.531 . S
C3142 H3154 0.960 . S
C3142 H3155 0.962 . S
C3142 H3156 0.960 . S
C3143 C3140 1.511 . S
C3143 H3157 0.961 . S
C3143 H3158 0.961 . S
C3143 H3159 0.961 . S
C3144 C3145 1.370 . S
C3144 C3146 1.363 . S
C3144 H3160 0.931 . S
C3145 C3144 1.370 . S
C3145 C3149 1.408 . S
C3146 C3144 1.363 . S
C3146 C3147 1.370 . S
C3146 C3150 1.524 . S
C3147 C3139 1.503 . S
C3147 C3146 1.370 . S
C3147 C3148 1.403 . S
C3148 C3147 1.403 . S
C3148 C3149 1.404 . S
C3148 C3151 1.539 . S
C3149 C3145 1.408 . S
C3149 C3148 1.404 . S
C3149 H3161 0.930 . S
C3150 C3146 1.524 . S
C3150 H3162 0.956 . S
C3150 H3163 0.961 . S
C3150 H3164 0.961 . S
C3151 C3148 1.539 . S
C3151 H3165 0.958 . S
C3151 H3166 0.961 . S
C3151 H3167 0.960 . S
H3152 C3136 0.931 . S
H3153 C3141 0.929 . S
H3154 C3142 0.960 . S
H3155 C3142 0.962 . S
H3156 C3142 0.960 . S
H3157 C3143 0.961 . S
H3158 C3143 0.961 . S
H3159 C3143 0.961 . S
H3160 C3144 0.931 . S
H3161 C3149 0.930 . S
H3162 C3150 0.956 . S
H3163 C3150 0.961 . S
H3164 C3150 0.961 . S
H3165 C3151 0.958 . S
H3166 C3151 0.961 . S
H3167 C3151 0.960 . S
C3168 C3169 1.391 . S
C3168 C3170 1.394 . S
C3168 H3184 0.931 . S
C3169 C3168 1.391 . S
C3169 C3173 1.376 . S
C3170 C3168 1.394 . S
C3170 C3171 1.369 . S
C3170 C3174 1.531 1_655 S
C3171 C3170 1.369 . S
C3171 C3172 1.410 . S
C3171 C3179 1.503 1_665 S
C3172 C3171 1.410 . S
C3172 C3173 1.392 . S
C3172 C3175 1.511 . S
C3173 C3169 1.376 . S
C3173 C3172 1.392 . S
C3173 H3185 0.929 . S
C3174 C3170 1.531 1_455 S
C3174 H3186 0.960 . S
C3174 H3187 0.962 1_565 S
C3174 H3188 0.960 . S
C3175 C3172 1.511 . S
C3175 H3189 0.961 . S
C3175 H3190 0.992 . S
C3175 H3191 0.961 . S
C3176 C3177 1.370 . S
C3176 C3178 1.363 . S
C3176 H3192 0.931 . S
C3177 C3176 1.370 . S
C3177 C3181 1.408 . S
C3178 C3176 1.363 . S
C3178 C3179 1.370 . S
C3178 C3182 1.524 1_455 S
C3179 C3171 1.503 1_445 S
C3179 C3178 1.370 . S
C3179 C3180 1.403 1_545 S
C3180 C3179 1.403 1_565 S
C3180 C3181 1.404 1_565 S
C3180 C3183 1.539 . S
C3181 C3177 1.408 . S
C3181 C3180 1.404 1_545 S
C3181 H3193 0.930 . S
C3182 C3178 1.524 1_655 S
C3182 H3194 0.956 . S
C3182 H3195 0.961 . S
C3182 H3196 0.961 . S
C3183 C3180 1.539 . S
C3183 H3197 0.958 . S
C3183 H3198 0.961 . S
C3183 H3199 0.960 . S
H3184 C3168 0.931 . S
H3185 C3173 0.929 . S
H3186 C3174 0.960 . S
H3187 C3174 0.962 1_545 S
H3188 C3174 0.960 . S
H3189 C3175 0.961 . S
H3190 C3175 0.992 . S
H3191 C3175 0.961 . S
H3192 C3176 0.931 . S
H3193 C3181 0.930 . S
H3194 C3182 0.956 . S
H3195 C3182 0.961 . S
H3196 C3182 0.961 . S
H3197 C3183 0.958 . S
H3198 C3183 0.961 . S
H3199 C3183 0.960 . S
C3200 C3201 1.391 . S
C3200 C3202 1.394 . S
C3200 H3216 0.931 . S
C3201 C3200 1.391 . S
C3201 C3205 1.376 . S
C3202 C3200 1.394 . S
C3202 C3203 1.369 . S
C3202 C3206 1.531 . S
C3203 C3202 1.369 . S
C3203 C3204 1.410 . S
C3203 C3211 1.503 . S
C3204 C3203 1.410 . S
C3204 C3205 1.392 . S
C3204 C3207 1.511 . S
C3205 C3201 1.376 . S
C3205 C3204 1.392 . S
C3205 H3217 0.929 . S
C3206 C3202 1.531 . S
C3206 H3218 0.960 . S
C3206 H3219 0.962 . S
C3206 H3220 0.960 . S
C3207 C3204 1.511 . S
C3207 H3221 0.961 . S
C3207 H3222 0.961 . S
C3207 H3223 0.961 . S
C3208 C3209 1.370 . S
C3208 C3210 1.363 . S
C3208 H3224 0.931 . S
C3209 C3208 1.370 . S
C3209 C3213 1.408 . S
C3210 C3208 1.363 . S
C3210 C3211 1.370 . S
C3210 C3214 1.524 . S
C3211 C3203 1.503 . S
C3211 C3210 1.370 . S
C3211 C3212 1.403 . S
C3212 C3211 1.403 . S
C3212 C3213 1.404 . S
C3212 C3215 1.539 . S
C3213 C3209 1.408 . S
C3213 C3212 1.404 . S
C3213 H3225 0.930 . S
C3214 C3210 1.524 . S
C3214 H3226 0.956 . S
C3214 H3227 0.961 . S
C3214 H3228 0.961 . S
C3215 C3212 1.539 . S
C3215 H3229 0.958 . S
C3215 H3230 0.961 . S
C3215 H3231 0.960 . S
H3216 C3200 0.931 . S
H3217 C3205 0.929 . S
H3218 C3206 0.960 . S
H3219 C3206 0.962 . S
H3220 C3206 0.960 . S
H3221 C3207 0.961 . S
H3222 C3207 0.961 . S
H3223 C3207 0.961 . S
H3224 C3208 0.931 . S
H3225 C3213 0.930 . S
H3226 C3214 0.956 . S
H3227 C3214 0.961 . S
H3228 C3214 0.961 . S
H3229 C3215 0.958 . S
H3230 C3215 0.961 . S
H3231 C3215 0.960 . S
C3232 C3233 1.391 . S
C3232 C3234 1.394 . S
C3232 H3248 0.931 . S
C3233 C3232 1.391 . S
C3233 C3237 1.376 . S
C3234 C3232 1.394 . S
C3234 C3235 1.369 . S
C3234 C3238 1.531 1_565 S
C3235 C3234 1.369 . S
C3235 C3236 1.410 1_556 S
C3235 C3243 1.503 1_566 S
C3236 C3235 1.410 1_554 S
C3236 C3237 1.392 1_554 S
C3236 C3239 1.511 . S
C3237 C3233 1.376 . S
C3237 C3236 1.392 1_556 S
C3237 H3249 0.929 1_556 S
C3238 C3234 1.531 1_545 S
C3238 H3250 0.960 . S
C3238 H3251 0.962 1_545 S
C3238 H3252 0.960 . S
C3239 C3236 1.511 . S
C3239 H3253 0.961 . S
C3239 H3254 0.961 . S
C3239 H3255 0.961 1_565 S
C3240 C3241 1.370 . S
C3240 C3242 1.381 . S
C3240 H3256 0.931 . S
C3241 C3240 1.370 . S
C3241 C3245 1.408 . S
C3242 C3240 1.381 . S
C3242 C3243 1.385 . S
C3242 C3246 1.492 1_545 S
C3243 C3235 1.503 1_544 S
C3243 C3242 1.385 . S
C3243 C3244 1.403 . S
C3244 C3243 1.403 . S
C3244 C3245 1.404 . S
C3244 C3247 1.527 1_554 S
C3245 C3241 1.408 . S
C3245 C3244 1.404 . S
C3245 H3257 0.930 . S
C3246 C3242 1.492 1_565 S
C3246 H3258 0.956 1_554 S
C3246 H3259 0.961 . S
C3246 H3260 0.961 . S
C3247 C3244 1.527 1_556 S
C3247 H3261 0.996 . S
C3247 H3262 0.937 1_556 S
C3247 H3263 0.959 . S
H3248 C3232 0.931 . S
H3249 C3237 0.929 1_554 S
H3250 C3238 0.960 . S
H3251 C3238 0.962 1_565 S
H3252 C3238 0.960 . S
H3253 C3239 0.961 . S
H3254 C3239 0.961 . S
H3255 C3239 0.961 1_545 S
H3256 C3240 0.931 . S
H3257 C3245 0.930 . S
H3258 C3246 0.956 1_556 S
H3259 C3246 0.961 . S
H3260 C3246 0.961 . S
H3261 C3247 0.996 . S
H3262 C3247 0.937 1_554 S
H3263 C3247 0.959 . S
C3264 C3265 1.391 . S
C3264 C3266 1.394 . S
C3264 H3280 0.931 . S
C3265 C3264 1.391 . S
C3265 C3269 1.376 . S
C3266 C3264 1.394 . S
C3266 C3267 1.369 . S
C3266 C3270 1.531 . S
C3267 C3266 1.369 . S
C3267 C3268 1.410 . S
C3267 C3275 1.503 . S
C3268 C3267 1.410 . S
C3268 C3269 1.392 . S
C3268 C3271 1.511 . S
C3269 C3265 1.376 . S
C3269 C3268 1.392 . S
C3269 H3281 0.929 . S
C3270 C3266 1.531 . S
C3270 H3282 0.960 . S
C3270 H3283 0.962 . S
C3270 H3284 0.960 . S
C3271 C3268 1.511 . S
C3271 H3285 0.961 . S
C3271 H3286 0.961 . S
C3271 H3287 0.961 . S
C3272 C3273 1.370 . S
C3272 C3274 1.363 . S
C3272 H3288 0.931 . S
C3273 C3272 1.370 . S
C3273 C3277 1.408 . S
C3274 C3272 1.363 . S
C3274 C3275 1.370 . S
C3274 C3278 1.524 . S
C3275 C3267 1.503 . S
C3275 C3274 1.370 . S
C3275 C3276 1.403 . S
C3276 C3275 1.403 . S
C3276 C3277 1.404 . S
C3276 C3279 1.539 . S
C3277 C3273 1.408 . S
C3277 C3276 1.404 . S
C3277 H3289 0.930 . S
C3278 C3274 1.524 . S
C3278 H3290 0.956 . S
C3278 H3291 0.961 . S
C3278 H3292 0.961 . S
C3279 C3276 1.539 . S
C3279 H3293 0.958 . S
C3279 H3294 0.961 . S
C3279 H3295 0.960 . S
H3280 C3264 0.931 . S
H3281 C3269 0.929 . S
H3282 C3270 0.960 . S
H3283 C3270 0.962 . S
H3284 C3270 0.960 . S
H3285 C3271 0.961 . S
H3286 C3271 0.961 . S
H3287 C3271 0.961 . S
H3288 C3272 0.931 . S
H3289 C3277 0.930 . S
H3290 C3278 0.956 . S
H3291 C3278 0.961 . S
H3292 C3278 0.961 . S
H3293 C3279 0.958 . S
H3294 C3279 0.961 . S
H3295 C3279 0.960 . S
C3296 C3297 1.391 . S
C3296 C3298 1.394 . S
C3296 H3312 0.931 . S
C3297 C3296 1.391 . S
C3297 C3301 1.376 . S
C3298 C3296 1.394 . S
C3298 C3299 1.369 . S
C3298 C3302 1.531 . S
C3299 C3298 1.369 . S
C3299 C3300 1.410 . S
C3299 C3307 1.503 1_545 S
C3300 C3299 1.410 . S
C3300 C3301 1.392 . S
C3300 C3303 1.511 1_545 S
C3301 C3297 1.376 . S
C3301 C3300 1.392 . S
C3301 H3313 0.929 . S
C3302 C3298 1.531 . S
C3302 H3314 0.960 1_545 S
C3302 H3315 0.962 . S
C3302 H3316 0.960 . S
C3303 C3300 1.511 1_565 S
C3303 H3317 0.961 . S
C3303 H3318 0.961 . S
C3303 H3319 0.961 . S
C3304 C3305 1.370 . S
C3304 C3306 1.363 . S
C3304 H3320 0.931 . S
C3305 C3304 1.370 . S
C3305 C3309 1.408 . S
C3306 C3304 1.363 . S
C3306 C3307 1.370 . S
C3306 C3310 1.524 1_565 S
C3307 C3299 1.503 1_565 S
C3307 C3306 1.370 . S
C3307 C3308 1.403 . S
C3308 C3307 1.403 . S
C3308 C3309 1.404 . S
C3308 C3311 1.539 . S
C3309 C3305 1.408 . S
C3309 C3308 1.404 . S
C3309 H3321 0.930 . S
C3310 C3306 1.524 1_545 S
C3310 H3322 0.956 . S
C3310 H3323 0.961 . S
C3310 H3324 0.961 . S
C3311 C3308 1.539 . S
C3311 H3325 0.958 . S
C3311 H3326 0.961 . S
C3311 H3327 0.960 . S
H3312 C3296 0.931 . S
H3313 C3301 0.929 . S
H3314 C3302 0.960 1_565 S
H3315 C3302 0.962 . S
H3316 C3302 0.960 . S
H3317 C3303 0.961 . S
H3318 C3303 0.961 . S
H3319 C3303 0.961 . S
H3320 C3304 0.931 . S
H3321 C3309 0.930 . S
H3322 C3310 0.956 . S
H3323 C3310 0.961 . S
H3324 C3310 0.961 . S
H3325 C3311 0.958 . S
H3326 C3311 0.961 . S
H3327 C3311 0.960 . S
C3328 C3329 1.391 . S
C3328 C3330 1.394 . S
C3328 H3344 0.931 . S
C3329 C3328 1.391 . S
C3329 C3333 1.376 . S
C3330 C3328 1.394 . S
C3330 C3331 1.369 . S
C3330 C3334 1.531 . S
C3331 C3330 1.369 . S
C3331 C3332 1.410 . S
C3331 C3339 1.503 . S
C3332 C3331 1.410 . S
C3332 C3333 1.392 . S
C3332 C3335 1.511 . S
C3333 C3329 1.376 . S
C3333 C3332 1.392 . S
C3333 H3345 0.929 . S
C3334 C3330 1.531 . S
C3334 H3346 0.960 . S
C3334 H3347 0.962 . S
C3334 H3348 0.960 . S
C3335 C3332 1.511 . S
C3335 H3349 0.961 . S
C3335 H3350 0.961 . S
C3335 H3351 0.961 . S
C3336 C3337 1.370 . S
C3336 C3338 1.363 . S
C3336 H3352 0.931 . S
C3337 C3336 1.370 . S
C3337 C3341 1.408 . S
C3338 C3336 1.363 . S
C3338 C3339 1.370 . S
C3338 C3342 1.524 . S
C3339 C3331 1.503 . S
C3339 C3338 1.370 . S
C3339 C3340 1.403 . S
C3340 C3339 1.403 . S
C3340 C3341 1.404 . S
C3340 C3343 1.539 . S
C3341 C3337 1.408 . S
C3341 C3340 1.404 . S
C3341 H3353 0.930 . S
C3342 C3338 1.524 . S
C3342 H3354 0.956 . S
C3342 H3355 0.961 . S
C3342 H3356 0.961 . S
C3343 C3340 1.539 . S
C3343 H3357 0.958 . S
C3343 H3358 0.961 . S
C3343 H3359 0.960 . S
H3344 C3328 0.931 . S
H3345 C3333 0.929 . S
H3346 C3334 0.960 . S
H3347 C3334 0.962 . S
H3348 C3334 0.960 . S
H3349 C3335 0.961 . S
H3350 C3335 0.961 . S
H3351 C3335 0.961 . S
H3352 C3336 0.931 . S
H3353 C3341 0.930 . S
H3354 C3342 0.956 . S
H3355 C3342 0.961 . S
H3356 C3342 0.961 . S
H3357 C3343 0.958 . S
H3358 C3343 0.961 . S
H3359 C3343 0.960 . S
C3360 C3361 1.391 . S
C3360 C3362 1.394 1_554 S
C3360 H3376 0.931 . S
C3361 C3360 1.391 . S
C3361 C3365 1.376 . S
C3362 C3360 1.394 1_556 S
C3362 C3363 1.369 1_556 S
C3362 C3366 1.531 1_565 S
C3363 C3362 1.369 1_554 S
C3363 C3364 1.403 1_455 S
C3363 C3371 1.503 1_464 S
C3364 C3363 1.403 1_655 S
C3364 C3365 1.380 1_655 S
C3364 C3367 1.530 . S
C3365 C3361 1.376 . S
C3365 C3364 1.380 1_455 S
C3365 H3377 0.929 . S
C3366 C3362 1.531 1_545 S
C3366 H3378 0.960 . S
C3366 H3379 0.962 . S
C3366 H3380 0.960 1_545 S
C3367 C3364 1.530 . S
C3367 H3381 0.961 . S
C3367 H3382 0.961 . S
C3367 H3383 0.961 . S
C3368 C3369 1.370 . S
C3368 C3370 1.363 1_556 S
C3368 H3384 0.931 . S
C3369 C3368 1.370 . S
C3369 C3373 1.408 . S
C3370 C3368 1.363 1_554 S
C3370 C3371 1.370 1_554 S
C3370 C3374 1.524 1_655 S
C3371 C3363 1.503 1_646 S
C3371 C3370 1.370 1_556 S
C3371 C3372 1.403 1_545 S
C3372 C3371 1.403 1_565 S
C3372 C3373 1.404 1_565 S
C3372 C3375 1.539 . S
C3373 C3369 1.408 . S
C3373 C3372 1.404 1_545 S
C3373 H3385 0.930 . S
C3374 C3370 1.524 1_455 S
C3374 H3386 0.956 . S
C3374 H3387 0.961 1_455 S
C3374 H3388 0.961 1_455 S
C3375 C3372 1.539 . S
C3375 H3389 0.958 . S
C3375 H3390 0.961 . S
C3375 H3391 0.960 . S
H3376 C3360 0.931 . S
H3377 C3365 0.929 . S
H3378 C3366 0.960 . S
H3379 C3366 0.962 . S
H3380 C3366 0.960 1_565 S
H3381 C3367 0.961 . S
H3382 C3367 0.961 . S
H3383 C3367 0.961 . S
H3384 C3368 0.931 . S
H3385 C3373 0.930 . S
H3386 C3374 0.956 . S
H3387 C3374 0.961 1_655 S
H3388 C3374 0.961 1_655 S
H3389 C3375 0.958 . S
H3390 C3375 0.961 . S
H3391 C3375 0.960 . S
C3392 C3393 1.391 . S
C3392 C3394 1.394 . S
C3392 H3408 0.931 . S
C3393 C3392 1.391 . S
C3393 C3397 1.376 . S
C3394 C3392 1.394 . S
C3394 C3395 1.369 . S
C3394 C3398 1.531 . S
C3395 C3394 1.369 . S
C3395 C3396 1.410 . S
C3395 C3403 1.503 . S
C3396 C3395 1.410 . S
C3396 C3397 1.392 . S
C3396 C3399 1.511 . S
C3397 C3393 1.376 . S
C3397 C3396 1.392 . S
C3397 H3409 0.929 . S
C3398 C3394 1.531 . S
C3398 H3410 0.960 . S
C3398 H3411 0.962 . S
C3398 H3412 0.960 . S
C3399 C3396 1.511 . S
C3399 H3413 0.961 . S
C3399 H3414 0.961 . S
C3399 H3415 0.961 . S
C3400 C3401 1.370 . S
C3400 C3402 1.363 . S
C3400 H3416 0.931 . S
C3401 C3400 1.370 . S
C3401 C3405 1.408 . S
C3402 C3400 1.363 . S
C3402 C3403 1.370 . S
C3402 C3406 1.524 . S
C3403 C3395 1.503 . S
C3403 C3402 1.370 . S
C3403 C3404 1.403 . S
C3404 C3403 1.403 . S
C3404 C3405 1.404 . S
C3404 C3407 1.539 . S
C3405 C3401 1.408 . S
C3405 C3404 1.404 . S
C3405 H3417 0.930 . S
C3406 C3402 1.524 . S
C3406 H3418 0.956 . S
C3406 H3419 0.961 . S
C3406 H3420 0.961 . S
C3407 C3404 1.539 . S
C3407 H3421 0.958 . S
C3407 H3422 0.961 . S
C3407 H3423 0.960 . S
H3408 C3392 0.931 . S
H3409 C3397 0.929 . S
H3410 C3398 0.960 . S
H3411 C3398 0.962 . S
H3412 C3398 0.960 . S
H3413 C3399 0.961 . S
H3414 C3399 0.961 . S
H3415 C3399 0.961 . S
H3416 C3400 0.931 . S
H3417 C3405 0.930 . S
H3418 C3406 0.956 . S
H3419 C3406 0.961 . S
H3420 C3406 0.961 . S
H3421 C3407 0.958 . S
H3422 C3407 0.961 . S
H3423 C3407 0.960 . S
C3424 C3425 1.391 . S
C3424 C3426 1.394 . S
C3424 H3440 0.931 . S
C3425 C3424 1.391 . S
C3425 C3429 1.376 . S
C3426 C3424 1.394 . S
C3426 C3427 1.369 . S
C3426 C3430 1.531 . S
C3427 C3426 1.369 . S
C3427 C3428 1.410 . S
C3427 C3435 1.503 . S
C3428 C3427 1.410 . S
C3428 C3429 1.392 . S
C3428 C3431 1.511 . S
C3429 C3425 1.376 . S
C3429 C3428 1.392 . S
C3429 H3441 0.929 . S
C3430 C3426 1.531 . S
C3430 H3442 0.960 . S
C3430 H3443 0.962 . S
C3430 H3444 0.960 . S
C3431 C3428 1.511 . S
C3431 H3445 0.961 . S
C3431 H3446 0.961 . S
C3431 H3447 0.961 . S
C3432 C3433 1.370 . S
C3432 C3434 1.363 . S
C3432 H3448 0.931 . S
C3433 C3432 1.370 . S
C3433 C3437 1.408 . S
C3434 C3432 1.363 . S
C3434 C3435 1.370 . S
C3434 C3438 1.524 . S
C3435 C3427 1.503 . S
C3435 C3434 1.370 . S
C3435 C3436 1.403 . S
C3436 C3435 1.403 . S
C3436 C3437 1.404 . S
C3436 C3439 1.539 . S
C3437 C3433 1.408 . S
C3437 C3436 1.404 . S
C3437 H3449 0.930 . S
C3438 C3434 1.524 . S
C3438 H3450 0.956 . S
C3438 H3451 0.961 . S
C3438 H3452 0.961 . S
C3439 C3436 1.539 . S
C3439 H3453 0.958 . S
C3439 H3454 0.961 . S
C3439 H3455 0.960 . S
H3440 C3424 0.931 . S
H3441 C3429 0.929 . S
H3442 C3430 0.960 . S
H3443 C3430 0.962 . S
H3444 C3430 0.960 . S
H3445 C3431 0.961 . S
H3446 C3431 0.961 . S
H3447 C3431 0.961 . S
H3448 C3432 0.931 . S
H3449 C3437 0.930 . S
H3450 C3438 0.956 . S
H3451 C3438 0.961 . S
H3452 C3438 0.961 . S
H3453 C3439 0.958 . S
H3454 C3439 0.961 . S
H3455 C3439 0.960 . S
C3456 C3457 1.391 . S
C3456 C3458 1.394 . S
C3456 H3472 0.931 . S
C3457 C3456 1.391 . S
C3457 C3461 1.376 . S
C3458 C3456 1.394 . S
C3458 C3459 1.369 . S
C3458 C3462 1.531 . S
C3459 C3458 1.369 . S
C3459 C3460 1.410 . S
C3459 C3467 1.503 . S
C3460 C3459 1.410 . S
C3460 C3461 1.392 . S
C3460 C3463 1.511 . S
C3461 C3457 1.376 . S
C3461 C3460 1.392 . S
C3461 H3473 0.929 . S
C3462 C3458 1.531 . S
C3462 H3474 0.960 . S
C3462 H3475 0.962 . S
C3462 H3476 0.960 . S
C3463 C3460 1.511 . S
C3463 H3477 0.961 . S
C3463 H3478 0.961 . S
C3463 H3479 0.961 . S
C3464 C3465 1.370 . S
C3464 C3466 1.363 . S
C3464 H3480 0.931 . S
C3465 C3464 1.370 . S
C3465 C3469 1.408 . S
C3466 C3464 1.363 . S
C3466 C3467 1.370 . S
C3466 C3470 1.524 . S
C3467 C3459 1.503 . S
C3467 C3466 1.370 . S
C3467 C3468 1.403 . S
C3468 C3467 1.403 . S
C3468 C3469 1.404 . S
C3468 C3471 1.539 . S
C3469 C3465 1.408 . S
C3469 C3468 1.404 . S
C3469 H3481 0.930 . S
C3470 C3466 1.524 . S
C3470 H3482 0.956 . S
C3470 H3483 0.961 . S
C3470 H3484 0.961 . S
C3471 C3468 1.539 . S
C3471 H3485 0.958 . S
C3471 H3486 0.961 . S
C3471 H3487 0.960 . S
H3472 C3456 0.931 . S
H3473 C3461 0.929 . S
H3474 C3462 0.960 . S
H3475 C3462 0.962 . S
H3476 C3462 0.960 . S
H3477 C3463 0.961 . S
H3478 C3463 0.961 . S
H3479 C3463 0.961 . S
H3480 C3464 0.931 . S
H3481 C3469 0.930 . S
H3482 C3470 0.956 . S
H3483 C3470 0.961 . S
H3484 C3470 0.961 . S
H3485 C3471 0.958 . S
H3486 C3471 0.961 . S
H3487 C3471 0.960 . S
C3488 C3489 1.391 . S
C3488 C3490 1.394 . S
C3488 H3504 0.931 . S
C3489 C3488 1.391 . S
C3489 C3493 1.376 . S
C3490 C3488 1.394 . S
C3490 C3491 1.369 . S
C3490 C3494 1.531 . S
C3491 C3490 1.369 . S
C3491 C3492 1.410 . S
C3491 C3499 1.503 . S
C3492 C3491 1.410 . S
C3492 C3493 1.392 . S
C3492 C3495 1.511 . S
C3493 C3489 1.376 . S
C3493 C3492 1.392 . S
C3493 H3505 0.929 . S
C3494 C3490 1.531 . S
C3494 H3506 0.960 . S
C3494 H3507 0.962 . S
C3494 H3508 0.960 . S
C3495 C3492 1.511 . S
C3495 H3509 0.961 . S
C3495 H3510 0.961 . S
C3495 H3511 0.961 . S
C3496 C3497 1.370 . S
C3496 C3498 1.363 . S
C3496 H3512 0.931 . S
C3497 C3496 1.370 . S
C3497 C3501 1.408 . S
C3498 C3496 1.363 . S
C3498 C3499 1.370 . S
C3498 C3502 1.524 . S
C3499 C3491 1.503 . S
C3499 C3498 1.370 . S
C3499 C3500 1.403 . S
C3500 C3499 1.403 . S
C3500 C3501 1.404 . S
C3500 C3503 1.539 . S
C3501 C3497 1.408 . S
C3501 C3500 1.404 . S
C3501 H3513 0.930 . S
C3502 C3498 1.524 . S
C3502 H3514 0.956 . S
C3502 H3515 0.961 . S
C3502 H3516 0.961 . S
C3503 C3500 1.539 . S
C3503 H3517 0.958 . S
C3503 H3518 0.961 . S
C3503 H3519 0.960 . S
H3504 C3488 0.931 . S
H3505 C3493 0.929 . S
H3506 C3494 0.960 . S
H3507 C3494 0.962 . S
H3508 C3494 0.960 . S
H3509 C3495 0.961 . S
H3510 C3495 0.961 . S
H3511 C3495 0.961 . S
H3512 C3496 0.931 . S
H3513 C3501 0.930 . S
H3514 C3502 0.956 . S
H3515 C3502 0.961 . S
H3516 C3502 0.961 . S
H3517 C3503 0.958 . S
H3518 C3503 0.961 . S
H3519 C3503 0.960 . S
C3520 C3521 1.391 . S
C3520 C3522 1.389 1_554 S
C3520 H3536 0.931 . S
C3521 C3520 1.391 . S
C3521 C3525 1.376 . S
C3522 C3520 1.389 1_556 S
C3522 C3523 1.365 1_556 S
C3522 C3526 1.539 . S
C3523 C3522 1.365 1_554 S
C3523 C3524 1.410 . S
C3523 C3531 1.503 1_554 S
C3524 C3523 1.410 . S
C3524 C3525 1.392 . S
C3524 C3527 1.511 . S
C3525 C3521 1.376 . S
C3525 C3524 1.392 . S
C3525 H3537 0.929 . S
C3526 C3522 1.539 . S
C3526 H3538 0.960 . S
C3526 H3539 0.962 . S
C3526 H3540 0.960 . S
C3527 C3524 1.511 . S
C3527 H3541 0.961 . S
C3527 H3542 0.961 . S
C3527 H3543 0.961 . S
C3528 C3529 1.370 . S
C3528 C3530 1.363 . S
C3528 H3544 0.931 . S
C3529 C3528 1.370 . S
C3529 C3533 1.408 . S
C3530 C3528 1.363 . S
C3530 C3531 1.370 . S
C3530 C3534 1.524 . S
C3531 C3523 1.503 1_556 S
C3531 C3530 1.370 . S
C3531 C3532 1.401 . S
C3532 C3531 1.401 . S
C3532 C3533 1.400 . S
C3532 C3535 1.544 1_556 S
C3533 C3529 1.408 . S
C3533 C3532 1.400 . S
C3533 H3545 0.930 . S
C3534 C3530 1.524 . S
C3534 H3546 0.956 . S
C3534 H3547 0.961 . S
C3534 H3548 0.961 . S
C3535 C3532 1.544 1_554 S
C3535 H3549 0.958 . S
C3535 H3550 0.961 . S
C3535 H3551 0.960 . S
H3536 C3520 0.931 . S
H3537 C3525 0.929 . S
H3538 C3526 0.960 . S
H3539 C3526 0.962 . S
H3540 C3526 0.960 . S
H3541 C3527 0.961 . S
H3542 C3527 0.961 . S
H3543 C3527 0.961 . S
H3544 C3528 0.931 . S
H3545 C3533 0.930 . S
H3546 C3534 0.956 . S
H3547 C3534 0.961 . S
H3548 C3534 0.961 . S
H3549 C3535 0.958 . S
H3550 C3535 0.961 . S
H3551 C3535 0.960 . S
C3552 C3553 1.391 . S
C3552 C3554 1.394 . S
C3552 H3568 0.931 . S
C3553 C3552 1.391 . S
C3553 C3557 1.376 . S
C3554 C3552 1.394 . S
C3554 C3555 1.369 . S
C3554 C3558 1.531 1_455 S
C3555 C3554 1.369 . S
C3555 C3556 1.410 . S
C3555 C3563 1.503 1_455 S
C3556 C3555 1.410 . S
C3556 C3557 1.392 . S
C3556 C3559 1.511 . S
C3557 C3553 1.376 . S
C3557 C3556 1.392 . S
C3557 H3569 0.929 . S
C3558 C3554 1.531 1_655 S
C3558 H3570 0.960 . S
C3558 H3571 0.962 . S
C3558 H3572 0.960 . S
C3559 C3556 1.511 . S
C3559 H3573 0.961 . S
C3559 H3574 0.961 . S
C3559 H3575 0.961 . S
C3560 C3561 1.370 . S
C3560 C3562 1.363 . S
C3560 H3576 0.931 . S
C3561 C3560 1.370 . S
C3561 C3565 1.408 . S
C3562 C3560 1.363 . S
C3562 C3563 1.370 . S
C3562 C3566 1.524 1_655 S
C3563 C3555 1.503 1_655 S
C3563 C3562 1.370 . S
C3563 C3564 1.403 . S
C3564 C3563 1.403 . S
C3564 C3565 1.404 . S
C3564 C3567 1.539 . S
C3565 C3561 1.408 . S
C3565 C3564 1.404 . S
C3565 H3577 0.930 . S
C3566 C3562 1.524 1_455 S
C3566 H3578 0.956 . S
C3566 H3579 0.961 . S
C3566 H3580 0.961 . S
C3567 C3564 1.539 . S
C3567 H3581 0.958 . S
C3567 H3582 0.961 . S
C3567 H3583 0.960 . S
H3568 C3552 0.931 . S
H3569 C3557 0.929 . S
H3570 C3558 0.960 . S
H3571 C3558 0.962 . S
H3572 C3558 0.960 . S
H3573 C3559 0.961 . S
H3574 C3559 0.961 . S
H3575 C3559 0.961 . S
H3576 C3560 0.931 . S
H3577 C3565 0.930 . S
H3578 C3566 0.956 . S
H3579 C3566 0.961 . S
H3580 C3566 0.961 . S
H3581 C3567 0.958 . S
H3582 C3567 0.961 . S
H3583 C3567 0.960 . S
C3584 C3585 1.391 . S
C3584 C3586 1.401 . S
C3584 H3600 0.931 . S
C3585 C3584 1.391 . S
C3585 C3589 1.376 . S
C3586 C3584 1.401 . S
C3586 C3587 1.373 . S
C3586 C3590 1.520 1_455 S
C3587 C3586 1.373 . S
C3587 C3588 1.405 1_556 S
C3587 C3595 1.503 1_456 S
C3588 C3587 1.405 1_554 S
C3588 C3589 1.370 1_554 S
C3588 C3591 1.538 . S
C3589 C3585 1.376 . S
C3589 C3588 1.370 1_556 S
C3589 H3601 0.929 . S
C3590 C3586 1.520 1_655 S
C3590 H3602 0.960 . S
C3590 H3603 0.962 . S
C3590 H3604 0.960 . S
C3591 C3588 1.538 . S
C3591 H3605 0.961 . S
C3591 H3606 0.961 . S
C3591 H3607 0.961 . S
C3592 C3593 1.370 . S
C3592 C3594 1.363 1_554 S
C3592 H3608 0.923 1_554 S
C3593 C3592 1.370 . S
C3593 C3597 1.408 . S
C3594 C3592 1.363 1_556 S
C3594 C3595 1.370 1_556 S
C3594 C3598 1.524 . S
C3595 C3587 1.503 1_654 S
C3595 C3594 1.370 1_554 S
C3595 C3596 1.403 . S
C3596 C3595 1.403 . S
C3596 C3597 1.404 . S
C3596 C3599 1.539 . S
C3597 C3593 1.408 . S
C3597 C3596 1.404 . S
C3597 H3609 0.930 . S
C3598 C3594 1.524 . S
C3598 H3610 0.956 . S
C3598 H3611 0.961 1_655 S
C3598 H3612 0.961 . S
C3599 C3596 1.539 . S
C3599 H3613 0.958 . S
C3599 H3614 0.961 . S
C3599 H3615 0.960 1_655 S
H3600 C3584 0.931 . S
H3601 C3589 0.929 . S
H3602 C3590 0.960 . S
H3603 C3590 0.962 . S
H3604 C3590 0.960 . S
H3605 C3591 0.961 . S
H3606 C3591 0.961 . S
H3607 C3591 0.961 . S
H3608 C3592 0.923 1_556 S
H3609 C3597 0.930 . S
H3610 C3598 0.956 . S
H3611 C3598 0.961 1_455 S
H3612 C3598 0.961 . S
H3613 C3599 0.958 . S
H3614 C3599 0.961 . S
H3615 C3599 0.960 1_455 S
C3616 C3617 1.391 . S
C3616 C3618 1.394 . S
C3616 H3632 0.931 . S
C3617 C3616 1.391 . S
C3617 C3621 1.376 . S
C3618 C3616 1.394 . S
C3618 C3619 1.369 . S
C3618 C3622 1.531 . S
C3619 C3618 1.369 . S
C3619 C3620 1.410 . S
C3619 C3627 1.503 . S
C3620 C3619 1.410 . S
C3620 C3621 1.392 . S
C3620 C3623 1.511 . S
C3621 C3617 1.376 . S
C3621 C3620 1.392 . S
C3621 H3633 0.929 . S
C3622 C3618 1.531 . S
C3622 H3634 0.960 . S
C3622 H3635 0.962 . S
C3622 H3636 0.960 . S
C3623 C3620 1.511 . S
C3623 H3637 0.961 . S
C3623 H3638 0.961 . S
C3623 H3639 0.961 . S
C3624 C3625 1.370 . S
C3624 C3626 1.363 . S
C3624 H3640 0.931 . S
C3625 C3624 1.370 . S
C3625 C3629 1.408 . S
C3626 C3624 1.363 . S
C3626 C3627 1.370 . S
C3626 C3630 1.524 . S
C3627 C3619 1.503 . S
C3627 C3626 1.370 . S
C3627 C3628 1.403 . S
C3628 C3627 1.403 . S
C3628 C3629 1.404 . S
C3628 C3631 1.539 . S
C3629 C3625 1.408 . S
C3629 C3628 1.404 . S
C3629 H3641 0.930 . S
C3630 C3626 1.524 . S
C3630 H3642 0.956 . S
C3630 H3643 0.961 . S
C3630 H3644 0.961 . S
C3631 C3628 1.539 . S
C3631 H3645 0.958 . S
C3631 H3646 0.961 . S
C3631 H3647 0.960 . S
H3632 C3616 0.931 . S
H3633 C3621 0.929 . S
H3634 C3622 0.960 . S
H3635 C3622 0.962 . S
H3636 C3622 0.960 . S
H3637 C3623 0.961 . S
H3638 C3623 0.961 . S
H3639 C3623 0.961 . S
H3640 C3624 0.931 . S
H3641 C3629 0.930 . S
H3642 C3630 0.956 . S
H3643 C3630 0.961 . S
H3644 C3630 0.961 . S
H3645 C3631 0.958 . S
H3646 C3631 0.961 . S
H3647 C3631 0.960 . S
C1089 C617 0.736 . S
C1097 C5 0.722 . S
C1121 C39 0.754 . S
C1129 C651 0.764 . S
C1153 C73 0.755 . S
C1161 C549 0.764 . S
C1185 C583 0.756 . S
C1193 C107 0.764 . S
C1217 C141 0.732 . S
C1225 C753 0.761 . S
C1249 C787 0.777 . S
C1257 C175 0.763 . S
C1281 C209 0.791 . S
C1289 C685 0.757 . S
C1313 C243 0.775 . S
C1321 C719 0.763 . S
C1345 C277 0.710 . S
C1353 C889 0.726 . S
C1377 C923 0.725 . S
C1385 C311 0.723 . S
C1409 C345 0.793 . S
C1417 C821 0.747 . S
C1441 C379 0.731 . S
C1449 C855 0.722 . S
C1473 C413 0.693 . S
C1481 C1025 0.736 . S
C1505 C1059 0.793 . S
C1513 C447 0.748 . S
C1537 C957 0.704 . S
C1545 C481 0.729 . S
C1569 C991 0.793 . S
C1577 C515 0.748 . S
C1601 C407 1.109 . S
C1609 C2 1.081 . S
C1633 C849 1.136 . S
C1641 C36 1.111 . S
C1665 C70 1.063 . S
C1673 C339 1.122 . S
C1697 C917 1.127 . S
C1705 C104 1.109 . S
C1729 C475 1.118 . S
C1737 C138 1.100 . S
C1761 C172 1.122 . S
C1769 C1053 1.130 . S
C1793 C543 1.109 . S
C1801 C206 1.085 . S
C1825 C985 1.128 . S
C1833 C240 1.109 . S
C1857 C135 1.132 . S
C1865 C274 1.110 . S
C1889 C308 1.122 . S
C1897 C577 1.129 . S
C1921 C342 1.108 . S
C1929 C67 1.126 . S
C1953 C645 1.111 . S
C1961 C376 1.085 . S
C1985 C410 1.056 . S
C1993 C203 1.119 . S
C2017 C781 1.109 . S
C2025 C444 1.082 . S
C2049 C478 1.129 . S
C2057 C271 1.130 . S
C2081 C512 1.094 . S
C2089 C713 1.125 . S
C2113 C951 1.109 . S
C2121 C546 1.082 . S
C2145 C580 1.110 . S
C2153 C305 1.129 . S
C2177 C614 1.060 . S
C2185 C883 1.119 . S
C2209 C373 1.135 . S
C2217 C648 1.108 . S
C2241 C682 1.056 . S
C2249 C1019 1.119 . S
C2273 C716 1.130 . S
C2281 C509 1.131 . S
C2305 C1087 1.135 . S
C2313 C750 1.109 . S
C2337 C441 1.136 . S
C2345 C784 1.113 . S
C2369 C679 1.132 . S
C2377 C818 1.110 . S
C2401 C852 1.118 . S
C2409 C33 1.128 . S
C2433 C886 1.126 . S
C2441 C611 1.130 . S
C2465 C101 1.113 . S
C2473 C920 1.086 . S
C2497 C954 1.056 . S
C2505 C747 1.119 . S
C2529 C988 1.122 . S
C2537 C237 1.128 . S
C2561 C815 1.120 . S
C2569 C1022 1.096 . S
C2593 C169 1.120 . S
C2601 C1056 1.093 . S
C2625 C247 1.749 1_545 S
C2633 C9 1.765 . S
C2657 C145 1.736 . S
C2665 C43 1.766 1_565 S
C2689 C77 1.735 . S
C2697 C179 1.766 1_565 S
C2721 C213 1.722 . S
C2729 C111 1.751 1_545 S
C2753 C519 1.760 1_565 S
C2761 C281 1.765 . S
C2785 C315 1.755 1_545 S
C2793 C417 1.766 . S
C2817 C451 1.722 1_545 S
C2825 C349 1.761 . S
C2849 C485 1.743 . S
C2857 C383 1.740 1_565 S
C2881 C791 1.749 . S
C2889 C553 1.741 . S
C2913 C689 1.780 . S
C2921 C587 1.749 . S
C2945 C723 1.777 . S
C2953 C621 1.753 . S
C2977 C757 1.722 . S
C2985 C655 1.763 . S
C3009 C825 1.745 . S
C3017 C1063 1.766 . S
C3041 C859 1.717 . S
C3049 C961 1.752 . S
C3073 C893 1.717 . S
C3081 C995 1.754 . S
C3105 C1029 1.779 . S
C3113 C927 1.749 . S
C3137 C20 1.736 . S
C3145 C836 1.765 . S
C3169 C326 1.747 . S
C3177 C54 1.760 . S
C3201 C904 1.729 . S
C3209 C88 1.770 . S
C3233 C122 1.766 . S
C3241 C394 1.752 . S
C3265 C156 1.781 . S
C3273 C972 1.747 . S
C3297 C190 1.751 . S
C3305 C462 1.758 . S
C3329 C1040 1.765 . S
C3337 C224 1.753 . S
C3361 C258 1.760 . S
C3369 C530 1.758 . S
C3393 C564 1.777 . S
C3401 C292 1.749 . S
C3425 C632 1.735 . S
C3433 C360 1.765 . S
C3457 C428 1.730 . S
C3465 C700 1.768 . S
C3489 C496 1.761 . S
C3497 C768 1.755 . S
C3521 C870 1.754 . S
C3529 C598 1.761 . S
C3553 C938 1.749 . S
C3561 C666 1.759 . S
C3585 C1006 1.767 . S
C3593 C734 1.752 . S
C3617 C1074 1.742 . S
C3625 C802 1.762 . S
