# Generated by pormake.
# Topology acs-i, (5)-cn, num edge types: 1
# Building blocks:
#     Node 0, Type 0, BuildingBlock: XOMCOT_clean_sbu_1, # of connection points: 5
#     Node 1, Type 0, BuildingBlock: XOMCOT_clean_sbu_1, # of connection points: 5
#     Node 2, Type 0, BuildingBlock: XOMCOT_clean_sbu_1, # of connection points: 5
#     Node 3, Type 0, BuildingBlock: XOMCOT_clean_sbu_1, # of connection points: 5
#     Node 4, Type 0, BuildingBlock: XOMCOT_clean_sbu_1, # of connection points: 5
#     Node 5, Type 0, BuildingBlock: XOMCOT_clean_sbu_1, # of connection points: 5
#     Node 6, Type 0, BuildingBlock: XOMCOT_clean_sbu_1, # of connection points: 5
#     Node 7, Type 0, BuildingBlock: XOMCOT_clean_sbu_1, # of connection points: 5
#     Node 8, Type 0, BuildingBlock: XOMCOT_clean_sbu_1, # of connection points: 5
#     Node 9, Type 0, BuildingBlock: XOMCOT_clean_sbu_1, # of connection points: 5
#     Node 10, Type 0, BuildingBlock: XOMCOT_clean_sbu_1, # of connection points: 5
#     Node 11, Type 0, BuildingBlock: XOMCOT_clean_sbu_1, # of connection points: 5
#     Edge 12, Type (0, 0), BuildingBlock: AJUNOK_clean_linker_0, # of connection points: 2
#     Edge 13, Type (0, 0), BuildingBlock: AJUNOK_clean_linker_0, # of connection points: 2
#     Edge 14, Type (0, 0), BuildingBlock: AJUNOK_clean_linker_0, # of connection points: 2
#     Edge 15, Type (0, 0), BuildingBlock: AJUNOK_clean_linker_0, # of connection points: 2
#     Edge 16, Type (0, 0), BuildingBlock: AJUNOK_clean_linker_0, # of connection points: 2
#     Edge 17, Type (0, 0), BuildingBlock: AJUNOK_clean_linker_0, # of connection points: 2
#     Edge 18, Type (0, 0), BuildingBlock: AJUNOK_clean_linker_0, # of connection points: 2
#     Edge 19, Type (0, 0), BuildingBlock: AJUNOK_clean_linker_0, # of connection points: 2
#     Edge 20, Type (0, 0), BuildingBlock: AJUNOK_clean_linker_0, # of connection points: 2
#     Edge 21, Type (0, 0), BuildingBlock: AJUNOK_clean_linker_0, # of connection points: 2
#     Edge 22, Type (0, 0), BuildingBlock: AJUNOK_clean_linker_0, # of connection points: 2
#     Edge 23, Type (0, 0), BuildingBlock: AJUNOK_clean_linker_0, # of connection points: 2
#     Edge 24, Type (0, 0), BuildingBlock: AJUNOK_clean_linker_0, # of connection points: 2
#     Edge 25, Type (0, 0), BuildingBlock: AJUNOK_clean_linker_0, # of connection points: 2
#     Edge 26, Type (0, 0), BuildingBlock: AJUNOK_clean_linker_0, # of connection points: 2
#     Edge 27, Type (0, 0), BuildingBlock: AJUNOK_clean_linker_0, # of connection points: 2
#     Edge 28, Type (0, 0), BuildingBlock: AJUNOK_clean_linker_0, # of connection points: 2
#     Edge 29, Type (0, 0), BuildingBlock: AJUNOK_clean_linker_0, # of connection points: 2
#     Edge 30, Type (0, 0), BuildingBlock: AJUNOK_clean_linker_0, # of connection points: 2
#     Edge 31, Type (0, 0), BuildingBlock: AJUNOK_clean_linker_0, # of connection points: 2
#     Edge 32, Type (0, 0), BuildingBlock: AJUNOK_clean_linker_0, # of connection points: 2
#     Edge 33, Type (0, 0), BuildingBlock: AJUNOK_clean_linker_0, # of connection points: 2
#     Edge 34, Type (0, 0), BuildingBlock: AJUNOK_clean_linker_0, # of connection points: 2
#     Edge 35, Type (0, 0), BuildingBlock: AJUNOK_clean_linker_0, # of connection points: 2
#     Edge 36, Type (0, 0), BuildingBlock: AJUNOK_clean_linker_0, # of connection points: 2
#     Edge 37, Type (0, 0), BuildingBlock: AJUNOK_clean_linker_0, # of connection points: 2
#     Edge 38, Type (0, 0), BuildingBlock: AJUNOK_clean_linker_0, # of connection points: 2
#     Edge 39, Type (0, 0), BuildingBlock: AJUNOK_clean_linker_0, # of connection points: 2
#     Edge 40, Type (0, 0), BuildingBlock: AJUNOK_clean_linker_0, # of connection points: 2
#     Edge 41, Type (0, 0), BuildingBlock: AJUNOK_clean_linker_0, # of connection points: 2
# Relax obj value: 0.874
# Max RMSD: 0.208
# Mean RMSD: 0.208
data_MOF--net-acs-i--node1-XOMCOT_clean_sbu_1--edge1-AJUNOK_clean_linker_0
_symmetry_space_group_name_H-M    P1
_symmetry_Int_Tables_number       1
_symmetry_cell_setting            triclinic
loop_
_symmetry_equiv_pos_as_xyz
'x, y, z'
_cell_length_a     33.303155
_cell_length_b     33.362781
_cell_length_c     37.563964
_cell_angle_alpha  89.987742
_cell_angle_beta   89.869378
_cell_angle_gamma 119.9402
loop_
_atom_site_label
_atom_site_type_symbol
_atom_site_fract_x
_atom_site_fract_y
_atom_site_fract_z
_atom_type_partial_charge
C0 C 0.26671 0.4699 0.03583 0.0
C1 C 0.30733 0.51149 0.03136 0.0
N2 N 0.31808 0.53442 0.0626 0.0
N3 N 0.2526 0.46645 0.06993 0.0
C4 C 0.28425 0.50645 0.08526 0.0
H5 H 0.24932 0.44356 0.01577 0.0
Co6 Co 0.20301 0.41906 0.09477 0.0
C7 C 0.24456 0.42925 0.16679 0.0
O8 O 0.20671 0.42195 0.18334 0.0
N9 N 0.1529 0.37191 0.12124 0.0
C10 C 0.1109 0.31158 0.15687 0.0
C11 C 0.14648 0.33052 0.1322 0.0
C12 C 0.12018 0.37659 0.13924 0.0
N13 N 0.09449 0.34088 0.16137 0.0
O14 O 0.19045 0.46454 0.11348 0.0
H15 H 0.1684 0.31646 0.12492 0.0
H16 H 0.11817 0.40781 0.13926 0.0
O17 O 0.24543 0.42802 0.13296 0.0
C18 C 0.16586 0.47119 0.0909 0.0
O19 O 0.1517 0.44493 0.06239 0.0
N20 N 0.21461 0.37567 0.07265 0.0
C21 C 0.23794 0.33086 0.02096 0.0
C22 C 0.26725 0.35245 0.05009 0.0
C23 C 0.25508 0.3749 0.07567 0.0
C24 C 0.18418 0.3521 0.04601 0.0
C25 C 0.19515 0.32938 0.01979 0.0
H26 H 0.27998 0.39464 0.09603 0.0
H27 H 0.15296 0.35425 0.04345 0.0
H28 H 0.28338 0.51406 0.11315 0.0
H29 H 0.32759 0.52371 0.00714 0.0
H30 H 0.10008 0.28018 0.17196 0.0
H31 H 0.30056 0.35421 0.05197 0.0
H32 H 0.1719 0.31386 0.99749 0.0
C33 C 0.90382 0.48725 0.6103 0.0
C34 C 0.86831 0.49402 0.5989 0.0
N35 N 0.84552 0.49672 0.62773 0.0
N36 N 0.90371 0.48637 0.64616 0.0
C37 C 0.86706 0.49078 0.6558 0.0
H38 H 0.92803 0.48311 0.59365 0.0
Co39 Co 0.94157 0.477 0.67782 0.0
C40 C 0.94734 0.54764 0.73098 0.0
O41 O 0.9912 0.57699 0.72443 0.0
N42 N 0.97775 0.4658 0.71145 0.0
C43 C 0.0232 0.4724 0.75732 0.0
C44 C 0.01496 0.49594 0.73069 0.0
C45 C 0.96545 0.4242 0.72626 0.0
N46 N 0.99195 0.42713 0.75423 0.0
O47 O 0.88877 0.41979 0.68968 0.0
H48 H 0.03356 0.53296 0.727 0.0
H49 H 0.93494 0.39222 0.71912 0.0
O50 O 0.92688 0.50895 0.71472 0.0
C51 C 0.88931 0.39477 0.66416 0.0
O52 O 0.92527 0.41206 0.64258 0.0
N53 N 0.99402 0.53063 0.66007 0.0
C54 C 0.03028 0.56402 0.59255 0.0
C55 C 0.00869 0.58404 0.6121 0.0
C56 C 0.99102 0.56705 0.64626 0.0
C57 C 0.02236 0.51729 0.64423 0.0
C58 C 0.04064 0.53338 0.61046 0.0
H59 H 0.96779 0.57714 0.65812 0.0
H60 H 0.024 0.48782 0.65431 0.0
H61 H 0.85506 0.48741 0.68294 0.0
H62 H 0.85991 0.49663 0.57152 0.0
H63 H 0.04833 0.48762 0.77853 0.0
H64 H 0.00122 0.60896 0.59984 0.0
H65 H 0.05734 0.51699 0.59684 0.0
C66 C 0.49437 0.82923 0.06386 0.0
C67 C 0.4539 0.83088 0.06269 0.0
N68 N 0.42971 0.81167 0.09281 0.0
N69 N 0.49568 0.80927 0.09469 0.0
C70 C 0.45578 0.79871 0.11156 0.0
H71 H 0.52064 0.84111 0.04333 0.0
Co72 Co 0.53941 0.7951 0.11123 0.0
C73 C 0.55764 0.83623 0.18459 0.0
O74 O 0.60253 0.85297 0.18148 0.0
N75 N 0.58266 0.77903 0.12846 0.0
C76 C 0.63342 0.75399 0.1315 0.0
C77 C 0.61836 0.77851 0.11155 0.0
C78 C 0.57693 0.75452 0.15859 0.0
N79 N 0.60749 0.73938 0.16115 0.0
O80 O 0.49061 0.7331 0.11936 0.0
H81 H 0.63066 0.79136 0.08514 0.0
H82 H 0.54819 0.74437 0.17681 0.0
O83 O 0.53078 0.81318 0.15902 0.0
C84 C 0.48502 0.70687 0.09295 0.0
O85 O 0.5155 0.72323 0.06691 0.0
N86 N 0.58643 0.85513 0.09904 0.0
C87 C 0.64364 0.93781 0.06311 0.0
C88 C 0.62136 0.93782 0.09487 0.0
C89 C 0.59238 0.89592 0.11233 0.0
C90 C 0.60696 0.85481 0.06771 0.0
C91 C 0.63654 0.89566 0.04981 0.0
H92 H 0.5722 0.89631 0.13466 0.0
H93 H 0.5971 0.8223 0.05479 0.0
H94 H 0.44522 0.77991 0.13646 0.0
H95 H 0.44285 0.84457 0.04109 0.0
H96 H 0.65919 0.7449 0.12375 0.0
H97 H 0.62453 0.96962 0.10512 0.0
H98 H 0.65087 0.89388 0.02433 0.0
C99 C 0.59698 0.42734 0.57109 0.0
C100 C 0.60312 0.38986 0.5662 0.0
N101 N 0.60315 0.37224 0.59848 0.0
N102 N 0.59268 0.43262 0.60622 0.0
C103 C 0.59646 0.3985 0.62216 0.0
H104 H 0.59766 0.45043 0.55059 0.0
Co105 Co 0.59327 0.48187 0.6289 0.0
C106 C 0.52463 0.43908 0.68649 0.0
O107 O 0.50872 0.46688 0.67831 0.0
N108 N 0.59656 0.53306 0.65284 0.0
C109 C 0.61553 0.60481 0.66885 0.0
C110 C 0.59879 0.57268 0.64164 0.0
C111 C 0.61149 0.54204 0.68687 0.0
N112 N 0.62367 0.58524 0.69717 0.0
O113 O 0.65086 0.49558 0.6496 0.0
H114 H 0.59254 0.57984 0.61489 0.0
H115 H 0.61767 0.51867 0.70289 0.0
O116 O 0.55886 0.44158 0.66912 0.0
C117 C 0.68302 0.51613 0.62672 0.0
O118 O 0.67326 0.52951 0.59666 0.0
N119 N 0.53862 0.46809 0.60432 0.0
C120 C 0.48336 0.43576 0.54374 0.0
C121 C 0.47256 0.40757 0.57381 0.0
C122 C 0.50067 0.4244 0.60402 0.0
C123 C 0.54753 0.49664 0.57581 0.0
C124 C 0.51978 0.48146 0.54553 0.0
H125 H 0.49558 0.39973 0.62458 0.0
H126 H 0.58019 0.52847 0.57398 0.0
H127 H 0.59724 0.3947 0.65073 0.0
H128 H 0.60802 0.37711 0.54101 0.0
H129 H 0.62359 0.64046 0.66723 0.0
H130 H 0.44561 0.37158 0.57273 0.0
H131 H 0.53008 0.50346 0.52215 0.0
C132 C 0.13475 0.68986 0.07732 0.0
C133 C 0.13154 0.64898 0.06618 0.0
N134 N 0.1418 0.63021 0.09402 0.0
N135 N 0.14661 0.69628 0.11201 0.0
C136 C 0.15106 0.65966 0.12124 0.0
H137 H 0.12962 0.71374 0.06113 0.0
Co138 Co 0.15925 0.74576 0.14151 0.0
C139 C 0.10466 0.69074 0.20572 0.0
O140 O 0.07842 0.70978 0.20693 0.0
N141 N 0.17346 0.79655 0.17212 0.0
C142 C 0.1722 0.84832 0.20914 0.0
C143 C 0.14585 0.81049 0.18779 0.0
C144 C 0.21625 0.82686 0.18435 0.0
N145 N 0.21667 0.85872 0.20659 0.0
O146 O 0.2197 0.75401 0.14831 0.0
H147 H 0.1087 0.79385 0.18468 0.0
H148 H 0.2467 0.82443 0.17891 0.0
O149 O 0.13603 0.70315 0.18189 0.0
C150 C 0.244 0.77464 0.12095 0.0
O151 O 0.22529 0.7875 0.09588 0.0
N152 N 0.1014 0.73885 0.13005 0.0
C153 C 0.03072 0.72744 0.0842 0.0
C154 C 0.02549 0.69071 0.10579 0.0
C155 C 0.06136 0.69711 0.12863 0.0
C156 C 0.10578 0.77552 0.11085 0.0
C157 C 0.07058 0.77078 0.08825 0.0
H158 H 0.05914 0.66718 0.14165 0.0
H159 H 0.13853 0.80759 0.1105 0.0
H160 H 0.16171 0.65499 0.14738 0.0
H161 H 0.12396 0.63509 0.03945 0.0
H162 H 0.15947 0.86589 0.226 0.0
H163 H 0.99601 0.65627 0.1027 0.0
H164 H 0.07605 0.79996 0.07205 0.0
C165 C 0.69255 0.15125 0.60171 0.0
C166 C 0.7384 0.18498 0.60399 0.0
N167 N 0.74309 0.21192 0.63209 0.0
N168 N 0.66845 0.15723 0.62824 0.0
C169 C 0.70077 0.19386 0.64663 0.0
H170 H 0.67825 0.12576 0.58084 0.0
Co171 Co 0.60514 0.12993 0.63965 0.0
C172 C 0.60938 0.10153 0.71659 0.0
O173 O 0.56813 0.06457 0.71913 0.0
N174 N 0.54286 0.10379 0.65255 0.0
C175 C 0.46583 0.06551 0.6562 0.0
C176 C 0.50361 0.07175 0.63647 0.0
C177 C 0.5281 0.1168 0.68142 0.0
N178 N 0.4816 0.09361 0.6847 0.0
O179 O 0.61328 0.18948 0.64996 0.0
H180 H 0.5023 0.0544 0.61183 0.0
H181 H 0.55127 0.14385 0.69934 0.0
O182 O 0.62251 0.12458 0.68773 0.0
C183 C 0.61827 0.21129 0.62098 0.0
O184 O 0.61826 0.19159 0.59072 0.0
N185 N 0.59515 0.07291 0.62449 0.0
C186 C 0.56423 0.99493 0.5823 0.0
C187 C 0.56908 0.99189 0.61924 0.0
C188 C 0.58585 0.0322 0.64014 0.0
C189 C 0.59062 0.07559 0.58875 0.0
C190 C 0.57732 0.0378 0.56709 0.0
H191 H 0.58857 0.02986 0.66854 0.0
H192 H 0.59625 0.10755 0.57703 0.0
H193 H 0.69287 0.20933 0.66891 0.0
H194 H 0.76564 0.19069 0.5854 0.0
H195 H 0.42971 0.04225 0.65008 0.0
H196 H 0.55789 0.95875 0.63181 0.0
H197 H 0.57274 0.0411 0.53886 0.0
C198 C 0.38907 0.48864 0.38613 0.0
C199 C 0.34349 0.47573 0.39352 0.0
N200 N 0.32455 0.48141 0.36364 0.0
N201 N 0.39786 0.50107 0.35156 0.0
C202 C 0.35831 0.49749 0.33908 0.0
H203 H 0.41402 0.48873 0.40452 0.0
Co204 Co 0.45081 0.52122 0.32351 0.0
C205 C 0.41056 0.5032 0.25271 0.0
O206 O 0.44233 0.54546 0.24398 0.0
N207 N 0.50373 0.54265 0.29433 0.0
C208 C 0.55141 0.54774 0.2508 0.0
C209 C 0.51679 0.51805 0.27364 0.0
C210 C 0.53166 0.58697 0.28419 0.0
N211 N 0.56034 0.5912 0.25724 0.0
O212 O 0.4463 0.57451 0.31323 0.0
H213 H 0.49965 0.48069 0.2731 0.0
H214 H 0.52736 0.61518 0.2934 0.0
O215 O 0.41111 0.48759 0.28361 0.0
C216 C 0.46184 0.60045 0.3405 0.0
O217 O 0.48417 0.59056 0.36459 0.0
N218 N 0.45593 0.47038 0.33802 0.0
C219 C 0.45449 0.41808 0.39574 0.0
C220 C 0.41611 0.40124 0.37295 0.0
C221 C 0.41807 0.42756 0.34316 0.0
C222 C 0.49539 0.48395 0.35707 0.0
C223 C 0.49567 0.45773 0.38569 0.0
H224 H 0.38662 0.41745 0.32835 0.0
H225 H 0.52466 0.5184 0.35365 0.0
H226 H 0.35423 0.50667 0.31227 0.0
H227 H 0.32591 0.46374 0.41885 0.0
H228 H 0.56612 0.53762 0.22927 0.0
H229 H 0.38362 0.37091 0.38014 0.0
H230 H 0.5258 0.47213 0.40285 0.0
C231 C 0.80665 0.54919 0.95229 0.0
C232 C 0.81098 0.51125 0.96054 0.0
N233 N 0.80691 0.48795 0.93018 0.0
N234 N 0.80018 0.5497 0.91692 0.0
C235 C 0.8 0.51177 0.90435 0.0
H236 H 0.8073 0.57422 0.97091 0.0
Co237 Co 0.78952 0.59013 0.89006 0.0
C238 C 0.84759 0.60691 0.82577 0.0
O239 O 0.86064 0.65111 0.82713 0.0
N240 N 0.77707 0.62972 0.86171 0.0
C241 C 0.7662 0.68437 0.83654 0.0
C242 C 0.78827 0.67471 0.86358 0.0
C243 C 0.74902 0.6135 0.83302 0.0
N244 N 0.74121 0.64539 0.81778 0.0
O245 O 0.73099 0.53917 0.87737 0.0
H246 H 0.81039 0.69922 0.88333 0.0
H247 H 0.73413 0.57851 0.82316 0.0
O248 O 0.81945 0.57935 0.84917 0.0
C249 C 0.70159 0.53116 0.902 0.0
O250 O 0.71495 0.55793 0.93025 0.0
N251 N 0.84506 0.6391 0.90732 0.0
C252 C 0.91032 0.6836 0.96084 0.0
C253 C 0.91999 0.66277 0.93214 0.0
C254 C 0.88663 0.64023 0.9057 0.0
C255 C 0.83665 0.66201 0.93372 0.0
C256 C 0.86921 0.68535 0.9603 0.0
H257 H 0.89217 0.61902 0.88689 0.0
H258 H 0.80247 0.65793 0.93644 0.0
H259 H 0.79426 0.50135 0.87673 0.0
H260 H 0.81515 0.50083 0.98692 0.0
H261 H 0.76718 0.71685 0.83182 0.0
H262 H 0.95108 0.66007 0.93191 0.0
H263 H 0.86064 0.70145 0.98178 0.0
C264 C 0.35941 0.76061 0.39142 0.0
C265 C 0.36511 0.72266 0.39407 0.0
N266 N 0.39892 0.72869 0.37131 0.0
N267 N 0.38972 0.79034 0.36725 0.0
C268 C 0.41319 0.7697 0.35539 0.0
H269 H 0.33345 0.76528 0.4051 0.0
Co270 Co 0.39251 0.84446 0.35179 0.0
C271 C 0.47385 0.88581 0.30056 0.0
O272 O 0.48583 0.92917 0.30646 0.0
N273 N 0.39385 0.8984 0.33617 0.0
C274 C 0.3705 0.95018 0.33543 0.0
C275 C 0.38805 0.9286 0.35633 0.0
C276 C 0.38184 0.90396 0.30303 0.0
N277 N 0.36579 0.9339 0.30198 0.0
O278 O 0.34682 0.80851 0.31762 0.0
H279 H 0.38994 0.93015 0.38505 0.0
H280 H 0.37737 0.88071 0.28134 0.0
O281 O 0.44006 0.85346 0.31758 0.0
C282 C 0.30606 0.79774 0.32744 0.0
O283 O 0.30139 0.82697 0.34805 0.0
N284 N 0.43294 0.87589 0.38874 0.0
C285 C 0.47182 0.9008 0.45661 0.0
C286 C 0.50018 0.9135 0.42588 0.0
C287 C 0.47997 0.89949 0.39201 0.0
C288 C 0.40531 0.86475 0.41801 0.0
C289 C 0.42379 0.87451 0.45196 0.0
H290 H 0.502 0.90701 0.36901 0.0
H291 H 0.36809 0.84578 0.41486 0.0
H292 H 0.43986 0.78379 0.33513 0.0
H293 H 0.34475 0.69223 0.41028 0.0
H294 H 0.35645 0.97126 0.34507 0.0
H295 H 0.53753 0.93375 0.42787 0.0
H296 H 0.40007 0.86077 0.47421 0.0
C297 C 0.44889 0.31501 0.91854 0.0
C298 C 0.48515 0.358 0.92765 0.0
N299 N 0.51784 0.37178 0.90199 0.0
N300 N 0.45888 0.30211 0.88726 0.0
C301 C 0.50121 0.33697 0.87831 0.0
H302 H 0.4174 0.29473 0.93365 0.0
Co303 Co 0.42628 0.25002 0.85917 0.0
C304 C 0.42651 0.28953 0.78848 0.0
O305 O 0.38273 0.25822 0.78397 0.0
N306 N 0.39531 0.19759 0.82951 0.0
C307 C 0.35018 0.1306 0.8017 0.0
C308 C 0.35169 0.16103 0.82744 0.0
C309 C 0.41898 0.18868 0.80449 0.0
N310 N 0.3929 0.14822 0.78784 0.0
O311 O 0.48022 0.24416 0.85783 0.0
H312 H 0.32281 0.15568 0.84387 0.0
H313 H 0.4554 0.21124 0.79875 0.0
O314 O 0.44718 0.28968 0.81707 0.0
C315 C 0.4804 0.21723 0.88171 0.0
O316 O 0.44326 0.19426 0.90164 0.0
N317 N 0.37301 0.25494 0.8651 0.0
C318 C 0.31211 0.27284 0.90389 0.0
C319 C 0.33951 0.30287 0.87655 0.0
C320 C 0.37021 0.29357 0.85762 0.0
C321 C 0.34456 0.22411 0.89006 0.0
C322 C 0.31346 0.23204 0.90943 0.0
H323 H 0.39521 0.32021 0.84033 0.0
H324 H 0.3498 0.19589 0.89797 0.0
H325 H 0.5201 0.33595 0.8552 0.0
H326 H 0.48726 0.37754 0.95125 0.0
H327 H 0.3207 0.09743 0.79484 0.0
H328 H 0.34009 0.33521 0.87194 0.0
H329 H 0.29437 0.20883 0.93111 0.0
C330 C 0.16899 0.54113 0.39133 0.0
C331 C 0.20415 0.58663 0.39224 0.0
N332 N 0.18976 0.61211 0.37438 0.0
N333 N 0.13352 0.53825 0.37201 0.0
C334 C 0.14691 0.58231 0.36309 0.0
H335 H 0.17108 0.51176 0.40112 0.0
Co336 Co 0.08638 0.48593 0.35019 0.0
C337 C 0.0553 0.52757 0.29313 0.0
O338 O 0.0113 0.49756 0.29872 0.0
N339 N 0.04027 0.43295 0.32685 0.0
C340 C -0.00268 0.35833 0.31289 0.0
C341 C 0.01004 0.3906 0.33987 0.0
C342 C 0.04423 0.42547 0.29196 0.0
N343 N 0.01885 0.38063 0.28279 0.0
O344 O 0.13278 0.47829 0.3266 0.0
H345 H 0.00199 0.38246 0.36771 0.0
H346 H 0.07023 0.45142 0.27461 0.0
O347 O 0.08613 0.52484 0.31134 0.0
C348 C 0.1396 0.44897 0.34335 0.0
O349 O 0.10943 0.42361 0.36795 0.0
N350 N 0.04339 0.49278 0.37818 0.0
C351 C 0.02779 0.5227 0.44341 0.0
C352 C 0.02989 0.54633 0.41198 0.0
C353 C 0.03794 0.53085 0.37938 0.0
C354 C 0.03667 0.46711 0.40814 0.0
C355 C 0.02878 0.48139 0.44097 0.0
H356 H 0.0456 0.55306 0.35656 0.0
H357 H 0.04452 0.43938 0.40776 0.0
H358 H 0.12794 0.59246 0.3455 0.0
H359 H 0.23864 0.59948 0.40285 0.0
H360 H 0.97739 0.32112 0.3159 0.0
H361 H 0.02973 0.57869 0.41302 0.0
H362 H 0.02763 0.46246 0.46476 0.0
C363 C 0.6945 0.20027 0.95314 0.0
C364 C 0.65172 0.19744 0.95435 0.0
N365 N 0.64315 0.209 0.92203 0.0
N366 N 0.71201 0.21266 0.91999 0.0
C367 C 0.68002 0.21779 0.90179 0.0
H368 H 0.71184 0.19408 0.97498 0.0
Co369 Co 0.76881 0.22499 0.9017 0.0
C370 C 0.73999 0.17154 0.83405 0.0
O371 O 0.76472 0.15196 0.84154 0.0
N372 N 0.82776 0.23955 0.882 0.0
C373 C 0.89063 0.23983 0.86024 0.0
C374 C 0.84978 0.21474 0.87909 0.0
C375 C 0.85654 0.27959 0.8648 0.0
N376 N 0.89469 0.28076 0.85169 0.0
O377 O 0.77982 0.28516 0.89028 0.0
H378 H 0.83653 0.17982 0.88862 0.0
H379 H 0.84928 0.30724 0.86006 0.0
O380 O 0.73964 0.20126 0.85531 0.0
C381 C 0.79879 0.31199 0.9167 0.0
O382 O 0.80987 0.29574 0.94456 0.0
N383 N 0.75676 0.16667 0.91782 0.0
C384 C 0.72765 0.09053 0.9628 0.0
C385 C 0.70089 0.08841 0.93336 0.0
C386 C 0.71581 0.127 0.91135 0.0
C387 C 0.78374 0.16881 0.94585 0.0
C388 C 0.77022 0.13083 0.96837 0.0
H389 H 0.69213 0.12632 0.89146 0.0
H390 H 0.81432 0.2013 0.95231 0.0
H391 H 0.68379 0.22795 0.87409 0.0
H392 H 0.62916 0.18858 0.97732 0.0
H393 H 0.91487 0.22857 0.85284 0.0
H394 H 0.66737 0.0581 0.92867 0.0
H395 H 0.79118 0.13416 0.9914 0.0
C396 C 0.31603 0.33173 0.94685 0.0
C397 C 0.28978 0.28799 0.93094 0.0
C398 C 0.29881 0.34502 0.9758 0.0
C399 C 0.25459 0.3152 0.99009 0.0
H400 H 0.35092 0.35537 0.93768 0.0
H401 H 0.32046 0.37901 0.98717 0.0
S402 S 0.17112 0.19771 0.95721 0.0
N403 N 0.21656 0.2155 0.93071 0.0
N404 N 0.18429 0.24039 0.98551 0.0
C405 C 0.22742 0.27181 0.97392 0.0
C406 C 0.24504 0.25819 0.94437 0.0
C407 C 0.07211 0.56679 0.53608 0.0
C408 C 0.03411 0.5667 0.55276 0.0
C409 C 0.07065 0.55506 0.50007 0.0
C410 C 0.03149 0.54349 0.47904 0.0
H411 H 0.10214 0.57314 0.55154 0.0
H412 H 0.09959 0.55292 0.48897 0.0
S413 S 0.92572 0.5447 0.50746 0.0
N414 N 0.95795 0.55876 0.54369 0.0
N415 N 0.95615 0.53765 0.47584 0.0
C416 C 0.99507 0.54729 0.49417 0.0
C417 C 0.99623 0.55887 0.53103 0.0
C418 C 0.66469 0.03913 0.00489 0.0
C419 C 0.70846 0.0531 0.98981 0.0
C420 C 0.64506 0.00336 0.03005 0.0
C421 C 0.66829 0.97994 0.04079 0.0
H422 H 0.64535 0.05586 0.99701 0.0
H423 H 0.6107 0.99281 0.04017 0.0
S424 S 0.78444 0.00452 0.0104 0.0
N425 N 0.77519 0.04201 0.98836 0.0
N426 N 0.73801 0.97425 0.03546 0.0
C427 C 0.71251 0.99424 0.02652 0.0
C428 C 0.73272 0.03103 0.00115 0.0
C429 C 0.43007 0.42147 0.49256 0.0
C430 C 0.46509 0.41588 0.50835 0.0
C431 C 0.4219 0.41507 0.45577 0.0
C432 C 0.44945 0.40424 0.43367 0.0
H433 H 0.41134 0.43411 0.5082 0.0
H434 H 0.39721 0.42337 0.44415 0.0
S435 S 0.54107 0.37987 0.46336 0.0
N436 N 0.52327 0.39311 0.50029 0.0
N437 N 0.50915 0.38286 0.43099 0.0
C438 C 0.48161 0.39454 0.4498 0.0
C439 C 0.48927 0.40015 0.48723 0.0
C440 C 0.01715 0.73546 0.01969 0.0
C441 C -0.00127 0.71916 0.05394 0.0
C442 C 0.98837 0.72489 0.98988 0.0
C443 C 0.94 0.69779 0.99311 0.0
H444 H 0.05429 0.75531 0.01562 0.0
H445 H 0.00414 0.73749 0.96402 0.0
S446 S 0.87422 0.64703 0.07678 0.0
N447 N 0.92896 0.67559 0.0894 0.0
N448 N 0.87482 0.65455 0.0333 0.0
C449 C 0.92102 0.68181 0.02726 0.0
C450 C 0.95037 0.69268 0.05764 0.0
C451 C 0.53506 0.92068 0.50192 0.0
C452 C 0.49161 0.91575 0.49316 0.0
C453 C 0.55699 0.94073 0.53429 0.0
C454 C 0.53545 0.95482 0.55956 0.0
H455 H 0.55343 0.91121 0.48297 0.0
H456 H 0.59244 0.94871 0.53829 0.0
S457 S 0.42121 0.94721 0.55194 0.0
N458 N 0.42806 0.92668 0.51389 0.0
N459 N 0.46738 0.9591 0.5757 0.0
C460 C 0.49031 0.94572 0.55291 0.0
C461 C 0.46895 0.92779 0.51941 0.0
C462 C 0.18675 0.54938 0.11389 0.0
C463 C 0.15636 0.5097 0.09451 0.0
C464 C 0.1815 0.58851 0.11388 0.0
C465 C 0.14565 0.58919 0.09457 0.0
H466 H 0.21575 0.55089 0.1281 0.0
H467 H 0.2065 0.61892 0.12823 0.0
S468 S 0.05319 0.49188 0.04374 0.0
N469 N 0.08664 0.47189 0.05826 0.0
N470 N 0.07677 0.54546 0.05862 0.0
C471 C 0.11392 0.54909 0.0764 0.0
C472 C 0.11924 0.50929 0.07634 0.0
C473 C 0.79321 0.27098 0.67552 0.0
C474 C 0.78096 0.25704 0.63992 0.0
C475 C 0.8276 0.31632 0.68375 0.0
C476 C 0.85038 0.34869 0.65651 0.0
H477 H 0.77607 0.24655 0.69698 0.0
H478 H 0.83708 0.32576 0.71133 0.0
S479 S 0.82623 0.33121 0.55971 0.0
N480 N 0.79093 0.28041 0.57782 0.0
N481 N 0.85582 0.36528 0.59309 0.0
C482 C 0.83743 0.3355 0.621 0.0
C483 C 0.80262 0.28967 0.61271 0.0
C484 C 0.44277 0.62913 0.06439 0.0
C485 C 0.44242 0.66132 0.08846 0.0
C486 C 0.40211 0.58797 0.05603 0.0
C487 C 0.35935 0.57733 0.07128 0.0
H488 H 0.47475 0.63599 0.05155 0.0
H489 H 0.40421 0.56412 0.03762 0.0
S490 S 0.33892 0.65086 0.13457 0.0
N491 N 0.39531 0.68002 0.12702 0.0
N492 N 0.31875 0.60304 0.11081 0.0
C493 C 0.35841 0.60905 0.09555 0.0
C494 C 0.39996 0.6509 0.10428 0.0
C495 C 0.73511 0.49188 0.59937 0.0
C496 C 0.72475 0.51182 0.62834 0.0
C497 C 0.77437 0.48692 0.5995 0.0
C498 C 0.80526 0.50238 0.6284 0.0
H499 H 0.71219 0.47928 0.57658 0.0
H500 H 0.78017 0.47028 0.57693 0.0
S501 S 0.79444 0.55981 0.70995 0.0
N502 N 0.74792 0.54767 0.68639 0.0
N503 N 0.8235 0.54097 0.68623 0.0
C504 C 0.79541 0.52308 0.65748 0.0
C505 C 0.75467 0.52711 0.65756 0.0
C506 C 0.35165 0.79261 0.07348 0.0
C507 C 0.38349 0.80216 0.10114 0.0
C508 C 0.30657 0.78316 0.08052 0.0
C509 C 0.2912 0.78236 0.11553 0.0
H510 H 0.36147 0.79199 0.04609 0.0
H511 H 0.28344 0.77615 0.0582 0.0
S512 S 0.36112 0.80685 0.19762 0.0
N513 N 0.39691 0.81197 0.16512 0.0
N514 N 0.31124 0.7926 0.1783 0.0
C515 C 0.32227 0.79133 0.14363 0.0
C516 C 0.36865 0.80164 0.13644 0.0
C517 C 0.58424 0.30232 0.6331 0.0
C518 C 0.61099 0.33474 0.60669 0.0
C519 C 0.589 0.26355 0.63968 0.0
C520 C 0.62065 0.25631 0.61996 0.0
H521 H 0.55814 0.306 0.64763 0.0
H522 H 0.56603 0.23789 0.65874 0.0
S523 S 0.70517 0.33574 0.55332 0.0
N524 N 0.67489 0.36066 0.56477 0.0
N525 N 0.68335 0.28735 0.57665 0.0
C526 C 0.64975 0.29005 0.59532 0.0
C527 C 0.64503 0.32945 0.58874 0.0
C528 C 0.42203 0.68789 0.32859 0.0
C529 C 0.41516 0.69708 0.36395 0.0
C530 C 0.43748 0.65669 0.32099 0.0
C531 C 0.4475 0.63465 0.34858 0.0
H532 H 0.41458 0.70435 0.30674 0.0
H533 H 0.44173 0.6499 0.29343 0.0
S534 S 0.43549 0.64783 0.44563 0.0
N535 N 0.41965 0.68233 0.42657 0.0
N536 N 0.44904 0.62398 0.41269 0.0
C537 C 0.44114 0.64403 0.38407 0.0
C538 C 0.42479 0.67516 0.39166 0.0
C539 C 0.63112 0.47086 0.93291 0.0
C540 C 0.65429 0.49096 0.90079 0.0
C541 C 0.58635 0.4325 0.93308 0.0
C542 C 0.56277 0.41304 0.90114 0.0
H543 H 0.64805 0.48428 0.95823 0.0
H544 H 0.57054 0.41733 0.95842 0.0
S545 S 0.60635 0.45639 0.80988 0.0
N546 N 0.64967 0.49044 0.83627 0.0
N547 N 0.56455 0.4196 0.83643 0.0
C548 C 0.58502 0.43385 0.86876 0.0
C549 C 0.63103 0.47247 0.86863 0.0
C550 C 0.25924 0.6707 0.3431 0.0
C551 C 0.21729 0.65795 0.36058 0.0
C552 C 0.28556 0.7148 0.32819 0.0
C553 C 0.27149 0.74811 0.33149 0.0
H554 H 0.27179 0.64644 0.34111 0.0
H555 H 0.31863 0.72369 0.31628 0.0
S556 S 0.15971 0.72793 0.36902 0.0
N557 N 0.15926 0.67879 0.37571 0.0
N558 N 0.20923 0.76245 0.34867 0.0
C559 C 0.22762 0.73419 0.34631 0.0
C560 C 0.20057 0.68904 0.3609 0.0
C561 C 0.55874 0.17754 0.92239 0.0
C562 C 0.60306 0.21142 0.91106 0.0
C563 C 0.51923 0.17906 0.91183 0.0
C564 C 0.52256 0.21464 0.88962 0.0
H565 H 0.55463 0.14948 0.93935 0.0
H566 H 0.4858 0.15223 0.92142 0.0
S567 S 0.63129 0.31323 0.85426 0.0
N568 N 0.64845 0.28254 0.87755 0.0
N569 N 0.57421 0.28527 0.85733 0.0
C570 C 0.5668 0.24871 0.87797 0.0
C571 C 0.60705 0.24717 0.88882 0.0
C572 C 0.26998 0.50293 0.33789 0.0
C573 C 0.27799 0.4718 0.35767 0.0
C574 C 0.22486 0.49402 0.33126 0.0
C575 C 0.18612 0.45341 0.34399 0.0
H576 H 0.29893 0.53501 0.3283 0.0
H577 H 0.2205 0.52007 0.3174 0.0
S578 S 0.18897 0.35792 0.39272 0.0
N579 N 0.24405 0.39708 0.38683 0.0
N580 N 0.15902 0.37969 0.3743 0.0
C581 C 0.19384 0.42092 0.36222 0.0
C582 C 0.23981 0.43032 0.3692 0.0
C583 C 0.7761 0.36959 0.89716 0.0
C584 C 0.80445 0.35882 0.91801 0.0
C585 C 0.77736 0.41199 0.90108 0.0
C586 C 0.80712 0.44517 0.92589 0.0
H587 H 0.75166 0.34454 0.87855 0.0
H588 H 0.75395 0.41832 0.88526 0.0
S589 S 0.89273 0.43632 0.9833 0.0
N590 N 0.86605 0.3864 0.96207 0.0
N591 N 0.86868 0.46621 0.96896 0.0
C592 C 0.83696 0.43559 0.94578 0.0
C593 C 0.83562 0.39242 0.9419 0.0
C594 C 0.04906 0.33443 0.2543 0.0
C595 C 0.02748 0.36132 0.25143 0.0
C596 C 0.0681 0.32485 0.22424 0.0
C597 C 0.06598 0.34167 0.19025 0.0
H598 H 0.0542 0.32367 0.28028 0.0
H599 H 0.08734 0.30696 0.22817 0.0
S600 S 0.00606 0.40719 0.16839 0.0
N601 N 0.00085 0.40056 0.21205 0.0
N602 N 0.03433 0.38082 0.15522 0.0
C603 C 0.04089 0.36523 0.18686 0.0
C604 C 0.02233 0.37558 0.21753 0.0
C605 C 0.94737 0.36352 0.84017 0.0
C606 C 0.92874 0.31714 0.82958 0.0
C607 C 0.97226 0.40003 0.8162 0.0
C608 C 0.9786 0.3913 0.78062 0.0
H609 H 0.94039 0.37137 0.86667 0.0
H610 H 0.98331 0.435 0.82477 0.0
S611 S 0.94001 0.2763 0.74048 0.0
N612 N 0.9213 0.26467 0.78205 0.0
N613 N 0.96764 0.33326 0.7368 0.0
C614 C 0.9627 0.34524 0.77039 0.0
C615 C 0.93788 0.30813 0.79492 0.0
C616 C 0.5913 0.66022 0.17268 0.0
C617 C 0.60402 0.70456 0.1853 0.0
C618 C 0.58031 0.62368 0.19638 0.0
C619 C 0.58219 0.6305 0.23352 0.0
H620 H 0.58714 0.65323 0.14437 0.0
H621 H 0.56736 0.58942 0.18546 0.0
S622 S 0.62169 0.74282 0.2791 0.0
N623 N 0.62262 0.75491 0.23636 0.0
N624 N 0.60461 0.68709 0.28125 0.0
C625 C 0.59875 0.67588 0.24614 0.0
C626 C 0.60886 0.71268 0.22196 0.0
C627 C 0.63576 0.58182 0.76117 0.0
C628 C 0.6493 0.60674 0.72905 0.0
C629 C 0.66498 0.5964 0.7908 0.0
C630 C 0.70888 0.63644 0.78945 0.0
H631 H 0.60321 0.54953 0.76275 0.0
H632 H 0.65403 0.57522 0.81459 0.0
S633 S 0.76009 0.71521 0.71242 0.0
N634 N 0.70887 0.6746 0.69812 0.0
N635 N 0.76375 0.7021 0.75426 0.0
C636 C 0.72188 0.66323 0.7583 0.0
C637 C 0.69207 0.64834 0.72794 0.0
C638 C 0.28574 0.91426 0.28856 0.0
C639 C 0.33125 0.92919 0.2768 0.0
C640 C 0.24836 0.89482 0.26479 0.0
C641 C 0.25531 0.88973 0.2285 0.0
H642 H 0.27841 0.91357 0.31671 0.0
H643 H 0.21362 0.8801 0.27546 0.0
S644 S 0.36888 0.93227 0.18362 0.0
N645 N 0.3819 0.9436 0.2262 0.0
N646 N 0.31201 0.90868 0.18113 0.0
C647 C 0.30118 0.90918 0.21596 0.0
C648 C 0.33906 0.92848 0.24022 0.0
C649 C 0.4145 0.10137 0.70365 0.0
C650 C 0.45521 0.10037 0.71209 0.0
C651 C 0.39228 0.11452 0.72918 0.0
C652 C 0.41025 0.12703 0.76374 0.0
H653 H 0.40118 0.09428 0.67674 0.0
H654 H 0.36247 0.11731 0.72143 0.0
S655 S 0.51105 0.12284 0.80086 0.0
N656 N 0.50871 0.10725 0.75885 0.0
N657 N 0.46755 0.13275 0.80628 0.0
C658 C 0.44903 0.12333 0.77305 0.0
C659 C 0.47138 0.10979 0.74735 0.0
C660 C 0.32543 0.44965 0.24449 0.0
C661 C 0.36959 0.47798 0.22948 0.0
C662 C 0.28516 0.4331 0.22386 0.0
C663 C 0.28762 0.44294 0.18723 0.0
H664 H 0.32161 0.44202 0.2727 0.0
H665 H 0.25184 0.41318 0.2369 0.0
S666 S 0.39562 0.5095 0.13417 0.0
N667 N 0.41377 0.51151 0.17533 0.0
N668 N 0.33858 0.47849 0.13616 0.0
C669 C 0.33186 0.46817 0.17143 0.0
C670 C 0.37271 0.48612 0.19264 0.0
C671 C 0.91466 0.62248 0.78651 0.0
C672 C 0.87099 0.59065 0.80066 0.0
C673 C 0.93908 0.60809 0.76443 0.0
C674 C 0.92068 0.56128 0.75512 0.0
H675 H 0.93071 0.65887 0.79304 0.0
H676 H 0.97263 0.63411 0.75443 0.0
S677 S 0.80647 0.46417 0.78387 0.0
N678 N 0.80962 0.51022 0.80296 0.0
N679 N 0.85528 0.48309 0.76132 0.0
C680 C 0.87661 0.52908 0.76862 0.0
C681 C 0.85189 0.54375 0.79142 0.0
C682 C 0.49207 0.81915 0.22615 0.0
C683 C 0.53829 0.84866 0.21562 0.0
C684 C 0.47205 0.83103 0.25417 0.0
C685 C 0.49703 0.87351 0.27223 0.0
H686 H 0.47108 0.78654 0.21258 0.0
H687 H 0.43626 0.80717 0.26113 0.0
S688 S 0.61917 0.96319 0.25497 0.0
N689 N 0.60874 0.92207 0.22584 0.0
N690 N 0.57066 0.94488 0.27781 0.0
C691 C 0.54328 0.90333 0.26203 0.0
C692 C 0.56403 0.89077 0.23397 0.0
C693 C 0.49932 0.349 0.75824 0.0
C694 C 0.45082 0.32717 0.76206 0.0
C695 C 0.52304 0.38493 0.7335 0.0
C696 C 0.49925 0.40122 0.71249 0.0
H697 H 0.51907 0.3379 0.77421 0.0
H698 H 0.5603 0.40049 0.73116 0.0
S699 S 0.37237 0.35628 0.7126 0.0
N700 N 0.37995 0.32454 0.74263 0.0
N701 N 0.42451 0.39262 0.69694 0.0
C702 C 0.45086 0.37999 0.71629 0.0
C703 C 0.42664 0.34281 0.74085 0.0
C704 C 0.04745 0.6203 0.23943 0.0
C705 C 0.09347 0.6501 0.22857 0.0
C706 C 0.03535 0.58027 0.25945 0.0
C707 C 0.06888 0.5687 0.26997 0.0
H708 H 0.02028 0.62749 0.2319 0.0
H709 H -0.00059 0.55862 0.26713 0.0
S710 S 0.19485 0.63643 0.24941 0.0
N711 N 0.17297 0.66582 0.23022 0.0
N712 N 0.15061 0.59119 0.26828 0.0
C713 C 0.11523 0.59856 0.25953 0.0
C714 C 0.1274 0.63902 0.23873 0.0
C715 C 0.70103 0.18334 0.78151 0.0
C716 C 0.70626 0.15312 0.80455 0.0
C717 C 0.66952 0.16622 0.75311 0.0
C718 C 0.64106 0.11829 0.74751 0.0
H719 H 0.72206 0.22042 0.78504 0.0
H720 H 0.66714 0.19073 0.73557 0.0
S721 S 0.63961 0.02487 0.80186 0.0
N722 N 0.67969 0.07312 0.82061 0.0
N723 N 0.61928 0.04104 0.76806 0.0
C724 C 0.64506 0.08779 0.77103 0.0
C725 C 0.67802 0.1052 0.79932 0.0
loop_
_geom_bond_atom_site_label_1
_geom_bond_atom_site_label_2
_geom_bond_distance
_geom_bond_site_symmetry_2
_ccdc_geom_bond_type
C0 C1 1.351 . S
C0 N3 1.368 . S
C0 H5 0.931 . S
C1 C0 1.351 . S
C1 N2 1.373 . S
C1 H29 0.930 . S
N2 C1 1.373 . S
N2 C4 1.340 . S
N3 C0 1.368 . S
N3 C4 1.321 . S
N3 Co6 2.135 . S
C4 N2 1.340 . S
C4 N3 1.321 . S
C4 H28 0.930 . S
H5 C0 0.931 . S
Co6 N3 2.135 . S
Co6 N9 2.121 . S
Co6 O14 2.055 . S
Co6 O17 2.039 . S
Co6 N20 2.140 . S
C7 O8 1.227 . S
C7 O17 1.265 . S
O8 C7 1.227 . S
N9 Co6 2.121 . S
N9 C11 1.375 . S
N9 C12 1.313 . S
C10 C11 1.338 . S
C10 N13 1.377 . S
C10 H30 0.930 . S
C11 N9 1.375 . S
C11 C10 1.338 . S
C11 H15 0.931 . S
C12 N9 1.313 . S
C12 N13 1.344 . S
C12 H16 0.930 . S
N13 C10 1.377 . S
N13 C12 1.344 . S
O14 Co6 2.055 . S
O14 C18 1.253 . S
H15 C11 0.931 . S
H16 C12 0.930 . S
O17 Co6 2.039 . S
O17 C7 1.265 . S
C18 O14 1.253 . S
C18 O19 1.227 . S
O19 C18 1.227 . S
N20 Co6 2.140 . S
N20 C23 1.346 . S
N20 C24 1.345 . S
C21 C22 1.387 . S
C21 C25 1.391 . S
C22 C21 1.387 . S
C22 C23 1.369 . S
C22 H31 0.929 . S
C23 N20 1.346 . S
C23 C22 1.369 . S
C23 H26 0.928 . S
C24 N20 1.345 . S
C24 C25 1.371 . S
C24 H27 0.931 . S
C25 C21 1.391 . S
C25 C24 1.371 . S
C25 H32 0.930 . S
H26 C23 0.928 . S
H27 C24 0.931 . S
H28 C4 0.930 . S
H29 C1 0.930 . S
H30 C10 0.930 . S
H31 C22 0.929 . S
H32 C25 0.930 . S
C33 C34 1.351 . S
C33 N36 1.368 . S
C33 H38 0.931 . S
C34 C33 1.351 . S
C34 N35 1.373 . S
C34 H62 0.930 . S
N35 C34 1.373 . S
N35 C37 1.340 . S
N36 C33 1.368 . S
N36 C37 1.321 . S
N36 Co39 2.135 . S
C37 N35 1.340 . S
C37 N36 1.321 . S
C37 H61 0.930 . S
H38 C33 0.931 . S
Co39 N36 2.135 . S
Co39 N42 2.121 . S
Co39 O47 2.055 . S
Co39 O50 2.039 . S
Co39 N53 2.140 . S
C40 O41 1.227 . S
C40 O50 1.265 . S
O41 C40 1.227 . S
N42 Co39 2.121 . S
N42 C44 1.375 . S
N42 C45 1.313 . S
C43 C44 1.338 . S
C43 N46 1.377 . S
C43 H63 0.930 . S
C44 N42 1.375 . S
C44 C43 1.338 . S
C44 H48 0.931 . S
C45 N42 1.313 . S
C45 N46 1.344 . S
C45 H49 0.930 . S
N46 C43 1.377 . S
N46 C45 1.344 . S
O47 Co39 2.055 . S
O47 C51 1.253 . S
H48 C44 0.931 . S
H49 C45 0.930 . S
O50 Co39 2.039 . S
O50 C40 1.265 . S
C51 O47 1.253 . S
C51 O52 1.227 . S
O52 C51 1.227 . S
N53 Co39 2.140 . S
N53 C56 1.346 . S
N53 C57 1.345 . S
C54 C55 1.387 . S
C54 C58 1.391 . S
C55 C54 1.387 . S
C55 C56 1.369 . S
C55 H64 0.929 . S
C56 N53 1.346 . S
C56 C55 1.369 . S
C56 H59 0.928 . S
C57 N53 1.345 . S
C57 C58 1.371 . S
C57 H60 0.931 . S
C58 C54 1.391 . S
C58 C57 1.371 . S
C58 H65 0.930 . S
H59 C56 0.928 . S
H60 C57 0.931 . S
H61 C37 0.930 . S
H62 C34 0.930 . S
H63 C43 0.930 . S
H64 C55 0.929 . S
H65 C58 0.930 . S
C66 C67 1.351 . S
C66 N69 1.368 . S
C66 H71 0.931 . S
C67 C66 1.351 . S
C67 N68 1.373 . S
C67 H95 0.930 . S
N68 C67 1.373 . S
N68 C70 1.340 . S
N69 C66 1.368 . S
N69 C70 1.321 . S
N69 Co72 2.135 . S
C70 N68 1.340 . S
C70 N69 1.321 . S
C70 H94 0.930 . S
H71 C66 0.931 . S
Co72 N69 2.135 . S
Co72 N75 2.121 . S
Co72 O80 2.055 . S
Co72 O83 2.039 . S
Co72 N86 2.140 . S
C73 O74 1.227 . S
C73 O83 1.265 . S
O74 C73 1.227 . S
N75 Co72 2.121 . S
N75 C77 1.375 . S
N75 C78 1.313 . S
C76 C77 1.338 . S
C76 N79 1.377 . S
C76 H96 0.930 . S
C77 N75 1.375 . S
C77 C76 1.338 . S
C77 H81 0.931 . S
C78 N75 1.313 . S
C78 N79 1.344 . S
C78 H82 0.930 . S
N79 C76 1.377 . S
N79 C78 1.344 . S
O80 Co72 2.055 . S
O80 C84 1.253 . S
H81 C77 0.931 . S
H82 C78 0.930 . S
O83 Co72 2.039 . S
O83 C73 1.265 . S
C84 O80 1.253 . S
C84 O85 1.227 . S
O85 C84 1.227 . S
N86 Co72 2.140 . S
N86 C89 1.346 . S
N86 C90 1.345 . S
C87 C88 1.387 . S
C87 C91 1.391 . S
C88 C87 1.387 . S
C88 C89 1.369 . S
C88 H97 0.929 . S
C89 N86 1.346 . S
C89 C88 1.369 . S
C89 H92 0.928 . S
C90 N86 1.345 . S
C90 C91 1.371 . S
C90 H93 0.931 . S
C91 C87 1.391 . S
C91 C90 1.371 . S
C91 H98 0.930 . S
H92 C89 0.928 . S
H93 C90 0.931 . S
H94 C70 0.930 . S
H95 C67 0.930 . S
H96 C76 0.930 . S
H97 C88 0.929 . S
H98 C91 0.930 . S
C99 C100 1.351 . S
C99 N102 1.368 . S
C99 H104 0.931 . S
C100 C99 1.351 . S
C100 N101 1.373 . S
C100 H128 0.930 . S
N101 C100 1.373 . S
N101 C103 1.340 . S
N102 C99 1.368 . S
N102 C103 1.321 . S
N102 Co105 2.135 . S
C103 N101 1.340 . S
C103 N102 1.321 . S
C103 H127 0.930 . S
H104 C99 0.931 . S
Co105 N102 2.135 . S
Co105 N108 2.121 . S
Co105 O113 2.055 . S
Co105 O116 2.039 . S
Co105 N119 2.140 . S
C106 O107 1.227 . S
C106 O116 1.265 . S
O107 C106 1.227 . S
N108 Co105 2.121 . S
N108 C110 1.375 . S
N108 C111 1.313 . S
C109 C110 1.338 . S
C109 N112 1.377 . S
C109 H129 0.930 . S
C110 N108 1.375 . S
C110 C109 1.338 . S
C110 H114 0.931 . S
C111 N108 1.313 . S
C111 N112 1.344 . S
C111 H115 0.930 . S
N112 C109 1.377 . S
N112 C111 1.344 . S
O113 Co105 2.055 . S
O113 C117 1.253 . S
H114 C110 0.931 . S
H115 C111 0.930 . S
O116 Co105 2.039 . S
O116 C106 1.265 . S
C117 O113 1.253 . S
C117 O118 1.227 . S
O118 C117 1.227 . S
N119 Co105 2.140 . S
N119 C122 1.346 . S
N119 C123 1.345 . S
C120 C121 1.387 . S
C120 C124 1.391 . S
C121 C120 1.387 . S
C121 C122 1.369 . S
C121 H130 0.929 . S
C122 N119 1.346 . S
C122 C121 1.369 . S
C122 H125 0.928 . S
C123 N119 1.345 . S
C123 C124 1.371 . S
C123 H126 0.931 . S
C124 C120 1.391 . S
C124 C123 1.371 . S
C124 H131 0.930 . S
H125 C122 0.928 . S
H126 C123 0.931 . S
H127 C103 0.930 . S
H128 C100 0.930 . S
H129 C109 0.930 . S
H130 C121 0.929 . S
H131 C124 0.930 . S
C132 C133 1.351 . S
C132 N135 1.368 . S
C132 H137 0.931 . S
C133 C132 1.351 . S
C133 N134 1.373 . S
C133 H161 0.930 . S
N134 C133 1.373 . S
N134 C136 1.340 . S
N135 C132 1.368 . S
N135 C136 1.321 . S
N135 Co138 2.135 . S
C136 N134 1.340 . S
C136 N135 1.321 . S
C136 H160 0.930 . S
H137 C132 0.931 . S
Co138 N135 2.135 . S
Co138 N141 2.121 . S
Co138 O146 2.055 . S
Co138 O149 2.039 . S
Co138 N152 2.140 . S
C139 O140 1.227 . S
C139 O149 1.265 . S
O140 C139 1.227 . S
N141 Co138 2.121 . S
N141 C143 1.375 . S
N141 C144 1.313 . S
C142 C143 1.338 . S
C142 N145 1.377 . S
C142 H162 0.930 . S
C143 N141 1.375 . S
C143 C142 1.338 . S
C143 H147 0.931 . S
C144 N141 1.313 . S
C144 N145 1.344 . S
C144 H148 0.930 . S
N145 C142 1.377 . S
N145 C144 1.344 . S
O146 Co138 2.055 . S
O146 C150 1.253 . S
H147 C143 0.931 . S
H148 C144 0.930 . S
O149 Co138 2.039 . S
O149 C139 1.265 . S
C150 O146 1.253 . S
C150 O151 1.227 . S
O151 C150 1.227 . S
N152 Co138 2.140 . S
N152 C155 1.346 . S
N152 C156 1.345 . S
C153 C154 1.387 . S
C153 C157 1.391 . S
C154 C153 1.387 . S
C154 C155 1.369 . S
C154 H163 0.929 . S
C155 N152 1.346 . S
C155 C154 1.369 . S
C155 H158 0.928 . S
C156 N152 1.345 . S
C156 C157 1.371 . S
C156 H159 0.931 . S
C157 C153 1.391 . S
C157 C156 1.371 . S
C157 H164 0.930 . S
H158 C155 0.928 . S
H159 C156 0.931 . S
H160 C136 0.930 . S
H161 C133 0.930 . S
H162 C142 0.930 . S
H163 C154 0.929 . S
H164 C157 0.930 . S
C165 C166 1.351 . S
C165 N168 1.368 . S
C165 H170 0.931 . S
C166 C165 1.351 . S
C166 N167 1.373 . S
C166 H194 0.930 . S
N167 C166 1.373 . S
N167 C169 1.340 . S
N168 C165 1.368 . S
N168 C169 1.321 . S
N168 Co171 2.135 . S
C169 N167 1.340 . S
C169 N168 1.321 . S
C169 H193 0.930 . S
H170 C165 0.931 . S
Co171 N168 2.135 . S
Co171 N174 2.121 . S
Co171 O179 2.055 . S
Co171 O182 2.039 . S
Co171 N185 2.140 . S
C172 O173 1.227 . S
C172 O182 1.265 . S
O173 C172 1.227 . S
N174 Co171 2.121 . S
N174 C176 1.375 . S
N174 C177 1.313 . S
C175 C176 1.338 . S
C175 N178 1.377 . S
C175 H195 0.930 . S
C176 N174 1.375 . S
C176 C175 1.338 . S
C176 H180 0.931 . S
C177 N174 1.313 . S
C177 N178 1.344 . S
C177 H181 0.930 . S
N178 C175 1.377 . S
N178 C177 1.344 . S
O179 Co171 2.055 . S
O179 C183 1.253 . S
H180 C176 0.931 . S
H181 C177 0.930 . S
O182 Co171 2.039 . S
O182 C172 1.265 . S
C183 O179 1.253 . S
C183 O184 1.227 . S
O184 C183 1.227 . S
N185 Co171 2.140 . S
N185 C188 1.346 . S
N185 C189 1.345 . S
C186 C187 1.387 . S
C186 C190 1.391 . S
C187 C186 1.387 . S
C187 C188 1.369 . S
C187 H196 0.929 . S
C188 N185 1.346 . S
C188 C187 1.369 . S
C188 H191 0.928 . S
C189 N185 1.345 . S
C189 C190 1.371 . S
C189 H192 0.931 . S
C190 C186 1.391 . S
C190 C189 1.371 . S
C190 H197 0.930 . S
H191 C188 0.928 . S
H192 C189 0.931 . S
H193 C169 0.930 . S
H194 C166 0.930 . S
H195 C175 0.930 . S
H196 C187 0.929 . S
H197 C190 0.930 . S
C198 C199 1.351 . S
C198 N201 1.368 . S
C198 H203 0.931 . S
C199 C198 1.351 . S
C199 N200 1.373 . S
C199 H227 0.930 . S
N200 C199 1.373 . S
N200 C202 1.340 . S
N201 C198 1.368 . S
N201 C202 1.321 . S
N201 Co204 2.135 . S
C202 N200 1.340 . S
C202 N201 1.321 . S
C202 H226 0.930 . S
H203 C198 0.931 . S
Co204 N201 2.135 . S
Co204 N207 2.121 . S
Co204 O212 2.055 . S
Co204 O215 2.039 . S
Co204 N218 2.140 . S
C205 O206 1.227 . S
C205 O215 1.265 . S
O206 C205 1.227 . S
N207 Co204 2.121 . S
N207 C209 1.375 . S
N207 C210 1.313 . S
C208 C209 1.338 . S
C208 N211 1.377 . S
C208 H228 0.930 . S
C209 N207 1.375 . S
C209 C208 1.338 . S
C209 H213 0.931 . S
C210 N207 1.313 . S
C210 N211 1.344 . S
C210 H214 0.930 . S
N211 C208 1.377 . S
N211 C210 1.344 . S
O212 Co204 2.055 . S
O212 C216 1.253 . S
H213 C209 0.931 . S
H214 C210 0.930 . S
O215 Co204 2.039 . S
O215 C205 1.265 . S
C216 O212 1.253 . S
C216 O217 1.227 . S
O217 C216 1.227 . S
N218 Co204 2.140 . S
N218 C221 1.346 . S
N218 C222 1.345 . S
C219 C220 1.387 . S
C219 C223 1.391 . S
C220 C219 1.387 . S
C220 C221 1.369 . S
C220 H229 0.929 . S
C221 N218 1.346 . S
C221 C220 1.369 . S
C221 H224 0.928 . S
C222 N218 1.345 . S
C222 C223 1.371 . S
C222 H225 0.931 . S
C223 C219 1.391 . S
C223 C222 1.371 . S
C223 H230 0.930 . S
H224 C221 0.928 . S
H225 C222 0.931 . S
H226 C202 0.930 . S
H227 C199 0.930 . S
H228 C208 0.930 . S
H229 C220 0.929 . S
H230 C223 0.930 . S
C231 C232 1.351 . S
C231 N234 1.368 . S
C231 H236 0.931 . S
C232 C231 1.351 . S
C232 N233 1.373 . S
C232 H260 0.930 . S
N233 C232 1.373 . S
N233 C235 1.340 . S
N234 C231 1.368 . S
N234 C235 1.321 . S
N234 Co237 2.135 . S
C235 N233 1.340 . S
C235 N234 1.321 . S
C235 H259 0.930 . S
H236 C231 0.931 . S
Co237 N234 2.135 . S
Co237 N240 2.121 . S
Co237 O245 2.055 . S
Co237 O248 2.039 . S
Co237 N251 2.140 . S
C238 O239 1.227 . S
C238 O248 1.265 . S
O239 C238 1.227 . S
N240 Co237 2.121 . S
N240 C242 1.375 . S
N240 C243 1.313 . S
C241 C242 1.338 . S
C241 N244 1.377 . S
C241 H261 0.930 . S
C242 N240 1.375 . S
C242 C241 1.338 . S
C242 H246 0.931 . S
C243 N240 1.313 . S
C243 N244 1.344 . S
C243 H247 0.930 . S
N244 C241 1.377 . S
N244 C243 1.344 . S
O245 Co237 2.055 . S
O245 C249 1.253 . S
H246 C242 0.931 . S
H247 C243 0.930 . S
O248 Co237 2.039 . S
O248 C238 1.265 . S
C249 O245 1.253 . S
C249 O250 1.227 . S
O250 C249 1.227 . S
N251 Co237 2.140 . S
N251 C254 1.346 . S
N251 C255 1.345 . S
C252 C253 1.387 . S
C252 C256 1.391 . S
C253 C252 1.387 . S
C253 C254 1.369 . S
C253 H262 0.929 . S
C254 N251 1.346 . S
C254 C253 1.369 . S
C254 H257 0.928 . S
C255 N251 1.345 . S
C255 C256 1.371 . S
C255 H258 0.931 . S
C256 C252 1.391 . S
C256 C255 1.371 . S
C256 H263 0.930 . S
H257 C254 0.928 . S
H258 C255 0.931 . S
H259 C235 0.930 . S
H260 C232 0.930 . S
H261 C241 0.930 . S
H262 C253 0.929 . S
H263 C256 0.930 . S
C264 C265 1.351 . S
C264 N267 1.368 . S
C264 H269 0.931 . S
C265 C264 1.351 . S
C265 N266 1.373 . S
C265 H293 0.930 . S
N266 C265 1.373 . S
N266 C268 1.340 . S
N267 C264 1.368 . S
N267 C268 1.321 . S
N267 Co270 2.135 . S
C268 N266 1.340 . S
C268 N267 1.321 . S
C268 H292 0.930 . S
H269 C264 0.931 . S
Co270 N267 2.135 . S
Co270 N273 2.121 . S
Co270 O278 2.055 . S
Co270 O281 2.039 . S
Co270 N284 2.140 . S
C271 O272 1.227 . S
C271 O281 1.265 . S
O272 C271 1.227 . S
N273 Co270 2.121 . S
N273 C275 1.375 . S
N273 C276 1.313 . S
C274 C275 1.338 . S
C274 N277 1.377 . S
C274 H294 0.930 . S
C275 N273 1.375 . S
C275 C274 1.338 . S
C275 H279 0.931 . S
C276 N273 1.313 . S
C276 N277 1.344 . S
C276 H280 0.930 . S
N277 C274 1.377 . S
N277 C276 1.344 . S
O278 Co270 2.055 . S
O278 C282 1.253 . S
H279 C275 0.931 . S
H280 C276 0.930 . S
O281 Co270 2.039 . S
O281 C271 1.265 . S
C282 O278 1.253 . S
C282 O283 1.227 . S
O283 C282 1.227 . S
N284 Co270 2.140 . S
N284 C287 1.346 . S
N284 C288 1.345 . S
C285 C286 1.387 . S
C285 C289 1.391 . S
C286 C285 1.387 . S
C286 C287 1.369 . S
C286 H295 0.929 . S
C287 N284 1.346 . S
C287 C286 1.369 . S
C287 H290 0.928 . S
C288 N284 1.345 . S
C288 C289 1.371 . S
C288 H291 0.931 . S
C289 C285 1.391 . S
C289 C288 1.371 . S
C289 H296 0.930 . S
H290 C287 0.928 . S
H291 C288 0.931 . S
H292 C268 0.930 . S
H293 C265 0.930 . S
H294 C274 0.930 . S
H295 C286 0.929 . S
H296 C289 0.930 . S
C297 C298 1.351 . S
C297 N300 1.368 . S
C297 H302 0.931 . S
C298 C297 1.351 . S
C298 N299 1.373 . S
C298 H326 0.930 . S
N299 C298 1.373 . S
N299 C301 1.340 . S
N300 C297 1.368 . S
N300 C301 1.321 . S
N300 Co303 2.135 . S
C301 N299 1.340 . S
C301 N300 1.321 . S
C301 H325 0.930 . S
H302 C297 0.931 . S
Co303 N300 2.135 . S
Co303 N306 2.121 . S
Co303 O311 2.055 . S
Co303 O314 2.039 . S
Co303 N317 2.140 . S
C304 O305 1.227 . S
C304 O314 1.265 . S
O305 C304 1.227 . S
N306 Co303 2.121 . S
N306 C308 1.375 . S
N306 C309 1.313 . S
C307 C308 1.338 . S
C307 N310 1.377 . S
C307 H327 0.930 . S
C308 N306 1.375 . S
C308 C307 1.338 . S
C308 H312 0.931 . S
C309 N306 1.313 . S
C309 N310 1.344 . S
C309 H313 0.930 . S
N310 C307 1.377 . S
N310 C309 1.344 . S
O311 Co303 2.055 . S
O311 C315 1.253 . S
H312 C308 0.931 . S
H313 C309 0.930 . S
O314 Co303 2.039 . S
O314 C304 1.265 . S
C315 O311 1.253 . S
C315 O316 1.227 . S
O316 C315 1.227 . S
N317 Co303 2.140 . S
N317 C320 1.346 . S
N317 C321 1.345 . S
C318 C319 1.387 . S
C318 C322 1.391 . S
C319 C318 1.387 . S
C319 C320 1.369 . S
C319 H328 0.929 . S
C320 N317 1.346 . S
C320 C319 1.369 . S
C320 H323 0.928 . S
C321 N317 1.345 . S
C321 C322 1.371 . S
C321 H324 0.931 . S
C322 C318 1.391 . S
C322 C321 1.371 . S
C322 H329 0.930 . S
H323 C320 0.928 . S
H324 C321 0.931 . S
H325 C301 0.930 . S
H326 C298 0.930 . S
H327 C307 0.930 . S
H328 C319 0.929 . S
H329 C322 0.930 . S
C330 C331 1.351 . S
C330 N333 1.368 . S
C330 H335 0.931 . S
C331 C330 1.351 . S
C331 N332 1.373 . S
C331 H359 0.930 . S
N332 C331 1.373 . S
N332 C334 1.340 . S
N333 C330 1.368 . S
N333 C334 1.321 . S
N333 Co336 2.135 . S
C334 N332 1.340 . S
C334 N333 1.321 . S
C334 H358 0.930 . S
H335 C330 0.931 . S
Co336 N333 2.135 . S
Co336 N339 2.121 . S
Co336 O344 2.055 . S
Co336 O347 2.039 . S
Co336 N350 2.140 . S
C337 O338 1.227 . S
C337 O347 1.265 . S
O338 C337 1.227 . S
N339 Co336 2.121 . S
N339 C341 1.375 . S
N339 C342 1.313 . S
C340 C341 1.338 . S
C340 N343 1.377 . S
C340 H360 0.930 . S
C341 N339 1.375 . S
C341 C340 1.338 . S
C341 H345 0.931 . S
C342 N339 1.313 . S
C342 N343 1.344 . S
C342 H346 0.930 . S
N343 C340 1.377 . S
N343 C342 1.344 . S
O344 Co336 2.055 . S
O344 C348 1.253 . S
H345 C341 0.931 . S
H346 C342 0.930 . S
O347 Co336 2.039 . S
O347 C337 1.265 . S
C348 O344 1.253 . S
C348 O349 1.227 . S
O349 C348 1.227 . S
N350 Co336 2.140 . S
N350 C353 1.346 . S
N350 C354 1.345 . S
C351 C352 1.387 . S
C351 C355 1.391 . S
C352 C351 1.387 . S
C352 C353 1.369 . S
C352 H361 0.929 . S
C353 N350 1.346 . S
C353 C352 1.369 . S
C353 H356 0.928 . S
C354 N350 1.345 . S
C354 C355 1.371 . S
C354 H357 0.931 . S
C355 C351 1.391 . S
C355 C354 1.371 . S
C355 H362 0.930 . S
H356 C353 0.928 . S
H357 C354 0.931 . S
H358 C334 0.930 . S
H359 C331 0.930 . S
H360 C340 0.930 . S
H361 C352 0.929 . S
H362 C355 0.930 . S
C363 C364 1.351 . S
C363 N366 1.368 . S
C363 H368 0.931 . S
C364 C363 1.351 . S
C364 N365 1.373 . S
C364 H392 0.930 . S
N365 C364 1.373 . S
N365 C367 1.340 . S
N366 C363 1.368 . S
N366 C367 1.321 . S
N366 Co369 2.135 . S
C367 N365 1.340 . S
C367 N366 1.321 . S
C367 H391 0.930 . S
H368 C363 0.931 . S
Co369 N366 2.135 . S
Co369 N372 2.121 . S
Co369 O377 2.055 . S
Co369 O380 2.039 . S
Co369 N383 2.140 . S
C370 O371 1.227 . S
C370 O380 1.265 . S
O371 C370 1.227 . S
N372 Co369 2.121 . S
N372 C374 1.375 . S
N372 C375 1.313 . S
C373 C374 1.338 . S
C373 N376 1.377 . S
C373 H393 0.930 . S
C374 N372 1.375 . S
C374 C373 1.338 . S
C374 H378 0.931 . S
C375 N372 1.313 . S
C375 N376 1.344 . S
C375 H379 0.930 . S
N376 C373 1.377 . S
N376 C375 1.344 . S
O377 Co369 2.055 . S
O377 C381 1.253 . S
H378 C374 0.931 . S
H379 C375 0.930 . S
O380 Co369 2.039 . S
O380 C370 1.265 . S
C381 O377 1.253 . S
C381 O382 1.227 . S
O382 C381 1.227 . S
N383 Co369 2.140 . S
N383 C386 1.346 . S
N383 C387 1.345 . S
C384 C385 1.387 . S
C384 C388 1.391 . S
C385 C384 1.387 . S
C385 C386 1.369 . S
C385 H394 0.929 . S
C386 N383 1.346 . S
C386 C385 1.369 . S
C386 H389 0.928 . S
C387 N383 1.345 . S
C387 C388 1.371 . S
C387 H390 0.931 . S
C388 C384 1.391 . S
C388 C387 1.371 . S
C388 H395 0.930 . S
H389 C386 0.928 . S
H390 C387 0.931 . S
H391 C367 0.930 . S
H392 C364 0.930 . S
H393 C373 0.930 . S
H394 C385 0.929 . S
H395 C388 0.930 . S
C396 C397 1.369 . S
C396 C398 1.419 1_556 S
C396 H400 0.930 . S
C397 C396 1.369 . S
C397 C406 1.429 . S
C398 C396 1.419 1_554 S
C398 C399 1.363 . S
C398 H401 0.929 . S
C399 C398 1.363 . S
C399 C405 1.428 . S
H400 C396 0.930 . S
H401 C398 0.929 . S
S402 N403 1.637 . S
S402 N404 1.586 1_556 S
N403 S402 1.637 . S
N403 C406 1.350 . S
N404 S402 1.586 1_554 S
N404 C405 1.351 . S
C405 C399 1.428 . S
C405 N404 1.351 . S
C405 C406 1.434 1_554 S
C406 C397 1.429 . S
C406 N403 1.350 . S
C406 C405 1.434 1_556 S
C407 C408 1.369 1_455 S
C407 C409 1.419 . S
C407 H411 0.930 . S
C408 C407 1.369 1_655 S
C408 C417 1.429 . S
C409 C407 1.419 . S
C409 C410 1.363 . S
C409 H412 0.929 . S
C410 C409 1.363 . S
C410 C416 1.428 1_455 S
H411 C407 0.930 . S
H412 C409 0.929 . S
S413 N414 1.613 . S
S413 N415 1.610 . S
N414 S413 1.613 . S
N414 C417 1.350 . S
N415 S413 1.610 . S
N415 C416 1.351 . S
C416 C410 1.428 1_655 S
C416 N415 1.351 . S
C416 C417 1.434 . S
C417 C408 1.429 . S
C417 N414 1.350 . S
C417 C416 1.434 . S
C418 C419 1.369 1_565 S
C418 C420 1.419 1_556 S
C418 H422 0.930 . S
C419 C418 1.369 1_545 S
C419 C428 1.429 . S
C420 C418 1.419 1_554 S
C420 C421 1.363 . S
C420 H423 0.929 . S
C421 C420 1.363 . S
C421 C427 1.428 1_565 S
H422 C418 0.930 . S
H423 C420 0.929 . S
S424 N425 1.594 1_554 S
S424 N426 1.630 . S
N425 S424 1.594 1_556 S
N425 C428 1.350 . S
N426 S424 1.630 . S
N426 C427 1.351 . S
C427 C421 1.428 1_545 S
C427 N426 1.351 . S
C427 C428 1.434 1_554 S
C428 C419 1.429 . S
C428 N425 1.350 . S
C428 C427 1.434 1_556 S
C429 C430 1.369 . S
C429 C431 1.419 . S
C429 H433 0.930 . S
C430 C429 1.369 . S
C430 C439 1.429 . S
C431 C429 1.419 . S
C431 C432 1.363 . S
C431 H434 0.929 . S
C432 C431 1.363 . S
C432 C438 1.428 . S
H433 C429 0.930 . S
H434 C431 0.929 . S
S435 N436 1.613 . S
S435 N437 1.610 . S
N436 S435 1.613 . S
N436 C439 1.350 . S
N437 S435 1.610 . S
N437 C438 1.351 . S
C438 C432 1.428 . S
C438 N437 1.351 . S
C438 C439 1.434 . S
C439 C430 1.429 . S
C439 N436 1.350 . S
C439 C438 1.434 . S
C440 C441 1.369 . S
C440 C442 1.419 1_554 S
C440 H444 0.930 . S
C441 C440 1.369 . S
C441 C450 1.429 1_455 S
C442 C440 1.419 1_556 S
C442 C443 1.363 1_455 S
C442 H445 0.929 . S
C443 C442 1.363 1_655 S
C443 C449 1.428 . S
H444 C440 0.930 . S
H445 C442 0.929 . S
S446 N447 1.613 . S
S446 N448 1.610 1_554 S
N447 S446 1.613 . S
N447 C450 1.350 . S
N448 S446 1.610 1_556 S
N448 C449 1.351 . S
C449 C443 1.428 . S
C449 N448 1.351 . S
C449 C450 1.434 1_556 S
C450 C441 1.429 1_655 S
C450 N447 1.350 . S
C450 C449 1.434 1_554 S
C451 C452 1.369 . S
C451 C453 1.419 1_565 S
C451 H455 0.930 . S
C452 C451 1.369 . S
C452 C461 1.429 . S
C453 C451 1.419 1_545 S
C453 C454 1.363 . S
C453 H456 0.929 . S
C454 C453 1.363 . S
C454 C460 1.428 . S
H455 C451 0.930 . S
H456 C453 0.929 . S
S457 N458 1.613 1_545 S
S457 N459 1.610 . S
N458 S457 1.613 1_565 S
N458 C461 1.350 . S
N459 S457 1.610 . S
N459 C460 1.351 . S
C460 C454 1.428 . S
C460 N459 1.351 . S
C460 C461 1.434 1_545 S
C461 C452 1.429 . S
C461 N458 1.350 . S
C461 C460 1.434 1_565 S
C462 C463 1.369 . S
C462 C464 1.419 . S
C462 H466 0.930 . S
C463 C462 1.369 . S
C463 C472 1.429 . S
C464 C462 1.419 . S
C464 C465 1.363 . S
C464 H467 0.929 . S
C465 C464 1.363 . S
C465 C471 1.428 . S
H466 C462 0.930 . S
H467 C464 0.929 . S
S468 N469 1.613 . S
S468 N470 1.610 . S
N469 S468 1.613 . S
N469 C472 1.350 . S
N470 S468 1.610 . S
N470 C471 1.351 . S
C471 C465 1.428 . S
C471 N470 1.351 . S
C471 C472 1.434 . S
C472 C463 1.429 . S
C472 N469 1.350 . S
C472 C471 1.434 . S
C473 C474 1.369 . S
C473 C475 1.419 . S
C473 H477 0.930 . S
C474 C473 1.369 . S
C474 C483 1.429 . S
C475 C473 1.419 . S
C475 C476 1.363 . S
C475 H478 0.929 . S
C476 C475 1.363 . S
C476 C482 1.428 . S
H477 C473 0.930 . S
H478 C475 0.929 . S
S479 N480 1.613 . S
S479 N481 1.610 . S
N480 S479 1.613 . S
N480 C483 1.350 . S
N481 S479 1.610 . S
N481 C482 1.351 . S
C482 C476 1.428 . S
C482 N481 1.351 . S
C482 C483 1.434 . S
C483 C474 1.429 . S
C483 N480 1.350 . S
C483 C482 1.434 . S
C484 C485 1.369 . S
C484 C486 1.419 . S
C484 H488 0.930 . S
C485 C484 1.369 . S
C485 C494 1.429 . S
C486 C484 1.419 . S
C486 C487 1.363 . S
C486 H489 0.929 . S
C487 C486 1.363 . S
C487 C493 1.428 . S
H488 C484 0.930 . S
H489 C486 0.929 . S
S490 N491 1.613 . S
S490 N492 1.610 . S
N491 S490 1.613 . S
N491 C494 1.350 . S
N492 S490 1.610 . S
N492 C493 1.351 . S
C493 C487 1.428 . S
C493 N492 1.351 . S
C493 C494 1.434 . S
C494 C485 1.429 . S
C494 N491 1.350 . S
C494 C493 1.434 . S
C495 C496 1.369 . S
C495 C497 1.419 . S
C495 H499 0.930 . S
C496 C495 1.369 . S
C496 C505 1.429 . S
C497 C495 1.419 . S
C497 C498 1.363 . S
C497 H500 0.929 . S
C498 C497 1.363 . S
C498 C504 1.428 . S
H499 C495 0.930 . S
H500 C497 0.929 . S
S501 N502 1.613 . S
S501 N503 1.610 . S
N502 S501 1.613 . S
N502 C505 1.350 . S
N503 S501 1.610 . S
N503 C504 1.351 . S
C504 C498 1.428 . S
C504 N503 1.351 . S
C504 C505 1.434 . S
C505 C496 1.429 . S
C505 N502 1.350 . S
C505 C504 1.434 . S
C506 C507 1.369 . S
C506 C508 1.419 . S
C506 H510 0.930 . S
C507 C506 1.369 . S
C507 C516 1.429 . S
C508 C506 1.419 . S
C508 C509 1.363 . S
C508 H511 0.929 . S
C509 C508 1.363 . S
C509 C515 1.428 . S
H510 C506 0.930 . S
H511 C508 0.929 . S
S512 N513 1.613 . S
S512 N514 1.610 . S
N513 S512 1.613 . S
N513 C516 1.350 . S
N514 S512 1.610 . S
N514 C515 1.351 . S
C515 C509 1.428 . S
C515 N514 1.351 . S
C515 C516 1.434 . S
C516 C507 1.429 . S
C516 N513 1.350 . S
C516 C515 1.434 . S
C517 C518 1.369 . S
C517 C519 1.419 . S
C517 H521 0.930 . S
C518 C517 1.369 . S
C518 C527 1.429 . S
C519 C517 1.419 . S
C519 C520 1.363 . S
C519 H522 0.929 . S
C520 C519 1.363 . S
C520 C526 1.428 . S
H521 C517 0.930 . S
H522 C519 0.929 . S
S523 N524 1.613 . S
S523 N525 1.610 . S
N524 S523 1.613 . S
N524 C527 1.350 . S
N525 S523 1.610 . S
N525 C526 1.351 . S
C526 C520 1.428 . S
C526 N525 1.351 . S
C526 C527 1.434 . S
C527 C518 1.429 . S
C527 N524 1.350 . S
C527 C526 1.434 . S
C528 C529 1.369 . S
C528 C530 1.419 . S
C528 H532 0.930 . S
C529 C528 1.369 . S
C529 C538 1.429 . S
C530 C528 1.419 . S
C530 C531 1.363 . S
C530 H533 0.929 . S
C531 C530 1.363 . S
C531 C537 1.428 . S
H532 C528 0.930 . S
H533 C530 0.929 . S
S534 N535 1.613 . S
S534 N536 1.610 . S
N535 S534 1.613 . S
N535 C538 1.350 . S
N536 S534 1.610 . S
N536 C537 1.351 . S
C537 C531 1.428 . S
C537 N536 1.351 . S
C537 C538 1.434 . S
C538 C529 1.429 . S
C538 N535 1.350 . S
C538 C537 1.434 . S
C539 C540 1.369 . S
C539 C541 1.419 . S
C539 H543 0.930 . S
C540 C539 1.369 . S
C540 C549 1.429 . S
C541 C539 1.419 . S
C541 C542 1.363 . S
C541 H544 0.929 . S
C542 C541 1.363 . S
C542 C548 1.428 . S
H543 C539 0.930 . S
H544 C541 0.929 . S
S545 N546 1.613 . S
S545 N547 1.610 . S
N546 S545 1.613 . S
N546 C549 1.350 . S
N547 S545 1.610 . S
N547 C548 1.351 . S
C548 C542 1.428 . S
C548 N547 1.351 . S
C548 C549 1.434 . S
C549 C540 1.429 . S
C549 N546 1.350 . S
C549 C548 1.434 . S
C550 C551 1.369 . S
C550 C552 1.419 . S
C550 H554 0.930 . S
C551 C550 1.369 . S
C551 C560 1.429 . S
C552 C550 1.419 . S
C552 C553 1.363 . S
C552 H555 0.929 . S
C553 C552 1.363 . S
C553 C559 1.428 . S
H554 C550 0.930 . S
H555 C552 0.929 . S
S556 N557 1.613 . S
S556 N558 1.610 . S
N557 S556 1.613 . S
N557 C560 1.350 . S
N558 S556 1.610 . S
N558 C559 1.351 . S
C559 C553 1.428 . S
C559 N558 1.351 . S
C559 C560 1.434 . S
C560 C551 1.429 . S
C560 N557 1.350 . S
C560 C559 1.434 . S
C561 C562 1.369 . S
C561 C563 1.419 . S
C561 H565 0.930 . S
C562 C561 1.369 . S
C562 C571 1.429 . S
C563 C561 1.419 . S
C563 C564 1.363 . S
C563 H566 0.929 . S
C564 C563 1.363 . S
C564 C570 1.428 . S
H565 C561 0.930 . S
H566 C563 0.929 . S
S567 N568 1.613 . S
S567 N569 1.610 . S
N568 S567 1.613 . S
N568 C571 1.350 . S
N569 S567 1.610 . S
N569 C570 1.351 . S
C570 C564 1.428 . S
C570 N569 1.351 . S
C570 C571 1.434 . S
C571 C562 1.429 . S
C571 N568 1.350 . S
C571 C570 1.434 . S
C572 C573 1.369 . S
C572 C574 1.419 . S
C572 H576 0.930 . S
C573 C572 1.369 . S
C573 C582 1.429 . S
C574 C572 1.419 . S
C574 C575 1.363 . S
C574 H577 0.929 . S
C575 C574 1.363 . S
C575 C581 1.428 . S
H576 C572 0.930 . S
H577 C574 0.929 . S
S578 N579 1.613 . S
S578 N580 1.610 . S
N579 S578 1.613 . S
N579 C582 1.350 . S
N580 S578 1.610 . S
N580 C581 1.351 . S
C581 C575 1.428 . S
C581 N580 1.351 . S
C581 C582 1.434 . S
C582 C573 1.429 . S
C582 N579 1.350 . S
C582 C581 1.434 . S
C583 C584 1.369 . S
C583 C585 1.419 . S
C583 H587 0.930 . S
C584 C583 1.369 . S
C584 C593 1.429 . S
C585 C583 1.419 . S
C585 C586 1.363 . S
C585 H588 0.929 . S
C586 C585 1.363 . S
C586 C592 1.428 . S
H587 C583 0.930 . S
H588 C585 0.929 . S
S589 N590 1.613 . S
S589 N591 1.610 . S
N590 S589 1.613 . S
N590 C593 1.350 . S
N591 S589 1.610 . S
N591 C592 1.351 . S
C592 C586 1.428 . S
C592 N591 1.351 . S
C592 C593 1.434 . S
C593 C584 1.429 . S
C593 N590 1.350 . S
C593 C592 1.434 . S
C594 C595 1.369 . S
C594 C596 1.419 . S
C594 H598 0.930 . S
C595 C594 1.369 . S
C595 C604 1.429 . S
C596 C594 1.419 . S
C596 C597 1.363 . S
C596 H599 0.929 . S
C597 C596 1.363 . S
C597 C603 1.428 . S
H598 C594 0.930 . S
H599 C596 0.929 . S
S600 N601 1.613 . S
S600 N602 1.610 . S
N601 S600 1.613 . S
N601 C604 1.350 . S
N602 S600 1.610 . S
N602 C603 1.351 . S
C603 C597 1.428 . S
C603 N602 1.351 . S
C603 C604 1.434 . S
C604 C595 1.429 . S
C604 N601 1.350 . S
C604 C603 1.434 . S
C605 C606 1.369 . S
C605 C607 1.419 . S
C605 H609 0.930 . S
C606 C605 1.369 . S
C606 C615 1.429 . S
C607 C605 1.419 . S
C607 C608 1.363 . S
C607 H610 0.929 . S
C608 C607 1.363 . S
C608 C614 1.428 . S
H609 C605 0.930 . S
H610 C607 0.929 . S
S611 N612 1.613 . S
S611 N613 1.610 . S
N612 S611 1.613 . S
N612 C615 1.350 . S
N613 S611 1.610 . S
N613 C614 1.351 . S
C614 C608 1.428 . S
C614 N613 1.351 . S
C614 C615 1.434 . S
C615 C606 1.429 . S
C615 N612 1.350 . S
C615 C614 1.434 . S
C616 C617 1.369 . S
C616 C618 1.419 . S
C616 H620 0.930 . S
C617 C616 1.369 . S
C617 C626 1.429 . S
C618 C616 1.419 . S
C618 C619 1.363 . S
C618 H621 0.929 . S
C619 C618 1.363 . S
C619 C625 1.428 . S
H620 C616 0.930 . S
H621 C618 0.929 . S
S622 N623 1.613 . S
S622 N624 1.610 . S
N623 S622 1.613 . S
N623 C626 1.350 . S
N624 S622 1.610 . S
N624 C625 1.351 . S
C625 C619 1.428 . S
C625 N624 1.351 . S
C625 C626 1.434 . S
C626 C617 1.429 . S
C626 N623 1.350 . S
C626 C625 1.434 . S
C627 C628 1.369 . S
C627 C629 1.419 . S
C627 H631 0.930 . S
C628 C627 1.369 . S
C628 C637 1.429 . S
C629 C627 1.419 . S
C629 C630 1.363 . S
C629 H632 0.929 . S
C630 C629 1.363 . S
C630 C636 1.428 . S
H631 C627 0.930 . S
H632 C629 0.929 . S
S633 N634 1.613 . S
S633 N635 1.610 . S
N634 S633 1.613 . S
N634 C637 1.350 . S
N635 S633 1.610 . S
N635 C636 1.351 . S
C636 C630 1.428 . S
C636 N635 1.351 . S
C636 C637 1.434 . S
C637 C628 1.429 . S
C637 N634 1.350 . S
C637 C636 1.434 . S
C638 C639 1.369 . S
C638 C640 1.419 . S
C638 H642 0.930 . S
C639 C638 1.369 . S
C639 C648 1.429 . S
C640 C638 1.419 . S
C640 C641 1.363 . S
C640 H643 0.929 . S
C641 C640 1.363 . S
C641 C647 1.428 . S
H642 C638 0.930 . S
H643 C640 0.929 . S
S644 N645 1.613 . S
S644 N646 1.610 . S
N645 S644 1.613 . S
N645 C648 1.350 . S
N646 S644 1.610 . S
N646 C647 1.351 . S
C647 C641 1.428 . S
C647 N646 1.351 . S
C647 C648 1.434 . S
C648 C639 1.429 . S
C648 N645 1.350 . S
C648 C647 1.434 . S
C649 C650 1.369 . S
C649 C651 1.419 . S
C649 H653 0.930 . S
C650 C649 1.369 . S
C650 C659 1.429 . S
C651 C649 1.419 . S
C651 C652 1.363 . S
C651 H654 0.929 . S
C652 C651 1.363 . S
C652 C658 1.428 . S
H653 C649 0.930 . S
H654 C651 0.929 . S
S655 N656 1.613 . S
S655 N657 1.610 . S
N656 S655 1.613 . S
N656 C659 1.350 . S
N657 S655 1.610 . S
N657 C658 1.351 . S
C658 C652 1.428 . S
C658 N657 1.351 . S
C658 C659 1.434 . S
C659 C650 1.429 . S
C659 N656 1.350 . S
C659 C658 1.434 . S
C660 C661 1.369 . S
C660 C662 1.419 . S
C660 H664 0.930 . S
C661 C660 1.369 . S
C661 C670 1.429 . S
C662 C660 1.419 . S
C662 C663 1.363 . S
C662 H665 0.929 . S
C663 C662 1.363 . S
C663 C669 1.428 . S
H664 C660 0.930 . S
H665 C662 0.929 . S
S666 N667 1.613 . S
S666 N668 1.610 . S
N667 S666 1.613 . S
N667 C670 1.350 . S
N668 S666 1.610 . S
N668 C669 1.351 . S
C669 C663 1.428 . S
C669 N668 1.351 . S
C669 C670 1.434 . S
C670 C661 1.429 . S
C670 N667 1.350 . S
C670 C669 1.434 . S
C671 C672 1.369 . S
C671 C673 1.419 . S
C671 H675 0.930 . S
C672 C671 1.369 . S
C672 C681 1.429 . S
C673 C671 1.419 . S
C673 C674 1.363 . S
C673 H676 0.929 . S
C674 C673 1.363 . S
C674 C680 1.428 . S
H675 C671 0.930 . S
H676 C673 0.929 . S
S677 N678 1.613 . S
S677 N679 1.610 . S
N678 S677 1.613 . S
N678 C681 1.350 . S
N679 S677 1.610 . S
N679 C680 1.351 . S
C680 C674 1.428 . S
C680 N679 1.351 . S
C680 C681 1.434 . S
C681 C672 1.429 . S
C681 N678 1.350 . S
C681 C680 1.434 . S
C682 C683 1.369 . S
C682 C684 1.419 . S
C682 H686 0.930 . S
C683 C682 1.369 . S
C683 C692 1.429 . S
C684 C682 1.419 . S
C684 C685 1.363 . S
C684 H687 0.929 . S
C685 C684 1.363 . S
C685 C691 1.428 . S
H686 C682 0.930 . S
H687 C684 0.929 . S
S688 N689 1.598 1_545 S
S688 N690 1.610 1_545 S
N689 S688 1.598 1_565 S
N689 C692 1.358 . S
N690 S688 1.610 1_565 S
N690 C691 1.360 . S
C691 C685 1.428 . S
C691 N690 1.360 . S
C691 C692 1.434 . S
C692 C683 1.429 . S
C692 N689 1.358 . S
C692 C691 1.434 . S
C693 C694 1.369 . S
C693 C695 1.419 . S
C693 H697 0.930 . S
C694 C693 1.369 . S
C694 C703 1.429 . S
C695 C693 1.419 . S
C695 C696 1.363 . S
C695 H698 0.929 . S
C696 C695 1.363 . S
C696 C702 1.428 . S
H697 C693 0.930 . S
H698 C695 0.929 . S
S699 N700 1.613 . S
S699 N701 1.610 . S
N700 S699 1.613 . S
N700 C703 1.350 . S
N701 S699 1.610 . S
N701 C702 1.351 . S
C702 C696 1.428 . S
C702 N701 1.351 . S
C702 C703 1.434 . S
C703 C694 1.429 . S
C703 N700 1.350 . S
C703 C702 1.434 . S
C704 C705 1.369 . S
C704 C706 1.419 . S
C704 H708 0.930 . S
C705 C704 1.369 . S
C705 C714 1.429 . S
C706 C704 1.419 . S
C706 C707 1.363 . S
C706 H709 0.929 . S
C707 C706 1.363 . S
C707 C713 1.428 . S
H708 C704 0.930 . S
H709 C706 0.929 . S
S710 N711 1.613 . S
S710 N712 1.610 . S
N711 S710 1.613 . S
N711 C714 1.350 . S
N712 S710 1.610 . S
N712 C713 1.351 . S
C713 C707 1.428 . S
C713 N712 1.351 . S
C713 C714 1.434 . S
C714 C705 1.429 . S
C714 N711 1.350 . S
C714 C713 1.434 . S
C715 C716 1.369 . S
C715 C717 1.419 . S
C715 H719 0.930 . S
C716 C715 1.369 . S
C716 C725 1.429 . S
C717 C715 1.419 . S
C717 C718 1.363 . S
C717 H720 0.929 . S
C718 C717 1.363 . S
C718 C724 1.428 . S
H719 C715 0.930 . S
H720 C717 0.929 . S
S721 N722 1.613 1_565 S
S721 N723 1.610 1_565 S
N722 S721 1.613 1_545 S
N722 C725 1.350 . S
N723 S721 1.610 1_545 S
N723 C724 1.351 . S
C724 C718 1.428 . S
C724 N723 1.351 . S
C724 C725 1.434 . S
C725 C716 1.429 . S
C725 N722 1.350 . S
C725 C724 1.434 . S
C397 C318 1.184 . S
C399 C21 1.179 . S
C408 C54 1.176 . S
C410 C351 1.184 . S
C419 C384 1.183 . S
C421 C87 1.180 . S
C430 C120 1.182 . S
C432 C219 1.181 . S
C441 C153 1.181 . S
C443 C252 1.174 . S
C452 C285 1.184 . S
C454 C186 1.179 . S
C463 C18 1.530 . S
C465 N134 1.326 . S
C474 N167 1.319 . S
C476 C51 1.529 . S
C485 C84 1.531 . S
C487 N2 1.313 . S
C496 C117 1.532 . S
C498 N35 1.325 . S
C507 N68 1.328 . S
C509 C150 1.531 . S
C518 N101 1.322 . S
C520 C183 1.529 . S
C529 N266 1.324 . S
C531 C216 1.529 . S
C540 C249 1.533 . S
C542 N299 1.323 . S
C551 N332 1.328 . S
C553 C282 1.531 . S
C562 N365 1.312 . S
C564 C315 1.531 . S
C573 N200 1.328 . S
C575 C348 1.531 . S
C584 C381 1.528 . S
C586 N233 1.321 . S
C595 N343 1.007 . S
C597 N13 1.017 . S
C606 N376 1.011 . S
C608 N46 1.019 . S
C617 N79 1.004 . S
C619 N211 1.014 . S
C628 N112 1.011 . S
C630 N244 1.005 . S
C639 N277 1.005 . S
C641 N145 1.015 . S
C650 N178 1.002 . S
C652 N310 1.011 . S
C661 C205 1.221 . S
C663 C7 1.213 . S
C672 C238 1.216 . S
C674 C40 1.213 . S
C683 C73 1.224 . S
C685 C271 1.216 . S
C694 C304 1.220 . S
C696 C106 1.221 . S
C705 C139 1.214 . S
C707 C337 1.215 . S
C716 C370 1.217 . S
C718 C172 1.222 . S
