# Generated by pormake.
# Topology fni, (5)-cn, num edge types: 1
# Building blocks:
#     Node 0, Type 0, BuildingBlock: XOMCOT_clean_sbu_1, # of connection points: 5
#     Node 1, Type 0, BuildingBlock: XOMCOT_clean_sbu_1, # of connection points: 5
#     Node 2, Type 0, BuildingBlock: XOMCOT_clean_sbu_1, # of connection points: 5
#     Node 3, Type 0, BuildingBlock: XOMCOT_clean_sbu_1, # of connection points: 5
#     Node 4, Type 0, BuildingBlock: XOMCOT_clean_sbu_1, # of connection points: 5
#     Node 5, Type 0, BuildingBlock: XOMCOT_clean_sbu_1, # of connection points: 5
#     Node 6, Type 0, BuildingBlock: XOMCOT_clean_sbu_1, # of connection points: 5
#     Node 7, Type 0, BuildingBlock: XOMCOT_clean_sbu_1, # of connection points: 5
#     Edge 8, Type (0, 0), BuildingBlock: ZUJKAS_clean_linker_0, # of connection points: 2
#     Edge 9, Type (0, 0), BuildingBlock: ZUJKAS_clean_linker_0, # of connection points: 2
#     Edge 10, Type (0, 0), BuildingBlock: ZUJKAS_clean_linker_0, # of connection points: 2
#     Edge 11, Type (0, 0), BuildingBlock: ZUJKAS_clean_linker_0, # of connection points: 2
#     Edge 12, Type (0, 0), BuildingBlock: ZUJKAS_clean_linker_0, # of connection points: 2
#     Edge 13, Type (0, 0), BuildingBlock: ZUJKAS_clean_linker_0, # of connection points: 2
#     Edge 14, Type (0, 0), BuildingBlock: ZUJKAS_clean_linker_0, # of connection points: 2
#     Edge 15, Type (0, 0), BuildingBlock: ZUJKAS_clean_linker_0, # of connection points: 2
#     Edge 16, Type (0, 0), BuildingBlock: ZUJKAS_clean_linker_0, # of connection points: 2
#     Edge 17, Type (0, 0), BuildingBlock: ZUJKAS_clean_linker_0, # of connection points: 2
#     Edge 18, Type (0, 0), BuildingBlock: ZUJKAS_clean_linker_0, # of connection points: 2
#     Edge 19, Type (0, 0), BuildingBlock: ZUJKAS_clean_linker_0, # of connection points: 2
#     Edge 20, Type (0, 0), BuildingBlock: ZUJKAS_clean_linker_0, # of connection points: 2
#     Edge 21, Type (0, 0), BuildingBlock: ZUJKAS_clean_linker_0, # of connection points: 2
#     Edge 22, Type (0, 0), BuildingBlock: ZUJKAS_clean_linker_0, # of connection points: 2
#     Edge 23, Type (0, 0), BuildingBlock: ZUJKAS_clean_linker_0, # of connection points: 2
#     Edge 24, Type (0, 0), BuildingBlock: ZUJKAS_clean_linker_0, # of connection points: 2
#     Edge 25, Type (0, 0), BuildingBlock: ZUJKAS_clean_linker_0, # of connection points: 2
#     Edge 26, Type (0, 0), BuildingBlock: ZUJKAS_clean_linker_0, # of connection points: 2
#     Edge 27, Type (0, 0), BuildingBlock: ZUJKAS_clean_linker_0, # of connection points: 2
# Relax obj value: 0.162
# Max RMSD: 0.170
# Mean RMSD: 0.163
data_MOF--net-fni--node1-XOMCOT_clean_sbu_1--edge1-ZUJKAS_clean_linker_0
_symmetry_space_group_name_H-M    P1
_symmetry_Int_Tables_number       1
_symmetry_cell_setting            triclinic
loop_
_symmetry_equiv_pos_as_xyz
'x, y, z'
_cell_length_a     69.171299
_cell_length_b     67.406804
_cell_length_c     22.001139
_cell_angle_alpha  93.780502
_cell_angle_beta   93.881069
_cell_angle_gamma 90.162729
loop_
_atom_site_label
_atom_site_type_symbol
_atom_site_fract_x
_atom_site_fract_y
_atom_site_fract_z
_atom_type_partial_charge
C0 C 0.41662 0.40317 0.13003 0.0
C1 C 0.41545 0.4061 0.19212 0.0
N2 N 0.42313 0.39018 0.21873 0.0
N3 N 0.42489 0.38546 0.11742 0.0
C4 C 0.42884 0.37793 0.17223 0.0
H5 H 0.41156 0.41317 0.09602 0.0
Co6 Co 0.42908 0.37504 0.03955 0.0
C7 C 0.42507 0.33168 0.04355 0.0
O8 O 0.41504 0.33186 0.99064 0.0
N9 N 0.43407 0.36494 0.9597 0.0
C10 C 0.44976 0.34911 0.88582 0.0
C11 C 0.44848 0.35203 0.94776 0.0
C12 C 0.42729 0.37016 0.90381 0.0
N13 N 0.43644 0.3606 0.85825 0.0
O14 O 0.45619 0.38059 0.05494 0.0
H15 H 0.4579 0.34552 0.98219 0.0
H16 H 0.4163 0.38115 0.89591 0.0
O17 O 0.4321 0.348 0.06925 0.0
C18 C 0.46008 0.39685 0.03183 0.0
O19 O 0.44606 0.4063 0.00287 0.0
N20 N 0.40198 0.37172 0.025 0.0
C21 C 0.36156 0.37293 0.0085 0.0
C22 C 0.37066 0.36012 0.04904 0.0
C23 C 0.39084 0.36014 0.05791 0.0
C24 C 0.3933 0.38527 0.98903 0.0
C25 C 0.37319 0.38577 0.97872 0.0
H26 H 0.39734 0.35146 0.09326 0.0
H27 H 0.40197 0.39643 0.97039 0.0
H28 H 0.4359 0.36382 0.1779 0.0
H29 H 0.40906 0.41882 0.21552 0.0
H30 H 0.46024 0.33994 0.86298 0.0
H31 H 0.36225 0.35078 0.07572 0.0
H32 H 0.36684 0.39638 0.94847 0.0
C33 C 0.62268 0.93012 0.25874 0.0
C34 C 0.6251 0.93049 0.19727 0.0
N35 N 0.61013 0.92063 0.16641 0.0
N36 N 0.60639 0.91986 0.26661 0.0
C37 C 0.59896 0.91441 0.20959 0.0
H38 H 0.63206 0.93711 0.29535 0.0
Co39 Co 0.59622 0.91566 0.34058 0.0
C40 C 0.5836 0.87366 0.33241 0.0
O41 O 0.58968 0.87277 0.39006 0.0
N42 N 0.58528 0.91204 0.41605 0.0
C43 C 0.56261 0.90654 0.4805 0.0
C44 C 0.56637 0.90757 0.42031 0.0
C45 C 0.59255 0.91408 0.47493 0.0
N46 N 0.57913 0.91063 0.51501 0.0
O47 O 0.57328 0.92928 0.31432 0.0
H48 H 0.55591 0.90498 0.38174 0.0
H49 H 0.60722 0.91847 0.48894 0.0
O50 O 0.58524 0.88998 0.30636 0.0
C51 C 0.57392 0.94747 0.33413 0.0
O52 O 0.5893 0.95393 0.36811 0.0
N53 N 0.61983 0.90384 0.36606 0.0
C54 C 0.65785 0.89251 0.39699 0.0
C55 C 0.64604 0.88086 0.35428 0.0
C56 C 0.62718 0.88696 0.33858 0.0
C57 C 0.63153 0.91583 0.4051 0.0
C58 C 0.65038 0.91022 0.42256 0.0
H59 H 0.61903 0.87862 0.30188 0.0
H60 H 0.62643 0.93029 0.42096 0.0
H61 H 0.58557 0.9061 0.19998 0.0
H62 H 0.63669 0.93793 0.17689 0.0
H63 H 0.5488 0.90281 0.49725 0.0
H64 H 0.65149 0.86741 0.33197 0.0
H65 H 0.65934 0.92013 0.45347 0.0
C66 C 0.05998 0.11859 0.46264 0.0
C67 C 0.05718 0.11929 0.40036 0.0
N68 N 0.07284 0.11144 0.37464 0.0
N69 N 0.07736 0.11048 0.47628 0.0
C70 C 0.08482 0.10614 0.42188 0.0
H71 H 0.05006 0.12382 0.49603 0.0
Co72 Co 0.08757 0.10657 0.55451 0.0
C73 C 0.12945 0.11439 0.55292 0.0
O74 O 0.12851 0.12438 0.60602 0.0
N75 N 0.09759 0.10177 0.63443 0.0
C76 C 0.11435 0.08654 0.70779 0.0
C77 C 0.11131 0.088 0.64598 0.0
C78 C 0.09207 0.10795 0.69046 0.0
N79 N 0.10218 0.09908 0.73575 0.0
O80 O 0.08508 0.07839 0.53783 0.0
H81 H 0.11839 0.07915 0.61133 0.0
H82 H 0.08058 0.11832 0.69865 0.0
O83 O 0.11407 0.10628 0.52634 0.0
C84 C 0.06858 0.07261 0.5525 0.0
O85 O 0.05651 0.08616 0.57266 0.0
N86 N 0.08817 0.1345 0.57076 0.0
C87 C 0.08405 0.1756 0.59316 0.0
C88 C 0.09719 0.16792 0.5519 0.0
C89 C 0.09868 0.14737 0.54019 0.0
C90 C 0.07415 0.14175 0.6066 0.0
C91 C 0.07219 0.16215 0.61984 0.0
H92 H 0.10786 0.14193 0.50509 0.0
H93 H 0.06399 0.13164 0.62367 0.0
H94 H 0.09866 0.099 0.41706 0.0
H95 H 0.04469 0.12544 0.37617 0.0
H96 H 0.12416 0.07642 0.73025 0.0
H97 H 0.10589 0.17771 0.52753 0.0
H98 H 0.06145 0.16727 0.65072 0.0
C99 C 0.86565 0.58929 0.73332 0.0
C100 C 0.8639 0.58721 0.67056 0.0
N101 N 0.87596 0.60038 0.6487 0.0
N102 N 0.87861 0.60382 0.75112 0.0
C103 C 0.88475 0.6102 0.69872 0.0
H104 H 0.858 0.58073 0.76406 0.0
Co105 Co 0.88656 0.61198 0.8311 0.0
C106 C 0.89078 0.65571 0.83027 0.0
O107 O 0.88121 0.65787 0.87986 0.0
N108 N 0.89527 0.61999 0.91285 0.0
C109 C 0.91497 0.63236 0.99076 0.0
C110 C 0.91205 0.63 0.92829 0.0
C111 C 0.88858 0.616 0.96728 0.0
N112 N 0.90018 0.62349 0.01525 0.0
O113 O 0.91191 0.60236 0.81699 0.0
H114 H 0.92183 0.63495 0.89598 0.0
H115 H 0.87565 0.60753 0.9725 0.0
O116 O 0.89357 0.63831 0.80564 0.0
C117 C 0.91436 0.58543 0.8387 0.0
O118 O 0.90037 0.57806 0.86819 0.0
N119 N 0.86084 0.61919 0.84433 0.0
C120 C 0.82135 0.62196 0.86258 0.0
C121 C 0.83016 0.63527 0.82627 0.0
C122 C 0.84996 0.63342 0.8168 0.0
C123 C 0.85203 0.60526 0.87521 0.0
C124 C 0.83252 0.60665 0.88638 0.0
H125 H 0.85625 0.64296 0.78578 0.0
H126 H 0.86015 0.59253 0.88977 0.0
H127 H 0.8958 0.62152 0.69745 0.0
H128 H 0.85433 0.57689 0.64334 0.0
H129 H 0.92736 0.63945 0.0161 0.0
H130 H 0.82182 0.64684 0.80506 0.0
H131 H 0.82607 0.59539 0.91176 0.0
C132 C 0.36636 0.086 0.23607 0.0
C133 C 0.36417 0.08442 0.1733 0.0
N134 N 0.3762 0.09765 0.15179 0.0
N135 N 0.37953 0.10032 0.25409 0.0
C136 C 0.38541 0.10702 0.20177 0.0
H137 H 0.35893 0.07717 0.26665 0.0
Co138 Co 0.38785 0.10799 0.33417 0.0
C139 C 0.39263 0.15174 0.336 0.0
O140 O 0.38378 0.15363 0.38708 0.0
N141 N 0.39692 0.11547 0.41588 0.0
C142 C 0.41705 0.12707 0.49358 0.0
C143 C 0.41397 0.12494 0.43117 0.0
C144 C 0.39017 0.11158 0.47032 0.0
N145 N 0.40205 0.11861 0.51834 0.0
O146 O 0.41308 0.0983 0.3185 0.0
H147 H 0.42374 0.12986 0.39876 0.0
H148 H 0.37724 0.10307 0.47527 0.0
O149 O 0.39487 0.13447 0.30977 0.0
C150 C 0.41543 0.08116 0.33891 0.0
O151 O 0.40142 0.07363 0.3679 0.0
N152 N 0.36226 0.11532 0.34885 0.0
C153 C 0.32267 0.11806 0.36649 0.0
C154 C 0.33178 0.13192 0.33267 0.0
C155 C 0.35156 0.13003 0.32322 0.0
C156 C 0.3533 0.1011 0.3782 0.0
C157 C 0.33372 0.10237 0.38865 0.0
H158 H 0.35793 0.13993 0.29343 0.0
H159 H 0.36134 0.08819 0.39174 0.0
H160 H 0.3962 0.1186 0.20034 0.0
H161 H 0.35476 0.07403 0.14566 0.0
H162 H 0.42944 0.13426 0.51854 0.0
H163 H 0.32369 0.14393 0.31301 0.0
H164 H 0.32715 0.09069 0.41204 0.0
C165 C 0.91195 0.9032 0.64423 0.0
C166 C 0.90996 0.90525 0.70607 0.0
N167 N 0.91878 0.88979 0.73176 0.0
N168 N 0.92207 0.88659 0.6311 0.0
C169 C 0.926 0.87867 0.68537 0.0
H170 H 0.90651 0.91326 0.61087 0.0
Co171 Co 0.92918 0.87854 0.5535 0.0
C172 C 0.93063 0.8349 0.54905 0.0
O173 O 0.92249 0.83497 0.49332 0.0
N174 N 0.93705 0.87094 0.4745 0.0
C175 C 0.95696 0.86014 0.40402 0.0
C176 C 0.95443 0.8625 0.46539 0.0
C177 C 0.92932 0.87358 0.41732 0.0
N178 N 0.94113 0.8671 0.37391 0.0
O179 O 0.95526 0.88721 0.5765 0.0
H180 H 0.96479 0.85843 0.50141 0.0
H181 H 0.91569 0.88068 0.4068 0.0
O182 O 0.9347 0.85146 0.57932 0.0
C183 C 0.95659 0.90582 0.57035 0.0
O184 O 0.94098 0.91537 0.55177 0.0
N185 N 0.90296 0.87214 0.5317 0.0
C186 C 0.86279 0.8697 0.50848 0.0
C187 C 0.87245 0.85672 0.54724 0.0
C188 C 0.89249 0.85846 0.5593 0.0
C189 C 0.89356 0.88564 0.4971 0.0
C190 C 0.87359 0.88435 0.48338 0.0
H191 H 0.89928 0.84945 0.59331 0.0
H192 H 0.90154 0.89801 0.48201 0.0
H193 H 0.9344 0.86532 0.69112 0.0
H194 H 0.90251 0.91712 0.73025 0.0
H195 H 0.96947 0.85382 0.38312 0.0
H196 H 0.86454 0.84564 0.56925 0.0
H197 H 0.86656 0.89531 0.45575 0.0
C198 C 0.11924 0.43587 0.76348 0.0
C199 C 0.12197 0.43637 0.70229 0.0
N200 N 0.1088 0.42419 0.6707 0.0
N201 N 0.10452 0.42334 0.77078 0.0
C202 C 0.09836 0.41653 0.71358 0.0
H203 H 0.12713 0.44452 0.80027 0.0
Co204 Co 0.09429 0.41918 0.84472 0.0
C205 C 0.0815 0.37713 0.83792 0.0
O206 O 0.08639 0.37654 0.8965 0.0
N207 N 0.08338 0.4157 0.92048 0.0
C208 C 0.06074 0.41159 0.9863 0.0
C209 C 0.06424 0.41265 0.92586 0.0
C210 C 0.09113 0.41652 0.97892 0.0
N211 N 0.0777 0.41399 0.01963 0.0
O212 O 0.07118 0.4323 0.8173 0.0
H213 H 0.05342 0.41109 0.88798 0.0
H214 H 0.1062 0.41929 0.99233 0.0
O215 O 0.08386 0.39321 0.81132 0.0
C216 C 0.07185 0.45059 0.83597 0.0
O217 O 0.08731 0.45722 0.86931 0.0
N218 N 0.11804 0.40808 0.87123 0.0
C219 C 0.15649 0.39854 0.90377 0.0
C220 C 0.14481 0.38557 0.86436 0.0
C221 C 0.12572 0.39079 0.84767 0.0
C222 C 0.12943 0.42113 0.90764 0.0
C223 C 0.14849 0.41649 0.92572 0.0
H224 H 0.11769 0.3814 0.81322 0.0
H225 H 0.12373 0.43549 0.92188 0.0
H226 H 0.08624 0.40641 0.7037 0.0
H227 H 0.1324 0.44562 0.68271 0.0
H228 H 0.04682 0.40901 0.00419 0.0
H229 H 0.15062 0.37197 0.84413 0.0
H230 H 0.15694 0.42707 0.9558 0.0
C231 C 0.56092 0.61999 0.9588 0.0
C232 C 0.5588 0.62184 0.89684 0.0
N233 N 0.57385 0.61278 0.87109 0.0
N234 N 0.57734 0.61 0.97214 0.0
C235 C 0.58482 0.60561 0.91777 0.0
H236 H 0.55112 0.62555 0.99211 0.0
Co237 Co 0.58652 0.60393 0.04979 0.0
C238 C 0.62903 0.60882 0.05319 0.0
O239 O 0.62856 0.61719 0.10876 0.0
N240 N 0.5954 0.597 0.12881 0.0
C241 C 0.61021 0.57931 0.20008 0.0
C242 C 0.6077 0.58182 0.1387 0.0
C243 C 0.59024 0.60308 0.18534 0.0
N244 N 0.59917 0.59268 0.22957 0.0
O245 O 0.58284 0.57621 0.02694 0.0
H246 H 0.61435 0.57292 0.10318 0.0
H247 H 0.57953 0.61425 0.19428 0.0
O248 O 0.61324 0.60289 0.02374 0.0
C249 C 0.56584 0.57048 0.03673 0.0
O250 O 0.55365 0.58383 0.05735 0.0
N251 N 0.5884 0.63149 0.07194 0.0
C252 C 0.585 0.67244 0.09885 0.0
C253 C 0.59907 0.66496 0.0606 0.0
C254 C 0.60024 0.64448 0.04658 0.0
C255 C 0.57386 0.63864 0.10583 0.0
C256 C 0.57216 0.65896 0.12105 0.0
H257 H 0.61017 0.63931 0.01335 0.0
H258 H 0.56297 0.62855 0.11911 0.0
H259 H 0.59812 0.59747 0.91255 0.0
H260 H 0.54692 0.62901 0.87255 0.0
H261 H 0.61943 0.56838 0.22108 0.0
H262 H 0.60896 0.67484 0.04097 0.0
H263 H 0.56043 0.6641 0.14813 0.0
H264 H 0.58845 0.53737 0.01613 0.0
H265 H 0.57775 0.50234 0.00843 0.0
H266 H 0.51909 0.52103 0.03317 0.0
H267 H 0.52947 0.55566 0.04052 0.0
H268 H 0.55771 0.48137 0.09772 0.0
H269 H 0.51448 0.4832 0.87729 0.0
H270 H 0.5328 0.50166 0.90233 0.0
H271 H 0.50896 0.50347 0.93022 0.0
C272 C 0.57325 0.53396 0.01926 0.0
C273 C 0.5598 0.5493 0.02863 0.0
C274 C 0.56719 0.51398 0.01514 0.0
C275 C 0.54759 0.50912 0.01952 0.0
C276 C 0.53422 0.52444 0.02869 0.0
H277 H 0.47647 0.41918 0.12835 0.0
H278 H 0.50288 0.44319 0.12452 0.0
C279 C 0.54023 0.54427 0.03311 0.0
C280 C 0.54072 0.48818 0.01614 0.0
H281 H 0.50599 0.45775 0.9425 0.0
C282 C 0.5467 0.47597 0.06309 0.0
C283 C 0.52662 0.481 0.97042 0.0
C284 C 0.52048 0.49294 0.91685 0.0
C285 C 0.53792 0.45731 0.0678 0.0
C286 C 0.52257 0.45092 0.02504 0.0
C287 C 0.51762 0.4626 0.97576 0.0
C288 C 0.51008 0.43336 0.03303 0.0
C289 C 0.54496 0.44484 0.11915 0.0
C290 C 0.50547 0.4195 0.98354 0.0
C291 C 0.4902 0.40596 0.98559 0.0
C292 C 0.47951 0.40584 0.03748 0.0
C293 C 0.48496 0.41862 0.08864 0.0
C294 C 0.50009 0.43235 0.08638 0.0
H295 H 0.56058 0.44766 0.13209 0.0
H296 H 0.53683 0.44891 0.15989 0.0
H297 H 0.54278 0.42872 0.10664 0.0
H298 H 0.51283 0.42004 0.94175 0.0
H299 H 0.48588 0.39654 0.9451 0.0
H300 H 0.44069 0.08319 0.24813 0.0
H301 H 0.46753 0.06036 0.22751 0.0
H302 H 0.45662 0.03 0.38854 0.0
H303 H 0.42963 0.05209 0.40784 0.0
H304 H 0.50066 0.05181 0.28797 0.0
H305 H 0.45551 0.98395 0.2644 0.0
H306 H 0.44512 0.00848 0.26658 0.0
H307 H 0.45228 0.99706 0.33643 0.0
C308 C 0.44414 0.07168 0.27912 0.0
C309 C 0.43296 0.06924 0.32914 0.0
C310 C 0.45939 0.0586 0.2672 0.0
C311 C 0.46367 0.04302 0.30534 0.0
C312 C 0.45312 0.04135 0.35704 0.0
H313 H 0.56733 0.98287 0.39471 0.0
H314 H 0.54086 0.00579 0.37619 0.0
C315 C 0.4378 0.05414 0.36838 0.0
C316 C 0.4794 0.02865 0.2928 0.0
H317 H 0.48969 0.97913 0.29151 0.0
C318 C 0.49821 0.0359 0.28763 0.0
C319 C 0.47619 0.00783 0.29024 0.0
C320 C 0.45612 0.9989 0.28896 0.0
C321 C 0.51406 0.02297 0.28461 0.0
C322 C 0.51109 0.0023 0.28902 0.0
C323 C 0.4921 0.99497 0.28952 0.0
C324 C 0.52747 0.98833 0.29832 0.0
C325 C 0.53382 0.03168 0.27728 0.0
C326 C 0.52838 0.9703 0.26259 0.0
C327 C 0.54336 0.9568 0.27419 0.0
C328 C 0.55772 0.9612 0.32151 0.0
C329 C 0.55667 0.97916 0.35732 0.0
C330 C 0.54161 0.99243 0.34634 0.0
H331 H 0.53265 0.04521 0.25105 0.0
H332 H 0.54082 0.03617 0.323 0.0
H333 H 0.54328 0.02083 0.25359 0.0
H334 H 0.5175 0.96667 0.22575 0.0
H335 H 0.54381 0.94306 0.24587 0.0
H336 H 0.99321 0.89398 0.54312 0.0
H337 H 0.02217 0.9156 0.54506 0.0
H338 H 0.98972 0.96445 0.62245 0.0
H339 H 0.96106 0.94324 0.61973 0.0
H340 H 0.02176 0.95222 0.48049 0.0
H341 H 0.04197 0.96695 0.72661 0.0
H342 H 0.02826 0.94517 0.6965 0.0
H343 H 0.0163 0.96861 0.70952 0.0
C344 C 0.99254 0.90918 0.56208 0.0
C345 C 0.97499 0.91699 0.58148 0.0
C346 C 0.00899 0.92151 0.56286 0.0
C347 C 0.00814 0.94157 0.58456 0.0
C348 C 0.99083 0.94896 0.60653 0.0
H349 H 0.03389 0.0575 0.57778 0.0
H350 H 0.02467 0.02287 0.58285 0.0
C351 C 0.97443 0.93685 0.60474 0.0
C352 C 0.02425 0.95574 0.5787 0.0
H353 H 0.0488 0.99358 0.66129 0.0
C354 C 0.02832 0.96083 0.51997 0.0
C355 C 0.0328 0.96694 0.63022 0.0
C356 C 0.02977 0.96151 0.6943 0.0
C357 C 0.0391 0.97805 0.51154 0.0
C358 C 0.04597 0.99031 0.56309 0.0
C359 C 0.04344 0.98419 0.62178 0.0
C360 C 0.05222 0.0111 0.55735 0.0
C361 C 0.04161 0.98407 0.44775 0.0
C362 C 0.07081 0.01596 0.54064 0.0
C363 C 0.07623 0.03598 0.53767 0.0
C364 C 0.0631 0.05129 0.5514 0.0
C365 C 0.04443 0.04616 0.56706 0.0
C366 C 0.0391 0.02634 0.5701 0.0
H367 H 0.03615 0.9725 0.41238 0.0
H368 H 0.03369 0.9981 0.44031 0.0
H369 H 0.05717 0.98693 0.44195 0.0
H370 H 0.08114 0.00435 0.53072 0.0
H371 H 0.09073 0.03946 0.52564 0.0
H372 H 0.04126 0.44559 0.74949 0.0
H373 H 0.01497 0.46919 0.72873 0.0
H374 H 0.03932 0.50944 0.87482 0.0
H375 H 0.06574 0.48652 0.89396 0.0
H376 H 0.98762 0.48257 0.7955 0.0
H377 H 0.0307 0.54759 0.74601 0.0
H378 H 0.04115 0.52317 0.75 0.0
H379 H 0.0393 0.53918 0.8184 0.0
C380 C 0.04103 0.45957 0.77669 0.0
C381 C 0.05565 0.46428 0.82296 0.0
C382 C 0.02606 0.47306 0.76473 0.0
C383 C 0.02545 0.4914 0.79902 0.0
C384 C 0.03984 0.49581 0.84603 0.0
H385 H 0.92895 0.55713 0.90993 0.0
H386 H 0.95569 0.53466 0.89087 0.0
C387 C 0.05487 0.48254 0.85738 0.0
C388 C 0.00913 0.50542 0.78942 0.0
H389 H 0.99909 0.55492 0.78487 0.0
C390 C 0.99013 0.49833 0.79194 0.0
C391 C 0.01222 0.52596 0.78298 0.0
C392 C 0.03195 0.53433 0.77345 0.0
C393 C 0.97435 0.51137 0.79276 0.0
C394 C 0.97773 0.53213 0.79333 0.0
C395 C 0.99652 0.53908 0.78608 0.0
C396 C 0.96224 0.54677 0.80579 0.0
C397 C 0.95424 0.50269 0.79375 0.0
C398 C 0.9578 0.56199 0.76644 0.0
C399 C 0.94272 0.57529 0.7782 0.0
C400 C 0.93185 0.57343 0.82926 0.0
C401 C 0.93688 0.55873 0.8697 0.0
C402 C 0.95205 0.54572 0.85851 0.0
H403 H 0.95334 0.48755 0.77049 0.0
H404 H 0.95074 0.50136 0.8418 0.0
H405 H 0.94317 0.51218 0.77128 0.0
H406 H 0.96566 0.56328 0.72594 0.0
H407 H 0.9391 0.58649 0.74626 0.0
H408 H 0.42282 0.41803 0.31383 0.0
H409 H 0.42435 0.41226 0.42243 0.0
H410 H 0.42842 0.34917 0.37946 0.0
H411 H 0.42642 0.35467 0.27058 0.0
H412 H 0.39817 0.38641 0.48353 0.0
H413 H 0.47563 0.36419 0.50479 0.0
H414 H 0.46564 0.37802 0.44257 0.0
H415 H 0.46078 0.35187 0.44321 0.0
C416 C 0.42388 0.4029 0.32717 0.0
C417 C 0.42451 0.38683 0.28306 0.0
C418 C 0.42485 0.39965 0.38937 0.0
C419 C 0.42666 0.38033 0.40882 0.0
C420 C 0.4273 0.36424 0.36526 0.0
H421 H 0.44121 0.33287 0.76622 0.0
H422 H 0.43771 0.33744 0.6566 0.0
C423 C 0.42623 0.36744 0.30298 0.0
C424 C 0.42761 0.37701 0.47476 0.0
H425 H 0.45778 0.36195 0.59175 0.0
C426 C 0.41118 0.38109 0.50737 0.0
C427 C 0.44459 0.36999 0.50537 0.0
C428 C 0.46276 0.36587 0.47253 0.0
C429 C 0.4112 0.37806 0.56992 0.0
C430 C 0.42828 0.37126 0.60086 0.0
C431 C 0.44469 0.36715 0.56801 0.0
C432 C 0.42956 0.36839 0.66731 0.0
C433 C 0.39278 0.38173 0.60184 0.0
C434 C 0.42622 0.38428 0.70981 0.0
C435 C 0.4281 0.38164 0.77244 0.0
C436 C 0.43367 0.36315 0.79376 0.0
C437 C 0.43706 0.34731 0.75112 0.0
C438 C 0.43501 0.34989 0.68854 0.0
H439 H 0.37983 0.38102 0.56898 0.0
H440 H 0.39091 0.37074 0.63647 0.0
H441 H 0.39341 0.39682 0.62536 0.0
H442 H 0.42254 0.39883 0.69462 0.0
H443 H 0.42576 0.39423 0.80415 0.0
H444 H 0.57523 0.91748 0.10229 0.0
H445 H 0.56929 0.91429 0.99096 0.0
H446 H 0.63085 0.91516 0.97099 0.0
H447 H 0.6369 0.91809 0.0821 0.0
H448 H 0.58321 0.94234 0.90732 0.0
H449 H 0.61001 0.86549 0.86199 0.0
H450 H 0.60299 0.87475 0.93619 0.0
H451 H 0.62593 0.88182 0.91029 0.0
C452 C 0.5875 0.9167 0.07423 0.0
C453 C 0.60655 0.91803 0.10103 0.0
C454 C 0.58408 0.91499 0.01068 0.0
C455 C 0.59964 0.91431 0.97289 0.0
C456 C 0.61865 0.91543 0.99942 0.0
H457 H 0.61295 0.90663 0.58376 0.0
H458 H 0.61746 0.90811 0.69493 0.0
C459 C 0.62208 0.91728 0.06288 0.0
C460 C 0.59603 0.91329 0.90563 0.0
H461 H 0.60279 0.8842 0.77595 0.0
C462 C 0.58735 0.92959 0.87849 0.0
C463 C 0.6016 0.89669 0.86836 0.0
C464 C 0.61052 0.87859 0.89548 0.0
C465 C 0.58447 0.92995 0.81477 0.0
C466 C 0.59 0.91331 0.77733 0.0
C467 C 0.59857 0.89694 0.80465 0.0
C468 C 0.58714 0.91263 0.70971 0.0
C469 C 0.5761 0.9484 0.7882 0.0
C470 C 0.56857 0.91448 0.68093 0.0
C471 C 0.56596 0.91394 0.61728 0.0
C472 C 0.58185 0.91128 0.58087 0.0
C473 C 0.60041 0.9091 0.61 0.0
C474 C 0.60301 0.90976 0.6737 0.0
H475 H 0.57786 0.96159 0.82121 0.0
H476 H 0.58307 0.95168 0.74593 0.0
H477 H 0.56036 0.94608 0.77657 0.0
H478 H 0.55604 0.91626 0.70769 0.0
H479 H 0.55147 0.91579 0.59681 0.0
H480 H 0.06896 0.10778 0.79045 0.0
H481 H 0.06464 0.11033 0.90029 0.0
H482 H 0.12518 0.09756 0.93719 0.0
H483 H 0.12967 0.09524 0.82751 0.0
H484 H 0.074 0.07866 0.98337 0.0
H485 H 0.11469 0.14911 0.04703 0.0
H486 H 0.10534 0.14232 0.96976 0.0
H487 H 0.12675 0.13064 1.00076 0.0
C488 C 0.08141 0.10582 0.82194 0.0
C489 C 0.09968 0.10136 0.80032 0.0
C490 C 0.07889 0.10715 0.8846 0.0
C491 C 0.09463 0.1043 0.92669 0.0
C492 C 0.1129 0.10002 0.90538 0.0
H493 H 0.1075 0.10826 0.3233 0.0
H494 H 0.11288 0.10532 0.21448 0.0
C495 C 0.11541 0.09855 0.84277 0.0
C496 C 0.09179 0.10506 0.99284 0.0
H497 H 0.10367 0.1316 0.12776 0.0
C498 C 0.08042 0.09025 0.01503 0.0
C499 C 0.10035 0.12011 0.03383 0.0
C500 C 0.11237 0.13657 0.01188 0.0
C501 C 0.07752 0.08995 0.0775 0.0
C502 C 0.08583 0.10519 0.11853 0.0
C503 C 0.09731 0.11994 0.09626 0.0
C504 C 0.08248 0.10633 0.18456 0.0
C505 C 0.06594 0.07307 0.09904 0.0
C506 C 0.06361 0.10799 0.20393 0.0
C507 C 0.06046 0.10943 0.26609 0.0
C508 C 0.07613 0.10948 0.31039 0.0
C509 C 0.09505 0.10794 0.29072 0.0
C510 C 0.09818 0.10642 0.22844 0.0
H511 H 0.06567 0.05985 0.06602 0.0
H512 H 0.07191 0.0686 0.14419 0.0
H513 H 0.05075 0.07791 0.10352 0.0
H514 H 0.05129 0.10838 0.17092 0.0
H515 H 0.04569 0.11041 0.27926 0.0
H516 H 0.91259 0.64927 0.1096 0.0
H517 H 0.90915 0.64572 0.21848 0.0
H518 H 0.87873 0.59014 0.17515 0.0
H519 H 0.88239 0.5934 0.06643 0.0
H520 H 0.87337 0.64091 0.27873 0.0
H521 H 0.92344 0.57715 0.30292 0.0
H522 H 0.92354 0.59294 0.23972 0.0
H523 H 0.90508 0.57421 0.24106 0.0
C524 C 0.90531 0.63622 0.12328 0.0
C525 C 0.89781 0.62159 0.07929 0.0
C526 C 0.90326 0.63427 0.18544 0.0
C527 C 0.89389 0.61757 0.20482 0.0
C528 C 0.88623 0.60303 0.16113 0.0
H529 H 0.8682 0.574 0.5511 0.0
H530 H 0.87237 0.57911 0.44413 0.0
C531 C 0.88816 0.60502 0.09895 0.0
C532 C 0.89191 0.61543 0.27074 0.0
H533 H 0.90524 0.58634 0.38755 0.0
C534 C 0.8804 0.62906 0.30274 0.0
C535 C 0.90109 0.59993 0.30171 0.0
C536 C 0.91412 0.58528 0.2699 0.0
C537 C 0.87741 0.6273 0.36471 0.0
C538 C 0.88657 0.61175 0.39577 0.0
C539 C 0.89822 0.59823 0.36374 0.0
C540 C 0.88395 0.60895 0.46114 0.0
C541 C 0.864 0.64174 0.39576 0.0
C542 C 0.88926 0.62395 0.50656 0.0
C543 C 0.88666 0.62117 0.56797 0.0
C544 C 0.87887 0.60324 0.58537 0.0
C545 C 0.8739 0.58813 0.53966 0.0
C546 C 0.87642 0.59096 0.47832 0.0
H547 H 0.85422 0.64913 0.36218 0.0
H548 H 0.85502 0.63414 0.42729 0.0
H549 H 0.87274 0.65347 0.42278 0.0
H550 H 0.8955 0.6378 0.49457 0.0
H551 H 0.89057 0.6332 0.60157 0.0
H552 H 0.40892 0.11001 0.1037 0.0
H553 H 0.41336 0.11473 0.99598 0.0
H554 H 0.35405 0.0969 0.94887 0.0
H555 H 0.34942 0.09239 0.0564 0.0
H556 H 0.40674 0.08414 0.89505 0.0
H557 H 0.36074 0.15093 0.86854 0.0
H558 H 0.37041 0.14368 0.94209 0.0
H559 H 0.34993 0.13066 0.90371 0.0
C560 C 0.39676 0.10733 0.07053 0.0
C561 C 0.3788 0.10084 0.08864 0.0
C562 C 0.39935 0.10993 0.00901 0.0
C563 C 0.38398 0.10634 0.96466 0.0
C564 C 0.36603 0.09997 0.98254 0.0
H565 H 0.36834 0.11276 0.57195 0.0
H566 H 0.36437 0.10923 0.68018 0.0
C567 C 0.36346 0.09722 0.04391 0.0
C568 C 0.38685 0.10859 0.89933 0.0
H569 H 0.37241 0.13555 0.77847 0.0
C570 C 0.39934 0.09543 0.86952 0.0
C571 C 0.37706 0.12326 0.86626 0.0
C572 C 0.36388 0.13807 0.89667 0.0
C573 C 0.40201 0.09629 0.80701 0.0
C574 C 0.39229 0.11104 0.77385 0.0
C575 C 0.37985 0.12425 0.80387 0.0
C576 C 0.39483 0.11303 0.70801 0.0
C577 C 0.41478 0.08101 0.77679 0.0
C578 C 0.41324 0.11657 0.68764 0.0
C579 C 0.41561 0.11833 0.62562 0.0
C580 C 0.39957 0.11683 0.58253 0.0
C581 C 0.38108 0.11363 0.60337 0.0
C582 C 0.37875 0.11177 0.66542 0.0
H583 H 0.41651 0.06761 0.80345 0.0
H584 H 0.40882 0.07632 0.72991 0.0
H585 H 0.42939 0.08755 0.77367 0.0
H586 H 0.42581 0.11805 0.71977 0.0
H587 H 0.43008 0.12066 0.61159 0.0
H588 H 0.9071 0.86208 0.30647 0.0
H589 H 0.90185 0.8633 0.19538 0.0
H590 H 0.96251 0.8767 0.18425 0.0
H591 H 0.96784 0.87478 0.29462 0.0
H592 H 0.90562 0.89195 0.12314 0.0
H593 H 0.95615 0.83251 0.05535 0.0
H594 H 0.94946 0.83682 0.1329 0.0
H595 H 0.96842 0.85139 0.10476 0.0
C596 C 0.91928 0.86521 0.28007 0.0
C597 C 0.93791 0.86814 0.3089 0.0
C598 C 0.9163 0.86586 0.2167 0.0
C599 C 0.93187 0.86961 0.18111 0.0
C600 C 0.95039 0.87305 0.21024 0.0
H601 H 0.92374 0.91733 0.82613 0.0
H602 H 0.92608 0.91153 0.93484 0.0
C603 C 0.95342 0.87207 0.27336 0.0
C604 C 0.92867 0.87075 0.11394 0.0
H605 H 0.94631 0.85471 0.97813 0.0
C606 C 0.91438 0.88363 0.09141 0.0
C607 C 0.93977 0.85958 0.07221 0.0
C608 C 0.95414 0.84414 0.09254 0.0
C609 C 0.91136 0.88618 0.02868 0.0
C610 C 0.92345 0.87613 0.98741 0.0
C611 C 0.93725 0.8627 0.00971 0.0
C612 C 0.92229 0.87959 0.92123 0.0
C613 C 0.89505 0.89943 0.00746 0.0
C614 C 0.92032 0.86352 0.8771 0.0
C615 C 0.91946 0.86681 0.81484 0.0
C616 C 0.92037 0.88624 0.79565 0.0
C617 C 0.92261 0.90225 0.83977 0.0
C618 C 0.92382 0.89894 0.90189 0.0
H619 H 0.88341 0.90016 0.03997 0.0
H620 H 0.90071 0.91475 0.00499 0.0
H621 H 0.88857 0.89416 0.96166 0.0
H622 H 0.91926 0.84844 0.89083 0.0
H623 H 0.91767 0.85424 0.78167 0.0
H624 H 0.07613 0.41058 0.60418 0.0
H625 H 0.07101 0.40695 0.49302 0.0
H626 H 0.12923 0.4277 0.47587 0.0
H627 H 0.13476 0.43088 0.58674 0.0
H628 H 0.09784 0.44779 0.4064 0.0
H629 H 0.09607 0.36528 0.36986 0.0
H630 H 0.0815 0.37615 0.42798 0.0
H631 H 0.10741 0.37799 0.43804 0.0
C632 C 0.08801 0.41406 0.57709 0.0
C633 C 0.10587 0.42113 0.60498 0.0
C634 C 0.08501 0.41201 0.51339 0.0
C635 C 0.09977 0.41699 0.47635 0.0
C636 C 0.11765 0.42382 0.50376 0.0
H637 H 0.10985 0.40218 0.08463 0.0
H638 H 0.1151 0.40279 0.19612 0.0
C639 C 0.12072 0.42574 0.56731 0.0
C640 C 0.09637 0.41596 0.40899 0.0
H641 H 0.089 0.38366 0.28312 0.0
C642 C 0.09589 0.43379 0.3794 0.0
C643 C 0.09397 0.39765 0.37405 0.0
C644 C 0.09487 0.37811 0.40376 0.0
C645 C 0.09286 0.43379 0.31565 0.0
C646 C 0.09024 0.41551 0.28075 0.0
C647 C 0.09093 0.39765 0.31021 0.0
C648 C 0.08687 0.41473 0.21345 0.0
C649 C 0.09267 0.45331 0.28581 0.0
C650 C 0.06921 0.4211 0.18651 0.0
C651 C 0.06617 0.42075 0.12297 0.0
C652 C 0.08078 0.41412 0.08518 0.0
C653 C 0.09843 0.40762 0.11246 0.0
C654 C 0.1014 0.40782 0.17605 0.0
H655 H 0.09799 0.46583 0.31804 0.0
H656 H 0.10176 0.45241 0.24601 0.0
H657 H 0.07762 0.45663 0.26882 0.0
H658 H 0.05781 0.4264 0.21471 0.0
H659 H 0.0525 0.42599 0.10344 0.0
H660 H 0.59236 0.58296 0.81037 0.0
H661 H 0.5976 0.57993 0.70104 0.0
H662 H 0.56828 0.63552 0.67738 0.0
H663 H 0.56319 0.63877 0.78655 0.0
H664 H 0.56654 0.58037 0.60185 0.0
H665 H 0.6212 0.6408 0.59653 0.0
H666 H 0.61648 0.62914 0.66573 0.0
H667 H 0.59985 0.64705 0.63586 0.0
C668 C 0.58725 0.59465 0.78203 0.0
C669 C 0.57736 0.61111 0.80712 0.0
C670 C 0.59016 0.59284 0.7196 0.0
C671 C 0.58347 0.60759 0.68142 0.0
C672 C 0.57373 0.62409 0.7063 0.0
H673 H 0.58681 0.62532 0.29503 0.0
H674 H 0.58238 0.62856 0.40447 0.0
C675 C 0.57068 0.62583 0.76854 0.0
C676 C 0.58606 0.60542 0.61511 0.0
H677 H 0.6089 0.62591 0.50131 0.0
C678 C 0.57587 0.59024 0.57977 0.0
C679 C 0.59811 0.61845 0.58665 0.0
C680 C 0.60968 0.63472 0.623 0.0
C681 C 0.57715 0.58792 0.51629 0.0
C682 C 0.58936 0.60083 0.48774 0.0
C683 C 0.59956 0.61603 0.52324 0.0
C684 C 0.59187 0.59873 0.42118 0.0
C685 C 0.56501 0.57198 0.48029 0.0
C686 C 0.59889 0.58098 0.3943 0.0
C687 C 0.60119 0.57897 0.33162 0.0
C688 C 0.59676 0.59479 0.29442 0.0
C689 C 0.59004 0.6127 0.32181 0.0
C690 C 0.58764 0.61465 0.38454 0.0
H691 H 0.55249 0.5675 0.5055 0.0
H692 H 0.55946 0.57707 0.43543 0.0
H693 H 0.57404 0.55862 0.47199 0.0
H694 H 0.60267 0.56865 0.42186 0.0
H695 H 0.60626 0.56491 0.31243 0.0
H696 H 0.1728 0.3625 0.9278 0.0
H697 H 0.20718 0.35538 0.95083 0.0
H698 H 0.22135 0.41714 0.93666 0.0
H699 H 0.18729 0.42434 0.91231 0.0
H700 H 0.23918 0.36348 0.87608 0.0
H701 H 0.24679 0.40329 0.10548 0.0
H702 H 0.22358 0.39562 0.06866 0.0
H703 H 0.23549 0.41752 0.04679 0.0
C704 C 0.18325 0.37455 0.92936 0.0
C705 C 0.17724 0.39404 0.9188 0.0
C706 C 0.20284 0.37046 0.9428 0.0
C707 C 0.21669 0.3858 0.94641 0.0
C708 C 0.2108 0.40519 0.93541 0.0
H709 H 0.33871 0.40586 0.99928 0.0
H710 H 0.30346 0.40711 0.98448 0.0
C711 C 0.19129 0.40927 0.92172 0.0
C712 C 0.23748 0.38165 0.95968 0.0
H713 H 0.27605 0.39436 0.05969 0.0
C714 C 0.24725 0.36998 0.91656 0.0
C715 C 0.24787 0.3902 0.01252 0.0
C716 C 0.2379 0.40222 0.06137 0.0
C717 C 0.2674 0.36738 0.92354 0.0
C718 C 0.2779 0.37639 0.97567 0.0
C719 C 0.26798 0.38755 0.01967 0.0
C720 C 0.29929 0.37527 0.98408 0.0
C721 C 0.27738 0.35577 0.87382 0.0
C722 C 0.30863 0.35695 0.98924 0.0
C723 C 0.32885 0.35616 0.99696 0.0
C724 C 0.34007 0.3737 1.00007 0.0
C725 C 0.33058 0.39203 0.99575 0.0
C726 C 0.31041 0.3928 0.98787 0.0
H727 H 0.26797 0.35377 0.83087 0.0
H728 H 0.291 0.36331 0.86394 0.0
H729 H 0.28113 0.34082 0.8891 0.0
H730 H 0.3003 0.34328 0.98757 0.0
H731 H 0.3357 0.3418 0.99993 0.0
H732 H 0.58362 0.86568 0.20826 0.0
H733 H 0.57971 0.83295 0.15257 0.0
H734 H 0.56858 0.80659 0.32024 0.0
H735 H 0.5723 0.83901 0.37573 0.0
H736 H 0.60338 0.80044 0.17829 0.0
H737 H 0.52649 0.78131 0.20059 0.0
H738 H 0.53567 0.80649 0.21224 0.0
H739 H 0.5387 0.78965 0.2723 0.0
C740 C 0.57984 0.85298 0.23287 0.0
C741 C 0.57828 0.8549 0.2964 0.0
C742 C 0.5777 0.8343 0.20107 0.0
C743 C 0.57365 0.81738 0.23215 0.0
C744 C 0.57132 0.81948 0.29507 0.0
H745 H 0.5777 0.69127 0.20872 0.0
H746 H 0.5743 0.72694 0.23324 0.0
C747 C 0.57359 0.83803 0.32682 0.0
C748 C 0.57381 0.79718 0.20103 0.0
H749 H 0.54785 0.75382 0.18055 0.0
C750 C 0.59113 0.79033 0.17755 0.0
C751 C 0.55782 0.78402 0.20036 0.0
C752 C 0.53856 0.79079 0.22219 0.0
C753 C 0.59326 0.77035 0.15672 0.0
C754 C 0.57753 0.75699 0.15856 0.0
C755 C 0.55994 0.76406 0.17958 0.0
C756 C 0.57938 0.73539 0.14246 0.0
C757 C 0.61264 0.76348 0.13596 0.0
C758 C 0.58321 0.72829 0.08312 0.0
C759 C 0.58516 0.70788 0.06892 0.0
C760 C 0.58317 0.69418 0.11376 0.0
C761 C 0.57914 0.70139 0.17299 0.0
C762 C 0.57724 0.72177 0.18713 0.0
H763 H 0.62429 0.77464 0.14902 0.0
H764 H 0.61683 0.74923 0.15565 0.0
H765 H 0.61163 0.76097 0.0855 0.0
H766 H 0.58455 0.73852 0.04766 0.0
H767 H 0.58789 0.70281 0.02257 0.0
H768 H 0.30514 0.11084 0.47037 0.0
H769 H 0.27051 0.10958 0.48497 0.0
H770 H 0.25774 0.12662 0.30122 0.0
H771 H 0.29253 0.12757 0.2856 0.0
H772 H 0.2363 0.14752 0.39394 0.0
H773 H 0.23268 0.0657 0.40534 0.0
H774 H 0.25175 0.07736 0.45476 0.0
H775 H 0.25245 0.07811 0.3734 0.0
C776 C 0.295 0.11421 0.43281 0.0
C777 C 0.30163 0.11909 0.37657 0.0
C778 C 0.27521 0.11346 0.44127 0.0
C779 C 0.26158 0.11759 0.39375 0.0
C780 C 0.26806 0.12321 0.33825 0.0
H781 H 0.13778 0.09523 0.4433 0.0
H782 H 0.16863 0.09599 0.39402 0.0
C783 C 0.28793 0.12389 0.3296 0.0
C784 C 0.24062 0.11622 0.40309 0.0
H785 H 0.20619 0.08427 0.44456 0.0
C786 C 0.2296 0.13365 0.40403 0.0
C787 C 0.23184 0.09804 0.41523 0.0
C788 C 0.24272 0.07868 0.41159 0.0
C789 C 0.21035 0.13359 0.42061 0.0
C790 C 0.20203 0.11568 0.43711 0.0
C791 C 0.21265 0.09802 0.43239 0.0
C792 C 0.18317 0.11538 0.46519 0.0
C793 C 0.1992 0.1528 0.42181 0.0
C794 C 0.18131 0.12571 0.52184 0.0
C795 C 0.1639 0.12518 0.55016 0.0
C796 C 0.14792 0.11427 0.52249 0.0
C797 C 0.14981 0.10378 0.46577 0.0
C798 C 0.16738 0.10423 0.43753 0.0
H799 H 0.20521 0.16347 0.3915 0.0
H800 H 0.18365 0.15011 0.4076 0.0
H801 H 0.20022 0.15979 0.46903 0.0
H802 H 0.19344 0.13406 0.54456 0.0
H803 H 0.16303 0.1334 0.59385 0.0
H804 H 0.92282 0.65896 0.76514 0.0
H805 H 0.93549 0.68908 0.72469 0.0
H806 H 0.88685 0.72222 0.78987 0.0
H807 H 0.875 0.69258 0.83376 0.0
H808 H 0.92394 0.71082 0.64234 0.0
H809 H 0.92758 0.7601 0.85218 0.0
H810 H 0.92281 0.73383 0.8533 0.0
H811 H 0.9033 0.75092 0.83776 0.0
C812 C 0.91497 0.67276 0.77115 0.0
C813 C 0.89806 0.67352 0.8031 0.0
C814 C 0.92222 0.68998 0.74813 0.0
C815 C 0.91249 0.70821 0.75565 0.0
C816 C 0.89518 0.70869 0.78572 0.0
H817 H 0.90995 0.80137 0.51437 0.0
H818 H 0.90862 0.77083 0.56624 0.0
C819 C 0.88825 0.69164 0.81017 0.0
C820 C 0.91971 0.72643 0.72912 0.0
H821 H 0.92519 0.77668 0.75716 0.0
C822 C 0.92453 0.72514 0.66797 0.0
C823 C 0.92121 0.74517 0.76258 0.0
C824 C 0.91868 0.74751 0.83027 0.0
C825 C 0.92961 0.74208 0.63857 0.0
C826 C 0.92891 0.76108 0.67006 0.0
C827 C 0.9253 0.76225 0.73225 0.0
C828 C 0.93038 0.77984 0.63828 0.0
C829 C 0.93572 0.73929 0.574 0.0
C830 C 0.94238 0.79573 0.6628 0.0
C831 C 0.94272 0.81369 0.63389 0.0
C832 C 0.93126 0.81594 0.57958 0.0
C833 C 0.91932 0.80002 0.55534 0.0
C834 C 0.91866 0.78238 0.5848 0.0
H835 H 0.94314 0.72482 0.56648 0.0
H836 H 0.92267 0.73909 0.5417 0.0
H837 H 0.94562 0.75134 0.56308 0.0
H838 H 0.95139 0.79429 0.70446 0.0
H839 H 0.95192 0.82576 0.65394 0.0
H840 H 0.83597 0.86655 0.59302 0.0
H841 H 0.8006 0.86755 0.5762 0.0
H842 H 0.80595 0.87276 0.38382 0.0
H843 H 0.84136 0.87176 0.40019 0.0
H844 H 0.78023 0.90171 0.51195 0.0
H845 H 0.76504 0.82571 0.40418 0.0
H846 H 0.78629 0.83144 0.45483 0.0
H847 H 0.78503 0.83937 0.37849 0.0
C848 C 0.8296 0.86758 0.547 0.0
C849 C 0.8414 0.86902 0.49783 0.0
C850 C 0.80944 0.86824 0.53756 0.0
C851 C 0.80077 0.87007 0.47878 0.0
C852 C 0.81244 0.87116 0.42943 0.0
H853 H 0.68455 0.8805 0.31672 0.0
H854 H 0.71906 0.87438 0.33932 0.0
C855 C 0.83262 0.8707 0.43889 0.0
C856 C 0.77954 0.87204 0.46947 0.0
H857 H 0.73872 0.84795 0.40737 0.0
C858 C 0.77108 0.88995 0.48948 0.0
C859 C 0.76782 0.85669 0.43969 0.0
C860 C 0.77638 0.83712 0.41819 0.0
C861 C 0.75112 0.89313 0.47923 0.0
C862 C 0.73928 0.87771 0.44976 0.0
C863 C 0.7478 0.85971 0.43018 0.0
C864 C 0.71814 0.88024 0.43701 0.0
C865 C 0.74308 0.91323 0.49809 0.0
C866 C 0.70607 0.88506 0.48456 0.0
C867 C 0.68639 0.88871 0.47171 0.0
C868 C 0.67836 0.88722 0.41116 0.0
C869 C 0.69031 0.88159 0.36386 0.0
C870 C 0.71002 0.87816 0.37669 0.0
H871 H 0.7546 0.92486 0.50418 0.0
H872 H 0.73177 0.91791 0.46379 0.0
H873 H 0.73643 0.91242 0.54236 0.0
H874 H 0.71192 0.88621 0.53159 0.0
H875 H 0.67744 0.89277 0.50906 0.0
H876 H 0.11344 0.20324 0.60732 0.0
H877 H 0.11122 0.23867 0.63708 0.0
H878 H 0.04935 0.23282 0.64438 0.0
H879 H 0.05127 0.19757 0.61172 0.0
H880 H 0.05989 0.26755 0.59353 0.0
H881 H 0.1027 0.25795 0.81216 0.0
H882 H 0.11497 0.24985 0.74573 0.0
H883 H 0.09332 0.23715 0.76312 0.0
C884 C 0.0993 0.20951 0.6142 0.0
C885 C 0.08256 0.19742 0.60785 0.0
C886 C 0.09809 0.22975 0.63184 0.0
C887 C 0.08017 0.2383 0.6442 0.0
C888 C 0.06335 0.2265 0.6356 0.0
H889 H 0.06628 0.34379 0.87874 0.0
H890 H 0.06387 0.31074 0.8263 0.0
C891 C 0.06452 0.20628 0.61758 0.0
C892 C 0.07905 0.25927 0.66878 0.0
H893 H 0.09484 0.29086 0.78959 0.0
C894 C 0.06751 0.27269 0.63641 0.0
C895 C 0.08878 0.26586 0.72517 0.0
C896 C 0.10049 0.25194 0.76393 0.0
C897 C 0.06554 0.29258 0.65881 0.0
C898 C 0.07564 0.29923 0.71453 0.0
C899 C 0.08715 0.28577 0.74676 0.0
C900 C 0.07426 0.3199 0.74179 0.0
C901 C 0.05234 0.30611 0.62342 0.0
C902 C 0.08034 0.33623 0.71111 0.0
C903 C 0.08148 0.35527 0.74089 0.0
C904 C 0.07689 0.35818 0.80212 0.0
C905 C 0.07 0.34198 0.83165 0.0
C906 C 0.06865 0.32308 0.80175 0.0
H907 H 0.04183 0.29755 0.59129 0.0
H908 H 0.04417 0.31604 0.65462 0.0
H909 H 0.06118 0.31553 0.59629 0.0
H910 H 0.0851 0.3341 0.66528 0.0
H911 H 0.08705 0.36744 0.71722 0.0
H912 H 0.63506 0.60407 0.93075 0.0
H913 H 0.66628 0.60535 0.88367 0.0
H914 H 0.69603 0.61351 0.0622 0.0
H915 H 0.66515 0.61241 0.10938 0.0
H916 H 0.69608 0.63978 0.91039 0.0
H917 H 0.72265 0.56496 0.96574 0.0
H918 H 0.69719 0.57107 0.95943 0.0
H919 H 0.71197 0.5792 0.02675 0.0
C920 C 0.64829 0.60593 0.9599 0.0
C921 C 0.64766 0.60812 0.0238 0.0
C922 C 0.66605 0.60675 0.93295 0.0
C923 C 0.68339 0.60944 0.96959 0.0
C924 C 0.68279 0.6113 0.03323 0.0
H925 H 0.80523 0.61975 0.97113 0.0
H926 H 0.77088 0.61742 0.98927 0.0
C927 C 0.66512 0.6107 0.06007 0.0
C928 C 0.70229 0.61084 0.94234 0.0
H929 H 0.74609 0.58793 0.9377 0.0
C930 C 0.70697 0.62834 0.91521 0.0
C931 C 0.71637 0.5959 0.94902 0.0
C932 C 0.71183 0.57662 0.97638 0.0
C933 C 0.72582 0.63175 0.89762 0.0
C934 C 0.74015 0.61709 0.90659 0.0
C935 C 0.73513 0.59922 0.93119 0.0
C936 C 0.76078 0.62037 0.89506 0.0
C937 C 0.73049 0.65138 0.87262 0.0
C938 C 0.76654 0.62319 0.83617 0.0
C939 C 0.78625 0.62467 0.82575 0.0
C940 C 0.80047 0.62309 0.87397 0.0
C941 C 0.79459 0.62085 0.93304 0.0
C942 C 0.77498 0.61951 0.94344 0.0
H943 H 0.71899 0.66256 0.88033 0.0
H944 H 0.74447 0.65746 0.89391 0.0
H945 H 0.73189 0.64911 0.82271 0.0
H946 H 0.75585 0.62356 0.79796 0.0
H947 H 0.79039 0.62615 0.77965 0.0
H948 H 0.3991 0.30141 0.02631 0.0
H949 H 0.39798 0.27122 0.08028 0.0
H950 H 0.45039 0.28918 0.18779 0.0
H951 H 0.45092 0.32032 0.13555 0.0
H952 H 0.42063 0.24135 0.08462 0.0
H953 H 0.41808 0.27509 0.321 0.0
H954 H 0.41581 0.28972 0.25528 0.0
H955 H 0.43929 0.28175 0.28412 0.0
C956 C 0.41042 0.29902 0.0615 0.0
C957 C 0.42514 0.31325 0.0766 0.0
C958 C 0.40976 0.28167 0.09241 0.0
C959 C 0.42397 0.27787 0.1387 0.0
C960 C 0.43895 0.29193 0.15339 0.0
H961 H 0.42163 0.15516 0.25849 0.0
H962 H 0.43219 0.18532 0.21333 0.0
C963 C 0.43936 0.30964 0.1232 0.0
C964 C 0.42284 0.25899 0.17009 0.0
H965 H 0.41884 0.24011 0.30908 0.0
C966 C 0.42028 0.24109 0.13378 0.0
C967 C 0.42227 0.2586 0.23423 0.0
C968 C 0.42382 0.27732 0.27596 0.0
C969 C 0.41634 0.22306 0.15918 0.0
C970 C 0.4159 0.22262 0.22336 0.0
C971 C 0.41923 0.24038 0.25994 0.0
C972 C 0.41053 0.20434 0.2532 0.0
C973 C 0.41161 0.20499 0.11639 0.0
C974 C 0.39544 0.20505 0.29297 0.0
C975 C 0.38983 0.188 0.32025 0.0
C976 C 0.39896 0.16974 0.30763 0.0
C977 C 0.41416 0.16898 0.26829 0.0
C978 C 0.42011 0.1862 0.24216 0.0
H979 H 0.4071 0.20916 0.06952 0.0
H980 H 0.42469 0.19559 0.11335 0.0
H981 H 0.3998 0.19599 0.13285 0.0
H982 H 0.38778 0.21879 0.30238 0.0
H983 H 0.37806 0.18904 0.35032 0.0
loop_
_geom_bond_atom_site_label_1
_geom_bond_atom_site_label_2
_geom_bond_distance
_geom_bond_site_symmetry_2
_ccdc_geom_bond_type
C0 C1 1.351 . S
C0 N3 1.368 . S
C0 H5 0.931 . S
C1 C0 1.351 . S
C1 N2 1.373 . S
C1 H29 0.930 . S
N2 C1 1.373 . S
N2 C4 1.340 . S
N3 C0 1.368 . S
N3 C4 1.321 . S
N3 Co6 2.135 . S
C4 N2 1.340 . S
C4 N3 1.321 . S
C4 H28 0.930 . S
H5 C0 0.931 . S
Co6 N3 2.135 . S
Co6 N9 2.121 1_554 S
Co6 O14 2.055 . S
Co6 O17 2.039 . S
Co6 N20 2.140 . S
C7 O8 1.227 . S
C7 O17 1.265 . S
O8 C7 1.227 . S
N9 Co6 2.121 1_556 S
N9 C11 1.375 . S
N9 C12 1.313 . S
C10 C11 1.338 . S
C10 N13 1.377 . S
C10 H30 0.930 . S
C11 N9 1.375 . S
C11 C10 1.338 . S
C11 H15 0.931 . S
C12 N9 1.313 . S
C12 N13 1.344 . S
C12 H16 0.930 . S
N13 C10 1.377 . S
N13 C12 1.344 . S
O14 Co6 2.055 . S
O14 C18 1.253 . S
H15 C11 0.931 . S
H16 C12 0.930 . S
O17 Co6 2.039 . S
O17 C7 1.265 . S
C18 O14 1.253 . S
C18 O19 1.227 . S
O19 C18 1.227 . S
N20 Co6 2.140 . S
N20 C23 1.346 . S
N20 C24 1.345 . S
C21 C22 1.387 . S
C21 C25 1.391 . S
C22 C21 1.387 . S
C22 C23 1.369 . S
C22 H31 0.929 . S
C23 N20 1.346 . S
C23 C22 1.369 . S
C23 H26 0.928 . S
C24 N20 1.345 . S
C24 C25 1.371 . S
C24 H27 0.931 . S
C25 C21 1.391 . S
C25 C24 1.371 . S
C25 H32 0.930 1_554 S
H26 C23 0.928 . S
H27 C24 0.931 . S
H28 C4 0.930 . S
H29 C1 0.930 . S
H30 C10 0.930 . S
H31 C22 0.929 . S
H32 C25 0.930 1_556 S
C33 C34 1.351 . S
C33 N36 1.368 . S
C33 H38 0.931 . S
C34 C33 1.351 . S
C34 N35 1.373 . S
C34 H62 0.930 . S
N35 C34 1.373 . S
N35 C37 1.340 . S
N36 C33 1.368 . S
N36 C37 1.321 . S
N36 Co39 2.135 . S
C37 N35 1.340 . S
C37 N36 1.321 . S
C37 H61 0.930 . S
H38 C33 0.931 . S
Co39 N36 2.135 . S
Co39 N42 2.121 . S
Co39 O47 2.055 . S
Co39 O50 2.039 . S
Co39 N53 2.140 . S
C40 O41 1.227 . S
C40 O50 1.265 . S
O41 C40 1.227 . S
N42 Co39 2.121 . S
N42 C44 1.375 . S
N42 C45 1.313 . S
C43 C44 1.338 . S
C43 N46 1.377 . S
C43 H63 0.930 . S
C44 N42 1.375 . S
C44 C43 1.338 . S
C44 H48 0.931 . S
C45 N42 1.313 . S
C45 N46 1.344 . S
C45 H49 0.930 . S
N46 C43 1.377 . S
N46 C45 1.344 . S
O47 Co39 2.055 . S
O47 C51 1.253 . S
H48 C44 0.931 . S
H49 C45 0.930 . S
O50 Co39 2.039 . S
O50 C40 1.265 . S
C51 O47 1.253 . S
C51 O52 1.227 . S
O52 C51 1.227 . S
N53 Co39 2.140 . S
N53 C56 1.346 . S
N53 C57 1.345 . S
C54 C55 1.387 . S
C54 C58 1.391 . S
C55 C54 1.387 . S
C55 C56 1.369 . S
C55 H64 0.929 . S
C56 N53 1.346 . S
C56 C55 1.369 . S
C56 H59 0.928 . S
C57 N53 1.345 . S
C57 C58 1.371 . S
C57 H60 0.931 . S
C58 C54 1.391 . S
C58 C57 1.371 . S
C58 H65 0.930 . S
H59 C56 0.928 . S
H60 C57 0.931 . S
H61 C37 0.930 . S
H62 C34 0.930 . S
H63 C43 0.930 . S
H64 C55 0.929 . S
H65 C58 0.930 . S
C66 C67 1.351 . S
C66 N69 1.368 . S
C66 H71 0.931 . S
C67 C66 1.351 . S
C67 N68 1.373 . S
C67 H95 0.930 . S
N68 C67 1.373 . S
N68 C70 1.340 . S
N69 C66 1.368 . S
N69 C70 1.321 . S
N69 Co72 2.135 . S
C70 N68 1.340 . S
C70 N69 1.321 . S
C70 H94 0.930 . S
H71 C66 0.931 . S
Co72 N69 2.135 . S
Co72 N75 2.121 . S
Co72 O80 2.055 . S
Co72 O83 2.039 . S
Co72 N86 2.140 . S
C73 O74 1.227 . S
C73 O83 1.265 . S
O74 C73 1.227 . S
N75 Co72 2.121 . S
N75 C77 1.375 . S
N75 C78 1.313 . S
C76 C77 1.338 . S
C76 N79 1.377 . S
C76 H96 0.930 . S
C77 N75 1.375 . S
C77 C76 1.338 . S
C77 H81 0.931 . S
C78 N75 1.313 . S
C78 N79 1.344 . S
C78 H82 0.930 . S
N79 C76 1.377 . S
N79 C78 1.344 . S
O80 Co72 2.055 . S
O80 C84 1.253 . S
H81 C77 0.931 . S
H82 C78 0.930 . S
O83 Co72 2.039 . S
O83 C73 1.265 . S
C84 O80 1.253 . S
C84 O85 1.227 . S
O85 C84 1.227 . S
N86 Co72 2.140 . S
N86 C89 1.346 . S
N86 C90 1.345 . S
C87 C88 1.387 . S
C87 C91 1.391 . S
C88 C87 1.387 . S
C88 C89 1.369 . S
C88 H97 0.929 . S
C89 N86 1.346 . S
C89 C88 1.369 . S
C89 H92 0.928 . S
C90 N86 1.345 . S
C90 C91 1.371 . S
C90 H93 0.931 . S
C91 C87 1.391 . S
C91 C90 1.371 . S
C91 H98 0.930 . S
H92 C89 0.928 . S
H93 C90 0.931 . S
H94 C70 0.930 . S
H95 C67 0.930 . S
H96 C76 0.930 . S
H97 C88 0.929 . S
H98 C91 0.930 . S
C99 C100 1.351 . S
C99 N102 1.368 . S
C99 H104 0.931 . S
C100 C99 1.351 . S
C100 N101 1.373 . S
C100 H128 0.930 . S
N101 C100 1.373 . S
N101 C103 1.340 . S
N102 C99 1.368 . S
N102 C103 1.321 . S
N102 Co105 2.135 . S
C103 N101 1.340 . S
C103 N102 1.321 . S
C103 H127 0.930 . S
H104 C99 0.931 . S
Co105 N102 2.135 . S
Co105 N108 2.121 . S
Co105 O113 2.055 . S
Co105 O116 2.039 . S
Co105 N119 2.140 . S
C106 O107 1.227 . S
C106 O116 1.265 . S
O107 C106 1.227 . S
N108 Co105 2.121 . S
N108 C110 1.375 . S
N108 C111 1.313 . S
C109 C110 1.338 1_554 S
C109 N112 1.377 . S
C109 H129 0.930 . S
C110 N108 1.375 . S
C110 C109 1.338 1_556 S
C110 H114 0.931 . S
C111 N108 1.313 . S
C111 N112 1.344 1_556 S
C111 H115 0.930 . S
N112 C109 1.377 . S
N112 C111 1.344 1_554 S
O113 Co105 2.055 . S
O113 C117 1.253 . S
H114 C110 0.931 . S
H115 C111 0.930 . S
O116 Co105 2.039 . S
O116 C106 1.265 . S
C117 O113 1.253 . S
C117 O118 1.227 . S
O118 C117 1.227 . S
N119 Co105 2.140 . S
N119 C122 1.346 . S
N119 C123 1.345 . S
C120 C121 1.387 . S
C120 C124 1.391 . S
C121 C120 1.387 . S
C121 C122 1.369 . S
C121 H130 0.929 . S
C122 N119 1.346 . S
C122 C121 1.369 . S
C122 H125 0.928 . S
C123 N119 1.345 . S
C123 C124 1.371 . S
C123 H126 0.931 . S
C124 C120 1.391 . S
C124 C123 1.371 . S
C124 H131 0.930 . S
H125 C122 0.928 . S
H126 C123 0.931 . S
H127 C103 0.930 . S
H128 C100 0.930 . S
H129 C109 0.930 . S
H130 C121 0.929 . S
H131 C124 0.930 . S
C132 C133 1.351 . S
C132 N135 1.368 . S
C132 H137 0.931 . S
C133 C132 1.351 . S
C133 N134 1.373 . S
C133 H161 0.930 . S
N134 C133 1.373 . S
N134 C136 1.340 . S
N135 C132 1.368 . S
N135 C136 1.321 . S
N135 Co138 2.135 . S
C136 N134 1.340 . S
C136 N135 1.321 . S
C136 H160 0.930 . S
H137 C132 0.931 . S
Co138 N135 2.135 . S
Co138 N141 2.121 . S
Co138 O146 2.055 . S
Co138 O149 2.039 . S
Co138 N152 2.140 . S
C139 O140 1.227 . S
C139 O149 1.265 . S
O140 C139 1.227 . S
N141 Co138 2.121 . S
N141 C143 1.375 . S
N141 C144 1.313 . S
C142 C143 1.338 . S
C142 N145 1.377 . S
C142 H162 0.930 . S
C143 N141 1.375 . S
C143 C142 1.338 . S
C143 H147 0.931 . S
C144 N141 1.313 . S
C144 N145 1.344 . S
C144 H148 0.930 . S
N145 C142 1.377 . S
N145 C144 1.344 . S
O146 Co138 2.055 . S
O146 C150 1.253 . S
H147 C143 0.931 . S
H148 C144 0.930 . S
O149 Co138 2.039 . S
O149 C139 1.265 . S
C150 O146 1.253 . S
C150 O151 1.227 . S
O151 C150 1.227 . S
N152 Co138 2.140 . S
N152 C155 1.346 . S
N152 C156 1.345 . S
C153 C154 1.387 . S
C153 C157 1.391 . S
C154 C153 1.387 . S
C154 C155 1.369 . S
C154 H163 0.929 . S
C155 N152 1.346 . S
C155 C154 1.369 . S
C155 H158 0.928 . S
C156 N152 1.345 . S
C156 C157 1.371 . S
C156 H159 0.931 . S
C157 C153 1.391 . S
C157 C156 1.371 . S
C157 H164 0.930 . S
H158 C155 0.928 . S
H159 C156 0.931 . S
H160 C136 0.930 . S
H161 C133 0.930 . S
H162 C142 0.930 . S
H163 C154 0.929 . S
H164 C157 0.930 . S
C165 C166 1.351 . S
C165 N168 1.368 . S
C165 H170 0.931 . S
C166 C165 1.351 . S
C166 N167 1.373 . S
C166 H194 0.930 . S
N167 C166 1.373 . S
N167 C169 1.340 . S
N168 C165 1.368 . S
N168 C169 1.321 . S
N168 Co171 2.135 . S
C169 N167 1.340 . S
C169 N168 1.321 . S
C169 H193 0.930 . S
H170 C165 0.931 . S
Co171 N168 2.135 . S
Co171 N174 2.121 . S
Co171 O179 2.055 . S
Co171 O182 2.039 . S
Co171 N185 2.140 . S
C172 O173 1.227 . S
C172 O182 1.265 . S
O173 C172 1.227 . S
N174 Co171 2.121 . S
N174 C176 1.375 . S
N174 C177 1.313 . S
C175 C176 1.338 . S
C175 N178 1.377 . S
C175 H195 0.930 . S
C176 N174 1.375 . S
C176 C175 1.338 . S
C176 H180 0.931 . S
C177 N174 1.313 . S
C177 N178 1.344 . S
C177 H181 0.930 . S
N178 C175 1.377 . S
N178 C177 1.344 . S
O179 Co171 2.055 . S
O179 C183 1.253 . S
H180 C176 0.931 . S
H181 C177 0.930 . S
O182 Co171 2.039 . S
O182 C172 1.265 . S
C183 O179 1.253 . S
C183 O184 1.227 . S
O184 C183 1.227 . S
N185 Co171 2.140 . S
N185 C188 1.346 . S
N185 C189 1.345 . S
C186 C187 1.387 . S
C186 C190 1.391 . S
C187 C186 1.387 . S
C187 C188 1.369 . S
C187 H196 0.929 . S
C188 N185 1.346 . S
C188 C187 1.369 . S
C188 H191 0.928 . S
C189 N185 1.345 . S
C189 C190 1.371 . S
C189 H192 0.931 . S
C190 C186 1.391 . S
C190 C189 1.371 . S
C190 H197 0.930 . S
H191 C188 0.928 . S
H192 C189 0.931 . S
H193 C169 0.930 . S
H194 C166 0.930 . S
H195 C175 0.930 . S
H196 C187 0.929 . S
H197 C190 0.930 . S
C198 C199 1.351 . S
C198 N201 1.368 . S
C198 H203 0.931 . S
C199 C198 1.351 . S
C199 N200 1.373 . S
C199 H227 0.930 . S
N200 C199 1.373 . S
N200 C202 1.340 . S
N201 C198 1.368 . S
N201 C202 1.321 . S
N201 Co204 2.135 . S
C202 N200 1.340 . S
C202 N201 1.321 . S
C202 H226 0.930 . S
H203 C198 0.931 . S
Co204 N201 2.135 . S
Co204 N207 2.121 . S
Co204 O212 2.055 . S
Co204 O215 2.039 . S
Co204 N218 2.140 . S
C205 O206 1.227 . S
C205 O215 1.265 . S
O206 C205 1.227 . S
N207 Co204 2.121 . S
N207 C209 1.375 . S
N207 C210 1.313 . S
C208 C209 1.338 1_554 S
C208 N211 1.377 . S
C208 H228 0.930 . S
C209 N207 1.375 . S
C209 C208 1.338 1_556 S
C209 H213 0.931 . S
C210 N207 1.313 . S
C210 N211 1.344 1_556 S
C210 H214 0.930 . S
N211 C208 1.377 . S
N211 C210 1.344 1_554 S
O212 Co204 2.055 . S
O212 C216 1.253 . S
H213 C209 0.931 . S
H214 C210 0.930 . S
O215 Co204 2.039 . S
O215 C205 1.265 . S
C216 O212 1.253 . S
C216 O217 1.227 . S
O217 C216 1.227 . S
N218 Co204 2.140 . S
N218 C221 1.346 . S
N218 C222 1.345 . S
C219 C220 1.387 . S
C219 C223 1.391 . S
C220 C219 1.387 . S
C220 C221 1.369 . S
C220 H229 0.929 . S
C221 N218 1.346 . S
C221 C220 1.369 . S
C221 H224 0.928 . S
C222 N218 1.345 . S
C222 C223 1.371 . S
C222 H225 0.931 . S
C223 C219 1.391 . S
C223 C222 1.371 . S
C223 H230 0.930 . S
H224 C221 0.928 . S
H225 C222 0.931 . S
H226 C202 0.930 . S
H227 C199 0.930 . S
H228 C208 0.930 . S
H229 C220 0.929 . S
H230 C223 0.930 . S
C231 C232 1.351 . S
C231 N234 1.368 . S
C231 H236 0.931 . S
C232 C231 1.351 . S
C232 N233 1.373 . S
C232 H260 0.930 . S
N233 C232 1.373 . S
N233 C235 1.340 . S
N234 C231 1.368 . S
N234 C235 1.321 . S
N234 Co237 2.135 1_556 S
C235 N233 1.340 . S
C235 N234 1.321 . S
C235 H259 0.930 . S
H236 C231 0.931 . S
Co237 N234 2.135 1_554 S
Co237 N240 2.121 . S
Co237 O245 2.055 . S
Co237 O248 2.039 1_554 S
Co237 N251 2.140 . S
C238 O239 1.227 . S
C238 O248 1.265 . S
O239 C238 1.227 . S
N240 Co237 2.121 . S
N240 C242 1.375 . S
N240 C243 1.313 . S
C241 C242 1.338 . S
C241 N244 1.377 . S
C241 H261 0.930 . S
C242 N240 1.375 . S
C242 C241 1.338 . S
C242 H246 0.931 . S
C243 N240 1.313 . S
C243 N244 1.344 . S
C243 H247 0.930 . S
N244 C241 1.377 . S
N244 C243 1.344 . S
O245 Co237 2.055 . S
O245 C249 1.253 . S
H246 C242 0.931 . S
H247 C243 0.930 . S
O248 Co237 2.039 1_556 S
O248 C238 1.265 . S
C249 O245 1.253 . S
C249 O250 1.227 . S
O250 C249 1.227 . S
N251 Co237 2.140 . S
N251 C254 1.346 1_554 S
N251 C255 1.345 . S
C252 C253 1.387 1_554 S
C252 C256 1.391 . S
C253 C252 1.387 1_556 S
C253 C254 1.369 . S
C253 H262 0.929 . S
C254 N251 1.346 1_556 S
C254 C253 1.369 . S
C254 H257 0.928 . S
C255 N251 1.345 . S
C255 C256 1.371 . S
C255 H258 0.931 . S
C256 C252 1.391 . S
C256 C255 1.371 . S
C256 H263 0.930 . S
H257 C254 0.928 . S
H258 C255 0.931 . S
H259 C235 0.930 . S
H260 C232 0.930 . S
H261 C241 0.930 . S
H262 C253 0.929 . S
H263 C256 0.930 . S
H264 C272 0.929 . S
H265 C274 0.930 . S
H266 C276 0.930 . S
H267 C279 0.929 . S
H268 C282 0.930 . S
H269 C284 0.960 . S
H270 C284 0.960 1_556 S
H271 C284 0.960 . S
C272 H264 0.929 . S
C272 C273 1.377 1_556 S
C272 C274 1.384 . S
C273 C272 1.377 1_554 S
C273 C279 1.390 . S
C274 H265 0.930 . S
C274 C272 1.384 . S
C274 C275 1.372 1_556 S
C275 C274 1.372 1_554 S
C275 C276 1.400 . S
C275 C280 1.490 . S
C276 H266 0.930 . S
C276 C275 1.400 . S
C276 C279 1.386 . S
H277 C293 0.930 . S
H278 C294 0.931 . S
C279 H267 0.929 . S
C279 C273 1.390 . S
C279 C276 1.386 . S
C280 C275 1.490 . S
C280 C282 1.395 . S
C280 C283 1.403 . S
H281 C287 0.930 . S
C282 H268 0.930 . S
C282 C280 1.395 . S
C282 C285 1.403 . S
C283 C280 1.403 . S
C283 C284 1.524 . S
C283 C287 1.400 . S
C284 H269 0.960 . S
C284 H270 0.960 1_554 S
C284 H271 0.960 . S
C284 C283 1.524 . S
C285 C282 1.403 . S
C285 C286 1.392 . S
C285 C289 1.495 . S
C286 C285 1.392 . S
C286 C287 1.385 . S
C286 C288 1.478 . S
C287 H281 0.930 . S
C287 C283 1.400 . S
C287 C286 1.385 . S
C288 C286 1.478 . S
C288 C290 1.381 . S
C288 C294 1.383 . S
C289 C285 1.495 . S
C289 H295 0.959 . S
C289 H296 0.961 . S
C289 H297 0.960 . S
C290 C288 1.381 . S
C290 C291 1.394 . S
C290 H298 0.930 1_554 S
C291 C290 1.394 . S
C291 C292 1.383 . S
C291 H299 0.929 1_554 S
C292 C291 1.383 . S
C292 C293 1.377 . S
C293 H277 0.930 . S
C293 C292 1.377 . S
C293 C294 1.379 . S
C294 H278 0.931 . S
C294 C288 1.383 . S
C294 C293 1.379 . S
H295 C289 0.959 . S
H296 C289 0.961 . S
H297 C289 0.960 . S
H298 C290 0.930 1_556 S
H299 C291 0.929 1_556 S
H300 C308 0.929 . S
H301 C310 0.930 . S
H302 C312 0.930 . S
H303 C315 0.929 . S
H304 C318 0.930 . S
H305 C320 0.960 . S
H306 C320 0.960 . S
H307 C320 0.939 1_545 S
C308 H300 0.929 . S
C308 C309 1.377 . S
C308 C310 1.384 . S
C309 C308 1.377 . S
C309 C315 1.390 . S
C310 H301 0.930 . S
C310 C308 1.384 . S
C310 C311 1.372 . S
C311 C310 1.372 . S
C311 C312 1.400 . S
C311 C316 1.490 . S
C312 H302 0.930 . S
C312 C311 1.400 . S
C312 C315 1.386 . S
H313 C329 0.930 . S
H314 C330 0.931 . S
C315 H303 0.929 . S
C315 C309 1.390 . S
C315 C312 1.386 . S
C316 C311 1.490 . S
C316 C318 1.395 . S
C316 C319 1.397 1_545 S
H317 C323 0.930 . S
C318 H304 0.930 . S
C318 C316 1.395 . S
C318 C321 1.403 . S
C319 C316 1.397 1_565 S
C319 C320 1.525 . S
C319 C323 1.404 . S
C320 H305 0.960 . S
C320 H306 0.960 . S
C320 H307 0.939 1_565 S
C320 C319 1.525 . S
C321 C318 1.403 . S
C321 C322 1.392 1_545 S
C321 C325 1.495 . S
C322 C321 1.392 1_565 S
C322 C323 1.385 . S
C322 C324 1.478 . S
C323 H317 0.930 . S
C323 C319 1.404 . S
C323 C322 1.385 . S
C324 C322 1.478 . S
C324 C326 1.381 . S
C324 C330 1.383 . S
C325 C321 1.495 . S
C325 H331 0.959 . S
C325 H332 0.961 . S
C325 H333 0.960 . S
C326 C324 1.381 . S
C326 C327 1.394 . S
C326 H334 0.930 . S
C327 C326 1.394 . S
C327 C328 1.383 . S
C327 H335 0.929 . S
C328 C327 1.383 . S
C328 C329 1.377 . S
C329 H313 0.930 . S
C329 C328 1.377 . S
C329 C330 1.379 . S
C330 H314 0.931 . S
C330 C324 1.383 . S
C330 C329 1.379 . S
H331 C325 0.959 . S
H332 C325 0.961 . S
H333 C325 0.960 . S
H334 C326 0.930 . S
H335 C327 0.929 . S
H336 C344 0.929 . S
H337 C346 0.930 . S
H338 C348 0.930 . S
H339 C351 0.929 . S
H340 C354 0.930 . S
H341 C356 0.960 . S
H342 C356 0.960 . S
H343 C356 0.960 . S
C344 H336 0.929 . S
C344 C345 1.377 . S
C344 C346 1.384 . S
C345 C344 1.377 . S
C345 C351 1.390 . S
C346 H337 0.930 . S
C346 C344 1.384 . S
C346 C347 1.372 . S
C347 C346 1.372 . S
C347 C348 1.400 . S
C347 C352 1.490 . S
C348 H338 0.930 . S
C348 C347 1.400 . S
C348 C351 1.386 . S
H349 C365 0.930 . S
H350 C366 0.931 . S
C351 H339 0.929 . S
C351 C345 1.390 . S
C351 C348 1.386 . S
C352 C347 1.490 . S
C352 C354 1.395 . S
C352 C355 1.403 1_655 S
H353 C359 0.930 . S
C354 H340 0.930 . S
C354 C352 1.395 . S
C354 C357 1.403 1_565 S
C355 C352 1.403 1_455 S
C355 C356 1.524 . S
C355 C359 1.400 . S
C356 H341 0.960 . S
C356 H342 0.960 . S
C356 H343 0.960 . S
C356 C355 1.524 . S
C357 C354 1.403 1_545 S
C357 C358 1.392 1_655 S
C357 C361 1.495 . S
C358 C357 1.392 1_455 S
C358 C359 1.385 1_545 S
C358 C360 1.478 . S
C359 H353 0.930 . S
C359 C355 1.400 . S
C359 C358 1.385 1_565 S
C360 C358 1.478 . S
C360 C362 1.381 . S
C360 C366 1.383 . S
C361 C357 1.495 . S
C361 H367 0.959 . S
C361 H368 0.961 . S
C361 H369 0.960 . S
C362 C360 1.381 . S
C362 C363 1.394 . S
C362 H370 0.930 . S
C363 C362 1.394 . S
C363 C364 1.383 . S
C363 H371 0.929 . S
C364 C363 1.383 . S
C364 C365 1.377 . S
C365 H349 0.930 . S
C365 C364 1.377 . S
C365 C366 1.379 . S
C366 H350 0.931 . S
C366 C360 1.383 . S
C366 C365 1.379 . S
H367 C361 0.959 . S
H368 C361 0.961 . S
H369 C361 0.960 . S
H370 C362 0.930 . S
H371 C363 0.929 . S
H372 C380 0.929 . S
H373 C382 0.930 . S
H374 C384 0.930 . S
H375 C387 0.929 . S
H376 C390 0.930 . S
H377 C392 0.960 . S
H378 C392 0.960 . S
H379 C392 0.960 . S
C380 H372 0.929 . S
C380 C381 1.377 . S
C380 C382 1.384 . S
C381 C380 1.377 . S
C381 C387 1.390 . S
C382 H373 0.930 . S
C382 C380 1.384 . S
C382 C383 1.372 . S
C383 C382 1.372 . S
C383 C384 1.400 . S
C383 C388 1.490 . S
C384 H374 0.930 . S
C384 C383 1.400 . S
C384 C387 1.386 . S
H385 C401 0.930 . S
H386 C402 0.931 . S
C387 H375 0.929 . S
C387 C381 1.390 . S
C387 C384 1.386 . S
C388 C383 1.490 . S
C388 C390 1.395 1_455 S
C388 C391 1.403 . S
H389 C395 0.930 . S
C390 H376 0.930 . S
C390 C388 1.395 1_655 S
C390 C393 1.403 . S
C391 C388 1.403 . S
C391 C392 1.524 . S
C391 C395 1.398 . S
C392 H377 0.960 . S
C392 H378 0.960 . S
C392 H379 0.960 . S
C392 C391 1.524 . S
C393 C390 1.403 . S
C393 C394 1.392 . S
C393 C397 1.495 . S
C394 C393 1.392 . S
C394 C395 1.388 1_655 S
C394 C396 1.478 . S
C395 H389 0.930 . S
C395 C391 1.398 . S
C395 C394 1.388 1_455 S
C396 C394 1.478 . S
C396 C398 1.381 . S
C396 C402 1.383 . S
C397 C393 1.495 . S
C397 H403 0.959 . S
C397 H404 0.961 . S
C397 H405 0.960 . S
C398 C396 1.381 . S
C398 C399 1.394 . S
C398 H406 0.930 . S
C399 C398 1.394 . S
C399 C400 1.383 . S
C399 H407 0.929 . S
C400 C399 1.383 . S
C400 C401 1.377 . S
C401 H385 0.930 . S
C401 C400 1.377 . S
C401 C402 1.379 . S
C402 H386 0.931 . S
C402 C396 1.383 . S
C402 C401 1.379 . S
H403 C397 0.959 . S
H404 C397 0.961 . S
H405 C397 0.960 . S
H406 C398 0.930 . S
H407 C399 0.929 . S
H408 C416 0.929 . S
H409 C418 0.930 . S
H410 C420 0.930 . S
H411 C423 0.929 . S
H412 C426 0.930 . S
H413 C428 0.960 . S
H414 C428 0.960 . S
H415 C428 0.960 . S
C416 H408 0.929 . S
C416 C417 1.377 . S
C416 C418 1.384 . S
C417 C416 1.377 . S
C417 C423 1.390 . S
C418 H409 0.930 . S
C418 C416 1.384 . S
C418 C419 1.372 . S
C419 C418 1.372 . S
C419 C420 1.400 . S
C419 C424 1.490 . S
C420 H410 0.930 . S
C420 C419 1.400 . S
C420 C423 1.386 . S
H421 C437 0.930 . S
H422 C438 0.931 . S
C423 H411 0.929 . S
C423 C417 1.390 . S
C423 C420 1.386 . S
C424 C419 1.490 . S
C424 C426 1.395 . S
C424 C427 1.403 . S
H425 C431 0.930 . S
C426 H412 0.930 . S
C426 C424 1.395 . S
C426 C429 1.403 . S
C427 C424 1.403 . S
C427 C428 1.524 . S
C427 C431 1.400 . S
C428 H413 0.960 . S
C428 H414 0.960 . S
C428 H415 0.960 . S
C428 C427 1.524 . S
C429 C426 1.403 . S
C429 C430 1.392 . S
C429 C433 1.495 . S
C430 C429 1.392 . S
C430 C431 1.385 . S
C430 C432 1.478 . S
C431 H425 0.930 . S
C431 C427 1.400 . S
C431 C430 1.385 . S
C432 C430 1.478 . S
C432 C434 1.381 . S
C432 C438 1.383 . S
C433 C429 1.495 . S
C433 H439 0.959 . S
C433 H440 0.961 . S
C433 H441 0.960 . S
C434 C432 1.381 . S
C434 C435 1.394 . S
C434 H442 0.930 . S
C435 C434 1.394 . S
C435 C436 1.383 . S
C435 H443 0.929 . S
C436 C435 1.383 . S
C436 C437 1.377 . S
C437 H421 0.930 . S
C437 C436 1.377 . S
C437 C438 1.379 . S
C438 H422 0.931 . S
C438 C432 1.383 . S
C438 C437 1.379 . S
H439 C433 0.959 . S
H440 C433 0.961 . S
H441 C433 0.960 . S
H442 C434 0.930 . S
H443 C435 0.929 . S
H444 C452 0.929 . S
H445 C454 0.930 . S
H446 C456 0.930 . S
H447 C459 0.929 . S
H448 C462 0.930 . S
H449 C464 0.960 . S
H450 C464 0.960 . S
H451 C464 0.960 . S
C452 H444 0.929 . S
C452 C453 1.377 . S
C452 C454 1.384 1_554 S
C453 C452 1.377 . S
C453 C459 1.390 . S
C454 H445 0.930 . S
C454 C452 1.384 1_556 S
C454 C455 1.372 . S
C455 C454 1.372 . S
C455 C456 1.400 . S
C455 C460 1.490 . S
C456 H446 0.930 . S
C456 C455 1.400 . S
C456 C459 1.386 1_556 S
H457 C473 0.930 . S
H458 C474 0.931 . S
C459 H447 0.929 . S
C459 C453 1.390 . S
C459 C456 1.386 1_554 S
C460 C455 1.490 . S
C460 C462 1.395 . S
C460 C463 1.403 . S
H461 C467 0.930 . S
C462 H448 0.930 . S
C462 C460 1.395 . S
C462 C465 1.403 . S
C463 C460 1.403 . S
C463 C464 1.524 . S
C463 C467 1.400 . S
C464 H449 0.960 . S
C464 H450 0.960 . S
C464 H451 0.960 . S
C464 C463 1.524 . S
C465 C462 1.403 . S
C465 C466 1.392 . S
C465 C469 1.495 . S
C466 C465 1.392 . S
C466 C467 1.385 . S
C466 C468 1.478 . S
C467 H461 0.930 . S
C467 C463 1.400 . S
C467 C466 1.385 . S
C468 C466 1.478 . S
C468 C470 1.381 . S
C468 C474 1.383 . S
C469 C465 1.495 . S
C469 H475 0.959 . S
C469 H476 0.961 . S
C469 H477 0.960 . S
C470 C468 1.381 . S
C470 C471 1.394 . S
C470 H478 0.930 . S
C471 C470 1.394 . S
C471 C472 1.383 . S
C471 H479 0.929 . S
C472 C471 1.383 . S
C472 C473 1.377 . S
C473 H457 0.930 . S
C473 C472 1.377 . S
C473 C474 1.379 . S
C474 H458 0.931 . S
C474 C468 1.383 . S
C474 C473 1.379 . S
H475 C469 0.959 . S
H476 C469 0.961 . S
H477 C469 0.960 . S
H478 C470 0.930 . S
H479 C471 0.929 . S
H480 C488 0.929 . S
H481 C490 0.930 . S
H482 C492 0.930 . S
H483 C495 0.929 . S
H484 C498 0.930 . S
H485 C500 0.960 . S
H486 C500 0.960 . S
H487 C500 0.960 . S
C488 H480 0.929 . S
C488 C489 1.377 . S
C488 C490 1.384 . S
C489 C488 1.377 . S
C489 C495 1.390 . S
C490 H481 0.930 . S
C490 C488 1.384 . S
C490 C491 1.372 . S
C491 C490 1.372 . S
C491 C492 1.400 . S
C491 C496 1.490 . S
C492 H482 0.930 . S
C492 C491 1.400 . S
C492 C495 1.386 . S
H493 C509 0.930 . S
H494 C510 0.931 . S
C495 H483 0.929 . S
C495 C489 1.390 . S
C495 C492 1.386 . S
C496 C491 1.490 . S
C496 C498 1.395 . S
C496 C499 1.403 . S
H497 C503 0.930 . S
C498 H484 0.930 . S
C498 C496 1.395 . S
C498 C501 1.403 1_556 S
C499 C496 1.403 . S
C499 C500 1.524 . S
C499 C503 1.400 1_556 S
C500 H485 0.960 . S
C500 H486 0.960 . S
C500 H487 0.960 . S
C500 C499 1.524 . S
C501 C498 1.403 1_554 S
C501 C502 1.392 . S
C501 C505 1.495 . S
C502 C501 1.392 . S
C502 C503 1.385 . S
C502 C504 1.478 . S
C503 H497 0.930 . S
C503 C499 1.400 1_554 S
C503 C502 1.385 . S
C504 C502 1.478 . S
C504 C506 1.381 . S
C504 C510 1.383 . S
C505 C501 1.495 . S
C505 H511 0.959 . S
C505 H512 0.961 . S
C505 H513 0.960 . S
C506 C504 1.381 . S
C506 C507 1.394 . S
C506 H514 0.930 . S
C507 C506 1.394 . S
C507 C508 1.383 . S
C507 H515 0.929 . S
C508 C507 1.383 . S
C508 C509 1.377 . S
C509 H493 0.930 . S
C509 C508 1.377 . S
C509 C510 1.379 . S
C510 H494 0.931 . S
C510 C504 1.383 . S
C510 C509 1.379 . S
H511 C505 0.959 . S
H512 C505 0.961 . S
H513 C505 0.960 . S
H514 C506 0.930 . S
H515 C507 0.929 . S
H516 C524 0.929 . S
H517 C526 0.930 . S
H518 C528 0.930 . S
H519 C531 0.929 . S
H520 C534 0.930 . S
H521 C536 0.960 . S
H522 C536 0.960 . S
H523 C536 0.960 . S
C524 H516 0.929 . S
C524 C525 1.377 . S
C524 C526 1.384 . S
C525 C524 1.377 . S
C525 C531 1.390 . S
C526 H517 0.930 . S
C526 C524 1.384 . S
C526 C527 1.372 . S
C527 C526 1.372 . S
C527 C528 1.400 . S
C527 C532 1.490 . S
C528 H518 0.930 . S
C528 C527 1.400 . S
C528 C531 1.386 . S
H529 C545 0.930 . S
H530 C546 0.931 . S
C531 H519 0.929 . S
C531 C525 1.390 . S
C531 C528 1.386 . S
C532 C527 1.490 . S
C532 C534 1.395 . S
C532 C535 1.403 . S
H533 C539 0.930 . S
C534 H520 0.930 . S
C534 C532 1.395 . S
C534 C537 1.403 . S
C535 C532 1.403 . S
C535 C536 1.524 . S
C535 C539 1.400 . S
C536 H521 0.960 . S
C536 H522 0.960 . S
C536 H523 0.960 . S
C536 C535 1.524 . S
C537 C534 1.403 . S
C537 C538 1.392 . S
C537 C541 1.495 . S
C538 C537 1.392 . S
C538 C539 1.385 . S
C538 C540 1.478 . S
C539 H533 0.930 . S
C539 C535 1.400 . S
C539 C538 1.385 . S
C540 C538 1.478 . S
C540 C542 1.381 . S
C540 C546 1.383 . S
C541 C537 1.495 . S
C541 H547 0.959 . S
C541 H548 0.961 . S
C541 H549 0.960 . S
C542 C540 1.381 . S
C542 C543 1.394 . S
C542 H550 0.930 . S
C543 C542 1.394 . S
C543 C544 1.383 . S
C543 H551 0.929 . S
C544 C543 1.383 . S
C544 C545 1.377 . S
C545 H529 0.930 . S
C545 C544 1.377 . S
C545 C546 1.379 . S
C546 H530 0.931 . S
C546 C540 1.383 . S
C546 C545 1.379 . S
H547 C541 0.959 . S
H548 C541 0.961 . S
H549 C541 0.960 . S
H550 C542 0.930 . S
H551 C543 0.929 . S
H552 C560 0.929 . S
H553 C562 0.930 1_556 S
H554 C564 0.930 . S
H555 C567 0.929 . S
H556 C570 0.930 . S
H557 C572 0.960 . S
H558 C572 0.960 . S
H559 C572 0.960 . S
C560 H552 0.929 . S
C560 C561 1.377 . S
C560 C562 1.384 . S
C561 C560 1.377 . S
C561 C567 1.390 . S
C562 H553 0.930 1_554 S
C562 C560 1.384 . S
C562 C563 1.372 1_554 S
C563 C562 1.372 1_556 S
C563 C564 1.400 . S
C563 C568 1.490 . S
C564 H554 0.930 . S
C564 C563 1.400 . S
C564 C567 1.386 1_556 S
H565 C581 0.930 . S
H566 C582 0.931 . S
C567 H555 0.929 . S
C567 C561 1.390 . S
C567 C564 1.386 1_554 S
C568 C563 1.490 . S
C568 C570 1.395 . S
C568 C571 1.403 . S
H569 C575 0.930 . S
C570 H556 0.930 . S
C570 C568 1.395 . S
C570 C573 1.403 . S
C571 C568 1.403 . S
C571 C572 1.524 . S
C571 C575 1.400 . S
C572 H557 0.960 . S
C572 H558 0.960 . S
C572 H559 0.960 . S
C572 C571 1.524 . S
C573 C570 1.403 . S
C573 C574 1.392 . S
C573 C577 1.495 . S
C574 C573 1.392 . S
C574 C575 1.385 . S
C574 C576 1.478 . S
C575 H569 0.930 . S
C575 C571 1.400 . S
C575 C574 1.385 . S
C576 C574 1.478 . S
C576 C578 1.381 . S
C576 C582 1.383 . S
C577 C573 1.495 . S
C577 H583 0.959 . S
C577 H584 0.961 . S
C577 H585 0.960 . S
C578 C576 1.381 . S
C578 C579 1.394 . S
C578 H586 0.930 . S
C579 C578 1.394 . S
C579 C580 1.383 . S
C579 H587 0.929 . S
C580 C579 1.383 . S
C580 C581 1.377 . S
C581 H565 0.930 . S
C581 C580 1.377 . S
C581 C582 1.379 . S
C582 H566 0.931 . S
C582 C576 1.383 . S
C582 C581 1.379 . S
H583 C577 0.959 . S
H584 C577 0.961 . S
H585 C577 0.960 . S
H586 C578 0.930 . S
H587 C579 0.929 . S
H588 C596 0.929 . S
H589 C598 0.930 . S
H590 C600 0.930 . S
H591 C603 0.929 . S
H592 C606 0.930 . S
H593 C608 0.960 . S
H594 C608 0.960 . S
H595 C608 0.960 . S
C596 H588 0.929 . S
C596 C597 1.377 . S
C596 C598 1.384 . S
C597 C596 1.377 . S
C597 C603 1.390 . S
C598 H589 0.930 . S
C598 C596 1.384 . S
C598 C599 1.372 . S
C599 C598 1.372 . S
C599 C600 1.400 . S
C599 C604 1.490 . S
C600 H590 0.930 . S
C600 C599 1.400 . S
C600 C603 1.386 . S
H601 C617 0.930 . S
H602 C618 0.931 . S
C603 H591 0.929 . S
C603 C597 1.390 . S
C603 C600 1.386 . S
C604 C599 1.490 . S
C604 C606 1.395 . S
C604 C607 1.403 . S
H605 C611 0.930 . S
C606 H592 0.930 . S
C606 C604 1.395 . S
C606 C609 1.403 . S
C607 C604 1.403 . S
C607 C608 1.524 . S
C607 C611 1.400 . S
C608 H593 0.960 . S
C608 H594 0.960 . S
C608 H595 0.960 . S
C608 C607 1.524 . S
C609 C606 1.403 . S
C609 C610 1.392 . S
C609 C613 1.495 . S
C610 C609 1.392 . S
C610 C611 1.385 . S
C610 C612 1.478 1_554 S
C611 H605 0.930 . S
C611 C607 1.400 . S
C611 C610 1.385 . S
C612 C610 1.478 1_556 S
C612 C614 1.381 . S
C612 C618 1.383 . S
C613 C609 1.495 . S
C613 H619 0.959 . S
C613 H620 0.961 . S
C613 H621 0.960 . S
C614 C612 1.381 . S
C614 C615 1.394 . S
C614 H622 0.930 . S
C615 C614 1.394 . S
C615 C616 1.383 . S
C615 H623 0.929 . S
C616 C615 1.383 . S
C616 C617 1.377 . S
C617 H601 0.930 . S
C617 C616 1.377 . S
C617 C618 1.379 . S
C618 H602 0.931 . S
C618 C612 1.383 . S
C618 C617 1.379 . S
H619 C613 0.959 . S
H620 C613 0.961 . S
H621 C613 0.960 . S
H622 C614 0.930 . S
H623 C615 0.929 . S
H624 C632 0.929 . S
H625 C634 0.930 . S
H626 C636 0.930 . S
H627 C639 0.929 . S
H628 C642 0.930 . S
H629 C644 0.960 . S
H630 C644 0.960 . S
H631 C644 0.960 . S
C632 H624 0.929 . S
C632 C633 1.377 . S
C632 C634 1.384 . S
C633 C632 1.377 . S
C633 C639 1.390 . S
C634 H625 0.930 . S
C634 C632 1.384 . S
C634 C635 1.372 . S
C635 C634 1.372 . S
C635 C636 1.400 . S
C635 C640 1.490 . S
C636 H626 0.930 . S
C636 C635 1.400 . S
C636 C639 1.386 . S
H637 C653 0.930 . S
H638 C654 0.931 . S
C639 H627 0.929 . S
C639 C633 1.390 . S
C639 C636 1.386 . S
C640 C635 1.490 . S
C640 C642 1.395 . S
C640 C643 1.403 . S
H641 C647 0.930 . S
C642 H628 0.930 . S
C642 C640 1.395 . S
C642 C645 1.403 . S
C643 C640 1.403 . S
C643 C644 1.524 . S
C643 C647 1.400 . S
C644 H629 0.960 . S
C644 H630 0.960 . S
C644 H631 0.960 . S
C644 C643 1.524 . S
C645 C642 1.403 . S
C645 C646 1.392 . S
C645 C649 1.495 . S
C646 C645 1.392 . S
C646 C647 1.385 . S
C646 C648 1.478 . S
C647 H641 0.930 . S
C647 C643 1.400 . S
C647 C646 1.385 . S
C648 C646 1.478 . S
C648 C650 1.381 . S
C648 C654 1.383 . S
C649 C645 1.495 . S
C649 H655 0.959 . S
C649 H656 0.961 . S
C649 H657 0.960 . S
C650 C648 1.381 . S
C650 C651 1.394 . S
C650 H658 0.930 . S
C651 C650 1.394 . S
C651 C652 1.383 . S
C651 H659 0.929 . S
C652 C651 1.383 . S
C652 C653 1.377 . S
C653 H637 0.930 . S
C653 C652 1.377 . S
C653 C654 1.379 . S
C654 H638 0.931 . S
C654 C648 1.383 . S
C654 C653 1.379 . S
H655 C649 0.959 . S
H656 C649 0.961 . S
H657 C649 0.960 . S
H658 C650 0.930 . S
H659 C651 0.929 . S
H660 C668 0.929 . S
H661 C670 0.930 . S
H662 C672 0.930 . S
H663 C675 0.929 . S
H664 C678 0.930 . S
H665 C680 0.960 . S
H666 C680 0.960 . S
H667 C680 0.960 . S
C668 H660 0.929 . S
C668 C669 1.377 . S
C668 C670 1.384 . S
C669 C668 1.377 . S
C669 C675 1.390 . S
C670 H661 0.930 . S
C670 C668 1.384 . S
C670 C671 1.372 . S
C671 C670 1.372 . S
C671 C672 1.400 . S
C671 C676 1.490 . S
C672 H662 0.930 . S
C672 C671 1.400 . S
C672 C675 1.386 . S
H673 C689 0.930 . S
H674 C690 0.931 . S
C675 H663 0.929 . S
C675 C669 1.390 . S
C675 C672 1.386 . S
C676 C671 1.490 . S
C676 C678 1.395 . S
C676 C679 1.403 . S
H677 C683 0.930 . S
C678 H664 0.930 . S
C678 C676 1.395 . S
C678 C681 1.403 . S
C679 C676 1.403 . S
C679 C680 1.524 . S
C679 C683 1.400 . S
C680 H665 0.960 . S
C680 H666 0.960 . S
C680 H667 0.960 . S
C680 C679 1.524 . S
C681 C678 1.403 . S
C681 C682 1.392 . S
C681 C685 1.495 . S
C682 C681 1.392 . S
C682 C683 1.385 . S
C682 C684 1.478 . S
C683 H677 0.930 . S
C683 C679 1.400 . S
C683 C682 1.385 . S
C684 C682 1.478 . S
C684 C686 1.381 . S
C684 C690 1.383 . S
C685 C681 1.495 . S
C685 H691 0.959 . S
C685 H692 0.961 . S
C685 H693 0.960 . S
C686 C684 1.381 . S
C686 C687 1.394 . S
C686 H694 0.930 . S
C687 C686 1.394 . S
C687 C688 1.383 . S
C687 H695 0.929 . S
C688 C687 1.383 . S
C688 C689 1.377 . S
C689 H673 0.930 . S
C689 C688 1.377 . S
C689 C690 1.379 . S
C690 H674 0.931 . S
C690 C684 1.383 . S
C690 C689 1.379 . S
H691 C685 0.959 . S
H692 C685 0.961 . S
H693 C685 0.960 . S
H694 C686 0.930 . S
H695 C687 0.929 . S
H696 C704 0.929 . S
H697 C706 0.930 . S
H698 C708 0.930 . S
H699 C711 0.929 . S
H700 C714 0.930 . S
H701 C716 0.960 . S
H702 C716 0.960 . S
H703 C716 0.960 . S
C704 H696 0.929 . S
C704 C705 1.377 . S
C704 C706 1.384 . S
C705 C704 1.377 . S
C705 C711 1.390 . S
C706 H697 0.930 . S
C706 C704 1.384 . S
C706 C707 1.372 . S
C707 C706 1.372 . S
C707 C708 1.400 . S
C707 C712 1.490 . S
C708 H698 0.930 . S
C708 C707 1.400 . S
C708 C711 1.386 . S
H709 C725 0.930 . S
H710 C726 0.931 . S
C711 H699 0.929 . S
C711 C705 1.390 . S
C711 C708 1.386 . S
C712 C707 1.490 . S
C712 C714 1.395 . S
C712 C715 1.403 1_556 S
H713 C719 0.930 . S
C714 H700 0.930 . S
C714 C712 1.395 . S
C714 C717 1.403 . S
C715 C712 1.403 1_554 S
C715 C716 1.524 . S
C715 C719 1.400 . S
C716 H701 0.960 . S
C716 H702 0.960 . S
C716 H703 0.960 . S
C716 C715 1.524 . S
C717 C714 1.403 . S
C717 C718 1.392 . S
C717 C721 1.495 . S
C718 C717 1.392 . S
C718 C719 1.385 1_556 S
C718 C720 1.478 . S
C719 H713 0.930 . S
C719 C715 1.400 . S
C719 C718 1.385 1_554 S
C720 C718 1.478 . S
C720 C722 1.381 . S
C720 C726 1.383 1_556 S
C721 C717 1.495 . S
C721 H727 0.959 . S
C721 H728 0.961 . S
C721 H729 0.960 . S
C722 C720 1.381 . S
C722 C723 1.394 1_556 S
C722 H730 0.930 . S
C723 C722 1.394 1_554 S
C723 C724 1.383 . S
C723 H731 0.929 1_554 S
C724 C723 1.383 . S
C724 C725 1.377 . S
C725 H709 0.930 . S
C725 C724 1.377 . S
C725 C726 1.379 . S
C726 H710 0.931 . S
C726 C720 1.383 1_554 S
C726 C725 1.379 . S
H727 C721 0.959 . S
H728 C721 0.961 . S
H729 C721 0.960 . S
H730 C722 0.930 . S
H731 C723 0.929 1_556 S
H732 C740 0.929 . S
H733 C742 0.930 . S
H734 C744 0.930 . S
H735 C747 0.929 . S
H736 C750 0.930 . S
H737 C752 0.960 . S
H738 C752 0.960 . S
H739 C752 0.960 . S
C740 H732 0.929 . S
C740 C741 1.377 . S
C740 C742 1.384 . S
C741 C740 1.377 . S
C741 C747 1.390 . S
C742 H733 0.930 . S
C742 C740 1.384 . S
C742 C743 1.372 . S
C743 C742 1.372 . S
C743 C744 1.400 . S
C743 C748 1.490 . S
C744 H734 0.930 . S
C744 C743 1.400 . S
C744 C747 1.386 . S
H745 C761 0.930 . S
H746 C762 0.931 . S
C747 H735 0.929 . S
C747 C741 1.390 . S
C747 C744 1.386 . S
C748 C743 1.490 . S
C748 C750 1.395 . S
C748 C751 1.403 . S
H749 C755 0.930 . S
C750 H736 0.930 . S
C750 C748 1.395 . S
C750 C753 1.403 . S
C751 C748 1.403 . S
C751 C752 1.524 . S
C751 C755 1.400 . S
C752 H737 0.960 . S
C752 H738 0.960 . S
C752 H739 0.960 . S
C752 C751 1.524 . S
C753 C750 1.403 . S
C753 C754 1.392 . S
C753 C757 1.495 . S
C754 C753 1.392 . S
C754 C755 1.385 . S
C754 C756 1.478 . S
C755 H749 0.930 . S
C755 C751 1.400 . S
C755 C754 1.385 . S
C756 C754 1.478 . S
C756 C758 1.381 . S
C756 C762 1.383 . S
C757 C753 1.495 . S
C757 H763 0.959 . S
C757 H764 0.961 . S
C757 H765 0.960 . S
C758 C756 1.381 . S
C758 C759 1.394 . S
C758 H766 0.930 . S
C759 C758 1.394 . S
C759 C760 1.383 . S
C759 H767 0.929 1_554 S
C760 C759 1.383 . S
C760 C761 1.377 . S
C761 H745 0.930 . S
C761 C760 1.377 . S
C761 C762 1.379 . S
C762 H746 0.931 . S
C762 C756 1.383 . S
C762 C761 1.379 . S
H763 C757 0.959 . S
H764 C757 0.961 . S
H765 C757 0.960 . S
H766 C758 0.930 . S
H767 C759 0.929 1_556 S
H768 C776 0.929 . S
H769 C778 0.930 . S
H770 C780 0.930 . S
H771 C783 0.929 . S
H772 C786 0.930 . S
H773 C788 0.960 . S
H774 C788 0.960 . S
H775 C788 0.960 . S
C776 H768 0.929 . S
C776 C777 1.377 . S
C776 C778 1.384 . S
C777 C776 1.377 . S
C777 C783 1.390 . S
C778 H769 0.930 . S
C778 C776 1.384 . S
C778 C779 1.372 . S
C779 C778 1.372 . S
C779 C780 1.400 . S
C779 C784 1.490 . S
C780 H770 0.930 . S
C780 C779 1.400 . S
C780 C783 1.386 . S
H781 C797 0.930 . S
H782 C798 0.931 . S
C783 H771 0.929 . S
C783 C777 1.390 . S
C783 C780 1.386 . S
C784 C779 1.490 . S
C784 C786 1.395 . S
C784 C787 1.403 . S
H785 C791 0.930 . S
C786 H772 0.930 . S
C786 C784 1.395 . S
C786 C789 1.403 . S
C787 C784 1.403 . S
C787 C788 1.524 . S
C787 C791 1.400 . S
C788 H773 0.960 . S
C788 H774 0.960 . S
C788 H775 0.960 . S
C788 C787 1.524 . S
C789 C786 1.403 . S
C789 C790 1.392 . S
C789 C793 1.495 . S
C790 C789 1.392 . S
C790 C791 1.385 . S
C790 C792 1.478 . S
C791 H785 0.930 . S
C791 C787 1.400 . S
C791 C790 1.385 . S
C792 C790 1.478 . S
C792 C794 1.381 . S
C792 C798 1.383 . S
C793 C789 1.495 . S
C793 H799 0.959 . S
C793 H800 0.961 . S
C793 H801 0.960 . S
C794 C792 1.381 . S
C794 C795 1.394 . S
C794 H802 0.930 . S
C795 C794 1.394 . S
C795 C796 1.383 . S
C795 H803 0.929 . S
C796 C795 1.383 . S
C796 C797 1.377 . S
C797 H781 0.930 . S
C797 C796 1.377 . S
C797 C798 1.379 . S
C798 H782 0.931 . S
C798 C792 1.383 . S
C798 C797 1.379 . S
H799 C793 0.959 . S
H800 C793 0.961 . S
H801 C793 0.960 . S
H802 C794 0.930 . S
H803 C795 0.929 . S
H804 C812 0.929 . S
H805 C814 0.930 . S
H806 C816 0.930 . S
H807 C819 0.929 . S
H808 C822 0.930 . S
H809 C824 0.960 . S
H810 C824 0.960 . S
H811 C824 0.960 . S
C812 H804 0.929 . S
C812 C813 1.377 . S
C812 C814 1.384 . S
C813 C812 1.377 . S
C813 C819 1.390 . S
C814 H805 0.930 . S
C814 C812 1.384 . S
C814 C815 1.372 . S
C815 C814 1.372 . S
C815 C816 1.400 . S
C815 C820 1.490 . S
C816 H806 0.930 . S
C816 C815 1.400 . S
C816 C819 1.386 . S
H817 C833 0.930 . S
H818 C834 0.931 . S
C819 H807 0.929 . S
C819 C813 1.390 . S
C819 C816 1.386 . S
C820 C815 1.490 . S
C820 C822 1.395 . S
C820 C823 1.403 . S
H821 C827 0.930 . S
C822 H808 0.930 . S
C822 C820 1.395 . S
C822 C825 1.403 . S
C823 C820 1.403 . S
C823 C824 1.524 . S
C823 C827 1.400 . S
C824 H809 0.960 . S
C824 H810 0.960 . S
C824 H811 0.960 . S
C824 C823 1.524 . S
C825 C822 1.403 . S
C825 C826 1.392 . S
C825 C829 1.495 . S
C826 C825 1.392 . S
C826 C827 1.385 . S
C826 C828 1.478 . S
C827 H821 0.930 . S
C827 C823 1.400 . S
C827 C826 1.385 . S
C828 C826 1.478 . S
C828 C830 1.381 . S
C828 C834 1.383 . S
C829 C825 1.495 . S
C829 H835 0.959 . S
C829 H836 0.961 . S
C829 H837 0.960 . S
C830 C828 1.381 . S
C830 C831 1.394 . S
C830 H838 0.930 . S
C831 C830 1.394 . S
C831 C832 1.383 . S
C831 H839 0.929 . S
C832 C831 1.383 . S
C832 C833 1.377 . S
C833 H817 0.930 . S
C833 C832 1.377 . S
C833 C834 1.379 . S
C834 H818 0.931 . S
C834 C828 1.383 . S
C834 C833 1.379 . S
H835 C829 0.959 . S
H836 C829 0.961 . S
H837 C829 0.960 . S
H838 C830 0.930 . S
H839 C831 0.929 . S
H840 C848 0.929 . S
H841 C850 0.930 . S
H842 C852 0.930 . S
H843 C855 0.929 . S
H844 C858 0.930 . S
H845 C860 0.960 . S
H846 C860 0.960 . S
H847 C860 0.960 . S
C848 H840 0.929 . S
C848 C849 1.377 . S
C848 C850 1.384 . S
C849 C848 1.377 . S
C849 C855 1.390 . S
C850 H841 0.930 . S
C850 C848 1.384 . S
C850 C851 1.372 . S
C851 C850 1.372 . S
C851 C852 1.400 . S
C851 C856 1.490 . S
C852 H842 0.930 . S
C852 C851 1.400 . S
C852 C855 1.386 . S
H853 C869 0.930 . S
H854 C870 0.931 . S
C855 H843 0.929 . S
C855 C849 1.390 . S
C855 C852 1.386 . S
C856 C851 1.490 . S
C856 C858 1.395 . S
C856 C859 1.403 . S
H857 C863 0.930 . S
C858 H844 0.930 . S
C858 C856 1.395 . S
C858 C861 1.403 . S
C859 C856 1.403 . S
C859 C860 1.524 . S
C859 C863 1.400 . S
C860 H845 0.960 . S
C860 H846 0.960 . S
C860 H847 0.960 . S
C860 C859 1.524 . S
C861 C858 1.403 . S
C861 C862 1.392 . S
C861 C865 1.495 . S
C862 C861 1.392 . S
C862 C863 1.385 . S
C862 C864 1.478 . S
C863 H857 0.930 . S
C863 C859 1.400 . S
C863 C862 1.385 . S
C864 C862 1.478 . S
C864 C866 1.381 . S
C864 C870 1.383 . S
C865 C861 1.495 . S
C865 H871 0.959 . S
C865 H872 0.961 . S
C865 H873 0.960 . S
C866 C864 1.381 . S
C866 C867 1.394 . S
C866 H874 0.930 . S
C867 C866 1.394 . S
C867 C868 1.383 . S
C867 H875 0.929 . S
C868 C867 1.383 . S
C868 C869 1.377 . S
C869 H853 0.930 . S
C869 C868 1.377 . S
C869 C870 1.379 . S
C870 H854 0.931 . S
C870 C864 1.383 . S
C870 C869 1.379 . S
H871 C865 0.959 . S
H872 C865 0.961 . S
H873 C865 0.960 . S
H874 C866 0.930 . S
H875 C867 0.929 . S
H876 C884 0.929 . S
H877 C886 0.930 . S
H878 C888 0.930 . S
H879 C891 0.929 . S
H880 C894 0.930 . S
H881 C896 0.960 . S
H882 C896 0.960 . S
H883 C896 0.960 . S
C884 H876 0.929 . S
C884 C885 1.377 . S
C884 C886 1.384 . S
C885 C884 1.377 . S
C885 C891 1.390 . S
C886 H877 0.930 . S
C886 C884 1.384 . S
C886 C887 1.372 . S
C887 C886 1.372 . S
C887 C888 1.400 . S
C887 C892 1.490 . S
C888 H878 0.930 . S
C888 C887 1.400 . S
C888 C891 1.386 . S
H889 C905 0.930 . S
H890 C906 0.931 . S
C891 H879 0.929 . S
C891 C885 1.390 . S
C891 C888 1.386 . S
C892 C887 1.490 . S
C892 C894 1.395 . S
C892 C895 1.403 . S
H893 C899 0.930 . S
C894 H880 0.930 . S
C894 C892 1.395 . S
C894 C897 1.403 . S
C895 C892 1.403 . S
C895 C896 1.524 . S
C895 C899 1.400 . S
C896 H881 0.960 . S
C896 H882 0.960 . S
C896 H883 0.960 . S
C896 C895 1.524 . S
C897 C894 1.403 . S
C897 C898 1.392 . S
C897 C901 1.495 . S
C898 C897 1.392 . S
C898 C899 1.385 . S
C898 C900 1.478 . S
C899 H893 0.930 . S
C899 C895 1.400 . S
C899 C898 1.385 . S
C900 C898 1.478 . S
C900 C902 1.381 . S
C900 C906 1.383 . S
C901 C897 1.495 . S
C901 H907 0.959 . S
C901 H908 0.961 . S
C901 H909 0.960 . S
C902 C900 1.381 . S
C902 C903 1.394 . S
C902 H910 0.930 . S
C903 C902 1.394 . S
C903 C904 1.383 . S
C903 H911 0.929 . S
C904 C903 1.383 . S
C904 C905 1.377 . S
C905 H889 0.930 . S
C905 C904 1.377 . S
C905 C906 1.379 . S
C906 H890 0.931 . S
C906 C900 1.383 . S
C906 C905 1.379 . S
H907 C901 0.959 . S
H908 C901 0.961 . S
H909 C901 0.960 . S
H910 C902 0.930 . S
H911 C903 0.929 . S
H912 C920 0.929 . S
H913 C922 0.930 . S
H914 C924 0.920 1_554 S
H915 C927 0.929 . S
H916 C930 0.930 . S
H917 C932 0.960 . S
H918 C932 0.960 1_556 S
H919 C932 0.960 . S
C920 H912 0.929 . S
C920 C921 1.377 . S
C920 C922 1.384 . S
C921 C920 1.377 . S
C921 C927 1.390 1_556 S
C922 H913 0.930 . S
C922 C920 1.384 . S
C922 C923 1.372 . S
C923 C922 1.372 . S
C923 C924 1.414 . S
C923 C928 1.490 . S
C924 H914 0.920 1_556 S
C924 C923 1.414 . S
C924 C927 1.381 1_556 S
H925 C941 0.930 . S
H926 C942 0.931 . S
C927 H915 0.929 . S
C927 C921 1.390 1_554 S
C927 C924 1.381 1_554 S
C928 C923 1.490 . S
C928 C930 1.395 . S
C928 C931 1.403 . S
H929 C935 0.930 . S
C930 H916 0.930 . S
C930 C928 1.395 . S
C930 C933 1.403 . S
C931 C928 1.403 . S
C931 C932 1.524 1_556 S
C931 C935 1.400 . S
C932 H917 0.960 . S
C932 H918 0.960 1_554 S
C932 H919 0.960 . S
C932 C931 1.524 1_554 S
C933 C930 1.403 . S
C933 C934 1.392 . S
C933 C937 1.495 . S
C934 C933 1.392 . S
C934 C935 1.385 . S
C934 C936 1.478 . S
C935 H929 0.930 . S
C935 C931 1.400 . S
C935 C934 1.385 . S
C936 C934 1.478 . S
C936 C938 1.381 . S
C936 C942 1.383 . S
C937 C933 1.495 . S
C937 H943 0.959 . S
C937 H944 0.961 . S
C937 H945 0.960 . S
C938 C936 1.381 . S
C938 C939 1.394 . S
C938 H946 0.930 . S
C939 C938 1.394 . S
C939 C940 1.383 . S
C939 H947 0.929 . S
C940 C939 1.383 . S
C940 C941 1.377 . S
C941 H925 0.930 . S
C941 C940 1.377 . S
C941 C942 1.379 . S
C942 H926 0.931 . S
C942 C936 1.383 . S
C942 C941 1.379 . S
H943 C937 0.959 . S
H944 C937 0.961 . S
H945 C937 0.960 . S
H946 C938 0.930 . S
H947 C939 0.929 . S
H948 C956 0.929 . S
H949 C958 0.930 . S
H950 C960 0.930 . S
H951 C963 0.929 . S
H952 C966 0.930 . S
H953 C968 0.960 . S
H954 C968 0.960 . S
H955 C968 0.960 . S
C956 H948 0.929 . S
C956 C957 1.377 . S
C956 C958 1.384 . S
C957 C956 1.377 . S
C957 C963 1.390 . S
C958 H949 0.930 . S
C958 C956 1.384 . S
C958 C959 1.372 . S
C959 C958 1.372 . S
C959 C960 1.400 . S
C959 C964 1.490 . S
C960 H950 0.930 . S
C960 C959 1.400 . S
C960 C963 1.386 . S
H961 C977 0.930 . S
H962 C978 0.931 . S
C963 H951 0.929 . S
C963 C957 1.390 . S
C963 C960 1.386 . S
C964 C959 1.490 . S
C964 C966 1.395 . S
C964 C967 1.403 . S
H965 C971 0.930 . S
C966 H952 0.930 . S
C966 C964 1.395 . S
C966 C969 1.403 . S
C967 C964 1.403 . S
C967 C968 1.524 . S
C967 C971 1.400 . S
C968 H953 0.960 . S
C968 H954 0.960 . S
C968 H955 0.960 . S
C968 C967 1.524 . S
C969 C966 1.403 . S
C969 C970 1.392 . S
C969 C973 1.495 . S
C970 C969 1.392 . S
C970 C971 1.385 . S
C970 C972 1.478 . S
C971 H965 0.930 . S
C971 C967 1.400 . S
C971 C970 1.385 . S
C972 C970 1.478 . S
C972 C974 1.381 . S
C972 C978 1.383 . S
C973 C969 1.495 . S
C973 H979 0.959 . S
C973 H980 0.961 . S
C973 H981 0.960 . S
C974 C972 1.381 . S
C974 C975 1.394 . S
C974 H982 0.930 . S
C975 C974 1.394 . S
C975 C976 1.383 . S
C975 H983 0.929 . S
C976 C975 1.383 . S
C976 C977 1.377 . S
C977 H961 0.930 . S
C977 C976 1.377 . S
C977 C978 1.379 . S
C978 H962 0.931 . S
C978 C972 1.383 . S
C978 C977 1.379 . S
H979 C973 0.959 . S
H980 C973 0.961 . S
H981 C973 0.960 . S
H982 C974 0.930 . S
H983 C975 0.929 . S
C273 C249 1.085 . S
C292 C18 1.086 . S
C309 C150 1.091 . S
C328 C51 1.087 . S
C345 C183 1.084 . S
C364 C84 1.087 . S
C381 C216 1.091 . S
C400 C117 1.088 . S
C417 N2 1.196 . S
C436 N13 1.209 . S
C453 N35 1.189 . S
C472 N46 1.217 . S
C489 N79 1.201 . S
C508 N68 1.171 . S
C525 N112 1.222 . S
C544 N101 1.246 . S
C561 N134 1.221 . S
C580 N145 1.248 . S
C597 N178 1.197 . S
C616 N167 1.203 . S
C633 N200 1.186 . S
C652 N211 1.209 . S
C669 N233 1.204 . S
C688 N244 1.226 . S
C705 C219 1.317 . S
C724 C21 1.311 . S
C741 C40 1.288 . S
C760 C252 1.303 . S
C777 C153 1.619 . S
C796 C73 1.586 . S
C813 C106 1.546 . S
C832 C172 1.555 . S
C849 C186 1.322 . S
C868 C54 1.322 . S
C885 C87 1.298 . S
C904 C205 1.276 . S
C921 C238 1.604 . S
C940 C120 1.617 . S
C957 C7 1.535 . S
C976 C139 1.519 . S
