# Generated by pormake.
# Topology kag, (6)-cn, num edge types: 1
# Building blocks:
#     Node 0, Type 0, BuildingBlock: KUMBOL_clean_sbu_0, # of connection points: 6
#     Node 1, Type 0, BuildingBlock: KUMBOL_clean_sbu_0, # of connection points: 6
#     Node 2, Type 0, BuildingBlock: KUMBOL_clean_sbu_0, # of connection points: 6
#     Edge 3, Type (0, 0), BuildingBlock: OJICUG_clean_linker_0, # of connection points: 2
#     Edge 4, Type (0, 0), BuildingBlock: OJICUG_clean_linker_0, # of connection points: 2
#     Edge 5, Type (0, 0), BuildingBlock: OJICUG_clean_linker_0, # of connection points: 2
#     Edge 6, Type (0, 0), BuildingBlock: OJICUG_clean_linker_0, # of connection points: 2
#     Edge 7, Type (0, 0), BuildingBlock: OJICUG_clean_linker_0, # of connection points: 2
#     Edge 8, Type (0, 0), BuildingBlock: OJICUG_clean_linker_0, # of connection points: 2
#     Edge 9, Type (0, 0), BuildingBlock: OJICUG_clean_linker_0, # of connection points: 2
#     Edge 10, Type (0, 0), BuildingBlock: OJICUG_clean_linker_0, # of connection points: 2
#     Edge 11, Type (0, 0), BuildingBlock: OJICUG_clean_linker_0, # of connection points: 2
# Relax obj value: 0.105
# Max RMSD: 0.223
# Mean RMSD: 0.162
data_MOF--net-kag--node1-KUMBOL_clean_sbu_0--edge1-OJICUG_clean_linker_0
_symmetry_space_group_name_H-M    P1
_symmetry_Int_Tables_number       1
_symmetry_cell_setting            triclinic
loop_
_symmetry_equiv_pos_as_xyz
'x, y, z'
_cell_length_a     31.197937
_cell_length_b     21.450829
_cell_length_c     11.223474
_cell_angle_alpha  96.141911
_cell_angle_beta   113.9993
_cell_angle_gamma 91.527082
loop_
_atom_site_label
_atom_site_type_symbol
_atom_site_fract_x
_atom_site_fract_y
_atom_site_fract_z
_atom_type_partial_charge
Gd0 Gd 0.02052 0.66391 0.00684 0.0
Gd1 Gd 1.01721 0.49329 0.96845 0.0
C2 C 0.14548 0.3933 0.97841 0.0
C3 C 0.11735 0.33956 0.75522 0.0
C4 C 0.0655 0.40254 0.82277 0.0
C5 C 0.10124 0.41782 0.94717 0.0
C6 C 0.07282 0.36217 0.7262 0.0
C7 C 0.15363 0.35518 0.88101 0.0
C8 C 0.17976 0.40642 0.10754 0.0
C9 C 0.16889 0.44119 0.20271 0.0
N10 N 0.09202 0.45411 0.03944 0.0
C11 C 0.12435 0.46404 0.16716 0.0
H12 H 0.11637 0.491 0.24144 0.0
C13 C 0.98513 0.40585 0.68169 0.0
N14 N 0.02288 0.42513 0.79793 0.0
C15 C 0.99069 0.36599 0.5827 0.0
C16 C 0.03485 0.34464 0.60443 0.0
H17 H 0.95095 0.42233 0.66425 0.0
H18 H 0.18751 0.33632 0.90287 0.0
H19 H 0.92142 0.66626 0.73365 0.0
H20 H 0.21424 0.38865 0.13544 0.0
H21 H 0.19483 0.45056 0.30341 0.0
H22 H 0.1238 0.30893 0.68198 0.0
H23 H 0.08669 0.73486 0.31113 0.0
H24 H 0.82348 0.76857 0.83936 0.0
H25 H 0.84296 0.70671 0.67148 0.0
H26 H 0.91377 0.8482 0.29294 0.0
H27 H 0.96094 0.35178 0.48975 0.0
H28 H 0.03902 0.31368 0.52763 0.0
H29 H 0.85012 0.82085 0.07193 0.0
H30 H 0.07662 0.80537 0.48555 0.0
N31 N 0.9457 0.70311 0.93566 0.0
C32 C 0.85796 0.7508 0.86734 0.0
C33 C 0.86887 0.71605 0.77222 0.0
C34 C 0.8922 0.76389 -0.00347 0.0
C35 C 0.93644 0.73937 0.02788 0.0
C36 C 0.91342 0.6932 0.80789 0.0
N37 N 1.01478 0.73204 0.17729 0.0
C38 C 0.97215 0.75463 0.15235 0.0
C39 C 0.0469 0.79117 0.39255 0.0
C40 C 1.00272 0.81251 0.37071 0.0
C41 C 0.0525 0.75133 0.2936 0.0
C42 C 0.96479 0.79498 0.24887 0.0
H43 H 0.99852 0.84345 0.44746 0.0
O44 O 0.07996 0.72848 0.04119 0.0
O45 O 0.06128 0.5813 -0.0014 0.0
O46 O 0.0388 0.53487 0.1836 0.0
O47 O 1.00909 0.6335 0.17711 0.0
O48 O 0.09562 0.65253 0.14747 0.0
O49 O 1.01377 0.73316 0.87316 0.0
O50 O 0.95779 0.42873 0.93426 0.0
O51 O 0.97652 0.57588 0.97661 0.0
O52 O 0.99896 0.62236 0.79169 0.0
O53 O 0.02859 0.52368 0.79809 0.0
O54 O 0.94206 0.50473 0.82793 0.0
O55 O 0.024 0.42409 0.10224 0.0
C56 C 0.10082 0.59936 0.09122 0.0
C57 C 0.92025 0.81759 0.21973 0.0
C58 C 0.88401 0.80199 0.09388 0.0
C59 C 0.05676 0.75774 0.94118 0.0
C60 C 0.06464 0.8264 0.96545 0.0
C61 C 0.0444 0.86331 0.03668 0.0
C62 C 0.09653 0.85473 0.92526 0.0
C63 C 0.10919 0.91957 0.95752 0.0
C64 C 0.05677 0.92803 0.06897 0.0
C65 C 0.08935 0.95612 0.03065 0.0
C66 C 0.0242 0.58358 0.23694 0.0
C67 C 0.93693 0.55795 0.88413 0.0
C68 C 0.98101 0.3995 0.03429 0.0
C69 C 0.97315 0.33084 0.0101 0.0
C70 C 0.99335 0.29391 0.93881 0.0
C71 C 0.9413 0.30252 0.05046 0.0
C72 C 0.92866 0.23767 0.01831 0.0
C73 C 0.981 0.22919 0.90661 0.0
C74 C 0.94846 0.20111 0.94511 0.0
C75 C 1.01351 0.57362 0.7383 0.0
H76 H 0.01973 0.84219 0.06866 0.0
H77 H 0.11259 0.82585 0.87171 0.0
H78 H 0.04134 0.9564 0.12465 0.0
H79 H 0.09858 1.00627 0.05651 0.0
H80 H 1.01798 0.31502 0.9067 0.0
H81 H 0.92526 0.3314 0.10406 0.0
H82 H 0.9964 0.20081 0.85088 0.0
H83 H 0.93923 0.15095 0.91933 0.0
Gd84 Gd 0.45684 1.06695 0.91048 0.0
Gd85 Gd 0.58117 0.09043 0.06622 0.0
C86 C 0.66272 0.91632 0.0634 0.0
C87 C 0.70356 0.90774 0.2957 0.0
C88 C 0.64522 0.98496 0.22156 0.0
C89 C 0.63772 0.9656 0.0924 0.0
C90 C 0.67794 0.95535 0.32434 0.0
C91 C 0.69613 0.88845 0.16561 0.0
C92 C 0.65404 0.89677 0.9325 0.0
C93 C 0.6223 0.92729 0.83418 0.0
N94 N 0.60746 0.99608 -0.00442 0.0
C95 C 0.60007 0.97755 0.86764 0.0
H96 H 0.57801 1.0013 0.78925 0.0
C97 C 0.63424 1.05832 0.37696 0.0
N98 N 0.6232 1.0351 0.24795 0.0
C99 C 0.66347 1.02762 0.48039 0.0
C100 C 0.6855 0.97588 0.45407 0.0
H101 H 0.62394 0.10336 0.40357 0.0
H102 H 0.71588 0.85122 0.14489 0.0
H103 H 0.45982 0.15589 0.18743 0.0
H104 H 0.67206 0.85872 0.90646 0.0
H105 H 0.61576 0.9132 0.73235 0.0
H106 H 0.72911 0.88533 0.37361 0.0
H107 H 0.4141 1.05411 0.57315 0.0
H108 H 0.36586 0.29857 0.07029 0.0
H109 H 0.42207 0.24398 0.24437 0.0
H110 H 0.30889 0.27208 0.60317 0.0
H111 H 0.67117 1.04624 0.58109 0.0
H112 H 0.70978 0.95377 0.53495 0.0
H113 H 0.3221 0.30614 0.83188 0.0
H114 H 0.36688 0.11125 0.39567 0.0
N115 N 0.43048 0.16125 0.98115 0.0
C116 C 0.38389 0.26053 0.04425 0.0
C117 C 0.41559 0.22995 0.14255 0.0
C118 C 0.37525 0.24104 0.91336 0.0
C119 C 0.40027 0.19177 0.88436 0.0
C120 C 0.43782 0.1797 0.10908 0.0
N121 N 0.41483 0.12234 0.72881 0.0
C122 C 0.39279 0.17245 0.75521 0.0
C123 C 0.37457 0.12985 0.49637 0.0
C124 C 0.35253 0.18157 0.52271 0.0
C125 C 0.4038 0.09914 0.59979 0.0
C126 C 0.36008 0.20208 0.65243 0.0
H127 H 0.32825 0.20369 0.44183 0.0
O128 O 0.39704 1.00319 0.78145 0.0
O129 O 0.52152 1.01512 0.0166 0.0
O130 O 0.55691 0.10474 0.85111 0.0
O131 O 0.48293 1.05228 0.75266 0.0
O132 O 0.47211 0.97113 0.8387 0.0
O133 O 0.40084 1.04232 0.97099 0.0
O134 O 0.64098 0.15418 0.19524 0.0
O135 O 0.51652 0.14215 0.96023 0.0
O136 O 0.48113 1.05265 0.12561 0.0
O137 O 0.55509 0.10515 0.22406 0.0
O138 O 0.56578 0.18627 0.1379 0.0
O139 O 0.63715 0.11507 0.00566 0.0
C140 C 0.51082 0.96361 0.93713 0.0
C141 C 0.33444 0.24966 0.68107 0.0
C142 C 0.34186 0.26893 0.81116 0.0
C143 C 0.37482 1.0102 0.85754 0.0
C144 C 0.32481 1.02423 0.79454 0.0
C145 C 0.30745 1.05024 0.67549 0.0
C146 C 0.29329 1.00853 0.84945 0.0
C147 C 0.24514 1.01837 0.78509 0.0
C148 C 0.26041 1.06276 0.61506 0.0
C149 C 0.22932 1.04686 0.66919 0.0
C150 C 0.51968 0.07973 0.74576 0.0
C151 C 0.52705 0.19371 0.03946 0.0
C152 C 0.66318 0.14718 0.11911 0.0
C153 C 0.71319 0.13314 0.18205 0.0
C154 C 0.73058 0.10717 0.30114 0.0
C155 C 0.74468 0.14882 0.12704 0.0
C156 C 0.79284 0.13897 0.19133 0.0
C157 C 0.77762 0.09466 0.36152 0.0
C158 C 0.80869 0.11052 0.30727 0.0
C159 C 0.51835 1.07769 0.23096 0.0
H160 H 0.32972 1.05972 0.62676 0.0
H161 H 0.30577 0.98621 0.9385 0.0
H162 H 0.24779 0.08337 0.52407 0.0
H163 H 0.1926 1.0556 0.61895 0.0
H164 H 0.70833 0.09771 0.34994 0.0
H165 H 0.73218 0.1711 0.03795 0.0
H166 H 0.79027 1.07407 0.45253 0.0
H167 H 0.84541 0.10178 0.35747 0.0
Gd168 Gd 0.58411 0.58609 0.06793 0.0
Gd169 Gd 0.45375 0.57117 0.9081 0.0
C170 C 0.4051 0.40672 0.57889 0.0
C171 C 0.37534 0.45918 0.38278 0.0
C172 C 0.40356 0.51975 0.59974 0.0
C173 C 0.41568 0.46562 0.65757 0.0
C174 C 0.38216 0.51713 0.46187 0.0
C175 C 0.3868 0.40389 0.44134 0.0
C176 C 0.4107 0.3526 0.64094 0.0
C177 C 0.42118 0.35855 0.7752 0.0
N178 N 0.43271 0.46995 0.7906 0.0
C179 C 0.42938 0.41832 0.84729 0.0
H180 H 0.43621 0.42308 0.95034 0.0
C181 C 0.39344 0.62845 0.62709 0.0
N182 N 0.41098 0.57492 0.67949 0.0
C183 C 0.37164 0.62807 0.49066 0.0
C184 C 0.36703 0.57246 0.40785 0.0
H185 H 0.39786 0.67195 0.69037 0.0
H186 H 0.37935 0.35908 0.37943 0.0
H187 H 0.60163 0.73416 0.02562 0.0
H188 H 0.40452 0.30637 0.58519 0.0
H189 H 0.42474 0.31737 0.82452 0.0
H190 H 0.35958 0.45635 0.27647 0.0
H191 H 0.63998 0.48528 0.28566 0.0
H192 H 0.63345 0.8509 0.39081 0.0
H193 H 0.61318 0.83988 0.15146 0.0
H194 H 0.67836 0.70092 0.69954 0.0
H195 H 0.35907 0.67085 0.44968 0.0
H196 H 0.3508 0.5721 0.30258 0.0
H197 H 0.65862 0.7982 0.59658 0.0
H198 H 0.67876 0.48639 0.52634 0.0
N199 N 0.60518 0.68731 0.18541 0.0
C200 C 0.62724 0.80466 0.33506 0.0
C201 C 0.61674 0.7987 0.20079 0.0
C202 C 0.63284 0.75054 0.39712 0.0
C203 C 0.62223 0.69165 0.31845 0.0
C204 C 0.6085 0.73894 0.12869 0.0
N205 N 0.62689 0.58233 0.29654 0.0
C206 C 0.63433 0.63751 0.37628 0.0
C207 C 0.66621 0.52917 0.48536 0.0
C208 C 0.67085 0.58479 0.56817 0.0
C209 C 0.64441 0.52879 0.34893 0.0
C210 C 0.65574 0.64013 0.51415 0.0
H211 H 0.68708 0.58515 0.67344 0.0
O212 O 0.65568 0.5606 0.11727 0.0
O213 O 0.51992 0.51605 0.98083 0.0
O214 O 0.47862 0.58604 0.12928 0.0
O215 O 0.55692 0.56267 0.21691 0.0
O216 O 0.58541 0.48015 0.04783 0.0
O217 O 0.62675 0.6239 0.97333 0.0
O218 O 0.38219 0.59667 0.85878 0.0
O219 O 0.51795 0.64121 -0.00469 0.0
O220 O 0.55923 0.57118 0.84676 0.0
O221 O 0.48095 0.59463 0.75917 0.0
O222 O 0.45246 0.6771 0.92817 0.0
O223 O 0.4111 0.53335 0.00267 0.0
C224 C 0.54084 0.46407 -0.00298 0.0
C225 C 0.6626 0.69809 0.59324 0.0
C226 C 0.65115 0.75338 0.53468 0.0
C227 C 0.66296 0.59242 0.03401 0.0
C228 C 0.68525 0.55803 0.95429 0.0
C229 C 0.66228 0.50173 0.87558 0.0
C230 C 0.73058 0.57784 0.96311 0.0
C231 C 0.75208 0.54132 0.892 0.0
C232 C 0.6835 0.46525 0.80793 0.0
C233 C 0.72788 0.48435 0.8168 0.0
C234 C 0.51734 0.57401 0.22773 0.0
C235 C 0.49703 0.69319 0.97903 0.0
C236 C 0.3749 0.56484 0.94201 0.0
C237 C 0.35262 0.59924 0.02175 0.0
C238 C 0.37561 0.65552 0.1005 0.0
C239 C 0.30728 0.57946 0.0129 0.0
C240 C 0.28578 0.61599 0.08401 0.0
C241 C 0.3544 0.69202 0.16816 0.0
C242 C 0.31001 0.67295 0.15925 0.0
C243 C 0.52052 0.58326 0.74833 0.0
H244 H 0.62812 0.4852 0.86858 0.0
H245 H 0.74866 0.62129 0.02367 0.0
H246 H 0.66551 0.42154 0.7486 0.0
H247 H 0.74329 0.45416 0.76367 0.0
H248 H 0.40977 0.67203 0.10752 0.0
H249 H 0.28918 0.53603 0.9523 0.0
H250 H 0.3724 0.73571 0.22752 0.0
H251 H 0.2946 0.70315 0.21237 0.0
C252 C 0.03767 0.52963 0.56055 0.0
C253 C 1.0154 0.57583 0.60889 0.0
H254 H 0.05823 0.49585 0.40646 0.0
C255 C 0.99674 0.62492 0.53461 0.0
H256 H 0.05314 0.49158 0.61589 0.0
C257 C 1.00003 0.62755 0.41467 0.0
C258 C 0.0223 0.58136 0.36633 0.0
H259 H 0.97947 0.66133 0.56876 0.0
H260 H 0.98455 0.66559 0.35932 0.0
C261 C 0.04096 0.53226 0.44061 0.0
C262 C 0.49145 1.03191 0.38638 0.0
C263 C 0.5181 1.07842 0.362 0.0
H264 H 0.47237 0.99476 0.52875 0.0
C265 C 0.54544 0.12544 0.4648 0.0
H266 H 0.47041 0.99492 0.30916 0.0
C267 C 0.54657 0.1255 0.59035 0.0
C268 C 0.51993 0.079 0.61472 0.0
H269 H 0.56566 0.16266 0.44798 0.0
H270 H 0.56762 0.16249 0.66757 0.0
C271 C 0.49259 1.03197 0.51192 0.0
C272 C 0.49085 0.61888 0.52519 0.0
C273 C 0.52063 0.582 0.61636 0.0
H274 H 0.4662 0.64504 0.33071 0.0
C275 C 0.54891 0.54194 0.5781 0.0
H276 H 0.46952 0.6513 0.55287 0.0
C277 C 0.54701 0.53838 0.45087 0.0
C278 C 0.51723 0.57526 0.35969 0.0
H279 H 0.57166 0.51222 0.64534 0.0
H280 H 0.56834 0.50596 0.42319 0.0
C281 C 0.48895 0.61532 0.39795 0.0
C282 C 0.15333 0.57289 0.97056 0.0
C283 C 0.14776 0.58845 0.08866 0.0
H284 H 0.20123 0.56892 0.87541 0.0
C285 C 0.1885 0.60378 0.20535 0.0
H286 H 0.12273 0.56129 0.87847 0.0
C287 C 0.23321 0.60731 0.20387 0.0
C288 C 0.23892 0.59712 0.08505 0.0
H289 H 0.18563 0.61572 0.29796 0.0
H290 H 0.26338 0.62127 0.29608 0.0
C291 C 0.19844 0.5772 0.96878 0.0
C292 C 0.8682 0.19909 0.23481 0.0
C293 C 0.82758 0.1626 0.145 0.0
H294 H 0.93204 0.25093 0.26475 0.0
C295 C 0.82086 0.14926 0.01302 0.0
H296 H 0.87403 0.21055 0.3369 0.0
C297 C 0.85445 0.17199 0.97191 0.0
C298 C 0.89468 0.20925 0.06183 0.0
H299 H 0.78988 0.12103 0.9422 0.0
H300 H 0.84847 0.16179 0.86949 0.0
C301 C 0.90128 0.22237 0.19357 0.0
C302 C 0.52382 0.85027 0.87513 0.0
C303 C 0.5202 0.89652 0.96988 0.0
H304 H 0.52119 0.75171 0.80524 0.0
C305 C 0.51322 0.87407 0.07506 0.0
H306 H 0.52685 0.86465 0.78911 0.0
C307 C 0.5087 0.80837 0.08242 0.0
C308 C 0.51298 0.76218 -0.01172 0.0
H309 H 0.50793 0.90711 0.14696 0.0
H310 H 0.5005 0.79351 0.16051 0.0
C311 C 0.52039 0.78488 0.88405 0.0
C312 C 0.84925 0.55368 0.77032 0.0
C313 C 0.89003 0.56892 0.88695 0.0
H314 H 0.77438 0.53623 0.67977 0.0
C315 C 0.88452 0.58438 0.00516 0.0
H316 H 0.85209 0.54181 0.67762 0.0
C317 C 0.83943 0.58006 0.00709 0.0
C318 C 0.79892 0.56023 0.89086 0.0
H319 H 0.91515 0.5959 0.09721 0.0
H320 H 0.83669 0.58827 0.10053 0.0
C321 C 0.80457 0.55014 0.77194 0.0
C322 C 0.18342 0.98525 0.00419 0.0
C323 C 0.1432 0.94801 0.91415 0.0
H324 H 0.24801 1.03623 0.03413 0.0
C325 C 0.13666 0.93491 0.78245 0.0
H326 H 0.18936 0.99543 0.10658 0.0
C327 C 0.16976 0.95822 0.74136 0.0
C328 C 0.21037 0.9947 0.83129 0.0
H329 H 0.10591 0.90637 0.71119 0.0
H330 H 0.16397 0.94679 0.63929 0.0
C331 C 0.21704 1.008 0.96323 0.0
C332 C 0.52924 0.34885 0.89389 0.0
C333 C 0.52489 0.39508 0.98786 0.0
H334 H 0.53007 0.25009 0.82962 0.0
C335 C 0.5174 0.37243 0.09202 0.0
H336 H 0.5375 0.36367 0.81588 0.0
C337 C 0.51395 0.30705 0.10103 0.0
C338 C 0.51765 0.26076 0.00646 0.0
H339 H 0.51654 0.40563 0.1707 0.0
H340 H 0.51086 0.29271 0.187 0.0
C341 C 0.52471 0.28316 0.90136 0.0
loop_
_geom_bond_atom_site_label_1
_geom_bond_atom_site_label_2
_geom_bond_distance
_geom_bond_site_symmetry_2
_ccdc_geom_bond_type
Gd0 N31 2.661 1_454 S
Gd0 N37 2.601 . S
Gd0 O44 2.545 . S
Gd0 O45 2.606 . S
Gd0 O47 2.429 . S
Gd0 O48 2.545 . S
Gd0 O49 2.412 1_554 S
Gd0 O51 2.362 1_454 S
Gd0 O52 2.324 1_454 S
Gd0 C59 2.828 . S
Gd1 N10 2.661 1_656 S
Gd1 N14 2.601 . S
Gd1 O45 2.362 1_656 S
Gd1 O46 2.324 1_656 S
Gd1 O50 2.545 . S
Gd1 O51 2.606 . S
Gd1 O53 2.429 . S
Gd1 O54 2.545 . S
Gd1 O55 2.412 1_556 S
Gd1 C68 2.828 . S
C2 C5 1.417 . S
C2 C7 1.431 1_554 S
C2 C8 1.412 . S
C3 C6 1.437 . S
C3 C7 1.317 . S
C3 H22 0.929 . S
C4 C5 1.426 1_556 S
C4 C6 1.413 . S
C4 N14 1.359 1_455 S
C5 C2 1.417 . S
C5 C4 1.426 1_554 S
C5 N10 1.350 . S
C6 C3 1.437 . S
C6 C4 1.413 . S
C6 C16 1.391 . S
C7 C2 1.431 1_556 S
C7 C3 1.317 . S
C7 H18 0.930 1_556 S
C8 C2 1.412 . S
C8 C9 1.355 . S
C8 H20 0.930 . S
C9 C8 1.355 . S
C9 C11 1.402 . S
C9 H21 0.930 . S
N10 Gd1 2.661 1_454 S
N10 C5 1.350 . S
N10 C11 1.307 . S
C11 C9 1.402 . S
C11 N10 1.307 . S
C11 H12 0.930 . S
H12 C11 0.930 . S
C13 N14 1.334 . S
C13 C15 1.394 . S
C13 H17 0.930 . S
N14 Gd1 2.601 . S
N14 C4 1.359 1_655 S
N14 C13 1.334 . S
C15 C13 1.394 . S
C15 C16 1.359 1_655 S
C15 H27 0.930 . S
C16 C6 1.391 . S
C16 C15 1.359 1_455 S
C16 H28 0.929 . S
H17 C13 0.930 . S
H18 C7 0.930 1_554 S
H19 C36 0.930 . S
H20 C8 0.930 . S
H21 C9 0.930 . S
H22 C3 0.929 . S
H23 C41 0.930 . S
H24 C32 0.930 . S
H25 C33 0.930 . S
H26 C57 0.929 . S
H27 C15 0.930 . S
H28 C16 0.929 . S
H29 C58 0.930 1_556 S
H30 C39 0.930 . S
N31 Gd0 2.661 1_656 S
N31 C35 1.350 . S
N31 C36 1.307 . S
C32 H24 0.930 . S
C32 C33 1.355 . S
C32 C34 1.412 . S
C33 H25 0.930 . S
C33 C32 1.355 . S
C33 C36 1.402 . S
C34 C32 1.412 . S
C34 C35 1.417 . S
C34 C58 1.431 1_556 S
C35 N31 1.350 . S
C35 C34 1.417 . S
C35 C38 1.426 1_556 S
C36 H19 0.930 . S
C36 N31 1.307 . S
C36 C33 1.402 . S
N37 Gd0 2.601 . S
N37 C38 1.359 1_455 S
N37 C41 1.334 . S
C38 C35 1.426 1_554 S
C38 N37 1.359 1_655 S
C38 C42 1.413 . S
C39 H30 0.930 . S
C39 C40 1.359 1_455 S
C39 C41 1.394 . S
C40 C39 1.359 1_655 S
C40 C42 1.391 . S
C40 H43 0.929 . S
C41 H23 0.930 . S
C41 N37 1.334 . S
C41 C39 1.394 . S
C42 C38 1.413 . S
C42 C40 1.391 . S
C42 C57 1.437 . S
H43 C40 0.929 . S
O44 Gd0 2.545 . S
O44 C59 1.258 . S
O45 Gd0 2.606 . S
O45 Gd1 2.362 1_454 S
O45 C56 1.284 . S
O46 Gd1 2.324 1_454 S
O46 C66 1.254 . S
O47 Gd0 2.429 . S
O47 C66 1.268 . S
O48 Gd0 2.545 . S
O48 C56 1.250 . S
O49 Gd0 2.412 1_556 S
O49 C59 1.252 1_556 S
O50 Gd1 2.545 . S
O50 C68 1.258 . S
O51 Gd0 2.362 1_656 S
O51 Gd1 2.606 . S
O51 C67 1.284 . S
O52 Gd0 2.324 1_656 S
O52 C75 1.254 . S
O53 Gd1 2.429 . S
O53 C75 1.268 . S
O54 Gd1 2.545 . S
O54 C67 1.250 . S
O55 Gd1 2.412 1_554 S
O55 C68 1.252 1_554 S
C56 O45 1.284 . S
C56 O48 1.250 . S
C57 H26 0.929 . S
C57 C42 1.437 . S
C57 C58 1.317 . S
C58 H29 0.930 1_554 S
C58 C34 1.431 1_554 S
C58 C57 1.317 . S
C59 Gd0 2.828 . S
C59 O44 1.258 . S
C59 O49 1.252 1_554 S
C59 C60 1.497 . S
C60 C59 1.497 . S
C60 C61 1.395 . S
C60 C62 1.380 1_554 S
C61 C60 1.395 . S
C61 C64 1.398 . S
C61 H76 0.930 . S
C62 C60 1.380 1_556 S
C62 C63 1.391 1_556 S
C62 H77 0.930 . S
C63 C62 1.391 1_554 S
C63 C65 1.387 . S
C64 C61 1.398 . S
C64 C65 1.380 . S
C64 H78 0.930 . S
C65 C63 1.387 . S
C65 C64 1.380 . S
C65 H79 0.930 . S
C66 O46 1.254 . S
C66 O47 1.268 . S
C67 O51 1.284 . S
C67 O54 1.250 . S
C68 Gd1 2.828 . S
C68 O50 1.258 . S
C68 O55 1.252 1_556 S
C68 C69 1.497 . S
C69 C68 1.497 . S
C69 C70 1.395 . S
C69 C71 1.380 1_556 S
C70 C69 1.395 . S
C70 C73 1.398 . S
C70 H80 0.930 . S
C71 C69 1.380 1_554 S
C71 C72 1.391 1_554 S
C71 H81 0.930 . S
C72 C71 1.391 1_556 S
C72 C74 1.387 . S
C73 C70 1.398 . S
C73 C74 1.380 . S
C73 H82 0.930 . S
C74 C72 1.387 . S
C74 C73 1.380 . S
C74 H83 0.930 . S
C75 O52 1.254 . S
C75 O53 1.268 . S
H76 C61 0.930 . S
H77 C62 0.930 . S
H78 C64 0.930 . S
H79 C65 0.930 . S
H80 C70 0.930 . S
H81 C71 0.930 . S
H82 C73 0.930 . S
H83 C74 0.930 . S
Gd84 N115 2.661 1_565 S
Gd84 N121 2.601 1_565 S
Gd84 O128 2.545 . S
Gd84 O129 2.606 1_556 S
Gd84 O131 2.429 . S
Gd84 O132 2.545 . S
Gd84 O133 2.412 . S
Gd84 O135 2.362 1_565 S
Gd84 O136 2.324 1_556 S
Gd84 C143 2.828 . S
Gd85 N94 2.661 1_545 S
Gd85 N98 2.601 1_545 S
Gd85 O129 2.362 1_545 S
Gd85 O130 2.324 1_554 S
Gd85 O134 2.545 . S
Gd85 O135 2.606 1_554 S
Gd85 O137 2.429 . S
Gd85 O138 2.545 . S
Gd85 O139 2.412 . S
Gd85 C152 2.828 . S
C86 C89 1.417 . S
C86 C91 1.431 . S
C86 C92 1.412 1_554 S
C87 C90 1.437 . S
C87 C91 1.317 . S
C87 H106 0.929 . S
C88 C89 1.426 . S
C88 C90 1.413 . S
C88 N98 1.359 . S
C89 C86 1.417 . S
C89 C88 1.426 . S
C89 N94 1.350 . S
C90 C87 1.437 . S
C90 C88 1.413 . S
C90 C100 1.391 . S
C91 C86 1.431 . S
C91 C87 1.317 . S
C91 H102 0.930 . S
C92 C86 1.412 1_556 S
C92 C93 1.355 . S
C92 H104 0.930 . S
C93 C92 1.355 . S
C93 C95 1.402 . S
C93 H105 0.930 . S
N94 Gd85 2.661 1_565 S
N94 C89 1.350 . S
N94 C95 1.307 1_554 S
C95 C93 1.402 . S
C95 N94 1.307 1_556 S
C95 H96 0.930 . S
H96 C95 0.930 . S
C97 N98 1.334 . S
C97 C99 1.394 . S
C97 H101 0.930 1_565 S
N98 Gd85 2.601 1_565 S
N98 C88 1.359 . S
N98 C97 1.334 . S
C99 C97 1.394 . S
C99 C100 1.359 . S
C99 H111 0.930 . S
C100 C90 1.391 . S
C100 C99 1.359 . S
C100 H112 0.929 . S
H101 C97 0.930 1_545 S
H102 C91 0.930 . S
H103 C120 0.930 . S
H104 C92 0.930 . S
H105 C93 0.930 . S
H106 C87 0.929 . S
H107 C125 0.930 1_565 S
H108 C116 0.930 . S
H109 C117 0.930 . S
H110 C141 0.929 . S
H111 C99 0.930 . S
H112 C100 0.929 . S
H113 C142 0.930 . S
H114 C123 0.930 . S
N115 Gd84 2.661 1_545 S
N115 C119 1.350 . S
N115 C120 1.307 1_556 S
C116 H108 0.930 . S
C116 C117 1.355 . S
C116 C118 1.412 1_554 S
C117 H109 0.930 . S
C117 C116 1.355 . S
C117 C120 1.402 . S
C118 C116 1.412 1_556 S
C118 C119 1.417 . S
C118 C142 1.431 . S
C119 N115 1.350 . S
C119 C118 1.417 . S
C119 C122 1.426 . S
C120 H103 0.930 . S
C120 N115 1.307 1_554 S
C120 C117 1.402 . S
N121 Gd84 2.601 1_545 S
N121 C122 1.359 . S
N121 C125 1.334 . S
C122 C119 1.426 . S
C122 N121 1.359 . S
C122 C126 1.413 . S
C123 H114 0.930 . S
C123 C124 1.359 . S
C123 C125 1.394 . S
C124 C123 1.359 . S
C124 C126 1.391 . S
C124 H127 0.929 . S
C125 H107 0.930 1_545 S
C125 N121 1.334 . S
C125 C123 1.394 . S
C126 C122 1.413 . S
C126 C124 1.391 . S
C126 C141 1.437 . S
H127 C124 0.929 . S
O128 Gd84 2.545 . S
O128 C143 1.258 . S
O129 Gd84 2.606 1_554 S
O129 Gd85 2.362 1_565 S
O129 C140 1.284 . S
O130 Gd85 2.324 1_556 S
O130 C150 1.253 . S
O131 Gd84 2.429 . S
O131 C150 1.267 1_565 S
O132 Gd84 2.545 . S
O132 C140 1.250 1_556 S
O133 Gd84 2.412 . S
O133 C143 1.252 . S
O134 Gd85 2.545 . S
O134 C152 1.258 . S
O135 Gd84 2.362 1_545 S
O135 Gd85 2.606 1_556 S
O135 C151 1.284 . S
O136 Gd84 2.324 1_554 S
O136 C159 1.254 . S
O137 Gd85 2.429 . S
O137 C159 1.268 1_545 S
O138 Gd85 2.545 . S
O138 C151 1.250 1_554 S
O139 Gd85 2.412 . S
O139 C152 1.252 . S
C140 O129 1.284 . S
C140 O132 1.250 1_554 S
C141 H110 0.929 . S
C141 C126 1.437 . S
C141 C142 1.317 . S
C142 H113 0.930 . S
C142 C118 1.431 . S
C142 C141 1.317 . S
C143 Gd84 2.828 . S
C143 O128 1.258 . S
C143 O133 1.252 . S
C143 C144 1.497 . S
C144 C143 1.497 . S
C144 C145 1.395 . S
C144 C146 1.380 . S
C145 C144 1.395 . S
C145 C148 1.398 . S
C145 H160 0.930 . S
C146 C144 1.380 . S
C146 C147 1.391 . S
C146 H161 0.930 1_556 S
C147 C146 1.391 . S
C147 C149 1.387 . S
C148 C145 1.398 . S
C148 C149 1.380 . S
C148 H162 0.930 . S
C149 C147 1.387 . S
C149 C148 1.380 . S
C149 H163 0.930 . S
C150 O130 1.253 . S
C150 O131 1.267 1_545 S
C151 O135 1.284 . S
C151 O138 1.250 1_556 S
C152 Gd85 2.828 . S
C152 O134 1.258 . S
C152 O139 1.252 . S
C152 C153 1.497 . S
C153 C152 1.497 . S
C153 C154 1.395 . S
C153 C155 1.380 . S
C154 C153 1.395 . S
C154 C157 1.398 . S
C154 H164 0.930 . S
C155 C153 1.380 . S
C155 C156 1.391 . S
C155 H165 0.930 1_554 S
C156 C155 1.391 . S
C156 C158 1.387 . S
C157 C154 1.398 . S
C157 C158 1.380 . S
C157 H166 0.930 . S
C158 C156 1.387 . S
C158 C157 1.380 . S
C158 H167 0.930 . S
C159 O136 1.254 . S
C159 O137 1.268 1_565 S
H160 C145 0.930 . S
H161 C146 0.930 1_554 S
H162 C148 0.930 . S
H163 C149 0.930 . S
H164 C154 0.930 . S
H165 C155 0.930 1_556 S
H166 C157 0.930 . S
H167 C158 0.930 . S
Gd168 N199 2.661 . S
Gd168 N205 2.601 . S
Gd168 O212 2.545 . S
Gd168 O213 2.606 1_554 S
Gd168 O215 2.429 . S
Gd168 O216 2.545 . S
Gd168 O217 2.412 . S
Gd168 O219 2.362 . S
Gd168 O220 2.324 1_554 S
Gd168 C227 2.828 . S
Gd169 N178 2.661 . S
Gd169 N182 2.601 . S
Gd169 O213 2.362 . S
Gd169 O214 2.324 1_556 S
Gd169 O218 2.545 . S
Gd169 O219 2.606 1_556 S
Gd169 O221 2.429 . S
Gd169 O222 2.545 . S
Gd169 O223 2.412 . S
Gd169 C236 2.828 . S
C170 C173 1.417 . S
C170 C175 1.431 . S
C170 C176 1.412 1_556 S
C171 C174 1.437 . S
C171 C175 1.317 . S
C171 H190 0.929 . S
C172 C173 1.426 . S
C172 C174 1.413 . S
C172 N182 1.359 . S
C173 C170 1.417 . S
C173 C172 1.426 . S
C173 N178 1.350 . S
C174 C171 1.437 . S
C174 C172 1.413 . S
C174 C184 1.391 . S
C175 C170 1.431 . S
C175 C171 1.317 . S
C175 H186 0.930 . S
C176 C170 1.412 1_554 S
C176 C177 1.355 . S
C176 H188 0.930 . S
C177 C176 1.355 . S
C177 C179 1.402 . S
C177 H189 0.930 . S
N178 Gd169 2.661 . S
N178 C173 1.350 . S
N178 C179 1.307 1_556 S
C179 C177 1.402 . S
C179 N178 1.307 1_554 S
C179 H180 0.930 . S
H180 C179 0.930 . S
C181 N182 1.334 . S
C181 C183 1.394 . S
C181 H185 0.930 . S
N182 Gd169 2.601 . S
N182 C172 1.359 . S
N182 C181 1.334 . S
C183 C181 1.394 . S
C183 C184 1.359 . S
C183 H195 0.930 . S
C184 C174 1.391 . S
C184 C183 1.359 . S
C184 H196 0.929 . S
H185 C181 0.930 . S
H186 C175 0.930 . S
H187 C204 0.930 . S
H188 C176 0.930 . S
H189 C177 0.930 . S
H190 C171 0.929 . S
H191 C209 0.930 . S
H192 C200 0.930 . S
H193 C201 0.930 . S
H194 C225 0.929 . S
H195 C183 0.930 . S
H196 C184 0.929 . S
H197 C226 0.930 . S
H198 C207 0.930 . S
N199 Gd168 2.661 . S
N199 C203 1.350 . S
N199 C204 1.307 1_554 S
C200 H192 0.930 . S
C200 C201 1.355 . S
C200 C202 1.412 1_556 S
C201 H193 0.930 . S
C201 C200 1.355 . S
C201 C204 1.402 . S
C202 C200 1.412 1_554 S
C202 C203 1.417 . S
C202 C226 1.431 . S
C203 N199 1.350 . S
C203 C202 1.417 . S
C203 C206 1.426 . S
C204 H187 0.930 . S
C204 N199 1.307 1_556 S
C204 C201 1.402 . S
N205 Gd168 2.601 . S
N205 C206 1.359 . S
N205 C209 1.334 . S
C206 C203 1.426 . S
C206 N205 1.359 . S
C206 C210 1.413 . S
C207 H198 0.930 . S
C207 C208 1.359 . S
C207 C209 1.394 . S
C208 C207 1.359 . S
C208 C210 1.391 . S
C208 H211 0.929 . S
C209 H191 0.930 . S
C209 N205 1.334 . S
C209 C207 1.394 . S
C210 C206 1.413 . S
C210 C208 1.391 . S
C210 C225 1.437 . S
H211 C208 0.929 . S
O212 Gd168 2.545 . S
O212 C227 1.258 . S
O213 Gd168 2.606 1_556 S
O213 Gd169 2.362 . S
O213 C224 1.284 . S
O214 Gd169 2.324 1_554 S
O214 C234 1.254 . S
O215 Gd168 2.429 . S
O215 C234 1.268 . S
O216 Gd168 2.545 . S
O216 C224 1.250 1_554 S
O217 Gd168 2.412 . S
O217 C227 1.252 . S
O218 Gd169 2.545 . S
O218 C236 1.258 . S
O219 Gd168 2.362 . S
O219 Gd169 2.606 1_554 S
O219 C235 1.284 . S
O220 Gd168 2.324 1_556 S
O220 C243 1.254 . S
O221 Gd169 2.429 . S
O221 C243 1.268 . S
O222 Gd169 2.545 . S
O222 C235 1.250 1_556 S
O223 Gd169 2.412 . S
O223 C236 1.252 . S
C224 O213 1.284 . S
C224 O216 1.250 1_556 S
C225 H194 0.929 . S
C225 C210 1.437 . S
C225 C226 1.317 . S
C226 H197 0.930 . S
C226 C202 1.431 . S
C226 C225 1.317 . S
C227 Gd168 2.828 . S
C227 O212 1.258 . S
C227 O217 1.252 . S
C227 C228 1.497 . S
C228 C227 1.497 . S
C228 C229 1.395 . S
C228 C230 1.380 . S
C229 C228 1.395 . S
C229 C232 1.398 . S
C229 H244 0.930 . S
C230 C228 1.380 . S
C230 C231 1.391 . S
C230 H245 0.930 1_554 S
C231 C230 1.391 . S
C231 C233 1.387 . S
C232 C229 1.398 . S
C232 C233 1.380 . S
C232 H246 0.930 . S
C233 C231 1.387 . S
C233 C232 1.380 . S
C233 H247 0.930 . S
C234 O214 1.254 . S
C234 O215 1.268 . S
C235 O219 1.284 . S
C235 O222 1.250 1_554 S
C236 Gd169 2.828 . S
C236 O218 1.258 . S
C236 O223 1.252 . S
C236 C237 1.497 . S
C237 C236 1.497 . S
C237 C238 1.395 . S
C237 C239 1.380 . S
C238 C237 1.395 . S
C238 C241 1.398 . S
C238 H248 0.930 . S
C239 C237 1.380 . S
C239 C240 1.391 . S
C239 H249 0.930 1_556 S
C240 C239 1.391 . S
C240 C242 1.387 . S
C241 C238 1.398 . S
C241 C242 1.380 . S
C241 H250 0.930 . S
C242 C240 1.387 . S
C242 C241 1.380 . S
C242 H251 0.930 . S
C243 O220 1.254 . S
C243 O221 1.268 . S
H244 C229 0.930 . S
H245 C230 0.930 1_556 S
H246 C232 0.930 . S
H247 C233 0.930 . S
H248 C238 0.930 . S
H249 C239 0.930 1_554 S
H250 C241 0.930 . S
H251 C242 0.930 . S
C252 C253 1.387 . S
C252 H256 0.950 . S
C252 C261 1.390 . S
C253 C252 1.387 . S
C253 C255 1.387 1_655 S
H254 C261 0.950 . S
C255 C253 1.387 1_455 S
C255 C257 1.390 . S
C255 H259 0.950 . S
H256 C252 0.950 . S
C257 C255 1.390 . S
C257 C258 1.387 . S
C257 H260 0.950 . S
C258 C257 1.387 . S
C258 C261 1.387 1_455 S
H259 C255 0.950 . S
H260 C257 0.950 . S
C261 C252 1.390 . S
C261 H254 0.950 . S
C261 C258 1.387 1_655 S
C262 C263 1.387 . S
C262 H266 0.950 . S
C262 C271 1.390 . S
C263 C262 1.387 . S
C263 C265 1.387 1_565 S
H264 C271 0.950 . S
C265 C263 1.387 1_545 S
C265 C267 1.390 . S
C265 H269 0.950 . S
H266 C262 0.950 . S
C267 C265 1.390 . S
C267 C268 1.387 . S
C267 H270 0.950 . S
C268 C267 1.387 . S
C268 C271 1.387 1_545 S
H269 C265 0.950 . S
H270 C267 0.950 . S
C271 C262 1.390 . S
C271 H264 0.950 . S
C271 C268 1.387 1_565 S
C272 C273 1.387 . S
C272 H276 0.950 . S
C272 C281 1.390 . S
C273 C272 1.387 . S
C273 C275 1.387 . S
H274 C281 0.950 . S
C275 C273 1.387 . S
C275 C277 1.390 . S
C275 H279 0.950 . S
H276 C272 0.950 . S
C277 C275 1.390 . S
C277 C278 1.387 . S
C277 H280 0.950 . S
C278 C277 1.387 . S
C278 C281 1.387 . S
H279 C275 0.950 . S
H280 C277 0.950 . S
C281 C272 1.390 . S
C281 H274 0.950 . S
C281 C278 1.387 . S
C282 C283 1.387 1_556 S
C282 H286 0.950 . S
C282 C291 1.390 . S
C283 C282 1.387 1_554 S
C283 C285 1.387 . S
H284 C291 0.950 . S
C285 C283 1.387 . S
C285 C287 1.390 . S
C285 H289 0.950 . S
H286 C282 0.950 . S
C287 C285 1.390 . S
C287 C288 1.387 . S
C287 H290 0.950 . S
C288 C287 1.387 . S
C288 C291 1.387 1_554 S
H289 C285 0.950 . S
H290 C287 0.950 . S
C291 C282 1.390 . S
C291 H284 0.950 . S
C291 C288 1.387 1_556 S
C292 C293 1.387 . S
C292 H296 0.950 . S
C292 C301 1.390 . S
C293 C292 1.387 . S
C293 C295 1.387 1_554 S
H294 C301 0.950 . S
C295 C293 1.387 1_556 S
C295 C297 1.390 . S
C295 H299 0.950 . S
H296 C292 0.950 . S
C297 C295 1.390 . S
C297 C298 1.387 1_556 S
C297 H300 0.950 . S
C298 C297 1.387 1_554 S
C298 C301 1.387 . S
H299 C295 0.950 . S
H300 C297 0.950 . S
C301 C292 1.390 . S
C301 H294 0.950 . S
C301 C298 1.387 . S
C302 C303 1.387 1_556 S
C302 H306 0.950 . S
C302 C311 1.390 . S
C303 C302 1.387 1_554 S
C303 C305 1.387 . S
H304 C311 0.950 . S
C305 C303 1.387 . S
C305 C307 1.390 . S
C305 H309 0.950 . S
H306 C302 0.950 . S
C307 C305 1.390 . S
C307 C308 1.387 . S
C307 H310 0.950 . S
C308 C307 1.387 . S
C308 C311 1.387 1_554 S
H309 C305 0.950 . S
H310 C307 0.950 . S
C311 C302 1.390 . S
C311 H304 0.950 . S
C311 C308 1.387 1_556 S
C312 C313 1.387 . S
C312 H316 0.950 . S
C312 C321 1.390 . S
C313 C312 1.387 . S
C313 C315 1.387 1_556 S
H314 C321 0.950 . S
C315 C313 1.387 1_554 S
C315 C317 1.390 . S
C315 H319 0.950 . S
H316 C312 0.950 . S
C317 C315 1.390 . S
C317 C318 1.387 1_554 S
C317 H320 0.950 . S
C318 C317 1.387 1_556 S
C318 C321 1.387 . S
H319 C315 0.950 . S
H320 C317 0.950 . S
C321 C312 1.390 . S
C321 H314 0.950 . S
C321 C318 1.387 . S
C322 C323 1.387 1_554 S
C322 H326 0.950 . S
C322 C331 1.390 . S
C323 C322 1.387 1_556 S
C323 C325 1.387 . S
H324 C331 0.950 . S
C325 C323 1.387 . S
C325 C327 1.390 . S
C325 H329 0.950 . S
H326 C322 0.950 . S
C327 C325 1.390 . S
C327 C328 1.387 . S
C327 H330 0.950 . S
C328 C327 1.387 . S
C328 C331 1.387 1_556 S
H329 C325 0.950 . S
H330 C327 0.950 . S
C331 C322 1.390 . S
C331 H324 0.950 . S
C331 C328 1.387 1_554 S
C332 C333 1.387 . S
C332 H336 0.950 . S
C332 C341 1.390 . S
C333 C332 1.387 . S
C333 C335 1.387 1_556 S
H334 C341 0.950 . S
C335 C333 1.387 1_554 S
C335 C337 1.390 . S
C335 H339 0.950 . S
H336 C332 0.950 . S
C337 C335 1.390 . S
C337 C338 1.387 1_554 S
C337 H340 0.950 . S
C338 C337 1.387 1_556 S
C338 C341 1.387 . S
H339 C335 0.950 . S
H340 C337 0.950 . S
C341 C332 1.390 . S
C341 H334 0.950 . S
C341 C338 1.387 . S
C253 C75 1.494 . S
C258 C66 1.494 . S
C263 C159 1.468 . S
C268 C150 1.469 . S
C273 C243 1.484 . S
C278 C234 1.484 . S
C283 C56 1.675 . S
C288 C240 1.634 1_554 S
C293 C156 0.831 . S
C298 C72 0.856 1_554 S
C303 C140 2.345 . S
C308 C235 2.447 . S
C313 C67 1.675 . S
C318 C231 1.639 1_556 S
C323 C63 0.854 1_556 S
C328 C147 0.831 . S
C333 C224 2.445 . S
C338 C151 2.342 . S
