# Generated by pormake.
# Topology xff, (7)-cn, num edge types: 1
# Building blocks:
#     Node 0, Type 0, BuildingBlock: NUHQUE_clean_sbu_2, # of connection points: 7
#     Node 1, Type 0, BuildingBlock: NUHQUE_clean_sbu_2, # of connection points: 7
#     Node 2, Type 0, BuildingBlock: NUHQUE_clean_sbu_2, # of connection points: 7
#     Node 3, Type 0, BuildingBlock: NUHQUE_clean_sbu_2, # of connection points: 7
#     Node 4, Type 0, BuildingBlock: NUHQUE_clean_sbu_2, # of connection points: 7
#     Node 5, Type 0, BuildingBlock: NUHQUE_clean_sbu_2, # of connection points: 7
#     Node 6, Type 0, BuildingBlock: NUHQUE_clean_sbu_2, # of connection points: 7
#     Node 7, Type 0, BuildingBlock: NUHQUE_clean_sbu_2, # of connection points: 7
#     Node 8, Type 0, BuildingBlock: NUHQUE_clean_sbu_2, # of connection points: 7
#     Node 9, Type 0, BuildingBlock: NUHQUE_clean_sbu_2, # of connection points: 7
#     Node 10, Type 0, BuildingBlock: NUHQUE_clean_sbu_2, # of connection points: 7
#     Node 11, Type 0, BuildingBlock: NUHQUE_clean_sbu_2, # of connection points: 7
#     Node 12, Type 0, BuildingBlock: NUHQUE_clean_sbu_2, # of connection points: 7
#     Node 13, Type 0, BuildingBlock: NUHQUE_clean_sbu_2, # of connection points: 7
#     Node 14, Type 0, BuildingBlock: NUHQUE_clean_sbu_2, # of connection points: 7
#     Node 15, Type 0, BuildingBlock: NUHQUE_clean_sbu_2, # of connection points: 7
#     Edge 16, Type (0, 0), BuildingBlock: MIFKUJ_clean_linker_0, # of connection points: 2
#     Edge 17, Type (0, 0), BuildingBlock: MIFKUJ_clean_linker_0, # of connection points: 2
#     Edge 18, Type (0, 0), BuildingBlock: MIFKUJ_clean_linker_0, # of connection points: 2
#     Edge 19, Type (0, 0), BuildingBlock: MIFKUJ_clean_linker_0, # of connection points: 2
#     Edge 20, Type (0, 0), BuildingBlock: MIFKUJ_clean_linker_0, # of connection points: 2
#     Edge 21, Type (0, 0), BuildingBlock: MIFKUJ_clean_linker_0, # of connection points: 2
#     Edge 22, Type (0, 0), BuildingBlock: MIFKUJ_clean_linker_0, # of connection points: 2
#     Edge 23, Type (0, 0), BuildingBlock: MIFKUJ_clean_linker_0, # of connection points: 2
#     Edge 24, Type (0, 0), BuildingBlock: MIFKUJ_clean_linker_0, # of connection points: 2
#     Edge 25, Type (0, 0), BuildingBlock: MIFKUJ_clean_linker_0, # of connection points: 2
#     Edge 26, Type (0, 0), BuildingBlock: MIFKUJ_clean_linker_0, # of connection points: 2
#     Edge 27, Type (0, 0), BuildingBlock: MIFKUJ_clean_linker_0, # of connection points: 2
#     Edge 28, Type (0, 0), BuildingBlock: MIFKUJ_clean_linker_0, # of connection points: 2
#     Edge 29, Type (0, 0), BuildingBlock: MIFKUJ_clean_linker_0, # of connection points: 2
#     Edge 30, Type (0, 0), BuildingBlock: MIFKUJ_clean_linker_0, # of connection points: 2
#     Edge 31, Type (0, 0), BuildingBlock: MIFKUJ_clean_linker_0, # of connection points: 2
#     Edge 32, Type (0, 0), BuildingBlock: MIFKUJ_clean_linker_0, # of connection points: 2
#     Edge 33, Type (0, 0), BuildingBlock: MIFKUJ_clean_linker_0, # of connection points: 2
#     Edge 34, Type (0, 0), BuildingBlock: MIFKUJ_clean_linker_0, # of connection points: 2
#     Edge 35, Type (0, 0), BuildingBlock: MIFKUJ_clean_linker_0, # of connection points: 2
#     Edge 36, Type (0, 0), BuildingBlock: MIFKUJ_clean_linker_0, # of connection points: 2
#     Edge 37, Type (0, 0), BuildingBlock: MIFKUJ_clean_linker_0, # of connection points: 2
#     Edge 38, Type (0, 0), BuildingBlock: MIFKUJ_clean_linker_0, # of connection points: 2
#     Edge 39, Type (0, 0), BuildingBlock: MIFKUJ_clean_linker_0, # of connection points: 2
#     Edge 40, Type (0, 0), BuildingBlock: MIFKUJ_clean_linker_0, # of connection points: 2
#     Edge 41, Type (0, 0), BuildingBlock: MIFKUJ_clean_linker_0, # of connection points: 2
#     Edge 42, Type (0, 0), BuildingBlock: MIFKUJ_clean_linker_0, # of connection points: 2
#     Edge 43, Type (0, 0), BuildingBlock: MIFKUJ_clean_linker_0, # of connection points: 2
#     Edge 44, Type (0, 0), BuildingBlock: MIFKUJ_clean_linker_0, # of connection points: 2
#     Edge 45, Type (0, 0), BuildingBlock: MIFKUJ_clean_linker_0, # of connection points: 2
#     Edge 46, Type (0, 0), BuildingBlock: MIFKUJ_clean_linker_0, # of connection points: 2
#     Edge 47, Type (0, 0), BuildingBlock: MIFKUJ_clean_linker_0, # of connection points: 2
#     Edge 48, Type (0, 0), BuildingBlock: MIFKUJ_clean_linker_0, # of connection points: 2
#     Edge 49, Type (0, 0), BuildingBlock: MIFKUJ_clean_linker_0, # of connection points: 2
#     Edge 50, Type (0, 0), BuildingBlock: MIFKUJ_clean_linker_0, # of connection points: 2
#     Edge 51, Type (0, 0), BuildingBlock: MIFKUJ_clean_linker_0, # of connection points: 2
#     Edge 52, Type (0, 0), BuildingBlock: MIFKUJ_clean_linker_0, # of connection points: 2
#     Edge 53, Type (0, 0), BuildingBlock: MIFKUJ_clean_linker_0, # of connection points: 2
#     Edge 54, Type (0, 0), BuildingBlock: MIFKUJ_clean_linker_0, # of connection points: 2
#     Edge 55, Type (0, 0), BuildingBlock: MIFKUJ_clean_linker_0, # of connection points: 2
#     Edge 56, Type (0, 0), BuildingBlock: MIFKUJ_clean_linker_0, # of connection points: 2
#     Edge 57, Type (0, 0), BuildingBlock: MIFKUJ_clean_linker_0, # of connection points: 2
#     Edge 58, Type (0, 0), BuildingBlock: MIFKUJ_clean_linker_0, # of connection points: 2
#     Edge 59, Type (0, 0), BuildingBlock: MIFKUJ_clean_linker_0, # of connection points: 2
#     Edge 60, Type (0, 0), BuildingBlock: MIFKUJ_clean_linker_0, # of connection points: 2
#     Edge 61, Type (0, 0), BuildingBlock: MIFKUJ_clean_linker_0, # of connection points: 2
#     Edge 62, Type (0, 0), BuildingBlock: MIFKUJ_clean_linker_0, # of connection points: 2
#     Edge 63, Type (0, 0), BuildingBlock: MIFKUJ_clean_linker_0, # of connection points: 2
#     Edge 64, Type (0, 0), BuildingBlock: MIFKUJ_clean_linker_0, # of connection points: 2
#     Edge 65, Type (0, 0), BuildingBlock: MIFKUJ_clean_linker_0, # of connection points: 2
#     Edge 66, Type (0, 0), BuildingBlock: MIFKUJ_clean_linker_0, # of connection points: 2
#     Edge 67, Type (0, 0), BuildingBlock: MIFKUJ_clean_linker_0, # of connection points: 2
#     Edge 68, Type (0, 0), BuildingBlock: MIFKUJ_clean_linker_0, # of connection points: 2
#     Edge 69, Type (0, 0), BuildingBlock: MIFKUJ_clean_linker_0, # of connection points: 2
#     Edge 70, Type (0, 0), BuildingBlock: MIFKUJ_clean_linker_0, # of connection points: 2
#     Edge 71, Type (0, 0), BuildingBlock: MIFKUJ_clean_linker_0, # of connection points: 2
# Relax obj value: 0.129
# Max RMSD: 0.229
# Mean RMSD: 0.229
data_MOF--net-xff--node1-NUHQUE_clean_sbu_2--edge1-MIFKUJ_clean_linker_0
_symmetry_space_group_name_H-M    P1
_symmetry_Int_Tables_number       1
_symmetry_cell_setting            triclinic
loop_
_symmetry_equiv_pos_as_xyz
'x, y, z'
_cell_length_a     43.421432
_cell_length_b     43.483483
_cell_length_c     86.395073
_cell_angle_alpha  89.818766
_cell_angle_beta   90.565157
_cell_angle_gamma 89.787556
loop_
_atom_site_label
_atom_site_type_symbol
_atom_site_fract_x
_atom_site_fract_y
_atom_site_fract_z
_atom_type_partial_charge
O0 O 0.2976 0.22121 0.06069 0.0
Tb1 Tb 0.29391 0.20137 0.08373 0.0
Eu2 Eu 0.32495 0.12049 0.08158 0.0
C3 C 0.32007 0.24066 0.05805 0.0
O4 O 0.34147 0.244 0.06875 0.0
C5 C 0.36392 0.18234 0.08676 0.0
O6 O 0.33942 0.0922 0.10257 0.0
C7 C 0.31908 0.09192 0.05535 0.0
C8 C 0.33312 0.10403 0.11624 0.0
O9 O 0.32132 0.13185 0.11681 0.0
C10 C 0.25609 0.14223 0.08783 0.0
C11 C 0.30248 0.07098 0.04463 0.0
C12 C 0.29606 0.08147 0.02942 0.0
C13 C 0.28291 0.06173 0.01832 0.0
C14 C 0.27487 0.03193 0.0229 0.0
C15 C 0.28212 0.02049 0.03767 0.0
C16 C 0.29612 0.04011 0.04857 0.0
O17 O 0.34002 0.19471 0.09371 0.0
O18 O 0.36204 0.15602 0.0794 0.0
O19 O 0.28293 0.2494 0.08875 0.0
O20 O 0.26649 0.21485 0.10389 0.0
C21 C 0.26735 0.2443 0.10123 0.0
O22 O 0.27975 0.12705 0.09341 0.0
O23 O 0.25944 0.16623 0.07875 0.0
O24 O 0.33434 0.08035 0.0673 0.0
O25 O 0.30705 0.11928 0.05794 0.0
H26 H 0.30261 0.10457 0.02609 0.0
H27 H 0.26408 0.01674 0.01457 0.0
H28 H 0.30236 0.03127 0.05992 0.0
O29 O 0.54772 0.54313 0.3182 0.0
Tb30 Tb 0.56661 0.54165 0.34166 0.0
Eu31 Eu 0.64362 0.57189 0.3313 0.0
C32 C 0.52721 0.56454 0.31476 0.0
O33 O 0.52207 0.58629 0.32494 0.0
C34 C 0.58279 0.61098 0.33907 0.0
O35 O 0.66937 0.58821 0.3527 0.0
C36 C 0.67291 0.57276 0.30526 0.0
C37 C 0.6585 0.57873 0.36608 0.0
O38 O 0.6326 0.56319 0.36598 0.0
C39 C 0.62846 0.50077 0.34266 0.0
C40 C 0.69399 0.55692 0.2944 0.0
C41 C 0.6811 0.54156 0.2815 0.0
C42 C 0.7 0.52922 0.27003 0.0
C43 C 0.73184 0.53254 0.27128 0.0
C44 C 0.74518 0.54882 0.28354 0.0
C45 C 0.72632 0.56056 0.29533 0.0
O46 O 0.57455 0.58929 0.34884 0.0
O47 O 0.60473 0.60617 0.32903 0.0
O48 O 0.51824 0.53019 0.34535 0.0
O49 O 0.55021 0.52268 0.36366 0.0
C50 C 0.5215 0.52024 0.35944 0.0
O51 O 0.64726 0.52412 0.34101 0.0
O52 O 0.59836 0.50257 0.34058 0.0
O53 O 0.68398 0.58561 0.31795 0.0
O54 O 0.64538 0.56066 0.30701 0.0
H55 H 0.65632 0.53987 0.28012 0.0
H56 H 0.74637 0.5238 0.26212 0.0
H57 H 0.73662 0.57372 0.30465 0.0
O58 O 0.24901 0.78561 0.56108 0.0
Tb59 Tb 0.23497 0.81195 0.58111 0.0
Eu60 Eu 0.20076 0.88724 0.58572 0.0
C61 C 0.23213 0.78383 0.54841 0.0
O62 O 0.2092 0.80317 0.54621 0.0
C63 C 0.16197 0.82488 0.58328 0.0
O64 O 0.1902 0.91957 0.60521 0.0
C65 C 0.20007 0.91285 0.55846 0.0
C66 C 0.18794 0.90631 0.61883 0.0
O67 O 0.19072 0.87623 0.61958 0.0
C68 C 0.27143 0.87123 0.58969 0.0
C69 C 0.21497 0.93438 0.54739 0.0
C70 C 0.22534 0.92282 0.53309 0.0
C71 C 0.2368 0.9428 0.52175 0.0
C72 C 0.23832 0.97425 0.5247 0.0
C73 C 0.22754 0.98645 0.53859 0.0
C74 C 0.21566 0.96655 0.54995 0.0
O75 O 0.1851 0.81099 0.57633 0.0
O76 O 0.16452 0.8519 0.58986 0.0
O77 O 0.24895 0.76625 0.58878 0.0
O78 O 0.24348 0.80083 0.6058 0.0
C79 C 0.25097 0.77209 0.60344 0.0
O80 O 0.24693 0.88146 0.5967 0.0
O81 O 0.26966 0.8485 0.57964 0.0
O82 O 0.18579 0.92445 0.57051 0.0
O83 O 0.21363 0.88619 0.56134 0.0
H84 H 0.22363 0.89847 0.53059 0.0
H85 H 0.24652 0.98962 0.51571 0.0
H86 H 0.20657 0.97616 0.56052 0.0
O87 O 0.97543 0.49449 0.81078 0.0
Tb88 Tb 0.95082 0.48045 0.83128 0.0
Eu89 Eu 0.87583 0.44678 0.83613 0.0
C90 C 0.97746 0.47743 0.79832 0.0
O91 O 0.95885 0.454 0.79638 0.0
C92 C 0.93825 0.40758 0.83372 0.0
O93 O 0.84417 0.43663 0.85596 0.0
C94 C 0.85048 0.44746 0.80869 0.0
C95 C 0.85717 0.44003 0.86967 0.0
O96 O 0.88668 0.4466 0.87025 0.0
C97 C 0.89268 0.51725 0.84077 0.0
C98 C 0.83026 0.46303 0.79696 0.0
C99 C 0.84338 0.47243 0.78281 0.0
C100 C 0.82477 0.48431 0.77083 0.0
C101 C 0.79314 0.48705 0.77295 0.0
C102 C 0.77926 0.47793 0.78679 0.0
C103 C 0.79791 0.46557 0.7988 0.0
O104 O 0.95204 0.43067 0.82667 0.0
O105 O 0.91132 0.41015 0.84037 0.0
O106 O 0.99642 0.49676 0.83769 0.0
O107 O 0.96509 0.48733 0.85573 0.0
C108 C 0.99281 0.49702 0.85255 0.0
O109 O 0.88133 0.4926 0.84716 0.0
O110 O 0.9142 0.51534 0.83017 0.0
O111 O 0.83782 0.43412 0.82078 0.0
O112 O 0.87777 0.45948 0.8117 0.0
H113 H 0.8679 0.4698 0.78096 0.0
H114 H 0.77902 0.49542 0.76338 0.0
H115 H 0.78726 0.45774 0.80939 0.0
O116 O 0.72682 0.79413 0.95732 0.0
Tb117 Tb 0.7262 0.81419 0.93423 0.0
Eu118 Eu 0.69487 0.8915 0.94274 0.0
C119 C 0.70423 0.77626 0.96186 0.0
O120 O 0.67955 0.77372 0.95306 0.0
C121 C 0.65597 0.83052 0.93599 0.0
O122 O 0.67861 0.92053 0.9223 0.0
C123 C 0.70199 0.91823 0.9693 0.0
C124 C 0.6833 0.90844 0.90852 0.0
O125 O 0.69339 0.87996 0.90785 0.0
C126 C 0.7636 0.87531 0.9311 0.0
C127 C 0.71738 0.94063 0.97965 0.0
C128 C 0.7279 0.93046 0.99434 0.0
C129 C 0.73873 0.95166 1.00534 0.0
C130 C 0.74029 0.98273 1.00138 0.0
C131 C 0.73005 0.99324 0.98692 0.0
C132 C 0.71825 0.97228 0.97606 0.0
O133 O 0.67811 0.82072 0.92691 0.0
O134 O 0.66021 0.85372 0.94542 0.0
O135 O 0.73879 0.76665 0.92908 0.0
O136 O 0.74727 0.80107 0.91222 0.0
C137 C 0.74976 0.7719 0.9154 0.0
O138 O 0.73869 0.89201 0.92934 0.0
O139 O 0.76305 0.84778 0.93744 0.0
O140 O 0.6828 0.92843 0.95848 0.0
O141 O 0.71726 0.89319 0.9654 0.0
H142 H 0.72614 0.90638 0.9975 0.0
H143 H 0.74829 0.99918 1.00995 0.0
H144 H 0.70919 0.9807 0.96511 0.0
O145 O 0.47629 0.48404 0.70775 0.0
Tb146 Tb 0.4559 0.47885 0.68475 0.0
Eu147 Eu 0.37675 0.44875 0.68662 0.0
C148 C 0.48886 0.46066 0.71519 0.0
O149 O 0.48486 0.43275 0.7098 0.0
C150 C 0.43805 0.40778 0.68537 0.0
O151 O 0.34643 0.43486 0.66647 0.0
C152 C 0.34497 0.46174 0.71074 0.0
C153 C 0.35837 0.42158 0.65425 0.0
O154 O 0.38742 0.41306 0.6547 0.0
C155 C 0.39645 0.51545 0.67722 0.0
C156 C 0.32649 0.46912 0.72451 0.0
C157 C 0.34114 0.47822 0.73839 0.0
C158 C 0.32383 0.48213 0.75186 0.0
C159 C 0.29201 0.47775 0.75139 0.0
C160 C 0.27701 0.46931 0.73768 0.0
C161 C 0.29426 0.46507 0.72419 0.0
O162 O 0.45169 0.43035 0.67788 0.0
O163 O 0.41118 0.41128 0.69199 0.0
O164 O 0.50375 0.48894 0.67943 0.0
O165 O 0.46916 0.50076 0.6629 0.0
C166 C 0.49859 0.50101 0.6659 0.0
O167 O 0.38544 0.48984 0.67159 0.0
O168 O 0.42061 0.51474 0.68649 0.0
O169 O 0.33538 0.442 0.70022 0.0
O170 O 0.37182 0.47474 0.70805 0.0
H171 H 0.36591 0.48115 0.73886 0.0
H172 H 0.27872 0.4813 0.76182 0.0
H173 H 0.2827 0.45811 0.71359 0.0
O174 O 0.77057 0.22583 0.46139 0.0
Tb175 Tb 0.77961 0.19871 0.4409 0.0
Eu176 Eu 0.81838 0.12549 0.43801 0.0
C177 C 0.78925 0.22719 0.47343 0.0
O178 O 0.81206 0.20742 0.4748 0.0
C179 C 0.85392 0.19048 0.43927 0.0
O180 O 0.83297 0.09371 0.4189 0.0
C181 C 0.81751 0.10259 0.46588 0.0
C182 C 0.83054 0.10627 0.40506 0.0
O183 O 0.82208 0.13528 0.40416 0.0
C184 C 0.74757 0.13724 0.43144 0.0
C185 C 0.80203 0.08207 0.47724 0.0
C186 C 0.79236 0.09448 0.49153 0.0
C187 C 0.77943 0.07543 0.50292 0.0
C188 C 0.77635 0.04404 0.50004 0.0
C189 C 0.78631 0.03099 0.48617 0.0
C190 C 0.79933 0.05001 0.47476 0.0
O191 O 0.82952 0.20499 0.44474 0.0
O192 O 0.85332 0.16219 0.43401 0.0
O193 O 0.74763 0.23425 0.43308 0.0
O194 O 0.78092 0.2179 0.4172 0.0
C195 C 0.75802 0.23705 0.41914 0.0
O196 O 0.77311 0.12642 0.42576 0.0
O197 O 0.74808 0.15926 0.44188 0.0
O198 O 0.83272 0.08995 0.45437 0.0
O199 O 0.80378 0.12872 0.46208 0.0
H200 H 0.79521 0.11879 0.49386 0.0
H201 H 0.76726 0.02933 0.50908 0.0
H202 H 0.80751 0.03981 0.46413 0.0
O203 O 0.04639 0.52394 0.21106 0.0
Tb204 Tb 0.06941 0.53173 0.18919 0.0
Eu205 Eu 0.14618 0.56842 0.18678 0.0
C206 C 0.0432 0.54535 0.22164 0.0
O207 O 0.0591 0.57088 0.22057 0.0
C208 C 0.08117 0.60667 0.18768 0.0
O209 O 0.17529 0.5811 0.16622 0.0
C210 C 0.17449 0.56466 0.21333 0.0
C211 C 0.16055 0.58053 0.15284 0.0
O212 O 0.1308 0.57505 0.15297 0.0
C213 C 0.13047 0.49866 0.18094 0.0
C214 C 0.19559 0.55011 0.22488 0.0
C215 C 0.18308 0.53964 0.23896 0.0
C216 C 0.20243 0.52959 0.25105 0.0
C217 C 0.23423 0.52922 0.24902 0.0
C218 C 0.24725 0.53983 0.23529 0.0
C219 C 0.22799 0.55055 0.2232 0.0
O220 O 0.06374 0.58186 0.18874 0.0
O221 O 0.11139 0.60641 0.18656 0.0
O222 O 0.02626 0.50854 0.18405 0.0
O223 O 0.05384 0.52281 0.16522 0.0
C224 C 0.02814 0.50946 0.16909 0.0
O225 O 0.13967 0.52402 0.17438 0.0
O226 O 0.10779 0.499 0.19092 0.0
O227 O 0.18598 0.57924 0.20129 0.0
O228 O 0.14737 0.55203 0.21064 0.0
H229 H 0.15843 0.54056 0.24079 0.0
H230 H 0.2491 0.52191 0.25854 0.0
H231 H 0.23821 0.55981 0.2128 0.0
O232 O 0.78384 0.72521 0.55994 0.0
Tb233 Tb 0.78741 0.70541 0.58307 0.0
Eu234 Eu 0.82017 0.62623 0.5843 0.0
C235 C 0.80734 0.73878 0.55331 0.0
O236 O 0.83488 0.73586 0.55953 0.0
C237 C 0.86034 0.68859 0.58355 0.0
O238 O 0.83385 0.59676 0.60496 0.0
C239 C 0.8055 0.59538 0.55989 0.0
C240 C 0.83682 0.61074 0.6184 0.0
O241 O 0.83473 0.6409 0.61862 0.0
C242 C 0.75399 0.6466 0.59265 0.0
C243 C 0.79708 0.57763 0.54588 0.0
C244 C 0.78842 0.59294 0.53204 0.0
C245 C 0.78138 0.5759 0.5187 0.0
C246 C 0.78333 0.54391 0.51918 0.0
C247 C 0.79015 0.5281 0.53294 0.0
C248 C 0.79776 0.54515 0.54625 0.0
O249 O 0.83712 0.70576 0.58835 0.0
O250 O 0.85799 0.65966 0.57932 0.0
O251 O 0.76518 0.74993 0.58659 0.0
O252 O 0.77467 0.72192 0.60619 0.0
C253 C 0.76304 0.74803 0.60153 0.0
O254 O 0.78012 0.63866 0.59905 0.0
O255 O 0.75355 0.66838 0.58212 0.0
O256 O 0.82455 0.58446 0.57055 0.0
O257 O 0.79396 0.6229 0.56266 0.0
H258 H 0.78702 0.61782 0.53166 0.0
H259 H 0.77868 0.53119 0.50863 0.0
H260 H 0.80334 0.53327 0.55696 0.0
O261 O 0.04919 0.03648 0.81716 0.0
Tb262 Tb 0.06693 0.03898 0.84081 0.0
Eu263 Eu 0.14505 0.0689 0.83046 0.0
C264 C 0.03264 0.0594 0.81152 0.0
O265 O 0.03057 0.08487 0.81956 0.0
C266 C 0.08463 0.10776 0.83831 0.0
O267 O 0.16949 0.08548 0.8522 0.0
C268 C 0.17621 0.07211 0.80503 0.0
C269 C 0.16192 0.07241 0.86542 0.0
O270 O 0.13901 0.05277 0.86546 0.0
C271 C 0.12883 0.99749 0.8415 0.0
C272 C 0.19757 0.05563 0.79461 0.0
C273 C 0.18587 0.04455 0.78042 0.0
C274 C 0.20538 0.03054 0.76975 0.0
C275 C 0.23664 0.02736 0.77318 0.0
C276 C 0.24912 0.03927 0.78689 0.0
C277 C 0.22955 0.05354 0.79765 0.0
O278 O 0.07648 0.08619 0.84814 0.0
O279 O 0.10589 0.10253 0.828 0.0
O280 O 0.01793 0.0328 0.84571 0.0
O281 O 0.05108 0.01621 0.8619 0.0
C282 C 0.02182 0.01848 0.8588 0.0
O283 O 0.14799 0.02009 0.83867 0.0
O284 O 0.09855 0.99983 0.8408 0.0
O285 O 0.1866 0.08312 0.81827 0.0
O286 O 0.14806 0.06111 0.80583 0.0
H287 H 0.1617 0.04746 0.77747 0.0
H288 H 0.25174 0.01751 0.76454 0.0
H289 H 0.2393 0.06346 0.80808 0.0
O290 O 0.73801 0.29588 0.05837 0.0
Tb291 Tb 0.73572 0.31687 0.08121 0.0
Eu292 Eu 0.70082 0.39406 0.08419 0.0
C293 C 0.71321 0.28721 0.0507 0.0
O294 O 0.68605 0.29622 0.05547 0.0
C295 C 0.66143 0.33016 0.08492 0.0
O296 O 0.68835 0.42339 0.10463 0.0
C297 C 0.70493 0.42342 0.05811 0.0
C298 C 0.69088 0.40939 0.1181 0.0
O299 O 0.69776 0.37993 0.11822 0.0
C300 C 0.77017 0.37575 0.09099 0.0
C301 C 0.72074 0.44582 0.04794 0.0
C302 C 0.73283 0.43531 0.03379 0.0
C303 C 0.74507 0.45612 0.02303 0.0
C304 C 0.74526 0.48744 0.02655 0.0
C305 C 0.73294 0.49853 0.04033 0.0
C306 C 0.72042 0.47775 0.05104 0.0
O307 O 0.68606 0.31215 0.08506 0.0
O308 O 0.66214 0.36034 0.08392 0.0
O309 O 0.76213 0.27474 0.08495 0.0
O310 O 0.74566 0.29872 0.10456 0.0
C311 C 0.76082 0.27456 0.09994 0.0
O312 O 0.74528 0.38729 0.09703 0.0
O313 O 0.7684 0.35507 0.07997 0.0
O314 O 0.68917 0.4338 0.06998 0.0
O315 O 0.71805 0.39639 0.06059 0.0
H316 H 0.732 0.41105 0.03097 0.0
H317 H 0.7534 0.50375 0.018 0.0
H318 H 0.70998 0.4865 0.06149 0.0
O319 O 0.47019 0.9919 0.30916 0.0
Tb320 Tb 0.44793 0.9833 0.33122 0.0
Eu321 Eu 0.36941 0.95197 0.33435 0.0
C322 C 0.4758 0.96903 0.29968 0.0
O323 O 0.46309 0.94223 0.30229 0.0
C324 C 0.43181 0.9095 0.33458 0.0
O325 O 0.33914 0.9423 0.35486 0.0
C326 C 0.34128 0.95428 0.30755 0.0
C327 C 0.3539 0.94021 0.3682 0.0
O328 O 0.38409 0.94238 0.36813 0.0
C329 C 0.38957 0.02137 0.33907 0.0
C330 C 0.31959 0.97074 0.2968 0.0
C331 C 0.33084 0.98355 0.28281 0.0
C332 C 0.31058 0.9979 0.27202 0.0
C333 C 0.27973 1.00142 0.27639 0.0
C334 C 0.26731 0.98368 0.28825 0.0
C335 C 0.28729 0.96919 0.29889 0.0
O336 O 0.45034 0.93285 0.3318 0.0
O337 O 0.40193 0.91183 0.33677 0.0
O338 O 0.4943 0.99787 0.33763 0.0
O339 O 0.46026 0.99705 0.35508 0.0
C340 C 0.48909 1.00286 0.35216 0.0
O341 O 0.37663 0.99769 0.34565 0.0
O342 O 0.41141 0.01802 0.32875 0.0
O343 O 0.32994 0.94038 0.31981 0.0
O344 O 0.36883 0.96614 0.31003 0.0
H345 H 0.35498 0.98088 0.28013 0.0
H346 H 0.26384 0.01484 0.26938 0.0
H347 H 0.27771 0.95559 0.30819 0.0
O348 O 0.24261 0.28745 0.46341 0.0
Tb349 Tb 0.23256 0.31272 0.4422 0.0
Eu350 Eu 0.19582 0.38744 0.43665 0.0
C351 C 0.22323 0.28459 0.47492 0.0
O352 O 0.19874 0.30234 0.47548 0.0
C353 C 0.15834 0.32343 0.43935 0.0
O354 O 0.18587 0.4203 0.41699 0.0
C355 C 0.19879 0.41257 0.46393 0.0
C356 C 0.18092 0.40701 0.40354 0.0
O357 O 0.1801 0.37681 0.40318 0.0
C358 C 0.26545 0.37242 0.43179 0.0
C359 C 0.21287 0.43502 0.47489 0.0
C360 C 0.22232 0.42462 0.48974 0.0
C361 C 0.23157 0.44569 0.50123 0.0
C362 C 0.2327 0.47696 0.4975 0.0
C363 C 0.22283 0.48788 0.4831 0.0
C364 C 0.21292 0.467 0.4717 0.0
O365 O 0.18236 0.3083 0.44514 0.0
O366 O 0.15951 0.35151 0.43371 0.0
O367 O 0.26027 0.27274 0.4364 0.0
O368 O 0.23503 0.29461 0.41831 0.0
C369 C 0.25387 0.27198 0.42172 0.0
O370 O 0.24021 0.38051 0.42456 0.0
O371 O 0.26471 0.35162 0.44289 0.0
O372 O 0.18128 0.42315 0.45254 0.0
O373 O 0.21425 0.38742 0.46036 0.0
H374 H 0.2209 0.40038 0.49261 0.0
H375 H 0.24023 0.49339 0.50618 0.0
H376 H 0.20442 0.4757 0.4607 0.0
O377 O 0.97161 0.99406 0.20415 0.0
Tb378 Tb 0.95824 0.97947 0.18092 0.0
Eu379 Eu 0.88186 0.95428 0.1935 0.0
C380 C 0.97569 0.9747 0.21574 0.0
O381 O 0.9639 0.94702 0.21489 0.0
C382 C 0.94287 0.90837 0.18746 0.0
O383 O 0.85536 0.95043 0.17083 0.0
C384 C 0.84749 0.94513 0.21752 0.0
C385 C 0.86867 0.93969 0.15832 0.0
O386 O 0.89754 0.93069 0.15922 0.0
C387 C 0.89832 0.017 0.17881 0.0
C388 C 0.82732 0.96068 0.22891 0.0
C389 C 0.84016 0.97464 0.24224 0.0
C390 C 0.82102 0.98666 0.25377 0.0
C391 C 0.78908 0.98421 0.25206 0.0
C392 C 0.77592 0.9699 0.23919 0.0
C393 C 0.79495 0.95844 0.22749 0.0
O394 O 0.9622 0.93002 0.18316 0.0
O395 O 0.91381 0.9131 0.19126 0.0
O396 O 0.99768 0.00958 0.17779 0.0
O397 O 0.98666 0.9778 0.16004 0.0
C398 C 1.00547 0.99949 0.16428 0.0
O399 O 0.88987 1.00531 0.19208 0.0
O400 O 0.91873 1.00246 0.17051 0.0
O401 O 0.83727 0.94228 0.20321 0.0
O402 O 0.87727 0.95057 0.21841 0.0
H403 H 0.86492 0.97574 0.24383 0.0
H404 H 0.77417 0.9923 0.26121 0.0
H405 H 0.78463 0.94662 0.21772 0.0
O406 O 0.26957 0.72137 0.96301 0.0
Tb407 Tb 0.28275 0.69877 0.94164 0.0
Eu408 Eu 0.3169 0.62513 0.9357 0.0
C409 C 0.28955 0.72539 0.97437 0.0
O410 O 0.31583 0.71038 0.97413 0.0
C411 C 0.35638 0.68717 0.93825 0.0
O412 O 0.32813 0.59376 0.91588 0.0
C413 C 0.31688 0.59936 0.96293 0.0
C414 C 0.33068 0.60782 0.90246 0.0
O415 O 0.32777 0.63791 0.90213 0.0
C416 C 0.24619 0.64089 0.93093 0.0
C417 C 0.30198 0.57815 0.97418 0.0
C418 C 0.28926 0.59034 0.98787 0.0
C419 C 0.27789 0.57073 0.99945 0.0
C420 C 0.27936 0.53894 0.99737 0.0
C421 C 0.29291 0.5263 0.98425 0.0
C422 C 0.30412 0.54581 0.97258 0.0
O423 O 0.33309 0.70149 0.94485 0.0
O424 O 0.35398 0.6598 0.93203 0.0
O425 O 0.26824 0.74499 0.93502 0.0
O426 O 0.27333 0.71164 0.91731 0.0
C427 C 0.26599 0.74014 0.92026 0.0
O428 O 0.27107 0.63069 0.92427 0.0
O429 O 0.24791 0.662 0.94186 0.0
O430 O 0.3309 0.58747 0.95086 0.0
O431 O 0.30373 0.62623 0.96004 0.0
H432 H 0.28887 0.61499 0.98972 0.0
H433 H 0.27158 0.52377 1.00654 0.0
H434 H 0.31542 0.5358 0.96266 0.0
O435 O 0.54851 0.0386 0.70893 0.0
Tb436 Tb 0.56797 0.03822 0.68584 0.0
Eu437 Eu 0.64732 0.06885 0.69109 0.0
C438 C 0.5312 0.06184 0.71327 0.0
O439 O 0.52897 0.08605 0.7042 0.0
C440 C 0.58549 0.10843 0.68589 0.0
O441 O 0.67663 0.0832 0.67067 0.0
C442 C 0.67445 0.05959 0.71759 0.0
C443 C 0.66246 0.08324 0.65708 0.0
O444 O 0.63261 0.0783 0.65686 0.0
C445 C 0.62773 1.00123 0.68106 0.0
C446 C 0.69587 0.04434 0.72873 0.0
C447 C 0.68397 0.0327 0.74276 0.0
C448 C 0.70376 0.02094 0.75437 0.0
C449 C 0.73552 0.02112 0.75178 0.0
C450 C 0.74789 0.03241 0.73799 0.0
C451 C 0.72803 0.04432 0.72648 0.0
O452 O 0.57406 0.08564 0.67762 0.0
O453 O 0.61082 0.10517 0.69416 0.0
O454 O 0.52024 0.0264 0.68024 0.0
O455 O 0.55533 0.01338 0.66464 0.0
C456 C 0.52589 0.0126 0.66726 0.0
O457 O 0.64268 0.02592 0.67696 0.0
O458 O 0.60322 1.00297 0.6898 0.0
O459 O 0.68542 0.07825 0.70691 0.0
O460 O 0.64883 0.04545 0.71347 0.0
H461 H 0.65936 0.03332 0.74473 0.0
H462 H 0.75111 0.01368 0.76095 0.0
H463 H 0.73762 0.0539 0.71599 0.0
H464 H 0.11003 0.43883 0.18451 0.0
H465 H 0.13264 0.39239 0.17285 0.0
H466 H 0.20598 0.44717 0.15398 0.0
H467 H 0.18394 0.49298 0.1654 0.0
H468 H 0.1785 0.41286 0.13211 0.0
H469 H 0.21996 0.39921 0.18332 0.0
H470 H 0.21775 0.39338 0.21168 0.0
H471 H 0.16337 0.31171 0.20645 0.0
H472 H 0.16484 0.31736 0.17803 0.0
H473 H 0.28096 0.30509 0.10117 0.0
H474 H 0.25771 0.34569 0.11662 0.0
H475 H 0.19735 0.27919 0.13767 0.0
H476 H 0.22222 0.23806 0.12287 0.0
H477 H 0.21396 0.31759 0.15859 0.0
H478 H 0.1745 0.33172 0.10654 0.0
H479 H 0.17763 0.33933 0.07829 0.0
H480 H 0.22979 0.42194 0.08525 0.0
H481 H 0.22724 0.41466 0.11353 0.0
C482 C 0.13122 0.44077 0.17808 0.0
C483 C 0.14497 0.46962 0.17576 0.0
C484 C 0.1441 0.41429 0.17143 0.0
C485 C 0.1709 0.41641 0.16246 0.0
C486 C 0.18517 0.44501 0.16071 0.0
C487 C 0.17245 0.47123 0.16729 0.0
C488 C 0.18347 0.38957 0.154 0.0
C489 C 0.18645 0.39208 0.13791 0.0
C490 C 0.19321 0.36227 0.16152 0.0
C491 C 0.19217 0.35892 0.17857 0.0
C492 C 0.20725 0.38019 0.18822 0.0
C493 C 0.20619 0.37689 0.2043 0.0
C494 C 0.19034 0.35225 0.21086 0.0
C495 C 0.17557 0.33083 0.20135 0.0
C496 C 0.17651 0.33407 0.18526 0.0
C497 C 0.26281 0.29913 0.10915 0.0
C498 C 0.25321 0.26852 0.11078 0.0
C499 C 0.24932 0.32241 0.1179 0.0
C500 C 0.22507 0.31578 0.12804 0.0
C501 C 0.21585 0.285 0.12988 0.0
C502 C 0.22996 0.26153 0.12139 0.0
C503 C 0.20935 0.34095 0.13662 0.0
C504 C 0.20572 0.33817 0.15273 0.0
C505 C 0.19912 0.36824 0.12913 0.0
C506 C 0.20077 0.37255 0.11213 0.0
C507 C 0.18674 0.35142 0.10203 0.0
C508 C 0.18836 0.35572 0.08602 0.0
C509 C 0.20376 0.38118 0.07999 0.0
C510 C 0.21772 0.40232 0.08994 0.0
C511 C 0.21618 0.39813 0.10596 0.0
H512 H 0.20501 0.38444 0.06758 0.0
H513 H 0.18957 0.34971 0.22332 0.0
H514 H 0.27061 0.42135 0.41251 0.0
H515 H 0.31692 0.44433 0.4023 0.0
H516 H 0.37274 0.38116 0.42911 0.0
H517 H 0.32576 0.35752 0.43962 0.0
H518 H 0.39326 0.44591 0.42862 0.0
H519 H 0.3631 0.36539 0.39279 0.0
H520 H 0.32558 0.33814 0.37623 0.0
H521 H 0.30967 0.42068 0.34987 0.0
H522 H 0.34675 0.44853 0.36642 0.0
H523 H 0.52727 0.48647 0.38599 0.0
H524 H 0.48635 0.45975 0.39989 0.0
H525 H 0.41909 0.4962 0.36748 0.0
H526 H 0.46013 0.52158 0.35319 0.0
H527 H 0.40682 0.44034 0.37173 0.0
H528 H 0.42851 0.52296 0.40619 0.0
H529 H 0.46066 0.55665 0.42254 0.0
H530 H 0.48624 0.47946 0.45107 0.0
H531 H 0.45457 0.44521 0.43474 0.0
C532 C 0.29262 0.41219 0.41637 0.0
C533 C 0.29442 0.38725 0.42679 0.0
C534 C 0.31912 0.42548 0.41048 0.0
C535 C 0.34819 0.41416 0.41476 0.0
C536 C 0.3504 0.39009 0.42562 0.0
C537 C 0.32362 0.37661 0.43159 0.0
C538 C 0.37584 0.42716 0.40727 0.0
C539 C 0.39673 0.44418 0.41623 0.0
C540 C 0.37944 0.426 0.39102 0.0
C541 C 0.3576 0.40906 0.38089 0.0
C542 C 0.35149 0.37775 0.38351 0.0
C543 C 0.3303 0.3622 0.37413 0.0
C544 C 0.31523 0.37767 0.36202 0.0
C545 C 0.32137 0.40871 0.35925 0.0
C546 C 0.3425 0.42438 0.36861 0.0
C547 C 0.50369 0.48891 0.38194 0.0
C548 C 0.49677 0.50612 0.36858 0.0
C549 C 0.48028 0.47375 0.38992 0.0
C550 C 0.44946 0.47616 0.38488 0.0
C551 C 0.44262 0.49384 0.37162 0.0
C552 C 0.46606 0.50849 0.3635 0.0
C553 C 0.42439 0.45955 0.39302 0.0
C554 C 0.40384 0.44184 0.38416 0.0
C555 C 0.42053 0.46098 0.40928 0.0
C556 C 0.43948 0.48148 0.41915 0.0
C557 C 0.44119 0.51313 0.41588 0.0
C558 C 0.45929 0.53233 0.42515 0.0
C559 C 0.47556 0.52018 0.43781 0.0
C560 C 0.47368 0.48882 0.44125 0.0
C561 C 0.45565 0.46951 0.43199 0.0
H562 H 0.48956 0.53508 0.44498 0.0
H563 H 0.29882 0.3656 0.35478 0.0
H564 H 0.24467 0.71049 0.60217 0.0
H565 H 0.26915 0.67165 0.61879 0.0
H566 H 0.31054 0.74322 0.64633 0.0
H567 H 0.28496 0.78251 0.62994 0.0
H568 H 0.35069 0.68871 0.63092 0.0
H569 H 0.26695 0.71274 0.66538 0.0
H570 H 0.21235 0.72163 0.67157 0.0
H571 H 0.19017 0.63021 0.6566 0.0
H572 H 0.2446 0.62096 0.65006 0.0
H573 H 0.41781 0.57468 0.6811 0.0
H574 H 0.39309 0.62252 0.67209 0.0
H575 H 0.3169 0.57031 0.65366 0.0
H576 H 0.3411 0.52288 0.66265 0.0
H577 H 0.29586 0.62034 0.66747 0.0
H578 H 0.3725 0.59632 0.63015 0.0
H579 H 0.4246 0.58392 0.6209 0.0
H580 H 0.45764 0.67082 0.63758 0.0
H581 H 0.40576 0.68353 0.64716 0.0
C582 C 0.25845 0.71798 0.61197 0.0
C583 C 0.26267 0.74946 0.61489 0.0
C584 C 0.27249 0.69578 0.62141 0.0
C585 C 0.29162 0.70458 0.63376 0.0
C586 C 0.29571 0.73603 0.63687 0.0
C587 C 0.28095 0.75838 0.62761 0.0
C588 C 0.3082 0.68051 0.64281 0.0
C589 C 0.33904 0.67426 0.63926 0.0
C590 C 0.29251 0.66088 0.65312 0.0
C591 C 0.2598 0.66629 0.6571 0.0
C592 C 0.25038 0.69465 0.66325 0.0
C593 C 0.21947 0.69973 0.66686 0.0
C594 C 0.19779 0.67653 0.66445 0.0
C595 C 0.20699 0.64817 0.65845 0.0
C596 C 0.23787 0.64299 0.6548 0.0
C597 C 0.3957 0.57348 0.67523 0.0
C598 C 0.38157 0.54491 0.67252 0.0
C599 C 0.38163 0.60081 0.67004 0.0
C600 C 0.35317 0.60004 0.6621 0.0
C601 C 0.33877 0.57159 0.65977 0.0
C602 C 0.35282 0.5444 0.66485 0.0
C603 C 0.33861 0.62854 0.65571 0.0
C604 C 0.30795 0.6353 0.65952 0.0
C605 C 0.35424 0.64819 0.64533 0.0
C606 C 0.3854 0.64068 0.63958 0.0
C607 C 0.39096 0.61266 0.63198 0.0
C608 C 0.42042 0.60559 0.62665 0.0
C609 C 0.44445 0.62651 0.62871 0.0
C610 C 0.43902 0.6546 0.63605 0.0
C611 C 0.4096 0.66175 0.64143 0.0
H612 H 0.46726 0.621 0.62458 0.0
H613 H 0.17387 0.6805 0.66726 0.0
H614 H 0.23771 0.60336 0.90626 0.0
H615 H 0.1905 0.58138 0.89632 0.0
H616 H 0.13901 0.62628 0.93221 0.0
H617 H 0.18711 0.64888 0.94256 0.0
H618 H 0.12399 0.55961 0.92566 0.0
H619 H 0.13357 0.65718 0.89916 0.0
H620 H 0.16264 0.6964 0.88476 0.0
H621 H 0.18012 0.63134 0.84858 0.0
H622 H 0.15163 0.59156 0.86289 0.0
H623 H 0.98625 0.51563 0.88294 0.0
H624 H 0.02515 0.54187 0.89905 0.0
H625 H 0.0914 0.53194 0.86246 0.0
H626 H 0.05271 0.5069 0.84638 0.0
H627 H 0.09369 0.58716 0.87185 0.0
H628 H 0.0937 0.48919 0.89719 0.0
H629 H 0.07172 0.4447 0.9109 0.0
H630 H 0.04306 0.50362 0.94791 0.0
H631 H 0.06449 0.54857 0.93429 0.0
C632 C 0.21654 0.60872 0.91222 0.0
C633 C 0.21637 0.62809 0.92528 0.0
C634 C 0.18944 0.596 0.90644 0.0
C635 C 0.16121 0.60227 0.91345 0.0
C636 C 0.16065 0.62116 0.92664 0.0
C637 C 0.18806 0.63418 0.93248 0.0
C638 C 0.13265 0.58956 0.90634 0.0
C639 C 0.11672 0.56614 0.91405 0.0
C640 C 0.12407 0.59722 0.89096 0.0
C641 C 0.14049 0.62138 0.88213 0.0
C642 C 0.14371 0.6512 0.88816 0.0
C643 C 0.1601 0.67353 0.88002 0.0
C644 C 0.17321 0.66637 0.86577 0.0
C645 C 0.16992 0.63687 0.85962 0.0
C646 C 0.15361 0.61444 0.86773 0.0
C647 C 1.00926 0.51874 0.87849 0.0
C648 C 0.01641 0.50927 0.86341 0.0
C649 C 0.03151 0.53373 0.88769 0.0
C650 C 0.06136 0.53907 0.882 0.0
C651 C 0.06858 0.52852 0.86712 0.0
C652 C 0.04642 0.51399 0.85795 0.0
C653 C 0.08498 0.55665 0.89104 0.0
C654 C 0.10021 0.58097 0.88361 0.0
C655 C 0.09342 0.54917 0.9065 0.0
C656 C 0.08028 0.52229 0.91463 0.0
C657 C 0.08241 0.49271 0.90818 0.0
C658 C 0.07012 0.4674 0.91595 0.0
C659 C 0.05589 0.47135 0.93024 0.0
C660 C 0.054 0.50061 0.93681 0.0
C661 C 0.06621 0.52601 0.92908 0.0
H662 H 0.04642 0.45172 0.93625 0.0
H663 H 0.18591 0.68369 0.85949 0.0
H664 H 0.85733 0.52636 0.86599 0.0
H665 H 0.83406 0.57348 0.87494 0.0
H666 H 0.87629 0.62366 0.83765 0.0
H667 H 0.9005 0.57572 0.82847 0.0
H668 H 0.87884 0.65483 0.86563 0.0
H669 H 0.80155 0.60618 0.8352 0.0
H670 H 0.76884 0.56373 0.82592 0.0
H671 H 0.72859 0.55549 0.87092 0.0
H672 H 0.76155 0.59743 0.88059 0.0
H673 H 0.78054 0.7806 0.88829 0.0
H674 H 0.80552 0.74115 0.87238 0.0
H675 H 0.77598 0.67102 0.90434 0.0
H676 H 0.75111 0.71021 0.92021 0.0
H677 H 0.76597 0.65466 0.8742 0.0
H678 H 0.84873 0.69645 0.90538 0.0
H679 H 0.88177 0.73807 0.91535 0.0
H680 H 0.91096 0.75885 0.86915 0.0
H681 H 0.87771 0.71759 0.85888 0.0
C682 C 0.86184 0.54726 0.85955 0.0
C683 C 0.88049 0.54711 0.84629 0.0
C684 C 0.84834 0.57428 0.86473 0.0
C685 C 0.85275 0.60194 0.85675 0.0
C686 C 0.87231 0.60239 0.84386 0.0
C687 C 0.8861 0.57507 0.83863 0.0
C688 C 0.83657 0.62995 0.86217 0.0
C689 C 0.85407 0.65516 0.86714 0.0
C690 C 0.80427 0.63009 0.86442 0.0
C691 C 0.78427 0.60484 0.85865 0.0
C692 C 0.78595 0.59514 0.84317 0.0
C693 C 0.76734 0.57116 0.83784 0.0
C694 C 0.74674 0.55684 0.84785 0.0
C695 C 0.74466 0.56652 0.8632 0.0
C696 C 0.7633 0.59041 0.86861 0.0
C697 C 0.77931 0.75673 0.89184 0.0
C698 C 0.76394 0.74839 0.90545 0.0
C699 C 0.79366 0.73428 0.8828 0.0
C700 C 0.79274 0.70319 0.88723 0.0
C701 C 0.77693 0.69486 0.9007 0.0
C702 C 0.76281 0.71726 0.90977 0.0
C703 C 0.80833 0.6791 0.87802 0.0
C704 C 0.79066 0.65461 0.87236 0.0
C705 C 0.84039 0.6796 0.87519 0.0
C706 C 0.86045 0.70425 0.88135 0.0
C707 C 0.86199 0.71009 0.89734 0.0
C708 C 0.88078 0.73357 0.90305 0.0
C709 C 0.89836 0.75118 0.89288 0.0
C710 C 0.89727 0.74525 0.877 0.0
C711 C 0.87846 0.72182 0.87123 0.0
H712 H 0.9129 0.76935 0.89732 0.0
H713 H 0.73232 0.53831 0.84369 0.0
H714 H 0.55996 0.49133 0.66841 0.0
H715 H 0.60072 0.51543 0.65344 0.0
H716 H 0.53254 0.56497 0.62644 0.0
H717 H 0.49141 0.53974 0.64109 0.0
H718 H 0.58045 0.54605 0.60859 0.0
H719 H 0.56958 0.59927 0.65733 0.0
H720 H 0.56639 0.60158 0.68579 0.0
H721 H 0.65691 0.56206 0.68992 0.0
H722 H 0.66046 0.55913 0.66149 0.0
H723 H 0.69378 0.6574 0.58347 0.0
H724 H 0.64737 0.63249 0.59367 0.0
H725 H 0.70411 0.57653 0.62393 0.0
H726 H 0.74997 0.60104 0.61404 0.0
H727 H 0.65862 0.60272 0.63944 0.0
H728 H 0.67038 0.54622 0.59241 0.0
H729 H 0.67508 0.53878 0.56425 0.0
H730 H 0.58589 0.57969 0.55704 0.0
H731 H 0.5809 0.58785 0.58516 0.0
C732 C 0.55366 0.50712 0.65918 0.0
C733 C 0.52265 0.51398 0.65597 0.0
C734 C 0.57694 0.52095 0.65066 0.0
C735 C 0.56969 0.54258 0.63908 0.0
C736 C 0.53863 0.5485 0.6354 0.0
C737 C 0.51521 0.53418 0.64378 0.0
C738 C 0.59466 0.56002 0.63145 0.0
C739 C 0.59725 0.55893 0.61528 0.0
C740 C 0.61696 0.57624 0.64022 0.0
C741 C 0.6152 0.57887 0.6573 0.0
C742 C 0.58876 0.59102 0.66432 0.0
C743 C 0.58688 0.59241 0.68044 0.0
C744 C 0.61141 0.58193 0.68966 0.0
C745 C 0.63793 0.57016 0.68277 0.0
C746 C 0.63991 0.56868 0.66665 0.0
C747 C 0.69626 0.63969 0.59224 0.0
C748 C 0.72555 0.6314 0.59801 0.0
C749 C 0.66979 0.62541 0.59801 0.0
C750 C 0.67233 0.60267 0.60957 0.0
C751 C 0.70158 0.59412 0.61509 0.0
C752 C 0.72783 0.60822 0.60937 0.0
C753 C 0.64477 0.58843 0.61657 0.0
C754 C 0.64163 0.59021 0.63268 0.0
C755 C 0.62234 0.57254 0.60774 0.0
C756 C 0.62547 0.56807 0.59085 0.0
C757 C 0.65194 0.55398 0.5848 0.0
C758 C 0.65462 0.54955 0.56885 0.0
C759 C 0.63085 0.55887 0.55885 0.0
C760 C 0.60433 0.57258 0.56479 0.0
C761 C 0.60156 0.57712 0.58073 0.0
H762 H 0.63294 0.55537 0.54651 0.0
H763 H 0.60988 0.58297 0.70214 0.0
H764 H 0.78957 0.27032 0.39739 0.0
H765 H 0.76927 0.31367 0.3818 0.0
H766 H 0.67874 0.29821 0.40024 0.0
H767 H 0.69906 0.25606 0.41624 0.0
H768 H 0.68758 0.31011 0.36422 0.0
H769 H 0.70624 0.34805 0.41698 0.0
H770 H 0.73961 0.35649 0.43982 0.0
H771 H 0.80353 0.40656 0.4118 0.0
H772 H 0.77076 0.39785 0.38872 0.0
H773 H 0.5995 0.44625 0.34992 0.0
H774 H 0.62327 0.39925 0.36031 0.0
H775 H 0.71291 0.44119 0.35746 0.0
H776 H 0.68957 0.48805 0.34734 0.0
H777 H 0.70799 0.41501 0.38421 0.0
H778 H 0.69077 0.38405 0.33249 0.0
H779 H 0.66232 0.37527 0.30809 0.0
H780 H 0.60208 0.31244 0.33128 0.0
H781 H 0.62989 0.32126 0.3559 0.0
C782 C 0.76527 0.2759 0.39786 0.0
C783 C 0.7458 0.25986 0.40793 0.0
C784 C 0.75375 0.30065 0.38903 0.0
C785 C 0.72251 0.30903 0.3899 0.0
C786 C 0.70285 0.29201 0.39938 0.0
C787 C 0.71449 0.26799 0.4085 0.0
C788 C 0.71046 0.33672 0.38179 0.0
C789 C 0.69179 0.33308 0.3686 0.0
C790 C 0.71676 0.36663 0.38727 0.0
C791 C 0.73636 0.37186 0.40111 0.0
C792 C 0.72762 0.36049 0.41566 0.0
C793 C 0.74637 0.3654 0.42865 0.0
C794 C 0.77374 0.38193 0.42725 0.0
C795 C 0.78237 0.39366 0.41286 0.0
C796 C 0.76374 0.38873 0.39982 0.0
C797 C 0.6243 0.44536 0.35133 0.0
C798 C 0.64251 0.47106 0.34772 0.0
C799 C 0.6379 0.41841 0.35725 0.0
C800 C 0.66997 0.41655 0.3596 0.0
C801 C 0.68815 0.442 0.3558 0.0
C802 C 0.67466 0.46884 0.34992 0.0
C803 C 0.68458 0.38863 0.36659 0.0
C804 C 0.70376 0.39217 0.37965 0.0
C805 C 0.67926 0.35869 0.36075 0.0
C806 C 0.66217 0.35359 0.34607 0.0
C807 C 0.67124 0.36862 0.33242 0.0
C808 C 0.65528 0.36359 0.31854 0.0
C809 C 0.63035 0.34338 0.31814 0.0
C810 C 0.62135 0.32814 0.33162 0.0
C811 C 0.63721 0.33314 0.34554 0.0
H812 H 0.61804 0.33947 0.30738 0.0
H813 H 0.78822 0.38574 0.43733 0.0
H814 H 0.78238 0.39425 0.12014 0.0
H815 H 0.82895 0.41812 0.13016 0.0
H816 H 0.87177 0.40828 0.08556 0.0
H817 H 0.82508 0.38274 0.07559 0.0
H818 H 0.91301 0.3988 0.1074 0.0
H819 H 0.84026 0.47889 0.09798 0.0
H820 H 0.78988 0.50515 0.09894 0.0
H821 H 0.79594 0.50853 0.14855 0.0
H822 H 0.84617 0.48192 0.1479 0.0
H823 H 0.02952 0.50283 0.13737 0.0
H824 H 0.98824 0.48221 0.12063 0.0
H825 H 0.93092 0.46952 0.16063 0.0
H826 H 0.97167 0.48979 0.17722 0.0
H827 H 0.89941 0.49615 0.13641 0.0
H828 H 0.96913 0.4096 0.14513 0.0
H829 H 0.01977 0.38391 0.14377 0.0
H830 H 0.01959 0.39508 0.09436 0.0
H831 H 0.96911 0.42124 0.09547 0.0
C832 C 0.80179 0.39689 0.11247 0.0
C833 C 0.80002 0.38696 0.09703 0.0
C834 C 0.82836 0.41082 0.11818 0.0
C835 C 0.85355 0.41608 0.10848 0.0
C836 C 0.85247 0.40486 0.09321 0.0
C837 C 0.82588 0.39022 0.08753 0.0
C838 C 0.88058 0.43354 0.11446 0.0
C839 C 0.91009 0.42043 0.11344 0.0
C840 C 0.87694 0.46179 0.12243 0.0
C841 C 0.84693 0.47826 0.12288 0.0
C842 C 0.83079 0.48512 0.1091 0.0
C843 C 0.80226 0.50006 0.10959 0.0
C844 C 0.7897 0.50846 0.1238 0.0
C845 C 0.8057 0.50202 0.13755 0.0
C846 C 0.83423 0.48705 0.13712 0.0
C847 C 1.00806 0.49566 0.14252 0.0
C848 C 1.00383 0.49775 0.15858 0.0
C849 C 0.98456 0.48386 0.13298 0.0
C850 C 0.95653 0.47423 0.13941 0.0
C851 C 0.95228 0.47686 0.15541 0.0
C852 C 0.97568 0.48833 0.16489 0.0
C853 C 0.93147 0.46088 0.12975 0.0
C854 C 0.90233 0.47484 0.13008 0.0
C855 C 0.93552 0.43367 0.12106 0.0
C856 C 0.9656 0.41766 0.1204 0.0
C857 C 0.98002 0.40677 0.13399 0.0
C858 C 1.00866 0.3921 0.13327 0.0
C859 C 0.02294 0.38796 0.119 0.0
C860 C 1.00854 0.39837 0.10541 0.0
C861 C 0.97992 0.4131 0.10608 0.0
H862 H 0.04513 0.37661 0.11846 0.0
H863 H 0.76759 0.52 0.12416 0.0
H864 H 0.65147 0.99163 0.65272 0.0
H865 H 0.67225 0.94386 0.6422 0.0
H866 H 0.65008 0.8964 0.6845 0.0
H867 H 0.62805 0.94431 0.69501 0.0
H868 H 0.72022 0.89626 0.66677 0.0
H869 H 0.61145 0.86931 0.66514 0.0
H870 H 0.55695 0.88132 0.65945 0.0
H871 H 0.5787 0.89721 0.61172 0.0
H872 H 0.63349 0.88595 0.61722 0.0
H873 H 0.76117 0.75005 0.63321 0.0
H874 H 0.73692 0.78978 0.64925 0.0
H875 H 0.70896 0.83908 0.60801 0.0
H876 H 0.73319 0.79974 0.59202 0.0
H877 H 0.66188 0.83415 0.62843 0.0
H878 H 0.76796 0.86394 0.62879 0.0
H879 H 0.82389 0.85779 0.63297 0.0
H880 H 0.80927 0.84102 0.68135 0.0
H881 H 0.75315 0.84657 0.6774 0.0
C882 C 0.65077 0.97097 0.65976 0.0
C883 C 0.63813 0.97157 0.67467 0.0
C884 C 0.6627 0.94377 0.65374 0.0
C885 C 0.66274 0.91677 0.6626 0.0
C886 C 0.65015 0.91713 0.67752 0.0
C887 C 0.63745 0.94433 0.68345 0.0
C888 C 0.67611 0.88847 0.65597 0.0
C889 C 0.70733 0.88202 0.65873 0.0
C890 C 0.65951 0.87088 0.64504 0.0
C891 C 0.62658 0.87716 0.64163 0.0
C892 C 0.60465 0.87571 0.65347 0.0
C893 C 0.57371 0.88233 0.65028 0.0
C894 C 0.56438 0.89014 0.63524 0.0
C895 C 0.58597 0.89123 0.62336 0.0
C896 C 0.61697 0.88473 0.62651 0.0
C897 C 0.74985 0.76941 0.62761 0.0
C898 C 0.74895 0.77182 0.61139 0.0
C899 C 0.73609 0.79209 0.63677 0.0
C900 C 0.7211 0.81738 0.62982 0.0
C901 C 0.72023 0.8197 0.61361 0.0
C902 C 0.73417 0.79725 0.6045 0.0
C903 C 0.70613 0.8415 0.63931 0.0
C904 C 0.67467 0.84758 0.63686 0.0
C905 C 0.72268 0.85894 0.65041 0.0
C906 C 0.75634 0.85519 0.65276 0.0
C907 C 0.77664 0.85856 0.64029 0.0
C908 C 0.80838 0.85527 0.64262 0.0
C909 C 0.82012 0.84889 0.6574 0.0
C910 C 0.80013 0.84585 0.66989 0.0
C911 C 0.76836 0.84906 0.66762 0.0
H912 H 0.84471 0.84641 0.65919 0.0
H913 H 0.5404 0.89527 0.63279 0.0
H914 H 0.02742 0.97325 0.88048 0.0
H915 H 0.98579 0.94729 0.89435 0.0
H916 H 0.91904 1.00609 0.87162 0.0
H917 H 0.9605 0.03148 0.85735 0.0
H918 H 0.91369 0.99811 0.90589 0.0
H919 H 0.92136 0.94215 0.85801 0.0
H920 H 0.94845 0.9129 0.83786 0.0
H921 H 0.97446 0.84425 0.87142 0.0
H922 H 0.94792 0.87344 0.89184 0.0
H923 H 0.77068 0.92978 0.91603 0.0
H924 H 0.81734 0.95206 0.90591 0.0
H925 H 0.86982 0.87408 0.92257 0.0
H926 H 0.82244 0.85085 0.9326 0.0
H927 H 0.88647 0.89002 0.89368 0.0
H928 H 0.87392 0.94363 0.94123 0.0
H929 H 0.84619 0.97292 0.96116 0.0
H930 H 0.8294 0.04607 0.92861 0.0
H931 H 0.85661 0.017 0.90841 0.0
C932 C 1.00387 0.98074 0.87854 0.0
C933 C 0.99706 1.00436 0.8679 0.0
C934 C 0.98018 0.96586 0.88641 0.0
C935 C 0.94945 0.9748 0.88396 0.0
C936 C 0.94268 0.99894 0.87365 0.0
C937 C 0.96629 0.01336 0.86552 0.0
C938 C 0.92425 0.95864 0.89196 0.0
C939 C 0.90754 0.97455 0.90318 0.0
C940 C 0.91696 0.92766 0.88869 0.0
C941 C 0.93309 0.91021 0.87648 0.0
C942 C 0.9332 0.92103 0.86113 0.0
C943 C 0.94837 0.90442 0.84965 0.0
C944 C 0.96329 0.8768 0.85337 0.0
C945 C 0.96298 0.8657 0.86857 0.0
C946 C 0.94788 0.88227 0.8801 0.0
C947 C 0.79206 0.91723 0.9177 0.0
C948 C 0.79277 0.88855 0.92533 0.0
C949 C 0.81885 0.93019 0.91193 0.0
C950 C 0.84722 0.91512 0.91378 0.0
C951 C 0.84816 0.88625 0.92116 0.0
C952 C 0.82112 0.87306 0.92692 0.0
C953 C 0.87548 0.92957 0.90757 0.0
C954 C 0.89282 0.9134 0.89663 0.0
C955 C 0.88341 0.96036 0.91114 0.0
C956 C 0.86717 0.97804 0.92328 0.0
C957 C 0.86415 0.96588 0.93829 0.0
C958 C 0.84854 0.98245 0.94964 0.0
C959 C 0.83601 0.01132 0.94615 0.0
C960 C 0.83912 0.0237 0.9313 0.0
C961 C 0.85467 1.0072 0.9199 0.0
H962 H 0.82392 0.02411 0.95495 0.0
H963 H 0.97499 0.86394 0.84446 0.0
H964 H 0.90363 0.04038 0.14969 0.0
H965 H 0.87825 0.08546 0.1387 0.0
H966 H 0.83239 0.10165 0.18201 0.0
H967 H 0.8571 0.05559 0.19303 0.0
H968 H 0.79383 0.1123 0.15882 0.0
H969 H 0.89555 0.14511 0.17103 0.0
H970 H 0.95229 0.14269 0.17168 0.0
H971 H 0.95427 0.14767 0.12205 0.0
H972 H 0.8975 0.14967 0.12109 0.0
H973 H 0.75285 0.26528 0.13113 0.0
H974 H 0.7741 0.22292 0.14698 0.0
H975 H 0.81866 0.18587 0.10668 0.0
H976 H 0.79757 0.22773 0.09092 0.0
H977 H 0.85758 0.18975 0.13177 0.0
H978 H 0.75427 0.15361 0.12034 0.0
H979 H 0.69755 0.15655 0.12056 0.0
H980 H 0.69899 0.15998 0.17024 0.0
H981 H 0.75577 0.15751 0.17029 0.0
C982 C 0.88819 0.05347 0.15694 0.0
C983 C 0.88265 0.04454 0.17231 0.0
C984 C 0.87376 0.07939 0.15063 0.0
C985 C 0.85394 0.09743 0.15962 0.0
C986 C 0.84778 0.08823 0.17488 0.0
C987 C 0.862 0.06199 0.18118 0.0
C988 C 0.83997 0.12588 0.15297 0.0
C989 C 0.80782 0.12953 0.15316 0.0
C990 C 0.85812 0.14835 0.14549 0.0
C991 C 0.89227 0.14734 0.14599 0.0
C992 C 0.90809 0.14549 0.16025 0.0
C993 C 0.94025 0.14422 0.16067 0.0
C994 C 0.95687 0.14497 0.14691 0.0
C995 C 0.94136 0.14707 0.13269 0.0
C996 C 0.90919 0.14832 0.13221 0.0
C997 C 0.76725 0.24809 0.12572 0.0
C998 C 0.77372 0.24982 0.10983 0.0
C999 C 0.7792 0.22386 0.13474 0.0
C1000 C 0.79787 0.2012 0.12798 0.0
C1001 C 0.80436 0.20311 0.11213 0.0
C1002 C 0.79228 0.22704 0.10314 0.0
C1003 C 0.81149 0.17573 0.13727 0.0
C1004 C 0.84364 0.1727 0.1376 0.0
C1005 C 0.79333 0.15415 0.14536 0.0
C1006 C 0.75925 0.15581 0.1453 0.0
C1007 C 0.7425 0.15533 0.1313 0.0
C1008 C 0.71034 0.15683 0.13138 0.0
C1009 C 0.69468 0.15857 0.1454 0.0
C1010 C 0.71115 0.15872 0.15938 0.0
C1011 C 0.74331 0.15727 0.15936 0.0
H1012 H 0.66977 0.15971 0.14544 0.0
H1013 H 0.98178 0.14397 0.14726 0.0
H1014 H 0.68723 0.15349 0.43805 0.0
H1015 H 0.64007 0.13107 0.42678 0.0
H1016 H 0.69529 0.06768 0.40048 0.0
H1017 H 0.74172 0.08965 0.41136 0.0
H1018 H 0.65393 0.09391 0.38244 0.0
H1019 H 0.65527 0.04407 0.43195 0.0
H1020 H 0.65642 0.04179 0.46047 0.0
H1021 H 0.57065 0.09115 0.46207 0.0
H1022 H 0.56925 0.09412 0.43353 0.0
H1023 H 0.54974 0.98931 0.35178 0.0
H1024 H 0.59069 0.01081 0.36791 0.0
H1025 H 0.5236 0.06441 0.39276 0.0
H1026 H 0.48209 0.04091 0.37723 0.0
H1027 H 0.56813 0.04781 0.41195 0.0
H1028 H 0.5679 0.09413 0.3607 0.0
H1029 H 0.56917 0.09256 0.33215 0.0
H1030 H 0.65621 0.04547 0.33401 0.0
H1031 H 0.65535 0.04655 0.36255 0.0
C1032 C 0.68921 0.13463 0.42996 0.0
C1033 C 0.71834 0.12349 0.42565 0.0
C1034 C 0.66227 0.12179 0.42355 0.0
C1035 C 0.66413 0.09764 0.41277 0.0
C1036 C 0.69318 0.08636 0.40868 0.0
C1037 C 0.71983 0.09903 0.41501 0.0
C1038 C 0.63628 0.08443 0.40514 0.0
C1039 C 0.63525 0.08372 0.38893 0.0
C1040 C 0.61164 0.0715 0.41353 0.0
C1041 C 0.61235 0.06967 0.43064 0.0
C1042 C 0.6368 0.05468 0.4384 0.0
C1043 C 0.63748 0.05322 0.45455 0.0
C1044 C 0.61368 0.06642 0.46308 0.0
C1045 C 0.58911 0.08101 0.45545 0.0
C1046 C 0.58836 0.08259 0.43929 0.0
C1047 C 0.54369 1.00533 0.36085 0.0
C1048 C 0.51285 0.01373 0.36319 0.0
C1049 C 0.56715 0.01784 0.36999 0.0
C1050 C 0.56048 0.04022 0.38119 0.0
C1051 C 0.52944 0.0475 0.38408 0.0
C1052 C 0.50574 0.03412 0.37522 0.0
C1053 C 0.58602 0.0569 0.38922 0.0
C1054 C 0.5866 0.05836 0.40548 0.0
C1055 C 0.61064 0.0702 0.38088 0.0
C1056 C 0.61149 0.07033 0.36373 0.0
C1057 C 0.58728 0.08343 0.355 0.0
C1058 C 0.58794 0.08262 0.33883 0.0
C1059 C 0.6128 0.06896 0.33129 0.0
C1060 C 0.63705 0.05612 0.33988 0.0
C1061 C 0.63652 0.05688 0.35604 0.0
H1062 H 0.61337 0.06837 0.31879 0.0
H1063 H 0.61424 0.06526 0.47559 0.0
H1064 H 0.35192 0.06256 0.32432 0.0
H1065 H 0.32669 0.1074 0.33605 0.0
H1066 H 0.37904 0.09233 0.37815 0.0
H1067 H 0.40338 0.04717 0.36655 0.0
H1068 H 0.32032 0.09834 0.3844 0.0
H1069 H 0.39191 0.15467 0.352 0.0
H1070 H 0.41502 0.1686 0.32697 0.0
H1071 H 0.32642 0.19727 0.30961 0.0
H1072 H 0.30274 0.18314 0.33447 0.0
H1073 H 0.29761 0.22973 0.42862 0.0
H1074 H 0.31839 0.18942 0.41228 0.0
H1075 H 0.25942 0.21929 0.37462 0.0
H1076 H 0.23894 0.26077 0.39104 0.0
H1077 H 0.31462 0.20489 0.36389 0.0
H1078 H 0.2434 0.15377 0.39633 0.0
H1079 H 0.21793 0.13778 0.42043 0.0
H1080 H 0.30228 0.09676 0.4368 0.0
H1081 H 0.32843 0.113 0.41296 0.0
C1082 C 0.35866 0.06957 0.33588 0.0
C1083 C 0.38003 0.05201 0.34445 0.0
C1084 C 0.34417 0.09507 0.34262 0.0
C1085 C 0.35104 0.10349 0.358 0.0
C1086 C 0.37329 0.08641 0.3663 0.0
C1087 C 0.38746 0.06083 0.35963 0.0
C1088 C 0.33381 0.12859 0.36593 0.0
C1089 C 0.31946 0.12174 0.38001 0.0
C1090 C 0.33118 0.15879 0.35985 0.0
C1091 C 0.34554 0.16762 0.34503 0.0
C1092 C 0.37735 0.16378 0.34281 0.0
C1093 C 0.39055 0.17173 0.32866 0.0
C1094 C 0.37219 0.18374 0.3167 0.0
C1095 C 0.34061 0.18793 0.31888 0.0
C1096 C 0.3273 0.17999 0.33299 0.0
C1097 C 0.289 0.22784 0.41685 0.0
C1098 C 0.26646 0.24834 0.41115 0.0
C1099 C 0.3008 0.20456 0.40753 0.0
C1100 C 0.29001 0.20069 0.39229 0.0
C1101 C 0.26796 0.2216 0.38638 0.0
C1102 C 0.25624 0.24526 0.39575 0.0
C1103 C 0.30228 0.17492 0.38272 0.0
C1104 C 0.31541 0.18151 0.36829 0.0
C1105 C 0.30354 0.14428 0.3884 0.0
C1106 C 0.28796 0.13487 0.40289 0.0
C1107 C 0.25661 0.14162 0.40514 0.0
C1108 C 0.24204 0.13247 0.41875 0.0
C1109 C 0.2585 0.11635 0.43015 0.0
C1110 C 0.28958 0.10934 0.42798 0.0
C1111 C 0.30428 0.1185 0.41442 0.0
H1112 H 0.2472 0.10918 0.44066 0.0
H1113 H 0.38245 0.18987 0.30575 0.0
H1114 H 0.01789 0.98934 0.13373 0.0
H1115 H 0.05738 0.01473 0.11814 0.0
H1116 H 0.08911 0.06375 0.15862 0.0
H1117 H 0.04918 0.03931 0.174 0.0
H1118 H 0.08452 0.10183 0.13593 0.0
H1119 H 0.12903 1.0016 0.14261 0.0
H1120 H 0.1312 0.94499 0.14138 0.0
H1121 H 0.12012 0.94872 0.09196 0.0
H1122 H 0.11744 1.00538 0.09293 0.0
H1123 H 0.23905 0.13868 0.11757 0.0
H1124 H 0.19189 0.11599 0.12778 0.0
H1125 H 0.15878 0.10047 0.08123 0.0
H1126 H 0.20594 0.12414 0.07093 0.0
H1127 H 0.16016 0.04661 0.10342 0.0
H1128 H 0.12241 0.15034 0.0983 0.0
H1129 H 0.12539 0.20654 0.10163 0.0
H1130 H 0.12915 0.19506 0.151 0.0
H1131 H 0.12673 0.13874 0.14795 0.0
C1132 C 0.0335 1.00538 0.13926 0.0
C1133 C 0.03055 0.01247 0.15502 0.0
C1134 C 0.05608 0.01981 0.13038 0.0
C1135 C 0.07632 0.04111 0.13721 0.0
C1136 C 0.07366 0.0476 0.15305 0.0
C1137 C 0.05094 0.03351 0.16185 0.0
C1138 C 0.09981 0.05745 0.12793 0.0
C1139 C 0.10111 0.08965 0.12889 0.0
C1140 C 0.12114 0.04172 0.11848 0.0
C1141 C 0.12262 1.00769 0.11787 0.0
C1142 C 0.12676 0.99033 0.1315 0.0
C1143 C 0.12814 0.95824 0.13084 0.0
C1144 C 0.12569 0.94326 0.1166 0.0
C1145 C 0.12194 0.96035 0.10298 0.0
C1146 C 0.12049 0.99245 0.10358 0.0
C1147 C 0.22131 0.13113 0.10954 0.0
C1148 C 0.22566 0.13346 0.09351 0.0
C1149 C 0.19455 0.11807 0.11536 0.0
C1150 C 0.17197 0.10661 0.10524 0.0
C1151 C 0.176 0.10933 0.08918 0.0
C1152 C 0.20263 0.12306 0.08333 0.0
C1153 C 0.14494 0.0907 0.11168 0.0
C1154 C 0.14309 0.05866 0.11023 0.0
C1155 C 0.12355 0.10644 0.121 0.0
C1156 C 0.12459 0.14031 0.12288 0.0
C1157 C 0.1241 0.15979 0.10986 0.0
C1158 C 0.12567 0.19167 0.1117 0.0
C1159 C 0.12752 0.20437 0.12651 0.0
C1160 C 0.12773 0.1852 0.13953 0.0
C1161 C 0.12623 0.15329 0.13775 0.0
H1162 H 0.12875 0.22906 0.12791 0.0
H1163 H 0.12678 0.91841 0.11612 0.0
H1164 H 0.22509 0.73341 0.89623 0.0
H1165 H 0.20092 0.77478 0.88101 0.0
H1166 H 0.25967 0.84102 0.90385 0.0
H1167 H 0.28148 0.80006 0.91994 0.0
H1168 H 0.20942 0.86462 0.9034 0.0
H1169 H 0.26488 0.81586 0.86285 0.0
H1170 H 0.28248 0.77359 0.84611 0.0
H1171 H 0.18951 0.75839 0.83062 0.0
H1172 H 0.17131 0.80036 0.84741 0.0
H1173 H 0.18795 0.988 0.85133 0.0
H1174 H 0.21036 0.94156 0.86247 0.0
H1175 H 0.12458 0.89374 0.85559 0.0
H1176 H 0.10144 0.9406 0.84442 0.0
H1177 H 0.18514 0.86058 0.84723 0.0
H1178 H 0.13412 0.91574 0.88921 0.0
H1179 H 0.12401 0.96302 0.90406 0.0
H1180 H 0.2205 0.97139 0.91452 0.0
H1181 H 0.2312 0.92427 0.8996 0.0
C1182 C 0.23306 0.75679 0.89774 0.0
C1183 C 0.25521 0.76366 0.90913 0.0
C1184 C 0.21936 0.78051 0.889 0.0
C1185 C 0.22853 0.81132 0.89108 0.0
C1186 C 0.25178 0.81769 0.90204 0.0
C1187 C 0.26453 0.79423 0.91115 0.0
C1188 C 0.21288 0.83722 0.88264 0.0
C1189 C 0.20461 0.86359 0.89108 0.0
C1190 C 0.20591 0.83629 0.86656 0.0
C1191 C 0.21671 0.81099 0.85651 0.0
C1192 C 0.24817 0.80333 0.85596 0.0
C1193 C 0.25826 0.77947 0.84645 0.0
C1194 C 0.23711 0.76325 0.83734 0.0
C1195 C 0.20585 0.77093 0.8377 0.0
C1196 C 0.19564 0.79477 0.8472 0.0
C1197 C 0.17379 0.96758 0.85189 0.0
C1198 C 0.14281 0.96809 0.84688 0.0
C1199 C 0.18673 0.94104 0.85832 0.0
C1200 C 0.16911 0.91432 0.85984 0.0
C1201 C 0.13853 0.9142 0.85442 0.0
C1202 C 0.12535 0.94099 0.8481 0.0
C1203 C 0.18237 0.88735 0.86803 0.0
C1204 C 0.19006 0.86105 0.85956 0.0
C1205 C 0.18998 0.88876 0.88394 0.0
C1206 C 0.18344 0.91655 0.89327 0.0
C1207 C 0.15317 0.92772 0.89465 0.0
C1208 C 0.14734 0.95447 0.90308 0.0
C1209 C 0.17159 0.97015 0.91025 0.0
C1210 C 0.20173 0.95915 0.909 0.0
C1211 C 0.20768 0.93239 0.90059 0.0
H1212 H 0.16697 0.9908 0.9168 0.0
H1213 H 0.24497 0.74479 0.82998 0.0
H1214 H 0.33093 0.84976 0.58537 0.0
H1215 H 0.37865 0.87293 0.59556 0.0
H1216 H 0.32569 0.94736 0.61498 0.0
H1217 H 0.27892 0.92536 0.60454 0.0
H1218 H 0.37465 0.97011 0.60404 0.0
H1219 H 0.35081 0.88516 0.6368 0.0
H1220 H 0.33948 0.8311 0.64322 0.0
H1221 H 0.42858 0.80384 0.62692 0.0
H1222 H 0.44023 0.85773 0.62015 0.0
H1223 H 0.46378 0.0191 0.66889 0.0
H1224 H 0.42453 0.994 0.65282 0.0
H1225 H 0.4956 0.94663 0.62768 0.0
H1226 H 0.53514 0.97221 0.64357 0.0
H1227 H 0.44268 0.90895 0.63896 0.0
H1228 H 0.4649 1.00201 0.60989 0.0
H1229 H 0.47122 0.05813 0.60732 0.0
H1230 H 0.3779 0.07213 0.6218 0.0
H1231 H 0.37118 0.0161 0.62469 0.0
C1232 C 0.32968 0.87131 0.59158 0.0
C1233 C 0.3011 0.88553 0.59421 0.0
C1234 C 0.35687 0.88441 0.59751 0.0
C1235 C 0.35576 0.91178 0.6062 0.0
C1236 C 0.32731 0.92636 0.60831 0.0
C1237 C 0.30044 0.9135 0.60238 0.0
C1238 C 0.38366 0.92512 0.61368 0.0
C1239 C 0.38948 0.95663 0.61166 0.0
C1240 C 0.40308 0.90773 0.62369 0.0
C1241 C 0.39622 0.87536 0.62776 0.0
C1242 C 0.36788 0.86758 0.63445 0.0
C1243 C 0.3614 0.837 0.63818 0.0
C1244 C 0.38325 0.81403 0.63543 0.0
C1245 C 0.41164 0.82164 0.62899 0.0
C1246 C 0.41819 0.85219 0.6252 0.0
C1247 C 0.47103 1.00343 0.6599 0.0
C1248 C 0.50244 0.99768 0.65739 0.0
C1249 C 0.44863 0.98912 0.65075 0.0
C1250 C 0.45723 0.96857 0.63906 0.0
C1251 C 0.48857 0.96246 0.63665 0.0
C1252 C 0.51107 0.97716 0.64566 0.0
C1253 C 0.43329 0.95375 0.62934 0.0
C1254 C 0.42818 0.9221 0.63105 0.0
C1255 C 0.41371 0.97123 0.61952 0.0
C1256 C 0.41762 1.00489 0.61758 0.0
C1257 C 0.4458 0.01708 0.61262 0.0
C1258 C 0.44944 0.04886 0.61109 0.0
C1259 C 0.42499 0.06869 0.61441 0.0
C1260 C 0.39682 0.05675 0.61924 0.0
C1261 C 0.39307 0.02498 0.6208 0.0
H1262 H 0.42786 0.09329 0.61322 0.0
H1263 H 0.3782 0.79036 0.63832 0.0
H1264 H 0.32444 0.97914 0.04911 0.0
H1265 H 0.32372 0.92352 0.04477 0.0
H1266 H 0.23174 0.93105 0.02566 0.0
H1267 H 0.23146 0.9858 0.03125 0.0
H1268 H 0.23623 0.87796 0.0362 0.0
H1269 H 0.30172 0.93791 1.00331 0.0
H1270 H 0.34415 0.97346 0.99735 0.0
H1271 H 0.40921 0.91052 0.01794 0.0
H1272 H 0.36705 0.87479 0.02422 0.0
H1273 H 0.24246 0.7675 0.97526 0.0
H1274 H 0.23955 0.81363 0.99126 0.0
H1275 H 0.32422 0.78767 0.01443 0.0
H1276 H 0.32756 0.74172 0.99833 0.0
H1277 H 0.32536 0.84667 1.00433 0.0
H1278 H 0.25397 0.78313 0.03283 0.0
H1279 H 0.20851 0.74952 0.03465 0.0
H1280 H 0.15071 0.82245 0.0173 0.0
H1281 H 0.19588 0.85638 0.0152 0.0
C1282 C 0.30353 0.96863 0.04473 0.0
C1283 C 0.27821 0.98691 0.04026 0.0
C1284 C 0.30333 0.93689 0.04195 0.0
C1285 C 0.2782 0.92317 0.03422 0.0
C1286 C 0.25164 0.94091 0.03142 0.0
C1287 C 0.25151 0.97234 0.0346 0.0
C1288 C 0.28049 0.89168 0.02747 0.0
C1289 C 0.25576 0.87121 0.02924 0.0
C1290 C 0.30584 0.88259 0.01828 0.0
C1291 C 0.33123 0.90389 0.01441 0.0
C1292 C 0.32506 0.93175 1.00664 0.0
C1293 C 0.34905 0.95192 1.0032 0.0
C1294 C 0.37935 0.94429 1.00731 0.0
C1295 C 0.38572 0.91643 0.01481 0.0
C1296 C 0.3618 0.89621 0.01831 0.0
C1297 C 0.26016 0.77125 0.98396 0.0
C1298 C 0.28519 0.7508 0.98555 0.0
C1299 C 0.25845 0.79767 0.99312 0.0
C1300 C 0.28155 0.80401 1.00415 0.0
C1301 C 0.30611 0.78322 1.00602 0.0
C1302 C 0.30788 0.75686 0.99685 0.0
C1303 C 0.28114 0.83319 0.01305 0.0
C1304 C 0.30616 0.85325 0.01157 0.0
C1305 C 0.25561 0.84229 0.02202 0.0
C1306 C 0.22832 0.82224 0.02381 0.0
C1307 C 0.23157 0.79197 0.02937 0.0
C1308 C 0.20586 0.77285 0.03044 0.0
C1309 C 0.17675 0.78382 0.02607 0.0
C1310 C 0.17326 0.81398 0.02069 0.0
C1311 C 0.1989 0.83319 0.01959 0.0
H1312 H 0.15689 0.76895 0.02687 0.0
H1313 H 0.3979 0.95994 1.00464 0.0
H1314 H 0.03426 0.57905 0.24797 0.0
H1315 H 0.98838 0.57973 0.26426 0.0
H1316 H 0.94734 0.50925 0.23578 0.0
H1317 H 0.99343 0.50743 0.22006 0.0
H1318 H 0.9336 0.59655 0.25645 0.0
H1319 H 0.89855 0.47159 0.25032 0.0
H1320 H 0.92205 0.41977 0.25017 0.0
H1321 H 0.99279 0.45027 0.2816 0.0
H1322 H 0.96992 0.50237 0.28171 0.0
H1323 H 0.77378 0.5786 0.26043 0.0
H1324 H 0.82869 0.57939 0.25514 0.0
H1325 H 0.84712 0.53383 0.29874 0.0
H1326 H 0.79139 0.53203 0.3038 0.0
H1327 H 0.87681 0.50591 0.27611 0.0
H1328 H 0.86809 0.61099 0.29202 0.0
H1329 H 0.84487 0.66282 0.29237 0.0
H1330 H 0.86292 0.67345 0.24387 0.0
H1331 H 0.88585 0.62153 0.24318 0.0
C1332 C 0.01575 0.56315 0.24546 0.0
C1333 C 0.01761 0.54305 0.2328 0.0
C1334 C 0.98949 0.56361 0.25474 0.0
C1335 C 0.96444 0.54421 0.25145 0.0
C1336 C 0.96661 0.52371 0.23897 0.0
C1337 C 0.99303 0.52284 0.22988 0.0
C1338 C 0.93496 0.54749 0.25997 0.0
C1339 C 0.92141 0.57677 0.26095 0.0
C1340 C 0.91894 0.52187 0.26596 0.0
C1341 C 0.93261 0.4907 0.26601 0.0
C1342 C 0.91905 0.46712 0.25724 0.0
C1343 C 0.93234 0.4378 0.25709 0.0
C1344 C 0.9589 0.43173 0.26587 0.0
C1345 C 0.97229 0.45503 0.27476 0.0
C1346 C 0.9593 0.48448 0.2748 0.0
C1347 C 0.78962 0.56949 0.26909 0.0
C1348 C 0.77848 0.55547 0.28259 0.0
C1349 C 0.82105 0.57 0.26607 0.0
C1350 C 0.8422 0.55703 0.27662 0.0
C1351 C 0.83123 0.54413 0.29047 0.0
C1352 C 0.79953 0.54343 0.29346 0.0
C1353 C 0.87528 0.55496 0.27241 0.0
C1354 C 0.88935 0.52585 0.27206 0.0
C1355 C 0.89187 0.58086 0.26711 0.0
C1356 C 0.87865 0.61235 0.26756 0.0
C1357 C 0.86702 0.62435 0.28143 0.0
C1358 C 0.8539 0.65374 0.28168 0.0
C1359 C 0.85241 0.67142 0.26816 0.0
C1360 C 0.86412 0.65976 0.25435 0.0
C1361 C 0.87724 0.63038 0.25403 0.0
H1362 H 0.84221 0.69415 0.26838 0.0
H1363 H 0.96909 0.40898 0.26579 0.0
H1364 H 0.25813 0.23312 0.47063 0.0
H1365 H 0.25747 0.18563 0.48578 0.0
H1366 H 0.19435 0.22697 0.51787 0.0
H1367 H 0.19421 0.27462 0.50252 0.0
H1368 H 0.24906 0.18842 0.53073 0.0
H1369 H 0.16115 0.18695 0.49537 0.0
H1370 H 0.13725 0.19226 0.46949 0.0
H1371 H 0.19529 0.12012 0.45231 0.0
H1372 H 0.22006 0.11488 0.47803 0.0
H1373 H 0.17652 0.02275 0.53987 0.0
H1374 H 0.17409 0.07789 0.53371 0.0
H1375 H 0.2733 0.08101 0.53228 0.0
H1376 H 0.27568 0.02604 0.5384 0.0
H1377 H 0.19593 0.10004 0.5061 0.0
H1378 H 0.29697 0.15434 0.53958 0.0
H1379 H 0.32385 0.1493 0.56474 0.0
H1380 H 0.24119 0.11487 0.58535 0.0
H1381 H 0.21372 0.12008 0.56035 0.0
C1382 C 0.2445 0.23242 0.48106 0.0
C1383 C 0.22619 0.2577 0.48539 0.0
C1384 C 0.24411 0.20519 0.48966 0.0
C1385 C 0.22578 0.20286 0.50287 0.0
C1386 C 0.20867 0.22845 0.5077 0.0
C1387 C 0.20859 0.25559 0.49893 0.0
C1388 C 0.22302 0.17298 0.51096 0.0
C1389 C 0.23732 0.16908 0.52543 0.0
C1390 C 0.20772 0.14789 0.50398 0.0
C1391 C 0.19262 0.15073 0.48858 0.0
C1392 C 0.16902 0.17243 0.48604 0.0
C1393 C 0.15531 0.17541 0.4714 0.0
C1394 C 0.16485 0.15662 0.45925 0.0
C1395 C 0.18804 0.13474 0.46172 0.0
C1396 C 0.2019 0.13174 0.47633 0.0
C1397 C 0.19776 0.03558 0.53893 0.0
C1398 C 0.22629 0.02037 0.53986 0.0
C1399 C 0.19638 0.06695 0.53522 0.0
C1400 C 0.22352 0.0836 0.53256 0.0
C1401 C 0.25209 0.0688 0.5345 0.0
C1402 C 0.25345 0.03745 0.53807 0.0
C1403 C 0.22204 0.1152 0.52599 0.0
C1404 C 0.20726 0.11938 0.51161 0.0
C1405 C 0.23724 0.14041 0.53299 0.0
C1406 C 0.25338 0.13741 0.54809 0.0
C1407 C 0.28451 0.14583 0.54951 0.0
C1408 C 0.29985 0.14291 0.56373 0.0
C1409 C 0.28426 0.1317 0.57663 0.0
C1410 C 0.25326 0.12345 0.57534 0.0
C1411 C 0.23781 0.12633 0.56114 0.0
H1412 H 0.29618 0.12946 0.58764 0.0
H1413 H 0.1542 0.15894 0.44793 0.0
H1414 H 0.7384 0.43347 0.79617 0.0
H1415 H 0.683 0.43235 0.79038 0.0
H1416 H 0.68832 0.52425 0.77156 0.0
H1417 H 0.74265 0.52628 0.77848 0.0
H1418 H 0.63518 0.51881 0.78165 0.0
H1419 H 0.69721 0.45333 0.7492 0.0
H1420 H 0.73305 0.41071 0.74362 0.0
H1421 H 0.67009 0.34635 0.76374 0.0
H1422 H 0.63408 0.38868 0.76961 0.0
H1423 H 0.5237 0.51206 0.72016 0.0
H1424 H 0.5679 0.51713 0.73766 0.0
H1425 H 0.55025 0.42655 0.75606 0.0
H1426 H 0.50705 0.42081 0.73795 0.0
H1427 H 0.60656 0.4297 0.74897 0.0
H1428 H 0.54058 0.4995 0.77716 0.0
H1429 H 0.50658 0.54462 0.78019 0.0
H1430 H 0.57893 0.60406 0.76479 0.0
H1431 H 0.61322 0.55928 0.76149 0.0
C1432 C 0.72742 0.45385 0.79141 0.0
C1433 C 0.74503 0.47974 0.78752 0.0
C1434 C 0.69581 0.45303 0.78782 0.0
C1435 C 0.68154 0.47775 0.77991 0.0
C1436 C 0.69858 0.50466 0.77745 0.0
C1437 C 0.72981 0.50575 0.78137 0.0
C1438 C 0.65007 0.47496 0.77285 0.0
C1439 C 0.62896 0.49931 0.77448 0.0
C1440 C 0.64156 0.44954 0.76353 0.0
C1441 C 0.6632 0.42416 0.76002 0.0
C1442 C 0.69114 0.4301 0.75252 0.0
C1443 C 0.71146 0.406 0.7493 0.0
C1444 C 0.7039 0.37585 0.75337 0.0
C1445 C 0.67596 0.36972 0.76063 0.0
C1446 C 0.6556 0.39374 0.76392 0.0
C1447 C 0.52882 0.49351 0.72819 0.0
C1448 C 0.51187 0.466 0.72768 0.0
C1449 C 0.55409 0.49649 0.73828 0.0
C1450 C 0.56243 0.47236 0.74839 0.0
C1451 C 0.54445 0.44552 0.7484 0.0
C1452 C 0.51965 0.44227 0.73808 0.0
C1453 C 0.59156 0.47355 0.75774 0.0
C1454 C 0.61239 0.44894 0.7564 0.0
C1455 C 0.60003 0.49911 0.76697 0.0
C1456 C 0.57939 0.526 0.769 0.0
C1457 C 0.54916 0.52217 0.77434 0.0
C1458 C 0.52985 0.5477 0.77612 0.0
C1459 C 0.54057 0.57718 0.77267 0.0
C1460 C 0.57065 0.58121 0.76746 0.0
C1461 C 0.59004 0.55578 0.76565 0.0
H1462 H 0.52558 0.5969 0.77405 0.0
H1463 H 0.71966 0.35722 0.75086 0.0
H1464 H 0.76537 0.26196 0.03814 0.0
H1465 H 0.7685 0.21578 0.02203 0.0
H1466 H 0.6694 0.21 0.02104 0.0
H1467 H 0.66597 0.25611 0.03693 0.0
H1468 H 0.69856 0.15663 0.03176 0.0
H1469 H 0.70433 0.22608 0.98838 0.0
H1470 H 0.72376 0.26698 0.97143 0.0
H1471 H 0.81233 0.22273 0.97013 0.0
H1472 H 0.79328 0.18142 0.98714 0.0
H1473 H 0.67862 0.02834 0.98507 0.0
H1474 H 0.67591 0.08332 0.99114 0.0
H1475 H 0.77514 0.08796 0.99144 0.0
H1476 H 0.77783 0.033 0.98543 0.0
H1477 H 0.74698 0.14216 0.98049 0.0
H1478 H 0.74274 0.07252 0.02297 0.0
H1479 H 0.7234 0.0281 0.03766 0.0
H1480 H 0.63503 0.07183 0.04158 0.0
H1481 H 0.65355 0.11618 0.02646 0.0
C1482 C 0.74422 0.25128 0.03419 0.0
C1483 C 0.71541 0.2627 0.03887 0.0
C1484 C 0.74607 0.22491 0.02497 0.0
C1485 C 0.71917 0.20947 0.02038 0.0
C1486 C 0.69042 0.22159 0.02447 0.0
C1487 C 0.68853 0.24805 0.03353 0.0
C1488 C 0.72087 0.17913 0.01268 0.0
C1489 C 0.70871 0.15358 0.02044 0.0
C1490 C 0.73524 0.17491 0.99822 0.0
C1491 C 0.74748 0.2009 0.98914 0.0
C1492 C 0.72809 0.22536 0.9847 0.0
C1493 C 0.73901 0.24852 0.97499 0.0
C1494 C 0.7693 0.24746 0.96966 0.0
C1495 C 0.78886 0.22347 0.97423 0.0
C1496 C 0.77801 0.20017 0.98388 0.0
C1497 C 0.69973 0.04151 0.98565 0.0
C1498 C 0.72841 0.02675 0.98464 0.0
C1499 C 0.69821 0.07275 0.98929 0.0
C1500 C 0.72535 0.08946 0.99196 0.0
C1501 C 0.75397 0.07543 0.9894 0.0
C1502 C 0.7555 0.04416 0.98588 0.0
C1503 C 0.72404 0.12001 0.9994 0.0
C1504 C 0.73665 0.14536 0.99176 0.0
C1505 C 0.71056 0.12399 0.01412 0.0
C1506 C 0.69942 0.09752 0.02338 0.0
C1507 C 0.71906 0.07254 0.0268 0.0
C1508 C 0.70826 0.04736 0.03521 0.0
C1509 C 0.678 0.04711 0.04053 0.0
C1510 C 0.65846 0.07204 0.03743 0.0
C1511 C 0.66908 0.09718 0.0289 0.0
H1512 H 0.66972 0.02762 0.04708 0.0
H1513 H 0.77763 0.26514 0.96194 0.0
H1514 H 0.03486 0.49036 0.80855 0.0
H1515 H 0.08241 0.48957 0.79401 0.0
H1516 H 0.03104 0.47051 0.75207 0.0
H1517 H 0.98327 0.46867 0.76707 0.0
H1518 H 0.07836 0.43752 0.7517 0.0
H1519 H 0.06669 0.54561 0.76214 0.0
H1520 H 0.05818 0.59127 0.77844 0.0
H1521 H 0.13938 0.56949 0.80512 0.0
H1522 H 0.14818 0.52352 0.7891 0.0
H1523 H 0.23358 0.49943 0.72025 0.0
H1524 H 0.17793 0.50165 0.72542 0.0
H1525 H 0.18956 0.43427 0.76174 0.0
H1526 H 0.24478 0.43193 0.75663 0.0
H1527 H 0.15971 0.51583 0.75986 0.0
H1528 H 0.14751 0.39531 0.75486 0.0
H1529 H 0.15653 0.35067 0.73783 0.0
H1530 H 0.12177 0.40211 0.69883 0.0
H1531 H 0.11299 0.4471 0.71566 0.0
C1532 C 0.03362 0.48646 0.79618 0.0
C1533 C 1.00536 0.48008 0.78885 0.0
C1534 C 0.06089 0.48622 0.78782 0.0
C1535 C 0.06044 0.48102 0.77178 0.0
C1536 C 0.03207 0.47487 0.7644 0.0
C1537 C 1.00478 0.474 0.77292 0.0
C1538 C 0.0898 0.48034 0.763 0.0
C1539 C 0.09577 0.45505 0.75336 0.0
C1540 C 0.11293 0.50306 0.765 0.0
C1541 C 0.10801 0.53107 0.77444 0.0
C1542 C 0.08268 0.55053 0.7715 0.0
C1543 C 0.0778 0.57645 0.7807 0.0
C1544 C 0.09821 0.58326 0.79281 0.0
C1545 C 0.1236 0.56421 0.79573 0.0
C1546 C 0.12858 0.53826 0.78657 0.0
C1547 C 0.22395 0.48429 0.72891 0.0
C1548 C 0.24325 0.46539 0.73799 0.0
C1549 C 0.19233 0.48571 0.73192 0.0
C1550 C 0.17976 0.46789 0.74385 0.0
C1551 C 0.19878 0.44774 0.7523 0.0
C1552 C 0.23026 0.44646 0.74939 0.0
C1553 C 0.14787 0.47302 0.74902 0.0
C1554 C 0.14169 0.49897 0.75802 0.0
C1555 C 0.12455 0.45123 0.74641 0.0
C1556 C 0.12976 0.42437 0.73642 0.0
C1557 C 0.14193 0.39701 0.74264 0.0
C1558 C 0.14701 0.37172 0.73303 0.0
C1559 C 0.13976 0.37356 0.71725 0.0
C1560 C 0.12744 0.40073 0.71104 0.0
C1561 C 0.12248 0.42612 0.72059 0.0
H1562 H 0.14364 0.35393 0.70984 0.0
H1563 H 0.09436 0.60331 0.79994 0.0
H1564 H 0.83335 0.99068 0.4804 0.0
H1565 H 0.83347 0.93546 0.48652 0.0
H1566 H 0.73641 0.94011 0.49642 0.0
H1567 H 0.73617 0.99492 0.49018 0.0
H1568 H 0.77059 0.9199 0.52103 0.0
H1569 H 0.76023 0.89741 0.46728 0.0
H1570 H 0.77298 0.89933 0.43957 0.0
H1571 H 0.86162 0.85926 0.44936 0.0
H1572 H 0.84961 0.85761 0.4772 0.0
H1573 H 0.75281 0.76636 0.54503 0.0
H1574 H 0.74594 0.81183 0.52859 0.0
H1575 H 0.84273 0.81048 0.51791 0.0
H1576 H 0.84983 0.76503 0.53435 0.0
H1577 H 0.80681 0.82783 0.49264 0.0
H1578 H 0.81809 0.85292 0.54644 0.0
H1579 H 0.80552 0.85095 0.57418 0.0
H1580 H 0.71549 0.88771 0.56433 0.0
H1581 H 0.72726 0.88918 0.53645 0.0
C1582 C 0.81182 0.97956 0.48319 0.0
C1583 C 0.78476 0.99702 0.48483 0.0
C1584 C 0.81193 0.94807 0.48679 0.0
C1585 C 0.78498 0.93375 0.49206 0.0
C1586 C 0.75747 0.9507 0.49245 0.0
C1587 C 0.75732 0.98196 0.48878 0.0
C1588 C 0.78614 0.90257 0.49911 0.0
C1589 C 0.77795 0.89966 0.51472 0.0
C1590 C 0.79664 0.87639 0.49103 0.0
C1591 C 0.80415 0.87774 0.47435 0.0
C1592 C 0.78259 0.88936 0.46355 0.0
C1593 C 0.78966 0.89032 0.44781 0.0
C1594 C 0.81813 0.87951 0.44271 0.0
C1595 C 0.8396 0.86769 0.45334 0.0
C1596 C 0.83267 0.86673 0.4691 0.0
C1597 C 0.77251 0.77524 0.53888 0.0
C1598 C 0.80195 0.76223 0.54109 0.0
C1599 C 0.76855 0.80134 0.52955 0.0
C1600 C 0.79392 0.8148 0.52223 0.0
C1601 C 0.82288 0.80053 0.5235 0.0
C1602 C 0.8269 0.7746 0.53293 0.0
C1603 C 0.79095 0.8452 0.51447 0.0
C1604 C 0.79909 0.84804 0.49885 0.0
C1605 C 0.78049 0.87147 0.52255 0.0
C1606 C 0.77337 0.87062 0.53931 0.0
C1607 C 0.79547 0.8602 0.55015 0.0
C1608 C 0.7885 0.85922 0.56591 0.0
C1609 C 0.75966 0.86902 0.57101 0.0
C1610 C 0.73777 0.87996 0.56036 0.0
C1611 C 0.74456 0.88082 0.54457 0.0
H1612 H 0.75432 0.86825 0.58321 0.0
H1613 H 0.82353 0.88022 0.43051 0.0
H1614 H 0.28134 0.59126 0.23905 0.0
H1615 H 0.33529 0.59305 0.24731 0.0
H1616 H 0.34307 0.49503 0.24042 0.0
H1617 H 0.28857 0.49324 0.23286 0.0
H1618 H 0.36319 0.50704 0.26721 0.0
H1619 H 0.38445 0.55124 0.2181 0.0
H1620 H 0.37781 0.58658 0.19594 0.0
H1621 H 0.39628 0.66374 0.22547 0.0
H1622 H 0.40257 0.62889 0.24786 0.0
H1623 H 0.51712 0.51367 0.29652 0.0
H1624 H 0.47553 0.5067 0.27742 0.0
H1625 H 0.44661 0.60066 0.28424 0.0
H1626 H 0.48814 0.60788 0.30304 0.0
H1627 H 0.44174 0.58527 0.2543 0.0
H1628 H 0.41338 0.53985 0.30372 0.0
H1629 H 0.41968 0.50376 0.32564 0.0
H1630 H 0.41494 0.4273 0.29436 0.0
H1631 H 0.4091 0.46299 0.27225 0.0
C1632 C 0.29503 0.5704 0.23864 0.0
C1633 C 0.28115 0.54224 0.23496 0.0
C1634 C 0.32589 0.57135 0.24343 0.0
C1635 C 0.34359 0.54419 0.24438 0.0
C1636 C 0.33007 0.51631 0.23976 0.0
C1637 C 0.29908 0.51532 0.23522 0.0
C1638 C 0.37473 0.54439 0.25186 0.0
C1639 C 0.38062 0.5237 0.26407 0.0
C1640 C 0.39745 0.5664 0.24809 0.0
C1641 C 0.39379 0.58745 0.23466 0.0
C1642 C 0.38689 0.57576 0.21988 0.0
C1643 C 0.38321 0.5957 0.20728 0.0
C1644 C 0.38657 0.62739 0.2093 0.0
C1645 C 0.39368 0.63919 0.22392 0.0
C1646 C 0.39734 0.61935 0.23657 0.0
C1647 C 0.50233 0.53302 0.29368 0.0
C1648 C 0.50584 0.5613 0.30137 0.0
C1649 C 0.47841 0.52894 0.28285 0.0
C1650 C 0.45761 0.55302 0.27957 0.0
C1651 C 0.46227 0.58171 0.28659 0.0
C1652 C 0.48602 0.58578 0.29738 0.0
C1653 C 0.42981 0.54825 0.26966 0.0
C1654 C 0.4245 0.5682 0.25711 0.0
C1655 C 0.40769 0.52542 0.27304 0.0
C1656 C 0.41125 0.50407 0.28634 0.0
C1657 C 0.41396 0.51535 0.30152 0.0
C1658 C 0.4174 0.49497 0.31397 0.0
C1659 C 0.41782 0.46326 0.31139 0.0
C1660 C 0.41471 0.45186 0.29635 0.0
C1661 C 0.41135 0.47215 0.28386 0.0
H1662 H 0.42046 0.44752 0.32104 0.0
H1663 H 0.38372 0.64279 0.19952 0.0
H1664 H 0.82735 0.48529 0.548 0.0
H1665 H 0.82619 0.42926 0.54483 0.0
H1666 H 0.74857 0.4387 0.51345 0.0
H1667 H 0.74717 0.49322 0.51818 0.0
H1668 H 0.74025 0.39096 0.5267 0.0
H1669 H 0.83449 0.43223 0.50331 0.0
H1670 H 0.88506 0.45797 0.50432 0.0
H1671 H 0.91793 0.39101 0.53726 0.0
H1672 H 0.86746 0.36508 0.53653 0.0
H1673 H 0.75472 0.27901 0.46925 0.0
H1674 H 0.75523 0.32551 0.48475 0.0
H1675 H 0.81978 0.28338 0.51672 0.0
H1676 H 0.82035 0.23677 0.50079 0.0
H1677 H 0.83674 0.34071 0.50965 0.0
H1678 H 0.74133 0.29396 0.52589 0.0
H1679 H 0.691 0.26957 0.52091 0.0
H1680 H 0.65977 0.35048 0.49674 0.0
H1681 H 0.71 0.37519 0.5014 0.0
C1682 C 0.80956 0.4752 0.5408 0.0
C1683 C 0.78798 0.49392 0.53296 0.0
C1684 C 0.80923 0.44317 0.53875 0.0
C1685 C 0.78799 0.42955 0.52843 0.0
C1686 C 0.76544 0.44825 0.52139 0.0
C1687 C 0.76501 0.47976 0.5239 0.0
C1688 C 0.78933 0.39634 0.52416 0.0
C1689 C 0.76144 0.38016 0.52293 0.0
C1690 C 0.81694 0.38145 0.51966 0.0
C1691 C 0.84718 0.39699 0.52001 0.0
C1692 C 0.85249 0.42312 0.51081 0.0
C1693 C 0.88112 0.43773 0.51133 0.0
C1694 C 0.90466 0.4262 0.52089 0.0
C1695 C 0.89966 0.39997 0.52989 0.0
C1696 C 0.87107 0.38531 0.52943 0.0
C1697 C 0.76871 0.27932 0.4797 0.0
C1698 C 0.78725 0.25398 0.48389 0.0
C1699 C 0.76891 0.30599 0.48859 0.0
C1700 C 0.78702 0.30773 0.50211 0.0
C1701 C 0.80543 0.28243 0.50641 0.0
C1702 C 0.8056 0.25578 0.49735 0.0
C1703 C 0.78749 0.33653 0.51129 0.0
C1704 C 0.8157 0.35152 0.51363 0.0
C1705 C 0.76004 0.35085 0.51628 0.0
C1706 C 0.72943 0.3364 0.51402 0.0
C1707 C 0.72371 0.30653 0.51952 0.0
C1708 C 0.69522 0.29264 0.51673 0.0
C1709 C 0.6722 0.30846 0.50852 0.0
C1710 C 0.67759 0.33827 0.50313 0.0
C1711 C 0.70604 0.35225 0.50588 0.0
H1712 H 0.6502 0.29763 0.50633 0.0
H1713 H 0.92679 0.43754 0.52128 0.0
H1714 H 0.28924 0.99113 0.78583 0.0
H1715 H 0.34376 0.99425 0.77902 0.0
H1716 H 0.33953 0.09308 0.78256 0.0
H1717 H 0.28498 0.08999 0.7894 0.0
H1718 H 0.35554 0.07045 0.75321 0.0
H1719 H 0.385 0.05372 0.80668 0.0
H1720 H 0.38403 0.02513 0.83135 0.0
H1721 H 0.42076 0.94525 0.80887 0.0
H1722 H 0.42146 0.97322 0.784 0.0
H1723 H 0.50096 0.10761 0.72826 0.0
H1724 H 0.45878 0.10213 0.74658 0.0
H1725 H 0.47007 1.00361 0.74597 0.0
H1726 H 0.51296 0.00894 0.72791 0.0
H1727 H 0.45142 0.02392 0.77469 0.0
H1728 H 0.42011 0.03358 0.72252 0.0
H1729 H 0.41754 0.05501 0.69611 0.0
H1730 H 0.37952 0.13906 0.71372 0.0
H1731 H 0.38263 0.11842 0.74033 0.0
C1732 C 0.30039 0.01339 0.78585 0.0
C1733 C 0.28307 0.04032 0.78825 0.0
C1734 C 0.33147 0.01516 0.7819 0.0
C1735 C 0.34564 0.0439 0.78025 0.0
C1736 C 0.329 0.07068 0.78383 0.0
C1737 C 0.29797 0.0689 0.78791 0.0
C1738 C 0.3759 0.04629 0.77254 0.0
C1739 C 0.37666 0.06095 0.75809 0.0
C1740 C 0.40295 0.03213 0.77847 0.0
C1741 C 0.4031 0.01551 0.79346 0.0
C1742 C 0.39269 0.03 0.80697 0.0
C1743 C 0.3922 0.01391 0.821 0.0
C1744 C 0.40228 0.98337 0.82167 0.0
C1745 C 0.41295 0.9689 0.80833 0.0
C1746 C 0.41343 0.98487 0.79427 0.0
C1747 C 0.49492 0.08481 0.73228 0.0
C1748 C 0.51 0.05871 0.72649 0.0
C1749 C 0.47079 0.08171 0.74271 0.0
C1750 C 0.46083 0.05245 0.74734 0.0
C1751 C 0.47732 0.02641 0.74251 0.0
C1752 C 0.50179 0.02951 0.73217 0.0
C1753 C 0.43121 0.04922 0.75564 0.0
C1754 C 0.43042 0.03396 0.76998 0.0
C1755 C 0.40368 0.06191 0.7494 0.0
C1756 C 0.40198 0.0746 0.73345 0.0
C1757 C 0.41154 0.05678 0.72079 0.0
C1758 C 0.40993 0.06875 0.70578 0.0
C1759 C 0.39835 0.09837 0.70324 0.0
C1760 C 0.38839 0.11608 0.71571 0.0
C1761 C 0.39016 0.10429 0.73077 0.0
H1762 H 0.39713 0.10763 0.69161 0.0
H1763 H 0.40187 0.97095 0.83254 0.0
H1764 H 0.66011 0.7486 0.97914 0.0
H1765 H 0.66723 0.70659 0.99782 0.0
H1766 H 0.76566 0.71243 0.99238 0.0
H1767 H 0.75866 0.75455 0.97375 0.0
H1768 H 0.74236 0.65348 0.98781 0.0
H1769 H 0.73772 0.7326 0.02549 0.0
H1770 H 0.71689 0.77825 0.03864 0.0
H1771 H 0.63408 0.729 0.04909 0.0
H1772 H 0.65424 0.68315 0.03577 0.0
H1773 H 0.77995 0.53918 0.04074 0.0
H1774 H 0.77626 0.59285 0.03242 0.0
H1775 H 0.67718 0.58744 0.03347 0.0
H1776 H 0.68084 0.53344 0.0417 0.0
H1777 H 0.70296 0.64772 0.0415 0.0
H1778 H 0.70759 0.56937 1.00206 0.0
H1779 H 0.7296 0.52409 0.989 0.0
H1780 H 0.81394 0.57299 0.98166 0.0
H1781 H 0.79268 0.61836 0.99498 0.0
C1782 C 0.68326 0.74124 0.98214 0.0
C1783 C 0.70878 0.75475 0.97497 0.0
C1784 C 0.68731 0.71735 0.99285 0.0
C1785 C 0.71697 0.70641 0.99648 0.0
C1786 C 0.74259 0.72059 0.98975 0.0
C1787 C 0.73855 0.74478 0.97919 0.0
C1788 C 0.72098 0.67861 1.00629 0.0
C1789 C 0.73427 0.65241 0.99965 0.0
C1790 C 0.70974 0.67702 0.02159 0.0
C1791 C 0.69736 0.70455 0.0295 0.0
C1792 C 0.71493 0.7316 0.03045 0.0
C1793 C 0.70328 0.75749 0.03796 0.0
C1794 C 0.67415 0.75656 0.04467 0.0
C1795 C 0.65662 0.7297 0.04388 0.0
C1796 C 0.66816 0.70374 0.03635 0.0
C1797 C 0.75744 0.54994 0.03997 0.0
C1798 C 0.73067 0.5323 0.04191 0.0
C1799 C 0.75535 0.58047 0.03507 0.0
C1800 C 0.72646 0.59385 0.03208 0.0
C1801 C 0.69968 0.57745 0.03573 0.0
C1802 C 0.70177 0.54672 0.04057 0.0
C1803 C 0.72439 0.62276 0.02301 0.0
C1804 C 0.7113 0.64898 0.02972 0.0
C1805 C 0.73587 0.62444 1.00773 0.0
C1806 C 0.74868 0.59714 0.99972 0.0
C1807 C 0.73096 0.57036 0.99782 0.0
C1808 C 0.74326 0.54471 0.99033 0.0
C1809 C 0.77317 0.54565 0.98454 0.0
C1810 C 0.79081 0.57227 0.98619 0.0
C1811 C 0.77865 0.59795 0.99372 0.0
H1812 H 0.78265 0.52581 0.97872 0.0
H1813 H 0.66518 0.77662 0.0505 0.0
H1814 H 0.02877 1.00677 0.21175 0.0
H1815 H 0.07372 1.00754 0.2291 0.0
H1816 H 0.02276 0.95791 0.2636 0.0
H1817 H 0.97817 0.95538 0.24589 0.0
H1818 H 0.07744 0.02298 0.26693 0.0
H1819 H 0.05015 0.91195 0.25436 0.0
H1820 H 0.03422 0.87838 0.23285 0.0
H1821 H 0.11611 0.90171 0.20809 0.0
H1822 H 0.13083 0.93809 0.22873 0.0
H1823 H 0.21787 0.99486 0.30766 0.0
H1824 H 0.16298 0.99024 0.30051 0.0
H1825 H 0.18899 0.95264 0.25623 0.0
H1826 H 0.24257 0.95444 0.26397 0.0
H1827 H 0.14122 0.92896 0.26104 0.0
H1828 H 0.17071 0.03486 0.26501 0.0
H1829 H 0.1899 0.08187 0.27772 0.0
H1830 H 0.11544 0.0782 0.31003 0.0
H1831 H 0.09606 0.03092 0.29761 0.0
C1832 C 0.02684 0.99665 0.22317 0.0
C1833 C 0.99994 0.98095 0.22748 0.0
C1834 C 0.05258 0.99708 0.23305 0.0
C1835 C 0.05163 0.98246 0.24753 0.0
C1836 C 0.02399 0.96905 0.25239 0.0
C1837 C 0.99855 0.96768 0.24231 0.0
C1838 C 0.08046 0.97818 0.25666 0.0
C1839 C 0.09121 1.00221 0.26599 0.0
C1840 C 0.09906 0.95177 0.2547 0.0
C1841 C 0.09125 0.92817 0.24297 0.0
C1842 C 0.06447 0.91038 0.24422 0.0
C1843 C 0.05567 0.8908 0.23218 0.0
C1844 C 0.07432 0.88753 0.21921 0.0
C1845 C 0.10166 0.90421 0.21815 0.0
C1846 C 0.11004 0.92462 0.22993 0.0
C1847 C 0.21153 0.98453 0.2967 0.0
C1848 C 0.23438 0.97517 0.28634 0.0
C1849 C 0.18021 0.98242 0.29244 0.0
C1850 C 0.17146 0.97194 0.27756 0.0
C1851 C 0.19453 0.9608 0.26775 0.0
C1852 C 0.22539 0.96195 0.27217 0.0
C1853 C 0.13897 0.97398 0.27154 0.0
C1854 C 0.12741 0.94954 0.26256 0.0
C1855 C 0.12057 1.0009 0.27304 0.0
C1856 C 0.13224 0.02915 0.28056 0.0
C1857 C 0.15859 0.04397 0.27491 0.0
C1858 C 0.16948 0.07066 0.28204 0.0
C1859 C 0.15397 0.08294 0.29472 0.0
C1860 C 0.12749 0.0686 0.30025 0.0
C1861 C 0.11656 0.04185 0.29318 0.0
H1862 H 0.16242 0.10362 0.30022 0.0
H1863 H 0.06753 0.87214 0.20997 0.0
H1864 H 0.24845 0.7263 0.55756 0.0
H1865 H 0.24718 0.67931 0.54237 0.0
H1866 H 0.22131 0.73181 0.50172 0.0
H1867 H 0.22014 0.77879 0.51737 0.0
H1868 H 0.18972 0.68413 0.50142 0.0
H1869 H 0.29846 0.69797 0.5093 0.0
H1870 H 0.34553 0.70692 0.52484 0.0
H1871 H 0.32946 0.62375 0.5504 0.0
H1872 H 0.28212 0.6145 0.53514 0.0
H1873 H 0.26611 0.52758 0.47254 0.0
H1874 H 0.26867 0.58265 0.47854 0.0
H1875 H 0.1784 0.57771 0.49889 0.0
H1876 H 0.17548 0.52333 0.49222 0.0
H1877 H 0.272 0.60507 0.50549 0.0
H1878 H 0.14442 0.64492 0.50257 0.0
H1879 H 0.09839 0.63751 0.48607 0.0
H1880 H 0.15593 0.61636 0.44735 0.0
H1881 H 0.20229 0.62401 0.46357 0.0
C1882 C 0.24295 0.7279 0.54533 0.0
C1883 C 0.23484 0.75626 0.53856 0.0
C1884 C 0.24237 0.70095 0.53659 0.0
C1885 C 0.23499 0.70186 0.52071 0.0
C1886 C 0.22725 0.73036 0.51391 0.0
C1887 C 0.22679 0.75725 0.5228 0.0
C1888 C 0.23403 0.67294 0.51144 0.0
C1889 C 0.20791 0.66702 0.50221 0.0
C1890 C 0.25781 0.65052 0.51222 0.0
C1891 C 0.28671 0.65562 0.52111 0.0
C1892 C 0.30496 0.68163 0.51825 0.0
C1893 C 0.33166 0.68676 0.52702 0.0
C1894 C 0.34046 0.66593 0.53861 0.0
C1895 C 0.32264 0.63985 0.54142 0.0
C1896 C 0.29591 0.63462 0.53269 0.0
C1897 C 0.24619 0.53882 0.47746 0.0
C1898 C 0.22018 0.52159 0.48144 0.0
C1899 C 0.24783 0.57013 0.48116 0.0
C1900 C 0.22366 0.58462 0.48911 0.0
C1901 C 0.19704 0.56757 0.49239 0.0
C1902 C 0.19525 0.53646 0.48849 0.0
C1903 C 0.2276 0.61619 0.49556 0.0
C1904 C 0.25414 0.62247 0.5044 0.0
C1905 C 0.20452 0.63915 0.49418 0.0
C1906 C 0.17679 0.63486 0.4843 0.0
C1907 C 0.14724 0.63886 0.49051 0.0
C1908 C 0.12109 0.63456 0.48121 0.0
C1909 C 0.12423 0.62641 0.46567 0.0
C1910 C 0.15352 0.62259 0.45939 0.0
C1911 C 0.17974 0.62685 0.46864 0.0
H1912 H 0.10396 0.62308 0.4585 0.0
H1913 H 0.36111 0.66999 0.54541 0.0
H1914 H 0.74529 0.93239 0.25837 0.0
H1915 H 0.69018 0.93262 0.2635 0.0
H1916 H 0.67569 0.99787 0.22636 0.0
H1917 H 0.73152 0.99813 0.22147 0.0
H1918 H 0.64793 0.01627 0.25247 0.0
H1919 H 0.64951 0.92228 0.2235 0.0
H1920 H 0.66868 0.87074 0.21651 0.0
H1921 H 0.64888 0.83771 0.26223 0.0
H1922 H 0.63002 0.88912 0.26956 0.0
H1923 H 0.4891 0.00952 0.27621 0.0
H1924 H 0.5359 0.00996 0.26035 0.0
H1925 H 0.57216 0.93351 0.28703 0.0
H1926 H 0.52476 0.93158 0.30175 0.0
H1927 H 0.58443 0.92295 0.25975 0.0
H1928 H 0.5918 0.01668 0.29056 0.0
H1929 H 0.57403 0.06792 0.29893 0.0
H1930 H 0.58013 0.1014 0.25228 0.0
H1931 H 0.59681 0.05009 0.24351 0.0
C1932 C 0.73016 0.94597 0.25097 0.0
C1933 C 0.74237 0.96477 0.23934 0.0
C1934 C 0.69868 0.94617 0.25392 0.0
C1935 C 0.67865 0.96494 0.24518 0.0
C1936 C 0.69069 0.98302 0.23315 0.0
C1937 C 0.72241 0.9829 0.23023 0.0
C1938 C 0.6457 0.96716 0.24956 0.0
C1939 C 0.63375 0.99595 0.25379 0.0
C1940 C 0.6274 0.94063 0.25154 0.0
C1941 C 0.63839 0.90958 0.24707 0.0
C1942 C 0.64937 0.90405 0.23208 0.0
C1943 C 0.66018 0.87486 0.22806 0.0
C1944 C 0.66 0.85097 0.23892 0.0
C1945 C 0.64898 0.85621 0.25382 0.0
C1946 C 0.63817 0.88536 0.2579 0.0
C1947 C 0.50709 0.99273 0.27847 0.0
C1948 C 0.50336 0.97025 0.28997 0.0
C1949 C 0.53393 0.99313 0.26954 0.0
C1950 C 0.55792 0.97192 0.27252 0.0
C1951 C 0.55405 0.9499 0.28428 0.0
C1952 C 0.52697 0.94882 0.29274 0.0
C1953 C 0.58713 0.97185 0.26356 0.0
C1954 C 0.59833 0.94342 0.25829 0.0
C1955 C 0.60494 0.99863 0.26098 0.0
C1956 C 0.59517 0.02946 0.26635 0.0
C1957 C 0.58913 0.03491 0.28207 0.0
C1958 C 0.57929 0.06396 0.28689 0.0
C1959 C 0.57608 0.08791 0.27617 0.0
C1960 C 0.5826 0.08283 0.26058 0.0
C1961 C 0.59213 0.05375 0.25566 0.0
H1962 H 0.56853 0.11039 0.27994 0.0
H1963 H 0.6684 0.82839 0.23578 0.0
H1964 H 0.36162 0.28492 0.05081 0.0
H1965 H 0.35406 0.32846 0.03337 0.0
H1966 H 0.26642 0.29192 0.01871 0.0
H1967 H 0.27349 0.24813 0.03647 0.0
H1968 H 0.30734 0.32302 0.9941 0.0
H1969 H 0.2567 0.33835 0.04192 0.0
H1970 H 0.25195 0.33581 0.07028 0.0
H1971 H 0.32642 0.39975 0.07541 0.0
H1972 H 0.33257 0.4016 0.04705 0.0
H1973 H 0.25423 0.48069 0.97473 0.0
H1974 H 0.25753 0.42627 0.98259 0.0
H1975 H 0.34582 0.44336 1.0041 0.0
H1976 H 0.34283 0.49734 0.99597 0.0
H1977 H 0.29643 0.41969 0.02401 0.0
H1978 H 0.347 0.40071 0.97501 0.0
H1979 H 0.35017 0.40088 0.94653 0.0
H1980 H 0.26955 0.34419 0.94362 0.0
H1981 H 0.26564 0.34411 0.97209 0.0
C1982 C 0.34097 0.28567 0.04368 0.0
C1983 C 0.31798 0.26319 0.04518 0.0
C1984 C 0.33675 0.31058 0.03368 0.0
C1985 C 0.3096 0.31347 0.02489 0.0
C1986 C 0.28756 0.28998 0.02541 0.0
C1987 C 0.29164 0.26503 0.03557 0.0
C1988 C 0.30318 0.34286 0.01677 0.0
C1989 C 0.30436 0.34413 1.00058 0.0
C1990 C 0.29926 0.3703 0.02528 0.0
C1991 C 0.29535 0.36981 0.04235 0.0
C1992 C 0.27236 0.35156 0.04909 0.0
C1993 C 0.2694 0.35024 0.06517 0.0
C1994 C 0.28884 0.36763 0.07465 0.0
C1995 C 0.31138 0.38627 0.06805 0.0
C1996 C 0.31469 0.38738 0.05197 0.0
C1997 C 0.27493 0.47234 0.98048 0.0
C1998 C 0.29866 0.49283 0.98442 0.0
C1999 C 0.27667 0.44143 0.98509 0.0
C2000 C 0.30189 0.4309 0.99394 0.0
C2001 C 0.32625 0.45105 0.99721 0.0
C2002 C 0.32472 0.48172 0.99241 0.0
C2003 C 0.30155 0.40008 1.00131 0.0
C2004 C 0.29898 0.39859 0.01747 0.0
C2005 C 0.3035 0.37253 0.99272 0.0
C2006 C 0.30579 0.37275 0.97565 0.0
C2007 C 0.32974 0.38859 0.96829 0.0
C2008 C 0.33172 0.3886 0.95215 0.0
C2009 C 0.31001 0.37265 0.94327 0.0
C2010 C 0.28631 0.35659 0.95051 0.0
C2011 C 0.28421 0.35655 0.96664 0.0
H2012 H 0.3116 0.37265 0.93077 0.0
H2013 H 0.28638 0.36671 0.0871 0.0
H2014 H 1.00759 1.0056 0.8009 0.0
H2015 H 0.96469 1.00038 0.78255 0.0
H2016 H 0.96737 0.09802 0.7735 0.0
H2017 H 1.00917 0.10345 0.79238 0.0
H2018 H 0.91271 0.08338 0.78044 0.0
H2019 H 0.98598 0.03771 0.74498 0.0
H2020 H 0.02493 1.00075 0.73588 0.0
H2021 H 0.96422 0.92571 0.74586 0.0
H2022 H 0.92485 0.96223 0.75499 0.0
H2023 H 0.78395 0.08229 0.73165 0.0
H2024 H 0.83902 0.08697 0.73779 0.0
H2025 H 0.84264 0.99044 0.74951 0.0
H2026 H 0.78828 0.98551 0.7427 0.0
H2027 H 0.89582 1.00638 0.73906 0.0
H2028 H 0.82615 0.04682 0.77677 0.0
H2029 H 0.78419 0.08006 0.78615 0.0
H2030 H 0.83643 0.16037 0.77443 0.0
H2031 H 0.87852 0.12755 0.76475 0.0
C2032 C 0.99957 0.0258 0.79467 0.0
C2033 C 0.01169 0.05497 0.79809 0.0
C2034 C 0.97505 0.02278 0.78411 0.0
C2035 C 0.96273 0.04879 0.7765 0.0
C2036 C 0.97628 0.0776 0.77923 0.0
C2037 C 1.00029 0.08069 0.78998 0.0
C2038 C 0.93357 0.0469 0.76727 0.0
C2039 C 0.90943 0.06699 0.77113 0.0
C2040 C 0.92845 0.02463 0.7556 0.0
C2041 C 0.95261 1.00269 0.75075 0.0
C2042 C 0.9811 0.01331 0.74539 0.0
C2043 C 1.00321 0.99243 0.74019 0.0
C2044 C 0.99711 0.96089 0.74034 0.0
C2045 C 0.96892 0.95014 0.74576 0.0
C2046 C 0.94668 0.97091 0.7509 0.0
C2047 C 0.7969 0.06187 0.73485 0.0
C2048 C 0.78189 0.03362 0.73685 0.0
C2049 C 0.82824 0.0646 0.73857 0.0
C2050 C 0.84476 0.03925 0.74458 0.0
C2051 C 0.83044 0.0104 0.74503 0.0
C2052 C 0.79934 1.0076 0.74114 0.0
C2053 C 0.87547 0.04315 0.7521 0.0
C2054 C 0.89958 0.02322 0.74812 0.0
C2055 C 0.88042 0.06503 0.76395 0.0
C2056 C 0.85528 0.08477 0.76987 0.0
C2057 C 0.82858 0.07157 0.7761 0.0
C2058 C 0.80479 0.09033 0.78148 0.0
C2059 C 0.80761 0.12231 0.78084 0.0
C2060 C 0.83426 0.1356 0.77487 0.0
C2061 C 0.85808 0.11694 0.76944 0.0
H2062 H 0.78917 0.1368 0.78501 0.0
H2063 H 0.01409 0.94475 0.73617 0.0
H2064 H 0.26654 0.11839 1.00567 0.0
H2065 H 0.25475 0.12989 0.97848 0.0
H2066 H 0.2749 0.03552 0.9666 0.0
H2067 H 0.29104 0.02551 0.99285 0.0
H2068 H 0.28899 0.06274 0.94428 0.0
H2069 H 0.19563 0.07173 0.97418 0.0
H2070 H 0.16213 0.0929 0.99449 0.0
H2071 H 0.16998 0.18307 0.97451 0.0
H2072 H 0.20375 0.16243 0.95416 0.0
H2073 H 0.16849 0.03232 0.88929 0.0
H2074 H 0.19637 0.03958 0.91369 0.0
H2075 H 0.22343 0.13028 0.89913 0.0
H2076 H 0.19608 0.12289 0.87424 0.0
H2077 H 0.1899 0.11536 0.93268 0.0
H2078 H 0.27865 0.09407 0.89926 0.0
H2079 H 0.30438 0.06288 0.87934 0.0
H2080 H 0.29457 0.98209 0.90757 0.0
H2081 H 0.26855 0.01279 0.92758 0.0
C2082 C 0.26922 0.10038 0.99717 0.0
C2083 C 0.27863 0.07065 1.00168 0.0
C2084 C 0.26186 0.10679 0.9816 0.0
C2085 C 0.26258 0.08332 0.97037 0.0
C2086 C 0.27369 0.05422 0.97483 0.0
C2087 C 0.28232 0.04825 0.99009 0.0
C2088 C 0.25096 0.088 0.95412 0.0
C2089 C 0.26726 0.07429 0.94191 0.0
C2090 C 0.22275 0.10328 0.95063 0.0
C2091 C 0.20246 0.11565 0.9628 0.0
C2092 C 0.19031 0.0961 0.97418 0.0
C2093 C 0.17128 0.10799 0.98569 0.0
C2094 C 0.16402 0.13933 0.98582 0.0
C2095 C 0.17569 0.15882 0.97442 0.0
C2096 C 0.19475 0.14705 0.9629 0.0
C2097 C 0.18035 0.05387 0.89122 0.0
C2098 C 0.17987 0.07719 0.87989 0.0
C2099 C 0.1963 0.05789 0.90517 0.0
C2100 C 0.21171 0.08547 0.90821 0.0
C2101 C 0.21153 0.10886 0.89696 0.0
C2102 C 0.19603 0.10459 0.88277 0.0
C2103 C 0.22754 0.08938 0.92334 0.0
C2104 C 0.21193 0.10453 0.93523 0.0
C2105 C 0.25545 0.07398 0.92674 0.0
C2106 C 0.27162 0.0557 0.91487 0.0
C2107 C 0.28188 0.06963 0.90117 0.0
C2108 C 0.29655 0.05205 0.88988 0.0
C2109 C 0.30111 0.02053 0.89219 0.0
C2110 C 0.29108 1.00652 0.90581 0.0
C2111 C 0.27645 0.02401 0.91714 0.0
H2112 H 0.31243 1.00695 0.88342 0.0
H2113 H 0.1493 0.1485 0.99474 0.0
H2114 H 0.71412 0.391 0.14574 0.0
H2115 H 0.70891 0.41573 0.17074 0.0
H2116 H 0.65753 0.48998 0.14948 0.0
H2117 H 0.6635 0.46547 0.12398 0.0
H2118 H 0.69908 0.50968 0.17267 0.0
H2119 H 0.61825 0.43493 0.16782 0.0
H2120 H 0.59807 0.38364 0.16119 0.0
H2121 H 0.65642 0.34251 0.19599 0.0
H2122 H 0.67722 0.39353 0.2027 0.0
H2123 H 0.66136 0.55641 0.24903 0.0
H2124 H 0.65128 0.53903 0.22243 0.0
H2125 H 0.70216 0.4555 0.23185 0.0
H2126 H 0.71207 0.47275 0.25834 0.0
H2127 H 0.65204 0.44493 0.2135 0.0
H2128 H 0.73753 0.51536 0.21608 0.0
H2129 H 0.76232 0.56468 0.22252 0.0
H2130 H 0.69932 0.61228 0.19212 0.0
H2131 H 0.67381 0.56323 0.18571 0.0
C2132 C 0.7017 0.41261 0.1463 0.0
C2133 C 0.68864 0.42599 0.13294 0.0
C2134 C 0.69878 0.42674 0.16063 0.0
C2135 C 0.68215 0.45426 0.16203 0.0
C2136 C 0.6702 0.46856 0.14864 0.0
C2137 C 0.67351 0.45453 0.13413 0.0
C2138 C 0.67645 0.46686 0.17767 0.0
C2139 C 0.68807 0.49592 0.18151 0.0
C2140 C 0.66269 0.44857 0.18928 0.0
C2141 C 0.64929 0.41803 0.18574 0.0
C2142 C 0.62676 0.41494 0.17405 0.0
C2143 C 0.61525 0.38591 0.17027 0.0
C2144 C 0.62596 0.35983 0.17816 0.0
C2145 C 0.64811 0.36274 0.18991 0.0
C2146 C 0.65971 0.39171 0.19373 0.0
C2147 C 0.66937 0.53388 0.24553 0.0
C2148 C 0.68732 0.51576 0.25566 0.0
C2149 C 0.66393 0.52415 0.23033 0.0
C2150 C 0.67634 0.49618 0.22514 0.0
C2151 C 0.69238 0.47715 0.23562 0.0
C2152 C 0.69797 0.48693 0.25073 0.0
C2153 C 0.67498 0.48758 0.20857 0.0
C2154 C 0.6622 0.45914 0.20457 0.0
C2155 C 0.68797 0.50631 0.19689 0.0
C2156 C 0.70352 0.53572 0.20058 0.0
C2157 C 0.72882 0.53638 0.21087 0.0
C2158 C 0.74302 0.56427 0.2145 0.0
C2159 C 0.73235 0.59161 0.20777 0.0
C2160 C 0.70752 0.59109 0.19735 0.0
C2161 C 0.69317 0.56326 0.19372 0.0
H2162 H 0.74336 0.61319 0.21059 0.0
H2163 H 0.61709 0.33737 0.17517 0.0
H2164 H 0.29152 0.94349 0.37402 0.0
H2165 H 0.26642 0.94016 0.39939 0.0
H2166 H 0.35516 0.92754 0.42144 0.0
H2167 H 0.38006 0.93044 0.39644 0.0
H2168 H 0.3157 0.88769 0.43254 0.0
H2169 H 0.31687 0.99642 0.42246 0.0
H2170 H 0.30555 0.04492 0.40862 0.0
H2171 H 0.20855 0.0283 0.41268 0.0
H2172 H 0.21931 0.97945 0.42635 0.0
H2173 H 0.29389 0.93008 0.51105 0.0
H2174 H 0.30884 0.92496 0.48387 0.0
H2175 H 0.21329 0.93045 0.4699 0.0
H2176 H 0.19843 0.93559 0.49715 0.0
H2177 H 0.24989 0.97066 0.45369 0.0
H2178 H 0.25123 0.86331 0.46661 0.0
H2179 H 0.26539 0.81797 0.48238 0.0
H2180 H 0.36122 0.83511 0.47421 0.0
H2181 H 0.34764 0.88084 0.45858 0.0
C2182 C 0.30557 0.93982 0.38429 0.0
C2183 C 0.33778 0.93716 0.38319 0.0
C2184 C 0.29125 0.93814 0.39878 0.0
C2185 C 0.30893 0.93376 0.41235 0.0
C2186 C 0.34099 0.93084 0.41117 0.0
C2187 C 0.35522 0.93258 0.39681 0.0
C2188 C 0.29454 0.9317 0.42788 0.0
C2189 C 0.3014 0.90593 0.43716 0.0
C2190 C 0.27538 0.95518 0.43386 0.0
C2191 C 0.2689 0.98403 0.4252 0.0
C2192 C 0.29313 1.00289 0.42021 0.0
C2193 C 0.28681 0.03049 0.41244 0.0
C2194 C 0.25635 0.03962 0.40971 0.0
C2195 C 0.23214 0.02115 0.41475 0.0
C2196 C 0.23833 0.9935 0.4225 0.0
C2197 C 0.27612 0.92904 0.50218 0.0
C2198 C 0.24503 0.93229 0.50611 0.0
C2199 C 0.28461 0.92637 0.48667 0.0
C2200 C 0.26214 0.92712 0.47484 0.0
C2201 C 0.23096 0.92967 0.47883 0.0
C2202 C 0.22247 0.93216 0.49436 0.0
C2203 C 0.27149 0.9269 0.45834 0.0
C2204 C 0.26372 0.95221 0.44892 0.0
C2205 C 0.29021 0.90327 0.45228 0.0
C2206 C 0.29841 0.87557 0.4615 0.0
C2207 C 0.27533 0.8575 0.46825 0.0
C2208 C 0.28325 0.83173 0.47716 0.0
C2209 C 0.31418 0.82368 0.47931 0.0
C2210 C 0.33726 0.84136 0.47253 0.0
C2211 C 0.32947 0.86719 0.46363 0.0
H2212 H 0.32027 0.80372 0.48621 0.0
H2213 H 0.25152 0.06106 0.40375 0.0
H2214 H 0.83409 0.54796 0.62357 0.0
H2215 H 0.83661 0.52113 0.64866 0.0
H2216 H 0.84716 0.60821 0.67187 0.0
H2217 H 0.84534 0.63479 0.64711 0.0
H2218 H 0.88594 0.56922 0.68374 0.0
H2219 H 0.77756 0.56709 0.67082 0.0
H2220 H 0.73119 0.55457 0.65539 0.0
H2221 H 0.75295 0.45834 0.65877 0.0
H2222 H 0.79966 0.47034 0.67406 0.0
H2223 H 0.83928 0.54146 0.7609 0.0
H2224 H 0.84638 0.55788 0.73402 0.0
H2225 H 0.84129 0.46338 0.71913 0.0
H2226 H 0.83382 0.44708 0.74611 0.0
H2227 H 0.80364 0.49961 0.70202 0.0
H2228 H 0.9096 0.50292 0.71759 0.0
H2229 H 0.95324 0.51688 0.73461 0.0
H2230 H 0.93379 0.61273 0.72716 0.0
H2231 H 0.88975 0.59932 0.71026 0.0
C2232 C 0.83721 0.5613 0.63402 0.0
C2233 C 0.83968 0.59355 0.63328 0.0
C2234 C 0.83838 0.54597 0.64838 0.0
C2235 C 0.84187 0.56263 0.66224 0.0
C2236 C 0.84457 0.59474 0.66141 0.0
C2237 C 0.84347 0.60996 0.64717 0.0
C2238 C 0.84314 0.54717 0.67769 0.0
C2239 C 0.8678 0.55412 0.68772 0.0
C2240 C 0.81997 0.52679 0.68287 0.0
C2241 C 0.79234 0.51965 0.67336 0.0
C2242 C 0.77265 0.54329 0.6681 0.0
C2243 C 0.74626 0.53629 0.65943 0.0
C2244 C 0.73921 0.50569 0.65604 0.0
C2245 C 0.7585 0.48204 0.66135 0.0
C2246 C 0.78493 0.48893 0.67002 0.0
C2247 C 0.84088 0.52419 0.75192 0.0
C2248 C 0.83701 0.49299 0.75554 0.0
C2249 C 0.8447 0.53354 0.73656 0.0
C2250 C 0.84468 0.51185 0.72452 0.0
C2251 C 0.84158 0.48052 0.72821 0.0
C2252 C 0.83779 0.47117 0.74361 0.0
C2253 C 0.84609 0.52222 0.70808 0.0
C2254 C 0.82198 0.51431 0.6979 0.0
C2255 C 0.86958 0.54196 0.70278 0.0
C2256 C 0.89632 0.55011 0.71273 0.0
C2257 C 0.91455 0.52697 0.71964 0.0
C2258 C 0.93936 0.53478 0.72926 0.0
C2259 C 0.94626 0.56567 0.73198 0.0
C2260 C 0.92842 0.58881 0.72504 0.0
C2261 C 0.90357 0.58112 0.71542 0.0
H2262 H 0.96547 0.57167 0.73944 0.0
H2263 H 0.71873 0.50031 0.64935 0.0
H2264 H 0.71031 0.97122 0.03121 0.0
H2265 H 0.72863 0.96612 0.05795 0.0
H2266 H 0.80375 0.90893 0.04259 0.0
H2267 H 0.78496 0.9137 0.01573 0.0
H2268 H 0.78219 0.88859 0.06956 0.0
H2269 H 0.81258 0.98702 0.04939 0.0
H2270 H 0.80562 0.03837 0.03763 0.0
H2271 H 0.74673 0.06494 0.07496 0.0
H2272 H 0.75295 0.01358 0.08682 0.0
H2273 H 0.88688 0.91105 0.13185 0.0
H2274 H 0.86047 0.90986 0.1068 0.0
H2275 H 0.7861 0.96391 0.12537 0.0
H2276 H 0.81255 0.9653 0.1506 0.0
H2277 H 0.80457 0.9857 0.09744 0.0
H2278 H 0.77555 0.88847 0.11812 0.0
H2279 H 0.78298 0.83758 0.13028 0.0
H2280 H 0.83887 0.80901 0.09215 0.0
H2281 H 0.83215 0.85992 0.07988 0.0
C2282 C 0.73036 0.95702 0.03363 0.0
C2283 C 0.74634 0.94287 0.02149 0.0
C2284 C 0.74098 0.95436 0.04887 0.0
C2285 C 0.76804 0.93781 0.05226 0.0
C2286 C 0.78295 0.92202 0.04024 0.0
C2287 C 0.77217 0.92456 0.02494 0.0
C2288 C 0.78135 0.93799 0.0682 0.0
C2289 C 0.78744 0.90983 0.07558 0.0
C2290 C 0.78738 0.96572 0.07626 0.0
C2291 C 0.78308 0.99638 0.06894 0.0
C2292 C 0.79794 1.00372 0.05502 0.0
C2293 C 0.7942 0.03286 0.04837 0.0
C2294 C 0.77592 0.05495 0.0556 0.0
C2295 C 0.76104 0.04785 0.06942 0.0
C2296 C 0.76464 0.01873 0.0761 0.0
C2297 C 0.86484 0.9226 0.13067 0.0
C2298 C 0.85183 0.93824 0.14327 0.0
C2299 C 0.84967 0.92174 0.11633 0.0
C2300 C 0.82112 0.9365 0.11421 0.0
C2301 C 0.80805 0.95224 0.12674 0.0
C2302 C 0.82314 0.95292 0.14117 0.0
C2303 C 0.80562 0.93628 0.09876 0.0
C2304 C 0.79916 0.96446 0.09146 0.0
C2305 C 0.79924 0.9086 0.09077 0.0
C2306 C 0.80362 0.8781 0.09817 0.0
C2307 C 0.78969 0.87144 0.11241 0.0
C2308 C 0.79371 0.84257 0.1193 0.0
C2309 C 0.81146 0.8201 0.11202 0.0
C2310 C 0.82517 0.82645 0.0978 0.0
C2311 C 0.82125 0.8553 0.09087 0.0
H2312 H 0.81452 0.79775 0.11737 0.0
H2313 H 0.77315 0.07754 0.05046 0.0
H2314 H 0.32892 0.44573 0.77709 0.0
H2315 H 0.33725 0.46283 0.80377 0.0
H2316 H 0.35523 0.55475 0.78727 0.0
H2317 H 0.34739 0.53739 0.76049 0.0
H2318 H 0.39072 0.54037 0.81258 0.0
H2319 H 0.2842 0.53527 0.79764 0.0
H2320 H 0.23767 0.51015 0.78716 0.0
H2321 H 0.24146 0.44341 0.82388 0.0
H2322 H 0.28839 0.46782 0.83442 0.0
H2323 H 0.34267 0.63237 0.87428 0.0
H2324 H 0.3474 0.60595 0.84967 0.0
H2325 H 0.3329 0.51881 0.87238 0.0
H2326 H 0.3278 0.54536 0.89734 0.0
H2327 H 0.29804 0.52635 0.84505 0.0
H2328 H 0.40363 0.53592 0.86094 0.0
H2329 H 0.44888 0.5638 0.87102 0.0
H2330 H 0.4449 0.62532 0.83206 0.0
H2331 H 0.39934 0.59805 0.82186 0.0
C2332 C 0.3359 0.46927 0.77918 0.0
C2333 C 0.33787 0.49027 0.76686 0.0
C2334 C 0.34029 0.47909 0.79438 0.0
C2335 C 0.34621 0.51017 0.79749 0.0
C2336 C 0.35061 0.53067 0.7851 0.0
C2337 C 0.34637 0.52077 0.76984 0.0
C2338 C 0.34493 0.52177 0.81358 0.0
C2339 C 0.37043 0.53743 0.81965 0.0
C2340 C 0.31853 0.51756 0.82287 0.0
C2341 C 0.29002 0.50315 0.81671 0.0
C2342 C 0.27524 0.5151 0.80342 0.0
C2343 C 0.24879 0.50101 0.79747 0.0
C2344 C 0.23666 0.47515 0.80483 0.0
C2345 C 0.25091 0.46341 0.81818 0.0
C2346 C 0.27745 0.47736 0.82414 0.0
C2347 C 0.34062 0.60755 0.87414 0.0
C2348 C 0.33501 0.59093 0.8878 0.0
C2349 C 0.34344 0.59248 0.86002 0.0
C2350 C 0.34089 0.56041 0.85922 0.0
C2351 C 0.33511 0.5436 0.8728 0.0
C2352 C 0.33237 0.55874 0.88703 0.0
C2353 C 0.34386 0.54494 0.84405 0.0
C2354 C 0.31855 0.52877 0.83808 0.0
C2355 C 0.37026 0.54898 0.83478 0.0
C2356 C 0.398 0.56505 0.8407 0.0
C2357 C 0.41233 0.55549 0.85457 0.0
C2358 C 0.43803 0.57117 0.8603 0.0
C2359 C 0.44973 0.59635 0.8522 0.0
C2360 C 0.43581 0.60582 0.83832 0.0
C2361 C 0.41008 0.59023 0.83255 0.0
H2362 H 0.46961 0.60849 0.85666 0.0
H2363 H 0.21619 0.46426 0.8002 0.0
H2364 H 0.72489 0.09142 0.6518 0.0
H2365 H 0.75092 0.09219 0.62658 0.0
H2366 H 0.66349 0.07971 0.6034 0.0
H2367 H 0.63764 0.07895 0.62818 0.0
H2368 H 0.70732 0.04107 0.59201 0.0
H2369 H 0.69948 0.15044 0.60527 0.0
H2370 H 0.71066 0.19511 0.62191 0.0
H2371 H 0.80774 0.17918 0.61697 0.0
H2372 H 0.79708 0.13418 0.60045 0.0
H2373 H 0.72182 0.07654 0.5145 0.0
H2374 H 0.70767 0.08061 0.54174 0.0
H2375 H 0.80222 0.10008 0.55386 0.0
H2376 H 0.81628 0.09655 0.52639 0.0
H2377 H 0.7639 0.13185 0.57233 0.0
H2378 H 0.77573 0.02854 0.55758 0.0
H2379 H 0.7695 0.98191 0.54171 0.0
H2380 H 0.67245 0.98179 0.55074 0.0
H2381 H 0.67796 0.02882 0.56641 0.0
C2382 C 0.71126 0.08907 0.64131 0.0
C2383 C 0.67911 0.08533 0.64209 0.0
C2384 C 0.72615 0.08949 0.6269 0.0
C2385 C 0.70916 0.08607 0.61303 0.0
C2386 C 0.67718 0.0823 0.61387 0.0
C2387 C 0.66238 0.08205 0.62814 0.0
C2388 C 0.72404 0.08633 0.5975 0.0
C2389 C 0.71951 0.06101 0.58769 0.0
C2390 C 0.74124 0.11167 0.59201 0.0
C2391 C 0.7475 0.13882 0.6018 0.0
C2392 C 0.72319 0.15636 0.60783 0.0
C2393 C 0.72944 0.18175 0.61722 0.0
C2394 C 0.75989 0.18992 0.62054 0.0
C2395 C 0.78417 0.17279 0.61442 0.0
C2396 C 0.77804 0.14737 0.60504 0.0
C2397 C 0.73934 0.08282 0.52293 0.0
C2398 C 0.77003 0.08665 0.51836 0.0
C2399 C 0.73136 0.08471 0.53852 0.0
C2400 C 0.754 0.08991 0.54994 0.0
C2401 C 0.78436 0.09589 0.54529 0.0
C2402 C 0.79235 0.09417 0.5296 0.0
C2403 C 0.74598 0.08714 0.56665 0.0
C2404 C 0.75195 0.11179 0.57668 0.0
C2405 C 0.73078 0.06079 0.57248 0.0
C2406 C 0.72723 0.03241 0.56308 0.0
C2407 C 0.753 0.01874 0.55608 0.0
C2408 C 0.74961 0.99221 0.54713 0.0
C2409 C 0.7206 0.97891 0.5452 0.0
C2410 C 0.69492 0.99213 0.55223 0.0
C2411 C 0.69816 0.01873 0.56116 0.0
H2412 H 0.71804 0.95834 0.53829 0.0
H2413 H 0.76468 0.20957 0.62782 0.0
H2414 H 0.19109 0.46893 0.39853 0.0
H2415 H 0.19259 0.49558 0.37337 0.0
H2416 H 0.16919 0.41088 0.3503 0.0
H2417 H 0.16781 0.38436 0.37506 0.0
H2418 H 0.21878 0.4388 0.33735 0.0
H2419 H 0.11642 0.46947 0.35551 0.0
H2420 H 0.08174 0.49497 0.37398 0.0
H2421 H 0.12911 0.58042 0.36722 0.0
H2422 H 0.16432 0.55531 0.34888 0.0
H2423 H 0.18233 0.47401 0.261 0.0
H2424 H 0.17543 0.4582 0.28804 0.0
H2425 H 0.19247 0.55132 0.30291 0.0
H2426 H 0.1988 0.56711 0.27584 0.0
H2427 H 0.15068 0.52524 0.32121 0.0
H2428 H 0.24989 0.5009 0.30325 0.0
H2429 H 0.28928 0.48002 0.28579 0.0
H2430 H 0.25564 0.3886 0.29364 0.0
H2431 H 0.21562 0.40902 0.31093 0.0
C2432 C 0.18592 0.45616 0.38809 0.0
C2433 C 0.17935 0.42452 0.38881 0.0
C2434 C 0.1868 0.47138 0.37373 0.0
C2435 C 0.181 0.45517 0.35995 0.0
C2436 C 0.17389 0.42381 0.36075 0.0
C2437 C 0.17301 0.4087 0.37497 0.0
C2438 C 0.1831 0.47005 0.3445 0.0
C2439 C 0.20366 0.45749 0.33378 0.0
C2440 C 0.16453 0.49546 0.34007 0.0
C2441 C 0.14316 0.51046 0.35097 0.0
C2442 C 0.11955 0.49364 0.35806 0.0
C2443 C 0.09979 0.50803 0.36848 0.0
C2444 C 0.10327 0.53927 0.3718 0.0
C2445 C 0.12646 0.55622 0.36466 0.0
C2446 C 0.14631 0.54193 0.35425 0.0
C2447 C 0.18343 0.49119 0.27005 0.0
C2448 C 0.1906 0.52175 0.26647 0.0
C2449 C 0.17988 0.48217 0.28547 0.0
C2450 C 0.18398 0.50351 0.29752 0.0
C2451 C 0.18921 0.53449 0.29383 0.0
C2452 C 0.19268 0.54351 0.2784 0.0
C2453 C 0.1853 0.49295 0.31388 0.0
C2454 C 0.16578 0.50653 0.32478 0.0
C2455 C 0.2055 0.46903 0.31865 0.0
C2456 C 0.22954 0.45654 0.30827 0.0
C2457 C 0.2507 0.47637 0.30115 0.0
C2458 C 0.27317 0.46462 0.29129 0.0
C2459 C 0.27492 0.43301 0.28858 0.0
C2460 C 0.25422 0.41309 0.29574 0.0
C2461 C 0.23163 0.42474 0.30557 0.0
H2462 H 0.29235 0.42394 0.28096 0.0
H2463 H 0.08795 0.55037 0.37988 0.0
H2464 H 0.64417 0.55393 0.39395 0.0
H2465 H 0.66982 0.561 0.41876 0.0
H2466 H 0.73655 0.62037 0.39745 0.0
H2467 H 0.71103 0.61287 0.37212 0.0
H2468 H 0.76199 0.57763 0.42002 0.0
H2469 H 0.67915 0.65303 0.41697 0.0
H2470 H 0.62518 0.66793 0.41169 0.0
H2471 H 0.59459 0.60496 0.44666 0.0
H2472 H 0.64834 0.58944 0.45201 0.0
H2473 H 0.81279 0.60963 0.49714 0.0
H2474 H 0.79595 0.61924 0.47025 0.0
H2475 H 0.70783 0.57848 0.48043 0.0
H2476 H 0.7241 0.57054 0.50717 0.0
H2477 H 0.69763 0.62095 0.46184 0.0
H2478 H 0.77203 0.53865 0.46314 0.0
H2479 H 0.82258 0.51445 0.46829 0.0
H2480 H 0.86556 0.57876 0.43755 0.0
H2481 H 0.81527 0.60361 0.43239 0.0
C2482 C 0.66428 0.56857 0.39441 0.0
C2483 C 0.6752 0.58327 0.38102 0.0
C2484 C 0.67898 0.57253 0.40868 0.0
C2485 C 0.70477 0.59166 0.41005 0.0
C2486 C 0.71653 0.60566 0.39666 0.0
C2487 C 0.70184 0.60151 0.38223 0.0
C2488 C 0.71817 0.59767 0.42567 0.0
C2489 C 0.74825 0.58775 0.42912 0.0
C2490 C 0.6999 0.6099 0.43767 0.0
C2491 C 0.66772 0.62009 0.43486 0.0
C2492 C 0.66089 0.64238 0.42351 0.0
C2493 C 0.63034 0.6509 0.4205 0.0
C2494 C 0.60647 0.6374 0.42883 0.0
C2495 C 0.6131 0.61543 0.44023 0.0
C2496 C 0.6436 0.60682 0.44328 0.0
C2497 C 0.78942 0.60405 0.49369 0.0
C2498 C 0.7695 0.58985 0.5042 0.0
C2499 C 0.77999 0.60892 0.47828 0.0
C2500 C 0.75078 0.599 0.47313 0.0
C2501 C 0.73042 0.58646 0.48398 0.0
C2502 C 0.73963 0.58207 0.49932 0.0
C2503 C 0.74133 0.60015 0.45647 0.0
C2504 C 0.71185 0.61144 0.45277 0.0
C2505 C 0.7598 0.58807 0.44443 0.0
C2506 C 0.79001 0.57325 0.44756 0.0
C2507 C 0.79231 0.54779 0.45759 0.0
C2508 C 0.8209 0.53393 0.46049 0.0
C2509 C 0.84729 0.54514 0.4533 0.0
C2510 C 0.84512 0.57017 0.44315 0.0
C2511 C 0.81659 0.58415 0.44023 0.0
H2512 H 0.8694 0.53438 0.45555 0.0
H2513 H 0.58283 0.64396 0.42644 0.0
H2514 H 0.18859 0.96921 0.62266 0.0
H2515 H 0.1853 0.99745 0.6472 0.0
H2516 H 0.17697 0.91152 0.67191 0.0
H2517 H 0.17954 0.88353 0.64771 0.0
H2518 H 0.13787 0.95132 0.68295 0.0
H2519 H 0.24556 0.95143 0.66924 0.0
H2520 H 0.29063 0.96293 0.65309 0.0
H2521 H 0.27066 0.05953 0.65595 0.0
H2522 H 0.22515 0.04854 0.67191 0.0
H2523 H 0.19884 0.97301 0.75833 0.0
H2524 H 0.18938 0.95879 0.73124 0.0
H2525 H 0.18097 0.05473 0.71893 0.0
H2526 H 0.18993 0.06891 0.74615 0.0
H2527 H 0.22303 0.01913 0.70029 0.0
H2528 H 0.11974 0.01655 0.7185 0.0
H2529 H 0.08053 1.00208 0.73752 0.0
H2530 H 0.09537 0.90656 0.72743 0.0
H2531 H 0.13571 0.92042 0.70878 0.0
C2532 C 0.18575 0.95646 0.63333 0.0
C2533 C 0.18437 0.92415 0.63325 0.0
C2534 C 0.18405 0.97258 0.64733 0.0
C2535 C 0.18109 0.95656 0.6614 0.0
C2536 C 0.17912 0.9244 0.66122 0.0
C2537 C 0.18074 0.90839 0.64733 0.0
C2538 C 0.18062 0.9727 0.6765 0.0
C2539 C 0.1565 0.96616 0.68671 0.0
C2540 C 0.2046 0.99259 0.68134 0.0
C2541 C 0.23167 0.99913 0.67154 0.0
C2542 C 0.25057 0.97509 0.66626 0.0
C2543 C 0.27624 0.98152 0.65718 0.0
C2544 C 0.28343 0.01193 0.65344 0.0
C2545 C 0.265 0.03598 0.65881 0.0
C2546 C 0.23925 0.02966 0.66786 0.0
C2547 C 0.19414 0.9909 0.74986 0.0
C2548 C 0.19444 0.02191 0.75421 0.0
C2549 C 0.18897 0.98286 0.73444 0.0
C2550 C 0.18446 1.00577 0.72315 0.0
C2551 C 0.18435 0.0368 0.72752 0.0
C2552 C 0.18908 0.04482 0.74301 0.0
C2553 C 0.18078 0.99699 0.70672 0.0
C2554 C 0.20406 1.0049 0.69633 0.0
C2555 C 0.15634 0.97796 0.70178 0.0
C2556 C 0.13094 0.96954 0.71232 0.0
C2557 C 0.11476 0.99244 0.72038 0.0
C2558 C 0.09234 0.98434 0.73111 0.0
C2559 C 0.08543 0.95341 0.73368 0.0
C2560 C 0.10078 0.93051 0.72543 0.0
C2561 C 0.12349 0.93848 0.7148 0.0
H2562 H 0.06834 0.94716 0.74213 0.0
H2563 H 0.30335 0.01687 0.64643 0.0
H2564 H 0.71546 0.41824 1.00242 0.0
H2565 H 0.72733 0.41196 0.97485 0.0
H2566 H 0.80827 0.46809 0.98071 0.0
H2567 H 0.79694 0.47394 1.00814 0.0
H2568 H 0.76946 0.48766 0.95634 0.0
H2569 H 0.8189 0.39391 0.97537 0.0
H2570 H 0.81642 0.34597 0.99067 0.0
H2571 H 0.74212 0.31408 0.96176 0.0
H2572 H 0.74421 0.36174 0.9464 0.0
H2573 H 0.87355 0.46623 0.89681 0.0
H2574 H 0.84603 0.46567 0.92116 0.0
H2575 H 0.77327 0.41244 0.90017 0.0
H2576 H 0.80086 0.41323 0.87533 0.0
H2577 H 0.79599 0.38986 0.93007 0.0
H2578 H 0.75671 0.48129 0.90715 0.0
H2579 H 0.75843 0.53083 0.89331 0.0
H2580 H 0.81227 0.56974 0.93025 0.0
H2581 H 0.81154 0.52019 0.94417 0.0
C2582 C 0.73625 0.42843 0.9979 0.0
C2583 C 0.75524 0.44664 1.00741 0.0
C2584 C 0.74281 0.42513 0.98214 0.0
C2585 C 0.76842 0.43997 0.97574 0.0
C2586 C 0.78817 0.45682 0.98539 0.0
C2587 C 0.78178 0.45995 1.00107 0.0
C2588 C 0.77469 0.43871 0.95894 0.0
C2589 C 0.77535 0.46635 0.95057 0.0
C2590 C 0.78131 0.4108 0.95135 0.0
C2591 C 0.78157 0.38131 0.95984 0.0
C2592 C 0.80214 0.37653 0.97229 0.0
C2593 C 0.80079 0.34944 0.98098 0.0
C2594 C 0.77904 0.32699 0.97727 0.0
C2595 C 0.75895 0.33139 0.96469 0.0
C2596 C 0.76027 0.35839 0.95595 0.0
C2597 C 0.8517 0.45435 0.89729 0.0
C2598 C 0.83941 0.43962 0.88417 0.0
C2599 C 0.83593 0.45421 0.91123 0.0
C2600 C 0.80758 0.43918 0.91243 0.0
C2601 C 0.79513 0.42423 0.89941 0.0
C2602 C 0.8108 0.42477 0.88527 0.0
C2603 C 0.79181 0.43905 0.92754 0.0
C2604 C 0.78945 0.41118 0.93566 0.0
C2605 C 0.78375 0.46691 0.93495 0.0
C2606 C 0.7843 0.49686 0.92664 0.0
C2607 C 0.76921 0.50029 0.91225 0.0
C2608 C 0.76997 0.52842 0.9044 0.0
C2609 C 0.78552 0.55341 0.91087 0.0
C2610 C 0.80028 0.55034 0.92524 0.0
C2611 C 0.7997 0.52222 0.93312 0.0
H2612 H 0.78609 0.57518 0.90478 0.0
H2613 H 0.77777 0.30626 0.98417 0.0
H2614 H 0.27222 1.00247 0.24624 0.0
H2615 H 0.2838 0.01765 0.22066 0.0
H2616 H 0.3808 0.01828 0.23182 0.0
H2617 H 0.36882 0.00899 0.25911 0.0
H2618 H 0.37282 0.05927 0.21185 0.0
H2619 H 0.33911 0.95557 0.21034 0.0
H2620 H 0.30581 0.9114 0.21641 0.0
H2621 H 0.22972 0.95543 0.19309 0.0
H2622 H 0.26242 1.00002 0.18705 0.0
H2623 H 0.3804 0.06644 0.12653 0.0
H2624 H 0.38501 0.04187 0.1523 0.0
H2625 H 0.29503 0.07629 0.16405 0.0
H2626 H 0.29084 0.10155 0.13881 0.0
H2627 H 0.31063 1.0085 0.17082 0.0
H2628 H 0.34612 0.11551 0.17728 0.0
H2629 H 0.38155 0.15777 0.17084 0.0
H2630 H 0.45896 0.10115 0.18374 0.0
H2631 H 0.42393 0.05841 0.19005 0.0
C2632 C 0.2961 1.00733 0.24394 0.0
C2633 C 0.3193 1.00559 0.25554 0.0
C2634 C 0.30284 0.01476 0.22873 0.0
C2635 C 0.33331 0.01775 0.22386 0.0
C2636 C 0.35696 0.01569 0.23513 0.0
C2637 C 0.35003 0.00999 0.25081 0.0
C2638 C 0.33953 0.02371 0.20707 0.0
C2639 C 0.35976 0.04748 0.20292 0.0
C2640 C 0.32278 1.00844 0.19511 0.0
C2641 C 0.30328 0.98114 0.19823 0.0
C2642 C 0.31529 0.95582 0.2065 0.0
C2643 C 0.29649 0.93073 0.20996 0.0
C2644 C 0.26568 0.93061 0.20514 0.0
C2645 C 0.25361 0.95552 0.19679 0.0
C2646 C 0.2723 0.98067 0.1933 0.0
C2647 C 0.36157 0.06838 0.13459 0.0
C2648 C 0.33533 0.08594 0.13074 0.0
C2649 C 0.36425 0.05451 0.14928 0.0
C2650 C 0.34038 0.05741 0.16007 0.0
C2651 C 0.3137 0.07382 0.15592 0.0
C2652 C 0.31138 0.08826 0.1415 0.0
C2653 C 0.34296 0.04436 0.17594 0.0
C2654 C 0.3243 0.01939 0.17982 0.0
C2655 C 0.36165 0.0579 0.18752 0.0
C2656 C 0.3825 0.08371 0.18394 0.0
C2657 C 0.37071 0.11201 0.17861 0.0
C2658 C 0.39071 0.13606 0.17501 0.0
C2659 C 0.4225 0.13212 0.17683 0.0
C2660 C 0.43434 0.10416 0.18231 0.0
C2661 C 0.41444 0.08003 0.1859 0.0
H2662 H 0.43795 0.15075 0.17403 0.0
H2663 H 0.25115 0.9112 0.20787 0.0
H2664 H 0.26826 0.39817 0.51208 0.0
H2665 H 0.28566 0.38995 0.53902 0.0
H2666 H 0.22848 0.46537 0.55383 0.0
H2667 H 0.21027 0.4729 0.52732 0.0
H2668 H 0.29053 0.47094 0.56304 0.0
H2669 H 0.20772 0.40032 0.56466 0.0
H2670 H 0.17557 0.35672 0.55634 0.0
H2671 H 0.25185 0.29496 0.56343 0.0
H2672 H 0.28466 0.33837 0.57155 0.0
H2673 H 0.3094 0.4572 0.64498 0.0
H2674 H 0.28428 0.45813 0.61943 0.0
H2675 H 0.3426 0.3836 0.60458 0.0
H2676 H 0.36817 0.38289 0.62999 0.0
H2677 H 0.27921 0.37746 0.59554 0.0
H2678 H 0.36148 0.45208 0.59452 0.0
H2679 H 0.39014 0.49749 0.60365 0.0
H2680 H 0.31014 0.55416 0.59618 0.0
H2681 H 0.28081 0.50894 0.58727 0.0
C2682 C 0.25886 0.41241 0.52116 0.0
C2683 C 0.23835 0.43651 0.51754 0.0
C2684 C 0.26893 0.40786 0.5365 0.0
C2685 C 0.25868 0.42741 0.54835 0.0
C2686 C 0.237 0.45033 0.54484 0.0
C2687 C 0.22666 0.45457 0.52967 0.0
C2688 C 0.2716 0.42529 0.56429 0.0
C2689 C 0.2878 0.4506 0.5702 0.0
C2690 C 0.26817 0.39875 0.57357 0.0
C2691 C 0.24877 0.37264 0.5685 0.0
C2692 C 0.21777 0.3775 0.56425 0.0
C2693 C 0.19939 0.35282 0.55962 0.0
C2694 C 0.21169 0.3231 0.5593 0.0
C2695 C 0.24239 0.31801 0.56364 0.0
C2696 C 0.26089 0.34265 0.56826 0.0
C2697 C 0.31654 0.44069 0.63635 0.0
C2698 C 0.34075 0.41991 0.6395 0.0
C2699 C 0.30229 0.44137 0.62174 0.0
C2700 C 0.31172 0.42103 0.6101 0.0
C2701 C 0.33499 0.39947 0.61341 0.0
C2702 C 0.34961 0.39914 0.62791 0.0
C2703 C 0.29831 0.42302 0.59425 0.0
C2704 C 0.28201 0.39773 0.58835 0.0
C2705 C 0.30123 0.44983 0.58505 0.0
C2706 C 0.31883 0.47703 0.59043 0.0
C2707 C 0.34989 0.47415 0.59499 0.0
C2708 C 0.36628 0.49988 0.60009 0.0
C2709 C 0.35194 0.52868 0.60055 0.0
C2710 C 0.3212 0.53182 0.59586 0.0
C2711 C 0.30468 0.50615 0.59079 0.0
H2712 H 0.36468 0.54857 0.6045 0.0
H2713 H 0.19741 0.30399 0.55573 0.0
H2714 H 0.80662 0.12071 0.37702 0.0
H2715 H 0.81191 0.09303 0.3528 0.0
H2716 H 0.86767 0.02408 0.37574 0.0
H2717 H 0.86206 0.05181 0.40046 0.0
H2718 H 0.8909 0.04931 0.34543 0.0
H2719 H 0.80355 1.0 0.36713 0.0
H2720 H 0.75393 0.99696 0.38066 0.0
H2721 H 0.71061 0.05032 0.3446 0.0
H2722 H 0.76005 0.05395 0.33092 0.0
H2723 H 0.86396 0.9613 0.27353 0.0
H2724 H 0.87347 0.97652 0.30056 0.0
H2725 H 0.81337 0.05484 0.29426 0.0
H2726 H 0.8044 0.04024 0.26734 0.0
H2727 H 0.79634 0.0134 0.31842 0.0
H2728 H 0.88461 0.06831 0.29883 0.0
H2729 H 0.93404 0.07243 0.2852 0.0
H2730 H 0.9754 1.00838 0.3172 0.0
H2731 H 0.926 1.00352 0.33089 0.0
C2732 C 0.82011 0.0997 0.37699 0.0
C2733 C 0.83406 0.08847 0.39064 0.0
C2734 C 0.82302 0.08388 0.36312 0.0
C2735 C 0.84012 0.05656 0.36251 0.0
C2736 C 0.85439 0.0452 0.37604 0.0
C2737 C 0.85106 0.06092 0.39011 0.0
C2738 C 0.84235 0.04036 0.34754 0.0
C2739 C 0.87045 0.0406 0.33964 0.0
C2740 C 0.81552 0.02958 0.33995 0.0
C2741 C 0.78559 0.02739 0.34805 0.0
C2742 C 0.78349 0.01127 0.36214 0.0
C2743 C 0.75537 0.00938 0.36981 0.0
C2744 C 0.72912 0.02344 0.36349 0.0
C2745 C 0.73093 0.03937 0.34946 0.0
C2746 C 0.759 0.04131 0.34173 0.0
C2747 C 0.85376 0.98237 0.27779 0.0
C2748 C 0.83329 0.99952 0.26842 0.0
C2749 C 0.85898 0.99087 0.29323 0.0
C2750 C 0.84373 0.01652 0.29939 0.0
C2751 C 0.82508 0.0348 0.28972 0.0
C2752 C 0.8201 0.02652 0.27435 0.0
C2753 C 0.84468 0.02315 0.31616 0.0
C2754 C 0.81702 0.02122 0.32434 0.0
C2755 C 0.87189 0.03229 0.32395 0.0
C2756 C 0.90154 0.03524 0.31575 0.0
C2757 C 0.90416 0.05485 0.30286 0.0
C2758 C 0.93218 0.05738 0.29515 0.0
C2759 C 0.95782 0.0406 0.3003 0.0
C2760 C 0.9555 0.02131 0.3132 0.0
C2761 C 0.9275 0.01867 0.32095 0.0
H2762 H 0.97951 0.0426 0.29432 0.0
H2763 H 0.70739 0.02196 0.36947 0.0
H2764 H 0.22082 0.56435 0.01138 0.0
H2765 H 0.20544 0.57285 0.03823 0.0
H2766 H 0.29578 0.6084 0.04887 0.0
H2767 H 0.31113 0.60011 0.02183 0.0
H2768 H 0.27555 0.56181 0.06959 0.0
H2769 H 0.23826 0.65734 0.04868 0.0
H2770 H 0.21005 0.69017 0.02999 0.0
H2771 H 0.12559 0.64445 0.04115 0.0
H2772 H 0.1534 0.61098 0.05972 0.0
H2773 H 0.22188 0.59305 0.14715 0.0
H2774 H 0.24662 0.59736 0.12173 0.0
H2775 H 0.15972 0.57764 0.09929 0.0
H2776 H 0.13504 0.57421 0.12427 0.0
H2777 H 0.18468 0.62318 0.08533 0.0
H2778 H 0.22021 0.52364 0.10289 0.0
H2779 H 0.24664 0.48668 0.12024 0.0
H2780 H 0.33168 0.53538 0.11457 0.0
H2781 H 0.30564 0.57282 0.09731 0.0
C2782 C 0.23702 0.57489 0.01935 0.0
C2783 C 0.26689 0.58222 0.01452 0.0
C2784 C 0.22833 0.57955 0.03469 0.0
C2785 C 0.24944 0.59136 0.04555 0.0
C2786 C 0.27913 0.59937 0.04067 0.0
C2787 C 0.28773 0.59504 0.02522 0.0
C2788 C 0.24057 0.59389 0.06207 0.0
C2789 C 0.2561 0.57575 0.07314 0.0
C2790 C 0.21476 0.61141 0.06661 0.0
C2791 C 0.19794 0.6316 0.05553 0.0
C2792 C 0.2137 0.65417 0.04707 0.0
C2793 C 0.19778 0.67291 0.03652 0.0
C2794 C 0.16605 0.66941 0.03439 0.0
C2795 C 0.15017 0.64715 0.04282 0.0
C2796 C 0.16599 0.62832 0.05337 0.0
C2797 C 0.20813 0.58978 0.13677 0.0
C2798 C 0.17643 0.58353 0.13777 0.0
C2799 C 0.22231 0.59203 0.12225 0.0
C2800 C 0.20507 0.58774 0.10853 0.0
C2801 C 0.17354 0.58131 0.10963 0.0
C2802 C 0.15943 0.57931 0.12401 0.0
C2803 C 0.21909 0.59044 0.0929 0.0
C2804 C 0.20449 0.60961 0.08193 0.0
C2805 C 0.24541 0.5734 0.08843 0.0
C2806 C 0.2609 0.55127 0.09902 0.0
C2807 C 0.24447 0.52665 0.10549 0.0
C2808 C 0.25939 0.50557 0.11527 0.0
C2809 C 0.29079 0.50876 0.11856 0.0
C2810 C 0.30734 0.533 0.11205 0.0
C2811 C 0.29252 0.55414 0.10227 0.0
H2812 H 0.30232 0.4924 0.12612 0.0
H2813 H 0.15376 0.68397 0.02622 0.0
H2814 H 0.72066 0.90237 0.88396 0.0
H2815 H 0.71824 0.92914 0.85918 0.0
H2816 H 0.64082 0.98248 0.87495 0.0
H2817 H 0.64358 0.95582 0.90025 0.0
H2818 H 0.63259 0.95442 0.84473 0.0
H2819 H 0.70315 0.01956 0.87071 0.0
H2820 H 0.74798 0.03385 0.88682 0.0
H2821 H 0.80871 0.99194 0.85404 0.0
H2822 H 0.7642 0.97689 0.83786 0.0
H2823 H 0.65956 0.04676 0.77317 0.0
H2824 H 0.64917 0.03327 0.80034 0.0
H2825 H 0.7141 0.95836 0.79766 0.0
H2826 H 0.72339 0.97051 0.77055 0.0
H2827 H 0.72316 1.00764 0.82272 0.0
H2828 H 0.6516 0.93466 0.79987 0.0
H2829 H 0.60698 0.92047 0.78356 0.0
H2830 H 0.54851 0.97894 0.81053 0.0
H2831 H 0.59298 0.99384 0.82686 0.0
C2832 C 0.70315 0.9199 0.88224 0.0
C2833 C 0.68213 0.92684 0.89403 0.0
C2834 C 0.70192 0.93531 0.86806 0.0
C2835 C 0.67941 0.95786 0.86519 0.0
C2836 C 0.65841 0.96516 0.87695 0.0
C2837 C 0.66006 0.95006 0.89138 0.0
C2838 C 0.67774 0.97257 0.84961 0.0
C2839 C 0.65207 0.9668 0.84005 0.0
C2840 C 0.70335 0.98826 0.84337 0.0
C2841 C 0.73027 0.99686 0.85314 0.0
C2842 C 0.72604 0.01308 0.86702 0.0
C2843 C 0.75141 0.02138 0.87615 0.0
C2844 C 0.78118 0.01374 0.87148 0.0
C2845 C 0.78563 0.99781 0.85766 0.0
C2846 C 0.76033 0.9894 0.84849 0.0
C2847 C 0.67087 0.02685 0.77824 0.0
C2848 C 0.69261 0.00996 0.76972 0.0
C2849 C 0.66513 0.01937 0.79379 0.0
C2850 C 0.68122 0.9951 0.80103 0.0
C2851 C 0.7017 0.97738 0.79234 0.0
C2852 C 0.70698 0.98441 0.77683 0.0
C2853 C 0.67839 0.98885 0.81786 0.0
C2854 C 0.70338 0.99603 0.82757 0.0
C2855 C 0.65224 0.97452 0.82421 0.0
C2856 C 0.62562 0.96571 0.81441 0.0
C2857 C 0.62929 0.94478 0.80219 0.0
C2858 C 0.60403 0.93653 0.79298 0.0
C2859 C 0.57495 0.9489 0.79597 0.0
C2860 C 0.57107 0.96946 0.8082 0.0
C2861 C 0.59628 0.97781 0.81744 0.0
H2862 H 0.55539 0.94246 0.78884 0.0
H2863 H 0.80079 0.02021 0.87856 0.0
H2864 H 0.60506 0.35802 0.08827 0.0
H2865 H 0.55449 0.33378 0.08881 0.0
H2866 H 0.59695 0.24464 0.08371 0.0
H2867 H 0.64772 0.26865 0.08297 0.0
H2868 H 0.54683 0.25213 0.06452 0.0
H2869 H 0.57057 0.26918 0.1188 0.0
H2870 H 0.58507 0.30157 0.14108 0.0
H2871 H 0.50475 0.35775 0.1335 0.0
H2872 H 0.49003 0.32595 0.11103 0.0
H2873 H 0.42049 0.15751 0.08069 0.0
H2874 H 0.47028 0.18311 0.08107 0.0
H2875 H 0.42632 0.26793 0.09459 0.0
H2876 H 0.37659 0.24181 0.09522 0.0
H2877 H 0.47681 0.26476 0.1091 0.0
H2878 H 0.45151 0.25154 0.05586 0.0
H2879 H 0.43579 0.2239 0.03222 0.0
H2880 H 0.51646 0.16677 0.03572 0.0
H2881 H 0.53243 0.19378 0.05953 0.0
C2882 C 0.60377 0.33324 0.08729 0.0
C2883 C 0.63064 0.31532 0.08566 0.0
C2884 C 0.57476 0.3194 0.08766 0.0
C2885 C 0.57191 0.28735 0.08648 0.0
C2886 C 0.59859 0.26941 0.0847 0.0
C2887 C 0.62765 0.2832 0.08437 0.0
C2888 C 0.54112 0.27248 0.08697 0.0
C2889 C 0.53166 0.25451 0.07435 0.0
C2890 C 0.52079 0.27663 0.0995 0.0
C2891 C 0.52935 0.29535 0.11318 0.0
C2892 C 0.55611 0.28855 0.12184 0.0
C2893 C 0.56436 0.30679 0.1345 0.0
C2894 C 0.54589 0.33174 0.13868 0.0
C2895 C 0.51906 0.33844 0.13024 0.0
C2896 C 0.51073 0.3203 0.11755 0.0
C2897 C 0.42138 0.18158 0.08385 0.0
C2898 C 0.39441 0.19766 0.08779 0.0
C2899 C 0.44993 0.19633 0.08392 0.0
C2900 C 0.45217 0.22779 0.08743 0.0
C2901 C 0.42535 0.24372 0.09174 0.0
C2902 C 0.39683 0.22876 0.09204 0.0
C2903 C 0.48244 0.24395 0.08668 0.0
C2904 C 0.49184 0.26227 0.09922 0.0
C2905 C 0.50245 0.24073 0.07389 0.0
C2906 C 0.49299 0.22448 0.05956 0.0
C2907 C 0.46577 0.23293 0.05165 0.0
C2908 C 0.45684 0.2174 0.03821 0.0
C2909 C 0.47507 0.19354 0.03249 0.0
C2910 C 0.50234 0.18522 0.04018 0.0
C2911 C 0.51135 0.20064 0.05364 0.0
H2912 H 0.46812 0.18153 0.02208 0.0
H2913 H 0.55233 0.34585 0.14848 0.0
H2914 H 0.57635 0.65014 0.31456 0.0
H2915 H 0.54928 0.69927 0.31341 0.0
H2916 H 0.5257 0.69009 0.36161 0.0
H2917 H 0.55122 0.63967 0.36248 0.0
H2918 H 0.47937 0.71301 0.34749 0.0
H2919 H 0.58848 0.73963 0.34526 0.0
H2920 H 0.6404 0.73727 0.33393 0.0
H2921 H 0.60412 0.76982 0.29043 0.0
H2922 H 0.55197 0.77206 0.30145 0.0
H2923 H 0.43037 0.8675 0.35806 0.0
H2924 H 0.456 0.81731 0.35925 0.0
H2925 H 0.48842 0.83036 0.31257 0.0
H2926 H 0.46532 0.88172 0.3121 0.0
H2927 H 0.53054 0.80507 0.32585 0.0
H2928 H 0.42327 0.77825 0.32583 0.0
H2929 H 0.36961 0.77918 0.33495 0.0
H2930 H 0.39927 0.7454 0.37944 0.0
H2931 H 0.45314 0.7446 0.37063 0.0
C2932 C 0.5655 0.6586 0.32495 0.0
C2933 C 0.56633 0.6411 0.33869 0.0
C2934 C 0.55015 0.68696 0.32431 0.0
C2935 C 0.53612 0.69925 0.33755 0.0
C2936 C 0.53649 0.68148 0.35123 0.0
C2937 C 0.55119 0.65264 0.35176 0.0
C2938 C 0.52075 0.73026 0.33711 0.0
C2939 C 0.49078 0.73322 0.34294 0.0
C2940 C 0.53487 0.75667 0.33064 0.0
C2941 C 0.56634 0.75581 0.32416 0.0
C2942 C 0.59159 0.74619 0.33327 0.0
C2943 C 0.62105 0.74487 0.3269 0.0
C2944 C 0.62555 0.75333 0.31147 0.0
C2945 C 0.60062 0.76325 0.30238 0.0
C2946 C 0.57113 0.76459 0.30869 0.0
C2947 C 0.44298 0.85949 0.34808 0.0
C2948 C 0.4458 0.87837 0.33498 0.0
C2949 C 0.4574 0.83056 0.34867 0.0
C2950 C 0.47371 0.81915 0.33584 0.0
C2951 C 0.47617 0.8382 0.32268 0.0
C2952 C 0.4628 0.86759 0.32236 0.0
C2953 C 0.48897 0.78798 0.33621 0.0
C2954 C 0.51897 0.78495 0.33038 0.0
C2955 C 0.47459 0.76136 0.34235 0.0
C2956 C 0.44222 0.76162 0.34761 0.0
C2957 C 0.41834 0.77117 0.33758 0.0
C2958 C 0.3879 0.77166 0.34269 0.0
C2959 C 0.38104 0.76243 0.35777 0.0
C2960 C 0.40461 0.75258 0.36776 0.0
C2961 C 0.43509 0.75207 0.36272 0.0
H2962 H 0.35746 0.76285 0.36171 0.0
H2963 H 0.64836 0.75225 0.30656 0.0
H2964 H 0.13986 0.78092 0.56332 0.0
H2965 H 0.08817 0.75809 0.56288 0.0
H2966 H 0.06306 0.81234 0.60248 0.0
H2967 H 0.11411 0.83595 0.60275 0.0
H2968 H 0.05531 0.7319 0.5967 0.0
H2969 H 0.02588 0.84084 0.58509 0.0
H2970 H 0.03218 0.88853 0.56993 0.0
H2971 H 0.01894 0.83804 0.52775 0.0
H2972 H 0.01321 0.78993 0.54272 0.0
H2973 H 0.89371 0.71032 0.60796 0.0
H2974 H 0.94578 0.73242 0.60743 0.0
H2975 H 0.9479 0.72077 0.55788 0.0
H2976 H 0.89628 0.69779 0.5585 0.0
H2977 H 0.96802 0.77917 0.56756 0.0
H2978 H 0.98778 0.67345 0.5781 0.0
H2979 H 0.98306 0.62359 0.59149 0.0
H2980 H 0.01629 0.66417 0.63369 0.0
H2981 H 0.0207 0.71447 0.6206 0.0
C2982 C 0.12331 0.78804 0.57191 0.0
C2983 C 0.13107 0.81038 0.58302 0.0
C2984 C 0.09381 0.77503 0.57162 0.0
C2985 C 0.07178 0.78384 0.58254 0.0
C2986 C 0.07963 0.80559 0.59382 0.0
C2987 C 0.10884 0.81902 0.59395 0.0
C2988 C 0.04071 0.76988 0.58238 0.0
C2989 C 0.03608 0.74238 0.59051 0.0
C2990 C 0.01597 0.7831 0.57393 0.0
C2991 C 0.01972 0.81182 0.56498 0.0
C2992 C 0.02482 0.83987 0.57258 0.0
C2993 C 0.02816 0.86698 0.56403 0.0
C2994 C 0.02612 0.8663 0.54788 0.0
C2995 C 0.02066 0.83851 0.54026 0.0
C2996 C 0.0174 0.81133 0.54876 0.0
C2997 C 0.9054 0.71255 0.597 0.0
C2998 C 0.89124 0.70244 0.58328 0.0
C2999 C 0.93508 0.72504 0.59669 0.0
C3000 C 0.95074 0.72817 0.58261 0.0
C3001 C 0.93626 0.71855 0.56885 0.0
C3002 C 0.90691 0.70537 0.56922 0.0
C3003 C 0.98223 0.74144 0.58225 0.0
C3004 C 0.98707 0.7687 0.57389 0.0
C3005 C 1.00721 0.72783 0.59044 0.0
C3006 C 1.00418 0.6978 0.59843 0.0
C3007 C 0.99371 0.67184 0.59029 0.0
C3008 C 0.99118 0.64348 0.59781 0.0
C3009 C 0.99927 0.64073 0.61344 0.0
C3010 C 0.00996 0.66635 0.62158 0.0
C3011 C 0.01248 0.69479 0.61412 0.0
H3012 H 0.99735 0.61874 0.61924 0.0
H3013 H 0.02863 0.88732 0.54128 0.0
H3014 H 0.05144 0.13573 0.86138 0.0
H3015 H 0.02641 0.18633 0.86047 0.0
H3016 H 0.05486 0.19764 0.81306 0.0
H3017 H 0.08122 0.1482 0.81424 0.0
H3018 H 0.06272 0.24826 0.82586 0.0
H3019 H 0.97684 0.17909 0.82547 0.0
H3020 H 0.94463 0.13659 0.83502 0.0
H3021 H 0.93046 0.1849 0.87766 0.0
H3022 H 0.96293 0.2275 0.86843 0.0
H3023 H 0.97006 0.38026 0.81024 0.0
H3024 H 0.99262 0.3286 0.81001 0.0
H3025 H 0.9639 0.31478 0.85725 0.0
H3026 H 0.939 0.36525 0.85692 0.0
H3027 H 0.95598 0.26507 0.84387 0.0
H3028 H 0.04447 0.33456 0.84315 0.0
H3029 H 0.07516 0.37662 0.83193 0.0
H3030 H 0.08266 0.32663 0.78933 0.0
H3031 H 0.05177 0.28445 0.80026 0.0
C3032 C 0.05233 0.14907 0.85079 0.0
C3033 C 0.06847 0.13797 0.83794 0.0
C3034 C 0.03778 0.17796 0.85021 0.0
C3035 C 0.03821 0.19591 0.8366 0.0
C3036 C 0.05416 0.18456 0.82374 0.0
C3037 C 0.06924 0.15612 0.82443 0.0
C3038 C 0.02276 0.22675 0.83572 0.0
C3039 C 0.03923 0.25175 0.82967 0.0
C3040 C 0.99223 0.2318 0.84081 0.0
C3041 C 0.97252 0.20633 0.84631 0.0
C3042 C 0.96699 0.18055 0.83691 0.0
C3043 C 0.94868 0.15646 0.84227 0.0
C3044 C 0.93556 0.15801 0.85696 0.0
C3045 C 0.94066 0.18371 0.8663 0.0
C3046 C 0.95899 0.20784 0.86101 0.0
C3047 C 0.96865 0.36611 0.82055 0.0
C3048 C 0.95299 0.37681 0.83363 0.0
C3049 C 0.98181 0.33661 0.82049 0.0
C3050 C 0.98094 0.31776 0.83379 0.0
C3051 C 0.96512 0.32862 0.84683 0.0
C3052 C 0.95099 0.35759 0.84668 0.0
C3053 C 0.99607 0.2867 0.83421 0.0
C3054 C 0.97951 0.2616 0.84014 0.0
C3055 C 0.02642 0.28147 0.82884 0.0
C3056 C 0.04568 0.30649 0.82249 0.0
C3057 C 0.05265 0.33259 0.83139 0.0
C3058 C 0.07005 0.35645 0.82508 0.0
C3059 C 0.08081 0.35433 0.80992 0.0
C3060 C 0.07431 0.32826 0.80107 0.0
C3061 C 0.05691 0.30436 0.80732 0.0
H3062 H 0.0942 0.37286 0.80504 0.0
H3063 H 0.9214 0.13933 0.86108 0.0
H3064 H 0.61025 0.83625 0.95726 0.0
H3065 H 0.5603 0.81079 0.9576 0.0
H3066 H 0.58198 0.76433 0.91505 0.0
H3067 H 0.63246 0.78965 0.91467 0.0
H3068 H 0.5223 0.79006 0.91514 0.0
H3069 H 0.58421 0.72382 0.94682 0.0
H3070 H 0.62075 0.71071 0.96785 0.0
H3071 H 0.55776 0.74655 1.00136 0.0
H3072 H 0.52088 0.76007 0.98048 0.0
H3073 H 0.40452 0.67558 0.91897 0.0
H3074 H 0.45523 0.69994 0.91885 0.0
H3075 H 0.42945 0.75596 0.95771 0.0
H3076 H 0.37821 0.7322 0.95771 0.0
H3077 H 0.49132 0.72468 0.95951 0.0
H3078 H 0.42987 0.79161 0.92754 0.0
H3079 H 0.39353 0.8043 0.90636 0.0
H3080 H 0.45643 0.76682 0.87325 0.0
H3081 H 0.49293 0.7534 0.89431 0.0
C3082 C 0.60448 0.8207 0.94791 0.0
C3083 C 0.62542 0.81511 0.93589 0.0
C3084 C 0.57589 0.80603 0.94819 0.0
C3085 C 0.56741 0.78551 0.93641 0.0
C3086 C 0.58805 0.78008 0.92427 0.0
C3087 C 0.61691 0.7945 0.92409 0.0
C3088 C 0.5369 0.76998 0.93681 0.0
C3089 C 0.51574 0.77539 0.92473 0.0
C3090 C 0.52797 0.7514 0.94949 0.0
C3091 C 0.54995 0.74324 0.96209 0.0
C3092 C 0.57826 0.72913 0.95867 0.0
C3093 C 0.599 0.72157 0.97056 0.0
C3094 C 0.59166 0.72794 0.98593 0.0
C3095 C 0.56346 0.74171 0.98944 0.0
C3096 C 0.54259 0.74926 0.97759 0.0
C3097 C 0.40958 0.69306 0.92752 0.0
C3098 C 0.38723 0.70196 0.93834 0.0
C3099 C 0.43859 0.70697 0.92741 0.0
C3100 C 0.44612 0.72974 0.93827 0.0
C3101 C 0.42412 0.73838 0.94926 0.0
C3102 C 0.3948 0.7249 0.94918 0.0
C3103 C 0.4768 0.74484 0.93786 0.0
C3104 C 0.49796 0.73932 0.94993 0.0
C3105 C 0.48578 0.76327 0.92517 0.0
C3106 C 0.46392 0.77115 0.9125 0.0
C3107 C 0.43578 0.78575 0.91576 0.0
C3108 C 0.41519 0.79314 0.90378 0.0
C3109 C 0.42261 0.78628 0.88847 0.0
C3110 C 0.45068 0.77206 0.88512 0.0
C3111 C 0.47133 0.76455 0.89707 0.0
H3112 H 0.40666 0.79205 0.8792 0.0
H3113 H 0.60778 0.72213 0.99512 0.0
H3114 H 0.58639 0.15209 0.7085 0.0
H3115 H 0.56048 0.20231 0.70848 0.0
H3116 H 0.52457 0.18478 0.6627 0.0
H3117 H 0.54957 0.13395 0.66283 0.0
H3118 H 0.56123 0.24899 0.67278 0.0
H3119 H 0.47618 0.1771 0.68326 0.0
H3120 H 0.45441 0.13516 0.69891 0.0
H3121 H 0.46183 0.19084 0.73973 0.0
H3122 H 0.48473 0.23274 0.72439 0.0
H3123 H 0.46649 0.37873 0.66142 0.0
H3124 H 0.48963 0.32744 0.66133 0.0
H3125 H 0.46721 0.31646 0.70965 0.0
H3126 H 0.44146 0.36663 0.7092 0.0
H3127 H 0.46159 0.26541 0.69917 0.0
H3128 H 0.54483 0.3344 0.69376 0.0
H3129 H 0.57489 0.37738 0.68306 0.0
H3130 H 0.5802 0.33106 0.63934 0.0
H3131 H 0.54979 0.28798 0.64972 0.0
C3132 C 0.57302 0.15892 0.6984 0.0
C3133 C 0.57009 0.13904 0.68564 0.0
C3134 C 0.55819 0.1876 0.69844 0.0
C3135 C 0.54062 0.19725 0.6856 0.0
C3136 C 0.53802 0.17772 0.67273 0.0
C3137 C 0.55222 0.14867 0.67284 0.0
C3138 C 0.52495 0.22774 0.68564 0.0
C3139 C 0.53919 0.25262 0.67832 0.0
C3140 C 0.49716 0.23276 0.69364 0.0
C3141 C 0.48251 0.2079 0.7027 0.0
C3142 C 0.47351 0.18027 0.69559 0.0
C3143 C 0.4609 0.15653 0.70441 0.0
C3144 C 0.45671 0.16037 0.7203 0.0
C3145 C 0.46511 0.18792 0.72741 0.0
C3146 C 0.47796 0.21164 0.71867 0.0
C3147 C 0.46645 0.36525 0.67199 0.0
C3148 C 0.45233 0.37671 0.68533 0.0
C3149 C 0.48002 0.33595 0.67201 0.0
C3150 C 0.48127 0.31796 0.68562 0.0
C3151 C 0.46682 0.3295 0.69895 0.0
C3152 C 0.45217 0.35832 0.69874 0.0
C3153 C 0.49742 0.28726 0.68593 0.0
C3154 C 0.4835 0.2622 0.69347 0.0
C3155 C 0.52635 0.28239 0.67874 0.0
C3156 C 0.54479 0.30812 0.67247 0.0
C3157 C 0.55226 0.33347 0.68184 0.0
C3158 C 0.56936 0.35784 0.67583 0.0
C3159 C 0.57937 0.35699 0.66052 0.0
C3160 C 0.57238 0.33171 0.65119 0.0
C3161 C 0.55524 0.3073 0.65713 0.0
H3162 H 0.59261 0.37588 0.65589 0.0
H3163 H 0.44694 0.14201 0.7271 0.0
H3164 H 0.1147 0.32473 0.41666 0.0
H3165 H 0.06351 0.30182 0.41691 0.0
H3166 H 0.08054 0.26803 0.4633 0.0
H3167 H 0.13294 0.2887 0.46241 0.0
H3168 H 0.04982 0.2282 0.45071 0.0
H3169 H 0.03247 0.33693 0.45231 0.0
H3170 H 0.03675 0.39102 0.44392 0.0
H3171 H 0.99485 0.36857 0.40018 0.0
H3172 H 0.99065 0.31428 0.40824 0.0
H3173 H 0.87717 0.23037 0.461 0.0
H3174 H 0.92919 0.2528 0.46186 0.0
H3175 H 0.95042 0.20904 0.41856 0.0
H3176 H 0.89926 0.18554 0.41797 0.0
H3177 H 0.95998 0.28843 0.43144 0.0
H3178 H 0.98709 0.17485 0.43178 0.0
H3179 H 0.98086 0.12352 0.44354 0.0
H3180 H 1.00281 0.16057 0.48832 0.0
H3181 H 1.00822 0.21232 0.47683 0.0
C3182 C 0.10752 0.31221 0.42686 0.0
C3183 C 0.12772 0.30856 0.43954 0.0
C3184 C 0.07802 0.29941 0.4271 0.0
C3185 C 0.06735 0.28394 0.44033 0.0
C3186 C 0.08785 0.27991 0.45294 0.0
C3187 C 0.11785 0.29177 0.45247 0.0
C3188 C 0.03512 0.27166 0.44092 0.0
C3189 C 0.03034 0.2417 0.44658 0.0
C3190 C 1.00912 0.28891 0.43567 0.0
C3191 C 0.01147 0.32154 0.43084 0.0
C3192 C 0.02432 0.34352 0.44087 0.0
C3193 C 0.02671 0.37421 0.43618 0.0
C3194 C 0.01613 0.38321 0.42152 0.0
C3195 C 1.00306 0.36156 0.41153 0.0
C3196 C 1.00063 0.33085 0.41616 0.0
C3197 C 0.89296 0.22563 0.45167 0.0
C3198 C 0.88424 0.20609 0.43946 0.0
C3199 C 0.92265 0.23831 0.4522 0.0
C3200 C 0.94383 0.23205 0.44042 0.0
C3201 C 0.93471 0.21354 0.42795 0.0
C3202 C 0.90542 0.20027 0.4276 0.0
C3203 C 0.97534 0.24523 0.44089 0.0
C3204 C 0.97975 0.27529 0.43553 0.0
C3205 C 1.00087 0.22846 0.44671 0.0
C3206 C 0.99732 0.19748 0.45352 0.0
C3207 C 0.98996 0.17214 0.44417 0.0
C3208 C 0.98671 0.14296 0.45077 0.0
C3209 C 0.99124 0.13881 0.46668 0.0
C3210 C 0.99911 0.16384 0.47601 0.0
C3211 C 1.00218 0.1931 0.46947 0.0
H3212 H 0.98883 0.11618 0.47177 0.0
H3213 H 0.01802 0.40698 0.4179 0.0
H3214 H 0.01906 0.61907 0.18669 0.0
H3215 H 0.99375 0.66932 0.18749 0.0
H3216 H 0.08227 0.71367 0.19029 0.0
H3217 H 0.10785 0.66364 0.1896 0.0
H3218 H 0.04129 0.73716 0.21113 0.0
H3219 H 0.04208 0.71316 0.15659 0.0
H3220 H 0.03122 0.68054 0.1339 0.0
H3221 H 0.93449 0.68394 0.1437 0.0
H3222 H 0.94485 0.71623 0.16659 0.0
H3223 H 1.00291 0.89074 0.19111 0.0
H3224 H 0.02372 0.8386 0.19261 0.0
H3225 H 0.93205 0.80169 0.18791 0.0
H3226 H 0.91091 0.85402 0.18643 0.0
H3227 H 0.97167 0.77292 0.16885 0.0
H3228 H 0.96823 0.79765 0.22196 0.0
H3229 H 0.97635 0.8243 0.24678 0.0
H3230 H 0.07429 0.81623 0.24161 0.0
H3231 H 0.06679 0.79014 0.21656 0.0
C3232 C 0.03323 0.63946 0.18746 0.0
C3233 C 0.06558 0.63718 0.188 0.0
C3234 C 0.01867 0.66821 0.18786 0.0
C3235 C 0.03612 0.69528 0.18881 0.0
C3236 C 0.06835 0.69309 0.18953 0.0
C3237 C 0.08293 0.6644 0.18906 0.0
C3238 C 0.02088 0.72593 0.1891 0.0
C3239 C 0.02645 0.74524 0.20178 0.0
C3240 C 1.00053 0.73589 0.17721 0.0
C3241 C 0.99426 0.71686 0.16335 0.0
C3242 C 0.01852 0.70678 0.15396 0.0
C3243 C 0.01245 0.68837 0.14106 0.0
C3244 C 0.98219 0.68012 0.13738 0.0
C3245 C 0.95792 0.69032 0.14657 0.0
C3246 C 0.96387 0.7087 0.15949 0.0
C3247 C 0.9871 0.87157 0.19036 0.0
C3248 C 0.95522 0.87656 0.18853 0.0
C3249 C 0.99905 0.84174 0.19136 0.0
C3250 C 0.97945 0.8162 0.19046 0.0
C3251 C 0.9476 0.82106 0.18865 0.0
C3252 C 0.93555 0.85097 0.18784 0.0
C3253 C 0.99247 0.78452 0.1908 0.0
C3254 C 0.98652 0.76498 0.17823 0.0
C3255 C 0.01222 0.77421 0.2029 0.0
C3256 C 0.01693 0.79211 0.21731 0.0
C3257 C 0.99152 0.802 0.22598 0.0
C3258 C 0.99601 0.81683 0.24014 0.0
C3259 C 0.02581 0.82165 0.24585 0.0
C3260 C 0.05121 0.81218 0.23725 0.0
C3261 C 0.04686 0.79749 0.22304 0.0
H3262 H 0.02924 0.83305 0.25684 0.0
H3263 H 0.97753 0.66585 0.12739 0.0
loop_
_geom_bond_atom_site_label_1
_geom_bond_atom_site_label_2
_geom_bond_distance
_geom_bond_site_symmetry_2
_ccdc_geom_bond_type
O0 Tb1 2.292 . S
O0 C3 1.255 . S
Tb1 O0 2.292 . S
Tb1 O17 2.326 . S
Tb1 O19 2.500 . S
Tb1 O20 2.473 . S
Tb1 O23 2.324 . S
Eu2 O6 2.292 . S
Eu2 C7 2.852 . S
Eu2 O18 2.324 . S
Eu2 O22 2.326 . S
Eu2 O24 2.500 . S
Eu2 O25 2.473 . S
C3 O0 1.255 . S
C3 O4 1.247 . S
O4 C3 1.247 . S
C5 O17 1.242 . S
C5 O18 1.258 . S
O6 Eu2 2.292 . S
O6 C8 1.255 . S
C7 Eu2 2.852 . S
C7 C11 1.503 . S
C7 O24 1.273 . S
C7 O25 1.257 . S
C8 O6 1.255 . S
C8 O9 1.247 . S
O9 C8 1.247 . S
C10 O22 1.242 . S
C10 O23 1.258 . S
C11 C7 1.503 . S
C11 C12 1.379 . S
C11 C16 1.392 . S
C12 C11 1.379 . S
C12 C13 1.404 . S
C12 H26 0.929 . S
C13 C12 1.404 . S
C13 C14 1.389 . S
C14 C13 1.389 . S
C14 C15 1.399 . S
C14 H27 0.931 . S
C15 C14 1.399 . S
C15 C16 1.390 . S
C16 C11 1.392 . S
C16 C15 1.390 . S
C16 H28 0.929 . S
O17 Tb1 2.326 . S
O17 C5 1.242 . S
O18 Eu2 2.324 . S
O18 C5 1.258 . S
O19 Tb1 2.500 . S
O19 C21 1.273 . S
O20 Tb1 2.473 . S
O20 C21 1.257 . S
C21 O19 1.273 . S
C21 O20 1.257 . S
O22 Eu2 2.326 . S
O22 C10 1.242 . S
O23 Tb1 2.324 . S
O23 C10 1.258 . S
O24 Eu2 2.500 . S
O24 C7 1.273 . S
O25 Eu2 2.473 . S
O25 C7 1.257 . S
H26 C12 0.929 . S
H27 C14 0.931 . S
H28 C16 0.929 . S
O29 Tb30 2.292 . S
O29 C32 1.255 . S
Tb30 O29 2.292 . S
Tb30 O46 2.326 . S
Tb30 O48 2.500 . S
Tb30 O49 2.473 . S
Tb30 O52 2.324 . S
Eu31 O35 2.292 . S
Eu31 C36 2.852 . S
Eu31 O47 2.324 . S
Eu31 O51 2.326 . S
Eu31 O53 2.500 . S
Eu31 O54 2.473 . S
C32 O29 1.255 . S
C32 O33 1.247 . S
O33 C32 1.247 . S
C34 O46 1.242 . S
C34 O47 1.258 . S
O35 Eu31 2.292 . S
O35 C37 1.255 . S
C36 Eu31 2.852 . S
C36 C40 1.503 . S
C36 O53 1.273 . S
C36 O54 1.257 . S
C37 O35 1.255 . S
C37 O38 1.247 . S
O38 C37 1.247 . S
C39 O51 1.242 . S
C39 O52 1.258 . S
C40 C36 1.503 . S
C40 C41 1.379 . S
C40 C45 1.392 . S
C41 C40 1.379 . S
C41 C42 1.404 . S
C41 H55 0.929 . S
C42 C41 1.404 . S
C42 C43 1.389 . S
C43 C42 1.389 . S
C43 C44 1.399 . S
C43 H56 0.931 . S
C44 C43 1.399 . S
C44 C45 1.390 . S
C45 C40 1.392 . S
C45 C44 1.390 . S
C45 H57 0.929 . S
O46 Tb30 2.326 . S
O46 C34 1.242 . S
O47 Eu31 2.324 . S
O47 C34 1.258 . S
O48 Tb30 2.500 . S
O48 C50 1.273 . S
O49 Tb30 2.473 . S
O49 C50 1.257 . S
C50 O48 1.273 . S
C50 O49 1.257 . S
O51 Eu31 2.326 . S
O51 C39 1.242 . S
O52 Tb30 2.324 . S
O52 C39 1.258 . S
O53 Eu31 2.500 . S
O53 C36 1.273 . S
O54 Eu31 2.473 . S
O54 C36 1.257 . S
H55 C41 0.929 . S
H56 C43 0.931 . S
H57 C45 0.929 . S
O58 Tb59 2.292 . S
O58 C61 1.255 . S
Tb59 O58 2.292 . S
Tb59 O75 2.326 . S
Tb59 O77 2.500 . S
Tb59 O78 2.473 . S
Tb59 O81 2.324 . S
Eu60 O64 2.292 . S
Eu60 C65 2.852 . S
Eu60 O76 2.324 . S
Eu60 O80 2.326 . S
Eu60 O82 2.500 . S
Eu60 O83 2.473 . S
C61 O58 1.255 . S
C61 O62 1.247 . S
O62 C61 1.247 . S
C63 O75 1.242 . S
C63 O76 1.258 . S
O64 Eu60 2.292 . S
O64 C66 1.255 . S
C65 Eu60 2.852 . S
C65 C69 1.503 . S
C65 O82 1.273 . S
C65 O83 1.257 . S
C66 O64 1.255 . S
C66 O67 1.247 . S
O67 C66 1.247 . S
C68 O80 1.242 . S
C68 O81 1.258 . S
C69 C65 1.503 . S
C69 C70 1.379 . S
C69 C74 1.392 . S
C70 C69 1.379 . S
C70 C71 1.404 . S
C70 H84 0.929 . S
C71 C70 1.404 . S
C71 C72 1.389 . S
C72 C71 1.389 . S
C72 C73 1.399 . S
C72 H85 0.931 . S
C73 C72 1.399 . S
C73 C74 1.390 . S
C74 C69 1.392 . S
C74 C73 1.390 . S
C74 H86 0.929 . S
O75 Tb59 2.326 . S
O75 C63 1.242 . S
O76 Eu60 2.324 . S
O76 C63 1.258 . S
O77 Tb59 2.500 . S
O77 C79 1.273 . S
O78 Tb59 2.473 . S
O78 C79 1.257 . S
C79 O77 1.273 . S
C79 O78 1.257 . S
O80 Eu60 2.326 . S
O80 C68 1.242 . S
O81 Tb59 2.324 . S
O81 C68 1.258 . S
O82 Eu60 2.500 . S
O82 C65 1.273 . S
O83 Eu60 2.473 . S
O83 C65 1.257 . S
H84 C70 0.929 . S
H85 C72 0.931 . S
H86 C74 0.929 . S
O87 Tb88 2.292 . S
O87 C90 1.255 . S
Tb88 O87 2.292 . S
Tb88 O104 2.326 . S
Tb88 O106 2.500 . S
Tb88 O107 2.473 . S
Tb88 O110 2.324 . S
Eu89 O93 2.292 . S
Eu89 C94 2.852 . S
Eu89 O105 2.324 . S
Eu89 O109 2.326 . S
Eu89 O111 2.500 . S
Eu89 O112 2.473 . S
C90 O87 1.255 . S
C90 O91 1.247 . S
O91 C90 1.247 . S
C92 O104 1.242 . S
C92 O105 1.258 . S
O93 Eu89 2.292 . S
O93 C95 1.255 . S
C94 Eu89 2.852 . S
C94 C98 1.503 . S
C94 O111 1.273 . S
C94 O112 1.257 . S
C95 O93 1.255 . S
C95 O96 1.247 . S
O96 C95 1.247 . S
C97 O109 1.242 . S
C97 O110 1.258 . S
C98 C94 1.503 . S
C98 C99 1.379 . S
C98 C103 1.392 . S
C99 C98 1.379 . S
C99 C100 1.404 . S
C99 H113 0.929 . S
C100 C99 1.404 . S
C100 C101 1.389 . S
C101 C100 1.389 . S
C101 C102 1.399 . S
C101 H114 0.931 . S
C102 C101 1.399 . S
C102 C103 1.390 . S
C103 C98 1.392 . S
C103 C102 1.390 . S
C103 H115 0.929 . S
O104 Tb88 2.326 . S
O104 C92 1.242 . S
O105 Eu89 2.324 . S
O105 C92 1.258 . S
O106 Tb88 2.500 . S
O106 C108 1.273 . S
O107 Tb88 2.473 . S
O107 C108 1.257 . S
C108 O106 1.273 . S
C108 O107 1.257 . S
O109 Eu89 2.326 . S
O109 C97 1.242 . S
O110 Tb88 2.324 . S
O110 C97 1.258 . S
O111 Eu89 2.500 . S
O111 C94 1.273 . S
O112 Eu89 2.473 . S
O112 C94 1.257 . S
H113 C99 0.929 . S
H114 C101 0.931 . S
H115 C103 0.929 . S
O116 Tb117 2.292 . S
O116 C119 1.255 . S
Tb117 O116 2.292 . S
Tb117 O133 2.326 . S
Tb117 O135 2.500 . S
Tb117 O136 2.473 . S
Tb117 O139 2.324 . S
Eu118 O122 2.292 . S
Eu118 C123 2.852 . S
Eu118 O134 2.324 . S
Eu118 O138 2.326 . S
Eu118 O140 2.500 . S
Eu118 O141 2.473 . S
C119 O116 1.255 . S
C119 O120 1.247 . S
O120 C119 1.247 . S
C121 O133 1.242 . S
C121 O134 1.258 . S
O122 Eu118 2.292 . S
O122 C124 1.255 . S
C123 Eu118 2.852 . S
C123 C127 1.503 . S
C123 O140 1.273 . S
C123 O141 1.257 . S
C124 O122 1.255 . S
C124 O125 1.247 . S
O125 C124 1.247 . S
C126 O138 1.242 . S
C126 O139 1.258 . S
C127 C123 1.503 . S
C127 C128 1.379 . S
C127 C132 1.392 . S
C128 C127 1.379 . S
C128 C129 1.404 . S
C128 H142 0.929 . S
C129 C128 1.404 . S
C129 C130 1.389 . S
C130 C129 1.389 . S
C130 C131 1.399 . S
C130 H143 0.931 . S
C131 C130 1.399 . S
C131 C132 1.390 . S
C132 C127 1.392 . S
C132 C131 1.390 . S
C132 H144 0.929 . S
O133 Tb117 2.326 . S
O133 C121 1.242 . S
O134 Eu118 2.324 . S
O134 C121 1.258 . S
O135 Tb117 2.500 . S
O135 C137 1.273 . S
O136 Tb117 2.473 . S
O136 C137 1.257 . S
C137 O135 1.273 . S
C137 O136 1.257 . S
O138 Eu118 2.326 . S
O138 C126 1.242 . S
O139 Tb117 2.324 . S
O139 C126 1.258 . S
O140 Eu118 2.500 . S
O140 C123 1.273 . S
O141 Eu118 2.473 . S
O141 C123 1.257 . S
H142 C128 0.929 . S
H143 C130 0.931 . S
H144 C132 0.929 . S
O145 Tb146 2.292 . S
O145 C148 1.255 . S
Tb146 O145 2.292 . S
Tb146 O162 2.326 . S
Tb146 O164 2.500 . S
Tb146 O165 2.473 . S
Tb146 O168 2.324 . S
Eu147 O151 2.292 . S
Eu147 C152 2.852 . S
Eu147 O163 2.324 . S
Eu147 O167 2.326 . S
Eu147 O169 2.500 . S
Eu147 O170 2.473 . S
C148 O145 1.255 . S
C148 O149 1.247 . S
O149 C148 1.247 . S
C150 O162 1.242 . S
C150 O163 1.258 . S
O151 Eu147 2.292 . S
O151 C153 1.255 . S
C152 Eu147 2.852 . S
C152 C156 1.503 . S
C152 O169 1.273 . S
C152 O170 1.257 . S
C153 O151 1.255 . S
C153 O154 1.247 . S
O154 C153 1.247 . S
C155 O167 1.242 . S
C155 O168 1.258 . S
C156 C152 1.503 . S
C156 C157 1.379 . S
C156 C161 1.392 . S
C157 C156 1.379 . S
C157 C158 1.404 . S
C157 H171 0.929 . S
C158 C157 1.404 . S
C158 C159 1.389 . S
C159 C158 1.389 . S
C159 C160 1.399 . S
C159 H172 0.931 . S
C160 C159 1.399 . S
C160 C161 1.390 . S
C161 C156 1.392 . S
C161 C160 1.390 . S
C161 H173 0.929 . S
O162 Tb146 2.326 . S
O162 C150 1.242 . S
O163 Eu147 2.324 . S
O163 C150 1.258 . S
O164 Tb146 2.500 . S
O164 C166 1.273 . S
O165 Tb146 2.473 . S
O165 C166 1.257 . S
C166 O164 1.273 . S
C166 O165 1.257 . S
O167 Eu147 2.326 . S
O167 C155 1.242 . S
O168 Tb146 2.324 . S
O168 C155 1.258 . S
O169 Eu147 2.500 . S
O169 C152 1.273 . S
O170 Eu147 2.473 . S
O170 C152 1.257 . S
H171 C157 0.929 . S
H172 C159 0.931 . S
H173 C161 0.929 . S
O174 Tb175 2.292 . S
O174 C177 1.255 . S
Tb175 O174 2.292 . S
Tb175 O191 2.326 . S
Tb175 O193 2.500 . S
Tb175 O194 2.473 . S
Tb175 O197 2.324 . S
Eu176 O180 2.292 . S
Eu176 C181 2.852 . S
Eu176 O192 2.324 . S
Eu176 O196 2.326 . S
Eu176 O198 2.500 . S
Eu176 O199 2.473 . S
C177 O174 1.255 . S
C177 O178 1.247 . S
O178 C177 1.247 . S
C179 O191 1.242 . S
C179 O192 1.258 . S
O180 Eu176 2.292 . S
O180 C182 1.255 . S
C181 Eu176 2.852 . S
C181 C185 1.503 . S
C181 O198 1.273 . S
C181 O199 1.257 . S
C182 O180 1.255 . S
C182 O183 1.247 . S
O183 C182 1.247 . S
C184 O196 1.242 . S
C184 O197 1.258 . S
C185 C181 1.503 . S
C185 C186 1.379 . S
C185 C190 1.392 . S
C186 C185 1.379 . S
C186 C187 1.404 . S
C186 H200 0.929 . S
C187 C186 1.404 . S
C187 C188 1.389 . S
C188 C187 1.389 . S
C188 C189 1.399 . S
C188 H201 0.931 . S
C189 C188 1.399 . S
C189 C190 1.390 . S
C190 C185 1.392 . S
C190 C189 1.390 . S
C190 H202 0.929 . S
O191 Tb175 2.326 . S
O191 C179 1.242 . S
O192 Eu176 2.324 . S
O192 C179 1.258 . S
O193 Tb175 2.500 . S
O193 C195 1.273 . S
O194 Tb175 2.473 . S
O194 C195 1.257 . S
C195 O193 1.273 . S
C195 O194 1.257 . S
O196 Eu176 2.326 . S
O196 C184 1.242 . S
O197 Tb175 2.324 . S
O197 C184 1.258 . S
O198 Eu176 2.500 . S
O198 C181 1.273 . S
O199 Eu176 2.473 . S
O199 C181 1.257 . S
H200 C186 0.929 . S
H201 C188 0.931 . S
H202 C190 0.929 . S
O203 Tb204 2.292 . S
O203 C206 1.255 . S
Tb204 O203 2.292 . S
Tb204 O220 2.326 . S
Tb204 O222 2.500 . S
Tb204 O223 2.473 . S
Tb204 O226 2.324 . S
Eu205 O209 2.292 . S
Eu205 C210 2.852 . S
Eu205 O221 2.324 . S
Eu205 O225 2.326 . S
Eu205 O227 2.500 . S
Eu205 O228 2.473 . S
C206 O203 1.255 . S
C206 O207 1.247 . S
O207 C206 1.247 . S
C208 O220 1.242 . S
C208 O221 1.258 . S
O209 Eu205 2.292 . S
O209 C211 1.255 . S
C210 Eu205 2.852 . S
C210 C214 1.503 . S
C210 O227 1.273 . S
C210 O228 1.257 . S
C211 O209 1.255 . S
C211 O212 1.247 . S
O212 C211 1.247 . S
C213 O225 1.242 . S
C213 O226 1.258 . S
C214 C210 1.503 . S
C214 C215 1.379 . S
C214 C219 1.392 . S
C215 C214 1.379 . S
C215 C216 1.404 . S
C215 H229 0.929 . S
C216 C215 1.404 . S
C216 C217 1.389 . S
C217 C216 1.389 . S
C217 C218 1.399 . S
C217 H230 0.931 . S
C218 C217 1.399 . S
C218 C219 1.390 . S
C219 C214 1.392 . S
C219 C218 1.390 . S
C219 H231 0.929 . S
O220 Tb204 2.326 . S
O220 C208 1.242 . S
O221 Eu205 2.324 . S
O221 C208 1.258 . S
O222 Tb204 2.500 . S
O222 C224 1.273 . S
O223 Tb204 2.473 . S
O223 C224 1.257 . S
C224 O222 1.273 . S
C224 O223 1.257 . S
O225 Eu205 2.326 . S
O225 C213 1.242 . S
O226 Tb204 2.324 . S
O226 C213 1.258 . S
O227 Eu205 2.500 . S
O227 C210 1.273 . S
O228 Eu205 2.473 . S
O228 C210 1.257 . S
H229 C215 0.929 . S
H230 C217 0.931 . S
H231 C219 0.929 . S
O232 Tb233 2.292 . S
O232 C235 1.255 . S
Tb233 O232 2.292 . S
Tb233 O249 2.326 . S
Tb233 O251 2.500 . S
Tb233 O252 2.473 . S
Tb233 O255 2.324 . S
Eu234 O238 2.292 . S
Eu234 C239 2.852 . S
Eu234 O250 2.324 . S
Eu234 O254 2.326 . S
Eu234 O256 2.500 . S
Eu234 O257 2.473 . S
C235 O232 1.255 . S
C235 O236 1.247 . S
O236 C235 1.247 . S
C237 O249 1.242 . S
C237 O250 1.258 . S
O238 Eu234 2.292 . S
O238 C240 1.255 . S
C239 Eu234 2.852 . S
C239 C243 1.503 . S
C239 O256 1.273 . S
C239 O257 1.257 . S
C240 O238 1.255 . S
C240 O241 1.247 . S
O241 C240 1.247 . S
C242 O254 1.242 . S
C242 O255 1.258 . S
C243 C239 1.503 . S
C243 C244 1.379 . S
C243 C248 1.392 . S
C244 C243 1.379 . S
C244 C245 1.404 . S
C244 H258 0.929 . S
C245 C244 1.404 . S
C245 C246 1.389 . S
C246 C245 1.389 . S
C246 C247 1.399 . S
C246 H259 0.931 . S
C247 C246 1.399 . S
C247 C248 1.390 . S
C248 C243 1.392 . S
C248 C247 1.390 . S
C248 H260 0.929 . S
O249 Tb233 2.326 . S
O249 C237 1.242 . S
O250 Eu234 2.324 . S
O250 C237 1.258 . S
O251 Tb233 2.500 . S
O251 C253 1.273 . S
O252 Tb233 2.473 . S
O252 C253 1.257 . S
C253 O251 1.273 . S
C253 O252 1.257 . S
O254 Eu234 2.326 . S
O254 C242 1.242 . S
O255 Tb233 2.324 . S
O255 C242 1.258 . S
O256 Eu234 2.500 . S
O256 C239 1.273 . S
O257 Eu234 2.473 . S
O257 C239 1.257 . S
H258 C244 0.929 . S
H259 C246 0.931 . S
H260 C248 0.929 . S
O261 Tb262 2.292 . S
O261 C264 1.255 . S
Tb262 O261 2.292 . S
Tb262 O278 2.326 . S
Tb262 O280 2.500 . S
Tb262 O281 2.473 . S
Tb262 O284 2.324 1_545 S
Eu263 O267 2.292 . S
Eu263 C268 2.852 . S
Eu263 O279 2.324 . S
Eu263 O283 2.326 . S
Eu263 O285 2.500 . S
Eu263 O286 2.473 . S
C264 O261 1.255 . S
C264 O265 1.247 . S
O265 C264 1.247 . S
C266 O278 1.242 . S
C266 O279 1.258 . S
O267 Eu263 2.292 . S
O267 C269 1.255 . S
C268 Eu263 2.852 . S
C268 C272 1.503 . S
C268 O285 1.273 . S
C268 O286 1.257 . S
C269 O267 1.255 . S
C269 O270 1.247 . S
O270 C269 1.247 . S
C271 O283 1.242 1_565 S
C271 O284 1.258 . S
C272 C268 1.503 . S
C272 C273 1.379 . S
C272 C277 1.392 . S
C273 C272 1.379 . S
C273 C274 1.404 . S
C273 H287 0.929 . S
C274 C273 1.404 . S
C274 C275 1.389 . S
C275 C274 1.389 . S
C275 C276 1.399 . S
C275 H288 0.931 . S
C276 C275 1.399 . S
C276 C277 1.390 . S
C277 C272 1.392 . S
C277 C276 1.390 . S
C277 H289 0.929 . S
O278 Tb262 2.326 . S
O278 C266 1.242 . S
O279 Eu263 2.324 . S
O279 C266 1.258 . S
O280 Tb262 2.500 . S
O280 C282 1.273 . S
O281 Tb262 2.473 . S
O281 C282 1.257 . S
C282 O280 1.273 . S
C282 O281 1.257 . S
O283 Eu263 2.326 . S
O283 C271 1.242 1_545 S
O284 Tb262 2.324 1_565 S
O284 C271 1.258 . S
O285 Eu263 2.500 . S
O285 C268 1.273 . S
O286 Eu263 2.473 . S
O286 C268 1.257 . S
H287 C273 0.929 . S
H288 C275 0.931 . S
H289 C277 0.929 . S
O290 Tb291 2.292 . S
O290 C293 1.255 . S
Tb291 O290 2.292 . S
Tb291 O307 2.326 . S
Tb291 O309 2.500 . S
Tb291 O310 2.473 . S
Tb291 O313 2.324 . S
Eu292 O296 2.292 . S
Eu292 C297 2.852 . S
Eu292 O308 2.324 . S
Eu292 O312 2.326 . S
Eu292 O314 2.500 . S
Eu292 O315 2.473 . S
C293 O290 1.255 . S
C293 O294 1.247 . S
O294 C293 1.247 . S
C295 O307 1.242 . S
C295 O308 1.258 . S
O296 Eu292 2.292 . S
O296 C298 1.255 . S
C297 Eu292 2.852 . S
C297 C301 1.503 . S
C297 O314 1.273 . S
C297 O315 1.257 . S
C298 O296 1.255 . S
C298 O299 1.247 . S
O299 C298 1.247 . S
C300 O312 1.242 . S
C300 O313 1.258 . S
C301 C297 1.503 . S
C301 C302 1.379 . S
C301 C306 1.392 . S
C302 C301 1.379 . S
C302 C303 1.404 . S
C302 H316 0.929 . S
C303 C302 1.404 . S
C303 C304 1.389 . S
C304 C303 1.389 . S
C304 C305 1.399 . S
C304 H317 0.931 . S
C305 C304 1.399 . S
C305 C306 1.390 . S
C306 C301 1.392 . S
C306 C305 1.390 . S
C306 H318 0.929 . S
O307 Tb291 2.326 . S
O307 C295 1.242 . S
O308 Eu292 2.324 . S
O308 C295 1.258 . S
O309 Tb291 2.500 . S
O309 C311 1.273 . S
O310 Tb291 2.473 . S
O310 C311 1.257 . S
C311 O309 1.273 . S
C311 O310 1.257 . S
O312 Eu292 2.326 . S
O312 C300 1.242 . S
O313 Tb291 2.324 . S
O313 C300 1.258 . S
O314 Eu292 2.500 . S
O314 C297 1.273 . S
O315 Eu292 2.473 . S
O315 C297 1.257 . S
H316 C302 0.929 . S
H317 C304 0.931 . S
H318 C306 0.929 . S
O319 Tb320 2.292 . S
O319 C322 1.255 . S
Tb320 O319 2.292 . S
Tb320 O336 2.326 . S
Tb320 O338 2.500 . S
Tb320 O339 2.473 . S
Tb320 O342 2.324 1_565 S
Eu321 O325 2.292 . S
Eu321 C326 2.852 . S
Eu321 O337 2.324 . S
Eu321 O341 2.326 . S
Eu321 O343 2.500 . S
Eu321 O344 2.473 . S
C322 O319 1.255 . S
C322 O323 1.247 . S
O323 C322 1.247 . S
C324 O336 1.242 . S
C324 O337 1.258 . S
O325 Eu321 2.292 . S
O325 C327 1.255 . S
C326 Eu321 2.852 . S
C326 C330 1.503 . S
C326 O343 1.273 . S
C326 O344 1.257 . S
C327 O325 1.255 . S
C327 O328 1.247 . S
O328 C327 1.247 . S
C329 O341 1.242 1_545 S
C329 O342 1.258 . S
C330 C326 1.503 . S
C330 C331 1.379 . S
C330 C335 1.392 . S
C331 C330 1.379 . S
C331 C332 1.404 . S
C331 H345 0.929 . S
C332 C331 1.404 . S
C332 C333 1.389 . S
C333 C332 1.389 . S
C333 C334 1.399 . S
C333 H346 0.931 . S
C334 C333 1.399 . S
C334 C335 1.390 . S
C335 C330 1.392 . S
C335 C334 1.390 . S
C335 H347 0.929 . S
O336 Tb320 2.326 . S
O336 C324 1.242 . S
O337 Eu321 2.324 . S
O337 C324 1.258 . S
O338 Tb320 2.500 . S
O338 C340 1.273 . S
O339 Tb320 2.473 . S
O339 C340 1.257 . S
C340 O338 1.273 . S
C340 O339 1.257 . S
O341 Eu321 2.326 . S
O341 C329 1.242 1_565 S
O342 Tb320 2.324 1_545 S
O342 C329 1.258 . S
O343 Eu321 2.500 . S
O343 C326 1.273 . S
O344 Eu321 2.473 . S
O344 C326 1.257 . S
H345 C331 0.929 . S
H346 C333 0.931 . S
H347 C335 0.929 . S
O348 Tb349 2.292 . S
O348 C351 1.255 . S
Tb349 O348 2.292 . S
Tb349 O365 2.326 . S
Tb349 O367 2.500 . S
Tb349 O368 2.473 . S
Tb349 O371 2.324 . S
Eu350 O354 2.292 . S
Eu350 C355 2.852 . S
Eu350 O366 2.324 . S
Eu350 O370 2.326 . S
Eu350 O372 2.500 . S
Eu350 O373 2.473 . S
C351 O348 1.255 . S
C351 O352 1.247 . S
O352 C351 1.247 . S
C353 O365 1.242 . S
C353 O366 1.258 . S
O354 Eu350 2.292 . S
O354 C356 1.255 . S
C355 Eu350 2.852 . S
C355 C359 1.503 . S
C355 O372 1.273 . S
C355 O373 1.257 . S
C356 O354 1.255 . S
C356 O357 1.247 . S
O357 C356 1.247 . S
C358 O370 1.242 . S
C358 O371 1.258 . S
C359 C355 1.503 . S
C359 C360 1.379 . S
C359 C364 1.392 . S
C360 C359 1.379 . S
C360 C361 1.404 . S
C360 H374 0.929 . S
C361 C360 1.404 . S
C361 C362 1.389 . S
C362 C361 1.389 . S
C362 C363 1.399 . S
C362 H375 0.931 . S
C363 C362 1.399 . S
C363 C364 1.390 . S
C364 C359 1.392 . S
C364 C363 1.390 . S
C364 H376 0.929 . S
O365 Tb349 2.326 . S
O365 C353 1.242 . S
O366 Eu350 2.324 . S
O366 C353 1.258 . S
O367 Tb349 2.500 . S
O367 C369 1.273 . S
O368 Tb349 2.473 . S
O368 C369 1.257 . S
C369 O367 1.273 . S
C369 O368 1.257 . S
O370 Eu350 2.326 . S
O370 C358 1.242 . S
O371 Tb349 2.324 . S
O371 C358 1.258 . S
O372 Eu350 2.500 . S
O372 C355 1.273 . S
O373 Eu350 2.473 . S
O373 C355 1.257 . S
H374 C360 0.929 . S
H375 C362 0.931 . S
H376 C364 0.929 . S
O377 Tb378 2.292 . S
O377 C380 1.255 . S
Tb378 O377 2.292 . S
Tb378 O394 2.326 . S
Tb378 O396 2.500 . S
Tb378 O397 2.473 . S
Tb378 O400 2.324 1_565 S
Eu379 O383 2.292 . S
Eu379 C384 2.852 . S
Eu379 O395 2.324 . S
Eu379 O399 2.326 . S
Eu379 O401 2.500 . S
Eu379 O402 2.473 . S
C380 O377 1.255 . S
C380 O381 1.247 . S
O381 C380 1.247 . S
C382 O394 1.242 . S
C382 O395 1.258 . S
O383 Eu379 2.292 . S
O383 C385 1.255 . S
C384 Eu379 2.852 . S
C384 C388 1.503 . S
C384 O401 1.273 . S
C384 O402 1.257 . S
C385 O383 1.255 . S
C385 O386 1.247 . S
O386 C385 1.247 . S
C387 O399 1.242 1_545 S
C387 O400 1.258 . S
C388 C384 1.503 . S
C388 C389 1.379 . S
C388 C393 1.392 . S
C389 C388 1.379 . S
C389 C390 1.404 . S
C389 H403 0.929 . S
C390 C389 1.404 . S
C390 C391 1.389 . S
C391 C390 1.389 . S
C391 C392 1.399 . S
C391 H404 0.931 . S
C392 C391 1.399 . S
C392 C393 1.390 . S
C393 C388 1.392 . S
C393 C392 1.390 . S
C393 H405 0.929 . S
O394 Tb378 2.326 . S
O394 C382 1.242 . S
O395 Eu379 2.324 . S
O395 C382 1.258 . S
O396 Tb378 2.500 . S
O396 C398 1.273 . S
O397 Tb378 2.473 . S
O397 C398 1.257 . S
C398 O396 1.273 . S
C398 O397 1.257 . S
O399 Eu379 2.326 . S
O399 C387 1.242 1_565 S
O400 Tb378 2.324 1_545 S
O400 C387 1.258 . S
O401 Eu379 2.500 . S
O401 C384 1.273 . S
O402 Eu379 2.473 . S
O402 C384 1.257 . S
H403 C389 0.929 . S
H404 C391 0.931 . S
H405 C393 0.929 . S
O406 Tb407 2.292 . S
O406 C409 1.255 . S
Tb407 O406 2.292 . S
Tb407 O423 2.326 . S
Tb407 O425 2.500 . S
Tb407 O426 2.473 . S
Tb407 O429 2.324 . S
Eu408 O412 2.292 . S
Eu408 C413 2.852 . S
Eu408 O424 2.324 . S
Eu408 O428 2.326 . S
Eu408 O430 2.500 . S
Eu408 O431 2.473 . S
C409 O406 1.255 . S
C409 O410 1.247 . S
O410 C409 1.247 . S
C411 O423 1.242 . S
C411 O424 1.258 . S
O412 Eu408 2.292 . S
O412 C414 1.255 . S
C413 Eu408 2.852 . S
C413 C417 1.503 . S
C413 O430 1.273 . S
C413 O431 1.257 . S
C414 O412 1.255 . S
C414 O415 1.247 . S
O415 C414 1.247 . S
C416 O428 1.242 . S
C416 O429 1.258 . S
C417 C413 1.503 . S
C417 C418 1.379 . S
C417 C422 1.392 . S
C418 C417 1.379 . S
C418 C419 1.404 . S
C418 H432 0.929 . S
C419 C418 1.404 . S
C419 C420 1.389 . S
C420 C419 1.389 . S
C420 C421 1.399 . S
C420 H433 0.931 . S
C421 C420 1.399 . S
C421 C422 1.390 . S
C422 C417 1.392 . S
C422 C421 1.390 . S
C422 H434 0.929 . S
O423 Tb407 2.326 . S
O423 C411 1.242 . S
O424 Eu408 2.324 . S
O424 C411 1.258 . S
O425 Tb407 2.500 . S
O425 C427 1.273 . S
O426 Tb407 2.473 . S
O426 C427 1.257 . S
C427 O425 1.273 . S
C427 O426 1.257 . S
O428 Eu408 2.326 . S
O428 C416 1.242 . S
O429 Tb407 2.324 . S
O429 C416 1.258 . S
O430 Eu408 2.500 . S
O430 C413 1.273 . S
O431 Eu408 2.473 . S
O431 C413 1.257 . S
H432 C418 0.929 . S
H433 C420 0.931 . S
H434 C422 0.929 . S
O435 Tb436 2.292 . S
O435 C438 1.255 . S
Tb436 O435 2.292 . S
Tb436 O452 2.326 . S
Tb436 O454 2.500 . S
Tb436 O455 2.473 . S
Tb436 O458 2.324 1_545 S
Eu437 O441 2.292 . S
Eu437 C442 2.852 . S
Eu437 O453 2.324 . S
Eu437 O457 2.326 . S
Eu437 O459 2.500 . S
Eu437 O460 2.473 . S
C438 O435 1.255 . S
C438 O439 1.247 . S
O439 C438 1.247 . S
C440 O452 1.242 . S
C440 O453 1.258 . S
O441 Eu437 2.292 . S
O441 C443 1.255 . S
C442 Eu437 2.852 . S
C442 C446 1.503 . S
C442 O459 1.273 . S
C442 O460 1.257 . S
C443 O441 1.255 . S
C443 O444 1.247 . S
O444 C443 1.247 . S
C445 O457 1.242 1_565 S
C445 O458 1.258 . S
C446 C442 1.503 . S
C446 C447 1.379 . S
C446 C451 1.392 . S
C447 C446 1.379 . S
C447 C448 1.404 . S
C447 H461 0.929 . S
C448 C447 1.404 . S
C448 C449 1.389 . S
C449 C448 1.389 . S
C449 C450 1.399 . S
C449 H462 0.931 . S
C450 C449 1.399 . S
C450 C451 1.390 . S
C451 C446 1.392 . S
C451 C450 1.390 . S
C451 H463 0.929 . S
O452 Tb436 2.326 . S
O452 C440 1.242 . S
O453 Eu437 2.324 . S
O453 C440 1.258 . S
O454 Tb436 2.500 . S
O454 C456 1.273 . S
O455 Tb436 2.473 . S
O455 C456 1.257 . S
C456 O454 1.273 . S
C456 O455 1.257 . S
O457 Eu437 2.326 . S
O457 C445 1.242 1_545 S
O458 Tb436 2.324 1_565 S
O458 C445 1.258 . S
O459 Eu437 2.500 . S
O459 C442 1.273 . S
O460 Eu437 2.473 . S
O460 C442 1.257 . S
H461 C447 0.929 . S
H462 C449 0.931 . S
H463 C451 0.929 . S
H464 C482 0.951 . S
H465 C484 0.951 . S
H466 C486 0.950 . S
H467 C487 0.950 . S
H468 C489 0.950 . S
H469 C492 0.950 . S
H470 C493 0.950 . S
H471 C495 0.950 . S
H472 C496 0.950 . S
H473 C497 0.951 . S
H474 C499 0.951 . S
H475 C501 0.950 . S
H476 C502 0.950 . S
H477 C504 0.950 . S
H478 C507 0.950 . S
H479 C508 0.950 . S
H480 C510 0.950 . S
H481 C511 0.950 . S
C482 H464 0.951 . S
C482 C483 1.366 . S
C482 C484 1.388 . S
C483 C482 1.366 . S
C483 C487 1.385 . S
C484 H465 0.951 . S
C484 C482 1.388 . S
C484 C485 1.366 . S
C485 C484 1.366 . S
C485 C486 1.414 . S
C485 C488 1.499 . S
C486 H466 0.950 . S
C486 C485 1.414 . S
C486 C487 1.374 . S
C487 H467 0.950 . S
C487 C483 1.385 . S
C487 C486 1.374 . S
C488 C485 1.499 . S
C488 C489 1.373 . S
C488 C490 1.389 . S
C489 H468 0.950 . S
C489 C488 1.373 . S
C489 C505 1.377 . S
C490 C488 1.389 . S
C490 C491 1.524 . S
C490 C504 1.377 . S
C491 C490 1.524 . S
C491 C492 1.397 . S
C491 C496 1.363 . S
C492 H469 0.950 . S
C492 C491 1.397 . S
C492 C493 1.334 . S
C493 H470 0.950 . S
C493 C492 1.334 . S
C493 C494 1.287 . S
C494 C493 1.287 . S
C494 C495 1.524 . S
C494 H513 0.913 . S
C495 H471 0.950 . S
C495 C494 1.524 . S
C495 C496 1.415 . S
C496 H472 0.950 . S
C496 C491 1.363 . S
C496 C495 1.415 . S
C497 H473 0.951 . S
C497 C498 1.366 . S
C497 C499 1.388 . S
C498 C497 1.366 . S
C498 C502 1.385 . S
C499 H474 0.951 . S
C499 C497 1.388 . S
C499 C500 1.366 . S
C500 C499 1.366 . S
C500 C501 1.414 . S
C500 C503 1.499 . S
C501 H475 0.950 . S
C501 C500 1.414 . S
C501 C502 1.374 . S
C502 H476 0.950 . S
C502 C498 1.385 . S
C502 C501 1.374 . S
C503 C500 1.499 . S
C503 C504 1.373 . S
C503 C505 1.389 . S
C504 H477 0.950 . S
C504 C490 1.377 . S
C504 C503 1.373 . S
C505 C489 1.377 . S
C505 C503 1.389 . S
C505 C506 1.524 . S
C506 C505 1.524 . S
C506 C507 1.397 . S
C506 C511 1.363 . S
C507 H478 0.950 . S
C507 C506 1.397 . S
C507 C508 1.334 . S
C508 H479 0.950 . S
C508 C507 1.334 . S
C508 C509 1.287 . S
C509 C508 1.287 . S
C509 C510 1.524 . S
C509 H512 0.999 . S
C510 H480 0.950 . S
C510 C509 1.524 . S
C510 C511 1.415 . S
C511 H481 0.950 . S
C511 C506 1.363 . S
C511 C510 1.415 . S
H512 C509 0.999 . S
H513 C494 0.913 . S
H514 C532 0.951 . S
H515 C534 0.951 . S
H516 C536 0.950 . S
H517 C537 0.950 . S
H518 C539 0.950 . S
H519 C542 0.950 . S
H520 C543 0.950 . S
H521 C545 0.950 . S
H522 C546 0.950 . S
H523 C547 0.951 . S
H524 C549 0.951 . S
H525 C551 0.950 . S
H526 C552 0.950 . S
H527 C554 0.950 . S
H528 C557 0.950 . S
H529 C558 0.950 . S
H530 C560 0.950 . S
H531 C561 0.950 . S
C532 H514 0.951 . S
C532 C533 1.366 . S
C532 C534 1.388 . S
C533 C532 1.366 . S
C533 C537 1.385 . S
C534 H515 0.951 . S
C534 C532 1.388 . S
C534 C535 1.366 . S
C535 C534 1.366 . S
C535 C536 1.414 . S
C535 C538 1.499 . S
C536 H516 0.950 . S
C536 C535 1.414 . S
C536 C537 1.374 . S
C537 H517 0.950 . S
C537 C533 1.385 . S
C537 C536 1.374 . S
C538 C535 1.499 . S
C538 C539 1.373 . S
C538 C540 1.389 . S
C539 H518 0.950 . S
C539 C538 1.373 . S
C539 C555 1.377 . S
C540 C538 1.389 . S
C540 C541 1.524 . S
C540 C554 1.377 . S
C541 C540 1.524 . S
C541 C542 1.397 . S
C541 C546 1.363 . S
C542 H519 0.950 . S
C542 C541 1.397 . S
C542 C543 1.334 . S
C543 H520 0.950 . S
C543 C542 1.334 . S
C543 C544 1.287 . S
C544 C543 1.287 . S
C544 C545 1.524 . S
C544 H563 0.913 . S
C545 H521 0.950 . S
C545 C544 1.524 . S
C545 C546 1.415 . S
C546 H522 0.950 . S
C546 C541 1.363 . S
C546 C545 1.415 . S
C547 H523 0.951 . S
C547 C548 1.366 . S
C547 C549 1.388 . S
C548 C547 1.366 . S
C548 C552 1.385 . S
C549 H524 0.951 . S
C549 C547 1.388 . S
C549 C550 1.366 . S
C550 C549 1.366 . S
C550 C551 1.414 . S
C550 C553 1.499 . S
C551 H525 0.950 . S
C551 C550 1.414 . S
C551 C552 1.374 . S
C552 H526 0.950 . S
C552 C548 1.385 . S
C552 C551 1.374 . S
C553 C550 1.499 . S
C553 C554 1.373 . S
C553 C555 1.389 . S
C554 H527 0.950 . S
C554 C540 1.377 . S
C554 C553 1.373 . S
C555 C539 1.377 . S
C555 C553 1.389 . S
C555 C556 1.524 . S
C556 C555 1.524 . S
C556 C557 1.397 . S
C556 C561 1.363 . S
C557 H528 0.950 . S
C557 C556 1.397 . S
C557 C558 1.334 . S
C558 H529 0.950 . S
C558 C557 1.334 . S
C558 C559 1.287 . S
C559 C558 1.287 . S
C559 C560 1.524 . S
C559 H562 0.999 . S
C560 H530 0.950 . S
C560 C559 1.524 . S
C560 C561 1.415 . S
C561 H531 0.950 . S
C561 C556 1.363 . S
C561 C560 1.415 . S
H562 C559 0.999 . S
H563 C544 0.913 . S
H564 C582 0.951 . S
H565 C584 0.951 . S
H566 C586 0.950 . S
H567 C587 0.950 . S
H568 C589 0.950 . S
H569 C592 0.950 . S
H570 C593 0.950 . S
H571 C595 0.950 . S
H572 C596 0.950 . S
H573 C597 0.951 . S
H574 C599 0.951 . S
H575 C601 0.950 . S
H576 C602 0.950 . S
H577 C604 0.950 . S
H578 C607 0.950 . S
H579 C608 0.950 . S
H580 C610 0.950 . S
H581 C611 0.950 . S
C582 H564 0.951 . S
C582 C583 1.366 . S
C582 C584 1.388 . S
C583 C582 1.366 . S
C583 C587 1.385 . S
C584 H565 0.951 . S
C584 C582 1.388 . S
C584 C585 1.366 . S
C585 C584 1.366 . S
C585 C586 1.414 . S
C585 C588 1.499 . S
C586 H566 0.950 . S
C586 C585 1.414 . S
C586 C587 1.374 . S
C587 H567 0.950 . S
C587 C583 1.385 . S
C587 C586 1.374 . S
C588 C585 1.499 . S
C588 C589 1.373 . S
C588 C590 1.389 . S
C589 H568 0.950 . S
C589 C588 1.373 . S
C589 C605 1.377 . S
C590 C588 1.389 . S
C590 C591 1.524 . S
C590 C604 1.377 . S
C591 C590 1.524 . S
C591 C592 1.397 . S
C591 C596 1.363 . S
C592 H569 0.950 . S
C592 C591 1.397 . S
C592 C593 1.334 . S
C593 H570 0.950 . S
C593 C592 1.334 . S
C593 C594 1.287 . S
C594 C593 1.287 . S
C594 C595 1.524 . S
C594 H613 0.913 . S
C595 H571 0.950 . S
C595 C594 1.524 . S
C595 C596 1.415 . S
C596 H572 0.950 . S
C596 C591 1.363 . S
C596 C595 1.415 . S
C597 H573 0.951 . S
C597 C598 1.366 . S
C597 C599 1.388 . S
C598 C597 1.366 . S
C598 C602 1.385 . S
C599 H574 0.951 . S
C599 C597 1.388 . S
C599 C600 1.366 . S
C600 C599 1.366 . S
C600 C601 1.414 . S
C600 C603 1.499 . S
C601 H575 0.950 . S
C601 C600 1.414 . S
C601 C602 1.374 . S
C602 H576 0.950 . S
C602 C598 1.385 . S
C602 C601 1.374 . S
C603 C600 1.499 . S
C603 C604 1.373 . S
C603 C605 1.389 . S
C604 H577 0.950 . S
C604 C590 1.377 . S
C604 C603 1.373 . S
C605 C589 1.377 . S
C605 C603 1.389 . S
C605 C606 1.524 . S
C606 C605 1.524 . S
C606 C607 1.397 . S
C606 C611 1.363 . S
C607 H578 0.950 . S
C607 C606 1.397 . S
C607 C608 1.334 . S
C608 H579 0.950 . S
C608 C607 1.334 . S
C608 C609 1.287 . S
C609 C608 1.287 . S
C609 C610 1.524 . S
C609 H612 0.999 . S
C610 H580 0.950 . S
C610 C609 1.524 . S
C610 C611 1.415 . S
C611 H581 0.950 . S
C611 C606 1.363 . S
C611 C610 1.415 . S
H612 C609 0.999 . S
H613 C594 0.913 . S
H614 C632 0.951 . S
H615 C634 0.951 . S
H616 C636 0.950 . S
H617 C637 0.950 . S
H618 C639 0.950 . S
H619 C642 0.950 . S
H620 C643 0.950 . S
H621 C645 0.950 . S
H622 C646 0.950 . S
H623 C647 0.951 1_655 S
H624 C649 0.951 . S
H625 C651 0.950 . S
H626 C652 0.950 . S
H627 C654 0.950 . S
H628 C657 0.950 . S
H629 C658 0.950 . S
H630 C660 0.950 . S
H631 C661 0.950 . S
C632 H614 0.951 . S
C632 C633 1.366 . S
C632 C634 1.388 . S
C633 C632 1.366 . S
C633 C637 1.385 . S
C634 H615 0.951 . S
C634 C632 1.388 . S
C634 C635 1.366 . S
C635 C634 1.366 . S
C635 C636 1.414 . S
C635 C638 1.499 . S
C636 H616 0.950 . S
C636 C635 1.414 . S
C636 C637 1.374 . S
C637 H617 0.950 . S
C637 C633 1.385 . S
C637 C636 1.374 . S
C638 C635 1.499 . S
C638 C639 1.373 . S
C638 C640 1.389 . S
C639 H618 0.950 . S
C639 C638 1.373 . S
C639 C655 1.377 . S
C640 C638 1.389 . S
C640 C641 1.524 . S
C640 C654 1.377 . S
C641 C640 1.524 . S
C641 C642 1.397 . S
C641 C646 1.363 . S
C642 H619 0.950 . S
C642 C641 1.397 . S
C642 C643 1.334 . S
C643 H620 0.950 . S
C643 C642 1.334 . S
C643 C644 1.287 . S
C644 C643 1.287 . S
C644 C645 1.524 . S
C644 H663 0.913 . S
C645 H621 0.950 . S
C645 C644 1.524 . S
C645 C646 1.415 . S
C646 H622 0.950 . S
C646 C641 1.363 . S
C646 C645 1.415 . S
C647 H623 0.951 1_455 S
C647 C648 1.366 . S
C647 C649 1.388 . S
C648 C647 1.366 . S
C648 C652 1.385 . S
C649 H624 0.951 . S
C649 C647 1.388 . S
C649 C650 1.366 . S
C650 C649 1.366 . S
C650 C651 1.414 . S
C650 C653 1.499 . S
C651 H625 0.950 . S
C651 C650 1.414 . S
C651 C652 1.374 . S
C652 H626 0.950 . S
C652 C648 1.385 . S
C652 C651 1.374 . S
C653 C650 1.499 . S
C653 C654 1.373 . S
C653 C655 1.389 . S
C654 H627 0.950 . S
C654 C640 1.377 . S
C654 C653 1.373 . S
C655 C639 1.377 . S
C655 C653 1.389 . S
C655 C656 1.524 . S
C656 C655 1.524 . S
C656 C657 1.397 . S
C656 C661 1.363 . S
C657 H628 0.950 . S
C657 C656 1.397 . S
C657 C658 1.334 . S
C658 H629 0.950 . S
C658 C657 1.334 . S
C658 C659 1.287 . S
C659 C658 1.287 . S
C659 C660 1.524 . S
C659 H662 0.999 . S
C660 H630 0.950 . S
C660 C659 1.524 . S
C660 C661 1.415 . S
C661 H631 0.950 . S
C661 C656 1.363 . S
C661 C660 1.415 . S
H662 C659 0.999 . S
H663 C644 0.913 . S
H664 C682 0.951 . S
H665 C684 0.951 . S
H666 C686 0.950 . S
H667 C687 0.950 . S
H668 C689 0.950 . S
H669 C692 0.950 . S
H670 C693 0.950 . S
H671 C695 0.950 . S
H672 C696 0.950 . S
H673 C697 0.951 . S
H674 C699 0.951 . S
H675 C701 0.950 . S
H676 C702 0.950 . S
H677 C704 0.950 . S
H678 C707 0.950 . S
H679 C708 0.950 . S
H680 C710 0.950 . S
H681 C711 0.950 . S
C682 H664 0.951 . S
C682 C683 1.366 . S
C682 C684 1.388 . S
C683 C682 1.366 . S
C683 C687 1.385 . S
C684 H665 0.951 . S
C684 C682 1.388 . S
C684 C685 1.366 . S
C685 C684 1.366 . S
C685 C686 1.414 . S
C685 C688 1.499 . S
C686 H666 0.950 . S
C686 C685 1.414 . S
C686 C687 1.374 . S
C687 H667 0.950 . S
C687 C683 1.385 . S
C687 C686 1.374 . S
C688 C685 1.499 . S
C688 C689 1.373 . S
C688 C690 1.389 . S
C689 H668 0.950 . S
C689 C688 1.373 . S
C689 C705 1.377 . S
C690 C688 1.389 . S
C690 C691 1.524 . S
C690 C704 1.377 . S
C691 C690 1.524 . S
C691 C692 1.397 . S
C691 C696 1.363 . S
C692 H669 0.950 . S
C692 C691 1.397 . S
C692 C693 1.334 . S
C693 H670 0.950 . S
C693 C692 1.334 . S
C693 C694 1.287 . S
C694 C693 1.287 . S
C694 C695 1.524 . S
C694 H713 0.913 . S
C695 H671 0.950 . S
C695 C694 1.524 . S
C695 C696 1.415 . S
C696 H672 0.950 . S
C696 C691 1.363 . S
C696 C695 1.415 . S
C697 H673 0.951 . S
C697 C698 1.366 . S
C697 C699 1.388 . S
C698 C697 1.366 . S
C698 C702 1.385 . S
C699 H674 0.951 . S
C699 C697 1.388 . S
C699 C700 1.366 . S
C700 C699 1.366 . S
C700 C701 1.414 . S
C700 C703 1.499 . S
C701 H675 0.950 . S
C701 C700 1.414 . S
C701 C702 1.374 . S
C702 H676 0.950 . S
C702 C698 1.385 . S
C702 C701 1.374 . S
C703 C700 1.499 . S
C703 C704 1.373 . S
C703 C705 1.389 . S
C704 H677 0.950 . S
C704 C690 1.377 . S
C704 C703 1.373 . S
C705 C689 1.377 . S
C705 C703 1.389 . S
C705 C706 1.524 . S
C706 C705 1.524 . S
C706 C707 1.397 . S
C706 C711 1.363 . S
C707 H678 0.950 . S
C707 C706 1.397 . S
C707 C708 1.334 . S
C708 H679 0.950 . S
C708 C707 1.334 . S
C708 C709 1.287 . S
C709 C708 1.287 . S
C709 C710 1.524 . S
C709 H712 0.999 . S
C710 H680 0.950 . S
C710 C709 1.524 . S
C710 C711 1.415 . S
C711 H681 0.950 . S
C711 C706 1.363 . S
C711 C710 1.415 . S
H712 C709 0.999 . S
H713 C694 0.913 . S
H714 C732 0.951 . S
H715 C734 0.951 . S
H716 C736 0.950 . S
H717 C737 0.950 . S
H718 C739 0.950 . S
H719 C742 0.950 . S
H720 C743 0.950 . S
H721 C745 0.950 . S
H722 C746 0.950 . S
H723 C747 0.951 . S
H724 C749 0.951 . S
H725 C751 0.950 . S
H726 C752 0.950 . S
H727 C754 0.950 . S
H728 C757 0.950 . S
H729 C758 0.950 . S
H730 C760 0.950 . S
H731 C761 0.950 . S
C732 H714 0.951 . S
C732 C733 1.366 . S
C732 C734 1.388 . S
C733 C732 1.366 . S
C733 C737 1.385 . S
C734 H715 0.951 . S
C734 C732 1.388 . S
C734 C735 1.366 . S
C735 C734 1.366 . S
C735 C736 1.414 . S
C735 C738 1.499 . S
C736 H716 0.950 . S
C736 C735 1.414 . S
C736 C737 1.374 . S
C737 H717 0.950 . S
C737 C733 1.385 . S
C737 C736 1.374 . S
C738 C735 1.499 . S
C738 C739 1.373 . S
C738 C740 1.389 . S
C739 H718 0.950 . S
C739 C738 1.373 . S
C739 C755 1.377 . S
C740 C738 1.389 . S
C740 C741 1.524 . S
C740 C754 1.377 . S
C741 C740 1.524 . S
C741 C742 1.397 . S
C741 C746 1.363 . S
C742 H719 0.950 . S
C742 C741 1.397 . S
C742 C743 1.334 . S
C743 H720 0.950 . S
C743 C742 1.334 . S
C743 C744 1.287 . S
C744 C743 1.287 . S
C744 C745 1.524 . S
C744 H763 0.913 . S
C745 H721 0.950 . S
C745 C744 1.524 . S
C745 C746 1.415 . S
C746 H722 0.950 . S
C746 C741 1.363 . S
C746 C745 1.415 . S
C747 H723 0.951 . S
C747 C748 1.366 . S
C747 C749 1.388 . S
C748 C747 1.366 . S
C748 C752 1.385 . S
C749 H724 0.951 . S
C749 C747 1.388 . S
C749 C750 1.366 . S
C750 C749 1.366 . S
C750 C751 1.414 . S
C750 C753 1.499 . S
C751 H725 0.950 . S
C751 C750 1.414 . S
C751 C752 1.374 . S
C752 H726 0.950 . S
C752 C748 1.385 . S
C752 C751 1.374 . S
C753 C750 1.499 . S
C753 C754 1.373 . S
C753 C755 1.389 . S
C754 H727 0.950 . S
C754 C740 1.377 . S
C754 C753 1.373 . S
C755 C739 1.377 . S
C755 C753 1.389 . S
C755 C756 1.524 . S
C756 C755 1.524 . S
C756 C757 1.397 . S
C756 C761 1.363 . S
C757 H728 0.950 . S
C757 C756 1.397 . S
C757 C758 1.334 . S
C758 H729 0.950 . S
C758 C757 1.334 . S
C758 C759 1.287 . S
C759 C758 1.287 . S
C759 C760 1.524 . S
C759 H762 0.999 . S
C760 H730 0.950 . S
C760 C759 1.524 . S
C760 C761 1.415 . S
C761 H731 0.950 . S
C761 C756 1.363 . S
C761 C760 1.415 . S
H762 C759 0.999 . S
H763 C744 0.913 . S
H764 C782 0.951 . S
H765 C784 0.951 . S
H766 C786 0.950 . S
H767 C787 0.950 . S
H768 C789 0.950 . S
H769 C792 0.950 . S
H770 C793 0.950 . S
H771 C795 0.950 . S
H772 C796 0.950 . S
H773 C797 0.951 . S
H774 C799 0.951 . S
H775 C801 0.950 . S
H776 C802 0.950 . S
H777 C804 0.950 . S
H778 C807 0.950 . S
H779 C808 0.950 . S
H780 C810 0.950 . S
H781 C811 0.950 . S
C782 H764 0.951 . S
C782 C783 1.366 . S
C782 C784 1.388 . S
C783 C782 1.366 . S
C783 C787 1.385 . S
C784 H765 0.951 . S
C784 C782 1.388 . S
C784 C785 1.366 . S
C785 C784 1.366 . S
C785 C786 1.414 . S
C785 C788 1.499 . S
C786 H766 0.950 . S
C786 C785 1.414 . S
C786 C787 1.374 . S
C787 H767 0.950 . S
C787 C783 1.385 . S
C787 C786 1.374 . S
C788 C785 1.499 . S
C788 C789 1.373 . S
C788 C790 1.389 . S
C789 H768 0.950 . S
C789 C788 1.373 . S
C789 C805 1.377 . S
C790 C788 1.389 . S
C790 C791 1.524 . S
C790 C804 1.377 . S
C791 C790 1.524 . S
C791 C792 1.397 . S
C791 C796 1.363 . S
C792 H769 0.950 . S
C792 C791 1.397 . S
C792 C793 1.334 . S
C793 H770 0.950 . S
C793 C792 1.334 . S
C793 C794 1.287 . S
C794 C793 1.287 . S
C794 C795 1.524 . S
C794 H813 0.913 . S
C795 H771 0.950 . S
C795 C794 1.524 . S
C795 C796 1.415 . S
C796 H772 0.950 . S
C796 C791 1.363 . S
C796 C795 1.415 . S
C797 H773 0.951 . S
C797 C798 1.366 . S
C797 C799 1.388 . S
C798 C797 1.366 . S
C798 C802 1.385 . S
C799 H774 0.951 . S
C799 C797 1.388 . S
C799 C800 1.366 . S
C800 C799 1.366 . S
C800 C801 1.414 . S
C800 C803 1.499 . S
C801 H775 0.950 . S
C801 C800 1.414 . S
C801 C802 1.374 . S
C802 H776 0.950 . S
C802 C798 1.385 . S
C802 C801 1.374 . S
C803 C800 1.499 . S
C803 C804 1.373 . S
C803 C805 1.389 . S
C804 H777 0.950 . S
C804 C790 1.377 . S
C804 C803 1.373 . S
C805 C789 1.377 . S
C805 C803 1.389 . S
C805 C806 1.524 . S
C806 C805 1.524 . S
C806 C807 1.397 . S
C806 C811 1.363 . S
C807 H778 0.950 . S
C807 C806 1.397 . S
C807 C808 1.334 . S
C808 H779 0.950 . S
C808 C807 1.334 . S
C808 C809 1.287 . S
C809 C808 1.287 . S
C809 C810 1.524 . S
C809 H812 0.999 . S
C810 H780 0.950 . S
C810 C809 1.524 . S
C810 C811 1.415 . S
C811 H781 0.950 . S
C811 C806 1.363 . S
C811 C810 1.415 . S
H812 C809 0.999 . S
H813 C794 0.913 . S
H814 C832 0.951 . S
H815 C834 0.951 . S
H816 C836 0.950 . S
H817 C837 0.950 . S
H818 C839 0.950 . S
H819 C842 0.950 . S
H820 C843 0.950 . S
H821 C845 0.950 . S
H822 C846 0.950 . S
H823 C847 0.951 1_455 S
H824 C849 0.951 . S
H825 C851 0.950 . S
H826 C852 0.950 . S
H827 C854 0.950 . S
H828 C857 0.950 . S
H829 C858 0.950 . S
H830 C860 0.950 . S
H831 C861 0.950 . S
C832 H814 0.951 . S
C832 C833 1.366 . S
C832 C834 1.388 . S
C833 C832 1.366 . S
C833 C837 1.385 . S
C834 H815 0.951 . S
C834 C832 1.388 . S
C834 C835 1.366 . S
C835 C834 1.366 . S
C835 C836 1.414 . S
C835 C838 1.499 . S
C836 H816 0.950 . S
C836 C835 1.414 . S
C836 C837 1.374 . S
C837 H817 0.950 . S
C837 C833 1.385 . S
C837 C836 1.374 . S
C838 C835 1.499 . S
C838 C839 1.373 . S
C838 C840 1.389 . S
C839 H818 0.950 . S
C839 C838 1.373 . S
C839 C855 1.377 . S
C840 C838 1.389 . S
C840 C841 1.524 . S
C840 C854 1.377 . S
C841 C840 1.524 . S
C841 C842 1.397 . S
C841 C846 1.363 . S
C842 H819 0.950 . S
C842 C841 1.397 . S
C842 C843 1.334 . S
C843 H820 0.950 . S
C843 C842 1.334 . S
C843 C844 1.287 . S
C844 C843 1.287 . S
C844 C845 1.524 . S
C844 H863 0.913 . S
C845 H821 0.950 . S
C845 C844 1.524 . S
C845 C846 1.415 . S
C846 H822 0.950 . S
C846 C841 1.363 . S
C846 C845 1.415 . S
C847 H823 0.951 1_655 S
C847 C848 1.366 . S
C847 C849 1.388 . S
C848 C847 1.366 . S
C848 C852 1.385 . S
C849 H824 0.951 . S
C849 C847 1.388 . S
C849 C850 1.366 . S
C850 C849 1.366 . S
C850 C851 1.414 . S
C850 C853 1.499 . S
C851 H825 0.950 . S
C851 C850 1.414 . S
C851 C852 1.374 . S
C852 H826 0.950 . S
C852 C848 1.385 . S
C852 C851 1.374 . S
C853 C850 1.499 . S
C853 C854 1.373 . S
C853 C855 1.389 . S
C854 H827 0.950 . S
C854 C840 1.377 . S
C854 C853 1.373 . S
C855 C839 1.377 . S
C855 C853 1.389 . S
C855 C856 1.524 . S
C856 C855 1.524 . S
C856 C857 1.397 . S
C856 C861 1.363 . S
C857 H828 0.950 . S
C857 C856 1.397 . S
C857 C858 1.334 . S
C858 H829 0.950 . S
C858 C857 1.334 . S
C858 C859 1.289 . S
C859 C858 1.289 . S
C859 C860 1.526 . S
C859 H862 0.993 1_655 S
C860 H830 0.950 . S
C860 C859 1.526 . S
C860 C861 1.415 . S
C861 H831 0.950 . S
C861 C856 1.363 . S
C861 C860 1.415 . S
H862 C859 0.993 1_455 S
H863 C844 0.913 . S
H864 C882 0.951 . S
H865 C884 0.951 . S
H866 C886 0.950 . S
H867 C887 0.950 . S
H868 C889 0.950 . S
H869 C892 0.950 . S
H870 C893 0.950 . S
H871 C895 0.950 . S
H872 C896 0.950 . S
H873 C897 0.951 . S
H874 C899 0.951 . S
H875 C901 0.950 . S
H876 C902 0.950 . S
H877 C904 0.950 . S
H878 C907 0.950 . S
H879 C908 0.950 . S
H880 C910 0.950 . S
H881 C911 0.950 . S
C882 H864 0.951 . S
C882 C883 1.366 . S
C882 C884 1.388 . S
C883 C882 1.366 . S
C883 C887 1.385 . S
C884 H865 0.951 . S
C884 C882 1.388 . S
C884 C885 1.366 . S
C885 C884 1.366 . S
C885 C886 1.414 . S
C885 C888 1.499 . S
C886 H866 0.950 . S
C886 C885 1.414 . S
C886 C887 1.374 . S
C887 H867 0.950 . S
C887 C883 1.385 . S
C887 C886 1.374 . S
C888 C885 1.499 . S
C888 C889 1.373 . S
C888 C890 1.389 . S
C889 H868 0.950 . S
C889 C888 1.373 . S
C889 C905 1.377 . S
C890 C888 1.389 . S
C890 C891 1.524 . S
C890 C904 1.377 . S
C891 C890 1.524 . S
C891 C892 1.397 . S
C891 C896 1.363 . S
C892 H869 0.950 . S
C892 C891 1.397 . S
C892 C893 1.334 . S
C893 H870 0.950 . S
C893 C892 1.334 . S
C893 C894 1.287 . S
C894 C893 1.287 . S
C894 C895 1.524 . S
C894 H913 0.913 . S
C895 H871 0.950 . S
C895 C894 1.524 . S
C895 C896 1.415 . S
C896 H872 0.950 . S
C896 C891 1.363 . S
C896 C895 1.415 . S
C897 H873 0.951 . S
C897 C898 1.366 . S
C897 C899 1.388 . S
C898 C897 1.366 . S
C898 C902 1.385 . S
C899 H874 0.951 . S
C899 C897 1.388 . S
C899 C900 1.366 . S
C900 C899 1.366 . S
C900 C901 1.414 . S
C900 C903 1.499 . S
C901 H875 0.950 . S
C901 C900 1.414 . S
C901 C902 1.374 . S
C902 H876 0.950 . S
C902 C898 1.385 . S
C902 C901 1.374 . S
C903 C900 1.499 . S
C903 C904 1.373 . S
C903 C905 1.389 . S
C904 H877 0.950 . S
C904 C890 1.377 . S
C904 C903 1.373 . S
C905 C889 1.377 . S
C905 C903 1.389 . S
C905 C906 1.524 . S
C906 C905 1.524 . S
C906 C907 1.397 . S
C906 C911 1.363 . S
C907 H878 0.950 . S
C907 C906 1.397 . S
C907 C908 1.334 . S
C908 H879 0.950 . S
C908 C907 1.334 . S
C908 C909 1.287 . S
C909 C908 1.287 . S
C909 C910 1.524 . S
C909 H912 0.999 . S
C910 H880 0.950 . S
C910 C909 1.524 . S
C910 C911 1.415 . S
C911 H881 0.950 . S
C911 C906 1.363 . S
C911 C910 1.415 . S
H912 C909 0.999 . S
H913 C894 0.913 . S
H914 C932 0.951 1_455 S
H915 C934 0.951 . S
H916 C936 0.950 . S
H917 C937 0.950 . S
H918 C939 0.950 1_545 S
H919 C942 0.950 . S
H920 C943 0.950 . S
H921 C945 0.950 . S
H922 C946 0.950 . S
H923 C947 0.951 . S
H924 C949 0.951 . S
H925 C951 0.950 . S
H926 C952 0.950 . S
H927 C954 0.950 . S
H928 C957 0.950 . S
H929 C958 0.955 . S
H930 C960 0.950 . S
H931 C961 0.950 . S
C932 H914 0.951 1_655 S
C932 C933 1.366 1_565 S
C932 C934 1.388 . S
C933 C932 1.366 1_545 S
C933 C937 1.385 . S
C934 H915 0.951 . S
C934 C932 1.388 . S
C934 C935 1.366 . S
C935 C934 1.366 . S
C935 C936 1.414 1_565 S
C935 C938 1.499 . S
C936 H916 0.950 . S
C936 C935 1.414 1_545 S
C936 C937 1.374 . S
C937 H917 0.950 . S
C937 C933 1.385 . S
C937 C936 1.374 . S
C938 C935 1.499 . S
C938 C939 1.373 . S
C938 C940 1.389 . S
C939 H918 0.950 1_565 S
C939 C938 1.373 . S
C939 C955 1.377 . S
C940 C938 1.389 . S
C940 C941 1.524 . S
C940 C954 1.377 . S
C941 C940 1.524 . S
C941 C942 1.397 . S
C941 C946 1.363 . S
C942 H919 0.950 . S
C942 C941 1.397 . S
C942 C943 1.334 . S
C943 H920 0.950 . S
C943 C942 1.334 . S
C943 C944 1.287 . S
C944 C943 1.287 . S
C944 C945 1.524 . S
C944 H963 0.913 . S
C945 H921 0.950 . S
C945 C944 1.524 . S
C945 C946 1.415 . S
C946 H922 0.950 . S
C946 C941 1.363 . S
C946 C945 1.415 . S
C947 H923 0.951 . S
C947 C948 1.366 . S
C947 C949 1.388 . S
C948 C947 1.366 . S
C948 C952 1.385 . S
C949 H924 0.951 . S
C949 C947 1.388 . S
C949 C950 1.366 . S
C950 C949 1.366 . S
C950 C951 1.414 . S
C950 C953 1.499 . S
C951 H925 0.950 . S
C951 C950 1.414 . S
C951 C952 1.374 . S
C952 H926 0.950 . S
C952 C948 1.385 . S
C952 C951 1.374 . S
C953 C950 1.499 . S
C953 C954 1.373 . S
C953 C955 1.389 . S
C954 H927 0.950 . S
C954 C940 1.377 . S
C954 C953 1.373 . S
C955 C939 1.377 . S
C955 C953 1.389 . S
C955 C956 1.524 . S
C956 C955 1.524 . S
C956 C957 1.397 . S
C956 C961 1.363 1_565 S
C957 H928 0.950 . S
C957 C956 1.397 . S
C957 C958 1.340 . S
C958 H929 0.955 . S
C958 C957 1.340 . S
C958 C959 1.276 1_565 S
C959 C958 1.276 1_545 S
C959 C960 1.524 . S
C959 H962 0.999 . S
C960 H930 0.950 . S
C960 C959 1.524 . S
C960 C961 1.415 . S
C961 H931 0.950 . S
C961 C956 1.363 1_545 S
C961 C960 1.415 . S
H962 C959 0.999 . S
H963 C944 0.913 . S
H964 C982 0.951 . S
H965 C984 0.951 . S
H966 C986 0.950 . S
H967 C987 0.950 . S
H968 C989 0.950 . S
H969 C992 0.950 . S
H970 C993 0.950 . S
H971 C995 0.950 . S
H972 C996 0.950 . S
H973 C997 0.951 . S
H974 C999 0.951 . S
H975 C1001 0.950 . S
H976 C1002 0.950 . S
H977 C1004 0.950 . S
H978 C1007 0.950 . S
H979 C1008 0.950 . S
H980 C1010 0.950 . S
H981 C1011 0.950 . S
C982 H964 0.951 . S
C982 C983 1.366 . S
C982 C984 1.388 . S
C983 C982 1.366 . S
C983 C987 1.385 . S
C984 H965 0.951 . S
C984 C982 1.388 . S
C984 C985 1.366 . S
C985 C984 1.366 . S
C985 C986 1.414 . S
C985 C988 1.499 . S
C986 H966 0.950 . S
C986 C985 1.414 . S
C986 C987 1.374 . S
C987 H967 0.950 . S
C987 C983 1.385 . S
C987 C986 1.374 . S
C988 C985 1.499 . S
C988 C989 1.373 . S
C988 C990 1.389 . S
C989 H968 0.950 . S
C989 C988 1.373 . S
C989 C1005 1.377 . S
C990 C988 1.389 . S
C990 C991 1.524 . S
C990 C1004 1.377 . S
C991 C990 1.524 . S
C991 C992 1.397 . S
C991 C996 1.363 . S
C992 H969 0.950 . S
C992 C991 1.397 . S
C992 C993 1.334 . S
C993 H970 0.950 . S
C993 C992 1.334 . S
C993 C994 1.287 . S
C994 C993 1.287 . S
C994 C995 1.524 . S
C994 H1013 0.913 . S
C995 H971 0.950 . S
C995 C994 1.524 . S
C995 C996 1.415 . S
C996 H972 0.950 . S
C996 C991 1.363 . S
C996 C995 1.415 . S
C997 H973 0.951 . S
C997 C998 1.366 . S
C997 C999 1.388 . S
C998 C997 1.366 . S
C998 C1002 1.385 . S
C999 H974 0.951 . S
C999 C997 1.388 . S
C999 C1000 1.366 . S
C1000 C999 1.366 . S
C1000 C1001 1.414 . S
C1000 C1003 1.499 . S
C1001 H975 0.950 . S
C1001 C1000 1.414 . S
C1001 C1002 1.374 . S
C1002 H976 0.950 . S
C1002 C998 1.385 . S
C1002 C1001 1.374 . S
C1003 C1000 1.499 . S
C1003 C1004 1.373 . S
C1003 C1005 1.389 . S
C1004 H977 0.950 . S
C1004 C990 1.377 . S
C1004 C1003 1.373 . S
C1005 C989 1.377 . S
C1005 C1003 1.389 . S
C1005 C1006 1.524 . S
C1006 C1005 1.524 . S
C1006 C1007 1.397 . S
C1006 C1011 1.363 . S
C1007 H978 0.950 . S
C1007 C1006 1.397 . S
C1007 C1008 1.334 . S
C1008 H979 0.950 . S
C1008 C1007 1.334 . S
C1008 C1009 1.287 . S
C1009 C1008 1.287 . S
C1009 C1010 1.524 . S
C1009 H1012 0.999 . S
C1010 H980 0.950 . S
C1010 C1009 1.524 . S
C1010 C1011 1.415 . S
C1011 H981 0.950 . S
C1011 C1006 1.363 . S
C1011 C1010 1.415 . S
H1012 C1009 0.999 . S
H1013 C994 0.913 . S
H1014 C1032 0.951 . S
H1015 C1034 0.951 . S
H1016 C1036 0.950 . S
H1017 C1037 0.950 . S
H1018 C1039 0.950 . S
H1019 C1042 0.950 . S
H1020 C1043 0.950 . S
H1021 C1045 0.950 . S
H1022 C1046 0.950 . S
H1023 C1047 0.951 . S
H1024 C1049 0.951 . S
H1025 C1051 0.950 . S
H1026 C1052 0.950 . S
H1027 C1054 0.950 . S
H1028 C1057 0.950 . S
H1029 C1058 0.950 . S
H1030 C1060 0.950 . S
H1031 C1061 0.950 . S
C1032 H1014 0.951 . S
C1032 C1033 1.366 . S
C1032 C1034 1.388 . S
C1033 C1032 1.366 . S
C1033 C1037 1.385 . S
C1034 H1015 0.951 . S
C1034 C1032 1.388 . S
C1034 C1035 1.366 . S
C1035 C1034 1.366 . S
C1035 C1036 1.414 . S
C1035 C1038 1.499 . S
C1036 H1016 0.950 . S
C1036 C1035 1.414 . S
C1036 C1037 1.374 . S
C1037 H1017 0.950 . S
C1037 C1033 1.385 . S
C1037 C1036 1.374 . S
C1038 C1035 1.499 . S
C1038 C1039 1.373 . S
C1038 C1040 1.389 . S
C1039 H1018 0.950 . S
C1039 C1038 1.373 . S
C1039 C1055 1.377 . S
C1040 C1038 1.389 . S
C1040 C1041 1.524 . S
C1040 C1054 1.377 . S
C1041 C1040 1.524 . S
C1041 C1042 1.397 . S
C1041 C1046 1.363 . S
C1042 H1019 0.950 . S
C1042 C1041 1.397 . S
C1042 C1043 1.334 . S
C1043 H1020 0.950 . S
C1043 C1042 1.334 . S
C1043 C1044 1.287 . S
C1044 C1043 1.287 . S
C1044 C1045 1.524 . S
C1044 H1063 0.913 . S
C1045 H1021 0.950 . S
C1045 C1044 1.524 . S
C1045 C1046 1.415 . S
C1046 H1022 0.950 . S
C1046 C1041 1.363 . S
C1046 C1045 1.415 . S
C1047 H1023 0.951 . S
C1047 C1048 1.366 . S
C1047 C1049 1.388 . S
C1048 C1047 1.366 . S
C1048 C1052 1.385 1_565 S
C1049 H1024 0.951 . S
C1049 C1047 1.388 . S
C1049 C1050 1.366 1_565 S
C1050 C1049 1.366 1_545 S
C1050 C1051 1.414 . S
C1050 C1053 1.499 . S
C1051 H1025 0.950 . S
C1051 C1050 1.414 . S
C1051 C1052 1.374 . S
C1052 H1026 0.950 . S
C1052 C1048 1.385 1_545 S
C1052 C1051 1.374 . S
C1053 C1050 1.499 . S
C1053 C1054 1.373 . S
C1053 C1055 1.389 . S
C1054 H1027 0.950 . S
C1054 C1040 1.377 . S
C1054 C1053 1.373 . S
C1055 C1039 1.377 . S
C1055 C1053 1.389 . S
C1055 C1056 1.524 . S
C1056 C1055 1.524 . S
C1056 C1057 1.397 . S
C1056 C1061 1.363 . S
C1057 H1028 0.950 . S
C1057 C1056 1.397 . S
C1057 C1058 1.334 . S
C1058 H1029 0.950 . S
C1058 C1057 1.334 . S
C1058 C1059 1.287 . S
C1059 C1058 1.287 . S
C1059 C1060 1.524 . S
C1059 H1062 0.999 . S
C1060 H1030 0.950 . S
C1060 C1059 1.524 . S
C1060 C1061 1.415 . S
C1061 H1031 0.950 . S
C1061 C1056 1.363 . S
C1061 C1060 1.415 . S
H1062 C1059 0.999 . S
H1063 C1044 0.913 . S
H1064 C1082 0.951 . S
H1065 C1084 0.951 . S
H1066 C1086 0.950 . S
H1067 C1087 0.950 . S
H1068 C1089 0.950 . S
H1069 C1092 0.950 . S
H1070 C1093 0.950 . S
H1071 C1095 0.950 . S
H1072 C1096 0.950 . S
H1073 C1097 0.951 . S
H1074 C1099 0.951 . S
H1075 C1101 0.950 . S
H1076 C1102 0.950 . S
H1077 C1104 0.950 . S
H1078 C1107 0.950 . S
H1079 C1108 0.950 . S
H1080 C1110 0.950 . S
H1081 C1111 0.950 . S
C1082 H1064 0.951 . S
C1082 C1083 1.366 . S
C1082 C1084 1.388 . S
C1083 C1082 1.366 . S
C1083 C1087 1.385 . S
C1084 H1065 0.951 . S
C1084 C1082 1.388 . S
C1084 C1085 1.366 . S
C1085 C1084 1.366 . S
C1085 C1086 1.414 . S
C1085 C1088 1.499 . S
C1086 H1066 0.950 . S
C1086 C1085 1.414 . S
C1086 C1087 1.374 . S
C1087 H1067 0.950 . S
C1087 C1083 1.385 . S
C1087 C1086 1.374 . S
C1088 C1085 1.499 . S
C1088 C1089 1.373 . S
C1088 C1090 1.389 . S
C1089 H1068 0.950 . S
C1089 C1088 1.373 . S
C1089 C1105 1.377 . S
C1090 C1088 1.389 . S
C1090 C1091 1.524 . S
C1090 C1104 1.377 . S
C1091 C1090 1.524 . S
C1091 C1092 1.397 . S
C1091 C1096 1.363 . S
C1092 H1069 0.950 . S
C1092 C1091 1.397 . S
C1092 C1093 1.334 . S
C1093 H1070 0.950 . S
C1093 C1092 1.334 . S
C1093 C1094 1.287 . S
C1094 C1093 1.287 . S
C1094 C1095 1.524 . S
C1094 H1113 0.913 . S
C1095 H1071 0.950 . S
C1095 C1094 1.524 . S
C1095 C1096 1.415 . S
C1096 H1072 0.950 . S
C1096 C1091 1.363 . S
C1096 C1095 1.415 . S
C1097 H1073 0.951 . S
C1097 C1098 1.366 . S
C1097 C1099 1.388 . S
C1098 C1097 1.366 . S
C1098 C1102 1.385 . S
C1099 H1074 0.951 . S
C1099 C1097 1.388 . S
C1099 C1100 1.366 . S
C1100 C1099 1.366 . S
C1100 C1101 1.414 . S
C1100 C1103 1.499 . S
C1101 H1075 0.950 . S
C1101 C1100 1.414 . S
C1101 C1102 1.374 . S
C1102 H1076 0.950 . S
C1102 C1098 1.385 . S
C1102 C1101 1.374 . S
C1103 C1100 1.499 . S
C1103 C1104 1.373 . S
C1103 C1105 1.389 . S
C1104 H1077 0.950 . S
C1104 C1090 1.377 . S
C1104 C1103 1.373 . S
C1105 C1089 1.377 . S
C1105 C1103 1.389 . S
C1105 C1106 1.524 . S
C1106 C1105 1.524 . S
C1106 C1107 1.397 . S
C1106 C1111 1.363 . S
C1107 H1078 0.950 . S
C1107 C1106 1.397 . S
C1107 C1108 1.334 . S
C1108 H1079 0.950 . S
C1108 C1107 1.334 . S
C1108 C1109 1.287 . S
C1109 C1108 1.287 . S
C1109 C1110 1.524 . S
C1109 H1112 0.999 . S
C1110 H1080 0.950 . S
C1110 C1109 1.524 . S
C1110 C1111 1.415 . S
C1111 H1081 0.950 . S
C1111 C1106 1.363 . S
C1111 C1110 1.415 . S
H1112 C1109 0.999 . S
H1113 C1094 0.913 . S
H1114 C1132 0.951 1_655 S
H1115 C1134 0.951 . S
H1116 C1136 0.950 . S
H1117 C1137 0.950 . S
H1118 C1139 0.950 . S
H1119 C1142 0.950 . S
H1120 C1143 0.950 . S
H1121 C1145 0.950 . S
H1122 C1146 0.950 . S
H1123 C1147 0.951 . S
H1124 C1149 0.951 . S
H1125 C1151 0.950 . S
H1126 C1152 0.950 . S
H1127 C1154 0.950 . S
H1128 C1157 0.950 . S
H1129 C1158 0.950 . S
H1130 C1160 0.950 . S
H1131 C1161 0.950 . S
C1132 H1114 0.951 1_455 S
C1132 C1133 1.366 . S
C1132 C1134 1.388 . S
C1133 C1132 1.366 . S
C1133 C1137 1.385 1_565 S
C1134 H1115 0.951 . S
C1134 C1132 1.388 . S
C1134 C1135 1.366 1_565 S
C1135 C1134 1.366 1_545 S
C1135 C1136 1.414 . S
C1135 C1138 1.499 . S
C1136 H1116 0.950 . S
C1136 C1135 1.414 . S
C1136 C1137 1.374 . S
C1137 H1117 0.950 . S
C1137 C1133 1.385 1_545 S
C1137 C1136 1.374 . S
C1138 C1135 1.499 . S
C1138 C1139 1.373 . S
C1138 C1140 1.389 . S
C1139 H1118 0.950 . S
C1139 C1138 1.373 . S
C1139 C1155 1.377 . S
C1140 C1138 1.389 . S
C1140 C1141 1.524 1_545 S
C1140 C1154 1.377 . S
C1141 C1140 1.524 1_565 S
C1141 C1142 1.397 . S
C1141 C1146 1.363 . S
C1142 H1119 0.950 . S
C1142 C1141 1.397 . S
C1142 C1143 1.334 . S
C1143 H1120 0.950 . S
C1143 C1142 1.334 . S
C1143 C1144 1.287 . S
C1144 C1143 1.287 . S
C1144 C1145 1.524 . S
C1144 H1163 0.913 . S
C1145 H1121 0.950 . S
C1145 C1144 1.524 . S
C1145 C1146 1.415 . S
C1146 H1122 0.950 . S
C1146 C1141 1.363 . S
C1146 C1145 1.415 . S
C1147 H1123 0.951 . S
C1147 C1148 1.366 . S
C1147 C1149 1.388 . S
C1148 C1147 1.366 . S
C1148 C1152 1.385 . S
C1149 H1124 0.951 . S
C1149 C1147 1.388 . S
C1149 C1150 1.366 . S
C1150 C1149 1.366 . S
C1150 C1151 1.414 . S
C1150 C1153 1.499 . S
C1151 H1125 0.950 . S
C1151 C1150 1.414 . S
C1151 C1152 1.374 . S
C1152 H1126 0.950 . S
C1152 C1148 1.385 . S
C1152 C1151 1.374 . S
C1153 C1150 1.499 . S
C1153 C1154 1.373 . S
C1153 C1155 1.389 . S
C1154 H1127 0.950 . S
C1154 C1140 1.377 . S
C1154 C1153 1.373 . S
C1155 C1139 1.377 . S
C1155 C1153 1.389 . S
C1155 C1156 1.524 . S
C1156 C1155 1.524 . S
C1156 C1157 1.397 . S
C1156 C1161 1.363 . S
C1157 H1128 0.950 . S
C1157 C1156 1.397 . S
C1157 C1158 1.334 . S
C1158 H1129 0.950 . S
C1158 C1157 1.334 . S
C1158 C1159 1.287 . S
C1159 C1158 1.287 . S
C1159 C1160 1.524 . S
C1159 H1162 0.999 . S
C1160 H1130 0.950 . S
C1160 C1159 1.524 . S
C1160 C1161 1.415 . S
C1161 H1131 0.950 . S
C1161 C1156 1.363 . S
C1161 C1160 1.415 . S
H1162 C1159 0.999 . S
H1163 C1144 0.913 . S
H1164 C1182 0.951 . S
H1165 C1184 0.951 . S
H1166 C1186 0.950 . S
H1167 C1187 0.950 . S
H1168 C1189 0.950 . S
H1169 C1192 0.950 . S
H1170 C1193 0.950 . S
H1171 C1195 0.950 . S
H1172 C1196 0.950 . S
H1173 C1197 0.951 . S
H1174 C1199 0.951 . S
H1175 C1201 0.950 . S
H1176 C1202 0.950 . S
H1177 C1204 0.950 . S
H1178 C1207 0.950 . S
H1179 C1208 0.950 . S
H1180 C1210 0.950 . S
H1181 C1211 0.950 . S
C1182 H1164 0.951 . S
C1182 C1183 1.366 . S
C1182 C1184 1.388 . S
C1183 C1182 1.366 . S
C1183 C1187 1.385 . S
C1184 H1165 0.951 . S
C1184 C1182 1.388 . S
C1184 C1185 1.366 . S
C1185 C1184 1.366 . S
C1185 C1186 1.414 . S
C1185 C1188 1.499 . S
C1186 H1166 0.950 . S
C1186 C1185 1.414 . S
C1186 C1187 1.374 . S
C1187 H1167 0.950 . S
C1187 C1183 1.385 . S
C1187 C1186 1.374 . S
C1188 C1185 1.499 . S
C1188 C1189 1.373 . S
C1188 C1190 1.389 . S
C1189 H1168 0.950 . S
C1189 C1188 1.373 . S
C1189 C1205 1.377 . S
C1190 C1188 1.389 . S
C1190 C1191 1.524 . S
C1190 C1204 1.377 . S
C1191 C1190 1.524 . S
C1191 C1192 1.397 . S
C1191 C1196 1.363 . S
C1192 H1169 0.950 . S
C1192 C1191 1.397 . S
C1192 C1193 1.334 . S
C1193 H1170 0.950 . S
C1193 C1192 1.334 . S
C1193 C1194 1.287 . S
C1194 C1193 1.287 . S
C1194 C1195 1.524 . S
C1194 H1213 0.913 . S
C1195 H1171 0.950 . S
C1195 C1194 1.524 . S
C1195 C1196 1.415 . S
C1196 H1172 0.950 . S
C1196 C1191 1.363 . S
C1196 C1195 1.415 . S
C1197 H1173 0.951 . S
C1197 C1198 1.366 . S
C1197 C1199 1.388 . S
C1198 C1197 1.366 . S
C1198 C1202 1.385 . S
C1199 H1174 0.951 . S
C1199 C1197 1.388 . S
C1199 C1200 1.366 . S
C1200 C1199 1.366 . S
C1200 C1201 1.414 . S
C1200 C1203 1.499 . S
C1201 H1175 0.950 . S
C1201 C1200 1.414 . S
C1201 C1202 1.374 . S
C1202 H1176 0.950 . S
C1202 C1198 1.385 . S
C1202 C1201 1.374 . S
C1203 C1200 1.499 . S
C1203 C1204 1.373 . S
C1203 C1205 1.389 . S
C1204 H1177 0.950 . S
C1204 C1190 1.377 . S
C1204 C1203 1.373 . S
C1205 C1189 1.377 . S
C1205 C1203 1.389 . S
C1205 C1206 1.524 . S
C1206 C1205 1.524 . S
C1206 C1207 1.397 . S
C1206 C1211 1.363 . S
C1207 H1178 0.950 . S
C1207 C1206 1.397 . S
C1207 C1208 1.334 . S
C1208 H1179 0.950 . S
C1208 C1207 1.334 . S
C1208 C1209 1.287 . S
C1209 C1208 1.287 . S
C1209 C1210 1.524 . S
C1209 H1212 0.999 . S
C1210 H1180 0.950 . S
C1210 C1209 1.524 . S
C1210 C1211 1.415 . S
C1211 H1181 0.950 . S
C1211 C1206 1.363 . S
C1211 C1210 1.415 . S
H1212 C1209 0.999 . S
H1213 C1194 0.913 . S
H1214 C1232 0.951 . S
H1215 C1234 0.951 . S
H1216 C1236 0.950 . S
H1217 C1237 0.950 . S
H1218 C1239 0.950 . S
H1219 C1242 0.950 . S
H1220 C1243 0.950 . S
H1221 C1245 0.950 . S
H1222 C1246 0.950 . S
H1223 C1247 0.951 . S
H1224 C1249 0.951 . S
H1225 C1251 0.950 . S
H1226 C1252 0.950 . S
H1227 C1254 0.950 . S
H1228 C1257 0.950 . S
H1229 C1258 0.950 . S
H1230 C1260 0.950 . S
H1231 C1261 0.950 . S
C1232 H1214 0.951 . S
C1232 C1233 1.366 . S
C1232 C1234 1.388 . S
C1233 C1232 1.366 . S
C1233 C1237 1.385 . S
C1234 H1215 0.951 . S
C1234 C1232 1.388 . S
C1234 C1235 1.366 . S
C1235 C1234 1.366 . S
C1235 C1236 1.414 . S
C1235 C1238 1.499 . S
C1236 H1216 0.950 . S
C1236 C1235 1.414 . S
C1236 C1237 1.374 . S
C1237 H1217 0.950 . S
C1237 C1233 1.385 . S
C1237 C1236 1.374 . S
C1238 C1235 1.499 . S
C1238 C1239 1.373 . S
C1238 C1240 1.389 . S
C1239 H1218 0.950 . S
C1239 C1238 1.373 . S
C1239 C1255 1.377 . S
C1240 C1238 1.389 . S
C1240 C1241 1.524 . S
C1240 C1254 1.377 . S
C1241 C1240 1.524 . S
C1241 C1242 1.397 . S
C1241 C1246 1.363 . S
C1242 H1219 0.950 . S
C1242 C1241 1.397 . S
C1242 C1243 1.334 . S
C1243 H1220 0.950 . S
C1243 C1242 1.334 . S
C1243 C1244 1.287 . S
C1244 C1243 1.287 . S
C1244 C1245 1.524 . S
C1244 H1263 0.913 . S
C1245 H1221 0.950 . S
C1245 C1244 1.524 . S
C1245 C1246 1.415 . S
C1246 H1222 0.950 . S
C1246 C1241 1.363 . S
C1246 C1245 1.415 . S
C1247 H1223 0.951 . S
C1247 C1248 1.366 . S
C1247 C1249 1.388 . S
C1248 C1247 1.366 . S
C1248 C1252 1.385 1_545 S
C1249 H1224 0.951 . S
C1249 C1247 1.388 . S
C1249 C1250 1.366 1_545 S
C1250 C1249 1.366 1_565 S
C1250 C1251 1.414 . S
C1250 C1253 1.499 . S
C1251 H1225 0.950 . S
C1251 C1250 1.414 . S
C1251 C1252 1.374 . S
C1252 H1226 0.950 . S
C1252 C1248 1.385 1_565 S
C1252 C1251 1.374 . S
C1253 C1250 1.499 . S
C1253 C1254 1.373 . S
C1253 C1255 1.389 . S
C1254 H1227 0.950 . S
C1254 C1240 1.377 . S
C1254 C1253 1.373 . S
C1255 C1239 1.377 . S
C1255 C1253 1.389 . S
C1255 C1256 1.524 1_565 S
C1256 C1255 1.524 1_545 S
C1256 C1257 1.397 . S
C1256 C1261 1.363 . S
C1257 H1228 0.950 . S
C1257 C1256 1.397 . S
C1257 C1258 1.334 . S
C1258 H1229 0.950 . S
C1258 C1257 1.334 . S
C1258 C1259 1.287 . S
C1259 C1258 1.287 . S
C1259 C1260 1.524 . S
C1259 H1262 0.999 . S
C1260 H1230 0.950 . S
C1260 C1259 1.524 . S
C1260 C1261 1.415 . S
C1261 H1231 0.950 . S
C1261 C1256 1.363 . S
C1261 C1260 1.415 . S
H1262 C1259 0.999 . S
H1263 C1244 0.913 . S
H1264 C1282 0.951 . S
H1265 C1284 0.951 . S
H1266 C1286 0.950 1_556 S
H1267 C1287 0.950 . S
H1268 C1289 0.950 . S
H1269 C1292 0.950 . S
H1270 C1293 0.950 . S
H1271 C1295 0.950 . S
H1272 C1296 0.950 . S
H1273 C1297 0.951 . S
H1274 C1299 0.951 . S
H1275 C1301 0.950 . S
H1276 C1302 0.950 . S
H1277 C1304 0.950 . S
H1278 C1307 0.950 . S
H1279 C1308 0.950 . S
H1280 C1310 0.950 . S
H1281 C1311 0.950 . S
C1282 H1264 0.951 . S
C1282 C1283 1.366 . S
C1282 C1284 1.388 . S
C1283 C1282 1.366 . S
C1283 C1287 1.385 . S
C1284 H1265 0.951 . S
C1284 C1282 1.388 . S
C1284 C1285 1.366 . S
C1285 C1284 1.366 . S
C1285 C1286 1.414 . S
C1285 C1288 1.499 . S
C1286 H1266 0.950 1_554 S
C1286 C1285 1.414 . S
C1286 C1287 1.374 . S
C1287 H1267 0.950 . S
C1287 C1283 1.385 . S
C1287 C1286 1.374 . S
C1288 C1285 1.499 . S
C1288 C1289 1.373 . S
C1288 C1290 1.376 1_554 S
C1289 H1268 0.950 . S
C1289 C1288 1.373 . S
C1289 C1305 1.377 1_554 S
C1290 C1288 1.376 1_556 S
C1290 C1291 1.527 . S
C1290 C1304 1.395 . S
C1291 C1290 1.527 . S
C1291 C1292 1.397 . S
C1291 C1296 1.363 1_556 S
C1292 H1269 0.950 . S
C1292 C1291 1.397 . S
C1292 C1293 1.334 . S
C1293 H1270 0.950 . S
C1293 C1292 1.334 . S
C1293 C1294 1.287 . S
C1294 C1293 1.287 . S
C1294 C1295 1.524 1_556 S
C1294 H1313 0.913 . S
C1295 H1271 0.950 . S
C1295 C1294 1.524 1_554 S
C1295 C1296 1.415 . S
C1296 H1272 0.950 . S
C1296 C1291 1.363 1_554 S
C1296 C1295 1.415 . S
C1297 H1273 0.951 . S
C1297 C1298 1.366 . S
C1297 C1299 1.388 . S
C1298 C1297 1.366 . S
C1298 C1302 1.385 . S
C1299 H1274 0.951 . S
C1299 C1297 1.388 . S
C1299 C1300 1.366 . S
C1300 C1299 1.366 . S
C1300 C1301 1.414 . S
C1300 C1303 1.499 . S
C1301 H1275 0.950 . S
C1301 C1300 1.414 . S
C1301 C1302 1.374 . S
C1302 H1276 0.950 . S
C1302 C1298 1.385 . S
C1302 C1301 1.374 . S
C1303 C1300 1.499 . S
C1303 C1304 1.373 . S
C1303 C1305 1.389 . S
C1304 H1277 0.950 . S
C1304 C1290 1.395 . S
C1304 C1303 1.373 . S
C1305 C1289 1.377 1_556 S
C1305 C1303 1.389 . S
C1305 C1306 1.524 . S
C1306 C1305 1.524 . S
C1306 C1307 1.397 1_556 S
C1306 C1311 1.363 . S
C1307 H1278 0.950 . S
C1307 C1306 1.397 1_554 S
C1307 C1308 1.334 . S
C1308 H1279 0.950 . S
C1308 C1307 1.334 . S
C1308 C1309 1.287 . S
C1309 C1308 1.287 . S
C1309 C1310 1.524 1_554 S
C1309 H1312 0.999 . S
C1310 H1280 0.950 . S
C1310 C1309 1.524 1_556 S
C1310 C1311 1.415 . S
C1311 H1281 0.950 . S
C1311 C1306 1.363 . S
C1311 C1310 1.415 . S
H1312 C1309 0.999 . S
H1313 C1294 0.913 . S
H1314 C1332 0.951 1_455 S
H1315 C1334 0.951 . S
H1316 C1336 0.950 . S
H1317 C1337 0.950 . S
H1318 C1339 0.950 . S
H1319 C1342 0.950 . S
H1320 C1343 0.950 . S
H1321 C1345 0.950 . S
H1322 C1346 0.950 . S
H1323 C1347 0.951 . S
H1324 C1349 0.951 . S
H1325 C1351 0.950 . S
H1326 C1352 0.950 . S
H1327 C1354 0.950 . S
H1328 C1357 0.950 . S
H1329 C1358 0.950 . S
H1330 C1360 0.950 . S
H1331 C1361 0.950 . S
C1332 H1314 0.951 1_655 S
C1332 C1333 1.366 1_655 S
C1332 C1334 1.388 . S
C1333 C1332 1.366 1_455 S
C1333 C1337 1.385 1_455 S
C1334 H1315 0.951 . S
C1334 C1332 1.388 . S
C1334 C1335 1.366 . S
C1335 C1334 1.366 . S
C1335 C1336 1.414 . S
C1335 C1338 1.499 . S
C1336 H1316 0.950 . S
C1336 C1335 1.414 . S
C1336 C1337 1.374 . S
C1337 H1317 0.950 . S
C1337 C1333 1.385 1_655 S
C1337 C1336 1.374 . S
C1338 C1335 1.499 . S
C1338 C1339 1.373 . S
C1338 C1340 1.389 . S
C1339 H1318 0.950 . S
C1339 C1338 1.373 . S
C1339 C1355 1.377 . S
C1340 C1338 1.389 . S
C1340 C1341 1.524 . S
C1340 C1354 1.377 . S
C1341 C1340 1.524 . S
C1341 C1342 1.397 . S
C1341 C1346 1.363 . S
C1342 H1319 0.950 . S
C1342 C1341 1.397 . S
C1342 C1343 1.334 . S
C1343 H1320 0.950 . S
C1343 C1342 1.334 . S
C1343 C1344 1.287 . S
C1344 C1343 1.287 . S
C1344 C1345 1.524 . S
C1344 H1363 0.913 . S
C1345 H1321 0.950 . S
C1345 C1344 1.524 . S
C1345 C1346 1.415 . S
C1346 H1322 0.950 . S
C1346 C1341 1.363 . S
C1346 C1345 1.415 . S
C1347 H1323 0.951 . S
C1347 C1348 1.366 . S
C1347 C1349 1.388 . S
C1348 C1347 1.366 . S
C1348 C1352 1.385 . S
C1349 H1324 0.951 . S
C1349 C1347 1.388 . S
C1349 C1350 1.366 . S
C1350 C1349 1.366 . S
C1350 C1351 1.414 . S
C1350 C1353 1.499 . S
C1351 H1325 0.950 . S
C1351 C1350 1.414 . S
C1351 C1352 1.374 . S
C1352 H1326 0.950 . S
C1352 C1348 1.385 . S
C1352 C1351 1.374 . S
C1353 C1350 1.499 . S
C1353 C1354 1.373 . S
C1353 C1355 1.389 . S
C1354 H1327 0.950 . S
C1354 C1340 1.377 . S
C1354 C1353 1.373 . S
C1355 C1339 1.377 . S
C1355 C1353 1.389 . S
C1355 C1356 1.524 . S
C1356 C1355 1.524 . S
C1356 C1357 1.397 . S
C1356 C1361 1.363 . S
C1357 H1328 0.950 . S
C1357 C1356 1.397 . S
C1357 C1358 1.334 . S
C1358 H1329 0.950 . S
C1358 C1357 1.334 . S
C1358 C1359 1.287 . S
C1359 C1358 1.287 . S
C1359 C1360 1.524 . S
C1359 H1362 0.999 . S
C1360 H1330 0.950 . S
C1360 C1359 1.524 . S
C1360 C1361 1.415 . S
C1361 H1331 0.950 . S
C1361 C1356 1.363 . S
C1361 C1360 1.415 . S
H1362 C1359 0.999 . S
H1363 C1344 0.913 . S
H1364 C1382 0.951 . S
H1365 C1384 0.951 . S
H1366 C1386 0.950 . S
H1367 C1387 0.950 . S
H1368 C1389 0.950 . S
H1369 C1392 0.950 . S
H1370 C1393 0.950 . S
H1371 C1395 0.950 . S
H1372 C1396 0.950 . S
H1373 C1397 0.951 . S
H1374 C1399 0.951 . S
H1375 C1401 0.950 . S
H1376 C1402 0.950 . S
H1377 C1404 0.950 . S
H1378 C1407 0.950 . S
H1379 C1408 0.950 . S
H1380 C1410 0.950 . S
H1381 C1411 0.950 . S
C1382 H1364 0.951 . S
C1382 C1383 1.366 . S
C1382 C1384 1.388 . S
C1383 C1382 1.366 . S
C1383 C1387 1.385 . S
C1384 H1365 0.951 . S
C1384 C1382 1.388 . S
C1384 C1385 1.366 . S
C1385 C1384 1.366 . S
C1385 C1386 1.414 . S
C1385 C1388 1.499 . S
C1386 H1366 0.950 . S
C1386 C1385 1.414 . S
C1386 C1387 1.374 . S
C1387 H1367 0.950 . S
C1387 C1383 1.385 . S
C1387 C1386 1.374 . S
C1388 C1385 1.499 . S
C1388 C1389 1.373 . S
C1388 C1390 1.389 . S
C1389 H1368 0.950 . S
C1389 C1388 1.373 . S
C1389 C1405 1.377 . S
C1390 C1388 1.389 . S
C1390 C1391 1.524 . S
C1390 C1404 1.377 . S
C1391 C1390 1.524 . S
C1391 C1392 1.397 . S
C1391 C1396 1.363 . S
C1392 H1369 0.950 . S
C1392 C1391 1.397 . S
C1392 C1393 1.334 . S
C1393 H1370 0.950 . S
C1393 C1392 1.334 . S
C1393 C1394 1.287 . S
C1394 C1393 1.287 . S
C1394 C1395 1.524 . S
C1394 H1413 0.913 . S
C1395 H1371 0.950 . S
C1395 C1394 1.524 . S
C1395 C1396 1.415 . S
C1396 H1372 0.950 . S
C1396 C1391 1.363 . S
C1396 C1395 1.415 . S
C1397 H1373 0.951 . S
C1397 C1398 1.366 . S
C1397 C1399 1.388 . S
C1398 C1397 1.366 . S
C1398 C1402 1.385 . S
C1399 H1374 0.951 . S
C1399 C1397 1.388 . S
C1399 C1400 1.366 . S
C1400 C1399 1.366 . S
C1400 C1401 1.414 . S
C1400 C1403 1.499 . S
C1401 H1375 0.950 . S
C1401 C1400 1.414 . S
C1401 C1402 1.374 . S
C1402 H1376 0.950 . S
C1402 C1398 1.385 . S
C1402 C1401 1.374 . S
C1403 C1400 1.499 . S
C1403 C1404 1.373 . S
C1403 C1405 1.389 . S
C1404 H1377 0.950 . S
C1404 C1390 1.377 . S
C1404 C1403 1.373 . S
C1405 C1389 1.377 . S
C1405 C1403 1.389 . S
C1405 C1406 1.524 . S
C1406 C1405 1.524 . S
C1406 C1407 1.397 . S
C1406 C1411 1.363 . S
C1407 H1378 0.950 . S
C1407 C1406 1.397 . S
C1407 C1408 1.334 . S
C1408 H1379 0.950 . S
C1408 C1407 1.334 . S
C1408 C1409 1.287 . S
C1409 C1408 1.287 . S
C1409 C1410 1.524 . S
C1409 H1412 0.999 . S
C1410 H1380 0.950 . S
C1410 C1409 1.524 . S
C1410 C1411 1.415 . S
C1411 H1381 0.950 . S
C1411 C1406 1.363 . S
C1411 C1410 1.415 . S
H1412 C1409 0.999 . S
H1413 C1394 0.913 . S
H1414 C1432 0.951 . S
H1415 C1434 0.951 . S
H1416 C1436 0.950 . S
H1417 C1437 0.950 . S
H1418 C1439 0.950 . S
H1419 C1442 0.950 . S
H1420 C1443 0.950 . S
H1421 C1445 0.950 . S
H1422 C1446 0.950 . S
H1423 C1447 0.951 . S
H1424 C1449 0.951 . S
H1425 C1451 0.950 . S
H1426 C1452 0.950 . S
H1427 C1454 0.950 . S
H1428 C1457 0.950 . S
H1429 C1458 0.950 . S
H1430 C1460 0.950 . S
H1431 C1461 0.950 . S
C1432 H1414 0.951 . S
C1432 C1433 1.366 . S
C1432 C1434 1.388 . S
C1433 C1432 1.366 . S
C1433 C1437 1.385 . S
C1434 H1415 0.951 . S
C1434 C1432 1.388 . S
C1434 C1435 1.366 . S
C1435 C1434 1.366 . S
C1435 C1436 1.414 . S
C1435 C1438 1.499 . S
C1436 H1416 0.950 . S
C1436 C1435 1.414 . S
C1436 C1437 1.374 . S
C1437 H1417 0.950 . S
C1437 C1433 1.385 . S
C1437 C1436 1.374 . S
C1438 C1435 1.499 . S
C1438 C1439 1.373 . S
C1438 C1440 1.389 . S
C1439 H1418 0.950 . S
C1439 C1438 1.373 . S
C1439 C1455 1.377 . S
C1440 C1438 1.389 . S
C1440 C1441 1.524 . S
C1440 C1454 1.377 . S
C1441 C1440 1.524 . S
C1441 C1442 1.397 . S
C1441 C1446 1.363 . S
C1442 H1419 0.950 . S
C1442 C1441 1.397 . S
C1442 C1443 1.334 . S
C1443 H1420 0.950 . S
C1443 C1442 1.334 . S
C1443 C1444 1.287 . S
C1444 C1443 1.287 . S
C1444 C1445 1.524 . S
C1444 H1463 0.913 . S
C1445 H1421 0.950 . S
C1445 C1444 1.524 . S
C1445 C1446 1.415 . S
C1446 H1422 0.950 . S
C1446 C1441 1.363 . S
C1446 C1445 1.415 . S
C1447 H1423 0.951 . S
C1447 C1448 1.366 . S
C1447 C1449 1.388 . S
C1448 C1447 1.366 . S
C1448 C1452 1.385 . S
C1449 H1424 0.951 . S
C1449 C1447 1.388 . S
C1449 C1450 1.366 . S
C1450 C1449 1.366 . S
C1450 C1451 1.414 . S
C1450 C1453 1.499 . S
C1451 H1425 0.950 . S
C1451 C1450 1.414 . S
C1451 C1452 1.374 . S
C1452 H1426 0.950 . S
C1452 C1448 1.385 . S
C1452 C1451 1.374 . S
C1453 C1450 1.499 . S
C1453 C1454 1.373 . S
C1453 C1455 1.389 . S
C1454 H1427 0.950 . S
C1454 C1440 1.377 . S
C1454 C1453 1.373 . S
C1455 C1439 1.377 . S
C1455 C1453 1.389 . S
C1455 C1456 1.524 . S
C1456 C1455 1.524 . S
C1456 C1457 1.397 . S
C1456 C1461 1.363 . S
C1457 H1428 0.950 . S
C1457 C1456 1.397 . S
C1457 C1458 1.334 . S
C1458 H1429 0.950 . S
C1458 C1457 1.334 . S
C1458 C1459 1.287 . S
C1459 C1458 1.287 . S
C1459 C1460 1.524 . S
C1459 H1462 0.999 . S
C1460 H1430 0.950 . S
C1460 C1459 1.524 . S
C1460 C1461 1.415 . S
C1461 H1431 0.950 . S
C1461 C1456 1.363 . S
C1461 C1460 1.415 . S
H1462 C1459 0.999 . S
H1463 C1444 0.913 . S
H1464 C1482 0.951 . S
H1465 C1484 0.951 . S
H1466 C1486 0.950 . S
H1467 C1487 0.950 . S
H1468 C1489 0.950 . S
H1469 C1492 0.950 . S
H1470 C1493 0.950 . S
H1471 C1495 0.950 . S
H1472 C1496 0.950 . S
H1473 C1497 0.951 . S
H1474 C1499 0.951 . S
H1475 C1501 0.950 . S
H1476 C1502 0.950 . S
H1477 C1504 0.950 . S
H1478 C1507 0.950 . S
H1479 C1508 0.950 . S
H1480 C1510 0.950 . S
H1481 C1511 0.950 . S
C1482 H1464 0.951 . S
C1482 C1483 1.366 . S
C1482 C1484 1.388 . S
C1483 C1482 1.366 . S
C1483 C1487 1.385 . S
C1484 H1465 0.951 . S
C1484 C1482 1.388 . S
C1484 C1485 1.366 . S
C1485 C1484 1.366 . S
C1485 C1486 1.414 . S
C1485 C1488 1.499 . S
C1486 H1466 0.950 . S
C1486 C1485 1.414 . S
C1486 C1487 1.374 . S
C1487 H1467 0.950 . S
C1487 C1483 1.385 . S
C1487 C1486 1.374 . S
C1488 C1485 1.499 . S
C1488 C1489 1.373 . S
C1488 C1490 1.389 1_554 S
C1489 H1468 0.950 . S
C1489 C1488 1.373 . S
C1489 C1505 1.377 . S
C1490 C1488 1.389 1_556 S
C1490 C1491 1.524 . S
C1490 C1504 1.377 . S
C1491 C1490 1.524 . S
C1491 C1492 1.397 . S
C1491 C1496 1.363 . S
C1492 H1469 0.950 . S
C1492 C1491 1.397 . S
C1492 C1493 1.334 . S
C1493 H1470 0.950 . S
C1493 C1492 1.334 . S
C1493 C1494 1.287 . S
C1494 C1493 1.287 . S
C1494 C1495 1.524 . S
C1494 H1513 0.913 . S
C1495 H1471 0.950 . S
C1495 C1494 1.524 . S
C1495 C1496 1.415 . S
C1496 H1472 0.950 . S
C1496 C1491 1.363 . S
C1496 C1495 1.415 . S
C1497 H1473 0.951 . S
C1497 C1498 1.366 . S
C1497 C1499 1.388 . S
C1498 C1497 1.366 . S
C1498 C1502 1.385 . S
C1499 H1474 0.951 . S
C1499 C1497 1.388 . S
C1499 C1500 1.366 . S
C1500 C1499 1.366 . S
C1500 C1501 1.414 . S
C1500 C1503 1.499 . S
C1501 H1475 0.950 . S
C1501 C1500 1.414 . S
C1501 C1502 1.374 . S
C1502 H1476 0.950 . S
C1502 C1498 1.385 . S
C1502 C1501 1.374 . S
C1503 C1500 1.499 . S
C1503 C1504 1.373 . S
C1503 C1505 1.389 1_556 S
C1504 H1477 0.950 . S
C1504 C1490 1.377 . S
C1504 C1503 1.373 . S
C1505 C1489 1.377 . S
C1505 C1503 1.389 1_554 S
C1505 C1506 1.524 . S
C1506 C1505 1.524 . S
C1506 C1507 1.397 . S
C1506 C1511 1.363 . S
C1507 H1478 0.950 . S
C1507 C1506 1.397 . S
C1507 C1508 1.334 . S
C1508 H1479 0.950 . S
C1508 C1507 1.334 . S
C1508 C1509 1.287 . S
C1509 C1508 1.287 . S
C1509 C1510 1.524 . S
C1509 H1512 0.999 . S
C1510 H1480 0.950 . S
C1510 C1509 1.524 . S
C1510 C1511 1.415 . S
C1511 H1481 0.950 . S
C1511 C1506 1.363 . S
C1511 C1510 1.415 . S
H1512 C1509 0.999 . S
H1513 C1494 0.913 . S
H1514 C1532 0.951 . S
H1515 C1534 0.951 . S
H1516 C1536 0.950 . S
H1517 C1537 0.950 1_655 S
H1518 C1539 0.950 . S
H1519 C1542 0.950 . S
H1520 C1543 0.950 . S
H1521 C1545 0.950 . S
H1522 C1546 0.950 . S
H1523 C1547 0.951 . S
H1524 C1549 0.951 . S
H1525 C1551 0.950 . S
H1526 C1552 0.950 . S
H1527 C1554 0.950 . S
H1528 C1557 0.950 . S
H1529 C1558 0.950 . S
H1530 C1560 0.950 . S
H1531 C1561 0.950 . S
C1532 H1514 0.951 . S
C1532 C1533 1.366 1_455 S
C1532 C1534 1.388 . S
C1533 C1532 1.366 1_655 S
C1533 C1537 1.385 1_655 S
C1534 H1515 0.951 . S
C1534 C1532 1.388 . S
C1534 C1535 1.366 . S
C1535 C1534 1.366 . S
C1535 C1536 1.414 . S
C1535 C1538 1.499 . S
C1536 H1516 0.950 . S
C1536 C1535 1.414 . S
C1536 C1537 1.374 . S
C1537 H1517 0.950 1_455 S
C1537 C1533 1.385 1_455 S
C1537 C1536 1.374 . S
C1538 C1535 1.499 . S
C1538 C1539 1.373 . S
C1538 C1540 1.389 . S
C1539 H1518 0.950 . S
C1539 C1538 1.373 . S
C1539 C1555 1.377 . S
C1540 C1538 1.389 . S
C1540 C1541 1.524 . S
C1540 C1554 1.377 . S
C1541 C1540 1.524 . S
C1541 C1542 1.397 . S
C1541 C1546 1.363 . S
C1542 H1519 0.950 . S
C1542 C1541 1.397 . S
C1542 C1543 1.334 . S
C1543 H1520 0.950 . S
C1543 C1542 1.334 . S
C1543 C1544 1.287 . S
C1544 C1543 1.287 . S
C1544 C1545 1.524 . S
C1544 H1563 0.913 . S
C1545 H1521 0.950 . S
C1545 C1544 1.524 . S
C1545 C1546 1.415 . S
C1546 H1522 0.950 . S
C1546 C1541 1.363 . S
C1546 C1545 1.415 . S
C1547 H1523 0.951 . S
C1547 C1548 1.366 . S
C1547 C1549 1.388 . S
C1548 C1547 1.366 . S
C1548 C1552 1.385 . S
C1549 H1524 0.951 . S
C1549 C1547 1.388 . S
C1549 C1550 1.366 . S
C1550 C1549 1.366 . S
C1550 C1551 1.414 . S
C1550 C1553 1.499 . S
C1551 H1525 0.950 . S
C1551 C1550 1.414 . S
C1551 C1552 1.374 . S
C1552 H1526 0.950 . S
C1552 C1548 1.385 . S
C1552 C1551 1.374 . S
C1553 C1550 1.499 . S
C1553 C1554 1.373 . S
C1553 C1555 1.389 . S
C1554 H1527 0.950 . S
C1554 C1540 1.377 . S
C1554 C1553 1.373 . S
C1555 C1539 1.377 . S
C1555 C1553 1.389 . S
C1555 C1556 1.524 . S
C1556 C1555 1.524 . S
C1556 C1557 1.397 . S
C1556 C1561 1.363 . S
C1557 H1528 0.950 . S
C1557 C1556 1.397 . S
C1557 C1558 1.334 . S
C1558 H1529 0.950 . S
C1558 C1557 1.334 . S
C1558 C1559 1.287 . S
C1559 C1558 1.287 . S
C1559 C1560 1.524 . S
C1559 H1562 0.999 . S
C1560 H1530 0.950 . S
C1560 C1559 1.524 . S
C1560 C1561 1.415 . S
C1561 H1531 0.950 . S
C1561 C1556 1.363 . S
C1561 C1560 1.415 . S
H1562 C1559 0.999 . S
H1563 C1544 0.913 . S
H1564 C1582 0.951 . S
H1565 C1584 0.951 . S
H1566 C1586 0.950 . S
H1567 C1587 0.950 . S
H1568 C1589 0.950 . S
H1569 C1592 0.950 . S
H1570 C1593 0.950 . S
H1571 C1595 0.950 . S
H1572 C1596 0.950 . S
H1573 C1597 0.951 . S
H1574 C1599 0.951 . S
H1575 C1601 0.950 . S
H1576 C1602 0.950 . S
H1577 C1604 0.950 . S
H1578 C1607 0.950 . S
H1579 C1608 0.950 . S
H1580 C1610 0.950 . S
H1581 C1611 0.950 . S
C1582 H1564 0.951 . S
C1582 C1583 1.366 . S
C1582 C1584 1.388 . S
C1583 C1582 1.366 . S
C1583 C1587 1.385 . S
C1584 H1565 0.951 . S
C1584 C1582 1.388 . S
C1584 C1585 1.366 . S
C1585 C1584 1.366 . S
C1585 C1586 1.414 . S
C1585 C1588 1.499 . S
C1586 H1566 0.950 . S
C1586 C1585 1.414 . S
C1586 C1587 1.374 . S
C1587 H1567 0.950 . S
C1587 C1583 1.385 . S
C1587 C1586 1.374 . S
C1588 C1585 1.499 . S
C1588 C1589 1.373 . S
C1588 C1590 1.389 . S
C1589 H1568 0.950 . S
C1589 C1588 1.373 . S
C1589 C1605 1.377 . S
C1590 C1588 1.389 . S
C1590 C1591 1.524 . S
C1590 C1604 1.377 . S
C1591 C1590 1.524 . S
C1591 C1592 1.397 . S
C1591 C1596 1.363 . S
C1592 H1569 0.950 . S
C1592 C1591 1.397 . S
C1592 C1593 1.334 . S
C1593 H1570 0.950 . S
C1593 C1592 1.334 . S
C1593 C1594 1.287 . S
C1594 C1593 1.287 . S
C1594 C1595 1.524 . S
C1594 H1613 0.913 . S
C1595 H1571 0.950 . S
C1595 C1594 1.524 . S
C1595 C1596 1.415 . S
C1596 H1572 0.950 . S
C1596 C1591 1.363 . S
C1596 C1595 1.415 . S
C1597 H1573 0.951 . S
C1597 C1598 1.366 . S
C1597 C1599 1.388 . S
C1598 C1597 1.366 . S
C1598 C1602 1.385 . S
C1599 H1574 0.951 . S
C1599 C1597 1.388 . S
C1599 C1600 1.366 . S
C1600 C1599 1.366 . S
C1600 C1601 1.414 . S
C1600 C1603 1.499 . S
C1601 H1575 0.950 . S
C1601 C1600 1.414 . S
C1601 C1602 1.374 . S
C1602 H1576 0.950 . S
C1602 C1598 1.385 . S
C1602 C1601 1.374 . S
C1603 C1600 1.499 . S
C1603 C1604 1.373 . S
C1603 C1605 1.389 . S
C1604 H1577 0.950 . S
C1604 C1590 1.377 . S
C1604 C1603 1.373 . S
C1605 C1589 1.377 . S
C1605 C1603 1.389 . S
C1605 C1606 1.524 . S
C1606 C1605 1.524 . S
C1606 C1607 1.397 . S
C1606 C1611 1.363 . S
C1607 H1578 0.950 . S
C1607 C1606 1.397 . S
C1607 C1608 1.334 . S
C1608 H1579 0.950 . S
C1608 C1607 1.334 . S
C1608 C1609 1.287 . S
C1609 C1608 1.287 . S
C1609 C1610 1.524 . S
C1609 H1612 0.999 . S
C1610 H1580 0.950 . S
C1610 C1609 1.524 . S
C1610 C1611 1.415 . S
C1611 H1581 0.950 . S
C1611 C1606 1.363 . S
C1611 C1610 1.415 . S
H1612 C1609 0.999 . S
H1613 C1594 0.913 . S
H1614 C1632 0.951 . S
H1615 C1634 0.951 . S
H1616 C1636 0.950 . S
H1617 C1637 0.950 . S
H1618 C1639 0.950 . S
H1619 C1642 0.950 . S
H1620 C1643 0.950 . S
H1621 C1645 0.950 . S
H1622 C1646 0.950 . S
H1623 C1647 0.951 . S
H1624 C1649 0.951 . S
H1625 C1651 0.950 . S
H1626 C1652 0.950 . S
H1627 C1654 0.950 . S
H1628 C1657 0.950 . S
H1629 C1658 0.950 . S
H1630 C1660 0.950 . S
H1631 C1661 0.950 . S
C1632 H1614 0.951 . S
C1632 C1633 1.366 . S
C1632 C1634 1.388 . S
C1633 C1632 1.366 . S
C1633 C1637 1.385 . S
C1634 H1615 0.951 . S
C1634 C1632 1.388 . S
C1634 C1635 1.366 . S
C1635 C1634 1.366 . S
C1635 C1636 1.414 . S
C1635 C1638 1.499 . S
C1636 H1616 0.950 . S
C1636 C1635 1.414 . S
C1636 C1637 1.374 . S
C1637 H1617 0.950 . S
C1637 C1633 1.385 . S
C1637 C1636 1.374 . S
C1638 C1635 1.499 . S
C1638 C1639 1.373 . S
C1638 C1640 1.389 . S
C1639 H1618 0.950 . S
C1639 C1638 1.373 . S
C1639 C1655 1.377 . S
C1640 C1638 1.389 . S
C1640 C1641 1.524 . S
C1640 C1654 1.377 . S
C1641 C1640 1.524 . S
C1641 C1642 1.397 . S
C1641 C1646 1.363 . S
C1642 H1619 0.950 . S
C1642 C1641 1.397 . S
C1642 C1643 1.334 . S
C1643 H1620 0.950 . S
C1643 C1642 1.334 . S
C1643 C1644 1.287 . S
C1644 C1643 1.287 . S
C1644 C1645 1.524 . S
C1644 H1663 0.913 . S
C1645 H1621 0.950 . S
C1645 C1644 1.524 . S
C1645 C1646 1.415 . S
C1646 H1622 0.950 . S
C1646 C1641 1.363 . S
C1646 C1645 1.415 . S
C1647 H1623 0.951 . S
C1647 C1648 1.366 . S
C1647 C1649 1.388 . S
C1648 C1647 1.366 . S
C1648 C1652 1.385 . S
C1649 H1624 0.951 . S
C1649 C1647 1.388 . S
C1649 C1650 1.366 . S
C1650 C1649 1.366 . S
C1650 C1651 1.414 . S
C1650 C1653 1.499 . S
C1651 H1625 0.950 . S
C1651 C1650 1.414 . S
C1651 C1652 1.374 . S
C1652 H1626 0.950 . S
C1652 C1648 1.385 . S
C1652 C1651 1.374 . S
C1653 C1650 1.499 . S
C1653 C1654 1.373 . S
C1653 C1655 1.389 . S
C1654 H1627 0.950 . S
C1654 C1640 1.377 . S
C1654 C1653 1.373 . S
C1655 C1639 1.377 . S
C1655 C1653 1.389 . S
C1655 C1656 1.524 . S
C1656 C1655 1.524 . S
C1656 C1657 1.397 . S
C1656 C1661 1.363 . S
C1657 H1628 0.950 . S
C1657 C1656 1.397 . S
C1657 C1658 1.334 . S
C1658 H1629 0.950 . S
C1658 C1657 1.334 . S
C1658 C1659 1.287 . S
C1659 C1658 1.287 . S
C1659 C1660 1.524 . S
C1659 H1662 0.999 . S
C1660 H1630 0.950 . S
C1660 C1659 1.524 . S
C1660 C1661 1.415 . S
C1661 H1631 0.950 . S
C1661 C1656 1.363 . S
C1661 C1660 1.415 . S
H1662 C1659 0.999 . S
H1663 C1644 0.913 . S
H1664 C1682 0.951 . S
H1665 C1684 0.951 . S
H1666 C1686 0.950 . S
H1667 C1687 0.950 . S
H1668 C1689 0.950 . S
H1669 C1692 0.950 . S
H1670 C1693 0.950 . S
H1671 C1695 0.950 . S
H1672 C1696 0.950 . S
H1673 C1697 0.951 . S
H1674 C1699 0.951 . S
H1675 C1701 0.950 . S
H1676 C1702 0.950 . S
H1677 C1704 0.950 . S
H1678 C1707 0.950 . S
H1679 C1708 0.950 . S
H1680 C1710 0.950 . S
H1681 C1711 0.950 . S
C1682 H1664 0.951 . S
C1682 C1683 1.366 . S
C1682 C1684 1.388 . S
C1683 C1682 1.366 . S
C1683 C1687 1.385 . S
C1684 H1665 0.951 . S
C1684 C1682 1.388 . S
C1684 C1685 1.366 . S
C1685 C1684 1.366 . S
C1685 C1686 1.414 . S
C1685 C1688 1.499 . S
C1686 H1666 0.950 . S
C1686 C1685 1.414 . S
C1686 C1687 1.374 . S
C1687 H1667 0.950 . S
C1687 C1683 1.385 . S
C1687 C1686 1.374 . S
C1688 C1685 1.499 . S
C1688 C1689 1.373 . S
C1688 C1690 1.389 . S
C1689 H1668 0.950 . S
C1689 C1688 1.373 . S
C1689 C1705 1.377 . S
C1690 C1688 1.389 . S
C1690 C1691 1.524 . S
C1690 C1704 1.377 . S
C1691 C1690 1.524 . S
C1691 C1692 1.397 . S
C1691 C1696 1.363 . S
C1692 H1669 0.950 . S
C1692 C1691 1.397 . S
C1692 C1693 1.334 . S
C1693 H1670 0.950 . S
C1693 C1692 1.334 . S
C1693 C1694 1.287 . S
C1694 C1693 1.287 . S
C1694 C1695 1.524 . S
C1694 H1713 0.913 . S
C1695 H1671 0.950 . S
C1695 C1694 1.524 . S
C1695 C1696 1.415 . S
C1696 H1672 0.950 . S
C1696 C1691 1.363 . S
C1696 C1695 1.415 . S
C1697 H1673 0.951 . S
C1697 C1698 1.366 . S
C1697 C1699 1.388 . S
C1698 C1697 1.366 . S
C1698 C1702 1.385 . S
C1699 H1674 0.951 . S
C1699 C1697 1.388 . S
C1699 C1700 1.366 . S
C1700 C1699 1.366 . S
C1700 C1701 1.414 . S
C1700 C1703 1.499 . S
C1701 H1675 0.950 . S
C1701 C1700 1.414 . S
C1701 C1702 1.374 . S
C1702 H1676 0.950 . S
C1702 C1698 1.385 . S
C1702 C1701 1.374 . S
C1703 C1700 1.499 . S
C1703 C1704 1.373 . S
C1703 C1705 1.389 . S
C1704 H1677 0.950 . S
C1704 C1690 1.377 . S
C1704 C1703 1.373 . S
C1705 C1689 1.377 . S
C1705 C1703 1.389 . S
C1705 C1706 1.524 . S
C1706 C1705 1.524 . S
C1706 C1707 1.397 . S
C1706 C1711 1.363 . S
C1707 H1678 0.950 . S
C1707 C1706 1.397 . S
C1707 C1708 1.334 . S
C1708 H1679 0.950 . S
C1708 C1707 1.334 . S
C1708 C1709 1.287 . S
C1709 C1708 1.287 . S
C1709 C1710 1.524 . S
C1709 H1712 0.999 . S
C1710 H1680 0.950 . S
C1710 C1709 1.524 . S
C1710 C1711 1.415 . S
C1711 H1681 0.950 . S
C1711 C1706 1.363 . S
C1711 C1710 1.415 . S
H1712 C1709 0.999 . S
H1713 C1694 0.913 . S
H1714 C1732 0.951 . S
H1715 C1734 0.951 . S
H1716 C1736 0.950 . S
H1717 C1737 0.950 . S
H1718 C1739 0.950 . S
H1719 C1742 0.950 . S
H1720 C1743 0.950 . S
H1721 C1745 0.950 . S
H1722 C1746 0.950 . S
H1723 C1747 0.951 . S
H1724 C1749 0.951 . S
H1725 C1751 0.950 1_565 S
H1726 C1752 0.950 1_565 S
H1727 C1754 0.950 . S
H1728 C1757 0.950 . S
H1729 C1758 0.950 . S
H1730 C1760 0.950 . S
H1731 C1761 0.950 . S
C1732 H1714 0.951 . S
C1732 C1733 1.366 1_565 S
C1732 C1734 1.388 . S
C1733 C1732 1.366 1_545 S
C1733 C1737 1.385 . S
C1734 H1715 0.951 . S
C1734 C1732 1.388 . S
C1734 C1735 1.366 1_565 S
C1735 C1734 1.366 1_545 S
C1735 C1736 1.414 . S
C1735 C1738 1.499 . S
C1736 H1716 0.950 . S
C1736 C1735 1.414 . S
C1736 C1737 1.374 . S
C1737 H1717 0.950 . S
C1737 C1733 1.385 . S
C1737 C1736 1.374 . S
C1738 C1735 1.499 . S
C1738 C1739 1.373 . S
C1738 C1740 1.389 . S
C1739 H1718 0.950 . S
C1739 C1738 1.373 . S
C1739 C1755 1.377 . S
C1740 C1738 1.389 . S
C1740 C1741 1.524 1_545 S
C1740 C1754 1.377 . S
C1741 C1740 1.524 1_565 S
C1741 C1742 1.397 1_565 S
C1741 C1746 1.363 . S
C1742 H1719 0.950 . S
C1742 C1741 1.397 1_545 S
C1742 C1743 1.334 . S
C1743 H1720 0.950 . S
C1743 C1742 1.334 . S
C1743 C1744 1.287 1_545 S
C1744 C1743 1.287 1_565 S
C1744 C1745 1.524 . S
C1744 H1763 0.913 . S
C1745 H1721 0.950 . S
C1745 C1744 1.524 . S
C1745 C1746 1.415 . S
C1746 H1722 0.950 . S
C1746 C1741 1.363 . S
C1746 C1745 1.415 . S
C1747 H1723 0.951 . S
C1747 C1748 1.366 . S
C1747 C1749 1.388 . S
C1748 C1747 1.366 . S
C1748 C1752 1.385 . S
C1749 H1724 0.951 . S
C1749 C1747 1.388 . S
C1749 C1750 1.366 . S
C1750 C1749 1.366 . S
C1750 C1751 1.414 . S
C1750 C1753 1.499 . S
C1751 H1725 0.950 1_545 S
C1751 C1750 1.414 . S
C1751 C1752 1.374 . S
C1752 H1726 0.950 1_545 S
C1752 C1748 1.385 . S
C1752 C1751 1.374 . S
C1753 C1750 1.499 . S
C1753 C1754 1.373 . S
C1753 C1755 1.389 . S
C1754 H1727 0.950 . S
C1754 C1740 1.377 . S
C1754 C1753 1.373 . S
C1755 C1739 1.377 . S
C1755 C1753 1.389 . S
C1755 C1756 1.524 . S
C1756 C1755 1.524 . S
C1756 C1757 1.397 . S
C1756 C1761 1.363 . S
C1757 H1728 0.950 . S
C1757 C1756 1.397 . S
C1757 C1758 1.334 . S
C1758 H1729 0.950 . S
C1758 C1757 1.334 . S
C1758 C1759 1.287 . S
C1759 C1758 1.287 . S
C1759 C1760 1.524 . S
C1759 H1762 0.999 . S
C1760 H1730 0.950 . S
C1760 C1759 1.524 . S
C1760 C1761 1.415 . S
C1761 H1731 0.950 . S
C1761 C1756 1.363 . S
C1761 C1760 1.415 . S
H1762 C1759 0.999 . S
H1763 C1744 0.913 . S
H1764 C1782 0.951 . S
H1765 C1784 0.951 . S
H1766 C1786 0.950 . S
H1767 C1787 0.950 . S
H1768 C1789 0.950 . S
H1769 C1792 0.950 . S
H1770 C1793 0.950 . S
H1771 C1795 0.950 . S
H1772 C1796 0.950 . S
H1773 C1797 0.951 . S
H1774 C1799 0.951 . S
H1775 C1801 0.950 . S
H1776 C1802 0.950 . S
H1777 C1804 0.950 . S
H1778 C1807 0.950 . S
H1779 C1808 0.950 . S
H1780 C1810 0.950 . S
H1781 C1811 0.950 . S
C1782 H1764 0.951 . S
C1782 C1783 1.366 . S
C1782 C1784 1.388 . S
C1783 C1782 1.366 . S
C1783 C1787 1.385 . S
C1784 H1765 0.951 . S
C1784 C1782 1.388 . S
C1784 C1785 1.366 . S
C1785 C1784 1.366 . S
C1785 C1786 1.414 . S
C1785 C1788 1.499 . S
C1786 H1766 0.950 . S
C1786 C1785 1.414 . S
C1786 C1787 1.374 . S
C1787 H1767 0.950 . S
C1787 C1783 1.385 . S
C1787 C1786 1.374 . S
C1788 C1785 1.499 . S
C1788 C1789 1.373 . S
C1788 C1790 1.389 1_556 S
C1789 H1768 0.950 . S
C1789 C1788 1.373 . S
C1789 C1805 1.377 . S
C1790 C1788 1.389 1_554 S
C1790 C1791 1.524 . S
C1790 C1804 1.377 . S
C1791 C1790 1.524 . S
C1791 C1792 1.397 . S
C1791 C1796 1.363 . S
C1792 H1769 0.950 . S
C1792 C1791 1.397 . S
C1792 C1793 1.334 . S
C1793 H1770 0.950 . S
C1793 C1792 1.334 . S
C1793 C1794 1.287 . S
C1794 C1793 1.287 . S
C1794 C1795 1.524 . S
C1794 H1813 0.913 . S
C1795 H1771 0.950 . S
C1795 C1794 1.524 . S
C1795 C1796 1.415 . S
C1796 H1772 0.950 . S
C1796 C1791 1.363 . S
C1796 C1795 1.415 . S
C1797 H1773 0.951 . S
C1797 C1798 1.366 . S
C1797 C1799 1.388 . S
C1798 C1797 1.366 . S
C1798 C1802 1.385 . S
C1799 H1774 0.951 . S
C1799 C1797 1.388 . S
C1799 C1800 1.366 . S
C1800 C1799 1.366 . S
C1800 C1801 1.414 . S
C1800 C1803 1.499 . S
C1801 H1775 0.950 . S
C1801 C1800 1.414 . S
C1801 C1802 1.374 . S
C1802 H1776 0.950 . S
C1802 C1798 1.385 . S
C1802 C1801 1.374 . S
C1803 C1800 1.499 . S
C1803 C1804 1.373 . S
C1803 C1805 1.389 1_554 S
C1804 H1777 0.950 . S
C1804 C1790 1.377 . S
C1804 C1803 1.373 . S
C1805 C1789 1.377 . S
C1805 C1803 1.389 1_556 S
C1805 C1806 1.524 . S
C1806 C1805 1.524 . S
C1806 C1807 1.397 . S
C1806 C1811 1.363 . S
C1807 H1778 0.950 . S
C1807 C1806 1.397 . S
C1807 C1808 1.334 . S
C1808 H1779 0.950 . S
C1808 C1807 1.334 . S
C1808 C1809 1.287 . S
C1809 C1808 1.287 . S
C1809 C1810 1.524 . S
C1809 H1812 0.999 . S
C1810 H1780 0.950 . S
C1810 C1809 1.524 . S
C1810 C1811 1.415 . S
C1811 H1781 0.950 . S
C1811 C1806 1.363 . S
C1811 C1810 1.415 . S
H1812 C1809 0.999 . S
H1813 C1794 0.913 . S
H1814 C1832 0.951 . S
H1815 C1834 0.951 . S
H1816 C1836 0.950 . S
H1817 C1837 0.950 1_655 S
H1818 C1839 0.950 1_545 S
H1819 C1842 0.950 . S
H1820 C1843 0.950 . S
H1821 C1845 0.950 . S
H1822 C1846 0.950 . S
H1823 C1847 0.951 . S
H1824 C1849 0.951 . S
H1825 C1851 0.950 . S
H1826 C1852 0.950 . S
H1827 C1854 0.950 . S
H1828 C1857 0.950 . S
H1829 C1858 0.950 . S
H1830 C1860 0.950 . S
H1831 C1861 0.950 . S
C1832 H1814 0.951 . S
C1832 C1833 1.366 1_455 S
C1832 C1834 1.388 . S
C1833 C1832 1.366 1_655 S
C1833 C1837 1.385 1_655 S
C1834 H1815 0.951 . S
C1834 C1832 1.388 . S
C1834 C1835 1.366 . S
C1835 C1834 1.366 . S
C1835 C1836 1.414 . S
C1835 C1838 1.499 . S
C1836 H1816 0.950 . S
C1836 C1835 1.414 . S
C1836 C1837 1.374 . S
C1837 H1817 0.950 1_455 S
C1837 C1833 1.385 1_455 S
C1837 C1836 1.374 . S
C1838 C1835 1.499 . S
C1838 C1839 1.373 . S
C1838 C1840 1.389 . S
C1839 H1818 0.950 1_565 S
C1839 C1838 1.373 . S
C1839 C1855 1.377 . S
C1840 C1838 1.389 . S
C1840 C1841 1.524 . S
C1840 C1854 1.377 . S
C1841 C1840 1.524 . S
C1841 C1842 1.397 . S
C1841 C1846 1.363 . S
C1842 H1819 0.950 . S
C1842 C1841 1.397 . S
C1842 C1843 1.334 . S
C1843 H1820 0.950 . S
C1843 C1842 1.334 . S
C1843 C1844 1.287 . S
C1844 C1843 1.287 . S
C1844 C1845 1.524 . S
C1844 H1863 0.913 . S
C1845 H1821 0.950 . S
C1845 C1844 1.524 . S
C1845 C1846 1.415 . S
C1846 H1822 0.950 . S
C1846 C1841 1.363 . S
C1846 C1845 1.415 . S
C1847 H1823 0.951 . S
C1847 C1848 1.366 . S
C1847 C1849 1.388 . S
C1848 C1847 1.366 . S
C1848 C1852 1.385 . S
C1849 H1824 0.951 . S
C1849 C1847 1.388 . S
C1849 C1850 1.366 . S
C1850 C1849 1.366 . S
C1850 C1851 1.414 . S
C1850 C1853 1.499 . S
C1851 H1825 0.950 . S
C1851 C1850 1.414 . S
C1851 C1852 1.374 . S
C1852 H1826 0.950 . S
C1852 C1848 1.385 . S
C1852 C1851 1.374 . S
C1853 C1850 1.499 . S
C1853 C1854 1.373 . S
C1853 C1855 1.389 . S
C1854 H1827 0.950 . S
C1854 C1840 1.377 . S
C1854 C1853 1.373 . S
C1855 C1839 1.377 . S
C1855 C1853 1.389 . S
C1855 C1856 1.524 1_565 S
C1856 C1855 1.524 1_545 S
C1856 C1857 1.397 . S
C1856 C1861 1.363 . S
C1857 H1828 0.950 . S
C1857 C1856 1.397 . S
C1857 C1858 1.334 . S
C1858 H1829 0.950 . S
C1858 C1857 1.334 . S
C1858 C1859 1.287 . S
C1859 C1858 1.287 . S
C1859 C1860 1.524 . S
C1859 H1862 0.999 . S
C1860 H1830 0.950 . S
C1860 C1859 1.524 . S
C1860 C1861 1.415 . S
C1861 H1831 0.950 . S
C1861 C1856 1.363 . S
C1861 C1860 1.415 . S
H1862 C1859 0.999 . S
H1863 C1844 0.913 . S
H1864 C1882 0.951 . S
H1865 C1884 0.951 . S
H1866 C1886 0.950 . S
H1867 C1887 0.950 . S
H1868 C1889 0.950 . S
H1869 C1892 0.950 . S
H1870 C1893 0.950 . S
H1871 C1895 0.950 . S
H1872 C1896 0.950 . S
H1873 C1897 0.951 . S
H1874 C1899 0.951 . S
H1875 C1901 0.950 . S
H1876 C1902 0.950 . S
H1877 C1904 0.950 . S
H1878 C1907 0.950 . S
H1879 C1908 0.950 . S
H1880 C1910 0.950 . S
H1881 C1911 0.950 . S
C1882 H1864 0.951 . S
C1882 C1883 1.366 . S
C1882 C1884 1.388 . S
C1883 C1882 1.366 . S
C1883 C1887 1.385 . S
C1884 H1865 0.951 . S
C1884 C1882 1.388 . S
C1884 C1885 1.366 . S
C1885 C1884 1.366 . S
C1885 C1886 1.414 . S
C1885 C1888 1.499 . S
C1886 H1866 0.950 . S
C1886 C1885 1.414 . S
C1886 C1887 1.374 . S
C1887 H1867 0.950 . S
C1887 C1883 1.385 . S
C1887 C1886 1.374 . S
C1888 C1885 1.499 . S
C1888 C1889 1.373 . S
C1888 C1890 1.389 . S
C1889 H1868 0.950 . S
C1889 C1888 1.373 . S
C1889 C1905 1.377 . S
C1890 C1888 1.389 . S
C1890 C1891 1.524 . S
C1890 C1904 1.377 . S
C1891 C1890 1.524 . S
C1891 C1892 1.397 . S
C1891 C1896 1.363 . S
C1892 H1869 0.950 . S
C1892 C1891 1.397 . S
C1892 C1893 1.334 . S
C1893 H1870 0.950 . S
C1893 C1892 1.334 . S
C1893 C1894 1.287 . S
C1894 C1893 1.287 . S
C1894 C1895 1.524 . S
C1894 H1913 0.913 . S
C1895 H1871 0.950 . S
C1895 C1894 1.524 . S
C1895 C1896 1.415 . S
C1896 H1872 0.950 . S
C1896 C1891 1.363 . S
C1896 C1895 1.415 . S
C1897 H1873 0.951 . S
C1897 C1898 1.366 . S
C1897 C1899 1.388 . S
C1898 C1897 1.366 . S
C1898 C1902 1.385 . S
C1899 H1874 0.951 . S
C1899 C1897 1.388 . S
C1899 C1900 1.366 . S
C1900 C1899 1.366 . S
C1900 C1901 1.414 . S
C1900 C1903 1.499 . S
C1901 H1875 0.950 . S
C1901 C1900 1.414 . S
C1901 C1902 1.374 . S
C1902 H1876 0.950 . S
C1902 C1898 1.385 . S
C1902 C1901 1.374 . S
C1903 C1900 1.499 . S
C1903 C1904 1.373 . S
C1903 C1905 1.389 . S
C1904 H1877 0.950 . S
C1904 C1890 1.377 . S
C1904 C1903 1.373 . S
C1905 C1889 1.377 . S
C1905 C1903 1.389 . S
C1905 C1906 1.524 . S
C1906 C1905 1.524 . S
C1906 C1907 1.397 . S
C1906 C1911 1.363 . S
C1907 H1878 0.950 . S
C1907 C1906 1.397 . S
C1907 C1908 1.334 . S
C1908 H1879 0.950 . S
C1908 C1907 1.334 . S
C1908 C1909 1.287 . S
C1909 C1908 1.287 . S
C1909 C1910 1.524 . S
C1909 H1912 0.999 . S
C1910 H1880 0.950 . S
C1910 C1909 1.524 . S
C1910 C1911 1.415 . S
C1911 H1881 0.950 . S
C1911 C1906 1.363 . S
C1911 C1910 1.415 . S
H1912 C1909 0.999 . S
H1913 C1894 0.913 . S
H1914 C1932 0.951 . S
H1915 C1934 0.951 . S
H1916 C1936 0.950 1_545 S
H1917 C1937 0.950 1_545 S
H1918 C1939 0.930 1_545 S
H1919 C1942 0.950 . S
H1920 C1943 0.950 . S
H1921 C1945 0.950 . S
H1922 C1946 0.950 . S
H1923 C1947 0.951 . S
H1924 C1949 0.951 . S
H1925 C1951 0.950 . S
H1926 C1952 0.950 . S
H1927 C1954 0.950 . S
H1928 C1957 0.950 . S
H1929 C1958 0.950 . S
H1930 C1960 0.950 . S
H1931 C1961 0.950 . S
C1932 H1914 0.951 . S
C1932 C1933 1.366 . S
C1932 C1934 1.388 . S
C1933 C1932 1.366 . S
C1933 C1937 1.385 . S
C1934 H1915 0.951 . S
C1934 C1932 1.388 . S
C1934 C1935 1.366 . S
C1935 C1934 1.366 . S
C1935 C1936 1.414 . S
C1935 C1938 1.499 . S
C1936 H1916 0.950 1_565 S
C1936 C1935 1.414 . S
C1936 C1937 1.374 . S
C1937 H1917 0.950 1_565 S
C1937 C1933 1.385 . S
C1937 C1936 1.374 . S
C1938 C1935 1.499 . S
C1938 C1939 1.393 . S
C1938 C1940 1.389 . S
C1939 H1918 0.930 1_565 S
C1939 C1938 1.393 . S
C1939 C1955 1.377 . S
C1940 C1938 1.389 . S
C1940 C1941 1.524 . S
C1940 C1954 1.377 . S
C1941 C1940 1.524 . S
C1941 C1942 1.397 . S
C1941 C1946 1.363 . S
C1942 H1919 0.950 . S
C1942 C1941 1.397 . S
C1942 C1943 1.334 . S
C1943 H1920 0.950 . S
C1943 C1942 1.334 . S
C1943 C1944 1.287 . S
C1944 C1943 1.287 . S
C1944 C1945 1.524 . S
C1944 H1963 0.913 . S
C1945 H1921 0.950 . S
C1945 C1944 1.524 . S
C1945 C1946 1.415 . S
C1946 H1922 0.950 . S
C1946 C1941 1.363 . S
C1946 C1945 1.415 . S
C1947 H1923 0.951 . S
C1947 C1948 1.366 . S
C1947 C1949 1.388 . S
C1948 C1947 1.366 . S
C1948 C1952 1.385 . S
C1949 H1924 0.951 . S
C1949 C1947 1.388 . S
C1949 C1950 1.366 . S
C1950 C1949 1.366 . S
C1950 C1951 1.414 . S
C1950 C1953 1.499 . S
C1951 H1925 0.950 . S
C1951 C1950 1.414 . S
C1951 C1952 1.374 . S
C1952 H1926 0.950 . S
C1952 C1948 1.385 . S
C1952 C1951 1.374 . S
C1953 C1950 1.499 . S
C1953 C1954 1.373 . S
C1953 C1955 1.389 . S
C1954 H1927 0.950 . S
C1954 C1940 1.377 . S
C1954 C1953 1.373 . S
C1955 C1939 1.377 . S
C1955 C1953 1.389 . S
C1955 C1956 1.524 1_565 S
C1956 C1955 1.524 1_545 S
C1956 C1957 1.397 . S
C1956 C1961 1.363 . S
C1957 H1928 0.950 . S
C1957 C1956 1.397 . S
C1957 C1958 1.334 . S
C1958 H1929 0.950 . S
C1958 C1957 1.334 . S
C1958 C1959 1.287 . S
C1959 C1958 1.287 . S
C1959 C1960 1.524 . S
C1959 H1962 0.999 . S
C1960 H1930 0.950 . S
C1960 C1959 1.524 . S
C1960 C1961 1.415 . S
C1961 H1931 0.950 . S
C1961 C1956 1.363 . S
C1961 C1960 1.415 . S
H1962 C1959 0.999 . S
H1963 C1944 0.913 . S
H1964 C1982 0.951 . S
H1965 C1984 0.951 . S
H1966 C1986 0.944 . S
H1967 C1987 0.950 . S
H1968 C1989 0.950 . S
H1969 C1992 0.950 . S
H1970 C1993 0.950 . S
H1971 C1995 0.950 . S
H1972 C1996 0.950 . S
H1973 C1997 0.951 . S
H1974 C1999 0.951 . S
H1975 C2001 0.950 1_554 S
H1976 C2002 0.950 . S
H1977 C2004 0.950 . S
H1978 C2007 0.950 . S
H1979 C2008 0.950 . S
H1980 C2010 0.950 . S
H1981 C2011 0.950 . S
C1982 H1964 0.951 . S
C1982 C1983 1.366 . S
C1982 C1984 1.388 . S
C1983 C1982 1.366 . S
C1983 C1987 1.385 . S
C1984 H1965 0.951 . S
C1984 C1982 1.388 . S
C1984 C1985 1.366 . S
C1985 C1984 1.366 . S
C1985 C1986 1.414 . S
C1985 C1988 1.499 . S
C1986 H1966 0.944 . S
C1986 C1985 1.414 . S
C1986 C1987 1.374 . S
C1987 H1967 0.950 . S
C1987 C1983 1.385 . S
C1987 C1986 1.374 . S
C1988 C1985 1.499 . S
C1988 C1989 1.373 1_554 S
C1988 C1990 1.389 . S
C1989 H1968 0.950 . S
C1989 C1988 1.373 1_556 S
C1989 C2005 1.377 . S
C1990 C1988 1.389 . S
C1990 C1991 1.524 . S
C1990 C2004 1.377 . S
C1991 C1990 1.524 . S
C1991 C1992 1.397 . S
C1991 C1996 1.363 . S
C1992 H1969 0.950 . S
C1992 C1991 1.397 . S
C1992 C1993 1.334 . S
C1993 H1970 0.950 . S
C1993 C1992 1.334 . S
C1993 C1994 1.287 . S
C1994 C1993 1.287 . S
C1994 C1995 1.524 . S
C1994 H2013 0.913 . S
C1995 H1971 0.950 . S
C1995 C1994 1.524 . S
C1995 C1996 1.415 . S
C1996 H1972 0.950 . S
C1996 C1991 1.363 . S
C1996 C1995 1.415 . S
C1997 H1973 0.951 . S
C1997 C1998 1.366 . S
C1997 C1999 1.388 . S
C1998 C1997 1.366 . S
C1998 C2002 1.385 . S
C1999 H1974 0.951 . S
C1999 C1997 1.388 . S
C1999 C2000 1.366 . S
C2000 C1999 1.366 . S
C2000 C2001 1.414 . S
C2000 C2003 1.499 . S
C2001 H1975 0.950 1_556 S
C2001 C2000 1.414 . S
C2001 C2002 1.374 . S
C2002 H1976 0.950 . S
C2002 C1998 1.385 . S
C2002 C2001 1.374 . S
C2003 C2000 1.499 . S
C2003 C2004 1.373 1_556 S
C2003 C2005 1.389 . S
C2004 H1977 0.950 . S
C2004 C1990 1.377 . S
C2004 C2003 1.373 1_554 S
C2005 C1989 1.377 . S
C2005 C2003 1.389 . S
C2005 C2006 1.524 . S
C2006 C2005 1.524 . S
C2006 C2007 1.397 . S
C2006 C2011 1.363 . S
C2007 H1978 0.950 . S
C2007 C2006 1.397 . S
C2007 C2008 1.334 . S
C2008 H1979 0.950 . S
C2008 C2007 1.334 . S
C2008 C2009 1.287 . S
C2009 C2008 1.287 . S
C2009 C2010 1.524 . S
C2009 H2012 0.999 . S
C2010 H1980 0.950 . S
C2010 C2009 1.524 . S
C2010 C2011 1.415 . S
C2011 H1981 0.950 . S
C2011 C2006 1.363 . S
C2011 C2010 1.415 . S
H2012 C2009 0.999 . S
H2013 C1994 0.913 . S
H2014 C2032 0.951 1_565 S
H2015 C2034 0.951 1_565 S
H2016 C2036 0.950 . S
H2017 C2037 0.950 1_455 S
H2018 C2039 0.950 . S
H2019 C2042 0.950 1_545 S
H2020 C2043 0.950 . S
H2021 C2045 0.950 . S
H2022 C2046 0.950 . S
H2023 C2047 0.951 . S
H2024 C2049 0.951 . S
H2025 C2051 0.950 . S
H2026 C2052 0.950 . S
H2027 C2054 0.950 1_565 S
H2028 C2057 0.950 . S
H2029 C2058 0.950 . S
H2030 C2060 0.950 . S
H2031 C2061 0.950 . S
C2032 H2014 0.951 1_545 S
C2032 C2033 1.366 1_655 S
C2032 C2034 1.388 . S
C2033 C2032 1.366 1_455 S
C2033 C2037 1.385 1_455 S
C2034 H2015 0.951 1_545 S
C2034 C2032 1.388 . S
C2034 C2035 1.366 . S
C2035 C2034 1.366 . S
C2035 C2036 1.414 . S
C2035 C2038 1.499 . S
C2036 H2016 0.950 . S
C2036 C2035 1.414 . S
C2036 C2037 1.374 . S
C2037 H2017 0.950 1_655 S
C2037 C2033 1.385 1_655 S
C2037 C2036 1.374 . S
C2038 C2035 1.499 . S
C2038 C2039 1.373 . S
C2038 C2040 1.389 . S
C2039 H2018 0.950 . S
C2039 C2038 1.373 . S
C2039 C2055 1.377 . S
C2040 C2038 1.389 . S
C2040 C2041 1.524 1_545 S
C2040 C2054 1.377 . S
C2041 C2040 1.524 1_565 S
C2041 C2042 1.397 . S
C2041 C2046 1.363 . S
C2042 H2019 0.950 1_565 S
C2042 C2041 1.397 . S
C2042 C2043 1.334 . S
C2043 H2020 0.950 . S
C2043 C2042 1.334 . S
C2043 C2044 1.287 . S
C2044 C2043 1.287 . S
C2044 C2045 1.524 . S
C2044 H2063 0.913 . S
C2045 H2021 0.950 . S
C2045 C2044 1.524 . S
C2045 C2046 1.415 . S
C2046 H2022 0.950 . S
C2046 C2041 1.363 . S
C2046 C2045 1.415 . S
C2047 H2023 0.951 . S
C2047 C2048 1.366 . S
C2047 C2049 1.388 . S
C2048 C2047 1.366 . S
C2048 C2052 1.385 1_545 S
C2049 H2024 0.951 . S
C2049 C2047 1.388 . S
C2049 C2050 1.366 . S
C2050 C2049 1.366 . S
C2050 C2051 1.414 1_545 S
C2050 C2053 1.499 . S
C2051 H2025 0.950 . S
C2051 C2050 1.414 1_565 S
C2051 C2052 1.374 . S
C2052 H2026 0.950 . S
C2052 C2048 1.385 1_565 S
C2052 C2051 1.374 . S
C2053 C2050 1.499 . S
C2053 C2054 1.373 . S
C2053 C2055 1.389 . S
C2054 H2027 0.950 1_545 S
C2054 C2040 1.377 . S
C2054 C2053 1.373 . S
C2055 C2039 1.377 . S
C2055 C2053 1.389 . S
C2055 C2056 1.524 . S
C2056 C2055 1.524 . S
C2056 C2057 1.397 . S
C2056 C2061 1.363 . S
C2057 H2028 0.950 . S
C2057 C2056 1.397 . S
C2057 C2058 1.334 . S
C2058 H2029 0.950 . S
C2058 C2057 1.334 . S
C2058 C2059 1.287 . S
C2059 C2058 1.287 . S
C2059 C2060 1.524 . S
C2059 H2062 0.999 . S
C2060 H2030 0.950 . S
C2060 C2059 1.524 . S
C2060 C2061 1.415 . S
C2061 H2031 0.950 . S
C2061 C2056 1.363 . S
C2061 C2060 1.415 . S
H2062 C2059 0.999 . S
H2063 C2044 0.913 . S
H2064 C2082 0.951 . S
H2065 C2084 0.951 . S
H2066 C2086 0.950 . S
H2067 C2087 0.950 . S
H2068 C2089 0.950 . S
H2069 C2092 0.950 . S
H2070 C2093 0.950 . S
H2071 C2095 0.950 . S
H2072 C2096 0.950 . S
H2073 C2097 0.951 . S
H2074 C2099 0.951 . S
H2075 C2101 0.950 . S
H2076 C2102 0.950 . S
H2077 C2104 0.950 . S
H2078 C2107 0.950 . S
H2079 C2108 0.950 . S
H2080 C2110 0.950 . S
H2081 C2111 0.950 . S
C2082 H2064 0.951 . S
C2082 C2083 1.366 . S
C2082 C2084 1.388 . S
C2083 C2082 1.366 . S
C2083 C2087 1.385 . S
C2084 H2065 0.951 . S
C2084 C2082 1.388 . S
C2084 C2085 1.366 . S
C2085 C2084 1.366 . S
C2085 C2086 1.414 . S
C2085 C2088 1.499 . S
C2086 H2066 0.950 . S
C2086 C2085 1.414 . S
C2086 C2087 1.374 . S
C2087 H2067 0.950 . S
C2087 C2083 1.385 . S
C2087 C2086 1.374 . S
C2088 C2085 1.499 . S
C2088 C2089 1.373 . S
C2088 C2090 1.389 . S
C2089 H2068 0.950 . S
C2089 C2088 1.373 . S
C2089 C2105 1.377 . S
C2090 C2088 1.389 . S
C2090 C2091 1.524 . S
C2090 C2104 1.377 . S
C2091 C2090 1.524 . S
C2091 C2092 1.397 . S
C2091 C2096 1.363 . S
C2092 H2069 0.950 . S
C2092 C2091 1.397 . S
C2092 C2093 1.334 . S
C2093 H2070 0.950 . S
C2093 C2092 1.334 . S
C2093 C2094 1.287 . S
C2094 C2093 1.287 . S
C2094 C2095 1.524 . S
C2094 H2113 0.913 . S
C2095 H2071 0.950 . S
C2095 C2094 1.524 . S
C2095 C2096 1.415 . S
C2096 H2072 0.950 . S
C2096 C2091 1.363 . S
C2096 C2095 1.415 . S
C2097 H2073 0.951 . S
C2097 C2098 1.366 . S
C2097 C2099 1.388 . S
C2098 C2097 1.366 . S
C2098 C2102 1.385 . S
C2099 H2074 0.951 . S
C2099 C2097 1.388 . S
C2099 C2100 1.366 . S
C2100 C2099 1.366 . S
C2100 C2101 1.414 . S
C2100 C2103 1.499 . S
C2101 H2075 0.950 . S
C2101 C2100 1.414 . S
C2101 C2102 1.374 . S
C2102 H2076 0.950 . S
C2102 C2098 1.385 . S
C2102 C2101 1.374 . S
C2103 C2100 1.499 . S
C2103 C2104 1.373 . S
C2103 C2105 1.389 . S
C2104 H2077 0.950 . S
C2104 C2090 1.377 . S
C2104 C2103 1.373 . S
C2105 C2089 1.377 . S
C2105 C2103 1.389 . S
C2105 C2106 1.524 . S
C2106 C2105 1.524 . S
C2106 C2107 1.397 . S
C2106 C2111 1.363 1_545 S
C2107 H2078 0.950 . S
C2107 C2106 1.397 . S
C2107 C2108 1.334 . S
C2108 H2079 0.950 . S
C2108 C2107 1.334 . S
C2108 C2109 1.287 1_545 S
C2109 C2108 1.287 1_565 S
C2109 C2110 1.524 . S
C2109 H2112 0.999 . S
C2110 H2080 0.950 . S
C2110 C2109 1.524 . S
C2110 C2111 1.415 . S
C2111 H2081 0.950 . S
C2111 C2106 1.363 1_565 S
C2111 C2110 1.415 . S
H2112 C2109 0.999 . S
H2113 C2094 0.913 . S
H2114 C2132 0.951 . S
H2115 C2134 0.951 . S
H2116 C2136 0.950 . S
H2117 C2137 0.950 . S
H2118 C2139 0.950 . S
H2119 C2142 0.950 . S
H2120 C2143 0.950 . S
H2121 C2145 0.950 . S
H2122 C2146 0.950 . S
H2123 C2147 0.951 . S
H2124 C2149 0.951 . S
H2125 C2151 0.950 . S
H2126 C2152 0.950 . S
H2127 C2154 0.950 . S
H2128 C2157 0.950 . S
H2129 C2158 0.950 . S
H2130 C2160 0.950 . S
H2131 C2161 0.950 . S
C2132 H2114 0.951 . S
C2132 C2133 1.366 . S
C2132 C2134 1.388 . S
C2133 C2132 1.366 . S
C2133 C2137 1.385 . S
C2134 H2115 0.951 . S
C2134 C2132 1.388 . S
C2134 C2135 1.366 . S
C2135 C2134 1.366 . S
C2135 C2136 1.414 . S
C2135 C2138 1.499 . S
C2136 H2116 0.950 . S
C2136 C2135 1.414 . S
C2136 C2137 1.374 . S
C2137 H2117 0.950 . S
C2137 C2133 1.385 . S
C2137 C2136 1.374 . S
C2138 C2135 1.499 . S
C2138 C2139 1.373 . S
C2138 C2140 1.389 . S
C2139 H2118 0.950 . S
C2139 C2138 1.373 . S
C2139 C2155 1.377 . S
C2140 C2138 1.389 . S
C2140 C2141 1.524 . S
C2140 C2154 1.377 . S
C2141 C2140 1.524 . S
C2141 C2142 1.397 . S
C2141 C2146 1.363 . S
C2142 H2119 0.950 . S
C2142 C2141 1.397 . S
C2142 C2143 1.334 . S
C2143 H2120 0.950 . S
C2143 C2142 1.334 . S
C2143 C2144 1.287 . S
C2144 C2143 1.287 . S
C2144 C2145 1.524 . S
C2144 H2163 0.913 . S
C2145 H2121 0.950 . S
C2145 C2144 1.524 . S
C2145 C2146 1.415 . S
C2146 H2122 0.950 . S
C2146 C2141 1.363 . S
C2146 C2145 1.415 . S
C2147 H2123 0.951 . S
C2147 C2148 1.366 . S
C2147 C2149 1.388 . S
C2148 C2147 1.366 . S
C2148 C2152 1.385 . S
C2149 H2124 0.951 . S
C2149 C2147 1.388 . S
C2149 C2150 1.366 . S
C2150 C2149 1.366 . S
C2150 C2151 1.414 . S
C2150 C2153 1.499 . S
C2151 H2125 0.950 . S
C2151 C2150 1.414 . S
C2151 C2152 1.374 . S
C2152 H2126 0.950 . S
C2152 C2148 1.385 . S
C2152 C2151 1.374 . S
C2153 C2150 1.499 . S
C2153 C2154 1.373 . S
C2153 C2155 1.389 . S
C2154 H2127 0.950 . S
C2154 C2140 1.377 . S
C2154 C2153 1.373 . S
C2155 C2139 1.377 . S
C2155 C2153 1.389 . S
C2155 C2156 1.524 . S
C2156 C2155 1.524 . S
C2156 C2157 1.397 . S
C2156 C2161 1.363 . S
C2157 H2128 0.950 . S
C2157 C2156 1.397 . S
C2157 C2158 1.334 . S
C2158 H2129 0.950 . S
C2158 C2157 1.334 . S
C2158 C2159 1.287 . S
C2159 C2158 1.287 . S
C2159 C2160 1.524 . S
C2159 H2162 0.999 . S
C2160 H2130 0.950 . S
C2160 C2159 1.524 . S
C2160 C2161 1.415 . S
C2161 H2131 0.950 . S
C2161 C2156 1.363 . S
C2161 C2160 1.415 . S
H2162 C2159 0.999 . S
H2163 C2144 0.913 . S
H2164 C2182 0.951 . S
H2165 C2184 0.951 . S
H2166 C2186 0.950 . S
H2167 C2187 0.950 . S
H2168 C2189 0.950 . S
H2169 C2192 0.950 . S
H2170 C2193 0.950 . S
H2171 C2195 0.950 . S
H2172 C2196 0.950 . S
H2173 C2197 0.951 . S
H2174 C2199 0.951 . S
H2175 C2201 0.950 . S
H2176 C2202 0.950 . S
H2177 C2204 0.950 . S
H2178 C2207 0.950 . S
H2179 C2208 0.950 . S
H2180 C2210 0.950 . S
H2181 C2211 0.950 . S
C2182 H2164 0.951 . S
C2182 C2183 1.366 . S
C2182 C2184 1.388 . S
C2183 C2182 1.366 . S
C2183 C2187 1.385 . S
C2184 H2165 0.951 . S
C2184 C2182 1.388 . S
C2184 C2185 1.366 . S
C2185 C2184 1.366 . S
C2185 C2186 1.414 . S
C2185 C2188 1.499 . S
C2186 H2166 0.950 . S
C2186 C2185 1.414 . S
C2186 C2187 1.374 . S
C2187 H2167 0.950 . S
C2187 C2183 1.385 . S
C2187 C2186 1.374 . S
C2188 C2185 1.499 . S
C2188 C2189 1.373 . S
C2188 C2190 1.389 . S
C2189 H2168 0.950 . S
C2189 C2188 1.373 . S
C2189 C2205 1.377 . S
C2190 C2188 1.389 . S
C2190 C2191 1.524 . S
C2190 C2204 1.377 . S
C2191 C2190 1.524 . S
C2191 C2192 1.397 1_565 S
C2191 C2196 1.363 . S
C2192 H2169 0.950 . S
C2192 C2191 1.397 1_545 S
C2192 C2193 1.334 . S
C2193 H2170 0.950 . S
C2193 C2192 1.334 . S
C2193 C2194 1.287 . S
C2194 C2193 1.287 . S
C2194 C2195 1.524 . S
C2194 H2213 0.913 . S
C2195 H2171 0.950 . S
C2195 C2194 1.524 . S
C2195 C2196 1.415 1_545 S
C2196 H2172 0.950 . S
C2196 C2191 1.363 . S
C2196 C2195 1.415 1_565 S
C2197 H2173 0.951 . S
C2197 C2198 1.366 . S
C2197 C2199 1.388 . S
C2198 C2197 1.366 . S
C2198 C2202 1.385 . S
C2199 H2174 0.951 . S
C2199 C2197 1.388 . S
C2199 C2200 1.366 . S
C2200 C2199 1.366 . S
C2200 C2201 1.414 . S
C2200 C2203 1.499 . S
C2201 H2175 0.950 . S
C2201 C2200 1.414 . S
C2201 C2202 1.374 . S
C2202 H2176 0.950 . S
C2202 C2198 1.385 . S
C2202 C2201 1.374 . S
C2203 C2200 1.499 . S
C2203 C2204 1.373 . S
C2203 C2205 1.389 . S
C2204 H2177 0.950 . S
C2204 C2190 1.377 . S
C2204 C2203 1.373 . S
C2205 C2189 1.377 . S
C2205 C2203 1.389 . S
C2205 C2206 1.524 . S
C2206 C2205 1.524 . S
C2206 C2207 1.397 . S
C2206 C2211 1.363 . S
C2207 H2178 0.950 . S
C2207 C2206 1.397 . S
C2207 C2208 1.334 . S
C2208 H2179 0.950 . S
C2208 C2207 1.334 . S
C2208 C2209 1.287 . S
C2209 C2208 1.287 . S
C2209 C2210 1.524 . S
C2209 H2212 0.999 . S
C2210 H2180 0.950 . S
C2210 C2209 1.524 . S
C2210 C2211 1.415 . S
C2211 H2181 0.950 . S
C2211 C2206 1.363 . S
C2211 C2210 1.415 . S
H2212 C2209 0.999 . S
H2213 C2194 0.913 . S
H2214 C2232 0.951 . S
H2215 C2234 0.951 . S
H2216 C2236 0.950 . S
H2217 C2237 0.950 . S
H2218 C2239 0.950 . S
H2219 C2242 0.950 . S
H2220 C2243 0.950 . S
H2221 C2245 0.950 . S
H2222 C2246 0.950 . S
H2223 C2247 0.951 . S
H2224 C2249 0.951 . S
H2225 C2251 0.950 . S
H2226 C2252 0.950 . S
H2227 C2254 0.950 . S
H2228 C2257 0.950 . S
H2229 C2258 0.950 . S
H2230 C2260 0.950 . S
H2231 C2261 0.950 . S
C2232 H2214 0.951 . S
C2232 C2233 1.366 . S
C2232 C2234 1.388 . S
C2233 C2232 1.366 . S
C2233 C2237 1.385 . S
C2234 H2215 0.951 . S
C2234 C2232 1.388 . S
C2234 C2235 1.366 . S
C2235 C2234 1.366 . S
C2235 C2236 1.414 . S
C2235 C2238 1.499 . S
C2236 H2216 0.950 . S
C2236 C2235 1.414 . S
C2236 C2237 1.374 . S
C2237 H2217 0.950 . S
C2237 C2233 1.385 . S
C2237 C2236 1.374 . S
C2238 C2235 1.499 . S
C2238 C2239 1.373 . S
C2238 C2240 1.389 . S
C2239 H2218 0.950 . S
C2239 C2238 1.373 . S
C2239 C2255 1.377 . S
C2240 C2238 1.389 . S
C2240 C2241 1.524 . S
C2240 C2254 1.377 . S
C2241 C2240 1.524 . S
C2241 C2242 1.397 . S
C2241 C2246 1.363 . S
C2242 H2219 0.950 . S
C2242 C2241 1.397 . S
C2242 C2243 1.334 . S
C2243 H2220 0.950 . S
C2243 C2242 1.334 . S
C2243 C2244 1.287 . S
C2244 C2243 1.287 . S
C2244 C2245 1.524 . S
C2244 H2263 0.913 . S
C2245 H2221 0.950 . S
C2245 C2244 1.524 . S
C2245 C2246 1.415 . S
C2246 H2222 0.950 . S
C2246 C2241 1.363 . S
C2246 C2245 1.415 . S
C2247 H2223 0.951 . S
C2247 C2248 1.366 . S
C2247 C2249 1.388 . S
C2248 C2247 1.366 . S
C2248 C2252 1.385 . S
C2249 H2224 0.951 . S
C2249 C2247 1.388 . S
C2249 C2250 1.366 . S
C2250 C2249 1.366 . S
C2250 C2251 1.414 . S
C2250 C2253 1.499 . S
C2251 H2225 0.950 . S
C2251 C2250 1.414 . S
C2251 C2252 1.374 . S
C2252 H2226 0.950 . S
C2252 C2248 1.385 . S
C2252 C2251 1.374 . S
C2253 C2250 1.499 . S
C2253 C2254 1.373 . S
C2253 C2255 1.389 . S
C2254 H2227 0.950 . S
C2254 C2240 1.377 . S
C2254 C2253 1.373 . S
C2255 C2239 1.377 . S
C2255 C2253 1.389 . S
C2255 C2256 1.524 . S
C2256 C2255 1.524 . S
C2256 C2257 1.397 . S
C2256 C2261 1.363 . S
C2257 H2228 0.950 . S
C2257 C2256 1.397 . S
C2257 C2258 1.334 . S
C2258 H2229 0.950 . S
C2258 C2257 1.334 . S
C2258 C2259 1.287 . S
C2259 C2258 1.287 . S
C2259 C2260 1.524 . S
C2259 H2262 0.999 . S
C2260 H2230 0.950 . S
C2260 C2259 1.524 . S
C2260 C2261 1.415 . S
C2261 H2231 0.950 . S
C2261 C2256 1.363 . S
C2261 C2260 1.415 . S
H2262 C2259 0.999 . S
H2263 C2244 0.913 . S
H2264 C2282 0.951 . S
H2265 C2284 0.951 . S
H2266 C2286 0.950 . S
H2267 C2287 0.950 . S
H2268 C2289 0.950 . S
H2269 C2292 0.950 1_565 S
H2270 C2293 0.950 . S
H2271 C2295 0.950 . S
H2272 C2296 0.950 . S
H2273 C2297 0.951 . S
H2274 C2299 0.951 . S
H2275 C2301 0.950 . S
H2276 C2302 0.950 . S
H2277 C2304 0.950 . S
H2278 C2307 0.950 . S
H2279 C2308 0.950 . S
H2280 C2310 0.950 . S
H2281 C2311 0.950 . S
C2282 H2264 0.951 . S
C2282 C2283 1.366 . S
C2282 C2284 1.388 . S
C2283 C2282 1.366 . S
C2283 C2287 1.385 . S
C2284 H2265 0.951 . S
C2284 C2282 1.388 . S
C2284 C2285 1.366 . S
C2285 C2284 1.366 . S
C2285 C2286 1.414 . S
C2285 C2288 1.499 . S
C2286 H2266 0.950 . S
C2286 C2285 1.414 . S
C2286 C2287 1.374 . S
C2287 H2267 0.950 . S
C2287 C2283 1.385 . S
C2287 C2286 1.374 . S
C2288 C2285 1.499 . S
C2288 C2289 1.373 . S
C2288 C2290 1.389 . S
C2289 H2268 0.950 . S
C2289 C2288 1.373 . S
C2289 C2305 1.377 . S
C2290 C2288 1.389 . S
C2290 C2291 1.524 . S
C2290 C2304 1.377 . S
C2291 C2290 1.524 . S
C2291 C2292 1.397 1_565 S
C2291 C2296 1.363 1_565 S
C2292 H2269 0.950 1_545 S
C2292 C2291 1.397 1_545 S
C2292 C2293 1.334 . S
C2293 H2270 0.950 . S
C2293 C2292 1.334 . S
C2293 C2294 1.287 . S
C2294 C2293 1.287 . S
C2294 C2295 1.524 . S
C2294 H2313 0.913 . S
C2295 H2271 0.950 . S
C2295 C2294 1.524 . S
C2295 C2296 1.415 . S
C2296 H2272 0.950 . S
C2296 C2291 1.363 1_545 S
C2296 C2295 1.415 . S
C2297 H2273 0.951 . S
C2297 C2298 1.366 . S
C2297 C2299 1.388 . S
C2298 C2297 1.366 . S
C2298 C2302 1.385 . S
C2299 H2274 0.951 . S
C2299 C2297 1.388 . S
C2299 C2300 1.366 . S
C2300 C2299 1.366 . S
C2300 C2301 1.414 . S
C2300 C2303 1.499 . S
C2301 H2275 0.950 . S
C2301 C2300 1.414 . S
C2301 C2302 1.374 . S
C2302 H2276 0.950 . S
C2302 C2298 1.385 . S
C2302 C2301 1.374 . S
C2303 C2300 1.499 . S
C2303 C2304 1.373 . S
C2303 C2305 1.389 . S
C2304 H2277 0.950 . S
C2304 C2290 1.377 . S
C2304 C2303 1.373 . S
C2305 C2289 1.377 . S
C2305 C2303 1.389 . S
C2305 C2306 1.524 . S
C2306 C2305 1.524 . S
C2306 C2307 1.397 . S
C2306 C2311 1.363 . S
C2307 H2278 0.950 . S
C2307 C2306 1.397 . S
C2307 C2308 1.334 . S
C2308 H2279 0.950 . S
C2308 C2307 1.334 . S
C2308 C2309 1.287 . S
C2309 C2308 1.287 . S
C2309 C2310 1.524 . S
C2309 H2312 0.999 . S
C2310 H2280 0.950 . S
C2310 C2309 1.524 . S
C2310 C2311 1.415 . S
C2311 H2281 0.950 . S
C2311 C2306 1.363 . S
C2311 C2310 1.415 . S
H2312 C2309 0.999 . S
H2313 C2294 0.913 . S
H2314 C2332 0.951 . S
H2315 C2334 0.951 . S
H2316 C2336 0.950 . S
H2317 C2337 0.950 . S
H2318 C2339 0.950 . S
H2319 C2342 0.950 . S
H2320 C2343 0.950 . S
H2321 C2345 0.950 . S
H2322 C2346 0.950 . S
H2323 C2347 0.951 . S
H2324 C2349 0.951 . S
H2325 C2351 0.950 . S
H2326 C2352 0.950 . S
H2327 C2354 0.950 . S
H2328 C2357 0.950 . S
H2329 C2358 0.950 . S
H2330 C2360 0.950 . S
H2331 C2361 0.950 . S
C2332 H2314 0.951 . S
C2332 C2333 1.366 . S
C2332 C2334 1.388 . S
C2333 C2332 1.366 . S
C2333 C2337 1.385 . S
C2334 H2315 0.951 . S
C2334 C2332 1.388 . S
C2334 C2335 1.366 . S
C2335 C2334 1.366 . S
C2335 C2336 1.414 . S
C2335 C2338 1.499 . S
C2336 H2316 0.950 . S
C2336 C2335 1.414 . S
C2336 C2337 1.374 . S
C2337 H2317 0.950 . S
C2337 C2333 1.385 . S
C2337 C2336 1.374 . S
C2338 C2335 1.499 . S
C2338 C2339 1.373 . S
C2338 C2340 1.389 . S
C2339 H2318 0.950 . S
C2339 C2338 1.373 . S
C2339 C2355 1.377 . S
C2340 C2338 1.389 . S
C2340 C2341 1.524 . S
C2340 C2354 1.377 . S
C2341 C2340 1.524 . S
C2341 C2342 1.397 . S
C2341 C2346 1.363 . S
C2342 H2319 0.950 . S
C2342 C2341 1.397 . S
C2342 C2343 1.334 . S
C2343 H2320 0.950 . S
C2343 C2342 1.334 . S
C2343 C2344 1.287 . S
C2344 C2343 1.287 . S
C2344 C2345 1.524 . S
C2344 H2363 0.913 . S
C2345 H2321 0.950 . S
C2345 C2344 1.524 . S
C2345 C2346 1.415 . S
C2346 H2322 0.950 . S
C2346 C2341 1.363 . S
C2346 C2345 1.415 . S
C2347 H2323 0.951 . S
C2347 C2348 1.366 . S
C2347 C2349 1.388 . S
C2348 C2347 1.366 . S
C2348 C2352 1.385 . S
C2349 H2324 0.951 . S
C2349 C2347 1.388 . S
C2349 C2350 1.366 . S
C2350 C2349 1.366 . S
C2350 C2351 1.414 . S
C2350 C2353 1.499 . S
C2351 H2325 0.950 . S
C2351 C2350 1.414 . S
C2351 C2352 1.374 . S
C2352 H2326 0.950 . S
C2352 C2348 1.385 . S
C2352 C2351 1.374 . S
C2353 C2350 1.499 . S
C2353 C2354 1.373 . S
C2353 C2355 1.389 . S
C2354 H2327 0.950 . S
C2354 C2340 1.377 . S
C2354 C2353 1.373 . S
C2355 C2339 1.377 . S
C2355 C2353 1.389 . S
C2355 C2356 1.524 . S
C2356 C2355 1.524 . S
C2356 C2357 1.397 . S
C2356 C2361 1.363 . S
C2357 H2328 0.950 . S
C2357 C2356 1.397 . S
C2357 C2358 1.334 . S
C2358 H2329 0.950 . S
C2358 C2357 1.334 . S
C2358 C2359 1.287 . S
C2359 C2358 1.287 . S
C2359 C2360 1.524 . S
C2359 H2362 0.999 . S
C2360 H2330 0.950 . S
C2360 C2359 1.524 . S
C2360 C2361 1.415 . S
C2361 H2331 0.950 . S
C2361 C2356 1.363 . S
C2361 C2360 1.415 . S
H2362 C2359 0.999 . S
H2363 C2344 0.913 . S
H2364 C2382 0.951 . S
H2365 C2384 0.951 . S
H2366 C2386 0.950 . S
H2367 C2387 0.950 . S
H2368 C2389 0.950 . S
H2369 C2392 0.950 . S
H2370 C2393 0.950 . S
H2371 C2395 0.950 . S
H2372 C2396 0.950 . S
H2373 C2397 0.951 . S
H2374 C2399 0.951 . S
H2375 C2401 0.950 . S
H2376 C2402 0.950 . S
H2377 C2404 0.950 . S
H2378 C2407 0.958 . S
H2379 C2408 0.950 . S
H2380 C2410 0.950 . S
H2381 C2411 0.950 1_545 S
C2382 H2364 0.951 . S
C2382 C2383 1.366 . S
C2382 C2384 1.388 . S
C2383 C2382 1.366 . S
C2383 C2387 1.385 . S
C2384 H2365 0.951 . S
C2384 C2382 1.388 . S
C2384 C2385 1.366 . S
C2385 C2384 1.366 . S
C2385 C2386 1.414 . S
C2385 C2388 1.499 . S
C2386 H2366 0.950 . S
C2386 C2385 1.414 . S
C2386 C2387 1.374 . S
C2387 H2367 0.950 . S
C2387 C2383 1.385 . S
C2387 C2386 1.374 . S
C2388 C2385 1.499 . S
C2388 C2389 1.373 . S
C2388 C2390 1.389 . S
C2389 H2368 0.950 . S
C2389 C2388 1.373 . S
C2389 C2405 1.377 . S
C2390 C2388 1.389 . S
C2390 C2391 1.524 . S
C2390 C2404 1.377 . S
C2391 C2390 1.524 . S
C2391 C2392 1.397 . S
C2391 C2396 1.363 . S
C2392 H2369 0.950 . S
C2392 C2391 1.397 . S
C2392 C2393 1.334 . S
C2393 H2370 0.950 . S
C2393 C2392 1.334 . S
C2393 C2394 1.287 . S
C2394 C2393 1.287 . S
C2394 C2395 1.524 . S
C2394 H2413 0.913 . S
C2395 H2371 0.950 . S
C2395 C2394 1.524 . S
C2395 C2396 1.415 . S
C2396 H2372 0.950 . S
C2396 C2391 1.363 . S
C2396 C2395 1.415 . S
C2397 H2373 0.951 . S
C2397 C2398 1.366 . S
C2397 C2399 1.388 . S
C2398 C2397 1.366 . S
C2398 C2402 1.385 . S
C2399 H2374 0.951 . S
C2399 C2397 1.388 . S
C2399 C2400 1.366 . S
C2400 C2399 1.366 . S
C2400 C2401 1.414 . S
C2400 C2403 1.499 . S
C2401 H2375 0.950 . S
C2401 C2400 1.414 . S
C2401 C2402 1.374 . S
C2402 H2376 0.950 . S
C2402 C2398 1.385 . S
C2402 C2401 1.374 . S
C2403 C2400 1.499 . S
C2403 C2404 1.373 . S
C2403 C2405 1.389 . S
C2404 H2377 0.950 . S
C2404 C2390 1.377 . S
C2404 C2403 1.373 . S
C2405 C2389 1.377 . S
C2405 C2403 1.389 . S
C2405 C2406 1.524 . S
C2406 C2405 1.524 . S
C2406 C2407 1.397 1_545 S
C2406 C2411 1.363 1_545 S
C2407 H2378 0.958 . S
C2407 C2406 1.397 1_565 S
C2407 C2408 1.334 . S
C2408 H2379 0.950 . S
C2408 C2407 1.334 . S
C2408 C2409 1.287 . S
C2409 C2408 1.287 . S
C2409 C2410 1.524 . S
C2409 H2412 0.999 . S
C2410 H2380 0.950 . S
C2410 C2409 1.524 . S
C2410 C2411 1.415 . S
C2411 H2381 0.950 1_565 S
C2411 C2406 1.363 1_565 S
C2411 C2410 1.415 . S
H2412 C2409 0.999 . S
H2413 C2394 0.913 . S
H2414 C2432 0.951 . S
H2415 C2434 0.951 . S
H2416 C2436 0.950 . S
H2417 C2437 0.950 . S
H2418 C2439 0.950 . S
H2419 C2442 0.950 . S
H2420 C2443 0.950 . S
H2421 C2445 0.950 . S
H2422 C2446 0.950 . S
H2423 C2447 0.951 . S
H2424 C2449 0.951 . S
H2425 C2451 0.950 . S
H2426 C2452 0.950 . S
H2427 C2454 0.950 . S
H2428 C2457 0.950 . S
H2429 C2458 0.950 . S
H2430 C2460 0.950 . S
H2431 C2461 0.950 . S
C2432 H2414 0.951 . S
C2432 C2433 1.366 . S
C2432 C2434 1.388 . S
C2433 C2432 1.366 . S
C2433 C2437 1.385 . S
C2434 H2415 0.951 . S
C2434 C2432 1.388 . S
C2434 C2435 1.366 . S
C2435 C2434 1.366 . S
C2435 C2436 1.414 . S
C2435 C2438 1.499 . S
C2436 H2416 0.950 . S
C2436 C2435 1.414 . S
C2436 C2437 1.374 . S
C2437 H2417 0.950 . S
C2437 C2433 1.385 . S
C2437 C2436 1.374 . S
C2438 C2435 1.499 . S
C2438 C2439 1.373 . S
C2438 C2440 1.389 . S
C2439 H2418 0.950 . S
C2439 C2438 1.373 . S
C2439 C2455 1.377 . S
C2440 C2438 1.389 . S
C2440 C2441 1.524 . S
C2440 C2454 1.377 . S
C2441 C2440 1.524 . S
C2441 C2442 1.397 . S
C2441 C2446 1.363 . S
C2442 H2419 0.950 . S
C2442 C2441 1.397 . S
C2442 C2443 1.334 . S
C2443 H2420 0.950 . S
C2443 C2442 1.334 . S
C2443 C2444 1.287 . S
C2444 C2443 1.287 . S
C2444 C2445 1.524 . S
C2444 H2463 0.913 . S
C2445 H2421 0.950 . S
C2445 C2444 1.524 . S
C2445 C2446 1.415 . S
C2446 H2422 0.950 . S
C2446 C2441 1.363 . S
C2446 C2445 1.415 . S
C2447 H2423 0.951 . S
C2447 C2448 1.366 . S
C2447 C2449 1.388 . S
C2448 C2447 1.366 . S
C2448 C2452 1.385 . S
C2449 H2424 0.951 . S
C2449 C2447 1.388 . S
C2449 C2450 1.366 . S
C2450 C2449 1.366 . S
C2450 C2451 1.414 . S
C2450 C2453 1.499 . S
C2451 H2425 0.950 . S
C2451 C2450 1.414 . S
C2451 C2452 1.374 . S
C2452 H2426 0.950 . S
C2452 C2448 1.385 . S
C2452 C2451 1.374 . S
C2453 C2450 1.499 . S
C2453 C2454 1.373 . S
C2453 C2455 1.389 . S
C2454 H2427 0.950 . S
C2454 C2440 1.377 . S
C2454 C2453 1.373 . S
C2455 C2439 1.377 . S
C2455 C2453 1.389 . S
C2455 C2456 1.524 . S
C2456 C2455 1.524 . S
C2456 C2457 1.397 . S
C2456 C2461 1.363 . S
C2457 H2428 0.950 . S
C2457 C2456 1.397 . S
C2457 C2458 1.334 . S
C2458 H2429 0.950 . S
C2458 C2457 1.334 . S
C2458 C2459 1.287 . S
C2459 C2458 1.287 . S
C2459 C2460 1.524 . S
C2459 H2462 0.999 . S
C2460 H2430 0.950 . S
C2460 C2459 1.524 . S
C2460 C2461 1.415 . S
C2461 H2431 0.950 . S
C2461 C2456 1.363 . S
C2461 C2460 1.415 . S
H2462 C2459 0.999 . S
H2463 C2444 0.913 . S
H2464 C2482 0.951 . S
H2465 C2484 0.951 . S
H2466 C2486 0.950 . S
H2467 C2487 0.950 . S
H2468 C2489 0.950 . S
H2469 C2492 0.950 . S
H2470 C2493 0.950 . S
H2471 C2495 0.950 . S
H2472 C2496 0.950 . S
H2473 C2497 0.951 . S
H2474 C2499 0.951 . S
H2475 C2501 0.950 . S
H2476 C2502 0.950 . S
H2477 C2504 0.950 . S
H2478 C2507 0.950 . S
H2479 C2508 0.950 . S
H2480 C2510 0.950 . S
H2481 C2511 0.950 . S
C2482 H2464 0.951 . S
C2482 C2483 1.366 . S
C2482 C2484 1.388 . S
C2483 C2482 1.366 . S
C2483 C2487 1.385 . S
C2484 H2465 0.951 . S
C2484 C2482 1.388 . S
C2484 C2485 1.366 . S
C2485 C2484 1.366 . S
C2485 C2486 1.414 . S
C2485 C2488 1.499 . S
C2486 H2466 0.950 . S
C2486 C2485 1.414 . S
C2486 C2487 1.374 . S
C2487 H2467 0.950 . S
C2487 C2483 1.385 . S
C2487 C2486 1.374 . S
C2488 C2485 1.499 . S
C2488 C2489 1.373 . S
C2488 C2490 1.389 . S
C2489 H2468 0.950 . S
C2489 C2488 1.373 . S
C2489 C2505 1.377 . S
C2490 C2488 1.389 . S
C2490 C2491 1.524 . S
C2490 C2504 1.377 . S
C2491 C2490 1.524 . S
C2491 C2492 1.397 . S
C2491 C2496 1.363 . S
C2492 H2469 0.950 . S
C2492 C2491 1.397 . S
C2492 C2493 1.334 . S
C2493 H2470 0.950 . S
C2493 C2492 1.334 . S
C2493 C2494 1.287 . S
C2494 C2493 1.287 . S
C2494 C2495 1.524 . S
C2494 H2513 0.913 . S
C2495 H2471 0.950 . S
C2495 C2494 1.524 . S
C2495 C2496 1.415 . S
C2496 H2472 0.950 . S
C2496 C2491 1.363 . S
C2496 C2495 1.415 . S
C2497 H2473 0.951 . S
C2497 C2498 1.366 . S
C2497 C2499 1.388 . S
C2498 C2497 1.366 . S
C2498 C2502 1.385 . S
C2499 H2474 0.951 . S
C2499 C2497 1.388 . S
C2499 C2500 1.366 . S
C2500 C2499 1.366 . S
C2500 C2501 1.414 . S
C2500 C2503 1.499 . S
C2501 H2475 0.950 . S
C2501 C2500 1.414 . S
C2501 C2502 1.374 . S
C2502 H2476 0.950 . S
C2502 C2498 1.385 . S
C2502 C2501 1.374 . S
C2503 C2500 1.499 . S
C2503 C2504 1.373 . S
C2503 C2505 1.389 . S
C2504 H2477 0.950 . S
C2504 C2490 1.377 . S
C2504 C2503 1.373 . S
C2505 C2489 1.377 . S
C2505 C2503 1.389 . S
C2505 C2506 1.524 . S
C2506 C2505 1.524 . S
C2506 C2507 1.397 . S
C2506 C2511 1.363 . S
C2507 H2478 0.950 . S
C2507 C2506 1.397 . S
C2507 C2508 1.334 . S
C2508 H2479 0.950 . S
C2508 C2507 1.334 . S
C2508 C2509 1.287 . S
C2509 C2508 1.287 . S
C2509 C2510 1.524 . S
C2509 H2512 0.999 . S
C2510 H2480 0.950 . S
C2510 C2509 1.524 . S
C2510 C2511 1.415 . S
C2511 H2481 0.950 . S
C2511 C2506 1.363 . S
C2511 C2510 1.415 . S
H2512 C2509 0.999 . S
H2513 C2494 0.913 . S
H2514 C2532 0.951 . S
H2515 C2534 0.951 1_545 S
H2516 C2536 0.950 . S
H2517 C2537 0.950 . S
H2518 C2539 0.950 . S
H2519 C2542 0.950 . S
H2520 C2543 0.950 . S
H2521 C2545 0.950 . S
H2522 C2546 0.950 . S
H2523 C2547 0.951 . S
H2524 C2549 0.951 . S
H2525 C2551 0.950 . S
H2526 C2552 0.950 . S
H2527 C2554 0.950 . S
H2528 C2557 0.950 1_545 S
H2529 C2558 0.950 . S
H2530 C2560 0.950 . S
H2531 C2561 0.950 . S
C2532 H2514 0.951 . S
C2532 C2533 1.366 . S
C2532 C2534 1.388 . S
C2533 C2532 1.366 . S
C2533 C2537 1.385 . S
C2534 H2515 0.951 1_565 S
C2534 C2532 1.388 . S
C2534 C2535 1.366 . S
C2535 C2534 1.366 . S
C2535 C2536 1.414 . S
C2535 C2538 1.499 . S
C2536 H2516 0.950 . S
C2536 C2535 1.414 . S
C2536 C2537 1.374 . S
C2537 H2517 0.950 . S
C2537 C2533 1.385 . S
C2537 C2536 1.374 . S
C2538 C2535 1.499 . S
C2538 C2539 1.373 . S
C2538 C2540 1.389 . S
C2539 H2518 0.950 . S
C2539 C2538 1.373 . S
C2539 C2555 1.377 . S
C2540 C2538 1.389 . S
C2540 C2541 1.524 1_565 S
C2540 C2554 1.377 1_565 S
C2541 C2540 1.524 1_545 S
C2541 C2542 1.397 1_545 S
C2541 C2546 1.363 . S
C2542 H2519 0.950 . S
C2542 C2541 1.397 1_565 S
C2542 C2543 1.334 . S
C2543 H2520 0.950 . S
C2543 C2542 1.334 . S
C2543 C2544 1.287 1_565 S
C2544 C2543 1.287 1_545 S
C2544 C2545 1.524 . S
C2544 H2563 0.913 . S
C2545 H2521 0.950 . S
C2545 C2544 1.524 . S
C2545 C2546 1.415 . S
C2546 H2522 0.950 . S
C2546 C2541 1.363 . S
C2546 C2545 1.415 . S
C2547 H2523 0.951 . S
C2547 C2548 1.366 1_565 S
C2547 C2549 1.388 . S
C2548 C2547 1.366 1_545 S
C2548 C2552 1.385 . S
C2549 H2524 0.951 . S
C2549 C2547 1.388 . S
C2549 C2550 1.366 1_565 S
C2550 C2549 1.366 1_545 S
C2550 C2551 1.414 . S
C2550 C2553 1.499 1_545 S
C2551 H2525 0.950 . S
C2551 C2550 1.414 . S
C2551 C2552 1.374 . S
C2552 H2526 0.950 . S
C2552 C2548 1.385 . S
C2552 C2551 1.374 . S
C2553 C2550 1.499 1_565 S
C2553 C2554 1.373 1_565 S
C2553 C2555 1.389 . S
C2554 H2527 0.950 . S
C2554 C2540 1.377 1_545 S
C2554 C2553 1.373 1_545 S
C2555 C2539 1.377 . S
C2555 C2553 1.389 . S
C2555 C2556 1.524 . S
C2556 C2555 1.524 . S
C2556 C2557 1.397 . S
C2556 C2561 1.363 . S
C2557 H2528 0.950 1_565 S
C2557 C2556 1.397 . S
C2557 C2558 1.334 . S
C2558 H2529 0.950 . S
C2558 C2557 1.334 . S
C2558 C2559 1.287 . S
C2559 C2558 1.287 . S
C2559 C2560 1.524 . S
C2559 H2562 0.999 . S
C2560 H2530 0.950 . S
C2560 C2559 1.524 . S
C2560 C2561 1.415 . S
C2561 H2531 0.950 . S
C2561 C2556 1.363 . S
C2561 C2560 1.415 . S
H2562 C2559 0.999 . S
H2563 C2544 0.913 . S
H2564 C2582 0.951 . S
H2565 C2584 0.951 . S
H2566 C2586 0.950 . S
H2567 C2587 0.988 . S
H2568 C2589 0.950 . S
H2569 C2592 0.950 . S
H2570 C2593 0.950 . S
H2571 C2595 0.950 . S
H2572 C2596 0.950 . S
H2573 C2597 0.951 . S
H2574 C2599 0.951 . S
H2575 C2601 0.950 . S
H2576 C2602 0.950 . S
H2577 C2604 0.950 . S
H2578 C2607 0.950 . S
H2579 C2608 0.950 . S
H2580 C2610 0.950 . S
H2581 C2611 0.950 . S
C2582 H2564 0.951 . S
C2582 C2583 1.366 . S
C2582 C2584 1.388 . S
C2583 C2582 1.366 . S
C2583 C2587 1.385 . S
C2584 H2565 0.951 . S
C2584 C2582 1.388 . S
C2584 C2585 1.366 . S
C2585 C2584 1.366 . S
C2585 C2586 1.414 . S
C2585 C2588 1.499 . S
C2586 H2566 0.950 . S
C2586 C2585 1.414 . S
C2586 C2587 1.374 . S
C2587 H2567 0.988 . S
C2587 C2583 1.385 . S
C2587 C2586 1.374 . S
C2588 C2585 1.499 . S
C2588 C2589 1.373 . S
C2588 C2590 1.389 . S
C2589 H2568 0.950 . S
C2589 C2588 1.373 . S
C2589 C2605 1.377 . S
C2590 C2588 1.389 . S
C2590 C2591 1.524 . S
C2590 C2604 1.377 . S
C2591 C2590 1.524 . S
C2591 C2592 1.397 . S
C2591 C2596 1.363 . S
C2592 H2569 0.950 . S
C2592 C2591 1.397 . S
C2592 C2593 1.334 . S
C2593 H2570 0.950 . S
C2593 C2592 1.334 . S
C2593 C2594 1.287 . S
C2594 C2593 1.287 . S
C2594 C2595 1.524 . S
C2594 H2613 0.913 . S
C2595 H2571 0.950 . S
C2595 C2594 1.524 . S
C2595 C2596 1.415 . S
C2596 H2572 0.950 . S
C2596 C2591 1.363 . S
C2596 C2595 1.415 . S
C2597 H2573 0.951 . S
C2597 C2598 1.366 . S
C2597 C2599 1.388 . S
C2598 C2597 1.366 . S
C2598 C2602 1.385 . S
C2599 H2574 0.951 . S
C2599 C2597 1.388 . S
C2599 C2600 1.366 . S
C2600 C2599 1.366 . S
C2600 C2601 1.414 . S
C2600 C2603 1.499 . S
C2601 H2575 0.950 . S
C2601 C2600 1.414 . S
C2601 C2602 1.374 . S
C2602 H2576 0.950 . S
C2602 C2598 1.385 . S
C2602 C2601 1.374 . S
C2603 C2600 1.499 . S
C2603 C2604 1.373 . S
C2603 C2605 1.389 . S
C2604 H2577 0.950 . S
C2604 C2590 1.377 . S
C2604 C2603 1.373 . S
C2605 C2589 1.377 . S
C2605 C2603 1.389 . S
C2605 C2606 1.524 . S
C2606 C2605 1.524 . S
C2606 C2607 1.397 . S
C2606 C2611 1.363 . S
C2607 H2578 0.950 . S
C2607 C2606 1.397 . S
C2607 C2608 1.334 . S
C2608 H2579 0.950 . S
C2608 C2607 1.334 . S
C2608 C2609 1.287 . S
C2609 C2608 1.287 . S
C2609 C2610 1.524 . S
C2609 H2612 0.999 . S
C2610 H2580 0.950 . S
C2610 C2609 1.524 . S
C2610 C2611 1.415 . S
C2611 H2581 0.950 . S
C2611 C2606 1.363 . S
C2611 C2610 1.415 . S
H2612 C2609 0.999 . S
H2613 C2594 0.913 . S
H2614 C2632 0.951 . S
H2615 C2634 0.949 1_545 S
H2616 C2636 0.950 . S
H2617 C2637 0.950 . S
H2618 C2639 0.950 . S
H2619 C2642 0.950 . S
H2620 C2643 0.950 . S
H2621 C2645 0.950 . S
H2622 C2646 0.950 . S
H2623 C2647 0.951 . S
H2624 C2649 0.951 . S
H2625 C2651 0.950 . S
H2626 C2652 0.950 . S
H2627 C2654 0.953 . S
H2628 C2657 0.950 . S
H2629 C2658 0.950 . S
H2630 C2660 0.950 . S
H2631 C2661 0.950 . S
C2632 H2614 0.951 . S
C2632 C2633 1.366 . S
C2632 C2634 1.389 . S
C2633 C2632 1.366 . S
C2633 C2637 1.385 . S
C2634 H2615 0.949 1_565 S
C2634 C2632 1.389 . S
C2634 C2635 1.366 . S
C2635 C2634 1.366 . S
C2635 C2636 1.414 . S
C2635 C2638 1.499 1_565 S
C2636 H2616 0.950 . S
C2636 C2635 1.414 . S
C2636 C2637 1.374 . S
C2637 H2617 0.950 . S
C2637 C2633 1.385 . S
C2637 C2636 1.374 . S
C2638 C2635 1.499 1_545 S
C2638 C2639 1.373 . S
C2638 C2640 1.389 1_545 S
C2639 H2618 0.950 . S
C2639 C2638 1.373 . S
C2639 C2655 1.377 . S
C2640 C2638 1.389 1_565 S
C2640 C2641 1.524 . S
C2640 C2654 1.377 1_565 S
C2641 C2640 1.524 . S
C2641 C2642 1.397 . S
C2641 C2646 1.363 . S
C2642 H2619 0.950 . S
C2642 C2641 1.397 . S
C2642 C2643 1.334 . S
C2643 H2620 0.950 . S
C2643 C2642 1.334 . S
C2643 C2644 1.287 . S
C2644 C2643 1.287 . S
C2644 C2645 1.524 . S
C2644 H2663 0.913 . S
C2645 H2621 0.950 . S
C2645 C2644 1.524 . S
C2645 C2646 1.415 . S
C2646 H2622 0.950 . S
C2646 C2641 1.363 . S
C2646 C2645 1.415 . S
C2647 H2623 0.951 . S
C2647 C2648 1.366 . S
C2647 C2649 1.388 . S
C2648 C2647 1.366 . S
C2648 C2652 1.385 . S
C2649 H2624 0.951 . S
C2649 C2647 1.388 . S
C2649 C2650 1.366 . S
C2650 C2649 1.366 . S
C2650 C2651 1.414 . S
C2650 C2653 1.499 . S
C2651 H2625 0.950 . S
C2651 C2650 1.414 . S
C2651 C2652 1.374 . S
C2652 H2626 0.950 . S
C2652 C2648 1.385 . S
C2652 C2651 1.374 . S
C2653 C2650 1.499 . S
C2653 C2654 1.373 . S
C2653 C2655 1.389 . S
C2654 H2627 0.953 . S
C2654 C2640 1.377 1_545 S
C2654 C2653 1.373 . S
C2655 C2639 1.377 . S
C2655 C2653 1.389 . S
C2655 C2656 1.524 . S
C2656 C2655 1.524 . S
C2656 C2657 1.397 . S
C2656 C2661 1.363 . S
C2657 H2628 0.950 . S
C2657 C2656 1.397 . S
C2657 C2658 1.334 . S
C2658 H2629 0.950 . S
C2658 C2657 1.334 . S
C2658 C2659 1.287 . S
C2659 C2658 1.287 . S
C2659 C2660 1.524 . S
C2659 H2662 0.999 . S
C2660 H2630 0.950 . S
C2660 C2659 1.524 . S
C2660 C2661 1.415 . S
C2661 H2631 0.950 . S
C2661 C2656 1.363 . S
C2661 C2660 1.415 . S
H2662 C2659 0.999 . S
H2663 C2644 0.913 . S
H2664 C2682 0.951 . S
H2665 C2684 0.951 . S
H2666 C2686 0.950 . S
H2667 C2687 0.950 . S
H2668 C2689 0.950 . S
H2669 C2692 0.950 . S
H2670 C2693 0.950 . S
H2671 C2695 0.950 . S
H2672 C2696 0.950 . S
H2673 C2697 0.951 . S
H2674 C2699 0.951 . S
H2675 C2701 0.950 . S
H2676 C2702 0.950 . S
H2677 C2704 0.950 . S
H2678 C2707 0.950 . S
H2679 C2708 0.950 . S
H2680 C2710 0.950 . S
H2681 C2711 0.950 . S
C2682 H2664 0.951 . S
C2682 C2683 1.366 . S
C2682 C2684 1.388 . S
C2683 C2682 1.366 . S
C2683 C2687 1.385 . S
C2684 H2665 0.951 . S
C2684 C2682 1.388 . S
C2684 C2685 1.366 . S
C2685 C2684 1.366 . S
C2685 C2686 1.414 . S
C2685 C2688 1.499 . S
C2686 H2666 0.950 . S
C2686 C2685 1.414 . S
C2686 C2687 1.374 . S
C2687 H2667 0.950 . S
C2687 C2683 1.385 . S
C2687 C2686 1.374 . S
C2688 C2685 1.499 . S
C2688 C2689 1.373 . S
C2688 C2690 1.389 . S
C2689 H2668 0.950 . S
C2689 C2688 1.373 . S
C2689 C2705 1.377 . S
C2690 C2688 1.389 . S
C2690 C2691 1.524 . S
C2690 C2704 1.377 . S
C2691 C2690 1.524 . S
C2691 C2692 1.397 . S
C2691 C2696 1.363 . S
C2692 H2669 0.950 . S
C2692 C2691 1.397 . S
C2692 C2693 1.334 . S
C2693 H2670 0.950 . S
C2693 C2692 1.334 . S
C2693 C2694 1.287 . S
C2694 C2693 1.287 . S
C2694 C2695 1.524 . S
C2694 H2713 0.913 . S
C2695 H2671 0.950 . S
C2695 C2694 1.524 . S
C2695 C2696 1.415 . S
C2696 H2672 0.950 . S
C2696 C2691 1.363 . S
C2696 C2695 1.415 . S
C2697 H2673 0.951 . S
C2697 C2698 1.366 . S
C2697 C2699 1.388 . S
C2698 C2697 1.366 . S
C2698 C2702 1.385 . S
C2699 H2674 0.951 . S
C2699 C2697 1.388 . S
C2699 C2700 1.366 . S
C2700 C2699 1.366 . S
C2700 C2701 1.414 . S
C2700 C2703 1.499 . S
C2701 H2675 0.950 . S
C2701 C2700 1.414 . S
C2701 C2702 1.374 . S
C2702 H2676 0.950 . S
C2702 C2698 1.385 . S
C2702 C2701 1.374 . S
C2703 C2700 1.499 . S
C2703 C2704 1.373 . S
C2703 C2705 1.389 . S
C2704 H2677 0.950 . S
C2704 C2690 1.377 . S
C2704 C2703 1.373 . S
C2705 C2689 1.377 . S
C2705 C2703 1.389 . S
C2705 C2706 1.524 . S
C2706 C2705 1.524 . S
C2706 C2707 1.397 . S
C2706 C2711 1.363 . S
C2707 H2678 0.950 . S
C2707 C2706 1.397 . S
C2707 C2708 1.334 . S
C2708 H2679 0.950 . S
C2708 C2707 1.334 . S
C2708 C2709 1.287 . S
C2709 C2708 1.287 . S
C2709 C2710 1.524 . S
C2709 H2712 0.999 . S
C2710 H2680 0.950 . S
C2710 C2709 1.524 . S
C2710 C2711 1.415 . S
C2711 H2681 0.950 . S
C2711 C2706 1.363 . S
C2711 C2710 1.415 . S
H2712 C2709 0.999 . S
H2713 C2694 0.913 . S
H2714 C2732 0.951 . S
H2715 C2734 0.951 . S
H2716 C2736 0.950 . S
H2717 C2737 0.950 . S
H2718 C2739 0.950 . S
H2719 C2742 0.950 . S
H2720 C2743 0.950 . S
H2721 C2745 0.950 . S
H2722 C2746 0.950 . S
H2723 C2747 0.951 . S
H2724 C2749 0.951 . S
H2725 C2751 0.950 . S
H2726 C2752 0.950 . S
H2727 C2754 0.950 . S
H2728 C2757 0.950 . S
H2729 C2758 0.950 . S
H2730 C2760 0.950 . S
H2731 C2761 0.946 1_565 S
C2732 H2714 0.951 . S
C2732 C2733 1.366 . S
C2732 C2734 1.388 . S
C2733 C2732 1.366 . S
C2733 C2737 1.385 . S
C2734 H2715 0.951 . S
C2734 C2732 1.388 . S
C2734 C2735 1.366 . S
C2735 C2734 1.366 . S
C2735 C2736 1.414 . S
C2735 C2738 1.499 . S
C2736 H2716 0.950 . S
C2736 C2735 1.414 . S
C2736 C2737 1.374 . S
C2737 H2717 0.950 . S
C2737 C2733 1.385 . S
C2737 C2736 1.374 . S
C2738 C2735 1.499 . S
C2738 C2739 1.373 . S
C2738 C2740 1.389 . S
C2739 H2718 0.950 . S
C2739 C2738 1.373 . S
C2739 C2755 1.377 . S
C2740 C2738 1.389 . S
C2740 C2741 1.524 . S
C2740 C2754 1.377 . S
C2741 C2740 1.524 . S
C2741 C2742 1.397 1_545 S
C2741 C2746 1.363 . S
C2742 H2719 0.950 . S
C2742 C2741 1.397 1_565 S
C2742 C2743 1.334 . S
C2743 H2720 0.950 . S
C2743 C2742 1.334 . S
C2743 C2744 1.287 . S
C2744 C2743 1.287 . S
C2744 C2745 1.524 1_565 S
C2744 H2763 0.913 . S
C2745 H2721 0.950 . S
C2745 C2744 1.524 1_545 S
C2745 C2746 1.415 . S
C2746 H2722 0.950 . S
C2746 C2741 1.363 . S
C2746 C2745 1.415 . S
C2747 H2723 0.951 . S
C2747 C2748 1.366 . S
C2747 C2749 1.388 . S
C2748 C2747 1.366 . S
C2748 C2752 1.385 1_565 S
C2749 H2724 0.951 . S
C2749 C2747 1.388 . S
C2749 C2750 1.356 1_565 S
C2750 C2749 1.356 1_545 S
C2750 C2751 1.419 . S
C2750 C2753 1.503 . S
C2751 H2725 0.950 . S
C2751 C2750 1.419 . S
C2751 C2752 1.374 . S
C2752 H2726 0.950 . S
C2752 C2748 1.385 1_545 S
C2752 C2751 1.374 . S
C2753 C2750 1.503 . S
C2753 C2754 1.373 . S
C2753 C2755 1.389 . S
C2754 H2727 0.950 . S
C2754 C2740 1.377 . S
C2754 C2753 1.373 . S
C2755 C2739 1.377 . S
C2755 C2753 1.389 . S
C2755 C2756 1.524 . S
C2756 C2755 1.524 . S
C2756 C2757 1.397 . S
C2756 C2761 1.363 . S
C2757 H2728 0.950 . S
C2757 C2756 1.397 . S
C2757 C2758 1.334 . S
C2758 H2729 0.950 . S
C2758 C2757 1.334 . S
C2758 C2759 1.287 . S
C2759 C2758 1.287 . S
C2759 C2760 1.524 . S
C2759 H2762 0.999 . S
C2760 H2730 0.950 . S
C2760 C2759 1.524 . S
C2760 C2761 1.415 . S
C2761 H2731 0.946 1_545 S
C2761 C2756 1.363 . S
C2761 C2760 1.415 . S
H2762 C2759 0.999 . S
H2763 C2744 0.913 . S
H2764 C2782 0.955 . S
H2765 C2784 0.951 . S
H2766 C2786 0.950 . S
H2767 C2787 0.950 . S
H2768 C2789 0.950 . S
H2769 C2792 0.950 . S
H2770 C2793 0.950 . S
H2771 C2795 0.950 . S
H2772 C2796 0.950 . S
H2773 C2797 0.951 . S
H2774 C2799 0.951 . S
H2775 C2801 0.950 . S
H2776 C2802 0.950 . S
H2777 C2804 0.950 . S
H2778 C2807 0.950 . S
H2779 C2808 0.950 . S
H2780 C2810 0.950 . S
H2781 C2811 0.950 . S
C2782 H2764 0.955 . S
C2782 C2783 1.366 . S
C2782 C2784 1.388 . S
C2783 C2782 1.366 . S
C2783 C2787 1.385 . S
C2784 H2765 0.951 . S
C2784 C2782 1.388 . S
C2784 C2785 1.366 . S
C2785 C2784 1.366 . S
C2785 C2786 1.414 . S
C2785 C2788 1.499 . S
C2786 H2766 0.950 . S
C2786 C2785 1.414 . S
C2786 C2787 1.374 . S
C2787 H2767 0.950 . S
C2787 C2783 1.385 . S
C2787 C2786 1.374 . S
C2788 C2785 1.499 . S
C2788 C2789 1.373 . S
C2788 C2790 1.389 . S
C2789 H2768 0.950 . S
C2789 C2788 1.373 . S
C2789 C2805 1.377 . S
C2790 C2788 1.389 . S
C2790 C2791 1.524 . S
C2790 C2804 1.377 . S
C2791 C2790 1.524 . S
C2791 C2792 1.397 . S
C2791 C2796 1.363 . S
C2792 H2769 0.950 . S
C2792 C2791 1.397 . S
C2792 C2793 1.334 . S
C2793 H2770 0.950 . S
C2793 C2792 1.334 . S
C2793 C2794 1.287 . S
C2794 C2793 1.287 . S
C2794 C2795 1.524 . S
C2794 H2813 0.913 . S
C2795 H2771 0.950 . S
C2795 C2794 1.524 . S
C2795 C2796 1.415 . S
C2796 H2772 0.950 . S
C2796 C2791 1.363 . S
C2796 C2795 1.415 . S
C2797 H2773 0.951 . S
C2797 C2798 1.366 . S
C2797 C2799 1.388 . S
C2798 C2797 1.366 . S
C2798 C2802 1.385 . S
C2799 H2774 0.951 . S
C2799 C2797 1.388 . S
C2799 C2800 1.366 . S
C2800 C2799 1.366 . S
C2800 C2801 1.414 . S
C2800 C2803 1.499 . S
C2801 H2775 0.950 . S
C2801 C2800 1.414 . S
C2801 C2802 1.374 . S
C2802 H2776 0.950 . S
C2802 C2798 1.385 . S
C2802 C2801 1.374 . S
C2803 C2800 1.499 . S
C2803 C2804 1.373 . S
C2803 C2805 1.389 . S
C2804 H2777 0.950 . S
C2804 C2790 1.377 . S
C2804 C2803 1.373 . S
C2805 C2789 1.377 . S
C2805 C2803 1.389 . S
C2805 C2806 1.524 . S
C2806 C2805 1.524 . S
C2806 C2807 1.397 . S
C2806 C2811 1.363 . S
C2807 H2778 0.950 . S
C2807 C2806 1.397 . S
C2807 C2808 1.334 . S
C2808 H2779 0.950 . S
C2808 C2807 1.334 . S
C2808 C2809 1.287 . S
C2809 C2808 1.287 . S
C2809 C2810 1.524 . S
C2809 H2812 0.999 . S
C2810 H2780 0.950 . S
C2810 C2809 1.524 . S
C2810 C2811 1.415 . S
C2811 H2781 0.950 . S
C2811 C2806 1.363 . S
C2811 C2810 1.415 . S
H2812 C2809 0.999 . S
H2813 C2794 0.913 . S
H2814 C2832 0.951 . S
H2815 C2834 0.951 . S
H2816 C2836 0.950 . S
H2817 C2837 0.950 . S
H2818 C2839 0.950 . S
H2819 C2842 0.950 . S
H2820 C2843 0.950 . S
H2821 C2845 0.950 . S
H2822 C2846 0.950 1_565 S
H2823 C2847 0.951 . S
H2824 C2849 0.951 . S
H2825 C2851 0.950 . S
H2826 C2852 0.950 . S
H2827 C2854 0.945 1_545 S
H2828 C2857 0.950 . S
H2829 C2858 0.950 . S
H2830 C2860 0.950 . S
H2831 C2861 0.950 . S
C2832 H2814 0.951 . S
C2832 C2833 1.366 . S
C2832 C2834 1.388 . S
C2833 C2832 1.366 . S
C2833 C2837 1.385 . S
C2834 H2815 0.951 . S
C2834 C2832 1.388 . S
C2834 C2835 1.366 . S
C2835 C2834 1.366 . S
C2835 C2836 1.414 . S
C2835 C2838 1.499 . S
C2836 H2816 0.950 . S
C2836 C2835 1.414 . S
C2836 C2837 1.374 . S
C2837 H2817 0.950 . S
C2837 C2833 1.385 . S
C2837 C2836 1.374 . S
C2838 C2835 1.499 . S
C2838 C2839 1.373 . S
C2838 C2840 1.389 . S
C2839 H2818 0.950 . S
C2839 C2838 1.373 . S
C2839 C2855 1.377 . S
C2840 C2838 1.389 . S
C2840 C2841 1.524 1_565 S
C2840 C2854 1.379 . S
C2841 C2840 1.524 1_545 S
C2841 C2842 1.397 . S
C2841 C2846 1.363 . S
C2842 H2819 0.950 . S
C2842 C2841 1.397 . S
C2842 C2843 1.334 . S
C2843 H2820 0.950 . S
C2843 C2842 1.334 . S
C2843 C2844 1.287 . S
C2844 C2843 1.287 . S
C2844 C2845 1.524 . S
C2844 H2863 0.913 . S
C2845 H2821 0.950 . S
C2845 C2844 1.524 . S
C2845 C2846 1.415 . S
C2846 H2822 0.950 1_545 S
C2846 C2841 1.363 . S
C2846 C2845 1.415 . S
C2847 H2823 0.951 . S
C2847 C2848 1.366 . S
C2847 C2849 1.388 . S
C2848 C2847 1.366 . S
C2848 C2852 1.385 . S
C2849 H2824 0.951 . S
C2849 C2847 1.388 . S
C2849 C2850 1.356 1_545 S
C2850 C2849 1.356 1_565 S
C2850 C2851 1.417 . S
C2850 C2853 1.506 . S
C2851 H2825 0.950 . S
C2851 C2850 1.417 . S
C2851 C2852 1.374 1_565 S
C2852 H2826 0.950 . S
C2852 C2848 1.385 . S
C2852 C2851 1.374 1_545 S
C2853 C2850 1.506 . S
C2853 C2854 1.377 . S
C2853 C2855 1.389 . S
C2854 H2827 0.945 1_565 S
C2854 C2840 1.379 . S
C2854 C2853 1.377 . S
C2855 C2839 1.377 . S
C2855 C2853 1.389 . S
C2855 C2856 1.524 . S
C2856 C2855 1.524 . S
C2856 C2857 1.397 . S
C2856 C2861 1.363 . S
C2857 H2828 0.950 . S
C2857 C2856 1.397 . S
C2857 C2858 1.334 . S
C2858 H2829 0.950 . S
C2858 C2857 1.334 . S
C2858 C2859 1.287 . S
C2859 C2858 1.287 . S
C2859 C2860 1.524 . S
C2859 H2862 0.999 . S
C2860 H2830 0.950 . S
C2860 C2859 1.524 . S
C2860 C2861 1.415 . S
C2861 H2831 0.950 . S
C2861 C2856 1.363 . S
C2861 C2860 1.415 . S
H2862 C2859 0.999 . S
H2863 C2844 0.913 . S
H2864 C2882 0.951 . S
H2865 C2884 0.951 . S
H2866 C2886 0.950 . S
H2867 C2887 0.950 . S
H2868 C2889 0.950 . S
H2869 C2892 0.950 . S
H2870 C2893 0.950 . S
H2871 C2895 0.950 . S
H2872 C2896 0.950 . S
H2873 C2897 0.951 . S
H2874 C2899 0.951 . S
H2875 C2901 0.950 . S
H2876 C2902 0.950 . S
H2877 C2904 0.950 . S
H2878 C2907 0.950 . S
H2879 C2908 0.950 . S
H2880 C2910 0.950 . S
H2881 C2911 0.950 . S
C2882 H2864 0.951 . S
C2882 C2883 1.366 . S
C2882 C2884 1.388 . S
C2883 C2882 1.366 . S
C2883 C2887 1.385 . S
C2884 H2865 0.951 . S
C2884 C2882 1.388 . S
C2884 C2885 1.366 . S
C2885 C2884 1.366 . S
C2885 C2886 1.414 . S
C2885 C2888 1.499 . S
C2886 H2866 0.950 . S
C2886 C2885 1.414 . S
C2886 C2887 1.374 . S
C2887 H2867 0.950 . S
C2887 C2883 1.385 . S
C2887 C2886 1.374 . S
C2888 C2885 1.499 . S
C2888 C2889 1.373 . S
C2888 C2890 1.389 . S
C2889 H2868 0.950 . S
C2889 C2888 1.373 . S
C2889 C2905 1.377 . S
C2890 C2888 1.389 . S
C2890 C2891 1.524 . S
C2890 C2904 1.377 . S
C2891 C2890 1.524 . S
C2891 C2892 1.397 . S
C2891 C2896 1.363 . S
C2892 H2869 0.950 . S
C2892 C2891 1.397 . S
C2892 C2893 1.334 . S
C2893 H2870 0.950 . S
C2893 C2892 1.334 . S
C2893 C2894 1.287 . S
C2894 C2893 1.287 . S
C2894 C2895 1.524 . S
C2894 H2913 0.913 . S
C2895 H2871 0.950 . S
C2895 C2894 1.524 . S
C2895 C2896 1.415 . S
C2896 H2872 0.950 . S
C2896 C2891 1.363 . S
C2896 C2895 1.415 . S
C2897 H2873 0.951 . S
C2897 C2898 1.366 . S
C2897 C2899 1.388 . S
C2898 C2897 1.366 . S
C2898 C2902 1.385 . S
C2899 H2874 0.951 . S
C2899 C2897 1.388 . S
C2899 C2900 1.366 . S
C2900 C2899 1.366 . S
C2900 C2901 1.414 . S
C2900 C2903 1.499 . S
C2901 H2875 0.950 . S
C2901 C2900 1.414 . S
C2901 C2902 1.374 . S
C2902 H2876 0.950 . S
C2902 C2898 1.385 . S
C2902 C2901 1.374 . S
C2903 C2900 1.499 . S
C2903 C2904 1.373 . S
C2903 C2905 1.389 . S
C2904 H2877 0.950 . S
C2904 C2890 1.377 . S
C2904 C2903 1.373 . S
C2905 C2889 1.377 . S
C2905 C2903 1.389 . S
C2905 C2906 1.524 . S
C2906 C2905 1.524 . S
C2906 C2907 1.397 . S
C2906 C2911 1.363 . S
C2907 H2878 0.950 . S
C2907 C2906 1.397 . S
C2907 C2908 1.334 . S
C2908 H2879 0.950 . S
C2908 C2907 1.334 . S
C2908 C2909 1.287 . S
C2909 C2908 1.287 . S
C2909 C2910 1.524 . S
C2909 H2912 0.999 . S
C2910 H2880 0.950 . S
C2910 C2909 1.524 . S
C2910 C2911 1.415 . S
C2911 H2881 0.950 . S
C2911 C2906 1.363 . S
C2911 C2910 1.415 . S
H2912 C2909 0.999 . S
H2913 C2894 0.913 . S
H2914 C2932 0.951 . S
H2915 C2934 0.951 . S
H2916 C2936 0.950 . S
H2917 C2937 0.950 . S
H2918 C2939 0.950 . S
H2919 C2942 0.950 . S
H2920 C2943 0.950 . S
H2921 C2945 0.950 . S
H2922 C2946 0.950 . S
H2923 C2947 0.951 . S
H2924 C2949 0.951 . S
H2925 C2951 0.950 . S
H2926 C2952 0.950 . S
H2927 C2954 0.950 . S
H2928 C2957 0.950 . S
H2929 C2958 0.950 . S
H2930 C2960 0.950 . S
H2931 C2961 0.950 . S
C2932 H2914 0.951 . S
C2932 C2933 1.366 . S
C2932 C2934 1.388 . S
C2933 C2932 1.366 . S
C2933 C2937 1.385 . S
C2934 H2915 0.951 . S
C2934 C2932 1.388 . S
C2934 C2935 1.366 . S
C2935 C2934 1.366 . S
C2935 C2936 1.414 . S
C2935 C2938 1.499 . S
C2936 H2916 0.950 . S
C2936 C2935 1.414 . S
C2936 C2937 1.374 . S
C2937 H2917 0.950 . S
C2937 C2933 1.385 . S
C2937 C2936 1.374 . S
C2938 C2935 1.499 . S
C2938 C2939 1.373 . S
C2938 C2940 1.389 . S
C2939 H2918 0.950 . S
C2939 C2938 1.373 . S
C2939 C2955 1.377 . S
C2940 C2938 1.389 . S
C2940 C2941 1.524 . S
C2940 C2954 1.377 . S
C2941 C2940 1.524 . S
C2941 C2942 1.397 . S
C2941 C2946 1.363 . S
C2942 H2919 0.950 . S
C2942 C2941 1.397 . S
C2942 C2943 1.334 . S
C2943 H2920 0.950 . S
C2943 C2942 1.334 . S
C2943 C2944 1.287 . S
C2944 C2943 1.287 . S
C2944 C2945 1.524 . S
C2944 H2963 0.913 . S
C2945 H2921 0.950 . S
C2945 C2944 1.524 . S
C2945 C2946 1.415 . S
C2946 H2922 0.950 . S
C2946 C2941 1.363 . S
C2946 C2945 1.415 . S
C2947 H2923 0.951 . S
C2947 C2948 1.366 . S
C2947 C2949 1.388 . S
C2948 C2947 1.366 . S
C2948 C2952 1.385 . S
C2949 H2924 0.951 . S
C2949 C2947 1.388 . S
C2949 C2950 1.366 . S
C2950 C2949 1.366 . S
C2950 C2951 1.414 . S
C2950 C2953 1.499 . S
C2951 H2925 0.950 . S
C2951 C2950 1.414 . S
C2951 C2952 1.374 . S
C2952 H2926 0.950 . S
C2952 C2948 1.385 . S
C2952 C2951 1.374 . S
C2953 C2950 1.499 . S
C2953 C2954 1.373 . S
C2953 C2955 1.389 . S
C2954 H2927 0.950 . S
C2954 C2940 1.377 . S
C2954 C2953 1.373 . S
C2955 C2939 1.377 . S
C2955 C2953 1.389 . S
C2955 C2956 1.524 . S
C2956 C2955 1.524 . S
C2956 C2957 1.397 . S
C2956 C2961 1.363 . S
C2957 H2928 0.950 . S
C2957 C2956 1.397 . S
C2957 C2958 1.334 . S
C2958 H2929 0.950 . S
C2958 C2957 1.334 . S
C2958 C2959 1.287 . S
C2959 C2958 1.287 . S
C2959 C2960 1.524 . S
C2959 H2962 0.999 . S
C2960 H2930 0.950 . S
C2960 C2959 1.524 . S
C2960 C2961 1.415 . S
C2961 H2931 0.950 . S
C2961 C2956 1.363 . S
C2961 C2960 1.415 . S
H2962 C2959 0.999 . S
H2963 C2944 0.913 . S
H2964 C2982 0.951 . S
H2965 C2984 0.951 . S
H2966 C2986 0.950 . S
H2967 C2987 0.950 . S
H2968 C2989 0.950 . S
H2969 C2992 0.950 . S
H2970 C2993 0.950 . S
H2971 C2995 0.941 1_655 S
H2972 C2996 0.958 . S
H2973 C2997 0.951 . S
H2974 C2999 0.951 . S
H2975 C3001 0.950 . S
H2976 C3002 0.950 . S
H2977 C3004 0.950 . S
H2978 C3007 0.950 . S
H2979 C3008 0.950 . S
H2980 C3010 0.941 1_455 S
H2981 C3011 0.958 . S
C2982 H2964 0.951 . S
C2982 C2983 1.366 . S
C2982 C2984 1.388 . S
C2983 C2982 1.366 . S
C2983 C2987 1.385 . S
C2984 H2965 0.951 . S
C2984 C2982 1.388 . S
C2984 C2985 1.366 . S
C2985 C2984 1.366 . S
C2985 C2986 1.414 . S
C2985 C2988 1.499 . S
C2986 H2966 0.950 . S
C2986 C2985 1.414 . S
C2986 C2987 1.374 . S
C2987 H2967 0.950 . S
C2987 C2983 1.385 . S
C2987 C2986 1.374 . S
C2988 C2985 1.499 . S
C2988 C2989 1.373 . S
C2988 C2990 1.389 . S
C2989 H2968 0.950 . S
C2989 C2988 1.373 . S
C2989 C3005 1.377 1_455 S
C2990 C2988 1.389 . S
C2990 C2991 1.524 . S
C2990 C3004 1.377 1_455 S
C2991 C2990 1.524 . S
C2991 C2992 1.397 . S
C2991 C2996 1.357 1_455 S
C2992 H2969 0.950 . S
C2992 C2991 1.397 . S
C2992 C2993 1.334 . S
C2993 H2970 0.950 . S
C2993 C2992 1.334 . S
C2993 C2994 1.287 . S
C2994 C2993 1.287 . S
C2994 C2995 1.537 . S
C2994 H3013 0.913 . S
C2995 H2971 0.941 1_455 S
C2995 C2994 1.537 . S
C2995 C2996 1.413 1_455 S
C2996 H2972 0.958 . S
C2996 C2991 1.357 1_655 S
C2996 C2995 1.413 1_655 S
C2997 H2973 0.951 . S
C2997 C2998 1.366 . S
C2997 C2999 1.388 . S
C2998 C2997 1.366 . S
C2998 C3002 1.385 . S
C2999 H2974 0.951 . S
C2999 C2997 1.388 . S
C2999 C3000 1.366 . S
C3000 C2999 1.366 . S
C3000 C3001 1.414 . S
C3000 C3003 1.499 . S
C3001 H2975 0.950 . S
C3001 C3000 1.414 . S
C3001 C3002 1.374 . S
C3002 H2976 0.950 . S
C3002 C2998 1.385 . S
C3002 C3001 1.374 . S
C3003 C3000 1.499 . S
C3003 C3004 1.373 . S
C3003 C3005 1.389 . S
C3004 H2977 0.950 . S
C3004 C2990 1.377 1_655 S
C3004 C3003 1.373 . S
C3005 C2989 1.377 1_655 S
C3005 C3003 1.389 . S
C3005 C3006 1.524 . S
C3006 C3005 1.524 . S
C3006 C3007 1.397 . S
C3006 C3011 1.357 1_655 S
C3007 H2978 0.950 . S
C3007 C3006 1.397 . S
C3007 C3008 1.334 . S
C3008 H2979 0.950 . S
C3008 C3007 1.334 . S
C3008 C3009 1.287 . S
C3009 C3008 1.287 . S
C3009 C3010 1.537 . S
C3009 H3012 0.999 . S
C3010 H2980 0.941 1_655 S
C3010 C3009 1.537 . S
C3010 C3011 1.413 1_655 S
C3011 H2981 0.958 . S
C3011 C3006 1.357 1_455 S
C3011 C3010 1.413 1_455 S
H3012 C3009 0.999 . S
H3013 C2994 0.913 . S
H3014 C3032 0.951 . S
H3015 C3034 0.951 . S
H3016 C3036 0.950 . S
H3017 C3037 0.950 . S
H3018 C3039 0.950 . S
H3019 C3042 0.950 . S
H3020 C3043 0.950 . S
H3021 C3045 0.950 . S
H3022 C3046 0.950 . S
H3023 C3047 0.951 . S
H3024 C3049 0.951 . S
H3025 C3051 0.950 . S
H3026 C3052 0.950 . S
H3027 C3054 0.950 . S
H3028 C3057 0.950 . S
H3029 C3058 0.950 . S
H3030 C3060 0.950 . S
H3031 C3061 0.950 . S
C3032 H3014 0.951 . S
C3032 C3033 1.366 . S
C3032 C3034 1.388 . S
C3033 C3032 1.366 . S
C3033 C3037 1.385 . S
C3034 H3015 0.951 . S
C3034 C3032 1.388 . S
C3034 C3035 1.366 . S
C3035 C3034 1.366 . S
C3035 C3036 1.414 . S
C3035 C3038 1.499 . S
C3036 H3016 0.950 . S
C3036 C3035 1.414 . S
C3036 C3037 1.374 . S
C3037 H3017 0.950 . S
C3037 C3033 1.385 . S
C3037 C3036 1.374 . S
C3038 C3035 1.499 . S
C3038 C3039 1.373 . S
C3038 C3040 1.389 1_455 S
C3039 H3018 0.950 . S
C3039 C3038 1.373 . S
C3039 C3055 1.377 . S
C3040 C3038 1.389 1_655 S
C3040 C3041 1.524 . S
C3040 C3054 1.377 . S
C3041 C3040 1.524 . S
C3041 C3042 1.397 . S
C3041 C3046 1.363 . S
C3042 H3019 0.950 . S
C3042 C3041 1.397 . S
C3042 C3043 1.334 . S
C3043 H3020 0.950 . S
C3043 C3042 1.334 . S
C3043 C3044 1.287 . S
C3044 C3043 1.287 . S
C3044 C3045 1.524 . S
C3044 H3063 0.913 . S
C3045 H3021 0.950 . S
C3045 C3044 1.524 . S
C3045 C3046 1.415 . S
C3046 H3022 0.950 . S
C3046 C3041 1.363 . S
C3046 C3045 1.415 . S
C3047 H3023 0.951 . S
C3047 C3048 1.366 . S
C3047 C3049 1.388 . S
C3048 C3047 1.366 . S
C3048 C3052 1.385 . S
C3049 H3024 0.951 . S
C3049 C3047 1.388 . S
C3049 C3050 1.366 . S
C3050 C3049 1.366 . S
C3050 C3051 1.414 . S
C3050 C3053 1.499 . S
C3051 H3025 0.950 . S
C3051 C3050 1.414 . S
C3051 C3052 1.374 . S
C3052 H3026 0.950 . S
C3052 C3048 1.385 . S
C3052 C3051 1.374 . S
C3053 C3050 1.499 . S
C3053 C3054 1.373 . S
C3053 C3055 1.389 1_655 S
C3054 H3027 0.950 . S
C3054 C3040 1.377 . S
C3054 C3053 1.373 . S
C3055 C3039 1.377 . S
C3055 C3053 1.389 1_455 S
C3055 C3056 1.524 . S
C3056 C3055 1.524 . S
C3056 C3057 1.397 . S
C3056 C3061 1.363 . S
C3057 H3028 0.950 . S
C3057 C3056 1.397 . S
C3057 C3058 1.334 . S
C3058 H3029 0.950 . S
C3058 C3057 1.334 . S
C3058 C3059 1.287 . S
C3059 C3058 1.287 . S
C3059 C3060 1.524 . S
C3059 H3062 0.999 . S
C3060 H3030 0.950 . S
C3060 C3059 1.524 . S
C3060 C3061 1.415 . S
C3061 H3031 0.950 . S
C3061 C3056 1.363 . S
C3061 C3060 1.415 . S
H3062 C3059 0.999 . S
H3063 C3044 0.913 . S
H3064 C3082 0.951 . S
H3065 C3084 0.951 . S
H3066 C3086 0.950 . S
H3067 C3087 0.950 . S
H3068 C3089 0.950 . S
H3069 C3092 0.950 . S
H3070 C3093 0.950 . S
H3071 C3095 0.950 . S
H3072 C3096 0.950 . S
H3073 C3097 0.951 . S
H3074 C3099 0.951 . S
H3075 C3101 0.950 . S
H3076 C3102 0.950 . S
H3077 C3104 0.950 . S
H3078 C3107 0.950 . S
H3079 C3108 0.950 . S
H3080 C3110 0.950 . S
H3081 C3111 0.950 . S
C3082 H3064 0.951 . S
C3082 C3083 1.366 . S
C3082 C3084 1.388 . S
C3083 C3082 1.366 . S
C3083 C3087 1.385 . S
C3084 H3065 0.951 . S
C3084 C3082 1.388 . S
C3084 C3085 1.366 . S
C3085 C3084 1.366 . S
C3085 C3086 1.414 . S
C3085 C3088 1.499 . S
C3086 H3066 0.950 . S
C3086 C3085 1.414 . S
C3086 C3087 1.374 . S
C3087 H3067 0.950 . S
C3087 C3083 1.385 . S
C3087 C3086 1.374 . S
C3088 C3085 1.499 . S
C3088 C3089 1.373 . S
C3088 C3090 1.389 . S
C3089 H3068 0.950 . S
C3089 C3088 1.373 . S
C3089 C3105 1.377 . S
C3090 C3088 1.389 . S
C3090 C3091 1.524 . S
C3090 C3104 1.377 . S
C3091 C3090 1.524 . S
C3091 C3092 1.397 . S
C3091 C3096 1.363 . S
C3092 H3069 0.950 . S
C3092 C3091 1.397 . S
C3092 C3093 1.334 . S
C3093 H3070 0.950 . S
C3093 C3092 1.334 . S
C3093 C3094 1.287 . S
C3094 C3093 1.287 . S
C3094 C3095 1.524 . S
C3094 H3113 0.913 . S
C3095 H3071 0.950 . S
C3095 C3094 1.524 . S
C3095 C3096 1.415 . S
C3096 H3072 0.950 . S
C3096 C3091 1.363 . S
C3096 C3095 1.415 . S
C3097 H3073 0.951 . S
C3097 C3098 1.366 . S
C3097 C3099 1.388 . S
C3098 C3097 1.366 . S
C3098 C3102 1.385 . S
C3099 H3074 0.951 . S
C3099 C3097 1.388 . S
C3099 C3100 1.366 . S
C3100 C3099 1.366 . S
C3100 C3101 1.414 . S
C3100 C3103 1.499 . S
C3101 H3075 0.950 . S
C3101 C3100 1.414 . S
C3101 C3102 1.374 . S
C3102 H3076 0.950 . S
C3102 C3098 1.385 . S
C3102 C3101 1.374 . S
C3103 C3100 1.499 . S
C3103 C3104 1.373 . S
C3103 C3105 1.389 . S
C3104 H3077 0.950 . S
C3104 C3090 1.377 . S
C3104 C3103 1.373 . S
C3105 C3089 1.377 . S
C3105 C3103 1.389 . S
C3105 C3106 1.524 . S
C3106 C3105 1.524 . S
C3106 C3107 1.397 . S
C3106 C3111 1.363 . S
C3107 H3078 0.950 . S
C3107 C3106 1.397 . S
C3107 C3108 1.334 . S
C3108 H3079 0.950 . S
C3108 C3107 1.334 . S
C3108 C3109 1.287 . S
C3109 C3108 1.287 . S
C3109 C3110 1.524 . S
C3109 H3112 0.999 . S
C3110 H3080 0.950 . S
C3110 C3109 1.524 . S
C3110 C3111 1.415 . S
C3111 H3081 0.950 . S
C3111 C3106 1.363 . S
C3111 C3110 1.415 . S
H3112 C3109 0.999 . S
H3113 C3094 0.913 . S
H3114 C3132 0.951 . S
H3115 C3134 0.951 . S
H3116 C3136 0.950 . S
H3117 C3137 0.950 . S
H3118 C3139 0.950 . S
H3119 C3142 0.950 . S
H3120 C3143 0.950 . S
H3121 C3145 0.950 . S
H3122 C3146 0.950 . S
H3123 C3147 0.951 . S
H3124 C3149 0.951 . S
H3125 C3151 0.950 . S
H3126 C3152 0.950 . S
H3127 C3154 0.950 . S
H3128 C3157 0.950 . S
H3129 C3158 0.950 . S
H3130 C3160 0.950 . S
H3131 C3161 0.950 . S
C3132 H3114 0.951 . S
C3132 C3133 1.366 . S
C3132 C3134 1.388 . S
C3133 C3132 1.366 . S
C3133 C3137 1.385 . S
C3134 H3115 0.951 . S
C3134 C3132 1.388 . S
C3134 C3135 1.366 . S
C3135 C3134 1.366 . S
C3135 C3136 1.414 . S
C3135 C3138 1.499 . S
C3136 H3116 0.950 . S
C3136 C3135 1.414 . S
C3136 C3137 1.374 . S
C3137 H3117 0.950 . S
C3137 C3133 1.385 . S
C3137 C3136 1.374 . S
C3138 C3135 1.499 . S
C3138 C3139 1.373 . S
C3138 C3140 1.389 . S
C3139 H3118 0.950 . S
C3139 C3138 1.373 . S
C3139 C3155 1.377 . S
C3140 C3138 1.389 . S
C3140 C3141 1.524 . S
C3140 C3154 1.377 . S
C3141 C3140 1.524 . S
C3141 C3142 1.397 . S
C3141 C3146 1.363 . S
C3142 H3119 0.950 . S
C3142 C3141 1.397 . S
C3142 C3143 1.334 . S
C3143 H3120 0.950 . S
C3143 C3142 1.334 . S
C3143 C3144 1.287 . S
C3144 C3143 1.287 . S
C3144 C3145 1.524 . S
C3144 H3163 0.913 . S
C3145 H3121 0.950 . S
C3145 C3144 1.524 . S
C3145 C3146 1.415 . S
C3146 H3122 0.950 . S
C3146 C3141 1.363 . S
C3146 C3145 1.415 . S
C3147 H3123 0.951 . S
C3147 C3148 1.366 . S
C3147 C3149 1.388 . S
C3148 C3147 1.366 . S
C3148 C3152 1.385 . S
C3149 H3124 0.951 . S
C3149 C3147 1.388 . S
C3149 C3150 1.366 . S
C3150 C3149 1.366 . S
C3150 C3151 1.414 . S
C3150 C3153 1.499 . S
C3151 H3125 0.950 . S
C3151 C3150 1.414 . S
C3151 C3152 1.374 . S
C3152 H3126 0.950 . S
C3152 C3148 1.385 . S
C3152 C3151 1.374 . S
C3153 C3150 1.499 . S
C3153 C3154 1.373 . S
C3153 C3155 1.389 . S
C3154 H3127 0.950 . S
C3154 C3140 1.377 . S
C3154 C3153 1.373 . S
C3155 C3139 1.377 . S
C3155 C3153 1.389 . S
C3155 C3156 1.524 . S
C3156 C3155 1.524 . S
C3156 C3157 1.397 . S
C3156 C3161 1.363 . S
C3157 H3128 0.950 . S
C3157 C3156 1.397 . S
C3157 C3158 1.334 . S
C3158 H3129 0.950 . S
C3158 C3157 1.334 . S
C3158 C3159 1.287 . S
C3159 C3158 1.287 . S
C3159 C3160 1.524 . S
C3159 H3162 0.999 . S
C3160 H3130 0.950 . S
C3160 C3159 1.524 . S
C3160 C3161 1.415 . S
C3161 H3131 0.950 . S
C3161 C3156 1.363 . S
C3161 C3160 1.415 . S
H3162 C3159 0.999 . S
H3163 C3144 0.913 . S
H3164 C3182 0.951 . S
H3165 C3184 0.951 . S
H3166 C3186 0.950 . S
H3167 C3187 0.950 . S
H3168 C3189 0.950 . S
H3169 C3192 0.950 . S
H3170 C3193 0.950 . S
H3171 C3195 0.950 . S
H3172 C3196 0.950 . S
H3173 C3197 0.951 . S
H3174 C3199 0.951 . S
H3175 C3201 0.950 . S
H3176 C3202 0.950 . S
H3177 C3204 0.950 . S
H3178 C3207 0.950 . S
H3179 C3208 0.950 . S
H3180 C3210 0.950 . S
H3181 C3211 0.950 . S
C3182 H3164 0.951 . S
C3182 C3183 1.366 . S
C3182 C3184 1.388 . S
C3183 C3182 1.366 . S
C3183 C3187 1.385 . S
C3184 H3165 0.951 . S
C3184 C3182 1.388 . S
C3184 C3185 1.366 . S
C3185 C3184 1.366 . S
C3185 C3186 1.414 . S
C3185 C3188 1.499 . S
C3186 H3166 0.950 . S
C3186 C3185 1.414 . S
C3186 C3187 1.374 . S
C3187 H3167 0.950 . S
C3187 C3183 1.385 . S
C3187 C3186 1.374 . S
C3188 C3185 1.499 . S
C3188 C3189 1.373 . S
C3188 C3190 1.389 . S
C3189 H3168 0.950 . S
C3189 C3188 1.373 . S
C3189 C3205 1.377 1_455 S
C3190 C3188 1.389 . S
C3190 C3191 1.524 . S
C3190 C3204 1.377 1_455 S
C3191 C3190 1.524 . S
C3191 C3192 1.397 . S
C3191 C3196 1.363 1_455 S
C3192 H3169 0.950 . S
C3192 C3191 1.397 . S
C3192 C3193 1.334 . S
C3193 H3170 0.950 . S
C3193 C3192 1.334 . S
C3193 C3194 1.287 . S
C3194 C3193 1.287 . S
C3194 C3195 1.524 1_455 S
C3194 H3213 0.913 . S
C3195 H3171 0.950 . S
C3195 C3194 1.524 1_655 S
C3195 C3196 1.415 . S
C3196 H3172 0.950 . S
C3196 C3191 1.363 1_655 S
C3196 C3195 1.415 . S
C3197 H3173 0.951 . S
C3197 C3198 1.366 . S
C3197 C3199 1.388 . S
C3198 C3197 1.366 . S
C3198 C3202 1.385 . S
C3199 H3174 0.951 . S
C3199 C3197 1.388 . S
C3199 C3200 1.366 . S
C3200 C3199 1.366 . S
C3200 C3201 1.414 . S
C3200 C3203 1.499 . S
C3201 H3175 0.950 . S
C3201 C3200 1.414 . S
C3201 C3202 1.374 . S
C3202 H3176 0.950 . S
C3202 C3198 1.385 . S
C3202 C3201 1.374 . S
C3203 C3200 1.499 . S
C3203 C3204 1.373 . S
C3203 C3205 1.389 . S
C3204 H3177 0.950 . S
C3204 C3190 1.377 1_655 S
C3204 C3203 1.373 . S
C3205 C3189 1.377 1_655 S
C3205 C3203 1.389 . S
C3205 C3206 1.524 . S
C3206 C3205 1.524 . S
C3206 C3207 1.397 . S
C3206 C3211 1.363 1_655 S
C3207 H3178 0.950 . S
C3207 C3206 1.397 . S
C3207 C3208 1.334 . S
C3208 H3179 0.950 . S
C3208 C3207 1.334 . S
C3208 C3209 1.287 . S
C3209 C3208 1.287 . S
C3209 C3210 1.524 1_655 S
C3209 H3212 0.999 . S
C3210 H3180 0.950 . S
C3210 C3209 1.524 1_455 S
C3210 C3211 1.415 . S
C3211 H3181 0.950 . S
C3211 C3206 1.363 1_455 S
C3211 C3210 1.415 . S
H3212 C3209 0.999 . S
H3213 C3194 0.913 . S
H3214 C3232 0.951 . S
H3215 C3234 0.951 1_655 S
H3216 C3236 0.950 . S
H3217 C3237 0.950 . S
H3218 C3239 0.950 . S
H3219 C3242 0.950 . S
H3220 C3243 0.950 . S
H3221 C3245 0.950 . S
H3222 C3246 0.950 . S
H3223 C3247 0.951 . S
H3224 C3249 0.951 1_455 S
H3225 C3251 0.950 . S
H3226 C3252 0.950 . S
H3227 C3254 0.950 . S
H3228 C3257 0.950 . S
H3229 C3258 0.950 . S
H3230 C3260 0.950 . S
H3231 C3261 0.950 . S
C3232 H3214 0.951 . S
C3232 C3233 1.366 . S
C3232 C3234 1.388 . S
C3233 C3232 1.366 . S
C3233 C3237 1.385 . S
C3234 H3215 0.951 1_455 S
C3234 C3232 1.388 . S
C3234 C3235 1.366 . S
C3235 C3234 1.366 . S
C3235 C3236 1.414 . S
C3235 C3238 1.499 . S
C3236 H3216 0.950 . S
C3236 C3235 1.414 . S
C3236 C3237 1.374 . S
C3237 H3217 0.950 . S
C3237 C3233 1.385 . S
C3237 C3236 1.374 . S
C3238 C3235 1.499 . S
C3238 C3239 1.373 . S
C3238 C3240 1.389 1_455 S
C3239 H3218 0.950 . S
C3239 C3238 1.373 . S
C3239 C3255 1.377 . S
C3240 C3238 1.389 1_655 S
C3240 C3241 1.524 . S
C3240 C3254 1.377 . S
C3241 C3240 1.524 . S
C3241 C3242 1.397 1_655 S
C3241 C3246 1.363 . S
C3242 H3219 0.950 . S
C3242 C3241 1.397 1_455 S
C3242 C3243 1.334 . S
C3243 H3220 0.950 . S
C3243 C3242 1.334 . S
C3243 C3244 1.287 1_455 S
C3244 C3243 1.287 1_655 S
C3244 C3245 1.524 . S
C3244 H3263 0.913 . S
C3245 H3221 0.950 . S
C3245 C3244 1.524 . S
C3245 C3246 1.415 . S
C3246 H3222 0.950 . S
C3246 C3241 1.363 . S
C3246 C3245 1.415 . S
C3247 H3223 0.951 . S
C3247 C3248 1.366 . S
C3247 C3249 1.388 . S
C3248 C3247 1.366 . S
C3248 C3252 1.385 . S
C3249 H3224 0.951 1_655 S
C3249 C3247 1.388 . S
C3249 C3250 1.366 . S
C3250 C3249 1.366 . S
C3250 C3251 1.414 . S
C3250 C3253 1.499 . S
C3251 H3225 0.950 . S
C3251 C3250 1.414 . S
C3251 C3252 1.374 . S
C3252 H3226 0.950 . S
C3252 C3248 1.385 . S
C3252 C3251 1.374 . S
C3253 C3250 1.499 . S
C3253 C3254 1.373 . S
C3253 C3255 1.389 1_655 S
C3254 H3227 0.950 . S
C3254 C3240 1.377 . S
C3254 C3253 1.373 . S
C3255 C3239 1.377 . S
C3255 C3253 1.389 1_455 S
C3255 C3256 1.524 . S
C3256 C3255 1.524 . S
C3256 C3257 1.397 1_455 S
C3256 C3261 1.363 . S
C3257 H3228 0.950 . S
C3257 C3256 1.397 1_655 S
C3257 C3258 1.334 . S
C3258 H3229 0.950 . S
C3258 C3257 1.334 . S
C3258 C3259 1.287 1_655 S
C3259 C3258 1.287 1_455 S
C3259 C3260 1.524 . S
C3259 H3262 0.999 . S
C3260 H3230 0.950 . S
C3260 C3259 1.524 . S
C3260 C3261 1.415 . S
C3261 H3231 0.950 . S
C3261 C3256 1.363 . S
C3261 C3260 1.415 . S
H3262 C3259 0.999 . S
H3263 C3244 0.913 . S
C483 C213 2.227 . S
C498 C21 2.029 . S
C533 C358 2.227 . S
C548 C50 2.028 . S
C583 C79 2.028 . S
C598 C155 2.227 . S
C633 C416 2.228 . S
C648 C108 2.028 1_455 S
C683 C97 2.227 . S
C698 C137 2.029 . S
C733 C166 2.029 . S
C748 C242 2.227 . S
C783 C195 2.029 . S
C798 C39 2.227 . S
C833 C300 2.227 . S
C848 C224 2.029 1_655 S
C883 C445 2.228 . S
C898 C253 2.028 . S
C933 C282 2.029 1_655 S
C948 C126 2.227 . S
C983 C387 2.228 . S
C998 C311 2.028 . S
C1033 C184 2.227 . S
C1048 C340 2.029 . S
C1083 C329 2.227 . S
C1098 C369 2.028 . S
C1133 C398 2.028 1_455 S
C1148 C10 2.228 . S
C1183 C427 2.028 . S
C1198 C271 2.227 . S
C1233 C68 2.228 . S
C1248 C456 2.028 . S
C1283 C15 1.259 1_565 S
C1298 C409 1.304 . S
C1333 C206 1.304 . S
C1348 C44 1.259 . S
C1383 C351 1.304 . S
C1398 C73 1.258 1_545 S
C1433 C102 1.259 . S
C1448 C148 1.304 . S
C1483 C293 1.304 . S
C1498 C131 1.259 1_545 S
C1533 C90 1.304 . S
C1548 C160 1.259 . S
C1583 C189 1.258 1_565 S
C1598 C235 1.304 . S
C1633 C218 1.258 . S
C1648 C32 1.304 . S
C1683 C247 1.259 . S
C1698 C177 1.304 . S
C1733 C276 1.258 . S
C1748 C438 1.304 . S
C1783 C119 1.304 . S
C1798 C305 1.259 . S
C1833 C380 1.304 . S
C1848 C334 1.258 . S
C1883 C61 1.304 . S
C1898 C363 1.259 . S
C1933 C392 1.259 . S
C1948 C322 1.304 . S
C1983 C3 1.304 . S
C1998 C421 1.258 . S
C2033 C264 1.304 . S
C2048 C450 1.259 . S
C2083 C13 1.496 1_556 S
C2098 C269 1.422 . S
C2133 C298 1.424 . S
C2148 C42 1.496 . S
C2183 C327 1.423 . S
C2198 C71 1.495 . S
C2233 C240 1.423 . S
C2248 C100 1.495 . S
C2283 C129 1.497 1_554 S
C2298 C385 1.423 . S
C2333 C158 1.497 . S
C2348 C414 1.423 . S
C2383 C443 1.423 . S
C2398 C187 1.497 . S
C2433 C356 1.423 . S
C2448 C216 1.497 . S
C2483 C37 1.424 . S
C2498 C245 1.496 . S
C2533 C66 1.423 . S
C2548 C274 1.495 . S
C2583 C303 1.495 1_556 S
C2598 C95 1.422 . S
C2633 C332 1.496 . S
C2648 C8 1.424 . S
C2683 C361 1.496 . S
C2698 C153 1.423 . S
C2733 C182 1.422 . S
C2748 C390 1.495 . S
C2783 C419 1.495 1_554 S
C2798 C211 1.422 . S
C2833 C124 1.422 . S
C2848 C448 1.496 . S
C2883 C295 2.364 . S
C2898 C5 2.364 . S
C2933 C34 2.365 . S
C2948 C324 2.365 . S
C2983 C63 2.365 . S
C2998 C237 2.365 . S
C3033 C266 2.364 . S
C3048 C92 2.364 . S
C3083 C121 2.364 . S
C3098 C411 2.364 . S
C3133 C440 2.364 . S
C3148 C150 2.364 . S
C3183 C353 2.365 . S
C3198 C179 2.365 . S
C3233 C208 2.365 . S
C3248 C382 2.364 . S
