# Generated by pormake.
# Topology unf, (4)-cn, num edge types: 1
# Building blocks:
#     Node 0, Type 0, BuildingBlock: ICAMEG_clean_sbu_1, # of connection points: 4
#     Node 1, Type 0, BuildingBlock: ICAMEG_clean_sbu_1, # of connection points: 4
#     Node 2, Type 0, BuildingBlock: ICAMEG_clean_sbu_1, # of connection points: 4
#     Node 3, Type 0, BuildingBlock: ICAMEG_clean_sbu_1, # of connection points: 4
#     Node 4, Type 0, BuildingBlock: ICAMEG_clean_sbu_1, # of connection points: 4
#     Node 5, Type 0, BuildingBlock: ICAMEG_clean_sbu_1, # of connection points: 4
#     Node 6, Type 0, BuildingBlock: ICAMEG_clean_sbu_1, # of connection points: 4
#     Node 7, Type 0, BuildingBlock: ICAMEG_clean_sbu_1, # of connection points: 4
#     Node 8, Type 0, BuildingBlock: ICAMEG_clean_sbu_1, # of connection points: 4
#     Node 9, Type 0, BuildingBlock: ICAMEG_clean_sbu_1, # of connection points: 4
#     Node 10, Type 0, BuildingBlock: ICAMEG_clean_sbu_1, # of connection points: 4
#     Node 11, Type 0, BuildingBlock: ICAMEG_clean_sbu_1, # of connection points: 4
#     Edge 12, Type (0, 0), BuildingBlock: CIFDUS_clean_linker_0, # of connection points: 2
#     Edge 13, Type (0, 0), BuildingBlock: CIFDUS_clean_linker_0, # of connection points: 2
#     Edge 14, Type (0, 0), BuildingBlock: CIFDUS_clean_linker_0, # of connection points: 2
#     Edge 15, Type (0, 0), BuildingBlock: CIFDUS_clean_linker_0, # of connection points: 2
#     Edge 16, Type (0, 0), BuildingBlock: CIFDUS_clean_linker_0, # of connection points: 2
#     Edge 17, Type (0, 0), BuildingBlock: CIFDUS_clean_linker_0, # of connection points: 2
#     Edge 18, Type (0, 0), BuildingBlock: CIFDUS_clean_linker_0, # of connection points: 2
#     Edge 19, Type (0, 0), BuildingBlock: CIFDUS_clean_linker_0, # of connection points: 2
#     Edge 20, Type (0, 0), BuildingBlock: CIFDUS_clean_linker_0, # of connection points: 2
#     Edge 21, Type (0, 0), BuildingBlock: CIFDUS_clean_linker_0, # of connection points: 2
#     Edge 22, Type (0, 0), BuildingBlock: CIFDUS_clean_linker_0, # of connection points: 2
#     Edge 23, Type (0, 0), BuildingBlock: CIFDUS_clean_linker_0, # of connection points: 2
#     Edge 24, Type (0, 0), BuildingBlock: CIFDUS_clean_linker_0, # of connection points: 2
#     Edge 25, Type (0, 0), BuildingBlock: CIFDUS_clean_linker_0, # of connection points: 2
#     Edge 26, Type (0, 0), BuildingBlock: CIFDUS_clean_linker_0, # of connection points: 2
#     Edge 27, Type (0, 0), BuildingBlock: CIFDUS_clean_linker_0, # of connection points: 2
#     Edge 28, Type (0, 0), BuildingBlock: CIFDUS_clean_linker_0, # of connection points: 2
#     Edge 29, Type (0, 0), BuildingBlock: CIFDUS_clean_linker_0, # of connection points: 2
#     Edge 30, Type (0, 0), BuildingBlock: CIFDUS_clean_linker_0, # of connection points: 2
#     Edge 31, Type (0, 0), BuildingBlock: CIFDUS_clean_linker_0, # of connection points: 2
#     Edge 32, Type (0, 0), BuildingBlock: CIFDUS_clean_linker_0, # of connection points: 2
#     Edge 33, Type (0, 0), BuildingBlock: CIFDUS_clean_linker_0, # of connection points: 2
#     Edge 34, Type (0, 0), BuildingBlock: CIFDUS_clean_linker_0, # of connection points: 2
#     Edge 35, Type (0, 0), BuildingBlock: CIFDUS_clean_linker_0, # of connection points: 2
# Relax obj value: 0.238
# Max RMSD: 0.195
# Mean RMSD: 0.195
data_MOF--net-unf--node1-ICAMEG_clean_sbu_1--edge1-CIFDUS_clean_linker_0
_symmetry_space_group_name_H-M    P1
_symmetry_Int_Tables_number       1
_symmetry_cell_setting            triclinic
loop_
_symmetry_equiv_pos_as_xyz
'x, y, z'
_cell_length_a     33.76936
_cell_length_b     33.783055
_cell_length_c     36.113472
_cell_angle_alpha  90.135136
_cell_angle_beta   89.671514
_cell_angle_gamma 120.16568
loop_
_atom_site_label
_atom_site_type_symbol
_atom_site_fract_x
_atom_site_fract_y
_atom_site_fract_z
_atom_type_partial_charge
Co0 Co 0.14786 0.44147 0.0375 0.0
Co1 Co 0.09663 0.41642 0.12292 0.0
O2 O 0.15082 0.43579 0.09127 0.0
C3 C 0.19303 0.38575 0.04082 0.0
O4 O 0.16067 0.35716 0.0634 0.0
C5 C 0.17903 0.48043 0.17046 0.0
O6 O 0.20714 0.49083 0.14221 0.0
O7 O 0.08845 0.46747 0.10292 0.0
O8 O 0.10168 0.46104 0.04297 0.0
H9 H 0.9351 0.37893 0.14986 0.0
H10 H 0.23983 0.48947 0.07245 0.0
O11 O 0.19383 0.42188 0.02988 0.0
H12 H 0.22057 0.60996 1.0131 0.0
H13 H 0.21382 0.48479 0.90868 0.0
H14 H 0.0723 0.41488 0.98377 0.0
H15 H 0.16041 0.5294 1.0087 0.0
H16 H 0.2172 0.47886 0.9765 0.0
O17 O 0.13575 0.45559 0.16576 0.0
H18 H 0.00319 0.40165 0.11076 0.0
H19 H 0.07514 0.39128 0.20282 0.0
H20 H 0.06741 0.42063 0.91614 0.0
H21 H 0.30167 0.57021 0.07727 0.0
H22 H 0.13852 0.45574 0.87807 0.0
H23 H 0.2919 0.63112 0.04772 0.0
O24 O 0.09746 0.37682 0.03422 0.0
H25 H 0.18285 0.33979 0.16822 0.0
H26 H 0.0315 0.31734 0.13519 0.0
H27 H 0.03774 0.25155 0.15658 0.0
H28 H 0.11379 0.26256 0.17357 0.0
H29 H 0.17525 0.4043 0.14622 0.0
H30 H 0.00798 0.36894 0.24305 0.0
H31 H 0.93721 0.36244 0.21659 0.0
O32 O 0.05543 0.37604 0.08272 0.0
C33 C 0.08432 0.47375 0.06842 0.0
C34 C 0.9657 0.38157 0.16172 0.0
C35 C 0.00663 0.37606 0.21402 0.0
N36 N 0.04318 0.39781 0.15435 0.0
C37 C 0.00437 0.39434 0.13965 0.0
C38 C 0.04466 0.38895 0.1911 0.0
C39 C 0.96693 0.37238 0.19916 0.0
C40 C 0.23563 0.51589 0.05942 0.0
N41 N 0.19641 0.50479 0.04064 0.0
C42 C 0.27067 0.56149 0.06227 0.0
C43 C 0.26525 0.59568 0.04568 0.0
C44 C 0.22525 0.58396 0.02636 0.0
C45 C 0.19105 0.53814 0.02412 0.0
C46 C 0.18259 0.46939 0.92496 0.0
C47 C 0.10344 0.4303 0.96747 0.0
C48 C 0.18428 0.46575 0.96336 0.0
N49 N 0.14501 0.44653 0.98414 0.0
C50 C 0.10043 0.43342 0.92914 0.0
C51 C 0.14034 0.45311 0.9078 0.0
C52 C 0.0597 0.36005 0.05186 0.0
C53 C 0.14942 0.33467 0.16141 0.0
C54 C 0.06474 0.32263 0.14275 0.0
C55 C 0.06804 0.28514 0.15477 0.0
C56 C 0.1107 0.29132 0.16428 0.0
N57 N 0.10275 0.36532 0.14063 0.0
C58 C 0.14479 0.37137 0.14929 0.0
Co59 Co 0.55626 0.71329 0.05 0.0
Co60 Co 0.57684 0.68068 0.13391 0.0
O61 O 0.5606 0.71851 0.10383 0.0
C62 C 0.61468 0.81427 0.05808 0.0
O63 O 0.64465 0.80882 0.07708 0.0
C64 C 0.50245 0.68695 0.17484 0.0
O65 O 0.48333 0.68574 0.14306 0.0
O66 O 0.52595 0.62318 0.11123 0.0
O67 O 0.53433 0.64645 0.05218 0.0
H68 H 0.60899 0.55271 0.1567 0.0
H69 H 0.51176 0.75931 0.08707 0.0
O70 O 0.57833 0.77985 0.04608 0.0
H71 H 0.38672 0.62535 0.02429 0.0
H72 H 0.51867 0.74723 0.92346 0.0
H73 H 0.5826 0.66698 0.9931 0.0
H74 H 0.46626 0.64086 0.02002 0.0
H75 H 0.52319 0.7519 0.9916 0.0
O76 O 0.53657 0.68053 0.17585 0.0
H77 H 0.58963 0.60127 0.11905 0.0
H78 H 0.59762 0.67929 0.21402 0.0
H79 H 0.57831 0.66103 0.92505 0.0
H80 H 0.43306 0.74568 0.09126 0.0
H81 H 0.54613 0.70133 0.88974 0.0
H82 H 0.36999 0.67836 0.05994 0.0
O83 O 0.62019 0.72527 0.04678 0.0
H84 H 0.65084 0.83864 0.18928 0.0
H85 H 0.67582 0.71406 0.14664 0.0
H86 H 0.74073 0.78492 0.1715 0.0
H87 H 0.7284 0.84775 0.19321 0.0
H88 H 0.58706 0.76752 0.16386 0.0
H89 H 0.61672 0.63131 0.2528 0.0
H90 H 0.62268 0.56757 0.22414 0.0
O91 O 0.6185 0.68125 0.09394 0.0
C92 C 0.52128 0.6148 0.07632 0.0
C93 C 0.60658 0.58042 0.16951 0.0
C94 C 0.61083 0.62448 0.22345 0.0
N95 N 0.59256 0.64318 0.16421 0.0
C96 C 0.5957 0.60812 0.14829 0.0
C97 C 0.59983 0.65144 0.20135 0.0
C98 C 0.6142 0.58875 0.20735 0.0
C99 C 0.4846 0.73019 0.07289 0.0
N100 N 0.49367 0.70095 0.05331 0.0
C101 C 0.44003 0.7225 0.07557 0.0
C102 C 0.40459 0.68458 0.05804 0.0
C103 C 0.41402 0.65486 0.0381 0.0
C104 C 0.45907 0.66366 0.03598 0.0
C105 C 0.5326 0.72937 0.93854 0.0
C106 C 0.56823 0.68434 0.978 0.0
C107 C 0.53528 0.73191 0.97714 0.0
N108 N 0.55257 0.70922 0.99639 0.0
C109 C 0.56604 0.68097 0.93943 0.0
C110 C 0.54802 0.70362 0.91964 0.0
C111 C 0.63571 0.70292 0.06373 0.0
C112 C 0.65659 0.81139 0.18012 0.0
C113 C 0.67016 0.74124 0.15601 0.0
C114 C 0.70705 0.78128 0.17008 0.0
C115 C 0.70011 0.81651 0.18226 0.0
N116 N 0.62745 0.73628 0.1543 0.0
C117 C 0.6205 0.77087 0.16589 0.0
Co118 Co 0.27711 0.86026 0.03929 0.0
Co119 Co 0.32018 0.89422 0.127 0.0
O120 O 0.27365 0.85015 0.09286 0.0
C121 C 0.18598 0.84561 0.02147 0.0
O122 O 0.20834 0.88648 1.00637 0.0
C123 C 0.29002 0.79946 0.15697 0.0
O124 O 0.27733 0.78207 0.12375 0.0
O125 O 0.37043 0.89301 0.0975 0.0
O126 O 0.34551 0.89265 0.03999 0.0
H127 H 0.4693 0.03488 0.15933 0.0
H128 H 0.21471 0.76469 0.06462 0.0
O129 O 0.20809 0.82906 0.0376 0.0
H130 H 0.3337 0.75845 0.98923 0.0
H131 H 0.23033 0.81533 0.90652 0.0
H132 H 0.33417 0.93949 0.99023 0.0
H133 H 0.33416 0.83104 0.9972 0.0
H134 H 0.22662 0.80265 0.97398 0.0
O135 O 0.31194 0.84285 0.16129 0.0
H136 H 0.40963 0.97989 0.11738 0.0
H137 H 0.32978 0.90193 0.20941 0.0
H138 H 0.33905 0.95362 0.92301 0.0
H139 H 0.2124 0.69095 0.05661 0.0
H140 H 0.28687 0.89127 0.88061 0.0
H141 H 0.27292 0.68804 0.01916 0.0
O142 O 0.28087 0.92 0.04756 0.0
H143 H 0.16522 0.82874 0.188 0.0
H144 H 0.30938 0.97018 0.15781 0.0
H145 H 0.24873 0.97516 0.19208 0.0
H146 H 0.17613 0.90406 0.20766 0.0
H147 H 0.22637 0.82533 0.15336 0.0
H148 H 0.38879 0.95596 0.25232 0.0
H149 H 0.45914 0.02308 0.22736 0.0
O150 O 0.3287 0.94682 0.09578 0.0
C151 C 0.37769 0.90121 0.06262 0.0
C152 C 0.43882 0.00574 0.17055 0.0
C153 C 0.39368 0.9614 0.22273 0.0
N154 N 0.3663 0.9375 0.16081 0.0
C155 C 0.40487 0.97443 0.14691 0.0
C156 C 0.36047 0.93077 0.19824 0.0
C157 C 0.43311 0.99908 0.20871 0.0
C158 C 0.24055 0.76336 0.04775 0.0
N159 N 0.27471 0.80223 0.03168 0.0
C160 C 0.23923 0.72159 0.0435 0.0
C161 C 0.2731 0.71987 0.02251 0.0
C162 C 0.30742 0.7595 1.00579 0.0
C163 C 0.30765 0.80058 1.01063 0.0
C164 C 0.2533 0.84275 0.92469 0.0
C165 C 0.31137 0.91214 0.97201 0.0
C166 C 0.2514 0.83575 0.96291 0.0
N167 N 0.28024 0.87025 0.98607 0.0
C168 C 0.31429 0.92036 0.93394 0.0
C169 C 0.28501 0.88537 0.91018 0.0
C170 C 0.3086 0.95263 0.0683 0.0
C171 C 0.19687 0.85994 0.18166 0.0
C172 C 0.27793 0.93904 0.16447 0.0
C173 C 0.24369 0.9421 0.1839 0.0
C174 C 0.20297 0.90221 0.19263 0.0
N175 N 0.27202 0.8974 0.15427 0.0
C176 C 0.23185 0.85821 0.16224 0.0
Co177 Co 0.58697 0.86353 0.48293 0.0
Co178 Co 0.57867 0.89762 0.39525 0.0
O179 O 0.57812 0.85228 0.42957 0.0
C180 C 0.65146 0.83022 0.46484 0.0
O181 O 0.66481 0.85555 0.43482 0.0
C182 C 0.50679 0.80434 0.36806 0.0
O183 O 0.49999 0.7886 0.40203 0.0
O184 O 0.52999 0.90102 0.42532 0.0
O185 O 0.55488 0.89941 0.48239 0.0
H186 H 0.58204 0.04377 0.3621 0.0
H187 H 0.54707 0.76716 0.45816 0.0
O188 O 0.62025 0.82887 0.48561 0.0
H189 H 0.42914 0.76895 0.53814 0.0
H190 H 0.59324 0.82076 0.6154 0.0
H191 H 0.61439 0.94456 0.53107 0.0
H192 H 0.50289 0.83964 0.52722 0.0
H193 H 0.58045 0.80666 0.54833 0.0
O194 O 0.53217 0.84719 0.36211 0.0
H195 H 0.5824 0.98684 0.40438 0.0
H196 H 0.57568 0.90443 0.31286 0.0
H197 H 0.6272 0.96005 0.59794 0.0
H198 H 0.47415 0.69546 0.46898 0.0
H199 H 0.61662 0.89788 0.64064 0.0
H200 H 0.41442 0.69613 0.509 0.0
O201 O 0.64573 0.92088 0.47379 0.0
H202 H 0.65568 0.82102 0.33179 0.0
H203 H 0.6681 0.96882 0.36364 0.0
H204 H 0.73028 0.96791 0.32831 0.0
H205 H 0.72417 0.89361 0.3119 0.0
H206 H 0.59482 0.82348 0.36764 0.0
H207 H 0.57492 0.96037 0.26964 0.0
H208 H 0.57823 0.03072 0.29417 0.0
O209 O 0.62614 0.94907 0.42562 0.0
C210 C 0.53216 0.90953 0.46018 0.0
C211 C 0.58056 0.01324 0.35106 0.0
C212 C 0.57649 0.9664 0.29918 0.0
N213 N 0.57889 0.94219 0.36121 0.0
C214 C 0.58076 0.98084 0.37489 0.0
C215 C 0.57671 0.93473 0.32384 0.0
C216 C 0.57839 0.00589 0.31296 0.0
C217 C 0.5215 0.76764 0.47599 0.0
N218 N 0.52921 0.80762 0.49189 0.0
C219 C 0.48016 0.72697 0.48185 0.0
C220 C 0.44663 0.72738 0.50426 0.0
C221 C 0.45484 0.76824 0.52055 0.0
C222 C 0.49659 0.80825 0.51407 0.0
C223 C 0.59786 0.8481 0.59709 0.0
C224 C 0.60948 0.91725 0.54944 0.0
C225 C 0.59074 0.84034 0.55907 0.0
N226 N 0.59636 0.87467 0.53578 0.0
C227 C 0.61689 0.92626 0.5873 0.0
C228 C 0.61098 0.89138 0.61123 0.0
C229 C 0.65231 0.95386 0.4527 0.0
C230 C 0.65858 0.85361 0.33849 0.0
C231 C 0.66516 0.93632 0.35672 0.0
C232 C 0.70049 0.93603 0.33664 0.0
C233 C 0.69704 0.89434 0.32742 0.0
N234 N 0.62727 0.89621 0.36717 0.0
C235 C 0.62393 0.85522 0.35855 0.0
Co236 Co 0.15357 0.71681 0.48121 0.0
Co237 Co 0.10184 0.68307 0.39638 0.0
O238 O 0.15539 0.72169 0.42717 0.0
C239 C 0.19145 0.81587 0.46978 0.0
O240 O 0.15998 0.80597 0.44457 0.0
C241 C 0.18474 0.69289 0.35572 0.0
O242 O 0.20465 0.69603 0.38752 0.0
O243 O 0.09541 0.6261 0.41973 0.0
O244 O 0.11057 0.6493 0.47883 0.0
H245 H 0.94211 0.55373 0.37238 0.0
H246 H 0.24548 0.7662 0.44585 0.0
O247 O 0.19515 0.78424 0.48559 0.0
H248 H 0.23964 0.63493 0.51047 0.0
H249 H 0.22184 0.7543 0.60893 0.0
H250 H 0.07993 0.66711 0.53697 0.0
H251 H 0.17368 0.64726 0.51268 0.0
H252 H 0.22361 0.75858 0.54073 0.0
O253 O 0.14299 0.68312 0.35505 0.0
H254 H 0.00936 0.60316 0.41063 0.0
H255 H 0.08116 0.6807 0.31578 0.0
H256 H 0.0767 0.66145 0.60507 0.0
H257 H 0.31258 0.75554 0.44337 0.0
H258 H 0.14801 0.70528 0.64155 0.0
H259 H 0.30983 0.68936 0.4757 0.0
O260 O 0.10029 0.72626 0.48341 0.0
H261 H 0.18539 0.84021 0.33912 0.0
H262 H 0.03561 0.71504 0.38205 0.0
H263 H 0.04106 0.7849 0.35579 0.0
H264 H 0.11632 0.84802 0.33391 0.0
H265 H 0.17858 0.7702 0.36609 0.0
H266 H 0.01481 0.63184 0.27643 0.0
H267 H 0.94455 0.56789 0.30471 0.0
O268 O 0.05931 0.68311 0.43544 0.0
C269 C 0.09224 0.61768 0.45463 0.0
C270 C 0.9725 0.5815 0.35972 0.0
C271 C 0.01333 0.62529 0.30587 0.0
N272 N 0.04921 0.64482 0.36556 0.0
C273 C 0.0107 0.60968 0.38128 0.0
C274 C 0.05089 0.65274 0.32831 0.0
C275 C 0.97391 0.58944 0.32176 0.0
C276 C 0.2442 0.73757 0.46026 0.0
N277 N 0.20565 0.70731 0.47925 0.0
C278 C 0.28222 0.73159 0.45862 0.0
C279 C 0.28062 0.6944 0.4767 0.0
C280 C 0.24122 0.66379 0.49614 0.0
C281 C 0.20385 0.67081 0.49711 0.0
C282 C 0.19055 0.73493 0.59335 0.0
C283 C 0.11118 0.68603 0.5526 0.0
C284 C 0.19133 0.73725 0.55472 0.0
N285 N 0.15199 0.71275 0.53484 0.0
C286 C 0.10911 0.6828 0.59118 0.0
C287 C 0.14912 0.70742 0.61163 0.0
C288 C 0.06292 0.70432 0.4657 0.0
C289 C 0.15234 0.81282 0.34832 0.0
C290 C 0.06853 0.74237 0.37269 0.0
C291 C 0.07138 0.78183 0.35777 0.0
C292 C 0.1136 0.81722 0.34548 0.0
N293 N 0.10661 0.73811 0.37513 0.0
C294 C 0.14819 0.77285 0.36338 0.0
Co295 Co 0.28161 0.41637 0.48956 0.0
Co296 Co 0.32385 0.41661 0.40252 0.0
O297 O 0.27783 0.41746 0.43544 0.0
C298 C 0.19093 0.34132 0.51107 0.0
O299 O 0.21314 0.32442 0.52857 0.0
C300 C 0.29138 0.47514 0.36307 0.0
O301 O 0.26674 0.47355 0.39183 0.0
O302 O 0.37441 0.47026 0.42941 0.0
O303 O 0.34971 0.45292 0.48811 0.0
H304 H 0.47202 0.42092 0.37457 0.0
H305 H 0.21863 0.4449 0.4584 0.0
O306 O 0.21301 0.37815 0.49225 0.0
H307 H 0.33474 0.57915 0.52727 0.0
H308 H 0.23506 0.4282 0.62023 0.0
H309 H 0.33863 0.39966 0.54246 0.0
H310 H 0.33756 0.50766 0.52561 0.0
H311 H 0.23122 0.42998 0.55212 0.0
O312 O 0.31772 0.45816 0.36507 0.0
H313 H 0.41252 0.42026 0.41477 0.0
H314 H 0.33395 0.41188 0.3205 0.0
H315 H 0.34366 0.39762 0.61041 0.0
H316 H 0.2141 0.51551 0.45988 0.0
H317 H 0.29162 0.41195 0.64981 0.0
H318 H 0.27268 0.5834 0.49426 0.0
O319 O 0.286 0.35997 0.48678 0.0
H320 H 0.1676 0.32076 0.34542 0.0
H321 H 0.31298 0.32803 0.37662 0.0
H322 H 0.25233 0.25954 0.34558 0.0
H323 H 0.17908 0.25569 0.32943 0.0
H324 H 0.22866 0.38812 0.3769 0.0
H325 H 0.39285 0.41287 0.27929 0.0
H326 H 0.46245 0.41727 0.30627 0.0
O327 O 0.33113 0.3745 0.437 0.0
C328 C 0.38169 0.47361 0.46443 0.0
C329 C 0.44186 0.41901 0.36247 0.0
C330 C 0.39747 0.41458 0.309 0.0
N331 N 0.36981 0.41623 0.37009 0.0
C332 C 0.408 0.4186 0.38511 0.0
C333 C 0.36433 0.41428 0.3325 0.0
C334 C 0.43649 0.417 0.32416 0.0
C335 C 0.24397 0.47412 0.47374 0.0
N336 N 0.27839 0.47213 0.49176 0.0
C337 C 0.24133 0.51408 0.47436 0.0
C338 C 0.27421 0.55217 0.49363 0.0
C339 C 0.3091 0.54984 0.5121 0.0
C340 C 0.31066 0.50931 0.51086 0.0
C341 C 0.25801 0.42202 0.60336 0.0
C342 C 0.31595 0.40609 0.55937 0.0
C343 C 0.25605 0.42307 0.56479 0.0
N344 N 0.28488 0.41523 0.54328 0.0
C345 C 0.31893 0.40483 0.59786 0.0
C346 C 0.28972 0.41287 0.61994 0.0
C347 C 0.31202 0.35191 0.46639 0.0
C348 C 0.1996 0.32227 0.35186 0.0
C349 C 0.28138 0.32689 0.36956 0.0
C350 C 0.24708 0.28788 0.35202 0.0
C351 C 0.206 0.28572 0.34299 0.0
N352 N 0.27531 0.36312 0.37754 0.0
C353 C 0.23467 0.36073 0.36942 0.0
Co354 Co 0.84456 0.55866 0.99271 0.0
Co355 Co 0.90105 0.59305 0.9086 0.0
O356 O 0.846 0.57025 0.93944 0.0
C357 C 0.80251 0.61751 0.98981 0.0
O358 O 0.83803 0.64803 0.97078 0.0
C359 C 0.82138 0.52605 0.86041 0.0
O360 O 0.79328 0.51351 0.88879 0.0
O361 O 0.91325 0.54432 0.92812 0.0
O362 O 0.88955 0.5378 0.98708 0.0
H363 H 0.06658 0.64303 0.88553 0.0
H364 H 0.75452 0.51887 0.95488 0.0
O365 O 0.80006 0.58032 1.0 0.0
H366 H 0.76429 0.3866 1.0005 0.0
H367 H 0.76535 0.5037 0.11604 0.0
H368 H 0.91331 0.57274 0.04998 0.0
H369 H 0.82646 0.46537 1.01292 0.0
H370 H 0.76953 0.51876 0.04897 0.0
O371 O 0.86438 0.55305 0.86506 0.0
H372 H 0.99637 0.61521 0.9231 0.0
H373 H 0.92363 0.61892 0.82879 0.0
H374 H 0.91079 0.55807 0.117 0.0
H375 H 0.69116 0.4407 0.94263 0.0
H376 H 0.83633 0.52327 0.15053 0.0
H377 H 0.69631 0.37398 0.96479 0.0
O378 O 0.89703 0.6217 1.00158 0.0
H379 H 0.80581 0.66037 0.86425 0.0
H380 H 0.96134 0.69274 0.89463 0.0
H381 H 0.94988 0.7555 0.8736 0.0
H382 H 0.87166 0.73949 0.85796 0.0
H383 H 0.81861 0.59897 0.88597 0.0
H384 H 0.99295 0.64629 0.79016 0.0
H385 H 0.06516 0.65874 0.81854 0.0
O386 O 0.93903 0.6347 0.94955 0.0
C387 C 0.9126 0.53211 0.96184 0.0
C388 C 0.03534 0.6378 0.87285 0.0
C389 C 0.99399 0.63953 0.81932 0.0
N390 N 0.95589 0.61547 0.87823 0.0
C391 C 0.99547 0.62213 0.89401 0.0
C392 C 0.95476 0.62379 0.84132 0.0
C393 C 0.03451 0.64656 0.83526 0.0
C394 C 0.75668 0.49004 0.96525 0.0
N395 N 0.79443 0.49679 0.98429 0.0
C396 C 0.72076 0.44583 0.95805 0.0
C397 C 0.72361 0.40837 0.97056 0.0
C398 C 0.76188 0.41547 0.99044 0.0
C399 C 0.79711 0.46018 0.99717 0.0
C400 C 0.79802 0.51897 0.10178 0.0
C401 C 0.88089 0.55779 0.06436 0.0
C402 C 0.80064 0.52774 0.0638 0.0
N403 N 0.84175 0.54685 0.04554 0.0
C404 C 0.87962 0.54947 0.10233 0.0
C405 C 0.83784 0.52993 0.12111 0.0
C406 C 0.93372 0.64482 0.98263 0.0
C407 C 0.84014 0.6677 0.87059 0.0
C408 C 0.92719 0.68533 0.88786 0.0
C409 C 0.92092 0.72109 0.87593 0.0
C410 C 0.87706 0.7121 0.86717 0.0
N411 N 0.89092 0.64165 0.89072 0.0
C412 C 0.84772 0.6328 0.88261 0.0
Co413 Co 0.44178 0.29235 0.99056 0.0
Co414 Co 0.42966 0.32768 0.90462 0.0
O415 O 0.44319 0.28904 0.93644 0.0
C416 C 0.38279 0.19402 0.97659 0.0
O417 O 0.362 0.20489 0.95141 0.0
C418 C 0.49778 0.31028 0.86196 0.0
O419 O 0.50469 0.29154 0.89113 0.0
O420 O 0.47863 0.38423 0.92997 0.0
O421 O 0.46514 0.35947 0.98879 0.0
H422 H 0.40044 0.45704 0.87903 0.0
H423 H 0.48991 0.24693 0.95824 0.0
O424 O 0.41714 0.22515 0.99386 0.0
H425 H 0.60603 0.37629 0.03158 0.0
H426 H 0.46285 0.25189 0.12025 0.0
H427 H 0.41193 0.33899 0.04431 0.0
H428 H 0.52728 0.36232 0.02721 0.0
H429 H 0.46612 0.24985 0.05208 0.0
O430 O 0.4738 0.32987 0.86478 0.0
H431 H 0.41611 0.40686 0.9181 0.0
H432 H 0.41615 0.33221 0.82329 0.0
H433 H 0.40853 0.34238 0.11236 0.0
H434 H 0.5683 0.25934 0.96223 0.0
H435 H 0.43411 0.2986 0.15084 0.0
H436 H 0.62666 0.32409 0.9999 0.0
O437 O 0.3784 0.28118 0.9893 0.0
H438 H 0.35613 0.16959 0.84811 0.0
H439 H 0.33331 0.29745 0.88456 0.0
H440 H 0.26981 0.22873 0.85603 0.0
H441 H 0.28107 0.16428 0.83726 0.0
H442 H 0.41818 0.2382 0.87739 0.0
H443 H 0.40094 0.38192 0.78315 0.0
H444 H 0.39277 0.44476 0.81099 0.0
O445 O 0.38434 0.32603 0.94161 0.0
C446 C 0.48081 0.39172 0.96501 0.0
C447 C 0.40389 0.42976 0.86656 0.0
C448 C 0.40426 0.38765 0.81275 0.0
N449 N 0.41704 0.36656 0.8731 0.0
C450 C 0.41271 0.40116 0.88857 0.0
C451 C 0.41309 0.35973 0.83564 0.0
C452 C 0.39963 0.42288 0.82839 0.0
C453 C 0.51531 0.27535 0.97427 0.0
N454 N 0.50408 0.30393 0.99232 0.0
C455 C 0.55963 0.28223 0.97645 0.0
C456 C 0.59242 0.31864 0.99733 0.0
C457 C 0.58083 0.34794 0.01529 0.0
C458 C 0.53624 0.34003 1.01247 0.0
C459 C 0.45172 0.27121 0.1038 0.0
C460 C 0.42342 0.32009 0.06083 0.0
C461 C 0.45342 0.27013 0.06518 0.0
N462 N 0.43965 0.29463 0.04421 0.0
C463 C 0.42128 0.32203 0.09937 0.0
C464 C 0.4356 0.29743 0.12094 0.0
C465 C 0.36422 0.30356 0.97086 0.0
C466 C 0.351 0.19773 0.85566 0.0
C467 C 0.33872 0.26972 0.87636 0.0
C468 C 0.30252 0.23082 0.86023 0.0
C469 C 0.30885 0.19468 0.84971 0.0
N470 N 0.38033 0.27291 0.88156 0.0
C471 C 0.38642 0.23717 0.87185 0.0
Co472 Co 0.70595 0.14859 0.98541 0.0
Co473 Co 0.68004 0.09327 0.90204 0.0
O474 O 0.71415 0.14857 0.93187 0.0
C475 C 0.80693 0.19548 0.97885 0.0
O476 O 0.80247 0.16106 0.95872 0.0
C477 C 0.69575 0.17395 0.85386 0.0
O478 O 0.70947 0.20104 0.88275 0.0
O479 O 0.62023 0.08404 0.92231 0.0
O480 O 0.6399 0.10002 0.98196 0.0
H481 H 0.55833 0.92943 0.88044 0.0
H482 H 0.75009 0.23904 0.94821 0.0
O483 O 0.77172 0.19612 0.99077 0.0
H484 H 0.60583 0.21887 1.00026 0.0
H485 H 0.7286 0.22356 0.1102 0.0
H486 H 0.66175 0.07674 0.04322 0.0
H487 H 0.62782 0.16028 1.01036 0.0
H488 H 0.7369 0.2221 0.0424 0.0
O489 O 0.67926 0.13077 0.85796 0.0
H490 H 0.60297 0.99941 0.91736 0.0
H491 H 0.68319 0.0691 0.82285 0.0
H492 H 0.65222 0.07659 0.11094 0.0
H493 H 0.72983 0.29875 0.93808 0.0
H494 H 0.68577 0.15042 0.14492 0.0
H495 H 0.65681 0.28826 0.96317 0.0
O496 O 0.72168 0.09971 0.99104 0.0
H497 H 0.84246 0.18146 0.85387 0.0
H498 H 0.71639 0.02998 0.89213 0.0
H499 H 0.78935 0.03773 0.87075 0.0
H500 H 0.85297 0.11385 0.85116 0.0
H501 H 0.76947 0.17241 0.87593 0.0
H502 H 0.63909 0.99991 0.78483 0.0
H503 H 0.57626 0.92935 0.81364 0.0
O504 O 0.68087 0.05455 0.94376 0.0
C505 C 0.60982 0.07961 0.95692 0.0
C506 C 0.58566 0.95994 0.86757 0.0
C507 C 0.63093 0.99953 0.81391 0.0
N508 N 0.64573 0.03839 0.87236 0.0
C509 C 0.61114 0.99971 0.88837 0.0
C510 C 0.65566 0.03868 0.83556 0.0
C511 C 0.59571 0.95994 0.83009 0.0
C512 C 0.71861 0.23459 0.95996 0.0
N513 N 0.68995 0.19592 0.97949 0.0
C514 C 0.70724 0.26846 0.95396 0.0
C515 C 0.66626 0.26261 0.96822 0.0
C516 C 0.63757 0.22354 0.98876 0.0
C517 C 0.65008 0.19036 0.99421 0.0
C518 C 0.7136 0.19117 0.09569 0.0
C519 C 0.676 0.10899 0.05771 0.0
C520 C 0.71817 0.19012 0.05729 0.0
N521 N 0.69907 0.14936 0.03875 0.0
C522 C 0.6707 0.1087 0.09611 0.0
C523 C 0.68958 0.15013 0.11516 0.0
C524 C 0.70185 0.06124 0.97452 0.0
C525 C 0.81479 0.14799 0.86185 0.0
C526 C 0.74374 0.06322 0.88345 0.0
C527 C 0.78505 0.06738 0.87143 0.0
C528 C 0.82073 0.11008 0.86046 0.0
N529 N 0.73781 0.10041 0.88419 0.0
C530 C 0.77299 0.14252 0.87402 0.0
Co531 Co 0.43451 0.13857 0.54723 0.0
Co532 Co 0.42957 0.09661 0.63462 0.0
O533 O 0.43832 0.14607 0.60115 0.0
C534 C 0.3732 0.17629 0.56083 0.0
O535 O 0.35288 0.14602 0.58731 0.0
C536 C 0.49663 0.18594 0.67315 0.0
O537 O 0.49961 0.20988 0.64365 0.0
O538 O 0.47844 0.09015 0.60748 0.0
O539 O 0.46085 0.09753 0.54913 0.0
H540 H 0.40953 0.94223 0.66441 0.0
H541 H 0.47946 0.23353 0.5763 0.0
O542 O 0.40714 0.17866 0.54335 0.0
H543 H 0.59797 0.22493 0.50213 0.0
H544 H 0.44779 0.19319 0.41565 0.0
H545 H 0.40496 0.05976 0.49606 0.0
H546 H 0.52054 0.15759 0.50833 0.0
H547 H 0.45412 0.20201 0.48352 0.0
O548 O 0.47521 0.14212 0.67165 0.0
H549 H 0.41895 0.00462 0.62346 0.0
H550 H 0.42271 0.08328 0.71678 0.0
H551 H 0.39845 0.04946 0.42838 0.0
H552 H 0.55627 0.30196 0.57029 0.0
H553 H 0.41995 0.1165 0.38763 0.0
H554 H 0.61597 0.29786 0.53281 0.0
O555 O 0.3724 0.08387 0.55165 0.0
H556 H 0.35265 0.17813 0.6908 0.0
H557 H 0.33634 0.0282 0.66124 0.0
H558 H 0.27291 0.03141 0.69218 0.0
H559 H 0.28092 0.10678 0.70753 0.0
H560 H 0.41465 0.17345 0.65929 0.0
H561 H 0.41375 0.02184 0.75872 0.0
H562 H 0.40691 0.9506 0.73259 0.0
O563 O 0.383 0.04969 0.60061 0.0
C564 C 0.47889 0.08324 0.57251 0.0
C565 C 0.41246 0.9731 0.67614 0.0
C566 C 0.41492 0.01782 0.72906 0.0
N567 N 0.42148 0.04768 0.66762 0.0
C568 C 0.41778 0.00858 0.65307 0.0
C569 C 0.42023 0.05261 0.70514 0.0
C570 C 0.41103 0.97783 0.71438 0.0
C571 C 0.50531 0.23152 0.55996 0.0
N572 N 0.49554 0.19156 0.54281 0.0
C573 C 0.54875 0.27034 0.55672 0.0
C574 C 0.5823 0.26801 0.53578 0.0
C575 C 0.57218 0.22708 0.51852 0.0
C576 C 0.52835 0.18897 0.52234 0.0
C577 C 0.4384 0.16373 0.4331 0.0
C578 C 0.41462 0.08915 0.47857 0.0
C579 C 0.44184 0.1685 0.47156 0.0
N580 N 0.43022 0.13149 0.49378 0.0
C581 C 0.41076 0.08308 0.44023 0.0
C582 C 0.42279 0.1207 0.4174 0.0
C583 C 0.36069 0.04884 0.57192 0.0
C584 C 0.349 0.14505 0.68479 0.0
C585 C 0.34039 0.0612 0.66796 0.0
C586 C 0.30422 0.06277 0.68546 0.0
C587 C 0.30871 0.10504 0.69404 0.0
N588 N 0.3803 0.10059 0.65959 0.0
C589 C 0.38446 0.14215 0.66731 0.0
Co590 Co 0.85189 0.2929 0.53553 0.0
Co591 Co 0.90485 0.32101 0.62108 0.0
O592 O 0.85192 0.28503 0.58926 0.0
C593 C 0.82094 0.19514 0.54391 0.0
O594 O 0.85458 0.20716 0.56742 0.0
C595 C 0.82046 0.30258 0.66572 0.0
O596 O 0.79453 0.28573 0.63643 0.0
O597 O 0.91442 0.38001 0.59894 0.0
O598 O 0.89206 0.36035 0.54001 0.0
H599 H 0.06626 0.44563 0.64657 0.0
H600 H 0.76079 0.23578 0.57113 0.0
O601 O 0.81366 0.2252 0.52939 0.0
H602 H 0.75771 0.3692 0.51949 0.0
H603 H 0.77733 0.25741 0.4102 0.0
H604 H 0.92116 0.34954 0.47855 0.0
H605 H 0.82588 0.36111 0.51143 0.0
H606 H 0.77965 0.24986 0.47793 0.0
O607 O 0.86413 0.32227 0.66259 0.0
H608 H 0.99893 0.39822 0.60767 0.0
H609 H 0.92397 0.32188 0.70205 0.0
H610 H 0.92044 0.35855 0.41089 0.0
H611 H 0.69155 0.24202 0.5791 0.0
H612 H 0.84805 0.31223 0.37621 0.0
H613 H 0.69003 0.30946 0.55366 0.0
O614 O 0.90801 0.28852 0.52941 0.0
H615 H 0.81614 0.15897 0.66992 0.0
H616 H 0.96923 0.28824 0.63947 0.0
H617 H 0.9619 0.21698 0.66405 0.0
H618 H 0.88494 0.15173 0.67978 0.0
H619 H 0.82483 0.23015 0.64454 0.0
H620 H 0.99037 0.36879 0.74198 0.0
H621 H 0.06224 0.43107 0.71426 0.0
O622 O 0.94658 0.3191 0.58231 0.0
C623 C 0.91392 0.39032 0.5648 0.0
C624 C 0.03516 0.41856 0.65898 0.0
C625 C 0.99253 0.37549 0.71253 0.0
N626 N 0.95751 0.35726 0.6525 0.0
C627 C 0.99692 0.39152 0.63707 0.0
C628 C 0.95495 0.34918 0.68977 0.0
C629 C 0.03286 0.4104 0.69695 0.0
C630 C 0.76016 0.26489 0.55949 0.0
N631 N 0.79752 0.29821 0.54111 0.0
C632 C 0.72091 0.26835 0.56425 0.0
C633 C 0.72006 0.30618 0.54995 0.0
C634 C 0.75811 0.33979 0.5309 0.0
C635 C 0.79673 0.33517 0.52665 0.0
C636 C 0.80907 0.27784 0.42498 0.0
C637 C 0.8896 0.32943 0.4637 0.0
C638 C 0.81062 0.27366 0.46334 0.0
N639 N 0.85053 0.29949 0.48224 0.0
C640 C 0.88936 0.3346 0.42536 0.0
C641 C 0.84875 0.3086 0.40593 0.0
C642 C 0.94363 0.3037 0.54948 0.0
C643 C 0.84993 0.18736 0.66365 0.0
C644 C 0.93557 0.26017 0.6463 0.0
C645 C 0.93166 0.21983 0.66023 0.0
C646 C 0.8885 0.18326 0.66905 0.0
N647 N 0.89766 0.26434 0.64151 0.0
C648 C 0.85517 0.22825 0.64965 0.0
Co649 Co 0.71078 0.57242 0.53917 0.0
Co650 Co 0.68524 0.59024 0.62752 0.0
O651 O 0.71892 0.57301 0.59287 0.0
C652 C 0.81254 0.6259 0.54283 0.0
O653 O 0.81034 0.65516 0.56554 0.0
C654 C 0.70214 0.52149 0.66873 0.0
O655 O 0.72125 0.51491 0.63945 0.0
O656 O 0.62501 0.54345 0.60494 0.0
O657 O 0.64532 0.55383 0.54508 0.0
H658 H 0.56568 0.63125 0.66142 0.0
H659 H 0.75347 0.52096 0.56892 0.0
O660 O 0.7762 0.5912 0.53119 0.0
H661 H 0.61284 0.40545 0.50656 0.0
H662 H 0.73408 0.53974 0.40714 0.0
H663 H 0.6644 0.60552 0.48874 0.0
H664 H 0.63365 0.48666 0.50733 0.0
H665 H 0.74235 0.53948 0.47492 0.0
O666 O 0.68211 0.54503 0.6663 0.0
H667 H 0.61037 0.61128 0.619 0.0
H668 H 0.68647 0.60425 0.70953 0.0
H669 H 0.65501 0.60621 0.42118 0.0
H670 H 0.7343 0.44024 0.56832 0.0
H671 H 0.68998 0.57311 0.37984 0.0
H672 H 0.66355 0.38189 0.53705 0.0
O673 O 0.72625 0.6376 0.54014 0.0
H674 H 0.84889 0.65708 0.67062 0.0
H675 H 0.72171 0.68663 0.65181 0.0
H676 H 0.79452 0.74756 0.67698 0.0
H677 H 0.85876 0.73294 0.68694 0.0
H678 H 0.77615 0.59763 0.64492 0.0
H679 H 0.64217 0.6236 0.75291 0.0
H680 H 0.58142 0.63748 0.72892 0.0
O681 O 0.68851 0.63688 0.59173 0.0
C682 C 0.615 0.54048 0.57042 0.0
C683 C 0.59211 0.62535 0.67221 0.0
C684 C 0.63497 0.62096 0.72356 0.0
N685 N 0.6511 0.60665 0.66168 0.0
C686 C 0.61762 0.61411 0.6483 0.0
C687 C 0.65979 0.60976 0.69884 0.0
C688 C 0.60092 0.62879 0.71008 0.0
C689 C 0.72267 0.4958 0.55514 0.0
N690 N 0.69466 0.50855 0.53834 0.0
C691 C 0.71195 0.45012 0.55496 0.0
C692 C 0.6722 0.41737 0.53743 0.0
C693 C 0.64375 0.43058 0.52035 0.0
C694 C 0.65559 0.4766 0.52106 0.0
C695 C 0.71861 0.55419 0.42486 0.0
C696 C 0.67958 0.59089 0.471 0.0
C697 C 0.72326 0.55422 0.46327 0.0
N698 N 0.70362 0.5722 0.48584 0.0
C699 C 0.67421 0.59145 0.43273 0.0
C700 C 0.69386 0.57291 0.40956 0.0
C701 C 0.70885 0.65524 0.56129 0.0
C702 C 0.82092 0.66366 0.667 0.0
C703 C 0.74917 0.67962 0.65624 0.0
C704 C 0.79049 0.71445 0.67046 0.0
C705 C 0.8265 0.70625 0.67602 0.0
N706 N 0.74338 0.63743 0.6482 0.0
C707 C 0.77909 0.62967 0.65283 0.0
H708 H 0.21064 0.31784 0.06093 0.0
H709 H 0.2502 0.42859 0.98298 0.0
H710 H 0.30315 0.41009 0.9531 0.0
H711 H 0.33935 0.36425 0.9492 0.0
H712 H 0.30558 0.25615 0.02835 0.0
H713 H 0.24876 0.27143 0.05719 0.0
C714 C 0.23093 0.33788 0.03746 0.0
C715 C 0.22635 0.37456 0.02435 0.0
C716 C 0.2621 0.32739 0.02036 0.0
C717 C 0.25301 0.40032 0.99393 0.0
C718 C 0.28329 0.38968 0.97658 0.0
C719 C 0.31942 0.3436 0.97255 0.0
C720 C 0.32667 0.30902 0.98645 0.0
C721 C 0.28812 0.35342 0.98956 0.0
C722 C 0.30058 0.28295 0.01697 0.0
C723 C 0.26825 0.2918 0.03359 0.0
H724 H 0.6962 0.89562 0.05967 0.0
H725 H 0.55328 0.83571 0.03106 0.0
H726 H 0.56821 0.90742 1.0036 0.0
H727 H 0.62195 0.98479 0.98346 0.0
H728 H 0.76449 0.04798 1.01244 0.0
H729 H 0.74976 0.97733 0.04415 0.0
C730 C 0.66832 0.89857 0.0479 0.0
C731 C 0.62389 0.86013 0.04687 0.0
C732 C 0.67714 0.94013 0.03178 0.0
C733 C 0.58797 0.86451 0.03172 0.0
C734 C 0.59639 0.90548 0.01593 0.0
C735 C 0.64982 0.98293 0.99658 0.0
C736 C 0.69435 0.02058 0.99494 0.0
C737 C 0.64092 0.94298 0.01494 0.0
C738 C 0.73003 0.0188 1.01308 0.0
C739 C 0.72156 0.97857 0.03115 0.0
H740 H 0.12144 0.77218 0.06103 0.0
H741 H 0.14023 0.85279 0.963 0.0
H742 H 0.06174 0.80014 0.9443 0.0
H743 H 0.99029 0.72753 0.95264 0.0
H744 H 0.96872 0.64814 0.05153 0.0
H745 H 0.04504 0.7043 0.07355 0.0
C746 C 0.10805 0.77839 0.03584 0.0
C747 C 0.13675 0.81604 1.01326 0.0
C748 C 0.06238 0.74823 0.02541 0.0
C749 C 0.11888 0.82409 0.98092 0.0
C750 C 0.074 0.79392 0.97009 0.0
C751 C 0.00205 0.72291 0.97924 0.0
C752 C 0.97426 0.68336 1.00007 0.0
C753 C 0.04581 0.75539 0.99168 0.0
C754 C 0.98947 0.67818 0.03488 0.0
C755 C 0.03333 0.71017 0.04736 0.0
H756 H 0.72236 0.69184 0.49121 0.0
H757 H 0.6908 0.71064 0.6038 0.0
H758 H 0.67473 0.76939 0.58371 0.0
H759 H 0.66125 0.8093 0.53424 0.0
H760 H 0.68949 0.79108 0.4209 0.0
H761 H 0.71545 0.7384 0.44119 0.0
C762 C 0.71268 0.7093 0.51138 0.0
C763 C 0.70728 0.69622 0.54896 0.0
C764 C 0.70229 0.74274 0.49948 0.0
C765 C 0.69496 0.71953 0.57472 0.0
C766 C 0.68553 0.75314 0.56327 0.0
C767 C 0.67335 0.79404 0.51392 0.0
C768 C 0.67275 0.80328 0.47614 0.0
C769 C 0.68766 0.7639 0.5257 0.0
C770 C 0.6895 0.7842 0.45018 0.0
C771 C 0.70413 0.75401 0.46178 0.0
H772 H 0.22729 0.84133 0.53767 0.0
H773 H 0.21771 0.89616 0.43256 0.0
H774 H 0.26665 0.97434 0.45593 0.0
H775 H 0.3153 0.02638 0.50559 0.0
H776 H 0.32237 0.96896 0.61057 0.0
H777 H 0.27038 0.89242 0.58795 0.0
C778 C 0.236 0.87036 0.51976 0.0
C779 C 0.21973 0.86317 0.48328 0.0
C780 C 0.26334 0.91468 0.53346 0.0
C781 C 0.23024 0.90103 0.46071 0.0
C782 C 0.25811 0.9456 0.47407 0.0
C783 C 0.305 0.9972 0.52368 0.0
C784 C 0.32334 0.0036 0.55961 0.0
C785 C 0.27524 0.95281 0.51035 0.0
C786 C 0.30928 0.96527 0.58271 0.0
C787 C 0.27962 0.92132 0.56978 0.0
H788 H 0.99768 0.27634 0.58162 0.0
H789 H 0.9819 0.33633 0.48173 0.0
H790 H 0.05652 0.35096 0.4594 0.0
H791 H 0.12941 0.35305 0.4713 0.0
H792 H 0.14312 0.28973 0.57036 0.0
H793 H 0.06606 0.26962 0.58987 0.0
C794 C 0.0105 0.29223 0.55486 0.0
C795 C 0.98488 0.30593 0.5336 0.0
C796 C 0.0531 0.30004 0.54213 0.0
C797 C 0.00114 0.32557 0.49858 0.0
C798 C 0.04391 0.33414 0.4859 0.0
C799 C 0.11521 0.33429 0.49687 0.0
C800 C 0.14206 0.32335 0.51952 0.0
C801 C 0.07066 0.3225 0.50787 0.0
C802 C 0.12315 0.29857 0.55239 0.0
C803 C 0.07916 0.28724 0.56371 0.0
H804 H 0.63861 0.62548 0.06447 0.0
H805 H 0.70894 0.76258 0.02041 0.0
H806 H 0.76664 0.74795 0.99167 0.0
H807 H 0.79833 0.69625 0.98178 0.0
H808 H 0.72401 0.55857 0.02571 0.0
H809 H 0.66652 0.57347 0.05173 0.0
C810 C 0.66684 0.6524 0.04892 0.0
C811 C 0.67038 0.69538 0.04531 0.0
C812 C 0.69903 0.64354 0.03237 0.0
C813 C 0.70601 0.72937 0.02386 0.0
C814 C 0.73886 0.72097 1.00749 0.0
C815 C 0.76938 0.66949 0.99681 0.0
C816 C 0.766 0.62659 1.00218 0.0
C817 C 0.73595 0.67821 1.0119 0.0
C818 C 0.72799 0.59212 0.02147 0.0
C819 C 0.69494 0.60052 0.03644 0.0
H820 H 0.40027 0.16395 0.04003 0.0
H821 H 0.32192 0.11654 0.93927 0.0
H822 H 0.28961 0.03707 0.95982 0.0
H823 H 0.28521 0.9816 1.00598 0.0
H824 H 0.36371 0.03065 0.10682 0.0
H825 H 0.39381 0.1093 0.08671 0.0
C826 C 0.37631 0.1363 0.02239 0.0
C827 C 0.36381 0.146 0.98803 0.0
C828 C 0.35758 0.09111 0.03454 0.0
C829 C 0.33216 0.10982 0.96581 0.0
C830 C 0.31365 0.06448 0.97757 0.0
C831 C 0.30853 0.00943 0.02376 0.0
C832 C 0.3223 1.00006 0.05779 0.0
C833 C 0.32619 0.05477 1.0119 0.0
C834 C 0.35257 0.0367 0.08044 0.0
C835 C 0.37001 0.08177 0.06893 0.0
H836 H 0.9788 0.35597 0.05562 0.0
H837 H 0.04631 0.28968 1.00541 0.0
H838 H 0.97385 0.23337 0.97623 0.0
H839 H 0.89029 0.20163 0.96768 0.0
H840 H 0.82592 0.27159 0.01794 0.0
H841 H 0.89852 0.32808 0.04437 0.0
C842 C 0.97763 0.32888 0.03867 0.0
C843 C 0.01731 0.32604 0.03343 0.0
C844 C 0.93652 0.29752 0.02188 0.0
C845 C 0.01583 0.292 1.01015 0.0
C846 C 0.97452 0.25996 0.99352 0.0
C847 C 0.89231 0.22947 0.98413 0.0
C848 C 0.85251 0.23194 0.99114 0.0
C849 C 0.93447 0.26217 0.9995 0.0
C850 C 0.85578 0.26845 1.01234 0.0
C851 C 0.8973 0.30084 0.02757 0.0
H852 H 0.39072 0.22155 0.49615 0.0
H853 H 0.3154 0.19779 0.59844 0.0
H854 H 0.28797 0.24896 0.57771 0.0
H855 H 0.28764 0.30215 0.53086 0.0
H856 H 0.3632 0.32344 0.42865 0.0
H857 H 0.38803 0.27113 0.44917 0.0
C858 C 0.36843 0.22757 0.5141 0.0
C859 C 0.35551 0.20631 0.54896 0.0
C860 C 0.35269 0.25645 0.50195 0.0
C861 C 0.32593 0.21391 0.57151 0.0
C862 C 0.3103 0.24313 0.55966 0.0
C863 C 0.30919 0.29504 0.51294 0.0
C864 C 0.32356 0.317 0.47827 0.0
C865 C 0.32368 0.26479 0.52495 0.0
C866 C 0.35158 0.30732 0.45548 0.0
C867 C 0.36597 0.2774 0.46719 0.0
H868 H 0.77591 0.16511 0.47947 0.0
H869 H 0.80531 0.11794 0.58092 0.0
H870 H 0.7582 0.03834 0.5604 0.0
H871 H 0.70596 0.98254 0.5146 0.0
H872 H 0.67866 0.03165 0.41288 0.0
H873 H 0.7285 0.11024 0.43241 0.0
C874 C 0.77193 0.13742 0.49717 0.0
C875 C 0.79341 0.14717 0.53183 0.0
C876 C 0.74553 0.09217 0.48504 0.0
C877 C 0.78882 0.1111 0.55415 0.0
C878 C 0.76198 0.06569 0.54242 0.0
C879 C 0.71135 0.01038 0.49648 0.0
C880 C 0.68808 0.00099 0.46249 0.0
C881 C 0.73988 0.05583 0.50799 0.0
C882 C 0.69574 0.03765 0.43932 0.0
C883 C 0.72414 0.08274 0.45049 0.0
H884 H 0.97756 0.63408 0.45532 0.0
H885 H 0.05368 0.76005 0.51629 0.0
H886 H 0.98284 0.74679 0.54668 0.0
H887 H 0.89871 0.69883 0.55538 0.0
H888 H 0.82572 0.57114 0.49543 0.0
H889 H 0.8961 0.58565 0.46549 0.0
C890 C 0.97873 0.659 0.47491 0.0
C891 C 0.0206 0.69831 0.48308 0.0
C892 C 0.93843 0.65064 0.49274 0.0
C893 C 0.02166 0.72963 0.50933 0.0
C894 C 0.98124 0.72199 0.52676 0.0
C895 C 0.89833 0.67413 0.53594 0.0
C896 C 0.85678 0.63421 0.5275 0.0
C897 C 0.93934 0.68247 0.51871 0.0
C898 C 0.85697 0.60239 0.50235 0.0
C899 C 0.89726 0.6106 0.48506 0.0
H900 H 0.216 0.47948 0.3419 0.0
H901 H 0.34332 0.49601 0.2999 0.0
H902 H 0.32196 0.50432 0.23705 0.0
H903 H 0.264 0.49945 0.19315 0.0
H904 H 0.13455 0.47767 0.23484 0.0
H905 H 0.16 0.47934 0.29834 0.0
C906 C 0.23954 0.48582 0.31914 0.0
C907 C 0.28136 0.48717 0.32586 0.0
C908 C 0.22642 0.48925 0.28276 0.0
C909 C 0.31097 0.49478 0.29573 0.0
C910 C 0.29869 0.4994 0.25967 0.0
C911 C 0.24164 0.49599 0.21611 0.0
C912 C 0.19733 0.48854 0.209 0.0
C913 C 0.25604 0.49564 0.2527 0.0
C914 C 0.16876 0.48346 0.2393 0.0
C915 C 0.18327 0.48426 0.27572 0.0
H916 H 0.50452 0.66701 0.24795 0.0
H917 H 0.48025 0.75391 0.17568 0.0
H918 H 0.47703 0.79695 0.229 0.0
H919 H 0.48802 0.81433 0.29611 0.0
H920 H 0.50547 0.7232 0.36878 0.0
H921 H 0.50384 0.67733 0.31582 0.0
C922 C 0.49762 0.6948 0.24401 0.0
C923 C 0.49273 0.70723 0.20784 0.0
C924 C 0.49482 0.71891 0.27497 0.0
C925 C 0.48374 0.7433 0.20318 0.0
C926 C 0.48223 0.76821 0.2337 0.0
C927 C 0.49046 0.78386 0.30037 0.0
C928 C 0.4969 0.77235 0.33644 0.0
C929 C 0.48864 0.75695 0.26971 0.0
C930 C 0.50002 0.7327 0.34146 0.0
C931 C 0.49949 0.70659 0.31108 0.0
H932 H 0.32193 0.81314 0.2283 0.0
H933 H 0.20862 0.71937 0.16028 0.0
H934 H 0.16648 0.67677 0.21523 0.0
H935 H 0.1589 0.66974 0.28347 0.0
H936 H 0.27446 0.75953 0.35119 0.0
H937 H 0.3184 0.79945 0.29594 0.0
C938 C 0.28837 0.78288 0.22548 0.0
C939 C 0.26856 0.76969 0.19007 0.0
C940 C 0.26442 0.75783 0.25733 0.0
C941 C 0.22501 0.73025 0.18701 0.0
C942 C 0.20063 0.70596 0.21855 0.0
C943 C 0.19399 0.69751 0.28605 0.0
C944 C 0.2132 0.71159 0.32155 0.0
C945 C 0.21956 0.71993 0.25395 0.0
C946 C 0.25881 0.74763 0.32431 0.0
C947 C 0.28395 0.77077 0.29266 0.0
H948 H 0.73618 0.50679 0.83893 0.0
H949 H 0.86459 0.52777 0.7955 0.0
H950 H 0.83668 0.52266 0.73226 0.0
H951 H 0.77833 0.51884 0.68926 0.0
H952 H 0.65309 0.50551 0.73298 0.0
H953 H 0.67691 0.50057 0.79591 0.0
C954 C 0.7578 0.50937 0.81566 0.0
C955 C 0.8024 0.51725 0.82212 0.0
C956 C 0.74207 0.50803 0.77929 0.0
C957 C 0.83014 0.52148 0.79146 0.0
C958 C 0.81419 0.5187 0.75524 0.0
C959 C 0.75576 0.51382 0.71248 0.0
C960 C 0.71359 0.51193 0.70626 0.0
C961 C 0.77055 0.51283 0.74878 0.0
C962 C 0.68545 0.50668 0.73687 0.0
C963 C 0.6992 0.50407 0.77291 0.0
H964 H 0.5128 0.2406 0.84243 0.0
H965 H 0.50241 0.35263 0.79615 0.0
H966 H 0.50655 0.32694 0.73361 0.0
H967 H 0.50561 0.26852 0.69197 0.0
H968 H 0.51004 0.15328 0.73842 0.0
H969 H 0.51619 0.18452 0.80066 0.0
C970 C 0.51241 0.26003 0.81872 0.0
C971 C 0.50752 0.29879 0.82422 0.0
C972 C 0.51335 0.24416 0.78267 0.0
C973 C 0.50627 0.32286 0.79293 0.0
C974 C 0.50847 0.30803 0.75707 0.0
C975 C 0.50891 0.25066 0.7156 0.0
C976 C 0.50761 0.20857 0.71028 0.0
C977 C 0.51096 0.26814 0.75156 0.0
C978 C 0.51108 0.18569 0.7415 0.0
C979 C 0.51442 0.2035 0.7772 0.0
H980 H 0.76613 0.25844 0.83509 0.0
H981 H 0.6564 0.13495 0.78744 0.0
H982 H 0.6827 0.16613 0.72515 0.0
H983 H 0.73993 0.22627 0.68416 0.0
H984 H 0.85412 0.34615 0.73193 0.0
H985 H 0.82296 0.31886 0.7941 0.0
C986 C 0.74744 0.23861 0.81111 0.0
C987 C 0.70885 0.19451 0.81607 0.0
C988 C 0.76381 0.25612 0.77532 0.0
C989 C 0.68589 0.16899 0.78453 0.0
C990 C 0.70105 0.18681 0.74888 0.0
C991 C 0.7576 0.2469 0.70812 0.0
C992 C 0.79908 0.28868 0.70324 0.0
C993 C 0.74035 0.23007 0.7439 0.0
C994 C 0.82203 0.3142 0.73478 0.0
C995 C 0.80426 0.29847 0.77037 0.0
H996 H 0.07475 0.49639 0.99813 0.0
H997 H 0.02114 0.48516 0.10897 0.0
H998 H 0.9606 0.49739 0.08457 0.0
H999 H 0.92174 0.50813 0.03194 0.0
H1000 H 0.97754 0.52337 0.92149 0.0
H1001 H 0.0374 0.50995 0.94571 0.0
C1002 C 0.05015 0.4969 0.01725 0.0
C1003 C 0.05253 0.48939 0.05555 0.0
C1004 C 0.0152 0.50336 1.00296 0.0
C1005 C 0.02039 0.49078 0.07954 0.0
C1006 C 0.98547 0.49732 0.0655 0.0
C1007 C 0.9469 0.50873 1.01289 0.0
C1008 C 0.9449 0.51704 0.9747 0.0
C1009 C 0.98222 0.50293 0.02722 0.0
C1010 C 0.97775 0.51681 0.9508 0.0
C1011 C 0.01234 0.50967 0.96476 0.0
H1012 H 0.51553 0.58895 1.00406 0.0
H1013 H 0.49916 0.53595 0.11532 0.0
H1014 H 0.48914 0.46399 0.09039 0.0
H1015 H 0.48697 0.41734 0.03744 0.0
H1016 H 0.50433 0.47098 0.9263 0.0
H1017 H 0.5144 0.54287 0.95129 0.0
C1018 C 0.50967 0.56183 0.02314 0.0
C1019 C 0.50824 0.56834 0.0618 0.0
C1020 C 0.50526 0.52114 1.00868 0.0
C1021 C 0.50019 0.53216 0.0856 0.0
C1022 C 0.49493 0.49113 0.07132 0.0
C1023 C 0.49319 0.44467 0.01843 0.0
C1024 C 0.4946 0.43825 0.97974 0.0
C1025 C 0.49796 0.48551 0.03296 0.0
C1026 C 0.50318 0.47465 0.95602 0.0
C1027 C 0.50848 0.51565 0.97033 0.0
H1028 H 0.40425 0.92545 0.9905 0.0
H1029 H 0.45932 0.94141 0.10076 0.0
H1030 H 0.53489 0.99862 0.0775 0.0
H1031 H 0.58375 0.04725 0.02718 0.0
H1032 H 0.53 0.03117 0.91654 0.0
H1033 H 0.45474 0.97142 0.93912 0.0
C1034 C 0.43272 0.94099 1.0096 0.0
C1035 C 0.42548 0.92913 0.04771 0.0
C1036 C 0.47603 0.97455 0.99611 0.0
C1037 C 0.46338 0.94957 0.07151 0.0
C1038 C 0.50664 0.98268 0.05821 0.0
C1039 C 0.5558 0.03107 1.00775 0.0
C1040 C 0.56284 0.04465 0.97006 0.0
C1041 C 0.51305 0.99614 0.02078 0.0
C1042 C 0.52579 0.02219 0.94564 0.0
C1043 C 0.48278 0.98774 0.95856 0.0
H1044 H 0.53088 0.93207 0.53271 0.0
H1045 H 0.49517 0.95473 0.42321 0.0
H1046 H 0.47917 0.01261 0.44838 0.0
H1047 H 0.47846 0.05858 0.5005 0.0
H1048 H 0.5125 0.03524 0.61038 0.0
H1049 H 0.52818 0.97692 0.58537 0.0
C1050 C 0.51932 0.94931 0.51415 0.0
C1051 C 0.51458 0.93889 0.47578 0.0
C1052 C 0.51103 0.98319 0.52873 0.0
C1053 C 0.49907 0.96163 0.45266 0.0
C1054 C 0.49035 0.99512 0.46705 0.0
C1055 C 0.48933 0.04098 0.51929 0.0
C1056 C 0.49427 0.05174 0.55757 0.0
C1057 C 0.49693 0.00664 0.50489 0.0
C1058 C 0.50872 0.02828 0.58093 0.0
C1059 C 0.51724 0.99454 0.56663 0.0
H1060 H 0.92723 0.42111 0.4934 0.0
H1061 H 0.97502 0.46669 0.60463 0.0
H1062 H 0.03615 0.53956 0.57989 0.0
H1063 H 0.07752 0.58883 0.52672 0.0
H1064 H 0.03205 0.54062 0.41549 0.0
H1065 H 0.96988 0.4688 0.44045 0.0
C1066 C 0.95088 0.44668 0.51252 0.0
C1067 C 0.94621 0.43777 0.55109 0.0
C1068 C 0.98716 0.48757 0.49801 0.0
C1069 C 0.97721 0.47226 0.57498 0.0
C1070 C 0.0126 0.51381 0.56077 0.0
C1071 C 0.05434 0.56262 0.5077 0.0
C1072 C 0.05962 0.57073 0.469 0.0
C1073 C 0.01832 0.52149 0.5223 0.0
C1074 C 0.02918 0.53576 0.44521 0.0
C1075 C 0.99325 0.49476 0.45954 0.0
H1076 H 0.40877 0.48352 0.53682 0.0
H1077 H 0.4625 0.51116 0.42504 0.0
H1078 H 0.53817 0.53195 0.44853 0.0
H1079 H 0.58721 0.53731 0.49951 0.0
H1080 H 0.53568 0.51186 0.61187 0.0
H1081 H 0.45988 0.49323 0.58891 0.0
C1082 C 0.437 0.49451 0.51744 0.0
C1083 C 0.42943 0.4952 0.4789 0.0
C1084 C 0.48036 0.50564 0.53112 0.0
C1085 C 0.46691 0.51014 0.45463 0.0
C1086 C 0.51018 0.52164 0.46807 0.0
C1087 C 0.55976 0.52788 0.51936 0.0
C1088 C 0.56754 0.52581 0.55762 0.0
C1089 C 0.51695 0.51851 0.50609 0.0
C1090 C 0.53088 0.51332 0.58238 0.0
C1091 C 0.48763 0.50306 0.56923 0.0
loop_
_geom_bond_atom_site_label_1
_geom_bond_atom_site_label_2
_geom_bond_distance
_geom_bond_site_symmetry_2
_ccdc_geom_bond_type
Co0 O2 2.143 . S
Co0 O8 2.074 . S
Co0 O11 2.093 . S
Co0 O24 2.097 . S
Co0 N41 2.151 . S
Co0 N49 2.214 1_554 S
Co1 O2 2.160 . S
Co1 O7 2.058 . S
Co1 O17 2.057 . S
Co1 O32 2.037 . S
Co1 N36 2.145 . S
Co1 N57 2.257 . S
O2 Co0 2.143 . S
O2 Co1 2.160 . S
C3 O4 1.278 . S
C3 O11 1.224 . S
O4 C3 1.278 . S
C5 O6 1.245 . S
C5 O17 1.232 . S
O6 C5 1.245 . S
O7 Co1 2.058 . S
O7 C33 1.269 . S
O8 Co0 2.074 . S
O8 C33 1.257 . S
H9 C34 0.930 . S
H10 C40 0.930 . S
O11 Co0 2.093 . S
O11 C3 1.224 . S
H12 C44 0.929 . S
H13 C46 0.930 . S
H14 C47 0.930 . S
H15 C45 0.929 . S
H16 C48 0.928 . S
O17 Co1 2.057 . S
O17 C5 1.232 . S
H18 C37 0.929 . S
H19 C38 0.929 . S
H20 C50 0.931 . S
H21 C42 0.929 . S
H22 C51 0.930 . S
H23 C43 0.935 . S
O24 Co0 2.097 . S
O24 C52 1.214 . S
H25 C53 0.929 . S
H26 C54 0.929 . S
H27 C55 0.930 . S
H28 C56 0.929 . S
H29 C58 0.930 . S
H30 C35 0.930 . S
H31 C39 0.930 . S
O32 Co1 2.037 . S
O32 C52 1.234 . S
C33 O7 1.269 . S
C33 O8 1.257 . S
C34 H9 0.930 . S
C34 C37 1.388 . S
C34 C39 1.418 . S
C35 H30 0.930 . S
C35 C38 1.404 1_655 S
C35 C39 1.353 . S
N36 Co1 2.145 . S
N36 C37 1.397 1_455 S
N36 C38 1.334 . S
C37 H18 0.929 . S
C37 C34 1.388 . S
C37 N36 1.397 1_655 S
C38 H19 0.929 . S
C38 C35 1.404 1_455 S
C38 N36 1.334 . S
C39 H31 0.930 . S
C39 C34 1.418 . S
C39 C35 1.353 . S
C40 H10 0.930 . S
C40 N41 1.330 . S
C40 C42 1.446 . S
N41 Co0 2.151 . S
N41 C40 1.330 . S
N41 C45 1.418 1_554 S
C42 H21 0.929 . S
C42 C40 1.446 . S
C42 C43 1.332 . S
C43 H23 0.935 . S
C43 C42 1.332 . S
C43 C44 1.267 1_554 S
C44 H12 0.929 . S
C44 C43 1.267 1_556 S
C44 C45 1.251 . S
C45 H15 0.929 . S
C45 N41 1.418 1_556 S
C45 C44 1.251 . S
C46 H13 0.930 . S
C46 C48 1.406 . S
C46 C51 1.261 . S
C47 H14 0.930 . S
C47 N49 1.325 . S
C47 C50 1.357 . S
C48 H16 0.928 . S
C48 C46 1.406 . S
C48 N49 1.261 . S
N49 Co0 2.214 1_556 S
N49 C47 1.325 . S
N49 C48 1.261 . S
C50 H20 0.931 . S
C50 C47 1.357 . S
C50 C51 1.312 . S
C51 H22 0.930 . S
C51 C46 1.261 . S
C51 C50 1.312 . S
C52 O24 1.214 . S
C52 O32 1.234 . S
C53 H25 0.929 . S
C53 C56 1.391 . S
C53 C58 1.391 . S
C54 H26 0.929 . S
C54 C55 1.390 . S
C54 N57 1.391 . S
C55 H27 0.930 . S
C55 C54 1.390 . S
C55 C56 1.392 . S
C56 H28 0.929 . S
C56 C53 1.391 . S
C56 C55 1.392 . S
N57 Co1 2.257 . S
N57 C54 1.391 . S
N57 C58 1.388 . S
C58 H29 0.930 . S
C58 C53 1.391 . S
C58 N57 1.388 . S
Co59 O61 2.143 . S
Co59 O67 2.074 . S
Co59 O70 2.093 . S
Co59 O83 2.097 . S
Co59 N100 2.151 . S
Co59 N108 2.214 1_554 S
Co60 O61 2.160 . S
Co60 O66 2.058 . S
Co60 O76 2.057 . S
Co60 O91 2.037 . S
Co60 N95 2.145 . S
Co60 N116 2.257 . S
O61 Co59 2.143 . S
O61 Co60 2.160 . S
C62 O63 1.278 . S
C62 O70 1.224 . S
O63 C62 1.278 . S
C64 O65 1.245 . S
C64 O76 1.232 . S
O65 C64 1.245 . S
O66 Co60 2.058 . S
O66 C92 1.269 . S
O67 Co59 2.074 . S
O67 C92 1.257 . S
H68 C93 0.930 . S
H69 C99 0.930 . S
O70 Co59 2.093 . S
O70 C62 1.224 . S
H71 C103 0.929 . S
H72 C105 0.930 . S
H73 C106 0.930 . S
H74 C104 0.929 . S
H75 C107 0.928 . S
O76 Co60 2.057 . S
O76 C64 1.232 . S
H77 C96 0.929 . S
H78 C97 0.929 . S
H79 C109 0.931 . S
H80 C101 0.929 . S
H81 C110 0.930 . S
H82 C102 0.935 . S
O83 Co59 2.097 . S
O83 C111 1.214 . S
H84 C112 0.929 . S
H85 C113 0.929 . S
H86 C114 0.930 . S
H87 C115 0.929 . S
H88 C117 0.930 . S
H89 C94 0.930 . S
H90 C98 0.930 . S
O91 Co60 2.037 . S
O91 C111 1.234 . S
C92 O66 1.269 . S
C92 O67 1.257 . S
C93 H68 0.930 . S
C93 C96 1.388 . S
C93 C98 1.418 . S
C94 H89 0.930 . S
C94 C97 1.404 . S
C94 C98 1.353 . S
N95 Co60 2.145 . S
N95 C96 1.397 . S
N95 C97 1.334 . S
C96 H77 0.929 . S
C96 C93 1.388 . S
C96 N95 1.397 . S
C97 H78 0.929 . S
C97 C94 1.404 . S
C97 N95 1.334 . S
C98 H90 0.930 . S
C98 C93 1.418 . S
C98 C94 1.353 . S
C99 H69 0.930 . S
C99 N100 1.330 . S
C99 C101 1.446 . S
N100 Co59 2.151 . S
N100 C99 1.330 . S
N100 C104 1.418 1_554 S
C101 H80 0.929 . S
C101 C99 1.446 . S
C101 C102 1.332 . S
C102 H82 0.935 . S
C102 C101 1.332 . S
C102 C103 1.267 1_554 S
C103 H71 0.929 . S
C103 C102 1.267 1_556 S
C103 C104 1.251 . S
C104 H74 0.929 . S
C104 N100 1.418 1_556 S
C104 C103 1.251 . S
C105 H72 0.930 . S
C105 C107 1.406 . S
C105 C110 1.261 . S
C106 H73 0.930 . S
C106 N108 1.325 . S
C106 C109 1.357 . S
C107 H75 0.928 . S
C107 C105 1.406 . S
C107 N108 1.261 . S
N108 Co59 2.214 1_556 S
N108 C106 1.325 . S
N108 C107 1.261 . S
C109 H79 0.931 . S
C109 C106 1.357 . S
C109 C110 1.312 . S
C110 H81 0.930 . S
C110 C105 1.261 . S
C110 C109 1.312 . S
C111 O83 1.214 . S
C111 O91 1.234 . S
C112 H84 0.929 . S
C112 C115 1.391 . S
C112 C117 1.391 . S
C113 H85 0.929 . S
C113 C114 1.390 . S
C113 N116 1.391 . S
C114 H86 0.930 . S
C114 C113 1.390 . S
C114 C115 1.392 . S
C115 H87 0.929 . S
C115 C112 1.391 . S
C115 C114 1.392 . S
N116 Co60 2.257 . S
N116 C113 1.391 . S
N116 C117 1.388 . S
C117 H88 0.930 . S
C117 C112 1.391 . S
C117 N116 1.388 . S
Co118 O120 2.143 . S
Co118 O126 2.074 . S
Co118 O129 2.093 . S
Co118 O142 2.097 . S
Co118 N159 2.151 . S
Co118 N167 2.214 1_554 S
Co119 O120 2.160 . S
Co119 O125 2.058 . S
Co119 O135 2.057 . S
Co119 O150 2.037 . S
Co119 N154 2.145 . S
Co119 N175 2.257 . S
O120 Co118 2.143 . S
O120 Co119 2.160 . S
C121 O122 1.278 . S
C121 O129 1.224 . S
O122 C121 1.278 . S
C123 O124 1.245 . S
C123 O135 1.232 . S
O124 C123 1.245 . S
O125 Co119 2.058 . S
O125 C151 1.269 . S
O126 Co118 2.074 . S
O126 C151 1.257 . S
H127 C152 0.930 . S
H128 C158 0.930 . S
O129 Co118 2.093 . S
O129 C121 1.224 . S
H130 C162 0.929 . S
H131 C164 0.930 . S
H132 C165 0.930 . S
H133 C163 0.929 . S
H134 C166 0.928 . S
O135 Co119 2.057 . S
O135 C123 1.232 . S
H136 C155 0.929 . S
H137 C156 0.929 . S
H138 C168 0.931 . S
H139 C160 0.929 . S
H140 C169 0.930 . S
H141 C161 0.935 . S
O142 Co118 2.097 . S
O142 C170 1.214 . S
H143 C171 0.929 . S
H144 C172 0.929 . S
H145 C173 0.930 . S
H146 C174 0.929 . S
H147 C176 0.930 . S
H148 C153 0.930 . S
H149 C157 0.930 . S
O150 Co119 2.037 . S
O150 C170 1.234 . S
C151 O125 1.269 . S
C151 O126 1.257 . S
C152 H127 0.930 . S
C152 C155 1.388 . S
C152 C157 1.418 . S
C153 H148 0.930 . S
C153 C156 1.404 1_545 S
C153 C157 1.353 . S
N154 Co119 2.145 . S
N154 C155 1.397 1_565 S
N154 C156 1.334 . S
C155 H136 0.929 . S
C155 C152 1.388 . S
C155 N154 1.397 1_545 S
C156 H137 0.929 . S
C156 C153 1.404 1_565 S
C156 N154 1.334 . S
C157 H149 0.930 . S
C157 C152 1.418 . S
C157 C153 1.353 . S
C158 H128 0.930 . S
C158 N159 1.330 . S
C158 C160 1.446 . S
N159 Co118 2.151 . S
N159 C158 1.330 . S
N159 C163 1.418 1_554 S
C160 H139 0.929 . S
C160 C158 1.446 . S
C160 C161 1.332 . S
C161 H141 0.935 . S
C161 C160 1.332 . S
C161 C162 1.267 1_554 S
C162 H130 0.929 . S
C162 C161 1.267 1_556 S
C162 C163 1.251 . S
C163 H133 0.929 . S
C163 N159 1.418 1_556 S
C163 C162 1.251 . S
C164 H131 0.930 . S
C164 C166 1.406 . S
C164 C169 1.261 . S
C165 H132 0.930 . S
C165 N167 1.325 . S
C165 C168 1.357 . S
C166 H134 0.928 . S
C166 C164 1.406 . S
C166 N167 1.261 . S
N167 Co118 2.214 1_556 S
N167 C165 1.325 . S
N167 C166 1.261 . S
C168 H138 0.931 . S
C168 C165 1.357 . S
C168 C169 1.312 . S
C169 H140 0.930 . S
C169 C164 1.261 . S
C169 C168 1.312 . S
C170 O142 1.214 . S
C170 O150 1.234 . S
C171 H143 0.929 . S
C171 C174 1.391 . S
C171 C176 1.391 . S
C172 H144 0.929 . S
C172 C173 1.390 . S
C172 N175 1.391 . S
C173 H145 0.930 . S
C173 C172 1.390 . S
C173 C174 1.392 . S
C174 H146 0.929 . S
C174 C171 1.391 . S
C174 C173 1.392 . S
N175 Co119 2.257 . S
N175 C172 1.391 . S
N175 C176 1.388 . S
C176 H147 0.930 . S
C176 C171 1.391 . S
C176 N175 1.388 . S
Co177 O179 2.143 . S
Co177 O185 2.074 . S
Co177 O188 2.093 . S
Co177 O201 2.097 . S
Co177 N218 2.151 . S
Co177 N226 2.214 . S
Co178 O179 2.160 . S
Co178 O184 2.058 . S
Co178 O194 2.057 . S
Co178 O209 2.037 . S
Co178 N213 2.145 . S
Co178 N234 2.257 . S
O179 Co177 2.143 . S
O179 Co178 2.160 . S
C180 O181 1.278 . S
C180 O188 1.224 . S
O181 C180 1.278 . S
C182 O183 1.245 . S
C182 O194 1.232 . S
O183 C182 1.245 . S
O184 Co178 2.058 . S
O184 C210 1.269 . S
O185 Co177 2.074 . S
O185 C210 1.257 . S
H186 C211 0.930 . S
H187 C217 0.930 . S
O188 Co177 2.093 . S
O188 C180 1.224 . S
H189 C221 0.929 . S
H190 C223 0.930 . S
H191 C224 0.930 . S
H192 C222 0.929 . S
H193 C225 0.928 . S
O194 Co178 2.057 . S
O194 C182 1.232 . S
H195 C214 0.929 . S
H196 C215 0.929 . S
H197 C227 0.931 . S
H198 C219 0.929 . S
H199 C228 0.930 . S
H200 C220 0.931 . S
O201 Co177 2.097 . S
O201 C229 1.214 . S
H202 C230 0.929 . S
H203 C231 0.929 . S
H204 C232 0.930 . S
H205 C233 0.929 . S
H206 C235 0.930 . S
H207 C212 0.930 . S
H208 C216 0.930 . S
O209 Co178 2.037 . S
O209 C229 1.234 . S
C210 O184 1.269 . S
C210 O185 1.257 . S
C211 H186 0.930 . S
C211 C214 1.388 . S
C211 C216 1.418 . S
C212 H207 0.930 . S
C212 C215 1.404 1_545 S
C212 C216 1.353 . S
N213 Co178 2.145 . S
N213 C214 1.397 1_565 S
N213 C215 1.334 . S
C214 H195 0.929 . S
C214 C211 1.388 . S
C214 N213 1.397 1_545 S
C215 H196 0.929 . S
C215 C212 1.404 1_565 S
C215 N213 1.334 . S
C216 H208 0.930 . S
C216 C211 1.418 . S
C216 C212 1.353 . S
C217 H187 0.930 . S
C217 N218 1.330 . S
C217 C219 1.446 . S
N218 Co177 2.151 . S
N218 C217 1.330 . S
N218 C222 1.418 . S
C219 H198 0.929 . S
C219 C217 1.446 . S
C219 C220 1.332 . S
C220 H200 0.931 . S
C220 C219 1.332 . S
C220 C221 1.267 . S
C221 H189 0.929 . S
C221 C220 1.267 . S
C221 C222 1.251 . S
C222 H192 0.929 . S
C222 N218 1.418 . S
C222 C221 1.251 . S
C223 H190 0.930 . S
C223 C225 1.406 . S
C223 C228 1.261 . S
C224 H191 0.930 . S
C224 N226 1.325 . S
C224 C227 1.357 . S
C225 H193 0.928 . S
C225 C223 1.406 . S
C225 N226 1.261 . S
N226 Co177 2.214 . S
N226 C224 1.325 . S
N226 C225 1.261 . S
C227 H197 0.931 . S
C227 C224 1.357 . S
C227 C228 1.312 . S
C228 H199 0.930 . S
C228 C223 1.261 . S
C228 C227 1.312 . S
C229 O201 1.214 . S
C229 O209 1.234 . S
C230 H202 0.929 . S
C230 C233 1.391 . S
C230 C235 1.391 . S
C231 H203 0.929 . S
C231 C232 1.390 . S
C231 N234 1.391 . S
C232 H204 0.930 . S
C232 C231 1.390 . S
C232 C233 1.392 . S
C233 H205 0.929 . S
C233 C230 1.391 . S
C233 C232 1.392 . S
N234 Co178 2.257 . S
N234 C231 1.391 . S
N234 C235 1.388 . S
C235 H206 0.930 . S
C235 C230 1.391 . S
C235 N234 1.388 . S
Co236 O238 2.143 . S
Co236 O244 2.074 . S
Co236 O247 2.093 . S
Co236 O260 2.097 . S
Co236 N277 2.151 . S
Co236 N285 2.214 . S
Co237 O238 2.160 . S
Co237 O243 2.058 . S
Co237 O253 2.057 . S
Co237 O268 2.037 . S
Co237 N272 2.145 . S
Co237 N293 2.257 . S
O238 Co236 2.143 . S
O238 Co237 2.160 . S
C239 O240 1.278 . S
C239 O247 1.224 . S
O240 C239 1.278 . S
C241 O242 1.245 . S
C241 O253 1.232 . S
O242 C241 1.245 . S
O243 Co237 2.058 . S
O243 C269 1.269 . S
O244 Co236 2.074 . S
O244 C269 1.257 . S
H245 C270 0.930 . S
H246 C276 0.930 . S
O247 Co236 2.093 . S
O247 C239 1.224 . S
H248 C280 0.929 . S
H249 C282 0.930 . S
H250 C283 0.930 . S
H251 C281 0.929 . S
H252 C284 0.928 . S
O253 Co237 2.057 . S
O253 C241 1.232 . S
H254 C273 0.929 . S
H255 C274 0.929 . S
H256 C286 0.931 . S
H257 C278 0.929 . S
H258 C287 0.930 . S
H259 C279 0.931 . S
O260 Co236 2.097 . S
O260 C288 1.214 . S
H261 C289 0.929 . S
H262 C290 0.929 . S
H263 C291 0.930 . S
H264 C292 0.929 . S
H265 C294 0.930 . S
H266 C271 0.930 . S
H267 C275 0.930 . S
O268 Co237 2.037 . S
O268 C288 1.234 . S
C269 O243 1.269 . S
C269 O244 1.257 . S
C270 H245 0.930 . S
C270 C273 1.388 . S
C270 C275 1.418 . S
C271 H266 0.930 . S
C271 C274 1.404 1_655 S
C271 C275 1.353 . S
N272 Co237 2.145 . S
N272 C273 1.397 1_455 S
N272 C274 1.334 . S
C273 H254 0.929 . S
C273 C270 1.388 . S
C273 N272 1.397 1_655 S
C274 H255 0.929 . S
C274 C271 1.404 1_455 S
C274 N272 1.334 . S
C275 H267 0.930 . S
C275 C270 1.418 . S
C275 C271 1.353 . S
C276 H246 0.930 . S
C276 N277 1.330 . S
C276 C278 1.446 . S
N277 Co236 2.151 . S
N277 C276 1.330 . S
N277 C281 1.418 . S
C278 H257 0.929 . S
C278 C276 1.446 . S
C278 C279 1.332 . S
C279 H259 0.931 . S
C279 C278 1.332 . S
C279 C280 1.267 . S
C280 H248 0.929 . S
C280 C279 1.267 . S
C280 C281 1.251 . S
C281 H251 0.929 . S
C281 N277 1.418 . S
C281 C280 1.251 . S
C282 H249 0.930 . S
C282 C284 1.406 . S
C282 C287 1.261 . S
C283 H250 0.930 . S
C283 N285 1.325 . S
C283 C286 1.357 . S
C284 H252 0.928 . S
C284 C282 1.406 . S
C284 N285 1.261 . S
N285 Co236 2.214 . S
N285 C283 1.325 . S
N285 C284 1.261 . S
C286 H256 0.931 . S
C286 C283 1.357 . S
C286 C287 1.312 . S
C287 H258 0.930 . S
C287 C282 1.261 . S
C287 C286 1.312 . S
C288 O260 1.214 . S
C288 O268 1.234 . S
C289 H261 0.929 . S
C289 C292 1.391 . S
C289 C294 1.391 . S
C290 H262 0.929 . S
C290 C291 1.390 . S
C290 N293 1.391 . S
C291 H263 0.930 . S
C291 C290 1.390 . S
C291 C292 1.392 . S
C292 H264 0.929 . S
C292 C289 1.391 . S
C292 C291 1.392 . S
N293 Co237 2.257 . S
N293 C290 1.391 . S
N293 C294 1.388 . S
C294 H265 0.930 . S
C294 C289 1.391 . S
C294 N293 1.388 . S
Co295 O297 2.143 . S
Co295 O303 2.074 . S
Co295 O306 2.093 . S
Co295 O319 2.097 . S
Co295 N336 2.151 . S
Co295 N344 2.214 . S
Co296 O297 2.160 . S
Co296 O302 2.058 . S
Co296 O312 2.057 . S
Co296 O327 2.037 . S
Co296 N331 2.145 . S
Co296 N352 2.257 . S
O297 Co295 2.143 . S
O297 Co296 2.160 . S
C298 O299 1.278 . S
C298 O306 1.224 . S
O299 C298 1.278 . S
C300 O301 1.245 . S
C300 O312 1.232 . S
O301 C300 1.245 . S
O302 Co296 2.058 . S
O302 C328 1.269 . S
O303 Co295 2.074 . S
O303 C328 1.257 . S
H304 C329 0.930 . S
H305 C335 0.930 . S
O306 Co295 2.093 . S
O306 C298 1.224 . S
H307 C339 0.929 . S
H308 C341 0.930 . S
H309 C342 0.930 . S
H310 C340 0.929 . S
H311 C343 0.928 . S
O312 Co296 2.057 . S
O312 C300 1.232 . S
H313 C332 0.929 . S
H314 C333 0.929 . S
H315 C345 0.931 . S
H316 C337 0.929 . S
H317 C346 0.930 . S
H318 C338 0.931 . S
O319 Co295 2.097 . S
O319 C347 1.214 . S
H320 C348 0.929 . S
H321 C349 0.929 . S
H322 C350 0.930 . S
H323 C351 0.929 . S
H324 C353 0.930 . S
H325 C330 0.930 . S
H326 C334 0.930 . S
O327 Co296 2.037 . S
O327 C347 1.234 . S
C328 O302 1.269 . S
C328 O303 1.257 . S
C329 H304 0.930 . S
C329 C332 1.388 . S
C329 C334 1.418 . S
C330 H325 0.930 . S
C330 C333 1.404 . S
C330 C334 1.353 . S
N331 Co296 2.145 . S
N331 C332 1.397 . S
N331 C333 1.334 . S
C332 H313 0.929 . S
C332 C329 1.388 . S
C332 N331 1.397 . S
C333 H314 0.929 . S
C333 C330 1.404 . S
C333 N331 1.334 . S
C334 H326 0.930 . S
C334 C329 1.418 . S
C334 C330 1.353 . S
C335 H305 0.930 . S
C335 N336 1.330 . S
C335 C337 1.446 . S
N336 Co295 2.151 . S
N336 C335 1.330 . S
N336 C340 1.418 . S
C337 H316 0.929 . S
C337 C335 1.446 . S
C337 C338 1.332 . S
C338 H318 0.931 . S
C338 C337 1.332 . S
C338 C339 1.267 . S
C339 H307 0.929 . S
C339 C338 1.267 . S
C339 C340 1.251 . S
C340 H310 0.929 . S
C340 N336 1.418 . S
C340 C339 1.251 . S
C341 H308 0.930 . S
C341 C343 1.406 . S
C341 C346 1.261 . S
C342 H309 0.930 . S
C342 N344 1.325 . S
C342 C345 1.357 . S
C343 H311 0.928 . S
C343 C341 1.406 . S
C343 N344 1.261 . S
N344 Co295 2.214 . S
N344 C342 1.325 . S
N344 C343 1.261 . S
C345 H315 0.931 . S
C345 C342 1.357 . S
C345 C346 1.312 . S
C346 H317 0.930 . S
C346 C341 1.261 . S
C346 C345 1.312 . S
C347 O319 1.214 . S
C347 O327 1.234 . S
C348 H320 0.929 . S
C348 C351 1.391 . S
C348 C353 1.391 . S
C349 H321 0.929 . S
C349 C350 1.390 . S
C349 N352 1.391 . S
C350 H322 0.930 . S
C350 C349 1.390 . S
C350 C351 1.392 . S
C351 H323 0.929 . S
C351 C348 1.391 . S
C351 C350 1.392 . S
N352 Co296 2.257 . S
N352 C349 1.391 . S
N352 C353 1.388 . S
C353 H324 0.930 . S
C353 C348 1.391 . S
C353 N352 1.388 . S
Co354 O356 2.143 . S
Co354 O362 2.074 . S
Co354 O365 2.093 . S
Co354 O378 2.097 . S
Co354 N395 2.151 . S
Co354 N403 2.214 1_556 S
Co355 O356 2.160 . S
Co355 O361 2.058 . S
Co355 O371 2.057 . S
Co355 O386 2.037 . S
Co355 N390 2.145 . S
Co355 N411 2.257 . S
O356 Co354 2.143 . S
O356 Co355 2.160 . S
C357 O358 1.278 . S
C357 O365 1.224 . S
O358 C357 1.278 . S
C359 O360 1.245 . S
C359 O371 1.232 . S
O360 C359 1.245 . S
O361 Co355 2.058 . S
O361 C387 1.269 . S
O362 Co354 2.074 . S
O362 C387 1.257 . S
H363 C388 0.930 . S
H364 C394 0.930 . S
O365 Co354 2.093 . S
O365 C357 1.224 . S
H366 C398 0.929 . S
H367 C400 0.930 . S
H368 C401 0.930 . S
H369 C399 0.929 . S
H370 C402 0.928 . S
O371 Co355 2.057 . S
O371 C359 1.232 . S
H372 C391 0.929 . S
H373 C392 0.929 . S
H374 C404 0.931 . S
H375 C396 0.929 . S
H376 C405 0.930 . S
H377 C397 0.935 . S
O378 Co354 2.097 . S
O378 C406 1.214 . S
H379 C407 0.929 . S
H380 C408 0.929 . S
H381 C409 0.930 . S
H382 C410 0.929 . S
H383 C412 0.930 . S
H384 C389 0.930 . S
H385 C393 0.930 . S
O386 Co355 2.037 . S
O386 C406 1.234 . S
C387 O361 1.269 . S
C387 O362 1.257 . S
C388 H363 0.930 . S
C388 C391 1.388 . S
C388 C393 1.418 . S
C389 H384 0.930 . S
C389 C392 1.404 1_455 S
C389 C393 1.353 . S
N390 Co355 2.145 . S
N390 C391 1.397 1_655 S
N390 C392 1.334 . S
C391 H372 0.929 . S
C391 C388 1.388 . S
C391 N390 1.397 1_455 S
C392 H373 0.929 . S
C392 C389 1.404 1_655 S
C392 N390 1.334 . S
C393 H385 0.930 . S
C393 C388 1.418 . S
C393 C389 1.353 . S
C394 H364 0.930 . S
C394 N395 1.330 . S
C394 C396 1.446 . S
N395 Co354 2.151 . S
N395 C394 1.330 . S
N395 C399 1.418 1_556 S
C396 H375 0.929 . S
C396 C394 1.446 . S
C396 C397 1.332 . S
C397 H377 0.935 . S
C397 C396 1.332 . S
C397 C398 1.267 1_556 S
C398 H366 0.929 . S
C398 C397 1.267 1_554 S
C398 C399 1.251 . S
C399 H369 0.929 . S
C399 N395 1.418 1_554 S
C399 C398 1.251 . S
C400 H367 0.930 . S
C400 C402 1.406 . S
C400 C405 1.261 . S
C401 H368 0.930 . S
C401 N403 1.325 . S
C401 C404 1.357 . S
C402 H370 0.928 . S
C402 C400 1.406 . S
C402 N403 1.261 . S
N403 Co354 2.214 1_554 S
N403 C401 1.325 . S
N403 C402 1.261 . S
C404 H374 0.931 . S
C404 C401 1.357 . S
C404 C405 1.312 . S
C405 H376 0.930 . S
C405 C400 1.261 . S
C405 C404 1.312 . S
C406 O378 1.214 . S
C406 O386 1.234 . S
C407 H379 0.929 . S
C407 C410 1.391 . S
C407 C412 1.391 . S
C408 H380 0.929 . S
C408 C409 1.390 . S
C408 N411 1.391 . S
C409 H381 0.930 . S
C409 C408 1.390 . S
C409 C410 1.392 . S
C410 H382 0.929 . S
C410 C407 1.391 . S
C410 C409 1.392 . S
N411 Co355 2.257 . S
N411 C408 1.391 . S
N411 C412 1.388 . S
C412 H383 0.930 . S
C412 C407 1.391 . S
C412 N411 1.388 . S
Co413 O415 2.143 . S
Co413 O421 2.074 . S
Co413 O424 2.093 . S
Co413 O437 2.097 . S
Co413 N454 2.151 . S
Co413 N462 2.214 1_556 S
Co414 O415 2.160 . S
Co414 O420 2.058 . S
Co414 O430 2.057 . S
Co414 O445 2.037 . S
Co414 N449 2.145 . S
Co414 N470 2.257 . S
O415 Co413 2.143 . S
O415 Co414 2.160 . S
C416 O417 1.278 . S
C416 O424 1.224 . S
O417 C416 1.278 . S
C418 O419 1.245 . S
C418 O430 1.232 . S
O419 C418 1.245 . S
O420 Co414 2.058 . S
O420 C446 1.269 . S
O421 Co413 2.074 . S
O421 C446 1.257 . S
H422 C447 0.930 . S
H423 C453 0.930 . S
O424 Co413 2.093 . S
O424 C416 1.224 . S
H425 C457 0.929 . S
H426 C459 0.930 . S
H427 C460 0.930 . S
H428 C458 0.929 . S
H429 C461 0.928 . S
O430 Co414 2.057 . S
O430 C418 1.232 . S
H431 C450 0.929 . S
H432 C451 0.929 . S
H433 C463 0.931 . S
H434 C455 0.929 . S
H435 C464 0.930 . S
H436 C456 0.935 . S
O437 Co413 2.097 . S
O437 C465 1.214 . S
H438 C466 0.929 . S
H439 C467 0.929 . S
H440 C468 0.930 . S
H441 C469 0.929 . S
H442 C471 0.930 . S
H443 C448 0.930 . S
H444 C452 0.930 . S
O445 Co414 2.037 . S
O445 C465 1.234 . S
C446 O420 1.269 . S
C446 O421 1.257 . S
C447 H422 0.930 . S
C447 C450 1.388 . S
C447 C452 1.418 . S
C448 H443 0.930 . S
C448 C451 1.404 . S
C448 C452 1.353 . S
N449 Co414 2.145 . S
N449 C450 1.397 . S
N449 C451 1.334 . S
C450 H431 0.929 . S
C450 C447 1.388 . S
C450 N449 1.397 . S
C451 H432 0.929 . S
C451 C448 1.404 . S
C451 N449 1.334 . S
C452 H444 0.930 . S
C452 C447 1.418 . S
C452 C448 1.353 . S
C453 H423 0.930 . S
C453 N454 1.330 . S
C453 C455 1.446 . S
N454 Co413 2.151 . S
N454 C453 1.330 . S
N454 C458 1.418 1_556 S
C455 H434 0.929 . S
C455 C453 1.446 . S
C455 C456 1.332 . S
C456 H436 0.935 . S
C456 C455 1.332 . S
C456 C457 1.267 1_556 S
C457 H425 0.929 . S
C457 C456 1.267 1_554 S
C457 C458 1.251 . S
C458 H428 0.929 . S
C458 N454 1.418 1_554 S
C458 C457 1.251 . S
C459 H426 0.930 . S
C459 C461 1.406 . S
C459 C464 1.261 . S
C460 H427 0.930 . S
C460 N462 1.325 . S
C460 C463 1.357 . S
C461 H429 0.928 . S
C461 C459 1.406 . S
C461 N462 1.261 . S
N462 Co413 2.214 1_554 S
N462 C460 1.325 . S
N462 C461 1.261 . S
C463 H433 0.931 . S
C463 C460 1.357 . S
C463 C464 1.312 . S
C464 H435 0.930 . S
C464 C459 1.261 . S
C464 C463 1.312 . S
C465 O437 1.214 . S
C465 O445 1.234 . S
C466 H438 0.929 . S
C466 C469 1.391 . S
C466 C471 1.391 . S
C467 H439 0.929 . S
C467 C468 1.390 . S
C467 N470 1.391 . S
C468 H440 0.930 . S
C468 C467 1.390 . S
C468 C469 1.392 . S
C469 H441 0.929 . S
C469 C466 1.391 . S
C469 C468 1.392 . S
N470 Co414 2.257 . S
N470 C467 1.391 . S
N470 C471 1.388 . S
C471 H442 0.930 . S
C471 C466 1.391 . S
C471 N470 1.388 . S
Co472 O474 2.143 . S
Co472 O480 2.074 . S
Co472 O483 2.093 . S
Co472 O496 2.097 . S
Co472 N513 2.151 . S
Co472 N521 2.214 1_556 S
Co473 O474 2.160 . S
Co473 O479 2.058 . S
Co473 O489 2.057 . S
Co473 O504 2.037 . S
Co473 N508 2.145 . S
Co473 N529 2.257 . S
O474 Co472 2.143 . S
O474 Co473 2.160 . S
C475 O476 1.278 . S
C475 O483 1.224 . S
O476 C475 1.278 . S
C477 O478 1.245 . S
C477 O489 1.232 . S
O478 C477 1.245 . S
O479 Co473 2.058 . S
O479 C505 1.269 . S
O480 Co472 2.074 . S
O480 C505 1.257 . S
H481 C506 0.930 . S
H482 C512 0.930 . S
O483 Co472 2.093 . S
O483 C475 1.224 . S
H484 C516 0.929 . S
H485 C518 0.930 . S
H486 C519 0.930 . S
H487 C517 0.929 . S
H488 C520 0.928 . S
O489 Co473 2.057 . S
O489 C477 1.232 . S
H490 C509 0.929 . S
H491 C510 0.929 . S
H492 C522 0.931 . S
H493 C514 0.929 . S
H494 C523 0.930 . S
H495 C515 0.935 . S
O496 Co472 2.097 . S
O496 C524 1.214 . S
H497 C525 0.929 . S
H498 C526 0.929 . S
H499 C527 0.930 . S
H500 C528 0.929 . S
H501 C530 0.930 . S
H502 C507 0.930 . S
H503 C511 0.930 . S
O504 Co473 2.037 . S
O504 C524 1.234 . S
C505 O479 1.269 . S
C505 O480 1.257 . S
C506 H481 0.930 . S
C506 C509 1.388 . S
C506 C511 1.418 . S
C507 H502 0.930 . S
C507 C510 1.404 1_565 S
C507 C511 1.353 . S
N508 Co473 2.145 . S
N508 C509 1.397 1_545 S
N508 C510 1.334 . S
C509 H490 0.929 . S
C509 C506 1.388 . S
C509 N508 1.397 1_565 S
C510 H491 0.929 . S
C510 C507 1.404 1_545 S
C510 N508 1.334 . S
C511 H503 0.930 . S
C511 C506 1.418 . S
C511 C507 1.353 . S
C512 H482 0.930 . S
C512 N513 1.330 . S
C512 C514 1.446 . S
N513 Co472 2.151 . S
N513 C512 1.330 . S
N513 C517 1.418 1_556 S
C514 H493 0.929 . S
C514 C512 1.446 . S
C514 C515 1.332 . S
C515 H495 0.935 . S
C515 C514 1.332 . S
C515 C516 1.267 1_556 S
C516 H484 0.929 . S
C516 C515 1.267 1_554 S
C516 C517 1.251 . S
C517 H487 0.929 . S
C517 N513 1.418 1_554 S
C517 C516 1.251 . S
C518 H485 0.930 . S
C518 C520 1.406 . S
C518 C523 1.261 . S
C519 H486 0.930 . S
C519 N521 1.325 . S
C519 C522 1.357 . S
C520 H488 0.928 . S
C520 C518 1.406 . S
C520 N521 1.261 . S
N521 Co472 2.214 1_554 S
N521 C519 1.325 . S
N521 C520 1.261 . S
C522 H492 0.931 . S
C522 C519 1.357 . S
C522 C523 1.312 . S
C523 H494 0.930 . S
C523 C518 1.261 . S
C523 C522 1.312 . S
C524 O496 1.214 . S
C524 O504 1.234 . S
C525 H497 0.929 . S
C525 C528 1.391 . S
C525 C530 1.391 . S
C526 H498 0.929 . S
C526 C527 1.390 . S
C526 N529 1.391 . S
C527 H499 0.930 . S
C527 C526 1.390 . S
C527 C528 1.392 . S
C528 H500 0.929 . S
C528 C525 1.391 . S
C528 C527 1.392 . S
N529 Co473 2.257 . S
N529 C526 1.391 . S
N529 C530 1.388 . S
C530 H501 0.930 . S
C530 C525 1.391 . S
C530 N529 1.388 . S
Co531 O533 2.143 . S
Co531 O539 2.074 . S
Co531 O542 2.093 . S
Co531 O555 2.097 . S
Co531 N572 2.151 . S
Co531 N580 2.214 . S
Co532 O533 2.160 . S
Co532 O538 2.058 . S
Co532 O548 2.057 . S
Co532 O563 2.037 . S
Co532 N567 2.145 . S
Co532 N588 2.257 . S
O533 Co531 2.143 . S
O533 Co532 2.160 . S
C534 O535 1.278 . S
C534 O542 1.224 . S
O535 C534 1.278 . S
C536 O537 1.245 . S
C536 O548 1.232 . S
O537 C536 1.245 . S
O538 Co532 2.058 . S
O538 C564 1.269 . S
O539 Co531 2.074 . S
O539 C564 1.257 . S
H540 C565 0.930 . S
H541 C571 0.930 . S
O542 Co531 2.093 . S
O542 C534 1.224 . S
H543 C575 0.929 . S
H544 C577 0.930 . S
H545 C578 0.930 . S
H546 C576 0.929 . S
H547 C579 0.928 . S
O548 Co532 2.057 . S
O548 C536 1.232 . S
H549 C568 0.929 . S
H550 C569 0.929 . S
H551 C581 0.931 . S
H552 C573 0.929 . S
H553 C582 0.930 . S
H554 C574 0.931 . S
O555 Co531 2.097 . S
O555 C583 1.214 . S
H556 C584 0.929 . S
H557 C585 0.929 . S
H558 C586 0.930 . S
H559 C587 0.929 . S
H560 C589 0.930 . S
H561 C566 0.930 . S
H562 C570 0.930 . S
O563 Co532 2.037 . S
O563 C583 1.234 . S
C564 O538 1.269 . S
C564 O539 1.257 . S
C565 H540 0.930 . S
C565 C568 1.388 . S
C565 C570 1.418 . S
C566 H561 0.930 . S
C566 C569 1.404 1_565 S
C566 C570 1.353 . S
N567 Co532 2.145 . S
N567 C568 1.397 1_545 S
N567 C569 1.334 . S
C568 H549 0.929 . S
C568 C565 1.388 . S
C568 N567 1.397 1_565 S
C569 H550 0.929 . S
C569 C566 1.404 1_545 S
C569 N567 1.334 . S
C570 H562 0.930 . S
C570 C565 1.418 . S
C570 C566 1.353 . S
C571 H541 0.930 . S
C571 N572 1.330 . S
C571 C573 1.446 . S
N572 Co531 2.151 . S
N572 C571 1.330 . S
N572 C576 1.418 . S
C573 H552 0.929 . S
C573 C571 1.446 . S
C573 C574 1.332 . S
C574 H554 0.931 . S
C574 C573 1.332 . S
C574 C575 1.267 . S
C575 H543 0.929 . S
C575 C574 1.267 . S
C575 C576 1.251 . S
C576 H546 0.929 . S
C576 N572 1.418 . S
C576 C575 1.251 . S
C577 H544 0.930 . S
C577 C579 1.406 . S
C577 C582 1.261 . S
C578 H545 0.930 . S
C578 N580 1.325 . S
C578 C581 1.357 . S
C579 H547 0.928 . S
C579 C577 1.406 . S
C579 N580 1.261 . S
N580 Co531 2.214 . S
N580 C578 1.325 . S
N580 C579 1.261 . S
C581 H551 0.931 . S
C581 C578 1.357 . S
C581 C582 1.312 . S
C582 H553 0.930 . S
C582 C577 1.261 . S
C582 C581 1.312 . S
C583 O555 1.214 . S
C583 O563 1.234 . S
C584 H556 0.929 . S
C584 C587 1.391 . S
C584 C589 1.391 . S
C585 H557 0.929 . S
C585 C586 1.390 . S
C585 N588 1.391 . S
C586 H558 0.930 . S
C586 C585 1.390 . S
C586 C587 1.392 . S
C587 H559 0.929 . S
C587 C584 1.391 . S
C587 C586 1.392 . S
N588 Co532 2.257 . S
N588 C585 1.391 . S
N588 C589 1.388 . S
C589 H560 0.930 . S
C589 C584 1.391 . S
C589 N588 1.388 . S
Co590 O592 2.143 . S
Co590 O598 2.074 . S
Co590 O601 2.093 . S
Co590 O614 2.097 . S
Co590 N631 2.151 . S
Co590 N639 2.214 . S
Co591 O592 2.160 . S
Co591 O597 2.058 . S
Co591 O607 2.057 . S
Co591 O622 2.037 . S
Co591 N626 2.145 . S
Co591 N647 2.257 . S
O592 Co590 2.143 . S
O592 Co591 2.160 . S
C593 O594 1.278 . S
C593 O601 1.224 . S
O594 C593 1.278 . S
C595 O596 1.245 . S
C595 O607 1.232 . S
O596 C595 1.245 . S
O597 Co591 2.058 . S
O597 C623 1.269 . S
O598 Co590 2.074 . S
O598 C623 1.257 . S
H599 C624 0.930 . S
H600 C630 0.930 . S
O601 Co590 2.093 . S
O601 C593 1.224 . S
H602 C634 0.929 . S
H603 C636 0.930 . S
H604 C637 0.930 . S
H605 C635 0.929 . S
H606 C638 0.928 . S
O607 Co591 2.057 . S
O607 C595 1.232 . S
H608 C627 0.929 . S
H609 C628 0.929 . S
H610 C640 0.931 . S
H611 C632 0.929 . S
H612 C641 0.930 . S
H613 C633 0.931 . S
O614 Co590 2.097 . S
O614 C642 1.214 . S
H615 C643 0.929 . S
H616 C644 0.929 . S
H617 C645 0.930 . S
H618 C646 0.929 . S
H619 C648 0.930 . S
H620 C625 0.930 . S
H621 C629 0.930 . S
O622 Co591 2.037 . S
O622 C642 1.234 . S
C623 O597 1.269 . S
C623 O598 1.257 . S
C624 H599 0.930 . S
C624 C627 1.388 . S
C624 C629 1.418 . S
C625 H620 0.930 . S
C625 C628 1.404 1_455 S
C625 C629 1.353 . S
N626 Co591 2.145 . S
N626 C627 1.397 1_655 S
N626 C628 1.334 . S
C627 H608 0.929 . S
C627 C624 1.388 . S
C627 N626 1.397 1_455 S
C628 H609 0.929 . S
C628 C625 1.404 1_655 S
C628 N626 1.334 . S
C629 H621 0.930 . S
C629 C624 1.418 . S
C629 C625 1.353 . S
C630 H600 0.930 . S
C630 N631 1.330 . S
C630 C632 1.446 . S
N631 Co590 2.151 . S
N631 C630 1.330 . S
N631 C635 1.418 . S
C632 H611 0.929 . S
C632 C630 1.446 . S
C632 C633 1.332 . S
C633 H613 0.931 . S
C633 C632 1.332 . S
C633 C634 1.267 . S
C634 H602 0.929 . S
C634 C633 1.267 . S
C634 C635 1.251 . S
C635 H605 0.929 . S
C635 N631 1.418 . S
C635 C634 1.251 . S
C636 H603 0.930 . S
C636 C638 1.406 . S
C636 C641 1.261 . S
C637 H604 0.930 . S
C637 N639 1.325 . S
C637 C640 1.357 . S
C638 H606 0.928 . S
C638 C636 1.406 . S
C638 N639 1.261 . S
N639 Co590 2.214 . S
N639 C637 1.325 . S
N639 C638 1.261 . S
C640 H610 0.931 . S
C640 C637 1.357 . S
C640 C641 1.312 . S
C641 H612 0.930 . S
C641 C636 1.261 . S
C641 C640 1.312 . S
C642 O614 1.214 . S
C642 O622 1.234 . S
C643 H615 0.929 . S
C643 C646 1.391 . S
C643 C648 1.391 . S
C644 H616 0.929 . S
C644 C645 1.390 . S
C644 N647 1.391 . S
C645 H617 0.930 . S
C645 C644 1.390 . S
C645 C646 1.392 . S
C646 H618 0.929 . S
C646 C643 1.391 . S
C646 C645 1.392 . S
N647 Co591 2.257 . S
N647 C644 1.391 . S
N647 C648 1.388 . S
C648 H619 0.930 . S
C648 C643 1.391 . S
C648 N647 1.388 . S
Co649 O651 2.143 . S
Co649 O657 2.074 . S
Co649 O660 2.093 . S
Co649 O673 2.097 . S
Co649 N690 2.151 . S
Co649 N698 2.214 . S
Co650 O651 2.160 . S
Co650 O656 2.058 . S
Co650 O666 2.057 . S
Co650 O681 2.037 . S
Co650 N685 2.145 . S
Co650 N706 2.257 . S
O651 Co649 2.143 . S
O651 Co650 2.160 . S
C652 O653 1.278 . S
C652 O660 1.224 . S
O653 C652 1.278 . S
C654 O655 1.245 . S
C654 O666 1.232 . S
O655 C654 1.245 . S
O656 Co650 2.058 . S
O656 C682 1.269 . S
O657 Co649 2.074 . S
O657 C682 1.257 . S
H658 C683 0.930 . S
H659 C689 0.930 . S
O660 Co649 2.093 . S
O660 C652 1.224 . S
H661 C693 0.929 . S
H662 C695 0.930 . S
H663 C696 0.930 . S
H664 C694 0.929 . S
H665 C697 0.928 . S
O666 Co650 2.057 . S
O666 C654 1.232 . S
H667 C686 0.929 . S
H668 C687 0.929 . S
H669 C699 0.931 . S
H670 C691 0.929 . S
H671 C700 0.930 . S
H672 C692 0.931 . S
O673 Co649 2.097 . S
O673 C701 1.214 . S
H674 C702 0.929 . S
H675 C703 0.929 . S
H676 C704 0.930 . S
H677 C705 0.929 . S
H678 C707 0.930 . S
H679 C684 0.930 . S
H680 C688 0.930 . S
O681 Co650 2.037 . S
O681 C701 1.234 . S
C682 O656 1.269 . S
C682 O657 1.257 . S
C683 H658 0.930 . S
C683 C686 1.388 . S
C683 C688 1.418 . S
C684 H679 0.930 . S
C684 C687 1.404 . S
C684 C688 1.353 . S
N685 Co650 2.145 . S
N685 C686 1.397 . S
N685 C687 1.334 . S
C686 H667 0.929 . S
C686 C683 1.388 . S
C686 N685 1.397 . S
C687 H668 0.929 . S
C687 C684 1.404 . S
C687 N685 1.334 . S
C688 H680 0.930 . S
C688 C683 1.418 . S
C688 C684 1.353 . S
C689 H659 0.930 . S
C689 N690 1.330 . S
C689 C691 1.446 . S
N690 Co649 2.151 . S
N690 C689 1.330 . S
N690 C694 1.418 . S
C691 H670 0.929 . S
C691 C689 1.446 . S
C691 C692 1.332 . S
C692 H672 0.931 . S
C692 C691 1.332 . S
C692 C693 1.267 . S
C693 H661 0.929 . S
C693 C692 1.267 . S
C693 C694 1.251 . S
C694 H664 0.929 . S
C694 N690 1.418 . S
C694 C693 1.251 . S
C695 H662 0.930 . S
C695 C697 1.406 . S
C695 C700 1.261 . S
C696 H663 0.930 . S
C696 N698 1.325 . S
C696 C699 1.357 . S
C697 H665 0.928 . S
C697 C695 1.406 . S
C697 N698 1.261 . S
N698 Co649 2.214 . S
N698 C696 1.325 . S
N698 C697 1.261 . S
C699 H669 0.931 . S
C699 C696 1.357 . S
C699 C700 1.312 . S
C700 H671 0.930 . S
C700 C695 1.261 . S
C700 C699 1.312 . S
C701 O673 1.214 . S
C701 O681 1.234 . S
C702 H674 0.929 . S
C702 C705 1.391 . S
C702 C707 1.391 . S
C703 H675 0.929 . S
C703 C704 1.390 . S
C703 N706 1.391 . S
C704 H676 0.930 . S
C704 C703 1.390 . S
C704 C705 1.392 . S
C705 H677 0.929 . S
C705 C702 1.391 . S
C705 C704 1.392 . S
N706 Co650 2.257 . S
N706 C703 1.391 . S
N706 C707 1.388 . S
C707 H678 0.930 . S
C707 C702 1.391 . S
C707 N706 1.388 . S
H708 C714 0.930 . S
H709 C717 0.930 . S
H710 C718 0.930 . S
H711 C719 0.930 . S
H712 C722 0.930 . S
H713 C723 0.930 . S
C714 H708 0.930 . S
C714 C715 1.355 . S
C714 C716 1.415 . S
C715 C714 1.355 . S
C715 C717 1.419 1_554 S
C716 C714 1.415 . S
C716 C721 1.425 1_554 S
C716 C723 1.409 . S
C717 H709 0.930 . S
C717 C715 1.419 1_556 S
C717 C718 1.362 . S
C718 H710 0.930 . S
C718 C717 1.362 . S
C718 C721 1.409 . S
C719 H711 0.930 . S
C719 C720 1.355 . S
C719 C721 1.415 . S
C720 C719 1.355 . S
C720 C722 1.419 1_556 S
C721 C716 1.425 1_556 S
C721 C718 1.409 . S
C721 C719 1.415 . S
C722 H712 0.930 . S
C722 C720 1.419 1_554 S
C722 C723 1.362 . S
C723 H713 0.930 . S
C723 C716 1.409 . S
C723 C722 1.362 . S
H724 C730 0.930 . S
H725 C733 0.930 . S
H726 C734 0.930 . S
H727 C735 0.930 . S
H728 C738 0.930 1_545 S
H729 C739 0.930 . S
C730 H724 0.930 . S
C730 C731 1.355 1_556 S
C730 C732 1.415 . S
C731 C730 1.355 1_554 S
C731 C733 1.419 . S
C732 C730 1.415 . S
C732 C737 1.425 1_556 S
C732 C739 1.409 . S
C733 H725 0.930 . S
C733 C731 1.419 . S
C733 C734 1.362 . S
C734 H726 0.930 . S
C734 C733 1.362 . S
C734 C737 1.409 . S
C735 H727 0.930 . S
C735 C736 1.355 1_564 S
C735 C737 1.415 . S
C736 C735 1.355 1_546 S
C736 C738 1.419 1_545 S
C737 C732 1.425 1_554 S
C737 C734 1.409 . S
C737 C735 1.415 . S
C738 H728 0.930 1_565 S
C738 C736 1.419 1_565 S
C738 C739 1.362 . S
C739 H729 0.930 . S
C739 C732 1.409 . S
C739 C738 1.362 . S
H740 C746 0.930 . S
H741 C749 0.930 . S
H742 C750 0.930 . S
H743 C751 0.930 . S
H744 C754 0.930 1_655 S
H745 C755 0.930 . S
C746 H740 0.930 . S
C746 C747 1.355 . S
C746 C748 1.415 . S
C747 C746 1.355 . S
C747 C749 1.419 1_554 S
C748 C746 1.415 . S
C748 C753 1.425 1_554 S
C748 C755 1.409 . S
C749 H741 0.930 . S
C749 C747 1.419 1_556 S
C749 C750 1.362 . S
C750 H742 0.930 . S
C750 C749 1.362 . S
C750 C753 1.409 . S
C751 H743 0.930 . S
C751 C752 1.355 1_455 S
C751 C753 1.415 . S
C752 C751 1.355 1_655 S
C752 C754 1.419 1_656 S
C753 C748 1.425 1_556 S
C753 C750 1.409 . S
C753 C751 1.415 . S
C754 H744 0.930 1_455 S
C754 C752 1.419 1_454 S
C754 C755 1.362 . S
C755 H745 0.930 . S
C755 C748 1.409 . S
C755 C754 1.362 . S
H756 C762 0.930 . S
H757 C765 0.930 . S
H758 C766 0.930 . S
H759 C767 0.930 . S
H760 C770 0.930 . S
H761 C771 0.930 . S
C762 H756 0.930 . S
C762 C763 1.355 . S
C762 C764 1.415 . S
C763 C762 1.355 . S
C763 C765 1.419 . S
C764 C762 1.415 . S
C764 C769 1.425 . S
C764 C771 1.409 . S
C765 H757 0.930 . S
C765 C763 1.419 . S
C765 C766 1.362 . S
C766 H758 0.930 . S
C766 C765 1.362 . S
C766 C769 1.409 . S
C767 H759 0.930 . S
C767 C768 1.355 . S
C767 C769 1.415 . S
C768 C767 1.355 . S
C768 C770 1.419 . S
C769 C764 1.425 . S
C769 C766 1.409 . S
C769 C767 1.415 . S
C770 H760 0.930 . S
C770 C768 1.419 . S
C770 C771 1.362 . S
C771 H761 0.930 . S
C771 C764 1.409 . S
C771 C770 1.362 . S
H772 C778 0.930 . S
H773 C781 0.930 . S
H774 C782 0.930 . S
H775 C783 0.930 1_545 S
H776 C786 0.930 1_545 S
H777 C787 0.930 . S
C778 H772 0.930 . S
C778 C779 1.355 . S
C778 C780 1.415 . S
C779 C778 1.355 . S
C779 C781 1.419 . S
C780 C778 1.415 . S
C780 C785 1.425 . S
C780 C787 1.409 . S
C781 H773 0.930 . S
C781 C779 1.419 . S
C781 C782 1.362 . S
C782 H774 0.930 . S
C782 C781 1.362 . S
C782 C785 1.409 . S
C783 H775 0.930 1_565 S
C783 C784 1.355 1_565 S
C783 C785 1.415 . S
C784 C783 1.355 1_545 S
C784 C786 1.419 1_545 S
C785 C780 1.425 . S
C785 C782 1.409 . S
C785 C783 1.415 . S
C786 H776 0.930 1_565 S
C786 C784 1.419 1_565 S
C786 C787 1.362 . S
C787 H777 0.930 . S
C787 C780 1.409 . S
C787 C786 1.362 . S
H788 C794 0.930 1_655 S
H789 C797 0.930 1_655 S
H790 C798 0.930 . S
H791 C799 0.930 . S
H792 C802 0.930 . S
H793 C803 0.930 . S
C794 H788 0.930 1_455 S
C794 C795 1.355 1_455 S
C794 C796 1.415 . S
C795 C794 1.355 1_655 S
C795 C797 1.419 1_655 S
C796 C794 1.415 . S
C796 C801 1.425 . S
C796 C803 1.409 . S
C797 H789 0.930 1_455 S
C797 C795 1.419 1_455 S
C797 C798 1.362 . S
C798 H790 0.930 . S
C798 C797 1.362 . S
C798 C801 1.409 . S
C799 H791 0.930 . S
C799 C800 1.355 . S
C799 C801 1.415 . S
C800 C799 1.355 . S
C800 C802 1.419 . S
C801 C796 1.425 . S
C801 C798 1.409 . S
C801 C799 1.415 . S
C802 H792 0.930 . S
C802 C800 1.419 . S
C802 C803 1.362 . S
C803 H793 0.930 . S
C803 C796 1.409 . S
C803 C802 1.362 . S
H804 C810 0.930 . S
H805 C813 0.930 . S
H806 C814 0.930 . S
H807 C815 0.930 . S
H808 C818 0.930 . S
H809 C819 0.930 . S
C810 H804 0.930 . S
C810 C811 1.355 1_556 S
C810 C812 1.415 . S
C811 C810 1.355 1_554 S
C811 C813 1.419 . S
C812 C810 1.415 . S
C812 C817 1.425 1_556 S
C812 C819 1.409 . S
C813 H805 0.930 . S
C813 C811 1.419 . S
C813 C814 1.362 . S
C814 H806 0.930 . S
C814 C813 1.362 . S
C814 C817 1.409 . S
C815 H807 0.930 . S
C815 C816 1.355 1_554 S
C815 C817 1.415 . S
C816 C815 1.355 1_556 S
C816 C818 1.419 . S
C817 C812 1.425 1_554 S
C817 C814 1.409 . S
C817 C815 1.415 . S
C818 H808 0.930 . S
C818 C816 1.419 . S
C818 C819 1.362 . S
C819 H809 0.930 . S
C819 C812 1.409 . S
C819 C818 1.362 . S
H820 C826 0.929 . S
H821 C829 0.930 . S
H822 C830 0.930 . S
H823 C831 0.930 1_566 S
H824 C834 0.930 . S
H825 C835 0.930 . S
C826 H820 0.929 . S
C826 C827 1.356 1_554 S
C826 C828 1.414 . S
C827 C826 1.356 1_556 S
C827 C829 1.419 . S
C828 C826 1.414 . S
C828 C833 1.425 1_554 S
C828 C835 1.409 . S
C829 H821 0.930 . S
C829 C827 1.419 . S
C829 C830 1.362 . S
C830 H822 0.930 . S
C830 C829 1.362 . S
C830 C833 1.409 . S
C831 H823 0.930 1_544 S
C831 C832 1.355 1_545 S
C831 C833 1.415 1_554 S
C832 C831 1.355 1_565 S
C832 C834 1.419 1_565 S
C833 C828 1.425 1_556 S
C833 C830 1.409 . S
C833 C831 1.415 1_556 S
C834 H824 0.930 . S
C834 C832 1.419 1_545 S
C834 C835 1.362 . S
C835 H825 0.930 . S
C835 C828 1.409 . S
C835 C834 1.362 . S
H836 C842 0.930 . S
H837 C845 0.928 1_556 S
H838 C846 0.930 . S
H839 C847 0.930 . S
H840 C850 0.930 . S
H841 C851 0.930 . S
C842 H836 0.930 . S
C842 C843 1.355 1_655 S
C842 C844 1.415 . S
C843 C842 1.355 1_455 S
C843 C845 1.419 . S
C844 C842 1.415 . S
C844 C849 1.425 1_554 S
C844 C851 1.409 . S
C845 H837 0.928 1_554 S
C845 C843 1.419 . S
C845 C846 1.362 1_454 S
C846 H838 0.930 . S
C846 C845 1.362 1_656 S
C846 C849 1.409 . S
C847 H839 0.930 . S
C847 C848 1.355 . S
C847 C849 1.415 . S
C848 C847 1.355 . S
C848 C850 1.418 1_556 S
C849 C844 1.425 1_556 S
C849 C846 1.409 . S
C849 C847 1.415 . S
C850 H840 0.930 . S
C850 C848 1.418 1_554 S
C850 C851 1.363 . S
C851 H841 0.930 . S
C851 C844 1.409 . S
C851 C850 1.363 . S
H852 C858 0.930 . S
H853 C861 0.930 . S
H854 C862 0.930 . S
H855 C863 0.930 . S
H856 C866 0.930 . S
H857 C867 0.930 . S
C858 H852 0.930 . S
C858 C859 1.355 . S
C858 C860 1.415 . S
C859 C858 1.355 . S
C859 C861 1.419 . S
C860 C858 1.415 . S
C860 C865 1.425 . S
C860 C867 1.409 . S
C861 H853 0.930 . S
C861 C859 1.419 . S
C861 C862 1.362 . S
C862 H854 0.930 . S
C862 C861 1.362 . S
C862 C865 1.409 . S
C863 H855 0.930 . S
C863 C864 1.355 . S
C863 C865 1.415 . S
C864 C863 1.355 . S
C864 C866 1.419 . S
C865 C860 1.425 . S
C865 C862 1.409 . S
C865 C863 1.415 . S
C866 H856 0.930 . S
C866 C864 1.419 . S
C866 C867 1.362 . S
C867 H857 0.930 . S
C867 C860 1.409 . S
C867 C866 1.362 . S
H868 C874 0.930 . S
H869 C877 0.930 . S
H870 C878 0.930 . S
H871 C879 0.930 . S
H872 C882 0.926 1_565 S
H873 C883 0.930 . S
C874 H868 0.930 . S
C874 C875 1.355 . S
C874 C876 1.415 . S
C875 C874 1.355 . S
C875 C877 1.419 . S
C876 C874 1.415 . S
C876 C881 1.425 . S
C876 C883 1.409 . S
C877 H869 0.930 . S
C877 C875 1.419 . S
C877 C878 1.362 . S
C878 H870 0.930 . S
C878 C877 1.362 . S
C878 C881 1.409 . S
C879 H871 0.930 . S
C879 C880 1.355 1_545 S
C879 C881 1.415 . S
C880 C879 1.355 1_565 S
C880 C882 1.409 1_565 S
C881 C876 1.425 . S
C881 C878 1.409 . S
C881 C879 1.415 . S
C882 H872 0.926 1_545 S
C882 C880 1.409 1_545 S
C882 C883 1.377 . S
C883 H873 0.930 . S
C883 C876 1.409 . S
C883 C882 1.377 . S
H884 C890 0.930 . S
H885 C893 0.930 . S
H886 C894 0.930 . S
H887 C895 0.930 . S
H888 C898 0.930 . S
H889 C899 0.930 . S
C890 H884 0.930 . S
C890 C891 1.355 1_655 S
C890 C892 1.415 . S
C891 C890 1.355 1_455 S
C891 C893 1.419 . S
C892 C890 1.415 . S
C892 C897 1.425 . S
C892 C899 1.409 . S
C893 H885 0.930 . S
C893 C891 1.419 . S
C893 C894 1.362 1_455 S
C894 H886 0.930 . S
C894 C893 1.362 1_655 S
C894 C897 1.409 . S
C895 H887 0.930 . S
C895 C896 1.355 . S
C895 C897 1.415 . S
C896 C895 1.355 . S
C896 C898 1.419 . S
C897 C892 1.425 . S
C897 C894 1.409 . S
C897 C895 1.415 . S
C898 H888 0.930 . S
C898 C896 1.419 . S
C898 C899 1.362 . S
C899 H889 0.930 . S
C899 C892 1.409 . S
C899 C898 1.362 . S
H900 C906 0.930 . S
H901 C909 0.930 . S
H902 C910 0.930 . S
H903 C911 0.930 . S
H904 C914 0.930 . S
H905 C915 0.930 . S
C906 H900 0.930 . S
C906 C907 1.355 . S
C906 C908 1.415 . S
C907 C906 1.355 . S
C907 C909 1.419 . S
C908 C906 1.415 . S
C908 C913 1.425 . S
C908 C915 1.409 . S
C909 H901 0.930 . S
C909 C907 1.419 . S
C909 C910 1.362 . S
C910 H902 0.930 . S
C910 C909 1.362 . S
C910 C913 1.409 . S
C911 H903 0.930 . S
C911 C912 1.355 . S
C911 C913 1.415 . S
C912 C911 1.355 . S
C912 C914 1.419 . S
C913 C908 1.425 . S
C913 C910 1.409 . S
C913 C911 1.415 . S
C914 H904 0.930 . S
C914 C912 1.419 . S
C914 C915 1.362 . S
C915 H905 0.930 . S
C915 C908 1.409 . S
C915 C914 1.362 . S
H916 C922 0.930 . S
H917 C925 0.930 . S
H918 C926 0.930 . S
H919 C927 0.930 . S
H920 C930 0.930 . S
H921 C931 0.930 . S
C922 H916 0.930 . S
C922 C923 1.355 . S
C922 C924 1.415 . S
C923 C922 1.355 . S
C923 C925 1.419 . S
C924 C922 1.415 . S
C924 C929 1.425 . S
C924 C931 1.409 . S
C925 H917 0.930 . S
C925 C923 1.419 . S
C925 C926 1.362 . S
C926 H918 0.930 . S
C926 C925 1.362 . S
C926 C929 1.409 . S
C927 H919 0.930 . S
C927 C928 1.355 . S
C927 C929 1.415 . S
C928 C927 1.355 . S
C928 C930 1.419 . S
C929 C924 1.425 . S
C929 C926 1.409 . S
C929 C927 1.415 . S
C930 H920 0.930 . S
C930 C928 1.419 . S
C930 C931 1.362 . S
C931 H921 0.930 . S
C931 C924 1.409 . S
C931 C930 1.362 . S
H932 C938 0.930 . S
H933 C941 0.930 . S
H934 C942 0.930 . S
H935 C943 0.930 . S
H936 C946 0.930 . S
H937 C947 0.930 . S
C938 H932 0.930 . S
C938 C939 1.355 . S
C938 C940 1.415 . S
C939 C938 1.355 . S
C939 C941 1.419 . S
C940 C938 1.415 . S
C940 C945 1.425 . S
C940 C947 1.409 . S
C941 H933 0.930 . S
C941 C939 1.419 . S
C941 C942 1.362 . S
C942 H934 0.930 . S
C942 C941 1.362 . S
C942 C945 1.409 . S
C943 H935 0.930 . S
C943 C944 1.355 . S
C943 C945 1.415 . S
C944 C943 1.355 . S
C944 C946 1.419 . S
C945 C940 1.425 . S
C945 C942 1.409 . S
C945 C943 1.415 . S
C946 H936 0.930 . S
C946 C944 1.419 . S
C946 C947 1.362 . S
C947 H937 0.930 . S
C947 C940 1.409 . S
C947 C946 1.362 . S
H948 C954 0.930 . S
H949 C957 0.930 . S
H950 C958 0.930 . S
H951 C959 0.930 . S
H952 C962 0.930 . S
H953 C963 0.930 . S
C954 H948 0.930 . S
C954 C955 1.355 . S
C954 C956 1.415 . S
C955 C954 1.355 . S
C955 C957 1.419 . S
C956 C954 1.415 . S
C956 C961 1.425 . S
C956 C963 1.409 . S
C957 H949 0.930 . S
C957 C955 1.419 . S
C957 C958 1.362 . S
C958 H950 0.930 . S
C958 C957 1.362 . S
C958 C961 1.409 . S
C959 H951 0.930 . S
C959 C960 1.355 . S
C959 C961 1.415 . S
C960 C959 1.355 . S
C960 C962 1.419 . S
C961 C956 1.425 . S
C961 C958 1.409 . S
C961 C959 1.415 . S
C962 H952 0.930 . S
C962 C960 1.419 . S
C962 C963 1.362 . S
C963 H953 0.930 . S
C963 C956 1.409 . S
C963 C962 1.362 . S
H964 C970 0.930 . S
H965 C973 0.930 . S
H966 C974 0.930 . S
H967 C975 0.930 . S
H968 C978 0.930 . S
H969 C979 0.930 . S
C970 H964 0.930 . S
C970 C971 1.355 . S
C970 C972 1.415 . S
C971 C970 1.355 . S
C971 C973 1.419 . S
C972 C970 1.415 . S
C972 C977 1.425 . S
C972 C979 1.409 . S
C973 H965 0.930 . S
C973 C971 1.419 . S
C973 C974 1.362 . S
C974 H966 0.930 . S
C974 C973 1.362 . S
C974 C977 1.409 . S
C975 H967 0.930 . S
C975 C976 1.355 . S
C975 C977 1.415 . S
C976 C975 1.355 . S
C976 C978 1.419 . S
C977 C972 1.425 . S
C977 C974 1.409 . S
C977 C975 1.415 . S
C978 H968 0.930 . S
C978 C976 1.419 . S
C978 C979 1.362 . S
C979 H969 0.930 . S
C979 C972 1.409 . S
C979 C978 1.362 . S
H980 C986 0.930 . S
H981 C989 0.930 . S
H982 C990 0.930 . S
H983 C991 0.930 . S
H984 C994 0.930 . S
H985 C995 0.930 . S
C986 H980 0.930 . S
C986 C987 1.355 . S
C986 C988 1.415 . S
C987 C986 1.355 . S
C987 C989 1.419 . S
C988 C986 1.415 . S
C988 C993 1.425 . S
C988 C995 1.409 . S
C989 H981 0.930 . S
C989 C987 1.419 . S
C989 C990 1.362 . S
C990 H982 0.930 . S
C990 C989 1.362 . S
C990 C993 1.409 . S
C991 H983 0.930 . S
C991 C992 1.355 . S
C991 C993 1.415 . S
C992 C991 1.355 . S
C992 C994 1.419 . S
C993 C988 1.425 . S
C993 C990 1.409 . S
C993 C991 1.415 . S
C994 H984 0.930 . S
C994 C992 1.419 . S
C994 C995 1.362 . S
C995 H985 0.930 . S
C995 C988 1.409 . S
C995 C994 1.362 . S
H996 C1002 0.930 . S
H997 C1005 0.930 . S
H998 C1006 0.930 . S
H999 C1007 0.930 . S
H1000 C1010 0.930 . S
H1001 C1011 0.930 . S
C1002 H996 0.930 . S
C1002 C1003 1.355 . S
C1002 C1004 1.415 1_455 S
C1003 C1002 1.355 . S
C1003 C1005 1.419 1_554 S
C1004 C1002 1.415 1_655 S
C1004 C1009 1.425 1_654 S
C1004 C1011 1.409 . S
C1005 H997 0.930 . S
C1005 C1003 1.419 1_556 S
C1005 C1006 1.362 . S
C1006 H998 0.930 . S
C1006 C1005 1.362 . S
C1006 C1009 1.409 . S
C1007 H999 0.930 . S
C1007 C1008 1.355 . S
C1007 C1009 1.415 1_655 S
C1008 C1007 1.355 . S
C1008 C1010 1.419 1_556 S
C1009 C1004 1.425 1_456 S
C1009 C1006 1.409 . S
C1009 C1007 1.415 1_455 S
C1010 H1000 0.930 . S
C1010 C1008 1.419 1_554 S
C1010 C1011 1.362 . S
C1011 H1001 0.930 . S
C1011 C1004 1.409 . S
C1011 C1010 1.362 . S
H1012 C1018 0.930 . S
H1013 C1021 0.932 . S
H1014 C1022 0.930 . S
H1015 C1023 0.930 . S
H1016 C1026 0.932 . S
H1017 C1027 0.930 . S
C1018 H1012 0.930 . S
C1018 C1019 1.355 . S
C1018 C1020 1.415 . S
C1019 C1018 1.355 . S
C1019 C1021 1.419 . S
C1020 C1018 1.415 . S
C1020 C1025 1.425 1_554 S
C1020 C1027 1.409 . S
C1021 H1013 0.932 . S
C1021 C1019 1.419 . S
C1021 C1022 1.362 1_554 S
C1022 H1014 0.930 . S
C1022 C1021 1.362 1_556 S
C1022 C1025 1.409 . S
C1023 H1015 0.930 . S
C1023 C1024 1.355 . S
C1023 C1025 1.415 . S
C1024 C1023 1.355 . S
C1024 C1026 1.419 . S
C1025 C1020 1.425 1_556 S
C1025 C1022 1.409 . S
C1025 C1023 1.415 . S
C1026 H1016 0.932 . S
C1026 C1024 1.419 . S
C1026 C1027 1.362 1_556 S
C1027 H1017 0.930 . S
C1027 C1020 1.409 . S
C1027 C1026 1.362 1_554 S
H1028 C1034 0.930 . S
H1029 C1037 0.930 . S
H1030 C1038 0.930 . S
H1031 C1039 0.930 . S
H1032 C1042 0.930 . S
H1033 C1043 0.930 . S
C1034 H1028 0.930 . S
C1034 C1035 1.355 . S
C1034 C1036 1.415 1_565 S
C1035 C1034 1.355 . S
C1035 C1037 1.419 1_554 S
C1036 C1034 1.415 1_545 S
C1036 C1041 1.425 1_544 S
C1036 C1043 1.409 . S
C1037 H1029 0.930 . S
C1037 C1035 1.419 1_556 S
C1037 C1038 1.362 . S
C1038 H1030 0.930 . S
C1038 C1037 1.362 . S
C1038 C1041 1.409 . S
C1039 H1031 0.930 . S
C1039 C1040 1.355 . S
C1039 C1041 1.415 1_545 S
C1040 C1039 1.355 . S
C1040 C1042 1.419 1_556 S
C1041 C1036 1.425 1_566 S
C1041 C1038 1.409 . S
C1041 C1039 1.415 1_565 S
C1042 H1032 0.930 . S
C1042 C1040 1.419 1_554 S
C1042 C1043 1.362 . S
C1043 H1033 0.930 . S
C1043 C1036 1.409 . S
C1043 C1042 1.362 . S
H1044 C1050 0.930 . S
H1045 C1053 0.928 . S
H1046 C1054 0.930 . S
H1047 C1055 0.930 . S
H1048 C1058 0.928 . S
H1049 C1059 0.930 . S
C1050 H1044 0.930 . S
C1050 C1051 1.355 . S
C1050 C1052 1.415 . S
C1051 C1050 1.355 . S
C1051 C1053 1.419 . S
C1052 C1050 1.415 . S
C1052 C1057 1.425 1_565 S
C1052 C1059 1.409 . S
C1053 H1045 0.928 . S
C1053 C1051 1.419 . S
C1053 C1054 1.362 1_565 S
C1054 H1046 0.930 . S
C1054 C1053 1.362 1_545 S
C1054 C1057 1.409 . S
C1055 H1047 0.930 . S
C1055 C1056 1.355 . S
C1055 C1057 1.415 . S
C1056 C1055 1.355 . S
C1056 C1058 1.419 . S
C1057 C1052 1.425 1_545 S
C1057 C1054 1.409 . S
C1057 C1055 1.415 . S
C1058 H1048 0.928 . S
C1058 C1056 1.419 . S
C1058 C1059 1.362 1_545 S
C1059 H1049 0.930 . S
C1059 C1052 1.409 . S
C1059 C1058 1.362 1_565 S
H1060 C1066 0.930 1_455 S
H1061 C1069 0.930 . S
H1062 C1070 0.930 . S
H1063 C1071 0.930 1_655 S
H1064 C1074 0.930 . S
H1065 C1075 0.930 . S
C1066 H1060 0.930 1_655 S
C1066 C1067 1.355 . S
C1066 C1068 1.415 1_655 S
C1067 C1066 1.355 . S
C1067 C1069 1.419 . S
C1068 C1066 1.415 1_455 S
C1068 C1073 1.425 1_455 S
C1068 C1075 1.409 . S
C1069 H1061 0.930 . S
C1069 C1067 1.419 . S
C1069 C1070 1.362 . S
C1070 H1062 0.930 . S
C1070 C1069 1.362 . S
C1070 C1073 1.409 . S
C1071 H1063 0.930 1_455 S
C1071 C1072 1.355 . S
C1071 C1073 1.415 1_455 S
C1072 C1071 1.355 . S
C1072 C1074 1.419 . S
C1073 C1068 1.425 1_655 S
C1073 C1070 1.409 . S
C1073 C1071 1.415 1_655 S
C1074 H1064 0.930 . S
C1074 C1072 1.419 . S
C1074 C1075 1.362 . S
C1075 H1065 0.930 . S
C1075 C1068 1.409 . S
C1075 C1074 1.362 . S
H1076 C1082 0.930 . S
H1077 C1085 0.930 . S
H1078 C1086 0.930 . S
H1079 C1087 0.930 . S
H1080 C1090 0.930 . S
H1081 C1091 0.930 . S
C1082 H1076 0.930 . S
C1082 C1083 1.355 . S
C1082 C1084 1.415 . S
C1083 C1082 1.355 . S
C1083 C1085 1.419 . S
C1084 C1082 1.415 . S
C1084 C1089 1.425 . S
C1084 C1091 1.409 . S
C1085 H1077 0.930 . S
C1085 C1083 1.419 . S
C1085 C1086 1.362 . S
C1086 H1078 0.930 . S
C1086 C1085 1.362 . S
C1086 C1089 1.409 . S
C1087 H1079 0.930 . S
C1087 C1088 1.355 . S
C1087 C1089 1.415 . S
C1088 C1087 1.355 . S
C1088 C1090 1.419 . S
C1089 C1084 1.425 . S
C1089 C1086 1.409 . S
C1089 C1087 1.415 . S
C1090 H1080 0.930 . S
C1090 C1088 1.419 . S
C1090 C1091 1.362 . S
C1091 H1081 0.930 . S
C1091 C1084 1.409 . S
C1091 C1090 1.362 . S
C715 C3 0.957 . S
C720 C465 0.981 . S
C731 C62 0.967 . S
C736 C524 0.938 . S
C747 C121 0.943 . S
C752 C406 0.971 . S
C763 C701 0.936 . S
C768 C180 0.963 . S
C779 C239 0.933 . S
C784 C583 0.951 . S
C795 C642 0.944 . S
C800 C298 0.933 . S
C811 C111 0.935 . S
C816 C357 0.961 . S
C827 C416 0.939 . S
C832 C170 0.933 . S
C843 C52 0.968 . S
C848 C475 0.983 . S
C859 C534 0.933 . S
C864 C347 0.942 . S
C875 C593 0.936 . S
C880 C229 0.959 . S
C891 C288 0.980 . S
C896 C652 0.979 . S
C907 C300 1.681 . S
C912 C5 1.674 . S
C923 C64 1.652 . S
C928 C182 1.664 . S
C939 C123 1.653 . S
C944 C241 1.660 . S
C955 C359 1.674 . S
C960 C654 1.681 . S
C971 C418 1.678 . S
C976 C536 1.655 . S
C987 C477 1.662 . S
C992 C595 1.682 . S
C1003 C33 1.769 . S
C1008 C387 1.769 . S
C1019 C92 1.755 . S
C1024 C446 1.755 . S
C1035 C151 1.769 . S
C1040 C505 1.769 . S
C1051 C210 1.789 . S
C1056 C564 1.789 . S
C1067 C623 1.818 . S
C1072 C269 1.818 . S
C1083 C328 1.811 . S
C1088 C682 1.811 . S
