# Generated by pormake.
# Topology nbo, (4)-cn, num edge types: 1
# Building blocks:
#     Node 0, Type 0, BuildingBlock: NAWXER_clean_sbu_0, # of connection points: 4
#     Node 1, Type 0, BuildingBlock: NAWXER_clean_sbu_0, # of connection points: 4
#     Node 2, Type 0, BuildingBlock: NAWXER_clean_sbu_0, # of connection points: 4
#     Node 3, Type 0, BuildingBlock: NAWXER_clean_sbu_0, # of connection points: 4
#     Node 4, Type 0, BuildingBlock: NAWXER_clean_sbu_0, # of connection points: 4
#     Node 5, Type 0, BuildingBlock: NAWXER_clean_sbu_0, # of connection points: 4
#     Edge 6, Type (0, 0), BuildingBlock: XUDNAN_clean_linker_2, # of connection points: 2
#     Edge 7, Type (0, 0), BuildingBlock: XUDNAN_clean_linker_2, # of connection points: 2
#     Edge 8, Type (0, 0), BuildingBlock: XUDNAN_clean_linker_2, # of connection points: 2
#     Edge 9, Type (0, 0), BuildingBlock: XUDNAN_clean_linker_2, # of connection points: 2
#     Edge 10, Type (0, 0), BuildingBlock: XUDNAN_clean_linker_2, # of connection points: 2
#     Edge 11, Type (0, 0), BuildingBlock: XUDNAN_clean_linker_2, # of connection points: 2
#     Edge 12, Type (0, 0), BuildingBlock: XUDNAN_clean_linker_2, # of connection points: 2
#     Edge 13, Type (0, 0), BuildingBlock: XUDNAN_clean_linker_2, # of connection points: 2
#     Edge 14, Type (0, 0), BuildingBlock: XUDNAN_clean_linker_2, # of connection points: 2
#     Edge 15, Type (0, 0), BuildingBlock: XUDNAN_clean_linker_2, # of connection points: 2
#     Edge 16, Type (0, 0), BuildingBlock: XUDNAN_clean_linker_2, # of connection points: 2
#     Edge 17, Type (0, 0), BuildingBlock: XUDNAN_clean_linker_2, # of connection points: 2
# Relax obj value: 0.000
# Max RMSD: 0.000
# Mean RMSD: 0.000
data_MOF--net-nbo--node1-NAWXER_clean_sbu_0--edge1-XUDNAN_clean_linker_2
_symmetry_space_group_name_H-M    P1
_symmetry_Int_Tables_number       1
_symmetry_cell_setting            triclinic
loop_
_symmetry_equiv_pos_as_xyz
'x, y, z'
_cell_length_a     29.172663
_cell_length_b     29.094023
_cell_length_c     29.145842
_cell_angle_alpha  96.973945
_cell_angle_beta   97.748642
_cell_angle_gamma 97.111994
loop_
_atom_site_label
_atom_site_type_symbol
_atom_site_fract_x
_atom_site_fract_y
_atom_site_fract_z
_atom_type_partial_charge
C0 C 0.04827 0.16815 0.57627 0.0
C1 C 0.03602 1.00069 0.58476 0.0
O2 O 0.03018 0.14324 0.53706 0.0
Zn3 Zn 1.01148 0.06948 0.50982 0.0
O4 O 0.05841 0.14837 0.61215 0.0
Zn5 Zn 0.03834 0.0851 0.58236 0.0
O6 O 0.08947 0.07922 0.53672 0.0
O7 O 0.05378 0.06178 0.46375 0.0
O8 O 0.04849 0.03421 0.6181 0.0
O9 O 0.02096 1.00946 0.54385 0.0
O10 O 0.94432 0.06208 0.48987 0.0
O11 O 0.96383 0.08236 0.56614 0.0
C12 C 0.09141 0.0702 0.49299 0.0
C13 C 0.93243 0.07296 0.5297 0.0
C14 C 0.53115 0.06396 0.01906 0.0
C15 C 0.54948 0.89905 1.0057 0.0
O16 O 0.56913 0.0468 0.01922 0.0
Zn17 Zn 0.54158 0.98161 1.00696 0.0
O18 O 0.49191 0.03701 1.00995 0.0
Zn19 Zn 0.46778 0.96334 0.99397 0.0
O20 O 0.43083 0.95597 0.04292 0.0
O21 O 0.50703 0.97356 0.06749 0.0
O22 O 0.50665 0.90586 0.9994 0.0
O23 O 0.5819 0.93348 1.0099 0.0
O24 O 0.51252 0.97215 0.93471 0.0
O25 O 0.43648 0.952 0.93002 0.0
C26 C 0.46517 0.96383 0.0761 0.0
C27 C 0.47204 0.96034 0.91005 0.0
C28 C 0.09816 0.46388 0.99886 0.0
C29 C 0.93123 0.46165 0.98753 0.0
O30 O 0.06555 0.42957 0.9908 0.0
Zn31 Zn 1.01445 0.46318 0.99849 0.0
O32 O 0.08886 0.50518 1.01122 0.0
Zn33 Zn 0.02592 0.53529 0.02148 0.0
O34 O 0.03326 0.55802 0.08787 0.0
O35 O 1.01524 0.48137 0.0727 0.0
O36 O 0.95315 0.50261 1.00419 0.0
O37 O 0.95395 0.42789 0.979 0.0
O38 O 1.01575 0.50742 0.94411 0.0
O39 O 0.02508 0.58085 0.97804 0.0
C40 C 0.02307 0.51907 0.10212 0.0
C41 C 0.01924 0.55127 0.9411 0.0
C42 C 0.53875 0.56564 0.02485 0.0
C43 C 0.52125 0.39993 0.04046 0.0
O44 O 0.52939 0.53935 0.98521 0.0
Zn45 Zn 0.51199 0.46575 0.96005 0.0
O46 O 0.53862 0.54789 0.06257 0.0
Zn47 Zn 0.52512 0.48333 0.03402 0.0
O48 O 0.58545 0.47559 0.99926 0.0
O49 O 0.56065 0.45589 0.92327 0.0
O50 O 0.52648 0.4339 0.07343 0.0
O51 O 0.51531 0.40766 0.99791 0.0
O52 O 0.44821 0.45676 0.92879 0.0
O53 O 0.45308 0.47647 1.0049 0.0
C54 C 0.59395 0.46481 0.95749 0.0
C55 C 0.42839 0.46581 0.96433 0.0
C56 C 0.07151 0.66809 0.54338 0.0
C57 C 0.07718 0.50078 0.53995 0.0
O58 O 0.10735 0.64739 0.54837 0.0
Zn59 Zn 0.0753 0.58393 0.53744 0.0
O60 O 0.03076 0.6439 0.53318 0.0
Zn61 Zn 1.00135 0.57136 0.52396 0.0
O62 O 0.96445 0.57145 0.57492 0.0
O63 O 0.0408 0.58232 0.59801 0.0
O64 O 0.03534 0.51025 0.53134 0.0
O65 O 0.11155 0.53342 0.54533 0.0
O66 O 0.04655 0.57116 0.46393 0.0
O67 O 0.96993 0.55805 0.46026 0.0
C68 C 0.99908 0.57758 0.60768 0.0
C69 C 1.00562 0.56115 0.43961 0.0
C70 C 0.59183 0.05169 0.52266 0.0
C71 C 0.42108 0.03943 0.49947 0.0
O72 O 0.57221 1.00918 0.51075 0.0
Zn73 Zn 0.50189 0.97264 0.49689 0.0
O74 O 0.56664 0.0838 0.52903 0.0
Zn75 Zn 0.50589 0.04581 0.51449 0.0
O76 O 0.50238 1.00765 0.57239 0.0
O77 O 0.497 0.93282 0.54499 0.0
O78 O 0.45027 0.07602 0.51516 0.0
O79 O 0.43565 0.99976 0.49184 0.0
O80 O 0.49849 0.94322 0.43365 0.0
O81 O 0.49841 0.01992 0.44065 0.0
C82 C 0.49844 0.96475 0.57915 0.0
C83 C 0.49569 0.98027 0.41504 0.0
H84 H 1.0035 0.22541 0.52342 0.0
H85 H 0.11935 0.22611 0.63382 0.0
H86 H 0.14237 0.31084 0.63334 0.0
H87 H 0.05975 0.30813 0.45995 0.0
H88 H 1.00878 0.33621 0.44677 0.0
H89 H 1.00217 0.27547 0.45487 0.0
H90 H 0.95126 0.29245 0.51959 0.0
H91 H 0.95723 0.3531 0.51127 0.0
H92 H 0.97374 0.33732 0.5685 0.0
H93 H 0.15461 0.39499 0.61797 0.0
H94 H 0.14842 0.47429 0.59728 0.0
H95 H 0.02123 0.41925 0.5012 0.0
C96 C 0.03367 0.24347 0.54753 0.0
C97 C 0.05984 0.21933 0.57852 0.0
C98 C 0.09874 0.24412 0.60997 0.0
C99 C 0.11226 0.29211 0.60968 0.0
C100 C 0.08603 0.31482 0.57825 0.0
C101 C 0.04701 0.29149 0.5484 0.0
C102 C 0.02339 0.32443 0.51977 0.0
C103 C 0.02355 0.3102 0.46723 0.0
C104 C 0.97345 0.32698 0.53044 0.0
C105 C 0.05531 0.36992 0.538 0.0
C106 C 0.09171 0.36354 0.57113 0.0
C107 C 0.1261 0.40045 0.59228 0.0
C108 C 0.12252 0.44525 0.58008 0.0
C109 C 0.08438 0.45279 0.54771 0.0
C110 C 0.05071 0.41447 0.52615 0.0
H111 H 0.85258 0.01954 0.47973 0.0
H112 H 0.90131 0.13556 0.59077 0.0
H113 H 0.81959 0.14416 0.59946 0.0
H114 H 0.74902 0.06231 0.4283 0.0
H115 H 0.71346 1.00572 0.4174 0.0
H116 H 0.7757 1.01006 0.41808 0.0
H117 H 0.7813 0.95494 0.48144 0.0
H118 H 0.71908 0.95039 0.4809 0.0
H119 H 0.75838 0.96946 0.53497 0.0
H120 H 0.73265 0.14206 0.59424 0.0
H121 H 0.6464 0.12411 0.58126 0.0
H122 H 0.65366 1.00498 0.47877 0.0
C123 C 0.84589 0.04689 0.50561 0.0
C124 C 0.88317 0.07718 0.53436 0.0
C125 C 0.87321 0.11201 0.56845 0.0
C126 C 0.82693 0.11728 0.5735 0.0
C127 C 0.79092 0.08685 0.54478 0.0
C128 C 0.79978 0.05187 0.51196 0.0
C129 C 0.75463 0.02226 0.48741 0.0
C130 C 0.74781 0.02529 0.43467 0.0
C131 C 0.75328 0.97124 0.49675 0.0
C132 C 0.71911 0.04628 0.51132 0.0
C133 C 0.74079 0.08388 0.5438 0.0
C134 C 0.71529 0.11245 0.56921 0.0
C135 C 0.66634 0.10209 0.56151 0.0
C136 C 0.64342 0.06299 0.52936 0.0
C137 C 0.6703 0.03478 0.50401 0.0
H138 H 1.01286 0.72545 0.50696 0.0
H139 H 0.13902 0.72654 0.60489 0.0
H140 H 0.14067 0.81116 0.63013 0.0
H141 H 0.04865 0.83884 0.47232 0.0
H142 H 0.99016 0.85369 0.46583 0.0
H143 H 0.99913 0.79335 0.45639 0.0
H144 H 0.94574 0.77467 0.51793 0.0
H145 H 0.93732 0.83514 0.52819 0.0
H146 H 0.95948 0.80649 0.57626 0.0
H147 H 0.12538 0.89483 0.64802 0.0
H148 H 0.1026 0.97395 0.64747 0.0
H149 H 0.98981 0.919 0.53389 0.0
C150 C 0.04104 0.74364 0.53343 0.0
C151 C 0.07578 0.71955 0.55409 0.0
C152 C 0.11228 0.74449 0.58838 0.0
C153 C 0.11324 0.79241 0.60324 0.0
C154 C 0.07787 0.81495 0.58287 0.0
C155 C 0.04309 0.79162 0.54791 0.0
C156 C 1.01048 0.82438 0.53011 0.0
C157 C 1.01224 0.82777 0.47809 0.0
C158 C 0.96029 0.80925 0.53865 0.0
C159 C 0.0321 0.86974 0.56076 0.0
C160 C 0.07044 0.86344 0.59154 0.0
C161 C 0.09561 0.90024 0.62384 0.0
C162 C 0.08216 0.94494 0.62359 0.0
C163 C 0.04444 0.95253 0.59071 0.0
C164 C 0.01878 0.9142 0.55946 0.0
H165 H 0.3685 0.09863 0.54266 0.0
H166 H 0.36013 0.98543 0.42909 0.0
H167 H 0.27557 0.98775 0.40851 0.0
H168 H 0.26305 0.05557 0.57917 0.0
H169 H 0.2467 0.11235 0.59556 0.0
H170 H 0.3074 0.10583 0.59734 0.0
H171 H 0.31699 0.16918 0.54263 0.0
H172 H 0.25609 0.17559 0.54044 0.0
H173 H 0.2795 0.16207 0.48702 0.0
H174 H 0.19094 1.00014 0.40229 0.0
H175 H 0.11206 1.01514 0.41722 0.0
H176 H 0.17519 0.11651 0.53764 0.0
C177 C 0.34892 0.07496 0.513 0.0
C178 C 0.37079 0.04219 0.48715 0.0
C179 C 0.34393 1.01087 0.44929 0.0
C180 C 0.29598 1.01214 0.43712 0.0
C181 C 0.27524 0.0446 0.46349 0.0
C182 C 0.30074 0.07506 0.50102 0.0
C183 C 0.26923 0.10312 0.52664 0.0
C184 C 0.27174 0.09362 0.57768 0.0
C185 C 0.28117 0.1556 0.524 0.0
C186 C 0.22209 0.08316 0.49816 0.0
C187 C 0.22629 0.05021 0.46124 0.0
C188 C 0.18722 0.02609 0.43094 0.0
C189 C 0.1426 0.03497 0.43947 0.0
C190 C 0.13763 0.06695 0.47848 0.0
C191 C 0.178 0.09193 0.50744 0.0
H192 H 0.54115 0.94518 0.34519 0.0
H193 H 0.41949 1.00973 0.37204 0.0
H194 H 0.39411 1.00553 0.287 0.0
H195 H 0.56479 1.00972 0.25299 0.0
H196 H 0.58536 0.9627 0.21897 0.0
H197 H 0.59099 0.96565 0.28155 0.0
H198 H 0.54576 0.88169 0.27193 0.0
H199 H 0.53977 0.8786 0.20924 0.0
H200 H 0.4886 0.86845 0.23705 0.0
H201 H 0.38238 0.995 0.19956 0.0
H202 H 0.39049 0.98856 0.11561 0.0
H203 H 0.52343 0.93785 0.14618 0.0
C204 C 0.50894 0.95779 0.33285 0.0
C205 C 0.4818 0.97726 0.36451 0.0
C206 C 0.44043 0.99457 0.3478 0.0
C207 C 0.42566 0.99206 0.29975 0.0
C208 C 0.45319 0.97287 0.26912 0.0
C209 C 0.49435 0.95673 0.28492 0.0
C210 C 0.51973 0.9421 0.24478 0.0
C211 C 0.56807 0.97183 0.24988 0.0
C212 C 0.52368 0.88959 0.24051 0.0
C213 C 0.48662 0.95292 0.20416 0.0
C214 C 0.44793 0.96961 0.21881 0.0
C215 C 0.41252 0.98201 0.18757 0.0
C216 C 0.41728 0.9781 0.14008 0.0
C217 C 0.45761 0.96298 0.12482 0.0
C218 C 0.49236 0.94977 0.15718 0.0
H219 H 0.06903 0.57615 0.18173 0.0
H220 H 0.95967 0.45843 0.13303 0.0
H221 H 0.94208 0.45801 0.21355 0.0
H222 H 0.10984 0.53418 0.29092 0.0
H223 H 0.12335 0.59197 0.32395 0.0
H224 H 0.12661 0.58382 0.26227 0.0
H225 H 0.06936 0.64402 0.24952 0.0
H226 H 0.06564 0.65208 0.31111 0.0
H227 H 1.01321 0.63527 0.26896 0.0
H228 H 0.93261 0.47382 0.29809 0.0
H229 H 0.93936 0.49717 0.38342 0.0
H230 H 0.05991 0.59935 0.37963 0.0
C231 C 0.04155 0.55022 0.18819 0.0
C232 C 1.01556 0.51738 0.15117 0.0
C233 C 0.98016 0.48368 0.16094 0.0
C234 C 0.96972 0.48337 0.20649 0.0
C235 C 0.99564 0.51639 0.24217 0.0
C236 C 0.0315 0.54857 0.23382 0.0
C237 C 0.0553 0.57879 0.27894 0.0
C238 C 0.10683 0.57175 0.28965 0.0
C239 C 0.05058 0.63061 0.277 0.0
C240 C 0.02685 0.55892 0.31377 0.0
C241 C 0.99212 0.52348 0.29161 0.0
C242 C 0.96002 0.50112 0.31593 0.0
C243 C 0.96394 0.5148 0.36431 0.0
C244 C 1.00026 0.54982 0.38808 0.0
C245 C 0.03207 0.57215 0.36236 0.0
H246 H 0.53737 1.01486 0.66355 0.0
H247 H 0.44391 0.88905 0.59973 0.0
H248 H 0.42532 0.87485 0.67773 0.0
H249 H 0.58302 0.96637 0.76775 0.0
H250 H 0.58791 0.02128 0.80534 0.0
H251 H 0.5938 0.02073 0.74455 0.0
H252 H 0.52782 0.07239 0.7348 0.0
H253 H 0.52125 0.07254 0.79536 0.0
H254 H 0.47159 0.05285 0.75033 0.0
H255 H 0.41151 0.87909 0.762 0.0
H256 H 0.41346 0.89382 0.84785 0.0
H257 H 0.52143 1.01261 0.85683 0.0
C258 C 0.5134 0.98405 0.66615 0.0
C259 C 0.4919 0.95305 0.62585 0.0
C260 C 0.46095 0.91296 0.63039 0.0
C261 C 0.44995 0.90485 0.67442 0.0
C262 C 0.47103 0.93667 0.71347 0.0
C263 C 0.50299 0.97483 0.70986 0.0
C264 C 0.52183 1.00295 0.75729 0.0
C265 C 0.57478 1.0028 0.76945 0.0
C266 C 0.50989 0.05315 0.75955 0.0
C267 C 0.49492 0.97511 0.78811 0.0
C268 C 0.46523 0.93744 0.76214 0.0
C269 C 0.43512 0.90806 0.78277 0.0
C270 C 0.43618 0.91686 0.83138 0.0
C271 C 0.46777 0.9541 0.85868 0.0
C272 C 0.49729 0.98361 0.83667 0.0
H273 H 0.04513 0.53303 0.67171 0.0
H274 H 0.93925 0.62424 0.65451 0.0
H275 H 0.93569 0.63136 0.73979 0.0
H276 H 0.99274 0.47053 0.75632 0.0
H277 H 0.04846 0.46389 0.78803 0.0
H278 H 0.04268 0.46749 0.72633 0.0
H279 H 0.11011 0.53702 0.74234 0.0
H280 H 0.1156 0.53414 0.80418 0.0
H281 H 0.10579 0.58806 0.78242 0.0
H282 H 0.94877 0.63229 0.82866 0.0
H283 H 0.96663 0.61613 0.91041 0.0
H284 H 0.05816 0.51844 0.86641 0.0
C285 C 0.021 0.55428 0.68596 0.0
C286 C 0.99261 0.57836 0.65699 0.0
C287 C 0.96106 0.60542 0.6764 0.0
C288 C 0.95914 0.60991 0.72472 0.0
C289 C 0.98834 0.58629 0.75261 0.0
C290 C 1.01781 0.55809 0.73362 0.0
C291 C 0.04391 0.53444 0.77035 0.0
C292 C 0.03116 0.48092 0.75962 0.0
C293 C 0.09699 0.54933 0.77508 0.0
C294 C 0.02491 0.55397 0.81324 0.0
C295 C 0.99361 0.58455 0.80263 0.0
C296 C 0.97287 0.60806 0.83721 0.0
C297 C 0.98347 0.59903 0.8835 0.0
C298 C 1.01368 0.56612 0.89436 0.0
C299 C 0.03485 0.5437 0.85884 0.0
H300 H 0.18319 0.51401 0.0398 0.0
H301 H 0.11869 0.39803 0.93358 0.0
H302 H 0.19574 0.38857 0.91079 0.0
H303 H 0.27099 0.56254 0.97696 0.0
H304 H 0.31616 0.57625 0.02723 0.0
H305 H 0.25574 0.57523 0.03463 0.0
H306 H 0.26457 0.51495 0.09265 0.0
H307 H 0.32512 0.51615 0.08577 0.0
H308 H 0.28649 0.46134 0.07486 0.0
H309 H 0.27876 0.3942 0.89656 0.0
H310 H 0.36459 0.40695 0.89963 0.0
H311 H 0.37658 0.51441 0.01936 0.0
C312 C 0.18547 0.48659 1.01188 0.0
C313 C 0.14509 0.45679 0.98836 0.0
C314 C 0.1493 0.42101 0.95226 0.0
C315 C 0.19283 0.41558 0.93881 0.0
C316 C 0.23194 0.4457 0.96234 0.0
C317 C 0.22892 0.47989 0.99873 0.0
C318 C 0.27685 0.5059 0.01977 0.0
C319 C 0.28011 0.55807 0.0143 0.0
C320 C 0.28896 0.49916 0.07131 0.0
C321 C 0.30708 0.48111 0.98933 0.0
C322 C 0.28035 0.4471 0.95588 0.0
C323 C 0.30018 0.42044 0.92285 0.0
C324 C 0.34884 0.42809 0.92466 0.0
C325 C 0.37703 0.46142 0.95983 0.0
C326 C 0.35577 0.48844 0.99232 0.0
H327 H 0.55572 0.33282 0.98792 0.0
H328 H 0.49324 0.3583 0.11376 0.0
H329 H 0.49301 0.27494 0.12459 0.0
H330 H 0.49424 0.22159 0.94492 0.0
H331 H 0.54294 0.19803 0.92363 0.0
H332 H 0.5403 0.25981 0.9275 0.0
H333 H 0.62162 0.27732 0.97928 0.0
H334 H 0.62466 0.2155 0.97543 0.0
H335 H 0.63135 0.25076 0.03186 0.0
H336 H 0.49126 0.18713 0.11566 0.0
H337 H 0.49545 0.10311 0.09264 0.0
H338 H 0.56555 0.13686 0.97661 0.0
C339 C 0.54231 0.32091 0.01799 0.0
C340 C 0.52408 0.35163 0.04987 0.0
C341 C 0.50737 0.33514 0.08907 0.0
C342 C 0.50706 0.28795 0.09537 0.0
C343 C 0.52464 0.25834 0.06274 0.0
C344 C 0.54275 0.27443 0.02531 0.0
C345 C 0.5593 0.23565 0.99501 0.0
C346 C 0.53259 0.22835 0.94481 0.0
C347 C 0.61239 0.2454 0.99544 0.0
C348 C 0.54644 0.19469 0.0204 0.0
C349 C 0.52624 0.20846 0.05926 0.0
C350 C 0.50795 0.17616 0.086 0.0
C351 C 0.51033 0.12866 0.07265 0.0
C352 C 0.53153 0.11414 0.03351 0.0
C353 C 0.55024 0.14751 1.00736 0.0
H354 H 0.87006 0.51117 0.02804 0.0
H355 H 0.87705 0.39646 0.92039 0.0
H356 H 0.79131 0.38774 0.89743 0.0
H357 H 0.76409 0.45934 0.06269 0.0
H358 H 0.74262 0.5144 0.07445 0.0
H359 H 0.80458 0.51256 0.08069 0.0
H360 H 0.81276 0.57347 0.02323 0.0
H361 H 0.75071 0.57508 0.01642 0.0
H362 H 0.77842 0.56154 0.96575 0.0
H363 H 0.705 0.39346 0.88477 0.0
H364 H 0.62339 0.40622 0.89032 0.0
H365 H 0.67322 0.51359 1.0095 0.0
C366 C 0.85349 0.48428 0.99961 0.0
C367 C 0.87996 0.45463 0.97577 0.0
C368 C 0.85718 0.41939 0.93917 0.0
C369 C 0.80864 0.41441 0.92568 0.0
C370 C 0.78353 0.44455 0.94961 0.0
C371 C 0.80508 0.47825 0.98632 0.0
C372 C 0.76991 0.50446 1.00802 0.0
C373 C 0.77033 0.49723 0.0595 0.0
C374 C 0.77848 0.55673 1.00303 0.0
C375 C 0.72522 0.48027 0.97776 0.0
C376 C 0.73379 0.44635 0.94375 0.0
C377 C 0.69781 0.41979 0.91137 0.0
C378 C 0.65171 0.42743 0.91457 0.0
C379 C 0.64229 0.46072 0.95039 0.0
C380 C 0.67957 0.48774 0.98193 0.0
H381 H 0.48999 0.63572 0.05156 0.0
H382 H 0.6166 0.6077 0.99789 0.0
H383 H 0.63716 0.69204 0.99287 0.0
H384 H 0.46189 0.71569 0.97498 0.0
H385 H 0.43789 0.75344 0.01638 0.0
H386 H 0.43653 0.69239 0.0219 0.0
H387 H 0.48019 0.71404 0.10685 0.0
H388 H 0.48151 0.77526 0.10164 0.0
H389 H 0.53512 0.75246 0.11807 0.0
H390 H 0.64198 0.77919 0.99086 0.0
H391 H 0.62762 0.86095 0.98639 0.0
H392 H 0.49493 0.82979 0.0357 0.0
C393 C 0.52252 0.64778 0.03987 0.0
C394 C 0.55235 0.616 0.02596 0.0
C395 C 0.59385 0.63215 1.00925 0.0
C396 C 0.60577 0.67981 1.00638 0.0
C397 C 0.57535 0.71051 0.01976 0.0
C398 C 0.53441 0.69509 0.03589 0.0
C399 C 0.5056 0.73432 0.04379 0.0
C400 C 0.45766 0.72329 1.01238 0.0
C401 C 0.50032 0.74462 0.09568 0.0
C402 C 0.53633 0.77394 0.02896 0.0
C403 C 0.57683 0.75987 0.01606 0.0
C404 C 0.61039 0.79063 1.00091 0.0
C405 C 0.60202 0.8369 0.99849 0.0
C406 C 0.56004 0.85138 1.01023 0.0
C407 C 0.52713 0.81949 0.02597 0.0
loop_
_geom_bond_atom_site_label_1
_geom_bond_atom_site_label_2
_geom_bond_distance
_geom_bond_site_symmetry_2
_ccdc_geom_bond_type
C0 O2 1.247 1_455 S
C0 O4 1.258 . S
C1 O8 1.247 1_655 S
C1 O9 1.258 . S
O2 C0 1.247 1_655 S
O2 Zn3 2.028 1_545 S
Zn3 O2 2.028 1_565 S
Zn3 O7 2.035 1_655 S
Zn3 O9 2.035 . S
Zn3 O10 2.028 . S
O4 C0 1.258 . S
O4 Zn5 2.035 . S
Zn5 O4 2.035 . S
Zn5 O6 2.028 . S
Zn5 O8 2.028 1_545 S
Zn5 O11 2.035 1_455 S
O6 Zn5 2.028 . S
O6 C12 1.247 . S
O7 Zn3 2.035 1_455 S
O7 C12 1.258 1_565 S
O8 C1 1.247 1_455 S
O8 Zn5 2.028 1_565 S
O9 C1 1.258 . S
O9 Zn3 2.035 . S
O10 Zn3 2.028 . S
O10 C13 1.247 . S
O11 Zn5 2.035 1_655 S
O11 C13 1.258 1_545 S
C12 O6 1.247 . S
C12 O7 1.258 1_545 S
C13 O10 1.247 . S
C13 O11 1.258 1_565 S
C14 O16 1.247 . S
C14 O18 1.258 1_554 S
C15 O22 1.247 . S
C15 O23 1.258 1_556 S
O16 C14 1.247 . S
O16 Zn17 2.028 . S
Zn17 O16 2.028 . S
Zn17 O21 2.035 . S
Zn17 O23 2.035 1_545 S
Zn17 O24 2.028 1_554 S
O18 C14 1.258 1_556 S
O18 Zn19 2.035 1_545 S
Zn19 O18 2.035 1_565 S
Zn19 O20 2.028 1_556 S
Zn19 O22 2.028 . S
Zn19 O25 2.035 . S
O20 Zn19 2.028 1_554 S
O20 C26 1.247 1_565 S
O21 Zn17 2.035 . S
O21 C26 1.258 . S
O22 C15 1.247 . S
O22 Zn19 2.028 . S
O23 C15 1.258 1_554 S
O23 Zn17 2.035 1_565 S
O24 Zn17 2.028 1_556 S
O24 C27 1.247 1_545 S
O25 Zn19 2.035 . S
O25 C27 1.258 . S
C26 O20 1.247 1_545 S
C26 O21 1.258 . S
C27 O24 1.247 1_565 S
C27 O25 1.258 . S
C28 O30 1.247 1_554 S
C28 O32 1.258 . S
C29 O36 1.247 1_556 S
C29 O37 1.258 . S
O30 C28 1.247 1_556 S
O30 Zn31 2.028 1_455 S
Zn31 O30 2.028 1_655 S
Zn31 O35 2.035 1_556 S
Zn31 O37 2.035 . S
Zn31 O38 2.028 . S
O32 C28 1.258 . S
O32 Zn33 2.035 . S
Zn33 O32 2.035 . S
Zn33 O34 2.028 . S
Zn33 O36 2.028 1_455 S
Zn33 O39 2.035 1_554 S
O34 Zn33 2.028 . S
O34 C40 1.247 . S
O35 Zn31 2.035 1_554 S
O35 C40 1.258 1_655 S
O36 C29 1.247 1_554 S
O36 Zn33 2.028 1_655 S
O37 C29 1.258 . S
O37 Zn31 2.035 . S
O38 Zn31 2.028 . S
O38 C41 1.247 . S
O39 Zn33 2.035 1_556 S
O39 C41 1.258 1_455 S
C40 O34 1.247 . S
C40 O35 1.258 1_455 S
C41 O38 1.247 . S
C41 O39 1.258 1_655 S
C42 O44 1.246 . S
C42 O46 1.259 1_556 S
C43 O50 1.251 . S
C43 O51 1.254 1_554 S
O44 C42 1.246 . S
O44 Zn45 2.028 . S
Zn45 O44 2.028 . S
Zn45 O49 2.035 . S
Zn45 O51 2.035 . S
Zn45 O52 2.028 . S
O46 C42 1.259 1_554 S
O46 Zn47 2.035 . S
Zn47 O46 2.035 . S
Zn47 O48 2.028 . S
Zn47 O50 2.028 . S
Zn47 O53 2.035 . S
O48 Zn47 2.028 . S
O48 C54 1.251 . S
O49 Zn45 2.035 . S
O49 C54 1.254 1_556 S
O50 C43 1.251 . S
O50 Zn47 2.028 . S
O51 C43 1.254 1_556 S
O51 Zn45 2.035 . S
O52 Zn45 2.028 . S
O52 C55 1.246 . S
O53 Zn47 2.035 . S
O53 C55 1.259 1_554 S
C54 O48 1.251 . S
C54 O49 1.254 1_554 S
C55 O52 1.246 . S
C55 O53 1.259 1_556 S
C56 O58 1.251 . S
C56 O60 1.254 1_455 S
C57 O64 1.246 . S
C57 O65 1.259 1_655 S
O58 C56 1.251 . S
O58 Zn59 2.028 . S
Zn59 O58 2.028 . S
Zn59 O63 2.035 . S
Zn59 O65 2.035 . S
Zn59 O66 2.028 . S
O60 C56 1.254 1_655 S
O60 Zn61 2.035 . S
Zn61 O60 2.035 . S
Zn61 O62 2.028 . S
Zn61 O64 2.028 . S
Zn61 O67 2.035 . S
O62 Zn61 2.028 . S
O62 C68 1.246 . S
O63 Zn59 2.035 . S
O63 C68 1.259 1_455 S
O64 C57 1.246 . S
O64 Zn61 2.028 . S
O65 C57 1.259 1_455 S
O65 Zn59 2.035 . S
O66 Zn59 2.028 . S
O66 C69 1.251 . S
O67 Zn61 2.035 . S
O67 C69 1.254 1_655 S
C68 O62 1.246 . S
C68 O63 1.259 1_655 S
C69 O66 1.251 . S
C69 O67 1.254 1_455 S
C70 O72 1.246 . S
C70 O74 1.259 1_565 S
C71 O78 1.251 . S
C71 O79 1.254 1_545 S
O72 C70 1.246 . S
O72 Zn73 2.028 . S
Zn73 O72 2.028 . S
Zn73 O77 2.035 . S
Zn73 O79 2.035 . S
Zn73 O80 2.028 . S
O74 C70 1.259 1_545 S
O74 Zn75 2.035 . S
Zn75 O74 2.035 . S
Zn75 O76 2.028 . S
Zn75 O78 2.028 . S
Zn75 O81 2.035 . S
O76 Zn75 2.028 . S
O76 C82 1.251 . S
O77 Zn73 2.035 . S
O77 C82 1.254 1_565 S
O78 C71 1.251 . S
O78 Zn75 2.028 . S
O79 C71 1.254 1_565 S
O79 Zn73 2.035 . S
O80 Zn73 2.028 . S
O80 C83 1.246 . S
O81 Zn75 2.035 . S
O81 C83 1.259 1_545 S
C82 O76 1.251 . S
C82 O77 1.254 1_545 S
C83 O80 1.246 . S
C83 O81 1.259 1_565 S
H84 C96 0.930 . S
H85 C98 0.930 . S
H86 C99 0.930 . S
H87 C103 0.959 . S
H88 C103 0.959 . S
H89 C103 0.961 . S
H90 C104 0.960 . S
H91 C104 0.961 . S
H92 C104 0.959 . S
H93 C107 0.929 . S
H94 C108 0.931 . S
H95 C110 0.930 . S
C96 H84 0.930 . S
C96 C97 1.399 1_455 S
C96 C101 1.399 . S
C97 C96 1.399 1_655 S
C97 C98 1.376 . S
C98 H85 0.930 . S
C98 C97 1.376 . S
C98 C99 1.388 . S
C99 H86 0.930 . S
C99 C98 1.388 . S
C99 C100 1.390 . S
C100 C99 1.390 . S
C100 C101 1.394 1_655 S
C100 C106 1.465 . S
C101 C96 1.399 . S
C101 C100 1.394 1_455 S
C101 C102 1.516 . S
C102 C101 1.516 . S
C102 C103 1.502 . S
C102 C104 1.561 . S
C102 C105 1.526 . S
C103 H87 0.959 . S
C103 H88 0.959 . S
C103 H89 0.961 . S
C103 C102 1.502 . S
C104 H90 0.960 . S
C104 H91 0.961 . S
C104 H92 0.959 . S
C104 C102 1.561 . S
C105 C102 1.526 . S
C105 C106 1.396 1_455 S
C105 C110 1.390 . S
C106 C100 1.465 . S
C106 C105 1.396 1_655 S
C106 C107 1.399 . S
C107 H93 0.929 . S
C107 C106 1.399 . S
C107 C108 1.385 . S
C108 H94 0.931 . S
C108 C107 1.385 . S
C108 C109 1.389 . S
C109 C108 1.389 . S
C109 C110 1.387 1_655 S
C110 H95 0.930 . S
C110 C105 1.390 . S
C110 C109 1.387 1_455 S
H111 C123 0.930 . S
H112 C125 0.930 1_545 S
H113 C126 0.930 1_545 S
H114 C130 0.959 . S
H115 C130 0.959 . S
H116 C130 0.961 . S
H117 C131 0.960 . S
H118 C131 0.961 . S
H119 C131 0.959 . S
H120 C134 0.929 . S
H121 C135 0.931 . S
H122 C137 0.930 . S
C123 H111 0.930 . S
C123 C124 1.399 . S
C123 C128 1.399 . S
C124 C123 1.399 . S
C124 C125 1.377 . S
C125 H112 0.930 1_565 S
C125 C124 1.377 . S
C125 C126 1.389 . S
C126 H113 0.930 1_565 S
C126 C125 1.389 . S
C126 C127 1.389 . S
C127 C126 1.389 . S
C127 C128 1.394 . S
C127 C133 1.465 . S
C128 C123 1.399 . S
C128 C127 1.394 . S
C128 C129 1.516 . S
C129 C128 1.516 . S
C129 C130 1.502 1_565 S
C129 C131 1.561 . S
C129 C132 1.526 . S
C130 H114 0.959 . S
C130 H115 0.959 . S
C130 H116 0.961 . S
C130 C129 1.502 1_545 S
C131 H117 0.960 . S
C131 H118 0.961 . S
C131 H119 0.959 . S
C131 C129 1.561 . S
C132 C129 1.526 . S
C132 C133 1.396 . S
C132 C137 1.390 . S
C133 C127 1.465 . S
C133 C132 1.396 . S
C133 C134 1.399 1_565 S
C134 H120 0.929 . S
C134 C133 1.399 1_545 S
C134 C135 1.385 . S
C135 H121 0.931 . S
C135 C134 1.385 . S
C135 C136 1.389 1_545 S
C136 C135 1.389 1_565 S
C136 C137 1.387 . S
C137 H122 0.930 . S
C137 C132 1.390 . S
C137 C136 1.387 . S
H138 C150 0.930 . S
H139 C152 0.930 . S
H140 C153 0.930 . S
H141 C157 0.959 . S
H142 C157 0.959 . S
H143 C157 0.961 . S
H144 C158 0.960 . S
H145 C158 0.961 . S
H146 C158 0.959 . S
H147 C161 0.929 . S
H148 C162 0.931 . S
H149 C164 0.930 . S
C150 H138 0.930 . S
C150 C151 1.399 1_455 S
C150 C155 1.399 . S
C151 C150 1.399 1_655 S
C151 C152 1.376 . S
C152 H139 0.930 . S
C152 C151 1.376 . S
C152 C153 1.388 . S
C153 H140 0.930 . S
C153 C152 1.388 . S
C153 C154 1.390 . S
C154 C153 1.390 . S
C154 C155 1.394 1_655 S
C154 C160 1.465 . S
C155 C150 1.399 . S
C155 C154 1.394 1_455 S
C155 C156 1.516 . S
C156 C155 1.516 . S
C156 C157 1.502 . S
C156 C158 1.561 . S
C156 C159 1.526 . S
C157 H141 0.959 . S
C157 H142 0.959 . S
C157 H143 0.961 . S
C157 C156 1.502 . S
C158 H144 0.960 . S
C158 H145 0.961 . S
C158 H146 0.959 . S
C158 C156 1.561 . S
C159 C156 1.526 . S
C159 C160 1.396 1_455 S
C159 C164 1.390 . S
C160 C154 1.465 . S
C160 C159 1.396 1_655 S
C160 C161 1.399 . S
C161 H147 0.929 . S
C161 C160 1.399 . S
C161 C162 1.385 . S
C162 H148 0.931 . S
C162 C161 1.385 . S
C162 C163 1.389 . S
C163 C162 1.389 . S
C163 C164 1.387 1_655 S
C164 H149 0.930 . S
C164 C159 1.390 . S
C164 C163 1.387 1_455 S
H165 C177 0.930 . S
H166 C179 0.930 . S
H167 C180 0.930 . S
H168 C184 0.959 . S
H169 C184 0.959 . S
H170 C184 0.961 . S
H171 C185 0.960 . S
H172 C185 0.961 . S
H173 C185 0.959 . S
H174 C188 0.929 . S
H175 C189 0.931 . S
H176 C191 0.930 . S
C177 H165 0.930 . S
C177 C178 1.399 1_545 S
C177 C182 1.399 . S
C178 C177 1.399 1_565 S
C178 C179 1.376 . S
C179 H166 0.930 . S
C179 C178 1.376 . S
C179 C180 1.388 . S
C180 H167 0.930 . S
C180 C179 1.388 . S
C180 C181 1.390 . S
C181 C180 1.390 . S
C181 C182 1.394 1_565 S
C181 C187 1.465 . S
C182 C177 1.399 . S
C182 C181 1.394 1_545 S
C182 C183 1.516 . S
C183 C182 1.516 . S
C183 C184 1.502 . S
C183 C185 1.561 . S
C183 C186 1.526 . S
C184 H168 0.959 . S
C184 H169 0.959 . S
C184 H170 0.961 . S
C184 C183 1.502 . S
C185 H171 0.960 . S
C185 H172 0.961 . S
C185 H173 0.959 . S
C185 C183 1.561 . S
C186 C183 1.526 . S
C186 C187 1.396 1_545 S
C186 C191 1.390 . S
C187 C181 1.465 . S
C187 C186 1.396 1_565 S
C187 C188 1.399 . S
C188 H174 0.929 . S
C188 C187 1.399 . S
C188 C189 1.385 . S
C189 H175 0.931 . S
C189 C188 1.385 . S
C189 C190 1.389 . S
C190 C189 1.389 . S
C190 C191 1.387 1_565 S
C191 H176 0.930 . S
C191 C186 1.390 . S
C191 C190 1.387 1_545 S
H192 C204 0.930 . S
H193 C206 0.930 . S
H194 C207 0.930 . S
H195 C211 0.959 . S
H196 C211 0.959 . S
H197 C211 0.961 . S
H198 C212 0.960 . S
H199 C212 0.961 . S
H200 C212 0.959 . S
H201 C215 0.929 . S
H202 C216 0.931 . S
H203 C218 0.930 . S
C204 H192 0.930 . S
C204 C205 1.399 1_565 S
C204 C209 1.399 . S
C205 C204 1.399 1_545 S
C205 C206 1.376 . S
C206 H193 0.930 . S
C206 C205 1.376 . S
C206 C207 1.388 . S
C207 H194 0.930 . S
C207 C206 1.388 . S
C207 C208 1.390 . S
C208 C207 1.390 . S
C208 C209 1.394 1_545 S
C208 C214 1.465 . S
C209 C204 1.399 . S
C209 C208 1.394 1_565 S
C209 C210 1.516 . S
C210 C209 1.516 . S
C210 C211 1.502 . S
C210 C212 1.561 . S
C210 C213 1.526 . S
C211 H195 0.959 . S
C211 H196 0.959 . S
C211 H197 0.961 . S
C211 C210 1.502 . S
C212 H198 0.960 . S
C212 H199 0.961 . S
C212 H200 0.959 . S
C212 C210 1.561 . S
C213 C210 1.526 . S
C213 C214 1.396 1_565 S
C213 C218 1.390 . S
C214 C208 1.465 . S
C214 C213 1.396 1_545 S
C214 C215 1.399 . S
C215 H201 0.929 . S
C215 C214 1.399 . S
C215 C216 1.385 . S
C216 H202 0.931 . S
C216 C215 1.385 . S
C216 C217 1.389 . S
C217 C216 1.389 . S
C217 C218 1.387 1_545 S
C218 H203 0.930 . S
C218 C213 1.390 . S
C218 C217 1.387 1_565 S
H219 C231 0.930 . S
H220 C233 0.930 . S
H221 C234 0.930 . S
H222 C238 0.959 . S
H223 C238 0.959 . S
H224 C238 0.961 . S
H225 C239 0.960 . S
H226 C239 0.961 . S
H227 C239 0.959 . S
H228 C242 0.929 . S
H229 C243 0.931 . S
H230 C245 0.930 . S
C231 H219 0.930 . S
C231 C232 1.399 1_455 S
C231 C236 1.399 . S
C232 C231 1.399 1_655 S
C232 C233 1.376 . S
C233 H220 0.930 . S
C233 C232 1.376 . S
C233 C234 1.388 . S
C234 H221 0.930 . S
C234 C233 1.388 . S
C234 C235 1.390 . S
C235 C234 1.390 . S
C235 C236 1.394 1_655 S
C235 C241 1.465 . S
C236 C231 1.399 . S
C236 C235 1.394 1_455 S
C236 C237 1.516 . S
C237 C236 1.516 . S
C237 C238 1.502 . S
C237 C239 1.561 1_455 S
C237 C240 1.526 . S
C238 H222 0.959 . S
C238 H223 0.959 . S
C238 H224 0.961 . S
C238 C237 1.502 . S
C239 H225 0.960 . S
C239 H226 0.961 . S
C239 H227 0.959 . S
C239 C237 1.561 1_655 S
C240 C237 1.526 . S
C240 C241 1.396 1_455 S
C240 C245 1.390 . S
C241 C235 1.465 . S
C241 C240 1.396 1_655 S
C241 C242 1.399 . S
C242 H228 0.929 . S
C242 C241 1.399 . S
C242 C243 1.385 . S
C243 H229 0.931 . S
C243 C242 1.385 . S
C243 C244 1.389 . S
C244 C243 1.389 . S
C244 C245 1.387 1_655 S
C245 H230 0.930 . S
C245 C240 1.390 . S
C245 C244 1.387 1_455 S
H246 C258 0.930 . S
H247 C260 0.930 . S
H248 C261 0.930 . S
H249 C265 0.959 . S
H250 C265 0.959 . S
H251 C265 0.961 . S
H252 C266 0.960 . S
H253 C266 0.961 . S
H254 C266 0.959 . S
H255 C269 0.929 . S
H256 C270 0.931 . S
H257 C272 0.930 . S
C258 H246 0.930 . S
C258 C259 1.399 1_545 S
C258 C263 1.399 . S
C259 C258 1.399 1_565 S
C259 C260 1.376 . S
C260 H247 0.930 . S
C260 C259 1.376 . S
C260 C261 1.388 . S
C261 H248 0.930 . S
C261 C260 1.388 . S
C261 C262 1.390 . S
C262 C261 1.390 . S
C262 C263 1.394 1_565 S
C262 C268 1.465 . S
C263 C258 1.399 . S
C263 C262 1.394 1_545 S
C263 C264 1.516 . S
C264 C263 1.516 . S
C264 C265 1.502 . S
C264 C266 1.561 . S
C264 C267 1.526 . S
C265 H249 0.959 . S
C265 H250 0.959 . S
C265 H251 0.961 . S
C265 C264 1.502 . S
C266 H252 0.960 . S
C266 H253 0.961 . S
C266 H254 0.959 . S
C266 C264 1.561 . S
C267 C264 1.526 . S
C267 C268 1.396 1_545 S
C267 C272 1.390 . S
C268 C262 1.465 . S
C268 C267 1.396 1_565 S
C268 C269 1.399 . S
C269 H255 0.929 . S
C269 C268 1.399 . S
C269 C270 1.385 . S
C270 H256 0.931 . S
C270 C269 1.385 . S
C270 C271 1.389 . S
C271 C270 1.389 . S
C271 C272 1.387 1_565 S
C272 H257 0.930 . S
C272 C267 1.390 . S
C272 C271 1.387 1_545 S
H273 C285 0.930 . S
H274 C287 0.930 . S
H275 C288 0.930 . S
H276 C292 0.959 . S
H277 C292 0.959 . S
H278 C292 0.961 . S
H279 C293 0.960 . S
H280 C293 0.961 . S
H281 C293 0.948 1_655 S
H282 C296 0.929 . S
H283 C297 0.931 . S
H284 C299 0.930 . S
C285 H273 0.930 . S
C285 C286 1.399 1_455 S
C285 C290 1.399 . S
C286 C285 1.399 1_655 S
C286 C287 1.376 . S
C287 H274 0.930 . S
C287 C286 1.376 . S
C287 C288 1.388 . S
C288 H275 0.930 . S
C288 C287 1.388 . S
C288 C289 1.390 . S
C289 C288 1.390 . S
C289 C290 1.394 1_655 S
C289 C295 1.465 . S
C290 C285 1.399 . S
C290 C289 1.394 1_455 S
C290 C291 1.516 . S
C291 C290 1.516 . S
C291 C292 1.502 . S
C291 C293 1.561 . S
C291 C294 1.526 . S
C292 H276 0.959 . S
C292 H277 0.959 . S
C292 H278 0.961 . S
C292 C291 1.502 . S
C293 H279 0.960 . S
C293 H280 0.961 . S
C293 H281 0.948 1_455 S
C293 C291 1.561 . S
C294 C291 1.526 . S
C294 C295 1.396 1_455 S
C294 C299 1.390 . S
C295 C289 1.465 . S
C295 C294 1.396 1_655 S
C295 C296 1.399 . S
C296 H282 0.929 . S
C296 C295 1.399 . S
C296 C297 1.385 . S
C297 H283 0.931 . S
C297 C296 1.385 . S
C297 C298 1.389 . S
C298 C297 1.389 . S
C298 C299 1.387 1_655 S
C299 H284 0.930 . S
C299 C294 1.390 . S
C299 C298 1.387 1_455 S
H300 C312 0.930 . S
H301 C314 0.930 . S
H302 C315 0.930 . S
H303 C319 0.959 . S
H304 C319 0.959 . S
H305 C319 0.961 . S
H306 C320 0.960 . S
H307 C320 0.961 . S
H308 C320 0.959 . S
H309 C323 0.929 . S
H310 C324 0.931 . S
H311 C326 0.930 . S
C312 H300 0.930 . S
C312 C313 1.399 1_554 S
C312 C317 1.399 . S
C313 C312 1.399 1_556 S
C313 C314 1.376 . S
C314 H301 0.930 . S
C314 C313 1.376 . S
C314 C315 1.388 . S
C315 H302 0.930 . S
C315 C314 1.388 . S
C315 C316 1.390 . S
C316 C315 1.390 . S
C316 C317 1.394 1_556 S
C316 C322 1.465 . S
C317 C312 1.399 . S
C317 C316 1.394 1_554 S
C317 C318 1.516 . S
C318 C317 1.516 . S
C318 C319 1.502 . S
C318 C320 1.561 . S
C318 C321 1.526 . S
C319 H303 0.959 . S
C319 H304 0.959 . S
C319 H305 0.961 . S
C319 C318 1.502 . S
C320 H306 0.960 . S
C320 H307 0.961 . S
C320 H308 0.959 . S
C320 C318 1.561 . S
C321 C318 1.526 . S
C321 C322 1.396 1_554 S
C321 C326 1.390 . S
C322 C316 1.465 . S
C322 C321 1.396 1_556 S
C322 C323 1.399 . S
C323 H309 0.929 . S
C323 C322 1.399 . S
C323 C324 1.385 . S
C324 H310 0.931 . S
C324 C323 1.385 . S
C324 C325 1.389 . S
C325 C324 1.389 . S
C325 C326 1.387 1_556 S
C326 H311 0.930 . S
C326 C321 1.390 . S
C326 C325 1.387 1_554 S
H327 C339 0.930 . S
H328 C341 0.930 . S
H329 C342 0.930 . S
H330 C346 0.959 1_556 S
H331 C346 0.959 . S
H332 C346 0.961 . S
H333 C347 0.960 . S
H334 C347 0.961 . S
H335 C347 0.959 . S
H336 C350 0.929 . S
H337 C351 0.931 . S
H338 C353 0.930 . S
C339 H327 0.930 . S
C339 C340 1.399 . S
C339 C344 1.399 . S
C340 C339 1.399 . S
C340 C341 1.376 1_554 S
C341 H328 0.930 . S
C341 C340 1.376 1_556 S
C341 C342 1.388 . S
C342 H329 0.930 . S
C342 C341 1.388 . S
C342 C343 1.390 . S
C343 C342 1.390 . S
C343 C344 1.394 1_556 S
C343 C349 1.465 . S
C344 C339 1.399 . S
C344 C343 1.394 1_554 S
C344 C345 1.516 . S
C345 C344 1.516 . S
C345 C346 1.502 . S
C345 C347 1.561 . S
C345 C348 1.526 . S
C346 H330 0.959 1_554 S
C346 H331 0.959 . S
C346 H332 0.961 . S
C346 C345 1.502 . S
C347 H333 0.960 . S
C347 H334 0.961 . S
C347 H335 0.959 . S
C347 C345 1.561 . S
C348 C345 1.526 . S
C348 C349 1.396 1_554 S
C348 C353 1.390 . S
C349 C343 1.465 . S
C349 C348 1.396 1_556 S
C349 C350 1.399 . S
C350 H336 0.929 . S
C350 C349 1.399 . S
C350 C351 1.385 . S
C351 H337 0.931 . S
C351 C350 1.385 . S
C351 C352 1.389 . S
C352 C351 1.389 . S
C352 C353 1.387 1_556 S
C353 H338 0.930 . S
C353 C348 1.390 . S
C353 C352 1.387 1_554 S
H354 C366 0.930 . S
H355 C368 0.930 . S
H356 C369 0.930 . S
H357 C373 0.959 . S
H358 C373 0.959 . S
H359 C373 0.961 . S
H360 C374 0.960 . S
H361 C374 0.961 . S
H362 C374 0.959 . S
H363 C377 0.929 . S
H364 C378 0.931 . S
H365 C380 0.930 . S
C366 H354 0.930 . S
C366 C367 1.399 1_554 S
C366 C371 1.399 . S
C367 C366 1.399 1_556 S
C367 C368 1.376 . S
C368 H355 0.930 . S
C368 C367 1.376 . S
C368 C369 1.388 . S
C369 H356 0.930 . S
C369 C368 1.388 . S
C369 C370 1.390 . S
C370 C369 1.390 . S
C370 C371 1.394 1_556 S
C370 C376 1.465 . S
C371 C366 1.399 . S
C371 C370 1.394 1_554 S
C371 C372 1.516 . S
C372 C371 1.516 . S
C372 C373 1.502 . S
C372 C374 1.561 . S
C372 C375 1.526 . S
C373 H357 0.959 . S
C373 H358 0.959 . S
C373 H359 0.961 . S
C373 C372 1.502 . S
C374 H360 0.960 . S
C374 H361 0.961 . S
C374 H362 0.959 . S
C374 C372 1.561 . S
C375 C372 1.526 . S
C375 C376 1.396 1_554 S
C375 C380 1.390 . S
C376 C370 1.465 . S
C376 C375 1.396 1_556 S
C376 C377 1.399 . S
C377 H363 0.929 . S
C377 C376 1.399 . S
C377 C378 1.385 . S
C378 H364 0.931 . S
C378 C377 1.385 . S
C378 C379 1.389 . S
C379 C378 1.389 . S
C379 C380 1.387 1_556 S
C380 H365 0.930 . S
C380 C375 1.390 . S
C380 C379 1.387 1_554 S
H381 C393 0.930 . S
H382 C395 0.930 . S
H383 C396 0.930 . S
H384 C400 0.959 . S
H385 C400 0.959 . S
H386 C400 0.961 . S
H387 C401 0.960 . S
H388 C401 0.961 . S
H389 C401 0.959 . S
H390 C404 0.929 . S
H391 C405 0.931 . S
H392 C407 0.930 . S
C393 H381 0.930 . S
C393 C394 1.399 1_554 S
C393 C398 1.399 . S
C394 C393 1.399 1_556 S
C394 C395 1.376 . S
C395 H382 0.930 . S
C395 C394 1.376 . S
C395 C396 1.388 . S
C396 H383 0.930 . S
C396 C395 1.388 . S
C396 C397 1.390 . S
C397 C396 1.390 . S
C397 C398 1.394 1_556 S
C397 C403 1.465 . S
C398 C393 1.399 . S
C398 C397 1.394 1_554 S
C398 C399 1.516 . S
C399 C398 1.516 . S
C399 C400 1.502 . S
C399 C401 1.561 . S
C399 C402 1.526 . S
C400 H384 0.959 . S
C400 H385 0.959 . S
C400 H386 0.961 . S
C400 C399 1.502 . S
C401 H387 0.960 . S
C401 H388 0.961 . S
C401 H389 0.959 . S
C401 C399 1.561 . S
C402 C399 1.526 . S
C402 C403 1.396 1_554 S
C402 C407 1.390 . S
C403 C397 1.465 . S
C403 C402 1.396 1_556 S
C403 C404 1.399 . S
C404 H390 0.929 . S
C404 C403 1.399 . S
C404 C405 1.385 . S
C405 H391 0.931 . S
C405 C404 1.385 . S
C405 C406 1.389 . S
C406 C405 1.389 . S
C406 C407 1.387 1_556 S
C407 H392 0.930 . S
C407 C402 1.390 . S
C407 C406 1.387 1_554 S
C97 C0 1.497 1_655 S
C109 C57 1.489 . S
C124 C13 1.488 . S
C136 C70 1.488 . S
C151 C56 1.490 1_655 S
C163 C1 1.488 . S
C178 C71 1.490 1_565 S
C190 C12 1.495 1_565 S
C205 C83 1.487 1_545 S
C217 C26 1.482 . S
C232 C40 1.495 1_655 S
C244 C69 1.483 1_655 S
C259 C82 1.493 1_565 S
C271 C27 1.488 . S
C286 C68 1.492 . S
C298 C41 1.489 . S
C313 C28 1.496 1_556 S
C325 C55 1.486 . S
C340 C43 1.485 . S
C352 C14 1.490 1_556 S
C367 C29 1.485 . S
C379 C54 1.494 1_556 S
C394 C42 1.486 . S
C406 C15 1.488 . S
