# Generated by pormake.
# Topology why, (6)-cn, num edge types: 1
# Building blocks:
#     Node 0, Type 0, BuildingBlock: FUNLAD_clean_sbu_0, # of connection points: 6
#     Node 1, Type 0, BuildingBlock: FUNLAD_clean_sbu_0, # of connection points: 6
#     Node 2, Type 0, BuildingBlock: FUNLAD_clean_sbu_0, # of connection points: 6
#     Node 3, Type 0, BuildingBlock: FUNLAD_clean_sbu_0, # of connection points: 6
#     Node 4, Type 0, BuildingBlock: FUNLAD_clean_sbu_0, # of connection points: 6
#     Node 5, Type 0, BuildingBlock: FUNLAD_clean_sbu_0, # of connection points: 6
#     Node 6, Type 0, BuildingBlock: FUNLAD_clean_sbu_0, # of connection points: 6
#     Node 7, Type 0, BuildingBlock: FUNLAD_clean_sbu_0, # of connection points: 6
#     Node 8, Type 0, BuildingBlock: FUNLAD_clean_sbu_0, # of connection points: 6
#     Node 9, Type 0, BuildingBlock: FUNLAD_clean_sbu_0, # of connection points: 6
#     Node 10, Type 0, BuildingBlock: FUNLAD_clean_sbu_0, # of connection points: 6
#     Node 11, Type 0, BuildingBlock: FUNLAD_clean_sbu_0, # of connection points: 6
#     Node 12, Type 0, BuildingBlock: FUNLAD_clean_sbu_0, # of connection points: 6
#     Node 13, Type 0, BuildingBlock: FUNLAD_clean_sbu_0, # of connection points: 6
#     Node 14, Type 0, BuildingBlock: FUNLAD_clean_sbu_0, # of connection points: 6
#     Node 15, Type 0, BuildingBlock: FUNLAD_clean_sbu_0, # of connection points: 6
#     Edge 16, Type (0, 0), BuildingBlock: TEMPAE_clean_linker_10, # of connection points: 2
#     Edge 17, Type (0, 0), BuildingBlock: TEMPAE_clean_linker_10, # of connection points: 2
#     Edge 18, Type (0, 0), BuildingBlock: TEMPAE_clean_linker_10, # of connection points: 2
#     Edge 19, Type (0, 0), BuildingBlock: TEMPAE_clean_linker_10, # of connection points: 2
#     Edge 20, Type (0, 0), BuildingBlock: TEMPAE_clean_linker_10, # of connection points: 2
#     Edge 21, Type (0, 0), BuildingBlock: TEMPAE_clean_linker_10, # of connection points: 2
#     Edge 22, Type (0, 0), BuildingBlock: TEMPAE_clean_linker_10, # of connection points: 2
#     Edge 23, Type (0, 0), BuildingBlock: TEMPAE_clean_linker_10, # of connection points: 2
#     Edge 24, Type (0, 0), BuildingBlock: TEMPAE_clean_linker_10, # of connection points: 2
#     Edge 25, Type (0, 0), BuildingBlock: TEMPAE_clean_linker_10, # of connection points: 2
#     Edge 26, Type (0, 0), BuildingBlock: TEMPAE_clean_linker_10, # of connection points: 2
#     Edge 27, Type (0, 0), BuildingBlock: TEMPAE_clean_linker_10, # of connection points: 2
#     Edge 28, Type (0, 0), BuildingBlock: TEMPAE_clean_linker_10, # of connection points: 2
#     Edge 29, Type (0, 0), BuildingBlock: TEMPAE_clean_linker_10, # of connection points: 2
#     Edge 30, Type (0, 0), BuildingBlock: TEMPAE_clean_linker_10, # of connection points: 2
#     Edge 31, Type (0, 0), BuildingBlock: TEMPAE_clean_linker_10, # of connection points: 2
#     Edge 32, Type (0, 0), BuildingBlock: TEMPAE_clean_linker_10, # of connection points: 2
#     Edge 33, Type (0, 0), BuildingBlock: TEMPAE_clean_linker_10, # of connection points: 2
#     Edge 34, Type (0, 0), BuildingBlock: TEMPAE_clean_linker_10, # of connection points: 2
#     Edge 35, Type (0, 0), BuildingBlock: TEMPAE_clean_linker_10, # of connection points: 2
#     Edge 36, Type (0, 0), BuildingBlock: TEMPAE_clean_linker_10, # of connection points: 2
#     Edge 37, Type (0, 0), BuildingBlock: TEMPAE_clean_linker_10, # of connection points: 2
#     Edge 38, Type (0, 0), BuildingBlock: TEMPAE_clean_linker_10, # of connection points: 2
#     Edge 39, Type (0, 0), BuildingBlock: TEMPAE_clean_linker_10, # of connection points: 2
#     Edge 40, Type (0, 0), BuildingBlock: TEMPAE_clean_linker_10, # of connection points: 2
#     Edge 41, Type (0, 0), BuildingBlock: TEMPAE_clean_linker_10, # of connection points: 2
#     Edge 42, Type (0, 0), BuildingBlock: TEMPAE_clean_linker_10, # of connection points: 2
#     Edge 43, Type (0, 0), BuildingBlock: TEMPAE_clean_linker_10, # of connection points: 2
#     Edge 44, Type (0, 0), BuildingBlock: TEMPAE_clean_linker_10, # of connection points: 2
#     Edge 45, Type (0, 0), BuildingBlock: TEMPAE_clean_linker_10, # of connection points: 2
#     Edge 46, Type (0, 0), BuildingBlock: TEMPAE_clean_linker_10, # of connection points: 2
#     Edge 47, Type (0, 0), BuildingBlock: TEMPAE_clean_linker_10, # of connection points: 2
#     Edge 48, Type (0, 0), BuildingBlock: TEMPAE_clean_linker_10, # of connection points: 2
#     Edge 49, Type (0, 0), BuildingBlock: TEMPAE_clean_linker_10, # of connection points: 2
#     Edge 50, Type (0, 0), BuildingBlock: TEMPAE_clean_linker_10, # of connection points: 2
#     Edge 51, Type (0, 0), BuildingBlock: TEMPAE_clean_linker_10, # of connection points: 2
#     Edge 52, Type (0, 0), BuildingBlock: TEMPAE_clean_linker_10, # of connection points: 2
#     Edge 53, Type (0, 0), BuildingBlock: TEMPAE_clean_linker_10, # of connection points: 2
#     Edge 54, Type (0, 0), BuildingBlock: TEMPAE_clean_linker_10, # of connection points: 2
#     Edge 55, Type (0, 0), BuildingBlock: TEMPAE_clean_linker_10, # of connection points: 2
#     Edge 56, Type (0, 0), BuildingBlock: TEMPAE_clean_linker_10, # of connection points: 2
#     Edge 57, Type (0, 0), BuildingBlock: TEMPAE_clean_linker_10, # of connection points: 2
#     Edge 58, Type (0, 0), BuildingBlock: TEMPAE_clean_linker_10, # of connection points: 2
#     Edge 59, Type (0, 0), BuildingBlock: TEMPAE_clean_linker_10, # of connection points: 2
#     Edge 60, Type (0, 0), BuildingBlock: TEMPAE_clean_linker_10, # of connection points: 2
#     Edge 61, Type (0, 0), BuildingBlock: TEMPAE_clean_linker_10, # of connection points: 2
#     Edge 62, Type (0, 0), BuildingBlock: TEMPAE_clean_linker_10, # of connection points: 2
#     Edge 63, Type (0, 0), BuildingBlock: TEMPAE_clean_linker_10, # of connection points: 2
# Relax obj value: 0.447
# Max RMSD: 0.185
# Mean RMSD: 0.184
data_MOF--net-why--node1-FUNLAD_clean_sbu_0--edge1-TEMPAE_clean_linker_10
_symmetry_space_group_name_H-M    P1
_symmetry_Int_Tables_number       1
_symmetry_cell_setting            triclinic
loop_
_symmetry_equiv_pos_as_xyz
'x, y, z'
_cell_length_a     50.909233
_cell_length_b     50.891842
_cell_length_c     31.826256
_cell_angle_alpha  89.986618
_cell_angle_beta   89.933773
_cell_angle_gamma 89.990275
loop_
_atom_site_label
_atom_site_type_symbol
_atom_site_fract_x
_atom_site_fract_y
_atom_site_fract_z
_atom_type_partial_charge
C0 C 0.32594 0.22323 0.16348 0.0
N1 N 0.36212 0.14981 0.15146 0.0
C2 C 0.36927 0.15314 0.19228 0.0
C3 C 0.37302 0.13137 0.21824 0.0
C4 C 0.36948 0.10599 0.20188 0.0
C5 C 0.36216 0.10322 0.15957 0.0
C6 C 0.35846 0.12548 0.13489 0.0
Zn7 Zn 0.35553 0.18147 0.11434 0.0
C8 C 0.30231 0.17923 0.07826 0.0
N9 N 0.33889 0.24817 0.03872 0.0
C10 C 0.35216 0.27132 0.04168 0.0
C11 C 0.32533 0.24185 0.00326 0.0
C12 C 0.32666 0.25784 0.96788 0.0
C13 C 0.34248 0.28035 0.96853 0.0
C14 C 0.35424 0.28784 0.00663 0.0
Zn15 Zn 0.34586 0.21773 0.0796 0.0
O16 O 0.33515 0.2 0.16367 0.0
C17 C 0.39935 0.21974 0.11741 0.0
O18 O 0.32994 0.238 0.1318 0.0
H19 H 0.31538 0.22319 0.00071 0.0
H20 H 0.37197 0.17272 0.20477 0.0
H21 H 0.36295 0.27598 0.06995 0.0
O22 O 0.39152 0.19823 0.13334 0.0
O23 O 0.38433 0.23213 0.09238 0.0
H24 H 0.35266 0.12332 0.1024 0.0
O25 O 0.36066 0.19656 0.02708 0.0
O26 O 0.37502 0.16304 0.0636 0.0
O27 O 0.30805 0.20275 0.06888 0.0
O28 O 0.31947 0.16471 0.09543 0.0
C29 C 0.37232 0.17455 0.02852 0.0
H30 H 0.37847 0.13438 0.25076 0.0
H31 H 0.35975 0.08403 0.14538 0.0
H32 H 0.31698 0.25158 0.93928 0.0
H33 H 0.36671 0.30505 0.00839 0.0
C34 C 0.52004 0.57894 0.41733 0.0
N35 N 0.59542 0.61075 0.40655 0.0
C36 C 0.59406 0.62369 0.44387 0.0
C37 C 0.61686 0.62867 0.46681 0.0
C38 C 0.64124 0.61989 0.45145 0.0
C39 C 0.6418 0.60556 0.41373 0.0
C40 C 0.61864 0.60147 0.39148 0.0
Zn41 Zn 0.56274 0.60643 0.37062 0.0
C42 C 0.56162 0.55531 0.32736 0.0
N43 N 0.49447 0.59834 0.29378 0.0
C44 C 0.47166 0.61137 0.30204 0.0
C45 C 0.49875 0.58694 0.25563 0.0
C46 C 0.48051 0.5897 0.22336 0.0
C47 C 0.45801 0.60485 0.23008 0.0
C48 C 0.45316 0.61519 0.27016 0.0
Zn49 Zn 0.52629 0.60182 0.33302 0.0
O50 O 0.5427 0.5892 0.42097 0.0
C51 C 0.52767 0.65365 0.37573 0.0
O52 O 0.50701 0.58226 0.38357 0.0
H53 H 0.51723 0.57741 0.24886 0.0
H54 H 0.57536 0.63079 0.45533 0.0
H55 H 0.46859 0.6204 0.33239 0.0
O56 O 0.54982 0.64493 0.38778 0.0
O57 O 0.51301 0.63904 0.3535 0.0
H58 H 0.61934 0.59133 0.36167 0.0
O59 O 0.54639 0.62058 0.28302 0.0
O60 O 0.58313 0.62228 0.31892 0.0
O61 O 0.54045 0.56489 0.313 0.0
O62 O 0.57513 0.56851 0.35327 0.0
C63 C 0.57057 0.62638 0.2852 0.0
H64 H 0.61546 0.64005 0.49545 0.0
H65 H 0.66002 0.59793 0.40107 0.0
H66 H 0.485 0.58192 0.19247 0.0
H67 H 0.43602 0.62725 0.27603 0.0
C68 C 0.17232 0.76824 0.65646 0.0
N69 N 0.13591 0.84187 0.65108 0.0
C70 C 0.1277 0.83863 0.69144 0.0
C71 C 0.12324 0.86049 0.71697 0.0
C72 C 0.12723 0.88583 0.70064 0.0
C73 C 0.13604 0.88848 0.65904 0.0
C74 C 0.14035 0.86616 0.63478 0.0
Zn75 Zn 0.1414 0.81041 0.61307 0.0
C76 C 0.19264 0.81311 0.56975 0.0
N77 N 0.15318 0.74459 0.53249 0.0
C78 C 0.1416 0.72082 0.53899 0.0
C79 C 0.16326 0.75114 0.49425 0.0
C80 C 0.15989 0.73458 0.45995 0.0
C81 C 0.14568 0.7112 0.46475 0.0
C82 C 0.13762 0.70365 0.50522 0.0
Zn83 Zn 0.14844 0.775 0.57394 0.0
O84 O 0.16182 0.79073 0.66089 0.0
C85 C 0.09681 0.77253 0.6183 0.0
O86 O 0.16848 0.75518 0.62291 0.0
H87 H 0.1719 0.77025 0.48917 0.0
H88 H 0.12439 0.81909 0.7037 0.0
H89 H 0.13357 0.71603 0.56951 0.0
O90 O 0.10482 0.79442 0.63259 0.0
O91 O 0.11146 0.75969 0.59328 0.0
H92 H 0.14688 0.86827 0.60262 0.0
O93 O 0.12939 0.79547 0.52507 0.0
O94 O 0.12213 0.83038 0.5634 0.0
O95 O 0.18504 0.79108 0.55561 0.0
O96 O 0.17778 0.82605 0.59414 0.0
C97 C 0.12033 0.81858 0.52842 0.0
H98 H 0.11664 0.8576 0.749 0.0
H99 H 0.1389 0.90763 0.6449 0.0
H100 H 0.16671 0.74091 0.42931 0.0
H101 H 0.12651 0.68576 0.51011 0.0
C102 C 0.97474 0.41689 0.90427 0.0
N103 N 0.90109 0.38077 0.91221 0.0
C104 C 0.90431 0.36771 0.94917 0.0
C105 C 0.88255 0.36192 0.97437 0.0
C106 C 0.85739 0.36995 0.96147 0.0
C107 C 0.85501 0.3847 0.92442 0.0
C108 C 0.87706 0.38953 0.8999 0.0
Zn109 Zn 0.93115 0.38538 0.87068 0.0
C110 C 0.92547 0.43361 0.82078 0.0
N111 N 0.99141 0.39356 0.77944 0.0
C112 C 0.01756 0.39077 0.78691 0.0
C113 C 0.98221 0.39791 0.73996 0.0
C114 C -0.00078 0.39829 0.70584 0.0
C115 C 0.02627 0.39459 0.71203 0.0
C116 C 0.03548 0.39139 0.75346 0.0
Zn117 Zn 0.96323 0.38904 0.82458 0.0
O118 O 0.95421 0.40475 0.91625 0.0
C119 C 0.96916 0.34022 0.87326 0.0
O120 O 0.98343 0.41355 0.86713 0.0
H121 H 0.96137 0.4001 0.73449 0.0
H122 H 0.9236 0.36093 0.95837 0.0
H123 H 0.02445 0.38739 0.8186 0.0
O124 O 0.94712 0.34799 0.88755 0.0
O125 O 0.9817 0.35485 0.84777 0.0
H126 H 0.87472 0.39954 0.87021 0.0
O127 O 0.94206 0.36522 0.78268 0.0
O128 O 0.90759 0.36711 0.82383 0.0
O129 O 0.94443 0.42293 0.8014 0.0
O130 O 0.91613 0.42248 0.85313 0.0
C131 C 0.91813 0.36002 0.78956 0.0
H132 H 0.88528 0.35035 0.00258 0.0
H133 H 0.83612 0.39184 0.9137 0.0
H134 H 0.99087 0.40017 0.67472 0.0
H135 H 0.05619 0.38878 0.75992 0.0
C136 C 0.61271 0.82149 0.95478 0.0
N137 N 0.64534 0.74766 0.96335 0.0
C138 C 0.6489 0.75597 0.00352 0.0
C139 C 0.64794 0.73826 0.03667 0.0
C140 C 0.64382 0.71141 0.02871 0.0
C141 C 0.64183 0.70311 0.98661 0.0
C142 C 0.64243 0.72172 0.95422 0.0
Zn143 Zn 0.64128 0.77642 0.91933 0.0
C144 C 0.59254 0.77085 0.8705 0.0
N145 N 0.63337 0.83876 0.83225 0.0
C146 C 0.6425 0.8626 0.84485 0.0
C147 C 0.61941 0.83609 0.79607 0.0
C148 C 0.61284 0.85825 0.77231 0.0
C149 C 0.62104 0.88323 0.78582 0.0
C150 C 0.63693 0.88504 0.8217 0.0
Zn151 Zn 0.63791 0.80832 0.87311 0.0
O152 O 0.61741 0.79744 0.96166 0.0
C153 C 0.68599 0.81361 0.92351 0.0
O154 O 0.62004 0.83183 0.92048 0.0
H155 H 0.61234 0.81695 0.7866 0.0
H156 H 0.65127 0.77666 0.01021 0.0
H157 H 0.6532 0.86453 0.87397 0.0
O158 O 0.67506 0.79491 0.94321 0.0
O159 O 0.67514 0.82276 0.8908 0.0
H160 H 0.6397 0.71557 0.92199 0.0
O161 O 0.65707 0.78535 0.82703 0.0
O162 O 0.66589 0.75647 0.87657 0.0
O163 O 0.60032 0.79289 0.85631 0.0
O164 O 0.60723 0.75821 0.89565 0.0
C165 C 0.66936 0.765 0.83937 0.0
H166 H 0.649 0.74595 0.06832 0.0
H167 H 0.63909 0.6826 0.97875 0.0
H168 H 0.60045 0.85594 0.74493 0.0
H169 H 0.64426 0.90378 0.83274 0.0
C170 C 0.42297 0.36288 0.71213 0.0
N171 N 0.49571 0.39779 0.71608 0.0
C172 C 0.48829 0.40542 0.75532 0.0
C173 C 0.50491 0.40152 0.78937 0.0
C174 C 0.52927 0.38928 0.78322 0.0
C175 C 0.5375 0.38373 0.74203 0.0
C176 C 0.52024 0.3882 0.70859 0.0
Zn177 Zn 0.46622 0.39378 0.67301 0.0
C178 C 0.47205 0.34405 0.62369 0.0
N179 N 0.4023 0.3825 0.58918 0.0
C180 C 0.37797 0.38698 0.60527 0.0
C181 C 0.4057 0.37509 0.54846 0.0
C182 C 0.38392 0.37165 0.52229 0.0
C183 C 0.35855 0.37599 0.53834 0.0
C184 C 0.35579 0.38379 0.58039 0.0
Zn185 Zn 0.43311 0.38725 0.62898 0.0
O186 O 0.44592 0.3717 0.71797 0.0
C187 C 0.42723 0.43645 0.67842 0.0
O188 O 0.41201 0.36641 0.67675 0.0
H189 H 0.42528 0.3717 0.53638 0.0
H190 H 0.46863 0.41255 0.76103 0.0
H191 H 0.37567 0.39279 0.63773 0.0
O192 O 0.44834 0.42831 0.69503 0.0
O193 O 0.41651 0.42307 0.64955 0.0
H194 H 0.52573 0.38214 0.67722 0.0
O195 O 0.45415 0.40899 0.58291 0.0
O196 O 0.48583 0.41691 0.62827 0.0
O197 O 0.45012 0.35129 0.60845 0.0
O198 O 0.48352 0.35873 0.65024 0.0
C199 C 0.4754 0.42071 0.59246 0.0
H200 H 0.49803 0.40645 0.82063 0.0
H201 H 0.55617 0.37422 0.73607 0.0
H202 H 0.38687 0.36569 0.48996 0.0
H203 H 0.33661 0.38678 0.59435 0.0
C204 C 0.88439 0.16908 0.45151 0.0
N205 N 0.85037 0.24265 0.46288 0.0
C206 C 0.8455 0.23339 0.50219 0.0
C207 C 0.84506 0.25032 0.53638 0.0
C208 C 0.84917 0.27735 0.53039 0.0
C209 C 0.8529 0.28663 0.48909 0.0
C210 C 0.8536 0.26879 0.4556 0.0
Zn211 Zn 0.85453 0.21476 0.41738 0.0
C212 C 0.90329 0.22079 0.36777 0.0
N213 N 0.86247 0.15292 0.32874 0.0
C214 C 0.85807 0.12805 0.34261 0.0
C215 C 0.8694 0.1578 0.28818 0.0
C216 C 0.87258 0.137 0.25991 0.0
C217 C 0.86863 0.11106 0.27375 0.0
C218 C 0.86118 0.10681 0.3157 0.0
Zn219 Zn 0.85869 0.18219 0.3716 0.0
O220 O 0.87732 0.19239 0.45963 0.0
C221 C 0.81055 0.17638 0.42207 0.0
O222 O 0.87909 0.15908 0.4161 0.0
H223 H 0.87272 0.17778 0.27789 0.0
H224 H 0.84287 0.21258 0.50744 0.0
H225 H 0.85254 0.12458 0.37495 0.0
O226 O 0.81983 0.19695 0.43885 0.0
O227 O 0.8229 0.16535 0.3923 0.0
H228 H 0.85734 0.27572 0.42402 0.0
O229 O 0.83697 0.20505 0.32823 0.0
O230 O 0.8311 0.23609 0.37545 0.0
O231 O 0.895 0.1994 0.35179 0.0
O232 O 0.88936 0.23243 0.39526 0.0
C233 C 0.82616 0.22645 0.33948 0.0
H234 H 0.84276 0.24193 0.56742 0.0
H235 H 0.85581 0.30732 0.48276 0.0
H236 H 0.87822 0.14115 0.22778 0.0
H237 H 0.85854 0.08718 0.32815 0.0
C238 C 0.06629 0.62519 0.21004 0.0
N239 N 0.99217 0.59283 0.20423 0.0
C240 C -0.00134 0.58214 0.24204 0.0
C241 C 0.98273 0.5861 0.27695 0.0
C242 C 0.96005 0.6015 0.27318 0.0
C243 C 0.95228 0.60999 0.23309 0.0
C244 C 0.96881 0.6054 0.19867 0.0
Zn245 Zn 0.02266 0.59789 0.16296 0.0
C246 C 0.02073 0.65057 0.12152 0.0
N247 N 0.08965 0.61157 0.08672 0.0
C248 C 0.11395 0.60748 0.10308 0.0
C249 C 0.08635 0.61908 0.04605 0.0
C250 C 0.10814 0.62295 0.02013 0.0
C251 C 0.13351 0.61929 0.03645 0.0
C252 C 0.13621 0.61142 0.07854 0.0
Zn253 Zn 0.0582 0.60583 0.12459 0.0
O254 O 0.0432 0.61602 0.21286 0.0
C255 C 0.06071 0.55379 0.16578 0.0
O256 O 0.07815 0.62409 0.17502 0.0
H257 H 0.06679 0.62213 0.03373 0.0
H258 H 0.01747 0.57274 0.24644 0.0
H259 H 0.11612 0.60135 0.13542 0.0
O260 O 0.03852 0.56102 0.17982 0.0
O261 O 0.07365 0.56905 0.14203 0.0
H262 H 0.96403 0.61389 0.16849 0.0
O263 O 0.03843 0.58658 0.07579 0.0
O264 O 0.00277 0.57878 0.11281 0.0
O265 O 0.04263 0.64285 0.10685 0.0
O266 O 0.0077 0.6353 0.14532 0.0
C267 C 0.01602 0.57578 0.07917 0.0
H268 H 0.98917 0.57893 0.30731 0.0
H269 H 0.93488 0.62197 0.229 0.0
H270 H 0.10513 0.62877 0.98776 0.0
H271 H 0.15535 0.60891 0.09281 0.0
C272 C 0.83076 0.72663 0.66845 0.0
N273 N 0.86745 0.65337 0.65587 0.0
C274 C 0.87491 0.65566 0.69674 0.0
C275 C 0.87823 0.63325 0.72146 0.0
C276 C 0.87381 0.60834 0.70382 0.0
C277 C 0.86618 0.60665 0.66154 0.0
C278 C 0.86305 0.6295 0.63809 0.0
Zn279 Zn 0.86174 0.68578 0.62002 0.0
C280 C 0.80989 0.68387 0.57816 0.0
N281 N 0.84771 0.75375 0.54572 0.0
C282 C 0.85956 0.77738 0.55237 0.0
C283 C 0.83697 0.7477 0.50776 0.0
C284 C 0.84008 0.76451 0.47374 0.0
C285 C 0.85452 0.78769 0.47862 0.0
C286 C 0.86317 0.79487 0.51887 0.0
Zn287 Zn 0.85328 0.7225 0.58523 0.0
O288 O 0.84095 0.70382 0.66948 0.0
C289 C 0.90583 0.72398 0.62664 0.0
O290 O 0.83464 0.7413 0.63661 0.0
H291 H 0.8282 0.72868 0.50247 0.0
H292 H 0.87819 0.6749 0.71018 0.0
H293 H 0.86819 0.78172 0.58262 0.0
O294 O 0.89812 0.70186 0.64057 0.0
O295 O 0.8907 0.73713 0.60284 0.0
H296 H 0.8571 0.62814 0.60555 0.0
O297 O 0.87111 0.70287 0.53357 0.0
O298 O 0.8813 0.66769 0.56947 0.0
O299 O 0.81625 0.70721 0.56861 0.0
O300 O 0.8258 0.66977 0.59891 0.0
C301 C 0.88136 0.68017 0.535 0.0
H302 H 0.884 0.63538 0.75402 0.0
H303 H 0.86308 0.58783 0.64645 0.0
H304 H 0.8331 0.75844 0.44309 0.0
H305 H 0.87452 0.81262 0.52358 0.0
C306 C 0.01447 0.07353 0.9016 0.0
N307 N 0.08799 0.10941 0.90971 0.0
C308 C 0.08481 0.12155 0.94747 0.0
C309 C 0.10662 0.12665 0.97286 0.0
C310 C 0.13172 0.11892 0.95917 0.0
C311 C 0.13406 0.10516 0.92119 0.0
C312 C 0.11198 0.10097 0.89661 0.0
Zn313 Zn 0.05803 0.10513 0.8683 0.0
C314 C 0.06411 0.05684 0.81828 0.0
N315 N -0.0018 0.09675 0.77701 0.0
C316 C 0.97206 0.09955 0.78466 0.0
C317 C 0.00738 0.09229 0.73753 0.0
C318 C 0.99035 0.09185 0.70355 0.0
C319 C 0.96332 0.09563 0.7099 0.0
C320 C 0.95412 0.0989 0.75134 0.0
Zn321 Zn 0.02633 0.10127 0.82186 0.0
O322 O 0.03495 0.08566 0.91369 0.0
C323 C 0.02012 0.1501 0.87108 0.0
O324 O 0.00599 0.07682 0.86437 0.0
H325 H 0.02821 0.09009 0.73196 0.0
H326 H 0.06552 0.12807 0.95722 0.0
H327 H 0.96521 0.103 0.81637 0.0
O328 O 0.04207 0.14233 0.88564 0.0
O329 O 0.00784 0.13556 0.84518 0.0
H330 H 0.11426 0.09168 0.86632 0.0
O331 O 0.04753 0.12513 0.77986 0.0
O332 O 0.08166 0.12367 0.82161 0.0
O333 O 0.04518 0.06728 0.79856 0.0
O334 O 0.07312 0.06817 0.85061 0.0
C335 C 0.07134 0.13061 0.78712 0.0
H336 H 0.104 0.13745 0.00187 0.0
H337 H 0.15294 0.09836 0.90985 0.0
H338 H -0.00133 0.08993 0.67239 0.0
H339 H 0.93342 0.10159 0.75788 0.0
C340 C 0.66383 0.26438 0.17323 0.0
N341 N 0.62888 0.33828 0.15972 0.0
C342 C 0.62083 0.3356 0.20025 0.0
C343 C 0.61619 0.35777 0.22493 0.0
C344 C 0.61963 0.38291 0.2075 0.0
C345 C 0.62812 0.385 0.16561 0.0
C346 C 0.63281 0.36235 0.14231 0.0
Zn347 Zn 0.63507 0.30604 0.12373 0.0
C348 C 0.68806 0.30696 0.08544 0.0
N349 N 0.64924 0.23808 0.04937 0.0
C350 C 0.63607 0.21507 0.05531 0.0
C351 C 0.66103 0.24361 0.01198 0.0
C352 C 0.65759 0.22708 0.97765 0.0
C353 C 0.64159 0.20481 0.98157 0.0
C354 C 0.63197 0.19799 0.02148 0.0
Zn355 Zn 0.64364 0.26943 0.0887 0.0
O356 O 0.65404 0.28736 0.17402 0.0
C357 C 0.59019 0.26889 0.12719 0.0
O358 O 0.66054 0.25001 0.14091 0.0
H359 H 0.67096 0.26213 0.00733 0.0
H360 H 0.61788 0.31622 0.21341 0.0
H361 H 0.62673 0.21106 0.08516 0.0
O362 O 0.59799 0.29074 0.14187 0.0
O363 O 0.60556 0.25562 0.10396 0.0
H364 H 0.63933 0.36402 0.11007 0.0
O365 O 0.62754 0.28966 0.03623 0.0
O366 O 0.61714 0.32469 0.07237 0.0
O367 O 0.68136 0.28392 0.07464 0.0
O368 O 0.67189 0.32133 0.10527 0.0
C369 C 0.6176 0.31251 0.03765 0.0
H370 H 0.60997 0.35524 0.25722 0.0
H371 H 0.63055 0.40392 0.15056 0.0
H372 H 0.66563 0.23279 0.94745 0.0
H373 H 0.61951 0.18094 0.0257 0.0
C374 C 0.48205 0.92119 0.40535 0.0
N375 N 0.40965 0.88177 0.41306 0.0
C376 C 0.41382 0.87432 0.45358 0.0
C377 C 0.39249 0.87019 0.48058 0.0
C378 C 0.3668 0.87388 0.46555 0.0
C379 C 0.36327 0.88177 0.42369 0.0
C380 C 0.38498 0.88567 0.39801 0.0
Zn381 Zn 0.43944 0.88713 0.37138 0.0
C382 C 0.43171 0.93621 0.32206 0.0
N383 N 0.49975 0.89965 0.28059 0.0
C384 C 0.52568 0.89504 0.28768 0.0
C385 C 0.49079 0.90548 0.24144 0.0
C386 C 0.50765 0.90498 0.20712 0.0
C387 C 0.53434 0.89893 0.2128 0.0
C388 C 0.54348 0.89481 0.25408 0.0
Zn389 Zn 0.47155 0.89426 0.32545 0.0
O390 O 0.46081 0.9097 0.41572 0.0
C391 C 0.47919 0.84447 0.37397 0.0
O392 O 0.49215 0.91699 0.3694 0.0
H393 H 0.47013 0.9091 0.23626 0.0
H394 H 0.43365 0.87138 0.46482 0.0
H395 H 0.53239 0.8905 0.3191 0.0
O396 O 0.45791 0.85195 0.39123 0.0
O397 O 0.48974 0.85888 0.34592 0.0
H398 H 0.38205 0.89148 0.36569 0.0
O399 O 0.44989 0.873 0.28134 0.0
O400 O 0.41786 0.86527 0.32563 0.0
O401 O 0.45307 0.92869 0.30551 0.0
O402 O 0.42132 0.9225 0.35093 0.0
C403 C 0.42754 0.86328 0.28905 0.0
H404 H 0.39604 0.86416 0.51271 0.0
H405 H 0.34384 0.88422 0.41041 0.0
H406 H 0.49928 0.90775 0.1762 0.0
H407 H 0.56394 0.89056 0.26027 0.0
C408 C 0.11082 0.32509 0.45414 0.0
N409 N 0.14556 0.25224 0.46617 0.0
C410 C 0.14935 0.26141 0.50582 0.0
C411 C 0.14904 0.24435 0.5399 0.0
C412 C 0.14532 0.2173 0.53345 0.0
C413 C 0.14294 0.20813 0.49185 0.0
C414 C 0.14291 0.22609 0.45849 0.0
Zn415 Zn 0.14126 0.28014 0.42066 0.0
C416 C 0.09282 0.27309 0.37043 0.0
N417 N 0.13287 0.34104 0.33091 0.0
C418 C 0.13753 0.36591 0.34451 0.0
C419 C 0.12523 0.33614 0.29072 0.0
C420 C 0.12151 0.35693 0.2626 0.0
C421 C 0.12563 0.38288 0.27622 0.0
C422 C 0.13389 0.38715 0.31773 0.0
Zn423 Zn 0.13704 0.31181 0.37373 0.0
O424 O 0.11723 0.30158 0.46204 0.0
C425 C 0.18498 0.31885 0.42433 0.0
O426 O 0.11719 0.3353 0.41926 0.0
H427 H 0.12172 0.31616 0.28063 0.0
H428 H 0.15152 0.28224 0.51138 0.0
H429 H 0.14362 0.36938 0.37655 0.0
O430 O 0.17509 0.29938 0.44361 0.0
O431 O 0.17326 0.32811 0.39246 0.0
H432 H 0.14 0.21923 0.42666 0.0
O433 O 0.15781 0.28868 0.32971 0.0
O434 O 0.16593 0.25945 0.37897 0.0
O435 O 0.10056 0.2949 0.35524 0.0
O436 O 0.10712 0.26136 0.39733 0.0
C437 C 0.16967 0.26807 0.34191 0.0
H438 H 0.15037 0.25267 0.57112 0.0
H439 H 0.14046 0.18744 0.48512 0.0
H440 H 0.11529 0.35275 0.23077 0.0
H441 H 0.13672 0.40679 0.33002 0.0
C442 C 0.92796 0.86893 0.21557 0.0
N443 N 0.00153 0.90189 0.20418 0.0
C444 C 0.99554 0.91394 0.24118 0.0
C445 C 0.01225 0.91181 0.2755 0.0
C446 C 0.03517 0.89675 0.27214 0.0
C447 C 0.04229 0.88667 0.23263 0.0
C448 C 0.02501 0.88951 0.19872 0.0
Zn449 Zn 0.9705 0.89531 0.16455 0.0
C450 C 0.97226 0.84197 0.12571 0.0
N451 N 0.90225 0.87938 0.09268 0.0
C452 C 0.87812 0.88427 0.10921 0.0
C453 C 0.90519 0.8704 0.0527 0.0
C454 C 0.88319 0.86592 0.02762 0.0
C455 C 0.85801 0.8707 0.044 0.0
C456 C 0.85564 0.87997 0.08537 0.0
Zn457 Zn 0.93419 0.88637 0.12878 0.0
O458 O 0.95098 0.87841 0.21642 0.0
C459 C 0.93191 0.93918 0.16671 0.0
O460 O 0.91538 0.86889 0.18117 0.0
H461 H 0.92462 0.86674 0.04024 0.0
H462 H 0.97665 0.92316 0.24565 0.0
H463 H 0.87627 0.89145 0.14105 0.0
O464 O 0.95451 0.93247 0.17962 0.0
O465 O 0.91849 0.92324 0.14495 0.0
H466 H 0.02939 0.87991 0.16923 0.0
O467 O 0.95282 0.90489 0.07809 0.0
O468 O 0.98934 0.91327 0.11245 0.0
O469 O 0.95003 0.84938 0.11206 0.0
O470 O 0.98562 0.85754 0.14849 0.0
C471 C 0.9753 0.9157 0.07957 0.0
H472 H 0.00626 0.92016 0.30534 0.0
H473 H 0.05983 0.87486 0.22885 0.0
H474 H 0.88585 0.85893 0.99576 0.0
H475 H 0.83659 0.88342 0.09952 0.0
C476 C 0.37604 0.67446 0.9669 0.0
N477 N 0.34513 0.74922 0.96324 0.0
C478 C 0.33326 0.74382 0.00066 0.0
C479 C 0.33576 0.76104 0.03441 0.0
C480 C 0.35111 0.78364 0.02981 0.0
C481 C 0.36163 0.78978 0.99027 0.0
C482 C 0.35809 0.77229 0.95694 0.0
Zn483 Zn 0.34966 0.71879 0.92192 0.0
C484 C 0.40221 0.72075 0.87835 0.0
N485 N 0.36192 0.65304 0.8425 0.0
C486 C 0.35713 0.62884 0.85882 0.0
C487 C 0.36935 0.65622 0.80174 0.0
C488 C 0.37246 0.63435 0.77572 0.0
C489 C 0.36795 0.60908 0.79199 0.0
C490 C 0.36015 0.60652 0.83412 0.0
Zn491 Zn 0.35719 0.6844 0.88089 0.0
O492 O 0.36631 0.69721 0.97122 0.0
C493 C 0.30527 0.68197 0.92402 0.0
O494 O 0.3762 0.66374 0.93088 0.0
H495 H 0.37293 0.67571 0.78947 0.0
H496 H 0.32365 0.72517 0.00567 0.0
H497 H 0.35113 0.62679 0.89126 0.0
O498 O 0.31261 0.70405 0.9382 0.0
O499 O 0.32034 0.66918 0.89972 0.0
H500 H 0.36738 0.77626 0.92705 0.0
O501 O 0.33763 0.70517 0.83255 0.0
O502 O 0.33159 0.73976 0.87283 0.0
O503 O 0.39387 0.69963 0.86187 0.0
O504 O 0.38773 0.73284 0.90458 0.0
C505 C 0.32799 0.72798 0.83804 0.0
H506 H 0.32777 0.75558 0.06475 0.0
H507 H 0.37372 0.80708 0.98593 0.0
H508 H 0.37833 0.63718 0.74332 0.0
H509 H 0.35701 0.58742 0.84827 0.0
C510 C 0.56494 0.1259 0.71884 0.0
N511 N 0.48943 0.09718 0.70061 0.0
C512 C 0.49207 0.08499 0.7385 0.0
C513 C 0.47322 0.08846 0.7698 0.0
C514 C 0.45182 0.10503 0.76227 0.0
C515 C 0.44844 0.11583 0.72213 0.0
C516 C 0.46747 0.11131 0.69127 0.0
Zn517 Zn 0.52274 0.10123 0.6648 0.0
C518 C 0.52511 0.15464 0.62498 0.0
N519 N 0.59446 0.11333 0.5989 0.0
C520 C 0.61727 0.10417 0.61559 0.0
C521 C 0.594 0.12545 0.56083 0.0
C522 C 0.61723 0.12929 0.53839 0.0
C523 C 0.64115 0.1201 0.55489 0.0
C524 C 0.64085 0.10706 0.59383 0.0
Zn525 Zn 0.56053 0.10863 0.63184 0.0
O526 O 0.54155 0.1172 0.71876 0.0
C527 C 0.55815 0.05558 0.67122 0.0
O528 O 0.57816 0.12544 0.68503 0.0
H529 H 0.57561 0.13244 0.54803 0.0
H530 H 0.50988 0.07445 0.74598 0.0
H531 H 0.61725 0.09466 0.64597 0.0
O532 O 0.53526 0.06315 0.68137 0.0
O533 O 0.5732 0.07107 0.65132 0.0
H534 H 0.46568 0.12088 0.66108 0.0
O535 O 0.54303 0.09063 0.5797 0.0
O536 O 0.50496 0.08435 0.61089 0.0
O537 O 0.54739 0.14647 0.61261 0.0
O538 O 0.51081 0.13959 0.64714 0.0
C539 C 0.51999 0.081 0.57931 0.0
H540 H 0.47655 0.08022 0.80074 0.0
H541 H 0.43216 0.12892 0.71558 0.0
H542 H 0.61645 0.13985 0.50889 0.0
H543 H 0.65863 0.09918 0.60754 0.0
C544 C 0.43756 0.24876 0.10032 0.0
C545 C 0.42644 0.22904 0.12547 0.0
C546 C 0.46413 0.25564 0.10442 0.0
C547 C 0.47987 0.24271 0.13474 0.0
C548 C 0.46846 0.22367 0.16153 0.0
C549 C 0.44191 0.21695 0.15642 0.0
C550 C 0.47562 0.27594 0.07507 0.0
C551 C 0.4845 0.20973 0.19461 0.0
C552 C 0.55269 0.23912 0.11006 0.0
C553 C 0.56263 0.26033 0.13327 0.0
C554 C 0.52589 0.23281 0.11109 0.0
C555 C 0.50861 0.24788 0.13632 0.0
C556 C 0.51869 0.26855 0.16132 0.0
C557 C 0.54558 0.27462 0.15935 0.0
C558 C 0.5159 0.21067 0.08384 0.0
C559 C 0.50093 0.28479 0.18907 0.0
H560 H 0.42576 0.25817 0.07631 0.0
H561 H 0.43342 0.20182 0.17619 0.0
H562 H 0.48564 0.29159 0.09327 0.0
H563 H 0.49062 0.26661 0.05461 0.0
H564 H 0.46046 0.28518 0.05479 0.0
H565 H 0.47218 0.19726 0.21541 0.0
H566 H 0.49943 0.19708 0.17923 0.0
H567 H 0.49521 0.22421 0.21424 0.0
H568 H 0.56569 0.22798 0.08977 0.0
H569 H 0.55311 0.29098 0.1775 0.0
H570 H 0.50213 0.21856 0.05996 0.0
H571 H 0.50484 0.19627 0.10315 0.0
H572 H 0.53204 0.20018 0.06735 0.0
H573 H 0.48713 0.29627 0.16932 0.0
H574 H 0.51212 0.29866 0.2092 0.0
H575 H 0.48893 0.27183 0.20953 0.0
C576 C 0.53566 0.69759 0.40931 0.0
C577 C 0.5201 0.68135 0.38383 0.0
C578 C 0.53017 0.72456 0.41332 0.0
C579 C 0.50882 0.73557 0.39091 0.0
C580 C 0.49255 0.71909 0.36627 0.0
C581 C 0.49828 0.6922 0.36325 0.0
C582 C 0.5477 0.74141 0.44041 0.0
C583 C 0.46966 0.73005 0.34167 0.0
C584 C 0.47897 0.80235 0.41487 0.0
C585 C 0.4898 0.81788 0.38277 0.0
C586 C 0.48608 0.77582 0.41946 0.0
C587 C 0.5042 0.76448 0.39096 0.0
C588 C 0.51617 0.7804 0.35986 0.0
C589 C 0.50896 0.80693 0.35632 0.0
C590 C 0.47322 0.75962 0.45348 0.0
C591 C 0.53548 0.76906 0.32869 0.0
H592 H 0.5525 0.68935 0.42545 0.0
H593 H 0.48615 0.67986 0.34344 0.0
H594 H 0.55893 0.75524 0.4203 0.0
H595 H 0.53573 0.75338 0.46237 0.0
H596 H 0.56187 0.7295 0.45891 0.0
H597 H 0.45833 0.71446 0.32531 0.0
H598 H 0.45617 0.74089 0.36286 0.0
H599 H 0.47694 0.74423 0.31785 0.0
H600 H 0.46428 0.81068 0.43564 0.0
H601 H 0.51745 0.81875 0.33142 0.0
H602 H 0.48816 0.74807 0.47085 0.0
H603 H 0.45935 0.74545 0.43906 0.0
H604 H 0.46218 0.77199 0.47621 0.0
H605 H 0.55135 0.75836 0.3453 0.0
H606 H 0.54451 0.78443 0.30851 0.0
H607 H 0.52529 0.75469 0.30817 0.0
C608 C 0.05428 0.77619 0.65775 0.0
C609 C 0.06971 0.76342 0.62741 0.0
C610 C 0.02764 0.76976 0.66318 0.0
C611 C 0.01607 0.75037 0.63724 0.0
C612 C 0.03179 0.73674 0.60764 0.0
C613 C 0.05844 0.7433 0.60329 0.0
C614 C 0.01166 0.78441 0.69558 0.0
C615 C 0.02019 0.71606 0.57913 0.0
C616 C 0.94987 0.719 0.66117 0.0
C617 C 0.93319 0.7329 0.63397 0.0
C618 C 0.97672 0.72521 0.66403 0.0
C619 C 0.9872 0.74555 0.6387 0.0
C620 C 0.97026 0.76031 0.61246 0.0
C621 C 0.94347 0.75393 0.61064 0.0
C622 C 0.99405 0.70933 0.69292 0.0
C623 C 0.98065 0.78206 0.58475 0.0
H624 H 0.06287 0.79167 0.67669 0.0
H625 H 0.07017 0.73336 0.57971 0.0
H626 H -0.00288 0.79718 0.67959 0.0
H627 H 0.00052 0.7704 0.7155 0.0
H628 H 0.02411 0.79687 0.71615 0.0
H629 H 0.03532 0.70633 0.55933 0.0
H630 H 0.00996 0.70083 0.59795 0.0
H631 H 0.00536 0.7252 0.55819 0.0
H632 H 0.94209 0.7028 0.67946 0.0
H633 H 0.93079 0.76477 0.58949 0.0
H634 H 0.00617 0.72253 0.71275 0.0
H635 H 0.00774 0.69716 0.67401 0.0
H636 H 0.9825 0.69612 0.71371 0.0
H637 H 0.99173 0.79655 0.60376 0.0
H638 H 0.96472 0.79253 0.56775 0.0
H639 H 0.99448 0.77376 0.56126 0.0
C640 C 0.96519 0.29697 0.91071 0.0
C641 C 0.9786 0.31319 0.88214 0.0
C642 C 0.97173 0.27026 0.91495 0.0
C643 C 0.99193 0.25945 0.88967 0.0
C644 C 0.00627 0.27598 0.86216 0.0
C645 C -0.00046 0.30265 0.85893 0.0
C646 C 0.95629 0.25338 0.94515 0.0
C647 C 0.02787 0.26524 0.83447 0.0
C648 C 0.02329 0.19282 0.91012 0.0
C649 C 0.01047 0.17699 0.88039 0.0
C650 C 0.01658 0.21945 0.91505 0.0
C651 C -0.00316 0.23057 0.88929 0.0
C652 C 0.98307 0.21441 0.86055 0.0
C653 C 0.98993 0.18781 0.85665 0.0
C654 C 0.0314 0.23591 0.94655 0.0
C655 C 0.96198 0.22551 0.8323 0.0
H656 H 0.94906 0.30496 0.92893 0.0
H657 H 0.01003 0.31497 0.83676 0.0
H658 H 0.94384 0.23943 0.92725 0.0
H659 H 0.96975 0.24154 0.96495 0.0
H660 H 0.94339 0.26526 0.96594 0.0
H661 H 0.03813 0.28094 0.81659 0.0
H662 H 0.04254 0.25451 0.85366 0.0
H663 H 0.01946 0.25101 0.81175 0.0
H664 H 0.03909 0.18461 0.92878 0.0
H665 H 0.97992 0.17578 0.83358 0.0
H666 H 0.01753 0.24744 0.96615 0.0
H667 H 0.04416 0.25013 0.92973 0.0
H668 H 0.04392 0.22375 0.96749 0.0
H669 H 0.94695 0.23599 0.8512 0.0
H670 H 0.95206 0.21005 0.81348 0.0
H671 H 0.97079 0.24004 0.81042 0.0
C672 C 0.55543 0.73994 0.88457 0.0
C673 C 0.5654 0.76158 0.86236 0.0
C674 C 0.52872 0.73332 0.88263 0.0
C675 C 0.51154 0.74853 0.8575 0.0
C676 C 0.52171 0.76947 0.83312 0.0
C677 C 0.54852 0.77584 0.83599 0.0
C678 C 0.51866 0.71087 0.90922 0.0
C679 C 0.50409 0.78586 0.80544 0.0
C680 C 0.4445 0.71801 0.83818 0.0
C681 C 0.4293 0.72997 0.86965 0.0
C682 C 0.47104 0.7247 0.83253 0.0
C683 C 0.48273 0.74355 0.85932 0.0
C684 C 0.46724 0.75636 0.89013 0.0
C685 C 0.44069 0.74954 0.89475 0.0
C686 C 0.48681 0.71089 0.79893 0.0
C687 C 0.479 0.77647 0.91952 0.0
H688 H 0.56828 0.72877 0.90502 0.0
H689 H 0.55605 0.79254 0.81859 0.0
H690 H 0.50507 0.71856 0.93358 0.0
H691 H 0.5074 0.69683 0.88962 0.0
H692 H 0.53479 0.70004 0.92513 0.0
H693 H 0.51543 0.79946 0.78501 0.0
H694 H 0.49177 0.77304 0.7853 0.0
H695 H 0.4906 0.79766 0.82529 0.0
H696 H 0.43581 0.70299 0.81845 0.0
H697 H 0.42911 0.75888 0.91915 0.0
H698 H 0.50159 0.69787 0.81383 0.0
H699 H 0.49766 0.72541 0.77955 0.0
H700 H 0.47425 0.6988 0.77796 0.0
H701 H 0.49409 0.76696 0.93956 0.0
H702 H 0.46401 0.78565 0.94023 0.0
H703 H 0.48895 0.79218 0.90133 0.0
C704 C 0.47081 0.30126 0.5845 0.0
C705 C 0.48266 0.31751 0.61464 0.0
C706 C 0.4784 0.27484 0.58008 0.0
C707 C 0.49798 0.26438 0.60685 0.0
C708 C 0.51087 0.28103 0.6359 0.0
C709 C 0.50319 0.30741 0.6392 0.0
C710 C 0.46458 0.25784 0.54815 0.0
C711 C 0.53169 0.27063 0.66531 0.0
C712 C 0.49526 0.19262 0.63866 0.0
C713 C 0.51667 0.18202 0.61664 0.0
C714 C 0.48855 0.21922 0.63474 0.0
C715 C 0.50333 0.23561 0.60762 0.0
C716 C 0.5242 0.22479 0.58379 0.0
C717 C 0.53077 0.19814 0.58884 0.0
C718 C 0.46631 0.23002 0.66107 0.0
C719 C 0.54008 0.24154 0.554 0.0
H720 H 0.45505 0.30895 0.56521 0.0
H721 H 0.5125 0.31979 0.66256 0.0
H722 H 0.47906 0.24629 0.52974 0.0
H723 H 0.45161 0.24364 0.56457 0.0
H724 H 0.45242 0.26961 0.52613 0.0
H725 H 0.54107 0.28649 0.684 0.0
H726 H 0.52276 0.25626 0.68732 0.0
H727 H 0.54717 0.26014 0.64739 0.0
H728 H 0.48426 0.18034 0.66025 0.0
H729 H 0.54724 0.19005 0.57152 0.0
H730 H 0.45173 0.24006 0.64078 0.0
H731 H 0.47406 0.24487 0.6834 0.0
H732 H 0.45609 0.21446 0.67931 0.0
H733 H 0.52689 0.25277 0.53286 0.0
H734 H 0.55376 0.22963 0.53454 0.0
H735 H 0.55175 0.25603 0.57211 0.0
C736 C 0.94644 0.21707 0.32979 0.0
C737 C 0.93023 0.23037 0.35851 0.0
C738 C 0.97314 0.22367 0.32548 0.0
C739 C 0.98392 0.24386 0.35075 0.0
C740 C 0.96738 0.25814 0.37831 0.0
C741 C 0.94076 0.25133 0.38168 0.0
C742 C 0.99003 0.20826 0.29526 0.0
C743 C 0.97808 0.27978 0.40592 0.0
C744 C 0.05544 0.24236 0.38426 0.0
C745 C 0.06615 0.26304 0.36065 0.0
C746 C 0.02895 0.2352 0.38002 0.0
C747 C 0.01278 0.24884 0.35111 0.0
C748 C 0.02384 0.26868 0.32539 0.0
C749 C 0.05037 0.27565 0.33062 0.0
C750 C 0.01793 0.21399 0.40817 0.0
C751 C 0.00738 0.28339 0.29376 0.0
H752 H 0.93849 0.20092 0.31163 0.0
H753 H 0.92845 0.26178 0.40391 0.0
H754 H 0.00192 0.22175 0.27553 0.0
H755 H 0.00392 0.19575 0.31315 0.0
H756 H 0.97816 0.19543 0.27439 0.0
H757 H 0.96236 0.29001 0.42381 0.0
H758 H 0.99233 0.2714 0.42863 0.0
H759 H 0.98876 0.29448 0.38667 0.0
H760 H 0.06744 0.23248 0.40753 0.0
H761 H 0.05849 0.29155 0.31204 0.0
H762 H 0.00748 0.19899 0.38923 0.0
H763 H 0.00341 0.22271 0.43015 0.0
H764 H 0.03343 0.20405 0.42689 0.0
H765 H 0.99587 0.26946 0.27428 0.0
H766 H 0.01954 0.29587 0.2727 0.0
H767 H 0.99316 0.29619 0.31046 0.0
C768 C 0.9914 0.68845 0.13907 0.0
C769 C 0.01193 0.67803 0.11479 0.0
C770 C 0.98509 0.71527 0.1373 0.0
C771 C -0.00057 0.73207 0.1102 0.0
C772 C 0.01935 0.72148 0.08417 0.0
C773 C 0.02548 0.6946 0.08695 0.0
C774 C 0.96378 0.72581 0.16575 0.0
C775 C 0.03479 0.73867 0.05441 0.0
C776 C 0.96819 0.79861 0.08911 0.0
C777 C 0.98128 0.81468 0.11817 0.0
C778 C 0.9746 0.77189 0.08493 0.0
C779 C 0.99434 0.7609 0.11082 0.0
C780 C 0.00822 0.77721 0.13921 0.0
C781 C 0.00165 0.80394 0.14234 0.0
C782 C 0.95964 0.75525 0.05383 0.0
C783 C 0.02928 0.7662 0.16759 0.0
H784 H 0.98086 0.67584 0.16077 0.0
H785 H 0.04131 0.68671 0.06796 0.0
H786 H 0.97238 0.74 0.18836 0.0
H787 H 0.94886 0.73656 0.14707 0.0
H788 H 0.95377 0.71 0.18374 0.0
H789 H 0.04806 0.72708 0.0338 0.0
H790 H 0.02126 0.7503 0.03438 0.0
H791 H 0.04681 0.75283 0.0726 0.0
H792 H 0.95252 0.80679 0.07013 0.0
H793 H 0.01181 0.81618 0.16495 0.0
H794 H 0.94744 0.74067 0.07092 0.0
H795 H 0.97348 0.74411 0.0336 0.0
H796 H 0.94657 0.76721 0.03345 0.0
H797 H 0.02049 0.75162 0.1894 0.0
H798 H 0.03909 0.78171 0.18647 0.0
H799 H 0.04439 0.75579 0.14876 0.0
C800 C 0.1777 0.13544 0.95955 0.0
C801 C 0.15571 0.12677 0.98222 0.0
C802 C 0.20081 0.14273 0.97997 0.0
C803 C 0.20184 0.1419 0.02433 0.0
C804 C 0.17969 0.13352 0.04765 0.0
C805 C 0.15681 0.12592 0.02623 0.0
C806 C 0.22406 0.15157 0.95395 0.0
C807 C 0.18013 0.13277 0.09505 0.0
C808 C 0.27148 0.14212 0.06496 0.0
C809 C 0.27585 0.16914 0.06945 0.0
C810 C 0.24679 0.13266 0.05275 0.0
C811 C 0.22608 0.15069 0.04566 0.0
C812 C 0.22997 0.17781 0.05309 0.0
C813 C 0.25493 0.18675 0.06451 0.0
C814 C 0.2434 0.10363 0.04466 0.0
C815 C 0.20822 0.19758 0.04654 0.0
H816 H 0.17677 0.13686 0.9256 0.0
H817 H 0.13989 0.11914 0.04387 0.0
H818 H 0.22884 0.17234 0.96128 0.0
H819 H 0.24161 0.1396 0.96176 0.0
H820 H 0.22035 0.14994 0.91966 0.0
H821 H 0.1613 0.12561 0.10849 0.0
H822 H 0.19623 0.1198 0.10605 0.0
H823 H 0.18414 0.15271 0.10758 0.0
H824 H 0.28764 0.12849 0.06907 0.0
H825 H 0.25817 0.20763 0.06886 0.0
H826 H 0.24182 0.10019 0.01032 0.0
H827 H 0.22501 0.09633 0.0593 0.0
H828 H 0.26017 0.09194 0.05687 0.0
H829 H 0.20444 0.19987 0.01241 0.0
H830 H 0.21326 0.21716 0.05969 0.0
H831 H 0.18972 0.19067 0.06132 0.0
C832 C 0.62859 0.42969 0.227 0.0
C833 C 0.61338 0.40692 0.23197 0.0
C834 C 0.62111 0.45341 0.2458 0.0
C835 C 0.59818 0.4542 0.27088 0.0
C836 C 0.58361 0.43097 0.27816 0.0
C837 C 0.59125 0.40762 0.25828 0.0
C838 C 0.63703 0.47787 0.23712 0.0
C839 C 0.55929 0.43105 0.30537 0.0
C840 C 0.58813 0.51471 0.33837 0.0
C841 C 0.57054 0.5292 0.31367 0.0
C842 C 0.59688 0.48989 0.32536 0.0
C843 C 0.58822 0.47975 0.28639 0.0
C844 C 0.57044 0.49432 0.26139 0.0
C845 C 0.56159 0.51879 0.27557 0.0
C846 C 0.61539 0.47458 0.35317 0.0
C847 C 0.56111 0.48427 0.2193 0.0
H848 H 0.64607 0.42915 0.20756 0.0
H849 H 0.57923 0.39021 0.26205 0.0
H850 H 0.62498 0.49206 0.21898 0.0
H851 H 0.64258 0.48759 0.267 0.0
H852 H 0.65519 0.4736 0.21899 0.0
H853 H 0.55209 0.41086 0.31202 0.0
H854 H 0.56324 0.4411 0.33564 0.0
H855 H 0.54341 0.4421 0.28934 0.0
H856 H 0.59486 0.52267 0.36807 0.0
H857 H 0.54808 0.53005 0.25636 0.0
H858 H 0.63435 0.47145 0.33671 0.0
H859 H 0.60705 0.4549 0.36002 0.0
H860 H 0.61931 0.48477 0.38339 0.0
H861 H 0.57818 0.48107 0.1982 0.0
H862 H 0.54731 0.49809 0.20373 0.0
H863 H 0.55112 0.46506 0.22323 0.0
C864 C 0.3424 0.84526 0.5164 0.0
C865 C 0.34345 0.86814 0.49187 0.0
C866 C 0.31876 0.83719 0.5351 0.0
C867 C 0.29571 0.85219 0.52851 0.0
C868 C 0.2971 0.87624 0.50636 0.0
C869 C 0.32104 0.88405 0.48869 0.0
C870 C 0.31811 0.81174 0.55946 0.0
C871 C 0.27294 0.89277 0.4986 0.0
C872 C 0.231 0.81586 0.52159 0.0
C873 C 0.21898 0.82303 0.55943 0.0
C874 C 0.2561 0.82513 0.51136 0.0
C875 C 0.26969 0.84137 0.54023 0.0
C876 C 0.2579 0.84806 0.57905 0.0
C877 C 0.23246 0.83908 0.58796 0.0
C878 C 0.26789 0.81791 0.46933 0.0
C879 C 0.27212 0.8647 0.61103 0.0
H880 H 0.35962 0.83285 0.51898 0.0
H881 H 0.32193 0.90211 0.47066 0.0
H882 H 0.30653 0.81402 0.58879 0.0
H883 H 0.30841 0.79636 0.54028 0.0
H884 H 0.33816 0.80481 0.56766 0.0
H885 H 0.27779 0.91204 0.48411 0.0
H886 H 0.25942 0.88208 0.47726 0.0
H887 H 0.26222 0.89633 0.5284 0.0
H888 H 0.22055 0.80341 0.4996 0.0
H889 H 0.22329 0.84424 0.6176 0.0
H890 H 0.28685 0.80757 0.47394 0.0
H891 H 0.27201 0.836 0.45098 0.0
H892 H 0.25472 0.80508 0.45053 0.0
H893 H 0.29154 0.85591 0.61832 0.0
H894 H 0.26082 0.86676 0.64074 0.0
H895 H 0.27579 0.88458 0.59799 0.0
C896 C 0.90028 0.58145 0.75409 0.0
C897 C 0.87804 0.58405 0.72851 0.0
C898 C 0.90624 0.55742 0.77338 0.0
C899 C 0.88962 0.53555 0.76658 0.0
C900 C 0.86638 0.53844 0.74273 0.0
C901 C 0.86081 0.56273 0.7241 0.0
C902 C 0.93109 0.55506 0.79896 0.0
C903 C 0.84818 0.51553 0.73488 0.0
C904 C 0.92246 0.46895 0.76705 0.0
C905 C 0.91521 0.45917 0.80654 0.0
C906 C 0.91395 0.49368 0.75358 0.0
C907 C 0.89801 0.50908 0.78045 0.0
C908 C 0.89041 0.49926 0.82023 0.0
C909 C 0.89902 0.47428 0.83277 0.0
C910 C 0.92224 0.50342 0.71071 0.0
C911 C 0.8736 0.51531 0.84974 0.0
H912 H 0.91374 0.59782 0.75742 0.0
H913 H 0.84329 0.56484 0.70507 0.0
H914 H 0.92705 0.54512 0.82931 0.0
H915 H 0.94557 0.54284 0.78169 0.0
H916 H 0.94013 0.57451 0.80543 0.0
H917 H 0.82967 0.52167 0.71926 0.0
H918 H 0.85819 0.5009 0.71455 0.0
H919 H 0.84323 0.50554 0.76484 0.0
H920 H 0.93488 0.45728 0.74659 0.0
H921 H 0.8935 0.46683 0.86344 0.0
H922 H 0.9339 0.52172 0.71395 0.0
H923 H 0.90466 0.50823 0.69162 0.0
H924 H 0.93422 0.48874 0.69335 0.0
H925 H 0.88396 0.53376 0.85809 0.0
H926 H 0.86884 0.50452 0.87913 0.0
H927 H 0.85498 0.52095 0.83406 0.0
C928 C 0.72046 0.8178 0.97833 0.0
C929 C 0.71138 0.82401 0.93801 0.0
C930 C 0.74486 0.82684 0.99236 0.0
C931 C 0.76063 0.84221 0.96519 0.0
C932 C 0.75159 0.84861 0.92445 0.0
C933 C 0.72692 0.83953 0.91138 0.0
C934 C 0.75379 0.81985 0.03624 0.0
C935 C 0.7681 0.86471 0.89459 0.0
C936 C 0.81247 0.88205 0.02109 0.0
C937 C 0.83416 0.86511 0.01898 0.0
C938 C 0.78865 0.87542 0.00194 0.0
C939 C 0.78662 0.85141 0.97984 0.0
C940 C 0.80887 0.83498 0.97539 0.0
C941 C 0.8324 0.84198 0.99522 0.0
C942 C 0.76529 0.89342 0.00729 0.0
C943 C 0.80744 0.80932 0.95167 0.0
H944 H 0.70845 0.80589 -0.00094 0.0
H945 H 0.72001 0.84421 0.88006 0.0
H946 H 0.77232 0.80842 0.03475 0.0
H947 H 0.7579 0.83802 0.05435 0.0
H948 H 0.73893 0.80811 0.05361 0.0
H949 H 0.75804 0.86824 0.86415 0.0
H950 H 0.77294 0.88396 0.90897 0.0
H951 H 0.78695 0.85449 0.88836 0.0
H952 H 0.81394 0.90024 0.03867 0.0
H953 H 0.84904 0.82873 0.99369 0.0
H954 H 0.75033 0.88369 0.02736 0.0
H955 H 0.75597 0.89745 0.97647 0.0
H956 H 0.77074 0.91243 0.02206 0.0
H957 H 0.79509 0.79518 0.96943 0.0
H958 H 0.82714 0.80042 0.94688 0.0
H959 H 0.79807 0.81226 0.92056 0.0
C960 C 0.3563 0.56327 0.77064 0.0
C961 C 0.37272 0.58525 0.76635 0.0
C962 C 0.36296 0.53918 0.75228 0.0
C963 C 0.38635 0.53722 0.7285 0.0
C964 C 0.40191 0.55981 0.72125 0.0
C965 C 0.395 0.58357 0.74055 0.0
C966 C 0.34591 0.51548 0.76075 0.0
C967 C 0.42678 0.5585 0.69542 0.0
C968 C 0.42287 0.47259 0.73041 0.0
C969 C 0.41585 0.4617 0.69163 0.0
C970 C 0.41304 0.49703 0.74293 0.0
C971 C 0.39617 0.51106 0.71562 0.0
C972 C 0.38895 0.50017 0.67643 0.0
C973 C 0.39873 0.47542 0.66501 0.0
C974 C 0.42083 0.50788 0.78531 0.0
C975 C 0.37135 0.51484 0.64633 0.0
H976 H 0.3387 0.56465 0.78971 0.0
H977 H 0.40786 0.60042 0.73721 0.0
H978 H 0.34166 0.50481 0.73115 0.0
H979 H 0.35653 0.5017 0.78175 0.0
H980 H 0.327 0.52087 0.77594 0.0
H981 H 0.43454 0.57835 0.68784 0.0
H982 H 0.44206 0.5476 0.71313 0.0
H983 H 0.42329 0.54772 0.66565 0.0
H984 H 0.43601 0.46194 0.75111 0.0
H985 H 0.39347 0.46709 0.63481 0.0
H986 H 0.40303 0.51218 0.80426 0.0
H987 H 0.43162 0.52665 0.7812 0.0
H988 H 0.43348 0.49409 0.80326 0.0
H989 H 0.35247 0.5198 0.66182 0.0
H990 H 0.36716 0.50335 0.61743 0.0
H991 H 0.38077 0.53365 0.63714 0.0
C992 C 0.66747 0.12501 0.48842 0.0
C993 C 0.66635 0.12503 0.53253 0.0
C994 C 0.6907 0.1316 0.46716 0.0
C995 C 0.71349 0.13772 0.49057 0.0
C996 C 0.71284 0.13667 0.53496 0.0
C997 C 0.68922 0.1307 0.55538 0.0
C998 C 0.69061 0.13295 0.41976 0.0
C999 C 0.73689 0.14275 0.56099 0.0
C1000 C 0.78078 0.13903 0.43926 0.0
C1001 C 0.78518 0.16612 0.43649 0.0
C1002 C 0.7572 0.12933 0.45608 0.0
C1003 C 0.73751 0.14724 0.4691 0.0
C1004 C 0.74147 0.1746 0.46427 0.0
C1005 C 0.76547 0.18372 0.44861 0.0
C1006 C 0.75383 0.10007 0.46162 0.0
C1007 C 0.72066 0.1943 0.47668 0.0
H1008 H 0.6501 0.12014 0.47041 0.0
H1009 H 0.68859 0.13128 0.58939 0.0
H1010 H 0.69421 0.15349 0.40954 0.0
H1011 H 0.70669 0.12075 0.40663 0.0
H1012 H 0.67168 0.12625 0.40614 0.0
H1013 H 0.73382 0.13845 0.59487 0.0
H1014 H 0.75395 0.13115 0.54967 0.0
H1015 H 0.74202 0.16383 0.55765 0.0
H1016 H 0.79617 0.12551 0.42987 0.0
H1017 H 0.76885 0.20469 0.44579 0.0
H1018 H 0.73508 0.09347 0.44741 0.0
H1019 H 0.75291 0.09532 0.49563 0.0
H1020 H 0.77022 0.08875 0.4473 0.0
H1021 H 0.70155 0.18905 0.4622 0.0
H1022 H 0.72587 0.21463 0.46706 0.0
H1023 H 0.71792 0.19398 0.51126 0.0
C1024 C 0.13499 0.42856 0.25143 0.0
C1025 C 0.11963 0.40572 0.24888 0.0
C1026 C 0.12671 0.45205 0.23282 0.0
C1027 C 0.10285 0.45249 0.21012 0.0
C1028 C 0.08854 0.42898 0.20399 0.0
C1029 C 0.09696 0.40586 0.22384 0.0
C1030 C 0.14245 0.47677 0.24028 0.0
C1031 C 0.06337 0.4286 0.17895 0.0
C1032 C 0.06408 0.51584 0.2145 0.0
C1033 C 0.07118 0.52775 0.17655 0.0
C1034 C 0.07424 0.49125 0.22564 0.0
C1035 C 0.09133 0.47804 0.19755 0.0
C1036 C 0.098 0.48968 0.15862 0.0
C1037 C 0.08811 0.51465 0.1488 0.0
C1038 C 0.06707 0.47967 0.26784 0.0
C1039 C 0.11555 0.47579 0.12746 0.0
H1040 H 0.15293 0.42839 0.26973 0.0
H1041 H 0.08492 0.38836 0.22169 0.0
H1042 H 0.14586 0.48737 0.21033 0.0
H1043 H 0.13121 0.49013 0.2612 0.0
H1044 H 0.16175 0.47262 0.25513 0.0
H1045 H 0.05714 0.40826 0.17113 0.0
H1046 H 0.04748 0.43804 0.19744 0.0
H1047 H 0.06564 0.43991 0.14936 0.0
H1048 H 0.05103 0.52604 0.23596 0.0
H1049 H 0.0933 0.52378 0.11914 0.0
H1050 H 0.08513 0.47624 0.28658 0.0
H1051 H 0.05733 0.46037 0.26352 0.0
H1052 H 0.05373 0.49263 0.28613 0.0
H1053 H 0.13538 0.47296 0.14115 0.0
H1054 H 0.11758 0.48689 0.09756 0.0
H1055 H 0.10758 0.45599 0.12038 0.0
C1056 C 0.66733 0.62797 0.51719 0.0
C1057 C 0.66607 0.62693 0.47316 0.0
C1058 C 0.69031 0.63616 0.53764 0.0
C1059 C 0.71261 0.64303 0.51347 0.0
C1060 C 0.71172 0.64133 0.46916 0.0
C1061 C 0.6884 0.63359 0.44955 0.0
C1062 C 0.69055 0.63807 0.58499 0.0
C1063 C 0.73523 0.64829 0.44233 0.0
C1064 C 0.76398 0.69036 0.5536 0.0
C1065 C 0.78437 0.67323 0.56467 0.0
C1066 C 0.74001 0.68067 0.53873 0.0
C1067 C 0.73661 0.65323 0.53407 0.0
C1068 C 0.7569 0.6358 0.54616 0.0
C1069 C 0.78053 0.64603 0.56172 0.0
C1070 C 0.7186 0.69984 0.52684 0.0
C1071 C 0.75407 0.60644 0.54098 0.0
H1072 H 0.65032 0.62251 0.53571 0.0
H1073 H 0.68752 0.63342 0.41554 0.0
H1074 H 0.7069 0.62622 0.59803 0.0
H1075 H 0.69396 0.65876 0.59457 0.0
H1076 H 0.67183 0.63124 0.59925 0.0
H1077 H 0.73186 0.64415 0.40849 0.0
H1078 H 0.73985 0.66948 0.44589 0.0
H1079 H 0.75273 0.63708 0.45282 0.0
H1080 H 0.76681 0.71141 0.55636 0.0
H1081 H 0.79632 0.63276 0.57024 0.0
H1082 H 0.69984 0.69429 0.54221 0.0
H1083 H 0.71534 0.69919 0.49239 0.0
H1084 H 0.72353 0.72035 0.53582 0.0
H1085 H 0.73573 0.59949 0.55618 0.0
H1086 H 0.77094 0.59552 0.55458 0.0
H1087 H 0.75265 0.60156 0.50708 0.0
C1088 C 0.06885 0.02174 0.76437 0.0
C1089 C 0.07507 0.03153 0.80426 0.0
C1090 C 0.07869 -0.00249 0.75078 0.0
C1091 C 0.09488 0.98262 0.77797 0.0
C1092 C 0.1012 0.99234 0.81834 0.0
C1093 C 0.09133 0.01683 0.83094 0.0
C1094 C 0.07177 0.98786 0.70728 0.0
C1095 C 0.11815 0.97678 0.84826 0.0
C1096 C 0.0978 0.91054 0.74968 0.0
C1097 C 0.12089 0.90955 0.72566 0.0
C1098 C 0.08981 0.93396 0.76899 0.0
C1099 C 0.10515 0.9569 0.76371 0.0
C1100 C 0.12916 0.95571 0.74138 0.0
C1101 C 0.13682 0.93197 0.72282 0.0
C1102 C 0.06422 0.93448 0.79304 0.0
C1103 C 0.14602 0.97981 0.73513 0.0
H1104 H 0.05636 0.03309 0.7436 0.0
H1105 H 0.09604 0.02427 0.86195 0.0
H1106 H 0.08995 0.98438 0.68885 0.0
H1107 H 0.0612 0.96885 0.70943 0.0
H1108 H 0.05924 0.00203 0.68986 0.0
H1109 H 0.12126 0.98717 0.87855 0.0
H1110 H 0.10889 0.95748 0.8548 0.0
H1111 H 0.13758 0.97281 0.83376 0.0
H1112 H 0.0853 0.89335 0.75176 0.0
H1113 H 0.15497 0.93115 0.70503 0.0
H1114 H 0.04945 0.94597 0.77517 0.0
H1115 H 0.06686 0.94432 0.82385 0.0
H1116 H 0.05627 0.91444 0.79848 0.0
H1117 H 0.13549 0.99411 0.71491 0.0
H1118 H 0.16516 0.97507 0.72012 0.0
H1119 H 0.14981 0.98961 0.76565 0.0
C1120 C 0.7191 0.34394 0.07224 0.0
C1121 C 0.71438 0.31687 0.07471 0.0
C1122 C 0.74348 0.35349 0.05858 0.0
C1123 C 0.76361 0.33547 0.04796 0.0
C1124 C 0.75941 0.30816 0.0529 0.0
C1125 C 0.73471 0.29917 0.06581 0.0
C1126 C 0.74715 0.38273 0.05311 0.0
C1127 C 0.78058 0.28838 0.04261 0.0
C1128 C 0.81105 0.35405 0.96174 0.0
C1129 C 0.83345 0.36151 0.98444 0.0
C1130 C 0.78812 0.34607 0.98221 0.0
C1131 C 0.78769 0.34486 0.02657 0.0
C1132 C 0.81025 0.352 0.04988 0.0
C1133 C 0.83289 0.36042 0.0285 0.0
C1134 C 0.7644 0.33869 0.95622 0.0
C1135 C 0.81049 0.35054 0.09725 0.0
H1136 H 0.70339 0.35765 0.07927 0.0
H1137 H 0.73121 0.27821 0.06843 0.0
H1138 H 0.76579 0.38922 0.06781 0.0
H1139 H 0.74842 0.38744 0.01912 0.0
H1140 H 0.73069 0.39416 0.06697 0.0
H1141 H 0.77538 0.26828 0.05341 0.0
H1142 H 0.78373 0.28781 0.00813 0.0
H1143 H 0.79947 0.29417 0.05729 0.0
H1144 H 0.81149 0.35409 0.92769 0.0
H1145 H 0.85006 0.36629 0.04626 0.0
H1146 H 0.74711 0.35044 0.96617 0.0
H1147 H 0.75948 0.31769 0.9613 0.0
H1148 H 0.76763 0.34188 0.92207 0.0
H1149 H 0.79479 0.36322 0.11042 0.0
H1150 H 0.82963 0.35676 0.11071 0.0
H1151 H 0.80632 0.33013 0.10756 0.0
C1152 C 0.40165 0.97433 0.33378 0.0
C1153 C 0.41953 0.96091 0.30803 0.0
C1154 C 0.39115 -0.00141 0.32126 0.0
C1155 C 0.39848 0.00928 0.28191 0.0
C1156 C 0.41607 0.99547 0.25546 0.0
C1157 C 0.42653 0.97153 0.26901 0.0
C1158 C 0.37272 0.01303 0.3504 0.0
C1159 C 0.42406 0.00607 0.21296 0.0
C1160 C 0.3586 0.06001 0.22358 0.0
C1161 C 0.3745 0.08236 0.22789 0.0
C1162 C 0.36531 0.03631 0.24317 0.0
C1163 C 0.38826 0.03509 0.26806 0.0
C1164 C 0.4033 0.05805 0.27511 0.0
C1165 C 0.39632 0.08142 0.25469 0.0
C1166 C 0.34883 0.01219 0.23488 0.0
C1167 C 0.42775 0.05753 0.30194 0.0
H1168 H 0.39636 0.96618 0.3641 0.0
H1169 H 0.4402 0.96108 0.2489 0.0
H1170 H 0.38159 0.03207 0.35972 0.0
H1171 H 0.35402 0.01753 0.33406 0.0
H1172 H 0.36827 0.00159 0.37927 0.0
H1173 H 0.43726 0.99242 0.19571 0.0
H1174 H 0.40638 0.0097 0.19345 0.0
H1175 H 0.43432 0.02515 0.2168 0.0
H1176 H 0.34133 0.06081 0.20374 0.0
H1177 H 0.40879 0.09855 0.25805 0.0
H1178 H 0.34443 0.00173 0.26464 0.0
H1179 H 0.35996 -0.00158 0.21451 0.0
H1180 H 0.33001 0.01707 0.21904 0.0
H1181 H 0.42396 0.04707 0.33192 0.0
H1182 H 0.43501 0.07761 0.30913 0.0
H1183 H 0.44351 0.04669 0.28519 0.0
C1184 C 0.22509 0.34581 0.41061 0.0
C1185 C 0.21048 0.32971 0.43774 0.0
C1186 C 0.25004 0.35499 0.42218 0.0
C1187 C 0.26034 0.34815 0.46196 0.0
C1188 C 0.24547 0.33226 0.4897 0.0
C1189 C 0.22078 0.3231 0.47714 0.0
C1190 C 0.26551 0.37164 0.39168 0.0
C1191 C 0.2557 0.32482 0.53265 0.0
C1192 C 0.33284 0.34843 0.48788 0.0
C1193 C 0.33478 0.37113 0.51264 0.0
C1194 C 0.30899 0.3415 0.46885 0.0
C1195 C 0.28662 0.35756 0.47511 0.0
C1196 C 0.28889 0.38133 0.49783 0.0
C1197 C 0.31301 0.3879 0.51611 0.0
C1198 C 0.30735 0.31617 0.4443 0.0
C1199 C 0.26547 0.39898 0.50513 0.0
H1200 H 0.21727 0.3508 0.37996 0.0
H1201 H 0.20951 0.31072 0.49825 0.0
H1202 H 0.27062 0.39074 0.40633 0.0
H1203 H 0.28425 0.36167 0.38369 0.0
H1204 H 0.25453 0.37548 0.36216 0.0
H1205 H 0.24146 0.31271 0.55068 0.0
H1206 H 0.27428 0.31361 0.52945 0.0
H1207 H 0.26014 0.3428 0.55103 0.0
H1208 H 0.34955 0.33533 0.48522 0.0
H1209 H 0.31459 0.40577 0.53447 0.0
H1210 H 0.297 0.31935 0.41406 0.0
H1211 H 0.29585 0.30153 0.46246 0.0
H1212 H 0.32707 0.30777 0.4377 0.0
H1213 H 0.25522 0.40306 0.4751 0.0
H1214 H 0.27111 0.41797 0.51977 0.0
H1215 H 0.25126 0.38893 0.52614 0.0
C1216 C 0.89621 0.08785 0.22009 0.0
C1217 C 0.87397 0.08818 0.24615 0.0
C1218 C 0.90427 0.06458 0.20029 0.0
C1219 C 0.89004 0.04113 0.20754 0.0
C1220 C 0.86648 0.04181 0.23109 0.0
C1221 C 0.85854 0.06544 0.24961 0.0
C1222 C 0.92908 0.06472 0.17425 0.0
C1223 C 0.85083 0.01718 0.23976 0.0
C1224 C 0.90429 0.97794 0.14865 0.0
C1225 C 0.92152 0.96539 0.17649 0.0
C1226 C 0.89449 0.00309 0.15754 0.0
C1227 C 0.90155 0.01544 0.1957 0.0
C1228 C 0.91897 0.00277 0.22387 0.0
C1229 C 0.92905 0.97802 0.21359 0.0
C1230 C 0.87662 0.0164 0.12626 0.0
C1231 C 0.92655 0.01512 0.2653 0.0
H1232 H 0.90827 0.1053 0.21717 0.0
H1233 H 0.84088 0.06578 0.26868 0.0
H1234 H 0.9453 0.05575 0.19256 0.0
H1235 H 0.92651 0.05288 0.14528 0.0
H1236 H 0.93501 0.08498 0.1653 0.0
H1237 H 0.83163 0.02152 0.25487 0.0
H1238 H 0.84722 0.00615 0.2103 0.0
H1239 H 0.86222 0.00414 0.26096 0.0
H1240 H 0.89879 0.96825 0.11962 0.0
H1241 H 0.94235 0.96822 0.2351 0.0
H1242 H 0.88437 0.03616 0.11827 0.0
H1243 H 0.85686 0.01925 0.14026 0.0
H1244 H 0.87448 0.00486 0.09683 0.0
H1245 H 0.93622 0.03434 0.25978 0.0
H1246 H 0.9401 0.0025 0.28377 0.0
H1247 H 0.90868 0.01886 0.2844 0.0
C1248 C 0.15785 0.64688 0.98416 0.0
C1249 C 0.1572 0.62495 0.01086 0.0
C1250 C 0.18125 0.65458 0.96448 0.0
C1251 C 0.20456 0.6403 0.97244 0.0
C1252 C 0.20373 0.61728 0.99728 0.0
C1253 C 0.17996 0.6097 0.01578 0.0
C1254 C 0.18134 0.67893 0.93736 0.0
C1255 C 0.22826 0.60165 0.00671 0.0
C1256 C 0.26661 0.65327 0.90982 0.0
C1257 C 0.27951 0.6713 0.93592 0.0
C1258 C 0.24186 0.64332 0.9208 0.0
C1259 C 0.23023 0.65115 0.95919 0.0
C1260 C 0.24332 0.6692 0.98576 0.0
C1261 C 0.2677 0.67929 0.97353 0.0
C1262 C 0.2281 0.6246 0.89134 0.0
C1263 C 0.23173 0.67763 0.02736 0.0
H1264 H 0.14044 0.65887 0.98027 0.0
H1265 H 0.17943 0.5923 0.03541 0.0
H1266 H 0.19116 0.69519 0.95443 0.0
H1267 H 0.19256 0.67546 0.90797 0.0
H1268 H 0.16114 0.68534 0.92905 0.0
H1269 H 0.22384 0.58294 0.02324 0.0
H1270 H 0.23907 0.59711 0.97733 0.0
H1271 H 0.24153 0.61352 0.02682 0.0
H1272 H 0.27569 0.64729 0.88051 0.0
H1273 H 0.27777 0.69312 0.99383 0.0
H1274 H 0.2086 0.63263 0.88255 0.0
H1275 H 0.22463 0.60552 0.90725 0.0
H1276 H 0.23958 0.62098 0.8622 0.0
H1277 H 0.21248 0.68733 0.02224 0.0
H1278 H 0.24471 0.69144 0.04463 0.0
H1279 H 0.22819 0.66016 0.04747 0.0
C1280 C 0.54897 0.00928 0.69193 0.0
C1281 C 0.5672 0.02902 0.68238 0.0
C1282 C 0.55735 0.98418 0.70402 0.0
C1283 C 0.58457 0.97899 0.70747 0.0
C1284 C 0.60306 -0.00138 0.69666 0.0
C1285 C 0.59413 0.02339 0.68384 0.0
C1286 C 0.53708 0.96353 0.71456 0.0
C1287 C 0.63224 0.99392 0.70066 0.0
C1288 C 0.60466 0.92936 0.78953 0.0
C1289 C 0.61158 0.90753 0.76496 0.0
C1290 C 0.59605 0.95272 0.77105 0.0
C1291 C 0.59363 0.95415 0.72687 0.0
C1292 C 0.59996 0.93208 0.70176 0.0
C1293 C 0.60906 0.90901 0.72113 0.0
C1294 C 0.58961 0.97591 0.7989 0.0
C1295 C 0.59717 0.93289 0.65457 0.0
H1296 H 0.52812 0.01349 0.69016 0.0
H1297 H 0.60826 0.03863 0.67635 0.0
H1298 H 0.54179 0.94478 0.69843 0.0
H1299 H 0.5373 0.95962 0.74885 0.0
H1300 H 0.51693 0.96968 0.70549 0.0
H1301 H 0.644 0.01046 0.68781 0.0
H1302 H 0.63739 0.99131 0.73428 0.0
H1303 H 0.63793 0.97562 0.68405 0.0
H1304 H 0.60576 0.92818 0.82348 0.0
H1305 H 0.61445 0.89227 0.70194 0.0
H1306 H 0.56869 0.98147 0.79504 0.0
H1307 H 0.60163 0.99315 0.78959 0.0
H1308 H 0.59324 0.97173 0.83266 0.0
H1309 H 0.57676 0.93832 0.64596 0.0
H1310 H 0.60203 0.91375 0.63969 0.0
H1311 H 0.61029 0.94819 0.64131 0.0
C1312 C 0.36882 0.16732 0.95147 0.0
C1313 C 0.382 0.16251 0.98935 0.0
C1314 C 0.37794 0.15666 0.91355 0.0
C1315 C 0.40128 0.14156 0.91338 0.0
C1316 C 0.41458 0.13651 0.95165 0.0
C1317 C 0.4045 0.1467 0.98937 0.0
C1318 C 0.36281 0.1619 0.87362 0.0
C1319 C 0.43996 0.12115 0.95254 0.0
C1320 C 0.41959 0.09819 0.82054 0.0
C1321 C 0.43641 0.11482 0.79817 0.0
C1322 C 0.40723 0.10692 0.8575 0.0
C1323 C 0.41268 0.13248 0.87289 0.0
C1324 C 0.42959 0.14933 0.85003 0.0
C1325 C 0.44101 0.14036 0.81263 0.0
C1326 C 0.3887 0.08871 0.8804 0.0
C1327 C 0.4364 0.17648 0.86583 0.0
H1328 H 0.35122 0.17932 0.95153 0.0
H1329 H 0.41473 0.1431 0.01867 0.0
H1330 H 0.37462 0.17451 0.85236 0.0
H1331 H 0.35898 0.14319 0.8568 0.0
H1332 H 0.34376 0.17184 0.87975 0.0
H1333 H 0.44761 0.11856 0.98496 0.0
H1334 H 0.43708 0.10149 0.93827 0.0
H1335 H 0.45505 0.1315 0.93355 0.0
H1336 H 0.41633 0.07835 0.80929 0.0
H1337 H 0.45446 0.15296 0.79547 0.0
H1338 H 0.36964 0.09869 0.88607 0.0
H1339 H 0.39699 0.08352 0.91153 0.0
H1340 H 0.38504 0.07028 0.86264 0.0
H1341 H 0.41832 0.18841 0.86948 0.0
H1342 H 0.45002 0.18702 0.84437 0.0
H1343 H 0.44572 0.17504 0.89726 0.0
C1344 C 0.57369 0.65859 0.22711 0.0
C1345 C 0.58408 0.6369 0.24822 0.0
C1346 C 0.58611 0.6686 0.19123 0.0
C1347 C 0.60875 0.6558 0.17524 0.0
C1348 C 0.619 0.6335 0.19617 0.0
C1349 C 0.60679 0.62461 0.23308 0.0
C1350 C 0.57508 0.69295 0.17059 0.0
C1351 C 0.64236 0.61869 0.17902 0.0
C1352 C 0.61994 0.67322 0.06115 0.0
C1353 C 0.63892 0.69313 0.06449 0.0
C1354 C 0.61149 0.65927 0.0967 0.0
C1355 C 0.62155 0.66604 0.13667 0.0
C1356 C 0.64189 0.68483 0.13996 0.0
C1357 C 0.65078 0.69765 0.10368 0.0
C1358 C 0.59053 0.63851 0.09175 0.0
C1359 C 0.65281 0.69298 0.18211 0.0
H1360 H 0.55608 0.66796 0.23914 0.0
H1361 H 0.61446 0.60755 0.24939 0.0
H1362 H 0.59064 0.70811 0.16758 0.0
H1363 H 0.56818 0.6882 0.13844 0.0
H1364 H 0.55839 0.70143 0.18855 0.0
H1365 H 0.64777 0.60162 0.199 0.0
H1366 H 0.63791 0.61149 0.14689 0.0
H1367 H 0.6596 0.6319 0.17644 0.0
H1368 H 0.61049 0.66944 0.03129 0.0
H1369 H 0.66616 0.71225 0.1065 0.0
H1370 H 0.57139 0.64641 0.10268 0.0
H1371 H 0.59514 0.62102 0.11121 0.0
H1372 H 0.58833 0.63223 0.05851 0.0
H1373 H 0.63735 0.70345 0.20017 0.0
H1374 H 0.67008 0.70618 0.17899 0.0
H1375 H 0.65864 0.67554 0.20076 0.0
C1376 C 0.07644 0.88822 0.31327 0.0
C1377 C 0.04897 0.88822 0.31077 0.0
C1378 C 0.08924 0.87858 0.34922 0.0
C1379 C 0.07415 0.86837 0.38293 0.0
C1380 C 0.04642 0.8686 0.38063 0.0
C1381 C 0.0342 0.87855 0.34466 0.0
C1382 C 0.11887 0.87881 0.35083 0.0
C1383 C 0.02961 0.85753 0.41559 0.0
C1384 C 0.10366 0.81697 0.45485 0.0
C1385 C 0.1086 0.83156 0.49138 0.0
C1386 C 0.09291 0.82884 0.41908 0.0
C1387 C 0.08716 0.85604 0.41971 0.0
C1388 C 0.09243 0.871 0.45626 0.0
C1389 C 0.10297 0.85854 0.49181 0.0
C1390 C 0.08725 0.81214 0.38089 0.0
C1391 C 0.08668 0.90009 0.4579 0.0
H1392 H 0.08786 0.89569 0.2871 0.0
H1393 H 0.01295 0.87796 0.34248 0.0
H1394 H 0.12565 0.88871 0.37993 0.0
H1395 H 0.12637 0.85835 0.35175 0.0
H1396 H 0.12765 0.88896 0.32329 0.0
H1397 H 0.00827 0.86007 0.40949 0.0
H1398 H 0.03372 0.83625 0.41941 0.0
H1399 H 0.03447 0.86723 0.44579 0.0
H1400 H 0.10798 0.79611 0.45425 0.0
H1401 H 0.10696 0.86996 0.51983 0.0
H1402 H 0.09732 0.82039 0.35292 0.0
H1403 H 0.06586 0.81228 0.37424 0.0
H1404 H 0.09367 0.79143 0.38507 0.0
H1405 H 0.09656 0.91025 0.43139 0.0
H1406 H 0.09325 0.90917 0.48783 0.0
H1407 H 0.06527 0.90346 0.4544 0.0
C1408 C 0.83832 0.28948 0.60493 0.0
C1409 C 0.85217 0.29482 0.56764 0.0
C1410 C 0.84535 0.30145 0.64294 0.0
C1411 C 0.86598 0.32002 0.64335 0.0
C1412 C 0.87805 0.32766 0.60517 0.0
C1413 C 0.87129 0.31469 0.56784 0.0
C1414 C 0.8322 0.29254 0.68305 0.0
C1415 C 0.89948 0.34816 0.60414 0.0
C1416 C 0.87999 0.36037 0.74118 0.0
C1417 C 0.90256 0.34781 0.75622 0.0
C1418 C 0.86744 0.35136 0.70467 0.0
C1419 C 0.87735 0.32884 0.68387 0.0
C1420 C 0.89931 0.3153 0.70059 0.0
C1421 C 0.91201 0.32532 0.73613 0.0
C1422 C 0.84467 0.36682 0.68703 0.0
C1423 C 0.90996 0.29071 0.68014 0.0
H1424 H 0.82285 0.27487 0.60493 0.0
H1425 H 0.88222 0.31907 0.53948 0.0
H1426 H 0.84623 0.28048 0.70151 0.0
H1427 H 0.82661 0.3096 0.70277 0.0
H1428 H 0.81439 0.28054 0.67687 0.0
H1429 H 0.90364 0.35501 0.57166 0.0
H1430 H 0.89401 0.36536 0.6237 0.0
H1431 H 0.91781 0.33975 0.61736 0.0
H1432 H 0.87309 0.3781 0.75656 0.0
H1433 H 0.92956 0.31578 0.74797 0.0
H1434 H 0.82811 0.35363 0.6789 0.0
H1435 H 0.85095 0.37671 0.6576 0.0
H1436 H 0.83753 0.38202 0.70933 0.0
H1437 H 0.89388 0.2764 0.67469 0.0
H1438 H 0.92537 0.28112 0.69952 0.0
H1439 H 0.91857 0.29566 0.6491 0.0
C1440 C 0.57857 0.8292 0.0089 0.0
C1441 C 0.60132 0.83758 0.98831 0.0
C1442 C 0.56911 0.84275 0.04412 0.0
C1443 C 0.5835 0.8644 0.06006 0.0
C1444 C 0.60639 0.8731 0.03892 0.0
C1445 C 0.6148 0.85979 0.0027 0.0
C1446 C 0.54411 0.83342 0.06492 0.0
C1447 C 0.6228 0.89541 0.05584 0.0
C1448 C 0.54652 0.9072 0.13732 0.0
C1449 C 0.5513 0.89399 0.17536 0.0
C1450 C 0.55773 0.89851 0.09953 0.0
C1451 C 0.57511 0.87686 0.10006 0.0
C1452 C 0.58224 0.86525 0.13881 0.0
C1453 C 0.56993 0.87364 0.1759 0.0
C1454 C 0.54929 0.91117 0.05879 0.0
C1455 C 0.60156 0.84276 0.14082 0.0
H1456 H 0.56832 0.81192 0.99757 0.0
H1457 H 0.63271 0.86584 0.98696 0.0
H1458 H 0.54866 0.82509 0.09628 0.0
H1459 H 0.53048 0.85017 0.06974 0.0
H1460 H 0.53392 0.81813 0.0461 0.0
H1461 H 0.63867 0.90124 0.03374 0.0
H1462 H 0.61039 0.91282 0.06252 0.0
H1463 H 0.63191 0.88933 0.08598 0.0
H1464 H 0.53293 0.92358 0.1366 0.0
H1465 H 0.57386 0.86309 0.20478 0.0
H1466 H 0.53682 0.8972 0.04096 0.0
H1467 H 0.56656 0.91579 0.03886 0.0
H1468 H 0.53791 0.92951 0.06404 0.0
H1469 H 0.59219 0.82465 0.12857 0.0
H1470 H 0.60825 0.83889 0.17346 0.0
H1471 H 0.61899 0.84691 0.12092 0.0
C1472 C 0.42308 0.34283 0.78347 0.0
C1473 C 0.40905 0.34998 0.74732 0.0
C1474 C 0.41032 0.33206 0.81843 0.0
C1475 C 0.38276 0.32851 0.81743 0.0
C1476 C 0.36843 0.33555 0.781 0.0
C1477 C 0.38179 0.3461 0.74619 0.0
C1478 C 0.42638 0.32446 0.85645 0.0
C1479 C 0.33901 0.33213 0.77898 0.0
C1480 C 0.35733 0.27767 0.89402 0.0
C1481 C 0.34992 0.29326 0.92844 0.0
C1482 C 0.36701 0.28898 0.85703 0.0
C1483 C 0.36931 0.31661 0.85425 0.0
C1484 C 0.36098 0.33257 0.88825 0.0
C1485 C 0.35153 0.32067 0.92516 0.0
C1486 C 0.37604 0.27125 0.82177 0.0
C1487 C 0.36296 0.36213 0.88622 0.0
H1488 H 0.44417 0.34571 0.78456 0.0
H1489 H 0.37083 0.35179 0.71846 0.0
H1490 H 0.41935 0.33533 0.8845 0.0
H1491 H 0.42393 0.30319 0.86307 0.0
H1492 H 0.44765 0.3286 0.85217 0.0
H1493 H 0.33071 0.33893 0.7486 0.0
H1494 H 0.33384 0.31113 0.78341 0.0
H1495 H 0.32954 0.34327 0.80485 0.0
H1496 H 0.35666 0.25644 0.89663 0.0
H1497 H 0.34573 0.33276 0.95163 0.0
H1498 H 0.39766 0.27285 0.81812 0.0
H1499 H 0.36708 0.27742 0.7916 0.0
H1500 H 0.37101 0.25032 0.82757 0.0
H1501 H 0.38393 0.36804 0.88565 0.0
H1502 H 0.35331 0.37177 0.91348 0.0
H1503 H 0.35384 0.36954 0.85687 0.0
C1504 C 0.92618 0.11838 0.67309 0.0
C1505 C 0.94583 0.09904 0.67285 0.0
C1506 C 0.91362 0.12593 0.63581 0.0
C1507 C 0.92148 0.11444 0.59731 0.0
C1508 C 0.9397 0.09349 0.59724 0.0
C1509 C 0.95121 0.08565 0.63519 0.0
C1510 C 0.89341 0.14763 0.63729 0.0
C1511 C 0.94884 0.08092 0.5568 0.0
C1512 C 0.88279 0.13055 0.49877 0.0
C1513 C 0.89591 0.15311 0.48491 0.0
C1514 C 0.89101 0.1174 0.53519 0.0
C1515 C 0.91333 0.12669 0.55711 0.0
C1516 C 0.9274 0.14872 0.54171 0.0
C1517 C 0.91812 0.16206 0.50622 0.0
C1518 C 0.87495 0.09462 0.55149 0.0
C1519 C 0.9518 0.15871 0.56342 0.0
H1520 H 0.92174 0.12893 0.7018 0.0
H1521 H 0.96566 0.07001 0.63486 0.0
H1522 H 0.90223 0.16611 0.62534 0.0
H1523 H 0.8764 0.14284 0.6169 0.0
H1524 H 0.88618 0.15119 0.66975 0.0
H1525 H 0.96044 0.06278 0.56249 0.0
H1526 H 0.93192 0.076 0.53636 0.0
H1527 H 0.96134 0.09507 0.53932 0.0
H1528 H 0.86524 0.1241 0.48245 0.0
H1529 H 0.92803 0.17966 0.49532 0.0
H1530 H 0.8649 0.10057 0.58095 0.0
H1531 H 0.88775 0.07767 0.5592 0.0
H1532 H 0.85984 0.08816 0.52854 0.0
H1533 H 0.94654 0.16684 0.59465 0.0
H1534 H 0.96184 0.17433 0.54503 0.0
H1535 H 0.96584 0.14235 0.56866 0.0
C1536 C 0.13721 0.66966 0.42424 0.0
C1537 C 0.13612 0.69711 0.42702 0.0
C1538 C 0.12708 0.65654 0.38893 0.0
C1539 C 0.11531 0.67127 0.35618 0.0
C1540 C 0.11422 0.69898 0.35892 0.0
C1541 C 0.12466 0.71153 0.39424 0.0
C1542 C 0.12871 0.62696 0.38683 0.0
C1543 C 0.10151 0.71539 0.32497 0.0
C1544 C 0.10582 0.6433 0.24672 0.0
C1545 C 0.07914 0.63647 0.24755 0.0
C1546 C 0.11811 0.65387 0.28236 0.0
C1547 C 0.1033 0.65789 0.31949 0.0
C1548 C 0.07644 0.65074 0.32065 0.0
C1549 C 0.06472 0.64003 0.28472 0.0
C1550 C 0.14683 0.66116 0.2801 0.0
C1551 C 0.0599 0.65499 0.35951 0.0
H1552 H 0.14605 0.65852 0.44958 0.0
H1553 H 0.12323 0.73274 0.39671 0.0
H1554 H 0.10865 0.61847 0.38598 0.0
H1555 H 0.13881 0.62085 0.35749 0.0
H1556 H 0.13939 0.61849 0.41407 0.0
H1557 H 0.10269 0.73678 0.33165 0.0
H1558 H 0.11109 0.71152 0.29427 0.0
H1559 H 0.08052 0.70988 0.32178 0.0
H1560 H 0.11712 0.64039 0.21821 0.0
H1561 H 0.0441 0.63473 0.28566 0.0
H1562 H 0.15776 0.65172 0.30621 0.0
H1563 H 0.14907 0.68272 0.28379 0.0
H1564 H 0.15598 0.65522 0.24985 0.0
H1565 H 0.06912 0.64525 0.38697 0.0
H1566 H 0.03961 0.64729 0.35584 0.0
H1567 H 0.05875 0.67629 0.36667 0.0
C1568 C 0.89532 0.68334 0.45994 0.0
C1569 C 0.89226 0.66819 0.49645 0.0
C1570 C 0.90519 0.6722 0.42285 0.0
C1571 C 0.91191 0.64522 0.4222 0.0
C1572 C 0.90855 0.62974 0.45877 0.0
C1573 C 0.89888 0.64145 0.49557 0.0
C1574 C 0.90883 0.68943 0.38462 0.0
C1575 C 0.91541 0.60087 0.45914 0.0
C1576 C 0.91985 0.61184 0.316 0.0
C1577 C 0.94722 0.61187 0.31151 0.0
C1578 C 0.90798 0.62241 0.35214 0.0
C1579 C 0.92393 0.63355 0.38399 0.0
C1580 C 0.95155 0.63379 0.37933 0.0
C1581 C 0.96283 0.6229 0.34323 0.0
C1582 C 0.87846 0.62171 0.3563 0.0
C1583 C 0.96922 0.64581 0.41226 0.0
H1584 H 0.8902 0.70402 0.46038 0.0
H1585 H 0.89634 0.62959 0.52358 0.0
H1586 H 0.92992 0.69012 0.37588 0.0
H1587 H 0.89805 0.68106 0.35747 0.0
H1588 H 0.90184 0.70985 0.38995 0.0
H1589 H 0.91037 0.5913 0.48948 0.0
H1590 H 0.90487 0.59055 0.43349 0.0
H1591 H 0.93675 0.59833 0.45335 0.0
H1592 H 0.90779 0.60338 0.29142 0.0
H1593 H 0.98399 0.62352 0.33938 0.0
H1594 H 0.87067 0.64199 0.35903 0.0
H1595 H 0.87284 0.61108 0.3854 0.0
H1596 H 0.86891 0.61197 0.32907 0.0
H1597 H 0.96412 0.66682 0.41675 0.0
H1598 H 0.99034 0.64444 0.40369 0.0
H1599 H 0.96624 0.63581 0.44286 0.0
C1600 C 0.07728 0.16559 0.73398 0.0
C1601 C 0.08702 0.14328 0.75425 0.0
C1602 C 0.09046 0.17633 0.69938 0.0
C1603 C 0.11328 0.16371 0.68373 0.0
C1604 C 0.12339 0.1413 0.70457 0.0
C1605 C 0.11031 0.13158 0.7402 0.0
C1606 C 0.07954 0.20078 0.6789 0.0
C1607 C 0.14707 0.12677 0.68795 0.0
C1608 C 0.12258 0.17937 0.56861 0.0
C1609 C 0.14126 0.19964 0.5703 0.0
C1610 C 0.1149 0.16591 0.60506 0.0
C1611 C 0.12553 0.17344 0.64433 0.0
C1612 C 0.14563 0.19257 0.64598 0.0
C1613 C 0.15364 0.20502 0.60882 0.0
C1614 C 0.09409 0.14487 0.60186 0.0
C1615 C 0.15719 0.20143 0.68729 0.0
H1616 H 0.05919 0.17449 0.74507 0.0
H1617 H 0.11747 0.11401 0.7557 0.0
H1618 H 0.09525 0.2157 0.67502 0.0
H1619 H 0.07203 0.19594 0.64713 0.0
H1620 H 0.06326 0.20959 0.69742 0.0
H1621 H 0.15384 0.11121 0.7099 0.0
H1622 H 0.14204 0.11747 0.65746 0.0
H1623 H 0.16355 0.14053 0.68202 0.0
H1624 H 0.11271 0.17496 0.53931 0.0
H1625 H 0.16878 0.21994 0.61039 0.0
H1626 H 0.07515 0.15262 0.61392 0.0
H1627 H 0.09942 0.12758 0.62133 0.0
H1628 H 0.09111 0.13829 0.56892 0.0
H1629 H 0.14214 0.21262 0.70513 0.0
H1630 H 0.17465 0.21423 0.68286 0.0
H1631 H 0.1629 0.18432 0.70681 0.0
C1632 C 0.53056 0.36577 0.85169 0.0
C1633 C 0.54408 0.37928 0.81992 0.0
C1634 C 0.54382 0.35537 0.88636 0.0
C1635 C 0.57134 0.35855 0.88941 0.0
C1636 C 0.5852 0.37211 0.85743 0.0
C1637 C 0.57138 0.38223 0.82282 0.0
C1638 C 0.52835 0.34081 0.91958 0.0
C1639 C 0.61456 0.3759 0.85986 0.0
C1640 C 0.59832 0.3509 -0.00038 0.0
C1641 C 0.60691 0.32472 -0.00082 0.0
C1642 C 0.58764 0.36252 0.96352 0.0
C1643 C 0.58537 0.34752 0.92625 0.0
C1644 C 0.59454 0.32128 0.92533 0.0
C1645 C 0.60528 0.31021 0.9618 0.0
C1646 C 0.57811 0.39059 0.96561 0.0
C1647 C 0.59226 0.30461 0.88624 0.0
H1648 H 0.50952 0.36288 0.84906 0.0
H1649 H 0.58184 0.39264 0.79824 0.0
H1650 H 0.53578 0.32039 0.92253 0.0
H1651 H 0.53097 0.35044 0.95055 0.0
H1652 H 0.50702 0.34004 0.91236 0.0
H1653 H 0.62238 0.38702 0.83253 0.0
H1654 H 0.61969 0.38663 0.88907 0.0
H1655 H 0.62452 0.35653 0.86127 0.0
H1656 H 0.59974 0.3623 0.0283 0.0
H1657 H 0.61198 0.28999 0.96117 0.0
H1658 H 0.55647 0.3911 0.96168 0.0
H1659 H 0.58678 0.40226 0.9396 0.0
H1660 H 0.58314 0.40017 0.99591 0.0
H1661 H 0.57123 0.30142 0.87867 0.0
H1662 H 0.60186 0.28513 0.88991 0.0
H1663 H 0.60125 0.31486 0.85904 0.0
C1664 C 0.38652 0.79653 0.07861 0.0
C1665 C 0.35996 0.79772 0.06759 0.0
C1666 C 0.39536 0.80706 0.11664 0.0
C1667 C 0.37724 0.81966 0.14373 0.0
C1668 C 0.35039 0.82132 0.13236 0.0
C1669 C 0.34195 0.80988 0.09455 0.0
C1670 C 0.42406 0.80444 0.128 0.0
C1671 C 0.33071 0.83528 0.15996 0.0
C1672 C 0.39994 0.82821 0.25653 0.0
C1673 C 0.41211 0.85277 0.25404 0.0
C1674 C 0.38763 0.81735 0.22104 0.0
C1675 C 0.38689 0.83193 0.18305 0.0
C1676 C 0.3978 0.85746 0.1815 0.0
C1677 C 0.4107 0.86738 0.21685 0.0
C1678 C 0.3768 0.7898 0.22348 0.0
C1679 C 0.39679 0.87392 0.14201 0.0
H1680 H 0.40026 0.78657 0.05796 0.0
H1681 H 0.32136 0.81045 0.08595 0.0
H1682 H 0.43316 0.82418 0.1304 0.0
H1683 H 0.42606 0.79484 0.15915 0.0
H1684 H 0.43523 0.79278 0.10449 0.0
H1685 H 0.31063 0.83509 0.14631 0.0
H1686 H 0.33001 0.82589 0.19139 0.0
H1687 H 0.33685 0.85599 0.16467 0.0
H1688 H 0.40119 0.81703 0.28547 0.0
H1689 H 0.4199 0.88658 0.21536 0.0
H1690 H 0.38869 0.77662 0.20319 0.0
H1691 H 0.35635 0.78923 0.21156 0.0
H1692 H 0.37706 0.78194 0.25605 0.0
H1693 H 0.40977 0.86517 0.11774 0.0
H1694 H 0.40323 0.89447 0.14766 0.0
H1695 H 0.37656 0.87422 0.12909 0.0
C1696 C 0.07575 0.33096 0.50712 0.0
C1697 C 0.09815 0.34069 0.48706 0.0
C1698 C 0.06542 0.34364 0.54251 0.0
C1699 C 0.07855 0.36588 0.55913 0.0
C1700 C 0.10098 0.37605 0.5384 0.0
C1701 C 0.1103 0.3635 0.50203 0.0
C1702 C 0.04094 0.33269 0.56288 0.0
C1703 C 0.11602 0.39912 0.55595 0.0
C1704 C 0.03842 0.40494 0.63729 0.0
C1705 C 0.04385 0.39147 0.67487 0.0
C1706 C 0.05054 0.39775 0.59944 0.0
C1707 C 0.06937 0.37734 0.59946 0.0
C1708 C 0.07704 0.36565 0.6379 0.0
C1709 C 0.06392 0.37256 0.67507 0.0
C1710 C 0.04157 0.41049 0.55907 0.0
C1711 C 0.0978 0.34446 0.63938 0.0
H1712 H 0.06656 0.31319 0.49539 0.0
H1713 H 0.12798 0.37059 0.48673 0.0
H1714 H 0.0459 0.3243 0.59405 0.0
H1715 H 0.02636 0.34858 0.56806 0.0
H1716 H 0.03167 0.31704 0.5436 0.0
H1717 H 0.13127 0.40633 0.53378 0.0
H1718 H 0.10256 0.41556 0.56364 0.0
H1719 H 0.12578 0.39314 0.58561 0.0
H1720 H 0.02363 0.42025 0.63696 0.0
H1721 H 0.06837 0.36192 0.70367 0.0
H1722 H 0.0299 0.39612 0.54066 0.0
H1723 H 0.05862 0.4163 0.53945 0.0
H1724 H 0.02921 0.42811 0.56487 0.0
H1725 H 0.0897 0.32595 0.62633 0.0
H1726 H 0.10456 0.34057 0.67197 0.0
H1727 H 0.11501 0.35004 0.6199 0.0
C1728 C 0.8903 0.84892 0.25495 0.0
C1729 C 0.91603 0.85874 0.25469 0.0
C1730 C 0.87903 0.83914 0.29207 0.0
C1731 C 0.8939 0.83913 0.32965 0.0
C1732 C 0.91969 0.84947 0.32974 0.0
C1733 C 0.93043 0.85917 0.29229 0.0
C1734 C 0.85146 0.82825 0.29086 0.0
C1735 C 0.93624 0.84962 0.36912 0.0
C1736 C 0.86019 0.82841 0.43505 0.0
C1737 C 0.8642 0.80145 0.44083 0.0
C1738 C 0.86942 0.84102 0.39858 0.0
C1739 C 0.88337 0.8263 0.36801 0.0
C1740 C 0.88776 0.79913 0.37424 0.0
C1741 C 0.87799 0.78704 0.41046 0.0
C1742 C 0.86421 0.86997 0.39265 0.0
C1743 C 0.90298 0.78284 0.34285 0.0
H1744 H 0.87901 0.8487 0.2261 0.0
H1745 H 0.95028 0.86688 0.29246 0.0
H1746 H 0.85191 0.80684 0.29737 0.0
H1747 H 0.83926 0.83754 0.31567 0.0
H1748 H 0.84186 0.83143 0.25995 0.0
H1749 H 0.95539 0.85969 0.36441 0.0
H1750 H 0.92556 0.85954 0.39504 0.0
H1751 H 0.9401 0.82913 0.37933 0.0
H1752 H 0.84954 0.83946 0.45868 0.0
H1753 H 0.88146 0.76624 0.41542 0.0
H1754 H 0.85331 0.87322 0.36293 0.0
H1755 H 0.88307 0.88077 0.39003 0.0
H1756 H 0.85268 0.87847 0.419 0.0
H1757 H 0.89323 0.7836 0.31172 0.0
H1758 H 0.90471 0.76194 0.3526 0.0
H1759 H 0.92303 0.79101 0.33887 0.0
C1760 C 0.37274 0.66385 0.04266 0.0
C1761 C 0.38587 0.66062 0.00429 0.0
C1762 C 0.38242 0.65246 0.07957 0.0
C1763 C 0.40628 0.63825 0.07827 0.0
C1764 C 0.41932 0.6344 0.03934 0.0
C1765 C 0.40867 0.64532 0.00253 0.0
C1766 C 0.36753 0.65638 0.12017 0.0
C1767 C 0.44517 0.61994 0.03693 0.0
C1768 C 0.44636 0.63913 0.17846 0.0
C1769 C 0.44263 0.6136 0.19356 0.0
C1770 C 0.43483 0.64726 0.14072 0.0
C1771 C 0.41868 0.62955 0.11815 0.0
C1772 C 0.41429 0.60388 0.13397 0.0
C1773 C 0.42674 0.59603 0.17132 0.0
C1774 C 0.44041 0.67462 0.12454 0.0
C1775 C 0.39662 0.58475 0.11136 0.0
H1776 H 0.35488 0.67545 0.04381 0.0
H1777 H 0.41881 0.64295 0.97279 0.0
H1778 H 0.36504 0.63734 0.13671 0.0
H1779 H 0.37884 0.66952 0.14125 0.0
H1780 H 0.34784 0.66521 0.11495 0.0
H1781 H 0.45201 0.61733 0.00403 0.0
H1782 H 0.46036 0.63106 0.0545 0.0
H1783 H 0.44346 0.60034 0.05189 0.0
H1784 H 0.45912 0.65244 0.19553 0.0
H1785 H 0.42422 0.57619 0.18305 0.0
H1786 H 0.42185 0.68591 0.12198 0.0
H1787 H 0.4491 0.67352 0.0926 0.0
H1788 H 0.45409 0.68562 0.14525 0.0
H1789 H 0.37691 0.59361 0.10671 0.0
H1790 H 0.39434 0.56598 0.12881 0.0
H1791 H 0.40472 0.58038 0.07976 0.0
C1792 C 0.62186 0.20683 0.91024 0.0
C1793 C 0.63176 0.19153 0.9433 0.0
C1794 C 0.61129 0.19517 0.87425 0.0
C1795 C 0.61068 0.16746 0.87107 0.0
C1796 C 0.62072 0.15183 0.90424 0.0
C1797 C 0.63099 0.16409 0.94024 0.0
C1798 C 0.60046 0.21255 0.83986 0.0
C1799 C 0.62053 0.12222 0.90169 0.0
C1800 C 0.56117 0.13976 0.79395 0.0
C1801 C 0.57677 0.13587 0.75812 0.0
C1802 C 0.57208 0.14942 0.83132 0.0
C1803 C 0.59929 0.15508 0.83298 0.0
C1804 C 0.61524 0.15064 0.79723 0.0
C1805 C 0.60377 0.14121 0.76014 0.0
C1806 C 0.55438 0.15419 0.86866 0.0
C1807 C 0.64435 0.15633 0.79793 0.0
H1808 H 0.62183 0.22808 0.91294 0.0
H1809 H 0.63857 0.15227 0.96585 0.0
H1810 H 0.6109 0.20861 0.8099 0.0
H1811 H 0.57939 0.20806 0.83468 0.0
H1812 H 0.60238 0.23378 0.84735 0.0
H1813 H 0.62951 0.11292 0.9298 0.0
H1814 H 0.60006 0.11503 0.89852 0.0
H1815 H 0.63142 0.11567 0.87334 0.0
H1816 H 0.5403 0.13561 0.79264 0.0
H1817 H 0.61599 0.13801 0.7327 0.0
H1818 H 0.55408 0.17547 0.87627 0.0
H1819 H 0.56205 0.14375 0.89668 0.0
H1820 H 0.5339 0.1476 0.86287 0.0
H1821 H 0.64762 0.1777 0.8024 0.0
H1822 H 0.6543 0.15015 0.76846 0.0
H1823 H 0.65374 0.14608 0.82477 0.0
C1824 C 0.2906 0.20984 0.21248 0.0
C1825 C 0.3058 0.23012 0.19501 0.0
C1826 C 0.26838 0.2153 0.23683 0.0
C1827 C 0.26167 0.2417 0.24529 0.0
C1828 C 0.27763 0.26232 0.22952 0.0
C1829 C 0.29928 0.25629 0.20374 0.0
C1830 C 0.25144 0.19278 0.25188 0.0
C1831 C 0.27155 0.2907 0.23924 0.0
C1832 C 0.19092 0.25812 0.27302 0.0
C1833 C 0.19188 0.25812 0.31696 0.0
C1834 C 0.21342 0.25229 0.24922 0.0
C1835 C 0.23759 0.24756 0.26999 0.0
C1836 C 0.2386 0.24764 0.3144 0.0
C1837 C 0.21559 0.25243 0.33736 0.0
C1838 C 0.21139 0.25139 0.20191 0.0
C1839 C 0.26412 0.2435 0.33765 0.0
H1840 H 0.2952 0.18954 0.2052 0.0
H1841 H 0.3109 0.27197 0.1901 0.0
H1842 H 0.24963 0.19323 0.28659 0.0
H1843 H 0.23134 0.19479 0.23878 0.0
H1844 H 0.25942 0.17333 0.24246 0.0
H1845 H 0.28715 0.30418 0.22777 0.0
H1846 H 0.2527 0.29636 0.22435 0.0
H1847 H 0.26922 0.29344 0.27364 0.0
H1848 H 0.17262 0.26285 0.25736 0.0
H1849 H 0.21649 0.25315 0.37139 0.0
H1850 H 0.21876 0.23225 0.19006 0.0
H1851 H 0.22386 0.26696 0.18786 0.0
H1852 H 0.1909 0.25417 0.1908 0.0
H1853 H 0.27236 0.22389 0.3301 0.0
H1854 H 0.26167 0.24498 0.37226 0.0
H1855 H 0.27875 0.25836 0.32741 0.0
C1856 C 0.48615 0.55137 0.45424 0.0
C1857 C 0.51246 0.5581 0.44726 0.0
C1858 C 0.47961 0.5293 0.47879 0.0
C1859 C 0.4999 0.51307 0.49493 0.0
C1860 C 0.52645 0.51983 0.48778 0.0
C1861 C 0.53237 0.54249 0.46479 0.0
C1862 C 0.45107 0.52321 0.48717 0.0
C1863 C 0.54866 0.50265 0.50319 0.0
C1864 C 0.48902 0.46717 0.58709 0.0
C1865 C 0.48401 0.44322 0.56691 0.0
C1866 C 0.49329 0.49021 0.56399 0.0
C1867 C 0.49363 0.48904 0.51959 0.0
C1868 C 0.48926 0.46472 0.499 0.0
C1869 C 0.48384 0.44214 0.52298 0.0
C1870 C 0.49694 0.51587 0.58712 0.0
C1871 C 0.49045 0.46252 0.45174 0.0
H1872 H 0.47076 0.56328 0.4404 0.0
H1873 H 0.55279 0.54722 0.45865 0.0
H1874 H 0.44571 0.5043 0.47217 0.0
H1875 H 0.44769 0.52098 0.52145 0.0
H1876 H 0.4378 0.53877 0.475 0.0
H1877 H 0.56824 0.51025 0.49366 0.0
H1878 H 0.54812 0.50119 0.53794 0.0
H1879 H 0.54638 0.48245 0.49056 0.0
H1880 H 0.48836 0.46814 0.62113 0.0
H1881 H 0.47958 0.42365 0.5075 0.0
H1882 H 0.48259 0.53061 0.57556 0.0
H1883 H 0.51686 0.52382 0.58096 0.0
H1884 H 0.49439 0.51367 0.62162 0.0
H1885 H 0.47521 0.47519 0.43731 0.0
H1886 H 0.48747 0.44203 0.44071 0.0
H1887 H 0.5098 0.46957 0.44022 0.0
C1888 C 0.19732 0.73907 0.70586 0.0
C1889 C 0.19526 0.76224 0.68258 0.0
C1890 C 0.21985 0.73422 0.7303 0.0
C1891 C 0.24089 0.75255 0.72987 0.0
C1892 C 0.23903 0.77554 0.70513 0.0
C1893 C 0.21606 0.78027 0.68233 0.0
C1894 C 0.221 0.70974 0.75702 0.0
C1895 C 0.26126 0.79515 0.70264 0.0
C1896 C 0.28783 0.75399 0.82229 0.0
C1897 C 0.30834 0.73794 0.80789 0.0
C1898 C 0.26579 0.75896 0.79713 0.0
C1899 C 0.26458 0.74817 0.75619 0.0
C1900 C 0.28593 0.73325 0.74055 0.0
C1901 C 0.30744 0.72802 0.76682 0.0
C1902 C 0.24329 0.77473 0.81507 0.0
C1903 C 0.28572 0.72219 0.69654 0.0
H1904 H 0.18122 0.72515 0.7056 0.0
H1905 H 0.2145 0.79797 0.66349 0.0
H1906 H 0.23815 0.69759 0.74783 0.0
H1907 H 0.22367 0.71523 0.7905 0.0
H1908 H 0.20294 0.69763 0.75416 0.0
H1909 H 0.25728 0.81112 0.67968 0.0
H1910 H 0.26458 0.80413 0.73394 0.0
H1911 H 0.27973 0.7851 0.69343 0.0
H1912 H 0.28821 0.7614 0.85422 0.0
H1913 H 0.32323 0.71554 0.75563 0.0
H1914 H 0.22527 0.76246 0.81594 0.0
H1915 H 0.23906 0.79191 0.79472 0.0
H1916 H 0.24741 0.78191 0.84737 0.0
H1917 H 0.26983 0.7074 0.69359 0.0
H1918 H 0.30466 0.7127 0.68814 0.0
H1919 H 0.28158 0.738 0.67346 0.0
C1920 C 0.02931 0.54124 0.02865 0.0
C1921 C 0.00897 0.55505 0.04871 0.0
C1922 C 0.02424 0.51859 0.00515 0.0
C1923 C -0.00195 0.51 0.00015 0.0
C1924 C 0.97723 0.52449 0.01866 0.0
C1925 C 0.98299 0.54661 0.04355 0.0
C1926 C 0.04707 0.50329 0.98709 0.0
C1927 C 0.94896 0.51641 0.01267 0.0
C1928 C 0.9866 0.46384 0.90854 0.0
C1929 C 0.98381 0.43958 0.9289 0.0
C1930 C 0.99048 0.48701 0.93146 0.0
C1931 C 0.99269 0.4857 0.97572 0.0
C1932 C 0.99077 0.46106 0.99636 0.0
C1933 C 0.98568 0.43831 0.9727 0.0
C1934 C 0.99148 0.51295 0.90842 0.0
C1935 C 0.99402 0.45877 0.04336 0.0
H1936 H 0.04953 0.54731 0.03318 0.0
H1937 H 0.96727 0.55714 0.05923 0.0
H1938 H 0.04694 0.48296 -0.00027 0.0
H1939 H 0.04518 0.50183 0.95247 0.0
H1940 H 0.06633 0.51242 0.99452 0.0
H1941 H 0.93504 0.53093 0.02621 0.0
H1942 H 0.94462 0.51405 0.97871 0.0
H1943 H 0.94547 0.49711 0.02788 0.0
H1944 H 0.98432 0.46491 0.8747 0.0
H1945 H 0.9831 0.41956 0.98835 0.0
H1946 H 0.01089 0.52239 0.9131 0.0
H1947 H 0.97641 0.52649 0.92132 0.0
H1948 H 0.98807 0.51067 0.87413 0.0
H1949 H 0.01313 0.46734 0.05302 0.0
H1950 H 0.99317 0.43805 0.05428 0.0
H1951 H 0.97837 0.47007 0.05954 0.0
C1952 C 0.71656 0.75408 0.83685 0.0
C1953 C 0.69256 0.75625 0.81558 0.0
C1954 C 0.74014 0.75045 0.81487 0.0
C1955 C 0.73955 0.74788 0.77064 0.0
C1956 C 0.7152 0.74918 0.74907 0.0
C1957 C 0.692 0.75403 0.77179 0.0
C1958 C 0.76572 0.75019 0.83888 0.0
C1959 C 0.71371 0.74559 0.70205 0.0
C1960 C 0.80095 0.75891 0.70449 0.0
C1961 C 0.81 0.73311 0.69931 0.0
C1962 C 0.7785 0.76418 0.72892 0.0
C1963 C 0.76435 0.74305 0.74714 0.0
C1964 C 0.77371 0.71706 0.74259 0.0
C1965 C 0.79664 0.71248 0.71941 0.0
C1966 C 0.76962 0.79226 0.7345 0.0
C1967 C 0.75888 0.69392 0.76058 0.0
H1968 H 0.71709 0.75664 0.87068 0.0
H1969 H 0.67345 0.75614 0.75541 0.0
H1970 H 0.77578 0.73105 0.8346 0.0
H1971 H 0.77902 0.76563 0.82644 0.0
H1972 H 0.76283 0.7536 0.87306 0.0
H1973 H 0.69315 0.74581 0.69038 0.0
H1974 H 0.7248 0.76145 0.68606 0.0
H1975 H 0.72295 0.72666 0.69298 0.0
H1976 H 0.81114 0.77488 0.68892 0.0
H1977 H 0.80323 0.6924 0.71509 0.0
H1978 H 0.76652 0.7966 0.76832 0.0
H1979 H 0.75055 0.79526 0.71838 0.0
H1980 H 0.78404 0.80652 0.72159 0.0
H1981 H 0.7567 0.6961 0.79508 0.0
H1982 H 0.76879 0.6749 0.75405 0.0
H1983 H 0.73881 0.69325 0.74704 0.0
C1984 C 0.69658 0.27795 0.22658 0.0
C1985 C 0.68392 0.25753 0.20488 0.0
C1986 C 0.7195 0.27336 0.24963 0.0
C1987 C 0.72951 0.24753 0.25247 0.0
C1988 C 0.71586 0.22649 0.23311 0.0
C1989 C 0.69343 0.23181 0.20881 0.0
C1990 C 0.73381 0.29642 0.26886 0.0
C1991 C 0.72542 0.19852 0.23698 0.0
C1992 C 0.8024 0.23816 0.2735 0.0
C1993 C 0.80251 0.23508 0.31713 0.0
C1994 C 0.77874 0.24278 0.25203 0.0
C1995 C 0.75471 0.24286 0.27468 0.0
C1996 C 0.75483 0.23931 0.31874 0.0
C1997 C 0.77882 0.23602 0.33953 0.0
C1998 C 0.77943 0.24744 0.20519 0.0
C1999 C 0.72962 0.2382 0.34379 0.0
H2000 H 0.68959 0.29797 0.22338 0.0
H2001 H 0.68375 0.216 0.19206 0.0
H2002 H 0.7366 0.29329 0.30304 0.0
H2003 H 0.75362 0.2982 0.25455 0.0
H2004 H 0.72317 0.31527 0.26422 0.0
H2005 H 0.71102 0.1842 0.22424 0.0
H2006 H 0.74418 0.19621 0.21962 0.0
H2007 H 0.72933 0.19365 0.27039 0.0
H2008 H 0.82075 0.23691 0.25631 0.0
H2009 H 0.77893 0.23274 0.37322 0.0
H2010 H 0.76948 0.26626 0.19755 0.0
H2011 H 0.7686 0.23159 0.18875 0.0
H2012 H 0.7998 0.24813 0.1927 0.0
H2013 H 0.71909 0.25722 0.34149 0.0
H2014 H 0.73312 0.23378 0.37752 0.0
H2015 H 0.71647 0.22288 0.33067 0.0
C2016 C 0.00097 0.02701 0.90616 0.0
C2017 C 0.00505 0.05109 0.92649 0.0
C2018 C -0.00296 0.00388 0.92918 0.0
C2019 C 0.99614 0.00509 0.97356 0.0
C2020 C -0.00084 0.02959 0.99422 0.0
C2021 C 0.00422 0.05227 0.97039 0.0
C2022 C 0.99477 0.97806 0.90608 0.0
C2023 C -0.0027 0.03178 0.04144 0.0
C2024 C 0.9607 0.95 0.02972 0.0
C2025 C 0.98155 0.93605 0.04807 0.0
C2026 C 0.96522 0.97252 0.00562 0.0
C2027 C 0.99131 0.9808 -0.00174 0.0
C2028 C 0.01256 0.9661 0.01493 0.0
C2029 C 0.0074 0.94414 0.04049 0.0
C2030 C 0.942 0.9881 0.98963 0.0
C2031 C 0.04067 0.97387 0.00639 0.0
H2032 H 0.00238 0.02599 0.87219 0.0
H2033 H 0.00774 0.07087 0.986 0.0
H2034 H 0.01024 0.96434 0.91711 0.0
H2035 H 0.97554 0.96875 0.91291 0.0
H2036 H -0.00329 0.98044 0.87151 0.0
H2037 H -0.0014 0.05247 0.05238 0.0
H2038 H 0.97845 0.0233 0.05257 0.0
H2039 H 0.01334 0.02036 0.0563 0.0
H2040 H 0.9406 0.9442 0.03619 0.0
H2041 H 0.0235 0.9335 0.05488 0.0
H2042 H 0.94286 0.9898 0.95492 0.0
H2043 H 0.94266 0.00833 0.00259 0.0
H2044 H 0.92292 0.97905 -0.00154 0.0
H2045 H 0.04388 0.97628 0.9721 0.0
H2046 H 0.05486 0.95913 0.01854 0.0
H2047 H 0.04492 0.99306 0.02139 0.0
C2048 C 0.48785 0.05283 0.53993 0.0
C2049 C 0.51374 0.06081 0.54749 0.0
C2050 C 0.48259 0.03065 0.51491 0.0
C2051 C 0.50378 0.01564 0.49871 0.0
C2052 C 0.52989 0.02393 0.50568 0.0
C2053 C 0.53452 0.04666 0.52924 0.0
C2054 C 0.45445 0.02294 0.50665 0.0
C2055 C 0.55305 0.0081 0.49003 0.0
C2056 C 0.49102 0.94369 0.47363 0.0
C2057 C 0.49063 0.94417 0.4297 0.0
C2058 C 0.49578 0.96679 0.4966 0.0
C2059 C 0.49887 0.99098 0.47499 0.0
C2060 C 0.49814 0.99149 0.43058 0.0
C2061 C 0.49457 0.96798 0.40847 0.0
C2062 C 0.49744 0.96534 0.5439 0.0
C2063 C 0.50035 0.01697 0.40644 0.0
H2064 H 0.47177 0.06362 0.55413 0.0
H2065 H 0.55465 0.05239 0.53551 0.0
H2066 H 0.45132 0.01979 0.47251 0.0
H2067 H 0.44999 0.00413 0.52274 0.0
H2068 H 0.44035 0.03806 0.51788 0.0
H2069 H 0.57217 0.01726 0.49826 0.0
H2070 H 0.55241 0.98807 0.50381 0.0
H2071 H 0.55209 0.00586 0.45542 0.0
H2072 H 0.48756 0.92529 0.48991 0.0
H2073 H 0.49345 0.96844 0.37444 0.0
H2074 H 0.48142 0.97711 0.55819 0.0
H2075 H 0.51631 0.97386 0.55479 0.0
H2076 H 0.49595 0.94484 0.5557 0.0
H2077 H 0.48496 0.03089 0.41716 0.0
H2078 H 0.49825 0.01407 0.37201 0.0
H2079 H 0.51963 0.02632 0.41261 0.0
loop_
_geom_bond_atom_site_label_1
_geom_bond_atom_site_label_2
_geom_bond_distance
_geom_bond_site_symmetry_2
_ccdc_geom_bond_type
C0 O16 1.251 . S
C0 O18 1.254 . S
N1 C2 1.333 . S
N1 C6 1.307 . S
N1 Zn7 2.020 . S
C2 N1 1.333 . S
C2 C3 1.379 . S
C2 H20 0.952 . S
C3 C2 1.379 . S
C3 C4 1.390 . S
C3 H30 0.949 . S
C4 C3 1.390 . S
C4 C5 1.357 . S
C5 C4 1.357 . S
C5 C6 1.370 . S
C5 H31 0.950 . S
C6 N1 1.307 . S
C6 C5 1.370 . S
C6 H24 0.948 . S
Zn7 N1 2.020 . S
Zn7 O16 2.039 . S
Zn7 O22 2.034 . S
Zn7 O26 2.025 . S
Zn7 O28 2.024 . S
C8 O27 1.246 . S
C8 O28 1.249 . S
N9 C10 1.307 . S
N9 C11 1.333 1_554 S
N9 Zn15 2.020 . S
C10 N9 1.307 . S
C10 C14 1.370 . S
C10 H21 0.948 . S
C11 N9 1.333 1_556 S
C11 C12 1.379 . S
C11 H19 0.952 . S
C12 C11 1.379 . S
C12 C13 1.390 . S
C12 H32 0.949 . S
C13 C12 1.390 . S
C13 C14 1.357 1_556 S
C14 C10 1.370 . S
C14 C13 1.357 1_554 S
C14 H33 0.950 . S
Zn15 N9 2.020 . S
Zn15 O18 2.025 . S
Zn15 O23 2.024 . S
Zn15 O25 2.039 . S
Zn15 O27 2.034 . S
O16 C0 1.251 . S
O16 Zn7 2.039 . S
C17 O22 1.246 . S
C17 O23 1.249 . S
O18 C0 1.254 . S
O18 Zn15 2.025 . S
H19 C11 0.952 . S
H20 C2 0.952 . S
H21 C10 0.948 . S
O22 Zn7 2.034 . S
O22 C17 1.246 . S
O23 Zn15 2.024 . S
O23 C17 1.249 . S
H24 C6 0.948 . S
O25 Zn15 2.039 . S
O25 C29 1.251 . S
O26 Zn7 2.025 . S
O26 C29 1.254 . S
O27 C8 1.246 . S
O27 Zn15 2.034 . S
O28 Zn7 2.024 . S
O28 C8 1.249 . S
C29 O25 1.251 . S
C29 O26 1.254 . S
H30 C3 0.949 . S
H31 C5 0.950 . S
H32 C12 0.949 . S
H33 C14 0.950 . S
C34 O50 1.251 . S
C34 O52 1.254 . S
N35 C36 1.333 . S
N35 C40 1.307 . S
N35 Zn41 2.020 . S
C36 N35 1.333 . S
C36 C37 1.379 . S
C36 H54 0.952 . S
C37 C36 1.379 . S
C37 C38 1.390 . S
C37 H64 0.949 . S
C38 C37 1.390 . S
C38 C39 1.357 . S
C39 C38 1.357 . S
C39 C40 1.370 . S
C39 H65 0.950 . S
C40 N35 1.307 . S
C40 C39 1.370 . S
C40 H58 0.948 . S
Zn41 N35 2.020 . S
Zn41 O50 2.039 . S
Zn41 O56 2.034 . S
Zn41 O60 2.025 . S
Zn41 O62 2.024 . S
C42 O61 1.246 . S
C42 O62 1.249 . S
N43 C44 1.307 . S
N43 C45 1.333 . S
N43 Zn49 2.020 . S
C44 N43 1.307 . S
C44 C48 1.370 . S
C44 H55 0.948 . S
C45 N43 1.333 . S
C45 C46 1.379 . S
C45 H53 0.952 . S
C46 C45 1.379 . S
C46 C47 1.390 . S
C46 H66 0.949 . S
C47 C46 1.390 . S
C47 C48 1.357 . S
C48 C44 1.370 . S
C48 C47 1.357 . S
C48 H67 0.950 . S
Zn49 N43 2.020 . S
Zn49 O52 2.025 . S
Zn49 O57 2.024 . S
Zn49 O59 2.039 . S
Zn49 O61 2.034 . S
O50 C34 1.251 . S
O50 Zn41 2.039 . S
C51 O56 1.246 . S
C51 O57 1.249 . S
O52 C34 1.254 . S
O52 Zn49 2.025 . S
H53 C45 0.952 . S
H54 C36 0.952 . S
H55 C44 0.948 . S
O56 Zn41 2.034 . S
O56 C51 1.246 . S
O57 Zn49 2.024 . S
O57 C51 1.249 . S
H58 C40 0.948 . S
O59 Zn49 2.039 . S
O59 C63 1.251 . S
O60 Zn41 2.025 . S
O60 C63 1.254 . S
O61 C42 1.246 . S
O61 Zn49 2.034 . S
O62 Zn41 2.024 . S
O62 C42 1.249 . S
C63 O59 1.251 . S
C63 O60 1.254 . S
H64 C37 0.949 . S
H65 C39 0.950 . S
H66 C46 0.949 . S
H67 C48 0.950 . S
C68 O84 1.251 . S
C68 O86 1.254 . S
N69 C70 1.333 . S
N69 C74 1.307 . S
N69 Zn75 2.020 . S
C70 N69 1.333 . S
C70 C71 1.379 . S
C70 H88 0.952 . S
C71 C70 1.379 . S
C71 C72 1.390 . S
C71 H98 0.949 . S
C72 C71 1.390 . S
C72 C73 1.357 . S
C73 C72 1.357 . S
C73 C74 1.370 . S
C73 H99 0.950 . S
C74 N69 1.307 . S
C74 C73 1.370 . S
C74 H92 0.948 . S
Zn75 N69 2.020 . S
Zn75 O84 2.039 . S
Zn75 O90 2.034 . S
Zn75 O94 2.025 . S
Zn75 O96 2.024 . S
C76 O95 1.246 . S
C76 O96 1.249 . S
N77 C78 1.307 . S
N77 C79 1.333 . S
N77 Zn83 2.020 . S
C78 N77 1.307 . S
C78 C82 1.370 . S
C78 H89 0.948 . S
C79 N77 1.333 . S
C79 C80 1.379 . S
C79 H87 0.952 . S
C80 C79 1.379 . S
C80 C81 1.390 . S
C80 H100 0.949 . S
C81 C80 1.390 . S
C81 C82 1.357 . S
C82 C78 1.370 . S
C82 C81 1.357 . S
C82 H101 0.950 . S
Zn83 N77 2.020 . S
Zn83 O86 2.025 . S
Zn83 O91 2.024 . S
Zn83 O93 2.039 . S
Zn83 O95 2.034 . S
O84 C68 1.251 . S
O84 Zn75 2.039 . S
C85 O90 1.246 . S
C85 O91 1.249 . S
O86 C68 1.254 . S
O86 Zn83 2.025 . S
H87 C79 0.952 . S
H88 C70 0.952 . S
H89 C78 0.948 . S
O90 Zn75 2.034 . S
O90 C85 1.246 . S
O91 Zn83 2.024 . S
O91 C85 1.249 . S
H92 C74 0.948 . S
O93 Zn83 2.039 . S
O93 C97 1.251 . S
O94 Zn75 2.025 . S
O94 C97 1.254 . S
O95 C76 1.246 . S
O95 Zn83 2.034 . S
O96 Zn75 2.024 . S
O96 C76 1.249 . S
C97 O93 1.251 . S
C97 O94 1.254 . S
H98 C71 0.949 . S
H99 C73 0.950 . S
H100 C80 0.949 . S
H101 C82 0.950 . S
C102 O118 1.251 . S
C102 O120 1.254 . S
N103 C104 1.333 . S
N103 C108 1.307 . S
N103 Zn109 2.020 . S
C104 N103 1.333 . S
C104 C105 1.379 . S
C104 H122 0.952 . S
C105 C104 1.379 . S
C105 C106 1.390 . S
C105 H132 0.961 . S
C106 C105 1.390 . S
C106 C107 1.357 . S
C107 C106 1.357 . S
C107 C108 1.370 . S
C107 H133 0.950 . S
C108 N103 1.307 . S
C108 C107 1.370 . S
C108 H126 0.948 . S
Zn109 N103 2.020 . S
Zn109 O118 2.039 . S
Zn109 O124 2.034 . S
Zn109 O128 2.025 . S
Zn109 O130 2.024 . S
C110 O129 1.246 . S
C110 O130 1.249 . S
N111 C112 1.307 1_655 S
N111 C113 1.333 . S
N111 Zn117 2.020 . S
C112 N111 1.307 1_455 S
C112 C116 1.370 . S
C112 H123 0.948 . S
C113 N111 1.333 . S
C113 C114 1.379 1_655 S
C113 H121 0.952 . S
C114 C113 1.379 1_455 S
C114 C115 1.390 . S
C114 H134 0.949 . S
C115 C114 1.390 . S
C115 C116 1.357 . S
C116 C112 1.370 . S
C116 C115 1.357 . S
C116 H135 0.950 . S
Zn117 N111 2.020 . S
Zn117 O120 2.025 . S
Zn117 O125 2.024 . S
Zn117 O127 2.039 . S
Zn117 O129 2.034 . S
O118 C102 1.251 . S
O118 Zn109 2.039 . S
C119 O124 1.246 . S
C119 O125 1.249 . S
O120 C102 1.254 . S
O120 Zn117 2.025 . S
H121 C113 0.952 . S
H122 C104 0.952 . S
H123 C112 0.948 . S
O124 Zn109 2.034 . S
O124 C119 1.246 . S
O125 Zn117 2.024 . S
O125 C119 1.249 . S
H126 C108 0.948 . S
O127 Zn117 2.039 . S
O127 C131 1.251 . S
O128 Zn109 2.025 . S
O128 C131 1.254 . S
O129 C110 1.246 . S
O129 Zn117 2.034 . S
O130 Zn109 2.024 . S
O130 C110 1.249 . S
C131 O127 1.251 . S
C131 O128 1.254 . S
H132 C105 0.961 . S
H133 C107 0.950 . S
H134 C114 0.949 . S
H135 C116 0.950 . S
C136 O152 1.251 . S
C136 O154 1.254 . S
N137 C138 1.333 1_556 S
N137 C142 1.307 . S
N137 Zn143 2.020 . S
C138 N137 1.333 1_554 S
C138 C139 1.379 . S
C138 H156 0.952 . S
C139 C138 1.379 . S
C139 C140 1.390 . S
C139 H166 0.949 . S
C140 C139 1.390 . S
C140 C141 1.357 1_554 S
C141 C140 1.357 1_556 S
C141 C142 1.370 . S
C141 H167 0.950 . S
C142 N137 1.307 . S
C142 C141 1.370 . S
C142 H160 0.948 . S
Zn143 N137 2.020 . S
Zn143 O152 2.039 . S
Zn143 O158 2.034 . S
Zn143 O162 2.025 . S
Zn143 O164 2.024 . S
C144 O163 1.246 . S
C144 O164 1.249 . S
N145 C146 1.307 . S
N145 C147 1.333 . S
N145 Zn151 2.020 . S
C146 N145 1.307 . S
C146 C150 1.370 . S
C146 H157 0.948 . S
C147 N145 1.333 . S
C147 C148 1.379 . S
C147 H155 0.952 . S
C148 C147 1.379 . S
C148 C149 1.390 . S
C148 H168 0.949 . S
C149 C148 1.390 . S
C149 C150 1.357 . S
C150 C146 1.370 . S
C150 C149 1.357 . S
C150 H169 0.950 . S
Zn151 N145 2.020 . S
Zn151 O154 2.025 . S
Zn151 O159 2.024 . S
Zn151 O161 2.039 . S
Zn151 O163 2.034 . S
O152 C136 1.251 . S
O152 Zn143 2.039 . S
C153 O158 1.246 . S
C153 O159 1.249 . S
O154 C136 1.254 . S
O154 Zn151 2.025 . S
H155 C147 0.952 . S
H156 C138 0.952 . S
H157 C146 0.948 . S
O158 Zn143 2.034 . S
O158 C153 1.246 . S
O159 Zn151 2.024 . S
O159 C153 1.249 . S
H160 C142 0.948 . S
O161 Zn151 2.039 . S
O161 C165 1.251 . S
O162 Zn143 2.025 . S
O162 C165 1.254 . S
O163 C144 1.246 . S
O163 Zn151 2.034 . S
O164 Zn143 2.024 . S
O164 C144 1.249 . S
C165 O161 1.251 . S
C165 O162 1.254 . S
H166 C139 0.949 . S
H167 C141 0.950 . S
H168 C148 0.949 . S
H169 C150 0.950 . S
C170 O186 1.251 . S
C170 O188 1.254 . S
N171 C172 1.333 . S
N171 C176 1.307 . S
N171 Zn177 2.020 . S
C172 N171 1.333 . S
C172 C173 1.379 . S
C172 H190 0.952 . S
C173 C172 1.379 . S
C173 C174 1.390 . S
C173 H200 0.949 . S
C174 C173 1.390 . S
C174 C175 1.357 . S
C175 C174 1.357 . S
C175 C176 1.370 . S
C175 H201 0.950 . S
C176 N171 1.307 . S
C176 C175 1.370 . S
C176 H194 0.948 . S
Zn177 N171 2.020 . S
Zn177 O186 2.039 . S
Zn177 O192 2.034 . S
Zn177 O196 2.025 . S
Zn177 O198 2.024 . S
C178 O197 1.246 . S
C178 O198 1.249 . S
N179 C180 1.307 . S
N179 C181 1.333 . S
N179 Zn185 2.020 . S
C180 N179 1.307 . S
C180 C184 1.370 . S
C180 H191 0.948 . S
C181 N179 1.333 . S
C181 C182 1.379 . S
C181 H189 0.952 . S
C182 C181 1.379 . S
C182 C183 1.390 . S
C182 H202 0.949 . S
C183 C182 1.390 . S
C183 C184 1.357 . S
C184 C180 1.370 . S
C184 C183 1.357 . S
C184 H203 0.950 . S
Zn185 N179 2.020 . S
Zn185 O188 2.025 . S
Zn185 O193 2.024 . S
Zn185 O195 2.039 . S
Zn185 O197 2.034 . S
O186 C170 1.251 . S
O186 Zn177 2.039 . S
C187 O192 1.246 . S
C187 O193 1.249 . S
O188 C170 1.254 . S
O188 Zn185 2.025 . S
H189 C181 0.952 . S
H190 C172 0.952 . S
H191 C180 0.948 . S
O192 Zn177 2.034 . S
O192 C187 1.246 . S
O193 Zn185 2.024 . S
O193 C187 1.249 . S
H194 C176 0.948 . S
O195 Zn185 2.039 . S
O195 C199 1.251 . S
O196 Zn177 2.025 . S
O196 C199 1.254 . S
O197 C178 1.246 . S
O197 Zn185 2.034 . S
O198 Zn177 2.024 . S
O198 C178 1.249 . S
C199 O195 1.251 . S
C199 O196 1.254 . S
H200 C173 0.949 . S
H201 C175 0.950 . S
H202 C182 0.949 . S
H203 C184 0.950 . S
C204 O220 1.251 . S
C204 O222 1.254 . S
N205 C206 1.333 . S
N205 C210 1.307 . S
N205 Zn211 2.020 . S
C206 N205 1.333 . S
C206 C207 1.379 . S
C206 H224 0.952 . S
C207 C206 1.379 . S
C207 C208 1.390 . S
C207 H234 0.949 . S
C208 C207 1.390 . S
C208 C209 1.357 . S
C209 C208 1.357 . S
C209 C210 1.370 . S
C209 H235 0.950 . S
C210 N205 1.307 . S
C210 C209 1.370 . S
C210 H228 0.948 . S
Zn211 N205 2.020 . S
Zn211 O220 2.039 . S
Zn211 O226 2.034 . S
Zn211 O230 2.025 . S
Zn211 O232 2.024 . S
C212 O231 1.246 . S
C212 O232 1.249 . S
N213 C214 1.307 . S
N213 C215 1.333 . S
N213 Zn219 2.020 . S
C214 N213 1.307 . S
C214 C218 1.370 . S
C214 H225 0.948 . S
C215 N213 1.333 . S
C215 C216 1.379 . S
C215 H223 0.952 . S
C216 C215 1.379 . S
C216 C217 1.390 . S
C216 H236 0.949 . S
C217 C216 1.390 . S
C217 C218 1.357 . S
C218 C214 1.370 . S
C218 C217 1.357 . S
C218 H237 0.950 . S
Zn219 N213 2.020 . S
Zn219 O222 2.025 . S
Zn219 O227 2.024 . S
Zn219 O229 2.039 . S
Zn219 O231 2.034 . S
O220 C204 1.251 . S
O220 Zn211 2.039 . S
C221 O226 1.246 . S
C221 O227 1.249 . S
O222 C204 1.254 . S
O222 Zn219 2.025 . S
H223 C215 0.952 . S
H224 C206 0.952 . S
H225 C214 0.948 . S
O226 Zn211 2.034 . S
O226 C221 1.246 . S
O227 Zn219 2.024 . S
O227 C221 1.249 . S
H228 C210 0.948 . S
O229 Zn219 2.039 . S
O229 C233 1.251 . S
O230 Zn211 2.025 . S
O230 C233 1.254 . S
O231 C212 1.246 . S
O231 Zn219 2.034 . S
O232 Zn211 2.024 . S
O232 C212 1.249 . S
C233 O229 1.251 . S
C233 O230 1.254 . S
H234 C207 0.949 . S
H235 C209 0.950 . S
H236 C216 0.949 . S
H237 C218 0.950 . S
C238 O254 1.251 . S
C238 O256 1.254 . S
N239 C240 1.333 . S
N239 C244 1.307 1_455 S
N239 Zn245 2.020 . S
C240 N239 1.333 . S
C240 C241 1.379 1_455 S
C240 H258 0.952 . S
C241 C240 1.379 1_655 S
C241 C242 1.390 . S
C241 H268 0.949 . S
C242 C241 1.390 . S
C242 C243 1.357 . S
C243 C242 1.357 . S
C243 C244 1.370 . S
C243 H269 0.950 . S
C244 N239 1.307 1_655 S
C244 C243 1.370 . S
C244 H262 0.948 . S
Zn245 N239 2.020 . S
Zn245 O254 2.039 . S
Zn245 O260 2.034 . S
Zn245 O264 2.025 . S
Zn245 O266 2.024 . S
C246 O265 1.246 . S
C246 O266 1.249 . S
N247 C248 1.307 . S
N247 C249 1.333 . S
N247 Zn253 2.020 . S
C248 N247 1.307 . S
C248 C252 1.370 . S
C248 H259 0.948 . S
C249 N247 1.333 . S
C249 C250 1.379 . S
C249 H257 0.952 . S
C250 C249 1.379 . S
C250 C251 1.390 . S
C250 H270 0.961 . S
C251 C250 1.390 . S
C251 C252 1.357 . S
C252 C248 1.370 . S
C252 C251 1.357 . S
C252 H271 0.950 . S
Zn253 N247 2.020 . S
Zn253 O256 2.025 . S
Zn253 O261 2.024 . S
Zn253 O263 2.039 . S
Zn253 O265 2.034 . S
O254 C238 1.251 . S
O254 Zn245 2.039 . S
C255 O260 1.246 . S
C255 O261 1.249 . S
O256 C238 1.254 . S
O256 Zn253 2.025 . S
H257 C249 0.952 . S
H258 C240 0.952 . S
H259 C248 0.948 . S
O260 Zn245 2.034 . S
O260 C255 1.246 . S
O261 Zn253 2.024 . S
O261 C255 1.249 . S
H262 C244 0.948 . S
O263 Zn253 2.039 . S
O263 C267 1.251 . S
O264 Zn245 2.025 . S
O264 C267 1.254 . S
O265 C246 1.246 . S
O265 Zn253 2.034 . S
O266 Zn245 2.024 . S
O266 C246 1.249 . S
C267 O263 1.251 . S
C267 O264 1.254 . S
H268 C241 0.949 . S
H269 C243 0.950 . S
H270 C250 0.961 . S
H271 C252 0.950 . S
C272 O288 1.251 . S
C272 O290 1.254 . S
N273 C274 1.333 . S
N273 C278 1.307 . S
N273 Zn279 2.020 . S
C274 N273 1.333 . S
C274 C275 1.379 . S
C274 H292 0.952 . S
C275 C274 1.379 . S
C275 C276 1.390 . S
C275 H302 0.949 . S
C276 C275 1.390 . S
C276 C277 1.357 . S
C277 C276 1.357 . S
C277 C278 1.370 . S
C277 H303 0.950 . S
C278 N273 1.307 . S
C278 C277 1.370 . S
C278 H296 0.948 . S
Zn279 N273 2.020 . S
Zn279 O288 2.039 . S
Zn279 O294 2.034 . S
Zn279 O298 2.025 . S
Zn279 O300 2.024 . S
C280 O299 1.246 . S
C280 O300 1.249 . S
N281 C282 1.307 . S
N281 C283 1.333 . S
N281 Zn287 2.020 . S
C282 N281 1.307 . S
C282 C286 1.370 . S
C282 H293 0.948 . S
C283 N281 1.333 . S
C283 C284 1.379 . S
C283 H291 0.952 . S
C284 C283 1.379 . S
C284 C285 1.390 . S
C284 H304 0.949 . S
C285 C284 1.390 . S
C285 C286 1.357 . S
C286 C282 1.370 . S
C286 C285 1.357 . S
C286 H305 0.950 . S
Zn287 N281 2.020 . S
Zn287 O290 2.025 . S
Zn287 O295 2.024 . S
Zn287 O297 2.039 . S
Zn287 O299 2.034 . S
O288 C272 1.251 . S
O288 Zn279 2.039 . S
C289 O294 1.246 . S
C289 O295 1.249 . S
O290 C272 1.254 . S
O290 Zn287 2.025 . S
H291 C283 0.952 . S
H292 C274 0.952 . S
H293 C282 0.948 . S
O294 Zn279 2.034 . S
O294 C289 1.246 . S
O295 Zn287 2.024 . S
O295 C289 1.249 . S
H296 C278 0.948 . S
O297 Zn287 2.039 . S
O297 C301 1.251 . S
O298 Zn279 2.025 . S
O298 C301 1.254 . S
O299 C280 1.246 . S
O299 Zn287 2.034 . S
O300 Zn279 2.024 . S
O300 C280 1.249 . S
C301 O297 1.251 . S
C301 O298 1.254 . S
H302 C275 0.949 . S
H303 C277 0.950 . S
H304 C284 0.949 . S
H305 C286 0.950 . S
C306 O322 1.251 . S
C306 O324 1.254 . S
N307 C308 1.333 . S
N307 C312 1.307 . S
N307 Zn313 2.020 . S
C308 N307 1.333 . S
C308 C309 1.379 . S
C308 H326 0.952 . S
C309 C308 1.379 . S
C309 C310 1.390 . S
C309 H336 0.961 . S
C310 C309 1.390 . S
C310 C311 1.357 . S
C311 C310 1.357 . S
C311 C312 1.370 . S
C311 H337 0.950 . S
C312 N307 1.307 . S
C312 C311 1.370 . S
C312 H330 0.948 . S
Zn313 N307 2.020 . S
Zn313 O322 2.039 . S
Zn313 O328 2.034 . S
Zn313 O332 2.025 . S
Zn313 O334 2.024 . S
C314 O333 1.246 . S
C314 O334 1.249 . S
N315 C316 1.307 1_455 S
N315 C317 1.333 . S
N315 Zn321 2.020 . S
C316 N315 1.307 1_655 S
C316 C320 1.370 . S
C316 H327 0.948 . S
C317 N315 1.333 . S
C317 C318 1.379 1_455 S
C317 H325 0.952 . S
C318 C317 1.379 1_655 S
C318 C319 1.390 . S
C318 H338 0.949 . S
C319 C318 1.390 . S
C319 C320 1.357 . S
C320 C316 1.370 . S
C320 C319 1.357 . S
C320 H339 0.950 . S
Zn321 N315 2.020 . S
Zn321 O324 2.025 . S
Zn321 O329 2.024 . S
Zn321 O331 2.039 . S
Zn321 O333 2.034 . S
O322 C306 1.251 . S
O322 Zn313 2.039 . S
C323 O328 1.246 . S
C323 O329 1.249 . S
O324 C306 1.254 . S
O324 Zn321 2.025 . S
H325 C317 0.952 . S
H326 C308 0.952 . S
H327 C316 0.948 . S
O328 Zn313 2.034 . S
O328 C323 1.246 . S
O329 Zn321 2.024 . S
O329 C323 1.249 . S
H330 C312 0.948 . S
O331 Zn321 2.039 . S
O331 C335 1.251 . S
O332 Zn313 2.025 . S
O332 C335 1.254 . S
O333 C314 1.246 . S
O333 Zn321 2.034 . S
O334 Zn313 2.024 . S
O334 C314 1.249 . S
C335 O331 1.251 . S
C335 O332 1.254 . S
H336 C309 0.961 . S
H337 C311 0.950 . S
H338 C318 0.949 . S
H339 C320 0.950 . S
C340 O356 1.251 . S
C340 O358 1.254 . S
N341 C342 1.333 . S
N341 C346 1.307 . S
N341 Zn347 2.020 . S
C342 N341 1.333 . S
C342 C343 1.379 . S
C342 H360 0.952 . S
C343 C342 1.379 . S
C343 C344 1.390 . S
C343 H370 0.949 . S
C344 C343 1.390 . S
C344 C345 1.357 . S
C345 C344 1.357 . S
C345 C346 1.370 . S
C345 H371 0.950 . S
C346 N341 1.307 . S
C346 C345 1.370 . S
C346 H364 0.948 . S
Zn347 N341 2.020 . S
Zn347 O356 2.039 . S
Zn347 O362 2.034 . S
Zn347 O366 2.025 . S
Zn347 O368 2.024 . S
C348 O367 1.246 . S
C348 O368 1.249 . S
N349 C350 1.307 . S
N349 C351 1.333 1_554 S
N349 Zn355 2.020 . S
C350 N349 1.307 . S
C350 C354 1.370 . S
C350 H361 0.948 . S
C351 N349 1.333 1_556 S
C351 C352 1.379 . S
C351 H359 0.952 . S
C352 C351 1.379 . S
C352 C353 1.390 . S
C352 H372 0.949 . S
C353 C352 1.390 . S
C353 C354 1.357 1_556 S
C354 C350 1.370 . S
C354 C353 1.357 1_554 S
C354 H373 0.950 . S
Zn355 N349 2.020 . S
Zn355 O358 2.025 . S
Zn355 O363 2.024 . S
Zn355 O365 2.039 . S
Zn355 O367 2.034 . S
O356 C340 1.251 . S
O356 Zn347 2.039 . S
C357 O362 1.246 . S
C357 O363 1.249 . S
O358 C340 1.254 . S
O358 Zn355 2.025 . S
H359 C351 0.952 . S
H360 C342 0.952 . S
H361 C350 0.948 . S
O362 Zn347 2.034 . S
O362 C357 1.246 . S
O363 Zn355 2.024 . S
O363 C357 1.249 . S
H364 C346 0.948 . S
O365 Zn355 2.039 . S
O365 C369 1.251 . S
O366 Zn347 2.025 . S
O366 C369 1.254 . S
O367 C348 1.246 . S
O367 Zn355 2.034 . S
O368 Zn347 2.024 . S
O368 C348 1.249 . S
C369 O365 1.251 . S
C369 O366 1.254 . S
H370 C343 0.949 . S
H371 C345 0.950 . S
H372 C352 0.949 . S
H373 C354 0.950 . S
C374 O390 1.251 . S
C374 O392 1.254 . S
N375 C376 1.333 . S
N375 C380 1.307 . S
N375 Zn381 2.020 . S
C376 N375 1.333 . S
C376 C377 1.379 . S
C376 H394 0.952 . S
C377 C376 1.379 . S
C377 C378 1.390 . S
C377 H404 0.949 . S
C378 C377 1.390 . S
C378 C379 1.357 . S
C379 C378 1.357 . S
C379 C380 1.370 . S
C379 H405 0.950 . S
C380 N375 1.307 . S
C380 C379 1.370 . S
C380 H398 0.948 . S
Zn381 N375 2.020 . S
Zn381 O390 2.039 . S
Zn381 O396 2.034 . S
Zn381 O400 2.025 . S
Zn381 O402 2.024 . S
C382 O401 1.246 . S
C382 O402 1.249 . S
N383 C384 1.307 . S
N383 C385 1.333 . S
N383 Zn389 2.020 . S
C384 N383 1.307 . S
C384 C388 1.370 . S
C384 H395 0.948 . S
C385 N383 1.333 . S
C385 C386 1.379 . S
C385 H393 0.952 . S
C386 C385 1.379 . S
C386 C387 1.390 . S
C386 H406 0.949 . S
C387 C386 1.390 . S
C387 C388 1.357 . S
C388 C384 1.370 . S
C388 C387 1.357 . S
C388 H407 0.950 . S
Zn389 N383 2.020 . S
Zn389 O392 2.025 . S
Zn389 O397 2.024 . S
Zn389 O399 2.039 . S
Zn389 O401 2.034 . S
O390 C374 1.251 . S
O390 Zn381 2.039 . S
C391 O396 1.246 . S
C391 O397 1.249 . S
O392 C374 1.254 . S
O392 Zn389 2.025 . S
H393 C385 0.952 . S
H394 C376 0.952 . S
H395 C384 0.948 . S
O396 Zn381 2.034 . S
O396 C391 1.246 . S
O397 Zn389 2.024 . S
O397 C391 1.249 . S
H398 C380 0.948 . S
O399 Zn389 2.039 . S
O399 C403 1.251 . S
O400 Zn381 2.025 . S
O400 C403 1.254 . S
O401 C382 1.246 . S
O401 Zn389 2.034 . S
O402 Zn381 2.024 . S
O402 C382 1.249 . S
C403 O399 1.251 . S
C403 O400 1.254 . S
H404 C377 0.949 . S
H405 C379 0.950 . S
H406 C386 0.949 . S
H407 C388 0.950 . S
C408 O424 1.251 . S
C408 O426 1.254 . S
N409 C410 1.333 . S
N409 C414 1.307 . S
N409 Zn415 2.020 . S
C410 N409 1.333 . S
C410 C411 1.379 . S
C410 H428 0.952 . S
C411 C410 1.379 . S
C411 C412 1.390 . S
C411 H438 0.949 . S
C412 C411 1.390 . S
C412 C413 1.357 . S
C413 C412 1.357 . S
C413 C414 1.370 . S
C413 H439 0.950 . S
C414 N409 1.307 . S
C414 C413 1.370 . S
C414 H432 0.948 . S
Zn415 N409 2.020 . S
Zn415 O424 2.039 . S
Zn415 O430 2.034 . S
Zn415 O434 2.025 . S
Zn415 O436 2.024 . S
C416 O435 1.246 . S
C416 O436 1.249 . S
N417 C418 1.307 . S
N417 C419 1.333 . S
N417 Zn423 2.020 . S
C418 N417 1.307 . S
C418 C422 1.370 . S
C418 H429 0.948 . S
C419 N417 1.333 . S
C419 C420 1.379 . S
C419 H427 0.952 . S
C420 C419 1.379 . S
C420 C421 1.390 . S
C420 H440 0.949 . S
C421 C420 1.390 . S
C421 C422 1.357 . S
C422 C418 1.370 . S
C422 C421 1.357 . S
C422 H441 0.950 . S
Zn423 N417 2.020 . S
Zn423 O426 2.025 . S
Zn423 O431 2.024 . S
Zn423 O433 2.039 . S
Zn423 O435 2.034 . S
O424 C408 1.251 . S
O424 Zn415 2.039 . S
C425 O430 1.246 . S
C425 O431 1.249 . S
O426 C408 1.254 . S
O426 Zn423 2.025 . S
H427 C419 0.952 . S
H428 C410 0.952 . S
H429 C418 0.948 . S
O430 Zn415 2.034 . S
O430 C425 1.246 . S
O431 Zn423 2.024 . S
O431 C425 1.249 . S
H432 C414 0.948 . S
O433 Zn423 2.039 . S
O433 C437 1.251 . S
O434 Zn415 2.025 . S
O434 C437 1.254 . S
O435 C416 1.246 . S
O435 Zn423 2.034 . S
O436 Zn415 2.024 . S
O436 C416 1.249 . S
C437 O433 1.251 . S
C437 O434 1.254 . S
H438 C411 0.949 . S
H439 C413 0.950 . S
H440 C420 0.949 . S
H441 C422 0.950 . S
C442 O458 1.251 . S
C442 O460 1.254 . S
N443 C444 1.333 . S
N443 C448 1.307 1_655 S
N443 Zn449 2.020 . S
C444 N443 1.333 . S
C444 C445 1.379 1_655 S
C444 H462 0.952 . S
C445 C444 1.379 1_455 S
C445 C446 1.390 . S
C445 H472 0.949 . S
C446 C445 1.390 . S
C446 C447 1.357 . S
C447 C446 1.357 . S
C447 C448 1.370 . S
C447 H473 0.950 . S
C448 N443 1.307 1_455 S
C448 C447 1.370 . S
C448 H466 0.948 . S
Zn449 N443 2.020 . S
Zn449 O458 2.039 . S
Zn449 O464 2.034 . S
Zn449 O468 2.025 . S
Zn449 O470 2.024 . S
C450 O469 1.246 . S
C450 O470 1.249 . S
N451 C452 1.307 . S
N451 C453 1.333 . S
N451 Zn457 2.020 . S
C452 N451 1.307 . S
C452 C456 1.370 . S
C452 H463 0.948 . S
C453 N451 1.333 . S
C453 C454 1.379 . S
C453 H461 0.952 . S
C454 C453 1.379 . S
C454 C455 1.390 . S
C454 H474 0.961 . S
C455 C454 1.390 . S
C455 C456 1.357 . S
C456 C452 1.370 . S
C456 C455 1.357 . S
C456 H475 0.950 . S
Zn457 N451 2.020 . S
Zn457 O460 2.025 . S
Zn457 O465 2.024 . S
Zn457 O467 2.039 . S
Zn457 O469 2.034 . S
O458 C442 1.251 . S
O458 Zn449 2.039 . S
C459 O464 1.246 . S
C459 O465 1.249 . S
O460 C442 1.254 . S
O460 Zn457 2.025 . S
H461 C453 0.952 . S
H462 C444 0.952 . S
H463 C452 0.948 . S
O464 Zn449 2.034 . S
O464 C459 1.246 . S
O465 Zn457 2.024 . S
O465 C459 1.249 . S
H466 C448 0.948 . S
O467 Zn457 2.039 . S
O467 C471 1.251 . S
O468 Zn449 2.025 . S
O468 C471 1.254 . S
O469 C450 1.246 . S
O469 Zn457 2.034 . S
O470 Zn449 2.024 . S
O470 C450 1.249 . S
C471 O467 1.251 . S
C471 O468 1.254 . S
H472 C445 0.949 . S
H473 C447 0.950 . S
H474 C454 0.961 . S
H475 C456 0.950 . S
C476 O492 1.251 . S
C476 O494 1.254 . S
N477 C478 1.333 1_556 S
N477 C482 1.307 . S
N477 Zn483 2.020 . S
C478 N477 1.333 1_554 S
C478 C479 1.379 . S
C478 H496 0.952 . S
C479 C478 1.379 . S
C479 C480 1.390 . S
C479 H506 0.949 . S
C480 C479 1.390 . S
C480 C481 1.357 1_554 S
C481 C480 1.357 1_556 S
C481 C482 1.370 . S
C481 H507 0.950 . S
C482 N477 1.307 . S
C482 C481 1.370 . S
C482 H500 0.948 . S
Zn483 N477 2.020 . S
Zn483 O492 2.039 . S
Zn483 O498 2.034 . S
Zn483 O502 2.025 . S
Zn483 O504 2.024 . S
C484 O503 1.246 . S
C484 O504 1.249 . S
N485 C486 1.307 . S
N485 C487 1.333 . S
N485 Zn491 2.020 . S
C486 N485 1.307 . S
C486 C490 1.370 . S
C486 H497 0.948 . S
C487 N485 1.333 . S
C487 C488 1.379 . S
C487 H495 0.952 . S
C488 C487 1.379 . S
C488 C489 1.390 . S
C488 H508 0.949 . S
C489 C488 1.390 . S
C489 C490 1.357 . S
C490 C486 1.370 . S
C490 C489 1.357 . S
C490 H509 0.950 . S
Zn491 N485 2.020 . S
Zn491 O494 2.025 . S
Zn491 O499 2.024 . S
Zn491 O501 2.039 . S
Zn491 O503 2.034 . S
O492 C476 1.251 . S
O492 Zn483 2.039 . S
C493 O498 1.246 . S
C493 O499 1.249 . S
O494 C476 1.254 . S
O494 Zn491 2.025 . S
H495 C487 0.952 . S
H496 C478 0.952 . S
H497 C486 0.948 . S
O498 Zn483 2.034 . S
O498 C493 1.246 . S
O499 Zn491 2.024 . S
O499 C493 1.249 . S
H500 C482 0.948 . S
O501 Zn491 2.039 . S
O501 C505 1.251 . S
O502 Zn483 2.025 . S
O502 C505 1.254 . S
O503 C484 1.246 . S
O503 Zn491 2.034 . S
O504 Zn483 2.024 . S
O504 C484 1.249 . S
C505 O501 1.251 . S
C505 O502 1.254 . S
H506 C479 0.949 . S
H507 C481 0.950 . S
H508 C488 0.949 . S
H509 C490 0.950 . S
C510 O526 1.251 . S
C510 O528 1.254 . S
N511 C512 1.333 . S
N511 C516 1.307 . S
N511 Zn517 2.020 . S
C512 N511 1.333 . S
C512 C513 1.379 . S
C512 H530 0.952 . S
C513 C512 1.379 . S
C513 C514 1.390 . S
C513 H540 0.949 . S
C514 C513 1.390 . S
C514 C515 1.357 . S
C515 C514 1.357 . S
C515 C516 1.370 . S
C515 H541 0.950 . S
C516 N511 1.307 . S
C516 C515 1.370 . S
C516 H534 0.948 . S
Zn517 N511 2.020 . S
Zn517 O526 2.039 . S
Zn517 O532 2.034 . S
Zn517 O536 2.025 . S
Zn517 O538 2.024 . S
C518 O537 1.246 . S
C518 O538 1.249 . S
N519 C520 1.307 . S
N519 C521 1.333 . S
N519 Zn525 2.020 . S
C520 N519 1.307 . S
C520 C524 1.370 . S
C520 H531 0.948 . S
C521 N519 1.333 . S
C521 C522 1.379 . S
C521 H529 0.952 . S
C522 C521 1.379 . S
C522 C523 1.390 . S
C522 H542 0.949 . S
C523 C522 1.390 . S
C523 C524 1.357 . S
C524 C520 1.370 . S
C524 C523 1.357 . S
C524 H543 0.950 . S
Zn525 N519 2.020 . S
Zn525 O528 2.025 . S
Zn525 O533 2.024 . S
Zn525 O535 2.039 . S
Zn525 O537 2.034 . S
O526 C510 1.251 . S
O526 Zn517 2.039 . S
C527 O532 1.246 . S
C527 O533 1.249 . S
O528 C510 1.254 . S
O528 Zn525 2.025 . S
H529 C521 0.952 . S
H530 C512 0.952 . S
H531 C520 0.948 . S
O532 Zn517 2.034 . S
O532 C527 1.246 . S
O533 Zn525 2.024 . S
O533 C527 1.249 . S
H534 C516 0.948 . S
O535 Zn525 2.039 . S
O535 C539 1.251 . S
O536 Zn517 2.025 . S
O536 C539 1.254 . S
O537 C518 1.246 . S
O537 Zn525 2.034 . S
O538 Zn517 2.024 . S
O538 C518 1.249 . S
C539 O535 1.251 . S
C539 O536 1.254 . S
H540 C513 0.949 . S
H541 C515 0.950 . S
H542 C522 0.949 . S
H543 C524 0.950 . S
C544 C545 1.391 . S
C544 C546 1.394 . S
C544 H560 0.931 . S
C545 C544 1.391 . S
C545 C549 1.376 . S
C546 C544 1.394 . S
C546 C547 1.369 . S
C546 C550 1.531 . S
C547 C546 1.369 . S
C547 C548 1.410 . S
C547 C555 1.503 . S
C548 C547 1.410 . S
C548 C549 1.392 . S
C548 C551 1.511 . S
C549 C545 1.376 . S
C549 C548 1.392 . S
C549 H561 0.929 . S
C550 C546 1.531 . S
C550 H562 0.960 . S
C550 H563 0.962 . S
C550 H564 0.960 . S
C551 C548 1.511 . S
C551 H565 0.961 . S
C551 H566 0.961 . S
C551 H567 0.961 . S
C552 C553 1.370 . S
C552 C554 1.363 . S
C552 H568 0.931 . S
C553 C552 1.370 . S
C553 C557 1.408 . S
C554 C552 1.363 . S
C554 C555 1.370 . S
C554 C558 1.524 . S
C555 C547 1.503 . S
C555 C554 1.370 . S
C555 C556 1.403 . S
C556 C555 1.403 . S
C556 C557 1.404 . S
C556 C559 1.539 . S
C557 C553 1.408 . S
C557 C556 1.404 . S
C557 H569 0.930 . S
C558 C554 1.524 . S
C558 H570 0.956 . S
C558 H571 0.961 . S
C558 H572 0.961 . S
C559 C556 1.539 . S
C559 H573 0.958 . S
C559 H574 0.961 . S
C559 H575 0.960 . S
H560 C544 0.931 . S
H561 C549 0.929 . S
H562 C550 0.960 . S
H563 C550 0.962 . S
H564 C550 0.960 . S
H565 C551 0.961 . S
H566 C551 0.961 . S
H567 C551 0.961 . S
H568 C552 0.931 . S
H569 C557 0.930 . S
H570 C558 0.956 . S
H571 C558 0.961 . S
H572 C558 0.961 . S
H573 C559 0.958 . S
H574 C559 0.961 . S
H575 C559 0.960 . S
C576 C577 1.391 . S
C576 C578 1.394 . S
C576 H592 0.931 . S
C577 C576 1.391 . S
C577 C581 1.376 . S
C578 C576 1.394 . S
C578 C579 1.369 . S
C578 C582 1.531 . S
C579 C578 1.369 . S
C579 C580 1.410 . S
C579 C587 1.503 . S
C580 C579 1.410 . S
C580 C581 1.392 . S
C580 C583 1.511 . S
C581 C577 1.376 . S
C581 C580 1.392 . S
C581 H593 0.929 . S
C582 C578 1.531 . S
C582 H594 0.960 . S
C582 H595 0.962 . S
C582 H596 0.960 . S
C583 C580 1.511 . S
C583 H597 0.961 . S
C583 H598 0.961 . S
C583 H599 0.961 . S
C584 C585 1.370 . S
C584 C586 1.363 . S
C584 H600 0.931 . S
C585 C584 1.370 . S
C585 C589 1.408 . S
C586 C584 1.363 . S
C586 C587 1.370 . S
C586 C590 1.524 . S
C587 C579 1.503 . S
C587 C586 1.370 . S
C587 C588 1.403 . S
C588 C587 1.403 . S
C588 C589 1.404 . S
C588 C591 1.539 . S
C589 C585 1.408 . S
C589 C588 1.404 . S
C589 H601 0.930 . S
C590 C586 1.524 . S
C590 H602 0.956 . S
C590 H603 0.961 . S
C590 H604 0.961 . S
C591 C588 1.539 . S
C591 H605 0.958 . S
C591 H606 0.961 . S
C591 H607 0.960 . S
H592 C576 0.931 . S
H593 C581 0.929 . S
H594 C582 0.960 . S
H595 C582 0.962 . S
H596 C582 0.960 . S
H597 C583 0.961 . S
H598 C583 0.961 . S
H599 C583 0.961 . S
H600 C584 0.931 . S
H601 C589 0.930 . S
H602 C590 0.956 . S
H603 C590 0.961 . S
H604 C590 0.961 . S
H605 C591 0.958 . S
H606 C591 0.961 . S
H607 C591 0.960 . S
C608 C609 1.391 . S
C608 C610 1.394 . S
C608 H624 0.931 . S
C609 C608 1.391 . S
C609 C613 1.376 . S
C610 C608 1.394 . S
C610 C611 1.369 . S
C610 C614 1.531 1_455 S
C611 C610 1.369 . S
C611 C612 1.410 . S
C611 C619 1.503 1_455 S
C612 C611 1.410 . S
C612 C613 1.392 . S
C612 C615 1.511 . S
C613 C609 1.376 . S
C613 C612 1.392 . S
C613 H625 0.929 . S
C614 C610 1.531 1_655 S
C614 H626 0.960 . S
C614 H627 0.962 . S
C614 H628 0.960 1_655 S
C615 C612 1.511 . S
C615 H629 0.961 . S
C615 H630 0.961 . S
C615 H631 0.961 . S
C616 C617 1.370 . S
C616 C618 1.363 . S
C616 H632 0.931 . S
C617 C616 1.370 . S
C617 C621 1.408 . S
C618 C616 1.363 . S
C618 C619 1.370 . S
C618 C622 1.524 . S
C619 C611 1.503 1_655 S
C619 C618 1.370 . S
C619 C620 1.403 . S
C620 C619 1.403 . S
C620 C621 1.404 . S
C620 C623 1.564 . S
C621 C617 1.408 . S
C621 C620 1.404 . S
C621 H633 0.930 . S
C622 C618 1.524 . S
C622 H634 0.956 . S
C622 H635 0.961 . S
C622 H636 0.961 . S
C623 C620 1.564 . S
C623 H637 0.962 . S
C623 H638 0.970 . S
C623 H639 0.923 1_655 S
H624 C608 0.931 . S
H625 C613 0.929 . S
H626 C614 0.960 . S
H627 C614 0.962 . S
H628 C614 0.960 1_455 S
H629 C615 0.961 . S
H630 C615 0.961 . S
H631 C615 0.961 . S
H632 C616 0.931 . S
H633 C621 0.930 . S
H634 C622 0.956 . S
H635 C622 0.961 . S
H636 C622 0.961 . S
H637 C623 0.962 . S
H638 C623 0.970 . S
H639 C623 0.923 1_455 S
C640 C641 1.391 . S
C640 C642 1.394 . S
C640 H656 0.931 . S
C641 C640 1.391 . S
C641 C645 1.376 . S
C642 C640 1.394 . S
C642 C643 1.369 . S
C642 C646 1.531 . S
C643 C642 1.369 . S
C643 C644 1.410 . S
C643 C651 1.503 1_655 S
C644 C643 1.410 . S
C644 C645 1.392 . S
C644 C647 1.511 . S
C645 C641 1.376 . S
C645 C644 1.392 . S
C645 H657 0.929 . S
C646 C642 1.531 . S
C646 H658 0.960 . S
C646 H659 0.962 . S
C646 H660 0.960 . S
C647 C644 1.511 . S
C647 H661 0.961 1_655 S
C647 H662 0.961 1_655 S
C647 H663 0.961 . S
C648 C649 1.370 . S
C648 C650 1.363 . S
C648 H664 0.931 . S
C649 C648 1.370 . S
C649 C653 1.439 . S
C650 C648 1.363 . S
C650 C651 1.370 . S
C650 C654 1.524 . S
C651 C643 1.503 1_455 S
C651 C650 1.370 . S
C651 C652 1.403 1_455 S
C652 C651 1.403 1_655 S
C652 C653 1.389 1_655 S
C652 C655 1.539 . S
C653 C649 1.439 . S
C653 C652 1.389 1_455 S
C653 H665 0.914 1_455 S
C654 C650 1.524 . S
C654 H666 0.956 . S
C654 H667 0.961 . S
C654 H668 0.961 . S
C655 C652 1.539 . S
C655 H669 0.958 . S
C655 H670 0.961 . S
C655 H671 0.960 . S
H656 C640 0.931 . S
H657 C645 0.929 . S
H658 C646 0.960 . S
H659 C646 0.962 . S
H660 C646 0.960 . S
H661 C647 0.961 1_455 S
H662 C647 0.961 1_455 S
H663 C647 0.961 . S
H664 C648 0.931 . S
H665 C653 0.914 1_655 S
H666 C654 0.956 . S
H667 C654 0.961 . S
H668 C654 0.961 . S
H669 C655 0.958 . S
H670 C655 0.961 . S
H671 C655 0.960 . S
C672 C673 1.391 . S
C672 C674 1.394 . S
C672 H688 0.931 . S
C673 C672 1.391 . S
C673 C677 1.376 . S
C674 C672 1.394 . S
C674 C675 1.369 . S
C674 C678 1.531 . S
C675 C674 1.369 . S
C675 C676 1.410 . S
C675 C683 1.503 . S
C676 C675 1.410 . S
C676 C677 1.392 . S
C676 C679 1.511 . S
C677 C673 1.376 . S
C677 C676 1.392 . S
C677 H689 0.929 . S
C678 C674 1.531 . S
C678 H690 0.960 . S
C678 H691 0.962 . S
C678 H692 0.960 . S
C679 C676 1.511 . S
C679 H693 0.961 . S
C679 H694 0.961 . S
C679 H695 0.961 . S
C680 C681 1.370 . S
C680 C682 1.363 . S
C680 H696 0.931 . S
C681 C680 1.370 . S
C681 C685 1.408 . S
C682 C680 1.363 . S
C682 C683 1.370 . S
C682 C686 1.524 . S
C683 C675 1.503 . S
C683 C682 1.370 . S
C683 C684 1.403 . S
C684 C683 1.403 . S
C684 C685 1.404 . S
C684 C687 1.539 . S
C685 C681 1.408 . S
C685 C684 1.404 . S
C685 H697 0.930 . S
C686 C682 1.524 . S
C686 H698 0.956 . S
C686 H699 0.961 . S
C686 H700 0.961 . S
C687 C684 1.539 . S
C687 H701 0.958 . S
C687 H702 0.961 . S
C687 H703 0.960 . S
H688 C672 0.931 . S
H689 C677 0.929 . S
H690 C678 0.960 . S
H691 C678 0.962 . S
H692 C678 0.960 . S
H693 C679 0.961 . S
H694 C679 0.961 . S
H695 C679 0.961 . S
H696 C680 0.931 . S
H697 C685 0.930 . S
H698 C686 0.956 . S
H699 C686 0.961 . S
H700 C686 0.961 . S
H701 C687 0.958 . S
H702 C687 0.961 . S
H703 C687 0.960 . S
C704 C705 1.391 . S
C704 C706 1.394 . S
C704 H720 0.931 . S
C705 C704 1.391 . S
C705 C709 1.376 . S
C706 C704 1.394 . S
C706 C707 1.369 . S
C706 C710 1.531 . S
C707 C706 1.369 . S
C707 C708 1.410 . S
C707 C715 1.503 . S
C708 C707 1.410 . S
C708 C709 1.392 . S
C708 C711 1.511 . S
C709 C705 1.376 . S
C709 C708 1.392 . S
C709 H721 0.929 . S
C710 C706 1.531 . S
C710 H722 0.960 . S
C710 H723 0.962 . S
C710 H724 0.960 . S
C711 C708 1.511 . S
C711 H725 0.961 . S
C711 H726 0.961 . S
C711 H727 0.961 . S
C712 C713 1.370 . S
C712 C714 1.363 . S
C712 H728 0.931 . S
C713 C712 1.370 . S
C713 C717 1.408 . S
C714 C712 1.363 . S
C714 C715 1.370 . S
C714 C718 1.524 . S
C715 C707 1.503 . S
C715 C714 1.370 . S
C715 C716 1.403 . S
C716 C715 1.403 . S
C716 C717 1.404 . S
C716 C719 1.539 . S
C717 C713 1.408 . S
C717 C716 1.404 . S
C717 H729 0.930 . S
C718 C714 1.524 . S
C718 H730 0.956 . S
C718 H731 0.961 . S
C718 H732 0.961 . S
C719 C716 1.539 . S
C719 H733 0.958 . S
C719 H734 0.961 . S
C719 H735 0.960 . S
H720 C704 0.931 . S
H721 C709 0.929 . S
H722 C710 0.960 . S
H723 C710 0.962 . S
H724 C710 0.960 . S
H725 C711 0.961 . S
H726 C711 0.961 . S
H727 C711 0.961 . S
H728 C712 0.931 . S
H729 C717 0.930 . S
H730 C718 0.956 . S
H731 C718 0.961 . S
H732 C718 0.961 . S
H733 C719 0.958 . S
H734 C719 0.961 . S
H735 C719 0.960 . S
C736 C737 1.391 . S
C736 C738 1.394 . S
C736 H752 0.931 . S
C737 C736 1.391 . S
C737 C741 1.376 . S
C738 C736 1.394 . S
C738 C739 1.369 . S
C738 C742 1.531 1_655 S
C739 C738 1.369 . S
C739 C740 1.410 . S
C739 C747 1.503 1_655 S
C740 C739 1.410 . S
C740 C741 1.392 . S
C740 C743 1.511 . S
C741 C737 1.376 . S
C741 C740 1.392 . S
C741 H753 0.929 . S
C742 C738 1.531 1_455 S
C742 H754 0.960 . S
C742 H755 0.962 . S
C742 H756 0.960 . S
C743 C740 1.511 . S
C743 H757 0.961 . S
C743 H758 0.961 . S
C743 H759 0.961 . S
C744 C745 1.370 . S
C744 C746 1.363 . S
C744 H760 0.931 . S
C745 C744 1.370 . S
C745 C749 1.408 . S
C746 C744 1.363 . S
C746 C747 1.370 . S
C746 C750 1.524 . S
C747 C739 1.503 1_455 S
C747 C746 1.370 . S
C747 C748 1.403 . S
C748 C747 1.403 . S
C748 C749 1.404 . S
C748 C751 1.539 . S
C749 C745 1.408 . S
C749 C748 1.404 . S
C749 H761 0.930 . S
C750 C746 1.524 . S
C750 H762 0.956 . S
C750 H763 0.961 1_455 S
C750 H764 0.961 . S
C751 C748 1.539 . S
C751 H765 0.958 . S
C751 H766 0.961 . S
C751 H767 0.960 1_455 S
H752 C736 0.931 . S
H753 C741 0.929 . S
H754 C742 0.960 . S
H755 C742 0.962 . S
H756 C742 0.960 . S
H757 C743 0.961 . S
H758 C743 0.961 . S
H759 C743 0.961 . S
H760 C744 0.931 . S
H761 C749 0.930 . S
H762 C750 0.956 . S
H763 C750 0.961 1_655 S
H764 C750 0.961 . S
H765 C751 0.958 . S
H766 C751 0.961 . S
H767 C751 0.960 1_655 S
C768 C769 1.391 . S
C768 C770 1.394 1_455 S
C768 H784 0.931 1_455 S
C769 C768 1.391 . S
C769 C773 1.376 . S
C770 C768 1.394 1_655 S
C770 C771 1.369 1_655 S
C770 C774 1.531 . S
C771 C770 1.369 1_455 S
C771 C772 1.410 . S
C771 C779 1.503 1_455 S
C772 C771 1.410 . S
C772 C773 1.392 . S
C772 C775 1.511 . S
C773 C769 1.376 . S
C773 C772 1.392 . S
C773 H785 0.929 . S
C774 C770 1.531 . S
C774 H786 0.960 . S
C774 H787 0.962 . S
C774 H788 0.960 . S
C775 C772 1.511 . S
C775 H789 0.961 . S
C775 H790 0.961 . S
C775 H791 0.961 . S
C776 C777 1.370 . S
C776 C778 1.363 . S
C776 H792 0.931 . S
C777 C776 1.370 . S
C777 C781 1.408 . S
C778 C776 1.363 . S
C778 C779 1.370 . S
C778 C782 1.524 1_655 S
C779 C771 1.503 1_655 S
C779 C778 1.370 . S
C779 C780 1.403 . S
C780 C779 1.403 . S
C780 C781 1.404 . S
C780 C783 1.539 . S
C781 C777 1.408 . S
C781 C780 1.404 . S
C781 H793 0.930 . S
C782 C778 1.524 1_455 S
C782 H794 0.956 1_455 S
C782 H795 0.961 . S
C782 H796 0.961 . S
C783 C780 1.539 . S
C783 H797 0.958 . S
C783 H798 0.961 . S
C783 H799 0.960 . S
H784 C768 0.931 1_655 S
H785 C773 0.929 . S
H786 C774 0.960 . S
H787 C774 0.962 . S
H788 C774 0.960 . S
H789 C775 0.961 . S
H790 C775 0.961 . S
H791 C775 0.961 . S
H792 C776 0.931 . S
H793 C781 0.930 . S
H794 C782 0.956 1_655 S
H795 C782 0.961 . S
H796 C782 0.961 . S
H797 C783 0.958 . S
H798 C783 0.961 . S
H799 C783 0.960 . S
C800 C801 1.391 . S
C800 C802 1.394 . S
C800 H816 0.931 . S
C801 C800 1.391 . S
C801 C805 1.376 1_556 S
C802 C800 1.394 . S
C802 C803 1.369 1_556 S
C802 C806 1.531 . S
C803 C802 1.369 1_554 S
C803 C804 1.410 . S
C803 C811 1.503 . S
C804 C803 1.410 . S
C804 C805 1.392 . S
C804 C807 1.511 . S
C805 C801 1.376 1_554 S
C805 C804 1.392 . S
C805 H817 0.929 . S
C806 C802 1.531 . S
C806 H818 0.960 . S
C806 H819 0.962 . S
C806 H820 0.960 . S
C807 C804 1.511 . S
C807 H821 0.961 . S
C807 H822 0.961 . S
C807 H823 0.961 . S
C808 C809 1.370 . S
C808 C810 1.363 . S
C808 H824 0.931 . S
C809 C808 1.370 . S
C809 C813 1.408 . S
C810 C808 1.363 . S
C810 C811 1.370 . S
C810 C814 1.524 . S
C811 C803 1.503 . S
C811 C810 1.370 . S
C811 C812 1.403 . S
C812 C811 1.403 . S
C812 C813 1.404 . S
C812 C815 1.539 . S
C813 C809 1.408 . S
C813 C812 1.404 . S
C813 H825 0.930 . S
C814 C810 1.524 . S
C814 H826 0.956 1_554 S
C814 H827 0.961 . S
C814 H828 0.961 . S
C815 C812 1.539 . S
C815 H829 0.958 . S
C815 H830 0.961 . S
C815 H831 0.960 . S
H816 C800 0.931 . S
H817 C805 0.929 . S
H818 C806 0.960 . S
H819 C806 0.962 . S
H820 C806 0.960 . S
H821 C807 0.961 . S
H822 C807 0.961 . S
H823 C807 0.961 . S
H824 C808 0.931 . S
H825 C813 0.930 . S
H826 C814 0.956 1_556 S
H827 C814 0.961 . S
H828 C814 0.961 . S
H829 C815 0.958 . S
H830 C815 0.961 . S
H831 C815 0.960 . S
C832 C833 1.391 . S
C832 C834 1.394 . S
C832 H848 0.931 . S
C833 C832 1.391 . S
C833 C837 1.376 . S
C834 C832 1.394 . S
C834 C835 1.369 . S
C834 C838 1.531 . S
C835 C834 1.369 . S
C835 C836 1.410 . S
C835 C843 1.503 . S
C836 C835 1.410 . S
C836 C837 1.392 . S
C836 C839 1.511 . S
C837 C833 1.376 . S
C837 C836 1.392 . S
C837 H849 0.929 . S
C838 C834 1.531 . S
C838 H850 0.960 . S
C838 H851 0.962 . S
C838 H852 0.960 . S
C839 C836 1.511 . S
C839 H853 0.961 . S
C839 H854 0.961 . S
C839 H855 0.961 . S
C840 C841 1.370 . S
C840 C842 1.363 . S
C840 H856 0.931 . S
C841 C840 1.370 . S
C841 C845 1.408 . S
C842 C840 1.363 . S
C842 C843 1.370 . S
C842 C846 1.524 . S
C843 C835 1.503 . S
C843 C842 1.370 . S
C843 C844 1.403 . S
C844 C843 1.403 . S
C844 C845 1.404 . S
C844 C847 1.539 . S
C845 C841 1.408 . S
C845 C844 1.404 . S
C845 H857 0.930 . S
C846 C842 1.524 . S
C846 H858 0.956 . S
C846 H859 0.961 . S
C846 H860 0.961 . S
C847 C844 1.539 . S
C847 H861 0.958 . S
C847 H862 0.961 . S
C847 H863 0.960 . S
H848 C832 0.931 . S
H849 C837 0.929 . S
H850 C838 0.960 . S
H851 C838 0.962 . S
H852 C838 0.960 . S
H853 C839 0.961 . S
H854 C839 0.961 . S
H855 C839 0.961 . S
H856 C840 0.931 . S
H857 C845 0.930 . S
H858 C846 0.956 . S
H859 C846 0.961 . S
H860 C846 0.961 . S
H861 C847 0.958 . S
H862 C847 0.961 . S
H863 C847 0.960 . S
C864 C865 1.391 . S
C864 C866 1.394 . S
C864 H880 0.931 . S
C865 C864 1.391 . S
C865 C869 1.376 . S
C866 C864 1.394 . S
C866 C867 1.369 . S
C866 C870 1.531 . S
C867 C866 1.369 . S
C867 C868 1.410 . S
C867 C875 1.503 . S
C868 C867 1.410 . S
C868 C869 1.392 . S
C868 C871 1.511 . S
C869 C865 1.376 . S
C869 C868 1.392 . S
C869 H881 0.929 . S
C870 C866 1.531 . S
C870 H882 0.960 . S
C870 H883 0.962 . S
C870 H884 0.960 . S
C871 C868 1.511 . S
C871 H885 0.961 . S
C871 H886 0.961 . S
C871 H887 0.961 . S
C872 C873 1.370 . S
C872 C874 1.363 . S
C872 H888 0.931 . S
C873 C872 1.370 . S
C873 C877 1.408 . S
C874 C872 1.363 . S
C874 C875 1.370 . S
C874 C878 1.524 . S
C875 C867 1.503 . S
C875 C874 1.370 . S
C875 C876 1.403 . S
C876 C875 1.403 . S
C876 C877 1.404 . S
C876 C879 1.539 . S
C877 C873 1.408 . S
C877 C876 1.404 . S
C877 H889 0.930 . S
C878 C874 1.524 . S
C878 H890 0.956 . S
C878 H891 0.961 . S
C878 H892 0.961 . S
C879 C876 1.539 . S
C879 H893 0.958 . S
C879 H894 0.961 . S
C879 H895 0.960 . S
H880 C864 0.931 . S
H881 C869 0.929 . S
H882 C870 0.960 . S
H883 C870 0.962 . S
H884 C870 0.960 . S
H885 C871 0.961 . S
H886 C871 0.961 . S
H887 C871 0.961 . S
H888 C872 0.931 . S
H889 C877 0.930 . S
H890 C878 0.956 . S
H891 C878 0.961 . S
H892 C878 0.961 . S
H893 C879 0.958 . S
H894 C879 0.961 . S
H895 C879 0.960 . S
C896 C897 1.391 . S
C896 C898 1.394 . S
C896 H912 0.931 . S
C897 C896 1.391 . S
C897 C901 1.376 . S
C898 C896 1.394 . S
C898 C899 1.369 . S
C898 C902 1.531 . S
C899 C898 1.369 . S
C899 C900 1.410 . S
C899 C907 1.503 . S
C900 C899 1.410 . S
C900 C901 1.392 . S
C900 C903 1.511 . S
C901 C897 1.376 . S
C901 C900 1.392 . S
C901 H913 0.929 . S
C902 C898 1.531 . S
C902 H914 0.960 . S
C902 H915 0.962 . S
C902 H916 0.960 . S
C903 C900 1.511 . S
C903 H917 0.961 . S
C903 H918 0.961 . S
C903 H919 0.961 . S
C904 C905 1.370 . S
C904 C906 1.363 . S
C904 H920 0.931 . S
C905 C904 1.370 . S
C905 C909 1.408 . S
C906 C904 1.363 . S
C906 C907 1.370 . S
C906 C910 1.524 . S
C907 C899 1.503 . S
C907 C906 1.370 . S
C907 C908 1.403 . S
C908 C907 1.403 . S
C908 C909 1.404 . S
C908 C911 1.539 . S
C909 C905 1.408 . S
C909 C908 1.404 . S
C909 H921 0.930 . S
C910 C906 1.524 . S
C910 H922 0.956 . S
C910 H923 0.961 . S
C910 H924 0.961 . S
C911 C908 1.539 . S
C911 H925 0.958 . S
C911 H926 0.961 . S
C911 H927 0.960 . S
H912 C896 0.931 . S
H913 C901 0.929 . S
H914 C902 0.960 . S
H915 C902 0.962 . S
H916 C902 0.960 . S
H917 C903 0.961 . S
H918 C903 0.961 . S
H919 C903 0.961 . S
H920 C904 0.931 . S
H921 C909 0.930 . S
H922 C910 0.956 . S
H923 C910 0.961 . S
H924 C910 0.961 . S
H925 C911 0.958 . S
H926 C911 0.961 . S
H927 C911 0.960 . S
C928 C929 1.391 . S
C928 C930 1.394 . S
C928 H944 0.931 . S
C929 C928 1.391 . S
C929 C933 1.376 . S
C930 C928 1.394 . S
C930 C931 1.369 . S
C930 C934 1.531 1_556 S
C931 C930 1.369 . S
C931 C932 1.410 . S
C931 C939 1.503 . S
C932 C931 1.410 . S
C932 C933 1.392 . S
C932 C935 1.511 . S
C933 C929 1.376 . S
C933 C932 1.392 . S
C933 H945 0.929 . S
C934 C930 1.531 1_554 S
C934 H946 0.960 . S
C934 H947 0.962 . S
C934 H948 0.960 . S
C935 C932 1.511 . S
C935 H949 0.961 . S
C935 H950 0.961 . S
C935 H951 0.961 . S
C936 C937 1.370 . S
C936 C938 1.363 . S
C936 H952 0.931 . S
C937 C936 1.370 . S
C937 C941 1.408 1_554 S
C938 C936 1.363 . S
C938 C939 1.370 1_554 S
C938 C942 1.524 . S
C939 C931 1.503 . S
C939 C938 1.370 1_556 S
C939 C940 1.403 . S
C940 C939 1.403 . S
C940 C941 1.404 . S
C940 C943 1.539 . S
C941 C937 1.408 1_556 S
C941 C940 1.404 . S
C941 H953 0.930 . S
C942 C938 1.524 . S
C942 H954 0.956 . S
C942 H955 0.961 . S
C942 H956 0.961 . S
C943 C940 1.539 . S
C943 H957 0.958 . S
C943 H958 0.961 . S
C943 H959 0.960 . S
H944 C928 0.931 . S
H945 C933 0.929 . S
H946 C934 0.960 . S
H947 C934 0.962 . S
H948 C934 0.960 . S
H949 C935 0.961 . S
H950 C935 0.961 . S
H951 C935 0.961 . S
H952 C936 0.931 . S
H953 C941 0.930 . S
H954 C942 0.956 . S
H955 C942 0.961 . S
H956 C942 0.961 . S
H957 C943 0.958 . S
H958 C943 0.961 . S
H959 C943 0.960 . S
C960 C961 1.391 . S
C960 C962 1.394 . S
C960 H976 0.931 . S
C961 C960 1.391 . S
C961 C965 1.376 . S
C962 C960 1.394 . S
C962 C963 1.369 . S
C962 C966 1.531 . S
C963 C962 1.369 . S
C963 C964 1.410 . S
C963 C971 1.503 . S
C964 C963 1.410 . S
C964 C965 1.392 . S
C964 C967 1.511 . S
C965 C961 1.376 . S
C965 C964 1.392 . S
C965 H977 0.929 . S
C966 C962 1.531 . S
C966 H978 0.960 . S
C966 H979 0.962 . S
C966 H980 0.960 . S
C967 C964 1.511 . S
C967 H981 0.961 . S
C967 H982 0.961 . S
C967 H983 0.961 . S
C968 C969 1.370 . S
C968 C970 1.363 . S
C968 H984 0.931 . S
C969 C968 1.370 . S
C969 C973 1.408 . S
C970 C968 1.363 . S
C970 C971 1.370 . S
C970 C974 1.524 . S
C971 C963 1.503 . S
C971 C970 1.370 . S
C971 C972 1.403 . S
C972 C971 1.403 . S
C972 C973 1.404 . S
C972 C975 1.539 . S
C973 C969 1.408 . S
C973 C972 1.404 . S
C973 H985 0.930 . S
C974 C970 1.524 . S
C974 H986 0.956 . S
C974 H987 0.961 . S
C974 H988 0.961 . S
C975 C972 1.539 . S
C975 H989 0.958 . S
C975 H990 0.961 . S
C975 H991 0.960 . S
H976 C960 0.931 . S
H977 C965 0.929 . S
H978 C966 0.960 . S
H979 C966 0.962 . S
H980 C966 0.960 . S
H981 C967 0.961 . S
H982 C967 0.961 . S
H983 C967 0.961 . S
H984 C968 0.931 . S
H985 C973 0.930 . S
H986 C974 0.956 . S
H987 C974 0.961 . S
H988 C974 0.961 . S
H989 C975 0.958 . S
H990 C975 0.961 . S
H991 C975 0.960 . S
C992 C993 1.391 . S
C992 C994 1.394 . S
C992 H1008 0.931 . S
C993 C992 1.391 . S
C993 C997 1.376 . S
C994 C992 1.394 . S
C994 C995 1.369 . S
C994 C998 1.531 . S
C995 C994 1.369 . S
C995 C996 1.410 . S
C995 C1003 1.503 . S
C996 C995 1.410 . S
C996 C997 1.392 . S
C996 C999 1.511 . S
C997 C993 1.376 . S
C997 C996 1.392 . S
C997 H1009 0.929 . S
C998 C994 1.531 . S
C998 H1010 0.960 . S
C998 H1011 0.962 . S
C998 H1012 0.960 . S
C999 C996 1.511 . S
C999 H1013 0.961 . S
C999 H1014 0.961 . S
C999 H1015 0.961 . S
C1000 C1001 1.370 . S
C1000 C1002 1.363 . S
C1000 H1016 0.931 . S
C1001 C1000 1.370 . S
C1001 C1005 1.408 . S
C1002 C1000 1.363 . S
C1002 C1003 1.370 . S
C1002 C1006 1.524 . S
C1003 C995 1.503 . S
C1003 C1002 1.370 . S
C1003 C1004 1.403 . S
C1004 C1003 1.403 . S
C1004 C1005 1.404 . S
C1004 C1007 1.539 . S
C1005 C1001 1.408 . S
C1005 C1004 1.404 . S
C1005 H1017 0.930 . S
C1006 C1002 1.524 . S
C1006 H1018 0.956 . S
C1006 H1019 0.961 . S
C1006 H1020 0.961 . S
C1007 C1004 1.539 . S
C1007 H1021 0.958 . S
C1007 H1022 0.961 . S
C1007 H1023 0.960 . S
H1008 C992 0.931 . S
H1009 C997 0.929 . S
H1010 C998 0.960 . S
H1011 C998 0.962 . S
H1012 C998 0.960 . S
H1013 C999 0.961 . S
H1014 C999 0.961 . S
H1015 C999 0.961 . S
H1016 C1000 0.931 . S
H1017 C1005 0.930 . S
H1018 C1006 0.956 . S
H1019 C1006 0.961 . S
H1020 C1006 0.961 . S
H1021 C1007 0.958 . S
H1022 C1007 0.961 . S
H1023 C1007 0.960 . S
C1024 C1025 1.391 . S
C1024 C1026 1.394 . S
C1024 H1040 0.931 . S
C1025 C1024 1.391 . S
C1025 C1029 1.376 . S
C1026 C1024 1.394 . S
C1026 C1027 1.369 . S
C1026 C1030 1.531 . S
C1027 C1026 1.369 . S
C1027 C1028 1.410 . S
C1027 C1035 1.503 . S
C1028 C1027 1.410 . S
C1028 C1029 1.392 . S
C1028 C1031 1.511 . S
C1029 C1025 1.376 . S
C1029 C1028 1.392 . S
C1029 H1041 0.929 . S
C1030 C1026 1.531 . S
C1030 H1042 0.960 . S
C1030 H1043 0.962 . S
C1030 H1044 0.960 . S
C1031 C1028 1.511 . S
C1031 H1045 0.961 . S
C1031 H1046 0.961 . S
C1031 H1047 0.961 . S
C1032 C1033 1.370 . S
C1032 C1034 1.363 . S
C1032 H1048 0.931 . S
C1033 C1032 1.370 . S
C1033 C1037 1.408 . S
C1034 C1032 1.363 . S
C1034 C1035 1.370 . S
C1034 C1038 1.524 . S
C1035 C1027 1.503 . S
C1035 C1034 1.370 . S
C1035 C1036 1.403 . S
C1036 C1035 1.403 . S
C1036 C1037 1.404 . S
C1036 C1039 1.539 . S
C1037 C1033 1.408 . S
C1037 C1036 1.404 . S
C1037 H1049 0.930 . S
C1038 C1034 1.524 . S
C1038 H1050 0.956 . S
C1038 H1051 0.961 . S
C1038 H1052 0.961 . S
C1039 C1036 1.539 . S
C1039 H1053 0.958 . S
C1039 H1054 0.961 . S
C1039 H1055 0.960 . S
H1040 C1024 0.931 . S
H1041 C1029 0.929 . S
H1042 C1030 0.960 . S
H1043 C1030 0.962 . S
H1044 C1030 0.960 . S
H1045 C1031 0.961 . S
H1046 C1031 0.961 . S
H1047 C1031 0.961 . S
H1048 C1032 0.931 . S
H1049 C1037 0.930 . S
H1050 C1038 0.956 . S
H1051 C1038 0.961 . S
H1052 C1038 0.961 . S
H1053 C1039 0.958 . S
H1054 C1039 0.961 . S
H1055 C1039 0.960 . S
C1056 C1057 1.391 . S
C1056 C1058 1.394 . S
C1056 H1072 0.931 . S
C1057 C1056 1.391 . S
C1057 C1061 1.376 . S
C1058 C1056 1.394 . S
C1058 C1059 1.369 . S
C1058 C1062 1.531 . S
C1059 C1058 1.369 . S
C1059 C1060 1.410 . S
C1059 C1067 1.503 . S
C1060 C1059 1.410 . S
C1060 C1061 1.392 . S
C1060 C1063 1.511 . S
C1061 C1057 1.376 . S
C1061 C1060 1.392 . S
C1061 H1073 0.929 . S
C1062 C1058 1.531 . S
C1062 H1074 0.960 . S
C1062 H1075 0.962 . S
C1062 H1076 0.960 . S
C1063 C1060 1.511 . S
C1063 H1077 0.961 . S
C1063 H1078 0.961 . S
C1063 H1079 0.961 . S
C1064 C1065 1.370 . S
C1064 C1066 1.363 . S
C1064 H1080 0.931 . S
C1065 C1064 1.370 . S
C1065 C1069 1.408 . S
C1066 C1064 1.363 . S
C1066 C1067 1.370 . S
C1066 C1070 1.524 . S
C1067 C1059 1.503 . S
C1067 C1066 1.370 . S
C1067 C1068 1.403 . S
C1068 C1067 1.403 . S
C1068 C1069 1.404 . S
C1068 C1071 1.539 . S
C1069 C1065 1.408 . S
C1069 C1068 1.404 . S
C1069 H1081 0.930 . S
C1070 C1066 1.524 . S
C1070 H1082 0.956 . S
C1070 H1083 0.961 . S
C1070 H1084 0.961 . S
C1071 C1068 1.539 . S
C1071 H1085 0.958 . S
C1071 H1086 0.961 . S
C1071 H1087 0.960 . S
H1072 C1056 0.931 . S
H1073 C1061 0.929 . S
H1074 C1062 0.960 . S
H1075 C1062 0.962 . S
H1076 C1062 0.960 . S
H1077 C1063 0.961 . S
H1078 C1063 0.961 . S
H1079 C1063 0.961 . S
H1080 C1064 0.931 . S
H1081 C1069 0.930 . S
H1082 C1070 0.956 . S
H1083 C1070 0.961 . S
H1084 C1070 0.961 . S
H1085 C1071 0.958 . S
H1086 C1071 0.961 . S
H1087 C1071 0.960 . S
C1088 C1089 1.391 . S
C1088 C1090 1.394 . S
C1088 H1104 0.931 . S
C1089 C1088 1.391 . S
C1089 C1093 1.376 . S
C1090 C1088 1.394 . S
C1090 C1091 1.374 . S
C1090 C1094 1.531 . S
C1091 C1090 1.374 . S
C1091 C1092 1.410 . S
C1091 C1099 1.498 1_545 S
C1092 C1091 1.410 . S
C1092 C1093 1.392 . S
C1092 C1095 1.511 1_545 S
C1093 C1089 1.376 . S
C1093 C1092 1.392 . S
C1093 H1105 0.929 . S
C1094 C1090 1.531 . S
C1094 H1106 0.960 . S
C1094 H1107 0.962 . S
C1094 H1108 0.960 . S
C1095 C1092 1.511 1_565 S
C1095 H1109 0.961 . S
C1095 H1110 0.961 . S
C1095 H1111 0.961 . S
C1096 C1097 1.370 . S
C1096 C1098 1.363 . S
C1096 H1112 0.931 . S
C1097 C1096 1.370 . S
C1097 C1101 1.408 . S
C1098 C1096 1.363 . S
C1098 C1099 1.370 . S
C1098 C1102 1.524 . S
C1099 C1091 1.498 1_565 S
C1099 C1098 1.370 . S
C1099 C1100 1.403 . S
C1100 C1099 1.403 . S
C1100 C1101 1.404 . S
C1100 C1103 1.539 . S
C1101 C1097 1.408 . S
C1101 C1100 1.404 . S
C1101 H1113 0.930 . S
C1102 C1098 1.524 . S
C1102 H1114 0.956 . S
C1102 H1115 0.961 . S
C1102 H1116 0.961 . S
C1103 C1100 1.539 . S
C1103 H1117 0.958 . S
C1103 H1118 0.961 . S
C1103 H1119 0.960 . S
H1104 C1088 0.931 . S
H1105 C1093 0.929 . S
H1106 C1094 0.960 . S
H1107 C1094 0.962 . S
H1108 C1094 0.960 . S
H1109 C1095 0.961 . S
H1110 C1095 0.961 . S
H1111 C1095 0.961 . S
H1112 C1096 0.931 . S
H1113 C1101 0.930 . S
H1114 C1102 0.956 . S
H1115 C1102 0.961 . S
H1116 C1102 0.961 . S
H1117 C1103 0.958 . S
H1118 C1103 0.961 . S
H1119 C1103 0.960 . S
C1120 C1121 1.391 . S
C1120 C1122 1.394 . S
C1120 H1136 0.931 . S
C1121 C1120 1.391 . S
C1121 C1125 1.376 . S
C1122 C1120 1.394 . S
C1122 C1123 1.369 . S
C1122 C1126 1.531 . S
C1123 C1122 1.369 . S
C1123 C1124 1.410 . S
C1123 C1131 1.503 . S
C1124 C1123 1.410 . S
C1124 C1125 1.392 . S
C1124 C1127 1.511 . S
C1125 C1121 1.376 . S
C1125 C1124 1.392 . S
C1125 H1137 0.929 . S
C1126 C1122 1.531 . S
C1126 H1138 0.960 . S
C1126 H1139 0.962 1_554 S
C1126 H1140 0.960 . S
C1127 C1124 1.511 . S
C1127 H1141 0.961 . S
C1127 H1142 0.961 . S
C1127 H1143 0.961 . S
C1128 C1129 1.370 . S
C1128 C1130 1.363 . S
C1128 H1144 0.931 . S
C1129 C1128 1.370 . S
C1129 C1133 1.408 1_556 S
C1130 C1128 1.363 . S
C1130 C1131 1.370 1_556 S
C1130 C1134 1.524 . S
C1131 C1123 1.503 . S
C1131 C1130 1.370 1_554 S
C1131 C1132 1.403 . S
C1132 C1131 1.403 . S
C1132 C1133 1.404 . S
C1132 C1135 1.539 . S
C1133 C1129 1.408 1_554 S
C1133 C1132 1.404 . S
C1133 H1145 0.930 . S
C1134 C1130 1.524 . S
C1134 H1146 0.956 . S
C1134 H1147 0.961 . S
C1134 H1148 0.961 . S
C1135 C1132 1.539 . S
C1135 H1149 0.958 . S
C1135 H1150 0.961 . S
C1135 H1151 0.960 . S
H1136 C1120 0.931 . S
H1137 C1125 0.929 . S
H1138 C1126 0.960 . S
H1139 C1126 0.962 1_556 S
H1140 C1126 0.960 . S
H1141 C1127 0.961 . S
H1142 C1127 0.961 . S
H1143 C1127 0.961 . S
H1144 C1128 0.931 . S
H1145 C1133 0.930 . S
H1146 C1134 0.956 . S
H1147 C1134 0.961 . S
H1148 C1134 0.961 . S
H1149 C1135 0.958 . S
H1150 C1135 0.961 . S
H1151 C1135 0.960 . S
C1152 C1153 1.391 . S
C1152 C1154 1.394 . S
C1152 H1168 0.931 . S
C1153 C1152 1.391 . S
C1153 C1157 1.376 . S
C1154 C1152 1.394 . S
C1154 C1155 1.369 1_565 S
C1154 C1158 1.531 1_565 S
C1155 C1154 1.369 1_545 S
C1155 C1156 1.410 1_545 S
C1155 C1163 1.503 . S
C1156 C1155 1.410 1_565 S
C1156 C1157 1.392 . S
C1156 C1159 1.511 1_565 S
C1157 C1153 1.376 . S
C1157 C1156 1.392 . S
C1157 H1169 0.929 . S
C1158 C1154 1.531 1_545 S
C1158 H1170 0.960 . S
C1158 H1171 0.962 . S
C1158 H1172 0.960 . S
C1159 C1156 1.511 1_545 S
C1159 H1173 0.961 1_545 S
C1159 H1174 0.961 . S
C1159 H1175 0.961 . S
C1160 C1161 1.370 . S
C1160 C1162 1.363 . S
C1160 H1176 0.931 . S
C1161 C1160 1.370 . S
C1161 C1165 1.408 . S
C1162 C1160 1.363 . S
C1162 C1163 1.370 . S
C1162 C1166 1.524 . S
C1163 C1155 1.503 . S
C1163 C1162 1.370 . S
C1163 C1164 1.403 . S
C1164 C1163 1.403 . S
C1164 C1165 1.404 . S
C1164 C1167 1.539 . S
C1165 C1161 1.408 . S
C1165 C1164 1.404 . S
C1165 H1177 0.930 . S
C1166 C1162 1.524 . S
C1166 H1178 0.956 1_545 S
C1166 H1179 0.961 1_545 S
C1166 H1180 0.961 . S
C1167 C1164 1.539 . S
C1167 H1181 0.958 . S
C1167 H1182 0.961 . S
C1167 H1183 0.960 . S
H1168 C1152 0.931 . S
H1169 C1157 0.929 . S
H1170 C1158 0.960 . S
H1171 C1158 0.962 . S
H1172 C1158 0.960 . S
H1173 C1159 0.961 1_565 S
H1174 C1159 0.961 . S
H1175 C1159 0.961 . S
H1176 C1160 0.931 . S
H1177 C1165 0.930 . S
H1178 C1166 0.956 1_565 S
H1179 C1166 0.961 1_565 S
H1180 C1166 0.961 . S
H1181 C1167 0.958 . S
H1182 C1167 0.961 . S
H1183 C1167 0.960 . S
C1184 C1185 1.391 . S
C1184 C1186 1.394 . S
C1184 H1200 0.931 . S
C1185 C1184 1.391 . S
C1185 C1189 1.376 . S
C1186 C1184 1.394 . S
C1186 C1187 1.369 . S
C1186 C1190 1.531 . S
C1187 C1186 1.369 . S
C1187 C1188 1.410 . S
C1187 C1195 1.503 . S
C1188 C1187 1.410 . S
C1188 C1189 1.392 . S
C1188 C1191 1.511 . S
C1189 C1185 1.376 . S
C1189 C1188 1.392 . S
C1189 H1201 0.929 . S
C1190 C1186 1.531 . S
C1190 H1202 0.960 . S
C1190 H1203 0.962 . S
C1190 H1204 0.960 . S
C1191 C1188 1.511 . S
C1191 H1205 0.961 . S
C1191 H1206 0.961 . S
C1191 H1207 0.961 . S
C1192 C1193 1.370 . S
C1192 C1194 1.363 . S
C1192 H1208 0.931 . S
C1193 C1192 1.370 . S
C1193 C1197 1.408 . S
C1194 C1192 1.363 . S
C1194 C1195 1.370 . S
C1194 C1198 1.524 . S
C1195 C1187 1.503 . S
C1195 C1194 1.370 . S
C1195 C1196 1.403 . S
C1196 C1195 1.403 . S
C1196 C1197 1.404 . S
C1196 C1199 1.539 . S
C1197 C1193 1.408 . S
C1197 C1196 1.404 . S
C1197 H1209 0.930 . S
C1198 C1194 1.524 . S
C1198 H1210 0.956 . S
C1198 H1211 0.961 . S
C1198 H1212 0.961 . S
C1199 C1196 1.539 . S
C1199 H1213 0.958 . S
C1199 H1214 0.961 . S
C1199 H1215 0.960 . S
H1200 C1184 0.931 . S
H1201 C1189 0.929 . S
H1202 C1190 0.960 . S
H1203 C1190 0.962 . S
H1204 C1190 0.960 . S
H1205 C1191 0.961 . S
H1206 C1191 0.961 . S
H1207 C1191 0.961 . S
H1208 C1192 0.931 . S
H1209 C1197 0.930 . S
H1210 C1198 0.956 . S
H1211 C1198 0.961 . S
H1212 C1198 0.961 . S
H1213 C1199 0.958 . S
H1214 C1199 0.961 . S
H1215 C1199 0.960 . S
C1216 C1217 1.391 . S
C1216 C1218 1.394 . S
C1216 H1232 0.931 . S
C1217 C1216 1.391 . S
C1217 C1221 1.376 . S
C1218 C1216 1.394 . S
C1218 C1219 1.369 . S
C1218 C1222 1.531 . S
C1219 C1218 1.369 . S
C1219 C1220 1.410 . S
C1219 C1227 1.487 1_545 S
C1220 C1219 1.410 . S
C1220 C1221 1.392 . S
C1220 C1223 1.511 . S
C1221 C1217 1.376 . S
C1221 C1220 1.392 . S
C1221 H1233 0.929 . S
C1222 C1218 1.531 . S
C1222 H1234 0.960 . S
C1222 H1235 0.962 . S
C1222 H1236 0.960 . S
C1223 C1220 1.511 . S
C1223 H1237 0.961 . S
C1223 H1238 0.961 1_545 S
C1223 H1239 0.938 1_545 S
C1224 C1225 1.370 . S
C1224 C1226 1.363 . S
C1224 H1240 0.931 . S
C1225 C1224 1.370 . S
C1225 C1229 1.408 . S
C1226 C1224 1.363 . S
C1226 C1227 1.372 . S
C1226 C1230 1.524 1_565 S
C1227 C1219 1.487 1_565 S
C1227 C1226 1.372 . S
C1227 C1228 1.417 . S
C1228 C1227 1.417 . S
C1228 C1229 1.404 . S
C1228 C1231 1.539 . S
C1229 C1225 1.408 . S
C1229 C1228 1.404 . S
C1229 H1241 0.930 . S
C1230 C1226 1.524 1_545 S
C1230 H1242 0.956 . S
C1230 H1243 0.961 . S
C1230 H1244 0.961 . S
C1231 C1228 1.539 . S
C1231 H1245 0.958 . S
C1231 H1246 0.961 . S
C1231 H1247 0.960 . S
H1232 C1216 0.931 . S
H1233 C1221 0.929 . S
H1234 C1222 0.960 . S
H1235 C1222 0.962 . S
H1236 C1222 0.960 . S
H1237 C1223 0.961 . S
H1238 C1223 0.961 1_565 S
H1239 C1223 0.938 1_565 S
H1240 C1224 0.931 . S
H1241 C1229 0.930 . S
H1242 C1230 0.956 . S
H1243 C1230 0.961 . S
H1244 C1230 0.961 . S
H1245 C1231 0.958 . S
H1246 C1231 0.961 . S
H1247 C1231 0.960 . S
C1248 C1249 1.391 . S
C1248 C1250 1.394 . S
C1248 H1264 0.931 . S
C1249 C1248 1.391 . S
C1249 C1253 1.376 . S
C1250 C1248 1.394 . S
C1250 C1251 1.369 . S
C1250 C1254 1.531 . S
C1251 C1250 1.369 . S
C1251 C1252 1.408 1_554 S
C1251 C1259 1.503 1_554 S
C1252 C1251 1.408 1_556 S
C1252 C1253 1.389 1_556 S
C1252 C1255 1.516 . S
C1253 C1249 1.376 . S
C1253 C1252 1.389 1_554 S
C1253 H1265 0.929 . S
C1254 C1250 1.531 . S
C1254 H1266 0.960 . S
C1254 H1267 0.962 . S
C1254 H1268 0.960 . S
C1255 C1252 1.516 . S
C1255 H1269 0.961 . S
C1255 H1270 0.961 . S
C1255 H1271 0.961 1_556 S
C1256 C1257 1.370 . S
C1256 C1258 1.363 . S
C1256 H1272 0.931 . S
C1257 C1256 1.370 . S
C1257 C1261 1.408 . S
C1258 C1256 1.363 . S
C1258 C1259 1.370 . S
C1258 C1262 1.524 . S
C1259 C1251 1.503 1_556 S
C1259 C1258 1.370 . S
C1259 C1260 1.403 1_556 S
C1260 C1259 1.403 1_554 S
C1260 C1261 1.404 1_554 S
C1260 C1263 1.539 . S
C1261 C1257 1.408 . S
C1261 C1260 1.404 1_556 S
C1261 H1273 0.930 1_556 S
C1262 C1258 1.524 . S
C1262 H1274 0.956 . S
C1262 H1275 0.961 . S
C1262 H1276 0.961 . S
C1263 C1260 1.539 . S
C1263 H1277 0.958 . S
C1263 H1278 0.961 . S
C1263 H1279 0.960 . S
H1264 C1248 0.931 . S
H1265 C1253 0.929 . S
H1266 C1254 0.960 . S
H1267 C1254 0.962 . S
H1268 C1254 0.960 . S
H1269 C1255 0.961 . S
H1270 C1255 0.961 . S
H1271 C1255 0.961 1_554 S
H1272 C1256 0.931 . S
H1273 C1261 0.930 1_554 S
H1274 C1262 0.956 . S
H1275 C1262 0.961 . S
H1276 C1262 0.961 . S
H1277 C1263 0.958 . S
H1278 C1263 0.961 . S
H1279 C1263 0.960 . S
C1280 C1281 1.391 . S
C1280 C1282 1.410 . S
C1280 H1296 0.931 . S
C1281 C1280 1.391 . S
C1281 C1285 1.376 . S
C1282 C1280 1.410 . S
C1282 C1283 1.367 1_545 S
C1282 C1286 1.516 1_545 S
C1283 C1282 1.367 1_565 S
C1283 C1284 1.410 1_565 S
C1283 C1291 1.503 . S
C1284 C1283 1.410 1_545 S
C1284 C1285 1.392 . S
C1284 C1287 1.511 . S
C1285 C1281 1.376 . S
C1285 C1284 1.392 . S
C1285 H1297 0.929 . S
C1286 C1282 1.516 1_565 S
C1286 H1298 0.960 . S
C1286 H1299 0.962 . S
C1286 H1300 0.960 . S
C1287 C1284 1.511 . S
C1287 H1301 0.961 . S
C1287 H1302 0.961 . S
C1287 H1303 0.961 . S
C1288 C1289 1.370 . S
C1288 C1290 1.363 . S
C1288 H1304 0.931 . S
C1289 C1288 1.370 . S
C1289 C1293 1.408 . S
C1290 C1288 1.363 . S
C1290 C1291 1.370 . S
C1290 C1294 1.524 . S
C1291 C1283 1.503 . S
C1291 C1290 1.370 . S
C1291 C1292 1.403 . S
C1292 C1291 1.403 . S
C1292 C1293 1.404 . S
C1292 C1295 1.539 . S
C1293 C1289 1.408 . S
C1293 C1292 1.404 . S
C1293 H1305 0.930 . S
C1294 C1290 1.524 . S
C1294 H1306 0.956 . S
C1294 H1307 0.961 1_565 S
C1294 H1308 0.961 . S
C1295 C1292 1.539 . S
C1295 H1309 0.958 . S
C1295 H1310 0.961 . S
C1295 H1311 0.960 . S
H1296 C1280 0.931 . S
H1297 C1285 0.929 . S
H1298 C1286 0.960 . S
H1299 C1286 0.962 . S
H1300 C1286 0.960 . S
H1301 C1287 0.961 . S
H1302 C1287 0.961 . S
H1303 C1287 0.961 . S
H1304 C1288 0.931 . S
H1305 C1293 0.930 . S
H1306 C1294 0.956 . S
H1307 C1294 0.961 1_545 S
H1308 C1294 0.961 . S
H1309 C1295 0.958 . S
H1310 C1295 0.961 . S
H1311 C1295 0.960 . S
C1312 C1313 1.391 . S
C1312 C1314 1.394 . S
C1312 H1328 0.931 1_556 S
C1313 C1312 1.391 . S
C1313 C1317 1.376 . S
C1314 C1312 1.394 . S
C1314 C1315 1.369 . S
C1314 C1318 1.531 . S
C1315 C1314 1.369 . S
C1315 C1316 1.410 . S
C1315 C1323 1.503 . S
C1316 C1315 1.410 . S
C1316 C1317 1.392 . S
C1316 C1319 1.511 . S
C1317 C1313 1.376 . S
C1317 C1316 1.392 . S
C1317 H1329 0.929 . S
C1318 C1314 1.531 . S
C1318 H1330 0.960 . S
C1318 H1331 0.962 . S
C1318 H1332 0.960 . S
C1319 C1316 1.511 . S
C1319 H1333 0.961 . S
C1319 H1334 0.961 . S
C1319 H1335 0.961 . S
C1320 C1321 1.370 . S
C1320 C1322 1.363 . S
C1320 H1336 0.931 . S
C1321 C1320 1.370 . S
C1321 C1325 1.408 . S
C1322 C1320 1.363 . S
C1322 C1323 1.370 . S
C1322 C1326 1.524 . S
C1323 C1315 1.503 . S
C1323 C1322 1.370 . S
C1323 C1324 1.403 . S
C1324 C1323 1.403 . S
C1324 C1325 1.404 . S
C1324 C1327 1.539 . S
C1325 C1321 1.408 . S
C1325 C1324 1.404 . S
C1325 H1337 0.930 . S
C1326 C1322 1.524 . S
C1326 H1338 0.956 . S
C1326 H1339 0.961 . S
C1326 H1340 0.961 . S
C1327 C1324 1.539 . S
C1327 H1341 0.958 . S
C1327 H1342 0.961 . S
C1327 H1343 0.960 . S
H1328 C1312 0.931 1_554 S
H1329 C1317 0.929 . S
H1330 C1318 0.960 . S
H1331 C1318 0.962 . S
H1332 C1318 0.960 . S
H1333 C1319 0.961 . S
H1334 C1319 0.961 . S
H1335 C1319 0.961 . S
H1336 C1320 0.931 . S
H1337 C1325 0.930 . S
H1338 C1326 0.956 . S
H1339 C1326 0.961 . S
H1340 C1326 0.961 . S
H1341 C1327 0.958 . S
H1342 C1327 0.961 . S
H1343 C1327 0.960 . S
C1344 C1345 1.391 . S
C1344 C1346 1.394 . S
C1344 H1360 0.931 . S
C1345 C1344 1.391 . S
C1345 C1349 1.376 . S
C1346 C1344 1.394 . S
C1346 C1347 1.369 . S
C1346 C1350 1.531 . S
C1347 C1346 1.369 . S
C1347 C1348 1.410 . S
C1347 C1355 1.503 . S
C1348 C1347 1.410 . S
C1348 C1349 1.392 . S
C1348 C1351 1.511 . S
C1349 C1345 1.376 . S
C1349 C1348 1.392 . S
C1349 H1361 0.929 . S
C1350 C1346 1.531 . S
C1350 H1362 0.960 . S
C1350 H1363 0.962 . S
C1350 H1364 0.960 . S
C1351 C1348 1.511 . S
C1351 H1365 0.961 . S
C1351 H1366 0.961 . S
C1351 H1367 0.961 . S
C1352 C1353 1.370 . S
C1352 C1354 1.363 . S
C1352 H1368 0.931 . S
C1353 C1352 1.370 . S
C1353 C1357 1.408 . S
C1354 C1352 1.363 . S
C1354 C1355 1.370 . S
C1354 C1358 1.524 . S
C1355 C1347 1.503 . S
C1355 C1354 1.370 . S
C1355 C1356 1.403 . S
C1356 C1355 1.403 . S
C1356 C1357 1.404 . S
C1356 C1359 1.539 . S
C1357 C1353 1.408 . S
C1357 C1356 1.404 . S
C1357 H1369 0.930 . S
C1358 C1354 1.524 . S
C1358 H1370 0.956 . S
C1358 H1371 0.961 . S
C1358 H1372 0.961 . S
C1359 C1356 1.539 . S
C1359 H1373 0.958 . S
C1359 H1374 0.961 . S
C1359 H1375 0.960 . S
H1360 C1344 0.931 . S
H1361 C1349 0.929 . S
H1362 C1350 0.960 . S
H1363 C1350 0.962 . S
H1364 C1350 0.960 . S
H1365 C1351 0.961 . S
H1366 C1351 0.961 . S
H1367 C1351 0.961 . S
H1368 C1352 0.931 . S
H1369 C1357 0.930 . S
H1370 C1358 0.956 . S
H1371 C1358 0.961 . S
H1372 C1358 0.961 . S
H1373 C1359 0.958 . S
H1374 C1359 0.961 . S
H1375 C1359 0.960 . S
C1376 C1377 1.391 . S
C1376 C1378 1.394 . S
C1376 H1392 0.931 . S
C1377 C1376 1.391 . S
C1377 C1381 1.376 . S
C1378 C1376 1.394 . S
C1378 C1379 1.369 . S
C1378 C1382 1.531 . S
C1379 C1378 1.369 . S
C1379 C1380 1.410 . S
C1379 C1387 1.503 . S
C1380 C1379 1.410 . S
C1380 C1381 1.392 . S
C1380 C1383 1.511 . S
C1381 C1377 1.376 . S
C1381 C1380 1.392 . S
C1381 H1393 0.929 . S
C1382 C1378 1.531 . S
C1382 H1394 0.960 . S
C1382 H1395 0.962 . S
C1382 H1396 0.960 . S
C1383 C1380 1.511 . S
C1383 H1397 0.961 . S
C1383 H1398 0.961 . S
C1383 H1399 0.961 . S
C1384 C1385 1.370 . S
C1384 C1386 1.363 . S
C1384 H1400 0.931 . S
C1385 C1384 1.370 . S
C1385 C1389 1.408 . S
C1386 C1384 1.363 . S
C1386 C1387 1.370 . S
C1386 C1390 1.524 . S
C1387 C1379 1.503 . S
C1387 C1386 1.370 . S
C1387 C1388 1.403 . S
C1388 C1387 1.403 . S
C1388 C1389 1.404 . S
C1388 C1391 1.539 . S
C1389 C1385 1.408 . S
C1389 C1388 1.404 . S
C1389 H1401 0.930 . S
C1390 C1386 1.524 . S
C1390 H1402 0.956 . S
C1390 H1403 0.961 . S
C1390 H1404 0.961 . S
C1391 C1388 1.539 . S
C1391 H1405 0.958 . S
C1391 H1406 0.961 . S
C1391 H1407 0.960 . S
H1392 C1376 0.931 . S
H1393 C1381 0.929 . S
H1394 C1382 0.960 . S
H1395 C1382 0.962 . S
H1396 C1382 0.960 . S
H1397 C1383 0.961 . S
H1398 C1383 0.961 . S
H1399 C1383 0.961 . S
H1400 C1384 0.931 . S
H1401 C1389 0.930 . S
H1402 C1390 0.956 . S
H1403 C1390 0.961 . S
H1404 C1390 0.961 . S
H1405 C1391 0.958 . S
H1406 C1391 0.961 . S
H1407 C1391 0.960 . S
C1408 C1409 1.391 . S
C1408 C1410 1.394 . S
C1408 H1424 0.931 . S
C1409 C1408 1.391 . S
C1409 C1413 1.376 . S
C1410 C1408 1.394 . S
C1410 C1411 1.369 . S
C1410 C1414 1.531 . S
C1411 C1410 1.369 . S
C1411 C1412 1.410 . S
C1411 C1419 1.503 . S
C1412 C1411 1.410 . S
C1412 C1413 1.392 . S
C1412 C1415 1.511 . S
C1413 C1409 1.376 . S
C1413 C1412 1.392 . S
C1413 H1425 0.929 . S
C1414 C1410 1.531 . S
C1414 H1426 0.960 . S
C1414 H1427 0.962 . S
C1414 H1428 0.960 . S
C1415 C1412 1.511 . S
C1415 H1429 0.961 . S
C1415 H1430 0.961 . S
C1415 H1431 0.961 . S
C1416 C1417 1.370 . S
C1416 C1418 1.363 . S
C1416 H1432 0.931 . S
C1417 C1416 1.370 . S
C1417 C1421 1.408 . S
C1418 C1416 1.363 . S
C1418 C1419 1.370 . S
C1418 C1422 1.524 . S
C1419 C1411 1.503 . S
C1419 C1418 1.370 . S
C1419 C1420 1.403 . S
C1420 C1419 1.403 . S
C1420 C1421 1.404 . S
C1420 C1423 1.539 . S
C1421 C1417 1.408 . S
C1421 C1420 1.404 . S
C1421 H1433 0.930 . S
C1422 C1418 1.524 . S
C1422 H1434 0.956 . S
C1422 H1435 0.961 . S
C1422 H1436 0.961 . S
C1423 C1420 1.539 . S
C1423 H1437 0.958 . S
C1423 H1438 0.961 . S
C1423 H1439 0.960 . S
H1424 C1408 0.931 . S
H1425 C1413 0.929 . S
H1426 C1414 0.960 . S
H1427 C1414 0.962 . S
H1428 C1414 0.960 . S
H1429 C1415 0.961 . S
H1430 C1415 0.961 . S
H1431 C1415 0.961 . S
H1432 C1416 0.931 . S
H1433 C1421 0.930 . S
H1434 C1422 0.956 . S
H1435 C1422 0.961 . S
H1436 C1422 0.961 . S
H1437 C1423 0.958 . S
H1438 C1423 0.961 . S
H1439 C1423 0.960 . S
C1440 C1441 1.391 . S
C1440 C1442 1.394 . S
C1440 H1456 0.931 1_554 S
C1441 C1440 1.391 . S
C1441 C1445 1.376 . S
C1442 C1440 1.394 . S
C1442 C1443 1.369 . S
C1442 C1446 1.531 . S
C1443 C1442 1.369 . S
C1443 C1444 1.410 . S
C1443 C1451 1.503 . S
C1444 C1443 1.410 . S
C1444 C1445 1.392 . S
C1444 C1447 1.511 . S
C1445 C1441 1.376 . S
C1445 C1444 1.392 . S
C1445 H1457 0.929 . S
C1446 C1442 1.531 . S
C1446 H1458 0.960 . S
C1446 H1459 0.962 . S
C1446 H1460 0.960 . S
C1447 C1444 1.511 . S
C1447 H1461 0.961 . S
C1447 H1462 0.961 . S
C1447 H1463 0.961 . S
C1448 C1449 1.370 . S
C1448 C1450 1.363 . S
C1448 H1464 0.931 . S
C1449 C1448 1.370 . S
C1449 C1453 1.408 . S
C1450 C1448 1.363 . S
C1450 C1451 1.370 . S
C1450 C1454 1.524 . S
C1451 C1443 1.503 . S
C1451 C1450 1.370 . S
C1451 C1452 1.403 . S
C1452 C1451 1.403 . S
C1452 C1453 1.404 . S
C1452 C1455 1.539 . S
C1453 C1449 1.408 . S
C1453 C1452 1.404 . S
C1453 H1465 0.930 . S
C1454 C1450 1.524 . S
C1454 H1466 0.956 . S
C1454 H1467 0.961 . S
C1454 H1468 0.961 . S
C1455 C1452 1.539 . S
C1455 H1469 0.958 . S
C1455 H1470 0.961 . S
C1455 H1471 0.960 . S
H1456 C1440 0.931 1_556 S
H1457 C1445 0.929 . S
H1458 C1446 0.960 . S
H1459 C1446 0.962 . S
H1460 C1446 0.960 . S
H1461 C1447 0.961 . S
H1462 C1447 0.961 . S
H1463 C1447 0.961 . S
H1464 C1448 0.931 . S
H1465 C1453 0.930 . S
H1466 C1454 0.956 . S
H1467 C1454 0.961 . S
H1468 C1454 0.961 . S
H1469 C1455 0.958 . S
H1470 C1455 0.961 . S
H1471 C1455 0.960 . S
C1472 C1473 1.391 . S
C1472 C1474 1.394 . S
C1472 H1488 0.931 . S
C1473 C1472 1.391 . S
C1473 C1477 1.376 . S
C1474 C1472 1.394 . S
C1474 C1475 1.369 . S
C1474 C1478 1.531 . S
C1475 C1474 1.369 . S
C1475 C1476 1.410 . S
C1475 C1483 1.503 . S
C1476 C1475 1.410 . S
C1476 C1477 1.392 . S
C1476 C1479 1.511 . S
C1477 C1473 1.376 . S
C1477 C1476 1.392 . S
C1477 H1489 0.929 . S
C1478 C1474 1.531 . S
C1478 H1490 0.960 . S
C1478 H1491 0.962 . S
C1478 H1492 0.960 . S
C1479 C1476 1.511 . S
C1479 H1493 0.961 . S
C1479 H1494 0.961 . S
C1479 H1495 0.961 . S
C1480 C1481 1.370 . S
C1480 C1482 1.363 . S
C1480 H1496 0.931 . S
C1481 C1480 1.370 . S
C1481 C1485 1.408 . S
C1482 C1480 1.363 . S
C1482 C1483 1.370 . S
C1482 C1486 1.524 . S
C1483 C1475 1.503 . S
C1483 C1482 1.370 . S
C1483 C1484 1.403 . S
C1484 C1483 1.403 . S
C1484 C1485 1.404 . S
C1484 C1487 1.539 . S
C1485 C1481 1.408 . S
C1485 C1484 1.404 . S
C1485 H1497 0.930 . S
C1486 C1482 1.524 . S
C1486 H1498 0.956 . S
C1486 H1499 0.961 . S
C1486 H1500 0.961 . S
C1487 C1484 1.539 . S
C1487 H1501 0.958 . S
C1487 H1502 0.961 . S
C1487 H1503 0.960 . S
H1488 C1472 0.931 . S
H1489 C1477 0.929 . S
H1490 C1478 0.960 . S
H1491 C1478 0.962 . S
H1492 C1478 0.960 . S
H1493 C1479 0.961 . S
H1494 C1479 0.961 . S
H1495 C1479 0.961 . S
H1496 C1480 0.931 . S
H1497 C1485 0.930 . S
H1498 C1486 0.956 . S
H1499 C1486 0.961 . S
H1500 C1486 0.961 . S
H1501 C1487 0.958 . S
H1502 C1487 0.961 . S
H1503 C1487 0.960 . S
C1504 C1505 1.391 . S
C1504 C1506 1.394 . S
C1504 H1520 0.931 . S
C1505 C1504 1.391 . S
C1505 C1509 1.376 . S
C1506 C1504 1.394 . S
C1506 C1507 1.369 . S
C1506 C1510 1.531 . S
C1507 C1506 1.369 . S
C1507 C1508 1.410 . S
C1507 C1515 1.503 . S
C1508 C1507 1.410 . S
C1508 C1509 1.392 . S
C1508 C1511 1.511 . S
C1509 C1505 1.376 . S
C1509 C1508 1.392 . S
C1509 H1521 0.929 . S
C1510 C1506 1.531 . S
C1510 H1522 0.960 . S
C1510 H1523 0.962 . S
C1510 H1524 0.960 . S
C1511 C1508 1.511 . S
C1511 H1525 0.961 . S
C1511 H1526 0.961 . S
C1511 H1527 0.961 . S
C1512 C1513 1.370 . S
C1512 C1514 1.363 . S
C1512 H1528 0.931 . S
C1513 C1512 1.370 . S
C1513 C1517 1.408 . S
C1514 C1512 1.363 . S
C1514 C1515 1.370 . S
C1514 C1518 1.524 . S
C1515 C1507 1.503 . S
C1515 C1514 1.370 . S
C1515 C1516 1.403 . S
C1516 C1515 1.403 . S
C1516 C1517 1.404 . S
C1516 C1519 1.539 . S
C1517 C1513 1.408 . S
C1517 C1516 1.404 . S
C1517 H1529 0.930 . S
C1518 C1514 1.524 . S
C1518 H1530 0.956 . S
C1518 H1531 0.961 . S
C1518 H1532 0.961 . S
C1519 C1516 1.539 . S
C1519 H1533 0.958 . S
C1519 H1534 0.961 . S
C1519 H1535 0.960 . S
H1520 C1504 0.931 . S
H1521 C1509 0.929 . S
H1522 C1510 0.960 . S
H1523 C1510 0.962 . S
H1524 C1510 0.960 . S
H1525 C1511 0.961 . S
H1526 C1511 0.961 . S
H1527 C1511 0.961 . S
H1528 C1512 0.931 . S
H1529 C1517 0.930 . S
H1530 C1518 0.956 . S
H1531 C1518 0.961 . S
H1532 C1518 0.961 . S
H1533 C1519 0.958 . S
H1534 C1519 0.961 . S
H1535 C1519 0.960 . S
C1536 C1537 1.391 . S
C1536 C1538 1.394 . S
C1536 H1552 0.931 . S
C1537 C1536 1.391 . S
C1537 C1541 1.376 . S
C1538 C1536 1.394 . S
C1538 C1539 1.369 . S
C1538 C1542 1.531 . S
C1539 C1538 1.369 . S
C1539 C1540 1.410 . S
C1539 C1547 1.503 . S
C1540 C1539 1.410 . S
C1540 C1541 1.392 . S
C1540 C1543 1.511 . S
C1541 C1537 1.376 . S
C1541 C1540 1.392 . S
C1541 H1553 0.929 . S
C1542 C1538 1.531 . S
C1542 H1554 0.960 . S
C1542 H1555 0.962 . S
C1542 H1556 0.960 . S
C1543 C1540 1.511 . S
C1543 H1557 0.961 . S
C1543 H1558 0.961 . S
C1543 H1559 0.961 . S
C1544 C1545 1.370 . S
C1544 C1546 1.363 . S
C1544 H1560 0.931 . S
C1545 C1544 1.370 . S
C1545 C1549 1.408 . S
C1546 C1544 1.363 . S
C1546 C1547 1.370 . S
C1546 C1550 1.524 . S
C1547 C1539 1.503 . S
C1547 C1546 1.370 . S
C1547 C1548 1.403 . S
C1548 C1547 1.403 . S
C1548 C1549 1.404 . S
C1548 C1551 1.539 . S
C1549 C1545 1.408 . S
C1549 C1548 1.404 . S
C1549 H1561 0.930 . S
C1550 C1546 1.524 . S
C1550 H1562 0.956 . S
C1550 H1563 0.961 . S
C1550 H1564 0.961 . S
C1551 C1548 1.539 . S
C1551 H1565 0.958 . S
C1551 H1566 0.961 . S
C1551 H1567 0.960 . S
H1552 C1536 0.931 . S
H1553 C1541 0.929 . S
H1554 C1542 0.960 . S
H1555 C1542 0.962 . S
H1556 C1542 0.960 . S
H1557 C1543 0.961 . S
H1558 C1543 0.961 . S
H1559 C1543 0.961 . S
H1560 C1544 0.931 . S
H1561 C1549 0.930 . S
H1562 C1550 0.956 . S
H1563 C1550 0.961 . S
H1564 C1550 0.961 . S
H1565 C1551 0.958 . S
H1566 C1551 0.961 . S
H1567 C1551 0.960 . S
C1568 C1569 1.391 . S
C1568 C1570 1.394 . S
C1568 H1584 0.931 . S
C1569 C1568 1.391 . S
C1569 C1573 1.376 . S
C1570 C1568 1.394 . S
C1570 C1571 1.369 . S
C1570 C1574 1.531 . S
C1571 C1570 1.369 . S
C1571 C1572 1.410 . S
C1571 C1579 1.503 . S
C1572 C1571 1.410 . S
C1572 C1573 1.392 . S
C1572 C1575 1.511 . S
C1573 C1569 1.376 . S
C1573 C1572 1.392 . S
C1573 H1585 0.929 . S
C1574 C1570 1.531 . S
C1574 H1586 0.960 . S
C1574 H1587 0.962 . S
C1574 H1588 0.960 . S
C1575 C1572 1.511 . S
C1575 H1589 0.961 . S
C1575 H1590 0.961 . S
C1575 H1591 0.961 . S
C1576 C1577 1.370 . S
C1576 C1578 1.363 . S
C1576 H1592 0.931 . S
C1577 C1576 1.370 . S
C1577 C1581 1.408 . S
C1578 C1576 1.363 . S
C1578 C1579 1.370 . S
C1578 C1582 1.524 . S
C1579 C1571 1.503 . S
C1579 C1578 1.370 . S
C1579 C1580 1.403 . S
C1580 C1579 1.403 . S
C1580 C1581 1.404 . S
C1580 C1583 1.539 . S
C1581 C1577 1.408 . S
C1581 C1580 1.404 . S
C1581 H1593 0.930 . S
C1582 C1578 1.524 . S
C1582 H1594 0.956 . S
C1582 H1595 0.961 . S
C1582 H1596 0.961 . S
C1583 C1580 1.539 . S
C1583 H1597 0.958 . S
C1583 H1598 0.961 . S
C1583 H1599 0.960 . S
H1584 C1568 0.931 . S
H1585 C1573 0.929 . S
H1586 C1574 0.960 . S
H1587 C1574 0.962 . S
H1588 C1574 0.960 . S
H1589 C1575 0.961 . S
H1590 C1575 0.961 . S
H1591 C1575 0.961 . S
H1592 C1576 0.931 . S
H1593 C1581 0.930 . S
H1594 C1582 0.956 . S
H1595 C1582 0.961 . S
H1596 C1582 0.961 . S
H1597 C1583 0.958 . S
H1598 C1583 0.961 . S
H1599 C1583 0.960 . S
C1600 C1601 1.391 . S
C1600 C1602 1.394 . S
C1600 H1616 0.931 . S
C1601 C1600 1.391 . S
C1601 C1605 1.376 . S
C1602 C1600 1.394 . S
C1602 C1603 1.369 . S
C1602 C1606 1.531 . S
C1603 C1602 1.369 . S
C1603 C1604 1.410 . S
C1603 C1611 1.503 . S
C1604 C1603 1.410 . S
C1604 C1605 1.392 . S
C1604 C1607 1.511 . S
C1605 C1601 1.376 . S
C1605 C1604 1.392 . S
C1605 H1617 0.929 . S
C1606 C1602 1.531 . S
C1606 H1618 0.960 . S
C1606 H1619 0.962 . S
C1606 H1620 0.960 . S
C1607 C1604 1.511 . S
C1607 H1621 0.961 . S
C1607 H1622 0.961 . S
C1607 H1623 0.961 . S
C1608 C1609 1.370 . S
C1608 C1610 1.363 . S
C1608 H1624 0.931 . S
C1609 C1608 1.370 . S
C1609 C1613 1.408 . S
C1610 C1608 1.363 . S
C1610 C1611 1.370 . S
C1610 C1614 1.524 . S
C1611 C1603 1.503 . S
C1611 C1610 1.370 . S
C1611 C1612 1.403 . S
C1612 C1611 1.403 . S
C1612 C1613 1.404 . S
C1612 C1615 1.539 . S
C1613 C1609 1.408 . S
C1613 C1612 1.404 . S
C1613 H1625 0.930 . S
C1614 C1610 1.524 . S
C1614 H1626 0.956 . S
C1614 H1627 0.961 . S
C1614 H1628 0.961 . S
C1615 C1612 1.539 . S
C1615 H1629 0.958 . S
C1615 H1630 0.961 . S
C1615 H1631 0.960 . S
H1616 C1600 0.931 . S
H1617 C1605 0.929 . S
H1618 C1606 0.960 . S
H1619 C1606 0.962 . S
H1620 C1606 0.960 . S
H1621 C1607 0.961 . S
H1622 C1607 0.961 . S
H1623 C1607 0.961 . S
H1624 C1608 0.931 . S
H1625 C1613 0.930 . S
H1626 C1614 0.956 . S
H1627 C1614 0.961 . S
H1628 C1614 0.961 . S
H1629 C1615 0.958 . S
H1630 C1615 0.961 . S
H1631 C1615 0.960 . S
C1632 C1633 1.391 . S
C1632 C1634 1.394 . S
C1632 H1648 0.931 . S
C1633 C1632 1.391 . S
C1633 C1637 1.376 . S
C1634 C1632 1.394 . S
C1634 C1635 1.369 . S
C1634 C1638 1.531 . S
C1635 C1634 1.369 . S
C1635 C1636 1.410 . S
C1635 C1643 1.503 . S
C1636 C1635 1.410 . S
C1636 C1637 1.392 . S
C1636 C1639 1.511 . S
C1637 C1633 1.376 . S
C1637 C1636 1.392 . S
C1637 H1649 0.929 . S
C1638 C1634 1.531 . S
C1638 H1650 0.960 . S
C1638 H1651 0.962 . S
C1638 H1652 0.960 . S
C1639 C1636 1.511 . S
C1639 H1653 0.961 . S
C1639 H1654 0.961 . S
C1639 H1655 0.961 . S
C1640 C1641 1.370 . S
C1640 C1642 1.363 . S
C1640 H1656 0.931 1_556 S
C1641 C1640 1.370 . S
C1641 C1645 1.408 . S
C1642 C1640 1.363 . S
C1642 C1643 1.370 . S
C1642 C1646 1.524 . S
C1643 C1635 1.503 . S
C1643 C1642 1.370 . S
C1643 C1644 1.403 . S
C1644 C1643 1.403 . S
C1644 C1645 1.404 . S
C1644 C1647 1.539 . S
C1645 C1641 1.408 . S
C1645 C1644 1.404 . S
C1645 H1657 0.930 . S
C1646 C1642 1.524 . S
C1646 H1658 0.956 . S
C1646 H1659 0.961 . S
C1646 H1660 0.961 . S
C1647 C1644 1.539 . S
C1647 H1661 0.958 . S
C1647 H1662 0.961 . S
C1647 H1663 0.960 . S
H1648 C1632 0.931 . S
H1649 C1637 0.929 . S
H1650 C1638 0.960 . S
H1651 C1638 0.962 . S
H1652 C1638 0.960 . S
H1653 C1639 0.961 . S
H1654 C1639 0.961 . S
H1655 C1639 0.961 . S
H1656 C1640 0.931 1_554 S
H1657 C1645 0.930 . S
H1658 C1646 0.956 . S
H1659 C1646 0.961 . S
H1660 C1646 0.961 . S
H1661 C1647 0.958 . S
H1662 C1647 0.961 . S
H1663 C1647 0.960 . S
C1664 C1665 1.391 . S
C1664 C1666 1.394 . S
C1664 H1680 0.931 . S
C1665 C1664 1.391 . S
C1665 C1669 1.376 . S
C1666 C1664 1.394 . S
C1666 C1667 1.369 . S
C1666 C1670 1.531 . S
C1667 C1666 1.369 . S
C1667 C1668 1.410 . S
C1667 C1675 1.503 . S
C1668 C1667 1.410 . S
C1668 C1669 1.392 . S
C1668 C1671 1.511 . S
C1669 C1665 1.376 . S
C1669 C1668 1.392 . S
C1669 H1681 0.929 . S
C1670 C1666 1.531 . S
C1670 H1682 0.960 . S
C1670 H1683 0.962 . S
C1670 H1684 0.960 . S
C1671 C1668 1.511 . S
C1671 H1685 0.961 . S
C1671 H1686 0.961 . S
C1671 H1687 0.961 . S
C1672 C1673 1.370 . S
C1672 C1674 1.363 . S
C1672 H1688 0.931 . S
C1673 C1672 1.370 . S
C1673 C1677 1.408 . S
C1674 C1672 1.363 . S
C1674 C1675 1.370 . S
C1674 C1678 1.524 . S
C1675 C1667 1.503 . S
C1675 C1674 1.370 . S
C1675 C1676 1.403 . S
C1676 C1675 1.403 . S
C1676 C1677 1.404 . S
C1676 C1679 1.539 . S
C1677 C1673 1.408 . S
C1677 C1676 1.404 . S
C1677 H1689 0.930 . S
C1678 C1674 1.524 . S
C1678 H1690 0.956 . S
C1678 H1691 0.961 . S
C1678 H1692 0.961 . S
C1679 C1676 1.539 . S
C1679 H1693 0.958 . S
C1679 H1694 0.961 . S
C1679 H1695 0.960 . S
H1680 C1664 0.931 . S
H1681 C1669 0.929 . S
H1682 C1670 0.960 . S
H1683 C1670 0.962 . S
H1684 C1670 0.960 . S
H1685 C1671 0.961 . S
H1686 C1671 0.961 . S
H1687 C1671 0.961 . S
H1688 C1672 0.931 . S
H1689 C1677 0.930 . S
H1690 C1678 0.956 . S
H1691 C1678 0.961 . S
H1692 C1678 0.961 . S
H1693 C1679 0.958 . S
H1694 C1679 0.961 . S
H1695 C1679 0.960 . S
C1696 C1697 1.391 . S
C1696 C1698 1.394 . S
C1696 H1712 0.931 . S
C1697 C1696 1.391 . S
C1697 C1701 1.376 . S
C1698 C1696 1.394 . S
C1698 C1699 1.369 . S
C1698 C1702 1.531 . S
C1699 C1698 1.369 . S
C1699 C1700 1.410 . S
C1699 C1707 1.503 . S
C1700 C1699 1.410 . S
C1700 C1701 1.392 . S
C1700 C1703 1.511 . S
C1701 C1697 1.376 . S
C1701 C1700 1.392 . S
C1701 H1713 0.929 . S
C1702 C1698 1.531 . S
C1702 H1714 0.960 . S
C1702 H1715 0.962 . S
C1702 H1716 0.960 . S
C1703 C1700 1.511 . S
C1703 H1717 0.961 . S
C1703 H1718 0.961 . S
C1703 H1719 0.961 . S
C1704 C1705 1.370 . S
C1704 C1706 1.363 . S
C1704 H1720 0.931 . S
C1705 C1704 1.370 . S
C1705 C1709 1.408 . S
C1706 C1704 1.363 . S
C1706 C1707 1.370 . S
C1706 C1710 1.524 . S
C1707 C1699 1.503 . S
C1707 C1706 1.370 . S
C1707 C1708 1.403 . S
C1708 C1707 1.403 . S
C1708 C1709 1.404 . S
C1708 C1711 1.539 . S
C1709 C1705 1.408 . S
C1709 C1708 1.404 . S
C1709 H1721 0.930 . S
C1710 C1706 1.524 . S
C1710 H1722 0.956 . S
C1710 H1723 0.961 . S
C1710 H1724 0.961 . S
C1711 C1708 1.539 . S
C1711 H1725 0.958 . S
C1711 H1726 0.961 . S
C1711 H1727 0.960 . S
H1712 C1696 0.931 . S
H1713 C1701 0.929 . S
H1714 C1702 0.960 . S
H1715 C1702 0.962 . S
H1716 C1702 0.960 . S
H1717 C1703 0.961 . S
H1718 C1703 0.961 . S
H1719 C1703 0.961 . S
H1720 C1704 0.931 . S
H1721 C1709 0.930 . S
H1722 C1710 0.956 . S
H1723 C1710 0.961 . S
H1724 C1710 0.961 . S
H1725 C1711 0.958 . S
H1726 C1711 0.961 . S
H1727 C1711 0.960 . S
C1728 C1729 1.391 . S
C1728 C1730 1.394 . S
C1728 H1744 0.931 . S
C1729 C1728 1.391 . S
C1729 C1733 1.376 . S
C1730 C1728 1.394 . S
C1730 C1731 1.369 . S
C1730 C1734 1.531 . S
C1731 C1730 1.369 . S
C1731 C1732 1.410 . S
C1731 C1739 1.503 . S
C1732 C1731 1.410 . S
C1732 C1733 1.392 . S
C1732 C1735 1.511 . S
C1733 C1729 1.376 . S
C1733 C1732 1.392 . S
C1733 H1745 0.929 . S
C1734 C1730 1.531 . S
C1734 H1746 0.960 . S
C1734 H1747 0.962 . S
C1734 H1748 0.960 . S
C1735 C1732 1.511 . S
C1735 H1749 0.961 . S
C1735 H1750 0.961 . S
C1735 H1751 0.961 . S
C1736 C1737 1.370 . S
C1736 C1738 1.363 . S
C1736 H1752 0.931 . S
C1737 C1736 1.370 . S
C1737 C1741 1.408 . S
C1738 C1736 1.363 . S
C1738 C1739 1.370 . S
C1738 C1742 1.524 . S
C1739 C1731 1.503 . S
C1739 C1738 1.370 . S
C1739 C1740 1.403 . S
C1740 C1739 1.403 . S
C1740 C1741 1.404 . S
C1740 C1743 1.539 . S
C1741 C1737 1.408 . S
C1741 C1740 1.404 . S
C1741 H1753 0.930 . S
C1742 C1738 1.524 . S
C1742 H1754 0.956 . S
C1742 H1755 0.961 . S
C1742 H1756 0.961 . S
C1743 C1740 1.539 . S
C1743 H1757 0.958 . S
C1743 H1758 0.961 . S
C1743 H1759 0.960 . S
H1744 C1728 0.931 . S
H1745 C1733 0.929 . S
H1746 C1734 0.960 . S
H1747 C1734 0.962 . S
H1748 C1734 0.960 . S
H1749 C1735 0.961 . S
H1750 C1735 0.961 . S
H1751 C1735 0.961 . S
H1752 C1736 0.931 . S
H1753 C1741 0.930 . S
H1754 C1742 0.956 . S
H1755 C1742 0.961 . S
H1756 C1742 0.961 . S
H1757 C1743 0.958 . S
H1758 C1743 0.961 . S
H1759 C1743 0.960 . S
C1760 C1761 1.394 . S
C1760 C1762 1.394 . S
C1760 H1776 0.931 . S
C1761 C1760 1.394 . S
C1761 C1765 1.376 1_554 S
C1762 C1760 1.394 . S
C1762 C1763 1.369 . S
C1762 C1766 1.531 . S
C1763 C1762 1.369 . S
C1763 C1764 1.410 . S
C1763 C1771 1.503 . S
C1764 C1763 1.410 . S
C1764 C1765 1.392 1_554 S
C1764 C1767 1.511 . S
C1765 C1761 1.376 1_556 S
C1765 C1764 1.392 1_556 S
C1765 H1777 0.929 . S
C1766 C1762 1.531 . S
C1766 H1778 0.960 . S
C1766 H1779 0.962 . S
C1766 H1780 0.960 . S
C1767 C1764 1.511 . S
C1767 H1781 0.961 . S
C1767 H1782 0.961 . S
C1767 H1783 0.961 . S
C1768 C1769 1.370 . S
C1768 C1770 1.363 . S
C1768 H1784 0.931 . S
C1769 C1768 1.370 . S
C1769 C1773 1.408 . S
C1770 C1768 1.363 . S
C1770 C1771 1.370 . S
C1770 C1774 1.524 . S
C1771 C1763 1.503 . S
C1771 C1770 1.370 . S
C1771 C1772 1.403 . S
C1772 C1771 1.403 . S
C1772 C1773 1.404 . S
C1772 C1775 1.539 . S
C1773 C1769 1.408 . S
C1773 C1772 1.404 . S
C1773 H1785 0.930 . S
C1774 C1770 1.524 . S
C1774 H1786 0.956 . S
C1774 H1787 0.961 . S
C1774 H1788 0.961 . S
C1775 C1772 1.539 . S
C1775 H1789 0.958 . S
C1775 H1790 0.961 . S
C1775 H1791 0.960 . S
H1776 C1760 0.931 . S
H1777 C1765 0.929 . S
H1778 C1766 0.960 . S
H1779 C1766 0.962 . S
H1780 C1766 0.960 . S
H1781 C1767 0.961 . S
H1782 C1767 0.961 . S
H1783 C1767 0.961 . S
H1784 C1768 0.931 . S
H1785 C1773 0.930 . S
H1786 C1774 0.956 . S
H1787 C1774 0.961 . S
H1788 C1774 0.961 . S
H1789 C1775 0.958 . S
H1790 C1775 0.961 . S
H1791 C1775 0.960 . S
C1792 C1793 1.391 . S
C1792 C1794 1.394 . S
C1792 H1808 0.931 . S
C1793 C1792 1.391 . S
C1793 C1797 1.376 . S
C1794 C1792 1.394 . S
C1794 C1795 1.369 . S
C1794 C1798 1.531 . S
C1795 C1794 1.369 . S
C1795 C1796 1.410 . S
C1795 C1803 1.503 . S
C1796 C1795 1.410 . S
C1796 C1797 1.392 . S
C1796 C1799 1.511 . S
C1797 C1793 1.376 . S
C1797 C1796 1.392 . S
C1797 H1809 0.929 . S
C1798 C1794 1.531 . S
C1798 H1810 0.960 . S
C1798 H1811 0.962 . S
C1798 H1812 0.960 . S
C1799 C1796 1.511 . S
C1799 H1813 0.961 . S
C1799 H1814 0.961 . S
C1799 H1815 0.961 . S
C1800 C1801 1.370 . S
C1800 C1802 1.363 . S
C1800 H1816 0.931 . S
C1801 C1800 1.370 . S
C1801 C1805 1.408 . S
C1802 C1800 1.363 . S
C1802 C1803 1.370 . S
C1802 C1806 1.524 . S
C1803 C1795 1.503 . S
C1803 C1802 1.370 . S
C1803 C1804 1.403 . S
C1804 C1803 1.403 . S
C1804 C1805 1.404 . S
C1804 C1807 1.539 . S
C1805 C1801 1.408 . S
C1805 C1804 1.404 . S
C1805 H1817 0.930 . S
C1806 C1802 1.524 . S
C1806 H1818 0.956 . S
C1806 H1819 0.961 . S
C1806 H1820 0.961 . S
C1807 C1804 1.539 . S
C1807 H1821 0.958 . S
C1807 H1822 0.961 . S
C1807 H1823 0.960 . S
H1808 C1792 0.931 . S
H1809 C1797 0.929 . S
H1810 C1798 0.960 . S
H1811 C1798 0.962 . S
H1812 C1798 0.960 . S
H1813 C1799 0.961 . S
H1814 C1799 0.961 . S
H1815 C1799 0.961 . S
H1816 C1800 0.931 . S
H1817 C1805 0.930 . S
H1818 C1806 0.956 . S
H1819 C1806 0.961 . S
H1820 C1806 0.961 . S
H1821 C1807 0.958 . S
H1822 C1807 0.961 . S
H1823 C1807 0.960 . S
C1824 C1825 1.391 . S
C1824 C1826 1.394 . S
C1824 H1840 0.931 . S
C1825 C1824 1.391 . S
C1825 C1829 1.376 . S
C1826 C1824 1.394 . S
C1826 C1827 1.369 . S
C1826 C1830 1.531 . S
C1827 C1826 1.369 . S
C1827 C1828 1.410 . S
C1827 C1835 1.503 . S
C1828 C1827 1.410 . S
C1828 C1829 1.392 . S
C1828 C1831 1.511 . S
C1829 C1825 1.376 . S
C1829 C1828 1.392 . S
C1829 H1841 0.929 . S
C1830 C1826 1.531 . S
C1830 H1842 0.960 . S
C1830 H1843 0.962 . S
C1830 H1844 0.960 . S
C1831 C1828 1.511 . S
C1831 H1845 0.961 . S
C1831 H1846 0.961 . S
C1831 H1847 0.961 . S
C1832 C1833 1.370 . S
C1832 C1834 1.363 . S
C1832 H1848 0.931 . S
C1833 C1832 1.370 . S
C1833 C1837 1.408 . S
C1834 C1832 1.363 . S
C1834 C1835 1.370 . S
C1834 C1838 1.524 . S
C1835 C1827 1.503 . S
C1835 C1834 1.370 . S
C1835 C1836 1.403 . S
C1836 C1835 1.403 . S
C1836 C1837 1.404 . S
C1836 C1839 1.539 . S
C1837 C1833 1.408 . S
C1837 C1836 1.404 . S
C1837 H1849 0.930 . S
C1838 C1834 1.524 . S
C1838 H1850 0.956 . S
C1838 H1851 0.961 . S
C1838 H1852 0.961 . S
C1839 C1836 1.539 . S
C1839 H1853 0.958 . S
C1839 H1854 0.961 . S
C1839 H1855 0.960 . S
H1840 C1824 0.931 . S
H1841 C1829 0.929 . S
H1842 C1830 0.960 . S
H1843 C1830 0.962 . S
H1844 C1830 0.960 . S
H1845 C1831 0.961 . S
H1846 C1831 0.961 . S
H1847 C1831 0.961 . S
H1848 C1832 0.931 . S
H1849 C1837 0.930 . S
H1850 C1838 0.956 . S
H1851 C1838 0.961 . S
H1852 C1838 0.961 . S
H1853 C1839 0.958 . S
H1854 C1839 0.961 . S
H1855 C1839 0.960 . S
C1856 C1857 1.391 . S
C1856 C1858 1.394 . S
C1856 H1872 0.931 . S
C1857 C1856 1.391 . S
C1857 C1861 1.376 . S
C1858 C1856 1.394 . S
C1858 C1859 1.369 . S
C1858 C1862 1.531 . S
C1859 C1858 1.369 . S
C1859 C1860 1.410 . S
C1859 C1867 1.503 . S
C1860 C1859 1.410 . S
C1860 C1861 1.392 . S
C1860 C1863 1.511 . S
C1861 C1857 1.376 . S
C1861 C1860 1.392 . S
C1861 H1873 0.929 . S
C1862 C1858 1.531 . S
C1862 H1874 0.960 . S
C1862 H1875 0.962 . S
C1862 H1876 0.960 . S
C1863 C1860 1.511 . S
C1863 H1877 0.961 . S
C1863 H1878 0.961 . S
C1863 H1879 0.961 . S
C1864 C1865 1.370 . S
C1864 C1866 1.363 . S
C1864 H1880 0.931 . S
C1865 C1864 1.370 . S
C1865 C1869 1.408 . S
C1866 C1864 1.363 . S
C1866 C1867 1.370 . S
C1866 C1870 1.524 . S
C1867 C1859 1.503 . S
C1867 C1866 1.370 . S
C1867 C1868 1.403 . S
C1868 C1867 1.403 . S
C1868 C1869 1.404 . S
C1868 C1871 1.539 . S
C1869 C1865 1.408 . S
C1869 C1868 1.404 . S
C1869 H1881 0.930 . S
C1870 C1866 1.524 . S
C1870 H1882 0.956 . S
C1870 H1883 0.961 . S
C1870 H1884 0.961 . S
C1871 C1868 1.539 . S
C1871 H1885 0.958 . S
C1871 H1886 0.961 . S
C1871 H1887 0.960 . S
H1872 C1856 0.931 . S
H1873 C1861 0.929 . S
H1874 C1862 0.960 . S
H1875 C1862 0.962 . S
H1876 C1862 0.960 . S
H1877 C1863 0.961 . S
H1878 C1863 0.961 . S
H1879 C1863 0.961 . S
H1880 C1864 0.931 . S
H1881 C1869 0.930 . S
H1882 C1870 0.956 . S
H1883 C1870 0.961 . S
H1884 C1870 0.961 . S
H1885 C1871 0.958 . S
H1886 C1871 0.961 . S
H1887 C1871 0.960 . S
C1888 C1889 1.391 . S
C1888 C1890 1.394 . S
C1888 H1904 0.931 . S
C1889 C1888 1.391 . S
C1889 C1893 1.376 . S
C1890 C1888 1.394 . S
C1890 C1891 1.369 . S
C1890 C1894 1.531 . S
C1891 C1890 1.369 . S
C1891 C1892 1.410 . S
C1891 C1899 1.503 . S
C1892 C1891 1.410 . S
C1892 C1893 1.392 . S
C1892 C1895 1.511 . S
C1893 C1889 1.376 . S
C1893 C1892 1.392 . S
C1893 H1905 0.929 . S
C1894 C1890 1.531 . S
C1894 H1906 0.960 . S
C1894 H1907 0.962 . S
C1894 H1908 0.960 . S
C1895 C1892 1.511 . S
C1895 H1909 0.961 . S
C1895 H1910 0.961 . S
C1895 H1911 0.961 . S
C1896 C1897 1.370 . S
C1896 C1898 1.363 . S
C1896 H1912 0.931 . S
C1897 C1896 1.370 . S
C1897 C1901 1.408 . S
C1898 C1896 1.363 . S
C1898 C1899 1.370 . S
C1898 C1902 1.524 . S
C1899 C1891 1.503 . S
C1899 C1898 1.370 . S
C1899 C1900 1.403 . S
C1900 C1899 1.403 . S
C1900 C1901 1.404 . S
C1900 C1903 1.539 . S
C1901 C1897 1.408 . S
C1901 C1900 1.404 . S
C1901 H1913 0.930 . S
C1902 C1898 1.524 . S
C1902 H1914 0.956 . S
C1902 H1915 0.961 . S
C1902 H1916 0.961 . S
C1903 C1900 1.539 . S
C1903 H1917 0.958 . S
C1903 H1918 0.961 . S
C1903 H1919 0.960 . S
H1904 C1888 0.931 . S
H1905 C1893 0.929 . S
H1906 C1894 0.960 . S
H1907 C1894 0.962 . S
H1908 C1894 0.960 . S
H1909 C1895 0.961 . S
H1910 C1895 0.961 . S
H1911 C1895 0.961 . S
H1912 C1896 0.931 . S
H1913 C1901 0.930 . S
H1914 C1902 0.956 . S
H1915 C1902 0.961 . S
H1916 C1902 0.961 . S
H1917 C1903 0.958 . S
H1918 C1903 0.961 . S
H1919 C1903 0.960 . S
C1920 C1921 1.391 . S
C1920 C1922 1.394 . S
C1920 H1936 0.931 . S
C1921 C1920 1.391 . S
C1921 C1925 1.376 1_455 S
C1922 C1920 1.394 . S
C1922 C1923 1.369 . S
C1922 C1926 1.531 . S
C1923 C1922 1.369 . S
C1923 C1924 1.410 1_455 S
C1923 C1931 1.503 1_454 S
C1924 C1923 1.410 1_655 S
C1924 C1925 1.392 . S
C1924 C1927 1.511 . S
C1925 C1921 1.376 1_655 S
C1925 C1924 1.392 . S
C1925 H1937 0.929 . S
C1926 C1922 1.531 . S
C1926 H1938 0.960 . S
C1926 H1939 0.962 1_554 S
C1926 H1940 0.960 . S
C1927 C1924 1.511 . S
C1927 H1941 0.961 . S
C1927 H1942 0.961 . S
C1927 H1943 0.961 . S
C1928 C1929 1.370 . S
C1928 C1930 1.363 . S
C1928 H1944 0.931 . S
C1929 C1928 1.370 . S
C1929 C1933 1.408 . S
C1930 C1928 1.363 . S
C1930 C1931 1.370 . S
C1930 C1934 1.518 1_655 S
C1931 C1923 1.503 1_656 S
C1931 C1930 1.370 . S
C1931 C1932 1.403 1_556 S
C1932 C1931 1.403 1_554 S
C1932 C1933 1.404 1_554 S
C1932 C1935 1.539 . S
C1933 C1929 1.408 . S
C1933 C1932 1.404 1_556 S
C1933 H1945 0.930 . S
C1934 C1930 1.518 1_455 S
C1934 H1946 0.981 . S
C1934 H1947 0.948 1_455 S
C1934 H1948 0.955 1_455 S
C1935 C1932 1.539 . S
C1935 H1949 0.958 1_655 S
C1935 H1950 0.961 . S
C1935 H1951 0.960 . S
H1936 C1920 0.931 . S
H1937 C1925 0.929 . S
H1938 C1926 0.960 . S
H1939 C1926 0.962 1_556 S
H1940 C1926 0.960 . S
H1941 C1927 0.961 . S
H1942 C1927 0.961 . S
H1943 C1927 0.961 . S
H1944 C1928 0.931 . S
H1945 C1933 0.930 . S
H1946 C1934 0.981 . S
H1947 C1934 0.948 1_655 S
H1948 C1934 0.955 1_655 S
H1949 C1935 0.958 1_455 S
H1950 C1935 0.961 . S
H1951 C1935 0.960 . S
C1952 C1953 1.391 . S
C1952 C1954 1.394 . S
C1952 H1968 0.931 . S
C1953 C1952 1.391 . S
C1953 C1957 1.376 . S
C1954 C1952 1.394 . S
C1954 C1955 1.369 . S
C1954 C1958 1.531 . S
C1955 C1954 1.369 . S
C1955 C1956 1.410 . S
C1955 C1963 1.503 . S
C1956 C1955 1.410 . S
C1956 C1957 1.392 . S
C1956 C1959 1.511 . S
C1957 C1953 1.376 . S
C1957 C1956 1.392 . S
C1957 H1969 0.929 . S
C1958 C1954 1.531 . S
C1958 H1970 0.960 . S
C1958 H1971 0.962 . S
C1958 H1972 0.960 . S
C1959 C1956 1.511 . S
C1959 H1973 0.961 . S
C1959 H1974 0.961 . S
C1959 H1975 0.961 . S
C1960 C1961 1.370 . S
C1960 C1962 1.363 . S
C1960 H1976 0.931 . S
C1961 C1960 1.370 . S
C1961 C1965 1.408 . S
C1962 C1960 1.363 . S
C1962 C1963 1.370 . S
C1962 C1966 1.524 . S
C1963 C1955 1.503 . S
C1963 C1962 1.370 . S
C1963 C1964 1.403 . S
C1964 C1963 1.403 . S
C1964 C1965 1.404 . S
C1964 C1967 1.539 . S
C1965 C1961 1.408 . S
C1965 C1964 1.404 . S
C1965 H1977 0.930 . S
C1966 C1962 1.524 . S
C1966 H1978 0.956 . S
C1966 H1979 0.961 . S
C1966 H1980 0.961 . S
C1967 C1964 1.539 . S
C1967 H1981 0.958 . S
C1967 H1982 0.961 . S
C1967 H1983 0.960 . S
H1968 C1952 0.931 . S
H1969 C1957 0.929 . S
H1970 C1958 0.960 . S
H1971 C1958 0.962 . S
H1972 C1958 0.960 . S
H1973 C1959 0.961 . S
H1974 C1959 0.961 . S
H1975 C1959 0.961 . S
H1976 C1960 0.931 . S
H1977 C1965 0.930 . S
H1978 C1966 0.956 . S
H1979 C1966 0.961 . S
H1980 C1966 0.961 . S
H1981 C1967 0.958 . S
H1982 C1967 0.961 . S
H1983 C1967 0.960 . S
C1984 C1985 1.391 . S
C1984 C1986 1.394 . S
C1984 H2000 0.931 . S
C1985 C1984 1.391 . S
C1985 C1989 1.376 . S
C1986 C1984 1.394 . S
C1986 C1987 1.369 . S
C1986 C1990 1.531 . S
C1987 C1986 1.369 . S
C1987 C1988 1.410 . S
C1987 C1995 1.503 . S
C1988 C1987 1.410 . S
C1988 C1989 1.392 . S
C1988 C1991 1.511 . S
C1989 C1985 1.376 . S
C1989 C1988 1.392 . S
C1989 H2001 0.929 . S
C1990 C1986 1.531 . S
C1990 H2002 0.960 . S
C1990 H2003 0.962 . S
C1990 H2004 0.960 . S
C1991 C1988 1.511 . S
C1991 H2005 0.961 . S
C1991 H2006 0.961 . S
C1991 H2007 0.961 . S
C1992 C1993 1.370 . S
C1992 C1994 1.363 . S
C1992 H2008 0.931 . S
C1993 C1992 1.370 . S
C1993 C1997 1.408 . S
C1994 C1992 1.363 . S
C1994 C1995 1.370 . S
C1994 C1998 1.524 . S
C1995 C1987 1.503 . S
C1995 C1994 1.370 . S
C1995 C1996 1.403 . S
C1996 C1995 1.403 . S
C1996 C1997 1.404 . S
C1996 C1999 1.539 . S
C1997 C1993 1.408 . S
C1997 C1996 1.404 . S
C1997 H2009 0.930 . S
C1998 C1994 1.524 . S
C1998 H2010 0.956 . S
C1998 H2011 0.961 . S
C1998 H2012 0.961 . S
C1999 C1996 1.539 . S
C1999 H2013 0.958 . S
C1999 H2014 0.961 . S
C1999 H2015 0.960 . S
H2000 C1984 0.931 . S
H2001 C1989 0.929 . S
H2002 C1990 0.960 . S
H2003 C1990 0.962 . S
H2004 C1990 0.960 . S
H2005 C1991 0.961 . S
H2006 C1991 0.961 . S
H2007 C1991 0.961 . S
H2008 C1992 0.931 . S
H2009 C1997 0.930 . S
H2010 C1998 0.956 . S
H2011 C1998 0.961 . S
H2012 C1998 0.961 . S
H2013 C1999 0.958 . S
H2014 C1999 0.961 . S
H2015 C1999 0.960 . S
C2016 C2017 1.391 . S
C2016 C2018 1.394 . S
C2016 H2032 0.931 . S
C2017 C2016 1.391 . S
C2017 C2021 1.376 . S
C2018 C2016 1.394 . S
C2018 C2019 1.369 . S
C2018 C2022 1.531 1_445 S
C2019 C2018 1.369 . S
C2019 C2020 1.410 1_556 S
C2019 C2027 1.503 1_446 S
C2020 C2019 1.410 1_554 S
C2020 C2021 1.392 1_554 S
C2020 C2023 1.511 . S
C2021 C2017 1.376 . S
C2021 C2020 1.392 1_556 S
C2021 H2033 0.929 . S
C2022 C2018 1.531 1_665 S
C2022 H2034 0.960 . S
C2022 H2035 0.962 . S
C2022 H2036 0.960 . S
C2023 C2020 1.511 . S
C2023 H2037 0.961 . S
C2023 H2038 0.961 . S
C2023 H2039 0.961 . S
C2024 C2025 1.370 . S
C2024 C2026 1.363 . S
C2024 H2040 0.931 . S
C2025 C2024 1.370 . S
C2025 C2029 1.408 1_655 S
C2026 C2024 1.363 . S
C2026 C2027 1.370 . S
C2026 C2030 1.524 1_565 S
C2027 C2019 1.503 1_664 S
C2027 C2026 1.370 . S
C2027 C2028 1.403 1_655 S
C2028 C2027 1.403 1_455 S
C2028 C2029 1.404 . S
C2028 C2031 1.539 . S
C2029 C2025 1.408 1_455 S
C2029 C2028 1.404 . S
C2029 H2041 0.930 . S
C2030 C2026 1.524 1_545 S
C2030 H2042 0.956 1_554 S
C2030 H2043 0.961 . S
C2030 H2044 0.961 . S
C2031 C2028 1.539 . S
C2031 H2045 0.958 1_554 S
C2031 H2046 0.961 . S
C2031 H2047 0.960 . S
H2032 C2016 0.931 . S
H2033 C2021 0.929 . S
H2034 C2022 0.960 . S
H2035 C2022 0.962 . S
H2036 C2022 0.960 . S
H2037 C2023 0.961 . S
H2038 C2023 0.961 . S
H2039 C2023 0.961 . S
H2040 C2024 0.931 . S
H2041 C2029 0.930 . S
H2042 C2030 0.956 1_556 S
H2043 C2030 0.961 . S
H2044 C2030 0.961 . S
H2045 C2031 0.958 1_556 S
H2046 C2031 0.961 . S
H2047 C2031 0.960 . S
C2048 C2049 1.391 . S
C2048 C2050 1.394 . S
C2048 H2064 0.931 . S
C2049 C2048 1.391 . S
C2049 C2053 1.376 . S
C2050 C2048 1.394 . S
C2050 C2051 1.369 . S
C2050 C2054 1.531 . S
C2051 C2050 1.369 . S
C2051 C2052 1.410 . S
C2051 C2059 1.503 1_545 S
C2052 C2051 1.410 . S
C2052 C2053 1.392 . S
C2052 C2055 1.511 1_545 S
C2053 C2049 1.376 . S
C2053 C2052 1.392 . S
C2053 H2065 0.929 . S
C2054 C2050 1.531 . S
C2054 H2066 0.960 . S
C2054 H2067 0.962 . S
C2054 H2068 0.960 . S
C2055 C2052 1.511 1_565 S
C2055 H2069 0.961 . S
C2055 H2070 0.961 . S
C2055 H2071 0.961 . S
C2056 C2057 1.370 . S
C2056 C2058 1.363 . S
C2056 H2072 0.931 . S
C2057 C2056 1.370 . S
C2057 C2061 1.408 . S
C2058 C2056 1.363 . S
C2058 C2059 1.370 . S
C2058 C2062 1.524 . S
C2059 C2051 1.503 1_565 S
C2059 C2058 1.370 . S
C2059 C2060 1.403 . S
C2060 C2059 1.403 . S
C2060 C2061 1.404 . S
C2060 C2063 1.539 . S
C2061 C2057 1.408 . S
C2061 C2060 1.404 . S
C2061 H2073 0.930 . S
C2062 C2058 1.524 . S
C2062 H2074 0.956 1_565 S
C2062 H2075 0.961 . S
C2062 H2076 0.961 . S
C2063 C2060 1.539 . S
C2063 H2077 0.958 1_565 S
C2063 H2078 0.961 . S
C2063 H2079 0.960 1_565 S
H2064 C2048 0.931 . S
H2065 C2053 0.929 . S
H2066 C2054 0.960 . S
H2067 C2054 0.962 . S
H2068 C2054 0.960 . S
H2069 C2055 0.961 . S
H2070 C2055 0.961 . S
H2071 C2055 0.961 . S
H2072 C2056 0.931 . S
H2073 C2061 0.930 . S
H2074 C2062 0.956 1_545 S
H2075 C2062 0.961 . S
H2076 C2062 0.961 . S
H2077 C2063 0.958 1_545 S
H2078 C2063 0.961 . S
H2079 C2063 0.960 1_545 S
C545 C17 1.862 . S
C553 C357 1.855 . S
C577 C51 1.830 . S
C585 C391 1.848 . S
C609 C85 1.831 . S
C617 C289 1.850 . S
C641 C119 1.850 . S
C649 C323 1.846 . S
C673 C144 1.831 . S
C681 C484 1.845 . S
C705 C178 1.843 . S
C713 C518 1.855 . S
C737 C212 1.860 . S
C745 C416 1.858 . S
C769 C246 1.831 . S
C777 C450 1.845 . S
C801 C310 0.992 . S
C809 C8 1.036 . S
C833 C344 0.966 . S
C841 C42 1.033 . S
C865 C378 1.047 . S
C873 C76 1.031 . S
C897 C276 1.048 . S
C905 C110 1.032 . S
C929 C153 1.038 . S
C937 C455 1.015 . S
C961 C489 1.047 . S
C969 C187 1.032 . S
C993 C523 0.998 . S
C1001 C221 1.036 . S
C1025 C421 1.047 . S
C1033 C255 1.033 . S
C1057 C38 0.988 . S
C1065 C280 1.031 . S
C1089 C314 1.026 . S
C1097 C72 1.025 . S
C1121 C348 1.032 . S
C1129 C106 1.024 . S
C1153 C382 1.038 . S
C1161 C4 1.008 . S
C1185 C425 1.026 . S
C1193 C183 1.022 . S
C1217 C217 0.973 . S
C1225 C459 1.031 . S
C1249 C251 0.981 . S
C1257 C493 1.031 . S
C1281 C527 1.031 . S
C1289 C149 1.026 . S
C1313 C29 1.202 1_556 S
C1321 C514 1.187 . S
C1345 C63 1.236 . S
C1353 C140 1.180 . S
C1377 C446 1.175 . S
C1385 C97 1.230 . S
C1409 C208 1.136 . S
C1417 C131 1.230 . S
C1441 C136 1.218 1_554 S
C1449 C387 1.172 . S
C1473 C170 1.206 . S
C1481 C13 1.198 . S
C1505 C319 1.135 . S
C1513 C204 1.230 . S
C1537 C81 1.216 . S
C1545 C238 1.216 . S
C1569 C301 1.231 . S
C1577 C242 1.162 . S
C1601 C335 1.240 . S
C1609 C412 1.172 . S
C1633 C174 1.172 . S
C1641 C369 1.218 1_556 S
C1665 C480 1.213 . S
C1673 C403 1.216 . S
C1697 C408 1.208 . S
C1705 C115 1.182 . S
C1729 C442 1.209 . S
C1737 C285 1.182 . S
C1761 C476 1.212 1_554 S
C1769 C47 1.195 . S
C1793 C353 1.181 . S
C1801 C510 1.228 . S
C1825 C0 2.124 . S
C1833 C437 2.128 . S
C1857 C34 2.116 . S
C1865 C199 2.133 . S
C1889 C68 2.118 . S
C1897 C505 2.132 . S
C1921 C267 2.116 . S
C1929 C102 2.133 . S
C1953 C165 2.122 . S
C1961 C272 2.129 . S
C1985 C340 2.127 . S
C1993 C233 2.127 . S
C2017 C306 2.118 . S
C2025 C471 2.132 . S
C2049 C539 2.128 . S
C2057 C374 2.129 . S
