# Generated by pormake.
# Topology sni, (6)-cn, num edge types: 1
# Building blocks:
#     Node 0, Type 0, BuildingBlock: IZENUY_clean_sbu_0, # of connection points: 6
#     Node 1, Type 0, BuildingBlock: IZENUY_clean_sbu_0, # of connection points: 6
#     Node 2, Type 0, BuildingBlock: IZENUY_clean_sbu_0, # of connection points: 6
#     Node 3, Type 0, BuildingBlock: IZENUY_clean_sbu_0, # of connection points: 6
#     Node 4, Type 0, BuildingBlock: IZENUY_clean_sbu_0, # of connection points: 6
#     Node 5, Type 0, BuildingBlock: IZENUY_clean_sbu_0, # of connection points: 6
#     Node 6, Type 0, BuildingBlock: IZENUY_clean_sbu_0, # of connection points: 6
#     Node 7, Type 0, BuildingBlock: IZENUY_clean_sbu_0, # of connection points: 6
#     Edge 8, Type (0, 0), BuildingBlock: OJICUG_clean_linker_0, # of connection points: 2
#     Edge 9, Type (0, 0), BuildingBlock: OJICUG_clean_linker_0, # of connection points: 2
#     Edge 10, Type (0, 0), BuildingBlock: OJICUG_clean_linker_0, # of connection points: 2
#     Edge 11, Type (0, 0), BuildingBlock: OJICUG_clean_linker_0, # of connection points: 2
#     Edge 12, Type (0, 0), BuildingBlock: OJICUG_clean_linker_0, # of connection points: 2
#     Edge 13, Type (0, 0), BuildingBlock: OJICUG_clean_linker_0, # of connection points: 2
#     Edge 14, Type (0, 0), BuildingBlock: OJICUG_clean_linker_0, # of connection points: 2
#     Edge 15, Type (0, 0), BuildingBlock: OJICUG_clean_linker_0, # of connection points: 2
#     Edge 16, Type (0, 0), BuildingBlock: OJICUG_clean_linker_0, # of connection points: 2
#     Edge 17, Type (0, 0), BuildingBlock: OJICUG_clean_linker_0, # of connection points: 2
#     Edge 18, Type (0, 0), BuildingBlock: OJICUG_clean_linker_0, # of connection points: 2
#     Edge 19, Type (0, 0), BuildingBlock: OJICUG_clean_linker_0, # of connection points: 2
#     Edge 20, Type (0, 0), BuildingBlock: OJICUG_clean_linker_0, # of connection points: 2
#     Edge 21, Type (0, 0), BuildingBlock: OJICUG_clean_linker_0, # of connection points: 2
#     Edge 22, Type (0, 0), BuildingBlock: OJICUG_clean_linker_0, # of connection points: 2
#     Edge 23, Type (0, 0), BuildingBlock: OJICUG_clean_linker_0, # of connection points: 2
#     Edge 24, Type (0, 0), BuildingBlock: OJICUG_clean_linker_0, # of connection points: 2
#     Edge 25, Type (0, 0), BuildingBlock: OJICUG_clean_linker_0, # of connection points: 2
#     Edge 26, Type (0, 0), BuildingBlock: OJICUG_clean_linker_0, # of connection points: 2
#     Edge 27, Type (0, 0), BuildingBlock: OJICUG_clean_linker_0, # of connection points: 2
#     Edge 28, Type (0, 0), BuildingBlock: OJICUG_clean_linker_0, # of connection points: 2
#     Edge 29, Type (0, 0), BuildingBlock: OJICUG_clean_linker_0, # of connection points: 2
#     Edge 30, Type (0, 0), BuildingBlock: OJICUG_clean_linker_0, # of connection points: 2
#     Edge 31, Type (0, 0), BuildingBlock: OJICUG_clean_linker_0, # of connection points: 2
# Relax obj value: 0.128
# Max RMSD: 0.110
# Mean RMSD: 0.110
data_MOF--net-sni--node1-IZENUY_clean_sbu_0--edge1-OJICUG_clean_linker_0
_symmetry_space_group_name_H-M    P1
_symmetry_Int_Tables_number       1
_symmetry_cell_setting            triclinic
loop_
_symmetry_equiv_pos_as_xyz
'x, y, z'
_cell_length_a     29.229286
_cell_length_b     29.23056
_cell_length_c     15.622279
_cell_angle_alpha  89.929863
_cell_angle_beta   90.075966
_cell_angle_gamma 89.952204
loop_
_atom_site_label
_atom_site_type_symbol
_atom_site_fract_x
_atom_site_fract_y
_atom_site_fract_z
_atom_type_partial_charge
Fe0 Fe 0.66401 0.23898 -0.0133 0.0
Fe1 Fe 0.73898 0.16402 0.98157 0.0
O2 O 0.68063 0.18064 -0.01589 0.0
Fe3 Fe 0.63804 0.13804 -0.01593 0.0
O4 O 0.59408 0.17283 0.93311 0.0
O5 O 0.63045 0.23344 0.88853 0.0
O6 O 0.71165 0.25881 0.91892 0.0
C7 C 0.73958 0.23749 0.87117 0.0
C8 C 0.60501 0.1952 0.10623 0.0
O9 O 0.74908 0.19602 0.88438 0.0
C10 C 0.70578 0.09761 0.0865 0.0
O11 O 0.69599 0.24906 0.08392 0.0
O12 O 0.75879 0.21165 0.04939 0.0
O13 O 0.61932 0.15545 0.08906 0.0
O14 O 0.61366 0.22875 0.05669 0.0
C15 C 0.69523 0.10505 0.86194 0.0
O16 O 0.73342 0.13044 0.07971 0.0
O17 O 0.67282 0.09408 0.03502 0.0
C18 C 0.73746 0.23956 0.09715 0.0
O19 O 0.72876 0.11369 0.91154 0.0
O20 O 0.65548 0.11935 0.87907 0.0
C21 C 0.59761 0.20581 0.88168 0.0
Fe22 Fe 0.93416 0.6391 -0.0039 0.0
Fe23 Fe 0.90785 0.73975 -0.01599 0.0
O24 O 0.89117 0.68131 -0.01194 0.0
Fe25 Fe 0.83267 0.66465 -0.01497 0.0
O26 O 0.83688 0.63345 0.08624 0.0
O27 O 0.89974 0.59717 0.05312 0.0
O28 O 0.9517 0.66109 0.09854 0.0
C29 C 0.96579 0.70134 0.1101 0.0
C30 C 0.87852 0.60051 0.87713 0.0
O31 O 0.95824 0.73235 0.05484 0.0
C32 C 0.83227 0.73574 0.86897 0.0
O33 O 0.97799 0.67198 0.94018 0.0
O34 O 0.94151 0.73066 0.88689 0.0
O35 O 0.8436 0.6127 0.92015 0.0
O36 O 0.91795 0.61539 0.89466 0.0
C37 C 0.83424 0.74259 0.09424 0.0
O38 O 0.86051 0.75774 0.91455 0.0
O39 O 0.82287 0.69449 0.88481 0.0
C40 C 0.97386 0.70215 0.88294 0.0
O41 O 0.87549 0.75266 0.0795 0.0
O42 O 0.81281 0.71371 0.04867 0.0
C43 C 0.86576 0.60252 0.10136 0.0
Fe44 Fe 0.33289 0.90805 -0.01121 0.0
Fe45 Fe 0.40799 0.83298 0.97949 0.0
O46 O 0.39121 0.8913 -0.01584 0.0
Fe47 Fe 0.43378 0.93388 -0.01578 0.0
O48 O 0.41752 0.95115 0.0899 0.0
O49 O 0.34396 0.95753 0.06072 0.0
O50 O 0.3235 0.87505 0.08488 0.0
C51 C 0.3332 0.83354 0.09706 0.0
C52 C 0.36603 0.97475 0.88335 0.0
O53 O 0.36106 0.81255 0.04858 0.0
C54 C 0.46531 0.8783 0.85901 0.0
O55 O 0.3125 0.86113 0.91964 0.0
O56 O 0.37502 0.82361 0.88336 0.0
O57 O 0.39856 0.97846 0.93576 0.0
O58 O 0.33763 0.94266 0.89151 0.0
C59 C 0.47465 0.86613 0.08505 0.0
O60 O 0.45749 0.8441 0.90762 0.0
O61 O 0.45109 0.91766 0.87854 0.0
C62 C 0.3335 0.83329 0.87116 0.0
O63 O 0.44257 0.83771 0.07681 0.0
O64 O 0.47836 0.89867 0.03268 0.0
C65 C 0.37813 0.96532 0.10941 0.0
Fe66 Fe 0.23973 0.4079 -0.01569 0.0
Fe67 Fe 0.13906 0.43417 0.97212 0.0
O68 O 0.18129 0.3912 0.9802 0.0
Fe69 Fe 0.16466 0.3327 -0.01681 0.0
O70 O 0.19447 0.32291 0.08344 0.0
O71 O 0.25773 0.36056 0.05375 0.0
O72 O 0.2306 0.44153 0.08144 0.0
C73 C 0.20207 0.47387 0.08541 0.0
C74 C 0.24263 0.33432 0.87405 0.0
O75 O 0.1719 0.478 0.02815 0.0
C76 C 0.10256 0.36575 0.86677 0.0
O77 O 0.23233 0.45831 0.91353 0.0
O78 O 0.16109 0.45174 0.86973 0.0
O79 O 0.21377 0.31286 0.91962 0.0
O80 O 0.25267 0.37557 0.8888 0.0
C81 C 0.10045 0.37849 0.091 0.0
O82 O 0.09717 0.39974 0.91497 0.0
O83 O 0.1335 0.33689 0.88194 0.0
C84 C 0.20134 0.46587 0.85824 0.0
O85 O 0.11529 0.41793 0.0735 0.0
O86 O 0.11268 0.34358 0.04799 0.0
C87 C 0.23572 0.33232 0.09931 0.0
Fe88 Fe 0.66462 0.83272 0.48324 0.0
Fe89 Fe 0.73973 0.90788 0.48426 0.0
O90 O 0.68128 0.89121 0.48021 0.0
Fe91 Fe 0.63907 0.93419 0.47217 0.0
O92 O 0.61536 0.91799 0.57361 0.0
O93 O 0.61267 0.84365 0.54812 0.0
O94 O 0.69446 0.82291 0.58346 0.0
C95 C 0.73572 0.83231 0.5993 0.0
C96 C 0.60248 0.8658 0.36692 0.0
O97 O 0.75772 0.86055 0.55372 0.0
C98 C 0.70131 0.96583 0.35817 0.0
O99 O 0.71368 0.81284 0.41961 0.0
O100 O 0.75263 0.87552 0.38877 0.0
O101 O 0.59713 0.89978 0.41515 0.0
O102 O 0.63342 0.83692 0.38203 0.0
C103 C 0.70214 0.9739 0.58532 0.0
O104 O 0.73233 0.95827 0.41342 0.0
O105 O 0.66106 0.95173 0.36973 0.0
C106 C 0.74256 0.83428 0.37403 0.0
O107 O 0.73065 0.94154 0.58137 0.0
O108 O 0.67196 0.97803 0.52808 0.0
C109 C 0.60049 0.87857 0.59116 0.0
Fe110 Fe 0.164 0.739 0.48671 0.0
Fe111 Fe 0.23896 0.66403 0.48157 0.0
O112 O 0.18061 0.68065 0.48416 0.0
Fe113 Fe 0.13802 0.63806 0.4842 0.0
O114 O 0.09405 0.67283 0.43325 0.0
O115 O 0.13041 0.73343 0.38856 0.0
O116 O 0.21162 0.75881 0.41888 0.0
C117 C 0.23954 0.73748 0.37112 0.0
C118 C 0.10503 0.69525 0.60633 0.0
O119 O 0.24904 0.69601 0.38435 0.0
C120 C 0.20579 0.59764 0.58658 0.0
O121 O 0.19599 0.74909 0.58389 0.0
O122 O 0.25879 0.71167 0.54935 0.0
O123 O 0.11933 0.6555 0.58919 0.0
O124 O 0.11366 0.72878 0.55673 0.0
C125 C 0.19518 0.60503 0.36204 0.0
O126 O 0.23343 0.63047 0.57974 0.0
O127 O 0.17281 0.5941 0.53516 0.0
C128 C 0.23747 0.7396 0.5971 0.0
O129 O 0.22872 0.61369 0.41158 0.0
O130 O 0.15542 0.61933 0.37921 0.0
C131 C 0.09758 0.70579 0.38177 0.0
Fe132 Fe 0.40787 0.23974 0.48396 0.0
Fe133 Fe 0.33266 0.16468 0.48508 0.0
O134 O 0.39117 0.1813 0.48807 0.0
Fe135 Fe 0.43413 0.13907 0.49615 0.0
O136 O 0.45172 0.16111 0.59853 0.0
O137 O 0.45829 0.23234 0.55473 0.0
O138 O 0.37555 0.25269 0.57948 0.0
C139 C 0.33429 0.24265 0.59423 0.0
C140 C 0.47383 0.20207 0.38285 0.0
O141 O 0.31283 0.21379 0.54865 0.0
C142 C 0.37844 0.10046 0.37728 0.0
O143 O 0.36053 0.25774 0.41453 0.0
O144 O 0.32286 0.19449 0.38483 0.0
O145 O 0.47796 0.1719 0.4401 0.0
O146 O 0.4415 0.23061 0.38682 0.0
C147 C 0.36572 0.10258 0.6015 0.0
O148 O 0.34354 0.1127 0.42028 0.0
O149 O 0.41788 0.1153 0.39478 0.0
C150 C 0.33228 0.23574 0.36896 0.0
O151 O 0.33685 0.13352 0.58633 0.0
O152 O 0.39971 0.0972 0.5533 0.0
C153 C 0.46583 0.20136 0.61003 0.0
Fe154 Fe 0.90802 0.33293 0.47947 0.0
Fe155 Fe 0.93384 0.43382 0.48406 0.0
O156 O 0.89126 0.39125 0.4841 0.0
Fe157 Fe 0.83294 0.40802 0.48878 0.0
O158 O 0.82357 0.37505 0.58491 0.0
O159 O 0.8611 0.31254 0.54862 0.0
O160 O 0.94263 0.33768 0.57675 0.0
C161 C 0.97472 0.36608 0.58492 0.0
C162 C 0.83351 0.33323 0.37121 0.0
O163 O 0.97843 0.39861 0.53252 0.0
C164 C 0.86608 0.47468 0.38322 0.0
O165 O 0.9575 0.34401 0.40754 0.0
O166 O 0.95112 0.41756 0.37838 0.0
O167 O 0.81252 0.36109 0.41968 0.0
O168 O 0.87503 0.32354 0.38338 0.0
C169 C 0.87825 0.46533 0.60927 0.0
O170 O 0.89862 0.4784 0.43559 0.0
O171 O 0.83767 0.4426 0.39146 0.0
C172 C 0.9653 0.37819 0.35887 0.0
O173 O 0.91762 0.45113 0.58974 0.0
O174 O 0.84405 0.45752 0.56065 0.0
C175 C 0.83326 0.33354 0.5971 0.0
C176 C 0.50894 0.23773 0.25034 0.0
C177 C 0.50884 0.20372 0.31417 0.0
H178 H 0.54005 0.26225 0.13427 0.0
C179 C 0.54223 0.16904 0.31091 0.0
H180 H 0.48373 0.2649 0.25107 0.0
C181 C 0.57387 0.1674 0.24462 0.0
C182 C 0.57344 0.20051 0.17959 0.0
H183 H 0.54349 0.14224 0.35882 0.0
H184 H 0.59845 0.13962 0.24384 0.0
C185 C 0.54123 0.23629 0.18375 0.0
C186 C 0.82178 0.55076 0.20191 0.0
C187 C 0.86258 0.57253 0.17713 0.0
H188 H 0.79071 0.50123 0.28624 0.0
C189 C 0.90306 0.56279 0.22173 0.0
H190 H 0.79022 0.5575 0.16775 0.0
C191 C 0.90329 0.53168 0.28893 0.0
C192 C 0.86313 0.50862 0.3129 0.0
H193 H 0.935 0.57905 0.20396 0.0
H194 H 0.93553 0.52487 0.32083 0.0
C195 C 0.82217 0.51843 0.26892 0.0
C196 C 0.55073 0.82182 0.26634 0.0
C197 C 0.5725 0.86262 0.29113 0.0
H198 H 0.5012 0.79076 0.18201 0.0
C199 C 0.56277 0.9031 0.24654 0.0
H200 H 0.55746 0.79026 0.3005 0.0
C201 C 0.53166 0.90333 0.17934 0.0
C202 C 0.5086 0.86318 0.15536 0.0
H203 H 0.57903 0.93503 0.26432 0.0
H204 H 0.52485 0.93557 0.14744 0.0
C205 C 0.5184 0.82222 0.19933 0.0
C206 C 0.23772 0.50897 0.21793 0.0
C207 C 0.20371 0.50888 0.15409 0.0
H208 H 0.26223 0.54008 0.33402 0.0
C209 C 0.16904 0.54226 0.15733 0.0
H210 H 0.26489 0.48377 0.21721 0.0
C211 C 0.16739 0.5739 0.22363 0.0
C212 C 0.20049 0.57347 0.28868 0.0
H213 H 0.14224 0.54353 0.10942 0.0
H214 H 0.1396 0.59848 0.22441 0.0
C215 C 0.23627 0.54126 0.28452 0.0
C216 C 0.55594 0.83548 0.70354 0.0
C217 C 0.56364 0.87535 0.65524 0.0
H218 H 0.51855 0.80487 0.80741 0.0
C219 C 0.5363 0.91399 0.66992 0.0
H220 H 0.57647 0.80514 0.69296 0.0
C221 C 0.50328 0.91371 0.73353 0.0
C222 C 0.49693 0.87494 0.78543 0.0
H223 H 0.54066 0.94497 0.63261 0.0
H224 H 0.48348 0.94463 0.7432 0.0
C225 C 0.52286 0.83534 0.76875 0.0
C226 C 0.18375 0.48952 0.71023 0.0
C227 C 0.20954 0.49626 0.78471 0.0
H228 H 0.16331 0.51552 0.5891 0.0
C229 C 0.23888 0.53428 0.79012 0.0
H230 H 0.16142 0.46013 0.70391 0.0
C231 C 0.23974 0.56683 0.72389 0.0
C232 C 0.21153 0.5613 0.65164 0.0
H233 H 0.25907 0.54014 0.84724 0.0
H234 H 0.2607 0.59712 0.731 0.0
C235 C 0.18487 0.52144 0.64446 0.0
C236 C 0.53426 0.23889 0.67815 0.0
C237 C 0.49624 0.20956 0.68356 0.0
H238 H 0.5971 0.26071 0.73728 0.0
C239 C 0.48949 0.18378 0.75805 0.0
H240 H 0.54012 0.25908 0.62103 0.0
C241 C 0.52141 0.1849 0.82382 0.0
C242 C 0.56127 0.21155 0.81663 0.0
H243 H 0.46008 0.16145 0.76437 0.0
H244 H 0.51548 0.16335 0.87918 0.0
C245 C 0.5668 0.23975 0.74438 0.0
C246 C 0.91394 0.5363 0.7984 0.0
C247 C 0.8753 0.56366 0.81305 0.0
H248 H 0.94457 0.48347 0.72514 0.0
C249 C 0.83543 0.55597 0.76472 0.0
H250 H 0.9449 0.54066 0.83574 0.0
C251 C 0.83529 0.52289 0.6995 0.0
C252 C 0.87489 0.49695 0.68285 0.0
H253 H 0.8051 0.57651 0.77527 0.0
H254 H 0.80483 0.51859 0.66082 0.0
C255 C 0.91365 0.50329 0.73479 0.0
C256 C 0.04233 0.6692 0.81113 0.0
C257 C 1.00889 0.70381 0.81429 0.0
H258 H 0.09859 0.6398 0.74412 0.0
C259 C 1.00892 0.73778 0.75036 0.0
H260 H 0.04364 0.64244 0.85912 0.0
C261 C 0.04122 0.73633 0.68377 0.0
C262 C 0.07348 0.70059 0.6797 0.0
H263 H 0.98368 0.76491 0.75102 0.0
H264 H 0.03999 0.76224 0.63421 0.0
C265 C 0.07397 0.66754 0.74484 0.0
C266 C 0.32175 0.05072 0.70186 0.0
C267 C 0.3625 0.07264 0.67732 0.0
H268 H 0.29072 1.00107 0.78599 0.0
C269 C 0.40295 0.06306 0.72217 0.0
H270 H 0.29022 0.05733 0.6675 0.0
C271 C 0.40317 1.03195 0.78937 0.0
C272 C 0.36307 1.00874 0.81309 0.0
H273 H 0.43485 0.07943 0.70457 0.0
H274 H 0.43539 1.02526 0.82145 0.0
C275 C 0.32214 1.0184 0.76888 0.0
C276 C 1.01837 0.32219 0.69936 0.0
C277 C 1.00871 0.36312 0.65517 0.0
H278 H 0.05731 0.29026 0.80073 0.0
C279 C 1.03193 0.40322 0.67891 0.0
H280 H 1.00105 0.29077 0.68224 0.0
C281 C 0.06304 0.40299 0.74611 0.0
C282 C 0.07262 0.36254 0.79094 0.0
H283 H 1.02524 0.43544 0.64684 0.0
H284 H 0.0794 0.43489 0.76373 0.0
C285 C 0.0507 0.32179 0.76638 0.0
C286 C 0.73631 0.04125 0.78451 0.0
C287 C 0.70057 0.07351 0.78857 0.0
H288 H 0.76489 0.9837 0.71727 0.0
C289 C 0.66753 0.07401 0.72341 0.0
H290 H 0.76222 0.04001 0.8341 0.0
C291 C 0.66919 0.04237 0.65711 0.0
C292 C 0.7038 1.00892 0.65397 0.0
H293 H 0.63979 0.09864 0.72412 0.0
H294 H 0.64244 0.04369 0.60911 0.0
C295 C 0.73776 1.00895 0.71792 0.0
C296 C 0.05602 0.33541 0.20356 0.0
C297 C 0.06357 0.37522 0.15502 0.0
H298 H 1.01877 0.30485 0.30766 0.0
C299 C 1.03607 0.41378 0.16943 0.0
H300 H 0.07668 0.30514 0.19319 0.0
C301 C 1.00306 0.41349 0.23305 0.0
C302 C 0.99688 0.37479 0.28523 0.0
H303 H 0.04032 0.4447 0.13191 0.0
H304 H 0.98313 0.44434 0.24254 0.0
C305 C 1.02295 0.33526 0.26878 0.0
C306 C 0.68362 0.98954 0.21023 0.0
C307 C 0.70949 0.99623 0.28463 0.0
H308 H 0.66312 1.01558 0.08918 0.0
C309 C 0.7389 1.03419 0.28996 0.0
H310 H 0.66122 0.96019 0.20397 0.0
C311 C 0.73977 0.06674 0.22373 0.0
C312 C 0.71148 0.06126 0.15156 0.0
H313 H 0.75917 0.04001 0.34701 0.0
H314 H 0.7608 0.09699 0.23077 0.0
C315 C 0.68474 1.02146 0.14446 0.0
C316 C 0.9895 0.68365 0.25805 0.0
C317 C 0.99619 0.70952 0.18365 0.0
H318 H 1.01554 0.66316 0.3791 0.0
C319 C 1.03416 0.73892 0.17833 0.0
H320 H 0.96014 0.66126 0.2643 0.0
C321 C 0.06671 0.73978 0.24455 0.0
C322 C 0.06123 0.7115 0.31671 0.0
H323 H 0.03998 0.75918 0.12128 0.0
H324 H 0.09697 0.76081 0.23751 0.0
C325 C 1.02142 0.68477 0.32382 0.0
C326 C 0.33521 1.02299 0.19946 0.0
C327 C 0.37474 0.99689 0.18306 0.0
H328 H 0.3051 0.07673 0.27501 0.0
C329 C 0.41342 1.00304 0.2353 0.0
H330 H 0.30482 1.01883 0.16054 0.0
C331 C 0.41371 1.03605 0.29892 0.0
C332 C 0.37517 0.06358 0.31327 0.0
H333 H 0.44426 0.98309 0.22585 0.0
H334 H 0.44462 0.04028 0.33648 0.0
C335 C 0.33536 0.05606 0.26469 0.0
C336 C 0.76192 0.31753 0.28646 0.0
C337 C 0.80869 0.30951 0.30106 0.0
H338 H 0.7028 0.3018 0.21121 0.0
C339 C 0.8318 0.27824 0.24786 0.0
H340 H 0.74303 0.34133 0.32606 0.0
C341 C 0.80877 0.25552 0.18195 0.0
C342 C 0.76202 0.26351 0.16732 0.0
H343 H 0.86787 0.27117 0.25701 0.0
H344 H 0.82772 0.23172 0.14244 0.0
C345 C 0.73887 0.2948 0.22046 0.0
C346 C 0.82842 0.80647 0.20025 0.0
C347 C 0.81024 0.76615 0.16505 0.0
H348 H 0.8213 0.8596 0.29322 0.0
C349 C 0.76971 0.74808 0.19973 0.0
H350 H 0.85958 0.82132 0.17507 0.0
C351 C 0.74805 0.76974 0.26854 0.0
C352 C 0.76612 0.81027 0.30322 0.0
H353 H 0.75502 0.71689 0.17442 0.0
H354 H 0.71686 0.75505 0.29384 0.0
C355 C 0.80645 0.82845 0.26803 0.0
C356 C 0.2782 0.83183 0.2204 0.0
C357 C 0.30948 0.80872 0.1672 0.0
H358 H 0.23168 0.82773 0.32583 0.0
C359 C 0.3175 0.76195 0.1818 0.0
H360 H 0.27112 0.86788 0.21126 0.0
C361 C 0.29477 0.7389 0.24781 0.0
C362 C 0.26349 0.76204 0.30095 0.0
H363 H 0.34131 0.74306 0.14221 0.0
H364 H 0.30179 0.70284 0.25705 0.0
C365 C 0.25549 0.80879 0.28631 0.0
C366 C 0.26642 0.24267 0.2661 0.0
C367 C 0.30766 0.26 0.29931 0.0
H368 H 0.21095 0.25223 0.17801 0.0
C369 C 0.32476 0.3014 0.26655 0.0
H370 H 0.25219 0.21098 0.29024 0.0
C371 C 0.30139 0.32478 0.20172 0.0
C372 C 0.25998 0.30769 0.16895 0.0
H373 H 0.35647 0.31566 0.29058 0.0
H374 H 0.31565 0.35648 0.1777 0.0
C375 C 0.24264 0.26646 0.20215 0.0
C376 C 0.23888 0.79484 0.7204 0.0
C377 C 0.26203 0.76356 0.66726 0.0
H378 H 0.24303 0.84137 0.826 0.0
C379 C 0.30879 0.75558 0.68188 0.0
H380 H 0.20281 0.80184 0.71116 0.0
C381 C 0.33182 0.7783 0.74779 0.0
C382 C 0.3087 0.80957 0.801 0.0
H383 H 0.32774 0.73178 0.64237 0.0
H384 H 0.36788 0.77124 0.75694 0.0
C385 C 0.26193 0.81758 0.7864 0.0
C386 C 0.26978 0.24815 0.69973 0.0
C387 C 0.3103 0.26621 0.66505 0.0
H388 H 0.21693 0.25511 0.79384 0.0
C389 C 0.32849 0.30653 0.70025 0.0
H390 H 0.25508 0.21696 0.67442 0.0
C391 C 0.30652 0.32851 0.76804 0.0
C392 C 0.2662 0.31032 0.80323 0.0
H393 H 0.35965 0.32138 0.67507 0.0
H394 H 0.32137 0.35966 0.79324 0.0
C395 C 0.24812 0.2698 0.76854 0.0
C396 C 0.77827 0.33184 0.72047 0.0
C397 C 0.80954 0.30873 0.66727 0.0
H398 H 0.73175 0.32776 0.8259 0.0
C399 C 0.81755 0.26197 0.68187 0.0
H400 H 0.7712 0.3679 0.71133 0.0
C401 C 0.79482 0.23891 0.74787 0.0
C402 C 0.76354 0.26206 0.80101 0.0
H403 H 0.84135 0.24306 0.64227 0.0
H404 H 0.80183 0.20285 0.75711 0.0
C405 C 0.75555 0.30881 0.78638 0.0
C406 C 0.80139 0.82477 0.70172 0.0
C407 C 0.75998 0.80768 0.66894 0.0
H408 H 0.85646 0.81566 0.79058 0.0
C409 C 0.74264 0.76646 0.70215 0.0
H410 H 0.81565 0.85648 0.67769 0.0
C411 C 0.76642 0.74267 0.76611 0.0
C412 C 0.80765 0.76 0.79932 0.0
H413 H 0.71095 0.75223 0.678 0.0
H414 H 0.75218 0.71099 0.79024 0.0
C415 C 0.82475 0.8014 0.76655 0.0
loop_
_geom_bond_atom_site_label_1
_geom_bond_atom_site_label_2
_geom_bond_distance
_geom_bond_site_symmetry_2
_ccdc_geom_bond_type
Fe0 O2 1.918 . S
Fe0 O5 1.997 1_554 S
Fe0 O6 2.002 1_554 S
Fe0 O11 1.976 . S
Fe0 O14 1.996 . S
Fe1 O2 1.918 . S
Fe1 O9 1.997 1_554 S
Fe1 O12 1.996 . S
Fe1 O16 1.976 . S
Fe1 O19 2.002 1_554 S
O2 Fe0 1.918 . S
O2 Fe1 1.918 . S
O2 Fe3 1.918 . S
Fe3 O2 1.918 . S
Fe3 O4 2.002 1_554 S
Fe3 O13 1.976 . S
Fe3 O17 1.996 . S
Fe3 O20 1.997 1_554 S
O4 Fe3 2.002 1_556 S
O4 C21 1.295 . S
O5 Fe0 1.997 1_556 S
O5 C21 1.235 . S
O6 Fe0 2.002 1_556 S
O6 C7 1.295 . S
C7 O6 1.295 . S
C7 O9 1.235 . S
C8 O13 1.287 . S
C8 O14 1.255 . S
O9 Fe1 1.997 1_556 S
O9 C7 1.235 . S
C10 O16 1.287 . S
C10 O17 1.255 . S
O11 Fe0 1.976 . S
O11 C18 1.287 . S
O12 Fe1 1.996 . S
O12 C18 1.255 . S
O13 Fe3 1.976 . S
O13 C8 1.287 . S
O14 Fe0 1.996 . S
O14 C8 1.255 . S
C15 O19 1.295 . S
C15 O20 1.235 . S
O16 Fe1 1.976 . S
O16 C10 1.287 . S
O17 Fe3 1.996 . S
O17 C10 1.255 . S
C18 O11 1.287 . S
C18 O12 1.255 . S
O19 Fe1 2.002 1_556 S
O19 C15 1.295 . S
O20 Fe3 1.997 1_556 S
O20 C15 1.235 . S
C21 O4 1.295 . S
C21 O5 1.235 . S
Fe22 O24 1.918 . S
Fe22 O27 1.997 1_556 S
Fe22 O28 2.002 1_556 S
Fe22 O33 1.976 . S
Fe22 O36 1.996 . S
Fe23 O24 1.918 . S
Fe23 O31 1.997 1_556 S
Fe23 O34 1.996 . S
Fe23 O38 1.976 . S
Fe23 O41 2.002 1_556 S
O24 Fe22 1.918 . S
O24 Fe23 1.918 . S
O24 Fe25 1.918 . S
Fe25 O24 1.918 . S
Fe25 O26 2.002 1_556 S
Fe25 O35 1.976 . S
Fe25 O39 1.996 . S
Fe25 O42 1.997 1_556 S
O26 Fe25 2.002 1_554 S
O26 C43 1.295 . S
O27 Fe22 1.997 1_554 S
O27 C43 1.235 . S
O28 Fe22 2.002 1_554 S
O28 C29 1.295 . S
C29 O28 1.295 . S
C29 O31 1.235 . S
C30 O35 1.287 . S
C30 O36 1.255 . S
O31 Fe23 1.997 1_554 S
O31 C29 1.235 . S
C32 O38 1.287 . S
C32 O39 1.255 . S
O33 Fe22 1.976 . S
O33 C40 1.287 . S
O34 Fe23 1.996 . S
O34 C40 1.255 . S
O35 Fe25 1.976 . S
O35 C30 1.287 . S
O36 Fe22 1.996 . S
O36 C30 1.255 . S
C37 O41 1.295 . S
C37 O42 1.235 . S
O38 Fe23 1.976 . S
O38 C32 1.287 . S
O39 Fe25 1.996 . S
O39 C32 1.255 . S
C40 O33 1.287 . S
C40 O34 1.255 . S
O41 Fe23 2.002 1_554 S
O41 C37 1.295 . S
O42 Fe25 1.997 1_554 S
O42 C37 1.235 . S
C43 O26 1.295 . S
C43 O27 1.235 . S
Fe44 O46 1.918 . S
Fe44 O49 1.997 1_556 S
Fe44 O50 2.002 1_556 S
Fe44 O55 1.976 . S
Fe44 O58 1.996 . S
Fe45 O46 1.918 . S
Fe45 O53 1.997 1_556 S
Fe45 O56 1.996 . S
Fe45 O60 1.976 . S
Fe45 O63 2.002 1_556 S
O46 Fe44 1.918 . S
O46 Fe45 1.918 . S
O46 Fe47 1.918 . S
Fe47 O46 1.918 . S
Fe47 O48 2.002 1_556 S
Fe47 O57 1.976 . S
Fe47 O61 1.996 . S
Fe47 O64 1.997 1_556 S
O48 Fe47 2.002 1_554 S
O48 C65 1.295 . S
O49 Fe44 1.997 1_554 S
O49 C65 1.235 . S
O50 Fe44 2.002 1_554 S
O50 C51 1.295 . S
C51 O50 1.295 . S
C51 O53 1.235 . S
C52 O57 1.287 . S
C52 O58 1.255 . S
O53 Fe45 1.997 1_554 S
O53 C51 1.235 . S
C54 O60 1.287 . S
C54 O61 1.255 . S
O55 Fe44 1.976 . S
O55 C62 1.287 . S
O56 Fe45 1.996 . S
O56 C62 1.255 . S
O57 Fe47 1.976 . S
O57 C52 1.287 . S
O58 Fe44 1.996 . S
O58 C52 1.255 . S
C59 O63 1.295 . S
C59 O64 1.235 . S
O60 Fe45 1.976 . S
O60 C54 1.287 . S
O61 Fe47 1.996 . S
O61 C54 1.255 . S
C62 O55 1.287 . S
C62 O56 1.255 . S
O63 Fe45 2.002 1_554 S
O63 C59 1.295 . S
O64 Fe47 1.997 1_554 S
O64 C59 1.235 . S
C65 O48 1.295 . S
C65 O49 1.235 . S
Fe66 O68 1.918 . S
Fe66 O71 1.997 1_556 S
Fe66 O72 2.002 1_556 S
Fe66 O77 1.976 . S
Fe66 O80 1.996 . S
Fe67 O68 1.918 . S
Fe67 O75 1.997 1_556 S
Fe67 O78 1.996 . S
Fe67 O82 1.976 . S
Fe67 O85 2.002 1_556 S
O68 Fe66 1.918 . S
O68 Fe67 1.918 . S
O68 Fe69 1.918 . S
Fe69 O68 1.918 . S
Fe69 O70 2.002 1_556 S
Fe69 O79 1.976 . S
Fe69 O83 1.996 . S
Fe69 O86 1.997 1_556 S
O70 Fe69 2.002 1_554 S
O70 C87 1.295 . S
O71 Fe66 1.997 1_554 S
O71 C87 1.235 . S
O72 Fe66 2.002 1_554 S
O72 C73 1.295 . S
C73 O72 1.295 . S
C73 O75 1.235 . S
C74 O79 1.287 . S
C74 O80 1.255 . S
O75 Fe67 1.997 1_554 S
O75 C73 1.235 . S
C76 O82 1.287 . S
C76 O83 1.255 . S
O77 Fe66 1.976 . S
O77 C84 1.287 . S
O78 Fe67 1.996 . S
O78 C84 1.255 . S
O79 Fe69 1.976 . S
O79 C74 1.287 . S
O80 Fe66 1.996 . S
O80 C74 1.255 . S
C81 O85 1.295 . S
C81 O86 1.235 . S
O82 Fe67 1.976 . S
O82 C76 1.287 . S
O83 Fe69 1.996 . S
O83 C76 1.255 . S
C84 O77 1.287 . S
C84 O78 1.255 . S
O85 Fe67 2.002 1_554 S
O85 C81 1.295 . S
O86 Fe69 1.997 1_554 S
O86 C81 1.235 . S
C87 O70 1.295 . S
C87 O71 1.235 . S
Fe88 O90 1.918 . S
Fe88 O93 1.997 . S
Fe88 O94 2.002 . S
Fe88 O99 1.976 . S
Fe88 O102 1.996 . S
Fe89 O90 1.918 . S
Fe89 O97 1.997 . S
Fe89 O100 1.996 . S
Fe89 O104 1.976 . S
Fe89 O107 2.002 . S
O90 Fe88 1.918 . S
O90 Fe89 1.918 . S
O90 Fe91 1.918 . S
Fe91 O90 1.918 . S
Fe91 O92 2.002 . S
Fe91 O101 1.976 . S
Fe91 O105 1.996 . S
Fe91 O108 1.997 . S
O92 Fe91 2.002 . S
O92 C109 1.295 . S
O93 Fe88 1.997 . S
O93 C109 1.235 . S
O94 Fe88 2.002 . S
O94 C95 1.295 . S
C95 O94 1.295 . S
C95 O97 1.235 . S
C96 O101 1.287 . S
C96 O102 1.255 . S
O97 Fe89 1.997 . S
O97 C95 1.235 . S
C98 O104 1.287 . S
C98 O105 1.255 . S
O99 Fe88 1.976 . S
O99 C106 1.287 . S
O100 Fe89 1.996 . S
O100 C106 1.255 . S
O101 Fe91 1.976 . S
O101 C96 1.287 . S
O102 Fe88 1.996 . S
O102 C96 1.255 . S
C103 O107 1.295 . S
C103 O108 1.235 . S
O104 Fe89 1.976 . S
O104 C98 1.287 . S
O105 Fe91 1.996 . S
O105 C98 1.255 . S
C106 O99 1.287 . S
C106 O100 1.255 . S
O107 Fe89 2.002 . S
O107 C103 1.295 . S
O108 Fe91 1.997 . S
O108 C103 1.235 . S
C109 O92 1.295 . S
C109 O93 1.235 . S
Fe110 O112 1.918 . S
Fe110 O115 1.997 . S
Fe110 O116 2.002 . S
Fe110 O121 1.976 . S
Fe110 O124 1.996 . S
Fe111 O112 1.918 . S
Fe111 O119 1.997 . S
Fe111 O122 1.996 . S
Fe111 O126 1.976 . S
Fe111 O129 2.002 . S
O112 Fe110 1.918 . S
O112 Fe111 1.918 . S
O112 Fe113 1.918 . S
Fe113 O112 1.918 . S
Fe113 O114 2.002 . S
Fe113 O123 1.976 . S
Fe113 O127 1.996 . S
Fe113 O130 1.997 . S
O114 Fe113 2.002 . S
O114 C131 1.295 . S
O115 Fe110 1.997 . S
O115 C131 1.235 . S
O116 Fe110 2.002 . S
O116 C117 1.295 . S
C117 O116 1.295 . S
C117 O119 1.235 . S
C118 O123 1.287 . S
C118 O124 1.255 . S
O119 Fe111 1.997 . S
O119 C117 1.235 . S
C120 O126 1.287 . S
C120 O127 1.255 . S
O121 Fe110 1.976 . S
O121 C128 1.287 . S
O122 Fe111 1.996 . S
O122 C128 1.255 . S
O123 Fe113 1.976 . S
O123 C118 1.287 . S
O124 Fe110 1.996 . S
O124 C118 1.255 . S
C125 O129 1.295 . S
C125 O130 1.235 . S
O126 Fe111 1.976 . S
O126 C120 1.287 . S
O127 Fe113 1.996 . S
O127 C120 1.255 . S
C128 O121 1.287 . S
C128 O122 1.255 . S
O129 Fe111 2.002 . S
O129 C125 1.295 . S
O130 Fe113 1.997 . S
O130 C125 1.235 . S
C131 O114 1.295 . S
C131 O115 1.235 . S
Fe132 O134 1.918 . S
Fe132 O137 1.997 . S
Fe132 O138 2.002 . S
Fe132 O143 1.976 . S
Fe132 O146 1.996 . S
Fe133 O134 1.918 . S
Fe133 O141 1.997 . S
Fe133 O144 1.996 . S
Fe133 O148 1.976 . S
Fe133 O151 2.002 . S
O134 Fe132 1.918 . S
O134 Fe133 1.918 . S
O134 Fe135 1.918 . S
Fe135 O134 1.918 . S
Fe135 O136 2.002 . S
Fe135 O145 1.976 . S
Fe135 O149 1.996 . S
Fe135 O152 1.997 . S
O136 Fe135 2.002 . S
O136 C153 1.295 . S
O137 Fe132 1.997 . S
O137 C153 1.235 . S
O138 Fe132 2.002 . S
O138 C139 1.295 . S
C139 O138 1.295 . S
C139 O141 1.235 . S
C140 O145 1.287 . S
C140 O146 1.255 . S
O141 Fe133 1.997 . S
O141 C139 1.235 . S
C142 O148 1.287 . S
C142 O149 1.255 . S
O143 Fe132 1.976 . S
O143 C150 1.287 . S
O144 Fe133 1.996 . S
O144 C150 1.255 . S
O145 Fe135 1.976 . S
O145 C140 1.287 . S
O146 Fe132 1.996 . S
O146 C140 1.255 . S
C147 O151 1.295 . S
C147 O152 1.235 . S
O148 Fe133 1.976 . S
O148 C142 1.287 . S
O149 Fe135 1.996 . S
O149 C142 1.255 . S
C150 O143 1.287 . S
C150 O144 1.255 . S
O151 Fe133 2.002 . S
O151 C147 1.295 . S
O152 Fe135 1.997 . S
O152 C147 1.235 . S
C153 O136 1.295 . S
C153 O137 1.235 . S
Fe154 O156 1.918 . S
Fe154 O159 1.997 . S
Fe154 O160 2.002 . S
Fe154 O165 1.976 . S
Fe154 O168 1.996 . S
Fe155 O156 1.918 . S
Fe155 O163 1.997 . S
Fe155 O166 1.996 . S
Fe155 O170 1.976 . S
Fe155 O173 2.002 . S
O156 Fe154 1.918 . S
O156 Fe155 1.918 . S
O156 Fe157 1.918 . S
Fe157 O156 1.918 . S
Fe157 O158 2.002 . S
Fe157 O167 1.976 . S
Fe157 O171 1.996 . S
Fe157 O174 1.997 . S
O158 Fe157 2.002 . S
O158 C175 1.295 . S
O159 Fe154 1.997 . S
O159 C175 1.235 . S
O160 Fe154 2.002 . S
O160 C161 1.295 . S
C161 O160 1.295 . S
C161 O163 1.235 . S
C162 O167 1.287 . S
C162 O168 1.255 . S
O163 Fe155 1.997 . S
O163 C161 1.235 . S
C164 O170 1.287 . S
C164 O171 1.255 . S
O165 Fe154 1.976 . S
O165 C172 1.287 . S
O166 Fe155 1.996 . S
O166 C172 1.255 . S
O167 Fe157 1.976 . S
O167 C162 1.287 . S
O168 Fe154 1.996 . S
O168 C162 1.255 . S
C169 O173 1.295 . S
C169 O174 1.235 . S
O170 Fe155 1.976 . S
O170 C164 1.287 . S
O171 Fe157 1.996 . S
O171 C164 1.255 . S
C172 O165 1.287 . S
C172 O166 1.255 . S
O173 Fe155 2.002 . S
O173 C169 1.295 . S
O174 Fe157 1.997 . S
O174 C169 1.235 . S
C175 O158 1.295 . S
C175 O159 1.235 . S
C176 C177 1.387 . S
C176 H180 0.950 . S
C176 C185 1.390 . S
C177 C176 1.387 . S
C177 C179 1.387 . S
H178 C185 0.950 . S
C179 C177 1.387 . S
C179 C181 1.390 . S
C179 H183 0.950 . S
H180 C176 0.950 . S
C181 C179 1.390 . S
C181 C182 1.387 . S
C181 H184 0.950 . S
C182 C181 1.387 . S
C182 C185 1.387 . S
H183 C179 0.950 . S
H184 C181 0.950 . S
C185 C176 1.390 . S
C185 H178 0.950 . S
C185 C182 1.387 . S
C186 C187 1.387 . S
C186 H190 0.950 . S
C186 C195 1.390 . S
C187 C186 1.387 . S
C187 C189 1.387 . S
H188 C195 0.950 . S
C189 C187 1.387 . S
C189 C191 1.390 . S
C189 H193 0.950 . S
H190 C186 0.950 . S
C191 C189 1.390 . S
C191 C192 1.387 . S
C191 H194 0.950 . S
C192 C191 1.387 . S
C192 C195 1.387 . S
H193 C189 0.950 . S
H194 C191 0.950 . S
C195 C186 1.390 . S
C195 H188 0.950 . S
C195 C192 1.387 . S
C196 C197 1.387 . S
C196 H200 0.950 . S
C196 C205 1.390 . S
C197 C196 1.387 . S
C197 C199 1.387 . S
H198 C205 0.950 . S
C199 C197 1.387 . S
C199 C201 1.390 . S
C199 H203 0.950 . S
H200 C196 0.950 . S
C201 C199 1.390 . S
C201 C202 1.387 . S
C201 H204 0.950 . S
C202 C201 1.387 . S
C202 C205 1.387 . S
H203 C199 0.950 . S
H204 C201 0.950 . S
C205 C196 1.390 . S
C205 H198 0.950 . S
C205 C202 1.387 . S
C206 C207 1.387 . S
C206 H210 0.950 . S
C206 C215 1.390 . S
C207 C206 1.387 . S
C207 C209 1.387 . S
H208 C215 0.950 . S
C209 C207 1.387 . S
C209 C211 1.390 . S
C209 H213 0.950 . S
H210 C206 0.950 . S
C211 C209 1.390 . S
C211 C212 1.387 . S
C211 H214 0.950 . S
C212 C211 1.387 . S
C212 C215 1.387 . S
H213 C209 0.950 . S
H214 C211 0.950 . S
C215 C206 1.390 . S
C215 H208 0.950 . S
C215 C212 1.387 . S
C216 C217 1.387 . S
C216 H220 0.950 . S
C216 C225 1.390 . S
C217 C216 1.387 . S
C217 C219 1.387 . S
H218 C225 0.950 . S
C219 C217 1.387 . S
C219 C221 1.390 . S
C219 H223 0.950 . S
H220 C216 0.950 . S
C221 C219 1.390 . S
C221 C222 1.387 . S
C221 H224 0.950 . S
C222 C221 1.387 . S
C222 C225 1.387 . S
H223 C219 0.950 . S
H224 C221 0.950 . S
C225 C216 1.390 . S
C225 H218 0.950 . S
C225 C222 1.387 . S
C226 C227 1.387 . S
C226 H230 0.950 . S
C226 C235 1.390 . S
C227 C226 1.387 . S
C227 C229 1.387 . S
H228 C235 0.950 . S
C229 C227 1.387 . S
C229 C231 1.390 . S
C229 H233 0.950 . S
H230 C226 0.950 . S
C231 C229 1.390 . S
C231 C232 1.387 . S
C231 H234 0.950 . S
C232 C231 1.387 . S
C232 C235 1.387 . S
H233 C229 0.950 . S
H234 C231 0.950 . S
C235 C226 1.390 . S
C235 H228 0.950 . S
C235 C232 1.387 . S
C236 C237 1.387 . S
C236 H240 0.950 . S
C236 C245 1.390 . S
C237 C236 1.387 . S
C237 C239 1.387 . S
H238 C245 0.950 . S
C239 C237 1.387 . S
C239 C241 1.390 . S
C239 H243 0.950 . S
H240 C236 0.950 . S
C241 C239 1.390 . S
C241 C242 1.387 . S
C241 H244 0.950 . S
C242 C241 1.387 . S
C242 C245 1.387 . S
H243 C239 0.950 . S
H244 C241 0.950 . S
C245 C236 1.390 . S
C245 H238 0.950 . S
C245 C242 1.387 . S
C246 C247 1.387 . S
C246 H250 0.950 . S
C246 C255 1.390 . S
C247 C246 1.387 . S
C247 C249 1.387 . S
H248 C255 0.950 . S
C249 C247 1.387 . S
C249 C251 1.390 . S
C249 H253 0.950 . S
H250 C246 0.950 . S
C251 C249 1.390 . S
C251 C252 1.387 . S
C251 H254 0.950 . S
C252 C251 1.387 . S
C252 C255 1.387 . S
H253 C249 0.950 . S
H254 C251 0.950 . S
C255 C246 1.390 . S
C255 H248 0.950 . S
C255 C252 1.387 . S
C256 C257 1.387 . S
C256 H260 0.950 . S
C256 C265 1.390 1_655 S
C257 C256 1.387 . S
C257 C259 1.387 . S
H258 C265 0.950 . S
C259 C257 1.387 . S
C259 C261 1.390 1_655 S
C259 H263 0.950 . S
H260 C256 0.950 . S
C261 C259 1.390 1_455 S
C261 C262 1.387 . S
C261 H264 0.950 . S
C262 C261 1.387 . S
C262 C265 1.387 . S
H263 C259 0.950 . S
H264 C261 0.950 . S
C265 C256 1.390 1_455 S
C265 H258 0.950 . S
C265 C262 1.387 . S
C266 C267 1.387 . S
C266 H270 0.950 . S
C266 C275 1.390 1_545 S
C267 C266 1.387 . S
C267 C269 1.387 . S
H268 C275 0.950 . S
C269 C267 1.387 . S
C269 C271 1.390 1_545 S
C269 H273 0.950 . S
H270 C266 0.950 . S
C271 C269 1.390 1_565 S
C271 C272 1.387 . S
C271 H274 0.950 . S
C272 C271 1.387 . S
C272 C275 1.387 . S
H273 C269 0.950 . S
H274 C271 0.950 . S
C275 C266 1.390 1_565 S
C275 H268 0.950 . S
C275 C272 1.387 . S
C276 C277 1.387 . S
C276 H280 0.950 . S
C276 C285 1.390 1_655 S
C277 C276 1.387 . S
C277 C279 1.387 . S
H278 C285 0.950 . S
C279 C277 1.387 . S
C279 C281 1.390 1_655 S
C279 H283 0.950 . S
H280 C276 0.950 . S
C281 C279 1.390 1_455 S
C281 C282 1.387 . S
C281 H284 0.950 . S
C282 C281 1.387 . S
C282 C285 1.387 . S
H283 C279 0.950 . S
H284 C281 0.950 . S
C285 C276 1.390 1_455 S
C285 H278 0.950 . S
C285 C282 1.387 . S
C286 C287 1.387 . S
C286 H290 0.950 . S
C286 C295 1.390 1_545 S
C287 C286 1.387 . S
C287 C289 1.387 . S
H288 C295 0.950 . S
C289 C287 1.387 . S
C289 C291 1.390 1_545 S
C289 H293 0.950 . S
H290 C286 0.950 . S
C291 C289 1.390 1_565 S
C291 C292 1.387 . S
C291 H294 0.950 . S
C292 C291 1.387 . S
C292 C295 1.387 . S
H293 C289 0.950 . S
H294 C291 0.950 . S
C295 C286 1.390 1_565 S
C295 H288 0.950 . S
C295 C292 1.387 . S
C296 C297 1.387 . S
C296 H300 0.950 . S
C296 C305 1.390 1_455 S
C297 C296 1.387 . S
C297 C299 1.387 . S
H298 C305 0.950 . S
C299 C297 1.387 . S
C299 C301 1.390 1_455 S
C299 H303 0.950 . S
H300 C296 0.950 . S
C301 C299 1.390 1_655 S
C301 C302 1.387 . S
C301 H304 0.950 . S
C302 C301 1.387 . S
C302 C305 1.387 . S
H303 C299 0.950 . S
H304 C301 0.950 . S
C305 C296 1.390 1_655 S
C305 H298 0.950 . S
C305 C302 1.387 . S
C306 C307 1.387 . S
C306 H310 0.950 . S
C306 C315 1.390 1_565 S
C307 C306 1.387 . S
C307 C309 1.387 . S
H308 C315 0.950 . S
C309 C307 1.387 . S
C309 C311 1.390 1_565 S
C309 H313 0.950 . S
H310 C306 0.950 . S
C311 C309 1.390 1_545 S
C311 C312 1.387 . S
C311 H314 0.950 . S
C312 C311 1.387 . S
C312 C315 1.387 . S
H313 C309 0.950 . S
H314 C311 0.950 . S
C315 C306 1.390 1_545 S
C315 H308 0.950 . S
C315 C312 1.387 . S
C316 C317 1.387 . S
C316 H320 0.950 . S
C316 C325 1.390 1_655 S
C317 C316 1.387 . S
C317 C319 1.387 . S
H318 C325 0.950 . S
C319 C317 1.387 . S
C319 C321 1.390 1_655 S
C319 H323 0.950 . S
H320 C316 0.950 . S
C321 C319 1.390 1_455 S
C321 C322 1.387 . S
C321 H324 0.950 . S
C322 C321 1.387 . S
C322 C325 1.387 . S
H323 C319 0.950 . S
H324 C321 0.950 . S
C325 C316 1.390 1_455 S
C325 H318 0.950 . S
C325 C322 1.387 . S
C326 C327 1.387 . S
C326 H330 0.950 . S
C326 C335 1.390 1_565 S
C327 C326 1.387 . S
C327 C329 1.387 . S
H328 C335 0.950 . S
C329 C327 1.387 . S
C329 C331 1.390 1_565 S
C329 H333 0.950 . S
H330 C326 0.950 . S
C331 C329 1.390 1_545 S
C331 C332 1.387 . S
C331 H334 0.950 . S
C332 C331 1.387 . S
C332 C335 1.387 . S
H333 C329 0.950 . S
H334 C331 0.950 . S
C335 C326 1.390 1_545 S
C335 H328 0.950 . S
C335 C332 1.387 . S
C336 C337 1.387 . S
C336 H340 0.950 . S
C336 C345 1.390 . S
C337 C336 1.387 . S
C337 C339 1.387 . S
H338 C345 0.950 . S
C339 C337 1.387 . S
C339 C341 1.390 . S
C339 H343 0.950 . S
H340 C336 0.950 . S
C341 C339 1.390 . S
C341 C342 1.387 . S
C341 H344 0.950 . S
C342 C341 1.387 . S
C342 C345 1.387 . S
H343 C339 0.950 . S
H344 C341 0.950 . S
C345 C336 1.390 . S
C345 H338 0.950 . S
C345 C342 1.387 . S
C346 C347 1.387 . S
C346 H350 0.950 . S
C346 C355 1.390 . S
C347 C346 1.387 . S
C347 C349 1.387 . S
H348 C355 0.950 . S
C349 C347 1.387 . S
C349 C351 1.390 . S
C349 H353 0.950 . S
H350 C346 0.950 . S
C351 C349 1.390 . S
C351 C352 1.387 . S
C351 H354 0.950 . S
C352 C351 1.387 . S
C352 C355 1.387 . S
H353 C349 0.950 . S
H354 C351 0.950 . S
C355 C346 1.390 . S
C355 H348 0.950 . S
C355 C352 1.387 . S
C356 C357 1.387 . S
C356 H360 0.950 . S
C356 C365 1.390 . S
C357 C356 1.387 . S
C357 C359 1.387 . S
H358 C365 0.950 . S
C359 C357 1.387 . S
C359 C361 1.390 . S
C359 H363 0.950 . S
H360 C356 0.950 . S
C361 C359 1.390 . S
C361 C362 1.387 . S
C361 H364 0.950 . S
C362 C361 1.387 . S
C362 C365 1.387 . S
H363 C359 0.950 . S
H364 C361 0.950 . S
C365 C356 1.390 . S
C365 H358 0.950 . S
C365 C362 1.387 . S
C366 C367 1.387 . S
C366 H370 0.950 . S
C366 C375 1.390 . S
C367 C366 1.387 . S
C367 C369 1.387 . S
H368 C375 0.950 . S
C369 C367 1.387 . S
C369 C371 1.390 . S
C369 H373 0.950 . S
H370 C366 0.950 . S
C371 C369 1.390 . S
C371 C372 1.387 . S
C371 H374 0.950 . S
C372 C371 1.387 . S
C372 C375 1.387 . S
H373 C369 0.950 . S
H374 C371 0.950 . S
C375 C366 1.390 . S
C375 H368 0.950 . S
C375 C372 1.387 . S
C376 C377 1.387 . S
C376 H380 0.950 . S
C376 C385 1.390 . S
C377 C376 1.387 . S
C377 C379 1.387 . S
H378 C385 0.950 . S
C379 C377 1.387 . S
C379 C381 1.390 . S
C379 H383 0.950 . S
H380 C376 0.950 . S
C381 C379 1.390 . S
C381 C382 1.387 . S
C381 H384 0.950 . S
C382 C381 1.387 . S
C382 C385 1.387 . S
H383 C379 0.950 . S
H384 C381 0.950 . S
C385 C376 1.390 . S
C385 H378 0.950 . S
C385 C382 1.387 . S
C386 C387 1.387 . S
C386 H390 0.950 . S
C386 C395 1.390 . S
C387 C386 1.387 . S
C387 C389 1.387 . S
H388 C395 0.950 . S
C389 C387 1.387 . S
C389 C391 1.390 . S
C389 H393 0.950 . S
H390 C386 0.950 . S
C391 C389 1.390 . S
C391 C392 1.387 . S
C391 H394 0.950 . S
C392 C391 1.387 . S
C392 C395 1.387 . S
H393 C389 0.950 . S
H394 C391 0.950 . S
C395 C386 1.390 . S
C395 H388 0.950 . S
C395 C392 1.387 . S
C396 C397 1.387 . S
C396 H400 0.950 . S
C396 C405 1.390 . S
C397 C396 1.387 . S
C397 C399 1.387 . S
H398 C405 0.950 . S
C399 C397 1.387 . S
C399 C401 1.390 . S
C399 H403 0.950 . S
H400 C396 0.950 . S
C401 C399 1.390 . S
C401 C402 1.387 . S
C401 H404 0.950 . S
C402 C401 1.387 . S
C402 C405 1.387 . S
H403 C399 0.950 . S
H404 C401 0.950 . S
C405 C396 1.390 . S
C405 H398 0.950 . S
C405 C402 1.387 . S
C406 C407 1.387 . S
C406 H410 0.950 . S
C406 C415 1.390 . S
C407 C406 1.387 . S
C407 C409 1.387 . S
H408 C415 0.950 . S
C409 C407 1.387 . S
C409 C411 1.390 . S
C409 H413 0.950 . S
H410 C406 0.950 . S
C411 C409 1.390 . S
C411 C412 1.387 . S
C411 H414 0.950 . S
C412 C411 1.387 . S
C412 C415 1.387 . S
H413 C409 0.950 . S
H414 C411 0.950 . S
C415 C406 1.390 . S
C415 H408 0.950 . S
C415 C412 1.387 . S
C177 C140 1.437 . S
C182 C8 1.437 . S
C187 C43 1.474 . S
C192 C164 1.480 . S
C197 C96 1.478 . S
C202 C59 1.472 . S
C207 C73 1.515 . S
C212 C125 1.515 . S
C217 C109 1.464 . S
C222 C54 1.469 . S
C227 C84 1.428 . S
C232 C120 1.428 . S
C237 C153 1.504 . S
C242 C21 1.503 . S
C247 C30 1.468 . S
C252 C169 1.463 . S
C257 C40 1.437 . S
C262 C118 1.437 . S
C267 C147 1.474 . S
C272 C52 1.480 . S
C277 C161 1.472 . S
C282 C76 1.478 . S
C287 C15 1.515 . S
C292 C103 1.515 . S
C297 C81 1.464 . S
C302 C172 1.469 . S
C307 C98 1.428 . S
C312 C10 1.428 . S
C317 C29 1.505 . S
C322 C131 1.505 . S
C327 C65 1.462 . S
C332 C142 1.467 . S
C337 C162 1.231 . S
C342 C18 1.231 . S
C347 C37 1.266 . S
C352 C106 1.268 . S
C357 C51 1.304 . S
C362 C117 1.303 . S
C367 C150 1.268 . S
C372 C87 1.266 . S
C377 C128 1.232 . S
C382 C62 1.231 . S
C387 C139 1.266 . S
C392 C74 1.268 . S
C397 C175 1.304 . S
C402 C7 1.304 . S
C407 C95 1.266 . S
C412 C32 1.268 . S
