# Generated by pormake.
# Topology ukg, (4)-cn, num edge types: 1
# Building blocks:
#     Node 0, Type 0, BuildingBlock: CEKHIL_clean_sbu_0, # of connection points: 4
#     Node 1, Type 0, BuildingBlock: CEKHIL_clean_sbu_0, # of connection points: 4
#     Node 2, Type 0, BuildingBlock: CEKHIL_clean_sbu_0, # of connection points: 4
#     Node 3, Type 0, BuildingBlock: CEKHIL_clean_sbu_0, # of connection points: 4
#     Node 4, Type 0, BuildingBlock: CEKHIL_clean_sbu_0, # of connection points: 4
#     Node 5, Type 0, BuildingBlock: CEKHIL_clean_sbu_0, # of connection points: 4
#     Node 6, Type 0, BuildingBlock: CEKHIL_clean_sbu_0, # of connection points: 4
#     Node 7, Type 0, BuildingBlock: CEKHIL_clean_sbu_0, # of connection points: 4
#     Edge 8, Type (0, 0), BuildingBlock: MIFKUJ_clean_linker_0, # of connection points: 2
#     Edge 9, Type (0, 0), BuildingBlock: MIFKUJ_clean_linker_0, # of connection points: 2
#     Edge 10, Type (0, 0), BuildingBlock: MIFKUJ_clean_linker_0, # of connection points: 2
#     Edge 11, Type (0, 0), BuildingBlock: MIFKUJ_clean_linker_0, # of connection points: 2
#     Edge 12, Type (0, 0), BuildingBlock: MIFKUJ_clean_linker_0, # of connection points: 2
#     Edge 13, Type (0, 0), BuildingBlock: MIFKUJ_clean_linker_0, # of connection points: 2
#     Edge 14, Type (0, 0), BuildingBlock: MIFKUJ_clean_linker_0, # of connection points: 2
#     Edge 15, Type (0, 0), BuildingBlock: MIFKUJ_clean_linker_0, # of connection points: 2
#     Edge 16, Type (0, 0), BuildingBlock: MIFKUJ_clean_linker_0, # of connection points: 2
#     Edge 17, Type (0, 0), BuildingBlock: MIFKUJ_clean_linker_0, # of connection points: 2
#     Edge 18, Type (0, 0), BuildingBlock: MIFKUJ_clean_linker_0, # of connection points: 2
#     Edge 19, Type (0, 0), BuildingBlock: MIFKUJ_clean_linker_0, # of connection points: 2
#     Edge 20, Type (0, 0), BuildingBlock: MIFKUJ_clean_linker_0, # of connection points: 2
#     Edge 21, Type (0, 0), BuildingBlock: MIFKUJ_clean_linker_0, # of connection points: 2
#     Edge 22, Type (0, 0), BuildingBlock: MIFKUJ_clean_linker_0, # of connection points: 2
#     Edge 23, Type (0, 0), BuildingBlock: MIFKUJ_clean_linker_0, # of connection points: 2
# Relax obj value: 0.123
# Max RMSD: 0.207
# Mean RMSD: 0.203
data_MOF--net-ukg--node1-CEKHIL_clean_sbu_0--edge1-MIFKUJ_clean_linker_0
_symmetry_space_group_name_H-M    P1
_symmetry_Int_Tables_number       1
_symmetry_cell_setting            triclinic
loop_
_symmetry_equiv_pos_as_xyz
'x, y, z'
_cell_length_a     39.31964
_cell_length_b     38.684135
_cell_length_c     48.583999
_cell_angle_alpha  89.972578
_cell_angle_beta   90.002026
_cell_angle_gamma 89.61649
loop_
_atom_site_label
_atom_site_type_symbol
_atom_site_fract_x
_atom_site_fract_y
_atom_site_fract_z
_atom_type_partial_charge
Co0 Co 0.03452 0.63008 0.15598 0.0
O1 O 0.05273 0.59197 0.13522 0.0
O2 O 0.03512 0.64178 0.11745 0.0
C3 C 0.99782 0.59974 0.18184 0.0
O4 O 0.01275 0.67426 0.17022 0.0
Co5 Co 0.04485 0.63525 0.21899 0.0
O6 O 0.00723 0.66956 0.21607 0.0
C7 C 0.10063 0.65572 0.1819 0.0
C8 C 0.04687 0.61069 0.11349 0.0
C9 C 0.00051 0.68459 0.19334 0.0
O10 O 0.08128 0.64995 0.16109 0.0
O11 O 0.0916 0.64958 0.20676 0.0
O12 O 0.99032 0.60841 0.15675 0.0
O13 O 0.02879 0.60591 0.18943 0.0
Co14 Co 0.35921 0.52083 0.64753 0.0
O15 O 0.40092 0.53325 0.62978 0.0
O16 O 0.35369 0.51831 0.60798 0.0
C17 C 0.38172 0.48398 0.67832 0.0
O18 O 0.31192 0.50549 0.65966 0.0
Co19 Co 0.35008 0.54083 0.70942 0.0
O20 O 0.30648 0.51602 0.70523 0.0
C21 C 0.34289 0.59404 0.66659 0.0
C22 C 0.38551 0.5273 0.6067 0.0
C23 C 0.29511 0.50462 0.68243 0.0
O24 O 0.34423 0.57063 0.64784 0.0
O25 O 0.34829 0.58778 0.6921 0.0
O26 O 0.37583 0.47396 0.65329 0.0
O27 O 0.37787 0.51667 0.68284 0.0
Co28 Co 0.47469 0.86976 0.15437 0.0
O29 O 0.46564 0.90776 0.13001 0.0
O30 O 0.47975 0.85471 0.11665 0.0
C31 C 0.51009 0.89711 0.18325 0.0
O32 O 0.48691 0.82478 0.17356 0.0
Co33 Co 0.45077 0.87452 0.2152 0.0
O34 O 0.47599 0.83013 0.21888 0.0
C35 C 0.40103 0.85749 0.17221 0.0
C36 C 0.47253 0.88653 0.11008 0.0
C37 C 0.48735 0.81308 0.19834 0.0
O38 O 0.42515 0.8565 0.15432 0.0
O39 O 0.40544 0.86723 0.19713 0.0
O40 O 0.52101 0.88506 0.15994 0.0
O41 O 0.47746 0.89653 0.18675 0.0
Co42 Co 0.13926 0.97598 0.65228 0.0
O43 O 0.09779 0.96185 0.63511 0.0
O44 O 0.1444 0.97666 0.61257 0.0
C45 C 0.11469 0.01311 0.68165 0.0
O46 O 0.18618 0.99348 0.66378 0.0
Co47 Co 0.15033 0.96154 0.71482 0.0
O48 O 0.18536 -0.00233 0.71006 0.0
C49 C 0.15945 0.9052 0.67433 0.0
C50 C 0.11258 0.96751 0.61173 0.0
C51 C 0.19874 0.00415 0.68675 0.0
O52 O 0.15534 0.92664 0.65435 0.0
O53 O 0.15617 0.91363 0.6997 0.0
O54 O 0.12103 0.02247 0.65653 0.0
O55 O 0.12039 0.98099 0.68737 0.0
Co56 Co 0.9589 0.33981 0.84985 0.0
O57 O 0.91979 0.32554 0.87019 0.0
O58 O 0.91934 0.36653 0.83835 0.0
C59 C 0.9758 0.28633 0.83806 0.0
O60 O 0.99503 0.35972 0.82407 0.0
Co61 Co 0.03065 0.31623 0.87011 0.0
O62 O 0.04289 0.32885 0.83184 0.0
C63 C 0.99462 0.37368 0.89818 0.0
C64 C 0.9024 0.34712 0.85537 0.0
C65 C 0.02538 0.34999 0.8174 0.0
O66 O 0.97116 0.37382 0.87967 0.0
O67 O 0.01865 0.35117 0.89903 0.0
O68 O 0.9524 0.30221 0.82406 0.0
O69 O 0.98558 0.3016 0.8603 0.0
Co70 Co 0.6365 0.4716 0.34579 0.0
O71 O 0.59794 0.45706 0.3668 0.0
O72 O 0.6472 0.47332 0.38468 0.0
C73 C 0.60798 0.50847 0.31832 0.0
O74 O 0.68137 0.4891 0.32995 0.0
Co75 Co 0.63846 0.45498 0.2831 0.0
O76 O 0.67609 0.48881 0.28379 0.0
C77 C 0.655 0.40027 0.32339 0.0
C78 C 0.616 0.46332 0.38851 0.0
C79 C 0.69212 0.49687 0.30566 0.0
O80 O 0.65312 0.42247 0.34306 0.0
O81 O 0.64766 0.40756 0.29837 0.0
O82 O 0.6174 0.51785 0.34277 0.0
O83 O 0.61273 0.47621 0.31244 0.0
Co84 Co 0.53876 0.1655 0.84867 0.0
O85 O 0.57615 0.18244 0.86988 0.0
O86 O 0.5808 0.14388 0.8364 0.0
C87 C 0.51645 0.21772 0.83913 0.0
O88 O 0.50517 0.1436 0.82165 0.0
Co89 Co 0.4647 0.1794 0.86859 0.0
O90 O 0.45469 0.16966 0.82938 0.0
C91 C 0.50545 0.12296 0.89392 0.0
C92 C 0.59567 0.1638 0.85428 0.0
C93 C 0.47438 0.15115 0.81455 0.0
O94 O 0.52997 0.12816 0.87684 0.0
O95 O 0.47862 0.14192 0.89486 0.0
O96 O 0.54142 0.20544 0.82465 0.0
O97 O 0.50811 0.19985 0.86053 0.0
Co98 Co 0.87161 0.02521 0.33783 0.0
O99 O 0.91471 0.03593 0.35401 0.0
O100 O 0.86775 0.02533 0.3776 0.0
C101 C 0.8914 0.98552 0.30811 0.0
O102 O 0.82304 0.01183 0.32766 0.0
Co103 Co 0.85938 0.03969 0.27547 0.0
O104 O 0.8212 0.00722 0.28144 0.0
C105 C 0.85297 0.09664 0.31591 0.0
C106 C 0.90023 0.03175 0.37773 0.0
C107 C 0.80834 0.00243 0.3052 0.0
O108 O 0.85885 0.07555 0.33586 0.0
O109 O 0.8542 0.08776 0.29052 0.0
O110 O 0.88556 0.9773 0.33356 0.0
O111 O 0.88874 0.018 0.30225 0.0
H112 H 0.9615 0.43654 0.8966 0.0
H113 H 0.97018 0.48569 0.92774 0.0
H114 H 0.03857 0.42367 0.97689 0.0
H115 H 0.03043 0.37492 0.94609 0.0
H116 H 0.96194 0.49568 0.98456 0.0
H117 H 0.10741 0.46923 0.99215 0.0
H118 H 0.1531 0.44502 0.96304 0.0
H119 H 0.09733 0.47328 0.89036 0.0
H120 H 0.05158 0.49816 0.919 0.0
H121 H 0.07743 0.55015 0.09872 0.0
H122 H 0.06984 0.51888 0.05553 0.0
H123 H 0.01177 0.60443 0.0227 0.0
H124 H 0.0194 0.63606 0.0659 0.0
H125 H 0.08183 0.53096 -0.00087 0.0
H126 H 0.94104 0.56662 0.99222 0.0
H127 H 0.89481 0.5891 0.02175 0.0
H128 H 0.94096 0.54129 0.0924 0.0
H129 H 0.98715 0.51819 0.06323 0.0
C130 C 0.97802 0.43328 0.91426 0.0
C131 C 0.99568 0.40198 0.91863 0.0
C132 C 0.98297 0.46138 0.93196 0.0
C133 C 0.00564 0.45848 0.95416 0.0
C134 C 0.02161 0.42666 0.95946 0.0
C135 C 0.01683 0.39877 0.94184 0.0
C136 C 0.0139 0.48863 0.97159 0.0
C137 C 0.98801 0.50405 0.98725 0.0
C138 C 0.04799 0.49932 0.97517 0.0
C139 C 0.07597 0.48541 0.95777 0.0
C140 C 0.10502 0.47055 0.96996 0.0
C141 C 0.1309 0.45664 0.95354 0.0
C142 C 0.12809 0.45755 0.92487 0.0
C143 C 0.09945 0.47252 0.91257 0.0
C144 C 0.07352 0.4865 0.92889 0.0
C145 C 0.06379 0.56268 0.08206 0.0
C146 C 0.0487 0.59536 0.08575 0.0
C147 C 0.05955 0.54483 0.05738 0.0
C148 C 0.03985 0.5592 0.03615 0.0
C149 C 0.02682 0.59286 0.03899 0.0
C150 C 0.03133 0.6109 0.06363 0.0
C151 C 0.03002 0.53726 0.01259 0.0
C152 C 0.05565 0.52331 0.99584 0.0
C153 C 0.99571 0.52802 0.00795 0.0
C154 C 0.96771 0.54109 0.0256 0.0
C155 C 0.94122 0.56085 0.01404 0.0
C156 C 0.91505 0.57369 0.03072 0.0
C157 C 0.91502 0.56674 0.05895 0.0
C158 C 0.94108 0.54677 0.07055 0.0
C159 C 0.96726 0.53383 0.05396 0.0
H160 H 0.89477 0.57676 0.07183 0.0
H161 H 0.14811 0.44668 0.9122 0.0
H162 H 0.37662 0.48504 0.56251 0.0
H163 H 0.41734 0.47542 0.52493 0.0
H164 H 0.47925 0.55864 0.55536 0.0
H165 H 0.43932 0.56757 0.59349 0.0
H166 H 0.46874 0.54965 0.49143 0.0
H167 H 0.50829 0.49589 0.57613 0.0
H168 H 0.49995 0.46045 0.61776 0.0
H169 H 0.47271 0.37355 0.56761 0.0
H170 H 0.48033 0.40875 0.52566 0.0
H171 H 0.62729 0.50854 0.43032 0.0
H172 H 0.58896 0.51974 0.46923 0.0
H173 H 0.52846 0.43182 0.44617 0.0
H174 H 0.56599 0.42122 0.40678 0.0
H175 H 0.53889 0.44405 0.50686 0.0
H176 H 0.50053 0.49696 0.42219 0.0
H177 H 0.50831 0.53206 0.38033 0.0
H178 H 0.53244 0.62044 0.42989 0.0
H179 H 0.52546 0.58559 0.47209 0.0
C180 C 0.39838 0.50191 0.56068 0.0
C181 C 0.40499 0.52695 0.58085 0.0
C182 C 0.42163 0.49632 0.53933 0.0
C183 C 0.45125 0.51625 0.53759 0.0
C184 C 0.45645 0.54311 0.55641 0.0
C185 C 0.4337 0.54812 0.57814 0.0
C186 C 0.47861 0.50643 0.51825 0.0
C187 C 0.48434 0.52683 0.49491 0.0
C188 C 0.49859 0.47642 0.52276 0.0
C189 C 0.49444 0.45504 0.54783 0.0
C190 C 0.50018 0.46932 0.57401 0.0
C191 C 0.49566 0.44927 0.59765 0.0
C192 C 0.48569 0.4148 0.59534 0.0
C193 C 0.48036 0.40028 0.56937 0.0
C194 C 0.48478 0.42026 0.54565 0.0
C195 C 0.60652 0.49093 0.43416 0.0
C196 C 0.59947 0.46406 0.41565 0.0
C197 C 0.58456 0.49746 0.45622 0.0
C198 C 0.55582 0.47674 0.4603 0.0
C199 C 0.55055 0.44803 0.4433 0.0
C200 C 0.57198 0.442 0.42088 0.0
C201 C 0.52915 0.48732 0.48004 0.0
C202 C 0.52344 0.46699 0.50342 0.0
C203 C 0.50918 0.51739 0.47553 0.0
C204 C 0.51295 0.53856 0.45027 0.0
C205 C 0.50786 0.52378 0.42416 0.0
C206 C 0.51206 0.54364 0.40037 0.0
C207 C 0.52099 0.57843 0.40244 0.0
C208 C 0.52562 0.59346 0.42832 0.0
C209 C 0.52155 0.57366 0.45218 0.0
H210 H 0.52423 0.59377 0.384 0.0
H211 H 0.4822 0.3993 0.61367 0.0
H212 H 0.51875 0.8675 0.07107 0.0
H213 H 0.53007 0.89763 0.02744 0.0
H214 H 0.44385 0.96464 0.04196 0.0
H215 H 0.43333 0.93567 0.08594 0.0
H216 H 0.45595 0.93584 0.98316 0.0
H217 H 0.50695 -0.00219 0.06155 0.0
H218 H 0.54427 -0.00025 0.10233 0.0
H219 H 0.62914 0.96672 0.05307 0.0
H220 H 0.59209 0.96408 0.01206 0.0
H221 H 0.4554 0.09957 0.92782 0.0
H222 H 0.45639 0.04917 0.95751 0.0
H223 H 0.55955 0.02671 0.93292 0.0
H224 H 0.55896 0.07773 0.90274 0.0
H225 H 0.54917 0.02145 0.9898 0.0
H226 H 0.50085 0.97578 0.90892 0.0
H227 H 0.46379 0.97372 0.86805 0.0
H228 H 0.37543 0.97352 0.91997 0.0
H229 H 0.41193 0.97614 0.96118 0.0
C230 C 0.50177 0.88809 0.06453 0.0
C231 C 0.47519 0.89939 0.0817 0.0
C232 C 0.50832 0.90528 0.03975 0.0
C233 C 0.48777 0.93327 0.03165 0.0
C234 C 0.45984 0.94296 0.0479 0.0
C235 C 0.4539 0.92648 0.07296 0.0
C236 C 0.49705 0.95502 0.00788 0.0
C237 C 0.4764 0.95445 0.98441 0.0
C238 C 0.52444 0.97843 0.00935 0.0
C239 C 0.5467 0.98027 0.03388 0.0
C240 C 0.53349 0.99061 0.0595 0.0
C241 C 0.55459 0.99191 0.08263 0.0
C242 C 0.58903 0.98323 0.08032 0.0
C243 C 0.60244 0.97334 0.05484 0.0
C244 C 0.58141 0.97194 0.03165 0.0
C245 C 0.47846 0.08413 0.92861 0.0
C246 C 0.50711 0.09278 0.91274 0.0
C247 C 0.47885 0.05509 0.94552 0.0
C248 C 0.50781 0.03387 0.94704 0.0
C249 C 0.53684 0.04265 0.9318 0.0
C250 C 0.53643 0.07178 0.9146 0.0
C251 C 0.50727 0.0032 0.96528 0.0
C252 C 0.52943 0.00212 0.98789 0.0
C253 C 0.48142 0.97804 0.96286 0.0
C254 C 0.45919 0.97631 0.93817 0.0
C255 C 0.47351 0.97554 0.91164 0.0
C256 C 0.4526 0.97424 0.8884 0.0
C257 C 0.41728 0.97352 0.89141 0.0
C258 C 0.4028 0.97406 0.91768 0.0
C259 C 0.42361 0.97539 0.94099 0.0
H260 H 0.40112 0.97252 0.8734 0.0
H261 H 0.60533 0.98427 0.09825 0.0
H262 H 0.87944 0.01734 0.43045 0.0
H263 H 0.916 0.00656 0.47053 0.0
H264 H 0.00452 0.03052 0.42188 0.0
H265 H 0.96842 0.0414 0.38199 0.0
H266 H 0.01127 0.96878 0.44912 0.0
H267 H 0.97897 0.08571 0.46953 0.0
H268 H 0.93921 0.13426 0.47734 0.0
H269 H 0.89484 0.08016 0.54552 0.0
H270 H 0.93404 0.03102 0.53786 0.0
H271 H 0.13383 0.98267 0.5592 0.0
H272 H 0.09749 0.99186 0.51869 0.0
H273 H 0.00932 0.96384 0.56631 0.0
H274 H 0.04516 0.95422 0.60651 0.0
H275 H 0.00238 0.02734 0.53965 0.0
H276 H 0.03461 0.9106 0.51945 0.0
H277 H 0.07424 0.86192 0.51178 0.0
H278 H 0.11867 0.91555 0.44339 0.0
H279 H 0.0796 0.96484 0.45092 0.0
C280 C 0.90662 0.02091 0.42847 0.0
C281 C 0.92102 0.03014 0.40306 0.0
C282 C 0.92748 0.01469 0.45133 0.0
C283 C 0.96298 0.01758 0.44908 0.0
C284 C 0.97723 0.02791 0.42399 0.0
C285 C 0.95647 0.03432 0.40126 0.0
C286 C 0.98554 0.00847 0.47246 0.0
C287 C 0.00965 0.98189 0.46882 0.0
C288 C 0.98284 0.02505 0.49829 0.0
C289 C 0.95918 0.05451 0.50292 0.0
C290 C 0.96051 0.08401 0.48602 0.0
C291 C 0.93813 0.11167 0.49046 0.0
C292 C 0.91445 0.11026 0.51186 0.0
C293 C 0.91316 0.0812 0.52892 0.0
C294 C 0.93547 0.05344 0.52455 0.0
C295 C 0.10681 0.9778 0.56084 0.0
C296 C 0.09237 0.96788 0.58607 0.0
C297 C 0.08609 0.98312 0.53774 0.0
C298 C 0.05072 0.97877 0.53964 0.0
C299 C 0.03652 0.96757 0.5645 0.0
C300 C 0.05714 0.96193 0.58742 0.0
C301 C 0.02813 0.98772 0.51629 0.0
C302 C 0.00401 0.01426 0.51994 0.0
C303 C 0.03081 0.9711 0.49049 0.0
C304 C 0.05445 0.9416 0.48596 0.0
C305 C 0.05307 0.91219 0.50295 0.0
C306 C 0.07538 0.88444 0.49859 0.0
C307 C 0.09904 0.88568 0.47717 0.0
C308 C 0.10037 0.91465 0.46001 0.0
C309 C 0.07814 0.9425 0.46431 0.0
H310 H 0.11627 0.86416 0.47381 0.0
H311 H 0.89715 0.13171 0.51528 0.0
H312 H 0.12726 0.67703 0.13264 0.0
H313 H 0.17908 0.71012 0.12506 0.0
H314 H 0.20065 0.70706 0.21205 0.0
H315 H 0.14902 0.67375 0.21992 0.0
H316 H 0.19446 0.77371 0.14483 0.0
H317 H 0.28663 0.70675 0.22116 0.0
H318 H 0.29731 0.64887 0.2408 0.0
H319 H 0.25307 0.60185 0.16933 0.0
H320 H 0.24255 0.65942 0.1491 0.0
H321 H 0.33893 0.86948 0.19604 0.0
H322 H 0.28721 0.83528 0.18993 0.0
H323 H 0.33727 0.77448 0.12743 0.0
H324 H 0.38873 0.80902 0.1328 0.0
H325 H 0.30938 0.73735 0.17609 0.0
H326 H 0.27948 0.8165 0.10433 0.0
H327 H 0.26923 0.87362 0.08329 0.0
H328 H 0.19021 0.89434 0.14213 0.0
H329 H 0.20036 0.83752 0.16382 0.0
C330 C 0.14318 0.68297 0.15018 0.0
C331 C 0.13384 0.67269 0.17694 0.0
C332 C 0.17274 0.70206 0.14578 0.0
C333 C 0.19374 0.71099 0.16795 0.0
C334 C 0.18499 0.70013 0.19458 0.0
C335 C 0.15539 0.6811 0.19904 0.0
C336 C 0.2241 0.73284 0.16342 0.0
C337 C 0.21961 0.76569 0.15156 0.0
C338 C 0.25697 0.72223 0.17194 0.0
C339 C 0.26355 0.68743 0.18374 0.0
C340 C 0.27932 0.68406 0.20958 0.0
C341 C 0.28532 0.6513 0.22083 0.0
C342 C 0.27578 0.62171 0.20636 0.0
C343 C 0.26033 0.6248 0.18056 0.0
C344 C 0.2543 0.65749 0.16922 0.0
C345 C 0.33863 0.84942 0.18049 0.0
C346 C 0.36794 0.84191 0.16495 0.0
C347 C 0.3091 0.82994 0.17704 0.0
C348 C 0.30862 0.80232 0.15835 0.0
C349 C 0.33725 0.79574 0.14194 0.0
C350 C 0.36653 0.81566 0.14494 0.0
C351 C 0.27953 0.77831 0.15801 0.0
C352 C 0.28425 0.74518 0.16915 0.0
C353 C 0.24697 0.78858 0.14871 0.0
C354 C 0.24096 0.82289 0.1359 0.0
C355 C 0.26019 0.83339 0.113 0.0
C356 C 0.25433 0.86568 0.1009 0.0
C357 C 0.22916 0.88764 0.11142 0.0
C358 C 0.20974 0.87732 0.13403 0.0
C359 C 0.21552 0.84507 0.14622 0.0
H360 H 0.22463 0.91261 0.102 0.0
H361 H 0.28042 0.59638 0.21511 0.0
H362 H 0.33723 0.65056 0.69991 0.0
H363 H 0.30345 0.70232 0.69114 0.0
H364 H 0.28465 0.66844 0.60806 0.0
H365 H 0.31832 0.61601 0.61657 0.0
H366 H 0.29619 0.74682 0.6196 0.0
H367 H 0.22652 0.64871 0.64266 0.0
H368 H 0.21349 0.59636 0.66956 0.0
H369 H 0.20904 0.65676 0.74361 0.0
H370 H 0.22264 0.7094 0.71721 0.0
H371 H 0.16465 0.87417 0.62366 0.0
H372 H 0.19091 0.81815 0.61325 0.0
H373 H 0.20805 0.80084 0.69992 0.0
H374 H 0.18115 0.8559 0.71056 0.0
H375 H 0.19103 0.74267 0.67611 0.0
H376 H 0.26962 0.83676 0.65636 0.0
H377 H 0.28692 0.88997 0.63224 0.0
H378 H 0.27723 0.8384 0.5544 0.0
H379 H 0.25948 0.785 0.5781 0.0
C380 C 0.32666 0.65432 0.67953 0.0
C381 C 0.32988 0.62873 0.65913 0.0
C382 C 0.30741 0.68397 0.67458 0.0
C383 C 0.29125 0.68867 0.64915 0.0
C384 C 0.29694 0.66498 0.62784 0.0
C385 C 0.31614 0.63507 0.63281 0.0
C386 C 0.26526 0.716 0.64651 0.0
C387 C 0.27273 0.74574 0.63133 0.0
C388 C 0.23498 0.71439 0.66211 0.0
C389 C 0.22579 0.68296 0.67796 0.0
C390 C 0.22296 0.6508 0.66471 0.0
C391 C 0.21546 0.62107 0.67986 0.0
C392 C 0.21049 0.62322 0.70828 0.0
C393 C 0.21289 0.65513 0.72159 0.0
C394 C 0.22045 0.68493 0.70653 0.0
C395 C 0.17356 0.85818 0.64052 0.0
C396 C 0.1712 0.86973 0.66793 0.0
C397 C 0.18862 0.82624 0.63452 0.0
C398 C 0.20197 0.80566 0.65578 0.0
C399 C 0.19795 0.81632 0.68318 0.0
C400 C 0.18264 0.84795 0.68922 0.0
C401 C 0.22235 0.77424 0.64991 0.0
C402 C 0.21386 0.74355 0.66359 0.0
C403 C 0.25182 0.77516 0.63312 0.0
C404 C 0.26288 0.80708 0.61895 0.0
C405 C 0.27102 0.83686 0.6341 0.0
C406 C 0.28091 0.86703 0.62051 0.0
C407 C 0.28308 0.8676 0.5918 0.0
C408 C 0.27547 0.83795 0.57663 0.0
C409 C 0.26551 0.80773 0.59012 0.0
H410 H 0.29072 0.89098 0.58132 0.0
H411 H 0.20474 0.60016 0.71998 0.0
H412 H 0.63734 0.16422 0.80938 0.0
H413 H 0.69187 0.19456 0.80598 0.0
H414 H 0.68987 0.21331 0.89347 0.0
H415 H 0.63547 0.18355 0.89687 0.0
H416 H 0.69769 0.26457 0.81992 0.0
H417 H 0.77092 0.2178 0.91704 0.0
H418 H 0.7808 0.1638 0.94293 0.0
H419 H 0.76088 0.10437 0.87014 0.0
H420 H 0.75136 0.15798 0.84372 0.0
H421 H 0.85897 0.33718 0.89776 0.0
H422 H 0.80445 0.30756 0.89469 0.0
H423 H 0.80987 0.31189 0.80602 0.0
H424 H 0.86369 0.34299 0.8092 0.0
H425 H 0.80222 0.24567 0.87508 0.0
H426 H 0.73182 0.29316 0.77762 0.0
H427 H 0.72098 0.34721 0.75202 0.0
H428 H 0.7341 0.40596 0.82618 0.0
H429 H 0.74458 0.35226 0.85229 0.0
C430 C 0.64928 0.1736 0.82801 0.0
C431 C 0.63234 0.17143 0.85342 0.0
C432 C 0.68016 0.19131 0.82599 0.0
C433 C 0.6948 0.20636 0.84944 0.0
C434 C 0.67917 0.20174 0.87513 0.0
C435 C 0.64816 0.18458 0.87709 0.0
C436 C 0.72442 0.22975 0.84708 0.0
C437 C 0.72089 0.26021 0.83154 0.0
C438 C 0.75423 0.22439 0.86276 0.0
C439 C 0.76014 0.19196 0.87846 0.0
C440 C 0.76878 0.19322 0.90652 0.0
C441 C 0.7743 0.16267 0.9213 0.0
C442 C 0.77137 0.13068 0.90821 0.0
C443 C 0.76301 0.12916 0.88029 0.0
C444 C 0.75748 0.15963 0.86541 0.0
C445 C 0.84758 0.33341 0.87768 0.0
C446 C 0.86533 0.34254 0.85374 0.0
C447 C 0.81665 0.31605 0.8759 0.0
C448 C 0.80319 0.30694 0.85013 0.0
C449 C 0.81943 0.31884 0.82616 0.0
C450 C 0.85013 0.33689 0.82798 0.0
C451 C 0.77519 0.28126 0.84862 0.0
C452 C 0.77914 0.25016 0.86333 0.0
C453 C 0.74576 0.28618 0.83225 0.0
C454 C 0.73939 0.31868 0.81683 0.0
C455 C 0.73232 0.31761 0.78847 0.0
C456 C 0.72624 0.34819 0.77387 0.0
C457 C 0.72698 0.38001 0.78744 0.0
C458 C 0.73369 0.38131 0.81567 0.0
C459 C 0.73977 0.35081 0.83037 0.0
H460 H 0.72227 0.40365 0.7761 0.0
H461 H 0.77565 0.10706 0.91969 0.0
H462 H 0.67944 0.37602 0.37275 0.0
H463 H 0.71126 0.32245 0.3807 0.0
H464 H 0.69598 0.2931 0.29598 0.0
H465 H 0.6638 0.34611 0.28787 0.0
H466 H 0.69206 0.23777 0.32958 0.0
H467 H 0.76745 0.33562 0.31611 0.0
H468 H 0.79027 0.39312 0.32748 0.0
H469 H 0.81712 0.35734 0.40835 0.0
H470 H 0.794 0.29973 0.39755 0.0
H471 H 0.82948 0.14552 0.27996 0.0
H472 H 0.79579 0.1966 0.29104 0.0
H473 H 0.81139 0.17837 0.37765 0.0
H474 H 0.84499 0.12648 0.36691 0.0
H475 H 0.81352 0.25423 0.35409 0.0
H476 H 0.74498 0.15246 0.36356 0.0
H477 H 0.72494 0.095 0.3491 0.0
H478 H 0.68643 0.13835 0.27385 0.0
H479 H 0.70689 0.19599 0.28761 0.0
C480 C 0.68228 0.3579 0.3559 0.0
C481 C 0.66946 0.36566 0.32953 0.0
C482 C 0.70057 0.32734 0.36051 0.0
C483 C 0.70646 0.30414 0.33881 0.0
C484 C 0.69181 0.31073 0.31299 0.0
C485 C 0.67351 0.34118 0.30837 0.0
C486 C 0.73008 0.27447 0.34201 0.0
C487 C 0.71853 0.24135 0.33511 0.0
C488 C 0.76453 0.27904 0.34975 0.0
C489 C 0.77863 0.31355 0.35616 0.0
C490 C 0.77799 0.34011 0.33638 0.0
C491 C 0.79101 0.3727 0.34271 0.0
C492 C 0.80504 0.37891 0.36866 0.0
C493 C 0.80617 0.35251 0.38829 0.0
C494 C 0.79312 0.3199 0.38208 0.0
C495 C 0.82653 0.1526 0.3014 0.0
C496 C 0.83955 0.1315 0.32256 0.0
C497 C 0.80719 0.18183 0.30765 0.0
C498 C 0.80082 0.19075 0.33511 0.0
C499 C 0.81604 0.17162 0.35633 0.0
C500 C 0.83518 0.14202 0.35011 0.0
C501 C 0.77552 0.21798 0.34109 0.0
C502 C 0.78678 0.25055 0.3495 0.0
C503 C 0.74084 0.21297 0.33465 0.0
C504 C 0.72774 0.17851 0.32654 0.0
C505 C 0.73249 0.14971 0.34383 0.0
C506 C 0.72103 0.1171 0.33577 0.0
C507 C 0.70449 0.11301 0.31055 0.0
C508 C 0.69928 0.14155 0.29337 0.0
C509 C 0.71078 0.17421 0.30131 0.0
H510 H 0.69567 0.08773 0.30433 0.0
H511 H 0.8151 0.40416 0.37352 0.0
H512 H 0.74752 0.49443 0.3404 0.0
H513 H 0.80611 0.51127 0.32884 0.0
H514 H 0.77114 0.55141 0.25094 0.0
H515 H 0.71316 0.53503 0.26221 0.0
H516 H 0.82205 0.49804 0.24804 0.0
H517 H 0.79593 0.60554 0.29703 0.0
H518 H 0.78061 0.63891 0.33851 0.0
H519 H 0.86855 0.59878 0.38044 0.0
H520 H 0.88414 0.56481 0.33929 0.0
H521 H 0.93059 0.59481 0.17096 0.0
H522 H 0.88551 0.57558 0.20129 0.0
H523 H 0.95837 0.55822 0.26631 0.0
H524 H 0.00424 0.5785 0.23582 0.0
H525 H 0.89767 0.58901 0.28514 0.0
H526 H 0.92922 0.48945 0.23384 0.0
H527 H 0.94533 0.45635 0.19243 0.0
H528 H 0.84815 0.47886 0.15605 0.0
H529 H 0.83161 0.5125 0.19706 0.0
C530 C 0.75227 0.50772 0.32117 0.0
C531 C 0.72584 0.51298 0.30203 0.0
C532 C 0.78572 0.51719 0.31458 0.0
C533 C 0.79289 0.53215 0.2889 0.0
C534 C 0.76613 0.53956 0.27074 0.0
C535 C 0.733 0.53017 0.27723 0.0
C536 C 0.82818 0.53709 0.27915 0.0
C537 C 0.83866 0.51785 0.25619 0.0
C538 C 0.85037 0.56183 0.2906 0.0
C539 C 0.84093 0.58228 0.31524 0.0
C540 C 0.8118 0.60355 0.3152 0.0
C541 C 0.80312 0.62264 0.33862 0.0
C542 C 0.82352 0.62086 0.36214 0.0
C543 C 0.85272 0.60007 0.36224 0.0
C544 C 0.8615 0.58091 0.33887 0.0
C545 C 0.93724 0.58689 0.19167 0.0
C546 C 0.97107 0.58776 0.20089 0.0
C547 C 0.91137 0.57586 0.20901 0.0
C548 C 0.91866 0.56485 0.23589 0.0
C549 C 0.95228 0.56641 0.24556 0.0
C550 C 0.9784 0.57779 0.22812 0.0
C551 C 0.89061 0.55121 0.25308 0.0
C552 C 0.88155 0.56852 0.27745 0.0
C553 C 0.86967 0.52437 0.24312 0.0
C554 C 0.87921 0.50357 0.21856 0.0
C555 C 0.91132 0.48745 0.21697 0.0
C556 C 0.92053 0.46859 0.19356 0.0
C557 C 0.89778 0.46552 0.17162 0.0
C558 C 0.86573 0.48122 0.17308 0.0
C559 C 0.8564 0.50013 0.19644 0.0
H560 H 0.90498 0.45095 0.15349 0.0
H561 H 0.81676 0.63567 0.38025 0.0
H562 H 0.37989 0.49433 0.73406 0.0
H563 H 0.39173 0.45154 0.7701 0.0
H564 H 0.41365 0.37501 0.70778 0.0
H565 H 0.40074 0.4171 0.67195 0.0
H566 H 0.37769 0.34695 0.74683 0.0
H567 H 0.47702 0.42129 0.74269 0.0
H568 H 0.507 0.47699 0.74572 0.0
H569 H 0.47266 0.48968 0.82904 0.0
H570 H 0.44216 0.43419 0.82636 0.0
H571 H 0.51227 0.24031 0.78662 0.0
H572 H 0.47757 0.28772 0.76878 0.0
H573 H 0.43912 0.30819 0.85034 0.0
H574 H 0.47341 0.25966 0.86844 0.0
H575 H 0.47075 0.36763 0.81369 0.0
H576 H 0.38306 0.28284 0.81827 0.0
H577 H 0.35839 0.22485 0.81266 0.0
H578 H 0.37628 0.2295 0.72558 0.0
H579 H 0.40151 0.28738 0.73069 0.0
C580 C 0.38721 0.46835 0.72814 0.0
C581 C 0.38954 0.45899 0.70026 0.0
C582 C 0.39394 0.44396 0.74871 0.0
C583 C 0.40372 0.41013 0.74162 0.0
C584 C 0.40587 0.40087 0.71375 0.0
C585 C 0.39871 0.42501 0.69328 0.0
C586 C 0.41304 0.38429 0.76284 0.0
C587 C 0.39788 0.35156 0.76157 0.0
C588 C 0.43871 0.39058 0.78262 0.0
C589 C 0.45694 0.42391 0.7842 0.0
C590 C 0.47565 0.43612 0.76157 0.0
C591 C 0.49277 0.4676 0.76324 0.0
C592 C 0.49163 0.48693 0.78752 0.0
C593 C 0.47344 0.47474 0.81022 0.0
C594 C 0.45624 0.44328 0.80864 0.0
C595 C 0.49648 0.25487 0.80081 0.0
C596 C 0.4956 0.2466 0.82892 0.0
C597 C 0.47657 0.28176 0.79057 0.0
C598 C 0.45585 0.30113 0.8083 0.0
C599 C 0.45498 0.29326 0.83646 0.0
C600 C 0.47447 0.26571 0.84669 0.0
C601 C 0.43629 0.33024 0.79679 0.0
C602 C 0.44961 0.36352 0.79973 0.0
C603 C 0.40941 0.32431 0.77818 0.0
C604 C 0.39425 0.28947 0.7749 0.0
C605 C 0.38197 0.27142 0.79795 0.0
C606 C 0.36781 0.23859 0.79485 0.0
C607 C 0.36564 0.22358 0.76877 0.0
C608 C 0.37782 0.24126 0.74575 0.0
C609 C 0.392 0.27411 0.74873 0.0
H610 H 0.35452 0.19824 0.76643 0.0
H611 H 0.50491 0.51129 0.78878 0.0
H612 H 0.50246 0.94612 0.22355 0.0
H613 H 0.54603 0.96465 0.25682 0.0
H614 H 0.61469 0.8865 0.2257 0.0
H615 H 0.57197 0.86875 0.19219 0.0
H616 H 0.61495 0.89311 0.28449 0.0
H617 H 0.62345 0.96046 0.20079 0.0
H618 H 0.6016 -0.00071 0.16453 0.0
H619 H 0.57924 0.0769 0.22517 0.0
H620 H 0.60047 0.0382 0.26189 0.0
H621 H 0.78695 0.94346 0.28127 0.0
H622 H 0.728 0.92538 0.27444 0.0
H623 H 0.69291 0.01288 0.32186 0.0
H624 H 0.75223 0.03043 0.32951 0.0
H625 H 0.6671 0.00722 0.26582 0.0
H626 H 0.67425 0.94122 0.34791 0.0
H627 H 0.69955 0.90074 0.38145 0.0
H628 H 0.69612 0.81912 0.32167 0.0
H629 H 0.67126 0.85922 0.2876 0.0
C630 C 0.52674 0.93275 0.22415 0.0
C631 C 0.53416 0.90639 0.20519 0.0
C632 C 0.5515 0.94327 0.24309 0.0
C633 C 0.58352 0.9269 0.24364 0.0
C634 C 0.59011 0.89934 0.22567 0.0
C635 C 0.56581 0.88945 0.2064 0.0
C636 C 0.61155 0.94013 0.26091 0.0
C637 C 0.62627 0.91815 0.28063 0.0
C638 C 0.62588 0.97301 0.25608 0.0
C639 C 0.61296 0.99624 0.23412 0.0
C640 C 0.61348 0.98564 0.20643 0.0
C641 C 0.6013 0.00765 0.18579 0.0
C642 C 0.58889 0.04048 0.19256 0.0
C643 C 0.58873 0.0514 0.21998 0.0
C644 C 0.60081 0.02944 0.24072 0.0
C645 C 0.76666 0.95811 0.29099 0.0
C646 C 0.77389 0.98805 0.30611 0.0
C647 C 0.73307 0.94781 0.28711 0.0
C648 C 0.70618 0.96772 0.29777 0.0
C649 C 0.71338 0.99703 0.31373 0.0
C650 C 0.74714 0.00689 0.31821 0.0
C651 C 0.67099 0.95993 0.28908 0.0
C652 C 0.65507 0.98277 0.27062 0.0
C653 C 0.65591 0.92764 0.29481 0.0
C654 C 0.67102 0.90333 0.31514 0.0
C655 C 0.67915 0.91471 0.34182 0.0
C656 C 0.69336 0.89181 0.36095 0.0
C657 C 0.69947 0.85739 0.35369 0.0
C658 C 0.69136 0.84579 0.32727 0.0
C659 C 0.67715 0.8686 0.30805 0.0
H660 H 0.71046 0.83969 0.36854 0.0
H661 H 0.57951 0.05752 0.17654 0.0
H662 H 0.97463 0.26395 0.78545 0.0
H663 H 0.00164 0.21252 0.76656 0.0
H664 H 0.04258 0.18721 0.84656 0.0
H665 H 0.01631 0.23996 0.86559 0.0
H666 H 0.08864 0.17466 0.80548 0.0
H667 H 0.97401 0.14398 0.8239 0.0
H668 H 0.9117 0.1516 0.82442 0.0
H669 H 0.91004 0.15226 0.73605 0.0
H670 H 0.97238 0.14516 0.73498 0.0
H671 H 0.11573 0.00576 0.7376 0.0
H672 H 0.09528 0.04768 0.77188 0.0
H673 H 0.06621 0.11754 0.70666 0.0
H674 H 0.08729 0.07642 0.67242 0.0
H675 H 0.01416 0.09764 0.75069 0.0
H676 H 0.1298 0.13989 0.73426 0.0
H677 H 0.19198 0.13115 0.73351 0.0
H678 H 0.19079 0.10563 0.81952 0.0
H679 H 0.12842 0.11369 0.82064 0.0
C680 C 0.98933 0.24747 0.79909 0.0
C681 C 0.99295 0.2555 0.82706 0.0
C682 C 0.00472 0.21808 0.78827 0.0
C683 C 0.02332 0.19563 0.80534 0.0
C684 C 0.02801 0.2041 0.83316 0.0
C685 C 0.01296 0.23403 0.84398 0.0
C686 C 0.03701 0.16319 0.79367 0.0
C687 C 0.07229 0.1573 0.79408 0.0
C688 C 0.0156 0.14051 0.77888 0.0
C689 C 0.97794 0.14408 0.77938 0.0
C690 C 0.96038 0.14586 0.80457 0.0
C691 C 0.92505 0.1501 0.80496 0.0
C692 C 0.90693 0.15242 0.78028 0.0
C693 C 0.9241 0.15041 0.75516 0.0
C694 C 0.95944 0.1462 0.75464 0.0
C695 C 0.10511 0.03014 0.73065 0.0
C696 C 0.10299 0.03796 0.70243 0.0
C697 C 0.09357 0.05394 0.75018 0.0
C698 C 0.07935 0.08542 0.74159 0.0
C699 C 0.07718 0.09323 0.7135 0.0
C700 C 0.08926 0.06982 0.69404 0.0
C701 C 0.06561 0.11023 0.76161 0.0
C702 C 0.03029 0.11447 0.76279 0.0
C703 C 0.08692 0.13103 0.77798 0.0
C704 C 0.12443 0.12697 0.77746 0.0
C705 C 0.14275 0.13212 0.75295 0.0
C706 C 0.17803 0.12735 0.75246 0.0
C707 C 0.19531 0.11775 0.77643 0.0
C708 C 0.17735 0.11301 0.80096 0.0
C709 C 0.14204 0.11769 0.80154 0.0
H710 H 0.22261 0.11414 0.77599 0.0
H711 H 0.87958 0.15575 0.78063 0.0
H712 H 0.06992 0.31773 0.7836 0.0
H713 H 0.1081 0.34452 0.75045 0.0
H714 H 0.0591 0.44316 0.76387 0.0
H715 H 0.0201 0.41611 0.79703 0.0
H716 H 0.08325 0.43362 0.70844 0.0
H717 H 0.12417 0.42806 0.80077 0.0
H718 H 0.1367 0.40071 0.84551 0.0
H719 H 0.20451 0.32881 0.80598 0.0
H720 H 0.19196 0.35543 0.76089 0.0
H721 H 0.2365 0.53711 0.69596 0.0
H722 H 0.18235 0.50975 0.7078 0.0
H723 H 0.22392 0.41037 0.68497 0.0
H724 H 0.27788 0.43796 0.67225 0.0
H725 H 0.20165 0.4209 0.74271 0.0
H726 H 0.16245 0.43322 0.64961 0.0
H727 H 0.15009 0.46521 0.60684 0.0
H728 H 0.07995 0.53085 0.65036 0.0
H729 H 0.09227 0.49956 0.69352 0.0
C730 C 0.06668 0.34497 0.77899 0.0
C731 C 0.04245 0.36501 0.79317 0.0
C732 C 0.08846 0.36021 0.76 0.0
C733 C 0.08684 0.39591 0.75513 0.0
C734 C 0.06075 0.41555 0.76742 0.0
C735 C 0.03854 0.40012 0.78633 0.0
C736 C 0.11529 0.41285 0.74047 0.0
C737 C 0.10911 0.43115 0.71599 0.0
C738 C 0.14904 0.40952 0.75035 0.0
C739 C 0.15682 0.39348 0.77742 0.0
C740 C 0.14152 0.40621 0.80158 0.0
C741 C 0.14866 0.39088 0.82701 0.0
C742 C 0.17131 0.36297 0.82858 0.0
C743 C 0.18693 0.35039 0.80472 0.0
C744 C 0.17982 0.3656 0.77922 0.0
C745 C 0.23351 0.50962 0.69248 0.0
C746 C 0.26098 0.48953 0.68302 0.0
C747 C 0.20267 0.49406 0.69923 0.0
C748 C 0.1992 0.45811 0.69717 0.0
C749 C 0.22611 0.43821 0.68641 0.0
C750 C 0.25676 0.45392 0.67906 0.0
C751 C 0.16983 0.44106 0.71034 0.0
C752 C 0.17586 0.42305 0.73489 0.0
C753 C 0.13609 0.44543 0.70079 0.0
C754 C 0.12854 0.46425 0.67487 0.0
C755 C 0.14464 0.45469 0.65013 0.0
C756 C 0.13758 0.47265 0.6258 0.0
C757 C 0.11431 0.5001 0.62589 0.0
C758 C 0.09799 0.5096 0.65032 0.0
C759 C 0.10497 0.49173 0.67473 0.0
H760 H 0.10888 0.51397 0.60703 0.0
H761 H 0.17683 0.35114 0.84828 0.0
H762 H 0.58007 0.57071 0.3299 0.0
H763 H 0.56186 0.61536 0.29752 0.0
H764 H 0.59019 0.5498 0.22941 0.0
H765 H 0.60755 0.50414 0.26191 0.0
H766 H 0.61225 0.64011 0.24808 0.0
H767 H 0.53401 0.5544 0.20688 0.0
H768 H 0.49391 0.50592 0.21141 0.0
H769 H 0.43305 0.56564 0.26759 0.0
H770 H 0.47316 0.61427 0.26365 0.0
H771 H 0.53397 0.77679 0.16779 0.0
H772 H 0.5565 0.71859 0.17733 0.0
H773 H 0.49225 0.71182 0.24906 0.0
H774 H 0.47017 0.76982 0.24003 0.0
H775 H 0.493 0.65091 0.2156 0.0
H776 H 0.56828 0.73324 0.25959 0.0
H777 H 0.60707 0.78308 0.26012 0.0
H778 H 0.67322 0.73135 0.20287 0.0
H779 H 0.63446 0.68138 0.2017 0.0
C780 C 0.58216 0.56562 0.30803 0.0
C781 C 0.59521 0.53404 0.29836 0.0
C782 C 0.57178 0.59112 0.28961 0.0
C783 C 0.57463 0.58569 0.26121 0.0
C784 C 0.58749 0.55417 0.25132 0.0
C785 C 0.59737 0.52822 0.26985 0.0
C786 C 0.56455 0.61398 0.24256 0.0
C787 C 0.58661 0.64212 0.23995 0.0
C788 C 0.53086 0.61672 0.2328 0.0
C789 C 0.50675 0.58769 0.23524 0.0
C790 C 0.51228 0.55699 0.22043 0.0
C791 C 0.48951 0.52955 0.22283 0.0
C792 C 0.46101 0.53265 0.23985 0.0
C793 C 0.45518 0.56324 0.25446 0.0
C794 C 0.47791 0.59074 0.25214 0.0
C795 C 0.52457 0.76274 0.18549 0.0
C796 C 0.50054 0.77787 0.20331 0.0
C797 C 0.53739 0.7296 0.19085 0.0
C798 C 0.52586 0.71104 0.2138 0.0
C799 C 0.50124 0.72574 0.23114 0.0
C800 C 0.48892 0.75897 0.2261 0.0
C801 C 0.54071 0.67714 0.22111 0.0
C802 C 0.51926 0.64834 0.22218 0.0
C803 C 0.57498 0.67387 0.22956 0.0
C804 C 0.59824 0.70385 0.23021 0.0
C805 C 0.5909 0.73267 0.24688 0.0
C806 C 0.61291 0.7609 0.24735 0.0
C807 C 0.64252 0.76044 0.23145 0.0
C808 C 0.65022 0.73171 0.21511 0.0
C809 C 0.62824 0.70343 0.21452 0.0
H810 H 0.65955 0.7823 0.23186 0.0
H811 H 0.44339 0.51139 0.24167 0.0
H812 H 0.48267 0.08534 0.79459 0.0
H813 H 0.44515 0.05667 0.7612 0.0
H814 H 0.39353 0.15342 0.74618 0.0
H815 H 0.43049 0.18203 0.77941 0.0
H816 H 0.36437 0.0754 0.77649 0.0
H817 H 0.40661 0.14709 0.69594 0.0
H818 H 0.4543 0.16325 0.66561 0.0
H819 H 0.4748 0.05602 0.64923 0.0
H820 H 0.42744 0.03932 0.67977 0.0
H821 H 0.21106 0.06495 0.71172 0.0
H822 H 0.26668 0.08885 0.72298 0.0
H823 H 0.31555 0.00735 0.67663 0.0
H824 H 0.25942 0.98423 0.66425 0.0
H825 H 0.35323 0.06709 0.67491 0.0
H826 H 0.3025 0.99626 0.74386 0.0
H827 H 0.25661 0.97637 0.77448 0.0
H828 H 0.25581 0.07463 0.81554 0.0
H829 H 0.30122 0.09538 0.78478 0.0
C830 C 0.46424 0.10069 0.78328 0.0
C831 C 0.45921 0.13578 0.78966 0.0
C832 C 0.44286 0.08432 0.76427 0.0
C833 C 0.41683 0.10309 0.75111 0.0
C834 C 0.41379 0.13869 0.75583 0.0
C835 C 0.43477 0.15491 0.77492 0.0
C836 C 0.38839 0.08513 0.73751 0.0
C837 C 0.36188 0.0735 0.75429 0.0
C838 C 0.38571 0.08189 0.70868 0.0
C839 C 0.41388 0.092 0.69033 0.0
C840 C 0.42153 0.127 0.68608 0.0
C841 C 0.44842 0.13625 0.6688 0.0
C842 C 0.46765 0.11067 0.65557 0.0
C843 C 0.45995 0.0758 0.65953 0.0
C844 C 0.4331 0.06644 0.67681 0.0
C845 C 0.23366 0.05291 0.70313 0.0
C846 C 0.23117 0.02282 0.68721 0.0
C847 C 0.26541 0.0664 0.7097 0.0
C848 C 0.29529 0.0493 0.70129 0.0
C849 C 0.29283 0.02082 0.68346 0.0
C850 C 0.26084 0.0077 0.67635 0.0
C851 C 0.32831 0.05886 0.71393 0.0
C852 C 0.35572 0.06859 0.69711 0.0
C853 C 0.33204 0.06005 0.74295 0.0
C854 C 0.30516 0.04743 0.76188 0.0
C855 C 0.29242 0.01369 0.75932 0.0
C856 C 0.26647 0.00228 0.77669 0.0
C857 C 0.25325 0.02425 0.79691 0.0
C858 C 0.26607 0.05764 0.79986 0.0
C859 C 0.29192 0.06925 0.78246 0.0
H860 H 0.23313 0.01539 0.81031 0.0
H861 H 0.48845 0.11788 0.6422 0.0
H862 H 0.9964 0.73555 0.1543 0.0
H863 H 0.96742 0.79157 0.15864 0.0
H864 H 0.92858 0.76121 0.23803 0.0
H865 H 0.9573 0.70544 0.23392 0.0
H866 H 0.88181 0.80069 0.20749 0.0
H867 H 0.00231 0.80163 0.23483 0.0
H868 H 0.06355 0.79395 0.22536 0.0
H869 H 0.05706 0.86805 0.15969 0.0
H870 H 0.99562 0.8758 0.16859 0.0
H871 H 0.88374 0.91641 0.31421 0.0
H872 H 0.89212 0.87166 0.27967 0.0
H873 H 0.91805 0.9491 0.2194 0.0
H874 H 0.90952 0.9945 0.25418 0.0
H875 H 0.96467 0.89505 0.22261 0.0
H876 H 0.84673 0.90779 0.20993 0.0
H877 H 0.78694 0.916 0.22381 0.0
H878 H 0.78794 0.81702 0.26378 0.0
H879 H 0.84796 0.80845 0.2507 0.0
C880 C 0.98111 0.74058 0.17242 0.0
C881 C 0.97958 0.71637 0.19401 0.0
C882 C 0.96455 0.77252 0.17481 0.0
C883 C 0.94608 0.78049 0.19871 0.0
C884 C 0.94263 0.75545 0.21938 0.0
C885 C 0.95936 0.72374 0.21713 0.0
C886 C 0.93418 0.81606 0.20433 0.0
C887 C 0.89971 0.82156 0.21051 0.0
C888 C 0.95751 0.84347 0.20737 0.0
C889 C 0.99438 0.83892 0.2021 0.0
C890 C 0.01392 0.81607 0.21823 0.0
C891 C 0.04865 0.81173 0.213 0.0
C892 C 0.06416 0.8304 0.19186 0.0
C893 C 0.04499 0.85353 0.17599 0.0
C894 C 0.01022 0.85789 0.18111 0.0
C895 C 0.89106 0.92402 0.29359 0.0
C896 C 0.89617 0.95887 0.28687 0.0
C897 C 0.89549 0.89845 0.2738 0.0
C898 C 0.90513 0.90719 0.2469 0.0
C899 C 0.91025 0.94198 0.24001 0.0
C900 C 0.90548 0.96776 0.25985 0.0
C901 C 0.91255 0.87917 0.22715 0.0
C902 C 0.94626 0.87496 0.21835 0.0
C903 C 0.88849 0.85297 0.22185 0.0
C904 C 0.852 0.85748 0.22929 0.0
C905 C 0.83429 0.8878 0.22178 0.0
C906 C 0.80033 0.89253 0.22952 0.0
C907 C 0.78365 0.86704 0.24465 0.0
C908 C 0.80088 0.83672 0.25202 0.0
C909 C 0.83489 0.83189 0.24439 0.0
H910 H 0.75737 0.87076 0.25066 0.0
H911 H 0.09106 0.82703 0.18784 0.0
loop_
_geom_bond_atom_site_label_1
_geom_bond_atom_site_label_2
_geom_bond_distance
_geom_bond_site_symmetry_2
_ccdc_geom_bond_type
Co0 O1 2.216 . S
Co0 O2 2.091 . S
Co0 O4 2.004 1_455 S
Co0 O10 2.021 . S
Co0 O12 2.137 1_455 S
Co0 O13 2.244 . S
O1 Co0 2.216 . S
O1 C8 1.247 . S
O2 Co0 2.091 . S
O2 C8 1.261 . S
C3 O12 1.247 . S
C3 O13 1.272 1_655 S
O4 Co0 2.004 1_655 S
O4 C9 1.255 1_655 S
Co5 O6 2.061 . S
Co5 O11 2.052 . S
Co5 O13 2.135 . S
O6 Co5 2.061 . S
O6 C9 1.248 . S
C7 O10 1.238 . S
C7 O11 1.241 . S
C8 O1 1.247 . S
C8 O2 1.261 . S
C9 O4 1.255 1_455 S
C9 O6 1.248 . S
O10 Co0 2.021 . S
O10 C7 1.238 . S
O11 Co5 2.052 . S
O11 C7 1.241 . S
O12 Co0 2.137 1_655 S
O12 C3 1.247 . S
O13 Co0 2.244 . S
O13 C3 1.272 1_455 S
O13 Co5 2.135 . S
Co14 O15 2.216 . S
Co14 O16 2.091 . S
Co14 O18 2.004 . S
Co14 O24 2.021 . S
Co14 O26 2.137 . S
Co14 O27 2.244 . S
O15 Co14 2.216 . S
O15 C22 1.247 . S
O16 Co14 2.091 . S
O16 C22 1.261 . S
C17 O26 1.247 . S
C17 O27 1.272 . S
O18 Co14 2.004 . S
O18 C23 1.259 . S
Co19 O20 2.061 . S
Co19 O25 2.052 . S
Co19 O27 2.135 . S
O20 Co19 2.061 . S
O20 C23 1.235 . S
C21 O24 1.238 . S
C21 O25 1.241 . S
C22 O15 1.247 . S
C22 O16 1.261 . S
C23 O18 1.259 . S
C23 O20 1.235 . S
O24 Co14 2.021 . S
O24 C21 1.238 . S
O25 Co19 2.052 . S
O25 C21 1.241 . S
O26 Co14 2.137 . S
O26 C17 1.247 . S
O27 Co14 2.244 . S
O27 C17 1.272 . S
O27 Co19 2.135 . S
Co28 O29 2.216 . S
Co28 O30 2.091 . S
Co28 O32 2.004 . S
Co28 O38 2.021 . S
Co28 O40 2.137 . S
Co28 O41 2.244 . S
O29 Co28 2.216 . S
O29 C36 1.247 . S
O30 Co28 2.091 . S
O30 C36 1.261 . S
C31 O40 1.247 . S
C31 O41 1.272 . S
O32 Co28 2.004 . S
O32 C37 1.259 . S
Co33 O34 2.061 . S
Co33 O39 2.052 . S
Co33 O41 2.135 . S
O34 Co33 2.061 . S
O34 C37 1.235 . S
C35 O38 1.238 . S
C35 O39 1.241 . S
C36 O29 1.247 . S
C36 O30 1.261 . S
C37 O32 1.259 . S
C37 O34 1.235 . S
O38 Co28 2.021 . S
O38 C35 1.238 . S
O39 Co33 2.052 . S
O39 C35 1.241 . S
O40 Co28 2.137 . S
O40 C31 1.247 . S
O41 Co28 2.244 . S
O41 C31 1.272 . S
O41 Co33 2.135 . S
Co42 O43 2.216 . S
Co42 O44 2.091 . S
Co42 O46 2.004 1_565 S
Co42 O52 2.021 . S
Co42 O54 2.137 1_565 S
Co42 O55 2.244 . S
O43 Co42 2.216 . S
O43 C50 1.247 . S
O44 Co42 2.091 . S
O44 C50 1.261 . S
C45 O54 1.247 . S
C45 O55 1.272 1_545 S
O46 Co42 2.004 1_545 S
O46 C51 1.259 . S
Co47 O48 2.061 . S
Co47 O53 2.052 . S
Co47 O55 2.135 . S
O48 Co47 2.061 . S
O48 C51 1.235 1_565 S
C49 O52 1.238 . S
C49 O53 1.241 . S
C50 O43 1.247 . S
C50 O44 1.261 . S
C51 O46 1.259 . S
C51 O48 1.235 1_545 S
O52 Co42 2.021 . S
O52 C49 1.238 . S
O53 Co47 2.052 . S
O53 C49 1.241 . S
O54 Co42 2.137 1_545 S
O54 C45 1.247 . S
O55 Co42 2.244 . S
O55 C45 1.272 1_565 S
O55 Co47 2.135 . S
Co56 O57 2.216 . S
Co56 O58 2.091 . S
Co56 O60 2.008 . S
Co56 O66 2.021 . S
Co56 O68 2.137 . S
Co56 O69 2.244 1_655 S
O57 Co56 2.216 . S
O57 C64 1.247 . S
O58 Co56 2.091 . S
O58 C64 1.261 . S
C59 O68 1.247 1_455 S
C59 O69 1.272 . S
O60 Co56 2.008 . S
O60 C65 1.253 1_655 S
Co61 O62 2.061 . S
Co61 O67 2.052 . S
Co61 O69 2.135 . S
O62 Co61 2.061 . S
O62 C65 1.235 . S
C63 O66 1.238 . S
C63 O67 1.241 1_655 S
C64 O57 1.247 . S
C64 O58 1.261 . S
C65 O60 1.253 1_455 S
C65 O62 1.235 . S
O66 Co56 2.021 . S
O66 C63 1.238 . S
O67 Co61 2.052 . S
O67 C63 1.241 1_455 S
O68 Co56 2.137 . S
O68 C59 1.247 1_655 S
O69 Co56 2.244 1_455 S
O69 C59 1.272 . S
O69 Co61 2.135 . S
Co70 O71 2.216 . S
Co70 O72 2.091 . S
Co70 O74 2.004 . S
Co70 O80 2.021 . S
Co70 O82 2.137 . S
Co70 O83 2.244 . S
O71 Co70 2.216 . S
O71 C78 1.247 . S
O72 Co70 2.091 . S
O72 C78 1.261 . S
C73 O82 1.247 . S
C73 O83 1.272 . S
O74 Co70 2.004 . S
O74 C79 1.259 . S
Co75 O76 2.061 . S
Co75 O81 2.052 . S
Co75 O83 2.135 . S
O76 Co75 2.061 . S
O76 C79 1.235 . S
C77 O80 1.238 . S
C77 O81 1.241 . S
C78 O71 1.247 . S
C78 O72 1.261 . S
C79 O74 1.259 . S
C79 O76 1.235 . S
O80 Co70 2.021 . S
O80 C77 1.238 . S
O81 Co75 2.052 . S
O81 C77 1.241 . S
O82 Co70 2.137 . S
O82 C73 1.247 . S
O83 Co70 2.244 . S
O83 C73 1.272 . S
O83 Co75 2.135 . S
Co84 O85 2.216 . S
Co84 O86 2.091 . S
Co84 O88 2.004 . S
Co84 O94 2.021 . S
Co84 O96 2.137 . S
Co84 O97 2.244 . S
O85 Co84 2.216 . S
O85 C92 1.247 . S
O86 Co84 2.091 . S
O86 C92 1.261 . S
C87 O96 1.247 . S
C87 O97 1.272 . S
O88 Co84 2.004 . S
O88 C93 1.259 . S
Co89 O90 2.061 . S
Co89 O95 2.052 . S
Co89 O97 2.135 . S
O90 Co89 2.061 . S
O90 C93 1.235 . S
C91 O94 1.238 . S
C91 O95 1.241 . S
C92 O85 1.247 . S
C92 O86 1.261 . S
C93 O88 1.259 . S
C93 O90 1.235 . S
O94 Co84 2.021 . S
O94 C91 1.238 . S
O95 Co89 2.052 . S
O95 C91 1.241 . S
O96 Co84 2.137 . S
O96 C87 1.247 . S
O97 Co84 2.244 . S
O97 C87 1.272 . S
O97 Co89 2.135 . S
Co98 O99 2.216 . S
Co98 O100 2.091 . S
Co98 O102 2.004 1_545 S
Co98 O108 2.021 . S
Co98 O110 2.137 1_545 S
Co98 O111 2.244 . S
O99 Co98 2.216 . S
O99 C106 1.247 . S
O100 Co98 2.091 . S
O100 C106 1.261 . S
C101 O110 1.247 . S
C101 O111 1.272 1_565 S
O102 Co98 2.004 1_565 S
O102 C107 1.259 . S
Co103 O104 2.061 . S
Co103 O109 2.052 . S
Co103 O111 2.135 . S
O104 Co103 2.061 . S
O104 C107 1.235 1_545 S
C105 O108 1.238 . S
C105 O109 1.241 . S
C106 O99 1.247 . S
C106 O100 1.261 . S
C107 O102 1.259 . S
C107 O104 1.235 1_565 S
O108 Co98 2.021 . S
O108 C105 1.238 . S
O109 Co103 2.052 . S
O109 C105 1.241 . S
O110 Co98 2.137 1_565 S
O110 C101 1.247 . S
O111 Co98 2.244 . S
O111 C101 1.272 1_545 S
O111 Co103 2.135 . S
H112 C130 0.951 . S
H113 C132 0.951 . S
H114 C134 0.950 . S
H115 C135 0.950 . S
H116 C137 0.950 . S
H117 C140 0.950 . S
H118 C141 0.950 . S
H119 C143 0.950 . S
H120 C144 0.950 . S
H121 C145 0.950 1_655 S
H122 C147 0.951 . S
H123 C149 0.950 . S
H124 C150 0.950 . S
H125 C152 0.950 . S
H126 C155 0.950 . S
H127 C156 0.950 . S
H128 C158 0.950 . S
H129 C159 0.950 . S
C130 H112 0.951 . S
C130 C131 1.366 1_455 S
C130 C132 1.388 . S
C131 C130 1.366 1_655 S
C131 C135 1.385 . S
C132 H113 0.951 . S
C132 C130 1.388 . S
C132 C133 1.353 1_455 S
C133 C132 1.353 1_655 S
C133 C134 1.430 . S
C133 C136 1.496 1_655 S
C134 H114 0.950 . S
C134 C133 1.430 . S
C134 C135 1.374 . S
C135 H115 0.950 . S
C135 C131 1.385 . S
C135 C134 1.374 . S
C136 C133 1.496 1_455 S
C136 C137 1.373 1_455 S
C136 C138 1.389 . S
C137 H116 0.950 . S
C137 C136 1.373 1_655 S
C137 C153 1.377 1_556 S
C138 C136 1.389 . S
C138 C139 1.524 . S
C138 C152 1.377 1_556 S
C139 C138 1.524 . S
C139 C140 1.397 . S
C139 C144 1.363 . S
C140 H117 0.950 . S
C140 C139 1.397 . S
C140 C141 1.334 . S
C141 H118 0.950 . S
C141 C140 1.334 . S
C141 C142 1.287 . S
C142 C141 1.287 . S
C142 C143 1.524 . S
C142 H161 0.913 . S
C143 H119 0.950 . S
C143 C142 1.524 . S
C143 C144 1.415 . S
C144 H120 0.950 . S
C144 C139 1.363 . S
C144 C143 1.415 . S
C145 H121 0.950 1_455 S
C145 C146 1.367 . S
C145 C147 1.387 1_455 S
C146 C145 1.367 . S
C146 C150 1.385 . S
C147 H122 0.951 . S
C147 C145 1.387 1_655 S
C147 C148 1.366 1_655 S
C148 C147 1.366 1_455 S
C148 C149 1.414 . S
C148 C151 1.499 . S
C149 H123 0.950 . S
C149 C148 1.414 . S
C149 C150 1.374 . S
C150 H124 0.950 . S
C150 C146 1.385 . S
C150 C149 1.374 . S
C151 C148 1.499 . S
C151 C152 1.373 . S
C151 C153 1.389 1_455 S
C152 H125 0.950 . S
C152 C138 1.377 1_554 S
C152 C151 1.373 . S
C153 C137 1.377 1_554 S
C153 C151 1.389 1_655 S
C153 C154 1.524 . S
C154 C153 1.524 . S
C154 C155 1.397 . S
C154 C159 1.363 . S
C155 H126 0.950 . S
C155 C154 1.397 . S
C155 C156 1.334 . S
C156 H127 0.950 . S
C156 C155 1.334 . S
C156 C157 1.287 . S
C157 C156 1.287 . S
C157 C158 1.524 . S
C157 H160 0.999 . S
C158 H128 0.950 . S
C158 C157 1.524 . S
C158 C159 1.415 . S
C159 H129 0.950 . S
C159 C154 1.363 . S
C159 C158 1.415 . S
H160 C157 0.999 . S
H161 C142 0.913 . S
H162 C180 0.951 . S
H163 C182 0.951 . S
H164 C184 0.950 . S
H165 C185 0.950 . S
H166 C187 0.950 . S
H167 C190 0.950 . S
H168 C191 0.950 . S
H169 C193 0.950 . S
H170 C194 0.950 . S
H171 C195 0.951 . S
H172 C197 0.951 . S
H173 C199 0.950 . S
H174 C200 0.950 . S
H175 C202 0.950 . S
H176 C205 0.950 . S
H177 C206 0.950 . S
H178 C208 0.950 . S
H179 C209 0.950 . S
C180 H162 0.951 . S
C180 C181 1.366 . S
C180 C182 1.388 . S
C181 C180 1.366 . S
C181 C185 1.385 . S
C182 H163 0.951 . S
C182 C180 1.388 . S
C182 C183 1.366 . S
C183 C182 1.366 . S
C183 C184 1.414 . S
C183 C186 1.499 . S
C184 H164 0.950 . S
C184 C183 1.414 . S
C184 C185 1.374 . S
C185 H165 0.950 . S
C185 C181 1.385 . S
C185 C184 1.374 . S
C186 C183 1.499 . S
C186 C187 1.373 . S
C186 C188 1.389 . S
C187 H166 0.950 . S
C187 C186 1.373 . S
C187 C203 1.377 . S
C188 C186 1.389 . S
C188 C189 1.524 . S
C188 C202 1.377 . S
C189 C188 1.524 . S
C189 C190 1.397 . S
C189 C194 1.363 . S
C190 H167 0.950 . S
C190 C189 1.397 . S
C190 C191 1.334 . S
C191 H168 0.950 . S
C191 C190 1.334 . S
C191 C192 1.287 . S
C192 C191 1.287 . S
C192 C193 1.524 . S
C192 H211 0.913 . S
C193 H169 0.950 . S
C193 C192 1.524 . S
C193 C194 1.415 . S
C194 H170 0.950 . S
C194 C189 1.363 . S
C194 C193 1.415 . S
C195 H171 0.951 . S
C195 C196 1.366 . S
C195 C197 1.388 . S
C196 C195 1.366 . S
C196 C200 1.385 . S
C197 H172 0.951 . S
C197 C195 1.388 . S
C197 C198 1.366 . S
C198 C197 1.366 . S
C198 C199 1.414 . S
C198 C201 1.499 . S
C199 H173 0.950 . S
C199 C198 1.414 . S
C199 C200 1.374 . S
C200 H174 0.950 . S
C200 C196 1.385 . S
C200 C199 1.374 . S
C201 C198 1.499 . S
C201 C202 1.373 . S
C201 C203 1.389 . S
C202 H175 0.950 . S
C202 C188 1.377 . S
C202 C201 1.373 . S
C203 C187 1.377 . S
C203 C201 1.389 . S
C203 C204 1.524 . S
C204 C203 1.524 . S
C204 C205 1.397 . S
C204 C209 1.363 . S
C205 H176 0.950 . S
C205 C204 1.397 . S
C205 C206 1.334 . S
C206 H177 0.950 . S
C206 C205 1.334 . S
C206 C207 1.287 . S
C207 C206 1.287 . S
C207 C208 1.524 . S
C207 H210 0.999 . S
C208 H178 0.950 . S
C208 C207 1.524 . S
C208 C209 1.415 . S
C209 H179 0.950 . S
C209 C204 1.363 . S
C209 C208 1.415 . S
H210 C207 0.999 . S
H211 C192 0.913 . S
H212 C230 0.951 . S
H213 C232 0.951 . S
H214 C234 0.950 . S
H215 C235 0.950 . S
H216 C237 0.950 . S
H217 C240 0.950 . S
H218 C241 0.950 . S
H219 C243 0.950 . S
H220 C244 0.950 . S
H221 C245 0.951 . S
H222 C247 0.951 . S
H223 C249 0.950 . S
H224 C250 0.950 . S
H225 C252 0.954 . S
H226 C255 0.950 . S
H227 C256 0.950 . S
H228 C258 0.950 . S
H229 C259 0.950 . S
C230 H212 0.951 . S
C230 C231 1.366 . S
C230 C232 1.388 . S
C231 C230 1.366 . S
C231 C235 1.385 . S
C232 H213 0.951 . S
C232 C230 1.388 . S
C232 C233 1.366 . S
C233 C232 1.366 . S
C233 C234 1.414 . S
C233 C236 1.499 . S
C234 H214 0.950 . S
C234 C233 1.414 . S
C234 C235 1.374 . S
C235 H215 0.950 . S
C235 C231 1.385 . S
C235 C234 1.374 . S
C236 C233 1.499 . S
C236 C237 1.373 1_554 S
C236 C238 1.389 1_565 S
C237 H216 0.950 . S
C237 C236 1.373 1_556 S
C237 C253 1.377 1_565 S
C238 C236 1.389 1_545 S
C238 C239 1.524 . S
C238 C252 1.393 . S
C239 C238 1.524 . S
C239 C240 1.397 . S
C239 C244 1.363 . S
C240 H217 0.950 . S
C240 C239 1.397 . S
C240 C241 1.334 . S
C241 H218 0.950 . S
C241 C240 1.334 . S
C241 C242 1.287 . S
C242 C241 1.287 . S
C242 C243 1.524 . S
C242 H261 0.913 . S
C243 H219 0.950 . S
C243 C242 1.524 . S
C243 C244 1.415 . S
C244 H220 0.950 . S
C244 C239 1.363 . S
C244 C243 1.415 . S
C245 H221 0.951 . S
C245 C246 1.366 . S
C245 C247 1.388 . S
C246 C245 1.366 . S
C246 C250 1.385 . S
C247 H222 0.951 . S
C247 C245 1.388 . S
C247 C248 1.366 . S
C248 C247 1.366 . S
C248 C249 1.414 . S
C248 C251 1.499 . S
C249 H223 0.950 . S
C249 C248 1.414 . S
C249 C250 1.374 . S
C250 H224 0.950 . S
C250 C246 1.385 . S
C250 C249 1.374 . S
C251 C248 1.499 . S
C251 C252 1.354 1_556 S
C251 C253 1.389 . S
C252 H225 0.954 . S
C252 C238 1.393 . S
C252 C251 1.354 1_554 S
C253 C237 1.377 1_545 S
C253 C251 1.389 . S
C253 C254 1.524 1_545 S
C254 C253 1.524 1_565 S
C254 C255 1.397 . S
C254 C259 1.363 . S
C255 H226 0.950 . S
C255 C254 1.397 . S
C255 C256 1.334 . S
C256 H227 0.950 . S
C256 C255 1.334 . S
C256 C257 1.287 . S
C257 C256 1.287 . S
C257 C258 1.524 . S
C257 H260 0.999 . S
C258 H228 0.950 . S
C258 C257 1.524 . S
C258 C259 1.415 . S
C259 H229 0.950 . S
C259 C254 1.363 . S
C259 C258 1.415 . S
H260 C257 0.999 . S
H261 C242 0.913 . S
H262 C280 0.951 . S
H263 C282 0.951 . S
H264 C284 0.950 1_565 S
H265 C285 0.950 . S
H266 C287 0.950 . S
H267 C290 0.950 . S
H268 C291 0.950 . S
H269 C293 0.950 . S
H270 C294 0.950 . S
H271 C295 0.951 . S
H272 C297 0.951 . S
H273 C299 0.950 1_545 S
H274 C300 0.950 . S
H275 C302 0.953 . S
H276 C305 0.950 . S
H277 C306 0.950 . S
H278 C308 0.950 . S
H279 C309 0.950 . S
C280 H262 0.951 . S
C280 C281 1.366 . S
C280 C282 1.388 . S
C281 C280 1.366 . S
C281 C285 1.385 . S
C282 H263 0.951 . S
C282 C280 1.388 . S
C282 C283 1.366 . S
C283 C282 1.366 . S
C283 C284 1.414 . S
C283 C286 1.499 . S
C284 H264 0.950 1_545 S
C284 C283 1.414 . S
C284 C285 1.374 . S
C285 H265 0.950 . S
C285 C281 1.385 . S
C285 C284 1.374 . S
C286 C283 1.499 . S
C286 C287 1.373 1_545 S
C286 C288 1.389 . S
C287 H266 0.950 . S
C287 C286 1.373 1_565 S
C287 C303 1.377 1_655 S
C288 C286 1.389 . S
C288 C289 1.524 . S
C288 C302 1.364 1_655 S
C289 C288 1.524 . S
C289 C290 1.397 . S
C289 C294 1.363 . S
C290 H267 0.950 . S
C290 C289 1.397 . S
C290 C291 1.334 . S
C291 H268 0.950 . S
C291 C290 1.334 . S
C291 C292 1.287 . S
C292 C291 1.287 . S
C292 C293 1.524 . S
C292 H311 0.913 . S
C293 H269 0.950 . S
C293 C292 1.524 . S
C293 C294 1.415 . S
C294 H270 0.950 . S
C294 C289 1.363 . S
C294 C293 1.415 . S
C295 H271 0.951 . S
C295 C296 1.366 . S
C295 C297 1.388 . S
C296 C295 1.366 . S
C296 C300 1.385 . S
C297 H272 0.951 . S
C297 C295 1.388 . S
C297 C298 1.366 . S
C298 C297 1.366 . S
C298 C299 1.414 . S
C298 C301 1.499 . S
C299 H273 0.950 1_565 S
C299 C298 1.414 . S
C299 C300 1.374 . S
C300 H274 0.950 . S
C300 C296 1.385 . S
C300 C299 1.374 . S
C301 C298 1.499 . S
C301 C302 1.383 1_565 S
C301 C303 1.389 . S
C302 H275 0.953 . S
C302 C288 1.364 1_455 S
C302 C301 1.383 1_545 S
C303 C287 1.377 1_455 S
C303 C301 1.389 . S
C303 C304 1.524 . S
C304 C303 1.524 . S
C304 C305 1.397 . S
C304 C309 1.363 . S
C305 H276 0.950 . S
C305 C304 1.397 . S
C305 C306 1.334 . S
C306 H277 0.950 . S
C306 C305 1.334 . S
C306 C307 1.287 . S
C307 C306 1.287 . S
C307 C308 1.524 . S
C307 H310 0.999 . S
C308 H278 0.950 . S
C308 C307 1.524 . S
C308 C309 1.415 . S
C309 H279 0.950 . S
C309 C304 1.363 . S
C309 C308 1.415 . S
H310 C307 0.999 . S
H311 C292 0.913 . S
H312 C330 0.951 . S
H313 C332 0.951 . S
H314 C334 0.950 . S
H315 C335 0.950 . S
H316 C337 0.950 . S
H317 C340 0.950 . S
H318 C341 0.950 . S
H319 C343 0.950 . S
H320 C344 0.950 . S
H321 C345 0.951 . S
H322 C347 0.951 . S
H323 C349 0.950 . S
H324 C350 0.950 . S
H325 C352 0.950 . S
H326 C355 0.950 . S
H327 C356 0.950 . S
H328 C358 0.950 . S
H329 C359 0.950 . S
C330 H312 0.951 . S
C330 C331 1.366 . S
C330 C332 1.388 . S
C331 C330 1.366 . S
C331 C335 1.385 . S
C332 H313 0.951 . S
C332 C330 1.388 . S
C332 C333 1.366 . S
C333 C332 1.366 . S
C333 C334 1.414 . S
C333 C336 1.499 . S
C334 H314 0.950 . S
C334 C333 1.414 . S
C334 C335 1.374 . S
C335 H315 0.950 . S
C335 C331 1.385 . S
C335 C334 1.374 . S
C336 C333 1.499 . S
C336 C337 1.373 . S
C336 C338 1.389 . S
C337 H316 0.950 . S
C337 C336 1.373 . S
C337 C353 1.377 . S
C338 C336 1.389 . S
C338 C339 1.524 . S
C338 C352 1.377 . S
C339 C338 1.524 . S
C339 C340 1.397 . S
C339 C344 1.363 . S
C340 H317 0.950 . S
C340 C339 1.397 . S
C340 C341 1.334 . S
C341 H318 0.950 . S
C341 C340 1.334 . S
C341 C342 1.287 . S
C342 C341 1.287 . S
C342 C343 1.524 . S
C342 H361 0.913 . S
C343 H319 0.950 . S
C343 C342 1.524 . S
C343 C344 1.415 . S
C344 H320 0.950 . S
C344 C339 1.363 . S
C344 C343 1.415 . S
C345 H321 0.951 . S
C345 C346 1.366 . S
C345 C347 1.388 . S
C346 C345 1.366 . S
C346 C350 1.385 . S
C347 H322 0.951 . S
C347 C345 1.388 . S
C347 C348 1.366 . S
C348 C347 1.366 . S
C348 C349 1.414 . S
C348 C351 1.499 . S
C349 H323 0.950 . S
C349 C348 1.414 . S
C349 C350 1.374 . S
C350 H324 0.950 . S
C350 C346 1.385 . S
C350 C349 1.374 . S
C351 C348 1.499 . S
C351 C352 1.373 . S
C351 C353 1.389 . S
C352 H325 0.950 . S
C352 C338 1.377 . S
C352 C351 1.373 . S
C353 C337 1.377 . S
C353 C351 1.389 . S
C353 C354 1.524 . S
C354 C353 1.524 . S
C354 C355 1.397 . S
C354 C359 1.363 . S
C355 H326 0.950 . S
C355 C354 1.397 . S
C355 C356 1.334 . S
C356 H327 0.950 . S
C356 C355 1.334 . S
C356 C357 1.287 . S
C357 C356 1.287 . S
C357 C358 1.524 . S
C357 H360 0.999 . S
C358 H328 0.950 . S
C358 C357 1.524 . S
C358 C359 1.415 . S
C359 H329 0.950 . S
C359 C354 1.363 . S
C359 C358 1.415 . S
H360 C357 0.999 . S
H361 C342 0.913 . S
H362 C380 0.951 . S
H363 C382 0.951 . S
H364 C384 0.950 . S
H365 C385 0.950 . S
H366 C387 0.950 . S
H367 C390 0.950 . S
H368 C391 0.950 . S
H369 C393 0.950 . S
H370 C394 0.950 . S
H371 C395 0.951 . S
H372 C397 0.951 . S
H373 C399 0.950 . S
H374 C400 0.950 . S
H375 C402 0.950 . S
H376 C405 0.950 . S
H377 C406 0.950 . S
H378 C408 0.950 . S
H379 C409 0.950 . S
C380 H362 0.951 . S
C380 C381 1.366 . S
C380 C382 1.388 . S
C381 C380 1.366 . S
C381 C385 1.385 . S
C382 H363 0.951 . S
C382 C380 1.388 . S
C382 C383 1.366 . S
C383 C382 1.366 . S
C383 C384 1.414 . S
C383 C386 1.499 . S
C384 H364 0.950 . S
C384 C383 1.414 . S
C384 C385 1.374 . S
C385 H365 0.950 . S
C385 C381 1.385 . S
C385 C384 1.374 . S
C386 C383 1.499 . S
C386 C387 1.373 . S
C386 C388 1.389 . S
C387 H366 0.950 . S
C387 C386 1.373 . S
C387 C403 1.377 . S
C388 C386 1.389 . S
C388 C389 1.524 . S
C388 C402 1.377 . S
C389 C388 1.524 . S
C389 C390 1.397 . S
C389 C394 1.363 . S
C390 H367 0.950 . S
C390 C389 1.397 . S
C390 C391 1.334 . S
C391 H368 0.950 . S
C391 C390 1.334 . S
C391 C392 1.287 . S
C392 C391 1.287 . S
C392 C393 1.524 . S
C392 H411 0.913 . S
C393 H369 0.950 . S
C393 C392 1.524 . S
C393 C394 1.415 . S
C394 H370 0.950 . S
C394 C389 1.363 . S
C394 C393 1.415 . S
C395 H371 0.951 . S
C395 C396 1.366 . S
C395 C397 1.388 . S
C396 C395 1.366 . S
C396 C400 1.385 . S
C397 H372 0.951 . S
C397 C395 1.388 . S
C397 C398 1.366 . S
C398 C397 1.366 . S
C398 C399 1.414 . S
C398 C401 1.499 . S
C399 H373 0.950 . S
C399 C398 1.414 . S
C399 C400 1.374 . S
C400 H374 0.950 . S
C400 C396 1.385 . S
C400 C399 1.374 . S
C401 C398 1.499 . S
C401 C402 1.373 . S
C401 C403 1.389 . S
C402 H375 0.950 . S
C402 C388 1.377 . S
C402 C401 1.373 . S
C403 C387 1.377 . S
C403 C401 1.389 . S
C403 C404 1.524 . S
C404 C403 1.524 . S
C404 C405 1.397 . S
C404 C409 1.363 . S
C405 H376 0.950 . S
C405 C404 1.397 . S
C405 C406 1.334 . S
C406 H377 0.950 . S
C406 C405 1.334 . S
C406 C407 1.287 . S
C407 C406 1.287 . S
C407 C408 1.524 . S
C407 H410 0.999 . S
C408 H378 0.950 . S
C408 C407 1.524 . S
C408 C409 1.415 . S
C409 H379 0.950 . S
C409 C404 1.363 . S
C409 C408 1.415 . S
H410 C407 0.999 . S
H411 C392 0.913 . S
H412 C430 0.951 . S
H413 C432 0.951 . S
H414 C434 0.950 . S
H415 C435 0.950 . S
H416 C437 0.950 . S
H417 C440 0.950 . S
H418 C441 0.950 . S
H419 C443 0.950 . S
H420 C444 0.950 . S
H421 C445 0.951 . S
H422 C447 0.951 . S
H423 C449 0.950 . S
H424 C450 0.950 . S
H425 C452 0.950 . S
H426 C455 0.950 . S
H427 C456 0.950 . S
H428 C458 0.950 . S
H429 C459 0.950 . S
C430 H412 0.951 . S
C430 C431 1.366 . S
C430 C432 1.388 . S
C431 C430 1.366 . S
C431 C435 1.385 . S
C432 H413 0.951 . S
C432 C430 1.388 . S
C432 C433 1.366 . S
C433 C432 1.366 . S
C433 C434 1.414 . S
C433 C436 1.499 . S
C434 H414 0.950 . S
C434 C433 1.414 . S
C434 C435 1.374 . S
C435 H415 0.950 . S
C435 C431 1.385 . S
C435 C434 1.374 . S
C436 C433 1.499 . S
C436 C437 1.373 . S
C436 C438 1.389 . S
C437 H416 0.950 . S
C437 C436 1.373 . S
C437 C453 1.377 . S
C438 C436 1.389 . S
C438 C439 1.524 . S
C438 C452 1.377 . S
C439 C438 1.524 . S
C439 C440 1.397 . S
C439 C444 1.363 . S
C440 H417 0.950 . S
C440 C439 1.397 . S
C440 C441 1.334 . S
C441 H418 0.950 . S
C441 C440 1.334 . S
C441 C442 1.287 . S
C442 C441 1.287 . S
C442 C443 1.524 . S
C442 H461 0.913 . S
C443 H419 0.950 . S
C443 C442 1.524 . S
C443 C444 1.415 . S
C444 H420 0.950 . S
C444 C439 1.363 . S
C444 C443 1.415 . S
C445 H421 0.951 . S
C445 C446 1.366 . S
C445 C447 1.388 . S
C446 C445 1.366 . S
C446 C450 1.385 . S
C447 H422 0.951 . S
C447 C445 1.388 . S
C447 C448 1.366 . S
C448 C447 1.366 . S
C448 C449 1.414 . S
C448 C451 1.499 . S
C449 H423 0.950 . S
C449 C448 1.414 . S
C449 C450 1.374 . S
C450 H424 0.950 . S
C450 C446 1.385 . S
C450 C449 1.374 . S
C451 C448 1.499 . S
C451 C452 1.373 . S
C451 C453 1.389 . S
C452 H425 0.950 . S
C452 C438 1.377 . S
C452 C451 1.373 . S
C453 C437 1.377 . S
C453 C451 1.389 . S
C453 C454 1.524 . S
C454 C453 1.524 . S
C454 C455 1.397 . S
C454 C459 1.363 . S
C455 H426 0.950 . S
C455 C454 1.397 . S
C455 C456 1.334 . S
C456 H427 0.950 . S
C456 C455 1.334 . S
C456 C457 1.287 . S
C457 C456 1.287 . S
C457 C458 1.524 . S
C457 H460 0.999 . S
C458 H428 0.950 . S
C458 C457 1.524 . S
C458 C459 1.415 . S
C459 H429 0.950 . S
C459 C454 1.363 . S
C459 C458 1.415 . S
H460 C457 0.999 . S
H461 C442 0.913 . S
H462 C480 0.951 . S
H463 C482 0.951 . S
H464 C484 0.950 . S
H465 C485 0.950 . S
H466 C487 0.950 . S
H467 C490 0.950 . S
H468 C491 0.950 . S
H469 C493 0.950 . S
H470 C494 0.950 . S
H471 C495 0.951 . S
H472 C497 0.951 . S
H473 C499 0.950 . S
H474 C500 0.950 . S
H475 C502 0.950 . S
H476 C505 0.950 . S
H477 C506 0.950 . S
H478 C508 0.950 . S
H479 C509 0.950 . S
C480 H462 0.951 . S
C480 C481 1.366 . S
C480 C482 1.388 . S
C481 C480 1.366 . S
C481 C485 1.385 . S
C482 H463 0.951 . S
C482 C480 1.388 . S
C482 C483 1.366 . S
C483 C482 1.366 . S
C483 C484 1.414 . S
C483 C486 1.499 . S
C484 H464 0.950 . S
C484 C483 1.414 . S
C484 C485 1.374 . S
C485 H465 0.950 . S
C485 C481 1.385 . S
C485 C484 1.374 . S
C486 C483 1.499 . S
C486 C487 1.373 . S
C486 C488 1.389 . S
C487 H466 0.950 . S
C487 C486 1.373 . S
C487 C503 1.377 . S
C488 C486 1.389 . S
C488 C489 1.524 . S
C488 C502 1.377 . S
C489 C488 1.524 . S
C489 C490 1.397 . S
C489 C494 1.363 . S
C490 H467 0.950 . S
C490 C489 1.397 . S
C490 C491 1.334 . S
C491 H468 0.950 . S
C491 C490 1.334 . S
C491 C492 1.287 . S
C492 C491 1.287 . S
C492 C493 1.524 . S
C492 H511 0.913 . S
C493 H469 0.950 . S
C493 C492 1.524 . S
C493 C494 1.415 . S
C494 H470 0.950 . S
C494 C489 1.363 . S
C494 C493 1.415 . S
C495 H471 0.951 . S
C495 C496 1.366 . S
C495 C497 1.388 . S
C496 C495 1.366 . S
C496 C500 1.385 . S
C497 H472 0.951 . S
C497 C495 1.388 . S
C497 C498 1.366 . S
C498 C497 1.366 . S
C498 C499 1.414 . S
C498 C501 1.499 . S
C499 H473 0.950 . S
C499 C498 1.414 . S
C499 C500 1.374 . S
C500 H474 0.950 . S
C500 C496 1.385 . S
C500 C499 1.374 . S
C501 C498 1.499 . S
C501 C502 1.373 . S
C501 C503 1.389 . S
C502 H475 0.950 . S
C502 C488 1.377 . S
C502 C501 1.373 . S
C503 C487 1.377 . S
C503 C501 1.389 . S
C503 C504 1.524 . S
C504 C503 1.524 . S
C504 C505 1.397 . S
C504 C509 1.363 . S
C505 H476 0.950 . S
C505 C504 1.397 . S
C505 C506 1.334 . S
C506 H477 0.950 . S
C506 C505 1.334 . S
C506 C507 1.287 . S
C507 C506 1.287 . S
C507 C508 1.524 . S
C507 H510 0.999 . S
C508 H478 0.950 . S
C508 C507 1.524 . S
C508 C509 1.415 . S
C509 H479 0.950 . S
C509 C504 1.363 . S
C509 C508 1.415 . S
H510 C507 0.999 . S
H511 C492 0.913 . S
H512 C530 0.951 . S
H513 C532 0.951 . S
H514 C534 0.950 . S
H515 C535 0.950 . S
H516 C537 0.950 . S
H517 C540 0.950 . S
H518 C541 0.950 . S
H519 C543 0.950 . S
H520 C544 0.950 . S
H521 C545 0.951 . S
H522 C547 0.951 . S
H523 C549 0.950 . S
H524 C550 0.950 1_455 S
H525 C552 0.950 . S
H526 C555 0.950 . S
H527 C556 0.950 . S
H528 C558 0.950 . S
H529 C559 0.950 . S
C530 H512 0.951 . S
C530 C531 1.366 . S
C530 C532 1.388 . S
C531 C530 1.366 . S
C531 C535 1.385 . S
C532 H513 0.951 . S
C532 C530 1.388 . S
C532 C533 1.366 . S
C533 C532 1.366 . S
C533 C534 1.414 . S
C533 C536 1.499 . S
C534 H514 0.950 . S
C534 C533 1.414 . S
C534 C535 1.374 . S
C535 H515 0.950 . S
C535 C531 1.385 . S
C535 C534 1.374 . S
C536 C533 1.499 . S
C536 C537 1.373 . S
C536 C538 1.389 . S
C537 H516 0.950 . S
C537 C536 1.373 . S
C537 C553 1.377 . S
C538 C536 1.389 . S
C538 C539 1.524 . S
C538 C552 1.377 . S
C539 C538 1.524 . S
C539 C540 1.397 . S
C539 C544 1.363 . S
C540 H517 0.950 . S
C540 C539 1.397 . S
C540 C541 1.334 . S
C541 H518 0.950 . S
C541 C540 1.334 . S
C541 C542 1.287 . S
C542 C541 1.287 . S
C542 C543 1.524 . S
C542 H561 0.913 . S
C543 H519 0.950 . S
C543 C542 1.524 . S
C543 C544 1.415 . S
C544 H520 0.950 . S
C544 C539 1.363 . S
C544 C543 1.415 . S
C545 H521 0.951 . S
C545 C546 1.366 . S
C545 C547 1.388 . S
C546 C545 1.366 . S
C546 C550 1.385 . S
C547 H522 0.951 . S
C547 C545 1.388 . S
C547 C548 1.366 . S
C548 C547 1.366 . S
C548 C549 1.414 . S
C548 C551 1.499 . S
C549 H523 0.950 . S
C549 C548 1.414 . S
C549 C550 1.374 . S
C550 H524 0.950 1_655 S
C550 C546 1.385 . S
C550 C549 1.374 . S
C551 C548 1.499 . S
C551 C552 1.373 . S
C551 C553 1.389 . S
C552 H525 0.950 . S
C552 C538 1.377 . S
C552 C551 1.373 . S
C553 C537 1.377 . S
C553 C551 1.389 . S
C553 C554 1.524 . S
C554 C553 1.524 . S
C554 C555 1.397 . S
C554 C559 1.363 . S
C555 H526 0.950 . S
C555 C554 1.397 . S
C555 C556 1.334 . S
C556 H527 0.950 . S
C556 C555 1.334 . S
C556 C557 1.287 . S
C557 C556 1.287 . S
C557 C558 1.524 . S
C557 H560 0.999 . S
C558 H528 0.950 . S
C558 C557 1.524 . S
C558 C559 1.415 . S
C559 H529 0.950 . S
C559 C554 1.363 . S
C559 C558 1.415 . S
H560 C557 0.999 . S
H561 C542 0.913 . S
H562 C580 0.951 . S
H563 C582 0.951 . S
H564 C584 0.950 . S
H565 C585 0.950 . S
H566 C587 0.950 . S
H567 C590 0.950 . S
H568 C591 0.950 . S
H569 C593 0.950 . S
H570 C594 0.950 . S
H571 C595 0.951 . S
H572 C597 0.951 . S
H573 C599 0.950 . S
H574 C600 0.950 . S
H575 C602 0.950 . S
H576 C605 0.950 . S
H577 C606 0.950 . S
H578 C608 0.950 . S
H579 C609 0.950 . S
C580 H562 0.951 . S
C580 C581 1.366 . S
C580 C582 1.388 . S
C581 C580 1.366 . S
C581 C585 1.385 . S
C582 H563 0.951 . S
C582 C580 1.388 . S
C582 C583 1.366 . S
C583 C582 1.366 . S
C583 C584 1.414 . S
C583 C586 1.499 . S
C584 H564 0.950 . S
C584 C583 1.414 . S
C584 C585 1.374 . S
C585 H565 0.950 . S
C585 C581 1.385 . S
C585 C584 1.374 . S
C586 C583 1.499 . S
C586 C587 1.373 . S
C586 C588 1.389 . S
C587 H566 0.950 . S
C587 C586 1.373 . S
C587 C603 1.377 . S
C588 C586 1.389 . S
C588 C589 1.524 . S
C588 C602 1.377 . S
C589 C588 1.524 . S
C589 C590 1.397 . S
C589 C594 1.363 . S
C590 H567 0.950 . S
C590 C589 1.397 . S
C590 C591 1.334 . S
C591 H568 0.950 . S
C591 C590 1.334 . S
C591 C592 1.287 . S
C592 C591 1.287 . S
C592 C593 1.524 . S
C592 H611 0.913 . S
C593 H569 0.950 . S
C593 C592 1.524 . S
C593 C594 1.415 . S
C594 H570 0.950 . S
C594 C589 1.363 . S
C594 C593 1.415 . S
C595 H571 0.951 . S
C595 C596 1.366 . S
C595 C597 1.388 . S
C596 C595 1.366 . S
C596 C600 1.385 . S
C597 H572 0.951 . S
C597 C595 1.388 . S
C597 C598 1.366 . S
C598 C597 1.366 . S
C598 C599 1.414 . S
C598 C601 1.499 . S
C599 H573 0.950 . S
C599 C598 1.414 . S
C599 C600 1.374 . S
C600 H574 0.950 . S
C600 C596 1.385 . S
C600 C599 1.374 . S
C601 C598 1.499 . S
C601 C602 1.373 . S
C601 C603 1.389 . S
C602 H575 0.950 . S
C602 C588 1.377 . S
C602 C601 1.373 . S
C603 C587 1.377 . S
C603 C601 1.389 . S
C603 C604 1.524 . S
C604 C603 1.524 . S
C604 C605 1.397 . S
C604 C609 1.363 . S
C605 H576 0.950 . S
C605 C604 1.397 . S
C605 C606 1.334 . S
C606 H577 0.950 . S
C606 C605 1.334 . S
C606 C607 1.287 . S
C607 C606 1.287 . S
C607 C608 1.524 . S
C607 H610 0.999 . S
C608 H578 0.950 . S
C608 C607 1.524 . S
C608 C609 1.415 . S
C609 H579 0.950 . S
C609 C604 1.363 . S
C609 C608 1.415 . S
H610 C607 0.999 . S
H611 C592 0.913 . S
H612 C630 0.951 . S
H613 C632 0.951 . S
H614 C634 0.950 . S
H615 C635 0.950 . S
H616 C637 0.950 . S
H617 C640 0.950 . S
H618 C641 0.950 . S
H619 C643 0.950 . S
H620 C644 0.972 . S
H621 C645 0.951 . S
H622 C647 0.951 . S
H623 C649 0.966 . S
H624 C650 0.950 . S
H625 C652 0.950 . S
H626 C655 0.950 . S
H627 C656 0.950 . S
H628 C658 0.950 . S
H629 C659 0.950 . S
C630 H612 0.951 . S
C630 C631 1.366 . S
C630 C632 1.388 . S
C631 C630 1.366 . S
C631 C635 1.385 . S
C632 H613 0.951 . S
C632 C630 1.388 . S
C632 C633 1.366 . S
C633 C632 1.366 . S
C633 C634 1.414 . S
C633 C636 1.499 . S
C634 H614 0.950 . S
C634 C633 1.414 . S
C634 C635 1.374 . S
C635 H615 0.950 . S
C635 C631 1.385 . S
C635 C634 1.374 . S
C636 C633 1.499 . S
C636 C637 1.373 . S
C636 C638 1.389 . S
C637 H616 0.950 . S
C637 C636 1.373 . S
C637 C653 1.377 . S
C638 C636 1.389 . S
C638 C639 1.524 . S
C638 C652 1.377 . S
C639 C638 1.524 . S
C639 C640 1.397 . S
C639 C644 1.331 1_565 S
C640 H617 0.950 . S
C640 C639 1.397 . S
C640 C641 1.334 . S
C641 H618 0.950 . S
C641 C640 1.334 . S
C641 C642 1.287 . S
C642 C641 1.287 . S
C642 C643 1.524 1_565 S
C642 H661 0.913 . S
C643 H619 0.950 . S
C643 C642 1.524 1_545 S
C643 C644 1.426 . S
C644 H620 0.972 . S
C644 C639 1.331 1_545 S
C644 C643 1.426 . S
C645 H621 0.951 . S
C645 C646 1.366 . S
C645 C647 1.388 . S
C646 C645 1.366 . S
C646 C650 1.385 1_565 S
C647 H622 0.951 . S
C647 C645 1.388 . S
C647 C648 1.366 . S
C648 C647 1.366 . S
C648 C649 1.392 1_565 S
C648 C651 1.499 . S
C649 H623 0.966 . S
C649 C648 1.392 1_545 S
C649 C650 1.381 . S
C650 H624 0.950 . S
C650 C646 1.385 1_545 S
C650 C649 1.381 . S
C651 C648 1.499 . S
C651 C652 1.373 . S
C651 C653 1.389 . S
C652 H625 0.950 . S
C652 C638 1.377 . S
C652 C651 1.373 . S
C653 C637 1.377 . S
C653 C651 1.389 . S
C653 C654 1.524 . S
C654 C653 1.524 . S
C654 C655 1.397 . S
C654 C659 1.363 . S
C655 H626 0.950 . S
C655 C654 1.397 . S
C655 C656 1.334 . S
C656 H627 0.950 . S
C656 C655 1.334 . S
C656 C657 1.287 . S
C657 C656 1.287 . S
C657 C658 1.524 . S
C657 H660 0.999 . S
C658 H628 0.950 . S
C658 C657 1.524 . S
C658 C659 1.415 . S
C659 H629 0.950 . S
C659 C654 1.363 . S
C659 C658 1.415 . S
H660 C657 0.999 . S
H661 C642 0.913 . S
H662 C680 0.951 . S
H663 C682 0.951 . S
H664 C684 0.950 . S
H665 C685 0.950 . S
H666 C687 0.950 . S
H667 C690 0.950 . S
H668 C691 0.950 . S
H669 C693 0.950 . S
H670 C694 0.950 1_455 S
H671 C695 0.951 . S
H672 C697 0.951 . S
H673 C699 0.950 . S
H674 C700 0.950 . S
H675 C702 0.950 . S
H676 C705 0.950 . S
H677 C706 0.950 . S
H678 C708 0.950 . S
H679 C709 0.950 . S
C680 H662 0.951 . S
C680 C681 1.366 . S
C680 C682 1.388 . S
C681 C680 1.366 . S
C681 C685 1.385 . S
C682 H663 0.951 . S
C682 C680 1.388 . S
C682 C683 1.366 . S
C683 C682 1.366 . S
C683 C684 1.414 . S
C683 C686 1.499 . S
C684 H664 0.950 . S
C684 C683 1.414 . S
C684 C685 1.374 . S
C685 H665 0.950 . S
C685 C681 1.385 . S
C685 C684 1.374 . S
C686 C683 1.499 . S
C686 C687 1.373 . S
C686 C688 1.389 . S
C687 H666 0.950 . S
C687 C686 1.373 . S
C687 C703 1.377 . S
C688 C686 1.389 . S
C688 C689 1.524 1_455 S
C688 C702 1.377 . S
C689 C688 1.524 1_655 S
C689 C690 1.397 . S
C689 C694 1.363 . S
C690 H667 0.950 . S
C690 C689 1.397 . S
C690 C691 1.334 . S
C691 H668 0.950 . S
C691 C690 1.334 . S
C691 C692 1.287 . S
C692 C691 1.287 . S
C692 C693 1.524 . S
C692 H711 0.913 . S
C693 H669 0.950 . S
C693 C692 1.524 . S
C693 C694 1.415 . S
C694 H670 0.950 1_655 S
C694 C689 1.363 . S
C694 C693 1.415 . S
C695 H671 0.951 . S
C695 C696 1.366 . S
C695 C697 1.388 . S
C696 C695 1.366 . S
C696 C700 1.385 . S
C697 H672 0.951 . S
C697 C695 1.388 . S
C697 C698 1.366 . S
C698 C697 1.366 . S
C698 C699 1.414 . S
C698 C701 1.499 . S
C699 H673 0.950 . S
C699 C698 1.414 . S
C699 C700 1.374 . S
C700 H674 0.950 . S
C700 C696 1.385 . S
C700 C699 1.374 . S
C701 C698 1.499 . S
C701 C702 1.373 . S
C701 C703 1.389 . S
C702 H675 0.950 . S
C702 C688 1.377 . S
C702 C701 1.373 . S
C703 C687 1.377 . S
C703 C701 1.389 . S
C703 C704 1.524 . S
C704 C703 1.524 . S
C704 C705 1.397 . S
C704 C709 1.363 . S
C705 H676 0.950 . S
C705 C704 1.397 . S
C705 C706 1.334 . S
C706 H677 0.950 . S
C706 C705 1.334 . S
C706 C707 1.287 . S
C707 C706 1.287 . S
C707 C708 1.524 . S
C707 H710 0.999 . S
C708 H678 0.950 . S
C708 C707 1.524 . S
C708 C709 1.415 . S
C709 H679 0.950 . S
C709 C704 1.363 . S
C709 C708 1.415 . S
H710 C707 0.999 . S
H711 C692 0.913 . S
H712 C730 0.951 . S
H713 C732 0.951 . S
H714 C734 0.950 . S
H715 C735 0.950 . S
H716 C737 0.950 . S
H717 C740 0.950 . S
H718 C741 0.950 . S
H719 C743 0.950 . S
H720 C744 0.950 . S
H721 C745 0.951 . S
H722 C747 0.951 . S
H723 C749 0.950 . S
H724 C750 0.950 . S
H725 C752 0.950 . S
H726 C755 0.950 . S
H727 C756 0.950 . S
H728 C758 0.950 . S
H729 C759 0.950 . S
C730 H712 0.951 . S
C730 C731 1.366 . S
C730 C732 1.388 . S
C731 C730 1.366 . S
C731 C735 1.385 . S
C732 H713 0.951 . S
C732 C730 1.388 . S
C732 C733 1.366 . S
C733 C732 1.366 . S
C733 C734 1.414 . S
C733 C736 1.499 . S
C734 H714 0.950 . S
C734 C733 1.414 . S
C734 C735 1.374 . S
C735 H715 0.950 . S
C735 C731 1.385 . S
C735 C734 1.374 . S
C736 C733 1.499 . S
C736 C737 1.373 . S
C736 C738 1.389 . S
C737 H716 0.950 . S
C737 C736 1.373 . S
C737 C753 1.377 . S
C738 C736 1.389 . S
C738 C739 1.524 . S
C738 C752 1.377 . S
C739 C738 1.524 . S
C739 C740 1.397 . S
C739 C744 1.363 . S
C740 H717 0.950 . S
C740 C739 1.397 . S
C740 C741 1.334 . S
C741 H718 0.950 . S
C741 C740 1.334 . S
C741 C742 1.287 . S
C742 C741 1.287 . S
C742 C743 1.524 . S
C742 H761 0.913 . S
C743 H719 0.950 . S
C743 C742 1.524 . S
C743 C744 1.415 . S
C744 H720 0.950 . S
C744 C739 1.363 . S
C744 C743 1.415 . S
C745 H721 0.951 . S
C745 C746 1.366 . S
C745 C747 1.388 . S
C746 C745 1.366 . S
C746 C750 1.385 . S
C747 H722 0.951 . S
C747 C745 1.388 . S
C747 C748 1.366 . S
C748 C747 1.366 . S
C748 C749 1.414 . S
C748 C751 1.499 . S
C749 H723 0.950 . S
C749 C748 1.414 . S
C749 C750 1.374 . S
C750 H724 0.950 . S
C750 C746 1.385 . S
C750 C749 1.374 . S
C751 C748 1.499 . S
C751 C752 1.373 . S
C751 C753 1.389 . S
C752 H725 0.950 . S
C752 C738 1.377 . S
C752 C751 1.373 . S
C753 C737 1.377 . S
C753 C751 1.389 . S
C753 C754 1.524 . S
C754 C753 1.524 . S
C754 C755 1.397 . S
C754 C759 1.363 . S
C755 H726 0.950 . S
C755 C754 1.397 . S
C755 C756 1.334 . S
C756 H727 0.950 . S
C756 C755 1.334 . S
C756 C757 1.287 . S
C757 C756 1.287 . S
C757 C758 1.524 . S
C757 H760 0.999 . S
C758 H728 0.950 . S
C758 C757 1.524 . S
C758 C759 1.415 . S
C759 H729 0.950 . S
C759 C754 1.363 . S
C759 C758 1.415 . S
H760 C757 0.999 . S
H761 C742 0.913 . S
H762 C780 0.951 . S
H763 C782 0.951 . S
H764 C784 0.950 . S
H765 C785 0.950 . S
H766 C787 0.950 . S
H767 C790 0.950 . S
H768 C791 0.950 . S
H769 C793 0.950 . S
H770 C794 0.950 . S
H771 C795 0.951 . S
H772 C797 0.951 . S
H773 C799 0.950 . S
H774 C800 0.950 . S
H775 C802 0.950 . S
H776 C805 0.950 . S
H777 C806 0.950 . S
H778 C808 0.950 . S
H779 C809 0.950 . S
C780 H762 0.951 . S
C780 C781 1.366 . S
C780 C782 1.388 . S
C781 C780 1.366 . S
C781 C785 1.385 . S
C782 H763 0.951 . S
C782 C780 1.388 . S
C782 C783 1.366 . S
C783 C782 1.366 . S
C783 C784 1.414 . S
C783 C786 1.499 . S
C784 H764 0.950 . S
C784 C783 1.414 . S
C784 C785 1.374 . S
C785 H765 0.950 . S
C785 C781 1.385 . S
C785 C784 1.374 . S
C786 C783 1.499 . S
C786 C787 1.373 . S
C786 C788 1.389 . S
C787 H766 0.950 . S
C787 C786 1.373 . S
C787 C803 1.377 . S
C788 C786 1.389 . S
C788 C789 1.524 . S
C788 C802 1.377 . S
C789 C788 1.524 . S
C789 C790 1.397 . S
C789 C794 1.363 . S
C790 H767 0.950 . S
C790 C789 1.397 . S
C790 C791 1.334 . S
C791 H768 0.950 . S
C791 C790 1.334 . S
C791 C792 1.287 . S
C792 C791 1.287 . S
C792 C793 1.524 . S
C792 H811 0.913 . S
C793 H769 0.950 . S
C793 C792 1.524 . S
C793 C794 1.415 . S
C794 H770 0.950 . S
C794 C789 1.363 . S
C794 C793 1.415 . S
C795 H771 0.951 . S
C795 C796 1.366 . S
C795 C797 1.388 . S
C796 C795 1.366 . S
C796 C800 1.385 . S
C797 H772 0.951 . S
C797 C795 1.388 . S
C797 C798 1.366 . S
C798 C797 1.366 . S
C798 C799 1.414 . S
C798 C801 1.499 . S
C799 H773 0.950 . S
C799 C798 1.414 . S
C799 C800 1.374 . S
C800 H774 0.950 . S
C800 C796 1.385 . S
C800 C799 1.374 . S
C801 C798 1.499 . S
C801 C802 1.373 . S
C801 C803 1.389 . S
C802 H775 0.950 . S
C802 C788 1.377 . S
C802 C801 1.373 . S
C803 C787 1.377 . S
C803 C801 1.389 . S
C803 C804 1.524 . S
C804 C803 1.524 . S
C804 C805 1.397 . S
C804 C809 1.363 . S
C805 H776 0.950 . S
C805 C804 1.397 . S
C805 C806 1.334 . S
C806 H777 0.950 . S
C806 C805 1.334 . S
C806 C807 1.287 . S
C807 C806 1.287 . S
C807 C808 1.524 . S
C807 H810 0.999 . S
C808 H778 0.950 . S
C808 C807 1.524 . S
C808 C809 1.415 . S
C809 H779 0.950 . S
C809 C804 1.363 . S
C809 C808 1.415 . S
H810 C807 0.999 . S
H811 C792 0.913 . S
H812 C830 0.951 . S
H813 C832 0.951 . S
H814 C834 0.950 . S
H815 C835 0.950 . S
H816 C837 0.950 . S
H817 C840 0.950 . S
H818 C841 0.950 . S
H819 C843 0.950 1_565 S
H820 C844 0.950 . S
H821 C845 0.951 . S
H822 C847 0.951 . S
H823 C849 0.950 1_565 S
H824 C850 0.950 . S
H825 C852 0.950 . S
H826 C855 0.950 . S
H827 C856 0.950 . S
H828 C858 0.950 . S
H829 C859 0.950 . S
C830 H812 0.951 . S
C830 C831 1.366 . S
C830 C832 1.388 . S
C831 C830 1.366 . S
C831 C835 1.385 . S
C832 H813 0.951 . S
C832 C830 1.388 . S
C832 C833 1.366 . S
C833 C832 1.366 . S
C833 C834 1.414 . S
C833 C836 1.499 . S
C834 H814 0.950 . S
C834 C833 1.414 . S
C834 C835 1.374 . S
C835 H815 0.950 . S
C835 C831 1.385 . S
C835 C834 1.374 . S
C836 C833 1.499 . S
C836 C837 1.373 . S
C836 C838 1.389 . S
C837 H816 0.950 . S
C837 C836 1.373 . S
C837 C853 1.377 . S
C838 C836 1.389 . S
C838 C839 1.524 . S
C838 C852 1.377 . S
C839 C838 1.524 . S
C839 C840 1.397 . S
C839 C844 1.363 . S
C840 H817 0.950 . S
C840 C839 1.397 . S
C840 C841 1.334 . S
C841 H818 0.950 . S
C841 C840 1.334 . S
C841 C842 1.287 . S
C842 C841 1.287 . S
C842 C843 1.524 . S
C842 H861 0.913 . S
C843 H819 0.950 1_545 S
C843 C842 1.524 . S
C843 C844 1.415 . S
C844 H820 0.950 . S
C844 C839 1.363 . S
C844 C843 1.415 . S
C845 H821 0.951 . S
C845 C846 1.366 . S
C845 C847 1.388 . S
C846 C845 1.366 . S
C846 C850 1.385 1_545 S
C847 H822 0.951 . S
C847 C845 1.388 . S
C847 C848 1.366 . S
C848 C847 1.366 . S
C848 C849 1.414 . S
C848 C851 1.499 . S
C849 H823 0.950 1_545 S
C849 C848 1.414 . S
C849 C850 1.374 1_545 S
C850 H824 0.950 . S
C850 C846 1.385 1_565 S
C850 C849 1.374 1_565 S
C851 C848 1.499 . S
C851 C852 1.373 . S
C851 C853 1.389 . S
C852 H825 0.950 . S
C852 C838 1.377 . S
C852 C851 1.373 . S
C853 C837 1.377 . S
C853 C851 1.389 . S
C853 C854 1.524 . S
C854 C853 1.524 . S
C854 C855 1.397 . S
C854 C859 1.363 . S
C855 H826 0.950 . S
C855 C854 1.397 . S
C855 C856 1.334 . S
C856 H827 0.950 . S
C856 C855 1.334 . S
C856 C857 1.287 . S
C857 C856 1.287 . S
C857 C858 1.524 . S
C857 H860 0.999 . S
C858 H828 0.950 . S
C858 C857 1.524 . S
C858 C859 1.415 . S
C859 H829 0.950 . S
C859 C854 1.363 . S
C859 C858 1.415 . S
H860 C857 0.999 . S
H861 C842 0.913 . S
H862 C880 0.951 . S
H863 C882 0.962 . S
H864 C884 0.950 . S
H865 C885 0.950 . S
H866 C887 0.950 . S
H867 C890 0.950 . S
H868 C891 0.950 . S
H869 C893 0.950 . S
H870 C894 0.950 . S
H871 C895 0.951 . S
H872 C897 0.951 . S
H873 C899 0.950 . S
H874 C900 0.950 . S
H875 C902 0.950 . S
H876 C905 0.950 . S
H877 C906 0.950 . S
H878 C908 0.950 . S
H879 C909 0.950 . S
C880 H862 0.951 . S
C880 C881 1.366 1_455 S
C880 C882 1.388 1_455 S
C881 C880 1.366 1_655 S
C881 C885 1.385 . S
C882 H863 0.962 . S
C882 C880 1.388 1_655 S
C882 C883 1.366 . S
C883 C882 1.366 . S
C883 C884 1.414 . S
C883 C886 1.499 . S
C884 H864 0.950 . S
C884 C883 1.414 . S
C884 C885 1.374 . S
C885 H865 0.950 . S
C885 C881 1.385 . S
C885 C884 1.374 . S
C886 C883 1.499 . S
C886 C887 1.373 . S
C886 C888 1.389 . S
C887 H866 0.950 . S
C887 C886 1.373 . S
C887 C903 1.377 . S
C888 C886 1.389 . S
C888 C889 1.524 1_655 S
C888 C902 1.377 . S
C889 C888 1.524 1_455 S
C889 C890 1.397 . S
C889 C894 1.363 . S
C890 H867 0.950 . S
C890 C889 1.397 . S
C890 C891 1.334 . S
C891 H868 0.950 . S
C891 C890 1.334 . S
C891 C892 1.287 . S
C892 C891 1.287 . S
C892 C893 1.524 . S
C892 H911 0.913 . S
C893 H869 0.950 . S
C893 C892 1.524 . S
C893 C894 1.415 . S
C894 H870 0.950 . S
C894 C889 1.363 . S
C894 C893 1.415 . S
C895 H871 0.951 . S
C895 C896 1.366 . S
C895 C897 1.388 . S
C896 C895 1.366 . S
C896 C900 1.385 . S
C897 H872 0.951 . S
C897 C895 1.388 . S
C897 C898 1.366 . S
C898 C897 1.366 . S
C898 C899 1.414 . S
C898 C901 1.499 . S
C899 H873 0.950 . S
C899 C898 1.414 . S
C899 C900 1.374 . S
C900 H874 0.950 . S
C900 C896 1.385 . S
C900 C899 1.374 . S
C901 C898 1.499 . S
C901 C902 1.373 . S
C901 C903 1.389 . S
C902 H875 0.950 . S
C902 C888 1.377 . S
C902 C901 1.373 . S
C903 C887 1.377 . S
C903 C901 1.389 . S
C903 C904 1.524 . S
C904 C903 1.524 . S
C904 C905 1.397 . S
C904 C909 1.363 . S
C905 H876 0.950 . S
C905 C904 1.397 . S
C905 C906 1.334 . S
C906 H877 0.950 . S
C906 C905 1.334 . S
C906 C907 1.287 . S
C907 C906 1.287 . S
C907 C908 1.524 . S
C907 H910 0.999 . S
C908 H878 0.950 . S
C908 C907 1.524 . S
C908 C909 1.415 . S
C909 H879 0.950 . S
C909 C904 1.363 . S
C909 C908 1.415 . S
H910 C907 0.999 . S
H911 C892 0.913 . S
C131 C63 1.578 . S
C146 C8 1.609 . S
C181 C22 1.625 . S
C196 C78 1.625 . S
C231 C36 1.609 . S
C246 C91 1.578 . S
C281 C106 1.624 . S
C296 C50 1.625 . S
C331 C7 1.453 . S
C346 C35 1.453 . S
C381 C21 1.368 . S
C396 C49 1.368 . S
C431 C92 1.333 . S
C446 C64 1.333 . S
C481 C77 1.337 . S
C496 C105 1.337 . S
C531 C79 0.892 . S
C546 C3 0.899 . S
C581 C17 0.786 . S
C596 C87 0.787 . S
C631 C31 0.899 . S
C646 C107 0.892 . S
C681 C59 0.788 . S
C696 C45 0.787 . S
C731 C65 0.811 . S
C746 C23 0.810 . S
C781 C73 0.848 . S
C796 C37 0.843 . S
C831 C93 0.810 . S
C846 C51 0.812 . S
C881 C9 0.834 1_655 S
C896 C101 0.849 . S
