# Generated by pormake.
# Topology umm, (4)-cn, num edge types: 1
# Building blocks:
#     Node 0, Type 0, BuildingBlock: QUQFOY_clean_sbu_1, # of connection points: 4
#     Node 1, Type 0, BuildingBlock: QUQFOY_clean_sbu_1, # of connection points: 4
#     Node 2, Type 0, BuildingBlock: QUQFOY_clean_sbu_1, # of connection points: 4
#     Node 3, Type 0, BuildingBlock: QUQFOY_clean_sbu_1, # of connection points: 4
#     Node 4, Type 0, BuildingBlock: QUQFOY_clean_sbu_1, # of connection points: 4
#     Node 5, Type 0, BuildingBlock: QUQFOY_clean_sbu_1, # of connection points: 4
#     Node 6, Type 0, BuildingBlock: QUQFOY_clean_sbu_1, # of connection points: 4
#     Node 7, Type 0, BuildingBlock: QUQFOY_clean_sbu_1, # of connection points: 4
#     Node 8, Type 0, BuildingBlock: QUQFOY_clean_sbu_1, # of connection points: 4
#     Node 9, Type 0, BuildingBlock: QUQFOY_clean_sbu_1, # of connection points: 4
#     Node 10, Type 0, BuildingBlock: QUQFOY_clean_sbu_1, # of connection points: 4
#     Node 11, Type 0, BuildingBlock: QUQFOY_clean_sbu_1, # of connection points: 4
#     Edge 12, Type (0, 0), BuildingBlock: XIVTED_clean_linker_0, # of connection points: 2
#     Edge 13, Type (0, 0), BuildingBlock: XIVTED_clean_linker_0, # of connection points: 2
#     Edge 14, Type (0, 0), BuildingBlock: XIVTED_clean_linker_0, # of connection points: 2
#     Edge 15, Type (0, 0), BuildingBlock: XIVTED_clean_linker_0, # of connection points: 2
#     Edge 16, Type (0, 0), BuildingBlock: XIVTED_clean_linker_0, # of connection points: 2
#     Edge 17, Type (0, 0), BuildingBlock: XIVTED_clean_linker_0, # of connection points: 2
#     Edge 18, Type (0, 0), BuildingBlock: XIVTED_clean_linker_0, # of connection points: 2
#     Edge 19, Type (0, 0), BuildingBlock: XIVTED_clean_linker_0, # of connection points: 2
#     Edge 20, Type (0, 0), BuildingBlock: XIVTED_clean_linker_0, # of connection points: 2
#     Edge 21, Type (0, 0), BuildingBlock: XIVTED_clean_linker_0, # of connection points: 2
#     Edge 22, Type (0, 0), BuildingBlock: XIVTED_clean_linker_0, # of connection points: 2
#     Edge 23, Type (0, 0), BuildingBlock: XIVTED_clean_linker_0, # of connection points: 2
#     Edge 24, Type (0, 0), BuildingBlock: XIVTED_clean_linker_0, # of connection points: 2
#     Edge 25, Type (0, 0), BuildingBlock: XIVTED_clean_linker_0, # of connection points: 2
#     Edge 26, Type (0, 0), BuildingBlock: XIVTED_clean_linker_0, # of connection points: 2
#     Edge 27, Type (0, 0), BuildingBlock: XIVTED_clean_linker_0, # of connection points: 2
#     Edge 28, Type (0, 0), BuildingBlock: XIVTED_clean_linker_0, # of connection points: 2
#     Edge 29, Type (0, 0), BuildingBlock: XIVTED_clean_linker_0, # of connection points: 2
#     Edge 30, Type (0, 0), BuildingBlock: XIVTED_clean_linker_0, # of connection points: 2
#     Edge 31, Type (0, 0), BuildingBlock: XIVTED_clean_linker_0, # of connection points: 2
#     Edge 32, Type (0, 0), BuildingBlock: XIVTED_clean_linker_0, # of connection points: 2
#     Edge 33, Type (0, 0), BuildingBlock: XIVTED_clean_linker_0, # of connection points: 2
#     Edge 34, Type (0, 0), BuildingBlock: XIVTED_clean_linker_0, # of connection points: 2
#     Edge 35, Type (0, 0), BuildingBlock: XIVTED_clean_linker_0, # of connection points: 2
# Relax obj value: 0.042
# Max RMSD: 0.170
# Mean RMSD: 0.170
data_MOF--net-umm--node1-QUQFOY_clean_sbu_1--edge1-XIVTED_clean_linker_0
_symmetry_space_group_name_H-M    P1
_symmetry_Int_Tables_number       1
_symmetry_cell_setting            triclinic
loop_
_symmetry_equiv_pos_as_xyz
'x, y, z'
_cell_length_a     57.500537
_cell_length_b     57.296495
_cell_length_c     29.023689
_cell_angle_alpha  90.254246
_cell_angle_beta   89.812093
_cell_angle_gamma 119.91826
loop_
_atom_site_label
_atom_site_type_symbol
_atom_site_fract_x
_atom_site_fract_y
_atom_site_fract_z
_atom_type_partial_charge
O0 O 0.45957 0.56193 0.0786 0.0
Cd1 Cd 0.43355 0.57691 0.07907 0.0
Cd2 Cd 0.40144 0.52763 0.04892 0.0
O3 O 0.429 0.51881 0.07901 0.0
O4 O 0.44884 0.60783 0.12387 0.0
O5 O 0.4115 0.5693 0.13656 0.0
C6 C 0.42952 0.59267 0.1515 0.0
C7 C 0.35601 0.51171 0.05843 0.0
C8 C 0.45343 0.53742 0.08281 0.0
C9 C 0.4176 0.57103 0.98131 0.0
O10 O 0.4123 0.54692 0.98705 0.0
O11 O 0.42392 0.58695 0.01572 0.0
O12 O 0.36421 0.49695 0.03819 0.0
O13 O 0.37364 0.5334 0.07912 0.0
O14 O 0.91172 0.45162 0.4303 0.0
Cd15 Cd 0.87075 0.42598 0.43163 0.0
Cd16 Cd 0.88655 0.39308 0.39444 0.0
O17 O 0.92439 0.42149 0.41884 0.0
O18 O 0.85692 0.4414 0.47888 0.0
O19 O 0.85557 0.40236 0.48733 0.0
C20 C 0.85151 0.42092 0.50441 0.0
C21 C 0.8655 0.34629 0.39455 0.0
C22 C 0.93022 0.44563 0.42777 0.0
C23 C 0.85651 0.412 0.3347 0.0
O24 O 0.87301 0.40347 0.33736 0.0
O25 O 0.85014 0.42042 0.3705 0.0
O26 O 0.88664 0.36056 0.36992 0.0
O27 O 0.85859 0.35871 0.42408 0.0
O28 O 0.48209 0.90473 0.77651 0.0
Cd29 Cd 0.46604 0.86357 0.78008 0.0
Cd30 Cd 0.5134 0.87766 0.73788 0.0
O31 O 0.52386 0.91671 0.75811 0.0
O32 O 0.43798 0.85137 0.82898 0.0
O33 O 0.47487 0.84862 0.83575 0.0
C34 C 0.45291 0.84549 0.85383 0.0
C35 C 0.53954 0.85699 0.73714 0.0
C36 C 0.50624 0.92304 0.76939 0.0
C37 C 0.46189 0.84654 0.68371 0.0
O38 O 0.48715 0.86189 0.68399 0.0
O39 O 0.44837 0.84206 0.72059 0.0
O40 O 0.54496 0.87702 0.71045 0.0
O41 O 0.52149 0.85106 0.76864 0.0
O42 O 0.59916 0.47338 0.09708 0.0
Cd43 Cd 0.62437 0.45744 0.09959 0.0
Cd44 Cd 0.65761 0.50589 0.06181 0.0
O45 O 0.62931 0.51594 0.08448 0.0
O46 O 0.60902 0.42928 0.1485 0.0
O47 O 0.64835 0.46664 0.15492 0.0
C48 C 0.62975 0.44465 0.17329 0.0
C49 C 0.70423 0.53202 0.06142 0.0
C50 C 0.60522 0.49789 0.09347 0.0
C51 C 0.63841 0.45603 1.00292 0.0
O52 O 0.6473 0.48118 1.00545 0.0
O53 O 0.62969 0.44147 0.03878 0.0
O54 O 0.68968 0.53817 0.03614 0.0
O55 O 0.69218 0.51321 0.0917 0.0
O56 O 0.14122 0.58755 0.43453 0.0
Cd57 Cd 0.18222 0.61285 0.43446 0.0
Cd58 Cd 0.16675 0.64545 0.39946 0.0
O59 O 0.1292 0.61835 0.42665 0.0
O60 O 0.19671 0.59731 0.48012 0.0
O61 O 0.19809 0.63627 0.49033 0.0
C62 C 0.20241 0.61776 0.50627 0.0
C63 C 0.19492 0.69145 0.40724 0.0
C64 C 0.12301 0.59398 0.43407 0.0
C65 C 0.19394 0.62584 0.33617 0.0
O66 O 0.17699 0.63381 0.33978 0.0
O67 O 0.20164 0.61864 0.3717 0.0
O68 O 0.17257 0.68211 0.38498 0.0
O69 O 0.19906 0.67468 0.43061 0.0
O70 O 0.5729 0.13477 0.75675 0.0
Cd71 Cd 0.58738 0.17577 0.7592 0.0
Cd72 Cd 0.53858 0.1592 0.72401 0.0
O73 O 0.52994 0.1214 0.74788 0.0
O74 O 0.61669 0.19008 0.80602 0.0
O75 O 0.57852 0.19013 0.81584 0.0
C76 C 0.60132 0.19477 0.83231 0.0
C77 C 0.5128 0.18013 0.72721 0.0
C78 C 0.54857 0.11593 0.75522 0.0
C79 C 0.58654 0.19025 0.66277 0.0
O80 O 0.56177 0.17303 0.66595 0.0
O81 O 0.60149 0.19699 0.6982 0.0
O82 O 0.50565 0.15901 0.70203 0.0
O83 O 0.53254 0.18709 0.7555 0.0
O84 O 0.48844 0.59157 0.56774 0.0
Cd85 Cd 0.46793 0.6126 0.56492 0.0
Cd86 Cd 0.51341 0.64831 0.61926 0.0
O87 O 0.52545 0.62018 0.60523 0.0
O88 O 0.44104 0.59431 0.51477 0.0
O89 O 0.47423 0.63633 0.50952 0.0
C90 C 0.4539 0.61591 0.49062 0.0
C91 C 0.54049 0.69495 0.62778 0.0
C92 C 0.51116 0.59772 0.5847 0.0
C93 C 0.45734 0.62268 0.66135 0.0
O94 O 0.48264 0.63635 0.66498 0.0
O95 O 0.44635 0.61154 0.62338 0.0
O96 O 0.54214 0.67847 0.65588 0.0
O97 O 0.52595 0.68492 0.59129 0.0
O98 O 0.91266 0.47349 0.91713 0.0
Cd99 Cd 0.87165 0.45796 0.91582 0.0
Cd100 Cd 0.8872 0.50665 0.95298 0.0
O101 O 0.92514 0.51624 0.92894 0.0
O102 O 0.85792 0.4287 0.86861 0.0
O103 O 0.8564 0.4663 0.86018 0.0
C104 C 0.85238 0.44369 0.84314 0.0
C105 C 0.8662 0.5324 0.95244 0.0
C106 C 0.93108 0.49802 0.91991 0.0
C107 C 0.85708 0.45758 0.0127 0.0
O108 O 0.87343 0.48267 0.01004 0.0
O109 O 0.85097 0.4428 0.97695 0.0
O110 O 0.88718 0.53923 0.97737 0.0
O111 O 0.85943 0.5131 0.92292 0.0
O112 O 0.46106 0.9082 0.26561 0.0
Cd113 Cd 0.4356 0.86706 0.26478 0.0
Cd114 Cd 0.40317 0.8829 0.29911 0.0
O115 O 0.43016 0.92017 0.27077 0.0
O116 O 0.45134 0.85243 0.21921 0.0
O117 O 0.41296 0.85178 0.20817 0.0
C118 C 0.43138 0.8472 0.19253 0.0
C119 C 0.35751 0.85399 0.29069 0.0
C120 C 0.45456 0.92641 0.26453 0.0
C121 C 0.42124 0.85515 0.36273 0.0
O122 O 0.41458 0.87312 0.3592 0.0
O123 O 0.42798 0.84688 0.3271 0.0
O124 O 0.36629 0.87652 0.31268 0.0
O125 O 0.37467 0.85009 0.26791 0.0
O126 O 0.56777 0.44754 0.58505 0.0
Cd127 Cd 0.58591 0.42413 0.58446 0.0
Cd128 Cd 0.53776 0.39023 0.63083 0.0
O129 O 0.52751 0.41908 0.61291 0.0
O130 O 0.61551 0.44247 0.53856 0.0
O131 O 0.58084 0.40175 0.52741 0.0
C132 C 0.60269 0.42192 0.51184 0.0
C133 C 0.51102 0.34348 0.63273 0.0
C134 C 0.54416 0.44203 0.59626 0.0
C135 C 0.59019 0.41124 0.68226 0.0
O136 O 0.56488 0.40056 0.68276 0.0
O137 O 0.60338 0.42106 0.64526 0.0
O138 O 0.50657 0.35863 0.66009 0.0
O139 O 0.52828 0.35502 0.59992 0.0
O140 O 0.14086 0.56343 0.91543 0.0
Cd141 Cd 0.18186 0.57911 0.91541 0.0
Cd142 Cd 0.16631 0.53092 0.95008 0.0
O143 O 0.12887 0.52058 0.92286 0.0
O144 O 0.19646 0.6092 0.86979 0.0
O145 O 0.19774 0.57157 0.8595 0.0
C146 C 0.20215 0.59446 0.8436 0.0
C147 C 0.19419 0.51278 0.94214 0.0
C148 C 0.12267 0.53876 0.91565 0.0
C149 C 0.19354 0.57761 0.01359 0.0
O150 O 0.17656 0.55269 0.00988 0.0
O151 O 0.20126 0.5926 0.97812 0.0
O152 O 0.17182 0.49989 0.96449 0.0
O153 O 0.19853 0.53379 0.91883 0.0
O154 O 0.59733 0.13738 0.24857 0.0
Cd155 Cd 0.62152 0.17864 0.24504 0.0
Cd156 Cd 0.65602 0.16488 0.28578 0.0
O157 O 0.62785 0.12599 0.2648 0.0
O158 O 0.60464 0.19029 0.19717 0.0
O159 O 0.64451 0.19383 0.18844 0.0
C160 C 0.62518 0.19642 0.17132 0.0
C161 C 0.70262 0.18459 0.28889 0.0
C162 C 0.60378 0.11934 0.25441 0.0
C163 C 0.63524 0.19572 0.34127 0.0
O164 O 0.64539 0.18051 0.34004 0.0
O165 O 0.62569 0.2001 0.30502 0.0
O166 O 0.68723 0.1644 0.31465 0.0
O167 O 0.69147 0.19123 0.25681 0.0
H168 H 0.46686 0.63858 0.19597 0.0
H169 H 0.4094 0.57808 0.44496 0.0
H170 H 0.39285 0.56422 0.2189 0.0
H171 H 0.48212 0.65396 0.42435 0.0
H172 H 0.40054 0.57551 0.36246 0.0
H173 H 0.47024 0.64743 0.27897 0.0
C174 C 0.45108 0.62431 0.21832 0.0
C175 C 0.42964 0.60049 0.20037 0.0
C176 C 0.41831 0.5929 0.37591 0.0
C177 C 0.43357 0.61038 0.29562 0.0
C178 C 0.42338 0.59439 0.42315 0.0
C179 C 0.44668 0.61617 0.44165 0.0
C180 C 0.43676 0.61321 0.34662 0.0
C181 C 0.46395 0.63676 0.4116 0.0
C182 C 0.45308 0.62935 0.26579 0.0
C183 C 0.40982 0.58277 0.2311 0.0
N184 N 0.45881 0.63462 0.36552 0.0
N185 N 0.41242 0.58794 0.27715 0.0
H186 H 0.84175 0.45714 0.54985 0.0
H187 H 0.84261 0.39767 0.79785 0.0
H188 H 0.84388 0.38369 0.57072 0.0
H189 H 0.84435 0.47306 0.77696 0.0
H190 H 0.83609 0.38879 0.71519 0.0
H191 H 0.8357 0.45971 0.63265 0.0
C192 C 0.84056 0.44131 0.57174 0.0
C193 C 0.8436 0.42029 0.55327 0.0
C194 C 0.83758 0.40713 0.7287 0.0
C195 C 0.83692 0.42329 0.64843 0.0
C196 C 0.84124 0.41221 0.77599 0.0
C197 C 0.8443 0.43629 0.7944 0.0
C198 C 0.83708 0.42632 0.6994 0.0
C199 C 0.84224 0.4543 0.76431 0.0
C200 C 0.83717 0.44285 0.61911 0.0
C201 C 0.84177 0.40033 0.58341 0.0
N202 N 0.83905 0.44908 0.71827 0.0
N203 N 0.83884 0.40249 0.62952 0.0
H204 H 0.40714 0.83513 0.8997 0.0
H205 H 0.46878 0.83901 0.14772 0.0
H206 H 0.48333 0.83904 0.91997 0.0
H207 H 0.39367 0.83721 0.12621 0.0
H208 H 0.4714 0.83236 0.06501 0.0
H209 H 0.39892 0.8292 0.98248 0.0
C210 C 0.42202 0.83439 0.92148 0.0
C211 C 0.4461 0.83787 0.90283 0.0
C212 C 0.45417 0.83308 0.07844 0.0
C213 C 0.43689 0.83134 0.99804 0.0
C214 C 0.45261 0.8368 0.12574 0.0
C215 C 0.43109 0.83894 0.14395 0.0
C216 C 0.43411 0.83158 0.04901 0.0
C217 C 0.41073 0.83587 0.11373 0.0
C218 C 0.41731 0.83105 0.96885 0.0
C219 C 0.46454 0.83657 0.93282 0.0
N220 N 0.41288 0.83263 0.06776 0.0
N221 N 0.45969 0.83373 0.97899 0.0
H222 H 0.67091 0.47163 0.23489 0.0
H223 H 0.64812 0.46132 0.47075 0.0
H224 H 0.59062 0.40382 0.22445 0.0
H225 H 0.57735 0.38497 0.44239 0.0
H226 H 0.65944 0.46607 0.38964 0.0
H227 H 0.66966 0.46473 0.31769 0.0
C228 C 0.65302 0.4552 0.25007 0.0
C229 C 0.63072 0.43853 0.22264 0.0
C230 C 0.64177 0.44789 0.40069 0.0
C231 C 0.62853 0.431 0.31844 0.0
C232 C 0.6352 0.44524 0.44746 0.0
C233 C 0.61165 0.42277 0.46354 0.0
C234 C 0.62467 0.42786 0.36937 0.0
C235 C 0.59569 0.40267 0.43161 0.0
C236 C 0.65213 0.4514 0.29776 0.0
C237 C 0.60823 0.41734 0.2442 0.0
N238 N 0.60233 0.40584 0.38607 0.0
N239 N 0.60762 0.41439 0.29074 0.0
H240 H 0.2122 0.58133 0.55031 0.0
H241 H 0.21201 0.64072 0.79958 0.0
H242 H 0.21126 0.65535 0.573 0.0
H243 H 0.21109 0.56577 0.77687 0.0
H244 H 0.21885 0.64992 0.71706 0.0
H245 H 0.2189 0.57891 0.63283 0.0
C246 C 0.21381 0.59732 0.57252 0.0
C247 C 0.21086 0.61844 0.5547 0.0
C248 C 0.2175 0.63162 0.73016 0.0
C249 C 0.21826 0.61561 0.64949 0.0
C250 C 0.21366 0.62637 0.77736 0.0
C251 C 0.21067 0.60228 0.79518 0.0
C252 C 0.21822 0.61259 0.70039 0.0
C253 C 0.21309 0.58451 0.76467 0.0
C254 C 0.21758 0.59587 0.61973 0.0
C255 C 0.21324 0.63861 0.58521 0.0
N256 N 0.21641 0.58987 0.71875 0.0
N257 N 0.21648 0.63653 0.63113 0.0
H258 H 0.58772 0.20404 0.12644 0.0
H259 H 0.64744 0.20518 0.87689 0.0
H260 H 0.66229 0.20471 0.1041 0.0
H261 H 0.57149 0.20156 0.89959 0.0
H262 H 0.65624 0.21143 0.95959 0.0
H263 H 0.58458 0.20952 0.04374 0.0
C264 C 0.60365 0.2057 0.10423 0.0
C265 C 0.6252 0.20367 0.1223 0.0
C266 C 0.63778 0.20958 0.94648 0.0
C267 C 0.62157 0.20971 0.0272 0.0
C268 C 0.63275 0.20608 0.89916 0.0
C269 C 0.60856 0.2026 0.88121 0.0
C270 C 0.61844 0.20951 0.97626 0.0
C271 C 0.59035 0.20402 0.91184 0.0
C272 C 0.6018 0.20877 0.05691 0.0
C273 C 0.64526 0.20606 0.09174 0.0
N274 N 0.59555 0.20709 0.95786 0.0
N275 N 0.64281 0.20867 0.04568 0.0
H276 H 0.33848 0.54748 0.0713 0.0
H277 H 0.19159 0.46703 0.97808 0.0
H278 H 0.31188 0.46675 0.02248 0.0
H279 H 0.24764 0.54712 0.93047 0.0
H280 H 0.22953 0.46345 0.00934 0.0
H281 H 0.29799 0.54473 0.03926 0.0
C282 C 0.32382 0.52887 0.05499 0.0
C283 C 0.32871 0.50733 0.04946 0.0
C284 C 0.23336 0.48155 0.99133 0.0
C285 C 0.28231 0.50423 0.01262 0.0
C286 C 0.21184 0.48358 0.97328 0.0
C287 C 0.21643 0.50739 0.95145 0.0
C288 C 0.25938 0.5038 0.98881 0.0
C289 C 0.24308 0.52832 0.94667 0.0
C290 C 0.30089 0.52749 0.03623 0.0
C291 C 0.30894 0.48383 0.02748 0.0
N292 N 0.26344 0.52625 0.96604 0.0
N293 N 0.28652 0.48287 0.00974 0.0
H294 H 0.86407 0.32036 0.31463 0.0
H295 H 0.72644 0.1866 0.37109 0.0
H296 H 0.82369 0.30748 0.44551 0.0
H297 H 0.74325 0.22468 0.23772 0.0
H298 H 0.76976 0.2227 0.39879 0.0
H299 H 0.82743 0.27707 0.28748 0.0
C300 C 0.84793 0.3081 0.33821 0.0
C301 C 0.84693 0.31766 0.38248 0.0
C302 C 0.76415 0.22279 0.36323 0.0
C303 C 0.80505 0.26806 0.3514 0.0
C304 C 0.73954 0.2021 0.34715 0.0
C305 C 0.73109 0.20264 0.30194 0.0
C306 C 0.78075 0.24391 0.33368 0.0
C307 C 0.74889 0.22347 0.2728 0.0
C308 C 0.82693 0.28352 0.32243 0.0
C309 C 0.82527 0.30095 0.41116 0.0
N310 N 0.77286 0.24335 0.28922 0.0
N311 N 0.80512 0.27699 0.39508 0.0
H312 H 0.53704 0.81595 0.78975 0.0
H313 H 0.54461 0.73677 0.57532 0.0
H314 H 0.56391 0.85466 0.65768 0.0
H315 H 0.55807 0.71758 0.71273 0.0
H316 H 0.55196 0.78028 0.60399 0.0
H317 H 0.54489 0.7798 0.763 0.0
C318 C 0.54516 0.81719 0.75555 0.0
C319 C 0.54975 0.83838 0.72595 0.0
C320 C 0.55384 0.76674 0.62763 0.0
C321 C 0.55799 0.79667 0.69462 0.0
C322 C 0.5497 0.74192 0.61124 0.0
C323 C 0.55063 0.72341 0.64162 0.0
C324 C 0.55827 0.7728 0.67491 0.0
C325 C 0.55716 0.73117 0.68797 0.0
C326 C 0.54959 0.79652 0.74024 0.0
C327 C 0.56013 0.83879 0.68179 0.0
N328 N 0.56018 0.75499 0.70336 0.0
N329 N 0.56336 0.81799 0.66715 0.0
H330 H 0.74345 0.53062 0.11344 0.0
H331 H 0.82505 0.52985 0.9005 0.0
H332 H 0.72951 0.55494 0.98065 0.0
H333 H 0.86394 0.55619 0.0326 0.0
H334 H 0.78891 0.53736 0.92829 0.0
H335 H 0.78708 0.53833 0.08547 0.0
C336 C 0.74981 0.53817 0.07883 0.0
C337 C 0.73279 0.54216 0.04941 0.0
C338 C 0.80568 0.54203 0.95078 0.0
C339 C 0.78213 0.55007 0.01678 0.0
C340 C 0.82632 0.53781 0.9349 0.0
C341 C 0.84758 0.54242 0.96419 0.0
C342 C 0.80592 0.55011 0.99666 0.0
C343 C 0.84804 0.55249 0.00869 0.0
C344 C 0.77466 0.54251 0.06286 0.0
C345 C 0.742 0.55173 1.00467 0.0
N346 N 0.82723 0.55541 0.02392 0.0
N347 N 0.76574 0.55477 0.98938 0.0
H348 H 0.19278 0.73499 0.37198 0.0
H349 H 0.33925 0.80065 0.27632 0.0
H350 H 0.2483 0.70997 0.41777 0.0
H351 H 0.31393 0.85518 0.32828 0.0
H352 H 0.29857 0.76293 0.30828 0.0
H353 H 0.23092 0.77644 0.34061 0.0
C354 C 0.21296 0.73845 0.37636 0.0
C355 C 0.21734 0.719 0.39775 0.0
C356 C 0.30178 0.78315 0.31199 0.0
C357 C 0.2605 0.76544 0.36022 0.0
C358 C 0.32482 0.8047 0.29328 0.0
C359 C 0.33011 0.83121 0.29971 0.0
C360 C 0.28352 0.78796 0.33644 0.0
C361 C 0.31066 0.83508 0.32257 0.0
C362 C 0.23459 0.76196 0.35823 0.0
C363 C 0.24391 0.72441 0.40195 0.0
N364 N 0.28813 0.81364 0.34023 0.0
N365 N 0.26437 0.74681 0.38251 0.0
H366 H 0.48739 0.18195 0.64924 0.0
H367 H 0.49029 0.31869 0.71487 0.0
H368 H 0.51596 0.22145 0.78064 0.0
H369 H 0.51015 0.30337 0.57873 0.0
H370 H 0.48384 0.27514 0.74007 0.0
H371 H 0.47995 0.21861 0.62509 0.0
C372 C 0.49135 0.19789 0.67359 0.0
C373 C 0.50242 0.19865 0.71709 0.0
C374 C 0.48906 0.28113 0.70448 0.0
C375 C 0.49379 0.24054 0.68947 0.0
C376 C 0.49253 0.30587 0.68983 0.0
C377 C 0.50092 0.31481 0.64455 0.0
C378 C 0.49341 0.26489 0.67343 0.0
C379 C 0.50376 0.29735 0.61393 0.0
C380 C 0.48731 0.2189 0.65952 0.0
C381 C 0.50745 0.22006 0.74683 0.0
N382 N 0.50012 0.27325 0.62897 0.0
N383 N 0.50319 0.24021 0.73243 0.0
H384 H 0.44961 0.48772 0.09273 0.0
H385 H 0.60896 0.54767 0.08692 0.0
H386 H 0.50737 0.57275 0.08814 0.0
H387 H 0.55167 0.46353 0.10814 0.0
H388 H 0.572 0.55735 0.0883 0.0
H389 H 0.48668 0.47839 0.0994 0.0
C390 C 0.47001 0.50442 0.09338 0.0
C391 C 0.47528 0.53105 0.08969 0.0
C392 C 0.56756 0.53679 0.09292 0.0
C393 C 0.51788 0.52052 0.09701 0.0
C394 C 0.58868 0.53126 0.09217 0.0
C395 C 0.5835 0.50474 0.09726 0.0
C396 C 0.541 0.51564 0.09854 0.0
C397 C 0.55672 0.4843 0.10394 0.0
C398 C 0.4912 0.49909 0.09718 0.0
C399 C 0.50223 0.55187 0.09076 0.0
N400 N 0.53654 0.49015 0.10411 0.0
N401 N 0.52244 0.54616 0.09405 0.0
H402 H 0.94902 0.4995 0.43999 0.0
H403 H 0.10377 0.54009 0.44598 0.0
H404 H 0.97622 0.4418 0.42799 0.0
H405 H 0.07717 0.59815 0.43276 0.0
H406 H 0.05714 0.50404 0.44784 0.0
H407 H 0.99554 0.53564 0.44545 0.0
C408 C 0.96474 0.49434 0.43873 0.0
C409 C 0.95857 0.46743 0.43336 0.0
C410 C 0.06146 0.52465 0.44472 0.0
C411 C 1.01216 0.50904 0.43966 0.0
C412 C 0.08815 0.54536 0.4438 0.0
C413 C 0.09454 0.57234 0.43901 0.0
C414 C 0.04079 0.53079 0.44104 0.0
C415 C 0.07327 0.57772 0.43642 0.0
C416 C 0.99136 0.51509 0.44175 0.0
C417 C 0.97994 0.46217 0.43198 0.0
N418 N 0.04737 0.55713 0.43735 0.0
N419 N 1.00576 0.48278 0.43506 0.0
H420 H 0.58425 0.09764 0.76121 0.0
H421 H 0.4721 0.94247 0.78557 0.0
H422 H 0.49923 0.06952 0.76089 0.0
H423 H 0.55545 0.96908 0.75775 0.0
H424 H 0.48228 0.98914 0.78436 0.0
H425 H 0.57451 0.05118 0.76731 0.0
C426 C 0.56348 0.08173 0.76262 0.0
C427 C 0.54251 0.08762 0.76046 0.0
C428 C 0.49838 0.98482 0.77863 0.0
C429 C 0.53126 0.03411 0.76755 0.0
C430 C 0.49263 0.95811 0.77949 0.0
C431 C 0.51296 0.95169 0.77164 0.0
C432 C 0.5247 1.0055 0.77015 0.0
C433 C 0.53913 0.97299 0.76393 0.0
C434 C 0.55797 0.05514 0.76598 0.0
C435 C 0.51605 0.06601 0.76236 0.0
N436 N 0.54424 0.99892 0.76335 0.0
N437 N 0.51119 0.04025 0.76583 0.0
H438 H 0.51031 0.56733 0.51155 0.0
H439 H 0.5158 0.45484 0.65723 0.0
H440 H 0.52894 0.58013 0.65638 0.0
H441 H 0.55764 0.47872 0.52727 0.0
H442 H 0.50959 0.49437 0.65423 0.0
H443 H 0.51809 0.52882 0.51307 0.0
C444 C 0.51639 0.56221 0.54348 0.0
C445 C 0.51943 0.5771 0.58375 0.0
C446 C 0.51994 0.49074 0.62631 0.0
C447 C 0.527 0.53253 0.58615 0.0
C448 C 0.52321 0.46811 0.62772 0.0
C449 C 0.53714 0.46352 0.59234 0.0
C450 C 0.52999 0.50835 0.58864 0.0
C451 C 0.54675 0.48157 0.55519 0.0
C452 C 0.5207 0.54026 0.54434 0.0
C453 C 0.52689 0.56943 0.62445 0.0
N454 N 0.54278 0.50307 0.55405 0.0
N455 N 0.53001 0.54736 0.62483 0.0
H456 H 0.07702 0.48861 0.91521 0.0
H457 H 0.97685 0.548 0.92039 0.0
H458 H 0.10329 0.57338 0.90541 0.0
H459 H 0.9502 0.46321 0.90782 0.0
H460 H 1.0234 0.55774 0.9154 0.0
H461 H 0.03037 0.47875 0.9127 0.0
C462 C 0.07304 0.50512 0.91219 0.0
C463 C 0.09421 0.53186 0.91064 0.0
C464 C 1.00733 0.53701 0.91349 0.0
C465 C 0.04082 0.52076 0.90821 0.0
C466 C 0.98073 0.53145 0.91636 0.0
C467 C 0.95949 0.50475 0.91462 0.0
C468 C 1.01279 0.51572 0.9092 0.0
C469 C 0.96584 0.48413 0.90937 0.0
C470 C 0.04638 0.4995 0.91081 0.0
C471 C 0.08772 0.55244 0.90679 0.0
N472 N 0.99184 0.49003 0.90711 0.0
N473 N 0.0617 0.54647 0.90601 0.0
H474 H 0.44972 0.97185 0.2579 0.0
H475 H 0.60854 0.07394 0.26276 0.0
H476 H 0.50865 0.9461 0.25785 0.0
H477 H 0.55008 0.09899 0.2397 0.0
H478 H 0.5722 0.02693 0.26194 0.0
H479 H 0.48617 1.01867 0.25211 0.0
C480 C 0.47025 0.97598 0.25643 0.0
C481 C 0.47603 0.95492 0.25845 0.0
C482 C 0.56738 0.04274 0.25682 0.0
C483 C 0.51792 1.00851 0.2522 0.0
C484 C 0.58815 0.06961 0.25727 0.0
C485 C 0.58246 0.09056 0.25138 0.0
C486 C 0.54067 0.03674 0.25078 0.0
C487 C 0.55554 0.08361 0.24443 0.0
C488 C 0.49109 1.00273 0.25313 0.0
C489 C 0.50312 0.96159 0.25643 0.0
N490 N 0.53571 0.05739 0.2446 0.0
N491 N 0.52298 0.98772 0.25369 0.0
H492 H 0.46731 0.65826 0.73064 0.0
H493 H 0.39205 0.53943 0.90713 0.0
H494 H 0.4128 0.57631 0.68965 0.0
H495 H 0.43942 0.62275 0.94818 0.0
H496 H 0.39329 0.55353 0.82778 0.0
H497 H 0.45055 0.64719 0.8094 0.0
C498 C 0.45122 0.63806 0.7381 0.0
C499 C 0.44162 0.61803 0.70389 0.0
C500 C 0.40316 0.5688 0.85409 0.0
C501 C 0.42293 0.60499 0.79421 0.0
C502 C 0.40263 0.56077 0.89947 0.0
C503 C 0.41618 0.57995 0.93421 0.0
C504 C 0.41767 0.59626 0.84305 0.0
C505 C 0.429 0.60728 0.92239 0.0
C506 C 0.44174 0.63172 0.78313 0.0
C507 C 0.42074 0.59228 0.71513 0.0
N508 N 0.42981 0.61462 0.87761 0.0
N509 N 0.4125 0.58631 0.75969 0.0
H510 H 0.84927 0.3793 0.26178 0.0
H511 H 0.84961 0.48293 0.08561 0.0
H512 H 0.84013 0.44666 0.30333 0.0
H513 H 0.84061 0.40648 0.04402 0.0
H514 H 0.83981 0.46709 0.16488 0.0
H515 H 0.83976 0.38548 0.18244 0.0
C516 C 0.84487 0.3952 0.2542 0.0
C517 C 0.84598 0.41286 0.28891 0.0
C518 C 0.83949 0.45355 0.13843 0.0
C519 C 0.83542 0.42027 0.19801 0.0
C520 C 0.84519 0.46261 0.09316 0.0
C521 C 0.84642 0.44613 0.05846 0.0
C522 C 0.83552 0.42798 0.1493 0.0
C523 C 0.84008 0.41987 0.06989 0.0
C524 C 0.83934 0.39865 0.2089 0.0
C525 C 0.83968 0.43278 0.27745 0.0
N526 N 0.83544 0.41178 0.11461 0.0
N527 N 0.83521 0.43632 0.2327 0.0
H528 H 0.41201 0.83588 0.65575 0.0
H529 H 0.44822 0.82952 0.3915 0.0
H530 H 0.48236 0.83378 0.60978 0.0
H531 H 0.39393 0.85607 0.43874 0.0
H532 H 0.45179 0.81714 0.47093 0.0
H533 H 0.39591 0.82874 0.57585 0.0
C534 C 0.42366 0.83316 0.62904 0.0
C535 C 0.44874 0.83593 0.63899 0.0
C536 C 0.43881 0.82532 0.46366 0.0
C537 C 0.4307 0.82796 0.54813 0.0
C538 C 0.43678 0.83237 0.41843 0.0
C539 C 0.42127 0.8444 0.40882 0.0
C540 C 0.42502 0.83012 0.49919 0.0
C541 C 0.40663 0.84743 0.44487 0.0
C542 C 0.4146 0.82928 0.58351 0.0
C543 C 0.46313 0.83228 0.60324 0.0
N544 N 0.40906 0.84059 0.48853 0.0
N545 N 0.45407 0.82882 0.55927 0.0
H546 H 0.6413 0.44854 0.70983 0.0
H547 H 0.60517 0.40414 0.97277 0.0
H548 H 0.56936 0.37754 0.75516 0.0
H549 H 0.66933 0.48153 0.92852 0.0
H550 H 0.59886 0.38854 0.8925 0.0
H551 H 0.65877 0.45514 0.78876 0.0
C552 C 0.62948 0.43404 0.73612 0.0
C553 C 0.60365 0.41284 0.72632 0.0
C554 C 0.61462 0.40879 0.90055 0.0
C555 C 0.62327 0.42024 0.81627 0.0
C556 C 0.61827 0.41763 0.94635 0.0
C557 C 0.63736 0.44431 0.95705 0.0
C558 C 0.63028 0.42678 0.86554 0.0
C559 C 0.65392 0.46096 0.92155 0.0
C560 C 0.63936 0.43785 0.78117 0.0
C561 C 0.58916 0.39454 0.76157 0.0
N562 N 0.64977 0.45205 0.87734 0.0
N563 N 0.599 0.39884 0.80508 0.0
H564 H 0.19752 0.55129 0.08802 0.0
H565 H 0.19849 0.65639 0.26179 0.0
H566 H 0.21139 0.62912 0.0445 0.0
H567 H 0.21114 0.59167 0.30525 0.0
H568 H 0.20745 0.64916 0.18239 0.0
H569 H 0.2067 0.56749 0.16737 0.0
C570 C 0.20283 0.57194 0.09519 0.0
C571 C 0.20323 0.58879 0.0599 0.0
C572 C 0.20875 0.63682 0.20929 0.0
C573 C 0.21346 0.60735 0.15067 0.0
C574 C 0.2035 0.64085 0.25459 0.0
C575 C 0.20361 0.62425 0.28987 0.0
C576 C 0.21356 0.61566 0.19906 0.0
C577 C 0.21065 0.60474 0.2789 0.0
C578 C 0.20822 0.58122 0.14046 0.0
C579 C 0.21066 0.61545 0.07085 0.0
N580 N 0.21481 0.60058 0.23419 0.0
N581 N 0.21496 0.62378 0.11553 0.0
H582 H 0.55945 0.19454 0.58986 0.0
H583 H 0.66952 0.20859 0.41321 0.0
H584 H 0.63826 0.21109 0.63114 0.0
H585 H 0.59665 0.20689 0.37229 0.0
H586 H 0.66164 0.21689 0.4926 0.0
H587 H 0.57527 0.20594 0.51077 0.0
C588 C 0.58023 0.2009 0.5823 0.0
C589 C 0.59746 0.20135 0.61688 0.0
C590 C 0.6476 0.21524 0.46626 0.0
C591 C 0.61567 0.2142 0.52617 0.0
C592 C 0.65206 0.21047 0.42092 0.0
C593 C 0.63342 0.20658 0.3864 0.0
C594 C 0.62401 0.21558 0.47738 0.0
C595 C 0.61139 0.20959 0.398 0.0
C596 C 0.58929 0.20753 0.53711 0.0
C597 C 0.62428 0.21022 0.60538 0.0
N598 N 0.60697 0.21334 0.44281 0.0
N599 N 0.63244 0.2158 0.56074 0.0
loop_
_geom_bond_atom_site_label_1
_geom_bond_atom_site_label_2
_geom_bond_distance
_geom_bond_site_symmetry_2
_ccdc_geom_bond_type
O0 Cd1 2.223 . S
O0 C8 1.315 . S
Cd1 O0 2.223 . S
Cd1 O4 2.297 . S
Cd1 O5 2.439 . S
Cd1 O11 2.240 . S
Cd2 O3 2.240 . S
Cd2 O10 2.223 1_554 S
Cd2 O12 2.297 1_554 S
Cd2 O13 2.439 . S
O3 Cd2 2.240 . S
O3 C8 1.279 . S
O4 Cd1 2.297 . S
O4 C6 1.247 . S
O5 Cd1 2.439 . S
O5 C6 1.208 . S
C6 O4 1.247 . S
C6 O5 1.208 . S
C7 O12 1.247 1_554 S
C7 O13 1.208 . S
C8 O0 1.315 . S
C8 O3 1.279 . S
C9 O10 1.315 . S
C9 O11 1.279 1_556 S
O10 Cd2 2.223 1_556 S
O10 C9 1.315 . S
O11 Cd1 2.240 . S
O11 C9 1.279 1_554 S
O12 Cd2 2.297 1_556 S
O12 C7 1.247 1_556 S
O13 Cd2 2.439 . S
O13 C7 1.208 . S
O14 Cd15 2.223 . S
O14 C22 1.315 . S
Cd15 O14 2.223 . S
Cd15 O18 2.297 . S
Cd15 O19 2.439 . S
Cd15 O25 2.240 . S
Cd16 O17 2.240 . S
Cd16 O24 2.223 . S
Cd16 O26 2.297 . S
Cd16 O27 2.439 . S
O17 Cd16 2.240 . S
O17 C22 1.279 . S
O18 Cd15 2.297 . S
O18 C20 1.247 . S
O19 Cd15 2.439 . S
O19 C20 1.208 . S
C20 O18 1.247 . S
C20 O19 1.208 . S
C21 O26 1.247 . S
C21 O27 1.208 . S
C22 O14 1.315 . S
C22 O17 1.279 . S
C23 O24 1.315 . S
C23 O25 1.279 . S
O24 Cd16 2.223 . S
O24 C23 1.315 . S
O25 Cd15 2.240 . S
O25 C23 1.279 . S
O26 Cd16 2.297 . S
O26 C21 1.247 . S
O27 Cd16 2.439 . S
O27 C21 1.208 . S
O28 Cd29 2.223 . S
O28 C36 1.315 . S
Cd29 O28 2.223 . S
Cd29 O32 2.297 . S
Cd29 O33 2.439 . S
Cd29 O39 2.240 . S
Cd30 O31 2.240 . S
Cd30 O38 2.223 . S
Cd30 O40 2.297 . S
Cd30 O41 2.439 . S
O31 Cd30 2.240 . S
O31 C36 1.279 . S
O32 Cd29 2.297 . S
O32 C34 1.247 . S
O33 Cd29 2.439 . S
O33 C34 1.208 . S
C34 O32 1.247 . S
C34 O33 1.208 . S
C35 O40 1.247 . S
C35 O41 1.208 . S
C36 O28 1.315 . S
C36 O31 1.279 . S
C37 O38 1.315 . S
C37 O39 1.279 . S
O38 Cd30 2.223 . S
O38 C37 1.315 . S
O39 Cd29 2.240 . S
O39 C37 1.279 . S
O40 Cd30 2.297 . S
O40 C35 1.247 . S
O41 Cd30 2.439 . S
O41 C35 1.208 . S
O42 Cd43 2.223 . S
O42 C50 1.315 . S
Cd43 O42 2.223 . S
Cd43 O46 2.297 . S
Cd43 O47 2.439 . S
Cd43 O53 2.240 . S
Cd44 O45 2.240 . S
Cd44 O52 2.223 1_554 S
Cd44 O54 2.297 1_554 S
Cd44 O55 2.439 . S
O45 Cd44 2.240 . S
O45 C50 1.279 . S
O46 Cd43 2.297 . S
O46 C48 1.247 . S
O47 Cd43 2.439 . S
O47 C48 1.208 . S
C48 O46 1.247 . S
C48 O47 1.208 . S
C49 O54 1.247 1_554 S
C49 O55 1.208 . S
C50 O42 1.315 . S
C50 O45 1.279 . S
C51 O52 1.315 . S
C51 O53 1.279 1_556 S
O52 Cd44 2.223 1_556 S
O52 C51 1.315 . S
O53 Cd43 2.240 . S
O53 C51 1.279 1_554 S
O54 Cd44 2.297 1_556 S
O54 C49 1.247 1_556 S
O55 Cd44 2.439 . S
O55 C49 1.208 . S
O56 Cd57 2.223 . S
O56 C64 1.315 . S
Cd57 O56 2.223 . S
Cd57 O60 2.297 . S
Cd57 O61 2.439 . S
Cd57 O67 2.240 . S
Cd58 O59 2.240 . S
Cd58 O66 2.223 . S
Cd58 O68 2.297 . S
Cd58 O69 2.439 . S
O59 Cd58 2.240 . S
O59 C64 1.279 . S
O60 Cd57 2.297 . S
O60 C62 1.247 . S
O61 Cd57 2.439 . S
O61 C62 1.208 . S
C62 O60 1.247 . S
C62 O61 1.208 . S
C63 O68 1.247 . S
C63 O69 1.208 . S
C64 O56 1.315 . S
C64 O59 1.279 . S
C65 O66 1.315 . S
C65 O67 1.279 . S
O66 Cd58 2.223 . S
O66 C65 1.315 . S
O67 Cd57 2.240 . S
O67 C65 1.279 . S
O68 Cd58 2.297 . S
O68 C63 1.247 . S
O69 Cd58 2.439 . S
O69 C63 1.208 . S
O70 Cd71 2.223 . S
O70 C78 1.315 . S
Cd71 O70 2.223 . S
Cd71 O74 2.297 . S
Cd71 O75 2.439 . S
Cd71 O81 2.240 . S
Cd72 O73 2.240 . S
Cd72 O80 2.223 . S
Cd72 O82 2.297 . S
Cd72 O83 2.439 . S
O73 Cd72 2.240 . S
O73 C78 1.279 . S
O74 Cd71 2.297 . S
O74 C76 1.247 . S
O75 Cd71 2.439 . S
O75 C76 1.208 . S
C76 O74 1.247 . S
C76 O75 1.208 . S
C77 O82 1.247 . S
C77 O83 1.208 . S
C78 O70 1.315 . S
C78 O73 1.279 . S
C79 O80 1.315 . S
C79 O81 1.279 . S
O80 Cd72 2.223 . S
O80 C79 1.315 . S
O81 Cd71 2.240 . S
O81 C79 1.279 . S
O82 Cd72 2.297 . S
O82 C77 1.247 . S
O83 Cd72 2.439 . S
O83 C77 1.208 . S
O84 Cd85 2.223 . S
O84 C92 1.315 . S
Cd85 O84 2.223 . S
Cd85 O88 2.297 . S
Cd85 O89 2.439 . S
Cd85 O95 2.240 . S
Cd86 O87 2.240 . S
Cd86 O94 2.223 . S
Cd86 O96 2.297 . S
Cd86 O97 2.439 . S
O87 Cd86 2.240 . S
O87 C92 1.279 . S
O88 Cd85 2.297 . S
O88 C90 1.247 . S
O89 Cd85 2.439 . S
O89 C90 1.208 . S
C90 O88 1.247 . S
C90 O89 1.208 . S
C91 O96 1.247 . S
C91 O97 1.208 . S
C92 O84 1.315 . S
C92 O87 1.279 . S
C93 O94 1.315 . S
C93 O95 1.279 . S
O94 Cd86 2.223 . S
O94 C93 1.315 . S
O95 Cd85 2.240 . S
O95 C93 1.279 . S
O96 Cd86 2.297 . S
O96 C91 1.247 . S
O97 Cd86 2.439 . S
O97 C91 1.208 . S
O98 Cd99 2.223 . S
O98 C106 1.315 . S
Cd99 O98 2.223 . S
Cd99 O102 2.297 . S
Cd99 O103 2.439 . S
Cd99 O109 2.240 . S
Cd100 O101 2.240 . S
Cd100 O108 2.223 1_556 S
Cd100 O110 2.297 1_556 S
Cd100 O111 2.439 . S
O101 Cd100 2.240 . S
O101 C106 1.279 . S
O102 Cd99 2.297 . S
O102 C104 1.247 . S
O103 Cd99 2.439 . S
O103 C104 1.208 . S
C104 O102 1.247 . S
C104 O103 1.208 . S
C105 O110 1.247 1_556 S
C105 O111 1.208 . S
C106 O98 1.315 . S
C106 O101 1.279 . S
C107 O108 1.315 . S
C107 O109 1.279 1_554 S
O108 Cd100 2.223 1_554 S
O108 C107 1.315 . S
O109 Cd99 2.240 . S
O109 C107 1.279 1_556 S
O110 Cd100 2.297 1_554 S
O110 C105 1.247 1_554 S
O111 Cd100 2.439 . S
O111 C105 1.208 . S
O112 Cd113 2.223 . S
O112 C120 1.315 . S
Cd113 O112 2.223 . S
Cd113 O116 2.297 . S
Cd113 O117 2.439 . S
Cd113 O123 2.240 . S
Cd114 O115 2.240 . S
Cd114 O122 2.223 . S
Cd114 O124 2.297 . S
Cd114 O125 2.439 . S
O115 Cd114 2.240 . S
O115 C120 1.279 . S
O116 Cd113 2.297 . S
O116 C118 1.247 . S
O117 Cd113 2.439 . S
O117 C118 1.208 . S
C118 O116 1.247 . S
C118 O117 1.208 . S
C119 O124 1.247 . S
C119 O125 1.208 . S
C120 O112 1.315 . S
C120 O115 1.279 . S
C121 O122 1.315 . S
C121 O123 1.279 . S
O122 Cd114 2.223 . S
O122 C121 1.315 . S
O123 Cd113 2.240 . S
O123 C121 1.279 . S
O124 Cd114 2.297 . S
O124 C119 1.247 . S
O125 Cd114 2.439 . S
O125 C119 1.208 . S
O126 Cd127 2.223 . S
O126 C134 1.315 . S
Cd127 O126 2.223 . S
Cd127 O130 2.297 . S
Cd127 O131 2.439 . S
Cd127 O137 2.240 . S
Cd128 O129 2.240 . S
Cd128 O136 2.223 . S
Cd128 O138 2.297 . S
Cd128 O139 2.439 . S
O129 Cd128 2.240 . S
O129 C134 1.279 . S
O130 Cd127 2.297 . S
O130 C132 1.247 . S
O131 Cd127 2.439 . S
O131 C132 1.208 . S
C132 O130 1.247 . S
C132 O131 1.208 . S
C133 O138 1.247 . S
C133 O139 1.208 . S
C134 O126 1.315 . S
C134 O129 1.279 . S
C135 O136 1.315 . S
C135 O137 1.279 . S
O136 Cd128 2.223 . S
O136 C135 1.315 . S
O137 Cd127 2.240 . S
O137 C135 1.279 . S
O138 Cd128 2.297 . S
O138 C133 1.247 . S
O139 Cd128 2.439 . S
O139 C133 1.208 . S
O140 Cd141 2.223 . S
O140 C148 1.315 . S
Cd141 O140 2.223 . S
Cd141 O144 2.297 . S
Cd141 O145 2.439 . S
Cd141 O151 2.240 . S
Cd142 O143 2.240 . S
Cd142 O150 2.223 1_556 S
Cd142 O152 2.297 1_556 S
Cd142 O153 2.439 . S
O143 Cd142 2.240 . S
O143 C148 1.279 . S
O144 Cd141 2.297 . S
O144 C146 1.247 . S
O145 Cd141 2.439 . S
O145 C146 1.208 . S
C146 O144 1.247 . S
C146 O145 1.208 . S
C147 O152 1.247 1_556 S
C147 O153 1.208 . S
C148 O140 1.315 . S
C148 O143 1.279 . S
C149 O150 1.315 . S
C149 O151 1.279 1_554 S
O150 Cd142 2.223 1_554 S
O150 C149 1.315 . S
O151 Cd141 2.240 . S
O151 C149 1.279 1_556 S
O152 Cd142 2.297 1_554 S
O152 C147 1.247 1_554 S
O153 Cd142 2.439 . S
O153 C147 1.208 . S
O154 Cd155 2.223 . S
O154 C162 1.315 . S
Cd155 O154 2.223 . S
Cd155 O158 2.297 . S
Cd155 O159 2.439 . S
Cd155 O165 2.240 . S
Cd156 O157 2.240 . S
Cd156 O164 2.223 . S
Cd156 O166 2.297 . S
Cd156 O167 2.439 . S
O157 Cd156 2.240 . S
O157 C162 1.279 . S
O158 Cd155 2.297 . S
O158 C160 1.247 . S
O159 Cd155 2.439 . S
O159 C160 1.208 . S
C160 O158 1.247 . S
C160 O159 1.208 . S
C161 O166 1.247 . S
C161 O167 1.208 . S
C162 O154 1.315 . S
C162 O157 1.279 . S
C163 O164 1.315 . S
C163 O165 1.279 . S
O164 Cd156 2.223 . S
O164 C163 1.315 . S
O165 Cd155 2.240 . S
O165 C163 1.279 . S
O166 Cd156 2.297 . S
O166 C161 1.247 . S
O167 Cd156 2.439 . S
O167 C161 1.208 . S
H168 C174 0.930 . S
H169 C178 0.930 . S
H170 C183 0.929 . S
H171 C181 0.929 . S
H172 C176 0.929 . S
H173 C182 0.929 . S
C174 H168 0.930 . S
C174 C175 1.367 . S
C174 C182 1.378 . S
C175 C174 1.367 . S
C175 C183 1.433 . S
C176 H172 0.929 . S
C176 C178 1.378 . S
C176 C180 1.350 . S
C177 C180 1.463 . S
C177 C182 1.350 . S
C177 N185 1.427 . S
C178 H169 0.930 . S
C178 C176 1.378 . S
C178 C179 1.367 . S
C179 C178 1.367 . S
C179 C181 1.433 . S
C180 C176 1.350 . S
C180 C177 1.463 . S
C180 N184 1.427 . S
C181 H171 0.929 . S
C181 C179 1.433 . S
C181 N184 1.384 . S
C182 H173 0.929 . S
C182 C174 1.378 . S
C182 C177 1.350 . S
C183 H170 0.929 . S
C183 C175 1.433 . S
C183 N185 1.384 . S
N184 C180 1.427 . S
N184 C181 1.384 . S
N185 C177 1.427 . S
N185 C183 1.384 . S
H186 C192 0.930 . S
H187 C196 0.930 . S
H188 C201 0.929 . S
H189 C199 0.929 . S
H190 C194 0.929 . S
H191 C200 0.929 . S
C192 H186 0.930 . S
C192 C193 1.367 . S
C192 C200 1.378 . S
C193 C192 1.367 . S
C193 C201 1.433 . S
C194 H190 0.929 . S
C194 C196 1.378 . S
C194 C198 1.350 . S
C195 C198 1.463 . S
C195 C200 1.350 . S
C195 N203 1.427 . S
C196 H187 0.930 . S
C196 C194 1.378 . S
C196 C197 1.367 . S
C197 C196 1.367 . S
C197 C199 1.433 . S
C198 C194 1.350 . S
C198 C195 1.463 . S
C198 N202 1.427 . S
C199 H189 0.929 . S
C199 C197 1.433 . S
C199 N202 1.384 . S
C200 H191 0.929 . S
C200 C192 1.378 . S
C200 C195 1.350 . S
C201 H188 0.929 . S
C201 C193 1.433 . S
C201 N203 1.384 . S
N202 C198 1.427 . S
N202 C199 1.384 . S
N203 C195 1.427 . S
N203 C201 1.384 . S
H204 C210 0.930 . S
H205 C214 0.930 . S
H206 C219 0.929 . S
H207 C217 0.929 . S
H208 C212 0.929 . S
H209 C218 0.929 . S
C210 H204 0.930 . S
C210 C211 1.367 . S
C210 C218 1.378 . S
C211 C210 1.367 . S
C211 C219 1.433 . S
C212 H208 0.929 . S
C212 C214 1.378 . S
C212 C216 1.350 . S
C213 C216 1.463 1_556 S
C213 C218 1.350 . S
C213 N221 1.427 . S
C214 H205 0.930 . S
C214 C212 1.378 . S
C214 C215 1.367 . S
C215 C214 1.367 . S
C215 C217 1.433 . S
C216 C212 1.350 . S
C216 C213 1.463 1_554 S
C216 N220 1.427 . S
C217 H207 0.929 . S
C217 C215 1.433 . S
C217 N220 1.384 . S
C218 H209 0.929 . S
C218 C210 1.378 . S
C218 C213 1.350 . S
C219 H206 0.929 . S
C219 C211 1.433 . S
C219 N221 1.384 . S
N220 C216 1.427 . S
N220 C217 1.384 . S
N221 C213 1.427 . S
N221 C219 1.384 . S
H222 C228 0.930 . S
H223 C232 0.930 . S
H224 C237 0.929 . S
H225 C235 0.929 . S
H226 C230 0.929 . S
H227 C236 0.929 . S
C228 H222 0.930 . S
C228 C229 1.367 . S
C228 C236 1.378 . S
C229 C228 1.367 . S
C229 C237 1.433 . S
C230 H226 0.929 . S
C230 C232 1.378 . S
C230 C234 1.350 . S
C231 C234 1.463 . S
C231 C236 1.350 . S
C231 N239 1.427 . S
C232 H223 0.930 . S
C232 C230 1.378 . S
C232 C233 1.367 . S
C233 C232 1.367 . S
C233 C235 1.433 . S
C234 C230 1.350 . S
C234 C231 1.463 . S
C234 N238 1.427 . S
C235 H225 0.929 . S
C235 C233 1.433 . S
C235 N238 1.384 . S
C236 H227 0.929 . S
C236 C228 1.378 . S
C236 C231 1.350 . S
C237 H224 0.929 . S
C237 C229 1.433 . S
C237 N239 1.384 . S
N238 C234 1.427 . S
N238 C235 1.384 . S
N239 C231 1.427 . S
N239 C237 1.384 . S
H240 C246 0.930 . S
H241 C250 0.930 . S
H242 C255 0.929 . S
H243 C253 0.929 . S
H244 C248 0.929 . S
H245 C254 0.929 . S
C246 H240 0.930 . S
C246 C247 1.367 . S
C246 C254 1.378 . S
C247 C246 1.367 . S
C247 C255 1.433 . S
C248 H244 0.929 . S
C248 C250 1.378 . S
C248 C252 1.350 . S
C249 C252 1.463 . S
C249 C254 1.350 . S
C249 N257 1.427 . S
C250 H241 0.930 . S
C250 C248 1.378 . S
C250 C251 1.367 . S
C251 C250 1.367 . S
C251 C253 1.433 . S
C252 C248 1.350 . S
C252 C249 1.463 . S
C252 N256 1.427 . S
C253 H243 0.929 . S
C253 C251 1.433 . S
C253 N256 1.384 . S
C254 H245 0.929 . S
C254 C246 1.378 . S
C254 C249 1.350 . S
C255 H242 0.929 . S
C255 C247 1.433 . S
C255 N257 1.384 . S
N256 C252 1.427 . S
N256 C253 1.384 . S
N257 C249 1.427 . S
N257 C255 1.384 . S
H258 C264 0.930 . S
H259 C268 0.930 . S
H260 C273 0.929 . S
H261 C271 0.929 . S
H262 C266 0.929 . S
H263 C272 0.929 . S
C264 H258 0.930 . S
C264 C265 1.367 . S
C264 C272 1.378 . S
C265 C264 1.367 . S
C265 C273 1.433 . S
C266 H262 0.929 . S
C266 C268 1.378 . S
C266 C270 1.350 . S
C267 C270 1.463 1_554 S
C267 C272 1.350 . S
C267 N275 1.427 . S
C268 H259 0.930 . S
C268 C266 1.378 . S
C268 C269 1.367 . S
C269 C268 1.367 . S
C269 C271 1.433 . S
C270 C266 1.350 . S
C270 C267 1.463 1_556 S
C270 N274 1.427 . S
C271 H261 0.929 . S
C271 C269 1.433 . S
C271 N274 1.384 . S
C272 H263 0.929 . S
C272 C264 1.378 . S
C272 C267 1.350 . S
C273 H260 0.929 . S
C273 C265 1.433 . S
C273 N275 1.384 . S
N274 C270 1.427 . S
N274 C271 1.384 . S
N275 C267 1.427 . S
N275 C273 1.384 . S
H276 C282 0.930 . S
H277 C286 0.930 . S
H278 C291 0.929 . S
H279 C289 0.929 . S
H280 C284 0.929 1_554 S
H281 C290 0.929 1_556 S
C282 H276 0.930 . S
C282 C283 1.367 . S
C282 C290 1.378 . S
C283 C282 1.367 . S
C283 C291 1.433 . S
C284 H280 0.929 1_556 S
C284 C286 1.378 . S
C284 C288 1.350 . S
C285 C288 1.463 1_554 S
C285 C290 1.350 . S
C285 N293 1.427 . S
C286 H277 0.930 . S
C286 C284 1.378 . S
C286 C287 1.367 . S
C287 C286 1.367 . S
C287 C289 1.433 . S
C288 C284 1.350 . S
C288 C285 1.463 1_556 S
C288 N292 1.427 . S
C289 H279 0.929 . S
C289 C287 1.433 . S
C289 N292 1.384 . S
C290 H281 0.929 1_554 S
C290 C282 1.378 . S
C290 C285 1.350 . S
C291 H278 0.929 . S
C291 C283 1.433 . S
C291 N293 1.384 . S
N292 C288 1.427 . S
N292 C289 1.384 . S
N293 C285 1.427 . S
N293 C291 1.384 . S
H294 C300 0.930 . S
H295 C304 0.930 . S
H296 C309 0.929 . S
H297 C307 0.929 . S
H298 C302 0.929 . S
H299 C308 0.929 . S
C300 H294 0.930 . S
C300 C301 1.367 . S
C300 C308 1.378 . S
C301 C300 1.367 . S
C301 C309 1.433 . S
C302 H298 0.929 . S
C302 C304 1.378 . S
C302 C306 1.350 . S
C303 C306 1.463 . S
C303 C308 1.350 . S
C303 N311 1.427 . S
C304 H295 0.930 . S
C304 C302 1.378 . S
C304 C305 1.367 . S
C305 C304 1.367 . S
C305 C307 1.433 . S
C306 C302 1.350 . S
C306 C303 1.463 . S
C306 N310 1.427 . S
C307 H297 0.929 . S
C307 C305 1.433 . S
C307 N310 1.384 . S
C308 H299 0.929 . S
C308 C300 1.378 . S
C308 C303 1.350 . S
C309 H296 0.929 . S
C309 C301 1.433 . S
C309 N311 1.384 . S
N310 C306 1.427 . S
N310 C307 1.384 . S
N311 C303 1.427 . S
N311 C309 1.384 . S
H312 C318 0.930 . S
H313 C322 0.930 . S
H314 C327 0.929 . S
H315 C325 0.929 . S
H316 C320 0.929 . S
H317 C326 0.929 . S
C318 H312 0.930 . S
C318 C319 1.367 . S
C318 C326 1.378 . S
C319 C318 1.367 . S
C319 C327 1.433 . S
C320 H316 0.929 . S
C320 C322 1.378 . S
C320 C324 1.350 . S
C321 C324 1.463 . S
C321 C326 1.350 . S
C321 N329 1.427 . S
C322 H313 0.930 . S
C322 C320 1.378 . S
C322 C323 1.367 . S
C323 C322 1.367 . S
C323 C325 1.433 . S
C324 C320 1.350 . S
C324 C321 1.463 . S
C324 N328 1.427 . S
C325 H315 0.929 . S
C325 C323 1.433 . S
C325 N328 1.384 . S
C326 H317 0.929 . S
C326 C318 1.378 . S
C326 C321 1.350 . S
C327 H314 0.929 . S
C327 C319 1.433 . S
C327 N329 1.384 . S
N328 C324 1.427 . S
N328 C325 1.384 . S
N329 C321 1.427 . S
N329 C327 1.384 . S
H330 C336 0.930 . S
H331 C340 0.930 . S
H332 C345 0.929 . S
H333 C343 0.929 . S
H334 C338 0.929 . S
H335 C344 0.929 . S
C336 H330 0.930 . S
C336 C337 1.367 . S
C336 C344 1.378 . S
C337 C336 1.367 . S
C337 C345 1.433 1_554 S
C338 H334 0.929 . S
C338 C340 1.378 . S
C338 C342 1.350 . S
C339 C342 1.463 1_554 S
C339 C344 1.350 . S
C339 N347 1.427 1_554 S
C340 H331 0.930 . S
C340 C338 1.378 . S
C340 C341 1.367 . S
C341 C340 1.367 . S
C341 C343 1.433 1_556 S
C342 C338 1.350 . S
C342 C339 1.463 1_556 S
C342 N346 1.427 1_556 S
C343 H333 0.929 . S
C343 C341 1.433 1_554 S
C343 N346 1.384 . S
C344 H335 0.929 . S
C344 C336 1.378 . S
C344 C339 1.350 . S
C345 H332 0.929 . S
C345 C337 1.433 1_556 S
C345 N347 1.384 . S
N346 C342 1.427 1_554 S
N346 C343 1.384 . S
N347 C339 1.427 1_556 S
N347 C345 1.384 . S
H348 C354 0.930 . S
H349 C358 0.930 . S
H350 C363 0.929 . S
H351 C361 0.929 . S
H352 C356 0.929 . S
H353 C362 0.929 . S
C354 H348 0.930 . S
C354 C355 1.367 . S
C354 C362 1.378 . S
C355 C354 1.367 . S
C355 C363 1.433 . S
C356 H352 0.929 . S
C356 C358 1.378 . S
C356 C360 1.350 . S
C357 C360 1.463 . S
C357 C362 1.350 . S
C357 N365 1.427 . S
C358 H349 0.930 . S
C358 C356 1.378 . S
C358 C359 1.367 . S
C359 C358 1.367 . S
C359 C361 1.433 . S
C360 C356 1.350 . S
C360 C357 1.463 . S
C360 N364 1.427 . S
C361 H351 0.929 . S
C361 C359 1.433 . S
C361 N364 1.384 . S
C362 H353 0.929 . S
C362 C354 1.378 . S
C362 C357 1.350 . S
C363 H350 0.929 . S
C363 C355 1.433 . S
C363 N365 1.384 . S
N364 C360 1.427 . S
N364 C361 1.384 . S
N365 C357 1.427 . S
N365 C363 1.384 . S
H366 C372 0.930 . S
H367 C376 0.930 . S
H368 C381 0.929 . S
H369 C379 0.929 . S
H370 C374 0.929 . S
H371 C380 0.929 . S
C372 H366 0.930 . S
C372 C373 1.367 . S
C372 C380 1.378 . S
C373 C372 1.367 . S
C373 C381 1.433 . S
C374 H370 0.929 . S
C374 C376 1.378 . S
C374 C378 1.350 . S
C375 C378 1.463 . S
C375 C380 1.350 . S
C375 N383 1.427 . S
C376 H367 0.930 . S
C376 C374 1.378 . S
C376 C377 1.367 . S
C377 C376 1.367 . S
C377 C379 1.433 . S
C378 C374 1.350 . S
C378 C375 1.463 . S
C378 N382 1.427 . S
C379 H369 0.929 . S
C379 C377 1.433 . S
C379 N382 1.384 . S
C380 H371 0.929 . S
C380 C372 1.378 . S
C380 C375 1.350 . S
C381 H368 0.929 . S
C381 C373 1.433 . S
C381 N383 1.384 . S
N382 C378 1.427 . S
N382 C379 1.384 . S
N383 C375 1.427 . S
N383 C381 1.384 . S
H384 C390 0.930 . S
H385 C394 0.930 . S
H386 C399 0.929 . S
H387 C397 0.929 . S
H388 C392 0.929 . S
H389 C398 0.929 . S
C390 H384 0.930 . S
C390 C391 1.367 . S
C390 C398 1.378 . S
C391 C390 1.367 . S
C391 C399 1.433 . S
C392 H388 0.929 . S
C392 C394 1.378 . S
C392 C396 1.350 . S
C393 C396 1.463 . S
C393 C398 1.350 . S
C393 N401 1.427 . S
C394 H385 0.930 . S
C394 C392 1.378 . S
C394 C395 1.367 . S
C395 C394 1.367 . S
C395 C397 1.433 . S
C396 C392 1.350 . S
C396 C393 1.463 . S
C396 N400 1.427 . S
C397 H387 0.929 . S
C397 C395 1.433 . S
C397 N400 1.384 . S
C398 H389 0.929 . S
C398 C390 1.378 . S
C398 C393 1.350 . S
C399 H386 0.929 . S
C399 C391 1.433 . S
C399 N401 1.384 . S
N400 C396 1.427 . S
N400 C397 1.384 . S
N401 C393 1.427 . S
N401 C399 1.384 . S
H402 C408 0.930 . S
H403 C412 0.930 . S
H404 C417 0.929 . S
H405 C415 0.929 . S
H406 C410 0.929 . S
H407 C416 0.929 . S
C408 H402 0.930 . S
C408 C409 1.367 . S
C408 C416 1.378 . S
C409 C408 1.367 . S
C409 C417 1.433 . S
C410 H406 0.929 . S
C410 C412 1.378 . S
C410 C414 1.350 . S
C411 C414 1.463 1_655 S
C411 C416 1.350 . S
C411 N419 1.427 . S
C412 H403 0.930 . S
C412 C410 1.378 . S
C412 C413 1.367 . S
C413 C412 1.367 . S
C413 C415 1.433 . S
C414 C410 1.350 . S
C414 C411 1.463 1_455 S
C414 N418 1.427 . S
C415 H405 0.929 . S
C415 C413 1.433 . S
C415 N418 1.384 . S
C416 H407 0.929 . S
C416 C408 1.378 . S
C416 C411 1.350 . S
C417 H404 0.929 . S
C417 C409 1.433 . S
C417 N419 1.384 . S
N418 C414 1.427 . S
N418 C415 1.384 . S
N419 C411 1.427 . S
N419 C417 1.384 . S
H420 C426 0.930 . S
H421 C430 0.930 . S
H422 C435 0.929 . S
H423 C433 0.929 . S
H424 C428 0.929 . S
H425 C434 0.929 . S
C426 H420 0.930 . S
C426 C427 1.367 . S
C426 C434 1.378 . S
C427 C426 1.367 . S
C427 C435 1.433 . S
C428 H424 0.929 . S
C428 C430 1.378 . S
C428 C432 1.350 . S
C429 C432 1.463 1_545 S
C429 C434 1.350 . S
C429 N437 1.427 . S
C430 H421 0.930 . S
C430 C428 1.378 . S
C430 C431 1.367 . S
C431 C430 1.367 . S
C431 C433 1.433 . S
C432 C428 1.350 . S
C432 C429 1.463 1_565 S
C432 N436 1.427 . S
C433 H423 0.929 . S
C433 C431 1.433 . S
C433 N436 1.384 . S
C434 H425 0.929 . S
C434 C426 1.378 . S
C434 C429 1.350 . S
C435 H422 0.929 . S
C435 C427 1.433 . S
C435 N437 1.384 . S
N436 C432 1.427 . S
N436 C433 1.384 . S
N437 C429 1.427 . S
N437 C435 1.384 . S
H438 C444 0.930 . S
H439 C448 0.930 . S
H440 C453 0.929 . S
H441 C451 0.929 . S
H442 C446 0.929 . S
H443 C452 0.929 . S
C444 H438 0.930 . S
C444 C445 1.367 . S
C444 C452 1.378 . S
C445 C444 1.367 . S
C445 C453 1.433 . S
C446 H442 0.929 . S
C446 C448 1.378 . S
C446 C450 1.350 . S
C447 C450 1.463 . S
C447 C452 1.350 . S
C447 N455 1.427 . S
C448 H439 0.930 . S
C448 C446 1.378 . S
C448 C449 1.367 . S
C449 C448 1.367 . S
C449 C451 1.433 . S
C450 C446 1.350 . S
C450 C447 1.463 . S
C450 N454 1.427 . S
C451 H441 0.929 . S
C451 C449 1.433 . S
C451 N454 1.384 . S
C452 H443 0.929 . S
C452 C444 1.378 . S
C452 C447 1.350 . S
C453 H440 0.929 . S
C453 C445 1.433 . S
C453 N455 1.384 . S
N454 C450 1.427 . S
N454 C451 1.384 . S
N455 C447 1.427 . S
N455 C453 1.384 . S
H456 C462 0.930 . S
H457 C466 0.930 1_554 S
H458 C471 0.929 1_554 S
H459 C469 0.929 . S
H460 C464 0.929 1_554 S
H461 C470 0.929 . S
C462 H456 0.930 . S
C462 C463 1.367 . S
C462 C470 1.378 . S
C463 C462 1.367 . S
C463 C471 1.433 . S
C464 H460 0.929 1_556 S
C464 C466 1.378 . S
C464 C468 1.350 . S
C465 C468 1.463 1_455 S
C465 C470 1.350 . S
C465 N473 1.427 . S
C466 H457 0.930 1_556 S
C466 C464 1.378 . S
C466 C467 1.367 . S
C467 C466 1.367 . S
C467 C469 1.433 . S
C468 C464 1.350 . S
C468 C465 1.463 1_655 S
C468 N472 1.427 . S
C469 H459 0.929 . S
C469 C467 1.433 . S
C469 N472 1.384 . S
C470 H461 0.929 . S
C470 C462 1.378 . S
C470 C465 1.350 . S
C471 H458 0.929 1_556 S
C471 C463 1.433 . S
C471 N473 1.384 . S
N472 C468 1.427 . S
N472 C469 1.384 . S
N473 C465 1.427 . S
N473 C471 1.384 . S
H474 C480 0.930 . S
H475 C484 0.930 . S
H476 C489 0.929 . S
H477 C487 0.929 . S
H478 C482 0.929 . S
H479 C488 0.929 . S
C480 H474 0.930 . S
C480 C481 1.367 . S
C480 C488 1.378 . S
C481 C480 1.367 . S
C481 C489 1.433 . S
C482 H478 0.929 . S
C482 C484 1.378 . S
C482 C486 1.350 . S
C483 C486 1.463 1_565 S
C483 C488 1.350 . S
C483 N491 1.427 . S
C484 H475 0.930 . S
C484 C482 1.378 . S
C484 C485 1.367 . S
C485 C484 1.367 . S
C485 C487 1.433 . S
C486 C482 1.350 . S
C486 C483 1.463 1_545 S
C486 N490 1.427 . S
C487 H477 0.929 . S
C487 C485 1.433 . S
C487 N490 1.384 . S
C488 H479 0.929 . S
C488 C480 1.378 . S
C488 C483 1.350 . S
C489 H476 0.929 . S
C489 C481 1.433 . S
C489 N491 1.384 . S
N490 C486 1.427 . S
N490 C487 1.384 . S
N491 C483 1.427 . S
N491 C489 1.384 . S
H492 C498 0.930 . S
H493 C502 0.930 . S
H494 C507 0.929 . S
H495 C505 0.929 . S
H496 C500 0.929 . S
H497 C506 0.929 . S
C498 H492 0.930 . S
C498 C499 1.367 . S
C498 C506 1.378 . S
C499 C498 1.367 . S
C499 C507 1.433 . S
C500 H496 0.929 . S
C500 C502 1.378 . S
C500 C504 1.350 . S
C501 C504 1.463 . S
C501 C506 1.350 . S
C501 N509 1.427 . S
C502 H493 0.930 . S
C502 C500 1.378 . S
C502 C503 1.367 . S
C503 C502 1.367 . S
C503 C505 1.433 . S
C504 C500 1.350 . S
C504 C501 1.463 . S
C504 N508 1.427 . S
C505 H495 0.929 . S
C505 C503 1.433 . S
C505 N508 1.384 . S
C506 H497 0.929 . S
C506 C498 1.378 . S
C506 C501 1.350 . S
C507 H494 0.929 . S
C507 C499 1.433 . S
C507 N509 1.384 . S
N508 C504 1.427 . S
N508 C505 1.384 . S
N509 C501 1.427 . S
N509 C507 1.384 . S
H510 C516 0.930 . S
H511 C520 0.930 . S
H512 C525 0.929 . S
H513 C523 0.929 . S
H514 C518 0.929 . S
H515 C524 0.929 . S
C516 H510 0.930 . S
C516 C517 1.367 . S
C516 C524 1.378 . S
C517 C516 1.367 . S
C517 C525 1.433 . S
C518 H514 0.929 . S
C518 C520 1.378 . S
C518 C522 1.350 . S
C519 C522 1.463 . S
C519 C524 1.350 . S
C519 N527 1.427 . S
C520 H511 0.930 . S
C520 C518 1.378 . S
C520 C521 1.367 . S
C521 C520 1.367 . S
C521 C523 1.433 . S
C522 C518 1.350 . S
C522 C519 1.463 . S
C522 N526 1.427 . S
C523 H513 0.929 . S
C523 C521 1.433 . S
C523 N526 1.384 . S
C524 H515 0.929 . S
C524 C516 1.378 . S
C524 C519 1.350 . S
C525 H512 0.929 . S
C525 C517 1.433 . S
C525 N527 1.384 . S
N526 C522 1.427 . S
N526 C523 1.384 . S
N527 C519 1.427 . S
N527 C525 1.384 . S
H528 C534 0.930 . S
H529 C538 0.930 . S
H530 C543 0.929 . S
H531 C541 0.929 . S
H532 C536 0.929 . S
H533 C542 0.929 . S
C534 H528 0.930 . S
C534 C535 1.367 . S
C534 C542 1.378 . S
C535 C534 1.367 . S
C535 C543 1.433 . S
C536 H532 0.929 . S
C536 C538 1.378 . S
C536 C540 1.350 . S
C537 C540 1.463 . S
C537 C542 1.350 . S
C537 N545 1.427 . S
C538 H529 0.930 . S
C538 C536 1.378 . S
C538 C539 1.367 . S
C539 C538 1.367 . S
C539 C541 1.433 . S
C540 C536 1.350 . S
C540 C537 1.463 . S
C540 N544 1.427 . S
C541 H531 0.929 . S
C541 C539 1.433 . S
C541 N544 1.384 . S
C542 H533 0.929 . S
C542 C534 1.378 . S
C542 C537 1.350 . S
C543 H530 0.929 . S
C543 C535 1.433 . S
C543 N545 1.384 . S
N544 C540 1.427 . S
N544 C541 1.384 . S
N545 C537 1.427 . S
N545 C543 1.384 . S
H546 C552 0.930 . S
H547 C556 0.930 . S
H548 C561 0.929 . S
H549 C559 0.929 . S
H550 C554 0.929 . S
H551 C560 0.929 . S
C552 H546 0.930 . S
C552 C553 1.367 . S
C552 C560 1.378 . S
C553 C552 1.367 . S
C553 C561 1.433 . S
C554 H550 0.929 . S
C554 C556 1.378 . S
C554 C558 1.350 . S
C555 C558 1.463 . S
C555 C560 1.350 . S
C555 N563 1.427 . S
C556 H547 0.930 . S
C556 C554 1.378 . S
C556 C557 1.367 . S
C557 C556 1.367 . S
C557 C559 1.433 . S
C558 C554 1.350 . S
C558 C555 1.463 . S
C558 N562 1.427 . S
C559 H549 0.929 . S
C559 C557 1.433 . S
C559 N562 1.384 . S
C560 H551 0.929 . S
C560 C552 1.378 . S
C560 C555 1.350 . S
C561 H548 0.929 . S
C561 C553 1.433 . S
C561 N563 1.384 . S
N562 C558 1.427 . S
N562 C559 1.384 . S
N563 C555 1.427 . S
N563 C561 1.384 . S
H564 C570 0.930 . S
H565 C574 0.930 . S
H566 C579 0.929 . S
H567 C577 0.929 . S
H568 C572 0.929 . S
H569 C578 0.929 . S
C570 H564 0.930 . S
C570 C571 1.367 . S
C570 C578 1.378 . S
C571 C570 1.367 . S
C571 C579 1.433 . S
C572 H568 0.929 . S
C572 C574 1.378 . S
C572 C576 1.350 . S
C573 C576 1.463 . S
C573 C578 1.350 . S
C573 N581 1.427 . S
C574 H565 0.930 . S
C574 C572 1.378 . S
C574 C575 1.367 . S
C575 C574 1.367 . S
C575 C577 1.433 . S
C576 C572 1.350 . S
C576 C573 1.463 . S
C576 N580 1.427 . S
C577 H567 0.929 . S
C577 C575 1.433 . S
C577 N580 1.384 . S
C578 H569 0.929 . S
C578 C570 1.378 . S
C578 C573 1.350 . S
C579 H566 0.929 . S
C579 C571 1.433 . S
C579 N581 1.384 . S
N580 C576 1.427 . S
N580 C577 1.384 . S
N581 C573 1.427 . S
N581 C579 1.384 . S
H582 C588 0.930 . S
H583 C592 0.930 . S
H584 C597 0.929 . S
H585 C595 0.929 . S
H586 C590 0.929 . S
H587 C596 0.929 . S
C588 H582 0.930 . S
C588 C589 1.367 . S
C588 C596 1.378 . S
C589 C588 1.367 . S
C589 C597 1.433 . S
C590 H586 0.929 . S
C590 C592 1.378 . S
C590 C594 1.350 . S
C591 C594 1.463 . S
C591 C596 1.350 . S
C591 N599 1.427 . S
C592 H583 0.930 . S
C592 C590 1.378 . S
C592 C593 1.367 . S
C593 C592 1.367 . S
C593 C595 1.433 . S
C594 C590 1.350 . S
C594 C591 1.463 . S
C594 N598 1.427 . S
C595 H585 0.929 . S
C595 C593 1.433 . S
C595 N598 1.384 . S
C596 H587 0.929 . S
C596 C588 1.378 . S
C596 C591 1.350 . S
C597 H584 0.929 . S
C597 C589 1.433 . S
C597 N599 1.384 . S
N598 C594 1.427 . S
N598 C595 1.384 . S
N599 C591 1.427 . S
N599 C597 1.384 . S
C175 C6 1.461 . S
C179 C90 1.458 . S
C193 C20 1.458 . S
C197 C104 1.459 . S
C211 C34 1.459 . S
C215 C118 1.463 . S
C229 C48 1.465 . S
C233 C132 1.461 . S
C247 C62 1.458 . S
C251 C146 1.459 . S
C265 C160 1.459 . S
C269 C76 1.463 . S
C283 C7 1.398 . S
C287 C147 1.396 . S
C301 C21 1.394 . S
C305 C161 1.393 . S
C319 C35 1.402 . S
C323 C91 1.401 . S
C337 C49 1.401 . S
C341 C105 1.402 . S
C355 C63 1.396 . S
C359 C119 1.398 . S
C373 C77 1.395 . S
C377 C133 1.395 . S
C391 C8 1.264 . S
C395 C50 1.263 . S
C409 C22 1.246 . S
C413 C64 1.241 . S
C427 C78 1.242 . S
C431 C36 1.247 . S
C445 C92 1.249 . S
C449 C134 1.256 . S
C463 C148 1.255 . S
C467 C106 1.261 . S
C481 C120 1.249 . S
C485 C162 1.256 . S
C499 C93 1.219 . S
C503 C9 1.219 . S
C517 C23 1.219 . S
C521 C107 1.219 . S
C535 C37 1.226 . S
C539 C121 1.226 . S
C553 C135 1.228 . S
C557 C51 1.228 . S
C571 C149 1.219 . S
C575 C65 1.219 . S
C589 C79 1.222 . S
C593 C163 1.222 . S
