# Generated by pormake.
# Topology wje, (4)-cn, num edge types: 1
# Building blocks:
#     Node 0, Type 0, BuildingBlock: ICAMEG_clean_sbu_1, # of connection points: 4
#     Node 1, Type 0, BuildingBlock: ICAMEG_clean_sbu_1, # of connection points: 4
#     Node 2, Type 0, BuildingBlock: ICAMEG_clean_sbu_1, # of connection points: 4
#     Node 3, Type 0, BuildingBlock: ICAMEG_clean_sbu_1, # of connection points: 4
#     Node 4, Type 0, BuildingBlock: ICAMEG_clean_sbu_1, # of connection points: 4
#     Node 5, Type 0, BuildingBlock: ICAMEG_clean_sbu_1, # of connection points: 4
#     Node 6, Type 0, BuildingBlock: ICAMEG_clean_sbu_1, # of connection points: 4
#     Node 7, Type 0, BuildingBlock: ICAMEG_clean_sbu_1, # of connection points: 4
#     Node 8, Type 0, BuildingBlock: ICAMEG_clean_sbu_1, # of connection points: 4
#     Node 9, Type 0, BuildingBlock: ICAMEG_clean_sbu_1, # of connection points: 4
#     Node 10, Type 0, BuildingBlock: ICAMEG_clean_sbu_1, # of connection points: 4
#     Node 11, Type 0, BuildingBlock: ICAMEG_clean_sbu_1, # of connection points: 4
#     Edge 12, Type (0, 0), None
#     Edge 13, Type (0, 0), None
#     Edge 14, Type (0, 0), None
#     Edge 15, Type (0, 0), None
#     Edge 16, Type (0, 0), None
#     Edge 17, Type (0, 0), None
#     Edge 18, Type (0, 0), None
#     Edge 19, Type (0, 0), None
#     Edge 20, Type (0, 0), None
#     Edge 21, Type (0, 0), None
#     Edge 22, Type (0, 0), None
#     Edge 23, Type (0, 0), None
#     Edge 24, Type (0, 0), None
#     Edge 25, Type (0, 0), None
#     Edge 26, Type (0, 0), None
#     Edge 27, Type (0, 0), None
#     Edge 28, Type (0, 0), None
#     Edge 29, Type (0, 0), None
#     Edge 30, Type (0, 0), None
#     Edge 31, Type (0, 0), None
#     Edge 32, Type (0, 0), None
#     Edge 33, Type (0, 0), None
#     Edge 34, Type (0, 0), None
#     Edge 35, Type (0, 0), None
# Relax obj value: 0.100
# Max RMSD: 0.099
# Mean RMSD: 0.099
data_MOF--net-wje--node1-ICAMEG_clean_sbu_1--edge1-none
_symmetry_space_group_name_H-M    P1
_symmetry_Int_Tables_number       1
_symmetry_cell_setting            triclinic
loop_
_symmetry_equiv_pos_as_xyz
'x, y, z'
_cell_length_a     22.162631
_cell_length_b     22.217344
_cell_length_c     19.493008
_cell_angle_alpha  90.283598
_cell_angle_beta   89.088215
_cell_angle_gamma 120.66305
loop_
_atom_site_label
_atom_site_type_symbol
_atom_site_fract_x
_atom_site_fract_y
_atom_site_fract_z
_atom_type_partial_charge
Co0 Co 0.27538 0.90036 0.34226 0.0
Co1 Co 0.21272 0.01207 0.34786 0.0
O2 O 0.27911 -0.01456 0.30673 0.0
C3 C 0.4188 0.96207 0.28441 0.0
O4 O 0.40054 -0.01912 0.22834 0.0
C5 C 0.22248 0.07309 0.19561 0.0
O6 O 0.22084 0.02074 0.16279 0.0
O7 O 0.12904 0.9215 0.3143 0.0
O8 O 0.17015 0.85258 0.34848 0.0
H9 H -0.01667 -0.03197 0.44732 0.0
H10 H 0.19931 0.90559 0.22095 0.0
O11 O 0.37955 0.94322 0.33754 0.0
H12 H 0.35377 0.82535 0.12961 0.0
H13 H 0.33573 0.71125 0.39339 0.0
H14 H 0.18859 0.81017 0.45336 0.0
H15 H 0.32988 0.81984 0.2499 0.0
H16 H 0.36393 0.82546 0.34708 0.0
O17 O 0.22019 0.07263 0.262 0.0
H18 H 0.06928 0.93445 0.41255 0.0
H19 H 0.22071 0.14778 0.37368 0.0
H20 H 0.18368 0.7182 0.52384 0.0
H21 H 0.22596 0.91563 0.09842 0.0
H22 H 0.24547 0.65731 0.48556 0.0
H23 H 0.31323 0.88576 0.05387 0.0
O24 O 0.28893 0.93866 0.43668 0.0
H25 H 0.45717 0.21767 0.33456 0.0
H26 H 0.2523 0.07782 0.48602 0.0
H27 H 0.36285 0.1649 0.53572 0.0
H28 H 0.46683 0.23448 0.46116 0.0
H29 H 0.34706 0.12264 0.28709 0.0
H30 H 0.14009 0.18296 0.41874 0.0
H31 H 0.01554 0.0918 0.43917 0.0
O32 O 0.20245 0.96082 0.43788 0.0
C33 C 0.11944 0.86119 0.33174 0.0
C34 C 0.03563 0.00737 0.43195 0.0
C35 C 0.12363 0.12821 0.4168 0.0
N36 N 0.14963 0.03889 0.38836 0.0
C37 C 0.08456 -0.01107 0.41152 0.0
C38 C 0.16986 0.10794 0.39252 0.0
C39 C 0.05456 0.07727 0.43097 0.0
C40 C 0.23212 0.88641 0.20229 0.0
N41 N 0.26515 0.86538 0.24675 0.0
C42 C 0.24781 0.89328 0.13211 0.0
C43 C 0.29527 0.87518 0.10667 0.0
C44 C 0.31893 0.84229 0.14943 0.0
C45 C 0.30291 0.83738 0.21937 0.0
C46 C 0.30495 0.73439 0.40779 0.0
C47 C 0.22162 0.78951 0.43893 0.0
C48 C 0.31635 0.79593 0.37657 0.0
N49 N 0.2689 0.81767 0.38548 0.0
C50 C 0.21721 0.73589 0.47902 0.0
C51 C 0.25438 0.70394 0.45934 0.0
C52 C 0.24595 0.94981 0.46932 0.0
C53 C 0.41248 0.18649 0.36804 0.0
C54 C 0.29748 0.10679 0.45261 0.0
C55 C 0.36013 0.15633 0.48124 0.0
C56 C 0.41789 0.19618 0.4388 0.0
N57 N 0.29366 0.09381 0.38385 0.0
C58 C 0.34977 0.13347 0.3414 0.0
Co59 Co 0.35636 0.29369 0.6606 0.0
Co60 Co 0.17681 0.23039 0.67745 0.0
O61 O 0.26935 0.29328 0.63558 0.0
C62 C 0.4359 0.43809 0.60718 0.0
O63 O 0.39996 0.42324 0.55051 0.0
C64 C 0.12524 0.25115 0.53187 0.0
O65 O 0.18462 0.30984 0.52077 0.0
O66 O 0.18612 0.14377 0.6627 0.0
O67 O 0.30317 0.18851 0.66503 0.0
H68 H 0.94227 0.01239 0.71698 0.0
H69 H 0.26122 0.22614 0.54204 0.0
O70 O 0.41166 0.39838 0.65952 0.0
H71 H 0.49269 0.37103 0.43241 0.0
H72 H 0.6222 0.39588 0.67521 0.0
H73 H 0.38843 0.20988 0.75359 0.0
H74 H 0.48336 0.33569 0.55022 0.0
H75 H 0.51812 0.39475 0.64014 0.0
O76 O 0.11997 0.21365 0.58544 0.0
H77 H 0.05673 0.08528 0.65655 0.0
H78 H 0.11322 0.24361 0.80634 0.0
H79 H 0.49658 0.2157 0.7978 0.0
H80 H 0.26908 0.25965 0.42163 0.0
H81 H 0.6123 0.30475 0.75498 0.0
H82 H 0.38502 0.33454 0.36588 0.0
O83 O 0.33772 0.29831 0.76336 0.0
H84 H 0.08883 0.39917 0.64166 0.0
H85 H 0.26986 0.3668 0.7457 0.0
H86 H 0.27261 0.47533 0.76273 0.0
H87 H 0.18239 0.49448 0.71011 0.0
H88 H 0.07889 0.28509 0.63905 0.0
H89 H 0.00211 0.16987 0.86874 0.0
H90 H 0.91422 0.05513 0.82022 0.0
O91 O 0.22044 0.24088 0.76927 0.0
C92 C 0.24005 0.1363 0.6658 0.0
C93 C -0.01894 0.06195 0.7372 0.0
C94 C 0.01339 0.15126 0.82202 0.0
N95 N 0.08916 0.17083 0.72515 0.0
C96 C 0.04509 0.10413 0.70319 0.0
C97 C 0.07595 0.19287 0.78601 0.0
C98 C -0.03521 0.08641 0.79594 0.0
C99 C 0.31259 0.26068 0.52013 0.0
N100 N 0.37157 0.28869 0.55981 0.0
C101 C 0.31635 0.27806 0.45071 0.0
C102 C 0.38133 0.32048 0.41951 0.0
C103 C 0.44156 0.34157 0.45705 0.0
C104 C 0.43561 0.32234 0.52628 0.0
C105 C 0.5711 0.35347 0.69133 0.0
C106 C 0.43933 0.24973 0.73499 0.0
C107 C 0.51011 0.35121 0.66993 0.0
N108 N 0.44413 0.29673 0.68712 0.0
C109 C 0.49971 0.25199 0.7598 0.0
C110 C 0.56565 0.30292 0.73632 0.0
C111 C 0.27977 0.26988 0.79801 0.0
C112 C 0.12721 0.39116 0.66715 0.0
C113 C 0.22627 0.36998 0.72756 0.0
C114 C 0.22926 0.43359 0.73601 0.0
C115 C 0.17943 0.44447 0.70552 0.0
N116 N 0.17222 0.31552 0.69374 0.0
C117 C 0.12285 0.32619 0.66423 0.0
Co118 Co 0.01593 0.35999 0.99284 0.0
Co119 Co 0.90159 0.18411 0.01717 0.0
O120 O 0.931 0.2728 0.97307 0.0
C121 C -0.02057 0.46245 0.03499 0.0
O122 O 0.01956 0.4744 0.08786 0.0
C123 C 0.84978 0.13361 0.86488 0.0
O124 O 0.8986 0.19162 0.83644 0.0
O125 O -0.0034 0.1915 0.99381 0.0
O126 O 0.06974 0.30912 0.99657 0.0
H127 H 0.9328 0.00283 0.13833 0.0
H128 H 0.0665 0.30297 0.8777 0.0
O129 O -0.03696 0.41056 0.99567 0.0
H130 H -0.04611 0.41475 0.76204 0.0
H131 H 0.18409 0.61808 0.95073 0.0
H132 H 0.13445 0.41218 0.08905 0.0
H133 H -0.0211 0.43535 0.8827 0.0
H134 H 0.08473 0.50363 0.92568 0.0
O135 O 0.84919 0.12684 0.93056 0.0
H136 H -0.02698 0.1173 0.08674 0.0
H137 H 0.76137 0.05875 0.04913 0.0
H138 H 0.23321 0.53119 0.11984 0.0
H139 H 0.02785 0.27294 0.75992 0.0
H140 H 0.25935 0.63299 0.0497 0.0
H141 H -0.02745 0.32873 0.70065 0.0
O142 O 8e-05 0.34636 0.09684 0.0
H143 H 0.70174 0.21733 0.95889 0.0
H144 H 0.81868 0.17059 0.14718 0.0
H145 H 0.71625 0.18193 0.17118 0.0
H146 H 0.66006 0.2109 0.0793 0.0
H147 H 0.80356 0.20598 0.93549 0.0
H148 H 0.72012 0.95176 0.11455 0.0
H149 H 0.80656 0.92323 0.16097 0.0
O150 O 0.94239 0.22977 0.10681 0.0
C151 C 0.0591 0.2464 0.99647 0.0
C152 C 0.89519 0.01689 0.12254 0.0
C153 C 0.77575 -0.01232 0.10887 0.0
N154 N 0.86974 0.09599 0.06428 0.0
C155 C 0.91742 0.08078 0.09038 0.0
C156 C 0.79964 0.04969 0.07274 0.0
C157 C 0.82403 -0.02876 0.13369 0.0
C158 C 0.04197 0.32847 0.85461 0.0
N159 N 0.02453 0.36998 0.89172 0.0
C160 C 0.0217 0.31183 0.78645 0.0
C161 C -0.01097 0.34212 0.75327 0.0
C162 C -0.02212 0.3898 0.78814 0.0
C163 C -0.00611 0.40169 0.8576 0.0
C164 C 0.17375 0.57347 0.98177 0.0
C165 C 0.14529 0.45735 0.05901 0.0
C166 C 0.11731 0.50715 0.96715 0.0
N167 N 0.10287 0.4497 1.00583 0.0
C168 C 0.20138 0.52371 0.07603 0.0
C169 C 0.21593 0.58174 0.0369 0.0
C170 C -0.02837 0.29033 0.13341 0.0
C171 C 0.72732 0.20778 1.00071 0.0
C172 C 0.79414 0.18192 0.10571 0.0
C173 C 0.7374 0.19056 0.12028 0.0
C174 C 0.70449 0.20465 0.06792 0.0
N175 N 0.8167 0.18559 0.03958 0.0
C176 C 0.78421 0.19906 0.9876 0.0
Co177 Co 0.62012 0.02709 0.34266 0.0
Co178 Co 0.69438 0.92408 0.34301 0.0
O179 O 0.62848 0.94921 0.30794 0.0
C180 C 0.47893 0.95156 0.28331 0.0
O181 O 0.50011 0.93791 0.22519 0.0
C182 C 0.65351 0.84872 0.20488 0.0
O183 O 0.59099 0.84016 0.21579 0.0
O184 O 0.77637 0.02318 0.32541 0.0
O185 O 0.72655 0.08854 0.34672 0.0
H186 H 0.91599 0.91894 0.32894 0.0
H187 H 0.68436 0.01567 0.20932 0.0
O188 O 0.51536 0.96537 0.33714 0.0
H189 H 0.53304 0.10947 0.14882 0.0
H190 H 0.47054 0.11758 0.43277 0.0
H191 H 0.7118 0.1829 0.37704 0.0
H192 H 0.56473 0.10924 0.26777 0.0
H193 H 0.50171 0.03021 0.41781 0.0
O194 O 0.70341 0.88829 0.24625 0.0
H195 H 0.83003 0.95037 0.29181 0.0
H196 H 0.70081 0.84768 0.46596 0.0
H197 H 0.68115 0.27628 0.38578 0.0
H198 H 0.64575 0.00741 0.09031 0.0
H199 H 0.56165 0.2449 0.41205 0.0
H200 H 0.5681 0.05259 0.05956 0.0
O201 O 0.61494 -0.003 0.43963 0.0
H202 H 0.44575 0.75743 0.41198 0.0
H203 H 0.66142 0.7774 0.31767 0.0
H204 H 0.54868 0.66753 0.30075 0.0
H205 H 0.43959 0.65521 0.35199 0.0
H206 H 0.55336 0.86935 0.40885 0.0
H207 H 0.78462 0.8133 0.50376 0.0
H208 H 0.89047 0.84468 0.43121 0.0
O209 O 0.68708 0.95428 0.44044 0.0
C210 C 0.78094 0.08268 0.33601 0.0
C211 C 0.86841 0.90215 0.35864 0.0
C212 C 0.79464 0.84278 0.45692 0.0
N213 N 0.75997 0.89925 0.37593 0.0
C214 C 0.81989 0.92014 0.33827 0.0
C215 C 0.74764 0.86266 0.43555 0.0
C216 C 0.85437 0.86122 0.41701 0.0
C217 C 0.65025 0.03538 0.19716 0.0
N218 N 0.62351 0.05861 0.24777 0.0
C219 C 0.62901 0.03085 0.12918 0.0
C220 C 0.58505 0.0559 0.11192 0.0
C221 C 0.56567 0.08808 0.16192 0.0
C222 C 0.58596 0.0896 0.22974 0.0
C223 C 0.52293 0.13384 0.41518 0.0
C224 C 0.65821 0.16906 0.38212 0.0
C225 C 0.54102 0.08325 0.40511 0.0
N226 N 0.60625 0.10078 0.38066 0.0
C227 C 0.64194 0.22175 0.3909 0.0
C228 C 0.57351 0.20386 0.40528 0.0
C229 C 0.65046 -0.02382 0.47146 0.0
C230 C 0.4918 0.76109 0.3889 0.0
C231 C 0.61376 0.77322 0.33688 0.0
C232 C 0.5502 0.71073 0.3281 0.0
C233 C 0.48889 0.70413 0.35586 0.0
N234 N 0.61465 0.83098 0.36214 0.0
C235 C 0.55465 0.8247 0.38969 0.0
Co236 Co 0.57013 0.64444 0.66368 0.0
Co237 Co 0.7488 0.72331 0.68422 0.0
O238 O 0.66064 0.64957 0.64365 0.0
C239 C 0.50574 0.50069 0.61085 0.0
O240 O 0.54984 0.51921 0.55863 0.0
C241 C 0.79856 0.70159 0.54004 0.0
O242 O 0.73432 0.65552 0.52277 0.0
O243 O 0.73377 0.80142 0.65237 0.0
O244 O 0.61833 0.7486 0.67019 0.0
H245 H 0.88061 0.93501 0.82562 0.0
H246 H 0.66828 0.7292 0.55235 0.0
O247 O 0.51911 0.54018 0.6624 0.0
H248 H 0.4605 0.55215 0.43101 0.0
H249 H 0.30689 0.5422 0.65125 0.0
H250 H 0.52726 0.73012 0.7452 0.0
H251 H 0.45048 0.5794 0.5481 0.0
H252 H 0.41175 0.53586 0.64448 0.0
O253 O 0.80999 0.73364 0.59791 0.0
H254 H 0.78386 0.85322 0.7574 0.0
H255 H 0.89632 0.75223 0.69979 0.0
H256 H 0.41449 0.72273 0.7757 0.0
H257 H 0.67917 0.70439 0.43202 0.0
H258 H 0.3054 0.6342 0.72252 0.0
H259 H 0.57789 0.60632 0.3746 0.0
O260 O 0.58297 0.63868 0.76556 0.0
H261 H 0.81336 0.54531 0.63979 0.0
H262 H 0.78859 0.68845 0.81932 0.0
H263 H 0.87105 0.64726 0.83563 0.0
H264 H 0.89074 0.58349 0.74026 0.0
H265 H 0.73453 0.59147 0.62458 0.0
H266 H -0.02096 0.81439 0.79178 0.0
H267 H -0.03189 0.90403 0.85983 0.0
O268 O 0.69813 0.71597 0.77403 0.0
C269 C 0.67853 0.80413 0.66485 0.0
C270 C 0.88211 0.89183 0.80286 0.0
C271 C 0.93893 0.82608 0.78154 0.0
N272 N 0.8325 0.79515 0.72636 0.0
C273 C 0.82912 0.84743 0.75996 0.0
C274 C 0.89096 0.79001 0.73037 0.0
C275 C 0.93361 0.8768 0.81867 0.0
C276 C 0.62184 0.69089 0.52683 0.0
N277 N 0.56054 0.6508 0.5629 0.0
C278 C 0.62894 0.67633 0.45836 0.0
C279 C 0.57198 0.62198 0.42571 0.0
C280 C 0.50659 0.59099 0.4577 0.0
C281 C 0.50153 0.60742 0.52599 0.0
C282 C 0.35435 0.58266 0.67429 0.0
C283 C 0.47912 0.68837 0.72509 0.0
C284 C 0.41639 0.58183 0.66685 0.0
N285 N 0.47972 0.63813 0.68509 0.0
C286 C 0.41604 0.68583 0.74144 0.0
C287 C 0.35387 0.63463 0.71302 0.0
C288 C 0.63783 0.67566 0.8014 0.0
C289 C 0.80852 0.57706 0.67931 0.0
C290 C 0.79216 0.65537 0.78055 0.0
C291 C 0.83984 0.63293 0.78981 0.0
C292 C 0.85066 0.59691 0.73679 0.0
N293 N 0.76455 0.65001 0.71711 0.0
C294 C 0.76404 0.60338 0.67096 0.0
Co295 Co 0.86395 0.56472 1.00577 0.0
Co296 Co -0.01401 0.74664 1.00734 0.0
O297 O -0.04886 0.65014 0.97164 0.0
C298 C -0.0316 0.51767 0.01181 0.0
O299 O 0.0204 0.57653 0.98777 0.0
C300 C 0.05678 0.7795 0.86434 0.0
O301 O 0.05693 0.72091 0.87235 0.0
O302 O 0.88897 0.7359 0.9971 0.0
O303 O 0.814 0.61875 1.00343 0.0
H304 H 0.01003 -0.0163 0.01626 0.0
H305 H 0.93945 0.54837 0.88591 0.0
O306 O 0.90706 0.5065 0.01522 0.0
H307 H 0.69071 0.43299 0.82386 0.0
H308 H 0.68555 0.30766 0.99661 0.0
H309 H 0.751 0.53123 0.1091 0.0
H310 H 0.73524 0.51236 0.92424 0.0
H311 H 0.79597 0.41364 0.96767 0.0
O312 O 0.02196 0.7936 0.90932 0.0
H313 H -0.02528 0.86766 0.96557 0.0
H314 H 0.06425 0.82128 0.13294 0.0
H315 H 0.64613 0.41843 0.15158 0.0
H316 H 0.89721 0.46967 0.78662 0.0
H317 H 0.61074 0.30917 0.09134 0.0
H318 H 0.7714 0.40898 0.75662 0.0
O319 O 0.88951 0.59186 0.10402 0.0
H320 H 0.14721 0.66146 0.07927 0.0
H321 H 0.13462 0.85345 0.97111 0.0
H322 H 0.241 0.84635 0.95362 0.0
H323 H 0.24768 0.74869 0.00781 0.0
H324 H 0.03803 0.66344 0.08223 0.0
H325 H 0.09222 0.93204 0.18828 0.0
H326 H 0.06799 0.01559 0.12723 0.0
O327 O -0.04286 0.70903 0.1033 0.0
C328 C 0.82654 0.68197 1.00255 0.0
C329 C 0.02127 0.9477 0.04184 0.0
C330 C 0.06892 0.91965 0.13816 0.0
N331 N 0.01902 0.83876 0.04511 0.0
C332 C 0.00287 0.88301 0.01301 0.0
C333 C 0.05216 0.85657 0.1068 0.0
C334 C 0.05441 0.96593 0.1047 0.0
C335 C 0.88502 0.5239 0.8724 0.0
N336 N 0.83937 0.53406 0.91157 0.0
C337 C 0.86109 0.478 0.81686 0.0
C338 C 0.79065 0.44484 0.79944 0.0
C339 C 0.74554 0.45952 0.8365 0.0
C340 C 0.77127 0.5057 0.89198 0.0
C341 C 0.70043 0.35556 0.02361 0.0
C342 C 0.73721 0.48163 0.08633 0.0
C343 C 0.76256 0.41675 1.00672 0.0
N344 N 0.77909 0.47969 0.03595 0.0
C345 C 0.67751 0.41953 0.1086 0.0
C346 C 0.65798 0.3568 0.07568 0.0
C347 C 0.925 0.65033 0.13454 0.0
C348 C 0.14433 0.7027 0.05305 0.0
C349 C 0.13625 0.80983 0.9919 0.0
C350 C 0.19681 0.80619 0.98268 0.0
C351 C 0.20049 0.75153 0.01304 0.0
N352 N 0.07754 0.75578 0.02148 0.0
C353 C 0.08259 0.70509 0.05584 0.0
Co354 Co 0.00488 0.63638 0.32726 0.0
Co355 Co 0.89668 0.70309 0.33885 0.0
O356 O 0.92972 0.6429 0.37667 0.0
C357 C 0.93859 0.50079 0.4006 0.0
O358 O 0.92505 0.52785 0.45448 0.0
C359 C 0.85761 0.70768 0.49574 0.0
O360 O 0.90326 0.69365 0.5219 0.0
O361 O -0.00684 0.78861 0.3523 0.0
O362 O 0.05583 0.74111 0.3108 0.0
H363 H 0.91619 0.86892 0.16039 0.0
H364 H 0.02163 0.71936 0.45441 0.0
O365 O -0.04328 0.53322 0.3435 0.0
H366 H 0.09505 0.54946 0.50714 0.0
H367 H 0.10008 0.51392 0.18459 0.0
H368 H 0.16071 0.72624 0.31623 0.0
H369 H 0.09207 0.58242 0.38861 0.0
H370 H 0.00741 0.53408 0.22994 0.0
O371 O 0.85499 0.71345 0.43054 0.0
H372 H -0.03611 0.82747 0.24855 0.0
H373 H 0.76065 0.70148 0.33762 0.0
H374 H 0.25476 0.70742 0.26941 0.0
H375 H 0.01566 0.68122 0.57247 0.0
H376 H 0.22479 0.60321 0.2024 0.0
H377 H 0.04765 0.59101 0.59943 0.0
O378 O -0.04582 0.61535 0.2382 0.0
H379 H 0.70236 0.46815 0.4158 0.0
H380 H 0.79768 0.63335 0.22072 0.0
H381 H 0.69595 0.51726 0.20575 0.0
H382 H 0.64672 0.4324 0.3017 0.0
H383 H 0.80656 0.58431 0.42945 0.0
H384 H 0.71119 0.73808 0.24686 0.0
H385 H 0.78878 0.8167 0.15359 0.0
O386 O 0.92773 0.69778 0.24307 0.0
C387 C 0.05061 0.79435 0.32837 0.0
C388 C 0.8821 0.83305 0.19973 0.0
C389 C 0.76681 0.76015 0.24862 0.0
N390 N 0.86466 0.76015 0.29712 0.0
C391 C 0.90874 0.81013 0.25083 0.0
C392 C 0.7953 0.73954 0.3 0.0
C393 C 0.81026 0.80493 0.19688 0.0
C394 C 0.03922 0.6833 0.46555 0.0
N395 N 0.05328 0.65059 0.41375 0.0
C396 C 0.03622 0.66206 0.53324 0.0
C397 C 0.05401 0.61172 0.54818 0.0
C398 C 0.07962 0.5874 0.49612 0.0
C399 C 0.08017 0.6086 0.42872 0.0
C400 C 0.11362 0.56159 0.21155 0.0
C401 C 0.14731 0.68066 0.28597 0.0
C402 C 0.06152 0.57287 0.23861 0.0
N403 N 0.07864 0.63061 0.27764 0.0
C404 C 0.20059 0.67086 0.2594 0.0
C405 C 0.18358 0.61122 0.22199 0.0
C406 C 0.93257 0.65167 0.20985 0.0
C407 C 0.72271 0.50419 0.37285 0.0
C408 C 0.77744 0.59764 0.26381 0.0
C409 C 0.71986 0.53109 0.25457 0.0
C410 C 0.69198 0.48404 0.30902 0.0
N411 N 0.80788 0.61697 0.32632 0.0
C412 C 0.78114 0.57094 0.38043 0.0
Co413 Co 0.33245 0.00474 0.6697 0.0
Co414 Co 0.15151 0.9069 0.67487 0.0
O415 O 0.24338 0.92993 0.71037 0.0
C416 C 0.40922 0.94672 0.73375 0.0
O417 O 0.37915 0.93173 0.7948 0.0
C418 C 0.1134 0.83353 0.81524 0.0
O419 O 0.16912 0.82788 0.80605 0.0
O420 O 0.17684 0.00908 0.68822 0.0
O421 O 0.29109 0.06604 0.65707 0.0
H422 H 0.94548 0.93902 0.65184 0.0
H423 H 0.25959 0.00095 0.80404 0.0
O424 O 0.37428 0.94401 0.68155 0.0
H425 H 0.50987 0.10817 0.85779 0.0
H426 H 0.56446 0.08775 0.54878 0.0
H427 H 0.40477 0.16019 0.64292 0.0
H428 H 0.47365 0.09886 0.73903 0.0
H429 H 0.44624 0.00065 0.58746 0.0
O430 O 0.10362 0.87195 0.77189 0.0
H431 H 0.04754 0.94756 0.71181 0.0
H432 H 0.07205 0.83101 0.55184 0.0
H433 H 0.51853 0.24881 0.5932 0.0
H434 H 0.29452 0.00283 0.92323 0.0
H435 H 0.6022 0.21385 0.55197 0.0
H436 H 0.41999 0.05374 0.95072 0.0
O437 O 0.30294 0.96597 0.57572 0.0
H438 H 0.21956 0.72606 0.66228 0.0
H439 H 0.02258 0.76653 0.6939 0.0
H440 H 0.00833 0.65326 0.72653 0.0
H441 H 0.10853 0.63399 0.71456 0.0
H442 H 0.23284 0.83908 0.62955 0.0
H443 H -0.02206 0.83101 0.48775 0.0
H444 H 0.91077 0.88203 0.54178 0.0
O445 O 0.18984 0.93367 0.57804 0.0
C446 C 0.23375 0.06529 0.66926 0.0
C447 C -0.02596 0.91644 0.6302 0.0
C448 C -0.00985 0.85337 0.53848 0.0
N449 N 0.06366 0.88721 0.63685 0.0
C450 C 0.03034 0.9193 0.66405 0.0
C451 C 0.04386 0.854 0.57498 0.0
C452 C -0.04609 0.88329 0.56746 0.0
C453 C 0.31453 0.02282 0.81445 0.0
N454 N 0.36346 0.04425 0.76222 0.0
C455 C 0.33379 0.02383 0.88265 0.0
C456 C 0.40431 0.05261 0.8982 0.0
C457 C 0.45469 0.08348 0.84615 0.0
C458 C 0.43333 0.07982 0.77829 0.0
C459 C 0.52998 0.10438 0.57018 0.0
C460 C 0.43985 0.14422 0.6241 0.0
C461 C 0.46319 0.05512 0.59445 0.0
N462 N 0.42073 0.07546 0.626 0.0
C463 C 0.50454 0.19476 0.59614 0.0
C464 C 0.551 0.17496 0.57169 0.0
C465 C 0.24617 0.94929 0.54544 0.0
C466 C 0.17596 0.73442 0.6678 0.0
C467 C 0.06537 0.75743 0.684 0.0
C468 C 0.05719 0.6934 0.70414 0.0
C469 C 0.11361 0.68276 0.69774 0.0
N470 N 0.12922 0.81068 0.6613 0.0
C471 C 0.18262 0.79806 0.64862 0.0
Co472 Co 0.28412 0.35686 0.99434 0.0
Co473 Co 0.21872 0.18285 1.0027 0.0
O474 O 0.27712 0.27568 0.04264 0.0
C475 C 0.41173 0.43999 0.0738 0.0
O476 O 0.39008 0.40399 0.13112 0.0
C477 C 0.23211 0.13581 0.15448 0.0
O478 O 0.27344 0.19915 0.17805 0.0
O479 O 0.13167 0.19228 0.01919 0.0
O480 O 0.18033 0.30044 0.97288 0.0
H481 H 0.04423 0.02707 0.83481 0.0
H482 H 0.20292 0.28463 0.12441 0.0
O483 O 0.38476 0.41246 0.01674 0.0
H484 H 0.34402 0.53684 0.1729 0.0
H485 H 0.42174 0.58649 0.86777 0.0
H486 H 0.18538 0.40488 0.94451 0.0
H487 H 0.3163 0.49589 0.05487 0.0
H488 H 0.40296 0.47871 0.92003 0.0
O489 O 0.20577 0.12745 0.09394 0.0
H490 H 0.09844 0.1268 0.91252 0.0
H491 H 0.21834 0.04797 1.00167 0.0
H492 H 0.20124 0.50492 0.87675 0.0
H493 H 0.23936 0.32412 0.24213 0.0
H494 H 0.31999 0.60233 0.84994 0.0
H495 H 0.31276 0.45067 0.26719 0.0
O496 O 0.31307 0.33096 0.90558 0.0
H497 H 0.4653 0.24494 0.05458 0.0
H498 H 0.27909 0.14627 0.8819 0.0
H499 H 0.39492 0.16775 0.85269 0.0
H500 H 0.49077 0.2183 0.93753 0.0
H501 H 0.34914 0.22632 0.0815 0.0
H502 H 0.1692 0.95062 0.91912 0.0
H503 H 0.07992 0.94038 0.83758 0.0
O504 O 0.22692 0.22231 0.90683 0.0
C505 C 0.12624 0.24354 0.99462 0.0
C506 C 0.08208 0.03141 0.87146 0.0
C507 C 0.15141 -0.01254 0.92 0.0
N508 N 0.16202 0.09349 0.96091 0.0
C509 C 0.11202 0.08683 0.91655 0.0
C510 C 0.17909 0.04275 0.96601 0.0
C511 C 0.10297 -0.0175 0.87271 0.0
C512 C 0.23399 0.34011 0.13399 0.0
N513 N 0.26161 0.38717 0.08095 0.0
C514 C 0.25425 0.36197 0.20138 0.0
C515 C 0.29604 0.43306 0.21536 0.0
C516 C 0.31329 0.48131 0.16256 0.0
C517 C 0.2947 0.45729 0.09529 0.0
C518 C 0.36981 0.54726 0.88563 0.0
C519 C 0.23748 0.44416 0.92907 0.0
C520 C 0.35878 0.48628 0.91746 0.0
N521 N 0.29397 0.43756 0.94346 0.0
C522 C 0.24605 0.50217 0.89281 0.0
C523 C 0.31295 0.55592 0.875 0.0
C524 C 0.27719 0.27342 0.87488 0.0
C525 C 0.42441 0.22238 0.0167 0.0
C526 C 0.319 0.16697 0.92068 0.0
C527 C 0.38574 0.18068 0.90303 0.0
C528 C 0.43883 0.20812 0.95111 0.0
N529 N 0.30514 0.18219 0.98473 0.0
C530 C 0.35726 0.20973 0.03235 0.0
Co531 Co 0.90178 0.30894 0.33082 0.0
Co532 Co 0.00641 0.23997 0.33883 0.0
O533 O -0.02749 0.29821 0.38096 0.0
C534 C 0.94739 0.44011 0.40784 0.0
O535 O 0.94355 0.41279 0.46851 0.0
C536 C 0.06006 0.24103 0.49365 0.0
O537 O 0.02004 0.26114 0.52406 0.0
O538 O 0.9081 0.15526 0.3566 0.0
O539 O 0.84916 0.20397 0.31035 0.0
H540 H -0.02591 0.01574 0.24357 0.0
H541 H 0.87542 0.21638 0.4531 0.0
O542 O -0.04762 0.41113 0.35326 0.0
H543 H 0.74352 0.33549 0.5018 0.0
H544 H 0.81907 0.45553 0.21557 0.0
H545 H 0.75412 0.21612 0.27858 0.0
H546 H 0.80667 0.35527 0.39255 0.0
H547 H 0.90791 0.42862 0.25284 0.0
O548 O 0.05409 0.23036 0.42809 0.0
H549 H 0.93511 0.09707 0.27482 0.0
H550 H 0.14634 0.25538 0.31182 0.0
H551 H 0.66234 0.23974 0.24129 0.0
H552 H 0.80977 0.19261 0.56052 0.0
H553 H 0.6934 0.36081 0.21727 0.0
H554 H 0.74418 0.25429 0.5861 0.0
O555 O -0.04212 0.3342 0.24249 0.0
H556 H 0.1898 0.47898 0.4106 0.0
H557 H 0.09877 0.31771 0.21424 0.0
H558 H 0.17491 0.44372 0.19476 0.0
H559 H 0.22524 0.52498 0.29229 0.0
H560 H 0.10069 0.35671 0.42801 0.0
H561 H 0.18692 0.18101 0.26526 0.0
H562 H 0.09973 0.05711 0.23552 0.0
O563 O -0.02803 0.24362 0.24349 0.0
C564 C 0.85104 0.1503 0.33296 0.0
C565 C 0.01208 0.06989 0.25385 0.0
C566 C 0.13168 0.16262 0.26498 0.0
N567 N 0.03835 0.18225 0.29583 0.0
C568 C -0.00948 0.1161 0.27445 0.0
C569 C 0.10825 0.20558 0.29088 0.0
C570 C 0.08309 0.09349 0.24882 0.0
C571 C 0.84561 0.24172 0.46205 0.0
N572 N 0.84508 0.28683 0.4149 0.0
C573 C 0.80872 0.22838 0.52398 0.0
C574 C 0.77206 0.26256 0.5384 0.0
C575 C 0.7717 0.3085 0.49085 0.0
C576 C 0.80719 0.31876 0.42845 0.0
C577 C 0.80378 0.40291 0.23138 0.0
C578 C 0.76774 0.26904 0.26929 0.0
C579 C 0.85385 0.3875 0.25411 0.0
N580 N 0.83439 0.32242 0.27917 0.0
C581 C 0.71602 0.28198 0.24615 0.0
C582 C 0.7338 0.34995 0.23063 0.0
C583 C -0.02981 0.29194 0.2105 0.0
C584 C 0.16968 0.444 0.36715 0.0
C585 C 0.11663 0.35268 0.25761 0.0
C586 C 0.16052 0.42423 0.24599 0.0
C587 C 0.18863 0.46991 0.30094 0.0
N588 N 0.09393 0.32805 0.32244 0.0
C589 C 0.12088 0.37319 0.37683 0.0
Co590 Co 0.56272 0.90728 0.6779 0.0
Co591 Co 0.74152 0.03088 0.67376 0.0
O592 O 0.64619 -0.00746 0.71411 0.0
C593 C 0.48505 -0.02659 0.72639 0.0
O594 O 0.52523 -0.00141 0.78026 0.0
C595 C 0.78591 0.08493 0.82267 0.0
O596 O 0.72876 0.08798 0.83208 0.0
O597 O 0.73213 0.93307 0.6722 0.0
O598 O 0.61578 0.85943 0.67995 0.0
H599 H 0.89671 0.01047 0.49908 0.0
H600 H 0.64117 0.9222 0.80555 0.0
O601 O 0.5058 0.95389 0.67437 0.0
H602 H 0.39936 0.83732 0.88586 0.0
H603 H 0.3112 0.74309 0.60057 0.0
H604 H 0.55453 0.79804 0.58546 0.0
H605 H 0.42363 0.82933 0.76549 0.0
H606 H 0.40129 0.84254 0.66236 0.0
O607 O 0.79196 0.05486 0.76816 0.0
H608 H 0.78591 -0.01845 0.55431 0.0
H609 H 0.89641 0.1364 0.70443 0.0
H610 H 0.46509 0.69984 0.52268 0.0
H611 H 0.61929 0.94017 0.92537 0.0
H612 H 0.34181 0.66684 0.53366 0.0
H613 H 0.49787 0.89819 0.96674 0.0
O614 O 0.59048 0.93442 0.57907 0.0
H615 H 0.61696 0.16216 0.68203 0.0
H616 H 0.84733 0.18979 0.71717 0.0
H617 H 0.82744 0.28164 0.75207 0.0
H618 H 0.70988 0.26742 0.73948 0.0
H619 H 0.64168 0.07395 0.63648 0.0
H620 H 0.00231 0.17846 0.64082 0.0
H621 H 0.00737 0.10792 0.54629 0.0
O622 O 0.70386 0.01547 0.57878 0.0
C623 C 0.67755 0.87086 0.67224 0.0
C624 C 0.89584 0.04237 0.54081 0.0
C625 C -0.04477 0.13703 0.61977 0.0
N626 N 0.83143 0.06437 0.62825 0.0
C627 C 0.83292 0.02694 0.57246 0.0
C628 C 0.89277 0.11599 0.65405 0.0
C629 C -0.04253 0.09769 0.56558 0.0
C630 C 0.58794 0.90507 0.82166 0.0
N631 N 0.5348 0.87973 0.77497 0.0
C632 C 0.57605 0.91486 0.89039 0.0
C633 C 0.508 0.89166 0.91353 0.0
C634 C 0.45285 0.85743 0.8682 0.0
C635 C 0.46723 0.85173 0.7991 0.0
C636 C 0.36406 0.75296 0.60054 0.0
C637 C 0.50092 0.78391 0.59497 0.0
C638 C 0.41623 0.80925 0.63712 0.0
N639 N 0.48376 0.82224 0.63807 0.0
C640 C 0.45033 0.72805 0.55733 0.0
C641 C 0.38118 0.71109 0.56182 0.0
C642 C 0.64767 -0.02448 0.54766 0.0
C643 C 0.66857 0.16919 0.68698 0.0
C644 C 0.79776 0.18243 0.70492 0.0
C645 C 0.78627 0.23582 0.72691 0.0
C646 C 0.72041 0.22789 0.7201 0.0
N647 N 0.74564 0.1224 0.67523 0.0
C648 C 0.68344 0.11911 0.66148 0.0
Co649 Co 0.60246 0.58529 1.00048 0.0
Co650 Co 0.68058 0.76043 0.00802 0.0
O651 O 0.61296 0.66844 0.04522 0.0
C652 C 0.46784 0.51303 0.0727 0.0
O653 O 0.49095 0.54864 0.12967 0.0
C654 C 0.6575 0.79543 0.15933 0.0
O655 O 0.61601 0.72904 0.17455 0.0
O656 O 0.75939 0.74078 0.02984 0.0
O657 O 0.70652 0.63193 0.98537 0.0
H658 H 0.92236 0.95627 0.94674 0.0
H659 H 0.67618 0.6556 0.13235 0.0
O660 O 0.49953 0.53747 0.01575 0.0
H661 H 0.52672 0.40624 0.189 0.0
H662 H 0.45227 0.34442 0.90836 0.0
H663 H 0.67201 0.56955 0.87883 0.0
H664 H 0.57334 0.44394 0.07305 0.0
H665 H 0.49836 0.42528 1.00165 0.0
O666 O 0.68719 0.81225 0.09963 0.0
H667 H 0.83429 0.83457 0.96566 0.0
H668 H 0.67674 0.89035 0.97839 0.0
H669 H 0.62403 0.49027 0.78149 0.0
H670 H 0.63505 0.62012 0.25137 0.0
H671 H 0.50928 0.37965 0.79619 0.0
H672 H 0.55419 0.49535 0.27941 0.0
O673 O 0.58765 0.6184 0.90949 0.0
H674 H 0.43492 0.70851 0.05059 0.0
H675 H 0.62742 0.79314 0.87939 0.0
H676 H 0.50938 0.7606 0.84441 0.0
H677 H 0.41133 0.71611 0.92808 0.0
H678 H 0.55042 0.73459 0.08363 0.0
H679 H 0.75908 0.00503 0.93693 0.0
H680 H 0.8878 0.04325 0.93194 0.0
O681 O 0.68125 0.724 0.91216 0.0
C682 C 0.76175 0.68776 1.00473 0.0
C683 C 0.86797 0.94106 0.95234 0.0
C684 C 0.77698 -0.03126 0.94425 0.0
N685 N 0.74794 0.85256 0.97297 0.0
C686 C 0.81685 0.8716 0.96379 0.0
C687 C 0.72862 0.90134 0.96521 0.0
C688 C 0.84783 -0.01033 0.94138 0.0
C689 C 0.64128 0.60083 0.14326 0.0
N690 N 0.61465 0.55259 0.0913 0.0
C691 C 0.6182 0.58141 0.21128 0.0
C692 C 0.57271 0.51124 0.22719 0.0
C693 C 0.55668 0.46142 0.1764 0.0
C694 C 0.58112 0.48332 0.10917 0.0
C695 C 0.5017 0.39306 0.90219 0.0
C696 C 0.62566 0.51907 0.88749 0.0
C697 C 0.52936 0.43979 0.95612 0.0
N698 N 0.58944 0.50376 0.94867 0.0
C699 C 0.59796 0.47483 0.83117 0.0
C700 C 0.5347 0.41235 0.8389 0.0
C701 C 0.63376 0.673 0.87838 0.0
C702 C 0.47696 0.72729 0.0127 0.0
C703 C 0.58576 0.77419 0.91756 0.0
C704 C 0.5184 0.75471 0.89671 0.0
C705 C 0.46359 0.73078 0.94421 0.0
N706 N 0.59812 0.76658 0.9844 0.0
C707 C 0.54436 0.74478 0.03169 0.0
loop_
_geom_bond_atom_site_label_1
_geom_bond_atom_site_label_2
_geom_bond_distance
_geom_bond_site_symmetry_2
_ccdc_geom_bond_type
Co0 O2 2.143 1_565 S
Co0 O8 2.074 . S
Co0 O11 2.093 . S
Co0 O24 2.097 . S
Co0 N41 2.151 . S
Co0 N49 2.214 . S
Co1 O2 2.160 . S
Co1 O7 2.058 1_545 S
Co1 O17 2.057 . S
Co1 O32 2.037 . S
Co1 N36 2.145 . S
Co1 N57 2.257 . S
O2 Co0 2.143 1_545 S
O2 Co1 2.160 . S
C3 O4 1.278 . S
C3 O11 1.224 1_545 S
O4 C3 1.278 . S
C5 O6 1.245 . S
C5 O17 1.232 . S
O6 C5 1.245 . S
O7 Co1 2.058 1_565 S
O7 C33 1.269 . S
O8 Co0 2.074 . S
O8 C33 1.257 . S
H9 C34 0.930 . S
H10 C40 0.930 . S
O11 Co0 2.093 . S
O11 C3 1.224 1_565 S
H12 C44 0.929 . S
H13 C46 0.930 . S
H14 C47 0.930 . S
H15 C45 0.929 . S
H16 C48 0.928 . S
O17 Co1 2.057 . S
O17 C5 1.232 . S
H18 C37 0.929 . S
H19 C38 0.929 . S
H20 C50 0.931 . S
H21 C42 0.929 . S
H22 C51 0.930 . S
H23 C43 0.931 . S
O24 Co0 2.097 . S
O24 C52 1.214 1_565 S
H25 C53 0.929 . S
H26 C54 0.929 . S
H27 C55 0.930 . S
H28 C56 0.929 . S
H29 C58 0.930 . S
H30 C35 0.930 . S
H31 C39 0.930 . S
O32 Co1 2.037 . S
O32 C52 1.234 . S
C33 O7 1.269 . S
C33 O8 1.257 . S
C34 H9 0.930 . S
C34 C37 1.388 . S
C34 C39 1.418 . S
C35 H30 0.930 . S
C35 C38 1.404 . S
C35 C39 1.353 . S
N36 Co1 2.145 . S
N36 C37 1.397 . S
N36 C38 1.334 . S
C37 H18 0.929 . S
C37 C34 1.388 . S
C37 N36 1.397 . S
C38 H19 0.929 . S
C38 C35 1.404 . S
C38 N36 1.334 . S
C39 H31 0.930 . S
C39 C34 1.418 . S
C39 C35 1.353 . S
C40 H10 0.930 . S
C40 N41 1.330 . S
C40 C42 1.446 . S
N41 Co0 2.151 . S
N41 C40 1.330 . S
N41 C45 1.418 . S
C42 H21 0.929 . S
C42 C40 1.446 . S
C42 C43 1.332 . S
C43 H23 0.931 . S
C43 C42 1.332 . S
C43 C44 1.267 . S
C44 H12 0.929 . S
C44 C43 1.267 . S
C44 C45 1.251 . S
C45 H15 0.929 . S
C45 N41 1.418 . S
C45 C44 1.251 . S
C46 H13 0.930 . S
C46 C48 1.406 . S
C46 C51 1.261 . S
C47 H14 0.930 . S
C47 N49 1.325 . S
C47 C50 1.357 . S
C48 H16 0.928 . S
C48 C46 1.406 . S
C48 N49 1.261 . S
N49 Co0 2.214 . S
N49 C47 1.325 . S
N49 C48 1.261 . S
C50 H20 0.931 . S
C50 C47 1.357 . S
C50 C51 1.312 . S
C51 H22 0.930 . S
C51 C46 1.261 . S
C51 C50 1.312 . S
C52 O24 1.214 1_545 S
C52 O32 1.234 . S
C53 H25 0.929 . S
C53 C56 1.391 . S
C53 C58 1.391 . S
C54 H26 0.929 . S
C54 C55 1.390 . S
C54 N57 1.391 . S
C55 H27 0.930 . S
C55 C54 1.390 . S
C55 C56 1.392 . S
C56 H28 0.929 . S
C56 C53 1.391 . S
C56 C55 1.392 . S
N57 Co1 2.257 . S
N57 C54 1.391 . S
N57 C58 1.388 . S
C58 H29 0.930 . S
C58 C53 1.391 . S
C58 N57 1.388 . S
Co59 O61 2.143 . S
Co59 O67 2.074 . S
Co59 O70 2.093 . S
Co59 O83 2.097 . S
Co59 N100 2.151 . S
Co59 N108 2.214 . S
Co60 O61 2.160 . S
Co60 O66 2.058 . S
Co60 O76 2.057 . S
Co60 O91 2.037 . S
Co60 N95 2.145 . S
Co60 N116 2.257 . S
O61 Co59 2.143 . S
O61 Co60 2.160 . S
C62 O63 1.278 . S
C62 O70 1.224 . S
O63 C62 1.278 . S
C64 O65 1.245 . S
C64 O76 1.232 . S
O65 C64 1.245 . S
O66 Co60 2.058 . S
O66 C92 1.269 . S
O67 Co59 2.074 . S
O67 C92 1.257 . S
H68 C93 0.930 . S
H69 C99 0.930 . S
O70 Co59 2.093 . S
O70 C62 1.224 . S
H71 C103 0.929 . S
H72 C105 0.930 . S
H73 C106 0.930 . S
H74 C104 0.929 . S
H75 C107 0.928 . S
O76 Co60 2.057 . S
O76 C64 1.232 . S
H77 C96 0.929 . S
H78 C97 0.929 . S
H79 C109 0.931 . S
H80 C101 0.929 . S
H81 C110 0.930 . S
H82 C102 0.931 . S
O83 Co59 2.097 . S
O83 C111 1.214 . S
H84 C112 0.929 . S
H85 C113 0.929 . S
H86 C114 0.930 . S
H87 C115 0.929 . S
H88 C117 0.930 . S
H89 C94 0.930 . S
H90 C98 0.930 . S
O91 Co60 2.037 . S
O91 C111 1.234 . S
C92 O66 1.269 . S
C92 O67 1.257 . S
C93 H68 0.930 . S
C93 C96 1.388 1_655 S
C93 C98 1.418 . S
C94 H89 0.930 . S
C94 C97 1.404 1_655 S
C94 C98 1.353 . S
N95 Co60 2.145 . S
N95 C96 1.397 . S
N95 C97 1.334 . S
C96 H77 0.929 . S
C96 C93 1.388 1_455 S
C96 N95 1.397 . S
C97 H78 0.929 . S
C97 C94 1.404 1_455 S
C97 N95 1.334 . S
C98 H90 0.930 . S
C98 C93 1.418 . S
C98 C94 1.353 . S
C99 H69 0.930 . S
C99 N100 1.330 . S
C99 C101 1.446 . S
N100 Co59 2.151 . S
N100 C99 1.330 . S
N100 C104 1.418 . S
C101 H80 0.929 . S
C101 C99 1.446 . S
C101 C102 1.332 . S
C102 H82 0.931 . S
C102 C101 1.332 . S
C102 C103 1.267 . S
C103 H71 0.929 . S
C103 C102 1.267 . S
C103 C104 1.251 . S
C104 H74 0.929 . S
C104 N100 1.418 . S
C104 C103 1.251 . S
C105 H72 0.930 . S
C105 C107 1.406 . S
C105 C110 1.261 . S
C106 H73 0.930 . S
C106 N108 1.325 . S
C106 C109 1.357 . S
C107 H75 0.928 . S
C107 C105 1.406 . S
C107 N108 1.261 . S
N108 Co59 2.214 . S
N108 C106 1.325 . S
N108 C107 1.261 . S
C109 H79 0.931 . S
C109 C106 1.357 . S
C109 C110 1.312 . S
C110 H81 0.930 . S
C110 C105 1.261 . S
C110 C109 1.312 . S
C111 O83 1.214 . S
C111 O91 1.234 . S
C112 H84 0.929 . S
C112 C115 1.391 . S
C112 C117 1.391 . S
C113 H85 0.929 . S
C113 C114 1.390 . S
C113 N116 1.391 . S
C114 H86 0.930 . S
C114 C113 1.390 . S
C114 C115 1.392 . S
C115 H87 0.929 . S
C115 C112 1.391 . S
C115 C114 1.392 . S
N116 Co60 2.257 . S
N116 C113 1.391 . S
N116 C117 1.388 . S
C117 H88 0.930 . S
C117 C112 1.391 . S
C117 N116 1.388 . S
Co118 O120 2.143 1_454 S
Co118 O126 2.074 . S
Co118 O129 2.093 . S
Co118 O142 2.097 . S
Co118 N159 2.151 1_554 S
Co118 N167 2.214 . S
Co119 O120 2.160 1_554 S
Co119 O125 2.058 1_654 S
Co119 O135 2.057 1_554 S
Co119 O150 2.037 . S
Co119 N154 2.145 . S
Co119 N175 2.257 . S
O120 Co118 2.143 1_656 S
O120 Co119 2.160 1_556 S
C121 O122 1.278 . S
C121 O129 1.224 1_656 S
O122 C121 1.278 . S
C123 O124 1.245 . S
C123 O135 1.232 . S
O124 C123 1.245 . S
O125 Co119 2.058 1_456 S
O125 C151 1.269 . S
O126 Co118 2.074 . S
O126 C151 1.257 1_554 S
H127 C152 0.930 . S
H128 C158 0.930 . S
O129 Co118 2.093 . S
O129 C121 1.224 1_454 S
H130 C162 0.929 . S
H131 C164 0.930 . S
H132 C165 0.930 . S
H133 C163 0.929 . S
H134 C166 0.928 . S
O135 Co119 2.057 1_556 S
O135 C123 1.232 . S
H136 C155 0.929 . S
H137 C156 0.929 1_556 S
H138 C168 0.931 . S
H139 C160 0.929 . S
H140 C169 0.930 . S
H141 C161 0.931 . S
O142 Co118 2.097 . S
O142 C170 1.214 1_455 S
H143 C171 0.929 1_556 S
H144 C172 0.929 . S
H145 C173 0.930 . S
H146 C174 0.929 . S
H147 C176 0.930 . S
H148 C153 0.930 1_556 S
H149 C157 0.930 . S
O150 Co119 2.037 . S
O150 C170 1.234 . S
C151 O125 1.269 . S
C151 O126 1.257 1_556 S
C152 H127 0.930 . S
C152 C155 1.388 1_565 S
C152 C157 1.418 . S
C153 H148 0.930 1_554 S
C153 C156 1.404 1_565 S
C153 C157 1.353 . S
N154 Co119 2.145 . S
N154 C155 1.397 . S
N154 C156 1.334 . S
C155 H136 0.929 . S
C155 C152 1.388 1_545 S
C155 N154 1.397 . S
C156 H137 0.929 1_554 S
C156 C153 1.404 1_545 S
C156 N154 1.334 . S
C157 H149 0.930 . S
C157 C152 1.418 . S
C157 C153 1.353 . S
C158 H128 0.930 . S
C158 N159 1.330 . S
C158 C160 1.446 . S
N159 Co118 2.151 1_556 S
N159 C158 1.330 . S
N159 C163 1.418 . S
C160 H139 0.929 . S
C160 C158 1.446 . S
C160 C161 1.332 . S
C161 H141 0.931 . S
C161 C160 1.332 . S
C161 C162 1.267 . S
C162 H130 0.929 . S
C162 C161 1.267 . S
C162 C163 1.251 . S
C163 H133 0.929 . S
C163 N159 1.418 . S
C163 C162 1.251 . S
C164 H131 0.930 . S
C164 C166 1.406 . S
C164 C169 1.261 . S
C165 H132 0.930 . S
C165 N167 1.325 . S
C165 C168 1.357 . S
C166 H134 0.928 . S
C166 C164 1.406 . S
C166 N167 1.261 . S
N167 Co118 2.214 . S
N167 C165 1.325 . S
N167 C166 1.261 . S
C168 H138 0.931 . S
C168 C165 1.357 . S
C168 C169 1.312 . S
C169 H140 0.930 . S
C169 C164 1.261 . S
C169 C168 1.312 . S
C170 O142 1.214 1_655 S
C170 O150 1.234 . S
C171 H143 0.929 1_554 S
C171 C174 1.391 . S
C171 C176 1.391 1_554 S
C172 H144 0.929 . S
C172 C173 1.390 . S
C172 N175 1.391 . S
C173 H145 0.930 . S
C173 C172 1.390 . S
C173 C174 1.392 . S
C174 H146 0.929 . S
C174 C171 1.391 . S
C174 C173 1.392 . S
N175 Co119 2.257 . S
N175 C172 1.391 . S
N175 C176 1.388 1_554 S
C176 H147 0.930 . S
C176 C171 1.391 1_556 S
C176 N175 1.388 1_556 S
Co177 O179 2.143 1_545 S
Co177 O185 2.074 . S
Co177 O188 2.093 . S
Co177 O201 2.097 . S
Co177 N218 2.151 . S
Co177 N226 2.214 . S
Co178 O179 2.160 . S
Co178 O184 2.058 1_565 S
Co178 O194 2.057 . S
Co178 O209 2.037 . S
Co178 N213 2.145 . S
Co178 N234 2.257 . S
O179 Co177 2.143 1_565 S
O179 Co178 2.160 . S
C180 O181 1.278 . S
C180 O188 1.224 1_565 S
O181 C180 1.278 . S
C182 O183 1.245 . S
C182 O194 1.232 . S
O183 C182 1.245 . S
O184 Co178 2.058 1_545 S
O184 C210 1.269 . S
O185 Co177 2.074 . S
O185 C210 1.257 . S
H186 C211 0.930 . S
H187 C217 0.930 . S
O188 Co177 2.093 . S
O188 C180 1.224 1_545 S
H189 C221 0.929 . S
H190 C223 0.930 . S
H191 C224 0.930 . S
H192 C222 0.929 . S
H193 C225 0.928 . S
O194 Co178 2.057 . S
O194 C182 1.232 . S
H195 C214 0.929 . S
H196 C215 0.929 . S
H197 C227 0.931 . S
H198 C219 0.929 . S
H199 C228 0.930 . S
H200 C220 0.931 . S
O201 Co177 2.097 . S
O201 C229 1.214 1_545 S
H202 C230 0.929 . S
H203 C231 0.929 . S
H204 C232 0.930 . S
H205 C233 0.929 . S
H206 C235 0.930 . S
H207 C212 0.930 . S
H208 C216 0.930 . S
O209 Co178 2.037 . S
O209 C229 1.234 . S
C210 O184 1.269 . S
C210 O185 1.257 . S
C211 H186 0.930 . S
C211 C214 1.388 . S
C211 C216 1.418 . S
C212 H207 0.930 . S
C212 C215 1.404 . S
C212 C216 1.353 . S
N213 Co178 2.145 . S
N213 C214 1.397 . S
N213 C215 1.334 . S
C214 H195 0.929 . S
C214 C211 1.388 . S
C214 N213 1.397 . S
C215 H196 0.929 . S
C215 C212 1.404 . S
C215 N213 1.334 . S
C216 H208 0.930 . S
C216 C211 1.418 . S
C216 C212 1.353 . S
C217 H187 0.930 . S
C217 N218 1.330 . S
C217 C219 1.446 . S
N218 Co177 2.151 . S
N218 C217 1.330 . S
N218 C222 1.418 . S
C219 H198 0.929 . S
C219 C217 1.446 . S
C219 C220 1.332 . S
C220 H200 0.931 . S
C220 C219 1.332 . S
C220 C221 1.267 . S
C221 H189 0.929 . S
C221 C220 1.267 . S
C221 C222 1.251 . S
C222 H192 0.929 . S
C222 N218 1.418 . S
C222 C221 1.251 . S
C223 H190 0.930 . S
C223 C225 1.406 . S
C223 C228 1.261 . S
C224 H191 0.930 . S
C224 N226 1.325 . S
C224 C227 1.357 . S
C225 H193 0.928 . S
C225 C223 1.406 . S
C225 N226 1.261 . S
N226 Co177 2.214 . S
N226 C224 1.325 . S
N226 C225 1.261 . S
C227 H197 0.931 . S
C227 C224 1.357 . S
C227 C228 1.312 . S
C228 H199 0.930 . S
C228 C223 1.261 . S
C228 C227 1.312 . S
C229 O201 1.214 1_565 S
C229 O209 1.234 . S
C230 H202 0.929 . S
C230 C233 1.391 . S
C230 C235 1.391 . S
C231 H203 0.929 . S
C231 C232 1.390 . S
C231 N234 1.391 . S
C232 H204 0.930 . S
C232 C231 1.390 . S
C232 C233 1.392 . S
C233 H205 0.929 . S
C233 C230 1.391 . S
C233 C232 1.392 . S
N234 Co178 2.257 . S
N234 C231 1.391 . S
N234 C235 1.388 . S
C235 H206 0.930 . S
C235 C230 1.391 . S
C235 N234 1.388 . S
Co236 O238 2.143 . S
Co236 O244 2.074 . S
Co236 O247 2.093 . S
Co236 O260 2.097 . S
Co236 N277 2.151 . S
Co236 N285 2.214 . S
Co237 O238 2.160 . S
Co237 O243 2.058 . S
Co237 O253 2.057 . S
Co237 O268 2.037 . S
Co237 N272 2.145 . S
Co237 N293 2.257 . S
O238 Co236 2.143 . S
O238 Co237 2.160 . S
C239 O240 1.278 . S
C239 O247 1.224 . S
O240 C239 1.278 . S
C241 O242 1.245 . S
C241 O253 1.232 . S
O242 C241 1.245 . S
O243 Co237 2.058 . S
O243 C269 1.269 . S
O244 Co236 2.074 . S
O244 C269 1.257 . S
H245 C270 0.930 . S
H246 C276 0.930 . S
O247 Co236 2.093 . S
O247 C239 1.224 . S
H248 C280 0.929 . S
H249 C282 0.930 . S
H250 C283 0.930 . S
H251 C281 0.929 . S
H252 C284 0.928 . S
O253 Co237 2.057 . S
O253 C241 1.232 . S
H254 C273 0.929 . S
H255 C274 0.929 . S
H256 C286 0.931 . S
H257 C278 0.929 . S
H258 C287 0.930 . S
H259 C279 0.931 . S
O260 Co236 2.097 . S
O260 C288 1.214 . S
H261 C289 0.929 . S
H262 C290 0.929 . S
H263 C291 0.930 . S
H264 C292 0.929 . S
H265 C294 0.930 . S
H266 C271 0.930 . S
H267 C275 0.930 . S
O268 Co237 2.037 . S
O268 C288 1.234 . S
C269 O243 1.269 . S
C269 O244 1.257 . S
C270 H245 0.930 . S
C270 C273 1.388 1_455 S
C270 C275 1.418 . S
C271 H266 0.930 . S
C271 C274 1.404 1_455 S
C271 C275 1.353 . S
N272 Co237 2.145 . S
N272 C273 1.397 . S
N272 C274 1.334 . S
C273 H254 0.929 . S
C273 C270 1.388 1_655 S
C273 N272 1.397 . S
C274 H255 0.929 . S
C274 C271 1.404 1_655 S
C274 N272 1.334 . S
C275 H267 0.930 . S
C275 C270 1.418 . S
C275 C271 1.353 . S
C276 H246 0.930 . S
C276 N277 1.330 . S
C276 C278 1.446 . S
N277 Co236 2.151 . S
N277 C276 1.330 . S
N277 C281 1.418 . S
C278 H257 0.929 . S
C278 C276 1.446 . S
C278 C279 1.332 . S
C279 H259 0.931 . S
C279 C278 1.332 . S
C279 C280 1.267 . S
C280 H248 0.929 . S
C280 C279 1.267 . S
C280 C281 1.251 . S
C281 H251 0.929 . S
C281 N277 1.418 . S
C281 C280 1.251 . S
C282 H249 0.930 . S
C282 C284 1.406 . S
C282 C287 1.261 . S
C283 H250 0.930 . S
C283 N285 1.325 . S
C283 C286 1.357 . S
C284 H252 0.928 . S
C284 C282 1.406 . S
C284 N285 1.261 . S
N285 Co236 2.214 . S
N285 C283 1.325 . S
N285 C284 1.261 . S
C286 H256 0.931 . S
C286 C283 1.357 . S
C286 C287 1.312 . S
C287 H258 0.930 . S
C287 C282 1.261 . S
C287 C286 1.312 . S
C288 O260 1.214 . S
C288 O268 1.234 . S
C289 H261 0.929 . S
C289 C292 1.391 . S
C289 C294 1.391 . S
C290 H262 0.929 . S
C290 C291 1.390 . S
C290 N293 1.391 . S
C291 H263 0.930 . S
C291 C290 1.390 . S
C291 C292 1.392 . S
C292 H264 0.929 . S
C292 C289 1.391 . S
C292 C291 1.392 . S
N293 Co237 2.257 . S
N293 C290 1.391 . S
N293 C294 1.388 . S
C294 H265 0.930 . S
C294 C289 1.391 . S
C294 N293 1.388 . S
Co295 O297 2.143 1_654 S
Co295 O303 2.074 . S
Co295 O306 2.093 . S
Co295 O319 2.097 . S
Co295 N336 2.151 1_554 S
Co295 N344 2.214 . S
Co296 O297 2.160 1_554 S
Co296 O302 2.058 1_454 S
Co296 O312 2.057 1_554 S
Co296 O327 2.037 . S
Co296 N331 2.145 . S
Co296 N352 2.257 . S
O297 Co295 2.143 1_456 S
O297 Co296 2.160 1_556 S
C298 O299 1.278 . S
C298 O306 1.224 1_456 S
O299 C298 1.278 . S
C300 O301 1.245 . S
C300 O312 1.232 . S
O301 C300 1.245 . S
O302 Co296 2.058 1_656 S
O302 C328 1.269 . S
O303 Co295 2.074 . S
O303 C328 1.257 1_554 S
H304 C329 0.930 . S
H305 C335 0.930 . S
O306 Co295 2.093 . S
O306 C298 1.224 1_654 S
H307 C339 0.929 . S
H308 C341 0.930 . S
H309 C342 0.930 . S
H310 C340 0.929 . S
H311 C343 0.928 . S
O312 Co296 2.057 1_556 S
O312 C300 1.232 . S
H313 C332 0.929 . S
H314 C333 0.929 1_556 S
H315 C345 0.931 . S
H316 C337 0.929 . S
H317 C346 0.930 . S
H318 C338 0.931 . S
O319 Co295 2.097 . S
O319 C347 1.214 1_655 S
H320 C348 0.929 1_556 S
H321 C349 0.929 . S
H322 C350 0.930 . S
H323 C351 0.929 . S
H324 C353 0.930 . S
H325 C330 0.930 1_556 S
H326 C334 0.930 . S
O327 Co296 2.037 . S
O327 C347 1.234 . S
C328 O302 1.269 . S
C328 O303 1.257 1_556 S
C329 H304 0.930 . S
C329 C332 1.388 1_545 S
C329 C334 1.418 . S
C330 H325 0.930 1_554 S
C330 C333 1.404 1_545 S
C330 C334 1.353 . S
N331 Co296 2.145 . S
N331 C332 1.397 . S
N331 C333 1.334 . S
C332 H313 0.929 . S
C332 C329 1.388 1_565 S
C332 N331 1.397 . S
C333 H314 0.929 1_554 S
C333 C330 1.404 1_565 S
C333 N331 1.334 . S
C334 H326 0.930 . S
C334 C329 1.418 . S
C334 C330 1.353 . S
C335 H305 0.930 . S
C335 N336 1.330 . S
C335 C337 1.446 . S
N336 Co295 2.151 1_556 S
N336 C335 1.330 . S
N336 C340 1.418 . S
C337 H316 0.929 . S
C337 C335 1.446 . S
C337 C338 1.332 . S
C338 H318 0.931 . S
C338 C337 1.332 . S
C338 C339 1.267 . S
C339 H307 0.929 . S
C339 C338 1.267 . S
C339 C340 1.251 . S
C340 H310 0.929 . S
C340 N336 1.418 . S
C340 C339 1.251 . S
C341 H308 0.930 . S
C341 C343 1.406 . S
C341 C346 1.261 . S
C342 H309 0.930 . S
C342 N344 1.325 . S
C342 C345 1.357 . S
C343 H311 0.928 . S
C343 C341 1.406 . S
C343 N344 1.261 . S
N344 Co295 2.214 . S
N344 C342 1.325 . S
N344 C343 1.261 . S
C345 H315 0.931 . S
C345 C342 1.357 . S
C345 C346 1.312 . S
C346 H317 0.930 . S
C346 C341 1.261 . S
C346 C345 1.312 . S
C347 O319 1.214 1_455 S
C347 O327 1.234 . S
C348 H320 0.929 1_554 S
C348 C351 1.391 . S
C348 C353 1.391 1_554 S
C349 H321 0.929 . S
C349 C350 1.390 . S
C349 N352 1.391 . S
C350 H322 0.930 . S
C350 C349 1.390 . S
C350 C351 1.392 . S
C351 H323 0.929 . S
C351 C348 1.391 . S
C351 C350 1.392 . S
N352 Co296 2.257 . S
N352 C349 1.391 . S
N352 C353 1.388 1_554 S
C353 H324 0.930 . S
C353 C348 1.391 1_556 S
C353 N352 1.388 1_556 S
Co354 O356 2.143 1_455 S
Co354 O362 2.074 . S
Co354 O365 2.093 . S
Co354 O378 2.097 . S
Co354 N395 2.151 . S
Co354 N403 2.214 . S
Co355 O356 2.160 . S
Co355 O361 2.058 1_655 S
Co355 O371 2.057 . S
Co355 O386 2.037 . S
Co355 N390 2.145 . S
Co355 N411 2.257 . S
O356 Co354 2.143 1_655 S
O356 Co355 2.160 . S
C357 O358 1.278 . S
C357 O365 1.224 1_655 S
O358 C357 1.278 . S
C359 O360 1.245 . S
C359 O371 1.232 . S
O360 C359 1.245 . S
O361 Co355 2.058 1_455 S
O361 C387 1.269 . S
O362 Co354 2.074 . S
O362 C387 1.257 . S
H363 C388 0.930 . S
H364 C394 0.930 . S
O365 Co354 2.093 . S
O365 C357 1.224 1_455 S
H366 C398 0.929 . S
H367 C400 0.930 . S
H368 C401 0.930 . S
H369 C399 0.929 . S
H370 C402 0.928 . S
O371 Co355 2.057 . S
O371 C359 1.232 . S
H372 C391 0.929 . S
H373 C392 0.929 . S
H374 C404 0.931 . S
H375 C396 0.929 . S
H376 C405 0.930 . S
H377 C397 0.931 . S
O378 Co354 2.097 . S
O378 C406 1.214 1_455 S
H379 C407 0.929 . S
H380 C408 0.929 . S
H381 C409 0.930 . S
H382 C410 0.929 . S
H383 C412 0.930 . S
H384 C389 0.930 . S
H385 C393 0.930 . S
O386 Co355 2.037 . S
O386 C406 1.234 . S
C387 O361 1.269 . S
C387 O362 1.257 . S
C388 H363 0.930 . S
C388 C391 1.388 . S
C388 C393 1.418 . S
C389 H384 0.930 . S
C389 C392 1.404 . S
C389 C393 1.353 . S
N390 Co355 2.145 . S
N390 C391 1.397 . S
N390 C392 1.334 . S
C391 H372 0.929 . S
C391 C388 1.388 . S
C391 N390 1.397 . S
C392 H373 0.929 . S
C392 C389 1.404 . S
C392 N390 1.334 . S
C393 H385 0.930 . S
C393 C388 1.418 . S
C393 C389 1.353 . S
C394 H364 0.930 . S
C394 N395 1.330 . S
C394 C396 1.446 . S
N395 Co354 2.151 . S
N395 C394 1.330 . S
N395 C399 1.418 . S
C396 H375 0.929 . S
C396 C394 1.446 . S
C396 C397 1.332 . S
C397 H377 0.931 . S
C397 C396 1.332 . S
C397 C398 1.267 . S
C398 H366 0.929 . S
C398 C397 1.267 . S
C398 C399 1.251 . S
C399 H369 0.929 . S
C399 N395 1.418 . S
C399 C398 1.251 . S
C400 H367 0.930 . S
C400 C402 1.406 . S
C400 C405 1.261 . S
C401 H368 0.930 . S
C401 N403 1.325 . S
C401 C404 1.357 . S
C402 H370 0.928 . S
C402 C400 1.406 . S
C402 N403 1.261 . S
N403 Co354 2.214 . S
N403 C401 1.325 . S
N403 C402 1.261 . S
C404 H374 0.931 . S
C404 C401 1.357 . S
C404 C405 1.312 . S
C405 H376 0.930 . S
C405 C400 1.261 . S
C405 C404 1.312 . S
C406 O378 1.214 1_655 S
C406 O386 1.234 . S
C407 H379 0.929 . S
C407 C410 1.391 . S
C407 C412 1.391 . S
C408 H380 0.929 . S
C408 C409 1.390 . S
C408 N411 1.391 . S
C409 H381 0.930 . S
C409 C408 1.390 . S
C409 C410 1.392 . S
C410 H382 0.929 . S
C410 C407 1.391 . S
C410 C409 1.392 . S
N411 Co355 2.257 . S
N411 C408 1.391 . S
N411 C412 1.388 . S
C412 H383 0.930 . S
C412 C407 1.391 . S
C412 N411 1.388 . S
Co413 O415 2.143 1_545 S
Co413 O421 2.074 . S
Co413 O424 2.093 . S
Co413 O437 2.097 . S
Co413 N454 2.151 . S
Co413 N462 2.214 . S
Co414 O415 2.160 . S
Co414 O420 2.058 1_565 S
Co414 O430 2.057 . S
Co414 O445 2.037 . S
Co414 N449 2.145 . S
Co414 N470 2.257 . S
O415 Co413 2.143 1_565 S
O415 Co414 2.160 . S
C416 O417 1.278 . S
C416 O424 1.224 1_565 S
O417 C416 1.278 . S
C418 O419 1.245 . S
C418 O430 1.232 . S
O419 C418 1.245 . S
O420 Co414 2.058 1_545 S
O420 C446 1.269 . S
O421 Co413 2.074 . S
O421 C446 1.257 . S
H422 C447 0.930 . S
H423 C453 0.930 . S
O424 Co413 2.093 . S
O424 C416 1.224 1_545 S
H425 C457 0.929 . S
H426 C459 0.930 . S
H427 C460 0.930 . S
H428 C458 0.929 . S
H429 C461 0.928 . S
O430 Co414 2.057 . S
O430 C418 1.232 . S
H431 C450 0.929 . S
H432 C451 0.929 . S
H433 C463 0.931 . S
H434 C455 0.929 . S
H435 C464 0.930 . S
H436 C456 0.931 . S
O437 Co413 2.097 . S
O437 C465 1.214 1_545 S
H438 C466 0.929 . S
H439 C467 0.929 . S
H440 C468 0.930 . S
H441 C469 0.929 . S
H442 C471 0.930 . S
H443 C448 0.930 . S
H444 C452 0.930 . S
O445 Co414 2.037 . S
O445 C465 1.234 . S
C446 O420 1.269 . S
C446 O421 1.257 . S
C447 H422 0.930 . S
C447 C450 1.388 1_655 S
C447 C452 1.418 . S
C448 H443 0.930 . S
C448 C451 1.404 1_655 S
C448 C452 1.353 . S
N449 Co414 2.145 . S
N449 C450 1.397 . S
N449 C451 1.334 . S
C450 H431 0.929 . S
C450 C447 1.388 1_455 S
C450 N449 1.397 . S
C451 H432 0.929 . S
C451 C448 1.404 1_455 S
C451 N449 1.334 . S
C452 H444 0.930 . S
C452 C447 1.418 . S
C452 C448 1.353 . S
C453 H423 0.930 . S
C453 N454 1.330 . S
C453 C455 1.446 . S
N454 Co413 2.151 . S
N454 C453 1.330 . S
N454 C458 1.418 . S
C455 H434 0.929 . S
C455 C453 1.446 . S
C455 C456 1.332 . S
C456 H436 0.931 . S
C456 C455 1.332 . S
C456 C457 1.267 . S
C457 H425 0.929 . S
C457 C456 1.267 . S
C457 C458 1.251 . S
C458 H428 0.929 . S
C458 N454 1.418 . S
C458 C457 1.251 . S
C459 H426 0.930 . S
C459 C461 1.406 . S
C459 C464 1.261 . S
C460 H427 0.930 . S
C460 N462 1.325 . S
C460 C463 1.357 . S
C461 H429 0.928 . S
C461 C459 1.406 . S
C461 N462 1.261 . S
N462 Co413 2.214 . S
N462 C460 1.325 . S
N462 C461 1.261 . S
C463 H433 0.931 . S
C463 C460 1.357 . S
C463 C464 1.312 . S
C464 H435 0.930 . S
C464 C459 1.261 . S
C464 C463 1.312 . S
C465 O437 1.214 1_565 S
C465 O445 1.234 . S
C466 H438 0.929 . S
C466 C469 1.391 . S
C466 C471 1.391 . S
C467 H439 0.929 . S
C467 C468 1.390 . S
C467 N470 1.391 . S
C468 H440 0.930 . S
C468 C467 1.390 . S
C468 C469 1.392 . S
C469 H441 0.929 . S
C469 C466 1.391 . S
C469 C468 1.392 . S
N470 Co414 2.257 . S
N470 C467 1.391 . S
N470 C471 1.388 . S
C471 H442 0.930 . S
C471 C466 1.391 . S
C471 N470 1.388 . S
Co472 O474 2.143 1_556 S
Co472 O480 2.074 . S
Co472 O483 2.093 . S
Co472 O496 2.097 . S
Co472 N513 2.151 1_556 S
Co472 N521 2.214 . S
Co473 O474 2.160 1_556 S
Co473 O479 2.058 1_556 S
Co473 O489 2.057 1_556 S
Co473 O504 2.037 . S
Co473 N508 2.145 . S
Co473 N529 2.257 . S
O474 Co472 2.143 1_554 S
O474 Co473 2.160 1_554 S
C475 O476 1.279 . S
C475 O483 1.220 1_554 S
O476 C475 1.279 . S
C477 O478 1.245 . S
C477 O489 1.232 . S
O478 C477 1.245 . S
O479 Co473 2.058 1_554 S
O479 C505 1.267 1_554 S
O480 Co472 2.074 . S
O480 C505 1.261 . S
H481 C506 0.930 . S
H482 C512 0.930 . S
O483 Co472 2.093 . S
O483 C475 1.220 1_556 S
H484 C516 0.929 . S
H485 C518 0.930 . S
H486 C519 0.930 . S
H487 C517 0.929 . S
H488 C520 0.928 . S
O489 Co473 2.057 1_554 S
O489 C477 1.232 . S
H490 C509 0.929 . S
H491 C510 0.929 1_554 S
H492 C522 0.931 . S
H493 C514 0.929 . S
H494 C523 0.930 . S
H495 C515 0.931 . S
O496 Co472 2.097 . S
O496 C524 1.214 . S
H497 C525 0.929 1_554 S
H498 C526 0.929 . S
H499 C527 0.930 . S
H500 C528 0.929 . S
H501 C530 0.930 . S
H502 C507 0.930 . S
H503 C511 0.930 . S
O504 Co473 2.037 . S
O504 C524 1.234 . S
C505 O479 1.267 1_556 S
C505 O480 1.261 . S
C506 H481 0.930 . S
C506 C509 1.388 1_565 S
C506 C511 1.418 . S
C507 H502 0.930 . S
C507 C510 1.404 1_565 S
C507 C511 1.353 . S
N508 Co473 2.145 . S
N508 C509 1.397 . S
N508 C510 1.334 . S
C509 H490 0.929 . S
C509 C506 1.388 1_545 S
C509 N508 1.397 . S
C510 H491 0.929 1_556 S
C510 C507 1.404 1_545 S
C510 N508 1.334 . S
C511 H503 0.930 . S
C511 C506 1.418 . S
C511 C507 1.353 . S
C512 H482 0.930 . S
C512 N513 1.330 . S
C512 C514 1.446 . S
N513 Co472 2.151 1_554 S
N513 C512 1.330 . S
N513 C517 1.418 . S
C514 H493 0.929 . S
C514 C512 1.446 . S
C514 C515 1.332 . S
C515 H495 0.931 . S
C515 C514 1.332 . S
C515 C516 1.267 . S
C516 H484 0.929 . S
C516 C515 1.267 . S
C516 C517 1.251 . S
C517 H487 0.929 . S
C517 N513 1.418 . S
C517 C516 1.251 . S
C518 H485 0.930 . S
C518 C520 1.406 . S
C518 C523 1.261 . S
C519 H486 0.930 . S
C519 N521 1.325 . S
C519 C522 1.357 . S
C520 H488 0.928 . S
C520 C518 1.406 . S
C520 N521 1.261 . S
N521 Co472 2.214 . S
N521 C519 1.325 . S
N521 C520 1.261 . S
C522 H492 0.931 . S
C522 C519 1.357 . S
C522 C523 1.312 . S
C523 H494 0.930 . S
C523 C518 1.261 . S
C523 C522 1.312 . S
C524 O496 1.214 . S
C524 O504 1.234 . S
C525 H497 0.929 1_556 S
C525 C528 1.391 . S
C525 C530 1.391 1_556 S
C526 H498 0.929 . S
C526 C527 1.390 . S
C526 N529 1.391 . S
C527 H499 0.930 . S
C527 C526 1.390 . S
C527 C528 1.392 . S
C528 H500 0.929 . S
C528 C525 1.391 . S
C528 C527 1.392 . S
N529 Co473 2.257 . S
N529 C526 1.391 . S
N529 C530 1.388 1_556 S
C530 H501 0.930 . S
C530 C525 1.391 1_554 S
C530 N529 1.388 1_554 S
Co531 O533 2.143 1_655 S
Co531 O539 2.074 . S
Co531 O542 2.093 . S
Co531 O555 2.097 . S
Co531 N572 2.151 . S
Co531 N580 2.214 . S
Co532 O533 2.160 . S
Co532 O538 2.058 1_455 S
Co532 O548 2.057 . S
Co532 O563 2.037 . S
Co532 N567 2.145 . S
Co532 N588 2.257 . S
O533 Co531 2.143 1_455 S
O533 Co532 2.160 . S
C534 O535 1.278 . S
C534 O542 1.224 1_455 S
O535 C534 1.278 . S
C536 O537 1.245 . S
C536 O548 1.232 . S
O537 C536 1.245 . S
O538 Co532 2.058 1_655 S
O538 C564 1.269 . S
O539 Co531 2.074 . S
O539 C564 1.257 . S
H540 C565 0.930 . S
H541 C571 0.930 . S
O542 Co531 2.093 . S
O542 C534 1.224 1_655 S
H543 C575 0.929 . S
H544 C577 0.930 . S
H545 C578 0.930 . S
H546 C576 0.929 . S
H547 C579 0.928 . S
O548 Co532 2.057 . S
O548 C536 1.232 . S
H549 C568 0.929 . S
H550 C569 0.929 . S
H551 C581 0.931 . S
H552 C573 0.929 . S
H553 C582 0.930 . S
H554 C574 0.931 . S
O555 Co531 2.097 . S
O555 C583 1.214 1_655 S
H556 C584 0.929 . S
H557 C585 0.929 . S
H558 C586 0.930 . S
H559 C587 0.929 . S
H560 C589 0.930 . S
H561 C566 0.930 . S
H562 C570 0.930 . S
O563 Co532 2.037 . S
O563 C583 1.234 . S
C564 O538 1.269 . S
C564 O539 1.257 . S
C565 H540 0.930 . S
C565 C568 1.388 . S
C565 C570 1.418 . S
C566 H561 0.930 . S
C566 C569 1.404 . S
C566 C570 1.353 . S
N567 Co532 2.145 . S
N567 C568 1.397 . S
N567 C569 1.334 . S
C568 H549 0.929 . S
C568 C565 1.388 . S
C568 N567 1.397 . S
C569 H550 0.929 . S
C569 C566 1.404 . S
C569 N567 1.334 . S
C570 H562 0.930 . S
C570 C565 1.418 . S
C570 C566 1.353 . S
C571 H541 0.930 . S
C571 N572 1.330 . S
C571 C573 1.446 . S
N572 Co531 2.151 . S
N572 C571 1.330 . S
N572 C576 1.418 . S
C573 H552 0.929 . S
C573 C571 1.446 . S
C573 C574 1.332 . S
C574 H554 0.931 . S
C574 C573 1.332 . S
C574 C575 1.267 . S
C575 H543 0.929 . S
C575 C574 1.267 . S
C575 C576 1.251 . S
C576 H546 0.929 . S
C576 N572 1.418 . S
C576 C575 1.251 . S
C577 H544 0.930 . S
C577 C579 1.406 . S
C577 C582 1.261 . S
C578 H545 0.930 . S
C578 N580 1.325 . S
C578 C581 1.357 . S
C579 H547 0.928 . S
C579 C577 1.406 . S
C579 N580 1.261 . S
N580 Co531 2.214 . S
N580 C578 1.325 . S
N580 C579 1.261 . S
C581 H551 0.931 . S
C581 C578 1.357 . S
C581 C582 1.312 . S
C582 H553 0.930 . S
C582 C577 1.261 . S
C582 C581 1.312 . S
C583 O555 1.214 1_455 S
C583 O563 1.234 . S
C584 H556 0.929 . S
C584 C587 1.391 . S
C584 C589 1.391 . S
C585 H557 0.929 . S
C585 C586 1.390 . S
C585 N588 1.391 . S
C586 H558 0.930 . S
C586 C585 1.390 . S
C586 C587 1.392 . S
C587 H559 0.929 . S
C587 C584 1.391 . S
C587 C586 1.392 . S
N588 Co532 2.257 . S
N588 C585 1.391 . S
N588 C589 1.388 . S
C589 H560 0.930 . S
C589 C584 1.391 . S
C589 N588 1.388 . S
Co590 O592 2.143 1_565 S
Co590 O598 2.074 . S
Co590 O601 2.093 . S
Co590 O614 2.097 . S
Co590 N631 2.151 . S
Co590 N639 2.214 . S
Co591 O592 2.160 . S
Co591 O597 2.058 1_545 S
Co591 O607 2.057 . S
Co591 O622 2.037 . S
Co591 N626 2.145 . S
Co591 N647 2.257 . S
O592 Co590 2.143 1_545 S
O592 Co591 2.160 . S
C593 O594 1.278 . S
C593 O601 1.224 1_545 S
O594 C593 1.278 . S
C595 O596 1.245 . S
C595 O607 1.232 . S
O596 C595 1.245 . S
O597 Co591 2.058 1_565 S
O597 C623 1.269 . S
O598 Co590 2.074 . S
O598 C623 1.257 . S
H599 C624 0.930 . S
H600 C630 0.930 . S
O601 Co590 2.093 . S
O601 C593 1.224 1_565 S
H602 C634 0.929 . S
H603 C636 0.930 . S
H604 C637 0.930 . S
H605 C635 0.929 . S
H606 C638 0.928 . S
O607 Co591 2.057 . S
O607 C595 1.232 . S
H608 C627 0.929 . S
H609 C628 0.929 . S
H610 C640 0.931 . S
H611 C632 0.929 . S
H612 C641 0.930 . S
H613 C633 0.931 . S
O614 Co590 2.097 . S
O614 C642 1.214 1_565 S
H615 C643 0.929 . S
H616 C644 0.929 . S
H617 C645 0.930 . S
H618 C646 0.929 . S
H619 C648 0.930 . S
H620 C625 0.930 . S
H621 C629 0.930 . S
O622 Co591 2.037 . S
O622 C642 1.234 . S
C623 O597 1.269 . S
C623 O598 1.257 . S
C624 H599 0.930 . S
C624 C627 1.388 1_455 S
C624 C629 1.418 . S
C625 H620 0.930 . S
C625 C628 1.404 1_455 S
C625 C629 1.353 . S
N626 Co591 2.145 . S
N626 C627 1.397 . S
N626 C628 1.334 . S
C627 H608 0.929 . S
C627 C624 1.388 1_655 S
C627 N626 1.397 . S
C628 H609 0.929 . S
C628 C625 1.404 1_655 S
C628 N626 1.334 . S
C629 H621 0.930 . S
C629 C624 1.418 . S
C629 C625 1.353 . S
C630 H600 0.930 . S
C630 N631 1.330 . S
C630 C632 1.446 . S
N631 Co590 2.151 . S
N631 C630 1.330 . S
N631 C635 1.418 . S
C632 H611 0.929 . S
C632 C630 1.446 . S
C632 C633 1.332 . S
C633 H613 0.931 . S
C633 C632 1.332 . S
C633 C634 1.267 . S
C634 H602 0.929 . S
C634 C633 1.267 . S
C634 C635 1.251 . S
C635 H605 0.929 . S
C635 N631 1.418 . S
C635 C634 1.251 . S
C636 H603 0.930 . S
C636 C638 1.406 . S
C636 C641 1.261 . S
C637 H604 0.930 . S
C637 N639 1.325 . S
C637 C640 1.357 . S
C638 H606 0.928 . S
C638 C636 1.406 . S
C638 N639 1.261 . S
N639 Co590 2.214 . S
N639 C637 1.325 . S
N639 C638 1.261 . S
C640 H610 0.931 . S
C640 C637 1.357 . S
C640 C641 1.312 . S
C641 H612 0.930 . S
C641 C636 1.261 . S
C641 C640 1.312 . S
C642 O614 1.214 1_545 S
C642 O622 1.234 . S
C643 H615 0.929 . S
C643 C646 1.391 . S
C643 C648 1.391 . S
C644 H616 0.929 . S
C644 C645 1.390 . S
C644 N647 1.391 . S
C645 H617 0.930 . S
C645 C644 1.390 . S
C645 C646 1.392 . S
C646 H618 0.929 . S
C646 C643 1.391 . S
C646 C645 1.392 . S
N647 Co591 2.257 . S
N647 C644 1.391 . S
N647 C648 1.388 . S
C648 H619 0.930 . S
C648 C643 1.391 . S
C648 N647 1.388 . S
Co649 O651 2.143 1_556 S
Co649 O657 2.074 . S
Co649 O660 2.093 . S
Co649 O673 2.097 . S
Co649 N690 2.151 1_556 S
Co649 N698 2.214 . S
Co650 O651 2.160 1_556 S
Co650 O656 2.058 1_556 S
Co650 O666 2.057 1_556 S
Co650 O681 2.037 . S
Co650 N685 2.145 . S
Co650 N706 2.257 . S
O651 Co649 2.143 1_554 S
O651 Co650 2.160 1_554 S
C652 O653 1.279 . S
C652 O660 1.220 1_554 S
O653 C652 1.279 . S
C654 O655 1.245 . S
C654 O666 1.232 . S
O655 C654 1.245 . S
O656 Co650 2.058 1_554 S
O656 C682 1.267 1_554 S
O657 Co649 2.074 . S
O657 C682 1.261 . S
H658 C683 0.930 . S
H659 C689 0.930 . S
O660 Co649 2.093 . S
O660 C652 1.220 1_556 S
H661 C693 0.929 . S
H662 C695 0.930 . S
H663 C696 0.930 . S
H664 C694 0.929 . S
H665 C697 0.928 . S
O666 Co650 2.057 1_554 S
O666 C654 1.232 . S
H667 C686 0.929 . S
H668 C687 0.929 1_554 S
H669 C699 0.931 . S
H670 C691 0.929 . S
H671 C700 0.930 . S
H672 C692 0.931 . S
O673 Co649 2.097 . S
O673 C701 1.214 . S
H674 C702 0.929 1_554 S
H675 C703 0.929 . S
H676 C704 0.930 . S
H677 C705 0.929 . S
H678 C707 0.930 . S
H679 C684 0.930 . S
H680 C688 0.930 . S
O681 Co650 2.037 . S
O681 C701 1.234 . S
C682 O656 1.267 1_556 S
C682 O657 1.261 . S
C683 H658 0.930 . S
C683 C686 1.388 1_545 S
C683 C688 1.418 . S
C684 H679 0.930 . S
C684 C687 1.404 1_545 S
C684 C688 1.353 . S
N685 Co650 2.145 . S
N685 C686 1.397 . S
N685 C687 1.334 . S
C686 H667 0.929 . S
C686 C683 1.388 1_565 S
C686 N685 1.397 . S
C687 H668 0.929 1_556 S
C687 C684 1.404 1_565 S
C687 N685 1.334 . S
C688 H680 0.930 . S
C688 C683 1.418 . S
C688 C684 1.353 . S
C689 H659 0.930 . S
C689 N690 1.330 . S
C689 C691 1.446 . S
N690 Co649 2.151 1_554 S
N690 C689 1.330 . S
N690 C694 1.418 . S
C691 H670 0.929 . S
C691 C689 1.446 . S
C691 C692 1.332 . S
C692 H672 0.931 . S
C692 C691 1.332 . S
C692 C693 1.267 . S
C693 H661 0.929 . S
C693 C692 1.267 . S
C693 C694 1.251 . S
C694 H664 0.929 . S
C694 N690 1.418 . S
C694 C693 1.251 . S
C695 H662 0.930 . S
C695 C697 1.406 . S
C695 C700 1.261 . S
C696 H663 0.930 . S
C696 N698 1.325 . S
C696 C699 1.357 . S
C697 H665 0.928 . S
C697 C695 1.406 . S
C697 N698 1.261 . S
N698 Co649 2.214 . S
N698 C696 1.325 . S
N698 C697 1.261 . S
C699 H669 0.931 . S
C699 C696 1.357 . S
C699 C700 1.312 . S
C700 H671 0.930 . S
C700 C695 1.261 . S
C700 C699 1.312 . S
C701 O673 1.214 . S
C701 O681 1.234 . S
C702 H674 0.929 1_556 S
C702 C705 1.391 . S
C702 C707 1.391 1_556 S
C703 H675 0.929 . S
C703 C704 1.390 . S
C703 N706 1.391 . S
C704 H676 0.930 . S
C704 C703 1.390 . S
C704 C705 1.392 . S
C705 H677 0.929 . S
C705 C702 1.391 . S
C705 C704 1.392 . S
N706 Co650 2.257 . S
N706 C703 1.391 . S
N706 C707 1.388 1_556 S
C707 H678 0.930 . S
C707 C702 1.391 1_554 S
C707 N706 1.388 1_554 S
C5 C477 1.623 . S
C64 C536 1.625 . S
C595 C123 1.625 . S
C654 C182 1.623 . S
C359 C241 1.625 . S
C418 C300 1.625 . S
C3 C180 2.075 1_545 S
C239 C62 2.075 . S
C298 C121 2.074 1_455 S
C357 C534 2.075 1_655 S
C593 C416 2.075 1_545 S
C475 C652 2.074 . S
C387 C33 1.338 . S
C92 C446 1.338 . S
C505 C151 1.339 . S
C564 C210 1.338 . S
C269 C623 1.338 . S
C682 C328 1.339 . S
C52 C465 1.294 1_545 S
C524 C111 1.296 . S
C583 C170 1.294 1_455 S
C229 C642 1.294 1_565 S
C701 C288 1.296 . S
C406 C347 1.294 1_655 S
