# Generated by pormake.
# Topology wne, (6)-cn, num edge types: 1
# Building blocks:
#     Node 0, Type 0, BuildingBlock: GEDQOX_clean_sbu_0, # of connection points: 6
#     Node 1, Type 0, BuildingBlock: GEDQOX_clean_sbu_0, # of connection points: 6
#     Node 2, Type 0, BuildingBlock: GEDQOX_clean_sbu_0, # of connection points: 6
#     Node 3, Type 0, BuildingBlock: GEDQOX_clean_sbu_0, # of connection points: 6
#     Node 4, Type 0, BuildingBlock: GEDQOX_clean_sbu_0, # of connection points: 6
#     Node 5, Type 0, BuildingBlock: GEDQOX_clean_sbu_0, # of connection points: 6
#     Node 6, Type 0, BuildingBlock: GEDQOX_clean_sbu_0, # of connection points: 6
#     Node 7, Type 0, BuildingBlock: GEDQOX_clean_sbu_0, # of connection points: 6
#     Node 8, Type 0, BuildingBlock: GEDQOX_clean_sbu_0, # of connection points: 6
#     Node 9, Type 0, BuildingBlock: GEDQOX_clean_sbu_0, # of connection points: 6
#     Node 10, Type 0, BuildingBlock: GEDQOX_clean_sbu_0, # of connection points: 6
#     Node 11, Type 0, BuildingBlock: GEDQOX_clean_sbu_0, # of connection points: 6
#     Node 12, Type 0, BuildingBlock: GEDQOX_clean_sbu_0, # of connection points: 6
#     Node 13, Type 0, BuildingBlock: GEDQOX_clean_sbu_0, # of connection points: 6
#     Node 14, Type 0, BuildingBlock: GEDQOX_clean_sbu_0, # of connection points: 6
#     Node 15, Type 0, BuildingBlock: GEDQOX_clean_sbu_0, # of connection points: 6
#     Node 16, Type 0, BuildingBlock: GEDQOX_clean_sbu_0, # of connection points: 6
#     Node 17, Type 0, BuildingBlock: GEDQOX_clean_sbu_0, # of connection points: 6
#     Node 18, Type 0, BuildingBlock: GEDQOX_clean_sbu_0, # of connection points: 6
#     Node 19, Type 0, BuildingBlock: GEDQOX_clean_sbu_0, # of connection points: 6
#     Node 20, Type 0, BuildingBlock: GEDQOX_clean_sbu_0, # of connection points: 6
#     Node 21, Type 0, BuildingBlock: GEDQOX_clean_sbu_0, # of connection points: 6
#     Node 22, Type 0, BuildingBlock: GEDQOX_clean_sbu_0, # of connection points: 6
#     Node 23, Type 0, BuildingBlock: GEDQOX_clean_sbu_0, # of connection points: 6
#     Node 24, Type 0, BuildingBlock: GEDQOX_clean_sbu_0, # of connection points: 6
#     Node 25, Type 0, BuildingBlock: GEDQOX_clean_sbu_0, # of connection points: 6
#     Node 26, Type 0, BuildingBlock: GEDQOX_clean_sbu_0, # of connection points: 6
#     Node 27, Type 0, BuildingBlock: GEDQOX_clean_sbu_0, # of connection points: 6
#     Node 28, Type 0, BuildingBlock: GEDQOX_clean_sbu_0, # of connection points: 6
#     Node 29, Type 0, BuildingBlock: GEDQOX_clean_sbu_0, # of connection points: 6
#     Node 30, Type 0, BuildingBlock: GEDQOX_clean_sbu_0, # of connection points: 6
#     Node 31, Type 0, BuildingBlock: GEDQOX_clean_sbu_0, # of connection points: 6
#     Node 32, Type 0, BuildingBlock: GEDQOX_clean_sbu_0, # of connection points: 6
#     Node 33, Type 0, BuildingBlock: GEDQOX_clean_sbu_0, # of connection points: 6
#     Node 34, Type 0, BuildingBlock: GEDQOX_clean_sbu_0, # of connection points: 6
#     Node 35, Type 0, BuildingBlock: GEDQOX_clean_sbu_0, # of connection points: 6
#     Edge 36, Type (0, 0), None
#     Edge 37, Type (0, 0), None
#     Edge 38, Type (0, 0), None
#     Edge 39, Type (0, 0), None
#     Edge 40, Type (0, 0), None
#     Edge 41, Type (0, 0), None
#     Edge 42, Type (0, 0), None
#     Edge 43, Type (0, 0), None
#     Edge 44, Type (0, 0), None
#     Edge 45, Type (0, 0), None
#     Edge 46, Type (0, 0), None
#     Edge 47, Type (0, 0), None
#     Edge 48, Type (0, 0), None
#     Edge 49, Type (0, 0), None
#     Edge 50, Type (0, 0), None
#     Edge 51, Type (0, 0), None
#     Edge 52, Type (0, 0), None
#     Edge 53, Type (0, 0), None
#     Edge 54, Type (0, 0), None
#     Edge 55, Type (0, 0), None
#     Edge 56, Type (0, 0), None
#     Edge 57, Type (0, 0), None
#     Edge 58, Type (0, 0), None
#     Edge 59, Type (0, 0), None
#     Edge 60, Type (0, 0), None
#     Edge 61, Type (0, 0), None
#     Edge 62, Type (0, 0), None
#     Edge 63, Type (0, 0), None
#     Edge 64, Type (0, 0), None
#     Edge 65, Type (0, 0), None
#     Edge 66, Type (0, 0), None
#     Edge 67, Type (0, 0), None
#     Edge 68, Type (0, 0), None
#     Edge 69, Type (0, 0), None
#     Edge 70, Type (0, 0), None
#     Edge 71, Type (0, 0), None
#     Edge 72, Type (0, 0), None
#     Edge 73, Type (0, 0), None
#     Edge 74, Type (0, 0), None
#     Edge 75, Type (0, 0), None
#     Edge 76, Type (0, 0), None
#     Edge 77, Type (0, 0), None
#     Edge 78, Type (0, 0), None
#     Edge 79, Type (0, 0), None
#     Edge 80, Type (0, 0), None
#     Edge 81, Type (0, 0), None
#     Edge 82, Type (0, 0), None
#     Edge 83, Type (0, 0), None
#     Edge 84, Type (0, 0), None
#     Edge 85, Type (0, 0), None
#     Edge 86, Type (0, 0), None
#     Edge 87, Type (0, 0), None
#     Edge 88, Type (0, 0), None
#     Edge 89, Type (0, 0), None
#     Edge 90, Type (0, 0), None
#     Edge 91, Type (0, 0), None
#     Edge 92, Type (0, 0), None
#     Edge 93, Type (0, 0), None
#     Edge 94, Type (0, 0), None
#     Edge 95, Type (0, 0), None
#     Edge 96, Type (0, 0), None
#     Edge 97, Type (0, 0), None
#     Edge 98, Type (0, 0), None
#     Edge 99, Type (0, 0), None
#     Edge 100, Type (0, 0), None
#     Edge 101, Type (0, 0), None
#     Edge 102, Type (0, 0), None
#     Edge 103, Type (0, 0), None
#     Edge 104, Type (0, 0), None
#     Edge 105, Type (0, 0), None
#     Edge 106, Type (0, 0), None
#     Edge 107, Type (0, 0), None
#     Edge 108, Type (0, 0), None
#     Edge 109, Type (0, 0), None
#     Edge 110, Type (0, 0), None
#     Edge 111, Type (0, 0), None
#     Edge 112, Type (0, 0), None
#     Edge 113, Type (0, 0), None
#     Edge 114, Type (0, 0), None
#     Edge 115, Type (0, 0), None
#     Edge 116, Type (0, 0), None
#     Edge 117, Type (0, 0), None
#     Edge 118, Type (0, 0), None
#     Edge 119, Type (0, 0), None
#     Edge 120, Type (0, 0), None
#     Edge 121, Type (0, 0), None
#     Edge 122, Type (0, 0), None
#     Edge 123, Type (0, 0), None
#     Edge 124, Type (0, 0), None
#     Edge 125, Type (0, 0), None
#     Edge 126, Type (0, 0), None
#     Edge 127, Type (0, 0), None
#     Edge 128, Type (0, 0), None
#     Edge 129, Type (0, 0), None
#     Edge 130, Type (0, 0), None
#     Edge 131, Type (0, 0), None
#     Edge 132, Type (0, 0), None
#     Edge 133, Type (0, 0), None
#     Edge 134, Type (0, 0), None
#     Edge 135, Type (0, 0), None
#     Edge 136, Type (0, 0), None
#     Edge 137, Type (0, 0), None
#     Edge 138, Type (0, 0), None
#     Edge 139, Type (0, 0), None
#     Edge 140, Type (0, 0), None
#     Edge 141, Type (0, 0), None
#     Edge 142, Type (0, 0), None
#     Edge 143, Type (0, 0), None
# Relax obj value: 0.321
# Max RMSD: 0.310
# Mean RMSD: 0.308
data_MOF--net-wne--node1-GEDQOX_clean_sbu_0--edge1-none
_symmetry_space_group_name_H-M    P1
_symmetry_Int_Tables_number       1
_symmetry_cell_setting            triclinic
loop_
_symmetry_equiv_pos_as_xyz
'x, y, z'
_cell_length_a     48.180547
_cell_length_b     48.116759
_cell_length_c     18.117666
_cell_angle_alpha  89.916861
_cell_angle_beta   89.979751
_cell_angle_gamma 119.87654
loop_
_atom_site_label
_atom_site_type_symbol
_atom_site_fract_x
_atom_site_fract_y
_atom_site_fract_z
_atom_type_partial_charge
Nd0 Nd 0.39532 0.31862 0.09673 0.0
Nd1 Nd 0.34834 0.30914 0.03324 0.0
C2 C 0.44962 0.32474 0.14465 0.0
C3 C 0.45271 0.30181 0.19077 0.0
C4 C 0.47051 0.28871 0.16176 0.0
C5 C 0.45905 0.25612 0.16951 0.0
C6 C 0.42991 0.23685 0.20645 0.0
C7 C 0.41587 0.2512 0.24759 0.0
C8 C 0.42771 0.28391 0.24088 0.0
C9 C 0.35415 0.31414 0.21246 0.0
C10 C 0.35334 0.24299 0.04472 0.0
C11 C 0.29299 0.30763 0.99108 0.0
C12 C 0.2613 0.30851 0.97841 0.0
C13 C 0.2524 0.32569 0.02766 0.0
C14 C 0.22408 0.32777 0.01839 0.0
C15 C 0.20204 0.31225 0.96031 0.0
C16 C 0.21034 0.29444 0.9113 0.0
C17 C 0.23916 0.29259 0.92015 0.0
C18 C 0.41745 0.3315 0.9352 0.0
C19 C 0.39414 0.38173 0.08662 0.0
O20 O 0.4378 0.31331 0.07959 0.0
O21 O 0.4359 0.33918 0.17552 0.0
O22 O 0.38386 0.3355 0.20542 0.0
O23 O 0.34555 0.29505 0.15668 0.0
O24 O 0.37752 0.26331 0.08589 0.0
O25 O 0.33656 0.25491 0.01297 0.0
O26 O 0.31058 0.32223 0.04824 0.0
O27 O 0.30603 0.29435 0.95066 0.0
O28 O 0.39874 0.33923 0.97345 0.0
O29 O 0.398 0.33718 0.97423 0.0
O30 O 0.36352 0.36118 0.07664 0.0
O31 O 0.41384 0.37086 0.08764 0.0
H32 H 0.49022 0.3024 0.12416 0.0
H33 H 0.47133 0.2456 0.1409 0.0
H34 H 0.39387 0.23693 0.27803 0.0
H35 H 0.41396 0.29381 0.26519 0.0
H36 H 0.26792 0.33849 0.07352 0.0
H37 H 0.21965 0.34229 0.05698 0.0
H38 H 0.19511 0.28275 0.86428 0.0
H39 H 0.24428 0.27897 0.88042 0.0
Nd40 Nd 0.85146 0.11732 0.09692 0.0
Nd41 Nd 0.85774 0.07383 0.03399 0.0
C42 C 0.83878 0.16326 0.12831 0.0
C43 C 0.8532 0.19355 0.08708 0.0
C44 C 0.86761 0.19459 0.01889 0.0
C45 C 0.8953 0.22218 0.99699 0.0
C46 C 0.9091 0.24841 0.04458 0.0
C47 C 0.89106 0.2497 0.10414 0.0
C48 C 0.86287 0.22212 0.1251 0.0
C49 C 0.85632 0.07909 0.21471 0.0
C50 C 0.92429 0.14585 0.04648 0.0
C51 C 0.86687 1.0264 0.97402 0.0
C52 C 0.86252 0.99191 0.97642 0.0
C53 C 0.83927 0.96637 0.01989 0.0
C54 C 0.83489 0.93457 0.01668 0.0
C55 C 0.85372 0.92622 0.97094 0.0
C56 C 0.87779 0.95207 0.92971 0.0
C57 C 0.88192 0.9838 0.93221 0.0
C58 C 0.82451 0.10641 0.93227 0.0
C59 C 0.78488 1.05166 0.07234 0.0
O60 O 0.81904 0.13781 0.09123 0.0
O61 O 0.85967 0.159 0.16509 0.0
O62 O 0.87194 0.11014 0.20929 0.0
O63 O 0.84095 0.06925 0.15435 0.0
O64 O 0.90197 0.15355 0.05274 0.0
O65 O 0.91399 0.11432 0.05054 0.0
O66 O 0.88657 1.04856 0.01958 0.0
O67 O 0.84307 1.0312 0.95774 0.0
O68 O 0.85091 0.11203 0.96706 0.0
O69 O 0.85029 0.11106 0.96777 0.0
O70 O 0.80324 1.03939 0.05645 0.0
O71 O 0.7982 0.08233 0.08618 0.0
H72 H 0.86105 0.1729 0.989 0.0
H73 H 0.90868 0.22091 0.95033 0.0
H74 H 0.90129 0.27007 0.14116 0.0
H75 H 0.85143 0.22184 0.17631 0.0
H76 H 0.82362 0.97065 0.05507 0.0
H77 H 0.81596 0.91605 0.0496 0.0
H78 H 0.8928 0.94758 0.89283 0.0
H79 H 0.90028 1.00216 0.89774 0.0
Nd80 Nd 1.05396 0.77037 0.11368 0.0
Nd81 Nd 1.09201 0.8152 0.03911 0.0
C82 C 1.01401 0.71513 0.17554 0.0
C83 C 0.98569 0.70958 0.21702 0.0
C84 C 0.9561 0.69076 0.18244 0.0
C85 C 0.93343 0.70056 0.18398 0.0
C86 C 0.94012 0.72889 0.22108 0.0
C87 C 0.96682 0.74365 0.26767 0.0
C88 C 0.98918 0.73341 0.26715 0.0
C89 C 1.08752 0.81866 0.22144 0.0
C90 C 1.01826 0.80761 0.05158 0.0
C91 C 0.13827 0.87029 0.97126 0.0
C92 C 0.17202 0.90108 0.9732 0.0
C93 C 0.19737 0.90504 0.01973 0.0
C94 C 0.22859 0.93308 0.01631 0.0
C95 C 0.2364 0.9592 0.96739 0.0
C96 C 0.21075 0.95561 0.9225 0.0
C97 C 0.17962 0.92741 0.92526 0.0
C98 C 1.04182 0.74612 0.94552 0.0
C99 C 0.11972 0.77158 0.0965 0.0
O100 O 1.01255 0.72147 0.10604 0.0
O101 O 1.04166 0.73499 0.20474 0.0
O102 O 1.05671 0.80072 0.21668 0.0
O103 O 0.09995 0.81399 0.16406 0.0
O104 O 1.01348 0.78232 0.08912 0.0
O105 O 1.04791 0.82579 0.02561 0.0
O106 O 0.11518 0.86832 0.01264 0.0
O107 O 0.13484 0.84178 0.96282 0.0
O108 O 1.06664 0.76305 0.98901 0.0
O109 O 1.06593 0.76406 0.98888 0.0
O110 O 0.13052 0.80113 0.07236 0.0
O111 O 1.08975 0.75423 0.11386 0.0
H112 H 0.95251 0.67163 0.14524 0.0
H113 H 0.91188 0.68745 0.1514 0.0
H114 H 0.97215 0.76493 0.29879 0.0
H115 H 1.01136 0.74757 0.29694 0.0
H116 H 0.19343 0.886 0.05768 0.0
H117 H 0.24708 0.93404 0.05172 0.0
H118 H 0.21502 0.97411 0.88262 0.0
H119 H 0.16137 0.92596 0.88802 0.0
Nd120 Nd 0.33975 0.35503 0.39666 0.0
Nd121 Nd 0.33462 0.30822 0.46615 0.0
C122 C 0.35484 0.41186 0.34408 0.0
C123 C 0.33885 0.42966 0.36488 0.0
C124 C 0.33066 0.42938 0.43977 0.0
C125 C 0.30009 0.42342 0.45827 0.0
C126 C 0.27865 0.41912 0.40172 0.0
C127 C 0.28953 0.4267 0.32869 0.0
C128 C 0.3197 0.4321 0.31031 0.0
C129 C 0.33646 0.31133 0.28504 0.0
C130 C 0.2678 0.31314 0.44956 0.0
C131 C 0.32805 0.25378 0.53211 0.0
C132 C 0.33469 0.22502 0.53051 0.0
C133 C 0.36584 0.22892 0.53383 0.0
C134 C 0.37122 0.20229 0.54119 0.0
C135 C 0.34594 0.16978 0.54442 0.0
C136 C 0.31477 0.16576 0.5389 0.0
C137 C 0.30936 0.19254 0.53274 0.0
C138 C 0.36751 0.3758 0.56101 0.0
C139 C 0.40605 0.35763 0.42397 0.0
O140 O 0.37162 0.40802 0.39522 0.0
O141 O 0.33589 0.3851 0.31016 0.0
O142 O 0.31817 0.3239 0.28993 0.0
O143 O 0.35171 0.31781 0.34567 0.0
O144 O 0.28979 0.34301 0.43917 0.0
O145 O 0.27829 0.29197 0.44925 0.0
O146 O 0.30719 0.2545 0.48691 0.0
O147 O 0.35084 0.28304 0.54705 0.0
O148 O 0.34108 0.35431 0.52766 0.0
O149 O 0.34167 0.35396 0.52701 0.0
O150 O 0.38848 0.32712 0.44011 0.0
O151 O 0.39213 0.37437 0.41198 0.0
H152 H 0.34543 0.4282 0.48325 0.0
H153 H 0.2921 0.41828 0.51512 0.0
H154 H 0.27323 0.42419 0.28459 0.0
H155 H 0.32535 0.43203 0.25243 0.0
H156 H 0.38639 0.25288 0.53317 0.0
H157 H 0.39576 0.20742 0.54489 0.0
H158 H 0.29426 0.1418 0.54092 0.0
H159 H 0.28488 0.18768 0.53109 0.0
Nd160 Nd 0.80305 1.02398 0.40701 0.0
Nd161 Nd 0.8487 1.05875 0.46979 0.0
C162 C 0.74816 0.97718 0.35822 0.0
C163 C 0.74492 0.95136 0.31148 0.0
C164 C 0.72537 0.92031 0.33825 0.0
C165 C 0.73579 0.89825 0.33266 0.0
C166 C 0.76531 0.90706 0.29866 0.0
C167 C 0.78148 0.93593 0.25967 0.0
C168 C 0.77101 0.95799 0.26526 0.0
C169 C 0.84068 1.06271 0.28855 0.0
C170 C 0.84224 0.9871 0.45363 0.0
C171 C 0.90214 0.10882 0.53382 0.0
C172 C 0.93433 0.14116 0.52698 0.0
C173 C 0.93686 0.16775 0.48737 0.0
C174 C 0.96458 0.19896 0.49154 0.0
C175 C 0.9919 0.20573 0.53458 0.0
C176 C 0.99009 0.17889 0.5717 0.0
C177 C 0.962 0.14761 0.56848 0.0
C178 C 0.77902 1.00888 0.5659 0.0
C179 C 0.80689 0.08865 0.42122 0.0
O180 O 0.75983 0.97677 0.42287 0.0
O181 O 0.76226 1.00559 0.32856 0.0
O182 O 0.81063 1.05212 0.29915 0.0
O183 O 0.85191 1.05344 0.34229 0.0
O184 O 0.8199 0.98552 0.40931 0.0
O185 O 0.85833 1.01466 0.48992 0.0
O186 O 0.87549 0.10818 0.51829 0.0
O187 O 0.89936 0.08094 0.51899 0.0
O188 O 0.7995 1.03664 0.53502 0.0
O189 O 0.80014 1.03521 0.53311 0.0
O190 O 0.83716 0.09652 0.41596 0.0
O191 O 0.78665 1.0588 0.43299 0.0
H192 H 0.70495 0.91475 0.3731 0.0
H193 H 0.72205 0.8752 0.35968 0.0
H194 H 0.80384 0.9428 0.23153 0.0
H195 H 0.78623 0.98183 0.24312 0.0
H196 H 0.91666 0.16488 0.45522 0.0
H197 H 0.96425 0.2183 0.46179 0.0
H198 H 1.00984 0.18231 0.60635 0.0
H199 H 0.96158 0.12851 0.60104 0.0
Nd200 Nd 0.14126 0.81989 0.40787 0.0
Nd201 Nd 0.10125 0.82641 0.47741 0.0
C202 C 0.17953 0.80257 0.34511 0.0
C203 C 0.2058 0.82384 0.29663 0.0
C204 C 0.23658 0.83637 0.32605 0.0
C205 C 0.25784 0.86899 0.31999 0.0
C206 C 0.24883 0.8887 0.2817 0.0
C207 C 0.22111 0.8748 0.2385 0.0
C208 C 0.19979 0.84207 0.24481 0.0
C209 C 0.10495 0.82876 0.29641 0.0
C210 C 0.1734 0.89371 0.45075 0.0
C211 C 1.05341 0.83296 0.54351 0.0
C212 C 1.01813 0.82658 0.53982 0.0
C213 C 0.99089 0.79545 0.54371 0.0
C214 C 0.95891 0.79016 0.54941 0.0
C215 C 0.95159 0.81548 0.55042 0.0
C216 C 0.97874 0.84665 0.54448 0.0
C217 C 1.01092 0.85199 0.53992 0.0
C218 C 0.13608 0.79072 0.56655 0.0
C219 C 1.07701 0.75508 0.43707 0.0
O220 O 0.18332 0.81323 0.41256 0.0
O221 O 0.15076 0.79302 0.32079 0.0
O222 O 0.13593 0.84474 0.30201 0.0
O223 O 1.0937 0.81226 0.35508 0.0
O224 O 0.18061 0.87219 0.42908 0.0
O225 O 0.14225 0.8829 0.46517 0.0
O226 O 1.0757 0.85449 0.50066 0.0
O227 O 1.05942 0.80967 0.55696 0.0
O228 O 0.1399 0.81817 0.53974 0.0
O229 O 0.13857 0.81707 0.53854 0.0
O230 O 1.06469 0.77364 0.44595 0.0
O231 O 0.10788 0.76824 0.43268 0.0
H232 H 0.2421 0.82238 0.36405 0.0
H233 H 0.28024 0.87916 0.34997 0.0
H234 H 0.21433 0.88945 0.20626 0.0
H235 H 0.17664 0.83244 0.21841 0.0
H236 H 0.99426 0.77483 0.54481 0.0
H237 H 0.93958 0.76561 0.55371 0.0
H238 H 0.97527 0.86721 0.54499 0.0
H239 H 1.0305 0.87648 0.53789 0.0
Nd240 Nd 0.84787 0.8222 0.97116 0.0
Nd241 Nd 0.79892 0.81817 0.90483 0.0
C242 C 0.90373 0.82948 0.03108 0.0
C243 C 0.93313 0.8237 0.03299 0.0
C244 C 0.95146 0.82476 0.9701 0.0
C245 C 0.97931 0.82092 0.97536 0.0
C246 C 0.99033 0.81531 0.04369 0.0
C247 C 0.97228 0.81484 0.10613 0.0
C248 C 0.94534 0.81978 0.1011 0.0
C249 C 0.78008 0.78801 0.06791 0.0
C250 C 0.79754 0.7509 0.92539 0.0
C251 C 0.74066 0.80663 0.87425 0.0
C252 C 0.72549 0.82078 0.91909 0.0
C253 C 0.74048 0.83463 0.98624 0.0
C254 C 0.74247 0.86287 0.01024 0.0
C255 C 0.72957 0.87753 0.9668 0.0
C256 C 0.70832 0.85998 0.90951 0.0
C257 C 0.70634 0.83141 0.8855 0.0
C258 C 0.84199 0.82331 0.78878 0.0
C259 C 0.8448 0.8904 0.96016 0.0
O260 O 0.90189 0.848 0.98066 0.0
O261 O 0.87489 0.80792 0.05293 0.0
O262 O 0.80166 0.81468 0.03469 0.0
O263 O 0.80202 0.81413 0.03406 0.0
O264 O 0.82757 0.76802 0.94615 0.0
O265 O 0.78116 0.76514 0.90994 0.0
O266 O 0.74603 0.78588 0.90824 0.0
O267 O 0.76594 0.82801 0.83872 0.0
O268 O 0.82557 0.83798 0.792 0.0
O269 O 0.83711 0.80771 0.84894 0.0
O270 O 0.8147 0.86902 0.95055 0.0
O271 O 0.86519 0.87903 0.95837 0.0
H272 H 0.9444 0.82873 0.91618 0.0
H273 H 0.99185 0.82166 0.92517 0.0
H274 H 0.97923 0.81085 0.16022 0.0
H275 H 0.9337 0.82024 0.15177 0.0
H276 H 0.75614 0.82775 0.0121 0.0
H277 H 0.7595 0.87625 0.05329 0.0
H278 H 0.6979 0.87095 0.87544 0.0
H279 H 0.69371 0.82038 0.83526 0.0
Nd280 Nd 0.33927 1.05809 0.96689 0.0
Nd281 Nd 0.34385 1.0136 0.90062 0.0
C282 C 0.3306 0.10609 0.02559 0.0
C283 C 0.33657 0.14138 0.02749 0.0
C284 C 0.33772 0.15949 0.96403 0.0
C285 C 0.34187 0.19133 0.96888 0.0
C286 C 0.34561 0.2073 0.03741 0.0
C287 C 0.34384 0.18891 0.10041 0.0
C288 C 0.33853 0.15685 0.09561 0.0
C289 C 0.37449 1.02522 0.06422 0.0
C290 C 0.41041 0.07992 0.9173 0.0
C291 C 0.35576 0.96699 0.8713 0.0
C292 C 0.34076 0.93732 0.9151 0.0
C293 C 0.32638 0.93804 0.98199 0.0
C294 C 0.29758 0.91189 1.0039 0.0
C295 C 0.28316 0.88479 0.95914 0.0
C296 C 0.30106 0.88142 0.90204 0.0
C297 C 0.33006 0.90787 0.88009 0.0
C298 C 0.33794 1.05138 0.78462 0.0
C299 C 0.27184 0.98643 0.95638 0.0
O300 O 0.31323 0.08634 0.9733 0.0
O301 O 0.35154 0.09833 0.04976 0.0
O302 O 0.34782 1.01992 0.03059 0.0
O303 O 0.34833 1.02082 0.02994 0.0
O304 O 0.39328 0.09252 0.94083 0.0
O305 O 0.39636 1.0494 0.90159 0.0
O306 O 0.37602 0.99277 0.90669 0.0
O307 O 0.33512 0.97137 0.8337 0.0
O308 O 0.3236 1.0203 0.78796 0.0
O309 O 0.35359 1.06205 0.84452 0.0
O310 O 0.29345 0.97806 0.94619 0.0
O311 O 0.2827 1.01808 0.95498 0.0
H312 H 0.3352 0.14898 0.90995 0.0
H313 H 0.34284 0.20375 0.91826 0.0
H314 H 0.34632 0.19931 0.15466 0.0
H315 H 0.33639 0.14412 0.14648 0.0
H316 H 0.33372 0.96032 0.00979 0.0
H317 H 0.28411 0.91509 0.04759 0.0
H318 H 0.29028 0.86039 0.86703 0.0
H319 H 0.34154 0.90659 0.83023 0.0
Nd320 Nd 0.10473 0.31754 0.9651 0.0
Nd321 Nd 0.14751 0.36611 0.89707 0.0
C322 C 1.0583 0.26215 0.03099 0.0
C323 C 1.02439 0.23144 0.02875 0.0
C324 C 0.99752 0.23006 0.99348 0.0
C325 C 0.96623 0.20223 0.99753 0.0
C326 C 0.95962 0.17368 0.03589 0.0
C327 C 0.98677 0.17457 0.06868 0.0
C328 C 1.01809 0.20263 0.06547 0.0
C329 C 0.13887 0.38495 0.06356 0.0
C330 C 1.08191 0.3669 0.91526 0.0
C331 C 0.19536 0.42384 0.86822 0.0
C332 C 0.22505 0.43698 0.91187 0.0
C333 C 0.2237 0.42146 0.97862 0.0
C334 C 0.24926 0.4178 1.00108 0.0
C335 C 0.27634 0.4296 0.95639 0.0
C336 C 0.28045 0.45108 0.89907 0.0
C337 C 0.25471 0.45493 0.87723 0.0
C338 C 0.10835 0.32234 0.78218 0.0
C339 C 0.17492 0.3203 0.94609 0.0
O340 O 1.08135 0.2642 0.98902 0.0
O341 O 1.06188 0.29074 0.04118 0.0
O342 O 0.14361 0.36362 0.02803 0.0
O343 O 0.14266 0.36322 0.02738 0.0
O344 O 1.07009 0.33675 0.93539 0.0
O345 O 0.11259 0.38449 0.90247 0.0
O346 O 0.16993 0.41927 0.90407 0.0
O347 O 0.18986 0.39877 0.82928 0.0
O348 O 0.13937 0.33968 0.78269 0.0
O349 O 0.09844 0.32695 0.84364 0.0
O350 O 0.18314 0.35033 0.93764 0.0
O351 O 0.14339 0.29974 0.9465 0.0
H352 H 1.0004 0.25096 0.96416 0.0
H353 H 0.94673 0.20332 0.97086 0.0
H354 H 0.9837 0.15392 0.09945 0.0
H355 H 1.03757 0.20194 0.09352 0.0
H356 H 0.20138 0.40727 1.00638 0.0
H357 H 0.24571 0.40137 0.04578 0.0
H358 H 0.30154 0.46078 0.86426 0.0
H359 H 0.2567 0.46832 0.82808 0.0
Nd360 Nd 0.84867 0.81245 0.53546 0.0
Nd361 Nd 0.84231 0.76597 0.60818 0.0
C362 C 0.85876 0.86881 0.47161 0.0
C363 C 0.85413 0.899 0.46974 0.0
C364 C 0.85288 0.91572 0.53343 0.0
C365 C 0.85028 0.94435 0.52894 0.0
C366 C 0.84829 0.95792 0.46052 0.0
C367 C 0.84988 0.94133 0.39728 0.0
C368 C 0.85355 0.91351 0.40179 0.0
C369 C 0.81493 0.74404 0.43992 0.0
C370 C 0.77623 0.76203 0.57332 0.0
C371 C 0.83137 0.7152 0.68433 0.0
C372 C 0.85324 0.7178 0.74382 0.0
C373 C 0.87387 0.70583 0.72966 0.0
C374 C 0.90414 0.72052 0.76092 0.0
C375 C 0.91414 0.74729 0.80693 0.0
C376 C 0.89227 0.75665 0.82922 0.0
C377 C 0.86155 0.74142 0.79885 0.0
C378 C 0.85089 0.81352 0.7147 0.0
C379 C 0.91604 0.808 0.5593 0.0
O380 O 0.87675 0.8664 0.52238 0.0
O381 O 0.83642 0.84007 0.45115 0.0
O382 O 0.8408 0.76496 0.47663 0.0
O383 O 0.8402 0.76533 0.47705 0.0
O384 O 0.79453 0.79313 0.56316 0.0
O385 O 0.78994 0.74466 0.5798 0.0
O386 O 0.84462 0.72137 0.61912 0.0
O387 O 0.81495 0.72967 0.69511 0.0
O388 O 0.86783 0.79946 0.71004 0.0
O389 O 0.8336 0.80604 0.65708 0.0
O390 O 0.89428 0.77905 0.57904 0.0
O391 O 0.90521 0.82853 0.54822 0.0
H392 H 0.85398 0.90669 0.58747 0.0
H393 H 0.84903 0.95546 0.57979 0.0
H394 H 0.84852 0.95009 0.34309 0.0
H395 H 0.85549 0.90291 0.35081 0.0
H396 H 0.86815 0.68779 0.68756 0.0
H397 H 0.92086 0.71291 0.74351 0.0
H398 H 0.89958 0.77706 0.86522 0.0
H399 H 0.84592 0.7509 0.81162 0.0
Nd400 Nd 0.34833 0.07002 0.5303 0.0
Nd401 Nd 0.3946 0.10886 0.60279 0.0
C402 C 0.29249 1.02579 0.463 0.0
C403 C 0.26146 0.99204 0.46245 0.0
C404 C 0.24753 0.97287 0.52634 0.0
C405 C 0.21842 0.94232 0.52347 0.0
C406 C 0.20115 0.9292 0.45683 0.0
C407 C 0.21514 0.94846 0.39325 0.0
C408 C 0.24393 0.97904 0.39621 0.0
C409 C 0.4168 0.10316 0.43475 0.0
C410 C 0.39607 1.04527 0.57149 0.0
C411 C 0.44605 0.14795 0.67742 0.0
C412 C 0.4445 0.16767 0.73729 0.0
C413 C 0.45757 0.20045 0.72335 0.0
C414 C 0.44372 0.21694 0.75461 0.0
C415 C 0.41675 0.20091 0.80044 0.0
C416 C 0.40643 0.16947 0.8228 0.0
C417 C 0.4208 0.15305 0.79244 0.0
C418 C 0.34728 0.07029 0.71053 0.0
C419 C 0.35326 0.14165 0.55444 0.0
O420 O 0.29512 1.04728 0.51091 0.0
O421 O 0.32091 1.02985 0.44744 0.0
O422 O 0.39614 0.10869 0.47122 0.0
O423 O 0.39575 0.1077 0.47167 0.0
O424 O 0.36515 1.03357 0.56217 0.0
O425 O 0.41436 0.0763 0.57483 0.0
O426 O 0.43961 0.15522 0.61273 0.0
O427 O 0.43108 0.11711 0.68853 0.0
O428 O 0.36189 0.10133 0.70628 0.0
O429 O 0.35398 1.06036 0.65189 0.0
O430 O 0.38215 0.14843 0.57351 0.0
O431 O 0.33248 0.11046 0.54454 0.0
H432 H 0.25936 0.98132 0.57902 0.0
H433 H 0.2098 0.92848 0.57387 0.0
H434 H 0.20406 0.93954 0.34002 0.0
H435 H 0.25299 0.99239 0.3453 0.0
H436 H 0.47574 0.21226 0.68121 0.0
H437 H 0.45204 0.2414 0.73704 0.0
H438 H 0.38585 0.15689 0.85858 0.0
H439 H 0.41051 0.12783 0.80514 0.0
Nd440 Nd 1.08962 0.3072 0.52652 0.0
Nd441 Nd 1.0488 0.31446 0.59353 0.0
C442 C 0.13417 0.29538 0.46148 0.0
C443 C 0.16791 0.29844 0.46529 0.0
C444 C 0.19431 0.32338 0.50287 0.0
C445 C 0.22568 0.32701 0.49949 0.0
C446 C 0.23256 0.30551 0.46013 0.0
C447 C 0.20582 0.2797 0.4254 0.0
C448 C 0.17453 0.27644 0.42756 0.0
C449 C 1.05719 0.34306 0.42927 0.0
C450 C 0.11612 0.37914 0.56992 0.0
C451 C 1.00382 0.32841 0.62598 0.0
C452 C 0.97375 0.31453 0.58409 0.0
C453 C 0.97289 0.29984 0.51654 0.0
C454 C 0.94549 0.2721 0.49479 0.0
C455 C 0.91927 0.25832 0.54231 0.0
C456 C 0.91757 0.27669 0.60059 0.0
C457 C 0.945 0.30511 0.62114 0.0
C458 C 1.08786 0.31125 0.71021 0.0
C459 C 1.01932 0.24103 0.54537 0.0
O460 O 0.11141 0.2756 0.50582 0.0
O461 O 0.1309 0.32037 0.44798 0.0
O462 O 1.05175 0.31622 0.4627 0.0
O463 O 1.05274 0.31682 0.46342 0.0
O464 O 0.12737 0.36014 0.55314 0.0
O465 O 1.08539 0.36671 0.58131 0.0
O466 O 1.02956 0.34805 0.58948 0.0
O467 O 1.00749 0.30701 0.66231 0.0
O468 O 1.05684 0.2973 0.70948 0.0
O469 O 0.09777 0.32439 0.64732 0.0
O470 O 1.01182 0.26349 0.552 0.0
O471 O 1.05063 0.25131 0.54773 0.0
H472 H 0.19106 0.34101 0.53282 0.0
H473 H 0.24504 0.34748 0.52688 0.0
H474 H 0.20927 0.26261 0.39367 0.0
H475 H 0.15536 0.25673 0.39782 0.0
H476 H 0.99456 0.30583 0.48779 0.0
H477 H 0.94722 0.25836 0.4495 0.0
H478 H 0.89711 0.26652 0.6374 0.0
H479 H 0.94497 0.31689 0.67149 0.0
Nd480 Nd 1.06183 0.65671 0.43938 0.0
Nd481 Nd 1.01346 0.64792 0.37813 0.0
C482 C 0.11719 0.66373 0.48242 0.0
C483 C 0.13127 0.64369 0.46675 0.0
C484 C 0.13258 0.63444 0.39367 0.0
C485 C 0.12855 0.60414 0.38039 0.0
C486 C 0.12368 0.58379 0.43991 0.0
C487 C 0.12901 0.59568 0.51193 0.0
C488 C 0.13224 0.62538 0.52533 0.0
C489 C 1.02231 0.65682 0.55558 0.0
C490 C 1.02047 0.58246 0.3784 0.0
C491 C 0.95767 0.64646 0.33985 0.0
C492 C 0.92659 0.64845 0.32565 0.0
C493 C 0.92197 0.67235 0.36024 0.0
C494 C 0.89358 0.67445 0.35074 0.0
C495 C 0.86699 0.65192 0.30883 0.0
C496 C 0.87104 0.62739 0.27548 0.0
C497 C 0.90009 0.62591 0.28299 0.0
C498 C 1.08192 0.6695 0.27521 0.0
C499 C 1.06033 0.72016 0.4327 0.0
O500 O 0.11453 0.6794 0.42682 0.0
O501 O 1.09107 0.64941 0.52194 0.0
O502 O 1.05233 0.67682 0.54647 0.0
O503 O 1.01271 0.63643 0.50223 0.0
O504 O 1.04883 0.60473 0.40143 0.0
O505 O 0.99935 0.59233 0.36772 0.0
O506 O 0.97619 0.66191 0.39518 0.0
O507 O 0.97022 0.63281 0.29889 0.0
O508 O 1.06398 0.67719 0.31707 0.0
O509 O 1.06319 0.67512 0.31746 0.0
O510 O 1.02981 0.70042 0.41911 0.0
O511 O 1.07954 0.70872 0.43682 0.0
H512 H 0.132 0.64829 0.34709 0.0
H513 H 0.12497 0.59513 0.32478 0.0
H514 H 0.12518 0.57993 0.55823 0.0
H515 H 0.12936 0.63118 0.58128 0.0
H516 H 0.94088 0.69025 0.39426 0.0
H517 H 0.89245 0.69407 0.37701 0.0
H518 H 0.85193 0.6096 0.24172 0.0
H519 H 0.90159 0.60669 0.25577 0.0
Nd520 Nd 0.50457 0.4369 0.42992 0.0
Nd521 Nd 0.51353 0.39982 0.36828 0.0
C522 C 0.50581 0.48646 0.49217 0.0
C523 C 0.53015 0.50512 0.54762 0.0
C524 C 0.55246 0.5369 0.53061 0.0
C525 C 0.58275 0.55102 0.56182 0.0
C526 C 0.59101 0.53369 0.61107 0.0
C527 C 0.56788 0.50315 0.63425 0.0
C528 C 0.53737 0.48894 0.60299 0.0
C529 C 0.50694 0.39843 0.54561 0.0
C530 C 0.57921 0.47138 0.37472 0.0
C531 C 0.51385 0.34481 0.32842 0.0
C532 C 0.51135 0.31145 0.31343 0.0
C533 C 0.48693 0.28286 0.3467 0.0
C534 C 0.48466 0.25221 0.33717 0.0
C535 C 0.50737 0.24795 0.29616 0.0
C536 C 0.53241 0.27659 0.26427 0.0
C537 C 0.53415 0.3073 0.27197 0.0
C538 C 0.49278 0.44872 0.27009 0.0
C539 C 0.44084 0.37624 0.41835 0.0
O540 O 0.51754 0.48802 0.42637 0.0
O541 O 0.48489 0.45726 0.51091 0.0
O542 O 0.48566 0.40676 0.53644 0.0
O543 O 0.52701 0.4098 0.49168 0.0
O544 O 0.5576 0.47611 0.40685 0.0
O545 O 0.56887 0.44128 0.3534 0.0
O546 O 0.49735 0.34772 0.38168 0.0
O547 O 0.52918 0.37161 0.29007 0.0
O548 O 0.48493 0.42121 0.30429 0.0
O549 O 0.48711 0.42276 0.30575 0.0
O550 O 0.4611 0.36539 0.41344 0.0
O551 O 0.45222 0.40691 0.41502 0.0
H552 H 0.54759 0.54968 0.48789 0.0
H553 H 0.60049 0.57489 0.54389 0.0
H554 H 0.57392 0.4897 0.67265 0.0
H555 H 0.52059 0.46426 0.61712 0.0
H556 H 0.46883 0.28396 0.37995 0.0
H557 H 0.46475 0.2315 0.36271 0.0
H558 H 0.55052 0.27524 0.23162 0.0
H559 H 0.55382 0.32802 0.24594 0.0
Nd560 Nd 0.72888 0.10623 0.41194 0.0
Nd561 Nd 0.76404 0.15169 0.36222 0.0
C562 C 0.68259 1.05159 0.46478 0.0
C563 C 0.66132 1.0485 0.5253 0.0
C564 C 0.62853 1.03027 0.51158 0.0
C565 C 0.60851 1.04123 0.5368 0.0
C566 C 0.62119 0.06988 0.57722 0.0
C567 C 0.65259 0.0844 0.60313 0.0
C568 C 0.67269 0.07336 0.57786 0.0
C569 C 0.76326 0.14318 0.53718 0.0
C570 C 0.69447 0.14813 0.37165 0.0
C571 C 0.81817 0.20783 0.32849 0.0
C572 C 0.85083 0.23833 0.31341 0.0
C573 C 0.8798 0.2378 0.32115 0.0
C574 C 0.91029 0.26584 0.3134 0.0
C575 C 0.91401 0.29658 0.30032 0.0
C576 C 0.8851 0.29743 0.29333 0.0
C577 C 0.85428 0.26895 0.29895 0.0
C578 C 0.71613 0.07968 0.26902 0.0
C579 C 0.79142 0.10636 0.39599 0.0
O580 O 0.67911 0.06578 0.40702 0.0
O581 O 0.71249 1.06284 0.48195 0.0
O582 O 0.75777 0.11489 0.52074 0.0
O583 O 0.7518 0.15254 0.48512 0.0
O584 O 0.68901 0.12059 0.399 0.0
O585 O 0.72441 0.16753 0.35048 0.0
O586 O 0.81694 0.18413 0.36568 0.0
O587 O 0.79009 0.20044 0.3009 0.0
O588 O 0.74397 0.1073 0.27831 0.0
O589 O 0.74159 0.10666 0.28509 0.0
O590 O 0.79965 0.1361 0.41029 0.0
O591 O 0.7618 0.08802 0.37862 0.0
H592 H 0.61935 1.01095 0.47168 0.0
H593 H 0.58406 1.0297 0.51682 0.0
H594 H 0.6626 0.1065 0.63434 0.0
H595 H 0.69799 0.08755 0.58997 0.0
H596 H 0.879 0.21534 0.33294 0.0
H597 H 0.93132 0.26332 0.3185 0.0
H598 H 0.88622 0.32008 0.28242 0.0
H599 H 0.83305 0.27109 0.29368 0.0
Nd600 Nd 1.00894 0.69783 0.74785 0.0
Nd601 Nd 1.00362 0.64737 0.81006 0.0
C602 C 1.01976 0.75637 0.72308 0.0
C603 C 1.00459 0.77031 0.76895 0.0
C604 C 0.99032 0.75448 0.83533 0.0
C605 C 0.96285 0.75362 0.86163 0.0
C606 C 0.94859 0.76728 0.81924 0.0
C607 C 0.96643 0.78889 0.76252 0.0
C608 C 0.99464 0.79041 0.73737 0.0
C609 C 1.00538 0.65633 0.62825 0.0
C610 C 0.93641 0.65074 0.79604 0.0
C611 C 0.99588 0.59131 0.86964 0.0
C612 C 1.00073 0.56147 0.86491 0.0
C613 C 1.03129 0.56404 0.86381 0.0
C614 C 1.03544 0.53662 0.86842 0.0
C615 C 1.00942 0.50448 0.87346 0.0
C616 C 0.97869 0.50171 0.87262 0.0
C617 C 0.97454 0.52938 0.86893 0.0
C618 C 1.03682 0.71344 0.91208 0.0
C619 C 1.07511 0.697 0.76321 0.0
O620 O 1.04038 0.75077 0.75685 0.0
O621 O 0.99929 0.7317 0.68455 0.0
O622 O 0.99006 0.67213 0.63325 0.0
O623 O 1.01981 0.66064 0.68956 0.0
O624 O 0.95799 0.68101 0.79192 0.0
O625 O 0.94744 0.63019 0.79127 0.0
O626 O 0.97502 0.59342 0.82718 0.0
O627 O 1.01974 0.62004 0.88463 0.0
O628 O 1.01059 0.69246 0.87704 0.0
O629 O 1.01121 0.69212 0.87632 0.0
O630 O 1.05698 0.6664 0.77883 0.0
O631 O 1.06193 0.7149 0.75458 0.0
H632 H 0.99656 0.738 0.85952 0.0
H633 H 0.9495 0.7369 0.90554 0.0
H634 H 0.95587 0.80005 0.72955 0.0
H635 H 1.00595 0.80367 0.68779 0.0
H636 H 1.05243 0.58758 0.86173 0.0
H637 H 1.05974 0.54093 0.86882 0.0
H638 H 0.95768 0.47816 0.87669 0.0
H639 H 0.95042 0.52555 0.87084 0.0
Nd640 Nd 0.46686 0.34552 0.73844 0.0
Nd641 Nd 0.51647 0.39088 0.79997 0.0
C642 C 0.40851 0.29804 0.71311 0.0
C643 C 0.39435 0.26907 0.75949 0.0
C644 C 0.40987 0.27067 0.82635 0.0
C645 C 0.41085 0.2441 0.85302 0.0
C646 C 0.39724 0.2161 0.81115 0.0
C647 C 0.37587 0.21235 0.75397 0.0
C648 C 0.37446 0.23905 0.72809 0.0
C649 C 0.50848 0.38296 0.61866 0.0
C650 C 0.51345 0.31981 0.79017 0.0
C651 C 0.57142 0.44083 0.85795 0.0
C652 C 0.59996 0.47618 0.85263 0.0
C653 C 0.59649 0.50329 0.86695 0.0
C654 C 0.62336 0.5351 0.87272 0.0
C655 C 0.65563 0.54229 0.86325 0.0
C656 C 0.65913 0.5154 0.84624 0.0
C657 C 0.63218 0.48338 0.84178 0.0
C658 C 0.44942 0.3589 0.89887 0.0
C659 C 0.46708 0.41249 0.75283 0.0
O660 O 0.41395 0.32432 0.74614 0.0
O661 O 0.43332 0.30202 0.67535 0.0
O662 O 0.49334 0.35194 0.62504 0.0
O663 O 0.50362 0.39324 0.6791 0.0
O664 O 0.48326 0.31123 0.78449 0.0
O665 O 0.53393 0.35146 0.78586 0.0
O666 O 0.57044 0.41828 0.8157 0.0
O667 O 0.54229 0.43442 0.87439 0.0
O668 O 0.47114 0.35351 0.86752 0.0
O669 O 0.47145 0.3545 0.86665 0.0
O670 O 0.4975 0.42522 0.76912 0.0
O671 O 0.44974 0.38149 0.74268 0.0
H672 H 0.42598 0.29339 0.85083 0.0
H673 H 0.42737 0.24744 0.89727 0.0
H674 H 0.3648 0.1906 0.72136 0.0
H675 H 0.36145 0.23711 0.67816 0.0
H676 H 0.5728 0.49986 0.87652 0.0
H677 H 0.61865 0.55432 0.88576 0.0
H678 H 0.68293 0.51888 0.83845 0.0
H679 H 0.6368 0.4639 0.83145 0.0
Nd680 Nd 0.80866 0.14445 0.72904 0.0
Nd681 Nd 0.76864 0.14962 0.79371 0.0
C682 C 0.85123 0.13615 0.65802 0.0
C683 C 0.87277 0.1606 0.60504 0.0
C684 C 0.90418 0.18157 0.62794 0.0
C685 C 0.9198 0.2131 0.60331 0.0
C686 C 0.90454 0.22378 0.55423 0.0
C687 C 0.87523 0.20193 0.52293 0.0
C688 C 0.85955 0.17019 0.54756 0.0
C689 C 0.77483 0.15715 0.6148 0.0
C690 C 0.84233 0.21632 0.79057 0.0
C691 C 0.71779 0.15288 0.85557 0.0
C692 C 0.68304 0.14799 0.84998 0.0
C693 C 0.65517 0.1182 0.86538 0.0
C694 C 0.62385 0.11471 0.87061 0.0
C695 C 0.6178 0.14057 0.85969 0.0
C696 C 0.64549 0.17025 0.84211 0.0
C697 C 0.67705 0.17387 0.8381 0.0
C698 C 0.81976 0.13337 0.89448 0.0
C699 C 0.74566 0.07935 0.73356 0.0
O700 O 0.8555 0.14635 0.72604 0.0
O701 O 0.82101 0.12047 0.64028 0.0
O702 O 0.8052 0.17405 0.62901 0.0
O703 O 0.76304 0.13894 0.67019 0.0
O704 O 0.84863 0.19387 0.7719 0.0
O705 O 0.81099 0.20619 0.79644 0.0
O706 O 0.74193 0.17633 0.82113 0.0
O707 O 0.72284 0.12873 0.86231 0.0
O708 O 0.79379 0.12437 0.85397 0.0
O709 O 0.79489 0.1264 0.8534 0.0
O710 O 0.73391 0.09881 0.7424 0.0
O711 O 0.77648 0.09155 0.73647 0.0
H712 H 0.91508 0.17475 0.6714 0.0
H713 H 0.94299 0.22978 0.62645 0.0
H714 H 0.86355 0.20982 0.48393 0.0
H715 H 0.8355 0.15438 0.52809 0.0
H716 H 0.65762 0.09739 0.87624 0.0
H717 H 0.60407 0.09124 0.88437 0.0
H718 H 0.643 0.19116 0.83323 0.0
H719 H 0.69711 0.19751 0.82708 0.0
Nd720 Nd 0.51706 0.15265 0.29699 0.0
Nd721 Nd 0.46681 0.13898 0.22824 0.0
C722 C 0.57471 0.15842 0.33463 0.0
C723 C 0.60749 0.1594 0.3449 0.0
C724 C 0.62134 0.15094 0.28586 0.0
C725 C 0.64985 0.14899 0.29378 0.0
C726 C 0.66655 0.15528 0.36132 0.0
C727 C 0.65365 0.16499 0.42002 0.0
C728 C 0.6252 0.16743 0.41179 0.0
C729 C 0.44936 0.13067 0.39943 0.0
C730 C 0.47848 0.07994 0.24594 0.0
C731 C 0.40772 0.11661 0.18253 0.0
C732 C 0.39454 0.13818 0.1765 0.0
C733 C 0.38685 0.14835 0.24239 0.0
C734 C 0.39688 0.18067 0.25202 0.0
C735 C 0.41277 0.20223 0.19425 0.0
C736 C 0.41348 0.19055 0.12383 0.0
C737 C 0.40403 0.15854 0.11472 0.0
C738 C 0.51272 0.15467 0.11403 0.0
C739 C 0.50319 0.21377 0.28406 0.0
O740 O 0.5616 0.15213 0.2694 0.0
O741 O 0.55676 0.1625 0.38381 0.0
O742 O 0.4659 0.123 0.35318 0.0
O743 O 0.4667 0.12454 0.35337 0.0
O744 O 0.5013 0.09885 0.29135 0.0
O745 O 0.46266 0.09084 0.20962 0.0
O746 O 0.41437 0.11192 0.24941 0.0
O747 O 0.43133 0.12324 0.13767 0.0
O748 O 0.49482 0.16766 0.12328 0.0
O749 O 0.50982 0.13913 0.17336 0.0
O750 O 0.4751 0.1896 0.26462 0.0
O751 O 0.52642 0.20671 0.29395 0.0
H752 H 0.60985 0.14532 0.23245 0.0
H753 H 0.65855 0.14178 0.24669 0.0
H754 H 0.66512 0.16993 0.47353 0.0
H755 H 0.61636 0.17438 0.45915 0.0
H756 H 0.37826 0.13275 0.29025 0.0
H757 H 0.39496 0.18903 0.30623 0.0
H758 H 0.42342 0.2065 0.07685 0.0
H759 H 0.40884 0.15107 0.0621 0.0
Nd760 Nd 1.01091 0.39989 0.29905 0.0
Nd761 Nd 1.01935 0.36241 0.22789 0.0
C762 C 1.00186 0.44714 0.36235 0.0
C763 C 1.00523 0.48138 0.35626 0.0
C764 C 1.03388 0.50931 0.33493 0.0
C765 C 1.0382 0.54102 0.3417 0.0
C766 C 1.01373 0.54721 0.36596 0.0
C767 C 0.98428 0.51913 0.38295 0.0
C768 C 0.98037 0.48738 0.37929 0.0
C769 C 1.02974 0.34838 0.39316 0.0
C770 C 1.08174 0.42953 0.24619 0.0
C771 C 1.0314 0.32303 0.15342 0.0
C772 C 1.00723 0.30011 0.10184 0.0
C773 C 0.98781 0.26856 0.12659 0.0
C774 C 0.95618 0.25116 0.10351 0.0
C775 C 0.94386 0.26465 0.05372 0.0
C776 C 0.96428 0.29411 0.0205 0.0
C777 C 0.99608 0.31167 0.04391 0.0
C778 C 1.00234 0.39436 0.12013 0.0
C779 C 0.94798 0.32595 0.28994 0.0
O780 O 0.98011 0.42271 0.3253 0.0
O781 O 1.02686 0.4437 0.37073 0.0
O782 O 1.03782 0.3747 0.3539 0.0
O783 O 1.03601 0.37374 0.35356 0.0
O784 O 1.06183 0.43967 0.26361 0.0
O785 O 1.07061 0.3991 0.23493 0.0
O786 O 1.02233 0.31799 0.22236 0.0
O787 O 1.04439 0.35324 0.13581 0.0
O788 O 0.98822 0.36363 0.12995 0.0
O789 O 1.0207 0.40728 0.17485 0.0
O790 O 0.97118 0.32109 0.26995 0.0
O791 O 0.95611 0.3565 0.299 0.0
H792 H 1.05395 0.50692 0.31658 0.0
H793 H 1.06153 0.56113 0.32978 0.0
H794 H 0.96443 0.52166 0.40247 0.0
H795 H 0.95769 0.46731 0.39657 0.0
H796 H 0.99581 0.25886 0.17042 0.0
H797 H 0.94064 0.22796 0.12844 0.0
H798 H 0.95513 0.30452 0.98107 0.0
H799 H 1.0106 0.3358 0.02312 0.0
Nd800 Nd 0.76216 0.64324 0.30433 0.0
Nd801 Nd 0.80005 0.69205 0.23458 0.0
C802 C 0.71436 0.58698 0.36436 0.0
C803 C 0.67946 0.55769 0.35727 0.0
C804 C 0.6517 0.56015 0.3702 0.0
C805 C 0.62023 0.53265 0.37441 0.0
C806 C 0.61397 0.50062 0.36482 0.0
C807 C 0.64154 0.49812 0.34938 0.0
C808 C 0.67324 0.52573 0.34639 0.0
C809 C 0.81007 0.71129 0.4057 0.0
C810 C 0.72862 0.67991 0.23964 0.0
C811 C 0.83931 0.74959 0.18322 0.0
C812 C 0.8738 0.76093 0.18211 0.0
C813 C 0.89018 0.76814 0.24998 0.0
C814 C 0.91301 0.75901 0.26243 0.0
C815 C 0.92066 0.74402 0.20607 0.0
C816 C 0.90884 0.74275 0.13454 0.0
C817 C 0.88574 0.75145 0.12243 0.0
C818 C 0.76925 0.64535 0.12197 0.0
C819 C 0.83736 0.65642 0.2959 0.0
O820 O 0.73744 0.58927 0.32224 0.0
O821 O 0.71964 0.61566 0.38114 0.0
O822 O 0.78591 0.69475 0.35963 0.0
O823 O 0.78659 0.69389 0.35989 0.0
O824 O 0.72108 0.65186 0.26748 0.0
O825 O 0.75833 0.69998 0.22263 0.0
O826 O 0.82658 0.74502 0.24863 0.0
O827 O 0.82235 0.72532 0.14014 0.0
O828 O 0.79998 0.66227 0.13265 0.0
O829 O 0.75642 0.64885 0.18005 0.0
O830 O 0.84181 0.68457 0.27598 0.0
O831 O 0.80689 0.63357 0.30468 0.0
H832 H 0.65434 0.58354 0.37992 0.0
H833 H 0.60049 0.53667 0.38639 0.0
H834 H 0.63885 0.47459 0.34171 0.0
H835 H 0.69325 0.52183 0.33721 0.0
H836 H 0.88218 0.77641 0.29662 0.0
H837 H 0.92243 0.76117 0.31767 0.0
H838 H 0.91607 0.73335 0.08868 0.0
H839 H 0.87447 0.74686 0.06863 0.0
Nd840 Nd 0.51839 0.1435 0.86204 0.0
Nd841 Nd 0.50821 0.09744 0.92281 0.0
C842 C 0.51929 0.19749 0.80758 0.0
C843 C 0.52412 0.23217 0.81138 0.0
C844 C 0.50708 0.24024 0.863 0.0
C845 C 0.50569 0.26921 0.85814 0.0
C846 C 0.52178 0.29266 0.80245 0.0
C847 C 0.53996 0.2854 0.75228 0.0
C848 C 0.54095 0.25596 0.75643 0.0
C849 C 0.49744 0.07446 0.76148 0.0
C850 C 0.44535 0.09609 0.90999 0.0
C851 C 0.50359 1.04589 0.9847 0.0
C852 C 0.52203 1.04658 0.04927 0.0
C853 C 0.54169 1.03313 0.04222 0.0
C854 C 0.56954 1.04522 0.08357 0.0
C855 C 0.57828 0.07134 0.13114 0.0
C856 C 0.55675 0.08214 0.14514 0.0
C857 C 0.52839 0.06942 0.10499 0.0
C858 C 0.51096 0.13829 0.0398 0.0
C859 C 0.58315 0.13563 0.86959 0.0
O860 O 0.49724 0.17529 0.84863 0.0
O861 O 0.54146 0.19012 0.79197 0.0
O862 O 0.49038 0.09452 0.79584 0.0
O863 O 0.49248 0.09511 0.79743 0.0
O864 O 0.46651 0.1271 0.91098 0.0
O865 O 0.45624 0.07657 0.90229 0.0
O866 O 0.52114 1.05929 0.92634 0.0
O867 O 0.48257 1.05489 0.99566 0.0
O868 O 0.48958 0.10888 0.02974 0.0
O869 O 0.53108 0.14698 0.9861 0.0
O870 O 0.56098 0.10938 0.9012 0.0
O871 O 0.57342 0.15595 0.8484 0.0
H872 H 0.49301 0.22315 0.90555 0.0
H873 H 0.49065 0.27267 0.89716 0.0
H874 H 0.55202 0.30163 0.70683 0.0
H875 H 0.55382 0.25118 0.71396 0.0
H876 H 0.5377 1.01625 0.99839 0.0
H877 H 0.58627 1.03702 0.07097 0.0
H878 H 0.56319 0.10238 0.18105 0.0
H879 H 0.51366 0.08039 0.11123 0.0
Nd880 Nd 1.01176 0.40344 0.86621 0.0
Nd881 Nd 1.05818 0.44537 0.93436 0.0
C882 C 0.95713 0.3534 0.80536 0.0
C883 C 0.92761 0.31817 0.81118 0.0
C884 C 0.93057 0.29022 0.80989 0.0
C885 C 0.9034 0.25835 0.80479 0.0
C886 C 0.87103 0.25172 0.80133 0.0
C887 C 0.86793 0.27959 0.80461 0.0
C888 C 0.89524 0.31161 0.80889 0.0
C889 C 1.08076 0.43822 0.77246 0.0
C890 C 1.06361 0.38383 0.90993 0.0
C891 C 0.10948 0.48578 1.00719 0.0
C892 C 0.10765 0.50495 0.06757 0.0
C893 C 0.1213 0.53786 0.05531 0.0
C894 C 0.10718 0.55421 0.08582 0.0
C895 C 1.0797 0.53799 0.13004 0.0
C896 C 1.06847 0.50617 0.15019 0.0
C897 C 1.08295 0.48987 0.1202 0.0
C898 C 1.01028 0.40981 0.04292 0.0
C899 C 1.01633 0.47603 0.88265 0.0
O900 O 0.95806 0.37692 0.84369 0.0
O901 O 0.98637 0.35903 0.79343 0.0
O902 O 1.05817 0.44245 0.8034 0.0
O903 O 1.05793 0.44133 0.80412 0.0
O904 O 1.03247 0.37052 0.90147 0.0
O905 O 1.08054 0.41489 0.91156 0.0
O906 O 0.10196 0.49271 0.94333 0.0
O907 O 1.09555 0.45496 0.0185 0.0
O908 O 1.02433 0.44054 0.0329 0.0
O909 O 1.01821 0.39834 0.98921 0.0
O910 O 1.04562 0.48357 0.89907 0.0
O911 O 0.9955 0.44436 0.87619 0.0
H912 H 0.95426 0.29292 0.81036 0.0
H913 H 0.90804 0.23855 0.80238 0.0
H914 H 0.84425 0.27683 0.80181 0.0
H915 H 0.89086 0.3316 0.80852 0.0
H916 H 0.14016 0.54996 0.01476 0.0
H917 H 0.11596 0.57888 0.06932 0.0
H918 H 1.04705 0.49326 0.18336 0.0
H919 H 1.07192 0.46443 0.13027 0.0
Nd920 Nd 0.75521 0.64324 0.86944 0.0
Nd921 Nd 0.71773 0.65159 0.93244 0.0
C922 C 0.80881 0.64433 0.81396 0.0
C923 C 0.83843 0.63942 0.81752 0.0
C924 C 0.86325 0.65619 0.86966 0.0
C925 C 0.89359 0.65781 0.86454 0.0
C926 C 0.9011 0.64223 0.80809 0.0
C927 C 0.87595 0.62423 0.75751 0.0
C928 C 0.84553 0.62302 0.76188 0.0
C929 C 0.70726 0.66244 0.76675 0.0
C930 C 0.77874 0.71578 0.92103 0.0
C931 C 0.66823 0.65021 0.9951 0.0
C932 C 0.64947 0.62549 0.0499 0.0
C933 C 0.61769 0.60349 0.03272 0.0
C934 C 0.60341 0.57286 0.06256 0.0
C935 C 0.62061 0.56395 0.11049 0.0
C936 C 0.65118 0.5867 0.13386 0.0
C937 C 0.66555 0.61754 0.10395 0.0
C938 C 0.7559 0.6483 0.04735 0.0
C939 C 0.68424 0.57721 0.87449 0.0
O940 O 0.80808 0.66525 0.85806 0.0
O941 O 0.77963 0.6224 0.79559 0.0
O942 O 0.73277 0.67087 0.80816 0.0
O943 O 0.73191 0.66927 0.80862 0.0
O944 O 0.78942 0.69521 0.91841 0.0
O945 O 0.7481 0.70435 0.91696 0.0
O946 O 0.66677 0.63884 0.92895 0.0
O947 O 0.69737 0.67097 0.01421 0.0
O948 O 0.74759 0.66966 0.03888 0.0
O949 O 0.74511 0.62878 0.99252 0.0
O950 O 0.6791 0.59832 0.90805 0.0
O951 O 0.71431 0.58806 0.85278 0.0
H952 H 0.86002 0.66989 0.91274 0.0
H953 H 0.91193 0.67264 0.90394 0.0
H954 H 0.88035 0.61254 0.71166 0.0
H955 H 0.82803 0.61041 0.71912 0.0
H956 H 0.60501 0.60891 0.99088 0.0
H957 H 0.57949 0.55542 0.04462 0.0
H958 H 0.66453 0.58016 0.17129 0.0
H959 H 0.69028 0.63399 0.11779 0.0
Nd960 Nd 0.72681 0.97919 0.7632 0.0
Nd961 Nd 0.67869 0.972 0.6938 0.0
C962 C 0.77996 0.993 0.83256 0.0
C963 C 0.7796 0.97337 0.89496 0.0
C964 C 0.79228 0.95325 0.88209 0.0
C965 C 0.77699 0.9225 0.91138 0.0
C966 C 0.74969 0.91206 0.95585 0.0
C967 C 0.7402 0.93375 0.97861 0.0
C968 C 0.75578 0.96477 0.94964 0.0
C969 C 0.68292 0.97435 0.8745 0.0
C970 C 0.68395 0.90522 0.71713 0.0
C971 C 0.62246 0.96199 0.6304 0.0
C972 C 0.59181 0.96559 0.63266 0.0
C973 C 0.59054 0.99142 0.66676 0.0
C974 C 0.56263 0.99497 0.66301 0.0
C975 C 0.53381 0.9727 0.62632 0.0
C976 C 0.53464 0.94616 0.59475 0.0
C977 C 0.56276 0.94285 0.59758 0.0
C978 C 0.74734 1.0054 0.59998 0.0
C979 C 0.72789 1.04429 0.72659 0.0
O980 O 0.77174 0.97742 0.77027 0.0
O981 O 0.76546 1.0094 0.84274 0.0
O982 O 0.69536 0.95591 0.86888 0.0
O983 O 0.68859 0.98942 0.81382 0.0
O984 O 0.71305 0.92704 0.73526 0.0
O985 O 0.66304 0.91571 0.70856 0.0
O986 O 0.62506 0.94213 0.67557 0.0
O987 O 0.65097 0.98632 0.61539 0.0
O988 O 0.72515 0.97888 0.63259 0.0
O989 O 0.72492 0.97988 0.63326 0.0
O990 O 0.69682 1.02581 0.71979 0.0
O991 O 0.74564 1.03092 0.7318 0.0
H992 H 0.81077 0.9594 0.84087 0.0
H993 H 0.78472 0.90589 0.89383 0.0
H994 H 0.71929 0.92604 0.01324 0.0
H995 H 0.74598 0.98017 0.96179 0.0
H996 H 0.61162 1.00971 0.69462 0.0
H997 H 0.564 1.01603 0.68806 0.0
H998 H 0.51387 0.92836 0.56507 0.0
H999 H 0.56189 0.92239 0.5705 0.0
Nd1000 Nd 0.1755 0.7738 0.76072 0.0
Nd1001 Nd 0.18099 0.73498 0.70423 0.0
C1002 C 0.16565 0.816 0.83026 0.0
C1003 C 0.18714 0.83639 0.88896 0.0
C1004 C 0.20678 0.86897 0.87292 0.0
C1005 C 0.23746 0.88546 0.90213 0.0
C1006 C 0.24855 0.86971 0.94859 0.0
C1007 C 0.22748 0.83871 0.97349 0.0
C1008 C 0.19643 0.82232 0.94507 0.0
C1009 C 0.18453 0.73962 0.88124 0.0
C1010 C 0.24786 0.80769 0.7093 0.0
C1011 C 0.18665 0.68418 0.64826 0.0
C1012 C 0.18579 0.65093 0.65477 0.0
C1013 C 0.16149 0.62365 0.69253 0.0
C1014 C 0.15845 0.59231 0.68773 0.0
C1015 C 0.17986 0.58588 0.64635 0.0
C1016 C 0.20495 0.6134 0.61118 0.0
C1017 C 0.20763 0.64464 0.6148 0.0
C1018 C 0.1627 0.78837 0.61301 0.0
C1019 C 0.1099 0.71376 0.75162 0.0
O1020 O 0.17952 0.82161 0.76587 0.0
O1021 O 0.14887 0.78542 0.84434 0.0
O1022 O 0.20272 0.76981 0.86607 0.0
O1023 O 0.16699 0.72819 0.82518 0.0
O1024 O 0.22497 0.81414 0.71993 0.0
O1025 O 0.23774 0.77629 0.70969 0.0
O1026 O 0.21039 0.71098 0.67309 0.0
O1027 O 0.16055 0.68603 0.64982 0.0
O1028 O 0.15863 0.75913 0.62738 0.0
O1029 O 0.16102 0.7617 0.6337 0.0
O1030 O 0.12922 0.70167 0.75316 0.0
O1031 O 0.1229 0.74434 0.74116 0.0
H1032 H 0.20008 0.88044 0.83053 0.0
H1033 H 0.25355 0.90967 0.88306 0.0
H1034 H 0.2357 0.82638 0.00969 0.0
H1035 H 0.18136 0.79738 0.95993 0.0
H1036 H 0.14363 0.62613 0.72353 0.0
H1037 H 0.13842 0.57258 0.71556 0.0
H1038 H 0.22197 0.61058 0.57757 0.0
H1039 H 0.2266 0.664 0.58362 0.0
Nd1040 Nd 0.38635 0.43116 0.76458 0.0
Nd1041 Nd 0.42378 0.47567 0.6949 0.0
C1042 C 0.34612 0.37943 0.83759 0.0
C1043 C 0.3242 0.38014 0.89305 0.0
C1044 C 0.29247 0.36891 0.87119 0.0
C1045 C 0.27599 0.38368 0.89758 0.0
C1046 C 0.29082 0.40939 0.94703 0.0
C1047 C 0.32041 0.41726 0.9778 0.0
C1048 C 0.33687 0.40221 0.95181 0.0
C1049 C 0.42132 0.47879 0.87517 0.0
C1050 C 0.35073 0.46795 0.70606 0.0
C1051 C 0.47123 0.52961 0.62535 0.0
C1052 C 0.5038 0.56172 0.63154 0.0
C1053 C 0.53082 0.56427 0.66869 0.0
C1054 C 0.56154 0.59281 0.666 0.0
C1055 C 0.56742 0.62095 0.62691 0.0
C1056 C 0.54011 0.61892 0.59207 0.0
C1057 C 0.50932 0.59012 0.59406 0.0
C1058 C 0.37189 0.40752 0.5979 0.0
C1059 C 0.44912 0.42957 0.74873 0.0
O1060 O 0.3405 0.38547 0.77072 0.0
O1061 O 0.37654 0.39537 0.85346 0.0
O1062 O 0.39044 0.46249 0.86857 0.0
O1063 O 0.43301 0.47359 0.81772 0.0
O1064 O 0.34516 0.43948 0.72512 0.0
O1065 O 0.38166 0.48954 0.69851 0.0
O1066 O 0.44486 0.52696 0.65209 0.0
O1067 O 0.47022 0.5021 0.63069 0.0
O1068 O 0.39804 0.4249 0.63731 0.0
O1069 O 0.39714 0.42582 0.63788 0.0
O1070 O 0.46037 0.46067 0.73981 0.0
O1071 O 0.41842 0.4108 0.75067 0.0
H1072 H 0.282 0.35177 0.82661 0.0
H1073 H 0.25274 0.37694 0.87438 0.0
H1074 H 0.33185 0.43658 0.01706 0.0
H1075 H 0.36113 0.41099 0.97085 0.0
H1076 H 0.52862 0.54365 0.69807 0.0
H1077 H 0.58127 0.59248 0.6937 0.0
H1078 H 0.54276 0.63915 0.56021 0.0
H1079 H 0.48978 0.58982 0.5639 0.0
Nd1080 Nd 0.68236 1.02977 0.06467 0.0
Nd1081 Nd 0.67896 0.98194 0.12708 0.0
C1082 C 0.68403 0.08455 0.04041 0.0
C1083 C 0.66835 0.09687 0.08903 0.0
C1084 C 0.65553 0.08049 0.15577 0.0
C1085 C 0.62761 0.07804 0.18417 0.0
C1086 C 0.6125 0.09177 0.14501 0.0
C1087 C 0.62968 0.11471 0.08999 0.0
C1088 C 0.65755 0.11686 0.06099 0.0
C1089 C 0.68482 0.99161 0.94736 0.0
C1090 C 0.60916 0.98147 0.11485 0.0
C1091 C 0.67823 0.92888 0.1885 0.0
C1092 C 0.67952 0.89683 0.18209 0.0
C1093 C 0.70816 0.89634 0.16609 0.0
C1094 C 0.71078 0.86797 0.17321 0.0
C1095 C 0.68473 0.83758 0.19358 0.0
C1096 C 0.65554 0.83754 0.20578 0.0
C1097 C 0.65317 0.86627 0.20141 0.0
C1098 C 0.7149 1.05244 0.21766 0.0
C1099 C 0.74946 1.03376 0.07491 0.0
O1100 O 0.70778 0.08294 0.07025 0.0
O1101 O 0.66414 1.05806 1.00623 0.0
O1102 O 0.7011 1.0225 0.95258 0.0
O1103 O 0.66668 0.98032 1.00407 0.0
O1104 O 0.62871 1.0102 0.08973 0.0
O1105 O 0.62202 0.96313 0.13135 0.0
O1106 O 0.70375 0.95677 0.17726 0.0
O1107 O 0.65265 0.93053 0.17205 0.0
O1108 O 0.68741 1.0276 0.19522 0.0
O1109 O 0.68861 1.0275 0.19348 0.0
O1110 O 0.73121 1.00254 0.08166 0.0
O1111 O 0.73581 1.05121 0.07553 0.0
H1112 H 0.66368 0.06521 0.17903 0.0
H1113 H 0.61491 1.06059 0.22726 0.0
H1114 H 0.61853 0.12606 0.05996 0.0
H1115 H 0.66798 0.13071 0.01145 0.0
H1116 H 0.72936 0.91848 0.15086 0.0
H1117 H 0.73393 0.87011 0.1644 0.0
H1118 H 0.63452 0.81537 0.22193 0.0
H1119 H 0.63051 0.86455 0.21518 0.0
Nd1120 Nd 0.13257 0.68605 0.07586 0.0
Nd1121 Nd 0.18221 0.72787 0.13764 0.0
C1122 C 1.07584 0.63681 0.04538 0.0
C1123 C 1.06044 0.60775 0.09047 0.0
C1124 C 1.07502 0.60863 0.15808 0.0
C1125 C 1.07517 0.58158 0.18356 0.0
C1126 C 1.06078 0.55366 0.14146 0.0
C1127 C 1.03985 0.55076 0.08409 0.0
C1128 C 1.03998 0.57817 0.05795 0.0
C1129 C 0.17007 0.72732 0.95842 0.0
C1130 C 0.17903 0.65764 0.12435 0.0
C1131 C 0.23568 0.77849 0.19967 0.0
C1132 C 0.26681 0.81199 0.19064 0.0
C1133 C 0.26644 0.83983 0.16584 0.0
C1134 C 0.29394 0.87138 0.17037 0.0
C1135 C 0.32412 0.87726 0.19703 0.0
C1136 C 0.32506 0.84927 0.21795 0.0
C1137 C 0.29721 0.81777 0.21589 0.0
C1138 C 0.11446 0.69718 0.23969 0.0
C1139 C 0.13611 0.7528 0.09605 0.0
O1140 O 1.07955 0.66252 0.07814 0.0
O1141 O 0.10211 0.64147 0.013 0.0
O1142 O 0.13961 0.71461 0.96816 0.0
O1143 O 0.18142 0.71841 0.01185 0.0
O1144 O 0.14965 0.64982 0.1063 0.0
O1145 O 0.19958 0.68886 0.13392 0.0
O1146 O 0.20751 0.77603 0.19398 0.0
O1147 O 0.23412 0.75178 0.17807 0.0
O1148 O 0.13555 0.69157 0.20521 0.0
O1149 O 0.13589 0.69266 0.20451 0.0
O1150 O 0.16684 0.76349 0.09264 0.0
O1151 O 0.11714 0.72199 0.10198 0.0
H1152 H 1.0912 0.63115 0.1838 0.0
H1153 H 1.09192 0.5845 0.22647 0.0
H1154 H 1.0283 0.52913 0.05109 0.0
H1155 H 1.02776 0.57703 1.00727 0.0
H1156 H 0.24424 0.83754 0.1459 0.0
H1157 H 0.29124 0.89155 0.1545 0.0
H1158 H 0.34719 0.85178 0.23916 0.0
H1159 H 0.29939 0.79779 0.23628 0.0
Nd1160 Nd 0.47613 0.48266 0.06753 0.0
Nd1161 Nd 0.43346 0.48852 0.13242 0.0
C1162 C 0.52038 0.46733 0.03703 0.0
C1163 C 0.54937 0.47832 0.08171 0.0
C1164 C 0.55069 0.49329 0.14913 0.0
C1165 C 0.57953 0.51817 0.17491 0.0
C1166 C 0.6063 0.52995 0.12904 0.0
C1167 C 0.6068 0.51015 0.07258 0.0
C1168 C 0.57795 0.48411 0.04863 0.0
C1169 C 0.43933 0.48858 0.95001 0.0
C1170 C 0.50518 0.55508 0.11743 0.0
C1171 C 0.38699 0.49839 0.19522 0.0
C1172 C 0.35269 0.49442 0.19567 0.0
C1173 C 0.33191 0.48501 0.1337 0.0
C1174 C 0.30024 0.48098 0.13754 0.0
C1175 C 0.28753 0.48648 0.20327 0.0
C1176 C 0.30877 0.49696 0.26427 0.0
C1177 C 0.34036 0.50113 0.26033 0.0
C1178 C 0.46577 0.45298 0.22956 0.0
C1179 C 0.41015 0.41676 0.08775 0.0
O1180 O 0.49366 0.44774 0.07019 0.0
O1181 O 0.51879 0.49055 1.00354 0.0
O1182 O 0.47032 0.50292 0.95434 0.0
O1183 O 0.42806 0.47341 0.01037 0.0
O1184 O 0.51283 0.53276 0.11115 0.0
O1185 O 0.47371 0.54476 0.1148 0.0
O1186 O 0.40839 0.51737 0.14724 0.0
O1187 O 0.39196 0.47474 0.2125 0.0
O1188 O 0.47114 0.48017 0.1982 0.0
O1189 O 0.47009 0.47946 0.19727 0.0
O1190 O 0.39794 0.43452 0.10881 0.0
O1191 O 0.44053 0.43033 0.07212 0.0
H1192 H 0.52922 0.49021 0.17447 0.0
H1193 H 0.57888 0.53277 0.21969 0.0
H1194 H 0.62779 0.51837 0.03792 0.0
H1195 H 0.57747 0.47176 0.99866 0.0
H1196 H 0.34014 0.48076 0.08177 0.0
H1197 H 0.28547 0.47323 0.0886 0.0
H1198 H 0.30067 0.50137 0.31641 0.0
H1199 H 0.35503 0.50887 0.30955 0.0
Nd1200 Nd 0.18104 0.48426 0.63593 0.0
Nd1201 Nd 0.13712 0.4786 0.57549 0.0
C1202 C 0.23543 0.48778 0.6956 0.0
C1203 C 0.26523 0.48311 0.68683 0.0
C1204 C 0.26261 0.45239 0.68624 0.0
C1205 C 0.28993 0.44809 0.69105 0.0
C1206 C 0.32192 0.47412 0.69586 0.0
C1207 C 0.32473 0.50493 0.69407 0.0
C1208 C 0.29725 0.50925 0.69033 0.0
C1209 C 0.1116 0.4661 0.73358 0.0
C1210 C 0.13427 0.41398 0.57935 0.0
C1211 C 1.08302 0.46328 0.50896 0.0
C1212 C 1.07972 0.48455 0.45699 0.0
C1213 C 1.06346 0.49976 0.48358 0.0
C1214 C 1.07676 0.53237 0.47255 0.0
C1215 C 0.10499 0.54919 0.43092 0.0
C1216 C 0.11664 0.53257 0.39026 0.0
C1217 C 0.10354 0.49983 0.40246 0.0
C1218 C 0.18307 0.49308 0.45881 0.0
C1219 C 0.17327 0.55057 0.63395 0.0
O1220 O 0.23429 0.51172 0.6647 0.0
O1221 O 0.20661 0.4632 0.70045 0.0
O1222 O 0.13228 0.45867 0.70336 0.0
O1223 O 0.13293 0.46128 0.70062 0.0
O1224 O 0.16548 0.43362 0.58271 0.0
O1225 O 0.11615 0.42632 0.58811 0.0
O1226 O 1.08981 0.47507 0.57556 0.0
O1227 O 0.10117 0.4518 0.48808 0.0
O1228 O 0.16746 0.50813 0.47162 0.0
O1229 O 0.17759 0.47429 0.51279 0.0
O1230 O 0.14448 0.52772 0.61739 0.0
O1231 O 0.19484 0.54078 0.63693 0.0
H1232 H 0.23907 0.43124 0.68506 0.0
H1233 H 0.28573 0.4238 0.69221 0.0
H1234 H 0.34827 0.52595 0.69791 0.0
H1235 H 0.30115 0.53342 0.6924 0.0
H1236 H 1.04426 0.48799 0.52349 0.0
H1237 H 1.06654 0.54491 0.5014 0.0
H1238 H 0.13782 0.54525 0.35617 0.0
H1239 H 0.11553 0.48802 0.37859 0.0
Nd1240 Nd 0.66872 0.72154 0.62869 0.0
Nd1241 Nd 0.67494 0.67773 0.56328 0.0
C1242 C 0.66177 0.76943 0.6929 0.0
C1243 C 0.66721 0.80429 0.69097 0.0
C1244 C 0.69803 0.83193 0.69064 0.0
C1245 C 0.7027 0.86359 0.69855 0.0
C1246 C 0.67696 0.87003 0.70599 0.0
C1247 C 0.64603 0.84248 0.70394 0.0
C1248 C 0.64136 0.81061 0.69727 0.0
C1249 C 0.70283 0.68943 0.72846 0.0
C1250 C 0.74088 0.74408 0.57648 0.0
C1251 C 0.68922 0.63254 0.53569 0.0
C1252 C 0.67741 0.60375 0.58198 0.0
C1253 C 0.66227 0.60327 0.6486 0.0
C1254 C 0.63687 0.57484 0.67506 0.0
C1255 C 0.62482 0.54765 0.63056 0.0
C1256 C 0.64467 0.54625 0.57547 0.0
C1257 C 0.67125 0.57465 0.55108 0.0
C1258 C 0.66624 0.71422 0.44849 0.0
C1259 C 0.60248 0.64913 0.61621 0.0
O1260 O 0.64054 0.74712 0.64985 0.0
O1261 O 0.68547 0.76403 0.70582 0.0
O1262 O 0.67652 0.68361 0.69322 0.0
O1263 O 0.67706 0.68453 0.69256 0.0
O1264 O 0.72255 0.7559 0.59694 0.0
O1265 O 0.72787 0.71336 0.5648 0.0
O1266 O 0.70914 0.65938 0.56796 0.0
O1267 O 0.66656 0.63456 0.50071 0.0
O1268 O 0.65307 0.68322 0.45172 0.0
O1269 O 0.6826 0.72539 0.50704 0.0
O1270 O 0.62485 0.64156 0.60855 0.0
O1271 O 0.61248 0.68066 0.61348 0.0
H1272 H 0.71893 0.82913 0.68686 0.0
H1273 H 0.72709 0.88335 0.69943 0.0
H1274 H 0.62524 0.84537 0.70934 0.0
H1275 H 0.61711 0.79059 0.69862 0.0
H1276 H 0.66582 0.62514 0.67268 0.0
H1277 H 0.62234 0.57614 0.71913 0.0
H1278 H 0.63629 0.52491 0.54197 0.0
H1279 H 0.68389 0.57438 0.50236 0.0
Nd1280 Nd 0.43371 0.97583 0.62801 0.0
Nd1281 Nd 0.47606 1.02232 0.5589 0.0
C1282 C 0.38489 0.9212 0.69166 0.0
C1283 C 0.34967 0.89201 0.68831 0.0
C1284 C 0.32205 0.89542 0.6885 0.0
C1285 C 0.29016 0.8685 0.69443 0.0
C1286 C 0.28331 0.83607 0.69985 0.0
C1287 C 0.31087 0.83254 0.69805 0.0
C1288 C 0.3429 0.85959 0.69282 0.0
C1289 C 0.46951 1.04423 0.72137 0.0
C1290 C 0.41275 1.02666 0.57639 0.0
C1291 C 0.51968 0.07883 0.50979 0.0
C1292 C 0.55289 0.09566 0.53466 0.0
C1293 C 0.55929 0.09242 0.60918 0.0
C1294 C 0.58509 0.08816 0.62701 0.0
C1295 C 0.60484 0.08835 0.57047 0.0
C1296 C 0.60203 0.09795 0.49908 0.0
C1297 C 0.57598 0.10147 0.48115 0.0
C1298 C 0.43739 0.9766 0.44918 0.0
C1299 C 0.5059 0.98027 0.61499 0.0
O1300 O 0.40737 0.92205 0.64936 0.0
O1301 O 0.39088 0.95047 0.70524 0.0
O1302 O 0.4734 1.02159 0.69004 0.0
O1303 O 0.4724 1.02131 0.68926 0.0
O1304 O 0.40015 0.99667 0.59842 0.0
O1305 O 0.4433 1.04297 0.56335 0.0
O1306 O 0.49818 0.07543 0.55813 0.0
O1307 O 0.51208 1.05213 0.47561 0.0
O1308 O 0.46833 0.99092 0.4537 0.0
O1309 O 0.42736 0.98393 0.50659 0.0
O1310 O 0.51369 1.0101 0.60365 0.0
O1311 O 0.47418 0.95927 0.61459 0.0
H1312 H 0.32503 0.91924 0.68637 0.0
H1313 H 0.27053 0.87339 0.69572 0.0
H1314 H 0.30783 0.80874 0.70213 0.0
H1315 H 0.36273 0.855 0.69389 0.0
H1316 H 0.54179 0.08793 0.65165 0.0
H1317 H 0.58707 0.08079 0.68238 0.0
H1318 H 0.61711 0.09784 0.45481 0.0
H1319 H 0.571 0.10293 0.42343 0.0
Nd1320 Nd 0.18653 0.48618 0.19766 0.0
Nd1321 Nd 0.17867 0.44114 0.26761 0.0
C1322 C 0.19546 0.54109 0.129 0.0
C1323 C 0.19375 0.57245 0.13574 0.0
C1324 C 0.17167 0.57555 0.18171 0.0
C1325 C 0.16823 0.60346 0.17986 0.0
C1326 C 0.18713 0.63031 0.13384 0.0
C1327 C 0.2102 0.6278 0.09028 0.0
C1328 C 0.21326 0.59963 0.09096 0.0
C1329 C 0.16686 0.41698 0.10005 0.0
C1330 C 0.11643 0.44693 0.2529 0.0
C1331 C 0.16073 0.38558 0.33157 0.0
C1332 C 0.1807 0.38 0.38339 0.0
C1333 C 0.19443 0.36235 0.35656 0.0
C1334 C 0.22646 0.3731 0.37064 0.0
C1335 C 0.2442 0.40064 0.41376 0.0
C1336 C 0.22858 0.41344 0.45422 0.0
C1337 C 0.19641 0.40265 0.43986 0.0
C1338 C 0.19254 0.48694 0.38122 0.0
C1339 C 0.25201 0.47858 0.21085 0.0
O1340 O 0.21781 0.5383 0.16307 0.0
O1341 O 0.16933 0.51328 0.12667 0.0
O1342 O 0.15925 0.43465 0.14238 0.0
O1343 O 0.16104 0.43558 0.14256 0.0
O1344 O 0.13635 0.47683 0.23484 0.0
O1345 O 0.1276 0.42766 0.26352 0.0
O1346 O 0.17268 0.39258 0.265 0.0
O1347 O 0.15079 0.40484 0.35381 0.0
O1348 O 0.20602 0.46961 0.37263 0.0
O1349 O 0.17646 0.48411 0.32304 0.0
O1350 O 0.23029 0.4512 0.23895 0.0
O1351 O 0.24166 0.49869 0.19327 0.0
H1352 H 0.15584 0.55569 0.21687 0.0
H1353 H 0.14974 0.6036 0.21314 0.0
H1354 H 0.22504 0.64711 0.05277 0.0
H1355 H 0.23056 0.59879 0.05425 0.0
H1356 H 0.18238 0.34412 0.31476 0.0
H1357 H 0.23822 0.36222 0.34119 0.0
H1358 H 0.24195 0.43424 0.48905 0.0
H1359 H 0.18583 0.41586 0.46347 0.0
Nd1360 Nd 0.67643 0.73258 0.19075 0.0
Nd1361 Nd 0.72181 0.76678 0.26734 0.0
C1362 C 0.62118 0.68868 0.12059 0.0
C1363 C 0.59052 0.65504 0.12638 0.0
C1364 C 0.58988 0.62848 0.16164 0.0
C1365 C 0.56209 0.5972 0.16065 0.0
C1366 C 0.53295 0.59041 0.12542 0.0
C1367 C 0.53314 0.61725 0.0926 0.0
C1368 C 0.56116 0.64857 0.0928 0.0
C1369 C 0.7472 0.78286 0.10172 0.0
C1370 C 0.71042 0.69594 0.25208 0.0
C1371 C 0.77923 0.80279 0.32317 0.0
C1372 C 0.79315 0.83763 0.32712 0.0
C1373 C 0.80129 0.85522 0.26066 0.0
C1374 C 0.79415 0.8797 0.25179 0.0
C1375 C 0.78008 0.88728 0.31025 0.0
C1376 C 0.77825 0.87416 0.3804 0.0
C1377 C 0.78511 0.84968 0.38904 0.0
C1378 C 0.67433 0.73305 0.37503 0.0
C1379 C 0.68911 0.80753 0.20543 0.0
O1380 O 0.62397 0.71226 0.16146 0.0
O1381 O 0.64928 0.6913 0.1114 0.0
O1382 O 0.72884 0.75666 0.14091 0.0
O1383 O 0.72795 0.75755 0.14101 0.0
O1384 O 0.68476 0.69005 0.21482 0.0
O1385 O 0.72804 0.72412 0.28105 0.0
O1386 O 0.77489 0.79092 0.25698 0.0
O1387 O 0.75383 0.7868 0.36382 0.0
O1388 O 0.69274 0.764 0.37251 0.0
O1389 O 0.67699 0.72123 0.31428 0.0
O1390 O 0.71585 0.81083 0.23295 0.0
O1391 O 0.66709 0.77753 0.18924 0.0
H1392 H 0.61131 0.63159 0.18854 0.0
H1393 H 0.56373 0.57783 0.18689 0.0
H1394 H 0.51196 0.61389 0.06401 0.0
H1395 H 0.56 0.66786 0.06479 0.0
H1396 H 0.80851 0.84709 0.21241 0.0
H1397 H 0.79671 0.89036 0.1977 0.0
H1398 H 0.76935 0.88125 0.4275 0.0
H1399 H 0.77962 0.83727 0.44163 0.0
Nd1400 Nd 0.42668 0.97423 0.19309 0.0
Nd1401 Nd 0.38981 0.9866 0.26574 0.0
C1402 C 0.47866 0.96916 0.15322 0.0
C1403 C 0.51097 0.96933 0.14258 0.0
C1404 C 0.53444 0.98097 0.19946 0.0
C1405 C 0.56478 0.98267 0.19205 0.0
C1406 C 0.57375 0.97247 0.12765 0.0
C1407 C 0.55032 0.96053 0.07063 0.0
C1408 C 0.51963 0.95857 0.07822 0.0
C1409 C 0.37993 0.99749 0.09809 0.0
C1410 C 0.46128 1.04553 0.25369 0.0
C1411 C 0.35144 1.00708 0.31257 0.0
C1412 C 0.31654 0.98598 0.31191 0.0
C1413 C 0.30079 0.97634 0.24329 0.0
C1414 C 0.27649 0.94475 0.23353 0.0
C1415 C 0.26711 0.9234 0.2931 0.0
C1416 C 0.27802 0.93506 0.3643 0.0
C1417 C 0.30268 0.96621 0.37371 0.0
C1418 C 0.41974 0.9688 0.37482 0.0
C1419 C 0.35312 0.9121 0.20643 0.0
O1420 O 0.47163 0.97462 0.21905 0.0
O1421 O 0.45687 0.96577 0.10408 0.0
O1422 O 0.40488 1.00478 0.14168 0.0
O1423 O 0.404 1.00307 0.14148 0.0
O1424 O 0.46505 1.02725 0.20597 0.0
O1425 O 0.4341 1.03444 0.2886 0.0
O1426 O 0.36515 1.01483 0.2481 0.0
O1427 O 0.36652 0.99789 0.3571 0.0
O1428 O 0.38905 0.95762 0.37 0.0
O1429 O 0.43287 0.9853 0.31725 0.0
O1430 O 0.34848 0.93583 0.22666 0.0
O1431 O 0.38348 0.91989 0.19584 0.0
H1432 H 0.52977 0.9898 0.25018 0.0
H1433 H 0.58191 0.99325 0.23654 0.0
H1434 H 0.55608 0.9535 0.01867 0.0
H1435 H 0.50304 0.94948 0.03244 0.0
H1436 H 0.31034 0.9914 0.19479 0.0
H1437 H 0.2676 0.93636 0.17844 0.0
H1438 H 0.26961 0.91927 0.41187 0.0
H1439 H 0.31376 0.97304 0.42764 0.0
loop_
_geom_bond_atom_site_label_1
_geom_bond_atom_site_label_2
_geom_bond_distance
_geom_bond_site_symmetry_2
_ccdc_geom_bond_type
Nd0 C2 2.836 . S
Nd0 O20 2.500 . S
Nd0 O21 2.492 . S
Nd0 O22 2.487 . S
Nd0 O23 2.682 . S
Nd0 O24 2.410 . S
Nd0 O29 2.414 1_554 S
Nd0 O31 2.424 . S
Nd1 C11 2.836 . S
Nd1 O23 2.414 1_556 S
Nd1 O25 2.424 . S
Nd1 O26 2.500 1_556 S
Nd1 O27 2.492 . S
Nd1 O28 2.487 . S
Nd1 O29 2.682 . S
Nd1 O30 2.410 1_556 S
C2 Nd0 2.836 . S
C2 C3 1.498 . S
C2 O20 1.258 . S
C2 O21 1.239 . S
C3 C2 1.498 . S
C3 C4 1.366 . S
C3 C8 1.407 . S
C4 C3 1.366 . S
C4 C5 1.392 . S
C4 H32 0.930 . S
C5 C4 1.392 . S
C5 C6 1.398 . S
C5 H33 0.929 . S
C6 C5 1.398 . S
C6 C7 1.352 . S
C7 C6 1.352 . S
C7 C8 1.384 . S
C7 H34 0.930 . S
C8 C3 1.407 . S
C8 C7 1.384 . S
C8 H35 0.929 . S
C9 O22 1.241 . S
C9 O23 1.273 . S
C10 O24 1.251 . S
C10 O25 1.266 1_554 S
C11 Nd1 2.836 . S
C11 C12 1.498 . S
C11 O26 1.258 1_556 S
C11 O27 1.239 . S
C12 C11 1.498 . S
C12 C13 1.366 1_556 S
C12 C17 1.407 . S
C13 C12 1.366 1_554 S
C13 C14 1.392 . S
C13 H36 0.930 . S
C14 C13 1.392 . S
C14 C15 1.398 1_554 S
C14 H37 0.929 . S
C15 C14 1.398 1_556 S
C15 C16 1.352 . S
C16 C15 1.352 . S
C16 C17 1.384 . S
C16 H38 0.930 . S
C17 C12 1.407 . S
C17 C16 1.384 . S
C17 H39 0.929 . S
C18 O28 1.241 . S
C18 O29 1.273 . S
C19 O30 1.251 . S
C19 O31 1.268 . S
O20 Nd0 2.500 . S
O20 C2 1.258 . S
O21 Nd0 2.492 . S
O21 C2 1.239 . S
O22 Nd0 2.487 . S
O22 C9 1.241 . S
O23 Nd0 2.682 . S
O23 Nd1 2.414 1_554 S
O23 C9 1.273 . S
O24 Nd0 2.410 . S
O24 C10 1.251 . S
O25 Nd1 2.424 . S
O25 C10 1.266 1_556 S
O26 Nd1 2.500 1_554 S
O26 C11 1.258 1_554 S
O27 Nd1 2.492 . S
O27 C11 1.239 . S
O28 Nd1 2.487 . S
O28 C18 1.241 . S
O29 Nd0 2.414 1_556 S
O29 Nd1 2.682 . S
O29 C18 1.273 . S
O30 Nd1 2.410 1_554 S
O30 C19 1.251 . S
O31 Nd0 2.424 . S
O31 C19 1.268 . S
H32 C4 0.930 . S
H33 C5 0.929 . S
H34 C7 0.930 . S
H35 C8 0.929 . S
H36 C13 0.930 . S
H37 C14 0.929 . S
H38 C16 0.930 . S
H39 C17 0.929 . S
Nd40 C42 2.836 . S
Nd40 O60 2.500 . S
Nd40 O61 2.492 . S
Nd40 O62 2.487 . S
Nd40 O63 2.682 1_545 S
Nd40 O64 2.410 . S
Nd40 O69 2.414 1_554 S
Nd40 O71 2.424 1_545 S
Nd41 C51 2.836 . S
Nd41 O63 2.414 1_556 S
Nd41 O65 2.425 1_565 S
Nd41 O66 2.500 1_556 S
Nd41 O67 2.492 . S
Nd41 O68 2.487 . S
Nd41 O69 2.682 1_565 S
Nd41 O70 2.410 1_556 S
C42 Nd40 2.836 . S
C42 C43 1.498 . S
C42 O60 1.258 . S
C42 O61 1.239 . S
C43 C42 1.498 . S
C43 C44 1.366 . S
C43 C48 1.407 . S
C44 C43 1.366 . S
C44 C45 1.392 . S
C44 H72 0.930 . S
C45 C44 1.392 . S
C45 C46 1.398 . S
C45 H73 0.929 . S
C46 C45 1.398 . S
C46 C47 1.352 . S
C47 C46 1.352 . S
C47 C48 1.384 . S
C47 H74 0.930 . S
C48 C43 1.407 . S
C48 C47 1.384 . S
C48 H75 0.929 . S
C49 O62 1.241 1_565 S
C49 O63 1.273 . S
C50 O64 1.251 . S
C50 O65 1.262 1_554 S
C51 Nd41 2.836 . S
C51 C52 1.498 . S
C51 O66 1.258 1_556 S
C51 O67 1.239 . S
C52 C51 1.498 . S
C52 C53 1.366 1_556 S
C52 C57 1.407 . S
C53 C52 1.366 1_554 S
C53 C54 1.392 . S
C53 H76 0.930 . S
C54 C53 1.392 . S
C54 C55 1.398 1_554 S
C54 H77 0.929 . S
C55 C54 1.398 1_556 S
C55 C56 1.352 . S
C56 C55 1.352 . S
C56 C57 1.384 . S
C56 H78 0.930 . S
C57 C52 1.407 . S
C57 C56 1.384 . S
C57 H79 0.929 . S
C58 O68 1.241 1_545 S
C58 O69 1.273 . S
C59 O70 1.251 . S
C59 O71 1.268 . S
O60 Nd40 2.500 . S
O60 C42 1.258 . S
O61 Nd40 2.492 . S
O61 C42 1.239 . S
O62 Nd40 2.487 . S
O62 C49 1.241 1_545 S
O63 Nd40 2.682 1_565 S
O63 Nd41 2.414 1_554 S
O63 C49 1.273 . S
O64 Nd40 2.410 . S
O64 C50 1.251 . S
O65 Nd41 2.425 1_545 S
O65 C50 1.262 1_556 S
O66 Nd41 2.500 1_554 S
O66 C51 1.258 1_554 S
O67 Nd41 2.492 . S
O67 C51 1.239 . S
O68 Nd41 2.487 . S
O68 C58 1.241 1_565 S
O69 Nd40 2.414 1_556 S
O69 Nd41 2.682 1_545 S
O69 C58 1.273 . S
O70 Nd41 2.410 1_554 S
O70 C59 1.251 . S
O71 Nd40 2.424 1_565 S
O71 C59 1.268 . S
H72 C44 0.930 . S
H73 C45 0.929 . S
H74 C47 0.930 . S
H75 C48 0.929 . S
H76 C53 0.930 . S
H77 C54 0.929 . S
H78 C56 0.930 . S
H79 C57 0.929 . S
Nd80 C82 2.836 . S
Nd80 O100 2.500 . S
Nd80 O101 2.492 . S
Nd80 O102 2.487 . S
Nd80 O103 2.682 1_655 S
Nd80 O104 2.410 . S
Nd80 O109 2.414 1_554 S
Nd80 O111 2.424 1_655 S
Nd81 C91 2.836 . S
Nd81 O103 2.414 1_556 S
Nd81 O105 2.424 1_455 S
Nd81 O106 2.500 1_556 S
Nd81 O107 2.492 . S
Nd81 O108 2.487 . S
Nd81 O109 2.682 1_455 S
Nd81 O110 2.410 1_556 S
C82 Nd80 2.836 . S
C82 C83 1.498 . S
C82 O100 1.258 . S
C82 O101 1.239 . S
C83 C82 1.498 . S
C83 C84 1.366 . S
C83 C88 1.407 . S
C84 C83 1.366 . S
C84 C85 1.392 . S
C84 H112 0.930 . S
C85 C84 1.392 . S
C85 C86 1.398 . S
C85 H113 0.929 . S
C86 C85 1.398 . S
C86 C87 1.352 . S
C87 C86 1.352 . S
C87 C88 1.384 . S
C87 H114 0.930 . S
C88 C83 1.407 . S
C88 C87 1.384 . S
C88 H115 0.929 . S
C89 O102 1.241 1_455 S
C89 O103 1.273 . S
C90 O104 1.251 . S
C90 O105 1.268 1_554 S
C91 Nd81 2.836 . S
C91 C92 1.498 . S
C91 O106 1.258 1_556 S
C91 O107 1.239 . S
C92 C91 1.498 . S
C92 C93 1.366 1_556 S
C92 C97 1.407 . S
C93 C92 1.366 1_554 S
C93 C94 1.392 . S
C93 H116 0.930 . S
C94 C93 1.392 . S
C94 C95 1.398 1_554 S
C94 H117 0.929 . S
C95 C94 1.398 1_556 S
C95 C96 1.352 . S
C96 C95 1.352 . S
C96 C97 1.384 . S
C96 H118 0.930 . S
C97 C92 1.407 . S
C97 C96 1.384 . S
C97 H119 0.929 . S
C98 O108 1.241 1_655 S
C98 O109 1.273 . S
C99 O110 1.251 . S
C99 O111 1.268 . S
O100 Nd80 2.500 . S
O100 C82 1.258 . S
O101 Nd80 2.492 . S
O101 C82 1.239 . S
O102 Nd80 2.487 . S
O102 C89 1.241 1_655 S
O103 Nd80 2.682 1_455 S
O103 Nd81 2.414 1_554 S
O103 C89 1.273 . S
O104 Nd80 2.410 . S
O104 C90 1.251 . S
O105 Nd81 2.424 1_655 S
O105 C90 1.268 1_556 S
O106 Nd81 2.500 1_554 S
O106 C91 1.258 1_554 S
O107 Nd81 2.492 . S
O107 C91 1.239 . S
O108 Nd81 2.487 . S
O108 C98 1.241 1_455 S
O109 Nd80 2.414 1_556 S
O109 Nd81 2.682 1_655 S
O109 C98 1.273 . S
O110 Nd81 2.410 1_554 S
O110 C99 1.251 . S
O111 Nd80 2.424 1_455 S
O111 C99 1.268 . S
H112 C84 0.930 . S
H113 C85 0.929 . S
H114 C87 0.930 . S
H115 C88 0.929 . S
H116 C93 0.930 . S
H117 C94 0.929 . S
H118 C96 0.930 . S
H119 C97 0.929 . S
Nd120 C122 2.836 . S
Nd120 O140 2.500 . S
Nd120 O141 2.492 . S
Nd120 O142 2.487 . S
Nd120 O143 2.682 . S
Nd120 O144 2.410 . S
Nd120 O149 2.414 . S
Nd120 O151 2.424 . S
Nd121 C131 2.836 . S
Nd121 O143 2.414 . S
Nd121 O145 2.424 . S
Nd121 O146 2.500 . S
Nd121 O147 2.492 . S
Nd121 O148 2.487 . S
Nd121 O149 2.682 . S
Nd121 O150 2.410 . S
C122 Nd120 2.836 . S
C122 C123 1.498 . S
C122 O140 1.258 . S
C122 O141 1.239 . S
C123 C122 1.498 . S
C123 C124 1.366 . S
C123 C128 1.407 . S
C124 C123 1.366 . S
C124 C125 1.392 . S
C124 H152 0.930 . S
C125 C124 1.392 . S
C125 C126 1.398 . S
C125 H153 0.929 . S
C126 C125 1.398 . S
C126 C127 1.352 . S
C127 C126 1.352 . S
C127 C128 1.384 . S
C127 H154 0.930 . S
C128 C123 1.407 . S
C128 C127 1.384 . S
C128 H155 0.929 . S
C129 O142 1.241 . S
C129 O143 1.273 . S
C130 O144 1.251 . S
C130 O145 1.268 . S
C131 Nd121 2.836 . S
C131 C132 1.498 . S
C131 O146 1.258 . S
C131 O147 1.239 . S
C132 C131 1.498 . S
C132 C133 1.366 . S
C132 C137 1.407 . S
C133 C132 1.366 . S
C133 C134 1.392 . S
C133 H156 0.930 . S
C134 C133 1.392 . S
C134 C135 1.398 . S
C134 H157 0.929 . S
C135 C134 1.398 . S
C135 C136 1.352 . S
C136 C135 1.352 . S
C136 C137 1.384 . S
C136 H158 0.930 . S
C137 C132 1.407 . S
C137 C136 1.384 . S
C137 H159 0.929 . S
C138 O148 1.241 . S
C138 O149 1.273 . S
C139 O150 1.251 . S
C139 O151 1.268 . S
O140 Nd120 2.500 . S
O140 C122 1.258 . S
O141 Nd120 2.492 . S
O141 C122 1.239 . S
O142 Nd120 2.487 . S
O142 C129 1.241 . S
O143 Nd120 2.682 . S
O143 Nd121 2.414 . S
O143 C129 1.273 . S
O144 Nd120 2.410 . S
O144 C130 1.251 . S
O145 Nd121 2.424 . S
O145 C130 1.268 . S
O146 Nd121 2.500 . S
O146 C131 1.258 . S
O147 Nd121 2.492 . S
O147 C131 1.239 . S
O148 Nd121 2.487 . S
O148 C138 1.241 . S
O149 Nd120 2.414 . S
O149 Nd121 2.682 . S
O149 C138 1.273 . S
O150 Nd121 2.410 . S
O150 C139 1.251 . S
O151 Nd120 2.424 . S
O151 C139 1.268 . S
H152 C124 0.930 . S
H153 C125 0.929 . S
H154 C127 0.930 . S
H155 C128 0.929 . S
H156 C133 0.930 . S
H157 C134 0.929 . S
H158 C136 0.930 . S
H159 C137 0.929 . S
Nd160 C162 2.836 . S
Nd160 O180 2.500 . S
Nd160 O181 2.492 . S
Nd160 O182 2.487 . S
Nd160 O183 2.682 1_565 S
Nd160 O184 2.410 . S
Nd160 O189 2.414 . S
Nd160 O191 2.424 1_565 S
Nd161 C171 2.836 . S
Nd161 O183 2.414 . S
Nd161 O185 2.424 1_545 S
Nd161 O186 2.500 . S
Nd161 O187 2.492 . S
Nd161 O188 2.487 . S
Nd161 O189 2.682 1_545 S
Nd161 O190 2.410 . S
C162 Nd160 2.836 . S
C162 C163 1.498 . S
C162 O180 1.258 . S
C162 O181 1.239 . S
C163 C162 1.498 . S
C163 C164 1.366 . S
C163 C168 1.407 . S
C164 C163 1.366 . S
C164 C165 1.392 . S
C164 H192 0.930 . S
C165 C164 1.392 . S
C165 C166 1.398 . S
C165 H193 0.929 . S
C166 C165 1.398 . S
C166 C167 1.352 . S
C167 C166 1.352 . S
C167 C168 1.384 . S
C167 H194 0.930 . S
C168 C163 1.407 . S
C168 C167 1.384 . S
C168 H195 0.929 . S
C169 O182 1.241 1_545 S
C169 O183 1.273 . S
C170 O184 1.251 . S
C170 O185 1.268 . S
C171 Nd161 2.836 . S
C171 C172 1.498 . S
C171 O186 1.258 . S
C171 O187 1.239 . S
C172 C171 1.498 . S
C172 C173 1.366 . S
C172 C177 1.407 . S
C173 C172 1.366 . S
C173 C174 1.392 . S
C173 H196 0.930 . S
C174 C173 1.392 . S
C174 C175 1.398 . S
C174 H197 0.929 . S
C175 C174 1.398 . S
C175 C176 1.352 . S
C176 C175 1.352 . S
C176 C177 1.384 . S
C176 H198 0.930 . S
C177 C172 1.407 . S
C177 C176 1.384 . S
C177 H199 0.929 . S
C178 O188 1.241 1_565 S
C178 O189 1.273 . S
C179 O190 1.251 . S
C179 O191 1.268 . S
O180 Nd160 2.500 . S
O180 C162 1.258 . S
O181 Nd160 2.492 . S
O181 C162 1.239 . S
O182 Nd160 2.487 . S
O182 C169 1.241 1_565 S
O183 Nd160 2.682 1_545 S
O183 Nd161 2.414 . S
O183 C169 1.273 . S
O184 Nd160 2.410 . S
O184 C170 1.251 . S
O185 Nd161 2.424 1_565 S
O185 C170 1.268 . S
O186 Nd161 2.500 . S
O186 C171 1.258 . S
O187 Nd161 2.492 . S
O187 C171 1.239 . S
O188 Nd161 2.487 . S
O188 C178 1.241 1_545 S
O189 Nd160 2.414 . S
O189 Nd161 2.682 1_565 S
O189 C178 1.273 . S
O190 Nd161 2.410 . S
O190 C179 1.251 . S
O191 Nd160 2.424 1_545 S
O191 C179 1.268 . S
H192 C164 0.930 . S
H193 C165 0.929 . S
H194 C167 0.930 . S
H195 C168 0.929 . S
H196 C173 0.930 . S
H197 C174 0.929 . S
H198 C176 0.930 . S
H199 C177 0.929 . S
Nd200 C202 2.836 . S
Nd200 O220 2.500 . S
Nd200 O221 2.492 . S
Nd200 O222 2.487 . S
Nd200 O223 2.682 1_455 S
Nd200 O224 2.410 . S
Nd200 O229 2.414 . S
Nd200 O231 2.424 1_455 S
Nd201 C211 2.836 . S
Nd201 O223 2.414 . S
Nd201 O225 2.424 1_655 S
Nd201 O226 2.500 . S
Nd201 O227 2.492 . S
Nd201 O228 2.487 . S
Nd201 O229 2.682 1_655 S
Nd201 O230 2.410 . S
C202 Nd200 2.836 . S
C202 C203 1.498 . S
C202 O220 1.258 . S
C202 O221 1.239 . S
C203 C202 1.498 . S
C203 C204 1.366 . S
C203 C208 1.407 . S
C204 C203 1.366 . S
C204 C205 1.392 . S
C204 H232 0.930 . S
C205 C204 1.392 . S
C205 C206 1.398 . S
C205 H233 0.929 . S
C206 C205 1.398 . S
C206 C207 1.352 . S
C207 C206 1.352 . S
C207 C208 1.384 . S
C207 H234 0.930 . S
C208 C203 1.407 . S
C208 C207 1.384 . S
C208 H235 0.929 . S
C209 O222 1.241 1_655 S
C209 O223 1.273 . S
C210 O224 1.251 . S
C210 O225 1.268 . S
C211 Nd201 2.836 . S
C211 C212 1.498 . S
C211 O226 1.258 . S
C211 O227 1.239 . S
C212 C211 1.498 . S
C212 C213 1.366 . S
C212 C217 1.407 . S
C213 C212 1.366 . S
C213 C214 1.392 . S
C213 H236 0.930 . S
C214 C213 1.392 . S
C214 C215 1.398 . S
C214 H237 0.929 . S
C215 C214 1.398 . S
C215 C216 1.352 . S
C216 C215 1.352 . S
C216 C217 1.384 . S
C216 H238 0.930 . S
C217 C212 1.407 . S
C217 C216 1.384 . S
C217 H239 0.929 . S
C218 O228 1.241 1_455 S
C218 O229 1.273 . S
C219 O230 1.251 . S
C219 O231 1.268 . S
O220 Nd200 2.500 . S
O220 C202 1.258 . S
O221 Nd200 2.492 . S
O221 C202 1.239 . S
O222 Nd200 2.487 . S
O222 C209 1.241 1_455 S
O223 Nd200 2.682 1_655 S
O223 Nd201 2.414 . S
O223 C209 1.273 . S
O224 Nd200 2.410 . S
O224 C210 1.251 . S
O225 Nd201 2.424 1_455 S
O225 C210 1.268 . S
O226 Nd201 2.500 . S
O226 C211 1.258 . S
O227 Nd201 2.492 . S
O227 C211 1.239 . S
O228 Nd201 2.487 . S
O228 C218 1.241 1_655 S
O229 Nd200 2.414 . S
O229 Nd201 2.682 1_455 S
O229 C218 1.273 . S
O230 Nd201 2.410 . S
O230 C219 1.251 . S
O231 Nd200 2.424 1_655 S
O231 C219 1.268 . S
H232 C204 0.930 . S
H233 C205 0.929 . S
H234 C207 0.930 . S
H235 C208 0.929 . S
H236 C213 0.930 . S
H237 C214 0.929 . S
H238 C216 0.930 . S
H239 C217 0.929 . S
Nd240 C242 2.836 . S
Nd240 O260 2.500 1_554 S
Nd240 O261 2.492 . S
Nd240 O262 2.487 . S
Nd240 O263 2.682 . S
Nd240 O264 2.410 1_554 S
Nd240 O269 2.414 1_554 S
Nd240 O271 2.424 . S
Nd241 C251 2.836 . S
Nd241 O263 2.414 1_556 S
Nd241 O265 2.424 . S
Nd241 O266 2.500 . S
Nd241 O267 2.492 . S
Nd241 O268 2.487 . S
Nd241 O269 2.682 . S
Nd241 O270 2.410 . S
C242 Nd240 2.836 . S
C242 C243 1.498 . S
C242 O260 1.258 1_554 S
C242 O261 1.239 . S
C243 C242 1.498 . S
C243 C244 1.366 1_554 S
C243 C248 1.407 . S
C244 C243 1.366 1_556 S
C244 C245 1.392 . S
C244 H272 0.930 . S
C245 C244 1.392 . S
C245 C246 1.398 1_556 S
C245 H273 0.929 . S
C246 C245 1.398 1_554 S
C246 C247 1.352 . S
C247 C246 1.352 . S
C247 C248 1.384 . S
C247 H274 0.930 . S
C248 C243 1.407 . S
C248 C247 1.384 . S
C248 H275 0.929 . S
C249 O262 1.241 . S
C249 O263 1.273 . S
C250 O264 1.251 . S
C250 O265 1.268 . S
C251 Nd241 2.836 . S
C251 C252 1.498 . S
C251 O266 1.258 . S
C251 O267 1.239 . S
C252 C251 1.498 . S
C252 C253 1.366 . S
C252 C257 1.407 . S
C253 C252 1.366 . S
C253 C254 1.392 . S
C253 H276 0.930 . S
C254 C253 1.392 . S
C254 C255 1.398 . S
C254 H277 0.929 . S
C255 C254 1.398 . S
C255 C256 1.352 . S
C256 C255 1.352 . S
C256 C257 1.384 . S
C256 H278 0.930 . S
C257 C252 1.407 . S
C257 C256 1.384 . S
C257 H279 0.929 . S
C258 O268 1.241 . S
C258 O269 1.273 . S
C259 O270 1.251 . S
C259 O271 1.266 1_556 S
O260 Nd240 2.500 1_556 S
O260 C242 1.258 1_556 S
O261 Nd240 2.492 . S
O261 C242 1.239 . S
O262 Nd240 2.487 . S
O262 C249 1.241 . S
O263 Nd240 2.682 . S
O263 Nd241 2.414 1_554 S
O263 C249 1.273 . S
O264 Nd240 2.410 1_556 S
O264 C250 1.251 . S
O265 Nd241 2.424 . S
O265 C250 1.268 . S
O266 Nd241 2.500 . S
O266 C251 1.258 . S
O267 Nd241 2.492 . S
O267 C251 1.239 . S
O268 Nd241 2.487 . S
O268 C258 1.241 . S
O269 Nd240 2.414 1_556 S
O269 Nd241 2.682 . S
O269 C258 1.273 . S
O270 Nd241 2.410 . S
O270 C259 1.251 . S
O271 Nd240 2.424 . S
O271 C259 1.266 1_554 S
H272 C244 0.930 . S
H273 C245 0.929 . S
H274 C247 0.930 . S
H275 C248 0.929 . S
H276 C253 0.930 . S
H277 C254 0.929 . S
H278 C256 0.930 . S
H279 C257 0.929 . S
Nd280 C282 2.836 . S
Nd280 O300 2.500 1_554 S
Nd280 O301 2.492 . S
Nd280 O302 2.487 . S
Nd280 O303 2.682 1_545 S
Nd280 O304 2.410 1_554 S
Nd280 O309 2.414 1_554 S
Nd280 O311 2.425 1_545 S
Nd281 C291 2.836 . S
Nd281 O303 2.414 1_556 S
Nd281 O305 2.424 1_565 S
Nd281 O306 2.500 . S
Nd281 O307 2.492 . S
Nd281 O308 2.487 . S
Nd281 O309 2.682 1_565 S
Nd281 O310 2.410 . S
C282 Nd280 2.836 . S
C282 C283 1.498 . S
C282 O300 1.258 1_554 S
C282 O301 1.239 . S
C283 C282 1.498 . S
C283 C284 1.366 1_554 S
C283 C288 1.407 . S
C284 C283 1.366 1_556 S
C284 C285 1.392 . S
C284 H312 0.930 . S
C285 C284 1.392 . S
C285 C286 1.398 1_556 S
C285 H313 0.929 . S
C286 C285 1.398 1_554 S
C286 C287 1.352 . S
C287 C286 1.352 . S
C287 C288 1.384 . S
C287 H314 0.930 . S
C288 C283 1.407 . S
C288 C287 1.384 . S
C288 H315 0.929 . S
C289 O302 1.241 1_565 S
C289 O303 1.273 . S
C290 O304 1.251 . S
C290 O305 1.268 . S
C291 Nd281 2.836 . S
C291 C292 1.498 . S
C291 O306 1.258 . S
C291 O307 1.239 . S
C292 C291 1.498 . S
C292 C293 1.366 . S
C292 C297 1.407 . S
C293 C292 1.366 . S
C293 C294 1.392 . S
C293 H316 0.930 . S
C294 C293 1.392 . S
C294 C295 1.398 . S
C294 H317 0.929 . S
C295 C294 1.398 . S
C295 C296 1.352 . S
C296 C295 1.352 . S
C296 C297 1.384 . S
C296 H318 0.930 . S
C297 C292 1.407 . S
C297 C296 1.384 . S
C297 H319 0.929 . S
C298 O308 1.241 1_545 S
C298 O309 1.273 . S
C299 O310 1.251 . S
C299 O311 1.262 1_556 S
O300 Nd280 2.500 1_556 S
O300 C282 1.258 1_556 S
O301 Nd280 2.492 . S
O301 C282 1.239 . S
O302 Nd280 2.487 . S
O302 C289 1.241 1_545 S
O303 Nd280 2.682 1_565 S
O303 Nd281 2.414 1_554 S
O303 C289 1.273 . S
O304 Nd280 2.410 1_556 S
O304 C290 1.251 . S
O305 Nd281 2.424 1_545 S
O305 C290 1.268 . S
O306 Nd281 2.500 . S
O306 C291 1.258 . S
O307 Nd281 2.492 . S
O307 C291 1.239 . S
O308 Nd281 2.487 . S
O308 C298 1.241 1_565 S
O309 Nd280 2.414 1_556 S
O309 Nd281 2.682 1_545 S
O309 C298 1.273 . S
O310 Nd281 2.410 . S
O310 C299 1.251 . S
O311 Nd280 2.425 1_565 S
O311 C299 1.262 1_554 S
H312 C284 0.930 . S
H313 C285 0.929 . S
H314 C287 0.930 . S
H315 C288 0.929 . S
H316 C293 0.930 . S
H317 C294 0.929 . S
H318 C296 0.930 . S
H319 C297 0.929 . S
Nd320 C322 2.836 . S
Nd320 O340 2.500 1_554 S
Nd320 O341 2.492 . S
Nd320 O342 2.487 . S
Nd320 O343 2.682 1_655 S
Nd320 O344 2.410 1_554 S
Nd320 O349 2.414 1_554 S
Nd320 O351 2.424 1_655 S
Nd321 C331 2.836 . S
Nd321 O343 2.414 1_556 S
Nd321 O345 2.424 1_455 S
Nd321 O346 2.500 . S
Nd321 O347 2.492 . S
Nd321 O348 2.487 . S
Nd321 O349 2.682 1_455 S
Nd321 O350 2.410 . S
C322 Nd320 2.836 . S
C322 C323 1.498 . S
C322 O340 1.258 1_554 S
C322 O341 1.239 . S
C323 C322 1.498 . S
C323 C324 1.366 1_554 S
C323 C328 1.407 . S
C324 C323 1.366 1_556 S
C324 C325 1.392 . S
C324 H352 0.930 . S
C325 C324 1.392 . S
C325 C326 1.398 1_556 S
C325 H353 0.929 . S
C326 C325 1.398 1_554 S
C326 C327 1.352 . S
C327 C326 1.352 . S
C327 C328 1.384 . S
C327 H354 0.930 . S
C328 C323 1.407 . S
C328 C327 1.384 . S
C328 H355 0.929 . S
C329 O342 1.241 1_455 S
C329 O343 1.273 . S
C330 O344 1.251 . S
C330 O345 1.268 . S
C331 Nd321 2.836 . S
C331 C332 1.498 . S
C331 O346 1.258 . S
C331 O347 1.239 . S
C332 C331 1.498 . S
C332 C333 1.366 . S
C332 C337 1.407 . S
C333 C332 1.366 . S
C333 C334 1.392 . S
C333 H356 0.930 . S
C334 C333 1.392 . S
C334 C335 1.398 . S
C334 H357 0.929 . S
C335 C334 1.398 . S
C335 C336 1.352 . S
C336 C335 1.352 . S
C336 C337 1.384 . S
C336 H358 0.930 . S
C337 C332 1.407 . S
C337 C336 1.384 . S
C337 H359 0.929 . S
C338 O348 1.241 1_655 S
C338 O349 1.273 . S
C339 O350 1.251 . S
C339 O351 1.268 1_556 S
O340 Nd320 2.500 1_556 S
O340 C322 1.258 1_556 S
O341 Nd320 2.492 . S
O341 C322 1.239 . S
O342 Nd320 2.487 . S
O342 C329 1.241 1_655 S
O343 Nd320 2.682 1_455 S
O343 Nd321 2.414 1_554 S
O343 C329 1.273 . S
O344 Nd320 2.410 1_556 S
O344 C330 1.251 . S
O345 Nd321 2.424 1_655 S
O345 C330 1.268 . S
O346 Nd321 2.500 . S
O346 C331 1.258 . S
O347 Nd321 2.492 . S
O347 C331 1.239 . S
O348 Nd321 2.487 . S
O348 C338 1.241 1_455 S
O349 Nd320 2.414 1_556 S
O349 Nd321 2.682 1_655 S
O349 C338 1.273 . S
O350 Nd321 2.410 . S
O350 C339 1.251 . S
O351 Nd320 2.424 1_455 S
O351 C339 1.268 1_554 S
H352 C324 0.930 . S
H353 C325 0.929 . S
H354 C327 0.930 . S
H355 C328 0.929 . S
H356 C333 0.930 . S
H357 C334 0.929 . S
H358 C336 0.930 . S
H359 C337 0.929 . S
Nd360 C362 2.836 . S
Nd360 O380 2.500 . S
Nd360 O381 2.492 . S
Nd360 O382 2.487 . S
Nd360 O383 2.682 . S
Nd360 O384 2.410 . S
Nd360 O389 2.414 . S
Nd360 O391 2.424 . S
Nd361 C371 2.836 . S
Nd361 O383 2.414 . S
Nd361 O385 2.424 . S
Nd361 O386 2.500 . S
Nd361 O387 2.492 . S
Nd361 O388 2.487 . S
Nd361 O389 2.682 . S
Nd361 O390 2.410 . S
C362 Nd360 2.836 . S
C362 C363 1.498 . S
C362 O380 1.258 . S
C362 O381 1.239 . S
C363 C362 1.498 . S
C363 C364 1.366 . S
C363 C368 1.407 . S
C364 C363 1.366 . S
C364 C365 1.392 . S
C364 H392 0.930 . S
C365 C364 1.392 . S
C365 C366 1.398 . S
C365 H393 0.929 . S
C366 C365 1.398 . S
C366 C367 1.352 . S
C367 C366 1.352 . S
C367 C368 1.384 . S
C367 H394 0.930 . S
C368 C363 1.407 . S
C368 C367 1.384 . S
C368 H395 0.929 . S
C369 O382 1.241 . S
C369 O383 1.273 . S
C370 O384 1.251 . S
C370 O385 1.268 . S
C371 Nd361 2.836 . S
C371 C372 1.498 . S
C371 O386 1.258 . S
C371 O387 1.239 . S
C372 C371 1.498 . S
C372 C373 1.366 . S
C372 C377 1.407 . S
C373 C372 1.366 . S
C373 C374 1.392 . S
C373 H396 0.930 . S
C374 C373 1.392 . S
C374 C375 1.398 . S
C374 H397 0.929 . S
C375 C374 1.398 . S
C375 C376 1.352 . S
C376 C375 1.352 . S
C376 C377 1.384 . S
C376 H398 0.930 . S
C377 C372 1.407 . S
C377 C376 1.384 . S
C377 H399 0.929 . S
C378 O388 1.241 . S
C378 O389 1.273 . S
C379 O390 1.251 . S
C379 O391 1.268 . S
O380 Nd360 2.500 . S
O380 C362 1.258 . S
O381 Nd360 2.492 . S
O381 C362 1.239 . S
O382 Nd360 2.487 . S
O382 C369 1.241 . S
O383 Nd360 2.682 . S
O383 Nd361 2.414 . S
O383 C369 1.273 . S
O384 Nd360 2.410 . S
O384 C370 1.251 . S
O385 Nd361 2.424 . S
O385 C370 1.268 . S
O386 Nd361 2.500 . S
O386 C371 1.258 . S
O387 Nd361 2.492 . S
O387 C371 1.239 . S
O388 Nd361 2.487 . S
O388 C378 1.241 . S
O389 Nd360 2.414 . S
O389 Nd361 2.682 . S
O389 C378 1.273 . S
O390 Nd361 2.410 . S
O390 C379 1.251 . S
O391 Nd360 2.424 . S
O391 C379 1.268 . S
H392 C364 0.930 . S
H393 C365 0.929 . S
H394 C367 0.930 . S
H395 C368 0.929 . S
H396 C373 0.930 . S
H397 C374 0.929 . S
H398 C376 0.930 . S
H399 C377 0.929 . S
Nd400 C402 2.836 . S
Nd400 O420 2.500 . S
Nd400 O421 2.492 . S
Nd400 O422 2.487 . S
Nd400 O423 2.682 1_565 S
Nd400 O424 2.410 . S
Nd400 O429 2.414 . S
Nd400 O431 2.424 1_565 S
Nd401 C411 2.836 . S
Nd401 O423 2.414 . S
Nd401 O425 2.424 1_545 S
Nd401 O426 2.500 . S
Nd401 O427 2.492 . S
Nd401 O428 2.487 . S
Nd401 O429 2.682 1_545 S
Nd401 O430 2.410 . S
C402 Nd400 2.836 . S
C402 C403 1.498 . S
C402 O420 1.258 . S
C402 O421 1.239 . S
C403 C402 1.498 . S
C403 C404 1.366 . S
C403 C408 1.407 . S
C404 C403 1.366 . S
C404 C405 1.392 . S
C404 H432 0.930 . S
C405 C404 1.392 . S
C405 C406 1.398 . S
C405 H433 0.929 . S
C406 C405 1.398 . S
C406 C407 1.352 . S
C407 C406 1.352 . S
C407 C408 1.384 . S
C407 H434 0.930 . S
C408 C403 1.407 . S
C408 C407 1.384 . S
C408 H435 0.929 . S
C409 O422 1.241 1_545 S
C409 O423 1.273 . S
C410 O424 1.251 . S
C410 O425 1.268 . S
C411 Nd401 2.836 . S
C411 C412 1.498 . S
C411 O426 1.258 . S
C411 O427 1.239 . S
C412 C411 1.498 . S
C412 C413 1.366 . S
C412 C417 1.407 . S
C413 C412 1.366 . S
C413 C414 1.392 . S
C413 H436 0.930 . S
C414 C413 1.392 . S
C414 C415 1.398 . S
C414 H437 0.929 . S
C415 C414 1.398 . S
C415 C416 1.352 . S
C416 C415 1.352 . S
C416 C417 1.384 . S
C416 H438 0.930 . S
C417 C412 1.407 . S
C417 C416 1.384 . S
C417 H439 0.929 . S
C418 O428 1.241 1_565 S
C418 O429 1.273 . S
C419 O430 1.251 . S
C419 O431 1.268 . S
O420 Nd400 2.500 . S
O420 C402 1.258 . S
O421 Nd400 2.492 . S
O421 C402 1.239 . S
O422 Nd400 2.487 . S
O422 C409 1.241 1_565 S
O423 Nd400 2.682 1_545 S
O423 Nd401 2.414 . S
O423 C409 1.273 . S
O424 Nd400 2.410 . S
O424 C410 1.251 . S
O425 Nd401 2.424 1_565 S
O425 C410 1.268 . S
O426 Nd401 2.500 . S
O426 C411 1.258 . S
O427 Nd401 2.492 . S
O427 C411 1.239 . S
O428 Nd401 2.487 . S
O428 C418 1.241 1_545 S
O429 Nd400 2.414 . S
O429 Nd401 2.682 1_565 S
O429 C418 1.273 . S
O430 Nd401 2.410 . S
O430 C419 1.251 . S
O431 Nd400 2.424 1_545 S
O431 C419 1.268 . S
H432 C404 0.930 . S
H433 C405 0.929 . S
H434 C407 0.930 . S
H435 C408 0.929 . S
H436 C413 0.930 . S
H437 C414 0.929 . S
H438 C416 0.930 . S
H439 C417 0.929 . S
Nd440 C442 2.836 . S
Nd440 O460 2.500 . S
Nd440 O461 2.492 . S
Nd440 O462 2.487 . S
Nd440 O463 2.682 1_455 S
Nd440 O464 2.410 . S
Nd440 O469 2.414 . S
Nd440 O471 2.424 1_455 S
Nd441 C451 2.836 . S
Nd441 O463 2.414 . S
Nd441 O465 2.424 1_655 S
Nd441 O466 2.500 . S
Nd441 O467 2.492 . S
Nd441 O468 2.487 . S
Nd441 O469 2.682 1_655 S
Nd441 O470 2.410 . S
C442 Nd440 2.836 . S
C442 C443 1.498 . S
C442 O460 1.258 . S
C442 O461 1.239 . S
C443 C442 1.498 . S
C443 C444 1.366 . S
C443 C448 1.407 . S
C444 C443 1.366 . S
C444 C445 1.392 . S
C444 H472 0.930 . S
C445 C444 1.392 . S
C445 C446 1.398 . S
C445 H473 0.929 . S
C446 C445 1.398 . S
C446 C447 1.352 . S
C447 C446 1.352 . S
C447 C448 1.384 . S
C447 H474 0.930 . S
C448 C443 1.407 . S
C448 C447 1.384 . S
C448 H475 0.929 . S
C449 O462 1.241 1_655 S
C449 O463 1.273 . S
C450 O464 1.251 . S
C450 O465 1.268 . S
C451 Nd441 2.836 . S
C451 C452 1.498 . S
C451 O466 1.258 . S
C451 O467 1.239 . S
C452 C451 1.498 . S
C452 C453 1.366 . S
C452 C457 1.407 . S
C453 C452 1.366 . S
C453 C454 1.392 . S
C453 H476 0.930 . S
C454 C453 1.392 . S
C454 C455 1.398 . S
C454 H477 0.929 . S
C455 C454 1.398 . S
C455 C456 1.352 . S
C456 C455 1.352 . S
C456 C457 1.384 . S
C456 H478 0.930 . S
C457 C452 1.407 . S
C457 C456 1.384 . S
C457 H479 0.929 . S
C458 O468 1.241 1_455 S
C458 O469 1.273 . S
C459 O470 1.251 . S
C459 O471 1.268 . S
O460 Nd440 2.500 . S
O460 C442 1.258 . S
O461 Nd440 2.492 . S
O461 C442 1.239 . S
O462 Nd440 2.487 . S
O462 C449 1.241 1_455 S
O463 Nd440 2.682 1_655 S
O463 Nd441 2.414 . S
O463 C449 1.273 . S
O464 Nd440 2.410 . S
O464 C450 1.251 . S
O465 Nd441 2.424 1_455 S
O465 C450 1.268 . S
O466 Nd441 2.500 . S
O466 C451 1.258 . S
O467 Nd441 2.492 . S
O467 C451 1.239 . S
O468 Nd441 2.487 . S
O468 C458 1.241 1_655 S
O469 Nd440 2.414 . S
O469 Nd441 2.682 1_455 S
O469 C458 1.273 . S
O470 Nd441 2.410 . S
O470 C459 1.251 . S
O471 Nd440 2.424 1_655 S
O471 C459 1.268 . S
H472 C444 0.930 . S
H473 C445 0.929 . S
H474 C447 0.930 . S
H475 C448 0.929 . S
H476 C453 0.930 . S
H477 C454 0.929 . S
H478 C456 0.930 . S
H479 C457 0.929 . S
Nd480 C482 2.836 . S
Nd480 O500 2.500 . S
Nd480 O501 2.492 . S
Nd480 O502 2.487 . S
Nd480 O503 2.682 . S
Nd480 O504 2.410 . S
Nd480 O509 2.414 . S
Nd480 O511 2.424 . S
Nd481 C491 2.836 . S
Nd481 O503 2.414 . S
Nd481 O505 2.424 . S
Nd481 O506 2.500 . S
Nd481 O507 2.492 . S
Nd481 O508 2.487 . S
Nd481 O509 2.682 . S
Nd481 O510 2.410 . S
C482 Nd480 2.836 . S
C482 C483 1.498 1_655 S
C482 O500 1.258 . S
C482 O501 1.239 . S
C483 C482 1.498 1_455 S
C483 C484 1.366 . S
C483 C488 1.407 . S
C484 C483 1.366 . S
C484 C485 1.392 . S
C484 H512 0.930 . S
C485 C484 1.392 . S
C485 C486 1.398 . S
C485 H513 0.929 . S
C486 C485 1.398 . S
C486 C487 1.352 . S
C487 C486 1.352 . S
C487 C488 1.384 . S
C487 H514 0.930 . S
C488 C483 1.407 . S
C488 C487 1.384 . S
C488 H515 0.929 . S
C489 O502 1.241 . S
C489 O503 1.273 . S
C490 O504 1.251 . S
C490 O505 1.268 . S
C491 Nd481 2.836 . S
C491 C492 1.498 . S
C491 O506 1.258 . S
C491 O507 1.239 . S
C492 C491 1.498 . S
C492 C493 1.366 . S
C492 C497 1.407 . S
C493 C492 1.366 . S
C493 C494 1.392 . S
C493 H516 0.930 . S
C494 C493 1.392 . S
C494 C495 1.398 . S
C494 H517 0.929 . S
C495 C494 1.398 . S
C495 C496 1.352 . S
C496 C495 1.352 . S
C496 C497 1.384 . S
C496 H518 0.930 . S
C497 C492 1.407 . S
C497 C496 1.384 . S
C497 H519 0.929 . S
C498 O508 1.241 . S
C498 O509 1.273 . S
C499 O510 1.251 . S
C499 O511 1.268 . S
O500 Nd480 2.500 . S
O500 C482 1.258 . S
O501 Nd480 2.492 . S
O501 C482 1.239 . S
O502 Nd480 2.487 . S
O502 C489 1.241 . S
O503 Nd480 2.682 . S
O503 Nd481 2.414 . S
O503 C489 1.273 . S
O504 Nd480 2.410 . S
O504 C490 1.251 . S
O505 Nd481 2.424 . S
O505 C490 1.268 . S
O506 Nd481 2.500 . S
O506 C491 1.258 . S
O507 Nd481 2.492 . S
O507 C491 1.239 . S
O508 Nd481 2.487 . S
O508 C498 1.241 . S
O509 Nd480 2.414 . S
O509 Nd481 2.682 . S
O509 C498 1.273 . S
O510 Nd481 2.410 . S
O510 C499 1.251 . S
O511 Nd480 2.424 . S
O511 C499 1.268 . S
H512 C484 0.930 . S
H513 C485 0.929 . S
H514 C487 0.930 . S
H515 C488 0.929 . S
H516 C493 0.930 . S
H517 C494 0.929 . S
H518 C496 0.930 . S
H519 C497 0.929 . S
Nd520 C522 2.836 . S
Nd520 O540 2.500 . S
Nd520 O541 2.492 . S
Nd520 O542 2.487 . S
Nd520 O543 2.682 . S
Nd520 O544 2.410 . S
Nd520 O549 2.414 . S
Nd520 O551 2.424 . S
Nd521 C531 2.836 . S
Nd521 O543 2.414 . S
Nd521 O545 2.424 . S
Nd521 O546 2.500 . S
Nd521 O547 2.492 . S
Nd521 O548 2.487 . S
Nd521 O549 2.682 . S
Nd521 O550 2.410 . S
C522 Nd520 2.836 . S
C522 C523 1.498 . S
C522 O540 1.258 . S
C522 O541 1.239 . S
C523 C522 1.498 . S
C523 C524 1.366 . S
C523 C528 1.407 . S
C524 C523 1.366 . S
C524 C525 1.392 . S
C524 H552 0.930 . S
C525 C524 1.392 . S
C525 C526 1.398 . S
C525 H553 0.929 . S
C526 C525 1.398 . S
C526 C527 1.352 . S
C527 C526 1.352 . S
C527 C528 1.384 . S
C527 H554 0.930 . S
C528 C523 1.407 . S
C528 C527 1.384 . S
C528 H555 0.929 . S
C529 O542 1.241 . S
C529 O543 1.273 . S
C530 O544 1.251 . S
C530 O545 1.268 . S
C531 Nd521 2.836 . S
C531 C532 1.498 . S
C531 O546 1.258 . S
C531 O547 1.239 . S
C532 C531 1.498 . S
C532 C533 1.366 . S
C532 C537 1.407 . S
C533 C532 1.366 . S
C533 C534 1.392 . S
C533 H556 0.930 . S
C534 C533 1.392 . S
C534 C535 1.398 . S
C534 H557 0.929 . S
C535 C534 1.398 . S
C535 C536 1.352 . S
C536 C535 1.352 . S
C536 C537 1.384 . S
C536 H558 0.930 . S
C537 C532 1.407 . S
C537 C536 1.384 . S
C537 H559 0.929 . S
C538 O548 1.241 . S
C538 O549 1.273 . S
C539 O550 1.251 . S
C539 O551 1.268 . S
O540 Nd520 2.500 . S
O540 C522 1.258 . S
O541 Nd520 2.492 . S
O541 C522 1.239 . S
O542 Nd520 2.487 . S
O542 C529 1.241 . S
O543 Nd520 2.682 . S
O543 Nd521 2.414 . S
O543 C529 1.273 . S
O544 Nd520 2.410 . S
O544 C530 1.251 . S
O545 Nd521 2.424 . S
O545 C530 1.268 . S
O546 Nd521 2.500 . S
O546 C531 1.258 . S
O547 Nd521 2.492 . S
O547 C531 1.239 . S
O548 Nd521 2.487 . S
O548 C538 1.241 . S
O549 Nd520 2.414 . S
O549 Nd521 2.682 . S
O549 C538 1.273 . S
O550 Nd521 2.410 . S
O550 C539 1.251 . S
O551 Nd520 2.424 . S
O551 C539 1.268 . S
H552 C524 0.930 . S
H553 C525 0.929 . S
H554 C527 0.930 . S
H555 C528 0.929 . S
H556 C533 0.930 . S
H557 C534 0.929 . S
H558 C536 0.930 . S
H559 C537 0.929 . S
Nd560 C562 2.836 . S
Nd560 O580 2.500 . S
Nd560 O581 2.492 . S
Nd560 O582 2.487 . S
Nd560 O583 2.682 . S
Nd560 O584 2.410 . S
Nd560 O589 2.414 . S
Nd560 O591 2.424 . S
Nd561 C571 2.836 . S
Nd561 O583 2.414 . S
Nd561 O585 2.424 . S
Nd561 O586 2.500 . S
Nd561 O587 2.492 . S
Nd561 O588 2.487 . S
Nd561 O589 2.682 . S
Nd561 O590 2.410 . S
C562 Nd560 2.836 . S
C562 C563 1.498 1_545 S
C562 O580 1.258 . S
C562 O581 1.239 . S
C563 C562 1.498 1_565 S
C563 C564 1.366 . S
C563 C568 1.407 . S
C564 C563 1.366 . S
C564 C565 1.392 . S
C564 H592 0.930 . S
C565 C564 1.392 . S
C565 C566 1.398 . S
C565 H593 0.929 . S
C566 C565 1.398 . S
C566 C567 1.352 . S
C567 C566 1.352 . S
C567 C568 1.384 . S
C567 H594 0.930 . S
C568 C563 1.407 . S
C568 C567 1.384 . S
C568 H595 0.929 . S
C569 O582 1.241 . S
C569 O583 1.273 . S
C570 O584 1.251 . S
C570 O585 1.268 . S
C571 Nd561 2.836 . S
C571 C572 1.498 . S
C571 O586 1.258 . S
C571 O587 1.239 . S
C572 C571 1.498 . S
C572 C573 1.366 . S
C572 C577 1.407 . S
C573 C572 1.366 . S
C573 C574 1.392 . S
C573 H596 0.930 . S
C574 C573 1.392 . S
C574 C575 1.398 . S
C574 H597 0.929 . S
C575 C574 1.398 . S
C575 C576 1.352 . S
C576 C575 1.352 . S
C576 C577 1.384 . S
C576 H598 0.930 . S
C577 C572 1.407 . S
C577 C576 1.384 . S
C577 H599 0.929 . S
C578 O588 1.241 . S
C578 O589 1.273 . S
C579 O590 1.251 . S
C579 O591 1.268 . S
O580 Nd560 2.500 . S
O580 C562 1.258 . S
O581 Nd560 2.492 . S
O581 C562 1.239 . S
O582 Nd560 2.487 . S
O582 C569 1.241 . S
O583 Nd560 2.682 . S
O583 Nd561 2.414 . S
O583 C569 1.273 . S
O584 Nd560 2.410 . S
O584 C570 1.251 . S
O585 Nd561 2.424 . S
O585 C570 1.268 . S
O586 Nd561 2.500 . S
O586 C571 1.258 . S
O587 Nd561 2.492 . S
O587 C571 1.239 . S
O588 Nd561 2.487 . S
O588 C578 1.241 . S
O589 Nd560 2.414 . S
O589 Nd561 2.682 . S
O589 C578 1.273 . S
O590 Nd561 2.410 . S
O590 C579 1.251 . S
O591 Nd560 2.424 . S
O591 C579 1.268 . S
H592 C564 0.930 . S
H593 C565 0.929 . S
H594 C567 0.930 . S
H595 C568 0.929 . S
H596 C573 0.930 . S
H597 C574 0.929 . S
H598 C576 0.930 . S
H599 C577 0.929 . S
Nd600 C602 2.836 . S
Nd600 O620 2.500 . S
Nd600 O621 2.492 . S
Nd600 O622 2.487 . S
Nd600 O623 2.682 . S
Nd600 O624 2.410 . S
Nd600 O629 2.414 . S
Nd600 O631 2.424 . S
Nd601 C611 2.836 . S
Nd601 O623 2.414 . S
Nd601 O625 2.424 . S
Nd601 O626 2.500 . S
Nd601 O627 2.492 . S
Nd601 O628 2.487 . S
Nd601 O629 2.682 . S
Nd601 O630 2.410 . S
C602 Nd600 2.836 . S
C602 C603 1.498 . S
C602 O620 1.258 . S
C602 O621 1.239 . S
C603 C602 1.498 . S
C603 C604 1.366 . S
C603 C608 1.407 . S
C604 C603 1.366 . S
C604 C605 1.392 . S
C604 H632 0.930 . S
C605 C604 1.392 . S
C605 C606 1.398 . S
C605 H633 0.929 . S
C606 C605 1.398 . S
C606 C607 1.352 . S
C607 C606 1.352 . S
C607 C608 1.384 . S
C607 H634 0.930 . S
C608 C603 1.407 . S
C608 C607 1.384 . S
C608 H635 0.929 . S
C609 O622 1.241 . S
C609 O623 1.273 . S
C610 O624 1.251 . S
C610 O625 1.268 . S
C611 Nd601 2.836 . S
C611 C612 1.498 . S
C611 O626 1.258 . S
C611 O627 1.239 . S
C612 C611 1.498 . S
C612 C613 1.366 . S
C612 C617 1.407 . S
C613 C612 1.366 . S
C613 C614 1.392 . S
C613 H636 0.930 . S
C614 C613 1.392 . S
C614 C615 1.398 . S
C614 H637 0.929 . S
C615 C614 1.398 . S
C615 C616 1.352 . S
C616 C615 1.352 . S
C616 C617 1.384 . S
C616 H638 0.930 . S
C617 C612 1.407 . S
C617 C616 1.384 . S
C617 H639 0.929 . S
C618 O628 1.241 . S
C618 O629 1.273 . S
C619 O630 1.251 . S
C619 O631 1.268 . S
O620 Nd600 2.500 . S
O620 C602 1.258 . S
O621 Nd600 2.492 . S
O621 C602 1.239 . S
O622 Nd600 2.487 . S
O622 C609 1.241 . S
O623 Nd600 2.682 . S
O623 Nd601 2.414 . S
O623 C609 1.273 . S
O624 Nd600 2.410 . S
O624 C610 1.251 . S
O625 Nd601 2.424 . S
O625 C610 1.268 . S
O626 Nd601 2.500 . S
O626 C611 1.258 . S
O627 Nd601 2.492 . S
O627 C611 1.239 . S
O628 Nd601 2.487 . S
O628 C618 1.241 . S
O629 Nd600 2.414 . S
O629 Nd601 2.682 . S
O629 C618 1.273 . S
O630 Nd601 2.410 . S
O630 C619 1.251 . S
O631 Nd600 2.424 . S
O631 C619 1.268 . S
H632 C604 0.930 . S
H633 C605 0.929 . S
H634 C607 0.930 . S
H635 C608 0.929 . S
H636 C613 0.930 . S
H637 C614 0.929 . S
H638 C616 0.930 . S
H639 C617 0.929 . S
Nd640 C642 2.836 . S
Nd640 O660 2.500 . S
Nd640 O661 2.492 . S
Nd640 O662 2.487 . S
Nd640 O663 2.682 . S
Nd640 O664 2.410 . S
Nd640 O669 2.414 . S
Nd640 O671 2.424 . S
Nd641 C651 2.836 . S
Nd641 O663 2.414 . S
Nd641 O665 2.424 . S
Nd641 O666 2.500 . S
Nd641 O667 2.492 . S
Nd641 O668 2.487 . S
Nd641 O669 2.682 . S
Nd641 O670 2.410 . S
C642 Nd640 2.836 . S
C642 C643 1.498 . S
C642 O660 1.258 . S
C642 O661 1.239 . S
C643 C642 1.498 . S
C643 C644 1.366 . S
C643 C648 1.407 . S
C644 C643 1.366 . S
C644 C645 1.392 . S
C644 H672 0.930 . S
C645 C644 1.392 . S
C645 C646 1.398 . S
C645 H673 0.929 . S
C646 C645 1.398 . S
C646 C647 1.352 . S
C647 C646 1.352 . S
C647 C648 1.384 . S
C647 H674 0.930 . S
C648 C643 1.407 . S
C648 C647 1.384 . S
C648 H675 0.929 . S
C649 O662 1.241 . S
C649 O663 1.273 . S
C650 O664 1.251 . S
C650 O665 1.268 . S
C651 Nd641 2.836 . S
C651 C652 1.498 . S
C651 O666 1.258 . S
C651 O667 1.239 . S
C652 C651 1.498 . S
C652 C653 1.366 . S
C652 C657 1.407 . S
C653 C652 1.366 . S
C653 C654 1.392 . S
C653 H676 0.930 . S
C654 C653 1.392 . S
C654 C655 1.398 . S
C654 H677 0.929 . S
C655 C654 1.398 . S
C655 C656 1.352 . S
C656 C655 1.352 . S
C656 C657 1.384 . S
C656 H678 0.930 . S
C657 C652 1.407 . S
C657 C656 1.384 . S
C657 H679 0.929 . S
C658 O668 1.241 . S
C658 O669 1.273 . S
C659 O670 1.251 . S
C659 O671 1.268 . S
O660 Nd640 2.500 . S
O660 C642 1.258 . S
O661 Nd640 2.492 . S
O661 C642 1.239 . S
O662 Nd640 2.487 . S
O662 C649 1.241 . S
O663 Nd640 2.682 . S
O663 Nd641 2.414 . S
O663 C649 1.273 . S
O664 Nd640 2.410 . S
O664 C650 1.251 . S
O665 Nd641 2.424 . S
O665 C650 1.268 . S
O666 Nd641 2.500 . S
O666 C651 1.258 . S
O667 Nd641 2.492 . S
O667 C651 1.239 . S
O668 Nd641 2.487 . S
O668 C658 1.241 . S
O669 Nd640 2.414 . S
O669 Nd641 2.682 . S
O669 C658 1.273 . S
O670 Nd641 2.410 . S
O670 C659 1.251 . S
O671 Nd640 2.424 . S
O671 C659 1.268 . S
H672 C644 0.930 . S
H673 C645 0.929 . S
H674 C647 0.930 . S
H675 C648 0.929 . S
H676 C653 0.930 . S
H677 C654 0.929 . S
H678 C656 0.930 . S
H679 C657 0.929 . S
Nd680 C682 2.836 . S
Nd680 O700 2.500 . S
Nd680 O701 2.492 . S
Nd680 O702 2.487 . S
Nd680 O703 2.682 . S
Nd680 O704 2.410 . S
Nd680 O709 2.414 . S
Nd680 O711 2.424 . S
Nd681 C691 2.836 . S
Nd681 O703 2.414 . S
Nd681 O705 2.424 . S
Nd681 O706 2.500 . S
Nd681 O707 2.492 . S
Nd681 O708 2.487 . S
Nd681 O709 2.682 . S
Nd681 O710 2.410 . S
C682 Nd680 2.836 . S
C682 C683 1.498 . S
C682 O700 1.258 . S
C682 O701 1.239 . S
C683 C682 1.498 . S
C683 C684 1.366 . S
C683 C688 1.407 . S
C684 C683 1.366 . S
C684 C685 1.392 . S
C684 H712 0.930 . S
C685 C684 1.392 . S
C685 C686 1.398 . S
C685 H713 0.929 . S
C686 C685 1.398 . S
C686 C687 1.352 . S
C687 C686 1.352 . S
C687 C688 1.384 . S
C687 H714 0.930 . S
C688 C683 1.407 . S
C688 C687 1.384 . S
C688 H715 0.929 . S
C689 O702 1.241 . S
C689 O703 1.273 . S
C690 O704 1.251 . S
C690 O705 1.268 . S
C691 Nd681 2.836 . S
C691 C692 1.498 . S
C691 O706 1.258 . S
C691 O707 1.239 . S
C692 C691 1.498 . S
C692 C693 1.366 . S
C692 C697 1.407 . S
C693 C692 1.366 . S
C693 C694 1.392 . S
C693 H716 0.930 . S
C694 C693 1.392 . S
C694 C695 1.398 . S
C694 H717 0.929 . S
C695 C694 1.398 . S
C695 C696 1.352 . S
C696 C695 1.352 . S
C696 C697 1.384 . S
C696 H718 0.930 . S
C697 C692 1.407 . S
C697 C696 1.384 . S
C697 H719 0.929 . S
C698 O708 1.241 . S
C698 O709 1.273 . S
C699 O710 1.251 . S
C699 O711 1.268 . S
O700 Nd680 2.500 . S
O700 C682 1.258 . S
O701 Nd680 2.492 . S
O701 C682 1.239 . S
O702 Nd680 2.487 . S
O702 C689 1.241 . S
O703 Nd680 2.682 . S
O703 Nd681 2.414 . S
O703 C689 1.273 . S
O704 Nd680 2.410 . S
O704 C690 1.251 . S
O705 Nd681 2.424 . S
O705 C690 1.268 . S
O706 Nd681 2.500 . S
O706 C691 1.258 . S
O707 Nd681 2.492 . S
O707 C691 1.239 . S
O708 Nd681 2.487 . S
O708 C698 1.241 . S
O709 Nd680 2.414 . S
O709 Nd681 2.682 . S
O709 C698 1.273 . S
O710 Nd681 2.410 . S
O710 C699 1.251 . S
O711 Nd680 2.424 . S
O711 C699 1.268 . S
H712 C684 0.930 . S
H713 C685 0.929 . S
H714 C687 0.930 . S
H715 C688 0.929 . S
H716 C693 0.930 . S
H717 C694 0.929 . S
H718 C696 0.930 . S
H719 C697 0.929 . S
Nd720 C722 2.836 . S
Nd720 O740 2.500 . S
Nd720 O741 2.492 . S
Nd720 O742 2.487 . S
Nd720 O743 2.682 . S
Nd720 O744 2.410 . S
Nd720 O749 2.414 . S
Nd720 O751 2.424 . S
Nd721 C731 2.836 . S
Nd721 O743 2.414 . S
Nd721 O745 2.424 . S
Nd721 O746 2.500 . S
Nd721 O747 2.492 . S
Nd721 O748 2.487 . S
Nd721 O749 2.682 . S
Nd721 O750 2.410 . S
C722 Nd720 2.836 . S
C722 C723 1.498 . S
C722 O740 1.258 . S
C722 O741 1.239 . S
C723 C722 1.498 . S
C723 C724 1.366 . S
C723 C728 1.407 . S
C724 C723 1.366 . S
C724 C725 1.392 . S
C724 H752 0.930 . S
C725 C724 1.392 . S
C725 C726 1.398 . S
C725 H753 0.929 . S
C726 C725 1.398 . S
C726 C727 1.352 . S
C727 C726 1.352 . S
C727 C728 1.384 . S
C727 H754 0.930 . S
C728 C723 1.407 . S
C728 C727 1.384 . S
C728 H755 0.929 . S
C729 O742 1.241 . S
C729 O743 1.273 . S
C730 O744 1.251 . S
C730 O745 1.268 . S
C731 Nd721 2.836 . S
C731 C732 1.498 . S
C731 O746 1.258 . S
C731 O747 1.239 . S
C732 C731 1.498 . S
C732 C733 1.366 . S
C732 C737 1.407 . S
C733 C732 1.366 . S
C733 C734 1.392 . S
C733 H756 0.930 . S
C734 C733 1.392 . S
C734 C735 1.398 . S
C734 H757 0.929 . S
C735 C734 1.398 . S
C735 C736 1.352 . S
C736 C735 1.352 . S
C736 C737 1.384 . S
C736 H758 0.930 . S
C737 C732 1.407 . S
C737 C736 1.384 . S
C737 H759 0.929 . S
C738 O748 1.241 . S
C738 O749 1.273 . S
C739 O750 1.251 . S
C739 O751 1.268 . S
O740 Nd720 2.500 . S
O740 C722 1.258 . S
O741 Nd720 2.492 . S
O741 C722 1.239 . S
O742 Nd720 2.487 . S
O742 C729 1.241 . S
O743 Nd720 2.682 . S
O743 Nd721 2.414 . S
O743 C729 1.273 . S
O744 Nd720 2.410 . S
O744 C730 1.251 . S
O745 Nd721 2.424 . S
O745 C730 1.268 . S
O746 Nd721 2.500 . S
O746 C731 1.258 . S
O747 Nd721 2.492 . S
O747 C731 1.239 . S
O748 Nd721 2.487 . S
O748 C738 1.241 . S
O749 Nd720 2.414 . S
O749 Nd721 2.682 . S
O749 C738 1.273 . S
O750 Nd721 2.410 . S
O750 C739 1.251 . S
O751 Nd720 2.424 . S
O751 C739 1.268 . S
H752 C724 0.930 . S
H753 C725 0.929 . S
H754 C727 0.930 . S
H755 C728 0.929 . S
H756 C733 0.930 . S
H757 C734 0.929 . S
H758 C736 0.930 . S
H759 C737 0.929 . S
Nd760 C762 2.836 . S
Nd760 O780 2.500 . S
Nd760 O781 2.492 . S
Nd760 O782 2.487 . S
Nd760 O783 2.682 . S
Nd760 O784 2.410 . S
Nd760 O789 2.414 . S
Nd760 O791 2.424 . S
Nd761 C771 2.836 . S
Nd761 O783 2.414 . S
Nd761 O785 2.424 . S
Nd761 O786 2.500 . S
Nd761 O787 2.492 . S
Nd761 O788 2.487 . S
Nd761 O789 2.682 . S
Nd761 O790 2.410 . S
C762 Nd760 2.836 . S
C762 C763 1.498 . S
C762 O780 1.258 . S
C762 O781 1.239 . S
C763 C762 1.498 . S
C763 C764 1.366 . S
C763 C768 1.407 . S
C764 C763 1.366 . S
C764 C765 1.392 . S
C764 H792 0.930 . S
C765 C764 1.392 . S
C765 C766 1.398 . S
C765 H793 0.929 . S
C766 C765 1.398 . S
C766 C767 1.352 . S
C767 C766 1.352 . S
C767 C768 1.384 . S
C767 H794 0.930 . S
C768 C763 1.407 . S
C768 C767 1.384 . S
C768 H795 0.929 . S
C769 O782 1.241 . S
C769 O783 1.273 . S
C770 O784 1.251 . S
C770 O785 1.268 . S
C771 Nd761 2.836 . S
C771 C772 1.498 . S
C771 O786 1.258 . S
C771 O787 1.239 . S
C772 C771 1.498 . S
C772 C773 1.366 . S
C772 C777 1.407 . S
C773 C772 1.366 . S
C773 C774 1.392 . S
C773 H796 0.930 . S
C774 C773 1.392 . S
C774 C775 1.398 . S
C774 H797 0.929 . S
C775 C774 1.398 . S
C775 C776 1.352 . S
C776 C775 1.352 . S
C776 C777 1.384 . S
C776 H798 0.930 . S
C777 C772 1.407 . S
C777 C776 1.384 . S
C777 H799 0.929 . S
C778 O788 1.241 . S
C778 O789 1.273 . S
C779 O790 1.251 . S
C779 O791 1.268 . S
O780 Nd760 2.500 . S
O780 C762 1.258 . S
O781 Nd760 2.492 . S
O781 C762 1.239 . S
O782 Nd760 2.487 . S
O782 C769 1.241 . S
O783 Nd760 2.682 . S
O783 Nd761 2.414 . S
O783 C769 1.273 . S
O784 Nd760 2.410 . S
O784 C770 1.251 . S
O785 Nd761 2.424 . S
O785 C770 1.268 . S
O786 Nd761 2.500 . S
O786 C771 1.258 . S
O787 Nd761 2.492 . S
O787 C771 1.239 . S
O788 Nd761 2.487 . S
O788 C778 1.241 . S
O789 Nd760 2.414 . S
O789 Nd761 2.682 . S
O789 C778 1.273 . S
O790 Nd761 2.410 . S
O790 C779 1.251 . S
O791 Nd760 2.424 . S
O791 C779 1.268 . S
H792 C764 0.930 . S
H793 C765 0.929 . S
H794 C767 0.930 . S
H795 C768 0.929 . S
H796 C773 0.930 . S
H797 C774 0.929 . S
H798 C776 0.930 . S
H799 C777 0.929 . S
Nd800 C802 2.836 . S
Nd800 O820 2.500 . S
Nd800 O821 2.492 . S
Nd800 O822 2.487 . S
Nd800 O823 2.682 . S
Nd800 O824 2.410 . S
Nd800 O829 2.414 . S
Nd800 O831 2.424 . S
Nd801 C811 2.836 . S
Nd801 O823 2.414 . S
Nd801 O825 2.424 . S
Nd801 O826 2.500 . S
Nd801 O827 2.492 . S
Nd801 O828 2.487 . S
Nd801 O829 2.682 . S
Nd801 O830 2.410 . S
C802 Nd800 2.836 . S
C802 C803 1.498 . S
C802 O820 1.258 . S
C802 O821 1.239 . S
C803 C802 1.498 . S
C803 C804 1.366 . S
C803 C808 1.407 . S
C804 C803 1.366 . S
C804 C805 1.392 . S
C804 H832 0.930 . S
C805 C804 1.392 . S
C805 C806 1.398 . S
C805 H833 0.929 . S
C806 C805 1.398 . S
C806 C807 1.352 . S
C807 C806 1.352 . S
C807 C808 1.384 . S
C807 H834 0.930 . S
C808 C803 1.407 . S
C808 C807 1.384 . S
C808 H835 0.929 . S
C809 O822 1.241 . S
C809 O823 1.273 . S
C810 O824 1.251 . S
C810 O825 1.268 . S
C811 Nd801 2.836 . S
C811 C812 1.498 . S
C811 O826 1.258 . S
C811 O827 1.239 . S
C812 C811 1.498 . S
C812 C813 1.366 . S
C812 C817 1.407 . S
C813 C812 1.366 . S
C813 C814 1.392 . S
C813 H836 0.930 . S
C814 C813 1.392 . S
C814 C815 1.398 . S
C814 H837 0.929 . S
C815 C814 1.398 . S
C815 C816 1.352 . S
C816 C815 1.352 . S
C816 C817 1.384 . S
C816 H838 0.930 . S
C817 C812 1.407 . S
C817 C816 1.384 . S
C817 H839 0.929 . S
C818 O828 1.241 . S
C818 O829 1.273 . S
C819 O830 1.251 . S
C819 O831 1.268 . S
O820 Nd800 2.500 . S
O820 C802 1.258 . S
O821 Nd800 2.492 . S
O821 C802 1.239 . S
O822 Nd800 2.487 . S
O822 C809 1.241 . S
O823 Nd800 2.682 . S
O823 Nd801 2.414 . S
O823 C809 1.273 . S
O824 Nd800 2.410 . S
O824 C810 1.251 . S
O825 Nd801 2.424 . S
O825 C810 1.268 . S
O826 Nd801 2.500 . S
O826 C811 1.258 . S
O827 Nd801 2.492 . S
O827 C811 1.239 . S
O828 Nd801 2.487 . S
O828 C818 1.241 . S
O829 Nd800 2.414 . S
O829 Nd801 2.682 . S
O829 C818 1.273 . S
O830 Nd801 2.410 . S
O830 C819 1.251 . S
O831 Nd800 2.424 . S
O831 C819 1.268 . S
H832 C804 0.930 . S
H833 C805 0.929 . S
H834 C807 0.930 . S
H835 C808 0.929 . S
H836 C813 0.930 . S
H837 C814 0.929 . S
H838 C816 0.930 . S
H839 C817 0.929 . S
Nd840 C842 2.836 . S
Nd840 O860 2.500 . S
Nd840 O861 2.492 . S
Nd840 O862 2.487 . S
Nd840 O863 2.682 . S
Nd840 O864 2.410 . S
Nd840 O869 2.414 . S
Nd840 O871 2.424 . S
Nd841 C851 2.836 . S
Nd841 O863 2.414 . S
Nd841 O865 2.424 . S
Nd841 O866 2.500 . S
Nd841 O867 2.492 1_556 S
Nd841 O868 2.487 1_556 S
Nd841 O869 2.682 . S
Nd841 O870 2.410 . S
C842 Nd840 2.836 . S
C842 C843 1.498 . S
C842 O860 1.258 . S
C842 O861 1.239 . S
C843 C842 1.498 . S
C843 C844 1.366 . S
C843 C848 1.407 . S
C844 C843 1.366 . S
C844 C845 1.392 . S
C844 H872 0.930 . S
C845 C844 1.392 . S
C845 C846 1.398 . S
C845 H873 0.929 . S
C846 C845 1.398 . S
C846 C847 1.352 . S
C847 C846 1.352 . S
C847 C848 1.384 . S
C847 H874 0.930 . S
C848 C843 1.407 . S
C848 C847 1.384 . S
C848 H875 0.929 . S
C849 O862 1.241 . S
C849 O863 1.273 . S
C850 O864 1.251 . S
C850 O865 1.268 . S
C851 Nd841 2.836 . S
C851 C852 1.498 1_545 S
C851 O866 1.258 . S
C851 O867 1.239 1_556 S
C852 C851 1.498 1_565 S
C852 C853 1.366 . S
C852 C857 1.407 1_556 S
C853 C852 1.366 . S
C853 C854 1.392 . S
C853 H876 0.930 . S
C854 C853 1.392 . S
C854 C855 1.398 . S
C854 H877 0.929 . S
C855 C854 1.398 . S
C855 C856 1.352 1_556 S
C856 C855 1.352 1_554 S
C856 C857 1.384 . S
C856 H878 0.930 . S
C857 C852 1.407 1_554 S
C857 C856 1.384 . S
C857 H879 0.929 . S
C858 O868 1.241 . S
C858 O869 1.273 1_554 S
C859 O870 1.251 . S
C859 O871 1.268 . S
O860 Nd840 2.500 . S
O860 C842 1.258 . S
O861 Nd840 2.492 . S
O861 C842 1.239 . S
O862 Nd840 2.487 . S
O862 C849 1.241 . S
O863 Nd840 2.682 . S
O863 Nd841 2.414 . S
O863 C849 1.273 . S
O864 Nd840 2.410 . S
O864 C850 1.251 . S
O865 Nd841 2.424 . S
O865 C850 1.268 . S
O866 Nd841 2.500 . S
O866 C851 1.258 . S
O867 Nd841 2.492 1_554 S
O867 C851 1.239 1_554 S
O868 Nd841 2.487 1_554 S
O868 C858 1.241 . S
O869 Nd840 2.414 . S
O869 Nd841 2.682 . S
O869 C858 1.273 1_556 S
O870 Nd841 2.410 . S
O870 C859 1.251 . S
O871 Nd840 2.424 . S
O871 C859 1.268 . S
H872 C844 0.930 . S
H873 C845 0.929 . S
H874 C847 0.930 . S
H875 C848 0.929 . S
H876 C853 0.930 . S
H877 C854 0.929 . S
H878 C856 0.930 . S
H879 C857 0.929 . S
Nd880 C882 2.836 . S
Nd880 O900 2.500 . S
Nd880 O901 2.492 . S
Nd880 O902 2.487 . S
Nd880 O903 2.682 . S
Nd880 O904 2.410 . S
Nd880 O909 2.414 . S
Nd880 O911 2.424 . S
Nd881 C891 2.836 . S
Nd881 O903 2.414 . S
Nd881 O905 2.424 . S
Nd881 O906 2.500 . S
Nd881 O907 2.492 1_556 S
Nd881 O908 2.487 1_556 S
Nd881 O909 2.682 . S
Nd881 O910 2.410 . S
C882 Nd880 2.836 . S
C882 C883 1.498 . S
C882 O900 1.258 . S
C882 O901 1.239 . S
C883 C882 1.498 . S
C883 C884 1.366 . S
C883 C888 1.407 . S
C884 C883 1.366 . S
C884 C885 1.392 . S
C884 H912 0.930 . S
C885 C884 1.392 . S
C885 C886 1.398 . S
C885 H913 0.929 . S
C886 C885 1.398 . S
C886 C887 1.352 . S
C887 C886 1.352 . S
C887 C888 1.384 . S
C887 H914 0.930 . S
C888 C883 1.407 . S
C888 C887 1.384 . S
C888 H915 0.929 . S
C889 O902 1.241 . S
C889 O903 1.273 . S
C890 O904 1.251 . S
C890 O905 1.268 . S
C891 Nd881 2.836 . S
C891 C892 1.498 1_655 S
C891 O906 1.258 . S
C891 O907 1.239 1_556 S
C892 C891 1.498 1_455 S
C892 C893 1.366 . S
C892 C897 1.407 1_556 S
C893 C892 1.366 . S
C893 C894 1.392 . S
C893 H916 0.930 . S
C894 C893 1.392 . S
C894 C895 1.398 . S
C894 H917 0.929 . S
C895 C894 1.398 . S
C895 C896 1.352 1_556 S
C896 C895 1.352 1_554 S
C896 C897 1.384 . S
C896 H918 0.930 . S
C897 C892 1.407 1_554 S
C897 C896 1.384 . S
C897 H919 0.929 . S
C898 O908 1.241 . S
C898 O909 1.273 1_554 S
C899 O910 1.251 . S
C899 O911 1.268 . S
O900 Nd880 2.500 . S
O900 C882 1.258 . S
O901 Nd880 2.492 . S
O901 C882 1.239 . S
O902 Nd880 2.487 . S
O902 C889 1.241 . S
O903 Nd880 2.682 . S
O903 Nd881 2.414 . S
O903 C889 1.273 . S
O904 Nd880 2.410 . S
O904 C890 1.251 . S
O905 Nd881 2.424 . S
O905 C890 1.268 . S
O906 Nd881 2.500 . S
O906 C891 1.258 . S
O907 Nd881 2.492 1_554 S
O907 C891 1.239 1_554 S
O908 Nd881 2.487 1_554 S
O908 C898 1.241 . S
O909 Nd880 2.414 . S
O909 Nd881 2.682 . S
O909 C898 1.273 1_556 S
O910 Nd881 2.410 . S
O910 C899 1.251 . S
O911 Nd880 2.424 . S
O911 C899 1.268 . S
H912 C884 0.930 . S
H913 C885 0.929 . S
H914 C887 0.930 . S
H915 C888 0.929 . S
H916 C893 0.930 . S
H917 C894 0.929 . S
H918 C896 0.930 . S
H919 C897 0.929 . S
Nd920 C922 2.836 . S
Nd920 O940 2.500 . S
Nd920 O941 2.492 . S
Nd920 O942 2.487 . S
Nd920 O943 2.682 . S
Nd920 O944 2.410 . S
Nd920 O949 2.414 . S
Nd920 O951 2.424 . S
Nd921 C931 2.836 . S
Nd921 O943 2.414 . S
Nd921 O945 2.424 . S
Nd921 O946 2.500 . S
Nd921 O947 2.492 1_556 S
Nd921 O948 2.487 1_556 S
Nd921 O949 2.682 . S
Nd921 O950 2.410 . S
C922 Nd920 2.836 . S
C922 C923 1.498 . S
C922 O940 1.258 . S
C922 O941 1.239 . S
C923 C922 1.498 . S
C923 C924 1.366 . S
C923 C928 1.407 . S
C924 C923 1.366 . S
C924 C925 1.392 . S
C924 H952 0.930 . S
C925 C924 1.392 . S
C925 C926 1.398 . S
C925 H953 0.929 . S
C926 C925 1.398 . S
C926 C927 1.352 . S
C927 C926 1.352 . S
C927 C928 1.384 . S
C927 H954 0.930 . S
C928 C923 1.407 . S
C928 C927 1.384 . S
C928 H955 0.929 . S
C929 O942 1.241 . S
C929 O943 1.273 . S
C930 O944 1.251 . S
C930 O945 1.268 . S
C931 Nd921 2.836 . S
C931 C932 1.498 . S
C931 O946 1.258 . S
C931 O947 1.239 1_556 S
C932 C931 1.498 . S
C932 C933 1.366 . S
C932 C937 1.407 1_556 S
C933 C932 1.366 . S
C933 C934 1.392 . S
C933 H956 0.930 . S
C934 C933 1.392 . S
C934 C935 1.398 . S
C934 H957 0.929 . S
C935 C934 1.398 . S
C935 C936 1.352 1_556 S
C936 C935 1.352 1_554 S
C936 C937 1.384 . S
C936 H958 0.930 . S
C937 C932 1.407 1_554 S
C937 C936 1.384 . S
C937 H959 0.929 . S
C938 O948 1.241 . S
C938 O949 1.273 1_554 S
C939 O950 1.251 . S
C939 O951 1.268 . S
O940 Nd920 2.500 . S
O940 C922 1.258 . S
O941 Nd920 2.492 . S
O941 C922 1.239 . S
O942 Nd920 2.487 . S
O942 C929 1.241 . S
O943 Nd920 2.682 . S
O943 Nd921 2.414 . S
O943 C929 1.273 . S
O944 Nd920 2.410 . S
O944 C930 1.251 . S
O945 Nd921 2.424 . S
O945 C930 1.268 . S
O946 Nd921 2.500 . S
O946 C931 1.258 . S
O947 Nd921 2.492 1_554 S
O947 C931 1.239 1_554 S
O948 Nd921 2.487 1_554 S
O948 C938 1.241 . S
O949 Nd920 2.414 . S
O949 Nd921 2.682 . S
O949 C938 1.273 1_556 S
O950 Nd921 2.410 . S
O950 C939 1.251 . S
O951 Nd920 2.424 . S
O951 C939 1.268 . S
H952 C924 0.930 . S
H953 C925 0.929 . S
H954 C927 0.930 . S
H955 C928 0.929 . S
H956 C933 0.930 . S
H957 C934 0.929 . S
H958 C936 0.930 . S
H959 C937 0.929 . S
Nd960 C962 2.836 . S
Nd960 O980 2.500 . S
Nd960 O981 2.492 . S
Nd960 O982 2.487 . S
Nd960 O983 2.682 . S
Nd960 O984 2.410 . S
Nd960 O989 2.414 . S
Nd960 O991 2.424 . S
Nd961 C971 2.836 . S
Nd961 O983 2.414 . S
Nd961 O985 2.424 . S
Nd961 O986 2.500 . S
Nd961 O987 2.492 . S
Nd961 O988 2.487 . S
Nd961 O989 2.682 . S
Nd961 O990 2.410 . S
C962 Nd960 2.836 . S
C962 C963 1.498 . S
C962 O980 1.258 . S
C962 O981 1.239 . S
C963 C962 1.498 . S
C963 C964 1.366 . S
C963 C968 1.407 . S
C964 C963 1.366 . S
C964 C965 1.392 . S
C964 H992 0.930 . S
C965 C964 1.392 . S
C965 C966 1.398 . S
C965 H993 0.929 . S
C966 C965 1.398 . S
C966 C967 1.352 . S
C967 C966 1.352 . S
C967 C968 1.384 . S
C967 H994 0.930 . S
C968 C963 1.407 . S
C968 C967 1.384 . S
C968 H995 0.929 . S
C969 O982 1.241 . S
C969 O983 1.273 . S
C970 O984 1.251 . S
C970 O985 1.268 . S
C971 Nd961 2.836 . S
C971 C972 1.498 . S
C971 O986 1.258 . S
C971 O987 1.239 . S
C972 C971 1.498 . S
C972 C973 1.366 . S
C972 C977 1.407 . S
C973 C972 1.366 . S
C973 C974 1.392 . S
C973 H996 0.930 . S
C974 C973 1.392 . S
C974 C975 1.398 . S
C974 H997 0.929 . S
C975 C974 1.398 . S
C975 C976 1.352 . S
C976 C975 1.352 . S
C976 C977 1.384 . S
C976 H998 0.930 . S
C977 C972 1.407 . S
C977 C976 1.384 . S
C977 H999 0.929 . S
C978 O988 1.241 . S
C978 O989 1.273 . S
C979 O990 1.251 . S
C979 O991 1.268 . S
O980 Nd960 2.500 . S
O980 C962 1.258 . S
O981 Nd960 2.492 . S
O981 C962 1.239 . S
O982 Nd960 2.487 . S
O982 C969 1.241 . S
O983 Nd960 2.682 . S
O983 Nd961 2.414 . S
O983 C969 1.273 . S
O984 Nd960 2.410 . S
O984 C970 1.251 . S
O985 Nd961 2.424 . S
O985 C970 1.268 . S
O986 Nd961 2.500 . S
O986 C971 1.258 . S
O987 Nd961 2.492 . S
O987 C971 1.239 . S
O988 Nd961 2.487 . S
O988 C978 1.241 . S
O989 Nd960 2.414 . S
O989 Nd961 2.682 . S
O989 C978 1.273 . S
O990 Nd961 2.410 . S
O990 C979 1.251 . S
O991 Nd960 2.424 . S
O991 C979 1.268 . S
H992 C964 0.930 . S
H993 C965 0.929 . S
H994 C967 0.930 . S
H995 C968 0.929 . S
H996 C973 0.930 . S
H997 C974 0.929 . S
H998 C976 0.930 . S
H999 C977 0.929 . S
Nd1000 C1002 2.836 . S
Nd1000 O1020 2.500 . S
Nd1000 O1021 2.492 . S
Nd1000 O1022 2.487 . S
Nd1000 O1023 2.682 . S
Nd1000 O1024 2.410 . S
Nd1000 O1029 2.414 . S
Nd1000 O1031 2.424 . S
Nd1001 C1011 2.836 . S
Nd1001 O1023 2.414 . S
Nd1001 O1025 2.424 . S
Nd1001 O1026 2.500 . S
Nd1001 O1027 2.492 . S
Nd1001 O1028 2.487 . S
Nd1001 O1029 2.682 . S
Nd1001 O1030 2.410 . S
C1002 Nd1000 2.836 . S
C1002 C1003 1.498 . S
C1002 O1020 1.258 . S
C1002 O1021 1.239 . S
C1003 C1002 1.498 . S
C1003 C1004 1.366 . S
C1003 C1008 1.407 . S
C1004 C1003 1.366 . S
C1004 C1005 1.392 . S
C1004 H1032 0.930 . S
C1005 C1004 1.392 . S
C1005 C1006 1.398 . S
C1005 H1033 0.929 . S
C1006 C1005 1.398 . S
C1006 C1007 1.352 . S
C1007 C1006 1.352 . S
C1007 C1008 1.384 . S
C1007 H1034 0.930 . S
C1008 C1003 1.407 . S
C1008 C1007 1.384 . S
C1008 H1035 0.929 . S
C1009 O1022 1.241 . S
C1009 O1023 1.273 . S
C1010 O1024 1.251 . S
C1010 O1025 1.268 . S
C1011 Nd1001 2.836 . S
C1011 C1012 1.498 . S
C1011 O1026 1.258 . S
C1011 O1027 1.239 . S
C1012 C1011 1.498 . S
C1012 C1013 1.366 . S
C1012 C1017 1.407 . S
C1013 C1012 1.366 . S
C1013 C1014 1.392 . S
C1013 H1036 0.930 . S
C1014 C1013 1.392 . S
C1014 C1015 1.398 . S
C1014 H1037 0.929 . S
C1015 C1014 1.398 . S
C1015 C1016 1.352 . S
C1016 C1015 1.352 . S
C1016 C1017 1.384 . S
C1016 H1038 0.930 . S
C1017 C1012 1.407 . S
C1017 C1016 1.384 . S
C1017 H1039 0.929 . S
C1018 O1028 1.241 . S
C1018 O1029 1.273 . S
C1019 O1030 1.251 . S
C1019 O1031 1.268 . S
O1020 Nd1000 2.500 . S
O1020 C1002 1.258 . S
O1021 Nd1000 2.492 . S
O1021 C1002 1.239 . S
O1022 Nd1000 2.487 . S
O1022 C1009 1.241 . S
O1023 Nd1000 2.682 . S
O1023 Nd1001 2.414 . S
O1023 C1009 1.273 . S
O1024 Nd1000 2.410 . S
O1024 C1010 1.251 . S
O1025 Nd1001 2.424 . S
O1025 C1010 1.268 . S
O1026 Nd1001 2.500 . S
O1026 C1011 1.258 . S
O1027 Nd1001 2.492 . S
O1027 C1011 1.239 . S
O1028 Nd1001 2.487 . S
O1028 C1018 1.241 . S
O1029 Nd1000 2.414 . S
O1029 Nd1001 2.682 . S
O1029 C1018 1.273 . S
O1030 Nd1001 2.410 . S
O1030 C1019 1.251 . S
O1031 Nd1000 2.424 . S
O1031 C1019 1.268 . S
H1032 C1004 0.930 . S
H1033 C1005 0.929 . S
H1034 C1007 0.930 . S
H1035 C1008 0.929 . S
H1036 C1013 0.930 . S
H1037 C1014 0.929 . S
H1038 C1016 0.930 . S
H1039 C1017 0.929 . S
Nd1040 C1042 2.836 . S
Nd1040 O1060 2.500 . S
Nd1040 O1061 2.492 . S
Nd1040 O1062 2.487 . S
Nd1040 O1063 2.682 . S
Nd1040 O1064 2.410 . S
Nd1040 O1069 2.414 . S
Nd1040 O1071 2.424 . S
Nd1041 C1051 2.836 . S
Nd1041 O1063 2.414 . S
Nd1041 O1065 2.424 . S
Nd1041 O1066 2.500 . S
Nd1041 O1067 2.492 . S
Nd1041 O1068 2.487 . S
Nd1041 O1069 2.682 . S
Nd1041 O1070 2.410 . S
C1042 Nd1040 2.836 . S
C1042 C1043 1.498 . S
C1042 O1060 1.258 . S
C1042 O1061 1.239 . S
C1043 C1042 1.498 . S
C1043 C1044 1.366 . S
C1043 C1048 1.407 . S
C1044 C1043 1.366 . S
C1044 C1045 1.392 . S
C1044 H1072 0.930 . S
C1045 C1044 1.392 . S
C1045 C1046 1.398 . S
C1045 H1073 0.929 . S
C1046 C1045 1.398 . S
C1046 C1047 1.352 . S
C1047 C1046 1.352 . S
C1047 C1048 1.384 . S
C1047 H1074 0.930 . S
C1048 C1043 1.407 . S
C1048 C1047 1.384 . S
C1048 H1075 0.929 . S
C1049 O1062 1.241 . S
C1049 O1063 1.273 . S
C1050 O1064 1.251 . S
C1050 O1065 1.268 . S
C1051 Nd1041 2.836 . S
C1051 C1052 1.498 . S
C1051 O1066 1.258 . S
C1051 O1067 1.239 . S
C1052 C1051 1.498 . S
C1052 C1053 1.366 . S
C1052 C1057 1.407 . S
C1053 C1052 1.366 . S
C1053 C1054 1.392 . S
C1053 H1076 0.930 . S
C1054 C1053 1.392 . S
C1054 C1055 1.398 . S
C1054 H1077 0.929 . S
C1055 C1054 1.398 . S
C1055 C1056 1.352 . S
C1056 C1055 1.352 . S
C1056 C1057 1.384 . S
C1056 H1078 0.930 . S
C1057 C1052 1.407 . S
C1057 C1056 1.384 . S
C1057 H1079 0.929 . S
C1058 O1068 1.241 . S
C1058 O1069 1.273 . S
C1059 O1070 1.251 . S
C1059 O1071 1.268 . S
O1060 Nd1040 2.500 . S
O1060 C1042 1.258 . S
O1061 Nd1040 2.492 . S
O1061 C1042 1.239 . S
O1062 Nd1040 2.487 . S
O1062 C1049 1.241 . S
O1063 Nd1040 2.682 . S
O1063 Nd1041 2.414 . S
O1063 C1049 1.273 . S
O1064 Nd1040 2.410 . S
O1064 C1050 1.251 . S
O1065 Nd1041 2.424 . S
O1065 C1050 1.268 . S
O1066 Nd1041 2.500 . S
O1066 C1051 1.258 . S
O1067 Nd1041 2.492 . S
O1067 C1051 1.239 . S
O1068 Nd1041 2.487 . S
O1068 C1058 1.241 . S
O1069 Nd1040 2.414 . S
O1069 Nd1041 2.682 . S
O1069 C1058 1.273 . S
O1070 Nd1041 2.410 . S
O1070 C1059 1.251 . S
O1071 Nd1040 2.424 . S
O1071 C1059 1.268 . S
H1072 C1044 0.930 . S
H1073 C1045 0.929 . S
H1074 C1047 0.930 . S
H1075 C1048 0.929 . S
H1076 C1053 0.930 . S
H1077 C1054 0.929 . S
H1078 C1056 0.930 . S
H1079 C1057 0.929 . S
Nd1080 C1082 2.836 . S
Nd1080 O1100 2.500 . S
Nd1080 O1101 2.492 1_554 S
Nd1080 O1102 2.487 1_554 S
Nd1080 O1103 2.682 . S
Nd1080 O1104 2.410 . S
Nd1080 O1109 2.414 . S
Nd1080 O1111 2.424 . S
Nd1081 C1091 2.836 . S
Nd1081 O1103 2.414 . S
Nd1081 O1105 2.424 . S
Nd1081 O1106 2.500 . S
Nd1081 O1107 2.492 . S
Nd1081 O1108 2.487 . S
Nd1081 O1109 2.682 . S
Nd1081 O1110 2.410 . S
C1082 Nd1080 2.836 . S
C1082 C1083 1.498 1_565 S
C1082 O1100 1.258 . S
C1082 O1101 1.239 1_554 S
C1083 C1082 1.498 1_545 S
C1083 C1084 1.366 . S
C1083 C1088 1.407 1_554 S
C1084 C1083 1.366 . S
C1084 C1085 1.392 . S
C1084 H1112 0.930 . S
C1085 C1084 1.392 . S
C1085 C1086 1.398 . S
C1085 H1113 0.929 . S
C1086 C1085 1.398 . S
C1086 C1087 1.352 1_554 S
C1087 C1086 1.352 1_556 S
C1087 C1088 1.384 . S
C1087 H1114 0.930 . S
C1088 C1083 1.407 1_556 S
C1088 C1087 1.384 . S
C1088 H1115 0.929 . S
C1089 O1102 1.241 . S
C1089 O1103 1.273 1_556 S
C1090 O1104 1.251 . S
C1090 O1105 1.268 . S
C1091 Nd1081 2.836 . S
C1091 C1092 1.498 . S
C1091 O1106 1.258 . S
C1091 O1107 1.239 . S
C1092 C1091 1.498 . S
C1092 C1093 1.366 . S
C1092 C1097 1.407 . S
C1093 C1092 1.366 . S
C1093 C1094 1.392 . S
C1093 H1116 0.930 . S
C1094 C1093 1.392 . S
C1094 C1095 1.398 . S
C1094 H1117 0.929 . S
C1095 C1094 1.398 . S
C1095 C1096 1.352 . S
C1096 C1095 1.352 . S
C1096 C1097 1.384 . S
C1096 H1118 0.930 . S
C1097 C1092 1.407 . S
C1097 C1096 1.384 . S
C1097 H1119 0.929 . S
C1098 O1108 1.241 . S
C1098 O1109 1.273 . S
C1099 O1110 1.251 . S
C1099 O1111 1.268 . S
O1100 Nd1080 2.500 . S
O1100 C1082 1.258 . S
O1101 Nd1080 2.492 1_556 S
O1101 C1082 1.239 1_556 S
O1102 Nd1080 2.487 1_556 S
O1102 C1089 1.241 . S
O1103 Nd1080 2.682 . S
O1103 Nd1081 2.414 . S
O1103 C1089 1.273 1_554 S
O1104 Nd1080 2.410 . S
O1104 C1090 1.251 . S
O1105 Nd1081 2.424 . S
O1105 C1090 1.268 . S
O1106 Nd1081 2.500 . S
O1106 C1091 1.258 . S
O1107 Nd1081 2.492 . S
O1107 C1091 1.239 . S
O1108 Nd1081 2.487 . S
O1108 C1098 1.241 . S
O1109 Nd1080 2.414 . S
O1109 Nd1081 2.682 . S
O1109 C1098 1.273 . S
O1110 Nd1081 2.410 . S
O1110 C1099 1.251 . S
O1111 Nd1080 2.424 . S
O1111 C1099 1.268 . S
H1112 C1084 0.930 . S
H1113 C1085 0.929 . S
H1114 C1087 0.930 . S
H1115 C1088 0.929 . S
H1116 C1093 0.930 . S
H1117 C1094 0.929 . S
H1118 C1096 0.930 . S
H1119 C1097 0.929 . S
Nd1120 C1122 2.836 . S
Nd1120 O1140 2.500 . S
Nd1120 O1141 2.492 1_554 S
Nd1120 O1142 2.487 1_554 S
Nd1120 O1143 2.682 . S
Nd1120 O1144 2.410 . S
Nd1120 O1149 2.414 . S
Nd1120 O1151 2.424 . S
Nd1121 C1131 2.836 . S
Nd1121 O1143 2.414 . S
Nd1121 O1145 2.424 . S
Nd1121 O1146 2.500 . S
Nd1121 O1147 2.492 . S
Nd1121 O1148 2.487 . S
Nd1121 O1149 2.682 . S
Nd1121 O1150 2.410 . S
C1122 Nd1120 2.836 . S
C1122 C1123 1.498 1_455 S
C1122 O1140 1.258 . S
C1122 O1141 1.239 1_554 S
C1123 C1122 1.498 1_655 S
C1123 C1124 1.366 . S
C1123 C1128 1.407 1_554 S
C1124 C1123 1.366 . S
C1124 C1125 1.392 . S
C1124 H1152 0.930 . S
C1125 C1124 1.392 . S
C1125 C1126 1.398 . S
C1125 H1153 0.929 . S
C1126 C1125 1.398 . S
C1126 C1127 1.352 1_554 S
C1127 C1126 1.352 1_556 S
C1127 C1128 1.384 . S
C1127 H1154 0.930 . S
C1128 C1123 1.407 1_556 S
C1128 C1127 1.384 . S
C1128 H1155 0.929 . S
C1129 O1142 1.241 . S
C1129 O1143 1.273 1_556 S
C1130 O1144 1.251 . S
C1130 O1145 1.268 . S
C1131 Nd1121 2.836 . S
C1131 C1132 1.498 . S
C1131 O1146 1.258 . S
C1131 O1147 1.239 . S
C1132 C1131 1.498 . S
C1132 C1133 1.366 . S
C1132 C1137 1.407 . S
C1133 C1132 1.366 . S
C1133 C1134 1.392 . S
C1133 H1156 0.930 . S
C1134 C1133 1.392 . S
C1134 C1135 1.398 . S
C1134 H1157 0.929 . S
C1135 C1134 1.398 . S
C1135 C1136 1.352 . S
C1136 C1135 1.352 . S
C1136 C1137 1.384 . S
C1136 H1158 0.930 . S
C1137 C1132 1.407 . S
C1137 C1136 1.384 . S
C1137 H1159 0.929 . S
C1138 O1148 1.241 . S
C1138 O1149 1.273 . S
C1139 O1150 1.251 . S
C1139 O1151 1.268 . S
O1140 Nd1120 2.500 . S
O1140 C1122 1.258 . S
O1141 Nd1120 2.492 1_556 S
O1141 C1122 1.239 1_556 S
O1142 Nd1120 2.487 1_556 S
O1142 C1129 1.241 . S
O1143 Nd1120 2.682 . S
O1143 Nd1121 2.414 . S
O1143 C1129 1.273 1_554 S
O1144 Nd1120 2.410 . S
O1144 C1130 1.251 . S
O1145 Nd1121 2.424 . S
O1145 C1130 1.268 . S
O1146 Nd1121 2.500 . S
O1146 C1131 1.258 . S
O1147 Nd1121 2.492 . S
O1147 C1131 1.239 . S
O1148 Nd1121 2.487 . S
O1148 C1138 1.241 . S
O1149 Nd1120 2.414 . S
O1149 Nd1121 2.682 . S
O1149 C1138 1.273 . S
O1150 Nd1121 2.410 . S
O1150 C1139 1.251 . S
O1151 Nd1120 2.424 . S
O1151 C1139 1.268 . S
H1152 C1124 0.930 . S
H1153 C1125 0.929 . S
H1154 C1127 0.930 . S
H1155 C1128 0.929 . S
H1156 C1133 0.930 . S
H1157 C1134 0.929 . S
H1158 C1136 0.930 . S
H1159 C1137 0.929 . S
Nd1160 C1162 2.836 . S
Nd1160 O1180 2.500 . S
Nd1160 O1181 2.492 1_554 S
Nd1160 O1182 2.487 1_554 S
Nd1160 O1183 2.682 . S
Nd1160 O1184 2.410 . S
Nd1160 O1189 2.414 . S
Nd1160 O1191 2.424 . S
Nd1161 C1171 2.836 . S
Nd1161 O1183 2.414 . S
Nd1161 O1185 2.424 . S
Nd1161 O1186 2.500 . S
Nd1161 O1187 2.492 . S
Nd1161 O1188 2.487 . S
Nd1161 O1189 2.682 . S
Nd1161 O1190 2.410 . S
C1162 Nd1160 2.836 . S
C1162 C1163 1.498 . S
C1162 O1180 1.258 . S
C1162 O1181 1.239 1_554 S
C1163 C1162 1.498 . S
C1163 C1164 1.366 . S
C1163 C1168 1.407 1_554 S
C1164 C1163 1.366 . S
C1164 C1165 1.392 . S
C1164 H1192 0.930 . S
C1165 C1164 1.392 . S
C1165 C1166 1.398 . S
C1165 H1193 0.929 . S
C1166 C1165 1.398 . S
C1166 C1167 1.352 1_554 S
C1167 C1166 1.352 1_556 S
C1167 C1168 1.384 . S
C1167 H1194 0.930 . S
C1168 C1163 1.407 1_556 S
C1168 C1167 1.384 . S
C1168 H1195 0.929 . S
C1169 O1182 1.241 . S
C1169 O1183 1.273 1_556 S
C1170 O1184 1.251 . S
C1170 O1185 1.268 . S
C1171 Nd1161 2.836 . S
C1171 C1172 1.498 . S
C1171 O1186 1.258 . S
C1171 O1187 1.239 . S
C1172 C1171 1.498 . S
C1172 C1173 1.366 . S
C1172 C1177 1.407 . S
C1173 C1172 1.366 . S
C1173 C1174 1.392 . S
C1173 H1196 0.930 . S
C1174 C1173 1.392 . S
C1174 C1175 1.398 . S
C1174 H1197 0.929 . S
C1175 C1174 1.398 . S
C1175 C1176 1.352 . S
C1176 C1175 1.352 . S
C1176 C1177 1.384 . S
C1176 H1198 0.930 . S
C1177 C1172 1.407 . S
C1177 C1176 1.384 . S
C1177 H1199 0.929 . S
C1178 O1188 1.241 . S
C1178 O1189 1.273 . S
C1179 O1190 1.251 . S
C1179 O1191 1.268 . S
O1180 Nd1160 2.500 . S
O1180 C1162 1.258 . S
O1181 Nd1160 2.492 1_556 S
O1181 C1162 1.239 1_556 S
O1182 Nd1160 2.487 1_556 S
O1182 C1169 1.241 . S
O1183 Nd1160 2.682 . S
O1183 Nd1161 2.414 . S
O1183 C1169 1.273 1_554 S
O1184 Nd1160 2.410 . S
O1184 C1170 1.251 . S
O1185 Nd1161 2.424 . S
O1185 C1170 1.268 . S
O1186 Nd1161 2.500 . S
O1186 C1171 1.258 . S
O1187 Nd1161 2.492 . S
O1187 C1171 1.239 . S
O1188 Nd1161 2.487 . S
O1188 C1178 1.241 . S
O1189 Nd1160 2.414 . S
O1189 Nd1161 2.682 . S
O1189 C1178 1.273 . S
O1190 Nd1161 2.410 . S
O1190 C1179 1.251 . S
O1191 Nd1160 2.424 . S
O1191 C1179 1.268 . S
H1192 C1164 0.930 . S
H1193 C1165 0.929 . S
H1194 C1167 0.930 . S
H1195 C1168 0.929 . S
H1196 C1173 0.930 . S
H1197 C1174 0.929 . S
H1198 C1176 0.930 . S
H1199 C1177 0.929 . S
Nd1200 C1202 2.836 . S
Nd1200 O1220 2.500 . S
Nd1200 O1221 2.492 . S
Nd1200 O1222 2.487 . S
Nd1200 O1223 2.682 . S
Nd1200 O1224 2.410 . S
Nd1200 O1229 2.414 . S
Nd1200 O1231 2.424 . S
Nd1201 C1211 2.836 . S
Nd1201 O1223 2.414 . S
Nd1201 O1225 2.424 . S
Nd1201 O1226 2.500 . S
Nd1201 O1227 2.492 . S
Nd1201 O1228 2.487 . S
Nd1201 O1229 2.682 . S
Nd1201 O1230 2.410 . S
C1202 Nd1200 2.836 . S
C1202 C1203 1.498 . S
C1202 O1220 1.258 . S
C1202 O1221 1.239 . S
C1203 C1202 1.498 . S
C1203 C1204 1.366 . S
C1203 C1208 1.407 . S
C1204 C1203 1.366 . S
C1204 C1205 1.392 . S
C1204 H1232 0.930 . S
C1205 C1204 1.392 . S
C1205 C1206 1.398 . S
C1205 H1233 0.929 . S
C1206 C1205 1.398 . S
C1206 C1207 1.352 . S
C1207 C1206 1.352 . S
C1207 C1208 1.384 . S
C1207 H1234 0.930 . S
C1208 C1203 1.407 . S
C1208 C1207 1.384 . S
C1208 H1235 0.929 . S
C1209 O1222 1.241 . S
C1209 O1223 1.273 . S
C1210 O1224 1.251 . S
C1210 O1225 1.268 . S
C1211 Nd1201 2.836 . S
C1211 C1212 1.498 1_455 S
C1211 O1226 1.258 . S
C1211 O1227 1.239 . S
C1212 C1211 1.498 1_655 S
C1212 C1213 1.366 . S
C1212 C1217 1.407 . S
C1213 C1212 1.366 . S
C1213 C1214 1.392 . S
C1213 H1236 0.930 . S
C1214 C1213 1.392 . S
C1214 C1215 1.398 . S
C1214 H1237 0.929 . S
C1215 C1214 1.398 . S
C1215 C1216 1.352 . S
C1216 C1215 1.352 . S
C1216 C1217 1.384 . S
C1216 H1238 0.930 . S
C1217 C1212 1.407 . S
C1217 C1216 1.384 . S
C1217 H1239 0.929 . S
C1218 O1228 1.241 . S
C1218 O1229 1.273 . S
C1219 O1230 1.251 . S
C1219 O1231 1.268 . S
O1220 Nd1200 2.500 . S
O1220 C1202 1.258 . S
O1221 Nd1200 2.492 . S
O1221 C1202 1.239 . S
O1222 Nd1200 2.487 . S
O1222 C1209 1.241 . S
O1223 Nd1200 2.682 . S
O1223 Nd1201 2.414 . S
O1223 C1209 1.273 . S
O1224 Nd1200 2.410 . S
O1224 C1210 1.251 . S
O1225 Nd1201 2.424 . S
O1225 C1210 1.268 . S
O1226 Nd1201 2.500 . S
O1226 C1211 1.258 . S
O1227 Nd1201 2.492 . S
O1227 C1211 1.239 . S
O1228 Nd1201 2.487 . S
O1228 C1218 1.241 . S
O1229 Nd1200 2.414 . S
O1229 Nd1201 2.682 . S
O1229 C1218 1.273 . S
O1230 Nd1201 2.410 . S
O1230 C1219 1.251 . S
O1231 Nd1200 2.424 . S
O1231 C1219 1.268 . S
H1232 C1204 0.930 . S
H1233 C1205 0.929 . S
H1234 C1207 0.930 . S
H1235 C1208 0.929 . S
H1236 C1213 0.930 . S
H1237 C1214 0.929 . S
H1238 C1216 0.930 . S
H1239 C1217 0.929 . S
Nd1240 C1242 2.836 . S
Nd1240 O1260 2.500 . S
Nd1240 O1261 2.492 . S
Nd1240 O1262 2.487 . S
Nd1240 O1263 2.682 . S
Nd1240 O1264 2.410 . S
Nd1240 O1269 2.414 . S
Nd1240 O1271 2.424 . S
Nd1241 C1251 2.836 . S
Nd1241 O1263 2.414 . S
Nd1241 O1265 2.424 . S
Nd1241 O1266 2.500 . S
Nd1241 O1267 2.492 . S
Nd1241 O1268 2.487 . S
Nd1241 O1269 2.682 . S
Nd1241 O1270 2.410 . S
C1242 Nd1240 2.836 . S
C1242 C1243 1.498 . S
C1242 O1260 1.258 . S
C1242 O1261 1.239 . S
C1243 C1242 1.498 . S
C1243 C1244 1.366 . S
C1243 C1248 1.407 . S
C1244 C1243 1.366 . S
C1244 C1245 1.392 . S
C1244 H1272 0.930 . S
C1245 C1244 1.392 . S
C1245 C1246 1.398 . S
C1245 H1273 0.929 . S
C1246 C1245 1.398 . S
C1246 C1247 1.352 . S
C1247 C1246 1.352 . S
C1247 C1248 1.384 . S
C1247 H1274 0.930 . S
C1248 C1243 1.407 . S
C1248 C1247 1.384 . S
C1248 H1275 0.929 . S
C1249 O1262 1.241 . S
C1249 O1263 1.273 . S
C1250 O1264 1.251 . S
C1250 O1265 1.268 . S
C1251 Nd1241 2.836 . S
C1251 C1252 1.498 . S
C1251 O1266 1.258 . S
C1251 O1267 1.239 . S
C1252 C1251 1.498 . S
C1252 C1253 1.366 . S
C1252 C1257 1.407 . S
C1253 C1252 1.366 . S
C1253 C1254 1.392 . S
C1253 H1276 0.930 . S
C1254 C1253 1.392 . S
C1254 C1255 1.398 . S
C1254 H1277 0.929 . S
C1255 C1254 1.398 . S
C1255 C1256 1.352 . S
C1256 C1255 1.352 . S
C1256 C1257 1.384 . S
C1256 H1278 0.930 . S
C1257 C1252 1.407 . S
C1257 C1256 1.384 . S
C1257 H1279 0.929 . S
C1258 O1268 1.241 . S
C1258 O1269 1.273 . S
C1259 O1270 1.251 . S
C1259 O1271 1.268 . S
O1260 Nd1240 2.500 . S
O1260 C1242 1.258 . S
O1261 Nd1240 2.492 . S
O1261 C1242 1.239 . S
O1262 Nd1240 2.487 . S
O1262 C1249 1.241 . S
O1263 Nd1240 2.682 . S
O1263 Nd1241 2.414 . S
O1263 C1249 1.273 . S
O1264 Nd1240 2.410 . S
O1264 C1250 1.251 . S
O1265 Nd1241 2.424 . S
O1265 C1250 1.268 . S
O1266 Nd1241 2.500 . S
O1266 C1251 1.258 . S
O1267 Nd1241 2.492 . S
O1267 C1251 1.239 . S
O1268 Nd1241 2.487 . S
O1268 C1258 1.241 . S
O1269 Nd1240 2.414 . S
O1269 Nd1241 2.682 . S
O1269 C1258 1.273 . S
O1270 Nd1241 2.410 . S
O1270 C1259 1.251 . S
O1271 Nd1240 2.424 . S
O1271 C1259 1.268 . S
H1272 C1244 0.930 . S
H1273 C1245 0.929 . S
H1274 C1247 0.930 . S
H1275 C1248 0.929 . S
H1276 C1253 0.930 . S
H1277 C1254 0.929 . S
H1278 C1256 0.930 . S
H1279 C1257 0.929 . S
Nd1280 C1282 2.836 . S
Nd1280 O1300 2.500 . S
Nd1280 O1301 2.492 . S
Nd1280 O1302 2.487 . S
Nd1280 O1303 2.682 . S
Nd1280 O1304 2.410 . S
Nd1280 O1309 2.414 . S
Nd1280 O1311 2.424 . S
Nd1281 C1291 2.836 . S
Nd1281 O1303 2.414 . S
Nd1281 O1305 2.424 . S
Nd1281 O1306 2.500 . S
Nd1281 O1307 2.492 . S
Nd1281 O1308 2.487 . S
Nd1281 O1309 2.682 . S
Nd1281 O1310 2.410 . S
C1282 Nd1280 2.836 . S
C1282 C1283 1.498 . S
C1282 O1300 1.258 . S
C1282 O1301 1.239 . S
C1283 C1282 1.498 . S
C1283 C1284 1.366 . S
C1283 C1288 1.407 . S
C1284 C1283 1.366 . S
C1284 C1285 1.392 . S
C1284 H1312 0.930 . S
C1285 C1284 1.392 . S
C1285 C1286 1.398 . S
C1285 H1313 0.929 . S
C1286 C1285 1.398 . S
C1286 C1287 1.352 . S
C1287 C1286 1.352 . S
C1287 C1288 1.384 . S
C1287 H1314 0.930 . S
C1288 C1283 1.407 . S
C1288 C1287 1.384 . S
C1288 H1315 0.929 . S
C1289 O1302 1.241 . S
C1289 O1303 1.273 . S
C1290 O1304 1.251 . S
C1290 O1305 1.268 . S
C1291 Nd1281 2.836 . S
C1291 C1292 1.498 1_565 S
C1291 O1306 1.258 . S
C1291 O1307 1.239 . S
C1292 C1291 1.498 1_545 S
C1292 C1293 1.366 . S
C1292 C1297 1.407 . S
C1293 C1292 1.366 . S
C1293 C1294 1.392 . S
C1293 H1316 0.930 . S
C1294 C1293 1.392 . S
C1294 C1295 1.398 . S
C1294 H1317 0.929 . S
C1295 C1294 1.398 . S
C1295 C1296 1.352 . S
C1296 C1295 1.352 . S
C1296 C1297 1.384 . S
C1296 H1318 0.930 . S
C1297 C1292 1.407 . S
C1297 C1296 1.384 . S
C1297 H1319 0.929 . S
C1298 O1308 1.241 . S
C1298 O1309 1.273 . S
C1299 O1310 1.251 . S
C1299 O1311 1.268 . S
O1300 Nd1280 2.500 . S
O1300 C1282 1.258 . S
O1301 Nd1280 2.492 . S
O1301 C1282 1.239 . S
O1302 Nd1280 2.487 . S
O1302 C1289 1.241 . S
O1303 Nd1280 2.682 . S
O1303 Nd1281 2.414 . S
O1303 C1289 1.273 . S
O1304 Nd1280 2.410 . S
O1304 C1290 1.251 . S
O1305 Nd1281 2.424 . S
O1305 C1290 1.268 . S
O1306 Nd1281 2.500 . S
O1306 C1291 1.258 . S
O1307 Nd1281 2.492 . S
O1307 C1291 1.239 . S
O1308 Nd1281 2.487 . S
O1308 C1298 1.241 . S
O1309 Nd1280 2.414 . S
O1309 Nd1281 2.682 . S
O1309 C1298 1.273 . S
O1310 Nd1281 2.410 . S
O1310 C1299 1.251 . S
O1311 Nd1280 2.424 . S
O1311 C1299 1.268 . S
H1312 C1284 0.930 . S
H1313 C1285 0.929 . S
H1314 C1287 0.930 . S
H1315 C1288 0.929 . S
H1316 C1293 0.930 . S
H1317 C1294 0.929 . S
H1318 C1296 0.930 . S
H1319 C1297 0.929 . S
Nd1320 C1322 2.836 . S
Nd1320 O1340 2.500 . S
Nd1320 O1341 2.492 . S
Nd1320 O1342 2.487 . S
Nd1320 O1343 2.682 . S
Nd1320 O1344 2.410 . S
Nd1320 O1349 2.414 . S
Nd1320 O1351 2.424 . S
Nd1321 C1331 2.836 . S
Nd1321 O1343 2.414 . S
Nd1321 O1345 2.424 . S
Nd1321 O1346 2.500 . S
Nd1321 O1347 2.492 . S
Nd1321 O1348 2.487 . S
Nd1321 O1349 2.682 . S
Nd1321 O1350 2.410 . S
C1322 Nd1320 2.836 . S
C1322 C1323 1.498 . S
C1322 O1340 1.258 . S
C1322 O1341 1.239 . S
C1323 C1322 1.498 . S
C1323 C1324 1.366 . S
C1323 C1328 1.407 . S
C1324 C1323 1.366 . S
C1324 C1325 1.392 . S
C1324 H1352 0.930 . S
C1325 C1324 1.392 . S
C1325 C1326 1.398 . S
C1325 H1353 0.929 . S
C1326 C1325 1.398 . S
C1326 C1327 1.352 . S
C1327 C1326 1.352 . S
C1327 C1328 1.384 . S
C1327 H1354 0.930 . S
C1328 C1323 1.407 . S
C1328 C1327 1.384 . S
C1328 H1355 0.929 . S
C1329 O1342 1.241 . S
C1329 O1343 1.273 . S
C1330 O1344 1.251 . S
C1330 O1345 1.268 . S
C1331 Nd1321 2.836 . S
C1331 C1332 1.498 . S
C1331 O1346 1.258 . S
C1331 O1347 1.239 . S
C1332 C1331 1.498 . S
C1332 C1333 1.366 . S
C1332 C1337 1.407 . S
C1333 C1332 1.366 . S
C1333 C1334 1.392 . S
C1333 H1356 0.930 . S
C1334 C1333 1.392 . S
C1334 C1335 1.398 . S
C1334 H1357 0.929 . S
C1335 C1334 1.398 . S
C1335 C1336 1.352 . S
C1336 C1335 1.352 . S
C1336 C1337 1.384 . S
C1336 H1358 0.930 . S
C1337 C1332 1.407 . S
C1337 C1336 1.384 . S
C1337 H1359 0.929 . S
C1338 O1348 1.241 . S
C1338 O1349 1.273 . S
C1339 O1350 1.251 . S
C1339 O1351 1.268 . S
O1340 Nd1320 2.500 . S
O1340 C1322 1.258 . S
O1341 Nd1320 2.492 . S
O1341 C1322 1.239 . S
O1342 Nd1320 2.487 . S
O1342 C1329 1.241 . S
O1343 Nd1320 2.682 . S
O1343 Nd1321 2.414 . S
O1343 C1329 1.273 . S
O1344 Nd1320 2.410 . S
O1344 C1330 1.251 . S
O1345 Nd1321 2.424 . S
O1345 C1330 1.268 . S
O1346 Nd1321 2.500 . S
O1346 C1331 1.258 . S
O1347 Nd1321 2.492 . S
O1347 C1331 1.239 . S
O1348 Nd1321 2.487 . S
O1348 C1338 1.241 . S
O1349 Nd1320 2.414 . S
O1349 Nd1321 2.682 . S
O1349 C1338 1.273 . S
O1350 Nd1321 2.410 . S
O1350 C1339 1.251 . S
O1351 Nd1320 2.424 . S
O1351 C1339 1.268 . S
H1352 C1324 0.930 . S
H1353 C1325 0.929 . S
H1354 C1327 0.930 . S
H1355 C1328 0.929 . S
H1356 C1333 0.930 . S
H1357 C1334 0.929 . S
H1358 C1336 0.930 . S
H1359 C1337 0.929 . S
Nd1360 C1362 2.836 . S
Nd1360 O1380 2.500 . S
Nd1360 O1381 2.492 . S
Nd1360 O1382 2.487 . S
Nd1360 O1383 2.682 . S
Nd1360 O1384 2.410 . S
Nd1360 O1389 2.414 . S
Nd1360 O1391 2.424 . S
Nd1361 C1371 2.836 . S
Nd1361 O1383 2.414 . S
Nd1361 O1385 2.424 . S
Nd1361 O1386 2.500 . S
Nd1361 O1387 2.492 . S
Nd1361 O1388 2.487 . S
Nd1361 O1389 2.682 . S
Nd1361 O1390 2.410 . S
C1362 Nd1360 2.836 . S
C1362 C1363 1.498 . S
C1362 O1380 1.258 . S
C1362 O1381 1.239 . S
C1363 C1362 1.498 . S
C1363 C1364 1.366 . S
C1363 C1368 1.407 . S
C1364 C1363 1.366 . S
C1364 C1365 1.392 . S
C1364 H1392 0.930 . S
C1365 C1364 1.392 . S
C1365 C1366 1.398 . S
C1365 H1393 0.929 . S
C1366 C1365 1.398 . S
C1366 C1367 1.352 . S
C1367 C1366 1.352 . S
C1367 C1368 1.384 . S
C1367 H1394 0.930 . S
C1368 C1363 1.407 . S
C1368 C1367 1.384 . S
C1368 H1395 0.929 . S
C1369 O1382 1.241 . S
C1369 O1383 1.273 . S
C1370 O1384 1.251 . S
C1370 O1385 1.268 . S
C1371 Nd1361 2.836 . S
C1371 C1372 1.498 . S
C1371 O1386 1.258 . S
C1371 O1387 1.239 . S
C1372 C1371 1.498 . S
C1372 C1373 1.366 . S
C1372 C1377 1.407 . S
C1373 C1372 1.366 . S
C1373 C1374 1.392 . S
C1373 H1396 0.930 . S
C1374 C1373 1.392 . S
C1374 C1375 1.398 . S
C1374 H1397 0.929 . S
C1375 C1374 1.398 . S
C1375 C1376 1.352 . S
C1376 C1375 1.352 . S
C1376 C1377 1.384 . S
C1376 H1398 0.930 . S
C1377 C1372 1.407 . S
C1377 C1376 1.384 . S
C1377 H1399 0.929 . S
C1378 O1388 1.241 . S
C1378 O1389 1.273 . S
C1379 O1390 1.251 . S
C1379 O1391 1.268 . S
O1380 Nd1360 2.500 . S
O1380 C1362 1.258 . S
O1381 Nd1360 2.492 . S
O1381 C1362 1.239 . S
O1382 Nd1360 2.487 . S
O1382 C1369 1.241 . S
O1383 Nd1360 2.682 . S
O1383 Nd1361 2.414 . S
O1383 C1369 1.273 . S
O1384 Nd1360 2.410 . S
O1384 C1370 1.251 . S
O1385 Nd1361 2.424 . S
O1385 C1370 1.268 . S
O1386 Nd1361 2.500 . S
O1386 C1371 1.258 . S
O1387 Nd1361 2.492 . S
O1387 C1371 1.239 . S
O1388 Nd1361 2.487 . S
O1388 C1378 1.241 . S
O1389 Nd1360 2.414 . S
O1389 Nd1361 2.682 . S
O1389 C1378 1.273 . S
O1390 Nd1361 2.410 . S
O1390 C1379 1.251 . S
O1391 Nd1360 2.424 . S
O1391 C1379 1.268 . S
H1392 C1364 0.930 . S
H1393 C1365 0.929 . S
H1394 C1367 0.930 . S
H1395 C1368 0.929 . S
H1396 C1373 0.930 . S
H1397 C1374 0.929 . S
H1398 C1376 0.930 . S
H1399 C1377 0.929 . S
Nd1400 C1402 2.836 . S
Nd1400 O1420 2.500 . S
Nd1400 O1421 2.492 . S
Nd1400 O1422 2.487 . S
Nd1400 O1423 2.682 . S
Nd1400 O1424 2.410 . S
Nd1400 O1429 2.414 . S
Nd1400 O1431 2.424 . S
Nd1401 C1411 2.836 . S
Nd1401 O1423 2.414 . S
Nd1401 O1425 2.424 . S
Nd1401 O1426 2.500 . S
Nd1401 O1427 2.492 . S
Nd1401 O1428 2.487 . S
Nd1401 O1429 2.682 . S
Nd1401 O1430 2.410 . S
C1402 Nd1400 2.836 . S
C1402 C1403 1.498 . S
C1402 O1420 1.258 . S
C1402 O1421 1.239 . S
C1403 C1402 1.498 . S
C1403 C1404 1.366 . S
C1403 C1408 1.407 . S
C1404 C1403 1.366 . S
C1404 C1405 1.392 . S
C1404 H1432 0.930 . S
C1405 C1404 1.392 . S
C1405 C1406 1.398 . S
C1405 H1433 0.929 . S
C1406 C1405 1.398 . S
C1406 C1407 1.352 . S
C1407 C1406 1.352 . S
C1407 C1408 1.384 . S
C1407 H1434 0.930 . S
C1408 C1403 1.407 . S
C1408 C1407 1.384 . S
C1408 H1435 0.929 . S
C1409 O1422 1.241 . S
C1409 O1423 1.273 . S
C1410 O1424 1.251 . S
C1410 O1425 1.268 . S
C1411 Nd1401 2.836 . S
C1411 C1412 1.498 . S
C1411 O1426 1.258 . S
C1411 O1427 1.239 . S
C1412 C1411 1.498 . S
C1412 C1413 1.366 . S
C1412 C1417 1.407 . S
C1413 C1412 1.366 . S
C1413 C1414 1.392 . S
C1413 H1436 0.930 . S
C1414 C1413 1.392 . S
C1414 C1415 1.398 . S
C1414 H1437 0.929 . S
C1415 C1414 1.398 . S
C1415 C1416 1.352 . S
C1416 C1415 1.352 . S
C1416 C1417 1.384 . S
C1416 H1438 0.930 . S
C1417 C1412 1.407 . S
C1417 C1416 1.384 . S
C1417 H1439 0.929 . S
C1418 O1428 1.241 . S
C1418 O1429 1.273 . S
C1419 O1430 1.251 . S
C1419 O1431 1.268 . S
O1420 Nd1400 2.500 . S
O1420 C1402 1.258 . S
O1421 Nd1400 2.492 . S
O1421 C1402 1.239 . S
O1422 Nd1400 2.487 . S
O1422 C1409 1.241 . S
O1423 Nd1400 2.682 . S
O1423 Nd1401 2.414 . S
O1423 C1409 1.273 . S
O1424 Nd1400 2.410 . S
O1424 C1410 1.251 . S
O1425 Nd1401 2.424 . S
O1425 C1410 1.268 . S
O1426 Nd1401 2.500 . S
O1426 C1411 1.258 . S
O1427 Nd1401 2.492 . S
O1427 C1411 1.239 . S
O1428 Nd1401 2.487 . S
O1428 C1418 1.241 . S
O1429 Nd1400 2.414 . S
O1429 Nd1401 2.682 . S
O1429 C1418 1.273 . S
O1430 Nd1401 2.410 . S
O1430 C1419 1.251 . S
O1431 Nd1400 2.424 . S
O1431 C1419 1.268 . S
H1432 C1404 0.930 . S
H1433 C1405 0.929 . S
H1434 C1407 0.930 . S
H1435 C1408 0.929 . S
H1436 C1413 0.930 . S
H1437 C1414 0.929 . S
H1438 C1416 0.930 . S
H1439 C1417 0.929 . S
C10 C286 4.856 . S
C326 C50 4.826 . S
C246 C90 4.774 . S
C446 C130 4.855 . S
C170 C366 4.774 . S
C210 C406 4.826 . S
C55 C259 4.856 . S
C299 C95 4.826 . S
C15 C339 4.774 . S
C215 C379 4.856 . S
C419 C135 4.774 . S
C459 C175 4.826 . S
C490 C766 4.826 . S
C806 C530 4.828 . S
C726 C570 4.819 . S
C610 C926 4.852 . S
C846 C650 4.909 . S
C690 C886 4.903 . S
C739 C535 4.852 . S
C575 C779 4.903 . S
C819 C495 4.909 . S
C695 C859 4.826 . S
C615 C899 4.819 . S
C939 C655 4.828 . S
C970 C1246 4.852 . S
C1010 C1286 4.903 . S
C1206 C1050 4.909 . S
C1406 C1090 4.826 . S
C1130 C1326 4.819 . S
C1366 C1170 4.828 . S
C1015 C1219 4.826 . S
C1259 C1055 4.828 . S
C975 C1299 4.819 . S
C1339 C1175 4.852 . S
C1379 C1095 4.909 . S
C1419 C1135 4.903 . S
C6 C735 3.762 . S
C46 C775 3.774 . S
C815 C86 3.804 . S
C1335 C126 3.762 . S
C1375 C166 3.804 . S
C1415 C206 3.774 . S
C255 C966 3.762 . S
C1006 C295 3.774 . S
C335 C1046 3.804 . S
C375 C606 3.762 . S
C415 C646 3.804 . S
C455 C686 3.774 . S
C486 C1215 3.784 1_455 S
C1255 C526 3.817 . S
C566 C1295 3.780 1_565 S
C1086 C855 3.784 1_544 S
C895 C1126 3.780 1_456 S
C1166 C935 3.817 1_554 S
C18 C658 5.610 . S
C58 C698 5.577 . S
C618 C98 5.557 . S
C138 C1058 5.610 . S
C978 C178 5.557 . S
C218 C1018 5.577 . S
C1369 C249 5.610 . S
C289 C1409 5.577 . S
C1329 C329 5.557 . S
C369 C809 5.610 . S
C409 C729 5.557 . S
C449 C769 5.577 . S
C1138 C498 5.593 1_455 S
C538 C1178 5.596 . S
C578 C1098 5.593 1_545 S
C1289 C849 5.593 1_565 S
C1209 C889 5.593 1_455 S
C1249 C929 5.596 . S
C129 C9 2.517 . S
C49 C169 2.489 1_565 S
C89 C209 2.489 1_455 S
C378 C258 2.517 . S
C298 C418 2.489 1_545 S
C458 C338 2.489 1_455 S
C609 C489 2.512 . S
C529 C649 2.533 . S
C569 C689 2.535 . S
C738 C858 2.512 . S
C778 C898 2.535 . S
C818 C938 2.533 . S
C969 C1089 2.512 . S
C1129 C1009 2.535 . S
C1169 C1049 2.533 . S
C1218 C1338 2.512 . S
C1378 C1258 2.533 . S
C1298 C1418 2.535 . S
C19 C1179 1.969 . S
C1099 C59 2.020 . S
C99 C1139 1.989 . S
C539 C139 1.969 . S
C179 C579 1.989 . S
C219 C499 2.020 . S
C930 C250 1.969 . S
C290 C850 2.020 . S
C890 C330 1.989 . S
C370 C1250 1.969 . S
C1290 C410 1.989 . S
C1210 C450 2.020 . S
C619 C1019 2.013 1_655 S
C659 C1059 1.962 . S
C699 C979 2.013 1_545 S
C730 C1410 2.013 1_545 S
C770 C1330 2.013 1_655 S
C1370 C810 1.962 . S
