# Generated by pormake.
# Topology uml, (4)-cn, num edge types: 1
# Building blocks:
#     Node 0, Type 0, BuildingBlock: CEKHIL_clean_sbu_0, # of connection points: 4
#     Node 1, Type 0, BuildingBlock: CEKHIL_clean_sbu_0, # of connection points: 4
#     Node 2, Type 0, BuildingBlock: CEKHIL_clean_sbu_0, # of connection points: 4
#     Node 3, Type 0, BuildingBlock: CEKHIL_clean_sbu_0, # of connection points: 4
#     Node 4, Type 0, BuildingBlock: CEKHIL_clean_sbu_0, # of connection points: 4
#     Node 5, Type 0, BuildingBlock: CEKHIL_clean_sbu_0, # of connection points: 4
#     Node 6, Type 0, BuildingBlock: CEKHIL_clean_sbu_0, # of connection points: 4
#     Node 7, Type 0, BuildingBlock: CEKHIL_clean_sbu_0, # of connection points: 4
#     Node 8, Type 0, BuildingBlock: CEKHIL_clean_sbu_0, # of connection points: 4
#     Node 9, Type 0, BuildingBlock: CEKHIL_clean_sbu_0, # of connection points: 4
#     Node 10, Type 0, BuildingBlock: CEKHIL_clean_sbu_0, # of connection points: 4
#     Node 11, Type 0, BuildingBlock: CEKHIL_clean_sbu_0, # of connection points: 4
#     Node 12, Type 0, BuildingBlock: CEKHIL_clean_sbu_0, # of connection points: 4
#     Node 13, Type 0, BuildingBlock: CEKHIL_clean_sbu_0, # of connection points: 4
#     Node 14, Type 0, BuildingBlock: CEKHIL_clean_sbu_0, # of connection points: 4
#     Node 15, Type 0, BuildingBlock: CEKHIL_clean_sbu_0, # of connection points: 4
#     Node 16, Type 0, BuildingBlock: CEKHIL_clean_sbu_0, # of connection points: 4
#     Node 17, Type 0, BuildingBlock: CEKHIL_clean_sbu_0, # of connection points: 4
#     Node 18, Type 0, BuildingBlock: CEKHIL_clean_sbu_0, # of connection points: 4
#     Node 19, Type 0, BuildingBlock: CEKHIL_clean_sbu_0, # of connection points: 4
#     Node 20, Type 0, BuildingBlock: CEKHIL_clean_sbu_0, # of connection points: 4
#     Node 21, Type 0, BuildingBlock: CEKHIL_clean_sbu_0, # of connection points: 4
#     Node 22, Type 0, BuildingBlock: CEKHIL_clean_sbu_0, # of connection points: 4
#     Node 23, Type 0, BuildingBlock: CEKHIL_clean_sbu_0, # of connection points: 4
#     Node 24, Type 0, BuildingBlock: CEKHIL_clean_sbu_0, # of connection points: 4
#     Node 25, Type 0, BuildingBlock: CEKHIL_clean_sbu_0, # of connection points: 4
#     Node 26, Type 0, BuildingBlock: CEKHIL_clean_sbu_0, # of connection points: 4
#     Node 27, Type 0, BuildingBlock: CEKHIL_clean_sbu_0, # of connection points: 4
#     Node 28, Type 0, BuildingBlock: CEKHIL_clean_sbu_0, # of connection points: 4
#     Node 29, Type 0, BuildingBlock: CEKHIL_clean_sbu_0, # of connection points: 4
#     Node 30, Type 0, BuildingBlock: CEKHIL_clean_sbu_0, # of connection points: 4
#     Node 31, Type 0, BuildingBlock: CEKHIL_clean_sbu_0, # of connection points: 4
#     Node 32, Type 0, BuildingBlock: CEKHIL_clean_sbu_0, # of connection points: 4
#     Node 33, Type 0, BuildingBlock: CEKHIL_clean_sbu_0, # of connection points: 4
#     Node 34, Type 0, BuildingBlock: CEKHIL_clean_sbu_0, # of connection points: 4
#     Node 35, Type 0, BuildingBlock: CEKHIL_clean_sbu_0, # of connection points: 4
#     Edge 36, Type (0, 0), BuildingBlock: TEMPAE_clean_linker_10, # of connection points: 2
#     Edge 37, Type (0, 0), BuildingBlock: TEMPAE_clean_linker_10, # of connection points: 2
#     Edge 38, Type (0, 0), BuildingBlock: TEMPAE_clean_linker_10, # of connection points: 2
#     Edge 39, Type (0, 0), BuildingBlock: TEMPAE_clean_linker_10, # of connection points: 2
#     Edge 40, Type (0, 0), BuildingBlock: TEMPAE_clean_linker_10, # of connection points: 2
#     Edge 41, Type (0, 0), BuildingBlock: TEMPAE_clean_linker_10, # of connection points: 2
#     Edge 42, Type (0, 0), BuildingBlock: TEMPAE_clean_linker_10, # of connection points: 2
#     Edge 43, Type (0, 0), BuildingBlock: TEMPAE_clean_linker_10, # of connection points: 2
#     Edge 44, Type (0, 0), BuildingBlock: TEMPAE_clean_linker_10, # of connection points: 2
#     Edge 45, Type (0, 0), BuildingBlock: TEMPAE_clean_linker_10, # of connection points: 2
#     Edge 46, Type (0, 0), BuildingBlock: TEMPAE_clean_linker_10, # of connection points: 2
#     Edge 47, Type (0, 0), BuildingBlock: TEMPAE_clean_linker_10, # of connection points: 2
#     Edge 48, Type (0, 0), BuildingBlock: TEMPAE_clean_linker_10, # of connection points: 2
#     Edge 49, Type (0, 0), BuildingBlock: TEMPAE_clean_linker_10, # of connection points: 2
#     Edge 50, Type (0, 0), BuildingBlock: TEMPAE_clean_linker_10, # of connection points: 2
#     Edge 51, Type (0, 0), BuildingBlock: TEMPAE_clean_linker_10, # of connection points: 2
#     Edge 52, Type (0, 0), BuildingBlock: TEMPAE_clean_linker_10, # of connection points: 2
#     Edge 53, Type (0, 0), BuildingBlock: TEMPAE_clean_linker_10, # of connection points: 2
#     Edge 54, Type (0, 0), BuildingBlock: TEMPAE_clean_linker_10, # of connection points: 2
#     Edge 55, Type (0, 0), BuildingBlock: TEMPAE_clean_linker_10, # of connection points: 2
#     Edge 56, Type (0, 0), BuildingBlock: TEMPAE_clean_linker_10, # of connection points: 2
#     Edge 57, Type (0, 0), BuildingBlock: TEMPAE_clean_linker_10, # of connection points: 2
#     Edge 58, Type (0, 0), BuildingBlock: TEMPAE_clean_linker_10, # of connection points: 2
#     Edge 59, Type (0, 0), BuildingBlock: TEMPAE_clean_linker_10, # of connection points: 2
#     Edge 60, Type (0, 0), BuildingBlock: TEMPAE_clean_linker_10, # of connection points: 2
#     Edge 61, Type (0, 0), BuildingBlock: TEMPAE_clean_linker_10, # of connection points: 2
#     Edge 62, Type (0, 0), BuildingBlock: TEMPAE_clean_linker_10, # of connection points: 2
#     Edge 63, Type (0, 0), BuildingBlock: TEMPAE_clean_linker_10, # of connection points: 2
#     Edge 64, Type (0, 0), BuildingBlock: TEMPAE_clean_linker_10, # of connection points: 2
#     Edge 65, Type (0, 0), BuildingBlock: TEMPAE_clean_linker_10, # of connection points: 2
#     Edge 66, Type (0, 0), BuildingBlock: TEMPAE_clean_linker_10, # of connection points: 2
#     Edge 67, Type (0, 0), BuildingBlock: TEMPAE_clean_linker_10, # of connection points: 2
#     Edge 68, Type (0, 0), BuildingBlock: TEMPAE_clean_linker_10, # of connection points: 2
#     Edge 69, Type (0, 0), BuildingBlock: TEMPAE_clean_linker_10, # of connection points: 2
#     Edge 70, Type (0, 0), BuildingBlock: TEMPAE_clean_linker_10, # of connection points: 2
#     Edge 71, Type (0, 0), BuildingBlock: TEMPAE_clean_linker_10, # of connection points: 2
#     Edge 72, Type (0, 0), BuildingBlock: TEMPAE_clean_linker_10, # of connection points: 2
#     Edge 73, Type (0, 0), BuildingBlock: TEMPAE_clean_linker_10, # of connection points: 2
#     Edge 74, Type (0, 0), BuildingBlock: TEMPAE_clean_linker_10, # of connection points: 2
#     Edge 75, Type (0, 0), BuildingBlock: TEMPAE_clean_linker_10, # of connection points: 2
#     Edge 76, Type (0, 0), BuildingBlock: TEMPAE_clean_linker_10, # of connection points: 2
#     Edge 77, Type (0, 0), BuildingBlock: TEMPAE_clean_linker_10, # of connection points: 2
#     Edge 78, Type (0, 0), BuildingBlock: TEMPAE_clean_linker_10, # of connection points: 2
#     Edge 79, Type (0, 0), BuildingBlock: TEMPAE_clean_linker_10, # of connection points: 2
#     Edge 80, Type (0, 0), BuildingBlock: TEMPAE_clean_linker_10, # of connection points: 2
#     Edge 81, Type (0, 0), BuildingBlock: TEMPAE_clean_linker_10, # of connection points: 2
#     Edge 82, Type (0, 0), BuildingBlock: TEMPAE_clean_linker_10, # of connection points: 2
#     Edge 83, Type (0, 0), BuildingBlock: TEMPAE_clean_linker_10, # of connection points: 2
#     Edge 84, Type (0, 0), BuildingBlock: TEMPAE_clean_linker_10, # of connection points: 2
#     Edge 85, Type (0, 0), BuildingBlock: TEMPAE_clean_linker_10, # of connection points: 2
#     Edge 86, Type (0, 0), BuildingBlock: TEMPAE_clean_linker_10, # of connection points: 2
#     Edge 87, Type (0, 0), BuildingBlock: TEMPAE_clean_linker_10, # of connection points: 2
#     Edge 88, Type (0, 0), BuildingBlock: TEMPAE_clean_linker_10, # of connection points: 2
#     Edge 89, Type (0, 0), BuildingBlock: TEMPAE_clean_linker_10, # of connection points: 2
#     Edge 90, Type (0, 0), BuildingBlock: TEMPAE_clean_linker_10, # of connection points: 2
#     Edge 91, Type (0, 0), BuildingBlock: TEMPAE_clean_linker_10, # of connection points: 2
#     Edge 92, Type (0, 0), BuildingBlock: TEMPAE_clean_linker_10, # of connection points: 2
#     Edge 93, Type (0, 0), BuildingBlock: TEMPAE_clean_linker_10, # of connection points: 2
#     Edge 94, Type (0, 0), BuildingBlock: TEMPAE_clean_linker_10, # of connection points: 2
#     Edge 95, Type (0, 0), BuildingBlock: TEMPAE_clean_linker_10, # of connection points: 2
#     Edge 96, Type (0, 0), BuildingBlock: TEMPAE_clean_linker_10, # of connection points: 2
#     Edge 97, Type (0, 0), BuildingBlock: TEMPAE_clean_linker_10, # of connection points: 2
#     Edge 98, Type (0, 0), BuildingBlock: TEMPAE_clean_linker_10, # of connection points: 2
#     Edge 99, Type (0, 0), BuildingBlock: TEMPAE_clean_linker_10, # of connection points: 2
#     Edge 100, Type (0, 0), BuildingBlock: TEMPAE_clean_linker_10, # of connection points: 2
#     Edge 101, Type (0, 0), BuildingBlock: TEMPAE_clean_linker_10, # of connection points: 2
#     Edge 102, Type (0, 0), BuildingBlock: TEMPAE_clean_linker_10, # of connection points: 2
#     Edge 103, Type (0, 0), BuildingBlock: TEMPAE_clean_linker_10, # of connection points: 2
#     Edge 104, Type (0, 0), BuildingBlock: TEMPAE_clean_linker_10, # of connection points: 2
#     Edge 105, Type (0, 0), BuildingBlock: TEMPAE_clean_linker_10, # of connection points: 2
#     Edge 106, Type (0, 0), BuildingBlock: TEMPAE_clean_linker_10, # of connection points: 2
#     Edge 107, Type (0, 0), BuildingBlock: TEMPAE_clean_linker_10, # of connection points: 2
# Relax obj value: 0.147
# Max RMSD: 0.486
# Mean RMSD: 0.264
data_MOF--net-uml--node1-CEKHIL_clean_sbu_0--edge1-TEMPAE_clean_linker_10
_symmetry_space_group_name_H-M    P1
_symmetry_Int_Tables_number       1
_symmetry_cell_setting            triclinic
loop_
_symmetry_equiv_pos_as_xyz
'x, y, z'
_cell_length_a     93.434433
_cell_length_b     90.952583
_cell_length_c     28.018308
_cell_angle_alpha  90.072806
_cell_angle_beta   89.990578
_cell_angle_gamma 116.05796
loop_
_atom_site_label
_atom_site_type_symbol
_atom_site_fract_x
_atom_site_fract_y
_atom_site_fract_z
_atom_type_partial_charge
Co0 Co 0.34127 0.08254 0.17755 0.0
O1 O 0.35181 0.06864 0.17175 0.0
O2 O 0.36138 0.09438 0.14651 0.0
C3 C 0.33426 0.07786 0.25473 0.0
O4 O 0.33472 0.10089 0.17905 0.0
Co5 Co 0.30519 0.06853 0.19684 0.0
O6 O 0.30953 0.09181 0.20499 0.0
C7 C 0.31599 0.06686 0.09919 0.0
C8 C 0.36336 0.08123 0.15213 0.0
C9 C 0.32282 0.10334 0.19244 0.0
O10 O 0.33049 0.07484 0.11361 0.0
O11 O 0.30409 0.06212 0.12762 0.0
O12 O 0.34866 0.08789 0.24248 0.0
O13 O 0.32509 0.06922 0.22032 0.0
Co14 Co 0.87656 0.27142 0.17405 0.0
O15 O 0.87317 0.27094 0.2416 0.0
O16 O 0.88825 0.26109 0.20555 0.0
C17 C 0.88168 0.29775 0.16276 0.0
O18 O 0.88293 0.2702 0.10457 0.0
Co19 Co 0.85252 0.27652 0.10816 0.0
O20 O 0.86744 0.27728 0.05722 0.0
C21 C 0.84391 0.24389 0.14779 0.0
C22 C 0.88233 0.26366 0.24503 0.0
C23 C 0.87872 0.27317 0.06317 0.0
O24 O 0.85763 0.24955 0.16784 0.0
O25 O 0.83908 0.25269 0.12319 0.0
O26 O 0.89269 0.2938 0.17763 0.0
O27 O 0.86744 0.28582 0.16055 0.0
Co28 Co 0.71865 0.62708 0.15759 0.0
O29 O 0.69643 0.61298 0.15874 0.0
O30 O 0.71393 0.60825 0.11597 0.0
C31 C 0.72096 0.63071 0.23685 0.0
O32 O 0.74299 0.63946 0.15121 0.0
Co33 Co 0.72936 0.66283 0.19024 0.0
O34 O 0.75023 0.66228 0.19587 0.0
C35 C 0.71714 0.65362 0.09313 0.0
C36 C 0.69918 0.60363 0.12908 0.0
C37 C 0.7536 0.65221 0.17246 0.0
O38 O 0.71554 0.63914 0.10164 0.0
O39 O 0.72225 0.66519 0.12394 0.0
O40 O 0.72139 0.61794 0.21736 0.0
O41 O 0.7176 0.63998 0.2084 0.0
Co42 Co 0.09612 0.35733 0.29942 0.0
O43 O 0.08918 0.37409 0.2965 0.0
O44 O 0.11186 0.377 0.32948 0.0
C45 C 0.09031 0.3493 0.22328 0.0
O46 O 0.10731 0.34277 0.30668 0.0
Co47 Co 0.07187 0.32116 0.28498 0.0
O48 O 0.09151 0.31819 0.27488 0.0
C49 C 0.0731 0.33694 0.37768 0.0
C50 C 0.10225 0.38339 0.31856 0.0
C51 C 0.10486 0.32853 0.29145 0.0
O52 O 0.08525 0.34971 0.36285 0.0
O53 O 0.06521 0.32455 0.35098 0.0
O54 O 0.10362 0.36181 0.23397 0.0
O55 O 0.08038 0.34303 0.25812 0.0
Co56 Co 0.62915 0.75738 0.33212 0.0
O57 O 0.62808 0.76103 0.26528 0.0
O58 O 0.64728 0.75685 0.30008 0.0
C59 C 0.60382 0.73847 0.34071 0.0
O60 O 0.63341 0.75262 0.40063 0.0
Co61 Co 0.60898 0.768 0.39916 0.0
O62 O 0.61629 0.75719 0.44839 0.0
C63 C 0.63853 0.79313 0.35897 0.0
C64 C 0.64111 0.75939 0.26108 0.0
C65 C 0.62707 0.7524 0.44168 0.0
O66 O 0.6416 0.78161 0.34286 0.0
O67 O 0.62529 0.79043 0.37905 0.0
O68 O 0.61466 0.73458 0.32418 0.0
O69 O 0.60816 0.75404 0.34571 0.0
Co70 Co 0.24143 0.90968 0.33739 0.0
O71 O 0.26417 0.92064 0.34115 0.0
O72 O 0.24943 0.89583 0.36981 0.0
C73 C 0.23986 0.91498 0.25964 0.0
O74 O 0.21742 0.89462 0.33798 0.0
Co75 Co 0.22286 0.9299 0.31357 0.0
O76 O 0.20581 0.90795 0.29773 0.0
C77 C 0.23406 0.92991 0.41225 0.0
C78 C 0.26353 0.90777 0.36262 0.0
C79 C 0.20536 0.89502 0.31659 0.0
O80 O 0.23978 0.91991 0.39999 0.0
O81 O 0.22736 0.93574 0.38292 0.0
O82 O 0.24251 0.90268 0.27235 0.0
O83 O 0.23982 0.92454 0.2938 0.0
Co84 Co 0.66013 0.91615 0.86395 0.0
O85 O 0.65914 0.9132 0.7961 0.0
O86 O 0.68151 0.92495 0.83824 0.0
C87 C 0.64195 0.92589 0.86949 0.0
O88 O 0.66541 0.92144 0.93449 0.0
Co89 Co 0.62999 0.89565 0.92507 0.0
O90 O 0.64244 0.91111 0.97625 0.0
C91 C 0.64827 0.87993 0.88122 0.0
C92 C 0.67457 0.92025 0.797 0.0
C93 C 0.65744 0.91986 0.9733 0.0
O94 O 0.65971 0.89404 0.87216 0.0
O95 O 0.63474 0.8779 0.89761 0.0
O96 O 0.65651 0.93561 0.85758 0.0
O97 O 0.6386 0.91056 0.87213 0.0
Co98 Co 0.09492 0.757 0.8084 0.0
O99 O 0.09833 0.75709 0.74082 0.0
O100 O 0.07943 0.76203 0.77423 0.0
C101 C 0.0964 0.7334 0.82419 0.0
O102 O 0.08823 0.75766 0.87802 0.0
Co103 Co 0.12321 0.76036 0.87342 0.0
O104 O 0.10734 0.75644 0.9248 0.0
C105 C 0.12439 0.78943 0.82506 0.0
C106 C 0.08653 0.76078 0.73544 0.0
C107 C 0.09398 0.75693 0.9195 0.0
O108 O 0.10991 0.78099 0.81158 0.0
O109 O 0.13254 0.78318 0.84634 0.0
O110 O 0.08325 0.73325 0.8086 0.0
O111 O 0.1086 0.74758 0.82402 0.0
Co112 Co 0.24537 0.37937 0.81498 0.0
O113 O 0.2421 0.38313 0.74936 0.0
O114 O 0.24245 0.36047 0.77738 0.0
C115 C 0.26666 0.40344 0.82836 0.0
O116 O 0.24884 0.37151 0.8802 0.0
Co117 Co 0.24066 0.4007 0.89378 0.0
O118 O 0.25231 0.39139 0.93335 0.0
C119 C 0.21245 0.37415 0.85006 0.0
C120 C 0.2411 0.36867 0.74103 0.0
C121 C 0.25286 0.37811 0.92179 0.0
O122 O 0.2218 0.36979 0.82684 0.0
O123 O 0.21755 0.38696 0.8765 0.0
O124 O 0.26817 0.3915 0.8072 0.0
O125 O 0.25212 0.40118 0.83555 0.0
Co126 Co 0.89121 0.64695 0.68168 0.0
O127 O 0.88741 0.64152 0.74814 0.0
O128 O 0.89649 0.66663 0.71837 0.0
C129 C 0.90418 0.63189 0.66568 0.0
O130 O 0.89685 0.65715 0.61519 0.0
Co131 Co 0.87619 0.61998 0.60395 0.0
O132 O 0.89186 0.63692 0.56189 0.0
C133 C 0.85625 0.63273 0.65381 0.0
C134 C 0.89222 0.65706 0.75545 0.0
C135 C 0.89789 0.65203 0.57299 0.0
O136 O 0.86863 0.64362 0.67456 0.0
O137 O 0.85656 0.62161 0.62638 0.0
O138 O 0.9117 0.64625 0.68511 0.0
O139 O 0.88894 0.62651 0.66145 0.0
Co140 Co 0.39179 0.27414 0.66677 0.0
O141 O 0.39758 0.26953 0.72941 0.0
O142 O 0.37466 0.26978 0.7115 0.0
C143 C 0.41442 0.29906 0.65493 0.0
O144 O 0.38326 0.27846 0.60686 0.0
Co145 Co 0.40399 0.26254 0.64268 0.0
O146 O 0.3964 0.26572 0.57625 0.0
C147 C 0.38158 0.23783 0.66626 0.0
C148 C 0.38373 0.26788 0.74354 0.0
C149 C 0.38757 0.27305 0.57044 0.0
O150 O 0.37873 0.24952 0.65127 0.0
O151 O 0.39576 0.24129 0.67687 0.0
O152 O 0.40268 0.29699 0.68169 0.0
O153 O 0.41422 0.28617 0.63485 0.0
Co154 Co 0.72543 0.11916 0.67356 0.0
O155 O 0.72593 0.12301 0.74102 0.0
O156 O 0.73323 0.10538 0.70714 0.0
C157 C 0.70067 0.11686 0.66059 0.0
O158 O 0.72609 0.11215 0.60418 0.0
Co159 Co 0.72391 0.14574 0.60741 0.0
O160 O 0.72046 0.12906 0.5574 0.0
C161 C 0.75445 0.15161 0.65168 0.0
C162 C 0.73134 0.11222 0.74602 0.0
C163 C 0.72327 0.11664 0.56284 0.0
O164 O 0.74792 0.13687 0.66754 0.0
O165 O 0.74661 0.15816 0.63012 0.0
O166 O 0.7028 0.10455 0.67629 0.0
O167 O 0.71341 0.13062 0.65878 0.0
Co168 Co 0.02345 0.42472 0.5197 0.0
O169 O 0.03602 0.41301 0.51442 0.0
O170 O 0.04316 0.43816 0.48726 0.0
C171 C 0.01703 0.41956 0.59716 0.0
O172 O 0.0137 0.44071 0.52084 0.0
Co173 Co 0.98738 0.40524 0.5393 0.0
O174 O 0.98809 0.42731 0.54419 0.0
C175 C 0.99897 0.40584 0.44166 0.0
C176 C 0.04655 0.42585 0.49302 0.0
C177 C 0.00024 0.44036 0.53238 0.0
O178 O 0.01298 0.41577 0.45616 0.0
O179 O 0.98713 0.39915 0.47011 0.0
O180 O 0.03072 0.43106 0.58446 0.0
O181 O 0.00854 0.4101 0.56301 0.0
Co182 Co 0.5399 0.61031 0.50722 0.0
O183 O 0.53411 0.6082 0.57346 0.0
O184 O 0.55148 0.60054 0.54125 0.0
C185 C 0.54373 0.63633 0.49845 0.0
O186 O 0.54915 0.61101 0.44068 0.0
Co187 Co 0.51874 0.61539 0.43101 0.0
O188 O 0.53841 0.62308 0.39203 0.0
C189 C 0.50973 0.58222 0.4679 0.0
C190 C 0.54408 0.60193 0.57906 0.0
C191 C 0.54879 0.61795 0.40097 0.0
O192 O 0.52221 0.58808 0.4943 0.0
O193 O 0.50579 0.59103 0.44018 0.0
O194 O 0.55469 0.63295 0.51679 0.0
O195 O 0.5301 0.62387 0.49061 0.0
Co196 Co 0.38815 0.96714 0.47067 0.0
O197 O 0.36614 0.9522 0.47179 0.0
O198 O 0.3848 0.94688 0.4379 0.0
C199 C 0.3898 0.97432 0.54764 0.0
O200 O 0.41239 0.98039 0.46649 0.0
Co201 Co 0.39551 0.00349 0.48728 0.0
O202 O 0.41773 0.00616 0.48916 0.0
C203 C 0.38423 0.9892 0.39353 0.0
C204 C 0.36983 0.94204 0.44873 0.0
C205 C 0.42219 0.99529 0.47702 0.0
O206 O 0.38527 0.97632 0.40805 0.0
O207 O 0.38645 0.00125 0.42104 0.0
O208 O 0.39072 0.96101 0.53512 0.0
O209 O 0.38585 0.9816 0.51405 0.0
Co210 Co 0.74117 0.66948 0.65737 0.0
O211 O 0.73167 0.68383 0.64462 0.0
O212 O 0.75498 0.69111 0.6805 0.0
C213 C 0.73709 0.6582 0.58459 0.0
O214 O 0.75518 0.6584 0.67375 0.0
Co215 Co 0.72127 0.63218 0.65597 0.0
O216 O 0.7421 0.63146 0.65845 0.0
C217 C 0.72005 0.65045 0.74107 0.0
C218 C 0.74425 0.69526 0.66407 0.0
C219 C 0.75471 0.64413 0.66954 0.0
O220 O 0.73021 0.66368 0.7214 0.0
O221 O 0.71445 0.63648 0.72041 0.0
O222 O 0.74918 0.67214 0.59314 0.0
O223 O 0.72686 0.65211 0.61901 0.0
Co224 Co 0.28635 0.08618 0.65924 0.0
O225 O 0.28404 0.08812 0.59175 0.0
O226 O 0.30439 0.08591 0.62583 0.0
C227 C 0.26162 0.06654 0.6725 0.0
O228 O 0.29213 0.08321 0.72818 0.0
Co229 Co 0.26601 0.09623 0.72765 0.0
O230 O 0.2749 0.0871 0.77711 0.0
C231 C 0.29461 0.12194 0.68376 0.0
C232 C 0.29731 0.08698 0.58686 0.0
C233 C 0.28631 0.08329 0.76998 0.0
O234 O 0.29778 0.11074 0.66536 0.0
O235 O 0.28191 0.11876 0.70771 0.0
O236 O 0.27267 0.06299 0.65581 0.0
O237 O 0.26529 0.08202 0.67509 0.0
Co238 Co 0.90865 0.23397 0.65534 0.0
O239 O 0.93131 0.24369 0.65271 0.0
O240 O 0.91663 0.2196 0.68532 0.0
C241 C 0.90542 0.23913 0.57846 0.0
O242 O 0.88452 0.22032 0.66174 0.0
Co243 Co 0.89229 0.25673 0.639 0.0
O244 O 0.87336 0.23546 0.62893 0.0
C245 C 0.90663 0.25685 0.73273 0.0
C246 C 0.93075 0.23086 0.67406 0.0
C247 C 0.87239 0.22202 0.64553 0.0
O248 O 0.90945 0.24489 0.7188 0.0
O249 O 0.90093 0.26418 0.70505 0.0
O250 O 0.90736 0.22629 0.58978 0.0
O251 O 0.90703 0.24914 0.61309 0.0
Co252 Co 0.33286 0.24746 0.15298 0.0
O253 O 0.32966 0.241 0.08708 0.0
O254 O 0.35313 0.25621 0.12023 0.0
C255 C 0.31323 0.25534 0.15792 0.0
O256 O 0.34064 0.25687 0.21965 0.0
Co257 Co 0.30616 0.22996 0.22829 0.0
O258 O 0.31938 0.24909 0.26803 0.0
C259 C 0.32585 0.21412 0.19422 0.0
C260 C 0.34497 0.24912 0.08228 0.0
C261 C 0.33414 0.25767 0.25962 0.0
O262 O 0.33464 0.22677 0.16935 0.0
O263 O 0.31362 0.21277 0.21785 0.0
O264 O 0.32698 0.26524 0.14031 0.0
O265 O 0.31142 0.24075 0.16716 0.0
Co266 Co 0.76653 0.08804 0.15395 0.0
O267 O 0.77035 0.08796 0.08666 0.0
O268 O 0.75069 0.09203 0.11838 0.0
C269 C 0.76893 0.0651 0.17213 0.0
O270 O 0.75923 0.08863 0.22274 0.0
Co271 Co 0.79489 0.09314 0.22106 0.0
O272 O 0.77885 0.08961 0.27166 0.0
C273 C 0.79498 0.12133 0.1704 0.0
C274 C 0.75814 0.09092 0.08021 0.0
C275 C 0.76507 0.08893 0.26476 0.0
O276 O 0.78067 0.11227 0.15654 0.0
O277 O 0.80351 0.11575 0.19269 0.0
O278 O 0.75568 0.06429 0.15507 0.0
O279 O 0.78079 0.07953 0.1717 0.0
Co280 Co 0.90489 0.71242 0.1612 0.0
O281 O 0.9037 0.71559 0.09396 0.0
O282 O 0.89984 0.6921 0.12802 0.0
C283 C 0.92802 0.73445 0.17576 0.0
O284 O 0.90563 0.70505 0.22955 0.0
Co285 Co 0.90181 0.7371 0.23049 0.0
O286 O 0.91091 0.72691 0.2766 0.0
C287 C 0.87277 0.71219 0.18648 0.0
C288 C 0.90046 0.70026 0.08931 0.0
C289 C 0.9097 0.71255 0.26995 0.0
O290 O 0.88154 0.70621 0.16741 0.0
O291 O 0.87857 0.72536 0.21135 0.0
O292 O 0.92771 0.72112 0.15812 0.0
O293 O 0.91431 0.73493 0.17762 0.0
Co294 Co 0.55341 0.98252 0.01317 0.0
O295 O 0.54902 0.97766 0.07983 0.0
O296 O 0.55635 0.00213 0.0472 0.0
C297 C 0.56889 0.96973 0.0031 0.0
O298 O 0.55938 0.99212 0.94597 0.0
Co299 Co 0.54176 0.95437 0.93819 0.0
O300 O 0.55694 0.97171 0.89606 0.0
C301 C 0.5189 0.96501 0.97958 0.0
C302 C 0.55256 0.99304 0.0853 0.0
C303 C 0.56163 0.98684 0.90523 0.0
O304 O 0.53033 0.97672 0.00155 0.0
O305 O 0.52079 0.95423 0.9544 0.0
O306 O 0.57477 0.98434 0.02136 0.0
O307 O 0.55364 0.96272 0.99664 0.0
Co308 Co 0.0502 0.60741 0.01938 0.0
O309 O 0.0563 0.606 0.08409 0.0
O310 O 0.0318 0.60049 0.06044 0.0
C311 C 0.07 0.63208 0.00195 0.0
O312 O 0.03969 0.60788 0.95562 0.0
Co313 Co 0.07183 0.60714 0.93647 0.0
O314 O 0.05887 0.6155 0.89967 0.0
C315 C 0.05047 0.57594 0.98093 0.0
C316 C 0.04145 0.60143 0.09503 0.0
C317 C 0.04493 0.61278 0.91315 0.0
O318 O 0.04555 0.58394 0.00876 0.0
O319 O 0.06129 0.5828 0.94937 0.0
O320 O 0.05756 0.63073 0.02567 0.0
O321 O 0.07108 0.61848 0.99472 0.0
Co322 Co 0.39286 0.46108 0.01662 0.0
O323 O 0.39105 0.4628 0.08449 0.0
O324 O 0.40201 0.44838 0.04931 0.0
C325 C 0.36766 0.45637 0.99946 0.0
O326 O 0.39597 0.45602 0.94694 0.0
Co327 Co 0.38949 0.48689 0.95124 0.0
O328 O 0.38883 0.47172 0.89971 0.0
C329 C 0.42029 0.49498 0.99817 0.0
C330 C 0.39786 0.45317 0.08855 0.0
C331 C 0.39326 0.46043 0.90538 0.0
O332 O 0.41439 0.48057 0.01645 0.0
O333 O 0.41208 0.50026 0.973 0.0
O334 O 0.37091 0.4446 0.01379 0.0
O335 O 0.37941 0.47088 0.00094 0.0
Co336 Co 0.67891 0.75686 0.84449 0.0
O337 O 0.69047 0.74415 0.84027 0.0
O338 O 0.69782 0.76848 0.80653 0.0
C339 C 0.67461 0.75403 0.92341 0.0
O340 O 0.67022 0.77372 0.84354 0.0
Co341 Co 0.64351 0.74057 0.87419 0.0
O342 O 0.64778 0.76359 0.88734 0.0
C343 C 0.65185 0.73728 0.77468 0.0
C344 C 0.70079 0.75602 0.81502 0.0
C345 C 0.65907 0.77539 0.86621 0.0
O346 O 0.66656 0.74621 0.78506 0.0
O347 O 0.64067 0.73299 0.80569 0.0
O348 O 0.68806 0.76484 0.9066 0.0
O349 O 0.66485 0.74405 0.89235 0.0
Co350 Co 0.20566 0.94091 0.85523 0.0
O351 O 0.20065 0.93868 0.92211 0.0
O352 O 0.2181 0.93168 0.88746 0.0
C353 C 0.20858 0.96668 0.84741 0.0
O354 O 0.21419 0.94178 0.78746 0.0
Co355 Co 0.18335 0.94564 0.78176 0.0
O356 O 0.20243 0.95322 0.74019 0.0
C357 C 0.17556 0.91248 0.81744 0.0
C358 C 0.21103 0.93287 0.92625 0.0
C359 C 0.21306 0.94831 0.7477 0.0
O360 O 0.18823 0.91843 0.84309 0.0
O361 O 0.17115 0.92123 0.79101 0.0
O362 O 0.22006 0.96379 0.8641 0.0
O363 O 0.19514 0.9539 0.84063 0.0
Co364 Co 0.05878 0.29734 0.81263 0.0
O365 O 0.03615 0.28713 0.81537 0.0
O366 O 0.05033 0.27541 0.78441 0.0
C367 C 0.06261 0.30631 0.88841 0.0
O368 O 0.08287 0.30511 0.80712 0.0
Co369 Co 0.07466 0.33525 0.82417 0.0
O370 O 0.09393 0.33152 0.83159 0.0
C371 C 0.06081 0.32104 0.73179 0.0
C372 C 0.03636 0.27443 0.79538 0.0
C373 C 0.09495 0.31851 0.81934 0.0
O374 O 0.05828 0.30688 0.74803 0.0
O375 O 0.06601 0.33394 0.75774 0.0
O376 O 0.05993 0.29138 0.8786 0.0
O377 O 0.06085 0.31452 0.85311 0.0
Co378 Co 0.41917 0.02026 0.96373 0.0
O379 O 0.41407 0.03832 0.96185 0.0
O380 O 0.43577 0.03872 0.99561 0.0
C381 C 0.4133 0.0128 0.88748 0.0
O382 O 0.42869 0.00424 0.97005 0.0
Co383 Co 0.39285 0.98518 0.9497 0.0
O384 O 0.4107 0.97886 0.94996 0.0
C385 C 0.39446 0.00176 0.04044 0.0
C386 C 0.42712 0.04631 0.98579 0.0
C387 C 0.42475 0.98906 0.96177 0.0
O388 O 0.4078 0.01319 0.02654 0.0
O389 O 0.38568 0.98985 0.01338 0.0
O390 O 0.42703 0.02461 0.89893 0.0
O391 O 0.40301 0.00702 0.92175 0.0
Co392 Co 0.9664 0.42089 0.00223 0.0
O393 O 0.96431 0.42227 0.93461 0.0
O394 O 0.98449 0.42015 0.97013 0.0
C395 C 0.94146 0.40163 0.01513 0.0
O396 O 0.97183 0.4186 0.07194 0.0
Co397 Co 0.94619 0.43235 0.06609 0.0
O398 O 0.9547 0.42368 0.11803 0.0
C399 C 0.97439 0.45697 0.01822 0.0
C400 C 0.9776 0.42114 0.93064 0.0
C401 C 0.96594 0.41944 0.11303 0.0
O402 O 0.97812 0.44546 0.00618 0.0
O403 O 0.96121 0.45423 0.03873 0.0
O404 O 0.95249 0.39772 0.00047 0.0
O405 O 0.94533 0.41718 0.01623 0.0
Co406 Co 0.57393 0.57971 0.99207 0.0
O407 O 0.59668 0.58931 0.98975 0.0
O408 O 0.58161 0.56556 0.02409 0.0
C409 C 0.57036 0.58361 0.91453 0.0
O410 O 0.54984 0.56614 0.99965 0.0
Co411 Co 0.55757 0.60239 0.97072 0.0
O412 O 0.53781 0.5818 0.97686 0.0
C413 C 0.57086 0.60285 0.06648 0.0
C414 C 0.59581 0.57664 0.01289 0.0
C415 C 0.53732 0.56835 0.99166 0.0
O416 O 0.57485 0.59154 0.05398 0.0
O417 O 0.56464 0.6094 0.03792 0.0
O418 O 0.57247 0.57104 0.92772 0.0
O419 O 0.57218 0.59422 0.94755 0.0
Co420 Co 0.98777 0.57419 0.50107 0.0
O421 O 0.98513 0.56863 0.43449 0.0
O422 O 0.00831 0.58348 0.46991 0.0
C423 C 0.96829 0.58216 0.50632 0.0
O424 O 0.99484 0.58269 0.56892 0.0
Co425 Co 0.96058 0.55532 0.57346 0.0
O426 O 0.97292 0.57436 0.61495 0.0
C427 C 0.98079 0.54027 0.53801 0.0
C428 C 0.00046 0.57698 0.43098 0.0
C429 C 0.98771 0.5832 0.60791 0.0
O430 O 0.98959 0.55344 0.51531 0.0
O431 O 0.96828 0.53828 0.5613 0.0
O432 O 0.98219 0.59211 0.48982 0.0
O433 O 0.96617 0.56733 0.51403 0.0
Co434 Co 0.43021 0.4269 0.4935 0.0
O435 O 0.43093 0.42442 0.42564 0.0
O436 O 0.41393 0.43146 0.46292 0.0
C437 C 0.43207 0.40382 0.51331 0.0
O438 O 0.42584 0.42984 0.5637 0.0
Co439 Co 0.46021 0.4323 0.55205 0.0
O440 O 0.44605 0.42976 0.60739 0.0
C441 C 0.46004 0.45979 0.49817 0.0
C442 C 0.41928 0.42846 0.42294 0.0
C443 C 0.43255 0.43003 0.60414 0.0
O444 O 0.44532 0.4508 0.48841 0.0
O445 O 0.46878 0.45435 0.51997 0.0
O446 O 0.41846 0.40336 0.50113 0.0
O447 O 0.44431 0.41783 0.5077 0.0
Co448 Co 0.57295 0.04889 0.49233 0.0
O449 O 0.57105 0.05245 0.42559 0.0
O450 O 0.56758 0.02878 0.45748 0.0
C451 C 0.59611 0.07107 0.50557 0.0
O452 O 0.57429 0.04101 0.55981 0.0
Co453 Co 0.57056 0.07308 0.5654 0.0
O454 O 0.57954 0.06224 0.60946 0.0
C455 C 0.54119 0.04876 0.52106 0.0
C456 C 0.56767 0.03713 0.41969 0.0
C457 C 0.57836 0.048 0.60096 0.0
O458 O 0.54968 0.0427 0.50063 0.0
O459 O 0.54724 0.06161 0.54725 0.0
O460 O 0.59582 0.05788 0.48693 0.0
O461 O 0.58232 0.07121 0.5102 0.0
Co462 Co 0.23422 0.31718 0.33216 0.0
O463 O 0.2287 0.31237 0.39808 0.0
O464 O 0.23992 0.33734 0.36699 0.0
C465 C 0.24622 0.30084 0.32172 0.0
O466 O 0.24174 0.32647 0.26568 0.0
Co467 Co 0.21849 0.28913 0.25765 0.0
O468 O 0.23477 0.30521 0.21471 0.0
C469 C 0.19979 0.30459 0.2996 0.0
C470 C 0.23433 0.32805 0.40432 0.0
C471 C 0.24219 0.32043 0.22437 0.0
O472 O 0.21252 0.31561 0.31842 0.0
O473 O 0.19921 0.29195 0.27792 0.0
O474 O 0.25388 0.31511 0.34154 0.0
O475 O 0.23115 0.29617 0.31513 0.0
Co476 Co 0.72281 0.94258 0.38425 0.0
O477 O 0.72964 0.94168 0.44849 0.0
O478 O 0.70501 0.93644 0.4273 0.0
C479 C 0.74281 0.96686 0.36422 0.0
O480 O 0.71151 0.94271 0.32181 0.0
Co481 Co 0.74299 0.94147 0.29829 0.0
O482 O 0.72982 0.95002 0.26337 0.0
C483 C 0.72109 0.91056 0.34393 0.0
C484 C 0.71502 0.93767 0.4611 0.0
C485 C 0.71609 0.94735 0.27873 0.0
O486 O 0.71741 0.91887 0.3744 0.0
O487 O 0.73128 0.91715 0.31052 0.0
O488 O 0.73076 0.96603 0.38908 0.0
O489 O 0.7434 0.95303 0.35709 0.0
Co490 Co 0.05784 0.79344 0.32853 0.0
O491 O 0.05798 0.79716 0.39608 0.0
O492 O 0.06432 0.77874 0.36291 0.0
C493 C 0.03378 0.79272 0.31427 0.0
O494 O 0.05868 0.78641 0.25912 0.0
Co495 Co 0.05842 0.82105 0.26226 0.0
O496 O 0.05612 0.80504 0.21129 0.0
C497 C 0.08793 0.82518 0.31002 0.0
C498 C 0.06253 0.78572 0.40162 0.0
C499 C 0.05757 0.79186 0.2173 0.0
O500 O 0.08076 0.81027 0.32425 0.0
O501 O 0.08076 0.83244 0.28842 0.0
O502 O 0.03494 0.77988 0.32993 0.0
O503 O 0.04697 0.80601 0.31279 0.0
C504 C 0.29785 0.09127 0.49896 0.0
C505 C 0.3033 0.08588 0.53881 0.0
C506 C 0.30251 0.08943 0.45261 0.0
C507 C 0.31263 0.08171 0.44588 0.0
C508 C 0.31811 0.07617 0.48599 0.0
C509 C 0.31351 0.07848 0.53209 0.0
C510 C 0.29673 0.09588 0.41091 0.0
C511 C 0.32875 0.06771 0.48013 0.0
C512 C 0.31429 0.06593 0.32086 0.0
C513 C 0.32853 0.07836 0.3036 0.0
C514 C 0.30907 0.06666 0.36756 0.0
C515 C 0.31815 0.0803 0.39702 0.0
C516 C 0.33244 0.09291 0.37941 0.0
C517 C 0.33751 0.09171 0.33318 0.0
C518 C 0.29386 0.05288 0.38541 0.0
C519 C 0.34229 0.10784 0.40915 0.0
H520 H 0.28996 0.09702 0.50401 0.0
H521 H 0.31757 0.07411 0.56279 0.0
H522 H 0.30706 0.10519 0.39135 0.0
H523 H 0.29008 0.08583 0.38546 0.0
H524 H 0.28887 0.10152 0.42224 0.0
H525 H 0.33139 0.06347 0.51472 0.0
H526 H 0.32302 0.057 0.45602 0.0
H527 H 0.34016 0.07617 0.46334 0.0
H528 H 0.30733 0.0556 0.29808 0.0
H529 H 0.34846 0.10146 0.3199 0.0
H530 H 0.28504 0.05758 0.39407 0.0
H531 H 0.29622 0.04775 0.41879 0.0
H532 H 0.2885 0.04286 0.3588 0.0
H533 H 0.335 0.11425 0.41925 0.0
H534 H 0.35307 0.11662 0.39001 0.0
H535 H 0.34609 0.10413 0.4427 0.0
C536 C 0.89542 0.22915 0.49658 0.0
C537 C 0.90194 0.24215 0.52911 0.0
C538 C 0.89222 0.23183 0.44929 0.0
C539 C 0.896 0.24795 0.43403 0.0
C540 C 0.90279 0.26115 0.46667 0.0
C541 C 0.90549 0.25805 0.51405 0.0
C542 C 0.88457 0.21741 0.41592 0.0
C543 C 0.90722 0.27854 0.45152 0.0
C544 C 0.89987 0.25755 0.30115 0.0
C545 C 0.88559 0.25854 0.2921 0.0
C546 C 0.90343 0.25401 0.34724 0.0
C547 C 0.89223 0.25098 0.38453 0.0
C548 C 0.87752 0.25134 0.37492 0.0
C549 C 0.87448 0.25532 0.32897 0.0
C550 C 0.91935 0.254 0.3564 0.0
C551 C 0.86509 0.24777 0.41336 0.0
H552 H 0.89259 0.21682 0.5083 0.0
H553 H 0.91065 0.26812 0.53912 0.0
H554 H 0.873 0.21654 0.40297 0.0
H555 H 0.89223 0.21912 0.38417 0.0
H556 H 0.88244 0.20566 0.43333 0.0
H557 H 0.91318 0.28749 0.48053 0.0
H558 H 0.91529 0.28177 0.42019 0.0
H559 H 0.89637 0.27974 0.44048 0.0
H560 H 0.90849 0.26013 0.27266 0.0
H561 H 0.86333 0.25592 0.32186 0.0
H562 H 0.91762 0.24212 0.3719 0.0
H563 H 0.92616 0.26365 0.38284 0.0
H564 H 0.92658 0.25622 0.32338 0.0
H565 H 0.86232 0.23582 0.43039 0.0
H566 H 0.85387 0.24749 0.39923 0.0
H567 H 0.86976 0.25726 0.44164 0.0
C568 C 0.71932 0.6401 0.52082 0.0
C569 C 0.73453 0.6511 0.53633 0.0
C570 C 0.71657 0.63541 0.47264 0.0
C571 C 0.72938 0.6418 0.4398 0.0
C572 C 0.74492 0.65215 0.456 0.0
C573 C 0.74729 0.65671 0.50409 0.0
C574 C 0.69986 0.62427 0.45649 0.0
C575 C 0.75893 0.65902 0.42218 0.0
C576 C 0.72625 0.62281 0.31759 0.0
C577 C 0.7231 0.63362 0.28866 0.0
C578 C 0.72797 0.62509 0.36708 0.0
C579 C 0.72652 0.63852 0.388 0.0
C580 C 0.72324 0.64943 0.35902 0.0
C581 C 0.72158 0.64685 0.30956 0.0
C582 C 0.73156 0.61328 0.39688 0.0
C583 C 0.72167 0.66393 0.38019 0.0
H584 H 0.70945 0.63578 0.54577 0.0
H585 H 0.75912 0.66508 0.51618 0.0
H586 H 0.69538 0.63115 0.43304 0.0
H587 H 0.69979 0.61394 0.43524 0.0
H588 H 0.69152 0.61924 0.487 0.0
H589 H 0.7704 0.66592 0.44115 0.0
H590 H 0.75972 0.64903 0.40133 0.0
H591 H 0.75725 0.66737 0.39635 0.0
H592 H 0.7274 0.61252 0.30157 0.0
H593 H 0.71909 0.6552 0.28731 0.0
H594 H 0.7226 0.6081 0.42574 0.0
H595 H 0.74337 0.61984 0.41423 0.0
H596 H 0.73161 0.60304 0.37533 0.0
H597 H 0.71243 0.65978 0.40851 0.0
H598 H 0.71845 0.67085 0.35301 0.0
H599 H 0.73308 0.67236 0.39712 0.0
C600 C 0.06835 0.32854 0.94849 0.0
C601 C 0.06755 0.31325 0.93653 0.0
C602 C 0.07241 0.33479 0.99495 0.0
C603 C 0.07588 0.32556 0.02983 0.0
C604 C 0.07544 0.31028 0.01756 0.0
C605 C 0.07122 0.30428 0.97107 0.0
C606 C 0.07271 0.35111 0.00695 0.0
C607 C 0.07925 0.30019 0.05366 0.0
C608 C 0.09888 0.34735 0.1403 0.0
C609 C 0.08667 0.34292 0.17422 0.0
C610 C 0.09556 0.34172 0.09312 0.0
C611 C 0.07961 0.33166 0.07955 0.0
C612 C 0.06724 0.32717 0.1137 0.0
C613 C 0.07095 0.33274 0.16083 0.0
C614 C 0.10909 0.34646 0.05787 0.0
C615 C 0.05008 0.31656 0.10036 0.0
H616 H 0.06554 0.33549 0.9218 0.0
H617 H 0.07073 0.29249 0.96185 0.0
H618 H 0.06387 0.3495 0.03537 0.0
H619 H 0.08459 0.35959 0.02105 0.0
H620 H 0.06999 0.35689 0.97553 0.0
H621 H 0.07898 0.28887 0.0378 0.0
H622 H 0.09123 0.30751 0.06924 0.0
H623 H 0.07054 0.29668 0.0834 0.0
H624 H 0.11107 0.35514 0.15073 0.0
H625 H 0.06149 0.32937 0.187 0.0
H626 H 0.10716 0.3532 0.02749 0.0
H627 H 0.10945 0.33531 0.04305 0.0
H628 H 0.12083 0.35425 0.07429 0.0
H629 H 0.04644 0.32236 0.07095 0.0
H630 H 0.04184 0.31449 0.13092 0.0
H631 H 0.04873 0.30452 0.08715 0.0
C632 C 0.65792 0.75206 0.20538 0.0
C633 C 0.64783 0.75953 0.21339 0.0
C634 C 0.66286 0.75067 0.15893 0.0
C635 C 0.65776 0.75712 0.12002 0.0
C636 C 0.648 0.76514 0.12825 0.0
C637 C 0.64308 0.76614 0.1748 0.0
C638 C 0.67321 0.74197 0.1513 0.0
C639 C 0.64257 0.77246 0.08779 0.0
C640 C 0.68052 0.76716 0.00348 0.0
C641 C 0.6705 0.75421 0.97416 0.0
C642 C 0.6767 0.76805 0.05137 0.0
C643 C 0.66259 0.75559 0.07051 0.0
C644 C 0.6526 0.74227 0.04142 0.0
C645 C 0.65664 0.74178 0.99335 0.0
C646 C 0.68751 0.78258 0.08104 0.0
C647 C 0.6375 0.72871 0.06083 0.0
H648 H 0.66151 0.74684 0.23515 0.0
H649 H 0.63534 0.77202 0.18093 0.0
H650 H 0.66691 0.73111 0.12812 0.0
H651 H 0.68435 0.75014 0.13265 0.0
H652 H 0.67637 0.73789 0.18538 0.0
H653 H 0.63542 0.77874 0.1005 0.0
H654 H 0.65303 0.78141 0.06786 0.0
H655 H 0.63525 0.76272 0.06226 0.0
H656 H 0.69125 0.77683 0.98878 0.0
H657 H 0.64891 0.73173 0.97079 0.0
H658 H 0.6911 0.7784 0.11414 0.0
H659 H 0.68102 0.78974 0.09196 0.0
H660 H 0.69843 0.79081 0.06139 0.0
H661 H 0.64014 0.72353 0.09364 0.0
H662 H 0.63163 0.71868 0.03454 0.0
H663 H 0.629 0.73369 0.07082 0.0
C664 C 0.23767 0.93235 0.19401 0.0
C665 C 0.23584 0.91706 0.21005 0.0
C666 C 0.23394 0.93448 0.1468 0.0
C667 C 0.22786 0.92087 0.11542 0.0
C668 C 0.22586 0.90536 0.13166 0.0
C669 C 0.23006 0.90368 0.17869 0.0
C670 C 0.2365 0.95128 0.13051 0.0
C671 C 0.21902 0.89049 0.09962 0.0
C672 C 0.20393 0.92456 0.01082 0.0
C673 C 0.21496 0.92851 0.97346 0.0
C674 C 0.2078 0.92149 0.05689 0.0
C675 C 0.22323 0.92284 0.06598 0.0
C676 C 0.23435 0.92658 0.02819 0.0
C677 C 0.23 0.92918 0.98212 0.0
C678 C 0.19548 0.9171 0.09599 0.0
C679 C 0.251 0.9284 0.03675 0.0
H680 H 0.24221 0.94271 0.21823 0.0
H681 H 0.2285 0.8918 0.19123 0.0
H682 H 0.24429 0.95495 0.09852 0.0
H683 H 0.22495 0.95105 0.12012 0.0
H684 H 0.24202 0.96071 0.15867 0.0
H685 H 0.21823 0.8793 0.11776 0.0
H686 H 0.20692 0.88827 0.08764 0.0
H687 H 0.22648 0.89262 0.06721 0.0
H688 H 0.19224 0.92391 0.00404 0.0
H689 H 0.23858 0.93235 0.95329 0.0
H690 H 0.19952 0.9269 0.12342 0.0
H691 H 0.19399 0.90566 0.11397 0.0
H692 H 0.1837 0.91542 0.08227 0.0
H693 H 0.25728 0.93855 0.0623 0.0
H694 H 0.25809 0.93097 0.00333 0.0
H695 H 0.25054 0.9171 0.05306 0.0
C696 C 0.6932 0.93873 0.73653 0.0
C697 C 0.68354 0.92285 0.7524 0.0
C698 C 0.69945 0.94143 0.69002 0.0
C699 C 0.69626 0.92787 0.65964 0.0
C700 C 0.68731 0.91176 0.67691 0.0
C701 C 0.68078 0.90947 0.72287 0.0
C702 C 0.70861 0.95878 0.67251 0.0
C703 C 0.68407 0.89698 0.64618 0.0
C704 C 0.69513 0.9333 0.52566 0.0
C705 C 0.71017 0.93497 0.51175 0.0
C706 C 0.69055 0.93118 0.5738 0.0
C707 C 0.7012 0.93049 0.60874 0.0
C708 C 0.71635 0.93203 0.59486 0.0
C709 C 0.72069 0.93434 0.54652 0.0
C710 C 0.67433 0.92972 0.58728 0.0
C711 C 0.72791 0.93109 0.63102 0.0
H712 H 0.69507 0.94904 0.75943 0.0
H713 H 0.67323 0.8972 0.7355 0.0
H714 H 0.72015 0.96054 0.65681 0.0
H715 H 0.70173 0.96124 0.64391 0.0
H716 H 0.71096 0.96791 0.70147 0.0
H717 H 0.67853 0.88539 0.66676 0.0
H718 H 0.67594 0.89635 0.61658 0.0
H719 H 0.6953 0.89798 0.62993 0.0
H720 H 0.68697 0.93383 0.49896 0.0
H721 H 0.73233 0.93558 0.53594 0.0
H722 H 0.67559 0.93925 0.61397 0.0
H723 H 0.66714 0.91765 0.60405 0.0
H724 H 0.66767 0.93103 0.556 0.0
H725 H 0.73076 0.94085 0.65822 0.0
H726 H 0.73919 0.93241 0.61433 0.0
H727 H 0.72238 0.9192 0.65001 0.0
C728 C 0.0644 0.76573 0.46032 0.0
C729 C 0.06563 0.78132 0.45013 0.0
C730 C 0.0667 0.76151 0.50713 0.0
C731 C 0.07076 0.77332 0.54417 0.0
C732 C 0.07218 0.78913 0.53374 0.0
C733 C 0.0694 0.79284 0.48709 0.0
C734 C 0.06476 0.74443 0.51701 0.0
C735 C 0.07695 0.80226 0.57166 0.0
C736 C 0.06664 0.76157 0.67609 0.0
C737 C 0.08214 0.76397 0.68706 0.0
C738 C 0.06259 0.76408 0.62933 0.0
C739 C 0.07445 0.76957 0.59324 0.0
C740 C 0.09017 0.77222 0.60453 0.0
C741 C 0.09374 0.76918 0.65101 0.0
C742 C 0.04563 0.76079 0.61845 0.0
C743 C 0.10331 0.77856 0.56771 0.0
H744 H 0.06133 0.75674 0.43195 0.0
H745 H 0.07045 0.80496 0.47936 0.0
H746 H 0.07629 0.7449 0.52875 0.0
H747 H 0.05611 0.73886 0.54646 0.0
H748 H 0.06058 0.73638 0.48512 0.0
H749 H 0.07748 0.81392 0.55774 0.0
H750 H 0.06838 0.79807 0.60174 0.0
H751 H 0.08883 0.80469 0.58625 0.0
H752 H 0.05762 0.75742 0.70378 0.0
H753 H 0.10579 0.77118 0.65938 0.0
H754 H 0.041 0.75204 0.58828 0.0
H755 H 0.0452 0.77229 0.60729 0.0
H756 H 0.03764 0.75572 0.64968 0.0
H757 H 0.10017 0.77005 0.5369 0.0
H758 H 0.11492 0.78008 0.58236 0.0
H759 H 0.10473 0.79057 0.55397 0.0
C760 C 0.22277 0.32554 0.48534 0.0
C761 C 0.2345 0.33477 0.45221 0.0
C762 C 0.22316 0.33115 0.53213 0.0
C763 C 0.23589 0.34609 0.54642 0.0
C764 C 0.24773 0.35554 0.51294 0.0
C765 C 0.24675 0.34986 0.46585 0.0
C766 C 0.21006 0.32099 0.56639 0.0
C767 C 0.26168 0.37136 0.52724 0.0
C768 C 0.23167 0.3677 0.65757 0.0
C769 C 0.2391 0.36225 0.69201 0.0
C770 C 0.2303 0.36233 0.61014 0.0
C771 C 0.23696 0.35165 0.5967 0.0
C772 C 0.24452 0.34614 0.63139 0.0
C773 C 0.24529 0.35133 0.67891 0.0
C774 C 0.22172 0.36805 0.57447 0.0
C775 C 0.25206 0.33502 0.61814 0.0
H776 H 0.21322 0.31391 0.47458 0.0
H777 H 0.25589 0.35691 0.44023 0.0
H778 H 0.21505 0.31658 0.59595 0.0
H779 H 0.20471 0.32857 0.5825 0.0
H780 H 0.20048 0.31022 0.54873 0.0
H781 H 0.26983 0.37726 0.49688 0.0
H782 H 0.25738 0.38006 0.54164 0.0
H783 H 0.26853 0.36897 0.55606 0.0
H784 H 0.22681 0.37609 0.66784 0.0
H785 H 0.25118 0.34725 0.70551 0.0
H786 H 0.21189 0.35735 0.55749 0.0
H787 H 0.23002 0.37514 0.54566 0.0
H788 H 0.21669 0.37585 0.59114 0.0
H789 H 0.24292 0.32334 0.60343 0.0
H790 H 0.25786 0.33222 0.64913 0.0
H791 H 0.26113 0.34083 0.58987 0.0
C792 C 0.88115 0.65405 0.83734 0.0
C793 C 0.89273 0.66341 0.80398 0.0
C794 C 0.8816 0.65967 0.88417 0.0
C795 C 0.89426 0.6747 0.89825 0.0
C796 C 0.90606 0.68414 0.86465 0.0
C797 C 0.90497 0.67851 0.81753 0.0
C798 C 0.86849 0.64958 0.91847 0.0
C799 C 0.91997 0.70003 0.87871 0.0
C800 C 0.89034 0.6977 0.00644 0.0
C801 C 0.8979 0.69274 0.04172 0.0
C802 C 0.88862 0.69151 0.95989 0.0
C803 C 0.89516 0.68058 0.94811 0.0
C804 C 0.90277 0.6755 0.98378 0.0
C805 C 0.90379 0.68143 0.03055 0.0
C806 C 0.87993 0.69676 0.92329 0.0
C807 C 0.91028 0.66422 0.97219 0.0
H808 H 0.8716 0.64243 0.82654 0.0
H809 H 0.91398 0.68564 0.79166 0.0
H810 H 0.87351 0.64557 0.94887 0.0
H811 H 0.86288 0.6571 0.93339 0.0
H812 H 0.8591 0.63856 0.90119 0.0
H813 H 0.9284 0.70561 0.84871 0.0
H814 H 0.91562 0.70893 0.89121 0.0
H815 H 0.92653 0.69789 0.90883 0.0
H816 H 0.88571 0.7064 0.01537 0.0
H817 H 0.90978 0.67777 0.05789 0.0
H818 H 0.87034 0.68585 0.90627 0.0
H819 H 0.88827 0.70391 0.89466 0.0
H820 H 0.87456 0.70438 0.93915 0.0
H821 H 0.90119 0.6525 0.95755 0.0
H822 H 0.91586 0.66155 0.00393 0.0
H823 H 0.91953 0.66986 0.94431 0.0
C824 C 0.34493 0.23872 0.00012 0.0
C825 C 0.35246 0.2507 0.03505 0.0
C826 C 0.35091 0.24071 0.95346 0.0
C827 C 0.36449 0.25524 0.94119 0.0
C828 C 0.37244 0.26715 0.97675 0.0
C829 C 0.36643 0.26463 0.02353 0.0
C830 C 0.34234 0.22752 0.91692 0.0
C831 C 0.3868 0.28292 0.96483 0.0
C832 C 0.38587 0.25729 0.82411 0.0
C833 C 0.37872 0.2644 0.79383 0.0
C834 C 0.38129 0.25409 0.87218 0.0
C835 C 0.36958 0.2585 0.89047 0.0
C836 C 0.36244 0.26582 0.86003 0.0
C837 C 0.36697 0.26849 0.81191 0.0
C838 C 0.38884 0.24587 0.90322 0.0
C839 C 0.3501 0.27094 0.87837 0.0
H840 H 0.33421 0.22785 0.00915 0.0
H841 H 0.37221 0.27393 0.0505 0.0
H842 H 0.33654 0.2321 0.89011 0.0
H843 H 0.35094 0.2243 0.89757 0.0
H844 H 0.33307 0.21625 0.93336 0.0
H845 H 0.39221 0.29045 0.99706 0.0
H846 H 0.39598 0.28034 0.94654 0.0
H847 H 0.38325 0.29021 0.93988 0.0
H848 H 0.3949 0.25402 0.81005 0.0
H849 H 0.36151 0.2741 0.78861 0.0
H850 H 0.3795 0.23432 0.91795 0.0
H851 H 0.39497 0.25385 0.93397 0.0
H852 H 0.39761 0.24303 0.88335 0.0
H853 H 0.33952 0.26009 0.89145 0.0
H854 H 0.34618 0.27706 0.85051 0.0
H855 H 0.35499 0.27945 0.909 0.0
C856 C 0.73441 0.09297 0.8049 0.0
C857 C 0.73527 0.10837 0.79414 0.0
C858 C 0.73727 0.0892 0.85163 0.0
C859 C 0.74154 0.1013 0.8879 0.0
C860 C 0.7427 0.11695 0.87678 0.0
C861 C 0.73935 0.12021 0.83028 0.0
C862 C 0.73561 0.07227 0.86234 0.0
C863 C 0.74769 0.13037 0.91386 0.0
C864 C 0.73796 0.09068 0.02045 0.0
C865 C 0.75355 0.09339 0.03136 0.0
C866 C 0.73371 0.09266 0.97349 0.0
C867 C 0.74545 0.09792 0.93708 0.0
C868 C 0.76124 0.10081 0.94821 0.0
C869 C 0.76503 0.09831 0.99498 0.0
C870 C 0.71668 0.08915 0.96281 0.0
C871 C 0.77424 0.1069 0.91094 0.0
H872 H 0.73111 0.08375 0.77711 0.0
H873 H 0.74013 0.13218 0.82202 0.0
H874 H 0.7472 0.07298 0.87435 0.0
H875 H 0.72699 0.06675 0.89188 0.0
H876 H 0.73151 0.06404 0.83079 0.0
H877 H 0.74823 0.14195 0.89922 0.0
H878 H 0.73922 0.12644 0.94421 0.0
H879 H 0.7596 0.13285 0.92826 0.0
H880 H 0.72903 0.08676 0.04841 0.0
H881 H 0.77715 0.10053 0.0033 0.0
H882 H 0.71203 0.08026 0.93297 0.0
H883 H 0.7161 0.10054 0.95126 0.0
H884 H 0.70877 0.08415 0.99426 0.0
H885 H 0.77099 0.09822 0.88053 0.0
H886 H 0.78591 0.10848 0.92538 0.0
H887 H 0.77563 0.11883 0.89667 0.0
C888 C 0.9951 0.41422 0.87625 0.0
C889 C 0.98403 0.42057 0.88288 0.0
C890 C 0.00038 0.41281 0.83021 0.0
C891 C 0.99465 0.41817 0.79023 0.0
C892 C 0.9836 0.42474 0.79693 0.0
C893 C 0.97835 0.42575 0.84309 0.0
C894 C 0.01205 0.40559 0.82427 0.0
C895 C 0.97746 0.43092 0.7554 0.0
C896 C 0.01968 0.43163 0.67813 0.0
C897 C 0.01137 0.41859 0.64682 0.0
C898 C 0.01451 0.43148 0.72509 0.0
C899 C 0.00081 0.41782 0.74152 0.0
C900 C 0.99253 0.40442 0.71045 0.0
C901 C 0.99783 0.40502 0.66317 0.0
C902 C 0.02348 0.44617 0.75669 0.0
C903 C 0.97795 0.38958 0.72698 0.0
H904 H -0.00061 0.41006 0.9069 0.0
H905 H 0.96982 0.43072 0.84804 0.0
H906 H 0.00717 0.39511 0.79908 0.0
H907 H 0.02332 0.41484 0.80869 0.0
H908 H 0.0148 0.40132 0.85867 0.0
H909 H 0.96876 0.43552 0.7667 0.0
H910 H 0.98755 0.44099 0.73713 0.0
H911 H 0.97164 0.421 0.72886 0.0
H912 H 0.03011 0.44221 0.66564 0.0
H913 H 0.99143 0.3949 0.6391 0.0
H914 H 0.02727 0.44234 0.79007 0.0
H915 H 0.01555 0.45183 0.76697 0.0
H916 H 0.0342 0.4556 0.73887 0.0
H917 H 0.98065 0.38465 0.76021 0.0
H918 H 0.97354 0.37973 0.69963 0.0
H919 H 0.96826 0.39309 0.73543 0.0
C920 C 0.56183 0.5971 0.63692 0.0
C921 C 0.54722 0.59726 0.62679 0.0
C922 C 0.56552 0.59424 0.68349 0.0
C923 C 0.55416 0.59111 0.7203 0.0
C924 C 0.53912 0.59056 0.70971 0.0
C925 C 0.53591 0.59384 0.66312 0.0
C926 C 0.58177 0.59519 0.69366 0.0
C927 C 0.52656 0.58685 0.74778 0.0
C928 C 0.55957 0.57189 0.83474 0.0
C929 C 0.56597 0.58548 0.86523 0.0
C930 C 0.55549 0.57349 0.78752 0.0
C931 C 0.55823 0.58912 0.77029 0.0
C932 C 0.56478 0.6029 0.80092 0.0
C933 C 0.5684 0.60087 0.84829 0.0
C934 C 0.54817 0.55847 0.75619 0.0
C935 C 0.56809 0.61981 0.78354 0.0
H936 H 0.57061 0.59983 0.60884 0.0
H937 H 0.52454 0.59382 0.65516 0.0
H938 H 0.58826 0.60534 0.71902 0.0
H939 H 0.58058 0.58373 0.71083 0.0
H940 H 0.58906 0.59725 0.66081 0.0
H941 H 0.51508 0.58565 0.73289 0.0
H942 H 0.52443 0.57533 0.76651 0.0
H943 H 0.53076 0.59677 0.77483 0.0
H944 H 0.55758 0.55994 0.84796 0.0
H945 H 0.57343 0.6114 0.87182 0.0
H946 H 0.55585 0.55994 0.72463 0.0
H947 H 0.53643 0.55694 0.74274 0.0
H948 H 0.54651 0.54715 0.7754 0.0
H949 H 0.57618 0.62309 0.75223 0.0
H950 H 0.57362 0.6293 0.81154 0.0
H951 H 0.55685 0.62001 0.77171 0.0
C952 C 0.42126 0.01358 0.80251 0.0
C953 C 0.40951 0.0071 0.83782 0.0
C954 C 0.41787 0.00865 0.75485 0.0
C955 C 0.40234 0.99701 0.7423 0.0
C956 C 0.3904 0.99045 0.77775 0.0
C957 C 0.39415 0.99556 0.82526 0.0
C958 C 0.43094 0.01578 0.71801 0.0
C959 C 0.37371 0.97797 0.76551 0.0
C960 C 0.39066 0.99389 0.61163 0.0
C961 C 0.39299 0.98036 0.59712 0.0
C962 C 0.39349 0.99938 0.65909 0.0
C963 C 0.39884 0.99117 0.69236 0.0
C964 C 0.40124 0.97754 0.67776 0.0
C965 C 0.39826 0.97229 0.63031 0.0
C966 C 0.3908 0.01396 0.67366 0.0
C967 C 0.40705 0.96856 0.71217 0.0
H968 H 0.43317 0.0225 0.8121 0.0
H969 H 0.38503 0.99056 0.8525 0.0
H970 H 0.43318 0.00588 0.70159 0.0
H971 H 0.42722 0.02164 0.68896 0.0
H972 H 0.44228 0.02501 0.73351 0.0
H973 H 0.36568 0.97448 0.797 0.0
H974 H 0.3686 0.98288 0.73751 0.0
H975 H 0.37402 0.96678 0.75081 0.0
H976 H 0.38657 0.00012 0.58601 0.0
H977 H 0.40012 0.96183 0.61921 0.0
H978 H 0.40209 0.02389 0.68697 0.0
H979 H 0.38207 0.01053 0.70334 0.0
H980 H 0.38633 0.01878 0.64368 0.0
H981 H 0.41886 0.97706 0.72673 0.0
H982 H 0.40815 0.95807 0.69512 0.0
H983 H 0.39874 0.96391 0.74281 0.0
C984 C 0.56995 0.0188 0.35709 0.0
C985 C 0.56395 0.02969 0.37193 0.0
C986 C 0.56759 0.01282 0.31007 0.0
C987 C 0.55852 0.01739 0.27801 0.0
C988 C 0.55188 0.02787 0.29369 0.0
C989 C 0.55495 0.03416 0.34025 0.0
C990 C 0.57524 0.00204 0.29428 0.0
C991 C 0.54163 0.03252 0.26122 0.0
C992 C 0.56507 0.01544 0.1448 0.0
C993 C 0.55316 -0.00011 0.13328 0.0
C994 C 0.56697 0.02129 0.19189 0.0
C995 C 0.55633 0.01157 0.22773 0.0
C996 C 0.54382 0.99616 0.21566 0.0
C997 C 0.54258 0.99036 0.16869 0.0
C998 C 0.58071 0.03759 0.20361 0.0
C999 C 0.53188 0.98572 0.25245 0.0
H1000 H 0.57701 0.01548 0.38167 0.0
H1001 H 0.55021 0.0425 0.3521 0.0
H1002 H 0.56601 0.99011 0.28135 0.0
H1003 H 0.58345 0.00788 0.26403 0.0
H1004 H 0.58205 -0.00025 0.32346 0.0
H1005 H 0.53634 0.0397 0.28013 0.0
H1006 H 0.54886 0.03992 0.23095 0.0
H1007 H 0.53186 0.02137 0.24594 0.0
H1008 H 0.57336 0.0227 0.11742 0.0
H1009 H 0.53332 0.97835 0.15958 0.0
H1010 H 0.58853 0.03587 0.23062 0.0
H1011 H 0.57622 0.04595 0.21938 0.0
H1012 H 0.58799 0.04358 0.17169 0.0
H1013 H 0.53793 0.98172 0.27999 0.0
H1014 H 0.52214 0.97469 0.23642 0.0
H1015 H 0.52657 0.99296 0.27087 0.0
C1016 C 0.00188 0.56776 0.34837 0.0
C1017 C 0.00825 0.57971 0.38401 0.0
C1018 C 0.00799 0.57076 0.30183 0.0
C1019 C 0.0204 0.58629 0.29042 0.0
C1020 C 0.02711 0.59829 0.3266 0.0
C1021 C 0.02109 0.59474 0.37329 0.0
C1022 C 0.00088 0.55747 0.26462 0.0
C1023 C 0.0401 0.61511 0.31555 0.0
C1024 C 0.04402 0.5917 0.17613 0.0
C1025 C 0.03591 0.59738 0.14466 0.0
C1026 C 0.03899 0.58783 0.22358 0.0
C1027 C 0.02584 0.59019 0.24017 0.0
C1028 C 0.01773 0.59612 0.20858 0.0
C1029 C 0.02272 0.5994 0.1609 0.0
C1030 C 0.04761 0.58105 0.25576 0.0
C1031 C 0.00388 0.59914 0.22527 0.0
H1032 H 0.99198 0.55609 0.35685 0.0
H1033 H 0.02589 0.60403 0.40083 0.0
H1034 H 0.99448 0.56116 0.2374 0.0
H1035 H 0.01045 0.55563 0.24592 0.0
H1036 H 0.99239 0.54562 0.28033 0.0
H1037 H 0.04439 0.62286 0.34799 0.0
H1038 H 0.05036 0.61414 0.29845 0.0
H1039 H 0.03558 0.62134 0.28982 0.0
H1040 H 0.05415 0.59 0.1634 0.0
H1041 H 0.01653 0.60391 0.1366 0.0
H1042 H 0.0391 0.56896 0.26991 0.0
H1043 H 0.05273 0.58927 0.28683 0.0
H1044 H 0.05738 0.57959 0.23697 0.0
H1045 H 0.99401 0.5875 0.23742 0.0
H1046 H -0.0007 0.60442 0.19675 0.0
H1047 H 0.00755 0.60764 0.2562 0.0
C1048 C 0.41548 0.45124 0.15259 0.0
C1049 C 0.4002 0.44772 0.13606 0.0
C1050 C 0.41788 0.44781 0.20006 0.0
C1051 C 0.40459 0.44017 0.23091 0.0
C1052 C 0.38907 0.43608 0.21353 0.0
C1053 C 0.38711 0.44024 0.16657 0.0
C1054 C 0.43466 0.4528 0.2176 0.0
C1055 C 0.37455 0.4274 0.24457 0.0
C1056 C 0.41156 0.41918 0.3395 0.0
C1057 C 0.41337 0.43046 0.37583 0.0
C1058 C 0.40803 0.42186 0.29257 0.0
C1059 C 0.40695 0.43652 0.28137 0.0
C1060 C 0.40854 0.44785 0.31823 0.0
C1061 C 0.41147 0.44453 0.36531 0.0
C1062 C 0.4058 0.40918 0.2548 0.0
C1063 C 0.4079 0.46381 0.30758 0.0
H1064 H 0.4256 0.4573 0.129 0.0
H1065 H 0.3753 0.43759 0.15353 0.0
H1066 H 0.43716 0.46117 0.24864 0.0
H1067 H 0.43599 0.44189 0.22992 0.0
H1068 H 0.4437 0.45904 0.18954 0.0
H1069 H 0.36328 0.42417 0.22468 0.0
H1070 H 0.37443 0.41603 0.25934 0.0
H1071 H 0.37495 0.43528 0.27525 0.0
H1072 H 0.41307 0.40831 0.34779 0.0
H1073 H 0.41317 0.45338 0.39336 0.0
H1074 H 0.41566 0.41421 0.22852 0.0
H1075 H 0.39452 0.40598 0.23507 0.0
H1076 H 0.40556 0.39782 0.27019 0.0
H1077 H 0.41758 0.47111 0.28236 0.0
H1078 H 0.40919 0.47122 0.34028 0.0
H1079 H 0.39646 0.46148 0.29005 0.0
C1080 C 0.32724 0.19103 0.23694 0.0
C1081 C 0.32946 0.19999 0.19475 0.0
C1082 C 0.32804 0.17605 0.23695 0.0
C1083 C 0.33071 0.16977 0.19341 0.0
C1084 C 0.33377 0.17917 0.1511 0.0
C1085 C 0.33329 0.19436 0.15241 0.0
C1086 C 0.32517 0.16656 0.28302 0.0
C1087 C 0.33646 0.17273 0.10397 0.0
C1088 C 0.33999 0.1333 0.19848 0.0
C1089 C 0.32478 0.12029 0.19269 0.0
C1090 C 0.34217 0.14953 0.19849 0.0
C1091 C 0.32884 0.15277 0.19164 0.0
C1092 C 0.31348 0.1397 0.18511 0.0
C1093 C 0.31161 0.12356 0.18626 0.0
C1094 C 0.35863 0.16318 0.2067 0.0
C1095 C 0.29903 0.14276 0.17709 0.0
H1096 H 0.32444 0.19555 0.26975 0.0
H1097 H 0.33489 0.20132 0.11979 0.0
H1098 H 0.31344 0.15566 0.28145 0.0
H1099 H 0.33438 0.16211 0.28825 0.0
H1100 H 0.32525 0.17404 0.3145 0.0
H1101 H 0.34021 0.18218 0.07552 0.0
H1102 H 0.34566 0.1682 0.10762 0.0
H1103 H 0.32527 0.16221 0.09253 0.0
H1104 H 0.35019 0.13076 0.20382 0.0
H1105 H 0.29988 0.11352 0.18134 0.0
H1106 H 0.35867 0.17 0.2396 0.0
H1107 H 0.36204 0.17201 0.1767 0.0
H1108 H 0.36779 0.15858 0.21039 0.0
H1109 H 0.29691 0.14878 0.20896 0.0
H1110 H 0.28811 0.13128 0.17001 0.0
H1111 H 0.3011 0.15116 0.14643 0.0
C1112 C 0.79095 0.14661 0.16645 0.0
C1113 C 0.80129 0.13919 0.16346 0.0
C1114 C 0.79672 0.16365 0.16326 0.0
C1115 C 0.81316 0.17347 0.1554 0.0
C1116 C 0.82359 0.16598 0.15075 0.0
C1117 C 0.81756 0.14893 0.15568 0.0
C1118 C 0.78531 0.17118 0.16996 0.0
C1119 C 0.84113 0.17601 0.14105 0.0
C1120 C 0.82702 0.21698 0.10985 0.0
C1121 C 0.83397 0.22609 0.15096 0.0
C1122 C 0.82003 0.19978 0.11076 0.0
C1123 C 0.8196 0.19161 0.15416 0.0
C1124 C 0.82586 0.20083 0.19631 0.0
C1125 C 0.83323 0.21797 0.19399 0.0
C1126 C 0.81386 0.1904 0.06487 0.0
C1127 C 0.82519 0.1926 0.2436 0.0
H1128 H 0.77837 0.13911 0.17303 0.0
H1129 H 0.82554 0.1432 0.1531 0.0
H1130 H 0.7889 0.17933 0.20168 0.0
H1131 H 0.78578 0.17884 0.1387 0.0
H1132 H 0.77282 0.16181 0.17491 0.0
H1133 H 0.84736 0.16823 0.13459 0.0
H1134 H 0.84282 0.18395 0.10947 0.0
H1135 H 0.84684 0.18413 0.17189 0.0
H1136 H 0.82787 0.2233 0.07641 0.0
H1137 H 0.83867 0.22506 0.22574 0.0
H1138 H 0.80132 0.18114 0.06923 0.0
H1139 H 0.82097 0.18372 0.05571 0.0
H1140 H 0.81449 0.19854 0.03458 0.0
H1141 H 0.81285 0.18331 0.25103 0.0
H1142 H 0.82927 0.20148 0.27366 0.0
H1143 H 0.83284 0.18611 0.24225 0.0
C1144 C 0.84885 0.6867 0.16215 0.0
C1145 C 0.8552 0.70272 0.18063 0.0
C1146 C 0.83235 0.67712 0.15792 0.0
C1147 C 0.82182 0.68371 0.17192 0.0
C1148 C 0.8281 0.69996 0.18973 0.0
C1149 C 0.8447 0.70923 0.19419 0.0
C1150 C 0.82618 0.65981 0.1394 0.0
C1151 C 0.81725 0.70749 0.20448 0.0
C1152 C 0.77894 0.66475 0.1272 0.0
C1153 C 0.77065 0.65654 0.16801 0.0
C1154 C 0.79567 0.67327 0.12738 0.0
C1155 C 0.80423 0.67344 0.16932 0.0
C1156 C 0.79588 0.66432 0.20968 0.0
C1157 C 0.77916 0.65616 0.20872 0.0
C1158 C 0.80407 0.68293 0.08377 0.0
C1159 C 0.80453 0.66387 0.25476 0.0
H1160 H 0.85677 0.68143 0.15171 0.0
H1161 H 0.84945 0.72157 0.20831 0.0
H1162 H 0.81886 0.65108 0.16727 0.0
H1163 H 0.81836 0.65808 0.10804 0.0
H1164 H 0.83595 0.65663 0.1289 0.0
H1165 H 0.82398 0.72048 0.21555 0.0
H1166 H 0.80921 0.70683 0.17453 0.0
H1167 H 0.80962 0.7005 0.23467 0.0
H1168 H 0.77227 0.66541 0.09625 0.0
H1169 H 0.77267 0.65011 0.24061 0.0
H1170 H 0.81395 0.67997 0.07324 0.0
H1171 H 0.8094 0.6962 0.09214 0.0
H1172 H 0.79587 0.68052 0.05293 0.0
H1173 H 0.81433 0.66053 0.2464 0.0
H1174 H 0.79646 0.65502 0.28121 0.0
H1175 H 0.80997 0.6762 0.27137 0.0
C1176 C 0.12707 0.32683 0.33571 0.0
C1177 C 0.11801 0.3239 0.29397 0.0
C1178 C 0.13984 0.3227 0.33844 0.0
C1179 C 0.14394 0.31612 0.29776 0.0
C1180 C 0.13482 0.31321 0.25541 0.0
C1181 C 0.12172 0.31686 0.25434 0.0
C1182 C 0.149 0.32551 0.38464 0.0
C1183 C 0.1392 0.30677 0.21081 0.0
C1184 C 0.18685 0.32302 0.29004 0.0
C1185 C 0.18547 0.30737 0.30006 0.0
C1186 C 0.17336 0.32595 0.2884 0.0
C1187 C 0.15824 0.31304 0.29879 0.0
C1188 C 0.15684 0.29728 0.30998 0.0
C1189 C 0.17049 0.29454 0.30955 0.0
C1190 C 0.17527 0.34279 0.27482 0.0
C1191 C 0.14097 0.28339 0.32282 0.0
H1192 H 0.12403 0.33218 0.3664 0.0
H1193 H 0.11472 0.31476 0.22199 0.0
H1194 H 0.14975 0.31414 0.39558 0.0
H1195 H 0.16136 0.33509 0.37958 0.0
H1196 H 0.14343 0.3294 0.41402 0.0
H1197 H 0.13084 0.30516 0.18089 0.0
H1198 H 0.15141 0.31536 0.19934 0.0
H1199 H 0.13929 0.29483 0.21815 0.0
H1200 H 0.19848 0.33287 0.28218 0.0
H1201 H 0.16953 0.28248 0.31756 0.0
H1202 H 0.17134 0.34817 0.30464 0.0
H1203 H 0.16762 0.34191 0.24361 0.0
H1204 H 0.18779 0.35126 0.26583 0.0
H1205 H 0.13563 0.28702 0.35332 0.0
H1206 H 0.14203 0.27208 0.33255 0.0
H1207 H 0.1326 0.2806 0.29236 0.0
C1208 C 0.64762 0.82355 0.35596 0.0
C1209 C 0.65126 0.81015 0.35547 0.0
C1210 C 0.65973 0.83965 0.35246 0.0
C1211 C 0.67587 0.84243 0.34957 0.0
C1212 C 0.67961 0.82895 0.34939 0.0
C1213 C 0.66726 0.81299 0.35181 0.0
C1214 C 0.65524 0.8537 0.35185 0.0
C1215 C 0.69666 0.83138 0.34749 0.0
C1216 C 0.70624 0.88369 0.30281 0.0
C1217 C 0.71168 0.89258 0.34528 0.0
C1218 C 0.69474 0.86726 0.30361 0.0
C1219 C 0.68886 0.85946 0.34797 0.0
C1220 C 0.69501 0.86815 0.39098 0.0
C1221 C 0.70617 0.88466 0.38909 0.0
C1222 C 0.68827 0.85852 0.25698 0.0
C1223 C 0.68942 0.86018 0.43902 0.0
H1224 H 0.63529 0.82144 0.35846 0.0
H1225 H 0.67021 0.80272 0.35182 0.0
H1226 H 0.6604 0.86166 0.38341 0.0
H1227 H 0.66025 0.86133 0.31963 0.0
H1228 H 0.64213 0.84946 0.3521 0.0
H1229 H 0.69756 0.8196 0.34759 0.0
H1230 H 0.70258 0.83829 0.3149 0.0
H1231 H 0.70335 0.83876 0.37861 0.0
H1232 H 0.71026 0.88986 0.26888 0.0
H1233 H 0.71035 0.89153 0.42199 0.0
H1234 H 0.67543 0.85549 0.25402 0.0
H1235 H 0.68926 0.84681 0.25577 0.0
H1236 H 0.6946 0.86602 0.22562 0.0
H1237 H 0.67668 0.85727 0.44408 0.0
H1238 H 0.69636 0.86816 0.46891 0.0
H1239 H 0.6904 0.84847 0.44084 0.0
C1240 C 0.1809 0.87565 0.27522 0.0
C1241 C 0.18967 0.88072 0.31757 0.0
C1242 C 0.16461 0.86487 0.27603 0.0
C1243 C 0.15681 0.85949 0.32044 0.0
C1244 C 0.16583 0.86393 0.36325 0.0
C1245 C 0.18225 0.87439 0.36124 0.0
C1246 C 0.15558 0.86008 0.22947 0.0
C1247 C 0.15795 0.85868 0.41133 0.0
C1248 C 0.1132 0.85108 0.31819 0.0
C1249 C 0.10546 0.83395 0.31636 0.0
C1250 C 0.12987 0.85948 0.32163 0.0
C1251 C 0.13908 0.85056 0.32194 0.0
C1252 C 0.13132 0.83325 0.32079 0.0
C1253 C 0.1146 0.82515 0.31857 0.0
C1254 C 0.13766 0.87795 0.32391 0.0
C1255 C 0.14068 0.82331 0.31996 0.0
H1256 H 0.18668 0.88068 0.2415 0.0
H1257 H 0.18901 0.87861 0.39402 0.0
H1258 H 0.14791 0.84669 0.22836 0.0
H1259 H 0.14768 0.86625 0.22634 0.0
H1260 H 0.16368 0.86355 0.19813 0.0
H1261 H 0.16679 0.86151 0.44059 0.0
H1262 H 0.1505 0.86515 0.41868 0.0
H1263 H 0.14994 0.84537 0.41162 0.0
H1264 H 0.1062 0.85794 0.3169 0.0
H1265 H 0.10871 0.8119 0.3168 0.0
H1266 H 0.14476 0.88304 0.29108 0.0
H1267 H 0.14599 0.88225 0.35465 0.0
H1268 H 0.12881 0.88298 0.32738 0.0
H1269 H 0.14772 0.82586 0.2865 0.0
H1270 H 0.13286 0.80995 0.32205 0.0
H1271 H 0.14925 0.82686 0.35008 0.0
C1272 C 0.63835 0.85055 0.86019 0.0
C1273 C 0.65099 0.86536 0.87398 0.0
C1274 C 0.64052 0.83634 0.85552 0.0
C1275 C 0.65556 0.83693 0.8663 0.0
C1276 C 0.66845 0.85194 0.87937 0.0
C1277 C 0.66605 0.86607 0.88241 0.0
C1278 C 0.62663 0.82062 0.84017 0.0
C1279 C 0.68455 0.85292 0.89211 0.0
C1280 C 0.65389 0.79668 0.9076 0.0
C1281 C 0.65902 0.79149 0.86677 0.0
C1282 C 0.65328 0.81177 0.90842 0.0
C1283 C 0.65744 0.82161 0.86687 0.0
C1284 C 0.66274 0.81647 0.82559 0.0
C1285 C 0.66369 0.80151 0.82629 0.0
C1286 C 0.64796 0.81707 0.9535 0.0
C1287 C 0.66687 0.82648 0.78032 0.0
H1288 H 0.62675 0.85008 0.85307 0.0
H1289 H 0.6758 0.87755 0.89328 0.0
H1290 H 0.63018 0.81495 0.81018 0.0
H1291 H 0.6229 0.81176 0.87014 0.0
H1292 H 0.61621 0.82259 0.82881 0.0
H1293 H 0.69353 0.86568 0.8992 0.0
H1294 H 0.68344 0.84545 0.92445 0.0
H1295 H 0.68899 0.84778 0.86292 0.0
H1296 H 0.65046 0.78895 0.93905 0.0
H1297 H 0.66756 0.79739 0.79464 0.0
H1298 H 0.63653 0.81768 0.94704 0.0
H1299 H 0.65685 0.8295 0.9641 0.0
H1300 H 0.6463 0.80855 0.98368 0.0
H1301 H 0.65619 0.82755 0.76692 0.0
H1302 H 0.67124 0.82097 0.75182 0.0
H1303 H 0.67614 0.83906 0.78754 0.0
C1304 C 0.16484 0.8856 0.85894 0.0
C1305 C 0.16625 0.89452 0.81706 0.0
C1306 C 0.1574 0.86844 0.85858 0.0
C1307 C 0.15169 0.86002 0.81493 0.0
C1308 C 0.15296 0.86899 0.77254 0.0
C1309 C 0.16003 0.88618 0.77425 0.0
C1310 C 0.15584 0.85934 0.90481 0.0
C1311 C 0.14738 0.86045 0.72515 0.0
C1312 C 0.14784 0.81665 0.81294 0.0
C1313 C 0.1314 0.80739 0.81902 0.0
C1314 C 0.15454 0.83379 0.8095 0.0
C1315 C 0.1446 0.84183 0.81385 0.0
C1316 C 0.12798 0.83251 0.81966 0.0
C1317 C 0.12155 0.81539 0.82147 0.0
C1318 C 0.17227 0.8433 0.80196 0.0
C1319 C 0.11704 0.84063 0.82582 0.0
H1320 H 0.16965 0.89208 0.89207 0.0
H1321 H 0.16135 0.8931 0.74172 0.0
H1322 H 0.14324 0.85043 0.91067 0.0
H1323 H 0.16296 0.85229 0.90295 0.0
H1324 H 0.15996 0.8677 0.93606 0.0
H1325 H 0.14903 0.86919 0.69561 0.0
H1326 H 0.1541 0.85331 0.7165 0.0
H1327 H 0.1346 0.85166 0.7271 0.0
H1328 H 0.15545 0.81048 0.81072 0.0
H1329 H 0.10884 0.80828 0.82668 0.0
H1330 H 0.17782 0.85084 0.83397 0.0
H1331 H 0.17469 0.85179 0.77135 0.0
H1332 H 0.1781 0.83517 0.79514 0.0
H1333 H 0.12039 0.84829 0.85856 0.0
H1334 H 0.10433 0.83161 0.8287 0.0
H1335 H 0.11833 0.84887 0.79531 0.0
C1336 C 0.12098 0.32787 0.7796 0.0
C1337 C 0.11116 0.3198 0.81813 0.0
C1338 C 0.13763 0.33472 0.78377 0.0
C1339 C 0.14455 0.33351 0.8277 0.0
C1340 C 0.1346 0.3242 0.86544 0.0
C1341 C 0.11796 0.31756 0.86032 0.0
C1342 C 0.14775 0.34452 0.74262 0.0
C1343 C 0.14147 0.32239 0.91257 0.0
C1344 C 0.18936 0.34751 0.8287 0.0
C1345 C 0.19503 0.36361 0.84608 0.0
C1346 C 0.17297 0.3374 0.82376 0.0
C1347 C 0.16194 0.34357 0.83578 0.0
C1348 C 0.16756 0.35973 0.85386 0.0
C1349 C 0.18402 0.3695 0.85913 0.0
C1350 C 0.16746 0.32016 0.80525 0.0
C1351 C 0.15617 0.36683 0.86676 0.0
H1352 H 0.11565 0.32993 0.74745 0.0
H1353 H 0.11032 0.31168 0.8905 0.0
H1354 H 0.15319 0.35773 0.75188 0.0
H1355 H 0.15761 0.34114 0.73563 0.0
H1356 H 0.1407 0.34269 0.70935 0.0
H1357 H 0.13245 0.31267 0.93502 0.0
H1358 H 0.1517 0.31948 0.90692 0.0
H1359 H 0.14594 0.33412 0.93246 0.0
H1360 H 0.19775 0.34274 0.81902 0.0
H1361 H 0.18826 0.38189 0.87255 0.0
H1362 H 0.16122 0.31878 0.77066 0.0
H1363 H 0.15881 0.3113 0.83047 0.0
H1364 H 0.1775 0.3169 0.80001 0.0
H1365 H 0.1492 0.36695 0.83482 0.0
H1366 H 0.16242 0.37951 0.88086 0.0
H1367 H 0.14757 0.35908 0.89405 0.0
C1368 C 0.78416 0.65571 0.66311 0.0
C1369 C 0.76963 0.64257 0.67522 0.0
C1370 C 0.79831 0.65396 0.66329 0.0
C1371 C 0.79791 0.63882 0.67706 0.0
C1372 C 0.7834 0.62578 0.69173 0.0
C1373 C 0.76935 0.62773 0.68998 0.0
C1374 C 0.81352 0.66804 0.6465 0.0
C1375 C 0.78266 0.60962 0.70786 0.0
C1376 C 0.8296 0.62845 0.62441 0.0
C1377 C 0.84097 0.63343 0.66096 0.0
C1378 C 0.81544 0.63001 0.62945 0.0
C1379 C 0.81245 0.63631 0.67257 0.0
C1380 C 0.82365 0.64083 0.71027 0.0
C1381 C 0.83793 0.63955 0.70375 0.0
C1382 C 0.8039 0.62541 0.58809 0.0
C1383 C 0.82065 0.64721 0.75713 0.0
H1384 H 0.78436 0.66716 0.65136 0.0
H1385 H 0.75812 0.61762 0.69981 0.0
H1386 H 0.82301 0.67107 0.67373 0.0
H1387 H 0.81775 0.66445 0.61347 0.0
H1388 H 0.81191 0.67921 0.63896 0.0
H1389 H 0.77083 0.60138 0.7229 0.0
H1390 H 0.78512 0.60335 0.6772 0.0
H1391 H 0.79192 0.61165 0.73524 0.0
H1392 H 0.83203 0.62384 0.59119 0.0
H1393 H 0.84669 0.64326 0.73221 0.0
H1394 H 0.80234 0.63626 0.57633 0.0
H1395 H 0.79204 0.61596 0.59935 0.0
H1396 H 0.80799 0.62062 0.55711 0.0
H1397 H 0.82018 0.65905 0.7514 0.0
H1398 H 0.83004 0.64906 0.78398 0.0
H1399 H 0.80894 0.63855 0.77189 0.0
C1400 C 0.35437 0.2168 0.64375 0.0
C1401 C 0.36882 0.22083 0.66765 0.0
C1402 C 0.34204 0.20082 0.64488 0.0
C1403 C 0.34408 0.18861 0.67121 0.0
C1404 C 0.35861 0.19261 0.6956 0.0
C1405 C 0.37086 0.20865 0.69322 0.0
C1406 C 0.32683 0.19701 0.61779 0.0
C1407 C 0.36116 0.17997 0.72456 0.0
C1408 C 0.30705 0.15117 0.71125 0.0
C1409 C 0.30666 0.13922 0.67883 0.0
C1410 C 0.31915 0.16729 0.70916 0.0
C1411 C 0.33099 0.17165 0.6733 0.0
C1412 C 0.33041 0.15976 0.63969 0.0
C1413 C 0.31834 0.14368 0.64309 0.0
C1414 C 0.31945 0.17957 0.74595 0.0
C1415 C 0.34263 0.164 0.60036 0.0
H1416 H 0.35273 0.22614 0.62372 0.0
H1417 H 0.38196 0.21172 0.71199 0.0
H1418 H 0.32453 0.18698 0.59185 0.0
H1419 H 0.3166 0.19269 0.64281 0.0
H1420 H 0.32727 0.2078 0.59814 0.0
H1421 H 0.37306 0.18508 0.74188 0.0
H1422 H 0.35188 0.17494 0.75263 0.0
H1423 H 0.35997 0.16961 0.70134 0.0
H1424 H 0.29815 0.14781 0.73919 0.0
H1425 H 0.31808 0.13456 0.61769 0.0
H1426 H 0.31905 0.19026 0.7281 0.0
H1427 H 0.33074 0.18417 0.7665 0.0
H1428 H 0.30932 0.17427 0.77133 0.0
H1429 H 0.34292 0.17441 0.57911 0.0
H1430 H 0.34015 0.15351 0.57596 0.0
H1431 H 0.35466 0.16792 0.61601 0.0
C1432 C 0.78158 0.1526 0.65722 0.0
C1433 C 0.77201 0.16094 0.6558 0.0
C1434 C 0.79829 0.16114 0.65744 0.0
C1435 C 0.80563 0.17846 0.65747 0.0
C1436 C 0.79602 0.18695 0.65782 0.0
C1437 C 0.77934 0.1781 0.65628 0.0
C1438 C 0.80806 0.15162 0.65581 0.0
C1439 C 0.80338 0.20541 0.65897 0.0
C1440 C 0.84924 0.20257 0.69273 0.0
C1441 C 0.8563 0.2084 0.64831 0.0
C1442 C 0.83278 0.19241 0.69633 0.0
C1443 C 0.82332 0.18776 0.65437 0.0
C1444 C 0.83068 0.19285 0.60925 0.0
C1445 C 0.84703 0.20334 0.60686 0.0
C1446 C 0.82536 0.18753 0.74514 0.0
C1447 C 0.82117 0.18782 0.56355 0.0
H1448 H 0.77601 0.13934 0.6564 0.0
H1449 H 0.77201 0.18461 0.65552 0.0
H1450 H 0.81496 0.15436 0.62206 0.0
H1451 H 0.81678 0.15539 0.68557 0.0
H1452 H 0.80056 0.1382 0.65801 0.0
H1453 H 0.7943 0.21012 0.66309 0.0
H1454 H 0.81201 0.21014 0.68887 0.0
H1455 H 0.81006 0.21041 0.62544 0.0
H1456 H 0.85639 0.2068 0.72481 0.0
H1457 H 0.85253 0.20803 0.57257 0.0
H1458 H 0.8178 0.17414 0.7468 0.0
H1459 H 0.81753 0.19359 0.75216 0.0
H1460 H 0.83446 0.19103 0.77387 0.0
H1461 H 0.8137 0.17439 0.56292 0.0
H1462 H 0.82892 0.19135 0.53142 0.0
H1463 H 0.81303 0.19374 0.56147 0.0
C1464 C 0.98404 0.4554 0.51745 0.0
C1465 C 0.99858 0.45569 0.53109 0.0
C1466 C 0.98207 0.46979 0.51664 0.0
C1467 C 0.99482 0.48469 0.53114 0.0
C1468 C 0.00957 0.48507 0.54474 0.0
C1469 C 0.01135 0.47054 0.54391 0.0
C1470 C 0.96629 0.46899 0.50079 0.0
C1471 C 0.02328 0.5007 0.56148 0.0
C1472 C 0.99258 0.5239 0.49668 0.0
C1473 C 0.98526 0.52665 0.5371 0.0
C1474 C 0.996 0.51037 0.49439 0.0
C1475 C 0.99238 0.49969 0.53399 0.0
C1476 C 0.98555 0.5028 0.57558 0.0
C1477 C 0.98187 0.51615 0.57638 0.0
C1478 C 0.00292 0.50718 0.44905 0.0
C1479 C 0.98186 0.49187 0.6189 0.0
H1480 H 0.97423 0.44392 0.50696 0.0
H1481 H 0.02257 0.4707 0.55468 0.0
H1482 H 0.96052 0.47217 0.53106 0.0
H1483 H 0.96819 0.47805 0.47208 0.0
H1484 H 0.958 0.45665 0.48744 0.0
H1485 H 0.03408 0.49899 0.5697 0.0
H1486 H 0.02635 0.51034 0.53387 0.0
H1487 H 0.01973 0.50524 0.59404 0.0
H1488 H 0.99511 0.532 0.4662 0.0
H1489 H 0.97638 0.51841 0.60786 0.0
H1490 H 0.99437 0.4954 0.43312 0.0
H1491 H 0.01402 0.50603 0.45696 0.0
H1492 H 0.00563 0.51703 0.42223 0.0
H1493 H 0.9724 0.47953 0.6101 0.0
H1494 H 0.9778 0.49677 0.64968 0.0
H1495 H 0.99257 0.49038 0.62981 0.0
C1496 C 0.4564 0.48502 0.48377 0.0
C1497 C 0.46665 0.47747 0.4869 0.0
C1498 C 0.46238 0.50198 0.4775 0.0
C1499 C 0.47901 0.51163 0.47307 0.0
C1500 C 0.48937 0.50399 0.47395 0.0
C1501 C 0.48308 0.48702 0.48155 0.0
C1502 C 0.45097 0.50967 0.47798 0.0
C1503 C 0.50714 0.51381 0.46814 0.0
C1504 C 0.49462 0.55533 0.42683 0.0
C1505 C 0.50005 0.56432 0.46911 0.0
C1506 C 0.48762 0.53811 0.42742 0.0
C1507 C 0.48567 0.5298 0.47148 0.0
C1508 C 0.49046 0.53889 0.51444 0.0
C1509 C 0.49781 0.55603 0.51263 0.0
C1510 C 0.48297 0.52886 0.38082 0.0
C1511 C 0.48817 0.53053 0.5623 0.0
H1512 H 0.44368 0.47774 0.48821 0.0
H1513 H 0.49104 0.48125 0.48352 0.0
H1514 H 0.45328 0.51763 0.5099 0.0
H1515 H 0.45282 0.51753 0.44615 0.0
H1516 H 0.43832 0.50037 0.47875 0.0
H1517 H 0.51335 0.50588 0.46469 0.0
H1518 H 0.50979 0.52175 0.43611 0.0
H1519 H 0.51209 0.52194 0.49949 0.0
H1520 H 0.49659 0.56177 0.39311 0.0
H1521 H 0.50201 0.563 0.54534 0.0
H1522 H 0.47035 0.51958 0.38194 0.0
H1523 H 0.49033 0.52219 0.37509 0.0
H1524 H 0.48462 0.53708 0.34989 0.0
H1525 H 0.47556 0.52143 0.56674 0.0
H1526 H 0.49148 0.53934 0.59249 0.0
H1527 H 0.49558 0.52379 0.56428 0.0
C1528 C 0.51306 0.04259 0.54423 0.0
C1529 C 0.52367 0.04014 0.51352 0.0
C1530 C 0.49648 0.03401 0.53758 0.0
C1531 C 0.49037 0.02289 0.4989 0.0
C1532 C 0.50102 0.02038 0.46783 0.0
C1533 C 0.51748 0.02894 0.47563 0.0
C1534 C 0.48549 0.03692 0.57174 0.0
C1535 C 0.49504 0.00888 0.42572 0.0
C1536 C 0.44645 0.99217 0.50171 0.0
C1537 C 0.43955 0.00061 0.47604 0.0
C1538 C 0.46306 0.99912 0.5089 0.0
C1539 C 0.47289 0.0147 0.48918 0.0
C1540 C 0.46596 0.02279 0.46107 0.0
C1541 C 0.44938 0.01574 0.45534 0.0
C1542 C 0.46999 0.9902 0.53948 0.0
C1543 C 0.47598 0.0392 0.43844 0.0
H1544 H 0.51771 0.05109 0.57378 0.0
H1545 H 0.52555 0.02698 0.45147 0.0
H1546 H 0.47864 0.04237 0.55236 0.0
H1547 H 0.47675 0.02512 0.58695 0.0
H1548 H 0.49206 0.04522 0.60151 0.0
H1549 H 0.50486 0.00793 0.4057 0.0
H1550 H 0.4866 0.99648 0.43792 0.0
H1551 H 0.48843 0.01319 0.40092 0.0
H1552 H 0.43881 0.98061 0.51843 0.0
H1553 H 0.44399 0.02228 0.43561 0.0
H1554 H 0.47512 0.99736 0.57246 0.0
H1555 H 0.47983 0.98901 0.52037 0.0
H1556 H 0.46092 0.97779 0.54976 0.0
H1557 H 0.48158 0.04856 0.46666 0.0
H1558 H 0.46887 0.04329 0.41484 0.0
H1559 H 0.48574 0.03864 0.41714 0.0
C1560 C 0.43371 0.96753 0.98048 0.0
C1561 C 0.43727 0.98343 0.96528 0.0
C1562 C 0.44581 0.96244 0.98535 0.0
C1563 C 0.46167 0.97341 0.97345 0.0
C1564 C 0.46521 0.98935 0.95707 0.0
C1565 C 0.45299 0.99423 0.95378 0.0
C1566 C 0.44172 0.94549 0.00401 0.0
C1567 C 0.48193 0.00129 0.94303 0.0
C1568 C 0.49847 0.9711 0.02057 0.0
C1569 C 0.50304 0.96473 0.981 0.0
C1570 C 0.4843 0.97283 0.01999 0.0
C1571 C 0.47475 0.96849 0.97833 0.0
C1572 C 0.47893 0.96132 0.93916 0.0
C1573 C 0.49296 0.95934 0.94121 0.0
C1574 C 0.48001 0.98013 0.06292 0.0
C1575 C 0.46921 0.95685 0.89377 0.0
H1576 H 0.42154 0.95922 0.98969 0.0
H1577 H 0.45572 0.00648 0.94153 0.0
H1578 H 0.44536 0.9386 0.9779 0.0
H1579 H 0.44841 0.94638 0.03746 0.0
H1580 H 0.42878 0.93842 0.01135 0.0
H1581 H 0.48251 0.01295 0.9289 0.0
H1582 H 0.48996 0.00414 0.97437 0.0
H1583 H 0.48657 0.99576 0.91538 0.0
H1584 H 0.50618 0.97508 0.05162 0.0
H1585 H 0.49652 0.95447 0.91049 0.0
H1586 H 0.46725 0.97296 0.07209 0.0
H1587 H 0.48191 0.99278 0.05456 0.0
H1588 H 0.48734 0.9806 0.09464 0.0
H1589 H 0.4564 0.94949 0.90181 0.0
H1590 H 0.4731 0.94984 0.86868 0.0
H1591 H 0.47045 0.96819 0.87565 0.0
C1592 C 0.03731 0.54822 0.94313 0.0
C1593 C 0.04219 0.55791 0.98436 0.0
C1594 C 0.02678 0.53146 0.9461 0.0
C1595 C 0.02137 0.52422 0.99142 0.0
C1596 C 0.02704 0.53381 0.03322 0.0
C1597 C 0.0372 0.55057 0.02913 0.0
C1598 C 0.02079 0.52172 0.90069 0.0
C1599 C 0.02193 0.52652 0.08228 0.0
C1600 C 0.98155 0.48674 0.00603 0.0
C1601 C 0.98626 0.47412 0.00946 0.0
C1602 C 0.99282 0.50303 0.99846 0.0
C1603 C 0.00922 0.50684 0.9954 0.0
C1604 C 0.01403 0.49413 0.99861 0.0
C1605 C 0.00249 0.47792 0.00507 0.0
C1606 C 0.98718 0.51619 0.99428 0.0
C1607 C 0.0314 0.4977 0.99664 0.0
H1608 H 0.04096 0.55394 0.90847 0.0
H1609 H 0.04096 0.55806 0.06105 0.0
H1610 H 0.0225 0.51041 0.90192 0.0
H1611 H 0.00781 0.51791 0.89707 0.0
H1612 H 0.02689 0.52885 0.86852 0.0
H1613 H 0.02851 0.53527 0.11114 0.0
H1614 H 0.00901 0.52278 0.08709 0.0
H1615 H 0.02384 0.51537 0.08624 0.0
H1616 H 0.96903 0.48389 0.00896 0.0
H1617 H 0.00626 0.46826 0.00798 0.0
H1618 H 0.99188 0.52333 0.96105 0.0
H1619 H 0.99182 0.52485 0.02466 0.0
H1620 H 0.97397 0.51109 0.99403 0.0
H1621 H 0.03693 0.5044 0.9634 0.0
H1622 H 0.03315 0.48639 0.99817 0.0
H1623 H 0.03786 0.50571 0.02702 0.0
C1624 C 0.44668 0.50136 0.0365 0.0
C1625 C 0.43768 0.50538 0.0033 0.0
C1626 C 0.46333 0.51036 0.039 0.0
C1627 C 0.4712 0.52355 0.00719 0.0
C1628 C 0.4622 0.52771 0.97381 0.0
C1629 C 0.44557 0.51867 0.97251 0.0
C1630 C 0.47249 0.50574 0.07563 0.0
C1631 C 0.47015 0.54165 0.93907 0.0
C1632 C 0.51139 0.55884 0.03257 0.0
C1633 C 0.52139 0.55528 0.00234 0.0
C1634 C 0.49521 0.54803 0.03698 0.0
C1635 C 0.4888 0.53349 0.00951 0.0
C1636 C 0.49906 0.52944 0.98069 0.0
C1637 C 0.51535 0.54039 0.97772 0.0
C1638 C 0.4848 0.55269 0.06882 0.0
C1639 C 0.49266 0.51413 0.95055 0.0
H1640 H 0.44071 0.49112 0.06048 0.0
H1641 H 0.43879 0.52178 0.94641 0.0
H1642 H 0.48132 0.50254 0.05759 0.0
H1643 H 0.47924 0.51633 0.09933 0.0
H1644 H 0.46458 0.49521 0.09796 0.0
H1645 H 0.46149 0.543 0.91439 0.0
H1646 H 0.47654 0.55331 0.95885 0.0
H1647 H 0.47912 0.53967 0.91757 0.0
H1648 H 0.51615 0.57042 0.05155 0.0
H1649 H 0.52311 0.53779 0.95391 0.0
H1650 H 0.47714 0.5422 0.09159 0.0
H1651 H 0.47682 0.55597 0.04653 0.0
H1652 H 0.49192 0.56328 0.09219 0.0
H1653 H 0.485 0.50333 0.97225 0.0
H1654 H 0.50234 0.51186 0.93419 0.0
H1655 H 0.48513 0.5153 0.92154 0.0
C1656 C 0.43394 0.06393 0.05745 0.0
C1657 C 0.42955 0.06163 0.00922 0.0
C1658 C 0.42828 0.07266 0.08714 0.0
C1659 C 0.41796 0.07872 0.06764 0.0
C1660 C 0.41641 0.07928 0.01752 0.0
C1661 C 0.4224 0.07075 0.98866 0.0
C1662 C 0.43133 0.07319 0.14008 0.0
C1663 C 0.40609 0.08631 0.99498 0.0
C1664 C 0.37785 0.0655 0.12555 0.0
C1665 C 0.37805 0.08058 0.13632 0.0
C1666 C 0.39123 0.06472 0.1057 0.0
C1667 C 0.40527 0.07943 0.09778 0.0
C1668 C 0.40593 0.09459 0.1125 0.0
C1669 C 0.39215 0.09502 0.13078 0.0
C1670 C 0.38992 0.04819 0.09064 0.0
C1671 C 0.42082 0.11046 0.10745 0.0
H1672 H 0.43983 0.05717 0.07326 0.0
H1673 H 0.41949 0.0693 0.95093 0.0
H1674 H 0.43144 0.08438 0.15637 0.0
H1675 H 0.42173 0.06238 0.15734 0.0
H1676 H 0.44285 0.07284 0.14763 0.0
H1677 H 0.4076 0.08741 0.95561 0.0
H1678 H 0.39338 0.07824 0.00289 0.0
H1679 H 0.40897 0.09857 0.00997 0.0
H1680 H 0.36697 0.05434 0.13038 0.0
H1681 H 0.39241 0.10669 0.14029 0.0
H1682 H 0.39911 0.04567 0.10901 0.0
H1683 H 0.39198 0.04808 0.05165 0.0
H1684 H 0.37807 0.03804 0.099 0.0
H1685 H 0.43172 0.10856 0.10402 0.0
H1686 H 0.42221 0.11849 0.13875 0.0
H1687 H 0.41976 0.11707 0.07542 0.0
C1688 C 0.87495 0.31878 0.12311 0.0
C1689 C 0.88586 0.31465 0.14699 0.0
C1690 C 0.87987 0.33447 0.10321 0.0
C1691 C 0.89608 0.34604 0.10673 0.0
C1692 C 0.90678 0.34223 0.13392 0.0
C1693 C 0.9015 0.32665 0.15383 0.0
C1694 C 0.86793 0.33823 0.07615 0.0
C1695 C 0.92419 0.35412 0.13887 0.0
C1696 C 0.92062 0.37334 0.00904 0.0
C1697 C 0.92607 0.38869 0.03093 0.0
C1698 C 0.90906 0.35934 0.03075 0.0
C1699 C 0.90285 0.36077 0.07566 0.0
C1700 C 0.90672 0.37653 0.09467 0.0
C1701 C 0.91843 0.39044 0.07204 0.0
C1702 C 0.90513 0.34286 0.00853 0.0
C1703 C 0.89976 0.3786 0.14131 0.0
H1704 H 0.86276 0.30961 0.11835 0.0
H1705 H 0.90994 0.32366 0.17312 0.0
H1706 H 0.87088 0.35145 0.07785 0.0
H1707 H 0.86791 0.33483 0.03812 0.0
H1708 H 0.8557 0.33105 0.09033 0.0
H1709 H 0.93065 0.34962 0.16372 0.0
H1710 H 0.93008 0.35617 0.10345 0.0
H1711 H 0.92545 0.36612 0.1521 0.0
H1712 H 0.92633 0.37208 0.97659 0.0
H1713 H 0.92252 0.40236 0.0887 0.0
H1714 H 0.89211 0.33499 0.00912 0.0
H1715 H 0.9109 0.33657 0.02945 0.0
H1716 H 0.90935 0.34397 0.97103 0.0
H1717 H 0.88723 0.36925 0.14523 0.0
H1718 H 0.90023 0.39098 0.14428 0.0
H1719 H 0.90673 0.37704 0.1713 0.0
C1720 C 0.68363 0.58808 0.05863 0.0
C1721 C 0.6854 0.58976 0.10822 0.0
C1722 C 0.6683 0.58058 0.03824 0.0
C1723 C 0.65474 0.57516 0.06836 0.0
C1724 C 0.65669 0.57443 0.11821 0.0
C1725 C 0.67207 0.58167 0.13752 0.0
C1726 C 0.66665 0.58038 0.98471 0.0
C1727 C 0.64262 0.56835 0.15172 0.0
C1728 C 0.62423 0.5902 0.03549 0.0
C1729 C 0.61058 0.57563 0.02672 0.0
C1730 C 0.63866 0.5901 0.04801 0.0
C1731 C 0.63968 0.57501 0.05035 0.0
C1732 C 0.62604 0.56022 0.03987 0.0
C1733 C 0.6115 0.56068 0.02913 0.0
C1734 C 0.6527 0.60623 0.06001 0.0
C1735 C 0.62653 0.54387 0.04026 0.0
H1736 H 0.69394 0.59421 0.03583 0.0
H1737 H 0.67352 0.58275 0.17598 0.0
H1738 H 0.65584 0.56948 0.97286 0.0
H1739 H 0.66549 0.59147 0.97307 0.0
H1740 H 0.67727 0.58041 0.96683 0.0
H1741 H 0.64605 0.56697 0.18882 0.0
H1742 H 0.63734 0.57716 0.15207 0.0
H1743 H 0.63331 0.55639 0.13943 0.0
H1744 H 0.62352 0.60178 0.03363 0.0
H1745 H 0.60099 0.54941 0.02158 0.0
H1746 H 0.66257 0.60869 0.03453 0.0
H1747 H 0.65719 0.60571 0.09633 0.0
H1748 H 0.64961 0.6167 0.05866 0.0
H1749 H 0.6388 0.54503 0.03617 0.0
H1750 H 0.61898 0.53594 0.01118 0.0
H1751 H 0.62155 0.53758 0.07448 0.0
C1752 C 0.07348 0.43985 0.45445 0.0
C1753 C 0.06113 0.42572 0.47349 0.0
C1754 C 0.0864 0.43901 0.43099 0.0
C1755 C 0.08656 0.42361 0.42521 0.0
C1756 C 0.07461 0.40954 0.44733 0.0
C1757 C 0.06221 0.41087 0.47171 0.0
C1758 C 0.09932 0.45454 0.41087 0.0
C1759 C 0.07407 0.39272 0.44226 0.0
C1760 C 0.09498 0.40632 0.31596 0.0
C1761 C 0.10442 0.39949 0.33599 0.0
C1762 C 0.09105 0.41705 0.34243 0.0
C1763 C 0.09698 0.4211 0.38948 0.0
C1764 C 0.10931 0.4172 0.40512 0.0
C1765 C 0.11274 0.40606 0.3784 0.0
C1766 C 0.07852 0.4217 0.32307 0.0
C1767 C 0.11719 0.42293 0.45292 0.0
H1768 H 0.07288 0.45146 0.45682 0.0
H1769 H 0.05283 0.39996 0.48709 0.0
H1770 H 0.1101 0.45314 0.40024 0.0
H1771 H 0.09466 0.45842 0.37933 0.0
H1772 H 0.1028 0.46454 0.43764 0.0
H1773 H 0.06373 0.38309 0.46101 0.0
H1774 H 0.07334 0.38928 0.404 0.0
H1775 H 0.08506 0.39272 0.45712 0.0
H1776 H 0.08912 0.40178 0.28199 0.0
H1777 H 0.12053 0.40124 0.39323 0.0
H1778 H 0.08226 0.43496 0.3282 0.0
H1779 H 0.06717 0.41495 0.34271 0.0
H1780 H 0.07623 0.41883 0.28446 0.0
H1781 H 0.11781 0.43507 0.4623 0.0
H1782 H 0.1294 0.42374 0.453 0.0
H1783 H 0.11019 0.41407 0.48091 0.0
C1784 C 0.58032 0.72773 0.39624 0.0
C1785 C 0.58862 0.72541 0.3576 0.0
C1786 C 0.56863 0.71415 0.42015 0.0
C1787 C 0.56555 0.69812 0.40525 0.0
C1788 C 0.5726 0.69592 0.36281 0.0
C1789 C 0.58395 0.70962 0.33938 0.0
C1790 C 0.56072 0.71698 0.46377 0.0
C1791 C 0.56973 0.67911 0.3453 0.0
C1792 C 0.56293 0.66559 0.49185 0.0
C1793 C 0.54772 0.65312 0.482 0.0
C1794 C 0.56837 0.68093 0.47023 0.0
C1795 C 0.55823 0.68401 0.43835 0.0
C1796 C 0.54229 0.67206 0.4321 0.0
C1797 C 0.53723 0.65661 0.45368 0.0
C1798 C 0.58549 0.69327 0.47819 0.0
C1799 C 0.5309 0.67511 0.4001 0.0
H1800 H 0.58375 0.73996 0.40999 0.0
H1801 H 0.59011 0.70785 0.30871 0.0
H1802 H 0.54839 0.70719 0.46789 0.0
H1803 H 0.56759 0.71692 0.49602 0.0
H1804 H 0.56039 0.72903 0.46207 0.0
H1805 H 0.57477 0.6795 0.30916 0.0
H1806 H 0.57536 0.67376 0.37032 0.0
H1807 H 0.55681 0.6708 0.34418 0.0
H1808 H 0.571 0.66309 0.51457 0.0
H1809 H 0.52536 0.6471 0.4466 0.0
H1810 H 0.58614 0.70535 0.48813 0.0
H1811 H 0.59235 0.69492 0.44465 0.0
H1812 H 0.59139 0.68942 0.50667 0.0
H1813 H 0.53322 0.68818 0.40092 0.0
H1814 H 0.51833 0.66741 0.41063 0.0
H1815 H 0.5324 0.67194 0.3628 0.0
C1816 C 0.29149 0.922 0.38942 0.0
C1817 C 0.27847 0.90727 0.37742 0.0
C1818 C 0.30641 0.92263 0.39927 0.0
C1819 C 0.30855 0.90816 0.396 0.0
C1820 C 0.2954 0.89314 0.38408 0.0
C1821 C 0.28037 0.89282 0.37568 0.0
C1822 C 0.31992 0.93893 0.41276 0.0
C1823 C 0.29709 0.87744 0.37988 0.0
C1824 C 0.35271 0.92444 0.38456 0.0
C1825 C 0.35676 0.92656 0.43298 0.0
C1826 C 0.33668 0.91571 0.37061 0.0
C1827 C 0.32469 0.90932 0.40612 0.0
C1828 C 0.32917 0.90894 0.45414 0.0
C1829 C 0.34523 0.91763 0.46703 0.0
C1830 C 0.33243 0.91557 0.31867 0.0
C1831 C 0.31687 0.90184 0.49304 0.0
H1832 H 0.29 0.93317 0.39097 0.0
H1833 H 0.27031 0.88142 0.36599 0.0
H1834 H 0.32507 0.93796 0.44762 0.0
H1835 H 0.32954 0.94259 0.3857 0.0
H1836 H 0.31605 0.94883 0.41544 0.0
H1837 H 0.28778 0.86851 0.35621 0.0
H1838 H 0.30898 0.87965 0.36593 0.0
H1839 H 0.29568 0.87179 0.4157 0.0
H1840 H 0.36162 0.93135 0.35815 0.0
H1841 H 0.34842 0.91924 0.50456 0.0
H1842 H 0.32934 0.92583 0.31166 0.0
H1843 H 0.32194 0.90398 0.30927 0.0
H1844 H 0.34257 0.9171 0.29517 0.0
H1845 H 0.31183 0.91056 0.50143 0.0
H1846 H 0.32213 0.89962 0.52622 0.0
H1847 H 0.30694 0.89018 0.4813 0.0
C1848 C 0.57435 0.95198 0.94563 0.0
C1849 C 0.57931 0.96285 0.98427 0.0
C1850 C 0.58473 0.94658 0.92435 0.0
C1851 C 0.60006 0.95141 0.94413 0.0
C1852 C 0.60493 0.96189 0.98436 0.0
C1853 C 0.59458 0.9678 0.00332 0.0
C1854 C 0.57936 0.93587 0.88042 0.0
C1855 C 0.62093 0.96666 0.00769 0.0
C1856 C 0.61884 0.92302 0.91897 0.0
C1857 C 0.63084 0.9322 0.88651 0.0
C1858 C 0.60903 0.92936 0.93898 0.0
C1859 C 0.61069 0.94486 0.92401 0.0
C1860 C 0.62235 0.95393 0.8897 0.0
C1861 C 0.63257 0.94762 0.87207 0.0
C1862 C 0.5971 0.9196 0.97679 0.0
C1863 C 0.62396 0.97021 0.87151 0.0
H1864 H 0.56251 0.94802 0.93104 0.0
H1865 H 0.59835 0.97611 0.03352 0.0
H1866 H 0.58825 0.94118 0.85141 0.0
H1867 H 0.57848 0.92356 0.8884 0.0
H1868 H 0.5676 0.93442 0.86719 0.0
H1869 H 0.62265 0.97446 0.03975 0.0
H1870 H 0.62213 0.95551 0.01841 0.0
H1871 H 0.63064 0.97341 0.98198 0.0
H1872 H 0.61736 0.91106 0.93 0.0
H1873 H 0.64178 0.95464 0.84659 0.0
H1874 H 0.58482 0.9162 0.96403 0.0
H1875 H 0.59894 0.92713 0.00946 0.0
H1876 H 0.59805 0.90822 0.98652 0.0
H1877 H 0.61234 0.96887 0.85748 0.0
H1878 H 0.63303 0.97524 0.84282 0.0
H1879 H 0.62736 0.97919 0.90117 0.0
C1880 C 0.08312 0.70355 0.84069 0.0
C1881 C 0.09672 0.71854 0.84441 0.0
C1882 C 0.08224 0.68958 0.864 0.0
C1883 C 0.0953 0.69057 0.89176 0.0
C1884 C 0.10949 0.70539 0.893 0.0
C1885 C 0.11003 0.71928 0.86936 0.0
C1886 C 0.06697 0.67395 0.86088 0.0
C1887 C 0.12378 0.70683 0.92132 0.0
C1888 C 0.07982 0.66207 0.99648 0.0
C1889 C 0.08026 0.64784 0.97894 0.0
C1890 C 0.08604 0.67658 0.97009 0.0
C1891 C 0.0929 0.67689 0.92485 0.0
C1892 C 0.09483 0.66305 0.90905 0.0
C1893 C 0.0885 0.64862 0.9365 0.0
C1894 C 0.08379 0.69104 0.98866 0.0
C1895 C 0.10239 0.66299 0.86155 0.0
H1896 H 0.07289 0.70283 0.82072 0.0
H1897 H 0.12065 0.7308 0.8719 0.0
H1898 H 0.06961 0.6639 0.84784 0.0
H1899 H 0.06153 0.67047 0.89682 0.0
H1900 H 0.05812 0.67507 0.83654 0.0
H1901 H 0.1347 0.71796 0.91154 0.0
H1902 H 0.12148 0.70748 0.95993 0.0
H1903 H 0.12597 0.6959 0.91573 0.0
H1904 H 0.07374 0.66161 0.02981 0.0
H1905 H 0.08909 0.63771 0.92312 0.0
H1906 H 0.07457 0.69254 0.96703 0.0
H1907 H 0.09498 0.70248 0.98536 0.0
H1908 H 0.07996 0.68948 0.02661 0.0
H1909 H 0.09333 0.66008 0.83294 0.0
H1910 H 0.10696 0.65359 0.86049 0.0
H1911 H 0.11231 0.67513 0.85356 0.0
C1912 C 0.34933 0.46428 0.9518 0.0
C1913 C 0.35181 0.45285 0.97983 0.0
C1914 C 0.3347 0.4599 0.92825 0.0
C1915 C 0.32244 0.44375 0.93291 0.0
C1916 C 0.32459 0.43264 0.96407 0.0
C1917 C 0.33922 0.43733 0.98707 0.0
C1918 C 0.33272 0.47221 0.8963 0.0
C1919 C 0.31173 0.41543 0.9711 0.0
C1920 C 0.27974 0.42587 0.88882 0.0
C1921 C 0.28084 0.41707 0.84903 0.0
C1922 C 0.2935 0.43604 0.91461 0.0
C1923 C 0.30854 0.43736 0.89994 0.0
C1924 C 0.30976 0.42978 0.85698 0.0
C1925 C 0.2959 0.41975 0.83214 0.0
C1926 C 0.29172 0.44424 0.95951 0.0
C1927 C 0.32552 0.43087 0.83972 0.0
H1928 H 0.35899 0.47638 0.94656 0.0
H1929 H 0.34097 0.42857 0.00961 0.0
H1930 H 0.33413 0.46943 0.85852 0.0
H1931 H 0.32063 0.47154 0.9002 0.0
H1932 H 0.34172 0.4849 0.90416 0.0
H1933 H 0.3007 0.41584 0.98403 0.0
H1934 H 0.30892 0.40873 0.93662 0.0
H1935 H 0.31526 0.40844 0.99717 0.0
H1936 H 0.26813 0.42402 0.90166 0.0
H1937 H 0.29682 0.41321 0.80079 0.0
H1938 H 0.30216 0.45623 0.96519 0.0
H1939 H 0.29082 0.43635 0.99063 0.0
H1940 H 0.28075 0.44612 0.95844 0.0
H1941 H 0.33479 0.44373 0.84009 0.0
H1942 H 0.3247 0.42591 0.80304 0.0
H1943 H 0.32952 0.42378 0.86407 0.0
C1944 C 0.90577 0.61273 0.60502 0.0
C1945 C 0.91277 0.62357 0.64296 0.0
C1946 C 0.91431 0.60588 0.57997 0.0
C1947 C 0.92989 0.6093 0.59501 0.0
C1948 C 0.9368 0.61969 0.63463 0.0
C1949 C 0.92824 0.62701 0.6576 0.0
C1950 C 0.9068 0.5953 0.53683 0.0
C1951 C 0.95318 0.62305 0.65273 0.0
C1952 C 0.94579 0.57928 0.5589 0.0
C1953 C 0.95723 0.58832 0.52479 0.0
C1954 C 0.93688 0.58604 0.58241 0.0
C1955 C 0.9389 0.60185 0.56953 0.0
C1956 C 0.94968 0.61062 0.53286 0.0
C1957 C 0.95896 0.60385 0.51145 0.0
C1958 C 0.92581 0.57655 0.62234 0.0
C1959 C 0.95161 0.62725 0.51693 0.0
H1960 H 0.89378 0.60994 0.5938 0.0
H1961 H 0.93358 0.63528 0.68727 0.0
H1962 H 0.91455 0.60035 0.50516 0.0
H1963 H 0.90563 0.58277 0.54268 0.0
H1964 H 0.89482 0.59445 0.52868 0.0
H1965 H 0.95643 0.63065 0.68564 0.0
H1966 H 0.95375 0.61135 0.66042 0.0
H1967 H 0.96223 0.62948 0.62494 0.0
H1968 H 0.94425 0.56719 0.5689 0.0
H1969 H 0.96768 0.61076 0.48462 0.0
H1970 H 0.91348 0.5746 0.6145 0.0
H1971 H 0.92951 0.58368 0.65602 0.0
H1972 H 0.92574 0.56444 0.62816 0.0
H1973 H 0.93981 0.62677 0.50836 0.0
H1974 H 0.95942 0.63176 0.4851 0.0
H1975 H 0.95684 0.63624 0.54626 0.0
C1976 C 0.41929 0.37457 0.53756 0.0
C1977 C 0.43318 0.38924 0.53266 0.0
C1978 C 0.41976 0.36061 0.55686 0.0
C1979 C 0.43452 0.36128 0.57173 0.0
C1980 C 0.44869 0.37593 0.56586 0.0
C1981 C 0.44785 0.3898 0.54647 0.0
C1982 C 0.40434 0.34521 0.56233 0.0
C1983 C 0.46464 0.37701 0.58074 0.0
C1984 C 0.42648 0.32916 0.6658 0.0
C1985 C 0.42474 0.31572 0.63772 0.0
C1986 C 0.43144 0.34471 0.64558 0.0
C1987 C 0.43463 0.3468 0.59602 0.0
C1988 C 0.43469 0.33369 0.56873 0.0
C1989 C 0.42976 0.31824 0.59002 0.0
C1990 C 0.43137 0.35836 0.67618 0.0
C1991 C 0.43817 0.33542 0.51592 0.0
H1992 H 0.40792 0.37401 0.52674 0.0
H1993 H 0.45864 0.4011 0.5425 0.0
H1994 H 0.40519 0.33483 0.54387 0.0
H1995 H 0.40207 0.34196 0.60065 0.0
H1996 H 0.39395 0.34659 0.54759 0.0
H1997 H 0.47465 0.38884 0.57032 0.0
H1998 H 0.46491 0.37566 0.62002 0.0
H1999 H 0.46652 0.36687 0.56442 0.0
H2000 H 0.42273 0.32725 0.70284 0.0
H2001 H 0.4284 0.30787 0.56811 0.0
H2002 H 0.4205 0.35996 0.66828 0.0
H2003 H 0.44182 0.37011 0.6682 0.0
H2004 H 0.43141 0.3557 0.71486 0.0
H2005 H 0.42739 0.33424 0.49638 0.0
H2006 H 0.44144 0.32578 0.50261 0.0
H2007 H 0.44795 0.3476 0.50744 0.0
C2008 C 0.61188 0.09337 0.56413 0.0
C2009 C 0.61129 0.08384 0.52418 0.0
C2010 C 0.62642 0.10252 0.58791 0.0
C2011 C 0.64055 0.1021 0.57095 0.0
C2012 C 0.64014 0.09379 0.52787 0.0
C2013 C 0.62553 0.08476 0.50518 0.0
C2014 C 0.62639 0.11149 0.63318 0.0
C2015 C 0.65487 0.09309 0.50804 0.0
C2016 C 0.68298 0.12642 0.6156 0.0
C2017 C 0.68484 0.11456 0.64338 0.0
C2018 C 0.66817 0.12312 0.59458 0.0
C2019 C 0.65505 0.10761 0.60147 0.0
C2020 C 0.65666 0.09611 0.63232 0.0
C2021 C 0.67151 0.09973 0.65276 0.0
C2022 C 0.66684 0.13583 0.56281 0.0
C2023 C 0.64299 0.07947 0.64113 0.0
H2024 H 0.60091 0.09283 0.57867 0.0
H2025 H 0.62516 0.07763 0.47373 0.0
H2026 H 0.62594 0.10378 0.66436 0.0
H2027 H 0.6374 0.12314 0.63626 0.0
H2028 H 0.61588 0.11415 0.63493 0.0
H2029 H 0.65291 0.08774 0.47158 0.0
H2030 H 0.66497 0.1055 0.50675 0.0
H2031 H 0.65842 0.08548 0.53174 0.0
H2032 H 0.69321 0.13798 0.60862 0.0
H2033 H 0.67279 0.09061 0.6749 0.0
H2034 H 0.65534 0.13639 0.56867 0.0
H2035 H 0.66721 0.13248 0.52491 0.0
H2036 H 0.67675 0.14818 0.569 0.0
H2037 H 0.63213 0.0807 0.65167 0.0
H2038 H 0.64576 0.07257 0.66946 0.0
H2039 H 0.64021 0.07215 0.60774 0.0
C2040 C 0.7239 0.76499 0.75854 0.0
C2041 C 0.7146 0.75454 0.79475 0.0
C2042 C 0.73478 0.76122 0.73287 0.0
C2043 C 0.7359 0.74653 0.74317 0.0
C2044 C 0.72786 0.73706 0.78341 0.0
C2045 C 0.71745 0.74133 0.80894 0.0
C2046 C 0.74403 0.77235 0.69268 0.0
C2047 C 0.72872 0.72132 0.79649 0.0
C2048 C 0.73264 0.71486 0.65561 0.0
C2049 C 0.74526 0.71171 0.67121 0.0
C2050 C 0.73069 0.72819 0.67347 0.0
C2051 C 0.74182 0.73866 0.7071 0.0
C2052 C 0.75612 0.73732 0.71556 0.0
C2053 C 0.75757 0.72355 0.69822 0.0
C2054 C 0.71554 0.72957 0.66165 0.0
C2055 C 0.76898 0.74931 0.74728 0.0
H2056 H 0.72206 0.77553 0.74839 0.0
H2057 H 0.71068 0.73355 0.83809 0.0
H2058 H 0.75422 0.77007 0.68098 0.0
H2059 H 0.73599 0.77056 0.66181 0.0
H2060 H 0.74858 0.78534 0.7039 0.0
H2061 H 0.72222 0.71589 0.83003 0.0
H2062 H 0.72348 0.71218 0.76746 0.0
H2063 H 0.74127 0.72351 0.80118 0.0
H2064 H 0.72344 0.70609 0.63291 0.0
H2065 H 0.76773 0.72153 0.7087 0.0
H2066 H 0.71831 0.74229 0.65127 0.0
H2067 H 0.70772 0.72645 0.69358 0.0
H2068 H 0.7088 0.72127 0.63207 0.0
H2069 H 0.76919 0.7616 0.74581 0.0
H2070 H 0.78086 0.75036 0.73676 0.0
H2071 H 0.76677 0.74497 0.78475 0.0
C2072 C 0.22705 0.99601 0.83602 0.0
C2073 C 0.21178 0.98316 0.83006 0.0
C2074 C 0.2315 0.01098 0.81278 0.0
C2075 C 0.22032 0.01321 0.78322 0.0
C2076 C 0.20439 0.00093 0.78114 0.0
C2077 C 0.20032 0.98591 0.80431 0.0
C2078 C 0.24863 0.02378 0.81641 0.0
C2079 C 0.19196 0.00313 0.7517 0.0
C2080 C 0.23972 0.05613 0.73335 0.0
C2081 C 0.24719 0.05343 0.69324 0.0
C2082 C 0.22919 0.04284 0.76089 0.0
C2083 C 0.22636 0.02672 0.74784 0.0
C2084 C 0.23241 0.024 0.70412 0.0
C2085 C 0.24269 0.03741 0.6773 0.0
C2086 C 0.22239 0.04618 0.80612 0.0
C2087 C 0.22969 0.00705 0.68843 0.0
H2088 H 0.23588 0.99409 0.85673 0.0
H2089 H 0.1884 0.97611 0.80034 0.0
H2090 H 0.25466 0.02488 0.78155 0.0
H2091 H 0.24918 0.03591 0.82504 0.0
H2092 H 0.2554 0.02072 0.84407 0.0
H2093 H 0.17974 0.99505 0.76443 0.0
H2094 H 0.19375 0.01602 0.75261 0.0
H2095 H 0.19289 -0.0001 0.714 0.0
H2096 H 0.24301 0.06853 0.74536 0.0
H2097 H 0.24822 0.03534 0.64559 0.0
H2098 H 0.2304 0.04718 0.83645 0.0
H2099 H 0.21047 0.03613 0.81411 0.0
H2100 H 0.22139 0.05789 0.80366 0.0
H2101 H 0.23641 0.00256 0.71225 0.0
H2102 H 0.23369 0.0069 0.65116 0.0
H2103 H 0.21691 0.99834 0.69105 0.0
C2104 C 0.01939 0.24888 0.74849 0.0
C2105 C 0.02098 0.26026 0.78433 0.0
C2106 C 0.00415 0.23809 0.73133 0.0
C2107 C 0.99048 0.23922 0.74946 0.0
C2108 C 0.99206 0.24933 0.78948 0.0
C2109 C 0.00725 0.25952 0.8067 0.0
C2110 C 0.00288 0.22645 0.69143 0.0
C2111 C 0.97792 0.2509 0.81075 0.0
C2112 C 0.96011 0.24242 0.66823 0.0
C2113 C 0.94587 0.23013 0.68615 0.0
C2114 C 0.97492 0.24448 0.68532 0.0
C2115 C 0.97562 0.23368 0.72058 0.0
C2116 C 0.96139 0.22 0.73451 0.0
C2117 C 0.94658 0.21849 0.71764 0.0
C2118 C 0.98965 0.25927 0.66893 0.0
C2119 C 0.96161 0.20749 0.76937 0.0
H2120 H 0.02994 0.24906 0.73187 0.0
H2121 H 0.00838 0.26787 0.83571 0.0
H2122 H 0.99097 0.21576 0.69068 0.0
H2123 H 0.00485 0.23291 0.65675 0.0
H2124 H 0.01217 0.22202 0.69517 0.0
H2125 H 0.98116 0.25887 0.84289 0.0
H2126 H 0.97272 0.25614 0.78392 0.0
H2127 H 0.96855 0.23869 0.82095 0.0
H2128 H 0.95972 0.25117 0.64267 0.0
H2129 H 0.93564 0.20869 0.73076 0.0
H2130 H 0.99859 0.25544 0.65489 0.0
H2131 H 0.99514 0.26762 0.69954 0.0
H2132 H 0.98702 0.26625 0.64054 0.0
H2133 H 0.97341 0.20732 0.77071 0.0
H2134 H 0.95241 0.19508 0.75962 0.0
H2135 H 0.95865 0.21028 0.80557 0.0
C2136 C 0.30341 0.27676 0.16464 0.0
C2137 C 0.30191 0.2612 0.17642 0.0
C2138 C 0.29353 0.28287 0.18607 0.0
C2139 C 0.28247 0.2734 0.22132 0.0
C2140 C 0.28072 0.25758 0.23258 0.0
C2141 C 0.29014 0.25149 0.2089 0.0
C2142 C 0.29514 0.29952 0.17173 0.0
C2143 C 0.26942 0.24734 0.27112 0.0
C2144 C 0.27044 0.29631 0.31338 0.0
C2145 C 0.25488 0.29259 0.29891 0.0
C2146 C 0.27949 0.28989 0.28885 0.0
C2147 C 0.27301 0.28016 0.24776 0.0
C2148 C 0.2573 0.27634 0.23308 0.0
C2149 C 0.24823 0.28217 0.25986 0.0
C2150 C 0.29596 0.29353 0.30684 0.0
C2151 C 0.25022 0.26646 0.18846 0.0
H2152 H 0.31235 0.2842 0.13903 0.0
H2153 H 0.28865 0.23932 0.2175 0.0
H2154 H 0.30303 0.3045 0.14025 0.0
H2155 H 0.28326 0.29886 0.16331 0.0
H2156 H 0.30013 0.30823 0.20184 0.0
H2157 H 0.26971 0.23535 0.27596 0.0
H2158 H 0.27259 0.25405 0.30558 0.0
H2159 H 0.25705 0.24507 0.26249 0.0
H2160 H 0.27554 0.30424 0.34391 0.0
H2161 H 0.23614 0.27906 0.24893 0.0
H2162 H 0.30501 0.3007 0.27983 0.0
H2163 H 0.29695 0.28194 0.31255 0.0
H2164 H 0.29885 0.30054 0.34085 0.0
H2165 H 0.25808 0.27225 0.15748 0.0
H2166 H 0.23815 0.26539 0.18052 0.0
H2167 H 0.24938 0.25397 0.19223 0.0
C2168 C 0.76131 0.98243 0.29759 0.0
C2169 C 0.75305 0.98228 0.33949 0.0
C2170 C 0.76783 0.9965 0.26866 0.0
C2171 C 0.766 0.0106 0.28225 0.0
C2172 C 0.75909 0.01094 0.32694 0.0
C2173 C 0.75274 0.9968 0.35496 0.0
C2174 C 0.77548 0.99577 0.22191 0.0
C2175 C 0.75687 0.02568 0.34306 0.0
C2176 C 0.78285 0.05204 0.22084 0.0
C2177 C 0.76952 0.05071 0.19478 0.0
C2178 C 0.78244 0.03862 0.24687 0.0
C2179 C 0.76832 0.02371 0.24709 0.0
C2180 C 0.75524 0.02211 0.2184 0.0
C2181 C 0.75604 0.03558 0.19248 0.0
C2182 C 0.79677 0.04067 0.276 0.0
C2183 C 0.74003 0.00639 0.21691 0.0
H2184 H 0.76178 0.9713 0.28579 0.0
H2185 H 0.74665 0.99685 0.38786 0.0
H2186 H 0.76653 0.99258 0.1929 0.0
H2187 H 0.7855 0.00777 0.2131 0.0
H2188 H 0.77996 0.98629 0.22265 0.0
H2189 H 0.75302 0.02468 0.38092 0.0
H2190 H 0.76808 0.03705 0.33884 0.0
H2191 H 0.74767 0.02688 0.32051 0.0
H2192 H 0.79338 0.06368 0.2223 0.0
H2193 H 0.7458 0.03437 0.17169 0.0
H2194 H 0.79896 0.02966 0.27297 0.0
H2195 H 0.79454 0.04215 0.31419 0.0
H2196 H 0.80766 0.05158 0.26473 0.0
H2197 H 0.74264 0.9963 0.20403 0.0
H2198 H 0.73092 0.00725 0.19315 0.0
H2199 H 0.73489 0.00312 0.25328 0.0
C2200 C 0.01613 0.79611 0.25277 0.0
C2201 C 0.01824 0.79155 0.29892 0.0
C2202 C 0.00074 0.79057 0.23335 0.0
C2203 C 0.98731 0.78055 0.26126 0.0
C2204 C 0.98945 0.77779 0.3099 0.0
C2205 C 0.00493 0.78307 0.32786 0.0
C2206 C 0.99902 0.79376 0.18136 0.0
C2207 C 0.97552 0.76753 0.34142 0.0
C2208 C 0.94468 0.76224 0.2126 0.0
C2209 C 0.94301 0.74694 0.19662 0.0
C2210 C 0.95917 0.77365 0.23285 0.0
C2211 C 0.97209 0.76951 0.23739 0.0
C2212 C 0.97036 0.75408 0.2211 0.0
C2213 C 0.95595 0.74311 0.2009 0.0
C2214 C 0.96067 0.79004 0.24942 0.0
C2215 C 0.98364 0.74892 0.22589 0.0
H2216 H 0.02646 0.80267 0.23042 0.0
H2217 H 0.00662 0.7797 0.3638 0.0
H2218 H 0.9972 0.78275 0.1602 0.0
H2219 H 0.9885 0.79617 0.1756 0.0
H2220 H 0.00981 0.80428 0.16757 0.0
H2221 H 0.97874 0.76953 0.37986 0.0
H2222 H 0.96526 0.77031 0.33487 0.0
H2223 H 0.97163 0.75439 0.33321 0.0
H2224 H 0.93473 0.76527 0.20926 0.0
H2225 H 0.95479 0.73129 0.18902 0.0
H2226 H 0.96996 0.79991 0.22817 0.0
H2227 H 0.96453 0.79215 0.28728 0.0
H2228 H 0.9493 0.79106 0.24579 0.0
H2229 H 0.9946 0.75796 0.20821 0.0
H2230 H 0.9805 0.73669 0.20997 0.0
H2231 H 0.98648 0.74847 0.26415 0.0
C2232 C 0.29724 0.05695 0.02925 0.0
C2233 C 0.31291 0.06482 0.04677 0.0
C2234 C 0.2939 0.05772 0.98063 0.0
C2235 C 0.30648 0.06664 0.94866 0.0
C2236 C 0.32241 0.07338 0.9653 0.0
C2237 C 0.32543 0.07237 0.01406 0.0
C2238 C 0.27675 0.05011 0.9643 0.0
C2239 C 0.3362 0.08284 0.9324 0.0
C2240 C 0.29654 0.06606 0.81589 0.0
C2241 C 0.29338 0.07974 0.81305 0.0
C2242 C 0.30115 0.0617 0.85958 0.0
C2243 C 0.30281 0.07139 0.90085 0.0
C2244 C 0.30027 0.0856 0.89725 0.0
C2245 C 0.29549 0.08949 0.85363 0.0
C2246 C 0.30353 0.04635 0.86201 0.0
C2247 C 0.30209 0.09646 0.93994 0.0
H2248 H 0.28745 0.05087 0.05386 0.0
H2249 H 0.33761 0.07834 0.02685 0.0
H2250 H 0.27294 0.05991 0.95782 0.0
H2251 H 0.27541 0.04341 0.93021 0.0
H2252 H 0.26864 0.04154 0.99125 0.0
H2253 H 0.34781 0.08497 0.94855 0.0
H2254 H 0.33479 0.07628 0.89803 0.0
H2255 H 0.33645 0.0949 0.92437 0.0
H2256 H 0.2947 0.05839 0.78465 0.0
H2257 H 0.29311 0.10012 0.85139 0.0
H2258 H 0.29336 0.03672 0.88127 0.0
H2259 H 0.31452 0.04859 0.88216 0.0
H2260 H 0.30427 0.04165 0.82594 0.0
H2261 H 0.29317 0.08951 0.96754 0.0
H2262 H 0.30047 0.1075 0.9305 0.0
H2263 H 0.31407 0.10049 0.95607 0.0
C2264 C 0.87594 0.26279 0.98047 0.0
C2265 C 0.88594 0.27034 0.01929 0.0
C2266 C 0.88208 0.26095 0.93657 0.0
C2267 C 0.89877 0.2671 0.93077 0.0
C2268 C 0.90898 0.27434 0.97025 0.0
C2269 C 0.90241 0.27574 0.01443 0.0
C2270 C 0.87066 0.25281 0.89594 0.0
C2271 C 0.92683 0.28118 0.96532 0.0
C2272 C 0.90821 0.24985 0.81853 0.0
C2273 C 0.90835 0.26118 0.78429 0.0
C2274 C 0.90652 0.25228 0.86737 0.0
C2275 C 0.90514 0.26648 0.88238 0.0
C2276 C 0.90688 0.27869 0.84847 0.0
C2277 C 0.90832 0.27584 0.79982 0.0
C2278 C 0.90469 0.23892 0.90218 0.0
C2279 C 0.90585 0.29418 0.86302 0.0
H2280 H 0.86316 0.25839 0.98439 0.0
H2281 H 0.91015 0.28164 0.04441 0.0
H2282 H 0.87262 0.26179 0.86696 0.0
H2283 H 0.87284 0.24269 0.88082 0.0
H2284 H 0.858 0.24778 0.90729 0.0
H2285 H 0.93296 0.28454 0.00041 0.0
H2286 H 0.93013 0.27222 0.94745 0.0
H2287 H 0.93125 0.29228 0.94258 0.0
H2288 H 0.90832 0.23851 0.80703 0.0
H2289 H 0.9087 0.2848 0.77377 0.0
H2290 H 0.89192 0.23192 0.91161 0.0
H2291 H 0.91132 0.24415 0.93567 0.0
H2292 H 0.90894 0.23027 0.88691 0.0
H2293 H 0.89327 0.29133 0.87108 0.0
H2294 H 0.91014 0.30357 0.83439 0.0
H2295 H 0.91292 0.29942 0.89581 0.0
C2296 C 0.70019 0.6481 0.02074 0.0
C2297 C 0.71482 0.65718 0.04339 0.0
C2298 C 0.69885 0.64838 0.97084 0.0
C2299 C 0.71268 0.65723 0.9431 0.0
C2300 C 0.72732 0.66703 0.96621 0.0
C2301 C 0.72812 0.66709 0.01624 0.0
C2302 C 0.68286 0.63837 0.94796 0.0
C2303 C 0.74246 0.67625 0.93817 0.0
C2304 C 0.7161 0.6394 0.82355 0.0
C2305 C 0.71602 0.6512 0.79167 0.0
C2306 C 0.71469 0.64107 0.87287 0.0
C2307 C 0.71247 0.65454 0.89057 0.0
C2308 C 0.71131 0.66591 0.85813 0.0
C2309 C 0.71355 0.66436 0.80908 0.0
C2310 C 0.71647 0.62891 0.90612 0.0
C2311 C 0.70817 0.67998 0.87511 0.0
H2312 H 0.68994 0.64029 0.04192 0.0
H2313 H 0.73949 0.67381 0.03395 0.0
H2314 H 0.68117 0.64466 0.91603 0.0
H2315 H 0.68212 0.6264 0.93633 0.0
H2316 H 0.67294 0.63596 0.97337 0.0
H2317 H 0.75269 0.68381 0.96147 0.0
H2318 H 0.74549 0.66743 0.91828 0.0
H2319 H 0.74078 0.68436 0.91156 0.0
H2320 H 0.71819 0.62933 0.8101 0.0
H2321 H 0.71345 0.67348 0.78435 0.0
H2322 H 0.70562 0.62276 0.92828 0.0
H2323 H 0.72663 0.63538 0.93076 0.0
H2324 H 0.71854 0.61937 0.8866 0.0
H2325 H 0.69964 0.67623 0.90537 0.0
H2326 H 0.70334 0.68478 0.84597 0.0
H2327 H 0.71947 0.69009 0.88761 0.0
C2328 C 0.06222 0.3123 0.64832 0.0
C2329 C 0.05932 0.32272 0.67967 0.0
C2330 C 0.06299 0.31486 0.59886 0.0
C2331 C 0.0603 0.32788 0.58003 0.0
C2332 C 0.05648 0.33789 0.61128 0.0
C2333 C 0.0563 0.33537 0.66087 0.0
C2334 C 0.06754 0.30416 0.56703 0.0
C2335 C 0.05301 0.35153 0.59243 0.0
C2336 C 0.08093 0.34501 0.46235 0.0
C2337 C 0.06906 0.33599 0.42912 0.0
C2338 C 0.07807 0.34283 0.51157 0.0
C2339 C 0.06282 0.3317 0.52813 0.0
C2340 C 0.05049 0.32329 0.49482 0.0
C2341 C 0.05383 0.32533 0.44565 0.0
C2342 C 0.09167 0.35177 0.54575 0.0
C2343 C 0.03394 0.31174 0.5111 0.0
H2344 H 0.06472 0.3026 0.66261 0.0
H2345 H 0.05395 0.34339 0.68494 0.0
H2346 H 0.05845 0.29848 0.53875 0.0
H2347 H 0.07902 0.31176 0.54902 0.0
H2348 H 0.06881 0.29429 0.58716 0.0
H2349 H 0.04835 0.35687 0.62064 0.0
H2350 H 0.06406 0.36141 0.57764 0.0
H2351 H 0.0442 0.34698 0.56294 0.0
H2352 H 0.09276 0.35321 0.44993 0.0
H2353 H 0.04456 0.31845 0.42016 0.0
H2354 H 0.09446 0.34278 0.56554 0.0
H2355 H 0.08826 0.35865 0.57246 0.0
H2356 H 0.10263 0.36046 0.52719 0.0
H2357 H 0.03409 0.30065 0.52703 0.0
H2358 H 0.02524 0.30786 0.48121 0.0
H2359 H 0.02978 0.31759 0.53912 0.0
C2360 C 0.63235 0.73023 0.70716 0.0
C2361 C 0.64767 0.73357 0.72346 0.0
C2362 C 0.62921 0.73042 0.65818 0.0
C2363 C 0.64164 0.73382 0.62468 0.0
C2364 C 0.65666 0.73554 0.64067 0.0
C2365 C 0.65954 0.73551 0.68988 0.0
C2366 C 0.61299 0.72848 0.64271 0.0
C2367 C 0.67011 0.73875 0.60615 0.0
C2368 C 0.63025 0.73154 0.49301 0.0
C2369 C 0.63317 0.74779 0.48462 0.0
C2370 C 0.63348 0.72677 0.53804 0.0
C2371 C 0.63976 0.73858 0.57499 0.0
C2372 C 0.64337 0.75515 0.56552 0.0
C2373 C 0.63991 0.75949 0.52059 0.0
C2374 C 0.62942 0.70901 0.54669 0.0
C2375 C 0.65017 0.7682 0.60357 0.0
H2376 H 0.62307 0.72864 0.73271 0.0
H2377 H 0.67136 0.73782 0.70206 0.0
H2378 H 0.61388 0.74056 0.63163 0.0
H2379 H 0.60864 0.72015 0.61153 0.0
H2380 H 0.60407 0.72364 0.67185 0.0
H2381 H 0.67988 0.73673 0.62286 0.0
H2382 H 0.66575 0.73078 0.57422 0.0
H2383 H 0.67507 0.75164 0.59382 0.0
H2384 H 0.62473 0.72247 0.46527 0.0
H2385 H 0.64201 0.77202 0.51393 0.0
H2386 H 0.61858 0.70343 0.56923 0.0
H2387 H 0.63919 0.70782 0.56617 0.0
H2388 H 0.62708 0.70196 0.51283 0.0
H2389 H 0.64149 0.76547 0.63319 0.0
H2390 H 0.65303 0.78061 0.58964 0.0
H2391 H 0.66119 0.76832 0.61872 0.0
C2392 C 0.22889 0.96088 0.67483 0.0
C2393 C 0.22225 0.94751 0.70589 0.0
C2394 C 0.23407 0.95912 0.62907 0.0
C2395 C 0.23188 0.94345 0.61341 0.0
C2396 C 0.22616 0.93017 0.64593 0.0
C2397 C 0.22164 0.93244 0.69216 0.0
C2398 C 0.24067 0.97376 0.5963 0.0
C2399 C 0.22321 0.91316 0.63051 0.0
C2400 C 0.22038 0.93416 0.48312 0.0
C2401 C 0.23403 0.93391 0.46334 0.0
C2402 C 0.21953 0.93704 0.53194 0.0
C2403 C 0.23291 0.94038 0.56154 0.0
C2404 C 0.24691 0.94055 0.54151 0.0
C2405 C 0.24719 0.93697 0.49269 0.0
C2406 C 0.20418 0.93624 0.55193 0.0
C2407 C 0.2616 0.94467 0.5715 0.0
H2408 H 0.22932 0.97253 0.68554 0.0
H2409 H 0.21627 0.92205 0.716 0.0
H2410 H 0.25076 0.97394 0.57503 0.0
H2411 H 0.23126 0.97306 0.57097 0.0
H2412 H 0.24478 0.98544 0.61647 0.0
H2413 H 0.22085 0.90475 0.66137 0.0
H2414 H 0.2127 0.9081 0.60644 0.0
H2415 H 0.23351 0.91342 0.61025 0.0
H2416 H 0.21012 0.93158 0.46054 0.0
H2417 H 0.25778 0.93683 0.47727 0.0
H2418 H 0.20625 0.94833 0.56667 0.0
H2419 H 0.19989 0.92727 0.58162 0.0
H2420 H 0.19463 0.93265 0.52455 0.0
H2421 H 0.26534 0.95685 0.5884 0.0
H2422 H 0.27169 0.94483 0.55019 0.0
H2423 H 0.25893 0.93563 0.60071 0.0
C2424 C 0.69077 0.93197 0.23528 0.0
C2425 C 0.70445 0.94665 0.24247 0.0
C2426 C 0.68212 0.9291 0.19251 0.0
C2427 C 0.68708 0.94144 0.15697 0.0
C2428 C 0.69995 0.95688 0.16632 0.0
C2429 C 0.7087 0.95918 0.20865 0.0
C2430 C 0.66867 0.91235 0.18361 0.0
C2431 C 0.70525 0.97053 0.13015 0.0
C2432 C 0.6804 0.92682 0.02834 0.0
C2433 C 0.66598 0.9273 0.01777 0.0
C2434 C 0.68747 0.93158 0.07345 0.0
C2435 C 0.68018 0.93745 0.10813 0.0
C2436 C 0.66608 0.93883 0.09658 0.0
C2437 C 0.65898 0.93344 0.05175 0.0
C2438 C 0.70236 0.92963 0.08464 0.0
C2439 C 0.65831 0.94561 0.13187 0.0
H2440 H 0.68769 0.92218 0.26114 0.0
H2441 H 0.71935 0.97047 0.2143 0.0
H2442 H 0.658 0.91336 0.17001 0.0
H2443 H 0.67234 0.90597 0.15587 0.0
H2444 H 0.66533 0.9047 0.21635 0.0
H2445 H 0.7133 0.9825 0.14618 0.0
H2446 H 0.71173 0.96789 0.10074 0.0
H2447 H 0.69483 0.97153 0.1143 0.0
H2448 H 0.68572 0.92191 0.00221 0.0
H2449 H 0.64784 0.93388 0.04336 0.0
H2450 H 0.70009 0.92113 0.11519 0.0
H2451 H 0.71212 0.94157 0.09531 0.0
H2452 H 0.70647 0.9248 0.05379 0.0
H2453 H 0.6534 0.93701 0.16219 0.0
H2454 H 0.64847 0.9476 0.11547 0.0
H2455 H 0.66724 0.9574 0.14669 0.0
C2456 C 0.05751 0.76745 0.17318 0.0
C2457 C 0.05954 0.78368 0.17329 0.0
C2458 C 0.06049 0.76045 0.13157 0.0
C2459 C 0.06609 0.77005 0.08966 0.0
C2460 C 0.06774 0.78627 0.0894 0.0
C2461 C 0.06428 0.79277 0.13077 0.0
C2462 C 0.05812 0.74295 0.13287 0.0
C2463 C 0.0741 0.79719 0.04623 0.0
C2464 C 0.09491 0.76396 0.00596 0.0
C2465 C 0.08589 0.75836 0.96393 0.0
C2466 C 0.08837 0.76708 0.04757 0.0
C2467 C 0.0722 0.76417 0.04805 0.0
C2468 C 0.06272 0.75764 0.00669 0.0
C2469 C 0.06974 0.75506 0.96481 0.0
C2470 C 0.09912 0.77448 0.09009 0.0
C2471 C 0.04532 0.75391 0.00619 0.0
H2472 H 0.05373 0.76028 0.2056 0.0
H2473 H 0.06599 0.80535 0.13021 0.0
H2474 H 0.05174 0.73629 0.10039 0.0
H2475 H 0.06988 0.74268 0.13339 0.0
H2476 H 0.05131 0.73636 0.16488 0.0
H2477 H 0.074 0.80927 0.05105 0.0
H2478 H 0.08653 0.79927 0.03912 0.0
H2479 H 0.06695 0.79122 0.01416 0.0
H2480 H 0.10742 0.76667 0.00589 0.0
H2481 H 0.06263 0.7506 0.93277 0.0
H2482 H 0.09386 0.7672 0.12266 0.0
H2483 H 0.10035 0.78703 0.09659 0.0
H2484 H 0.1112 0.77522 0.08485 0.0
H2485 H 0.03937 0.74734 0.03923 0.0
H2486 H 0.03902 0.74638 0.97479 0.0
H2487 H 0.04412 0.7655 0.00507 0.0
C2488 C 0.25761 0.32689 0.14859 0.0
C2489 C 0.24979 0.33148 0.1841 0.0
C2490 C 0.26179 0.3353 0.10501 0.0
C2491 C 0.2574 0.34809 0.09627 0.0
C2492 C 0.25057 0.35352 0.13341 0.0
C2493 C 0.24704 0.34526 0.17726 0.0
C2494 C 0.27015 0.32998 0.06753 0.0
C2495 C 0.24589 0.36725 0.12567 0.0
C2496 C 0.26923 0.37675 0.99002 0.0
C2497 C 0.25594 0.36898 0.9604 0.0
C2498 C 0.27063 0.36944 0.03273 0.0
C2499 C 0.25801 0.35442 0.04704 0.0
C2500 C 0.24489 0.34619 0.01597 0.0
C2501 C 0.24418 0.35347 0.9725 0.0
C2502 C 0.2852 0.37841 0.06332 0.0
C2503 C 0.23097 0.33035 0.03029 0.0
H2504 H 0.25994 0.31633 0.15427 0.0
H2505 H 0.24097 0.34877 0.20477 0.0
H2506 H 0.26164 0.32326 0.03869 0.0
H2507 H 0.27999 0.34083 0.05116 0.0
H2508 H 0.27507 0.32186 0.08255 0.0
H2509 H 0.241 0.37022 0.15851 0.0
H2510 H 0.25637 0.37843 0.11379 0.0
H2511 H 0.23676 0.36381 0.09708 0.0
H2512 H 0.27829 0.38879 0.98046 0.0
H2513 H 0.23379 0.34762 0.94975 0.0
H2514 H 0.29596 0.38439 0.0406 0.0
H2515 H 0.28721 0.37023 0.08899 0.0
H2516 H 0.28383 0.38821 0.08359 0.0
H2517 H 0.23514 0.32104 0.03972 0.0
H2518 H 0.22192 0.32532 0.0015 0.0
H2519 H 0.22515 0.33244 0.06242 0.0
C2520 C 0.89937 0.67608 0.52749 0.0
C2521 C 0.90442 0.66383 0.53365 0.0
C2522 C 0.90238 0.68491 0.48462 0.0
C2523 C 0.91107 0.68171 0.44787 0.0
C2524 C 0.91736 0.67033 0.45575 0.0
C2525 C 0.91369 0.66127 0.49826 0.0
C2526 C 0.89519 0.69672 0.47732 0.0
C2527 C 0.92723 0.66705 0.41832 0.0
C2528 C 0.90027 0.68781 0.32129 0.0
C2529 C 0.91154 0.70384 0.31199 0.0
C2530 C 0.9002 0.68034 0.36513 0.0
C2531 C 0.91204 0.68895 0.39969 0.0
C2532 C 0.92408 0.70477 0.38905 0.0
C2533 C 0.92351 0.71216 0.34562 0.0
C2534 C 0.88694 0.66359 0.37544 0.0
C2535 C 0.93726 0.71408 0.42408 0.0
H2536 H 0.89205 0.6779 0.55471 0.0
H2537 H 0.91763 0.65179 0.50323 0.0
H2538 H 0.90439 0.70875 0.4651 0.0
H2539 H 0.88594 0.69195 0.44906 0.0
H2540 H 0.88963 0.69859 0.51039 0.0
H2541 H 0.93339 0.66001 0.43294 0.0
H2542 H 0.91942 0.65992 0.38858 0.0
H2543 H 0.93627 0.67871 0.40322 0.0
H2544 H 0.89092 0.68148 0.29542 0.0
H2545 H 0.93228 0.72457 0.33817 0.0
H2546 H 0.87988 0.66431 0.40646 0.0
H2547 H 0.89195 0.65497 0.38503 0.0
H2548 H 0.87879 0.65847 0.34454 0.0
H2549 H 0.93235 0.71802 0.45495 0.0
H2550 H 0.94688 0.72513 0.40772 0.0
H2551 H 0.94251 0.70612 0.43806 0.0
C2552 C 0.38233 0.28924 0.50666 0.0
C2553 C 0.38203 0.2745 0.52241 0.0
C2554 C 0.37688 0.29046 0.46073 0.0
C2555 C 0.3703 0.27638 0.43118 0.0
C2556 C 0.37019 0.26153 0.4471 0.0
C2557 C 0.37635 0.26089 0.49216 0.0
C2558 C 0.37787 0.30669 0.44445 0.0
C2559 C 0.36294 0.24609 0.4174 0.0
C2560 C 0.33695 0.26755 0.34373 0.0
C2561 C 0.34425 0.26682 0.30053 0.0
C2562 C 0.34564 0.27206 0.38634 0.0
C2563 C 0.36214 0.27638 0.38562 0.0
C2564 C 0.36994 0.2777 0.34136 0.0
C2565 C 0.36087 0.27274 0.29921 0.0
C2566 C 0.33679 0.2705 0.43263 0.0
C2567 C 0.38767 0.28306 0.33897 0.0
H2568 H 0.387 0.29984 0.53001 0.0
H2569 H 0.37615 0.24952 0.5046 0.0
H2570 H 0.3661 0.30674 0.44908 0.0
H2571 H 0.38676 0.31702 0.46552 0.0
H2572 H 0.38107 0.3088 0.40609 0.0
H2573 H 0.36379 0.23558 0.43512 0.0
H2574 H 0.35019 0.24275 0.41048 0.0
H2575 H 0.36901 0.24813 0.38233 0.0
H2576 H 0.32416 0.26343 0.34505 0.0
H2577 H 0.3667 0.27254 0.26593 0.0
H2578 H 0.34304 0.28151 0.45514 0.0
H2579 H 0.33637 0.25984 0.45292 0.0
H2580 H 0.32438 0.26872 0.42668 0.0
H2581 H 0.39409 0.29332 0.36406 0.0
H2582 H 0.39237 0.28692 0.30235 0.0
H2583 H 0.39028 0.27273 0.34955 0.0
C2584 C 0.72861 0.09501 0.52003 0.0
C2585 C 0.72497 0.10843 0.51849 0.0
C2586 C 0.73255 0.08902 0.47806 0.0
C2587 C 0.73323 0.09685 0.43378 0.0
C2588 C 0.72862 0.10972 0.4317 0.0
C2589 C 0.72438 0.11518 0.47377 0.0
C2590 C 0.73689 0.07492 0.48157 0.0
C2591 C 0.72946 0.1187 0.38566 0.0
C2592 C 0.76528 0.10039 0.34528 0.0
C2593 C 0.75645 0.09022 0.30779 0.0
C2594 C 0.75785 0.10237 0.38656 0.0
C2595 C 0.74112 0.09358 0.39141 0.0
C2596 C 0.73212 0.08288 0.35427 0.0
C2597 C 0.73987 0.08154 0.31238 0.0
C2598 C 0.76793 0.11431 0.42434 0.0
C2599 C 0.71433 0.07294 0.35875 0.0
H2600 H 0.72893 0.08955 0.55412 0.0
H2601 H 0.72145 0.12544 0.47168 0.0
H2602 H 0.73157 0.06622 0.45159 0.0
H2603 H 0.75001 0.07961 0.47916 0.0
H2604 H 0.73287 0.06821 0.51582 0.0
H2605 H 0.72399 0.12731 0.38902 0.0
H2606 H 0.74212 0.12579 0.37509 0.0
H2607 H 0.72338 0.10996 0.35642 0.0
H2608 H 0.77809 0.10725 0.34174 0.0
H2609 H 0.73304 0.07354 0.28366 0.0
H2610 H 0.76645 0.10797 0.45907 0.0
H2611 H 0.76397 0.12407 0.42922 0.0
H2612 H 0.7808 0.12016 0.41508 0.0
H2613 H 0.7114 0.06621 0.39315 0.0
H2614 H 0.7093 0.064 0.3291 0.0
H2615 H 0.70842 0.08117 0.35881 0.0
C2616 C 0.97172 0.42376 0.19992 0.0
C2617 C 0.97261 0.41601 0.15744 0.0
C2618 C 0.97709 0.42042 0.24333 0.0
C2619 C 0.98337 0.40881 0.24483 0.0
C2620 C 0.98449 0.40102 0.20203 0.0
C2621 C 0.97921 0.40483 0.15863 0.0
C2622 C 0.97591 0.42927 0.28777 0.0
C2623 C 0.9909 0.38842 0.20233 0.0
C2624 C 0.00774 0.41399 0.35709 0.0
C2625 C 0.99604 0.4038 0.38922 0.0
C2626 C 0.00415 0.41478 0.30872 0.0
C2627 C 0.98854 0.405 0.29177 0.0
C2628 C 0.97712 0.39356 0.32291 0.0
C2629 C 0.98097 0.39316 0.37128 0.0
C2630 C 0.0167 0.42717 0.27693 0.0
C2631 C 0.96042 0.38266 0.30612 0.0
H2632 H 0.9668 0.43256 0.19927 0.0
H2633 H 0.97982 0.39873 0.12598 0.0
H2634 H 0.96793 0.42032 0.31409 0.0
H2635 H 0.98781 0.43574 0.30468 0.0
H2636 H 0.97123 0.43834 0.28019 0.0
H2637 H 0.99185 0.38417 0.1658 0.0
H2638 H 0.00282 0.39351 0.21941 0.0
H2639 H 0.98293 0.3777 0.2238 0.0
H2640 H 0.01948 0.42219 0.37021 0.0
H2641 H 0.97188 0.38506 0.39546 0.0
H2642 H 0.01391 0.43771 0.2713 0.0
H2643 H 0.0168 0.42183 0.2414 0.0
H2644 H 0.0288 0.43181 0.2928 0.0
H2645 H 0.95369 0.39005 0.3021 0.0
H2646 H 0.95392 0.3726 0.33173 0.0
H2647 H 0.96064 0.37727 0.27074 0.0
C2648 C 0.55835 0.60834 0.1378 0.0
C2649 C 0.57143 0.607 0.11758 0.0
C2650 C 0.55761 0.61075 0.1869 0.0
C2651 C 0.57057 0.6125 0.21645 0.0
C2652 C 0.58411 0.61174 0.19597 0.0
C2653 C 0.58422 0.60861 0.14675 0.0
C2654 C 0.54271 0.61097 0.20725 0.0
C2655 C 0.59839 0.61421 0.226 0.0
C2656 C 0.56662 0.63142 0.33252 0.0
C2657 C 0.55863 0.61746 0.3606 0.0
C2658 C 0.57241 0.63026 0.28715 0.0
C2659 C 0.56943 0.61466 0.26878 0.0
C2660 C 0.56242 0.6007 0.29861 0.0
C2661 C 0.55732 0.60234 0.34462 0.0
C2662 C 0.58039 0.64555 0.25736 0.0
C2663 C 0.55857 0.58377 0.2802 0.0
H2664 H 0.54834 0.60683 0.11536 0.0
H2665 H 0.59434 0.60757 0.13099 0.0
H2666 H 0.53764 0.60153 0.23549 0.0
H2667 H 0.54565 0.62301 0.22395 0.0
H2668 H 0.53343 0.60863 0.17964 0.0
H2669 H 0.60838 0.61439 0.20413 0.0
H2670 H 0.60259 0.6259 0.24602 0.0
H2671 H 0.59505 0.60426 0.25271 0.0
H2672 H 0.5676 0.64311 0.34504 0.0
H2673 H 0.55092 0.59152 0.36621 0.0
H2674 H 0.57159 0.64636 0.23224 0.0
H2675 H 0.59025 0.64526 0.23593 0.0
H2676 H 0.58518 0.65675 0.2799 0.0
H2677 H 0.54831 0.57983 0.25531 0.0
H2678 H 0.55541 0.57467 0.30953 0.0
H2679 H 0.56875 0.5837 0.26005 0.0
C2680 C 0.38627 0.98133 0.30958 0.0
C2681 C 0.38208 0.99067 0.34159 0.0
C2682 C 0.38629 0.98372 0.26024 0.0
C2683 C 0.38156 0.99542 0.24208 0.0
C2684 C 0.3764 0.00424 0.27393 0.0
C2685 C 0.37697 0.00195 0.32348 0.0
C2686 C 0.39219 0.97427 0.22773 0.0
C2687 C 0.37073 0.01638 0.25577 0.0
C2688 C 0.40106 0.01261 0.12363 0.0
C2689 C 0.38991 0.00182 0.09122 0.0
C2690 C 0.39805 0.01135 0.17281 0.0
C2691 C 0.38339 0.99921 0.19013 0.0
C2692 C 0.37154 0.98923 0.15742 0.0
C2693 C 0.375 0.99051 0.10832 0.0
C2694 C 0.41111 0.02218 0.20633 0.0
C2695 C 0.35553 0.97656 0.17442 0.0
H2696 H 0.39029 0.97262 0.32314 0.0
H2697 H 0.37357 0.0091 0.34798 0.0
H2698 H 0.38303 0.96745 0.20057 0.0
H2699 H 0.40299 0.98289 0.20842 0.0
H2700 H 0.39518 0.96541 0.24754 0.0
H2701 H 0.36487 0.02032 0.28423 0.0
H2702 H 0.38098 0.02738 0.24184 0.0
H2703 H 0.36221 0.01104 0.22584 0.0
H2704 H 0.41255 0.02156 0.11091 0.0
H2705 H 0.36618 0.98233 0.08355 0.0
H2706 H 0.41577 0.01463 0.22613 0.0
H2707 H 0.40641 0.02794 0.23303 0.0
H2708 H 0.42117 0.032 0.18713 0.0
H2709 H 0.35685 0.96598 0.18969 0.0
H2710 H 0.34671 0.97204 0.14489 0.0
H2711 H 0.35079 0.98166 0.20298 0.0
C2712 C 0.57844 0.99579 0.83225 0.0
C2713 C 0.56844 0.99833 0.86519 0.0
C2714 C 0.58281 0.00467 0.78944 0.0
C2715 C 0.57655 0.0159 0.77869 0.0
C2716 C 0.56704 0.01904 0.81292 0.0
C2717 C 0.56329 0.01036 0.85617 0.0
C2718 C 0.59348 0.00143 0.75481 0.0
C2719 C 0.55996 0.03077 0.80259 0.0
C2720 C 0.59122 0.04678 0.67769 0.0
C2721 C 0.57987 0.03873 0.64218 0.0
C2722 C 0.59094 0.03911 0.72136 0.0
C2723 C 0.57867 0.02326 0.73021 0.0
C2724 C 0.56762 0.01482 0.69356 0.0
C2725 C 0.56851 0.02259 0.64964 0.0
C2726 C 0.60332 0.04828 0.75869 0.0
C2727 C 0.55422 0.99798 0.70176 0.0
H2728 H 0.58251 0.98653 0.83946 0.0
H2729 H 0.55543 0.01219 0.88147 0.0
H2730 H 0.58637 0.99442 0.72379 0.0
H2731 H 0.60288 0.01312 0.74103 0.0
H2732 H 0.59925 0.99432 0.77145 0.0
H2733 H 0.55347 0.03242 0.83377 0.0
H2734 H 0.56943 0.04289 0.79208 0.0
H2735 H 0.55154 0.02609 0.77215 0.0
H2736 H 0.60006 0.05927 0.67176 0.0
H2737 H 0.55963 0.01645 0.62237 0.0
H2738 H 0.60797 0.04017 0.77533 0.0
H2739 H 0.59782 0.0525 0.7874 0.0
H2740 H 0.61347 0.05915 0.74351 0.0
H2741 H 0.55903 0.98944 0.71397 0.0
H2742 H 0.547 0.99285 0.66907 0.0
H2743 H 0.54627 0.9986 0.73032 0.0
C2744 C 0.01121 0.59174 0.66145 0.0
C2745 C 0.99708 0.59257 0.64915 0.0
C2746 C 0.01836 0.59735 0.70607 0.0
C2747 C 0.01146 0.60443 0.73838 0.0
C2748 C 0.9979 0.6065 0.72439 0.0
C2749 C 0.99068 0.60024 0.68023 0.0
C2750 C 0.03269 0.5947 0.71981 0.0
C2751 C 0.99058 0.61459 0.75685 0.0
C2752 C 0.01975 0.59869 0.86767 0.0
C2753 C 0.03398 0.61275 0.87538 0.0
C2754 C 0.01167 0.59623 0.82394 0.0
C2755 C 0.01778 0.60837 0.7879 0.0
C2756 C 0.03122 0.62333 0.79771 0.0
C2757 C 0.03936 0.6252 0.84103 0.0
C2758 C 0.99751 0.58 0.81474 0.0
C2759 C 0.03773 0.63685 0.76115 0.0
H2760 H 0.01603 0.58563 0.63761 0.0
H2761 H 0.97975 0.60093 0.67052 0.0
H2762 H 0.04267 0.60643 0.73078 0.0
H2763 H 0.02967 0.58628 0.75083 0.0
H2764 H 0.03682 0.5894 0.69016 0.0
H2765 H 0.98197 0.61783 0.73757 0.0
H2766 H 0.98419 0.60617 0.78641 0.0
H2767 H -5e-05 0.62585 0.77301 0.0
H2768 H 0.01575 0.58897 0.89399 0.0
H2769 H 0.05042 0.63602 0.84707 0.0
H2770 H 0.00075 0.57303 0.78774 0.0
H2771 H 0.98742 0.58188 0.80007 0.0
H2772 H 0.99345 0.57246 0.84759 0.0
H2773 H 0.04421 0.63357 0.73312 0.0
H2774 H 0.04612 0.64866 0.77739 0.0
H2775 H 0.02792 0.63853 0.74349 0.0
C2776 C 0.43467 0.43884 0.68928 0.0
C2777 C 0.42504 0.43172 0.64926 0.0
C2778 C 0.42825 0.4416 0.73168 0.0
C2779 C 0.41168 0.43679 0.73484 0.0
C2780 C 0.40174 0.42894 0.69534 0.0
C2781 C 0.40857 0.42671 0.65271 0.0
C2782 C 0.43938 0.45042 0.77228 0.0
C2783 C 0.38397 0.42326 0.69774 0.0
C2784 C 0.39701 0.43811 0.86128 0.0
C2785 C 0.39672 0.4534 0.86141 0.0
C2786 C 0.401 0.43205 0.81951 0.0
C2787 C 0.40522 0.44172 0.77748 0.0
C2788 C 0.40469 0.45702 0.77739 0.0
C2789 C 0.40028 0.46255 0.819 0.0
C2790 C 0.40102 0.41548 0.82062 0.0
C2791 C 0.40949 0.46797 0.73394 0.0
H2792 H 0.44742 0.44285 0.68695 0.0
H2793 H 0.40104 0.42105 0.62214 0.0
H2794 H 0.43917 0.46238 0.77861 0.0
H2795 H 0.4354 0.44324 0.80568 0.0
H2796 H 0.45186 0.45268 0.76497 0.0
H2797 H 0.3777 0.41551 0.66666 0.0
H2798 H 0.37908 0.41622 0.731 0.0
H2799 H 0.38133 0.43402 0.69858 0.0
H2800 H 0.39415 0.43091 0.89373 0.0
H2801 H 0.40022 0.47444 0.81868 0.0
H2802 H 0.41343 0.41697 0.81815 0.0
H2803 H 0.39441 0.40806 0.78946 0.0
H2804 H 0.39559 0.40865 0.85384 0.0
H2805 H 0.42218 0.47153 0.72538 0.0
H2806 H 0.40793 0.47929 0.73924 0.0
H2807 H 0.40234 0.46133 0.70253 0.0
loop_
_geom_bond_atom_site_label_1
_geom_bond_atom_site_label_2
_geom_bond_distance
_geom_bond_site_symmetry_2
_ccdc_geom_bond_type
Co0 O1 2.216 . S
Co0 O2 2.091 . S
Co0 O4 2.004 . S
Co0 O10 2.021 . S
Co0 O12 2.137 . S
Co0 O13 2.244 . S
O1 Co0 2.216 . S
O1 C8 1.247 . S
O2 Co0 2.091 . S
O2 C8 1.261 . S
C3 O12 1.247 . S
C3 O13 1.272 . S
O4 Co0 2.004 . S
O4 C9 1.259 . S
Co5 O6 2.061 . S
Co5 O11 2.052 . S
Co5 O13 2.135 . S
O6 Co5 2.061 . S
O6 C9 1.235 . S
C7 O10 1.238 . S
C7 O11 1.241 . S
C8 O1 1.247 . S
C8 O2 1.261 . S
C9 O4 1.259 . S
C9 O6 1.235 . S
O10 Co0 2.021 . S
O10 C7 1.238 . S
O11 Co5 2.052 . S
O11 C7 1.241 . S
O12 Co0 2.137 . S
O12 C3 1.247 . S
O13 Co0 2.244 . S
O13 C3 1.272 . S
O13 Co5 2.135 . S
Co14 O15 2.216 . S
Co14 O16 2.091 . S
Co14 O18 2.004 . S
Co14 O24 2.021 . S
Co14 O26 2.137 . S
Co14 O27 2.244 . S
O15 Co14 2.216 . S
O15 C22 1.247 . S
O16 Co14 2.091 . S
O16 C22 1.261 . S
C17 O26 1.247 . S
C17 O27 1.272 . S
O18 Co14 2.004 . S
O18 C23 1.259 . S
Co19 O20 2.061 . S
Co19 O25 2.052 . S
Co19 O27 2.135 . S
O20 Co19 2.061 . S
O20 C23 1.235 . S
C21 O24 1.238 . S
C21 O25 1.241 . S
C22 O15 1.247 . S
C22 O16 1.261 . S
C23 O18 1.259 . S
C23 O20 1.235 . S
O24 Co14 2.021 . S
O24 C21 1.238 . S
O25 Co19 2.052 . S
O25 C21 1.241 . S
O26 Co14 2.137 . S
O26 C17 1.247 . S
O27 Co14 2.244 . S
O27 C17 1.272 . S
O27 Co19 2.135 . S
Co28 O29 2.216 . S
Co28 O30 2.091 . S
Co28 O32 2.004 . S
Co28 O38 2.021 . S
Co28 O40 2.137 . S
Co28 O41 2.244 . S
O29 Co28 2.216 . S
O29 C36 1.247 . S
O30 Co28 2.091 . S
O30 C36 1.261 . S
C31 O40 1.247 . S
C31 O41 1.272 . S
O32 Co28 2.004 . S
O32 C37 1.259 . S
Co33 O34 2.061 . S
Co33 O39 2.052 . S
Co33 O41 2.135 . S
O34 Co33 2.061 . S
O34 C37 1.235 . S
C35 O38 1.238 . S
C35 O39 1.241 . S
C36 O29 1.247 . S
C36 O30 1.261 . S
C37 O32 1.259 . S
C37 O34 1.235 . S
O38 Co28 2.021 . S
O38 C35 1.238 . S
O39 Co33 2.052 . S
O39 C35 1.241 . S
O40 Co28 2.137 . S
O40 C31 1.247 . S
O41 Co28 2.244 . S
O41 C31 1.272 . S
O41 Co33 2.135 . S
Co42 O43 2.216 . S
Co42 O44 2.091 . S
Co42 O46 2.004 . S
Co42 O52 2.021 . S
Co42 O54 2.137 . S
Co42 O55 2.244 . S
O43 Co42 2.216 . S
O43 C50 1.247 . S
O44 Co42 2.091 . S
O44 C50 1.261 . S
C45 O54 1.247 . S
C45 O55 1.272 . S
O46 Co42 2.004 . S
O46 C51 1.259 . S
Co47 O48 2.061 . S
Co47 O53 2.052 . S
Co47 O55 2.135 . S
O48 Co47 2.061 . S
O48 C51 1.235 . S
C49 O52 1.238 . S
C49 O53 1.241 . S
C50 O43 1.247 . S
C50 O44 1.261 . S
C51 O46 1.259 . S
C51 O48 1.235 . S
O52 Co42 2.021 . S
O52 C49 1.238 . S
O53 Co47 2.052 . S
O53 C49 1.241 . S
O54 Co42 2.137 . S
O54 C45 1.247 . S
O55 Co42 2.244 . S
O55 C45 1.272 . S
O55 Co47 2.135 . S
Co56 O57 2.216 . S
Co56 O58 2.091 . S
Co56 O60 2.004 . S
Co56 O66 2.021 . S
Co56 O68 2.137 . S
Co56 O69 2.244 . S
O57 Co56 2.216 . S
O57 C64 1.247 . S
O58 Co56 2.091 . S
O58 C64 1.261 . S
C59 O68 1.247 . S
C59 O69 1.272 . S
O60 Co56 2.004 . S
O60 C65 1.259 . S
Co61 O62 2.061 . S
Co61 O67 2.052 . S
Co61 O69 2.135 . S
O62 Co61 2.061 . S
O62 C65 1.235 . S
C63 O66 1.238 . S
C63 O67 1.241 . S
C64 O57 1.247 . S
C64 O58 1.261 . S
C65 O60 1.259 . S
C65 O62 1.235 . S
O66 Co56 2.021 . S
O66 C63 1.238 . S
O67 Co61 2.052 . S
O67 C63 1.241 . S
O68 Co56 2.137 . S
O68 C59 1.247 . S
O69 Co56 2.244 . S
O69 C59 1.272 . S
O69 Co61 2.135 . S
Co70 O71 2.216 . S
Co70 O72 2.091 . S
Co70 O74 2.004 . S
Co70 O80 2.021 . S
Co70 O82 2.137 . S
Co70 O83 2.244 . S
O71 Co70 2.216 . S
O71 C78 1.247 . S
O72 Co70 2.091 . S
O72 C78 1.261 . S
C73 O82 1.247 . S
C73 O83 1.272 . S
O74 Co70 2.004 . S
O74 C79 1.259 . S
Co75 O76 2.061 . S
Co75 O81 2.052 . S
Co75 O83 2.135 . S
O76 Co75 2.061 . S
O76 C79 1.235 . S
C77 O80 1.238 . S
C77 O81 1.241 . S
C78 O71 1.247 . S
C78 O72 1.261 . S
C79 O74 1.259 . S
C79 O76 1.235 . S
O80 Co70 2.021 . S
O80 C77 1.238 . S
O81 Co75 2.052 . S
O81 C77 1.241 . S
O82 Co70 2.137 . S
O82 C73 1.247 . S
O83 Co70 2.244 . S
O83 C73 1.272 . S
O83 Co75 2.135 . S
Co84 O85 2.216 . S
Co84 O86 2.091 . S
Co84 O88 2.004 . S
Co84 O94 2.021 . S
Co84 O96 2.137 . S
Co84 O97 2.244 . S
O85 Co84 2.216 . S
O85 C92 1.247 . S
O86 Co84 2.091 . S
O86 C92 1.261 . S
C87 O96 1.247 . S
C87 O97 1.272 . S
O88 Co84 2.004 . S
O88 C93 1.259 . S
Co89 O90 2.061 . S
Co89 O95 2.052 . S
Co89 O97 2.135 . S
O90 Co89 2.061 . S
O90 C93 1.235 . S
C91 O94 1.238 . S
C91 O95 1.241 . S
C92 O85 1.247 . S
C92 O86 1.261 . S
C93 O88 1.259 . S
C93 O90 1.235 . S
O94 Co84 2.021 . S
O94 C91 1.238 . S
O95 Co89 2.052 . S
O95 C91 1.241 . S
O96 Co84 2.137 . S
O96 C87 1.247 . S
O97 Co84 2.244 . S
O97 C87 1.272 . S
O97 Co89 2.135 . S
Co98 O99 2.216 . S
Co98 O100 2.091 . S
Co98 O102 2.004 . S
Co98 O108 2.021 . S
Co98 O110 2.137 . S
Co98 O111 2.244 . S
O99 Co98 2.216 . S
O99 C106 1.247 . S
O100 Co98 2.091 . S
O100 C106 1.261 . S
C101 O110 1.247 . S
C101 O111 1.272 . S
O102 Co98 2.004 . S
O102 C107 1.259 . S
Co103 O104 2.061 . S
Co103 O109 2.052 . S
Co103 O111 2.135 . S
O104 Co103 2.061 . S
O104 C107 1.235 . S
C105 O108 1.238 . S
C105 O109 1.241 . S
C106 O99 1.247 . S
C106 O100 1.261 . S
C107 O102 1.259 . S
C107 O104 1.235 . S
O108 Co98 2.021 . S
O108 C105 1.238 . S
O109 Co103 2.052 . S
O109 C105 1.241 . S
O110 Co98 2.137 . S
O110 C101 1.247 . S
O111 Co98 2.244 . S
O111 C101 1.272 . S
O111 Co103 2.135 . S
Co112 O113 2.216 . S
Co112 O114 2.091 . S
Co112 O116 2.004 . S
Co112 O122 2.021 . S
Co112 O124 2.137 . S
Co112 O125 2.244 . S
O113 Co112 2.216 . S
O113 C120 1.247 . S
O114 Co112 2.091 . S
O114 C120 1.261 . S
C115 O124 1.247 . S
C115 O125 1.272 . S
O116 Co112 2.004 . S
O116 C121 1.259 . S
Co117 O118 2.061 . S
Co117 O123 2.052 . S
Co117 O125 2.135 . S
O118 Co117 2.061 . S
O118 C121 1.235 . S
C119 O122 1.238 . S
C119 O123 1.241 . S
C120 O113 1.247 . S
C120 O114 1.261 . S
C121 O116 1.259 . S
C121 O118 1.235 . S
O122 Co112 2.021 . S
O122 C119 1.238 . S
O123 Co117 2.052 . S
O123 C119 1.241 . S
O124 Co112 2.137 . S
O124 C115 1.247 . S
O125 Co112 2.244 . S
O125 C115 1.272 . S
O125 Co117 2.135 . S
Co126 O127 2.216 . S
Co126 O128 2.091 . S
Co126 O130 2.004 . S
Co126 O136 2.021 . S
Co126 O138 2.137 . S
Co126 O139 2.244 . S
O127 Co126 2.216 . S
O127 C134 1.247 . S
O128 Co126 2.091 . S
O128 C134 1.261 . S
C129 O138 1.247 . S
C129 O139 1.272 . S
O130 Co126 2.004 . S
O130 C135 1.259 . S
Co131 O132 2.061 . S
Co131 O137 2.052 . S
Co131 O139 2.135 . S
O132 Co131 2.061 . S
O132 C135 1.235 . S
C133 O136 1.238 . S
C133 O137 1.241 . S
C134 O127 1.247 . S
C134 O128 1.261 . S
C135 O130 1.259 . S
C135 O132 1.235 . S
O136 Co126 2.021 . S
O136 C133 1.238 . S
O137 Co131 2.052 . S
O137 C133 1.241 . S
O138 Co126 2.137 . S
O138 C129 1.247 . S
O139 Co126 2.244 . S
O139 C129 1.272 . S
O139 Co131 2.135 . S
Co140 O141 2.216 . S
Co140 O142 2.091 . S
Co140 O144 2.004 . S
Co140 O150 2.021 . S
Co140 O152 2.137 . S
Co140 O153 2.244 . S
O141 Co140 2.216 . S
O141 C148 1.247 . S
O142 Co140 2.091 . S
O142 C148 1.261 . S
C143 O152 1.247 . S
C143 O153 1.272 . S
O144 Co140 2.004 . S
O144 C149 1.259 . S
Co145 O146 2.061 . S
Co145 O151 2.052 . S
Co145 O153 2.135 . S
O146 Co145 2.061 . S
O146 C149 1.235 . S
C147 O150 1.238 . S
C147 O151 1.241 . S
C148 O141 1.247 . S
C148 O142 1.261 . S
C149 O144 1.259 . S
C149 O146 1.235 . S
O150 Co140 2.021 . S
O150 C147 1.238 . S
O151 Co145 2.052 . S
O151 C147 1.241 . S
O152 Co140 2.137 . S
O152 C143 1.247 . S
O153 Co140 2.244 . S
O153 C143 1.272 . S
O153 Co145 2.135 . S
Co154 O155 2.216 . S
Co154 O156 2.091 . S
Co154 O158 2.004 . S
Co154 O164 2.021 . S
Co154 O166 2.137 . S
Co154 O167 2.244 . S
O155 Co154 2.216 . S
O155 C162 1.247 . S
O156 Co154 2.091 . S
O156 C162 1.261 . S
C157 O166 1.247 . S
C157 O167 1.272 . S
O158 Co154 2.004 . S
O158 C163 1.259 . S
Co159 O160 2.061 . S
Co159 O165 2.052 . S
Co159 O167 2.135 . S
O160 Co159 2.061 . S
O160 C163 1.235 . S
C161 O164 1.238 . S
C161 O165 1.241 . S
C162 O155 1.247 . S
C162 O156 1.261 . S
C163 O158 1.259 . S
C163 O160 1.235 . S
O164 Co154 2.021 . S
O164 C161 1.238 . S
O165 Co159 2.052 . S
O165 C161 1.241 . S
O166 Co154 2.137 . S
O166 C157 1.247 . S
O167 Co154 2.244 . S
O167 C157 1.272 . S
O167 Co159 2.135 . S
Co168 O169 2.216 . S
Co168 O170 2.091 . S
Co168 O172 2.004 . S
Co168 O178 2.021 1_455 S
Co168 O180 2.137 . S
Co168 O181 2.244 1_455 S
O169 Co168 2.216 . S
O169 C176 1.247 . S
O170 Co168 2.091 . S
O170 C176 1.261 . S
C171 O180 1.247 1_655 S
C171 O181 1.272 . S
O172 Co168 2.004 . S
O172 C177 1.259 . S
Co173 O174 2.061 . S
Co173 O179 2.052 . S
Co173 O181 2.135 . S
O174 Co173 2.061 . S
O174 C177 1.235 1_655 S
C175 O178 1.238 . S
C175 O179 1.241 . S
C176 O169 1.247 . S
C176 O170 1.261 . S
C177 O172 1.259 . S
C177 O174 1.235 1_455 S
O178 Co168 2.021 1_655 S
O178 C175 1.238 . S
O179 Co173 2.052 . S
O179 C175 1.241 . S
O180 Co168 2.137 . S
O180 C171 1.247 1_455 S
O181 Co168 2.244 1_655 S
O181 C171 1.272 . S
O181 Co173 2.135 . S
Co182 O183 2.216 . S
Co182 O184 2.091 . S
Co182 O186 2.004 . S
Co182 O192 2.021 . S
Co182 O194 2.137 . S
Co182 O195 2.244 . S
O183 Co182 2.216 . S
O183 C190 1.247 . S
O184 Co182 2.091 . S
O184 C190 1.261 . S
C185 O194 1.247 . S
C185 O195 1.272 . S
O186 Co182 2.004 . S
O186 C191 1.259 . S
Co187 O188 2.061 . S
Co187 O193 2.052 . S
Co187 O195 2.135 . S
O188 Co187 2.061 . S
O188 C191 1.235 . S
C189 O192 1.238 . S
C189 O193 1.241 . S
C190 O183 1.247 . S
C190 O184 1.261 . S
C191 O186 1.259 . S
C191 O188 1.235 . S
O192 Co182 2.021 . S
O192 C189 1.238 . S
O193 Co187 2.052 . S
O193 C189 1.241 . S
O194 Co182 2.137 . S
O194 C185 1.247 . S
O195 Co182 2.244 . S
O195 C185 1.272 . S
O195 Co187 2.135 . S
Co196 O197 2.216 . S
Co196 O198 2.091 . S
Co196 O200 2.004 . S
Co196 O206 2.021 . S
Co196 O208 2.137 . S
Co196 O209 2.244 . S
O197 Co196 2.216 . S
O197 C204 1.247 . S
O198 Co196 2.091 . S
O198 C204 1.261 . S
C199 O208 1.247 . S
C199 O209 1.272 . S
O200 Co196 2.004 . S
O200 C205 1.259 . S
Co201 O202 2.061 . S
Co201 O207 2.052 . S
Co201 O209 2.135 . S
O202 Co201 2.061 . S
O202 C205 1.235 . S
C203 O206 1.238 . S
C203 O207 1.241 . S
C204 O197 1.247 . S
C204 O198 1.261 . S
C205 O200 1.259 . S
C205 O202 1.235 . S
O206 Co196 2.021 . S
O206 C203 1.238 . S
O207 Co201 2.052 . S
O207 C203 1.241 . S
O208 Co196 2.137 . S
O208 C199 1.247 . S
O209 Co196 2.244 . S
O209 C199 1.272 . S
O209 Co201 2.135 . S
Co210 O211 2.216 . S
Co210 O212 2.091 . S
Co210 O214 2.004 . S
Co210 O220 2.021 . S
Co210 O222 2.137 . S
Co210 O223 2.244 . S
O211 Co210 2.216 . S
O211 C218 1.247 . S
O212 Co210 2.091 . S
O212 C218 1.261 . S
C213 O222 1.247 . S
C213 O223 1.272 . S
O214 Co210 2.004 . S
O214 C219 1.259 . S
Co215 O216 2.061 . S
Co215 O221 2.052 . S
Co215 O223 2.135 . S
O216 Co215 2.061 . S
O216 C219 1.235 . S
C217 O220 1.238 . S
C217 O221 1.241 . S
C218 O211 1.247 . S
C218 O212 1.261 . S
C219 O214 1.259 . S
C219 O216 1.235 . S
O220 Co210 2.021 . S
O220 C217 1.238 . S
O221 Co215 2.052 . S
O221 C217 1.241 . S
O222 Co210 2.137 . S
O222 C213 1.247 . S
O223 Co210 2.244 . S
O223 C213 1.272 . S
O223 Co215 2.135 . S
Co224 O225 2.216 . S
Co224 O226 2.091 . S
Co224 O228 2.004 . S
Co224 O234 2.021 . S
Co224 O236 2.137 . S
Co224 O237 2.244 . S
O225 Co224 2.216 . S
O225 C232 1.247 . S
O226 Co224 2.091 . S
O226 C232 1.261 . S
C227 O236 1.247 . S
C227 O237 1.272 . S
O228 Co224 2.004 . S
O228 C233 1.259 . S
Co229 O230 2.061 . S
Co229 O235 2.052 . S
Co229 O237 2.135 . S
O230 Co229 2.061 . S
O230 C233 1.235 . S
C231 O234 1.238 . S
C231 O235 1.241 . S
C232 O225 1.247 . S
C232 O226 1.261 . S
C233 O228 1.259 . S
C233 O230 1.235 . S
O234 Co224 2.021 . S
O234 C231 1.238 . S
O235 Co229 2.052 . S
O235 C231 1.241 . S
O236 Co224 2.137 . S
O236 C227 1.247 . S
O237 Co224 2.244 . S
O237 C227 1.272 . S
O237 Co229 2.135 . S
Co238 O239 2.216 . S
Co238 O240 2.091 . S
Co238 O242 2.004 . S
Co238 O248 2.021 . S
Co238 O250 2.137 . S
Co238 O251 2.244 . S
O239 Co238 2.216 . S
O239 C246 1.247 . S
O240 Co238 2.091 . S
O240 C246 1.261 . S
C241 O250 1.247 . S
C241 O251 1.272 . S
O242 Co238 2.004 . S
O242 C247 1.259 . S
Co243 O244 2.061 . S
Co243 O249 2.052 . S
Co243 O251 2.135 . S
O244 Co243 2.061 . S
O244 C247 1.235 . S
C245 O248 1.238 . S
C245 O249 1.241 . S
C246 O239 1.247 . S
C246 O240 1.261 . S
C247 O242 1.259 . S
C247 O244 1.235 . S
O248 Co238 2.021 . S
O248 C245 1.238 . S
O249 Co243 2.052 . S
O249 C245 1.241 . S
O250 Co238 2.137 . S
O250 C241 1.247 . S
O251 Co238 2.244 . S
O251 C241 1.272 . S
O251 Co243 2.135 . S
Co252 O253 2.216 . S
Co252 O254 2.091 . S
Co252 O256 2.004 . S
Co252 O262 2.021 . S
Co252 O264 2.137 . S
Co252 O265 2.244 . S
O253 Co252 2.216 . S
O253 C260 1.247 . S
O254 Co252 2.091 . S
O254 C260 1.261 . S
C255 O264 1.247 . S
C255 O265 1.272 . S
O256 Co252 2.004 . S
O256 C261 1.259 . S
Co257 O258 2.061 . S
Co257 O263 2.052 . S
Co257 O265 2.135 . S
O258 Co257 2.061 . S
O258 C261 1.235 . S
C259 O262 1.238 . S
C259 O263 1.241 . S
C260 O253 1.247 . S
C260 O254 1.261 . S
C261 O256 1.259 . S
C261 O258 1.235 . S
O262 Co252 2.021 . S
O262 C259 1.238 . S
O263 Co257 2.052 . S
O263 C259 1.241 . S
O264 Co252 2.137 . S
O264 C255 1.247 . S
O265 Co252 2.244 . S
O265 C255 1.272 . S
O265 Co257 2.135 . S
Co266 O267 2.216 . S
Co266 O268 2.091 . S
Co266 O270 2.004 . S
Co266 O276 2.021 . S
Co266 O278 2.137 . S
Co266 O279 2.244 . S
O267 Co266 2.216 . S
O267 C274 1.247 . S
O268 Co266 2.091 . S
O268 C274 1.261 . S
C269 O278 1.247 . S
C269 O279 1.272 . S
O270 Co266 2.004 . S
O270 C275 1.259 . S
Co271 O272 2.061 . S
Co271 O277 2.052 . S
Co271 O279 2.135 . S
O272 Co271 2.061 . S
O272 C275 1.235 . S
C273 O276 1.238 . S
C273 O277 1.241 . S
C274 O267 1.247 . S
C274 O268 1.261 . S
C275 O270 1.259 . S
C275 O272 1.235 . S
O276 Co266 2.021 . S
O276 C273 1.238 . S
O277 Co271 2.052 . S
O277 C273 1.241 . S
O278 Co266 2.137 . S
O278 C269 1.247 . S
O279 Co266 2.244 . S
O279 C269 1.272 . S
O279 Co271 2.135 . S
Co280 O281 2.216 . S
Co280 O282 2.091 . S
Co280 O284 2.004 . S
Co280 O290 2.021 . S
Co280 O292 2.137 . S
Co280 O293 2.244 . S
O281 Co280 2.216 . S
O281 C288 1.247 . S
O282 Co280 2.091 . S
O282 C288 1.261 . S
C283 O292 1.247 . S
C283 O293 1.272 . S
O284 Co280 2.004 . S
O284 C289 1.259 . S
Co285 O286 2.061 . S
Co285 O291 2.052 . S
Co285 O293 2.135 . S
O286 Co285 2.061 . S
O286 C289 1.235 . S
C287 O290 1.238 . S
C287 O291 1.241 . S
C288 O281 1.247 . S
C288 O282 1.261 . S
C289 O284 1.259 . S
C289 O286 1.235 . S
O290 Co280 2.021 . S
O290 C287 1.238 . S
O291 Co285 2.052 . S
O291 C287 1.241 . S
O292 Co280 2.137 . S
O292 C283 1.247 . S
O293 Co280 2.244 . S
O293 C283 1.272 . S
O293 Co285 2.135 . S
Co294 O295 2.216 1_545 S
Co294 O296 2.091 . S
Co294 O298 2.004 1_554 S
Co294 O304 2.021 . S
Co294 O306 2.137 1_545 S
Co294 O307 2.244 1_544 S
O295 Co294 2.216 1_565 S
O295 C302 1.247 1_565 S
O296 Co294 2.091 . S
O296 C302 1.261 . S
C297 O306 1.247 1_556 S
C297 O307 1.272 . S
O298 Co294 2.004 1_556 S
O298 C303 1.259 . S
Co299 O300 2.061 . S
Co299 O305 2.052 . S
Co299 O307 2.135 . S
O300 Co299 2.061 . S
O300 C303 1.235 1_565 S
C301 O304 1.238 1_566 S
C301 O305 1.241 . S
C302 O295 1.247 1_545 S
C302 O296 1.261 . S
C303 O298 1.259 . S
C303 O300 1.235 1_545 S
O304 Co294 2.021 . S
O304 C301 1.238 1_544 S
O305 Co299 2.052 . S
O305 C301 1.241 . S
O306 Co294 2.137 1_565 S
O306 C297 1.247 1_554 S
O307 Co294 2.244 1_566 S
O307 C297 1.272 . S
O307 Co299 2.135 . S
Co308 O309 2.216 . S
Co308 O310 2.091 . S
Co308 O312 2.004 1_554 S
Co308 O318 2.021 . S
Co308 O320 2.137 . S
Co308 O321 2.244 1_554 S
O309 Co308 2.216 . S
O309 C316 1.247 . S
O310 Co308 2.091 . S
O310 C316 1.261 . S
C311 O320 1.247 1_556 S
C311 O321 1.272 . S
O312 Co308 2.004 1_556 S
O312 C317 1.259 . S
Co313 O314 2.061 . S
Co313 O319 2.052 . S
Co313 O321 2.135 . S
O314 Co313 2.061 . S
O314 C317 1.235 . S
C315 O318 1.238 1_556 S
C315 O319 1.241 . S
C316 O309 1.247 . S
C316 O310 1.261 . S
C317 O312 1.259 . S
C317 O314 1.235 . S
O318 Co308 2.021 . S
O318 C315 1.238 1_554 S
O319 Co313 2.052 . S
O319 C315 1.241 . S
O320 Co308 2.137 . S
O320 C311 1.247 1_554 S
O321 Co308 2.244 1_556 S
O321 C311 1.272 . S
O321 Co313 2.135 . S
Co322 O323 2.216 . S
Co322 O324 2.091 . S
Co322 O326 2.004 1_554 S
Co322 O332 2.021 . S
Co322 O334 2.137 . S
Co322 O335 2.244 1_554 S
O323 Co322 2.216 . S
O323 C330 1.247 . S
O324 Co322 2.091 . S
O324 C330 1.261 . S
C325 O334 1.247 1_556 S
C325 O335 1.272 . S
O326 Co322 2.004 1_556 S
O326 C331 1.259 . S
Co327 O328 2.061 . S
Co327 O333 2.052 . S
Co327 O335 2.135 . S
O328 Co327 2.061 . S
O328 C331 1.235 . S
C329 O332 1.238 1_556 S
C329 O333 1.241 . S
C330 O323 1.247 . S
C330 O324 1.261 . S
C331 O326 1.259 . S
C331 O328 1.235 . S
O332 Co322 2.021 . S
O332 C329 1.238 1_554 S
O333 Co327 2.052 . S
O333 C329 1.241 . S
O334 Co322 2.137 . S
O334 C325 1.247 1_554 S
O335 Co322 2.244 1_556 S
O335 C325 1.272 . S
O335 Co327 2.135 . S
Co336 O337 2.216 . S
Co336 O338 2.091 . S
Co336 O340 2.004 . S
Co336 O346 2.021 . S
Co336 O348 2.137 . S
Co336 O349 2.244 . S
O337 Co336 2.216 . S
O337 C344 1.247 . S
O338 Co336 2.091 . S
O338 C344 1.261 . S
C339 O348 1.247 . S
C339 O349 1.272 . S
O340 Co336 2.004 . S
O340 C345 1.259 . S
Co341 O342 2.061 . S
Co341 O347 2.052 . S
Co341 O349 2.135 . S
O342 Co341 2.061 . S
O342 C345 1.235 . S
C343 O346 1.238 . S
C343 O347 1.241 . S
C344 O337 1.247 . S
C344 O338 1.261 . S
C345 O340 1.259 . S
C345 O342 1.235 . S
O346 Co336 2.021 . S
O346 C343 1.238 . S
O347 Co341 2.052 . S
O347 C343 1.241 . S
O348 Co336 2.137 . S
O348 C339 1.247 . S
O349 Co336 2.244 . S
O349 C339 1.272 . S
O349 Co341 2.135 . S
Co350 O351 2.216 . S
Co350 O352 2.091 . S
Co350 O354 2.004 . S
Co350 O360 2.021 . S
Co350 O362 2.137 . S
Co350 O363 2.244 . S
O351 Co350 2.216 . S
O351 C358 1.247 . S
O352 Co350 2.091 . S
O352 C358 1.261 . S
C353 O362 1.247 . S
C353 O363 1.272 . S
O354 Co350 2.004 . S
O354 C359 1.259 . S
Co355 O356 2.061 . S
Co355 O361 2.052 . S
Co355 O363 2.135 . S
O356 Co355 2.061 . S
O356 C359 1.235 . S
C357 O360 1.238 . S
C357 O361 1.241 . S
C358 O351 1.247 . S
C358 O352 1.261 . S
C359 O354 1.259 . S
C359 O356 1.235 . S
O360 Co350 2.021 . S
O360 C357 1.238 . S
O361 Co355 2.052 . S
O361 C357 1.241 . S
O362 Co350 2.137 . S
O362 C353 1.247 . S
O363 Co350 2.244 . S
O363 C353 1.272 . S
O363 Co355 2.135 . S
Co364 O365 2.216 . S
Co364 O366 2.091 . S
Co364 O368 2.004 . S
Co364 O374 2.021 . S
Co364 O376 2.137 . S
Co364 O377 2.244 . S
O365 Co364 2.216 . S
O365 C372 1.247 . S
O366 Co364 2.091 . S
O366 C372 1.261 . S
C367 O376 1.247 . S
C367 O377 1.272 . S
O368 Co364 2.004 . S
O368 C373 1.259 . S
Co369 O370 2.061 . S
Co369 O375 2.052 . S
Co369 O377 2.135 . S
O370 Co369 2.061 . S
O370 C373 1.235 . S
C371 O374 1.238 . S
C371 O375 1.241 . S
C372 O365 1.247 . S
C372 O366 1.261 . S
C373 O368 1.259 . S
C373 O370 1.235 . S
O374 Co364 2.021 . S
O374 C371 1.238 . S
O375 Co369 2.052 . S
O375 C371 1.241 . S
O376 Co364 2.137 . S
O376 C367 1.247 . S
O377 Co364 2.244 . S
O377 C367 1.272 . S
O377 Co369 2.135 . S
Co378 O379 2.216 1_556 S
Co378 O380 2.091 1_556 S
Co378 O382 2.004 . S
Co378 O388 2.021 1_546 S
Co378 O390 2.137 . S
Co378 O391 2.244 1_545 S
O379 Co378 2.216 1_554 S
O379 C386 1.247 . S
O380 Co378 2.091 1_554 S
O380 C386 1.261 . S
C381 O390 1.247 1_565 S
C381 O391 1.272 . S
O382 Co378 2.004 . S
O382 C387 1.259 . S
Co383 O384 2.061 . S
Co383 O389 2.052 1_556 S
Co383 O391 2.135 . S
O384 Co383 2.061 . S
O384 C387 1.235 1_565 S
C385 O388 1.238 . S
C385 O389 1.241 . S
C386 O379 1.247 . S
C386 O380 1.261 . S
C387 O382 1.259 . S
C387 O384 1.235 1_545 S
O388 Co378 2.021 1_564 S
O388 C385 1.238 . S
O389 Co383 2.052 1_554 S
O389 C385 1.241 . S
O390 Co378 2.137 . S
O390 C381 1.247 1_545 S
O391 Co378 2.244 1_565 S
O391 C381 1.272 . S
O391 Co383 2.135 . S
Co392 O393 2.216 . S
Co392 O394 2.091 . S
Co392 O396 2.004 1_556 S
Co392 O402 2.021 . S
Co392 O404 2.137 . S
Co392 O405 2.244 1_556 S
O393 Co392 2.216 . S
O393 C400 1.247 . S
O394 Co392 2.091 . S
O394 C400 1.261 . S
C395 O404 1.247 1_554 S
C395 O405 1.272 . S
O396 Co392 2.004 1_554 S
O396 C401 1.259 . S
Co397 O398 2.061 . S
Co397 O403 2.052 . S
Co397 O405 2.135 . S
O398 Co397 2.061 . S
O398 C401 1.235 . S
C399 O402 1.238 1_554 S
C399 O403 1.241 . S
C400 O393 1.247 . S
C400 O394 1.261 . S
C401 O396 1.259 . S
C401 O398 1.235 . S
O402 Co392 2.021 . S
O402 C399 1.238 1_556 S
O403 Co397 2.052 . S
O403 C399 1.241 . S
O404 Co392 2.137 . S
O404 C395 1.247 1_556 S
O405 Co392 2.244 1_554 S
O405 C395 1.272 . S
O405 Co397 2.135 . S
Co406 O407 2.216 1_556 S
Co406 O408 2.091 1_556 S
Co406 O410 2.004 . S
Co406 O416 2.021 1_556 S
Co406 O418 2.137 . S
Co406 O419 2.244 . S
O407 Co406 2.216 1_554 S
O407 C414 1.247 . S
O408 Co406 2.091 1_554 S
O408 C414 1.261 . S
C409 O418 1.247 . S
C409 O419 1.272 . S
O410 Co406 2.004 . S
O410 C415 1.259 . S
Co411 O412 2.061 . S
Co411 O417 2.052 1_556 S
Co411 O419 2.135 . S
O412 Co411 2.061 . S
O412 C415 1.235 . S
C413 O416 1.238 . S
C413 O417 1.241 . S
C414 O407 1.247 . S
C414 O408 1.261 . S
C415 O410 1.259 . S
C415 O412 1.235 . S
O416 Co406 2.021 1_554 S
O416 C413 1.238 . S
O417 Co411 2.052 1_554 S
O417 C413 1.241 . S
O418 Co406 2.137 . S
O418 C409 1.247 . S
O419 Co406 2.244 . S
O419 C409 1.272 . S
O419 Co411 2.135 . S
Co420 O421 2.216 1_455 S
Co420 O422 2.091 . S
Co420 O424 2.004 . S
Co420 O430 2.021 . S
Co420 O432 2.137 1_455 S
Co420 O433 2.244 1_455 S
O421 Co420 2.216 1_655 S
O421 C428 1.247 1_655 S
O422 Co420 2.091 . S
O422 C428 1.261 . S
C423 O432 1.247 . S
C423 O433 1.272 . S
O424 Co420 2.004 . S
O424 C429 1.259 . S
Co425 O426 2.061 . S
Co425 O431 2.052 . S
Co425 O433 2.135 . S
O426 Co425 2.061 . S
O426 C429 1.235 1_655 S
C427 O430 1.238 1_655 S
C427 O431 1.241 . S
C428 O421 1.247 1_455 S
C428 O422 1.261 . S
C429 O424 1.259 . S
C429 O426 1.235 1_455 S
O430 Co420 2.021 . S
O430 C427 1.238 1_455 S
O431 Co425 2.052 . S
O431 C427 1.241 . S
O432 Co420 2.137 1_655 S
O432 C423 1.247 . S
O433 Co420 2.244 1_655 S
O433 C423 1.272 . S
O433 Co425 2.135 . S
Co434 O435 2.216 . S
Co434 O436 2.091 . S
Co434 O438 2.004 . S
Co434 O444 2.021 . S
Co434 O446 2.137 . S
Co434 O447 2.244 . S
O435 Co434 2.216 . S
O435 C442 1.247 . S
O436 Co434 2.091 . S
O436 C442 1.261 . S
C437 O446 1.247 . S
C437 O447 1.272 . S
O438 Co434 2.004 . S
O438 C443 1.259 . S
Co439 O440 2.061 . S
Co439 O445 2.052 . S
Co439 O447 2.135 . S
O440 Co439 2.061 . S
O440 C443 1.235 . S
C441 O444 1.238 . S
C441 O445 1.241 . S
C442 O435 1.247 . S
C442 O436 1.261 . S
C443 O438 1.259 . S
C443 O440 1.235 . S
O444 Co434 2.021 . S
O444 C441 1.238 . S
O445 Co439 2.052 . S
O445 C441 1.241 . S
O446 Co434 2.137 . S
O446 C437 1.247 . S
O447 Co434 2.244 . S
O447 C437 1.272 . S
O447 Co439 2.135 . S
Co448 O449 2.216 . S
Co448 O450 2.091 . S
Co448 O452 2.004 . S
Co448 O458 2.021 . S
Co448 O460 2.137 . S
Co448 O461 2.244 . S
O449 Co448 2.216 . S
O449 C456 1.247 . S
O450 Co448 2.091 . S
O450 C456 1.261 . S
C451 O460 1.247 . S
C451 O461 1.272 . S
O452 Co448 2.004 . S
O452 C457 1.259 . S
Co453 O454 2.061 . S
Co453 O459 2.052 . S
Co453 O461 2.135 . S
O454 Co453 2.061 . S
O454 C457 1.235 . S
C455 O458 1.238 . S
C455 O459 1.241 . S
C456 O449 1.247 . S
C456 O450 1.261 . S
C457 O452 1.259 . S
C457 O454 1.235 . S
O458 Co448 2.021 . S
O458 C455 1.238 . S
O459 Co453 2.052 . S
O459 C455 1.241 . S
O460 Co448 2.137 . S
O460 C451 1.247 . S
O461 Co448 2.244 . S
O461 C451 1.272 . S
O461 Co453 2.135 . S
Co462 O463 2.216 . S
Co462 O464 2.091 . S
Co462 O466 2.004 . S
Co462 O472 2.021 . S
Co462 O474 2.137 . S
Co462 O475 2.244 . S
O463 Co462 2.216 . S
O463 C470 1.247 . S
O464 Co462 2.091 . S
O464 C470 1.261 . S
C465 O474 1.247 . S
C465 O475 1.272 . S
O466 Co462 2.004 . S
O466 C471 1.259 . S
Co467 O468 2.061 . S
Co467 O473 2.052 . S
Co467 O475 2.135 . S
O468 Co467 2.061 . S
O468 C471 1.235 . S
C469 O472 1.238 . S
C469 O473 1.241 . S
C470 O463 1.247 . S
C470 O464 1.261 . S
C471 O466 1.259 . S
C471 O468 1.235 . S
O472 Co462 2.021 . S
O472 C469 1.238 . S
O473 Co467 2.052 . S
O473 C469 1.241 . S
O474 Co462 2.137 . S
O474 C465 1.247 . S
O475 Co462 2.244 . S
O475 C465 1.272 . S
O475 Co467 2.135 . S
Co476 O477 2.216 . S
Co476 O478 2.091 . S
Co476 O480 2.004 . S
Co476 O486 2.021 . S
Co476 O488 2.137 . S
Co476 O489 2.244 . S
O477 Co476 2.216 . S
O477 C484 1.247 . S
O478 Co476 2.091 . S
O478 C484 1.261 . S
C479 O488 1.247 . S
C479 O489 1.272 . S
O480 Co476 2.004 . S
O480 C485 1.259 . S
Co481 O482 2.061 . S
Co481 O487 2.052 . S
Co481 O489 2.135 . S
O482 Co481 2.061 . S
O482 C485 1.235 . S
C483 O486 1.238 . S
C483 O487 1.241 . S
C484 O477 1.247 . S
C484 O478 1.261 . S
C485 O480 1.259 . S
C485 O482 1.235 . S
O486 Co476 2.021 . S
O486 C483 1.238 . S
O487 Co481 2.052 . S
O487 C483 1.241 . S
O488 Co476 2.137 . S
O488 C479 1.247 . S
O489 Co476 2.244 . S
O489 C479 1.272 . S
O489 Co481 2.135 . S
Co490 O491 2.216 . S
Co490 O492 2.091 . S
Co490 O494 2.004 . S
Co490 O500 2.021 . S
Co490 O502 2.137 . S
Co490 O503 2.244 . S
O491 Co490 2.216 . S
O491 C498 1.247 . S
O492 Co490 2.091 . S
O492 C498 1.261 . S
C493 O502 1.247 . S
C493 O503 1.272 . S
O494 Co490 2.004 . S
O494 C499 1.259 . S
Co495 O496 2.061 . S
Co495 O501 2.052 . S
Co495 O503 2.135 . S
O496 Co495 2.061 . S
O496 C499 1.235 . S
C497 O500 1.238 . S
C497 O501 1.241 . S
C498 O491 1.247 . S
C498 O492 1.261 . S
C499 O494 1.259 . S
C499 O496 1.235 . S
O500 Co490 2.021 . S
O500 C497 1.238 . S
O501 Co495 2.052 . S
O501 C497 1.241 . S
O502 Co490 2.137 . S
O502 C493 1.247 . S
O503 Co490 2.244 . S
O503 C493 1.272 . S
O503 Co495 2.135 . S
C504 C505 1.391 . S
C504 C506 1.394 . S
C504 H520 0.931 . S
C505 C504 1.391 . S
C505 C509 1.376 . S
C506 C504 1.394 . S
C506 C507 1.369 . S
C506 C510 1.531 . S
C507 C506 1.369 . S
C507 C508 1.410 . S
C507 C515 1.503 . S
C508 C507 1.410 . S
C508 C509 1.392 . S
C508 C511 1.511 . S
C509 C505 1.376 . S
C509 C508 1.392 . S
C509 H521 0.929 . S
C510 C506 1.531 . S
C510 H522 0.960 . S
C510 H523 0.962 . S
C510 H524 0.960 . S
C511 C508 1.511 . S
C511 H525 0.961 . S
C511 H526 0.961 . S
C511 H527 0.961 . S
C512 C513 1.370 . S
C512 C514 1.363 . S
C512 H528 0.931 . S
C513 C512 1.370 . S
C513 C517 1.408 . S
C514 C512 1.363 . S
C514 C515 1.370 . S
C514 C518 1.524 . S
C515 C507 1.503 . S
C515 C514 1.370 . S
C515 C516 1.403 . S
C516 C515 1.403 . S
C516 C517 1.404 . S
C516 C519 1.539 . S
C517 C513 1.408 . S
C517 C516 1.404 . S
C517 H529 0.930 . S
C518 C514 1.524 . S
C518 H530 0.956 . S
C518 H531 0.961 . S
C518 H532 0.961 . S
C519 C516 1.539 . S
C519 H533 0.958 . S
C519 H534 0.961 . S
C519 H535 0.960 . S
H520 C504 0.931 . S
H521 C509 0.929 . S
H522 C510 0.960 . S
H523 C510 0.962 . S
H524 C510 0.960 . S
H525 C511 0.961 . S
H526 C511 0.961 . S
H527 C511 0.961 . S
H528 C512 0.931 . S
H529 C517 0.930 . S
H530 C518 0.956 . S
H531 C518 0.961 . S
H532 C518 0.961 . S
H533 C519 0.958 . S
H534 C519 0.961 . S
H535 C519 0.960 . S
C536 C537 1.391 . S
C536 C538 1.394 . S
C536 H552 0.931 . S
C537 C536 1.391 . S
C537 C541 1.376 . S
C538 C536 1.394 . S
C538 C539 1.369 . S
C538 C542 1.531 . S
C539 C538 1.369 . S
C539 C540 1.410 . S
C539 C547 1.503 . S
C540 C539 1.410 . S
C540 C541 1.392 . S
C540 C543 1.511 . S
C541 C537 1.376 . S
C541 C540 1.392 . S
C541 H553 0.929 . S
C542 C538 1.531 . S
C542 H554 0.960 . S
C542 H555 0.962 . S
C542 H556 0.960 . S
C543 C540 1.511 . S
C543 H557 0.961 . S
C543 H558 0.961 . S
C543 H559 0.961 . S
C544 C545 1.370 . S
C544 C546 1.363 . S
C544 H560 0.931 . S
C545 C544 1.370 . S
C545 C549 1.408 . S
C546 C544 1.363 . S
C546 C547 1.370 . S
C546 C550 1.524 . S
C547 C539 1.503 . S
C547 C546 1.370 . S
C547 C548 1.403 . S
C548 C547 1.403 . S
C548 C549 1.404 . S
C548 C551 1.539 . S
C549 C545 1.408 . S
C549 C548 1.404 . S
C549 H561 0.930 . S
C550 C546 1.524 . S
C550 H562 0.956 . S
C550 H563 0.961 . S
C550 H564 0.961 . S
C551 C548 1.539 . S
C551 H565 0.958 . S
C551 H566 0.961 . S
C551 H567 0.960 . S
H552 C536 0.931 . S
H553 C541 0.929 . S
H554 C542 0.960 . S
H555 C542 0.962 . S
H556 C542 0.960 . S
H557 C543 0.961 . S
H558 C543 0.961 . S
H559 C543 0.961 . S
H560 C544 0.931 . S
H561 C549 0.930 . S
H562 C550 0.956 . S
H563 C550 0.961 . S
H564 C550 0.961 . S
H565 C551 0.958 . S
H566 C551 0.961 . S
H567 C551 0.960 . S
C568 C569 1.391 . S
C568 C570 1.394 . S
C568 H584 0.931 . S
C569 C568 1.391 . S
C569 C573 1.376 . S
C570 C568 1.394 . S
C570 C571 1.369 . S
C570 C574 1.531 . S
C571 C570 1.369 . S
C571 C572 1.410 . S
C571 C579 1.503 . S
C572 C571 1.410 . S
C572 C573 1.392 . S
C572 C575 1.511 . S
C573 C569 1.376 . S
C573 C572 1.392 . S
C573 H585 0.929 . S
C574 C570 1.531 . S
C574 H586 0.960 . S
C574 H587 0.962 . S
C574 H588 0.960 . S
C575 C572 1.511 . S
C575 H589 0.961 . S
C575 H590 0.961 . S
C575 H591 0.961 . S
C576 C577 1.370 . S
C576 C578 1.363 . S
C576 H592 0.931 . S
C577 C576 1.370 . S
C577 C581 1.408 . S
C578 C576 1.363 . S
C578 C579 1.370 . S
C578 C582 1.524 . S
C579 C571 1.503 . S
C579 C578 1.370 . S
C579 C580 1.403 . S
C580 C579 1.403 . S
C580 C581 1.404 . S
C580 C583 1.539 . S
C581 C577 1.408 . S
C581 C580 1.404 . S
C581 H593 0.930 . S
C582 C578 1.524 . S
C582 H594 0.956 . S
C582 H595 0.961 . S
C582 H596 0.961 . S
C583 C580 1.539 . S
C583 H597 0.958 . S
C583 H598 0.961 . S
C583 H599 0.960 . S
H584 C568 0.931 . S
H585 C573 0.929 . S
H586 C574 0.960 . S
H587 C574 0.962 . S
H588 C574 0.960 . S
H589 C575 0.961 . S
H590 C575 0.961 . S
H591 C575 0.961 . S
H592 C576 0.931 . S
H593 C581 0.930 . S
H594 C582 0.956 . S
H595 C582 0.961 . S
H596 C582 0.961 . S
H597 C583 0.958 . S
H598 C583 0.961 . S
H599 C583 0.960 . S
C600 C601 1.391 . S
C600 C602 1.394 1_556 S
C600 H616 0.931 . S
C601 C600 1.391 . S
C601 C605 1.376 . S
C602 C600 1.394 1_554 S
C602 C603 1.369 . S
C602 C606 1.531 . S
C603 C602 1.369 . S
C603 C604 1.410 . S
C603 C611 1.503 . S
C604 C603 1.410 . S
C604 C605 1.392 1_554 S
C604 C607 1.511 . S
C605 C601 1.376 . S
C605 C604 1.392 1_556 S
C605 H617 0.929 . S
C606 C602 1.531 . S
C606 H618 0.960 . S
C606 H619 0.962 . S
C606 H620 0.960 . S
C607 C604 1.511 . S
C607 H621 0.961 . S
C607 H622 0.961 . S
C607 H623 0.961 . S
C608 C609 1.370 . S
C608 C610 1.363 . S
C608 H624 0.931 . S
C609 C608 1.370 . S
C609 C613 1.408 . S
C610 C608 1.363 . S
C610 C611 1.370 . S
C610 C614 1.524 . S
C611 C603 1.503 . S
C611 C610 1.370 . S
C611 C612 1.403 . S
C612 C611 1.403 . S
C612 C613 1.404 . S
C612 C615 1.539 . S
C613 C609 1.408 . S
C613 C612 1.404 . S
C613 H625 0.930 . S
C614 C610 1.524 . S
C614 H626 0.956 . S
C614 H627 0.961 . S
C614 H628 0.961 . S
C615 C612 1.539 . S
C615 H629 0.958 . S
C615 H630 0.961 . S
C615 H631 0.960 . S
H616 C600 0.931 . S
H617 C605 0.929 . S
H618 C606 0.960 . S
H619 C606 0.962 . S
H620 C606 0.960 . S
H621 C607 0.961 . S
H622 C607 0.961 . S
H623 C607 0.961 . S
H624 C608 0.931 . S
H625 C613 0.930 . S
H626 C614 0.956 . S
H627 C614 0.961 . S
H628 C614 0.961 . S
H629 C615 0.958 . S
H630 C615 0.961 . S
H631 C615 0.960 . S
C632 C633 1.391 . S
C632 C634 1.394 . S
C632 H648 0.931 . S
C633 C632 1.391 . S
C633 C637 1.376 . S
C634 C632 1.394 . S
C634 C635 1.369 . S
C634 C638 1.531 . S
C635 C634 1.369 . S
C635 C636 1.410 . S
C635 C643 1.503 . S
C636 C635 1.410 . S
C636 C637 1.392 . S
C636 C639 1.511 . S
C637 C633 1.376 . S
C637 C636 1.392 . S
C637 H649 0.929 . S
C638 C634 1.531 . S
C638 H650 0.960 . S
C638 H651 0.962 . S
C638 H652 0.960 . S
C639 C636 1.511 . S
C639 H653 0.961 . S
C639 H654 0.961 . S
C639 H655 0.961 . S
C640 C641 1.370 . S
C640 C642 1.363 1_556 S
C640 H656 0.931 . S
C641 C640 1.370 . S
C641 C645 1.408 . S
C642 C640 1.363 1_554 S
C642 C643 1.370 . S
C642 C646 1.524 . S
C643 C635 1.503 . S
C643 C642 1.370 . S
C643 C644 1.403 . S
C644 C643 1.403 . S
C644 C645 1.404 1_554 S
C644 C647 1.539 . S
C645 C641 1.408 . S
C645 C644 1.404 1_556 S
C645 H657 0.930 . S
C646 C642 1.524 . S
C646 H658 0.956 . S
C646 H659 0.961 . S
C646 H660 0.961 . S
C647 C644 1.539 . S
C647 H661 0.958 . S
C647 H662 0.961 . S
C647 H663 0.960 . S
H648 C632 0.931 . S
H649 C637 0.929 . S
H650 C638 0.960 . S
H651 C638 0.962 . S
H652 C638 0.960 . S
H653 C639 0.961 . S
H654 C639 0.961 . S
H655 C639 0.961 . S
H656 C640 0.931 . S
H657 C645 0.930 . S
H658 C646 0.956 . S
H659 C646 0.961 . S
H660 C646 0.961 . S
H661 C647 0.958 . S
H662 C647 0.961 . S
H663 C647 0.960 . S
C664 C665 1.391 . S
C664 C666 1.394 . S
C664 H680 0.931 . S
C665 C664 1.391 . S
C665 C669 1.376 . S
C666 C664 1.394 . S
C666 C667 1.369 . S
C666 C670 1.531 . S
C667 C666 1.369 . S
C667 C668 1.410 . S
C667 C675 1.503 . S
C668 C667 1.410 . S
C668 C669 1.392 . S
C668 C671 1.511 . S
C669 C665 1.376 . S
C669 C668 1.392 . S
C669 H681 0.929 . S
C670 C666 1.531 . S
C670 H682 0.960 . S
C670 H683 0.962 . S
C670 H684 0.960 . S
C671 C668 1.511 . S
C671 H685 0.961 . S
C671 H686 0.961 . S
C671 H687 0.961 . S
C672 C673 1.370 . S
C672 C674 1.363 1_556 S
C672 H688 0.931 . S
C673 C672 1.370 . S
C673 C677 1.408 . S
C674 C672 1.363 1_554 S
C674 C675 1.370 . S
C674 C678 1.524 . S
C675 C667 1.503 . S
C675 C674 1.370 . S
C675 C676 1.403 . S
C676 C675 1.403 . S
C676 C677 1.404 1_554 S
C676 C679 1.539 . S
C677 C673 1.408 . S
C677 C676 1.404 1_556 S
C677 H689 0.930 . S
C678 C674 1.524 . S
C678 H690 0.956 . S
C678 H691 0.961 . S
C678 H692 0.961 . S
C679 C676 1.539 . S
C679 H693 0.958 . S
C679 H694 0.961 . S
C679 H695 0.960 . S
H680 C664 0.931 . S
H681 C669 0.929 . S
H682 C670 0.960 . S
H683 C670 0.962 . S
H684 C670 0.960 . S
H685 C671 0.961 . S
H686 C671 0.961 . S
H687 C671 0.961 . S
H688 C672 0.931 . S
H689 C677 0.930 . S
H690 C678 0.956 . S
H691 C678 0.961 . S
H692 C678 0.961 . S
H693 C679 0.958 . S
H694 C679 0.961 . S
H695 C679 0.960 . S
C696 C697 1.391 . S
C696 C698 1.394 . S
C696 H712 0.931 . S
C697 C696 1.391 . S
C697 C701 1.376 . S
C698 C696 1.394 . S
C698 C699 1.369 . S
C698 C702 1.531 . S
C699 C698 1.369 . S
C699 C700 1.410 . S
C699 C707 1.503 . S
C700 C699 1.410 . S
C700 C701 1.392 . S
C700 C703 1.511 . S
C701 C697 1.376 . S
C701 C700 1.392 . S
C701 H713 0.929 . S
C702 C698 1.531 . S
C702 H714 0.960 . S
C702 H715 0.962 . S
C702 H716 0.960 . S
C703 C700 1.511 . S
C703 H717 0.961 . S
C703 H718 0.961 . S
C703 H719 0.961 . S
C704 C705 1.370 . S
C704 C706 1.363 . S
C704 H720 0.931 . S
C705 C704 1.370 . S
C705 C709 1.408 . S
C706 C704 1.363 . S
C706 C707 1.370 . S
C706 C710 1.524 . S
C707 C699 1.503 . S
C707 C706 1.370 . S
C707 C708 1.403 . S
C708 C707 1.403 . S
C708 C709 1.404 . S
C708 C711 1.539 . S
C709 C705 1.408 . S
C709 C708 1.404 . S
C709 H721 0.930 . S
C710 C706 1.524 . S
C710 H722 0.956 . S
C710 H723 0.961 . S
C710 H724 0.961 . S
C711 C708 1.539 . S
C711 H725 0.958 . S
C711 H726 0.961 . S
C711 H727 0.960 . S
H712 C696 0.931 . S
H713 C701 0.929 . S
H714 C702 0.960 . S
H715 C702 0.962 . S
H716 C702 0.960 . S
H717 C703 0.961 . S
H718 C703 0.961 . S
H719 C703 0.961 . S
H720 C704 0.931 . S
H721 C709 0.930 . S
H722 C710 0.956 . S
H723 C710 0.961 . S
H724 C710 0.961 . S
H725 C711 0.958 . S
H726 C711 0.961 . S
H727 C711 0.960 . S
C728 C729 1.391 . S
C728 C730 1.394 . S
C728 H744 0.931 . S
C729 C728 1.391 . S
C729 C733 1.376 . S
C730 C728 1.394 . S
C730 C731 1.369 . S
C730 C734 1.531 . S
C731 C730 1.369 . S
C731 C732 1.410 . S
C731 C739 1.503 . S
C732 C731 1.410 . S
C732 C733 1.392 . S
C732 C735 1.511 . S
C733 C729 1.376 . S
C733 C732 1.392 . S
C733 H745 0.929 . S
C734 C730 1.531 . S
C734 H746 0.960 . S
C734 H747 0.962 . S
C734 H748 0.960 . S
C735 C732 1.511 . S
C735 H749 0.961 . S
C735 H750 0.961 . S
C735 H751 0.961 . S
C736 C737 1.370 . S
C736 C738 1.363 . S
C736 H752 0.931 . S
C737 C736 1.370 . S
C737 C741 1.408 . S
C738 C736 1.363 . S
C738 C739 1.370 . S
C738 C742 1.524 . S
C739 C731 1.503 . S
C739 C738 1.370 . S
C739 C740 1.403 . S
C740 C739 1.403 . S
C740 C741 1.404 . S
C740 C743 1.539 . S
C741 C737 1.408 . S
C741 C740 1.404 . S
C741 H753 0.930 . S
C742 C738 1.524 . S
C742 H754 0.956 . S
C742 H755 0.961 . S
C742 H756 0.961 . S
C743 C740 1.539 . S
C743 H757 0.958 . S
C743 H758 0.961 . S
C743 H759 0.960 . S
H744 C728 0.931 . S
H745 C733 0.929 . S
H746 C734 0.960 . S
H747 C734 0.962 . S
H748 C734 0.960 . S
H749 C735 0.961 . S
H750 C735 0.961 . S
H751 C735 0.961 . S
H752 C736 0.931 . S
H753 C741 0.930 . S
H754 C742 0.956 . S
H755 C742 0.961 . S
H756 C742 0.961 . S
H757 C743 0.958 . S
H758 C743 0.961 . S
H759 C743 0.960 . S
C760 C761 1.391 . S
C760 C762 1.394 . S
C760 H776 0.931 . S
C761 C760 1.391 . S
C761 C765 1.376 . S
C762 C760 1.394 . S
C762 C763 1.369 . S
C762 C766 1.531 . S
C763 C762 1.369 . S
C763 C764 1.410 . S
C763 C771 1.503 . S
C764 C763 1.410 . S
C764 C765 1.392 . S
C764 C767 1.511 . S
C765 C761 1.376 . S
C765 C764 1.392 . S
C765 H777 0.929 . S
C766 C762 1.531 . S
C766 H778 0.960 . S
C766 H779 0.962 . S
C766 H780 0.960 . S
C767 C764 1.511 . S
C767 H781 0.961 . S
C767 H782 0.961 . S
C767 H783 0.961 . S
C768 C769 1.370 . S
C768 C770 1.363 . S
C768 H784 0.931 . S
C769 C768 1.370 . S
C769 C773 1.408 . S
C770 C768 1.363 . S
C770 C771 1.370 . S
C770 C774 1.524 . S
C771 C763 1.503 . S
C771 C770 1.370 . S
C771 C772 1.403 . S
C772 C771 1.403 . S
C772 C773 1.404 . S
C772 C775 1.539 . S
C773 C769 1.408 . S
C773 C772 1.404 . S
C773 H785 0.930 . S
C774 C770 1.524 . S
C774 H786 0.956 . S
C774 H787 0.961 . S
C774 H788 0.961 . S
C775 C772 1.539 . S
C775 H789 0.958 . S
C775 H790 0.961 . S
C775 H791 0.960 . S
H776 C760 0.931 . S
H777 C765 0.929 . S
H778 C766 0.960 . S
H779 C766 0.962 . S
H780 C766 0.960 . S
H781 C767 0.961 . S
H782 C767 0.961 . S
H783 C767 0.961 . S
H784 C768 0.931 . S
H785 C773 0.930 . S
H786 C774 0.956 . S
H787 C774 0.961 . S
H788 C774 0.961 . S
H789 C775 0.958 . S
H790 C775 0.961 . S
H791 C775 0.960 . S
C792 C793 1.391 . S
C792 C794 1.394 . S
C792 H808 0.931 . S
C793 C792 1.391 . S
C793 C797 1.376 . S
C794 C792 1.394 . S
C794 C795 1.369 . S
C794 C798 1.531 . S
C795 C794 1.369 . S
C795 C796 1.410 . S
C795 C803 1.503 . S
C796 C795 1.410 . S
C796 C797 1.392 . S
C796 C799 1.511 . S
C797 C793 1.376 . S
C797 C796 1.392 . S
C797 H809 0.929 . S
C798 C794 1.531 . S
C798 H810 0.960 . S
C798 H811 0.962 . S
C798 H812 0.960 . S
C799 C796 1.511 . S
C799 H813 0.961 . S
C799 H814 0.961 . S
C799 H815 0.961 . S
C800 C801 1.370 1_556 S
C800 C802 1.363 . S
C800 H816 0.931 1_556 S
C801 C800 1.370 1_554 S
C801 C805 1.408 . S
C802 C800 1.363 . S
C802 C803 1.370 . S
C802 C806 1.524 . S
C803 C795 1.503 . S
C803 C802 1.370 . S
C803 C804 1.403 . S
C804 C803 1.403 . S
C804 C805 1.404 1_556 S
C804 C807 1.539 . S
C805 C801 1.408 . S
C805 C804 1.404 1_554 S
C805 H817 0.930 . S
C806 C802 1.524 . S
C806 H818 0.956 . S
C806 H819 0.961 . S
C806 H820 0.961 . S
C807 C804 1.539 . S
C807 H821 0.958 . S
C807 H822 0.961 . S
C807 H823 0.960 . S
H808 C792 0.931 . S
H809 C797 0.929 . S
H810 C798 0.960 . S
H811 C798 0.962 . S
H812 C798 0.960 . S
H813 C799 0.961 . S
H814 C799 0.961 . S
H815 C799 0.961 . S
H816 C800 0.931 1_554 S
H817 C805 0.930 . S
H818 C806 0.956 . S
H819 C806 0.961 . S
H820 C806 0.961 . S
H821 C807 0.958 . S
H822 C807 0.961 . S
H823 C807 0.960 . S
C824 C825 1.391 . S
C824 C826 1.394 1_554 S
C824 H840 0.931 . S
C825 C824 1.391 . S
C825 C829 1.376 . S
C826 C824 1.394 1_556 S
C826 C827 1.369 . S
C826 C830 1.531 . S
C827 C826 1.369 . S
C827 C828 1.410 . S
C827 C835 1.503 . S
C828 C827 1.410 . S
C828 C829 1.392 1_556 S
C828 C831 1.511 . S
C829 C825 1.376 . S
C829 C828 1.392 1_554 S
C829 H841 0.929 . S
C830 C826 1.531 . S
C830 H842 0.960 . S
C830 H843 0.962 . S
C830 H844 0.960 . S
C831 C828 1.511 . S
C831 H845 0.961 . S
C831 H846 0.961 . S
C831 H847 0.961 . S
C832 C833 1.370 . S
C832 C834 1.363 . S
C832 H848 0.931 . S
C833 C832 1.370 . S
C833 C837 1.408 . S
C834 C832 1.363 . S
C834 C835 1.370 . S
C834 C838 1.524 . S
C835 C827 1.503 . S
C835 C834 1.370 . S
C835 C836 1.403 . S
C836 C835 1.403 . S
C836 C837 1.404 . S
C836 C839 1.539 . S
C837 C833 1.408 . S
C837 C836 1.404 . S
C837 H849 0.930 . S
C838 C834 1.524 . S
C838 H850 0.956 . S
C838 H851 0.961 . S
C838 H852 0.961 . S
C839 C836 1.539 . S
C839 H853 0.958 . S
C839 H854 0.961 . S
C839 H855 0.960 . S
H840 C824 0.931 . S
H841 C829 0.929 . S
H842 C830 0.960 . S
H843 C830 0.962 . S
H844 C830 0.960 . S
H845 C831 0.961 . S
H846 C831 0.961 . S
H847 C831 0.961 . S
H848 C832 0.931 . S
H849 C837 0.930 . S
H850 C838 0.956 . S
H851 C838 0.961 . S
H852 C838 0.961 . S
H853 C839 0.958 . S
H854 C839 0.961 . S
H855 C839 0.960 . S
C856 C857 1.391 . S
C856 C858 1.394 . S
C856 H872 0.931 . S
C857 C856 1.391 . S
C857 C861 1.376 . S
C858 C856 1.394 . S
C858 C859 1.369 . S
C858 C862 1.531 . S
C859 C858 1.369 . S
C859 C860 1.410 . S
C859 C867 1.503 . S
C860 C859 1.410 . S
C860 C861 1.392 . S
C860 C863 1.511 . S
C861 C857 1.376 . S
C861 C860 1.392 . S
C861 H873 0.929 . S
C862 C858 1.531 . S
C862 H874 0.960 . S
C862 H875 0.962 . S
C862 H876 0.960 . S
C863 C860 1.511 . S
C863 H877 0.961 . S
C863 H878 0.961 . S
C863 H879 0.961 . S
C864 C865 1.370 . S
C864 C866 1.363 1_554 S
C864 H880 0.931 . S
C865 C864 1.370 . S
C865 C869 1.408 . S
C866 C864 1.363 1_556 S
C866 C867 1.370 . S
C866 C870 1.524 . S
C867 C859 1.503 . S
C867 C866 1.370 . S
C867 C868 1.403 . S
C868 C867 1.403 . S
C868 C869 1.404 1_556 S
C868 C871 1.539 . S
C869 C865 1.408 . S
C869 C868 1.404 1_554 S
C869 H881 0.930 . S
C870 C866 1.524 . S
C870 H882 0.956 . S
C870 H883 0.961 . S
C870 H884 0.961 . S
C871 C868 1.539 . S
C871 H885 0.958 . S
C871 H886 0.961 . S
C871 H887 0.960 . S
H872 C856 0.931 . S
H873 C861 0.929 . S
H874 C862 0.960 . S
H875 C862 0.962 . S
H876 C862 0.960 . S
H877 C863 0.961 . S
H878 C863 0.961 . S
H879 C863 0.961 . S
H880 C864 0.931 . S
H881 C869 0.930 . S
H882 C870 0.956 . S
H883 C870 0.961 . S
H884 C870 0.961 . S
H885 C871 0.958 . S
H886 C871 0.961 . S
H887 C871 0.960 . S
C888 C889 1.391 . S
C888 C890 1.394 . S
C888 H904 0.931 . S
C889 C888 1.391 . S
C889 C893 1.376 . S
C890 C888 1.394 . S
C890 C891 1.369 . S
C890 C894 1.531 1_655 S
C891 C890 1.369 . S
C891 C892 1.410 . S
C891 C899 1.503 . S
C892 C891 1.410 . S
C892 C893 1.392 . S
C892 C895 1.511 . S
C893 C889 1.376 . S
C893 C892 1.392 . S
C893 H905 0.929 . S
C894 C890 1.531 1_455 S
C894 H906 0.960 . S
C894 H907 0.962 . S
C894 H908 0.960 . S
C895 C892 1.511 . S
C895 H909 0.961 . S
C895 H910 0.961 . S
C895 H911 0.961 . S
C896 C897 1.370 . S
C896 C898 1.363 . S
C896 H912 0.931 . S
C897 C896 1.370 . S
C897 C901 1.408 . S
C898 C896 1.363 . S
C898 C899 1.370 . S
C898 C902 1.524 . S
C899 C891 1.503 . S
C899 C898 1.370 . S
C899 C900 1.403 . S
C900 C899 1.403 . S
C900 C901 1.404 . S
C900 C903 1.539 . S
C901 C897 1.408 . S
C901 C900 1.404 . S
C901 H913 0.930 . S
C902 C898 1.524 . S
C902 H914 0.956 . S
C902 H915 0.961 . S
C902 H916 0.961 . S
C903 C900 1.539 . S
C903 H917 0.958 1_655 S
C903 H918 0.961 . S
C903 H919 0.960 . S
H904 C888 0.931 . S
H905 C893 0.929 . S
H906 C894 0.960 . S
H907 C894 0.962 . S
H908 C894 0.960 . S
H909 C895 0.961 . S
H910 C895 0.961 . S
H911 C895 0.961 . S
H912 C896 0.931 . S
H913 C901 0.930 . S
H914 C902 0.956 . S
H915 C902 0.961 . S
H916 C902 0.961 . S
H917 C903 0.958 1_455 S
H918 C903 0.961 . S
H919 C903 0.960 . S
C920 C921 1.391 . S
C920 C922 1.394 . S
C920 H936 0.931 . S
C921 C920 1.391 . S
C921 C925 1.376 . S
C922 C920 1.394 . S
C922 C923 1.369 . S
C922 C926 1.531 . S
C923 C922 1.369 . S
C923 C924 1.410 . S
C923 C931 1.503 . S
C924 C923 1.410 . S
C924 C925 1.392 . S
C924 C927 1.511 . S
C925 C921 1.376 . S
C925 C924 1.392 . S
C925 H937 0.929 . S
C926 C922 1.531 . S
C926 H938 0.960 . S
C926 H939 0.962 . S
C926 H940 0.960 . S
C927 C924 1.511 . S
C927 H941 0.961 . S
C927 H942 0.961 . S
C927 H943 0.961 . S
C928 C929 1.370 . S
C928 C930 1.363 . S
C928 H944 0.931 . S
C929 C928 1.370 . S
C929 C933 1.408 . S
C930 C928 1.363 . S
C930 C931 1.370 . S
C930 C934 1.524 . S
C931 C923 1.503 . S
C931 C930 1.370 . S
C931 C932 1.403 . S
C932 C931 1.403 . S
C932 C933 1.404 . S
C932 C935 1.539 . S
C933 C929 1.408 . S
C933 C932 1.404 . S
C933 H945 0.930 . S
C934 C930 1.524 . S
C934 H946 0.956 . S
C934 H947 0.961 . S
C934 H948 0.961 . S
C935 C932 1.539 . S
C935 H949 0.958 . S
C935 H950 0.961 . S
C935 H951 0.960 . S
H936 C920 0.931 . S
H937 C925 0.929 . S
H938 C926 0.960 . S
H939 C926 0.962 . S
H940 C926 0.960 . S
H941 C927 0.961 . S
H942 C927 0.961 . S
H943 C927 0.961 . S
H944 C928 0.931 . S
H945 C933 0.930 . S
H946 C934 0.956 . S
H947 C934 0.961 . S
H948 C934 0.961 . S
H949 C935 0.958 . S
H950 C935 0.961 . S
H951 C935 0.960 . S
C952 C953 1.391 . S
C952 C954 1.394 . S
C952 H968 0.931 1_565 S
C953 C952 1.391 . S
C953 C957 1.376 . S
C954 C952 1.394 . S
C954 C955 1.369 . S
C954 C958 1.531 1_565 S
C955 C954 1.369 . S
C955 C956 1.410 . S
C955 C963 1.503 . S
C956 C955 1.410 . S
C956 C957 1.392 . S
C956 C959 1.511 . S
C957 C953 1.376 . S
C957 C956 1.392 . S
C957 H969 0.929 . S
C958 C954 1.531 1_545 S
C958 H970 0.960 . S
C958 H971 0.962 1_545 S
C958 H972 0.960 . S
C959 C956 1.511 . S
C959 H973 0.961 . S
C959 H974 0.961 . S
C959 H975 0.961 . S
C960 C961 1.370 . S
C960 C962 1.363 . S
C960 H976 0.931 . S
C961 C960 1.370 . S
C961 C965 1.408 . S
C962 C960 1.363 . S
C962 C963 1.370 . S
C962 C966 1.524 . S
C963 C955 1.503 . S
C963 C962 1.370 . S
C963 C964 1.403 . S
C964 C963 1.403 . S
C964 C965 1.404 . S
C964 C967 1.539 1_565 S
C965 C961 1.408 . S
C965 C964 1.404 . S
C965 H977 0.930 . S
C966 C962 1.524 . S
C966 H978 0.956 . S
C966 H979 0.961 . S
C966 H980 0.961 . S
C967 C964 1.539 1_545 S
C967 H981 0.958 . S
C967 H982 0.961 . S
C967 H983 0.974 . S
H968 C952 0.931 1_545 S
H969 C957 0.929 . S
H970 C958 0.960 . S
H971 C958 0.962 1_565 S
H972 C958 0.960 . S
H973 C959 0.961 . S
H974 C959 0.961 . S
H975 C959 0.961 . S
H976 C960 0.931 . S
H977 C965 0.930 . S
H978 C966 0.956 . S
H979 C966 0.961 . S
H980 C966 0.961 . S
H981 C967 0.958 . S
H982 C967 0.961 . S
H983 C967 0.974 . S
C984 C985 1.391 . S
C984 C986 1.394 . S
C984 H1000 0.931 . S
C985 C984 1.391 . S
C985 C989 1.376 . S
C986 C984 1.394 . S
C986 C987 1.369 . S
C986 C990 1.531 . S
C987 C986 1.369 . S
C987 C988 1.410 . S
C987 C995 1.503 . S
C988 C987 1.410 . S
C988 C989 1.392 . S
C988 C991 1.511 . S
C989 C985 1.376 . S
C989 C988 1.392 . S
C989 H1001 0.929 . S
C990 C986 1.531 . S
C990 H1002 0.960 . S
C990 H1003 0.962 . S
C990 H1004 0.960 . S
C991 C988 1.511 . S
C991 H1005 0.961 . S
C991 H1006 0.961 . S
C991 H1007 0.961 . S
C992 C993 1.370 . S
C992 C994 1.363 . S
C992 H1008 0.931 . S
C993 C992 1.370 . S
C993 C997 1.408 . S
C994 C992 1.363 . S
C994 C995 1.370 . S
C994 C998 1.524 . S
C995 C987 1.503 . S
C995 C994 1.370 . S
C995 C996 1.403 . S
C996 C995 1.403 . S
C996 C997 1.404 . S
C996 C999 1.539 1_545 S
C997 C993 1.408 . S
C997 C996 1.404 . S
C997 H1009 0.930 1_545 S
C998 C994 1.524 . S
C998 H1010 0.956 . S
C998 H1011 0.961 . S
C998 H1012 0.961 . S
C999 C996 1.539 1_565 S
C999 H1013 0.958 . S
C999 H1014 0.961 . S
C999 H1015 0.960 . S
H1000 C984 0.931 . S
H1001 C989 0.929 . S
H1002 C990 0.960 . S
H1003 C990 0.962 . S
H1004 C990 0.960 . S
H1005 C991 0.961 . S
H1006 C991 0.961 . S
H1007 C991 0.961 . S
H1008 C992 0.931 . S
H1009 C997 0.930 1_565 S
H1010 C998 0.956 . S
H1011 C998 0.961 . S
H1012 C998 0.961 . S
H1013 C999 0.958 . S
H1014 C999 0.961 . S
H1015 C999 0.960 . S
C1016 C1017 1.391 . S
C1016 C1018 1.394 . S
C1016 H1032 0.931 . S
C1017 C1016 1.391 . S
C1017 C1021 1.376 . S
C1018 C1016 1.394 . S
C1018 C1019 1.369 . S
C1018 C1022 1.531 . S
C1019 C1018 1.369 . S
C1019 C1020 1.410 . S
C1019 C1027 1.503 . S
C1020 C1019 1.410 . S
C1020 C1021 1.392 . S
C1020 C1023 1.524 . S
C1021 C1017 1.376 . S
C1021 C1020 1.392 . S
C1021 H1033 0.929 . S
C1022 C1018 1.531 . S
C1022 H1034 0.960 . S
C1022 H1035 0.962 . S
C1022 H1036 0.960 . S
C1023 C1020 1.524 . S
C1023 H1037 0.957 . S
C1023 H1038 0.969 . S
C1023 H1039 0.947 1_455 S
C1024 C1025 1.370 . S
C1024 C1026 1.363 . S
C1024 H1040 0.931 . S
C1025 C1024 1.370 . S
C1025 C1029 1.408 . S
C1026 C1024 1.363 . S
C1026 C1027 1.370 . S
C1026 C1030 1.524 . S
C1027 C1019 1.503 . S
C1027 C1026 1.370 . S
C1027 C1028 1.403 . S
C1028 C1027 1.403 . S
C1028 C1029 1.404 . S
C1028 C1031 1.539 1_455 S
C1029 C1025 1.408 . S
C1029 C1028 1.404 . S
C1029 H1041 0.930 . S
C1030 C1026 1.524 . S
C1030 H1042 0.956 . S
C1030 H1043 0.961 . S
C1030 H1044 0.961 . S
C1031 C1028 1.539 1_655 S
C1031 H1045 0.958 . S
C1031 H1046 0.961 . S
C1031 H1047 0.960 . S
H1032 C1016 0.931 . S
H1033 C1021 0.929 . S
H1034 C1022 0.960 . S
H1035 C1022 0.962 . S
H1036 C1022 0.960 . S
H1037 C1023 0.957 . S
H1038 C1023 0.969 . S
H1039 C1023 0.947 1_655 S
H1040 C1024 0.931 . S
H1041 C1029 0.930 . S
H1042 C1030 0.956 . S
H1043 C1030 0.961 . S
H1044 C1030 0.961 . S
H1045 C1031 0.958 . S
H1046 C1031 0.961 . S
H1047 C1031 0.960 . S
C1048 C1049 1.391 . S
C1048 C1050 1.394 . S
C1048 H1064 0.931 . S
C1049 C1048 1.391 . S
C1049 C1053 1.376 . S
C1050 C1048 1.394 . S
C1050 C1051 1.369 . S
C1050 C1054 1.531 . S
C1051 C1050 1.369 . S
C1051 C1052 1.410 . S
C1051 C1059 1.503 . S
C1052 C1051 1.410 . S
C1052 C1053 1.392 . S
C1052 C1055 1.511 . S
C1053 C1049 1.376 . S
C1053 C1052 1.392 . S
C1053 H1065 0.929 . S
C1054 C1050 1.531 . S
C1054 H1066 0.960 . S
C1054 H1067 0.962 . S
C1054 H1068 0.960 . S
C1055 C1052 1.511 . S
C1055 H1069 0.961 . S
C1055 H1070 0.961 . S
C1055 H1071 0.961 . S
C1056 C1057 1.370 . S
C1056 C1058 1.363 . S
C1056 H1072 0.931 . S
C1057 C1056 1.370 . S
C1057 C1061 1.408 . S
C1058 C1056 1.363 . S
C1058 C1059 1.370 . S
C1058 C1062 1.524 . S
C1059 C1051 1.503 . S
C1059 C1058 1.370 . S
C1059 C1060 1.403 . S
C1060 C1059 1.403 . S
C1060 C1061 1.404 . S
C1060 C1063 1.539 . S
C1061 C1057 1.408 . S
C1061 C1060 1.404 . S
C1061 H1073 0.930 . S
C1062 C1058 1.524 . S
C1062 H1074 0.956 . S
C1062 H1075 0.961 . S
C1062 H1076 0.961 . S
C1063 C1060 1.539 . S
C1063 H1077 0.958 . S
C1063 H1078 0.961 . S
C1063 H1079 0.960 . S
H1064 C1048 0.931 . S
H1065 C1053 0.929 . S
H1066 C1054 0.960 . S
H1067 C1054 0.962 . S
H1068 C1054 0.960 . S
H1069 C1055 0.961 . S
H1070 C1055 0.961 . S
H1071 C1055 0.961 . S
H1072 C1056 0.931 . S
H1073 C1061 0.930 . S
H1074 C1062 0.956 . S
H1075 C1062 0.961 . S
H1076 C1062 0.961 . S
H1077 C1063 0.958 . S
H1078 C1063 0.961 . S
H1079 C1063 0.960 . S
C1080 C1081 1.391 . S
C1080 C1082 1.394 . S
C1080 H1096 0.931 . S
C1081 C1080 1.391 . S
C1081 C1085 1.376 . S
C1082 C1080 1.394 . S
C1082 C1083 1.369 . S
C1082 C1086 1.531 . S
C1083 C1082 1.369 . S
C1083 C1084 1.410 . S
C1083 C1091 1.503 . S
C1084 C1083 1.410 . S
C1084 C1085 1.392 . S
C1084 C1087 1.511 . S
C1085 C1081 1.376 . S
C1085 C1084 1.392 . S
C1085 H1097 0.929 . S
C1086 C1082 1.531 . S
C1086 H1098 0.960 . S
C1086 H1099 0.962 . S
C1086 H1100 0.960 . S
C1087 C1084 1.511 . S
C1087 H1101 0.961 . S
C1087 H1102 0.961 . S
C1087 H1103 0.961 . S
C1088 C1089 1.370 . S
C1088 C1090 1.363 . S
C1088 H1104 0.931 . S
C1089 C1088 1.370 . S
C1089 C1093 1.408 . S
C1090 C1088 1.363 . S
C1090 C1091 1.370 . S
C1090 C1094 1.524 . S
C1091 C1083 1.503 . S
C1091 C1090 1.370 . S
C1091 C1092 1.403 . S
C1092 C1091 1.403 . S
C1092 C1093 1.404 . S
C1092 C1095 1.539 . S
C1093 C1089 1.408 . S
C1093 C1092 1.404 . S
C1093 H1105 0.930 . S
C1094 C1090 1.524 . S
C1094 H1106 0.956 . S
C1094 H1107 0.961 . S
C1094 H1108 0.961 . S
C1095 C1092 1.539 . S
C1095 H1109 0.958 . S
C1095 H1110 0.961 . S
C1095 H1111 0.960 . S
H1096 C1080 0.931 . S
H1097 C1085 0.929 . S
H1098 C1086 0.960 . S
H1099 C1086 0.962 . S
H1100 C1086 0.960 . S
H1101 C1087 0.961 . S
H1102 C1087 0.961 . S
H1103 C1087 0.961 . S
H1104 C1088 0.931 . S
H1105 C1093 0.930 . S
H1106 C1094 0.956 . S
H1107 C1094 0.961 . S
H1108 C1094 0.961 . S
H1109 C1095 0.958 . S
H1110 C1095 0.961 . S
H1111 C1095 0.960 . S
C1112 C1113 1.391 . S
C1112 C1114 1.394 . S
C1112 H1128 0.931 . S
C1113 C1112 1.391 . S
C1113 C1117 1.376 . S
C1114 C1112 1.394 . S
C1114 C1115 1.369 . S
C1114 C1118 1.531 . S
C1115 C1114 1.369 . S
C1115 C1116 1.410 . S
C1115 C1123 1.503 . S
C1116 C1115 1.410 . S
C1116 C1117 1.392 . S
C1116 C1119 1.511 . S
C1117 C1113 1.376 . S
C1117 C1116 1.392 . S
C1117 H1129 0.929 . S
C1118 C1114 1.531 . S
C1118 H1130 0.960 . S
C1118 H1131 0.962 . S
C1118 H1132 0.960 . S
C1119 C1116 1.511 . S
C1119 H1133 0.961 . S
C1119 H1134 0.961 . S
C1119 H1135 0.961 . S
C1120 C1121 1.370 . S
C1120 C1122 1.363 . S
C1120 H1136 0.931 . S
C1121 C1120 1.370 . S
C1121 C1125 1.408 . S
C1122 C1120 1.363 . S
C1122 C1123 1.370 . S
C1122 C1126 1.524 . S
C1123 C1115 1.503 . S
C1123 C1122 1.370 . S
C1123 C1124 1.403 . S
C1124 C1123 1.403 . S
C1124 C1125 1.404 . S
C1124 C1127 1.539 . S
C1125 C1121 1.408 . S
C1125 C1124 1.404 . S
C1125 H1137 0.930 . S
C1126 C1122 1.524 . S
C1126 H1138 0.956 . S
C1126 H1139 0.961 . S
C1126 H1140 0.961 . S
C1127 C1124 1.539 . S
C1127 H1141 0.958 . S
C1127 H1142 0.961 . S
C1127 H1143 0.960 . S
H1128 C1112 0.931 . S
H1129 C1117 0.929 . S
H1130 C1118 0.960 . S
H1131 C1118 0.962 . S
H1132 C1118 0.960 . S
H1133 C1119 0.961 . S
H1134 C1119 0.961 . S
H1135 C1119 0.961 . S
H1136 C1120 0.931 . S
H1137 C1125 0.930 . S
H1138 C1126 0.956 . S
H1139 C1126 0.961 . S
H1140 C1126 0.961 . S
H1141 C1127 0.958 . S
H1142 C1127 0.961 . S
H1143 C1127 0.960 . S
C1144 C1145 1.391 . S
C1144 C1146 1.394 . S
C1144 H1160 0.931 . S
C1145 C1144 1.391 . S
C1145 C1149 1.376 . S
C1146 C1144 1.394 . S
C1146 C1147 1.369 . S
C1146 C1150 1.531 . S
C1147 C1146 1.369 . S
C1147 C1148 1.410 . S
C1147 C1155 1.503 . S
C1148 C1147 1.410 . S
C1148 C1149 1.392 . S
C1148 C1151 1.511 . S
C1149 C1145 1.376 . S
C1149 C1148 1.392 . S
C1149 H1161 0.929 . S
C1150 C1146 1.531 . S
C1150 H1162 0.960 . S
C1150 H1163 0.962 . S
C1150 H1164 0.960 . S
C1151 C1148 1.511 . S
C1151 H1165 0.961 . S
C1151 H1166 0.961 . S
C1151 H1167 0.961 . S
C1152 C1153 1.370 . S
C1152 C1154 1.363 . S
C1152 H1168 0.931 . S
C1153 C1152 1.370 . S
C1153 C1157 1.408 . S
C1154 C1152 1.363 . S
C1154 C1155 1.370 . S
C1154 C1158 1.524 . S
C1155 C1147 1.503 . S
C1155 C1154 1.370 . S
C1155 C1156 1.403 . S
C1156 C1155 1.403 . S
C1156 C1157 1.404 . S
C1156 C1159 1.539 . S
C1157 C1153 1.408 . S
C1157 C1156 1.404 . S
C1157 H1169 0.930 . S
C1158 C1154 1.524 . S
C1158 H1170 0.956 . S
C1158 H1171 0.961 . S
C1158 H1172 0.961 . S
C1159 C1156 1.539 . S
C1159 H1173 0.958 . S
C1159 H1174 0.961 . S
C1159 H1175 0.960 . S
H1160 C1144 0.931 . S
H1161 C1149 0.929 . S
H1162 C1150 0.960 . S
H1163 C1150 0.962 . S
H1164 C1150 0.960 . S
H1165 C1151 0.961 . S
H1166 C1151 0.961 . S
H1167 C1151 0.961 . S
H1168 C1152 0.931 . S
H1169 C1157 0.930 . S
H1170 C1158 0.956 . S
H1171 C1158 0.961 . S
H1172 C1158 0.961 . S
H1173 C1159 0.958 . S
H1174 C1159 0.961 . S
H1175 C1159 0.960 . S
C1176 C1177 1.391 . S
C1176 C1178 1.394 . S
C1176 H1192 0.931 . S
C1177 C1176 1.391 . S
C1177 C1181 1.376 . S
C1178 C1176 1.394 . S
C1178 C1179 1.369 . S
C1178 C1182 1.531 . S
C1179 C1178 1.369 . S
C1179 C1180 1.410 . S
C1179 C1187 1.503 . S
C1180 C1179 1.410 . S
C1180 C1181 1.392 . S
C1180 C1183 1.511 . S
C1181 C1177 1.376 . S
C1181 C1180 1.392 . S
C1181 H1193 0.929 . S
C1182 C1178 1.531 . S
C1182 H1194 0.960 . S
C1182 H1195 0.962 . S
C1182 H1196 0.960 . S
C1183 C1180 1.511 . S
C1183 H1197 0.961 . S
C1183 H1198 0.961 . S
C1183 H1199 0.961 . S
C1184 C1185 1.370 . S
C1184 C1186 1.363 . S
C1184 H1200 0.931 . S
C1185 C1184 1.370 . S
C1185 C1189 1.408 . S
C1186 C1184 1.363 . S
C1186 C1187 1.370 . S
C1186 C1190 1.524 . S
C1187 C1179 1.503 . S
C1187 C1186 1.370 . S
C1187 C1188 1.403 . S
C1188 C1187 1.403 . S
C1188 C1189 1.404 . S
C1188 C1191 1.539 . S
C1189 C1185 1.408 . S
C1189 C1188 1.404 . S
C1189 H1201 0.930 . S
C1190 C1186 1.524 . S
C1190 H1202 0.956 . S
C1190 H1203 0.961 . S
C1190 H1204 0.961 . S
C1191 C1188 1.539 . S
C1191 H1205 0.958 . S
C1191 H1206 0.961 . S
C1191 H1207 0.960 . S
H1192 C1176 0.931 . S
H1193 C1181 0.929 . S
H1194 C1182 0.960 . S
H1195 C1182 0.962 . S
H1196 C1182 0.960 . S
H1197 C1183 0.961 . S
H1198 C1183 0.961 . S
H1199 C1183 0.961 . S
H1200 C1184 0.931 . S
H1201 C1189 0.930 . S
H1202 C1190 0.956 . S
H1203 C1190 0.961 . S
H1204 C1190 0.961 . S
H1205 C1191 0.958 . S
H1206 C1191 0.961 . S
H1207 C1191 0.960 . S
C1208 C1209 1.391 . S
C1208 C1210 1.394 . S
C1208 H1224 0.931 . S
C1209 C1208 1.391 . S
C1209 C1213 1.376 . S
C1210 C1208 1.394 . S
C1210 C1211 1.369 . S
C1210 C1214 1.531 . S
C1211 C1210 1.369 . S
C1211 C1212 1.410 . S
C1211 C1219 1.503 . S
C1212 C1211 1.410 . S
C1212 C1213 1.392 . S
C1212 C1215 1.511 . S
C1213 C1209 1.376 . S
C1213 C1212 1.392 . S
C1213 H1225 0.929 . S
C1214 C1210 1.531 . S
C1214 H1226 0.960 . S
C1214 H1227 0.962 . S
C1214 H1228 0.960 . S
C1215 C1212 1.511 . S
C1215 H1229 0.961 . S
C1215 H1230 0.961 . S
C1215 H1231 0.961 . S
C1216 C1217 1.370 . S
C1216 C1218 1.363 . S
C1216 H1232 0.931 . S
C1217 C1216 1.370 . S
C1217 C1221 1.408 . S
C1218 C1216 1.363 . S
C1218 C1219 1.370 . S
C1218 C1222 1.524 . S
C1219 C1211 1.503 . S
C1219 C1218 1.370 . S
C1219 C1220 1.403 . S
C1220 C1219 1.403 . S
C1220 C1221 1.404 . S
C1220 C1223 1.539 . S
C1221 C1217 1.408 . S
C1221 C1220 1.404 . S
C1221 H1233 0.930 . S
C1222 C1218 1.524 . S
C1222 H1234 0.956 . S
C1222 H1235 0.961 . S
C1222 H1236 0.961 . S
C1223 C1220 1.539 . S
C1223 H1237 0.958 . S
C1223 H1238 0.961 . S
C1223 H1239 0.960 . S
H1224 C1208 0.931 . S
H1225 C1213 0.929 . S
H1226 C1214 0.960 . S
H1227 C1214 0.962 . S
H1228 C1214 0.960 . S
H1229 C1215 0.961 . S
H1230 C1215 0.961 . S
H1231 C1215 0.961 . S
H1232 C1216 0.931 . S
H1233 C1221 0.930 . S
H1234 C1222 0.956 . S
H1235 C1222 0.961 . S
H1236 C1222 0.961 . S
H1237 C1223 0.958 . S
H1238 C1223 0.961 . S
H1239 C1223 0.960 . S
C1240 C1241 1.391 . S
C1240 C1242 1.394 . S
C1240 H1256 0.931 . S
C1241 C1240 1.391 . S
C1241 C1245 1.376 . S
C1242 C1240 1.394 . S
C1242 C1243 1.369 . S
C1242 C1246 1.531 . S
C1243 C1242 1.369 . S
C1243 C1244 1.410 . S
C1243 C1251 1.503 . S
C1244 C1243 1.410 . S
C1244 C1245 1.392 . S
C1244 C1247 1.511 . S
C1245 C1241 1.376 . S
C1245 C1244 1.392 . S
C1245 H1257 0.929 . S
C1246 C1242 1.531 . S
C1246 H1258 0.960 . S
C1246 H1259 0.962 . S
C1246 H1260 0.960 . S
C1247 C1244 1.511 . S
C1247 H1261 0.961 . S
C1247 H1262 0.961 . S
C1247 H1263 0.961 . S
C1248 C1249 1.370 . S
C1248 C1250 1.363 . S
C1248 H1264 0.931 . S
C1249 C1248 1.370 . S
C1249 C1253 1.408 . S
C1250 C1248 1.363 . S
C1250 C1251 1.370 . S
C1250 C1254 1.524 . S
C1251 C1243 1.503 . S
C1251 C1250 1.370 . S
C1251 C1252 1.403 . S
C1252 C1251 1.403 . S
C1252 C1253 1.404 . S
C1252 C1255 1.539 . S
C1253 C1249 1.408 . S
C1253 C1252 1.404 . S
C1253 H1265 0.930 . S
C1254 C1250 1.524 . S
C1254 H1266 0.956 . S
C1254 H1267 0.961 . S
C1254 H1268 0.961 . S
C1255 C1252 1.539 . S
C1255 H1269 0.958 . S
C1255 H1270 0.961 . S
C1255 H1271 0.960 . S
H1256 C1240 0.931 . S
H1257 C1245 0.929 . S
H1258 C1246 0.960 . S
H1259 C1246 0.962 . S
H1260 C1246 0.960 . S
H1261 C1247 0.961 . S
H1262 C1247 0.961 . S
H1263 C1247 0.961 . S
H1264 C1248 0.931 . S
H1265 C1253 0.930 . S
H1266 C1254 0.956 . S
H1267 C1254 0.961 . S
H1268 C1254 0.961 . S
H1269 C1255 0.958 . S
H1270 C1255 0.961 . S
H1271 C1255 0.960 . S
C1272 C1273 1.391 . S
C1272 C1274 1.394 . S
C1272 H1288 0.931 . S
C1273 C1272 1.391 . S
C1273 C1277 1.376 . S
C1274 C1272 1.394 . S
C1274 C1275 1.369 . S
C1274 C1278 1.531 . S
C1275 C1274 1.369 . S
C1275 C1276 1.410 . S
C1275 C1283 1.503 . S
C1276 C1275 1.410 . S
C1276 C1277 1.392 . S
C1276 C1279 1.511 . S
C1277 C1273 1.376 . S
C1277 C1276 1.392 . S
C1277 H1289 0.929 . S
C1278 C1274 1.531 . S
C1278 H1290 0.960 . S
C1278 H1291 0.962 . S
C1278 H1292 0.960 . S
C1279 C1276 1.511 . S
C1279 H1293 0.961 . S
C1279 H1294 0.961 . S
C1279 H1295 0.961 . S
C1280 C1281 1.370 . S
C1280 C1282 1.363 . S
C1280 H1296 0.931 . S
C1281 C1280 1.370 . S
C1281 C1285 1.408 . S
C1282 C1280 1.363 . S
C1282 C1283 1.370 . S
C1282 C1286 1.524 . S
C1283 C1275 1.503 . S
C1283 C1282 1.370 . S
C1283 C1284 1.403 . S
C1284 C1283 1.403 . S
C1284 C1285 1.404 . S
C1284 C1287 1.539 . S
C1285 C1281 1.408 . S
C1285 C1284 1.404 . S
C1285 H1297 0.930 . S
C1286 C1282 1.524 . S
C1286 H1298 0.956 . S
C1286 H1299 0.961 . S
C1286 H1300 0.961 . S
C1287 C1284 1.539 . S
C1287 H1301 0.958 . S
C1287 H1302 0.961 . S
C1287 H1303 0.960 . S
H1288 C1272 0.931 . S
H1289 C1277 0.929 . S
H1290 C1278 0.960 . S
H1291 C1278 0.962 . S
H1292 C1278 0.960 . S
H1293 C1279 0.961 . S
H1294 C1279 0.961 . S
H1295 C1279 0.961 . S
H1296 C1280 0.931 . S
H1297 C1285 0.930 . S
H1298 C1286 0.956 . S
H1299 C1286 0.961 . S
H1300 C1286 0.961 . S
H1301 C1287 0.958 . S
H1302 C1287 0.961 . S
H1303 C1287 0.960 . S
C1304 C1305 1.391 . S
C1304 C1306 1.394 . S
C1304 H1320 0.931 . S
C1305 C1304 1.391 . S
C1305 C1309 1.376 . S
C1306 C1304 1.394 . S
C1306 C1307 1.369 . S
C1306 C1310 1.531 . S
C1307 C1306 1.369 . S
C1307 C1308 1.410 . S
C1307 C1315 1.503 . S
C1308 C1307 1.410 . S
C1308 C1309 1.392 . S
C1308 C1311 1.511 . S
C1309 C1305 1.376 . S
C1309 C1308 1.392 . S
C1309 H1321 0.929 . S
C1310 C1306 1.531 . S
C1310 H1322 0.960 . S
C1310 H1323 0.962 . S
C1310 H1324 0.960 . S
C1311 C1308 1.511 . S
C1311 H1325 0.961 . S
C1311 H1326 0.961 . S
C1311 H1327 0.961 . S
C1312 C1313 1.370 . S
C1312 C1314 1.363 . S
C1312 H1328 0.931 . S
C1313 C1312 1.370 . S
C1313 C1317 1.408 . S
C1314 C1312 1.363 . S
C1314 C1315 1.370 . S
C1314 C1318 1.524 . S
C1315 C1307 1.503 . S
C1315 C1314 1.370 . S
C1315 C1316 1.403 . S
C1316 C1315 1.403 . S
C1316 C1317 1.404 . S
C1316 C1319 1.539 . S
C1317 C1313 1.408 . S
C1317 C1316 1.404 . S
C1317 H1329 0.930 . S
C1318 C1314 1.524 . S
C1318 H1330 0.956 . S
C1318 H1331 0.961 . S
C1318 H1332 0.961 . S
C1319 C1316 1.539 . S
C1319 H1333 0.958 . S
C1319 H1334 0.961 . S
C1319 H1335 0.960 . S
H1320 C1304 0.931 . S
H1321 C1309 0.929 . S
H1322 C1310 0.960 . S
H1323 C1310 0.962 . S
H1324 C1310 0.960 . S
H1325 C1311 0.961 . S
H1326 C1311 0.961 . S
H1327 C1311 0.961 . S
H1328 C1312 0.931 . S
H1329 C1317 0.930 . S
H1330 C1318 0.956 . S
H1331 C1318 0.961 . S
H1332 C1318 0.961 . S
H1333 C1319 0.958 . S
H1334 C1319 0.961 . S
H1335 C1319 0.960 . S
C1336 C1337 1.391 . S
C1336 C1338 1.394 . S
C1336 H1352 0.931 . S
C1337 C1336 1.391 . S
C1337 C1341 1.376 . S
C1338 C1336 1.394 . S
C1338 C1339 1.369 . S
C1338 C1342 1.531 . S
C1339 C1338 1.369 . S
C1339 C1340 1.410 . S
C1339 C1347 1.503 . S
C1340 C1339 1.410 . S
C1340 C1341 1.392 . S
C1340 C1343 1.511 . S
C1341 C1337 1.376 . S
C1341 C1340 1.392 . S
C1341 H1353 0.929 . S
C1342 C1338 1.531 . S
C1342 H1354 0.960 . S
C1342 H1355 0.962 . S
C1342 H1356 0.960 . S
C1343 C1340 1.511 . S
C1343 H1357 0.961 . S
C1343 H1358 0.961 . S
C1343 H1359 0.961 . S
C1344 C1345 1.370 . S
C1344 C1346 1.363 . S
C1344 H1360 0.931 . S
C1345 C1344 1.370 . S
C1345 C1349 1.408 . S
C1346 C1344 1.363 . S
C1346 C1347 1.370 . S
C1346 C1350 1.524 . S
C1347 C1339 1.503 . S
C1347 C1346 1.370 . S
C1347 C1348 1.403 . S
C1348 C1347 1.403 . S
C1348 C1349 1.404 . S
C1348 C1351 1.539 . S
C1349 C1345 1.408 . S
C1349 C1348 1.404 . S
C1349 H1361 0.930 . S
C1350 C1346 1.524 . S
C1350 H1362 0.956 . S
C1350 H1363 0.961 . S
C1350 H1364 0.961 . S
C1351 C1348 1.539 . S
C1351 H1365 0.958 . S
C1351 H1366 0.961 . S
C1351 H1367 0.960 . S
H1352 C1336 0.931 . S
H1353 C1341 0.929 . S
H1354 C1342 0.960 . S
H1355 C1342 0.962 . S
H1356 C1342 0.960 . S
H1357 C1343 0.961 . S
H1358 C1343 0.961 . S
H1359 C1343 0.961 . S
H1360 C1344 0.931 . S
H1361 C1349 0.930 . S
H1362 C1350 0.956 . S
H1363 C1350 0.961 . S
H1364 C1350 0.961 . S
H1365 C1351 0.958 . S
H1366 C1351 0.961 . S
H1367 C1351 0.960 . S
C1368 C1369 1.391 . S
C1368 C1370 1.394 . S
C1368 H1384 0.931 . S
C1369 C1368 1.391 . S
C1369 C1373 1.376 . S
C1370 C1368 1.394 . S
C1370 C1371 1.369 . S
C1370 C1374 1.531 . S
C1371 C1370 1.369 . S
C1371 C1372 1.410 . S
C1371 C1379 1.503 . S
C1372 C1371 1.410 . S
C1372 C1373 1.392 . S
C1372 C1375 1.511 . S
C1373 C1369 1.376 . S
C1373 C1372 1.392 . S
C1373 H1385 0.929 . S
C1374 C1370 1.531 . S
C1374 H1386 0.960 . S
C1374 H1387 0.962 . S
C1374 H1388 0.960 . S
C1375 C1372 1.511 . S
C1375 H1389 0.961 . S
C1375 H1390 0.961 . S
C1375 H1391 0.961 . S
C1376 C1377 1.370 . S
C1376 C1378 1.363 . S
C1376 H1392 0.931 . S
C1377 C1376 1.370 . S
C1377 C1381 1.408 . S
C1378 C1376 1.363 . S
C1378 C1379 1.370 . S
C1378 C1382 1.524 . S
C1379 C1371 1.503 . S
C1379 C1378 1.370 . S
C1379 C1380 1.403 . S
C1380 C1379 1.403 . S
C1380 C1381 1.404 . S
C1380 C1383 1.539 . S
C1381 C1377 1.408 . S
C1381 C1380 1.404 . S
C1381 H1393 0.930 . S
C1382 C1378 1.524 . S
C1382 H1394 0.956 . S
C1382 H1395 0.961 . S
C1382 H1396 0.961 . S
C1383 C1380 1.539 . S
C1383 H1397 0.958 . S
C1383 H1398 0.961 . S
C1383 H1399 0.960 . S
H1384 C1368 0.931 . S
H1385 C1373 0.929 . S
H1386 C1374 0.960 . S
H1387 C1374 0.962 . S
H1388 C1374 0.960 . S
H1389 C1375 0.961 . S
H1390 C1375 0.961 . S
H1391 C1375 0.961 . S
H1392 C1376 0.931 . S
H1393 C1381 0.930 . S
H1394 C1382 0.956 . S
H1395 C1382 0.961 . S
H1396 C1382 0.961 . S
H1397 C1383 0.958 . S
H1398 C1383 0.961 . S
H1399 C1383 0.960 . S
C1400 C1401 1.391 . S
C1400 C1402 1.394 . S
C1400 H1416 0.931 . S
C1401 C1400 1.391 . S
C1401 C1405 1.376 . S
C1402 C1400 1.394 . S
C1402 C1403 1.369 . S
C1402 C1406 1.531 . S
C1403 C1402 1.369 . S
C1403 C1404 1.410 . S
C1403 C1411 1.503 . S
C1404 C1403 1.410 . S
C1404 C1405 1.392 . S
C1404 C1407 1.511 . S
C1405 C1401 1.376 . S
C1405 C1404 1.392 . S
C1405 H1417 0.929 . S
C1406 C1402 1.531 . S
C1406 H1418 0.960 . S
C1406 H1419 0.962 . S
C1406 H1420 0.960 . S
C1407 C1404 1.511 . S
C1407 H1421 0.961 . S
C1407 H1422 0.961 . S
C1407 H1423 0.961 . S
C1408 C1409 1.370 . S
C1408 C1410 1.363 . S
C1408 H1424 0.931 . S
C1409 C1408 1.370 . S
C1409 C1413 1.408 . S
C1410 C1408 1.363 . S
C1410 C1411 1.370 . S
C1410 C1414 1.524 . S
C1411 C1403 1.503 . S
C1411 C1410 1.370 . S
C1411 C1412 1.403 . S
C1412 C1411 1.403 . S
C1412 C1413 1.404 . S
C1412 C1415 1.539 . S
C1413 C1409 1.408 . S
C1413 C1412 1.404 . S
C1413 H1425 0.930 . S
C1414 C1410 1.524 . S
C1414 H1426 0.956 . S
C1414 H1427 0.961 . S
C1414 H1428 0.961 . S
C1415 C1412 1.539 . S
C1415 H1429 0.958 . S
C1415 H1430 0.961 . S
C1415 H1431 0.960 . S
H1416 C1400 0.931 . S
H1417 C1405 0.929 . S
H1418 C1406 0.960 . S
H1419 C1406 0.962 . S
H1420 C1406 0.960 . S
H1421 C1407 0.961 . S
H1422 C1407 0.961 . S
H1423 C1407 0.961 . S
H1424 C1408 0.931 . S
H1425 C1413 0.930 . S
H1426 C1414 0.956 . S
H1427 C1414 0.961 . S
H1428 C1414 0.961 . S
H1429 C1415 0.958 . S
H1430 C1415 0.961 . S
H1431 C1415 0.960 . S
C1432 C1433 1.391 . S
C1432 C1434 1.394 . S
C1432 H1448 0.931 . S
C1433 C1432 1.391 . S
C1433 C1437 1.376 . S
C1434 C1432 1.394 . S
C1434 C1435 1.369 . S
C1434 C1438 1.531 . S
C1435 C1434 1.369 . S
C1435 C1436 1.410 . S
C1435 C1443 1.503 . S
C1436 C1435 1.410 . S
C1436 C1437 1.392 . S
C1436 C1439 1.511 . S
C1437 C1433 1.376 . S
C1437 C1436 1.392 . S
C1437 H1449 0.929 . S
C1438 C1434 1.531 . S
C1438 H1450 0.960 . S
C1438 H1451 0.962 . S
C1438 H1452 0.960 . S
C1439 C1436 1.511 . S
C1439 H1453 0.961 . S
C1439 H1454 0.961 . S
C1439 H1455 0.961 . S
C1440 C1441 1.370 . S
C1440 C1442 1.363 . S
C1440 H1456 0.931 . S
C1441 C1440 1.370 . S
C1441 C1445 1.408 . S
C1442 C1440 1.363 . S
C1442 C1443 1.370 . S
C1442 C1446 1.524 . S
C1443 C1435 1.503 . S
C1443 C1442 1.370 . S
C1443 C1444 1.403 . S
C1444 C1443 1.403 . S
C1444 C1445 1.404 . S
C1444 C1447 1.539 . S
C1445 C1441 1.408 . S
C1445 C1444 1.404 . S
C1445 H1457 0.930 . S
C1446 C1442 1.524 . S
C1446 H1458 0.956 . S
C1446 H1459 0.961 . S
C1446 H1460 0.961 . S
C1447 C1444 1.539 . S
C1447 H1461 0.958 . S
C1447 H1462 0.961 . S
C1447 H1463 0.960 . S
H1448 C1432 0.931 . S
H1449 C1437 0.929 . S
H1450 C1438 0.960 . S
H1451 C1438 0.962 . S
H1452 C1438 0.960 . S
H1453 C1439 0.961 . S
H1454 C1439 0.961 . S
H1455 C1439 0.961 . S
H1456 C1440 0.931 . S
H1457 C1445 0.930 . S
H1458 C1446 0.956 . S
H1459 C1446 0.961 . S
H1460 C1446 0.961 . S
H1461 C1447 0.958 . S
H1462 C1447 0.961 . S
H1463 C1447 0.960 . S
C1464 C1465 1.391 1_655 S
C1464 C1466 1.394 . S
C1464 H1480 0.931 . S
C1465 C1464 1.391 1_455 S
C1465 C1469 1.376 . S
C1466 C1464 1.394 . S
C1466 C1467 1.335 1_655 S
C1466 C1470 1.531 . S
C1467 C1466 1.335 1_455 S
C1467 C1468 1.493 . S
C1467 C1475 1.458 1_455 S
C1468 C1467 1.493 . S
C1468 C1469 1.392 . S
C1468 C1471 1.511 . S
C1469 C1465 1.376 . S
C1469 C1468 1.392 . S
C1469 H1481 0.929 . S
C1470 C1466 1.531 . S
C1470 H1482 0.960 . S
C1470 H1483 0.962 . S
C1470 H1484 0.960 . S
C1471 C1468 1.511 . S
C1471 H1485 0.961 . S
C1471 H1486 0.961 . S
C1471 H1487 0.961 . S
C1472 C1473 1.370 . S
C1472 C1474 1.363 . S
C1472 H1488 0.931 . S
C1473 C1472 1.370 . S
C1473 C1477 1.408 . S
C1474 C1472 1.363 . S
C1474 C1475 1.370 . S
C1474 C1478 1.524 . S
C1475 C1467 1.458 1_655 S
C1475 C1474 1.370 . S
C1475 C1476 1.403 . S
C1476 C1475 1.403 . S
C1476 C1477 1.404 . S
C1476 C1479 1.540 1_655 S
C1477 C1473 1.408 . S
C1477 C1476 1.404 . S
C1477 H1489 0.930 . S
C1478 C1474 1.524 . S
C1478 H1490 0.956 . S
C1478 H1491 0.961 1_655 S
C1478 H1492 0.961 . S
C1479 C1476 1.540 1_455 S
C1479 H1493 0.960 1_455 S
C1479 H1494 0.961 . S
C1479 H1495 0.957 . S
H1480 C1464 0.931 . S
H1481 C1469 0.929 . S
H1482 C1470 0.960 . S
H1483 C1470 0.962 . S
H1484 C1470 0.960 . S
H1485 C1471 0.961 . S
H1486 C1471 0.961 . S
H1487 C1471 0.961 . S
H1488 C1472 0.931 . S
H1489 C1477 0.930 . S
H1490 C1478 0.956 . S
H1491 C1478 0.961 1_455 S
H1492 C1478 0.961 . S
H1493 C1479 0.960 1_655 S
H1494 C1479 0.961 . S
H1495 C1479 0.957 . S
C1496 C1497 1.391 . S
C1496 C1498 1.394 . S
C1496 H1512 0.931 . S
C1497 C1496 1.391 . S
C1497 C1501 1.376 . S
C1498 C1496 1.394 . S
C1498 C1499 1.369 . S
C1498 C1502 1.531 . S
C1499 C1498 1.369 . S
C1499 C1500 1.410 . S
C1499 C1507 1.503 . S
C1500 C1499 1.410 . S
C1500 C1501 1.392 . S
C1500 C1503 1.511 . S
C1501 C1497 1.376 . S
C1501 C1500 1.392 . S
C1501 H1513 0.929 . S
C1502 C1498 1.531 . S
C1502 H1514 0.960 . S
C1502 H1515 0.962 . S
C1502 H1516 0.960 . S
C1503 C1500 1.511 . S
C1503 H1517 0.961 . S
C1503 H1518 0.961 . S
C1503 H1519 0.961 . S
C1504 C1505 1.370 . S
C1504 C1506 1.363 . S
C1504 H1520 0.931 . S
C1505 C1504 1.370 . S
C1505 C1509 1.408 . S
C1506 C1504 1.363 . S
C1506 C1507 1.370 . S
C1506 C1510 1.524 . S
C1507 C1499 1.503 . S
C1507 C1506 1.370 . S
C1507 C1508 1.403 . S
C1508 C1507 1.403 . S
C1508 C1509 1.404 . S
C1508 C1511 1.539 . S
C1509 C1505 1.408 . S
C1509 C1508 1.404 . S
C1509 H1521 0.930 . S
C1510 C1506 1.524 . S
C1510 H1522 0.956 . S
C1510 H1523 0.961 . S
C1510 H1524 0.961 . S
C1511 C1508 1.539 . S
C1511 H1525 0.958 . S
C1511 H1526 0.961 . S
C1511 H1527 0.960 . S
H1512 C1496 0.931 . S
H1513 C1501 0.929 . S
H1514 C1502 0.960 . S
H1515 C1502 0.962 . S
H1516 C1502 0.960 . S
H1517 C1503 0.961 . S
H1518 C1503 0.961 . S
H1519 C1503 0.961 . S
H1520 C1504 0.931 . S
H1521 C1509 0.930 . S
H1522 C1510 0.956 . S
H1523 C1510 0.961 . S
H1524 C1510 0.961 . S
H1525 C1511 0.958 . S
H1526 C1511 0.961 . S
H1527 C1511 0.960 . S
C1528 C1529 1.391 . S
C1528 C1530 1.394 . S
C1528 H1544 0.931 . S
C1529 C1528 1.391 . S
C1529 C1533 1.376 . S
C1530 C1528 1.394 . S
C1530 C1531 1.369 . S
C1530 C1534 1.531 . S
C1531 C1530 1.369 . S
C1531 C1532 1.410 . S
C1531 C1539 1.503 1_545 S
C1532 C1531 1.410 . S
C1532 C1533 1.392 . S
C1532 C1535 1.511 1_545 S
C1533 C1529 1.376 . S
C1533 C1532 1.392 . S
C1533 H1545 0.929 . S
C1534 C1530 1.531 . S
C1534 H1546 0.960 . S
C1534 H1547 0.962 . S
C1534 H1548 0.960 . S
C1535 C1532 1.511 1_565 S
C1535 H1549 0.961 . S
C1535 H1550 0.961 . S
C1535 H1551 0.961 . S
C1536 C1537 1.370 . S
C1536 C1538 1.363 . S
C1536 H1552 0.931 . S
C1537 C1536 1.370 . S
C1537 C1541 1.408 . S
C1538 C1536 1.363 . S
C1538 C1539 1.370 . S
C1538 C1542 1.524 . S
C1539 C1531 1.503 1_565 S
C1539 C1538 1.370 . S
C1539 C1540 1.403 . S
C1540 C1539 1.403 . S
C1540 C1541 1.404 . S
C1540 C1543 1.539 . S
C1541 C1537 1.408 . S
C1541 C1540 1.404 . S
C1541 H1553 0.930 . S
C1542 C1538 1.524 . S
C1542 H1554 0.956 1_565 S
C1542 H1555 0.961 . S
C1542 H1556 0.961 . S
C1543 C1540 1.539 . S
C1543 H1557 0.904 1_565 S
C1543 H1558 0.961 . S
C1543 H1559 0.960 . S
H1544 C1528 0.931 . S
H1545 C1533 0.929 . S
H1546 C1534 0.960 . S
H1547 C1534 0.962 . S
H1548 C1534 0.960 . S
H1549 C1535 0.961 . S
H1550 C1535 0.961 . S
H1551 C1535 0.961 . S
H1552 C1536 0.931 . S
H1553 C1541 0.930 . S
H1554 C1542 0.956 1_545 S
H1555 C1542 0.961 . S
H1556 C1542 0.961 . S
H1557 C1543 0.904 1_545 S
H1558 C1543 0.961 . S
H1559 C1543 0.960 . S
C1560 C1561 1.391 1_564 S
C1560 C1562 1.394 . S
C1560 H1576 0.931 . S
C1561 C1560 1.391 1_546 S
C1561 C1565 1.376 . S
C1562 C1560 1.394 . S
C1562 C1563 1.369 1_554 S
C1562 C1566 1.531 . S
C1563 C1562 1.369 1_556 S
C1563 C1564 1.410 1_565 S
C1563 C1571 1.503 . S
C1564 C1563 1.410 1_545 S
C1564 C1565 1.392 . S
C1564 C1567 1.511 . S
C1565 C1561 1.376 . S
C1565 C1564 1.392 . S
C1565 H1577 0.929 . S
C1566 C1562 1.531 . S
C1566 H1578 0.960 . S
C1566 H1579 0.962 . S
C1566 H1580 0.960 . S
C1567 C1564 1.511 . S
C1567 H1581 0.961 . S
C1567 H1582 0.961 . S
C1567 H1583 0.961 . S
C1568 C1569 1.370 1_545 S
C1568 C1570 1.363 . S
C1568 H1584 0.931 . S
C1569 C1568 1.370 1_565 S
C1569 C1573 1.408 1_554 S
C1570 C1568 1.363 . S
C1570 C1571 1.370 1_544 S
C1570 C1574 1.524 . S
C1571 C1563 1.503 . S
C1571 C1570 1.370 1_566 S
C1571 C1572 1.403 . S
C1572 C1571 1.403 . S
C1572 C1573 1.404 . S
C1572 C1575 1.539 . S
C1573 C1569 1.408 1_556 S
C1573 C1572 1.404 . S
C1573 H1585 0.930 . S
C1574 C1570 1.524 . S
C1574 H1586 0.956 . S
C1574 H1587 0.961 . S
C1574 H1588 0.961 . S
C1575 C1572 1.539 . S
C1575 H1589 0.958 . S
C1575 H1590 0.961 . S
C1575 H1591 0.960 . S
H1576 C1560 0.931 . S
H1577 C1565 0.929 . S
H1578 C1566 0.960 . S
H1579 C1566 0.962 . S
H1580 C1566 0.960 . S
H1581 C1567 0.961 . S
H1582 C1567 0.961 . S
H1583 C1567 0.961 . S
H1584 C1568 0.931 . S
H1585 C1573 0.930 . S
H1586 C1574 0.956 . S
H1587 C1574 0.961 . S
H1588 C1574 0.961 . S
H1589 C1575 0.958 . S
H1590 C1575 0.961 . S
H1591 C1575 0.960 . S
C1592 C1593 1.391 1_556 S
C1592 C1594 1.394 . S
C1592 H1608 0.931 . S
C1593 C1592 1.391 1_554 S
C1593 C1597 1.376 . S
C1594 C1592 1.394 . S
C1594 C1595 1.369 1_556 S
C1594 C1598 1.531 . S
C1595 C1594 1.369 1_554 S
C1595 C1596 1.410 . S
C1595 C1603 1.503 1_455 S
C1596 C1595 1.410 . S
C1596 C1597 1.392 . S
C1596 C1599 1.527 . S
C1597 C1593 1.376 . S
C1597 C1596 1.392 . S
C1597 H1609 0.929 . S
C1598 C1594 1.531 . S
C1598 H1610 0.960 . S
C1598 H1611 0.962 . S
C1598 H1612 0.960 . S
C1599 C1596 1.527 . S
C1599 H1613 0.938 1_455 S
C1599 H1614 0.937 1_455 S
C1599 H1615 0.985 . S
C1600 C1601 1.370 . S
C1600 C1602 1.363 . S
C1600 H1616 0.931 . S
C1601 C1600 1.370 . S
C1601 C1605 1.408 1_556 S
C1602 C1600 1.363 . S
C1602 C1603 1.370 1_556 S
C1602 C1606 1.524 . S
C1603 C1595 1.503 1_655 S
C1603 C1602 1.370 1_554 S
C1603 C1604 1.403 . S
C1604 C1603 1.403 . S
C1604 C1605 1.404 . S
C1604 C1607 1.539 1_655 S
C1605 C1601 1.408 1_554 S
C1605 C1604 1.404 . S
C1605 H1617 0.930 . S
C1606 C1602 1.524 . S
C1606 H1618 0.956 . S
C1606 H1619 0.961 . S
C1606 H1620 0.961 . S
C1607 C1604 1.539 1_455 S
C1607 H1621 0.958 . S
C1607 H1622 0.961 . S
C1607 H1623 0.960 . S
H1608 C1592 0.931 . S
H1609 C1597 0.929 . S
H1610 C1598 0.960 . S
H1611 C1598 0.962 . S
H1612 C1598 0.960 . S
H1613 C1599 0.938 1_655 S
H1614 C1599 0.937 1_655 S
H1615 C1599 0.985 . S
H1616 C1600 0.931 . S
H1617 C1605 0.930 . S
H1618 C1606 0.956 . S
H1619 C1606 0.961 . S
H1620 C1606 0.961 . S
H1621 C1607 0.958 . S
H1622 C1607 0.961 . S
H1623 C1607 0.960 . S
C1624 C1625 1.391 . S
C1624 C1626 1.394 . S
C1624 H1640 0.931 . S
C1625 C1624 1.391 . S
C1625 C1629 1.376 1_554 S
C1626 C1624 1.394 . S
C1626 C1627 1.369 1_554 S
C1626 C1630 1.531 . S
C1627 C1626 1.369 1_556 S
C1627 C1628 1.410 . S
C1627 C1635 1.503 . S
C1628 C1627 1.410 . S
C1628 C1629 1.392 . S
C1628 C1631 1.511 . S
C1629 C1625 1.376 1_556 S
C1629 C1628 1.392 . S
C1629 H1641 0.929 . S
C1630 C1626 1.531 . S
C1630 H1642 0.960 . S
C1630 H1643 0.962 . S
C1630 H1644 0.960 . S
C1631 C1628 1.511 . S
C1631 H1645 0.961 . S
C1631 H1646 0.961 . S
C1631 H1647 0.961 . S
C1632 C1633 1.370 1_554 S
C1632 C1634 1.363 . S
C1632 H1648 0.931 . S
C1633 C1632 1.370 1_556 S
C1633 C1637 1.408 . S
C1634 C1632 1.363 . S
C1634 C1635 1.370 1_554 S
C1634 C1638 1.524 . S
C1635 C1627 1.503 . S
C1635 C1634 1.370 1_556 S
C1635 C1636 1.403 . S
C1636 C1635 1.403 . S
C1636 C1637 1.404 . S
C1636 C1639 1.539 . S
C1637 C1633 1.408 . S
C1637 C1636 1.404 . S
C1637 H1649 0.930 . S
C1638 C1634 1.524 . S
C1638 H1650 0.956 . S
C1638 H1651 0.961 . S
C1638 H1652 0.961 . S
C1639 C1636 1.539 . S
C1639 H1653 0.958 . S
C1639 H1654 0.961 . S
C1639 H1655 0.960 . S
H1640 C1624 0.931 . S
H1641 C1629 0.929 . S
H1642 C1630 0.960 . S
H1643 C1630 0.962 . S
H1644 C1630 0.960 . S
H1645 C1631 0.961 . S
H1646 C1631 0.961 . S
H1647 C1631 0.961 . S
H1648 C1632 0.931 . S
H1649 C1637 0.930 . S
H1650 C1638 0.956 . S
H1651 C1638 0.961 . S
H1652 C1638 0.961 . S
H1653 C1639 0.958 . S
H1654 C1639 0.961 . S
H1655 C1639 0.960 . S
C1656 C1657 1.391 . S
C1656 C1658 1.394 . S
C1656 H1672 0.931 . S
C1657 C1656 1.391 . S
C1657 C1661 1.376 . S
C1658 C1656 1.394 . S
C1658 C1659 1.369 . S
C1658 C1662 1.531 . S
C1659 C1658 1.369 . S
C1659 C1660 1.410 . S
C1659 C1667 1.503 . S
C1660 C1659 1.410 . S
C1660 C1661 1.392 . S
C1660 C1663 1.511 . S
C1661 C1657 1.376 . S
C1661 C1660 1.392 . S
C1661 H1673 0.929 1_554 S
C1662 C1658 1.531 . S
C1662 H1674 0.960 . S
C1662 H1675 0.962 . S
C1662 H1676 0.960 . S
C1663 C1660 1.511 . S
C1663 H1677 0.961 1_554 S
C1663 H1678 0.961 . S
C1663 H1679 0.961 . S
C1664 C1665 1.370 . S
C1664 C1666 1.363 . S
C1664 H1680 0.931 . S
C1665 C1664 1.370 . S
C1665 C1669 1.408 . S
C1666 C1664 1.363 . S
C1666 C1667 1.370 . S
C1666 C1670 1.524 . S
C1667 C1659 1.503 . S
C1667 C1666 1.370 . S
C1667 C1668 1.403 . S
C1668 C1667 1.403 . S
C1668 C1669 1.404 . S
C1668 C1671 1.539 . S
C1669 C1665 1.408 . S
C1669 C1668 1.404 . S
C1669 H1681 0.930 . S
C1670 C1666 1.524 . S
C1670 H1682 0.956 . S
C1670 H1683 0.961 1_554 S
C1670 H1684 0.961 . S
C1671 C1668 1.539 . S
C1671 H1685 0.958 . S
C1671 H1686 0.961 . S
C1671 H1687 0.960 . S
H1672 C1656 0.931 . S
H1673 C1661 0.929 1_556 S
H1674 C1662 0.960 . S
H1675 C1662 0.962 . S
H1676 C1662 0.960 . S
H1677 C1663 0.961 1_556 S
H1678 C1663 0.961 . S
H1679 C1663 0.961 . S
H1680 C1664 0.931 . S
H1681 C1669 0.930 . S
H1682 C1670 0.956 . S
H1683 C1670 0.961 1_556 S
H1684 C1670 0.961 . S
H1685 C1671 0.958 . S
H1686 C1671 0.961 . S
H1687 C1671 0.960 . S
C1688 C1689 1.391 . S
C1688 C1690 1.394 . S
C1688 H1704 0.931 . S
C1689 C1688 1.391 . S
C1689 C1693 1.376 . S
C1690 C1688 1.394 . S
C1690 C1691 1.369 . S
C1690 C1694 1.531 . S
C1691 C1690 1.369 . S
C1691 C1692 1.410 . S
C1691 C1699 1.503 . S
C1692 C1691 1.410 . S
C1692 C1693 1.392 . S
C1692 C1695 1.511 . S
C1693 C1689 1.376 . S
C1693 C1692 1.392 . S
C1693 H1705 0.929 . S
C1694 C1690 1.531 . S
C1694 H1706 0.960 . S
C1694 H1707 0.962 . S
C1694 H1708 0.960 . S
C1695 C1692 1.511 . S
C1695 H1709 0.961 . S
C1695 H1710 0.961 . S
C1695 H1711 0.961 . S
C1696 C1697 1.370 . S
C1696 C1698 1.363 . S
C1696 H1712 0.931 1_554 S
C1697 C1696 1.370 . S
C1697 C1701 1.408 . S
C1698 C1696 1.363 . S
C1698 C1699 1.370 . S
C1698 C1702 1.524 . S
C1699 C1691 1.503 . S
C1699 C1698 1.370 . S
C1699 C1700 1.403 . S
C1700 C1699 1.403 . S
C1700 C1701 1.404 . S
C1700 C1703 1.539 . S
C1701 C1697 1.408 . S
C1701 C1700 1.404 . S
C1701 H1713 0.930 . S
C1702 C1698 1.524 . S
C1702 H1714 0.956 . S
C1702 H1715 0.961 . S
C1702 H1716 0.961 1_554 S
C1703 C1700 1.539 . S
C1703 H1717 0.958 . S
C1703 H1718 0.961 . S
C1703 H1719 0.960 . S
H1704 C1688 0.931 . S
H1705 C1693 0.929 . S
H1706 C1694 0.960 . S
H1707 C1694 0.962 . S
H1708 C1694 0.960 . S
H1709 C1695 0.961 . S
H1710 C1695 0.961 . S
H1711 C1695 0.961 . S
H1712 C1696 0.931 1_556 S
H1713 C1701 0.930 . S
H1714 C1702 0.956 . S
H1715 C1702 0.961 . S
H1716 C1702 0.961 1_556 S
H1717 C1703 0.958 . S
H1718 C1703 0.961 . S
H1719 C1703 0.960 . S
C1720 C1721 1.391 . S
C1720 C1722 1.394 . S
C1720 H1736 0.931 . S
C1721 C1720 1.391 . S
C1721 C1725 1.376 . S
C1722 C1720 1.394 . S
C1722 C1723 1.369 . S
C1722 C1726 1.531 . S
C1723 C1722 1.369 . S
C1723 C1724 1.410 . S
C1723 C1731 1.503 . S
C1724 C1723 1.410 . S
C1724 C1725 1.392 . S
C1724 C1727 1.511 . S
C1725 C1721 1.376 . S
C1725 C1724 1.392 . S
C1725 H1737 0.929 . S
C1726 C1722 1.531 . S
C1726 H1738 0.960 . S
C1726 H1739 0.962 . S
C1726 H1740 0.960 . S
C1727 C1724 1.511 . S
C1727 H1741 0.961 . S
C1727 H1742 0.961 . S
C1727 H1743 0.961 . S
C1728 C1729 1.370 . S
C1728 C1730 1.363 . S
C1728 H1744 0.931 1_554 S
C1729 C1728 1.370 . S
C1729 C1733 1.408 . S
C1730 C1728 1.363 . S
C1730 C1731 1.370 . S
C1730 C1734 1.524 1_554 S
C1731 C1723 1.503 . S
C1731 C1730 1.370 . S
C1731 C1732 1.403 . S
C1732 C1731 1.403 . S
C1732 C1733 1.404 . S
C1732 C1735 1.539 . S
C1733 C1729 1.408 . S
C1733 C1732 1.404 . S
C1733 H1745 0.930 . S
C1734 C1730 1.524 1_556 S
C1734 H1746 0.956 . S
C1734 H1747 0.961 1_556 S
C1734 H1748 0.961 . S
C1735 C1732 1.539 . S
C1735 H1749 0.958 . S
C1735 H1750 0.961 . S
C1735 H1751 0.960 . S
H1736 C1720 0.931 . S
H1737 C1725 0.929 . S
H1738 C1726 0.960 . S
H1739 C1726 0.962 . S
H1740 C1726 0.960 . S
H1741 C1727 0.961 . S
H1742 C1727 0.961 . S
H1743 C1727 0.961 . S
H1744 C1728 0.931 1_556 S
H1745 C1733 0.930 . S
H1746 C1734 0.956 . S
H1747 C1734 0.961 1_554 S
H1748 C1734 0.961 . S
H1749 C1735 0.958 . S
H1750 C1735 0.961 . S
H1751 C1735 0.960 . S
C1752 C1753 1.391 . S
C1752 C1754 1.394 . S
C1752 H1768 0.931 . S
C1753 C1752 1.391 . S
C1753 C1757 1.376 . S
C1754 C1752 1.394 . S
C1754 C1755 1.369 . S
C1754 C1758 1.531 . S
C1755 C1754 1.369 . S
C1755 C1756 1.410 . S
C1755 C1763 1.503 . S
C1756 C1755 1.410 . S
C1756 C1757 1.392 . S
C1756 C1759 1.511 . S
C1757 C1753 1.376 . S
C1757 C1756 1.392 . S
C1757 H1769 0.929 . S
C1758 C1754 1.531 . S
C1758 H1770 0.960 . S
C1758 H1771 0.962 . S
C1758 H1772 0.960 . S
C1759 C1756 1.511 . S
C1759 H1773 0.961 . S
C1759 H1774 0.961 . S
C1759 H1775 0.961 . S
C1760 C1761 1.370 . S
C1760 C1762 1.363 . S
C1760 H1776 0.931 . S
C1761 C1760 1.370 . S
C1761 C1765 1.408 . S
C1762 C1760 1.363 . S
C1762 C1763 1.370 . S
C1762 C1766 1.524 . S
C1763 C1755 1.503 . S
C1763 C1762 1.370 . S
C1763 C1764 1.403 . S
C1764 C1763 1.403 . S
C1764 C1765 1.404 . S
C1764 C1767 1.539 . S
C1765 C1761 1.408 . S
C1765 C1764 1.404 . S
C1765 H1777 0.930 . S
C1766 C1762 1.524 . S
C1766 H1778 0.956 . S
C1766 H1779 0.961 . S
C1766 H1780 0.961 . S
C1767 C1764 1.539 . S
C1767 H1781 0.958 . S
C1767 H1782 0.961 . S
C1767 H1783 0.960 . S
H1768 C1752 0.931 . S
H1769 C1757 0.929 . S
H1770 C1758 0.960 . S
H1771 C1758 0.962 . S
H1772 C1758 0.960 . S
H1773 C1759 0.961 . S
H1774 C1759 0.961 . S
H1775 C1759 0.961 . S
H1776 C1760 0.931 . S
H1777 C1765 0.930 . S
H1778 C1766 0.956 . S
H1779 C1766 0.961 . S
H1780 C1766 0.961 . S
H1781 C1767 0.958 . S
H1782 C1767 0.961 . S
H1783 C1767 0.960 . S
C1784 C1785 1.391 . S
C1784 C1786 1.394 . S
C1784 H1800 0.931 . S
C1785 C1784 1.391 . S
C1785 C1789 1.376 . S
C1786 C1784 1.394 . S
C1786 C1787 1.369 . S
C1786 C1790 1.531 . S
C1787 C1786 1.369 . S
C1787 C1788 1.410 . S
C1787 C1795 1.503 . S
C1788 C1787 1.410 . S
C1788 C1789 1.392 . S
C1788 C1791 1.511 . S
C1789 C1785 1.376 . S
C1789 C1788 1.392 . S
C1789 H1801 0.929 . S
C1790 C1786 1.531 . S
C1790 H1802 0.960 . S
C1790 H1803 0.962 . S
C1790 H1804 0.960 . S
C1791 C1788 1.511 . S
C1791 H1805 0.961 . S
C1791 H1806 0.961 . S
C1791 H1807 0.961 . S
C1792 C1793 1.370 . S
C1792 C1794 1.363 . S
C1792 H1808 0.931 . S
C1793 C1792 1.370 . S
C1793 C1797 1.408 . S
C1794 C1792 1.363 . S
C1794 C1795 1.370 . S
C1794 C1798 1.524 . S
C1795 C1787 1.503 . S
C1795 C1794 1.370 . S
C1795 C1796 1.403 . S
C1796 C1795 1.403 . S
C1796 C1797 1.404 . S
C1796 C1799 1.539 . S
C1797 C1793 1.408 . S
C1797 C1796 1.404 . S
C1797 H1809 0.930 . S
C1798 C1794 1.524 . S
C1798 H1810 0.956 . S
C1798 H1811 0.961 . S
C1798 H1812 0.961 . S
C1799 C1796 1.539 . S
C1799 H1813 0.958 . S
C1799 H1814 0.961 . S
C1799 H1815 0.960 . S
H1800 C1784 0.931 . S
H1801 C1789 0.929 . S
H1802 C1790 0.960 . S
H1803 C1790 0.962 . S
H1804 C1790 0.960 . S
H1805 C1791 0.961 . S
H1806 C1791 0.961 . S
H1807 C1791 0.961 . S
H1808 C1792 0.931 . S
H1809 C1797 0.930 . S
H1810 C1798 0.956 . S
H1811 C1798 0.961 . S
H1812 C1798 0.961 . S
H1813 C1799 0.958 . S
H1814 C1799 0.961 . S
H1815 C1799 0.960 . S
C1816 C1817 1.391 . S
C1816 C1818 1.394 . S
C1816 H1832 0.931 . S
C1817 C1816 1.391 . S
C1817 C1821 1.376 . S
C1818 C1816 1.394 . S
C1818 C1819 1.369 . S
C1818 C1822 1.531 . S
C1819 C1818 1.369 . S
C1819 C1820 1.410 . S
C1819 C1827 1.503 . S
C1820 C1819 1.410 . S
C1820 C1821 1.392 . S
C1820 C1823 1.511 . S
C1821 C1817 1.376 . S
C1821 C1820 1.392 . S
C1821 H1833 0.929 . S
C1822 C1818 1.531 . S
C1822 H1834 0.960 . S
C1822 H1835 0.962 . S
C1822 H1836 0.960 . S
C1823 C1820 1.511 . S
C1823 H1837 0.961 . S
C1823 H1838 0.961 . S
C1823 H1839 0.961 . S
C1824 C1825 1.370 . S
C1824 C1826 1.363 . S
C1824 H1840 0.931 . S
C1825 C1824 1.370 . S
C1825 C1829 1.408 . S
C1826 C1824 1.363 . S
C1826 C1827 1.370 . S
C1826 C1830 1.524 . S
C1827 C1819 1.503 . S
C1827 C1826 1.370 . S
C1827 C1828 1.403 . S
C1828 C1827 1.403 . S
C1828 C1829 1.404 . S
C1828 C1831 1.539 . S
C1829 C1825 1.408 . S
C1829 C1828 1.404 . S
C1829 H1841 0.930 . S
C1830 C1826 1.524 . S
C1830 H1842 0.956 . S
C1830 H1843 0.961 . S
C1830 H1844 0.961 . S
C1831 C1828 1.539 . S
C1831 H1845 0.958 . S
C1831 H1846 0.961 . S
C1831 H1847 0.960 . S
H1832 C1816 0.931 . S
H1833 C1821 0.929 . S
H1834 C1822 0.960 . S
H1835 C1822 0.962 . S
H1836 C1822 0.960 . S
H1837 C1823 0.961 . S
H1838 C1823 0.961 . S
H1839 C1823 0.961 . S
H1840 C1824 0.931 . S
H1841 C1829 0.930 . S
H1842 C1830 0.956 . S
H1843 C1830 0.961 . S
H1844 C1830 0.961 . S
H1845 C1831 0.958 . S
H1846 C1831 0.961 . S
H1847 C1831 0.960 . S
C1848 C1849 1.391 . S
C1848 C1850 1.394 . S
C1848 H1864 0.931 . S
C1849 C1848 1.391 . S
C1849 C1853 1.376 . S
C1850 C1848 1.394 . S
C1850 C1851 1.369 . S
C1850 C1854 1.531 . S
C1851 C1850 1.369 . S
C1851 C1852 1.410 . S
C1851 C1859 1.503 . S
C1852 C1851 1.410 . S
C1852 C1853 1.392 . S
C1852 C1855 1.511 . S
C1853 C1849 1.376 . S
C1853 C1852 1.392 . S
C1853 H1865 0.929 1_556 S
C1854 C1850 1.531 . S
C1854 H1866 0.960 . S
C1854 H1867 0.962 . S
C1854 H1868 0.960 . S
C1855 C1852 1.511 . S
C1855 H1869 0.961 1_556 S
C1855 H1870 0.961 . S
C1855 H1871 0.961 . S
C1856 C1857 1.370 . S
C1856 C1858 1.363 . S
C1856 H1872 0.931 . S
C1857 C1856 1.370 . S
C1857 C1861 1.408 . S
C1858 C1856 1.363 . S
C1858 C1859 1.370 . S
C1858 C1862 1.524 . S
C1859 C1851 1.503 . S
C1859 C1858 1.370 . S
C1859 C1860 1.403 . S
C1860 C1859 1.403 . S
C1860 C1861 1.404 . S
C1860 C1863 1.539 . S
C1861 C1857 1.408 . S
C1861 C1860 1.404 . S
C1861 H1873 0.930 . S
C1862 C1858 1.524 . S
C1862 H1874 0.956 . S
C1862 H1875 0.961 . S
C1862 H1876 0.961 . S
C1863 C1860 1.539 . S
C1863 H1877 0.958 . S
C1863 H1878 0.961 . S
C1863 H1879 0.960 . S
H1864 C1848 0.931 . S
H1865 C1853 0.929 1_554 S
H1866 C1854 0.960 . S
H1867 C1854 0.962 . S
H1868 C1854 0.960 . S
H1869 C1855 0.961 1_554 S
H1870 C1855 0.961 . S
H1871 C1855 0.961 . S
H1872 C1856 0.931 . S
H1873 C1861 0.930 . S
H1874 C1862 0.956 . S
H1875 C1862 0.961 . S
H1876 C1862 0.961 . S
H1877 C1863 0.958 . S
H1878 C1863 0.961 . S
H1879 C1863 0.960 . S
C1880 C1881 1.391 . S
C1880 C1882 1.394 . S
C1880 H1896 0.931 . S
C1881 C1880 1.391 . S
C1881 C1885 1.376 . S
C1882 C1880 1.394 . S
C1882 C1883 1.369 . S
C1882 C1886 1.531 . S
C1883 C1882 1.369 . S
C1883 C1884 1.410 . S
C1883 C1891 1.503 . S
C1884 C1883 1.410 . S
C1884 C1885 1.392 . S
C1884 C1887 1.511 . S
C1885 C1881 1.376 . S
C1885 C1884 1.392 . S
C1885 H1897 0.929 . S
C1886 C1882 1.531 . S
C1886 H1898 0.960 . S
C1886 H1899 0.962 . S
C1886 H1900 0.960 . S
C1887 C1884 1.511 . S
C1887 H1901 0.961 . S
C1887 H1902 0.961 . S
C1887 H1903 0.961 . S
C1888 C1889 1.370 . S
C1888 C1890 1.363 . S
C1888 H1904 0.931 1_556 S
C1889 C1888 1.370 . S
C1889 C1893 1.408 . S
C1890 C1888 1.363 . S
C1890 C1891 1.370 . S
C1890 C1894 1.524 1_556 S
C1891 C1883 1.503 . S
C1891 C1890 1.370 . S
C1891 C1892 1.403 . S
C1892 C1891 1.403 . S
C1892 C1893 1.404 . S
C1892 C1895 1.539 . S
C1893 C1889 1.408 . S
C1893 C1892 1.404 . S
C1893 H1905 0.930 . S
C1894 C1890 1.524 1_554 S
C1894 H1906 0.956 1_554 S
C1894 H1907 0.961 . S
C1894 H1908 0.961 . S
C1895 C1892 1.539 . S
C1895 H1909 0.958 . S
C1895 H1910 0.961 . S
C1895 H1911 0.960 . S
H1896 C1880 0.931 . S
H1897 C1885 0.929 . S
H1898 C1886 0.960 . S
H1899 C1886 0.962 . S
H1900 C1886 0.960 . S
H1901 C1887 0.961 . S
H1902 C1887 0.961 . S
H1903 C1887 0.961 . S
H1904 C1888 0.931 1_554 S
H1905 C1893 0.930 . S
H1906 C1894 0.956 1_556 S
H1907 C1894 0.961 . S
H1908 C1894 0.961 . S
H1909 C1895 0.958 . S
H1910 C1895 0.961 . S
H1911 C1895 0.960 . S
C1912 C1913 1.391 . S
C1912 C1914 1.394 . S
C1912 H1928 0.931 . S
C1913 C1912 1.391 . S
C1913 C1917 1.376 . S
C1914 C1912 1.394 . S
C1914 C1915 1.369 . S
C1914 C1918 1.531 . S
C1915 C1914 1.369 . S
C1915 C1916 1.410 . S
C1915 C1923 1.503 . S
C1916 C1915 1.410 . S
C1916 C1917 1.392 . S
C1916 C1919 1.511 . S
C1917 C1913 1.376 . S
C1917 C1916 1.392 . S
C1917 H1929 0.929 1_556 S
C1918 C1914 1.531 . S
C1918 H1930 0.960 . S
C1918 H1931 0.962 . S
C1918 H1932 0.960 . S
C1919 C1916 1.511 . S
C1919 H1933 0.961 . S
C1919 H1934 0.961 . S
C1919 H1935 0.961 1_556 S
C1920 C1921 1.370 . S
C1920 C1922 1.363 . S
C1920 H1936 0.931 . S
C1921 C1920 1.370 . S
C1921 C1925 1.408 . S
C1922 C1920 1.363 . S
C1922 C1923 1.370 . S
C1922 C1926 1.524 . S
C1923 C1915 1.503 . S
C1923 C1922 1.370 . S
C1923 C1924 1.403 . S
C1924 C1923 1.403 . S
C1924 C1925 1.404 . S
C1924 C1927 1.539 . S
C1925 C1921 1.408 . S
C1925 C1924 1.404 . S
C1925 H1937 0.930 . S
C1926 C1922 1.524 . S
C1926 H1938 0.956 . S
C1926 H1939 0.961 . S
C1926 H1940 0.961 . S
C1927 C1924 1.539 . S
C1927 H1941 0.958 . S
C1927 H1942 0.961 1_556 S
C1927 H1943 0.960 1_556 S
H1928 C1912 0.931 . S
H1929 C1917 0.929 1_554 S
H1930 C1918 0.960 . S
H1931 C1918 0.962 . S
H1932 C1918 0.960 . S
H1933 C1919 0.961 . S
H1934 C1919 0.961 . S
H1935 C1919 0.961 1_554 S
H1936 C1920 0.931 . S
H1937 C1925 0.930 . S
H1938 C1926 0.956 . S
H1939 C1926 0.961 . S
H1940 C1926 0.961 . S
H1941 C1927 0.958 . S
H1942 C1927 0.961 1_554 S
H1943 C1927 0.960 1_554 S
C1944 C1945 1.391 . S
C1944 C1946 1.394 . S
C1944 H1960 0.931 . S
C1945 C1944 1.391 . S
C1945 C1949 1.376 . S
C1946 C1944 1.394 . S
C1946 C1947 1.369 . S
C1946 C1950 1.531 . S
C1947 C1946 1.369 . S
C1947 C1948 1.410 . S
C1947 C1955 1.503 . S
C1948 C1947 1.410 . S
C1948 C1949 1.392 . S
C1948 C1951 1.511 . S
C1949 C1945 1.376 . S
C1949 C1948 1.392 . S
C1949 H1961 0.929 . S
C1950 C1946 1.531 . S
C1950 H1962 0.960 . S
C1950 H1963 0.962 . S
C1950 H1964 0.960 . S
C1951 C1948 1.511 . S
C1951 H1965 0.961 . S
C1951 H1966 0.961 . S
C1951 H1967 0.961 . S
C1952 C1953 1.370 . S
C1952 C1954 1.363 . S
C1952 H1968 0.931 . S
C1953 C1952 1.370 . S
C1953 C1957 1.408 . S
C1954 C1952 1.363 . S
C1954 C1955 1.370 . S
C1954 C1958 1.524 . S
C1955 C1947 1.503 . S
C1955 C1954 1.370 . S
C1955 C1956 1.403 . S
C1956 C1955 1.403 . S
C1956 C1957 1.404 . S
C1956 C1959 1.539 . S
C1957 C1953 1.408 . S
C1957 C1956 1.404 . S
C1957 H1969 0.930 . S
C1958 C1954 1.524 . S
C1958 H1970 0.956 . S
C1958 H1971 0.961 . S
C1958 H1972 0.961 . S
C1959 C1956 1.539 . S
C1959 H1973 0.958 . S
C1959 H1974 0.961 . S
C1959 H1975 0.960 . S
H1960 C1944 0.931 . S
H1961 C1949 0.929 . S
H1962 C1950 0.960 . S
H1963 C1950 0.962 . S
H1964 C1950 0.960 . S
H1965 C1951 0.961 . S
H1966 C1951 0.961 . S
H1967 C1951 0.961 . S
H1968 C1952 0.931 . S
H1969 C1957 0.930 . S
H1970 C1958 0.956 . S
H1971 C1958 0.961 . S
H1972 C1958 0.961 . S
H1973 C1959 0.958 . S
H1974 C1959 0.961 . S
H1975 C1959 0.960 . S
C1976 C1977 1.391 . S
C1976 C1978 1.394 . S
C1976 H1992 0.931 . S
C1977 C1976 1.391 . S
C1977 C1981 1.376 . S
C1978 C1976 1.394 . S
C1978 C1979 1.369 . S
C1978 C1982 1.531 . S
C1979 C1978 1.369 . S
C1979 C1980 1.410 . S
C1979 C1987 1.503 . S
C1980 C1979 1.410 . S
C1980 C1981 1.392 . S
C1980 C1983 1.511 . S
C1981 C1977 1.376 . S
C1981 C1980 1.392 . S
C1981 H1993 0.929 . S
C1982 C1978 1.531 . S
C1982 H1994 0.960 . S
C1982 H1995 0.962 . S
C1982 H1996 0.960 . S
C1983 C1980 1.511 . S
C1983 H1997 0.961 . S
C1983 H1998 0.961 . S
C1983 H1999 0.961 . S
C1984 C1985 1.370 . S
C1984 C1986 1.363 . S
C1984 H2000 0.931 . S
C1985 C1984 1.370 . S
C1985 C1989 1.408 . S
C1986 C1984 1.363 . S
C1986 C1987 1.370 . S
C1986 C1990 1.524 . S
C1987 C1979 1.503 . S
C1987 C1986 1.370 . S
C1987 C1988 1.403 . S
C1988 C1987 1.403 . S
C1988 C1989 1.404 . S
C1988 C1991 1.539 . S
C1989 C1985 1.408 . S
C1989 C1988 1.404 . S
C1989 H2001 0.930 . S
C1990 C1986 1.524 . S
C1990 H2002 0.956 . S
C1990 H2003 0.961 . S
C1990 H2004 0.961 . S
C1991 C1988 1.539 . S
C1991 H2005 0.958 . S
C1991 H2006 0.961 . S
C1991 H2007 0.960 . S
H1992 C1976 0.931 . S
H1993 C1981 0.929 . S
H1994 C1982 0.960 . S
H1995 C1982 0.962 . S
H1996 C1982 0.960 . S
H1997 C1983 0.961 . S
H1998 C1983 0.961 . S
H1999 C1983 0.961 . S
H2000 C1984 0.931 . S
H2001 C1989 0.930 . S
H2002 C1990 0.956 . S
H2003 C1990 0.961 . S
H2004 C1990 0.961 . S
H2005 C1991 0.958 . S
H2006 C1991 0.961 . S
H2007 C1991 0.960 . S
C2008 C2009 1.391 . S
C2008 C2010 1.394 . S
C2008 H2024 0.931 . S
C2009 C2008 1.391 . S
C2009 C2013 1.376 . S
C2010 C2008 1.394 . S
C2010 C2011 1.369 . S
C2010 C2014 1.531 . S
C2011 C2010 1.369 . S
C2011 C2012 1.410 . S
C2011 C2019 1.503 . S
C2012 C2011 1.410 . S
C2012 C2013 1.392 . S
C2012 C2015 1.511 . S
C2013 C2009 1.376 . S
C2013 C2012 1.392 . S
C2013 H2025 0.929 . S
C2014 C2010 1.531 . S
C2014 H2026 0.960 . S
C2014 H2027 0.962 . S
C2014 H2028 0.960 . S
C2015 C2012 1.511 . S
C2015 H2029 0.961 . S
C2015 H2030 0.961 . S
C2015 H2031 0.961 . S
C2016 C2017 1.370 . S
C2016 C2018 1.363 . S
C2016 H2032 0.931 . S
C2017 C2016 1.370 . S
C2017 C2021 1.408 . S
C2018 C2016 1.363 . S
C2018 C2019 1.370 . S
C2018 C2022 1.524 . S
C2019 C2011 1.503 . S
C2019 C2018 1.370 . S
C2019 C2020 1.403 . S
C2020 C2019 1.403 . S
C2020 C2021 1.404 . S
C2020 C2023 1.539 . S
C2021 C2017 1.408 . S
C2021 C2020 1.404 . S
C2021 H2033 0.930 . S
C2022 C2018 1.524 . S
C2022 H2034 0.956 . S
C2022 H2035 0.961 . S
C2022 H2036 0.961 . S
C2023 C2020 1.539 . S
C2023 H2037 0.958 . S
C2023 H2038 0.961 . S
C2023 H2039 0.960 . S
H2024 C2008 0.931 . S
H2025 C2013 0.929 . S
H2026 C2014 0.960 . S
H2027 C2014 0.962 . S
H2028 C2014 0.960 . S
H2029 C2015 0.961 . S
H2030 C2015 0.961 . S
H2031 C2015 0.961 . S
H2032 C2016 0.931 . S
H2033 C2021 0.930 . S
H2034 C2022 0.956 . S
H2035 C2022 0.961 . S
H2036 C2022 0.961 . S
H2037 C2023 0.958 . S
H2038 C2023 0.961 . S
H2039 C2023 0.960 . S
C2040 C2041 1.391 . S
C2040 C2042 1.394 . S
C2040 H2056 0.931 . S
C2041 C2040 1.391 . S
C2041 C2045 1.376 . S
C2042 C2040 1.394 . S
C2042 C2043 1.369 . S
C2042 C2046 1.531 . S
C2043 C2042 1.369 . S
C2043 C2044 1.410 . S
C2043 C2051 1.503 . S
C2044 C2043 1.410 . S
C2044 C2045 1.392 . S
C2044 C2047 1.511 . S
C2045 C2041 1.376 . S
C2045 C2044 1.392 . S
C2045 H2057 0.929 . S
C2046 C2042 1.531 . S
C2046 H2058 0.960 . S
C2046 H2059 0.962 . S
C2046 H2060 0.960 . S
C2047 C2044 1.511 . S
C2047 H2061 0.961 . S
C2047 H2062 0.961 . S
C2047 H2063 0.961 . S
C2048 C2049 1.370 . S
C2048 C2050 1.363 . S
C2048 H2064 0.931 . S
C2049 C2048 1.370 . S
C2049 C2053 1.408 . S
C2050 C2048 1.363 . S
C2050 C2051 1.370 . S
C2050 C2054 1.524 . S
C2051 C2043 1.503 . S
C2051 C2050 1.370 . S
C2051 C2052 1.403 . S
C2052 C2051 1.403 . S
C2052 C2053 1.404 . S
C2052 C2055 1.539 . S
C2053 C2049 1.408 . S
C2053 C2052 1.404 . S
C2053 H2065 0.930 . S
C2054 C2050 1.524 . S
C2054 H2066 0.956 . S
C2054 H2067 0.961 . S
C2054 H2068 0.961 . S
C2055 C2052 1.539 . S
C2055 H2069 0.958 . S
C2055 H2070 0.961 . S
C2055 H2071 0.960 . S
H2056 C2040 0.931 . S
H2057 C2045 0.929 . S
H2058 C2046 0.960 . S
H2059 C2046 0.962 . S
H2060 C2046 0.960 . S
H2061 C2047 0.961 . S
H2062 C2047 0.961 . S
H2063 C2047 0.961 . S
H2064 C2048 0.931 . S
H2065 C2053 0.930 . S
H2066 C2054 0.956 . S
H2067 C2054 0.961 . S
H2068 C2054 0.961 . S
H2069 C2055 0.958 . S
H2070 C2055 0.961 . S
H2071 C2055 0.960 . S
C2072 C2073 1.391 . S
C2072 C2074 1.394 . S
C2072 H2088 0.931 . S
C2073 C2072 1.391 . S
C2073 C2077 1.376 . S
C2074 C2072 1.394 . S
C2074 C2075 1.369 1_565 S
C2074 C2078 1.531 1_565 S
C2075 C2074 1.369 1_545 S
C2075 C2076 1.410 . S
C2075 C2083 1.503 . S
C2076 C2075 1.410 . S
C2076 C2077 1.392 1_545 S
C2076 C2079 1.511 . S
C2077 C2073 1.376 . S
C2077 C2076 1.392 1_565 S
C2077 H2089 0.929 . S
C2078 C2074 1.531 1_545 S
C2078 H2090 0.960 . S
C2078 H2091 0.962 . S
C2078 H2092 0.960 1_545 S
C2079 C2076 1.511 . S
C2079 H2093 0.961 . S
C2079 H2094 0.961 . S
C2079 H2095 0.961 . S
C2080 C2081 1.370 . S
C2080 C2082 1.363 . S
C2080 H2096 0.931 . S
C2081 C2080 1.370 . S
C2081 C2085 1.408 . S
C2082 C2080 1.363 . S
C2082 C2083 1.370 . S
C2082 C2086 1.524 . S
C2083 C2075 1.503 . S
C2083 C2082 1.370 . S
C2083 C2084 1.403 . S
C2084 C2083 1.403 . S
C2084 C2085 1.404 . S
C2084 C2087 1.539 . S
C2085 C2081 1.408 . S
C2085 C2084 1.404 . S
C2085 H2097 0.930 . S
C2086 C2082 1.524 . S
C2086 H2098 0.956 . S
C2086 H2099 0.961 . S
C2086 H2100 0.961 . S
C2087 C2084 1.539 . S
C2087 H2101 0.958 . S
C2087 H2102 0.961 . S
C2087 H2103 0.960 . S
H2088 C2072 0.931 . S
H2089 C2077 0.929 . S
H2090 C2078 0.960 . S
H2091 C2078 0.962 . S
H2092 C2078 0.960 1_565 S
H2093 C2079 0.961 . S
H2094 C2079 0.961 . S
H2095 C2079 0.961 . S
H2096 C2080 0.931 . S
H2097 C2085 0.930 . S
H2098 C2086 0.956 . S
H2099 C2086 0.961 . S
H2100 C2086 0.961 . S
H2101 C2087 0.958 . S
H2102 C2087 0.961 . S
H2103 C2087 0.960 . S
C2104 C2105 1.391 . S
C2104 C2106 1.394 1_455 S
C2104 H2120 0.931 . S
C2105 C2104 1.391 . S
C2105 C2109 1.376 . S
C2106 C2104 1.394 1_655 S
C2106 C2107 1.369 . S
C2106 C2110 1.531 . S
C2107 C2106 1.369 . S
C2107 C2108 1.410 1_655 S
C2107 C2115 1.503 . S
C2108 C2107 1.410 1_455 S
C2108 C2109 1.392 . S
C2108 C2111 1.511 . S
C2109 C2105 1.376 . S
C2109 C2108 1.392 . S
C2109 H2121 0.929 . S
C2110 C2106 1.531 . S
C2110 H2122 0.960 . S
C2110 H2123 0.962 . S
C2110 H2124 0.960 . S
C2111 C2108 1.511 . S
C2111 H2125 0.961 . S
C2111 H2126 0.919 1_455 S
C2111 H2127 0.961 . S
C2112 C2113 1.370 . S
C2112 C2114 1.363 . S
C2112 H2128 0.931 . S
C2113 C2112 1.370 . S
C2113 C2117 1.408 . S
C2114 C2112 1.363 . S
C2114 C2115 1.370 . S
C2114 C2118 1.524 . S
C2115 C2107 1.503 . S
C2115 C2114 1.370 . S
C2115 C2116 1.403 . S
C2116 C2115 1.403 . S
C2116 C2117 1.404 . S
C2116 C2119 1.539 . S
C2117 C2113 1.408 . S
C2117 C2116 1.404 . S
C2117 H2129 0.930 . S
C2118 C2114 1.524 . S
C2118 H2130 0.956 . S
C2118 H2131 0.973 . S
C2118 H2132 0.961 . S
C2119 C2116 1.539 . S
C2119 H2133 0.958 . S
C2119 H2134 0.961 . S
C2119 H2135 0.960 . S
H2120 C2104 0.931 . S
H2121 C2109 0.929 . S
H2122 C2110 0.960 . S
H2123 C2110 0.962 . S
H2124 C2110 0.960 . S
H2125 C2111 0.961 . S
H2126 C2111 0.919 1_655 S
H2127 C2111 0.961 . S
H2128 C2112 0.931 . S
H2129 C2117 0.930 . S
H2130 C2118 0.956 . S
H2131 C2118 0.973 . S
H2132 C2118 0.961 . S
H2133 C2119 0.958 . S
H2134 C2119 0.961 . S
H2135 C2119 0.960 . S
C2136 C2137 1.391 . S
C2136 C2138 1.394 . S
C2136 H2152 0.931 . S
C2137 C2136 1.391 . S
C2137 C2141 1.376 . S
C2138 C2136 1.394 . S
C2138 C2139 1.369 . S
C2138 C2142 1.531 . S
C2139 C2138 1.369 . S
C2139 C2140 1.410 . S
C2139 C2147 1.503 . S
C2140 C2139 1.410 . S
C2140 C2141 1.392 . S
C2140 C2143 1.511 . S
C2141 C2137 1.376 . S
C2141 C2140 1.392 . S
C2141 H2153 0.929 . S
C2142 C2138 1.531 . S
C2142 H2154 0.960 . S
C2142 H2155 0.962 . S
C2142 H2156 0.960 . S
C2143 C2140 1.511 . S
C2143 H2157 0.961 . S
C2143 H2158 0.961 . S
C2143 H2159 0.961 . S
C2144 C2145 1.370 . S
C2144 C2146 1.363 . S
C2144 H2160 0.931 . S
C2145 C2144 1.370 . S
C2145 C2149 1.408 . S
C2146 C2144 1.363 . S
C2146 C2147 1.370 . S
C2146 C2150 1.524 . S
C2147 C2139 1.503 . S
C2147 C2146 1.370 . S
C2147 C2148 1.403 . S
C2148 C2147 1.403 . S
C2148 C2149 1.404 . S
C2148 C2151 1.539 . S
C2149 C2145 1.408 . S
C2149 C2148 1.404 . S
C2149 H2161 0.930 . S
C2150 C2146 1.524 . S
C2150 H2162 0.956 . S
C2150 H2163 0.961 . S
C2150 H2164 0.961 . S
C2151 C2148 1.539 . S
C2151 H2165 0.958 . S
C2151 H2166 0.961 . S
C2151 H2167 0.960 . S
H2152 C2136 0.931 . S
H2153 C2141 0.929 . S
H2154 C2142 0.960 . S
H2155 C2142 0.962 . S
H2156 C2142 0.960 . S
H2157 C2143 0.961 . S
H2158 C2143 0.961 . S
H2159 C2143 0.961 . S
H2160 C2144 0.931 . S
H2161 C2149 0.930 . S
H2162 C2150 0.956 . S
H2163 C2150 0.961 . S
H2164 C2150 0.961 . S
H2165 C2151 0.958 . S
H2166 C2151 0.961 . S
H2167 C2151 0.960 . S
C2168 C2169 1.391 . S
C2168 C2170 1.394 1_565 S
C2168 H2184 0.931 . S
C2169 C2168 1.391 . S
C2169 C2173 1.376 . S
C2170 C2168 1.394 1_545 S
C2170 C2171 1.369 . S
C2170 C2174 1.531 . S
C2171 C2170 1.369 . S
C2171 C2172 1.410 1_545 S
C2171 C2179 1.503 . S
C2172 C2171 1.410 1_565 S
C2172 C2173 1.392 . S
C2172 C2175 1.511 . S
C2173 C2169 1.376 . S
C2173 C2172 1.392 . S
C2173 H2185 0.929 . S
C2174 C2170 1.531 . S
C2174 H2186 0.960 . S
C2174 H2187 0.962 . S
C2174 H2188 0.960 . S
C2175 C2172 1.511 . S
C2175 H2189 0.961 . S
C2175 H2190 0.961 1_565 S
C2175 H2191 0.961 . S
C2176 C2177 1.370 . S
C2176 C2178 1.363 . S
C2176 H2192 0.931 . S
C2177 C2176 1.370 . S
C2177 C2181 1.408 . S
C2178 C2176 1.363 . S
C2178 C2179 1.370 . S
C2178 C2182 1.524 . S
C2179 C2171 1.503 . S
C2179 C2178 1.370 . S
C2179 C2180 1.403 . S
C2180 C2179 1.403 . S
C2180 C2181 1.404 . S
C2180 C2183 1.539 . S
C2181 C2177 1.408 . S
C2181 C2180 1.404 . S
C2181 H2193 0.930 . S
C2182 C2178 1.524 . S
C2182 H2194 0.956 . S
C2182 H2195 0.961 . S
C2182 H2196 0.961 . S
C2183 C2180 1.539 . S
C2183 H2197 0.958 . S
C2183 H2198 0.961 . S
C2183 H2199 0.971 . S
H2184 C2168 0.931 . S
H2185 C2173 0.929 . S
H2186 C2174 0.960 . S
H2187 C2174 0.962 . S
H2188 C2174 0.960 . S
H2189 C2175 0.961 . S
H2190 C2175 0.961 1_545 S
H2191 C2175 0.961 . S
H2192 C2176 0.931 . S
H2193 C2181 0.930 . S
H2194 C2182 0.956 . S
H2195 C2182 0.961 . S
H2196 C2182 0.961 . S
H2197 C2183 0.958 . S
H2198 C2183 0.961 . S
H2199 C2183 0.971 . S
C2200 C2201 1.391 . S
C2200 C2202 1.394 . S
C2200 H2216 0.931 . S
C2201 C2200 1.391 . S
C2201 C2205 1.376 . S
C2202 C2200 1.394 . S
C2202 C2203 1.369 1_455 S
C2202 C2206 1.535 . S
C2203 C2202 1.369 1_655 S
C2203 C2204 1.410 . S
C2203 C2211 1.503 . S
C2204 C2203 1.410 . S
C2204 C2205 1.392 1_655 S
C2204 C2207 1.511 . S
C2205 C2201 1.376 . S
C2205 C2204 1.392 1_455 S
C2205 H2217 0.929 . S
C2206 C2202 1.535 . S
C2206 H2218 0.928 1_455 S
C2206 H2219 0.959 . S
C2206 H2220 0.993 . S
C2207 C2204 1.511 . S
C2207 H2221 0.961 . S
C2207 H2222 0.961 . S
C2207 H2223 0.961 . S
C2208 C2209 1.370 . S
C2208 C2210 1.363 . S
C2208 H2224 0.931 . S
C2209 C2208 1.370 . S
C2209 C2213 1.408 . S
C2210 C2208 1.363 . S
C2210 C2211 1.370 . S
C2210 C2214 1.524 . S
C2211 C2203 1.503 . S
C2211 C2210 1.370 . S
C2211 C2212 1.403 . S
C2212 C2211 1.403 . S
C2212 C2213 1.404 . S
C2212 C2215 1.539 . S
C2213 C2209 1.408 . S
C2213 C2212 1.404 . S
C2213 H2225 0.930 . S
C2214 C2210 1.524 . S
C2214 H2226 0.912 1_655 S
C2214 H2227 0.961 . S
C2214 H2228 0.961 . S
C2215 C2212 1.539 . S
C2215 H2229 0.958 . S
C2215 H2230 0.961 . S
C2215 H2231 0.960 . S
H2216 C2200 0.931 . S
H2217 C2205 0.929 . S
H2218 C2206 0.928 1_655 S
H2219 C2206 0.959 . S
H2220 C2206 0.993 . S
H2221 C2207 0.961 . S
H2222 C2207 0.961 . S
H2223 C2207 0.961 . S
H2224 C2208 0.931 . S
H2225 C2213 0.930 . S
H2226 C2214 0.912 1_455 S
H2227 C2214 0.961 . S
H2228 C2214 0.961 . S
H2229 C2215 0.958 . S
H2230 C2215 0.961 . S
H2231 C2215 0.960 . S
C2232 C2233 1.391 . S
C2232 C2234 1.394 1_554 S
C2232 H2248 0.931 . S
C2233 C2232 1.391 . S
C2233 C2237 1.376 1_554 S
C2234 C2232 1.394 1_556 S
C2234 C2235 1.369 . S
C2234 C2238 1.531 . S
C2235 C2234 1.369 . S
C2235 C2236 1.410 . S
C2235 C2243 1.503 . S
C2236 C2235 1.410 . S
C2236 C2237 1.392 . S
C2236 C2239 1.511 . S
C2237 C2233 1.376 1_556 S
C2237 C2236 1.392 . S
C2237 H2249 0.929 1_556 S
C2238 C2234 1.531 . S
C2238 H2250 0.960 . S
C2238 H2251 0.962 . S
C2238 H2252 0.960 . S
C2239 C2236 1.511 . S
C2239 H2253 0.961 . S
C2239 H2254 0.961 . S
C2239 H2255 0.961 . S
C2240 C2241 1.370 . S
C2240 C2242 1.363 . S
C2240 H2256 0.931 . S
C2241 C2240 1.370 . S
C2241 C2245 1.408 . S
C2242 C2240 1.363 . S
C2242 C2243 1.370 . S
C2242 C2246 1.524 . S
C2243 C2235 1.503 . S
C2243 C2242 1.370 . S
C2243 C2244 1.403 . S
C2244 C2243 1.403 . S
C2244 C2245 1.404 . S
C2244 C2247 1.539 . S
C2245 C2241 1.408 . S
C2245 C2244 1.404 . S
C2245 H2257 0.930 . S
C2246 C2242 1.524 . S
C2246 H2258 0.956 . S
C2246 H2259 0.961 . S
C2246 H2260 0.961 . S
C2247 C2244 1.539 . S
C2247 H2261 0.958 . S
C2247 H2262 0.961 . S
C2247 H2263 0.960 . S
H2248 C2232 0.931 . S
H2249 C2237 0.929 1_554 S
H2250 C2238 0.960 . S
H2251 C2238 0.962 . S
H2252 C2238 0.960 . S
H2253 C2239 0.961 . S
H2254 C2239 0.961 . S
H2255 C2239 0.961 . S
H2256 C2240 0.931 . S
H2257 C2245 0.930 . S
H2258 C2246 0.956 . S
H2259 C2246 0.961 . S
H2260 C2246 0.961 . S
H2261 C2247 0.958 . S
H2262 C2247 0.961 . S
H2263 C2247 0.960 . S
C2264 C2265 1.391 . S
C2264 C2266 1.394 1_554 S
C2264 H2280 0.931 . S
C2265 C2264 1.391 . S
C2265 C2269 1.376 . S
C2266 C2264 1.394 1_556 S
C2266 C2267 1.369 . S
C2266 C2270 1.531 . S
C2267 C2266 1.369 . S
C2267 C2268 1.410 . S
C2267 C2275 1.503 . S
C2268 C2267 1.410 . S
C2268 C2269 1.392 1_556 S
C2268 C2271 1.511 . S
C2269 C2265 1.376 . S
C2269 C2268 1.392 1_554 S
C2269 H2281 0.929 . S
C2270 C2266 1.531 . S
C2270 H2282 0.960 . S
C2270 H2283 0.962 . S
C2270 H2284 0.960 . S
C2271 C2268 1.511 . S
C2271 H2285 0.961 . S
C2271 H2286 0.961 . S
C2271 H2287 0.961 . S
C2272 C2273 1.370 . S
C2272 C2274 1.363 . S
C2272 H2288 0.931 . S
C2273 C2272 1.370 . S
C2273 C2277 1.408 . S
C2274 C2272 1.363 . S
C2274 C2275 1.370 . S
C2274 C2278 1.524 . S
C2275 C2267 1.503 . S
C2275 C2274 1.370 . S
C2275 C2276 1.403 . S
C2276 C2275 1.403 . S
C2276 C2277 1.404 . S
C2276 C2279 1.539 . S
C2277 C2273 1.408 . S
C2277 C2276 1.404 . S
C2277 H2289 0.930 . S
C2278 C2274 1.524 . S
C2278 H2290 0.956 . S
C2278 H2291 0.961 . S
C2278 H2292 0.961 . S
C2279 C2276 1.539 . S
C2279 H2293 0.958 . S
C2279 H2294 0.961 . S
C2279 H2295 0.960 . S
H2280 C2264 0.931 . S
H2281 C2269 0.929 . S
H2282 C2270 0.960 . S
H2283 C2270 0.962 . S
H2284 C2270 0.960 . S
H2285 C2271 0.961 . S
H2286 C2271 0.961 . S
H2287 C2271 0.961 . S
H2288 C2272 0.931 . S
H2289 C2277 0.930 . S
H2290 C2278 0.956 . S
H2291 C2278 0.961 . S
H2292 C2278 0.961 . S
H2293 C2279 0.958 . S
H2294 C2279 0.961 . S
H2295 C2279 0.960 . S
C2296 C2297 1.391 . S
C2296 C2298 1.394 1_554 S
C2296 H2312 0.931 . S
C2297 C2296 1.391 . S
C2297 C2301 1.376 . S
C2298 C2296 1.394 1_556 S
C2298 C2299 1.369 . S
C2298 C2302 1.531 . S
C2299 C2298 1.369 . S
C2299 C2300 1.410 . S
C2299 C2307 1.503 . S
C2300 C2299 1.410 . S
C2300 C2301 1.392 1_556 S
C2300 C2303 1.511 . S
C2301 C2297 1.376 . S
C2301 C2300 1.392 1_554 S
C2301 H2313 0.929 . S
C2302 C2298 1.531 . S
C2302 H2314 0.960 . S
C2302 H2315 0.962 . S
C2302 H2316 0.960 . S
C2303 C2300 1.511 . S
C2303 H2317 0.961 . S
C2303 H2318 0.961 . S
C2303 H2319 0.961 . S
C2304 C2305 1.370 . S
C2304 C2306 1.363 . S
C2304 H2320 0.931 . S
C2305 C2304 1.370 . S
C2305 C2309 1.408 . S
C2306 C2304 1.363 . S
C2306 C2307 1.370 . S
C2306 C2310 1.524 . S
C2307 C2299 1.503 . S
C2307 C2306 1.370 . S
C2307 C2308 1.403 . S
C2308 C2307 1.403 . S
C2308 C2309 1.404 . S
C2308 C2311 1.539 . S
C2309 C2305 1.408 . S
C2309 C2308 1.404 . S
C2309 H2321 0.930 . S
C2310 C2306 1.524 . S
C2310 H2322 0.956 . S
C2310 H2323 0.961 . S
C2310 H2324 0.961 . S
C2311 C2308 1.539 . S
C2311 H2325 0.958 . S
C2311 H2326 0.961 . S
C2311 H2327 0.960 . S
H2312 C2296 0.931 . S
H2313 C2301 0.929 . S
H2314 C2302 0.960 . S
H2315 C2302 0.962 . S
H2316 C2302 0.960 . S
H2317 C2303 0.961 . S
H2318 C2303 0.961 . S
H2319 C2303 0.961 . S
H2320 C2304 0.931 . S
H2321 C2309 0.930 . S
H2322 C2310 0.956 . S
H2323 C2310 0.961 . S
H2324 C2310 0.961 . S
H2325 C2311 0.958 . S
H2326 C2311 0.961 . S
H2327 C2311 0.960 . S
C2328 C2329 1.391 . S
C2328 C2330 1.394 . S
C2328 H2344 0.931 . S
C2329 C2328 1.391 . S
C2329 C2333 1.376 . S
C2330 C2328 1.394 . S
C2330 C2331 1.369 . S
C2330 C2334 1.531 . S
C2331 C2330 1.369 . S
C2331 C2332 1.410 . S
C2331 C2339 1.503 . S
C2332 C2331 1.410 . S
C2332 C2333 1.392 . S
C2332 C2335 1.511 . S
C2333 C2329 1.376 . S
C2333 C2332 1.392 . S
C2333 H2345 0.929 . S
C2334 C2330 1.531 . S
C2334 H2346 0.960 . S
C2334 H2347 0.962 . S
C2334 H2348 0.960 . S
C2335 C2332 1.511 . S
C2335 H2349 0.961 . S
C2335 H2350 0.961 . S
C2335 H2351 0.961 . S
C2336 C2337 1.370 . S
C2336 C2338 1.363 . S
C2336 H2352 0.931 . S
C2337 C2336 1.370 . S
C2337 C2341 1.408 . S
C2338 C2336 1.363 . S
C2338 C2339 1.370 . S
C2338 C2342 1.524 . S
C2339 C2331 1.503 . S
C2339 C2338 1.370 . S
C2339 C2340 1.403 . S
C2340 C2339 1.403 . S
C2340 C2341 1.404 . S
C2340 C2343 1.539 . S
C2341 C2337 1.408 . S
C2341 C2340 1.404 . S
C2341 H2353 0.930 . S
C2342 C2338 1.524 . S
C2342 H2354 0.956 . S
C2342 H2355 0.961 . S
C2342 H2356 0.961 . S
C2343 C2340 1.539 . S
C2343 H2357 0.958 . S
C2343 H2358 0.961 . S
C2343 H2359 0.960 . S
H2344 C2328 0.931 . S
H2345 C2333 0.929 . S
H2346 C2334 0.960 . S
H2347 C2334 0.962 . S
H2348 C2334 0.960 . S
H2349 C2335 0.961 . S
H2350 C2335 0.961 . S
H2351 C2335 0.961 . S
H2352 C2336 0.931 . S
H2353 C2341 0.930 . S
H2354 C2342 0.956 . S
H2355 C2342 0.961 . S
H2356 C2342 0.961 . S
H2357 C2343 0.958 . S
H2358 C2343 0.961 . S
H2359 C2343 0.960 . S
C2360 C2361 1.391 . S
C2360 C2362 1.394 . S
C2360 H2376 0.931 . S
C2361 C2360 1.391 . S
C2361 C2365 1.376 . S
C2362 C2360 1.394 . S
C2362 C2363 1.369 . S
C2362 C2366 1.531 . S
C2363 C2362 1.369 . S
C2363 C2364 1.410 . S
C2363 C2371 1.503 . S
C2364 C2363 1.410 . S
C2364 C2365 1.392 . S
C2364 C2367 1.511 . S
C2365 C2361 1.376 . S
C2365 C2364 1.392 . S
C2365 H2377 0.929 . S
C2366 C2362 1.531 . S
C2366 H2378 0.960 . S
C2366 H2379 0.962 . S
C2366 H2380 0.960 . S
C2367 C2364 1.511 . S
C2367 H2381 0.961 . S
C2367 H2382 0.961 . S
C2367 H2383 0.961 . S
C2368 C2369 1.370 . S
C2368 C2370 1.363 . S
C2368 H2384 0.931 . S
C2369 C2368 1.370 . S
C2369 C2373 1.408 . S
C2370 C2368 1.363 . S
C2370 C2371 1.370 . S
C2370 C2374 1.524 . S
C2371 C2363 1.503 . S
C2371 C2370 1.370 . S
C2371 C2372 1.403 . S
C2372 C2371 1.403 . S
C2372 C2373 1.404 . S
C2372 C2375 1.539 . S
C2373 C2369 1.408 . S
C2373 C2372 1.404 . S
C2373 H2385 0.930 . S
C2374 C2370 1.524 . S
C2374 H2386 0.956 . S
C2374 H2387 0.961 . S
C2374 H2388 0.961 . S
C2375 C2372 1.539 . S
C2375 H2389 0.958 . S
C2375 H2390 0.961 . S
C2375 H2391 0.960 . S
H2376 C2360 0.931 . S
H2377 C2365 0.929 . S
H2378 C2366 0.960 . S
H2379 C2366 0.962 . S
H2380 C2366 0.960 . S
H2381 C2367 0.961 . S
H2382 C2367 0.961 . S
H2383 C2367 0.961 . S
H2384 C2368 0.931 . S
H2385 C2373 0.930 . S
H2386 C2374 0.956 . S
H2387 C2374 0.961 . S
H2388 C2374 0.961 . S
H2389 C2375 0.958 . S
H2390 C2375 0.961 . S
H2391 C2375 0.960 . S
C2392 C2393 1.391 . S
C2392 C2394 1.394 . S
C2392 H2408 0.931 . S
C2393 C2392 1.391 . S
C2393 C2397 1.376 . S
C2394 C2392 1.394 . S
C2394 C2395 1.369 . S
C2394 C2398 1.531 . S
C2395 C2394 1.369 . S
C2395 C2396 1.410 . S
C2395 C2403 1.503 . S
C2396 C2395 1.410 . S
C2396 C2397 1.392 . S
C2396 C2399 1.511 . S
C2397 C2393 1.376 . S
C2397 C2396 1.392 . S
C2397 H2409 0.929 . S
C2398 C2394 1.531 . S
C2398 H2410 0.960 . S
C2398 H2411 0.962 . S
C2398 H2412 0.960 . S
C2399 C2396 1.511 . S
C2399 H2413 0.961 . S
C2399 H2414 0.961 . S
C2399 H2415 0.961 . S
C2400 C2401 1.370 . S
C2400 C2402 1.363 . S
C2400 H2416 0.931 . S
C2401 C2400 1.370 . S
C2401 C2405 1.408 . S
C2402 C2400 1.363 . S
C2402 C2403 1.370 . S
C2402 C2406 1.524 . S
C2403 C2395 1.503 . S
C2403 C2402 1.370 . S
C2403 C2404 1.403 . S
C2404 C2403 1.403 . S
C2404 C2405 1.404 . S
C2404 C2407 1.539 . S
C2405 C2401 1.408 . S
C2405 C2404 1.404 . S
C2405 H2417 0.930 . S
C2406 C2402 1.524 . S
C2406 H2418 0.956 . S
C2406 H2419 0.961 . S
C2406 H2420 0.961 . S
C2407 C2404 1.539 . S
C2407 H2421 0.958 . S
C2407 H2422 0.961 . S
C2407 H2423 0.960 . S
H2408 C2392 0.931 . S
H2409 C2397 0.929 . S
H2410 C2398 0.960 . S
H2411 C2398 0.962 . S
H2412 C2398 0.960 . S
H2413 C2399 0.961 . S
H2414 C2399 0.961 . S
H2415 C2399 0.961 . S
H2416 C2400 0.931 . S
H2417 C2405 0.930 . S
H2418 C2406 0.956 . S
H2419 C2406 0.961 . S
H2420 C2406 0.961 . S
H2421 C2407 0.958 . S
H2422 C2407 0.961 . S
H2423 C2407 0.960 . S
C2424 C2425 1.391 . S
C2424 C2426 1.394 . S
C2424 H2440 0.931 . S
C2425 C2424 1.391 . S
C2425 C2429 1.376 . S
C2426 C2424 1.394 . S
C2426 C2427 1.369 . S
C2426 C2430 1.531 . S
C2427 C2426 1.369 . S
C2427 C2428 1.410 . S
C2427 C2435 1.503 . S
C2428 C2427 1.410 . S
C2428 C2429 1.392 . S
C2428 C2431 1.511 . S
C2429 C2425 1.376 . S
C2429 C2428 1.392 . S
C2429 H2441 0.929 . S
C2430 C2426 1.531 . S
C2430 H2442 0.960 . S
C2430 H2443 0.962 . S
C2430 H2444 0.960 . S
C2431 C2428 1.511 . S
C2431 H2445 0.961 . S
C2431 H2446 0.961 . S
C2431 H2447 0.961 . S
C2432 C2433 1.370 . S
C2432 C2434 1.363 1_556 S
C2432 H2448 0.931 . S
C2433 C2432 1.370 . S
C2433 C2437 1.408 . S
C2434 C2432 1.363 1_554 S
C2434 C2435 1.370 . S
C2434 C2438 1.524 . S
C2435 C2427 1.503 . S
C2435 C2434 1.370 . S
C2435 C2436 1.403 . S
C2436 C2435 1.403 . S
C2436 C2437 1.404 1_554 S
C2436 C2439 1.539 . S
C2437 C2433 1.408 . S
C2437 C2436 1.404 1_556 S
C2437 H2449 0.930 . S
C2438 C2434 1.524 . S
C2438 H2450 0.956 . S
C2438 H2451 0.961 . S
C2438 H2452 0.961 . S
C2439 C2436 1.539 . S
C2439 H2453 0.958 . S
C2439 H2454 0.961 . S
C2439 H2455 0.960 . S
H2440 C2424 0.931 . S
H2441 C2429 0.929 . S
H2442 C2430 0.960 . S
H2443 C2430 0.962 . S
H2444 C2430 0.960 . S
H2445 C2431 0.961 . S
H2446 C2431 0.961 . S
H2447 C2431 0.961 . S
H2448 C2432 0.931 . S
H2449 C2437 0.930 . S
H2450 C2438 0.956 . S
H2451 C2438 0.961 . S
H2452 C2438 0.961 . S
H2453 C2439 0.958 . S
H2454 C2439 0.961 . S
H2455 C2439 0.960 . S
C2456 C2457 1.391 . S
C2456 C2458 1.394 . S
C2456 H2472 0.931 . S
C2457 C2456 1.391 . S
C2457 C2461 1.376 . S
C2458 C2456 1.394 . S
C2458 C2459 1.369 . S
C2458 C2462 1.531 . S
C2459 C2458 1.369 . S
C2459 C2460 1.410 . S
C2459 C2467 1.503 . S
C2460 C2459 1.410 . S
C2460 C2461 1.392 . S
C2460 C2463 1.511 . S
C2461 C2457 1.376 . S
C2461 C2460 1.392 . S
C2461 H2473 0.929 . S
C2462 C2458 1.531 . S
C2462 H2474 0.960 . S
C2462 H2475 0.962 . S
C2462 H2476 0.960 . S
C2463 C2460 1.511 . S
C2463 H2477 0.961 . S
C2463 H2478 0.961 . S
C2463 H2479 0.961 . S
C2464 C2465 1.370 . S
C2464 C2466 1.363 1_556 S
C2464 H2480 0.931 . S
C2465 C2464 1.370 . S
C2465 C2469 1.408 . S
C2466 C2464 1.363 1_554 S
C2466 C2467 1.370 . S
C2466 C2470 1.524 . S
C2467 C2459 1.503 . S
C2467 C2466 1.370 . S
C2467 C2468 1.403 . S
C2468 C2467 1.403 . S
C2468 C2469 1.404 1_554 S
C2468 C2471 1.539 . S
C2469 C2465 1.408 . S
C2469 C2468 1.404 1_556 S
C2469 H2481 0.930 . S
C2470 C2466 1.524 . S
C2470 H2482 0.956 . S
C2470 H2483 0.961 . S
C2470 H2484 0.961 . S
C2471 C2468 1.539 . S
C2471 H2485 0.958 . S
C2471 H2486 0.961 . S
C2471 H2487 0.960 . S
H2472 C2456 0.931 . S
H2473 C2461 0.929 . S
H2474 C2462 0.960 . S
H2475 C2462 0.962 . S
H2476 C2462 0.960 . S
H2477 C2463 0.961 . S
H2478 C2463 0.961 . S
H2479 C2463 0.961 . S
H2480 C2464 0.931 . S
H2481 C2469 0.930 . S
H2482 C2470 0.956 . S
H2483 C2470 0.961 . S
H2484 C2470 0.961 . S
H2485 C2471 0.958 . S
H2486 C2471 0.961 . S
H2487 C2471 0.960 . S
C2488 C2489 1.391 . S
C2488 C2490 1.394 . S
C2488 H2504 0.931 . S
C2489 C2488 1.391 . S
C2489 C2493 1.376 . S
C2490 C2488 1.394 . S
C2490 C2491 1.369 . S
C2490 C2494 1.531 . S
C2491 C2490 1.369 . S
C2491 C2492 1.410 . S
C2491 C2499 1.503 . S
C2492 C2491 1.410 . S
C2492 C2493 1.392 . S
C2492 C2495 1.511 . S
C2493 C2489 1.376 . S
C2493 C2492 1.392 . S
C2493 H2505 0.929 . S
C2494 C2490 1.531 . S
C2494 H2506 0.960 . S
C2494 H2507 0.962 . S
C2494 H2508 0.960 . S
C2495 C2492 1.511 . S
C2495 H2509 0.961 . S
C2495 H2510 0.961 . S
C2495 H2511 0.961 . S
C2496 C2497 1.370 . S
C2496 C2498 1.363 1_556 S
C2496 H2512 0.931 . S
C2497 C2496 1.370 . S
C2497 C2501 1.408 1_556 S
C2498 C2496 1.363 1_554 S
C2498 C2499 1.370 . S
C2498 C2502 1.524 . S
C2499 C2491 1.503 . S
C2499 C2498 1.370 . S
C2499 C2500 1.403 . S
C2500 C2499 1.403 . S
C2500 C2501 1.404 . S
C2500 C2503 1.539 . S
C2501 C2497 1.408 1_554 S
C2501 C2500 1.404 . S
C2501 H2513 0.930 . S
C2502 C2498 1.524 . S
C2502 H2514 0.956 . S
C2502 H2515 0.961 . S
C2502 H2516 0.961 1_554 S
C2503 C2500 1.539 . S
C2503 H2517 0.958 . S
C2503 H2518 0.961 . S
C2503 H2519 0.960 . S
H2504 C2488 0.931 . S
H2505 C2493 0.929 . S
H2506 C2494 0.960 . S
H2507 C2494 0.962 . S
H2508 C2494 0.960 . S
H2509 C2495 0.961 . S
H2510 C2495 0.961 . S
H2511 C2495 0.961 . S
H2512 C2496 0.931 . S
H2513 C2501 0.930 . S
H2514 C2502 0.956 . S
H2515 C2502 0.961 . S
H2516 C2502 0.961 1_556 S
H2517 C2503 0.958 . S
H2518 C2503 0.961 . S
H2519 C2503 0.960 . S
C2520 C2521 1.391 . S
C2520 C2522 1.394 . S
C2520 H2536 0.931 . S
C2521 C2520 1.391 . S
C2521 C2525 1.376 . S
C2522 C2520 1.394 . S
C2522 C2523 1.369 . S
C2522 C2526 1.531 . S
C2523 C2522 1.369 . S
C2523 C2524 1.410 . S
C2523 C2531 1.503 . S
C2524 C2523 1.410 . S
C2524 C2525 1.392 . S
C2524 C2527 1.511 . S
C2525 C2521 1.376 . S
C2525 C2524 1.392 . S
C2525 H2537 0.929 . S
C2526 C2522 1.531 . S
C2526 H2538 0.960 . S
C2526 H2539 0.962 . S
C2526 H2540 0.960 . S
C2527 C2524 1.511 . S
C2527 H2541 0.961 . S
C2527 H2542 0.961 . S
C2527 H2543 0.961 . S
C2528 C2529 1.370 . S
C2528 C2530 1.363 . S
C2528 H2544 0.931 . S
C2529 C2528 1.370 . S
C2529 C2533 1.408 . S
C2530 C2528 1.363 . S
C2530 C2531 1.370 . S
C2530 C2534 1.524 . S
C2531 C2523 1.503 . S
C2531 C2530 1.370 . S
C2531 C2532 1.403 . S
C2532 C2531 1.403 . S
C2532 C2533 1.404 . S
C2532 C2535 1.539 . S
C2533 C2529 1.408 . S
C2533 C2532 1.404 . S
C2533 H2545 0.930 . S
C2534 C2530 1.524 . S
C2534 H2546 0.956 . S
C2534 H2547 0.961 . S
C2534 H2548 0.961 . S
C2535 C2532 1.539 . S
C2535 H2549 0.958 . S
C2535 H2550 0.961 . S
C2535 H2551 0.960 . S
H2536 C2520 0.931 . S
H2537 C2525 0.929 . S
H2538 C2526 0.960 . S
H2539 C2526 0.962 . S
H2540 C2526 0.960 . S
H2541 C2527 0.961 . S
H2542 C2527 0.961 . S
H2543 C2527 0.961 . S
H2544 C2528 0.931 . S
H2545 C2533 0.930 . S
H2546 C2534 0.956 . S
H2547 C2534 0.961 . S
H2548 C2534 0.961 . S
H2549 C2535 0.958 . S
H2550 C2535 0.961 . S
H2551 C2535 0.960 . S
C2552 C2553 1.391 . S
C2552 C2554 1.394 . S
C2552 H2568 0.931 . S
C2553 C2552 1.391 . S
C2553 C2557 1.376 . S
C2554 C2552 1.394 . S
C2554 C2555 1.369 . S
C2554 C2558 1.531 . S
C2555 C2554 1.369 . S
C2555 C2556 1.410 . S
C2555 C2563 1.503 . S
C2556 C2555 1.410 . S
C2556 C2557 1.392 . S
C2556 C2559 1.511 . S
C2557 C2553 1.376 . S
C2557 C2556 1.392 . S
C2557 H2569 0.929 . S
C2558 C2554 1.531 . S
C2558 H2570 0.960 . S
C2558 H2571 0.962 . S
C2558 H2572 0.960 . S
C2559 C2556 1.511 . S
C2559 H2573 0.961 . S
C2559 H2574 0.961 . S
C2559 H2575 0.961 . S
C2560 C2561 1.370 . S
C2560 C2562 1.363 . S
C2560 H2576 0.931 . S
C2561 C2560 1.370 . S
C2561 C2565 1.408 . S
C2562 C2560 1.363 . S
C2562 C2563 1.370 . S
C2562 C2566 1.524 . S
C2563 C2555 1.503 . S
C2563 C2562 1.370 . S
C2563 C2564 1.403 . S
C2564 C2563 1.403 . S
C2564 C2565 1.404 . S
C2564 C2567 1.539 . S
C2565 C2561 1.408 . S
C2565 C2564 1.404 . S
C2565 H2577 0.930 . S
C2566 C2562 1.524 . S
C2566 H2578 0.956 . S
C2566 H2579 0.961 . S
C2566 H2580 0.961 . S
C2567 C2564 1.539 . S
C2567 H2581 0.958 . S
C2567 H2582 0.961 . S
C2567 H2583 0.960 . S
H2568 C2552 0.931 . S
H2569 C2557 0.929 . S
H2570 C2558 0.960 . S
H2571 C2558 0.962 . S
H2572 C2558 0.960 . S
H2573 C2559 0.961 . S
H2574 C2559 0.961 . S
H2575 C2559 0.961 . S
H2576 C2560 0.931 . S
H2577 C2565 0.930 . S
H2578 C2566 0.956 . S
H2579 C2566 0.961 . S
H2580 C2566 0.961 . S
H2581 C2567 0.958 . S
H2582 C2567 0.961 . S
H2583 C2567 0.960 . S
C2584 C2585 1.391 . S
C2584 C2586 1.394 . S
C2584 H2600 0.931 . S
C2585 C2584 1.391 . S
C2585 C2589 1.376 . S
C2586 C2584 1.394 . S
C2586 C2587 1.369 . S
C2586 C2590 1.531 . S
C2587 C2586 1.369 . S
C2587 C2588 1.410 . S
C2587 C2595 1.503 . S
C2588 C2587 1.410 . S
C2588 C2589 1.392 . S
C2588 C2591 1.511 . S
C2589 C2585 1.376 . S
C2589 C2588 1.392 . S
C2589 H2601 0.929 . S
C2590 C2586 1.531 . S
C2590 H2602 0.960 . S
C2590 H2603 0.962 . S
C2590 H2604 0.960 . S
C2591 C2588 1.511 . S
C2591 H2605 0.961 . S
C2591 H2606 0.961 . S
C2591 H2607 0.961 . S
C2592 C2593 1.370 . S
C2592 C2594 1.363 . S
C2592 H2608 0.931 . S
C2593 C2592 1.370 . S
C2593 C2597 1.408 . S
C2594 C2592 1.363 . S
C2594 C2595 1.370 . S
C2594 C2598 1.524 . S
C2595 C2587 1.503 . S
C2595 C2594 1.370 . S
C2595 C2596 1.403 . S
C2596 C2595 1.403 . S
C2596 C2597 1.404 . S
C2596 C2599 1.539 . S
C2597 C2593 1.408 . S
C2597 C2596 1.404 . S
C2597 H2609 0.930 . S
C2598 C2594 1.524 . S
C2598 H2610 0.956 . S
C2598 H2611 0.961 . S
C2598 H2612 0.961 . S
C2599 C2596 1.539 . S
C2599 H2613 0.958 . S
C2599 H2614 0.961 . S
C2599 H2615 0.960 . S
H2600 C2584 0.931 . S
H2601 C2589 0.929 . S
H2602 C2590 0.960 . S
H2603 C2590 0.962 . S
H2604 C2590 0.960 . S
H2605 C2591 0.961 . S
H2606 C2591 0.961 . S
H2607 C2591 0.961 . S
H2608 C2592 0.931 . S
H2609 C2597 0.930 . S
H2610 C2598 0.956 . S
H2611 C2598 0.961 . S
H2612 C2598 0.961 . S
H2613 C2599 0.958 . S
H2614 C2599 0.961 . S
H2615 C2599 0.960 . S
C2616 C2617 1.391 . S
C2616 C2618 1.394 . S
C2616 H2632 0.931 . S
C2617 C2616 1.391 . S
C2617 C2621 1.376 . S
C2618 C2616 1.394 . S
C2618 C2619 1.369 . S
C2618 C2622 1.531 . S
C2619 C2618 1.369 . S
C2619 C2620 1.410 . S
C2619 C2627 1.503 . S
C2620 C2619 1.410 . S
C2620 C2621 1.392 . S
C2620 C2623 1.511 1_655 S
C2621 C2617 1.376 . S
C2621 C2620 1.392 . S
C2621 H2633 0.929 . S
C2622 C2618 1.531 . S
C2622 H2634 0.960 . S
C2622 H2635 0.962 . S
C2622 H2636 0.960 . S
C2623 C2620 1.511 1_455 S
C2623 H2637 0.961 . S
C2623 H2638 0.961 . S
C2623 H2639 0.961 . S
C2624 C2625 1.370 . S
C2624 C2626 1.363 . S
C2624 H2640 0.931 . S
C2625 C2624 1.370 . S
C2625 C2629 1.408 . S
C2626 C2624 1.363 . S
C2626 C2627 1.370 . S
C2626 C2630 1.524 . S
C2627 C2619 1.503 . S
C2627 C2626 1.370 . S
C2627 C2628 1.403 . S
C2628 C2627 1.403 . S
C2628 C2629 1.404 . S
C2628 C2631 1.539 . S
C2629 C2625 1.408 . S
C2629 C2628 1.404 . S
C2629 H2641 0.930 . S
C2630 C2626 1.524 . S
C2630 H2642 0.956 . S
C2630 H2643 0.961 . S
C2630 H2644 0.961 . S
C2631 C2628 1.539 . S
C2631 H2645 0.958 . S
C2631 H2646 0.961 . S
C2631 H2647 0.960 . S
H2632 C2616 0.931 . S
H2633 C2621 0.929 . S
H2634 C2622 0.960 . S
H2635 C2622 0.962 . S
H2636 C2622 0.960 . S
H2637 C2623 0.961 . S
H2638 C2623 0.961 . S
H2639 C2623 0.961 . S
H2640 C2624 0.931 . S
H2641 C2629 0.930 . S
H2642 C2630 0.956 . S
H2643 C2630 0.961 . S
H2644 C2630 0.961 . S
H2645 C2631 0.958 . S
H2646 C2631 0.961 . S
H2647 C2631 0.960 . S
C2648 C2649 1.391 . S
C2648 C2650 1.394 . S
C2648 H2664 0.931 . S
C2649 C2648 1.391 . S
C2649 C2653 1.376 . S
C2650 C2648 1.394 . S
C2650 C2651 1.369 . S
C2650 C2654 1.531 . S
C2651 C2650 1.369 . S
C2651 C2652 1.410 . S
C2651 C2659 1.503 . S
C2652 C2651 1.410 . S
C2652 C2653 1.392 . S
C2652 C2655 1.511 . S
C2653 C2649 1.376 . S
C2653 C2652 1.392 . S
C2653 H2665 0.929 . S
C2654 C2650 1.531 . S
C2654 H2666 0.960 . S
C2654 H2667 0.962 . S
C2654 H2668 0.960 . S
C2655 C2652 1.511 . S
C2655 H2669 0.961 . S
C2655 H2670 0.961 . S
C2655 H2671 0.961 . S
C2656 C2657 1.370 . S
C2656 C2658 1.363 . S
C2656 H2672 0.931 . S
C2657 C2656 1.370 . S
C2657 C2661 1.408 . S
C2658 C2656 1.363 . S
C2658 C2659 1.370 . S
C2658 C2662 1.524 . S
C2659 C2651 1.503 . S
C2659 C2658 1.370 . S
C2659 C2660 1.403 . S
C2660 C2659 1.403 . S
C2660 C2661 1.404 . S
C2660 C2663 1.539 . S
C2661 C2657 1.408 . S
C2661 C2660 1.404 . S
C2661 H2673 0.930 . S
C2662 C2658 1.524 . S
C2662 H2674 0.956 . S
C2662 H2675 0.961 . S
C2662 H2676 0.961 . S
C2663 C2660 1.539 . S
C2663 H2677 0.958 . S
C2663 H2678 0.961 . S
C2663 H2679 0.960 . S
H2664 C2648 0.931 . S
H2665 C2653 0.929 . S
H2666 C2654 0.960 . S
H2667 C2654 0.962 . S
H2668 C2654 0.960 . S
H2669 C2655 0.961 . S
H2670 C2655 0.961 . S
H2671 C2655 0.961 . S
H2672 C2656 0.931 . S
H2673 C2661 0.930 . S
H2674 C2662 0.956 . S
H2675 C2662 0.961 . S
H2676 C2662 0.961 . S
H2677 C2663 0.958 . S
H2678 C2663 0.961 . S
H2679 C2663 0.960 . S
C2680 C2681 1.391 . S
C2680 C2682 1.394 . S
C2680 H2696 0.931 . S
C2681 C2680 1.391 . S
C2681 C2685 1.376 . S
C2682 C2680 1.394 . S
C2682 C2683 1.369 . S
C2682 C2686 1.531 . S
C2683 C2682 1.369 . S
C2683 C2684 1.410 . S
C2683 C2691 1.503 . S
C2684 C2683 1.410 . S
C2684 C2685 1.392 . S
C2684 C2687 1.511 . S
C2685 C2681 1.376 . S
C2685 C2684 1.392 . S
C2685 H2697 0.929 . S
C2686 C2682 1.531 . S
C2686 H2698 0.960 . S
C2686 H2699 0.962 . S
C2686 H2700 0.960 . S
C2687 C2684 1.511 . S
C2687 H2701 0.961 1_565 S
C2687 H2702 0.961 . S
C2687 H2703 0.961 . S
C2688 C2689 1.370 . S
C2688 C2690 1.363 . S
C2688 H2704 0.950 . S
C2689 C2688 1.370 . S
C2689 C2693 1.408 . S
C2690 C2688 1.363 . S
C2690 C2691 1.370 . S
C2690 C2694 1.524 1_565 S
C2691 C2683 1.503 . S
C2691 C2690 1.370 . S
C2691 C2692 1.403 . S
C2692 C2691 1.403 . S
C2692 C2693 1.404 . S
C2692 C2695 1.539 . S
C2693 C2689 1.408 . S
C2693 C2692 1.404 . S
C2693 H2705 0.930 . S
C2694 C2690 1.524 1_545 S
C2694 H2706 0.956 1_545 S
C2694 H2707 0.961 . S
C2694 H2708 0.961 . S
C2695 C2692 1.539 . S
C2695 H2709 0.958 . S
C2695 H2710 0.961 . S
C2695 H2711 0.960 . S
H2696 C2680 0.931 . S
H2697 C2685 0.929 . S
H2698 C2686 0.960 . S
H2699 C2686 0.962 . S
H2700 C2686 0.960 . S
H2701 C2687 0.961 1_545 S
H2702 C2687 0.961 . S
H2703 C2687 0.961 . S
H2704 C2688 0.950 . S
H2705 C2693 0.930 . S
H2706 C2694 0.956 1_565 S
H2707 C2694 0.961 . S
H2708 C2694 0.961 . S
H2709 C2695 0.958 . S
H2710 C2695 0.961 . S
H2711 C2695 0.960 . S
C2712 C2713 1.391 . S
C2712 C2714 1.394 . S
C2712 H2728 0.931 1_545 S
C2713 C2712 1.391 . S
C2713 C2717 1.376 . S
C2714 C2712 1.394 . S
C2714 C2715 1.369 . S
C2714 C2718 1.531 1_545 S
C2715 C2714 1.369 . S
C2715 C2716 1.410 . S
C2715 C2723 1.503 . S
C2716 C2715 1.410 . S
C2716 C2717 1.392 . S
C2716 C2719 1.511 . S
C2717 C2713 1.376 . S
C2717 C2716 1.392 . S
C2717 H2729 0.929 . S
C2718 C2714 1.531 1_565 S
C2718 H2730 0.960 . S
C2718 H2731 0.962 . S
C2718 H2732 0.960 . S
C2719 C2716 1.511 . S
C2719 H2733 0.961 . S
C2719 H2734 0.961 . S
C2719 H2735 0.961 . S
C2720 C2721 1.370 . S
C2720 C2722 1.363 . S
C2720 H2736 0.931 . S
C2721 C2720 1.370 . S
C2721 C2725 1.408 . S
C2722 C2720 1.363 . S
C2722 C2723 1.370 . S
C2722 C2726 1.524 . S
C2723 C2715 1.503 . S
C2723 C2722 1.370 . S
C2723 C2724 1.403 . S
C2724 C2723 1.403 . S
C2724 C2725 1.404 . S
C2724 C2727 1.539 . S
C2725 C2721 1.408 . S
C2725 C2724 1.404 . S
C2725 H2737 0.930 . S
C2726 C2722 1.524 . S
C2726 H2738 0.956 . S
C2726 H2739 0.961 . S
C2726 H2740 0.961 . S
C2727 C2724 1.539 . S
C2727 H2741 0.958 . S
C2727 H2742 0.961 . S
C2727 H2743 0.960 . S
H2728 C2712 0.931 1_565 S
H2729 C2717 0.929 . S
H2730 C2718 0.960 . S
H2731 C2718 0.962 . S
H2732 C2718 0.960 . S
H2733 C2719 0.961 . S
H2734 C2719 0.961 . S
H2735 C2719 0.961 . S
H2736 C2720 0.931 . S
H2737 C2725 0.930 . S
H2738 C2726 0.956 . S
H2739 C2726 0.961 . S
H2740 C2726 0.961 . S
H2741 C2727 0.958 . S
H2742 C2727 0.961 . S
H2743 C2727 0.960 . S
C2744 C2745 1.391 . S
C2744 C2746 1.394 . S
C2744 H2760 0.931 . S
C2745 C2744 1.391 . S
C2745 C2749 1.376 . S
C2746 C2744 1.394 . S
C2746 C2747 1.369 . S
C2746 C2750 1.531 . S
C2747 C2746 1.369 . S
C2747 C2748 1.410 . S
C2747 C2755 1.503 . S
C2748 C2747 1.410 . S
C2748 C2749 1.392 . S
C2748 C2751 1.511 1_455 S
C2749 C2745 1.376 . S
C2749 C2748 1.392 . S
C2749 H2761 0.936 1_455 S
C2750 C2746 1.531 . S
C2750 H2762 0.960 . S
C2750 H2763 0.962 . S
C2750 H2764 0.960 . S
C2751 C2748 1.511 1_655 S
C2751 H2765 0.961 . S
C2751 H2766 0.961 . S
C2751 H2767 0.961 1_655 S
C2752 C2753 1.370 . S
C2752 C2754 1.363 . S
C2752 H2768 0.931 . S
C2753 C2752 1.370 . S
C2753 C2757 1.408 . S
C2754 C2752 1.363 . S
C2754 C2755 1.370 . S
C2754 C2758 1.524 . S
C2755 C2747 1.503 . S
C2755 C2754 1.370 . S
C2755 C2756 1.403 . S
C2756 C2755 1.403 . S
C2756 C2757 1.404 . S
C2756 C2759 1.539 . S
C2757 C2753 1.408 . S
C2757 C2756 1.404 . S
C2757 H2769 0.930 . S
C2758 C2754 1.524 . S
C2758 H2770 0.956 . S
C2758 H2771 0.961 1_455 S
C2758 H2772 0.961 1_455 S
C2759 C2756 1.539 . S
C2759 H2773 0.958 . S
C2759 H2774 0.961 . S
C2759 H2775 0.960 . S
H2760 C2744 0.931 . S
H2761 C2749 0.936 1_655 S
H2762 C2750 0.960 . S
H2763 C2750 0.962 . S
H2764 C2750 0.960 . S
H2765 C2751 0.961 . S
H2766 C2751 0.961 . S
H2767 C2751 0.961 1_455 S
H2768 C2752 0.931 . S
H2769 C2757 0.930 . S
H2770 C2758 0.956 . S
H2771 C2758 0.961 1_655 S
H2772 C2758 0.961 1_655 S
H2773 C2759 0.958 . S
H2774 C2759 0.961 . S
H2775 C2759 0.960 . S
C2776 C2777 1.391 . S
C2776 C2778 1.394 . S
C2776 H2792 0.931 . S
C2777 C2776 1.391 . S
C2777 C2781 1.376 . S
C2778 C2776 1.394 . S
C2778 C2779 1.369 . S
C2778 C2782 1.531 . S
C2779 C2778 1.369 . S
C2779 C2780 1.410 . S
C2779 C2787 1.503 . S
C2780 C2779 1.410 . S
C2780 C2781 1.392 . S
C2780 C2783 1.511 . S
C2781 C2777 1.376 . S
C2781 C2780 1.392 . S
C2781 H2793 0.929 . S
C2782 C2778 1.531 . S
C2782 H2794 0.960 . S
C2782 H2795 0.962 . S
C2782 H2796 0.960 . S
C2783 C2780 1.511 . S
C2783 H2797 0.961 . S
C2783 H2798 0.961 . S
C2783 H2799 0.961 . S
C2784 C2785 1.370 . S
C2784 C2786 1.363 . S
C2784 H2800 0.931 . S
C2785 C2784 1.370 . S
C2785 C2789 1.408 . S
C2786 C2784 1.363 . S
C2786 C2787 1.370 . S
C2786 C2790 1.524 . S
C2787 C2779 1.503 . S
C2787 C2786 1.370 . S
C2787 C2788 1.403 . S
C2788 C2787 1.403 . S
C2788 C2789 1.404 . S
C2788 C2791 1.539 . S
C2789 C2785 1.408 . S
C2789 C2788 1.404 . S
C2789 H2801 0.930 . S
C2790 C2786 1.524 . S
C2790 H2802 0.956 . S
C2790 H2803 0.961 . S
C2790 H2804 0.961 . S
C2791 C2788 1.539 . S
C2791 H2805 0.958 . S
C2791 H2806 0.961 . S
C2791 H2807 0.960 . S
H2792 C2776 0.931 . S
H2793 C2781 0.929 . S
H2794 C2782 0.960 . S
H2795 C2782 0.962 . S
H2796 C2782 0.960 . S
H2797 C2783 0.961 . S
H2798 C2783 0.961 . S
H2799 C2783 0.961 . S
H2800 C2784 0.931 . S
H2801 C2789 0.930 . S
H2802 C2790 0.956 . S
H2803 C2790 0.961 . S
H2804 C2790 0.961 . S
H2805 C2791 0.958 . S
H2806 C2791 0.961 . S
H2807 C2791 0.960 . S
C505 C232 1.576 . S
C513 C3 1.542 . S
C537 C241 1.468 . S
C545 C22 1.479 . S
C569 C213 1.602 . S
C577 C31 1.647 . S
C601 C367 1.736 . S
C609 C45 1.726 . S
C633 C64 1.497 . S
C641 C339 1.473 . S
C665 C73 1.437 . S
C673 C358 1.465 . S
C697 C92 1.356 . S
C705 C484 1.349 . S
C729 C498 1.287 . S
C737 C106 1.319 . S
C761 C470 1.629 . S
C769 C120 1.686 . S
C793 C134 1.330 . S
C801 C288 1.350 . S
C825 C260 1.273 . S
C833 C148 1.316 . S
C857 C162 1.302 . S
C865 C274 1.273 . S
C889 C400 1.476 . S
C897 C171 1.449 . S
C921 C190 1.393 . S
C929 C409 1.396 . S
C953 C381 1.515 . S
C961 C199 1.544 . S
C985 C456 1.266 . S
C993 C302 1.255 . S
C1017 C428 1.243 . S
C1025 C316 1.273 . S
C1049 C330 1.236 . S
C1057 C442 1.252 . S
C1081 C259 1.160 . S
C1089 C9 1.149 . S
C1113 C273 1.411 . S
C1121 C21 1.427 . S
C1145 C287 2.185 . S
C1153 C37 1.976 . S
C1177 C51 1.214 . S
C1185 C469 1.285 . S
C1209 C63 2.130 . S
C1217 C483 2.143 . S
C1241 C79 1.368 . S
C1249 C497 1.384 . S
C1273 C91 1.184 . S
C1281 C345 1.156 . S
C1305 C357 1.447 . S
C1313 C105 1.426 . S
C1337 C373 1.316 . S
C1345 C119 1.493 . S
C1369 C219 1.173 . S
C1377 C133 1.201 . S
C1401 C147 2.111 . S
C1409 C231 2.178 . S
C1433 C161 1.356 . S
C1441 C247 1.335 . S
C1465 C177 1.165 . S
C1473 C427 1.209 . S
C1497 C441 1.272 . S
C1505 C189 1.304 . S
C1529 C455 1.870 . S
C1537 C205 1.668 . S
C1561 C387 1.152 . S
C1569 C301 1.212 1_554 S
C1593 C315 1.870 1_554 S
C1601 C399 1.854 1_556 S
C1625 C329 1.681 1_554 S
C1633 C415 1.707 . S
C1657 C386 1.492 . S
C1665 C8 1.497 . S
C1689 C17 1.435 . S
C1697 C395 1.350 . S
C1721 C36 1.577 . S
C1729 C414 1.649 . S
C1753 C176 1.453 . S
C1761 C50 1.435 . S
C1785 C59 1.316 . S
C1793 C185 1.481 . S
C1817 C78 1.559 . S
C1825 C204 1.498 . S
C1849 C297 1.432 . S
C1857 C87 1.487 . S
C1881 C101 1.557 . S
C1889 C311 1.425 . S
C1913 C325 1.350 . S
C1921 C115 1.510 . S
C1945 C129 1.442 . S
C1953 C423 1.438 . S
C1977 C437 1.882 . S
C1985 C143 1.679 . S
C2009 C451 1.211 . S
C2017 C157 1.316 . S
C2041 C344 1.586 . S
C2049 C218 1.593 . S
C2073 C353 1.474 . S
C2081 C227 1.392 . S
C2105 C372 1.384 . S
C2113 C246 1.416 . S
C2137 C255 1.432 . S
C2145 C465 1.407 . S
C2169 C479 1.539 . S
C2177 C269 1.756 . S
C2201 C493 1.572 . S
C2209 C283 1.402 . S
C2233 C7 0.921 . S
C2241 C233 0.948 . S
C2265 C23 0.881 . S
C2273 C245 0.937 . S
C2297 C35 1.021 . S
C2305 C217 1.001 . S
C2329 C371 1.202 . S
C2337 C49 1.193 . S
C2361 C343 0.894 . S
C2369 C65 0.926 . S
C2393 C359 0.912 . S
C2401 C77 0.939 . S
C2425 C485 0.806 . S
C2433 C93 0.714 . S
C2457 C499 0.792 . S
C2465 C107 0.818 . S
C2489 C471 1.003 . S
C2497 C121 1.117 . S
C2521 C135 0.851 . S
C2529 C289 0.767 . S
C2553 C149 0.774 . S
C2561 C261 0.760 . S
C2585 C163 0.822 . S
C2593 C275 0.810 . S
C2617 C401 0.967 . S
C2625 C175 0.984 . S
C2649 C413 0.963 . S
C2657 C191 0.969 . S
C2681 C203 1.132 . S
C2689 C385 1.133 . S
C2713 C303 0.850 . S
C2721 C457 0.876 . S
C2745 C429 0.857 . S
C2753 C317 0.804 . S
C2777 C443 0.809 . S
C2785 C331 0.769 . S
