# Generated by pormake.
# Topology xbj, (5)-cn, num edge types: 1
# Building blocks:
#     Node 0, Type 0, BuildingBlock: XOMCOT_clean_sbu_1, # of connection points: 5
#     Node 1, Type 0, BuildingBlock: XOMCOT_clean_sbu_1, # of connection points: 5
#     Node 2, Type 0, BuildingBlock: XOMCOT_clean_sbu_1, # of connection points: 5
#     Node 3, Type 0, BuildingBlock: XOMCOT_clean_sbu_1, # of connection points: 5
#     Node 4, Type 0, BuildingBlock: XOMCOT_clean_sbu_1, # of connection points: 5
#     Node 5, Type 0, BuildingBlock: XOMCOT_clean_sbu_1, # of connection points: 5
#     Node 6, Type 0, BuildingBlock: XOMCOT_clean_sbu_1, # of connection points: 5
#     Node 7, Type 0, BuildingBlock: XOMCOT_clean_sbu_1, # of connection points: 5
#     Edge 8, Type (0, 0), BuildingBlock: TEMPAE_clean_linker_10, # of connection points: 2
#     Edge 9, Type (0, 0), BuildingBlock: TEMPAE_clean_linker_10, # of connection points: 2
#     Edge 10, Type (0, 0), BuildingBlock: TEMPAE_clean_linker_10, # of connection points: 2
#     Edge 11, Type (0, 0), BuildingBlock: TEMPAE_clean_linker_10, # of connection points: 2
#     Edge 12, Type (0, 0), BuildingBlock: TEMPAE_clean_linker_10, # of connection points: 2
#     Edge 13, Type (0, 0), BuildingBlock: TEMPAE_clean_linker_10, # of connection points: 2
#     Edge 14, Type (0, 0), BuildingBlock: TEMPAE_clean_linker_10, # of connection points: 2
#     Edge 15, Type (0, 0), BuildingBlock: TEMPAE_clean_linker_10, # of connection points: 2
#     Edge 16, Type (0, 0), BuildingBlock: TEMPAE_clean_linker_10, # of connection points: 2
#     Edge 17, Type (0, 0), BuildingBlock: TEMPAE_clean_linker_10, # of connection points: 2
#     Edge 18, Type (0, 0), BuildingBlock: TEMPAE_clean_linker_10, # of connection points: 2
#     Edge 19, Type (0, 0), BuildingBlock: TEMPAE_clean_linker_10, # of connection points: 2
#     Edge 20, Type (0, 0), BuildingBlock: TEMPAE_clean_linker_10, # of connection points: 2
#     Edge 21, Type (0, 0), BuildingBlock: TEMPAE_clean_linker_10, # of connection points: 2
#     Edge 22, Type (0, 0), BuildingBlock: TEMPAE_clean_linker_10, # of connection points: 2
#     Edge 23, Type (0, 0), BuildingBlock: TEMPAE_clean_linker_10, # of connection points: 2
#     Edge 24, Type (0, 0), BuildingBlock: TEMPAE_clean_linker_10, # of connection points: 2
#     Edge 25, Type (0, 0), BuildingBlock: TEMPAE_clean_linker_10, # of connection points: 2
#     Edge 26, Type (0, 0), BuildingBlock: TEMPAE_clean_linker_10, # of connection points: 2
#     Edge 27, Type (0, 0), BuildingBlock: TEMPAE_clean_linker_10, # of connection points: 2
# Relax obj value: 0.189
# Max RMSD: 0.169
# Mean RMSD: 0.162
data_MOF--net-xbj--node1-XOMCOT_clean_sbu_1--edge1-TEMPAE_clean_linker_10
_symmetry_space_group_name_H-M    P1
_symmetry_Int_Tables_number       1
_symmetry_cell_setting            triclinic
loop_
_symmetry_equiv_pos_as_xyz
'x, y, z'
_cell_length_a     17.824401
_cell_length_b     17.82162
_cell_length_c     108.64336
_cell_angle_alpha  95.309334
_cell_angle_beta   96.082293
_cell_angle_gamma 90.49855
loop_
_atom_site_label
_atom_site_type_symbol
_atom_site_fract_x
_atom_site_fract_y
_atom_site_fract_z
_atom_type_partial_charge
C0 C 0.14123 0.06007 0.04476 0.0
C1 C 0.21803 0.07098 0.04521 0.0
N2 N 0.25028 1.00297 0.04422 0.0
N3 N 0.12496 0.98557 0.04333 0.0
C4 C 0.1928 0.95205 0.04317 0.0
H5 H 0.09942 0.10365 0.04506 0.0
Co6 Co 1.02619 0.94692 0.04099 0.0
C7 C 0.02969 0.81508 0.02266 0.0
O8 O 0.9666 0.83888 0.01702 0.0
N9 N 0.92511 0.90918 0.03949 0.0
C10 C 0.8279 0.82967 0.03984 0.0
C11 C 0.90473 0.83615 0.03994 0.0
C12 C 0.85936 0.94645 0.04019 0.0
N13 N 0.79946 0.89915 0.04 0.0
O14 O 0.04022 0.90836 0.05709 0.0
H15 H 0.94347 0.79012 0.04077 0.0
H16 H 0.85523 1.00701 0.04142 0.0
O17 O 0.05972 0.85172 0.0327 0.0
C18 C 0.07593 0.85246 0.06118 0.0
O19 O 0.11544 0.80956 0.05389 0.0
N20 N 1.01328 0.98805 0.0252 0.0
C21 C 0.99616 0.03843 0.00147 0.0
C22 C 0.05698 0.9938 0.00511 0.0
C23 C 0.06567 0.97112 0.01705 0.0
C24 C 0.95771 0.03763 0.02219 0.0
C25 C 0.94752 0.06298 0.01028 0.0
H26 H 0.11423 0.93786 0.01957 0.0
H27 H 0.9218 0.05907 0.02899 0.0
H28 H 0.19992 0.8918 0.0417 0.0
H29 H 0.24789 0.12468 0.04607 0.0
H30 H 0.79567 0.77828 0.0402 0.0
H31 H 0.09815 0.97692 -0.00122 0.0
H32 H 0.90193 0.1007 0.00796 0.0
C33 C 0.43868 0.75879 0.29995 0.0
C34 C 0.43015 0.83569 0.30124 0.0
N35 N 0.49435 0.869 0.29873 0.0
N36 N 0.508 0.74294 0.29671 0.0
C37 C 0.54086 0.81127 0.2961 0.0
H38 H 0.39628 0.71681 0.30103 0.0
Co39 Co 0.54019 0.64434 0.29289 0.0
C40 C 0.70174 0.6684 0.29041 0.0
O41 O 0.72306 0.61814 0.29812 0.0
N42 N 0.5708 0.54463 0.28901 0.0
C43 C 0.61321 0.44298 0.27867 0.0
C44 C 0.60785 0.51999 0.27925 0.0
C45 C 0.55353 0.48109 0.29417 0.0
N46 N 0.57858 0.41807 0.28801 0.0
O47 O 0.58646 0.64332 0.30943 0.0
H48 H 0.62749 0.5555 0.27265 0.0
H49 H 0.52018 0.48086 0.30193 0.0
O50 O 0.63219 0.6825 0.28809 0.0
C51 C 0.54816 0.6334 0.31839 0.0
O52 O 0.47513 0.62034 0.31608 0.0
N53 N 0.49388 0.64588 0.27658 0.0
C54 C 0.42654 0.63812 0.25213 0.0
C55 C 0.48302 0.69222 0.25644 0.0
C56 C 0.51567 0.69552 0.26871 0.0
C57 C 0.43763 0.59416 0.27268 0.0
C58 C 0.40354 0.58884 0.26043 0.0
H59 H 0.55861 0.73817 0.2718 0.0
H60 H 0.41992 0.55614 0.27907 0.0
H61 H 0.5966 0.81857 0.29328 0.0
H62 H 0.37998 0.86459 0.30371 0.0
H63 H 0.63972 0.408 0.27175 0.0
H64 H 0.50232 0.73142 0.25035 0.0
H65 H 0.35893 0.54729 0.25754 0.0
C66 C 0.69099 0.47596 0.56581 0.0
C67 C 0.76829 0.48559 0.56761 0.0
N68 N 0.79901 0.43449 0.5598 0.0
N69 N 0.6725 0.41924 0.55689 0.0
C70 C 0.73981 0.39509 0.55341 0.0
H71 H 0.65042 0.50902 0.57059 0.0
Co72 Co 0.5712 0.39369 0.55121 0.0
C73 C 0.63978 0.24177 0.5468 0.0
O74 O 0.67488 0.24278 0.55808 0.0
N75 N 0.46917 0.3715 0.54569 0.0
C76 C 0.36358 0.33481 0.53383 0.0
C77 C 0.44112 0.33539 0.53468 0.0
C78 C 0.40754 0.39232 0.55139 0.0
N79 N 0.34238 0.37055 0.54434 0.0
O80 O 0.56006 0.351 0.56673 0.0
H81 H 0.47484 0.31242 0.52758 0.0
H82 H 0.4105 0.42424 0.5604 0.0
O83 O 0.59863 0.29666 0.54378 0.0
C84 C 0.52739 0.28886 0.56821 0.0
O85 O 0.49605 0.24616 0.55848 0.0
N86 N 0.58137 0.43627 0.53618 0.0
C87 C 0.57144 0.48596 0.5125 0.0
C88 C 0.62006 0.42797 0.51564 0.0
C89 C 0.62456 0.40424 0.52751 0.0
C90 C 0.53764 0.49651 0.5336 0.0
C91 C 0.53172 0.52242 0.52174 0.0
H92 H 0.66096 0.35793 0.5294 0.0
H93 H 0.50421 0.52201 0.54056 0.0
H94 H 0.74596 0.35089 0.54612 0.0
H95 H 0.79943 0.52698 0.57417 0.0
H96 H 0.32566 0.30986 0.52606 0.0
H97 H 0.65351 0.39998 0.50888 0.0
H98 H 0.49426 0.56818 0.51967 0.0
C99 C 0.07989 0.52458 0.80332 0.0
C100 C 0.07857 0.60199 0.80429 0.0
N101 N 0.06061 0.62404 0.79288 0.0
N102 N 0.05966 0.49668 0.7914 0.0
C103 C 0.05083 0.55958 0.78522 0.0
H104 H 0.09946 0.49162 0.81083 0.0
Co105 Co 0.06296 0.39364 0.7847 0.0
C106 C 0.20724 0.42184 0.78063 0.0
O107 O 0.17412 0.46864 0.77321 0.0
N108 N 0.069 0.2935 0.7778 0.0
C109 C 0.05344 0.19461 0.76366 0.0
C110 C 0.05411 0.27206 0.76555 0.0
C111 C 0.07969 0.22813 0.78316 0.0
N112 N 0.06982 0.16709 0.77474 0.0
O113 O 0.05441 0.35905 0.80096 0.0
H114 H 0.04131 0.31038 0.75849 0.0
H115 H 0.09057 0.22489 0.79308 0.0
O116 O 0.16896 0.39532 0.7885 0.0
C117 C 1.0101 0.37306 0.80934 0.0
O118 O 0.95358 0.41897 0.80743 0.0
N119 N 0.95782 0.38776 0.77994 0.0
C120 C 0.84144 0.32524 0.76288 0.0
C121 C 0.87736 0.39235 0.76086 0.0
C122 C 0.93636 0.4221 0.76945 0.0
C123 C 0.91618 0.32786 0.78277 0.0
C124 C 0.85798 0.29546 0.77428 0.0
H125 H 0.9722 0.46441 0.76655 0.0
H126 H 0.93515 0.29615 0.79045 0.0
H127 H 0.04146 0.55893 0.77524 0.0
H128 H 0.09427 0.63934 0.81262 0.0
H129 H 0.0409 0.16099 0.75485 0.0
H130 H 0.8673 0.41558 0.75197 0.0
H131 H 0.83229 0.24262 0.776 0.0
C132 C 0.10524 0.44702 0.91208 0.0
C133 C 0.02911 0.45934 0.91199 0.0
N134 N 1.00097 0.41601 0.92002 0.0
N135 N 0.12615 0.39589 0.92011 0.0
C136 C 0.06169 0.37977 0.92508 0.0
H137 H 0.14266 0.47205 0.90634 0.0
Co138 Co 0.22394 0.35394 0.92152 0.0
C139 C 0.13029 0.21839 0.92346 0.0
O140 O 0.09273 0.22325 0.91249 0.0
N141 N 0.32135 0.3131 0.92269 0.0
C142 C 0.41617 0.23295 0.92275 0.0
C143 C 0.33905 0.23957 0.92213 0.0
C144 C 0.38884 0.35011 0.92361 0.0
N145 N 0.44793 0.30251 0.92363 0.0
O146 O 0.20521 0.31099 0.90479 0.0
H147 H 0.29857 0.19331 0.92114 0.0
H148 H 0.39414 0.4108 0.92392 0.0
O149 O 0.18325 0.2656 0.92751 0.0
C150 C 0.23276 0.34641 0.89664 0.0
O151 O 0.27806 0.40454 0.90037 0.0
N152 N 0.24275 0.39863 0.93774 0.0
C153 C 0.25465 0.47358 0.96153 0.0
C154 C 0.26491 0.39544 0.95984 0.0
C155 C 0.25911 0.35895 0.94783 0.0
C156 C 0.2383 0.47502 0.93915 0.0
C157 C 0.24322 0.51361 0.95096 0.0
H158 H 0.26634 0.29867 0.94667 0.0
H159 H 0.22772 0.50587 0.93104 0.0
H160 H 0.05855 0.33977 0.9319 0.0
H161 H 0.99698 0.49643 0.90618 0.0
H162 H 0.44633 0.1805 0.92257 0.0
H163 H 0.27557 0.36255 0.96772 0.0
H164 H 0.23427 0.5738 0.95174 0.0
C165 C 0.82895 0.56832 0.15628 0.0
C166 C 0.82353 0.49087 0.15436 0.0
N167 N 0.88798 0.46241 0.15944 0.0
N168 N 0.89683 0.58884 0.16242 0.0
C169 C 0.93163 0.52274 0.1642 0.0
H170 H 0.78546 0.60729 0.15357 0.0
Co171 Co 0.92772 0.68953 0.16708 0.0
C172 C 0.09217 0.65461 0.1726 0.0
O173 O 0.11265 0.67488 0.16211 0.0
N174 N 0.95801 0.79086 0.1715 0.0
C175 C 1.01837 0.89525 0.18035 0.0
C176 C 1.01178 0.81842 0.18054 0.0
C177 C 0.93139 0.85247 0.16616 0.0
N178 N 0.96767 0.91648 0.17134 0.0
O179 O 0.96749 0.69398 0.15162 0.0
H180 H 0.04405 0.78519 0.18698 0.0
H181 H 0.88684 0.85042 0.15855 0.0
O182 O 1.02326 0.65784 0.17469 0.0
C183 C 0.92333 0.70844 0.1422 0.0
O184 O 0.85111 0.71657 0.14331 0.0
N185 N 0.88709 0.68644 0.18229 0.0
C186 C 0.84503 0.69963 0.20627 0.0
C187 C 0.89102 0.64095 0.20242 0.0
C188 C 0.91035 0.63453 0.19031 0.0
C189 C 0.83747 0.74065 0.18561 0.0
C190 C 0.81572 0.74848 0.19766 0.0
H191 H 0.94655 0.58926 0.18759 0.0
H192 H 0.81732 0.78005 0.17907 0.0
H193 H 0.98747 0.51845 0.16904 0.0
H194 H 0.775 0.4579 0.14998 0.0
H195 H 0.05649 0.93295 0.1865 0.0
H196 H 0.91314 0.60134 0.20882 0.0
H197 H 0.77896 0.79377 0.20037 0.0
C198 C 0.63644 0.8903 0.42172 0.0
C199 C 0.56027 0.90309 0.42162 0.0
N200 N 0.53101 0.85367 0.42853 0.0
N201 N 0.6555 0.83288 0.42864 0.0
C202 C 0.5899 0.81266 0.43284 0.0
H203 H 0.67553 0.9212 0.41705 0.0
Co204 Co 0.75468 0.79683 0.43141 0.0
C205 C 0.66815 0.65292 0.43179 0.0
O206 O 0.62995 0.65709 0.42085 0.0
N207 N 0.85433 0.76324 0.43415 0.0
C208 C 0.95737 0.70417 0.44123 0.0
C209 C 0.87988 0.70436 0.44028 0.0
C210 C 0.9177 0.79743 0.43132 0.0
N211 N 0.98112 0.76261 0.43558 0.0
O212 O 0.74778 0.75358 0.41469 0.0
H213 H 0.84509 0.66487 0.44416 0.0
H214 H 0.9175 0.84841 0.42662 0.0
O215 O 0.71629 0.70416 0.43622 0.0
C216 C 0.76627 0.79047 0.40598 0.0
O217 O 0.79514 0.85882 0.40869 0.0
N218 N 0.76129 0.84038 0.44784 0.0
C219 C 0.75736 0.91499 0.47145 0.0
C220 C 0.76018 0.83623 0.46983 0.0
C221 C 0.76246 0.79994 0.45796 0.0
C222 C 0.76223 0.91709 0.44929 0.0
C223 C 0.75996 0.95569 0.46103 0.0
H224 H 0.76413 0.73925 0.45703 0.0
H225 H 0.76236 0.94836 0.44122 0.0
H226 H 0.58503 0.76963 0.43911 0.0
H227 H 0.52848 0.94431 0.41661 0.0
H228 H 0.99365 0.66433 0.44579 0.0
H229 H 0.75986 0.80276 0.47766 0.0
H230 H 0.7575 1.01662 0.46186 0.0
C231 C 0.34906 0.97194 0.66357 0.0
C232 C 0.34241 0.89474 0.6619 0.0
N233 N 0.40615 0.86525 0.66713 0.0
N234 N 0.41689 0.99185 0.66972 0.0
C235 C 0.45076 0.92558 0.67172 0.0
H236 H 0.30592 1.01115 0.66083 0.0
Co237 Co 0.44417 0.09214 0.67503 0.0
C238 C 0.60787 0.09113 0.68129 0.0
O239 O 0.61699 0.13301 0.6722 0.0
N240 N 0.47051 0.19441 0.68047 0.0
C241 C 0.51287 0.29644 0.69271 0.0
C242 C 0.50595 0.21935 0.69174 0.0
C243 C 0.45574 0.25821 0.67481 0.0
N244 N 0.48108 0.32117 0.68207 0.0
O245 O 0.48014 0.10364 0.65942 0.0
H246 H 0.52439 0.18378 0.69898 0.0
H247 H 0.42477 0.25901 0.66573 0.0
O248 O 0.54269 0.06328 0.68212 0.0
C249 C 0.43081 0.12545 0.65124 0.0
O250 O 0.36135 0.13452 0.65406 0.0
N251 N 0.40528 0.08203 0.69007 0.0
C252 C 0.36722 0.10472 0.71419 0.0
C253 C 0.4185 0.04889 0.71104 0.0
C254 C 0.43581 0.03739 0.69879 0.0
C255 C 0.34877 0.12991 0.69261 0.0
C256 C 0.3292 0.14271 0.70469 0.0
H257 H 0.47684 0.9957 0.69652 0.0
H258 H 0.32371 0.16332 0.68548 0.0
H259 H 0.50542 0.92158 0.67696 0.0
H260 H 0.29355 0.86297 0.65737 0.0
H261 H 0.53914 0.33149 0.7007 0.0
H262 H 0.44734 1.01692 0.71806 0.0
H263 H 0.28902 0.1862 0.70671 0.0
C264 C 0.07984 0.75751 0.07675 0.0
C265 C 0.06598 0.83134 0.07375 0.0
C266 C 0.06287 0.73441 0.08816 0.0
C267 C 0.03255 0.78679 0.09682 0.0
C268 C 1.02194 0.86235 0.09408 0.0
C269 C 0.03814 0.88356 0.08252 0.0
C270 C 0.07404 0.65313 0.09069 0.0
C271 C 0.99102 0.92019 0.10318 0.0
C272 C 0.90457 0.71938 0.11941 0.0
C273 C 0.95321 0.72262 0.13046 0.0
C274 C 0.93045 0.7379 0.10831 0.0
C275 C 1.00651 0.76152 0.10833 0.0
C276 C 0.05631 0.76361 0.11941 0.0
C277 C 0.02916 0.74348 0.13035 0.0
C278 C 0.87593 0.7337 0.09662 0.0
C279 C 0.13748 0.78953 0.11982 0.0
H280 H 0.10111 0.7168 0.06999 0.0
H281 H 0.02797 0.94088 0.08028 0.0
H282 H 0.1073 0.64969 0.09984 0.0
H283 H 1.01838 0.62562 0.0911 0.0
H284 H 0.10326 0.62092 0.08342 0.0
H285 H 0.99269 0.97792 0.10012 0.0
H286 H 0.93164 0.9053 0.10425 0.0
H287 H 1.0236 0.92056 0.11247 0.0
H288 H 0.84593 0.70279 0.11944 0.0
H289 H 0.0668 0.74662 0.1389 0.0
H290 H 0.89928 0.6984 0.08903 0.0
H291 H 0.86774 0.79089 0.0935 0.0
H292 H 0.81997 0.70988 0.09801 0.0
H293 H 0.16578 0.75624 0.11257 0.0
H294 H 0.16981 0.78435 0.12901 0.0
H295 H 0.13956 0.84936 0.11779 0.0
C296 C 0.72791 0.68405 0.38983 0.0
C297 C 0.74545 0.76084 0.3929 0.0
C298 C 0.70094 0.65658 0.37762 0.0
C299 C 0.68979 0.70744 0.36836 0.0
C300 C 0.70932 0.78466 0.37134 0.0
C301 C 0.73766 0.81028 0.38355 0.0
C302 C 0.68233 0.5736 0.37472 0.0
C303 C 0.69717 0.84087 0.36176 0.0
C304 C 0.66284 0.64278 0.33386 0.0
C305 C 0.58412 0.64492 0.33132 0.0
C306 C 0.69801 0.65992 0.34599 0.0
C307 C 0.65342 0.68121 0.35573 0.0
C308 C 0.57381 0.68164 0.35326 0.0
C309 C 0.54008 0.66274 0.3411 0.0
C310 C 0.78292 0.65717 0.34833 0.0
C311 C 0.52437 0.7051 0.36336 0.0
H312 H 0.73428 0.64554 0.39701 0.0
H313 H 0.7507 0.86975 0.38588 0.0
H314 H 0.6205 0.5653 0.37244 0.0
H315 H 0.70938 0.55075 0.36646 0.0
H316 H 0.70103 0.54057 0.38264 0.0
H317 H 0.71773 0.89842 0.36547 0.0
H318 H 0.72659 0.82282 0.35352 0.0
H319 H 0.63611 0.84342 0.35854 0.0
H320 H 0.69707 0.62846 0.32634 0.0
H321 H 0.47924 0.66483 0.33917 0.0
H322 H 0.79965 0.62307 0.35619 0.0
H323 H 0.80648 0.71491 0.351 0.0
H324 H 0.80879 0.63293 0.34002 0.0
H325 H 0.53581 0.67002 0.37124 0.0
H326 H 0.46332 0.70008 0.35999 0.0
H327 H 0.5376 0.7645 0.36701 0.0
C328 C 0.54134 0.31453 0.59142 0.0
C329 C 0.52432 0.26417 0.58077 0.0
C330 C 0.5333 0.29232 0.60329 0.0
C331 C 0.50839 0.21791 0.60449 0.0
C332 C 0.49426 0.16605 0.5938 0.0
C333 C 0.50207 0.18992 0.58207 0.0
C334 C 0.54842 0.34926 0.61449 0.0
C335 C 0.46811 0.08607 0.5947 0.0
C336 C 0.52541 0.13945 0.63603 0.0
C337 C 0.45175 0.14826 0.6393 0.0
C338 C 0.54527 0.16281 0.62478 0.0
C339 C 0.49021 0.19596 0.6167 0.0
C340 C 0.41607 0.20559 0.62004 0.0
C341 C 0.39773 0.18141 0.63126 0.0
C342 C 0.62478 0.15141 0.62147 0.0
C343 C 0.35579 0.24097 0.61169 0.0
H344 H 0.55875 0.37195 0.59047 0.0
H345 H 0.48972 0.15038 0.57389 0.0
H346 H 0.49481 0.36233 0.61851 0.0
H347 H 0.58704 0.32577 0.6218 0.0
H348 H 0.57357 0.40265 0.61213 0.0
H349 H 0.46589 0.05107 0.58566 0.0
H350 H 0.50625 0.05914 0.60168 0.0
H351 H 0.41092 0.08633 0.59787 0.0
H352 H 0.56749 0.11416 0.64223 0.0
H353 H 0.34078 0.18893 0.63374 0.0
H354 H 0.65014 0.20599 0.61974 0.0
H355 H 0.624 0.11349 0.61276 0.0
H356 H 0.66146 0.1267 0.62892 0.0
H357 H 0.30156 0.24664 0.61585 0.0
H358 H 0.34548 0.20623 0.60264 0.0
H359 H 0.37491 0.29769 0.60975 0.0
C360 C 0.14591 0.27835 0.87944 0.0
C361 C 0.20364 0.33208 0.88335 0.0
C362 C 0.11081 0.27222 0.86717 0.0
C363 C 0.1337 0.32136 0.85869 0.0
C364 C 0.19427 0.37318 0.86245 0.0
C365 C 0.22868 0.37762 0.8747 0.0
C366 C 0.04726 0.21546 0.86343 0.0
C367 C 0.22052 0.42656 0.85368 0.0
C368 C 0.08796 0.29559 0.82373 0.0
C369 C 0.0315 0.34907 0.82189 0.0
C370 C 0.11812 0.28161 0.83574 0.0
C371 C 0.09187 0.32288 0.84614 0.0
C372 C 0.03142 0.37318 0.84436 0.0
C373 C 1.0016 0.38532 0.83224 0.0
C374 C 0.18138 0.22633 0.83725 0.0
C375 C 1.0019 0.4184 0.85522 0.0
H376 H 0.12635 0.24275 0.88605 0.0
H377 H 0.2735 0.41899 0.87761 0.0
H378 H 0.99307 0.2453 0.86209 0.0
H379 H 0.05538 0.18314 0.85446 0.0
H380 H 0.04264 0.17529 0.87056 0.0
H381 H 0.27041 0.46123 0.8579 0.0
H382 H 0.23523 0.39459 0.84504 0.0
H383 H 0.17419 0.46497 0.85099 0.0
H384 H 0.11081 0.26668 0.81577 0.0
H385 H 0.95784 0.42655 0.83091 0.0
H386 H 0.17249 0.18972 0.84471 0.0
H387 H 0.23552 0.25764 0.84001 0.0
H388 H 0.18665 0.19014 0.8285 0.0
H389 H 0.9896 0.38118 0.86242 0.0
H390 H 0.94987 0.44908 0.85237 0.0
H391 H 0.04564 0.46018 0.85956 0.0
C392 C 0.13879 0.72695 0.02174 0.0
C393 C 0.07078 0.7541 0.01625 0.0
C394 C 0.18063 0.67374 0.01508 0.0
C395 C 0.15448 0.64889 0.00259 0.0
C396 C 0.08498 0.67489 -0.00285 0.0
C397 C 0.04378 0.72641 0.00408 0.0
C398 C 0.25365 0.64618 0.02129 0.0
C399 C 0.05516 0.65045 -0.01619 0.0
C400 C 0.27274 0.58743 0.97697 0.0
C401 C 0.24742 0.51252 0.97404 0.0
C402 C 0.24908 0.63127 -0.01282 0.0
C403 C 0.20012 0.59884 -0.00525 0.0
C404 C 0.18253 0.52081 -0.00721 0.0
C405 C 0.20575 0.4786 0.98237 0.0
C406 C 0.26966 0.71421 -0.011 0.0
C407 C 0.13264 0.48359 0.00093 0.0
H408 H 0.16001 0.74807 0.03115 0.0
H409 H 0.99133 0.74696 -0.00026 0.0
H410 H 0.26008 0.58494 0.01879 0.0
H411 H 0.30177 0.67603 0.01808 0.0
H412 H 0.2572 0.65695 0.03157 0.0
H413 H 1.00012 0.6761 0.98101 0.0
H414 H 0.09624 0.66665 0.97748 0.0
H415 H 0.0479 0.58827 0.98245 0.0
H416 H 0.30709 0.61333 0.97081 0.0
H417 H 0.18604 0.42067 0.98026 0.0
H418 H 0.28607 0.73243 -0.00104 0.0
H419 H 0.21978 0.74719 -0.01412 0.0
H420 H 0.31668 0.72816 -0.01639 0.0
H421 H 0.14691 0.50464 0.01085 0.0
H422 H 0.13765 0.42128 -6e-05 0.0
H423 H 0.07291 0.49745 -0.00175 0.0
C424 C 0.79201 0.63295 0.27517 0.0
C425 C 0.75073 0.68902 0.28116 0.0
C426 C 0.81645 0.64253 0.26355 0.0
C427 C 0.80058 0.71048 0.25804 0.0
C428 C 0.7664 0.77033 0.26475 0.0
C429 C 0.74097 0.7585 0.27619 0.0
C430 C 0.852 0.57701 0.25664 0.0
C431 C 0.75054 0.84441 0.25937 0.0
C432 C 0.89003 0.73437 0.22846 0.0
C433 C 0.83085 0.71049 0.21939 0.0
C434 C 0.88026 0.73775 0.24114 0.0
C435 C 0.81025 0.71475 0.24472 0.0
C436 C 0.74974 0.69214 0.23552 0.0
C437 C 0.7607 0.69092 0.22291 0.0
C438 C 0.94521 0.76405 0.25067 0.0
C439 C 0.67435 0.66655 0.239 0.0
H440 H 0.79849 0.57879 0.27892 0.0
H441 H 0.70883 0.80178 0.28085 0.0
H442 H 0.81109 0.55261 0.24886 0.0
H443 H 0.90256 0.59595 0.25257 0.0
H444 H 0.86861 0.53192 0.26275 0.0
H445 H 0.73757 0.88923 0.26661 0.0
H446 H 0.79932 0.8633 0.25482 0.0
H447 H 0.70126 0.83725 0.25219 0.0
H448 H 0.9443 0.7493 0.22561 0.0
H449 H 0.71548 0.67192 0.2158 0.0
H450 H 0.96536 0.71644 0.25595 0.0
H451 H 0.92643 0.80848 0.25745 0.0
H452 H 0.99335 0.78663 0.24633 0.0
H453 H 0.68194 0.61665 0.24437 0.0
H454 H 0.63304 0.65152 0.23072 0.0
H455 H 0.65021 0.71163 0.24504 0.0
C456 C 0.56416 0.60032 0.44216 0.0
C457 C 0.64124 0.60475 0.44076 0.0
C458 C 0.53967 0.57592 0.45304 0.0
C459 C 0.5938 0.55453 0.46252 0.0
C460 C 0.67106 0.55242 0.46057 0.0
C461 C 0.69376 0.57782 0.44972 0.0
C462 C 0.45678 0.57898 0.45473 0.0
C463 C 0.73058 0.52848 0.47032 0.0
C464 C 0.57162 0.58104 0.49691 0.0
C465 C 0.56276 0.50622 0.49952 0.0
C466 C 0.57641 0.59842 0.48466 0.0
C467 C 0.5718 0.53947 0.47488 0.0
C468 C 0.55686 0.46469 0.47738 0.0
C469 C 0.55263 0.44896 0.48969 0.0
C470 C 0.5917 0.67908 0.48231 0.0
C471 C 0.55065 0.40054 0.46721 0.0
H472 H 0.52351 0.62144 0.43526 0.0
H473 H 0.75326 0.58056 0.44855 0.0
H474 H 0.43882 0.5301 0.4594 0.0
H475 H 0.44614 0.63089 0.46071 0.0
H476 H 0.42131 0.58027 0.44571 0.0
H477 H 0.78711 0.52404 0.46691 0.0
H478 H 0.73459 0.57018 0.47862 0.0
H479 H 0.71495 0.47319 0.47334 0.0
H480 H 0.57928 0.62532 0.5045 0.0
H481 H 0.54429 0.39116 0.4917 0.0
H482 H 0.55282 0.69534 0.47438 0.0
H483 H 0.65011 0.68478 0.4798 0.0
H484 H 0.58538 0.71912 0.49059 0.0
H485 H 0.51313 0.41556 0.45903 0.0
H486 H 0.52867 0.34788 0.47038 0.0
H487 H 0.60719 0.38933 0.46411 0.0
C488 C 0.73966 0.30064 0.74518 0.0
C489 C 0.80448 0.2773 0.75209 0.0
C490 C 0.7113 0.25967 0.73395 0.0
C491 C 0.75067 0.19589 0.72937 0.0
C492 C 0.81525 0.17134 0.7365 0.0
C493 C 0.84083 0.21194 0.74786 0.0
C494 C 0.64054 0.28587 0.72681 0.0
C495 C 0.85993 0.10494 0.73186 0.0
C496 C 0.6434 0.06795 0.70348 0.0
C497 C 0.66024 0.10202 0.69292 0.0
C498 C 0.67403 0.09636 0.71544 0.0
C499 C 0.7261 0.15761 0.71682 0.0
C500 C 0.7504 0.18611 0.70613 0.0
C501 C 0.71671 0.1584 0.69429 0.0
C502 C 0.64643 0.06454 0.72659 0.0
C503 C 0.80795 0.24969 0.70721 0.0
H504 H 0.71206 0.35147 0.74847 0.0
H505 H 0.89175 0.19479 0.75316 0.0
H506 H 0.65447 0.30606 0.71795 0.0
H507 H 0.59939 0.23828 0.72441 0.0
H508 H 0.61315 0.33222 0.73214 0.0
H509 H 0.90408 0.08859 0.73908 0.0
H510 H 0.82226 0.0555 0.72872 0.0
H511 H 0.88778 0.11953 0.72371 0.0
H512 H 0.60198 1.02255 0.7025 0.0
H513 H 0.7311 0.18458 0.68621 0.0
H514 H 0.61946 0.1095 0.73227 0.0
H515 H 0.69466 0.04397 0.73259 0.0
H516 H 0.60496 1.01742 0.72392 0.0
H517 H 0.78242 0.30272 0.71083 0.0
H518 H 0.82817 0.25843 0.69811 0.0
H519 H 0.85718 0.23839 0.71388 0.0
C520 C 0.28164 0.30365 0.77972 0.0
C521 C 0.27024 0.37702 0.77622 0.0
C522 C 0.31715 0.24993 0.77215 0.0
C523 C 0.34135 0.27054 0.76093 0.0
C524 C 0.34121 0.3473 0.75852 0.0
C525 C 0.30589 0.39988 0.76627 0.0
C526 C 0.31978 0.16942 0.77539 0.0
C527 C 0.36859 0.3722 0.74683 0.0
C528 C 0.4243 0.14665 0.73576 0.0
C529 C 0.35965 0.13044 0.72733 0.0
C530 C 0.41919 0.18691 0.74736 0.0
C531 C 0.34792 0.21224 0.75044 0.0
C532 C 0.28199 0.19023 0.74237 0.0
C533 C 0.28872 0.14921 0.73095 0.0
C534 C 0.49074 0.20673 0.7558 0.0
C535 C 0.2046 0.21499 0.74535 0.0
H536 H 0.25599 0.28572 0.78761 0.0
H537 H 0.29923 0.45709 0.76374 0.0
H538 H 0.26854 0.13835 0.77082 0.0
H539 H 0.36989 0.14049 0.77211 0.0
H540 H 0.32085 0.16656 0.78558 0.0
H541 H 0.37399 0.43453 0.74716 0.0
H542 H 0.42407 0.34744 0.74531 0.0
H543 H 0.32798 0.3521 0.7387 0.0
H544 H 0.47945 0.1324 0.73298 0.0
H545 H 0.23866 0.13538 0.72453 0.0
H546 H 0.53382 0.16277 0.75454 0.0
H547 H 0.4803 0.21369 0.76573 0.0
H548 H 0.51464 0.26052 0.7534 0.0
H549 H 0.19494 0.20011 0.75473 0.0
H550 H 0.15882 0.18864 0.73854 0.0
H551 H 0.20085 0.27715 0.7454 0.0
C552 C 0.2268 0.6404 0.18171 0.0
C553 C 0.14929 0.63942 0.18299 0.0
C554 C 0.28044 0.63411 0.19204 0.0
C555 C 0.25571 0.62724 0.20387 0.0
C556 C 0.17767 0.62333 0.20508 0.0
C557 C 0.12578 0.6293 0.19467 0.0
C558 C 0.36335 0.63772 0.19041 0.0
C559 C 0.14858 0.61648 0.21752 0.0
C560 C 0.37472 0.56598 0.23207 0.0
C561 C 0.38984 0.63523 0.23918 0.0
C562 C 0.33542 0.56265 0.22012 0.0
C563 C 0.31009 0.63012 0.21526 0.0
C564 C 0.32812 0.70036 0.2222 0.0
C565 C 0.36785 0.70204 0.23406 0.0
C566 C 0.31784 0.4868 0.21295 0.0
C567 C 0.30148 0.77357 0.21741 0.0
H568 H 0.24563 0.64806 0.17274 0.0
H569 H 0.06648 0.62894 0.19587 0.0
H570 H 0.38831 0.69163 0.19505 0.0
H571 H 0.39354 0.59143 0.19487 0.0
H572 H 0.37336 0.63398 0.18045 0.0
H573 H 0.08612 0.61028 0.21674 0.0
H574 H 0.17364 0.56716 0.22183 0.0
H575 H 0.16557 0.66737 0.22392 0.0
H576 H 0.39281 0.51429 0.23591 0.0
H577 H 0.3789 0.75569 0.23955 0.0
H578 H 0.33056 0.48775 0.20319 0.0
H579 H 0.25676 0.47344 0.21271 0.0
H580 H 0.35022 0.44098 0.2172 0.0
H581 H 0.31582 0.77684 0.20779 0.0
H582 H 0.32662 0.82353 0.22334 0.0
H583 H 0.23914 0.77618 0.21714 0.0
C584 C 0.6958 0.92589 0.49117 0.0
C585 C 0.74771 0.95414 0.48382 0.0
C586 C 0.6811 0.96541 0.5024 0.0
C587 C 0.71908 0.0349 0.50634 0.0
C588 C 0.77389 0.06211 0.49924 0.0
C589 C 0.78748 1.0214 0.48804 0.0
C590 C 0.62209 0.93472 0.50969 0.0
C591 C 0.81567 0.13597 0.50317 0.0
C592 C 0.61821 0.18473 0.5249 0.0
C593 C 0.65569 0.18321 0.5369 0.0
C594 C 0.63752 0.13578 0.51497 0.0
C595 C 0.69546 0.08332 0.51707 0.0
C596 C 0.73187 0.0794 0.52922 0.0
C597 C 0.7116 0.12963 0.53902 0.0
C598 C 0.59735 0.14195 0.50214 0.0
C599 C 0.79362 1.02377 0.53178 0.0
H600 H 0.66429 0.8743 0.4879 0.0
H601 H 0.82848 0.0428 0.48249 0.0
H602 H 0.64374 0.93577 0.51967 0.0
H603 H 0.5717 0.97086 0.50908 0.0
H604 H 0.60422 0.87609 0.50616 0.0
H605 H 0.86127 0.14574 0.49725 0.0
H606 H 0.77557 0.18311 0.50259 0.0
H607 H 0.84075 0.13748 0.51298 0.0
H608 H 0.57481 0.22569 0.52314 0.0
H609 H 0.74092 0.12818 0.54826 0.0
H610 H 0.57214 0.08658 0.49823 0.0
H611 H 0.63839 0.15825 0.49581 0.0
H612 H 0.55196 0.18428 0.50217 0.0
H613 H 0.77384 0.96591 0.52817 0.0
H614 H 0.81271 1.02434 0.54186 0.0
H615 H 0.84275 0.03729 0.52685 0.0
C616 C 0.98883 0.13708 -0.01351 0.0
C617 C 0.98765 0.06088 -0.01136 0.0
C618 C 0.99904 0.15855 0.97465 0.0
C619 C 1.00774 0.10227 0.96481 0.0
C620 C 0.9994 1.02534 0.96671 0.0
C621 C 0.98982 1.00556 0.97864 0.0
C622 C 1.00724 0.24128 0.97297 0.0
C623 C 1.00737 0.96366 0.95646 0.0
C624 C 1.02041 0.16605 0.9326 0.0
C625 C 0.09874 0.17519 0.9327 0.0
C626 C 0.98942 0.14068 0.94288 0.0
C627 C 0.03815 0.12329 0.95335 0.0
C628 C 0.11736 0.12868 0.95317 0.0
C629 C 0.14658 0.15472 0.94285 0.0
C630 C 0.90478 0.13528 0.94274 0.0
C631 C 0.17143 0.11038 0.96411 0.0
H632 H 0.98737 0.17978 -0.00575 0.0
H633 H 0.98816 0.94653 0.98031 0.0
H634 H 0.06746 0.25517 0.97234 0.0
H635 H 0.97477 0.25492 0.9642 0.0
H636 H 0.98788 0.27768 0.98084 0.0
H637 H 0.06775 0.95843 0.95492 0.0
H638 H 0.98664 0.90826 0.95878 0.0
H639 H 0.97604 0.97734 0.9476 0.0
H640 H 0.98323 0.183 0.92483 0.0
H641 H 0.20712 0.16192 0.94293 0.0
H642 H 0.88648 0.16982 0.95087 0.0
H643 H 0.88742 0.07612 0.9435 0.0
H644 H 0.8747 0.1544 0.93413 0.0
H645 H 0.16317 0.1498 0.97236 0.0
H646 H 0.23135 0.11457 0.96225 0.0
H647 H 0.16003 0.0525 0.96651 0.0
C648 C 0.66569 0.87663 0.03236 0.0
C649 C 0.72124 0.91759 0.0404 0.0
C650 C 0.58875 0.89149 0.03283 0.0
C651 C 0.56666 0.94719 0.04184 0.0
C652 C 0.62273 0.98854 0.05004 0.0
C653 C 0.69952 0.97398 0.04909 0.0
C654 C 0.53117 0.84767 0.02366 0.0
C655 C 0.60155 0.04702 0.05997 0.0
C656 C 0.37185 0.03214 0.03669 0.0
C657 C 0.32925 0.98847 0.0436 0.0
C658 C 0.44894 1.01902 0.03597 0.0
C659 C 0.48487 0.96214 0.04261 0.0
C660 C 0.44216 0.91845 0.04973 0.0
C661 C 0.36455 0.93141 0.04999 0.0
C662 C 0.49164 0.06527 0.02795 0.0
C663 C 0.47858 0.85845 0.05717 0.0
H664 H 0.68285 0.83335 0.0256 0.0
H665 H 0.74263 1.0049 0.05539 0.0
H666 H 0.49349 0.81442 0.02868 0.0
H667 H 0.49521 0.88707 0.01843 0.0
H668 H 0.55783 0.80854 0.01692 0.0
H669 H 0.65178 0.07314 0.06577 0.0
H670 H 0.56864 0.09211 0.05565 0.0
H671 H 0.56499 1.02082 0.06611 0.0
H672 H 0.34425 0.07568 0.03163 0.0
H673 H 0.33162 0.89814 0.05541 0.0
H674 H 0.51627 1.02755 0.02078 0.0
H675 H 0.53913 0.09644 0.03369 0.0
H676 H 0.45513 0.10647 0.02322 0.0
H677 H 0.50139 0.81389 0.05086 0.0
H678 H 0.43836 0.83185 0.06268 0.0
H679 H 0.52679 0.88325 0.06361 0.0
C680 C 0.55834 0.31937 0.30213 0.0
C681 C 0.56679 0.33997 0.29018 0.0
C682 C 0.54823 0.24322 0.30427 0.0
C683 C 0.54606 0.18613 0.29422 0.0
C684 C 0.55425 0.2067 0.28215 0.0
C685 C 0.56439 0.28296 0.28029 0.0
C686 C 0.53984 0.22378 0.31729 0.0
C687 C 0.55162 0.14809 0.27113 0.0
C688 C 0.58131 0.97965 0.29953 0.0
C689 C 0.50769 0.94893 0.29808 0.0
C690 C 0.59463 0.05694 0.29862 0.0
C691 C 0.53297 0.10504 0.29616 0.0
C692 C 0.45859 0.07462 0.29483 0.0
C693 C 0.44693 0.99731 0.29579 0.0
C694 C 0.67484 0.08695 0.30011 0.0
C695 C 0.39115 0.12344 0.29209 0.0
H696 H 0.5607 0.36271 0.30984 0.0
H697 H 0.56929 0.29796 0.27098 0.0
H698 H 0.48444 0.19536 0.31751 0.0
H699 H 0.58408 0.18371 0.32021 0.0
H700 H 0.54407 0.27436 0.32413 0.0
H701 H 0.56034 0.17308 0.26238 0.0
H702 H 0.59563 0.10554 0.27284 0.0
H703 H 0.49623 0.11792 0.26983 0.0
H704 H 0.62867 0.94333 0.30144 0.0
H705 H 0.38987 0.97454 0.29443 0.0
H706 H 0.6817 0.13489 0.30744 0.0
H707 H 0.68809 0.10858 0.29132 0.0
H708 H 0.71637 0.04321 0.30258 0.0
H709 H 0.39226 0.17252 0.29918 0.0
H710 H 0.33683 0.09211 0.29192 0.0
H711 H 0.39335 0.14583 0.28294 0.0
C712 C 0.20898 0.39581 0.53765 0.0
C713 C 0.26579 0.38331 0.54716 0.0
C714 C 0.13353 0.40536 0.54005 0.0
C715 C 0.11375 0.40125 0.55226 0.0
C716 C 0.17096 0.38911 0.56195 0.0
C717 C 0.24638 0.38095 0.5593 0.0
C718 C 0.07488 0.41963 0.52947 0.0
C719 C 0.15229 0.3834 0.57506 0.0
C720 C 0.92772 0.48844 0.56005 0.0
C721 C 0.87821 0.42574 0.55825 0.0
C722 C 1.00451 0.48119 0.55828 0.0
C723 C 0.03308 0.40928 0.55479 0.0
C724 C 0.98364 0.34553 0.55319 0.0
C725 C 0.90684 0.35461 0.55485 0.0
C726 C 0.0547 0.55085 0.55988 0.0
C727 C 1.01175 0.26769 0.54963 0.0
H728 H 0.22379 0.39875 0.52829 0.0
H729 H 0.28993 0.3706 0.56666 0.0
H730 H 0.03167 0.3736 0.52808 0.0
H731 H 0.04545 0.4729 0.53177 0.0
H732 H 0.09977 0.42344 0.5206 0.0
H733 H 0.20311 0.37395 0.58154 0.0
H734 H 0.12502 0.43575 0.57853 0.0
H735 H 0.11141 0.33624 0.57519 0.0
H736 H 0.90593 0.54368 0.56253 0.0
H737 H 0.86921 0.30581 0.5536 0.0
H738 H 0.07714 0.55932 0.55095 0.0
H739 H 0.10381 0.54379 0.56682 0.0
H740 H 1.02438 0.60234 0.56293 0.0
H741 H 0.03277 0.26577 0.54036 0.0
H742 H 0.96705 0.2235 0.54932 0.0
H743 H 0.05981 0.25419 0.55637 0.0
C744 C 1.01245 0.03947 0.77101 0.0
C745 C 0.06913 0.08877 0.77711 0.0
C746 C 1.01004 0.96313 0.7733 0.0
C747 C 0.0669 0.93467 0.78167 0.0
C748 C 0.12513 0.98413 0.78769 0.0
C749 C 0.12489 0.06081 0.78547 0.0
C750 C 0.9458 0.9133 0.76694 0.0
C751 C 0.18787 0.956 0.79643 0.0
C752 C 0.02702 0.75712 0.79719 0.0
C753 C 0.0595 0.70091 0.78966 0.0
C754 C 0.02797 0.83296 0.79458 0.0
C755 C 0.0642 0.85375 0.78436 0.0
C756 C 0.09741 0.7971 0.77675 0.0
C757 C 0.09377 0.72125 0.77939 0.0
C758 C 0.99001 0.89084 0.80275 0.0
C759 C 0.13812 0.81686 0.76595 0.0
H760 H 0.96886 0.06129 0.76464 0.0
H761 H 0.16907 0.09883 0.79008 0.0
H762 H 0.96808 0.86499 0.76133 0.0
H763 H 0.91415 0.88978 0.77401 0.0
H764 H 0.90592 0.94415 0.76074 0.0
H765 H 0.23105 1.00056 0.79983 0.0
H766 H 0.16435 0.93523 0.80456 0.0
H767 H 0.21586 0.90783 0.79168 0.0
H768 H 1.00018 0.74135 0.80509 0.0
H769 H 0.11984 0.67806 0.77367 0.0
H770 H 0.9473 0.92123 0.797 0.0
H771 H 0.03218 0.93332 0.80737 0.0
H772 H 0.96179 0.86513 0.81002 0.0
H773 H 0.09897 0.84421 0.75918 0.0
H774 H 0.16207 0.76658 0.76106 0.0
H775 H 0.18462 0.85793 0.76931 0.0
C776 C 0.89968 0.37232 0.93204 0.0
C777 C 0.92173 0.40378 0.92154 0.0
C778 C 0.82294 0.35759 0.93325 0.0
C779 C 0.76638 0.37435 0.92375 0.0
C780 C 0.78817 0.4067 0.91321 0.0
C781 C 0.86499 0.42082 0.91224 0.0
C782 C 0.80244 0.32316 0.94466 0.0
C783 C 0.73029 0.42481 0.90277 0.0
C784 C 0.57732 0.26757 0.91901 0.0
C785 C 0.52788 0.3206 0.92396 0.0
C786 C 0.6549 0.28367 0.91918 0.0
C787 C 0.68476 0.35487 0.9244 0.0
C788 C 0.63557 0.40853 0.92954 0.0
C789 C 0.55794 0.39089 0.92923 0.0
C790 C 0.70473 0.22478 0.91352 0.0
C791 C 0.66487 0.485 0.93524 0.0
H792 H 0.9423 0.35919 0.93934 0.0
H793 H 0.88042 0.44351 0.90395 0.0
H794 H 0.76095 0.35881 0.94928 0.0
H795 H 0.77526 0.26701 0.94191 0.0
H796 H 0.85243 0.31643 0.95146 0.0
H797 H 0.75591 0.45256 0.89543 0.0
H798 H 0.70086 0.37225 0.89844 0.0
H799 H 0.68694 0.46241 0.90645 0.0
H800 H 0.55521 0.21356 0.91472 0.0
H801 H 0.52088 0.43205 0.93322 0.0
H802 H 0.75291 0.21317 0.92037 0.0
H803 H 0.72855 0.24607 0.90545 0.0
H804 H 0.6737 0.17096 0.91034 0.0
H805 H 0.71204 0.47857 0.94257 0.0
H806 H 0.6204 0.51914 0.93938 0.0
H807 H 0.68753 0.5164 0.92805 0.0
C808 C 1.01583 0.03734 0.16582 0.0
C809 C 0.95515 0.99247 0.16823 0.0
C810 C 1.00601 0.11337 0.16364 0.0
C811 C 0.93424 0.14613 0.16435 0.0
C812 C 0.8726 0.10064 0.16673 0.0
C813 C 0.8836 1.02396 0.16844 0.0
C814 C 0.07266 0.1588 0.16072 0.0
C815 C 0.79568 0.13358 0.16791 0.0
C816 C 0.93035 0.35936 0.17202 0.0
C817 C 0.9032 0.38386 0.16052 0.0
C818 C 0.9399 0.2822 0.17342 0.0
C819 C 0.92426 0.22837 0.16298 0.0
C820 C 0.8989 0.2533 0.15125 0.0
C821 C 0.88739 0.3306 0.15023 0.0
C822 C 0.96504 0.25817 0.18616 0.0
C823 C 0.8841 0.19835 0.13979 0.0
H824 H 0.07106 1.01254 0.16564 0.0
H825 H 0.83708 0.9892 0.17046 0.0
H826 H 0.05782 0.18653 0.15207 0.0
H827 H 0.08787 0.204 0.16832 0.0
H828 H 0.12295 0.12354 0.15954 0.0
H829 H 0.75368 0.09073 0.16976 0.0
H830 H 0.79969 0.17941 0.17561 0.0
H831 H 0.77475 0.15888 0.15928 0.0
H832 H 0.94155 0.40059 0.18 0.0
H833 H 0.86668 0.3498 0.14133 0.0
H834 H 1.01902 0.22781 0.186 0.0
H835 H 0.92263 0.21853 0.18885 0.0
H836 H 0.97289 0.30676 0.19338 0.0
H837 H 0.93507 0.16449 0.13846 0.0
H838 H 0.86834 0.22713 0.13127 0.0
H839 H 0.83784 0.15847 0.14096 0.0
C840 C 0.08291 0.79936 0.42344 0.0
C841 C 0.0587 0.78349 0.43479 0.0
C842 C 0.15996 0.81234 0.42236 0.0
C843 C 0.21369 0.81163 0.43297 0.0
C844 C 0.18877 0.79834 0.44455 0.0
C845 C 0.11187 0.78335 0.44527 0.0
C846 C 0.18418 0.82422 0.40978 0.0
C847 C 0.24346 0.79915 0.45617 0.0
C848 C 0.42009 0.77071 0.42906 0.0
C849 C 0.4523 0.84329 0.43009 0.0
C850 C 0.34253 0.75961 0.42982 0.0
C851 C 0.2961 0.82273 0.43194 0.0
C852 C 0.32876 0.89624 0.4332 0.0
C853 C 0.40621 0.90563 0.43209 0.0
C854 C 0.31018 0.68031 0.42819 0.0
C855 C 0.28199 0.96495 0.4358 0.0
H856 H 0.04184 0.79856 0.41533 0.0
H857 H 0.09293 0.77154 0.45406 0.0
H858 H 0.21527 0.87873 0.4102 0.0
H859 H 0.22333 0.77915 0.40701 0.0
H860 H 0.13554 0.8238 0.40247 0.0
H861 H 0.21439 0.79303 0.46459 0.0
H862 H 0.28375 0.75248 0.45516 0.0
H863 H 0.27694 0.85262 0.4576 0.0
H864 H 0.45536 0.72271 0.42724 0.0
H865 H 0.43117 0.96177 0.43293 0.0
H866 H 0.26179 0.67557 0.42082 0.0
H867 H 0.28863 0.66647 0.43694 0.0
H868 H 0.35265 0.63787 0.42569 0.0
H869 H 0.23615 0.96835 0.42814 0.0
H870 H 0.3162 1.01801 0.43685 0.0
H871 H 0.25487 0.96047 0.44445 0.0
C872 C 0.35893 0.73549 0.66848 0.0
C873 C 0.41976 0.78626 0.66851 0.0
C874 C 0.37057 0.65898 0.67005 0.0
C875 C 0.445 0.63191 0.67175 0.0
C876 C 0.5068 0.6824 0.67165 0.0
C877 C 0.49347 0.75891 0.67005 0.0
C878 C 0.303 0.60742 0.67019 0.0
C879 C 0.58703 0.65576 0.6734 0.0
C880 C 0.47058 0.45636 0.68909 0.0
C881 C 0.47316 0.39894 0.67938 0.0
C882 C 0.46297 0.53222 0.68673 0.0
C883 C 0.45765 0.55175 0.67433 0.0
C884 C 0.46079 0.49428 0.66447 0.0
C885 C 0.46832 0.41861 0.6671 0.0
C886 C 0.45925 0.5914 0.69753 0.0
C887 C 0.4555 0.51266 0.65112 0.0
H888 H 0.30177 0.75579 0.66754 0.0
H889 H 0.54082 0.79726 0.66996 0.0
H890 H 0.30531 0.55813 0.66322 0.0
H891 H 0.30379 0.58554 0.67943 0.0
H892 H 0.24875 0.63639 0.66817 0.0
H893 H 0.62876 0.70109 0.67252 0.0
H894 H 0.59879 0.63522 0.68274 0.0
H895 H 0.59517 0.60773 0.66644 0.0
H896 H 0.47302 0.44191 0.69858 0.0
H897 H 0.47116 0.3749 0.65956 0.0
H898 H 0.40381 0.61935 0.69666 0.0
H899 H 0.50334 0.63559 0.69742 0.0
H900 H 0.467 0.56735 0.70664 0.0
H901 H 0.40007 0.53796 0.64853 0.0
H902 H 0.46198 0.46205 0.64456 0.0
H903 H 0.49967 0.55498 0.64999 0.0
loop_
_geom_bond_atom_site_label_1
_geom_bond_atom_site_label_2
_geom_bond_distance
_geom_bond_site_symmetry_2
_ccdc_geom_bond_type
C0 C1 1.351 . S
C0 N3 1.368 . S
C0 H5 0.931 . S
C1 C0 1.351 . S
C1 N2 1.373 . S
C1 H29 0.930 . S
N2 C1 1.373 . S
N2 C4 1.340 . S
N3 C0 1.368 . S
N3 C4 1.321 . S
N3 Co6 2.135 . S
C4 N2 1.340 . S
C4 N3 1.321 . S
C4 H28 0.930 . S
H5 C0 0.931 . S
Co6 N3 2.135 . S
Co6 N9 2.121 1_455 S
Co6 O14 2.055 . S
Co6 O17 2.039 . S
Co6 N20 2.140 . S
C7 O8 1.227 . S
C7 O17 1.265 . S
O8 C7 1.227 . S
N9 Co6 2.121 1_655 S
N9 C11 1.375 . S
N9 C12 1.313 . S
C10 C11 1.338 . S
C10 N13 1.377 . S
C10 H30 0.930 . S
C11 N9 1.375 . S
C11 C10 1.338 . S
C11 H15 0.931 . S
C12 N9 1.313 . S
C12 N13 1.344 . S
C12 H16 0.930 . S
N13 C10 1.377 . S
N13 C12 1.344 . S
O14 Co6 2.055 . S
O14 C18 1.253 . S
H15 C11 0.931 . S
H16 C12 0.930 . S
O17 Co6 2.039 . S
O17 C7 1.265 . S
C18 O14 1.253 . S
C18 O19 1.227 . S
O19 C18 1.227 . S
N20 Co6 2.140 . S
N20 C23 1.346 . S
N20 C24 1.345 1_455 S
C21 C22 1.387 . S
C21 C25 1.391 1_455 S
C22 C21 1.387 . S
C22 C23 1.369 . S
C22 H31 0.929 . S
C23 N20 1.346 . S
C23 C22 1.369 . S
C23 H26 0.928 . S
C24 N20 1.345 1_655 S
C24 C25 1.371 . S
C24 H27 0.931 . S
C25 C21 1.391 1_655 S
C25 C24 1.371 . S
C25 H32 0.930 . S
H26 C23 0.928 . S
H27 C24 0.931 . S
H28 C4 0.930 . S
H29 C1 0.930 . S
H30 C10 0.930 . S
H31 C22 0.929 . S
H32 C25 0.930 . S
C33 C34 1.351 . S
C33 N36 1.368 . S
C33 H38 0.931 . S
C34 C33 1.351 . S
C34 N35 1.373 . S
C34 H62 0.930 . S
N35 C34 1.373 . S
N35 C37 1.340 . S
N36 C33 1.368 . S
N36 C37 1.321 . S
N36 Co39 2.135 . S
C37 N35 1.340 . S
C37 N36 1.321 . S
C37 H61 0.930 . S
H38 C33 0.931 . S
Co39 N36 2.135 . S
Co39 N42 2.121 . S
Co39 O47 2.055 . S
Co39 O50 2.039 . S
Co39 N53 2.140 . S
C40 O41 1.227 . S
C40 O50 1.265 . S
O41 C40 1.227 . S
N42 Co39 2.121 . S
N42 C44 1.375 . S
N42 C45 1.313 . S
C43 C44 1.338 . S
C43 N46 1.377 . S
C43 H63 0.930 . S
C44 N42 1.375 . S
C44 C43 1.338 . S
C44 H48 0.931 . S
C45 N42 1.313 . S
C45 N46 1.344 . S
C45 H49 0.930 . S
N46 C43 1.377 . S
N46 C45 1.344 . S
O47 Co39 2.055 . S
O47 C51 1.253 . S
H48 C44 0.931 . S
H49 C45 0.930 . S
O50 Co39 2.039 . S
O50 C40 1.265 . S
C51 O47 1.253 . S
C51 O52 1.227 . S
O52 C51 1.227 . S
N53 Co39 2.140 . S
N53 C56 1.346 . S
N53 C57 1.345 . S
C54 C55 1.387 . S
C54 C58 1.391 . S
C55 C54 1.387 . S
C55 C56 1.369 . S
C55 H64 0.929 . S
C56 N53 1.346 . S
C56 C55 1.369 . S
C56 H59 0.928 . S
C57 N53 1.345 . S
C57 C58 1.371 . S
C57 H60 0.931 . S
C58 C54 1.391 . S
C58 C57 1.371 . S
C58 H65 0.930 . S
H59 C56 0.928 . S
H60 C57 0.931 . S
H61 C37 0.930 . S
H62 C34 0.930 . S
H63 C43 0.930 . S
H64 C55 0.929 . S
H65 C58 0.930 . S
C66 C67 1.351 . S
C66 N69 1.368 . S
C66 H71 0.931 . S
C67 C66 1.351 . S
C67 N68 1.373 . S
C67 H95 0.930 . S
N68 C67 1.373 . S
N68 C70 1.340 . S
N69 C66 1.368 . S
N69 C70 1.321 . S
N69 Co72 2.135 . S
C70 N68 1.340 . S
C70 N69 1.321 . S
C70 H94 0.930 . S
H71 C66 0.931 . S
Co72 N69 2.135 . S
Co72 N75 2.121 . S
Co72 O80 2.055 . S
Co72 O83 2.039 . S
Co72 N86 2.140 . S
C73 O74 1.227 . S
C73 O83 1.265 . S
O74 C73 1.227 . S
N75 Co72 2.121 . S
N75 C77 1.375 . S
N75 C78 1.313 . S
C76 C77 1.338 . S
C76 N79 1.377 . S
C76 H96 0.930 . S
C77 N75 1.375 . S
C77 C76 1.338 . S
C77 H81 0.931 . S
C78 N75 1.313 . S
C78 N79 1.344 . S
C78 H82 0.930 . S
N79 C76 1.377 . S
N79 C78 1.344 . S
O80 Co72 2.055 . S
O80 C84 1.253 . S
H81 C77 0.931 . S
H82 C78 0.930 . S
O83 Co72 2.039 . S
O83 C73 1.265 . S
C84 O80 1.253 . S
C84 O85 1.227 . S
O85 C84 1.227 . S
N86 Co72 2.140 . S
N86 C89 1.346 . S
N86 C90 1.345 . S
C87 C88 1.387 . S
C87 C91 1.391 . S
C88 C87 1.387 . S
C88 C89 1.369 . S
C88 H97 0.929 . S
C89 N86 1.346 . S
C89 C88 1.369 . S
C89 H92 0.928 . S
C90 N86 1.345 . S
C90 C91 1.371 . S
C90 H93 0.931 . S
C91 C87 1.391 . S
C91 C90 1.371 . S
C91 H98 0.930 . S
H92 C89 0.928 . S
H93 C90 0.931 . S
H94 C70 0.930 . S
H95 C67 0.930 . S
H96 C76 0.930 . S
H97 C88 0.929 . S
H98 C91 0.930 . S
C99 C100 1.351 . S
C99 N102 1.368 . S
C99 H104 0.931 . S
C100 C99 1.351 . S
C100 N101 1.373 . S
C100 H128 0.930 . S
N101 C100 1.373 . S
N101 C103 1.340 . S
N102 C99 1.368 . S
N102 C103 1.321 . S
N102 Co105 2.135 . S
C103 N101 1.340 . S
C103 N102 1.321 . S
C103 H127 0.930 . S
H104 C99 0.931 . S
Co105 N102 2.135 . S
Co105 N108 2.121 . S
Co105 O113 2.055 . S
Co105 O116 2.039 . S
Co105 N119 2.140 . S
C106 O107 1.227 . S
C106 O116 1.265 . S
O107 C106 1.227 . S
N108 Co105 2.121 . S
N108 C110 1.375 . S
N108 C111 1.313 . S
C109 C110 1.338 . S
C109 N112 1.377 . S
C109 H129 0.930 1_545 S
C110 N108 1.375 . S
C110 C109 1.338 . S
C110 H114 0.931 . S
C111 N108 1.313 . S
C111 N112 1.344 . S
C111 H115 0.930 . S
N112 C109 1.377 . S
N112 C111 1.344 . S
O113 Co105 2.055 . S
O113 C117 1.253 . S
H114 C110 0.931 . S
H115 C111 0.930 . S
O116 Co105 2.039 . S
O116 C106 1.265 . S
C117 O113 1.253 . S
C117 O118 1.227 . S
O118 C117 1.227 . S
N119 Co105 2.140 . S
N119 C122 1.347 . S
N119 C123 1.345 1_455 S
C120 C121 1.387 . S
C120 C124 1.391 . S
C121 C120 1.387 . S
C121 C122 1.361 1_655 S
C121 H130 0.929 . S
C122 N119 1.347 . S
C122 C121 1.361 1_455 S
C122 H125 0.935 . S
C123 N119 1.345 1_655 S
C123 C124 1.371 . S
C123 H126 0.931 . S
C124 C120 1.391 . S
C124 C123 1.371 . S
C124 H131 0.930 . S
H125 C122 0.935 . S
H126 C123 0.931 . S
H127 C103 0.930 . S
H128 C100 0.930 . S
H129 C109 0.930 1_565 S
H130 C121 0.929 . S
H131 C124 0.930 . S
C132 C133 1.351 . S
C132 N135 1.368 . S
C132 H137 0.931 . S
C133 C132 1.351 . S
C133 N134 1.373 . S
C133 H161 0.930 . S
N134 C133 1.373 . S
N134 C136 1.340 . S
N135 C132 1.368 . S
N135 C136 1.321 . S
N135 Co138 2.135 1_655 S
C136 N134 1.340 . S
C136 N135 1.321 . S
C136 H160 0.930 . S
H137 C132 0.931 . S
Co138 N135 2.135 1_455 S
Co138 N141 2.121 . S
Co138 O146 2.055 . S
Co138 O149 2.039 . S
Co138 N152 2.140 . S
C139 O140 1.227 . S
C139 O149 1.265 . S
O140 C139 1.227 . S
N141 Co138 2.121 . S
N141 C143 1.375 . S
N141 C144 1.313 . S
C142 C143 1.338 . S
C142 N145 1.377 . S
C142 H162 0.930 . S
C143 N141 1.375 . S
C143 C142 1.338 . S
C143 H147 0.931 . S
C144 N141 1.313 . S
C144 N145 1.344 . S
C144 H148 0.930 . S
N145 C142 1.377 . S
N145 C144 1.344 . S
O146 Co138 2.055 . S
O146 C150 1.253 . S
H147 C143 0.931 . S
H148 C144 0.930 . S
O149 Co138 2.039 . S
O149 C139 1.265 . S
C150 O146 1.253 . S
C150 O151 1.227 . S
O151 C150 1.227 . S
N152 Co138 2.140 . S
N152 C155 1.346 . S
N152 C156 1.345 . S
C153 C154 1.387 . S
C153 C157 1.391 . S
C154 C153 1.387 . S
C154 C155 1.369 . S
C154 H163 0.929 1_455 S
C155 N152 1.346 . S
C155 C154 1.369 . S
C155 H158 0.928 1_455 S
C156 N152 1.345 . S
C156 C157 1.371 . S
C156 H159 0.931 . S
C157 C153 1.391 . S
C157 C156 1.371 . S
C157 H164 0.930 . S
H158 C155 0.928 1_655 S
H159 C156 0.931 . S
H160 C136 0.930 . S
H161 C133 0.930 . S
H162 C142 0.930 . S
H163 C154 0.929 1_655 S
H164 C157 0.930 . S
C165 C166 1.351 . S
C165 N168 1.368 1_655 S
C165 H170 0.931 . S
C166 C165 1.351 . S
C166 N167 1.373 1_655 S
C166 H194 0.930 . S
N167 C166 1.373 1_455 S
N167 C169 1.340 . S
N168 C165 1.368 1_455 S
N168 C169 1.321 . S
N168 Co171 2.135 . S
C169 N167 1.340 . S
C169 N168 1.321 . S
C169 H193 0.930 . S
H170 C165 0.931 . S
Co171 N168 2.135 . S
Co171 N174 2.121 . S
Co171 O179 2.055 . S
Co171 O182 2.039 . S
Co171 N185 2.140 1_455 S
C172 O173 1.227 . S
C172 O182 1.265 . S
O173 C172 1.227 . S
N174 Co171 2.121 . S
N174 C176 1.375 . S
N174 C177 1.313 . S
C175 C176 1.338 . S
C175 N178 1.377 . S
C175 H195 0.930 1_565 S
C176 N174 1.375 . S
C176 C175 1.338 . S
C176 H180 0.931 . S
C177 N174 1.313 . S
C177 N178 1.344 . S
C177 H181 0.930 . S
N178 C175 1.377 . S
N178 C177 1.344 . S
O179 Co171 2.055 . S
O179 C183 1.253 . S
H180 C176 0.931 . S
H181 C177 0.930 . S
O182 Co171 2.039 . S
O182 C172 1.265 . S
C183 O179 1.253 . S
C183 O184 1.227 1_455 S
O184 C183 1.227 1_655 S
N185 Co171 2.140 1_655 S
N185 C188 1.346 . S
N185 C189 1.345 . S
C186 C187 1.387 . S
C186 C190 1.391 . S
C187 C186 1.387 . S
C187 C188 1.369 . S
C187 H196 0.929 . S
C188 N185 1.346 . S
C188 C187 1.369 . S
C188 H191 0.928 . S
C189 N185 1.345 . S
C189 C190 1.371 . S
C189 H192 0.931 . S
C190 C186 1.391 . S
C190 C189 1.371 . S
C190 H197 0.930 . S
H191 C188 0.928 . S
H192 C189 0.931 . S
H193 C169 0.930 . S
H194 C166 0.930 . S
H195 C175 0.930 1_545 S
H196 C187 0.929 . S
H197 C190 0.930 . S
C198 C199 1.351 . S
C198 N201 1.368 . S
C198 H203 0.931 . S
C199 C198 1.351 . S
C199 N200 1.373 . S
C199 H227 0.930 . S
N200 C199 1.373 . S
N200 C202 1.340 . S
N201 C198 1.368 . S
N201 C202 1.321 . S
N201 Co204 2.135 . S
C202 N200 1.340 . S
C202 N201 1.321 . S
C202 H226 0.930 . S
H203 C198 0.931 . S
Co204 N201 2.135 . S
Co204 N207 2.121 . S
Co204 O212 2.055 . S
Co204 O215 2.039 . S
Co204 N218 2.140 . S
C205 O206 1.227 . S
C205 O215 1.265 . S
O206 C205 1.227 . S
N207 Co204 2.121 . S
N207 C209 1.375 . S
N207 C210 1.313 . S
C208 C209 1.338 . S
C208 N211 1.377 . S
C208 H228 0.930 . S
C209 N207 1.375 . S
C209 C208 1.338 . S
C209 H213 0.931 . S
C210 N207 1.313 . S
C210 N211 1.344 . S
C210 H214 0.930 . S
N211 C208 1.377 . S
N211 C210 1.344 . S
O212 Co204 2.055 . S
O212 C216 1.253 . S
H213 C209 0.931 . S
H214 C210 0.930 . S
O215 Co204 2.039 . S
O215 C205 1.265 . S
C216 O212 1.253 . S
C216 O217 1.227 . S
O217 C216 1.227 . S
N218 Co204 2.140 . S
N218 C221 1.346 . S
N218 C222 1.345 . S
C219 C220 1.387 . S
C219 C223 1.391 . S
C220 C219 1.387 . S
C220 C221 1.369 . S
C220 H229 0.929 . S
C221 N218 1.346 . S
C221 C220 1.369 . S
C221 H224 0.928 . S
C222 N218 1.345 . S
C222 C223 1.371 . S
C222 H225 0.931 . S
C223 C219 1.391 . S
C223 C222 1.371 . S
C223 H230 0.930 . S
H224 C221 0.928 . S
H225 C222 0.931 . S
H226 C202 0.930 . S
H227 C199 0.930 . S
H228 C208 0.930 . S
H229 C220 0.929 . S
H230 C223 0.930 . S
C231 C232 1.351 . S
C231 N234 1.368 . S
C231 H236 0.931 . S
C232 C231 1.351 . S
C232 N233 1.373 . S
C232 H260 0.930 . S
N233 C232 1.373 . S
N233 C235 1.340 . S
N234 C231 1.368 . S
N234 C235 1.321 . S
N234 Co237 2.135 . S
C235 N233 1.340 . S
C235 N234 1.321 . S
C235 H259 0.930 . S
H236 C231 0.931 . S
Co237 N234 2.135 . S
Co237 N240 2.121 . S
Co237 O245 2.055 . S
Co237 O248 2.039 . S
Co237 N251 2.140 . S
C238 O239 1.227 . S
C238 O248 1.265 . S
O239 C238 1.227 . S
N240 Co237 2.121 . S
N240 C242 1.375 . S
N240 C243 1.313 . S
C241 C242 1.338 . S
C241 N244 1.377 . S
C241 H261 0.930 . S
C242 N240 1.375 . S
C242 C241 1.338 . S
C242 H246 0.931 . S
C243 N240 1.313 . S
C243 N244 1.344 . S
C243 H247 0.930 . S
N244 C241 1.377 . S
N244 C243 1.344 . S
O245 Co237 2.055 . S
O245 C249 1.253 . S
H246 C242 0.931 . S
H247 C243 0.930 . S
O248 Co237 2.039 . S
O248 C238 1.265 . S
C249 O245 1.253 . S
C249 O250 1.227 . S
O250 C249 1.227 . S
N251 Co237 2.140 . S
N251 C254 1.346 . S
N251 C255 1.345 . S
C252 C253 1.387 . S
C252 C256 1.391 . S
C253 C252 1.387 . S
C253 C254 1.369 . S
C253 H262 0.929 . S
C254 N251 1.346 . S
C254 C253 1.369 . S
C254 H257 0.928 . S
C255 N251 1.345 . S
C255 C256 1.371 . S
C255 H258 0.931 . S
C256 C252 1.391 . S
C256 C255 1.371 . S
C256 H263 0.930 . S
H257 C254 0.928 . S
H258 C255 0.931 . S
H259 C235 0.930 . S
H260 C232 0.930 . S
H261 C241 0.930 . S
H262 C253 0.929 . S
H263 C256 0.930 . S
C264 C265 1.391 1_655 S
C264 C266 1.394 . S
C264 H280 0.931 . S
C265 C264 1.391 1_455 S
C265 C269 1.376 . S
C266 C264 1.394 . S
C266 C267 1.369 1_655 S
C266 C270 1.531 . S
C267 C266 1.369 1_455 S
C267 C268 1.410 . S
C267 C275 1.503 . S
C268 C267 1.410 . S
C268 C269 1.392 . S
C268 C271 1.511 . S
C269 C265 1.376 . S
C269 C268 1.392 . S
C269 H281 0.929 . S
C270 C266 1.531 . S
C270 H282 0.960 . S
C270 H283 0.962 . S
C270 H284 0.960 . S
C271 C268 1.511 . S
C271 H285 0.961 . S
C271 H286 0.961 . S
C271 H287 0.961 . S
C272 C273 1.370 1_655 S
C272 C274 1.363 . S
C272 H288 0.931 . S
C273 C272 1.370 1_455 S
C273 C277 1.408 . S
C274 C272 1.363 . S
C274 C275 1.370 1_655 S
C274 C278 1.524 . S
C275 C267 1.503 . S
C275 C274 1.370 1_455 S
C275 C276 1.403 . S
C276 C275 1.403 . S
C276 C277 1.404 . S
C276 C279 1.539 . S
C277 C273 1.408 . S
C277 C276 1.404 . S
C277 H289 0.930 . S
C278 C274 1.524 . S
C278 H290 0.956 . S
C278 H291 0.961 . S
C278 H292 0.961 . S
C279 C276 1.539 . S
C279 H293 0.958 . S
C279 H294 0.961 . S
C279 H295 0.960 . S
H280 C264 0.931 . S
H281 C269 0.929 . S
H282 C270 0.960 . S
H283 C270 0.962 . S
H284 C270 0.960 . S
H285 C271 0.961 . S
H286 C271 0.961 . S
H287 C271 0.961 . S
H288 C272 0.931 . S
H289 C277 0.930 . S
H290 C278 0.956 . S
H291 C278 0.961 . S
H292 C278 0.961 . S
H293 C279 0.958 . S
H294 C279 0.961 . S
H295 C279 0.960 . S
C296 C297 1.391 . S
C296 C298 1.394 . S
C296 H312 0.931 . S
C297 C296 1.391 . S
C297 C301 1.376 . S
C298 C296 1.394 . S
C298 C299 1.369 . S
C298 C302 1.531 . S
C299 C298 1.369 . S
C299 C300 1.410 . S
C299 C307 1.503 . S
C300 C299 1.410 . S
C300 C301 1.392 . S
C300 C303 1.511 . S
C301 C297 1.376 . S
C301 C300 1.392 . S
C301 H313 0.929 . S
C302 C298 1.531 . S
C302 H314 0.960 . S
C302 H315 0.962 . S
C302 H316 0.960 . S
C303 C300 1.511 . S
C303 H317 0.961 . S
C303 H318 0.961 . S
C303 H319 0.961 . S
C304 C305 1.370 . S
C304 C306 1.363 . S
C304 H320 0.931 . S
C305 C304 1.370 . S
C305 C309 1.408 . S
C306 C304 1.363 . S
C306 C307 1.370 . S
C306 C310 1.524 . S
C307 C299 1.503 . S
C307 C306 1.370 . S
C307 C308 1.403 . S
C308 C307 1.403 . S
C308 C309 1.404 . S
C308 C311 1.539 . S
C309 C305 1.408 . S
C309 C308 1.404 . S
C309 H321 0.930 . S
C310 C306 1.524 . S
C310 H322 0.956 . S
C310 H323 0.961 . S
C310 H324 0.961 . S
C311 C308 1.539 . S
C311 H325 0.958 . S
C311 H326 0.961 . S
C311 H327 0.960 . S
H312 C296 0.931 . S
H313 C301 0.929 . S
H314 C302 0.960 . S
H315 C302 0.962 . S
H316 C302 0.960 . S
H317 C303 0.961 . S
H318 C303 0.961 . S
H319 C303 0.961 . S
H320 C304 0.931 . S
H321 C309 0.930 . S
H322 C310 0.956 . S
H323 C310 0.961 . S
H324 C310 0.961 . S
H325 C311 0.958 . S
H326 C311 0.961 . S
H327 C311 0.960 . S
C328 C329 1.391 . S
C328 C330 1.394 . S
C328 H344 0.931 . S
C329 C328 1.391 . S
C329 C333 1.376 . S
C330 C328 1.394 . S
C330 C331 1.369 . S
C330 C334 1.531 . S
C331 C330 1.369 . S
C331 C332 1.410 . S
C331 C339 1.503 . S
C332 C331 1.410 . S
C332 C333 1.392 . S
C332 C335 1.511 . S
C333 C329 1.376 . S
C333 C332 1.392 . S
C333 H345 0.929 . S
C334 C330 1.531 . S
C334 H346 0.960 . S
C334 H347 0.962 . S
C334 H348 0.960 . S
C335 C332 1.511 . S
C335 H349 0.961 . S
C335 H350 0.961 . S
C335 H351 0.961 . S
C336 C337 1.370 . S
C336 C338 1.363 . S
C336 H352 0.931 . S
C337 C336 1.370 . S
C337 C341 1.408 . S
C338 C336 1.363 . S
C338 C339 1.370 . S
C338 C342 1.524 . S
C339 C331 1.503 . S
C339 C338 1.370 . S
C339 C340 1.403 . S
C340 C339 1.403 . S
C340 C341 1.404 . S
C340 C343 1.539 . S
C341 C337 1.408 . S
C341 C340 1.404 . S
C341 H353 0.930 . S
C342 C338 1.524 . S
C342 H354 0.956 . S
C342 H355 0.961 . S
C342 H356 0.961 . S
C343 C340 1.539 . S
C343 H357 0.958 . S
C343 H358 0.961 . S
C343 H359 0.960 . S
H344 C328 0.931 . S
H345 C333 0.929 . S
H346 C334 0.960 . S
H347 C334 0.962 . S
H348 C334 0.960 . S
H349 C335 0.961 . S
H350 C335 0.961 . S
H351 C335 0.961 . S
H352 C336 0.931 . S
H353 C341 0.930 . S
H354 C342 0.956 . S
H355 C342 0.961 . S
H356 C342 0.961 . S
H357 C343 0.958 . S
H358 C343 0.961 . S
H359 C343 0.960 . S
C360 C361 1.391 . S
C360 C362 1.394 . S
C360 H376 0.931 1_455 S
C361 C360 1.391 . S
C361 C365 1.376 . S
C362 C360 1.394 . S
C362 C363 1.369 . S
C362 C366 1.531 1_455 S
C363 C362 1.369 . S
C363 C364 1.410 . S
C363 C371 1.503 . S
C364 C363 1.410 . S
C364 C365 1.392 . S
C364 C367 1.511 . S
C365 C361 1.376 . S
C365 C364 1.392 . S
C365 H377 0.929 . S
C366 C362 1.531 1_655 S
C366 H378 0.960 1_655 S
C366 H379 0.962 . S
C366 H380 0.960 . S
C367 C364 1.511 . S
C367 H381 0.961 . S
C367 H382 0.961 . S
C367 H383 0.961 . S
C368 C369 1.370 . S
C368 C370 1.363 . S
C368 H384 0.931 . S
C369 C368 1.370 . S
C369 C373 1.408 . S
C370 C368 1.363 . S
C370 C371 1.370 . S
C370 C374 1.524 1_455 S
C371 C363 1.503 . S
C371 C370 1.370 . S
C371 C372 1.403 . S
C372 C371 1.403 . S
C372 C373 1.404 . S
C372 C375 1.539 . S
C373 C369 1.408 . S
C373 C372 1.404 . S
C373 H385 0.930 . S
C374 C370 1.524 1_655 S
C374 H386 0.956 . S
C374 H387 0.961 1_655 S
C374 H388 0.961 . S
C375 C372 1.539 . S
C375 H389 0.958 . S
C375 H390 0.961 . S
C375 H391 0.960 . S
H376 C360 0.931 1_655 S
H377 C365 0.929 . S
H378 C366 0.960 1_455 S
H379 C366 0.962 . S
H380 C366 0.960 . S
H381 C367 0.961 . S
H382 C367 0.961 . S
H383 C367 0.961 . S
H384 C368 0.931 . S
H385 C373 0.930 . S
H386 C374 0.956 . S
H387 C374 0.961 1_455 S
H388 C374 0.961 . S
H389 C375 0.958 . S
H390 C375 0.961 . S
H391 C375 0.960 . S
C392 C393 1.391 . S
C392 C394 1.394 . S
C392 H408 0.931 . S
C393 C392 1.391 . S
C393 C397 1.376 . S
C394 C392 1.394 . S
C394 C395 1.369 . S
C394 C398 1.531 . S
C395 C394 1.369 . S
C395 C396 1.410 . S
C395 C403 1.503 1_554 S
C396 C395 1.410 . S
C396 C397 1.392 . S
C396 C399 1.457 1_454 S
C397 C393 1.376 . S
C397 C396 1.392 . S
C397 H409 0.929 . S
C398 C394 1.531 . S
C398 H410 0.960 . S
C398 H411 0.962 . S
C398 H412 0.960 . S
C399 C396 1.457 1_656 S
C399 H413 0.959 1_656 S
C399 H414 1.013 1_655 S
C399 H415 0.971 . S
C400 C401 1.370 . S
C400 C402 1.363 . S
C400 H416 0.931 . S
C401 C400 1.370 . S
C401 C405 1.408 1_455 S
C402 C400 1.363 . S
C402 C403 1.370 . S
C402 C406 1.524 . S
C403 C395 1.503 1_556 S
C403 C402 1.370 . S
C403 C404 1.403 1_455 S
C404 C403 1.403 1_655 S
C404 C405 1.404 . S
C404 C407 1.539 . S
C405 C401 1.408 1_655 S
C405 C404 1.404 . S
C405 H417 0.930 . S
C406 C402 1.524 . S
C406 H418 0.956 1_556 S
C406 H419 0.961 1_556 S
C406 H420 0.961 . S
C407 C404 1.539 . S
C407 H421 0.956 1_556 S
C407 H422 0.961 . S
C407 H423 0.960 1_556 S
H408 C392 0.931 . S
H409 C397 0.929 . S
H410 C398 0.960 . S
H411 C398 0.962 . S
H412 C398 0.960 . S
H413 C399 0.959 1_454 S
H414 C399 1.013 1_455 S
H415 C399 0.971 . S
H416 C400 0.931 . S
H417 C405 0.930 . S
H418 C406 0.956 1_554 S
H419 C406 0.961 1_554 S
H420 C406 0.961 . S
H421 C407 0.956 1_554 S
H422 C407 0.961 . S
H423 C407 0.960 1_554 S
C424 C425 1.391 . S
C424 C426 1.394 . S
C424 H440 0.931 . S
C425 C424 1.391 . S
C425 C429 1.376 . S
C426 C424 1.394 . S
C426 C427 1.369 . S
C426 C430 1.531 . S
C427 C426 1.369 . S
C427 C428 1.410 . S
C427 C435 1.503 . S
C428 C427 1.410 . S
C428 C429 1.392 . S
C428 C431 1.511 . S
C429 C425 1.376 . S
C429 C428 1.392 . S
C429 H441 0.929 . S
C430 C426 1.531 . S
C430 H442 0.960 . S
C430 H443 0.962 . S
C430 H444 0.960 . S
C431 C428 1.511 . S
C431 H445 0.961 . S
C431 H446 0.961 . S
C431 H447 0.961 . S
C432 C433 1.370 . S
C432 C434 1.363 . S
C432 H448 0.931 . S
C433 C432 1.370 . S
C433 C437 1.408 . S
C434 C432 1.363 . S
C434 C435 1.370 . S
C434 C438 1.524 . S
C435 C427 1.503 . S
C435 C434 1.370 . S
C435 C436 1.403 . S
C436 C435 1.403 . S
C436 C437 1.404 . S
C436 C439 1.539 . S
C437 C433 1.408 . S
C437 C436 1.404 . S
C437 H449 0.930 . S
C438 C434 1.524 . S
C438 H450 0.956 . S
C438 H451 0.961 . S
C438 H452 0.961 . S
C439 C436 1.539 . S
C439 H453 0.958 . S
C439 H454 0.961 . S
C439 H455 0.960 . S
H440 C424 0.931 . S
H441 C429 0.929 . S
H442 C430 0.960 . S
H443 C430 0.962 . S
H444 C430 0.960 . S
H445 C431 0.961 . S
H446 C431 0.961 . S
H447 C431 0.961 . S
H448 C432 0.931 . S
H449 C437 0.930 . S
H450 C438 0.956 . S
H451 C438 0.961 . S
H452 C438 0.961 . S
H453 C439 0.958 . S
H454 C439 0.961 . S
H455 C439 0.960 . S
C456 C457 1.391 . S
C456 C458 1.394 . S
C456 H472 0.931 . S
C457 C456 1.391 . S
C457 C461 1.376 . S
C458 C456 1.394 . S
C458 C459 1.369 . S
C458 C462 1.531 . S
C459 C458 1.369 . S
C459 C460 1.410 . S
C459 C467 1.503 . S
C460 C459 1.410 . S
C460 C461 1.392 . S
C460 C463 1.511 . S
C461 C457 1.376 . S
C461 C460 1.392 . S
C461 H473 0.929 . S
C462 C458 1.531 . S
C462 H474 0.960 . S
C462 H475 0.962 . S
C462 H476 0.960 . S
C463 C460 1.511 . S
C463 H477 0.961 . S
C463 H478 0.961 . S
C463 H479 0.961 . S
C464 C465 1.370 . S
C464 C466 1.363 . S
C464 H480 0.931 . S
C465 C464 1.370 . S
C465 C469 1.408 . S
C466 C464 1.363 . S
C466 C467 1.370 . S
C466 C470 1.524 . S
C467 C459 1.503 . S
C467 C466 1.370 . S
C467 C468 1.403 . S
C468 C467 1.403 . S
C468 C469 1.404 . S
C468 C471 1.539 . S
C469 C465 1.408 . S
C469 C468 1.404 . S
C469 H481 0.930 . S
C470 C466 1.524 . S
C470 H482 0.956 . S
C470 H483 0.961 . S
C470 H484 0.961 . S
C471 C468 1.539 . S
C471 H485 0.958 . S
C471 H486 0.961 . S
C471 H487 0.960 . S
H472 C456 0.931 . S
H473 C461 0.929 . S
H474 C462 0.960 . S
H475 C462 0.962 . S
H476 C462 0.960 . S
H477 C463 0.961 . S
H478 C463 0.961 . S
H479 C463 0.961 . S
H480 C464 0.931 . S
H481 C469 0.930 . S
H482 C470 0.956 . S
H483 C470 0.961 . S
H484 C470 0.961 . S
H485 C471 0.958 . S
H486 C471 0.961 . S
H487 C471 0.960 . S
C488 C489 1.391 . S
C488 C490 1.394 . S
C488 H504 0.931 . S
C489 C488 1.391 . S
C489 C493 1.376 . S
C490 C488 1.394 . S
C490 C491 1.369 . S
C490 C494 1.531 . S
C491 C490 1.369 . S
C491 C492 1.410 . S
C491 C499 1.503 . S
C492 C491 1.410 . S
C492 C493 1.392 . S
C492 C495 1.511 . S
C493 C489 1.376 . S
C493 C492 1.392 . S
C493 H505 0.929 . S
C494 C490 1.531 . S
C494 H506 0.960 . S
C494 H507 0.962 . S
C494 H508 0.960 . S
C495 C492 1.511 . S
C495 H509 0.961 . S
C495 H510 0.961 . S
C495 H511 0.961 . S
C496 C497 1.370 . S
C496 C498 1.363 . S
C496 H512 0.931 . S
C497 C496 1.370 . S
C497 C501 1.408 . S
C498 C496 1.363 . S
C498 C499 1.370 . S
C498 C502 1.524 . S
C499 C491 1.503 . S
C499 C498 1.370 . S
C499 C500 1.403 . S
C500 C499 1.403 . S
C500 C501 1.404 . S
C500 C503 1.539 . S
C501 C497 1.408 . S
C501 C500 1.404 . S
C501 H513 0.930 . S
C502 C498 1.524 . S
C502 H514 0.956 . S
C502 H515 0.961 . S
C502 H516 0.961 . S
C503 C500 1.539 . S
C503 H517 0.958 . S
C503 H518 0.961 . S
C503 H519 0.960 . S
H504 C488 0.931 . S
H505 C493 0.929 . S
H506 C494 0.960 . S
H507 C494 0.962 . S
H508 C494 0.960 . S
H509 C495 0.961 . S
H510 C495 0.961 . S
H511 C495 0.961 . S
H512 C496 0.931 . S
H513 C501 0.930 . S
H514 C502 0.956 . S
H515 C502 0.961 . S
H516 C502 0.961 . S
H517 C503 0.958 . S
H518 C503 0.961 . S
H519 C503 0.960 . S
C520 C521 1.391 . S
C520 C522 1.394 . S
C520 H536 0.931 . S
C521 C520 1.391 . S
C521 C525 1.376 . S
C522 C520 1.394 . S
C522 C523 1.369 . S
C522 C526 1.531 . S
C523 C522 1.369 . S
C523 C524 1.410 . S
C523 C531 1.503 . S
C524 C523 1.410 . S
C524 C525 1.392 . S
C524 C527 1.511 . S
C525 C521 1.376 . S
C525 C524 1.392 . S
C525 H537 0.929 . S
C526 C522 1.531 . S
C526 H538 0.960 . S
C526 H539 0.962 . S
C526 H540 0.960 . S
C527 C524 1.511 . S
C527 H541 0.961 . S
C527 H542 0.961 . S
C527 H543 0.961 . S
C528 C529 1.370 . S
C528 C530 1.363 . S
C528 H544 0.931 . S
C529 C528 1.370 . S
C529 C533 1.408 . S
C530 C528 1.363 . S
C530 C531 1.370 . S
C530 C534 1.524 . S
C531 C523 1.503 . S
C531 C530 1.370 . S
C531 C532 1.403 . S
C532 C531 1.403 . S
C532 C533 1.404 . S
C532 C535 1.539 . S
C533 C529 1.408 . S
C533 C532 1.404 . S
C533 H545 0.930 . S
C534 C530 1.524 . S
C534 H546 0.956 . S
C534 H547 0.961 . S
C534 H548 0.961 . S
C535 C532 1.539 . S
C535 H549 0.958 . S
C535 H550 0.961 . S
C535 H551 0.960 . S
H536 C520 0.931 . S
H537 C525 0.929 . S
H538 C526 0.960 . S
H539 C526 0.962 . S
H540 C526 0.960 . S
H541 C527 0.961 . S
H542 C527 0.961 . S
H543 C527 0.961 . S
H544 C528 0.931 . S
H545 C533 0.930 . S
H546 C534 0.956 . S
H547 C534 0.961 . S
H548 C534 0.961 . S
H549 C535 0.958 . S
H550 C535 0.961 . S
H551 C535 0.960 . S
C552 C553 1.391 . S
C552 C554 1.394 . S
C552 H568 0.931 . S
C553 C552 1.391 . S
C553 C557 1.376 . S
C554 C552 1.394 . S
C554 C555 1.369 . S
C554 C558 1.531 . S
C555 C554 1.369 . S
C555 C556 1.410 . S
C555 C563 1.503 . S
C556 C555 1.410 . S
C556 C557 1.392 . S
C556 C559 1.511 . S
C557 C553 1.376 . S
C557 C556 1.392 . S
C557 H569 0.929 . S
C558 C554 1.531 . S
C558 H570 0.960 . S
C558 H571 0.962 . S
C558 H572 0.960 . S
C559 C556 1.511 . S
C559 H573 0.961 . S
C559 H574 0.961 . S
C559 H575 0.961 . S
C560 C561 1.370 . S
C560 C562 1.363 . S
C560 H576 0.931 . S
C561 C560 1.370 . S
C561 C565 1.408 . S
C562 C560 1.363 . S
C562 C563 1.370 . S
C562 C566 1.524 . S
C563 C555 1.503 . S
C563 C562 1.370 . S
C563 C564 1.403 . S
C564 C563 1.403 . S
C564 C565 1.404 . S
C564 C567 1.539 . S
C565 C561 1.408 . S
C565 C564 1.404 . S
C565 H577 0.930 . S
C566 C562 1.524 . S
C566 H578 0.956 . S
C566 H579 0.961 . S
C566 H580 0.961 . S
C567 C564 1.539 . S
C567 H581 0.958 . S
C567 H582 0.961 . S
C567 H583 0.960 . S
H568 C552 0.931 . S
H569 C557 0.929 . S
H570 C558 0.960 . S
H571 C558 0.962 . S
H572 C558 0.960 . S
H573 C559 0.961 . S
H574 C559 0.961 . S
H575 C559 0.961 . S
H576 C560 0.931 . S
H577 C565 0.930 . S
H578 C566 0.956 . S
H579 C566 0.961 . S
H580 C566 0.961 . S
H581 C567 0.958 . S
H582 C567 0.961 . S
H583 C567 0.960 . S
C584 C585 1.391 . S
C584 C586 1.394 . S
C584 H600 0.931 . S
C585 C584 1.391 . S
C585 C589 1.376 . S
C586 C584 1.394 . S
C586 C587 1.369 . S
C586 C590 1.531 . S
C587 C586 1.369 . S
C587 C588 1.410 1_565 S
C587 C595 1.503 1_565 S
C588 C587 1.410 1_545 S
C588 C589 1.392 1_545 S
C588 C591 1.511 . S
C589 C585 1.376 . S
C589 C588 1.392 1_565 S
C589 H601 0.929 . S
C590 C586 1.531 . S
C590 H602 0.960 . S
C590 H603 0.962 . S
C590 H604 0.960 . S
C591 C588 1.511 . S
C591 H605 0.961 . S
C591 H606 0.961 . S
C591 H607 0.961 . S
C592 C593 1.370 . S
C592 C594 1.363 . S
C592 H608 0.931 . S
C593 C592 1.370 . S
C593 C597 1.408 . S
C594 C592 1.363 . S
C594 C595 1.370 . S
C594 C598 1.524 . S
C595 C587 1.503 1_545 S
C595 C594 1.370 . S
C595 C596 1.403 . S
C596 C595 1.403 . S
C596 C597 1.404 . S
C596 C599 1.539 1_545 S
C597 C593 1.408 . S
C597 C596 1.404 . S
C597 H609 0.930 . S
C598 C594 1.524 . S
C598 H610 0.956 . S
C598 H611 0.961 . S
C598 H612 0.961 . S
C599 C596 1.539 1_565 S
C599 H613 0.958 . S
C599 H614 0.961 . S
C599 H615 0.960 . S
H600 C584 0.931 . S
H601 C589 0.929 . S
H602 C590 0.960 . S
H603 C590 0.962 . S
H604 C590 0.960 . S
H605 C591 0.961 . S
H606 C591 0.961 . S
H607 C591 0.961 . S
H608 C592 0.931 . S
H609 C597 0.930 . S
H610 C598 0.956 . S
H611 C598 0.961 . S
H612 C598 0.961 . S
H613 C599 0.958 . S
H614 C599 0.961 . S
H615 C599 0.960 . S
C616 C617 1.391 1_545 S
C616 C618 1.394 . S
C616 H632 0.931 . S
C617 C616 1.391 1_565 S
C617 C621 1.376 . S
C618 C616 1.394 . S
C618 C619 1.369 . S
C618 C622 1.531 . S
C619 C618 1.369 . S
C619 C620 1.410 1_545 S
C619 C627 1.503 1_554 S
C620 C619 1.410 1_565 S
C620 C621 1.392 . S
C620 C623 1.511 1_554 S
C621 C617 1.376 . S
C621 C620 1.392 . S
C621 H633 0.929 . S
C622 C618 1.531 . S
C622 H634 0.960 . S
C622 H635 0.962 1_455 S
C622 H636 0.960 . S
C623 C620 1.511 1_556 S
C623 H637 0.973 . S
C623 H638 0.961 . S
C623 H639 0.961 . S
C624 C625 1.370 1_655 S
C624 C626 1.363 . S
C624 H640 0.931 . S
C625 C624 1.370 1_455 S
C625 C629 1.408 . S
C626 C624 1.363 . S
C626 C627 1.370 1_655 S
C626 C630 1.524 . S
C627 C619 1.503 1_556 S
C627 C626 1.370 1_455 S
C627 C628 1.403 . S
C628 C627 1.403 . S
C628 C629 1.404 . S
C628 C631 1.539 . S
C629 C625 1.408 . S
C629 C628 1.404 . S
C629 H641 0.930 . S
C630 C626 1.524 . S
C630 H642 0.956 . S
C630 H643 0.961 1_545 S
C630 H644 0.961 . S
C631 C628 1.539 . S
C631 H645 0.958 . S
C631 H646 0.961 . S
C631 H647 1.006 . S
H632 C616 0.931 . S
H633 C621 0.929 . S
H634 C622 0.960 . S
H635 C622 0.962 1_655 S
H636 C622 0.960 . S
H637 C623 0.973 . S
H638 C623 0.961 . S
H639 C623 0.961 . S
H640 C624 0.931 . S
H641 C629 0.930 . S
H642 C630 0.956 . S
H643 C630 0.961 1_565 S
H644 C630 0.961 . S
H645 C631 0.958 . S
H646 C631 0.961 . S
H647 C631 1.006 . S
C648 C649 1.391 . S
C648 C650 1.394 . S
C648 H664 0.931 . S
C649 C648 1.391 . S
C649 C653 1.376 . S
C650 C648 1.394 . S
C650 C651 1.369 . S
C650 C654 1.531 . S
C651 C650 1.369 . S
C651 C652 1.410 . S
C651 C659 1.503 . S
C652 C651 1.410 . S
C652 C653 1.392 . S
C652 C655 1.511 . S
C653 C649 1.376 . S
C653 C652 1.392 . S
C653 H665 0.929 . S
C654 C650 1.531 . S
C654 H666 0.960 . S
C654 H667 0.962 . S
C654 H668 0.960 . S
C655 C652 1.511 . S
C655 H669 0.961 . S
C655 H670 0.961 . S
C655 H671 0.961 . S
C656 C657 1.370 . S
C656 C658 1.363 . S
C656 H672 0.931 . S
C657 C656 1.370 . S
C657 C661 1.408 . S
C658 C656 1.363 . S
C658 C659 1.370 . S
C658 C662 1.524 . S
C659 C651 1.503 . S
C659 C658 1.370 . S
C659 C660 1.403 . S
C660 C659 1.403 . S
C660 C661 1.404 . S
C660 C663 1.539 . S
C661 C657 1.408 . S
C661 C660 1.404 . S
C661 H673 0.930 . S
C662 C658 1.524 . S
C662 H674 0.956 . S
C662 H675 0.961 . S
C662 H676 0.961 . S
C663 C660 1.539 . S
C663 H677 0.958 . S
C663 H678 0.961 . S
C663 H679 0.960 . S
H664 C648 0.931 . S
H665 C653 0.929 . S
H666 C654 0.960 . S
H667 C654 0.962 . S
H668 C654 0.960 . S
H669 C655 0.961 . S
H670 C655 0.961 . S
H671 C655 0.961 . S
H672 C656 0.931 . S
H673 C661 0.930 . S
H674 C662 0.956 . S
H675 C662 0.961 . S
H676 C662 0.961 . S
H677 C663 0.958 . S
H678 C663 0.961 . S
H679 C663 0.960 . S
C680 C681 1.391 . S
C680 C682 1.394 . S
C680 H696 0.931 . S
C681 C680 1.391 . S
C681 C685 1.376 . S
C682 C680 1.394 . S
C682 C683 1.369 . S
C682 C686 1.531 . S
C683 C682 1.369 . S
C683 C684 1.410 . S
C683 C691 1.503 . S
C684 C683 1.410 . S
C684 C685 1.392 . S
C684 C687 1.511 . S
C685 C681 1.376 . S
C685 C684 1.392 . S
C685 H697 0.929 . S
C686 C682 1.531 . S
C686 H698 0.960 . S
C686 H699 0.962 . S
C686 H700 0.960 . S
C687 C684 1.511 . S
C687 H701 0.961 . S
C687 H702 0.961 . S
C687 H703 0.961 . S
C688 C689 1.370 . S
C688 C690 1.363 . S
C688 H704 0.931 . S
C689 C688 1.370 . S
C689 C693 1.408 . S
C690 C688 1.363 . S
C690 C691 1.370 . S
C690 C694 1.524 . S
C691 C683 1.503 . S
C691 C690 1.370 . S
C691 C692 1.403 . S
C692 C691 1.403 . S
C692 C693 1.404 . S
C692 C695 1.539 . S
C693 C689 1.408 . S
C693 C692 1.404 . S
C693 H705 0.930 . S
C694 C690 1.524 . S
C694 H706 0.956 . S
C694 H707 0.961 . S
C694 H708 0.961 . S
C695 C692 1.539 . S
C695 H709 0.958 . S
C695 H710 0.961 . S
C695 H711 0.960 . S
H696 C680 0.931 . S
H697 C685 0.929 . S
H698 C686 0.960 . S
H699 C686 0.962 . S
H700 C686 0.960 . S
H701 C687 0.961 . S
H702 C687 0.961 . S
H703 C687 0.961 . S
H704 C688 0.931 . S
H705 C693 0.930 . S
H706 C694 0.956 . S
H707 C694 0.961 . S
H708 C694 0.961 . S
H709 C695 0.958 . S
H710 C695 0.961 . S
H711 C695 0.960 . S
C712 C713 1.391 . S
C712 C714 1.394 . S
C712 H728 0.931 . S
C713 C712 1.391 . S
C713 C717 1.376 . S
C714 C712 1.394 . S
C714 C715 1.369 . S
C714 C718 1.531 . S
C715 C714 1.369 . S
C715 C716 1.410 . S
C715 C723 1.515 . S
C716 C715 1.410 . S
C716 C717 1.392 . S
C716 C719 1.511 . S
C717 C713 1.376 . S
C717 C716 1.392 . S
C717 H729 0.929 . S
C718 C714 1.531 . S
C718 H730 0.960 . S
C718 H731 0.962 . S
C718 H732 0.960 . S
C719 C716 1.511 . S
C719 H733 0.961 . S
C719 H734 0.961 . S
C719 H735 0.961 . S
C720 C721 1.370 . S
C720 C722 1.363 . S
C720 H736 0.931 . S
C721 C720 1.370 . S
C721 C725 1.408 . S
C722 C720 1.363 . S
C722 C723 1.365 1_655 S
C722 C726 1.524 1_655 S
C723 C715 1.515 . S
C723 C722 1.365 1_455 S
C723 C724 1.396 1_455 S
C724 C723 1.396 1_655 S
C724 C725 1.404 . S
C724 C727 1.539 . S
C725 C721 1.408 . S
C725 C724 1.404 . S
C725 H737 0.930 . S
C726 C722 1.524 1_455 S
C726 H738 0.956 . S
C726 H739 0.961 . S
C726 H740 0.961 1_455 S
C727 C724 1.539 . S
C727 H741 0.958 1_655 S
C727 H742 0.961 . S
C727 H743 0.960 1_655 S
H728 C712 0.931 . S
H729 C717 0.929 . S
H730 C718 0.960 . S
H731 C718 0.962 . S
H732 C718 0.960 . S
H733 C719 0.961 . S
H734 C719 0.961 . S
H735 C719 0.961 . S
H736 C720 0.931 . S
H737 C725 0.930 . S
H738 C726 0.956 . S
H739 C726 0.961 . S
H740 C726 0.961 1_655 S
H741 C727 0.958 1_455 S
H742 C727 0.961 . S
H743 C727 0.960 1_455 S
C744 C745 1.391 . S
C744 C746 1.394 . S
C744 H760 0.937 . S
C745 C744 1.391 . S
C745 C749 1.376 . S
C746 C744 1.394 . S
C746 C747 1.369 . S
C746 C750 1.531 1_455 S
C747 C746 1.369 . S
C747 C748 1.410 . S
C747 C755 1.503 . S
C748 C747 1.410 . S
C748 C749 1.392 . S
C748 C751 1.511 . S
C749 C745 1.376 . S
C749 C748 1.392 . S
C749 H761 0.929 . S
C750 C746 1.531 1_655 S
C750 H762 0.960 . S
C750 H763 0.962 . S
C750 H764 0.960 . S
C751 C748 1.511 . S
C751 H765 0.961 . S
C751 H766 0.961 . S
C751 H767 0.961 . S
C752 C753 1.370 . S
C752 C754 1.363 . S
C752 H768 0.931 . S
C753 C752 1.370 . S
C753 C757 1.408 . S
C754 C752 1.363 . S
C754 C755 1.370 . S
C754 C758 1.524 . S
C755 C747 1.503 . S
C755 C754 1.370 . S
C755 C756 1.403 . S
C756 C755 1.403 . S
C756 C757 1.404 . S
C756 C759 1.539 . S
C757 C753 1.408 . S
C757 C756 1.404 . S
C757 H769 0.930 . S
C758 C754 1.524 . S
C758 H770 0.956 . S
C758 H771 0.961 . S
C758 H772 0.961 . S
C759 C756 1.539 . S
C759 H773 0.958 . S
C759 H774 0.961 . S
C759 H775 0.960 . S
H760 C744 0.937 . S
H761 C749 0.929 . S
H762 C750 0.960 . S
H763 C750 0.962 . S
H764 C750 0.960 . S
H765 C751 0.961 . S
H766 C751 0.961 . S
H767 C751 0.961 . S
H768 C752 0.931 . S
H769 C757 0.930 . S
H770 C758 0.956 . S
H771 C758 0.961 . S
H772 C758 0.961 . S
H773 C759 0.958 . S
H774 C759 0.961 . S
H775 C759 0.960 . S
C776 C777 1.391 . S
C776 C778 1.394 . S
C776 H792 0.931 . S
C777 C776 1.391 . S
C777 C781 1.376 . S
C778 C776 1.394 . S
C778 C779 1.369 . S
C778 C782 1.531 . S
C779 C778 1.369 . S
C779 C780 1.410 . S
C779 C787 1.503 . S
C780 C779 1.410 . S
C780 C781 1.392 . S
C780 C783 1.511 . S
C781 C777 1.376 . S
C781 C780 1.392 . S
C781 H793 0.929 . S
C782 C778 1.531 . S
C782 H794 0.960 . S
C782 H795 0.962 . S
C782 H796 0.960 . S
C783 C780 1.511 . S
C783 H797 0.961 . S
C783 H798 0.961 . S
C783 H799 0.961 . S
C784 C785 1.370 . S
C784 C786 1.363 . S
C784 H800 0.931 . S
C785 C784 1.370 . S
C785 C789 1.408 . S
C786 C784 1.363 . S
C786 C787 1.370 . S
C786 C790 1.524 . S
C787 C779 1.503 . S
C787 C786 1.370 . S
C787 C788 1.403 . S
C788 C787 1.403 . S
C788 C789 1.404 . S
C788 C791 1.539 . S
C789 C785 1.408 . S
C789 C788 1.404 . S
C789 H801 0.930 . S
C790 C786 1.524 . S
C790 H802 0.956 . S
C790 H803 0.961 . S
C790 H804 0.961 . S
C791 C788 1.539 . S
C791 H805 0.958 . S
C791 H806 0.961 . S
C791 H807 0.960 . S
H792 C776 0.931 . S
H793 C781 0.929 . S
H794 C782 0.960 . S
H795 C782 0.962 . S
H796 C782 0.960 . S
H797 C783 0.961 . S
H798 C783 0.961 . S
H799 C783 0.961 . S
H800 C784 0.931 . S
H801 C789 0.930 . S
H802 C790 0.956 . S
H803 C790 0.961 . S
H804 C790 0.961 . S
H805 C791 0.958 . S
H806 C791 0.961 . S
H807 C791 0.960 . S
C808 C809 1.391 . S
C808 C810 1.394 . S
C808 H824 0.931 . S
C809 C808 1.391 . S
C809 C813 1.376 1_455 S
C810 C808 1.394 . S
C810 C811 1.369 . S
C810 C814 1.531 . S
C811 C810 1.369 . S
C811 C812 1.410 1_455 S
C811 C819 1.503 . S
C812 C811 1.410 1_655 S
C812 C813 1.392 . S
C812 C815 1.511 . S
C813 C809 1.376 1_655 S
C813 C812 1.392 . S
C813 H825 0.929 . S
C814 C810 1.531 . S
C814 H826 0.960 . S
C814 H827 0.962 . S
C814 H828 0.960 . S
C815 C812 1.511 . S
C815 H829 0.961 . S
C815 H830 0.961 . S
C815 H831 0.961 . S
C816 C817 1.370 . S
C816 C818 1.363 . S
C816 H832 0.931 . S
C817 C816 1.370 . S
C817 C821 1.408 . S
C818 C816 1.363 . S
C818 C819 1.370 . S
C818 C822 1.524 . S
C819 C811 1.503 . S
C819 C818 1.370 . S
C819 C820 1.403 . S
C820 C819 1.403 . S
C820 C821 1.404 . S
C820 C823 1.539 . S
C821 C817 1.408 . S
C821 C820 1.404 . S
C821 H833 0.930 . S
C822 C818 1.524 . S
C822 H834 0.956 . S
C822 H835 0.961 1_455 S
C822 H836 0.961 1_455 S
C823 C820 1.539 . S
C823 H837 0.958 . S
C823 H838 0.961 . S
C823 H839 0.960 . S
H824 C808 0.931 . S
H825 C813 0.929 . S
H826 C814 0.960 . S
H827 C814 0.962 . S
H828 C814 0.960 . S
H829 C815 0.961 . S
H830 C815 0.961 . S
H831 C815 0.961 . S
H832 C816 0.931 . S
H833 C821 0.930 . S
H834 C822 0.956 . S
H835 C822 0.961 1_655 S
H836 C822 0.961 1_655 S
H837 C823 0.958 . S
H838 C823 0.961 . S
H839 C823 0.960 . S
C840 C841 1.391 . S
C840 C842 1.394 . S
C840 H856 0.931 . S
C841 C840 1.391 . S
C841 C845 1.376 . S
C842 C840 1.394 . S
C842 C843 1.369 1_655 S
C842 C846 1.527 1_655 S
C843 C842 1.369 1_455 S
C843 C844 1.410 1_455 S
C843 C851 1.503 . S
C844 C843 1.410 1_655 S
C844 C845 1.392 . S
C844 C847 1.511 1_655 S
C845 C841 1.376 . S
C845 C844 1.392 . S
C845 H857 0.929 . S
C846 C842 1.527 1_455 S
C846 H858 0.967 . S
C846 H859 0.963 . S
C846 H860 0.956 1_455 S
C847 C844 1.511 1_455 S
C847 H861 0.961 . S
C847 H862 0.961 . S
C847 H863 0.961 . S
C848 C849 1.370 . S
C848 C850 1.363 . S
C848 H864 0.931 . S
C849 C848 1.370 . S
C849 C853 1.408 . S
C850 C848 1.363 . S
C850 C851 1.370 . S
C850 C854 1.524 . S
C851 C843 1.503 . S
C851 C850 1.370 . S
C851 C852 1.403 . S
C852 C851 1.403 . S
C852 C853 1.404 . S
C852 C855 1.539 . S
C853 C849 1.408 . S
C853 C852 1.404 . S
C853 H865 0.930 . S
C854 C850 1.524 . S
C854 H866 0.956 . S
C854 H867 0.961 . S
C854 H868 0.961 . S
C855 C852 1.539 . S
C855 H869 0.958 . S
C855 H870 0.961 . S
C855 H871 0.960 . S
H856 C840 0.931 . S
H857 C845 0.929 . S
H858 C846 0.967 . S
H859 C846 0.963 . S
H860 C846 0.956 1_655 S
H861 C847 0.961 . S
H862 C847 0.961 . S
H863 C847 0.961 . S
H864 C848 0.931 . S
H865 C853 0.930 . S
H866 C854 0.956 . S
H867 C854 0.961 . S
H868 C854 0.961 . S
H869 C855 0.958 . S
H870 C855 0.961 . S
H871 C855 0.960 . S
C872 C873 1.391 . S
C872 C874 1.394 . S
C872 H888 0.931 . S
C873 C872 1.391 . S
C873 C877 1.376 . S
C874 C872 1.394 . S
C874 C875 1.369 . S
C874 C878 1.531 . S
C875 C874 1.369 . S
C875 C876 1.410 . S
C875 C883 1.503 . S
C876 C875 1.410 . S
C876 C877 1.392 . S
C876 C879 1.511 . S
C877 C873 1.376 . S
C877 C876 1.392 . S
C877 H889 0.929 . S
C878 C874 1.531 . S
C878 H890 0.960 . S
C878 H891 0.962 . S
C878 H892 0.960 . S
C879 C876 1.511 . S
C879 H893 0.961 . S
C879 H894 0.961 . S
C879 H895 0.961 . S
C880 C881 1.370 . S
C880 C882 1.363 . S
C880 H896 0.931 . S
C881 C880 1.370 . S
C881 C885 1.408 . S
C882 C880 1.363 . S
C882 C883 1.370 . S
C882 C886 1.524 . S
C883 C875 1.503 . S
C883 C882 1.370 . S
C883 C884 1.403 . S
C884 C883 1.403 . S
C884 C885 1.404 . S
C884 C887 1.539 . S
C885 C881 1.408 . S
C885 C884 1.404 . S
C885 H897 0.930 . S
C886 C882 1.524 . S
C886 H898 0.956 . S
C886 H899 0.961 . S
C886 H900 0.961 . S
C887 C884 1.539 . S
C887 H901 0.958 . S
C887 H902 0.961 . S
C887 H903 0.960 . S
H888 C872 0.931 . S
H889 C877 0.929 . S
H890 C878 0.960 . S
H891 C878 0.962 . S
H892 C878 0.960 . S
H893 C879 0.961 . S
H894 C879 0.961 . S
H895 C879 0.961 . S
H896 C880 0.931 . S
H897 C885 0.930 . S
H898 C886 0.956 . S
H899 C886 0.961 . S
H900 C886 0.961 . S
H901 C887 0.958 . S
H902 C887 0.961 . S
H903 C887 0.960 . S
C265 C18 1.309 . S
C273 C183 1.317 . S
C297 C216 1.319 . S
C305 C51 1.311 . S
C329 C84 1.323 . S
C337 C249 1.318 . S
C361 C150 1.302 . S
C369 C117 1.318 . S
C393 C7 0.566 . S
C401 C153 0.481 . S
C425 C40 0.625 . S
C433 C186 0.672 . S
C457 C205 0.745 . S
C465 C87 0.620 . S
C489 C120 0.455 . S
C497 C238 0.542 . S
C521 C106 0.634 . S
C529 C252 0.669 . S
C553 C172 0.571 . S
C561 C54 0.478 . S
C585 C219 0.414 . S
C593 C73 0.539 . S
C617 C21 0.658 . S
C625 C139 0.669 . S
C649 N13 1.803 . S
C657 N2 1.802 . S
C681 N46 1.825 . S
C689 N35 1.795 1_545 S
C713 N79 1.797 . S
C721 N68 1.804 . S
C745 N112 1.781 1_565 S
C753 N101 1.814 . S
C777 N134 1.782 . S
C785 N145 1.815 . S
C809 N178 1.819 1_545 S
C817 N167 1.796 . S
C841 N211 1.817 . S
C849 N200 1.799 . S
C873 N233 1.791 1_565 S
C881 N244 1.809 . S
