# Generated by pormake.
# Topology smc, (6)-cn, num edge types: 1
# Building blocks:
#     Node 0, Type 0, BuildingBlock: BETDEL_clean_sbu_0, # of connection points: 6
#     Node 1, Type 0, BuildingBlock: BETDEL_clean_sbu_0, # of connection points: 6
#     Node 2, Type 0, BuildingBlock: BETDEL_clean_sbu_0, # of connection points: 6
#     Node 3, Type 0, BuildingBlock: BETDEL_clean_sbu_0, # of connection points: 6
#     Node 4, Type 0, BuildingBlock: BETDEL_clean_sbu_0, # of connection points: 6
#     Node 5, Type 0, BuildingBlock: BETDEL_clean_sbu_0, # of connection points: 6
#     Node 6, Type 0, BuildingBlock: BETDEL_clean_sbu_0, # of connection points: 6
#     Node 7, Type 0, BuildingBlock: BETDEL_clean_sbu_0, # of connection points: 6
#     Node 8, Type 0, BuildingBlock: BETDEL_clean_sbu_0, # of connection points: 6
#     Edge 9, Type (0, 0), BuildingBlock: KIFKEQ_clean_linker_1, # of connection points: 2
#     Edge 10, Type (0, 0), BuildingBlock: KIFKEQ_clean_linker_1, # of connection points: 2
#     Edge 11, Type (0, 0), BuildingBlock: KIFKEQ_clean_linker_1, # of connection points: 2
#     Edge 12, Type (0, 0), BuildingBlock: KIFKEQ_clean_linker_1, # of connection points: 2
#     Edge 13, Type (0, 0), BuildingBlock: KIFKEQ_clean_linker_1, # of connection points: 2
#     Edge 14, Type (0, 0), BuildingBlock: KIFKEQ_clean_linker_1, # of connection points: 2
#     Edge 15, Type (0, 0), BuildingBlock: KIFKEQ_clean_linker_1, # of connection points: 2
#     Edge 16, Type (0, 0), BuildingBlock: KIFKEQ_clean_linker_1, # of connection points: 2
#     Edge 17, Type (0, 0), BuildingBlock: KIFKEQ_clean_linker_1, # of connection points: 2
#     Edge 18, Type (0, 0), BuildingBlock: KIFKEQ_clean_linker_1, # of connection points: 2
#     Edge 19, Type (0, 0), BuildingBlock: KIFKEQ_clean_linker_1, # of connection points: 2
#     Edge 20, Type (0, 0), BuildingBlock: KIFKEQ_clean_linker_1, # of connection points: 2
#     Edge 21, Type (0, 0), BuildingBlock: KIFKEQ_clean_linker_1, # of connection points: 2
#     Edge 22, Type (0, 0), BuildingBlock: KIFKEQ_clean_linker_1, # of connection points: 2
#     Edge 23, Type (0, 0), BuildingBlock: KIFKEQ_clean_linker_1, # of connection points: 2
#     Edge 24, Type (0, 0), BuildingBlock: KIFKEQ_clean_linker_1, # of connection points: 2
#     Edge 25, Type (0, 0), BuildingBlock: KIFKEQ_clean_linker_1, # of connection points: 2
#     Edge 26, Type (0, 0), BuildingBlock: KIFKEQ_clean_linker_1, # of connection points: 2
#     Edge 27, Type (0, 0), BuildingBlock: KIFKEQ_clean_linker_1, # of connection points: 2
#     Edge 28, Type (0, 0), BuildingBlock: KIFKEQ_clean_linker_1, # of connection points: 2
#     Edge 29, Type (0, 0), BuildingBlock: KIFKEQ_clean_linker_1, # of connection points: 2
#     Edge 30, Type (0, 0), BuildingBlock: KIFKEQ_clean_linker_1, # of connection points: 2
#     Edge 31, Type (0, 0), BuildingBlock: KIFKEQ_clean_linker_1, # of connection points: 2
#     Edge 32, Type (0, 0), BuildingBlock: KIFKEQ_clean_linker_1, # of connection points: 2
#     Edge 33, Type (0, 0), BuildingBlock: KIFKEQ_clean_linker_1, # of connection points: 2
#     Edge 34, Type (0, 0), BuildingBlock: KIFKEQ_clean_linker_1, # of connection points: 2
#     Edge 35, Type (0, 0), BuildingBlock: KIFKEQ_clean_linker_1, # of connection points: 2
# Relax obj value: 0.154
# Max RMSD: 0.264
# Mean RMSD: 0.264
data_MOF--net-smc--node1-BETDEL_clean_sbu_0--edge1-KIFKEQ_clean_linker_1
_symmetry_space_group_name_H-M    P1
_symmetry_Int_Tables_number       1
_symmetry_cell_setting            triclinic
loop_
_symmetry_equiv_pos_as_xyz
'x, y, z'
_cell_length_a     32.364431
_cell_length_b     32.543891
_cell_length_c     39.492307
_cell_angle_alpha  89.862077
_cell_angle_beta   90.369666
_cell_angle_gamma 120.04943
loop_
_atom_site_label
_atom_site_type_symbol
_atom_site_fract_x
_atom_site_fract_y
_atom_site_fract_z
_atom_type_partial_charge
Dy0 Dy 0.05551 0.50593 1.04206 0.0
C1 C 0.89368 0.31358 1.03713 0.0
C2 C 0.11121 0.60219 1.042 0.0
Dy3 Dy 0.97455 0.39764 0.05085 0.0
O4 O 0.07842 0.57739 1.01976 0.0
O5 O 0.11456 0.57428 0.06422 0.0
O6 O 0.06697 0.48895 0.98828 0.0
O7 O 1.00034 0.44992 1.01098 0.0
C8 C 0.02427 0.45245 0.98532 0.0
C9 C 0.01475 0.4342 0.1116 0.0
O10 O 0.04212 0.39567 1.03657 0.0
O11 O 0.0987 0.4728 0.05384 0.0
O12 O 0.92961 0.31769 0.05489 0.0
O13 O 0.90296 0.35488 1.02623 0.0
O14 O 0.98004 0.39093 0.10706 0.0
O15 O 0.02229 0.45533 0.08337 0.0
O16 O 0.99414 0.51382 0.05843 0.0
O17 O 0.9324 0.43504 0.05733 0.0
C18 C 0.08677 0.42897 0.0451 0.0
C19 C 0.94847 0.48124 0.06046 0.0
Dy20 Dy 0.52363 0.55952 1.03622 0.0
C21 C 0.71682 0.60108 0.04948 0.0
C22 C 0.42672 0.52238 1.03769 0.0
Dy23 Dy 0.62459 0.58329 0.04993 0.0
O24 O 0.45426 0.54665 1.01279 0.0
O25 O 0.45237 0.51995 0.06219 0.0
O26 O 0.54278 0.58489 0.98259 0.0
O27 O 0.57716 0.55276 1.00683 0.0
C28 C 0.57641 0.57436 0.98045 0.0
C29 C 0.57563 0.57643 0.10744 0.0
O30 O 0.63432 0.656 1.03668 0.0
O31 O 0.55556 0.63641 0.04599 0.0
O32 O 0.69388 0.60168 0.0761 0.0
O33 O 0.69023 0.59369 1.0229 0.0
O34 O 0.60387 0.55929 0.10351 0.0
O35 O 0.57303 0.59358 0.07924 0.0
O36 O 0.51194 0.48739 0.04742 0.0
O37 O 0.59013 0.50415 0.04563 0.0
C38 C 0.60071 0.66806 1.03985 0.0
C39 C 0.54384 0.47354 0.04756 0.0
Dy40 Dy 0.45896 0.96096 1.04289 0.0
C41 C 0.43593 0.12605 0.0603 0.0
C42 C 0.49379 0.90002 0.04417 0.0
Dy43 Dy 0.43682 0.0431 0.05962 0.0
O44 O 0.469 0.90353 1.01948 0.0
O45 O 0.49775 0.92832 0.06869 0.0
O46 O 0.43447 0.95918 0.98936 0.0
O47 O 0.46482 0.0231 1.01664 0.0
C48 C 0.44359 1.0029 0.98948 0.0
C49 C 0.42554 0.99102 0.11588 0.0
O50 O 0.36488 0.98272 1.04308 0.0
O51 O 0.38125 0.92111 0.0531 0.0
O52 O 0.41386 0.09286 1.03757 0.0
O53 O 0.45666 0.11291 0.0825 0.0
O54 O 0.41802 0.02655 0.11475 0.0
O55 O 0.43885 0.98629 0.08691 0.0
O56 O 0.53306 0.02108 0.04993 0.0
O57 O 0.51717 0.08265 0.05753 0.0
C58 C 0.35133 0.93687 0.04645 0.0
C59 C 0.54732 0.06641 0.05473 0.0
Dy60 Dy 0.72079 0.83339 0.37446 0.0
C61 C 0.56781 0.6424 0.38474 0.0
C62 C 0.78184 0.92954 0.37304 0.0
Dy63 Dy 0.64325 0.73353 0.38647 0.0
O64 O 0.75796 0.90353 0.34739 0.0
O65 O 0.77347 0.90282 0.39956 0.0
O66 O 0.72933 0.81261 0.3219 0.0
O67 O 0.66114 0.78069 0.3436 0.0
C68 C 0.68461 0.78077 0.31815 0.0
C69 C 0.68309 0.781 0.44476 0.0
O70 O 0.70632 0.72311 0.37431 0.0
O71 O 0.76679 0.80189 0.38098 0.0
O72 O 0.59228 0.66421 0.41155 0.0
O73 O 0.58668 0.66945 0.35857 0.0
O74 O 0.63769 0.75308 0.43969 0.0
O75 O 0.70465 0.78405 0.41741 0.0
O76 O 0.66171 0.84536 0.39003 0.0
O77 O 0.59943 0.76918 0.38181 0.0
C78 C 0.75236 0.75646 0.37631 0.0
C79 C 0.61572 0.81486 0.38711 0.0
Dy80 Dy 0.18846 0.88584 0.37905 0.0
C81 C 0.38094 0.93089 0.3924 0.0
C82 C 0.09261 0.85479 0.37905 0.0
Dy83 Dy 0.29286 0.9227 0.39003 0.0
O84 O 0.12177 0.87928 0.35491 0.0
O85 O 0.11615 0.84898 0.40342 0.0
O86 O 0.19481 0.85186 0.32999 0.0
O87 O 0.25074 0.91641 0.34631 0.0
C88 C 0.23832 0.88512 0.3241 0.0
C89 C 0.2522 0.93583 0.44411 0.0
O90 O 0.29627 0.99086 0.37402 0.0
O91 O 0.21572 0.96342 0.38458 0.0
O92 O 0.35221 0.92064 0.41775 0.0
O93 O 0.36248 0.93904 0.36561 0.0
O94 O 0.29588 0.96407 0.43478 0.0
O95 O 0.23261 0.89864 0.42556 0.0
O96 O 0.18283 0.82018 0.39865 0.0
O97 O 0.2605 0.84265 0.38608 0.0
C98 C 0.25957 0.99811 0.37797 0.0
C99 C 0.21663 0.80972 0.39449 0.0
Dy100 Dy 0.1383 0.3117 0.37468 0.0
C101 C 0.09678 0.45912 0.38722 0.0
C102 C 0.1662 0.24516 0.37138 0.0
Dy103 Dy 0.10249 0.37819 0.38745 0.0
O104 O 0.18272 0.28295 0.35284 0.0
O105 O 0.13344 0.24297 0.3914 0.0
O106 O 0.16926 0.35126 0.32502 0.0
O107 O 0.10544 0.3427 0.34279 0.0
C108 C 0.13581 0.36146 0.31996 0.0
C109 C 0.09076 0.32382 0.4408 0.0
O110 O 0.03236 0.31456 0.37155 0.0
O111 O 0.06007 0.26074 0.37346 0.0
O112 O 0.09522 0.43523 0.41399 0.0
O113 O 0.09887 0.4373 0.3604 0.0
O114 O 0.06196 0.33893 0.43205 0.0
O115 O 0.12798 0.34205 0.42215 0.0
O116 O 0.20176 0.36749 0.40099 0.0
O117 O 0.18345 0.42442 0.3859 0.0
C118 C 0.02506 0.27045 0.37071 0.0
C119 C 0.21493 0.41223 0.39603 0.0
Dy120 Dy 0.39353 0.17328 0.7085 0.0
C121 C 0.24317 0.98234 0.71977 0.0
C122 C 0.45432 0.26928 0.7072 0.0
Dy123 Dy 0.31616 0.0744 0.7229 0.0
O124 O 0.45166 0.23975 0.68407 0.0
O125 O 0.42494 0.24618 0.73153 0.0
O126 O 0.39652 0.15055 0.65501 0.0
O127 O 0.33117 0.12085 0.68007 0.0
C128 C 0.3514 0.11933 0.65344 0.0
C129 C 0.35879 0.12319 0.78034 0.0
O130 O 0.37955 0.06437 0.70985 0.0
O131 O 0.43894 0.14221 0.71992 0.0
O132 O 0.26495 0.00458 0.74728 0.0
O133 O 0.26291 0.00979 0.69391 0.0
O134 O 0.31317 0.09505 0.77642 0.0
O135 O 0.37872 0.12546 0.75232 0.0
O136 O 0.33439 0.18684 0.72068 0.0
O137 O 0.27165 0.10956 0.7199 0.0
C138 C 0.42548 0.09739 0.7136 0.0
C139 C 0.28833 0.15587 0.72162 0.0
Dy140 Dy 0.85871 0.22302 0.707 0.0
C141 C 0.05014 0.26635 0.72349 0.0
C142 C 0.7618 0.18515 0.70762 0.0
Dy143 Dy 0.95761 0.2466 0.72096 0.0
O144 O 0.78917 0.20675 0.68203 0.0
O145 O 0.78756 0.18579 0.73314 0.0
O146 O 0.87904 0.2466 0.65294 0.0
O147 O 0.91075 0.21289 0.67834 0.0
C148 C 0.91086 0.23359 0.65137 0.0
C149 C 0.91023 0.24285 0.77816 0.0
O150 O 0.96806 0.31914 0.70622 0.0
O151 O 0.8892 0.30035 0.713 0.0
O152 O 0.0223 0.25699 0.74924 0.0
O153 O 0.02809 0.2673 0.69615 0.0
O154 O 0.93684 0.22386 0.7745 0.0
O155 O 0.90751 0.25995 0.74997 0.0
O156 O 0.84693 0.15196 0.72282 0.0
O157 O 0.92361 0.16759 0.71454 0.0
C158 C 0.93452 0.33151 0.70723 0.0
C159 C 0.87802 0.13727 0.72033 0.0
Dy160 Dy 0.80968 0.63972 0.70499 0.0
C161 C 0.76517 0.78856 0.71145 0.0
C162 C 0.8467 0.58021 0.7048 0.0
Dy163 Dy 0.78404 0.71558 0.71573 0.0
O164 O 0.84984 0.60809 0.68021 0.0
O165 O 0.82233 0.584 0.72942 0.0
O166 O 0.78305 0.63291 0.65127 0.0
O167 O 0.81749 0.69961 0.67473 0.0
C168 C 0.79602 0.6775 0.64824 0.0
C169 C 0.78831 0.67409 0.77442 0.0
O170 O 0.71165 0.65186 0.70147 0.0
O171 O 0.73159 0.59257 0.70806 0.0
O172 O 0.76488 0.76682 0.73909 0.0
O173 O 0.7733 0.76865 0.68591 0.0
O174 O 0.80483 0.71927 0.77034 0.0
O175 O 0.77273 0.65426 0.74597 0.0
O176 O 0.87789 0.69879 0.72596 0.0
O177 O 0.86373 0.75958 0.71279 0.0
C178 C 0.69989 0.60623 0.70268 0.0
C179 C 0.89321 0.74436 0.72167 0.0
H180 H 0.36848 0.52565 0.98856 0.0
H181 H 0.36592 0.46317 0.08559 0.0
H182 H 0.2813 0.48727 0.98916 0.0
H183 H 0.27895 0.42391 0.0859 0.0
H184 H 0.14727 0.44463 0.09647 0.0
H185 H 0.22649 0.45583 0.09331 0.0
H186 H 0.20215 0.41246 0.98837 0.0
H187 H 0.12063 0.39981 0.99216 0.0
C188 C 0.3492 0.50334 1.00985 0.0
C189 C 0.37396 0.49808 1.03732 0.0
C190 C 0.29923 0.48081 1.00998 0.0
C191 C 0.27304 0.45247 1.03758 0.0
C192 C 0.29798 0.44585 0.0644 0.0
C193 C 0.34783 0.46849 0.06431 0.0
C194 C 0.15741 0.43447 0.07332 0.0
C195 C 0.12697 0.41972 0.04495 0.0
C196 C 0.20341 0.44154 0.07133 0.0
C197 C 0.22097 0.43525 1.04056 0.0
C198 C 0.1897 0.4178 1.01245 0.0
C199 C 0.14283 0.40978 1.0147 0.0
H200 H 0.48466 0.8356 0.99646 0.0
H201 H 0.56108 0.90467 0.08809 0.0
H202 H 0.52696 0.79125 0.99395 0.0
H203 H 0.60494 0.86189 0.08502 0.0
H204 H 0.60343 0.71828 0.09439 0.0
H205 H 0.587 0.78296 0.09421 0.0
H206 H 0.60057 0.7919 0.98522 0.0
H207 H 0.61632 0.72566 0.98578 0.0
C208 C 0.51079 0.84147 1.01593 0.0
C209 C 0.51904 0.87288 1.04277 0.0
C210 C 0.53564 0.81665 1.01424 0.0
C211 C 0.56966 0.82308 1.03921 0.0
C212 C 0.57866 0.85558 0.06558 0.0
C213 C 0.55344 0.88 0.06742 0.0
C214 C 0.60571 0.73582 0.07061 0.0
C215 C 0.6122 0.71771 1.0402 0.0
C216 C 0.59577 0.77283 0.0704 0.0
C217 C 0.5916 0.79228 1.03963 0.0
C218 C 0.60265 0.77711 1.00934 0.0
C219 C 0.61268 0.73991 1.00963 0.0
H220 H 0.2776 0.90356 0.09103 0.0
H221 H 0.31571 0.88463 0.99027 0.0
H222 H 0.20996 0.82203 0.09016 0.0
H223 H 0.24757 0.80412 0.98873 0.0
H224 H 0.112 0.66169 0.99342 0.0
H225 H 0.15842 0.74839 0.99274 0.0
H226 H 0.21807 0.74731 0.09065 0.0
H227 H 0.17171 0.66045 0.09125 0.0
C228 C 0.27018 0.88264 0.06819 0.0
C229 C 0.30168 0.8999 1.04077 0.0
C230 C 0.2318 0.83599 0.06776 0.0
C231 C 0.22411 0.80655 1.03961 0.0
C232 C 0.25251 0.82597 1.01073 0.0
C233 C 0.29126 0.87218 1.01144 0.0
C234 C 0.13486 0.68003 1.01487 0.0
C235 C 0.13874 0.65449 1.04226 0.0
C236 C 0.16122 0.72958 1.01451 0.0
C237 C 0.19151 0.75455 1.04173 0.0
C238 C 0.19436 0.72898 0.06957 0.0
C239 C 0.16835 0.67934 0.06975 0.0
H240 H 0.48286 0.19474 0.10676 0.0
H241 H 0.40944 0.16773 1.01054 0.0
H242 H 0.50795 0.27849 0.10223 0.0
H243 H 0.4345 0.25249 1.00617 0.0
H244 H 0.45297 0.40132 1.03606 0.0
H245 H 0.42346 0.31615 1.03809 0.0
H246 H 0.5654 0.34381 0.06231 0.0
H247 H 0.59526 0.42921 0.06018 0.0
C248 C 0.47155 0.20666 0.08479 0.0
C249 C 0.44431 0.17484 0.05892 0.0
C250 C 0.48629 0.25469 0.08212 0.0
C251 C 0.47379 0.27197 0.05364 0.0
C252 C 0.44463 0.23991 1.02837 0.0
C253 C 0.43018 0.19157 1.0309 0.0
C254 C 0.47799 0.38932 1.0418 0.0
C255 C 0.52647 0.42203 0.04825 0.0
C256 C 0.46105 0.34055 1.04268 0.0
C257 C 0.49209 0.32354 0.05047 0.0
C258 C 0.54064 0.35614 0.05653 0.0
C259 C 0.55775 0.40495 0.05524 0.0
H260 H 0.62046 0.04705 0.05237 0.0
H261 H 0.59198 0.16345 0.05484 0.0
H262 H 0.70547 0.10335 0.04604 0.0
H263 H 0.67696 0.2195 0.04893 0.0
H264 H 0.81949 0.3029 0.99885 0.0
H265 H 0.73623 0.24091 1.00337 0.0
H266 H 0.77533 0.16793 0.07716 0.0
H267 H 0.85928 0.2302 0.07231 0.0
C268 C 0.63228 0.08462 0.05184 0.0
C269 C 0.59926 0.1007 0.05388 0.0
C270 C 0.68105 0.11682 0.04832 0.0
C271 C 0.69779 0.16574 0.04656 0.0
C272 C 0.66498 0.18189 0.04954 0.0
C273 C 0.61629 0.14977 0.05322 0.0
C274 C 0.81045 0.27318 1.01559 0.0
C275 C 0.84567 0.2714 1.0354 0.0
C276 C 0.76272 0.23795 1.01842 0.0
C277 C 0.74915 0.20013 1.04115 0.0
C278 C 0.78477 0.19674 0.05947 0.0
C279 C 0.83276 0.23221 0.05664 0.0
H280 H 0.965 0.56597 0.08619 0.0
H281 H 0.85481 0.43634 1.04042 0.0
H282 H 0.91222 0.59939 0.08371 0.0
H283 H 0.80223 0.47015 1.03769 0.0
H284 H 0.74977 0.56928 0.99855 0.0
H285 H 0.80596 0.54008 1.00357 0.0
H286 H 0.83175 0.58404 0.10827 0.0
H287 H 0.77486 0.61267 0.10343 0.0
C288 C 0.9293 0.54438 0.07598 0.0
C289 C 0.91407 0.49847 0.06348 0.0
C290 C 0.89914 0.56358 0.07458 0.0
C291 C 0.85342 0.53761 0.06011 0.0
C292 C 0.83761 0.49119 0.04855 0.0
C293 C 0.86749 0.47164 0.05047 0.0
C294 C 0.76817 0.57363 1.02244 0.0
C295 C 0.75801 0.59327 0.05061 0.0
C296 C 0.79986 0.55638 1.02541 0.0
C297 C 0.82256 0.5591 0.05646 0.0
C298 C 0.81462 0.58138 0.08408 0.0
C299 C 0.7823 0.59797 0.08125 0.0
H300 H 0.79906 0.74943 0.43027 0.0
H301 H 0.79475 0.74435 0.32129 0.0
H302 H 0.8812 0.76646 0.42985 0.0
H303 H 0.8769 0.75967 0.32043 0.0
H304 H 0.03795 0.8684 0.3323 0.0
H305 H 0.95101 0.83012 0.3303 0.0
H306 H 0.94199 0.74886 0.41958 0.0
H307 H 0.02881 0.78881 0.42224 0.0
C308 C 0.81498 0.74917 0.40626 0.0
C309 C 0.79049 0.74468 0.37586 0.0
C310 C 0.86234 0.75936 0.40591 0.0
C311 C 0.88626 0.76539 0.37504 0.0
C312 C 0.86001 0.75634 0.34465 0.0
C313 C 0.8126 0.7464 0.34507 0.0
C314 C 0.01724 0.84244 0.35148 0.0
C315 C 0.04006 0.83204 0.37765 0.0
C316 C 0.96735 0.81992 0.35013 0.0
C317 C 0.93916 0.78607 0.37472 0.0
C318 C 0.96232 0.77511 0.40048 0.0
C319 C 0.01214 0.79803 0.40202 0.0
H320 H 0.23568 0.24825 0.33116 0.0
H321 H 0.14014 0.16873 0.41244 0.0
H322 H 0.26995 0.19622 0.33309 0.0
H323 H 0.17382 0.11633 0.41414 0.0
H324 H 0.26459 0.05205 0.43097 0.0
H325 H 0.24767 0.11727 0.42956 0.0
H326 H 0.24592 0.11308 0.32016 0.0
H327 H 0.26355 0.04816 0.32193 0.0
C328 C 0.22187 0.21946 0.34932 0.0
C329 C 0.18519 0.21234 0.37161 0.0
C330 C 0.24149 0.18972 0.35042 0.0
C331 C 0.22498 0.15245 0.37397 0.0
C332 C 0.18805 0.14532 0.39615 0.0
C333 C 0.16836 0.17495 0.39496 0.0
C334 C 0.26251 0.06654 0.40671 0.0
C335 C 0.26608 0.04594 0.37656 0.0
C336 C 0.25209 0.10329 0.40584 0.0
C337 C 0.24455 0.11973 0.37475 0.0
C338 C 0.25175 0.1014 0.34451 0.0
C339 C 0.26222 0.06455 0.34544 0.0
H340 H 0.99274 0.21188 0.31711 0.0
H341 H 0.95307 0.2338 0.41649 0.0
H342 H 0.92724 0.13015 0.31735 0.0
H343 H 0.88651 0.15161 0.4169 0.0
H344 H 0.835 0.98936 0.42441 0.0
H345 H 0.88482 0.07586 0.42215 0.0
H346 H 0.84306 0.074 0.31775 0.0
H347 H 0.79441 0.98769 0.31989 0.0
C348 C 0.96838 0.19965 0.33833 0.0
C349 C 0.9771 0.22917 0.36644 0.0
C350 C 0.93096 0.15271 0.33863 0.0
C351 C 0.9018 0.13405 0.36731 0.0
C352 C 0.90866 0.16472 0.39458 0.0
C353 C 0.94608 0.21198 0.39413 0.0
C354 C 0.8365 0.00758 0.40105 0.0
C355 C 0.81138 0.98185 0.37222 0.0
C356 C 0.86456 0.05716 0.39983 0.0
C357 C 0.86793 0.08199 0.36975 0.0
C358 C 0.84173 0.05606 0.3412 0.0
C359 C 0.81388 0.00659 0.34242 0.0
H360 H 0.25961 0.76426 0.3651 0.0
H361 H 0.14085 0.74052 0.42795 0.0
H362 H 0.2286 0.6783 0.3632 0.0
H363 H 0.10992 0.65549 0.42572 0.0
H364 H 0.09716 0.50971 0.44192 0.0
H365 H 0.12917 0.59527 0.44522 0.0
H366 H 0.15682 0.60722 0.33773 0.0
H367 H 0.12497 0.52144 0.33452 0.0
C368 C 0.22741 0.74082 0.37888 0.0
C369 C 0.20266 0.75908 0.39662 0.0
C370 C 0.20934 0.69168 0.37747 0.0
C371 C 0.1666 0.66018 0.39411 0.0
C372 C 0.14301 0.67878 0.41281 0.0
C373 C 0.16074 0.72756 0.41398 0.0
C374 C 0.1093 0.53053 0.41892 0.0
C375 C 0.10837 0.50902 0.38796 0.0
C376 C 0.12781 0.57951 0.42081 0.0
C377 C 0.14602 0.60802 0.39179 0.0
C378 C 0.1438 0.58625 0.36061 0.0
C379 C 0.12494 0.53713 0.35868 0.0
H380 H 0.28438 0.40185 0.42725 0.0
H381 H 0.26246 0.50157 0.36849 0.0
H382 H 0.3704 0.45424 0.424 0.0
H383 H 0.34901 0.55442 0.3655 0.0
H384 H 0.50312 0.60811 0.333 0.0
H385 H 0.41733 0.5529 0.33738 0.0
H386 H 0.43472 0.53251 0.44351 0.0
H387 H 0.52048 0.58757 0.43906 0.0
C388 C 0.29792 0.43531 0.41401 0.0
C389 C 0.26655 0.44753 0.39807 0.0
C390 C 0.34728 0.46535 0.4122 0.0
C391 C 0.36654 0.5082 0.39418 0.0
C392 C 0.3352 0.5212 0.3791 0.0
C393 C 0.28565 0.49126 0.38117 0.0
C394 C 0.48873 0.59101 0.35707 0.0
C395 C 0.51844 0.60201 0.38569 0.0
C396 C 0.43953 0.55995 0.35969 0.0
C397 C 0.41914 0.53896 0.39091 0.0
C398 C 0.44932 0.54807 0.4191 0.0
C399 C 0.49846 0.57942 0.41653 0.0
H400 H 0.40769 0.89389 0.44371 0.0
H401 H 0.4437 0.94568 0.34115 0.0
H402 H 0.4651 0.86623 0.44178 0.0
H403 H 0.50243 0.91884 0.33964 0.0
H404 H 0.63617 0.90513 0.37372 0.0
H405 H 0.58187 0.93678 0.37452 0.0
H406 H 0.46614 0.79906 0.40319 0.0
H407 H 0.52026 0.76679 0.40174 0.0
C408 C 0.42858 0.90021 0.42096 0.0
C409 C 0.42131 0.92195 0.39254 0.0
C410 C 0.46107 0.88398 0.41982 0.0
C411 C 0.4876 0.88996 0.39046 0.0
C412 C 0.4822 0.91381 0.36255 0.0
C413 C 0.44889 0.92931 0.36345 0.0
C414 C 0.59914 0.88152 0.38023 0.0
C415 C 0.58244 0.83348 0.38788 0.0
C416 C 0.56812 0.89966 0.38044 0.0
C417 C 0.52005 0.87036 0.38897 0.0
C418 C 0.50324 0.82236 0.3967 0.0
C419 C 0.53408 0.80392 0.3958 0.0
H420 H 0.70149 0.12744 0.7562 0.0
H421 H 0.70349 0.18617 0.65773 0.0
H422 H 0.61454 0.08794 0.75658 0.0
H423 H 0.61642 0.14796 0.65847 0.0
H424 H 0.45739 0.06545 0.6616 0.0
H425 H 0.5377 0.07519 0.65845 0.0
H426 H 0.56207 0.11904 0.76335 0.0
H427 H 0.48362 0.10998 0.766 0.0
C428 C 0.68324 0.1319 0.73463 0.0
C429 C 0.70915 0.1605 0.7072 0.0
C430 C 0.63344 0.10914 0.73477 0.0
C431 C 0.6084 0.11489 0.70763 0.0
C432 C 0.6344 0.14215 0.67958 0.0
C433 C 0.68431 0.16462 0.67934 0.0
C434 C 0.47924 0.07476 0.6843 0.0
C435 C 0.4638 0.08564 0.71432 0.0
C436 C 0.52544 0.08114 0.68241 0.0
C437 C 0.5565 0.09818 0.71062 0.0
C438 C 0.53912 0.1051 0.74128 0.0
C439 C 0.49363 0.09939 0.74297 0.0
H440 H 0.92183 0.37117 0.65136 0.0
H441 H 0.96631 0.39954 0.75581 0.0
H442 H 0.90882 0.43873 0.65065 0.0
H443 H 0.95395 0.4679 0.75534 0.0
H444 H 0.84427 0.52107 0.7549 0.0
H445 H 0.88003 0.47043 0.7544 0.0
H446 H 0.9372 0.52275 0.65488 0.0
H447 H 0.90055 0.57259 0.65523 0.0
C448 C 0.93124 0.39357 0.67364 0.0
C449 C 0.94593 0.38092 0.70341 0.0
C450 C 0.92344 0.4321 0.67339 0.0
C451 C 0.92963 0.45841 0.70311 0.0
C452 C 0.94811 0.44793 0.73217 0.0
C453 C 0.95607 0.40939 0.73233 0.0
C454 C 0.86463 0.52181 0.73301 0.0
C455 C 0.86924 0.55036 0.70499 0.0
C456 C 0.88563 0.49323 0.73284 0.0
C457 C 0.91174 0.49261 0.70463 0.0
C458 C 0.91706 0.52203 0.67689 0.0
C459 C 0.89606 0.55058 0.67709 0.0
H460 H 0.6473 0.55841 0.75632 0.0
H461 H 0.6439 0.564 0.64744 0.0
H462 H 0.58 0.47844 0.75567 0.0
H463 H 0.5751 0.48311 0.64637 0.0
H464 H 0.52114 0.32172 0.65983 0.0
H465 H 0.57005 0.40798 0.65666 0.0
H466 H 0.49933 0.4208 0.74517 0.0
H467 H 0.45182 0.33446 0.74889 0.0
C468 C 0.63021 0.54348 0.7323 0.0
C469 C 0.64993 0.56786 0.70202 0.0
C470 C 0.59169 0.49718 0.73183 0.0
C471 C 0.57227 0.47387 0.70093 0.0
C472 C 0.58965 0.49974 0.67061 0.0
C473 C 0.62838 0.54634 0.67116 0.0
C474 C 0.51612 0.34309 0.67855 0.0
C475 C 0.48331 0.3215 0.7049 0.0
C476 C 0.54365 0.39258 0.67649 0.0
C477 C 0.53867 0.42158 0.70063 0.0
C478 C 0.50462 0.3997 0.7264 0.0
C479 C 0.47742 0.35022 0.72859 0.0
H480 H 0.79503 0.85066 0.65869 0.0
H481 H 0.75063 0.83517 0.76304 0.0
H482 H 0.82089 0.93526 0.66112 0.0
H483 H 0.77613 0.91969 0.76538 0.0
H484 H 0.79217 0.06735 0.74367 0.0
H485 H 0.75923 0.98165 0.74011 0.0
H486 H 0.8891 1.00414 0.69327 0.0
H487 H 0.92232 0.09006 0.6969 0.0
C488 C 0.78972 0.86511 0.68188 0.0
C489 C 0.77087 0.83645 0.71071 0.0
C490 C 0.80503 0.9136 0.68337 0.0
C491 C 0.80115 0.93414 0.71358 0.0
C492 C 0.77954 0.90481 0.74177 0.0
C493 C 0.76481 0.85645 0.7404 0.0
C494 C 0.81387 0.05406 0.73279 0.0
C495 C 0.85991 0.08552 0.72058 0.0
C496 C 0.79496 0.00498 0.7308 0.0
C497 C 0.8214 0.98625 0.71612 0.0
C498 C 0.86765 0.01764 0.70427 0.0
C499 C 0.88686 0.0668 0.70667 0.0
H500 H 0.94208 0.83508 0.69738 0.0
H501 H 0.96197 0.72956 0.74997 0.0
H502 H 0.02847 0.88789 0.69615 0.0
H503 H 0.0484 0.78265 0.74882 0.0
H504 H 0.195 0.92349 0.77231 0.0
H505 H 0.11012 0.86339 0.77349 0.0
H506 H 0.09821 0.88657 0.66705 0.0
H507 H 0.18299 0.94627 0.66579 0.0
C508 C 0.96481 0.82333 0.70898 0.0
C509 C 0.94516 0.77812 0.72375 0.0
C510 C 0.01427 0.85337 0.70796 0.0
C511 C 0.04508 0.83908 0.72205 0.0
C512 C 0.02545 0.7945 0.73775 0.0
C513 C 0.976 0.76418 0.73837 0.0
C514 C 0.17446 0.91482 0.74902 0.0
C515 C 0.19543 0.93954 0.719 0.0
C516 C 0.12592 0.88057 0.74971 0.0
C517 C 0.09751 0.87096 0.72049 0.0
C518 C 0.11916 0.89389 0.69006 0.0
C519 C 0.16775 0.92766 0.68927 0.0
H520 H 0.19549 0.11107 0.74302 0.0
H521 H 0.30646 0.24307 0.70108 0.0
H522 H 0.14177 0.14384 0.74417 0.0
H523 H 0.25254 0.27509 0.70168 0.0
H524 H 0.10887 0.27563 0.67093 0.0
H525 H 0.16922 0.25099 0.67073 0.0
H526 H 0.14504 0.21745 0.77712 0.0
H527 H 0.08589 0.24302 0.77764 0.0
C528 C 0.20829 0.14688 0.73399 0.0
C529 C 0.25516 0.17457 0.72218 0.0
C530 C 0.17774 0.16565 0.73477 0.0
C531 C 0.1933 0.21197 0.72308 0.0
C532 C 0.23981 0.2393 0.71075 0.0
C533 C 0.27061 0.22097 0.71061 0.0
C534 C 0.11747 0.26422 0.69441 0.0
C535 C 0.09281 0.2612 0.72427 0.0
C536 C 0.15167 0.24991 0.69426 0.0
C537 C 0.16096 0.23167 0.72381 0.0
C538 C 0.1379 0.23077 0.75395 0.0
C539 C 0.10445 0.24583 0.75426 0.0
H540 H 0.19135 0.39479 0.26267 0.0
H541 H 0.06321 0.37868 0.30819 0.0
H542 H 0.17439 0.42677 0.21128 0.0
H543 H 0.04705 0.41138 0.25776 0.0
H544 H 0.03469 0.48957 0.1686 0.0
H545 H 0.07413 0.48285 0.22015 0.0
H546 H 0.10896 0.38806 0.1676 0.0
H547 H 0.06844 0.39366 0.11725 0.0
C548 C 0.16011 0.39882 0.26195 0.0
C549 C 0.12876 0.38435 0.28956 0.0
C550 C 0.15041 0.4172 0.23259 0.0
C551 C 0.10956 0.42212 0.2305 0.0
C552 C 0.07931 0.40912 0.25867 0.0
C553 C 0.08854 0.39012 0.28761 0.0
C554 C 0.05275 0.46915 0.1678 0.0
C555 C 0.05035 0.44373 0.1385 0.0
C556 C 0.07481 0.46477 0.19735 0.0
C557 C 0.09493 0.435 0.198 0.0
C558 C 0.09487 0.41204 0.16794 0.0
C559 C 0.07209 0.41569 0.13888 0.0
H560 H 0.59058 0.71659 0.30275 0.0
H561 H 0.73406 0.7735 0.26552 0.0
H562 H 0.55956 0.66465 0.25282 0.0
H563 H 0.70333 0.7226 0.21577 0.0
H564 H 0.63388 0.67037 0.11415 0.0
H565 H 0.65592 0.71847 0.16528 0.0
H566 H 0.56161 0.59432 0.2236 0.0
H567 H 0.53859 0.54598 0.17143 0.0
C568 C 0.61548 0.71773 0.28409 0.0
C569 C 0.66481 0.74906 0.28816 0.0
C570 C 0.59772 0.68801 0.2555 0.0
C571 C 0.62889 0.68963 0.23015 0.0
C572 C 0.67819 0.72086 0.2345 0.0
C573 C 0.69587 0.75004 0.26309 0.0
C574 C 0.61649 0.65362 0.13765 0.0
C575 C 0.58332 0.60478 0.1386 0.0
C576 C 0.62983 0.68101 0.16712 0.0
C577 C 0.61079 0.6603 0.19865 0.0
C578 C 0.57665 0.61145 0.19966 0.0
C579 C 0.56343 0.58378 0.1699 0.0
H580 H 0.46673 1.00177 0.17742 0.0
H581 H 0.34263 0.90672 0.11916 0.0
H582 H 0.42418 0.96552 0.22957 0.0
H583 H 0.29776 0.87315 0.17107 0.0
H584 H 0.22325 0.8207 0.27288 0.0
H585 H 0.27403 0.83392 0.22329 0.0
H586 H 0.36982 0.97713 0.25802 0.0
H587 H 0.32101 0.96305 0.30721 0.0
C588 C 0.43069 0.97188 0.17578 0.0
C589 C 0.40795 0.95696 0.14424 0.0
C590 C 0.40565 0.95177 0.20574 0.0
C591 C 0.3565 0.91768 0.20495 0.0
C592 C 0.33527 0.89942 0.17313 0.0
C593 C 0.36098 0.91864 0.14315 0.0
C594 C 0.25551 0.8547 0.26984 0.0
C595 C 0.26806 0.89077 0.29399 0.0
C596 C 0.28466 0.86245 0.24139 0.0
C597 C 0.3268 0.90655 0.23643 0.0
C598 C 0.3389 0.94215 0.261 0.0
C599 C 0.31032 0.93426 0.28928 0.0
H600 H 0.46497 0.096 0.98242 0.0
H601 H 0.3978 0.96058 0.93122 0.0
H602 H 0.44771 0.13175 0.9332 0.0
H603 H 0.38134 0.996 0.88245 0.0
H604 H 0.40858 0.07792 0.78725 0.0
H605 H 0.43293 0.05511 0.83888 0.0
H606 H 0.37424 0.12487 0.89808 0.0
H607 H 0.35113 0.14935 0.84538 0.0
C608 C 0.44627 0.07386 0.96083 0.0
C609 C 0.43281 0.02548 0.96067 0.0
C610 C 0.43641 0.0943 0.9327 0.0
C611 C 0.41363 0.06683 0.90376 0.0
C612 C 0.39964 0.01836 0.90406 0.0
C613 C 0.40898 0.998 0.9321 0.0
C614 C 0.40319 0.09068 0.81111 0.0
C615 C 0.37987 0.11722 0.81213 0.0
C616 C 0.41605 0.07655 0.84084 0.0
C617 C 0.40532 0.08792 0.87265 0.0
C618 C 0.38338 0.11593 0.87393 0.0
C619 C 0.37023 0.13 0.84385 0.0
H620 H 0.0442 0.47488 0.91836 0.0
H621 H 0.96304 0.35723 0.98528 0.0
H622 H 0.00956 0.42191 0.86938 0.0
H623 H 0.92704 0.3044 0.93677 0.0
H624 H 0.9253 0.21898 0.84137 0.0
H625 H 0.95073 0.26893 0.8919 0.0
H626 H 0.93228 0.37472 0.83863 0.0
H627 H 0.90664 0.32453 0.78806 0.0
C628 C 0.01871 0.4377 0.92257 0.0
C629 C 1.00529 0.4203 0.95563 0.0
C630 C 0.99844 0.40743 0.89455 0.0
C631 C 0.96488 0.3589 0.89903 0.0
C632 C 0.95249 0.3415 0.93226 0.0
C633 C 0.97247 0.37187 0.96013 0.0
C634 C 0.92548 0.25235 0.84071 0.0
C635 C 0.9141 0.26776 0.8106 0.0
C636 C 0.94022 0.28112 0.86968 0.0
C637 C 0.94433 0.32628 0.86925 0.0
C638 C 0.93041 0.34057 0.83969 0.0
C639 C 0.91512 0.31151 0.81079 0.0
H640 H 0.69322 0.6342 0.77858 0.0
H641 H 0.81757 0.66984 0.83953 0.0
H642 H 0.64308 0.60657 0.82861 0.0
H643 H 0.76719 0.64309 0.89058 0.0
H644 H 0.6434 0.54759 0.96806 0.0
H645 H 0.6972 0.56941 0.91929 0.0
H646 H 0.63532 0.6493 0.87757 0.0
H647 H 0.58263 0.62833 0.92619 0.0
C648 C 0.70955 0.63457 0.80267 0.0
C649 C 0.75897 0.65255 0.80499 0.0
C650 C 0.68098 0.61966 0.83149 0.0
C651 C 0.70107 0.6228 0.86369 0.0
C652 C 0.75055 0.63981 0.8661 0.0
C653 C 0.77938 0.65509 0.83698 0.0
C654 C 0.64181 0.57028 0.94863 0.0
C655 C 0.60893 0.58645 0.95107 0.0
C656 C 0.67256 0.58272 0.9207 0.0
C657 C 0.67041 0.61088 0.89441 0.0
C658 C 0.63752 0.62701 0.89708 0.0
C659 C 0.60731 0.61504 0.92501 0.0
H660 H 0.77694 0.81137 0.46107 0.0
H661 H 0.63557 0.74446 0.504 0.0
H662 H 0.80661 0.79125 0.51227 0.0
H663 H 0.66503 0.72352 0.55438 0.0
H664 H 0.72369 0.63013 0.603 0.0
H665 H 0.69891 0.66304 0.55656 0.0
H666 H 0.81241 0.80384 0.58184 0.0
H667 H 0.83657 0.77091 0.62917 0.0
C668 C 0.75247 0.79346 0.48168 0.0
C669 C 0.70376 0.77925 0.47823 0.0
C670 C 0.76945 0.78181 0.51094 0.0
C671 C 0.73795 0.75519 0.53708 0.0
C672 C 0.68999 0.74355 0.53447 0.0
C673 C 0.67323 0.75585 0.50562 0.0
C674 C 0.7434 0.6681 0.59867 0.0
C675 C 0.78209 0.69793 0.61969 0.0
C676 C 0.72906 0.68697 0.5722 0.0
C677 C 0.75366 0.73603 0.56561 0.0
C678 C 0.79288 0.76591 0.58629 0.0
C679 C 0.8066 0.74709 0.61336 0.0
H680 H 0.20779 0.98147 0.46812 0.0
H681 H 0.27727 0.90399 0.49914 0.0
H682 H 0.22462 0.01997 0.52375 0.0
H683 H 0.2948 0.9428 0.55452 0.0
H684 H 0.39372 0.09167 0.60657 0.0
H685 H 0.35563 0.03405 0.56079 0.0
H686 H 0.2178 0.01086 0.59137 0.0
H687 H 0.25603 0.06806 0.6379 0.0
C688 C 0.22412 0.97058 0.48753 0.0
C689 C 0.2404 0.93908 0.47957 0.0
C690 C 0.2343 0.99305 0.51926 0.0
C691 C 0.26175 0.98497 0.54326 0.0
C692 C 0.27391 0.94998 0.53642 0.0
C693 C 0.2631 0.92708 0.50494 0.0
C694 C 0.35529 0.07416 0.60362 0.0
C695 C 0.32788 0.08445 0.62571 0.0
C696 C 0.33341 0.04084 0.57762 0.0
C697 C 0.28365 0.01761 0.57268 0.0
C698 C 0.25615 0.02808 0.59466 0.0
C699 C 0.27803 0.06078 0.6212 0.0
H700 H 0.96473 0.19257 0.63611 0.0
H701 H 0.93532 0.30215 0.60373 0.0
H702 H 0.02089 0.21248 0.58882 0.0
H703 H 0.9922 0.32288 0.55746 0.0
H704 H 0.1247 0.37847 0.49666 0.0
H705 H 0.08687 0.35551 0.55226 0.0
H706 H 1.00626 0.20977 0.51931 0.0
H707 H 0.0433 0.23314 0.46334 0.0
C708 C 0.97052 0.22105 0.61903 0.0
C709 C 0.9454 0.2456 0.62339 0.0
C710 C 1.00265 0.23245 0.5921 0.0
C711 C 0.01125 0.26952 0.5697 0.0
C712 C 0.98675 0.29454 0.57458 0.0
C713 C 0.95389 0.28242 0.60088 0.0
C714 C 0.10108 0.34115 0.50197 0.0
C715 C 0.08779 0.30741 0.47595 0.0
C716 C 0.0788 0.32812 0.5336 0.0
C717 C 0.04328 0.28094 0.53997 0.0
C718 C 0.03375 0.24631 0.51519 0.0
C719 C 0.05544 0.25956 0.48329 0.0
loop_
_geom_bond_atom_site_label_1
_geom_bond_atom_site_label_2
_geom_bond_distance
_geom_bond_site_symmetry_2
_ccdc_geom_bond_type
Dy0 O4 2.398 . S
Dy0 O5 2.491 1_556 S
Dy0 O6 2.403 . S
Dy0 O7 2.664 1_455 S
Dy0 O11 2.326 . S
Dy0 O15 2.310 1_556 S
Dy0 O16 2.351 1_456 S
C1 O12 1.185 . S
C1 O13 1.355 1_554 S
C2 O4 1.208 . S
C2 O5 1.332 1_556 S
Dy3 O7 2.310 1_554 S
Dy3 O10 2.351 1_655 S
Dy3 O12 2.398 . S
Dy3 O13 2.491 1_554 S
Dy3 O14 2.403 . S
Dy3 O15 2.664 1_655 S
Dy3 O17 2.326 . S
O4 Dy0 2.398 . S
O4 C2 1.208 . S
O5 Dy0 2.491 1_554 S
O5 C2 1.332 1_554 S
O6 Dy0 2.403 . S
O6 C8 1.253 1_455 S
O7 Dy0 2.664 1_655 S
O7 Dy3 2.310 1_556 S
O7 C8 1.268 . S
C8 O6 1.253 1_655 S
C8 O7 1.268 . S
C9 O14 1.254 1_455 S
C9 O15 1.268 . S
O10 Dy3 2.351 1_455 S
O10 C18 1.249 1_554 S
O11 Dy0 2.326 . S
O11 C18 1.267 . S
O12 C1 1.185 . S
O12 Dy3 2.398 . S
O13 C1 1.355 1_556 S
O13 Dy3 2.491 1_556 S
O14 Dy3 2.403 . S
O14 C9 1.254 1_655 S
O15 Dy0 2.310 1_554 S
O15 Dy3 2.664 1_455 S
O15 C9 1.268 . S
O16 Dy0 2.351 1_654 S
O16 C19 1.249 . S
O17 Dy3 2.326 . S
O17 C19 1.267 . S
C18 O10 1.249 1_556 S
C18 O11 1.267 . S
C19 O16 1.249 . S
C19 O17 1.267 . S
Dy20 O24 2.398 . S
Dy20 O25 2.491 1_556 S
Dy20 O26 2.403 . S
Dy20 O27 2.664 . S
Dy20 O31 2.326 . S
Dy20 O35 2.310 1_556 S
Dy20 O36 2.351 1_556 S
C21 O32 1.185 . S
C21 O33 1.355 1_554 S
C22 O24 1.208 . S
C22 O25 1.332 1_556 S
Dy23 O27 2.310 1_554 S
Dy23 O30 2.351 . S
Dy23 O32 2.398 . S
Dy23 O33 2.491 1_554 S
Dy23 O34 2.403 . S
Dy23 O35 2.664 . S
Dy23 O37 2.326 . S
O24 Dy20 2.398 . S
O24 C22 1.208 . S
O25 Dy20 2.491 1_554 S
O25 C22 1.332 1_554 S
O26 Dy20 2.403 . S
O26 C28 1.254 . S
O27 Dy20 2.664 . S
O27 Dy23 2.310 1_556 S
O27 C28 1.268 . S
C28 O26 1.254 . S
C28 O27 1.268 . S
C29 O34 1.254 . S
C29 O35 1.268 . S
O30 Dy23 2.351 . S
O30 C38 1.249 1_554 S
O31 Dy20 2.326 . S
O31 C38 1.267 . S
O32 C21 1.185 . S
O32 Dy23 2.398 . S
O33 C21 1.355 1_556 S
O33 Dy23 2.491 1_556 S
O34 Dy23 2.403 . S
O34 C29 1.254 . S
O35 Dy20 2.310 1_554 S
O35 Dy23 2.664 . S
O35 C29 1.268 . S
O36 Dy20 2.351 1_554 S
O36 C39 1.249 . S
O37 Dy23 2.326 . S
O37 C39 1.267 . S
C38 O30 1.249 1_556 S
C38 O31 1.267 . S
C39 O36 1.249 . S
C39 O37 1.267 . S
Dy40 O44 2.398 . S
Dy40 O45 2.491 1_556 S
Dy40 O46 2.403 . S
Dy40 O47 2.664 1_565 S
Dy40 O51 2.326 . S
Dy40 O55 2.310 1_556 S
Dy40 O56 2.351 1_566 S
C41 O52 1.185 . S
C41 O53 1.355 1_554 S
C42 O44 1.208 . S
C42 O45 1.332 1_556 S
Dy43 O47 2.310 1_554 S
Dy43 O50 2.351 1_545 S
Dy43 O52 2.398 . S
Dy43 O53 2.491 1_554 S
Dy43 O54 2.403 . S
Dy43 O55 2.664 1_545 S
Dy43 O57 2.326 . S
O44 Dy40 2.398 . S
O44 C42 1.208 . S
O45 Dy40 2.491 1_554 S
O45 C42 1.332 1_554 S
O46 Dy40 2.403 . S
O46 C48 1.254 1_565 S
O47 Dy40 2.664 1_545 S
O47 Dy43 2.310 1_556 S
O47 C48 1.268 . S
C48 O46 1.254 1_545 S
C48 O47 1.268 . S
C49 O54 1.238 1_565 S
C49 O55 1.275 . S
O50 Dy43 2.351 1_565 S
O50 C58 1.249 1_554 S
O51 Dy40 2.326 . S
O51 C58 1.267 . S
O52 C41 1.185 . S
O52 Dy43 2.398 . S
O53 C41 1.355 1_556 S
O53 Dy43 2.491 1_556 S
O54 Dy43 2.403 . S
O54 C49 1.238 1_545 S
O55 Dy40 2.310 1_554 S
O55 Dy43 2.664 1_565 S
O55 C49 1.275 . S
O56 Dy40 2.351 1_544 S
O56 C59 1.249 . S
O57 Dy43 2.326 . S
O57 C59 1.267 . S
C58 O50 1.249 1_556 S
C58 O51 1.267 . S
C59 O56 1.249 . S
C59 O57 1.267 . S
Dy60 O64 2.398 . S
Dy60 O65 2.491 . S
Dy60 O66 2.403 . S
Dy60 O67 2.664 . S
Dy60 O71 2.326 . S
Dy60 O75 2.310 . S
Dy60 O76 2.351 . S
C61 O72 1.185 . S
C61 O73 1.355 . S
C62 O64 1.185 . S
C62 O65 1.355 . S
Dy63 O67 2.310 . S
Dy63 O70 2.351 . S
Dy63 O72 2.398 . S
Dy63 O73 2.491 . S
Dy63 O74 2.403 . S
Dy63 O75 2.664 . S
Dy63 O77 2.326 . S
O64 Dy60 2.398 . S
O64 C62 1.185 . S
O65 Dy60 2.491 . S
O65 C62 1.355 . S
O66 Dy60 2.403 . S
O66 C68 1.254 . S
O67 Dy60 2.664 . S
O67 Dy63 2.310 . S
O67 C68 1.268 . S
C68 O66 1.254 . S
C68 O67 1.268 . S
C69 O74 1.254 . S
C69 O75 1.268 . S
O70 Dy63 2.351 . S
O70 C78 1.249 . S
O71 Dy60 2.326 . S
O71 C78 1.267 . S
O72 C61 1.185 . S
O72 Dy63 2.398 . S
O73 C61 1.355 . S
O73 Dy63 2.491 . S
O74 Dy63 2.403 . S
O74 C69 1.254 . S
O75 Dy60 2.310 . S
O75 Dy63 2.664 . S
O75 C69 1.268 . S
O76 Dy60 2.351 . S
O76 C79 1.249 . S
O77 Dy63 2.326 . S
O77 C79 1.267 . S
C78 O70 1.249 . S
C78 O71 1.267 . S
C79 O76 1.249 . S
C79 O77 1.267 . S
Dy80 O84 2.398 . S
Dy80 O85 2.491 . S
Dy80 O86 2.403 . S
Dy80 O87 2.664 . S
Dy80 O91 2.326 . S
Dy80 O95 2.310 . S
Dy80 O96 2.351 . S
C81 O92 1.185 . S
C81 O93 1.355 . S
C82 O84 1.185 . S
C82 O85 1.355 . S
Dy83 O87 2.310 . S
Dy83 O90 2.351 . S
Dy83 O92 2.398 . S
Dy83 O93 2.491 . S
Dy83 O94 2.403 . S
Dy83 O95 2.664 . S
Dy83 O97 2.326 . S
O84 Dy80 2.398 . S
O84 C82 1.185 . S
O85 Dy80 2.491 . S
O85 C82 1.355 . S
O86 Dy80 2.403 . S
O86 C88 1.254 . S
O87 Dy80 2.664 . S
O87 Dy83 2.310 . S
O87 C88 1.268 . S
C88 O86 1.254 . S
C88 O87 1.268 . S
C89 O94 1.254 . S
C89 O95 1.268 . S
O90 Dy83 2.351 . S
O90 C98 1.249 . S
O91 Dy80 2.326 . S
O91 C98 1.267 . S
O92 C81 1.185 . S
O92 Dy83 2.398 . S
O93 C81 1.355 . S
O93 Dy83 2.491 . S
O94 Dy83 2.403 . S
O94 C89 1.254 . S
O95 Dy80 2.310 . S
O95 Dy83 2.664 . S
O95 C89 1.268 . S
O96 Dy80 2.351 . S
O96 C99 1.249 . S
O97 Dy83 2.326 . S
O97 C99 1.267 . S
C98 O90 1.249 . S
C98 O91 1.267 . S
C99 O96 1.249 . S
C99 O97 1.267 . S
Dy100 O104 2.398 . S
Dy100 O105 2.491 . S
Dy100 O106 2.403 . S
Dy100 O107 2.664 . S
Dy100 O111 2.326 . S
Dy100 O115 2.310 . S
Dy100 O116 2.351 . S
C101 O112 1.185 . S
C101 O113 1.355 . S
C102 O104 1.185 . S
C102 O105 1.355 . S
Dy103 O107 2.310 . S
Dy103 O110 2.351 . S
Dy103 O112 2.398 . S
Dy103 O113 2.491 . S
Dy103 O114 2.403 . S
Dy103 O115 2.664 . S
Dy103 O117 2.326 . S
O104 Dy100 2.398 . S
O104 C102 1.185 . S
O105 Dy100 2.491 . S
O105 C102 1.355 . S
O106 Dy100 2.403 . S
O106 C108 1.254 . S
O107 Dy100 2.664 . S
O107 Dy103 2.310 . S
O107 C108 1.268 . S
C108 O106 1.254 . S
C108 O107 1.268 . S
C109 O114 1.254 . S
C109 O115 1.268 . S
O110 Dy103 2.351 . S
O110 C118 1.249 . S
O111 Dy100 2.326 . S
O111 C118 1.267 . S
O112 C101 1.185 . S
O112 Dy103 2.398 . S
O113 C101 1.355 . S
O113 Dy103 2.491 . S
O114 Dy103 2.403 . S
O114 C109 1.254 . S
O115 Dy100 2.310 . S
O115 Dy103 2.664 . S
O115 C109 1.268 . S
O116 Dy100 2.351 . S
O116 C119 1.249 . S
O117 Dy103 2.326 . S
O117 C119 1.267 . S
C118 O110 1.249 . S
C118 O111 1.267 . S
C119 O116 1.249 . S
C119 O117 1.267 . S
Dy120 O124 2.398 . S
Dy120 O125 2.491 . S
Dy120 O126 2.403 . S
Dy120 O127 2.664 . S
Dy120 O131 2.326 . S
Dy120 O135 2.310 . S
Dy120 O136 2.351 . S
C121 O132 1.185 . S
C121 O133 1.355 1_565 S
C122 O124 1.185 . S
C122 O125 1.355 . S
Dy123 O127 2.310 . S
Dy123 O130 2.351 . S
Dy123 O132 2.398 1_545 S
Dy123 O133 2.491 . S
Dy123 O134 2.403 . S
Dy123 O135 2.664 . S
Dy123 O137 2.326 . S
O124 Dy120 2.398 . S
O124 C122 1.185 . S
O125 Dy120 2.491 . S
O125 C122 1.355 . S
O126 Dy120 2.403 . S
O126 C128 1.254 . S
O127 Dy120 2.664 . S
O127 Dy123 2.310 . S
O127 C128 1.268 . S
C128 O126 1.254 . S
C128 O127 1.268 . S
C129 O134 1.254 . S
C129 O135 1.268 . S
O130 Dy123 2.351 . S
O130 C138 1.249 . S
O131 Dy120 2.326 . S
O131 C138 1.267 . S
O132 C121 1.185 . S
O132 Dy123 2.398 1_565 S
O133 C121 1.355 1_545 S
O133 Dy123 2.491 . S
O134 Dy123 2.403 . S
O134 C129 1.254 . S
O135 Dy120 2.310 . S
O135 Dy123 2.664 . S
O135 C129 1.268 . S
O136 Dy120 2.351 . S
O136 C139 1.249 . S
O137 Dy123 2.326 . S
O137 C139 1.267 . S
C138 O130 1.249 . S
C138 O131 1.267 . S
C139 O136 1.249 . S
C139 O137 1.267 . S
Dy140 O144 2.398 . S
Dy140 O145 2.491 . S
Dy140 O146 2.403 . S
Dy140 O147 2.664 . S
Dy140 O151 2.326 . S
Dy140 O155 2.310 . S
Dy140 O156 2.351 . S
C141 O152 1.185 . S
C141 O153 1.355 . S
C142 O144 1.185 . S
C142 O145 1.355 . S
Dy143 O147 2.310 . S
Dy143 O150 2.351 . S
Dy143 O152 2.398 1_655 S
Dy143 O153 2.491 1_655 S
Dy143 O154 2.403 . S
Dy143 O155 2.664 . S
Dy143 O157 2.326 . S
O144 Dy140 2.398 . S
O144 C142 1.185 . S
O145 Dy140 2.491 . S
O145 C142 1.355 . S
O146 Dy140 2.403 . S
O146 C148 1.254 . S
O147 Dy140 2.664 . S
O147 Dy143 2.310 . S
O147 C148 1.268 . S
C148 O146 1.254 . S
C148 O147 1.268 . S
C149 O154 1.254 . S
C149 O155 1.268 . S
O150 Dy143 2.351 . S
O150 C158 1.249 . S
O151 Dy140 2.326 . S
O151 C158 1.267 . S
O152 C141 1.185 . S
O152 Dy143 2.398 1_455 S
O153 C141 1.355 . S
O153 Dy143 2.491 1_455 S
O154 Dy143 2.403 . S
O154 C149 1.254 . S
O155 Dy140 2.310 . S
O155 Dy143 2.664 . S
O155 C149 1.268 . S
O156 Dy140 2.351 . S
O156 C159 1.249 . S
O157 Dy143 2.326 . S
O157 C159 1.267 . S
C158 O150 1.249 . S
C158 O151 1.267 . S
C159 O156 1.249 . S
C159 O157 1.267 . S
Dy160 O164 2.398 . S
Dy160 O165 2.491 . S
Dy160 O166 2.403 . S
Dy160 O167 2.664 . S
Dy160 O171 2.326 . S
Dy160 O175 2.310 . S
Dy160 O176 2.351 . S
C161 O172 1.185 . S
C161 O173 1.355 . S
C162 O164 1.185 . S
C162 O165 1.355 . S
Dy163 O167 2.310 . S
Dy163 O170 2.351 . S
Dy163 O172 2.398 . S
Dy163 O173 2.491 . S
Dy163 O174 2.403 . S
Dy163 O175 2.664 . S
Dy163 O177 2.326 . S
O164 Dy160 2.398 . S
O164 C162 1.185 . S
O165 Dy160 2.491 . S
O165 C162 1.355 . S
O166 Dy160 2.403 . S
O166 C168 1.254 . S
O167 Dy160 2.664 . S
O167 Dy163 2.310 . S
O167 C168 1.268 . S
C168 O166 1.254 . S
C168 O167 1.268 . S
C169 O174 1.254 . S
C169 O175 1.268 . S
O170 Dy163 2.351 . S
O170 C178 1.249 . S
O171 Dy160 2.326 . S
O171 C178 1.267 . S
O172 C161 1.185 . S
O172 Dy163 2.398 . S
O173 C161 1.355 . S
O173 Dy163 2.491 . S
O174 Dy163 2.403 . S
O174 C169 1.254 . S
O175 Dy160 2.310 . S
O175 Dy163 2.664 . S
O175 C169 1.268 . S
O176 Dy160 2.351 . S
O176 C179 1.249 . S
O177 Dy163 2.326 . S
O177 C179 1.267 . S
C178 O170 1.249 . S
C178 O171 1.267 . S
C179 O176 1.249 . S
C179 O177 1.267 . S
H180 C188 0.950 . S
H181 C193 0.950 . S
H182 C190 0.950 . S
H183 C192 0.950 . S
H184 C194 0.950 . S
H185 C196 0.950 . S
H186 C198 0.950 . S
H187 C199 0.950 . S
C188 H180 0.950 . S
C188 C189 1.376 1_556 S
C188 C190 1.391 . S
C189 C188 1.376 1_554 S
C189 C193 1.403 . S
C190 H182 0.950 . S
C190 C188 1.391 . S
C190 C191 1.394 1_556 S
C191 C190 1.394 1_554 S
C191 C192 1.405 . S
C191 C197 1.490 1_554 S
C192 H183 0.950 . S
C192 C191 1.405 . S
C192 C193 1.391 . S
C193 H181 0.950 . S
C193 C189 1.403 . S
C193 C192 1.391 . S
C194 H184 0.950 . S
C194 C195 1.377 1_554 S
C194 C196 1.391 . S
C195 C194 1.377 1_556 S
C195 C199 1.402 . S
C196 H185 0.950 . S
C196 C194 1.391 . S
C196 C197 1.395 1_554 S
C197 C191 1.490 1_556 S
C197 C196 1.395 1_556 S
C197 C198 1.404 . S
C198 H186 0.950 . S
C198 C197 1.404 . S
C198 C199 1.391 . S
C199 H187 0.950 . S
C199 C195 1.402 . S
C199 C198 1.391 . S
H200 C208 0.950 . S
H201 C213 0.950 . S
H202 C210 0.950 . S
H203 C212 0.950 . S
H204 C214 0.950 . S
H205 C216 0.950 . S
H206 C218 0.950 . S
H207 C219 0.950 . S
C208 H200 0.950 . S
C208 C209 1.404 . S
C208 C210 1.391 . S
C209 C208 1.404 . S
C209 C213 1.374 1_556 S
C210 H202 0.950 . S
C210 C208 1.391 . S
C210 C211 1.405 . S
C211 C210 1.405 . S
C211 C212 1.393 1_556 S
C211 C217 1.490 1_556 S
C212 H203 0.950 . S
C212 C211 1.393 1_554 S
C212 C213 1.391 . S
C213 H201 0.950 . S
C213 C209 1.374 1_554 S
C213 C212 1.391 . S
C214 H204 0.950 . S
C214 C215 1.405 . S
C214 C216 1.391 . S
C215 C214 1.405 . S
C215 C219 1.373 1_554 S
C216 H205 0.950 . S
C216 C214 1.391 . S
C216 C217 1.407 . S
C217 C211 1.490 1_554 S
C217 C216 1.407 . S
C217 C218 1.392 1_554 S
C218 H206 0.950 . S
C218 C217 1.392 1_556 S
C218 C219 1.391 . S
C219 H207 0.950 . S
C219 C215 1.373 1_556 S
C219 C218 1.391 . S
H220 C228 0.950 . S
H221 C233 0.950 . S
H222 C230 0.950 . S
H223 C232 0.950 . S
H224 C234 0.950 . S
H225 C236 0.950 . S
H226 C238 0.950 . S
H227 C239 0.950 . S
C228 H220 0.950 . S
C228 C229 1.398 . S
C228 C230 1.391 . S
C229 C228 1.398 . S
C229 C233 1.380 1_554 S
C230 H222 0.950 . S
C230 C228 1.391 . S
C230 C231 1.403 . S
C231 C230 1.403 . S
C231 C232 1.396 1_554 S
C231 C237 1.491 1_554 S
C232 H223 0.950 . S
C232 C231 1.396 1_556 S
C232 C233 1.391 . S
C233 H221 0.950 . S
C233 C229 1.380 1_556 S
C233 C232 1.391 . S
C234 H224 0.950 . S
C234 C235 1.397 . S
C234 C236 1.391 . S
C235 C234 1.397 . S
C235 C239 1.382 1_556 S
C236 H225 0.950 . S
C236 C234 1.391 . S
C236 C237 1.401 . S
C237 C231 1.491 1_556 S
C237 C236 1.401 . S
C237 C238 1.397 1_556 S
C238 H226 0.950 . S
C238 C237 1.397 1_554 S
C238 C239 1.391 . S
C239 H227 0.950 . S
C239 C235 1.382 1_554 S
C239 C238 1.391 . S
H240 C248 0.950 . S
H241 C253 0.950 . S
H242 C250 0.950 . S
H243 C252 0.950 . S
H244 C254 0.950 . S
H245 C256 0.950 . S
H246 C258 0.950 . S
H247 C259 0.950 . S
C248 H240 0.950 . S
C248 C249 1.386 1_556 S
C248 C250 1.391 . S
C249 C248 1.386 1_554 S
C249 C253 1.393 . S
C250 H242 0.950 . S
C250 C248 1.391 . S
C250 C251 1.400 1_556 S
C251 C250 1.400 1_554 S
C251 C252 1.398 . S
C251 C257 1.491 . S
C252 H243 0.950 . S
C252 C251 1.398 . S
C252 C253 1.391 . S
C253 H241 0.950 . S
C253 C249 1.393 . S
C253 C252 1.391 . S
C254 H244 0.950 . S
C254 C255 1.386 . S
C254 C256 1.391 . S
C255 C254 1.386 . S
C255 C259 1.393 1_554 S
C256 H245 0.950 . S
C256 C254 1.391 . S
C256 C257 1.400 . S
C257 C251 1.491 . S
C257 C256 1.400 . S
C257 C258 1.398 1_554 S
C258 H246 0.950 . S
C258 C257 1.398 1_556 S
C258 C259 1.391 . S
C259 H247 0.950 . S
C259 C255 1.393 1_556 S
C259 C258 1.391 . S
H260 C268 0.950 . S
H261 C273 0.950 . S
H262 C270 0.950 . S
H263 C272 0.950 . S
H264 C274 0.950 . S
H265 C276 0.950 . S
H266 C278 0.950 . S
H267 C279 0.952 . S
C268 H260 0.950 . S
C268 C269 1.386 1_556 S
C268 C270 1.391 . S
C269 C268 1.386 1_554 S
C269 C273 1.393 . S
C270 H262 0.950 . S
C270 C268 1.391 . S
C270 C271 1.400 1_556 S
C271 C270 1.400 1_554 S
C271 C272 1.398 . S
C271 C277 1.491 . S
C272 H263 0.950 . S
C272 C271 1.398 . S
C272 C273 1.391 . S
C273 H261 0.950 . S
C273 C269 1.393 . S
C273 C272 1.391 . S
C274 H264 0.950 . S
C274 C275 1.386 . S
C274 C276 1.391 . S
C275 C274 1.386 . S
C275 C279 1.390 1_554 S
C276 H265 0.950 . S
C276 C274 1.391 . S
C276 C277 1.400 . S
C277 C271 1.491 . S
C277 C276 1.400 . S
C277 C278 1.398 1_554 S
C278 H266 0.950 . S
C278 C277 1.398 1_556 S
C278 C279 1.391 . S
C279 H267 0.952 . S
C279 C275 1.390 1_556 S
C279 C278 1.391 . S
H280 C288 0.950 . S
H281 C293 0.950 . S
H282 C290 0.950 . S
H283 C292 0.950 . S
H284 C294 0.945 1_556 S
H285 C296 0.949 . S
H286 C298 0.950 . S
H287 C299 0.950 . S
C288 H280 0.950 . S
C288 C289 1.386 . S
C288 C290 1.391 . S
C289 C288 1.386 . S
C289 C293 1.393 1_554 S
C290 H282 0.950 . S
C290 C288 1.391 . S
C290 C291 1.400 . S
C291 C290 1.400 . S
C291 C292 1.398 1_554 S
C291 C297 1.491 . S
C292 H283 0.950 . S
C292 C291 1.398 1_556 S
C292 C293 1.391 . S
C293 H281 0.950 . S
C293 C289 1.393 1_556 S
C293 C292 1.391 . S
C294 H284 0.945 1_554 S
C294 C295 1.391 . S
C294 C296 1.391 1_554 S
C295 C294 1.391 . S
C295 C299 1.393 . S
C296 H285 0.949 . S
C296 C294 1.391 1_556 S
C296 C297 1.401 1_556 S
C297 C291 1.491 . S
C297 C296 1.401 1_554 S
C297 C298 1.398 . S
C298 H286 0.950 . S
C298 C297 1.398 . S
C298 C299 1.391 . S
C299 H287 0.950 . S
C299 C295 1.393 . S
C299 C298 1.391 . S
H300 C308 0.950 . S
H301 C313 0.950 . S
H302 C310 0.950 . S
H303 C312 0.950 . S
H304 C314 0.950 . S
H305 C316 0.950 . S
H306 C318 0.950 . S
H307 C319 0.950 . S
C308 H300 0.950 . S
C308 C309 1.386 . S
C308 C310 1.391 . S
C309 C308 1.386 . S
C309 C313 1.393 . S
C310 H302 0.950 . S
C310 C308 1.391 . S
C310 C311 1.400 . S
C311 C310 1.400 . S
C311 C312 1.398 . S
C311 C317 1.491 . S
C312 H303 0.950 . S
C312 C311 1.398 . S
C312 C313 1.391 . S
C313 H301 0.950 . S
C313 C309 1.393 . S
C313 C312 1.391 . S
C314 H304 0.950 . S
C314 C315 1.386 . S
C314 C316 1.391 1_455 S
C315 C314 1.386 . S
C315 C319 1.393 . S
C316 H305 0.950 . S
C316 C314 1.391 1_655 S
C316 C317 1.400 . S
C317 C311 1.491 . S
C317 C316 1.400 . S
C317 C318 1.398 . S
C318 H306 0.950 . S
C318 C317 1.398 . S
C318 C319 1.391 1_655 S
C319 H307 0.950 . S
C319 C315 1.393 . S
C319 C318 1.391 1_455 S
H320 C328 0.950 . S
H321 C333 0.950 . S
H322 C330 0.950 . S
H323 C332 0.950 . S
H324 C334 0.950 . S
H325 C336 0.950 . S
H326 C338 0.950 . S
H327 C339 0.950 1_565 S
C328 H320 0.950 . S
C328 C329 1.386 . S
C328 C330 1.391 . S
C329 C328 1.386 . S
C329 C333 1.393 . S
C330 H322 0.950 . S
C330 C328 1.391 . S
C330 C331 1.400 . S
C331 C330 1.400 . S
C331 C332 1.398 . S
C331 C337 1.491 . S
C332 H323 0.950 . S
C332 C331 1.398 . S
C332 C333 1.391 . S
C333 H321 0.950 . S
C333 C329 1.393 . S
C333 C332 1.391 . S
C334 H324 0.950 . S
C334 C335 1.386 . S
C334 C336 1.391 . S
C335 C334 1.386 . S
C335 C339 1.393 . S
C336 H325 0.950 . S
C336 C334 1.391 . S
C336 C337 1.400 . S
C337 C331 1.491 . S
C337 C336 1.400 . S
C337 C338 1.398 . S
C338 H326 0.950 . S
C338 C337 1.398 . S
C338 C339 1.391 . S
C339 H327 0.950 1_545 S
C339 C335 1.393 . S
C339 C338 1.391 . S
H340 C348 0.950 . S
H341 C353 0.950 . S
H342 C350 0.950 . S
H343 C352 0.950 1_455 S
H344 C354 0.950 . S
H345 C356 0.950 . S
H346 C358 0.950 . S
H347 C359 0.950 . S
C348 H340 0.950 . S
C348 C349 1.386 1_655 S
C348 C350 1.391 . S
C349 C348 1.386 1_455 S
C349 C353 1.393 . S
C350 H342 0.950 . S
C350 C348 1.391 . S
C350 C351 1.400 . S
C351 C350 1.400 . S
C351 C352 1.398 . S
C351 C357 1.491 . S
C352 H343 0.950 1_655 S
C352 C351 1.398 . S
C352 C353 1.391 1_655 S
C353 H341 0.950 . S
C353 C349 1.393 . S
C353 C352 1.391 1_455 S
C354 H344 0.950 . S
C354 C355 1.386 . S
C354 C356 1.391 1_565 S
C355 C354 1.386 . S
C355 C359 1.393 . S
C356 H345 0.950 . S
C356 C354 1.391 1_545 S
C356 C357 1.400 . S
C357 C351 1.491 . S
C357 C356 1.400 . S
C357 C358 1.398 . S
C358 H346 0.950 . S
C358 C357 1.398 . S
C358 C359 1.391 1_545 S
C359 H347 0.950 . S
C359 C355 1.393 . S
C359 C358 1.391 1_565 S
H360 C368 0.950 . S
H361 C373 0.950 . S
H362 C370 0.950 . S
H363 C372 0.950 . S
H364 C374 0.950 . S
H365 C376 0.950 . S
H366 C378 0.950 . S
H367 C379 0.950 . S
C368 H360 0.950 . S
C368 C369 1.386 . S
C368 C370 1.391 . S
C369 C368 1.386 . S
C369 C373 1.393 . S
C370 H362 0.950 . S
C370 C368 1.391 . S
C370 C371 1.400 . S
C371 C370 1.400 . S
C371 C372 1.398 . S
C371 C377 1.491 . S
C372 H363 0.950 . S
C372 C371 1.398 . S
C372 C373 1.391 . S
C373 H361 0.950 . S
C373 C369 1.393 . S
C373 C372 1.391 . S
C374 H364 0.950 . S
C374 C375 1.386 . S
C374 C376 1.391 . S
C375 C374 1.386 . S
C375 C379 1.393 . S
C376 H365 0.950 . S
C376 C374 1.391 . S
C376 C377 1.400 . S
C377 C371 1.491 . S
C377 C376 1.400 . S
C377 C378 1.398 . S
C378 H366 0.950 . S
C378 C377 1.398 . S
C378 C379 1.391 . S
C379 H367 0.950 . S
C379 C375 1.393 . S
C379 C378 1.391 . S
H380 C388 0.950 . S
H381 C393 0.950 . S
H382 C390 0.950 . S
H383 C392 0.950 . S
H384 C394 0.950 . S
H385 C396 0.950 . S
H386 C398 0.950 . S
H387 C399 0.950 . S
C388 H380 0.950 . S
C388 C389 1.386 . S
C388 C390 1.391 . S
C389 C388 1.386 . S
C389 C393 1.393 . S
C390 H382 0.950 . S
C390 C388 1.391 . S
C390 C391 1.400 . S
C391 C390 1.400 . S
C391 C392 1.398 . S
C391 C397 1.491 . S
C392 H383 0.950 . S
C392 C391 1.398 . S
C392 C393 1.391 . S
C393 H381 0.950 . S
C393 C389 1.393 . S
C393 C392 1.391 . S
C394 H384 0.950 . S
C394 C395 1.386 . S
C394 C396 1.391 . S
C395 C394 1.386 . S
C395 C399 1.393 . S
C396 H385 0.950 . S
C396 C394 1.391 . S
C396 C397 1.400 . S
C397 C391 1.491 . S
C397 C396 1.400 . S
C397 C398 1.398 . S
C398 H386 0.950 . S
C398 C397 1.398 . S
C398 C399 1.391 . S
C399 H387 0.950 . S
C399 C395 1.393 . S
C399 C398 1.391 . S
H400 C408 0.950 . S
H401 C413 0.950 . S
H402 C410 0.950 . S
H403 C412 0.950 . S
H404 C414 0.950 . S
H405 C416 0.950 . S
H406 C418 0.950 . S
H407 C419 0.950 . S
C408 H400 0.950 . S
C408 C409 1.386 . S
C408 C410 1.391 . S
C409 C408 1.386 . S
C409 C413 1.393 . S
C410 H402 0.950 . S
C410 C408 1.391 . S
C410 C411 1.400 . S
C411 C410 1.400 . S
C411 C412 1.398 . S
C411 C417 1.491 . S
C412 H403 0.950 . S
C412 C411 1.398 . S
C412 C413 1.391 . S
C413 H401 0.950 . S
C413 C409 1.393 . S
C413 C412 1.391 . S
C414 H404 0.950 . S
C414 C415 1.386 . S
C414 C416 1.391 . S
C415 C414 1.386 . S
C415 C419 1.393 . S
C416 H405 0.950 . S
C416 C414 1.391 . S
C416 C417 1.400 . S
C417 C411 1.491 . S
C417 C416 1.400 . S
C417 C418 1.398 . S
C418 H406 0.950 . S
C418 C417 1.398 . S
C418 C419 1.391 . S
C419 H407 0.950 . S
C419 C415 1.393 . S
C419 C418 1.391 . S
H420 C428 0.950 . S
H421 C433 0.950 . S
H422 C430 0.950 . S
H423 C432 0.950 . S
H424 C434 0.950 . S
H425 C436 0.950 . S
H426 C438 0.950 . S
H427 C439 0.950 . S
C428 H420 0.950 . S
C428 C429 1.386 . S
C428 C430 1.391 . S
C429 C428 1.386 . S
C429 C433 1.393 . S
C430 H422 0.950 . S
C430 C428 1.391 . S
C430 C431 1.400 . S
C431 C430 1.400 . S
C431 C432 1.398 . S
C431 C437 1.491 . S
C432 H423 0.950 . S
C432 C431 1.398 . S
C432 C433 1.391 . S
C433 H421 0.950 . S
C433 C429 1.393 . S
C433 C432 1.391 . S
C434 H424 0.950 . S
C434 C435 1.386 . S
C434 C436 1.391 . S
C435 C434 1.386 . S
C435 C439 1.393 . S
C436 H425 0.950 . S
C436 C434 1.391 . S
C436 C437 1.400 . S
C437 C431 1.491 . S
C437 C436 1.400 . S
C437 C438 1.398 . S
C438 H426 0.950 . S
C438 C437 1.398 . S
C438 C439 1.391 . S
C439 H427 0.950 . S
C439 C435 1.393 . S
C439 C438 1.391 . S
H440 C448 0.950 . S
H441 C453 0.950 . S
H442 C450 0.950 . S
H443 C452 0.950 . S
H444 C454 0.950 . S
H445 C456 0.950 . S
H446 C458 0.950 . S
H447 C459 0.950 . S
C448 H440 0.950 . S
C448 C449 1.386 . S
C448 C450 1.391 . S
C449 C448 1.386 . S
C449 C453 1.393 . S
C450 H442 0.950 . S
C450 C448 1.391 . S
C450 C451 1.400 . S
C451 C450 1.400 . S
C451 C452 1.398 . S
C451 C457 1.491 . S
C452 H443 0.950 . S
C452 C451 1.398 . S
C452 C453 1.391 . S
C453 H441 0.950 . S
C453 C449 1.393 . S
C453 C452 1.391 . S
C454 H444 0.950 . S
C454 C455 1.386 . S
C454 C456 1.391 . S
C455 C454 1.386 . S
C455 C459 1.393 . S
C456 H445 0.950 . S
C456 C454 1.391 . S
C456 C457 1.400 . S
C457 C451 1.491 . S
C457 C456 1.400 . S
C457 C458 1.398 . S
C458 H446 0.950 . S
C458 C457 1.398 . S
C458 C459 1.391 . S
C459 H447 0.950 . S
C459 C455 1.393 . S
C459 C458 1.391 . S
H460 C468 0.950 . S
H461 C473 0.950 . S
H462 C470 0.950 . S
H463 C472 0.950 . S
H464 C474 0.950 . S
H465 C476 0.950 . S
H466 C478 0.950 . S
H467 C479 0.950 . S
C468 H460 0.950 . S
C468 C469 1.386 . S
C468 C470 1.391 . S
C469 C468 1.386 . S
C469 C473 1.393 . S
C470 H462 0.950 . S
C470 C468 1.391 . S
C470 C471 1.400 . S
C471 C470 1.400 . S
C471 C472 1.398 . S
C471 C477 1.491 . S
C472 H463 0.950 . S
C472 C471 1.398 . S
C472 C473 1.391 . S
C473 H461 0.950 . S
C473 C469 1.393 . S
C473 C472 1.391 . S
C474 H464 0.950 . S
C474 C475 1.386 . S
C474 C476 1.391 . S
C475 C474 1.386 . S
C475 C479 1.393 . S
C476 H465 0.950 . S
C476 C474 1.391 . S
C476 C477 1.400 . S
C477 C471 1.491 . S
C477 C476 1.400 . S
C477 C478 1.398 . S
C478 H466 0.950 . S
C478 C477 1.398 . S
C478 C479 1.391 . S
C479 H467 0.950 . S
C479 C475 1.393 . S
C479 C478 1.391 . S
H480 C488 0.950 . S
H481 C493 0.950 . S
H482 C490 0.950 . S
H483 C492 0.950 . S
H484 C494 0.950 . S
H485 C496 0.947 1_565 S
H486 C498 0.950 . S
H487 C499 0.950 . S
C488 H480 0.950 . S
C488 C489 1.386 . S
C488 C490 1.391 . S
C489 C488 1.386 . S
C489 C493 1.393 . S
C490 H482 0.950 . S
C490 C488 1.391 . S
C490 C491 1.400 . S
C491 C490 1.400 . S
C491 C492 1.398 . S
C491 C497 1.491 1_565 S
C492 H483 0.950 . S
C492 C491 1.398 . S
C492 C493 1.391 . S
C493 H481 0.950 . S
C493 C489 1.393 . S
C493 C492 1.391 . S
C494 H484 0.950 . S
C494 C495 1.386 . S
C494 C496 1.391 . S
C495 C494 1.386 . S
C495 C499 1.393 . S
C496 H485 0.947 1_545 S
C496 C494 1.391 . S
C496 C497 1.400 . S
C497 C491 1.491 1_545 S
C497 C496 1.400 . S
C497 C498 1.398 . S
C498 H486 0.950 . S
C498 C497 1.398 . S
C498 C499 1.391 . S
C499 H487 0.950 . S
C499 C495 1.393 . S
C499 C498 1.391 . S
H500 C508 0.950 . S
H501 C513 0.950 . S
H502 C510 0.950 . S
H503 C512 0.950 1_455 S
H504 C514 0.950 . S
H505 C516 0.950 . S
H506 C518 0.950 . S
H507 C519 0.950 . S
C508 H500 0.950 . S
C508 C509 1.386 . S
C508 C510 1.391 . S
C509 C508 1.386 . S
C509 C513 1.393 . S
C510 H502 0.950 . S
C510 C508 1.391 . S
C510 C511 1.400 1_655 S
C511 C510 1.400 1_455 S
C511 C512 1.398 1_455 S
C511 C517 1.491 . S
C512 H503 0.950 1_655 S
C512 C511 1.398 1_655 S
C512 C513 1.391 . S
C513 H501 0.950 . S
C513 C509 1.393 . S
C513 C512 1.391 . S
C514 H504 0.950 . S
C514 C515 1.386 . S
C514 C516 1.391 . S
C515 C514 1.386 . S
C515 C519 1.393 . S
C516 H505 0.950 . S
C516 C514 1.391 . S
C516 C517 1.400 . S
C517 C511 1.491 . S
C517 C516 1.400 . S
C517 C518 1.398 . S
C518 H506 0.950 . S
C518 C517 1.398 . S
C518 C519 1.391 . S
C519 H507 0.950 . S
C519 C515 1.393 . S
C519 C518 1.391 . S
H520 C528 0.950 . S
H521 C533 0.950 . S
H522 C530 0.950 . S
H523 C532 0.950 . S
H524 C534 0.950 . S
H525 C536 0.950 . S
H526 C538 0.950 . S
H527 C539 0.950 . S
C528 H520 0.950 . S
C528 C529 1.386 . S
C528 C530 1.391 . S
C529 C528 1.386 . S
C529 C533 1.393 . S
C530 H522 0.950 . S
C530 C528 1.391 . S
C530 C531 1.400 . S
C531 C530 1.400 . S
C531 C532 1.398 . S
C531 C537 1.491 . S
C532 H523 0.950 . S
C532 C531 1.398 . S
C532 C533 1.391 . S
C533 H521 0.950 . S
C533 C529 1.393 . S
C533 C532 1.391 . S
C534 H524 0.950 . S
C534 C535 1.386 . S
C534 C536 1.391 . S
C535 C534 1.386 . S
C535 C539 1.393 . S
C536 H525 0.950 . S
C536 C534 1.391 . S
C536 C537 1.400 . S
C537 C531 1.491 . S
C537 C536 1.400 . S
C537 C538 1.398 . S
C538 H526 0.950 . S
C538 C537 1.398 . S
C538 C539 1.391 . S
C539 H527 0.950 . S
C539 C535 1.393 . S
C539 C538 1.391 . S
H540 C548 0.950 . S
H541 C553 0.950 . S
H542 C550 0.950 . S
H543 C552 0.950 . S
H544 C554 0.950 1_655 S
H545 C556 0.950 . S
H546 C558 0.950 . S
H547 C559 0.950 . S
C548 H540 0.950 . S
C548 C549 1.386 . S
C548 C550 1.391 . S
C549 C548 1.386 . S
C549 C553 1.393 . S
C550 H542 0.950 . S
C550 C548 1.391 . S
C550 C551 1.400 . S
C551 C550 1.400 . S
C551 C552 1.398 . S
C551 C557 1.491 . S
C552 H543 0.950 . S
C552 C551 1.398 . S
C552 C553 1.391 . S
C553 H541 0.950 . S
C553 C549 1.393 . S
C553 C552 1.391 . S
C554 H544 0.950 1_455 S
C554 C555 1.386 . S
C554 C556 1.391 . S
C555 C554 1.386 . S
C555 C559 1.393 . S
C556 H545 0.950 . S
C556 C554 1.391 . S
C556 C557 1.400 . S
C557 C551 1.491 . S
C557 C556 1.400 . S
C557 C558 1.398 . S
C558 H546 0.950 . S
C558 C557 1.398 . S
C558 C559 1.391 . S
C559 H547 0.950 . S
C559 C555 1.393 . S
C559 C558 1.391 . S
H560 C568 0.950 . S
H561 C573 0.950 . S
H562 C570 0.950 . S
H563 C572 0.950 . S
H564 C574 0.950 . S
H565 C576 0.950 . S
H566 C578 0.950 . S
H567 C579 0.950 . S
C568 H560 0.950 . S
C568 C569 1.386 . S
C568 C570 1.391 . S
C569 C568 1.386 . S
C569 C573 1.393 . S
C570 H562 0.950 . S
C570 C568 1.391 . S
C570 C571 1.400 . S
C571 C570 1.400 . S
C571 C572 1.398 . S
C571 C577 1.491 . S
C572 H563 0.950 . S
C572 C571 1.398 . S
C572 C573 1.391 . S
C573 H561 0.950 . S
C573 C569 1.393 . S
C573 C572 1.391 . S
C574 H564 0.950 . S
C574 C575 1.386 . S
C574 C576 1.391 . S
C575 C574 1.386 . S
C575 C579 1.393 . S
C576 H565 0.950 . S
C576 C574 1.391 . S
C576 C577 1.400 . S
C577 C571 1.491 . S
C577 C576 1.400 . S
C577 C578 1.398 . S
C578 H566 0.950 . S
C578 C577 1.398 . S
C578 C579 1.391 . S
C579 H567 0.950 . S
C579 C575 1.393 . S
C579 C578 1.391 . S
H580 C588 0.950 . S
H581 C593 0.950 . S
H582 C590 0.950 1_545 S
H583 C592 0.950 . S
H584 C594 0.950 . S
H585 C596 0.950 . S
H586 C598 0.950 . S
H587 C599 0.950 . S
C588 H580 0.950 . S
C588 C589 1.386 1_545 S
C588 C590 1.391 1_545 S
C589 C588 1.386 1_565 S
C589 C593 1.393 . S
C590 H582 0.950 1_565 S
C590 C588 1.391 1_565 S
C590 C591 1.400 . S
C591 C590 1.400 . S
C591 C592 1.398 . S
C591 C597 1.491 . S
C592 H583 0.950 . S
C592 C591 1.398 . S
C592 C593 1.391 . S
C593 H581 0.950 . S
C593 C589 1.393 . S
C593 C592 1.391 . S
C594 H584 0.950 . S
C594 C595 1.386 . S
C594 C596 1.391 . S
C595 C594 1.386 . S
C595 C599 1.393 . S
C596 H585 0.950 . S
C596 C594 1.391 . S
C596 C597 1.400 . S
C597 C591 1.491 . S
C597 C596 1.400 . S
C597 C598 1.398 . S
C598 H586 0.950 . S
C598 C597 1.398 . S
C598 C599 1.391 . S
C599 H587 0.950 . S
C599 C595 1.393 . S
C599 C598 1.391 . S
H600 C608 0.950 . S
H601 C613 0.950 1_565 S
H602 C610 0.950 . S
H603 C612 0.950 . S
H604 C614 0.950 . S
H605 C616 0.950 . S
H606 C618 0.950 . S
H607 C619 0.950 . S
C608 H600 0.950 . S
C608 C609 1.386 . S
C608 C610 1.391 . S
C609 C608 1.386 . S
C609 C613 1.393 . S
C610 H602 0.950 . S
C610 C608 1.391 . S
C610 C611 1.400 . S
C611 C610 1.400 . S
C611 C612 1.398 . S
C611 C617 1.491 . S
C612 H603 0.950 . S
C612 C611 1.398 . S
C612 C613 1.391 . S
C613 H601 0.950 1_545 S
C613 C609 1.393 . S
C613 C612 1.391 . S
C614 H604 0.950 . S
C614 C615 1.386 . S
C614 C616 1.391 . S
C615 C614 1.386 . S
C615 C619 1.393 . S
C616 H605 0.950 . S
C616 C614 1.391 . S
C616 C617 1.400 . S
C617 C611 1.491 . S
C617 C616 1.400 . S
C617 C618 1.398 . S
C618 H606 0.950 . S
C618 C617 1.398 . S
C618 C619 1.391 . S
C619 H607 0.950 . S
C619 C615 1.393 . S
C619 C618 1.391 . S
H620 C628 0.950 . S
H621 C633 0.950 . S
H622 C630 0.950 1_455 S
H623 C632 0.950 . S
H624 C634 0.950 . S
H625 C636 0.950 . S
H626 C638 0.950 . S
H627 C639 0.950 . S
C628 H620 0.950 . S
C628 C629 1.386 1_455 S
C628 C630 1.391 1_455 S
C629 C628 1.386 1_655 S
C629 C633 1.393 . S
C630 H622 0.950 1_655 S
C630 C628 1.391 1_655 S
C630 C631 1.400 . S
C631 C630 1.400 . S
C631 C632 1.398 . S
C631 C637 1.491 . S
C632 H623 0.950 . S
C632 C631 1.398 . S
C632 C633 1.391 . S
C633 H621 0.950 . S
C633 C629 1.393 . S
C633 C632 1.391 . S
C634 H624 0.950 . S
C634 C635 1.386 . S
C634 C636 1.391 . S
C635 C634 1.386 . S
C635 C639 1.393 . S
C636 H625 0.950 . S
C636 C634 1.391 . S
C636 C637 1.400 . S
C637 C631 1.491 . S
C637 C636 1.400 . S
C637 C638 1.398 . S
C638 H626 0.950 . S
C638 C637 1.398 . S
C638 C639 1.391 . S
C639 H627 0.950 . S
C639 C635 1.393 . S
C639 C638 1.391 . S
H640 C648 0.950 . S
H641 C653 0.950 . S
H642 C650 0.950 . S
H643 C652 0.950 . S
H644 C654 0.950 . S
H645 C656 0.950 . S
H646 C658 0.950 . S
H647 C659 0.950 . S
C648 H640 0.950 . S
C648 C649 1.386 . S
C648 C650 1.391 . S
C649 C648 1.386 . S
C649 C653 1.393 . S
C650 H642 0.950 . S
C650 C648 1.391 . S
C650 C651 1.400 . S
C651 C650 1.400 . S
C651 C652 1.398 . S
C651 C657 1.491 . S
C652 H643 0.950 . S
C652 C651 1.398 . S
C652 C653 1.391 . S
C653 H641 0.950 . S
C653 C649 1.393 . S
C653 C652 1.391 . S
C654 H644 0.950 . S
C654 C655 1.386 . S
C654 C656 1.391 . S
C655 C654 1.386 . S
C655 C659 1.393 . S
C656 H645 0.950 . S
C656 C654 1.391 . S
C656 C657 1.400 . S
C657 C651 1.491 . S
C657 C656 1.400 . S
C657 C658 1.398 . S
C658 H646 0.950 . S
C658 C657 1.398 . S
C658 C659 1.391 . S
C659 H647 0.950 . S
C659 C655 1.393 . S
C659 C658 1.391 . S
H660 C668 0.950 . S
H661 C673 0.950 . S
H662 C670 0.950 . S
H663 C672 0.950 . S
H664 C674 0.950 . S
H665 C676 0.950 . S
H666 C678 0.950 . S
H667 C679 0.950 . S
C668 H660 0.950 . S
C668 C669 1.386 . S
C668 C670 1.391 . S
C669 C668 1.386 . S
C669 C673 1.393 . S
C670 H662 0.950 . S
C670 C668 1.391 . S
C670 C671 1.400 . S
C671 C670 1.400 . S
C671 C672 1.398 . S
C671 C677 1.491 . S
C672 H663 0.950 . S
C672 C671 1.398 . S
C672 C673 1.391 . S
C673 H661 0.950 . S
C673 C669 1.393 . S
C673 C672 1.391 . S
C674 H664 0.950 . S
C674 C675 1.386 . S
C674 C676 1.391 . S
C675 C674 1.386 . S
C675 C679 1.393 . S
C676 H665 0.950 . S
C676 C674 1.391 . S
C676 C677 1.400 . S
C677 C671 1.491 . S
C677 C676 1.400 . S
C677 C678 1.398 . S
C678 H666 0.950 . S
C678 C677 1.398 . S
C678 C679 1.391 . S
C679 H667 0.950 . S
C679 C675 1.393 . S
C679 C678 1.391 . S
H680 C688 0.950 . S
H681 C693 0.950 . S
H682 C690 0.950 . S
H683 C692 0.950 . S
H684 C694 0.950 . S
H685 C696 0.950 . S
H686 C698 0.950 . S
H687 C699 0.950 . S
C688 H680 0.950 . S
C688 C689 1.386 . S
C688 C690 1.391 . S
C689 C688 1.386 . S
C689 C693 1.393 . S
C690 H682 0.950 . S
C690 C688 1.391 . S
C690 C691 1.400 . S
C691 C690 1.400 . S
C691 C692 1.398 . S
C691 C697 1.491 1_565 S
C692 H683 0.950 . S
C692 C691 1.398 . S
C692 C693 1.391 . S
C693 H681 0.950 . S
C693 C689 1.393 . S
C693 C692 1.391 . S
C694 H684 0.950 . S
C694 C695 1.386 . S
C694 C696 1.391 . S
C695 C694 1.386 . S
C695 C699 1.393 . S
C696 H685 0.950 . S
C696 C694 1.391 . S
C696 C697 1.400 . S
C697 C691 1.491 1_545 S
C697 C696 1.400 . S
C697 C698 1.398 . S
C698 H686 0.950 . S
C698 C697 1.398 . S
C698 C699 1.391 . S
C699 H687 0.950 . S
C699 C695 1.393 . S
C699 C698 1.391 . S
H700 C708 0.950 . S
H701 C713 0.950 . S
H702 C710 0.950 . S
H703 C712 0.950 . S
H704 C714 0.950 . S
H705 C716 0.950 . S
H706 C718 0.950 . S
H707 C719 0.950 . S
C708 H700 0.950 . S
C708 C709 1.386 . S
C708 C710 1.391 . S
C709 C708 1.386 . S
C709 C713 1.393 . S
C710 H702 0.950 . S
C710 C708 1.391 . S
C710 C711 1.400 . S
C711 C710 1.400 . S
C711 C712 1.398 . S
C711 C717 1.491 1_655 S
C712 H703 0.950 . S
C712 C711 1.398 . S
C712 C713 1.391 . S
C713 H701 0.950 . S
C713 C709 1.393 . S
C713 C712 1.391 . S
C714 H704 0.950 . S
C714 C715 1.386 . S
C714 C716 1.391 . S
C715 C714 1.386 . S
C715 C719 1.393 . S
C716 H705 0.950 . S
C716 C714 1.391 . S
C716 C717 1.400 . S
C717 C711 1.491 1_455 S
C717 C716 1.400 . S
C717 C718 1.398 . S
C718 H706 0.950 . S
C718 C717 1.398 . S
C718 C719 1.391 . S
C719 H707 0.950 . S
C719 C715 1.393 . S
C719 C718 1.391 . S
C189 C22 1.287 1_554 S
C195 C18 1.352 . S
C209 C42 1.285 . S
C215 C38 1.352 1_554 S
C229 C58 1.366 1_554 S
C235 C2 1.318 . S
C249 C41 1.360 . S
C255 C39 1.329 . S
C269 C59 1.333 . S
C275 C1 1.359 . S
C289 C19 1.323 . S
C295 C21 1.358 . S
C309 C78 1.367 . S
C315 C82 1.319 . S
C329 C102 1.284 . S
C335 C98 1.353 1_545 S
C349 C118 1.353 . S
C355 C62 1.297 . S
C369 C99 1.332 . S
C375 C101 1.361 . S
C389 C119 1.320 . S
C395 C61 1.358 . S
C409 C81 1.358 . S
C415 C79 1.310 . S
C429 C142 1.317 . S
C435 C138 1.364 . S
C449 C158 1.352 . S
C455 C162 1.292 . S
C469 C178 1.368 . S
C475 C122 1.317 . S
C489 C161 1.359 . S
C495 C159 1.317 . S
C509 C179 1.314 . S
C515 C121 1.359 . S
C529 C139 1.311 . S
C535 C141 1.357 . S
C549 C108 2.194 . S
C555 C9 1.976 . S
C569 C68 2.196 . S
C575 C29 1.968 . S
C589 C49 1.951 . S
C595 C88 2.193 . S
C609 C48 2.196 . S
C615 C129 1.965 . S
C629 C8 2.192 . S
C635 C149 1.957 . S
C649 C169 1.969 . S
C655 C28 2.193 . S
C669 C69 1.965 . S
C675 C168 2.196 . S
C689 C89 1.975 . S
C695 C128 2.196 . S
C709 C148 2.195 . S
C715 C109 1.977 . S
