# Generated by pormake.
# Topology ilc, (8)-cn, num edge types: 1
# Building blocks:
#     Node 0, Type 0, BuildingBlock: TAGTUT_clean_sbu_1, # of connection points: 8
#     Node 1, Type 0, BuildingBlock: TAGTUT_clean_sbu_1, # of connection points: 8
#     Node 2, Type 0, BuildingBlock: TAGTUT_clean_sbu_1, # of connection points: 8
#     Edge 3, Type (0, 0), BuildingBlock: XUDNAN_clean_linker_2, # of connection points: 2
#     Edge 4, Type (0, 0), BuildingBlock: XUDNAN_clean_linker_2, # of connection points: 2
#     Edge 5, Type (0, 0), BuildingBlock: XUDNAN_clean_linker_2, # of connection points: 2
#     Edge 6, Type (0, 0), BuildingBlock: XUDNAN_clean_linker_2, # of connection points: 2
#     Edge 7, Type (0, 0), BuildingBlock: XUDNAN_clean_linker_2, # of connection points: 2
#     Edge 8, Type (0, 0), BuildingBlock: XUDNAN_clean_linker_2, # of connection points: 2
#     Edge 9, Type (0, 0), BuildingBlock: XUDNAN_clean_linker_2, # of connection points: 2
#     Edge 10, Type (0, 0), BuildingBlock: XUDNAN_clean_linker_2, # of connection points: 2
#     Edge 11, Type (0, 0), BuildingBlock: XUDNAN_clean_linker_2, # of connection points: 2
#     Edge 12, Type (0, 0), BuildingBlock: XUDNAN_clean_linker_2, # of connection points: 2
#     Edge 13, Type (0, 0), BuildingBlock: XUDNAN_clean_linker_2, # of connection points: 2
#     Edge 14, Type (0, 0), BuildingBlock: XUDNAN_clean_linker_2, # of connection points: 2
# Relax obj value: 0.134
# Max RMSD: 0.140
# Mean RMSD: 0.140
data_MOF--net-ilc--node1-TAGTUT_clean_sbu_1--edge1-XUDNAN_clean_linker_2
_symmetry_space_group_name_H-M    P1
_symmetry_Int_Tables_number       1
_symmetry_cell_setting            triclinic
loop_
_symmetry_equiv_pos_as_xyz
'x, y, z'
_cell_length_a     26.227691
_cell_length_b     28.483808
_cell_length_c     14.612081
_cell_angle_alpha  98.423419
_cell_angle_beta   86.04636
_cell_angle_gamma 135.05482
loop_
_atom_site_label
_atom_site_type_symbol
_atom_site_fract_x
_atom_site_fract_y
_atom_site_fract_z
_atom_type_partial_charge
C0 C 0.13927 0.96039 0.17169 0.0
C1 C 0.11269 0.09086 0.24552 0.0
C2 C 0.86158 0.92569 0.06693 0.0
Mg3 Mg 0.16639 0.0676 0.07636 0.0
O4 O 0.06997 0.99269 0.03223 0.0
Mg5 Mg 0.99476 0.93447 0.12049 0.0
Mg6 Mg 1.02055 1.01069 0.97167 0.0
O7 O 0.97223 0.02981 0.91001 0.0
Mg8 Mg 0.87456 0.95996 0.86414 0.0
Mg9 Mg 0.04863 0.083 0.81971 0.0
C10 C 0.17909 0.09951 0.87549 0.0
C11 C 0.11034 0.17065 0.02503 0.0
O12 O 0.07085 0.92451 0.17261 0.0
O13 O 0.18333 0.01465 0.13484 0.0
O14 O 0.0554 0.02777 0.22802 0.0
O15 O 0.16472 0.1218 0.19123 0.0
O16 O 0.21243 0.10877 0.947 0.0
O17 O 0.11118 0.06389 0.87372 0.0
C18 C 0.93989 0.85444 0.9079 0.0
O19 O 0.96141 0.90765 0.88442 0.0
O20 O 0.94524 0.85049 -0.00713 0.0
O21 O 0.98225 0.10113 0.77345 0.0
O22 O 0.86553 0.0206 0.80632 0.0
O23 O 0.98459 0.98533 0.72036 0.0
C24 C 0.91793 0.07583 0.77445 0.0
O25 O 0.87165 0.89788 0.75813 0.0
O26 O 0.83306 0.9238 -0.00338 0.0
C27 C 0.92548 0.92271 0.70841 0.0
O28 O 0.92744 0.95341 0.0687 0.0
O29 O 0.08331 0.1172 0.05666 0.0
O30 O 0.10576 0.17066 0.93799 0.0
C31 C 0.79381 0.29456 0.54524 0.0
C32 C 0.76254 0.43027 0.59077 0.0
C33 C 0.52955 0.26215 0.40164 0.0
Mg34 Mg 0.8293 0.40408 0.44815 0.0
O35 O 0.73757 0.32826 0.3896 0.0
Mg36 Mg 0.6561 0.2722 0.47397 0.0
Mg37 Mg 0.69434 0.34896 0.31994 0.0
O38 O 0.65221 0.37219 0.25389 0.0
Mg39 Mg 0.55644 0.30298 0.20471 0.0
Mg40 Mg 0.73281 0.4277 0.1697 0.0
C41 C 0.86246 0.44499 0.2495 0.0
C42 C 0.78261 0.5082 0.37996 0.0
O43 O 0.72579 0.25916 0.53667 0.0
O44 O 0.84226 0.3517 0.51651 0.0
O45 O 0.70798 0.36645 0.57607 0.0
O46 O 0.81991 0.45998 0.54708 0.0
O47 O 0.8863 0.44989 0.32756 0.0
O48 O 0.79459 0.40808 0.23215 0.0
C49 C 0.60626 0.18945 0.26555 0.0
O50 O 0.63454 0.24351 0.23452 0.0
O51 O 0.60772 0.18765 0.35281 0.0
O52 O 0.6651 0.44124 0.10428 0.0
O53 O 0.54795 0.35911 0.13574 0.0
O54 O 0.67095 0.3312 0.06792 0.0
C55 C 0.59889 0.41159 0.09786 0.0
O56 O 0.55729 0.2427 0.10131 0.0
O57 O 0.50352 0.26191 0.33036 0.0
C58 C 0.61143 0.26878 0.05144 0.0
O59 O 0.59507 0.29009 0.40709 0.0
O60 O 0.75271 0.4524 0.40565 0.0
O61 O 0.78468 0.51429 0.29368 0.0
C62 C 0.41834 0.54207 0.75565 0.0
C63 C 0.44637 0.69635 0.86519 0.0
C64 C 0.20932 0.60607 0.77939 0.0
Mg65 Mg 0.4946 0.68671 0.7144 0.0
O66 O 0.39154 0.6393 0.70343 0.0
Mg67 Mg 0.29629 0.55567 0.76285 0.0
Mg68 Mg 0.35588 0.67611 0.6549 0.0
O69 O 0.31998 0.71339 0.60768 0.0
Mg70 Mg 0.2186 0.67275 0.61542 0.0
Mg71 Mg 0.41126 0.78879 0.53673 0.0
C72 C 0.51383 0.75715 0.54841 0.0
C73 C 0.43426 0.82107 0.76968 0.0
O74 O 0.35678 0.52146 0.77506 0.0
O75 O 0.47117 0.59842 0.72627 0.0
O76 O 0.40517 0.66159 0.79122 0.0
O77 O 0.51414 0.73913 0.8544 0.0
O78 O 0.53282 0.73564 0.59286 0.0
O79 O 0.4599 0.7492 0.57143 0.0
C80 C 0.28024 0.53292 0.53201 0.0
O81 O 0.30572 0.59117 0.53086 0.0
O82 O 0.2743 0.51299 0.60836 0.0
O83 O 0.35159 0.81989 0.51271 0.0
O84 O 0.24065 0.75689 0.57202 0.0
O85 O 0.2957 0.6827 0.52701 0.0
C86 C 0.29323 0.80587 0.52852 0.0
O87 O 0.17978 0.59998 0.49273 0.0
O88 O 0.1936 0.63394 0.74566 0.0
C89 C 0.24393 0.6362 0.46588 0.0
O90 O 0.25137 0.60156 0.73912 0.0
O91 O 0.40783 0.76279 0.77534 0.0
O92 O 0.43823 0.83844 0.69124 0.0
H93 H 0.84493 0.88263 0.55675 0.0
H94 H 0.99137 0.87806 0.65634 0.0
H95 H 0.08431 0.95928 0.55353 0.0
H96 H 0.9193 0.93501 0.31964 0.0
H97 H 0.90661 0.99005 0.33581 0.0
H98 H 0.84526 0.91272 0.38476 0.0
H99 H 0.87111 0.98157 0.54302 0.0
H100 H 0.93637 0.05954 0.49617 0.0
H101 H 0.96244 0.04614 0.59228 0.0
H102 H 0.17117 0.06577 0.47724 0.0
H103 H 0.22395 0.14559 0.36549 0.0
H104 H 0.02807 0.09828 0.35012 0.0
C105 C 0.89475 0.89513 0.55151 0.0
C106 C 0.91708 0.88399 0.62258 0.0
C107 C 0.97742 0.89317 0.60784 0.0
C108 C 0.03158 0.94122 0.5521 0.0
C109 C 1.01799 0.97117 0.50579 0.0
C110 C 0.94977 0.94655 0.50117 0.0
C111 C 0.9508 0.99231 0.45855 0.0
C112 C 0.90259 0.95515 0.36923 0.0
C113 C 0.9288 0.02151 0.52662 0.0
C114 C 0.02987 0.04638 0.4396 0.0
C115 C 0.06799 0.03374 0.46851 0.0
C116 C 0.14097 0.07451 0.45194 0.0
C117 C 0.17142 0.12159 0.39093 0.0
C118 C 0.12547 0.12017 0.34217 0.0
C119 C 0.06175 0.09582 0.38309 0.0
H120 H 0.84994 0.4894 0.7428 0.0
H121 H 0.67178 0.4487 0.63657 0.0
H122 H 0.5904 0.36393 0.7415 0.0
H123 H 0.76214 0.33473 0.70547 0.0
H124 H 0.79582 0.32698 0.79874 0.0
H125 H 0.85103 0.4068 0.75722 0.0
H126 H 0.86409 0.46799 0.91605 0.0
H127 H 0.81458 0.39238 0.96661 0.0
H128 H 0.78517 0.43383 0.97936 0.0
H129 H 0.52327 0.26052 0.82118 0.0
H130 H 0.48929 0.18594 0.93237 0.0
H131 H 0.70606 0.27439 0.94452 0.0
C132 C 0.79497 0.46642 0.74748 0.0
C133 C 0.7627 0.46565 0.67403 0.0
C134 C 0.6946 0.44296 0.68748 0.0
C135 C 0.64729 0.39312 0.74475 0.0
C136 C 0.67435 0.3758 0.79424 0.0
C137 C 0.74763 0.41361 0.79961 0.0
C138 C 0.76192 0.37824 0.84125 0.0
C139 C 0.79501 0.36092 0.77176 0.0
C140 C 0.80926 0.42059 0.93114 0.0
C141 C 0.68587 0.31511 0.85906 0.0
C142 C 0.63597 0.31435 0.8308 0.0
C143 C 0.56275 0.26285 0.84678 0.0
C144 C 0.54347 0.21898 0.90741 0.0
C145 C 0.59945 0.23494 0.9574 0.0
C146 C 0.66471 0.26777 0.91324 0.0
H147 H 0.48599 0.77642 0.03103 0.0
H148 H 0.33799 0.56906 0.90349 0.0
H149 H 0.26428 0.53241 0.03781 0.0
H150 H 0.47649 0.73263 0.26355 0.0
H151 H 0.48538 0.79858 0.32218 0.0
H152 H 0.52727 0.80882 0.21377 0.0
H153 H 0.45914 0.83264 0.14787 0.0
H154 H 0.41577 0.82062 0.25542 0.0
H155 H 0.36167 0.77117 0.14898 0.0
H156 H 0.19817 0.5193 0.17558 0.0
H157 H 0.16196 0.52647 0.33399 0.0
H158 H 0.35924 0.73912 0.38098 0.0
C159 C 0.43899 0.72335 0.0326 0.0
C160 C 0.4153 0.6757 0.95483 0.0
C161 C 0.35436 0.60668 0.95945 0.0
C162 C 0.31237 0.58514 0.03616 0.0
C163 C 0.33396 0.63342 0.10926 0.0
C164 C 0.39734 0.70062 0.11045 0.0
C165 C 0.4098 0.74091 0.20129 0.0
C166 C 0.47886 0.77205 0.25324 0.0
C167 C 0.4117 0.79454 0.18748 0.0
C168 C 0.34279 0.68586 0.24882 0.0
C169 C 0.299 0.62451 0.19368 0.0
C170 C 0.23247 0.56672 0.22081 0.0
C171 C 0.21207 0.57128 0.30988 0.0
C172 C 0.25895 0.63288 0.36922 0.0
C173 C 0.32375 0.69104 0.33754 0.0
H174 H 0.16896 0.77846 0.5086 0.0
H175 H 0.39611 0.91842 0.44617 0.0
H176 H 0.37917 0.97148 0.35222 0.0
H177 H 0.09992 0.75291 0.29049 0.0
H178 H 0.03252 0.75175 0.33067 0.0
H179 H 0.0623 0.72762 0.4017 0.0
H180 H 0.09821 0.81812 0.53773 0.0
H181 H 0.06554 0.83973 0.46659 0.0
H182 H 0.15658 0.90356 0.51663 0.0
H183 H 0.33846 1.0026 0.2529 0.0
H184 H 0.27789 0.01953 0.16452 0.0
H185 H 0.07565 0.86362 0.29017 0.0
C186 C 0.21556 0.82133 0.47703 0.0
C187 C 0.28401 0.84391 0.48513 0.0
C188 C 0.34316 0.89974 0.44145 0.0
C189 C 0.33418 0.93039 0.38758 0.0
C190 C 0.26595 0.90551 0.37826 0.0
C191 C 0.20774 0.85322 0.42297 0.0
C192 C 0.13995 0.83596 0.39858 0.0
C193 C 0.08016 0.76272 0.35261 0.0
C194 C 0.11349 0.85017 0.48498 0.0
C195 C 0.16902 0.88498 0.33031 0.0
C196 C 0.24202 0.92464 0.32069 0.0
C197 C 0.28152 0.97254 0.26067 0.0
C198 C 0.24615 0.9815 0.2103 0.0
C199 C 0.17161 0.94312 0.21991 0.0
C200 C 0.13242 0.89362 0.28056 0.0
H201 H 0.20463 0.39915 0.50952 0.0
H202 H 0.31381 0.56561 0.35483 0.0
H203 H 0.28318 0.49168 0.20939 0.0
H204 H 0.26744 0.33327 0.37576 0.0
H205 H 0.18564 0.24717 0.38364 0.0
H206 H 0.21268 0.31188 0.47461 0.0
H207 H 0.08962 0.27279 0.4553 0.0
H208 H 0.06122 0.2073 0.36446 0.0
H209 H 0.05958 0.26694 0.34305 0.0
H210 H 0.23865 0.3982 0.08034 0.0
H211 H 0.18617 0.29475 0.97825 0.0
H212 H 0.1112 0.18973 0.21769 0.0
C213 C 0.22168 0.42011 0.44505 0.0
C214 C 0.26016 0.48811 0.44367 0.0
C215 C 0.28239 0.51339 0.35765 0.0
C216 C 0.26579 0.47181 0.2747 0.0
C217 C 0.2276 0.40505 0.27874 0.0
C218 C 0.20609 0.37948 0.36182 0.0
C219 C 0.16791 0.30669 0.34786 0.0
C220 C 0.21099 0.29935 0.39847 0.0
C221 C 0.08997 0.26073 0.37954 0.0
C222 C 0.16956 0.29448 0.24341 0.0
C223 C 0.20455 0.35207 0.20507 0.0
C224 C 0.21152 0.35303 0.10985 0.0
C225 C 0.18144 0.2937 0.05229 0.0
C226 C 0.14513 0.2337 0.08939 0.0
C227 C 0.13963 0.23465 0.18676 0.0
H228 H 0.54548 0.70814 0.41227 0.0
H229 H 0.58481 0.88304 0.5102 0.0
H230 H 0.68156 0.94616 0.39775 0.0
H231 H 0.72298 0.78928 0.39203 0.0
H232 H 0.70904 0.73826 0.28761 0.0
H233 H 0.63671 0.70372 0.36521 0.0
H234 H 0.55243 0.67284 0.23351 0.0
H235 H 0.62316 0.70471 0.15394 0.0
H236 H 0.58266 0.73633 0.16627 0.0
H237 H 0.78353 0.99312 0.28894 0.0
H238 H 0.86881 0.01542 0.17182 0.0
H239 H 0.76221 0.80903 0.14575 0.0
C240 C 0.57324 0.7593 0.40823 0.0
C241 C 0.55738 0.79073 0.46871 0.0
C242 C 0.59531 0.85787 0.46304 0.0
C243 C 0.65092 0.89418 0.40056 0.0
C244 C 0.66757 0.86245 0.34514 0.0
C245 C 0.62851 0.79593 0.34685 0.0
C246 C 0.6575 0.77346 0.28185 0.0
C247 C 0.68306 0.7498 0.33488 0.0
C248 C 0.60058 0.71861 0.20427 0.0
C249 C 0.72065 0.83831 0.2447 0.0
C250 C 0.72559 0.88907 0.2823 0.0
C251 C 0.77988 0.95368 0.2591 0.0
C252 C 0.8287 0.96611 0.19367 0.0
C253 C 0.82376 0.91462 0.15289 0.0
C254 C 0.76904 0.84989 0.17886 0.0
H255 H 0.72395 0.16379 0.55586 0.0
H256 H 0.92227 0.37269 0.63899 0.0
H257 H 0.97254 0.33778 0.70659 0.0
H258 H 0.72008 0.10271 0.7566 0.0
H259 H 0.68823 0.02501 0.69783 0.0
H260 H 0.66393 0.06274 0.65181 0.0
H261 H 0.71769 0.06681 0.49604 0.0
H262 H 0.74155 0.02765 0.53784 0.0
H263 H 0.80983 0.10647 0.49333 0.0
H264 H 1.00492 0.28361 0.75788 0.0
H265 H 1.01656 0.21093 0.79897 0.0
H266 H 0.79731 0.03446 0.68997 0.0
C267 C 0.77753 0.20195 0.58934 0.0
C268 C 0.8193 0.27103 0.59183 0.0
C269 C 0.88951 0.31955 0.63541 0.0
C270 C 0.91859 0.30029 0.67424 0.0
C271 C 0.87694 0.23221 0.66917 0.0
C272 C 0.80801 0.18353 0.62811 0.0
C273 C 0.77603 0.11382 0.63171 0.0
C274 C 0.70786 0.07347 0.68779 0.0
C275 C 0.76035 0.07653 0.53381 0.0
C276 C 0.83774 0.13137 0.68171 0.0
C277 C 0.89545 0.20015 0.70148 0.0
C278 C 0.96005 0.22963 0.74341 0.0
C279 C 0.96619 0.18782 0.76601 0.0
C280 C 0.90785 0.11706 0.7478 0.0
C281 C 0.84245 0.08837 0.70554 0.0
H282 H 0.72075 0.54051 0.49605 0.0
H283 H 0.92563 0.60746 0.43016 0.0
H284 H 0.98641 0.70056 0.56018 0.0
H285 H 0.79406 0.70953 0.55749 0.0
H286 H 0.73312 0.68568 0.64924 0.0
H287 H 0.70593 0.62455 0.55115 0.0
H288 H 0.67985 0.54668 0.66178 0.0
H289 H 0.70644 0.60785 0.75945 0.0
H290 H 0.74988 0.57916 0.74414 0.0
H291 H 0.02424 0.78381 0.70143 0.0
H292 H 0.03863 0.85681 0.83587 0.0
H293 H 0.81135 0.74221 0.80723 0.0
C294 C 0.77861 0.57557 0.50842 0.0
C295 C 0.81889 0.5674 0.45245 0.0
C296 C 0.89417 0.61348 0.47137 0.0
C297 C 0.929 0.66634 0.54532 0.0
C298 C 0.888 0.67314 0.59947 0.0
C299 C 0.81458 0.62962 0.58124 0.0
C300 C 0.78357 0.64904 0.64952 0.0
C301 C 0.75233 0.66835 0.5988 0.0
C302 C 0.72655 0.5923 0.70712 0.0
C303 C 0.85072 0.70976 0.70952 0.0
C304 C 0.91018 0.72223 0.67971 0.0
C305 C 0.97804 0.77447 0.72501 0.0
C306 C 0.98564 0.81545 0.80172 0.0
C307 C 0.92611 0.80476 0.83265 0.0
C308 C 0.85764 0.75113 0.7857 0.0
H309 H 0.50765 0.31698 0.54585 0.0
H310 H 0.43527 0.13003 0.41642 0.0
H311 H 0.32965 0.06733 0.51498 0.0
H312 H 0.45591 0.27937 0.77865 0.0
H313 H 0.42161 0.31649 0.79749 0.0
H314 H 0.49245 0.34849 0.71888 0.0
H315 H 0.41763 0.32984 0.58799 0.0
H316 H 0.34613 0.29885 0.66581 0.0
H317 H 0.32746 0.24829 0.55772 0.0
H318 H 0.22824 0.02496 0.61819 0.0
H319 H 0.15 1.00611 0.74433 0.0
H320 H 0.2903 0.2206 0.81295 0.0
C321 C 0.47091 0.26309 0.54129 0.0
C322 C 0.48036 0.22805 0.47641 0.0
C323 C 0.42979 0.15744 0.46828 0.0
C324 C 0.36924 0.12157 0.52275 0.0
C325 C 0.36005 0.15731 0.58406 0.0
C326 C 0.41007 0.2266 0.59506 0.0
C327 C 0.38601 0.25235 0.66432 0.0
C328 C 0.44247 0.30204 0.7446 0.0
C329 C 0.36824 0.28418 0.61602 0.0
C330 C 0.31787 0.18717 0.6959 0.0
C331 C 0.30205 0.13281 0.6452 0.0
C332 C 0.24048 0.06711 0.65898 0.0
C333 C 0.19609 0.05688 0.73002 0.0
C334 C 0.21462 0.11205 0.78752 0.0
C335 C 0.27522 0.17789 0.76916 0.0
H336 H 0.48819 0.40431 0.11089 0.0
H337 H 0.66228 0.46337 0.93814 0.0
H338 H 0.62067 0.48536 0.8204 0.0
H339 H 0.35425 0.32659 0.92556 0.0
H340 H 0.31777 0.35833 0.97765 0.0
H341 H 0.35576 0.34225 0.04994 0.0
H342 H 0.44544 0.46418 0.13307 0.0
H343 H 0.40478 0.4799 0.06636 0.0
H344 H 0.5009 0.53267 0.06533 0.0
H345 H 0.56229 0.50235 0.72263 0.0
H346 H 0.50614 0.53442 0.66364 0.0
H347 H 0.37254 0.47041 0.9016 0.0
C348 C 0.51775 0.42235 0.04848 0.0
C349 C 0.57869 0.43245 0.03372 0.0
C350 C 0.61613 0.4562 0.95141 0.0
C351 C 0.59244 0.46814 0.8837 0.0
C352 C 0.53185 0.45709 0.89981 0.0
C353 C 0.49585 0.43613 0.98093 0.0
C354 C 0.43558 0.43309 0.9836 0.0
C355 C 0.36145 0.36071 0.98431 0.0
C356 C 0.44744 0.4803 0.06699 0.0
C357 C 0.44479 0.45758 0.8925 0.0
C358 C 0.49924 0.46901 0.84421 0.0
C359 C 0.51986 0.4939 0.75991 0.0
C360 C 0.48726 0.51158 0.7267 0.0
C361 C 0.43486 0.50478 0.77787 0.0
C362 C 0.41131 0.47488 0.86005 0.0
H363 H 0.53724 0.95995 0.79502 0.0
H364 H 0.37886 0.78797 0.94012 0.0
H365 H 0.40015 0.86286 0.07767 0.0
H366 H 0.66253 0.07104 0.01086 0.0
H367 H 0.69332 0.1428 0.96562 0.0
H368 H 0.66236 0.07053 0.88817 0.0
H369 H 0.57203 0.06948 0.81237 0.0
H370 H 0.60307 0.1379 0.8983 0.0
H371 H 0.5083 0.06101 0.88581 0.0
H372 H 0.44167 0.95599 0.20213 0.0
H373 H 0.49914 0.06141 0.3036 0.0
H374 H 0.63358 0.17519 0.08133 0.0
C375 C 0.50767 0.93811 0.85623 0.0
C376 C 0.45508 0.86762 0.856 0.0
C377 C 0.41855 0.84137 0.93805 0.0
C378 C 0.43078 0.8836 0.01688 0.0
C379 C 0.48238 0.95257 0.01469 0.0
C380 C 0.52138 0.97988 0.93724 0.0
C381 C 0.57571 0.056 0.95473 0.0
C382 C 0.65314 0.0871 0.95481 0.0
C383 C 0.56389 0.08256 0.88355 0.0
C384 C 0.55793 0.06703 0.05176 0.0
C385 C 0.50503 1.00653 0.08575 0.0
C386 C 0.48274 1.00355 0.17591 0.0
C387 C 0.5158 0.06381 0.23316 0.0
C388 C 0.57018 0.12667 0.20044 0.0
C389 C 0.59103 0.12801 0.10792 0.0
H390 H 0.0889 0.48008 0.82119 0.0
H391 H 0.26199 0.68783 0.93974 0.0
H392 H 0.19071 0.66822 0.07494 0.0
H393 H 0.94859 0.45651 0.87162 0.0
H394 H 0.8886 0.37425 0.90797 0.0
H395 H 0.95874 0.40082 0.83099 0.0
H396 H 1.00747 0.37733 0.94482 0.0
H397 H 0.93633 0.35027 0.02121 0.0
H398 H 0.02936 0.41589 0.06396 0.0
H399 H 0.09111 0.63383 0.17468 0.0
H400 H 0.98064 0.578 0.2617 0.0
H401 H 0.87179 0.38934 0.08781 0.0
C402 C 0.1133 0.52003 0.87864 0.0
C403 C 0.18164 0.58533 0.87122 0.0
C404 C 0.21082 0.63729 0.94561 0.0
C405 C 0.17011 0.62673 0.02208 0.0
C406 C 0.10062 0.56322 0.02409 0.0
C407 C 0.07369 0.5097 0.95715 0.0
C408 C 0.99626 0.44719 0.9753 0.0
C409 C 0.94499 0.41807 0.89137 0.0
C410 C 0.99213 0.39456 0.00302 0.0
C411 C 0.98174 0.47574 0.05669 0.0
C412 C 0.04315 0.54272 0.08401 0.0
C413 C 0.04304 0.58108 0.15502 0.0
C414 C 0.97967 0.54936 0.20279 0.0
C415 C 0.91697 0.48008 0.17921 0.0
C416 C 0.91791 0.44299 0.10453 0.0
loop_
_geom_bond_atom_site_label_1
_geom_bond_atom_site_label_2
_geom_bond_distance
_geom_bond_site_symmetry_2
_ccdc_geom_bond_type
C0 O12 1.241 . S
C0 O13 1.280 . S
C1 O14 1.277 1_445 S
C1 O15 1.245 . S
C2 O26 1.247 1_554 S
C2 O28 1.289 . S
Mg3 O4 1.926 1_545 S
Mg3 O13 1.984 1_545 S
Mg3 O15 1.988 . S
Mg3 O16 2.061 . S
O4 Mg3 1.926 1_565 S
O4 Mg5 1.986 1_455 S
O4 Mg6 1.917 1_565 S
Mg5 O4 1.986 1_655 S
Mg5 O12 2.042 1_655 S
Mg5 O14 2.041 . S
Mg5 O20 2.038 . S
Mg5 O28 2.238 . S
Mg6 O4 1.917 1_545 S
Mg6 O7 1.917 1_454 S
Mg6 O17 2.106 1_554 S
Mg6 O19 2.079 1_444 S
Mg6 O28 2.106 1_445 S
Mg6 O29 2.079 . S
O7 Mg6 1.917 1_656 S
O7 Mg8 1.926 1_545 S
O7 Mg9 1.986 1_655 S
Mg8 O7 1.926 1_565 S
Mg8 O22 1.984 1_565 S
Mg8 O25 1.988 . S
Mg8 O26 2.061 . S
Mg9 O7 1.986 1_455 S
Mg9 O17 2.238 . S
Mg9 O21 2.042 1_455 S
Mg9 O23 2.041 . S
Mg9 O30 2.038 . S
C10 O16 1.247 1_556 S
C10 O17 1.289 . S
C11 O29 1.245 . S
C11 O30 1.274 1_554 S
O12 C0 1.241 . S
O12 Mg5 2.042 1_455 S
O13 C0 1.280 . S
O13 Mg3 1.984 1_565 S
O14 C1 1.277 1_665 S
O14 Mg5 2.041 . S
O15 C1 1.245 . S
O15 Mg3 1.988 . S
O16 Mg3 2.061 . S
O16 C10 1.247 1_554 S
O17 Mg6 2.106 1_556 S
O17 Mg9 2.238 . S
O17 C10 1.289 . S
C18 O19 1.245 . S
C18 O20 1.274 1_556 S
O19 Mg6 2.079 1_666 S
O19 C18 1.245 . S
O20 Mg5 2.038 . S
O20 C18 1.274 1_554 S
O21 Mg9 2.042 1_655 S
O21 C24 1.241 . S
O22 Mg8 1.984 1_545 S
O22 C24 1.280 . S
O23 Mg9 2.041 . S
O23 C27 1.277 1_445 S
C24 O21 1.241 . S
C24 O22 1.280 . S
O25 Mg8 1.988 . S
O25 C27 1.245 . S
O26 C2 1.247 1_556 S
O26 Mg8 2.061 . S
C27 O23 1.277 1_665 S
C27 O25 1.245 . S
O28 C2 1.289 . S
O28 Mg5 2.238 . S
O28 Mg6 2.106 1_665 S
O29 Mg6 2.079 . S
O29 C11 1.245 . S
O30 Mg9 2.038 . S
O30 C11 1.274 1_556 S
C31 O43 1.241 . S
C31 O44 1.280 . S
C32 O45 1.277 . S
C32 O46 1.245 . S
C33 O57 1.247 . S
C33 O59 1.289 . S
Mg34 O35 1.926 . S
Mg34 O44 1.984 . S
Mg34 O46 1.988 . S
Mg34 O47 2.061 . S
O35 Mg34 1.926 . S
O35 Mg36 1.986 . S
O35 Mg37 1.917 . S
Mg36 O35 1.986 . S
Mg36 O43 2.042 . S
Mg36 O45 2.041 . S
Mg36 O51 2.038 . S
Mg36 O59 2.238 . S
Mg37 O35 1.917 . S
Mg37 O38 1.917 . S
Mg37 O48 2.106 . S
Mg37 O50 2.079 . S
Mg37 O59 2.106 . S
Mg37 O60 2.079 . S
O38 Mg37 1.917 . S
O38 Mg39 1.926 . S
O38 Mg40 1.986 . S
Mg39 O38 1.926 . S
Mg39 O53 1.984 . S
Mg39 O56 1.988 . S
Mg39 O57 2.061 . S
Mg40 O38 1.986 . S
Mg40 O48 2.238 . S
Mg40 O52 2.042 . S
Mg40 O54 2.041 . S
Mg40 O61 2.038 . S
C41 O47 1.247 . S
C41 O48 1.289 . S
C42 O60 1.245 . S
C42 O61 1.274 . S
O43 C31 1.241 . S
O43 Mg36 2.042 . S
O44 C31 1.280 . S
O44 Mg34 1.984 . S
O45 C32 1.277 . S
O45 Mg36 2.041 . S
O46 C32 1.245 . S
O46 Mg34 1.988 . S
O47 Mg34 2.061 . S
O47 C41 1.247 . S
O48 Mg37 2.106 . S
O48 Mg40 2.238 . S
O48 C41 1.289 . S
C49 O50 1.245 . S
C49 O51 1.274 . S
O50 Mg37 2.079 . S
O50 C49 1.245 . S
O51 Mg36 2.038 . S
O51 C49 1.274 . S
O52 Mg40 2.042 . S
O52 C55 1.241 . S
O53 Mg39 1.984 . S
O53 C55 1.280 . S
O54 Mg40 2.041 . S
O54 C58 1.277 . S
C55 O52 1.241 . S
C55 O53 1.280 . S
O56 Mg39 1.988 . S
O56 C58 1.245 . S
O57 C33 1.247 . S
O57 Mg39 2.061 . S
C58 O54 1.277 . S
C58 O56 1.245 . S
O59 C33 1.289 . S
O59 Mg36 2.238 . S
O59 Mg37 2.106 . S
O60 Mg37 2.079 . S
O60 C42 1.245 . S
O61 Mg40 2.038 . S
O61 C42 1.274 . S
C62 O74 1.241 . S
C62 O75 1.280 . S
C63 O76 1.277 . S
C63 O77 1.245 . S
C64 O88 1.247 . S
C64 O90 1.289 . S
Mg65 O66 1.926 . S
Mg65 O75 1.984 . S
Mg65 O77 1.988 . S
Mg65 O78 2.061 . S
O66 Mg65 1.926 . S
O66 Mg67 1.986 . S
O66 Mg68 1.917 . S
Mg67 O66 1.986 . S
Mg67 O74 2.042 . S
Mg67 O76 2.041 . S
Mg67 O82 2.038 . S
Mg67 O90 2.238 . S
Mg68 O66 1.917 . S
Mg68 O69 1.917 . S
Mg68 O79 2.106 . S
Mg68 O81 2.079 . S
Mg68 O90 2.106 . S
Mg68 O91 2.079 . S
O69 Mg68 1.917 . S
O69 Mg70 1.926 . S
O69 Mg71 1.986 . S
Mg70 O69 1.926 . S
Mg70 O84 1.984 . S
Mg70 O87 1.988 . S
Mg70 O88 2.061 . S
Mg71 O69 1.986 . S
Mg71 O79 2.238 . S
Mg71 O83 2.042 . S
Mg71 O85 2.041 . S
Mg71 O92 2.038 . S
C72 O78 1.247 . S
C72 O79 1.289 . S
C73 O91 1.245 . S
C73 O92 1.274 . S
O74 C62 1.241 . S
O74 Mg67 2.042 . S
O75 C62 1.280 . S
O75 Mg65 1.984 . S
O76 C63 1.277 . S
O76 Mg67 2.041 . S
O77 C63 1.245 . S
O77 Mg65 1.988 . S
O78 Mg65 2.061 . S
O78 C72 1.247 . S
O79 Mg68 2.106 . S
O79 Mg71 2.238 . S
O79 C72 1.289 . S
C80 O81 1.245 . S
C80 O82 1.274 . S
O81 Mg68 2.079 . S
O81 C80 1.245 . S
O82 Mg67 2.038 . S
O82 C80 1.274 . S
O83 Mg71 2.042 . S
O83 C86 1.241 . S
O84 Mg70 1.984 . S
O84 C86 1.280 . S
O85 Mg71 2.041 . S
O85 C89 1.277 . S
C86 O83 1.241 . S
C86 O84 1.280 . S
O87 Mg70 1.988 . S
O87 C89 1.245 . S
O88 C64 1.247 . S
O88 Mg70 2.061 . S
C89 O85 1.277 . S
C89 O87 1.245 . S
O90 C64 1.289 . S
O90 Mg67 2.238 . S
O90 Mg68 2.106 . S
O91 Mg68 2.079 . S
O91 C73 1.245 . S
O92 Mg71 2.038 . S
O92 C73 1.274 . S
H93 C105 0.930 . S
H94 C107 0.930 . S
H95 C108 0.930 . S
H96 C112 0.959 1_655 S
H97 C112 0.959 . S
H98 C112 0.961 . S
H99 C113 0.960 . S
H100 C113 0.961 . S
H101 C113 0.959 . S
H102 C116 0.929 . S
H103 C117 0.931 . S
H104 C119 0.930 . S
C105 H93 0.930 . S
C105 C106 1.399 1_545 S
C105 C110 1.399 1_655 S
C106 C105 1.399 1_565 S
C106 C107 1.376 . S
C107 H94 0.930 . S
C107 C106 1.376 . S
C107 C108 1.388 . S
C108 H95 0.930 . S
C108 C107 1.388 . S
C108 C109 1.390 . S
C109 C108 1.390 . S
C109 C110 1.394 1_665 S
C109 C115 1.465 1_655 S
C110 C105 1.399 1_455 S
C110 C109 1.394 1_445 S
C110 C111 1.516 . S
C111 C110 1.516 . S
C111 C112 1.502 . S
C111 C113 1.561 . S
C111 C114 1.526 . S
C112 H96 0.959 1_455 S
C112 H97 0.959 . S
C112 H98 0.961 . S
C112 C111 1.502 . S
C113 H99 0.960 . S
C113 H100 0.961 . S
C113 H101 0.959 . S
C113 C111 1.561 . S
C114 C111 1.526 . S
C114 C115 1.396 1_545 S
C114 C119 1.390 . S
C115 C109 1.465 1_455 S
C115 C114 1.396 1_565 S
C115 C116 1.399 1_455 S
C116 H102 0.929 . S
C116 C115 1.399 1_655 S
C116 C117 1.385 1_655 S
C117 H103 0.931 . S
C117 C116 1.385 1_455 S
C117 C118 1.389 1_565 S
C118 C117 1.389 1_545 S
C118 C119 1.387 . S
C119 H104 0.930 . S
C119 C114 1.390 . S
C119 C118 1.387 . S
H120 C132 0.930 . S
H121 C134 0.930 . S
H122 C135 0.930 . S
H123 C139 0.959 . S
H124 C139 0.959 . S
H125 C139 0.961 . S
H126 C140 0.960 . S
H127 C140 0.961 . S
H128 C140 0.959 . S
H129 C143 0.929 . S
H130 C144 0.931 . S
H131 C146 0.930 1_554 S
C132 H120 0.930 . S
C132 C133 1.399 . S
C132 C137 1.399 . S
C133 C132 1.399 . S
C133 C134 1.376 . S
C134 H121 0.930 . S
C134 C133 1.376 . S
C134 C135 1.388 . S
C135 H122 0.930 . S
C135 C134 1.388 . S
C135 C136 1.390 . S
C136 C135 1.390 . S
C136 C137 1.394 . S
C136 C142 1.465 . S
C137 C132 1.399 . S
C137 C136 1.394 . S
C137 C138 1.516 . S
C138 C137 1.516 . S
C138 C139 1.502 . S
C138 C140 1.561 . S
C138 C141 1.526 . S
C139 H123 0.959 . S
C139 H124 0.959 . S
C139 H125 0.961 . S
C139 C138 1.502 . S
C140 H126 0.960 . S
C140 H127 0.961 . S
C140 H128 0.959 . S
C140 C138 1.561 . S
C141 C138 1.526 . S
C141 C142 1.396 . S
C141 C146 1.390 . S
C142 C136 1.465 . S
C142 C141 1.396 . S
C142 C143 1.399 . S
C143 H129 0.929 . S
C143 C142 1.399 . S
C143 C144 1.385 1_556 S
C144 H130 0.931 . S
C144 C143 1.385 1_554 S
C144 C145 1.389 . S
C145 C144 1.389 . S
C145 C146 1.387 1_554 S
C146 H131 0.930 1_556 S
C146 C141 1.390 . S
C146 C145 1.387 1_556 S
H147 C159 0.930 . S
H148 C161 0.930 . S
H149 C162 0.930 . S
H150 C166 0.959 . S
H151 C166 0.959 . S
H152 C166 0.961 . S
H153 C167 0.960 . S
H154 C167 0.961 . S
H155 C167 0.959 . S
H156 C170 0.929 . S
H157 C171 0.931 . S
H158 C173 0.930 . S
C159 H147 0.930 . S
C159 C160 1.399 1_554 S
C159 C164 1.399 . S
C160 C159 1.399 1_556 S
C160 C161 1.376 . S
C161 H148 0.930 . S
C161 C160 1.376 . S
C161 C162 1.388 1_556 S
C162 H149 0.930 . S
C162 C161 1.388 1_554 S
C162 C163 1.390 . S
C163 C162 1.390 . S
C163 C164 1.394 . S
C163 C169 1.465 . S
C164 C159 1.399 . S
C164 C163 1.394 . S
C164 C165 1.516 . S
C165 C164 1.516 . S
C165 C166 1.502 . S
C165 C167 1.561 . S
C165 C168 1.526 . S
C166 H150 0.959 . S
C166 H151 0.959 . S
C166 H152 0.961 . S
C166 C165 1.502 . S
C167 H153 0.960 . S
C167 H154 0.961 . S
C167 H155 0.959 . S
C167 C165 1.561 . S
C168 C165 1.526 . S
C168 C169 1.396 . S
C168 C173 1.390 . S
C169 C163 1.465 . S
C169 C168 1.396 . S
C169 C170 1.399 . S
C170 H156 0.929 . S
C170 C169 1.399 . S
C170 C171 1.385 . S
C171 H157 0.931 . S
C171 C170 1.385 . S
C171 C172 1.389 . S
C172 C171 1.389 . S
C172 C173 1.387 . S
C173 H158 0.930 . S
C173 C168 1.390 . S
C173 C172 1.387 . S
H174 C186 0.930 . S
H175 C188 0.930 . S
H176 C189 0.930 . S
H177 C193 0.959 . S
H178 C193 0.959 . S
H179 C193 0.961 . S
H180 C194 0.960 . S
H181 C194 0.962 1_655 S
H182 C194 0.959 . S
H183 C197 0.929 . S
H184 C198 0.931 . S
H185 C200 0.930 . S
C186 H174 0.930 . S
C186 C187 1.399 . S
C186 C191 1.399 . S
C187 C186 1.399 . S
C187 C188 1.376 . S
C188 H175 0.930 . S
C188 C187 1.376 . S
C188 C189 1.388 . S
C189 H176 0.930 . S
C189 C188 1.388 . S
C189 C190 1.390 . S
C190 C189 1.390 . S
C190 C191 1.394 . S
C190 C196 1.465 . S
C191 C186 1.399 . S
C191 C190 1.394 . S
C191 C192 1.516 . S
C192 C191 1.516 . S
C192 C193 1.502 . S
C192 C194 1.561 . S
C192 C195 1.526 . S
C193 H177 0.959 . S
C193 H178 0.959 . S
C193 H179 0.961 . S
C193 C192 1.502 . S
C194 H180 0.960 . S
C194 H181 0.962 1_455 S
C194 H182 0.959 . S
C194 C192 1.561 . S
C195 C192 1.526 . S
C195 C196 1.396 . S
C195 C200 1.390 . S
C196 C190 1.465 . S
C196 C195 1.396 . S
C196 C197 1.399 . S
C197 H183 0.929 . S
C197 C196 1.399 . S
C197 C198 1.385 . S
C198 H184 0.931 . S
C198 C197 1.385 . S
C198 C199 1.389 . S
C199 C198 1.389 . S
C199 C200 1.387 . S
C200 H185 0.930 . S
C200 C195 1.390 . S
C200 C199 1.387 . S
H201 C213 0.930 . S
H202 C215 0.930 . S
H203 C216 0.930 . S
H204 C220 0.959 . S
H205 C220 0.959 . S
H206 C220 0.961 . S
H207 C221 0.960 . S
H208 C221 0.961 . S
H209 C221 0.959 . S
H210 C224 0.929 . S
H211 C225 0.931 . S
H212 C227 0.930 . S
C213 H201 0.930 . S
C213 C214 1.399 . S
C213 C218 1.399 . S
C214 C213 1.399 . S
C214 C215 1.376 . S
C215 H202 0.930 . S
C215 C214 1.376 . S
C215 C216 1.388 . S
C216 H203 0.930 . S
C216 C215 1.388 . S
C216 C217 1.390 . S
C217 C216 1.390 . S
C217 C218 1.394 . S
C217 C223 1.465 . S
C218 C213 1.399 . S
C218 C217 1.394 . S
C218 C219 1.516 . S
C219 C218 1.516 . S
C219 C220 1.502 . S
C219 C221 1.561 . S
C219 C222 1.526 . S
C220 H204 0.959 . S
C220 H205 0.959 . S
C220 H206 0.961 . S
C220 C219 1.502 . S
C221 H207 0.960 . S
C221 H208 0.961 . S
C221 H209 0.959 . S
C221 C219 1.561 . S
C222 C219 1.526 . S
C222 C223 1.396 . S
C222 C227 1.390 . S
C223 C217 1.465 . S
C223 C222 1.396 . S
C223 C224 1.399 . S
C224 H210 0.929 . S
C224 C223 1.399 . S
C224 C225 1.385 . S
C225 H211 0.931 . S
C225 C224 1.385 . S
C225 C226 1.389 . S
C226 C225 1.389 . S
C226 C227 1.387 . S
C227 H212 0.930 . S
C227 C222 1.390 . S
C227 C226 1.387 . S
H228 C240 0.930 . S
H229 C242 0.930 . S
H230 C243 0.930 . S
H231 C247 0.959 . S
H232 C247 0.959 . S
H233 C247 0.961 . S
H234 C248 0.960 . S
H235 C248 0.961 . S
H236 C248 0.959 . S
H237 C251 0.929 . S
H238 C252 0.931 . S
H239 C254 0.930 . S
C240 H228 0.930 . S
C240 C241 1.399 . S
C240 C245 1.399 . S
C241 C240 1.399 . S
C241 C242 1.376 . S
C242 H229 0.930 . S
C242 C241 1.376 . S
C242 C243 1.388 . S
C243 H230 0.930 . S
C243 C242 1.388 . S
C243 C244 1.390 . S
C244 C243 1.390 . S
C244 C245 1.394 . S
C244 C250 1.465 . S
C245 C240 1.399 . S
C245 C244 1.394 . S
C245 C246 1.516 . S
C246 C245 1.516 . S
C246 C247 1.502 . S
C246 C248 1.561 . S
C246 C249 1.526 . S
C247 H231 0.959 . S
C247 H232 0.959 . S
C247 H233 0.961 . S
C247 C246 1.502 . S
C248 H234 0.960 . S
C248 H235 0.961 . S
C248 H236 0.959 . S
C248 C246 1.561 . S
C249 C246 1.526 . S
C249 C250 1.396 . S
C249 C254 1.390 . S
C250 C244 1.465 . S
C250 C249 1.396 . S
C250 C251 1.399 . S
C251 H237 0.929 . S
C251 C250 1.399 . S
C251 C252 1.385 . S
C252 H238 0.931 . S
C252 C251 1.385 . S
C252 C253 1.389 . S
C253 C252 1.389 . S
C253 C254 1.387 . S
C254 H239 0.930 . S
C254 C249 1.390 . S
C254 C253 1.387 . S
H255 C267 0.930 . S
H256 C269 0.930 . S
H257 C270 0.930 . S
H258 C274 0.959 . S
H259 C274 0.959 . S
H260 C274 0.961 . S
H261 C275 0.960 . S
H262 C275 0.961 . S
H263 C275 0.959 . S
H264 C278 0.929 . S
H265 C279 0.931 . S
H266 C281 0.930 . S
C267 H255 0.930 . S
C267 C268 1.399 . S
C267 C272 1.399 . S
C268 C267 1.399 . S
C268 C269 1.376 . S
C269 H256 0.930 . S
C269 C268 1.376 . S
C269 C270 1.388 . S
C270 H257 0.930 . S
C270 C269 1.388 . S
C270 C271 1.390 . S
C271 C270 1.390 . S
C271 C272 1.394 . S
C271 C277 1.465 . S
C272 C267 1.399 . S
C272 C271 1.394 . S
C272 C273 1.516 . S
C273 C272 1.516 . S
C273 C274 1.502 . S
C273 C275 1.561 . S
C273 C276 1.526 . S
C274 H258 0.959 . S
C274 H259 0.959 . S
C274 H260 0.961 . S
C274 C273 1.502 . S
C275 H261 0.960 . S
C275 H262 0.961 . S
C275 H263 0.959 . S
C275 C273 1.561 . S
C276 C273 1.526 . S
C276 C277 1.396 . S
C276 C281 1.390 . S
C277 C271 1.465 . S
C277 C276 1.396 . S
C277 C278 1.399 . S
C278 H264 0.929 . S
C278 C277 1.399 . S
C278 C279 1.385 . S
C279 H265 0.931 . S
C279 C278 1.385 . S
C279 C280 1.389 . S
C280 C279 1.389 . S
C280 C281 1.387 . S
C281 H266 0.930 . S
C281 C276 1.390 . S
C281 C280 1.387 . S
H282 C294 0.930 . S
H283 C296 0.930 . S
H284 C297 0.930 . S
H285 C301 0.959 . S
H286 C301 0.959 . S
H287 C301 0.961 . S
H288 C302 0.960 . S
H289 C302 0.961 . S
H290 C302 0.959 . S
H291 C305 0.929 . S
H292 C306 0.931 . S
H293 C308 0.930 . S
C294 H282 0.930 . S
C294 C295 1.399 . S
C294 C299 1.399 . S
C295 C294 1.399 . S
C295 C296 1.376 . S
C296 H283 0.930 . S
C296 C295 1.376 . S
C296 C297 1.388 . S
C297 H284 0.930 . S
C297 C296 1.388 . S
C297 C298 1.390 . S
C298 C297 1.390 . S
C298 C299 1.394 . S
C298 C304 1.465 . S
C299 C294 1.399 . S
C299 C298 1.394 . S
C299 C300 1.516 . S
C300 C299 1.516 . S
C300 C301 1.502 . S
C300 C302 1.561 . S
C300 C303 1.526 . S
C301 H285 0.959 . S
C301 H286 0.959 . S
C301 H287 0.961 . S
C301 C300 1.502 . S
C302 H288 0.960 . S
C302 H289 0.961 . S
C302 H290 0.959 . S
C302 C300 1.561 . S
C303 C300 1.526 . S
C303 C304 1.396 . S
C303 C308 1.390 . S
C304 C298 1.465 . S
C304 C303 1.396 . S
C304 C305 1.399 . S
C305 H291 0.929 . S
C305 C304 1.399 . S
C305 C306 1.385 . S
C306 H292 0.931 . S
C306 C305 1.385 . S
C306 C307 1.389 . S
C307 C306 1.389 . S
C307 C308 1.387 . S
C308 H293 0.930 . S
C308 C303 1.390 . S
C308 C307 1.387 . S
H309 C321 0.930 . S
H310 C323 0.930 . S
H311 C324 0.930 . S
H312 C328 0.959 . S
H313 C328 0.959 . S
H314 C328 0.961 . S
H315 C329 0.960 . S
H316 C329 0.961 . S
H317 C329 0.959 . S
H318 C332 0.929 . S
H319 C333 0.931 . S
H320 C335 0.930 . S
C321 H309 0.930 . S
C321 C322 1.399 . S
C321 C326 1.399 . S
C322 C321 1.399 . S
C322 C323 1.376 . S
C323 H310 0.930 . S
C323 C322 1.376 . S
C323 C324 1.388 . S
C324 H311 0.930 . S
C324 C323 1.388 . S
C324 C325 1.390 . S
C325 C324 1.390 . S
C325 C326 1.394 . S
C325 C331 1.465 . S
C326 C321 1.399 . S
C326 C325 1.394 . S
C326 C327 1.516 . S
C327 C326 1.516 . S
C327 C328 1.502 . S
C327 C329 1.561 . S
C327 C330 1.526 . S
C328 H312 0.959 . S
C328 H313 0.959 . S
C328 H314 0.961 . S
C328 C327 1.502 . S
C329 H315 0.960 . S
C329 H316 0.961 . S
C329 H317 0.959 . S
C329 C327 1.561 . S
C330 C327 1.526 . S
C330 C331 1.396 . S
C330 C335 1.390 . S
C331 C325 1.465 . S
C331 C330 1.396 . S
C331 C332 1.399 . S
C332 H318 0.929 . S
C332 C331 1.399 . S
C332 C333 1.385 . S
C333 H319 0.931 . S
C333 C332 1.385 . S
C333 C334 1.389 . S
C334 C333 1.389 . S
C334 C335 1.387 . S
C335 H320 0.930 . S
C335 C330 1.390 . S
C335 C334 1.387 . S
H336 C348 0.930 . S
H337 C350 0.930 . S
H338 C351 0.930 . S
H339 C355 0.959 . S
H340 C355 0.959 . S
H341 C355 0.961 1_554 S
H342 C356 0.960 . S
H343 C356 0.961 . S
H344 C356 0.959 . S
H345 C359 0.929 . S
H346 C360 0.931 . S
H347 C362 0.930 . S
C348 H336 0.930 . S
C348 C349 1.399 . S
C348 C353 1.399 . S
C349 C348 1.399 . S
C349 C350 1.376 . S
C350 H337 0.930 . S
C350 C349 1.376 . S
C350 C351 1.388 . S
C351 H338 0.930 . S
C351 C350 1.388 . S
C351 C352 1.390 . S
C352 C351 1.390 . S
C352 C353 1.394 . S
C352 C358 1.465 1_554 S
C353 C348 1.399 . S
C353 C352 1.394 . S
C353 C354 1.516 . S
C354 C353 1.516 . S
C354 C355 1.502 1_554 S
C354 C356 1.561 . S
C354 C357 1.526 1_554 S
C355 H339 0.959 . S
C355 H340 0.959 . S
C355 H341 0.961 1_556 S
C355 C354 1.502 1_556 S
C356 H342 0.960 . S
C356 H343 0.961 . S
C356 H344 0.959 . S
C356 C354 1.561 . S
C357 C354 1.526 1_556 S
C357 C358 1.396 . S
C357 C362 1.390 . S
C358 C352 1.465 1_556 S
C358 C357 1.396 . S
C358 C359 1.399 . S
C359 H345 0.929 . S
C359 C358 1.399 . S
C359 C360 1.385 . S
C360 H346 0.931 . S
C360 C359 1.385 . S
C360 C361 1.389 . S
C361 C360 1.389 . S
C361 C362 1.387 . S
C362 H347 0.930 . S
C362 C357 1.390 . S
C362 C361 1.387 . S
H363 C375 0.930 . S
H364 C377 0.930 . S
H365 C378 0.930 . S
H366 C382 0.959 . S
H367 C382 0.959 . S
H368 C382 0.961 . S
H369 C383 0.960 . S
H370 C383 0.961 . S
H371 C383 0.959 . S
H372 C386 0.929 1_565 S
H373 C387 0.931 . S
H374 C389 0.930 . S
C375 H363 0.930 . S
C375 C376 1.399 . S
C375 C380 1.399 . S
C376 C375 1.399 . S
C376 C377 1.376 . S
C377 H364 0.930 . S
C377 C376 1.376 . S
C377 C378 1.388 1_556 S
C378 H365 0.930 . S
C378 C377 1.388 1_554 S
C378 C379 1.390 1_554 S
C379 C378 1.390 1_556 S
C379 C380 1.394 . S
C379 C385 1.465 1_566 S
C380 C375 1.399 . S
C380 C379 1.394 . S
C380 C381 1.516 1_565 S
C381 C380 1.516 1_545 S
C381 C382 1.502 . S
C381 C383 1.561 . S
C381 C384 1.526 1_556 S
C382 H366 0.959 . S
C382 H367 0.959 . S
C382 H368 0.961 . S
C382 C381 1.502 . S
C383 H369 0.960 . S
C383 H370 0.961 . S
C383 H371 0.959 . S
C383 C381 1.561 . S
C384 C381 1.526 1_554 S
C384 C385 1.396 . S
C384 C389 1.390 . S
C385 C379 1.465 1_544 S
C385 C384 1.396 . S
C385 C386 1.399 . S
C386 H372 0.929 1_545 S
C386 C385 1.399 . S
C386 C387 1.385 . S
C387 H373 0.931 . S
C387 C386 1.385 . S
C387 C388 1.389 . S
C388 C387 1.389 . S
C388 C389 1.387 . S
C389 H374 0.930 . S
C389 C384 1.390 . S
C389 C388 1.387 . S
H390 C402 0.930 . S
H391 C404 0.930 . S
H392 C405 0.930 . S
H393 C409 0.959 . S
H394 C409 0.959 . S
H395 C409 0.961 . S
H396 C410 0.960 . S
H397 C410 0.961 . S
H398 C410 0.959 . S
H399 C413 0.929 . S
H400 C414 0.931 . S
H401 C416 0.930 . S
C402 H390 0.930 . S
C402 C403 1.399 . S
C402 C407 1.399 . S
C403 C402 1.399 . S
C403 C404 1.376 . S
C404 H391 0.930 . S
C404 C403 1.376 . S
C404 C405 1.388 1_556 S
C405 H392 0.930 . S
C405 C404 1.388 1_554 S
C405 C406 1.390 1_554 S
C406 C405 1.390 1_556 S
C406 C407 1.394 . S
C406 C412 1.465 1_456 S
C407 C402 1.399 . S
C407 C406 1.394 . S
C407 C408 1.516 1_455 S
C408 C407 1.516 1_655 S
C408 C409 1.502 . S
C408 C410 1.561 . S
C408 C411 1.526 1_556 S
C409 H393 0.959 . S
C409 H394 0.959 . S
C409 H395 0.961 . S
C409 C408 1.502 . S
C410 H396 0.960 . S
C410 H397 0.961 . S
C410 H398 0.959 . S
C410 C408 1.561 . S
C411 C408 1.526 1_554 S
C411 C412 1.396 . S
C411 C416 1.390 . S
C412 C406 1.465 1_654 S
C412 C411 1.396 . S
C412 C413 1.399 1_655 S
C413 H399 0.929 . S
C413 C412 1.399 1_455 S
C413 C414 1.385 1_455 S
C414 H400 0.931 . S
C414 C413 1.385 1_655 S
C414 C415 1.389 . S
C415 C414 1.389 . S
C415 C416 1.387 . S
C416 H401 0.930 . S
C416 C411 1.390 . S
C416 C415 1.387 . S
C106 C27 0.706 . S
C118 C1 0.568 . S
C133 C32 0.703 . S
C145 C58 0.569 . S
C160 C63 0.601 . S
C172 C89 0.696 . S
C187 C86 2.032 . S
C199 C0 1.956 . S
C214 C80 2.041 . S
C226 C11 2.018 . S
C241 C72 1.702 . S
C253 C2 1.709 . S
C268 C31 1.966 . S
C280 C24 2.025 . S
C295 C42 2.016 . S
C307 C18 2.049 . S
C322 C33 1.691 . S
C334 C10 1.716 . S
C349 C55 2.012 . S
C361 C62 1.984 . S
C376 C73 2.047 . S
C388 C49 2.017 . S
C403 C64 1.711 . S
C415 C41 1.694 . S
