# Generated by pormake.
# Topology smm, (6)-cn, num edge types: 1
# Building blocks:
#     Node 0, Type 0, BuildingBlock: KUMJIN_clean_sbu_0, # of connection points: 6
#     Node 1, Type 0, BuildingBlock: KUMJIN_clean_sbu_0, # of connection points: 6
#     Node 2, Type 0, BuildingBlock: KUMJIN_clean_sbu_0, # of connection points: 6
#     Node 3, Type 0, BuildingBlock: KUMJIN_clean_sbu_0, # of connection points: 6
#     Node 4, Type 0, BuildingBlock: KUMJIN_clean_sbu_0, # of connection points: 6
#     Node 5, Type 0, BuildingBlock: KUMJIN_clean_sbu_0, # of connection points: 6
#     Node 6, Type 0, BuildingBlock: KUMJIN_clean_sbu_0, # of connection points: 6
#     Node 7, Type 0, BuildingBlock: KUMJIN_clean_sbu_0, # of connection points: 6
#     Node 8, Type 0, BuildingBlock: KUMJIN_clean_sbu_0, # of connection points: 6
#     Edge 9, Type (0, 0), BuildingBlock: UVAHIK_clean_linker_0, # of connection points: 2
#     Edge 10, Type (0, 0), BuildingBlock: UVAHIK_clean_linker_0, # of connection points: 2
#     Edge 11, Type (0, 0), BuildingBlock: UVAHIK_clean_linker_0, # of connection points: 2
#     Edge 12, Type (0, 0), BuildingBlock: UVAHIK_clean_linker_0, # of connection points: 2
#     Edge 13, Type (0, 0), BuildingBlock: UVAHIK_clean_linker_0, # of connection points: 2
#     Edge 14, Type (0, 0), BuildingBlock: UVAHIK_clean_linker_0, # of connection points: 2
#     Edge 15, Type (0, 0), BuildingBlock: UVAHIK_clean_linker_0, # of connection points: 2
#     Edge 16, Type (0, 0), BuildingBlock: UVAHIK_clean_linker_0, # of connection points: 2
#     Edge 17, Type (0, 0), BuildingBlock: UVAHIK_clean_linker_0, # of connection points: 2
#     Edge 18, Type (0, 0), BuildingBlock: UVAHIK_clean_linker_0, # of connection points: 2
#     Edge 19, Type (0, 0), BuildingBlock: UVAHIK_clean_linker_0, # of connection points: 2
#     Edge 20, Type (0, 0), BuildingBlock: UVAHIK_clean_linker_0, # of connection points: 2
#     Edge 21, Type (0, 0), BuildingBlock: UVAHIK_clean_linker_0, # of connection points: 2
#     Edge 22, Type (0, 0), BuildingBlock: UVAHIK_clean_linker_0, # of connection points: 2
#     Edge 23, Type (0, 0), BuildingBlock: UVAHIK_clean_linker_0, # of connection points: 2
#     Edge 24, Type (0, 0), BuildingBlock: UVAHIK_clean_linker_0, # of connection points: 2
#     Edge 25, Type (0, 0), BuildingBlock: UVAHIK_clean_linker_0, # of connection points: 2
#     Edge 26, Type (0, 0), BuildingBlock: UVAHIK_clean_linker_0, # of connection points: 2
#     Edge 27, Type (0, 0), BuildingBlock: UVAHIK_clean_linker_0, # of connection points: 2
#     Edge 28, Type (0, 0), BuildingBlock: UVAHIK_clean_linker_0, # of connection points: 2
#     Edge 29, Type (0, 0), BuildingBlock: UVAHIK_clean_linker_0, # of connection points: 2
#     Edge 30, Type (0, 0), BuildingBlock: UVAHIK_clean_linker_0, # of connection points: 2
#     Edge 31, Type (0, 0), BuildingBlock: UVAHIK_clean_linker_0, # of connection points: 2
#     Edge 32, Type (0, 0), BuildingBlock: UVAHIK_clean_linker_0, # of connection points: 2
#     Edge 33, Type (0, 0), BuildingBlock: UVAHIK_clean_linker_0, # of connection points: 2
#     Edge 34, Type (0, 0), BuildingBlock: UVAHIK_clean_linker_0, # of connection points: 2
#     Edge 35, Type (0, 0), BuildingBlock: UVAHIK_clean_linker_0, # of connection points: 2
# Relax obj value: 0.107
# Max RMSD: 0.252
# Mean RMSD: 0.188
data_MOF--net-smm--node1-KUMJIN_clean_sbu_0--edge1-UVAHIK_clean_linker_0
_symmetry_space_group_name_H-M    P1
_symmetry_Int_Tables_number       1
_symmetry_cell_setting            triclinic
loop_
_symmetry_equiv_pos_as_xyz
'x, y, z'
_cell_length_a     73.424571
_cell_length_b     88.244834
_cell_length_c     19.180646
_cell_angle_alpha  98.728565
_cell_angle_beta   98.794487
_cell_angle_gamma 120.90312
loop_
_atom_site_label
_atom_site_type_symbol
_atom_site_fract_x
_atom_site_fract_y
_atom_site_fract_z
_atom_type_partial_charge
Eu0 Eu 0.07422 0.22813 0.13668 0.0
C1 C 0.98077 0.18962 0.11821 0.0
C2 C 0.9708 0.18305 0.2296 0.0
C3 C 0.9519 0.19275 0.15109 0.0
C4 C 0.98406 0.18469 0.18148 0.0
C5 C 0.96406 0.19304 0.10091 0.0
C6 C 0.95529 0.18778 0.21548 0.0
C7 C 0.97117 0.195 0.98287 0.0
N8 N 0.9929 0.18984 0.07117 0.0
C9 C 0.98769 0.19171 0.00288 0.0
C10 C 0.95957 0.19603 0.03264 0.0
Eu11 Eu 1.02139 0.18498 0.11042 0.0
N12 N 0.99889 0.17993 0.19262 0.0
C13 C 0.99929 0.17124 0.24563 0.0
C14 C 0.97281 0.17588 0.28846 0.0
C15 C 0.98678 0.16957 0.29555 0.0
H16 H 0.99588 0.19041 0.96281 0.0
H17 H 0.98786 0.16336 0.33921 0.0
H18 H 0.94521 0.18691 0.25243 0.0
H19 H 0.96738 0.19672 0.92899 0.0
H20 H 1.01002 0.16625 0.25101 0.0
H21 H 0.09619 0.19885 0.9187 0.0
H22 H 0.96296 0.17443 0.32673 0.0
H23 H 0.10701 0.25426 0.3082 0.0
H24 H 0.0755 0.21011 0.97164 0.0
H25 H 0.13949 0.25959 0.39546 0.0
H26 H 0.93932 0.19571 0.13942 0.0
H27 H 0.12698 0.20025 -0.00033 0.0
H28 H 0.15089 0.20951 0.1266 0.0
H29 H 0.94683 0.19863 0.0171 0.0
H30 H 0.1621 0.22541 0.2573 0.0
N31 N 0.09346 0.21704 0.08186 0.0
C32 C 0.08848 0.21044 0.00779 0.0
C33 C 0.11781 0.20512 0.02327 0.0
C34 C 0.12349 0.21265 0.09889 0.0
C35 C 0.10042 0.20426 0.97744 0.0
C36 C 0.11105 0.21884 0.12685 0.0
H37 H 0.15816 0.24434 0.35785 0.0
N38 N 0.10608 0.23488 0.22407 0.0
C39 C 0.13323 0.25036 0.34115 0.0
C40 C 0.11721 0.22762 0.20055 0.0
C41 C 0.1148 0.24724 0.29166 0.0
C42 C 0.14369 0.2417 0.31976 0.0
C43 C 0.13618 0.23066 0.24801 0.0
O44 O 0.09494 0.25827 0.17204 0.0
O45 O 0.03758 0.21523 0.11961 0.0
O46 O 0.02849 0.18863 0.00153 0.0
O47 O 0.05111 0.22022 0.02721 0.0
O48 O 0.05868 0.23998 0.20059 0.0
O49 O 0.0862 0.24437 0.05886 0.0
O50 O 0.99822 0.16168 0.01478 0.0
O51 O 0.05677 0.19721 0.10548 0.0
O52 O 0.07246 0.22292 0.24749 0.0
O53 O 0.03593 0.19885 0.23132 0.0
O54 O 0.04471 0.17884 0.16922 0.0
O55 O 1.01152 0.15693 0.11077 0.0
C56 C 0.03822 0.22728 0.16785 0.0
C57 C 0.12105 0.27234 0.10518 0.0
C58 C 0.14927 0.2982 0.06936 0.0
C59 C 0.12748 0.28752 0.07554 0.0
C60 C 0.16441 0.29367 0.09392 0.0
C61 C 0.1367 0.26836 0.12969 0.0
C62 C 0.15818 0.27893 0.12421 0.0
C63 C 0.03744 0.20388 0.98093 0.0
C64 C 0.09798 0.26015 0.10798 0.0
C65 C 0.14773 0.22346 0.22136 0.0
C66 C 0.14142 0.2145 0.14689 0.0
C67 C 0.06129 0.18847 0.14468 0.0
C68 C 0.97635 0.13225 0.03594 0.0
C69 C 0.9755 0.11636 0.04586 0.0
C70 C 0.95506 0.09952 0.03297 0.0
C71 C 0.93556 0.09905 0.00934 0.0
C72 C 0.95661 0.13134 0.01428 0.0
C73 C 0.93639 0.11481 0.00086 0.0
C74 C 0.05608 0.21176 0.27188 0.0
C75 C 0.9979 0.14941 0.04577 0.0
H76 H 0.11557 0.29077 0.05611 0.0
H77 H 0.18122 0.30167 0.09013 0.0
H78 H 0.13234 0.257 0.15272 0.0
H79 H 0.17003 0.27561 0.14321 0.0
H80 H 0.99081 0.11724 0.06396 0.0
H81 H 0.9195 0.08641 -0.00379 0.0
H82 H 0.95677 0.14333 0.00681 0.0
H83 H 0.92122 0.11416 0.98301 0.0
Eu84 Eu 0.91337 0.81335 0.01849 0.0
C85 C 0.86526 0.84658 0.07676 0.0
C86 C 0.8469 0.85167 0.97557 0.0
C87 C 0.83038 0.84377 0.07552 0.0
C88 C 0.86465 0.85081 0.01033 0.0
C89 C 0.84813 0.84312 0.11029 0.0
C90 C 0.8297 0.84792 0.00809 0.0
C91 C 0.86687 0.83806 0.20941 0.0
N92 N 0.88236 0.84557 0.10819 0.0
C93 C 0.88336 0.84149 0.17407 0.0
C94 C 0.84917 0.83888 0.17744 0.0
Eu95 Eu 0.91145 0.85441 0.05002 0.0
N96 N 0.88158 0.85446 0.98035 0.0
C97 C 0.88262 0.86078 0.91914 0.0
C98 C 0.84717 0.85668 0.90988 0.0
C99 C 0.86528 0.8615 0.88206 0.0
H100 H 0.89672 0.84082 0.20045 0.0
H101 H 0.86614 0.86616 0.8329 0.0
H102 H 0.81593 0.84843 0.98199 0.0
H103 H 0.86787 0.83478 0.26143 0.0
H104 H 0.8971 0.86568 0.89933 0.0
H105 H 1.00124 0.84853 0.15405 0.0
H106 H 0.83385 0.85746 0.88154 0.0
H107 H 0.88422 0.77981 0.86243 0.0
H108 H 0.9624 0.83748 0.14588 0.0
H109 H 0.8906 0.76651 0.75276 0.0
H110 H 0.81708 0.84105 0.10032 0.0
H111 H 1.0117 0.84058 0.04422 0.0
H112 H 0.99975 0.8229 0.91225 0.0
H113 H 0.83635 0.83611 0.20476 0.0
H114 H 0.96954 0.80048 0.80254 0.0
N115 N 0.95091 0.8237 0.03226 0.0
C116 C 0.96666 0.83386 0.09759 0.0
C117 C 0.9946 0.8357 0.04028 0.0
C118 C 0.97817 0.82442 0.9745 0.0
C119 C 0.98874 0.84015 0.10246 0.0
C120 C 0.95618 0.81848 0.97238 0.0
H121 H 0.9287 0.77903 0.74312 0.0
N122 N 0.91829 0.79989 0.91253 0.0
C123 C 0.90444 0.77775 0.79644 0.0
C124 C 0.93929 0.80608 0.91053 0.0
C125 C 0.90088 0.78528 0.85845 0.0
C126 C 0.92598 0.7849 0.79111 0.0
C127 C 0.94376 0.79898 0.84926 0.0
O128 O 0.88803 0.78468 0.01341 0.0
O129 O 0.89229 0.82441 0.04213 0.0
O130 O 0.93018 0.85524 0.15743 0.0
O131 O 0.92277 0.82571 0.13993 0.0
O132 O 0.87755 0.80059 0.9572 0.0
O133 O 0.92002 0.79754 0.08541 0.0
O134 O 0.92776 0.87811 0.14592 0.0
O135 O 0.93518 0.84509 0.04824 0.0
O136 O 0.9111 0.82002 0.90999 0.0
O137 O 0.90185 0.84185 0.92717 0.0
O138 O 0.93813 0.86421 -0.00847 0.0
O139 O 0.92289 0.8821 0.0386 0.0
C140 C 0.87441 0.81221 -0.00673 0.0
C141 C 0.89997 0.76476 0.03706 0.0
C142 C 0.88812 0.73285 0.04133 0.0
C143 C 0.88766 0.74894 0.06324 0.0
C144 C 0.90032 0.73295 -0.00882 0.0
C145 C 0.91228 0.76401 0.98918 0.0
C146 C 0.91221 0.74827 0.96589 0.0
C147 C 0.93074 0.84223 0.18184 0.0
C148 C 0.90067 0.78226 0.05911 0.0
C149 C 0.96573 0.80559 0.84945 0.0
C150 C 0.98292 0.81833 0.91195 0.0
C151 C 0.94689 0.85549 0.01101 0.0
C152 C 0.91963 0.90058 0.13277 0.0
C153 C 0.92535 0.91674 0.11093 0.0
C154 C 0.91658 0.92711 0.13343 0.0
C155 C 0.90234 0.9211 0.17895 0.0
C156 C 0.9051 0.89492 0.17721 0.0
C157 C 0.89662 0.90515 0.20015 0.0
C158 C 0.90494 0.83037 0.88576 0.0
C159 C 0.92851 0.88949 0.10856 0.0
H160 H 0.87833 0.74932 0.10129 0.0
H161 H 0.90075 0.72102 0.97113 0.0
H162 H 0.92218 0.77574 0.96977 0.0
H163 H 0.92165 0.74797 0.92813 0.0
H164 H 0.93627 0.92101 0.07571 0.0
H165 H 0.89572 0.92886 0.19907 0.0
H166 H 0.9003 0.8826 0.19465 0.0
H167 H 0.88557 0.90072 0.23485 0.0
Eu168 Eu 0.21649 1.00555 0.04553 0.0
C169 C 0.24782 0.07824 0.06005 0.0
C170 C 0.26373 0.09869 0.18293 0.0
C171 C 0.28152 0.10861 0.0873 0.0
C172 C 0.24732 0.08158 0.13244 0.0
C173 C 0.26477 0.09192 0.03659 0.0
C174 C 0.28104 0.11197 0.16034 0.0
C175 C 0.24731 0.07181 0.91391 0.0
N176 N 0.23176 0.06174 0.01239 0.0
C177 C 0.23099 0.05866 0.93961 0.0
C178 C 0.26441 0.08845 0.96269 0.0
Eu179 Eu 0.20379 0.04057 0.05977 0.0
N180 N 0.23035 0.0685 0.15287 0.0
C181 C 0.22757 0.07272 0.22064 0.0
C182 C 0.26194 0.10223 0.25422 0.0
C183 C 0.24354 0.08931 0.27269 0.0
H184 H 0.21761 0.04638 0.9001 0.0
H185 H 0.24142 0.09225 0.32665 0.0
H186 H 0.29387 0.12506 0.19861 0.0
H187 H 0.24658 0.06914 0.85624 0.0
H188 H 0.21286 0.06336 0.23493 0.0
H189 H 0.13798 0.94695 0.86319 0.0
H190 H 0.2742 0.11517 0.29445 0.0
H191 H 0.24815 1.00546 0.19052 0.0
H192 H 0.1724 0.9775 0.89901 0.0
H193 H 0.24484 0.98632 0.27583 0.0
H194 H 0.2948 0.11911 0.07036 0.0
H195 H 0.12898 0.9279 0.95047 0.0
H196 H 0.14071 0.9236 0.07199 0.0
H197 H 0.27709 0.09859 0.94264 0.0
H198 H 0.16993 0.93436 0.18491 0.0
N199 N 0.18293 0.97617 0.00629 0.0
C200 C 0.16883 0.96947 0.93787 0.0
C201 C 0.1442 0.94135 0.96655 0.0
C202 C 0.15927 0.94786 0.03509 0.0
C203 C 0.14926 0.95204 0.91708 0.0
C204 C 0.17888 0.96546 0.05319 0.0
H205 H 0.20908 0.95749 0.26032 0.0
N206 N 0.21452 0.98779 0.12879 0.0
C207 C 0.2307 0.98204 0.23159 0.0
C208 C 0.19523 0.97147 0.11654 0.0
C209 C 0.23254 0.9928 0.18313 0.0
C210 C 0.21046 0.96582 0.22284 0.0
C211 C 0.19254 0.96013 0.16381 0.0
O212 O 0.2463 1.00499 0.04928 0.0
O213 O 0.23069 0.03555 0.04719 0.0
O214 O 0.18855 0.02317 0.94252 0.0
O215 O 0.20693 1.00827 0.93257 0.0
O216 O 0.24922 0.03011 0.11908 0.0
O217 O 0.21957 0.99047 0.95128 0.0
O218 O 0.18378 0.04568 0.98191 0.0
O219 O 0.18828 1.00979 0.03476 0.0
O220 O 0.21229 1.01071 0.15895 0.0
O221 O 0.2114 0.03711 0.17295 0.0
O222 O 0.17483 0.02028 0.09828 0.0
O223 O 0.18799 0.05467 0.09671 0.0
C224 C 0.24923 0.04296 0.09489 0.0
C225 C 0.24047 0.97758 0.97768 0.0
C226 C 0.26007 0.96252 0.95201 0.0
C227 C 0.25928 0.9784 0.96296 0.0
C228 C 0.24213 0.94609 0.95744 0.0
C229 C 0.22296 0.96094 0.98318 0.0
C230 C 0.22385 0.94538 0.97341 0.0
C231 C 0.19398 1.01321 0.90352 0.0
C232 C 0.23855 0.99369 0.98449 0.0
C233 C 0.17245 0.94315 0.14872 0.0
C234 C 0.15582 0.93703 0.08442 0.0
C235 C 0.17316 1.00531 0.06833 0.0
C236 C 0.18506 0.07319 0.02316 0.0
C237 C 0.17267 0.08027 0.04556 0.0
C238 C 0.17748 0.09759 0.037 0.0
C239 C 0.19455 0.10732 0.00475 0.0
C240 C 0.20199 0.08352 -0.00823 0.0
C241 C 0.20664 0.10038 0.98269 0.0
C242 C 0.21214 0.02427 0.19831 0.0
C243 C 0.18051 0.05512 0.03169 0.0
H244 H 0.2729 0.99113 0.95831 0.0
H245 H 0.24233 0.93376 0.94965 0.0
H246 H 0.20838 0.95986 -0.00602 0.0
H247 H 0.21017 0.93262 0.97756 0.0
H248 H 0.15961 0.07247 0.07011 0.0
H249 H 0.19844 0.12034 -0.00456 0.0
H250 H 0.21157 0.07851 0.97334 0.0
H251 H 0.21967 0.10808 0.9579 0.0
Eu252 Eu 0.72711 0.5154 0.10811 0.0
C253 C 0.82255 0.54787 0.29543 0.0
C254 C 0.84564 0.57222 0.24431 0.0
C255 C 0.85768 0.57443 0.37285 0.0
C256 C 0.82599 0.55528 0.2366 0.0
C257 C 0.83859 0.55713 0.36381 0.0
C258 C 0.86119 0.58197 0.31319 0.0
C259 C 0.81669 0.53075 0.40704 0.0
N260 N 0.80405 0.53108 0.28459 0.0
C261 C 0.80127 0.52213 0.33822 0.0
C262 C 0.83528 0.54845 0.42028 0.0
Eu263 Eu 0.7785 0.51735 0.16713 0.0
N264 N 0.81088 0.54529 0.17057 0.0
C265 C 0.81525 0.55072 0.10892 0.0
C266 C 0.84947 0.57848 0.18198 0.0
C267 C 0.83437 0.56752 0.11376 0.0
H268 H 0.78685 0.50851 0.32854 0.0
H269 H 0.83742 0.57199 0.06487 0.0
H270 H 0.87628 0.59509 0.32033 0.0
H271 H 0.81417 0.52378 0.4499 0.0
H272 H 0.80375 0.5424 0.05595 0.0
H273 H 0.66532 0.46264 0.2104 0.0
H274 H 0.86433 0.59143 0.18556 0.0
H275 H 0.72009 0.5243 0.94493 0.0
H276 H 0.70048 0.49081 0.21871 0.0
H277 H 0.69297 0.50968 0.82404 0.0
H278 H 0.8701 0.58184 0.42514 0.0
H279 H 0.63771 0.44415 0.09023 0.0
H280 H 0.62627 0.44066 0.95554 0.0
H281 H 0.84722 0.55509 0.47359 0.0
H282 H 0.63381 0.45347 0.85024 0.0
N283 N 0.69343 0.48836 0.10435 0.0
C284 C 0.68867 0.48305 0.166 0.0
C285 C 0.65319 0.45658 0.09361 0.0
C286 C 0.6576 0.46262 0.03121 0.0
C287 C 0.66868 0.467 0.16151 0.0
C288 C 0.67805 0.47887 0.03862 0.0
H289 H 0.65843 0.47935 0.80105 0.0
N290 N 0.7015 0.50231 -0.00965 0.0
C291 C 0.68977 0.50284 0.86722 0.0
C292 C 0.68225 0.48605 0.97962 0.0
C293 C 0.70513 0.51109 0.93608 0.0
C294 C 0.67034 0.48569 0.85437 0.0
C295 C 0.6662 0.47721 0.91122 0.0
O296 O 0.72128 0.53704 0.09915 0.0
O297 O 0.76447 0.53451 0.14653 0.0
O298 O 0.77463 0.53189 0.26542 0.0
O299 O 0.73657 0.51743 0.22928 0.0
O300 O 0.74818 0.53822 0.0599 0.0
O301 O 0.71301 0.5239 0.18597 0.0
O302 O 0.78497 0.49618 0.18209 0.0
O303 O 0.74143 0.49878 0.12741 0.0
O304 O 0.73046 0.50001 0.01068 0.0
O305 O 0.76855 0.51399 0.04489 0.0
O306 O 0.75658 0.49331 0.2101 0.0
O307 O 0.79495 0.50956 0.09721 0.0
C308 C 0.76729 0.54454 0.10228 0.0
C309 C 0.69146 0.53476 0.14044 0.0
C310 C 0.66884 0.54538 0.18052 0.0
C311 C 0.68878 0.54614 0.19191 0.0
C312 C 0.65178 0.53315 0.11644 0.0
C313 C 0.67416 0.52266 0.07726 0.0
C314 C 0.65447 0.5219 0.06538 0.0
C315 C 0.75566 0.52691 0.28029 0.0
C316 C 0.71228 0.53557 0.15336 0.0
C317 C 0.64626 0.46055 0.90251 0.0
C318 C 0.64197 0.45326 0.96245 0.0
C319 C 0.73781 0.48776 0.16708 0.0
C320 C 0.81657 0.49919 0.15116 0.0
C321 C 0.81684 0.48313 0.1476 0.0
C322 C 0.83709 0.48429 0.16258 0.0
C323 C 0.85687 0.50168 0.18223 0.0
C324 C 0.83667 0.51634 0.17203 0.0
C325 C 0.85663 0.51753 0.18745 0.0
C326 C 0.74926 0.50469 -0.00526 0.0
C327 C 0.79543 0.49805 0.1318 0.0
H328 H 0.70206 0.55533 0.24119 0.0
H329 H 0.63638 0.5324 0.10533 0.0
H330 H 0.67589 0.51384 0.03698 0.0
H331 H 0.64123 0.51258 0.0163 0.0
H332 H 0.80142 0.46981 0.13177 0.0
H333 H 0.87262 0.50301 0.19428 0.0
H334 H 0.83697 0.52883 0.1758 0.0
H335 H 0.87203 0.53082 0.20316 0.0
Eu336 Eu 0.5163 0.17656 0.14472 0.0
C337 C 0.49072 0.23118 0.25069 0.0
C338 C 0.45438 0.21714 0.1686 0.0
C339 C 0.46352 0.23534 0.29229 0.0
C340 C 0.47571 0.22041 0.1832 0.0
C341 C 0.48499 0.23914 0.30547 0.0
C342 C 0.44822 0.22433 0.224 0.0
C343 C 0.52266 0.25521 0.37981 0.0
N344 N 0.51132 0.23465 0.26151 0.0
C345 C 0.52754 0.24703 0.32371 0.0
C346 C 0.50121 0.25107 0.37106 0.0
Eu347 Eu 0.5182 0.21969 0.16595 0.0
N348 N 0.48234 0.21395 0.13057 0.0
C349 C 0.46887 0.20506 0.06074 0.0
C350 C 0.44011 0.20719 0.09815 0.0
C351 C 0.44751 0.20135 0.04375 0.0
H352 H 0.54409 0.25009 0.33077 0.0
H353 H 0.43675 0.19393 0.9887 0.0
H354 H 0.43186 0.22184 0.21398 0.0
H355 H 0.53542 0.26466 0.42976 0.0
H356 H 0.47423 0.2004 0.01797 0.0
H357 H 0.59672 0.19333 0.2945 0.0
H358 H 0.42358 0.20434 0.08476 0.0
H359 H 0.48603 0.15036 0.97089 0.0
H360 H 0.56212 0.19225 0.27823 0.0
H361 H 0.48982 0.13443 0.86298 0.0
H362 H 0.45873 0.24119 0.33392 0.0
H363 H 0.60405 0.17944 0.18942 0.0
H364 H 0.59096 0.16172 0.05743 0.0
H365 H 0.49747 0.25746 0.4145 0.0
H366 H 0.56192 0.14565 0.94059 0.0
N367 N 0.55002 0.17823 0.16484 0.0
C368 C 0.56503 0.18609 0.23201 0.0
C369 C 0.58877 0.17889 0.18202 0.0
C370 C 0.57294 0.17018 0.11404 0.0
C371 C 0.58469 0.18672 0.24146 0.0
C372 C 0.55335 0.16992 0.1072 0.0
H373 H 0.5242 0.13533 0.8679 0.0
N374 N 0.51817 0.16057 0.03726 0.0
C375 C 0.50322 0.14183 0.91281 0.0
C376 C 0.53696 0.1608 0.04156 0.0
C377 C 0.50114 0.15089 0.97444 0.0
C378 C 0.52266 0.14238 0.91579 0.0
C379 C 0.53977 0.15182 0.98076 0.0
O380 O 0.48896 0.14928 0.14046 0.0
O381 O 0.49611 0.18906 0.15783 0.0
O382 O 0.51459 0.21159 0.27076 0.0
O383 O 0.52856 0.19305 0.26365 0.0
O384 O 0.48176 0.16493 0.0769 0.0
O385 O 0.5192 0.16245 0.22674 0.0
O386 O 0.5454 0.24853 0.18701 0.0
O387 O 0.53736 0.20668 0.15862 0.0
O388 O 0.52607 0.18782 0.05008 0.0
O389 O 0.50931 0.20407 0.04718 0.0
O390 O 0.554 0.23226 0.23037 0.0
O391 O 0.52048 0.23505 0.08389 0.0
C392 C 0.47813 0.1766 0.10934 0.0
C393 C 0.49954 0.13006 0.18016 0.0
C394 C 0.50076 0.10577 0.22445 0.0
C395 C 0.50212 0.12261 0.23827 0.0
C396 C 0.49666 0.09663 0.15127 0.0
C397 C 0.49595 0.12071 0.10827 0.0
C398 C 0.49451 0.10414 0.09412 0.0
C399 C 0.52359 0.20368 0.30092 0.0
C400 C 0.5001 0.1473 0.19411 0.0
C401 C 0.55943 0.1524 0.98681 0.0
C402 C 0.57598 0.16156 0.0533 0.0
C403 C 0.55598 0.21916 0.20189 0.0
C404 C 0.53972 0.26795 0.12532 0.0
C405 C 0.5595 0.28417 0.12426 0.0
C406 C 0.56005 0.30043 0.12111 0.0
C407 C 0.54069 0.30012 0.12021 0.0
C408 C 0.52096 0.26846 0.12555 0.0
C409 C 0.52149 0.2844 0.12299 0.0
C410 C 0.51871 0.19644 0.01687 0.0
C411 C 0.53841 0.25043 0.12448 0.0
H412 H 0.50526 0.12999 0.29384 0.0
H413 H 0.49472 0.08343 0.1375 0.0
H414 H 0.49392 0.12605 0.06261 0.0
H415 H 0.49143 0.09694 0.03832 0.0
H416 H 0.57417 0.28402 0.12436 0.0
H417 H 0.54049 0.31224 0.1181 0.0
H418 H 0.50577 0.25643 0.12712 0.0
H419 H 0.50683 0.28455 0.12282 0.0
Eu420 Eu 0.93487 0.35648 0.26399 0.0
C421 C 0.8804 0.27775 0.22208 0.0
C422 C 0.86155 0.25755 0.09882 0.0
C423 C 0.8776 0.2487 0.19182 0.0
C424 C 0.86941 0.27422 0.15042 0.0
C425 C 0.8842 0.26483 0.24398 0.0
C426 C 0.86626 0.24505 0.11936 0.0
C427 C 0.89942 0.28416 0.36822 0.0
N428 N 0.88657 0.29347 0.27111 0.0
C429 C 0.89546 0.29662 0.34373 0.0
C430 C 0.89406 0.26831 0.31797 0.0
Eu431 Eu 0.87964 0.31397 0.22482 0.0
N432 N 0.86496 0.28648 0.13255 0.0
C433 C 0.85063 0.28202 0.06684 0.0
C434 C 0.84842 0.25361 0.02908 0.0
C435 C 0.84259 0.26575 0.0135 0.0
H436 H 0.8996 0.30871 0.3831 0.0
H437 H 0.83182 0.26255 0.96065 0.0
H438 H 0.86062 0.23228 0.08023 0.0
H439 H 0.90672 0.28685 0.42578 0.0
H440 H 0.84595 0.29135 0.05519 0.0
H441 H 0.9163 0.40063 0.42715 0.0
H442 H 0.84203 0.24094 0.98791 0.0
H443 H 0.96012 0.36517 0.12931 0.0
H444 H 0.92262 0.37592 0.39819 0.0
H445 H 0.96709 0.3842 0.04216 0.0
H446 H 0.88064 0.23874 0.20741 0.0
H447 H 0.91948 0.41962 0.34148 0.0
H448 H 0.92804 0.42719 0.22488 0.0
H449 H 0.89724 0.25873 0.33702 0.0
H450 H 0.94102 0.42219 0.11809 0.0
N451 N 0.92833 0.38004 0.29525 0.0
C452 C 0.92362 0.38373 0.35942 0.0
C453 C 0.92213 0.40865 0.32819 0.0
C454 C 0.92783 0.40531 0.26392 0.0
C455 C 0.92028 0.39794 0.37656 0.0
C456 C 0.93107 0.39083 0.24912 0.0
H457 H 0.95577 0.40628 0.04966 0.0
N458 N 0.94297 0.37494 0.1803 0.0
C459 C 0.95867 0.38524 0.08249 0.0
C460 C 0.93821 0.38794 0.1889 0.0
C461 C 0.95452 0.37437 0.13141 0.0
C462 C 0.95223 0.39765 0.08685 0.0
C463 C 0.94252 0.39957 0.14205 0.0
O464 O 0.96991 0.3672 0.27545 0.0
O465 O 0.9165 0.3265 0.26409 0.0
O466 O 0.89002 0.33096 0.34036 0.0
O467 O 0.92821 0.34975 0.36922 0.0
O468 O 0.94389 0.33678 0.22112 0.0
O469 O 0.96036 0.37524 0.36682 0.0
O470 O 0.85576 0.3014 0.28803 0.0
O471 O 0.89849 0.34481 0.24514 0.0
O472 O 0.92134 0.3431 0.1416 0.0
O473 O 0.89051 0.31314 0.12182 0.0
O474 O 0.87153 0.32882 0.15253 0.0
O475 O 0.84575 0.30722 0.19019 0.0
C476 C 0.92855 0.32243 0.23463 0.0
C477 C 0.99547 0.39708 0.35427 0.0
C478 C 0.03488 0.42204 0.40172 0.0
C479 C 1.01742 0.40355 0.39166 0.0
C480 C 0.02983 0.4335 0.37165 0.0
C481 C 0.99124 0.4092 0.32762 0.0
C482 C 1.00826 0.42717 0.33563 0.0
C483 C 0.90957 0.34198 0.38778 0.0
C484 C 0.97689 0.37777 0.3415 0.0
C485 C 0.9381 0.41331 0.15407 0.0
C486 C 0.93081 0.41621 0.21505 0.0
C487 C 0.88669 0.34538 0.19074 0.0
C488 C 0.81761 0.28209 0.22178 0.0
C489 C 0.79773 0.28122 0.22226 0.0
C490 C 0.77703 0.26408 0.199 0.0
C491 C 0.77682 0.24803 0.17663 0.0
C492 C 0.81656 0.26571 0.1994 0.0
C493 C 0.79635 0.24887 0.1771 0.0
C494 C 0.90593 0.32629 0.10017 0.0
C495 C 0.83938 0.29993 0.24289 0.0
H496 H 1.02077 0.39433 0.41341 0.0
H497 H 0.04264 0.44747 0.37526 0.0
H498 H 0.97473 0.40477 0.30026 0.0
H499 H 1.00472 0.43625 0.31358 0.0
H500 H 0.79833 0.29379 0.23928 0.0
H501 H 0.76145 0.23467 0.15945 0.0
H502 H 0.83141 0.26593 0.19919 0.0
H503 H 0.7958 0.23634 0.15998 0.0
Eu504 Eu 0.46628 0.93042 0.83417 0.0
C505 C 0.36427 0.87337 0.70575 0.0
C506 C 0.34734 0.88272 0.78624 0.0
C507 C 0.32741 0.86649 0.65821 0.0
C508 C 0.36548 0.88214 0.77408 0.0
C509 C 0.34501 0.86504 0.64748 0.0
C510 C 0.32856 0.87531 0.72751 0.0
C511 C 0.36096 0.8527 0.57497 0.0
N512 N 0.38137 0.87192 0.69753 0.0
C513 C 0.3796 0.86105 0.63465 0.0
C514 C 0.34371 0.85493 0.58103 0.0
Eu515 Eu 0.41251 0.88651 0.80002 0.0
N516 N 0.38377 0.889 0.82984 0.0
C517 C 0.38426 0.89533 0.90016 0.0
C518 C 0.3483 0.89015 0.85755 0.0
C519 C 0.36672 0.89625 0.91489 0.0
H520 H 0.3929 0.85924 0.63013 0.0
H521 H 0.36745 0.9017 0.97047 0.0
H522 H 0.3146 0.87584 0.73563 0.0
H523 H 0.35988 0.8445 0.52451 0.0
H524 H 0.39832 0.90009 0.94524 0.0
H525 H 0.51111 0.90819 0.69177 0.0
H526 H 0.33471 0.89083 0.86919 0.0
H527 H 0.48651 0.96335 -0.00941 0.0
H528 H 0.48105 0.91258 0.7033 0.0
H529 H 0.51912 0.98037 0.09821 0.0
H530 H 0.31256 0.86034 0.61391 0.0
H531 H 0.54297 0.9206 0.79911 0.0
H532 H 0.56296 0.93956 0.92993 0.0
H533 H 0.3292 0.84832 0.53494 0.0
H534 H 0.56525 0.95939 0.04069 0.0
N535 N 0.49519 0.92667 0.81688 0.0
C536 C 0.49481 0.91806 0.75065 0.0
C537 C 0.52976 0.92252 0.80456 0.0
C538 C 0.53083 0.93252 0.8708 0.0
C539 C 0.51185 0.91555 0.74382 0.0
C540 C 0.51312 0.93452 0.875 0.0
H541 H 0.54917 0.97499 0.10344 0.0
N542 N 0.49762 0.94803 0.93695 0.0
C543 C 0.51794 0.97053 0.0535 0.0
C544 C 0.5144 0.9456 0.93709 0.0
C545 C 0.49949 0.96086 -0.00748 0.0
C546 C 0.53484 0.96742 0.05632 0.0
C547 C 0.53341 0.95508 -0.00294 0.0
O548 O 0.46938 0.95623 0.82964 0.0
O549 O 0.42994 0.91682 0.81907 0.0
O550 O 0.41153 0.89742 0.70126 0.0
O551 O 0.44931 0.91443 0.71464 0.0
O552 O 0.45018 0.94205 0.89616 0.0
O553 O 0.48085 0.94478 0.75396 0.0
O554 O 0.40276 0.85793 0.77787 0.0
O555 O 0.4491 0.89995 0.8207 0.0
O556 O 0.46707 0.92341 0.94226 0.0
O557 O 0.42964 0.90032 0.92115 0.0
O558 O 0.42938 0.87575 0.73832 0.0
O559 O 0.40126 0.87108 0.87993 0.0
C560 C 0.42994 0.92883 0.86473 0.0
C561 C 0.4971 0.97698 0.78233 0.0
C562 C 0.51129 1.00484 0.74074 0.0
C563 C 0.4947 0.98638 0.73221 0.0
C564 C 0.53044 1.01366 0.79939 0.0
C565 C 0.51646 0.98593 0.83983 0.0
C566 C 0.53306 1.00419 0.84811 0.0
C567 C 0.42875 0.90704 0.67671 0.0
C568 C 0.47867 0.9583 0.77628 0.0
C569 C 0.55061 0.95239 -0.00516 0.0
C570 C 0.5493 0.9411 0.9318 0.0
C571 C 0.44947 0.88804 0.77575 0.0
C572 C 0.37472 0.83926 0.82918 0.0
C573 C 0.37251 0.82231 0.82277 0.0
C574 C 0.35172 0.80615 0.81212 0.0
C575 C 0.33319 0.80732 0.80825 0.0
C576 C 0.35607 0.84013 0.82592 0.0
C577 C 0.33543 0.82422 0.81544 0.0
C578 C 0.44995 0.91213 0.96415 0.0
C579 C 0.39652 0.85576 0.83768 0.0
H580 H 0.47968 0.97951 0.68789 0.0
H581 H 0.54347 0.02784 0.80706 0.0
H582 H 0.51862 0.9789 0.87871 0.0
H583 H 0.54793 1.01108 0.89285 0.0
H584 H 0.38705 0.8218 0.82655 0.0
H585 H 0.31688 0.79516 0.79854 0.0
H586 H 0.35738 0.85303 0.8314 0.0
H587 H 0.32108 0.82497 0.81239 0.0
Eu588 Eu 0.31461 0.52684 0.73198 0.0
C589 C 0.26345 0.56333 0.80513 0.0
C590 C 0.22666 0.54546 0.72207 0.0
C591 C 0.23313 0.56244 0.84526 0.0
C592 C 0.24913 0.55152 0.7378 0.0
C593 C 0.25566 0.56905 0.8595 0.0
C594 C 0.21867 0.55071 0.77658 0.0
C595 C 0.29315 0.58819 0.93658 0.0
N596 N 0.28515 0.5696 0.81686 0.0
C597 C 0.30013 0.58225 0.88078 0.0
C598 C 0.2708 0.58147 0.92612 0.0
Eu599 Eu 0.2955 0.55839 0.72038 0.0
N600 N 0.25735 0.54662 0.68646 0.0
C601 C 0.24439 0.53693 0.61657 0.0
C602 C 0.21305 0.53476 0.65134 0.0
C603 C 0.22207 0.53076 0.598 0.0
H604 H 0.31742 0.58742 0.88965 0.0
H605 H 0.21185 0.52289 0.54264 0.0
H606 H 0.20143 0.54607 0.76572 0.0
H607 H 0.30502 0.59794 0.98761 0.0
H608 H 0.25122 0.53388 0.57487 0.0
H609 H 0.39787 0.57012 0.91719 0.0
H610 H 0.19572 0.52988 0.63694 0.0
H611 H 0.29603 0.49361 0.57795 0.0
H612 H 0.35754 0.55507 0.88061 0.0
H613 H 0.3109 0.48298 0.48924 0.0
H614 H 0.22681 0.5666 0.88646 0.0
H615 H 0.41646 0.56389 0.83043 0.0
H616 H 0.41319 0.54604 0.70843 0.0
H617 H 0.26545 0.58615 0.96935 0.0
H618 H 0.38948 0.52217 0.59207 0.0
N619 N 0.35324 0.54077 0.77336 0.0
C620 C 0.36537 0.55215 0.84219 0.0
C621 C 0.39872 0.55723 0.81404 0.0
C622 C 0.38603 0.54471 0.74516 0.0
C623 C 0.38828 0.56074 0.86321 0.0
C624 C 0.363 0.5365 0.72653 0.0
H625 H 0.35127 0.49837 0.51034 0.0
N626 N 0.32764 0.51496 0.64775 0.0
C627 C 0.32203 0.49432 0.5374 0.0
C628 C 0.34975 0.52311 0.66153 0.0
C629 C 0.31366 0.50032 0.5879 0.0
C630 C 0.34482 0.50308 0.54938 0.0
C631 C 0.35901 0.5175 0.61261 0.0
O632 O 0.29422 0.49835 0.73593 0.0
O633 O 0.28606 0.52988 0.71577 0.0
O634 O 0.28874 0.54702 0.81767 0.0
O635 O 0.3188 0.54466 0.83955 0.0
O636 O 0.2796 0.50491 0.66087 0.0
O637 O 0.32001 0.51886 0.83202 0.0
O638 O 0.30918 0.58712 0.7214 0.0
O639 O 0.32438 0.55546 0.72912 0.0
O640 O 0.31537 0.53267 0.6217 0.0
O641 O 0.28995 0.54129 0.60841 0.0
O642 O 0.33085 0.57997 0.78803 0.0
O643 O 0.29093 0.56571 0.61876 0.0
C644 C 0.27091 0.51415 0.67452 0.0
C645 C 0.30737 0.48758 0.82357 0.0
C646 C 0.2933 0.45944 0.86388 0.0
C647 C 0.29057 0.47303 0.84375 0.0
C648 C 0.31315 0.46067 0.86291 0.0
C649 C 0.3269 0.48843 0.82261 0.0
C650 C 0.32973 0.47502 0.84227 0.0
C651 C 0.30276 0.54505 0.86078 0.0
C652 C 0.30403 0.50165 0.80397 0.0
C653 C 0.38201 0.52617 0.62923 0.0
C654 C 0.39551 0.53976 0.69543 0.0
C655 C 0.33971 0.57109 0.771 0.0
C656 C 0.28751 0.59126 0.63056 0.0
C657 C 0.29758 0.61034 0.65527 0.0
C658 C 0.28603 0.61846 0.63523 0.0
C659 C 0.26407 0.60713 0.59149 0.0
C660 C 0.26581 0.58038 0.58469 0.0
C661 C 0.25412 0.58825 0.56624 0.0
C662 C 0.30122 0.53508 0.58147 0.0
C663 C 0.29994 0.58299 0.65158 0.0
H664 H 0.27552 0.47248 0.84481 0.0
H665 H 0.31575 0.45037 0.87707 0.0
H666 H 0.33992 0.49945 0.80676 0.0
H667 H 0.34485 0.47571 0.8414 0.0
H668 H 0.31455 0.61886 0.68861 0.0
H669 H 0.25454 0.61285 0.57655 0.0
H670 H 0.25782 0.5658 0.56233 0.0
H671 H 0.23732 0.5797 0.5317 0.0
Eu672 Eu 0.60244 0.70659 0.8282 0.0
C673 C 0.65484 0.78353 0.90772 0.0
C674 C 0.66498 0.79903 0.03623 0.0
C675 C 0.6922 0.80993 0.96711 0.0
C676 C 0.64937 0.7847 0.97337 0.0
C677 C 0.6762 0.79639 0.90356 0.0
C678 C 0.68659 0.81126 0.03332 0.0
C679 C 0.66398 0.78236 0.77314 0.0
N680 N 0.639 0.77032 0.84718 0.0
C681 C 0.6431 0.76982 0.78006 0.0
C682 C 0.68071 0.79555 0.83531 0.0
Eu683 Eu 0.60418 0.7495 0.86384 0.0
N684 N 0.6283 0.77281 0.97425 0.0
C685 C 0.6211 0.77594 0.0332 0.0
C686 C 0.65814 0.80117 0.09914 0.0
C687 C 0.63597 0.78982 0.09706 0.0
H688 H 0.63043 0.75974 0.73153 0.0
H689 H 0.63031 0.79178 0.14444 0.0
H690 H 0.69888 0.82218 0.08132 0.0
H691 H 0.6672 0.78175 0.71991 0.0
H692 H 0.60389 0.76729 0.0316 0.0
H693 H 0.5281 0.65539 0.6086 0.0
H694 H 0.66961 0.81202 0.14847 0.0
H695 H 0.62239 0.70098 0.986 0.0
H696 H 0.56403 0.68444 0.66567 0.0
H697 H 0.60929 0.67948 0.06292 0.0
H698 H 0.70877 0.81976 0.96514 0.0
H699 H 0.51067 0.63372 0.6818 0.0
H700 H 0.51287 0.62568 0.80143 0.0
H701 H 0.6969 0.80518 0.82983 0.0
H702 H 0.53489 0.63237 0.92563 0.0
N703 N 0.56714 0.67949 0.77077 0.0
C704 C 0.55677 0.67516 0.69845 0.0
C705 C 0.52655 0.64646 0.7072 0.0
C706 C 0.5376 0.65066 0.78049 0.0
C707 C 0.53635 0.65863 0.66566 0.0
C708 C 0.55836 0.66734 0.81073 0.0
H709 H 0.571 0.6522 0.02294 0.0
N710 N 0.59143 0.68649 0.90524 0.0
C711 C 0.59825 0.67701 0.01198 0.0
C712 C 0.57081 0.67101 0.88027 0.0
C713 C 0.60561 0.68914 0.96835 0.0
C714 C 0.5766 0.66165 0.98929 0.0
C715 C 0.56275 0.65825 0.92198 0.0
O716 O 0.6286 0.70124 0.83535 0.0
O717 O 0.62481 0.73751 0.84714 0.0
O718 O 0.59336 0.73797 0.74159 0.0
O719 O 0.59871 0.71394 0.72163 0.0
O720 O 0.63502 0.72527 0.91366 0.0
O721 O 0.6041 0.69059 0.73273 0.0
O722 O 0.59858 0.76583 0.79814 0.0
O723 O 0.58204 0.71874 0.8181 0.0
O724 O 0.59284 0.71037 0.93164 0.0
O725 O 0.60873 0.74192 0.97049 0.0
O726 O 0.57059 0.73114 0.88307 0.0
O727 O 0.58508 0.76121 0.89003 0.0
C728 C 0.64085 0.74044 0.89719 0.0
C729 C 0.61806 0.67263 0.75953 0.0
C730 C 0.61997 0.64792 0.69087 0.0
C731 C 0.62329 0.66545 0.70054 0.0
C732 C 0.61165 0.63788 0.74129 0.0
C733 C 0.60989 0.66225 0.80893 0.0
C734 C 0.60671 0.64503 0.79985 0.0
C735 C 0.59393 0.72516 0.69854 0.0
C736 C 0.62065 0.69066 0.76873 0.0
C737 C 0.54148 0.64222 0.89403 0.0
C738 C 0.52895 0.6384 0.82332 0.0
C739 C 0.56564 0.71575 0.84265 0.0
C740 C 0.59423 0.78894 0.85963 0.0
C741 C 0.57827 0.7936 0.84996 0.0
C742 C 0.58469 0.81216 0.87309 0.0
C743 C 0.60726 0.82576 0.90461 0.0
C744 C 0.6165 0.80299 0.89119 0.0
C745 C 0.62292 0.82121 0.91336 0.0
C746 C 0.59993 0.7255 0.98228 0.0
C747 C 0.58784 0.76955 0.83843 0.0
H748 H 0.62955 0.67331 0.66188 0.0
H749 H 0.60921 0.62452 0.73592 0.0
H750 H 0.606 0.66739 0.85486 0.0
H751 H 0.60042 0.63721 0.8385 0.0
H752 H 0.56101 0.78284 0.82587 0.0
H753 H 0.61294 0.8401 0.92187 0.0
H754 H 0.62899 0.79988 0.89865 0.0
H755 H 0.64019 0.83191 0.93751 0.0
C756 C 0.15872 0.33012 0.07294 0.0
C757 C 0.15694 0.31409 0.03739 0.0
C758 C 0.17026 0.34632 0.05131 0.0
C759 C 0.19386 0.36485 0.90167 0.0
H760 H 0.23753 0.40848 0.05877 0.0
C761 C 0.25329 0.43459 0.84594 0.0
C762 C 0.2756 0.44395 0.88555 0.0
C763 C 0.23691 0.41946 0.86421 0.0
C764 C 0.22543 0.39643 0.01418 0.0
H765 H 0.16492 0.30217 0.9496 0.0
H766 H 0.18455 0.33015 0.91085 0.0
H767 H 0.21141 0.38053 0.088 0.0
H768 H 0.29794 0.44504 0.97724 0.0
H769 H 0.26952 0.41874 0.00884 0.0
H770 H 0.20826 0.3806 0.82787 0.0
C771 C 0.17712 0.33036 0.9553 0.0
C772 C 0.21026 0.38044 0.03096 0.0
C773 C 0.16587 0.3143 0.97748 0.0
C774 C 0.28099 0.43805 0.94498 0.0
C775 C 0.26462 0.42306 0.96362 0.0
C776 C 0.20891 0.38088 0.88487 0.0
C777 C 0.18002 0.34674 -0.00687 0.0
C778 C 0.19451 0.36432 0.97497 0.0
C779 C 0.24237 0.41342 0.92309 0.0
C780 C 0.22517 0.39681 0.94091 0.0
H781 H 0.15225 0.33038 0.11987 0.0
H782 H 0.17201 0.35864 0.08126 0.0
H783 H 0.18186 0.35275 0.85711 0.0
H784 H 0.24853 0.43866 0.7996 0.0
H785 H 0.21994 0.41248 0.83214 0.0
C786 C 0.8392 0.80706 0.9192 0.0
C787 C 0.85165 0.80834 0.986 0.0
C788 C 0.81697 0.80153 0.90893 0.0
C789 C 0.77494 0.79637 0.00894 0.0
H790 H 0.73223 0.76194 0.82601 0.0
C791 C 0.68006 0.76068 0.9752 0.0
C792 C 0.66506 0.75321 0.90529 0.0
C793 C 0.70289 0.76897 0.98407 0.0
C794 C 0.74376 0.77186 0.87713 0.0
H795 H 0.84961 0.80308 0.0919 0.0
H796 H 0.81116 0.79396 0.07523 0.0
H797 H 0.77102 0.77318 0.84302 0.0
H798 H 0.66268 0.74826 0.78944 0.0
H799 H 0.70233 0.76378 0.80412 0.0
H800 H 0.74806 0.79559 0.04282 0.0
C801 C 0.81873 0.79779 0.03125 0.0
C802 C 0.76626 0.77827 0.88702 0.0
C803 C 0.84091 0.80317 0.04118 0.0
C804 C 0.67373 0.75454 0.8443 0.0
C805 C 0.69665 0.76308 0.85303 0.0
C806 C 0.75251 0.79025 -0.00137 0.0
C807 C 0.8063 0.79682 0.96484 0.0
C808 C 0.78226 0.7905 0.95338 0.0
C809 C 0.71177 0.7701 0.92315 0.0
C810 C 0.73627 0.77764 0.93275 0.0
H811 H 0.84671 0.81037 0.87465 0.0
H812 H 0.80814 0.80101 0.85702 0.0
H813 H 0.78664 0.80593 0.06057 0.0
H814 H 0.67396 0.75936 0.02338 0.0
H815 H 0.71334 0.77368 0.03914 0.0
C816 C 0.27561 0.95027 0.86905 0.0
C817 C 0.27908 0.96235 0.93405 0.0
C818 C 0.29224 0.94764 0.85643 0.0
C819 C 0.35268 0.96602 0.92843 0.0
H820 H 0.33419 0.91733 0.82033 0.0
C821 C 0.4124 0.94145 0.93405 0.0
C822 C 0.41162 0.93151 0.86777 0.0
C823 C 0.39644 0.94553 0.93826 0.0
C824 C 0.33966 0.93105 0.8501 0.0
H825 H 0.30285 0.98127 0.03665 0.0
H826 H 0.33177 0.97641 0.01624 0.0
H827 H 0.30656 0.92409 0.83585 0.0
H828 H 0.39413 0.91902 0.75261 0.0
H829 H 0.36568 0.92569 0.76017 0.0
H830 H 0.38581 0.97264 0.94486 0.0
C831 C 0.31643 0.96927 0.97348 0.0
C832 C 0.32376 0.93503 0.85881 0.0
C833 C 0.29983 0.97212 0.98547 0.0
C834 C 0.39473 0.92614 0.80501 0.0
C835 C 0.37854 0.93008 0.80934 0.0
C836 C 0.36854 0.96194 0.92065 0.0
C837 C 0.3128 0.95671 0.9092 0.0
C838 C 0.32995 0.9526 0.89832 0.0
C839 C 0.37924 0.9399 0.8761 0.0
C840 C 0.36227 0.94438 0.88163 0.0
H841 H 0.25973 0.9425 0.82848 0.0
H842 H 0.28877 0.93825 0.80536 0.0
H843 H 0.35838 0.97981 0.95784 0.0
H844 H 0.42545 0.94607 0.98305 0.0
H845 H 0.39748 0.95299 -0.00937 0.0
C846 C 0.43756 0.15806 0.04679 0.0
C847 C 0.45455 0.16901 0.1125 0.0
C848 C 0.41535 0.14643 0.04641 0.0
C849 C 0.37459 0.13335 0.16234 0.0
H850 H 0.34164 0.08734 0.01024 0.0
C851 C 0.28683 0.07182 0.16243 0.0
C852 C 0.27128 0.05942 0.09554 0.0
C853 C 0.30849 0.086 0.16513 0.0
C854 C 0.35022 0.10016 0.05267 0.0
H855 H 0.46069 0.1763 0.23034 0.0
H856 H 0.42184 0.15613 0.2302 0.0
H857 H 0.37937 0.11027 0.01516 0.0
H858 H 0.26728 0.05193 0.97906 0.0
H859 H 0.30448 0.07667 0.98279 0.0
H860 H 0.34528 0.12307 0.19994 0.0
C861 C 0.42574 0.15668 0.1781 0.0
C862 C 0.37224 0.11354 0.0556 0.0
C863 C 0.44819 0.16848 0.17838 0.0
C864 C 0.27841 0.0615 0.03143 0.0
C865 C 0.3001 0.07565 0.034 0.0
C866 C 0.35245 0.11993 0.15929 0.0
C867 C 0.40888 0.14489 0.11199 0.0
C868 C 0.38502 0.13053 0.11025 0.0
C869 C 0.3158 0.0882 0.10104 0.0
C870 C 0.33966 0.10297 0.10424 0.0
H871 H 0.44165 0.15785 -0.00514 0.0
H872 H 0.40325 0.13825 -0.00608 0.0
H873 H 0.38341 0.14613 0.20514 0.0
H874 H 0.28227 0.07042 0.2133 0.0
H875 H 0.31972 0.09489 0.21828 0.0
C876 C 0.92686 0.29602 0.15743 0.0
C877 C 0.92957 0.30582 0.22742 0.0
C878 C 0.93471 0.28445 0.14883 0.0
C879 C 0.95703 0.26105 0.24584 0.0
H880 H 0.98962 0.26805 0.09987 0.0
C881 C 1.01643 0.23549 0.23588 0.0
C882 C 1.02075 0.23124 0.16922 0.0
C883 C 1.00295 0.24239 0.24073 0.0
C884 C 0.98028 0.26548 0.14003 0.0
H885 H 0.94332 0.3114 0.34326 0.0
H886 H 0.95626 0.29073 0.32882 0.0
H887 H 0.96965 0.28286 0.1119 0.0
H888 H 1.01502 0.23175 0.05602 0.0
H889 H 0.99073 0.2428 0.0627 0.0
H890 H 0.96742 0.24349 0.27355 0.0
C891 C 0.94761 0.29164 0.28024 0.0
C892 C 0.96877 0.27414 0.14711 0.0
C893 C 0.93992 0.30336 0.28871 0.0
C894 C 1.01134 0.2342 0.10756 0.0
C895 C 0.99776 0.241 0.11211 0.0
C896 C 0.96832 0.25216 0.23812 0.0
C897 C 0.94583 0.28247 0.21002 0.0
C898 C 0.95706 0.27223 0.20047 0.0
C899 C 0.99353 0.24555 0.17912 0.0
C900 C 0.98038 0.25431 0.18543 0.0
H901 H 0.91972 0.29809 0.10896 0.0
H902 H 0.93275 0.27755 0.09385 0.0
H903 H 0.94809 0.25905 0.28718 0.0
H904 H 1.02402 0.23394 0.28501 0.0
H905 H 1.00072 0.24594 0.29386 0.0
C906 C 0.88823 0.70722 0.08604 0.0
C907 C 0.8769 0.71574 0.06889 0.0
C908 C 0.8775 0.68966 0.09805 0.0
C909 C 0.82757 0.65327 0.14152 0.0
H910 H 0.84208 0.62066 0.04401 0.0
C911 C 0.79377 0.57822 0.17746 0.0
C912 C 0.78516 0.56432 0.11157 0.0
C913 C 0.80592 0.59709 0.17856 0.0
C914 C 0.83777 0.6295 0.07195 0.0
H915 H 0.84501 0.71216 0.05579 0.0
H916 H 0.8263 0.68161 0.079 0.0
H917 H 0.85998 0.65214 0.03453 0.0
H918 H 0.78293 0.55972 -0.00427 0.0
H919 H 0.80476 0.59204 -0.00176 0.0
H920 H 0.80533 0.6304 0.17901 0.0
C921 C 0.84369 0.68864 0.08206 0.0
C922 C 0.84821 0.64775 0.06681 0.0
C923 C 0.85449 0.70631 0.0691 0.0
C924 C 0.78972 0.56994 0.04788 0.0
C925 C 0.80221 0.58862 0.04927 0.0
C926 C 0.81738 0.63501 0.14781 0.0
C927 C 0.85489 0.67973 0.09461 0.0
C928 C 0.8433 0.66005 0.10106 0.0
C929 C 0.81015 0.60263 0.1141 0.0
C930 C 0.82214 0.62269 0.11255 0.0
H931 H 0.90555 0.71397 0.08798 0.0
H932 H 0.88703 0.68374 0.10928 0.0
H933 H 0.8233 0.66215 0.16918 0.0
H934 H 0.79009 0.57453 0.22722 0.0
H935 H 0.81176 0.60734 0.22982 0.0
C936 C 0.235 0.50583 0.70218 0.0
C937 C 0.24684 0.50584 0.65107 0.0
C938 C 0.21181 0.496 0.67994 0.0
C939 C 0.1655 0.48009 0.52459 0.0
H940 H 0.12887 0.4417 0.61003 0.0
C941 C 0.07202 0.44843 0.48348 0.0
C942 C 0.05842 0.42986 0.44219 0.0
C943 C 0.09469 0.45682 0.51288 0.0
C944 C 0.13893 0.45237 0.58574 0.0
H945 H 0.24383 0.49507 0.53784 0.0
H946 H 0.20352 0.47879 0.49824 0.0
H947 H 0.1694 0.45889 0.65513 0.0
H948 H 0.05831 0.40535 0.40463 0.0
H949 H 0.09803 0.41998 0.4593 0.0
H950 H 0.13516 0.47403 0.45691 0.0
C951 C 0.21207 0.48629 0.55531 0.0
C952 C 0.16206 0.46228 0.61181 0.0
C953 C 0.23511 0.49566 0.57786 0.0
C954 C 0.06809 0.41962 0.43595 0.0
C955 C 0.09087 0.42801 0.46691 0.0
C956 C 0.14246 0.47053 0.49991 0.0
C957 C 0.20012 0.48624 0.60607 0.0
C958 C 0.17558 0.47617 0.58113 0.0
C959 C 0.10446 0.44683 0.50396 0.0
C960 C 0.12891 0.45649 0.5298 0.0
H961 H 0.24363 0.51315 0.75935 0.0
H962 H 0.20303 0.49621 0.72019 0.0
H963 H 0.17547 0.49071 0.49995 0.0
H964 H 0.06525 0.45673 0.49198 0.0
H965 H 0.10471 0.47128 0.54202 0.0
C966 C 0.60986 0.6213 0.5892 0.0
C967 C 0.62506 0.63973 0.62929 0.0
C968 C 0.61557 0.61242 0.53911 0.0
C969 C 0.65562 0.61897 0.43132 0.0
H970 H 0.63716 0.56976 0.442 0.0
C971 C 0.6822 0.57565 0.26859 0.0
C972 C 0.66553 0.55705 0.23511 0.0
C973 C 0.67854 0.58664 0.31774 0.0
C974 C 0.64229 0.58341 0.43771 0.0
H975 H 0.65783 0.66358 0.64541 0.0
H976 H 0.66795 0.64798 0.55736 0.0
H977 H 0.62809 0.58747 0.52215 0.0
H978 H 0.63215 0.53536 0.2287 0.0
H979 H 0.6257 0.55445 0.31311 0.0
H980 H 0.66979 0.61475 0.34634 0.0
C981 C 0.65154 0.64044 0.56476 0.0
C982 C 0.63705 0.59358 0.48368 0.0
C983 C 0.64575 0.64939 0.61503 0.0
C984 C 0.64527 0.54967 0.25276 0.0
C985 C 0.64166 0.56059 0.30189 0.0
C986 C 0.66088 0.60874 0.38507 0.0
C987 C 0.63671 0.62168 0.52782 0.0
C988 C 0.64333 0.61138 0.4804 0.0
C989 C 0.6582 0.57923 0.33498 0.0
C990 C 0.65399 0.59071 0.38701 0.0
H991 H 0.59365 0.61358 0.59811 0.0
H992 H 0.60352 0.59812 0.51016 0.0
H993 H 0.66066 0.63261 0.42723 0.0
H994 H 0.69794 0.58181 0.2558 0.0
H995 H 0.6917 0.6009 0.34268 0.0
C996 C 0.4953 0.09892 0.3464 0.0
C997 C 0.50311 0.09731 0.28468 0.0
C998 C 0.49604 0.08969 0.39926 0.0
C999 C 0.4918 0.04833 0.41906 0.0
H1000 H 0.52672 0.07326 0.62103 0.0
C1001 C 0.50476 1.00853 0.61379 0.0
C1002 C 0.50866 1.01507 0.68942 0.0
C1003 C 0.50348 0.01871 0.566 0.0
C1004 C 0.51644 0.06594 0.56537 0.0
H1005 H 0.51914 0.08546 0.23391 0.0
H1006 H 0.51922 0.06874 0.32364 0.0
H1007 H 0.52534 0.09108 0.5371 0.0
H1008 H 0.51353 0.037 0.77425 0.0
H1009 H 0.51006 0.05426 0.69117 0.0
H1010 H 0.48208 0.02318 0.44659 0.0
C1011 C 0.51251 0.07713 0.33066 0.0
C1012 C 0.51583 0.07625 0.51722 0.0
C1013 C 0.51226 0.08664 0.27891 0.0
C1014 C 0.51071 0.03174 0.71616 0.0
C1015 C 0.50892 0.04172 0.66829 0.0
C1016 C 0.49196 0.03798 0.46745 0.0
C1017 C 0.50423 0.0784 0.39088 0.0
C1018 C 0.50374 0.06755 0.44344 0.0
C1019 C 0.50555 0.03552 0.59237 0.0
C1020 C 0.50455 0.04659 0.54131 0.0
H1021 H 0.48797 0.10682 0.35286 0.0
H1022 H 0.48956 0.09087 0.44542 0.0
H1023 H 0.48222 0.0413 0.3624 0.0
H1024 H 0.50331 0.99579 0.59187 0.0
H1025 H 0.50137 1.01351 0.50854 0.0
C1026 C 0.17666 0.12502 0.09201 0.0
C1027 C 0.16516 0.10596 0.06004 0.0
C1028 C 0.16548 0.13368 0.10434 0.0
C1029 C 0.1101 0.12704 0.0465 0.0
H1030 H 0.13773 0.17174 0.20309 0.0
C1031 C 0.07387 0.17239 0.06474 0.0
C1032 C 0.07573 0.18163 0.13453 0.0
C1033 C 0.08502 0.16347 0.05659 0.0
C1034 C 0.12953 0.15918 0.15937 0.0
H1035 H 0.13252 0.08102 0.01948 0.0
H1036 H 0.11288 0.096 0.04346 0.0
H1037 H 0.15528 0.15485 0.19261 0.0
H1038 H 0.08969 0.18785 0.25066 0.0
H1039 H 0.109 0.17231 0.23723 0.0
H1040 H 0.0839 0.13104 0.0151 0.0
C1041 C 0.13071 0.10439 0.05707 0.0
C1042 C 0.13986 0.14954 0.1526 0.0
C1043 C 0.14199 0.09569 0.04428 0.0
C1044 C 0.08858 0.18138 0.19605 0.0
C1045 C 0.09969 0.17244 0.18809 0.0
C1046 C 0.09965 0.13661 0.05369 0.0
C1047 C 0.14227 0.12362 0.08615 0.0
C1048 C 0.13046 0.13335 0.09569 0.0
C1049 C 0.098 0.16317 0.11821 0.0
C1050 C 0.10923 0.15292 0.11007 0.0
H1051 H 0.19451 0.13345 0.10607 0.0
H1052 H 0.17519 0.14846 0.12597 0.0
H1053 H 0.1023 0.11483 0.00132 0.0
H1054 H 0.06337 0.17173 0.01648 0.0
H1055 H 0.08337 0.15674 0.00174 0.0
C1056 C 0.94331 0.95714 0.10766 0.0
C1057 C 0.9219 0.94414 0.11054 0.0
C1058 C 0.94836 0.97381 0.09271 0.0
C1059 C 0.92138 0.99733 0.02375 0.0
H1060 H 0.97803 0.04194 0.12762 0.0
C1061 C 0.93588 0.06914 0.06454 0.0
C1062 C 0.9537 0.0824 0.04298 0.0
C1063 C 0.93348 0.05255 0.06886 0.0
C1064 C 0.96221 0.02957 0.09776 0.0
H1065 H 0.8888 0.93829 0.09566 0.0
H1066 H 0.89765 0.96721 0.07326 0.0
H1067 H 0.97088 1.01229 0.13995 0.0
H1068 H 0.98345 0.08836 0.01169 0.0
H1069 H 0.97966 0.05965 0.02275 0.0
H1070 H 0.91244 1.01476 0.98455 0.0
C1071 C 0.91064 0.96465 0.08133 0.0
C1072 C 0.9581 1.0125 0.10443 0.0
C1073 C 0.90559 0.94804 0.0955 0.0
C1074 C 0.96959 0.07873 0.02909 0.0
C1075 C 0.96739 0.06219 0.03496 0.0
C1076 C 0.92537 1.01436 0.01824 0.0
C1077 C 0.93214 0.97794 0.08026 0.0
C1078 C 0.93745 0.9961 0.06843 0.0
C1079 C 0.94906 0.04878 0.05357 0.0
C1080 C 0.9457 0.0307 0.05588 0.0
H1081 H 0.95634 0.9547 0.11911 0.0
H1082 H 0.96503 0.98347 0.09132 0.0
H1083 H 0.90553 0.98512 -0.00683 0.0
H1084 H 0.92363 0.07151 0.07824 0.0
H1085 H 0.91939 0.04264 0.08465 0.0
C1086 C 0.98724 0.87601 0.08811 0.0
C1087 C 0.97153 0.86521 0.01947 0.0
C1088 C 1.00967 0.88937 0.09348 0.0
C1089 C 0.04488 0.91928 0.98414 0.0
H1090 H 0.09453 0.93081 0.13729 0.0
C1091 C 0.13525 0.97762 -0.00738 0.0
C1092 C 0.15225 0.98673 0.05867 0.0
C1093 C 0.11414 0.96207 0.98719 0.0
C1094 C 0.08104 0.92818 0.09438 0.0
H1095 H 0.96773 0.86081 0.90283 0.0
H1096 H 1.00628 0.88357 0.91169 0.0
H1097 H 0.05735 0.90586 0.13089 0.0
H1098 H 0.15925 0.98697 0.1725 0.0
H1099 H 0.12296 0.96041 0.16427 0.0
H1100 H 0.06803 0.94178 0.9487 0.0
C1101 C 1.00152 0.88171 0.96198 0.0
C1102 C 0.05939 0.91357 0.09061 0.0
C1103 C 0.97928 0.86827 0.95677 0.0
C1104 C 0.14703 0.97997 0.11975 0.0
C1105 C 0.12588 0.96452 0.11471 0.0
C1106 C 0.06642 0.93402 0.98847 0.0
C1107 C 1.01721 0.89293 0.03038 0.0
C1108 C 0.04075 0.90868 0.03514 0.0
C1109 C 0.10867 0.95518 0.04837 0.0
C1110 C 0.08523 0.93894 0.04356 0.0
H1111 H 0.98195 0.87483 0.13782 0.0
H1112 H 1.02083 0.89762 0.14742 0.0
H1113 H 0.03127 0.91648 0.94115 0.0
H1114 H 0.13815 0.98274 0.9449 0.0
H1115 H 0.10212 0.95559 0.93429 0.0
C1116 C 0.84975 0.46444 0.11157 0.0
C1117 C 0.83826 0.46775 0.15766 0.0
C1118 C 0.85346 0.45037 0.11288 0.0
C1119 C 0.86034 0.42417 0.23446 0.0
H1120 H 0.85177 0.39117 0.05615 0.0
C1121 C 0.87476 0.36546 0.24448 0.0
C1122 C 0.88239 0.36006 0.18919 0.0
C1123 C 0.86864 0.37805 0.2398 0.0
C1124 C 0.85469 0.40042 0.10674 0.0
H1125 H 0.82162 0.45879 0.2412 0.0
H1126 H 0.82845 0.43434 0.24464 0.0
H1127 H 0.8422 0.41366 0.04897 0.0
H1128 H 0.88841 0.36272 0.08358 0.0
H1129 H 0.87906 0.38545 0.0768 0.0
H1130 H 0.87366 0.4116 0.29247 0.0
C1131 C 0.83439 0.44256 0.20686 0.0
C1132 C 0.84899 0.41329 0.10246 0.0
C1133 C 0.83028 0.45643 0.20444 0.0
C1134 C 0.8831 0.36703 0.12788 0.0
C1135 C 0.8774 0.3799 0.12371 0.0
C1136 C 0.86641 0.41153 0.23879 0.0
C1137 C 0.84622 0.43944 0.16151 0.0
C1138 C 0.85167 0.42532 0.16623 0.0
C1139 C 0.87002 0.38566 0.17961 0.0
C1140 C 0.86365 0.39935 0.17499 0.0
H1141 H 0.85626 0.47302 0.07537 0.0
H1142 H 0.86273 0.44849 0.07757 0.0
H1143 H 0.86297 0.43341 0.2847 0.0
H1144 H 0.87318 0.35971 0.29094 0.0
H1145 H 0.8625 0.38156 0.28316 0.0
C1146 C 0.71538 0.46155 0.21774 0.0
C1147 C 0.71793 0.46886 0.15701 0.0
C1148 C 0.69848 0.44334 0.21082 0.0
C1149 C 0.65641 0.3975 0.07091 0.0
H1150 H 0.63527 0.38503 0.24014 0.0
C1151 C 0.5792 0.32567 0.05978 0.0
C1152 C 0.58018 0.31795 0.11835 0.0
C1153 C 0.59637 0.34344 0.06157 0.0
C1154 C 0.6411 0.38815 0.19239 0.0
H1155 H 0.70479 0.46215 0.03988 0.0
H1156 H 0.67453 0.43059 0.02765 0.0
H1157 H 0.66244 0.41677 0.24751 0.0
H1158 H 0.60031 0.32317 0.22501 0.0
H1159 H 0.63019 0.35426 0.22884 0.0
H1160 H 0.63413 0.36871 0.0153 0.0
C1161 C 0.68582 0.43889 0.08132 0.0
C1162 C 0.65694 0.40655 0.19656 0.0
C1163 C 0.70303 0.4572 0.0883 0.0
C1164 C 0.59912 0.32849 0.1784 0.0
C1165 C 0.61615 0.34645 0.18088 0.0
C1166 C 0.64024 0.37909 0.06642 0.0
C1167 C 0.68321 0.43151 0.14259 0.0
C1168 C 0.66522 0.41168 0.13624 0.0
C1169 C 0.61496 0.35435 0.12285 0.0
C1170 C 0.63243 0.37404 0.12734 0.0
H1171 H 0.7268 0.46993 0.27129 0.0
H1172 H 0.69792 0.4385 0.25945 0.0
H1173 H 0.66225 0.40045 0.02313 0.0
H1174 H 0.56475 0.31809 0.01309 0.0
H1175 H 0.5946 0.34892 0.01603 0.0
C1176 C 0.58229 0.21621 0.13769 0.0
C1177 C 0.57807 0.22237 0.20155 0.0
C1178 C 0.60374 0.22086 0.13733 0.0
C1179 C 0.66026 0.24052 0.26296 0.0
H1180 H 0.67896 0.24855 0.08641 0.0
C1181 C 0.75203 0.27055 0.2581 0.0
C1182 C 0.75537 0.26224 0.19701 0.0
C1183 C 0.7308 0.26652 0.25876 0.0
C1184 C 0.67405 0.24625 0.1362 0.0
H1185 H 0.59336 0.23886 0.31423 0.0
H1186 H 0.63057 0.2472 0.31374 0.0
H1187 H 0.64149 0.23922 0.08713 0.0
H1188 H 0.73888 0.24377 0.08743 0.0
H1189 H 0.70229 0.23692 0.08823 0.0
H1190 H 0.69297 0.24773 0.31207 0.0
C1191 C 0.61734 0.23826 0.26422 0.0
C1192 C 0.65236 0.24077 0.13655 0.0
C1193 C 0.59593 0.23355 0.26452 0.0
C1194 C 0.73702 0.2504 0.13565 0.0
C1195 C 0.71594 0.24652 0.13598 0.0
C1196 C 0.682 0.24611 0.26272 0.0
C1197 C 0.62174 0.2321 0.20054 0.0
C1198 C 0.64499 0.23775 0.19988 0.0
C1199 C 0.71231 0.25424 0.19794 0.0
C1200 C 0.68929 0.24901 0.19925 0.0
H1201 H 0.56912 0.208 0.0876 0.0
H1202 H 0.60613 0.21558 0.08724 0.0
H1203 H 0.65537 0.23807 0.31264 0.0
H1204 H 0.76568 0.27962 0.30652 0.0
H1205 H 0.72884 0.27295 0.30725 0.0
C1206 C 0.57077 0.8313 0.92303 0.0
C1207 C 0.56859 0.81797 0.86539 0.0
C1208 C 0.5579 0.83872 0.91417 0.0
C1209 C 0.50755 0.83201 0.79249 0.0
H1210 H 0.53518 0.88354 0.8893 0.0
C1211 C 0.46479 0.8702 0.72836 0.0
C1212 C 0.46587 0.88272 0.7865 0.0
C1213 C 0.47781 0.86295 0.73826 0.0
C1214 C 0.52706 0.86909 0.86241 0.0
H1215 H 0.55036 0.8017 0.75336 0.0
H1216 H 0.52791 0.81467 0.73737 0.0
H1217 H 0.55591 0.86924 0.90508 0.0
H1218 H 0.48173 0.89743 0.90128 0.0
H1219 H 0.50478 0.88496 0.91874 0.0
H1220 H 0.47876 0.83193 0.7494 0.0
C1221 C 0.53954 0.81932 0.79013 0.0
C1222 C 0.53899 0.86079 0.87156 0.0
C1223 C 0.55242 0.81179 0.79922 0.0
C1224 C 0.48074 0.88808 0.85493 0.0
C1225 C 0.49392 0.88085 0.86487 0.0
C1226 C 0.49566 0.84033 0.78314 0.0
C1227 C 0.54233 0.83319 0.84712 0.0
C1228 C 0.52947 0.84207 0.83687 0.0
C1229 C 0.49234 0.86786 0.80694 0.0
C1230 C 0.50519 0.85903 0.81782 0.0
H1231 H 0.58277 0.83623 0.97528 0.0
H1232 H 0.56026 0.8489 0.9603 0.0
H1233 H 0.49934 0.81756 0.76569 0.0
H1234 H 0.45349 0.86573 0.67498 0.0
H1235 H 0.47634 0.85334 0.69179 0.0
C1236 C 0.29283 0.64762 0.60895 0.0
C1237 C 0.29684 0.63869 0.65812 0.0
C1238 C 0.30215 0.66647 0.63047 0.0
C1239 C 0.32593 0.70526 0.79501 0.0
H1240 H 0.34171 0.73343 0.65281 0.0
C1241 C 0.36153 0.78385 0.76456 0.0
C1242 C 0.34924 0.78808 0.80352 0.0
C1243 C 0.35843 0.76657 0.75356 0.0
C1244 C 0.33776 0.72592 0.69381 0.0
H1245 H 0.31423 0.64275 0.76837 0.0
H1246 H 0.33109 0.67587 0.80542 0.0
H1247 H 0.33135 0.70185 0.62087 0.0
H1248 H 0.32465 0.77755 0.86394 0.0
H1249 H 0.31847 0.74723 0.84176 0.0
H1250 H 0.33279 0.7295 0.86849 0.0
C1251 C 0.32036 0.66816 0.75048 0.0
C1252 C 0.33148 0.70767 0.67502 0.0
C1253 C 0.31089 0.6492 0.72899 0.0
C1254 C 0.33413 0.7747 0.83253 0.0
C1255 C 0.33085 0.75736 0.82085 0.0
C1256 C 0.33244 0.7236 0.8141 0.0
C1257 C 0.31596 0.677 0.70158 0.0
C1258 C 0.32497 0.69696 0.7247 0.0
C1259 C 0.34278 0.75299 0.78049 0.0
C1260 C 0.33798 0.73406 0.76318 0.0
H1261 H 0.28241 0.64002 0.55353 0.0
H1262 H 0.29809 0.67271 0.5916 0.0
H1263 H 0.32092 0.69742 0.83457 0.0
H1264 H 0.37319 0.79372 0.7408 0.0
H1265 H 0.36817 0.76382 0.72321 0.0
C1266 C 0.52928 0.68778 0.76171 0.0
C1267 C 0.54402 0.69816 0.83175 0.0
C1268 C 0.50786 0.67244 0.75298 0.0
C1269 C 0.46428 0.65456 0.84846 0.0
H1270 H 0.43906 0.60676 0.71503 0.0
C1271 C 0.37837 0.5947 0.84474 0.0
C1272 C 0.36397 0.58119 0.77895 0.0
C1273 C 0.40069 0.60724 0.85065 0.0
C1274 C 0.4456 0.62004 0.75199 0.0
H1275 H 0.54619 0.70228 0.94722 0.0
H1276 H 0.50956 0.67541 0.93307 0.0
H1277 H 0.47661 0.63198 0.72412 0.0
H1278 H 0.36199 0.57016 0.6674 0.0
H1279 H 0.40088 0.59246 0.6763 0.0
H1280 H 0.43346 0.64333 0.87455 0.0
C1281 C 0.51482 0.67843 0.88437 0.0
C1282 C 0.46728 0.63453 0.7573 0.0
C1283 C 0.53612 0.69364 0.89272 0.0
C1284 C 0.37272 0.5802 0.71934 0.0
C1285 C 0.39513 0.59311 0.72466 0.0
C1286 C 0.44261 0.64026 0.84231 0.0
C1287 C 0.50031 0.66752 0.81434 0.0
C1288 C 0.47702 0.65198 0.80627 0.0
C1289 C 0.40943 0.60728 0.78996 0.0
C1290 C 0.43282 0.62258 0.79473 0.0
H1291 H 0.53409 0.69183 0.71365 0.0
H1292 H 0.49696 0.66479 0.69821 0.0
H1293 H 0.47096 0.66784 0.88572 0.0
H1294 H 0.37216 0.59586 0.89169 0.0
H1295 H 0.41096 0.61721 0.903 0.0
C1296 C 0.03823 0.21883 0.88182 0.0
C1297 C 0.03367 0.203 0.90318 0.0
C1298 C 0.03986 0.21972 0.81135 0.0
C1299 C 0.05645 0.20125 0.67208 0.0
H1300 H 0.03892 0.22626 0.55572 0.0
C1301 C 0.0541 0.19731 0.37206 0.0
C1302 C 0.06045 0.21324 0.34948 0.0
C1303 C 0.05473 0.19775 0.4449 0.0
C1304 C 0.04427 0.21959 0.5887 0.0
H1305 H 1.02488 0.17502 0.86682 0.0
H1306 H 1.02743 0.17649 0.74221 0.0
H1307 H 1.02691 0.2211 0.66645 0.0
H1308 H 0.07403 0.24236 0.38337 0.0
H1309 H 0.07472 0.24313 0.51242 0.0
H1310 H 0.07333 0.19934 0.59303 0.0
C1311 C 0.03023 0.18831 0.78066 0.0
C1312 C 0.03721 0.21647 0.65126 0.0
C1313 C 0.02857 0.18741 0.85141 0.0
C1314 C 0.069 0.22996 0.40064 0.0
C1315 C 0.06935 0.23038 0.47371 0.0
C1316 C 0.06339 0.20428 0.60926 0.0
C1317 C 0.03685 0.20476 0.7614 0.0
C1318 C 0.04311 0.20714 0.69301 0.0
C1319 C 0.06152 0.21412 0.49545 0.0
C1320 C 0.0572 0.21335 0.56707 0.0
H1321 H 0.04186 0.23093 0.92078 0.0
H1322 H 0.04499 0.23256 0.79779 0.0
H1323 H 0.0617 0.19446 0.70463 0.0
H1324 H 0.04786 0.18438 0.33284 0.0
H1325 H 0.04849 0.18504 0.46059 0.0
C1326 C 0.90042 0.81653 0.75637 0.0
C1327 C 0.90549 0.83167 0.8108 0.0
C1328 C 0.90519 0.81868 0.68968 0.0
C1329 C 0.94123 0.85467 0.60837 0.0
H1330 H 0.90417 0.81658 0.42644 0.0
C1331 C 0.94064 0.86032 0.31059 0.0
C1332 C 0.93791 0.8453 0.26144 0.0
C1333 C 0.94159 0.86056 0.38395 0.0
C1334 C 0.91479 0.82721 0.4772 0.0
H1335 H 0.91891 0.86086 0.83769 0.0
H1336 H 0.9257 0.86439 0.71952 0.0
H1337 H 0.89286 0.81261 0.53851 0.0
H1338 H 0.93723 0.82014 0.25236 0.0
H1339 H 0.93854 0.82053 0.38009 0.0
H1340 H 0.96259 0.86956 0.54513 0.0
C1341 C 0.91869 0.85094 0.72898 0.0
C1342 C 0.90834 0.82495 0.54128 0.0
C1343 C 0.91425 0.84882 0.79606 0.0
C1344 C 0.93878 0.83168 0.28851 0.0
C1345 C 0.9396 0.83189 0.36153 0.0
C1346 C 0.94749 0.85706 0.54377 0.0
C1347 C 0.91482 0.83601 0.67593 0.0
C1348 C 0.92149 0.83863 0.60761 0.0
C1349 C 0.93983 0.84581 0.40855 0.0
C1350 C 0.93435 0.84327 0.47801 0.0
H1351 H 0.89334 0.80315 0.76607 0.0
H1352 H 0.90209 0.8069 0.65018 0.0
H1353 H 0.95194 0.86532 0.65891 0.0
H1354 H 0.94026 0.87112 0.29149 0.0
H1355 H 0.94179 0.87144 0.41972 0.0
C1356 C 0.17352 1.01412 0.78934 0.0
C1357 C 0.18636 1.00836 0.82315 0.0
C1358 C 0.16919 1.01197 0.71399 0.0
C1359 C 0.18375 0.02242 0.58099 0.0
H1360 H 0.17798 0.98347 0.43515 0.0
C1361 C 0.21496 1.01419 0.31171 0.0
C1362 C 0.20793 0.0229 0.27011 0.0
C1363 C 0.20806 1.01048 0.37428 0.0
C1364 C 0.17958 0.99442 0.47547 0.0
H1365 H 0.20293 0.99425 0.80383 0.0
H1366 H 0.19588 0.99095 0.67312 0.0
H1367 H 0.17017 0.97828 0.55175 0.0
H1368 H 0.18825 0.03468 0.26125 0.0
H1369 H 0.17671 0.02864 0.37159 0.0
H1370 H 0.19387 0.03876 0.50593 0.0
C1371 C 0.18898 0.99699 0.70441 0.0
C1372 C 0.17503 0.99143 0.54179 0.0
C1373 C 0.19325 0.99908 0.77959 0.0
C1374 C 0.19441 0.02835 0.29323 0.0
C1375 C 0.18757 0.02471 0.35587 0.0
C1376 C 0.1882 0.02536 0.51465 0.0
C1377 C 0.17766 1.00405 0.67142 0.0
C1378 C 0.17777 1.00562 0.59603 0.0
C1379 C 0.19409 1.01551 0.39626 0.0
C1380 C 0.18682 1.01159 0.46239 0.0
H1381 H 0.16764 0.02104 0.82131 0.0
H1382 H 0.16011 1.01727 0.68957 0.0
H1383 H 0.18636 0.03372 0.62218 0.0
H1384 H 0.22566 1.01017 0.29579 0.0
H1385 H 0.21373 1.00374 0.40564 0.0
C1386 C 0.73484 0.51893 0.37445 0.0
C1387 C 0.75511 0.52872 0.3576 0.0
C1388 C 0.73427 0.51714 0.44506 0.0
C1389 C 0.76774 0.51606 0.60246 0.0
H1390 H 0.72402 0.51438 0.69761 0.0
C1391 C 0.76962 0.51227 0.89945 0.0
C1392 C 0.74948 0.50257 0.91714 0.0
C1393 C 0.76993 0.51382 0.82847 0.0
C1394 C 0.73607 0.51449 0.67099 0.0
H1395 H 0.79052 0.54675 0.40412 0.0
H1396 H 0.78958 0.54335 0.5278 0.0
H1397 H 0.72622 0.5235 0.58375 0.0
H1398 H 0.71399 0.48465 0.8721 0.0
H1399 H 0.7145 0.48759 0.74765 0.0
H1400 H 0.77759 0.50706 0.68967 0.0
C1401 C 0.77417 0.53649 0.48542 0.0
C1402 C 0.73745 0.51987 0.60626 0.0
C1403 C 0.77471 0.53838 0.41466 0.0
C1404 C 0.72972 0.49285 0.86072 0.0
C1405 C 0.73001 0.4945 0.78957 0.0
C1406 C 0.76635 0.51068 0.66715 0.0
C1407 C 0.75396 0.52526 0.50044 0.0
C1408 C 0.75332 0.52073 0.57146 0.0
C1409 C 0.75011 0.50558 0.77357 0.0
C1410 C 0.75053 0.50987 0.70209 0.0
H1411 H 0.71935 0.51178 0.33251 0.0
H1412 H 0.71843 0.50849 0.45505 0.0
H1413 H 0.77981 0.51621 0.5759 0.0
H1414 H 0.78522 0.5196 0.94107 0.0
H1415 H 0.78568 0.52241 0.81781 0.0
C1416 C 0.52023 0.21461 0.42261 0.0
C1417 C 0.53007 0.20804 0.38087 0.0
C1418 C 0.52591 0.21807 0.49849 0.0
C1419 C 0.54233 0.19988 0.63114 0.0
H1420 H 0.54514 0.23816 0.77134 0.0
C1421 C 0.5382 0.19568 0.92291 0.0
C1422 C 0.52354 0.19952 0.94728 0.0
C1423 C 0.54439 0.20007 0.86028 0.0
C1424 C 0.54442 0.22743 0.73265 0.0
H1425 H 0.55456 0.20109 0.38546 0.0
H1426 H 0.56427 0.20695 0.51788 0.0
H1427 H 0.54761 0.24112 0.64785 0.0
H1428 H 0.50359 0.21068 0.92513 0.0
H1429 H 0.51375 0.21768 0.8138 0.0
H1430 H 0.53784 0.18562 0.71361 0.0
C1431 C 0.55208 0.20927 0.49187 0.0
C1432 C 0.54593 0.22917 0.66251 0.0
C1433 C 0.54637 0.20577 0.41615 0.0
C1434 C 0.51494 0.20759 0.90756 0.0
C1435 C 0.52099 0.21183 0.8445 0.0
C1436 C 0.5407 0.19809 0.70089 0.0
C1437 C 0.54149 0.21498 0.53333 0.0
C1438 C 0.54423 0.21513 0.61076 0.0
C1439 C 0.53583 0.20817 0.82058 0.0
C1440 C 0.54104 0.21157 0.7514 0.0
H1441 H 0.50758 0.21644 0.39661 0.0
H1442 H 0.51728 0.2222 0.5294 0.0
H1443 H 0.54064 0.18874 0.59173 0.0
H1444 H 0.54529 0.18963 0.95283 0.0
H1445 H 0.55595 0.1972 0.8431 0.0
C1446 C 0.93062 0.3514 0.51769 0.0
C1447 C 0.91053 0.34412 0.46553 0.0
C1448 C 0.93081 0.35019 0.58915 0.0
C1449 C 0.89765 0.34027 0.72058 0.0
H1450 H 0.92793 0.3174 0.78549 0.0
C1451 C 0.88552 0.31374 0.96946 0.0
C1452 C 0.9055 0.32237 0.02357 0.0
C1453 C 0.88563 0.31363 0.89708 0.0
C1454 C 0.91943 0.32376 0.76766 0.0
H1455 H 0.87526 0.3316 0.4482 0.0
H1456 H 0.87564 0.32934 0.5727 0.0
H1457 H 0.93092 0.32662 0.67171 0.0
H1458 H 0.94085 0.33549 0.0455 0.0
H1459 H 0.94119 0.33577 0.91871 0.0
H1460 H 0.88613 0.3374 0.81625 0.0
C1461 C 0.89116 0.33589 0.55846 0.0
C1462 C 0.92132 0.32921 0.70346 0.0
C1463 C 0.89095 0.33707 0.48713 0.0
C1464 C 0.92537 0.32924 0.00421 0.0
C1465 C 0.92551 0.32914 0.93188 0.0
C1466 C 0.8957 0.33477 0.78449 0.0
C1467 C 0.91097 0.3418 0.60903 0.0
C1468 C 0.91042 0.33748 0.67961 0.0
C1469 C 0.90573 0.32216 0.87875 0.0
C1470 C 0.9065 0.32643 0.8082 0.0
H1471 H 0.946 0.3571 0.50259 0.0
H1472 H 0.94631 0.35511 0.62803 0.0
H1473 H 0.88925 0.34674 0.70324 0.0
H1474 H 0.87006 0.30845 0.98369 0.0
H1475 H 0.87019 0.30799 0.85635 0.0
C1476 C 0.41356 0.89376 0.54192 0.0
C1477 C 0.42551 0.90913 0.60277 0.0
C1478 C 0.41467 0.89595 0.4719 0.0
C1479 C 0.45424 0.9272 0.38803 0.0
H1480 H 0.40724 0.89649 0.20873 0.0
C1481 C 0.46373 0.9304 0.09434 0.0
C1482 C 0.45246 0.91332 0.04218 0.0
C1483 C 0.46136 0.93136 0.16543 0.0
C1484 C 0.42053 0.90507 0.2585 0.0
H1485 H 0.44643 0.93878 0.63933 0.0
H1486 H 0.44826 0.94271 0.51688 0.0
H1487 H 0.39858 0.89595 0.32649 0.0
H1488 H 0.43142 0.88387 0.02363 0.0
H1489 H 0.42764 0.8855 0.14797 0.0
H1490 H 0.47623 0.93604 0.31988 0.0
C1491 C 0.43837 0.92898 0.52299 0.0
C1492 C 0.41555 0.90482 0.32564 0.0
C1493 C 0.43731 0.92675 0.5928 0.0
C1494 C 0.44014 0.8972 0.06308 0.0
C1495 C 0.43782 0.89814 0.1338 0.0
C1496 C 0.45921 0.92747 0.32079 0.0
C1497 C 0.42777 0.91356 0.4623 0.0
C1498 C 0.43242 0.9156 0.39102 0.0
C1499 C 0.44767 0.91524 0.18464 0.0
C1500 C 0.44245 0.91608 0.25567 0.0
H1501 H 0.40479 0.88006 0.54866 0.0
H1502 H 0.40652 0.8838 0.42611 0.0
H1503 H 0.46763 0.93546 0.43774 0.0
H1504 H 0.47295 0.94299 0.07899 0.0
H1505 H 0.46913 0.94471 0.20386 0.0
C1506 C 0.27998 0.5379 0.94943 0.0
C1507 C 0.29944 0.54161 0.93157 0.0
C1508 C 0.27606 0.53303 0.01392 0.0
C1509 C 0.29375 0.51582 0.1559 0.0
H1510 H 0.27516 0.54109 0.28004 0.0
C1511 C 0.31216 0.52925 0.46862 0.0
C1512 C 0.29655 0.52959 0.50161 0.0
C1513 C 0.30836 0.52589 0.39273 0.0
C1514 C 0.27988 0.53359 0.24536 0.0
H1515 H 0.33036 0.54369 0.96774 0.0
H1516 H 0.32371 0.53557 0.08073 0.0
H1517 H 0.27634 0.54505 0.158 0.0
H1518 H 0.26384 0.52476 0.48142 0.0
H1519 H 0.25724 0.51885 0.34938 0.0
H1520 H 0.29818 0.50499 0.24505 0.0
C1521 C 0.31121 0.53591 0.04408 0.0
C1522 C 0.28056 0.53588 0.17553 0.0
C1523 C 0.31511 0.54075 0.97976 0.0
C1524 C 0.27646 0.52516 0.45756 0.0
C1525 C 0.2726 0.52167 0.382 0.0
C1526 C 0.29312 0.51356 0.22601 0.0
C1527 C 0.29159 0.53186 0.06142 0.0
C1528 C 0.28804 0.52739 0.13098 0.0
C1529 C 0.28885 0.52269 0.34922 0.0
C1530 C 0.28665 0.52277 0.2718 0.0
H1531 H 0.26756 0.53838 0.91302 0.0
H1532 H 0.2608 0.52996 0.02618 0.0
H1533 H 0.29923 0.50888 0.12188 0.0
H1534 H 0.32769 0.53245 0.50153 0.0
H1535 H 0.32121 0.52684 0.36868 0.0
C1536 C 0.57405 0.72817 0.59008 0.0
C1537 C 0.58713 0.72216 0.61955 0.0
C1538 C 0.56735 0.72503 0.51461 0.0
C1539 C 0.57323 0.73035 0.36627 0.0
H1540 H 0.56723 0.6893 0.23354 0.0
C1541 C 0.6051 0.7383 0.11404 0.0
C1542 C 0.59454 0.72329 0.05195 0.0
C1543 C 0.59827 0.73624 0.1777 0.0
C1544 C 0.5683 0.70068 0.26889 0.0
H1545 H 0.6032 0.70797 0.59432 0.0
H1546 H 0.59246 0.70325 0.46329 0.0
H1547 H 0.56262 0.68744 0.35472 0.0
H1548 H 0.56917 0.69417 0.00841 0.0
H1549 H 0.55655 0.69083 0.11718 0.0
H1550 H 0.57867 0.74353 0.28012 0.0
C1551 C 0.58666 0.70979 0.49769 0.0
C1552 C 0.5659 0.69968 0.33871 0.0
C1553 C 0.59311 0.71272 0.57283 0.0
C1554 C 0.57756 0.70609 0.05519 0.0
C1555 C 0.57031 0.70413 0.11777 0.0
C1556 C 0.5751 0.73119 0.29574 0.0
C1557 C 0.57387 0.71603 0.4679 0.0
C1558 C 0.56974 0.71494 0.38934 0.0
C1559 C 0.58056 0.71918 0.17973 0.0
C1560 C 0.57392 0.71679 0.24796 0.0
H1561 H 0.56891 0.73521 0.62519 0.0
H1562 H 0.55737 0.72986 0.49291 0.0
H1563 H 0.57619 0.74232 0.40409 0.0
H1564 H 0.61872 0.75154 0.11376 0.0
H1565 H 0.6071 0.74796 0.22553 0.0
loop_
_geom_bond_atom_site_label_1
_geom_bond_atom_site_label_2
_geom_bond_distance
_geom_bond_site_symmetry_2
_ccdc_geom_bond_type
Eu0 N31 2.657 . S
Eu0 N38 2.609 . S
Eu0 O44 2.558 . S
Eu0 O45 2.612 . S
Eu0 O47 2.339 . S
Eu0 O48 2.563 . S
Eu0 O49 2.419 . S
Eu0 O51 2.380 . S
Eu0 O52 2.432 . S
Eu0 C64 2.848 . S
C1 C4 1.429 . S
C1 C5 1.411 . S
C1 N8 1.377 . S
C2 C4 1.420 . S
C2 C6 1.423 . S
C2 C14 1.392 . S
C3 C5 1.420 . S
C3 C6 1.351 . S
C3 H26 0.931 1_554 S
C4 C1 1.429 . S
C4 C2 1.420 . S
C4 N12 1.362 . S
C5 C1 1.411 . S
C5 C3 1.420 . S
C5 C10 1.395 1_554 S
C6 C2 1.423 . S
C6 C3 1.351 . S
C6 H18 0.930 . S
C7 C9 1.400 . S
C7 C10 1.386 . S
C7 H19 0.930 . S
N8 C1 1.377 . S
N8 C9 1.321 1_554 S
N8 Eu11 2.609 1_655 S
C9 C7 1.400 . S
C9 N8 1.321 1_556 S
C9 H16 0.930 . S
C10 C5 1.395 1_556 S
C10 C7 1.386 . S
C10 H29 0.930 . S
Eu11 N8 2.609 1_455 S
Eu11 N12 2.657 1_455 S
Eu11 O45 2.380 . S
Eu11 O46 2.432 . S
Eu11 O50 2.558 1_455 S
Eu11 O51 2.612 . S
Eu11 O53 2.339 . S
Eu11 O54 2.563 . S
Eu11 O55 2.419 1_455 S
Eu11 C75 2.848 1_455 S
N12 C4 1.362 . S
N12 Eu11 2.657 1_655 S
N12 C13 1.334 . S
C13 N12 1.334 . S
C13 C15 1.413 . S
C13 H20 0.929 . S
C14 C2 1.392 . S
C14 C15 1.367 . S
C14 H22 0.930 . S
C15 C13 1.413 . S
C15 C14 1.367 . S
C15 H17 0.930 . S
H16 C9 0.930 . S
H17 C15 0.930 . S
H18 C6 0.930 . S
H19 C7 0.930 . S
H20 C13 0.929 . S
H21 C35 0.930 . S
H22 C14 0.930 . S
H23 C41 0.930 . S
H24 C32 0.929 . S
H25 C39 0.930 . S
H26 C3 0.931 1_556 S
H27 C33 0.930 . S
H28 C66 0.930 . S
H29 C10 0.930 . S
H30 C65 0.931 . S
N31 Eu0 2.657 . S
N31 C32 1.334 . S
N31 C36 1.362 . S
C32 H24 0.929 . S
C32 N31 1.334 . S
C32 C35 1.413 . S
C33 H27 0.930 . S
C33 C34 1.392 . S
C33 C35 1.367 . S
C34 C33 1.392 . S
C34 C36 1.420 . S
C34 C66 1.423 . S
C35 H21 0.930 . S
C35 C32 1.413 . S
C35 C33 1.367 . S
C36 N31 1.362 . S
C36 C34 1.420 . S
C36 C40 1.429 . S
H37 C42 0.930 . S
N38 Eu0 2.609 . S
N38 C40 1.377 . S
N38 C41 1.321 . S
C39 H25 0.930 . S
C39 C41 1.400 . S
C39 C42 1.386 . S
C40 C36 1.429 . S
C40 N38 1.377 . S
C40 C43 1.411 . S
C41 H23 0.930 . S
C41 N38 1.321 . S
C41 C39 1.400 . S
C42 H37 0.930 . S
C42 C39 1.386 . S
C42 C43 1.395 . S
C43 C40 1.411 . S
C43 C42 1.395 . S
C43 C65 1.420 . S
O44 Eu0 2.558 . S
O44 C64 1.257 . S
O45 Eu0 2.612 . S
O45 Eu11 2.380 . S
O45 C56 1.276 . S
O46 Eu11 2.432 . S
O46 C63 1.264 . S
O47 Eu0 2.339 . S
O47 C63 1.254 . S
O48 Eu0 2.563 . S
O48 C56 1.235 . S
O49 Eu0 2.419 . S
O49 C64 1.249 . S
O50 Eu11 2.558 1_655 S
O50 C75 1.257 . S
O51 Eu0 2.380 . S
O51 Eu11 2.612 . S
O51 C67 1.276 . S
O52 Eu0 2.432 . S
O52 C74 1.264 . S
O53 Eu11 2.339 . S
O53 C74 1.254 . S
O54 Eu11 2.563 . S
O54 C67 1.235 . S
O55 Eu11 2.419 1_655 S
O55 C75 1.249 . S
C56 O45 1.276 . S
C56 O48 1.235 . S
C57 C59 1.393 . S
C57 C61 1.395 . S
C57 C64 1.492 . S
C58 C59 1.392 . S
C58 C60 1.386 . S
C59 C57 1.393 . S
C59 C58 1.392 . S
C59 H76 0.930 . S
C60 C58 1.386 . S
C60 C62 1.395 . S
C60 H77 0.930 . S
C61 C57 1.395 . S
C61 C62 1.379 . S
C61 H78 0.930 . S
C62 C60 1.395 . S
C62 C61 1.379 . S
C62 H79 0.930 . S
C63 O46 1.264 . S
C63 O47 1.254 . S
C64 Eu0 2.848 . S
C64 O44 1.257 . S
C64 O49 1.249 . S
C64 C57 1.492 . S
C65 H30 0.931 . S
C65 C43 1.420 . S
C65 C66 1.351 . S
C66 H28 0.930 . S
C66 C34 1.423 . S
C66 C65 1.351 . S
C67 O51 1.276 . S
C67 O54 1.235 . S
C68 C69 1.393 . S
C68 C72 1.395 . S
C68 C75 1.492 . S
C69 C68 1.393 . S
C69 C70 1.392 . S
C69 H80 0.930 . S
C70 C69 1.392 . S
C70 C71 1.386 . S
C71 C70 1.386 . S
C71 C73 1.395 . S
C71 H81 0.930 . S
C72 C68 1.395 . S
C72 C73 1.379 . S
C72 H82 0.930 . S
C73 C71 1.395 . S
C73 C72 1.379 . S
C73 H83 0.930 . S
C74 O52 1.264 . S
C74 O53 1.254 . S
C75 Eu11 2.848 1_655 S
C75 O50 1.257 . S
C75 O55 1.249 . S
C75 C68 1.492 . S
H76 C59 0.930 . S
H77 C60 0.930 . S
H78 C61 0.930 . S
H79 C62 0.930 . S
H80 C69 0.930 . S
H81 C71 0.930 . S
H82 C72 0.930 . S
H83 C73 0.930 . S
Eu84 N115 2.657 . S
Eu84 N122 2.609 . S
Eu84 O128 2.558 . S
Eu84 O129 2.612 . S
Eu84 O131 2.339 . S
Eu84 O132 2.563 . S
Eu84 O133 2.419 . S
Eu84 O135 2.380 . S
Eu84 O136 2.432 . S
Eu84 C148 2.848 . S
C85 C88 1.429 . S
C85 C89 1.411 . S
C85 N92 1.377 . S
C86 C88 1.420 . S
C86 C90 1.423 . S
C86 C98 1.392 . S
C87 C89 1.420 . S
C87 C90 1.351 . S
C87 H110 0.931 . S
C88 C85 1.429 . S
C88 C86 1.420 . S
C88 N96 1.362 . S
C89 C85 1.411 . S
C89 C87 1.420 . S
C89 C94 1.395 . S
C90 C86 1.423 . S
C90 C87 1.351 . S
C90 H102 0.930 . S
C91 C93 1.400 . S
C91 C94 1.386 . S
C91 H103 0.930 . S
N92 C85 1.377 . S
N92 C93 1.321 . S
N92 Eu95 2.609 . S
C93 C91 1.400 . S
C93 N92 1.321 . S
C93 H100 0.930 . S
C94 C89 1.395 . S
C94 C91 1.386 . S
C94 H113 0.930 . S
Eu95 N92 2.609 . S
Eu95 N96 2.657 . S
Eu95 O129 2.380 . S
Eu95 O130 2.432 . S
Eu95 O134 2.558 . S
Eu95 O135 2.612 . S
Eu95 O137 2.339 . S
Eu95 O138 2.563 . S
Eu95 O139 2.419 . S
Eu95 C159 2.848 . S
N96 C88 1.362 . S
N96 Eu95 2.657 . S
N96 C97 1.334 . S
C97 N96 1.334 . S
C97 C99 1.413 . S
C97 H104 0.929 . S
C98 C86 1.392 . S
C98 C99 1.367 . S
C98 H106 0.930 . S
C99 C97 1.413 . S
C99 C98 1.367 . S
C99 H101 0.930 1_554 S
H100 C93 0.930 . S
H101 C99 0.930 1_556 S
H102 C90 0.930 . S
H103 C91 0.930 . S
H104 C97 0.929 . S
H105 C119 0.930 . S
H106 C98 0.930 . S
H107 C125 0.930 . S
H108 C116 0.929 . S
H109 C123 0.930 . S
H110 C87 0.931 . S
H111 C117 0.930 . S
H112 C150 0.930 . S
H113 C94 0.930 . S
H114 C149 0.931 . S
N115 Eu84 2.657 . S
N115 C116 1.334 . S
N115 C120 1.362 . S
C116 H108 0.929 . S
C116 N115 1.334 . S
C116 C119 1.413 . S
C117 H111 0.930 . S
C117 C118 1.392 . S
C117 C119 1.367 . S
C118 C117 1.392 . S
C118 C120 1.420 . S
C118 C150 1.423 . S
C119 H105 0.930 . S
C119 C116 1.413 . S
C119 C117 1.367 . S
C120 N115 1.362 . S
C120 C118 1.420 . S
C120 C124 1.429 . S
H121 C126 0.930 . S
N122 Eu84 2.609 . S
N122 C124 1.377 . S
N122 C125 1.321 1_554 S
C123 H109 0.930 . S
C123 C125 1.400 . S
C123 C126 1.386 . S
C124 C120 1.429 . S
C124 N122 1.377 . S
C124 C127 1.411 . S
C125 H107 0.930 . S
C125 N122 1.321 1_556 S
C125 C123 1.400 . S
C126 H121 0.930 . S
C126 C123 1.386 . S
C126 C127 1.395 1_556 S
C127 C124 1.411 . S
C127 C126 1.395 1_554 S
C127 C149 1.420 . S
O128 Eu84 2.558 . S
O128 C148 1.257 . S
O129 Eu84 2.612 . S
O129 Eu95 2.380 . S
O129 C140 1.276 . S
O130 Eu95 2.432 . S
O130 C147 1.264 . S
O131 Eu84 2.339 . S
O131 C147 1.254 . S
O132 Eu84 2.563 . S
O132 C140 1.235 . S
O133 Eu84 2.419 . S
O133 C148 1.249 . S
O134 Eu95 2.558 . S
O134 C159 1.257 . S
O135 Eu84 2.380 . S
O135 Eu95 2.612 . S
O135 C151 1.276 . S
O136 Eu84 2.432 . S
O136 C158 1.264 . S
O137 Eu95 2.339 . S
O137 C158 1.254 . S
O138 Eu95 2.563 . S
O138 C151 1.235 . S
O139 Eu95 2.419 . S
O139 C159 1.249 . S
C140 O129 1.276 . S
C140 O132 1.235 . S
C141 C143 1.393 . S
C141 C145 1.395 . S
C141 C148 1.492 . S
C142 C143 1.392 . S
C142 C144 1.386 . S
C143 C141 1.393 . S
C143 C142 1.392 . S
C143 H160 0.930 . S
C144 C142 1.386 . S
C144 C146 1.395 . S
C144 H161 0.930 . S
C145 C141 1.395 . S
C145 C146 1.379 . S
C145 H162 0.930 . S
C146 C144 1.395 . S
C146 C145 1.379 . S
C146 H163 0.930 . S
C147 O130 1.264 . S
C147 O131 1.254 . S
C148 Eu84 2.848 . S
C148 O128 1.257 . S
C148 O133 1.249 . S
C148 C141 1.492 . S
C149 H114 0.931 . S
C149 C127 1.420 . S
C149 C150 1.351 . S
C150 H112 0.930 . S
C150 C118 1.423 . S
C150 C149 1.351 . S
C151 O135 1.276 . S
C151 O138 1.235 . S
C152 C153 1.393 . S
C152 C156 1.395 . S
C152 C159 1.492 . S
C153 C152 1.393 . S
C153 C154 1.392 . S
C153 H164 0.930 . S
C154 C153 1.392 . S
C154 C155 1.386 . S
C155 C154 1.386 . S
C155 C157 1.395 . S
C155 H165 0.930 . S
C156 C152 1.395 . S
C156 C157 1.379 . S
C156 H166 0.930 . S
C157 C155 1.395 . S
C157 C156 1.379 . S
C157 H167 0.930 . S
C158 O136 1.264 . S
C158 O137 1.254 . S
C159 Eu95 2.848 . S
C159 O134 1.257 . S
C159 O139 1.249 . S
C159 C152 1.492 . S
H160 C143 0.930 . S
H161 C144 0.930 . S
H162 C145 0.930 . S
H163 C146 0.930 . S
H164 C153 0.930 . S
H165 C155 0.930 . S
H166 C156 0.930 . S
H167 C157 0.930 . S
Eu168 N199 2.657 1_554 S
Eu168 N206 2.609 . S
Eu168 O212 2.558 . S
Eu168 O213 2.612 1_565 S
Eu168 O215 2.339 1_554 S
Eu168 O216 2.563 1_565 S
Eu168 O217 2.419 1_554 S
Eu168 O219 2.380 . S
Eu168 O220 2.432 1_565 S
Eu168 C232 2.848 1_554 S
C169 C172 1.429 1_556 S
C169 C173 1.411 . S
C169 N176 1.377 . S
C170 C172 1.420 . S
C170 C174 1.423 . S
C170 C182 1.392 . S
C171 C173 1.420 . S
C171 C174 1.351 1_556 S
C171 H194 0.931 . S
C172 C169 1.429 1_554 S
C172 C170 1.420 . S
C172 N180 1.362 . S
C173 C169 1.411 . S
C173 C171 1.420 . S
C173 C178 1.395 . S
C174 C170 1.423 . S
C174 C171 1.351 1_554 S
C174 H186 0.930 . S
C175 C177 1.400 . S
C175 C178 1.386 . S
C175 H187 0.930 . S
N176 C169 1.377 . S
N176 C177 1.321 . S
N176 Eu179 2.609 1_556 S
C177 C175 1.400 . S
C177 N176 1.321 . S
C177 H184 0.930 . S
C178 C173 1.395 . S
C178 C175 1.386 . S
C178 H197 0.930 . S
Eu179 N176 2.609 1_554 S
Eu179 N180 2.657 . S
Eu179 O213 2.380 . S
Eu179 O214 2.432 1_554 S
Eu179 O218 2.558 1_554 S
Eu179 O219 2.612 1_545 S
Eu179 O221 2.339 . S
Eu179 O222 2.563 1_554 S
Eu179 O223 2.419 . S
Eu179 C243 2.848 . S
N180 C172 1.362 . S
N180 Eu179 2.657 . S
N180 C181 1.334 . S
C181 N180 1.334 . S
C181 C183 1.413 . S
C181 H188 0.929 . S
C182 C170 1.392 . S
C182 C183 1.367 . S
C182 H190 0.930 . S
C183 C181 1.413 . S
C183 C182 1.367 . S
C183 H185 0.930 . S
H184 C177 0.930 . S
H185 C183 0.930 . S
H186 C174 0.930 . S
H187 C175 0.930 . S
H188 C181 0.929 . S
H189 C203 0.930 . S
H190 C182 0.930 . S
H191 C209 0.930 . S
H192 C200 0.929 . S
H193 C207 0.930 . S
H194 C171 0.931 . S
H195 C201 0.930 . S
H196 C234 0.930 . S
H197 C178 0.930 . S
H198 C233 0.931 . S
N199 Eu168 2.657 1_556 S
N199 C200 1.334 . S
N199 C204 1.362 . S
C200 H192 0.929 . S
C200 N199 1.334 . S
C200 C203 1.413 . S
C201 H195 0.930 . S
C201 C202 1.392 . S
C201 C203 1.367 . S
C202 C201 1.392 . S
C202 C204 1.420 . S
C202 C234 1.423 . S
C203 H189 0.930 . S
C203 C200 1.413 . S
C203 C201 1.367 . S
C204 N199 1.362 . S
C204 C202 1.420 . S
C204 C208 1.429 1_556 S
H205 C210 0.930 . S
N206 Eu168 2.609 . S
N206 C208 1.377 . S
N206 C209 1.321 . S
C207 H193 0.930 . S
C207 C209 1.400 . S
C207 C210 1.386 . S
C208 C204 1.429 1_554 S
C208 N206 1.377 . S
C208 C211 1.411 . S
C209 H191 0.930 . S
C209 N206 1.321 . S
C209 C207 1.400 . S
C210 H205 0.930 . S
C210 C207 1.386 . S
C210 C211 1.395 . S
C211 C208 1.411 . S
C211 C210 1.395 . S
C211 C233 1.420 . S
O212 Eu168 2.558 . S
O212 C232 1.257 1_554 S
O213 Eu168 2.612 1_545 S
O213 Eu179 2.380 . S
O213 C224 1.276 . S
O214 Eu179 2.432 1_556 S
O214 C231 1.264 . S
O215 Eu168 2.339 1_556 S
O215 C231 1.254 1_565 S
O216 Eu168 2.563 1_545 S
O216 C224 1.235 . S
O217 Eu168 2.419 1_556 S
O217 C232 1.249 . S
O218 Eu179 2.558 1_556 S
O218 C243 1.257 1_556 S
O219 Eu168 2.380 . S
O219 Eu179 2.612 1_565 S
O219 C235 1.276 . S
O220 Eu168 2.432 1_545 S
O220 C242 1.264 . S
O221 Eu179 2.339 . S
O221 C242 1.254 . S
O222 Eu179 2.563 1_556 S
O222 C235 1.235 1_546 S
O223 Eu179 2.419 . S
O223 C243 1.249 . S
C224 O213 1.276 . S
C224 O216 1.235 . S
C225 C227 1.393 . S
C225 C229 1.395 1_556 S
C225 C232 1.492 . S
C226 C227 1.392 . S
C226 C228 1.386 . S
C227 C225 1.393 . S
C227 C226 1.392 . S
C227 H244 0.930 . S
C228 C226 1.386 . S
C228 C230 1.395 1_556 S
C228 H245 0.930 . S
C229 C225 1.395 1_554 S
C229 C230 1.379 . S
C229 H246 0.930 . S
C230 C228 1.395 1_554 S
C230 C229 1.379 . S
C230 H247 0.930 . S
C231 O214 1.264 . S
C231 O215 1.254 1_545 S
C232 Eu168 2.848 1_556 S
C232 O212 1.257 1_556 S
C232 O217 1.249 . S
C232 C225 1.492 . S
C233 H198 0.931 . S
C233 C211 1.420 . S
C233 C234 1.351 1_554 S
C234 H196 0.930 . S
C234 C202 1.423 . S
C234 C233 1.351 1_556 S
C235 O219 1.276 . S
C235 O222 1.235 1_564 S
C236 C237 1.393 . S
C236 C240 1.395 1_554 S
C236 C243 1.492 . S
C237 C236 1.393 . S
C237 C238 1.392 . S
C237 H248 0.930 . S
C238 C237 1.392 . S
C238 C239 1.386 . S
C239 C238 1.386 . S
C239 C241 1.395 . S
C239 H249 0.930 . S
C240 C236 1.395 1_556 S
C240 C241 1.379 1_556 S
C240 H250 0.930 . S
C241 C239 1.395 . S
C241 C240 1.379 1_554 S
C241 H251 0.930 1_554 S
C242 O220 1.264 . S
C242 O221 1.254 . S
C243 Eu179 2.848 . S
C243 O218 1.257 1_554 S
C243 O223 1.249 . S
C243 C236 1.492 . S
H244 C227 0.930 . S
H245 C228 0.930 . S
H246 C229 0.930 . S
H247 C230 0.930 . S
H248 C237 0.930 . S
H249 C239 0.930 . S
H250 C240 0.930 . S
H251 C241 0.930 1_556 S
Eu252 N283 2.657 . S
Eu252 N290 2.609 . S
Eu252 O296 2.558 . S
Eu252 O297 2.612 . S
Eu252 O299 2.339 . S
Eu252 O300 2.563 . S
Eu252 O301 2.419 . S
Eu252 O303 2.380 . S
Eu252 O304 2.432 . S
Eu252 C316 2.848 . S
C253 C256 1.429 . S
C253 C257 1.411 . S
C253 N260 1.377 . S
C254 C256 1.420 . S
C254 C258 1.423 . S
C254 C266 1.392 . S
C255 C257 1.420 . S
C255 C258 1.351 . S
C255 H278 0.931 . S
C256 C253 1.429 . S
C256 C254 1.420 . S
C256 N264 1.362 . S
C257 C253 1.411 . S
C257 C255 1.420 . S
C257 C262 1.395 . S
C258 C254 1.423 . S
C258 C255 1.351 . S
C258 H270 0.930 . S
C259 C261 1.400 . S
C259 C262 1.386 . S
C259 H271 0.930 . S
N260 C253 1.377 . S
N260 C261 1.321 . S
N260 Eu263 2.609 . S
C261 C259 1.400 . S
C261 N260 1.321 . S
C261 H268 0.930 . S
C262 C257 1.395 . S
C262 C259 1.386 . S
C262 H281 0.930 . S
Eu263 N260 2.609 . S
Eu263 N264 2.657 . S
Eu263 O297 2.380 . S
Eu263 O298 2.432 . S
Eu263 O302 2.558 . S
Eu263 O303 2.612 . S
Eu263 O305 2.339 . S
Eu263 O306 2.563 . S
Eu263 O307 2.419 . S
Eu263 C327 2.848 . S
N264 C256 1.362 . S
N264 Eu263 2.657 . S
N264 C265 1.334 . S
C265 N264 1.334 . S
C265 C267 1.413 . S
C265 H272 0.929 . S
C266 C254 1.392 . S
C266 C267 1.367 . S
C266 H274 0.930 . S
C267 C265 1.413 . S
C267 C266 1.367 . S
C267 H269 0.930 . S
H268 C261 0.930 . S
H269 C267 0.930 . S
H270 C258 0.930 . S
H271 C259 0.930 . S
H272 C265 0.929 . S
H273 C287 0.930 . S
H274 C266 0.930 . S
H275 C293 0.930 . S
H276 C284 0.929 . S
H277 C291 0.930 . S
H278 C255 0.931 . S
H279 C285 0.930 . S
H280 C318 0.930 . S
H281 C262 0.930 . S
H282 C317 0.931 . S
N283 Eu252 2.657 . S
N283 C284 1.334 . S
N283 C288 1.362 . S
C284 H276 0.929 . S
C284 N283 1.334 . S
C284 C287 1.413 . S
C285 H279 0.930 . S
C285 C286 1.392 . S
C285 C287 1.367 . S
C286 C285 1.392 . S
C286 C288 1.420 . S
C286 C318 1.423 . S
C287 H273 0.930 . S
C287 C284 1.413 . S
C287 C285 1.367 . S
C288 N283 1.362 . S
C288 C286 1.420 . S
C288 C292 1.429 . S
H289 C294 0.930 . S
N290 Eu252 2.609 . S
N290 C292 1.377 . S
N290 C293 1.321 1_554 S
C291 H277 0.930 . S
C291 C293 1.400 . S
C291 C294 1.386 . S
C292 C288 1.429 . S
C292 N290 1.377 . S
C292 C295 1.411 1_554 S
C293 H275 0.930 . S
C293 N290 1.321 1_556 S
C293 C291 1.400 . S
C294 H289 0.930 . S
C294 C291 1.386 . S
C294 C295 1.395 . S
C295 C292 1.411 1_556 S
C295 C294 1.395 . S
C295 C317 1.420 . S
O296 Eu252 2.558 . S
O296 C316 1.257 . S
O297 Eu252 2.612 . S
O297 Eu263 2.380 . S
O297 C308 1.276 . S
O298 Eu263 2.432 . S
O298 C315 1.264 . S
O299 Eu252 2.339 . S
O299 C315 1.254 . S
O300 Eu252 2.563 . S
O300 C308 1.235 . S
O301 Eu252 2.419 . S
O301 C316 1.249 . S
O302 Eu263 2.558 . S
O302 C327 1.257 . S
O303 Eu252 2.380 . S
O303 Eu263 2.612 . S
O303 C319 1.276 . S
O304 Eu252 2.432 . S
O304 C326 1.264 1_554 S
O305 Eu263 2.339 . S
O305 C326 1.254 1_554 S
O306 Eu263 2.563 . S
O306 C319 1.235 . S
O307 Eu263 2.419 . S
O307 C327 1.249 . S
C308 O297 1.276 . S
C308 O300 1.235 . S
C309 C311 1.393 . S
C309 C313 1.395 . S
C309 C316 1.492 . S
C310 C311 1.392 . S
C310 C312 1.386 . S
C311 C309 1.393 . S
C311 C310 1.392 . S
C311 H328 0.930 . S
C312 C310 1.386 . S
C312 C314 1.395 . S
C312 H329 0.930 . S
C313 C309 1.395 . S
C313 C314 1.379 . S
C313 H330 0.930 . S
C314 C312 1.395 . S
C314 C313 1.379 . S
C314 H331 0.930 . S
C315 O298 1.264 . S
C315 O299 1.254 . S
C316 Eu252 2.848 . S
C316 O296 1.257 . S
C316 O301 1.249 . S
C316 C309 1.492 . S
C317 H282 0.931 . S
C317 C295 1.420 . S
C317 C318 1.351 1_556 S
C318 H280 0.930 . S
C318 C286 1.423 . S
C318 C317 1.351 1_554 S
C319 O303 1.276 . S
C319 O306 1.235 . S
C320 C321 1.393 . S
C320 C324 1.395 . S
C320 C327 1.492 . S
C321 C320 1.393 . S
C321 C322 1.392 . S
C321 H332 0.930 . S
C322 C321 1.392 . S
C322 C323 1.386 . S
C323 C322 1.386 . S
C323 C325 1.395 . S
C323 H333 0.930 . S
C324 C320 1.395 . S
C324 C325 1.379 . S
C324 H334 0.930 . S
C325 C323 1.395 . S
C325 C324 1.379 . S
C325 H335 0.930 . S
C326 O304 1.264 1_556 S
C326 O305 1.254 1_556 S
C327 Eu263 2.848 . S
C327 O302 1.257 . S
C327 O307 1.249 . S
C327 C320 1.492 . S
H328 C311 0.930 . S
H329 C312 0.930 . S
H330 C313 0.930 . S
H331 C314 0.930 . S
H332 C321 0.930 . S
H333 C323 0.930 . S
H334 C324 0.930 . S
H335 C325 0.930 . S
Eu336 N367 2.657 1_556 S
Eu336 N374 2.609 . S
Eu336 O380 2.558 . S
Eu336 O381 2.612 1_556 S
Eu336 O383 2.339 1_556 S
Eu336 O384 2.563 . S
Eu336 O385 2.419 1_556 S
Eu336 O387 2.380 1_556 S
Eu336 O388 2.432 . S
Eu336 C400 2.851 . S
C337 C340 1.429 1_554 S
C337 C341 1.411 . S
C337 N344 1.377 . S
C338 C340 1.420 . S
C338 C342 1.423 . S
C338 C350 1.392 . S
C339 C341 1.420 . S
C339 C342 1.351 1_554 S
C339 H362 0.931 . S
C340 C337 1.429 1_556 S
C340 C338 1.420 . S
C340 N348 1.362 . S
C341 C337 1.411 . S
C341 C339 1.420 . S
C341 C346 1.395 . S
C342 C338 1.423 . S
C342 C339 1.351 1_556 S
C342 H354 0.930 . S
C343 C345 1.400 . S
C343 C346 1.386 . S
C343 H355 0.930 . S
N344 C337 1.377 . S
N344 C345 1.321 . S
N344 Eu347 2.609 . S
C345 C343 1.400 . S
C345 N344 1.321 . S
C345 H352 0.930 . S
C346 C341 1.395 . S
C346 C343 1.386 . S
C346 H365 0.930 . S
Eu347 N344 2.609 . S
Eu347 N348 2.657 1_554 S
Eu347 O381 2.380 . S
Eu347 O382 2.432 . S
Eu347 O386 2.558 . S
Eu347 O387 2.612 . S
Eu347 O389 2.339 1_554 S
Eu347 O390 2.563 . S
Eu347 O391 2.419 1_554 S
Eu347 C411 2.848 . S
N348 C340 1.362 . S
N348 Eu347 2.657 1_556 S
N348 C349 1.334 . S
C349 N348 1.334 . S
C349 C351 1.413 . S
C349 H356 0.929 . S
C350 C338 1.392 . S
C350 C351 1.367 . S
C350 H358 0.930 . S
C351 C349 1.413 . S
C351 C350 1.367 . S
C351 H353 0.930 . S
H352 C345 0.930 . S
H353 C351 0.930 . S
H354 C342 0.930 . S
H355 C343 0.930 . S
H356 C349 0.929 . S
H357 C371 0.930 . S
H358 C350 0.930 . S
H359 C377 0.930 . S
H360 C368 0.929 . S
H361 C375 0.930 . S
H362 C339 0.931 . S
H363 C369 0.930 . S
H364 C402 0.930 . S
H365 C346 0.930 . S
H366 C401 0.931 . S
N367 Eu336 2.657 1_554 S
N367 C368 1.334 . S
N367 C372 1.362 . S
C368 H360 0.929 . S
C368 N367 1.334 . S
C368 C371 1.413 . S
C369 H363 0.930 . S
C369 C370 1.392 . S
C369 C371 1.367 . S
C370 C369 1.392 . S
C370 C372 1.420 . S
C370 C402 1.423 . S
C371 H357 0.930 . S
C371 C368 1.413 . S
C371 C369 1.367 . S
C372 N367 1.362 . S
C372 C370 1.420 . S
C372 C376 1.429 1_554 S
H373 C378 0.930 . S
N374 Eu336 2.609 . S
N374 C376 1.377 . S
N374 C377 1.321 . S
C375 H361 0.930 . S
C375 C377 1.400 . S
C375 C378 1.386 . S
C376 C372 1.429 1_556 S
C376 N374 1.377 . S
C376 C379 1.411 . S
C377 H359 0.930 . S
C377 N374 1.321 . S
C377 C375 1.400 . S
C378 H373 0.930 . S
C378 C375 1.386 . S
C378 C379 1.395 . S
C379 C376 1.411 . S
C379 C378 1.395 . S
C379 C401 1.420 . S
O380 Eu336 2.558 . S
O380 C400 1.270 . S
O381 Eu336 2.612 1_554 S
O381 Eu347 2.380 . S
O381 C392 1.276 . S
O382 Eu347 2.432 . S
O382 C399 1.264 . S
O383 Eu336 2.339 1_554 S
O383 C399 1.254 . S
O384 Eu336 2.563 . S
O384 C392 1.235 1_556 S
O385 Eu336 2.419 1_554 S
O385 C400 1.240 1_554 S
O386 Eu347 2.558 . S
O386 C411 1.257 . S
O387 Eu336 2.380 1_554 S
O387 Eu347 2.612 . S
O387 C403 1.276 . S
O388 Eu336 2.432 . S
O388 C410 1.264 . S
O389 Eu347 2.339 1_556 S
O389 C410 1.254 . S
O390 Eu347 2.563 . S
O390 C403 1.235 . S
O391 Eu347 2.419 1_556 S
O391 C411 1.249 1_556 S
C392 O381 1.276 . S
C392 O384 1.235 1_554 S
C393 C395 1.393 . S
C393 C397 1.395 1_554 S
C393 C400 1.488 1_554 S
C394 C395 1.392 . S
C394 C396 1.386 . S
C395 C393 1.393 . S
C395 C394 1.392 . S
C395 H412 0.930 . S
C396 C394 1.386 . S
C396 C398 1.395 1_554 S
C396 H413 0.930 . S
C397 C393 1.395 1_556 S
C397 C398 1.379 . S
C397 H414 0.930 . S
C398 C396 1.395 1_556 S
C398 C397 1.379 . S
C398 H415 0.930 . S
C399 O382 1.264 . S
C399 O383 1.254 . S
C400 Eu336 2.851 . S
C400 O380 1.270 . S
C400 O385 1.240 1_556 S
C400 C393 1.488 1_556 S
C401 H366 0.931 . S
C401 C379 1.420 . S
C401 C402 1.351 1_556 S
C402 H364 0.930 . S
C402 C370 1.423 . S
C402 C401 1.351 1_554 S
C403 O387 1.276 . S
C403 O390 1.235 . S
C404 C405 1.393 1_554 S
C404 C408 1.395 . S
C404 C411 1.492 . S
C405 C404 1.393 1_556 S
C405 C406 1.392 . S
C405 H416 0.930 . S
C406 C405 1.392 . S
C406 C407 1.386 1_556 S
C407 C406 1.386 1_554 S
C407 C409 1.395 . S
C407 H417 0.930 . S
C408 C404 1.395 . S
C408 C409 1.379 . S
C408 H418 0.930 . S
C409 C407 1.395 . S
C409 C408 1.379 . S
C409 H419 0.930 . S
C410 O388 1.264 . S
C410 O389 1.254 . S
C411 Eu347 2.848 . S
C411 O386 1.257 . S
C411 O391 1.249 1_554 S
C411 C404 1.492 . S
H412 C395 0.930 . S
H413 C396 0.930 . S
H414 C397 0.930 . S
H415 C398 0.930 . S
H416 C405 0.930 . S
H417 C407 0.930 . S
H418 C408 0.930 . S
H419 C409 0.930 . S
Eu420 N451 2.657 . S
Eu420 N458 2.609 . S
Eu420 O464 2.558 . S
Eu420 O465 2.612 . S
Eu420 O467 2.339 . S
Eu420 O468 2.563 . S
Eu420 O469 2.419 . S
Eu420 O471 2.380 . S
Eu420 O472 2.432 . S
Eu420 C484 2.848 . S
C421 C424 1.429 . S
C421 C425 1.411 . S
C421 N428 1.377 . S
C422 C424 1.420 . S
C422 C426 1.423 . S
C422 C434 1.392 . S
C423 C425 1.420 . S
C423 C426 1.351 . S
C423 H446 0.931 . S
C424 C421 1.429 . S
C424 C422 1.420 . S
C424 N432 1.362 . S
C425 C421 1.411 . S
C425 C423 1.420 . S
C425 C430 1.395 . S
C426 C422 1.423 . S
C426 C423 1.351 . S
C426 H438 0.930 . S
C427 C429 1.400 . S
C427 C430 1.386 . S
C427 H439 0.930 . S
N428 C421 1.377 . S
N428 C429 1.321 . S
N428 Eu431 2.609 . S
C429 C427 1.400 . S
C429 N428 1.321 . S
C429 H436 0.930 . S
C430 C425 1.395 . S
C430 C427 1.386 . S
C430 H449 0.930 . S
Eu431 N428 2.609 . S
Eu431 N432 2.657 . S
Eu431 O465 2.380 . S
Eu431 O466 2.432 . S
Eu431 O470 2.558 . S
Eu431 O471 2.612 . S
Eu431 O473 2.339 . S
Eu431 O474 2.563 . S
Eu431 O475 2.419 . S
Eu431 C495 2.848 . S
N432 C424 1.362 . S
N432 Eu431 2.657 . S
N432 C433 1.334 . S
C433 N432 1.334 . S
C433 C435 1.413 1_554 S
C433 H440 0.929 . S
C434 C422 1.392 . S
C434 C435 1.367 1_554 S
C434 H442 0.930 1_554 S
C435 C433 1.413 1_556 S
C435 C434 1.367 1_556 S
C435 H437 0.930 . S
H436 C429 0.930 . S
H437 C435 0.930 . S
H438 C426 0.930 . S
H439 C427 0.930 . S
H440 C433 0.929 . S
H441 C455 0.930 . S
H442 C434 0.930 1_556 S
H443 C461 0.930 . S
H444 C452 0.929 . S
H445 C459 0.930 1_556 S
H446 C423 0.931 . S
H447 C453 0.930 . S
H448 C486 0.930 . S
H449 C430 0.930 . S
H450 C485 0.931 . S
N451 Eu420 2.657 . S
N451 C452 1.334 . S
N451 C456 1.362 . S
C452 H444 0.929 . S
C452 N451 1.334 . S
C452 C455 1.413 . S
C453 H447 0.930 . S
C453 C454 1.392 . S
C453 C455 1.367 . S
C454 C453 1.392 . S
C454 C456 1.420 . S
C454 C486 1.423 . S
C455 H441 0.930 . S
C455 C452 1.413 . S
C455 C453 1.367 . S
C456 N451 1.362 . S
C456 C454 1.420 . S
C456 C460 1.429 . S
H457 C462 0.930 . S
N458 Eu420 2.609 . S
N458 C460 1.377 . S
N458 C461 1.321 . S
C459 H445 0.930 1_554 S
C459 C461 1.400 . S
C459 C462 1.386 . S
C460 C456 1.429 . S
C460 N458 1.377 . S
C460 C463 1.411 . S
C461 H443 0.930 . S
C461 N458 1.321 . S
C461 C459 1.400 . S
C462 H457 0.930 . S
C462 C459 1.386 . S
C462 C463 1.395 . S
C463 C460 1.411 . S
C463 C462 1.395 . S
C463 C485 1.420 . S
O464 Eu420 2.558 . S
O464 C484 1.257 . S
O465 Eu420 2.612 . S
O465 Eu431 2.380 . S
O465 C476 1.276 . S
O466 Eu431 2.432 . S
O466 C483 1.264 . S
O467 Eu420 2.339 . S
O467 C483 1.254 . S
O468 Eu420 2.563 . S
O468 C476 1.235 . S
O469 Eu420 2.419 . S
O469 C484 1.249 . S
O470 Eu431 2.558 . S
O470 C495 1.257 . S
O471 Eu420 2.380 . S
O471 Eu431 2.612 . S
O471 C487 1.276 . S
O472 Eu420 2.432 . S
O472 C494 1.264 . S
O473 Eu431 2.339 . S
O473 C494 1.254 . S
O474 Eu431 2.563 . S
O474 C487 1.235 . S
O475 Eu431 2.419 . S
O475 C495 1.249 . S
C476 O465 1.276 . S
C476 O468 1.235 . S
C477 C479 1.393 . S
C477 C481 1.422 . S
C477 C484 1.492 . S
C478 C479 1.392 1_455 S
C478 C480 1.386 . S
C479 C477 1.393 . S
C479 C478 1.392 1_655 S
C479 H496 0.930 . S
C480 C478 1.386 . S
C480 C482 1.395 . S
C480 H497 0.930 . S
C481 C477 1.422 . S
C481 C482 1.335 1_655 S
C481 H498 0.950 . S
C482 C480 1.395 . S
C482 C481 1.335 1_455 S
C482 H499 0.930 . S
C483 O466 1.264 . S
C483 O467 1.254 . S
C484 Eu420 2.848 . S
C484 O464 1.257 . S
C484 O469 1.249 . S
C484 C477 1.492 . S
C485 H450 0.931 . S
C485 C463 1.420 . S
C485 C486 1.351 . S
C486 H448 0.930 . S
C486 C454 1.423 . S
C486 C485 1.351 . S
C487 O471 1.276 . S
C487 O474 1.235 . S
C488 C489 1.393 . S
C488 C492 1.395 . S
C488 C495 1.492 . S
C489 C488 1.393 . S
C489 C490 1.392 1_554 S
C489 H500 0.930 1_554 S
C490 C489 1.392 1_556 S
C490 C491 1.386 1_556 S
C491 C490 1.386 1_554 S
C491 C493 1.395 . S
C491 H501 0.930 1_554 S
C492 C488 1.395 . S
C492 C493 1.379 . S
C492 H502 0.930 . S
C493 C491 1.395 . S
C493 C492 1.379 . S
C493 H503 0.930 . S
C494 O472 1.264 . S
C494 O473 1.254 . S
C495 Eu431 2.848 . S
C495 O470 1.257 . S
C495 O475 1.249 . S
C495 C488 1.492 . S
H496 C479 0.930 . S
H497 C480 0.930 . S
H498 C481 0.950 . S
H499 C482 0.930 . S
H500 C489 0.930 1_556 S
H501 C491 0.930 1_556 S
H502 C492 0.930 . S
H503 C493 0.930 . S
Eu504 N535 2.657 . S
Eu504 N542 2.609 . S
Eu504 O548 2.558 . S
Eu504 O549 2.612 . S
Eu504 O551 2.339 . S
Eu504 O552 2.563 . S
Eu504 O553 2.419 . S
Eu504 O555 2.380 . S
Eu504 O556 2.432 . S
Eu504 C568 2.848 . S
C505 C508 1.429 . S
C505 C509 1.411 . S
C505 N512 1.377 . S
C506 C508 1.420 . S
C506 C510 1.423 . S
C506 C518 1.392 . S
C507 C509 1.420 . S
C507 C510 1.351 . S
C507 H530 0.931 . S
C508 C505 1.429 . S
C508 C506 1.420 . S
C508 N516 1.362 . S
C509 C505 1.411 . S
C509 C507 1.420 . S
C509 C514 1.395 . S
C510 C506 1.423 . S
C510 C507 1.351 . S
C510 H522 0.930 . S
C511 C513 1.400 . S
C511 C514 1.386 . S
C511 H523 0.930 . S
N512 C505 1.377 . S
N512 C513 1.321 . S
N512 Eu515 2.609 . S
C513 C511 1.400 . S
C513 N512 1.321 . S
C513 H520 0.930 . S
C514 C509 1.395 . S
C514 C511 1.386 . S
C514 H533 0.930 . S
Eu515 N512 2.609 . S
Eu515 N516 2.657 . S
Eu515 O549 2.380 . S
Eu515 O550 2.432 . S
Eu515 O554 2.558 . S
Eu515 O555 2.612 . S
Eu515 O557 2.339 . S
Eu515 O558 2.563 . S
Eu515 O559 2.419 . S
Eu515 C579 2.848 . S
N516 C508 1.362 . S
N516 Eu515 2.657 . S
N516 C517 1.334 . S
C517 N516 1.334 . S
C517 C519 1.413 . S
C517 H524 0.929 . S
C518 C506 1.392 . S
C518 C519 1.367 . S
C518 H526 0.930 . S
C519 C517 1.413 . S
C519 C518 1.367 . S
C519 H521 0.930 . S
H520 C513 0.930 . S
H521 C519 0.930 . S
H522 C510 0.930 . S
H523 C511 0.930 . S
H524 C517 0.929 . S
H525 C539 0.930 . S
H526 C518 0.930 . S
H527 C545 0.930 . S
H528 C536 0.929 . S
H529 C543 0.930 . S
H530 C507 0.931 . S
H531 C537 0.930 . S
H532 C570 0.930 . S
H533 C514 0.930 . S
H534 C569 0.931 . S
N535 Eu504 2.657 . S
N535 C536 1.334 . S
N535 C540 1.362 . S
C536 H528 0.929 . S
C536 N535 1.334 . S
C536 C539 1.413 . S
C537 H531 0.930 . S
C537 C538 1.392 . S
C537 C539 1.367 . S
C538 C537 1.392 . S
C538 C540 1.420 . S
C538 C570 1.423 . S
C539 H525 0.930 . S
C539 C536 1.413 . S
C539 C537 1.367 . S
C540 N535 1.362 . S
C540 C538 1.420 . S
C540 C544 1.429 . S
H541 C546 0.930 1_554 S
N542 Eu504 2.609 . S
N542 C544 1.377 . S
N542 C545 1.321 . S
C543 H529 0.930 . S
C543 C545 1.400 1_554 S
C543 C546 1.386 1_554 S
C544 C540 1.429 . S
C544 N542 1.377 . S
C544 C547 1.411 . S
C545 H527 0.930 . S
C545 N542 1.321 . S
C545 C543 1.400 1_556 S
C546 H541 0.930 1_556 S
C546 C543 1.386 1_556 S
C546 C547 1.395 . S
C547 C544 1.411 . S
C547 C546 1.395 . S
C547 C569 1.420 . S
O548 Eu504 2.558 . S
O548 C568 1.257 . S
O549 Eu504 2.612 . S
O549 Eu515 2.380 . S
O549 C560 1.276 . S
O550 Eu515 2.432 . S
O550 C567 1.264 . S
O551 Eu504 2.339 . S
O551 C567 1.254 . S
O552 Eu504 2.563 . S
O552 C560 1.235 . S
O553 Eu504 2.419 . S
O553 C568 1.249 . S
O554 Eu515 2.558 . S
O554 C579 1.257 . S
O555 Eu504 2.380 . S
O555 Eu515 2.612 . S
O555 C571 1.276 . S
O556 Eu504 2.432 . S
O556 C578 1.264 . S
O557 Eu515 2.339 . S
O557 C578 1.254 . S
O558 Eu515 2.563 . S
O558 C571 1.235 . S
O559 Eu515 2.419 . S
O559 C579 1.249 . S
C560 O549 1.276 . S
C560 O552 1.235 . S
C561 C563 1.393 . S
C561 C565 1.395 . S
C561 C568 1.492 . S
C562 C563 1.392 . S
C562 C564 1.386 . S
C563 C561 1.393 . S
C563 C562 1.392 . S
C563 H580 0.930 . S
C564 C562 1.386 . S
C564 C566 1.395 . S
C564 H581 0.930 1_565 S
C565 C561 1.395 . S
C565 C566 1.379 . S
C565 H582 0.930 . S
C566 C564 1.395 . S
C566 C565 1.379 . S
C566 H583 0.930 . S
C567 O550 1.264 . S
C567 O551 1.254 . S
C568 Eu504 2.848 . S
C568 O548 1.257 . S
C568 O553 1.249 . S
C568 C561 1.492 . S
C569 H534 0.931 . S
C569 C547 1.420 . S
C569 C570 1.351 . S
C570 H532 0.930 . S
C570 C538 1.423 . S
C570 C569 1.351 . S
C571 O555 1.276 . S
C571 O558 1.235 . S
C572 C573 1.393 . S
C572 C576 1.395 . S
C572 C579 1.492 . S
C573 C572 1.393 . S
C573 C574 1.392 . S
C573 H584 0.930 . S
C574 C573 1.392 . S
C574 C575 1.386 . S
C575 C574 1.386 . S
C575 C577 1.395 . S
C575 H585 0.930 . S
C576 C572 1.395 . S
C576 C577 1.379 . S
C576 H586 0.930 . S
C577 C575 1.395 . S
C577 C576 1.379 . S
C577 H587 0.930 . S
C578 O556 1.264 . S
C578 O557 1.254 . S
C579 Eu515 2.848 . S
C579 O554 1.257 . S
C579 O559 1.249 . S
C579 C572 1.492 . S
H580 C563 0.930 . S
H581 C564 0.930 1_545 S
H582 C565 0.930 . S
H583 C566 0.930 . S
H584 C573 0.930 . S
H585 C575 0.930 . S
H586 C576 0.930 . S
H587 C577 0.930 . S
Eu588 N619 2.657 . S
Eu588 N626 2.609 . S
Eu588 O632 2.558 . S
Eu588 O633 2.612 . S
Eu588 O635 2.339 . S
Eu588 O636 2.563 . S
Eu588 O637 2.419 . S
Eu588 O639 2.380 . S
Eu588 O640 2.432 . S
Eu588 C652 2.848 . S
C589 C592 1.429 . S
C589 C593 1.411 . S
C589 N596 1.377 . S
C590 C592 1.420 . S
C590 C594 1.423 . S
C590 C602 1.392 . S
C591 C593 1.420 . S
C591 C594 1.351 . S
C591 H614 0.931 . S
C592 C589 1.429 . S
C592 C590 1.420 . S
C592 N600 1.362 . S
C593 C589 1.411 . S
C593 C591 1.420 . S
C593 C598 1.395 1_556 S
C594 C590 1.423 . S
C594 C591 1.351 . S
C594 H606 0.930 . S
C595 C597 1.400 . S
C595 C598 1.386 . S
C595 H607 0.930 . S
N596 C589 1.377 . S
N596 C597 1.321 1_556 S
N596 Eu599 2.609 . S
C597 C595 1.400 . S
C597 N596 1.321 1_554 S
C597 H604 0.930 . S
C598 C593 1.395 1_554 S
C598 C595 1.386 . S
C598 H617 0.930 . S
Eu599 N596 2.609 . S
Eu599 N600 2.657 . S
Eu599 O633 2.380 . S
Eu599 O634 2.432 1_556 S
Eu599 O638 2.558 . S
Eu599 O639 2.612 . S
Eu599 O641 2.339 . S
Eu599 O642 2.563 . S
Eu599 O643 2.419 . S
Eu599 C663 2.848 . S
N600 C592 1.362 . S
N600 Eu599 2.657 . S
N600 C601 1.334 . S
C601 N600 1.334 . S
C601 C603 1.413 . S
C601 H608 0.929 . S
C602 C590 1.392 . S
C602 C603 1.367 . S
C602 H610 0.930 . S
C603 C601 1.413 . S
C603 C602 1.367 . S
C603 H605 0.930 . S
H604 C597 0.930 . S
H605 C603 0.930 . S
H606 C594 0.930 . S
H607 C595 0.930 . S
H608 C601 0.929 . S
H609 C623 0.930 . S
H610 C602 0.930 . S
H611 C629 0.930 . S
H612 C620 0.929 . S
H613 C627 0.930 . S
H614 C591 0.931 . S
H615 C621 0.930 . S
H616 C654 0.930 . S
H617 C598 0.930 . S
H618 C653 0.931 . S
N619 Eu588 2.657 . S
N619 C620 1.334 1_556 S
N619 C624 1.362 . S
C620 H612 0.929 . S
C620 N619 1.334 1_554 S
C620 C623 1.413 . S
C621 H615 0.930 . S
C621 C622 1.392 1_554 S
C621 C623 1.367 . S
C622 C621 1.392 1_556 S
C622 C624 1.420 . S
C622 C654 1.423 . S
C623 H609 0.930 . S
C623 C620 1.413 . S
C623 C621 1.367 . S
C624 N619 1.362 . S
C624 C622 1.420 . S
C624 C628 1.429 . S
H625 C630 0.930 . S
N626 Eu588 2.609 . S
N626 C628 1.377 . S
N626 C629 1.321 . S
C627 H613 0.930 . S
C627 C629 1.400 . S
C627 C630 1.386 . S
C628 C624 1.429 . S
C628 N626 1.377 . S
C628 C631 1.411 . S
C629 H611 0.930 . S
C629 N626 1.321 . S
C629 C627 1.400 . S
C630 H625 0.930 . S
C630 C627 1.386 . S
C630 C631 1.395 . S
C631 C628 1.411 . S
C631 C630 1.395 . S
C631 C653 1.420 . S
O632 Eu588 2.558 . S
O632 C652 1.257 . S
O633 Eu588 2.612 . S
O633 Eu599 2.380 . S
O633 C644 1.276 . S
O634 Eu599 2.432 1_554 S
O634 C651 1.264 . S
O635 Eu588 2.339 . S
O635 C651 1.254 1_556 S
O636 Eu588 2.563 . S
O636 C644 1.235 . S
O637 Eu588 2.419 . S
O637 C652 1.249 . S
O638 Eu599 2.558 . S
O638 C663 1.257 . S
O639 Eu588 2.380 . S
O639 Eu599 2.612 . S
O639 C655 1.276 . S
O640 Eu588 2.432 . S
O640 C662 1.264 . S
O641 Eu599 2.339 . S
O641 C662 1.254 . S
O642 Eu599 2.563 . S
O642 C655 1.235 . S
O643 Eu599 2.419 . S
O643 C663 1.249 . S
C644 O633 1.276 . S
C644 O636 1.235 . S
C645 C647 1.393 . S
C645 C649 1.395 . S
C645 C652 1.492 . S
C646 C647 1.392 . S
C646 C648 1.386 . S
C647 C645 1.393 . S
C647 C646 1.392 . S
C647 H664 0.930 . S
C648 C646 1.386 . S
C648 C650 1.395 . S
C648 H665 0.930 . S
C649 C645 1.395 . S
C649 C650 1.379 . S
C649 H666 0.930 . S
C650 C648 1.395 . S
C650 C649 1.379 . S
C650 H667 0.930 . S
C651 O634 1.264 . S
C651 O635 1.254 1_554 S
C652 Eu588 2.848 . S
C652 O632 1.257 . S
C652 O637 1.249 . S
C652 C645 1.492 . S
C653 H618 0.931 . S
C653 C631 1.420 . S
C653 C654 1.351 . S
C654 H616 0.930 . S
C654 C622 1.423 . S
C654 C653 1.351 . S
C655 O639 1.276 . S
C655 O642 1.235 . S
C656 C657 1.393 . S
C656 C660 1.395 . S
C656 C663 1.492 . S
C657 C656 1.393 . S
C657 C658 1.392 . S
C657 H668 0.930 . S
C658 C657 1.392 . S
C658 C659 1.386 . S
C659 C658 1.386 . S
C659 C661 1.395 . S
C659 H669 0.930 . S
C660 C656 1.395 . S
C660 C661 1.379 . S
C660 H670 0.930 1_556 S
C661 C659 1.395 . S
C661 C660 1.379 . S
C661 H671 0.929 1_556 S
C662 O640 1.264 . S
C662 O641 1.254 . S
C663 Eu599 2.848 . S
C663 O638 1.257 . S
C663 O643 1.249 . S
C663 C656 1.492 . S
H664 C647 0.930 . S
H665 C648 0.930 . S
H666 C649 0.930 . S
H667 C650 0.930 . S
H668 C657 0.930 . S
H669 C659 0.930 . S
H670 C660 0.930 1_554 S
H671 C661 0.929 1_554 S
Eu672 N703 2.657 . S
Eu672 N710 2.609 . S
Eu672 O716 2.558 . S
Eu672 O717 2.612 . S
Eu672 O719 2.339 . S
Eu672 O720 2.563 . S
Eu672 O721 2.419 . S
Eu672 O723 2.380 . S
Eu672 O724 2.432 1_556 S
Eu672 C736 2.848 . S
C673 C676 1.429 . S
C673 C677 1.411 . S
C673 N680 1.377 . S
C674 C676 1.420 . S
C674 C678 1.423 . S
C674 C686 1.392 1_556 S
C675 C677 1.420 . S
C675 C678 1.351 . S
C675 H698 0.931 . S
C676 C673 1.429 . S
C676 C674 1.420 . S
C676 N684 1.362 . S
C677 C673 1.411 . S
C677 C675 1.420 . S
C677 C682 1.395 . S
C678 C674 1.423 . S
C678 C675 1.351 . S
C678 H690 0.930 . S
C679 C681 1.400 . S
C679 C682 1.386 . S
C679 H691 0.930 . S
N680 C673 1.377 . S
N680 C681 1.321 . S
N680 Eu683 2.609 . S
C681 C679 1.400 . S
C681 N680 1.321 . S
C681 H688 0.930 . S
C682 C677 1.395 . S
C682 C679 1.386 . S
C682 H701 0.930 . S
Eu683 N680 2.609 . S
Eu683 N684 2.657 . S
Eu683 O717 2.380 . S
Eu683 O718 2.432 . S
Eu683 O722 2.558 . S
Eu683 O723 2.612 . S
Eu683 O725 2.339 1_556 S
Eu683 O726 2.563 . S
Eu683 O727 2.419 . S
Eu683 C747 2.848 . S
N684 C676 1.362 . S
N684 Eu683 2.657 . S
N684 C685 1.334 1_556 S
C685 N684 1.334 1_554 S
C685 C687 1.413 . S
C685 H692 0.929 . S
C686 C674 1.392 1_554 S
C686 C687 1.367 . S
C686 H694 0.930 . S
C687 C685 1.413 . S
C687 C686 1.367 . S
C687 H689 0.930 . S
H688 C681 0.930 . S
H689 C687 0.930 . S
H690 C678 0.930 . S
H691 C679 0.930 . S
H692 C685 0.929 . S
H693 C707 0.930 . S
H694 C686 0.930 . S
H695 C713 0.930 . S
H696 C704 0.929 . S
H697 C711 0.930 . S
H698 C675 0.931 . S
H699 C705 0.930 . S
H700 C738 0.930 . S
H701 C682 0.930 . S
H702 C737 0.931 . S
N703 Eu672 2.657 . S
N703 C704 1.334 . S
N703 C708 1.362 . S
C704 H696 0.929 . S
C704 N703 1.334 . S
C704 C707 1.413 . S
C705 H699 0.930 . S
C705 C706 1.392 . S
C705 C707 1.367 . S
C706 C705 1.392 . S
C706 C708 1.420 . S
C706 C738 1.423 . S
C707 H693 0.930 . S
C707 C704 1.413 . S
C707 C705 1.367 . S
C708 N703 1.362 . S
C708 C706 1.420 . S
C708 C712 1.429 . S
H709 C714 0.930 1_554 S
N710 Eu672 2.609 . S
N710 C712 1.377 . S
N710 C713 1.321 1_556 S
C711 H697 0.930 . S
C711 C713 1.400 . S
C711 C714 1.386 1_554 S
C712 C708 1.429 . S
C712 N710 1.377 . S
C712 C715 1.411 . S
C713 H695 0.930 . S
C713 N710 1.321 1_554 S
C713 C711 1.400 . S
C714 H709 0.930 1_556 S
C714 C711 1.386 1_556 S
C714 C715 1.395 . S
C715 C712 1.411 . S
C715 C714 1.395 . S
C715 C737 1.420 . S
O716 Eu672 2.558 . S
O716 C736 1.257 . S
O717 Eu672 2.612 . S
O717 Eu683 2.380 . S
O717 C728 1.276 . S
O718 Eu683 2.432 . S
O718 C735 1.264 . S
O719 Eu672 2.339 . S
O719 C735 1.254 . S
O720 Eu672 2.563 . S
O720 C728 1.235 . S
O721 Eu672 2.419 . S
O721 C736 1.249 . S
O722 Eu683 2.558 . S
O722 C747 1.257 . S
O723 Eu672 2.380 . S
O723 Eu683 2.612 . S
O723 C739 1.276 . S
O724 Eu672 2.432 1_554 S
O724 C746 1.264 . S
O725 Eu683 2.339 1_554 S
O725 C746 1.254 . S
O726 Eu683 2.563 . S
O726 C739 1.235 . S
O727 Eu683 2.419 . S
O727 C747 1.249 . S
C728 O717 1.276 . S
C728 O720 1.235 . S
C729 C731 1.393 . S
C729 C733 1.395 . S
C729 C736 1.492 . S
C730 C731 1.392 . S
C730 C732 1.386 . S
C731 C729 1.393 . S
C731 C730 1.392 . S
C731 H748 0.930 . S
C732 C730 1.386 . S
C732 C734 1.395 . S
C732 H749 0.930 . S
C733 C729 1.395 . S
C733 C734 1.379 . S
C733 H750 0.930 . S
C734 C732 1.395 . S
C734 C733 1.379 . S
C734 H751 0.930 . S
C735 O718 1.264 . S
C735 O719 1.254 . S
C736 Eu672 2.848 . S
C736 O716 1.257 . S
C736 O721 1.249 . S
C736 C729 1.492 . S
C737 H702 0.931 . S
C737 C715 1.420 . S
C737 C738 1.351 . S
C738 H700 0.930 . S
C738 C706 1.423 . S
C738 C737 1.351 . S
C739 O723 1.276 . S
C739 O726 1.235 . S
C740 C741 1.393 . S
C740 C744 1.395 . S
C740 C747 1.492 . S
C741 C740 1.393 . S
C741 C742 1.393 . S
C741 H752 0.930 1_556 S
C742 C741 1.393 . S
C742 C743 1.386 . S
C743 C742 1.386 . S
C743 C745 1.395 . S
C743 H753 0.930 . S
C744 C740 1.395 . S
C744 C745 1.379 . S
C744 H754 0.930 . S
C745 C743 1.395 . S
C745 C744 1.379 . S
C745 H755 0.930 . S
C746 O724 1.264 . S
C746 O725 1.254 . S
C747 Eu683 2.848 . S
C747 O722 1.257 . S
C747 O727 1.249 . S
C747 C740 1.492 . S
H748 C731 0.930 . S
H749 C732 0.930 . S
H750 C733 0.930 . S
H751 C734 0.930 . S
H752 C741 0.930 1_554 S
H753 C743 0.930 . S
H754 C744 0.930 . S
H755 C745 0.930 . S
C756 C757 1.349 . S
C756 C758 1.327 . S
C756 H781 0.950 . S
C757 C756 1.349 . S
C757 C773 1.349 . S
C758 C756 1.327 . S
C758 C777 1.429 . S
C758 H782 0.950 . S
C759 C776 1.574 . S
C759 C778 1.368 1_556 S
C759 H783 0.949 . S
H760 C764 0.949 . S
C761 C762 1.349 . S
C761 C763 1.327 . S
C761 H784 0.950 . S
C762 C761 1.349 . S
C762 C774 1.349 1_556 S
C763 C761 1.327 . S
C763 C779 1.429 1_556 S
C763 H785 0.950 . S
C764 H760 0.949 . S
C764 C772 1.574 . S
C764 C780 1.368 . S
H765 C773 0.950 . S
H766 C771 0.950 1_556 S
H767 C772 0.949 . S
H768 C774 0.950 . S
H769 C775 0.950 . S
H770 C776 0.949 . S
C771 H766 0.950 1_554 S
C771 C773 1.327 . S
C771 C777 1.429 . S
C772 C764 1.574 . S
C772 H767 0.949 . S
C772 C778 1.368 . S
C773 C757 1.349 . S
C773 H765 0.950 . S
C773 C771 1.327 . S
C774 C762 1.349 1_554 S
C774 H768 0.950 . S
C774 C775 1.327 . S
C775 H769 0.950 . S
C775 C774 1.327 . S
C775 C779 1.429 . S
C776 C759 1.574 . S
C776 H770 0.949 . S
C776 C780 1.368 1_556 S
C777 C758 1.429 . S
C777 C771 1.429 . S
C777 C778 1.523 . S
C778 C759 1.368 1_554 S
C778 C772 1.368 . S
C778 C777 1.523 . S
C779 C763 1.429 1_554 S
C779 C775 1.429 . S
C779 C780 1.523 . S
C780 C764 1.368 . S
C780 C776 1.368 1_554 S
C780 C779 1.523 . S
H781 C756 0.950 . S
H782 C758 0.950 . S
H783 C759 0.949 . S
H784 C761 0.950 . S
H785 C763 0.950 . S
C786 C787 1.349 . S
C786 C788 1.327 . S
C786 H811 0.950 . S
C787 C786 1.349 . S
C787 C803 1.349 . S
C788 C786 1.327 . S
C788 C807 1.429 . S
C788 H812 0.950 . S
C789 C806 1.574 . S
C789 C808 1.368 . S
C789 H813 0.949 . S
H790 C794 0.949 . S
C791 C792 1.349 . S
C791 C793 1.327 1_556 S
C791 H814 0.950 1_556 S
C792 C791 1.349 . S
C792 C804 1.349 . S
C793 C791 1.327 1_554 S
C793 C809 1.429 1_554 S
C793 H815 0.950 . S
C794 H790 0.949 . S
C794 C802 1.574 . S
C794 C810 1.368 1_556 S
H795 C803 0.950 . S
H796 C801 0.950 . S
H797 C802 0.949 . S
H798 C804 0.950 . S
H799 C805 0.950 . S
H800 C806 0.949 . S
C801 H796 0.950 . S
C801 C803 1.327 . S
C801 C807 1.429 . S
C802 C794 1.574 . S
C802 H797 0.949 . S
C802 C808 1.368 1_556 S
C803 C787 1.349 . S
C803 H795 0.950 . S
C803 C801 1.327 . S
C804 C792 1.349 . S
C804 H798 0.950 . S
C804 C805 1.327 . S
C805 H799 0.950 . S
C805 C804 1.327 . S
C805 C809 1.429 . S
C806 C789 1.574 . S
C806 H800 0.949 . S
C806 C810 1.368 . S
C807 C788 1.429 . S
C807 C801 1.429 . S
C807 C808 1.523 . S
C808 C789 1.368 . S
C808 C802 1.368 1_554 S
C808 C807 1.523 . S
C809 C793 1.429 1_556 S
C809 C805 1.429 . S
C809 C810 1.523 1_556 S
C810 C794 1.368 1_554 S
C810 C806 1.368 . S
C810 C809 1.523 1_554 S
H811 C786 0.950 . S
H812 C788 0.950 . S
H813 C789 0.949 . S
H814 C791 0.950 1_554 S
H815 C793 0.950 . S
C816 C817 1.349 . S
C816 C818 1.327 . S
C816 H841 0.950 . S
C817 C816 1.349 . S
C817 C833 1.349 . S
C818 C816 1.327 . S
C818 C837 1.429 . S
C818 H842 0.950 . S
C819 C836 1.574 . S
C819 C838 1.368 . S
C819 H843 0.949 . S
H820 C824 0.949 . S
C821 C822 1.349 . S
C821 C823 1.327 . S
C821 H844 0.950 . S
C822 C821 1.349 . S
C822 C834 1.349 . S
C823 C821 1.327 . S
C823 C839 1.429 . S
C823 H845 0.950 . S
C824 H820 0.949 . S
C824 C832 1.574 . S
C824 C840 1.368 . S
H825 C833 0.950 . S
H826 C831 0.950 . S
H827 C832 0.949 . S
H828 C834 0.950 . S
H829 C835 0.950 . S
H830 C836 0.949 . S
C831 H826 0.950 . S
C831 C833 1.327 . S
C831 C837 1.429 . S
C832 C824 1.574 . S
C832 H827 0.949 . S
C832 C838 1.368 . S
C833 C817 1.349 . S
C833 H825 0.950 . S
C833 C831 1.327 . S
C834 C822 1.349 . S
C834 H828 0.950 . S
C834 C835 1.327 . S
C835 H829 0.950 . S
C835 C834 1.327 . S
C835 C839 1.429 . S
C836 C819 1.574 . S
C836 H830 0.949 . S
C836 C840 1.368 . S
C837 C818 1.429 . S
C837 C831 1.429 . S
C837 C838 1.523 . S
C838 C819 1.368 . S
C838 C832 1.368 . S
C838 C837 1.523 . S
C839 C823 1.429 . S
C839 C835 1.429 . S
C839 C840 1.523 . S
C840 C824 1.368 . S
C840 C836 1.368 . S
C840 C839 1.523 . S
H841 C816 0.950 . S
H842 C818 0.950 . S
H843 C819 0.949 . S
H844 C821 0.950 . S
H845 C823 0.950 . S
C846 C847 1.349 1_556 S
C846 C848 1.327 . S
C846 H871 0.950 . S
C847 C846 1.349 1_554 S
C847 C863 1.349 . S
C848 C846 1.327 . S
C848 C867 1.429 1_556 S
C848 H872 0.950 . S
C849 C866 1.574 . S
C849 C868 1.368 . S
C849 H873 0.949 . S
H850 C854 0.949 . S
C851 C852 1.349 . S
C851 C853 1.327 . S
C851 H874 0.950 . S
C852 C851 1.349 . S
C852 C864 1.349 1_554 S
C853 C851 1.327 . S
C853 C869 1.429 . S
C853 H875 0.950 . S
C854 H850 0.949 . S
C854 C862 1.574 . S
C854 C870 1.368 1_556 S
H855 C863 0.950 . S
H856 C861 0.950 . S
H857 C862 0.949 . S
H858 C864 0.950 . S
H859 C865 0.950 . S
H860 C866 0.949 . S
C861 H856 0.950 . S
C861 C863 1.327 . S
C861 C867 1.429 . S
C862 C854 1.574 . S
C862 H857 0.949 . S
C862 C868 1.368 1_556 S
C863 C847 1.349 . S
C863 H855 0.950 . S
C863 C861 1.327 . S
C864 C852 1.349 1_556 S
C864 H858 0.950 . S
C864 C865 1.327 . S
C865 H859 0.950 . S
C865 C864 1.327 . S
C865 C869 1.429 1_556 S
C866 C849 1.574 . S
C866 H860 0.949 . S
C866 C870 1.368 . S
C867 C848 1.429 1_554 S
C867 C861 1.429 . S
C867 C868 1.523 . S
C868 C849 1.368 . S
C868 C862 1.368 1_554 S
C868 C867 1.523 . S
C869 C853 1.429 . S
C869 C865 1.429 1_554 S
C869 C870 1.523 . S
C870 C854 1.368 1_554 S
C870 C866 1.368 . S
C870 C869 1.523 . S
H871 C846 0.950 . S
H872 C848 0.950 . S
H873 C849 0.949 . S
H874 C851 0.950 . S
H875 C853 0.950 . S
C876 C877 1.349 . S
C876 C878 1.327 . S
C876 H901 0.950 . S
C877 C876 1.349 . S
C877 C893 1.349 . S
C878 C876 1.327 . S
C878 C897 1.429 . S
C878 H902 0.950 . S
C879 C896 1.574 . S
C879 C898 1.368 . S
C879 H903 0.949 . S
H880 C884 0.949 . S
C881 C882 1.349 1_655 S
C881 C883 1.327 . S
C881 H904 0.950 . S
C882 C881 1.349 1_455 S
C882 C894 1.349 . S
C883 C881 1.327 . S
C883 C899 1.429 . S
C883 H905 0.950 . S
C884 H880 0.949 . S
C884 C892 1.574 . S
C884 C900 1.368 . S
H885 C893 0.950 . S
H886 C891 0.950 . S
H887 C892 0.949 . S
H888 C894 0.950 . S
H889 C895 0.950 . S
H890 C896 0.949 . S
C891 H886 0.950 . S
C891 C893 1.327 . S
C891 C897 1.429 . S
C892 C884 1.574 . S
C892 H887 0.949 . S
C892 C898 1.368 . S
C893 C877 1.349 . S
C893 H885 0.950 . S
C893 C891 1.327 . S
C894 C882 1.349 . S
C894 H888 0.950 . S
C894 C895 1.327 1_455 S
C895 H889 0.950 . S
C895 C894 1.327 1_655 S
C895 C899 1.429 . S
C896 C879 1.574 . S
C896 H890 0.949 . S
C896 C900 1.368 . S
C897 C878 1.429 . S
C897 C891 1.429 . S
C897 C898 1.523 . S
C898 C879 1.368 . S
C898 C892 1.368 . S
C898 C897 1.523 . S
C899 C883 1.429 . S
C899 C895 1.429 . S
C899 C900 1.523 . S
C900 C884 1.368 . S
C900 C896 1.368 . S
C900 C899 1.523 . S
H901 C876 0.950 . S
H902 C878 0.950 . S
H903 C879 0.949 . S
H904 C881 0.950 . S
H905 C883 0.950 . S
C906 C907 1.349 . S
C906 C908 1.327 . S
C906 H931 0.950 . S
C907 C906 1.349 . S
C907 C923 1.349 . S
C908 C906 1.327 . S
C908 C927 1.429 . S
C908 H932 0.950 . S
C909 C926 1.574 . S
C909 C928 1.368 . S
C909 H933 0.949 . S
H910 C914 0.949 . S
C911 C912 1.349 . S
C911 C913 1.327 . S
C911 H934 0.950 . S
C912 C911 1.349 . S
C912 C924 1.349 . S
C913 C911 1.327 . S
C913 C929 1.429 . S
C913 H935 0.950 . S
C914 H910 0.949 . S
C914 C922 1.574 . S
C914 C930 1.368 . S
H915 C923 0.950 . S
H916 C921 0.950 . S
H917 C922 0.949 . S
H918 C924 0.950 . S
H919 C925 0.950 . S
H920 C926 0.949 . S
C921 H916 0.950 . S
C921 C923 1.327 . S
C921 C927 1.429 . S
C922 C914 1.574 . S
C922 H917 0.949 . S
C922 C928 1.368 . S
C923 C907 1.349 . S
C923 H915 0.950 . S
C923 C921 1.327 . S
C924 C912 1.349 . S
C924 H918 0.950 . S
C924 C925 1.327 . S
C925 H919 0.950 . S
C925 C924 1.327 . S
C925 C929 1.429 . S
C926 C909 1.574 . S
C926 H920 0.949 . S
C926 C930 1.368 . S
C927 C908 1.429 . S
C927 C921 1.429 . S
C927 C928 1.523 . S
C928 C909 1.368 . S
C928 C922 1.368 . S
C928 C927 1.523 . S
C929 C913 1.429 . S
C929 C925 1.429 . S
C929 C930 1.523 . S
C930 C914 1.368 . S
C930 C926 1.368 . S
C930 C929 1.523 . S
H931 C906 0.950 . S
H932 C908 0.950 . S
H933 C909 0.949 . S
H934 C911 0.950 . S
H935 C913 0.950 . S
C936 C937 1.349 . S
C936 C938 1.327 . S
C936 H961 0.950 . S
C937 C936 1.349 . S
C937 C953 1.349 . S
C938 C936 1.327 . S
C938 C957 1.429 . S
C938 H962 0.950 . S
C939 C956 1.574 . S
C939 C958 1.368 . S
C939 H963 0.949 . S
H940 C944 0.949 . S
C941 C942 1.349 . S
C941 C943 1.327 . S
C941 H964 0.950 . S
C942 C941 1.349 . S
C942 C954 1.349 . S
C943 C941 1.327 . S
C943 C959 1.429 . S
C943 H965 0.950 . S
C944 H940 0.949 . S
C944 C952 1.574 . S
C944 C960 1.368 . S
H945 C953 0.950 . S
H946 C951 0.950 . S
H947 C952 0.949 . S
H948 C954 0.950 . S
H949 C955 0.950 . S
H950 C956 0.949 . S
C951 H946 0.950 . S
C951 C953 1.327 . S
C951 C957 1.429 . S
C952 C944 1.574 . S
C952 H947 0.949 . S
C952 C958 1.368 . S
C953 C937 1.349 . S
C953 H945 0.950 . S
C953 C951 1.327 . S
C954 C942 1.349 . S
C954 H948 0.950 . S
C954 C955 1.327 . S
C955 H949 0.950 . S
C955 C954 1.327 . S
C955 C959 1.429 . S
C956 C939 1.574 . S
C956 H950 0.949 . S
C956 C960 1.368 . S
C957 C938 1.429 . S
C957 C951 1.429 . S
C957 C958 1.523 . S
C958 C939 1.368 . S
C958 C952 1.368 . S
C958 C957 1.523 . S
C959 C943 1.429 . S
C959 C955 1.429 . S
C959 C960 1.523 . S
C960 C944 1.368 . S
C960 C956 1.368 . S
C960 C959 1.523 . S
H961 C936 0.950 . S
H962 C938 0.950 . S
H963 C939 0.949 . S
H964 C941 0.950 . S
H965 C943 0.950 . S
C966 C967 1.349 . S
C966 C968 1.327 . S
C966 H991 0.950 . S
C967 C966 1.349 . S
C967 C983 1.349 . S
C968 C966 1.327 . S
C968 C987 1.429 . S
C968 H992 0.950 . S
C969 C986 1.574 . S
C969 C988 1.368 . S
C969 H993 0.949 . S
H970 C974 0.949 . S
C971 C972 1.349 . S
C971 C973 1.327 . S
C971 H994 0.950 . S
C972 C971 1.349 . S
C972 C984 1.349 . S
C973 C971 1.327 . S
C973 C989 1.429 . S
C973 H995 0.950 . S
C974 H970 0.949 . S
C974 C982 1.574 . S
C974 C990 1.368 . S
H975 C983 0.950 . S
H976 C981 0.950 . S
H977 C982 0.949 . S
H978 C984 0.950 . S
H979 C985 0.950 . S
H980 C986 0.949 . S
C981 H976 0.950 . S
C981 C983 1.327 . S
C981 C987 1.429 . S
C982 C974 1.574 . S
C982 H977 0.949 . S
C982 C988 1.368 . S
C983 C967 1.349 . S
C983 H975 0.950 . S
C983 C981 1.327 . S
C984 C972 1.349 . S
C984 H978 0.950 . S
C984 C985 1.327 . S
C985 H979 0.950 . S
C985 C984 1.327 . S
C985 C989 1.429 . S
C986 C969 1.574 . S
C986 H980 0.949 . S
C986 C990 1.368 . S
C987 C968 1.429 . S
C987 C981 1.429 . S
C987 C988 1.523 . S
C988 C969 1.368 . S
C988 C982 1.368 . S
C988 C987 1.523 . S
C989 C973 1.429 . S
C989 C985 1.429 . S
C989 C990 1.523 . S
C990 C974 1.368 . S
C990 C986 1.368 . S
C990 C989 1.523 . S
H991 C966 0.950 . S
H992 C968 0.950 . S
H993 C969 0.949 . S
H994 C971 0.950 . S
H995 C973 0.950 . S
C996 C997 1.349 . S
C996 C998 1.327 . S
C996 H1021 0.950 . S
C997 C996 1.349 . S
C997 C1013 1.349 . S
C998 C996 1.327 . S
C998 C1017 1.429 . S
C998 H1022 0.950 . S
C999 C1016 1.574 . S
C999 C1018 1.368 . S
C999 H1023 0.949 . S
H1000 C1004 0.949 . S
C1001 C1002 1.349 . S
C1001 C1003 1.327 . S
C1001 H1024 0.950 . S
C1002 C1001 1.349 . S
C1002 C1014 1.349 1_565 S
C1003 C1001 1.327 . S
C1003 C1019 1.429 1_565 S
C1003 H1025 0.950 . S
C1004 H1000 0.949 . S
C1004 C1012 1.574 . S
C1004 C1020 1.368 . S
H1005 C1013 0.950 . S
H1006 C1011 0.950 . S
H1007 C1012 0.949 . S
H1008 C1014 0.950 . S
H1009 C1015 0.950 . S
H1010 C1016 0.949 1_565 S
C1011 H1006 0.950 . S
C1011 C1013 1.327 . S
C1011 C1017 1.429 . S
C1012 C1004 1.574 . S
C1012 H1007 0.949 . S
C1012 C1018 1.368 . S
C1013 C997 1.349 . S
C1013 H1005 0.950 . S
C1013 C1011 1.327 . S
C1014 C1002 1.349 1_545 S
C1014 H1008 0.950 . S
C1014 C1015 1.327 . S
C1015 H1009 0.950 . S
C1015 C1014 1.327 . S
C1015 C1019 1.429 . S
C1016 C999 1.574 . S
C1016 H1010 0.949 1_545 S
C1016 C1020 1.368 . S
C1017 C998 1.429 . S
C1017 C1011 1.429 . S
C1017 C1018 1.523 . S
C1018 C999 1.368 . S
C1018 C1012 1.368 . S
C1018 C1017 1.523 . S
C1019 C1003 1.429 1_545 S
C1019 C1015 1.429 . S
C1019 C1020 1.523 . S
C1020 C1004 1.368 . S
C1020 C1016 1.368 . S
C1020 C1019 1.523 . S
H1021 C996 0.950 . S
H1022 C998 0.950 . S
H1023 C999 0.949 . S
H1024 C1001 0.950 . S
H1025 C1003 0.950 . S
C1026 C1027 1.349 . S
C1026 C1028 1.327 . S
C1026 H1051 0.950 . S
C1027 C1026 1.349 . S
C1027 C1043 1.349 . S
C1028 C1026 1.327 . S
C1028 C1047 1.429 . S
C1028 H1052 0.950 . S
C1029 C1046 1.574 . S
C1029 C1048 1.368 . S
C1029 H1053 0.949 . S
H1030 C1034 0.949 . S
C1031 C1032 1.349 . S
C1031 C1033 1.327 . S
C1031 H1054 0.950 . S
C1032 C1031 1.349 . S
C1032 C1044 1.349 . S
C1033 C1031 1.327 . S
C1033 C1049 1.429 . S
C1033 H1055 0.950 . S
C1034 H1030 0.949 . S
C1034 C1042 1.574 . S
C1034 C1050 1.368 . S
H1035 C1043 0.950 . S
H1036 C1041 0.950 . S
H1037 C1042 0.949 . S
H1038 C1044 0.950 . S
H1039 C1045 0.950 . S
H1040 C1046 0.949 . S
C1041 H1036 0.950 . S
C1041 C1043 1.327 . S
C1041 C1047 1.429 . S
C1042 C1034 1.574 . S
C1042 H1037 0.949 . S
C1042 C1048 1.368 . S
C1043 C1027 1.349 . S
C1043 H1035 0.950 . S
C1043 C1041 1.327 . S
C1044 C1032 1.349 . S
C1044 H1038 0.950 . S
C1044 C1045 1.327 . S
C1045 H1039 0.950 . S
C1045 C1044 1.327 . S
C1045 C1049 1.429 . S
C1046 C1029 1.574 . S
C1046 H1040 0.949 . S
C1046 C1050 1.368 . S
C1047 C1028 1.429 . S
C1047 C1041 1.429 . S
C1047 C1048 1.523 . S
C1048 C1029 1.368 . S
C1048 C1042 1.368 . S
C1048 C1047 1.523 . S
C1049 C1033 1.429 . S
C1049 C1045 1.429 . S
C1049 C1050 1.523 . S
C1050 C1034 1.368 . S
C1050 C1046 1.368 . S
C1050 C1049 1.523 . S
H1051 C1026 0.950 . S
H1052 C1028 0.950 . S
H1053 C1029 0.949 . S
H1054 C1031 0.950 . S
H1055 C1033 0.950 . S
C1056 C1057 1.349 . S
C1056 C1058 1.327 . S
C1056 H1081 0.950 . S
C1057 C1056 1.349 . S
C1057 C1073 1.349 . S
C1058 C1056 1.327 . S
C1058 C1077 1.429 . S
C1058 H1082 0.950 . S
C1059 C1076 1.574 1_565 S
C1059 C1078 1.368 . S
C1059 H1083 0.949 . S
H1060 C1064 0.949 . S
C1061 C1062 1.349 . S
C1061 C1063 1.327 . S
C1061 H1084 0.950 . S
C1062 C1061 1.349 . S
C1062 C1074 1.349 . S
C1063 C1061 1.327 . S
C1063 C1079 1.429 . S
C1063 H1085 0.950 . S
C1064 H1060 0.949 . S
C1064 C1072 1.574 . S
C1064 C1080 1.368 . S
H1065 C1073 0.950 . S
H1066 C1071 0.950 . S
H1067 C1072 0.897 1_565 S
H1068 C1074 0.950 . S
H1069 C1075 0.950 . S
H1070 C1076 0.949 . S
C1071 H1066 0.950 . S
C1071 C1073 1.327 . S
C1071 C1077 1.429 . S
C1072 C1064 1.574 . S
C1072 H1067 0.897 1_545 S
C1072 C1078 1.368 1_545 S
C1073 C1057 1.349 . S
C1073 H1065 0.950 . S
C1073 C1071 1.327 . S
C1074 C1062 1.349 . S
C1074 H1068 0.950 . S
C1074 C1075 1.327 . S
C1075 H1069 0.950 . S
C1075 C1074 1.327 . S
C1075 C1079 1.429 . S
C1076 C1059 1.574 1_545 S
C1076 H1070 0.949 . S
C1076 C1080 1.368 . S
C1077 C1058 1.429 . S
C1077 C1071 1.429 . S
C1077 C1078 1.523 . S
C1078 C1059 1.368 . S
C1078 C1072 1.368 1_565 S
C1078 C1077 1.523 . S
C1079 C1063 1.429 . S
C1079 C1075 1.429 . S
C1079 C1080 1.523 . S
C1080 C1064 1.368 . S
C1080 C1076 1.368 . S
C1080 C1079 1.523 . S
H1081 C1056 0.950 . S
H1082 C1058 0.950 . S
H1083 C1059 0.949 . S
H1084 C1061 0.950 . S
H1085 C1063 0.950 . S
C1086 C1087 1.349 . S
C1086 C1088 1.359 . S
C1086 H1111 0.950 . S
C1087 C1086 1.349 . S
C1087 C1103 1.349 . S
C1088 C1086 1.359 . S
C1088 C1107 1.427 . S
C1088 H1112 0.921 1_655 S
C1089 C1106 1.574 . S
C1089 C1108 1.368 . S
C1089 H1113 0.949 . S
H1090 C1094 0.949 . S
C1091 C1092 1.349 1_556 S
C1091 C1093 1.327 . S
C1091 H1114 0.950 . S
C1092 C1091 1.349 1_554 S
C1092 C1104 1.349 . S
C1093 C1091 1.327 . S
C1093 C1109 1.429 1_556 S
C1093 H1115 0.950 . S
C1094 H1090 0.949 . S
C1094 C1102 1.574 . S
C1094 C1110 1.368 . S
H1095 C1103 0.950 . S
H1096 C1101 0.950 . S
H1097 C1102 0.949 . S
H1098 C1104 0.950 . S
H1099 C1105 0.950 . S
H1100 C1106 0.949 1_556 S
C1101 H1096 0.950 . S
C1101 C1103 1.327 . S
C1101 C1107 1.430 . S
C1102 C1094 1.574 . S
C1102 H1097 0.949 . S
C1102 C1108 1.368 . S
C1103 C1087 1.349 . S
C1103 H1095 0.950 . S
C1103 C1101 1.327 . S
C1104 C1092 1.349 . S
C1104 H1098 0.950 . S
C1104 C1105 1.327 . S
C1105 H1099 0.950 . S
C1105 C1104 1.327 . S
C1105 C1109 1.429 . S
C1106 C1089 1.574 . S
C1106 H1100 0.949 1_554 S
C1106 C1110 1.368 . S
C1107 C1088 1.427 . S
C1107 C1101 1.430 . S
C1107 C1108 1.521 1_655 S
C1108 C1089 1.368 . S
C1108 C1102 1.368 . S
C1108 C1107 1.521 1_455 S
C1109 C1093 1.429 1_554 S
C1109 C1105 1.429 . S
C1109 C1110 1.523 . S
C1110 C1094 1.368 . S
C1110 C1106 1.368 . S
C1110 C1109 1.523 . S
H1111 C1086 0.950 . S
H1112 C1088 0.921 1_455 S
H1113 C1089 0.949 . S
H1114 C1091 0.950 . S
H1115 C1093 0.950 . S
C1116 C1117 1.349 1_556 S
C1116 C1118 1.327 . S
C1116 H1141 0.950 . S
C1117 C1116 1.349 1_554 S
C1117 C1133 1.349 . S
C1118 C1116 1.327 . S
C1118 C1137 1.429 1_556 S
C1118 H1142 0.950 . S
C1119 C1136 1.574 . S
C1119 C1138 1.368 . S
C1119 H1143 0.949 . S
H1120 C1124 0.949 1_556 S
C1121 C1122 1.349 . S
C1121 C1123 1.327 . S
C1121 H1144 0.950 . S
C1122 C1121 1.349 . S
C1122 C1134 1.349 . S
C1123 C1121 1.327 . S
C1123 C1139 1.429 . S
C1123 H1145 0.950 . S
C1124 H1120 0.949 1_554 S
C1124 C1132 1.574 . S
C1124 C1140 1.368 . S
H1125 C1133 0.950 . S
H1126 C1131 0.950 . S
H1127 C1132 0.949 1_556 S
H1128 C1134 0.950 . S
H1129 C1135 0.950 . S
H1130 C1136 0.949 . S
C1131 H1126 0.950 . S
C1131 C1133 1.327 . S
C1131 C1137 1.429 . S
C1132 C1124 1.574 . S
C1132 H1127 0.949 1_554 S
C1132 C1138 1.368 . S
C1133 C1117 1.349 . S
C1133 H1125 0.950 . S
C1133 C1131 1.327 . S
C1134 C1122 1.349 . S
C1134 H1128 0.950 . S
C1134 C1135 1.327 . S
C1135 H1129 0.950 . S
C1135 C1134 1.327 . S
C1135 C1139 1.429 . S
C1136 C1119 1.574 . S
C1136 H1130 0.949 . S
C1136 C1140 1.368 . S
C1137 C1118 1.429 1_554 S
C1137 C1131 1.429 . S
C1137 C1138 1.523 . S
C1138 C1119 1.368 . S
C1138 C1132 1.368 . S
C1138 C1137 1.523 . S
C1139 C1123 1.429 . S
C1139 C1135 1.429 . S
C1139 C1140 1.523 . S
C1140 C1124 1.368 . S
C1140 C1136 1.368 . S
C1140 C1139 1.523 . S
H1141 C1116 0.950 . S
H1142 C1118 0.950 . S
H1143 C1119 0.949 . S
H1144 C1121 0.950 . S
H1145 C1123 0.950 . S
C1146 C1147 1.349 . S
C1146 C1148 1.327 . S
C1146 H1171 0.950 . S
C1147 C1146 1.349 . S
C1147 C1163 1.349 . S
C1148 C1146 1.327 . S
C1148 C1167 1.429 . S
C1148 H1172 0.950 . S
C1149 C1166 1.574 . S
C1149 C1168 1.368 1_556 S
C1149 H1173 0.949 . S
H1150 C1154 0.949 . S
C1151 C1152 1.349 . S
C1151 C1153 1.327 . S
C1151 H1174 0.950 . S
C1152 C1151 1.349 . S
C1152 C1164 1.338 1_556 S
C1153 C1151 1.327 . S
C1153 C1169 1.429 . S
C1153 H1175 0.950 . S
C1154 H1150 0.949 . S
C1154 C1162 1.574 . S
C1154 C1170 1.368 1_554 S
H1155 C1163 0.950 1_556 S
H1156 C1161 0.950 . S
H1157 C1162 0.949 . S
H1158 C1164 0.962 . S
H1159 C1165 0.950 . S
H1160 C1166 0.949 . S
C1161 H1156 0.950 . S
C1161 C1163 1.327 1_556 S
C1161 C1167 1.429 1_556 S
C1162 C1154 1.574 . S
C1162 H1157 0.949 . S
C1162 C1168 1.368 . S
C1163 C1147 1.349 . S
C1163 H1155 0.950 1_554 S
C1163 C1161 1.327 1_554 S
C1164 C1152 1.338 1_554 S
C1164 H1158 0.962 . S
C1164 C1165 1.326 . S
C1165 H1159 0.950 . S
C1165 C1164 1.326 . S
C1165 C1169 1.429 1_554 S
C1166 C1149 1.574 . S
C1166 H1160 0.949 . S
C1166 C1170 1.368 . S
C1167 C1148 1.429 . S
C1167 C1161 1.429 1_554 S
C1167 C1168 1.523 . S
C1168 C1149 1.368 1_554 S
C1168 C1162 1.368 . S
C1168 C1167 1.523 . S
C1169 C1153 1.429 . S
C1169 C1165 1.429 1_556 S
C1169 C1170 1.523 . S
C1170 C1154 1.368 1_556 S
C1170 C1166 1.368 . S
C1170 C1169 1.523 . S
H1171 C1146 0.950 . S
H1172 C1148 0.950 . S
H1173 C1149 0.949 . S
H1174 C1151 0.950 . S
H1175 C1153 0.950 . S
C1176 C1177 1.349 1_556 S
C1176 C1178 1.327 . S
C1176 H1201 0.950 . S
C1177 C1176 1.349 1_554 S
C1177 C1193 1.349 . S
C1178 C1176 1.327 . S
C1178 C1197 1.429 . S
C1178 H1202 0.950 . S
C1179 C1196 1.574 . S
C1179 C1198 1.368 1_554 S
C1179 H1203 0.949 . S
H1180 C1184 0.949 . S
C1181 C1182 1.349 1_554 S
C1181 C1183 1.327 . S
C1181 H1204 0.950 . S
C1182 C1181 1.349 1_556 S
C1182 C1194 1.349 . S
C1183 C1181 1.327 . S
C1183 C1199 1.429 1_554 S
C1183 H1205 0.950 . S
C1184 H1180 0.949 . S
C1184 C1192 1.574 . S
C1184 C1200 1.368 . S
H1185 C1193 0.950 . S
H1186 C1191 0.950 . S
H1187 C1192 0.949 . S
H1188 C1194 0.950 . S
H1189 C1195 0.950 . S
H1190 C1196 0.949 . S
C1191 H1186 0.950 . S
C1191 C1193 1.327 . S
C1191 C1197 1.429 1_554 S
C1192 C1184 1.574 . S
C1192 H1187 0.949 . S
C1192 C1198 1.368 . S
C1193 C1177 1.349 . S
C1193 H1185 0.950 . S
C1193 C1191 1.327 . S
C1194 C1182 1.349 . S
C1194 H1188 0.950 . S
C1194 C1195 1.327 . S
C1195 H1189 0.950 . S
C1195 C1194 1.327 . S
C1195 C1199 1.429 . S
C1196 C1179 1.574 . S
C1196 H1190 0.949 . S
C1196 C1200 1.368 1_554 S
C1197 C1178 1.429 . S
C1197 C1191 1.429 1_556 S
C1197 C1198 1.523 . S
C1198 C1179 1.368 1_556 S
C1198 C1192 1.368 . S
C1198 C1197 1.523 . S
C1199 C1183 1.429 1_556 S
C1199 C1195 1.429 . S
C1199 C1200 1.523 . S
C1200 C1184 1.368 . S
C1200 C1196 1.368 1_556 S
C1200 C1199 1.523 . S
H1201 C1176 0.950 . S
H1202 C1178 0.950 . S
H1203 C1179 0.949 . S
H1204 C1181 0.950 . S
H1205 C1183 0.950 . S
C1206 C1207 1.349 . S
C1206 C1208 1.327 1_554 S
C1206 H1231 0.950 . S
C1207 C1206 1.349 . S
C1207 C1223 1.349 1_554 S
C1208 C1206 1.327 1_556 S
C1208 C1227 1.429 . S
C1208 H1232 0.950 . S
C1209 C1226 1.574 . S
C1209 C1228 1.368 . S
C1209 H1233 0.949 . S
H1210 C1214 0.949 . S
C1211 C1212 1.349 . S
C1211 C1213 1.327 . S
C1211 H1234 0.950 . S
C1212 C1211 1.349 . S
C1212 C1224 1.349 . S
C1213 C1211 1.327 . S
C1213 C1229 1.429 . S
C1213 H1235 0.950 . S
C1214 H1210 0.949 . S
C1214 C1222 1.574 . S
C1214 C1230 1.368 . S
H1215 C1223 0.950 . S
H1216 C1221 0.950 . S
H1217 C1222 0.949 . S
H1218 C1224 0.950 . S
H1219 C1225 0.950 . S
H1220 C1226 0.949 . S
C1221 H1216 0.950 . S
C1221 C1223 1.327 . S
C1221 C1227 1.429 . S
C1222 C1214 1.574 . S
C1222 H1217 0.949 . S
C1222 C1228 1.368 . S
C1223 C1207 1.349 1_556 S
C1223 H1215 0.950 . S
C1223 C1221 1.327 . S
C1224 C1212 1.349 . S
C1224 H1218 0.950 . S
C1224 C1225 1.327 . S
C1225 H1219 0.950 . S
C1225 C1224 1.327 . S
C1225 C1229 1.429 . S
C1226 C1209 1.574 . S
C1226 H1220 0.949 . S
C1226 C1230 1.368 . S
C1227 C1208 1.429 . S
C1227 C1221 1.429 . S
C1227 C1228 1.523 . S
C1228 C1209 1.368 . S
C1228 C1222 1.368 . S
C1228 C1227 1.523 . S
C1229 C1213 1.429 . S
C1229 C1225 1.429 . S
C1229 C1230 1.523 . S
C1230 C1214 1.368 . S
C1230 C1226 1.368 . S
C1230 C1229 1.523 . S
H1231 C1206 0.950 . S
H1232 C1208 0.950 . S
H1233 C1209 0.949 . S
H1234 C1211 0.950 . S
H1235 C1213 0.950 . S
C1236 C1237 1.349 . S
C1236 C1238 1.327 . S
C1236 H1261 0.950 . S
C1237 C1236 1.349 . S
C1237 C1253 1.349 . S
C1238 C1236 1.327 . S
C1238 C1257 1.429 . S
C1238 H1262 0.950 . S
C1239 C1256 1.574 . S
C1239 C1258 1.368 . S
C1239 H1263 0.949 . S
H1240 C1244 0.949 . S
C1241 C1242 1.349 . S
C1241 C1243 1.327 . S
C1241 H1264 0.950 . S
C1242 C1241 1.349 . S
C1242 C1254 1.349 . S
C1243 C1241 1.327 . S
C1243 C1259 1.429 . S
C1243 H1265 0.950 . S
C1244 H1240 0.949 . S
C1244 C1252 1.574 . S
C1244 C1260 1.368 . S
H1245 C1253 0.950 . S
H1246 C1251 0.950 . S
H1247 C1252 0.949 . S
H1248 C1254 0.950 . S
H1249 C1255 0.950 . S
H1250 C1256 0.949 . S
C1251 H1246 0.950 . S
C1251 C1253 1.327 . S
C1251 C1257 1.429 . S
C1252 C1244 1.574 . S
C1252 H1247 0.949 . S
C1252 C1258 1.368 . S
C1253 C1237 1.349 . S
C1253 H1245 0.950 . S
C1253 C1251 1.327 . S
C1254 C1242 1.349 . S
C1254 H1248 0.950 . S
C1254 C1255 1.327 . S
C1255 H1249 0.950 . S
C1255 C1254 1.327 . S
C1255 C1259 1.429 . S
C1256 C1239 1.574 . S
C1256 H1250 0.949 . S
C1256 C1260 1.368 . S
C1257 C1238 1.429 . S
C1257 C1251 1.429 . S
C1257 C1258 1.523 . S
C1258 C1239 1.368 . S
C1258 C1252 1.368 . S
C1258 C1257 1.523 . S
C1259 C1243 1.429 . S
C1259 C1255 1.429 . S
C1259 C1260 1.523 . S
C1260 C1244 1.368 . S
C1260 C1256 1.368 . S
C1260 C1259 1.523 . S
H1261 C1236 0.950 . S
H1262 C1238 0.950 . S
H1263 C1239 0.949 . S
H1264 C1241 0.950 . S
H1265 C1243 0.950 . S
C1266 C1267 1.349 . S
C1266 C1268 1.327 . S
C1266 H1291 0.950 . S
C1267 C1266 1.349 . S
C1267 C1283 1.349 . S
C1268 C1266 1.327 . S
C1268 C1287 1.429 . S
C1268 H1292 0.950 . S
C1269 C1286 1.574 . S
C1269 C1288 1.368 . S
C1269 H1293 0.949 . S
H1270 C1274 0.949 . S
C1271 C1272 1.349 . S
C1271 C1273 1.327 . S
C1271 H1294 0.950 1_556 S
C1272 C1271 1.349 . S
C1272 C1284 1.349 . S
C1273 C1271 1.327 . S
C1273 C1289 1.429 . S
C1273 H1295 0.950 . S
C1274 H1270 0.949 . S
C1274 C1282 1.574 . S
C1274 C1290 1.368 . S
H1275 C1283 0.950 . S
H1276 C1281 0.950 . S
H1277 C1282 0.949 . S
H1278 C1284 0.950 . S
H1279 C1285 0.950 . S
H1280 C1286 0.949 . S
C1281 H1276 0.950 . S
C1281 C1283 1.327 . S
C1281 C1287 1.429 . S
C1282 C1274 1.574 . S
C1282 H1277 0.949 . S
C1282 C1288 1.368 . S
C1283 C1267 1.349 . S
C1283 H1275 0.950 . S
C1283 C1281 1.327 . S
C1284 C1272 1.349 . S
C1284 H1278 0.950 . S
C1284 C1285 1.327 . S
C1285 H1279 0.950 . S
C1285 C1284 1.327 . S
C1285 C1289 1.429 . S
C1286 C1269 1.574 . S
C1286 H1280 0.949 . S
C1286 C1290 1.368 . S
C1287 C1268 1.429 . S
C1287 C1281 1.429 . S
C1287 C1288 1.523 . S
C1288 C1269 1.368 . S
C1288 C1282 1.368 . S
C1288 C1287 1.523 . S
C1289 C1273 1.429 . S
C1289 C1285 1.429 . S
C1289 C1290 1.523 . S
C1290 C1274 1.368 . S
C1290 C1286 1.368 . S
C1290 C1289 1.523 . S
H1291 C1266 0.950 . S
H1292 C1268 0.950 . S
H1293 C1269 0.949 . S
H1294 C1271 0.950 1_554 S
H1295 C1273 0.950 . S
C1296 C1297 1.349 . S
C1296 C1298 1.327 . S
C1296 H1321 0.950 1_556 S
C1297 C1296 1.349 . S
C1297 C1313 1.349 . S
C1298 C1296 1.327 . S
C1298 C1317 1.429 . S
C1298 H1322 0.950 . S
C1299 C1316 1.574 . S
C1299 C1318 1.368 . S
C1299 H1323 0.949 . S
H1300 C1304 0.949 . S
C1301 C1302 1.349 . S
C1301 C1303 1.327 . S
C1301 H1324 0.950 . S
C1302 C1301 1.349 . S
C1302 C1314 1.349 . S
C1303 C1301 1.327 . S
C1303 C1319 1.429 . S
C1303 H1325 0.950 . S
C1304 H1300 0.949 . S
C1304 C1312 1.574 . S
C1304 C1320 1.368 . S
H1305 C1313 0.950 . S
H1306 C1311 0.950 . S
H1307 C1312 0.949 . S
H1308 C1314 0.950 . S
H1309 C1315 0.950 . S
H1310 C1316 0.949 . S
C1311 H1306 0.950 . S
C1311 C1313 1.327 . S
C1311 C1317 1.429 . S
C1312 C1304 1.574 . S
C1312 H1307 0.949 . S
C1312 C1318 1.368 . S
C1313 C1297 1.349 . S
C1313 H1305 0.950 . S
C1313 C1311 1.327 . S
C1314 C1302 1.349 . S
C1314 H1308 0.950 . S
C1314 C1315 1.327 . S
C1315 H1309 0.950 . S
C1315 C1314 1.327 . S
C1315 C1319 1.429 . S
C1316 C1299 1.574 . S
C1316 H1310 0.949 . S
C1316 C1320 1.368 . S
C1317 C1298 1.429 . S
C1317 C1311 1.429 . S
C1317 C1318 1.523 . S
C1318 C1299 1.368 . S
C1318 C1312 1.368 . S
C1318 C1317 1.523 . S
C1319 C1303 1.429 . S
C1319 C1315 1.429 . S
C1319 C1320 1.523 . S
C1320 C1304 1.368 . S
C1320 C1316 1.368 . S
C1320 C1319 1.523 . S
H1321 C1296 0.950 1_554 S
H1322 C1298 0.950 . S
H1323 C1299 0.949 . S
H1324 C1301 0.950 . S
H1325 C1303 0.950 . S
C1326 C1327 1.349 . S
C1326 C1328 1.327 . S
C1326 H1351 0.950 . S
C1327 C1326 1.349 . S
C1327 C1343 1.349 . S
C1328 C1326 1.327 . S
C1328 C1347 1.429 . S
C1328 H1352 0.950 . S
C1329 C1346 1.574 . S
C1329 C1348 1.368 . S
C1329 H1353 0.949 . S
H1330 C1334 0.949 . S
C1331 C1332 1.349 . S
C1331 C1333 1.327 . S
C1331 H1354 0.950 . S
C1332 C1331 1.349 . S
C1332 C1344 1.349 . S
C1333 C1331 1.327 . S
C1333 C1349 1.429 . S
C1333 H1355 0.950 . S
C1334 H1330 0.949 . S
C1334 C1342 1.574 . S
C1334 C1350 1.368 . S
H1335 C1343 0.950 . S
H1336 C1341 0.950 . S
H1337 C1342 0.949 . S
H1338 C1344 0.950 . S
H1339 C1345 0.950 . S
H1340 C1346 0.949 . S
C1341 H1336 0.950 . S
C1341 C1343 1.327 . S
C1341 C1347 1.429 . S
C1342 C1334 1.574 . S
C1342 H1337 0.949 . S
C1342 C1348 1.368 . S
C1343 C1327 1.349 . S
C1343 H1335 0.950 . S
C1343 C1341 1.327 . S
C1344 C1332 1.349 . S
C1344 H1338 0.950 . S
C1344 C1345 1.327 . S
C1345 H1339 0.950 . S
C1345 C1344 1.327 . S
C1345 C1349 1.429 . S
C1346 C1329 1.574 . S
C1346 H1340 0.949 . S
C1346 C1350 1.368 . S
C1347 C1328 1.429 . S
C1347 C1341 1.429 . S
C1347 C1348 1.523 . S
C1348 C1329 1.368 . S
C1348 C1342 1.368 . S
C1348 C1347 1.523 . S
C1349 C1333 1.429 . S
C1349 C1345 1.429 . S
C1349 C1350 1.523 . S
C1350 C1334 1.368 . S
C1350 C1346 1.368 . S
C1350 C1349 1.523 . S
H1351 C1326 0.950 . S
H1352 C1328 0.950 . S
H1353 C1329 0.949 . S
H1354 C1331 0.950 . S
H1355 C1333 0.950 . S
C1356 C1357 1.349 1_565 S
C1356 C1358 1.327 . S
C1356 H1381 0.950 . S
C1357 C1356 1.349 1_545 S
C1357 C1373 1.349 . S
C1358 C1356 1.327 . S
C1358 C1377 1.429 1_565 S
C1358 H1382 0.950 . S
C1359 C1376 1.574 . S
C1359 C1378 1.368 . S
C1359 H1383 0.949 . S
H1360 C1364 0.949 . S
C1361 C1362 1.349 . S
C1361 C1363 1.327 . S
C1361 H1384 0.950 . S
C1362 C1361 1.349 . S
C1362 C1374 1.349 . S
C1363 C1361 1.327 . S
C1363 C1379 1.429 . S
C1363 H1385 0.950 . S
C1364 H1360 0.949 . S
C1364 C1372 1.574 . S
C1364 C1380 1.368 1_565 S
H1365 C1373 0.950 . S
H1366 C1371 0.950 . S
H1367 C1372 0.949 . S
H1368 C1374 0.950 1_565 S
H1369 C1375 0.944 1_565 S
H1370 C1376 0.949 . S
C1371 H1366 0.950 . S
C1371 C1373 1.327 . S
C1371 C1377 1.429 . S
C1372 C1364 1.574 . S
C1372 H1367 0.949 . S
C1372 C1378 1.368 1_565 S
C1373 C1357 1.349 . S
C1373 H1365 0.950 . S
C1373 C1371 1.327 . S
C1374 C1362 1.349 . S
C1374 H1368 0.950 1_545 S
C1374 C1375 1.330 . S
C1375 H1369 0.944 1_545 S
C1375 C1374 1.330 . S
C1375 C1379 1.431 . S
C1376 C1359 1.574 . S
C1376 H1370 0.949 . S
C1376 C1380 1.368 . S
C1377 C1358 1.429 1_545 S
C1377 C1371 1.429 . S
C1377 C1378 1.523 . S
C1378 C1359 1.368 . S
C1378 C1372 1.368 1_545 S
C1378 C1377 1.523 . S
C1379 C1363 1.429 . S
C1379 C1375 1.431 . S
C1379 C1380 1.523 . S
C1380 C1364 1.368 1_545 S
C1380 C1376 1.368 . S
C1380 C1379 1.523 . S
H1381 C1356 0.950 . S
H1382 C1358 0.950 . S
H1383 C1359 0.949 . S
H1384 C1361 0.950 . S
H1385 C1363 0.950 . S
C1386 C1387 1.349 . S
C1386 C1388 1.327 . S
C1386 H1411 0.950 . S
C1387 C1386 1.349 . S
C1387 C1403 1.349 . S
C1388 C1386 1.327 . S
C1388 C1407 1.429 . S
C1388 H1412 0.950 . S
C1389 C1406 1.574 . S
C1389 C1408 1.368 . S
C1389 H1413 0.949 . S
H1390 C1394 0.949 . S
C1391 C1392 1.349 . S
C1391 C1393 1.327 . S
C1391 H1414 0.950 . S
C1392 C1391 1.349 . S
C1392 C1404 1.349 . S
C1393 C1391 1.327 . S
C1393 C1409 1.429 . S
C1393 H1415 0.950 . S
C1394 H1390 0.949 . S
C1394 C1402 1.574 . S
C1394 C1410 1.368 . S
H1395 C1403 0.950 . S
H1396 C1401 0.950 . S
H1397 C1402 0.949 . S
H1398 C1404 0.950 . S
H1399 C1405 0.950 . S
H1400 C1406 0.949 . S
C1401 H1396 0.950 . S
C1401 C1403 1.327 . S
C1401 C1407 1.429 . S
C1402 C1394 1.574 . S
C1402 H1397 0.949 . S
C1402 C1408 1.368 . S
C1403 C1387 1.349 . S
C1403 H1395 0.950 . S
C1403 C1401 1.327 . S
C1404 C1392 1.349 . S
C1404 H1398 0.950 . S
C1404 C1405 1.327 . S
C1405 H1399 0.950 . S
C1405 C1404 1.327 . S
C1405 C1409 1.429 . S
C1406 C1389 1.574 . S
C1406 H1400 0.949 . S
C1406 C1410 1.368 . S
C1407 C1388 1.429 . S
C1407 C1401 1.429 . S
C1407 C1408 1.523 . S
C1408 C1389 1.368 . S
C1408 C1402 1.368 . S
C1408 C1407 1.523 . S
C1409 C1393 1.429 . S
C1409 C1405 1.429 . S
C1409 C1410 1.523 . S
C1410 C1394 1.368 . S
C1410 C1406 1.368 . S
C1410 C1409 1.523 . S
H1411 C1386 0.950 . S
H1412 C1388 0.950 . S
H1413 C1389 0.949 . S
H1414 C1391 0.950 . S
H1415 C1393 0.950 . S
C1416 C1417 1.349 . S
C1416 C1418 1.327 . S
C1416 H1441 0.950 . S
C1417 C1416 1.349 . S
C1417 C1433 1.349 . S
C1418 C1416 1.327 . S
C1418 C1437 1.429 . S
C1418 H1442 0.950 . S
C1419 C1436 1.574 . S
C1419 C1438 1.368 . S
C1419 H1443 0.949 . S
H1420 C1424 0.949 . S
C1421 C1422 1.349 . S
C1421 C1423 1.327 . S
C1421 H1444 0.950 . S
C1422 C1421 1.349 . S
C1422 C1434 1.349 . S
C1423 C1421 1.327 . S
C1423 C1439 1.429 . S
C1423 H1445 0.950 . S
C1424 H1420 0.949 . S
C1424 C1432 1.574 . S
C1424 C1440 1.368 . S
H1425 C1433 0.950 . S
H1426 C1431 0.950 . S
H1427 C1432 0.949 . S
H1428 C1434 0.950 . S
H1429 C1435 0.950 . S
H1430 C1436 0.949 . S
C1431 H1426 0.950 . S
C1431 C1433 1.327 . S
C1431 C1437 1.429 . S
C1432 C1424 1.574 . S
C1432 H1427 0.949 . S
C1432 C1438 1.368 . S
C1433 C1417 1.349 . S
C1433 H1425 0.950 . S
C1433 C1431 1.327 . S
C1434 C1422 1.349 . S
C1434 H1428 0.950 . S
C1434 C1435 1.327 . S
C1435 H1429 0.950 . S
C1435 C1434 1.327 . S
C1435 C1439 1.429 . S
C1436 C1419 1.574 . S
C1436 H1430 0.949 . S
C1436 C1440 1.368 . S
C1437 C1418 1.429 . S
C1437 C1431 1.429 . S
C1437 C1438 1.523 . S
C1438 C1419 1.368 . S
C1438 C1432 1.368 . S
C1438 C1437 1.523 . S
C1439 C1423 1.429 . S
C1439 C1435 1.429 . S
C1439 C1440 1.523 . S
C1440 C1424 1.368 . S
C1440 C1436 1.368 . S
C1440 C1439 1.523 . S
H1441 C1416 0.950 . S
H1442 C1418 0.950 . S
H1443 C1419 0.949 . S
H1444 C1421 0.950 . S
H1445 C1423 0.950 . S
C1446 C1447 1.349 . S
C1446 C1448 1.327 . S
C1446 H1471 0.950 . S
C1447 C1446 1.349 . S
C1447 C1463 1.349 . S
C1448 C1446 1.327 . S
C1448 C1467 1.429 . S
C1448 H1472 0.950 . S
C1449 C1466 1.574 . S
C1449 C1468 1.368 . S
C1449 H1473 0.949 . S
H1450 C1454 0.949 . S
C1451 C1452 1.349 . S
C1451 C1453 1.327 . S
C1451 H1474 0.950 . S
C1452 C1451 1.349 . S
C1452 C1464 1.349 . S
C1453 C1451 1.327 . S
C1453 C1469 1.429 . S
C1453 H1475 0.950 . S
C1454 H1450 0.949 . S
C1454 C1462 1.574 . S
C1454 C1470 1.368 . S
H1455 C1463 0.950 . S
H1456 C1461 0.950 . S
H1457 C1462 0.949 . S
H1458 C1464 0.950 . S
H1459 C1465 0.950 . S
H1460 C1466 0.949 . S
C1461 H1456 0.950 . S
C1461 C1463 1.327 . S
C1461 C1467 1.429 . S
C1462 C1454 1.574 . S
C1462 H1457 0.949 . S
C1462 C1468 1.368 . S
C1463 C1447 1.349 . S
C1463 H1455 0.950 . S
C1463 C1461 1.327 . S
C1464 C1452 1.349 . S
C1464 H1458 0.950 . S
C1464 C1465 1.327 . S
C1465 H1459 0.950 . S
C1465 C1464 1.327 . S
C1465 C1469 1.429 . S
C1466 C1449 1.574 . S
C1466 H1460 0.949 . S
C1466 C1470 1.368 . S
C1467 C1448 1.429 . S
C1467 C1461 1.429 . S
C1467 C1468 1.523 . S
C1468 C1449 1.368 . S
C1468 C1462 1.368 . S
C1468 C1467 1.523 . S
C1469 C1453 1.429 . S
C1469 C1465 1.429 . S
C1469 C1470 1.523 . S
C1470 C1454 1.368 . S
C1470 C1466 1.368 . S
C1470 C1469 1.523 . S
H1471 C1446 0.950 . S
H1472 C1448 0.950 . S
H1473 C1449 0.949 . S
H1474 C1451 0.950 . S
H1475 C1453 0.950 . S
C1476 C1477 1.349 . S
C1476 C1478 1.327 . S
C1476 H1501 0.950 . S
C1477 C1476 1.349 . S
C1477 C1493 1.349 . S
C1478 C1476 1.327 . S
C1478 C1497 1.429 . S
C1478 H1502 0.950 . S
C1479 C1496 1.574 . S
C1479 C1498 1.368 . S
C1479 H1503 0.949 . S
H1480 C1484 0.949 . S
C1481 C1482 1.349 1_554 S
C1481 C1483 1.327 . S
C1481 H1504 0.950 . S
C1482 C1481 1.349 1_556 S
C1482 C1494 1.349 . S
C1483 C1481 1.327 . S
C1483 C1499 1.429 . S
C1483 H1505 0.950 . S
C1484 H1480 0.949 . S
C1484 C1492 1.574 . S
C1484 C1500 1.368 . S
H1485 C1493 0.950 . S
H1486 C1491 0.950 . S
H1487 C1492 0.949 . S
H1488 C1494 0.950 . S
H1489 C1495 0.950 . S
H1490 C1496 0.949 . S
C1491 H1486 0.950 . S
C1491 C1493 1.327 . S
C1491 C1497 1.429 . S
C1492 C1484 1.574 . S
C1492 H1487 0.949 . S
C1492 C1498 1.368 . S
C1493 C1477 1.349 . S
C1493 H1485 0.950 . S
C1493 C1491 1.327 . S
C1494 C1482 1.349 . S
C1494 H1488 0.950 . S
C1494 C1495 1.327 1_556 S
C1495 H1489 0.950 . S
C1495 C1494 1.327 1_554 S
C1495 C1499 1.429 . S
C1496 C1479 1.574 . S
C1496 H1490 0.949 . S
C1496 C1500 1.368 . S
C1497 C1478 1.429 . S
C1497 C1491 1.429 . S
C1497 C1498 1.523 . S
C1498 C1479 1.368 . S
C1498 C1492 1.368 . S
C1498 C1497 1.523 . S
C1499 C1483 1.429 . S
C1499 C1495 1.429 . S
C1499 C1500 1.523 . S
C1500 C1484 1.368 . S
C1500 C1496 1.368 . S
C1500 C1499 1.523 . S
H1501 C1476 0.950 . S
H1502 C1478 0.950 . S
H1503 C1479 0.949 . S
H1504 C1481 0.950 . S
H1505 C1483 0.950 . S
C1506 C1507 1.349 . S
C1506 C1508 1.327 . S
C1506 H1531 0.950 . S
C1507 C1506 1.349 . S
C1507 C1523 1.349 . S
C1508 C1506 1.327 . S
C1508 C1527 1.429 . S
C1508 H1532 0.950 . S
C1509 C1526 1.574 . S
C1509 C1528 1.368 . S
C1509 H1533 0.949 . S
H1510 C1514 0.949 . S
C1511 C1512 1.349 . S
C1511 C1513 1.327 . S
C1511 H1534 0.950 . S
C1512 C1511 1.349 . S
C1512 C1524 1.349 . S
C1513 C1511 1.327 . S
C1513 C1529 1.429 . S
C1513 H1535 0.950 . S
C1514 H1510 0.949 . S
C1514 C1522 1.574 . S
C1514 C1530 1.368 . S
H1515 C1523 0.950 . S
H1516 C1521 0.950 . S
H1517 C1522 0.949 . S
H1518 C1524 0.950 . S
H1519 C1525 0.950 . S
H1520 C1526 0.949 . S
C1521 H1516 0.950 . S
C1521 C1523 1.327 . S
C1521 C1527 1.429 . S
C1522 C1514 1.574 . S
C1522 H1517 0.949 . S
C1522 C1528 1.368 . S
C1523 C1507 1.349 . S
C1523 H1515 0.950 . S
C1523 C1521 1.327 . S
C1524 C1512 1.349 . S
C1524 H1518 0.950 . S
C1524 C1525 1.327 . S
C1525 H1519 0.950 . S
C1525 C1524 1.327 . S
C1525 C1529 1.429 . S
C1526 C1509 1.574 . S
C1526 H1520 0.949 . S
C1526 C1530 1.368 . S
C1527 C1508 1.429 . S
C1527 C1521 1.429 . S
C1527 C1528 1.523 . S
C1528 C1509 1.368 . S
C1528 C1522 1.368 . S
C1528 C1527 1.523 . S
C1529 C1513 1.429 . S
C1529 C1525 1.429 . S
C1529 C1530 1.523 . S
C1530 C1514 1.368 . S
C1530 C1526 1.368 . S
C1530 C1529 1.523 . S
H1531 C1506 0.950 . S
H1532 C1508 0.950 . S
H1533 C1509 0.949 . S
H1534 C1511 0.950 . S
H1535 C1513 0.950 . S
C1536 C1537 1.349 . S
C1536 C1538 1.327 . S
C1536 H1561 0.950 . S
C1537 C1536 1.349 . S
C1537 C1553 1.349 . S
C1538 C1536 1.327 . S
C1538 C1557 1.429 . S
C1538 H1562 0.950 . S
C1539 C1556 1.574 . S
C1539 C1558 1.368 . S
C1539 H1563 0.949 . S
H1540 C1544 0.949 . S
C1541 C1542 1.349 . S
C1541 C1543 1.327 . S
C1541 H1564 0.950 . S
C1542 C1541 1.349 . S
C1542 C1554 1.349 . S
C1543 C1541 1.327 . S
C1543 C1559 1.429 . S
C1543 H1565 0.950 . S
C1544 H1540 0.949 . S
C1544 C1552 1.574 . S
C1544 C1560 1.368 . S
H1545 C1553 0.950 . S
H1546 C1551 0.950 . S
H1547 C1552 0.949 . S
H1548 C1554 0.950 . S
H1549 C1555 0.950 . S
H1550 C1556 0.949 . S
C1551 H1546 0.950 . S
C1551 C1553 1.327 . S
C1551 C1557 1.429 . S
C1552 C1544 1.574 . S
C1552 H1547 0.949 . S
C1552 C1558 1.368 . S
C1553 C1537 1.349 . S
C1553 H1545 0.950 . S
C1553 C1551 1.327 . S
C1554 C1542 1.349 . S
C1554 H1548 0.950 . S
C1554 C1555 1.327 . S
C1555 H1549 0.950 . S
C1555 C1554 1.327 . S
C1555 C1559 1.429 . S
C1556 C1539 1.574 . S
C1556 H1550 0.949 . S
C1556 C1560 1.368 . S
C1557 C1538 1.429 . S
C1557 C1551 1.429 . S
C1557 C1558 1.523 . S
C1558 C1539 1.368 . S
C1558 C1552 1.368 . S
C1558 C1557 1.523 . S
C1559 C1543 1.429 . S
C1559 C1555 1.429 . S
C1559 C1560 1.523 . S
C1560 C1544 1.368 . S
C1560 C1556 1.368 . S
C1560 C1559 1.523 . S
H1561 C1536 0.950 . S
H1562 C1538 0.950 . S
H1563 C1539 0.949 . S
H1564 C1541 0.950 . S
H1565 C1543 0.950 . S
C757 C58 1.267 . S
C762 C646 1.319 . S
C787 C140 2.138 . S
C792 C728 2.069 . S
C817 C226 1.409 . S
C822 C560 1.523 . S
C847 C392 2.126 . S
C852 C224 2.145 . S
C877 C476 2.147 . S
C882 C56 2.128 . S
C907 C142 2.049 . S
C912 C308 2.179 . S
C937 C644 1.526 . S
C942 C478 1.501 . S
C967 C730 1.600 . S
C972 C310 1.661 . S
C997 C394 2.175 . S
C1002 C562 2.257 . S
C1027 C238 1.351 . S
C1032 C67 1.585 . S
C1057 C154 1.058 . S
C1062 C70 1.137 . S
C1087 C151 2.905 . S
C1092 C235 3.009 . S
C1117 C322 1.632 . S
C1122 C487 2.011 . S
C1147 C319 2.070 . S
C1152 C406 1.781 . S
C1177 C403 1.930 . S
C1182 C490 1.501 . S
C1207 C742 1.806 1_554 S
C1212 C571 2.278 . S
C1237 C658 0.734 . S
C1242 C574 0.725 . S
C1267 C739 2.032 . S
C1272 C655 1.973 . S
C1297 C63 1.170 1_556 S
C1302 C74 1.170 . S
C1327 C158 1.137 1_556 S
C1332 C147 1.137 . S
C1357 C231 1.165 . S
C1362 C242 1.165 . S
C1387 C315 1.235 . S
C1392 C326 1.235 . S
C1417 C399 1.123 . S
C1422 C410 1.123 . S
C1447 C483 1.208 . S
C1452 C494 1.208 1_556 S
C1477 C567 1.175 . S
C1482 C578 1.175 . S
C1507 C651 1.149 . S
C1512 C662 1.149 . S
C1537 C735 1.149 . S
C1542 C746 1.149 . S
