# Generated by pormake.
# Topology smt, (6)-cn, num edge types: 1
# Building blocks:
#     Node 0, Type 0, BuildingBlock: VOLQOD_clean_sbu_1, # of connection points: 6
#     Node 1, Type 0, BuildingBlock: VOLQOD_clean_sbu_1, # of connection points: 6
#     Node 2, Type 0, BuildingBlock: VOLQOD_clean_sbu_1, # of connection points: 6
#     Node 3, Type 0, BuildingBlock: VOLQOD_clean_sbu_1, # of connection points: 6
#     Node 4, Type 0, BuildingBlock: VOLQOD_clean_sbu_1, # of connection points: 6
#     Node 5, Type 0, BuildingBlock: VOLQOD_clean_sbu_1, # of connection points: 6
#     Edge 6, Type (0, 0), BuildingBlock: MIFKUJ_clean_linker_0, # of connection points: 2
#     Edge 7, Type (0, 0), BuildingBlock: MIFKUJ_clean_linker_0, # of connection points: 2
#     Edge 8, Type (0, 0), BuildingBlock: MIFKUJ_clean_linker_0, # of connection points: 2
#     Edge 9, Type (0, 0), BuildingBlock: MIFKUJ_clean_linker_0, # of connection points: 2
#     Edge 10, Type (0, 0), BuildingBlock: MIFKUJ_clean_linker_0, # of connection points: 2
#     Edge 11, Type (0, 0), BuildingBlock: MIFKUJ_clean_linker_0, # of connection points: 2
#     Edge 12, Type (0, 0), BuildingBlock: MIFKUJ_clean_linker_0, # of connection points: 2
#     Edge 13, Type (0, 0), BuildingBlock: MIFKUJ_clean_linker_0, # of connection points: 2
#     Edge 14, Type (0, 0), BuildingBlock: MIFKUJ_clean_linker_0, # of connection points: 2
#     Edge 15, Type (0, 0), BuildingBlock: MIFKUJ_clean_linker_0, # of connection points: 2
#     Edge 16, Type (0, 0), BuildingBlock: MIFKUJ_clean_linker_0, # of connection points: 2
#     Edge 17, Type (0, 0), BuildingBlock: MIFKUJ_clean_linker_0, # of connection points: 2
#     Edge 18, Type (0, 0), BuildingBlock: MIFKUJ_clean_linker_0, # of connection points: 2
#     Edge 19, Type (0, 0), BuildingBlock: MIFKUJ_clean_linker_0, # of connection points: 2
#     Edge 20, Type (0, 0), BuildingBlock: MIFKUJ_clean_linker_0, # of connection points: 2
#     Edge 21, Type (0, 0), BuildingBlock: MIFKUJ_clean_linker_0, # of connection points: 2
#     Edge 22, Type (0, 0), BuildingBlock: MIFKUJ_clean_linker_0, # of connection points: 2
#     Edge 23, Type (0, 0), BuildingBlock: MIFKUJ_clean_linker_0, # of connection points: 2
# Relax obj value: 0.336
# Max RMSD: 0.251
# Mean RMSD: 0.251
data_MOF--net-smt--node1-VOLQOD_clean_sbu_1--edge1-MIFKUJ_clean_linker_0
_symmetry_space_group_name_H-M    P1
_symmetry_Int_Tables_number       1
_symmetry_cell_setting            triclinic
loop_
_symmetry_equiv_pos_as_xyz
'x, y, z'
_cell_length_a     45.945667
_cell_length_b     45.961743
_cell_length_c     34.120105
_cell_angle_alpha  89.941591
_cell_angle_beta   90.06155
_cell_angle_gamma 119.92874
loop_
_atom_site_label
_atom_site_type_symbol
_atom_site_fract_x
_atom_site_fract_y
_atom_site_fract_z
_atom_type_partial_charge
O0 O 0.46989 0.04137 0.04191 0.0
Zn1 Zn 0.48352 0.07923 0.00332 0.0
O2 O 0.45329 0.09731 0.00511 0.0
Zn3 Zn 0.43074 0.09133 0.95465 0.0
Zn4 Zn 0.42022 0.07413 0.04521 0.0
Zn5 Zn 0.47831 0.14457 0.01883 0.0
O6 O 0.44104 0.13594 0.93201 0.0
O7 O 0.48077 0.17191 0.97225 0.0
O8 O 0.48668 0.06473 0.94875 0.0
O9 O 0.44935 0.07234 0.91559 0.0
O10 O 0.38046 0.05995 0.95828 0.0
O11 O 0.37544 0.04685 0.02151 0.0
O12 O 0.4144 0.1056 0.0795 0.0
O13 O 0.52989 0.11418 0.01961 0.0
O14 O 0.45454 0.1559 0.06046 0.0
O15 O 0.52551 0.15866 0.03552 0.0
C16 C 0.44954 0.03164 0.07071 0.0
C17 C 0.46339 0.16573 0.9411 0.0
C18 C 0.36259 0.04415 0.98782 0.0
C19 C 0.47161 0.06359 0.91693 0.0
C20 C 0.4291 0.13738 0.08162 0.0
C21 C 0.54274 0.14401 0.03265 0.0
O22 O 0.43025 0.04363 0.07672 0.0
O23 O 0.39992 0.45047 0.22118 0.0
Zn24 Zn 0.3754 0.463 0.18201 0.0
O25 O 0.32733 0.43197 0.1844 0.0
Zn26 Zn 0.31122 0.41015 0.13382 0.0
Zn27 Zn 0.31825 0.39882 0.22413 0.0
Zn28 Zn 0.30466 0.45587 0.19989 0.0
O29 O 0.279 0.42332 0.11024 0.0
O30 O 0.28075 0.46052 0.15346 0.0
O31 O 0.39406 0.46553 0.12808 0.0
O32 O 0.34965 0.42664 0.09576 0.0
O33 O 0.29258 0.35984 0.13766 0.0
O34 O 0.30701 0.35598 0.19881 0.0
O35 O 0.27853 0.38915 0.25713 0.0
O36 O 0.38643 0.5089 0.20008 0.0
O37 O 0.2697 0.4308 0.24084 0.0
O38 O 0.33751 0.50102 0.22196 0.0
C39 C 0.38958 0.43261 0.25208 0.0
C40 C 0.2711 0.44511 0.12083 0.0
C41 C 0.29542 0.34288 0.16552 0.0
C42 C 0.38065 0.44878 0.09702 0.0
C43 C 0.26215 0.40454 0.26069 0.0
C44 C 0.3692 0.51931 0.21823 0.0
O45 O 0.3584 0.41318 0.25843 0.0
O46 O 0.94344 0.41258 0.39354 0.0
Zn47 Zn 0.91554 0.3995 0.34471 0.0
O48 O 0.88981 0.35163 0.34028 0.0
Zn49 Zn 0.90214 0.33479 0.29547 0.0
Zn50 Zn 0.89521 0.33191 0.38721 0.0
Zn51 Zn 0.84383 0.33864 0.33339 0.0
O52 O 0.86225 0.30685 0.26032 0.0
O53 O 0.83155 0.32993 0.27693 0.0
O54 O 0.94317 0.41938 0.29629 0.0
O55 O 0.93349 0.374 0.2626 0.0
O56 O 0.92638 0.31051 0.31202 0.0
O57 O 0.92741 0.31549 0.37685 0.0
O58 O 0.85144 0.29134 0.40165 0.0
O59 O 0.88496 0.41865 0.35257 0.0
O60 O 0.81596 0.29462 0.35995 0.0
O61 O 0.83395 0.37374 0.35334 0.0
C62 C 0.93699 0.39765 0.42658 0.0
C63 C 0.83828 0.3126 0.25344 0.0
C64 C 0.93605 0.30659 0.34566 0.0
C65 C 0.94745 0.40577 0.26596 0.0
C66 C 0.82235 0.27904 0.38637 0.0
C67 C 0.85337 0.40522 0.35757 0.0
O68 O 0.91527 0.36654 0.42987 0.0
O69 O 0.53058 0.94629 0.5405 0.0
Zn70 Zn 0.51313 0.90492 0.50676 0.0
O71 O 0.54295 0.88631 0.50843 0.0
Zn72 Zn 0.55558 0.88129 0.45591 0.0
Zn73 Zn 0.58295 0.91648 0.53716 0.0
Zn74 Zn 0.52117 0.84291 0.5338 0.0
O75 O 0.5473 0.83483 0.44591 0.0
O76 O 0.51367 0.80651 0.49544 0.0
O77 O 0.50469 0.91391 0.45133 0.0
O78 O 0.52769 0.88927 0.41732 0.0
O79 O 0.60318 0.91624 0.44356 0.0
O80 O 0.62069 0.94291 0.50037 0.0
O81 O 0.59665 0.89137 0.57334 0.0
O82 O 0.46869 0.87251 0.53082 0.0
O83 O 0.55063 0.84123 0.57605 0.0
O84 O 0.4767 0.8325 0.55616 0.0
C85 C 0.5544 0.95907 0.56543 0.0
C86 C 0.52768 0.80722 0.46298 0.0
C87 C 0.62561 0.93972 0.46434 0.0
C88 C 0.51038 0.90387 0.41896 0.0
C89 C 0.58044 0.86178 0.58721 0.0
C90 C 0.45846 0.84585 0.55098 0.0
O91 O 0.57533 0.94871 0.5686 0.0
O92 O 0.57617 0.51659 0.72191 0.0
Zn93 Zn 0.60044 0.51055 0.67583 0.0
O94 O 0.64816 0.54175 0.6779 0.0
Zn95 Zn 0.6646 0.56826 0.63071 0.0
Zn96 Zn 0.65715 0.57072 0.72206 0.0
Zn97 Zn 0.67193 0.51772 0.6844 0.0
O98 O 0.69971 0.56134 0.60322 0.0
O99 O 0.69098 0.51461 0.63299 0.0
O100 O 0.58124 0.51383 0.62418 0.0
O101 O 0.62645 0.55251 0.59267 0.0
O102 O 0.68064 0.61694 0.64172 0.0
O103 O 0.66537 0.61544 0.70385 0.0
O104 O 0.69935 0.57967 0.74856 0.0
O105 O 0.5918 0.46358 0.6829 0.0
O106 O 0.71125 0.54334 0.72039 0.0
O107 O 0.64094 0.47114 0.70395 0.0
C108 C 0.58763 0.53107 0.75475 0.0
C109 C 0.70366 0.53584 0.60523 0.0
C110 C 0.67693 0.63124 0.67178 0.0
C111 C 0.59513 0.53135 0.59368 0.0
C112 C 0.71859 0.56748 0.74403 0.0
C113 C 0.60959 0.45224 0.69782 0.0
O114 O 0.61891 0.55097 0.75992 0.0
O115 O 0.03674 0.58674 0.89378 0.0
Zn116 Zn 0.07556 0.60835 0.85687 0.0
O117 O 0.09595 0.65684 0.85666 0.0
Zn118 Zn 0.09373 0.6726 0.80436 0.0
Zn119 Zn 0.07167 0.66903 0.89308 0.0
Zn120 Zn 0.14246 0.67731 0.87333 0.0
O121 O 0.13977 0.70463 0.78344 0.0
O122 O 0.17278 0.70011 0.82777 0.0
O123 O 0.06069 0.58891 0.80334 0.0
O124 O 0.07382 0.63382 0.76684 0.0
O125 O 0.06392 0.69312 0.80307 0.0
O126 O 0.04559 0.68618 0.86451 0.0
O127 O 0.10282 0.70643 0.92745 0.0
O128 O 0.10783 0.59486 0.8778 0.0
O129 O 0.15296 0.71304 0.91392 0.0
O130 O 0.15324 0.64283 0.89423 0.0
C131 C 0.02757 0.59857 0.92179 0.0
C132 C 0.16869 0.71089 0.79502 0.0
C133 C 0.04586 0.69582 0.82951 0.0
C134 C 0.06181 0.60229 0.7703 0.0
C135 C 0.13441 0.72166 0.93249 0.0
C136 C 0.13707 0.61088 0.89274 0.0
O137 O 0.04042 0.63008 0.92654 0.0
H138 H 0.33038 0.00601 0.92368 0.0
H139 H 0.27567 0.95455 0.92445 0.0
H140 H 0.25945 0.97561 0.04314 0.0
H141 H 0.31418 0.02672 0.04269 0.0
H142 H 0.26206 0.91923 0.03846 0.0
H143 H 0.20269 0.96485 0.97344 0.0
H144 H 0.19205 -0.00287 0.92336 0.0
H145 H 0.19081 0.93111 0.83362 0.0
H146 H 0.20193 0.8987 0.88303 0.0
H147 H 0.10311 0.75238 0.96678 0.0
H148 H 0.12976 0.81009 0.99046 0.0
H149 H 0.22732 0.82013 0.97292 0.0
H150 H 0.20104 0.76251 0.94909 0.0
H151 H 0.17029 0.86236 0.94138 0.0
H152 H 0.28205 0.87622 0.03439 0.0
H153 H 0.29373 0.84386 0.08316 0.0
H154 H 0.19007 0.79201 0.11783 0.0
H155 H 0.17777 0.82425 0.06929 0.0
C156 C 0.31452 0.00034 0.94929 0.0
C157 C 0.32666 0.01976 0.98341 0.0
C158 C 0.28322 0.97101 0.9497 0.0
C159 C 0.26373 0.96119 0.98405 0.0
C160 C 0.27424 0.9827 0.01649 0.0
C161 C 0.30553 0.01178 0.0162 0.0
C162 C 0.23687 0.92597 0.98882 0.0
C163 C 0.24156 0.90688 0.01769 0.0
C164 C 0.21005 0.91003 0.96197 0.0
C165 C 0.20325 0.92937 0.93202 0.0
C166 C 0.20037 0.95732 0.943 0.0
C167 C 0.19421 0.97563 0.91472 0.0
C168 C 0.19078 0.96619 0.87533 0.0
C169 C 0.19344 0.93838 0.86415 0.0
C170 C 0.1996 0.91998 0.89231 0.0
C171 C 0.13024 0.76651 0.96893 0.0
C172 C 0.15003 0.75304 0.95545 0.0
C173 C 0.14535 0.7995 0.9824 0.0
C174 C 0.18039 0.81927 0.98323 0.0
C175 C 0.20017 0.80509 0.97278 0.0
C176 C 0.18511 0.77218 0.95905 0.0
C177 C 0.19655 0.85574 0.98988 0.0
C178 C 0.19003 0.87495 0.963 0.0
C179 C 0.2218 0.87188 0.01847 0.0
C180 C 0.229 0.85266 0.04815 0.0
C181 C 0.26178 0.8581 0.05261 0.0
C182 C 0.2685 0.83972 0.08018 0.0
C183 C 0.24269 0.81593 0.10369 0.0
C184 C 0.21005 0.81043 0.09959 0.0
C185 C 0.20317 0.82869 0.07196 0.0
H186 H 0.24797 0.80174 0.12504 0.0
H187 H 0.18602 0.9804 0.85348 0.0
H188 H 0.29425 0.29885 0.21952 0.0
H189 H 0.3068 0.25445 0.20704 0.0
H190 H 0.29697 0.26436 0.08259 0.0
H191 H 0.28633 0.31069 0.09484 0.0
H192 H 0.28894 0.19809 0.17622 0.0
H193 H 0.3613 0.26457 0.03566 0.0
H194 H 0.38469 0.31989 0.00341 0.0
H195 H 0.39724 0.36726 0.1154 0.0
H196 H 0.37438 0.31231 0.14832 0.0
H197 H 0.36253 0.10858 0.09616 0.0
H198 H 0.33205 0.13687 0.11456 0.0
H199 H 0.42585 0.22888 0.13306 0.0
H200 H 0.45661 0.20098 0.11151 0.0
H201 H 0.39012 0.24286 0.09183 0.0
H202 H 0.36661 0.1798 0.21 0.0
H203 H 0.34842 0.12985 0.25175 0.0
H204 H 0.24945 0.08498 0.20208 0.0
H205 H 0.26715 0.13449 0.15965 0.0
C206 C 0.29396 0.29117 0.18944 0.0
C207 C 0.2907 0.3092 0.15805 0.0
C208 C 0.30091 0.26548 0.18238 0.0
C209 C 0.30414 0.25702 0.14383 0.0
C210 C 0.29567 0.27136 0.11257 0.0
C211 C 0.28935 0.29767 0.1196 0.0
C212 C 0.32158 0.23776 0.13696 0.0
C213 C 0.31091 0.20765 0.15752 0.0
C214 C 0.35104 0.25098 0.11377 0.0
C215 C 0.36571 0.28428 0.09435 0.0
C216 C 0.36917 0.28682 0.05338 0.0
C217 C 0.3823 0.31809 0.035 0.0
C218 C 0.39222 0.34702 0.05734 0.0
C219 C 0.38938 0.3448 0.09813 0.0
C220 C 0.37637 0.31361 0.11666 0.0
C221 C 0.37677 0.13462 0.10518 0.0
C222 C 0.41199 0.15265 0.10237 0.0
C223 C 0.35922 0.15079 0.11587 0.0
C224 C 0.37654 0.18502 0.12549 0.0
C225 C 0.41188 0.20249 0.12545 0.0
C226 C 0.42948 0.18654 0.1135 0.0
C227 C 0.35783 0.20321 0.13157 0.0
C228 C 0.36815 0.23307 0.11055 0.0
C229 C 0.32907 0.1906 0.1559 0.0
C230 C 0.31831 0.16075 0.18139 0.0
C231 C 0.34103 0.15918 0.20777 0.0
C232 C 0.3308 0.13096 0.2316 0.0
C233 C 0.29783 0.10422 0.2295 0.0
C234 C 0.27499 0.10569 0.20364 0.0
C235 C 0.2851 0.13384 0.17973 0.0
H236 H 0.28996 0.0824 0.24797 0.0
H237 H 0.40227 0.37117 0.04304 0.0
H238 H 0.97511 0.31197 0.40878 0.0
H239 H 0.02977 0.31555 0.40559 0.0
H240 H 0.01141 0.28326 0.28504 0.0
H241 H 0.95696 0.28032 0.28755 0.0
H242 H 0.06664 0.28404 0.38117 0.0
H243 H 0.07174 0.34619 0.23328 0.0
H244 H 0.04133 0.36988 0.19801 0.0
H245 H 0.0147 0.39633 0.30751 0.0
H246 H 0.04552 0.37342 0.34334 0.0
H247 H 0.2216 0.33861 0.27921 0.0
H248 H 0.1653 0.31318 0.30725 0.0
H249 H 0.17793 0.41176 0.3258 0.0
H250 H 0.23361 0.43718 0.29603 0.0
H251 H 0.12525 0.37702 0.28567 0.0
H252 H 0.16854 0.35634 0.40297 0.0
H253 H 0.19934 0.33616 0.4435 0.0
H254 H 0.13289 0.23511 0.4054 0.0
H255 H 0.10196 0.25474 0.3642 0.0
C256 C 0.98206 0.30434 0.38199 0.0
C257 C 0.96234 0.29713 0.34791 0.0
C258 C 0.01326 0.30616 0.38038 0.0
C259 C 0.02484 0.30057 0.34479 0.0
C260 C 0.00296 0.28815 0.3126 0.0
C261 C 0.97194 0.2867 0.31403 0.0
C262 C 0.0613 0.31561 0.33855 0.0
C263 C 0.07962 0.30421 0.36017 0.0
C264 C 0.07819 0.34281 0.31227 0.0
C265 C 0.06059 0.35773 0.29094 0.0
C266 C 0.05955 0.35724 0.24978 0.0
C267 C 0.04225 0.37052 0.22971 0.0
C268 C 0.02601 0.38449 0.25052 0.0
C269 C 0.02723 0.38542 0.29144 0.0
C270 C 0.04462 0.37231 0.31163 0.0
C271 C 0.21266 0.35486 0.29019 0.0
C272 C 0.23166 0.38982 0.28499 0.0
C273 C 0.18053 0.34029 0.30642 0.0
C274 C 0.16733 0.36055 0.31855 0.0
C275 C 0.1875 0.39563 0.31631 0.0
C276 C 0.21928 0.41015 0.29933 0.0
C277 C 0.13119 0.34539 0.32798 0.0
C278 C 0.11268 0.35684 0.30677 0.0
C279 C 0.11458 0.31899 0.35544 0.0
C280 C 0.1331 0.30707 0.38022 0.0
C281 C 0.16066 0.32985 0.40297 0.0
C282 C 0.17811 0.3185 0.42613 0.0
C283 C 0.16813 0.28438 0.42696 0.0
C284 C 0.14061 0.26153 0.40471 0.0
C285 C 0.12308 0.27276 0.38148 0.0
H286 H 0.18167 0.27565 0.4449 0.0
H287 H 0.01258 0.39468 0.23494 0.0
H288 H 0.77445 0.23629 0.33588 0.0
H289 H 0.74461 0.17539 0.33878 0.0
H290 H 0.78552 0.17949 0.45393 0.0
H291 H 0.81724 0.24082 0.45018 0.0
H292 H 0.79407 0.13825 0.41024 0.0
H293 H 0.69803 0.15446 0.4338 0.0
H294 H 0.66042 0.17656 0.41708 0.0
H295 H 0.63761 0.12522 0.3065 0.0
H296 H 0.67513 0.10291 0.32258 0.0
H297 H 0.68337 0.98646 0.4993 0.0
H298 H 0.72308 0.04104 0.47239 0.0
H299 H 0.67465 0.01082 0.35946 0.0
H300 H 0.6343 0.95603 0.3865 0.0
H301 H 0.67236 0.06322 0.38644 0.0
H302 H 0.75886 0.03769 0.36887 0.0
H303 H 0.79609 0.01499 0.38443 0.0
H304 H 0.83742 0.08297 0.48153 0.0
H305 H 0.8001 0.10577 0.46697 0.0
C306 C 0.7764 0.22431 0.36234 0.0
C307 C 0.7981 0.2433 0.39294 0.0
C308 C 0.75931 0.18938 0.36388 0.0
C309 C 0.76268 0.1728 0.39659 0.0
C310 C 0.78275 0.19179 0.42824 0.0
C311 C 0.80056 0.22677 0.42631 0.0
C312 C 0.74698 0.13578 0.39701 0.0
C313 C 0.76737 0.12179 0.40553 0.0
C314 C 0.71257 0.11432 0.38847 0.0
C315 C 0.68957 0.12727 0.37925 0.0
C316 C 0.68505 0.14799 0.40589 0.0
C317 C 0.66372 0.16051 0.39655 0.0
C318 C 0.64666 0.15234 0.36073 0.0
C319 C 0.6508 0.13151 0.33425 0.0
C320 C 0.67202 0.11887 0.3435 0.0
C321 C 0.68189 0.99096 0.46838 0.0
C322 C 0.65534 0.96729 0.44522 0.0
C323 C 0.70481 0.02215 0.4529 0.0
C324 C 0.70168 0.03007 0.41396 0.0
C325 C 0.6774 0.00517 0.38962 0.0
C326 C 0.65446 0.97383 0.4051 0.0
C327 C 0.71911 0.06567 0.40177 0.0
C328 C 0.69916 0.07954 0.39067 0.0
C329 C 0.75391 0.08696 0.40788 0.0
C330 C 0.77652 0.07337 0.41686 0.0
C331 C 0.77571 0.04766 0.39372 0.0
C332 C 0.79687 0.03479 0.40234 0.0
C333 C 0.81908 0.04751 0.43397 0.0
C334 C 0.82021 0.07316 0.45702 0.0
C335 C 0.7991 0.08611 0.44854 0.0
H336 H 0.83545 0.03751 0.44059 0.0
H337 H 0.63021 0.16211 0.35352 0.0
H338 H 0.6481 0.89078 0.59916 0.0
H339 H 0.6774 0.86197 0.62232 0.0
H340 H 0.58262 0.77566 0.65351 0.0
H341 H 0.553 0.80392 0.6299 0.0
H342 H 0.68101 0.8248 0.68804 0.0
H343 H 0.57878 0.71045 0.60429 0.0
H344 H 0.53702 0.69807 0.55206 0.0
H345 H 0.59948 0.79594 0.5026 0.0
H346 H 0.64186 0.80871 0.5542 0.0
H347 H 0.66763 0.66807 0.72796 0.0
H348 H 0.66702 0.7202 0.71852 0.0
H349 H 0.69995 0.72546 0.599 0.0
H350 H 0.69998 0.67276 0.60789 0.0
H351 H 0.64308 0.72539 0.60177 0.0
H352 H 0.74829 0.78724 0.66508 0.0
H353 H 0.79136 0.80068 0.71586 0.0
H354 H 0.72826 0.81025 0.80152 0.0
H355 H 0.68457 0.79638 0.75141 0.0
C356 C 0.63353 0.86611 0.61218 0.0
C357 C 0.59819 0.84915 0.61167 0.0
C358 C 0.65037 0.84978 0.62552 0.0
C359 C 0.632 0.81653 0.63859 0.0
C360 C 0.59706 0.80122 0.64284 0.0
C361 C 0.5802 0.81736 0.62925 0.0
C362 C 0.64816 0.79585 0.64091 0.0
C363 C 0.67292 0.80306 0.66928 0.0
C364 C 0.63828 0.76835 0.61522 0.0
C365 C 0.61338 0.76061 0.58333 0.0
C366 C 0.58371 0.72924 0.58213 0.0
C367 C 0.55992 0.72217 0.55264 0.0
C368 C 0.56558 0.74621 0.52403 0.0
C369 C 0.5951 0.77736 0.52481 0.0
C370 C 0.61901 0.78454 0.5542 0.0
C371 C 0.67551 0.68065 0.69989 0.0
C372 C 0.68314 0.66589 0.66839 0.0
C373 C 0.67547 0.71069 0.69468 0.0
C374 C 0.68343 0.72667 0.65806 0.0
C375 C 0.69367 0.71342 0.62748 0.0
C376 C 0.69357 0.68326 0.6326 0.0
C377 C 0.67531 0.7534 0.65001 0.0
C378 C 0.65182 0.74735 0.62033 0.0
C379 C 0.68679 0.78211 0.67414 0.0
C380 C 0.71304 0.79058 0.70445 0.0
C381 C 0.74347 0.79197 0.6948 0.0
C382 C 0.76803 0.79971 0.72347 0.0
C383 C 0.76254 0.80627 0.7619 0.0
C384 C 0.73249 0.80517 0.77173 0.0
C385 C 0.70783 0.79743 0.74318 0.0
H386 H 0.78158 0.81225 0.78405 0.0
H387 H 0.54712 0.74067 0.50124 0.0
H388 H 0.01497 0.68713 0.75913 0.0
H389 H 0.96194 0.68536 0.74832 0.0
H390 H 0.96721 0.7251 0.86446 0.0
H391 H 0.01973 0.72518 0.87606 0.0
H392 H 0.91461 0.66941 0.86033 0.0
H393 H 0.9565 0.76338 0.7784 0.0
H394 H 0.99041 0.80382 0.72696 0.0
H395 H 0.94114 0.72786 0.63905 0.0
H396 H 0.90728 0.68676 0.68994 0.0
H397 H 0.73987 0.61179 0.80517 0.0
H398 H 0.79822 0.64977 0.82482 0.0
H399 H 0.83202 0.60358 0.74008 0.0
H400 H 0.77404 0.56524 0.72067 0.0
H401 H 0.86262 0.67868 0.73706 0.0
H402 H 0.83428 0.58385 0.82632 0.0
H403 H 0.80057 0.54508 0.87927 0.0
H404 H 0.82526 0.62876 0.95514 0.0
H405 H 0.85878 0.66804 0.90238 0.0
C406 C 0.00554 0.69676 0.78177 0.0
C407 C 0.02093 0.70556 0.8187 0.0
C408 C 0.9752 0.69601 0.77549 0.0
C409 C 0.96033 0.70491 0.80571 0.0
C410 C 0.97802 0.7178 0.84088 0.0
C411 C 0.00799 0.71784 0.84748 0.0
C412 C 0.92399 0.69354 0.8036 0.0
C413 C 0.90339 0.67253 0.83383 0.0
C414 C 0.90906 0.69733 0.76913 0.0
C415 C 0.92931 0.72192 0.73813 0.0
C416 C 0.953 0.7552 0.74813 0.0
C417 C 0.97222 0.77827 0.71905 0.0
C418 C 0.96793 0.76842 0.67977 0.0
C419 C 0.94439 0.73547 0.66949 0.0
C420 C 0.92511 0.71229 0.69846 0.0
C421 C 0.75971 0.6093 0.79129 0.0
C422 C 0.75243 0.58559 0.76134 0.0
C423 C 0.79291 0.63112 0.80236 0.0
C424 C 0.81913 0.62967 0.78331 0.0
C425 C 0.81191 0.60518 0.75465 0.0
C426 C 0.77879 0.58306 0.74399 0.0
C427 C 0.85435 0.65372 0.7927 0.0
C428 C 0.87429 0.67695 0.76394 0.0
C429 C 0.86872 0.65248 0.82869 0.0
C430 C 0.84859 0.62885 0.86029 0.0
C431 C 0.83222 0.59397 0.85416 0.0
C432 C 0.81323 0.57191 0.88416 0.0
C433 C 0.81066 0.58445 0.9205 0.0
C434 C 0.82719 0.61908 0.92695 0.0
C435 C 0.84618 0.64125 0.89702 0.0
H436 H 0.79596 0.56733 0.9437 0.0
H437 H 0.98284 0.78632 0.6573 0.0
H438 H 0.49593 0.01114 0.07739 0.0
H439 H 0.50206 0.97999 0.13182 0.0
H440 H 0.41191 0.96903 0.18479 0.0
H441 H 0.40542 -7e-05 0.13054 0.0
H442 H 0.51215 0.00307 0.20663 0.0
H443 H 0.37625 0.89729 0.24134 0.0
H444 H 0.32416 0.85793 0.20662 0.0
H445 H 0.38115 0.86461 0.10398 0.0
H446 H 0.43364 0.90364 0.13823 0.0
H447 H 0.49322 0.95187 0.40463 0.0
H448 H 0.47869 0.96619 0.34113 0.0
H449 H 0.48507 0.8849 0.28673 0.0
H450 H 0.50002 0.87066 0.34983 0.0
H451 H 0.4286 0.89259 0.26203 0.0
H452 H 0.54905 0.95441 0.27701 0.0
H453 H 0.60134 0.99123 0.313 0.0
H454 H 0.57679 0.06995 0.31342 0.0
H455 H 0.52407 0.03339 0.27794 0.0
C456 C 0.47699 0.00148 0.10017 0.0
C457 C 0.45039 0.00833 0.09989 0.0
C458 C 0.4806 0.98377 0.13126 0.0
C459 C 0.45747 0.97229 0.16224 0.0
C460 C 0.42986 0.97742 0.16094 0.0
C461 C 0.42632 0.99527 0.13001 0.0
C462 C 0.46411 0.95836 0.19794 0.0
C463 C 0.49396 0.97879 0.21854 0.0
C464 C 0.44033 0.92673 0.21343 0.0
C465 C 0.40888 0.90362 0.19231 0.0
C466 C 0.37769 0.89032 0.21138 0.0
C467 C 0.34809 0.86807 0.19179 0.0
C468 C 0.34935 0.85881 0.15313 0.0
C469 C 0.38021 0.87189 0.1339 0.0
C470 C 0.4099 0.89414 0.15337 0.0
C471 C 0.49104 0.93677 0.37925 0.0
C472 C 0.49804 0.91038 0.38202 0.0
C473 C 0.48282 0.94499 0.34311 0.0
C474 C 0.48107 0.92666 0.30948 0.0
C475 C 0.48633 0.89925 0.3125 0.0
C476 C 0.49504 0.89133 0.34846 0.0
C477 C 0.47617 0.93757 0.27067 0.0
C478 C 0.44674 0.91672 0.24976 0.0
C479 C 0.50038 0.9687 0.25467 0.0
C480 C 0.53246 0.99104 0.27516 0.0
C481 C 0.5547 0.9795 0.285 0.0
C482 C 0.58443 0.00033 0.30526 0.0
C483 C 0.59234 0.03287 0.31557 0.0
C484 C 0.57062 0.04473 0.30544 0.0
C485 C 0.54082 0.02397 0.28522 0.0
H486 H 0.61529 0.04887 0.33141 0.0
H487 H 0.32644 0.84136 0.13817 0.0
H488 H 0.37572 0.40972 0.32735 0.0
H489 H 0.41459 0.42884 0.38255 0.0
H490 H 0.49705 0.48825 0.30446 0.0
H491 H 0.45827 0.46954 0.24877 0.0
H492 H 0.51212 0.45499 0.36563 0.0
H493 H 0.46874 0.5281 0.34668 0.0
H494 H 0.42624 0.545 0.33575 0.0
H495 H 0.38077 0.50231 0.44662 0.0
H496 H 0.42252 0.48431 0.45777 0.0
H497 H 0.61797 0.55652 0.5205 0.0
H498 H 0.58568 0.54186 0.45969 0.0
H499 H 0.49503 0.47777 0.52397 0.0
H500 H 0.52705 0.49217 0.58511 0.0
H501 H 0.48825 0.51858 0.46588 0.0
H502 H 0.53388 0.4435 0.48031 0.0
H503 H 0.58018 0.4315 0.48895 0.0
H504 H 0.62634 0.48526 0.38301 0.0
H505 H 0.58054 0.49799 0.37405 0.0
C506 C 0.40219 0.42629 0.32165 0.0
C507 C 0.41384 0.43847 0.28371 0.0
C508 C 0.42431 0.43729 0.35328 0.0
C509 C 0.45843 0.46037 0.34746 0.0
C510 C 0.47068 0.47058 0.30938 0.0
C511 C 0.44849 0.45986 0.27767 0.0
C512 C 0.48061 0.47544 0.38159 0.0
C513 C 0.50725 0.46928 0.38732 0.0
C514 C 0.47414 0.49419 0.4096 0.0
C515 C 0.44856 0.50446 0.40285 0.0
C516 C 0.44942 0.52187 0.36851 0.0
C517 C 0.4255 0.53174 0.36231 0.0
C518 C 0.4008 0.52472 0.39046 0.0
C519 C 0.39991 0.50771 0.42482 0.0
C520 C 0.42368 0.49762 0.43108 0.0
C521 C 0.5911 0.5396 0.52186 0.0
C522 C 0.57509 0.52528 0.55764 0.0
C523 C 0.57276 0.53121 0.48706 0.0
C524 C 0.53816 0.50848 0.48747 0.0
C525 C 0.52181 0.4953 0.52322 0.0
C526 C 0.54014 0.50349 0.55805 0.0
C527 C 0.51914 0.4973 0.45048 0.0
C528 C 0.49316 0.50436 0.44412 0.0
C529 C 0.52667 0.48001 0.42155 0.0
C530 C 0.55397 0.47199 0.42674 0.0
C531 C 0.55404 0.45298 0.45902 0.0
C532 C 0.58017 0.44601 0.46395 0.0
C533 C 0.60624 0.45769 0.43661 0.0
C534 C 0.60616 0.47627 0.4042 0.0
C535 C 0.58011 0.48335 0.39917 0.0
H536 H 0.62645 0.45229 0.44048 0.0
H537 H 0.38241 0.53252 0.38568 0.0
H538 H 0.02692 0.53373 0.76713 0.0
H539 H 0.0069 0.49845 0.70876 0.0
H540 H 0.04914 0.58687 0.63566 0.0
H541 H 0.06856 0.62239 0.69387 0.0
H542 H 0.98832 0.54283 0.61152 0.0
H543 H 0.08778 0.53979 0.6461 0.0
H544 H 0.12583 0.53146 0.68973 0.0
H545 H 0.0506 0.42802 0.70538 0.0
H546 H 0.0119 0.43586 0.66225 0.0
H547 H 0.98107 0.46503 0.43098 0.0
H548 H 0.00336 0.49895 0.48999 0.0
H549 H 0.95179 0.40999 0.56146 0.0
H550 H 0.9294 0.37561 0.5025 0.0
H551 H 0.01693 0.45367 0.58648 0.0
H552 H 0.91805 0.45855 0.54855 0.0
H553 H 0.88229 0.46913 0.50348 0.0
H554 H 0.95985 0.57214 0.49216 0.0
H555 H -0.0037 0.56208 0.53659 0.0
C556 C 0.03197 0.54569 0.73864 0.0
C557 C 0.0494 0.58086 0.73511 0.0
C558 C 0.02064 0.52548 0.70532 0.0
C559 C 0.02696 0.54007 0.66791 0.0
C560 C 0.04406 0.57514 0.6643 0.0
C561 C 0.05516 0.59538 0.6976 0.0
C562 C 0.01536 0.51878 0.63247 0.0
C563 C -0.00506 0.52363 0.60577 0.0
C564 C 0.02354 0.49335 0.62546 0.0
C565 C 0.04682 0.48851 0.65126 0.0
C566 C 0.07925 0.51533 0.65908 0.0
C567 C 0.10096 0.51069 0.68368 0.0
C568 C 0.09061 0.47926 0.70041 0.0
C569 C 0.05856 0.45237 0.69246 0.0
C570 C 0.03674 0.45689 0.66791 0.0
C571 C 0.97467 0.45254 0.45918 0.0
C572 C 0.95319 0.41761 0.46205 0.0
C573 C 0.98733 0.47202 0.49285 0.0
C574 C 0.97869 0.45696 0.52994 0.0
C575 C 0.95852 0.42201 0.53298 0.0
C576 C 0.94575 0.40245 0.49929 0.0
C577 C 0.99006 0.47787 0.56557 0.0
C578 C 0.01036 0.47289 0.59231 0.0
C579 C 0.98209 0.50347 0.57238 0.0
C580 C 0.96007 0.50945 0.5456 0.0
C581 C 0.92761 0.48338 0.53617 0.0
C582 C 0.90719 0.4893 0.51078 0.0
C583 C 0.91886 0.52126 0.49487 0.0
C584 C 0.95089 0.54738 0.50444 0.0
C585 C 0.97143 0.54159 0.52972 0.0
H586 H 0.90315 0.52583 0.47513 0.0
H587 H 0.10744 0.47572 0.71946 0.0
H588 H 0.50965 0.98158 0.57407 0.0
H589 H 0.50307 0.00918 0.63169 0.0
H590 H 0.5929 0.01712 0.68203 0.0
H591 H 0.59971 0.98947 0.62468 0.0
H592 H 0.53783 0.98193 0.72788 0.0
H593 H 0.59042 0.08666 0.65974 0.0
H594 H 0.59998 0.12589 0.60549 0.0
H595 H 0.50041 0.1104 0.61992 0.0
H596 H 0.49001 0.07063 0.67386 0.0
H597 H 0.52556 0.05475 0.90527 0.0
H598 H 0.54516 0.04423 0.84334 0.0
H599 H 0.46112 0.0415 0.7833 0.0
H600 H 0.44173 0.05283 0.84497 0.0
H601 H 0.51755 0.07769 0.74282 0.0
H602 H 0.46239 0.96929 0.80462 0.0
H603 H 0.45063 0.92849 0.85777 0.0
H604 H 0.55258 0.94908 0.85338 0.0
H605 H 0.56506 0.99034 0.80052 0.0
C606 C 0.52857 0.99004 0.59685 0.0
C607 C 0.55485 0.98273 0.59509 0.0
C608 C 0.52482 0.00594 0.62973 0.0
C609 C 0.54738 0.01494 0.66118 0.0
C610 C 0.57515 0.01019 0.65808 0.0
C611 C 0.57897 0.99437 0.62524 0.0
C612 C 0.53924 0.02444 0.69925 0.0
C613 C 0.53411 0.00332 0.73137 0.0
C614 C 0.53323 0.0516 0.70327 0.0
C615 C 0.53933 0.07538 0.67065 0.0
C616 C 0.57042 0.09133 0.6511 0.0
C617 C 0.57602 0.11374 0.62045 0.0
C618 C 0.55079 0.12057 0.60919 0.0
C619 C 0.51992 0.10505 0.62863 0.0
C620 C 0.51417 0.0826 0.65927 0.0
C621 C 0.51104 0.05162 0.87899 0.0
C622 C 0.48197 0.05446 0.88011 0.0
C623 C 0.52231 0.04564 0.84359 0.0
C624 C 0.50445 0.04187 0.80879 0.0
C625 C 0.47532 0.04446 0.80983 0.0
C626 C 0.46416 0.0507 0.84515 0.0
C627 C 0.51608 0.03509 0.77129 0.0
C628 C 0.52168 0.05656 0.73934 0.0
C629 C 0.5222 0.008 0.76716 0.0
C630 C 0.51475 0.98317 0.79892 0.0
C631 C 0.48237 0.96531 0.81521 0.0
C632 C 0.47556 0.94207 0.84524 0.0
C633 C 0.50087 0.93627 0.85903 0.0
C634 C 0.53302 0.95364 0.84272 0.0
C635 C 0.53997 0.97694 0.81271 0.0
H636 H 0.49555 0.91826 0.88227 0.0
H637 H 0.55519 0.13794 0.58547 0.0
H638 H 0.36818 0.40751 0.03403 0.0
H639 H 0.40192 0.41951 0.97435 0.0
H640 H 0.47281 0.51737 0.01948 0.0
H641 H 0.43961 0.50544 0.07948 0.0
H642 H 0.45015 0.51659 0.94032 0.0
H643 H 0.49355 0.46123 0.02339 0.0
H644 H 0.4897 0.41479 0.0635 0.0
H645 H 0.45217 0.3487 0.96433 0.0
H646 H 0.45525 0.39463 0.92376 0.0
H647 H 0.60453 0.54118 0.83202 0.0
H648 H 0.56689 0.52467 0.88835 0.0
H649 H 0.48136 0.48542 0.811 0.0
H650 H 0.5189 0.50129 0.75403 0.0
H651 H 0.50895 0.45464 0.90413 0.0
H652 H 0.43192 0.51584 0.86154 0.0
H653 H 0.43657 0.56243 0.82086 0.0
H654 H 0.54317 0.61731 0.83987 0.0
H655 H 0.53905 0.57128 0.88109 0.0
C656 C 0.39098 0.43158 0.03124 0.0
C657 C 0.40127 0.45558 0.06139 0.0
C658 C 0.4102 0.43832 -0.00278 0.0
C659 C 0.43972 0.46931 0.99265 0.0
C660 C 0.45 0.49334 0.02257 0.0
C661 C 0.43113 0.48642 0.05685 0.0
C662 C 0.45995 0.47695 0.95656 0.0
C663 C 0.4629 0.50296 0.93231 0.0
C664 C 0.47635 0.45896 0.94613 0.0
C665 C 0.47422 0.43128 0.97066 0.0
C666 C 0.48411 0.43671 0.01024 0.0
C667 C 0.48219 0.41051 0.03302 0.0
C668 C 0.47073 0.37883 0.01646 0.0
C669 C 0.46109 0.37327 0.9771 0.0
C670 C 0.46289 0.39937 0.95421 0.0
C671 C 0.57773 0.52923 0.82684 0.0
C672 C 0.56468 0.5227 0.78852 0.0
C673 C 0.55631 0.51962 0.85909 0.0
C674 C 0.52151 0.50383 0.85365 0.0
C675 C 0.50825 0.49758 0.81557 0.0
C676 C 0.52968 0.50672 0.78317 0.0
C677 C 0.4993 0.49437 0.88814 0.0
C678 C 0.49588 0.46797 0.91195 0.0
C679 C 0.48242 0.5119 0.89817 0.0
C680 C 0.48521 0.53994 0.87392 0.0
C681 C 0.45633 0.53789 0.85707 0.0
C682 C 0.45887 0.5642 0.83394 0.0
C683 C 0.49017 0.59275 0.82765 0.0
C684 C 0.51897 0.59511 0.8446 0.0
C685 C 0.51655 0.56889 0.86779 0.0
H686 H 0.49209 0.61307 0.80972 0.0
H687 H 0.46921 0.35856 0.03417 0.0
H688 H 0.01379 0.61517 0.99351 0.0
H689 H -0.00421 0.57919 0.05132 0.0
H690 H 0.97731 0.49421 0.9801 0.0
H691 H -0.00471 0.52992 0.92191 0.0
H692 H 0.93294 0.47833 0.0469 0.0
H693 H 0.04989 0.53333 0.0131 0.0
H694 H 0.10422 0.58184 0.99383 0.0
H695 H 0.10677 0.63237 0.10067 0.0
H696 H 0.05212 0.58432 0.12028 0.0
H697 H 0.9553 0.38484 0.19385 0.0
H698 H 0.96916 0.41698 0.13311 0.0
H699 H 0.99041 0.50586 0.19813 0.0
H700 H 0.97666 0.47402 0.25925 0.0
H701 H 0.03323 0.51784 0.13259 0.0
H702 H 0.91455 0.45902 0.16584 0.0
H703 H 0.86129 0.40827 0.18324 0.0
H704 H 0.86315 0.36201 0.07473 0.0
H705 H 0.91678 0.41227 0.05701 0.0
C706 C 0.00479 0.58861 0.98979 0.0
C707 C 0.00686 0.57557 0.95331 0.0
C708 C -0.00545 0.56813 0.02289 0.0
C709 C 0.98608 0.53439 0.01985 0.0
C710 C 0.98405 0.52032 0.98288 0.0
C711 C -0.00555 0.54082 0.94972 0.0
C712 C 0.98487 0.51562 0.05537 0.0
C713 C 0.95485 0.48671 0.0655 0.0
C714 C 0.01366 0.52666 0.07931 0.0
C715 C 0.04676 0.5554 0.06795 0.0
C716 C 0.06191 0.5549 0.03234 0.0
C717 C 0.09277 0.58228 0.02137 0.0
C718 C 0.10889 0.61021 0.04597 0.0
C719 C 0.09422 0.61074 0.08163 0.0
C720 C 0.06331 0.58343 0.0927 0.0
C721 C 0.96375 0.41142 0.19546 0.0
C722 C 0.96413 0.42673 0.23131 0.0
C723 C 0.97157 0.42968 0.16069 0.0
C724 C 0.97992 0.46344 0.1613 0.0
C725 C 0.98367 0.47966 0.19724 0.0
C726 C 0.97576 0.46141 0.23209 0.0
C727 C 0.98114 0.4808 0.12454 0.0
C728 C 0.01127 0.50943 0.11405 0.0
C729 C 0.95254 0.46917 0.10005 0.0
C730 C 0.91986 0.43928 0.11027 0.0
C731 C 0.90372 0.43794 0.1458 0.0
C732 C 0.87346 0.40927 0.15572 0.0
C733 C 0.85889 0.3819 0.13015 0.0
C734 C 0.87449 0.38321 0.09454 0.0
C735 C 0.90482 0.41178 0.08453 0.0
H736 H 0.83548 0.35972 0.13788 0.0
H737 H 0.13278 0.63139 0.03743 0.0
H738 H 0.43161 0.1637 0.87209 0.0
H739 H 0.44831 0.2093 0.82464 0.0
H740 H 0.52972 0.27575 0.9006 0.0
H741 H 0.51282 0.23096 0.94835 0.0
H742 H 0.50214 0.30806 0.86947 0.0
H743 H 0.54085 0.23372 0.82303 0.0
H744 H 0.53415 0.17951 0.80144 0.0
H745 H 0.46995 0.17537 0.70747 0.0
H746 H 0.47591 0.22939 0.72887 0.0
H747 H 0.63246 0.4257 0.75305 0.0
H748 H 0.5997 0.37227 0.7872 0.0
H749 H 0.51524 0.34702 0.71143 0.0
H750 H 0.54759 0.40083 0.67736 0.0
H751 H 0.53483 0.29195 0.73605 0.0
H752 H 0.50424 0.37332 0.78252 0.0
H753 H 0.51876 0.43007 0.80478 0.0
H754 H 0.57474 0.42225 0.90102 0.0
H755 H 0.56114 0.36575 0.87887 0.0
C756 C 0.45281 0.18815 0.87886 0.0
C757 C 0.47107 0.19362 0.91384 0.0
C758 C 0.46237 0.21411 0.85167 0.0
C759 C 0.49053 0.24573 0.85889 0.0
C760 C 0.50789 0.25153 0.89444 0.0
C761 C 0.49824 0.2258 0.92168 0.0
C762 C 0.50329 0.2726 0.82903 0.0
C763 C 0.50912 0.30444 0.84026 0.0
C764 C 0.51205 0.26778 0.79074 0.0
C765 C 0.50845 0.23534 0.77786 0.0
C766 C 0.52507 0.2211 0.79797 0.0
C767 C 0.52145 0.19044 0.78573 0.0
C768 C 0.50154 0.17394 0.75318 0.0
C769 C 0.48529 0.18813 0.73274 0.0
C770 C 0.48878 0.21876 0.7449 0.0
C771 C 0.60722 0.40849 0.74296 0.0
C772 C 0.59243 0.41757 0.71285 0.0
C773 C 0.58858 0.37806 0.76253 0.0
C774 C 0.55514 0.35614 0.75188 0.0
C775 C 0.54107 0.36382 0.71991 0.0
C776 C 0.55953 0.39454 0.70066 0.0
C777 C 0.53415 0.32714 0.77701 0.0
C778 C 0.52691 0.29513 0.7649 0.0
C779 C 0.52461 0.33185 0.81477 0.0
C780 C 0.53196 0.36544 0.82877 0.0
C781 C 0.51988 0.38381 0.80823 0.0
C782 C 0.52791 0.41592 0.82085 0.0
C783 C 0.5478 0.42979 0.85416 0.0
C784 C 0.55943 0.41149 0.87514 0.0
C785 C 0.55155 0.37943 0.86258 0.0
H786 H 0.55422 0.45471 0.86375 0.0
H787 H 0.49879 0.15022 0.74373 0.0
H788 H 0.20341 0.63204 0.90523 0.0
H789 H 0.22729 0.60066 0.93635 0.0
H790 H 0.12753 0.51623 0.95307 0.0
H791 H 0.10376 0.54684 0.92044 0.0
H792 H 0.22284 0.58011 0.00587 0.0
H793 H 0.12687 0.44337 0.95706 0.0
H794 H 0.09262 0.41424 0.89904 0.0
H795 H 0.16109 0.49549 0.82537 0.0
H796 H 0.196 0.5249 0.88284 0.0
H797 H 0.23178 0.47177 0.13952 0.0
H798 H 0.20821 0.49605 0.09475 0.0
H799 H 0.24653 0.4668 0.99608 0.0
H800 H 0.26915 0.44125 0.04084 0.0
H801 H 0.18839 0.46133 0.9775 0.0
H802 H 0.29049 0.54633 0.03321 0.0
H803 H 0.33079 0.57783 0.08591 0.0
H804 H 0.26143 0.60482 0.13477 0.0
H805 H 0.22048 0.57306 0.08267 0.0
C806 C 0.18666 0.60663 0.91516 0.0
C807 C 0.15178 0.59179 0.91023 0.0
C808 C 0.2003 0.58874 0.93296 0.0
C809 C 0.17927 0.55589 0.94661 0.0
C810 C 0.14438 0.54114 0.94182 0.0
C811 C 0.13079 0.55875 0.92334 0.0
C812 C 0.19356 0.5378 0.96805 0.0
C813 C 0.21542 0.55421 -0.00056 0.0
C814 C 0.18453 0.50421 0.9592 0.0
C815 C 0.16391 0.48646 0.92436 0.0
C816 C 0.13472 0.45495 0.92846 0.0
C817 C 0.11516 0.4384 0.89567 0.0
C818 C 0.12462 0.45305 0.85857 0.0
C819 C 0.15372 0.48423 0.85415 0.0
C820 C 0.17338 0.50086 0.88683 0.0
C821 C 0.2347 0.47002 0.10825 0.0
C822 C 0.25262 0.45501 0.09363 0.0
C823 C 0.22136 0.48402 0.08272 0.0
C824 C 0.22645 0.48405 0.04216 0.0
C825 C 0.24253 0.46725 0.0273 0.0
C826 C 0.25542 0.45267 0.05288 0.0
C827 C 0.21681 0.50345 0.01577 0.0
C828 C 0.19592 0.48731 0.98357 0.0
C829 C 0.22767 0.53771 0.02294 0.0
C830 C 0.25232 0.55709 0.05419 0.0
C831 C 0.28375 0.55881 0.05534 0.0
C832 C 0.30671 0.57673 0.08509 0.0
C833 C 0.29865 0.59326 0.11372 0.0
C834 C 0.26763 0.59198 0.11259 0.0
C835 C 0.24454 0.57405 0.08294 0.0
H836 H 0.31647 0.60712 0.13673 0.0
H837 H 0.10943 0.44022 0.83323 0.0
H838 H 0.57962 0.20815 0.06052 0.0
H839 H 0.63708 0.23575 0.08532 0.0
H840 H 0.6437 0.14746 0.0589 0.0
H841 H 0.58607 0.11943 0.03437 0.0
H842 H 0.66394 0.16908 0.13236 0.0
H843 H 0.68823 0.21773 0.00516 0.0
H844 H 0.68183 0.24626 0.94734 0.0
H845 H 0.70674 0.33337 0.01704 0.0
H846 H 0.71281 0.30519 0.07545 0.0
H847 H 0.82968 0.25884 0.20971 0.0
H848 H 0.78689 0.22924 0.15917 0.0
H849 H 0.75434 0.30218 0.17011 0.0
H850 H 0.79691 0.33186 0.22004 0.0
H851 H 0.75312 0.28347 0.09426 0.0
H852 H 0.71661 0.23004 0.22248 0.0
H853 H 0.72049 0.20103 0.28151 0.0
H854 H 0.71729 0.12283 0.2097 0.0
H855 H 0.71371 0.15154 0.15024 0.0
C856 C 0.59334 0.19466 0.05964 0.0
C857 C 0.57818 0.16154 0.04559 0.0
C858 C 0.62628 0.21057 0.07357 0.0
C859 C 0.64474 0.19375 0.0735 0.0
C860 C 0.62989 0.16089 0.05901 0.0
C861 C 0.59696 0.14495 0.04501 0.0
C862 C 0.67858 0.20974 0.09133 0.0
C863 C 0.68378 0.19374 0.1234 0.0
C864 C 0.70422 0.24205 0.07989 0.0
C865 C 0.70079 0.25923 0.04477 0.0
C866 C 0.69212 0.24288 0.00824 0.0
C867 C 0.68858 0.25901 0.97534 0.0
C868 C 0.69383 0.29159 0.97852 0.0
C869 C 0.70269 0.30813 0.01461 0.0
C870 C 0.70623 0.29211 0.04762 0.0
C871 C 0.8138 0.26887 0.20074 0.0
C872 C 0.81622 0.29731 0.21923 0.0
C873 C 0.78936 0.25191 0.17201 0.0
C874 C 0.76722 0.26331 0.1614 0.0
C875 C 0.77113 0.29293 0.17799 0.0
C876 C 0.79531 0.30972 0.20674 0.0
C877 C 0.73797 0.24319 0.13584 0.0
C878 C 0.7336 0.25842 0.10243 0.0
C879 C 0.71298 0.21021 0.14614 0.0
C880 C 0.71539 0.19316 0.18191 0.0
C881 C 0.71705 0.20682 0.21928 0.0
C882 C 0.71912 0.1904 0.25281 0.0
C883 C 0.7193 0.1602 0.24931 0.0
C884 C 0.71726 0.14628 0.21233 0.0
C885 C 0.71521 0.1626 0.17872 0.0
H886 H 0.72094 0.14751 0.27521 0.0
H887 H 0.69107 0.30403 0.95301 0.0
H888 H 0.47448 0.74498 0.47839 0.0
H889 H 0.45369 0.69501 0.43765 0.0
H890 H 0.53911 0.74722 0.36089 0.0
H891 H 0.55954 0.79773 0.40091 0.0
H892 H 0.48499 0.72107 0.31978 0.0
H893 H 0.5267 0.68009 0.41937 0.0
H894 H 0.53642 0.66571 0.48582 0.0
H895 H 0.43106 0.59564 0.49837 0.0
H896 H 0.42055 0.61 0.43222 0.0
H897 H 0.43362 0.5704 0.20749 0.0
H898 H 0.46534 0.61934 0.24976 0.0
H899 H 0.37759 0.58828 0.32173 0.0
H900 H 0.34554 0.53956 0.27949 0.0
H901 H 0.43806 0.60312 0.36348 0.0
H902 H 0.39819 0.65067 0.26446 0.0
H903 H 0.39098 0.66446 0.19658 0.0
H904 H 0.49802 0.72148 0.18218 0.0
H905 H 0.50586 0.7076 0.24984 0.0
C906 C 0.48922 0.74565 0.4533 0.0
C907 C 0.51842 0.77543 0.44257 0.0
C908 C 0.47738 0.71696 0.4301 0.0
C909 C 0.49485 0.71732 0.39618 0.0
C910 C 0.52511 0.74643 0.38679 0.0
C911 C 0.53677 0.77526 0.40972 0.0
C912 C 0.47968 0.68871 0.36844 0.0
C913 C 0.47542 0.69534 0.32927 0.0
C914 C 0.46665 0.65505 0.38086 0.0
C915 C 0.47278 0.64645 0.42088 0.0
C916 C 0.50552 0.66189 0.43642 0.0
C917 C 0.51119 0.65369 0.47404 0.0
C918 C 0.48436 0.62989 0.49638 0.0
C919 C 0.45181 0.61414 0.48107 0.0
C920 C 0.44598 0.62229 0.44349 0.0
C921 C 0.42093 0.57429 0.23194 0.0
C922 C 0.38704 0.55123 0.24004 0.0
C923 C 0.4391 0.60215 0.25608 0.0
C924 C 0.42374 0.60719 0.28883 0.0
C925 C 0.3898 0.58464 0.29658 0.0
C926 C 0.37149 0.55705 0.27219 0.0
C927 C 0.44318 0.63571 0.31547 0.0
C928 C 0.44814 0.62897 0.35423 0.0
C929 C 0.45732 0.66926 0.30263 0.0
C930 C 0.4526 0.67778 0.26205 0.0
C931 C 0.42018 0.66589 0.24671 0.0
C932 C 0.41598 0.67378 0.20829 0.0
C933 C 0.44403 0.69375 0.18504 0.0
C934 C 0.47633 0.70597 0.2002 0.0
C935 C 0.48066 0.69811 0.23858 0.0
H936 H 0.44073 0.69984 0.15531 0.0
H937 H 0.48882 0.62358 0.5255 0.0
H938 H 0.78847 0.38457 0.37801 0.0
H939 H 0.76702 0.41766 0.40909 0.0
H940 H 0.86476 0.50644 0.39994 0.0
H941 H 0.88677 0.47322 0.36964 0.0
H942 H 0.84293 0.50063 0.47063 0.0
H943 H 0.79588 0.49792 0.34684 0.0
H944 H 0.76552 0.47401 0.285 0.0
H945 H 0.67495 0.41155 0.34913 0.0
H946 H 0.70485 0.43465 0.41143 0.0
H947 H 0.75584 0.58196 0.56034 0.0
H948 H 0.78613 0.57017 0.50888 0.0
H949 H 0.72149 0.46392 0.5274 0.0
H950 H 0.69208 0.47537 0.57936 0.0
H951 H 0.73294 0.49216 0.44349 0.0
H952 H 0.78719 0.49073 0.56705 0.0
H953 H 0.81984 0.51627 0.62713 0.0
H954 H 0.90073 0.59136 0.55831 0.0
H955 H 0.86816 0.56669 0.49783 0.0
C956 C 0.80534 0.41124 0.38194 0.0
C957 C 0.83939 0.42618 0.37152 0.0
C958 C 0.79293 0.43023 0.39948 0.0
C959 C 0.81416 0.46466 0.40642 0.0
C960 C 0.84789 0.47994 0.39471 0.0
C961 C 0.86041 0.46089 0.37737 0.0
C962 C 0.80185 0.48353 0.42971 0.0
C963 C 0.81942 0.4997 0.46396 0.0
C964 C 0.77094 0.48202 0.42131 0.0
C965 C 0.75271 0.46795 0.38389 0.0
C966 C 0.76955 0.47891 0.34781 0.0
C967 C 0.7524 0.46551 0.31265 0.0
C968 C 0.71834 0.44124 0.31314 0.0
C969 C 0.70134 0.43035 0.3488 0.0
C970 C 0.71837 0.44363 0.38405 0.0
C971 C 0.74821 0.55614 0.55332 0.0
C972 C 0.72183 0.52955 0.57389 0.0
C973 C 0.76546 0.5495 0.52408 0.0
C974 C 0.75588 0.51623 0.51457 0.0
C975 C 0.72911 0.48974 0.53446 0.0
C976 C 0.71251 0.49633 0.56421 0.0
C977 C 0.77378 0.50834 0.48439 0.0
C978 C 0.7571 0.49412 0.4491 0.0
C979 C 0.80578 0.51215 0.49146 0.0
C980 C 0.82488 0.52736 0.52798 0.0
C981 C 0.81163 0.51308 0.56475 0.0
C982 C 0.8302 0.52731 0.59889 0.0
C983 C 0.86225 0.55557 0.59657 0.0
C984 C 0.87582 0.5696 0.5601 0.0
C985 C 0.85728 0.55555 0.5259 0.0
H986 H 0.87663 0.56648 0.62302 0.0
H987 H 0.70512 0.43091 0.28588 0.0
H988 H 0.43315 0.7966 0.60655 0.0
H989 H 0.38036 0.77491 0.6419 0.0
H990 H 0.3558 0.83941 0.57478 0.0
H991 H 0.40923 0.86207 0.53988 0.0
H992 H 0.34364 0.84253 0.6493 0.0
H993 H 0.31469 0.75402 0.55871 0.0
H994 H 0.32105 0.71164 0.52137 0.0
H995 H 0.31854 0.66115 0.62833 0.0
H996 H 0.31265 0.70351 0.6664 0.0
H997 H 0.17413 0.74855 0.73017 0.0
H998 H 0.22109 0.77388 0.6837 0.0
H999 H 0.27509 0.73788 0.75316 0.0
H1000 H 0.22886 0.71307 0.79995 0.0
H1001 H 0.26664 0.72056 0.66941 0.0
H1002 H 0.30152 0.81459 0.75888 0.0
H1003 H 0.29388 0.85706 0.79423 0.0
H1004 H 0.28218 0.89642 0.68486 0.0
H1005 H 0.28928 0.85381 0.64886 0.0
C1006 C 0.41642 0.80598 0.59896 0.0
C1007 C 0.42537 0.83103 0.57035 0.0
C1008 C 0.38615 0.79343 0.61911 0.0
C1009 C 0.36392 0.8052 0.61057 0.0
C1010 C 0.37257 0.82994 0.58173 0.0
C1011 C 0.40306 0.84278 0.56178 0.0
C1012 C 0.33244 0.79259 0.63318 0.0
C1013 C 0.32643 0.81585 0.65301 0.0
C1014 C 0.31007 0.7578 0.6382 0.0
C1015 C 0.31344 0.7321 0.61544 0.0
C1016 C 0.31572 0.73401 0.57431 0.0
C1017 C 0.31921 0.70997 0.553 0.0
C1018 C 0.32025 0.68375 0.57247 0.0
C1019 C 0.31773 0.68148 0.61329 0.0
C1020 C 0.31427 0.70548 0.63475 0.0
C1021 C 0.19617 0.74636 0.73573 0.0
C1022 C 0.19779 0.72876 0.76866 0.0
C1023 C 0.22289 0.76083 0.70923 0.0
C1024 C 0.25128 0.75751 0.71512 0.0
C1025 C 0.25323 0.74054 0.74824 0.0
C1026 C 0.22686 0.72655 0.77499 0.0
C1027 C 0.27861 0.77046 0.68612 0.0
C1028 C 0.28367 0.7472 0.66505 0.0
C1029 C 0.29975 0.80517 0.67957 0.0
C1030 C 0.29547 0.83073 0.70121 0.0
C1031 C 0.29695 0.83206 0.74238 0.0
C1032 C 0.29281 0.85621 0.76254 0.0
C1033 C 0.28742 0.87935 0.74181 0.0
C1034 C 0.28627 0.87843 0.70088 0.0
C1035 C 0.29037 0.8543 0.68059 0.0
H1036 H 0.28423 0.89804 0.75747 0.0
H1037 H 0.32296 0.66516 0.55592 0.0
loop_
_geom_bond_atom_site_label_1
_geom_bond_atom_site_label_2
_geom_bond_distance
_geom_bond_site_symmetry_2
_ccdc_geom_bond_type
O0 Zn1 1.953 . S
O0 C16 1.225 . S
Zn1 O0 1.953 . S
Zn1 O2 1.949 . S
Zn1 O8 1.919 1_554 S
Zn1 O13 1.924 . S
O2 Zn1 1.949 . S
O2 Zn3 1.923 1_554 S
O2 Zn4 1.950 . S
O2 Zn5 1.945 . S
Zn3 O2 1.923 1_556 S
Zn3 O6 1.933 . S
Zn3 O9 1.941 . S
Zn3 O10 1.965 . S
Zn4 O2 1.950 . S
Zn4 O11 1.938 . S
Zn4 O12 1.906 . S
Zn4 O22 1.953 . S
Zn5 O2 1.945 . S
Zn5 O7 1.932 1_554 S
Zn5 O14 1.977 . S
Zn5 O15 1.910 . S
O6 Zn3 1.933 . S
O6 C17 1.226 . S
O7 Zn5 1.932 1_556 S
O7 C17 1.307 . S
O8 Zn1 1.919 1_556 S
O8 C19 1.253 . S
O9 Zn3 1.941 . S
O9 C19 1.283 . S
O10 Zn3 1.965 . S
O10 C18 1.303 . S
O11 Zn4 1.938 . S
O11 C18 1.247 1_554 S
O12 Zn4 1.906 . S
O12 C20 1.304 . S
O13 Zn1 1.924 . S
O13 C21 1.311 . S
O14 Zn5 1.977 . S
O14 C20 1.272 . S
O15 Zn5 1.910 . S
O15 C21 1.231 . S
C16 O0 1.225 . S
C16 O22 1.298 . S
C17 O6 1.226 . S
C17 O7 1.307 . S
C18 O10 1.303 . S
C18 O11 1.247 1_556 S
C19 O8 1.253 . S
C19 O9 1.283 . S
C20 O12 1.304 . S
C20 O14 1.272 . S
C21 O13 1.311 . S
C21 O15 1.231 . S
O22 Zn4 1.953 . S
O22 C16 1.298 . S
O23 Zn24 1.953 . S
O23 C39 1.225 . S
Zn24 O23 1.953 . S
Zn24 O25 1.949 . S
Zn24 O31 1.919 . S
Zn24 O36 1.924 . S
O25 Zn24 1.949 . S
O25 Zn26 1.923 . S
O25 Zn27 1.950 . S
O25 Zn28 1.945 . S
Zn26 O25 1.923 . S
Zn26 O29 1.933 . S
Zn26 O32 1.941 . S
Zn26 O33 1.965 . S
Zn27 O25 1.950 . S
Zn27 O34 1.938 . S
Zn27 O35 1.906 . S
Zn27 O45 1.953 . S
Zn28 O25 1.945 . S
Zn28 O30 1.932 . S
Zn28 O37 1.977 . S
Zn28 O38 1.910 . S
O29 Zn26 1.933 . S
O29 C40 1.226 . S
O30 Zn28 1.932 . S
O30 C40 1.307 . S
O31 Zn24 1.919 . S
O31 C42 1.253 . S
O32 Zn26 1.941 . S
O32 C42 1.283 . S
O33 Zn26 1.965 . S
O33 C41 1.303 . S
O34 Zn27 1.938 . S
O34 C41 1.247 . S
O35 Zn27 1.906 . S
O35 C43 1.304 . S
O36 Zn24 1.924 . S
O36 C44 1.311 . S
O37 Zn28 1.977 . S
O37 C43 1.272 . S
O38 Zn28 1.910 . S
O38 C44 1.231 . S
C39 O23 1.225 . S
C39 O45 1.298 . S
C40 O29 1.226 . S
C40 O30 1.307 . S
C41 O33 1.303 . S
C41 O34 1.247 . S
C42 O31 1.253 . S
C42 O32 1.283 . S
C43 O35 1.304 . S
C43 O37 1.272 . S
C44 O36 1.311 . S
C44 O38 1.231 . S
O45 Zn27 1.953 . S
O45 C39 1.298 . S
O46 Zn47 1.953 . S
O46 C62 1.225 . S
Zn47 O46 1.953 . S
Zn47 O48 1.949 . S
Zn47 O54 1.919 . S
Zn47 O59 1.924 . S
O48 Zn47 1.949 . S
O48 Zn49 1.923 . S
O48 Zn50 1.950 . S
O48 Zn51 1.945 . S
Zn49 O48 1.923 . S
Zn49 O52 1.933 . S
Zn49 O55 1.941 . S
Zn49 O56 1.965 . S
Zn50 O48 1.950 . S
Zn50 O57 1.938 . S
Zn50 O58 1.906 . S
Zn50 O68 1.953 . S
Zn51 O48 1.945 . S
Zn51 O53 1.932 . S
Zn51 O60 1.977 . S
Zn51 O61 1.910 . S
O52 Zn49 1.933 . S
O52 C63 1.226 . S
O53 Zn51 1.932 . S
O53 C63 1.307 . S
O54 Zn47 1.919 . S
O54 C65 1.253 . S
O55 Zn49 1.941 . S
O55 C65 1.283 . S
O56 Zn49 1.965 . S
O56 C64 1.303 . S
O57 Zn50 1.938 . S
O57 C64 1.247 . S
O58 Zn50 1.906 . S
O58 C66 1.304 . S
O59 Zn47 1.924 . S
O59 C67 1.311 . S
O60 Zn51 1.977 . S
O60 C66 1.272 . S
O61 Zn51 1.910 . S
O61 C67 1.231 . S
C62 O46 1.225 . S
C62 O68 1.298 . S
C63 O52 1.226 . S
C63 O53 1.307 . S
C64 O56 1.303 . S
C64 O57 1.247 . S
C65 O54 1.253 . S
C65 O55 1.283 . S
C66 O58 1.304 . S
C66 O60 1.272 . S
C67 O59 1.311 . S
C67 O61 1.231 . S
O68 Zn50 1.953 . S
O68 C62 1.298 . S
O69 Zn70 1.953 . S
O69 C85 1.225 . S
Zn70 O69 1.953 . S
Zn70 O71 1.949 . S
Zn70 O77 1.919 . S
Zn70 O82 1.924 . S
O71 Zn70 1.949 . S
O71 Zn72 1.923 . S
O71 Zn73 1.950 . S
O71 Zn74 1.945 . S
Zn72 O71 1.923 . S
Zn72 O75 1.933 . S
Zn72 O78 1.941 . S
Zn72 O79 1.965 . S
Zn73 O71 1.950 . S
Zn73 O80 1.938 . S
Zn73 O81 1.906 . S
Zn73 O91 1.953 . S
Zn74 O71 1.945 . S
Zn74 O76 1.932 . S
Zn74 O83 1.977 . S
Zn74 O84 1.910 . S
O75 Zn72 1.933 . S
O75 C86 1.226 . S
O76 Zn74 1.932 . S
O76 C86 1.307 . S
O77 Zn70 1.919 . S
O77 C88 1.253 . S
O78 Zn72 1.941 . S
O78 C88 1.283 . S
O79 Zn72 1.965 . S
O79 C87 1.303 . S
O80 Zn73 1.938 . S
O80 C87 1.247 . S
O81 Zn73 1.906 . S
O81 C89 1.304 . S
O82 Zn70 1.924 . S
O82 C90 1.311 . S
O83 Zn74 1.977 . S
O83 C89 1.272 . S
O84 Zn74 1.910 . S
O84 C90 1.231 . S
C85 O69 1.225 . S
C85 O91 1.298 . S
C86 O75 1.226 . S
C86 O76 1.307 . S
C87 O79 1.303 . S
C87 O80 1.247 . S
C88 O77 1.253 . S
C88 O78 1.283 . S
C89 O81 1.304 . S
C89 O83 1.272 . S
C90 O82 1.311 . S
C90 O84 1.231 . S
O91 Zn73 1.953 . S
O91 C85 1.298 . S
O92 Zn93 1.953 . S
O92 C108 1.225 . S
Zn93 O92 1.953 . S
Zn93 O94 1.949 . S
Zn93 O100 1.919 . S
Zn93 O105 1.924 . S
O94 Zn93 1.949 . S
O94 Zn95 1.923 . S
O94 Zn96 1.950 . S
O94 Zn97 1.945 . S
Zn95 O94 1.923 . S
Zn95 O98 1.933 . S
Zn95 O101 1.941 . S
Zn95 O102 1.965 . S
Zn96 O94 1.950 . S
Zn96 O103 1.938 . S
Zn96 O104 1.906 . S
Zn96 O114 1.953 . S
Zn97 O94 1.945 . S
Zn97 O99 1.932 . S
Zn97 O106 1.977 . S
Zn97 O107 1.910 . S
O98 Zn95 1.933 . S
O98 C109 1.226 . S
O99 Zn97 1.932 . S
O99 C109 1.307 . S
O100 Zn93 1.919 . S
O100 C111 1.253 . S
O101 Zn95 1.941 . S
O101 C111 1.283 . S
O102 Zn95 1.965 . S
O102 C110 1.303 . S
O103 Zn96 1.938 . S
O103 C110 1.247 . S
O104 Zn96 1.906 . S
O104 C112 1.304 . S
O105 Zn93 1.924 . S
O105 C113 1.311 . S
O106 Zn97 1.977 . S
O106 C112 1.272 . S
O107 Zn97 1.910 . S
O107 C113 1.231 . S
C108 O92 1.225 . S
C108 O114 1.298 . S
C109 O98 1.226 . S
C109 O99 1.307 . S
C110 O102 1.303 . S
C110 O103 1.247 . S
C111 O100 1.253 . S
C111 O101 1.283 . S
C112 O104 1.304 . S
C112 O106 1.272 . S
C113 O105 1.311 . S
C113 O107 1.231 . S
O114 Zn96 1.953 . S
O114 C108 1.298 . S
O115 Zn116 1.953 . S
O115 C131 1.225 . S
Zn116 O115 1.953 . S
Zn116 O117 1.949 . S
Zn116 O123 1.919 . S
Zn116 O128 1.924 . S
O117 Zn116 1.949 . S
O117 Zn118 1.923 . S
O117 Zn119 1.950 . S
O117 Zn120 1.945 . S
Zn118 O117 1.923 . S
Zn118 O121 1.933 . S
Zn118 O124 1.941 . S
Zn118 O125 1.965 . S
Zn119 O117 1.950 . S
Zn119 O126 1.938 . S
Zn119 O127 1.906 . S
Zn119 O137 1.953 . S
Zn120 O117 1.945 . S
Zn120 O122 1.932 . S
Zn120 O129 1.977 . S
Zn120 O130 1.910 . S
O121 Zn118 1.933 . S
O121 C132 1.226 . S
O122 Zn120 1.932 . S
O122 C132 1.307 . S
O123 Zn116 1.919 . S
O123 C134 1.253 . S
O124 Zn118 1.941 . S
O124 C134 1.283 . S
O125 Zn118 1.965 . S
O125 C133 1.303 . S
O126 Zn119 1.938 . S
O126 C133 1.247 . S
O127 Zn119 1.906 . S
O127 C135 1.304 . S
O128 Zn116 1.924 . S
O128 C136 1.311 . S
O129 Zn120 1.977 . S
O129 C135 1.272 . S
O130 Zn120 1.910 . S
O130 C136 1.231 . S
C131 O115 1.225 . S
C131 O137 1.298 . S
C132 O121 1.226 . S
C132 O122 1.307 . S
C133 O125 1.303 . S
C133 O126 1.247 . S
C134 O123 1.253 . S
C134 O124 1.283 . S
C135 O127 1.304 . S
C135 O129 1.272 . S
C136 O128 1.311 . S
C136 O130 1.231 . S
O137 Zn119 1.953 . S
O137 C131 1.298 . S
H138 C156 0.951 . S
H139 C158 0.951 . S
H140 C160 0.950 . S
H141 C161 0.950 . S
H142 C163 0.950 1_554 S
H143 C166 0.950 . S
H144 C167 0.950 1_545 S
H145 C169 0.950 . S
H146 C170 0.950 . S
H147 C171 0.951 . S
H148 C173 0.951 . S
H149 C175 0.950 . S
H150 C176 0.950 . S
H151 C178 0.950 . S
H152 C181 0.950 . S
H153 C182 0.950 1_556 S
H154 C184 0.950 . S
H155 C185 0.950 . S
C156 H138 0.951 . S
C156 C157 1.366 . S
C156 C158 1.388 1_545 S
C157 C156 1.366 . S
C157 C161 1.385 1_556 S
C158 H139 0.951 . S
C158 C156 1.388 1_565 S
C158 C159 1.366 . S
C159 C158 1.366 . S
C159 C160 1.414 1_556 S
C159 C162 1.499 . S
C160 H140 0.950 . S
C160 C159 1.414 1_554 S
C160 C161 1.374 1_565 S
C161 H141 0.950 . S
C161 C157 1.385 1_554 S
C161 C160 1.374 1_545 S
C162 C159 1.499 . S
C162 C163 1.373 . S
C162 C164 1.389 . S
C163 H142 0.950 1_556 S
C163 C162 1.373 . S
C163 C179 1.377 . S
C164 C162 1.389 . S
C164 C165 1.524 . S
C164 C178 1.377 . S
C165 C164 1.524 . S
C165 C166 1.397 . S
C165 C170 1.363 . S
C166 H143 0.950 . S
C166 C165 1.397 . S
C166 C167 1.334 . S
C167 H144 0.950 1_565 S
C167 C166 1.334 . S
C167 C168 1.287 . S
C168 C167 1.287 . S
C168 C169 1.524 . S
C168 H187 0.913 1_565 S
C169 H145 0.950 . S
C169 C168 1.524 . S
C169 C170 1.415 . S
C170 H146 0.950 . S
C170 C165 1.363 . S
C170 C169 1.415 . S
C171 H147 0.951 . S
C171 C172 1.366 . S
C171 C173 1.388 . S
C172 C171 1.366 . S
C172 C176 1.385 . S
C173 H148 0.951 . S
C173 C171 1.388 . S
C173 C174 1.366 . S
C174 C173 1.366 . S
C174 C175 1.414 . S
C174 C177 1.499 . S
C175 H149 0.950 . S
C175 C174 1.414 . S
C175 C176 1.374 . S
C176 H150 0.950 . S
C176 C172 1.385 . S
C176 C175 1.374 . S
C177 C174 1.499 . S
C177 C178 1.373 . S
C177 C179 1.389 . S
C178 H151 0.950 . S
C178 C164 1.377 . S
C178 C177 1.373 . S
C179 C163 1.377 . S
C179 C177 1.389 . S
C179 C180 1.524 . S
C180 C179 1.524 . S
C180 C181 1.397 . S
C180 C185 1.363 1_556 S
C181 H152 0.950 . S
C181 C180 1.397 . S
C181 C182 1.334 1_556 S
C182 H153 0.950 1_554 S
C182 C181 1.334 1_554 S
C182 C183 1.287 . S
C183 C182 1.287 . S
C183 C184 1.524 . S
C183 H186 0.999 . S
C184 H154 0.950 . S
C184 C183 1.524 . S
C184 C185 1.415 . S
C185 H155 0.950 . S
C185 C180 1.363 1_554 S
C185 C184 1.415 . S
H186 C183 0.999 . S
H187 C168 0.913 1_545 S
H188 C206 0.951 . S
H189 C208 0.951 . S
H190 C210 0.950 . S
H191 C211 0.950 . S
H192 C213 0.950 . S
H193 C216 0.950 . S
H194 C217 0.950 . S
H195 C219 0.950 . S
H196 C220 0.950 . S
H197 C221 0.951 . S
H198 C223 0.951 . S
H199 C225 0.950 . S
H200 C226 0.950 . S
H201 C228 0.950 . S
H202 C231 0.950 . S
H203 C232 0.950 . S
H204 C234 0.950 . S
H205 C235 0.950 . S
C206 H188 0.951 . S
C206 C207 1.366 . S
C206 C208 1.388 . S
C207 C206 1.366 . S
C207 C211 1.385 . S
C208 H189 0.951 . S
C208 C206 1.388 . S
C208 C209 1.366 . S
C209 C208 1.366 . S
C209 C210 1.414 . S
C209 C212 1.499 . S
C210 H190 0.950 . S
C210 C209 1.414 . S
C210 C211 1.374 . S
C211 H191 0.950 . S
C211 C207 1.385 . S
C211 C210 1.374 . S
C212 C209 1.499 . S
C212 C213 1.373 . S
C212 C214 1.389 . S
C213 H192 0.950 . S
C213 C212 1.373 . S
C213 C229 1.377 . S
C214 C212 1.389 . S
C214 C215 1.524 . S
C214 C228 1.377 . S
C215 C214 1.524 . S
C215 C216 1.397 . S
C215 C220 1.363 . S
C216 H193 0.950 . S
C216 C215 1.397 . S
C216 C217 1.334 . S
C217 H194 0.950 . S
C217 C216 1.334 . S
C217 C218 1.287 . S
C218 C217 1.287 . S
C218 C219 1.524 . S
C218 H237 0.913 . S
C219 H195 0.950 . S
C219 C218 1.524 . S
C219 C220 1.415 . S
C220 H196 0.950 . S
C220 C215 1.363 . S
C220 C219 1.415 . S
C221 H197 0.951 . S
C221 C222 1.366 . S
C221 C223 1.388 . S
C222 C221 1.366 . S
C222 C226 1.385 . S
C223 H198 0.951 . S
C223 C221 1.388 . S
C223 C224 1.366 . S
C224 C223 1.366 . S
C224 C225 1.414 . S
C224 C227 1.499 . S
C225 H199 0.950 . S
C225 C224 1.414 . S
C225 C226 1.374 . S
C226 H200 0.950 . S
C226 C222 1.385 . S
C226 C225 1.374 . S
C227 C224 1.499 . S
C227 C228 1.373 . S
C227 C229 1.389 . S
C228 H201 0.950 . S
C228 C214 1.377 . S
C228 C227 1.373 . S
C229 C213 1.377 . S
C229 C227 1.389 . S
C229 C230 1.524 . S
C230 C229 1.524 . S
C230 C231 1.397 . S
C230 C235 1.363 . S
C231 H202 0.950 . S
C231 C230 1.397 . S
C231 C232 1.334 . S
C232 H203 0.950 . S
C232 C231 1.334 . S
C232 C233 1.287 . S
C233 C232 1.287 . S
C233 C234 1.524 . S
C233 H236 0.999 . S
C234 H204 0.950 . S
C234 C233 1.524 . S
C234 C235 1.415 . S
C235 H205 0.950 . S
C235 C230 1.363 . S
C235 C234 1.415 . S
H236 C233 0.999 . S
H237 C218 0.913 . S
H238 C256 0.951 . S
H239 C258 0.951 . S
H240 C260 0.950 . S
H241 C261 0.950 . S
H242 C263 0.950 . S
H243 C266 0.950 . S
H244 C267 0.950 . S
H245 C269 0.950 . S
H246 C270 0.950 . S
H247 C271 0.951 . S
H248 C273 0.951 . S
H249 C275 0.950 . S
H250 C276 0.950 . S
H251 C278 0.950 . S
H252 C281 0.950 . S
H253 C282 0.950 . S
H254 C284 0.950 . S
H255 C285 0.950 . S
C256 H238 0.951 . S
C256 C257 1.366 . S
C256 C258 1.388 1_655 S
C257 C256 1.366 . S
C257 C261 1.385 . S
C258 H239 0.951 . S
C258 C256 1.388 1_455 S
C258 C259 1.366 . S
C259 C258 1.366 . S
C259 C260 1.414 . S
C259 C262 1.499 . S
C260 H240 0.950 . S
C260 C259 1.414 . S
C260 C261 1.374 1_455 S
C261 H241 0.950 . S
C261 C257 1.385 . S
C261 C260 1.374 1_655 S
C262 C259 1.499 . S
C262 C263 1.373 . S
C262 C264 1.389 . S
C263 H242 0.950 . S
C263 C262 1.373 . S
C263 C279 1.377 . S
C264 C262 1.389 . S
C264 C265 1.524 . S
C264 C278 1.377 . S
C265 C264 1.524 . S
C265 C266 1.397 . S
C265 C270 1.363 . S
C266 H243 0.950 . S
C266 C265 1.397 . S
C266 C267 1.334 . S
C267 H244 0.950 . S
C267 C266 1.334 . S
C267 C268 1.287 . S
C268 C267 1.287 . S
C268 C269 1.524 . S
C268 H287 0.913 . S
C269 H245 0.950 . S
C269 C268 1.524 . S
C269 C270 1.415 . S
C270 H246 0.950 . S
C270 C265 1.363 . S
C270 C269 1.415 . S
C271 H247 0.951 . S
C271 C272 1.366 . S
C271 C273 1.388 . S
C272 C271 1.366 . S
C272 C276 1.385 . S
C273 H248 0.951 . S
C273 C271 1.388 . S
C273 C274 1.366 . S
C274 C273 1.366 . S
C274 C275 1.414 . S
C274 C277 1.499 . S
C275 H249 0.950 . S
C275 C274 1.414 . S
C275 C276 1.374 . S
C276 H250 0.950 . S
C276 C272 1.385 . S
C276 C275 1.374 . S
C277 C274 1.499 . S
C277 C278 1.373 . S
C277 C279 1.389 . S
C278 H251 0.950 . S
C278 C264 1.377 . S
C278 C277 1.373 . S
C279 C263 1.377 . S
C279 C277 1.389 . S
C279 C280 1.524 . S
C280 C279 1.524 . S
C280 C281 1.397 . S
C280 C285 1.363 . S
C281 H252 0.950 . S
C281 C280 1.397 . S
C281 C282 1.334 . S
C282 H253 0.950 . S
C282 C281 1.334 . S
C282 C283 1.287 . S
C283 C282 1.287 . S
C283 C284 1.524 . S
C283 H286 0.999 . S
C284 H254 0.950 . S
C284 C283 1.524 . S
C284 C285 1.415 . S
C285 H255 0.950 . S
C285 C280 1.363 . S
C285 C284 1.415 . S
H286 C283 0.999 . S
H287 C268 0.913 . S
H288 C306 0.951 . S
H289 C308 0.951 . S
H290 C310 0.950 . S
H291 C311 0.950 . S
H292 C313 0.950 . S
H293 C316 0.950 . S
H294 C317 0.950 . S
H295 C319 0.950 . S
H296 C320 0.950 . S
H297 C321 0.951 . S
H298 C323 0.951 . S
H299 C325 0.950 . S
H300 C326 0.950 . S
H301 C328 0.950 . S
H302 C331 0.950 . S
H303 C332 0.950 1_565 S
H304 C334 0.950 . S
H305 C335 0.950 . S
C306 H288 0.951 . S
C306 C307 1.366 . S
C306 C308 1.388 . S
C307 C306 1.366 . S
C307 C311 1.385 . S
C308 H289 0.951 . S
C308 C306 1.388 . S
C308 C309 1.366 . S
C309 C308 1.366 . S
C309 C310 1.414 . S
C309 C312 1.499 . S
C310 H290 0.950 . S
C310 C309 1.414 . S
C310 C311 1.374 . S
C311 H291 0.950 . S
C311 C307 1.385 . S
C311 C310 1.374 . S
C312 C309 1.499 . S
C312 C313 1.373 . S
C312 C314 1.389 . S
C313 H292 0.950 . S
C313 C312 1.373 . S
C313 C329 1.377 . S
C314 C312 1.389 . S
C314 C315 1.524 . S
C314 C328 1.377 . S
C315 C314 1.524 . S
C315 C316 1.397 . S
C315 C320 1.363 . S
C316 H293 0.950 . S
C316 C315 1.397 . S
C316 C317 1.334 . S
C317 H294 0.950 . S
C317 C316 1.334 . S
C317 C318 1.287 . S
C318 C317 1.287 . S
C318 C319 1.524 . S
C318 H337 0.913 . S
C319 H295 0.950 . S
C319 C318 1.524 . S
C319 C320 1.415 . S
C320 H296 0.950 . S
C320 C315 1.363 . S
C320 C319 1.415 . S
C321 H297 0.951 . S
C321 C322 1.366 . S
C321 C323 1.388 1_565 S
C322 C321 1.366 . S
C322 C326 1.385 . S
C323 H298 0.951 . S
C323 C321 1.388 1_545 S
C323 C324 1.366 . S
C324 C323 1.366 . S
C324 C325 1.414 . S
C324 C327 1.499 . S
C325 H299 0.950 . S
C325 C324 1.414 . S
C325 C326 1.374 1_545 S
C326 H300 0.950 . S
C326 C322 1.385 . S
C326 C325 1.374 1_565 S
C327 C324 1.499 . S
C327 C328 1.373 . S
C327 C329 1.389 . S
C328 H301 0.950 . S
C328 C314 1.377 . S
C328 C327 1.373 . S
C329 C313 1.377 . S
C329 C327 1.389 . S
C329 C330 1.524 . S
C330 C329 1.524 . S
C330 C331 1.397 . S
C330 C335 1.363 . S
C331 H302 0.950 . S
C331 C330 1.397 . S
C331 C332 1.334 . S
C332 H303 0.950 1_545 S
C332 C331 1.334 . S
C332 C333 1.287 . S
C333 C332 1.287 . S
C333 C334 1.524 . S
C333 H336 0.999 . S
C334 H304 0.950 . S
C334 C333 1.524 . S
C334 C335 1.415 . S
C335 H305 0.950 . S
C335 C330 1.363 . S
C335 C334 1.415 . S
H336 C333 0.999 . S
H337 C318 0.913 . S
H338 C356 0.951 . S
H339 C358 0.951 . S
H340 C360 0.950 . S
H341 C361 0.950 . S
H342 C363 0.950 . S
H343 C366 0.950 . S
H344 C367 0.950 . S
H345 C369 0.950 . S
H346 C370 0.950 . S
H347 C371 0.951 . S
H348 C373 0.951 . S
H349 C375 0.950 . S
H350 C376 0.950 . S
H351 C378 0.950 . S
H352 C381 0.950 . S
H353 C382 0.950 . S
H354 C384 0.950 . S
H355 C385 0.950 . S
C356 H338 0.951 . S
C356 C357 1.366 . S
C356 C358 1.388 . S
C357 C356 1.366 . S
C357 C361 1.385 . S
C358 H339 0.951 . S
C358 C356 1.388 . S
C358 C359 1.366 . S
C359 C358 1.366 . S
C359 C360 1.414 . S
C359 C362 1.499 . S
C360 H340 0.950 . S
C360 C359 1.414 . S
C360 C361 1.374 . S
C361 H341 0.950 . S
C361 C357 1.385 . S
C361 C360 1.374 . S
C362 C359 1.499 . S
C362 C363 1.373 . S
C362 C364 1.389 . S
C363 H342 0.950 . S
C363 C362 1.373 . S
C363 C379 1.377 . S
C364 C362 1.389 . S
C364 C365 1.524 . S
C364 C378 1.377 . S
C365 C364 1.524 . S
C365 C366 1.397 . S
C365 C370 1.363 . S
C366 H343 0.950 . S
C366 C365 1.397 . S
C366 C367 1.334 . S
C367 H344 0.950 . S
C367 C366 1.334 . S
C367 C368 1.287 . S
C368 C367 1.287 . S
C368 C369 1.524 . S
C368 H387 0.913 . S
C369 H345 0.950 . S
C369 C368 1.524 . S
C369 C370 1.415 . S
C370 H346 0.950 . S
C370 C365 1.363 . S
C370 C369 1.415 . S
C371 H347 0.951 . S
C371 C372 1.366 . S
C371 C373 1.388 . S
C372 C371 1.366 . S
C372 C376 1.385 . S
C373 H348 0.951 . S
C373 C371 1.388 . S
C373 C374 1.366 . S
C374 C373 1.366 . S
C374 C375 1.414 . S
C374 C377 1.499 . S
C375 H349 0.950 . S
C375 C374 1.414 . S
C375 C376 1.374 . S
C376 H350 0.950 . S
C376 C372 1.385 . S
C376 C375 1.374 . S
C377 C374 1.499 . S
C377 C378 1.373 . S
C377 C379 1.389 . S
C378 H351 0.950 . S
C378 C364 1.377 . S
C378 C377 1.373 . S
C379 C363 1.377 . S
C379 C377 1.389 . S
C379 C380 1.524 . S
C380 C379 1.524 . S
C380 C381 1.397 . S
C380 C385 1.363 . S
C381 H352 0.950 . S
C381 C380 1.397 . S
C381 C382 1.334 . S
C382 H353 0.950 . S
C382 C381 1.334 . S
C382 C383 1.287 . S
C383 C382 1.287 . S
C383 C384 1.524 . S
C383 H386 0.999 . S
C384 H354 0.950 . S
C384 C383 1.524 . S
C384 C385 1.415 . S
C385 H355 0.950 . S
C385 C380 1.363 . S
C385 C384 1.415 . S
H386 C383 0.999 . S
H387 C368 0.913 . S
H388 C406 0.951 . S
H389 C408 0.951 . S
H390 C410 0.950 . S
H391 C411 0.950 . S
H392 C413 0.950 . S
H393 C416 0.950 . S
H394 C417 0.950 1_455 S
H395 C419 0.950 . S
H396 C420 0.950 . S
H397 C421 0.951 . S
H398 C423 0.951 . S
H399 C425 0.950 . S
H400 C426 0.950 . S
H401 C428 0.950 . S
H402 C431 0.950 . S
H403 C432 0.950 . S
H404 C434 0.950 . S
H405 C435 0.950 . S
C406 H388 0.951 . S
C406 C407 1.366 . S
C406 C408 1.388 1_455 S
C407 C406 1.366 . S
C407 C411 1.385 . S
C408 H389 0.951 . S
C408 C406 1.388 1_655 S
C408 C409 1.366 . S
C409 C408 1.366 . S
C409 C410 1.414 . S
C409 C412 1.499 . S
C410 H390 0.950 . S
C410 C409 1.414 . S
C410 C411 1.374 1_655 S
C411 H391 0.950 . S
C411 C407 1.385 . S
C411 C410 1.374 1_455 S
C412 C409 1.499 . S
C412 C413 1.373 . S
C412 C414 1.389 . S
C413 H392 0.950 . S
C413 C412 1.373 . S
C413 C429 1.377 . S
C414 C412 1.389 . S
C414 C415 1.524 . S
C414 C428 1.377 . S
C415 C414 1.524 . S
C415 C416 1.397 . S
C415 C420 1.363 . S
C416 H393 0.950 . S
C416 C415 1.397 . S
C416 C417 1.334 . S
C417 H394 0.950 1_655 S
C417 C416 1.334 . S
C417 C418 1.287 . S
C418 C417 1.287 . S
C418 C419 1.524 . S
C418 H437 0.913 1_655 S
C419 H395 0.950 . S
C419 C418 1.524 . S
C419 C420 1.415 . S
C420 H396 0.950 . S
C420 C415 1.363 . S
C420 C419 1.415 . S
C421 H397 0.951 . S
C421 C422 1.366 . S
C421 C423 1.388 . S
C422 C421 1.366 . S
C422 C426 1.385 . S
C423 H398 0.951 . S
C423 C421 1.388 . S
C423 C424 1.366 . S
C424 C423 1.366 . S
C424 C425 1.414 . S
C424 C427 1.499 . S
C425 H399 0.950 . S
C425 C424 1.414 . S
C425 C426 1.374 . S
C426 H400 0.950 . S
C426 C422 1.385 . S
C426 C425 1.374 . S
C427 C424 1.499 . S
C427 C428 1.373 . S
C427 C429 1.389 . S
C428 H401 0.950 . S
C428 C414 1.377 . S
C428 C427 1.373 . S
C429 C413 1.377 . S
C429 C427 1.389 . S
C429 C430 1.524 . S
C430 C429 1.524 . S
C430 C431 1.397 . S
C430 C435 1.363 . S
C431 H402 0.950 . S
C431 C430 1.397 . S
C431 C432 1.334 . S
C432 H403 0.950 . S
C432 C431 1.334 . S
C432 C433 1.287 . S
C433 C432 1.287 . S
C433 C434 1.524 . S
C433 H436 0.999 . S
C434 H404 0.950 . S
C434 C433 1.524 . S
C434 C435 1.415 . S
C435 H405 0.950 . S
C435 C430 1.363 . S
C435 C434 1.415 . S
H436 C433 0.999 . S
H437 C418 0.913 1_455 S
H438 C456 0.945 1_565 S
H439 C458 0.951 . S
H440 C460 0.950 . S
H441 C461 0.950 . S
H442 C463 0.950 . S
H443 C466 0.950 . S
H444 C467 0.950 . S
H445 C469 0.950 . S
H446 C470 0.950 . S
H447 C471 0.951 . S
H448 C473 0.951 1_545 S
H449 C475 0.950 . S
H450 C476 0.950 . S
H451 C478 0.950 . S
H452 C481 0.950 . S
H453 C482 0.950 1_565 S
H454 C484 0.950 . S
H455 C485 0.950 . S
C456 H438 0.945 1_545 S
C456 C457 1.379 . S
C456 C458 1.381 1_545 S
C457 C456 1.379 . S
C457 C461 1.385 . S
C458 H439 0.951 . S
C458 C456 1.381 1_565 S
C458 C459 1.366 1_565 S
C459 C458 1.366 1_545 S
C459 C460 1.414 . S
C459 C462 1.499 1_545 S
C460 H440 0.950 . S
C460 C459 1.414 . S
C460 C461 1.374 . S
C461 H441 0.950 . S
C461 C457 1.385 . S
C461 C460 1.374 . S
C462 C459 1.499 1_565 S
C462 C463 1.373 1_565 S
C462 C464 1.389 . S
C463 H442 0.950 . S
C463 C462 1.373 1_545 S
C463 C479 1.377 1_545 S
C464 C462 1.389 . S
C464 C465 1.524 . S
C464 C478 1.377 . S
C465 C464 1.524 . S
C465 C466 1.397 . S
C465 C470 1.363 . S
C466 H443 0.950 . S
C466 C465 1.397 . S
C466 C467 1.334 . S
C467 H444 0.950 . S
C467 C466 1.334 . S
C467 C468 1.287 . S
C468 C467 1.287 . S
C468 C469 1.524 . S
C468 H487 0.913 . S
C469 H445 0.950 . S
C469 C468 1.524 . S
C469 C470 1.415 . S
C470 H446 0.950 . S
C470 C465 1.363 . S
C470 C469 1.415 . S
C471 H447 0.951 . S
C471 C472 1.366 . S
C471 C473 1.388 . S
C472 C471 1.366 . S
C472 C476 1.385 . S
C473 H448 0.951 1_565 S
C473 C471 1.388 . S
C473 C474 1.366 . S
C474 C473 1.366 . S
C474 C475 1.414 . S
C474 C477 1.499 . S
C475 H449 0.950 . S
C475 C474 1.414 . S
C475 C476 1.374 . S
C476 H450 0.950 . S
C476 C472 1.385 . S
C476 C475 1.374 . S
C477 C474 1.499 . S
C477 C478 1.373 . S
C477 C479 1.389 . S
C478 H451 0.950 . S
C478 C464 1.377 . S
C478 C477 1.373 . S
C479 C463 1.377 1_565 S
C479 C477 1.389 . S
C479 C480 1.524 1_565 S
C480 C479 1.524 1_545 S
C480 C481 1.397 1_545 S
C480 C485 1.363 . S
C481 H452 0.950 . S
C481 C480 1.397 1_565 S
C481 C482 1.334 1_565 S
C482 H453 0.950 1_545 S
C482 C481 1.334 1_545 S
C482 C483 1.287 . S
C483 C482 1.287 . S
C483 C484 1.524 . S
C483 H486 0.999 . S
C484 H454 0.950 . S
C484 C483 1.524 . S
C484 C485 1.415 . S
C485 H455 0.950 . S
C485 C480 1.363 . S
C485 C484 1.415 . S
H486 C483 0.999 . S
H487 C468 0.913 . S
H488 C506 0.951 . S
H489 C508 0.951 . S
H490 C510 0.950 . S
H491 C511 0.950 . S
H492 C513 0.950 . S
H493 C516 0.950 . S
H494 C517 0.950 . S
H495 C519 0.950 . S
H496 C520 0.950 . S
H497 C521 0.951 . S
H498 C523 0.951 . S
H499 C525 0.950 . S
H500 C526 0.950 . S
H501 C528 0.950 . S
H502 C531 0.950 . S
H503 C532 0.950 . S
H504 C534 0.950 . S
H505 C535 0.950 . S
C506 H488 0.951 . S
C506 C507 1.366 . S
C506 C508 1.388 . S
C507 C506 1.366 . S
C507 C511 1.385 . S
C508 H489 0.951 . S
C508 C506 1.388 . S
C508 C509 1.366 . S
C509 C508 1.366 . S
C509 C510 1.414 . S
C509 C512 1.499 . S
C510 H490 0.950 . S
C510 C509 1.414 . S
C510 C511 1.374 . S
C511 H491 0.950 . S
C511 C507 1.385 . S
C511 C510 1.374 . S
C512 C509 1.499 . S
C512 C513 1.373 . S
C512 C514 1.389 . S
C513 H492 0.950 . S
C513 C512 1.373 . S
C513 C529 1.377 . S
C514 C512 1.389 . S
C514 C515 1.524 . S
C514 C528 1.377 . S
C515 C514 1.524 . S
C515 C516 1.397 . S
C515 C520 1.363 . S
C516 H493 0.950 . S
C516 C515 1.397 . S
C516 C517 1.334 . S
C517 H494 0.950 . S
C517 C516 1.334 . S
C517 C518 1.287 . S
C518 C517 1.287 . S
C518 C519 1.524 . S
C518 H537 0.913 . S
C519 H495 0.950 . S
C519 C518 1.524 . S
C519 C520 1.415 . S
C520 H496 0.950 . S
C520 C515 1.363 . S
C520 C519 1.415 . S
C521 H497 0.951 . S
C521 C522 1.366 . S
C521 C523 1.388 . S
C522 C521 1.366 . S
C522 C526 1.385 . S
C523 H498 0.951 . S
C523 C521 1.388 . S
C523 C524 1.366 . S
C524 C523 1.366 . S
C524 C525 1.414 . S
C524 C527 1.499 . S
C525 H499 0.950 . S
C525 C524 1.414 . S
C525 C526 1.374 . S
C526 H500 0.950 . S
C526 C522 1.385 . S
C526 C525 1.374 . S
C527 C524 1.499 . S
C527 C528 1.373 . S
C527 C529 1.389 . S
C528 H501 0.950 . S
C528 C514 1.377 . S
C528 C527 1.373 . S
C529 C513 1.377 . S
C529 C527 1.389 . S
C529 C530 1.524 . S
C530 C529 1.524 . S
C530 C531 1.397 . S
C530 C535 1.363 . S
C531 H502 0.950 . S
C531 C530 1.397 . S
C531 C532 1.334 . S
C532 H503 0.950 . S
C532 C531 1.334 . S
C532 C533 1.287 . S
C533 C532 1.287 . S
C533 C534 1.524 . S
C533 H536 0.999 . S
C534 H504 0.950 . S
C534 C533 1.524 . S
C534 C535 1.415 . S
C535 H505 0.950 . S
C535 C530 1.363 . S
C535 C534 1.415 . S
H536 C533 0.999 . S
H537 C518 0.913 . S
H538 C556 0.951 . S
H539 C558 0.951 . S
H540 C560 0.950 . S
H541 C561 0.950 . S
H542 C563 0.950 . S
H543 C566 0.950 . S
H544 C567 0.950 . S
H545 C569 0.950 . S
H546 C570 0.950 . S
H547 C571 0.951 . S
H548 C573 0.951 1_455 S
H549 C575 0.950 . S
H550 C576 0.950 . S
H551 C578 0.950 . S
H552 C581 0.950 . S
H553 C582 0.950 . S
H554 C584 0.950 . S
H555 C585 0.950 1_455 S
C556 H538 0.951 . S
C556 C557 1.366 . S
C556 C558 1.388 . S
C557 C556 1.366 . S
C557 C561 1.385 . S
C558 H539 0.951 . S
C558 C556 1.388 . S
C558 C559 1.366 . S
C559 C558 1.366 . S
C559 C560 1.414 . S
C559 C562 1.499 . S
C560 H540 0.950 . S
C560 C559 1.414 . S
C560 C561 1.374 . S
C561 H541 0.950 . S
C561 C557 1.385 . S
C561 C560 1.374 . S
C562 C559 1.499 . S
C562 C563 1.373 . S
C562 C564 1.389 . S
C563 H542 0.950 . S
C563 C562 1.373 . S
C563 C579 1.377 1_455 S
C564 C562 1.389 . S
C564 C565 1.524 . S
C564 C578 1.377 . S
C565 C564 1.524 . S
C565 C566 1.397 . S
C565 C570 1.363 . S
C566 H543 0.950 . S
C566 C565 1.397 . S
C566 C567 1.334 . S
C567 H544 0.950 . S
C567 C566 1.334 . S
C567 C568 1.287 . S
C568 C567 1.287 . S
C568 C569 1.524 . S
C568 H587 0.913 . S
C569 H545 0.950 . S
C569 C568 1.524 . S
C569 C570 1.415 . S
C570 H546 0.950 . S
C570 C565 1.363 . S
C570 C569 1.415 . S
C571 H547 0.951 . S
C571 C572 1.366 . S
C571 C573 1.388 . S
C572 C571 1.366 . S
C572 C576 1.385 . S
C573 H548 0.951 1_655 S
C573 C571 1.388 . S
C573 C574 1.366 . S
C574 C573 1.366 . S
C574 C575 1.414 . S
C574 C577 1.499 1_655 S
C575 H549 0.950 . S
C575 C574 1.414 . S
C575 C576 1.374 . S
C576 H550 0.950 . S
C576 C572 1.385 . S
C576 C575 1.374 . S
C577 C574 1.499 1_455 S
C577 C578 1.373 . S
C577 C579 1.389 1_455 S
C578 H551 0.950 . S
C578 C564 1.377 . S
C578 C577 1.373 . S
C579 C563 1.377 1_655 S
C579 C577 1.389 1_655 S
C579 C580 1.524 . S
C580 C579 1.524 . S
C580 C581 1.397 . S
C580 C585 1.363 . S
C581 H552 0.950 . S
C581 C580 1.397 . S
C581 C582 1.334 . S
C582 H553 0.950 . S
C582 C581 1.334 . S
C582 C583 1.287 . S
C583 C582 1.287 . S
C583 C584 1.524 . S
C583 H586 0.999 . S
C584 H554 0.950 . S
C584 C583 1.524 . S
C584 C585 1.415 . S
C585 H555 0.950 1_655 S
C585 C580 1.363 . S
C585 C584 1.415 . S
H586 C583 0.999 . S
H587 C568 0.913 . S
H588 C606 0.951 . S
H589 C608 0.951 . S
H590 C610 0.959 . S
H591 C611 0.950 . S
H592 C613 0.950 1_565 S
H593 C616 0.950 . S
H594 C617 0.950 . S
H595 C619 0.950 . S
H596 C620 0.950 . S
H597 C621 0.951 . S
H598 C623 0.951 . S
H599 C625 0.950 . S
H600 C626 0.950 . S
H601 C628 0.950 . S
H602 C631 0.950 . S
H603 C632 0.950 . S
H604 C634 0.950 . S
H605 C635 0.950 . S
C606 H588 0.951 . S
C606 C607 1.366 . S
C606 C608 1.388 . S
C607 C606 1.366 . S
C607 C611 1.385 . S
C608 H589 0.951 . S
C608 C606 1.388 . S
C608 C609 1.366 . S
C609 C608 1.366 . S
C609 C610 1.422 1_565 S
C609 C612 1.499 1_565 S
C610 H590 0.959 . S
C610 C609 1.422 1_545 S
C610 C611 1.358 1_545 S
C611 H591 0.950 . S
C611 C607 1.385 . S
C611 C610 1.358 1_565 S
C612 C609 1.499 1_545 S
C612 C613 1.373 . S
C612 C614 1.389 . S
C613 H592 0.950 1_545 S
C613 C612 1.373 . S
C613 C629 1.377 . S
C614 C612 1.389 . S
C614 C615 1.524 . S
C614 C628 1.377 . S
C615 C614 1.524 . S
C615 C616 1.397 . S
C615 C620 1.363 . S
C616 H593 0.950 . S
C616 C615 1.397 . S
C616 C617 1.334 . S
C617 H594 0.950 . S
C617 C616 1.334 . S
C617 C618 1.287 . S
C618 C617 1.287 . S
C618 C619 1.524 . S
C618 H637 0.913 . S
C619 H595 0.950 . S
C619 C618 1.524 . S
C619 C620 1.415 . S
C620 H596 0.950 . S
C620 C615 1.363 . S
C620 C619 1.415 . S
C621 H597 0.951 . S
C621 C622 1.366 . S
C621 C623 1.388 . S
C622 C621 1.366 . S
C622 C626 1.385 . S
C623 H598 0.951 . S
C623 C621 1.388 . S
C623 C624 1.366 . S
C624 C623 1.366 . S
C624 C625 1.414 . S
C624 C627 1.499 . S
C625 H599 0.950 . S
C625 C624 1.414 . S
C625 C626 1.374 . S
C626 H600 0.950 . S
C626 C622 1.385 . S
C626 C625 1.374 . S
C627 C624 1.499 . S
C627 C628 1.373 . S
C627 C629 1.389 . S
C628 H601 0.950 . S
C628 C614 1.377 . S
C628 C627 1.373 . S
C629 C613 1.377 . S
C629 C627 1.389 . S
C629 C630 1.524 . S
C630 C629 1.524 . S
C630 C631 1.397 1_545 S
C630 C635 1.363 . S
C631 H602 0.950 . S
C631 C630 1.397 1_565 S
C631 C632 1.334 . S
C632 H603 0.950 . S
C632 C631 1.334 . S
C632 C633 1.287 . S
C633 C632 1.287 . S
C633 C634 1.524 1_565 S
C633 H636 0.999 . S
C634 H604 0.950 . S
C634 C633 1.524 1_545 S
C634 C635 1.415 . S
C635 H605 0.950 . S
C635 C630 1.363 . S
C635 C634 1.415 . S
H636 C633 0.999 . S
H637 C618 0.913 . S
H638 C656 0.951 . S
H639 C658 0.951 . S
H640 C660 0.950 . S
H641 C661 0.950 . S
H642 C663 0.950 . S
H643 C666 0.950 . S
H644 C667 0.950 . S
H645 C669 0.950 . S
H646 C670 0.950 . S
H647 C671 0.951 . S
H648 C673 0.951 . S
H649 C675 0.950 . S
H650 C676 0.950 . S
H651 C678 0.950 . S
H652 C681 0.950 . S
H653 C682 0.950 . S
H654 C684 0.950 . S
H655 C685 0.950 . S
C656 H638 0.951 . S
C656 C657 1.366 . S
C656 C658 1.388 . S
C657 C656 1.366 . S
C657 C661 1.385 . S
C658 H639 0.951 . S
C658 C656 1.388 . S
C658 C659 1.366 . S
C659 C658 1.366 . S
C659 C660 1.414 . S
C659 C662 1.499 1_554 S
C660 H640 0.950 . S
C660 C659 1.414 . S
C660 C661 1.374 . S
C661 H641 0.950 . S
C661 C657 1.385 . S
C661 C660 1.374 . S
C662 C659 1.499 1_556 S
C662 C663 1.373 . S
C662 C664 1.389 . S
C663 H642 0.950 . S
C663 C662 1.373 . S
C663 C679 1.377 . S
C664 C662 1.389 . S
C664 C665 1.509 1_556 S
C664 C678 1.377 . S
C665 C664 1.509 1_554 S
C665 C666 1.413 . S
C665 C670 1.362 1_554 S
C666 H643 0.950 . S
C666 C665 1.413 . S
C666 C667 1.334 . S
C667 H644 0.950 . S
C667 C666 1.334 . S
C667 C668 1.287 . S
C668 C667 1.287 . S
C668 C669 1.524 . S
C668 H687 0.913 . S
C669 H645 0.950 . S
C669 C668 1.524 . S
C669 C670 1.415 1_554 S
C670 H646 0.950 . S
C670 C665 1.362 1_556 S
C670 C669 1.415 1_556 S
C671 H647 0.951 . S
C671 C672 1.366 . S
C671 C673 1.388 . S
C672 C671 1.366 . S
C672 C676 1.385 . S
C673 H648 0.951 . S
C673 C671 1.388 . S
C673 C674 1.366 . S
C674 C673 1.366 . S
C674 C675 1.414 . S
C674 C677 1.499 . S
C675 H649 0.950 . S
C675 C674 1.414 . S
C675 C676 1.374 . S
C676 H650 0.950 . S
C676 C672 1.385 . S
C676 C675 1.374 . S
C677 C674 1.499 . S
C677 C678 1.373 . S
C677 C679 1.389 . S
C678 H651 0.950 . S
C678 C664 1.377 . S
C678 C677 1.373 . S
C679 C663 1.377 . S
C679 C677 1.389 . S
C679 C680 1.524 . S
C680 C679 1.524 . S
C680 C681 1.397 . S
C680 C685 1.363 . S
C681 H652 0.950 . S
C681 C680 1.397 . S
C681 C682 1.334 . S
C682 H653 0.950 . S
C682 C681 1.334 . S
C682 C683 1.287 . S
C683 C682 1.287 . S
C683 C684 1.524 . S
C683 H686 0.999 . S
C684 H654 0.950 . S
C684 C683 1.524 . S
C684 C685 1.415 . S
C685 H655 0.950 . S
C685 C680 1.363 . S
C685 C684 1.415 . S
H686 C683 0.999 . S
H687 C668 0.913 . S
H688 C706 0.951 . S
H689 C708 0.951 . S
H690 C710 0.950 . S
H691 C711 0.950 . S
H692 C713 0.950 . S
H693 C716 0.950 . S
H694 C717 0.950 . S
H695 C719 0.950 . S
H696 C720 0.950 . S
H697 C721 0.951 . S
H698 C723 0.951 . S
H699 C725 0.950 . S
H700 C726 0.950 . S
H701 C728 0.950 1_455 S
H702 C731 0.950 . S
H703 C732 0.950 . S
H704 C734 0.950 . S
H705 C735 0.950 . S
C706 H688 0.951 . S
C706 C707 1.366 . S
C706 C708 1.388 1_556 S
C707 C706 1.366 . S
C707 C711 1.385 . S
C708 H689 0.951 . S
C708 C706 1.388 1_554 S
C708 C709 1.366 . S
C709 C708 1.366 . S
C709 C710 1.414 1_554 S
C709 C712 1.499 1_455 S
C710 H690 0.950 . S
C710 C709 1.414 1_556 S
C710 C711 1.374 . S
C711 H691 0.950 . S
C711 C707 1.385 . S
C711 C710 1.374 . S
C712 C709 1.499 1_655 S
C712 C713 1.373 . S
C712 C714 1.389 1_655 S
C713 H692 0.950 . S
C713 C712 1.373 . S
C713 C729 1.377 . S
C714 C712 1.389 1_455 S
C714 C715 1.524 . S
C714 C728 1.377 1_455 S
C715 C714 1.524 . S
C715 C716 1.397 . S
C715 C720 1.363 . S
C716 H693 0.950 . S
C716 C715 1.397 . S
C716 C717 1.334 . S
C717 H694 0.950 . S
C717 C716 1.334 . S
C717 C718 1.287 . S
C718 C717 1.287 . S
C718 C719 1.524 . S
C718 H737 0.913 . S
C719 H695 0.950 . S
C719 C718 1.524 . S
C719 C720 1.415 . S
C720 H696 0.950 . S
C720 C715 1.363 . S
C720 C719 1.415 . S
C721 H697 0.951 . S
C721 C722 1.366 . S
C721 C723 1.388 . S
C722 C721 1.366 . S
C722 C726 1.385 . S
C723 H698 0.951 . S
C723 C721 1.388 . S
C723 C724 1.366 . S
C724 C723 1.366 . S
C724 C725 1.414 . S
C724 C727 1.499 . S
C725 H699 0.950 . S
C725 C724 1.414 . S
C725 C726 1.374 . S
C726 H700 0.950 . S
C726 C722 1.385 . S
C726 C725 1.374 . S
C727 C724 1.499 . S
C727 C728 1.373 . S
C727 C729 1.389 . S
C728 H701 0.950 1_655 S
C728 C714 1.377 1_655 S
C728 C727 1.373 . S
C729 C713 1.377 . S
C729 C727 1.389 . S
C729 C730 1.524 . S
C730 C729 1.524 . S
C730 C731 1.397 . S
C730 C735 1.363 . S
C731 H702 0.950 . S
C731 C730 1.397 . S
C731 C732 1.334 . S
C732 H703 0.950 . S
C732 C731 1.334 . S
C732 C733 1.287 . S
C733 C732 1.287 . S
C733 C734 1.524 . S
C733 H736 0.999 . S
C734 H704 0.950 . S
C734 C733 1.524 . S
C734 C735 1.415 . S
C735 H705 0.950 . S
C735 C730 1.363 . S
C735 C734 1.415 . S
H736 C733 0.999 . S
H737 C718 0.913 . S
H738 C756 0.951 . S
H739 C758 0.951 . S
H740 C760 0.950 . S
H741 C761 0.950 . S
H742 C763 0.950 . S
H743 C766 0.950 . S
H744 C767 0.950 . S
H745 C769 0.950 . S
H746 C770 0.950 . S
H747 C771 0.951 . S
H748 C773 0.951 . S
H749 C775 0.950 . S
H750 C776 0.950 . S
H751 C778 0.950 . S
H752 C781 0.950 . S
H753 C782 0.950 . S
H754 C784 0.950 . S
H755 C785 0.950 . S
C756 H738 0.951 . S
C756 C757 1.366 . S
C756 C758 1.388 . S
C757 C756 1.366 . S
C757 C761 1.385 . S
C758 H739 0.951 . S
C758 C756 1.388 . S
C758 C759 1.366 . S
C759 C758 1.366 . S
C759 C760 1.414 . S
C759 C762 1.499 . S
C760 H740 0.950 . S
C760 C759 1.414 . S
C760 C761 1.374 . S
C761 H741 0.950 . S
C761 C757 1.385 . S
C761 C760 1.374 . S
C762 C759 1.499 . S
C762 C763 1.373 . S
C762 C764 1.389 . S
C763 H742 0.950 . S
C763 C762 1.373 . S
C763 C779 1.377 . S
C764 C762 1.389 . S
C764 C765 1.524 . S
C764 C778 1.377 . S
C765 C764 1.524 . S
C765 C766 1.397 . S
C765 C770 1.363 . S
C766 H743 0.950 . S
C766 C765 1.397 . S
C766 C767 1.334 . S
C767 H744 0.950 . S
C767 C766 1.334 . S
C767 C768 1.287 . S
C768 C767 1.287 . S
C768 C769 1.524 . S
C768 H787 0.913 . S
C769 H745 0.950 . S
C769 C768 1.524 . S
C769 C770 1.415 . S
C770 H746 0.950 . S
C770 C765 1.363 . S
C770 C769 1.415 . S
C771 H747 0.951 . S
C771 C772 1.366 . S
C771 C773 1.388 . S
C772 C771 1.366 . S
C772 C776 1.385 . S
C773 H748 0.951 . S
C773 C771 1.388 . S
C773 C774 1.366 . S
C774 C773 1.366 . S
C774 C775 1.414 . S
C774 C777 1.499 . S
C775 H749 0.950 . S
C775 C774 1.414 . S
C775 C776 1.374 . S
C776 H750 0.950 . S
C776 C772 1.385 . S
C776 C775 1.374 . S
C777 C774 1.499 . S
C777 C778 1.373 . S
C777 C779 1.389 . S
C778 H751 0.950 . S
C778 C764 1.377 . S
C778 C777 1.373 . S
C779 C763 1.377 . S
C779 C777 1.389 . S
C779 C780 1.524 . S
C780 C779 1.524 . S
C780 C781 1.397 . S
C780 C785 1.363 . S
C781 H752 0.950 . S
C781 C780 1.397 . S
C781 C782 1.334 . S
C782 H753 0.950 . S
C782 C781 1.334 . S
C782 C783 1.287 . S
C783 C782 1.287 . S
C783 C784 1.524 . S
C783 H786 0.999 . S
C784 H754 0.950 . S
C784 C783 1.524 . S
C784 C785 1.415 . S
C785 H755 0.950 . S
C785 C780 1.363 . S
C785 C784 1.415 . S
H786 C783 0.999 . S
H787 C768 0.913 . S
H788 C806 0.951 . S
H789 C808 0.951 . S
H790 C810 0.932 1_554 S
H791 C811 0.950 . S
H792 C813 0.950 . S
H793 C816 0.950 . S
H794 C817 0.950 . S
H795 C819 0.950 . S
H796 C820 0.950 . S
H797 C821 0.951 . S
H798 C823 0.951 . S
H799 C825 0.950 1_556 S
H800 C826 0.950 . S
H801 C828 0.950 . S
H802 C831 0.950 . S
H803 C832 0.950 . S
H804 C834 0.950 . S
H805 C835 0.950 . S
C806 H788 0.951 . S
C806 C807 1.366 . S
C806 C808 1.388 . S
C807 C806 1.366 . S
C807 C811 1.385 . S
C808 H789 0.951 . S
C808 C806 1.388 . S
C808 C809 1.366 . S
C809 C808 1.366 . S
C809 C810 1.414 . S
C809 C812 1.499 . S
C810 H790 0.932 1_556 S
C810 C809 1.414 . S
C810 C811 1.374 . S
C811 H791 0.950 . S
C811 C807 1.385 . S
C811 C810 1.374 . S
C812 C809 1.499 . S
C812 C813 1.373 1_556 S
C812 C814 1.389 . S
C813 H792 0.950 . S
C813 C812 1.373 1_554 S
C813 C829 1.377 . S
C814 C812 1.389 . S
C814 C815 1.524 . S
C814 C828 1.377 . S
C815 C814 1.524 . S
C815 C816 1.397 . S
C815 C820 1.363 . S
C816 H793 0.950 . S
C816 C815 1.397 . S
C816 C817 1.334 . S
C817 H794 0.950 . S
C817 C816 1.334 . S
C817 C818 1.287 . S
C818 C817 1.287 . S
C818 C819 1.524 . S
C818 H837 0.913 . S
C819 H795 0.950 . S
C819 C818 1.524 . S
C819 C820 1.415 . S
C820 H796 0.950 . S
C820 C815 1.363 . S
C820 C819 1.415 . S
C821 H797 0.951 . S
C821 C822 1.366 . S
C821 C823 1.388 . S
C822 C821 1.366 . S
C822 C826 1.385 . S
C823 H798 0.951 . S
C823 C821 1.388 . S
C823 C824 1.366 . S
C824 C823 1.366 . S
C824 C825 1.414 . S
C824 C827 1.499 . S
C825 H799 0.950 1_554 S
C825 C824 1.414 . S
C825 C826 1.374 . S
C826 H800 0.950 . S
C826 C822 1.385 . S
C826 C825 1.374 . S
C827 C824 1.499 . S
C827 C828 1.373 1_554 S
C827 C829 1.389 . S
C828 H801 0.950 . S
C828 C814 1.377 . S
C828 C827 1.373 1_556 S
C829 C813 1.377 . S
C829 C827 1.389 . S
C829 C830 1.524 . S
C830 C829 1.524 . S
C830 C831 1.397 . S
C830 C835 1.363 . S
C831 H802 0.950 . S
C831 C830 1.397 . S
C831 C832 1.334 . S
C832 H803 0.950 . S
C832 C831 1.334 . S
C832 C833 1.287 . S
C833 C832 1.287 . S
C833 C834 1.524 . S
C833 H836 0.999 . S
C834 H804 0.950 . S
C834 C833 1.524 . S
C834 C835 1.415 . S
C835 H805 0.950 . S
C835 C830 1.363 . S
C835 C834 1.415 . S
H836 C833 0.999 . S
H837 C818 0.913 . S
H838 C856 0.951 . S
H839 C858 0.951 . S
H840 C860 0.950 . S
H841 C861 0.950 . S
H842 C863 0.950 . S
H843 C866 0.950 . S
H844 C867 0.950 . S
H845 C869 0.950 . S
H846 C870 0.950 . S
H847 C871 0.951 . S
H848 C873 0.951 . S
H849 C875 0.950 . S
H850 C876 0.950 . S
H851 C878 0.950 . S
H852 C881 0.950 . S
H853 C882 0.950 . S
H854 C884 0.950 . S
H855 C885 0.950 . S
C856 H838 0.951 . S
C856 C857 1.366 . S
C856 C858 1.388 . S
C857 C856 1.366 . S
C857 C861 1.385 . S
C858 H839 0.951 . S
C858 C856 1.388 . S
C858 C859 1.366 . S
C859 C858 1.366 . S
C859 C860 1.414 . S
C859 C862 1.499 . S
C860 H840 0.950 . S
C860 C859 1.414 . S
C860 C861 1.374 . S
C861 H841 0.950 . S
C861 C857 1.385 . S
C861 C860 1.374 . S
C862 C859 1.499 . S
C862 C863 1.373 . S
C862 C864 1.389 . S
C863 H842 0.950 . S
C863 C862 1.373 . S
C863 C879 1.377 . S
C864 C862 1.389 . S
C864 C865 1.524 . S
C864 C878 1.377 . S
C865 C864 1.524 . S
C865 C866 1.397 . S
C865 C870 1.363 . S
C866 H843 0.950 . S
C866 C865 1.397 . S
C866 C867 1.334 . S
C867 H844 0.950 . S
C867 C866 1.334 . S
C867 C868 1.287 . S
C868 C867 1.287 . S
C868 C869 1.524 . S
C868 H887 0.913 . S
C869 H845 0.950 . S
C869 C868 1.524 . S
C869 C870 1.415 . S
C870 H846 0.950 . S
C870 C865 1.363 . S
C870 C869 1.415 . S
C871 H847 0.951 . S
C871 C872 1.366 . S
C871 C873 1.388 . S
C872 C871 1.366 . S
C872 C876 1.385 . S
C873 H848 0.951 . S
C873 C871 1.388 . S
C873 C874 1.366 . S
C874 C873 1.366 . S
C874 C875 1.414 . S
C874 C877 1.499 . S
C875 H849 0.950 . S
C875 C874 1.414 . S
C875 C876 1.374 . S
C876 H850 0.950 . S
C876 C872 1.385 . S
C876 C875 1.374 . S
C877 C874 1.499 . S
C877 C878 1.373 . S
C877 C879 1.389 . S
C878 H851 0.950 . S
C878 C864 1.377 . S
C878 C877 1.373 . S
C879 C863 1.377 . S
C879 C877 1.389 . S
C879 C880 1.524 . S
C880 C879 1.524 . S
C880 C881 1.397 . S
C880 C885 1.363 . S
C881 H852 0.950 . S
C881 C880 1.397 . S
C881 C882 1.334 . S
C882 H853 0.950 . S
C882 C881 1.334 . S
C882 C883 1.287 . S
C883 C882 1.287 . S
C883 C884 1.524 . S
C883 H886 0.999 . S
C884 H854 0.950 . S
C884 C883 1.524 . S
C884 C885 1.415 . S
C885 H855 0.950 . S
C885 C880 1.363 . S
C885 C884 1.415 . S
H886 C883 0.999 . S
H887 C868 0.913 . S
H888 C906 0.951 . S
H889 C908 0.951 . S
H890 C910 0.950 . S
H891 C911 0.950 . S
H892 C913 0.950 . S
H893 C916 0.950 . S
H894 C917 0.950 . S
H895 C919 0.950 . S
H896 C920 0.950 . S
H897 C921 0.951 . S
H898 C923 0.951 . S
H899 C925 0.950 . S
H900 C926 0.950 . S
H901 C928 0.950 . S
H902 C931 0.950 . S
H903 C932 0.950 . S
H904 C934 0.950 . S
H905 C935 0.950 . S
C906 H888 0.951 . S
C906 C907 1.366 . S
C906 C908 1.388 . S
C907 C906 1.366 . S
C907 C911 1.385 . S
C908 H889 0.951 . S
C908 C906 1.388 . S
C908 C909 1.366 . S
C909 C908 1.366 . S
C909 C910 1.414 . S
C909 C912 1.499 . S
C910 H890 0.950 . S
C910 C909 1.414 . S
C910 C911 1.374 . S
C911 H891 0.950 . S
C911 C907 1.385 . S
C911 C910 1.374 . S
C912 C909 1.499 . S
C912 C913 1.373 . S
C912 C914 1.389 . S
C913 H892 0.950 . S
C913 C912 1.373 . S
C913 C929 1.377 . S
C914 C912 1.389 . S
C914 C915 1.524 . S
C914 C928 1.377 . S
C915 C914 1.524 . S
C915 C916 1.397 . S
C915 C920 1.363 . S
C916 H893 0.950 . S
C916 C915 1.397 . S
C916 C917 1.334 . S
C917 H894 0.950 . S
C917 C916 1.334 . S
C917 C918 1.287 . S
C918 C917 1.287 . S
C918 C919 1.524 . S
C918 H937 0.913 . S
C919 H895 0.950 . S
C919 C918 1.524 . S
C919 C920 1.415 . S
C920 H896 0.950 . S
C920 C915 1.363 . S
C920 C919 1.415 . S
C921 H897 0.951 . S
C921 C922 1.366 . S
C921 C923 1.388 . S
C922 C921 1.366 . S
C922 C926 1.385 . S
C923 H898 0.951 . S
C923 C921 1.388 . S
C923 C924 1.366 . S
C924 C923 1.366 . S
C924 C925 1.414 . S
C924 C927 1.499 . S
C925 H899 0.950 . S
C925 C924 1.414 . S
C925 C926 1.374 . S
C926 H900 0.950 . S
C926 C922 1.385 . S
C926 C925 1.374 . S
C927 C924 1.499 . S
C927 C928 1.373 . S
C927 C929 1.389 . S
C928 H901 0.950 . S
C928 C914 1.377 . S
C928 C927 1.373 . S
C929 C913 1.377 . S
C929 C927 1.389 . S
C929 C930 1.524 . S
C930 C929 1.524 . S
C930 C931 1.397 . S
C930 C935 1.363 . S
C931 H902 0.950 . S
C931 C930 1.397 . S
C931 C932 1.334 . S
C932 H903 0.950 . S
C932 C931 1.334 . S
C932 C933 1.287 . S
C933 C932 1.287 . S
C933 C934 1.524 . S
C933 H936 0.999 . S
C934 H904 0.950 . S
C934 C933 1.524 . S
C934 C935 1.415 . S
C935 H905 0.950 . S
C935 C930 1.363 . S
C935 C934 1.415 . S
H936 C933 0.999 . S
H937 C918 0.913 . S
H938 C956 0.951 . S
H939 C958 0.951 . S
H940 C960 0.950 . S
H941 C961 0.950 . S
H942 C963 0.950 . S
H943 C966 0.950 . S
H944 C967 0.950 . S
H945 C969 0.950 . S
H946 C970 0.950 . S
H947 C971 0.951 . S
H948 C973 0.951 . S
H949 C975 0.950 . S
H950 C976 0.950 . S
H951 C978 0.950 . S
H952 C981 0.950 . S
H953 C982 0.950 . S
H954 C984 0.950 . S
H955 C985 0.950 . S
C956 H938 0.951 . S
C956 C957 1.366 . S
C956 C958 1.388 . S
C957 C956 1.366 . S
C957 C961 1.385 . S
C958 H939 0.951 . S
C958 C956 1.388 . S
C958 C959 1.366 . S
C959 C958 1.366 . S
C959 C960 1.414 . S
C959 C962 1.499 . S
C960 H940 0.950 . S
C960 C959 1.414 . S
C960 C961 1.374 . S
C961 H941 0.950 . S
C961 C957 1.385 . S
C961 C960 1.374 . S
C962 C959 1.499 . S
C962 C963 1.373 . S
C962 C964 1.389 . S
C963 H942 0.950 . S
C963 C962 1.373 . S
C963 C979 1.377 . S
C964 C962 1.389 . S
C964 C965 1.524 . S
C964 C978 1.377 . S
C965 C964 1.524 . S
C965 C966 1.397 . S
C965 C970 1.363 . S
C966 H943 0.950 . S
C966 C965 1.397 . S
C966 C967 1.334 . S
C967 H944 0.950 . S
C967 C966 1.334 . S
C967 C968 1.287 . S
C968 C967 1.287 . S
C968 C969 1.524 . S
C968 H987 0.913 . S
C969 H945 0.950 . S
C969 C968 1.524 . S
C969 C970 1.415 . S
C970 H946 0.950 . S
C970 C965 1.363 . S
C970 C969 1.415 . S
C971 H947 0.951 . S
C971 C972 1.366 . S
C971 C973 1.388 . S
C972 C971 1.366 . S
C972 C976 1.385 . S
C973 H948 0.951 . S
C973 C971 1.388 . S
C973 C974 1.366 . S
C974 C973 1.366 . S
C974 C975 1.414 . S
C974 C977 1.499 . S
C975 H949 0.950 . S
C975 C974 1.414 . S
C975 C976 1.374 . S
C976 H950 0.950 . S
C976 C972 1.385 . S
C976 C975 1.374 . S
C977 C974 1.499 . S
C977 C978 1.373 . S
C977 C979 1.389 . S
C978 H951 0.950 . S
C978 C964 1.377 . S
C978 C977 1.373 . S
C979 C963 1.377 . S
C979 C977 1.389 . S
C979 C980 1.524 . S
C980 C979 1.524 . S
C980 C981 1.397 . S
C980 C985 1.363 . S
C981 H952 0.950 . S
C981 C980 1.397 . S
C981 C982 1.334 . S
C982 H953 0.950 . S
C982 C981 1.334 . S
C982 C983 1.287 . S
C983 C982 1.287 . S
C983 C984 1.524 . S
C983 H986 0.999 . S
C984 H954 0.950 . S
C984 C983 1.524 . S
C984 C985 1.415 . S
C985 H955 0.950 . S
C985 C980 1.363 . S
C985 C984 1.415 . S
H986 C983 0.999 . S
H987 C968 0.913 . S
H988 C1006 0.951 . S
H989 C1008 0.951 . S
H990 C1010 0.950 . S
H991 C1011 0.950 . S
H992 C1013 0.950 . S
H993 C1016 0.950 . S
H994 C1017 0.950 . S
H995 C1019 0.950 . S
H996 C1020 0.950 . S
H997 C1021 0.951 . S
H998 C1023 0.951 . S
H999 C1025 0.950 . S
H1000 C1026 0.950 . S
H1001 C1028 0.950 . S
H1002 C1031 0.950 . S
H1003 C1032 0.950 . S
H1004 C1034 0.950 . S
H1005 C1035 0.950 . S
C1006 H988 0.951 . S
C1006 C1007 1.366 . S
C1006 C1008 1.388 . S
C1007 C1006 1.366 . S
C1007 C1011 1.385 . S
C1008 H989 0.951 . S
C1008 C1006 1.388 . S
C1008 C1009 1.366 . S
C1009 C1008 1.366 . S
C1009 C1010 1.414 . S
C1009 C1012 1.499 . S
C1010 H990 0.950 . S
C1010 C1009 1.414 . S
C1010 C1011 1.374 . S
C1011 H991 0.950 . S
C1011 C1007 1.385 . S
C1011 C1010 1.374 . S
C1012 C1009 1.499 . S
C1012 C1013 1.373 . S
C1012 C1014 1.389 . S
C1013 H992 0.950 . S
C1013 C1012 1.373 . S
C1013 C1029 1.377 . S
C1014 C1012 1.389 . S
C1014 C1015 1.524 . S
C1014 C1028 1.377 . S
C1015 C1014 1.524 . S
C1015 C1016 1.397 . S
C1015 C1020 1.363 . S
C1016 H993 0.950 . S
C1016 C1015 1.397 . S
C1016 C1017 1.334 . S
C1017 H994 0.950 . S
C1017 C1016 1.334 . S
C1017 C1018 1.287 . S
C1018 C1017 1.287 . S
C1018 C1019 1.524 . S
C1018 H1037 0.913 . S
C1019 H995 0.950 . S
C1019 C1018 1.524 . S
C1019 C1020 1.415 . S
C1020 H996 0.950 . S
C1020 C1015 1.363 . S
C1020 C1019 1.415 . S
C1021 H997 0.951 . S
C1021 C1022 1.366 . S
C1021 C1023 1.388 . S
C1022 C1021 1.366 . S
C1022 C1026 1.385 . S
C1023 H998 0.951 . S
C1023 C1021 1.388 . S
C1023 C1024 1.366 . S
C1024 C1023 1.366 . S
C1024 C1025 1.414 . S
C1024 C1027 1.499 . S
C1025 H999 0.950 . S
C1025 C1024 1.414 . S
C1025 C1026 1.374 . S
C1026 H1000 0.950 . S
C1026 C1022 1.385 . S
C1026 C1025 1.374 . S
C1027 C1024 1.499 . S
C1027 C1028 1.373 . S
C1027 C1029 1.389 . S
C1028 H1001 0.950 . S
C1028 C1014 1.377 . S
C1028 C1027 1.373 . S
C1029 C1013 1.377 . S
C1029 C1027 1.389 . S
C1029 C1030 1.524 . S
C1030 C1029 1.524 . S
C1030 C1031 1.397 . S
C1030 C1035 1.363 . S
C1031 H1002 0.950 . S
C1031 C1030 1.397 . S
C1031 C1032 1.334 . S
C1032 H1003 0.950 . S
C1032 C1031 1.334 . S
C1032 C1033 1.287 . S
C1033 C1032 1.287 . S
C1033 C1034 1.524 . S
C1033 H1036 0.999 . S
C1034 H1004 0.950 . S
C1034 C1033 1.524 . S
C1034 C1035 1.415 . S
C1035 H1005 0.950 . S
C1035 C1030 1.363 . S
C1035 C1034 1.415 . S
H1036 C1033 0.999 . S
H1037 C1018 0.913 . S
C157 C18 0.868 . S
C172 C135 0.866 . S
C207 C41 0.868 . S
C222 C20 0.866 . S
C257 C64 0.868 . S
C272 C43 0.866 . S
C307 C66 0.866 . S
C322 C87 0.868 . S
C357 C89 0.866 . S
C372 C110 0.868 . S
C407 C133 0.868 . S
C422 C112 0.866 . S
C457 C16 1.526 . S
C472 C88 1.521 . S
C507 C39 1.527 . S
C522 C111 1.521 . S
C557 C134 1.520 . S
C572 C62 1.527 . S
C607 C85 1.527 . S
C622 C19 1.521 . S
C657 C42 1.521 . S
C672 C108 1.526 . S
C707 C131 1.527 . S
C722 C65 1.520 . S
C757 C17 1.185 . S
C772 C113 1.197 . S
C807 C136 1.197 . S
C822 C40 1.186 . S
C857 C21 1.198 . S
C872 C63 1.186 . S
C907 C86 1.186 . S
C922 C44 1.198 . S
C957 C67 1.197 . S
C972 C109 1.186 . S
C1007 C90 1.197 . S
C1022 C132 1.186 . S
