# Generated by pormake.
# Topology vby, (6)-cn, num edge types: 1
# Building blocks:
#     Node 0, Type 0, BuildingBlock: KUMJIN_clean_sbu_0, # of connection points: 6
#     Node 1, Type 0, BuildingBlock: KUMJIN_clean_sbu_0, # of connection points: 6
#     Node 2, Type 0, BuildingBlock: KUMJIN_clean_sbu_0, # of connection points: 6
#     Node 3, Type 0, BuildingBlock: KUMJIN_clean_sbu_0, # of connection points: 6
#     Node 4, Type 0, BuildingBlock: KUMJIN_clean_sbu_0, # of connection points: 6
#     Node 5, Type 0, BuildingBlock: KUMJIN_clean_sbu_0, # of connection points: 6
#     Node 6, Type 0, BuildingBlock: KUMJIN_clean_sbu_0, # of connection points: 6
#     Node 7, Type 0, BuildingBlock: KUMJIN_clean_sbu_0, # of connection points: 6
#     Edge 8, Type (0, 0), BuildingBlock: KIFKEQ_clean_linker_1, # of connection points: 2
#     Edge 9, Type (0, 0), BuildingBlock: KIFKEQ_clean_linker_1, # of connection points: 2
#     Edge 10, Type (0, 0), BuildingBlock: KIFKEQ_clean_linker_1, # of connection points: 2
#     Edge 11, Type (0, 0), BuildingBlock: KIFKEQ_clean_linker_1, # of connection points: 2
#     Edge 12, Type (0, 0), BuildingBlock: KIFKEQ_clean_linker_1, # of connection points: 2
#     Edge 13, Type (0, 0), BuildingBlock: KIFKEQ_clean_linker_1, # of connection points: 2
#     Edge 14, Type (0, 0), BuildingBlock: KIFKEQ_clean_linker_1, # of connection points: 2
#     Edge 15, Type (0, 0), BuildingBlock: KIFKEQ_clean_linker_1, # of connection points: 2
#     Edge 16, Type (0, 0), BuildingBlock: KIFKEQ_clean_linker_1, # of connection points: 2
#     Edge 17, Type (0, 0), BuildingBlock: KIFKEQ_clean_linker_1, # of connection points: 2
#     Edge 18, Type (0, 0), BuildingBlock: KIFKEQ_clean_linker_1, # of connection points: 2
#     Edge 19, Type (0, 0), BuildingBlock: KIFKEQ_clean_linker_1, # of connection points: 2
#     Edge 20, Type (0, 0), BuildingBlock: KIFKEQ_clean_linker_1, # of connection points: 2
#     Edge 21, Type (0, 0), BuildingBlock: KIFKEQ_clean_linker_1, # of connection points: 2
#     Edge 22, Type (0, 0), BuildingBlock: KIFKEQ_clean_linker_1, # of connection points: 2
#     Edge 23, Type (0, 0), BuildingBlock: KIFKEQ_clean_linker_1, # of connection points: 2
#     Edge 24, Type (0, 0), BuildingBlock: KIFKEQ_clean_linker_1, # of connection points: 2
#     Edge 25, Type (0, 0), BuildingBlock: KIFKEQ_clean_linker_1, # of connection points: 2
#     Edge 26, Type (0, 0), BuildingBlock: KIFKEQ_clean_linker_1, # of connection points: 2
#     Edge 27, Type (0, 0), BuildingBlock: KIFKEQ_clean_linker_1, # of connection points: 2
#     Edge 28, Type (0, 0), BuildingBlock: KIFKEQ_clean_linker_1, # of connection points: 2
#     Edge 29, Type (0, 0), BuildingBlock: KIFKEQ_clean_linker_1, # of connection points: 2
#     Edge 30, Type (0, 0), BuildingBlock: KIFKEQ_clean_linker_1, # of connection points: 2
#     Edge 31, Type (0, 0), BuildingBlock: KIFKEQ_clean_linker_1, # of connection points: 2
# Relax obj value: 0.108
# Max RMSD: 0.195
# Mean RMSD: 0.195
data_MOF--net-vby--node1-KUMJIN_clean_sbu_0--edge1-KIFKEQ_clean_linker_1
_symmetry_space_group_name_H-M    P1
_symmetry_Int_Tables_number       1
_symmetry_cell_setting            triclinic
loop_
_symmetry_equiv_pos_as_xyz
'x, y, z'
_cell_length_a     14.951366
_cell_length_b     99.608158
_cell_length_c     30.831513
_cell_angle_alpha  114.89556
_cell_angle_beta   89.932554
_cell_angle_gamma 90.02174
loop_
_atom_site_label
_atom_site_type_symbol
_atom_site_fract_x
_atom_site_fract_y
_atom_site_fract_z
_atom_type_partial_charge
Eu0 Eu 0.14937 0.40357 0.01769 0.0
C1 C 0.97535 0.34432 0.88679 0.0
C2 C 0.84059 0.34391 0.92997 0.0
C3 C 0.84356 0.33119 0.84327 0.0
C4 C 0.92968 0.34856 0.92959 0.0
C5 C 0.93368 0.33517 0.84328 0.0
C6 C 0.79711 0.33555 0.88655 0.0
C7 C 0.0766 0.33268 0.80396 0.0
N8 N 0.06302 0.348 0.8881 0.0
C9 C 0.11517 0.3416 0.84805 0.0
C10 C 0.98506 0.32968 0.80139 0.0
Eu11 Eu 0.12395 0.36292 0.96427 0.0
N12 N 0.97353 0.35663 0.97099 0.0
C13 C 0.934 0.35965 0.01408 0.0
C14 C 0.79842 0.34756 0.97405 0.0
C15 C 0.84575 0.35532 0.01627 0.0
H16 H 0.18621 0.34384 0.85014 0.0
H17 H 0.81421 0.35801 0.05054 0.0
H18 H 0.72834 0.33206 0.88613 0.0
H19 H 0.11757 0.32807 0.77207 0.0
H20 H 0.96963 0.36561 0.04698 0.0
H21 H 0.38725 0.40651 0.88557 0.0
H22 H 0.72999 0.34425 0.97585 0.0
H23 H 0.18225 0.4153 0.13916 0.0
H24 H 0.24407 0.4017 0.91322 0.0
H25 H 0.30557 0.4225 0.19553 0.0
H26 H 0.81012 0.32431 0.81014 0.0
H27 H 0.51583 0.41484 0.94055 0.0
H28 H 0.57873 0.42143 0.02152 0.0
H29 H 0.9555 0.32262 0.76728 0.0
H30 H 0.55783 0.42498 0.10452 0.0
N31 N 0.28797 0.40668 0.98452 0.0
C32 C 0.29817 0.40503 0.93835 0.0
C33 C 0.45225 0.41271 0.95337 0.0
C34 C 0.44181 0.41467 0.00068 0.0
C35 C 0.38003 0.40794 0.9222 0.0
C36 C 0.35746 0.41173 0.01582 0.0
H37 H 0.45763 0.42512 0.16905 0.0
N38 N 0.26367 0.41119 0.07743 0.0
C39 C 0.31833 0.41975 0.15818 0.0
C40 C 0.34557 0.41373 0.06295 0.0
C41 C 0.24846 0.4151 0.12515 0.0
C42 C 0.4038 0.42133 0.14318 0.0
C43 C 0.41793 0.41872 0.09552 0.0
O44 O 0.11982 0.42596 0.0709 0.0
O45 O 0.05181 0.38463 0.992 0.0
O46 O 0.09816 0.37018 0.90464 0.0
O47 O 0.11246 0.39602 0.93963 0.0
O48 O 0.99686 0.40523 0.02594 0.0
O49 O 0.13483 0.42181 -0.00365 0.0
O50 O 0.21273 0.34361 0.94062 0.0
O51 O 0.22504 0.38173 -0.00305 0.0
O52 O 0.1052 0.39776 0.07764 0.0
O53 O 0.12861 0.37222 0.04553 0.0
O54 O 0.26053 0.36391 0.93365 0.0
O55 O 0.12132 0.34757 -0.00141 0.0
C56 C 0.9766 0.39141 0.00378 0.0
C57 C 0.04496 0.44236 0.04448 0.0
C58 C 0.99689 0.46523 0.03941 0.0
C59 C 0.06354 0.4546 0.03423 0.0
C60 C 0.91106 0.46325 0.05465 0.0
C61 C 0.959 0.44077 0.06003 0.0
C62 C 0.89251 0.45112 0.06476 0.0
C63 C 0.09766 0.38321 0.90267 0.0
C64 C 0.11675 0.4316 0.03953 0.0
C65 C 0.50179 0.42129 0.08003 0.0
C66 C 0.5136 0.41932 0.03284 0.0
C67 C 0.28873 0.37622 0.96664 0.0
C68 C 0.15702 0.32251 0.94938 0.0
C69 C 0.18925 0.31322 0.97021 0.0
C70 C 0.16688 0.29796 0.9503 0.0
C71 C 0.11261 0.29227 0.90919 0.0
C72 C 0.10252 0.31638 0.90876 0.0
C73 C 0.08058 0.30143 0.88886 0.0
C74 C 0.11229 0.38514 0.08175 0.0
C75 C 0.17993 0.33849 0.96988 0.0
H76 H 0.1299 0.45581 0.02212 0.0
H77 H 0.85852 0.47127 0.05988 0.0
H78 H 0.94315 0.43165 0.06899 0.0
H79 H 0.82642 0.44984 0.07689 0.0
H80 H 0.23079 0.31789 0.00187 0.0
H81 H 0.09597 0.28062 0.89198 0.0
H82 H 0.07716 0.32307 0.89193 0.0
H83 H 0.03902 0.29688 0.85722 0.0
Eu84 Eu 0.95018 0.65532 0.0394 0.0
C85 C 0.74235 0.59901 0.93045 0.0
C86 C 0.63213 0.60123 0.99094 0.0
C87 C 0.59415 0.58822 0.90688 0.0
C88 C 0.71853 0.60413 0.97824 0.0
C89 C 0.68089 0.59068 0.89433 0.0
C90 C 0.56987 0.59347 0.95506 0.0
C91 C 0.79833 0.58625 0.83614 0.0
N92 N 0.82666 0.60151 0.9192 0.0
C93 C 0.85688 0.59441 0.87319 0.0
C94 C 0.70936 0.58461 0.84666 0.0
Eu95 Eu 0.92261 0.61511 0.98415 0.0
N96 N 0.77944 0.6119 0.01232 0.0
C97 C 0.75917 0.61644 0.05971 0.0
C98 C 0.61063 0.60623 0.03937 0.0
C99 C 0.67471 0.61375 0.07385 0.0
H100 H 0.92664 0.59504 0.86515 0.0
H101 H 0.65888 0.6176 0.11144 0.0
H102 H 0.50303 0.59132 0.96422 0.0
H103 H 0.82222 0.58103 0.79963 0.0
H104 H 0.80664 0.62244 0.08718 0.0
H105 H 0.28181 0.66474 0.98261 0.0
H106 H 0.54497 0.60427 0.05048 0.0
H107 H 0.85686 0.67458 0.14705 0.0
H108 H 0.1242 0.65678 0.97225 0.0
H109 H 0.90386 0.68985 0.23035 0.0
H110 H 0.54594 0.58198 0.8796 0.0
H111 H 0.34865 0.67582 0.06344 0.0
H112 H 0.32682 0.68573 0.15233 0.0
H113 H 0.66422 0.57815 0.81796 0.0
H114 H 0.22318 0.69259 0.22037 0.0
N115 N 0.10215 0.66284 0.04636 0.0
C116 C 0.15219 0.66164 0.00779 0.0
C117 C 0.27933 0.67233 0.05913 0.0
C118 C 0.22573 0.6746 0.09884 0.0
C119 C 0.24173 0.66614 0.01348 0.0
C120 C 0.13588 0.66983 0.09121 0.0
H121 H 0.0646 0.69459 0.24972 0.0
N122 N 0.98989 0.67034 0.12008 0.0
C123 C 0.95355 0.68526 0.20239 0.0
C124 C 0.07783 0.67368 0.12944 0.0
C125 C 0.92715 0.67665 0.15522 0.0
C126 C 0.04439 0.68784 0.21321 0.0
C127 C 0.10769 0.68238 0.17636 0.0
O128 O 0.86185 0.67448 0.05656 0.0
O129 O 0.84857 0.63684 0.00398 0.0
O130 O 0.91556 0.6221 0.9232 0.0
O131 O 0.97195 0.64618 0.95895 0.0
O132 O 0.80728 0.65497 0.06418 0.0
O133 O 0.96488 0.67022 0.00387 0.0
O134 O 0.99437 0.5943 0.94499 0.0
O135 O 1.02426 0.63349 0.01583 0.0
O136 O 0.9677 0.64821 0.09985 0.0
O137 O 0.95762 0.62244 0.06258 0.0
O138 O 0.06243 0.6154 0.9546 0.0
O139 O 0.92395 0.59786 0.01023 0.0
C140 C 0.78103 0.64257 0.03118 0.0
C141 C 0.92678 0.69531 0.05023 0.0
C142 C 0.91584 0.72024 0.05256 0.0
C143 C 0.89253 0.70502 0.03158 0.0
C144 C 0.97271 0.72545 0.09269 0.0
C145 C 0.98449 0.70091 0.08961 0.0
C146 C 1.00694 0.71585 0.11075 0.0
C147 C 0.94659 0.63425 0.92109 0.0
C148 C 0.90291 0.67938 0.02884 0.0
C149 C 0.19866 0.6861 0.1845 0.0
C150 C 0.25767 0.6822 0.14575 0.0
C151 C 0.08968 0.62795 0.98686 0.0
C152 C 0.04921 0.58214 0.99138 0.0
C153 C 1.03578 0.56828 0.99244 0.0
C154 C 0.10355 0.56175 0.00901 0.0
C155 C 0.18534 0.56931 0.02394 0.0
C156 C 0.13092 0.58951 0.00686 0.0
C157 C 0.19871 0.58306 0.0228 0.0
C158 C 0.96928 0.63506 0.10072 0.0
C159 C 0.97576 0.58903 0.9762 0.0
H160 H 0.84892 0.7007 0.00069 0.0
H161 H 0.99008 0.73706 0.11076 0.0
H162 H 1.01214 0.6938 0.10429 0.0
H163 H 0.05084 0.72002 0.14151 0.0
H164 H 0.97175 0.56279 0.98146 0.0
H165 H 0.23937 0.56456 0.03625 0.0
H166 H 0.14204 0.60026 0.0069 0.0
H167 H 0.26183 0.58877 0.03454 0.0
Eu168 Eu 0.12468 0.6147 0.48705 0.0
C169 C 0.95319 0.67392 0.61518 0.0
C170 C 0.81669 0.67365 0.57265 0.0
C171 C 0.82046 0.68646 0.65933 0.0
C172 C 0.90656 0.66932 0.57269 0.0
C173 C 0.91157 0.68297 0.65884 0.0
C174 C 0.77311 0.68182 0.61626 0.0
C175 C 0.05607 0.68641 0.69706 0.0
N176 N 0.04182 0.67082 0.61318 0.0
C177 C 0.0945 0.67759 0.65276 0.0
C178 C 0.96387 0.68889 0.70029 0.0
Eu179 Eu 0.10212 0.65536 0.53711 0.0
N180 N 0.95097 0.66156 0.53116 0.0
C181 C 0.91115 0.65863 0.48826 0.0
C182 C 0.77421 0.67002 0.52873 0.0
C183 C 0.82216 0.66269 0.48638 0.0
H184 H 0.16586 0.67564 0.6503 0.0
H185 H 0.79047 0.66008 0.45222 0.0
H186 H 0.70369 0.68502 0.61696 0.0
H187 H 0.09758 0.69131 0.72861 0.0
H188 H 0.94703 0.65297 0.45523 0.0
H189 H 0.30068 0.60412 0.6272 0.0
H190 H 0.70522 0.67311 0.52715 0.0
H191 H 0.20702 0.61079 0.37814 0.0
H192 H 0.17196 0.60902 0.58869 0.0
H193 H 0.34746 0.60525 0.33492 0.0
H194 H 0.78698 0.69323 0.69259 0.0
H195 H 0.44825 0.5995 0.58795 0.0
H196 H 0.5404 0.5963 0.51728 0.0
H197 H 0.93438 0.69587 0.73454 0.0
H198 H 0.55262 0.59627 0.438 0.0
N199 N 0.24513 0.60972 0.52955 0.0
C200 C 0.23578 0.60828 0.57173 0.0
C201 C 0.39182 0.60221 0.57107 0.0
C202 C 0.40029 0.60244 0.52633 0.0
C203 C 0.30894 0.60494 0.59351 0.0
C204 C 0.3248 0.60614 0.5058 0.0
H205 H 0.48199 0.59963 0.37039 0.0
N206 N 0.25946 0.60993 0.44156 0.0
C207 C 0.34447 0.60566 0.37053 0.0
C208 C 0.33187 0.60614 0.46076 0.0
C209 C 0.26439 0.60919 0.39621 0.0
C210 C 0.41996 0.60237 0.39048 0.0
C211 C 0.41429 0.60241 0.43573 0.0
O212 O 0.09855 0.59454 0.42265 0.0
O213 O 1.02857 0.63378 0.5082 0.0
O214 O 0.07442 0.64882 0.59801 0.0
O215 O 0.08359 0.62294 0.56476 0.0
O216 O 0.97164 0.61346 0.49045 0.0
O217 O 0.09974 0.59367 0.49261 0.0
O218 O 0.1881 0.67509 0.56079 0.0
O219 O 0.20203 0.63622 0.50612 0.0
O220 O 0.08292 0.62001 0.42539 0.0
O221 O 0.10294 0.6456 0.45605 0.0
O222 O 0.23737 0.65408 0.56875 0.0
O223 O 0.10678 0.66939 0.49832 0.0
C224 C 0.95288 0.62729 0.50462 0.0
C225 C 0.06894 0.57037 0.42254 0.0
C226 C 0.04745 0.54607 0.42397 0.0
C227 C 0.07104 0.56122 0.44742 0.0
C228 C 1.02304 0.54026 0.37545 0.0
C229 C 0.04456 0.56413 0.37405 0.0
C230 C 1.0219 0.54921 0.35081 0.0
C231 C 0.0702 0.63597 0.60094 0.0
C232 C 0.08938 0.58645 0.44649 0.0
C233 C 0.48897 0.59897 0.45656 0.0
C234 C 0.48204 0.59901 0.50172 0.0
C235 C 0.26487 0.64153 0.53694 0.0
C236 C 0.13215 0.69486 0.54457 0.0
C237 C 0.17892 0.70471 0.53045 0.0
C238 C 0.14685 0.71928 0.54367 0.0
C239 C 0.06912 0.72388 0.57175 0.0
C240 C 0.05492 0.69985 0.57261 0.0
C241 C 1.02392 0.71424 0.58627 0.0
C242 C 0.08748 0.63255 0.42039 0.0
C243 C 0.16033 0.67921 0.52824 0.0
H244 H 0.08961 0.56588 0.48485 0.0
H245 H 1.00596 0.52867 0.35621 0.0
H246 H 0.0422 0.57082 0.35401 0.0
H247 H 1.00321 0.54454 0.31343 0.0
H248 H 0.23825 0.70097 0.50837 0.0
H249 H 0.0435 0.735 0.58271 0.0
H250 H 1.01773 0.6926 0.58355 0.0
H251 H 0.96406 0.7179 0.60788 0.0
Eu252 Eu 0.96378 0.36274 0.46396 0.0
C253 C 0.73766 0.41396 0.55883 0.0
C254 C 0.64556 0.4141 0.49412 0.0
C255 C 0.58115 0.42162 0.57305 0.0
C256 C 0.72867 0.41142 0.51107 0.0
C257 C 0.66368 0.41925 0.59024 0.0
C258 C 0.57222 0.4191 0.52521 0.0
C259 C 0.75891 0.42081 0.65501 0.0
N260 N 0.81821 0.41155 0.57492 0.0
C261 C 0.83045 0.41584 0.62305 0.0
C262 C 0.67478 0.4223 0.63844 0.0
Eu263 Eu 0.93604 0.40343 0.51703 0.0
N264 N 0.79961 0.406 0.48088 0.0
C265 C 0.79181 0.40364 0.43391 0.0
C266 C 0.63778 0.41149 0.44611 0.0
C267 C 0.71128 0.40629 0.41598 0.0
H268 H 0.89562 0.41612 0.63816 0.0
H269 H 0.70604 0.4043 0.37875 0.0
H270 H 0.50804 0.42103 0.51252 0.0
H271 H 0.76937 0.42388 0.69274 0.0
H272 H 0.84666 0.39986 0.40931 0.0
H273 H 0.28683 0.35497 0.5328 0.0
H274 H 0.57522 0.41341 0.43191 0.0
H275 H 0.88016 0.34392 0.35422 0.0
H276 H 0.13142 0.36362 0.53775 0.0
H277 H 0.93261 0.32716 0.27329 0.0
H278 H 0.52389 0.42555 0.59665 0.0
H279 H 0.35788 0.34116 0.4539 0.0
H280 H 0.3432 0.32921 0.36446 0.0
H281 H 0.61963 0.42633 0.66347 0.0
H282 H 0.24681 0.32175 0.29349 0.0
N283 N 0.11467 0.35526 0.46234 0.0
C284 C 0.16123 0.35764 0.50303 0.0
C285 C 0.28953 0.34498 0.45582 0.0
C286 C 0.23987 0.34186 0.41423 0.0
C287 C 0.24957 0.35273 0.50041 0.0
C288 C 0.15119 0.34713 0.41872 0.0
H289 H 0.09292 0.32057 0.25932 0.0
N290 N 1.0099 0.34708 0.38517 0.0
C291 C 0.97972 0.33162 0.30256 0.0
C292 C 0.0972 0.34297 0.37876 0.0
C293 C 0.95025 0.34111 0.34837 0.0
C294 C 0.07035 0.32798 0.29478 0.0
C295 C 0.13005 0.33341 0.33329 0.0
O296 O 0.87568 0.34337 0.44427 0.0
O297 O 0.86197 0.38154 0.49694 0.0
O298 O 0.97338 0.39797 0.57881 0.0
O299 O 0.97714 0.37211 0.54476 0.0
O300 O 0.82534 0.36356 0.43483 0.0
O301 O 0.96709 0.34874 0.50288 0.0
O302 O 0.96245 0.42607 0.56915 0.0
O303 O 1.03414 0.38462 0.49177 0.0
O304 O 0.99811 0.36988 0.40485 0.0
O305 O 0.97758 0.3956 0.43923 0.0
O306 O 0.0876 0.40512 0.52996 0.0
O307 O 0.95606 0.42123 0.49382 0.0
C308 C 0.79743 0.37592 0.46747 0.0
C309 C 0.93476 0.32337 0.45823 0.0
C310 C 0.91979 0.29903 0.45969 0.0
C311 C 0.89005 0.31379 0.4743 0.0
C312 C 0.99309 0.29398 0.42841 0.0
C313 C 1.00738 0.31791 0.42691 0.0
C314 C 1.03612 0.30335 0.41199 0.0
C315 C 0.98134 0.38518 0.58182 0.0
C316 C 0.90909 0.33917 0.47557 0.0
C317 C 0.22001 0.32895 0.32822 0.0
C318 C 0.27485 0.33317 0.36864 0.0
C319 C 0.10874 0.39138 0.50641 0.0
C320 C 0.04451 0.44191 0.54311 0.0
C321 C 1.0326 0.45353 0.5288 0.0
C322 C 0.10109 0.46404 0.53566 0.0
C323 C 0.18158 0.46263 0.55707 0.0
C324 C 0.12555 0.44086 0.5644 0.0
C325 C 0.19355 0.45113 0.57111 0.0
C326 C 0.99762 0.3829 0.4027 0.0
C327 C 0.9708 0.43131 0.53697 0.0
H328 H 0.83415 0.31786 0.4988 0.0
H329 H 1.01679 0.28271 0.41638 0.0
H330 H 0.04268 0.32492 0.41426 0.0
H331 H 0.09247 0.29934 0.38784 0.0
H332 H 0.97017 0.45431 0.51219 0.0
H333 H 0.23509 0.47059 0.56386 0.0
H334 H 0.13622 0.43223 0.5764 0.0
H335 H 0.25566 0.45027 0.58777 0.0
Eu336 Eu 0.63754 0.9031 0.0183 0.0
C337 C 0.47365 0.84277 0.88161 0.0
C338 C 0.3324 0.84147 0.91825 0.0
C339 C 0.3501 0.8287 0.83204 0.0
C340 C 0.42089 0.84678 0.92207 0.0
C341 C 0.43967 0.83332 0.83631 0.0
C342 C 0.29654 0.83277 0.87294 0.0
C343 C 0.58795 0.83232 0.80371 0.0
N344 N 0.56059 0.84711 0.88715 0.0
C345 C 0.61873 0.84161 0.8494 0.0
C346 C 0.49775 0.82831 0.797 0.0
Eu347 Eu 0.60854 0.8625 0.9658 0.0
N348 N 0.45805 0.855 0.96542 0.0
C349 C 0.41211 0.85753 0.00647 0.0
C350 C 0.28354 0.84467 0.96019 0.0
C351 C 0.32398 0.85259 0.00449 0.0
H352 H 0.68855 0.84467 0.85447 0.0
H353 H 0.28725 0.85493 0.03715 0.0
H354 H 0.22836 0.82875 0.86928 0.0
H355 H 0.63379 0.82825 0.77374 0.0
H356 H 0.44224 0.86364 0.04098 0.0
H357 H 0.86985 0.90312 0.87955 0.0
H358 H 0.21533 0.84083 0.95878 0.0
H359 H 0.67699 0.91578 0.13958 0.0
H360 H 0.72911 0.89858 0.91002 0.0
H361 H 0.80269 0.92372 0.19428 0.0
H362 H 0.32246 0.82158 0.79747 0.0
H363 H 0.99952 0.9127 0.93313 0.0
H364 H 0.06555 0.9207 0.01407 0.0
H365 H 0.47422 0.82103 0.76163 0.0
H366 H 0.04875 0.92545 0.09837 0.0
N367 N 0.77459 0.9054 0.98209 0.0
C368 C 0.78326 0.90271 0.93486 0.0
C369 C 0.9368 0.91081 0.94732 0.0
C370 C 0.92834 0.91363 -0.00451 0.0
C371 C 0.86393 0.90535 0.91696 0.0
C372 C 0.84505 0.91098 0.01243 0.0
H373 H 0.95252 0.92628 0.16516 0.0
N374 N 0.75487 0.91121 0.07635 0.0
C375 C 0.81345 0.92062 0.15655 0.0
C376 C 0.83551 0.91364 0.0603 0.0
C377 C 0.74223 0.91554 0.12449 0.0
C378 C 0.89763 0.92216 0.14005 0.0
C379 C 0.90915 0.91904 0.09182 0.0
O380 O 0.6099 0.9257 0.07041 0.0
O381 O 0.53889 0.88438 0.99377 0.0
O382 O 0.56943 0.86982 0.90773 0.0
O383 O 0.59578 0.89538 0.94052 0.0
O384 O 0.48551 0.90496 0.03036 0.0
O385 O 0.62242 0.92099 -0.00471 0.0
O386 O 0.69554 0.84298 0.94469 0.0
O387 O 0.71103 0.88117 -0.00164 0.0
O388 O 0.59897 0.89779 0.08024 0.0
O389 O 0.5963 0.87192 0.04676 0.0
O390 O 0.74687 0.86323 0.93603 0.0
O391 O 0.60653 0.84844 0.00454 0.0
C392 C 0.46424 0.89119 0.00768 0.0
C393 C 0.5355 0.94198 0.04341 0.0
C394 C 0.48983 0.96498 0.03839 0.0
C395 C 0.55498 0.95405 0.03239 0.0
C396 C 0.40453 0.96346 0.05523 0.0
C397 C 0.45001 0.94081 0.06029 0.0
C398 C 0.38498 0.95146 0.06588 0.0
C399 C 0.5721 0.88272 0.90478 0.0
C400 C 0.60622 0.93104 0.03832 0.0
C401 C 0.99178 0.92143 0.07467 0.0
C402 C 1.00125 0.91878 0.02673 0.0
C403 C 0.77544 0.8755 0.96878 0.0
C404 C 0.63775 0.82305 0.9595 0.0
C405 C 0.68255 0.81355 0.97583 0.0
C406 C 0.65297 0.79881 0.96159 0.0
C407 C 0.57959 0.79369 0.9305 0.0
C408 C 0.56526 0.81751 0.92822 0.0
C409 C 0.53651 0.80297 0.91376 0.0
C410 C 0.59148 0.88503 0.0836 0.0
C411 C 0.66355 0.83882 0.97645 0.0
H412 H 0.62096 0.95489 0.01914 0.0
H413 H 0.35316 0.97171 0.06127 0.0
H414 H 0.43353 0.9318 0.0697 0.0
H415 H 0.3193 0.95052 0.07916 0.0
H416 H 0.73851 0.81768 0.00019 0.0
H417 H 0.556 0.78242 0.91881 0.0
H418 H 0.5302 0.82443 0.91518 0.0
H419 H 0.48021 0.7989 0.88968 0.0
Eu420 Eu 0.45993 0.15559 0.03682 0.0
C421 C 0.24479 0.10031 0.93774 0.0
C422 C 0.14175 0.10331 0.00206 0.0
C423 C 0.09336 0.09044 0.91961 0.0
C424 C 0.22684 0.10562 0.98629 0.0
C425 C 0.17855 0.09237 0.90395 0.0
C426 C 0.07505 0.09587 0.96853 0.0
C427 C 0.28794 0.08738 0.84153 0.0
N428 N 0.32761 0.10237 0.92341 0.0
C429 C 0.35142 0.09515 0.87628 0.0
C430 C 0.20056 0.08622 0.85535 0.0
Eu431 Eu 0.43208 0.1154 0.98496 0.0
N432 N 0.2918 0.11315 0.01812 0.0
C433 C 0.27665 0.11805 0.06616 0.0
C434 C 0.12579 0.1086 0.05114 0.0
C435 C 0.19376 0.11592 0.08328 0.0
H436 H 0.41991 0.0953 0.86535 0.0
H437 H 0.1822 0.12001 0.12137 0.0
H438 H 1.00921 0.09417 0.98008 0.0
H439 H 0.30688 0.08208 0.80419 0.0
H440 H 0.32713 0.12384 0.09194 0.0
H441 H 0.78259 0.16328 0.96627 0.0
H442 H 0.06135 0.10709 0.06458 0.0
H443 H 0.38124 0.17584 0.14742 0.0
H444 H 0.6248 0.15596 0.96228 0.0
H445 H 0.43952 0.19111 0.22852 0.0
H446 H 0.04161 0.08451 0.89415 0.0
H447 H 0.85999 0.17446 0.04426 0.0
H448 H 0.8504 0.18481 0.13376 0.0
H449 H 0.15159 0.08008 0.82839 0.0
H450 H 0.75639 0.1924 0.20575 0.0
N451 N 0.61229 0.16248 0.03732 0.0
C452 C 0.65702 0.16085 -0.0033 0.0
C453 C 0.79041 0.17126 0.04279 0.0
C454 C 0.74243 0.17393 0.0846 0.0
C455 C 0.74686 0.16501 -0.00126 0.0
C456 C 0.65194 0.16953 0.08068 0.0
H457 H 0.60242 0.19521 0.24135 0.0
N458 N 0.5102 0.17098 0.11531 0.0
C459 C 0.48522 0.18625 0.19869 0.0
C460 C 0.59913 0.17388 0.12111 0.0
C461 C 0.45244 0.17768 0.15278 0.0
C462 C 0.57726 0.18846 0.20582 0.0
C463 C 0.63529 0.1826 0.1666 0.0
O464 O 0.37769 0.17567 0.05894 0.0
O465 O 0.3578 0.13706 0.00311 0.0
O466 O 0.43148 0.12136 0.92177 0.0
O467 O 0.4762 0.1461 0.95605 0.0
O468 O 0.31806 0.15537 0.06328 0.0
O469 O 0.46238 0.16939 -0.00279 0.0
O470 O 0.49496 0.09391 0.94344 0.0
O471 O 0.53384 0.13382 0.01468 0.0
O472 O 0.47881 0.149 0.09844 0.0
O473 O 0.47545 0.12317 0.06262 0.0
O474 O 0.57234 0.11526 0.95512 0.0
O475 O 0.4372 0.09851 0.01255 0.0
C476 C 0.29101 0.14295 0.03069 0.0
C477 C 0.43975 0.19501 0.04268 0.0
C478 C 0.42854 0.2195 0.04208 0.0
C479 C 0.39503 0.205 0.02849 0.0
C480 C 0.50581 0.22387 0.07055 0.0
C481 C 0.51643 0.19977 0.07123 0.0
C482 C 0.54901 0.21409 0.08517 0.0
C483 C 0.45702 0.13362 0.91869 0.0
C484 C 0.40913 0.1795 0.0264 0.0
C485 C 0.72708 0.1859 0.17103 0.0
C486 C 0.78061 0.18158 0.13005 0.0
C487 C 0.59944 0.12803 0.98611 0.0
C488 C 0.55557 0.08132 0.98728 0.0
C489 C 0.53982 0.06762 0.98914 0.0
C490 C 0.60884 0.0603 0.00182 0.0
C491 C 0.69415 0.06688 0.01198 0.0
C492 C 0.6409 0.0877 -0.00205 0.0
C493 C 0.70987 0.08045 0.00997 0.0
C494 C 0.48545 0.13601 0.10022 0.0
C495 C 0.48122 0.08902 0.97605 0.0
H496 H 0.33601 0.20143 0.00615 0.0
H497 H 0.53252 0.23494 0.08181 0.0
H498 H 0.55175 0.19241 0.08248 0.0
H499 H 0.60839 0.21759 0.10716 0.0
H500 H 0.47327 0.06287 0.98181 0.0
H501 H 0.74906 0.06149 0.02121 0.0
H502 H 0.65403 0.0983 -0.00276 0.0
H503 H 0.77575 0.08539 0.01798 0.0
Eu504 Eu 0.64943 0.11504 0.48381 0.0
C505 C 0.48814 0.17412 0.62443 0.0
C506 C 0.34464 0.1754 0.59003 0.0
C507 C 0.36433 0.1872 0.67622 0.0
C508 C 0.43397 0.17037 0.58471 0.0
C509 C 0.45483 0.18304 0.67048 0.0
C510 C 0.3093 0.18339 0.63603 0.0
C511 C 0.60569 0.18514 0.70068 0.0
N512 N 0.57595 0.17033 0.61751 0.0
C513 C 0.63573 0.1764 0.6543 0.0
C514 C 0.51455 0.18821 0.70899 0.0
Eu515 Eu 0.62179 0.15532 0.53788 0.0
N516 N 0.47051 0.16282 0.54071 0.0
C517 C 0.42352 0.16102 0.50061 0.0
C518 C 0.29457 0.17278 0.54893 0.0
C519 C 0.3347 0.16577 0.50406 0.0
H520 H 0.70628 0.174 0.64797 0.0
H521 H 0.29715 0.16394 0.47207 0.0
H522 H 0.24048 0.18714 0.64081 0.0
H523 H 0.65283 0.18951 0.72995 0.0
H524 H 0.45332 0.15557 0.46563 0.0
H525 H 0.88929 0.11752 0.62197 0.0
H526 H 0.22576 0.17645 0.55149 0.0
H527 H 0.6731 0.09703 0.36308 0.0
H528 H 0.7467 0.12162 0.59143 0.0
H529 H 0.79214 0.08585 0.30395 0.0
H530 H 0.33721 0.19388 0.71137 0.0
H531 H 1.01525 0.1062 0.56678 0.0
H532 H 0.07516 0.09554 0.48351 0.0
H533 H 0.49157 0.1951 0.74489 0.0
H534 H 0.05028 0.08771 0.3976 0.0
N535 N 0.78808 0.1127 0.51833 0.0
C536 C 0.79944 0.11662 0.5662 0.0
C537 C 0.95182 0.10785 0.55277 0.0
C538 C 0.94011 0.10367 0.50383 0.0
C539 C 0.881 0.11427 0.584 0.0
C540 C 0.856 0.10605 0.48726 0.0
H541 H 0.94583 0.08419 0.33057 0.0
N542 N 0.75997 0.10367 0.42349 0.0
C543 C 0.80771 0.09053 0.34173 0.0
C544 C 0.84211 0.10171 0.43875 0.0
C545 C 0.74071 0.09724 0.37558 0.0
C546 C 0.89416 0.08955 0.35689 0.0
C547 C 0.91178 0.09478 0.40579 0.0
O548 O 0.59962 0.09289 0.43793 0.0
O549 O 0.54787 0.13347 0.51409 0.0
O550 O 0.59876 0.14823 0.59806 0.0
O551 O 0.60315 0.12238 0.56108 0.0
O552 O 0.50799 0.11476 0.45552 0.0
O553 O 0.63707 0.09804 0.51087 0.0
O554 O 0.71174 0.17438 0.55733 0.0
O555 O 0.72345 0.13676 0.50297 0.0
O556 O 0.63932 0.12125 0.42134 0.0
O557 O 0.60553 0.14646 0.45734 0.0
O558 O 0.76297 0.15471 0.56438 0.0
O559 O 0.61199 0.17057 0.50335 0.0
C560 C 0.48136 0.1276 0.48633 0.0
C561 C 0.53124 0.07887 0.47519 0.0
C562 C 0.48052 0.05608 0.47986 0.0
C563 C 0.55021 0.06523 0.47694 0.0
C564 C 0.39162 0.06091 0.48141 0.0
C565 C 0.44216 0.08348 0.47729 0.0
C566 C 0.37284 0.07452 0.48033 0.0
C567 C 0.59229 0.13512 0.59907 0.0
C568 C 0.60536 0.08804 0.47107 0.0
C569 C 0.99601 0.09286 0.42239 0.0
C570 C 1.01005 0.09725 0.47127 0.0
C571 C 0.78983 0.1424 0.53107 0.0
C572 C 0.6517 0.19556 0.55101 0.0
C573 C 0.68389 0.20506 0.53093 0.0
C574 C 0.66238 0.22035 0.55207 0.0
C575 C 0.60929 0.22587 0.5937 0.0
C576 C 0.59819 0.20151 0.59211 0.0
C577 C 0.57733 0.21651 0.61328 0.0
C578 C 0.61833 0.13386 0.41934 0.0
C579 C 0.67373 0.17954 0.52947 0.0
H580 H 0.61911 0.06166 0.47522 0.0
H581 H 0.33651 0.05425 0.48415 0.0
H582 H 0.42619 0.09398 0.47649 0.0
H583 H 0.30417 0.07813 0.48188 0.0
H584 H 0.72464 0.20052 0.49889 0.0
H585 H 0.59341 0.23754 0.61183 0.0
H586 H 0.57279 0.19464 0.60827 0.0
H587 H 0.53659 0.22092 0.6453 0.0
Eu588 Eu 0.45336 0.86287 0.46611 0.0
C589 C 0.25379 0.92033 0.58187 0.0
C590 C 0.13589 0.91882 0.52593 0.0
C591 C 0.11021 0.93225 0.6113 0.0
C592 C 0.22328 0.91529 0.53513 0.0
C593 C 0.19815 0.9292 0.62032 0.0
C594 C 0.07917 0.92708 0.56423 0.0
C595 C 0.32343 0.93287 0.67351 0.0
N596 N 0.33914 0.91726 0.58973 0.0
C597 C 0.37611 0.92414 0.63427 0.0
C598 C 0.23354 0.93519 0.66663 0.0
Eu599 Eu 0.4247 0.90303 0.52114 0.0
N600 N 0.27903 0.90712 0.49865 0.0
C601 C 0.25302 0.90287 0.45219 0.0
C602 C 0.10804 0.91402 0.47846 0.0
C603 C 0.1672 0.90614 0.44147 0.0
H604 H 0.44617 0.92255 0.63955 0.0
H605 H 0.14654 0.90248 0.40462 0.0
H606 H 1.0116 0.92972 0.55779 0.0
H607 H 0.35234 0.93788 0.70895 0.0
H608 H 0.297 0.89662 0.42298 0.0
H609 H 0.78925 0.85317 0.51677 0.0
H610 H 0.04138 0.91645 0.47 0.0
H611 H 0.35296 0.84337 0.36069 0.0
H612 H 0.63209 0.86134 0.52997 0.0
H613 H 0.39415 0.82763 0.27687 0.0
H614 H 0.06633 0.93891 0.64043 0.0
H615 H 0.85065 0.84165 0.43466 0.0
H616 H 0.82254 0.83129 0.34618 0.0
H617 H 0.19296 0.94206 0.69705 0.0
H618 H 0.71405 0.82425 0.28028 0.0
N619 N 0.60499 0.85504 0.45622 0.0
C620 C 0.65772 0.85631 0.49391 0.0
C621 C 0.78154 0.84526 0.44024 0.0
C622 C 0.72514 0.84287 0.40151 0.0
C623 C 0.74702 0.85168 0.4866 0.0
C624 C 0.63572 0.8478 0.4108 0.0
H625 H 0.55342 0.82239 0.25425 0.0
N626 N 0.48772 0.84737 0.38496 0.0
C627 C 0.44575 0.83222 0.3037 0.0
C628 C 0.57497 0.84382 0.3738 0.0
C629 C 0.42265 0.84112 0.35122 0.0
C630 C 0.53576 0.82936 0.29103 0.0
C631 C 0.60158 0.83485 0.32645 0.0
O632 O 0.36459 0.84394 0.45229 0.0
O633 O 0.35129 0.88131 0.50094 0.0
O634 O 0.40828 0.89537 0.5805 0.0
O635 O 0.48136 0.87267 0.54615 0.0
O636 O 0.31002 0.86305 0.44155 0.0
O637 O 0.47021 0.84855 0.50356 0.0
O638 O 0.50289 0.92339 0.55631 0.0
O639 O 0.52688 0.88476 0.48877 0.0
O640 O 0.47099 0.86977 0.40522 0.0
O641 O 0.45075 0.89539 0.44148 0.0
O642 O 0.56488 0.90282 0.5502 0.0
O643 O 0.41963 0.92037 0.49554 0.0
C644 C 0.28374 0.87556 0.47394 0.0
C645 C 0.43092 0.82339 0.45966 0.0
C646 C 0.41835 0.79855 0.45804 0.0
C647 C 0.39471 0.81376 0.47822 0.0
C648 C 0.47732 0.79325 0.41872 0.0
C649 C 0.49065 0.8177 0.42113 0.0
C650 C 0.5133 0.80277 0.40071 0.0
C651 C 0.44717 0.88387 0.58358 0.0
C652 C 0.4073 0.83932 0.48021 0.0
C653 C 0.69202 0.83095 0.31653 0.0
C654 C 0.75379 0.83497 0.35405 0.0
C655 C 0.59242 0.89036 0.51755 0.0
C656 C 0.54535 0.93576 0.50813 0.0
C657 C 0.53056 0.95002 0.51037 0.0
C658 C 0.5927 0.95656 0.49049 0.0
C659 C 0.6702 0.94848 0.4686 0.0
C660 C 0.62289 0.92799 0.48609 0.0
C661 C 0.68506 0.93437 0.46662 0.0
C662 C 0.46615 0.88281 0.40369 0.0
C663 C 0.47693 0.92891 0.52677 0.0
H664 H 0.34945 0.81814 0.50846 0.0
H665 H 0.49506 0.78165 0.40123 0.0
H666 H 0.51981 0.82477 0.40661 0.0
H667 H 0.55882 0.79853 0.3706 0.0
H668 H 0.47056 0.95597 0.5277 0.0
H669 H 0.71877 0.95291 0.45201 0.0
H670 H 0.63479 0.91694 0.48352 0.0
H671 H 0.74463 0.92828 0.44936 0.0
H672 H 0.41486 0.37442 0.90042 0.0
H673 H 0.39261 0.38238 0.04823 0.0
H674 H 0.57634 0.37715 0.90807 0.0
H675 H 0.55529 0.38426 0.05608 0.0
H676 H 0.84945 0.39829 0.0726 0.0
H677 H 0.68837 0.39513 0.06497 0.0
H678 H 0.71837 0.37114 0.91185 0.0
H679 H 0.87978 0.37544 0.92024 0.0
C680 C 0.44471 0.37681 0.93489 0.0
C681 C 0.38908 0.37877 0.9741 0.0
C682 C 0.5389 0.37818 0.93931 0.0
C683 C 0.58319 0.38105 0.98292 0.0
C684 C 0.52684 0.38248 0.02188 0.0
C685 C 0.43214 0.38138 0.01756 0.0
C686 C 0.82178 0.39204 0.03729 0.0
C687 C 0.87954 0.38646 -0.00264 0.0
C688 C 0.7279 0.39016 0.03272 0.0
C689 C 0.68608 0.38265 0.98769 0.0
C690 C 0.74462 0.37713 0.9475 0.0
C691 C 0.83887 0.37924 0.9522 0.0
H692 H 0.19047 0.637 0.07086 0.0
H693 H 0.21792 0.62483 0.92025 0.0
H694 H 0.35231 0.63944 0.08013 0.0
H695 H 0.37874 0.62809 0.9289 0.0
H696 H 0.64825 0.65073 0.09753 0.0
H697 H 0.48795 0.64817 0.08839 0.0
H698 H 0.52201 0.6247 0.93524 0.0
H699 H 0.68341 0.62851 0.94526 0.0
C700 C 0.23104 0.63517 0.03974 0.0
C701 C 0.18956 0.63104 -0.00505 0.0
C702 C 0.32562 0.6366 0.04484 0.0
C703 C 0.38367 0.63415 0.00546 0.0
C704 C 0.3406 0.62999 0.9607 0.0
C705 C 0.24656 0.62825 0.95556 0.0
C706 C 0.62166 0.64495 0.06173 0.0
C707 C 0.68091 0.6394 0.02241 0.0
C708 C 0.5278 0.6433 0.05628 0.0
C709 C 0.48687 0.63594 0.01091 0.0
C710 C 0.54689 0.63056 0.97121 0.0
C711 C 0.64135 0.6325 0.9768 0.0
H712 H 0.82956 0.62204 0.43471 0.0
H713 H 0.85329 0.642 0.58775 0.0
H714 H 0.6677 0.62498 0.44121 0.0
H715 H 0.69107 0.64582 0.59514 0.0
H716 H 0.38725 0.63968 0.60008 0.0
H717 H 0.54965 0.6374 0.59354 0.0
H718 H 0.53569 0.63731 0.45345 0.0
H719 H 0.37243 0.63889 0.45985 0.0
C720 C 0.80035 0.62762 0.47001 0.0
C721 C 0.85639 0.6325 0.51057 0.0
C722 C 0.70621 0.62933 0.47391 0.0
C723 C 0.66256 0.63582 0.5188 0.0
C724 C 0.71924 0.64063 0.55958 0.0
C725 C 0.8137 0.63876 0.55552 0.0
C726 C 0.41883 0.63893 0.5675 0.0
C727 C 0.36516 0.63885 0.52978 0.0
C728 C 0.51331 0.63783 0.56386 0.0
C729 C 0.55957 0.63709 0.52278 0.0
C730 C 0.50526 0.63747 0.48548 0.0
C731 C 0.41041 0.63837 0.48899 0.0
H732 H 0.67057 0.37362 0.4012 0.0
H733 H 0.6941 0.38291 0.55 0.0
H734 H 0.5093 0.37649 0.40925 0.0
H735 H 0.53156 0.38493 0.55837 0.0
H736 H 0.23654 0.39839 0.57493 0.0
H737 H 0.39754 0.39526 0.56697 0.0
H738 H 0.367 0.37111 0.41395 0.0
H739 H 0.2057 0.37541 0.42268 0.0
C740 C 0.64105 0.37634 0.43599 0.0
C741 C 0.6971 0.37861 0.47527 0.0
C742 C 0.54687 0.3778 0.44068 0.0
C743 C 0.50283 0.38106 0.4847 0.0
C744 C 0.55962 0.38283 0.5238 0.0
C745 C 0.65434 0.38165 0.51918 0.0
C746 C 0.26408 0.39213 0.53956 0.0
C747 C 0.20612 0.38652 0.49979 0.0
C748 C 0.358 0.39025 0.53479 0.0
C749 C 0.39979 0.3827 0.4897 0.0
C750 C 0.34099 0.37714 0.44966 0.0
C751 C 0.24669 0.37924 0.45455 0.0
H752 H 0.87843 0.88275 0.05151 0.0
H753 H 0.90308 0.87276 0.90219 0.0
H754 H 0.04094 0.88484 0.05998 0.0
H755 H 0.06432 0.87566 0.91029 0.0
H756 H 0.36784 0.87482 0.9242 0.0
H757 H 0.20669 0.8704 0.91551 0.0
H758 H 0.17486 0.89524 0.0682 0.0
H759 H 0.33581 0.8985 0.0762 0.0
C760 C 0.91842 0.88133 0.02057 0.0
C761 C 0.87594 0.87809 0.97648 0.0
C762 C 1.01313 0.88255 0.02525 0.0
C763 C 0.07023 0.88062 0.98604 0.0
C764 C 1.0265 0.87712 0.94183 0.0
C765 C 0.93233 0.87563 0.93711 0.0
C766 C 0.32664 0.87878 0.95606 0.0
C767 C 0.36687 0.88631 0.00123 0.0
C768 C 0.23239 0.8766 0.95116 0.0
C769 C 0.17326 0.88233 0.9911 0.0
C770 C 0.21468 0.89011 0.03612 0.0
C771 C 0.30857 0.89206 0.04091 0.0
H772 H 0.15826 0.15105 0.09731 0.0
H773 H 0.19322 0.12913 0.94501 0.0
H774 H 0.99803 0.14841 0.08821 0.0
H775 H 1.03218 0.12531 0.93488 0.0
H776 H 0.72845 0.12402 0.91911 0.0
H777 H 0.88894 0.12738 0.92784 0.0
H778 H 0.86095 0.14074 0.08021 0.0
H779 H 0.69945 0.13808 0.07058 0.0
C780 C 0.1316 0.14534 0.0615 0.0
C781 C 0.19079 0.13987 0.02216 0.0
C782 C 0.0377 0.14365 0.05602 0.0
C783 C 0.99667 0.13635 0.0106 0.0
C784 C 0.05679 0.1311 0.97093 0.0
C785 C 0.15118 0.13304 0.97655 0.0
C786 C 0.75671 0.1279 0.95466 0.0
C787 C 0.69928 0.13121 0.99419 0.0
C788 C 0.85069 0.12972 0.95991 0.0
C789 C 0.8934 0.13449 0.00503 0.0
C790 C 0.83486 0.13741 0.04457 0.0
C791 C 0.74034 0.13587 0.03928 0.0
H792 H 0.38302 0.14084 0.57161 0.0
H793 H 0.35046 0.12046 0.41907 0.0
H794 H 0.22228 0.14451 0.58166 0.0
H795 H 0.19008 0.1231 0.42783 0.0
H796 H 0.88963 0.13212 0.44591 0.0
H797 H 0.05099 0.12934 0.4359 0.0
H798 H 0.07959 0.14369 0.58872 0.0
H799 H 0.91969 0.14697 0.5976 0.0
C800 C 0.34145 0.1373 0.54 0.0
C801 C 0.38158 0.13088 0.49444 0.0
C802 C 0.24707 0.13915 0.54552 0.0
C803 C 0.18743 0.13429 0.5057 0.0
C804 C 0.22915 0.12749 0.46021 0.0
C805 C 0.32314 0.12586 0.45488 0.0
C806 C 0.9307 0.13451 0.47721 0.0
C807 C 0.88984 0.13934 0.52246 0.0
C808 C 1.02524 0.13293 0.47172 0.0
C809 C 0.08406 0.13609 0.51128 0.0
C810 C 0.04149 0.1411 0.55653 0.0
C811 C 0.94762 0.14291 0.5619 0.0
H812 H 0.72001 0.89343 0.58427 0.0
H813 H 0.69377 0.88119 0.43357 0.0
H814 H 0.88092 0.89013 0.57575 0.0
H815 H 0.85578 0.87873 0.42448 0.0
H816 H 0.1513 0.86701 0.40759 0.0
H817 H 0.99088 0.8696 0.41661 0.0
H818 H 1.02418 0.89398 0.56943 0.0
H819 H 0.18572 0.89013 0.55967 0.0
C820 C 0.74893 0.89 0.54897 0.0
C821 C 0.69226 0.88722 0.50952 0.0
C822 C 0.84298 0.88824 0.54393 0.0
C823 C 0.88637 0.88406 0.49921 0.0
C824 C 0.8287 0.88159 0.45974 0.0
C825 C 0.73409 0.88304 0.46474 0.0
C826 C 0.12454 0.87299 0.44329 0.0
C827 C 0.1836 0.87876 0.48261 0.0
C828 C 1.03066 0.87466 0.44865 0.0
C829 C 0.98955 0.88227 0.49388 0.0
C830 C 0.04934 0.88789 0.53358 0.0
C831 C 0.14382 0.88594 0.52812 0.0
H832 H 0.15297 0.55381 0.08055 0.0
H833 H 1.02083 0.53681 0.9434 0.0
H834 H 0.1303 0.53023 0.08503 0.0
H835 H 0.9988 0.51309 0.94758 0.0
H836 H 0.88918 0.47857 -0.00317 0.0
H837 H 0.9155 0.50152 0.98873 0.0
H838 H 0.17714 0.50495 0.05183 0.0
H839 H 0.149 0.48234 0.06204 0.0
C840 C 0.11992 0.54498 0.05104 0.0
C841 C 0.08896 0.54725 0.01155 0.0
C842 C 0.10706 0.5314 0.05355 0.0
C843 C 0.06304 0.51964 0.01658 0.0
C844 C 1.03195 0.52191 0.97706 0.0
C845 C 0.04458 0.53554 0.97463 0.0
C846 C 0.95222 0.48424 0.00924 0.0
C847 C 1.01659 0.4786 0.03051 0.0
C848 C 0.9678 0.49735 0.00404 0.0
C849 C 0.04834 0.50522 0.01983 0.0
C850 C 0.1137 0.49936 0.03993 0.0
C851 C 0.09806 0.48625 0.0452 0.0
H852 H 0.95048 0.48086 0.54294 0.0
H853 H 0.22566 0.47581 0.4959 0.0
H854 H 0.93441 0.50183 0.52198 0.0
H855 H 0.20983 0.4968 0.47566 0.0
H856 H 0.17959 0.54279 0.48069 0.0
H857 H 0.18994 0.52375 0.5112 0.0
H858 H 0.93018 0.50714 0.45163 0.0
H859 H 0.91946 0.52625 0.42207 0.0
C860 C 1.00738 0.48411 0.52781 0.0
C861 C 0.08947 0.47658 0.52134 0.0
C862 C 0.99828 0.49621 0.51599 0.0
C863 C 0.07107 0.50115 0.4975 0.0
C864 C 0.15287 0.49357 0.49081 0.0
C865 C 0.16184 0.48146 0.50237 0.0
C866 C 0.12405 0.53525 0.47501 0.0
C867 C 0.04904 0.53598 0.44865 0.0
C868 C 0.13032 0.52422 0.49199 0.0
C869 C 0.06131 0.51375 0.48344 0.0
C870 C 0.98447 0.51499 0.45913 0.0
C871 C 0.97857 0.52592 0.44188 0.0
H872 H 0.38038 0.9791 -0.00097 0.0
H873 H 0.64641 0.98097 0.05582 0.0
H874 H 0.4092 1.00177 0.98976 0.0
H875 H 0.67712 1.00318 0.04388 0.0
H876 H 0.66695 0.05192 0.07097 0.0
H877 H 0.64062 0.02867 0.0771 0.0
H878 H 0.48735 0.0128 0.94625 0.0
H879 H 0.51257 0.03625 0.94074 0.0
C880 C 0.44531 0.98428 0.00936 0.0
C881 C 0.51065 0.97818 0.02867 0.0
C882 C 0.46231 0.99724 0.0034 0.0
C883 C 0.54545 1.00447 0.01627 0.0
C884 C 0.61171 0.99813 0.03431 0.0
C885 C 0.59452 0.98521 0.04051 0.0
C886 C 0.62818 0.04343 0.04328 0.0
C887 C 0.59206 0.04599 0.00531 0.0
C888 C 0.61325 0.03003 0.04669 0.0
C889 C 0.56212 0.01872 0.01207 0.0
C890 C 0.52599 0.02128 0.97402 0.0
C891 C 0.5405 0.03475 0.97079 0.0
H892 H 0.60682 0.04969 0.53301 0.0
H893 H 0.39714 0.02954 0.4299 0.0
H894 H 0.63302 0.02615 0.53775 0.0
H895 H 0.42467 1.00592 0.43334 0.0
H896 H 0.43269 0.96883 0.48123 0.0
H897 H 0.40673 0.99286 0.48077 0.0
H898 H 0.69019 1.00203 0.49791 0.0
H899 H 0.71534 0.97842 0.50158 0.0
C900 C 0.56707 0.04017 0.51088 0.0
C901 C 0.49964 0.04154 0.48123 0.0
C902 C 0.58213 0.02662 0.51349 0.0
C903 C 0.53077 0.014 0.48612 0.0
C904 C 0.46432 0.01538 0.45588 0.0
C905 C 0.44873 0.02894 0.45367 0.0
C906 C 0.48946 0.97605 0.48578 0.0
C907 C 0.57626 0.97154 0.49136 0.0
C908 C 0.47471 0.98981 0.48473 0.0
C909 C 0.54633 0.99948 0.48885 0.0
C910 C 0.63299 0.99504 0.49503 0.0
C911 C 0.64765 0.98133 0.49645 0.0
H912 H 0.33314 0.29737 0.98806 0.0
H913 H 0.0779 0.275 0.95825 0.0
H914 H 0.39245 0.27878 0.01235 0.0
H915 H 0.13854 0.25591 0.97903 0.0
H916 H 0.25377 0.22869 0.05358 0.0
H917 H 0.18866 0.24859 0.03712 0.0
H918 H 0.44181 0.25427 0.97888 0.0
H919 H 0.50682 0.23491 -0.00254 0.0
C920 C 0.28939 0.28857 0.98698 0.0
C921 C 0.20099 0.28764 0.97048 0.0
C922 C 0.32386 0.27771 0.00014 0.0
C923 C 0.27112 0.26556 -0.00313 0.0
C924 C 0.18158 0.26503 0.98232 0.0
C925 C 0.14697 0.27595 0.9697 0.0
C926 C 0.29485 0.23413 0.03681 0.0
C927 C 0.38527 0.23027 0.02683 0.0
C928 C 0.25774 0.24557 0.02735 0.0
C929 C 0.30994 0.25328 0.00703 0.0
C930 C 0.3998 0.24899 -0.00425 0.0
C931 C 0.437 0.23773 0.00583 0.0
H932 H 0.57449 0.78385 0.00757 0.0
H933 H 0.82816 0.79005 0.95204 0.0
H934 H 0.63949 0.7647 0.02729 0.0
H935 H 0.89325 0.77034 0.96947 0.0
H936 H 1.00398 0.74357 0.04652 0.0
H937 H 0.94297 0.76295 0.02733 0.0
H938 H 0.68865 0.74021 0.99394 0.0
H939 H 0.74826 0.72134 0.01679 0.0
C940 C 0.64455 0.78111 -0.00023 0.0
C941 C 0.69648 0.78848 0.97856 0.0
C942 C 0.68171 0.76996 0.01043 0.0
C943 C 0.77167 0.76568 -0.00057 0.0
C944 C 0.82411 0.77335 0.97907 0.0
C945 C 0.78704 0.78469 0.96906 0.0
C946 C 0.93467 0.74273 0.03554 0.0
C947 C 0.88074 0.73095 0.03418 0.0
C948 C 0.89985 0.75381 0.02379 0.0
C949 C 0.81021 0.75337 0.0095 0.0
C950 C 0.75735 0.74121 0.00593 0.0
C951 C 0.79201 0.73019 0.01827 0.0
H952 H 0.32128 0.72864 0.55754 0.0
H953 H 0.07242 0.73434 0.49691 0.0
H954 H 0.388 0.74861 0.54197 0.0
H955 H 0.13916 0.75377 0.47918 0.0
H956 H 0.24834 0.79727 0.49116 0.0
H957 H 0.18647 0.77837 0.51332 0.0
H958 H 0.44247 0.75614 0.48521 0.0
H959 H 0.50535 0.77553 0.46662 0.0
C960 C 0.28158 0.73396 0.53989 0.0
C961 C 0.1918 0.72993 0.5284 0.0
C962 C 0.31959 0.74545 0.53095 0.0
C963 C 0.26901 0.75305 0.50966 0.0
C964 C 0.1799 0.74857 0.4968 0.0
C965 C 0.14177 0.73727 0.50636 0.0
C966 C 0.29189 0.78853 0.49071 0.0
C967 C 0.38168 0.7879 0.47637 0.0
C968 C 0.25601 0.77749 0.50266 0.0
C969 C 0.30871 0.76545 0.50033 0.0
C970 C 0.39937 0.76518 0.48776 0.0
C971 C 0.43532 0.77626 0.47636 0.0
H972 H 0.74434 0.29035 0.45141 0.0
H973 H 0.99971 0.28377 0.50418 0.0
H974 H 0.68014 0.27051 0.4686 0.0
H975 H 0.93572 0.26446 0.52353 0.0
H976 H 0.82762 0.22111 0.51326 0.0
H977 H 0.88582 0.23997 0.4898 0.0
H978 H 0.63254 0.26297 0.52668 0.0
H979 H 0.57298 0.24365 0.54668 0.0
C980 C 0.78607 0.28487 0.46775 0.0
C981 C 0.87684 0.2886 0.47654 0.0
C982 C 0.74953 0.27346 0.47759 0.0
C983 C 0.80272 0.26563 0.49706 0.0
C984 C 0.89291 0.26984 0.50735 0.0
C985 C 0.9295 0.28107 0.4969 0.0
C986 C 0.78377 0.23001 0.51533 0.0
C987 C 0.69587 0.23089 0.53254 0.0
C988 C 0.81762 0.24102 0.50265 0.0
C989 C 0.76471 0.25327 0.50709 0.0
C990 C 0.67568 0.25378 0.52246 0.0
C991 C 0.6417 0.24272 0.53462 0.0
H992 H 1.01758 0.40499 0.15755 0.0
H993 H 0.17978 0.36562 0.11412 0.0
H994 H 0.99295 0.40461 0.23515 0.0
H995 H 0.15961 0.36562 0.19235 0.0
H996 H 1.03031 0.35978 0.31579 0.0
H997 H 0.0576 0.36058 0.23965 0.0
H998 H 0.05333 0.40841 0.30897 0.0
H999 H 1.01977 0.40747 0.38478 0.0
C1000 C 0.04901 0.39637 0.16488 0.0
C1001 C 0.10025 0.3853 0.12966 0.0
C1002 C 1.03542 0.39618 0.20957 0.0
C1003 C 0.074 0.38505 0.22042 0.0
C1004 C 0.1269 0.37418 0.18525 0.0
C1005 C 0.13907 0.37422 0.14035 0.0
C1006 C 1.03428 0.37045 0.31491 0.0
C1007 C 1.02109 0.38348 0.35657 0.0
C1008 C 0.05128 0.37095 0.27104 0.0
C1009 C 0.05763 0.38458 0.26764 0.0
C1010 C 0.04699 0.39768 0.30966 0.0
C1011 C 1.02845 0.39714 0.35343 0.0
H1012 H 0.04306 0.61209 0.11496 0.0
H1013 H 0.933 0.65587 0.19066 0.0
H1014 H 0.07417 0.61094 0.19115 0.0
H1015 H 0.96365 0.65481 0.26646 0.0
H1016 H 0.11368 0.65511 0.3935 0.0
H1017 H 0.08772 0.65515 0.31599 0.0
H1018 H 1.00249 0.60952 0.26011 0.0
H1019 H 1.03054 0.60934 0.33797 0.0
C1020 C 1.02545 0.62148 0.14786 0.0
C1021 C 0.98725 0.63424 0.14681 0.0
C1022 C 0.04298 0.62079 0.19152 0.0
C1023 C 1.0223 0.63284 0.23506 0.0
C1024 C 0.98267 0.64547 0.23375 0.0
C1025 C 0.96541 0.64614 0.19022 0.0
C1026 C 0.08946 0.64504 0.36484 0.0
C1027 C 0.0737 0.63224 0.37225 0.0
C1028 C 0.07411 0.6451 0.32029 0.0
C1029 C 0.04209 0.63239 0.28182 0.0
C1030 C 1.02779 0.61948 0.28884 0.0
C1031 C 0.04347 0.61939 0.33357 0.0
H1032 H 0.97902 0.61088 0.83499 0.0
H1033 H 0.94273 0.65825 0.90009 0.0
H1034 H 1.00505 0.61145 0.75801 0.0
H1035 H 0.96653 0.65888 0.82278 0.0
H1036 H 0.11452 0.65664 0.6899 0.0
H1037 H 0.08033 0.65635 0.7667 0.0
H1038 H 0.93904 0.61496 0.6941 0.0
H1039 H 0.97549 0.61519 0.61729 0.0
C1040 C 0.9745 0.62137 0.83268 0.0
C1041 C 0.95787 0.63447 0.87363 0.0
C1042 C 0.9896 0.62174 0.78841 0.0
C1043 C 0.98783 0.63522 0.78387 0.0
C1044 C 0.96996 0.64831 0.82488 0.0
C1045 C 0.95577 0.64795 0.86923 0.0
C1046 C 0.0749 0.64763 0.69046 0.0
C1047 C 0.04697 0.63603 0.64765 0.0
C1048 C 0.05527 0.64743 0.73454 0.0
C1049 C 1.00662 0.63564 0.73688 0.0
C1050 C 0.97789 0.6241 0.69384 0.0
C1051 C 0.99837 0.62425 0.64977 0.0
H1052 H 1.03659 0.40832 0.66468 0.0
H1053 H 0.96245 0.36213 0.607 0.0
H1054 H 0.06395 0.40806 0.74238 0.0
H1055 H 0.98818 0.36194 0.68447 0.0
H1056 H 1.02016 0.40555 0.88662 0.0
H1057 H 0.99073 0.40633 0.80977 0.0
H1058 H 0.10811 0.36288 0.73681 0.0
H1059 H 0.13702 0.36218 0.81336 0.0
C1060 C 1.02524 0.39816 0.66862 0.0
C1061 C 0.99723 0.38526 0.62948 0.0
C1062 C 0.04074 0.39801 0.71325 0.0
C1063 C 1.02852 0.38497 0.71979 0.0
C1064 C 0.99989 0.37212 0.68065 0.0
C1065 C 0.98475 0.37225 0.63613 0.0
C1066 C 0.03938 0.39616 0.85408 0.0
C1067 C 0.07901 0.38363 0.85605 0.0
C1068 C 1.02294 0.39663 0.81003 0.0
C1069 C 0.04635 0.38462 0.76692 0.0
C1070 C 0.08704 0.37218 0.76911 0.0
C1071 C 0.10317 0.37171 0.81309 0.0
H1072 H 0.52829 0.90797 0.16479 0.0
H1073 H 0.61674 0.86253 0.11069 0.0
H1074 H 0.49705 0.90781 0.24234 0.0
H1075 H 0.58817 0.86248 0.18815 0.0
H1076 H 0.43791 0.86133 0.31377 0.0
H1077 H 0.4684 0.86222 0.23773 0.0
H1078 H 0.56237 0.90723 0.31236 0.0
H1079 H 0.53021 0.90628 0.38869 0.0
C1080 C 0.542 0.898 0.16956 0.0
C1081 C 0.57476 0.88525 0.13139 0.0
C1082 C 0.52436 0.89792 0.21412 0.0
C1083 C 0.53951 0.8851 0.22165 0.0
C1084 C 0.57368 0.87246 0.18357 0.0
C1085 C 0.59057 0.87251 0.13905 0.0
C1086 C 0.46618 0.87131 0.31403 0.0
C1087 C 0.4829 0.88359 0.35734 0.0
C1088 C 0.48366 0.87188 0.2703 0.0
C1089 C 0.51889 0.88475 0.26862 0.0
C1090 C 0.53449 0.89716 0.31208 0.0
C1091 C 0.51635 0.8966 0.35591 0.0
H1092 H 0.57217 0.11419 0.11515 0.0
H1093 H 0.4463 0.15676 0.19006 0.0
H1094 H 0.60892 0.11358 0.19138 0.0
H1095 H 0.48153 0.15615 0.26619 0.0
H1096 H 0.62801 0.15744 0.39626 0.0
H1097 H 0.60008 0.15786 0.3191 0.0
H1098 H 0.54448 0.11093 0.2579 0.0
H1099 H 0.57454 0.11049 0.33492 0.0
C1100 C 0.55218 0.12343 0.14795 0.0
C1101 C 0.5075 0.13566 0.14659 0.0
C1102 C 0.57291 0.12306 0.19171 0.0
C1103 C 0.54869 0.13485 0.23522 0.0
C1104 C 0.50329 0.14702 0.23363 0.0
C1105 C 0.48314 0.14742 0.18989 0.0
C1106 C 0.61019 0.14719 0.36629 0.0
C1107 C 0.60425 0.1339 0.37176 0.0
C1108 C 0.59361 0.14744 0.322 0.0
C1109 C 0.56962 0.13444 0.28204 0.0
C1110 C 0.56427 0.12112 0.28751 0.0
C1111 C 0.58158 0.12085 0.33178 0.0
H1112 H 0.44916 0.15702 0.8948 0.0
H1113 H 0.49481 0.10986 0.83404 0.0
H1114 H 0.4768 0.15713 0.81718 0.0
H1115 H 0.52436 0.10996 0.75643 0.0
H1116 H 0.50065 0.11354 0.61335 0.0
H1117 H 0.46185 0.11295 0.68959 0.0
H1118 H 0.59798 0.15469 0.7647 0.0
H1119 H 0.63552 0.15523 0.68881 0.0
C1120 C 0.46503 0.14665 0.86483 0.0
C1121 C 0.46914 0.13341 0.87064 0.0
C1122 C 0.48141 0.14672 0.82027 0.0
C1123 C 0.50344 0.13357 0.78037 0.0
C1124 C 0.50626 0.12027 0.78607 0.0
C1125 C 0.48914 0.1202 0.83065 0.0
C1126 C 0.52203 0.12259 0.64625 0.0
C1127 C 0.56952 0.13462 0.64512 0.0
C1128 C 0.50009 0.12224 0.68998 0.0
C1129 C 0.52591 0.13385 0.73354 0.0
C1130 C 0.57465 0.14574 0.7321 0.0
C1131 C 0.59604 0.14611 0.68849 0.0
H1132 H 0.3837 0.9038 0.67119 0.0
H1133 H 0.53535 0.86327 0.60462 0.0
H1134 H 0.40992 0.90388 0.7494 0.0
H1135 H 0.55923 0.8632 0.68251 0.0
H1136 H 0.50228 0.86033 0.82462 0.0
H1137 H 0.46838 0.86059 0.74784 0.0
H1138 H 0.54387 0.90664 0.80396 0.0
H1139 H 0.58 0.90631 0.88067 0.0
C1140 C 0.42309 0.89498 0.67304 0.0
C1141 C 0.45861 0.8837 0.63135 0.0
C1142 C 0.4378 0.895 0.71795 0.0
C1143 C 0.48688 0.88357 0.72214 0.0
C1144 C 0.52059 0.87211 0.68045 0.0
C1145 C 0.507 0.8722 0.63572 0.0
C1146 C 0.5129 0.87045 0.82064 0.0
C1147 C 0.54606 0.88315 0.85877 0.0
C1148 C 0.49295 0.87063 0.77657 0.0
C1149 C 0.5041 0.88361 0.76971 0.0
C1150 C 0.53425 0.89648 0.80821 0.0
C1151 C 0.55529 0.89624 0.85215 0.0
loop_
_geom_bond_atom_site_label_1
_geom_bond_atom_site_label_2
_geom_bond_distance
_geom_bond_site_symmetry_2
_ccdc_geom_bond_type
Eu0 N31 2.657 . S
Eu0 N38 2.609 . S
Eu0 O44 2.558 . S
Eu0 O45 2.612 1_454 S
Eu0 O47 2.339 1_554 S
Eu0 O48 2.563 1_455 S
Eu0 O49 2.419 . S
Eu0 O51 2.380 . S
Eu0 O52 2.432 . S
Eu0 C64 2.848 . S
C1 C4 1.429 . S
C1 C5 1.411 . S
C1 N8 1.377 . S
C2 C4 1.420 . S
C2 C6 1.423 . S
C2 C14 1.392 1_556 S
C3 C5 1.420 . S
C3 C6 1.351 . S
C3 H26 0.931 . S
C4 C1 1.429 . S
C4 C2 1.420 . S
C4 N12 1.362 . S
C5 C1 1.411 . S
C5 C3 1.420 . S
C5 C10 1.395 . S
C6 C2 1.423 . S
C6 C3 1.351 . S
C6 H18 0.930 . S
C7 C9 1.400 . S
C7 C10 1.386 . S
C7 H19 0.930 . S
N8 C1 1.377 . S
N8 C9 1.321 . S
N8 Eu11 2.609 1_655 S
C9 C7 1.400 . S
C9 N8 1.321 . S
C9 H16 0.930 1_655 S
C10 C5 1.395 . S
C10 C7 1.386 . S
C10 H29 0.930 . S
Eu11 N8 2.609 1_455 S
Eu11 N12 2.657 1_455 S
Eu11 O45 2.380 1_455 S
Eu11 O46 2.432 . S
Eu11 O50 2.558 . S
Eu11 O51 2.612 1_556 S
Eu11 O53 2.339 1_556 S
Eu11 O54 2.563 . S
Eu11 O55 2.419 . S
Eu11 C75 2.848 . S
N12 C4 1.362 . S
N12 Eu11 2.657 1_655 S
N12 C13 1.334 1_556 S
C13 N12 1.334 1_554 S
C13 C15 1.413 . S
C13 H20 0.929 . S
C14 C2 1.392 1_554 S
C14 C15 1.367 . S
C14 H22 0.930 . S
C15 C13 1.413 . S
C15 C14 1.367 . S
C15 H17 0.930 . S
H16 C9 0.930 1_455 S
H17 C15 0.930 . S
H18 C6 0.930 . S
H19 C7 0.930 . S
H20 C13 0.929 . S
H21 C35 0.930 . S
H22 C14 0.930 . S
H23 C41 0.930 . S
H24 C32 0.929 . S
H25 C39 0.930 . S
H26 C3 0.931 . S
H27 C33 0.930 . S
H28 C66 0.930 . S
H29 C10 0.930 . S
H30 C65 0.931 . S
N31 Eu0 2.657 . S
N31 C32 1.334 1_554 S
N31 C36 1.362 . S
C32 H24 0.929 . S
C32 N31 1.334 1_556 S
C32 C35 1.413 . S
C33 H27 0.930 . S
C33 C34 1.392 1_556 S
C33 C35 1.367 . S
C34 C33 1.392 1_554 S
C34 C36 1.420 . S
C34 C66 1.423 . S
C35 H21 0.930 . S
C35 C32 1.413 . S
C35 C33 1.367 . S
C36 N31 1.362 . S
C36 C34 1.420 . S
C36 C40 1.429 . S
H37 C42 0.930 . S
N38 Eu0 2.609 . S
N38 C40 1.377 . S
N38 C41 1.321 . S
C39 H25 0.930 . S
C39 C41 1.400 . S
C39 C42 1.386 . S
C40 C36 1.429 . S
C40 N38 1.377 . S
C40 C43 1.411 . S
C41 H23 0.930 . S
C41 N38 1.321 . S
C41 C39 1.400 . S
C42 H37 0.930 . S
C42 C39 1.386 . S
C42 C43 1.395 . S
C43 C40 1.411 . S
C43 C42 1.395 . S
C43 C65 1.420 . S
O44 Eu0 2.558 . S
O44 C64 1.257 . S
O45 Eu0 2.612 1_656 S
O45 Eu11 2.380 1_655 S
O45 C56 1.276 1_556 S
O46 Eu11 2.432 . S
O46 C63 1.264 . S
O47 Eu0 2.339 1_556 S
O47 C63 1.254 . S
O48 Eu0 2.563 1_655 S
O48 C56 1.235 . S
O49 Eu0 2.419 . S
O49 C64 1.249 . S
O50 Eu11 2.558 . S
O50 C75 1.257 . S
O51 Eu0 2.380 . S
O51 Eu11 2.612 1_554 S
O51 C67 1.276 . S
O52 Eu0 2.432 . S
O52 C74 1.264 . S
O53 Eu11 2.339 1_554 S
O53 C74 1.254 . S
O54 Eu11 2.563 . S
O54 C67 1.235 1_556 S
O55 Eu11 2.419 . S
O55 C75 1.249 . S
C56 O45 1.276 1_554 S
C56 O48 1.235 . S
C57 C59 1.393 . S
C57 C61 1.395 . S
C57 C64 1.492 1_655 S
C58 C59 1.392 . S
C58 C60 1.386 . S
C59 C57 1.393 . S
C59 C58 1.392 . S
C59 H76 0.930 1_554 S
C60 C58 1.386 . S
C60 C62 1.395 . S
C60 H77 0.930 . S
C61 C57 1.395 . S
C61 C62 1.379 . S
C61 H78 0.930 1_655 S
C62 C60 1.395 . S
C62 C61 1.379 . S
C62 H79 0.930 . S
C63 O46 1.264 . S
C63 O47 1.254 . S
C64 Eu0 2.848 . S
C64 O44 1.257 . S
C64 O49 1.249 . S
C64 C57 1.492 1_455 S
C65 H30 0.931 . S
C65 C43 1.420 . S
C65 C66 1.351 . S
C66 H28 0.930 . S
C66 C34 1.423 . S
C66 C65 1.351 . S
C67 O51 1.276 . S
C67 O54 1.235 1_554 S
C68 C69 1.393 . S
C68 C72 1.395 . S
C68 C75 1.492 . S
C69 C68 1.393 . S
C69 C70 1.392 . S
C69 H80 0.930 1_556 S
C70 C69 1.392 . S
C70 C71 1.386 . S
C71 C70 1.386 . S
C71 C73 1.395 . S
C71 H81 0.930 . S
C72 C68 1.395 . S
C72 C73 1.379 . S
C72 H82 0.930 . S
C73 C71 1.395 . S
C73 C72 1.379 . S
C73 H83 0.930 . S
C74 O52 1.264 . S
C74 O53 1.254 . S
C75 Eu11 2.848 . S
C75 O50 1.257 . S
C75 O55 1.249 . S
C75 C68 1.492 . S
H76 C59 0.930 1_556 S
H77 C60 0.930 . S
H78 C61 0.930 1_455 S
H79 C62 0.930 . S
H80 C69 0.930 1_554 S
H81 C71 0.930 . S
H82 C72 0.930 . S
H83 C73 0.930 . S
Eu84 N115 2.657 1_655 S
Eu84 N122 2.609 1_655 S
Eu84 O128 2.558 . S
Eu84 O129 2.613 . S
Eu84 O131 2.339 1_554 S
Eu84 O132 2.563 . S
Eu84 O133 2.419 . S
Eu84 O135 2.380 1_655 S
Eu84 O136 2.432 . S
Eu84 C148 2.848 . S
C85 C88 1.429 . S
C85 C89 1.411 . S
C85 N92 1.377 . S
C86 C88 1.420 . S
C86 C90 1.423 . S
C86 C98 1.392 1_556 S
C87 C89 1.420 . S
C87 C90 1.351 . S
C87 H110 0.931 . S
C88 C85 1.429 . S
C88 C86 1.420 . S
C88 N96 1.362 1_556 S
C89 C85 1.411 . S
C89 C87 1.420 . S
C89 C94 1.395 . S
C90 C86 1.423 . S
C90 C87 1.351 . S
C90 H102 0.930 . S
C91 C93 1.400 . S
C91 C94 1.386 . S
C91 H103 0.930 . S
N92 C85 1.377 . S
N92 C93 1.321 . S
N92 Eu95 2.609 . S
C93 C91 1.400 . S
C93 N92 1.321 . S
C93 H100 0.930 . S
C94 C89 1.395 . S
C94 C91 1.386 . S
C94 H113 0.930 . S
Eu95 N92 2.609 . S
Eu95 N96 2.657 1_556 S
Eu95 O129 2.382 1_556 S
Eu95 O130 2.432 . S
Eu95 O134 2.558 . S
Eu95 O135 2.612 1_656 S
Eu95 O137 2.339 1_556 S
Eu95 O138 2.563 1_655 S
Eu95 O139 2.419 1_556 S
Eu95 C159 2.848 . S
N96 C88 1.362 1_554 S
N96 Eu95 2.657 1_554 S
N96 C97 1.334 . S
C97 N96 1.334 . S
C97 C99 1.413 . S
C97 H104 0.929 . S
C98 C86 1.392 1_554 S
C98 C99 1.367 . S
C98 H106 0.930 . S
C99 C97 1.413 . S
C99 C98 1.367 . S
C99 H101 0.930 . S
H100 C93 0.930 . S
H101 C99 0.930 . S
H102 C90 0.930 . S
H103 C91 0.930 . S
H104 C97 0.929 . S
H105 C119 0.930 . S
H106 C98 0.930 . S
H107 C125 0.930 1_655 S
H108 C116 0.929 . S
H109 C123 0.930 . S
H110 C87 0.931 . S
H111 C117 0.930 . S
H112 C150 0.930 . S
H113 C94 0.930 . S
H114 C149 0.931 . S
N115 Eu84 2.657 1_455 S
N115 C116 1.334 1_554 S
N115 C120 1.362 . S
C116 H108 0.929 . S
C116 N115 1.334 1_556 S
C116 C119 1.413 . S
C117 H111 0.930 . S
C117 C118 1.392 1_556 S
C117 C119 1.367 . S
C118 C117 1.392 1_554 S
C118 C120 1.420 . S
C118 C150 1.423 . S
C119 H105 0.930 . S
C119 C116 1.413 . S
C119 C117 1.367 . S
C120 N115 1.362 . S
C120 C118 1.420 . S
C120 C124 1.429 . S
H121 C126 0.930 . S
N122 Eu84 2.609 1_455 S
N122 C124 1.377 . S
N122 C125 1.321 . S
C123 H109 0.930 . S
C123 C125 1.400 . S
C123 C126 1.386 . S
C124 C120 1.429 . S
C124 N122 1.377 . S
C124 C127 1.411 . S
C125 H107 0.930 1_455 S
C125 N122 1.321 . S
C125 C123 1.400 . S
C126 H121 0.930 . S
C126 C123 1.386 . S
C126 C127 1.395 . S
C127 C124 1.411 . S
C127 C126 1.395 . S
C127 C149 1.420 . S
O128 Eu84 2.558 . S
O128 C148 1.257 . S
O129 Eu84 2.613 . S
O129 Eu95 2.382 1_554 S
O129 C140 1.275 . S
O130 Eu95 2.432 . S
O130 C147 1.264 . S
O131 Eu84 2.339 1_556 S
O131 C147 1.254 . S
O132 Eu84 2.563 . S
O132 C140 1.235 . S
O133 Eu84 2.419 . S
O133 C148 1.249 . S
O134 Eu95 2.558 . S
O134 C159 1.257 . S
O135 Eu84 2.380 1_455 S
O135 Eu95 2.612 1_454 S
O135 C151 1.276 . S
O136 Eu84 2.432 . S
O136 C158 1.264 . S
O137 Eu95 2.339 1_554 S
O137 C158 1.254 . S
O138 Eu95 2.563 1_455 S
O138 C151 1.235 1_556 S
O139 Eu95 2.419 1_554 S
O139 C159 1.248 1_554 S
C140 O129 1.275 . S
C140 O132 1.235 . S
C141 C143 1.393 . S
C141 C145 1.395 . S
C141 C148 1.492 . S
C142 C143 1.392 . S
C142 C144 1.386 . S
C143 C141 1.393 . S
C143 C142 1.392 . S
C143 H160 0.930 1_554 S
C144 C142 1.386 . S
C144 C146 1.395 . S
C144 H161 0.930 . S
C145 C141 1.395 . S
C145 C146 1.379 . S
C145 H162 0.930 . S
C146 C144 1.395 . S
C146 C145 1.379 . S
C146 H163 0.930 . S
C147 O130 1.264 . S
C147 O131 1.254 . S
C148 Eu84 2.848 . S
C148 O128 1.257 . S
C148 O133 1.249 . S
C148 C141 1.492 . S
C149 H114 0.931 . S
C149 C127 1.420 . S
C149 C150 1.351 . S
C150 H112 0.930 . S
C150 C118 1.423 . S
C150 C149 1.351 . S
C151 O135 1.276 . S
C151 O138 1.235 1_554 S
C152 C153 1.393 . S
C152 C156 1.395 . S
C152 C159 1.492 1_455 S
C153 C152 1.393 . S
C153 C154 1.392 . S
C153 H164 0.930 1_556 S
C154 C153 1.392 . S
C154 C155 1.386 . S
C155 C154 1.386 . S
C155 C157 1.395 . S
C155 H165 0.930 . S
C156 C152 1.395 . S
C156 C157 1.379 . S
C156 H166 0.930 1_455 S
C157 C155 1.395 . S
C157 C156 1.379 . S
C157 H167 0.930 . S
C158 O136 1.264 . S
C158 O137 1.254 . S
C159 Eu95 2.848 . S
C159 O134 1.257 . S
C159 O139 1.248 1_556 S
C159 C152 1.492 1_655 S
H160 C143 0.930 1_556 S
H161 C144 0.930 . S
H162 C145 0.930 . S
H163 C146 0.930 . S
H164 C153 0.930 1_554 S
H165 C155 0.930 . S
H166 C156 0.930 1_655 S
H167 C157 0.930 . S
Eu168 N199 2.657 . S
Eu168 N206 2.609 . S
Eu168 O212 2.558 . S
Eu168 O213 2.612 1_455 S
Eu168 O215 2.339 . S
Eu168 O216 2.563 1_455 S
Eu168 O217 2.419 . S
Eu168 O219 2.380 . S
Eu168 O220 2.432 . S
Eu168 C232 2.848 . S
C169 C172 1.429 . S
C169 C173 1.411 . S
C169 N176 1.377 . S
C170 C172 1.420 . S
C170 C174 1.423 . S
C170 C182 1.392 . S
C171 C173 1.420 . S
C171 C174 1.351 . S
C171 H194 0.931 . S
C172 C169 1.429 . S
C172 C170 1.420 . S
C172 N180 1.362 . S
C173 C169 1.411 . S
C173 C171 1.420 . S
C173 C178 1.395 . S
C174 C170 1.423 . S
C174 C171 1.351 . S
C174 H186 0.930 . S
C175 C177 1.400 . S
C175 C178 1.386 . S
C175 H187 0.930 . S
N176 C169 1.377 . S
N176 C177 1.321 . S
N176 Eu179 2.609 1_655 S
C177 C175 1.400 . S
C177 N176 1.321 . S
C177 H184 0.930 1_655 S
C178 C173 1.395 . S
C178 C175 1.386 . S
C178 H197 0.930 . S
Eu179 N176 2.609 1_455 S
Eu179 N180 2.657 1_455 S
Eu179 O213 2.380 1_455 S
Eu179 O214 2.432 . S
Eu179 O218 2.558 . S
Eu179 O219 2.612 . S
Eu179 O221 2.339 . S
Eu179 O222 2.563 . S
Eu179 O223 2.419 . S
Eu179 C243 2.848 . S
N180 C172 1.362 . S
N180 Eu179 2.657 1_655 S
N180 C181 1.334 . S
C181 N180 1.334 . S
C181 C183 1.413 . S
C181 H188 0.929 . S
C182 C170 1.392 . S
C182 C183 1.367 . S
C182 H190 0.930 . S
C183 C181 1.413 . S
C183 C182 1.367 . S
C183 H185 0.930 . S
H184 C177 0.930 1_455 S
H185 C183 0.930 . S
H186 C174 0.930 . S
H187 C175 0.930 . S
H188 C181 0.929 . S
H189 C203 0.930 . S
H190 C182 0.930 . S
H191 C209 0.930 . S
H192 C200 0.929 . S
H193 C207 0.930 . S
H194 C171 0.931 . S
H195 C201 0.930 . S
H196 C234 0.930 . S
H197 C178 0.930 . S
H198 C233 0.931 . S
N199 Eu168 2.657 . S
N199 C200 1.334 . S
N199 C204 1.362 . S
C200 H192 0.929 . S
C200 N199 1.334 . S
C200 C203 1.413 . S
C201 H195 0.930 . S
C201 C202 1.392 . S
C201 C203 1.367 . S
C202 C201 1.392 . S
C202 C204 1.420 . S
C202 C234 1.423 . S
C203 H189 0.930 . S
C203 C200 1.413 . S
C203 C201 1.367 . S
C204 N199 1.362 . S
C204 C202 1.420 . S
C204 C208 1.429 . S
H205 C210 0.930 . S
N206 Eu168 2.609 . S
N206 C208 1.377 . S
N206 C209 1.321 . S
C207 H193 0.930 . S
C207 C209 1.400 . S
C207 C210 1.386 . S
C208 C204 1.429 . S
C208 N206 1.377 . S
C208 C211 1.411 . S
C209 H191 0.930 . S
C209 N206 1.321 . S
C209 C207 1.400 . S
C210 H205 0.930 . S
C210 C207 1.386 . S
C210 C211 1.395 . S
C211 C208 1.411 . S
C211 C210 1.395 . S
C211 C233 1.420 . S
O212 Eu168 2.558 . S
O212 C232 1.257 . S
O213 Eu168 2.612 1_655 S
O213 Eu179 2.380 1_655 S
O213 C224 1.276 . S
O214 Eu179 2.432 . S
O214 C231 1.264 . S
O215 Eu168 2.339 . S
O215 C231 1.254 . S
O216 Eu168 2.563 1_655 S
O216 C224 1.235 . S
O217 Eu168 2.419 . S
O217 C232 1.249 . S
O218 Eu179 2.558 . S
O218 C243 1.257 . S
O219 Eu168 2.380 . S
O219 Eu179 2.612 . S
O219 C235 1.276 . S
O220 Eu168 2.432 . S
O220 C242 1.264 . S
O221 Eu179 2.339 . S
O221 C242 1.254 . S
O222 Eu179 2.563 . S
O222 C235 1.235 . S
O223 Eu179 2.419 . S
O223 C243 1.249 . S
C224 O213 1.276 . S
C224 O216 1.235 . S
C225 C227 1.393 . S
C225 C229 1.395 . S
C225 C232 1.492 1_655 S
C226 C227 1.392 . S
C226 C228 1.386 . S
C227 C225 1.393 . S
C227 C226 1.392 . S
C227 H244 0.930 . S
C228 C226 1.386 . S
C228 C230 1.395 . S
C228 H245 0.930 . S
C229 C225 1.395 . S
C229 C230 1.379 . S
C229 H246 0.930 1_655 S
C230 C228 1.395 . S
C230 C229 1.379 . S
C230 H247 0.930 . S
C231 O214 1.264 . S
C231 O215 1.254 . S
C232 Eu168 2.848 . S
C232 O212 1.257 . S
C232 O217 1.249 . S
C232 C225 1.492 1_455 S
C233 H198 0.931 . S
C233 C211 1.420 . S
C233 C234 1.351 . S
C234 H196 0.930 . S
C234 C202 1.423 . S
C234 C233 1.351 . S
C235 O219 1.276 . S
C235 O222 1.235 . S
C236 C237 1.393 . S
C236 C240 1.395 . S
C236 C243 1.492 . S
C237 C236 1.393 . S
C237 C238 1.392 . S
C237 H248 0.930 . S
C238 C237 1.392 . S
C238 C239 1.386 . S
C239 C238 1.386 . S
C239 C241 1.395 . S
C239 H249 0.930 . S
C240 C236 1.395 . S
C240 C241 1.379 . S
C240 H250 0.930 . S
C241 C239 1.395 . S
C241 C240 1.379 . S
C241 H251 0.930 . S
C242 O220 1.264 . S
C242 O221 1.254 . S
C243 Eu179 2.848 . S
C243 O218 1.257 . S
C243 O223 1.249 . S
C243 C236 1.492 . S
H244 C227 0.930 . S
H245 C228 0.930 . S
H246 C229 0.930 1_455 S
H247 C230 0.930 . S
H248 C237 0.930 . S
H249 C239 0.930 . S
H250 C240 0.930 . S
H251 C241 0.930 . S
Eu252 N283 2.657 1_655 S
Eu252 N290 2.609 1_655 S
Eu252 O296 2.558 . S
Eu252 O297 2.612 . S
Eu252 O299 2.339 . S
Eu252 O300 2.563 . S
Eu252 O301 2.419 . S
Eu252 O303 2.380 1_655 S
Eu252 O304 2.432 . S
Eu252 C316 2.848 . S
C253 C256 1.429 . S
C253 C257 1.411 . S
C253 N260 1.377 . S
C254 C256 1.420 . S
C254 C258 1.423 . S
C254 C266 1.392 . S
C255 C257 1.420 . S
C255 C258 1.351 . S
C255 H278 0.931 . S
C256 C253 1.429 . S
C256 C254 1.420 . S
C256 N264 1.362 . S
C257 C253 1.411 . S
C257 C255 1.420 . S
C257 C262 1.395 . S
C258 C254 1.423 . S
C258 C255 1.351 . S
C258 H270 0.930 . S
C259 C261 1.400 . S
C259 C262 1.386 . S
C259 H271 0.930 . S
N260 C253 1.377 . S
N260 C261 1.321 . S
N260 Eu263 2.609 . S
C261 C259 1.400 . S
C261 N260 1.321 . S
C261 H268 0.930 . S
C262 C257 1.395 . S
C262 C259 1.386 . S
C262 H281 0.930 . S
Eu263 N260 2.609 . S
Eu263 N264 2.657 . S
Eu263 O297 2.380 . S
Eu263 O298 2.432 . S
Eu263 O302 2.558 . S
Eu263 O303 2.612 1_655 S
Eu263 O305 2.339 . S
Eu263 O306 2.563 1_655 S
Eu263 O307 2.419 . S
Eu263 C327 2.848 . S
N264 C256 1.362 . S
N264 Eu263 2.657 . S
N264 C265 1.334 . S
C265 N264 1.334 . S
C265 C267 1.413 . S
C265 H272 0.929 . S
C266 C254 1.392 . S
C266 C267 1.367 . S
C266 H274 0.930 . S
C267 C265 1.413 . S
C267 C266 1.367 . S
C267 H269 0.930 . S
H268 C261 0.930 . S
H269 C267 0.930 . S
H270 C258 0.930 . S
H271 C259 0.930 . S
H272 C265 0.929 . S
H273 C287 0.930 . S
H274 C266 0.930 . S
H275 C293 0.930 1_655 S
H276 C284 0.929 . S
H277 C291 0.930 . S
H278 C255 0.931 . S
H279 C285 0.930 . S
H280 C318 0.930 . S
H281 C262 0.930 . S
H282 C317 0.931 . S
N283 Eu252 2.657 1_455 S
N283 C284 1.334 . S
N283 C288 1.362 . S
C284 H276 0.929 . S
C284 N283 1.334 . S
C284 C287 1.413 . S
C285 H279 0.930 . S
C285 C286 1.392 . S
C285 C287 1.367 . S
C286 C285 1.392 . S
C286 C288 1.420 . S
C286 C318 1.423 . S
C287 H273 0.930 . S
C287 C284 1.413 . S
C287 C285 1.367 . S
C288 N283 1.362 . S
C288 C286 1.420 . S
C288 C292 1.429 . S
H289 C294 0.930 . S
N290 Eu252 2.609 1_455 S
N290 C292 1.377 . S
N290 C293 1.321 . S
C291 H277 0.930 . S
C291 C293 1.400 . S
C291 C294 1.386 . S
C292 C288 1.429 . S
C292 N290 1.377 . S
C292 C295 1.411 . S
C293 H275 0.930 1_455 S
C293 N290 1.321 . S
C293 C291 1.400 . S
C294 H289 0.930 . S
C294 C291 1.386 . S
C294 C295 1.395 . S
C295 C292 1.411 . S
C295 C294 1.395 . S
C295 C317 1.420 . S
O296 Eu252 2.558 . S
O296 C316 1.257 . S
O297 Eu252 2.612 . S
O297 Eu263 2.380 . S
O297 C308 1.276 . S
O298 Eu263 2.432 . S
O298 C315 1.264 . S
O299 Eu252 2.339 . S
O299 C315 1.254 . S
O300 Eu252 2.563 . S
O300 C308 1.235 . S
O301 Eu252 2.419 . S
O301 C316 1.249 . S
O302 Eu263 2.558 . S
O302 C327 1.257 . S
O303 Eu252 2.380 1_455 S
O303 Eu263 2.612 1_455 S
O303 C319 1.276 . S
O304 Eu252 2.432 . S
O304 C326 1.264 . S
O305 Eu263 2.339 . S
O305 C326 1.254 . S
O306 Eu263 2.563 1_455 S
O306 C319 1.235 . S
O307 Eu263 2.419 . S
O307 C327 1.249 . S
C308 O297 1.276 . S
C308 O300 1.235 . S
C309 C311 1.393 . S
C309 C313 1.395 . S
C309 C316 1.492 . S
C310 C311 1.392 . S
C310 C312 1.386 . S
C311 C309 1.393 . S
C311 C310 1.392 . S
C311 H328 0.930 . S
C312 C310 1.386 . S
C312 C314 1.395 . S
C312 H329 0.930 . S
C313 C309 1.395 . S
C313 C314 1.379 . S
C313 H330 0.930 . S
C314 C312 1.395 . S
C314 C313 1.379 . S
C314 H331 0.930 . S
C315 O298 1.264 . S
C315 O299 1.254 . S
C316 Eu252 2.848 . S
C316 O296 1.257 . S
C316 O301 1.249 . S
C316 C309 1.492 . S
C317 H282 0.931 . S
C317 C295 1.420 . S
C317 C318 1.351 . S
C318 H280 0.930 . S
C318 C286 1.423 . S
C318 C317 1.351 . S
C319 O303 1.276 . S
C319 O306 1.235 . S
C320 C321 1.393 . S
C320 C324 1.395 . S
C320 C327 1.492 1_455 S
C321 C320 1.393 . S
C321 C322 1.392 . S
C321 H332 0.930 . S
C322 C321 1.392 . S
C322 C323 1.386 . S
C323 C322 1.386 . S
C323 C325 1.395 . S
C323 H333 0.930 . S
C324 C320 1.395 . S
C324 C325 1.379 . S
C324 H334 0.930 1_455 S
C325 C323 1.395 . S
C325 C324 1.379 . S
C325 H335 0.930 . S
C326 O304 1.264 . S
C326 O305 1.254 . S
C327 Eu263 2.848 . S
C327 O302 1.257 . S
C327 O307 1.249 . S
C327 C320 1.492 1_655 S
H328 C311 0.930 . S
H329 C312 0.930 . S
H330 C313 0.930 . S
H331 C314 0.930 . S
H332 C321 0.930 . S
H333 C323 0.930 . S
H334 C324 0.930 1_655 S
H335 C325 0.930 . S
Eu336 N367 2.657 . S
Eu336 N374 2.609 . S
Eu336 O380 2.558 . S
Eu336 O381 2.612 1_554 S
Eu336 O383 2.339 1_554 S
Eu336 O384 2.563 . S
Eu336 O385 2.419 . S
Eu336 O387 2.380 . S
Eu336 O388 2.432 . S
Eu336 C400 2.848 . S
C337 C340 1.429 . S
C337 C341 1.411 . S
C337 N344 1.377 . S
C338 C340 1.420 . S
C338 C342 1.423 . S
C338 C350 1.392 1_556 S
C339 C341 1.420 . S
C339 C342 1.351 . S
C339 H362 0.931 . S
C340 C337 1.429 . S
C340 C338 1.420 . S
C340 N348 1.362 . S
C341 C337 1.411 . S
C341 C339 1.420 . S
C341 C346 1.395 . S
C342 C338 1.423 . S
C342 C339 1.351 . S
C342 H354 0.930 . S
C343 C345 1.400 . S
C343 C346 1.386 . S
C343 H355 0.930 . S
N344 C337 1.377 . S
N344 C345 1.321 . S
N344 Eu347 2.609 . S
C345 C343 1.400 . S
C345 N344 1.321 . S
C345 H352 0.930 . S
C346 C341 1.395 . S
C346 C343 1.386 . S
C346 H365 0.930 . S
Eu347 N344 2.609 . S
Eu347 N348 2.657 . S
Eu347 O381 2.380 . S
Eu347 O382 2.432 . S
Eu347 O386 2.558 . S
Eu347 O387 2.612 1_556 S
Eu347 O389 2.339 1_556 S
Eu347 O390 2.563 . S
Eu347 O391 2.419 . S
Eu347 C411 2.848 . S
N348 C340 1.362 . S
N348 Eu347 2.657 . S
N348 C349 1.334 1_556 S
C349 N348 1.334 1_554 S
C349 C351 1.413 . S
C349 H356 0.929 . S
C350 C338 1.392 1_554 S
C350 C351 1.367 . S
C350 H358 0.930 . S
C351 C349 1.413 . S
C351 C350 1.367 . S
C351 H353 0.930 . S
H352 C345 0.930 . S
H353 C351 0.930 . S
H354 C342 0.930 . S
H355 C343 0.930 . S
H356 C349 0.929 . S
H357 C371 0.930 . S
H358 C350 0.930 . S
H359 C377 0.930 . S
H360 C368 0.929 . S
H361 C375 0.930 . S
H362 C339 0.931 . S
H363 C369 0.930 . S
H364 C402 0.930 . S
H365 C346 0.930 . S
H366 C401 0.931 . S
N367 Eu336 2.657 . S
N367 C368 1.334 1_554 S
N367 C372 1.362 . S
C368 H360 0.929 . S
C368 N367 1.334 1_556 S
C368 C371 1.413 . S
C369 H363 0.930 . S
C369 C370 1.392 1_556 S
C369 C371 1.367 . S
C370 C369 1.392 1_554 S
C370 C372 1.420 . S
C370 C402 1.423 . S
C371 H357 0.930 . S
C371 C368 1.413 . S
C371 C369 1.367 . S
C372 N367 1.362 . S
C372 C370 1.420 . S
C372 C376 1.429 . S
H373 C378 0.930 . S
N374 Eu336 2.609 . S
N374 C376 1.377 . S
N374 C377 1.321 . S
C375 H361 0.930 . S
C375 C377 1.400 . S
C375 C378 1.386 . S
C376 C372 1.429 . S
C376 N374 1.377 . S
C376 C379 1.411 . S
C377 H359 0.930 . S
C377 N374 1.321 . S
C377 C375 1.400 . S
C378 H373 0.930 . S
C378 C375 1.386 . S
C378 C379 1.395 . S
C379 C376 1.411 . S
C379 C378 1.395 . S
C379 C401 1.420 . S
O380 Eu336 2.558 . S
O380 C400 1.257 . S
O381 Eu336 2.612 1_556 S
O381 Eu347 2.380 . S
O381 C392 1.276 1_556 S
O382 Eu347 2.432 . S
O382 C399 1.264 . S
O383 Eu336 2.339 1_556 S
O383 C399 1.254 . S
O384 Eu336 2.563 . S
O384 C392 1.235 . S
O385 Eu336 2.419 . S
O385 C400 1.249 . S
O386 Eu347 2.558 . S
O386 C411 1.257 . S
O387 Eu336 2.380 . S
O387 Eu347 2.612 1_554 S
O387 C403 1.276 . S
O388 Eu336 2.432 . S
O388 C410 1.264 . S
O389 Eu347 2.339 1_554 S
O389 C410 1.254 . S
O390 Eu347 2.563 . S
O390 C403 1.235 1_556 S
O391 Eu347 2.419 . S
O391 C411 1.249 . S
C392 O381 1.276 1_554 S
C392 O384 1.235 . S
C393 C395 1.393 . S
C393 C397 1.395 . S
C393 C400 1.492 . S
C394 C395 1.392 . S
C394 C396 1.386 . S
C395 C393 1.393 . S
C395 C394 1.392 . S
C395 H412 0.930 1_554 S
C396 C394 1.386 . S
C396 C398 1.395 . S
C396 H413 0.930 . S
C397 C393 1.395 . S
C397 C398 1.379 . S
C397 H414 0.930 . S
C398 C396 1.395 . S
C398 C397 1.379 . S
C398 H415 0.930 . S
C399 O382 1.264 . S
C399 O383 1.254 . S
C400 Eu336 2.848 . S
C400 O380 1.257 . S
C400 O385 1.249 . S
C400 C393 1.492 . S
C401 H366 0.931 . S
C401 C379 1.420 . S
C401 C402 1.351 . S
C402 H364 0.930 . S
C402 C370 1.423 . S
C402 C401 1.351 . S
C403 O387 1.276 . S
C403 O390 1.235 1_554 S
C404 C405 1.393 . S
C404 C408 1.395 . S
C404 C411 1.492 . S
C405 C404 1.393 . S
C405 C406 1.392 . S
C405 H416 0.930 1_556 S
C406 C405 1.392 . S
C406 C407 1.386 . S
C407 C406 1.386 . S
C407 C409 1.395 . S
C407 H417 0.930 . S
C408 C404 1.395 . S
C408 C409 1.379 . S
C408 H418 0.930 . S
C409 C407 1.395 . S
C409 C408 1.379 . S
C409 H419 0.930 . S
C410 O388 1.264 . S
C410 O389 1.254 . S
C411 Eu347 2.848 . S
C411 O386 1.257 . S
C411 O391 1.249 . S
C411 C404 1.492 . S
H412 C395 0.930 1_556 S
H413 C396 0.930 . S
H414 C397 0.930 . S
H415 C398 0.930 . S
H416 C405 0.930 1_554 S
H417 C407 0.930 . S
H418 C408 0.930 . S
H419 C409 0.930 . S
Eu420 N451 2.657 . S
Eu420 N458 2.609 . S
Eu420 O464 2.558 . S
Eu420 O465 2.613 . S
Eu420 O467 2.339 1_554 S
Eu420 O468 2.563 . S
Eu420 O469 2.419 . S
Eu420 O471 2.380 . S
Eu420 O472 2.432 . S
Eu420 C484 2.848 . S
C421 C424 1.429 . S
C421 C425 1.411 . S
C421 N428 1.377 . S
C422 C424 1.420 . S
C422 C426 1.423 . S
C422 C434 1.392 1_556 S
C423 C425 1.420 . S
C423 C426 1.351 . S
C423 H446 0.931 . S
C424 C421 1.429 . S
C424 C422 1.420 . S
C424 N432 1.362 1_556 S
C425 C421 1.411 . S
C425 C423 1.420 . S
C425 C430 1.395 . S
C426 C422 1.423 . S
C426 C423 1.351 . S
C426 H438 0.930 . S
C427 C429 1.400 . S
C427 C430 1.386 . S
C427 H439 0.930 . S
N428 C421 1.377 . S
N428 C429 1.321 . S
N428 Eu431 2.609 . S
C429 C427 1.400 . S
C429 N428 1.321 . S
C429 H436 0.930 . S
C430 C425 1.395 . S
C430 C427 1.386 . S
C430 H449 0.930 . S
Eu431 N428 2.609 . S
Eu431 N432 2.657 1_556 S
Eu431 O465 2.382 1_556 S
Eu431 O466 2.432 . S
Eu431 O470 2.558 . S
Eu431 O471 2.612 1_556 S
Eu431 O473 2.339 1_556 S
Eu431 O474 2.563 . S
Eu431 O475 2.419 1_556 S
Eu431 C495 2.848 . S
N432 C424 1.362 1_554 S
N432 Eu431 2.657 1_554 S
N432 C433 1.334 . S
C433 N432 1.334 . S
C433 C435 1.413 . S
C433 H440 0.929 . S
C434 C422 1.392 1_554 S
C434 C435 1.367 . S
C434 H442 0.930 . S
C435 C433 1.413 . S
C435 C434 1.367 . S
C435 H437 0.930 . S
H436 C429 0.930 . S
H437 C435 0.930 . S
H438 C426 0.930 . S
H439 C427 0.930 . S
H440 C433 0.929 . S
H441 C455 0.930 . S
H442 C434 0.930 . S
H443 C461 0.930 . S
H444 C452 0.929 . S
H445 C459 0.930 . S
H446 C423 0.931 . S
H447 C453 0.930 . S
H448 C486 0.930 . S
H449 C430 0.930 . S
H450 C485 0.931 . S
N451 Eu420 2.657 . S
N451 C452 1.334 1_554 S
N451 C456 1.362 . S
C452 H444 0.929 . S
C452 N451 1.334 1_556 S
C452 C455 1.413 . S
C453 H447 0.930 . S
C453 C454 1.392 1_556 S
C453 C455 1.367 . S
C454 C453 1.392 1_554 S
C454 C456 1.420 . S
C454 C486 1.423 . S
C455 H441 0.930 . S
C455 C452 1.413 . S
C455 C453 1.367 . S
C456 N451 1.362 . S
C456 C454 1.420 . S
C456 C460 1.429 . S
H457 C462 0.930 . S
N458 Eu420 2.609 . S
N458 C460 1.377 . S
N458 C461 1.321 . S
C459 H445 0.930 . S
C459 C461 1.400 . S
C459 C462 1.386 . S
C460 C456 1.429 . S
C460 N458 1.377 . S
C460 C463 1.411 . S
C461 H443 0.930 . S
C461 N458 1.321 . S
C461 C459 1.400 . S
C462 H457 0.930 . S
C462 C459 1.386 . S
C462 C463 1.395 . S
C463 C460 1.411 . S
C463 C462 1.395 . S
C463 C485 1.420 . S
O464 Eu420 2.558 . S
O464 C484 1.257 . S
O465 Eu420 2.613 . S
O465 Eu431 2.382 1_554 S
O465 C476 1.275 . S
O466 Eu431 2.432 . S
O466 C483 1.264 . S
O467 Eu420 2.339 1_556 S
O467 C483 1.254 . S
O468 Eu420 2.563 . S
O468 C476 1.235 . S
O469 Eu420 2.419 . S
O469 C484 1.249 . S
O470 Eu431 2.558 . S
O470 C495 1.257 . S
O471 Eu420 2.380 . S
O471 Eu431 2.612 1_554 S
O471 C487 1.276 . S
O472 Eu420 2.432 . S
O472 C494 1.264 . S
O473 Eu431 2.339 1_554 S
O473 C494 1.254 . S
O474 Eu431 2.563 . S
O474 C487 1.235 1_556 S
O475 Eu431 2.419 1_554 S
O475 C495 1.248 1_554 S
C476 O465 1.275 . S
C476 O468 1.235 . S
C477 C479 1.393 . S
C477 C481 1.395 . S
C477 C484 1.492 . S
C478 C479 1.392 . S
C478 C480 1.386 . S
C479 C477 1.393 . S
C479 C478 1.392 . S
C479 H496 0.930 1_554 S
C480 C478 1.386 . S
C480 C482 1.395 . S
C480 H497 0.930 . S
C481 C477 1.395 . S
C481 C482 1.379 . S
C481 H498 0.930 . S
C482 C480 1.395 . S
C482 C481 1.379 . S
C482 H499 0.930 . S
C483 O466 1.264 . S
C483 O467 1.254 . S
C484 Eu420 2.848 . S
C484 O464 1.257 . S
C484 O469 1.249 . S
C484 C477 1.492 . S
C485 H450 0.931 . S
C485 C463 1.420 . S
C485 C486 1.351 . S
C486 H448 0.930 . S
C486 C454 1.423 . S
C486 C485 1.351 . S
C487 O471 1.276 . S
C487 O474 1.235 1_554 S
C488 C489 1.393 . S
C488 C492 1.395 . S
C488 C495 1.492 . S
C489 C488 1.393 . S
C489 C490 1.392 . S
C489 H500 0.930 1_556 S
C490 C489 1.392 . S
C490 C491 1.386 . S
C491 C490 1.386 . S
C491 C493 1.395 . S
C491 H501 0.930 . S
C492 C488 1.395 . S
C492 C493 1.379 . S
C492 H502 0.930 . S
C493 C491 1.395 . S
C493 C492 1.379 . S
C493 H503 0.930 . S
C494 O472 1.264 . S
C494 O473 1.254 . S
C495 Eu431 2.848 . S
C495 O470 1.257 . S
C495 O475 1.248 1_556 S
C495 C488 1.492 . S
H496 C479 0.930 1_556 S
H497 C480 0.930 . S
H498 C481 0.930 . S
H499 C482 0.930 . S
H500 C489 0.930 1_554 S
H501 C491 0.930 . S
H502 C492 0.930 . S
H503 C493 0.930 . S
Eu504 N535 2.657 . S
Eu504 N542 2.609 . S
Eu504 O548 2.558 . S
Eu504 O549 2.612 . S
Eu504 O551 2.339 . S
Eu504 O552 2.563 . S
Eu504 O553 2.419 . S
Eu504 O555 2.380 . S
Eu504 O556 2.432 . S
Eu504 C568 2.848 . S
C505 C508 1.429 . S
C505 C509 1.411 . S
C505 N512 1.377 . S
C506 C508 1.420 . S
C506 C510 1.423 . S
C506 C518 1.392 . S
C507 C509 1.420 . S
C507 C510 1.351 . S
C507 H530 0.931 . S
C508 C505 1.429 . S
C508 C506 1.420 . S
C508 N516 1.362 . S
C509 C505 1.411 . S
C509 C507 1.420 . S
C509 C514 1.395 . S
C510 C506 1.423 . S
C510 C507 1.351 . S
C510 H522 0.930 . S
C511 C513 1.400 . S
C511 C514 1.386 . S
C511 H523 0.930 . S
N512 C505 1.377 . S
N512 C513 1.321 . S
N512 Eu515 2.609 . S
C513 C511 1.400 . S
C513 N512 1.321 . S
C513 H520 0.930 . S
C514 C509 1.395 . S
C514 C511 1.386 . S
C514 H533 0.930 . S
Eu515 N512 2.609 . S
Eu515 N516 2.657 . S
Eu515 O549 2.380 . S
Eu515 O550 2.432 . S
Eu515 O554 2.558 . S
Eu515 O555 2.612 . S
Eu515 O557 2.339 . S
Eu515 O558 2.563 . S
Eu515 O559 2.419 . S
Eu515 C579 2.848 . S
N516 C508 1.362 . S
N516 Eu515 2.657 . S
N516 C517 1.334 . S
C517 N516 1.334 . S
C517 C519 1.413 . S
C517 H524 0.929 . S
C518 C506 1.392 . S
C518 C519 1.367 . S
C518 H526 0.930 . S
C519 C517 1.413 . S
C519 C518 1.367 . S
C519 H521 0.930 . S
H520 C513 0.930 . S
H521 C519 0.930 . S
H522 C510 0.930 . S
H523 C511 0.930 . S
H524 C517 0.929 . S
H525 C539 0.930 . S
H526 C518 0.930 . S
H527 C545 0.930 . S
H528 C536 0.929 . S
H529 C543 0.930 . S
H530 C507 0.931 . S
H531 C537 0.930 . S
H532 C570 0.930 . S
H533 C514 0.930 . S
H534 C569 0.931 . S
N535 Eu504 2.657 . S
N535 C536 1.334 . S
N535 C540 1.362 . S
C536 H528 0.929 . S
C536 N535 1.334 . S
C536 C539 1.413 . S
C537 H531 0.930 . S
C537 C538 1.392 . S
C537 C539 1.367 . S
C538 C537 1.392 . S
C538 C540 1.420 . S
C538 C570 1.423 . S
C539 H525 0.930 . S
C539 C536 1.413 . S
C539 C537 1.367 . S
C540 N535 1.362 . S
C540 C538 1.420 . S
C540 C544 1.429 . S
H541 C546 0.930 . S
N542 Eu504 2.609 . S
N542 C544 1.377 . S
N542 C545 1.321 . S
C543 H529 0.930 . S
C543 C545 1.400 . S
C543 C546 1.386 . S
C544 C540 1.429 . S
C544 N542 1.377 . S
C544 C547 1.411 . S
C545 H527 0.930 . S
C545 N542 1.321 . S
C545 C543 1.400 . S
C546 H541 0.930 . S
C546 C543 1.386 . S
C546 C547 1.395 . S
C547 C544 1.411 . S
C547 C546 1.395 . S
C547 C569 1.420 . S
O548 Eu504 2.558 . S
O548 C568 1.257 . S
O549 Eu504 2.612 . S
O549 Eu515 2.380 . S
O549 C560 1.276 . S
O550 Eu515 2.432 . S
O550 C567 1.264 . S
O551 Eu504 2.339 . S
O551 C567 1.254 . S
O552 Eu504 2.563 . S
O552 C560 1.235 . S
O553 Eu504 2.419 . S
O553 C568 1.249 . S
O554 Eu515 2.558 . S
O554 C579 1.257 . S
O555 Eu504 2.380 . S
O555 Eu515 2.612 . S
O555 C571 1.276 . S
O556 Eu504 2.432 . S
O556 C578 1.264 . S
O557 Eu515 2.339 . S
O557 C578 1.254 . S
O558 Eu515 2.563 . S
O558 C571 1.235 . S
O559 Eu515 2.419 . S
O559 C579 1.249 . S
C560 O549 1.276 . S
C560 O552 1.235 . S
C561 C563 1.393 . S
C561 C565 1.395 . S
C561 C568 1.492 . S
C562 C563 1.392 . S
C562 C564 1.386 . S
C563 C561 1.393 . S
C563 C562 1.392 . S
C563 H580 0.930 . S
C564 C562 1.386 . S
C564 C566 1.395 . S
C564 H581 0.930 . S
C565 C561 1.395 . S
C565 C566 1.379 . S
C565 H582 0.930 . S
C566 C564 1.395 . S
C566 C565 1.379 . S
C566 H583 0.930 . S
C567 O550 1.264 . S
C567 O551 1.254 . S
C568 Eu504 2.848 . S
C568 O548 1.257 . S
C568 O553 1.249 . S
C568 C561 1.492 . S
C569 H534 0.931 . S
C569 C547 1.420 . S
C569 C570 1.351 . S
C570 H532 0.930 . S
C570 C538 1.423 . S
C570 C569 1.351 . S
C571 O555 1.276 . S
C571 O558 1.235 . S
C572 C573 1.393 . S
C572 C576 1.395 . S
C572 C579 1.492 . S
C573 C572 1.393 . S
C573 C574 1.392 . S
C573 H584 0.930 . S
C574 C573 1.392 . S
C574 C575 1.386 . S
C575 C574 1.386 . S
C575 C577 1.395 . S
C575 H585 0.930 . S
C576 C572 1.395 . S
C576 C577 1.379 . S
C576 H586 0.930 . S
C577 C575 1.395 . S
C577 C576 1.379 . S
C577 H587 0.930 . S
C578 O556 1.264 . S
C578 O557 1.254 . S
C579 Eu515 2.848 . S
C579 O554 1.257 . S
C579 O559 1.249 . S
C579 C572 1.492 . S
H580 C563 0.930 . S
H581 C564 0.930 . S
H582 C565 0.930 . S
H583 C566 0.930 . S
H584 C573 0.930 . S
H585 C575 0.930 . S
H586 C576 0.930 . S
H587 C577 0.930 . S
Eu588 N619 2.657 . S
Eu588 N626 2.609 . S
Eu588 O632 2.558 . S
Eu588 O633 2.612 . S
Eu588 O635 2.339 . S
Eu588 O636 2.563 . S
Eu588 O637 2.419 . S
Eu588 O639 2.380 . S
Eu588 O640 2.432 . S
Eu588 C652 2.848 . S
C589 C592 1.429 . S
C589 C593 1.411 . S
C589 N596 1.377 . S
C590 C592 1.420 . S
C590 C594 1.423 . S
C590 C602 1.392 . S
C591 C593 1.420 . S
C591 C594 1.351 . S
C591 H614 0.931 . S
C592 C589 1.429 . S
C592 C590 1.420 . S
C592 N600 1.362 . S
C593 C589 1.411 . S
C593 C591 1.420 . S
C593 C598 1.395 . S
C594 C590 1.423 . S
C594 C591 1.351 . S
C594 H606 0.930 . S
C595 C597 1.400 . S
C595 C598 1.386 . S
C595 H607 0.930 . S
N596 C589 1.377 . S
N596 C597 1.321 . S
N596 Eu599 2.609 . S
C597 C595 1.400 . S
C597 N596 1.321 . S
C597 H604 0.930 . S
C598 C593 1.395 . S
C598 C595 1.386 . S
C598 H617 0.930 . S
Eu599 N596 2.609 . S
Eu599 N600 2.657 . S
Eu599 O633 2.380 . S
Eu599 O634 2.432 . S
Eu599 O638 2.558 . S
Eu599 O639 2.612 . S
Eu599 O641 2.339 . S
Eu599 O642 2.563 . S
Eu599 O643 2.419 . S
Eu599 C663 2.848 . S
N600 C592 1.362 . S
N600 Eu599 2.657 . S
N600 C601 1.334 . S
C601 N600 1.334 . S
C601 C603 1.413 . S
C601 H608 0.929 . S
C602 C590 1.392 . S
C602 C603 1.367 . S
C602 H610 0.930 . S
C603 C601 1.413 . S
C603 C602 1.367 . S
C603 H605 0.930 . S
H604 C597 0.930 . S
H605 C603 0.930 . S
H606 C594 0.930 . S
H607 C595 0.930 . S
H608 C601 0.929 . S
H609 C623 0.930 . S
H610 C602 0.930 . S
H611 C629 0.930 . S
H612 C620 0.929 . S
H613 C627 0.930 . S
H614 C591 0.931 . S
H615 C621 0.930 . S
H616 C654 0.930 . S
H617 C598 0.930 . S
H618 C653 0.931 . S
N619 Eu588 2.657 . S
N619 C620 1.334 . S
N619 C624 1.362 . S
C620 H612 0.929 . S
C620 N619 1.334 . S
C620 C623 1.413 . S
C621 H615 0.930 . S
C621 C622 1.392 . S
C621 C623 1.367 . S
C622 C621 1.392 . S
C622 C624 1.420 . S
C622 C654 1.423 . S
C623 H609 0.930 . S
C623 C620 1.413 . S
C623 C621 1.367 . S
C624 N619 1.362 . S
C624 C622 1.420 . S
C624 C628 1.429 . S
H625 C630 0.930 . S
N626 Eu588 2.609 . S
N626 C628 1.377 . S
N626 C629 1.321 . S
C627 H613 0.930 . S
C627 C629 1.400 . S
C627 C630 1.386 . S
C628 C624 1.429 . S
C628 N626 1.377 . S
C628 C631 1.411 . S
C629 H611 0.930 . S
C629 N626 1.321 . S
C629 C627 1.400 . S
C630 H625 0.930 . S
C630 C627 1.386 . S
C630 C631 1.395 . S
C631 C628 1.411 . S
C631 C630 1.395 . S
C631 C653 1.420 . S
O632 Eu588 2.558 . S
O632 C652 1.257 . S
O633 Eu588 2.612 . S
O633 Eu599 2.380 . S
O633 C644 1.276 . S
O634 Eu599 2.432 . S
O634 C651 1.264 . S
O635 Eu588 2.339 . S
O635 C651 1.254 . S
O636 Eu588 2.563 . S
O636 C644 1.235 . S
O637 Eu588 2.419 . S
O637 C652 1.249 . S
O638 Eu599 2.558 . S
O638 C663 1.257 . S
O639 Eu588 2.380 . S
O639 Eu599 2.612 . S
O639 C655 1.276 . S
O640 Eu588 2.432 . S
O640 C662 1.264 . S
O641 Eu599 2.339 . S
O641 C662 1.254 . S
O642 Eu599 2.563 . S
O642 C655 1.235 . S
O643 Eu599 2.419 . S
O643 C663 1.249 . S
C644 O633 1.276 . S
C644 O636 1.235 . S
C645 C647 1.393 . S
C645 C649 1.395 . S
C645 C652 1.492 . S
C646 C647 1.392 . S
C646 C648 1.386 . S
C647 C645 1.393 . S
C647 C646 1.392 . S
C647 H664 0.930 . S
C648 C646 1.386 . S
C648 C650 1.395 . S
C648 H665 0.930 . S
C649 C645 1.395 . S
C649 C650 1.379 . S
C649 H666 0.930 . S
C650 C648 1.395 . S
C650 C649 1.379 . S
C650 H667 0.930 . S
C651 O634 1.264 . S
C651 O635 1.254 . S
C652 Eu588 2.848 . S
C652 O632 1.257 . S
C652 O637 1.249 . S
C652 C645 1.492 . S
C653 H618 0.931 . S
C653 C631 1.420 . S
C653 C654 1.351 . S
C654 H616 0.930 . S
C654 C622 1.423 . S
C654 C653 1.351 . S
C655 O639 1.276 . S
C655 O642 1.235 . S
C656 C657 1.393 . S
C656 C660 1.395 . S
C656 C663 1.492 . S
C657 C656 1.393 . S
C657 C658 1.392 . S
C657 H668 0.930 . S
C658 C657 1.392 . S
C658 C659 1.386 . S
C659 C658 1.386 . S
C659 C661 1.395 . S
C659 H669 0.930 . S
C660 C656 1.395 . S
C660 C661 1.379 . S
C660 H670 0.930 . S
C661 C659 1.395 . S
C661 C660 1.379 . S
C661 H671 0.930 . S
C662 O640 1.264 . S
C662 O641 1.254 . S
C663 Eu599 2.848 . S
C663 O638 1.257 . S
C663 O643 1.249 . S
C663 C656 1.492 . S
H664 C647 0.930 . S
H665 C648 0.930 . S
H666 C649 0.930 . S
H667 C650 0.930 . S
H668 C657 0.930 . S
H669 C659 0.930 . S
H670 C660 0.930 . S
H671 C661 0.930 . S
H672 C680 0.950 . S
H673 C685 0.950 . S
H674 C682 0.950 . S
H675 C684 0.950 . S
H676 C686 0.950 . S
H677 C688 0.950 . S
H678 C690 0.950 . S
H679 C691 0.950 . S
C680 H672 0.950 . S
C680 C681 1.386 1_556 S
C680 C682 1.391 . S
C681 C680 1.386 1_554 S
C681 C685 1.393 . S
C682 H674 0.950 . S
C682 C680 1.391 . S
C682 C683 1.400 1_556 S
C683 C682 1.400 1_554 S
C683 C684 1.398 . S
C683 C689 1.491 . S
C684 H675 0.950 . S
C684 C683 1.398 . S
C684 C685 1.391 . S
C685 H673 0.950 . S
C685 C681 1.393 . S
C685 C684 1.391 . S
C686 H676 0.950 . S
C686 C687 1.386 1_554 S
C686 C688 1.391 . S
C687 C686 1.386 1_556 S
C687 C691 1.393 . S
C688 H677 0.950 . S
C688 C686 1.391 . S
C688 C689 1.400 . S
C689 C683 1.491 . S
C689 C688 1.400 . S
C689 C690 1.398 1_554 S
C690 H678 0.950 . S
C690 C689 1.398 1_556 S
C690 C691 1.391 . S
C691 H679 0.950 . S
C691 C687 1.393 . S
C691 C690 1.391 . S
H692 C700 0.950 . S
H693 C705 0.950 . S
H694 C702 0.950 . S
H695 C704 0.950 . S
H696 C706 0.950 . S
H697 C708 0.950 . S
H698 C710 0.939 1_556 S
H699 C711 0.950 . S
C700 H692 0.950 . S
C700 C701 1.386 . S
C700 C702 1.391 . S
C701 C700 1.386 . S
C701 C705 1.393 . S
C702 H694 0.950 . S
C702 C700 1.391 . S
C702 C703 1.400 . S
C703 C702 1.400 . S
C703 C704 1.398 . S
C703 C709 1.491 . S
C704 H695 0.950 . S
C704 C703 1.398 . S
C704 C705 1.391 . S
C705 H693 0.950 . S
C705 C701 1.393 . S
C705 C704 1.391 . S
C706 H696 0.950 . S
C706 C707 1.381 1_554 S
C706 C708 1.391 . S
C707 C706 1.381 1_556 S
C707 C711 1.396 . S
C708 H697 0.950 . S
C708 C706 1.391 . S
C708 C709 1.400 . S
C709 C703 1.491 . S
C709 C708 1.400 . S
C709 C710 1.398 . S
C710 H698 0.939 1_554 S
C710 C709 1.398 . S
C710 C711 1.391 1_554 S
C711 H699 0.950 . S
C711 C707 1.396 . S
C711 C710 1.391 1_556 S
H712 C720 0.950 . S
H713 C725 0.950 . S
H714 C722 0.950 . S
H715 C724 0.950 . S
H716 C726 0.950 . S
H717 C728 0.950 . S
H718 C730 0.950 . S
H719 C731 0.950 . S
C720 H712 0.950 . S
C720 C721 1.386 . S
C720 C722 1.391 . S
C721 C720 1.386 . S
C721 C725 1.393 . S
C722 H714 0.950 . S
C722 C720 1.391 . S
C722 C723 1.400 . S
C723 C722 1.400 . S
C723 C724 1.398 . S
C723 C729 1.491 . S
C724 H715 0.950 . S
C724 C723 1.398 . S
C724 C725 1.391 . S
C725 H713 0.950 . S
C725 C721 1.393 . S
C725 C724 1.391 . S
C726 H716 0.950 . S
C726 C727 1.386 . S
C726 C728 1.391 . S
C727 C726 1.386 . S
C727 C731 1.393 . S
C728 H717 0.950 . S
C728 C726 1.391 . S
C728 C729 1.400 . S
C729 C723 1.491 . S
C729 C728 1.400 . S
C729 C730 1.398 . S
C730 H718 0.950 . S
C730 C729 1.398 . S
C730 C731 1.391 . S
C731 H719 0.950 . S
C731 C727 1.393 . S
C731 C730 1.391 . S
H732 C740 0.950 . S
H733 C745 0.950 . S
H734 C742 0.950 . S
H735 C744 0.950 . S
H736 C746 0.950 . S
H737 C748 0.950 . S
H738 C750 0.950 . S
H739 C751 0.950 . S
C740 H732 0.950 . S
C740 C741 1.386 . S
C740 C742 1.391 . S
C741 C740 1.386 . S
C741 C745 1.393 . S
C742 H734 0.950 . S
C742 C740 1.391 . S
C742 C743 1.400 . S
C743 C742 1.400 . S
C743 C744 1.398 . S
C743 C749 1.491 . S
C744 H735 0.950 . S
C744 C743 1.398 . S
C744 C745 1.391 . S
C745 H733 0.950 . S
C745 C741 1.393 . S
C745 C744 1.391 . S
C746 H736 0.950 . S
C746 C747 1.386 . S
C746 C748 1.391 . S
C747 C746 1.386 . S
C747 C751 1.393 . S
C748 H737 0.950 . S
C748 C746 1.391 . S
C748 C749 1.400 . S
C749 C743 1.491 . S
C749 C748 1.400 . S
C749 C750 1.398 . S
C750 H738 0.950 . S
C750 C749 1.398 . S
C750 C751 1.391 . S
C751 H739 0.950 . S
C751 C747 1.393 . S
C751 C750 1.391 . S
H752 C760 0.950 . S
H753 C765 0.950 . S
H754 C762 0.950 . S
H755 C764 0.945 1_455 S
H756 C766 0.950 . S
H757 C768 0.950 . S
H758 C770 0.950 . S
H759 C771 0.950 . S
C760 H752 0.950 . S
C760 C761 1.386 . S
C760 C762 1.391 . S
C761 C760 1.386 . S
C761 C765 1.393 1_554 S
C762 H754 0.950 . S
C762 C760 1.391 . S
C762 C763 1.400 1_655 S
C763 C762 1.400 1_455 S
C763 C764 1.398 1_454 S
C763 C769 1.491 . S
C764 H755 0.945 1_655 S
C764 C763 1.398 1_656 S
C764 C765 1.391 . S
C765 H753 0.950 . S
C765 C761 1.393 1_556 S
C765 C764 1.391 . S
C766 H756 0.950 . S
C766 C767 1.386 . S
C766 C768 1.391 . S
C767 C766 1.386 . S
C767 C771 1.393 1_556 S
C768 H757 0.950 . S
C768 C766 1.391 . S
C768 C769 1.400 1_556 S
C769 C763 1.491 . S
C769 C768 1.400 1_554 S
C769 C770 1.398 . S
C770 H758 0.950 . S
C770 C769 1.398 . S
C770 C771 1.391 . S
C771 H759 0.950 . S
C771 C767 1.393 1_554 S
C771 C770 1.391 . S
H772 C780 0.950 . S
H773 C785 0.950 . S
H774 C782 0.950 . S
H775 C784 0.950 1_655 S
H776 C786 0.950 . S
H777 C788 0.950 . S
H778 C790 0.950 . S
H779 C791 0.950 . S
C780 H772 0.950 . S
C780 C781 1.386 . S
C780 C782 1.391 . S
C781 C780 1.386 . S
C781 C785 1.393 1_554 S
C782 H774 0.950 . S
C782 C780 1.391 . S
C782 C783 1.400 1_455 S
C783 C782 1.400 1_655 S
C783 C784 1.398 1_654 S
C783 C789 1.491 . S
C784 H775 0.950 1_455 S
C784 C783 1.398 1_456 S
C784 C785 1.391 . S
C785 H773 0.950 . S
C785 C781 1.393 1_556 S
C785 C784 1.391 . S
C786 H776 0.950 . S
C786 C787 1.386 1_556 S
C786 C788 1.391 . S
C787 C786 1.386 1_554 S
C787 C791 1.393 . S
C788 H777 0.950 . S
C788 C786 1.391 . S
C788 C789 1.400 1_556 S
C789 C783 1.491 . S
C789 C788 1.400 1_554 S
C789 C790 1.398 . S
C790 H778 0.950 . S
C790 C789 1.398 . S
C790 C791 1.391 . S
C791 H779 0.950 . S
C791 C787 1.393 . S
C791 C790 1.391 . S
H792 C800 0.950 . S
H793 C805 0.950 . S
H794 C802 0.950 . S
H795 C804 0.950 . S
H796 C806 0.950 . S
H797 C808 0.950 1_455 S
H798 C810 0.950 . S
H799 C811 0.950 . S
C800 H792 0.950 . S
C800 C801 1.386 . S
C800 C802 1.391 . S
C801 C800 1.386 . S
C801 C805 1.393 . S
C802 H794 0.950 . S
C802 C800 1.391 . S
C802 C803 1.400 . S
C803 C802 1.400 . S
C803 C804 1.398 . S
C803 C809 1.491 . S
C804 H795 0.950 . S
C804 C803 1.398 . S
C804 C805 1.391 . S
C805 H793 0.950 . S
C805 C801 1.393 . S
C805 C804 1.391 . S
C806 H796 0.950 . S
C806 C807 1.386 . S
C806 C808 1.391 . S
C807 C806 1.386 . S
C807 C811 1.393 . S
C808 H797 0.950 1_655 S
C808 C806 1.391 . S
C808 C809 1.400 1_655 S
C809 C803 1.491 . S
C809 C808 1.400 1_455 S
C809 C810 1.398 1_455 S
C810 H798 0.950 . S
C810 C809 1.398 1_655 S
C810 C811 1.391 . S
C811 H799 0.950 . S
C811 C807 1.393 . S
C811 C810 1.391 . S
H812 C820 0.950 . S
H813 C825 0.950 . S
H814 C822 0.950 . S
H815 C824 0.950 . S
H816 C826 0.950 . S
H817 C828 0.950 . S
H818 C830 0.950 1_655 S
H819 C831 0.950 . S
C820 H812 0.950 . S
C820 C821 1.386 . S
C820 C822 1.391 . S
C821 C820 1.386 . S
C821 C825 1.393 . S
C822 H814 0.950 . S
C822 C820 1.391 . S
C822 C823 1.400 . S
C823 C822 1.400 . S
C823 C824 1.398 . S
C823 C829 1.491 . S
C824 H815 0.950 . S
C824 C823 1.398 . S
C824 C825 1.391 . S
C825 H813 0.950 . S
C825 C821 1.393 . S
C825 C824 1.391 . S
C826 H816 0.950 . S
C826 C827 1.386 . S
C826 C828 1.391 . S
C827 C826 1.386 . S
C827 C831 1.393 . S
C828 H817 0.950 . S
C828 C826 1.391 . S
C828 C829 1.400 1_455 S
C829 C823 1.491 . S
C829 C828 1.400 1_655 S
C829 C830 1.398 1_655 S
C830 H818 0.950 1_455 S
C830 C829 1.398 1_455 S
C830 C831 1.391 . S
C831 H819 0.950 . S
C831 C827 1.393 . S
C831 C830 1.391 . S
H832 C840 0.950 . S
H833 C845 0.950 . S
H834 C842 0.950 . S
H835 C844 0.950 . S
H836 C846 0.950 . S
H837 C848 0.950 . S
H838 C850 0.950 . S
H839 C851 0.950 . S
C840 H832 0.950 . S
C840 C841 1.386 . S
C840 C842 1.391 . S
C841 C840 1.386 . S
C841 C845 1.393 1_454 S
C842 H834 0.950 . S
C842 C840 1.391 . S
C842 C843 1.400 . S
C843 C842 1.400 . S
C843 C844 1.398 1_454 S
C843 C849 1.491 1_455 S
C844 H835 0.950 . S
C844 C843 1.398 1_656 S
C844 C845 1.391 . S
C845 H833 0.950 . S
C845 C841 1.393 1_656 S
C845 C844 1.391 . S
C846 H836 0.950 . S
C846 C847 1.386 1_556 S
C846 C848 1.391 . S
C847 C846 1.386 1_554 S
C847 C851 1.393 1_655 S
C848 H837 0.950 . S
C848 C846 1.391 . S
C848 C849 1.400 1_556 S
C849 C843 1.491 1_655 S
C849 C848 1.400 1_554 S
C849 C850 1.398 1_655 S
C850 H838 0.950 . S
C850 C849 1.398 1_455 S
C850 C851 1.391 . S
C851 H839 0.950 . S
C851 C847 1.393 1_455 S
C851 C850 1.391 . S
H852 C860 0.950 . S
H853 C865 0.950 . S
H854 C862 0.950 . S
H855 C864 0.950 . S
H856 C866 0.950 . S
H857 C868 0.950 . S
H858 C870 0.950 . S
H859 C871 0.950 . S
C860 H852 0.950 . S
C860 C861 1.386 1_655 S
C860 C862 1.391 . S
C861 C860 1.386 1_455 S
C861 C865 1.393 . S
C862 H854 0.950 . S
C862 C860 1.391 . S
C862 C863 1.400 1_655 S
C863 C862 1.400 1_455 S
C863 C864 1.398 . S
C863 C869 1.491 1_455 S
C864 H855 0.950 . S
C864 C863 1.398 . S
C864 C865 1.391 . S
C865 H853 0.950 . S
C865 C861 1.393 . S
C865 C864 1.391 . S
C866 H856 0.950 . S
C866 C867 1.386 1_455 S
C866 C868 1.391 . S
C867 C866 1.386 1_655 S
C867 C871 1.393 . S
C868 H857 0.950 . S
C868 C866 1.391 . S
C868 C869 1.400 1_455 S
C869 C863 1.491 1_655 S
C869 C868 1.400 1_655 S
C869 C870 1.398 . S
C870 H858 0.950 . S
C870 C869 1.398 . S
C870 C871 1.391 . S
C871 H859 0.950 . S
C871 C867 1.393 . S
C871 C870 1.391 . S
H872 C880 0.950 . S
H873 C885 0.950 . S
H874 C882 0.950 . S
H875 C884 0.950 . S
H876 C886 0.950 . S
H877 C888 0.950 . S
H878 C890 0.950 . S
H879 C891 0.950 . S
C880 H872 0.950 . S
C880 C881 1.386 . S
C880 C882 1.391 . S
C881 C880 1.386 . S
C881 C885 1.393 . S
C882 H874 0.950 . S
C882 C880 1.391 . S
C882 C883 1.400 . S
C883 C882 1.400 . S
C883 C884 1.398 . S
C883 C889 1.491 1_565 S
C884 H875 0.950 . S
C884 C883 1.398 . S
C884 C885 1.391 . S
C885 H873 0.950 . S
C885 C881 1.393 . S
C885 C884 1.391 . S
C886 H876 0.950 . S
C886 C887 1.386 . S
C886 C888 1.391 . S
C887 C886 1.386 . S
C887 C891 1.393 . S
C888 H877 0.950 . S
C888 C886 1.391 . S
C888 C889 1.400 . S
C889 C883 1.491 1_545 S
C889 C888 1.400 . S
C889 C890 1.398 . S
C890 H878 0.950 . S
C890 C889 1.398 . S
C890 C891 1.391 . S
C891 H879 0.950 . S
C891 C887 1.393 . S
C891 C890 1.391 . S
H892 C900 0.950 . S
H893 C905 0.950 . S
H894 C902 0.950 . S
H895 C904 0.950 1_565 S
H896 C906 0.950 . S
H897 C908 0.950 . S
H898 C910 0.950 1_545 S
H899 C911 0.950 . S
C900 H892 0.950 . S
C900 C901 1.386 . S
C900 C902 1.391 . S
C901 C900 1.386 . S
C901 C905 1.393 . S
C902 H894 0.950 . S
C902 C900 1.391 . S
C902 C903 1.400 . S
C903 C902 1.400 . S
C903 C904 1.398 . S
C903 C909 1.491 1_545 S
C904 H895 0.950 1_545 S
C904 C903 1.398 . S
C904 C905 1.391 . S
C905 H893 0.950 . S
C905 C901 1.393 . S
C905 C904 1.391 . S
C906 H896 0.950 . S
C906 C907 1.386 . S
C906 C908 1.391 . S
C907 C906 1.386 . S
C907 C911 1.393 . S
C908 H897 0.950 . S
C908 C906 1.391 . S
C908 C909 1.400 . S
C909 C903 1.491 1_565 S
C909 C908 1.400 . S
C909 C910 1.398 . S
C910 H898 0.950 1_565 S
C910 C909 1.398 . S
C910 C911 1.391 . S
C911 H899 0.950 . S
C911 C907 1.393 . S
C911 C910 1.391 . S
H912 C920 0.950 . S
H913 C925 0.948 1_556 S
H914 C922 0.950 . S
H915 C924 0.950 . S
H916 C926 0.949 . S
H917 C928 0.950 1_556 S
H918 C930 0.950 . S
H919 C931 0.950 . S
C920 H912 0.950 . S
C920 C921 1.386 . S
C920 C922 1.391 . S
C921 C920 1.386 . S
C921 C925 1.392 . S
C922 H914 0.950 . S
C922 C920 1.391 . S
C922 C923 1.400 . S
C923 C922 1.400 . S
C923 C924 1.398 . S
C923 C929 1.491 . S
C924 H915 0.950 . S
C924 C923 1.398 . S
C924 C925 1.394 . S
C925 H913 0.948 1_554 S
C925 C921 1.392 . S
C925 C924 1.394 . S
C926 H916 0.949 . S
C926 C927 1.386 . S
C926 C928 1.391 . S
C927 C926 1.386 . S
C927 C931 1.393 . S
C928 H917 0.950 1_554 S
C928 C926 1.391 . S
C928 C929 1.400 . S
C929 C923 1.491 . S
C929 C928 1.400 . S
C929 C930 1.398 . S
C930 H918 0.950 . S
C930 C929 1.398 . S
C930 C931 1.391 . S
C931 H919 0.950 . S
C931 C927 1.393 . S
C931 C930 1.391 . S
H932 C940 0.950 . S
H933 C945 0.950 . S
H934 C942 0.950 . S
H935 C944 0.950 . S
H936 C946 0.950 . S
H937 C948 0.950 . S
H938 C950 0.950 1_556 S
H939 C951 0.950 1_556 S
C940 H932 0.950 . S
C940 C941 1.388 1_556 S
C940 C942 1.391 . S
C941 C940 1.388 1_554 S
C941 C945 1.401 . S
C942 H934 0.950 . S
C942 C940 1.391 . S
C942 C943 1.400 1_556 S
C943 C942 1.400 1_554 S
C943 C944 1.398 . S
C943 C949 1.491 . S
C944 H935 0.950 . S
C944 C943 1.398 . S
C944 C945 1.391 . S
C945 H933 0.950 . S
C945 C941 1.401 . S
C945 C944 1.391 . S
C946 H936 0.950 . S
C946 C947 1.386 . S
C946 C948 1.391 . S
C947 C946 1.386 . S
C947 C951 1.393 . S
C948 H937 0.950 . S
C948 C946 1.391 . S
C948 C949 1.400 . S
C949 C943 1.491 . S
C949 C948 1.400 . S
C949 C950 1.398 . S
C950 H938 0.950 1_554 S
C950 C949 1.398 . S
C950 C951 1.391 . S
C951 H939 0.950 1_554 S
C951 C947 1.393 . S
C951 C950 1.391 . S
H952 C960 0.950 . S
H953 C965 0.950 . S
H954 C962 0.950 . S
H955 C964 0.950 . S
H956 C966 0.950 . S
H957 C968 0.950 . S
H958 C970 0.950 . S
H959 C971 0.950 . S
C960 H952 0.950 . S
C960 C961 1.386 . S
C960 C962 1.391 . S
C961 C960 1.386 . S
C961 C965 1.393 . S
C962 H954 0.950 . S
C962 C960 1.391 . S
C962 C963 1.400 . S
C963 C962 1.400 . S
C963 C964 1.398 . S
C963 C969 1.491 . S
C964 H955 0.950 . S
C964 C963 1.398 . S
C964 C965 1.391 . S
C965 H953 0.950 . S
C965 C961 1.393 . S
C965 C964 1.391 . S
C966 H956 0.950 . S
C966 C967 1.386 . S
C966 C968 1.391 . S
C967 C966 1.386 . S
C967 C971 1.393 . S
C968 H957 0.950 . S
C968 C966 1.391 . S
C968 C969 1.400 . S
C969 C963 1.491 . S
C969 C968 1.400 . S
C969 C970 1.398 . S
C970 H958 0.950 . S
C970 C969 1.398 . S
C970 C971 1.391 . S
C971 H959 0.950 . S
C971 C967 1.393 . S
C971 C970 1.391 . S
H972 C980 0.950 . S
H973 C985 0.950 . S
H974 C982 0.950 . S
H975 C984 0.950 . S
H976 C986 0.950 . S
H977 C988 0.950 . S
H978 C990 0.950 . S
H979 C991 0.950 . S
C980 H972 0.950 . S
C980 C981 1.386 . S
C980 C982 1.391 . S
C981 C980 1.386 . S
C981 C985 1.393 . S
C982 H974 0.950 . S
C982 C980 1.391 . S
C982 C983 1.400 . S
C983 C982 1.400 . S
C983 C984 1.398 . S
C983 C989 1.491 . S
C984 H975 0.950 . S
C984 C983 1.398 . S
C984 C985 1.391 . S
C985 H973 0.950 . S
C985 C981 1.393 . S
C985 C984 1.391 . S
C986 H976 0.950 . S
C986 C987 1.386 . S
C986 C988 1.391 . S
C987 C986 1.386 . S
C987 C991 1.393 . S
C988 H977 0.950 . S
C988 C986 1.391 . S
C988 C989 1.400 . S
C989 C983 1.491 . S
C989 C988 1.400 . S
C989 C990 1.398 . S
C990 H978 0.950 . S
C990 C989 1.398 . S
C990 C991 1.391 . S
C991 H979 0.950 . S
C991 C987 1.393 . S
C991 C990 1.391 . S
H992 C1000 0.950 1_655 S
H993 C1005 0.950 . S
H994 C1002 0.950 . S
H995 C1004 0.950 . S
H996 C1006 0.950 . S
H997 C1008 0.950 . S
H998 C1010 0.950 . S
H999 C1011 0.950 . S
C1000 H992 0.950 1_455 S
C1000 C1001 1.386 . S
C1000 C1002 1.391 1_455 S
C1001 C1000 1.386 . S
C1001 C1005 1.393 . S
C1002 H994 0.950 . S
C1002 C1000 1.391 1_655 S
C1002 C1003 1.400 1_655 S
C1003 C1002 1.400 1_455 S
C1003 C1004 1.398 . S
C1003 C1009 1.491 . S
C1004 H995 0.950 . S
C1004 C1003 1.398 . S
C1004 C1005 1.391 . S
C1005 H993 0.950 . S
C1005 C1001 1.393 . S
C1005 C1004 1.391 . S
C1006 H996 0.950 . S
C1006 C1007 1.386 1_455 S
C1006 C1008 1.391 . S
C1007 C1006 1.386 1_655 S
C1007 C1011 1.393 . S
C1008 H997 0.950 . S
C1008 C1006 1.391 . S
C1008 C1009 1.400 . S
C1009 C1003 1.491 . S
C1009 C1008 1.400 . S
C1009 C1010 1.398 1_455 S
C1010 H998 0.950 . S
C1010 C1009 1.398 1_655 S
C1010 C1011 1.391 . S
C1011 H999 0.950 . S
C1011 C1007 1.393 . S
C1011 C1010 1.391 . S
H1012 C1020 0.950 . S
H1013 C1025 0.950 . S
H1014 C1022 0.950 . S
H1015 C1024 0.950 . S
H1016 C1026 0.950 . S
H1017 C1028 0.950 . S
H1018 C1030 0.950 . S
H1019 C1031 0.950 . S
C1020 H1012 0.950 . S
C1020 C1021 1.386 1_455 S
C1020 C1022 1.391 . S
C1021 C1020 1.386 1_655 S
C1021 C1025 1.393 . S
C1022 H1014 0.950 . S
C1022 C1020 1.391 . S
C1022 C1023 1.400 . S
C1023 C1022 1.400 . S
C1023 C1024 1.398 1_455 S
C1023 C1029 1.491 . S
C1024 H1015 0.950 . S
C1024 C1023 1.398 1_655 S
C1024 C1025 1.391 . S
C1025 H1013 0.950 . S
C1025 C1021 1.393 . S
C1025 C1024 1.391 . S
C1026 H1016 0.950 . S
C1026 C1027 1.386 1_655 S
C1026 C1028 1.391 . S
C1027 C1026 1.386 1_455 S
C1027 C1031 1.393 . S
C1028 H1017 0.950 . S
C1028 C1026 1.391 . S
C1028 C1029 1.400 1_655 S
C1029 C1023 1.491 . S
C1029 C1028 1.400 1_455 S
C1029 C1030 1.398 . S
C1030 H1018 0.950 . S
C1030 C1029 1.398 . S
C1030 C1031 1.391 . S
C1031 H1019 0.950 . S
C1031 C1027 1.393 . S
C1031 C1030 1.391 . S
H1032 C1040 0.950 . S
H1033 C1045 0.950 1_455 S
H1034 C1042 0.950 . S
H1035 C1044 0.950 . S
H1036 C1046 0.950 . S
H1037 C1048 0.950 . S
H1038 C1050 0.950 . S
H1039 C1051 0.950 . S
C1040 H1032 0.950 . S
C1040 C1041 1.386 . S
C1040 C1042 1.391 . S
C1041 C1040 1.386 . S
C1041 C1045 1.393 . S
C1042 H1034 0.950 . S
C1042 C1040 1.391 . S
C1042 C1043 1.400 . S
C1043 C1042 1.400 . S
C1043 C1044 1.398 1_655 S
C1043 C1049 1.491 . S
C1044 H1035 0.950 . S
C1044 C1043 1.398 1_455 S
C1044 C1045 1.391 1_455 S
C1045 H1033 0.950 1_655 S
C1045 C1041 1.393 . S
C1045 C1044 1.391 1_655 S
C1046 H1036 0.950 . S
C1046 C1047 1.386 . S
C1046 C1048 1.391 . S
C1047 C1046 1.386 . S
C1047 C1051 1.393 1_455 S
C1048 H1037 0.950 . S
C1048 C1046 1.391 . S
C1048 C1049 1.400 1_455 S
C1049 C1043 1.491 . S
C1049 C1048 1.400 1_655 S
C1049 C1050 1.398 . S
C1050 H1038 0.950 . S
C1050 C1049 1.398 . S
C1050 C1051 1.391 . S
C1051 H1039 0.950 . S
C1051 C1047 1.393 1_655 S
C1051 C1050 1.391 . S
H1052 C1060 0.950 . S
H1053 C1065 0.950 . S
H1054 C1062 0.950 . S
H1055 C1064 0.950 . S
H1056 C1066 0.950 . S
H1057 C1068 0.950 . S
H1058 C1070 0.950 . S
H1059 C1071 0.950 . S
C1060 H1052 0.950 . S
C1060 C1061 1.386 1_455 S
C1060 C1062 1.391 . S
C1061 C1060 1.386 1_655 S
C1061 C1065 1.393 . S
C1062 H1054 0.950 . S
C1062 C1060 1.391 . S
C1062 C1063 1.400 1_455 S
C1063 C1062 1.400 1_655 S
C1063 C1064 1.398 . S
C1063 C1069 1.491 . S
C1064 H1055 0.950 . S
C1064 C1063 1.398 . S
C1064 C1065 1.391 . S
C1065 H1053 0.950 . S
C1065 C1061 1.393 . S
C1065 C1064 1.391 . S
C1066 H1056 0.950 . S
C1066 C1067 1.386 1_655 S
C1066 C1068 1.391 . S
C1067 C1066 1.386 1_455 S
C1067 C1071 1.393 . S
C1068 H1057 0.950 . S
C1068 C1066 1.391 . S
C1068 C1069 1.400 . S
C1069 C1063 1.491 . S
C1069 C1068 1.400 . S
C1069 C1070 1.398 1_655 S
C1070 H1058 0.950 . S
C1070 C1069 1.398 1_455 S
C1070 C1071 1.391 . S
C1071 H1059 0.950 . S
C1071 C1067 1.393 . S
C1071 C1070 1.391 . S
H1072 C1080 0.950 . S
H1073 C1085 0.950 . S
H1074 C1082 0.950 . S
H1075 C1084 0.950 . S
H1076 C1086 0.950 . S
H1077 C1088 0.950 . S
H1078 C1090 0.950 . S
H1079 C1091 0.950 . S
C1080 H1072 0.950 . S
C1080 C1081 1.386 . S
C1080 C1082 1.391 . S
C1081 C1080 1.386 . S
C1081 C1085 1.393 . S
C1082 H1074 0.950 . S
C1082 C1080 1.391 . S
C1082 C1083 1.400 . S
C1083 C1082 1.400 . S
C1083 C1084 1.398 . S
C1083 C1089 1.491 . S
C1084 H1075 0.950 . S
C1084 C1083 1.398 . S
C1084 C1085 1.391 . S
C1085 H1073 0.950 . S
C1085 C1081 1.393 . S
C1085 C1084 1.391 . S
C1086 H1076 0.950 . S
C1086 C1087 1.386 . S
C1086 C1088 1.391 . S
C1087 C1086 1.386 . S
C1087 C1091 1.393 . S
C1088 H1077 0.950 . S
C1088 C1086 1.391 . S
C1088 C1089 1.400 . S
C1089 C1083 1.491 . S
C1089 C1088 1.400 . S
C1089 C1090 1.398 . S
C1090 H1078 0.950 . S
C1090 C1089 1.398 . S
C1090 C1091 1.391 . S
C1091 H1079 0.950 . S
C1091 C1087 1.393 . S
C1091 C1090 1.391 . S
H1092 C1100 0.950 . S
H1093 C1105 0.950 . S
H1094 C1102 0.950 . S
H1095 C1104 0.950 . S
H1096 C1106 0.950 . S
H1097 C1108 0.950 . S
H1098 C1110 0.950 . S
H1099 C1111 0.950 . S
C1100 H1092 0.950 . S
C1100 C1101 1.386 . S
C1100 C1102 1.391 . S
C1101 C1100 1.386 . S
C1101 C1105 1.393 . S
C1102 H1094 0.950 . S
C1102 C1100 1.391 . S
C1102 C1103 1.400 . S
C1103 C1102 1.400 . S
C1103 C1104 1.398 . S
C1103 C1109 1.491 . S
C1104 H1095 0.950 . S
C1104 C1103 1.398 . S
C1104 C1105 1.391 . S
C1105 H1093 0.950 . S
C1105 C1101 1.393 . S
C1105 C1104 1.391 . S
C1106 H1096 0.950 . S
C1106 C1107 1.386 . S
C1106 C1108 1.391 . S
C1107 C1106 1.386 . S
C1107 C1111 1.393 . S
C1108 H1097 0.950 . S
C1108 C1106 1.391 . S
C1108 C1109 1.400 . S
C1109 C1103 1.491 . S
C1109 C1108 1.400 . S
C1109 C1110 1.398 . S
C1110 H1098 0.950 . S
C1110 C1109 1.398 . S
C1110 C1111 1.391 . S
C1111 H1099 0.950 . S
C1111 C1107 1.393 . S
C1111 C1110 1.391 . S
H1112 C1120 0.950 . S
H1113 C1125 0.950 . S
H1114 C1122 0.950 . S
H1115 C1124 0.950 . S
H1116 C1126 0.950 . S
H1117 C1128 0.950 . S
H1118 C1130 0.950 . S
H1119 C1131 0.950 . S
C1120 H1112 0.950 . S
C1120 C1121 1.386 . S
C1120 C1122 1.391 . S
C1121 C1120 1.386 . S
C1121 C1125 1.393 . S
C1122 H1114 0.950 . S
C1122 C1120 1.391 . S
C1122 C1123 1.400 . S
C1123 C1122 1.400 . S
C1123 C1124 1.398 . S
C1123 C1129 1.491 . S
C1124 H1115 0.950 . S
C1124 C1123 1.398 . S
C1124 C1125 1.391 . S
C1125 H1113 0.950 . S
C1125 C1121 1.393 . S
C1125 C1124 1.391 . S
C1126 H1116 0.950 . S
C1126 C1127 1.386 . S
C1126 C1128 1.391 . S
C1127 C1126 1.386 . S
C1127 C1131 1.393 . S
C1128 H1117 0.950 . S
C1128 C1126 1.391 . S
C1128 C1129 1.400 . S
C1129 C1123 1.491 . S
C1129 C1128 1.400 . S
C1129 C1130 1.398 . S
C1130 H1118 0.950 . S
C1130 C1129 1.398 . S
C1130 C1131 1.391 . S
C1131 H1119 0.950 . S
C1131 C1127 1.393 . S
C1131 C1130 1.391 . S
H1132 C1140 0.950 . S
H1133 C1145 0.950 . S
H1134 C1142 0.950 . S
H1135 C1144 0.950 . S
H1136 C1146 0.950 . S
H1137 C1148 0.950 . S
H1138 C1150 0.950 . S
H1139 C1151 0.950 . S
C1140 H1132 0.950 . S
C1140 C1141 1.386 . S
C1140 C1142 1.391 . S
C1141 C1140 1.386 . S
C1141 C1145 1.393 . S
C1142 H1134 0.950 . S
C1142 C1140 1.391 . S
C1142 C1143 1.400 . S
C1143 C1142 1.400 . S
C1143 C1144 1.398 . S
C1143 C1149 1.491 . S
C1144 H1135 0.950 . S
C1144 C1143 1.398 . S
C1144 C1145 1.391 . S
C1145 H1133 0.950 . S
C1145 C1141 1.393 . S
C1145 C1144 1.391 . S
C1146 H1136 0.950 . S
C1146 C1147 1.386 . S
C1146 C1148 1.391 . S
C1147 C1146 1.386 . S
C1147 C1151 1.393 . S
C1148 H1137 0.950 . S
C1148 C1146 1.391 . S
C1148 C1149 1.400 . S
C1149 C1143 1.491 . S
C1149 C1148 1.400 . S
C1149 C1150 1.398 . S
C1150 H1138 0.950 . S
C1150 C1149 1.398 . S
C1150 C1151 1.391 . S
C1151 H1139 0.950 . S
C1151 C1147 1.393 . S
C1151 C1150 1.391 . S
C681 C67 2.077 . S
C687 C56 2.077 1_556 S
C701 C151 2.090 . S
C707 C140 2.090 1_556 S
C721 C224 2.079 . S
C727 C235 2.079 . S
C741 C308 2.074 . S
C747 C319 2.074 . S
C761 C403 2.083 . S
C767 C392 2.083 1_556 S
C781 C476 2.079 . S
C787 C487 2.079 . S
C801 C560 2.091 . S
C807 C571 2.091 . S
C821 C655 2.088 . S
C827 C644 2.088 . S
C841 C154 1.803 1_554 S
C847 C58 1.803 . S
C861 C322 1.787 . S
C867 C226 1.787 . S
C881 C394 1.782 . S
C887 C490 1.782 1_554 S
C901 C562 1.810 . S
C907 C658 1.810 . S
C921 C70 1.413 1_554 S
C927 C478 1.413 . S
C941 C406 1.368 1_554 S
C947 C142 1.383 . S
C961 C238 1.410 . S
C967 C646 1.410 . S
C981 C310 1.396 . S
C987 C574 1.396 . S
C1001 C74 1.504 . S
C1007 C326 1.599 . S
C1021 C158 1.594 . S
C1027 C242 1.503 . S
C1041 C147 1.519 . S
C1047 C231 1.593 . S
C1061 C315 1.508 . S
C1067 C63 1.592 . S
C1081 C410 1.498 . S
C1087 C662 1.596 . S
C1101 C494 1.596 . S
C1107 C578 1.499 . S
C1121 C483 1.502 . S
C1127 C567 1.593 . S
C1141 C651 1.518 . S
C1147 C399 1.589 . S
