# Generated by pormake.
# Topology ull, (4)-cn, num edge types: 1
# Building blocks:
#     Node 0, Type 0, BuildingBlock: KUFVIS_clean_sbu_0, # of connection points: 4
#     Node 1, Type 0, BuildingBlock: KUFVIS_clean_sbu_0, # of connection points: 4
#     Node 2, Type 0, BuildingBlock: KUFVIS_clean_sbu_0, # of connection points: 4
#     Node 3, Type 0, BuildingBlock: KUFVIS_clean_sbu_0, # of connection points: 4
#     Node 4, Type 0, BuildingBlock: KUFVIS_clean_sbu_0, # of connection points: 4
#     Node 5, Type 0, BuildingBlock: KUFVIS_clean_sbu_0, # of connection points: 4
#     Node 6, Type 0, BuildingBlock: KUFVIS_clean_sbu_0, # of connection points: 4
#     Node 7, Type 0, BuildingBlock: KUFVIS_clean_sbu_0, # of connection points: 4
#     Node 8, Type 0, BuildingBlock: KUFVIS_clean_sbu_0, # of connection points: 4
#     Node 9, Type 0, BuildingBlock: KUFVIS_clean_sbu_0, # of connection points: 4
#     Node 10, Type 0, BuildingBlock: KUFVIS_clean_sbu_0, # of connection points: 4
#     Node 11, Type 0, BuildingBlock: KUFVIS_clean_sbu_0, # of connection points: 4
#     Node 12, Type 0, BuildingBlock: KUFVIS_clean_sbu_0, # of connection points: 4
#     Node 13, Type 0, BuildingBlock: KUFVIS_clean_sbu_0, # of connection points: 4
#     Node 14, Type 0, BuildingBlock: KUFVIS_clean_sbu_0, # of connection points: 4
#     Node 15, Type 0, BuildingBlock: KUFVIS_clean_sbu_0, # of connection points: 4
#     Node 16, Type 0, BuildingBlock: KUFVIS_clean_sbu_0, # of connection points: 4
#     Node 17, Type 0, BuildingBlock: KUFVIS_clean_sbu_0, # of connection points: 4
#     Node 18, Type 0, BuildingBlock: KUFVIS_clean_sbu_0, # of connection points: 4
#     Node 19, Type 0, BuildingBlock: KUFVIS_clean_sbu_0, # of connection points: 4
#     Node 20, Type 0, BuildingBlock: KUFVIS_clean_sbu_0, # of connection points: 4
#     Node 21, Type 0, BuildingBlock: KUFVIS_clean_sbu_0, # of connection points: 4
#     Node 22, Type 0, BuildingBlock: KUFVIS_clean_sbu_0, # of connection points: 4
#     Node 23, Type 0, BuildingBlock: KUFVIS_clean_sbu_0, # of connection points: 4
#     Node 24, Type 0, BuildingBlock: KUFVIS_clean_sbu_0, # of connection points: 4
#     Node 25, Type 0, BuildingBlock: KUFVIS_clean_sbu_0, # of connection points: 4
#     Node 26, Type 0, BuildingBlock: KUFVIS_clean_sbu_0, # of connection points: 4
#     Node 27, Type 0, BuildingBlock: KUFVIS_clean_sbu_0, # of connection points: 4
#     Node 28, Type 0, BuildingBlock: KUFVIS_clean_sbu_0, # of connection points: 4
#     Node 29, Type 0, BuildingBlock: KUFVIS_clean_sbu_0, # of connection points: 4
#     Node 30, Type 0, BuildingBlock: KUFVIS_clean_sbu_0, # of connection points: 4
#     Node 31, Type 0, BuildingBlock: KUFVIS_clean_sbu_0, # of connection points: 4
#     Node 32, Type 0, BuildingBlock: KUFVIS_clean_sbu_0, # of connection points: 4
#     Node 33, Type 0, BuildingBlock: KUFVIS_clean_sbu_0, # of connection points: 4
#     Node 34, Type 0, BuildingBlock: KUFVIS_clean_sbu_0, # of connection points: 4
#     Node 35, Type 0, BuildingBlock: KUFVIS_clean_sbu_0, # of connection points: 4
#     Node 36, Type 0, BuildingBlock: KUFVIS_clean_sbu_0, # of connection points: 4
#     Node 37, Type 0, BuildingBlock: KUFVIS_clean_sbu_0, # of connection points: 4
#     Node 38, Type 0, BuildingBlock: KUFVIS_clean_sbu_0, # of connection points: 4
#     Node 39, Type 0, BuildingBlock: KUFVIS_clean_sbu_0, # of connection points: 4
#     Node 40, Type 0, BuildingBlock: KUFVIS_clean_sbu_0, # of connection points: 4
#     Node 41, Type 0, BuildingBlock: KUFVIS_clean_sbu_0, # of connection points: 4
#     Node 42, Type 0, BuildingBlock: KUFVIS_clean_sbu_0, # of connection points: 4
#     Node 43, Type 0, BuildingBlock: KUFVIS_clean_sbu_0, # of connection points: 4
#     Node 44, Type 0, BuildingBlock: KUFVIS_clean_sbu_0, # of connection points: 4
#     Node 45, Type 0, BuildingBlock: KUFVIS_clean_sbu_0, # of connection points: 4
#     Node 46, Type 0, BuildingBlock: KUFVIS_clean_sbu_0, # of connection points: 4
#     Node 47, Type 0, BuildingBlock: KUFVIS_clean_sbu_0, # of connection points: 4
#     Edge 48, Type (0, 0), BuildingBlock: XIVTED_clean_linker_0, # of connection points: 2
#     Edge 49, Type (0, 0), BuildingBlock: XIVTED_clean_linker_0, # of connection points: 2
#     Edge 50, Type (0, 0), BuildingBlock: XIVTED_clean_linker_0, # of connection points: 2
#     Edge 51, Type (0, 0), BuildingBlock: XIVTED_clean_linker_0, # of connection points: 2
#     Edge 52, Type (0, 0), BuildingBlock: XIVTED_clean_linker_0, # of connection points: 2
#     Edge 53, Type (0, 0), BuildingBlock: XIVTED_clean_linker_0, # of connection points: 2
#     Edge 54, Type (0, 0), BuildingBlock: XIVTED_clean_linker_0, # of connection points: 2
#     Edge 55, Type (0, 0), BuildingBlock: XIVTED_clean_linker_0, # of connection points: 2
#     Edge 56, Type (0, 0), BuildingBlock: XIVTED_clean_linker_0, # of connection points: 2
#     Edge 57, Type (0, 0), BuildingBlock: XIVTED_clean_linker_0, # of connection points: 2
#     Edge 58, Type (0, 0), BuildingBlock: XIVTED_clean_linker_0, # of connection points: 2
#     Edge 59, Type (0, 0), BuildingBlock: XIVTED_clean_linker_0, # of connection points: 2
#     Edge 60, Type (0, 0), BuildingBlock: XIVTED_clean_linker_0, # of connection points: 2
#     Edge 61, Type (0, 0), BuildingBlock: XIVTED_clean_linker_0, # of connection points: 2
#     Edge 62, Type (0, 0), BuildingBlock: XIVTED_clean_linker_0, # of connection points: 2
#     Edge 63, Type (0, 0), BuildingBlock: XIVTED_clean_linker_0, # of connection points: 2
#     Edge 64, Type (0, 0), BuildingBlock: XIVTED_clean_linker_0, # of connection points: 2
#     Edge 65, Type (0, 0), BuildingBlock: XIVTED_clean_linker_0, # of connection points: 2
#     Edge 66, Type (0, 0), BuildingBlock: XIVTED_clean_linker_0, # of connection points: 2
#     Edge 67, Type (0, 0), BuildingBlock: XIVTED_clean_linker_0, # of connection points: 2
#     Edge 68, Type (0, 0), BuildingBlock: XIVTED_clean_linker_0, # of connection points: 2
#     Edge 69, Type (0, 0), BuildingBlock: XIVTED_clean_linker_0, # of connection points: 2
#     Edge 70, Type (0, 0), BuildingBlock: XIVTED_clean_linker_0, # of connection points: 2
#     Edge 71, Type (0, 0), BuildingBlock: XIVTED_clean_linker_0, # of connection points: 2
#     Edge 72, Type (0, 0), BuildingBlock: XIVTED_clean_linker_0, # of connection points: 2
#     Edge 73, Type (0, 0), BuildingBlock: XIVTED_clean_linker_0, # of connection points: 2
#     Edge 74, Type (0, 0), BuildingBlock: XIVTED_clean_linker_0, # of connection points: 2
#     Edge 75, Type (0, 0), BuildingBlock: XIVTED_clean_linker_0, # of connection points: 2
#     Edge 76, Type (0, 0), BuildingBlock: XIVTED_clean_linker_0, # of connection points: 2
#     Edge 77, Type (0, 0), BuildingBlock: XIVTED_clean_linker_0, # of connection points: 2
#     Edge 78, Type (0, 0), BuildingBlock: XIVTED_clean_linker_0, # of connection points: 2
#     Edge 79, Type (0, 0), BuildingBlock: XIVTED_clean_linker_0, # of connection points: 2
#     Edge 80, Type (0, 0), BuildingBlock: XIVTED_clean_linker_0, # of connection points: 2
#     Edge 81, Type (0, 0), BuildingBlock: XIVTED_clean_linker_0, # of connection points: 2
#     Edge 82, Type (0, 0), BuildingBlock: XIVTED_clean_linker_0, # of connection points: 2
#     Edge 83, Type (0, 0), BuildingBlock: XIVTED_clean_linker_0, # of connection points: 2
#     Edge 84, Type (0, 0), BuildingBlock: XIVTED_clean_linker_0, # of connection points: 2
#     Edge 85, Type (0, 0), BuildingBlock: XIVTED_clean_linker_0, # of connection points: 2
#     Edge 86, Type (0, 0), BuildingBlock: XIVTED_clean_linker_0, # of connection points: 2
#     Edge 87, Type (0, 0), BuildingBlock: XIVTED_clean_linker_0, # of connection points: 2
#     Edge 88, Type (0, 0), BuildingBlock: XIVTED_clean_linker_0, # of connection points: 2
#     Edge 89, Type (0, 0), BuildingBlock: XIVTED_clean_linker_0, # of connection points: 2
#     Edge 90, Type (0, 0), BuildingBlock: XIVTED_clean_linker_0, # of connection points: 2
#     Edge 91, Type (0, 0), BuildingBlock: XIVTED_clean_linker_0, # of connection points: 2
#     Edge 92, Type (0, 0), BuildingBlock: XIVTED_clean_linker_0, # of connection points: 2
#     Edge 93, Type (0, 0), BuildingBlock: XIVTED_clean_linker_0, # of connection points: 2
#     Edge 94, Type (0, 0), BuildingBlock: XIVTED_clean_linker_0, # of connection points: 2
#     Edge 95, Type (0, 0), BuildingBlock: XIVTED_clean_linker_0, # of connection points: 2
#     Edge 96, Type (0, 0), BuildingBlock: XIVTED_clean_linker_0, # of connection points: 2
#     Edge 97, Type (0, 0), BuildingBlock: XIVTED_clean_linker_0, # of connection points: 2
#     Edge 98, Type (0, 0), BuildingBlock: XIVTED_clean_linker_0, # of connection points: 2
#     Edge 99, Type (0, 0), BuildingBlock: XIVTED_clean_linker_0, # of connection points: 2
#     Edge 100, Type (0, 0), BuildingBlock: XIVTED_clean_linker_0, # of connection points: 2
#     Edge 101, Type (0, 0), BuildingBlock: XIVTED_clean_linker_0, # of connection points: 2
#     Edge 102, Type (0, 0), BuildingBlock: XIVTED_clean_linker_0, # of connection points: 2
#     Edge 103, Type (0, 0), BuildingBlock: XIVTED_clean_linker_0, # of connection points: 2
#     Edge 104, Type (0, 0), BuildingBlock: XIVTED_clean_linker_0, # of connection points: 2
#     Edge 105, Type (0, 0), BuildingBlock: XIVTED_clean_linker_0, # of connection points: 2
#     Edge 106, Type (0, 0), BuildingBlock: XIVTED_clean_linker_0, # of connection points: 2
#     Edge 107, Type (0, 0), BuildingBlock: XIVTED_clean_linker_0, # of connection points: 2
#     Edge 108, Type (0, 0), BuildingBlock: XIVTED_clean_linker_0, # of connection points: 2
#     Edge 109, Type (0, 0), BuildingBlock: XIVTED_clean_linker_0, # of connection points: 2
#     Edge 110, Type (0, 0), BuildingBlock: XIVTED_clean_linker_0, # of connection points: 2
#     Edge 111, Type (0, 0), BuildingBlock: XIVTED_clean_linker_0, # of connection points: 2
#     Edge 112, Type (0, 0), BuildingBlock: XIVTED_clean_linker_0, # of connection points: 2
#     Edge 113, Type (0, 0), BuildingBlock: XIVTED_clean_linker_0, # of connection points: 2
#     Edge 114, Type (0, 0), BuildingBlock: XIVTED_clean_linker_0, # of connection points: 2
#     Edge 115, Type (0, 0), BuildingBlock: XIVTED_clean_linker_0, # of connection points: 2
#     Edge 116, Type (0, 0), BuildingBlock: XIVTED_clean_linker_0, # of connection points: 2
#     Edge 117, Type (0, 0), BuildingBlock: XIVTED_clean_linker_0, # of connection points: 2
#     Edge 118, Type (0, 0), BuildingBlock: XIVTED_clean_linker_0, # of connection points: 2
#     Edge 119, Type (0, 0), BuildingBlock: XIVTED_clean_linker_0, # of connection points: 2
#     Edge 120, Type (0, 0), BuildingBlock: XIVTED_clean_linker_0, # of connection points: 2
#     Edge 121, Type (0, 0), BuildingBlock: XIVTED_clean_linker_0, # of connection points: 2
#     Edge 122, Type (0, 0), BuildingBlock: XIVTED_clean_linker_0, # of connection points: 2
#     Edge 123, Type (0, 0), BuildingBlock: XIVTED_clean_linker_0, # of connection points: 2
#     Edge 124, Type (0, 0), BuildingBlock: XIVTED_clean_linker_0, # of connection points: 2
#     Edge 125, Type (0, 0), BuildingBlock: XIVTED_clean_linker_0, # of connection points: 2
#     Edge 126, Type (0, 0), BuildingBlock: XIVTED_clean_linker_0, # of connection points: 2
#     Edge 127, Type (0, 0), BuildingBlock: XIVTED_clean_linker_0, # of connection points: 2
#     Edge 128, Type (0, 0), BuildingBlock: XIVTED_clean_linker_0, # of connection points: 2
#     Edge 129, Type (0, 0), BuildingBlock: XIVTED_clean_linker_0, # of connection points: 2
#     Edge 130, Type (0, 0), BuildingBlock: XIVTED_clean_linker_0, # of connection points: 2
#     Edge 131, Type (0, 0), BuildingBlock: XIVTED_clean_linker_0, # of connection points: 2
#     Edge 132, Type (0, 0), BuildingBlock: XIVTED_clean_linker_0, # of connection points: 2
#     Edge 133, Type (0, 0), BuildingBlock: XIVTED_clean_linker_0, # of connection points: 2
#     Edge 134, Type (0, 0), BuildingBlock: XIVTED_clean_linker_0, # of connection points: 2
#     Edge 135, Type (0, 0), BuildingBlock: XIVTED_clean_linker_0, # of connection points: 2
#     Edge 136, Type (0, 0), BuildingBlock: XIVTED_clean_linker_0, # of connection points: 2
#     Edge 137, Type (0, 0), BuildingBlock: XIVTED_clean_linker_0, # of connection points: 2
#     Edge 138, Type (0, 0), BuildingBlock: XIVTED_clean_linker_0, # of connection points: 2
#     Edge 139, Type (0, 0), BuildingBlock: XIVTED_clean_linker_0, # of connection points: 2
#     Edge 140, Type (0, 0), BuildingBlock: XIVTED_clean_linker_0, # of connection points: 2
#     Edge 141, Type (0, 0), BuildingBlock: XIVTED_clean_linker_0, # of connection points: 2
#     Edge 142, Type (0, 0), BuildingBlock: XIVTED_clean_linker_0, # of connection points: 2
#     Edge 143, Type (0, 0), BuildingBlock: XIVTED_clean_linker_0, # of connection points: 2
# Relax obj value: 0.046
# Max RMSD: 0.119
# Mean RMSD: 0.119
data_MOF--net-ull--node1-KUFVIS_clean_sbu_0--edge1-XIVTED_clean_linker_0
_symmetry_space_group_name_H-M    P1
_symmetry_Int_Tables_number       1
_symmetry_cell_setting            triclinic
loop_
_symmetry_equiv_pos_as_xyz
'x, y, z'
_cell_length_a     61.156407
_cell_length_b     61.14619
_cell_length_c     61.147146
_cell_angle_alpha  89.981498
_cell_angle_beta   90.00654
_cell_angle_gamma 89.99949
loop_
_atom_site_label
_atom_site_type_symbol
_atom_site_fract_x
_atom_site_fract_y
_atom_site_fract_z
_atom_type_partial_charge
Mn0 Mn 0.02463 0.34556 0.17838 0.0
Mn1 Mn 0.01621 0.29986 0.14874 0.0
C2 C 0.01184 0.31404 0.19499 0.0
C3 C 0.04735 0.36766 0.19948 0.0
C4 C 0.984 0.33708 0.15013 0.0
O5 O 0.04175 0.35224 0.15063 0.0
O6 O 0.03309 0.32182 0.13184 0.0
C7 C 0.06255 0.28588 0.14729 0.0
N8 N 0.0413 0.2816 0.15239 0.0
C9 C 0.05043 0.24538 0.16471 0.0
C10 C 0.0724 0.24935 0.15949 0.0
C11 C 0.07849 0.26974 0.15083 0.0
C12 C 0.03531 0.26217 0.16104 0.0
H13 H 0.06732 0.30149 0.14054 0.0
C14 C 0.04228 0.34055 0.13341 0.0
O15 O 0.03004 0.37558 0.19003 0.0
O16 O 0.05167 0.34719 0.19614 0.0
N17 N 0.00025 0.27688 0.16264 0.0
C18 C 0.97834 0.27555 0.16645 0.0
C19 C 0.96954 0.25624 0.17517 0.0
C20 C 0.98326 0.23834 0.17938 0.0
C21 C 0.00568 0.23987 0.17477 0.0
C22 C 0.01353 0.25959 0.16623 0.0
H23 H 0.96769 0.28915 0.16293 0.0
O24 O 0.00871 0.333 0.20394 0.0
O25 O 0.02267 0.31395 0.17669 0.0
O26 O 0.99557 0.34999 0.16179 0.0
O27 O 0.98974 0.3177 0.14489 0.0
C28 C 0.02053 0.22257 0.17807 0.0
C29 C 0.0429 0.22537 0.17328 0.0
H30 H 0.08471 0.23688 0.16207 0.0
H31 H 0.09542 0.27296 0.1468 0.0
H32 H 0.9522 0.25512 0.17851 0.0
H33 H 0.97631 0.2235 0.18597 0.0
H34 H 0.01492 0.20695 0.18407 0.0
H35 H 0.05415 0.21197 0.17607 0.0
Mn36 Mn 0.65578 0.02561 0.17964 0.0
Mn37 Mn 0.70708 0.03188 0.16054 0.0
C38 C 0.68506 0.01176 0.19937 0.0
C39 C 0.62657 0.03913 0.19963 0.0
C40 C 0.67465 0.999 0.14209 0.0
O41 O 0.65247 0.04937 0.15625 0.0
O42 O 0.68798 0.0548 0.14793 0.0
C43 C 0.71767 0.07413 0.18164 0.0
N44 N 0.72249 0.0527 0.178 0.0
C45 C 0.75387 0.05462 0.20163 0.0
C46 C 0.74948 0.07681 0.20533 0.0
C47 C 0.73127 0.0866 0.19531 0.0
C48 C 0.73994 0.0431 0.18755 0.0
H49 H 0.70345 0.08159 0.17435 0.0
C50 C 0.66768 0.05968 0.14633 0.0
O51 O 0.62351 0.02482 0.18423 0.0
O52 O 0.64636 0.04592 0.20298 0.0
N53 N 0.72738 0.01086 0.17165 0.0
C54 C 0.72851 0.98899 0.16752 0.0
C55 C 0.74539 0.97658 0.17693 0.0
C56 C 0.76086 0.98678 0.19049 0.0
C57 C 0.75946 0.00936 0.19426 0.0
C58 C 0.74261 0.02097 0.18406 0.0
H59 H 0.71656 0.98102 0.15726 0.0
O60 O 0.66548 0.00429 0.20269 0.0
O61 O 0.68678 0.0271 0.18479 0.0
O62 O 0.65939 0.00245 0.15586 0.0
O63 O 0.69261 0.00973 0.14191 0.0
C64 C 0.77356 0.02063 0.2085 0.0
C65 C 0.77094 0.04324 0.21208 0.0
H66 H 0.75974 0.08639 0.21613 0.0
H67 H 0.7276 0.10365 0.1983 0.0
H68 H 0.74631 0.95916 0.17396 0.0
H69 H 0.77352 0.97707 0.19816 0.0
H70 H 0.78581 0.01181 0.21753 0.0
H71 H 0.78173 0.05156 0.22339 0.0
Mn72 Mn 0.97873 0.65082 0.17858 0.0
Mn73 Mn 0.98342 0.70162 0.15758 0.0
C74 C 0.98862 0.67972 0.20099 0.0
C75 C 0.95698 0.62409 0.19473 0.0
C76 C 0.01865 0.66729 0.15281 0.0
O77 O 0.9626 0.64782 0.14957 0.0
O78 O 0.96821 0.68184 0.13682 0.0
C79 C 0.93603 0.71155 0.15854 0.0
N80 N 0.95689 0.71669 0.16442 0.0
C81 C 0.94444 0.74726 0.18579 0.0
C82 C 0.92285 0.7424 0.17983 0.0
C83 C 0.91863 0.72448 0.16611 0.0
C84 C 0.96114 0.73396 0.1775 0.0
H85 H 0.93263 0.6976 0.14827 0.0
C86 C 0.96075 0.66239 0.1348 0.0
O87 O 0.97513 0.61883 0.18498 0.0
O88 O 0.95153 0.64454 0.19469 0.0
N89 N 0.99751 0.72293 0.17556 0.0
C90 C 0.01926 0.72563 0.17949 0.0
C91 C 0.0263 0.74299 0.19272 0.0
C92 C 0.01088 0.75736 0.20177 0.0
C93 C 0.98864 0.75472 0.19686 0.0
C94 C 0.98268 0.73748 0.18308 0.0
H95 H 0.03108 0.7144 0.1729 0.0
O96 O 0.99314 0.65978 0.20653 0.0
O97 O 0.97829 0.68221 0.18253 0.0
O98 O 0.00823 0.65171 0.16216 0.0
O99 O 0.01126 0.68678 0.15082 0.0
C100 C 0.97207 0.76796 0.20578 0.0
C101 C 0.95001 0.76439 0.20013 0.0
H102 H 0.90937 0.75219 0.18586 0.0
H103 H 0.902 0.72053 0.16153 0.0
H104 H 0.0435 0.74497 0.19638 0.0
H105 H 0.01628 0.77 0.21286 0.0
H106 H 0.97606 0.7805 0.21748 0.0
H107 H 0.93745 0.77469 0.20719 0.0
Mn108 Mn 0.34252 0.97005 0.18003 0.0
Mn109 Mn 0.293 0.9661 0.1565 0.0
C110 C 0.31216 0.98382 0.19799 0.0
C111 C 0.36874 0.95278 0.20154 0.0
C112 C 0.3281 0.9986 0.14224 0.0
O113 O 0.34721 0.94811 0.15525 0.0
O114 O 0.31218 0.94263 0.14505 0.0
C115 C 0.27881 0.92388 0.1754 0.0
N116 N 0.27526 0.9456 0.17202 0.0
C117 C 0.24198 0.9445 0.19292 0.0
C118 C 0.24508 0.92204 0.19633 0.0
C119 C 0.26361 0.91169 0.18755 0.0
C120 C 0.25753 0.95574 0.1804 0.0
H121 H 0.29322 0.91596 0.16905 0.0
C122 C 0.33257 0.938 0.14434 0.0
O123 O 0.37421 0.96856 0.18835 0.0
O124 O 0.34835 0.94717 0.20195 0.0
N125 N 0.27273 0.98775 0.16642 0.0
C126 C 0.27286 0.00974 0.16281 0.0
C127 C 0.2558 0.02265 0.17115 0.0
C128 C 0.23883 0.01283 0.1831 0.0
C129 C 0.23895 0.99013 0.18639 0.0
C130 C 0.25612 0.97805 0.17733 0.0
H131 H 0.28593 0.0174 0.15375 0.0
O132 O 0.33161 0.99 0.20372 0.0
O133 O 0.31126 0.96953 0.18234 0.0
O134 O 0.34175 0.99504 0.15767 0.0
O135 O 0.31022 0.98794 0.13989 0.0
C136 C 0.22313 0.97911 0.19896 0.0
C137 C 0.22454 0.95634 0.20216 0.0
H138 H 0.23354 0.91266 0.20595 0.0
H139 H 0.26627 0.89442 0.19032 0.0
H140 H 0.25585 0.04016 0.16856 0.0
H141 H 0.22596 0.0229 0.18989 0.0
H142 H 0.21025 0.9881 0.20685 0.0
H143 H 0.21242 0.94819 0.21219 0.0
Mn144 Mn 0.0207 0.6606 0.81694 0.0
Mn145 Mn 0.01106 0.70593 0.84678 0.0
C146 C 0.00878 0.6924 0.80014 0.0
C147 C 0.04422 0.63838 0.79692 0.0
C148 C 0.97905 0.66862 0.84372 0.0
O149 O 0.03661 0.65362 0.84529 0.0
O150 O 0.02756 0.68394 0.86406 0.0
C151 C 0.05716 0.72038 0.85017 0.0
N152 N 0.03605 0.72453 0.84439 0.0
C153 C 0.04506 0.76124 0.83354 0.0
C154 C 0.06688 0.75742 0.83948 0.0
C155 C 0.07297 0.73686 0.84773 0.0
C156 C 0.03008 0.74413 0.83614 0.0
H157 H 0.0619 0.70465 0.85662 0.0
C158 C 0.03674 0.66518 0.86261 0.0
O159 O 0.02639 0.63064 0.8055 0.0
O160 O 0.04851 0.65887 0.80031 0.0
N161 N 0.99541 0.72888 0.83251 0.0
C162 C 0.97376 0.72982 0.82737 0.0
C163 C 0.96503 0.74917 0.81868 0.0
C164 C 0.97855 0.7675 0.81584 0.0
C165 C 0.00071 0.7663 0.82165 0.0
C166 C 0.0085 0.74651 0.83008 0.0
H167 H 0.96326 0.71588 0.82981 0.0
O168 O 0.00593 0.67355 0.79086 0.0
O169 O 0.01877 0.6922 0.81893 0.0
O170 O 0.99102 0.65597 0.83221 0.0
O171 O 0.98459 0.68788 0.84953 0.0
C172 C 0.01536 0.78395 0.81956 0.0
C173 C 0.03756 0.78137 0.82525 0.0
H174 H 0.07909 0.77014 0.83773 0.0
H175 H 0.08978 0.73376 0.85229 0.0
H176 H 0.9479 0.75001 0.81434 0.0
H177 H 0.97163 0.78236 0.80928 0.0
H178 H 0.00975 0.79964 0.81375 0.0
H179 H 0.04868 0.79502 0.82332 0.0
Mn180 Mn 0.34002 0.02452 0.81846 0.0
Mn181 Mn 0.29129 0.02592 0.84334 0.0
C182 C 0.30947 0.01108 0.80034 0.0
C183 C 0.36549 0.04365 0.79764 0.0
C184 C 0.32844 0.99523 0.85608 0.0
O185 O 0.34422 0.04545 0.84433 0.0
O186 O 0.30893 0.05102 0.85381 0.0
C187 C 0.27208 0.06657 0.82539 0.0
N188 N 0.27106 0.04454 0.8285 0.0
C189 C 0.23708 0.04223 0.80879 0.0
C190 C 0.23767 0.06493 0.80554 0.0
C191 C 0.25525 0.07714 0.81387 0.0
C192 C 0.25416 0.03264 0.82068 0.0
H193 H 0.28571 0.07596 0.83152 0.0
C194 C 0.32935 0.05567 0.8549 0.0
O195 O 0.3715 0.02728 0.80983 0.0
O196 O 0.34494 0.04872 0.7977 0.0
N197 N 0.27297 0.00235 0.83403 0.0
C198 C 0.27564 0.98044 0.8372 0.0
C199 C 0.25988 0.96584 0.82913 0.0
C200 C 0.24159 0.97389 0.81784 0.0
C201 C 0.23917 0.99651 0.8149 0.0
C202 C 0.25518 0.0103 0.82363 0.0
H203 H 0.2897 0.97409 0.84575 0.0
O204 O 0.32892 0.00562 0.79383 0.0
O205 O 0.30881 0.02427 0.81689 0.0
O206 O 0.34059 0.99842 0.83943 0.0
O207 O 0.31082 0.00591 0.85967 0.0
C208 C 0.22192 0.0058 0.80292 0.0
C209 C 0.22072 0.02864 0.79996 0.0
H210 H 0.22488 0.07309 0.79639 0.0
H211 H 0.25592 0.09463 0.81127 0.0
H212 H 0.26192 0.94841 0.83144 0.0
H213 H 0.22963 0.96258 0.8113 0.0
H214 H 0.20999 0.99534 0.79531 0.0
H215 H 0.20749 0.03549 0.79036 0.0
Mn216 Mn 0.98285 0.33916 0.8234 0.0
Mn217 Mn 0.98668 0.28919 0.84636 0.0
C218 C 0.99171 0.30898 0.8022 0.0
C219 C 0.96213 0.36584 0.80581 0.0
C220 C 0.02224 0.32331 0.85021 0.0
O221 O 0.96664 0.3435 0.85225 0.0
O222 O 0.9711 0.30965 0.86613 0.0
C223 C 0.93944 0.27866 0.84537 0.0
N224 N 0.96042 0.27358 0.83985 0.0
C225 C 0.94865 0.2416 0.82025 0.0
C226 C 0.92694 0.24638 0.82585 0.0
C227 C 0.92233 0.26499 0.83849 0.0
C228 C 0.96506 0.25567 0.82781 0.0
H229 H 0.93577 0.29309 0.85485 0.0
C230 C 0.96407 0.32934 0.86737 0.0
O231 O 0.98022 0.3709 0.81577 0.0
O232 O 0.95593 0.34562 0.80675 0.0
N233 N 0.00119 0.26759 0.82905 0.0
C234 C 0.02289 0.2657 0.82436 0.0
C235 C 0.03024 0.24798 0.81175 0.0
C236 C 0.01518 0.23247 0.80402 0.0
C237 C 0.99297 0.23469 0.80927 0.0
C238 C 0.98668 0.25236 0.82232 0.0
H239 H 0.03444 0.27782 0.82984 0.0
O240 O 0.99701 0.32849 0.79583 0.0
O241 O 0.98154 0.30771 0.82082 0.0
O242 O 0.01231 0.33849 0.8398 0.0
O243 O 0.01433 0.30419 0.85314 0.0
C244 C 0.97674 0.22048 0.80142 0.0
C245 C 0.95461 0.22379 0.80695 0.0
H246 H 0.91368 0.236 0.82036 0.0
H247 H 0.9056 0.26888 0.84277 0.0
H248 H 0.0474 0.24646 0.80771 0.0
H249 H 0.02081 0.2191 0.79387 0.0
H250 H 0.98111 0.20742 0.79055 0.0
H251 H 0.94229 0.21279 0.80054 0.0
Mn252 Mn 0.66112 0.97337 0.82956 0.0
Mn253 Mn 0.70768 0.97513 0.85843 0.0
C254 C 0.69211 0.98943 0.81447 0.0
C255 C 0.6385 0.95412 0.80576 0.0
C256 C 0.66781 0.00339 0.86804 0.0
O257 O 0.65619 0.95109 0.85419 0.0
O258 O 0.69059 0.94917 0.86761 0.0
C259 C 0.73064 0.9354 0.843 0.0
N260 N 0.7302 0.95745 0.846 0.0
C261 C 0.76755 0.96094 0.83423 0.0
C262 C 0.76849 0.93823 0.83116 0.0
C263 C 0.74987 0.92543 0.83537 0.0
C264 C 0.74782 0.96998 0.84145 0.0
H265 H 0.71644 0.92554 0.84643 0.0
C266 C 0.67082 0.94234 0.86631 0.0
O267 O 0.6307 0.96939 0.81831 0.0
O268 O 0.6592 0.94989 0.80739 0.0
N269 N 0.72565 0.99951 0.85057 0.0
C270 C 0.7215 0.0213 0.8527 0.0
C271 C 0.73805 0.03648 0.8479 0.0
C272 C 0.7588 0.02908 0.84141 0.0
C273 C 0.76268 0.00657 0.8394 0.0
C274 C 0.74541 0.99226 0.84388 0.0
H275 H 0.70574 0.02707 0.85811 0.0
O276 O 0.67284 0.99392 0.8068 0.0
O277 O 0.69251 0.97557 0.83049 0.0
O278 O 0.65689 0.99872 0.85094 0.0
O279 O 0.68601 0.99434 0.87284 0.0
C280 C 0.78302 0.99777 0.83324 0.0
C281 C 0.78543 0.97497 0.83049 0.0
H282 H 0.78337 0.93047 0.82549 0.0
H283 H 0.75042 0.90791 0.83294 0.0
H284 H 0.73491 0.05382 0.84948 0.0
H285 H 0.77162 0.04082 0.83796 0.0
H286 H 0.79685 0.00842 0.83024 0.0
H287 H 0.80104 0.96843 0.82527 0.0
Mn288 Mn 0.17636 0.02869 0.33501 0.0
Mn289 Mn 0.14998 0.0317 0.28692 0.0
C290 C 0.19248 0.01459 0.30368 0.0
C291 C 0.1998 0.04614 0.35947 0.0
C292 C 0.1389 0.99856 0.32263 0.0
O293 O 0.15189 0.05059 0.34116 0.0
O294 O 0.13889 0.05469 0.30692 0.0
C295 C 0.16675 0.0746 0.27197 0.0
N296 N 0.16346 0.05289 0.26835 0.0
C297 C 0.17837 0.05553 0.23206 0.0
C298 C 0.18156 0.07802 0.23523 0.0
C299 C 0.17592 0.08755 0.25536 0.0
C300 C 0.16947 0.04342 0.24933 0.0
H301 H 0.16249 0.08193 0.28743 0.0
C302 C 0.1396 0.05998 0.32716 0.0
O303 O 0.18698 0.03048 0.36606 0.0
O304 O 0.19854 0.05166 0.3391 0.0
N305 N 0.15914 0.01065 0.26569 0.0
C306 C 0.15624 0.98855 0.26578 0.0
C307 C 0.16148 0.97641 0.24703 0.0
C308 C 0.1693 0.98713 0.22828 0.0
C309 C 0.17233 0.00987 0.22863 0.0
C310 C 0.16696 0.02108 0.24783 0.0
H311 H 0.14976 0.98028 0.27996 0.0
O312 O 0.19926 0.00869 0.32288 0.0
O313 O 0.17693 0.02901 0.30346 0.0
O314 O 0.1543 0.00336 0.33592 0.0
O315 O 0.13547 0.00899 0.30479 0.0
C316 C 0.18029 0.0219 0.21063 0.0
C317 C 0.18365 0.04465 0.21247 0.0
H318 H 0.18849 0.08808 0.2224 0.0
H319 H 0.17855 0.10485 0.25803 0.0
H320 H 0.15918 0.95886 0.24691 0.0
H321 H 0.17291 0.9777 0.21374 0.0
H322 H 0.18404 0.01383 0.19533 0.0
H323 H 0.19025 0.05362 0.19869 0.0
Mn324 Mn 0.97307 0.18357 0.33908 0.0
Mn325 Mn 0.98201 0.1545 0.29308 0.0
C326 C 0.98617 0.20057 0.30786 0.0
C327 C 0.95029 0.20431 0.36144 0.0
C328 C 0.01368 0.15527 0.33079 0.0
O329 O 0.95581 0.15572 0.34519 0.0
O330 O 0.96459 0.13749 0.31446 0.0
C331 C 0.93595 0.15353 0.27815 0.0
N332 N 0.95733 0.15852 0.27435 0.0
C333 C 0.94911 0.17087 0.23793 0.0
C334 C 0.92703 0.16578 0.24139 0.0
C335 C 0.92041 0.15717 0.26164 0.0
C336 C 0.96381 0.16714 0.25508 0.0
H337 H 0.9308 0.14679 0.29363 0.0
C338 C 0.9552 0.13877 0.3331 0.0
O339 O 0.96755 0.19468 0.36923 0.0
O340 O 0.94602 0.20139 0.34087 0.0
N341 N 0.99853 0.16859 0.27061 0.0
C342 C 0.02046 0.17238 0.26984 0.0
C343 C 0.02975 0.1811 0.25075 0.0
C344 C 0.01648 0.18529 0.23249 0.0
C345 C 0.99402 0.18073 0.23348 0.0
C346 C 0.98567 0.17224 0.25301 0.0
H347 H 0.03078 0.16883 0.28368 0.0
O348 O 0.98913 0.20929 0.32695 0.0
O349 O 0.97535 0.18227 0.30746 0.0
O350 O 0.00207 0.16697 0.34361 0.0
O351 O 0.00813 0.15017 0.31133 0.0
C352 C 0.97963 0.18399 0.2158 0.0
C353 C 0.95716 0.17933 0.21808 0.0
H354 H 0.91502 0.16842 0.22864 0.0
H355 H 0.90339 0.15324 0.26447 0.0
H356 H 0.04712 0.18441 0.25004 0.0
H357 H 0.0238 0.19184 0.2178 0.0
H358 H 0.98566 0.18983 0.20029 0.0
H359 H 0.94626 0.18212 0.2044 0.0
Mn360 Mn 0.82408 0.97667 0.3373 0.0
Mn361 Mn 0.85097 0.97741 0.28927 0.0
C362 C 0.80655 0.98924 0.30609 0.0
C363 C 0.80285 0.95728 0.3622 0.0
C364 C 0.85891 0.01021 0.32573 0.0
O365 O 0.85044 0.95707 0.34314 0.0
O366 O 0.8652 0.95637 0.30933 0.0
C367 C 0.84062 0.93274 0.27386 0.0
N368 N 0.84054 0.95475 0.27054 0.0
C369 C 0.82665 0.95042 0.23401 0.0
C370 C 0.82659 0.92767 0.23698 0.0
C371 C 0.83347 0.9188 0.25705 0.0
C372 C 0.83356 0.96347 0.25148 0.0
H373 H 0.84617 0.92591 0.28918 0.0
C374 C 0.86467 0.95051 0.3294 0.0
O375 O 0.81433 0.97407 0.3684 0.0
O376 O 0.80397 0.95181 0.34177 0.0
N377 N 0.83929 0.99719 0.26813 0.0
C378 C 0.83956 0.01946 0.26832 0.0
C379 C 0.8334 0.03097 0.24943 0.0
C380 C 0.82739 0.01946 0.2305 0.0
C381 C 0.82695 0.99651 0.2308 0.0
C382 C 0.83319 0.98596 0.2501 0.0
H383 H 0.8448 0.02835 0.28264 0.0
O384 O 0.79951 0.99454 0.32539 0.0
O385 O 0.82358 0.97652 0.30568 0.0
O386 O 0.84392 0.00376 0.33874 0.0
O387 O 0.86282 0.00132 0.30724 0.0
C388 C 0.82068 0.98368 0.21269 0.0
C389 C 0.82021 0.96067 0.2144 0.0
H390 H 0.82128 0.91687 0.22399 0.0
H391 H 0.83345 0.90127 0.25948 0.0
H392 H 0.83365 0.04867 0.24934 0.0
H393 H 0.823 0.02841 0.21586 0.0
H394 H 0.81591 0.99136 0.19745 0.0
H395 H 0.81496 0.95102 0.20051 0.0
Mn396 Mn 0.02722 0.82105 0.33586 0.0
Mn397 Mn 0.02272 0.84497 0.28658 0.0
C398 C 0.01172 0.80189 0.30681 0.0
C399 C 0.04834 0.80114 0.36053 0.0
C400 C 0.99346 0.85563 0.32537 0.0
O401 O 0.04741 0.84783 0.33834 0.0
O402 O 0.04672 0.85872 0.30317 0.0
C403 C 0.06475 0.83183 0.26656 0.0
N404 N 0.04252 0.83256 0.26592 0.0
C405 C 0.04191 0.81884 0.2291 0.0
C406 C 0.06482 0.8179 0.22931 0.0
C407 C 0.07629 0.82421 0.24821 0.0
C408 C 0.03131 0.82586 0.24812 0.0
H409 H 0.07359 0.8372 0.28088 0.0
C410 C 0.05412 0.85999 0.3227 0.0
O411 O 0.03216 0.8132 0.36719 0.0
O412 O 0.05238 0.80103 0.33972 0.0
N413 N 8e-05 0.83328 0.26853 0.0
C414 C 0.97802 0.83447 0.27135 0.0
C415 C 0.96411 0.82861 0.25406 0.0
C416 C 0.97303 0.82214 0.23392 0.0
C417 C 0.99581 0.8209 0.23145 0.0
C418 C 0.00882 0.82648 0.24941 0.0
H419 H 0.9711 0.84023 0.28654 0.0
O420 O 0.00831 0.79582 0.32685 0.0
O421 O 0.02455 0.81862 0.3044 0.0
O422 O 0.0003 0.84079 0.3383 0.0
O423 O 0.00144 0.85898 0.30636 0.0
C424 C 0.00614 0.81476 0.21178 0.0
C425 C 0.02916 0.81347 0.21069 0.0
H426 H 0.07378 0.81244 0.21504 0.0
H427 H 0.09397 0.82357 0.24849 0.0
H428 H 0.94656 0.82957 0.25609 0.0
H429 H 0.96223 0.81818 0.22045 0.0
H430 H 0.99654 0.81071 0.19746 0.0
H431 H 0.03688 0.80831 0.1956 0.0
Mn432 Mn 0.17524 0.97735 0.66009 0.0
Mn433 Mn 0.14566 0.97509 0.70615 0.0
C434 C 0.1893 0.99199 0.69224 0.0
C435 C 0.20009 0.95998 0.63703 0.0
C436 C 0.13551 0.00537 0.66785 0.0
O437 O 0.15139 0.9548 0.65331 0.0
O438 O 0.13758 0.95001 0.68727 0.0
C439 C 0.16207 0.93447 0.72676 0.0
N440 N 0.15839 0.95641 0.72768 0.0
C441 C 0.16953 0.95785 0.76537 0.0
C442 C 0.17338 0.93525 0.76488 0.0
C443 C 0.16981 0.92354 0.74543 0.0
C444 C 0.16226 0.96791 0.74614 0.0
H445 H 0.15905 0.92541 0.71192 0.0
C446 C 0.13926 0.94473 0.66706 0.0
O447 O 0.18727 0.97528 0.62969 0.0
O448 O 0.19812 0.95471 0.65745 0.0
N449 N 0.15235 0.99849 0.72579 0.0
C450 C 0.14941 0.0204 0.72303 0.0
C451 C 0.15331 0.03461 0.74064 0.0
C452 C 0.15974 0.0261 0.76099 0.0
C453 C 0.1626 0.00348 0.76341 0.0
C454 C 0.15901 0.99019 0.74515 0.0
H455 H 0.144 0.02699 0.70758 0.0
O456 O 0.1971 0.99788 0.67339 0.0
O457 O 0.17375 0.97762 0.69153 0.0
O458 O 0.15298 0.00216 0.65695 0.0
O459 O 0.13093 0.99509 0.68545 0.0
C460 C 0.16873 0.99357 0.78326 0.0
C461 C 0.17247 0.9708 0.78419 0.0
H462 H 0.17912 0.92673 0.77932 0.0
H463 H 0.1728 0.90611 0.7449 0.0
H464 H 0.15108 0.05205 0.73863 0.0
H465 H 0.16248 0.03708 0.77462 0.0
H466 H 0.17102 0.00338 0.79783 0.0
H467 H 0.17773 0.96346 0.79943 0.0
Mn468 Mn 0.01806 0.17652 0.65669 0.0
Mn469 Mn 0.00907 0.14754 0.70276 0.0
C470 C 0.0049 0.19369 0.68789 0.0
C471 C 0.04096 0.1968 0.63407 0.0
C472 C 0.97757 0.14826 0.66481 0.0
O473 O 0.03514 0.14851 0.65063 0.0
O474 O 0.02711 0.1307 0.68179 0.0
C475 C 0.05486 0.1475 0.71851 0.0
N476 N 0.03329 0.15178 0.72201 0.0
C477 C 0.04014 0.16162 0.75945 0.0
C478 C 0.06244 0.15729 0.75629 0.0
C479 C 0.06985 0.15037 0.73567 0.0
C480 C 0.02609 0.15906 0.74157 0.0
H481 H 0.06055 0.14184 0.70278 0.0
C482 C 0.03625 0.13179 0.66302 0.0
O483 O 0.02355 0.18734 0.62644 0.0
O484 O 0.04523 0.1941 0.65468 0.0
N485 N 0.99191 0.16119 0.72499 0.0
C486 C 0.96988 0.16442 0.72532 0.0
C487 C 0.95963 0.17048 0.74491 0.0
C488 C 0.97207 0.17271 0.76406 0.0
C489 C 0.9948 0.16961 0.7633 0.0
C490 C 0.00409 0.16363 0.74327 0.0
H491 H 0.96012 0.16187 0.71086 0.0
O492 O 0.00216 0.20234 0.66872 0.0
O493 O 0.0157 0.17538 0.68842 0.0
O494 O 0.98898 0.16028 0.65216 0.0
O495 O 0.98329 0.14282 0.68412 0.0
C496 C 0.00853 0.17155 0.78174 0.0
C497 C 0.03124 0.16799 0.77971 0.0
H498 H 0.07399 0.15914 0.7696 0.0
H499 H 0.08703 0.14699 0.7331 0.0
H500 H 0.9421 0.17285 0.74539 0.0
H501 H 0.96388 0.17646 0.77928 0.0
H502 H 0.00185 0.17574 0.79759 0.0
H503 H 0.04164 0.16981 0.79394 0.0
Mn504 Mn 0.8136 0.02413 0.66078 0.0
Mn505 Mn 0.84076 0.02569 0.7083 0.0
C506 C 0.79712 0.01045 0.6921 0.0
C507 C 0.79147 0.04301 0.63625 0.0
C508 C 0.852 0.99503 0.67063 0.0
O509 O 0.83891 0.04532 0.65537 0.0
O510 O 0.85036 0.05075 0.69008 0.0
C511 C 0.82348 0.06637 0.72802 0.0
N512 N 0.82675 0.04437 0.72905 0.0
C513 C 0.80847 0.04217 0.76382 0.0
C514 C 0.80509 0.06484 0.76324 0.0
C515 C 0.81263 0.07699 0.74525 0.0
C516 C 0.81967 0.03253 0.74632 0.0
H517 H 0.82899 0.07571 0.71408 0.0
C518 C 0.85026 0.05551 0.66966 0.0
O519 O 0.80361 0.0268 0.62975 0.0
O520 O 0.79228 0.04807 0.6568 0.0
N521 N 0.83236 0.00219 0.72715 0.0
C522 C 0.83555 0.98028 0.72449 0.0
C523 C 0.82826 0.96574 0.74069 0.0
C524 C 0.81774 0.97385 0.7594 0.0
C525 C 0.81475 0.99646 0.76178 0.0
C526 C 0.82268 0.0102 0.74532 0.0
H527 H 0.84352 0.9739 0.71012 0.0
O528 O 0.78977 0.00491 0.67297 0.0
O529 O 0.81352 0.02385 0.69202 0.0
O530 O 0.83486 0.9983 0.65917 0.0
O531 O 0.85625 0.00561 0.68817 0.0
C532 C 0.80352 0.0058 0.7795 0.0
C533 C 0.80044 0.02863 0.78065 0.0
H534 H 0.79646 0.07304 0.77635 0.0
H535 H 0.80992 0.09447 0.74459 0.0
H536 H 0.8306 0.94831 0.73868 0.0
H537 H 0.8118 0.96258 0.77171 0.0
H538 H 0.79665 0.99539 0.79191 0.0
H539 H 0.79142 0.03552 0.79424 0.0
Mn540 Mn 0.97049 0.82489 0.65732 0.0
Mn541 Mn 0.97982 0.85267 0.704 0.0
C542 C 0.98344 0.80695 0.68807 0.0
C543 C 0.94784 0.80459 0.63435 0.0
C544 C 0.01173 0.85211 0.66657 0.0
O545 O 0.95337 0.85296 0.65193 0.0
O546 O 0.96322 0.87062 0.68264 0.0
C547 C 0.93351 0.85472 0.71808 0.0
N548 N 0.95466 0.84908 0.7222 0.0
C549 C 0.94543 0.83659 0.75832 0.0
C550 C 0.92357 0.84235 0.75452 0.0
C551 C 0.91757 0.85135 0.73426 0.0
C552 C 0.96053 0.84004 0.74148 0.0
H553 H 0.92881 0.86178 0.7026 0.0
C554 C 0.95348 0.86984 0.66414 0.0
O555 O 0.96506 0.81453 0.62687 0.0
O556 O 0.94342 0.80712 0.65493 0.0
N557 N 0.99548 0.83779 0.72658 0.0
C558 C 0.01729 0.83342 0.72777 0.0
C559 C 0.02596 0.82422 0.74692 0.0
C560 C 0.01224 0.8202 0.76486 0.0
C561 C 0.98995 0.82542 0.7635 0.0
C562 C 0.9822 0.83431 0.74389 0.0
H563 H 0.02795 0.83683 0.71418 0.0
O564 O 0.98642 0.79881 0.66873 0.0
O565 O 0.97271 0.8253 0.68902 0.0
O566 O -0.0004 0.84151 0.65327 0.0
O567 O 0.00641 0.85646 0.68628 0.0
C568 C 0.97515 0.82245 0.78089 0.0
C569 C 0.95287 0.82775 0.77824 0.0
H570 H 0.91126 0.83994 0.76703 0.0
H571 H 0.90072 0.85581 0.73116 0.0
H572 H 0.04321 0.8204 0.74791 0.0
H573 H 0.01909 0.81326 0.77959 0.0
H574 H 0.98075 0.81637 0.79647 0.0
H575 H 0.94166 0.82518 0.79171 0.0
Mn576 Mn 0.33673 0.17246 0.02684 0.0
Mn577 Mn 0.28994 0.14535 0.01624 0.0
C578 C 0.30616 0.19103 0.014 0.0
C579 C 0.35951 0.19224 0.05008 0.0
C580 C 0.32841 0.14559 0.98538 0.0
O581 O 0.34159 0.14397 0.04349 0.0
O582 O 0.31021 0.12729 0.03396 0.0
C583 C 0.27344 0.14394 0.06177 0.0
N584 N 0.27042 0.14916 0.04033 0.0
C585 C 0.23314 0.15975 0.04697 0.0
C586 C 0.23581 0.15447 0.06913 0.0
C587 C 0.25611 0.14669 0.07659 0.0
C588 C 0.25116 0.15721 0.0331 0.0
H589 H 0.28891 0.13764 0.06749 0.0
C590 C 0.32875 0.12753 0.04367 0.0
O591 O 0.36714 0.18249 0.03283 0.0
O592 O 0.33888 0.18973 0.05427 0.0
N593 N 0.2684 0.1604 0.99934 0.0
C594 C 0.26862 0.1649 0.97753 0.0
C595 C 0.24941 0.17204 0.96725 0.0
C596 C 0.23008 0.17413 0.97942 0.0
C597 C 0.23031 0.16982 0.00197 0.0
C598 C 0.24997 0.16275 0.0113 0.0
H599 H 0.28322 0.1626 0.96798 0.0
O600 O 0.32566 0.1989 0.01127 0.0
O601 O 0.30499 0.17242 0.02421 0.0
O602 O 0.34132 0.15653 0.99755 0.0
O603 O 0.30872 0.141 0.99047 0.0
C604 C 0.21173 0.17181 0.01546 0.0
C605 C 0.21324 0.16717 0.03802 0.0
H606 H 0.22238 0.15627 0.08054 0.0
H607 H 0.25831 0.14258 0.09366 0.0
H608 H 0.24937 0.17544 0.94988 0.0
H609 H 0.21514 0.17898 0.97124 0.0
H610 H 0.19622 0.17703 0.0087 0.0
H611 H 0.19893 0.16908 0.04827 0.0
Mn612 Mn 0.33422 0.82234 0.97213 0.0
Mn613 Mn 0.2883 0.85094 0.98274 0.0
C614 C 0.30326 0.80484 0.98546 0.0
C615 C 0.35665 0.80222 0.94893 0.0
C616 C 0.32713 0.85011 0.01316 0.0
O617 O 0.33972 0.85056 0.95526 0.0
O618 O 0.30869 0.86816 0.96431 0.0
C619 C 0.27099 0.85186 0.93751 0.0
N620 N 0.26828 0.84704 0.95908 0.0
C621 C 0.23067 0.83713 0.95333 0.0
C622 C 0.23301 0.842 0.93103 0.0
C623 C 0.25332 0.84922 0.92306 0.0
C624 C 0.24902 0.83947 0.96679 0.0
H625 H 0.28647 0.85777 0.93141 0.0
C626 C 0.32724 0.86726 0.95466 0.0
O627 O 0.36437 0.81183 0.9662 0.0
O628 O 0.336 0.80483 0.94479 0.0
N629 N 0.26675 0.83674 0.00034 0.0
C630 C 0.26724 0.83283 0.02226 0.0
C631 C 0.24808 0.82625 0.03301 0.0
C632 C 0.22853 0.82419 0.0212 0.0
C633 C 0.22846 0.82798 0.99856 0.0
C634 C 0.2481 0.8344 0.98873 0.0
H635 H 0.28201 0.83518 0.03155 0.0
O636 O 0.32252 0.7963 0.98797 0.0
O637 O 0.30255 0.82335 0.97504 0.0
O638 O 0.33942 0.83831 0.0012 0.0
O639 O 0.30762 0.85545 0.00811 0.0
C640 C 0.20957 0.82627 0.98547 0.0
C641 C 0.21076 0.83044 0.9628 0.0
H642 H 0.21932 0.84034 0.91992 0.0
H643 H 0.25527 0.85303 0.90589 0.0
H644 H 0.24826 0.82334 0.05047 0.0
H645 H 0.21363 0.81999 0.02978 0.0
H646 H 0.19404 0.82172 0.99265 0.0
H647 H 0.19619 0.82876 0.95287 0.0
Mn648 Mn 0.18284 0.34304 0.98124 0.0
Mn649 Mn 0.15714 0.29501 0.98565 0.0
C650 C 0.20021 0.31397 0.99863 0.0
C651 C 0.20467 0.3657 0.95989 0.0
C652 C 0.14421 0.33606 0.01055 0.0
O653 O 0.15762 0.34476 0.95906 0.0
O654 O 0.14798 0.30906 0.95796 0.0
C655 C 0.17659 0.27024 0.94895 0.0
N656 N 0.17238 0.27223 0.97073 0.0
C657 C 0.19203 0.23916 0.97871 0.0
C658 C 0.19643 0.23661 0.95635 0.0
C659 C 0.18865 0.25222 0.9414 0.0
C660 C 0.17968 0.25725 0.98525 0.0
H661 H 0.171 0.28243 0.93749 0.0
C662 C 0.14738 0.32864 0.95044 0.0
O663 O 0.19204 0.37376 0.97497 0.0
O664 O 0.20437 0.34469 0.9572 0.0
N665 N 0.16535 0.28019 0.01199 0.0
C666 C 0.16131 0.28592 0.03315 0.0
C667 C 0.1685 0.27227 0.05016 0.0
C668 C 0.1798 0.25291 0.04526 0.0
C669 C 0.18372 0.24734 0.02338 0.0
C670 C 0.17585 0.26139 0.00709 0.0
H671 H 0.15266 0.30076 0.0371 0.0
O672 O 0.20693 0.33383 0.00195 0.0
O673 O 0.18377 0.31219 0.98547 0.0
O674 O 0.16133 0.34723 0.00651 0.0
O675 O 0.14041 0.31736 0.002 0.0
C676 C 0.19589 0.22886 0.01714 0.0
C677 C 0.20023 0.22498 0.99485 0.0
H678 H 0.20604 0.2229 0.95053 0.0
H679 H 0.19215 0.25049 0.92414 0.0
H680 H 0.16545 0.27674 0.06701 0.0
H681 H 0.18564 0.24259 0.05843 0.0
H682 H 0.20261 0.21796 0.02937 0.0
H683 H 0.21054 0.21152 0.99031 0.0
Mn684 Mn 0.66092 0.17953 0.9761 0.0
Mn685 Mn 0.70662 0.14971 0.98327 0.0
C686 C 0.69306 0.19609 0.98749 0.0
C687 C 0.638 0.20099 0.95445 0.0
C688 C 0.67115 0.15231 0.01714 0.0
O689 O 0.65325 0.15172 0.95945 0.0
O690 O 0.6833 0.13262 0.96858 0.0
C691 C 0.71729 0.14645 0.93611 0.0
N692 N 0.72324 0.15189 0.95688 0.0
C693 C 0.75964 0.16111 0.9452 0.0
C694 C 0.75394 0.15555 0.9237 0.0
C695 C 0.73262 0.14833 0.91912 0.0
C696 C 0.74352 0.15937 0.96137 0.0
H697 H 0.70101 0.14067 0.93253 0.0
C698 C 0.66443 0.13415 0.95971 0.0
O699 O 0.63074 0.19147 0.97202 0.0
O700 O 0.65819 0.19732 0.94916 0.0
N701 N 0.73106 0.1634 0.99711 0.0
C702 C 0.73407 0.1676 0.01878 0.0
C703 C 0.75478 0.17399 0.0263 0.0
C704 C 0.77226 0.17559 0.01152 0.0
C705 C 0.76876 0.17148 0.98925 0.0
C706 C 0.74779 0.16505 0.98274 0.0
H707 H 0.72087 0.16566 0.03029 0.0
O708 O 0.67423 0.205 0.99138 0.0
O709 O 0.69272 0.17774 0.97671 0.0
O710 O 0.65759 0.1631 0.00544 0.0
O711 O 0.69049 0.14735 0.01101 0.0
C712 C 0.78539 0.17289 0.97335 0.0
C713 C 0.78075 0.16803 0.95128 0.0
H714 H 0.7658 0.15672 0.91059 0.0
H715 H 0.72808 0.14402 0.90256 0.0
H716 H 0.75739 0.17713 0.04351 0.0
H717 H 0.78841 0.17951 0.01753 0.0
H718 H 0.80184 0.17764 0.97788 0.0
H719 H 0.79362 0.16934 0.93918 0.0
Mn720 Mn 0.82388 0.65736 0.97779 0.0
Mn721 Mn 0.85074 0.70521 0.97632 0.0
C722 C 0.80906 0.68772 0.99514 0.0
C723 C 0.79957 0.63426 0.95963 0.0
C724 C 0.86399 0.66672 0.00522 0.0
O725 O 0.84679 0.65274 0.95393 0.0
O726 O 0.85942 0.6872 0.95082 0.0
C727 C 0.83158 0.72461 0.93631 0.0
N728 N 0.83628 0.72596 0.95803 0.0
C729 C 0.82431 0.76337 0.95947 0.0
C730 C 0.81953 0.7625 0.93705 0.0
C731 C 0.82295 0.74294 0.92548 0.0
C732 C 0.83232 0.74441 0.96947 0.0
H733 H 0.83448 0.70969 0.92734 0.0
C734 C 0.85823 0.66733 0.94438 0.0
O735 O 0.81309 0.62652 0.97413 0.0
O736 O 0.80029 0.65508 0.95598 0.0
N737 N 0.84376 0.72457 -0.00014 0.0
C738 C 0.84783 0.72218 0.02163 0.0
C739 C 0.84431 0.73994 0.03576 0.0
C740 C 0.83719 0.76008 0.02728 0.0
C741 C 0.83312 0.76212 0.0048 0.0
C742 C 0.83638 0.74371 0.99163 0.0
H743 H 0.85395 0.70694 0.02812 0.0
O744 O 0.80249 0.66816 7e-05 0.0
O745 O 0.82368 0.68886 0.97981 0.0
O746 O 0.8476 0.65434 0.00138 0.0
O747 O 0.86689 0.68522 0.9959 0.0
C748 C 0.82619 0.78175 0.99487 0.0
C749 C 0.82161 0.78232 0.97226 0.0
H750 H 0.81316 0.7767 0.92859 0.0
H751 H 0.8192 0.74209 0.9082 0.0
H752 H 0.84749 0.73824 0.05309 0.0
H753 H 0.83489 0.77384 0.03819 0.0
H754 H 0.82405 0.79645 0.00451 0.0
H755 H 0.81582 0.79738 0.96492 0.0
Mn756 Mn 0.66478 0.82114 0.03384 0.0
Mn757 Mn 0.71541 0.84085 0.02423 0.0
C758 C 0.69271 0.79772 0.02368 0.0
C759 C 0.63908 0.80616 0.05761 0.0
C760 C 0.67856 0.84447 0.9915 0.0
O761 O 0.66336 0.85112 0.0483 0.0
O762 O 0.69723 0.86272 0.03982 0.0
C763 C 0.72945 0.84248 0.07054 0.0
N764 N 0.73267 0.83532 0.04969 0.0
C765 C 0.76456 0.81498 0.06048 0.0
C766 C 0.76168 0.82227 0.08203 0.0
C767 C 0.74405 0.83609 0.08707 0.0
C768 C 0.74963 0.8221 0.04465 0.0
H769 H 0.71579 0.85291 0.07457 0.0
C770 C 0.67835 0.86563 0.04838 0.0
O771 O 0.63308 0.81551 0.03948 0.0
O772 O 0.65974 0.80642 0.06223 0.0
N773 N 0.73509 0.82159 0.00946 0.0
C774 C 0.73532 0.81571 0.98798 0.0
C775 C 0.75182 0.80175 0.98028 0.0
C776 C 0.76788 0.79402 0.99475 0.0
C777 C 0.76769 0.80082 0.01664 0.0
C778 C 0.75108 0.81508 0.02327 0.0
H779 H 0.72277 0.82125 0.97693 0.0
O780 O 0.67248 0.79227 0.02057 0.0
O781 O 0.69607 0.81675 0.03257 0.0
O782 O 0.6638 0.8358 0.0035 0.0
O783 O 0.69854 0.84653 0.99733 0.0
C784 C 0.78275 0.79329 0.03237 0.0
C785 C 0.78129 0.80046 0.05422 0.0
H786 H 0.77278 0.81718 0.09487 0.0
H787 H 0.74164 0.84169 0.10368 0.0
H788 H 0.75189 0.79656 0.96336 0.0
H789 H 0.77992 0.78247 0.98897 0.0
H790 H 0.79508 0.78147 0.02802 0.0
H791 H 0.79288 0.79439 0.06616 0.0
Mn792 Mn 0.17555 0.65593 0.01645 0.0
Mn793 Mn 0.14983 0.70411 0.01413 0.0
C794 C 0.19295 0.68576 0.00043 0.0
C795 C 0.19735 0.63251 0.03703 0.0
C796 C 0.13705 0.66426 0.98725 0.0
O797 O 0.15026 0.65318 0.03841 0.0
O798 O 0.14031 0.6887 0.04099 0.0
C799 C 0.16877 0.72706 0.05225 0.0
N800 N 0.16493 0.72609 0.03034 0.0
C801 C 0.18485 0.75941 0.02423 0.0
C802 C 0.18887 0.7609 0.04676 0.0
C803 C 0.18077 0.74465 0.06083 0.0
C804 C 0.17253 0.7417 0.01666 0.0
H805 H 0.16291 0.71438 0.06305 0.0
C806 C 0.13975 0.66879 0.04761 0.0
O807 O 0.18485 0.62496 0.02157 0.0
O808 O 0.19695 0.6534 0.04046 0.0
N809 N 0.15837 0.72019 0.98866 0.0
C810 C 0.15458 0.7155 0.96719 0.0
C811 C 0.16215 0.72985 0.95095 0.0
C812 C 0.17358 0.74883 0.95692 0.0
C813 C 0.17722 0.75333 0.9791 0.0
C814 C 0.16896 0.73863 0.99459 0.0
H815 H 0.14588 0.70092 0.96243 0.0
O816 O 0.19967 0.66606 0.99624 0.0
O817 O 0.17647 0.68694 0.01361 0.0
O818 O 0.15408 0.65281 0.99095 0.0
O819 O 0.1333 0.68262 0.99651 0.0
C820 C 0.18945 0.77138 0.98638 0.0
C821 C 0.19334 0.77431 0.00891 0.0
H822 H 0.19841 0.77428 0.05337 0.0
H823 H 0.18397 0.74557 0.07822 0.0
H824 H 0.15931 0.7262 0.93387 0.0
H825 H 0.17971 0.7597 0.94434 0.0
H826 H 0.19647 0.7827 0.97472 0.0
H827 H 0.20343 0.78767 0.01427 0.0
Mn828 Mn 0.82327 0.34285 0.02116 0.0
Mn829 Mn 0.84766 0.29389 0.02467 0.0
C830 C 0.80559 0.31203 0.00763 0.0
C831 C 0.80157 0.36843 0.03923 0.0
C832 C 0.86162 0.32986 0.99297 0.0
O833 O 0.84814 0.34763 0.04307 0.0
O834 O 0.85815 0.31258 0.049 0.0
C835 C 0.8285 0.27758 0.066 0.0
N836 N 0.83219 0.27505 0.04418 0.0
C837 C 0.81179 0.24145 0.04355 0.0
C838 C 0.80805 0.24351 0.06608 0.0
C839 C 0.81642 0.26169 0.07734 0.0
C840 C 0.82421 0.25764 0.03317 0.0
H841 H 0.83455 0.29173 0.07462 0.0
C842 C 0.85875 0.33302 0.0536 0.0
O843 O 0.81425 0.37441 0.02321 0.0
O844 O 0.80159 0.34793 0.04439 0.0
N845 N 0.83838 0.27438 0.00205 0.0
C846 C 0.84201 0.27567 0.98009 0.0
C847 C 0.83392 0.25918 0.96632 0.0
C848 C 0.82217 0.24158 0.97525 0.0
C849 C 0.81876 0.24058 0.99791 0.0
C850 C 0.82753 0.25727 0.01086 0.0
H851 H 0.85091 0.28921 0.9731 0.0
O852 O 0.79944 0.33137 0.00144 0.0
O853 O 0.82157 0.31164 0.02151 0.0
O854 O 0.84548 0.3428 0.99598 0.0
O855 O 0.86437 0.31216 0.00382 0.0
C856 C 0.80641 0.22405 0.00803 0.0
C857 C 0.80294 0.22443 0.03084 0.0
H858 H 0.79847 0.23144 0.07481 0.0
H859 H 0.8134 0.26355 0.09468 0.0
H860 H 0.83659 0.26011 0.94885 0.0
H861 H 0.81565 0.22906 0.96456 0.0
H862 H 0.79904 0.21136 0.99825 0.0
H863 H 0.79297 0.21193 0.03843 0.0
Mn864 Mn 0.5262 0.84431 0.67954 0.0
Mn865 Mn 0.52375 0.79572 0.65381 0.0
C866 C 0.51223 0.81404 0.69758 0.0
C867 C 0.54695 0.86838 0.70049 0.0
C868 C 0.49302 0.83353 0.64414 0.0
O869 O 0.54627 0.84851 0.65316 0.0
O870 O 0.54625 0.81413 0.63962 0.0
C871 C 0.56713 0.77836 0.66618 0.0
N872 N 0.54496 0.77634 0.66594 0.0
C873 C 0.54667 0.74254 0.68595 0.0
C874 C 0.56955 0.74414 0.68628 0.0
C875 C 0.57982 0.76214 0.67635 0.0
C876 C 0.53491 0.75907 0.67536 0.0
H877 H 0.57504 0.79231 0.65877 0.0
C878 C 0.55271 0.83405 0.63954 0.0
O879 O 0.53051 0.87541 0.68897 0.0
O880 O 0.55125 0.84768 0.69959 0.0
N881 N 0.50238 0.77643 0.66591 0.0
C882 C 0.48016 0.7779 0.66504 0.0
C883 C 0.46738 0.76136 0.67456 0.0
C884 C 0.47759 0.74355 0.68487 0.0
C885 C 0.50048 0.74234 0.68532 0.0
C886 C 0.51235 0.75905 0.6752 0.0
H887 H 0.47226 0.79164 0.65725 0.0
O888 O 0.50773 0.83357 0.7045 0.0
O889 O 0.5248 0.81301 0.68052 0.0
O890 O 0.49933 0.84648 0.6593 0.0
O891 O 0.50136 0.81469 0.64069 0.0
C892 C 0.51198 0.72554 0.69598 0.0
C893 C 0.53505 0.72557 0.69629 0.0
H894 H 0.57937 0.73178 0.69433 0.0
H895 H 0.59745 0.76357 0.67667 0.0
H896 H 0.44973 0.76244 0.67414 0.0
H897 H 0.46771 0.731 0.69254 0.0
H898 H 0.50309 0.71294 0.70448 0.0
H899 H 0.54373 0.71276 0.7049 0.0
Mn900 Mn 0.16363 0.52712 0.67826 0.0
Mn901 Mn 0.20945 0.51697 0.64926 0.0
C902 C 0.19465 0.51355 0.69552 0.0
C903 C 0.14101 0.55018 0.69833 0.0
C904 C 0.17053 0.48662 0.64979 0.0
O905 O 0.15796 0.54412 0.65005 0.0
O906 O 0.18937 0.53616 0.6326 0.0
C907 C 0.22748 0.56191 0.64977 0.0
N908 N 0.22986 0.54015 0.65384 0.0
C909 C 0.26773 0.54485 0.66329 0.0
C910 C 0.26573 0.56733 0.65921 0.0
C911 C 0.24546 0.57593 0.6526 0.0
C912 C 0.24907 0.53183 0.66088 0.0
H913 H 0.21203 0.56847 0.64426 0.0
C914 C 0.17065 0.54545 0.63356 0.0
O915 O 0.13346 0.53285 0.6887 0.0
O916 O 0.16167 0.55445 0.69586 0.0
N917 N 0.23072 0.49857 0.66282 0.0
C918 C 0.22989 0.47651 0.66584 0.0
C919 C 0.24897 0.46514 0.67152 0.0
C920 C 0.2688 0.47649 0.67355 0.0
C921 C 0.26922 0.49927 0.67074 0.0
C922 C 0.24964 0.50972 0.6652 0.0
H923 H 0.21491 0.46756 0.66338 0.0
O924 O 0.17544 0.51121 0.70421 0.0
O925 O 0.19532 0.52415 0.6771 0.0
O926 O 0.15851 0.49804 0.66237 0.0
O927 O 0.18977 0.49206 0.64395 0.0
C928 C 0.2884 0.51191 0.67248 0.0
C929 C 0.28758 0.53475 0.6692 0.0
H930 H 0.27967 0.57812 0.66097 0.0
H931 H 0.24379 0.59325 0.64939 0.0
H932 H 0.24853 0.44758 0.67369 0.0
H933 H 0.28363 0.46746 0.67695 0.0
H934 H 0.30388 0.50426 0.67641 0.0
H935 H 0.30238 0.54432 0.67091 0.0
Mn936 Mn 0.47787 0.15838 0.67577 0.0
Mn937 Mn 0.47697 0.20562 0.64785 0.0
C938 C 0.49391 0.18939 0.69083 0.0
C939 C 0.45939 0.13526 0.69974 0.0
C940 C 0.50617 0.16685 0.6363 0.0
O941 O 0.45497 0.15313 0.65193 0.0
O942 O 0.45166 0.1875 0.63893 0.0
C943 C 0.43655 0.22592 0.66509 0.0
N944 N 0.45845 0.22689 0.66121 0.0
C945 C 0.46005 0.26435 0.673 0.0
C946 C 0.43747 0.26385 0.67696 0.0
C947 C 0.42571 0.24447 0.67319 0.0
C948 C 0.47002 0.24523 0.66537 0.0
H949 H 0.42748 0.21111 0.66201 0.0
C950 C 0.44552 0.16752 0.64012 0.0
O951 O 0.47449 0.12768 0.68681 0.0
O952 O 0.45522 0.15598 0.69858 0.0
N953 N 0.5005 0.22485 0.65523 0.0
C954 C 0.52238 0.22206 0.65214 0.0
C955 C 0.53666 0.23958 0.65619 0.0
C956 C 0.52825 0.25988 0.66293 0.0
C957 C 0.50566 0.26232 0.66603 0.0
C958 C 0.4923 0.24416 0.66217 0.0
H959 H 0.52885 0.20667 0.64641 0.0
O960 O 0.49907 0.17005 0.69789 0.0
O961 O 0.47936 0.18985 0.6754 0.0
O962 O 0.50235 0.15514 0.65314 0.0
O963 O 0.49675 0.18513 0.63258 0.0
C964 C 0.49582 0.2821 0.67261 0.0
C965 C 0.47305 0.28307 0.67625 0.0
H966 H 0.42902 0.2782 0.68299 0.0
H967 H 0.4083 0.2439 0.67632 0.0
H968 H 0.55407 0.23756 0.65378 0.0
H969 H 0.53929 0.27344 0.6657 0.0
H970 H 0.50562 0.29662 0.67519 0.0
H971 H 0.46576 0.29824 0.68178 0.0
Mn972 Mn 0.84473 0.47233 0.68188 0.0
Mn973 Mn 0.79605 0.46975 0.6562 0.0
C974 C 0.81352 0.48428 0.69958 0.0
C975 C 0.87049 0.4546 0.70366 0.0
C976 C 0.83073 0.50398 0.64606 0.0
O977 O 0.8508 0.45215 0.65599 0.0
O978 O 0.81665 0.44896 0.64229 0.0
C979 C 0.7833 0.42489 0.66904 0.0
N980 N 0.77896 0.44672 0.66856 0.0
C981 C 0.74526 0.4416 0.68814 0.0
C982 C 0.74925 0.41902 0.6887 0.0
C983 C 0.76838 0.41064 0.67912 0.0
C984 C 0.76061 0.45497 0.67767 0.0
H985 H 0.79809 0.41842 0.66186 0.0
C986 C 0.837 0.44415 0.64254 0.0
O987 O 0.8761 0.47107 0.69142 0.0
O988 O 0.8503 0.44836 0.70273 0.0
N989 N 0.7745 0.48906 0.66796 0.0
C990 C 0.77361 0.51129 0.6668 0.0
C991 C 0.75579 0.52234 0.67613 0.0
C992 C 0.73909 0.51042 0.68644 0.0
C993 C 0.74018 0.48751 0.68704 0.0
C994 C 0.75817 0.47739 0.67721 0.0
H995 H 0.7865 0.52052 0.65903 0.0
O996 O 0.83264 0.49054 0.70625 0.0
O997 O 0.81333 0.471 0.68299 0.0
O998 O 0.84442 0.49873 0.66098 0.0
O999 O 0.81263 0.49398 0.64289 0.0
C1000 C 0.72447 0.47435 0.69754 0.0
C1001 C 0.72694 0.45143 0.69805 0.0
H1002 H 0.73788 0.40801 0.69664 0.0
H1003 H 0.77165 0.39325 0.67961 0.0
H1004 H 0.75504 0.54002 0.67559 0.0
H1005 H 0.72567 0.51906 0.69401 0.0
H1006 H 0.71072 0.48169 0.70574 0.0
H1007 H 0.71486 0.44155 0.70644 0.0
Mn1008 Mn 0.51706 0.15359 0.31536 0.0
Mn1009 Mn 0.52569 0.20304 0.33768 0.0
C1010 C 0.50487 0.18478 0.29744 0.0
C1011 C 0.53005 0.12543 0.29361 0.0
C1012 C 0.49216 0.17038 0.35474 0.0
O1013 O 0.54053 0.14793 0.33858 0.0
O1014 O 0.5487 0.18269 0.34807 0.0
C1015 C 0.56749 0.2149 0.31638 0.0
N1016 N 0.54614 0.21946 0.32072 0.0
C1017 C 0.5476 0.25219 0.29896 0.0
C1018 C 0.5697 0.24802 0.29452 0.0
C1019 C 0.57968 0.22927 0.30326 0.0
C1020 C 0.53638 0.23748 0.31246 0.0
H1021 H 0.57509 0.20029 0.32269 0.0
C1022 C 0.55219 0.16204 0.34865 0.0
O1023 O 0.51536 0.12171 0.3085 0.0
O1024 O 0.53733 0.14522 0.29165 0.0
N1025 N 0.50451 0.22409 0.32842 0.0
C1026 C 0.48266 0.22479 0.33277 0.0
C1027 C 0.47002 0.24201 0.32436 0.0
C1028 C 0.47994 0.25824 0.3115 0.0
C1029 C 0.50247 0.25718 0.30736 0.0
C1030 C 0.51432 0.23992 0.31653 0.0
H1031 H 0.47489 0.21225 0.34246 0.0
O1032 O 0.49643 0.16586 0.29278 0.0
O1033 O 0.51993 0.1846 0.31235 0.0
O1034 O 0.49395 0.15645 0.33933 0.0
O1035 O 0.50402 0.18756 0.3561 0.0
C1036 C 0.51343 0.27212 0.29377 0.0
C1037 C 0.536 0.26977 0.28967 0.0
H1038 H 0.57905 0.25888 0.2841 0.0
H1039 H 0.59666 0.22578 0.2997 0.0
H1040 H 0.45263 0.24265 0.32759 0.0
H1041 H 0.47009 0.2713 0.30469 0.0
H1042 H 0.50438 0.28491 0.28578 0.0
H1043 H 0.54414 0.2811 0.27876 0.0
Mn1044 Mn 0.83249 0.52455 0.31696 0.0
Mn1045 Mn 0.78396 0.53131 0.34197 0.0
C1046 C 0.80068 0.51302 0.29985 0.0
C1047 C 0.85858 0.54009 0.29387 0.0
C1048 C 0.81657 0.49544 0.35407 0.0
O1049 O 0.83961 0.54587 0.34163 0.0
O1050 O 0.80557 0.5522 0.35429 0.0
C1051 C 0.77376 0.57566 0.3255 0.0
N1052 N 0.76808 0.55427 0.32793 0.0
C1053 C 0.73458 0.55981 0.30809 0.0
C1054 C 0.73986 0.582 0.30574 0.0
C1055 C 0.75958 0.58994 0.31442 0.0
C1056 C 0.74923 0.54641 0.3195 0.0
H1057 H 0.78907 0.58174 0.33177 0.0
C1058 C 0.82617 0.55592 0.35402 0.0
O1059 O 0.8639 0.52416 0.30697 0.0
O1060 O 0.83867 0.54706 0.29487 0.0
N1061 N 0.76139 0.51236 0.33147 0.0
C1062 C 0.75935 0.49032 0.33401 0.0
C1063 C 0.74087 0.47964 0.32555 0.0
C1064 C 0.72468 0.49174 0.31465 0.0
C1065 C 0.72702 0.51445 0.31246 0.0
C1066 C 0.74562 0.52424 0.3215 0.0
H1067 H 0.7718 0.48091 0.34226 0.0
O1068 O 0.81949 0.50552 0.29363 0.0
O1069 O 0.80118 0.52728 0.31556 0.0
O1070 O 0.83083 0.49937 0.33925 0.0
O1071 O 0.79924 0.50694 0.35673 0.0
C1072 C 0.71188 0.52771 0.30124 0.0
C1073 C 0.71565 0.55035 0.29903 0.0
H1074 H 0.72907 0.59301 0.29701 0.0
H1075 H 0.76392 0.60698 0.31244 0.0
H1076 H 0.73919 0.46211 0.32729 0.0
H1077 H 0.71065 0.48336 0.30789 0.0
H1078 H 0.69748 0.52067 0.29391 0.0
H1079 H 0.70403 0.56027 0.29005 0.0
Mn1080 Mn 0.48257 0.84207 0.32524 0.0
Mn1081 Mn 0.48538 0.79484 0.35276 0.0
C1082 C 0.4966 0.81117 0.30813 0.0
C1083 C 0.46227 0.86597 0.30372 0.0
C1084 C 0.51451 0.83402 0.36165 0.0
O1085 O 0.46226 0.84649 0.35173 0.0
O1086 O 0.45967 0.81146 0.36345 0.0
C1087 C 0.44535 0.77219 0.33767 0.0
N1088 N 0.4675 0.77272 0.33984 0.0
C1089 C 0.47118 0.73806 0.32164 0.0
C1090 C 0.44838 0.737 0.31946 0.0
C1091 C 0.43542 0.75418 0.32748 0.0
C1092 C 0.48014 0.75629 0.33215 0.0
H1093 H 0.43539 0.7855 0.3435 0.0
C1094 C 0.45344 0.83151 0.36345 0.0
O1095 O 0.47861 0.87292 0.31539 0.0
O1096 O 0.45752 0.84534 0.305 0.0
N1097 N 0.50969 0.77762 0.3431 0.0
C1098 C 0.5315 0.78182 0.34502 0.0
C1099 C 0.54672 0.76663 0.337 0.0
C1100 C 0.53939 0.74727 0.32709 0.0
C1101 C 0.51689 0.74327 0.32538 0.0
C1102 C 0.50247 0.75887 0.33391 0.0
H1103 H 0.53733 0.79663 0.35257 0.0
O1104 O 0.50092 0.83047 0.30041 0.0
O1105 O 0.48426 0.81086 0.32532 0.0
O1106 O 0.50954 0.84485 0.3446 0.0
O1107 O 0.50493 0.81631 0.36725 0.0
C1108 C 0.50822 0.72468 0.31502 0.0
C1109 C 0.48539 0.72206 0.31318 0.0
H1110 H 0.44069 0.72324 0.31138 0.0
H1111 H 0.41782 0.75361 0.32566 0.0
H1112 H 0.56406 0.76988 0.33836 0.0
H1113 H 0.55116 0.7357 0.32069 0.0
H1114 H 0.51906 0.71255 0.30808 0.0
H1115 H 0.47889 0.7079 0.30493 0.0
Mn1116 Mn 0.1634 0.47242 0.3268 0.0
Mn1117 Mn 0.21041 0.48098 0.35424 0.0
C1118 C 0.19393 0.48568 0.30872 0.0
C1119 C 0.13992 0.45031 0.30659 0.0
C1120 C 0.1734 0.51333 0.35416 0.0
O1121 O 0.15802 0.45506 0.35469 0.0
O1122 O 0.1889 0.46458 0.37211 0.0
C1123 C 0.2236 0.43437 0.35544 0.0
N1124 N 0.22821 0.45558 0.35041 0.0
C1125 C 0.26485 0.44621 0.33967 0.0
C1126 C 0.26054 0.42427 0.34477 0.0
C1127 C 0.23976 0.41831 0.35254 0.0
C1128 C 0.24792 0.46138 0.34234 0.0
H1129 H 0.20776 0.42974 0.36169 0.0
C1130 C 0.1703 0.45505 0.3715 0.0
O1131 O 0.13278 0.46748 0.31684 0.0
O1132 O 0.16049 0.44562 0.30873 0.0
N1133 N 0.23339 0.49648 0.33981 0.0
C1134 C 0.23509 0.51841 0.33629 0.0
C1135 C 0.25513 0.52727 0.32949 0.0
C1136 C 0.27333 0.51355 0.32688 0.0
C1137 C 0.27119 0.49099 0.33038 0.0
C1138 C 0.25081 0.48312 0.33716 0.0
H1139 H 0.2214 0.52913 0.33911 0.0
O1140 O 0.17446 0.48863 0.3009 0.0
O1141 O 0.19526 0.47447 0.32679 0.0
O1142 O 0.15983 0.50137 0.34373 0.0
O1143 O 0.19311 0.50781 0.35826 0.0
C1144 C 0.28865 0.4761 0.3281 0.0
C1145 C 0.28538 0.45368 0.33238 0.0
H1146 H 0.27307 0.4119 0.34288 0.0
H1147 H 0.23629 0.40141 0.35652 0.0
H1148 H 0.2567 0.5447 0.32686 0.0
H1149 H 0.28899 0.5206 0.32271 0.0
H1150 H 0.30471 0.4817 0.32316 0.0
H1151 H 0.29888 0.44238 0.3304 0.0
Mn1152 Mn 0.6783 0.5287 0.83805 0.0
Mn1153 Mn 0.65275 0.5326 0.7896 0.0
C1154 C 0.69495 0.51483 0.80685 0.0
C1155 C 0.70062 0.54587 0.86369 0.0
C1156 C 0.63992 0.50028 0.82539 0.0
O1157 O 0.65381 0.5508 0.84366 0.0
O1158 O 0.64259 0.55647 0.80899 0.0
C1159 C 0.671 0.57442 0.77343 0.0
N1160 N 0.66719 0.55268 0.77055 0.0
C1161 C 0.68216 0.5537 0.73421 0.0
C1162 C 0.68606 0.57616 0.73667 0.0
C1163 C 0.68063 0.58653 0.75645 0.0
C1164 C 0.67284 0.54244 0.75182 0.0
H1165 H 0.66673 0.58243 0.78857 0.0
C1166 C 0.64263 0.56116 0.82939 0.0
O1167 O 0.68767 0.53001 0.86945 0.0
O1168 O 0.7005 0.55151 0.84329 0.0
N1169 N 0.66125 0.51057 0.76911 0.0
C1170 C 0.65768 0.4886 0.76992 0.0
C1171 C 0.66271 0.47567 0.75163 0.0
C1172 C 0.67101 0.48551 0.73261 0.0
C1173 C 0.67469 0.50815 0.73222 0.0
C1174 C 0.66956 0.52015 0.751 0.0
H1175 H 0.6508 0.48101 0.78429 0.0
O1176 O 0.70137 0.50867 0.82612 0.0
O1177 O 0.67945 0.52929 0.80657 0.0
O1178 O 0.65599 0.50371 0.83825 0.0
O1179 O 0.63678 0.51114 0.80778 0.0
C1180 C 0.68304 0.51934 0.71388 0.0
C1181 C 0.68709 0.54203 0.71498 0.0
H1182 H 0.69333 0.58558 0.72354 0.0
H1183 H 0.68371 0.60383 0.75853 0.0
H1184 H 0.65986 0.45821 0.75207 0.0
H1185 H 0.67443 0.4755 0.71842 0.0
H1186 H 0.68645 0.51067 0.69884 0.0
H1187 H 0.69395 0.55034 0.70092 0.0
Mn1188 Mn 0.47308 0.67985 0.83866 0.0
Mn1189 Mn 0.48249 0.65074 0.79285 0.0
C1190 C 0.48576 0.69701 0.80736 0.0
C1191 C 0.44991 0.7 0.86113 0.0
C1192 C 0.51461 0.65302 0.83005 0.0
O1193 O 0.45672 0.65164 0.84521 0.0
O1194 O 0.46625 0.63333 0.81484 0.0
C1195 C 0.43608 0.64821 0.77921 0.0
N1196 N 0.45724 0.65349 0.77466 0.0
C1197 C 0.44802 0.6632 0.73768 0.0
C1198 C 0.42614 0.65781 0.74192 0.0
C1199 C 0.42013 0.65043 0.76284 0.0
C1200 C 0.46308 0.66118 0.7548 0.0
H1201 H 0.43143 0.64228 0.79517 0.0
C1202 C 0.45693 0.63443 0.83351 0.0
O1203 O 0.4675 0.69088 0.86879 0.0
O1204 O 0.44558 0.69695 0.84059 0.0
N1205 N 0.49796 0.66476 0.76961 0.0
C1206 C 0.51983 0.6687 0.76806 0.0
C1207 C 0.52876 0.67515 0.74794 0.0
C1208 C 0.51519 0.67702 0.72953 0.0
C1209 C 0.49268 0.67315 0.73153 0.0
C1210 C 0.48474 0.6667 0.75199 0.0
H1211 H 0.53045 0.66647 0.78196 0.0
O1212 O 0.48841 0.70583 0.82645 0.0
O1213 O 0.47522 0.67853 0.80692 0.0
O1214 O 0.50253 0.66406 0.84303 0.0
O1215 O 0.50917 0.64779 0.81058 0.0
C1216 C 0.47792 0.67479 0.71389 0.0
C1217 C 0.45555 0.67017 0.71705 0.0
H1218 H 0.41385 0.6592 0.72924 0.0
H1219 H 0.40327 0.64624 0.76626 0.0
H1220 H 0.54615 0.6781 0.74648 0.0
H1221 H 0.52232 0.681 0.71385 0.0
H1222 H 0.48358 0.67952 0.69778 0.0
H1223 H 0.44434 0.67168 0.70342 0.0
Mn1224 Mn 0.32543 0.47467 0.84077 0.0
Mn1225 Mn 0.34953 0.47913 0.79193 0.0
C1226 C 0.30667 0.49122 0.81207 0.0
C1227 C 0.30493 0.45337 0.86465 0.0
C1228 C 0.36289 0.50503 0.83218 0.0
O1229 O 0.3514 0.45325 0.84201 0.0
O1230 O 0.36002 0.45194 0.80607 0.0
C1231 C 0.33058 0.44151 0.7682 0.0
N1232 N 0.33409 0.46344 0.76983 0.0
C1233 C 0.31305 0.47038 0.73738 0.0
C1234 C 0.30935 0.44785 0.7352 0.0
C1235 C 0.31818 0.43335 0.75068 0.0
C1236 C 0.32579 0.47753 0.75495 0.0
H1237 H 0.337 0.43038 0.7803 0.0
C1238 C 0.36152 0.44477 0.82574 0.0
O1239 O 0.31751 0.46889 0.87189 0.0
O1240 O 0.30461 0.45009 0.84371 0.0
N1241 N 0.34008 0.505 0.77705 0.0
C1242 C 0.34367 0.52635 0.78238 0.0
C1243 C 0.33542 0.54296 0.76884 0.0
C1244 C 0.32352 0.53746 0.75 0.0
C1245 C 0.32011 0.5154 0.74483 0.0
C1246 C 0.32907 0.49954 0.75871 0.0
H1247 H 0.35273 0.53076 0.79684 0.0
O1248 O 0.30052 0.49459 0.8321 0.0
O1249 O 0.32334 0.47838 0.80985 0.0
O1250 O 0.34623 0.50063 0.84387 0.0
O1251 O 0.36645 0.4963 0.81352 0.0
C1252 C 0.30741 0.50855 0.72695 0.0
C1253 C 0.3038 0.48607 0.72334 0.0
H1254 H 0.29949 0.44155 0.7219 0.0
H1255 H 0.31523 0.41596 0.74924 0.0
H1256 H 0.3381 0.55995 0.773 0.0
H1257 H 0.31685 0.55031 0.73978 0.0
H1258 H 0.29978 0.52048 0.71634 0.0
H1259 H 0.29331 0.48102 0.71018 0.0
Mn1260 Mn 0.53072 0.32263 0.83622 0.0
Mn1261 Mn 0.52446 0.3426 0.78514 0.0
C1262 C 0.52038 0.29959 0.80806 0.0
C1263 C 0.55311 0.3067 0.86265 0.0
C1264 C 0.49007 0.34774 0.82032 0.0
O1265 O 0.54648 0.35189 0.83832 0.0
O1266 O 0.54009 0.36379 0.8041 0.0
C1267 C 0.57147 0.34185 0.77358 0.0
N1268 N 0.55048 0.33581 0.76921 0.0
C1269 C 0.56183 0.31523 0.73767 0.0
C1270 C 0.58355 0.32137 0.74173 0.0
C1271 C 0.58838 0.33474 0.75977 0.0
C1272 C 0.54564 0.323 0.75188 0.0
H1273 H 0.57531 0.35193 0.78755 0.0
C1274 C 0.54785 0.36635 0.82337 0.0
O1275 O 0.53515 0.31665 0.86817 0.0
O1276 O 0.55824 0.30678 0.84212 0.0
N1277 N 0.50979 0.32417 0.7646 0.0
C1278 C 0.48806 0.3195 0.76313 0.0
C1279 C 0.48048 0.30626 0.74599 0.0
C1280 C 0.49532 0.29802 0.73056 0.0
C1281 C 0.51753 0.30351 0.73205 0.0
C1282 C 0.52404 0.31714 0.74924 0.0
H1283 H 0.47669 0.32542 0.7752 0.0
O1284 O 0.51642 0.29442 0.82821 0.0
O1285 O 0.53044 0.31809 0.80487 0.0
O1286 O 0.5009 0.33865 0.83579 0.0
O1287 O 0.49711 0.34948 0.80068 0.0
C1288 C 0.53357 0.29537 0.71767 0.0
C1289 C 0.55568 0.3013 0.7204 0.0
H1290 H 0.59665 0.31575 0.73123 0.0
H1291 H 0.60511 0.33944 0.7631 0.0
H1292 H 0.46333 0.30203 0.74494 0.0
H1293 H 0.48955 0.28707 0.71798 0.0
H1294 H 0.52919 0.28415 0.70476 0.0
H1295 H 0.56786 0.29481 0.7093 0.0
Mn1296 Mn 0.67392 0.47472 0.15336 0.0
Mn1297 Mn 0.64426 0.47089 0.19949 0.0
C1298 C 0.68781 0.48831 0.18596 0.0
C1299 C 0.69876 0.45768 0.13 0.0
C1300 C 0.63492 0.50366 0.16304 0.0
O1301 O 0.65001 0.45267 0.14548 0.0
O1302 O 0.63505 0.44764 0.17886 0.0
C1303 C 0.66008 0.42828 0.21614 0.0
N1304 N 0.65684 0.4501 0.21912 0.0
C1305 C 0.67049 0.44822 0.25595 0.0
C1306 C 0.67381 0.42568 0.25336 0.0
C1307 C 0.66871 0.41569 0.23331 0.0
C1308 C 0.66202 0.45994 0.2382 0.0
H1309 H 0.65613 0.42056 0.20078 0.0
C1310 C 0.63709 0.44283 0.1586 0.0
O1311 O 0.68627 0.4734 0.12294 0.0
O1312 O 0.69652 0.45197 0.15025 0.0
N1313 N 0.65179 0.49232 0.22099 0.0
C1314 C 0.64882 0.51439 0.22037 0.0
C1315 C 0.65373 0.52696 0.23894 0.0
C1316 C 0.66132 0.51668 0.25803 0.0
C1317 C 0.66426 0.49393 0.25828 0.0
C1318 C 0.65923 0.48229 0.23924 0.0
H1319 H 0.64266 0.52235 0.20586 0.0
O1320 O 0.69588 0.49464 0.16739 0.0
O1321 O 0.67226 0.47395 0.18478 0.0
O1322 O 0.65175 0.49982 0.1513 0.0
O1323 O 0.63031 0.49303 0.18048 0.0
C1324 C 0.67187 0.48232 0.27667 0.0
C1325 C 0.67527 0.45954 0.27543 0.0
H1326 H 0.68038 0.41591 0.26661 0.0
H1327 H 0.67133 0.39833 0.23113 0.0
H1328 H 0.65145 0.54451 0.23862 0.0
H1329 H 0.66483 0.52644 0.27238 0.0
H1330 H 0.67509 0.49069 0.29189 0.0
H1331 H 0.68151 0.45088 0.28957 0.0
Mn1332 Mn 0.52311 0.67938 0.1631 0.0
Mn1333 Mn 0.51298 0.64869 0.20779 0.0
C1334 C 0.51 0.69535 0.19494 0.0
C1335 C 0.54606 0.701 0.14174 0.0
C1336 C 0.48238 0.65089 0.1692 0.0
O1337 O 0.54007 0.65145 0.15621 0.0
O1338 O 0.53128 0.63242 0.18654 0.0
C1339 C 0.55825 0.64713 0.22489 0.0
N1340 N 0.53671 0.65193 0.22783 0.0
C1341 C 0.54275 0.66121 0.26557 0.0
C1342 C 0.56501 0.65633 0.26299 0.0
C1343 C 0.57282 0.64942 0.24251 0.0
C1344 C 0.52913 0.65911 0.2473 0.0
H1345 H 0.56424 0.64151 0.20926 0.0
C1346 C 0.54072 0.63419 0.16794 0.0
O1347 O 0.52892 0.69159 0.13346 0.0
O1348 O 0.55029 0.69713 0.16216 0.0
N1349 N 0.49544 0.66209 0.22989 0.0
C1350 C 0.47357 0.66632 0.22954 0.0
C1351 C 0.46311 0.67324 0.24874 0.0
C1352 C 0.47513 0.67525 0.26819 0.0
C1353 C 0.49763 0.67081 0.26816 0.0
C1354 C 0.50721 0.66421 0.24846 0.0
H1355 H 0.46415 0.66419 0.21479 0.0
O1356 O 0.50722 0.70477 0.17614 0.0
O1357 O 0.52044 0.67686 0.19465 0.0
O1358 O 0.49406 0.66343 0.15736 0.0
O1359 O 0.4876 0.64477 0.18843 0.0
C1360 C 0.51085 0.67215 0.28698 0.0
C1361 C 0.53346 0.66774 0.28561 0.0
H1362 H 0.57623 0.65778 0.27662 0.0
H1363 H 0.58997 0.64563 0.24038 0.0
H1364 H 0.44573 0.67658 0.24865 0.0
H1365 H 0.46679 0.67993 0.28306 0.0
H1366 H 0.50379 0.67647 0.30261 0.0
H1367 H 0.54349 0.66915 0.30015 0.0
Mn1368 Mn 0.31847 0.52624 0.15844 0.0
Mn1369 Mn 0.34521 0.52799 0.20627 0.0
C1370 C 0.30159 0.51314 0.18984 0.0
C1371 C 0.29649 0.54495 0.13365 0.0
C1372 C 0.35597 0.49622 0.1694 0.0
O1373 O 0.34405 0.54716 0.15279 0.0
O1374 O 0.35591 0.55211 0.18744 0.0
C1375 C 0.32902 0.56991 0.2242 0.0
N1376 N 0.33168 0.54789 0.22616 0.0
C1377 C 0.31321 0.54766 0.26087 0.0
C1378 C 0.31055 0.57038 0.25938 0.0
C1379 C 0.31847 0.58155 0.24094 0.0
C1380 C 0.32416 0.53697 0.24384 0.0
H1381 H 0.33473 0.57849 0.20989 0.0
C1382 C 0.35577 0.55697 0.16705 0.0
O1383 O 0.30849 0.52857 0.12732 0.0
O1384 O 0.29745 0.55031 0.1541 0.0
N1385 N 0.33578 0.50549 0.22585 0.0
C1386 C 0.33806 0.4834 0.22394 0.0
C1387 C 0.33004 0.46973 0.24055 0.0
C1388 C 0.31974 0.47891 0.2589 0.0
C1389 C 0.31771 0.50169 0.26051 0.0
C1390 C 0.32632 0.51451 0.24365 0.0
H1391 H 0.34581 0.47623 0.20981 0.0
O1392 O 0.2944 0.50741 0.17072 0.0
O1393 O 0.31811 0.52642 0.18974 0.0
O1394 O 0.3394 0.50014 0.15734 0.0
O1395 O 0.36013 0.5067 0.18702 0.0
C1396 C 0.30682 0.51211 0.27786 0.0
C1397 C 0.30463 0.53508 0.27812 0.0
H1398 H 0.30213 0.57936 0.27211 0.0
H1399 H 0.31627 0.59906 0.23954 0.0
H1400 H 0.33164 0.45217 0.23914 0.0
H1401 H 0.31327 0.46832 0.27155 0.0
H1402 H 0.29959 0.50246 0.29069 0.0
H1403 H 0.29581 0.5429 0.29132 0.0
Mn1404 Mn 0.46946 0.32214 0.15812 0.0
Mn1405 Mn 0.48144 0.3496 0.20429 0.0
C1406 C 0.48438 0.304 0.18787 0.0
C1407 C 0.44583 0.30171 0.13632 0.0
C1408 C 0.51108 0.34943 0.1651 0.0
O1409 O 0.45186 0.35004 0.15384 0.0
O1410 O 0.46378 0.36758 0.18383 0.0
C1411 C 0.43593 0.3515 0.2208 0.0
N1412 N 0.45735 0.34625 0.2239 0.0
C1413 C 0.45064 0.33629 0.26135 0.0
C1414 C 0.42851 0.34163 0.25859 0.0
C1415 C 0.4211 0.34912 0.23817 0.0
C1416 C 0.46452 0.33847 0.24328 0.0
H1417 H 0.43022 0.35757 0.20524 0.0
C1418 C 0.45293 0.36693 0.16596 0.0
O1419 O 0.46245 0.31194 0.12796 0.0
O1420 O 0.44251 0.30406 0.15713 0.0
N1421 N 0.49832 0.33497 0.22614 0.0
C1422 C 0.52016 0.33061 0.22609 0.0
C1423 C 0.53039 0.32381 0.24547 0.0
C1424 C 0.51813 0.322 0.26479 0.0
C1425 C 0.4956 0.32621 0.2644 0.0
C1426 C 0.48632 0.33293 0.2446 0.0
H1427 H 0.52977 0.3327 0.21147 0.0
O1428 O 0.4863 0.29626 0.16824 0.0
O1429 O 0.47349 0.3222 0.18978 0.0
O1430 O 0.49808 0.33911 0.15244 0.0
O1431 O 0.50707 0.35335 0.18521 0.0
C1432 C 0.48206 0.32449 0.28299 0.0
C1433 C 0.45953 0.32917 0.28138 0.0
H1434 H 0.41709 0.34011 0.27205 0.0
H1435 H 0.40405 0.35327 0.2359 0.0
H1436 H 0.54777 0.32049 0.24565 0.0
H1437 H 0.52624 0.31753 0.27987 0.0
H1438 H 0.48878 0.31951 0.29861 0.0
H1439 H 0.44926 0.32754 0.29572 0.0
Mn1440 Mn 0.84073 0.67349 0.52455 0.0
Mn1441 Mn 0.79527 0.644 0.51417 0.0
C1442 C 0.80976 0.69022 0.51041 0.0
C1443 C 0.8622 0.69471 0.54782 0.0
C1444 C 0.83475 0.64408 0.48452 0.0
O1445 O 0.84628 0.64565 0.54217 0.0
O1446 O 0.81507 0.62778 0.53403 0.0
C1447 C 0.77614 0.64477 0.55865 0.0
N1448 N 0.77433 0.64882 0.53683 0.0
C1449 C 0.73659 0.65918 0.54069 0.0
C1450 C 0.73801 0.6551 0.56321 0.0
C1451 C 0.75792 0.64802 0.57225 0.0
C1452 C 0.75542 0.65613 0.52805 0.0
H1453 H 0.79133 0.639 0.56557 0.0
C1454 C 0.83363 0.62911 0.54362 0.0
O1455 O 0.87057 0.68489 0.53096 0.0
O1456 O 0.84157 0.69153 0.55158 0.0
N1457 N 0.77449 0.65755 0.49517 0.0
C1458 C 0.77607 0.66132 0.47327 0.0
C1459 C 0.75763 0.66858 0.4617 0.0
C1460 C 0.73767 0.67139 0.47267 0.0
C1461 C 0.73644 0.66741 0.49522 0.0
C1462 C 0.75544 0.66052 0.50594 0.0
H1463 H 0.79122 0.65859 0.46466 0.0
O1464 O 0.8289 0.69904 0.50802 0.0
O1465 O 0.80921 0.67191 0.52118 0.0
O1466 O 0.84653 0.6571 0.49576 0.0
O1467 O 0.81546 0.63829 0.48982 0.0
C1468 C 0.71704 0.66958 0.50742 0.0
C1469 C 0.71719 0.66587 0.53021 0.0
H1470 H 0.72391 0.6573 0.57371 0.0
H1471 H 0.75915 0.64484 0.58962 0.0
H1472 H 0.7587 0.67158 0.44429 0.0
H1473 H 0.72336 0.6764 0.46354 0.0
H1474 H 0.70191 0.67417 0.49944 0.0
H1475 H 0.70224 0.66801 0.53947 0.0
Mn1476 Mn 0.83319 0.32309 0.47414 0.0
Mn1477 Mn 0.78416 0.34512 0.48527 0.0
C1478 C 0.80575 0.30159 0.48938 0.0
C1479 C 0.85652 0.30562 0.44968 0.0
C1480 C 0.82529 0.35472 0.51132 0.0
O1481 O 0.83294 0.35163 0.45619 0.0
O1482 O 0.79752 0.3611 0.4606 0.0
C1483 C 0.76016 0.33362 0.44491 0.0
N1484 N 0.76207 0.33273 0.46709 0.0
C1485 C 0.72982 0.31054 0.47013 0.0
C1486 C 0.72738 0.3113 0.44734 0.0
C1487 C 0.74262 0.32291 0.43467 0.0
C1488 C 0.74745 0.32171 0.47944 0.0
H1489 H 0.77203 0.3423 0.43512 0.0
C1490 C 0.81629 0.36353 0.45159 0.0
O1491 O 0.86411 0.31664 0.46617 0.0
O1492 O 0.83548 0.30546 0.44699 0.0
N1493 N 0.76978 0.33057 0.50893 0.0
C1494 C 0.77529 0.33013 0.53053 0.0
C1495 C 0.76188 0.31888 0.54539 0.0
C1496 C 0.743 0.30819 0.5379 0.0
C1497 C 0.73766 0.30893 0.51562 0.0
C1498 C 0.75142 0.32071 0.50162 0.0
H1499 H 0.78981 0.33826 0.53639 0.0
O1500 O 0.82605 0.29563 0.491 0.0
O1501 O 0.80243 0.31979 0.47908 0.0
O1502 O 0.83746 0.34028 0.50255 0.0
O1503 O 0.80575 0.35868 0.50511 0.0
C1504 C 0.71965 0.29782 0.50663 0.0
C1505 C 0.71589 0.2985 0.48389 0.0
H1506 H 0.71402 0.30282 0.43938 0.0
H1507 H 0.74095 0.32346 0.41706 0.0
H1508 H 0.76617 0.31834 0.56255 0.0
H1509 H 0.73287 0.29922 0.54935 0.0
H1510 H 0.709 0.28822 0.517 0.0
H1511 H 0.70258 0.28931 0.47702 0.0
Mn1512 Mn 0.68597 0.84258 0.48008 0.0
Mn1513 Mn 0.65759 0.79585 0.48183 0.0
C1514 C 0.70298 0.81099 0.49231 0.0
C1515 C 0.70664 0.86624 0.45864 0.0
C1516 C 0.65039 0.83432 0.51259 0.0
O1517 O 0.65852 0.84838 0.46182 0.0
O1518 O 0.64593 0.81384 0.45747 0.0
C1519 C 0.67019 0.7747 0.4402 0.0
N1520 N 0.6692 0.77432 0.46244 0.0
C1521 C 0.68659 0.73907 0.46377 0.0
C1522 C 0.68768 0.73899 0.44086 0.0
C1523 C 0.67945 0.7569 0.42903 0.0
C1524 C 0.67698 0.75715 0.47398 0.0
H1525 H 0.66402 0.78852 0.43108 0.0
C1526 C 0.64578 0.83433 0.45302 0.0
O1527 O 0.69649 0.8733 0.47594 0.0
O1528 O 0.70459 0.8457 0.45392 0.0
N1529 N 0.66778 0.77733 0.5049 0.0
C1530 C 0.66674 0.78056 0.52693 0.0
C1531 C 0.67497 0.7645 0.54112 0.0
C1532 C 0.68418 0.74531 0.53253 0.0
C1533 C 0.68493 0.74232 0.50981 0.0
C1534 C 0.6762 0.75874 0.49647 0.0
H1535 H 0.65976 0.79528 0.53368 0.0
O1536 O 0.71142 0.82996 0.49673 0.0
O1537 O 0.68526 0.81139 0.4807 0.0
O1538 O 0.66769 0.84502 0.50803 0.0
O1539 O 0.64461 0.81687 0.50265 0.0
C1540 C 0.69456 0.72397 0.49989 0.0
C1541 C 0.6953 0.72226 0.4769 0.0
H1542 H 0.69504 0.7254 0.43221 0.0
H1543 H 0.68036 0.75702 0.41136 0.0
H1544 H 0.67435 0.76696 0.55864 0.0
H1545 H 0.6908 0.73307 0.5435 0.0
H1546 H 0.70184 0.7114 0.50992 0.0
H1547 H 0.70299 0.70821 0.46947 0.0
Mn1548 Mn 0.16338 0.68067 0.47481 0.0
Mn1549 Mn 0.21104 0.65354 0.47504 0.0
C1550 C 0.1941 0.69679 0.49028 0.0
C1551 C 0.14002 0.70339 0.455 0.0
C1552 C 0.17268 0.6428 0.5051 0.0
O1553 O 0.15838 0.65562 0.45322 0.0
O1554 O 0.19291 0.64303 0.45033 0.0
C1555 C 0.23048 0.66948 0.43368 0.0
N1556 N 0.23177 0.66662 0.45573 0.0
C1557 C 0.26879 0.67977 0.45643 0.0
C1558 C 0.26797 0.68269 0.4337 0.0
C1559 C 0.24864 0.67773 0.42231 0.0
C1560 C 0.25003 0.67196 0.46693 0.0
H1561 H 0.21572 0.66545 0.42488 0.0
C1562 C 0.17287 0.64353 0.44432 0.0
O1563 O 0.13256 0.69123 0.47078 0.0
O1564 O 0.16075 0.70223 0.45095 0.0
N1565 N 0.23032 0.66234 0.49803 0.0
C1566 C 0.22793 0.65988 0.52004 0.0
C1567 C 0.24548 0.66499 0.53394 0.0
C1568 C 0.26543 0.6721 0.52503 0.0
C1569 C 0.26749 0.6745 0.50231 0.0
C1570 C 0.2493 0.6696 0.48933 0.0
H1571 H 0.21282 0.65388 0.52692 0.0
O1572 O 0.17469 0.70399 0.49489 0.0
O1573 O 0.19482 0.68081 0.47636 0.0
O1574 O 0.1606 0.65918 0.50046 0.0
O1575 O 0.19096 0.6389 0.49571 0.0
C1576 C 0.28693 0.68132 0.49198 0.0
C1577 C 0.28752 0.68416 0.46909 0.0
H1578 H 0.28205 0.68881 0.42484 0.0
H1579 H 0.24783 0.68003 0.40478 0.0
H1580 H 0.24376 0.66309 0.55145 0.0
H1581 H 0.27904 0.67564 0.53579 0.0
H1582 H 0.3015 0.68463 0.50148 0.0
H1583 H 0.30244 0.68984 0.4614 0.0
Mn1584 Mn 0.3218 0.15633 0.47448 0.0
Mn1585 Mn 0.34417 0.206 0.48352 0.0
C1586 C 0.3002 0.18509 0.48624 0.0
C1587 C 0.30493 0.13153 0.4511 0.0
C1588 C 0.34722 0.16879 0.51589 0.0
O1589 O 0.35091 0.15378 0.4585 0.0
O1590 O 0.36445 0.18692 0.4669 0.0
C1591 C 0.34427 0.21999 0.43714 0.0
N1592 N 0.33824 0.22352 0.4583 0.0
C1593 C 0.31858 0.25611 0.44834 0.0
C1594 C 0.32471 0.25291 0.42648 0.0
C1595 C 0.33763 0.23478 0.42087 0.0
C1596 C 0.32586 0.24094 0.46388 0.0
H1597 H 0.35397 0.20595 0.43266 0.0
C1598 C 0.36605 0.16811 0.45789 0.0
O1599 O 0.31464 0.12492 0.46881 0.0
O1600 O 0.30568 0.15226 0.44678 0.0
N1601 N 0.32667 0.22664 0.49915 0.0
C1602 C 0.32258 0.22765 0.52102 0.0
C1603 C 0.31 0.24492 0.52939 0.0
C1604 C 0.30193 0.26104 0.5152 0.0
C1605 C 0.30707 0.26015 0.49287 0.0
C1606 C 0.32004 0.24278 0.48557 0.0
H1607 H 0.32865 0.21525 0.53194 0.0
O1608 O 0.29398 0.16505 0.48923 0.0
O1609 O 0.31883 0.1878 0.47633 0.0
O1610 O 0.3377 0.15442 0.50409 0.0
O1611 O 0.35003 0.18872 0.51016 0.0
C1612 C 0.29932 0.27542 0.47747 0.0
C1613 C 0.30514 0.27348 0.45525 0.0
H1614 H 0.31946 0.26419 0.41386 0.0
H1615 H 0.34233 0.23212 0.40401 0.0
H1616 H 0.30624 0.24561 0.54667 0.0
H1617 H 0.29153 0.2738 0.52159 0.0
H1618 H 0.28852 0.28844 0.48244 0.0
H1619 H 0.29898 0.28531 0.44358 0.0
Mn1620 Mn 0.16217 0.32002 0.52973 0.0
Mn1621 Mn 0.20992 0.34693 0.53189 0.0
C1622 C 0.19319 0.30434 0.5146 0.0
C1623 C 0.13803 0.29686 0.54792 0.0
C1624 C 0.17265 0.35871 0.50087 0.0
O1625 O 0.15657 0.34436 0.55188 0.0
O1626 O 0.19096 0.35689 0.55621 0.0
C1627 C 0.22773 0.32971 0.57347 0.0
N1628 N 0.22984 0.33315 0.55157 0.0
C1629 C 0.26677 0.31968 0.55185 0.0
C1630 C 0.26508 0.31611 0.57444 0.0
C1631 C 0.2454 0.32095 0.58526 0.0
C1632 C 0.24846 0.32796 0.5409 0.0
H1633 H 0.21272 0.33369 0.58186 0.0
C1634 C 0.17073 0.35624 0.56152 0.0
O1635 O 0.1312 0.30965 0.53234 0.0
O1636 O 0.15862 0.29767 0.55274 0.0
N1637 N 0.23002 0.33872 0.5094 0.0
C1638 C 0.22853 0.34206 0.48742 0.0
C1639 C 0.24663 0.33745 0.47407 0.0
C1640 C 0.26617 0.32992 0.4835 0.0
C1641 C 0.26729 0.32656 0.50617 0.0
C1642 C 0.24861 0.33105 0.51858 0.0
H1643 H 0.21375 0.34843 0.48017 0.0
O1644 O 0.17389 0.29738 0.50923 0.0
O1645 O 0.19365 0.31976 0.52915 0.0
O1646 O 0.16033 0.34232 0.50478 0.0
O1647 O 0.19068 0.36225 0.51089 0.0
C1648 C 0.28626 0.31921 0.517 0.0
C1649 C 0.28593 0.31555 0.53978 0.0
H1650 H 0.27877 0.30962 0.58363 0.0
H1651 H 0.24393 0.31817 0.60268 0.0
H1652 H 0.24565 0.34007 0.45659 0.0
H1653 H 0.28022 0.32681 0.47317 0.0
H1654 H 0.30116 0.3161 0.50795 0.0
H1655 H 0.3005 0.30947 0.54783 0.0
Mn1656 Mn 0.67422 0.15478 0.51575 0.0
Mn1657 Mn 0.64426 0.19998 0.50593 0.0
C1658 C 0.69086 0.18656 0.50311 0.0
C1659 C 0.69465 0.1327 0.53904 0.0
C1660 C 0.64618 0.16169 0.47489 0.0
O1661 O 0.64617 0.14816 0.5325 0.0
O1662 O 0.62769 0.17886 0.52407 0.0
C1663 C 0.64283 0.21659 0.5514 0.0
N1664 N 0.64746 0.21978 0.52985 0.0
C1665 C 0.6553 0.25782 0.53597 0.0
C1666 C 0.65061 0.25498 0.55824 0.0
C1667 C 0.64454 0.23422 0.56602 0.0
C1668 C 0.65398 0.2395 0.52233 0.0
H1669 H 0.63773 0.20076 0.55734 0.0
C1670 C 0.62917 0.16019 0.53341 0.0
O1671 O 0.68566 0.12484 0.52149 0.0
O1672 O 0.69148 0.15327 0.54319 0.0
N1673 N 0.65777 0.22222 0.48866 0.0
C1674 C 0.662 0.22207 0.46679 0.0
C1675 C 0.66769 0.24162 0.45624 0.0
C1676 C 0.66853 0.2612 0.4682 0.0
C1677 C 0.66447 0.26091 0.49078 0.0
C1678 C 0.65907 0.24088 0.50042 0.0
H1679 H 0.66055 0.20723 0.4574 0.0
O1680 O 0.69996 0.16761 0.50023 0.0
O1681 O 0.67227 0.18645 0.51339 0.0
O1682 O 0.65845 0.14954 0.48654 0.0
O1683 O 0.64028 0.18092 0.48032 0.0
C1684 C 0.66495 0.27978 0.50402 0.0
C1685 C 0.66082 0.27817 0.52667 0.0
H1686 H 0.65153 0.26864 0.56949 0.0
H1687 H 0.64088 0.2319 0.58318 0.0
H1688 H 0.67084 0.24172 0.43883 0.0
H1689 H 0.67205 0.27635 0.45975 0.0
H1690 H 0.66858 0.29563 0.497 0.0
H1691 H 0.66164 0.29273 0.53672 0.0
Mn1692 Mn 0.32251 0.84618 0.52582 0.0
Mn1693 Mn 0.34582 0.79637 0.52154 0.0
C1694 C 0.30185 0.81646 0.51484 0.0
C1695 C 0.30442 0.87197 0.54717 0.0
C1696 C 0.35067 0.83127 0.48684 0.0
O1697 O 0.35054 0.85022 0.5432 0.0
O1698 O 0.36511 0.81689 0.53772 0.0
C1699 C 0.34363 0.78577 0.56876 0.0
N1700 N 0.33873 0.78065 0.54763 0.0
C1701 C 0.31901 0.74853 0.55891 0.0
C1702 C 0.32399 0.75337 0.58076 0.0
C1703 C 0.33636 0.77207 0.58569 0.0
C1704 C 0.32689 0.76266 0.5427 0.0
H1705 H 0.35291 0.80025 0.57269 0.0
C1706 C 0.36586 0.83631 0.54548 0.0
O1707 O 0.31467 0.87782 0.52948 0.0
O1708 O 0.30501 0.85147 0.55238 0.0
N1709 N 0.32924 0.77448 0.50659 0.0
C1710 C 0.32576 0.77218 0.48472 0.0
C1711 C 0.31363 0.75429 0.47702 0.0
C1712 C 0.30524 0.73897 0.4919 0.0
C1713 C 0.30957 0.7413 0.51429 0.0
C1714 C 0.32215 0.75923 0.52094 0.0
H1715 H 0.33179 0.78413 0.47331 0.0
O1716 O 0.29564 0.83617 0.51016 0.0
O1717 O 0.31995 0.81467 0.5259 0.0
O1718 O 0.34025 0.84633 0.49701 0.0
O1719 O 0.35304 0.81177 0.49411 0.0
C1720 C 0.30133 0.72698 0.53034 0.0
C1721 C 0.30611 0.73052 0.55262 0.0
H1722 H 0.31824 0.74294 0.59388 0.0
H1723 H 0.34017 0.77599 0.60253 0.0
H1724 H 0.31035 0.75258 0.45971 0.0
H1725 H 0.29514 0.72578 0.48597 0.0
H1726 H 0.29092 0.71347 0.52582 0.0
H1727 H 0.29955 0.71944 0.56479 0.0
H1728 H 0.14957 0.41183 0.28621 0.0
H1729 H 0.03948 0.40892 0.2154 0.0
H1730 H 0.09818 0.45972 0.29312 0.0
H1731 H 0.08627 0.35613 0.21781 0.0
H1732 H 0.0616 0.42907 0.24212 0.0
H1733 H 0.12714 0.39212 0.25978 0.0
C1734 C 0.13349 0.41813 0.28226 0.0
C1735 C 0.12572 0.43743 0.29189 0.0
C1736 C 0.06701 0.41309 0.23675 0.0
C1737 C 0.1 0.41505 0.26141 0.0
C1738 C 0.05447 0.40165 0.22142 0.0
C1739 C 0.06105 0.38083 0.21439 0.0
C1740 C 0.0863 0.40366 0.24496 0.0
C1741 C 0.08055 0.37212 0.2228 0.0
C1742 C 0.12069 0.40688 0.26713 0.0
C1743 C 0.10477 0.44484 0.28613 0.0
N1744 N 0.09246 0.38357 0.23761 0.0
N1745 N 0.09266 0.4337 0.27117 0.0
H1746 H 0.5852 0.05023 0.18682 0.0
H1747 H 0.54473 0.08505 0.30562 0.0
H1748 H 0.62729 0.04634 0.24327 0.0
H1749 H 0.53551 0.12709 0.24978 0.0
H1750 H 0.56518 0.05934 0.28222 0.0
H1751 H 0.55691 0.06754 0.20979 0.0
C1752 C 0.58826 0.05265 0.20411 0.0
C1753 C 0.60854 0.04719 0.21325 0.0
C1754 C 0.55817 0.07397 0.2751 0.0
C1755 C 0.57641 0.06605 0.23938 0.0
C1756 C 0.5465 0.0885 0.28833 0.0
C1757 C 0.53867 0.10811 0.27948 0.0
C1758 C 0.56132 0.07896 0.25291 0.0
C1759 C 0.5415 0.11212 0.2571 0.0
C1760 C 0.57222 0.06246 0.2171 0.0
C1761 C 0.61188 0.05063 0.23566 0.0
N1762 N 0.55265 0.09764 0.24451 0.0
N1763 N 0.59594 0.05984 0.24803 0.0
H1764 H 0.96864 0.58482 0.2138 0.0
H1765 H 0.84824 0.56936 0.26249 0.0
H1766 H 0.91369 0.62749 0.20215 0.0
H1767 H 0.90312 0.533 0.28807 0.0
H1768 H 0.87208 0.58658 0.23621 0.0
H1769 H 0.94501 0.56164 0.23696 0.0
C1770 C 0.95156 0.58907 0.21582 0.0
C1771 C 0.94306 0.60811 0.2062 0.0
C1772 C 0.87908 0.57488 0.24751 0.0
C1773 C 0.91624 0.58197 0.23242 0.0
C1774 C 0.86541 0.56499 0.26265 0.0
C1775 C 0.87373 0.54988 0.27776 0.0
C1776 C 0.90144 0.56986 0.24736 0.0
C1777 C 0.8961 0.54472 0.27682 0.0
C1778 C 0.93819 0.57598 0.22913 0.0
C1779 C 0.92096 0.61306 0.20941 0.0
N1780 N 0.9093 0.55484 0.26191 0.0
N1781 N 0.90839 0.60014 0.22224 0.0
H1782 H 0.47087 0.90884 0.29307 0.0
H1783 H 0.41182 0.96334 0.21009 0.0
H1784 H 0.42552 0.85618 0.28073 0.0
H1785 H 0.36153 0.91627 0.22556 0.0
H1786 H 0.43677 0.94399 0.23493 0.0
H1787 H 0.45018 0.93199 0.2677 0.0
C1788 C 0.45661 0.90215 0.28497 0.0
C1789 C 0.44991 0.88055 0.28898 0.0
C1790 C 0.42019 0.9381 0.23311 0.0
C1791 C 0.42646 0.90669 0.25967 0.0
C1792 C 0.40604 0.94901 0.21875 0.0
C1793 C 0.38456 0.94147 0.21585 0.0
C1794 C 0.4127 0.91953 0.24447 0.0
C1795 C 0.3779 0.92278 0.22737 0.0
C1796 C 0.44495 0.91529 0.27029 0.0
C1797 C 0.43133 0.8727 0.27811 0.0
N1798 N 0.39191 0.91247 0.24105 0.0
N1799 N 0.42024 0.88578 0.26407 0.0
H1800 H 0.15114 0.58892 0.71839 0.0
H1801 H 0.03718 0.59663 0.78233 0.0
H1802 H 0.09873 0.54232 0.71041 0.0
H1803 H 0.08409 0.64932 0.78003 0.0
H1804 H 0.06074 0.5752 0.75813 0.0
H1805 H 0.1278 0.6103 0.74287 0.0
C1806 C 0.1347 0.58324 0.72172 0.0
C1807 C 0.12685 0.56384 0.71234 0.0
C1808 C 0.06588 0.59145 0.76294 0.0
C1809 C 0.10015 0.58807 0.74046 0.0
C1810 C 0.05248 0.60364 0.77683 0.0
C1811 C 0.05868 0.62479 0.78317 0.0
C1812 C 0.08567 0.60042 0.75546 0.0
C1813 C 0.07866 0.6331 0.7755 0.0
C1814 C 0.12139 0.59543 0.7357 0.0
C1815 C 0.10543 0.55721 0.71724 0.0
N1816 N 0.09145 0.62088 0.76206 0.0
N1817 N 0.09286 0.56926 0.73103 0.0
H1818 H 0.40771 0.0331 0.78551 0.0
H1819 H 0.42485 0.14732 0.72469 0.0
H1820 H 0.35841 0.08323 0.77917 0.0
H1821 H 0.4655 0.09156 0.70972 0.0
H1822 H 0.40351 0.12481 0.74937 0.0
H1823 H 0.43209 0.05498 0.76196 0.0
C1824 C 0.40208 0.0487 0.77927 0.0
C1825 C 0.38101 0.05637 0.78424 0.0
C1826 C 0.41707 0.11741 0.74071 0.0
C1827 C 0.40864 0.0813 0.75767 0.0
C1828 C 0.42934 0.13029 0.72661 0.0
C1829 C 0.44693 0.12127 0.71499 0.0
C1830 C 0.42238 0.09526 0.74343 0.0
C1831 C 0.45197 0.09909 0.71828 0.0
C1832 C 0.41592 0.06107 0.76581 0.0
C1833 C 0.37446 0.07661 0.77571 0.0
N1834 N 0.43972 0.08677 0.73226 0.0
N1835 N 0.38822 0.08835 0.76294 0.0
H1836 H 0.91377 0.46435 0.71234 0.0
H1837 H 0.97392 0.40751 0.79313 0.0
H1838 H 0.86194 0.41958 0.72945 0.0
H1839 H 0.9218 0.36018 0.78832 0.0
H1840 H 0.95351 0.43178 0.76857 0.0
H1841 H 0.93792 0.4454 0.73817 0.0
C1842 C 0.90748 0.45061 0.72158 0.0
C1843 C 0.88583 0.44353 0.71871 0.0
C1844 C 0.94661 0.41604 0.77271 0.0
C1845 C 0.91308 0.42207 0.74862 0.0
C1846 C 0.95816 0.40229 0.78697 0.0
C1847 C 0.94959 0.38176 0.79266 0.0
C1848 C 0.92639 0.40908 0.76419 0.0
C1849 C 0.92913 0.37578 0.78427 0.0
C1850 C 0.92121 0.43991 0.73652 0.0
C1851 C 0.87849 0.42566 0.73106 0.0
N1852 N 0.9183 0.38934 0.7705 0.0
N1853 N 0.89207 0.41558 0.74535 0.0
H1854 H 0.65011 0.91889 0.78133 0.0
H1855 H 0.53761 0.91003 0.7151 0.0
H1856 H 0.59583 0.96226 0.7938 0.0
H1857 H 0.58663 0.85933 0.71795 0.0
H1858 H 0.55976 0.93206 0.74053 0.0
H1859 H 0.62802 0.89942 0.75464 0.0
C1860 C 0.63349 0.92432 0.77847 0.0
C1861 C 0.62476 0.94216 0.78989 0.0
C1862 C 0.56561 0.91612 0.73548 0.0
C1863 C 0.5993 0.91991 0.75914 0.0
C1864 C 0.55307 0.90364 0.72092 0.0
C1865 C 0.56028 0.88282 0.7145 0.0
C1866 C 0.58552 0.90774 0.74335 0.0
C1867 C 0.58036 0.87523 0.72256 0.0
C1868 C 0.62086 0.91316 0.76321 0.0
C1869 C 0.60313 0.94848 0.78543 0.0
N1870 N 0.59224 0.88767 0.73651 0.0
N1871 N 0.59109 0.93736 0.77033 0.0
H1872 H 0.21066 0.03687 0.40245 0.0
H1873 H 0.29236 0.13877 0.40927 0.0
H1874 H 0.22544 0.08068 0.34906 0.0
H1875 H 0.28789 0.09105 0.46106 0.0
H1876 H 0.26762 0.11687 0.38729 0.0
H1877 H 0.23818 0.05595 0.42488 0.0
C1878 C 0.21962 0.05047 0.39549 0.0
C1879 C 0.21569 0.05724 0.3739 0.0
C1880 C 0.2721 0.11099 0.40338 0.0
C1881 C 0.24706 0.07891 0.39923 0.0
C1882 C 0.28629 0.12352 0.41594 0.0
C1883 C 0.29212 0.11673 0.43701 0.0
C1884 C 0.26337 0.09156 0.41199 0.0
C1885 C 0.28382 0.09678 0.44481 0.0
C1886 C 0.23536 0.06126 0.40822 0.0
C1887 C 0.22783 0.07486 0.36562 0.0
N1888 N 0.26963 0.08494 0.43235 0.0
N1889 N 0.24285 0.08505 0.37828 0.0
H1890 H 0.84595 0.2854 0.41134 0.0
H1891 H 0.95847 0.21951 0.40283 0.0
H1892 H 0.89962 0.29521 0.4561 0.0
H1893 H 0.91102 0.22253 0.35065 0.0
H1894 H 0.93618 0.24525 0.42395 0.0
H1895 H 0.86887 0.26078 0.38985 0.0
C1896 C 0.86263 0.2825 0.41655 0.0
C1897 C 0.87091 0.29237 0.43553 0.0
C1898 C 0.93068 0.24026 0.40788 0.0
C1899 C 0.89715 0.26394 0.41117 0.0
C1900 C 0.94331 0.22548 0.39588 0.0
C1901 C 0.93657 0.21887 0.37497 0.0
C1902 C 0.91109 0.24831 0.39895 0.0
C1903 C 0.91685 0.2272 0.3667 0.0
C1904 C 0.8757 0.26842 0.40429 0.0
C1905 C 0.89263 0.288 0.44153 0.0
N1906 N 0.90479 0.24144 0.37873 0.0
N1907 N 0.90497 0.27397 0.42947 0.0
H1908 H 0.72357 0.85644 0.41889 0.0
H1909 H 0.79236 0.96668 0.40505 0.0
H1910 H 0.72073 0.90837 0.46662 0.0
H1911 H 0.7813 0.91944 0.35377 0.0
H1912 H 0.76831 0.94527 0.42919 0.0
H1913 H 0.7469 0.87902 0.3961 0.0
C1914 C 0.72784 0.87267 0.42458 0.0
C1915 C 0.72019 0.88054 0.4447 0.0
C1916 C 0.77117 0.93969 0.41263 0.0
C1917 C 0.74712 0.90661 0.41856 0.0
C1918 C 0.78494 0.95182 0.3989 0.0
C1919 C 0.78885 0.9448 0.3774 0.0
C1920 C 0.76151 0.92039 0.40475 0.0
C1921 C 0.77877 0.9255 0.37021 0.0
C1922 C 0.74116 0.8856 0.4115 0.0
C1923 C 0.72624 0.90173 0.45117 0.0
N1924 N 0.76565 0.91399 0.38385 0.0
N1925 N 0.73948 0.91406 0.43815 0.0
H1926 H 0.03957 0.79057 0.40341 0.0
H1927 H 0.15113 0.72433 0.41755 0.0
H1928 H 0.08683 0.78069 0.35194 0.0
H1929 H 0.09712 0.71568 0.46217 0.0
H1930 H 0.12875 0.74859 0.39551 0.0
H1931 H 0.06137 0.76664 0.42732 0.0
C1932 C 0.05456 0.78348 0.3972 0.0
C1933 C 0.06142 0.78761 0.37567 0.0
C1934 C 0.12169 0.74139 0.41008 0.0
C1935 C 0.0863 0.76043 0.40281 0.0
C1936 C 0.13451 0.72754 0.42275 0.0
C1937 C 0.12596 0.71791 0.44173 0.0
C1938 C 0.10013 0.7459 0.41643 0.0
C1939 C 0.10428 0.72271 0.44759 0.0
C1940 C 0.06689 0.76977 0.41079 0.0
C1941 C 0.08088 0.77794 0.36839 0.0
N1942 N 0.09207 0.73648 0.43499 0.0
N1943 N 0.09263 0.76489 0.38193 0.0
H1944 H 0.21014 0.96748 0.59363 0.0
H1945 H 0.29309 0.86673 0.58956 0.0
H1946 H 0.22766 0.92736 0.64904 0.0
H1947 H 0.28672 0.91187 0.53569 0.0
H1948 H 0.26904 0.88961 0.61128 0.0
H1949 H 0.23765 0.94803 0.5716 0.0
C1950 C 0.21975 0.95464 0.60115 0.0
C1951 C 0.21651 0.94893 0.62316 0.0
C1952 C 0.27295 0.89472 0.59478 0.0
C1953 C 0.24786 0.92681 0.59822 0.0
C1954 C 0.28671 0.88162 0.58235 0.0
C1955 C 0.29181 0.88738 0.56078 0.0
C1956 C 0.26387 0.91368 0.58556 0.0
C1957 C 0.2832 0.90691 0.55232 0.0
C1958 C 0.23548 0.94363 0.58862 0.0
C1959 C 0.22947 0.93227 0.63213 0.0
N1960 N 0.26939 0.91931 0.56468 0.0
N1961 N 0.24445 0.9218 0.61963 0.0
H1962 H 0.03298 0.21175 0.59246 0.0
H1963 H 0.14792 0.27322 0.58415 0.0
H1964 H 0.08091 0.21358 0.64425 0.0
H1965 H 0.09499 0.28641 0.53932 0.0
H1966 H 0.12437 0.24836 0.60426 0.0
H1967 H 0.05629 0.23615 0.57067 0.0
C1968 C 0.04844 0.21718 0.59919 0.0
C1969 C 0.05504 0.21065 0.6202 0.0
C1970 C 0.11782 0.25669 0.59006 0.0
C1971 C 0.08165 0.23842 0.59545 0.0
C1972 C 0.13129 0.27089 0.5785 0.0
C1973 C 0.12338 0.28196 0.56003 0.0
C1974 C 0.09623 0.25331 0.58309 0.0
C1975 C 0.10168 0.27825 0.55353 0.0
C1976 C 0.06165 0.23116 0.5868 0.0
C1977 C 0.07516 0.21822 0.62816 0.0
N1978 N 0.08882 0.26415 0.56504 0.0
N1979 N 0.08774 0.23165 0.61577 0.0
H1980 H 0.78157 0.03419 0.59321 0.0
H1981 H 0.71107 0.14345 0.57905 0.0
H1982 H 0.76908 0.08033 0.64515 0.0
H1983 H 0.70968 0.09105 0.53178 0.0
H1984 H 0.73465 0.12132 0.60234 0.0
H1985 H 0.75755 0.05562 0.56915 0.0
C1986 C 0.77382 0.04881 0.59953 0.0
C1987 C 0.77731 0.05549 0.6212 0.0
C1988 C 0.72915 0.11459 0.58691 0.0
C1989 C 0.75001 0.08001 0.59389 0.0
C1990 C 0.7157 0.12725 0.57359 0.0
C1991 C 0.70838 0.11906 0.55347 0.0
C1992 C 0.73554 0.09363 0.58003 0.0
C1993 C 0.71491 0.09795 0.54723 0.0
C1994 C 0.76008 0.06097 0.58584 0.0
C1995 C 0.76684 0.07453 0.62858 0.0
N1996 N 0.72822 0.08596 0.56043 0.0
N1997 N 0.75375 0.08612 0.61495 0.0
H1998 H 0.84996 0.71472 0.58584 0.0
H1999 H 0.9567 0.7902 0.59281 0.0
H2000 H 0.90357 0.71015 0.54017 0.0
H2001 H 0.90921 0.78476 0.64474 0.0
H2002 H 0.93605 0.76312 0.57172 0.0
H2003 H 0.87039 0.74215 0.60646 0.0
C2004 C 0.8661 0.71939 0.58022 0.0
C2005 C 0.8751 0.7101 0.56128 0.0
C2006 C 0.93013 0.76791 0.58771 0.0
C2007 C 0.89848 0.74172 0.58467 0.0
C2008 C 0.94183 0.78346 0.59969 0.0
C2009 C 0.93467 0.78972 0.62057 0.0
C2010 C 0.91108 0.75867 0.59663 0.0
C2011 C 0.91536 0.78038 0.62873 0.0
C2012 C 0.87774 0.73509 0.59199 0.0
C2013 C 0.89605 0.71682 0.55474 0.0
N2014 N 0.90425 0.76533 0.61675 0.0
N2015 N 0.90699 0.73231 0.56636 0.0
H2016 H 0.40784 0.28164 0.14847 0.0
H2017 H 0.40107 0.20663 0.04151 0.0
H2018 H 0.45314 0.28701 0.09462 0.0
H2019 H 0.34887 0.212 0.0887 0.0
H2020 H 0.42197 0.23379 0.06221 0.0
H2021 H 0.38718 0.25437 0.12787 0.0
C2022 C 0.41336 0.2772 0.13223 0.0
C2023 C 0.43223 0.28664 0.12322 0.0
C2024 C 0.40597 0.22897 0.06805 0.0
C2025 C 0.40881 0.25519 0.09967 0.0
C2026 C 0.39409 0.21336 0.05634 0.0
C2027 C 0.37319 0.20706 0.0634 0.0
C2028 C 0.39693 0.23821 0.08704 0.0
C2029 C 0.36491 0.2164 0.08265 0.0
C2030 C 0.40157 0.26159 0.1205 0.0
C2031 C 0.43863 0.28022 0.10214 0.0
N2032 N 0.3768 0.2315 0.09379 0.0
N2033 N 0.42701 0.26478 0.09112 0.0
H2034 H 0.34595 0.78239 0.91029 0.0
H2035 H 0.45754 0.71441 0.90286 0.0
H2036 H 0.39868 0.7891 0.95674 0.0
H2037 H 0.41052 0.71802 0.85032 0.0
H2038 H 0.43495 0.73963 0.9242 0.0
H2039 H 0.36841 0.757 0.88911 0.0
C2040 C 0.3623 0.77861 0.91598 0.0
C2041 C 0.37048 0.78789 0.93529 0.0
C2042 C 0.42957 0.73487 0.90801 0.0
C2043 C 0.39617 0.75868 0.91127 0.0
C2044 C 0.4424 0.72039 0.89587 0.0
C2045 C 0.4359 0.71414 0.87478 0.0
C2046 C 0.41005 0.74302 0.89903 0.0
C2047 C 0.41617 0.72245 0.8665 0.0
C2048 C 0.3751 0.7641 0.90389 0.0
C2049 C 0.39176 0.78237 0.9419 0.0
N2050 N 0.40395 0.73645 0.87865 0.0
N2051 N 0.40384 0.76805 0.92997 0.0
H2052 H 0.28421 0.41526 0.85508 0.0
H2053 H 0.21629 0.4087 0.96622 0.0
H2054 H 0.29358 0.46179 0.90731 0.0
H2055 H 0.22601 0.35392 0.92278 0.0
H2056 H 0.24143 0.43043 0.94356 0.0
H2057 H 0.25968 0.39439 0.87852 0.0
C2058 C 0.28115 0.42105 0.87154 0.0
C2059 C 0.29096 0.44025 0.87929 0.0
C2060 C 0.23802 0.41364 0.93908 0.0
C2061 C 0.26269 0.41652 0.90618 0.0
C2062 C 0.22362 0.4013 0.9519 0.0
C2063 C 0.21909 0.3795 0.94635 0.0
C2064 C 0.24761 0.40413 0.92049 0.0
C2065 C 0.22908 0.37065 0.9277 0.0
C2066 C 0.26716 0.40911 0.88493 0.0
C2067 C 0.28641 0.44699 0.90076 0.0
N2068 N 0.24278 0.38301 0.91542 0.0
N2069 N 0.27245 0.43519 0.91347 0.0
H2070 H 0.59645 0.21607 0.9632 0.0
H2071 H 0.59475 0.29266 0.85698 0.0
H2072 H 0.64929 0.22168 0.91674 0.0
H2073 H 0.54172 0.29137 0.90349 0.0
H2074 H 0.61521 0.26755 0.87999 0.0
H2075 H 0.57595 0.24369 0.9424 0.0
C2076 C 0.60367 0.22299 0.94858 0.0
C2077 C 0.62458 0.21651 0.94165 0.0
C2078 C 0.59917 0.2728 0.88534 0.0
C2079 C 0.6014 0.24818 0.91801 0.0
C2080 C 0.58749 0.28724 0.87221 0.0
C2081 C 0.56647 0.29404 0.87829 0.0
C2082 C 0.58975 0.26484 0.90471 0.0
C2083 C 0.55793 0.28656 0.89825 0.0
C2084 C 0.59203 0.23883 0.93681 0.0
C2085 C 0.63322 0.22612 0.9227 0.0
N2086 N 0.56954 0.27215 0.9107 0.0
N2087 N 0.62161 0.24141 0.91159 0.0
H2088 H 0.71212 0.53425 0.90589 0.0
H2089 H 0.77398 0.64707 0.92589 0.0
H2090 H 0.72125 0.58443 0.85705 0.0
H2091 H 0.7901 0.59018 0.96454 0.0
H2092 H 0.74943 0.625 0.90405 0.0
H2093 H 0.73617 0.55502 0.93081 0.0
C2094 C 0.71911 0.54959 0.90045 0.0
C2095 C 0.7147 0.55765 0.87939 0.0
C2096 C 0.75831 0.61725 0.91728 0.0
C2097 C 0.74178 0.58132 0.90764 0.0
C2098 C 0.77233 0.62988 0.92986 0.0
C2099 C 0.78426 0.62043 0.94702 0.0
C2100 C 0.75593 0.59491 0.92183 0.0
C2101 C 0.78129 0.59805 0.95135 0.0
C2102 C 0.73286 0.56132 0.9146 0.0
C2103 C 0.72421 0.57753 0.87309 0.0
N2104 N 0.76735 0.58596 0.9388 0.0
N2105 N 0.73716 0.58868 0.88716 0.0
H2106 H 0.53872 0.71614 0.10015 0.0
H2107 H 0.64603 0.79079 0.09879 0.0
H2108 H 0.58344 0.72183 0.15447 0.0
H2109 H 0.59749 0.79248 0.0476 0.0
H2110 H 0.62288 0.76585 0.11952 0.0
H2111 H 0.56001 0.74367 0.08031 0.0
C2112 C 0.55309 0.72308 0.10785 0.0
C2113 C 0.55937 0.71662 0.12897 0.0
C2114 C 0.61715 0.77179 0.10384 0.0
C2115 C 0.58366 0.74822 0.10646 0.0
C2116 C 0.63035 0.7861 0.09202 0.0
C2117 C 0.6237 0.79366 0.07141 0.0
C2118 C 0.59719 0.76475 0.09493 0.0
C2119 C 0.6032 0.78707 0.06346 0.0
C2120 C 0.56514 0.73889 0.09657 0.0
C2121 C 0.57802 0.72626 0.13821 0.0
N2122 N 0.59075 0.7728 0.07515 0.0
N2123 N 0.5895 0.74153 0.12689 0.0
H2124 H 0.20813 0.58912 0.03067 0.0
H2125 H 0.27637 0.58353 0.14177 0.0
H2126 H 0.21914 0.64385 0.07389 0.0
H2127 H 0.28389 0.5345 0.09155 0.0
H2128 H 0.25208 0.60388 0.11793 0.0
H2129 H 0.23276 0.56688 0.05354 0.0
C2130 C 0.21565 0.59641 0.04495 0.0
C2131 C 0.21159 0.61834 0.05042 0.0
C2132 C 0.25905 0.58871 0.112 0.0
C2133 C 0.23949 0.59316 0.07647 0.0
C2134 C 0.27291 0.57702 0.12566 0.0
C2135 C 0.2822 0.55729 0.11862 0.0
C2136 C 0.25418 0.58063 0.09109 0.0
C2137 C 0.27712 0.54972 0.09754 0.0
C2138 C 0.22974 0.58377 0.05789 0.0
C2139 C 0.2218 0.62704 0.06901 0.0
N2140 N 0.26332 0.56138 0.08447 0.0
N2141 N 0.23517 0.61442 0.08135 0.0
H2142 H 0.72533 0.42439 0.14196 0.0
H2143 H 0.78796 0.41026 0.02816 0.0
H2144 H 0.70937 0.46516 0.08654 0.0
H2145 H 0.78375 0.36139 0.07894 0.0
H2146 H 0.7634 0.43394 0.04982 0.0
H2147 H 0.75149 0.40478 0.11972 0.0
C2148 C 0.72731 0.42926 0.12504 0.0
C2149 C 0.71495 0.44635 0.11606 0.0
C2150 C 0.76796 0.41803 0.0561 0.0
C2151 C 0.74514 0.4237 0.09027 0.0
C2152 C 0.78201 0.4046 0.04385 0.0
C2153 C 0.78781 0.38382 0.05175 0.0
C2154 C 0.76012 0.41062 0.07641 0.0
C2155 C 0.77962 0.3772 0.0721 0.0
C2156 C 0.7423 0.41798 0.1123 0.0
C2157 C 0.71847 0.45196 0.09404 0.0
N2158 N 0.7663 0.39053 0.08367 0.0
N2159 N 0.73327 0.44059 0.08179 0.0
H2160 H 0.02475 0.21942 0.29631 0.0
H2161 H 0.97324 0.30198 0.21339 0.0
H2162 H 0.95781 0.21209 0.27565 0.0
H2163 H 0.04045 0.28204 0.20658 0.0
H2164 H 0.96694 0.27092 0.23811 0.0
H2165 H 0.03117 0.24426 0.26535 0.0
C2166 C 0.01153 0.22287 0.28503 0.0
C2167 C 0.99089 0.21346 0.28811 0.0
C2168 C 0.98296 0.27314 0.2309 0.0
C2169 C 0.99778 0.2423 0.2534 0.0
C2170 C 0.98655 0.29082 0.21691 0.0
C2171 C 0.00723 0.29413 0.20768 0.0
C2172 C 0.00046 0.25933 0.23642 0.0
C2173 C 0.02414 0.27963 0.21306 0.0
C2174 C 0.01518 0.23691 0.26739 0.0
C2175 C 0.97408 0.21871 0.27343 0.0
N2176 N 0.02047 0.26295 0.22731 0.0
N2177 N 0.97781 0.23301 0.25681 0.0
H2178 H 0.79443 0.95903 0.27567 0.0
H2179 H 0.7013 0.97171 0.21083 0.0
H2180 H 0.78376 0.0258 0.29527 0.0
H2181 H 0.70743 0.04048 0.22449 0.0
H2182 H 0.73162 0.96434 0.2359 0.0
H2183 H 0.76526 0.96249 0.24876 0.0
C2184 C 0.78627 0.97463 0.27384 0.0
C2185 C 0.79191 0.99237 0.2872 0.0
C2186 C 0.72673 0.98111 0.23325 0.0
C2187 C 0.75688 0.99595 0.25791 0.0
C2188 C 0.70925 0.98524 0.21906 0.0
C2189 C 0.70271 0.00677 0.21493 0.0
C2190 C 0.73747 0.99874 0.24353 0.0
C2191 C 0.71274 0.02371 0.2266 0.0
C2192 C 0.76905 0.97643 0.25892 0.0
C2193 C 0.78008 0.01185 0.285 0.0
N2194 N 0.72972 0.01936 0.24024 0.0
N2195 N 0.76311 0.01311 0.2707 0.0
H2196 H 0.02634 0.69224 0.22094 0.0
H2197 H 0.97252 0.78255 0.29806 0.0
H2198 H 0.95732 0.70595 0.21874 0.0
H2199 H 0.03942 0.78555 0.27624 0.0
H2200 H 0.96606 0.75196 0.27271 0.0
H2201 H 0.03119 0.72272 0.24669 0.0
C2202 C 0.01224 0.70173 0.22593 0.0
C2203 C 0.99162 0.69746 0.217 0.0
C2204 C 0.98206 0.75952 0.2733 0.0
C2205 C 0.99681 0.73171 0.24676 0.0
C2206 C 0.98569 0.77701 0.28758 0.0
C2207 C 0.00639 0.78676 0.28884 0.0
C2208 C 0.99951 0.75127 0.26086 0.0
C2209 C 0.02308 0.77878 0.27533 0.0
C2210 C 0.01498 0.71907 0.24056 0.0
C2211 C 0.97365 0.7095 0.2246 0.0
N2212 N 0.01936 0.76133 0.26207 0.0
N2213 N 0.97665 0.72621 0.239 0.0
H2214 H 0.20609 0.97451 0.29035 0.0
H2215 H 0.29586 0.02394 0.2088 0.0
H2216 H 0.21059 0.04306 0.27481 0.0
H2217 H 0.28703 0.95501 0.22015 0.0
H2218 H 0.26425 0.03149 0.23247 0.0
H2219 H 0.23433 0.96682 0.26299 0.0
C2220 C 0.21274 0.98785 0.28076 0.0
C2221 C 0.20582 0.00935 0.28442 0.0
C2222 C 0.26913 0.0147 0.22969 0.0
C2223 C 0.23872 0.00095 0.25391 0.0
C2224 C 0.28713 0.01045 0.21625 0.0
C2225 C 0.29335 0.98884 0.21202 0.0
C2226 C 0.25773 0.99717 0.23931 0.0
C2227 C 0.28213 0.97187 0.2225 0.0
C2228 C 0.22894 0.98353 0.26529 0.0
C2229 C 0.21516 0.02619 0.27199 0.0
N2230 N 0.26479 0.97637 0.2356 0.0
N2231 N 0.23129 0.02167 0.25739 0.0
H2232 H 0.03783 0.72509 0.79212 0.0
H2233 H 0.0221 0.78754 0.69805 0.0
H2234 H 0.97192 0.70445 0.7783 0.0
H2235 H 0.95586 0.79481 0.72085 0.0
H2236 H 0.0294 0.76232 0.72842 0.0
H2237 H 0.03284 0.75636 0.76736 0.0
C2238 C 0.0222 0.72741 0.78412 0.0
C2239 C 0.00511 0.7125 0.78741 0.0
C2240 C 0.01342 0.76984 0.7271 0.0
C2241 C 0.99955 0.74754 0.75866 0.0
C2242 C 0.00924 0.78405 0.70973 0.0
C2243 C 0.98857 0.79361 0.70744 0.0
C2244 C 0.99653 0.76456 0.74176 0.0
C2245 C 0.97219 0.78817 0.72253 0.0
C2246 C 0.01946 0.74503 0.76984 0.0
C2247 C 0.98537 0.71577 0.77625 0.0
N2248 N 0.97644 0.77375 0.73895 0.0
N2249 N 0.98306 0.73305 0.76243 0.0
H2250 H 0.20546 0.03075 0.70702 0.0
H2251 H 0.29169 0.97242 0.78641 0.0
H2252 H 0.20446 0.96172 0.72095 0.0
H2253 H 0.28522 0.04231 0.78072 0.0
H2254 H 0.25974 0.96795 0.76232 0.0
H2255 H 0.23378 0.03558 0.73502 0.0
C2256 C 0.21086 0.01673 0.71641 0.0
C2257 C 0.2024 0.99592 0.71206 0.0
C2258 C 0.26524 0.98427 0.76643 0.0
C2259 C 0.23538 0.00101 0.74331 0.0
C2260 C 0.28344 0.98677 0.78009 0.0
C2261 C 0.2905 0.00773 0.78596 0.0
C2262 C 0.25448 0.00291 0.75823 0.0
C2263 C 0.27977 0.02587 0.77699 0.0
C2264 C 0.22711 0.01941 0.73225 0.0
C2265 C 0.21019 0.97814 0.72428 0.0
N2266 N 0.26227 0.02307 0.76361 0.0
N2267 N 0.22642 0.98104 0.73921 0.0
H2268 H 0.9674 0.21547 0.69732 0.0
H2269 H 0.95749 0.28431 0.7885 0.0
H2270 H 0.03239 0.20335 0.7216 0.0
H2271 H 0.02672 0.2933 0.77931 0.0
H2272 H 0.95821 0.25408 0.7622 0.0
H2273 H 0.96215 0.24291 0.72602 0.0
C2274 C 0.98032 0.21823 0.70913 0.0
C2275 C 0.00014 0.20687 0.70749 0.0
C2276 C 0.97323 0.26273 0.76576 0.0
C2277 C 0.99456 0.23852 0.74001 0.0
C2278 C 0.97286 0.27978 0.78094 0.0
C2279 C 0.99221 0.29075 0.78646 0.0
C2280 C 0.99314 0.25667 0.75601 0.0
C2281 C 0.01158 0.28486 0.77575 0.0
C2282 C 0.97734 0.23384 0.72552 0.0
C2283 C 0.01666 0.2114 0.72274 0.0
N2284 N 0.01164 0.26795 0.76127 0.0
N2285 N 0.01361 0.2271 0.73821 0.0
H2286 H 0.78435 0.9717 0.71049 0.0
H2287 H 0.7046 0.02846 0.79694 0.0
H2288 H 0.77826 0.04154 0.71713 0.0
H2289 H 0.72219 0.96032 0.79985 0.0
H2290 H 0.73221 0.03395 0.76834 0.0
H2291 H 0.76127 0.96701 0.74311 0.0
C2292 C 0.77819 0.98599 0.71894 0.0
C2293 C 0.78361 0.007 0.71168 0.0
C2294 C 0.73033 0.01786 0.77551 0.0
C2295 C 0.75695 0.00193 0.74845 0.0
C2296 C 0.71469 0.0148 0.79189 0.0
C2297 C 0.71149 0.99404 0.80096 0.0
C2298 C 0.74232 -0.00016 0.76772 0.0
C2299 C 0.7246 0.97671 0.79362 0.0
C2300 C 0.7651 0.98337 0.73753 0.0
C2301 C 0.77485 0.02507 0.7227 0.0
N2302 N 0.73929 0.97993 0.77725 0.0
N2303 N 0.76196 0.02215 0.74054 0.0
H2304 H 0.21459 0.29701 0.03772 0.0
H2305 H 0.27273 0.19849 0.04257 0.0
H2306 H 0.22025 0.28977 0.9679 0.0
H2307 H 0.29778 0.21793 0.97965 0.0
H2308 H 0.24553 0.22788 0.04044 0.0
H2309 H 0.23883 0.26519 0.04251 0.0
C2310 C 0.2209 0.2886 0.02347 0.0
C2311 C 0.21501 0.29541 0.00243 0.0
C2312 C 0.25698 0.22576 0.02711 0.0
C2313 C 0.24255 0.25932 0.00758 0.0
C2314 C 0.27213 0.20866 0.02808 0.0
C2315 C 0.28722 0.20564 0.01108 0.0
C2316 C 0.25719 0.24006 0.0091 0.0
C2317 C 0.28627 0.21967 0.993 0.0
C2318 C 0.23452 0.27036 0.02615 0.0
C2319 C 0.224 0.28451 0.9844 0.0
N2320 N 0.27149 0.23626 0.99246 0.0
N2321 N 0.23734 0.26703 0.98737 0.0
H2322 H 0.20774 0.70437 0.96222 0.0
H2323 H 0.2934 0.78185 0.02211 0.0
H2324 H 0.2127 0.70867 0.03235 0.0
H2325 H 0.27017 0.79562 0.95705 0.0
H2326 H 0.2651 0.75372 0.02588 0.0
H2327 H 0.2327 0.73594 0.95903 0.0
C2328 C 0.2141 0.71201 0.97687 0.0
C2329 C 0.20786 0.70443 0.99756 0.0
C2330 C 0.26594 0.76311 0.01089 0.0
C2331 C 0.23655 0.73986 0.99416 0.0
C2332 C 0.282 0.77919 0.00881 0.0
C2333 C 0.28381 0.79119 0.98941 0.0
C2334 C 0.25211 0.75847 0.99312 0.0
C2335 C 0.26896 0.78694 0.97243 0.0
C2336 C 0.22821 0.73 0.9751 0.0
C2337 C 0.2168 0.71446 0.01612 0.0
N2338 N 0.25387 0.7707 0.97456 0.0
N2339 N 0.23071 0.73162 0.014 0.0
H2340 H 0.78449 0.28997 0.03939 0.0
H2341 H 0.72618 0.20479 0.95881 0.0
H2342 H 0.79243 0.29238 0.96946 0.0
H2343 H 0.70416 0.21787 0.02442 0.0
H2344 H 0.75568 0.23171 0.96376 0.0
H2345 H 0.75927 0.2592 0.03524 0.0
C2346 C 0.781 0.28381 0.02315 0.0
C2347 C 0.79086 0.29323 0.00476 0.0
C2348 C 0.74454 0.22847 0.97714 0.0
C2349 C 0.76191 0.25823 -0.00019 0.0
C2350 C 0.72795 0.21294 0.97443 0.0
C2351 C 0.71304 0.20894 0.99139 0.0
C2352 C 0.74602 0.24013 0.99689 0.0
C2353 C 0.7155 0.2204 0.01106 0.0
C2354 C 0.76656 0.26635 0.02077 0.0
C2355 C 0.78538 0.28519 0.98402 0.0
N2356 N 0.73166 0.23548 0.01328 0.0
N2357 N 0.77138 0.26795 0.98208 0.0
H2358 H 0.79479 0.69739 0.03612 0.0
H2359 H 0.72055 0.78347 0.05519 0.0
H2360 H 0.79115 0.71892 0.96917 0.0
H2361 H 0.70284 0.77339 0.9878 0.0
H2362 H 0.75027 0.75694 0.05109 0.0
H2363 H 0.76591 0.72344 0.0457 0.0
C2364 C 0.78836 0.70818 0.02362 0.0
C2365 C 0.79573 0.70654 0.00199 0.0
C2366 C 0.73976 0.76021 0.03724 0.0
C2367 C 0.76234 0.7359 0.01254 0.0
C2368 C 0.72301 0.77557 0.03953 0.0
C2369 C 0.70996 0.78113 0.02153 0.0
C2370 C 0.74347 0.75051 0.01673 0.0
C2371 C 0.71306 0.76992 0.00183 0.0
C2372 C 0.77184 0.72301 0.02904 0.0
C2373 C 0.78643 0.72027 0.98617 0.0
N2374 N 0.72984 0.75546 -0.0002 0.0
N2375 N 0.77005 0.73421 0.99172 0.0
H2376 H 0.45879 0.70657 0.77314 0.0
H2377 H 0.54311 0.78833 0.7159 0.0
H2378 H 0.52361 0.71811 0.79818 0.0
H2379 H 0.4734 0.79787 0.71288 0.0
H2380 H 0.5375 0.75727 0.74066 0.0
H2381 H 0.46546 0.73397 0.7444 0.0
C2382 C 0.47461 0.71448 0.77218 0.0
C2383 C 0.49084 0.70997 0.78774 0.0
C2384 C 0.52342 0.76607 0.7345 0.0
C2385 C 0.49829 0.74155 0.7556 0.0
C2386 C 0.52661 0.78367 0.72034 0.0
C2387 C 0.50863 0.79513 0.71198 0.0
C2388 C 0.50209 0.75986 0.74021 0.0
C2389 C 0.4876 0.78904 0.7187 0.0
C2390 C 0.47828 0.73027 0.75605 0.0
C2391 C 0.51081 0.72108 0.78631 0.0
N2392 N 0.48485 0.77158 0.73226 0.0
N2393 N 0.51401 0.73636 0.7705 0.0
H2394 H 0.29147 0.5304 0.79608 0.0
H2395 H 0.20399 0.47578 0.71685 0.0
H2396 H 0.28634 0.46066 0.78771 0.0
H2397 H 0.22849 0.54085 0.70554 0.0
H2398 H 0.2325 0.47022 0.74449 0.0
H2399 H 0.2659 0.53549 0.76526 0.0
C2400 C 0.28494 0.51623 0.78771 0.0
C2401 C 0.29135 0.49513 0.7939 0.0
C2402 C 0.23188 0.48561 0.73575 0.0
C2403 C 0.26193 0.50067 0.75931 0.0
C2404 C 0.21571 0.48872 0.71994 0.0
C2405 C 0.21419 0.50864 0.70876 0.0
C2406 C 0.24613 0.50286 0.74098 0.0
C2407 C 0.22945 0.52509 0.71357 0.0
C2408 C 0.27048 0.51909 0.77014 0.0
C2409 C 0.28214 0.47721 0.78298 0.0
N2410 N 0.24465 0.52196 0.72956 0.0
N2411 N 0.26788 0.48036 0.76625 0.0
H2412 H 0.48247 0.27838 0.79936 0.0
H2413 H 0.46508 0.2198 0.7051 0.0
H2414 H 0.54978 0.28254 0.77919 0.0
H2415 H 0.53274 0.20082 0.70978 0.0
H2416 H 0.47108 0.24733 0.73323 0.0
H2417 H 0.47569 0.25188 0.77015 0.0
C2418 C 0.49573 0.27383 0.78853 0.0
C2419 C 0.51636 0.28345 0.79072 0.0
C2420 C 0.48466 0.23714 0.72824 0.0
C2421 C 0.5089 0.25326 0.75735 0.0
C2422 C 0.48138 0.22189 0.71165 0.0
C2423 C 0.4986 0.20849 0.70471 0.0
C2424 C 0.50519 0.23857 0.73845 0.0
C2425 C 0.51914 0.2111 0.71456 0.0
C2426 C 0.49186 0.25887 0.77176 0.0
C2427 C 0.53337 0.27623 0.77716 0.0
N2428 N 0.52191 0.22588 0.73098 0.0
N2429 N 0.52925 0.26161 0.76089 0.0
H2430 H 0.78728 0.45409 0.71874 0.0
H2431 H 0.71252 0.54374 0.77819 0.0
H2432 H 0.79733 0.52354 0.71294 0.0
H2433 H 0.70978 0.47503 0.79341 0.0
H2434 H 0.7397 0.53612 0.74983 0.0
H2435 H 0.75596 0.46093 0.74286 0.0
C2436 C 0.78262 0.47079 0.72237 0.0
C2437 C 0.79425 0.48834 0.71334 0.0
C2438 C 0.73298 0.52264 0.75915 0.0
C2439 C 0.75888 0.49633 0.7411 0.0
C2440 C 0.71723 0.52695 0.77507 0.0
C2441 C 0.70856 0.50989 0.78765 0.0
C2442 C 0.74047 0.50113 0.75616 0.0
C2443 C 0.71592 0.48855 0.78376 0.0
C2444 C 0.76488 0.4747 0.7362 0.0
C2445 C 0.78832 0.50965 0.7192 0.0
N2446 N 0.73151 0.48475 0.76836 0.0
N2447 N 0.77088 0.51308 0.73256 0.0
H2448 H 0.53754 0.20362 0.27481 0.0
H2449 H 0.5211 0.27989 0.19226 0.0
H2450 H 0.46782 0.20649 0.28407 0.0
H2451 H 0.46015 0.29451 0.2243 0.0
H2452 H 0.52771 0.25083 0.21856 0.0
H2453 H 0.53535 0.23434 0.2497 0.0
C2454 C 0.5217 0.2108 0.27139 0.0
C2455 C 0.50291 0.20301 0.28186 0.0
C2456 C 0.51323 0.26076 0.22053 0.0
C2457 C 0.49993 0.23774 0.25224 0.0
C2458 C 0.50946 0.27736 0.20538 0.0
C2459 C 0.49036 0.28991 0.20649 0.0
C2460 C 0.49762 0.25646 0.23688 0.0
C2461 C 0.47542 0.28561 0.22335 0.0
C2462 C 0.52036 0.22819 0.25675 0.0
C2463 C 0.48271 0.21238 0.27653 0.0
N2464 N 0.47928 0.26911 0.23781 0.0
N2465 N 0.48176 0.22948 0.26224 0.0
H2466 H 0.78265 0.47399 0.28839 0.0
H2467 H 0.70018 0.52787 0.20229 0.0
H2468 H 0.77602 0.54348 0.27913 0.0
H2469 H 0.7042 0.45861 0.21443 0.0
H2470 H 0.72526 0.5343 0.23297 0.0
H2471 H 0.75176 0.46809 0.26346 0.0
C2472 C 0.77444 0.48797 0.28124 0.0
C2473 C 0.78127 0.50923 0.28622 0.0
C2474 C 0.7204 0.51771 0.22917 0.0
C2475 C 0.74651 0.50276 0.25731 0.0
C2476 C 0.70607 0.51409 0.21175 0.0
C2477 C 0.69988 0.49276 0.20625 0.0
C2478 C 0.72905 0.49977 0.2407 0.0
C2479 C 0.70821 0.47535 0.2186 0.0
C2480 C 0.75685 0.48466 0.26706 0.0
C2481 C 0.77067 0.52686 0.27616 0.0
N2482 N 0.72248 0.47921 0.23517 0.0
N2483 N 0.7538 0.52325 0.26215 0.0
H2484 H 0.47324 0.7172 0.20697 0.0
H2485 H 0.53437 0.79305 0.29208 0.0
H2486 H 0.53919 0.7035 0.22755 0.0
H2487 H 0.46428 0.78622 0.2915 0.0
H2488 H 0.53716 0.76148 0.26717 0.0
H2489 H 0.46967 0.7434 0.23712 0.0
C2490 C 0.4868 0.71946 0.21815 0.0
C2491 C 0.50638 0.70803 0.21509 0.0
C2492 C 0.5212 0.76677 0.27271 0.0
C2493 C 0.50284 0.73853 0.24893 0.0
C2494 C 0.51964 0.78476 0.28679 0.0
C2495 C 0.49911 0.79178 0.2941 0.0
C2496 C 0.50203 0.75637 0.26536 0.0
C2497 C 0.48042 0.78091 0.28652 0.0
C2498 C 0.48481 0.7344 0.23529 0.0
C2499 C 0.52367 0.71176 0.2297 0.0
N2500 N 0.4823 0.76382 0.27247 0.0
N2501 N 0.52162 0.72693 0.24585 0.0
H2502 H 0.28416 0.54484 0.21501 0.0
H2503 H 0.20038 0.52443 0.2886 0.0
H2504 H 0.28677 0.47484 0.20791 0.0
H2505 H 0.22915 0.46071 0.29696 0.0
H2506 H 0.22768 0.5329 0.2609 0.0
H2507 H 0.26059 0.54055 0.24686 0.0
C2508 C 0.27971 0.52852 0.2203 0.0
C2509 C 0.28774 0.51015 0.20928 0.0
C2510 C 0.22867 0.51732 0.26921 0.0
C2511 C 0.25977 0.50496 0.24507 0.0
C2512 C 0.21295 0.51248 0.28498 0.0
C2513 C 0.2129 0.49209 0.29536 0.0
C2514 C 0.24431 0.50146 0.26347 0.0
C2515 C 0.22908 0.47686 0.2897 0.0
C2516 C 0.26597 0.52604 0.2383 0.0
C2517 C 0.2811 0.48937 0.21629 0.0
N2518 N 0.24405 0.48178 0.27395 0.0
N2519 N 0.2676 0.48731 0.2339 0.0
H2520 H 0.7762 0.69876 0.53833 0.0
H2521 H 0.71845 0.78562 0.45971 0.0
H2522 H 0.79994 0.71305 0.47355 0.0
H2523 H 0.71852 0.79216 0.52984 0.0
H2524 H 0.74192 0.75324 0.46301 0.0
H2525 H 0.74757 0.72657 0.53356 0.0
C2526 C 0.77495 0.70734 0.52288 0.0
C2527 C 0.79015 0.7035 0.50615 0.0
C2528 C 0.73669 0.76167 0.47767 0.0
C2529 C 0.75809 0.73557 0.50087 0.0
C2530 C 0.72328 0.78001 0.47581 0.0
C2531 C 0.71627 0.79111 0.49458 0.0
C2532 C 0.74302 0.75435 0.49847 0.0
C2533 C 0.72336 0.78371 0.51505 0.0
C2534 C 0.75887 0.72337 0.5203 0.0
C2535 C 0.78836 0.71549 0.48672 0.0
N2536 N 0.73623 0.76559 0.51651 0.0
N2537 N 0.7726 0.73102 0.48459 0.0
H2538 H 0.69695 0.21956 0.5324 0.0
H2539 H 0.79346 0.28064 0.52709 0.0
H2540 H 0.71611 0.1978 0.46819 0.0
H2541 H 0.77909 0.28512 0.45828 0.0
H2542 H 0.76341 0.25409 0.53115 0.0
H2543 H 0.72445 0.24874 0.53031 0.0
C2544 C 0.70661 0.22129 0.51765 0.0
C2545 C 0.70415 0.20649 0.5003 0.0
C2546 C 0.76668 0.2611 0.51522 0.0
C2547 C 0.73614 0.23909 0.49818 0.0
C2548 C 0.78387 0.27606 0.51292 0.0
C2549 C 0.78813 0.28548 0.49249 0.0
C2550 C 0.75421 0.25515 0.4968 0.0
C2551 C 0.77579 0.27861 0.47442 0.0
C2552 C 0.72257 0.23763 0.51666 0.0
C2553 C 0.71747 0.20901 0.48183 0.0
N2554 N 0.75942 0.26379 0.47697 0.0
N2555 N 0.73286 0.22507 0.48119 0.0
H2556 H 0.2828 0.80379 0.47673 0.0
H2557 H 0.20639 0.71273 0.53003 0.0
H2558 H 0.28519 0.78891 0.54552 0.0
H2559 H 0.22366 0.71335 0.46175 0.0
H2560 H 0.2335 0.74167 0.53672 0.0
H2561 H 0.25784 0.77281 0.47128 0.0
C2562 C 0.27806 0.79388 0.49063 0.0
C2563 C 0.28669 0.79812 0.51139 0.0
C2564 C 0.23161 0.7352 0.52034 0.0
C2565 C 0.25786 0.76322 0.50553 0.0
C2566 C 0.2163 0.71865 0.51658 0.0
C2567 C 0.2132 0.71046 0.49542 0.0
C2568 C 0.24327 0.74407 0.50264 0.0
C2569 C 0.226 0.7189 0.47839 0.0
C2570 C 0.26391 0.77623 0.48755 0.0
C2571 C 0.27949 0.78547 0.52911 0.0
N2572 N 0.24032 0.73543 0.48232 0.0
N2573 N 0.26551 0.76849 0.52578 0.0
H2574 H 0.20612 0.29044 0.47437 0.0
H2575 H 0.27969 0.1953 0.52434 0.0
H2576 H 0.22211 0.28617 0.54284 0.0
H2577 H 0.28452 0.21433 0.4567 0.0
H2578 H 0.25472 0.2261 0.53081 0.0
H2579 H 0.23275 0.26132 0.46675 0.0
C2580 C 0.21568 0.2837 0.48768 0.0
C2581 C 0.21233 0.29088 0.50917 0.0
C2582 C 0.2613 0.22359 0.51457 0.0
C2583 C 0.24178 0.25702 0.50084 0.0
C2584 C 0.27544 0.20604 0.5109 0.0
C2585 C 0.28478 0.20306 0.49024 0.0
C2586 C 0.25602 0.23775 0.49724 0.0
C2587 C 0.27824 0.21678 0.47308 0.0
C2588 C 0.23069 0.26702 0.48338 0.0
C2589 C 0.22466 0.28139 0.52598 0.0
N2590 N 0.26429 0.23365 0.47696 0.0
N2591 N 0.23867 0.26474 0.52151 0.0
H2592 H 0.03126 0.33523 0.09096 0.0
H2593 H 0.1512 0.36155 0.04702 0.0
H2594 H 0.0817 0.36221 0.13218 0.0
H2595 H 0.10054 0.32866 0.01059 0.0
H2596 H 0.12451 0.3693 0.07613 0.0
H2597 H 0.05457 0.34075 0.05921 0.0
C2598 C 0.0472 0.34264 0.09323 0.0
C2599 C 0.05473 0.34801 0.11418 0.0
C2600 C 0.11921 0.36072 0.06158 0.0
C2601 C 0.08184 0.35389 0.07793 0.0
C2602 C 0.13439 0.35638 0.04496 0.0
C2603 C 0.12809 0.34418 0.02656 0.0
C2604 C 0.09767 0.35294 0.05955 0.0
C2605 C 0.10617 0.3378 0.02467 0.0
C2606 C 0.06055 0.34576 0.0751 0.0
C2607 C 0.07538 0.35781 0.11623 0.0
N2608 N 0.09184 0.34211 0.04101 0.0
N2609 N 0.08846 0.36007 0.09833 0.0
H2610 H 0.63197 0.06423 0.1192 0.0
H2611 H 0.69129 0.16136 0.05536 0.0
H2612 H 0.69134 0.09647 0.13941 0.0
H2613 H 0.63665 0.12605 0.02839 0.0
H2614 H 0.68546 0.14325 0.09036 0.0
H2615 H 0.62771 0.09165 0.08996 0.0
C2616 C 0.64378 0.07736 0.11782 0.0
C2617 C 0.66219 0.07796 0.13152 0.0
C2618 C 0.67449 0.13959 0.07695 0.0
C2619 C 0.65748 0.10915 0.09837 0.0
C2620 C 0.67784 0.14996 0.05698 0.0
C2621 C 0.66459 0.14493 0.03905 0.0
C2622 C 0.65806 0.12364 0.07888 0.0
C2623 C 0.64719 0.13029 0.04197 0.0
C2624 C 0.64142 0.09291 0.10111 0.0
C2625 C 0.67707 0.09521 0.12903 0.0
N2626 N 0.64464 0.11977 0.06147 0.0
N2627 N 0.67448 0.10995 0.1127 0.0
H2628 H 0.9268 0.63337 0.1282 0.0
H2629 H 0.9065 0.6792 0.00731 0.0
H2630 H 0.96751 0.68037 0.09485 0.0
H2631 H 0.85867 0.63997 0.04127 0.0
H2632 H 0.93201 0.67348 0.03718 0.0
H2633 H 0.90458 0.62974 0.09478 0.0
C2634 C 0.93128 0.6426 0.11376 0.0
C2635 C 0.94886 0.65737 0.11434 0.0
C2636 C 0.91602 0.66593 0.03814 0.0
C2637 C 0.9237 0.65331 0.07629 0.0
C2638 C 0.90141 0.66919 0.02103 0.0
C2639 C 0.88029 0.66031 0.02193 0.0
C2640 C 0.9095 0.6539 0.05657 0.0
C2641 C 0.87478 0.64718 0.03997 0.0
C2642 C 0.91855 0.64061 0.09477 0.0
C2643 C 0.95392 0.66902 0.09525 0.0
N2644 N 0.88921 0.64462 0.0568 0.0
N2645 N 0.94137 0.66681 0.07712 0.0
H2646 H 0.35899 0.8804 0.02088 0.0
H2647 H 0.31419 0.89794 0.14093 0.0
H2648 H 0.31347 0.83752 0.05325 0.0
H2649 H 0.36482 0.93838 0.11326 0.0
H2650 H 0.31905 0.87189 0.11129 0.0
H2651 H 0.36668 0.89818 0.05615 0.0
C2652 C 0.35104 0.87444 0.03555 0.0
C2653 C 0.33537 0.85779 0.03432 0.0
C2654 C 0.32943 0.88623 0.11177 0.0
C2655 C 0.34374 0.87798 0.07436 0.0
C2656 C 0.32665 0.90108 0.12876 0.0
C2657 C 0.339 0.92034 0.12936 0.0
C2658 C 0.34424 0.89096 0.09486 0.0
C2659 C 0.35502 0.92364 0.11329 0.0
C2660 C 0.35534 0.88459 0.05561 0.0
C2661 C 0.32534 0.85063 0.05357 0.0
N2662 N 0.35687 0.9093 0.09635 0.0
N2663 N 0.32951 0.86092 0.07275 0.0
H2664 H 0.02583 0.6716 0.905 0.0
H2665 H 0.14401 0.63999 0.94992 0.0
H2666 H 0.07512 0.64178 0.86435 0.0
H2667 H 0.09351 0.67226 0.98711 0.0
H2668 H 0.11751 0.63386 0.92025 0.0
H2669 H 0.04849 0.66492 0.93697 0.0
C2670 C 0.04138 0.66337 0.90288 0.0
C2671 C 0.04878 0.6575 0.88202 0.0
C2672 C 0.1122 0.64195 0.93508 0.0
C2673 C 0.07518 0.6502 0.91857 0.0
C2674 C 0.12726 0.64535 0.95202 0.0
C2675 C 0.12097 0.65693 0.97081 0.0
C2676 C 0.09078 0.65007 0.93716 0.0
C2677 C 0.09913 0.6636 0.97273 0.0
C2678 C 0.05436 0.65956 0.92115 0.0
C2679 C 0.0689 0.64661 0.8802 0.0
N2680 N 0.08493 0.66023 0.95607 0.0
N2681 N 0.08166 0.64366 0.89824 0.0
H2682 H 0.30883 0.09453 0.86003 0.0
H2683 H 0.36009 0.11527 0.97675 0.0
H2684 H 0.36339 0.05696 0.8841 0.0
H2685 H 0.31355 0.15798 0.94563 0.0
H2686 H 0.36606 0.09682 0.94148 0.0
H2687 H 0.31449 0.12101 0.88916 0.0
C2688 C 0.32226 0.09208 0.87132 0.0
C2689 C 0.33554 0.0735 0.86985 0.0
C2690 C 0.3549 0.11054 0.94227 0.0
C2691 C 0.34183 0.10344 0.90373 0.0
C2692 C 0.3516 0.12109 0.96233 0.0
C2693 C 0.33608 0.13787 0.96398 0.0
C2694 C 0.34245 0.11685 0.92397 0.0
C2695 C 0.3253 0.14479 0.94504 0.0
C2696 C 0.32552 0.10721 0.88799 0.0
C2697 C 0.35281 0.07114 0.88476 0.0
N2698 N 0.32848 0.13409 0.92589 0.0
N2699 N 0.3552 0.08573 0.90143 0.0
H2700 H 0.85779 0.35685 0.95683 0.0
H2701 H 0.97147 0.31445 0.90834 0.0
H2702 H 0.90309 0.31421 0.99021 0.0
H2703 H 0.92858 0.35684 0.87177 0.0
H2704 H 0.94827 0.31883 0.94026 0.0
H2705 H 0.8847 0.3613 0.92721 0.0
C2706 C 0.87344 0.34866 0.95807 0.0
C2707 C 0.87806 0.33489 0.97589 0.0
C2708 C 0.9439 0.3274 0.92538 0.0
C2709 C 0.90879 0.33994 0.94225 0.0
C2710 C 0.95722 0.32491 0.90714 0.0
C2711 C 0.95181 0.33512 0.88735 0.0
C2712 C 0.9247 0.33992 0.92387 0.0
C2713 C 0.93328 0.34869 0.88677 0.0
C2714 C 0.88875 0.35118 0.94117 0.0
C2715 C 0.89861 0.3247 0.97667 0.0
N2716 N 0.92014 0.35044 0.90471 0.0
N2717 N 0.91306 0.32734 0.96009 0.0
H2718 H 0.63987 0.86401 0.97941 0.0
H2719 H 0.6918 0.90356 0.86627 0.0
H2720 H 0.70352 0.84625 0.95477 0.0
H2721 H 0.63827 0.93758 0.89691 0.0
H2722 H 0.68916 0.87494 0.89382 0.0
H2723 H 0.63283 0.88407 0.94517 0.0
C2724 C 0.65214 0.86391 0.96664 0.0
C2725 C 0.67241 0.85362 0.96999 0.0
C2726 C 0.67772 0.88846 0.89441 0.0
C2727 C 0.66442 0.87622 0.931 0.0
C2728 C 0.6792 0.90475 0.87864 0.0
C2729 C 0.66542 0.923 0.87956 0.0
C2730 C 0.66261 0.89058 0.91155 0.0
C2731 C 0.64919 0.92368 0.89575 0.0
C2732 C 0.64815 0.87542 0.9472 0.0
C2733 C 0.68778 0.8541 0.95301 0.0
N2734 N 0.64846 0.90786 0.91145 0.0
N2735 N 0.68351 0.86527 0.93436 0.0
H2736 H 0.1141 0.06285 0.36411 0.0
H2737 H 0.05327 0.16828 0.3164 0.0
H2738 H 0.13201 0.09783 0.30557 0.0
H2739 H 0.02221 0.12348 0.36099 0.0
H2740 H 0.08779 0.14878 0.32127 0.0
H2741 H 0.08567 0.09057 0.37127 0.0
C2742 C 0.11239 0.07662 0.3531 0.0
C2743 C 0.12519 0.07801 0.33411 0.0
C2744 C 0.07356 0.14341 0.33036 0.0
C2745 C 0.09317 0.10958 0.34221 0.0
C2746 C 0.05393 0.15459 0.32763 0.0
C2747 C 0.03503 0.14729 0.33821 0.0
C2748 C 0.07417 0.12455 0.34348 0.0
C2749 C 0.03659 0.12954 0.35264 0.0
C2750 C 0.09617 0.09232 0.35712 0.0
C2751 C 0.12233 0.09603 0.32026 0.0
N2752 N 0.05582 0.11847 0.3546 0.0
N2753 N 0.10659 0.11101 0.32452 0.0
H2754 H 0.91497 0.1371 0.35333 0.0
H2755 H 0.90214 0.01263 0.31783 0.0
H2756 H 0.96661 0.09654 0.32769 0.0
H2757 H 0.84962 0.04783 0.34906 0.0
H2758 H 0.92676 0.04265 0.32576 0.0
H2759 H 0.89167 0.10437 0.35676 0.0
C2760 C 0.92156 0.12124 0.349 0.0
C2761 C 0.94258 0.11944 0.33997 0.0
C2762 C 0.90992 0.04393 0.33108 0.0
C2763 C 0.91622 0.08228 0.3436 0.0
C2764 C 0.89581 0.02678 0.32643 0.0
C2765 C 0.87377 0.02795 0.33249 0.0
C2766 C 0.90194 0.06275 0.34153 0.0
C2767 C 0.86653 0.04643 0.34401 0.0
C2768 C 0.90826 0.10263 0.35081 0.0
C2769 C 0.95036 0.09864 0.33444 0.0
N2770 N 0.88054 0.06337 0.34787 0.0
N2771 N 0.93714 0.08097 0.33614 0.0
H2772 H 0.90617 0.96414 0.33051 0.0
H2773 H 0.95723 0.84532 0.35003 0.0
H2774 H 0.86581 0.90813 0.34455 0.0
H2775 H 0.98876 0.89859 0.31621 0.0
H2776 H 0.92565 0.86936 0.35731 0.0
H2777 H 0.93873 0.9417 0.33562 0.0
C2778 C 0.90428 0.94712 0.33513 0.0
C2779 C 0.88349 0.93782 0.33705 0.0
C2780 C 0.93965 0.87576 0.34856 0.0
C2781 C 0.92053 0.91187 0.34229 0.0
C2782 C 0.95763 0.86215 0.3445 0.0
C2783 C 0.97544 0.87 0.33232 0.0
C2784 C 0.93985 0.89737 0.34074 0.0
C2785 C 0.97522 0.89183 0.32541 0.0
C2786 C 0.92281 0.93429 0.33792 0.0
C2787 C 0.88171 0.91577 0.34302 0.0
N2788 N 0.95772 0.9047 0.32967 0.0
N2789 N 0.9001 0.90333 0.34513 0.0
H2790 H 0.10662 0.98241 0.29655 0.0
H2791 H 0.06478 0.88099 0.36159 0.0
H2792 H 0.14028 0.96918 0.35731 0.0
H2793 H 0.08008 0.87955 0.29265 0.0
H2794 H 0.08625 0.91515 0.36488 0.0
H2795 H 0.088 0.94759 0.29971 0.0
C2796 C 0.10998 0.97236 0.31074 0.0
C2797 C 0.12538 0.97874 0.32654 0.0
C2798 C 0.08508 0.90698 0.34921 0.0
C2799 C 0.1038 0.93859 0.33016 0.0
C2800 C 0.07296 0.88753 0.34731 0.0
C2801 C 0.07026 0.87763 0.32672 0.0
C2802 C 0.09412 0.91647 0.33033 0.0
C2803 C 0.08122 0.88681 0.30876 0.0
C2804 C 0.09936 0.95239 0.31243 0.0
C2805 C 0.1287 0.96485 0.34465 0.0
N2806 N 0.09228 0.90585 0.31092 0.0
N2807 N 0.11801 0.94527 0.34597 0.0
H2808 H 0.0211 0.87994 0.63276 0.0
H2809 H 0.1372 0.90453 0.68523 0.0
H2810 H 0.05103 0.8424 0.68429 0.0
H2811 H 0.11009 0.9434 0.63309 0.0
H2812 H 0.10914 0.87699 0.67904 0.0
H2813 H 0.05619 0.89876 0.62671 0.0
C2814 C 0.03523 0.8753 0.64238 0.0
C2815 C 0.03325 0.85992 0.65926 0.0
C2816 C 0.10943 0.89131 0.66862 0.0
C2817 C 0.07308 0.88129 0.65269 0.0
C2818 C 0.12553 0.90699 0.67214 0.0
C2819 C 0.12578 0.92623 0.65975 0.0
C2820 C 0.09303 0.89516 0.65298 0.0
C2821 C 0.11038 0.92867 0.64293 0.0
C2822 C 0.05518 0.88608 0.63903 0.0
C2823 C 0.05185 0.8545 0.67142 0.0
N2824 N 0.09426 0.9135 0.64032 0.0
N2825 N 0.0709 0.86532 0.66806 0.0
H2826 H 0.09165 0.0052 0.6739 0.0
H2827 H 0.07517 0.13027 0.64025 0.0
H2828 H 0.14344 0.04376 0.6455 0.0
H2829 H 0.02658 0.08945 0.67102 0.0
H2830 H 0.09878 0.0979 0.63584 0.0
H2831 H 0.06606 0.03468 0.66665 0.0
C2832 C 0.0976 0.01988 0.66596 0.0
C2833 C 0.11975 0.02217 0.66057 0.0
C2834 C 0.08278 0.09603 0.6432 0.0
C2835 C 0.09049 0.05637 0.65248 0.0
C2836 C 0.06929 0.11444 0.64559 0.0
C2837 C 0.04906 0.1125 0.65625 0.0
C2838 C 0.07579 0.07569 0.65141 0.0
C2839 C 0.04221 0.0917 0.663 0.0
C2840 C 0.08296 0.03676 0.66178 0.0
C2841 C 0.12648 0.04142 0.64998 0.0
N2842 N 0.05559 0.07421 0.66062 0.0
N2843 N 0.11195 0.05799 0.64658 0.0
H2844 H 0.93822 0.16293 0.67823 0.0
H2845 H 0.87535 0.05795 0.63257 0.0
H2846 H 0.96854 0.11567 0.63574 0.0
H2847 H 0.85833 0.09347 0.69106 0.0
H2848 H 0.90404 0.08518 0.625 0.0
H2849 H 0.90321 0.14415 0.6737 0.0
C2850 C 0.9373 0.14885 0.66754 0.0
C2851 C 0.95611 0.14061 0.65749 0.0
C2852 C 0.89369 0.08717 0.63923 0.0
C2853 C 0.91643 0.11887 0.6525 0.0
C2854 C 0.87731 0.07176 0.64349 0.0
C2855 C 0.86473 0.07341 0.6626 0.0
C2856 C 0.89709 0.10443 0.65402 0.0
C2857 C 0.86791 0.09148 0.67631 0.0
C2858 C 0.9174 0.13812 0.66499 0.0
C2859 C 0.95424 0.12243 0.64369 0.0
N2860 N 0.88385 0.1062 0.67182 0.0
N2861 N 0.93473 0.11188 0.64184 0.0
H2862 H 0.96416 0.912 0.67216 0.0
H2863 H 0.84505 0.95852 0.64495 0.0
H2864 H 0.91401 0.87227 0.64252 0.0
H2865 H 0.89505 0.99266 0.68122 0.0
H2866 H 0.87131 0.92887 0.63776 0.0
H2867 H 0.94068 0.94388 0.66862 0.0
C2868 C 0.94825 0.91008 0.66459 0.0
C2869 C 0.9409 0.88946 0.65784 0.0
C2870 C 0.87652 0.94299 0.64707 0.0
C2871 C 0.91356 0.9259 0.6542 0.0
C2872 C 0.86159 0.95992 0.65114 0.0
C2873 C 0.8678 0.97795 0.66395 0.0
C2874 C 0.89778 0.94431 0.65572 0.0
C2875 C 0.88941 0.97894 0.67156 0.0
C2876 C 0.93478 0.92829 0.66263 0.0
C2877 C 0.92025 0.88793 0.64793 0.0
N2878 N 0.90351 0.96236 0.66742 0.0
N2879 N 0.90708 0.90589 0.64673 0.0
H2880 H 0.31225 0.0019 0.10089 0.0
H2881 H 0.35449 0.12378 0.08065 0.0
H2882 H 0.35427 0.03511 0.14686 0.0
H2883 H 0.31588 0.08603 0.03523 0.0
H2884 H 0.35838 0.09096 0.10371 0.0
H2885 H 0.3169 0.0319 0.07536 0.0
C2886 C 0.32255 0.01553 0.1056 0.0
C2887 C 0.33268 0.0161 0.12615 0.0
C2888 C 0.34933 0.08987 0.08854 0.0
C2889 C 0.338 0.05088 0.09687 0.0
C2890 C 0.3472 0.10853 0.07535 0.0
C2891 C 0.33458 0.10768 0.05618 0.0
C2892 C 0.33882 0.07035 0.08236 0.0
C2893 C 0.32543 0.08756 0.05006 0.0
C2894 C 0.32528 0.03269 0.09094 0.0
C2895 C 0.34611 0.03406 0.13118 0.0
N2896 N 0.32759 0.06983 0.06316 0.0
N2897 N 0.34817 0.05093 0.11673 0.0
H2898 H 0.31878 0.99461 0.89929 0.0
H2899 H 0.35235 0.86957 0.91719 0.0
H2900 H 0.35103 0.95675 0.84927 0.0
H2901 H 0.31658 0.90933 0.96318 0.0
H2902 H 0.35769 0.90214 0.89405 0.0
H2903 H 0.32376 0.96465 0.92485 0.0
C2904 C 0.32707 0.97997 0.89373 0.0
C2905 C 0.33422 0.97804 0.87205 0.0
C2906 C 0.34895 0.90371 0.90937 0.0
C2907 C 0.33975 0.9433 0.90127 0.0
C2908 C 0.34599 0.88519 0.92259 0.0
C2909 C 0.33374 0.88674 0.94195 0.0
C2910 C 0.33974 0.9238 0.91576 0.0
C2911 C 0.32581 0.90732 0.94821 0.0
C2912 C 0.32994 0.96282 0.90836 0.0
C2913 C 0.3452 0.95883 0.86585 0.0
N2914 N 0.32882 0.92492 0.93512 0.0
N2915 N 0.34734 0.942 0.88033 0.0
H2916 H 0.03879 0.36236 0.86573 0.0
H2917 H 0.14262 0.30112 0.91623 0.0
H2918 H 0.05488 0.29414 0.85752 0.0
H2919 H 0.12105 0.36383 0.9402 0.0
H2920 H 0.11554 0.30311 0.88727 0.0
H2921 H 0.07307 0.3673 0.8864 0.0
C2922 C 0.04969 0.34856 0.86787 0.0
C2923 C 0.0439 0.32776 0.86002 0.0
C2924 C 0.11678 0.3166 0.89868 0.0
C2925 C 0.08291 0.33332 0.88331 0.0
C2926 C 0.13229 0.31547 0.91521 0.0
C2927 C 0.13379 0.33215 0.93082 0.0
C2928 C 0.10226 0.33435 0.89788 0.0
C2929 C 0.12027 0.35057 0.9285 0.0
C2930 C 0.06915 0.35138 0.87972 0.0
C2931 C 0.05852 0.31043 0.86335 0.0
N2932 N 0.10469 0.35102 0.91253 0.0
N2933 N 0.07722 0.3136 0.87475 0.0
H2934 H 0.66707 0.09271 0.97459 0.0
H2935 H 0.64285 0.03948 0.85787 0.0
H2936 H 0.64405 0.13052 0.91972 0.0
H2937 H 0.67542 0.00737 0.9116 0.0
H2938 H 0.63523 0.07085 0.8819 0.0
H2939 H 0.66139 0.05932 0.9537 0.0
C2940 C 0.66042 0.09389 0.9582 0.0
C2941 C 0.65624 0.11433 0.94873 0.0
C2942 C 0.64374 0.05676 0.88846 0.0
C2943 C 0.65026 0.07617 0.92439 0.0
C2944 C 0.648 0.03885 0.87481 0.0
C2945 C 0.66002 0.02094 0.88272 0.0
C2946 C 0.65136 0.05654 0.91014 0.0
C2947 C 0.66639 0.02097 0.90474 0.0
C2948 C 0.65726 0.07483 0.94622 0.0
C2949 C 0.64747 0.11501 0.92754 0.0
N2950 N 0.66211 0.03851 0.91758 0.0
N2951 N 0.64514 0.09616 0.91586 0.0
H2952 H 0.93949 0.68553 0.83365 0.0
H2953 H 0.88214 0.63 0.93694 0.0
H2954 H 0.97039 0.63511 0.87193 0.0
H2955 H 0.86408 0.69167 0.90788 0.0
H2956 H 0.90859 0.6243 0.90705 0.0
H2957 H 0.90557 0.67973 0.85386 0.0
C2958 C 0.93891 0.67289 0.84603 0.0
C2959 C 0.95766 0.66094 0.85139 0.0
C2960 C 0.89847 0.63884 0.90705 0.0
C2961 C 0.9192 0.65455 0.87497 0.0
C2962 C 0.88337 0.64204 0.92399 0.0
C2963 C 0.87119 0.66146 0.92494 0.0
C2964 C 0.90098 0.65503 0.89092 0.0
C2965 C 0.87339 0.67662 0.90791 0.0
C2966 C 0.9196 0.6696 0.85761 0.0
C2967 C 0.95614 0.6446 0.86739 0.0
N2968 N 0.88808 0.67315 0.8917 0.0
N2969 N 0.93729 0.64213 0.879 0.0
H2970 H 0.64268 0.9673 0.14064 0.0
H2971 H 0.70144 0.90328 0.04308 0.0
H2972 H 0.70075 0.98946 0.10706 0.0
H2973 H 0.64676 0.87643 0.0788 0.0
H2974 H 0.698 0.93701 0.06364 0.0
H2975 H 0.64077 0.93604 0.11568 0.0
C2976 C 0.65491 0.96575 0.12792 0.0
C2977 C 0.67203 0.98099 0.1261 0.0
C2978 C 0.68664 0.92384 0.06698 0.0
C2979 C 0.66989 0.94526 0.09754 0.0
C2980 C 0.6886 0.90449 0.05522 0.0
C2981 C 0.67454 0.88683 0.05941 0.0
C2982 C 0.67059 0.92566 0.08326 0.0
C2983 C 0.65801 0.88959 0.07511 0.0
C2984 C 0.65381 0.94786 0.11372 0.0
C2985 C 0.68737 0.97809 0.10928 0.0
N2986 N 0.65662 0.9086 0.08666 0.0
N2987 N 0.68597 0.96056 0.09577 0.0
H2988 H 0.05504 0.6925 0.15511 0.0
H2989 H 0.11655 0.63135 0.05751 0.0
H2990 H 0.03106 0.63226 0.12754 0.0
H2991 H 0.13142 0.69598 0.08154 0.0
H2992 H 0.08984 0.627 0.08739 0.0
H2993 H 0.08801 0.68918 0.13334 0.0
C2994 C 0.05683 0.67842 0.1446 0.0
C2995 C 0.04017 0.66284 0.14287 0.0
C2996 C 0.09923 0.64197 0.08623 0.0
C2997 C 0.07786 0.65906 0.11733 0.0
C2998 C 0.11449 0.64442 0.06928 0.0
C2999 C 0.12596 0.66418 0.0669 0.0
C3000 C 0.09576 0.65932 0.10093 0.0
C3001 C 0.12269 0.68062 0.08252 0.0
C3002 C 0.07571 0.6765 0.13211 0.0
C3003 C 0.04358 0.64466 0.12926 0.0
N3004 N 0.10786 0.67785 0.09873 0.0
N3005 N 0.06193 0.64345 0.11664 0.0
H3006 H 0.97543 0.36931 0.1204 0.0
H3007 H 0.86333 0.31205 0.0923 0.0
H3008 H 0.94449 0.32049 0.16064 0.0
H3009 H 0.88626 0.36843 0.05674 0.0
H3010 H 0.89043 0.319 0.12047 0.0
H3011 H 0.94096 0.37384 0.10012 0.0
C3012 C 0.96114 0.36009 0.12537 0.0
C3013 C 0.96266 0.34438 0.14199 0.0
C3014 C 0.88945 0.33012 0.10672 0.0
C3015 C 0.92363 0.34903 0.11881 0.0
C3016 C 0.87395 0.3261 0.09059 0.0
C3017 C 0.87276 0.33954 0.07209 0.0
C3018 C 0.90436 0.3474 0.10411 0.0
C3019 C 0.88676 0.35767 0.07079 0.0
C3020 C 0.94155 0.36255 0.11375 0.0
C3021 C 0.94394 0.33256 0.14771 0.0
N3022 N 0.90236 0.36084 0.0864 0.0
N3023 N 0.92529 0.33493 0.13597 0.0
H3024 H 0.60642 0.83483 0.5116 0.0
H3025 H 0.59126 0.85764 0.63953 0.0
H3026 H 0.66107 0.85089 0.55315 0.0
H3027 H 0.54505 0.82511 0.59738 0.0
H3028 H 0.61516 0.86394 0.60748 0.0
H3029 H 0.58169 0.84109 0.54208 0.0
C3030 C 0.61315 0.83994 0.52719 0.0
C3031 C 0.63576 0.84201 0.53006 0.0
C3032 C 0.59964 0.85569 0.60533 0.0
C3033 C 0.60759 0.84873 0.56526 0.0
C3034 C 0.58606 0.85218 0.6235 0.0
C3035 C 0.56642 0.84061 0.62096 0.0
C3036 C 0.59313 0.84792 0.58467 0.0
C3037 C 0.56026 0.83381 0.6 0.0
C3038 C 0.59905 0.84348 0.5446 0.0
C3039 C 0.64368 0.84903 0.55042 0.0
N3040 N 0.57357 0.83751 0.58274 0.0
N3041 N 0.62958 0.85177 0.56749 0.0
H3042 H 0.14727 0.58409 0.63155 0.0
H3043 H 0.17982 0.5992 0.5059 0.0
H3044 H 0.17948 0.53588 0.5914 0.0
H3045 H 0.15039 0.65111 0.54347 0.0
H3046 H 0.17361 0.57414 0.53605 0.0
H3047 H 0.14235 0.60722 0.59884 0.0
C3048 C 0.15289 0.57821 0.61581 0.0
C3049 C 0.16406 0.55822 0.61415 0.0
C3050 C 0.16829 0.59094 0.53779 0.0
C3051 C 0.15856 0.58436 0.57697 0.0
C3052 C 0.17185 0.60527 0.52052 0.0
C3053 C 0.16586 0.6273 0.52232 0.0
C3054 C 0.15901 0.59868 0.55733 0.0
C3055 C 0.15529 0.63422 0.5415 0.0
C3056 C 0.15018 0.59142 0.59722 0.0
C3057 C 0.17109 0.55135 0.59346 0.0
N3058 N 0.15251 0.62001 0.55849 0.0
N3059 N 0.16836 0.56442 0.5758 0.0
H3060 H 0.3384 0.18738 0.55509 0.0
H3061 H 0.44044 0.13135 0.61396 0.0
H3062 H 0.37588 0.13573 0.5253 0.0
H3063 H 0.4079 0.19016 0.6352 0.0
H3064 H 0.41174 0.12618 0.58612 0.0
H3065 H 0.35803 0.18166 0.58924 0.0
C3066 C 0.35068 0.17469 0.55585 0.0
C3067 C 0.35591 0.16233 0.53735 0.0
C3068 C 0.4107 0.13994 0.59722 0.0
C3069 C 0.37876 0.15581 0.57628 0.0
C3070 C 0.42695 0.1428 0.61313 0.0
C3071 C 0.42657 0.16134 0.62663 0.0
C3072 C 0.394 0.15563 0.59514 0.0
C3073 C 0.40892 0.17581 0.6249 0.0
C3074 C 0.36187 0.17135 0.57537 0.0
C3075 C 0.37154 0.14566 0.5393 0.0
N3076 N 0.39347 0.17274 0.60935 0.0
N3077 N 0.3828 0.14313 0.55837 0.0
H3078 H 0.84854 0.3404 0.5469 0.0
H3079 H 0.84741 0.45869 0.60252 0.0
H3080 H 0.82079 0.39826 0.51768 0.0
H3081 H 0.84225 0.39975 0.64074 0.0
H3082 H 0.85064 0.43654 0.56931 0.0
H3083 H 0.85817 0.36211 0.57954 0.0
C3084 C 0.84491 0.35774 0.54722 0.0
C3085 C 0.83377 0.36763 0.52976 0.0
C3086 C 0.84937 0.42842 0.58501 0.0
C3087 C 0.84495 0.39235 0.56647 0.0
C3088 C 0.84774 0.44102 0.6039 0.0
C3089 C 0.8448 0.43089 0.6242 0.0
C3090 C 0.84794 0.40556 0.58648 0.0
C3091 C 0.84479 0.40801 0.62528 0.0
C3092 C 0.85029 0.37002 0.56578 0.0
C3093 C 0.82922 0.39005 0.53092 0.0
N3094 N 0.84612 0.39601 0.60656 0.0
N3095 N 0.83483 0.40165 0.54896 0.0
H3096 H 0.59294 0.1792 0.3504 0.0
H3097 H 0.61577 0.12991 0.46764 0.0
H3098 H 0.55271 0.12871 0.37868 0.0
H3099 H 0.65775 0.17581 0.43464 0.0
H3100 H 0.5963 0.12346 0.43303 0.0
H3101 H 0.62056 0.17248 0.37817 0.0
C3102 C 0.59013 0.1664 0.3623 0.0
C3103 C 0.57048 0.15465 0.36245 0.0
C3104 C 0.6101 0.13455 0.43323 0.0
C3105 C 0.60178 0.14724 0.39485 0.0
C3106 C 0.62125 0.13811 0.45291 0.0
C3107 C 0.63815 0.15353 0.45382 0.0
C3108 C 0.61594 0.14667 0.41456 0.0
C3109 C 0.64458 0.164 0.43455 0.0
C3110 C 0.60591 0.16254 0.37821 0.0
C3111 C 0.5677 0.13812 0.3781 0.0
N3112 N 0.6333 0.16058 0.41576 0.0
N3113 N 0.583 0.1352 0.39404 0.0
H3114 H 0.86222 0.55346 0.38057 0.0
H3115 H 0.82778 0.66204 0.44485 0.0
H3116 H 0.80837 0.59551 0.36314 0.0
H3117 H 0.85829 0.60711 0.47667 0.0
H3118 H 0.83185 0.64346 0.40957 0.0
H3119 H 0.87131 0.57855 0.4108 0.0
C3120 C 0.8527 0.56824 0.38276 0.0
C3121 C 0.83443 0.57241 0.36953 0.0
C3122 C 0.8382 0.63572 0.42419 0.0
C3123 C 0.8448 0.60103 0.40358 0.0
C3124 C 0.83601 0.64636 0.44422 0.0
C3125 C 0.84282 0.63602 0.46346 0.0
C3126 C 0.84712 0.61456 0.4235 0.0
C3127 C 0.85306 0.61558 0.46202 0.0
C3128 C 0.85781 0.58243 0.40001 0.0
C3129 C 0.82247 0.59163 0.3731 0.0
N3130 N 0.8547 0.60533 0.44233 0.0
N3131 N 0.82781 0.60518 0.38981 0.0
H3132 H 0.37354 0.86819 0.47479 0.0
H3133 H 0.41548 0.80923 0.3659 0.0
H3134 H 0.35225 0.80541 0.45086 0.0
H3135 H 0.44837 0.86544 0.39279 0.0
H3136 H 0.38667 0.81335 0.39286 0.0
H3137 H 0.39584 0.87268 0.44143 0.0
C3138 C 0.37318 0.85561 0.46234 0.0
C3139 C 0.3612 0.83628 0.46566 0.0
C3140 C 0.40003 0.82498 0.39287 0.0
C3141 C 0.3864 0.84129 0.42774 0.0
C3142 C 0.4165 0.82261 0.37742 0.0
C3143 C 0.43446 0.8368 0.37736 0.0
C3144 C 0.40162 0.84144 0.4088 0.0
C3145 C 0.43476 0.85413 0.39241 0.0
C3146 C 0.38597 0.85811 0.44342 0.0
C3147 C 0.3614 0.82041 0.44916 0.0
N3148 N 0.41873 0.85576 0.40788 0.0
N3149 N 0.37383 0.82323 0.43106 0.0
H3150 H 0.14601 0.41715 0.37477 0.0
H3151 H 0.18306 0.40174 0.49895 0.0
H3152 H 0.18025 0.46525 0.41335 0.0
H3153 H 0.14839 0.35155 0.46352 0.0
H3154 H 0.177 0.42687 0.46883 0.0
H3155 H 0.14151 0.39461 0.40787 0.0
C3156 C 0.15214 0.42315 0.39026 0.0
C3157 C 0.16378 0.44291 0.39133 0.0
C3158 C 0.17051 0.41044 0.46757 0.0
C3159 C 0.15883 0.41737 0.42897 0.0
C3160 C 0.17402 0.39605 0.48482 0.0
C3161 C 0.16647 0.37445 0.48361 0.0
C3162 C 0.15966 0.40318 0.44867 0.0
C3163 C 0.15454 0.36808 0.46504 0.0
C3164 C 0.14969 0.41027 0.40909 0.0
C3165 C 0.17149 0.44995 0.41173 0.0
N3166 N 0.15178 0.38231 0.44808 0.0
N3167 N 0.16903 0.43714 0.42963 0.0
H3168 H 0.61624 0.56379 0.86567 0.0
H3169 H 0.55359 0.66584 0.81387 0.0
H3170 H 0.63622 0.59949 0.80824 0.0
H3171 H 0.52455 0.62352 0.8621 0.0
H3172 H 0.58875 0.64787 0.81962 0.0
H3173 H 0.58738 0.59118 0.87199 0.0
C3174 C 0.61491 0.57769 0.85476 0.0
C3175 C 0.62836 0.57931 0.83625 0.0
C3176 C 0.57483 0.64269 0.82927 0.0
C3177 C 0.59571 0.61046 0.84331 0.0
C3178 C 0.55481 0.65299 0.82599 0.0
C3179 C 0.53629 0.64591 0.83738 0.0
C3180 C 0.57621 0.62486 0.84371 0.0
C3181 C 0.53861 0.62936 0.85306 0.0
C3182 C 0.59842 0.5932 0.85829 0.0
C3183 C 0.62597 0.59749 0.82253 0.0
N3184 N 0.5582 0.61904 0.85551 0.0
N3185 N 0.60986 0.61223 0.82623 0.0
H3186 H 0.41912 0.6313 0.85785 0.0
H3187 H 0.40648 0.50601 0.82456 0.0
H3188 H 0.46846 0.59248 0.82572 0.0
H3189 H 0.35489 0.54218 0.85622 0.0
H3190 H 0.43147 0.53616 0.83139 0.0
H3191 H 0.39744 0.59788 0.86375 0.0
C3192 C 0.42558 0.6157 0.85249 0.0
C3193 C 0.44539 0.61462 0.84097 0.0
C3194 C 0.41477 0.53753 0.83711 0.0
C3195 C 0.42087 0.57661 0.84754 0.0
C3196 C 0.4005 0.52028 0.83319 0.0
C3197 C 0.37857 0.52177 0.83958 0.0
C3198 C 0.40699 0.55671 0.8471 0.0
C3199 C 0.37172 0.54048 0.85098 0.0
C3200 C 0.4132 0.59668 0.85576 0.0
C3201 C 0.45306 0.59408 0.83431 0.0
N3202 N 0.38581 0.55747 0.85404 0.0
N3203 N 0.44072 0.57598 0.83751 0.0
H3204 H 0.36787 0.41081 0.79817 0.0
H3205 H 0.4742 0.36494 0.85904 0.0
H3206 H 0.3887 0.43587 0.86071 0.0
H3207 H 0.45645 0.35302 0.79179 0.0
H3208 H 0.43961 0.38513 0.8639 0.0
H3209 H 0.3962 0.38308 0.80008 0.0
C3210 C 0.37831 0.4103 0.81247 0.0
C3211 C 0.37615 0.42585 0.82915 0.0
C3212 C 0.44326 0.37776 0.84822 0.0
C3213 C 0.40916 0.39429 0.83127 0.0
C3214 C 0.4629 0.36618 0.84546 0.0
C3215 C 0.46832 0.35739 0.82492 0.0
C3216 C 0.42894 0.38019 0.83039 0.0
C3217 C 0.45315 0.35959 0.80786 0.0
C3218 C 0.39456 0.39446 0.81355 0.0
C3219 C 0.38993 0.42419 0.84747 0.0
N3220 N 0.43431 0.37078 0.81097 0.0
N3221 N 0.40618 0.40889 0.84789 0.0
H3222 H 0.54008 0.40543 0.80401 0.0
H3223 H 0.64531 0.46491 0.853 0.0
H3224 H 0.58094 0.37504 0.85288 0.0
H3225 H 0.59935 0.49426 0.80812 0.0
H3226 H 0.62095 0.4331 0.85627 0.0
H3227 H 0.56042 0.4392 0.8083 0.0
C3228 C 0.55334 0.40591 0.81576 0.0
C3229 C 0.55899 0.38731 0.82792 0.0
C3230 C 0.61615 0.44666 0.84594 0.0
C3231 C 0.58268 0.42613 0.83283 0.0
C3232 C 0.63 0.46483 0.8441 0.0
C3233 C 0.62452 0.48217 0.83003 0.0
C3234 C 0.59673 0.44592 0.83364 0.0
C3235 C 0.60448 0.48118 0.8189 0.0
C3236 C 0.56496 0.42527 0.81826 0.0
C3237 C 0.5761 0.38902 0.84315 0.0
N3238 N 0.59147 0.46335 0.82083 0.0
N3239 N 0.58759 0.40805 0.84498 0.0
H3240 H 0.51768 0.37676 0.13027 0.0
H3241 H 0.63927 0.40048 0.17081 0.0
H3242 H 0.55162 0.34131 0.18082 0.0
H3243 H 0.6033 0.44469 0.12944 0.0
H3244 H 0.61086 0.37293 0.16571 0.0
H3245 H 0.55191 0.39615 0.12153 0.0
C3246 C 0.53249 0.37268 0.1391 0.0
C3247 C 0.53193 0.35769 0.15644 0.0
C3248 C 0.6093 0.38847 0.15735 0.0
C3249 C 0.5708 0.37962 0.14671 0.0
C3250 C 0.62558 0.40412 0.16018 0.0
C3251 C 0.62346 0.42478 0.1506 0.0
C3252 C 0.59049 0.39373 0.14525 0.0
C3253 C 0.60546 0.42882 0.13699 0.0
C3254 C 0.55193 0.38379 0.13422 0.0
C3255 C 0.55137 0.35303 0.16757 0.0
N3256 N 0.58937 0.41354 0.13503 0.0
N3257 N 0.56995 0.36407 0.16264 0.0
H3258 H 0.64451 0.5419 0.1411 0.0
H3259 H 0.52799 0.59221 0.17199 0.0
H3260 H 0.59158 0.50683 0.17186 0.0
H3261 H 0.58052 0.63187 0.14674 0.0
H3262 H 0.54954 0.55957 0.16509 0.0
H3263 H 0.62016 0.57367 0.13663 0.0
C3264 C 0.62769 0.54075 0.14653 0.0
C3265 C 0.6201 0.52182 0.15711 0.0
C3266 C 0.55642 0.57532 0.16082 0.0
C3267 C 0.59233 0.55788 0.15207 0.0
C3268 C 0.54407 0.59397 0.16474 0.0
C3269 C 0.55263 0.61472 0.16018 0.0
C3270 C 0.57777 0.57732 0.15262 0.0
C3271 C 0.5734 0.6161 0.15052 0.0
C3272 C 0.61386 0.55889 0.14407 0.0
C3273 C 0.59823 0.52119 0.16391 0.0
N3274 N 0.5855 0.59761 0.14739 0.0
N3275 N 0.58522 0.53895 0.16139 0.0
H3276 H 0.44214 0.66458 0.1811 0.0
H3277 H 0.38428 0.55805 0.1324 0.0
H3278 H 0.4753 0.61857 0.13936 0.0
H3279 H 0.36064 0.5963 0.18666 0.0
H3280 H 0.41324 0.58544 0.1264 0.0
H3281 H 0.40768 0.64548 0.17431 0.0
C3282 C 0.44197 0.65072 0.17006 0.0
C3283 C 0.46138 0.64299 0.1608 0.0
C3284 C 0.4014 0.588 0.13931 0.0
C3285 C 0.42233 0.62071 0.1534 0.0
C3286 C 0.38486 0.57249 0.14264 0.0
C3287 C 0.37031 0.57489 0.1602 0.0
C3288 C 0.40303 0.60604 0.15349 0.0
C3289 C 0.37175 0.59373 0.17314 0.0
C3290 C 0.42238 0.63976 0.16625 0.0
C3291 C 0.4605 0.62498 0.14666 0.0
N3292 N 0.3879 0.60848 0.16962 0.0
N3293 N 0.44128 0.61416 0.14363 0.0
H3294 H 0.46454 0.40872 0.17451 0.0
H3295 H 0.34803 0.45965 0.14414 0.0
H3296 H 0.41345 0.37054 0.1444 0.0
H3297 H 0.39858 0.49219 0.18112 0.0
H3298 H 0.37309 0.42873 0.13816 0.0
H3299 H 0.44226 0.44133 0.17046 0.0
C3300 C 0.44864 0.40727 0.16683 0.0
C3301 C 0.44068 0.38687 0.16006 0.0
C3302 C 0.37869 0.44277 0.14736 0.0
C3303 C 0.41475 0.42424 0.15569 0.0
C3304 C 0.36446 0.46042 0.15073 0.0
C3305 C 0.37116 0.47839 0.16339 0.0
C3306 C 0.39976 0.44331 0.15655 0.0
C3307 C 0.39258 0.47855 0.17155 0.0
C3308 C 0.43587 0.42592 0.16453 0.0
C3309 C 0.42012 0.38599 0.14989 0.0
N3310 N 0.40601 0.46129 0.16808 0.0
N3311 N 0.40764 0.40441 0.14832 0.0
H3312 H 0.85631 0.54074 0.65285 0.0
H3313 H 0.82723 0.58667 0.53373 0.0
H3314 H 0.81726 0.50782 0.60415 0.0
H3315 H 0.854 0.62833 0.58392 0.0
H3316 H 0.83124 0.55537 0.55785 0.0
H3317 H 0.86221 0.57101 0.62676 0.0
C3318 C 0.84917 0.5398 0.63667 0.0
C3319 C 0.83602 0.52191 0.63074 0.0
C3320 C 0.83645 0.57127 0.56366 0.0
C3321 C 0.84291 0.55603 0.60097 0.0
C3322 C 0.83422 0.58914 0.54983 0.0
C3323 C 0.84004 0.6101 0.55699 0.0
C3324 C 0.84421 0.57431 0.58506 0.0
C3325 C 0.8493 0.61237 0.57788 0.0
C3326 C 0.85251 0.55703 0.62185 0.0
C3327 C 0.82719 0.52144 0.60959 0.0
N3328 N 0.85078 0.59468 0.59141 0.0
N3329 N 0.83077 0.53819 0.59558 0.0
H3330 H 0.85135 0.46632 0.35707 0.0
H3331 H 0.78284 0.38584 0.43281 0.0
H3332 H 0.78739 0.4799 0.38388 0.0
H3333 H 0.85341 0.38212 0.43277 0.0
H3334 H 0.78468 0.41708 0.40879 0.0
H3335 H 0.85308 0.43306 0.3799 0.0
C3336 C 0.83776 0.46244 0.36774 0.0
C3337 C 0.81914 0.47597 0.3684 0.0
C3338 C 0.79983 0.40954 0.41401 0.0
C3339 C 0.82096 0.43802 0.39412 0.0
C3340 C 0.79883 0.39156 0.42778 0.0
C3341 C 0.81805 0.38144 0.43525 0.0
C3342 C 0.82018 0.41772 0.40738 0.0
C3343 C 0.83819 0.38952 0.42758 0.0
C3344 C 0.83881 0.44351 0.38074 0.0
C3345 C 0.80208 0.47011 0.38261 0.0
N3346 N 0.83877 0.40734 0.41409 0.0
N3347 N 0.80337 0.45161 0.39468 0.0
H3348 H 0.55353 0.84961 0.34675 0.0
H3349 H 0.60871 0.85513 0.46483 0.0
H3350 H 0.51888 0.8333 0.40597 0.0
H3351 H 0.64287 0.82935 0.40889 0.0
H3352 H 0.57612 0.86064 0.44191 0.0
H3353 H 0.58693 0.85539 0.36843 0.0
C3354 C 0.55285 0.8478 0.36436 0.0
C3355 C 0.53355 0.84093 0.37467 0.0
C3356 C 0.59094 0.85429 0.43459 0.0
C3357 C 0.5713 0.84775 0.39934 0.0
C3358 C 0.60949 0.85132 0.44754 0.0
C3359 C 0.62834 0.84199 0.43853 0.0
C3360 C 0.5915 0.84814 0.41249 0.0
C3361 C 0.62857 0.83678 0.41624 0.0
C3362 C 0.57186 0.85096 0.37663 0.0
C3363 C 0.53352 0.83849 0.39746 0.0
N3364 N 0.61034 0.8399 0.40389 0.0
N3365 N 0.55214 0.84192 0.40908 0.0
H3366 H 0.13646 0.61744 0.441 0.0
H3367 H 0.1904 0.55206 0.34166 0.0
H3368 H 0.19568 0.63551 0.4073 0.0
H3369 H 0.14138 0.52385 0.38363 0.0
H3370 H 0.18487 0.5874 0.35928 0.0
H3371 H 0.13096 0.58774 0.41431 0.0
C3372 C 0.14795 0.6155 0.42766 0.0
C3373 C 0.16667 0.6287 0.42639 0.0
C3374 C 0.17505 0.57361 0.3645 0.0
C3375 C 0.16053 0.59511 0.39606 0.0
C3376 C 0.17825 0.55346 0.35445 0.0
C3377 C 0.16658 0.53512 0.36153 0.0
C3378 C 0.16034 0.57533 0.38206 0.0
C3379 C 0.15071 0.53775 0.37785 0.0
C3380 C 0.14489 0.59853 0.41256 0.0
C3381 C 0.18118 0.62551 0.40897 0.0
N3382 N 0.14829 0.55748 0.38791 0.0
N3383 N 0.17788 0.60898 0.39461 0.0
H3384 H 0.48775 0.19208 0.3935 0.0
H3385 H 0.37263 0.13841 0.42452 0.0
H3386 H 0.45792 0.14102 0.35487 0.0
H3387 H 0.40534 0.18846 0.46205 0.0
H3388 H 0.40489 0.13604 0.40066 0.0
H3389 H 0.45882 0.18817 0.42038 0.0
C3390 C 0.47513 0.17997 0.39066 0.0
C3391 C 0.47521 0.16701 0.37173 0.0
C3392 C 0.40503 0.14734 0.41428 0.0
C3393 C 0.44174 0.16247 0.40264 0.0
C3394 C 0.38669 0.14862 0.42796 0.0
C3395 C 0.38618 0.16385 0.44514 0.0
C3396 C 0.42292 0.16134 0.41794 0.0
C3397 C 0.40483 0.17672 0.44882 0.0
C3398 C 0.45858 0.1777 0.40611 0.0
C3399 C 0.45849 0.15143 0.36917 0.0
N3400 N 0.42229 0.17527 0.43527 0.0
N3401 N 0.44229 0.14972 0.38436 0.0
H3402 H 0.18117 0.44713 0.66635 0.0
H3403 H 0.13464 0.38268 0.56265 0.0
H3404 H 0.14284 0.47799 0.61594 0.0
H3405 H 0.1915 0.36394 0.59989 0.0
H3406 H 0.12813 0.41272 0.58866 0.0
H3407 H 0.17512 0.41164 0.64883 0.0
C3408 C 0.17107 0.44627 0.65182 0.0
C3409 C 0.16262 0.4653 0.64235 0.0
C3410 C 0.14171 0.40168 0.59135 0.0
C3411 C 0.15582 0.42507 0.62216 0.0
C3412 C 0.14534 0.38452 0.57665 0.0
C3413 C 0.16374 0.37105 0.57912 0.0
C3414 C 0.15641 0.40499 0.60871 0.0
C3415 C 0.17726 0.37415 0.59734 0.0
C3416 C 0.16764 0.4261 0.64183 0.0
C3417 C 0.14956 0.46352 0.62363 0.0
N3418 N 0.17341 0.39087 0.61136 0.0
N3419 N 0.14677 0.4437 0.6139 0.0
H3420 H 0.62863 0.13776 0.5725 0.0
H3421 H 0.50515 0.174 0.59267 0.0
H3422 H 0.58656 0.16763 0.52442 0.0
H3423 H 0.54392 0.14302 0.64281 0.0
H3424 H 0.53355 0.16608 0.56611 0.0
H3425 H 0.59691 0.13373 0.597 0.0
C3426 C 0.61264 0.14294 0.56692 0.0
C3427 C 0.61018 0.1533 0.54658 0.0
C3428 C 0.53591 0.16079 0.58284 0.0
C3429 C 0.57412 0.14894 0.57434 0.0
C3430 C 0.51967 0.16537 0.59804 0.0
C3431 C 0.52235 0.15943 0.62001 0.0
C3432 C 0.55532 0.15053 0.58963 0.0
C3433 C 0.54131 0.14795 0.626 0.0
C3434 C 0.5946 0.14078 0.58091 0.0
C3435 C 0.58921 0.15986 0.54011 0.0
N3436 N 0.55732 0.14418 0.61094 0.0
N3437 N 0.57209 0.15776 0.554 0.0
H3438 H 0.49319 0.82696 0.60071 0.0
H3439 H 0.36905 0.86312 0.58156 0.0
H3440 H 0.45444 0.85584 0.65204 0.0
H3441 H 0.40725 0.82248 0.53839 0.0
H3442 H 0.40153 0.86785 0.60498 0.0
H3443 H 0.46357 0.83321 0.57504 0.0
C3444 C 0.47839 0.83479 0.60652 0.0
C3445 C 0.47604 0.84055 0.62856 0.0
C3446 C 0.40279 0.85817 0.59021 0.0
C3447 C 0.44174 0.84745 0.59926 0.0
C3448 C 0.38435 0.85557 0.57682 0.0
C3449 C 0.38549 0.8422 0.55818 0.0
C3450 C 0.4224 0.84758 0.58462 0.0
C3451 C 0.4056 0.83268 0.55277 0.0
C3452 C 0.46145 0.83836 0.59185 0.0
C3453 C 0.45674 0.85106 0.63516 0.0
N3454 N 0.42316 0.83548 0.56595 0.0
N3455 N 0.44006 0.85387 0.62059 0.0
loop_
_geom_bond_atom_site_label_1
_geom_bond_atom_site_label_2
_geom_bond_distance
_geom_bond_site_symmetry_2
_ccdc_geom_bond_type
Mn0 O5 2.095 . S
Mn0 O15 2.162 . S
Mn0 O16 2.297 . S
Mn0 O24 2.385 . S
Mn0 O25 2.209 . S
Mn0 O26 2.094 1_455 S
Mn1 O6 2.121 . S
Mn1 N8 2.257 . S
Mn1 N17 2.282 1_455 S
Mn1 O25 2.215 . S
Mn1 O27 2.117 1_455 S
C2 O24 1.234 . S
C2 O25 1.283 . S
C3 O15 1.281 . S
C3 O16 1.236 . S
C4 O26 1.240 . S
C4 O27 1.264 . S
O5 Mn0 2.095 . S
O5 C14 1.250 . S
O6 Mn1 2.121 . S
O6 C14 1.258 . S
C7 N8 1.326 . S
C7 C11 1.460 . S
C7 H13 0.929 . S
N8 Mn1 2.257 . S
N8 C7 1.326 . S
N8 C12 1.362 . S
C9 C10 1.258 . S
C9 C12 1.431 . S
C9 C29 1.449 . S
C10 C9 1.258 . S
C10 C11 1.477 . S
C10 H30 0.931 . S
C11 C7 1.460 . S
C11 C10 1.477 . S
C11 H31 0.930 . S
C12 N8 1.362 . S
C12 C9 1.431 . S
C12 C22 1.476 1_455 S
H13 C7 0.929 . S
C14 O5 1.250 . S
C14 O6 1.258 . S
O15 Mn0 2.162 . S
O15 C3 1.281 . S
O16 Mn0 2.297 . S
O16 C3 1.236 . S
N17 Mn1 2.282 1_655 S
N17 C18 1.328 . S
N17 C22 1.318 . S
C18 N17 1.328 . S
C18 C19 1.457 . S
C18 H23 0.929 . S
C19 C18 1.457 . S
C19 C20 1.291 . S
C19 H32 0.931 . S
C20 C19 1.291 . S
C20 C21 1.373 . S
C20 H33 0.929 . S
C21 C20 1.373 . S
C21 C22 1.396 . S
C21 C28 1.403 . S
C22 C12 1.476 1_655 S
C22 N17 1.318 . S
C22 C21 1.396 . S
H23 C18 0.929 . S
O24 Mn0 2.385 . S
O24 C2 1.234 . S
O25 Mn0 2.209 . S
O25 Mn1 2.215 . S
O25 C2 1.283 . S
O26 Mn0 2.094 1_655 S
O26 C4 1.240 . S
O27 Mn1 2.117 1_655 S
O27 C4 1.264 . S
C28 C21 1.403 . S
C28 C29 1.399 1_655 S
C28 H34 0.929 . S
C29 C9 1.449 . S
C29 C28 1.399 1_455 S
C29 H35 0.930 . S
H30 C10 0.931 . S
H31 C11 0.930 . S
H32 C19 0.931 . S
H33 C20 0.929 . S
H34 C28 0.929 . S
H35 C29 0.930 . S
Mn36 O41 2.095 . S
Mn36 O51 2.162 . S
Mn36 O52 2.297 . S
Mn36 O60 2.385 . S
Mn36 O61 2.209 . S
Mn36 O62 2.094 1_545 S
Mn37 O42 2.121 . S
Mn37 N44 2.257 . S
Mn37 N53 2.282 1_545 S
Mn37 O61 2.215 . S
Mn37 O63 2.117 1_545 S
C38 O60 1.234 . S
C38 O61 1.283 . S
C39 O51 1.281 . S
C39 O52 1.236 . S
C40 O62 1.240 . S
C40 O63 1.264 . S
O41 Mn36 2.095 . S
O41 C50 1.250 . S
O42 Mn37 2.121 . S
O42 C50 1.258 . S
C43 N44 1.326 . S
C43 C47 1.460 . S
C43 H49 0.929 . S
N44 Mn37 2.257 . S
N44 C43 1.326 . S
N44 C48 1.362 . S
C45 C46 1.258 . S
C45 C48 1.431 . S
C45 C65 1.449 . S
C46 C45 1.258 . S
C46 C47 1.477 . S
C46 H66 0.931 . S
C47 C43 1.460 . S
C47 C46 1.477 . S
C47 H67 0.930 . S
C48 N44 1.362 . S
C48 C45 1.431 . S
C48 C58 1.476 1_545 S
H49 C43 0.929 . S
C50 O41 1.250 . S
C50 O42 1.258 . S
O51 Mn36 2.162 . S
O51 C39 1.281 . S
O52 Mn36 2.297 . S
O52 C39 1.236 . S
N53 Mn37 2.282 1_565 S
N53 C54 1.328 . S
N53 C58 1.318 . S
C54 N53 1.328 . S
C54 C55 1.457 . S
C54 H59 0.929 . S
C55 C54 1.457 . S
C55 C56 1.291 . S
C55 H68 0.931 . S
C56 C55 1.291 . S
C56 C57 1.373 . S
C56 H69 0.929 . S
C57 C56 1.373 . S
C57 C58 1.396 . S
C57 C64 1.403 . S
C58 C48 1.476 1_565 S
C58 N53 1.318 . S
C58 C57 1.396 . S
H59 C54 0.929 . S
O60 Mn36 2.385 . S
O60 C38 1.234 . S
O61 Mn36 2.209 . S
O61 Mn37 2.215 . S
O61 C38 1.283 . S
O62 Mn36 2.094 1_565 S
O62 C40 1.240 . S
O63 Mn37 2.117 1_565 S
O63 C40 1.264 . S
C64 C57 1.403 . S
C64 C65 1.399 1_565 S
C64 H70 0.929 . S
C65 C45 1.449 . S
C65 C64 1.399 1_545 S
C65 H71 0.930 . S
H66 C46 0.931 . S
H67 C47 0.930 . S
H68 C55 0.931 . S
H69 C56 0.929 . S
H70 C64 0.929 . S
H71 C65 0.930 . S
Mn72 O77 2.095 . S
Mn72 O87 2.162 . S
Mn72 O88 2.297 . S
Mn72 O96 2.385 . S
Mn72 O97 2.209 . S
Mn72 O98 2.094 1_655 S
Mn73 O78 2.121 . S
Mn73 N80 2.257 . S
Mn73 N89 2.282 1_655 S
Mn73 O97 2.215 . S
Mn73 O99 2.117 1_655 S
C74 O96 1.234 . S
C74 O97 1.283 . S
C75 O87 1.281 . S
C75 O88 1.236 . S
C76 O98 1.240 . S
C76 O99 1.264 . S
O77 Mn72 2.095 . S
O77 C86 1.250 . S
O78 Mn73 2.121 . S
O78 C86 1.258 . S
C79 N80 1.326 . S
C79 C83 1.460 . S
C79 H85 0.929 . S
N80 Mn73 2.257 . S
N80 C79 1.326 . S
N80 C84 1.362 . S
C81 C82 1.258 . S
C81 C84 1.431 . S
C81 C101 1.449 . S
C82 C81 1.258 . S
C82 C83 1.477 . S
C82 H102 0.931 . S
C83 C79 1.460 . S
C83 C82 1.477 . S
C83 H103 0.930 . S
C84 N80 1.362 . S
C84 C81 1.431 . S
C84 C94 1.476 1_655 S
H85 C79 0.929 . S
C86 O77 1.250 . S
C86 O78 1.258 . S
O87 Mn72 2.162 . S
O87 C75 1.281 . S
O88 Mn72 2.297 . S
O88 C75 1.236 . S
N89 Mn73 2.282 1_455 S
N89 C90 1.328 . S
N89 C94 1.318 . S
C90 N89 1.328 . S
C90 C91 1.457 . S
C90 H95 0.929 . S
C91 C90 1.457 . S
C91 C92 1.291 . S
C91 H104 0.931 . S
C92 C91 1.291 . S
C92 C93 1.373 . S
C92 H105 0.929 . S
C93 C92 1.373 . S
C93 C94 1.396 . S
C93 C100 1.403 . S
C94 C84 1.476 1_455 S
C94 N89 1.318 . S
C94 C93 1.396 . S
H95 C90 0.929 . S
O96 Mn72 2.385 . S
O96 C74 1.234 . S
O97 Mn72 2.209 . S
O97 Mn73 2.215 . S
O97 C74 1.283 . S
O98 Mn72 2.094 1_455 S
O98 C76 1.240 . S
O99 Mn73 2.117 1_455 S
O99 C76 1.264 . S
C100 C93 1.403 . S
C100 C101 1.399 1_455 S
C100 H106 0.929 . S
C101 C81 1.449 . S
C101 C100 1.399 1_655 S
C101 H107 0.930 . S
H102 C82 0.931 . S
H103 C83 0.930 . S
H104 C91 0.931 . S
H105 C92 0.929 . S
H106 C100 0.929 . S
H107 C101 0.930 . S
Mn108 O113 2.095 . S
Mn108 O123 2.162 . S
Mn108 O124 2.297 . S
Mn108 O132 2.385 . S
Mn108 O133 2.209 . S
Mn108 O134 2.094 1_565 S
Mn109 O114 2.121 . S
Mn109 N116 2.257 . S
Mn109 N125 2.282 1_565 S
Mn109 O133 2.215 . S
Mn109 O135 2.117 1_565 S
C110 O132 1.234 . S
C110 O133 1.283 . S
C111 O123 1.281 . S
C111 O124 1.236 . S
C112 O134 1.240 . S
C112 O135 1.264 . S
O113 Mn108 2.095 . S
O113 C122 1.250 . S
O114 Mn109 2.121 . S
O114 C122 1.258 . S
C115 N116 1.326 . S
C115 C119 1.460 . S
C115 H121 0.929 . S
N116 Mn109 2.257 . S
N116 C115 1.326 . S
N116 C120 1.362 . S
C117 C118 1.258 . S
C117 C120 1.431 . S
C117 C137 1.449 . S
C118 C117 1.258 . S
C118 C119 1.477 . S
C118 H138 0.931 . S
C119 C115 1.460 . S
C119 C118 1.477 . S
C119 H139 0.930 . S
C120 N116 1.362 . S
C120 C117 1.431 . S
C120 C130 1.476 1_565 S
H121 C115 0.929 . S
C122 O113 1.250 . S
C122 O114 1.258 . S
O123 Mn108 2.162 . S
O123 C111 1.281 . S
O124 Mn108 2.297 . S
O124 C111 1.236 . S
N125 Mn109 2.282 1_545 S
N125 C126 1.328 . S
N125 C130 1.318 . S
C126 N125 1.328 . S
C126 C127 1.457 . S
C126 H131 0.929 . S
C127 C126 1.457 . S
C127 C128 1.291 . S
C127 H140 0.931 . S
C128 C127 1.291 . S
C128 C129 1.373 . S
C128 H141 0.929 . S
C129 C128 1.373 . S
C129 C130 1.396 . S
C129 C136 1.403 . S
C130 C120 1.476 1_545 S
C130 N125 1.318 . S
C130 C129 1.396 . S
H131 C126 0.929 . S
O132 Mn108 2.385 . S
O132 C110 1.234 . S
O133 Mn108 2.209 . S
O133 Mn109 2.215 . S
O133 C110 1.283 . S
O134 Mn108 2.094 1_545 S
O134 C112 1.240 . S
O135 Mn109 2.117 1_545 S
O135 C112 1.264 . S
C136 C129 1.403 . S
C136 C137 1.399 1_545 S
C136 H142 0.929 . S
C137 C117 1.449 . S
C137 C136 1.399 1_565 S
C137 H143 0.930 . S
H138 C118 0.931 . S
H139 C119 0.930 . S
H140 C127 0.931 . S
H141 C128 0.929 . S
H142 C136 0.929 . S
H143 C137 0.930 . S
Mn144 O149 2.095 . S
Mn144 O159 2.162 . S
Mn144 O160 2.297 . S
Mn144 O168 2.385 . S
Mn144 O169 2.209 . S
Mn144 O170 2.094 1_455 S
Mn145 O150 2.121 . S
Mn145 N152 2.257 . S
Mn145 N161 2.282 1_455 S
Mn145 O169 2.215 . S
Mn145 O171 2.117 1_455 S
C146 O168 1.234 . S
C146 O169 1.283 . S
C147 O159 1.281 . S
C147 O160 1.236 . S
C148 O170 1.240 . S
C148 O171 1.264 . S
O149 Mn144 2.095 . S
O149 C158 1.250 . S
O150 Mn145 2.121 . S
O150 C158 1.258 . S
C151 N152 1.326 . S
C151 C155 1.460 . S
C151 H157 0.929 . S
N152 Mn145 2.257 . S
N152 C151 1.326 . S
N152 C156 1.362 . S
C153 C154 1.258 . S
C153 C156 1.431 . S
C153 C173 1.449 . S
C154 C153 1.258 . S
C154 C155 1.477 . S
C154 H174 0.931 . S
C155 C151 1.460 . S
C155 C154 1.477 . S
C155 H175 0.930 . S
C156 N152 1.362 . S
C156 C153 1.431 . S
C156 C166 1.476 1_455 S
H157 C151 0.929 . S
C158 O149 1.250 . S
C158 O150 1.258 . S
O159 Mn144 2.162 . S
O159 C147 1.281 . S
O160 Mn144 2.297 . S
O160 C147 1.236 . S
N161 Mn145 2.282 1_655 S
N161 C162 1.328 . S
N161 C166 1.318 . S
C162 N161 1.328 . S
C162 C163 1.457 . S
C162 H167 0.929 . S
C163 C162 1.457 . S
C163 C164 1.291 . S
C163 H176 0.931 . S
C164 C163 1.291 . S
C164 C165 1.373 . S
C164 H177 0.929 . S
C165 C164 1.373 . S
C165 C166 1.396 . S
C165 C172 1.403 . S
C166 C156 1.476 1_655 S
C166 N161 1.318 . S
C166 C165 1.396 . S
H167 C162 0.929 . S
O168 Mn144 2.385 . S
O168 C146 1.234 . S
O169 Mn144 2.209 . S
O169 Mn145 2.215 . S
O169 C146 1.283 . S
O170 Mn144 2.094 1_655 S
O170 C148 1.240 . S
O171 Mn145 2.117 1_655 S
O171 C148 1.264 . S
C172 C165 1.403 . S
C172 C173 1.399 1_655 S
C172 H178 0.929 . S
C173 C153 1.449 . S
C173 C172 1.399 1_455 S
C173 H179 0.930 . S
H174 C154 0.931 . S
H175 C155 0.930 . S
H176 C163 0.931 . S
H177 C164 0.929 . S
H178 C172 0.929 . S
H179 C173 0.930 . S
Mn180 O185 2.095 . S
Mn180 O195 2.162 . S
Mn180 O196 2.297 . S
Mn180 O204 2.385 . S
Mn180 O205 2.209 . S
Mn180 O206 2.094 1_545 S
Mn181 O186 2.121 . S
Mn181 N188 2.257 . S
Mn181 N197 2.282 1_545 S
Mn181 O205 2.215 . S
Mn181 O207 2.117 1_545 S
C182 O204 1.234 . S
C182 O205 1.283 . S
C183 O195 1.281 . S
C183 O196 1.236 . S
C184 O206 1.240 . S
C184 O207 1.264 . S
O185 Mn180 2.095 . S
O185 C194 1.250 . S
O186 Mn181 2.121 . S
O186 C194 1.258 . S
C187 N188 1.326 . S
C187 C191 1.460 . S
C187 H193 0.929 . S
N188 Mn181 2.257 . S
N188 C187 1.326 . S
N188 C192 1.362 . S
C189 C190 1.258 . S
C189 C192 1.431 . S
C189 C209 1.449 . S
C190 C189 1.258 . S
C190 C191 1.477 . S
C190 H210 0.931 . S
C191 C187 1.460 . S
C191 C190 1.477 . S
C191 H211 0.930 . S
C192 N188 1.362 . S
C192 C189 1.431 . S
C192 C202 1.476 1_545 S
H193 C187 0.929 . S
C194 O185 1.250 . S
C194 O186 1.258 . S
O195 Mn180 2.162 . S
O195 C183 1.281 . S
O196 Mn180 2.297 . S
O196 C183 1.236 . S
N197 Mn181 2.282 1_565 S
N197 C198 1.328 . S
N197 C202 1.318 . S
C198 N197 1.328 . S
C198 C199 1.457 . S
C198 H203 0.929 . S
C199 C198 1.457 . S
C199 C200 1.291 . S
C199 H212 0.931 . S
C200 C199 1.291 . S
C200 C201 1.373 . S
C200 H213 0.929 . S
C201 C200 1.373 . S
C201 C202 1.396 . S
C201 C208 1.403 . S
C202 C192 1.476 1_565 S
C202 N197 1.318 . S
C202 C201 1.396 . S
H203 C198 0.929 . S
O204 Mn180 2.385 . S
O204 C182 1.234 . S
O205 Mn180 2.209 . S
O205 Mn181 2.215 . S
O205 C182 1.283 . S
O206 Mn180 2.094 1_565 S
O206 C184 1.240 . S
O207 Mn181 2.117 1_565 S
O207 C184 1.264 . S
C208 C201 1.403 . S
C208 C209 1.399 1_565 S
C208 H214 0.929 . S
C209 C189 1.449 . S
C209 C208 1.399 1_545 S
C209 H215 0.930 . S
H210 C190 0.931 . S
H211 C191 0.930 . S
H212 C199 0.931 . S
H213 C200 0.929 . S
H214 C208 0.929 . S
H215 C209 0.930 . S
Mn216 O221 2.095 . S
Mn216 O231 2.162 . S
Mn216 O232 2.297 . S
Mn216 O240 2.385 . S
Mn216 O241 2.209 . S
Mn216 O242 2.094 1_655 S
Mn217 O222 2.121 . S
Mn217 N224 2.257 . S
Mn217 N233 2.282 1_655 S
Mn217 O241 2.215 . S
Mn217 O243 2.117 1_655 S
C218 O240 1.234 . S
C218 O241 1.283 . S
C219 O231 1.281 . S
C219 O232 1.236 . S
C220 O242 1.240 . S
C220 O243 1.264 . S
O221 Mn216 2.095 . S
O221 C230 1.250 . S
O222 Mn217 2.121 . S
O222 C230 1.258 . S
C223 N224 1.326 . S
C223 C227 1.460 . S
C223 H229 0.929 . S
N224 Mn217 2.257 . S
N224 C223 1.326 . S
N224 C228 1.362 . S
C225 C226 1.258 . S
C225 C228 1.431 . S
C225 C245 1.449 . S
C226 C225 1.258 . S
C226 C227 1.477 . S
C226 H246 0.931 . S
C227 C223 1.460 . S
C227 C226 1.477 . S
C227 H247 0.930 . S
C228 N224 1.362 . S
C228 C225 1.431 . S
C228 C238 1.476 1_655 S
H229 C223 0.929 . S
C230 O221 1.250 . S
C230 O222 1.258 . S
O231 Mn216 2.162 . S
O231 C219 1.281 . S
O232 Mn216 2.297 . S
O232 C219 1.236 . S
N233 Mn217 2.282 1_455 S
N233 C234 1.328 . S
N233 C238 1.318 . S
C234 N233 1.328 . S
C234 C235 1.457 . S
C234 H239 0.929 . S
C235 C234 1.457 . S
C235 C236 1.291 . S
C235 H248 0.931 . S
C236 C235 1.291 . S
C236 C237 1.373 . S
C236 H249 0.929 . S
C237 C236 1.373 . S
C237 C238 1.396 . S
C237 C244 1.403 . S
C238 C228 1.476 1_455 S
C238 N233 1.318 . S
C238 C237 1.396 . S
H239 C234 0.929 . S
O240 Mn216 2.385 . S
O240 C218 1.234 . S
O241 Mn216 2.209 . S
O241 Mn217 2.215 . S
O241 C218 1.283 . S
O242 Mn216 2.094 1_455 S
O242 C220 1.240 . S
O243 Mn217 2.117 1_455 S
O243 C220 1.264 . S
C244 C237 1.403 . S
C244 C245 1.399 1_455 S
C244 H250 0.929 . S
C245 C225 1.449 . S
C245 C244 1.399 1_655 S
C245 H251 0.930 . S
H246 C226 0.931 . S
H247 C227 0.930 . S
H248 C235 0.931 . S
H249 C236 0.929 . S
H250 C244 0.929 . S
H251 C245 0.930 . S
Mn252 O257 2.095 . S
Mn252 O267 2.162 . S
Mn252 O268 2.297 . S
Mn252 O276 2.385 . S
Mn252 O277 2.209 . S
Mn252 O278 2.094 1_565 S
Mn253 O258 2.121 . S
Mn253 N260 2.257 . S
Mn253 N269 2.282 1_565 S
Mn253 O277 2.215 . S
Mn253 O279 2.117 1_565 S
C254 O276 1.234 . S
C254 O277 1.283 . S
C255 O267 1.281 . S
C255 O268 1.236 . S
C256 O278 1.240 . S
C256 O279 1.264 . S
O257 Mn252 2.095 . S
O257 C266 1.250 . S
O258 Mn253 2.121 . S
O258 C266 1.258 . S
C259 N260 1.326 . S
C259 C263 1.460 . S
C259 H265 0.929 . S
N260 Mn253 2.257 . S
N260 C259 1.326 . S
N260 C264 1.362 . S
C261 C262 1.258 . S
C261 C264 1.431 . S
C261 C281 1.449 . S
C262 C261 1.258 . S
C262 C263 1.477 . S
C262 H282 0.931 . S
C263 C259 1.460 . S
C263 C262 1.477 . S
C263 H283 0.930 . S
C264 N260 1.362 . S
C264 C261 1.431 . S
C264 C274 1.476 1_565 S
H265 C259 0.929 . S
C266 O257 1.250 . S
C266 O258 1.258 . S
O267 Mn252 2.162 . S
O267 C255 1.281 . S
O268 Mn252 2.297 . S
O268 C255 1.236 . S
N269 Mn253 2.282 1_545 S
N269 C270 1.328 . S
N269 C274 1.318 . S
C270 N269 1.328 . S
C270 C271 1.457 . S
C270 H275 0.929 . S
C271 C270 1.457 . S
C271 C272 1.291 . S
C271 H284 0.931 . S
C272 C271 1.291 . S
C272 C273 1.373 . S
C272 H285 0.929 . S
C273 C272 1.373 . S
C273 C274 1.396 . S
C273 C280 1.403 . S
C274 C264 1.476 1_545 S
C274 N269 1.318 . S
C274 C273 1.396 . S
H275 C270 0.929 . S
O276 Mn252 2.385 . S
O276 C254 1.234 . S
O277 Mn252 2.209 . S
O277 Mn253 2.215 . S
O277 C254 1.283 . S
O278 Mn252 2.094 1_545 S
O278 C256 1.240 . S
O279 Mn253 2.117 1_545 S
O279 C256 1.264 . S
C280 C273 1.403 . S
C280 C281 1.399 1_545 S
C280 H286 0.929 . S
C281 C261 1.449 . S
C281 C280 1.399 1_565 S
C281 H287 0.930 . S
H282 C262 0.931 . S
H283 C263 0.930 . S
H284 C271 0.931 . S
H285 C272 0.929 . S
H286 C280 0.929 . S
H287 C281 0.930 . S
Mn288 O293 2.095 . S
Mn288 O303 2.162 . S
Mn288 O304 2.297 . S
Mn288 O312 2.385 . S
Mn288 O313 2.209 . S
Mn288 O314 2.094 1_545 S
Mn289 O294 2.121 . S
Mn289 N296 2.257 . S
Mn289 N305 2.282 1_545 S
Mn289 O313 2.215 . S
Mn289 O315 2.117 1_545 S
C290 O312 1.234 . S
C290 O313 1.283 . S
C291 O303 1.281 . S
C291 O304 1.236 . S
C292 O314 1.240 . S
C292 O315 1.264 . S
O293 Mn288 2.095 . S
O293 C302 1.250 . S
O294 Mn289 2.121 . S
O294 C302 1.258 . S
C295 N296 1.326 . S
C295 C299 1.460 . S
C295 H301 0.929 . S
N296 Mn289 2.257 . S
N296 C295 1.326 . S
N296 C300 1.362 . S
C297 C298 1.258 . S
C297 C300 1.431 . S
C297 C317 1.449 . S
C298 C297 1.258 . S
C298 C299 1.477 . S
C298 H318 0.931 . S
C299 C295 1.460 . S
C299 C298 1.477 . S
C299 H319 0.930 . S
C300 N296 1.362 . S
C300 C297 1.431 . S
C300 C310 1.476 1_545 S
H301 C295 0.929 . S
C302 O293 1.250 . S
C302 O294 1.258 . S
O303 Mn288 2.162 . S
O303 C291 1.281 . S
O304 Mn288 2.297 . S
O304 C291 1.236 . S
N305 Mn289 2.282 1_565 S
N305 C306 1.328 . S
N305 C310 1.318 . S
C306 N305 1.328 . S
C306 C307 1.457 . S
C306 H311 0.929 . S
C307 C306 1.457 . S
C307 C308 1.291 . S
C307 H320 0.931 . S
C308 C307 1.291 . S
C308 C309 1.373 . S
C308 H321 0.929 . S
C309 C308 1.373 . S
C309 C310 1.396 . S
C309 C316 1.403 . S
C310 C300 1.476 1_565 S
C310 N305 1.318 . S
C310 C309 1.396 . S
H311 C306 0.929 . S
O312 Mn288 2.385 . S
O312 C290 1.234 . S
O313 Mn288 2.209 . S
O313 Mn289 2.215 . S
O313 C290 1.283 . S
O314 Mn288 2.094 1_565 S
O314 C292 1.240 . S
O315 Mn289 2.117 1_565 S
O315 C292 1.264 . S
C316 C309 1.403 . S
C316 C317 1.399 1_565 S
C316 H322 0.929 . S
C317 C297 1.449 . S
C317 C316 1.399 1_545 S
C317 H323 0.930 . S
H318 C298 0.931 . S
H319 C299 0.930 . S
H320 C307 0.931 . S
H321 C308 0.929 . S
H322 C316 0.929 . S
H323 C317 0.930 . S
Mn324 O329 2.095 . S
Mn324 O339 2.162 . S
Mn324 O340 2.297 . S
Mn324 O348 2.385 . S
Mn324 O349 2.209 . S
Mn324 O350 2.094 1_655 S
Mn325 O330 2.121 . S
Mn325 N332 2.257 . S
Mn325 N341 2.282 1_655 S
Mn325 O349 2.215 . S
Mn325 O351 2.117 1_655 S
C326 O348 1.234 . S
C326 O349 1.283 . S
C327 O339 1.281 . S
C327 O340 1.236 . S
C328 O350 1.240 . S
C328 O351 1.264 . S
O329 Mn324 2.095 . S
O329 C338 1.250 . S
O330 Mn325 2.121 . S
O330 C338 1.258 . S
C331 N332 1.326 . S
C331 C335 1.460 . S
C331 H337 0.929 . S
N332 Mn325 2.257 . S
N332 C331 1.326 . S
N332 C336 1.362 . S
C333 C334 1.258 . S
C333 C336 1.431 . S
C333 C353 1.449 . S
C334 C333 1.258 . S
C334 C335 1.477 . S
C334 H354 0.931 . S
C335 C331 1.460 . S
C335 C334 1.477 . S
C335 H355 0.930 . S
C336 N332 1.362 . S
C336 C333 1.431 . S
C336 C346 1.476 1_655 S
H337 C331 0.929 . S
C338 O329 1.250 . S
C338 O330 1.258 . S
O339 Mn324 2.162 . S
O339 C327 1.281 . S
O340 Mn324 2.297 . S
O340 C327 1.236 . S
N341 Mn325 2.282 1_455 S
N341 C342 1.328 . S
N341 C346 1.318 . S
C342 N341 1.328 . S
C342 C343 1.457 . S
C342 H347 0.929 . S
C343 C342 1.457 . S
C343 C344 1.291 . S
C343 H356 0.931 . S
C344 C343 1.291 . S
C344 C345 1.373 . S
C344 H357 0.929 . S
C345 C344 1.373 . S
C345 C346 1.396 . S
C345 C352 1.403 . S
C346 C336 1.476 1_455 S
C346 N341 1.318 . S
C346 C345 1.396 . S
H347 C342 0.929 . S
O348 Mn324 2.385 . S
O348 C326 1.234 . S
O349 Mn324 2.209 . S
O349 Mn325 2.215 . S
O349 C326 1.283 . S
O350 Mn324 2.094 1_455 S
O350 C328 1.240 . S
O351 Mn325 2.117 1_455 S
O351 C328 1.264 . S
C352 C345 1.403 . S
C352 C353 1.399 1_455 S
C352 H358 0.929 . S
C353 C333 1.449 . S
C353 C352 1.399 1_655 S
C353 H359 0.930 . S
H354 C334 0.931 . S
H355 C335 0.930 . S
H356 C343 0.931 . S
H357 C344 0.929 . S
H358 C352 0.929 . S
H359 C353 0.930 . S
Mn360 O365 2.095 . S
Mn360 O375 2.162 . S
Mn360 O376 2.297 . S
Mn360 O384 2.385 . S
Mn360 O385 2.209 . S
Mn360 O386 2.094 1_565 S
Mn361 O366 2.121 . S
Mn361 N368 2.257 . S
Mn361 N377 2.282 1_565 S
Mn361 O385 2.215 . S
Mn361 O387 2.117 1_565 S
C362 O384 1.234 . S
C362 O385 1.283 . S
C363 O375 1.281 . S
C363 O376 1.236 . S
C364 O386 1.240 . S
C364 O387 1.264 . S
O365 Mn360 2.095 . S
O365 C374 1.250 . S
O366 Mn361 2.121 . S
O366 C374 1.258 . S
C367 N368 1.326 . S
C367 C371 1.460 . S
C367 H373 0.929 . S
N368 Mn361 2.257 . S
N368 C367 1.326 . S
N368 C372 1.362 . S
C369 C370 1.258 . S
C369 C372 1.431 . S
C369 C389 1.449 . S
C370 C369 1.258 . S
C370 C371 1.477 . S
C370 H390 0.931 . S
C371 C367 1.460 . S
C371 C370 1.477 . S
C371 H391 0.930 . S
C372 N368 1.362 . S
C372 C369 1.431 . S
C372 C382 1.476 1_565 S
H373 C367 0.929 . S
C374 O365 1.250 . S
C374 O366 1.258 . S
O375 Mn360 2.162 . S
O375 C363 1.281 . S
O376 Mn360 2.297 . S
O376 C363 1.236 . S
N377 Mn361 2.282 1_545 S
N377 C378 1.328 . S
N377 C382 1.318 . S
C378 N377 1.328 . S
C378 C379 1.457 . S
C378 H383 0.929 . S
C379 C378 1.457 . S
C379 C380 1.291 . S
C379 H392 0.931 . S
C380 C379 1.291 . S
C380 C381 1.373 . S
C380 H393 0.929 . S
C381 C380 1.373 . S
C381 C382 1.396 . S
C381 C388 1.403 . S
C382 C372 1.476 1_545 S
C382 N377 1.318 . S
C382 C381 1.396 . S
H383 C378 0.929 . S
O384 Mn360 2.385 . S
O384 C362 1.234 . S
O385 Mn360 2.209 . S
O385 Mn361 2.215 . S
O385 C362 1.283 . S
O386 Mn360 2.094 1_545 S
O386 C364 1.240 . S
O387 Mn361 2.117 1_545 S
O387 C364 1.264 . S
C388 C381 1.403 . S
C388 C389 1.399 1_545 S
C388 H394 0.929 . S
C389 C369 1.449 . S
C389 C388 1.399 1_565 S
C389 H395 0.930 . S
H390 C370 0.931 . S
H391 C371 0.930 . S
H392 C379 0.931 . S
H393 C380 0.929 . S
H394 C388 0.929 . S
H395 C389 0.930 . S
Mn396 O401 2.095 . S
Mn396 O411 2.162 . S
Mn396 O412 2.297 . S
Mn396 O420 2.385 . S
Mn396 O421 2.209 . S
Mn396 O422 2.094 1_455 S
Mn397 O402 2.121 . S
Mn397 N404 2.257 . S
Mn397 N413 2.282 1_455 S
Mn397 O421 2.215 . S
Mn397 O423 2.117 1_455 S
C398 O420 1.234 . S
C398 O421 1.283 . S
C399 O411 1.281 . S
C399 O412 1.236 . S
C400 O422 1.240 . S
C400 O423 1.264 . S
O401 Mn396 2.095 . S
O401 C410 1.250 . S
O402 Mn397 2.121 . S
O402 C410 1.258 . S
C403 N404 1.326 . S
C403 C407 1.460 . S
C403 H409 0.929 . S
N404 Mn397 2.257 . S
N404 C403 1.326 . S
N404 C408 1.362 . S
C405 C406 1.258 . S
C405 C408 1.431 . S
C405 C425 1.449 . S
C406 C405 1.258 . S
C406 C407 1.477 . S
C406 H426 0.931 . S
C407 C403 1.460 . S
C407 C406 1.477 . S
C407 H427 0.930 . S
C408 N404 1.362 . S
C408 C405 1.431 . S
C408 C418 1.476 1_455 S
H409 C403 0.929 . S
C410 O401 1.250 . S
C410 O402 1.258 . S
O411 Mn396 2.162 . S
O411 C399 1.281 . S
O412 Mn396 2.297 . S
O412 C399 1.236 . S
N413 Mn397 2.282 1_655 S
N413 C414 1.328 . S
N413 C418 1.318 . S
C414 N413 1.328 . S
C414 C415 1.457 . S
C414 H419 0.929 . S
C415 C414 1.457 . S
C415 C416 1.291 . S
C415 H428 0.931 . S
C416 C415 1.291 . S
C416 C417 1.373 . S
C416 H429 0.929 . S
C417 C416 1.373 . S
C417 C418 1.396 . S
C417 C424 1.403 . S
C418 C408 1.476 1_655 S
C418 N413 1.318 . S
C418 C417 1.396 . S
H419 C414 0.929 . S
O420 Mn396 2.385 . S
O420 C398 1.234 . S
O421 Mn396 2.209 . S
O421 Mn397 2.215 . S
O421 C398 1.283 . S
O422 Mn396 2.094 1_655 S
O422 C400 1.240 . S
O423 Mn397 2.117 1_655 S
O423 C400 1.264 . S
C424 C417 1.403 . S
C424 C425 1.399 1_655 S
C424 H430 0.929 . S
C425 C405 1.449 . S
C425 C424 1.399 1_455 S
C425 H431 0.930 . S
H426 C406 0.931 . S
H427 C407 0.930 . S
H428 C415 0.931 . S
H429 C416 0.929 . S
H430 C424 0.929 . S
H431 C425 0.930 . S
Mn432 O437 2.095 . S
Mn432 O447 2.162 . S
Mn432 O448 2.297 . S
Mn432 O456 2.385 . S
Mn432 O457 2.209 . S
Mn432 O458 2.094 1_565 S
Mn433 O438 2.121 . S
Mn433 N440 2.257 . S
Mn433 N449 2.282 1_565 S
Mn433 O457 2.215 . S
Mn433 O459 2.117 1_565 S
C434 O456 1.234 . S
C434 O457 1.283 . S
C435 O447 1.281 . S
C435 O448 1.236 . S
C436 O458 1.240 . S
C436 O459 1.264 . S
O437 Mn432 2.095 . S
O437 C446 1.250 . S
O438 Mn433 2.121 . S
O438 C446 1.258 . S
C439 N440 1.326 . S
C439 C443 1.460 . S
C439 H445 0.929 . S
N440 Mn433 2.257 . S
N440 C439 1.326 . S
N440 C444 1.362 . S
C441 C442 1.258 . S
C441 C444 1.431 . S
C441 C461 1.449 . S
C442 C441 1.258 . S
C442 C443 1.477 . S
C442 H462 0.931 . S
C443 C439 1.460 . S
C443 C442 1.477 . S
C443 H463 0.930 . S
C444 N440 1.362 . S
C444 C441 1.431 . S
C444 C454 1.476 1_565 S
H445 C439 0.929 . S
C446 O437 1.250 . S
C446 O438 1.258 . S
O447 Mn432 2.162 . S
O447 C435 1.281 . S
O448 Mn432 2.297 . S
O448 C435 1.236 . S
N449 Mn433 2.282 1_545 S
N449 C450 1.328 . S
N449 C454 1.318 . S
C450 N449 1.328 . S
C450 C451 1.457 . S
C450 H455 0.929 . S
C451 C450 1.457 . S
C451 C452 1.291 . S
C451 H464 0.931 . S
C452 C451 1.291 . S
C452 C453 1.373 . S
C452 H465 0.929 . S
C453 C452 1.373 . S
C453 C454 1.396 . S
C453 C460 1.403 . S
C454 C444 1.476 1_545 S
C454 N449 1.318 . S
C454 C453 1.396 . S
H455 C450 0.929 . S
O456 Mn432 2.385 . S
O456 C434 1.234 . S
O457 Mn432 2.209 . S
O457 Mn433 2.215 . S
O457 C434 1.283 . S
O458 Mn432 2.094 1_545 S
O458 C436 1.240 . S
O459 Mn433 2.117 1_545 S
O459 C436 1.264 . S
C460 C453 1.403 . S
C460 C461 1.399 1_545 S
C460 H466 0.929 . S
C461 C441 1.449 . S
C461 C460 1.399 1_565 S
C461 H467 0.930 . S
H462 C442 0.931 . S
H463 C443 0.930 . S
H464 C451 0.931 . S
H465 C452 0.929 . S
H466 C460 0.929 . S
H467 C461 0.930 . S
Mn468 O473 2.095 . S
Mn468 O483 2.162 . S
Mn468 O484 2.297 . S
Mn468 O492 2.385 . S
Mn468 O493 2.209 . S
Mn468 O494 2.094 1_455 S
Mn469 O474 2.121 . S
Mn469 N476 2.257 . S
Mn469 N485 2.282 1_455 S
Mn469 O493 2.215 . S
Mn469 O495 2.117 1_455 S
C470 O492 1.234 . S
C470 O493 1.283 . S
C471 O483 1.281 . S
C471 O484 1.236 . S
C472 O494 1.240 . S
C472 O495 1.264 . S
O473 Mn468 2.095 . S
O473 C482 1.250 . S
O474 Mn469 2.121 . S
O474 C482 1.258 . S
C475 N476 1.326 . S
C475 C479 1.460 . S
C475 H481 0.929 . S
N476 Mn469 2.257 . S
N476 C475 1.326 . S
N476 C480 1.362 . S
C477 C478 1.258 . S
C477 C480 1.431 . S
C477 C497 1.449 . S
C478 C477 1.258 . S
C478 C479 1.477 . S
C478 H498 0.931 . S
C479 C475 1.460 . S
C479 C478 1.477 . S
C479 H499 0.930 . S
C480 N476 1.362 . S
C480 C477 1.431 . S
C480 C490 1.476 1_455 S
H481 C475 0.929 . S
C482 O473 1.250 . S
C482 O474 1.258 . S
O483 Mn468 2.162 . S
O483 C471 1.281 . S
O484 Mn468 2.297 . S
O484 C471 1.236 . S
N485 Mn469 2.282 1_655 S
N485 C486 1.328 . S
N485 C490 1.318 . S
C486 N485 1.328 . S
C486 C487 1.457 . S
C486 H491 0.929 . S
C487 C486 1.457 . S
C487 C488 1.291 . S
C487 H500 0.931 . S
C488 C487 1.291 . S
C488 C489 1.373 . S
C488 H501 0.929 . S
C489 C488 1.373 . S
C489 C490 1.396 . S
C489 C496 1.403 . S
C490 C480 1.476 1_655 S
C490 N485 1.318 . S
C490 C489 1.396 . S
H491 C486 0.929 . S
O492 Mn468 2.385 . S
O492 C470 1.234 . S
O493 Mn468 2.209 . S
O493 Mn469 2.215 . S
O493 C470 1.283 . S
O494 Mn468 2.094 1_655 S
O494 C472 1.240 . S
O495 Mn469 2.117 1_655 S
O495 C472 1.264 . S
C496 C489 1.403 . S
C496 C497 1.399 1_655 S
C496 H502 0.929 . S
C497 C477 1.449 . S
C497 C496 1.399 1_455 S
C497 H503 0.930 . S
H498 C478 0.931 . S
H499 C479 0.930 . S
H500 C487 0.931 . S
H501 C488 0.929 . S
H502 C496 0.929 . S
H503 C497 0.930 . S
Mn504 O509 2.095 . S
Mn504 O519 2.162 . S
Mn504 O520 2.297 . S
Mn504 O528 2.385 . S
Mn504 O529 2.209 . S
Mn504 O530 2.094 1_545 S
Mn505 O510 2.121 . S
Mn505 N512 2.257 . S
Mn505 N521 2.282 1_545 S
Mn505 O529 2.215 . S
Mn505 O531 2.117 1_545 S
C506 O528 1.234 . S
C506 O529 1.283 . S
C507 O519 1.281 . S
C507 O520 1.236 . S
C508 O530 1.240 . S
C508 O531 1.264 . S
O509 Mn504 2.095 . S
O509 C518 1.250 . S
O510 Mn505 2.121 . S
O510 C518 1.258 . S
C511 N512 1.326 . S
C511 C515 1.460 . S
C511 H517 0.929 . S
N512 Mn505 2.257 . S
N512 C511 1.326 . S
N512 C516 1.362 . S
C513 C514 1.258 . S
C513 C516 1.431 . S
C513 C533 1.449 . S
C514 C513 1.258 . S
C514 C515 1.477 . S
C514 H534 0.931 . S
C515 C511 1.460 . S
C515 C514 1.477 . S
C515 H535 0.930 . S
C516 N512 1.362 . S
C516 C513 1.431 . S
C516 C526 1.476 1_545 S
H517 C511 0.929 . S
C518 O509 1.250 . S
C518 O510 1.258 . S
O519 Mn504 2.162 . S
O519 C507 1.281 . S
O520 Mn504 2.297 . S
O520 C507 1.236 . S
N521 Mn505 2.282 1_565 S
N521 C522 1.328 . S
N521 C526 1.318 . S
C522 N521 1.328 . S
C522 C523 1.457 . S
C522 H527 0.929 . S
C523 C522 1.457 . S
C523 C524 1.291 . S
C523 H536 0.931 . S
C524 C523 1.291 . S
C524 C525 1.373 . S
C524 H537 0.929 . S
C525 C524 1.373 . S
C525 C526 1.396 . S
C525 C532 1.403 . S
C526 C516 1.476 1_565 S
C526 N521 1.318 . S
C526 C525 1.396 . S
H527 C522 0.929 . S
O528 Mn504 2.385 . S
O528 C506 1.234 . S
O529 Mn504 2.209 . S
O529 Mn505 2.215 . S
O529 C506 1.283 . S
O530 Mn504 2.094 1_565 S
O530 C508 1.240 . S
O531 Mn505 2.117 1_565 S
O531 C508 1.264 . S
C532 C525 1.403 . S
C532 C533 1.399 1_565 S
C532 H538 0.929 . S
C533 C513 1.449 . S
C533 C532 1.399 1_545 S
C533 H539 0.930 . S
H534 C514 0.931 . S
H535 C515 0.930 . S
H536 C523 0.931 . S
H537 C524 0.929 . S
H538 C532 0.929 . S
H539 C533 0.930 . S
Mn540 O545 2.095 . S
Mn540 O555 2.162 . S
Mn540 O556 2.297 . S
Mn540 O564 2.385 . S
Mn540 O565 2.209 . S
Mn540 O566 2.094 1_655 S
Mn541 O546 2.121 . S
Mn541 N548 2.257 . S
Mn541 N557 2.282 1_655 S
Mn541 O565 2.215 . S
Mn541 O567 2.117 1_655 S
C542 O564 1.234 . S
C542 O565 1.283 . S
C543 O555 1.281 . S
C543 O556 1.236 . S
C544 O566 1.240 . S
C544 O567 1.264 . S
O545 Mn540 2.095 . S
O545 C554 1.250 . S
O546 Mn541 2.121 . S
O546 C554 1.258 . S
C547 N548 1.326 . S
C547 C551 1.460 . S
C547 H553 0.929 . S
N548 Mn541 2.257 . S
N548 C547 1.326 . S
N548 C552 1.362 . S
C549 C550 1.258 . S
C549 C552 1.431 . S
C549 C569 1.449 . S
C550 C549 1.258 . S
C550 C551 1.477 . S
C550 H570 0.931 . S
C551 C547 1.460 . S
C551 C550 1.477 . S
C551 H571 0.930 . S
C552 N548 1.362 . S
C552 C549 1.431 . S
C552 C562 1.476 1_655 S
H553 C547 0.929 . S
C554 O545 1.250 . S
C554 O546 1.258 . S
O555 Mn540 2.162 . S
O555 C543 1.281 . S
O556 Mn540 2.297 . S
O556 C543 1.236 . S
N557 Mn541 2.282 1_455 S
N557 C558 1.328 . S
N557 C562 1.318 . S
C558 N557 1.328 . S
C558 C559 1.457 . S
C558 H563 0.929 . S
C559 C558 1.457 . S
C559 C560 1.291 . S
C559 H572 0.931 . S
C560 C559 1.291 . S
C560 C561 1.373 . S
C560 H573 0.929 . S
C561 C560 1.373 . S
C561 C562 1.396 . S
C561 C568 1.403 . S
C562 C552 1.476 1_455 S
C562 N557 1.318 . S
C562 C561 1.396 . S
H563 C558 0.929 . S
O564 Mn540 2.385 . S
O564 C542 1.234 . S
O565 Mn540 2.209 . S
O565 Mn541 2.215 . S
O565 C542 1.283 . S
O566 Mn540 2.094 1_455 S
O566 C544 1.240 . S
O567 Mn541 2.117 1_455 S
O567 C544 1.264 . S
C568 C561 1.403 . S
C568 C569 1.399 1_455 S
C568 H574 0.929 . S
C569 C549 1.449 . S
C569 C568 1.399 1_655 S
C569 H575 0.930 . S
H570 C550 0.931 . S
H571 C551 0.930 . S
H572 C559 0.931 . S
H573 C560 0.929 . S
H574 C568 0.929 . S
H575 C569 0.930 . S
Mn576 O581 2.095 . S
Mn576 O591 2.162 . S
Mn576 O592 2.297 . S
Mn576 O600 2.385 . S
Mn576 O601 2.209 . S
Mn576 O602 2.094 1_554 S
Mn577 O582 2.121 . S
Mn577 N584 2.257 . S
Mn577 N593 2.282 1_554 S
Mn577 O601 2.215 . S
Mn577 O603 2.117 1_554 S
C578 O600 1.234 . S
C578 O601 1.283 . S
C579 O591 1.281 . S
C579 O592 1.236 . S
C580 O602 1.240 . S
C580 O603 1.264 . S
O581 Mn576 2.095 . S
O581 C590 1.250 . S
O582 Mn577 2.121 . S
O582 C590 1.258 . S
C583 N584 1.326 . S
C583 C587 1.460 . S
C583 H589 0.929 . S
N584 Mn577 2.257 . S
N584 C583 1.326 . S
N584 C588 1.362 . S
C585 C586 1.258 . S
C585 C588 1.431 . S
C585 C605 1.449 . S
C586 C585 1.258 . S
C586 C587 1.477 . S
C586 H606 0.931 . S
C587 C583 1.460 . S
C587 C586 1.477 . S
C587 H607 0.930 . S
C588 N584 1.362 . S
C588 C585 1.431 . S
C588 C598 1.476 1_554 S
H589 C583 0.929 . S
C590 O581 1.250 . S
C590 O582 1.258 . S
O591 Mn576 2.162 . S
O591 C579 1.281 . S
O592 Mn576 2.297 . S
O592 C579 1.236 . S
N593 Mn577 2.282 1_556 S
N593 C594 1.328 . S
N593 C598 1.318 . S
C594 N593 1.328 . S
C594 C595 1.457 . S
C594 H599 0.929 . S
C595 C594 1.457 . S
C595 C596 1.291 . S
C595 H608 0.931 . S
C596 C595 1.291 . S
C596 C597 1.373 . S
C596 H609 0.929 . S
C597 C596 1.373 . S
C597 C598 1.396 . S
C597 C604 1.403 . S
C598 C588 1.476 1_556 S
C598 N593 1.318 . S
C598 C597 1.396 . S
H599 C594 0.929 . S
O600 Mn576 2.385 . S
O600 C578 1.234 . S
O601 Mn576 2.209 . S
O601 Mn577 2.215 . S
O601 C578 1.283 . S
O602 Mn576 2.094 1_556 S
O602 C580 1.240 . S
O603 Mn577 2.117 1_556 S
O603 C580 1.264 . S
C604 C597 1.403 . S
C604 C605 1.399 1_556 S
C604 H610 0.929 . S
C605 C585 1.449 . S
C605 C604 1.399 1_554 S
C605 H611 0.930 . S
H606 C586 0.931 . S
H607 C587 0.930 . S
H608 C595 0.931 . S
H609 C596 0.929 . S
H610 C604 0.929 . S
H611 C605 0.930 . S
Mn612 O617 2.095 . S
Mn612 O627 2.162 . S
Mn612 O628 2.297 . S
Mn612 O636 2.385 . S
Mn612 O637 2.209 . S
Mn612 O638 2.094 1_556 S
Mn613 O618 2.121 . S
Mn613 N620 2.257 . S
Mn613 N629 2.282 1_556 S
Mn613 O637 2.215 . S
Mn613 O639 2.117 1_556 S
C614 O636 1.234 . S
C614 O637 1.283 . S
C615 O627 1.281 . S
C615 O628 1.236 . S
C616 O638 1.240 . S
C616 O639 1.264 . S
O617 Mn612 2.095 . S
O617 C626 1.250 . S
O618 Mn613 2.121 . S
O618 C626 1.258 . S
C619 N620 1.326 . S
C619 C623 1.460 . S
C619 H625 0.929 . S
N620 Mn613 2.257 . S
N620 C619 1.326 . S
N620 C624 1.362 . S
C621 C622 1.258 . S
C621 C624 1.431 . S
C621 C641 1.449 . S
C622 C621 1.258 . S
C622 C623 1.477 . S
C622 H642 0.931 . S
C623 C619 1.460 . S
C623 C622 1.477 . S
C623 H643 0.930 . S
C624 N620 1.362 . S
C624 C621 1.431 . S
C624 C634 1.476 1_556 S
H625 C619 0.929 . S
C626 O617 1.250 . S
C626 O618 1.258 . S
O627 Mn612 2.162 . S
O627 C615 1.281 . S
O628 Mn612 2.297 . S
O628 C615 1.236 . S
N629 Mn613 2.282 1_554 S
N629 C630 1.328 . S
N629 C634 1.318 . S
C630 N629 1.328 . S
C630 C631 1.457 . S
C630 H635 0.929 . S
C631 C630 1.457 . S
C631 C632 1.291 . S
C631 H644 0.931 . S
C632 C631 1.291 . S
C632 C633 1.373 . S
C632 H645 0.929 . S
C633 C632 1.373 . S
C633 C634 1.396 . S
C633 C640 1.403 . S
C634 C624 1.476 1_554 S
C634 N629 1.318 . S
C634 C633 1.396 . S
H635 C630 0.929 . S
O636 Mn612 2.385 . S
O636 C614 1.234 . S
O637 Mn612 2.209 . S
O637 Mn613 2.215 . S
O637 C614 1.283 . S
O638 Mn612 2.094 1_554 S
O638 C616 1.240 . S
O639 Mn613 2.117 1_554 S
O639 C616 1.264 . S
C640 C633 1.403 . S
C640 C641 1.399 1_554 S
C640 H646 0.929 . S
C641 C621 1.449 . S
C641 C640 1.399 1_556 S
C641 H647 0.930 . S
H642 C622 0.931 . S
H643 C623 0.930 . S
H644 C631 0.931 . S
H645 C632 0.929 . S
H646 C640 0.929 . S
H647 C641 0.930 . S
Mn648 O653 2.095 . S
Mn648 O663 2.162 . S
Mn648 O664 2.297 . S
Mn648 O672 2.385 . S
Mn648 O673 2.209 . S
Mn648 O674 2.094 1_556 S
Mn649 O654 2.121 . S
Mn649 N656 2.257 . S
Mn649 N665 2.282 1_556 S
Mn649 O673 2.215 . S
Mn649 O675 2.117 1_556 S
C650 O672 1.234 . S
C650 O673 1.283 . S
C651 O663 1.281 . S
C651 O664 1.236 . S
C652 O674 1.240 . S
C652 O675 1.264 . S
O653 Mn648 2.095 . S
O653 C662 1.250 . S
O654 Mn649 2.121 . S
O654 C662 1.258 . S
C655 N656 1.326 . S
C655 C659 1.460 . S
C655 H661 0.929 . S
N656 Mn649 2.257 . S
N656 C655 1.326 . S
N656 C660 1.362 . S
C657 C658 1.258 . S
C657 C660 1.431 . S
C657 C677 1.449 . S
C658 C657 1.258 . S
C658 C659 1.477 . S
C658 H678 0.931 . S
C659 C655 1.460 . S
C659 C658 1.477 . S
C659 H679 0.930 . S
C660 N656 1.362 . S
C660 C657 1.431 . S
C660 C670 1.476 1_556 S
H661 C655 0.929 . S
C662 O653 1.250 . S
C662 O654 1.258 . S
O663 Mn648 2.162 . S
O663 C651 1.281 . S
O664 Mn648 2.297 . S
O664 C651 1.236 . S
N665 Mn649 2.282 1_554 S
N665 C666 1.328 . S
N665 C670 1.318 . S
C666 N665 1.328 . S
C666 C667 1.457 . S
C666 H671 0.929 . S
C667 C666 1.457 . S
C667 C668 1.291 . S
C667 H680 0.931 . S
C668 C667 1.291 . S
C668 C669 1.373 . S
C668 H681 0.929 . S
C669 C668 1.373 . S
C669 C670 1.396 . S
C669 C676 1.403 . S
C670 C660 1.476 1_554 S
C670 N665 1.318 . S
C670 C669 1.396 . S
H671 C666 0.929 . S
O672 Mn648 2.385 . S
O672 C650 1.234 . S
O673 Mn648 2.209 . S
O673 Mn649 2.215 . S
O673 C650 1.283 . S
O674 Mn648 2.094 1_554 S
O674 C652 1.240 . S
O675 Mn649 2.117 1_554 S
O675 C652 1.264 . S
C676 C669 1.403 . S
C676 C677 1.399 1_554 S
C676 H682 0.929 . S
C677 C657 1.449 . S
C677 C676 1.399 1_556 S
C677 H683 0.930 . S
H678 C658 0.931 . S
H679 C659 0.930 . S
H680 C667 0.931 . S
H681 C668 0.929 . S
H682 C676 0.929 . S
H683 C677 0.930 . S
Mn684 O689 2.095 . S
Mn684 O699 2.162 . S
Mn684 O700 2.297 . S
Mn684 O708 2.385 . S
Mn684 O709 2.209 . S
Mn684 O710 2.094 1_556 S
Mn685 O690 2.121 . S
Mn685 N692 2.257 . S
Mn685 N701 2.282 1_556 S
Mn685 O709 2.215 . S
Mn685 O711 2.117 1_556 S
C686 O708 1.234 . S
C686 O709 1.283 . S
C687 O699 1.281 . S
C687 O700 1.236 . S
C688 O710 1.240 . S
C688 O711 1.264 . S
O689 Mn684 2.095 . S
O689 C698 1.250 . S
O690 Mn685 2.121 . S
O690 C698 1.258 . S
C691 N692 1.326 . S
C691 C695 1.460 . S
C691 H697 0.929 . S
N692 Mn685 2.257 . S
N692 C691 1.326 . S
N692 C696 1.362 . S
C693 C694 1.258 . S
C693 C696 1.431 . S
C693 C713 1.449 . S
C694 C693 1.258 . S
C694 C695 1.477 . S
C694 H714 0.931 . S
C695 C691 1.460 . S
C695 C694 1.477 . S
C695 H715 0.930 . S
C696 N692 1.362 . S
C696 C693 1.431 . S
C696 C706 1.476 1_556 S
H697 C691 0.929 . S
C698 O689 1.250 . S
C698 O690 1.258 . S
O699 Mn684 2.162 . S
O699 C687 1.281 . S
O700 Mn684 2.297 . S
O700 C687 1.236 . S
N701 Mn685 2.282 1_554 S
N701 C702 1.328 . S
N701 C706 1.318 . S
C702 N701 1.328 . S
C702 C703 1.457 . S
C702 H707 0.929 . S
C703 C702 1.457 . S
C703 C704 1.291 . S
C703 H716 0.931 . S
C704 C703 1.291 . S
C704 C705 1.373 . S
C704 H717 0.929 . S
C705 C704 1.373 . S
C705 C706 1.396 . S
C705 C712 1.403 . S
C706 C696 1.476 1_554 S
C706 N701 1.318 . S
C706 C705 1.396 . S
H707 C702 0.929 . S
O708 Mn684 2.385 . S
O708 C686 1.234 . S
O709 Mn684 2.209 . S
O709 Mn685 2.215 . S
O709 C686 1.283 . S
O710 Mn684 2.094 1_554 S
O710 C688 1.240 . S
O711 Mn685 2.117 1_554 S
O711 C688 1.264 . S
C712 C705 1.403 . S
C712 C713 1.399 1_554 S
C712 H718 0.929 . S
C713 C693 1.449 . S
C713 C712 1.399 1_556 S
C713 H719 0.930 . S
H714 C694 0.931 . S
H715 C695 0.930 . S
H716 C703 0.931 . S
H717 C704 0.929 . S
H718 C712 0.929 . S
H719 C713 0.930 . S
Mn720 O725 2.095 . S
Mn720 O735 2.162 . S
Mn720 O736 2.297 . S
Mn720 O744 2.385 . S
Mn720 O745 2.209 . S
Mn720 O746 2.094 1_556 S
Mn721 O726 2.121 . S
Mn721 N728 2.257 . S
Mn721 N737 2.282 1_556 S
Mn721 O745 2.215 . S
Mn721 O747 2.117 1_556 S
C722 O744 1.234 . S
C722 O745 1.283 . S
C723 O735 1.281 . S
C723 O736 1.236 . S
C724 O746 1.240 . S
C724 O747 1.264 . S
O725 Mn720 2.095 . S
O725 C734 1.250 . S
O726 Mn721 2.121 . S
O726 C734 1.258 . S
C727 N728 1.326 . S
C727 C731 1.460 . S
C727 H733 0.929 . S
N728 Mn721 2.257 . S
N728 C727 1.326 . S
N728 C732 1.362 . S
C729 C730 1.258 . S
C729 C732 1.431 . S
C729 C749 1.449 . S
C730 C729 1.258 . S
C730 C731 1.477 . S
C730 H750 0.931 . S
C731 C727 1.460 . S
C731 C730 1.477 . S
C731 H751 0.930 . S
C732 N728 1.362 . S
C732 C729 1.431 . S
C732 C742 1.476 1_556 S
H733 C727 0.929 . S
C734 O725 1.250 . S
C734 O726 1.258 . S
O735 Mn720 2.162 . S
O735 C723 1.281 . S
O736 Mn720 2.297 . S
O736 C723 1.236 . S
N737 Mn721 2.282 1_554 S
N737 C738 1.328 . S
N737 C742 1.318 . S
C738 N737 1.328 . S
C738 C739 1.457 . S
C738 H743 0.929 . S
C739 C738 1.457 . S
C739 C740 1.291 . S
C739 H752 0.931 . S
C740 C739 1.291 . S
C740 C741 1.373 . S
C740 H753 0.929 . S
C741 C740 1.373 . S
C741 C742 1.396 . S
C741 C748 1.403 . S
C742 C732 1.476 1_554 S
C742 N737 1.318 . S
C742 C741 1.396 . S
H743 C738 0.929 . S
O744 Mn720 2.385 . S
O744 C722 1.234 . S
O745 Mn720 2.209 . S
O745 Mn721 2.215 . S
O745 C722 1.283 . S
O746 Mn720 2.094 1_554 S
O746 C724 1.240 . S
O747 Mn721 2.117 1_554 S
O747 C724 1.264 . S
C748 C741 1.403 . S
C748 C749 1.399 1_554 S
C748 H754 0.929 . S
C749 C729 1.449 . S
C749 C748 1.399 1_556 S
C749 H755 0.930 . S
H750 C730 0.931 . S
H751 C731 0.930 . S
H752 C739 0.931 . S
H753 C740 0.929 . S
H754 C748 0.929 . S
H755 C749 0.930 . S
Mn756 O761 2.095 . S
Mn756 O771 2.162 . S
Mn756 O772 2.297 . S
Mn756 O780 2.385 . S
Mn756 O781 2.209 . S
Mn756 O782 2.094 1_554 S
Mn757 O762 2.121 . S
Mn757 N764 2.257 . S
Mn757 N773 2.282 1_554 S
Mn757 O781 2.215 . S
Mn757 O783 2.117 1_554 S
C758 O780 1.234 . S
C758 O781 1.283 . S
C759 O771 1.281 . S
C759 O772 1.236 . S
C760 O782 1.240 . S
C760 O783 1.264 . S
O761 Mn756 2.095 . S
O761 C770 1.250 . S
O762 Mn757 2.121 . S
O762 C770 1.258 . S
C763 N764 1.326 . S
C763 C767 1.460 . S
C763 H769 0.929 . S
N764 Mn757 2.257 . S
N764 C763 1.326 . S
N764 C768 1.362 . S
C765 C766 1.258 . S
C765 C768 1.431 . S
C765 C785 1.449 . S
C766 C765 1.258 . S
C766 C767 1.477 . S
C766 H786 0.931 . S
C767 C763 1.460 . S
C767 C766 1.477 . S
C767 H787 0.930 . S
C768 N764 1.362 . S
C768 C765 1.431 . S
C768 C778 1.476 1_554 S
H769 C763 0.929 . S
C770 O761 1.250 . S
C770 O762 1.258 . S
O771 Mn756 2.162 . S
O771 C759 1.281 . S
O772 Mn756 2.297 . S
O772 C759 1.236 . S
N773 Mn757 2.282 1_556 S
N773 C774 1.328 . S
N773 C778 1.318 . S
C774 N773 1.328 . S
C774 C775 1.457 . S
C774 H779 0.929 . S
C775 C774 1.457 . S
C775 C776 1.291 . S
C775 H788 0.931 . S
C776 C775 1.291 . S
C776 C777 1.373 . S
C776 H789 0.929 . S
C777 C776 1.373 . S
C777 C778 1.396 . S
C777 C784 1.403 . S
C778 C768 1.476 1_556 S
C778 N773 1.318 . S
C778 C777 1.396 . S
H779 C774 0.929 . S
O780 Mn756 2.385 . S
O780 C758 1.234 . S
O781 Mn756 2.209 . S
O781 Mn757 2.215 . S
O781 C758 1.283 . S
O782 Mn756 2.094 1_556 S
O782 C760 1.240 . S
O783 Mn757 2.117 1_556 S
O783 C760 1.264 . S
C784 C777 1.403 . S
C784 C785 1.399 1_556 S
C784 H790 0.929 . S
C785 C765 1.449 . S
C785 C784 1.399 1_554 S
C785 H791 0.930 . S
H786 C766 0.931 . S
H787 C767 0.930 . S
H788 C775 0.931 . S
H789 C776 0.929 . S
H790 C784 0.929 . S
H791 C785 0.930 . S
Mn792 O797 2.095 . S
Mn792 O807 2.162 . S
Mn792 O808 2.297 . S
Mn792 O816 2.385 . S
Mn792 O817 2.209 . S
Mn792 O818 2.094 1_554 S
Mn793 O798 2.121 . S
Mn793 N800 2.257 . S
Mn793 N809 2.282 1_554 S
Mn793 O817 2.215 . S
Mn793 O819 2.117 1_554 S
C794 O816 1.234 . S
C794 O817 1.283 . S
C795 O807 1.281 . S
C795 O808 1.236 . S
C796 O818 1.240 . S
C796 O819 1.264 . S
O797 Mn792 2.095 . S
O797 C806 1.250 . S
O798 Mn793 2.121 . S
O798 C806 1.258 . S
C799 N800 1.326 . S
C799 C803 1.460 . S
C799 H805 0.929 . S
N800 Mn793 2.257 . S
N800 C799 1.326 . S
N800 C804 1.362 . S
C801 C802 1.258 . S
C801 C804 1.431 . S
C801 C821 1.449 . S
C802 C801 1.258 . S
C802 C803 1.477 . S
C802 H822 0.931 . S
C803 C799 1.460 . S
C803 C802 1.477 . S
C803 H823 0.930 . S
C804 N800 1.362 . S
C804 C801 1.431 . S
C804 C814 1.476 1_554 S
H805 C799 0.929 . S
C806 O797 1.250 . S
C806 O798 1.258 . S
O807 Mn792 2.162 . S
O807 C795 1.281 . S
O808 Mn792 2.297 . S
O808 C795 1.236 . S
N809 Mn793 2.282 1_556 S
N809 C810 1.328 . S
N809 C814 1.318 . S
C810 N809 1.328 . S
C810 C811 1.457 . S
C810 H815 0.929 . S
C811 C810 1.457 . S
C811 C812 1.291 . S
C811 H824 0.931 . S
C812 C811 1.291 . S
C812 C813 1.373 . S
C812 H825 0.929 . S
C813 C812 1.373 . S
C813 C814 1.396 . S
C813 C820 1.403 . S
C814 C804 1.476 1_556 S
C814 N809 1.318 . S
C814 C813 1.396 . S
H815 C810 0.929 . S
O816 Mn792 2.385 . S
O816 C794 1.234 . S
O817 Mn792 2.209 . S
O817 Mn793 2.215 . S
O817 C794 1.283 . S
O818 Mn792 2.094 1_556 S
O818 C796 1.240 . S
O819 Mn793 2.117 1_556 S
O819 C796 1.264 . S
C820 C813 1.403 . S
C820 C821 1.399 1_556 S
C820 H826 0.929 . S
C821 C801 1.449 . S
C821 C820 1.399 1_554 S
C821 H827 0.930 . S
H822 C802 0.931 . S
H823 C803 0.930 . S
H824 C811 0.931 . S
H825 C812 0.929 . S
H826 C820 0.929 . S
H827 C821 0.930 . S
Mn828 O833 2.095 . S
Mn828 O843 2.162 . S
Mn828 O844 2.297 . S
Mn828 O852 2.385 . S
Mn828 O853 2.209 . S
Mn828 O854 2.094 1_554 S
Mn829 O834 2.121 . S
Mn829 N836 2.257 . S
Mn829 N845 2.282 1_554 S
Mn829 O853 2.215 . S
Mn829 O855 2.117 1_554 S
C830 O852 1.234 . S
C830 O853 1.283 . S
C831 O843 1.281 . S
C831 O844 1.236 . S
C832 O854 1.240 . S
C832 O855 1.264 . S
O833 Mn828 2.095 . S
O833 C842 1.250 . S
O834 Mn829 2.121 . S
O834 C842 1.258 . S
C835 N836 1.326 . S
C835 C839 1.460 . S
C835 H841 0.929 . S
N836 Mn829 2.257 . S
N836 C835 1.326 . S
N836 C840 1.362 . S
C837 C838 1.258 . S
C837 C840 1.431 . S
C837 C857 1.449 . S
C838 C837 1.258 . S
C838 C839 1.477 . S
C838 H858 0.931 . S
C839 C835 1.460 . S
C839 C838 1.477 . S
C839 H859 0.930 . S
C840 N836 1.362 . S
C840 C837 1.431 . S
C840 C850 1.476 1_554 S
H841 C835 0.929 . S
C842 O833 1.250 . S
C842 O834 1.258 . S
O843 Mn828 2.162 . S
O843 C831 1.281 . S
O844 Mn828 2.297 . S
O844 C831 1.236 . S
N845 Mn829 2.282 1_556 S
N845 C846 1.328 . S
N845 C850 1.318 . S
C846 N845 1.328 . S
C846 C847 1.457 . S
C846 H851 0.929 . S
C847 C846 1.457 . S
C847 C848 1.291 . S
C847 H860 0.931 . S
C848 C847 1.291 . S
C848 C849 1.373 . S
C848 H861 0.929 . S
C849 C848 1.373 . S
C849 C850 1.396 . S
C849 C856 1.403 . S
C850 C840 1.476 1_556 S
C850 N845 1.318 . S
C850 C849 1.396 . S
H851 C846 0.929 . S
O852 Mn828 2.385 . S
O852 C830 1.234 . S
O853 Mn828 2.209 . S
O853 Mn829 2.215 . S
O853 C830 1.283 . S
O854 Mn828 2.094 1_556 S
O854 C832 1.240 . S
O855 Mn829 2.117 1_556 S
O855 C832 1.264 . S
C856 C849 1.403 . S
C856 C857 1.399 1_556 S
C856 H862 0.929 . S
C857 C837 1.449 . S
C857 C856 1.399 1_554 S
C857 H863 0.930 . S
H858 C838 0.931 . S
H859 C839 0.930 . S
H860 C847 0.931 . S
H861 C848 0.929 . S
H862 C856 0.929 . S
H863 C857 0.930 . S
Mn864 O869 2.095 . S
Mn864 O879 2.162 . S
Mn864 O880 2.297 . S
Mn864 O888 2.385 . S
Mn864 O889 2.209 . S
Mn864 O890 2.094 . S
Mn865 O870 2.121 . S
Mn865 N872 2.257 . S
Mn865 N881 2.282 . S
Mn865 O889 2.215 . S
Mn865 O891 2.117 . S
C866 O888 1.234 . S
C866 O889 1.283 . S
C867 O879 1.281 . S
C867 O880 1.236 . S
C868 O890 1.240 . S
C868 O891 1.264 . S
O869 Mn864 2.095 . S
O869 C878 1.250 . S
O870 Mn865 2.121 . S
O870 C878 1.258 . S
C871 N872 1.326 . S
C871 C875 1.460 . S
C871 H877 0.929 . S
N872 Mn865 2.257 . S
N872 C871 1.326 . S
N872 C876 1.362 . S
C873 C874 1.258 . S
C873 C876 1.431 . S
C873 C893 1.449 . S
C874 C873 1.258 . S
C874 C875 1.477 . S
C874 H894 0.931 . S
C875 C871 1.460 . S
C875 C874 1.477 . S
C875 H895 0.930 . S
C876 N872 1.362 . S
C876 C873 1.431 . S
C876 C886 1.476 . S
H877 C871 0.929 . S
C878 O869 1.250 . S
C878 O870 1.258 . S
O879 Mn864 2.162 . S
O879 C867 1.281 . S
O880 Mn864 2.297 . S
O880 C867 1.236 . S
N881 Mn865 2.282 . S
N881 C882 1.328 . S
N881 C886 1.318 . S
C882 N881 1.328 . S
C882 C883 1.457 . S
C882 H887 0.929 . S
C883 C882 1.457 . S
C883 C884 1.291 . S
C883 H896 0.931 . S
C884 C883 1.291 . S
C884 C885 1.373 . S
C884 H897 0.929 . S
C885 C884 1.373 . S
C885 C886 1.396 . S
C885 C892 1.403 . S
C886 C876 1.476 . S
C886 N881 1.318 . S
C886 C885 1.396 . S
H887 C882 0.929 . S
O888 Mn864 2.385 . S
O888 C866 1.234 . S
O889 Mn864 2.209 . S
O889 Mn865 2.215 . S
O889 C866 1.283 . S
O890 Mn864 2.094 . S
O890 C868 1.240 . S
O891 Mn865 2.117 . S
O891 C868 1.264 . S
C892 C885 1.403 . S
C892 C893 1.399 . S
C892 H898 0.929 . S
C893 C873 1.449 . S
C893 C892 1.399 . S
C893 H899 0.930 . S
H894 C874 0.931 . S
H895 C875 0.930 . S
H896 C883 0.931 . S
H897 C884 0.929 . S
H898 C892 0.929 . S
H899 C893 0.930 . S
Mn900 O905 2.095 . S
Mn900 O915 2.162 . S
Mn900 O916 2.297 . S
Mn900 O924 2.385 . S
Mn900 O925 2.209 . S
Mn900 O926 2.094 . S
Mn901 O906 2.121 . S
Mn901 N908 2.257 . S
Mn901 N917 2.282 . S
Mn901 O925 2.215 . S
Mn901 O927 2.117 . S
C902 O924 1.234 . S
C902 O925 1.283 . S
C903 O915 1.281 . S
C903 O916 1.236 . S
C904 O926 1.240 . S
C904 O927 1.264 . S
O905 Mn900 2.095 . S
O905 C914 1.250 . S
O906 Mn901 2.121 . S
O906 C914 1.258 . S
C907 N908 1.326 . S
C907 C911 1.460 . S
C907 H913 0.929 . S
N908 Mn901 2.257 . S
N908 C907 1.326 . S
N908 C912 1.362 . S
C909 C910 1.258 . S
C909 C912 1.431 . S
C909 C929 1.449 . S
C910 C909 1.258 . S
C910 C911 1.477 . S
C910 H930 0.931 . S
C911 C907 1.460 . S
C911 C910 1.477 . S
C911 H931 0.930 . S
C912 N908 1.362 . S
C912 C909 1.431 . S
C912 C922 1.476 . S
H913 C907 0.929 . S
C914 O905 1.250 . S
C914 O906 1.258 . S
O915 Mn900 2.162 . S
O915 C903 1.281 . S
O916 Mn900 2.297 . S
O916 C903 1.236 . S
N917 Mn901 2.282 . S
N917 C918 1.328 . S
N917 C922 1.318 . S
C918 N917 1.328 . S
C918 C919 1.457 . S
C918 H923 0.929 . S
C919 C918 1.457 . S
C919 C920 1.291 . S
C919 H932 0.931 . S
C920 C919 1.291 . S
C920 C921 1.373 . S
C920 H933 0.929 . S
C921 C920 1.373 . S
C921 C922 1.396 . S
C921 C928 1.403 . S
C922 C912 1.476 . S
C922 N917 1.318 . S
C922 C921 1.396 . S
H923 C918 0.929 . S
O924 Mn900 2.385 . S
O924 C902 1.234 . S
O925 Mn900 2.209 . S
O925 Mn901 2.215 . S
O925 C902 1.283 . S
O926 Mn900 2.094 . S
O926 C904 1.240 . S
O927 Mn901 2.117 . S
O927 C904 1.264 . S
C928 C921 1.403 . S
C928 C929 1.399 . S
C928 H934 0.929 . S
C929 C909 1.449 . S
C929 C928 1.399 . S
C929 H935 0.930 . S
H930 C910 0.931 . S
H931 C911 0.930 . S
H932 C919 0.931 . S
H933 C920 0.929 . S
H934 C928 0.929 . S
H935 C929 0.930 . S
Mn936 O941 2.095 . S
Mn936 O951 2.162 . S
Mn936 O952 2.297 . S
Mn936 O960 2.385 . S
Mn936 O961 2.209 . S
Mn936 O962 2.094 . S
Mn937 O942 2.121 . S
Mn937 N944 2.257 . S
Mn937 N953 2.282 . S
Mn937 O961 2.215 . S
Mn937 O963 2.117 . S
C938 O960 1.234 . S
C938 O961 1.283 . S
C939 O951 1.281 . S
C939 O952 1.236 . S
C940 O962 1.240 . S
C940 O963 1.264 . S
O941 Mn936 2.095 . S
O941 C950 1.250 . S
O942 Mn937 2.121 . S
O942 C950 1.258 . S
C943 N944 1.326 . S
C943 C947 1.460 . S
C943 H949 0.929 . S
N944 Mn937 2.257 . S
N944 C943 1.326 . S
N944 C948 1.362 . S
C945 C946 1.258 . S
C945 C948 1.431 . S
C945 C965 1.449 . S
C946 C945 1.258 . S
C946 C947 1.477 . S
C946 H966 0.931 . S
C947 C943 1.460 . S
C947 C946 1.477 . S
C947 H967 0.930 . S
C948 N944 1.362 . S
C948 C945 1.431 . S
C948 C958 1.476 . S
H949 C943 0.929 . S
C950 O941 1.250 . S
C950 O942 1.258 . S
O951 Mn936 2.162 . S
O951 C939 1.281 . S
O952 Mn936 2.297 . S
O952 C939 1.236 . S
N953 Mn937 2.282 . S
N953 C954 1.328 . S
N953 C958 1.318 . S
C954 N953 1.328 . S
C954 C955 1.457 . S
C954 H959 0.929 . S
C955 C954 1.457 . S
C955 C956 1.291 . S
C955 H968 0.931 . S
C956 C955 1.291 . S
C956 C957 1.373 . S
C956 H969 0.929 . S
C957 C956 1.373 . S
C957 C958 1.396 . S
C957 C964 1.403 . S
C958 C948 1.476 . S
C958 N953 1.318 . S
C958 C957 1.396 . S
H959 C954 0.929 . S
O960 Mn936 2.385 . S
O960 C938 1.234 . S
O961 Mn936 2.209 . S
O961 Mn937 2.215 . S
O961 C938 1.283 . S
O962 Mn936 2.094 . S
O962 C940 1.240 . S
O963 Mn937 2.117 . S
O963 C940 1.264 . S
C964 C957 1.403 . S
C964 C965 1.399 . S
C964 H970 0.929 . S
C965 C945 1.449 . S
C965 C964 1.399 . S
C965 H971 0.930 . S
H966 C946 0.931 . S
H967 C947 0.930 . S
H968 C955 0.931 . S
H969 C956 0.929 . S
H970 C964 0.929 . S
H971 C965 0.930 . S
Mn972 O977 2.095 . S
Mn972 O987 2.162 . S
Mn972 O988 2.297 . S
Mn972 O996 2.385 . S
Mn972 O997 2.209 . S
Mn972 O998 2.094 . S
Mn973 O978 2.121 . S
Mn973 N980 2.257 . S
Mn973 N989 2.282 . S
Mn973 O997 2.215 . S
Mn973 O999 2.117 . S
C974 O996 1.234 . S
C974 O997 1.283 . S
C975 O987 1.281 . S
C975 O988 1.236 . S
C976 O998 1.240 . S
C976 O999 1.264 . S
O977 Mn972 2.095 . S
O977 C986 1.250 . S
O978 Mn973 2.121 . S
O978 C986 1.258 . S
C979 N980 1.326 . S
C979 C983 1.460 . S
C979 H985 0.929 . S
N980 Mn973 2.257 . S
N980 C979 1.326 . S
N980 C984 1.362 . S
C981 C982 1.258 . S
C981 C984 1.431 . S
C981 C1001 1.449 . S
C982 C981 1.258 . S
C982 C983 1.477 . S
C982 H1002 0.931 . S
C983 C979 1.460 . S
C983 C982 1.477 . S
C983 H1003 0.930 . S
C984 N980 1.362 . S
C984 C981 1.431 . S
C984 C994 1.476 . S
H985 C979 0.929 . S
C986 O977 1.250 . S
C986 O978 1.258 . S
O987 Mn972 2.162 . S
O987 C975 1.281 . S
O988 Mn972 2.297 . S
O988 C975 1.236 . S
N989 Mn973 2.282 . S
N989 C990 1.328 . S
N989 C994 1.318 . S
C990 N989 1.328 . S
C990 C991 1.457 . S
C990 H995 0.929 . S
C991 C990 1.457 . S
C991 C992 1.291 . S
C991 H1004 0.931 . S
C992 C991 1.291 . S
C992 C993 1.373 . S
C992 H1005 0.929 . S
C993 C992 1.373 . S
C993 C994 1.396 . S
C993 C1000 1.403 . S
C994 C984 1.476 . S
C994 N989 1.318 . S
C994 C993 1.396 . S
H995 C990 0.929 . S
O996 Mn972 2.385 . S
O996 C974 1.234 . S
O997 Mn972 2.209 . S
O997 Mn973 2.215 . S
O997 C974 1.283 . S
O998 Mn972 2.094 . S
O998 C976 1.240 . S
O999 Mn973 2.117 . S
O999 C976 1.264 . S
C1000 C993 1.403 . S
C1000 C1001 1.399 . S
C1000 H1006 0.929 . S
C1001 C981 1.449 . S
C1001 C1000 1.399 . S
C1001 H1007 0.930 . S
H1002 C982 0.931 . S
H1003 C983 0.930 . S
H1004 C991 0.931 . S
H1005 C992 0.929 . S
H1006 C1000 0.929 . S
H1007 C1001 0.930 . S
Mn1008 O1013 2.095 . S
Mn1008 O1023 2.162 . S
Mn1008 O1024 2.297 . S
Mn1008 O1032 2.385 . S
Mn1008 O1033 2.209 . S
Mn1008 O1034 2.094 . S
Mn1009 O1014 2.121 . S
Mn1009 N1016 2.257 . S
Mn1009 N1025 2.282 . S
Mn1009 O1033 2.215 . S
Mn1009 O1035 2.117 . S
C1010 O1032 1.234 . S
C1010 O1033 1.283 . S
C1011 O1023 1.281 . S
C1011 O1024 1.236 . S
C1012 O1034 1.240 . S
C1012 O1035 1.264 . S
O1013 Mn1008 2.095 . S
O1013 C1022 1.250 . S
O1014 Mn1009 2.121 . S
O1014 C1022 1.258 . S
C1015 N1016 1.326 . S
C1015 C1019 1.460 . S
C1015 H1021 0.929 . S
N1016 Mn1009 2.257 . S
N1016 C1015 1.326 . S
N1016 C1020 1.362 . S
C1017 C1018 1.258 . S
C1017 C1020 1.431 . S
C1017 C1037 1.449 . S
C1018 C1017 1.258 . S
C1018 C1019 1.477 . S
C1018 H1038 0.931 . S
C1019 C1015 1.460 . S
C1019 C1018 1.477 . S
C1019 H1039 0.930 . S
C1020 N1016 1.362 . S
C1020 C1017 1.431 . S
C1020 C1030 1.476 . S
H1021 C1015 0.929 . S
C1022 O1013 1.250 . S
C1022 O1014 1.258 . S
O1023 Mn1008 2.162 . S
O1023 C1011 1.281 . S
O1024 Mn1008 2.297 . S
O1024 C1011 1.236 . S
N1025 Mn1009 2.282 . S
N1025 C1026 1.328 . S
N1025 C1030 1.318 . S
C1026 N1025 1.328 . S
C1026 C1027 1.457 . S
C1026 H1031 0.929 . S
C1027 C1026 1.457 . S
C1027 C1028 1.291 . S
C1027 H1040 0.931 . S
C1028 C1027 1.291 . S
C1028 C1029 1.373 . S
C1028 H1041 0.929 . S
C1029 C1028 1.373 . S
C1029 C1030 1.396 . S
C1029 C1036 1.403 . S
C1030 C1020 1.476 . S
C1030 N1025 1.318 . S
C1030 C1029 1.396 . S
H1031 C1026 0.929 . S
O1032 Mn1008 2.385 . S
O1032 C1010 1.234 . S
O1033 Mn1008 2.209 . S
O1033 Mn1009 2.215 . S
O1033 C1010 1.283 . S
O1034 Mn1008 2.094 . S
O1034 C1012 1.240 . S
O1035 Mn1009 2.117 . S
O1035 C1012 1.264 . S
C1036 C1029 1.403 . S
C1036 C1037 1.399 . S
C1036 H1042 0.929 . S
C1037 C1017 1.449 . S
C1037 C1036 1.399 . S
C1037 H1043 0.930 . S
H1038 C1018 0.931 . S
H1039 C1019 0.930 . S
H1040 C1027 0.931 . S
H1041 C1028 0.929 . S
H1042 C1036 0.929 . S
H1043 C1037 0.930 . S
Mn1044 O1049 2.095 . S
Mn1044 O1059 2.162 . S
Mn1044 O1060 2.297 . S
Mn1044 O1068 2.385 . S
Mn1044 O1069 2.209 . S
Mn1044 O1070 2.094 . S
Mn1045 O1050 2.121 . S
Mn1045 N1052 2.257 . S
Mn1045 N1061 2.282 . S
Mn1045 O1069 2.215 . S
Mn1045 O1071 2.117 . S
C1046 O1068 1.234 . S
C1046 O1069 1.283 . S
C1047 O1059 1.281 . S
C1047 O1060 1.236 . S
C1048 O1070 1.240 . S
C1048 O1071 1.264 . S
O1049 Mn1044 2.095 . S
O1049 C1058 1.250 . S
O1050 Mn1045 2.121 . S
O1050 C1058 1.258 . S
C1051 N1052 1.326 . S
C1051 C1055 1.460 . S
C1051 H1057 0.929 . S
N1052 Mn1045 2.257 . S
N1052 C1051 1.326 . S
N1052 C1056 1.362 . S
C1053 C1054 1.258 . S
C1053 C1056 1.431 . S
C1053 C1073 1.449 . S
C1054 C1053 1.258 . S
C1054 C1055 1.477 . S
C1054 H1074 0.931 . S
C1055 C1051 1.460 . S
C1055 C1054 1.477 . S
C1055 H1075 0.930 . S
C1056 N1052 1.362 . S
C1056 C1053 1.431 . S
C1056 C1066 1.476 . S
H1057 C1051 0.929 . S
C1058 O1049 1.250 . S
C1058 O1050 1.258 . S
O1059 Mn1044 2.162 . S
O1059 C1047 1.281 . S
O1060 Mn1044 2.297 . S
O1060 C1047 1.236 . S
N1061 Mn1045 2.282 . S
N1061 C1062 1.328 . S
N1061 C1066 1.318 . S
C1062 N1061 1.328 . S
C1062 C1063 1.457 . S
C1062 H1067 0.929 . S
C1063 C1062 1.457 . S
C1063 C1064 1.291 . S
C1063 H1076 0.931 . S
C1064 C1063 1.291 . S
C1064 C1065 1.373 . S
C1064 H1077 0.929 . S
C1065 C1064 1.373 . S
C1065 C1066 1.396 . S
C1065 C1072 1.403 . S
C1066 C1056 1.476 . S
C1066 N1061 1.318 . S
C1066 C1065 1.396 . S
H1067 C1062 0.929 . S
O1068 Mn1044 2.385 . S
O1068 C1046 1.234 . S
O1069 Mn1044 2.209 . S
O1069 Mn1045 2.215 . S
O1069 C1046 1.283 . S
O1070 Mn1044 2.094 . S
O1070 C1048 1.240 . S
O1071 Mn1045 2.117 . S
O1071 C1048 1.264 . S
C1072 C1065 1.403 . S
C1072 C1073 1.399 . S
C1072 H1078 0.929 . S
C1073 C1053 1.449 . S
C1073 C1072 1.399 . S
C1073 H1079 0.930 . S
H1074 C1054 0.931 . S
H1075 C1055 0.930 . S
H1076 C1063 0.931 . S
H1077 C1064 0.929 . S
H1078 C1072 0.929 . S
H1079 C1073 0.930 . S
Mn1080 O1085 2.095 . S
Mn1080 O1095 2.162 . S
Mn1080 O1096 2.297 . S
Mn1080 O1104 2.385 . S
Mn1080 O1105 2.209 . S
Mn1080 O1106 2.094 . S
Mn1081 O1086 2.121 . S
Mn1081 N1088 2.257 . S
Mn1081 N1097 2.282 . S
Mn1081 O1105 2.215 . S
Mn1081 O1107 2.117 . S
C1082 O1104 1.234 . S
C1082 O1105 1.283 . S
C1083 O1095 1.281 . S
C1083 O1096 1.236 . S
C1084 O1106 1.240 . S
C1084 O1107 1.264 . S
O1085 Mn1080 2.095 . S
O1085 C1094 1.250 . S
O1086 Mn1081 2.121 . S
O1086 C1094 1.258 . S
C1087 N1088 1.326 . S
C1087 C1091 1.460 . S
C1087 H1093 0.929 . S
N1088 Mn1081 2.257 . S
N1088 C1087 1.326 . S
N1088 C1092 1.362 . S
C1089 C1090 1.258 . S
C1089 C1092 1.431 . S
C1089 C1109 1.449 . S
C1090 C1089 1.258 . S
C1090 C1091 1.477 . S
C1090 H1110 0.931 . S
C1091 C1087 1.460 . S
C1091 C1090 1.477 . S
C1091 H1111 0.930 . S
C1092 N1088 1.362 . S
C1092 C1089 1.431 . S
C1092 C1102 1.476 . S
H1093 C1087 0.929 . S
C1094 O1085 1.250 . S
C1094 O1086 1.258 . S
O1095 Mn1080 2.162 . S
O1095 C1083 1.281 . S
O1096 Mn1080 2.297 . S
O1096 C1083 1.236 . S
N1097 Mn1081 2.282 . S
N1097 C1098 1.328 . S
N1097 C1102 1.318 . S
C1098 N1097 1.328 . S
C1098 C1099 1.457 . S
C1098 H1103 0.929 . S
C1099 C1098 1.457 . S
C1099 C1100 1.291 . S
C1099 H1112 0.931 . S
C1100 C1099 1.291 . S
C1100 C1101 1.373 . S
C1100 H1113 0.929 . S
C1101 C1100 1.373 . S
C1101 C1102 1.396 . S
C1101 C1108 1.403 . S
C1102 C1092 1.476 . S
C1102 N1097 1.318 . S
C1102 C1101 1.396 . S
H1103 C1098 0.929 . S
O1104 Mn1080 2.385 . S
O1104 C1082 1.234 . S
O1105 Mn1080 2.209 . S
O1105 Mn1081 2.215 . S
O1105 C1082 1.283 . S
O1106 Mn1080 2.094 . S
O1106 C1084 1.240 . S
O1107 Mn1081 2.117 . S
O1107 C1084 1.264 . S
C1108 C1101 1.403 . S
C1108 C1109 1.399 . S
C1108 H1114 0.929 . S
C1109 C1089 1.449 . S
C1109 C1108 1.399 . S
C1109 H1115 0.930 . S
H1110 C1090 0.931 . S
H1111 C1091 0.930 . S
H1112 C1099 0.931 . S
H1113 C1100 0.929 . S
H1114 C1108 0.929 . S
H1115 C1109 0.930 . S
Mn1116 O1121 2.095 . S
Mn1116 O1131 2.162 . S
Mn1116 O1132 2.297 . S
Mn1116 O1140 2.385 . S
Mn1116 O1141 2.209 . S
Mn1116 O1142 2.094 . S
Mn1117 O1122 2.121 . S
Mn1117 N1124 2.257 . S
Mn1117 N1133 2.282 . S
Mn1117 O1141 2.215 . S
Mn1117 O1143 2.117 . S
C1118 O1140 1.234 . S
C1118 O1141 1.283 . S
C1119 O1131 1.281 . S
C1119 O1132 1.236 . S
C1120 O1142 1.240 . S
C1120 O1143 1.264 . S
O1121 Mn1116 2.095 . S
O1121 C1130 1.250 . S
O1122 Mn1117 2.121 . S
O1122 C1130 1.258 . S
C1123 N1124 1.326 . S
C1123 C1127 1.460 . S
C1123 H1129 0.929 . S
N1124 Mn1117 2.257 . S
N1124 C1123 1.326 . S
N1124 C1128 1.362 . S
C1125 C1126 1.258 . S
C1125 C1128 1.431 . S
C1125 C1145 1.449 . S
C1126 C1125 1.258 . S
C1126 C1127 1.477 . S
C1126 H1146 0.931 . S
C1127 C1123 1.460 . S
C1127 C1126 1.477 . S
C1127 H1147 0.930 . S
C1128 N1124 1.362 . S
C1128 C1125 1.431 . S
C1128 C1138 1.476 . S
H1129 C1123 0.929 . S
C1130 O1121 1.250 . S
C1130 O1122 1.258 . S
O1131 Mn1116 2.162 . S
O1131 C1119 1.281 . S
O1132 Mn1116 2.297 . S
O1132 C1119 1.236 . S
N1133 Mn1117 2.282 . S
N1133 C1134 1.328 . S
N1133 C1138 1.318 . S
C1134 N1133 1.328 . S
C1134 C1135 1.457 . S
C1134 H1139 0.929 . S
C1135 C1134 1.457 . S
C1135 C1136 1.291 . S
C1135 H1148 0.931 . S
C1136 C1135 1.291 . S
C1136 C1137 1.373 . S
C1136 H1149 0.929 . S
C1137 C1136 1.373 . S
C1137 C1138 1.396 . S
C1137 C1144 1.403 . S
C1138 C1128 1.476 . S
C1138 N1133 1.318 . S
C1138 C1137 1.396 . S
H1139 C1134 0.929 . S
O1140 Mn1116 2.385 . S
O1140 C1118 1.234 . S
O1141 Mn1116 2.209 . S
O1141 Mn1117 2.215 . S
O1141 C1118 1.283 . S
O1142 Mn1116 2.094 . S
O1142 C1120 1.240 . S
O1143 Mn1117 2.117 . S
O1143 C1120 1.264 . S
C1144 C1137 1.403 . S
C1144 C1145 1.399 . S
C1144 H1150 0.929 . S
C1145 C1125 1.449 . S
C1145 C1144 1.399 . S
C1145 H1151 0.930 . S
H1146 C1126 0.931 . S
H1147 C1127 0.930 . S
H1148 C1135 0.931 . S
H1149 C1136 0.929 . S
H1150 C1144 0.929 . S
H1151 C1145 0.930 . S
Mn1152 O1157 2.095 . S
Mn1152 O1167 2.162 . S
Mn1152 O1168 2.297 . S
Mn1152 O1176 2.385 . S
Mn1152 O1177 2.209 . S
Mn1152 O1178 2.094 . S
Mn1153 O1158 2.121 . S
Mn1153 N1160 2.257 . S
Mn1153 N1169 2.282 . S
Mn1153 O1177 2.215 . S
Mn1153 O1179 2.117 . S
C1154 O1176 1.234 . S
C1154 O1177 1.283 . S
C1155 O1167 1.281 . S
C1155 O1168 1.236 . S
C1156 O1178 1.240 . S
C1156 O1179 1.264 . S
O1157 Mn1152 2.095 . S
O1157 C1166 1.250 . S
O1158 Mn1153 2.121 . S
O1158 C1166 1.258 . S
C1159 N1160 1.326 . S
C1159 C1163 1.460 . S
C1159 H1165 0.929 . S
N1160 Mn1153 2.257 . S
N1160 C1159 1.326 . S
N1160 C1164 1.362 . S
C1161 C1162 1.258 . S
C1161 C1164 1.431 . S
C1161 C1181 1.449 . S
C1162 C1161 1.258 . S
C1162 C1163 1.477 . S
C1162 H1182 0.931 . S
C1163 C1159 1.460 . S
C1163 C1162 1.477 . S
C1163 H1183 0.930 . S
C1164 N1160 1.362 . S
C1164 C1161 1.431 . S
C1164 C1174 1.476 . S
H1165 C1159 0.929 . S
C1166 O1157 1.250 . S
C1166 O1158 1.258 . S
O1167 Mn1152 2.162 . S
O1167 C1155 1.281 . S
O1168 Mn1152 2.297 . S
O1168 C1155 1.236 . S
N1169 Mn1153 2.282 . S
N1169 C1170 1.328 . S
N1169 C1174 1.318 . S
C1170 N1169 1.328 . S
C1170 C1171 1.457 . S
C1170 H1175 0.929 . S
C1171 C1170 1.457 . S
C1171 C1172 1.291 . S
C1171 H1184 0.931 . S
C1172 C1171 1.291 . S
C1172 C1173 1.373 . S
C1172 H1185 0.929 . S
C1173 C1172 1.373 . S
C1173 C1174 1.396 . S
C1173 C1180 1.403 . S
C1174 C1164 1.476 . S
C1174 N1169 1.318 . S
C1174 C1173 1.396 . S
H1175 C1170 0.929 . S
O1176 Mn1152 2.385 . S
O1176 C1154 1.234 . S
O1177 Mn1152 2.209 . S
O1177 Mn1153 2.215 . S
O1177 C1154 1.283 . S
O1178 Mn1152 2.094 . S
O1178 C1156 1.240 . S
O1179 Mn1153 2.117 . S
O1179 C1156 1.264 . S
C1180 C1173 1.403 . S
C1180 C1181 1.399 . S
C1180 H1186 0.929 . S
C1181 C1161 1.449 . S
C1181 C1180 1.399 . S
C1181 H1187 0.930 . S
H1182 C1162 0.931 . S
H1183 C1163 0.930 . S
H1184 C1171 0.931 . S
H1185 C1172 0.929 . S
H1186 C1180 0.929 . S
H1187 C1181 0.930 . S
Mn1188 O1193 2.095 . S
Mn1188 O1203 2.162 . S
Mn1188 O1204 2.297 . S
Mn1188 O1212 2.385 . S
Mn1188 O1213 2.209 . S
Mn1188 O1214 2.094 . S
Mn1189 O1194 2.121 . S
Mn1189 N1196 2.257 . S
Mn1189 N1205 2.282 . S
Mn1189 O1213 2.215 . S
Mn1189 O1215 2.117 . S
C1190 O1212 1.234 . S
C1190 O1213 1.283 . S
C1191 O1203 1.281 . S
C1191 O1204 1.236 . S
C1192 O1214 1.240 . S
C1192 O1215 1.264 . S
O1193 Mn1188 2.095 . S
O1193 C1202 1.250 . S
O1194 Mn1189 2.121 . S
O1194 C1202 1.258 . S
C1195 N1196 1.326 . S
C1195 C1199 1.460 . S
C1195 H1201 0.929 . S
N1196 Mn1189 2.257 . S
N1196 C1195 1.326 . S
N1196 C1200 1.362 . S
C1197 C1198 1.258 . S
C1197 C1200 1.431 . S
C1197 C1217 1.449 . S
C1198 C1197 1.258 . S
C1198 C1199 1.477 . S
C1198 H1218 0.931 . S
C1199 C1195 1.460 . S
C1199 C1198 1.477 . S
C1199 H1219 0.930 . S
C1200 N1196 1.362 . S
C1200 C1197 1.431 . S
C1200 C1210 1.476 . S
H1201 C1195 0.929 . S
C1202 O1193 1.250 . S
C1202 O1194 1.258 . S
O1203 Mn1188 2.162 . S
O1203 C1191 1.281 . S
O1204 Mn1188 2.297 . S
O1204 C1191 1.236 . S
N1205 Mn1189 2.282 . S
N1205 C1206 1.328 . S
N1205 C1210 1.318 . S
C1206 N1205 1.328 . S
C1206 C1207 1.457 . S
C1206 H1211 0.929 . S
C1207 C1206 1.457 . S
C1207 C1208 1.291 . S
C1207 H1220 0.931 . S
C1208 C1207 1.291 . S
C1208 C1209 1.373 . S
C1208 H1221 0.929 . S
C1209 C1208 1.373 . S
C1209 C1210 1.396 . S
C1209 C1216 1.403 . S
C1210 C1200 1.476 . S
C1210 N1205 1.318 . S
C1210 C1209 1.396 . S
H1211 C1206 0.929 . S
O1212 Mn1188 2.385 . S
O1212 C1190 1.234 . S
O1213 Mn1188 2.209 . S
O1213 Mn1189 2.215 . S
O1213 C1190 1.283 . S
O1214 Mn1188 2.094 . S
O1214 C1192 1.240 . S
O1215 Mn1189 2.117 . S
O1215 C1192 1.264 . S
C1216 C1209 1.403 . S
C1216 C1217 1.399 . S
C1216 H1222 0.929 . S
C1217 C1197 1.449 . S
C1217 C1216 1.399 . S
C1217 H1223 0.930 . S
H1218 C1198 0.931 . S
H1219 C1199 0.930 . S
H1220 C1207 0.931 . S
H1221 C1208 0.929 . S
H1222 C1216 0.929 . S
H1223 C1217 0.930 . S
Mn1224 O1229 2.095 . S
Mn1224 O1239 2.162 . S
Mn1224 O1240 2.297 . S
Mn1224 O1248 2.385 . S
Mn1224 O1249 2.209 . S
Mn1224 O1250 2.094 . S
Mn1225 O1230 2.121 . S
Mn1225 N1232 2.257 . S
Mn1225 N1241 2.282 . S
Mn1225 O1249 2.215 . S
Mn1225 O1251 2.117 . S
C1226 O1248 1.234 . S
C1226 O1249 1.283 . S
C1227 O1239 1.281 . S
C1227 O1240 1.236 . S
C1228 O1250 1.240 . S
C1228 O1251 1.264 . S
O1229 Mn1224 2.095 . S
O1229 C1238 1.250 . S
O1230 Mn1225 2.121 . S
O1230 C1238 1.258 . S
C1231 N1232 1.326 . S
C1231 C1235 1.460 . S
C1231 H1237 0.929 . S
N1232 Mn1225 2.257 . S
N1232 C1231 1.326 . S
N1232 C1236 1.362 . S
C1233 C1234 1.258 . S
C1233 C1236 1.431 . S
C1233 C1253 1.449 . S
C1234 C1233 1.258 . S
C1234 C1235 1.477 . S
C1234 H1254 0.931 . S
C1235 C1231 1.460 . S
C1235 C1234 1.477 . S
C1235 H1255 0.930 . S
C1236 N1232 1.362 . S
C1236 C1233 1.431 . S
C1236 C1246 1.476 . S
H1237 C1231 0.929 . S
C1238 O1229 1.250 . S
C1238 O1230 1.258 . S
O1239 Mn1224 2.162 . S
O1239 C1227 1.281 . S
O1240 Mn1224 2.297 . S
O1240 C1227 1.236 . S
N1241 Mn1225 2.282 . S
N1241 C1242 1.328 . S
N1241 C1246 1.318 . S
C1242 N1241 1.328 . S
C1242 C1243 1.457 . S
C1242 H1247 0.929 . S
C1243 C1242 1.457 . S
C1243 C1244 1.291 . S
C1243 H1256 0.931 . S
C1244 C1243 1.291 . S
C1244 C1245 1.373 . S
C1244 H1257 0.929 . S
C1245 C1244 1.373 . S
C1245 C1246 1.396 . S
C1245 C1252 1.403 . S
C1246 C1236 1.476 . S
C1246 N1241 1.318 . S
C1246 C1245 1.396 . S
H1247 C1242 0.929 . S
O1248 Mn1224 2.385 . S
O1248 C1226 1.234 . S
O1249 Mn1224 2.209 . S
O1249 Mn1225 2.215 . S
O1249 C1226 1.283 . S
O1250 Mn1224 2.094 . S
O1250 C1228 1.240 . S
O1251 Mn1225 2.117 . S
O1251 C1228 1.264 . S
C1252 C1245 1.403 . S
C1252 C1253 1.399 . S
C1252 H1258 0.929 . S
C1253 C1233 1.449 . S
C1253 C1252 1.399 . S
C1253 H1259 0.930 . S
H1254 C1234 0.931 . S
H1255 C1235 0.930 . S
H1256 C1243 0.931 . S
H1257 C1244 0.929 . S
H1258 C1252 0.929 . S
H1259 C1253 0.930 . S
Mn1260 O1265 2.095 . S
Mn1260 O1275 2.162 . S
Mn1260 O1276 2.297 . S
Mn1260 O1284 2.385 . S
Mn1260 O1285 2.209 . S
Mn1260 O1286 2.094 . S
Mn1261 O1266 2.121 . S
Mn1261 N1268 2.257 . S
Mn1261 N1277 2.282 . S
Mn1261 O1285 2.215 . S
Mn1261 O1287 2.117 . S
C1262 O1284 1.234 . S
C1262 O1285 1.283 . S
C1263 O1275 1.281 . S
C1263 O1276 1.236 . S
C1264 O1286 1.240 . S
C1264 O1287 1.264 . S
O1265 Mn1260 2.095 . S
O1265 C1274 1.250 . S
O1266 Mn1261 2.121 . S
O1266 C1274 1.258 . S
C1267 N1268 1.326 . S
C1267 C1271 1.460 . S
C1267 H1273 0.929 . S
N1268 Mn1261 2.257 . S
N1268 C1267 1.326 . S
N1268 C1272 1.362 . S
C1269 C1270 1.258 . S
C1269 C1272 1.431 . S
C1269 C1289 1.449 . S
C1270 C1269 1.258 . S
C1270 C1271 1.477 . S
C1270 H1290 0.931 . S
C1271 C1267 1.460 . S
C1271 C1270 1.477 . S
C1271 H1291 0.930 . S
C1272 N1268 1.362 . S
C1272 C1269 1.431 . S
C1272 C1282 1.476 . S
H1273 C1267 0.929 . S
C1274 O1265 1.250 . S
C1274 O1266 1.258 . S
O1275 Mn1260 2.162 . S
O1275 C1263 1.281 . S
O1276 Mn1260 2.297 . S
O1276 C1263 1.236 . S
N1277 Mn1261 2.282 . S
N1277 C1278 1.328 . S
N1277 C1282 1.318 . S
C1278 N1277 1.328 . S
C1278 C1279 1.457 . S
C1278 H1283 0.929 . S
C1279 C1278 1.457 . S
C1279 C1280 1.291 . S
C1279 H1292 0.931 . S
C1280 C1279 1.291 . S
C1280 C1281 1.373 . S
C1280 H1293 0.929 . S
C1281 C1280 1.373 . S
C1281 C1282 1.396 . S
C1281 C1288 1.403 . S
C1282 C1272 1.476 . S
C1282 N1277 1.318 . S
C1282 C1281 1.396 . S
H1283 C1278 0.929 . S
O1284 Mn1260 2.385 . S
O1284 C1262 1.234 . S
O1285 Mn1260 2.209 . S
O1285 Mn1261 2.215 . S
O1285 C1262 1.283 . S
O1286 Mn1260 2.094 . S
O1286 C1264 1.240 . S
O1287 Mn1261 2.117 . S
O1287 C1264 1.264 . S
C1288 C1281 1.403 . S
C1288 C1289 1.399 . S
C1288 H1294 0.929 . S
C1289 C1269 1.449 . S
C1289 C1288 1.399 . S
C1289 H1295 0.930 . S
H1290 C1270 0.931 . S
H1291 C1271 0.930 . S
H1292 C1279 0.931 . S
H1293 C1280 0.929 . S
H1294 C1288 0.929 . S
H1295 C1289 0.930 . S
Mn1296 O1301 2.095 . S
Mn1296 O1311 2.162 . S
Mn1296 O1312 2.297 . S
Mn1296 O1320 2.385 . S
Mn1296 O1321 2.209 . S
Mn1296 O1322 2.094 . S
Mn1297 O1302 2.121 . S
Mn1297 N1304 2.257 . S
Mn1297 N1313 2.282 . S
Mn1297 O1321 2.215 . S
Mn1297 O1323 2.117 . S
C1298 O1320 1.234 . S
C1298 O1321 1.283 . S
C1299 O1311 1.281 . S
C1299 O1312 1.236 . S
C1300 O1322 1.240 . S
C1300 O1323 1.264 . S
O1301 Mn1296 2.095 . S
O1301 C1310 1.250 . S
O1302 Mn1297 2.121 . S
O1302 C1310 1.258 . S
C1303 N1304 1.326 . S
C1303 C1307 1.460 . S
C1303 H1309 0.929 . S
N1304 Mn1297 2.257 . S
N1304 C1303 1.326 . S
N1304 C1308 1.362 . S
C1305 C1306 1.258 . S
C1305 C1308 1.431 . S
C1305 C1325 1.449 . S
C1306 C1305 1.258 . S
C1306 C1307 1.477 . S
C1306 H1326 0.931 . S
C1307 C1303 1.460 . S
C1307 C1306 1.477 . S
C1307 H1327 0.930 . S
C1308 N1304 1.362 . S
C1308 C1305 1.431 . S
C1308 C1318 1.476 . S
H1309 C1303 0.929 . S
C1310 O1301 1.250 . S
C1310 O1302 1.258 . S
O1311 Mn1296 2.162 . S
O1311 C1299 1.281 . S
O1312 Mn1296 2.297 . S
O1312 C1299 1.236 . S
N1313 Mn1297 2.282 . S
N1313 C1314 1.328 . S
N1313 C1318 1.318 . S
C1314 N1313 1.328 . S
C1314 C1315 1.457 . S
C1314 H1319 0.929 . S
C1315 C1314 1.457 . S
C1315 C1316 1.291 . S
C1315 H1328 0.931 . S
C1316 C1315 1.291 . S
C1316 C1317 1.373 . S
C1316 H1329 0.929 . S
C1317 C1316 1.373 . S
C1317 C1318 1.396 . S
C1317 C1324 1.403 . S
C1318 C1308 1.476 . S
C1318 N1313 1.318 . S
C1318 C1317 1.396 . S
H1319 C1314 0.929 . S
O1320 Mn1296 2.385 . S
O1320 C1298 1.234 . S
O1321 Mn1296 2.209 . S
O1321 Mn1297 2.215 . S
O1321 C1298 1.283 . S
O1322 Mn1296 2.094 . S
O1322 C1300 1.240 . S
O1323 Mn1297 2.117 . S
O1323 C1300 1.264 . S
C1324 C1317 1.403 . S
C1324 C1325 1.399 . S
C1324 H1330 0.929 . S
C1325 C1305 1.449 . S
C1325 C1324 1.399 . S
C1325 H1331 0.930 . S
H1326 C1306 0.931 . S
H1327 C1307 0.930 . S
H1328 C1315 0.931 . S
H1329 C1316 0.929 . S
H1330 C1324 0.929 . S
H1331 C1325 0.930 . S
Mn1332 O1337 2.095 . S
Mn1332 O1347 2.162 . S
Mn1332 O1348 2.297 . S
Mn1332 O1356 2.385 . S
Mn1332 O1357 2.209 . S
Mn1332 O1358 2.094 . S
Mn1333 O1338 2.121 . S
Mn1333 N1340 2.257 . S
Mn1333 N1349 2.282 . S
Mn1333 O1357 2.215 . S
Mn1333 O1359 2.117 . S
C1334 O1356 1.234 . S
C1334 O1357 1.283 . S
C1335 O1347 1.281 . S
C1335 O1348 1.236 . S
C1336 O1358 1.240 . S
C1336 O1359 1.264 . S
O1337 Mn1332 2.095 . S
O1337 C1346 1.250 . S
O1338 Mn1333 2.121 . S
O1338 C1346 1.258 . S
C1339 N1340 1.326 . S
C1339 C1343 1.460 . S
C1339 H1345 0.929 . S
N1340 Mn1333 2.257 . S
N1340 C1339 1.326 . S
N1340 C1344 1.362 . S
C1341 C1342 1.258 . S
C1341 C1344 1.431 . S
C1341 C1361 1.449 . S
C1342 C1341 1.258 . S
C1342 C1343 1.477 . S
C1342 H1362 0.931 . S
C1343 C1339 1.460 . S
C1343 C1342 1.477 . S
C1343 H1363 0.930 . S
C1344 N1340 1.362 . S
C1344 C1341 1.431 . S
C1344 C1354 1.476 . S
H1345 C1339 0.929 . S
C1346 O1337 1.250 . S
C1346 O1338 1.258 . S
O1347 Mn1332 2.162 . S
O1347 C1335 1.281 . S
O1348 Mn1332 2.297 . S
O1348 C1335 1.236 . S
N1349 Mn1333 2.282 . S
N1349 C1350 1.328 . S
N1349 C1354 1.318 . S
C1350 N1349 1.328 . S
C1350 C1351 1.457 . S
C1350 H1355 0.929 . S
C1351 C1350 1.457 . S
C1351 C1352 1.291 . S
C1351 H1364 0.931 . S
C1352 C1351 1.291 . S
C1352 C1353 1.373 . S
C1352 H1365 0.929 . S
C1353 C1352 1.373 . S
C1353 C1354 1.396 . S
C1353 C1360 1.403 . S
C1354 C1344 1.476 . S
C1354 N1349 1.318 . S
C1354 C1353 1.396 . S
H1355 C1350 0.929 . S
O1356 Mn1332 2.385 . S
O1356 C1334 1.234 . S
O1357 Mn1332 2.209 . S
O1357 Mn1333 2.215 . S
O1357 C1334 1.283 . S
O1358 Mn1332 2.094 . S
O1358 C1336 1.240 . S
O1359 Mn1333 2.117 . S
O1359 C1336 1.264 . S
C1360 C1353 1.403 . S
C1360 C1361 1.399 . S
C1360 H1366 0.929 . S
C1361 C1341 1.449 . S
C1361 C1360 1.399 . S
C1361 H1367 0.930 . S
H1362 C1342 0.931 . S
H1363 C1343 0.930 . S
H1364 C1351 0.931 . S
H1365 C1352 0.929 . S
H1366 C1360 0.929 . S
H1367 C1361 0.930 . S
Mn1368 O1373 2.095 . S
Mn1368 O1383 2.162 . S
Mn1368 O1384 2.297 . S
Mn1368 O1392 2.385 . S
Mn1368 O1393 2.209 . S
Mn1368 O1394 2.094 . S
Mn1369 O1374 2.121 . S
Mn1369 N1376 2.257 . S
Mn1369 N1385 2.282 . S
Mn1369 O1393 2.215 . S
Mn1369 O1395 2.117 . S
C1370 O1392 1.234 . S
C1370 O1393 1.283 . S
C1371 O1383 1.281 . S
C1371 O1384 1.236 . S
C1372 O1394 1.240 . S
C1372 O1395 1.264 . S
O1373 Mn1368 2.095 . S
O1373 C1382 1.250 . S
O1374 Mn1369 2.121 . S
O1374 C1382 1.258 . S
C1375 N1376 1.326 . S
C1375 C1379 1.460 . S
C1375 H1381 0.929 . S
N1376 Mn1369 2.257 . S
N1376 C1375 1.326 . S
N1376 C1380 1.362 . S
C1377 C1378 1.258 . S
C1377 C1380 1.431 . S
C1377 C1397 1.449 . S
C1378 C1377 1.258 . S
C1378 C1379 1.477 . S
C1378 H1398 0.931 . S
C1379 C1375 1.460 . S
C1379 C1378 1.477 . S
C1379 H1399 0.930 . S
C1380 N1376 1.362 . S
C1380 C1377 1.431 . S
C1380 C1390 1.476 . S
H1381 C1375 0.929 . S
C1382 O1373 1.250 . S
C1382 O1374 1.258 . S
O1383 Mn1368 2.162 . S
O1383 C1371 1.281 . S
O1384 Mn1368 2.297 . S
O1384 C1371 1.236 . S
N1385 Mn1369 2.282 . S
N1385 C1386 1.328 . S
N1385 C1390 1.318 . S
C1386 N1385 1.328 . S
C1386 C1387 1.457 . S
C1386 H1391 0.929 . S
C1387 C1386 1.457 . S
C1387 C1388 1.291 . S
C1387 H1400 0.931 . S
C1388 C1387 1.291 . S
C1388 C1389 1.373 . S
C1388 H1401 0.929 . S
C1389 C1388 1.373 . S
C1389 C1390 1.396 . S
C1389 C1396 1.403 . S
C1390 C1380 1.476 . S
C1390 N1385 1.318 . S
C1390 C1389 1.396 . S
H1391 C1386 0.929 . S
O1392 Mn1368 2.385 . S
O1392 C1370 1.234 . S
O1393 Mn1368 2.209 . S
O1393 Mn1369 2.215 . S
O1393 C1370 1.283 . S
O1394 Mn1368 2.094 . S
O1394 C1372 1.240 . S
O1395 Mn1369 2.117 . S
O1395 C1372 1.264 . S
C1396 C1389 1.403 . S
C1396 C1397 1.399 . S
C1396 H1402 0.929 . S
C1397 C1377 1.449 . S
C1397 C1396 1.399 . S
C1397 H1403 0.930 . S
H1398 C1378 0.931 . S
H1399 C1379 0.930 . S
H1400 C1387 0.931 . S
H1401 C1388 0.929 . S
H1402 C1396 0.929 . S
H1403 C1397 0.930 . S
Mn1404 O1409 2.095 . S
Mn1404 O1419 2.162 . S
Mn1404 O1420 2.297 . S
Mn1404 O1428 2.385 . S
Mn1404 O1429 2.209 . S
Mn1404 O1430 2.094 . S
Mn1405 O1410 2.121 . S
Mn1405 N1412 2.257 . S
Mn1405 N1421 2.282 . S
Mn1405 O1429 2.215 . S
Mn1405 O1431 2.117 . S
C1406 O1428 1.234 . S
C1406 O1429 1.283 . S
C1407 O1419 1.281 . S
C1407 O1420 1.236 . S
C1408 O1430 1.240 . S
C1408 O1431 1.264 . S
O1409 Mn1404 2.095 . S
O1409 C1418 1.250 . S
O1410 Mn1405 2.121 . S
O1410 C1418 1.258 . S
C1411 N1412 1.326 . S
C1411 C1415 1.460 . S
C1411 H1417 0.929 . S
N1412 Mn1405 2.257 . S
N1412 C1411 1.326 . S
N1412 C1416 1.362 . S
C1413 C1414 1.258 . S
C1413 C1416 1.431 . S
C1413 C1433 1.449 . S
C1414 C1413 1.258 . S
C1414 C1415 1.477 . S
C1414 H1434 0.931 . S
C1415 C1411 1.460 . S
C1415 C1414 1.477 . S
C1415 H1435 0.930 . S
C1416 N1412 1.362 . S
C1416 C1413 1.431 . S
C1416 C1426 1.476 . S
H1417 C1411 0.929 . S
C1418 O1409 1.250 . S
C1418 O1410 1.258 . S
O1419 Mn1404 2.162 . S
O1419 C1407 1.281 . S
O1420 Mn1404 2.297 . S
O1420 C1407 1.236 . S
N1421 Mn1405 2.282 . S
N1421 C1422 1.328 . S
N1421 C1426 1.318 . S
C1422 N1421 1.328 . S
C1422 C1423 1.457 . S
C1422 H1427 0.929 . S
C1423 C1422 1.457 . S
C1423 C1424 1.291 . S
C1423 H1436 0.931 . S
C1424 C1423 1.291 . S
C1424 C1425 1.373 . S
C1424 H1437 0.929 . S
C1425 C1424 1.373 . S
C1425 C1426 1.396 . S
C1425 C1432 1.403 . S
C1426 C1416 1.476 . S
C1426 N1421 1.318 . S
C1426 C1425 1.396 . S
H1427 C1422 0.929 . S
O1428 Mn1404 2.385 . S
O1428 C1406 1.234 . S
O1429 Mn1404 2.209 . S
O1429 Mn1405 2.215 . S
O1429 C1406 1.283 . S
O1430 Mn1404 2.094 . S
O1430 C1408 1.240 . S
O1431 Mn1405 2.117 . S
O1431 C1408 1.264 . S
C1432 C1425 1.403 . S
C1432 C1433 1.399 . S
C1432 H1438 0.929 . S
C1433 C1413 1.449 . S
C1433 C1432 1.399 . S
C1433 H1439 0.930 . S
H1434 C1414 0.931 . S
H1435 C1415 0.930 . S
H1436 C1423 0.931 . S
H1437 C1424 0.929 . S
H1438 C1432 0.929 . S
H1439 C1433 0.930 . S
Mn1440 O1445 2.095 . S
Mn1440 O1455 2.162 . S
Mn1440 O1456 2.297 . S
Mn1440 O1464 2.385 . S
Mn1440 O1465 2.209 . S
Mn1440 O1466 2.094 . S
Mn1441 O1446 2.121 . S
Mn1441 N1448 2.257 . S
Mn1441 N1457 2.282 . S
Mn1441 O1465 2.215 . S
Mn1441 O1467 2.117 . S
C1442 O1464 1.234 . S
C1442 O1465 1.283 . S
C1443 O1455 1.281 . S
C1443 O1456 1.236 . S
C1444 O1466 1.240 . S
C1444 O1467 1.264 . S
O1445 Mn1440 2.095 . S
O1445 C1454 1.250 . S
O1446 Mn1441 2.121 . S
O1446 C1454 1.258 . S
C1447 N1448 1.326 . S
C1447 C1451 1.460 . S
C1447 H1453 0.929 . S
N1448 Mn1441 2.257 . S
N1448 C1447 1.326 . S
N1448 C1452 1.362 . S
C1449 C1450 1.258 . S
C1449 C1452 1.431 . S
C1449 C1469 1.449 . S
C1450 C1449 1.258 . S
C1450 C1451 1.477 . S
C1450 H1470 0.931 . S
C1451 C1447 1.460 . S
C1451 C1450 1.477 . S
C1451 H1471 0.930 . S
C1452 N1448 1.362 . S
C1452 C1449 1.431 . S
C1452 C1462 1.476 . S
H1453 C1447 0.929 . S
C1454 O1445 1.250 . S
C1454 O1446 1.258 . S
O1455 Mn1440 2.162 . S
O1455 C1443 1.281 . S
O1456 Mn1440 2.297 . S
O1456 C1443 1.236 . S
N1457 Mn1441 2.282 . S
N1457 C1458 1.328 . S
N1457 C1462 1.318 . S
C1458 N1457 1.328 . S
C1458 C1459 1.457 . S
C1458 H1463 0.929 . S
C1459 C1458 1.457 . S
C1459 C1460 1.291 . S
C1459 H1472 0.931 . S
C1460 C1459 1.291 . S
C1460 C1461 1.373 . S
C1460 H1473 0.929 . S
C1461 C1460 1.373 . S
C1461 C1462 1.396 . S
C1461 C1468 1.403 . S
C1462 C1452 1.476 . S
C1462 N1457 1.318 . S
C1462 C1461 1.396 . S
H1463 C1458 0.929 . S
O1464 Mn1440 2.385 . S
O1464 C1442 1.234 . S
O1465 Mn1440 2.209 . S
O1465 Mn1441 2.215 . S
O1465 C1442 1.283 . S
O1466 Mn1440 2.094 . S
O1466 C1444 1.240 . S
O1467 Mn1441 2.117 . S
O1467 C1444 1.264 . S
C1468 C1461 1.403 . S
C1468 C1469 1.399 . S
C1468 H1474 0.929 . S
C1469 C1449 1.449 . S
C1469 C1468 1.399 . S
C1469 H1475 0.930 . S
H1470 C1450 0.931 . S
H1471 C1451 0.930 . S
H1472 C1459 0.931 . S
H1473 C1460 0.929 . S
H1474 C1468 0.929 . S
H1475 C1469 0.930 . S
Mn1476 O1481 2.095 . S
Mn1476 O1491 2.162 . S
Mn1476 O1492 2.297 . S
Mn1476 O1500 2.385 . S
Mn1476 O1501 2.209 . S
Mn1476 O1502 2.094 . S
Mn1477 O1482 2.121 . S
Mn1477 N1484 2.257 . S
Mn1477 N1493 2.282 . S
Mn1477 O1501 2.215 . S
Mn1477 O1503 2.117 . S
C1478 O1500 1.234 . S
C1478 O1501 1.283 . S
C1479 O1491 1.281 . S
C1479 O1492 1.236 . S
C1480 O1502 1.240 . S
C1480 O1503 1.264 . S
O1481 Mn1476 2.095 . S
O1481 C1490 1.250 . S
O1482 Mn1477 2.121 . S
O1482 C1490 1.258 . S
C1483 N1484 1.326 . S
C1483 C1487 1.460 . S
C1483 H1489 0.929 . S
N1484 Mn1477 2.257 . S
N1484 C1483 1.326 . S
N1484 C1488 1.362 . S
C1485 C1486 1.258 . S
C1485 C1488 1.431 . S
C1485 C1505 1.449 . S
C1486 C1485 1.258 . S
C1486 C1487 1.477 . S
C1486 H1506 0.931 . S
C1487 C1483 1.460 . S
C1487 C1486 1.477 . S
C1487 H1507 0.930 . S
C1488 N1484 1.362 . S
C1488 C1485 1.431 . S
C1488 C1498 1.476 . S
H1489 C1483 0.929 . S
C1490 O1481 1.250 . S
C1490 O1482 1.258 . S
O1491 Mn1476 2.162 . S
O1491 C1479 1.281 . S
O1492 Mn1476 2.297 . S
O1492 C1479 1.236 . S
N1493 Mn1477 2.282 . S
N1493 C1494 1.328 . S
N1493 C1498 1.318 . S
C1494 N1493 1.328 . S
C1494 C1495 1.457 . S
C1494 H1499 0.929 . S
C1495 C1494 1.457 . S
C1495 C1496 1.291 . S
C1495 H1508 0.931 . S
C1496 C1495 1.291 . S
C1496 C1497 1.373 . S
C1496 H1509 0.929 . S
C1497 C1496 1.373 . S
C1497 C1498 1.396 . S
C1497 C1504 1.403 . S
C1498 C1488 1.476 . S
C1498 N1493 1.318 . S
C1498 C1497 1.396 . S
H1499 C1494 0.929 . S
O1500 Mn1476 2.385 . S
O1500 C1478 1.234 . S
O1501 Mn1476 2.209 . S
O1501 Mn1477 2.215 . S
O1501 C1478 1.283 . S
O1502 Mn1476 2.094 . S
O1502 C1480 1.240 . S
O1503 Mn1477 2.117 . S
O1503 C1480 1.264 . S
C1504 C1497 1.403 . S
C1504 C1505 1.399 . S
C1504 H1510 0.929 . S
C1505 C1485 1.449 . S
C1505 C1504 1.399 . S
C1505 H1511 0.930 . S
H1506 C1486 0.931 . S
H1507 C1487 0.930 . S
H1508 C1495 0.931 . S
H1509 C1496 0.929 . S
H1510 C1504 0.929 . S
H1511 C1505 0.930 . S
Mn1512 O1517 2.095 . S
Mn1512 O1527 2.162 . S
Mn1512 O1528 2.297 . S
Mn1512 O1536 2.385 . S
Mn1512 O1537 2.209 . S
Mn1512 O1538 2.094 . S
Mn1513 O1518 2.121 . S
Mn1513 N1520 2.257 . S
Mn1513 N1529 2.282 . S
Mn1513 O1537 2.215 . S
Mn1513 O1539 2.117 . S
C1514 O1536 1.234 . S
C1514 O1537 1.283 . S
C1515 O1527 1.281 . S
C1515 O1528 1.236 . S
C1516 O1538 1.240 . S
C1516 O1539 1.264 . S
O1517 Mn1512 2.095 . S
O1517 C1526 1.250 . S
O1518 Mn1513 2.121 . S
O1518 C1526 1.258 . S
C1519 N1520 1.326 . S
C1519 C1523 1.460 . S
C1519 H1525 0.929 . S
N1520 Mn1513 2.257 . S
N1520 C1519 1.326 . S
N1520 C1524 1.362 . S
C1521 C1522 1.258 . S
C1521 C1524 1.431 . S
C1521 C1541 1.449 . S
C1522 C1521 1.258 . S
C1522 C1523 1.477 . S
C1522 H1542 0.931 . S
C1523 C1519 1.460 . S
C1523 C1522 1.477 . S
C1523 H1543 0.930 . S
C1524 N1520 1.362 . S
C1524 C1521 1.431 . S
C1524 C1534 1.476 . S
H1525 C1519 0.929 . S
C1526 O1517 1.250 . S
C1526 O1518 1.258 . S
O1527 Mn1512 2.162 . S
O1527 C1515 1.281 . S
O1528 Mn1512 2.297 . S
O1528 C1515 1.236 . S
N1529 Mn1513 2.282 . S
N1529 C1530 1.328 . S
N1529 C1534 1.318 . S
C1530 N1529 1.328 . S
C1530 C1531 1.457 . S
C1530 H1535 0.929 . S
C1531 C1530 1.457 . S
C1531 C1532 1.291 . S
C1531 H1544 0.931 . S
C1532 C1531 1.291 . S
C1532 C1533 1.373 . S
C1532 H1545 0.929 . S
C1533 C1532 1.373 . S
C1533 C1534 1.396 . S
C1533 C1540 1.403 . S
C1534 C1524 1.476 . S
C1534 N1529 1.318 . S
C1534 C1533 1.396 . S
H1535 C1530 0.929 . S
O1536 Mn1512 2.385 . S
O1536 C1514 1.234 . S
O1537 Mn1512 2.209 . S
O1537 Mn1513 2.215 . S
O1537 C1514 1.283 . S
O1538 Mn1512 2.094 . S
O1538 C1516 1.240 . S
O1539 Mn1513 2.117 . S
O1539 C1516 1.264 . S
C1540 C1533 1.403 . S
C1540 C1541 1.399 . S
C1540 H1546 0.929 . S
C1541 C1521 1.449 . S
C1541 C1540 1.399 . S
C1541 H1547 0.930 . S
H1542 C1522 0.931 . S
H1543 C1523 0.930 . S
H1544 C1531 0.931 . S
H1545 C1532 0.929 . S
H1546 C1540 0.929 . S
H1547 C1541 0.930 . S
Mn1548 O1553 2.095 . S
Mn1548 O1563 2.162 . S
Mn1548 O1564 2.297 . S
Mn1548 O1572 2.385 . S
Mn1548 O1573 2.209 . S
Mn1548 O1574 2.094 . S
Mn1549 O1554 2.121 . S
Mn1549 N1556 2.257 . S
Mn1549 N1565 2.282 . S
Mn1549 O1573 2.215 . S
Mn1549 O1575 2.117 . S
C1550 O1572 1.234 . S
C1550 O1573 1.283 . S
C1551 O1563 1.281 . S
C1551 O1564 1.236 . S
C1552 O1574 1.240 . S
C1552 O1575 1.264 . S
O1553 Mn1548 2.095 . S
O1553 C1562 1.250 . S
O1554 Mn1549 2.121 . S
O1554 C1562 1.258 . S
C1555 N1556 1.326 . S
C1555 C1559 1.460 . S
C1555 H1561 0.929 . S
N1556 Mn1549 2.257 . S
N1556 C1555 1.326 . S
N1556 C1560 1.362 . S
C1557 C1558 1.258 . S
C1557 C1560 1.431 . S
C1557 C1577 1.449 . S
C1558 C1557 1.258 . S
C1558 C1559 1.477 . S
C1558 H1578 0.931 . S
C1559 C1555 1.460 . S
C1559 C1558 1.477 . S
C1559 H1579 0.930 . S
C1560 N1556 1.362 . S
C1560 C1557 1.431 . S
C1560 C1570 1.476 . S
H1561 C1555 0.929 . S
C1562 O1553 1.250 . S
C1562 O1554 1.258 . S
O1563 Mn1548 2.162 . S
O1563 C1551 1.281 . S
O1564 Mn1548 2.297 . S
O1564 C1551 1.236 . S
N1565 Mn1549 2.282 . S
N1565 C1566 1.328 . S
N1565 C1570 1.318 . S
C1566 N1565 1.328 . S
C1566 C1567 1.457 . S
C1566 H1571 0.929 . S
C1567 C1566 1.457 . S
C1567 C1568 1.291 . S
C1567 H1580 0.931 . S
C1568 C1567 1.291 . S
C1568 C1569 1.373 . S
C1568 H1581 0.929 . S
C1569 C1568 1.373 . S
C1569 C1570 1.396 . S
C1569 C1576 1.403 . S
C1570 C1560 1.476 . S
C1570 N1565 1.318 . S
C1570 C1569 1.396 . S
H1571 C1566 0.929 . S
O1572 Mn1548 2.385 . S
O1572 C1550 1.234 . S
O1573 Mn1548 2.209 . S
O1573 Mn1549 2.215 . S
O1573 C1550 1.283 . S
O1574 Mn1548 2.094 . S
O1574 C1552 1.240 . S
O1575 Mn1549 2.117 . S
O1575 C1552 1.264 . S
C1576 C1569 1.403 . S
C1576 C1577 1.399 . S
C1576 H1582 0.929 . S
C1577 C1557 1.449 . S
C1577 C1576 1.399 . S
C1577 H1583 0.930 . S
H1578 C1558 0.931 . S
H1579 C1559 0.930 . S
H1580 C1567 0.931 . S
H1581 C1568 0.929 . S
H1582 C1576 0.929 . S
H1583 C1577 0.930 . S
Mn1584 O1589 2.095 . S
Mn1584 O1599 2.162 . S
Mn1584 O1600 2.297 . S
Mn1584 O1608 2.385 . S
Mn1584 O1609 2.209 . S
Mn1584 O1610 2.094 . S
Mn1585 O1590 2.121 . S
Mn1585 N1592 2.257 . S
Mn1585 N1601 2.282 . S
Mn1585 O1609 2.215 . S
Mn1585 O1611 2.117 . S
C1586 O1608 1.234 . S
C1586 O1609 1.283 . S
C1587 O1599 1.281 . S
C1587 O1600 1.236 . S
C1588 O1610 1.240 . S
C1588 O1611 1.264 . S
O1589 Mn1584 2.095 . S
O1589 C1598 1.250 . S
O1590 Mn1585 2.121 . S
O1590 C1598 1.258 . S
C1591 N1592 1.326 . S
C1591 C1595 1.460 . S
C1591 H1597 0.929 . S
N1592 Mn1585 2.257 . S
N1592 C1591 1.326 . S
N1592 C1596 1.362 . S
C1593 C1594 1.258 . S
C1593 C1596 1.431 . S
C1593 C1613 1.449 . S
C1594 C1593 1.258 . S
C1594 C1595 1.477 . S
C1594 H1614 0.931 . S
C1595 C1591 1.460 . S
C1595 C1594 1.477 . S
C1595 H1615 0.930 . S
C1596 N1592 1.362 . S
C1596 C1593 1.431 . S
C1596 C1606 1.476 . S
H1597 C1591 0.929 . S
C1598 O1589 1.250 . S
C1598 O1590 1.258 . S
O1599 Mn1584 2.162 . S
O1599 C1587 1.281 . S
O1600 Mn1584 2.297 . S
O1600 C1587 1.236 . S
N1601 Mn1585 2.282 . S
N1601 C1602 1.328 . S
N1601 C1606 1.318 . S
C1602 N1601 1.328 . S
C1602 C1603 1.457 . S
C1602 H1607 0.929 . S
C1603 C1602 1.457 . S
C1603 C1604 1.291 . S
C1603 H1616 0.931 . S
C1604 C1603 1.291 . S
C1604 C1605 1.373 . S
C1604 H1617 0.929 . S
C1605 C1604 1.373 . S
C1605 C1606 1.396 . S
C1605 C1612 1.403 . S
C1606 C1596 1.476 . S
C1606 N1601 1.318 . S
C1606 C1605 1.396 . S
H1607 C1602 0.929 . S
O1608 Mn1584 2.385 . S
O1608 C1586 1.234 . S
O1609 Mn1584 2.209 . S
O1609 Mn1585 2.215 . S
O1609 C1586 1.283 . S
O1610 Mn1584 2.094 . S
O1610 C1588 1.240 . S
O1611 Mn1585 2.117 . S
O1611 C1588 1.264 . S
C1612 C1605 1.403 . S
C1612 C1613 1.399 . S
C1612 H1618 0.929 . S
C1613 C1593 1.449 . S
C1613 C1612 1.399 . S
C1613 H1619 0.930 . S
H1614 C1594 0.931 . S
H1615 C1595 0.930 . S
H1616 C1603 0.931 . S
H1617 C1604 0.929 . S
H1618 C1612 0.929 . S
H1619 C1613 0.930 . S
Mn1620 O1625 2.095 . S
Mn1620 O1635 2.162 . S
Mn1620 O1636 2.297 . S
Mn1620 O1644 2.385 . S
Mn1620 O1645 2.209 . S
Mn1620 O1646 2.094 . S
Mn1621 O1626 2.121 . S
Mn1621 N1628 2.257 . S
Mn1621 N1637 2.282 . S
Mn1621 O1645 2.215 . S
Mn1621 O1647 2.117 . S
C1622 O1644 1.234 . S
C1622 O1645 1.283 . S
C1623 O1635 1.281 . S
C1623 O1636 1.236 . S
C1624 O1646 1.240 . S
C1624 O1647 1.264 . S
O1625 Mn1620 2.095 . S
O1625 C1634 1.250 . S
O1626 Mn1621 2.121 . S
O1626 C1634 1.258 . S
C1627 N1628 1.326 . S
C1627 C1631 1.460 . S
C1627 H1633 0.929 . S
N1628 Mn1621 2.257 . S
N1628 C1627 1.326 . S
N1628 C1632 1.362 . S
C1629 C1630 1.258 . S
C1629 C1632 1.431 . S
C1629 C1649 1.449 . S
C1630 C1629 1.258 . S
C1630 C1631 1.477 . S
C1630 H1650 0.931 . S
C1631 C1627 1.460 . S
C1631 C1630 1.477 . S
C1631 H1651 0.930 . S
C1632 N1628 1.362 . S
C1632 C1629 1.431 . S
C1632 C1642 1.476 . S
H1633 C1627 0.929 . S
C1634 O1625 1.250 . S
C1634 O1626 1.258 . S
O1635 Mn1620 2.162 . S
O1635 C1623 1.281 . S
O1636 Mn1620 2.297 . S
O1636 C1623 1.236 . S
N1637 Mn1621 2.282 . S
N1637 C1638 1.328 . S
N1637 C1642 1.318 . S
C1638 N1637 1.328 . S
C1638 C1639 1.457 . S
C1638 H1643 0.929 . S
C1639 C1638 1.457 . S
C1639 C1640 1.291 . S
C1639 H1652 0.931 . S
C1640 C1639 1.291 . S
C1640 C1641 1.373 . S
C1640 H1653 0.929 . S
C1641 C1640 1.373 . S
C1641 C1642 1.396 . S
C1641 C1648 1.403 . S
C1642 C1632 1.476 . S
C1642 N1637 1.318 . S
C1642 C1641 1.396 . S
H1643 C1638 0.929 . S
O1644 Mn1620 2.385 . S
O1644 C1622 1.234 . S
O1645 Mn1620 2.209 . S
O1645 Mn1621 2.215 . S
O1645 C1622 1.283 . S
O1646 Mn1620 2.094 . S
O1646 C1624 1.240 . S
O1647 Mn1621 2.117 . S
O1647 C1624 1.264 . S
C1648 C1641 1.403 . S
C1648 C1649 1.399 . S
C1648 H1654 0.929 . S
C1649 C1629 1.449 . S
C1649 C1648 1.399 . S
C1649 H1655 0.930 . S
H1650 C1630 0.931 . S
H1651 C1631 0.930 . S
H1652 C1639 0.931 . S
H1653 C1640 0.929 . S
H1654 C1648 0.929 . S
H1655 C1649 0.930 . S
Mn1656 O1661 2.095 . S
Mn1656 O1671 2.162 . S
Mn1656 O1672 2.297 . S
Mn1656 O1680 2.385 . S
Mn1656 O1681 2.209 . S
Mn1656 O1682 2.094 . S
Mn1657 O1662 2.121 . S
Mn1657 N1664 2.257 . S
Mn1657 N1673 2.282 . S
Mn1657 O1681 2.215 . S
Mn1657 O1683 2.117 . S
C1658 O1680 1.234 . S
C1658 O1681 1.283 . S
C1659 O1671 1.281 . S
C1659 O1672 1.236 . S
C1660 O1682 1.240 . S
C1660 O1683 1.264 . S
O1661 Mn1656 2.095 . S
O1661 C1670 1.250 . S
O1662 Mn1657 2.121 . S
O1662 C1670 1.258 . S
C1663 N1664 1.326 . S
C1663 C1667 1.460 . S
C1663 H1669 0.929 . S
N1664 Mn1657 2.257 . S
N1664 C1663 1.326 . S
N1664 C1668 1.362 . S
C1665 C1666 1.258 . S
C1665 C1668 1.431 . S
C1665 C1685 1.449 . S
C1666 C1665 1.258 . S
C1666 C1667 1.477 . S
C1666 H1686 0.931 . S
C1667 C1663 1.460 . S
C1667 C1666 1.477 . S
C1667 H1687 0.930 . S
C1668 N1664 1.362 . S
C1668 C1665 1.431 . S
C1668 C1678 1.476 . S
H1669 C1663 0.929 . S
C1670 O1661 1.250 . S
C1670 O1662 1.258 . S
O1671 Mn1656 2.162 . S
O1671 C1659 1.281 . S
O1672 Mn1656 2.297 . S
O1672 C1659 1.236 . S
N1673 Mn1657 2.282 . S
N1673 C1674 1.328 . S
N1673 C1678 1.318 . S
C1674 N1673 1.328 . S
C1674 C1675 1.457 . S
C1674 H1679 0.929 . S
C1675 C1674 1.457 . S
C1675 C1676 1.291 . S
C1675 H1688 0.931 . S
C1676 C1675 1.291 . S
C1676 C1677 1.373 . S
C1676 H1689 0.929 . S
C1677 C1676 1.373 . S
C1677 C1678 1.396 . S
C1677 C1684 1.403 . S
C1678 C1668 1.476 . S
C1678 N1673 1.318 . S
C1678 C1677 1.396 . S
H1679 C1674 0.929 . S
O1680 Mn1656 2.385 . S
O1680 C1658 1.234 . S
O1681 Mn1656 2.209 . S
O1681 Mn1657 2.215 . S
O1681 C1658 1.283 . S
O1682 Mn1656 2.094 . S
O1682 C1660 1.240 . S
O1683 Mn1657 2.117 . S
O1683 C1660 1.264 . S
C1684 C1677 1.403 . S
C1684 C1685 1.399 . S
C1684 H1690 0.929 . S
C1685 C1665 1.449 . S
C1685 C1684 1.399 . S
C1685 H1691 0.930 . S
H1686 C1666 0.931 . S
H1687 C1667 0.930 . S
H1688 C1675 0.931 . S
H1689 C1676 0.929 . S
H1690 C1684 0.929 . S
H1691 C1685 0.930 . S
Mn1692 O1697 2.095 . S
Mn1692 O1707 2.162 . S
Mn1692 O1708 2.297 . S
Mn1692 O1716 2.385 . S
Mn1692 O1717 2.209 . S
Mn1692 O1718 2.094 . S
Mn1693 O1698 2.121 . S
Mn1693 N1700 2.257 . S
Mn1693 N1709 2.282 . S
Mn1693 O1717 2.215 . S
Mn1693 O1719 2.117 . S
C1694 O1716 1.234 . S
C1694 O1717 1.283 . S
C1695 O1707 1.281 . S
C1695 O1708 1.236 . S
C1696 O1718 1.240 . S
C1696 O1719 1.264 . S
O1697 Mn1692 2.095 . S
O1697 C1706 1.250 . S
O1698 Mn1693 2.121 . S
O1698 C1706 1.258 . S
C1699 N1700 1.326 . S
C1699 C1703 1.460 . S
C1699 H1705 0.929 . S
N1700 Mn1693 2.257 . S
N1700 C1699 1.326 . S
N1700 C1704 1.362 . S
C1701 C1702 1.258 . S
C1701 C1704 1.431 . S
C1701 C1721 1.449 . S
C1702 C1701 1.258 . S
C1702 C1703 1.477 . S
C1702 H1722 0.931 . S
C1703 C1699 1.460 . S
C1703 C1702 1.477 . S
C1703 H1723 0.930 . S
C1704 N1700 1.362 . S
C1704 C1701 1.431 . S
C1704 C1714 1.476 . S
H1705 C1699 0.929 . S
C1706 O1697 1.250 . S
C1706 O1698 1.258 . S
O1707 Mn1692 2.162 . S
O1707 C1695 1.281 . S
O1708 Mn1692 2.297 . S
O1708 C1695 1.236 . S
N1709 Mn1693 2.282 . S
N1709 C1710 1.328 . S
N1709 C1714 1.318 . S
C1710 N1709 1.328 . S
C1710 C1711 1.457 . S
C1710 H1715 0.929 . S
C1711 C1710 1.457 . S
C1711 C1712 1.291 . S
C1711 H1724 0.931 . S
C1712 C1711 1.291 . S
C1712 C1713 1.373 . S
C1712 H1725 0.929 . S
C1713 C1712 1.373 . S
C1713 C1714 1.396 . S
C1713 C1720 1.403 . S
C1714 C1704 1.476 . S
C1714 N1709 1.318 . S
C1714 C1713 1.396 . S
H1715 C1710 0.929 . S
O1716 Mn1692 2.385 . S
O1716 C1694 1.234 . S
O1717 Mn1692 2.209 . S
O1717 Mn1693 2.215 . S
O1717 C1694 1.283 . S
O1718 Mn1692 2.094 . S
O1718 C1696 1.240 . S
O1719 Mn1693 2.117 . S
O1719 C1696 1.264 . S
C1720 C1713 1.403 . S
C1720 C1721 1.399 . S
C1720 H1726 0.929 . S
C1721 C1701 1.449 . S
C1721 C1720 1.399 . S
C1721 H1727 0.930 . S
H1722 C1702 0.931 . S
H1723 C1703 0.930 . S
H1724 C1711 0.931 . S
H1725 C1712 0.929 . S
H1726 C1720 0.929 . S
H1727 C1721 0.930 . S
H1728 C1734 0.930 . S
H1729 C1738 0.930 . S
H1730 C1743 0.929 . S
H1731 C1741 0.929 . S
H1732 C1736 0.929 . S
H1733 C1742 0.929 . S
C1734 H1728 0.930 . S
C1734 C1735 1.367 . S
C1734 C1742 1.378 . S
C1735 C1734 1.367 . S
C1735 C1743 1.433 . S
C1736 H1732 0.929 . S
C1736 C1738 1.378 . S
C1736 C1740 1.350 . S
C1737 C1740 1.463 . S
C1737 C1742 1.350 . S
C1737 N1745 1.427 . S
C1738 H1729 0.930 . S
C1738 C1736 1.378 . S
C1738 C1739 1.367 . S
C1739 C1738 1.367 . S
C1739 C1741 1.433 . S
C1740 C1736 1.350 . S
C1740 C1737 1.463 . S
C1740 N1744 1.427 . S
C1741 H1731 0.929 . S
C1741 C1739 1.433 . S
C1741 N1744 1.384 . S
C1742 H1733 0.929 . S
C1742 C1734 1.378 . S
C1742 C1737 1.350 . S
C1743 H1730 0.929 . S
C1743 C1735 1.433 . S
C1743 N1745 1.384 . S
N1744 C1740 1.427 . S
N1744 C1741 1.384 . S
N1745 C1737 1.427 . S
N1745 C1743 1.384 . S
H1746 C1752 0.930 . S
H1747 C1756 0.930 . S
H1748 C1761 0.929 . S
H1749 C1759 0.929 . S
H1750 C1754 0.929 . S
H1751 C1760 0.929 . S
C1752 H1746 0.930 . S
C1752 C1753 1.367 . S
C1752 C1760 1.378 . S
C1753 C1752 1.367 . S
C1753 C1761 1.433 . S
C1754 H1750 0.929 . S
C1754 C1756 1.378 . S
C1754 C1758 1.350 . S
C1755 C1758 1.463 . S
C1755 C1760 1.350 . S
C1755 N1763 1.427 . S
C1756 H1747 0.930 . S
C1756 C1754 1.378 . S
C1756 C1757 1.367 . S
C1757 C1756 1.367 . S
C1757 C1759 1.433 . S
C1758 C1754 1.350 . S
C1758 C1755 1.463 . S
C1758 N1762 1.427 . S
C1759 H1749 0.929 . S
C1759 C1757 1.433 . S
C1759 N1762 1.384 . S
C1760 H1751 0.929 . S
C1760 C1752 1.378 . S
C1760 C1755 1.350 . S
C1761 H1748 0.929 . S
C1761 C1753 1.433 . S
C1761 N1763 1.384 . S
N1762 C1758 1.427 . S
N1762 C1759 1.384 . S
N1763 C1755 1.427 . S
N1763 C1761 1.384 . S
H1764 C1770 0.930 . S
H1765 C1774 0.930 . S
H1766 C1779 0.929 . S
H1767 C1777 0.929 . S
H1768 C1772 0.929 . S
H1769 C1778 0.929 . S
C1770 H1764 0.930 . S
C1770 C1771 1.367 . S
C1770 C1778 1.378 . S
C1771 C1770 1.367 . S
C1771 C1779 1.433 . S
C1772 H1768 0.929 . S
C1772 C1774 1.378 . S
C1772 C1776 1.350 . S
C1773 C1776 1.463 . S
C1773 C1778 1.350 . S
C1773 N1781 1.427 . S
C1774 H1765 0.930 . S
C1774 C1772 1.378 . S
C1774 C1775 1.367 . S
C1775 C1774 1.367 . S
C1775 C1777 1.433 . S
C1776 C1772 1.350 . S
C1776 C1773 1.463 . S
C1776 N1780 1.427 . S
C1777 H1767 0.929 . S
C1777 C1775 1.433 . S
C1777 N1780 1.384 . S
C1778 H1769 0.929 . S
C1778 C1770 1.378 . S
C1778 C1773 1.350 . S
C1779 H1766 0.929 . S
C1779 C1771 1.433 . S
C1779 N1781 1.384 . S
N1780 C1776 1.427 . S
N1780 C1777 1.384 . S
N1781 C1773 1.427 . S
N1781 C1779 1.384 . S
H1782 C1788 0.930 . S
H1783 C1792 0.930 . S
H1784 C1797 0.929 . S
H1785 C1795 0.929 . S
H1786 C1790 0.929 . S
H1787 C1796 0.929 . S
C1788 H1782 0.930 . S
C1788 C1789 1.367 . S
C1788 C1796 1.378 . S
C1789 C1788 1.367 . S
C1789 C1797 1.433 . S
C1790 H1786 0.929 . S
C1790 C1792 1.378 . S
C1790 C1794 1.350 . S
C1791 C1794 1.463 . S
C1791 C1796 1.350 . S
C1791 N1799 1.427 . S
C1792 H1783 0.930 . S
C1792 C1790 1.378 . S
C1792 C1793 1.367 . S
C1793 C1792 1.367 . S
C1793 C1795 1.433 . S
C1794 C1790 1.350 . S
C1794 C1791 1.463 . S
C1794 N1798 1.427 . S
C1795 H1785 0.929 . S
C1795 C1793 1.433 . S
C1795 N1798 1.384 . S
C1796 H1787 0.929 . S
C1796 C1788 1.378 . S
C1796 C1791 1.350 . S
C1797 H1784 0.929 . S
C1797 C1789 1.433 . S
C1797 N1799 1.384 . S
N1798 C1794 1.427 . S
N1798 C1795 1.384 . S
N1799 C1791 1.427 . S
N1799 C1797 1.384 . S
H1800 C1806 0.930 . S
H1801 C1810 0.930 . S
H1802 C1815 0.929 . S
H1803 C1813 0.929 . S
H1804 C1808 0.929 . S
H1805 C1814 0.929 . S
C1806 H1800 0.930 . S
C1806 C1807 1.367 . S
C1806 C1814 1.378 . S
C1807 C1806 1.367 . S
C1807 C1815 1.433 . S
C1808 H1804 0.929 . S
C1808 C1810 1.378 . S
C1808 C1812 1.350 . S
C1809 C1812 1.463 . S
C1809 C1814 1.350 . S
C1809 N1817 1.427 . S
C1810 H1801 0.930 . S
C1810 C1808 1.378 . S
C1810 C1811 1.367 . S
C1811 C1810 1.367 . S
C1811 C1813 1.433 . S
C1812 C1808 1.350 . S
C1812 C1809 1.463 . S
C1812 N1816 1.427 . S
C1813 H1803 0.929 . S
C1813 C1811 1.433 . S
C1813 N1816 1.384 . S
C1814 H1805 0.929 . S
C1814 C1806 1.378 . S
C1814 C1809 1.350 . S
C1815 H1802 0.929 . S
C1815 C1807 1.433 . S
C1815 N1817 1.384 . S
N1816 C1812 1.427 . S
N1816 C1813 1.384 . S
N1817 C1809 1.427 . S
N1817 C1815 1.384 . S
H1818 C1824 0.930 . S
H1819 C1828 0.930 . S
H1820 C1833 0.929 . S
H1821 C1831 0.929 . S
H1822 C1826 0.929 . S
H1823 C1832 0.929 . S
C1824 H1818 0.930 . S
C1824 C1825 1.367 . S
C1824 C1832 1.378 . S
C1825 C1824 1.367 . S
C1825 C1833 1.433 . S
C1826 H1822 0.929 . S
C1826 C1828 1.378 . S
C1826 C1830 1.350 . S
C1827 C1830 1.463 . S
C1827 C1832 1.350 . S
C1827 N1835 1.427 . S
C1828 H1819 0.930 . S
C1828 C1826 1.378 . S
C1828 C1829 1.367 . S
C1829 C1828 1.367 . S
C1829 C1831 1.433 . S
C1830 C1826 1.350 . S
C1830 C1827 1.463 . S
C1830 N1834 1.427 . S
C1831 H1821 0.929 . S
C1831 C1829 1.433 . S
C1831 N1834 1.384 . S
C1832 H1823 0.929 . S
C1832 C1824 1.378 . S
C1832 C1827 1.350 . S
C1833 H1820 0.929 . S
C1833 C1825 1.433 . S
C1833 N1835 1.384 . S
N1834 C1830 1.427 . S
N1834 C1831 1.384 . S
N1835 C1827 1.427 . S
N1835 C1833 1.384 . S
H1836 C1842 0.930 . S
H1837 C1846 0.930 . S
H1838 C1851 0.929 . S
H1839 C1849 0.929 . S
H1840 C1844 0.929 . S
H1841 C1850 0.929 . S
C1842 H1836 0.930 . S
C1842 C1843 1.367 . S
C1842 C1850 1.378 . S
C1843 C1842 1.367 . S
C1843 C1851 1.433 . S
C1844 H1840 0.929 . S
C1844 C1846 1.378 . S
C1844 C1848 1.350 . S
C1845 C1848 1.463 . S
C1845 C1850 1.350 . S
C1845 N1853 1.427 . S
C1846 H1837 0.930 . S
C1846 C1844 1.378 . S
C1846 C1847 1.367 . S
C1847 C1846 1.367 . S
C1847 C1849 1.433 . S
C1848 C1844 1.350 . S
C1848 C1845 1.463 . S
C1848 N1852 1.427 . S
C1849 H1839 0.929 . S
C1849 C1847 1.433 . S
C1849 N1852 1.384 . S
C1850 H1841 0.929 . S
C1850 C1842 1.378 . S
C1850 C1845 1.350 . S
C1851 H1838 0.929 . S
C1851 C1843 1.433 . S
C1851 N1853 1.384 . S
N1852 C1848 1.427 . S
N1852 C1849 1.384 . S
N1853 C1845 1.427 . S
N1853 C1851 1.384 . S
H1854 C1860 0.930 . S
H1855 C1864 0.930 . S
H1856 C1869 0.929 . S
H1857 C1867 0.929 . S
H1858 C1862 0.929 . S
H1859 C1868 0.929 . S
C1860 H1854 0.930 . S
C1860 C1861 1.367 . S
C1860 C1868 1.378 . S
C1861 C1860 1.367 . S
C1861 C1869 1.433 . S
C1862 H1858 0.929 . S
C1862 C1864 1.378 . S
C1862 C1866 1.350 . S
C1863 C1866 1.463 . S
C1863 C1868 1.350 . S
C1863 N1871 1.427 . S
C1864 H1855 0.930 . S
C1864 C1862 1.378 . S
C1864 C1865 1.367 . S
C1865 C1864 1.367 . S
C1865 C1867 1.433 . S
C1866 C1862 1.350 . S
C1866 C1863 1.463 . S
C1866 N1870 1.427 . S
C1867 H1857 0.929 . S
C1867 C1865 1.433 . S
C1867 N1870 1.384 . S
C1868 H1859 0.929 . S
C1868 C1860 1.378 . S
C1868 C1863 1.350 . S
C1869 H1856 0.929 . S
C1869 C1861 1.433 . S
C1869 N1871 1.384 . S
N1870 C1866 1.427 . S
N1870 C1867 1.384 . S
N1871 C1863 1.427 . S
N1871 C1869 1.384 . S
H1872 C1878 0.930 . S
H1873 C1882 0.930 . S
H1874 C1887 0.929 . S
H1875 C1885 0.929 . S
H1876 C1880 0.929 . S
H1877 C1886 0.929 . S
C1878 H1872 0.930 . S
C1878 C1879 1.367 . S
C1878 C1886 1.378 . S
C1879 C1878 1.367 . S
C1879 C1887 1.433 . S
C1880 H1876 0.929 . S
C1880 C1882 1.378 . S
C1880 C1884 1.350 . S
C1881 C1884 1.463 . S
C1881 C1886 1.350 . S
C1881 N1889 1.427 . S
C1882 H1873 0.930 . S
C1882 C1880 1.378 . S
C1882 C1883 1.367 . S
C1883 C1882 1.367 . S
C1883 C1885 1.433 . S
C1884 C1880 1.350 . S
C1884 C1881 1.463 . S
C1884 N1888 1.427 . S
C1885 H1875 0.929 . S
C1885 C1883 1.433 . S
C1885 N1888 1.384 . S
C1886 H1877 0.929 . S
C1886 C1878 1.378 . S
C1886 C1881 1.350 . S
C1887 H1874 0.929 . S
C1887 C1879 1.433 . S
C1887 N1889 1.384 . S
N1888 C1884 1.427 . S
N1888 C1885 1.384 . S
N1889 C1881 1.427 . S
N1889 C1887 1.384 . S
H1890 C1896 0.930 . S
H1891 C1900 0.930 . S
H1892 C1905 0.929 . S
H1893 C1903 0.929 . S
H1894 C1898 0.929 . S
H1895 C1904 0.929 . S
C1896 H1890 0.930 . S
C1896 C1897 1.367 . S
C1896 C1904 1.378 . S
C1897 C1896 1.367 . S
C1897 C1905 1.433 . S
C1898 H1894 0.929 . S
C1898 C1900 1.378 . S
C1898 C1902 1.350 . S
C1899 C1902 1.463 . S
C1899 C1904 1.350 . S
C1899 N1907 1.427 . S
C1900 H1891 0.930 . S
C1900 C1898 1.378 . S
C1900 C1901 1.367 . S
C1901 C1900 1.367 . S
C1901 C1903 1.433 . S
C1902 C1898 1.350 . S
C1902 C1899 1.463 . S
C1902 N1906 1.427 . S
C1903 H1893 0.929 . S
C1903 C1901 1.433 . S
C1903 N1906 1.384 . S
C1904 H1895 0.929 . S
C1904 C1896 1.378 . S
C1904 C1899 1.350 . S
C1905 H1892 0.929 . S
C1905 C1897 1.433 . S
C1905 N1907 1.384 . S
N1906 C1902 1.427 . S
N1906 C1903 1.384 . S
N1907 C1899 1.427 . S
N1907 C1905 1.384 . S
H1908 C1914 0.930 . S
H1909 C1918 0.930 . S
H1910 C1923 0.929 . S
H1911 C1921 0.929 . S
H1912 C1916 0.929 . S
H1913 C1922 0.929 . S
C1914 H1908 0.930 . S
C1914 C1915 1.367 . S
C1914 C1922 1.378 . S
C1915 C1914 1.367 . S
C1915 C1923 1.433 . S
C1916 H1912 0.929 . S
C1916 C1918 1.378 . S
C1916 C1920 1.350 . S
C1917 C1920 1.463 . S
C1917 C1922 1.350 . S
C1917 N1925 1.427 . S
C1918 H1909 0.930 . S
C1918 C1916 1.378 . S
C1918 C1919 1.367 . S
C1919 C1918 1.367 . S
C1919 C1921 1.433 . S
C1920 C1916 1.350 . S
C1920 C1917 1.463 . S
C1920 N1924 1.427 . S
C1921 H1911 0.929 . S
C1921 C1919 1.433 . S
C1921 N1924 1.384 . S
C1922 H1913 0.929 . S
C1922 C1914 1.378 . S
C1922 C1917 1.350 . S
C1923 H1910 0.929 . S
C1923 C1915 1.433 . S
C1923 N1925 1.384 . S
N1924 C1920 1.427 . S
N1924 C1921 1.384 . S
N1925 C1917 1.427 . S
N1925 C1923 1.384 . S
H1926 C1932 0.930 . S
H1927 C1936 0.930 . S
H1928 C1941 0.929 . S
H1929 C1939 0.929 . S
H1930 C1934 0.929 . S
H1931 C1940 0.929 . S
C1932 H1926 0.930 . S
C1932 C1933 1.367 . S
C1932 C1940 1.378 . S
C1933 C1932 1.367 . S
C1933 C1941 1.433 . S
C1934 H1930 0.929 . S
C1934 C1936 1.378 . S
C1934 C1938 1.350 . S
C1935 C1938 1.463 . S
C1935 C1940 1.350 . S
C1935 N1943 1.427 . S
C1936 H1927 0.930 . S
C1936 C1934 1.378 . S
C1936 C1937 1.367 . S
C1937 C1936 1.367 . S
C1937 C1939 1.433 . S
C1938 C1934 1.350 . S
C1938 C1935 1.463 . S
C1938 N1942 1.427 . S
C1939 H1929 0.929 . S
C1939 C1937 1.433 . S
C1939 N1942 1.384 . S
C1940 H1931 0.929 . S
C1940 C1932 1.378 . S
C1940 C1935 1.350 . S
C1941 H1928 0.929 . S
C1941 C1933 1.433 . S
C1941 N1943 1.384 . S
N1942 C1938 1.427 . S
N1942 C1939 1.384 . S
N1943 C1935 1.427 . S
N1943 C1941 1.384 . S
H1944 C1950 0.930 . S
H1945 C1954 0.930 . S
H1946 C1959 0.929 . S
H1947 C1957 0.929 . S
H1948 C1952 0.929 . S
H1949 C1958 0.929 . S
C1950 H1944 0.930 . S
C1950 C1951 1.367 . S
C1950 C1958 1.378 . S
C1951 C1950 1.367 . S
C1951 C1959 1.433 . S
C1952 H1948 0.929 . S
C1952 C1954 1.378 . S
C1952 C1956 1.350 . S
C1953 C1956 1.463 . S
C1953 C1958 1.350 . S
C1953 N1961 1.427 . S
C1954 H1945 0.930 . S
C1954 C1952 1.378 . S
C1954 C1955 1.367 . S
C1955 C1954 1.367 . S
C1955 C1957 1.433 . S
C1956 C1952 1.350 . S
C1956 C1953 1.463 . S
C1956 N1960 1.427 . S
C1957 H1947 0.929 . S
C1957 C1955 1.433 . S
C1957 N1960 1.384 . S
C1958 H1949 0.929 . S
C1958 C1950 1.378 . S
C1958 C1953 1.350 . S
C1959 H1946 0.929 . S
C1959 C1951 1.433 . S
C1959 N1961 1.384 . S
N1960 C1956 1.427 . S
N1960 C1957 1.384 . S
N1961 C1953 1.427 . S
N1961 C1959 1.384 . S
H1962 C1968 0.930 . S
H1963 C1972 0.930 . S
H1964 C1977 0.929 . S
H1965 C1975 0.929 . S
H1966 C1970 0.929 . S
H1967 C1976 0.929 . S
C1968 H1962 0.930 . S
C1968 C1969 1.367 . S
C1968 C1976 1.378 . S
C1969 C1968 1.367 . S
C1969 C1977 1.433 . S
C1970 H1966 0.929 . S
C1970 C1972 1.378 . S
C1970 C1974 1.350 . S
C1971 C1974 1.463 . S
C1971 C1976 1.350 . S
C1971 N1979 1.427 . S
C1972 H1963 0.930 . S
C1972 C1970 1.378 . S
C1972 C1973 1.367 . S
C1973 C1972 1.367 . S
C1973 C1975 1.433 . S
C1974 C1970 1.350 . S
C1974 C1971 1.463 . S
C1974 N1978 1.427 . S
C1975 H1965 0.929 . S
C1975 C1973 1.433 . S
C1975 N1978 1.384 . S
C1976 H1967 0.929 . S
C1976 C1968 1.378 . S
C1976 C1971 1.350 . S
C1977 H1964 0.929 . S
C1977 C1969 1.433 . S
C1977 N1979 1.384 . S
N1978 C1974 1.427 . S
N1978 C1975 1.384 . S
N1979 C1971 1.427 . S
N1979 C1977 1.384 . S
H1980 C1986 0.930 . S
H1981 C1990 0.930 . S
H1982 C1995 0.929 . S
H1983 C1993 0.929 . S
H1984 C1988 0.929 . S
H1985 C1994 0.929 . S
C1986 H1980 0.930 . S
C1986 C1987 1.367 . S
C1986 C1994 1.378 . S
C1987 C1986 1.367 . S
C1987 C1995 1.433 . S
C1988 H1984 0.929 . S
C1988 C1990 1.378 . S
C1988 C1992 1.350 . S
C1989 C1992 1.463 . S
C1989 C1994 1.350 . S
C1989 N1997 1.427 . S
C1990 H1981 0.930 . S
C1990 C1988 1.378 . S
C1990 C1991 1.367 . S
C1991 C1990 1.367 . S
C1991 C1993 1.433 . S
C1992 C1988 1.350 . S
C1992 C1989 1.463 . S
C1992 N1996 1.427 . S
C1993 H1983 0.929 . S
C1993 C1991 1.433 . S
C1993 N1996 1.384 . S
C1994 H1985 0.929 . S
C1994 C1986 1.378 . S
C1994 C1989 1.350 . S
C1995 H1982 0.929 . S
C1995 C1987 1.433 . S
C1995 N1997 1.384 . S
N1996 C1992 1.427 . S
N1996 C1993 1.384 . S
N1997 C1989 1.427 . S
N1997 C1995 1.384 . S
H1998 C2004 0.930 . S
H1999 C2008 0.930 . S
H2000 C2013 0.929 . S
H2001 C2011 0.929 . S
H2002 C2006 0.929 . S
H2003 C2012 0.929 . S
C2004 H1998 0.930 . S
C2004 C2005 1.367 . S
C2004 C2012 1.378 . S
C2005 C2004 1.367 . S
C2005 C2013 1.433 . S
C2006 H2002 0.929 . S
C2006 C2008 1.378 . S
C2006 C2010 1.350 . S
C2007 C2010 1.463 . S
C2007 C2012 1.350 . S
C2007 N2015 1.427 . S
C2008 H1999 0.930 . S
C2008 C2006 1.378 . S
C2008 C2009 1.367 . S
C2009 C2008 1.367 . S
C2009 C2011 1.433 . S
C2010 C2006 1.350 . S
C2010 C2007 1.463 . S
C2010 N2014 1.427 . S
C2011 H2001 0.929 . S
C2011 C2009 1.433 . S
C2011 N2014 1.384 . S
C2012 H2003 0.929 . S
C2012 C2004 1.378 . S
C2012 C2007 1.350 . S
C2013 H2000 0.929 . S
C2013 C2005 1.433 . S
C2013 N2015 1.384 . S
N2014 C2010 1.427 . S
N2014 C2011 1.384 . S
N2015 C2007 1.427 . S
N2015 C2013 1.384 . S
H2016 C2022 0.930 . S
H2017 C2026 0.930 . S
H2018 C2031 0.929 . S
H2019 C2029 0.929 . S
H2020 C2024 0.929 . S
H2021 C2030 0.929 . S
C2022 H2016 0.930 . S
C2022 C2023 1.367 . S
C2022 C2030 1.378 . S
C2023 C2022 1.367 . S
C2023 C2031 1.433 . S
C2024 H2020 0.929 . S
C2024 C2026 1.378 . S
C2024 C2028 1.350 . S
C2025 C2028 1.463 . S
C2025 C2030 1.350 . S
C2025 N2033 1.427 . S
C2026 H2017 0.930 . S
C2026 C2024 1.378 . S
C2026 C2027 1.367 . S
C2027 C2026 1.367 . S
C2027 C2029 1.433 . S
C2028 C2024 1.350 . S
C2028 C2025 1.463 . S
C2028 N2032 1.427 . S
C2029 H2019 0.929 . S
C2029 C2027 1.433 . S
C2029 N2032 1.384 . S
C2030 H2021 0.929 . S
C2030 C2022 1.378 . S
C2030 C2025 1.350 . S
C2031 H2018 0.929 . S
C2031 C2023 1.433 . S
C2031 N2033 1.384 . S
N2032 C2028 1.427 . S
N2032 C2029 1.384 . S
N2033 C2025 1.427 . S
N2033 C2031 1.384 . S
H2034 C2040 0.930 . S
H2035 C2044 0.930 . S
H2036 C2049 0.929 . S
H2037 C2047 0.929 . S
H2038 C2042 0.929 . S
H2039 C2048 0.929 . S
C2040 H2034 0.930 . S
C2040 C2041 1.367 . S
C2040 C2048 1.378 . S
C2041 C2040 1.367 . S
C2041 C2049 1.433 . S
C2042 H2038 0.929 . S
C2042 C2044 1.378 . S
C2042 C2046 1.350 . S
C2043 C2046 1.463 . S
C2043 C2048 1.350 . S
C2043 N2051 1.427 . S
C2044 H2035 0.930 . S
C2044 C2042 1.378 . S
C2044 C2045 1.367 . S
C2045 C2044 1.367 . S
C2045 C2047 1.433 . S
C2046 C2042 1.350 . S
C2046 C2043 1.463 . S
C2046 N2050 1.427 . S
C2047 H2037 0.929 . S
C2047 C2045 1.433 . S
C2047 N2050 1.384 . S
C2048 H2039 0.929 . S
C2048 C2040 1.378 . S
C2048 C2043 1.350 . S
C2049 H2036 0.929 . S
C2049 C2041 1.433 . S
C2049 N2051 1.384 . S
N2050 C2046 1.427 . S
N2050 C2047 1.384 . S
N2051 C2043 1.427 . S
N2051 C2049 1.384 . S
H2052 C2058 0.930 . S
H2053 C2062 0.930 . S
H2054 C2067 0.929 . S
H2055 C2065 0.929 . S
H2056 C2060 0.929 . S
H2057 C2066 0.929 . S
C2058 H2052 0.930 . S
C2058 C2059 1.367 . S
C2058 C2066 1.378 . S
C2059 C2058 1.367 . S
C2059 C2067 1.433 . S
C2060 H2056 0.929 . S
C2060 C2062 1.378 . S
C2060 C2064 1.350 . S
C2061 C2064 1.463 . S
C2061 C2066 1.350 . S
C2061 N2069 1.427 . S
C2062 H2053 0.930 . S
C2062 C2060 1.378 . S
C2062 C2063 1.367 . S
C2063 C2062 1.367 . S
C2063 C2065 1.433 . S
C2064 C2060 1.350 . S
C2064 C2061 1.463 . S
C2064 N2068 1.427 . S
C2065 H2055 0.929 . S
C2065 C2063 1.433 . S
C2065 N2068 1.384 . S
C2066 H2057 0.929 . S
C2066 C2058 1.378 . S
C2066 C2061 1.350 . S
C2067 H2054 0.929 . S
C2067 C2059 1.433 . S
C2067 N2069 1.384 . S
N2068 C2064 1.427 . S
N2068 C2065 1.384 . S
N2069 C2061 1.427 . S
N2069 C2067 1.384 . S
H2070 C2076 0.930 . S
H2071 C2080 0.930 . S
H2072 C2085 0.929 . S
H2073 C2083 0.929 . S
H2074 C2078 0.929 . S
H2075 C2084 0.929 . S
C2076 H2070 0.930 . S
C2076 C2077 1.367 . S
C2076 C2084 1.378 . S
C2077 C2076 1.367 . S
C2077 C2085 1.433 . S
C2078 H2074 0.929 . S
C2078 C2080 1.378 . S
C2078 C2082 1.350 . S
C2079 C2082 1.463 . S
C2079 C2084 1.350 . S
C2079 N2087 1.427 . S
C2080 H2071 0.930 . S
C2080 C2078 1.378 . S
C2080 C2081 1.367 . S
C2081 C2080 1.367 . S
C2081 C2083 1.433 . S
C2082 C2078 1.350 . S
C2082 C2079 1.463 . S
C2082 N2086 1.427 . S
C2083 H2073 0.929 . S
C2083 C2081 1.433 . S
C2083 N2086 1.384 . S
C2084 H2075 0.929 . S
C2084 C2076 1.378 . S
C2084 C2079 1.350 . S
C2085 H2072 0.929 . S
C2085 C2077 1.433 . S
C2085 N2087 1.384 . S
N2086 C2082 1.427 . S
N2086 C2083 1.384 . S
N2087 C2079 1.427 . S
N2087 C2085 1.384 . S
H2088 C2094 0.930 . S
H2089 C2098 0.930 . S
H2090 C2103 0.929 . S
H2091 C2101 0.929 . S
H2092 C2096 0.929 . S
H2093 C2102 0.929 . S
C2094 H2088 0.930 . S
C2094 C2095 1.367 . S
C2094 C2102 1.378 . S
C2095 C2094 1.367 . S
C2095 C2103 1.433 . S
C2096 H2092 0.929 . S
C2096 C2098 1.378 . S
C2096 C2100 1.350 . S
C2097 C2100 1.463 . S
C2097 C2102 1.350 . S
C2097 N2105 1.427 . S
C2098 H2089 0.930 . S
C2098 C2096 1.378 . S
C2098 C2099 1.367 . S
C2099 C2098 1.367 . S
C2099 C2101 1.433 . S
C2100 C2096 1.350 . S
C2100 C2097 1.463 . S
C2100 N2104 1.427 . S
C2101 H2091 0.929 . S
C2101 C2099 1.433 . S
C2101 N2104 1.384 . S
C2102 H2093 0.929 . S
C2102 C2094 1.378 . S
C2102 C2097 1.350 . S
C2103 H2090 0.929 . S
C2103 C2095 1.433 . S
C2103 N2105 1.384 . S
N2104 C2100 1.427 . S
N2104 C2101 1.384 . S
N2105 C2097 1.427 . S
N2105 C2103 1.384 . S
H2106 C2112 0.930 . S
H2107 C2116 0.930 . S
H2108 C2121 0.929 . S
H2109 C2119 0.929 . S
H2110 C2114 0.929 . S
H2111 C2120 0.929 . S
C2112 H2106 0.930 . S
C2112 C2113 1.367 . S
C2112 C2120 1.378 . S
C2113 C2112 1.367 . S
C2113 C2121 1.433 . S
C2114 H2110 0.929 . S
C2114 C2116 1.378 . S
C2114 C2118 1.350 . S
C2115 C2118 1.463 . S
C2115 C2120 1.350 . S
C2115 N2123 1.427 . S
C2116 H2107 0.930 . S
C2116 C2114 1.378 . S
C2116 C2117 1.367 . S
C2117 C2116 1.367 . S
C2117 C2119 1.433 . S
C2118 C2114 1.350 . S
C2118 C2115 1.463 . S
C2118 N2122 1.427 . S
C2119 H2109 0.929 . S
C2119 C2117 1.433 . S
C2119 N2122 1.384 . S
C2120 H2111 0.929 . S
C2120 C2112 1.378 . S
C2120 C2115 1.350 . S
C2121 H2108 0.929 . S
C2121 C2113 1.433 . S
C2121 N2123 1.384 . S
N2122 C2118 1.427 . S
N2122 C2119 1.384 . S
N2123 C2115 1.427 . S
N2123 C2121 1.384 . S
H2124 C2130 0.930 . S
H2125 C2134 0.930 . S
H2126 C2139 0.929 . S
H2127 C2137 0.929 . S
H2128 C2132 0.929 . S
H2129 C2138 0.929 . S
C2130 H2124 0.930 . S
C2130 C2131 1.367 . S
C2130 C2138 1.378 . S
C2131 C2130 1.367 . S
C2131 C2139 1.433 . S
C2132 H2128 0.929 . S
C2132 C2134 1.378 . S
C2132 C2136 1.350 . S
C2133 C2136 1.463 . S
C2133 C2138 1.350 . S
C2133 N2141 1.427 . S
C2134 H2125 0.930 . S
C2134 C2132 1.378 . S
C2134 C2135 1.367 . S
C2135 C2134 1.367 . S
C2135 C2137 1.433 . S
C2136 C2132 1.350 . S
C2136 C2133 1.463 . S
C2136 N2140 1.427 . S
C2137 H2127 0.929 . S
C2137 C2135 1.433 . S
C2137 N2140 1.384 . S
C2138 H2129 0.929 . S
C2138 C2130 1.378 . S
C2138 C2133 1.350 . S
C2139 H2126 0.929 . S
C2139 C2131 1.433 . S
C2139 N2141 1.384 . S
N2140 C2136 1.427 . S
N2140 C2137 1.384 . S
N2141 C2133 1.427 . S
N2141 C2139 1.384 . S
H2142 C2148 0.930 . S
H2143 C2152 0.930 . S
H2144 C2157 0.929 . S
H2145 C2155 0.929 . S
H2146 C2150 0.929 . S
H2147 C2156 0.929 . S
C2148 H2142 0.930 . S
C2148 C2149 1.367 . S
C2148 C2156 1.378 . S
C2149 C2148 1.367 . S
C2149 C2157 1.433 . S
C2150 H2146 0.929 . S
C2150 C2152 1.378 . S
C2150 C2154 1.350 . S
C2151 C2154 1.463 . S
C2151 C2156 1.350 . S
C2151 N2159 1.427 . S
C2152 H2143 0.930 . S
C2152 C2150 1.378 . S
C2152 C2153 1.367 . S
C2153 C2152 1.367 . S
C2153 C2155 1.433 . S
C2154 C2150 1.350 . S
C2154 C2151 1.463 . S
C2154 N2158 1.427 . S
C2155 H2145 0.929 . S
C2155 C2153 1.433 . S
C2155 N2158 1.384 . S
C2156 H2147 0.929 . S
C2156 C2148 1.378 . S
C2156 C2151 1.350 . S
C2157 H2144 0.929 . S
C2157 C2149 1.433 . S
C2157 N2159 1.384 . S
N2158 C2154 1.427 . S
N2158 C2155 1.384 . S
N2159 C2151 1.427 . S
N2159 C2157 1.384 . S
H2160 C2166 0.930 . S
H2161 C2170 0.930 . S
H2162 C2175 0.929 . S
H2163 C2173 0.929 . S
H2164 C2168 0.929 . S
H2165 C2174 0.929 . S
C2166 H2160 0.930 . S
C2166 C2167 1.367 1_455 S
C2166 C2174 1.378 . S
C2167 C2166 1.367 1_655 S
C2167 C2175 1.433 . S
C2168 H2164 0.929 . S
C2168 C2170 1.378 . S
C2168 C2172 1.350 1_655 S
C2169 C2172 1.463 1_655 S
C2169 C2174 1.350 1_655 S
C2169 N2177 1.427 . S
C2170 H2161 0.930 . S
C2170 C2168 1.378 . S
C2170 C2171 1.367 1_655 S
C2171 C2170 1.367 1_455 S
C2171 C2173 1.433 . S
C2172 C2168 1.350 1_455 S
C2172 C2169 1.463 1_455 S
C2172 N2176 1.427 . S
C2173 H2163 0.929 . S
C2173 C2171 1.433 . S
C2173 N2176 1.384 . S
C2174 H2165 0.929 . S
C2174 C2166 1.378 . S
C2174 C2169 1.350 1_455 S
C2175 H2162 0.929 . S
C2175 C2167 1.433 . S
C2175 N2177 1.384 . S
N2176 C2172 1.427 . S
N2176 C2173 1.384 . S
N2177 C2169 1.427 . S
N2177 C2175 1.384 . S
H2178 C2184 0.930 . S
H2179 C2188 0.930 . S
H2180 C2193 0.929 . S
H2181 C2191 0.929 . S
H2182 C2186 0.929 1_565 S
H2183 C2192 0.929 1_545 S
C2184 H2178 0.930 . S
C2184 C2185 1.367 . S
C2184 C2192 1.378 . S
C2185 C2184 1.367 . S
C2185 C2193 1.433 . S
C2186 H2182 0.929 1_545 S
C2186 C2188 1.378 . S
C2186 C2190 1.350 . S
C2187 C2190 1.463 1_565 S
C2187 C2192 1.350 . S
C2187 N2195 1.427 . S
C2188 H2179 0.930 . S
C2188 C2186 1.378 . S
C2188 C2189 1.367 . S
C2189 C2188 1.367 . S
C2189 C2191 1.433 . S
C2190 C2186 1.350 . S
C2190 C2187 1.463 1_545 S
C2190 N2194 1.427 . S
C2191 H2181 0.929 . S
C2191 C2189 1.433 . S
C2191 N2194 1.384 . S
C2192 H2183 0.929 1_565 S
C2192 C2184 1.378 . S
C2192 C2187 1.350 . S
C2193 H2180 0.929 . S
C2193 C2185 1.433 . S
C2193 N2195 1.384 . S
N2194 C2190 1.427 . S
N2194 C2191 1.384 . S
N2195 C2187 1.427 . S
N2195 C2193 1.384 . S
H2196 C2202 0.930 . S
H2197 C2206 0.930 . S
H2198 C2211 0.929 . S
H2199 C2209 0.929 . S
H2200 C2204 0.929 . S
H2201 C2210 0.929 . S
C2202 H2196 0.930 . S
C2202 C2203 1.367 1_455 S
C2202 C2210 1.378 . S
C2203 C2202 1.367 1_655 S
C2203 C2211 1.433 . S
C2204 H2200 0.929 . S
C2204 C2206 1.378 . S
C2204 C2208 1.350 1_655 S
C2205 C2208 1.463 1_655 S
C2205 C2210 1.350 1_655 S
C2205 N2213 1.427 . S
C2206 H2197 0.930 . S
C2206 C2204 1.378 . S
C2206 C2207 1.367 1_655 S
C2207 C2206 1.367 1_455 S
C2207 C2209 1.433 . S
C2208 C2204 1.350 1_455 S
C2208 C2205 1.463 1_455 S
C2208 N2212 1.427 . S
C2209 H2199 0.929 . S
C2209 C2207 1.433 . S
C2209 N2212 1.384 . S
C2210 H2201 0.929 . S
C2210 C2202 1.378 . S
C2210 C2205 1.350 1_455 S
C2211 H2198 0.929 . S
C2211 C2203 1.433 . S
C2211 N2213 1.384 . S
N2212 C2208 1.427 . S
N2212 C2209 1.384 . S
N2213 C2205 1.427 . S
N2213 C2211 1.384 . S
H2214 C2220 0.930 . S
H2215 C2224 0.930 . S
H2216 C2229 0.929 . S
H2217 C2227 0.929 . S
H2218 C2222 0.929 . S
H2219 C2228 0.929 . S
C2220 H2214 0.930 . S
C2220 C2221 1.367 1_565 S
C2220 C2228 1.378 . S
C2221 C2220 1.367 1_545 S
C2221 C2229 1.433 . S
C2222 H2218 0.929 . S
C2222 C2224 1.378 . S
C2222 C2226 1.350 1_545 S
C2223 C2226 1.463 1_545 S
C2223 C2228 1.350 1_545 S
C2223 N2231 1.427 . S
C2224 H2215 0.930 . S
C2224 C2222 1.378 . S
C2224 C2225 1.367 1_545 S
C2225 C2224 1.367 1_565 S
C2225 C2227 1.433 . S
C2226 C2222 1.350 1_565 S
C2226 C2223 1.463 1_565 S
C2226 N2230 1.427 . S
C2227 H2217 0.929 . S
C2227 C2225 1.433 . S
C2227 N2230 1.384 . S
C2228 H2219 0.929 . S
C2228 C2220 1.378 . S
C2228 C2223 1.350 1_565 S
C2229 H2216 0.929 . S
C2229 C2221 1.433 . S
C2229 N2231 1.384 . S
N2230 C2226 1.427 . S
N2230 C2227 1.384 . S
N2231 C2223 1.427 . S
N2231 C2229 1.384 . S
H2232 C2238 0.930 . S
H2233 C2242 0.930 . S
H2234 C2247 0.929 . S
H2235 C2245 0.929 . S
H2236 C2240 0.929 . S
H2237 C2246 0.929 . S
C2238 H2232 0.930 . S
C2238 C2239 1.367 . S
C2238 C2246 1.378 . S
C2239 C2238 1.367 . S
C2239 C2247 1.433 . S
C2240 H2236 0.929 . S
C2240 C2242 1.378 . S
C2240 C2244 1.350 . S
C2241 C2244 1.463 1_455 S
C2241 C2246 1.350 . S
C2241 N2249 1.427 . S
C2242 H2233 0.930 . S
C2242 C2240 1.378 . S
C2242 C2243 1.367 . S
C2243 C2242 1.367 . S
C2243 C2245 1.433 . S
C2244 C2240 1.350 . S
C2244 C2241 1.463 1_655 S
C2244 N2248 1.427 . S
C2245 H2235 0.929 . S
C2245 C2243 1.433 . S
C2245 N2248 1.384 . S
C2246 H2237 0.929 . S
C2246 C2238 1.378 . S
C2246 C2241 1.350 . S
C2247 H2234 0.929 . S
C2247 C2239 1.433 . S
C2247 N2249 1.384 . S
N2248 C2244 1.427 . S
N2248 C2245 1.384 . S
N2249 C2241 1.427 . S
N2249 C2247 1.384 . S
H2250 C2256 0.930 . S
H2251 C2260 0.930 . S
H2252 C2265 0.929 . S
H2253 C2263 0.929 . S
H2254 C2258 0.929 . S
H2255 C2264 0.929 . S
C2256 H2250 0.930 . S
C2256 C2257 1.367 1_545 S
C2256 C2264 1.378 . S
C2257 C2256 1.367 1_565 S
C2257 C2265 1.433 . S
C2258 H2254 0.929 . S
C2258 C2260 1.378 . S
C2258 C2262 1.350 1_565 S
C2259 C2262 1.463 1_565 S
C2259 C2264 1.350 1_565 S
C2259 N2267 1.427 . S
C2260 H2251 0.930 . S
C2260 C2258 1.378 . S
C2260 C2261 1.367 1_565 S
C2261 C2260 1.367 1_545 S
C2261 C2263 1.433 . S
C2262 C2258 1.350 1_545 S
C2262 C2259 1.463 1_545 S
C2262 N2266 1.427 . S
C2263 H2253 0.929 . S
C2263 C2261 1.433 . S
C2263 N2266 1.384 . S
C2264 H2255 0.929 . S
C2264 C2256 1.378 . S
C2264 C2259 1.350 1_545 S
C2265 H2252 0.929 . S
C2265 C2257 1.433 . S
C2265 N2267 1.384 . S
N2266 C2262 1.427 . S
N2266 C2263 1.384 . S
N2267 C2259 1.427 . S
N2267 C2265 1.384 . S
H2268 C2274 0.930 . S
H2269 C2278 0.930 . S
H2270 C2283 0.929 . S
H2271 C2281 0.929 . S
H2272 C2276 0.935 . S
H2273 C2282 0.935 . S
C2274 H2268 0.930 . S
C2274 C2275 1.367 . S
C2274 C2282 1.378 . S
C2275 C2274 1.367 . S
C2275 C2283 1.433 . S
C2276 H2272 0.935 . S
C2276 C2278 1.378 . S
C2276 C2280 1.350 . S
C2277 C2280 1.463 1_455 S
C2277 C2282 1.350 . S
C2277 N2285 1.427 . S
C2278 H2269 0.930 . S
C2278 C2276 1.378 . S
C2278 C2279 1.367 . S
C2279 C2278 1.367 . S
C2279 C2281 1.433 . S
C2280 C2276 1.350 . S
C2280 C2277 1.463 1_655 S
C2280 N2284 1.427 . S
C2281 H2271 0.929 . S
C2281 C2279 1.433 . S
C2281 N2284 1.384 . S
C2282 H2273 0.935 . S
C2282 C2274 1.378 . S
C2282 C2277 1.350 . S
C2283 H2270 0.929 . S
C2283 C2275 1.433 . S
C2283 N2285 1.384 . S
N2284 C2280 1.427 . S
N2284 C2281 1.384 . S
N2285 C2277 1.427 . S
N2285 C2283 1.384 . S
H2286 C2292 0.930 . S
H2287 C2296 0.930 . S
H2288 C2301 0.929 . S
H2289 C2299 0.929 . S
H2290 C2294 0.929 . S
H2291 C2300 0.929 . S
C2292 H2286 0.930 . S
C2292 C2293 1.367 1_565 S
C2292 C2300 1.378 . S
C2293 C2292 1.367 1_545 S
C2293 C2301 1.433 . S
C2294 H2290 0.929 . S
C2294 C2296 1.378 . S
C2294 C2298 1.350 1_545 S
C2295 C2298 1.463 1_545 S
C2295 C2300 1.350 1_545 S
C2295 N2303 1.427 . S
C2296 H2287 0.930 . S
C2296 C2294 1.378 . S
C2296 C2297 1.367 1_545 S
C2297 C2296 1.367 1_565 S
C2297 C2299 1.433 . S
C2298 C2294 1.350 1_565 S
C2298 C2295 1.463 1_565 S
C2298 N2302 1.427 . S
C2299 H2289 0.929 . S
C2299 C2297 1.433 . S
C2299 N2302 1.384 . S
C2300 H2291 0.929 . S
C2300 C2292 1.378 . S
C2300 C2295 1.350 1_565 S
C2301 H2288 0.929 . S
C2301 C2293 1.433 . S
C2301 N2303 1.384 . S
N2302 C2298 1.427 . S
N2302 C2299 1.384 . S
N2303 C2295 1.427 . S
N2303 C2301 1.384 . S
H2304 C2310 0.930 . S
H2305 C2314 0.930 . S
H2306 C2319 0.929 . S
H2307 C2317 0.929 . S
H2308 C2312 0.929 . S
H2309 C2318 0.929 . S
C2310 H2304 0.930 . S
C2310 C2311 1.367 . S
C2310 C2318 1.378 . S
C2311 C2310 1.367 . S
C2311 C2319 1.433 . S
C2312 H2308 0.929 . S
C2312 C2314 1.378 . S
C2312 C2316 1.350 . S
C2313 C2316 1.463 1_556 S
C2313 C2318 1.350 . S
C2313 N2321 1.427 . S
C2314 H2305 0.930 . S
C2314 C2312 1.378 . S
C2314 C2315 1.367 . S
C2315 C2314 1.367 . S
C2315 C2317 1.433 . S
C2316 C2312 1.350 . S
C2316 C2313 1.463 1_554 S
C2316 N2320 1.427 . S
C2317 H2307 0.929 . S
C2317 C2315 1.433 . S
C2317 N2320 1.384 . S
C2318 H2309 0.929 . S
C2318 C2310 1.378 . S
C2318 C2313 1.350 . S
C2319 H2306 0.929 . S
C2319 C2311 1.433 . S
C2319 N2321 1.384 . S
N2320 C2316 1.427 . S
N2320 C2317 1.384 . S
N2321 C2313 1.427 . S
N2321 C2319 1.384 . S
H2322 C2328 0.930 . S
H2323 C2332 0.930 . S
H2324 C2337 0.929 . S
H2325 C2335 0.929 . S
H2326 C2330 0.929 . S
H2327 C2336 0.929 . S
C2328 H2322 0.930 . S
C2328 C2329 1.367 1_556 S
C2328 C2336 1.378 . S
C2329 C2328 1.367 1_554 S
C2329 C2337 1.433 . S
C2330 H2326 0.929 . S
C2330 C2332 1.378 . S
C2330 C2334 1.350 1_554 S
C2331 C2334 1.463 1_554 S
C2331 C2336 1.350 1_554 S
C2331 N2339 1.427 . S
C2332 H2323 0.930 . S
C2332 C2330 1.378 . S
C2332 C2333 1.367 1_554 S
C2333 C2332 1.367 1_556 S
C2333 C2335 1.433 . S
C2334 C2330 1.350 1_556 S
C2334 C2331 1.463 1_556 S
C2334 N2338 1.427 . S
C2335 H2325 0.929 . S
C2335 C2333 1.433 . S
C2335 N2338 1.384 . S
C2336 H2327 0.929 . S
C2336 C2328 1.378 . S
C2336 C2331 1.350 1_556 S
C2337 H2324 0.929 . S
C2337 C2329 1.433 . S
C2337 N2339 1.384 . S
N2338 C2334 1.427 . S
N2338 C2335 1.384 . S
N2339 C2331 1.427 . S
N2339 C2337 1.384 . S
H2340 C2346 0.930 . S
H2341 C2350 0.930 . S
H2342 C2355 0.929 . S
H2343 C2353 0.929 . S
H2344 C2348 0.929 . S
H2345 C2354 0.929 . S
C2346 H2340 0.930 . S
C2346 C2347 1.367 . S
C2346 C2354 1.378 . S
C2347 C2346 1.367 . S
C2347 C2355 1.433 1_554 S
C2348 H2344 0.929 . S
C2348 C2350 1.378 . S
C2348 C2352 1.350 . S
C2349 C2352 1.463 1_554 S
C2349 C2354 1.350 . S
C2349 N2357 1.427 1_554 S
C2350 H2341 0.930 . S
C2350 C2348 1.378 . S
C2350 C2351 1.367 . S
C2351 C2350 1.367 . S
C2351 C2353 1.433 1_556 S
C2352 C2348 1.350 . S
C2352 C2349 1.463 1_556 S
C2352 N2356 1.427 1_556 S
C2353 H2343 0.929 . S
C2353 C2351 1.433 1_554 S
C2353 N2356 1.384 . S
C2354 H2345 0.929 . S
C2354 C2346 1.378 . S
C2354 C2349 1.350 . S
C2355 H2342 0.929 . S
C2355 C2347 1.433 1_556 S
C2355 N2357 1.384 . S
N2356 C2352 1.427 1_554 S
N2356 C2353 1.384 . S
N2357 C2349 1.427 1_556 S
N2357 C2355 1.384 . S
H2358 C2364 0.930 . S
H2359 C2368 0.930 . S
H2360 C2373 0.929 . S
H2361 C2371 0.929 . S
H2362 C2366 0.929 . S
H2363 C2372 0.929 . S
C2364 H2358 0.930 . S
C2364 C2365 1.367 . S
C2364 C2372 1.378 . S
C2365 C2364 1.367 . S
C2365 C2373 1.433 . S
C2366 H2362 0.929 . S
C2366 C2368 1.378 . S
C2366 C2370 1.350 . S
C2367 C2370 1.463 1_556 S
C2367 C2372 1.350 . S
C2367 N2375 1.427 . S
C2368 H2359 0.930 . S
C2368 C2366 1.378 . S
C2368 C2369 1.367 . S
C2369 C2368 1.367 . S
C2369 C2371 1.433 . S
C2370 C2366 1.350 . S
C2370 C2367 1.463 1_554 S
C2370 N2374 1.427 . S
C2371 H2361 0.929 . S
C2371 C2369 1.433 . S
C2371 N2374 1.384 . S
C2372 H2363 0.929 . S
C2372 C2364 1.378 . S
C2372 C2367 1.350 . S
C2373 H2360 0.929 . S
C2373 C2365 1.433 . S
C2373 N2375 1.384 . S
N2374 C2370 1.427 . S
N2374 C2371 1.384 . S
N2375 C2367 1.427 . S
N2375 C2373 1.384 . S
H2376 C2382 0.930 . S
H2377 C2386 0.930 . S
H2378 C2391 0.929 . S
H2379 C2389 0.929 . S
H2380 C2384 0.929 . S
H2381 C2390 0.929 . S
C2382 H2376 0.930 . S
C2382 C2383 1.367 . S
C2382 C2390 1.378 . S
C2383 C2382 1.367 . S
C2383 C2391 1.433 . S
C2384 H2380 0.929 . S
C2384 C2386 1.378 . S
C2384 C2388 1.350 . S
C2385 C2388 1.463 . S
C2385 C2390 1.350 . S
C2385 N2393 1.427 . S
C2386 H2377 0.930 . S
C2386 C2384 1.378 . S
C2386 C2387 1.367 . S
C2387 C2386 1.367 . S
C2387 C2389 1.433 . S
C2388 C2384 1.350 . S
C2388 C2385 1.463 . S
C2388 N2392 1.427 . S
C2389 H2379 0.929 . S
C2389 C2387 1.433 . S
C2389 N2392 1.384 . S
C2390 H2381 0.929 . S
C2390 C2382 1.378 . S
C2390 C2385 1.350 . S
C2391 H2378 0.929 . S
C2391 C2383 1.433 . S
C2391 N2393 1.384 . S
N2392 C2388 1.427 . S
N2392 C2389 1.384 . S
N2393 C2385 1.427 . S
N2393 C2391 1.384 . S
H2394 C2400 0.930 . S
H2395 C2404 0.930 . S
H2396 C2409 0.929 . S
H2397 C2407 0.929 . S
H2398 C2402 0.929 . S
H2399 C2408 0.929 . S
C2400 H2394 0.930 . S
C2400 C2401 1.367 . S
C2400 C2408 1.378 . S
C2401 C2400 1.367 . S
C2401 C2409 1.433 . S
C2402 H2398 0.929 . S
C2402 C2404 1.378 . S
C2402 C2406 1.350 . S
C2403 C2406 1.463 . S
C2403 C2408 1.350 . S
C2403 N2411 1.427 . S
C2404 H2395 0.930 . S
C2404 C2402 1.378 . S
C2404 C2405 1.367 . S
C2405 C2404 1.367 . S
C2405 C2407 1.433 . S
C2406 C2402 1.350 . S
C2406 C2403 1.463 . S
C2406 N2410 1.427 . S
C2407 H2397 0.929 . S
C2407 C2405 1.433 . S
C2407 N2410 1.384 . S
C2408 H2399 0.929 . S
C2408 C2400 1.378 . S
C2408 C2403 1.350 . S
C2409 H2396 0.929 . S
C2409 C2401 1.433 . S
C2409 N2411 1.384 . S
N2410 C2406 1.427 . S
N2410 C2407 1.384 . S
N2411 C2403 1.427 . S
N2411 C2409 1.384 . S
H2412 C2418 0.930 . S
H2413 C2422 0.930 . S
H2414 C2427 0.929 . S
H2415 C2425 0.929 . S
H2416 C2420 0.929 . S
H2417 C2426 0.929 . S
C2418 H2412 0.930 . S
C2418 C2419 1.367 . S
C2418 C2426 1.378 . S
C2419 C2418 1.367 . S
C2419 C2427 1.433 . S
C2420 H2416 0.929 . S
C2420 C2422 1.378 . S
C2420 C2424 1.350 . S
C2421 C2424 1.463 . S
C2421 C2426 1.350 . S
C2421 N2429 1.427 . S
C2422 H2413 0.930 . S
C2422 C2420 1.378 . S
C2422 C2423 1.367 . S
C2423 C2422 1.367 . S
C2423 C2425 1.433 . S
C2424 C2420 1.350 . S
C2424 C2421 1.463 . S
C2424 N2428 1.427 . S
C2425 H2415 0.929 . S
C2425 C2423 1.433 . S
C2425 N2428 1.384 . S
C2426 H2417 0.929 . S
C2426 C2418 1.378 . S
C2426 C2421 1.350 . S
C2427 H2414 0.929 . S
C2427 C2419 1.433 . S
C2427 N2429 1.384 . S
N2428 C2424 1.427 . S
N2428 C2425 1.384 . S
N2429 C2421 1.427 . S
N2429 C2427 1.384 . S
H2430 C2436 0.930 . S
H2431 C2440 0.930 . S
H2432 C2445 0.929 . S
H2433 C2443 0.929 . S
H2434 C2438 0.929 . S
H2435 C2444 0.929 . S
C2436 H2430 0.930 . S
C2436 C2437 1.367 . S
C2436 C2444 1.378 . S
C2437 C2436 1.367 . S
C2437 C2445 1.433 . S
C2438 H2434 0.929 . S
C2438 C2440 1.378 . S
C2438 C2442 1.350 . S
C2439 C2442 1.463 . S
C2439 C2444 1.350 . S
C2439 N2447 1.427 . S
C2440 H2431 0.930 . S
C2440 C2438 1.378 . S
C2440 C2441 1.367 . S
C2441 C2440 1.367 . S
C2441 C2443 1.433 . S
C2442 C2438 1.350 . S
C2442 C2439 1.463 . S
C2442 N2446 1.427 . S
C2443 H2433 0.929 . S
C2443 C2441 1.433 . S
C2443 N2446 1.384 . S
C2444 H2435 0.929 . S
C2444 C2436 1.378 . S
C2444 C2439 1.350 . S
C2445 H2432 0.929 . S
C2445 C2437 1.433 . S
C2445 N2447 1.384 . S
N2446 C2442 1.427 . S
N2446 C2443 1.384 . S
N2447 C2439 1.427 . S
N2447 C2445 1.384 . S
H2448 C2454 0.930 . S
H2449 C2458 0.930 . S
H2450 C2463 0.929 . S
H2451 C2461 0.929 . S
H2452 C2456 0.929 . S
H2453 C2462 0.929 . S
C2454 H2448 0.930 . S
C2454 C2455 1.367 . S
C2454 C2462 1.378 . S
C2455 C2454 1.367 . S
C2455 C2463 1.433 . S
C2456 H2452 0.929 . S
C2456 C2458 1.378 . S
C2456 C2460 1.350 . S
C2457 C2460 1.463 . S
C2457 C2462 1.350 . S
C2457 N2465 1.427 . S
C2458 H2449 0.930 . S
C2458 C2456 1.378 . S
C2458 C2459 1.367 . S
C2459 C2458 1.367 . S
C2459 C2461 1.433 . S
C2460 C2456 1.350 . S
C2460 C2457 1.463 . S
C2460 N2464 1.427 . S
C2461 H2451 0.929 . S
C2461 C2459 1.433 . S
C2461 N2464 1.384 . S
C2462 H2453 0.929 . S
C2462 C2454 1.378 . S
C2462 C2457 1.350 . S
C2463 H2450 0.929 . S
C2463 C2455 1.433 . S
C2463 N2465 1.384 . S
N2464 C2460 1.427 . S
N2464 C2461 1.384 . S
N2465 C2457 1.427 . S
N2465 C2463 1.384 . S
H2466 C2472 0.930 . S
H2467 C2476 0.930 . S
H2468 C2481 0.929 . S
H2469 C2479 0.929 . S
H2470 C2474 0.929 . S
H2471 C2480 0.929 . S
C2472 H2466 0.930 . S
C2472 C2473 1.367 . S
C2472 C2480 1.378 . S
C2473 C2472 1.367 . S
C2473 C2481 1.433 . S
C2474 H2470 0.929 . S
C2474 C2476 1.378 . S
C2474 C2478 1.350 . S
C2475 C2478 1.463 . S
C2475 C2480 1.350 . S
C2475 N2483 1.427 . S
C2476 H2467 0.930 . S
C2476 C2474 1.378 . S
C2476 C2477 1.367 . S
C2477 C2476 1.367 . S
C2477 C2479 1.433 . S
C2478 C2474 1.350 . S
C2478 C2475 1.463 . S
C2478 N2482 1.427 . S
C2479 H2469 0.929 . S
C2479 C2477 1.433 . S
C2479 N2482 1.384 . S
C2480 H2471 0.929 . S
C2480 C2472 1.378 . S
C2480 C2475 1.350 . S
C2481 H2468 0.929 . S
C2481 C2473 1.433 . S
C2481 N2483 1.384 . S
N2482 C2478 1.427 . S
N2482 C2479 1.384 . S
N2483 C2475 1.427 . S
N2483 C2481 1.384 . S
H2484 C2490 0.930 . S
H2485 C2494 0.930 . S
H2486 C2499 0.929 . S
H2487 C2497 0.929 . S
H2488 C2492 0.929 . S
H2489 C2498 0.929 . S
C2490 H2484 0.930 . S
C2490 C2491 1.367 . S
C2490 C2498 1.378 . S
C2491 C2490 1.367 . S
C2491 C2499 1.433 . S
C2492 H2488 0.929 . S
C2492 C2494 1.378 . S
C2492 C2496 1.350 . S
C2493 C2496 1.463 . S
C2493 C2498 1.350 . S
C2493 N2501 1.427 . S
C2494 H2485 0.930 . S
C2494 C2492 1.378 . S
C2494 C2495 1.367 . S
C2495 C2494 1.367 . S
C2495 C2497 1.433 . S
C2496 C2492 1.350 . S
C2496 C2493 1.463 . S
C2496 N2500 1.427 . S
C2497 H2487 0.929 . S
C2497 C2495 1.433 . S
C2497 N2500 1.384 . S
C2498 H2489 0.929 . S
C2498 C2490 1.378 . S
C2498 C2493 1.350 . S
C2499 H2486 0.929 . S
C2499 C2491 1.433 . S
C2499 N2501 1.384 . S
N2500 C2496 1.427 . S
N2500 C2497 1.384 . S
N2501 C2493 1.427 . S
N2501 C2499 1.384 . S
H2502 C2508 0.930 . S
H2503 C2512 0.930 . S
H2504 C2517 0.929 . S
H2505 C2515 0.929 . S
H2506 C2510 0.929 . S
H2507 C2516 0.929 . S
C2508 H2502 0.930 . S
C2508 C2509 1.367 . S
C2508 C2516 1.378 . S
C2509 C2508 1.367 . S
C2509 C2517 1.433 . S
C2510 H2506 0.929 . S
C2510 C2512 1.378 . S
C2510 C2514 1.350 . S
C2511 C2514 1.463 . S
C2511 C2516 1.350 . S
C2511 N2519 1.427 . S
C2512 H2503 0.930 . S
C2512 C2510 1.378 . S
C2512 C2513 1.367 . S
C2513 C2512 1.367 . S
C2513 C2515 1.433 . S
C2514 C2510 1.350 . S
C2514 C2511 1.463 . S
C2514 N2518 1.427 . S
C2515 H2505 0.929 . S
C2515 C2513 1.433 . S
C2515 N2518 1.384 . S
C2516 H2507 0.929 . S
C2516 C2508 1.378 . S
C2516 C2511 1.350 . S
C2517 H2504 0.929 . S
C2517 C2509 1.433 . S
C2517 N2519 1.384 . S
N2518 C2514 1.427 . S
N2518 C2515 1.384 . S
N2519 C2511 1.427 . S
N2519 C2517 1.384 . S
H2520 C2526 0.930 . S
H2521 C2530 0.930 . S
H2522 C2535 0.929 . S
H2523 C2533 0.929 . S
H2524 C2528 0.929 . S
H2525 C2534 0.929 . S
C2526 H2520 0.930 . S
C2526 C2527 1.367 . S
C2526 C2534 1.378 . S
C2527 C2526 1.367 . S
C2527 C2535 1.433 . S
C2528 H2524 0.929 . S
C2528 C2530 1.378 . S
C2528 C2532 1.350 . S
C2529 C2532 1.463 . S
C2529 C2534 1.350 . S
C2529 N2537 1.427 . S
C2530 H2521 0.930 . S
C2530 C2528 1.378 . S
C2530 C2531 1.367 . S
C2531 C2530 1.367 . S
C2531 C2533 1.433 . S
C2532 C2528 1.350 . S
C2532 C2529 1.463 . S
C2532 N2536 1.427 . S
C2533 H2523 0.929 . S
C2533 C2531 1.433 . S
C2533 N2536 1.384 . S
C2534 H2525 0.929 . S
C2534 C2526 1.378 . S
C2534 C2529 1.350 . S
C2535 H2522 0.929 . S
C2535 C2527 1.433 . S
C2535 N2537 1.384 . S
N2536 C2532 1.427 . S
N2536 C2533 1.384 . S
N2537 C2529 1.427 . S
N2537 C2535 1.384 . S
H2538 C2544 0.930 . S
H2539 C2548 0.930 . S
H2540 C2553 0.929 . S
H2541 C2551 0.929 . S
H2542 C2546 0.929 . S
H2543 C2552 0.929 . S
C2544 H2538 0.930 . S
C2544 C2545 1.367 . S
C2544 C2552 1.378 . S
C2545 C2544 1.367 . S
C2545 C2553 1.433 . S
C2546 H2542 0.929 . S
C2546 C2548 1.378 . S
C2546 C2550 1.350 . S
C2547 C2550 1.463 . S
C2547 C2552 1.350 . S
C2547 N2555 1.427 . S
C2548 H2539 0.930 . S
C2548 C2546 1.378 . S
C2548 C2549 1.367 . S
C2549 C2548 1.367 . S
C2549 C2551 1.433 . S
C2550 C2546 1.350 . S
C2550 C2547 1.463 . S
C2550 N2554 1.427 . S
C2551 H2541 0.929 . S
C2551 C2549 1.433 . S
C2551 N2554 1.384 . S
C2552 H2543 0.929 . S
C2552 C2544 1.378 . S
C2552 C2547 1.350 . S
C2553 H2540 0.929 . S
C2553 C2545 1.433 . S
C2553 N2555 1.384 . S
N2554 C2550 1.427 . S
N2554 C2551 1.384 . S
N2555 C2547 1.427 . S
N2555 C2553 1.384 . S
H2556 C2562 0.930 . S
H2557 C2566 0.930 . S
H2558 C2571 0.929 . S
H2559 C2569 0.929 . S
H2560 C2564 0.929 . S
H2561 C2570 0.929 . S
C2562 H2556 0.930 . S
C2562 C2563 1.367 . S
C2562 C2570 1.378 . S
C2563 C2562 1.367 . S
C2563 C2571 1.433 . S
C2564 H2560 0.929 . S
C2564 C2566 1.378 . S
C2564 C2568 1.350 . S
C2565 C2568 1.463 . S
C2565 C2570 1.350 . S
C2565 N2573 1.427 . S
C2566 H2557 0.930 . S
C2566 C2564 1.378 . S
C2566 C2567 1.367 . S
C2567 C2566 1.367 . S
C2567 C2569 1.433 . S
C2568 C2564 1.350 . S
C2568 C2565 1.463 . S
C2568 N2572 1.427 . S
C2569 H2559 0.929 . S
C2569 C2567 1.433 . S
C2569 N2572 1.384 . S
C2570 H2561 0.929 . S
C2570 C2562 1.378 . S
C2570 C2565 1.350 . S
C2571 H2558 0.929 . S
C2571 C2563 1.433 . S
C2571 N2573 1.384 . S
N2572 C2568 1.427 . S
N2572 C2569 1.384 . S
N2573 C2565 1.427 . S
N2573 C2571 1.384 . S
H2574 C2580 0.930 . S
H2575 C2584 0.930 . S
H2576 C2589 0.929 . S
H2577 C2587 0.929 . S
H2578 C2582 0.929 . S
H2579 C2588 0.929 . S
C2580 H2574 0.930 . S
C2580 C2581 1.367 . S
C2580 C2588 1.378 . S
C2581 C2580 1.367 . S
C2581 C2589 1.433 . S
C2582 H2578 0.929 . S
C2582 C2584 1.378 . S
C2582 C2586 1.350 . S
C2583 C2586 1.463 . S
C2583 C2588 1.350 . S
C2583 N2591 1.427 . S
C2584 H2575 0.930 . S
C2584 C2582 1.378 . S
C2584 C2585 1.367 . S
C2585 C2584 1.367 . S
C2585 C2587 1.433 . S
C2586 C2582 1.350 . S
C2586 C2583 1.463 . S
C2586 N2590 1.427 . S
C2587 H2577 0.929 . S
C2587 C2585 1.433 . S
C2587 N2590 1.384 . S
C2588 H2579 0.929 . S
C2588 C2580 1.378 . S
C2588 C2583 1.350 . S
C2589 H2576 0.929 . S
C2589 C2581 1.433 . S
C2589 N2591 1.384 . S
N2590 C2586 1.427 . S
N2590 C2587 1.384 . S
N2591 C2583 1.427 . S
N2591 C2589 1.384 . S
H2592 C2598 0.930 . S
H2593 C2602 0.930 . S
H2594 C2607 0.929 . S
H2595 C2605 0.929 . S
H2596 C2600 0.929 . S
H2597 C2606 0.929 . S
C2598 H2592 0.930 . S
C2598 C2599 1.367 . S
C2598 C2606 1.378 . S
C2599 C2598 1.367 . S
C2599 C2607 1.433 . S
C2600 H2596 0.929 . S
C2600 C2602 1.378 . S
C2600 C2604 1.350 . S
C2601 C2604 1.463 . S
C2601 C2606 1.350 . S
C2601 N2609 1.427 . S
C2602 H2593 0.930 . S
C2602 C2600 1.378 . S
C2602 C2603 1.367 . S
C2603 C2602 1.367 . S
C2603 C2605 1.433 . S
C2604 C2600 1.350 . S
C2604 C2601 1.463 . S
C2604 N2608 1.427 . S
C2605 H2595 0.929 . S
C2605 C2603 1.433 . S
C2605 N2608 1.384 . S
C2606 H2597 0.929 . S
C2606 C2598 1.378 . S
C2606 C2601 1.350 . S
C2607 H2594 0.929 . S
C2607 C2599 1.433 . S
C2607 N2609 1.384 . S
N2608 C2604 1.427 . S
N2608 C2605 1.384 . S
N2609 C2601 1.427 . S
N2609 C2607 1.384 . S
H2610 C2616 0.930 . S
H2611 C2620 0.930 . S
H2612 C2625 0.929 . S
H2613 C2623 0.929 . S
H2614 C2618 0.929 . S
H2615 C2624 0.929 . S
C2616 H2610 0.930 . S
C2616 C2617 1.367 . S
C2616 C2624 1.378 . S
C2617 C2616 1.367 . S
C2617 C2625 1.433 . S
C2618 H2614 0.929 . S
C2618 C2620 1.378 . S
C2618 C2622 1.350 . S
C2619 C2622 1.463 . S
C2619 C2624 1.350 . S
C2619 N2627 1.427 . S
C2620 H2611 0.930 . S
C2620 C2618 1.378 . S
C2620 C2621 1.367 . S
C2621 C2620 1.367 . S
C2621 C2623 1.433 . S
C2622 C2618 1.350 . S
C2622 C2619 1.463 . S
C2622 N2626 1.427 . S
C2623 H2613 0.929 . S
C2623 C2621 1.433 . S
C2623 N2626 1.384 . S
C2624 H2615 0.929 . S
C2624 C2616 1.378 . S
C2624 C2619 1.350 . S
C2625 H2612 0.929 . S
C2625 C2617 1.433 . S
C2625 N2627 1.384 . S
N2626 C2622 1.427 . S
N2626 C2623 1.384 . S
N2627 C2619 1.427 . S
N2627 C2625 1.384 . S
H2628 C2634 0.930 . S
H2629 C2638 0.930 . S
H2630 C2643 0.929 . S
H2631 C2641 0.929 . S
H2632 C2636 0.929 . S
H2633 C2642 0.929 . S
C2634 H2628 0.930 . S
C2634 C2635 1.367 . S
C2634 C2642 1.378 . S
C2635 C2634 1.367 . S
C2635 C2643 1.433 . S
C2636 H2632 0.929 . S
C2636 C2638 1.378 . S
C2636 C2640 1.350 . S
C2637 C2640 1.463 . S
C2637 C2642 1.350 . S
C2637 N2645 1.427 . S
C2638 H2629 0.930 . S
C2638 C2636 1.378 . S
C2638 C2639 1.367 . S
C2639 C2638 1.367 . S
C2639 C2641 1.433 . S
C2640 C2636 1.350 . S
C2640 C2637 1.463 . S
C2640 N2644 1.427 . S
C2641 H2631 0.929 . S
C2641 C2639 1.433 . S
C2641 N2644 1.384 . S
C2642 H2633 0.929 . S
C2642 C2634 1.378 . S
C2642 C2637 1.350 . S
C2643 H2630 0.929 . S
C2643 C2635 1.433 . S
C2643 N2645 1.384 . S
N2644 C2640 1.427 . S
N2644 C2641 1.384 . S
N2645 C2637 1.427 . S
N2645 C2643 1.384 . S
H2646 C2652 0.930 . S
H2647 C2656 0.930 . S
H2648 C2661 0.929 . S
H2649 C2659 0.929 . S
H2650 C2654 0.929 . S
H2651 C2660 0.929 . S
C2652 H2646 0.930 . S
C2652 C2653 1.367 . S
C2652 C2660 1.378 . S
C2653 C2652 1.367 . S
C2653 C2661 1.433 . S
C2654 H2650 0.929 . S
C2654 C2656 1.378 . S
C2654 C2658 1.350 . S
C2655 C2658 1.463 . S
C2655 C2660 1.350 . S
C2655 N2663 1.427 . S
C2656 H2647 0.930 . S
C2656 C2654 1.378 . S
C2656 C2657 1.367 . S
C2657 C2656 1.367 . S
C2657 C2659 1.433 . S
C2658 C2654 1.350 . S
C2658 C2655 1.463 . S
C2658 N2662 1.427 . S
C2659 H2649 0.929 . S
C2659 C2657 1.433 . S
C2659 N2662 1.384 . S
C2660 H2651 0.929 . S
C2660 C2652 1.378 . S
C2660 C2655 1.350 . S
C2661 H2648 0.929 . S
C2661 C2653 1.433 . S
C2661 N2663 1.384 . S
N2662 C2658 1.427 . S
N2662 C2659 1.384 . S
N2663 C2655 1.427 . S
N2663 C2661 1.384 . S
H2664 C2670 0.930 . S
H2665 C2674 0.930 . S
H2666 C2679 0.929 . S
H2667 C2677 0.929 . S
H2668 C2672 0.929 . S
H2669 C2678 0.929 . S
C2670 H2664 0.930 . S
C2670 C2671 1.367 . S
C2670 C2678 1.378 . S
C2671 C2670 1.367 . S
C2671 C2679 1.433 . S
C2672 H2668 0.929 . S
C2672 C2674 1.378 . S
C2672 C2676 1.350 . S
C2673 C2676 1.463 . S
C2673 C2678 1.350 . S
C2673 N2681 1.427 . S
C2674 H2665 0.930 . S
C2674 C2672 1.378 . S
C2674 C2675 1.367 . S
C2675 C2674 1.367 . S
C2675 C2677 1.433 . S
C2676 C2672 1.350 . S
C2676 C2673 1.463 . S
C2676 N2680 1.427 . S
C2677 H2667 0.929 . S
C2677 C2675 1.433 . S
C2677 N2680 1.384 . S
C2678 H2669 0.929 . S
C2678 C2670 1.378 . S
C2678 C2673 1.350 . S
C2679 H2666 0.929 . S
C2679 C2671 1.433 . S
C2679 N2681 1.384 . S
N2680 C2676 1.427 . S
N2680 C2677 1.384 . S
N2681 C2673 1.427 . S
N2681 C2679 1.384 . S
H2682 C2688 0.930 . S
H2683 C2692 0.930 . S
H2684 C2697 0.929 . S
H2685 C2695 0.929 . S
H2686 C2690 0.929 . S
H2687 C2696 0.929 . S
C2688 H2682 0.930 . S
C2688 C2689 1.367 . S
C2688 C2696 1.378 . S
C2689 C2688 1.367 . S
C2689 C2697 1.433 . S
C2690 H2686 0.929 . S
C2690 C2692 1.378 . S
C2690 C2694 1.350 . S
C2691 C2694 1.463 . S
C2691 C2696 1.350 . S
C2691 N2699 1.427 . S
C2692 H2683 0.930 . S
C2692 C2690 1.378 . S
C2692 C2693 1.367 . S
C2693 C2692 1.367 . S
C2693 C2695 1.433 . S
C2694 C2690 1.350 . S
C2694 C2691 1.463 . S
C2694 N2698 1.427 . S
C2695 H2685 0.929 . S
C2695 C2693 1.433 . S
C2695 N2698 1.384 . S
C2696 H2687 0.929 . S
C2696 C2688 1.378 . S
C2696 C2691 1.350 . S
C2697 H2684 0.929 . S
C2697 C2689 1.433 . S
C2697 N2699 1.384 . S
N2698 C2694 1.427 . S
N2698 C2695 1.384 . S
N2699 C2691 1.427 . S
N2699 C2697 1.384 . S
H2700 C2706 0.930 . S
H2701 C2710 0.930 . S
H2702 C2715 0.929 . S
H2703 C2713 0.929 . S
H2704 C2708 0.929 . S
H2705 C2714 0.929 . S
C2706 H2700 0.930 . S
C2706 C2707 1.367 . S
C2706 C2714 1.378 . S
C2707 C2706 1.367 . S
C2707 C2715 1.433 . S
C2708 H2704 0.929 . S
C2708 C2710 1.378 . S
C2708 C2712 1.350 . S
C2709 C2712 1.463 . S
C2709 C2714 1.350 . S
C2709 N2717 1.427 . S
C2710 H2701 0.930 . S
C2710 C2708 1.378 . S
C2710 C2711 1.367 . S
C2711 C2710 1.367 . S
C2711 C2713 1.433 . S
C2712 C2708 1.350 . S
C2712 C2709 1.463 . S
C2712 N2716 1.427 . S
C2713 H2703 0.929 . S
C2713 C2711 1.433 . S
C2713 N2716 1.384 . S
C2714 H2705 0.929 . S
C2714 C2706 1.378 . S
C2714 C2709 1.350 . S
C2715 H2702 0.929 . S
C2715 C2707 1.433 . S
C2715 N2717 1.384 . S
N2716 C2712 1.427 . S
N2716 C2713 1.384 . S
N2717 C2709 1.427 . S
N2717 C2715 1.384 . S
H2718 C2724 0.930 . S
H2719 C2728 0.930 . S
H2720 C2733 0.929 . S
H2721 C2731 0.929 . S
H2722 C2726 0.929 . S
H2723 C2732 0.929 . S
C2724 H2718 0.930 . S
C2724 C2725 1.367 . S
C2724 C2732 1.378 . S
C2725 C2724 1.367 . S
C2725 C2733 1.433 . S
C2726 H2722 0.929 . S
C2726 C2728 1.378 . S
C2726 C2730 1.350 . S
C2727 C2730 1.463 . S
C2727 C2732 1.350 . S
C2727 N2735 1.427 . S
C2728 H2719 0.930 . S
C2728 C2726 1.378 . S
C2728 C2729 1.367 . S
C2729 C2728 1.367 . S
C2729 C2731 1.433 . S
C2730 C2726 1.350 . S
C2730 C2727 1.463 . S
C2730 N2734 1.427 . S
C2731 H2721 0.929 . S
C2731 C2729 1.433 . S
C2731 N2734 1.384 . S
C2732 H2723 0.929 . S
C2732 C2724 1.378 . S
C2732 C2727 1.350 . S
C2733 H2720 0.929 . S
C2733 C2725 1.433 . S
C2733 N2735 1.384 . S
N2734 C2730 1.427 . S
N2734 C2731 1.384 . S
N2735 C2727 1.427 . S
N2735 C2733 1.384 . S
H2736 C2742 0.930 . S
H2737 C2746 0.930 . S
H2738 C2751 0.929 . S
H2739 C2749 0.929 . S
H2740 C2744 0.929 . S
H2741 C2750 0.929 . S
C2742 H2736 0.930 . S
C2742 C2743 1.367 . S
C2742 C2750 1.378 . S
C2743 C2742 1.367 . S
C2743 C2751 1.433 . S
C2744 H2740 0.929 . S
C2744 C2746 1.378 . S
C2744 C2748 1.350 . S
C2745 C2748 1.463 . S
C2745 C2750 1.350 . S
C2745 N2753 1.427 . S
C2746 H2737 0.930 . S
C2746 C2744 1.378 . S
C2746 C2747 1.367 . S
C2747 C2746 1.367 . S
C2747 C2749 1.433 . S
C2748 C2744 1.350 . S
C2748 C2745 1.463 . S
C2748 N2752 1.427 . S
C2749 H2739 0.929 . S
C2749 C2747 1.433 . S
C2749 N2752 1.384 . S
C2750 H2741 0.929 . S
C2750 C2742 1.378 . S
C2750 C2745 1.350 . S
C2751 H2738 0.929 . S
C2751 C2743 1.433 . S
C2751 N2753 1.384 . S
N2752 C2748 1.427 . S
N2752 C2749 1.384 . S
N2753 C2745 1.427 . S
N2753 C2751 1.384 . S
H2754 C2760 0.930 . S
H2755 C2764 0.930 . S
H2756 C2769 0.929 . S
H2757 C2767 0.929 . S
H2758 C2762 0.929 . S
H2759 C2768 0.929 . S
C2760 H2754 0.930 . S
C2760 C2761 1.367 . S
C2760 C2768 1.378 . S
C2761 C2760 1.367 . S
C2761 C2769 1.433 . S
C2762 H2758 0.929 . S
C2762 C2764 1.378 . S
C2762 C2766 1.350 . S
C2763 C2766 1.463 . S
C2763 C2768 1.350 . S
C2763 N2771 1.427 . S
C2764 H2755 0.930 . S
C2764 C2762 1.378 . S
C2764 C2765 1.367 . S
C2765 C2764 1.367 . S
C2765 C2767 1.433 . S
C2766 C2762 1.350 . S
C2766 C2763 1.463 . S
C2766 N2770 1.427 . S
C2767 H2757 0.929 . S
C2767 C2765 1.433 . S
C2767 N2770 1.384 . S
C2768 H2759 0.929 . S
C2768 C2760 1.378 . S
C2768 C2763 1.350 . S
C2769 H2756 0.929 . S
C2769 C2761 1.433 . S
C2769 N2771 1.384 . S
N2770 C2766 1.427 . S
N2770 C2767 1.384 . S
N2771 C2763 1.427 . S
N2771 C2769 1.384 . S
H2772 C2778 0.930 . S
H2773 C2782 0.930 . S
H2774 C2787 0.929 . S
H2775 C2785 0.929 . S
H2776 C2780 0.929 . S
H2777 C2786 0.929 . S
C2778 H2772 0.930 . S
C2778 C2779 1.367 . S
C2778 C2786 1.378 . S
C2779 C2778 1.367 . S
C2779 C2787 1.433 . S
C2780 H2776 0.929 . S
C2780 C2782 1.378 . S
C2780 C2784 1.350 . S
C2781 C2784 1.463 . S
C2781 C2786 1.350 . S
C2781 N2789 1.427 . S
C2782 H2773 0.930 . S
C2782 C2780 1.378 . S
C2782 C2783 1.367 . S
C2783 C2782 1.367 . S
C2783 C2785 1.433 . S
C2784 C2780 1.350 . S
C2784 C2781 1.463 . S
C2784 N2788 1.427 . S
C2785 H2775 0.929 . S
C2785 C2783 1.433 . S
C2785 N2788 1.384 . S
C2786 H2777 0.929 . S
C2786 C2778 1.378 . S
C2786 C2781 1.350 . S
C2787 H2774 0.929 . S
C2787 C2779 1.433 . S
C2787 N2789 1.384 . S
N2788 C2784 1.427 . S
N2788 C2785 1.384 . S
N2789 C2781 1.427 . S
N2789 C2787 1.384 . S
H2790 C2796 0.930 . S
H2791 C2800 0.930 . S
H2792 C2805 0.929 . S
H2793 C2803 0.929 . S
H2794 C2798 0.929 . S
H2795 C2804 0.929 . S
C2796 H2790 0.930 . S
C2796 C2797 1.367 . S
C2796 C2804 1.378 . S
C2797 C2796 1.367 . S
C2797 C2805 1.433 . S
C2798 H2794 0.929 . S
C2798 C2800 1.378 . S
C2798 C2802 1.350 . S
C2799 C2802 1.463 . S
C2799 C2804 1.350 . S
C2799 N2807 1.427 . S
C2800 H2791 0.930 . S
C2800 C2798 1.378 . S
C2800 C2801 1.367 . S
C2801 C2800 1.367 . S
C2801 C2803 1.433 . S
C2802 C2798 1.350 . S
C2802 C2799 1.463 . S
C2802 N2806 1.427 . S
C2803 H2793 0.929 . S
C2803 C2801 1.433 . S
C2803 N2806 1.384 . S
C2804 H2795 0.929 . S
C2804 C2796 1.378 . S
C2804 C2799 1.350 . S
C2805 H2792 0.929 . S
C2805 C2797 1.433 . S
C2805 N2807 1.384 . S
N2806 C2802 1.427 . S
N2806 C2803 1.384 . S
N2807 C2799 1.427 . S
N2807 C2805 1.384 . S
H2808 C2814 0.930 . S
H2809 C2818 0.930 . S
H2810 C2823 0.929 . S
H2811 C2821 0.929 . S
H2812 C2816 0.929 . S
H2813 C2822 0.929 . S
C2814 H2808 0.930 . S
C2814 C2815 1.367 . S
C2814 C2822 1.378 . S
C2815 C2814 1.367 . S
C2815 C2823 1.433 . S
C2816 H2812 0.929 . S
C2816 C2818 1.378 . S
C2816 C2820 1.350 . S
C2817 C2820 1.463 . S
C2817 C2822 1.350 . S
C2817 N2825 1.427 . S
C2818 H2809 0.930 . S
C2818 C2816 1.378 . S
C2818 C2819 1.367 . S
C2819 C2818 1.367 . S
C2819 C2821 1.433 . S
C2820 C2816 1.350 . S
C2820 C2817 1.463 . S
C2820 N2824 1.427 . S
C2821 H2811 0.929 . S
C2821 C2819 1.433 . S
C2821 N2824 1.384 . S
C2822 H2813 0.929 . S
C2822 C2814 1.378 . S
C2822 C2817 1.350 . S
C2823 H2810 0.929 . S
C2823 C2815 1.433 . S
C2823 N2825 1.384 . S
N2824 C2820 1.427 . S
N2824 C2821 1.384 . S
N2825 C2817 1.427 . S
N2825 C2823 1.384 . S
H2826 C2832 0.930 . S
H2827 C2836 0.930 . S
H2828 C2841 0.929 . S
H2829 C2839 0.929 . S
H2830 C2834 0.929 . S
H2831 C2840 0.929 . S
C2832 H2826 0.930 . S
C2832 C2833 1.367 . S
C2832 C2840 1.378 . S
C2833 C2832 1.367 . S
C2833 C2841 1.433 . S
C2834 H2830 0.929 . S
C2834 C2836 1.378 . S
C2834 C2838 1.350 . S
C2835 C2838 1.463 . S
C2835 C2840 1.350 . S
C2835 N2843 1.427 . S
C2836 H2827 0.930 . S
C2836 C2834 1.378 . S
C2836 C2837 1.367 . S
C2837 C2836 1.367 . S
C2837 C2839 1.433 . S
C2838 C2834 1.350 . S
C2838 C2835 1.463 . S
C2838 N2842 1.427 . S
C2839 H2829 0.929 . S
C2839 C2837 1.433 . S
C2839 N2842 1.384 . S
C2840 H2831 0.929 . S
C2840 C2832 1.378 . S
C2840 C2835 1.350 . S
C2841 H2828 0.929 . S
C2841 C2833 1.433 . S
C2841 N2843 1.384 . S
N2842 C2838 1.427 . S
N2842 C2839 1.384 . S
N2843 C2835 1.427 . S
N2843 C2841 1.384 . S
H2844 C2850 0.930 . S
H2845 C2854 0.930 . S
H2846 C2859 0.929 . S
H2847 C2857 0.929 . S
H2848 C2852 0.929 . S
H2849 C2858 0.929 . S
C2850 H2844 0.930 . S
C2850 C2851 1.367 . S
C2850 C2858 1.378 . S
C2851 C2850 1.367 . S
C2851 C2859 1.433 . S
C2852 H2848 0.929 . S
C2852 C2854 1.378 . S
C2852 C2856 1.350 . S
C2853 C2856 1.463 . S
C2853 C2858 1.350 . S
C2853 N2861 1.427 . S
C2854 H2845 0.930 . S
C2854 C2852 1.378 . S
C2854 C2855 1.367 . S
C2855 C2854 1.367 . S
C2855 C2857 1.433 . S
C2856 C2852 1.350 . S
C2856 C2853 1.463 . S
C2856 N2860 1.427 . S
C2857 H2847 0.929 . S
C2857 C2855 1.433 . S
C2857 N2860 1.384 . S
C2858 H2849 0.929 . S
C2858 C2850 1.378 . S
C2858 C2853 1.350 . S
C2859 H2846 0.929 . S
C2859 C2851 1.433 . S
C2859 N2861 1.384 . S
N2860 C2856 1.427 . S
N2860 C2857 1.384 . S
N2861 C2853 1.427 . S
N2861 C2859 1.384 . S
H2862 C2868 0.930 . S
H2863 C2872 0.930 . S
H2864 C2877 0.929 . S
H2865 C2875 0.929 . S
H2866 C2870 0.929 . S
H2867 C2876 0.929 . S
C2868 H2862 0.930 . S
C2868 C2869 1.367 . S
C2868 C2876 1.378 . S
C2869 C2868 1.367 . S
C2869 C2877 1.433 . S
C2870 H2866 0.929 . S
C2870 C2872 1.378 . S
C2870 C2874 1.350 . S
C2871 C2874 1.463 . S
C2871 C2876 1.350 . S
C2871 N2879 1.427 . S
C2872 H2863 0.930 . S
C2872 C2870 1.378 . S
C2872 C2873 1.367 . S
C2873 C2872 1.367 . S
C2873 C2875 1.433 . S
C2874 C2870 1.350 . S
C2874 C2871 1.463 . S
C2874 N2878 1.427 . S
C2875 H2865 0.929 . S
C2875 C2873 1.433 . S
C2875 N2878 1.384 . S
C2876 H2867 0.929 . S
C2876 C2868 1.378 . S
C2876 C2871 1.350 . S
C2877 H2864 0.929 . S
C2877 C2869 1.433 . S
C2877 N2879 1.384 . S
N2878 C2874 1.427 . S
N2878 C2875 1.384 . S
N2879 C2871 1.427 . S
N2879 C2877 1.384 . S
H2880 C2886 0.930 . S
H2881 C2890 0.930 . S
H2882 C2895 0.929 . S
H2883 C2893 0.929 . S
H2884 C2888 0.929 . S
H2885 C2894 0.929 . S
C2886 H2880 0.930 . S
C2886 C2887 1.367 . S
C2886 C2894 1.378 . S
C2887 C2886 1.367 . S
C2887 C2895 1.433 . S
C2888 H2884 0.929 . S
C2888 C2890 1.378 . S
C2888 C2892 1.350 . S
C2889 C2892 1.463 . S
C2889 C2894 1.350 . S
C2889 N2897 1.427 . S
C2890 H2881 0.930 . S
C2890 C2888 1.378 . S
C2890 C2891 1.367 . S
C2891 C2890 1.367 . S
C2891 C2893 1.433 . S
C2892 C2888 1.350 . S
C2892 C2889 1.463 . S
C2892 N2896 1.427 . S
C2893 H2883 0.929 . S
C2893 C2891 1.433 . S
C2893 N2896 1.384 . S
C2894 H2885 0.929 . S
C2894 C2886 1.378 . S
C2894 C2889 1.350 . S
C2895 H2882 0.929 . S
C2895 C2887 1.433 . S
C2895 N2897 1.384 . S
N2896 C2892 1.427 . S
N2896 C2893 1.384 . S
N2897 C2889 1.427 . S
N2897 C2895 1.384 . S
H2898 C2904 0.930 . S
H2899 C2908 0.930 . S
H2900 C2913 0.929 . S
H2901 C2911 0.929 . S
H2902 C2906 0.929 . S
H2903 C2912 0.929 . S
C2904 H2898 0.930 . S
C2904 C2905 1.367 . S
C2904 C2912 1.378 . S
C2905 C2904 1.367 . S
C2905 C2913 1.433 . S
C2906 H2902 0.929 . S
C2906 C2908 1.378 . S
C2906 C2910 1.350 . S
C2907 C2910 1.463 . S
C2907 C2912 1.350 . S
C2907 N2915 1.427 . S
C2908 H2899 0.930 . S
C2908 C2906 1.378 . S
C2908 C2909 1.367 . S
C2909 C2908 1.367 . S
C2909 C2911 1.433 . S
C2910 C2906 1.350 . S
C2910 C2907 1.463 . S
C2910 N2914 1.427 . S
C2911 H2901 0.929 . S
C2911 C2909 1.433 . S
C2911 N2914 1.384 . S
C2912 H2903 0.929 . S
C2912 C2904 1.378 . S
C2912 C2907 1.350 . S
C2913 H2900 0.929 . S
C2913 C2905 1.433 . S
C2913 N2915 1.384 . S
N2914 C2910 1.427 . S
N2914 C2911 1.384 . S
N2915 C2907 1.427 . S
N2915 C2913 1.384 . S
H2916 C2922 0.930 . S
H2917 C2926 0.930 . S
H2918 C2931 0.929 . S
H2919 C2929 0.929 . S
H2920 C2924 0.929 . S
H2921 C2930 0.929 . S
C2922 H2916 0.930 . S
C2922 C2923 1.367 . S
C2922 C2930 1.378 . S
C2923 C2922 1.367 . S
C2923 C2931 1.433 . S
C2924 H2920 0.929 . S
C2924 C2926 1.378 . S
C2924 C2928 1.350 . S
C2925 C2928 1.463 . S
C2925 C2930 1.350 . S
C2925 N2933 1.427 . S
C2926 H2917 0.930 . S
C2926 C2924 1.378 . S
C2926 C2927 1.367 . S
C2927 C2926 1.367 . S
C2927 C2929 1.433 . S
C2928 C2924 1.350 . S
C2928 C2925 1.463 . S
C2928 N2932 1.427 . S
C2929 H2919 0.929 . S
C2929 C2927 1.433 . S
C2929 N2932 1.384 . S
C2930 H2921 0.929 . S
C2930 C2922 1.378 . S
C2930 C2925 1.350 . S
C2931 H2918 0.929 . S
C2931 C2923 1.433 . S
C2931 N2933 1.384 . S
N2932 C2928 1.427 . S
N2932 C2929 1.384 . S
N2933 C2925 1.427 . S
N2933 C2931 1.384 . S
H2934 C2940 0.930 . S
H2935 C2944 0.930 . S
H2936 C2949 0.929 . S
H2937 C2947 0.929 . S
H2938 C2942 0.929 . S
H2939 C2948 0.929 . S
C2940 H2934 0.930 . S
C2940 C2941 1.367 . S
C2940 C2948 1.378 . S
C2941 C2940 1.367 . S
C2941 C2949 1.433 . S
C2942 H2938 0.929 . S
C2942 C2944 1.378 . S
C2942 C2946 1.350 . S
C2943 C2946 1.463 . S
C2943 C2948 1.350 . S
C2943 N2951 1.427 . S
C2944 H2935 0.930 . S
C2944 C2942 1.378 . S
C2944 C2945 1.367 . S
C2945 C2944 1.367 . S
C2945 C2947 1.433 . S
C2946 C2942 1.350 . S
C2946 C2943 1.463 . S
C2946 N2950 1.427 . S
C2947 H2937 0.929 . S
C2947 C2945 1.433 . S
C2947 N2950 1.384 . S
C2948 H2939 0.929 . S
C2948 C2940 1.378 . S
C2948 C2943 1.350 . S
C2949 H2936 0.929 . S
C2949 C2941 1.433 . S
C2949 N2951 1.384 . S
N2950 C2946 1.427 . S
N2950 C2947 1.384 . S
N2951 C2943 1.427 . S
N2951 C2949 1.384 . S
H2952 C2958 0.930 . S
H2953 C2962 0.930 . S
H2954 C2967 0.929 . S
H2955 C2965 0.929 . S
H2956 C2960 0.929 . S
H2957 C2966 0.929 . S
C2958 H2952 0.930 . S
C2958 C2959 1.367 . S
C2958 C2966 1.378 . S
C2959 C2958 1.367 . S
C2959 C2967 1.433 . S
C2960 H2956 0.929 . S
C2960 C2962 1.378 . S
C2960 C2964 1.350 . S
C2961 C2964 1.463 . S
C2961 C2966 1.350 . S
C2961 N2969 1.427 . S
C2962 H2953 0.930 . S
C2962 C2960 1.378 . S
C2962 C2963 1.367 . S
C2963 C2962 1.367 . S
C2963 C2965 1.433 . S
C2964 C2960 1.350 . S
C2964 C2961 1.463 . S
C2964 N2968 1.427 . S
C2965 H2955 0.929 . S
C2965 C2963 1.433 . S
C2965 N2968 1.384 . S
C2966 H2957 0.929 . S
C2966 C2958 1.378 . S
C2966 C2961 1.350 . S
C2967 H2954 0.929 . S
C2967 C2959 1.433 . S
C2967 N2969 1.384 . S
N2968 C2964 1.427 . S
N2968 C2965 1.384 . S
N2969 C2961 1.427 . S
N2969 C2967 1.384 . S
H2970 C2976 0.930 . S
H2971 C2980 0.930 . S
H2972 C2985 0.929 . S
H2973 C2983 0.929 . S
H2974 C2978 0.929 . S
H2975 C2984 0.929 . S
C2976 H2970 0.930 . S
C2976 C2977 1.367 . S
C2976 C2984 1.378 . S
C2977 C2976 1.367 . S
C2977 C2985 1.433 . S
C2978 H2974 0.929 . S
C2978 C2980 1.378 . S
C2978 C2982 1.350 . S
C2979 C2982 1.463 . S
C2979 C2984 1.350 . S
C2979 N2987 1.427 . S
C2980 H2971 0.930 . S
C2980 C2978 1.378 . S
C2980 C2981 1.367 . S
C2981 C2980 1.367 . S
C2981 C2983 1.433 . S
C2982 C2978 1.350 . S
C2982 C2979 1.463 . S
C2982 N2986 1.427 . S
C2983 H2973 0.929 . S
C2983 C2981 1.433 . S
C2983 N2986 1.384 . S
C2984 H2975 0.929 . S
C2984 C2976 1.378 . S
C2984 C2979 1.350 . S
C2985 H2972 0.929 . S
C2985 C2977 1.433 . S
C2985 N2987 1.384 . S
N2986 C2982 1.427 . S
N2986 C2983 1.384 . S
N2987 C2979 1.427 . S
N2987 C2985 1.384 . S
H2988 C2994 0.930 . S
H2989 C2998 0.930 . S
H2990 C3003 0.929 . S
H2991 C3001 0.929 . S
H2992 C2996 0.929 . S
H2993 C3002 0.929 . S
C2994 H2988 0.930 . S
C2994 C2995 1.367 . S
C2994 C3002 1.378 . S
C2995 C2994 1.367 . S
C2995 C3003 1.433 . S
C2996 H2992 0.929 . S
C2996 C2998 1.378 . S
C2996 C3000 1.350 . S
C2997 C3000 1.463 . S
C2997 C3002 1.350 . S
C2997 N3005 1.427 . S
C2998 H2989 0.930 . S
C2998 C2996 1.378 . S
C2998 C2999 1.367 . S
C2999 C2998 1.367 . S
C2999 C3001 1.433 . S
C3000 C2996 1.350 . S
C3000 C2997 1.463 . S
C3000 N3004 1.427 . S
C3001 H2991 0.929 . S
C3001 C2999 1.433 . S
C3001 N3004 1.384 . S
C3002 H2993 0.929 . S
C3002 C2994 1.378 . S
C3002 C2997 1.350 . S
C3003 H2990 0.929 . S
C3003 C2995 1.433 . S
C3003 N3005 1.384 . S
N3004 C3000 1.427 . S
N3004 C3001 1.384 . S
N3005 C2997 1.427 . S
N3005 C3003 1.384 . S
H3006 C3012 0.930 . S
H3007 C3016 0.930 . S
H3008 C3021 0.929 . S
H3009 C3019 0.929 . S
H3010 C3014 0.929 . S
H3011 C3020 0.929 . S
C3012 H3006 0.930 . S
C3012 C3013 1.367 . S
C3012 C3020 1.378 . S
C3013 C3012 1.367 . S
C3013 C3021 1.433 . S
C3014 H3010 0.929 . S
C3014 C3016 1.378 . S
C3014 C3018 1.350 . S
C3015 C3018 1.463 . S
C3015 C3020 1.350 . S
C3015 N3023 1.427 . S
C3016 H3007 0.930 . S
C3016 C3014 1.378 . S
C3016 C3017 1.367 . S
C3017 C3016 1.367 . S
C3017 C3019 1.433 . S
C3018 C3014 1.350 . S
C3018 C3015 1.463 . S
C3018 N3022 1.427 . S
C3019 H3009 0.929 . S
C3019 C3017 1.433 . S
C3019 N3022 1.384 . S
C3020 H3011 0.929 . S
C3020 C3012 1.378 . S
C3020 C3015 1.350 . S
C3021 H3008 0.929 . S
C3021 C3013 1.433 . S
C3021 N3023 1.384 . S
N3022 C3018 1.427 . S
N3022 C3019 1.384 . S
N3023 C3015 1.427 . S
N3023 C3021 1.384 . S
H3024 C3030 0.930 . S
H3025 C3034 0.930 . S
H3026 C3039 0.929 . S
H3027 C3037 0.929 . S
H3028 C3032 0.929 . S
H3029 C3038 0.929 . S
C3030 H3024 0.930 . S
C3030 C3031 1.367 . S
C3030 C3038 1.378 . S
C3031 C3030 1.367 . S
C3031 C3039 1.433 . S
C3032 H3028 0.929 . S
C3032 C3034 1.378 . S
C3032 C3036 1.350 . S
C3033 C3036 1.463 . S
C3033 C3038 1.350 . S
C3033 N3041 1.427 . S
C3034 H3025 0.930 . S
C3034 C3032 1.378 . S
C3034 C3035 1.367 . S
C3035 C3034 1.367 . S
C3035 C3037 1.433 . S
C3036 C3032 1.350 . S
C3036 C3033 1.463 . S
C3036 N3040 1.427 . S
C3037 H3027 0.929 . S
C3037 C3035 1.433 . S
C3037 N3040 1.384 . S
C3038 H3029 0.929 . S
C3038 C3030 1.378 . S
C3038 C3033 1.350 . S
C3039 H3026 0.929 . S
C3039 C3031 1.433 . S
C3039 N3041 1.384 . S
N3040 C3036 1.427 . S
N3040 C3037 1.384 . S
N3041 C3033 1.427 . S
N3041 C3039 1.384 . S
H3042 C3048 0.930 . S
H3043 C3052 0.930 . S
H3044 C3057 0.929 . S
H3045 C3055 0.929 . S
H3046 C3050 0.929 . S
H3047 C3056 0.929 . S
C3048 H3042 0.930 . S
C3048 C3049 1.367 . S
C3048 C3056 1.378 . S
C3049 C3048 1.367 . S
C3049 C3057 1.433 . S
C3050 H3046 0.929 . S
C3050 C3052 1.378 . S
C3050 C3054 1.350 . S
C3051 C3054 1.463 . S
C3051 C3056 1.350 . S
C3051 N3059 1.427 . S
C3052 H3043 0.930 . S
C3052 C3050 1.378 . S
C3052 C3053 1.367 . S
C3053 C3052 1.367 . S
C3053 C3055 1.433 . S
C3054 C3050 1.350 . S
C3054 C3051 1.463 . S
C3054 N3058 1.427 . S
C3055 H3045 0.929 . S
C3055 C3053 1.433 . S
C3055 N3058 1.384 . S
C3056 H3047 0.929 . S
C3056 C3048 1.378 . S
C3056 C3051 1.350 . S
C3057 H3044 0.929 . S
C3057 C3049 1.433 . S
C3057 N3059 1.384 . S
N3058 C3054 1.427 . S
N3058 C3055 1.384 . S
N3059 C3051 1.427 . S
N3059 C3057 1.384 . S
H3060 C3066 0.930 . S
H3061 C3070 0.930 . S
H3062 C3075 0.929 . S
H3063 C3073 0.929 . S
H3064 C3068 0.929 . S
H3065 C3074 0.929 . S
C3066 H3060 0.930 . S
C3066 C3067 1.367 . S
C3066 C3074 1.378 . S
C3067 C3066 1.367 . S
C3067 C3075 1.433 . S
C3068 H3064 0.929 . S
C3068 C3070 1.378 . S
C3068 C3072 1.350 . S
C3069 C3072 1.463 . S
C3069 C3074 1.350 . S
C3069 N3077 1.427 . S
C3070 H3061 0.930 . S
C3070 C3068 1.378 . S
C3070 C3071 1.367 . S
C3071 C3070 1.367 . S
C3071 C3073 1.433 . S
C3072 C3068 1.350 . S
C3072 C3069 1.463 . S
C3072 N3076 1.427 . S
C3073 H3063 0.929 . S
C3073 C3071 1.433 . S
C3073 N3076 1.384 . S
C3074 H3065 0.929 . S
C3074 C3066 1.378 . S
C3074 C3069 1.350 . S
C3075 H3062 0.929 . S
C3075 C3067 1.433 . S
C3075 N3077 1.384 . S
N3076 C3072 1.427 . S
N3076 C3073 1.384 . S
N3077 C3069 1.427 . S
N3077 C3075 1.384 . S
H3078 C3084 0.930 . S
H3079 C3088 0.930 . S
H3080 C3093 0.929 . S
H3081 C3091 0.929 . S
H3082 C3086 0.929 . S
H3083 C3092 0.929 . S
C3084 H3078 0.930 . S
C3084 C3085 1.367 . S
C3084 C3092 1.378 . S
C3085 C3084 1.367 . S
C3085 C3093 1.433 . S
C3086 H3082 0.929 . S
C3086 C3088 1.378 . S
C3086 C3090 1.350 . S
C3087 C3090 1.463 . S
C3087 C3092 1.350 . S
C3087 N3095 1.427 . S
C3088 H3079 0.930 . S
C3088 C3086 1.378 . S
C3088 C3089 1.367 . S
C3089 C3088 1.367 . S
C3089 C3091 1.433 . S
C3090 C3086 1.350 . S
C3090 C3087 1.463 . S
C3090 N3094 1.427 . S
C3091 H3081 0.929 . S
C3091 C3089 1.433 . S
C3091 N3094 1.384 . S
C3092 H3083 0.929 . S
C3092 C3084 1.378 . S
C3092 C3087 1.350 . S
C3093 H3080 0.929 . S
C3093 C3085 1.433 . S
C3093 N3095 1.384 . S
N3094 C3090 1.427 . S
N3094 C3091 1.384 . S
N3095 C3087 1.427 . S
N3095 C3093 1.384 . S
H3096 C3102 0.930 . S
H3097 C3106 0.930 . S
H3098 C3111 0.929 . S
H3099 C3109 0.929 . S
H3100 C3104 0.929 . S
H3101 C3110 0.929 . S
C3102 H3096 0.930 . S
C3102 C3103 1.367 . S
C3102 C3110 1.378 . S
C3103 C3102 1.367 . S
C3103 C3111 1.433 . S
C3104 H3100 0.929 . S
C3104 C3106 1.378 . S
C3104 C3108 1.350 . S
C3105 C3108 1.463 . S
C3105 C3110 1.350 . S
C3105 N3113 1.427 . S
C3106 H3097 0.930 . S
C3106 C3104 1.378 . S
C3106 C3107 1.367 . S
C3107 C3106 1.367 . S
C3107 C3109 1.433 . S
C3108 C3104 1.350 . S
C3108 C3105 1.463 . S
C3108 N3112 1.427 . S
C3109 H3099 0.929 . S
C3109 C3107 1.433 . S
C3109 N3112 1.384 . S
C3110 H3101 0.929 . S
C3110 C3102 1.378 . S
C3110 C3105 1.350 . S
C3111 H3098 0.929 . S
C3111 C3103 1.433 . S
C3111 N3113 1.384 . S
N3112 C3108 1.427 . S
N3112 C3109 1.384 . S
N3113 C3105 1.427 . S
N3113 C3111 1.384 . S
H3114 C3120 0.930 . S
H3115 C3124 0.930 . S
H3116 C3129 0.929 . S
H3117 C3127 0.929 . S
H3118 C3122 0.929 . S
H3119 C3128 0.929 . S
C3120 H3114 0.930 . S
C3120 C3121 1.367 . S
C3120 C3128 1.378 . S
C3121 C3120 1.367 . S
C3121 C3129 1.433 . S
C3122 H3118 0.929 . S
C3122 C3124 1.378 . S
C3122 C3126 1.350 . S
C3123 C3126 1.463 . S
C3123 C3128 1.350 . S
C3123 N3131 1.427 . S
C3124 H3115 0.930 . S
C3124 C3122 1.378 . S
C3124 C3125 1.367 . S
C3125 C3124 1.367 . S
C3125 C3127 1.433 . S
C3126 C3122 1.350 . S
C3126 C3123 1.463 . S
C3126 N3130 1.427 . S
C3127 H3117 0.929 . S
C3127 C3125 1.433 . S
C3127 N3130 1.384 . S
C3128 H3119 0.929 . S
C3128 C3120 1.378 . S
C3128 C3123 1.350 . S
C3129 H3116 0.929 . S
C3129 C3121 1.433 . S
C3129 N3131 1.384 . S
N3130 C3126 1.427 . S
N3130 C3127 1.384 . S
N3131 C3123 1.427 . S
N3131 C3129 1.384 . S
H3132 C3138 0.930 . S
H3133 C3142 0.930 . S
H3134 C3147 0.929 . S
H3135 C3145 0.929 . S
H3136 C3140 0.929 . S
H3137 C3146 0.929 . S
C3138 H3132 0.930 . S
C3138 C3139 1.367 . S
C3138 C3146 1.378 . S
C3139 C3138 1.367 . S
C3139 C3147 1.433 . S
C3140 H3136 0.929 . S
C3140 C3142 1.378 . S
C3140 C3144 1.350 . S
C3141 C3144 1.463 . S
C3141 C3146 1.350 . S
C3141 N3149 1.427 . S
C3142 H3133 0.930 . S
C3142 C3140 1.378 . S
C3142 C3143 1.367 . S
C3143 C3142 1.367 . S
C3143 C3145 1.433 . S
C3144 C3140 1.350 . S
C3144 C3141 1.463 . S
C3144 N3148 1.427 . S
C3145 H3135 0.929 . S
C3145 C3143 1.433 . S
C3145 N3148 1.384 . S
C3146 H3137 0.929 . S
C3146 C3138 1.378 . S
C3146 C3141 1.350 . S
C3147 H3134 0.929 . S
C3147 C3139 1.433 . S
C3147 N3149 1.384 . S
N3148 C3144 1.427 . S
N3148 C3145 1.384 . S
N3149 C3141 1.427 . S
N3149 C3147 1.384 . S
H3150 C3156 0.930 . S
H3151 C3160 0.930 . S
H3152 C3165 0.929 . S
H3153 C3163 0.929 . S
H3154 C3158 0.929 . S
H3155 C3164 0.929 . S
C3156 H3150 0.930 . S
C3156 C3157 1.367 . S
C3156 C3164 1.378 . S
C3157 C3156 1.367 . S
C3157 C3165 1.433 . S
C3158 H3154 0.929 . S
C3158 C3160 1.378 . S
C3158 C3162 1.350 . S
C3159 C3162 1.463 . S
C3159 C3164 1.350 . S
C3159 N3167 1.427 . S
C3160 H3151 0.930 . S
C3160 C3158 1.378 . S
C3160 C3161 1.367 . S
C3161 C3160 1.367 . S
C3161 C3163 1.433 . S
C3162 C3158 1.350 . S
C3162 C3159 1.463 . S
C3162 N3166 1.427 . S
C3163 H3153 0.929 . S
C3163 C3161 1.433 . S
C3163 N3166 1.384 . S
C3164 H3155 0.929 . S
C3164 C3156 1.378 . S
C3164 C3159 1.350 . S
C3165 H3152 0.929 . S
C3165 C3157 1.433 . S
C3165 N3167 1.384 . S
N3166 C3162 1.427 . S
N3166 C3163 1.384 . S
N3167 C3159 1.427 . S
N3167 C3165 1.384 . S
H3168 C3174 0.930 . S
H3169 C3178 0.930 . S
H3170 C3183 0.929 . S
H3171 C3181 0.929 . S
H3172 C3176 0.929 . S
H3173 C3182 0.929 . S
C3174 H3168 0.930 . S
C3174 C3175 1.367 . S
C3174 C3182 1.378 . S
C3175 C3174 1.367 . S
C3175 C3183 1.433 . S
C3176 H3172 0.929 . S
C3176 C3178 1.378 . S
C3176 C3180 1.350 . S
C3177 C3180 1.463 . S
C3177 C3182 1.350 . S
C3177 N3185 1.427 . S
C3178 H3169 0.930 . S
C3178 C3176 1.378 . S
C3178 C3179 1.367 . S
C3179 C3178 1.367 . S
C3179 C3181 1.433 . S
C3180 C3176 1.350 . S
C3180 C3177 1.463 . S
C3180 N3184 1.427 . S
C3181 H3171 0.929 . S
C3181 C3179 1.433 . S
C3181 N3184 1.384 . S
C3182 H3173 0.929 . S
C3182 C3174 1.378 . S
C3182 C3177 1.350 . S
C3183 H3170 0.929 . S
C3183 C3175 1.433 . S
C3183 N3185 1.384 . S
N3184 C3180 1.427 . S
N3184 C3181 1.384 . S
N3185 C3177 1.427 . S
N3185 C3183 1.384 . S
H3186 C3192 0.930 . S
H3187 C3196 0.930 . S
H3188 C3201 0.929 . S
H3189 C3199 0.929 . S
H3190 C3194 0.929 . S
H3191 C3200 0.929 . S
C3192 H3186 0.930 . S
C3192 C3193 1.367 . S
C3192 C3200 1.378 . S
C3193 C3192 1.367 . S
C3193 C3201 1.433 . S
C3194 H3190 0.929 . S
C3194 C3196 1.378 . S
C3194 C3198 1.350 . S
C3195 C3198 1.463 . S
C3195 C3200 1.350 . S
C3195 N3203 1.427 . S
C3196 H3187 0.930 . S
C3196 C3194 1.378 . S
C3196 C3197 1.367 . S
C3197 C3196 1.367 . S
C3197 C3199 1.433 . S
C3198 C3194 1.350 . S
C3198 C3195 1.463 . S
C3198 N3202 1.427 . S
C3199 H3189 0.929 . S
C3199 C3197 1.433 . S
C3199 N3202 1.384 . S
C3200 H3191 0.929 . S
C3200 C3192 1.378 . S
C3200 C3195 1.350 . S
C3201 H3188 0.929 . S
C3201 C3193 1.433 . S
C3201 N3203 1.384 . S
N3202 C3198 1.427 . S
N3202 C3199 1.384 . S
N3203 C3195 1.427 . S
N3203 C3201 1.384 . S
H3204 C3210 0.930 . S
H3205 C3214 0.930 . S
H3206 C3219 0.929 . S
H3207 C3217 0.929 . S
H3208 C3212 0.929 . S
H3209 C3218 0.929 . S
C3210 H3204 0.930 . S
C3210 C3211 1.367 . S
C3210 C3218 1.378 . S
C3211 C3210 1.367 . S
C3211 C3219 1.433 . S
C3212 H3208 0.929 . S
C3212 C3214 1.378 . S
C3212 C3216 1.350 . S
C3213 C3216 1.463 . S
C3213 C3218 1.350 . S
C3213 N3221 1.427 . S
C3214 H3205 0.930 . S
C3214 C3212 1.378 . S
C3214 C3215 1.367 . S
C3215 C3214 1.367 . S
C3215 C3217 1.433 . S
C3216 C3212 1.350 . S
C3216 C3213 1.463 . S
C3216 N3220 1.427 . S
C3217 H3207 0.929 . S
C3217 C3215 1.433 . S
C3217 N3220 1.384 . S
C3218 H3209 0.929 . S
C3218 C3210 1.378 . S
C3218 C3213 1.350 . S
C3219 H3206 0.929 . S
C3219 C3211 1.433 . S
C3219 N3221 1.384 . S
N3220 C3216 1.427 . S
N3220 C3217 1.384 . S
N3221 C3213 1.427 . S
N3221 C3219 1.384 . S
H3222 C3228 0.930 . S
H3223 C3232 0.930 . S
H3224 C3237 0.929 . S
H3225 C3235 0.929 . S
H3226 C3230 0.929 . S
H3227 C3236 0.929 . S
C3228 H3222 0.930 . S
C3228 C3229 1.367 . S
C3228 C3236 1.378 . S
C3229 C3228 1.367 . S
C3229 C3237 1.433 . S
C3230 H3226 0.929 . S
C3230 C3232 1.378 . S
C3230 C3234 1.350 . S
C3231 C3234 1.463 . S
C3231 C3236 1.350 . S
C3231 N3239 1.427 . S
C3232 H3223 0.930 . S
C3232 C3230 1.378 . S
C3232 C3233 1.367 . S
C3233 C3232 1.367 . S
C3233 C3235 1.433 . S
C3234 C3230 1.350 . S
C3234 C3231 1.463 . S
C3234 N3238 1.427 . S
C3235 H3225 0.929 . S
C3235 C3233 1.433 . S
C3235 N3238 1.384 . S
C3236 H3227 0.929 . S
C3236 C3228 1.378 . S
C3236 C3231 1.350 . S
C3237 H3224 0.929 . S
C3237 C3229 1.433 . S
C3237 N3239 1.384 . S
N3238 C3234 1.427 . S
N3238 C3235 1.384 . S
N3239 C3231 1.427 . S
N3239 C3237 1.384 . S
H3240 C3246 0.930 . S
H3241 C3250 0.930 . S
H3242 C3255 0.929 . S
H3243 C3253 0.929 . S
H3244 C3248 0.929 . S
H3245 C3254 0.929 . S
C3246 H3240 0.930 . S
C3246 C3247 1.367 . S
C3246 C3254 1.378 . S
C3247 C3246 1.367 . S
C3247 C3255 1.433 . S
C3248 H3244 0.929 . S
C3248 C3250 1.378 . S
C3248 C3252 1.350 . S
C3249 C3252 1.463 . S
C3249 C3254 1.350 . S
C3249 N3257 1.427 . S
C3250 H3241 0.930 . S
C3250 C3248 1.378 . S
C3250 C3251 1.367 . S
C3251 C3250 1.367 . S
C3251 C3253 1.433 . S
C3252 C3248 1.350 . S
C3252 C3249 1.463 . S
C3252 N3256 1.427 . S
C3253 H3243 0.929 . S
C3253 C3251 1.433 . S
C3253 N3256 1.384 . S
C3254 H3245 0.929 . S
C3254 C3246 1.378 . S
C3254 C3249 1.350 . S
C3255 H3242 0.929 . S
C3255 C3247 1.433 . S
C3255 N3257 1.384 . S
N3256 C3252 1.427 . S
N3256 C3253 1.384 . S
N3257 C3249 1.427 . S
N3257 C3255 1.384 . S
H3258 C3264 0.930 . S
H3259 C3268 0.930 . S
H3260 C3273 0.929 . S
H3261 C3271 0.929 . S
H3262 C3266 0.929 . S
H3263 C3272 0.929 . S
C3264 H3258 0.930 . S
C3264 C3265 1.367 . S
C3264 C3272 1.378 . S
C3265 C3264 1.367 . S
C3265 C3273 1.433 . S
C3266 H3262 0.929 . S
C3266 C3268 1.378 . S
C3266 C3270 1.350 . S
C3267 C3270 1.463 . S
C3267 C3272 1.350 . S
C3267 N3275 1.427 . S
C3268 H3259 0.930 . S
C3268 C3266 1.378 . S
C3268 C3269 1.367 . S
C3269 C3268 1.367 . S
C3269 C3271 1.433 . S
C3270 C3266 1.350 . S
C3270 C3267 1.463 . S
C3270 N3274 1.427 . S
C3271 H3261 0.929 . S
C3271 C3269 1.433 . S
C3271 N3274 1.384 . S
C3272 H3263 0.929 . S
C3272 C3264 1.378 . S
C3272 C3267 1.350 . S
C3273 H3260 0.929 . S
C3273 C3265 1.433 . S
C3273 N3275 1.384 . S
N3274 C3270 1.427 . S
N3274 C3271 1.384 . S
N3275 C3267 1.427 . S
N3275 C3273 1.384 . S
H3276 C3282 0.930 . S
H3277 C3286 0.930 . S
H3278 C3291 0.929 . S
H3279 C3289 0.929 . S
H3280 C3284 0.929 . S
H3281 C3290 0.929 . S
C3282 H3276 0.930 . S
C3282 C3283 1.367 . S
C3282 C3290 1.378 . S
C3283 C3282 1.367 . S
C3283 C3291 1.433 . S
C3284 H3280 0.929 . S
C3284 C3286 1.378 . S
C3284 C3288 1.350 . S
C3285 C3288 1.463 . S
C3285 C3290 1.350 . S
C3285 N3293 1.427 . S
C3286 H3277 0.930 . S
C3286 C3284 1.378 . S
C3286 C3287 1.367 . S
C3287 C3286 1.367 . S
C3287 C3289 1.433 . S
C3288 C3284 1.350 . S
C3288 C3285 1.463 . S
C3288 N3292 1.427 . S
C3289 H3279 0.929 . S
C3289 C3287 1.433 . S
C3289 N3292 1.384 . S
C3290 H3281 0.929 . S
C3290 C3282 1.378 . S
C3290 C3285 1.350 . S
C3291 H3278 0.929 . S
C3291 C3283 1.433 . S
C3291 N3293 1.384 . S
N3292 C3288 1.427 . S
N3292 C3289 1.384 . S
N3293 C3285 1.427 . S
N3293 C3291 1.384 . S
H3294 C3300 0.930 . S
H3295 C3304 0.930 . S
H3296 C3309 0.929 . S
H3297 C3307 0.929 . S
H3298 C3302 0.929 . S
H3299 C3308 0.929 . S
C3300 H3294 0.930 . S
C3300 C3301 1.367 . S
C3300 C3308 1.378 . S
C3301 C3300 1.367 . S
C3301 C3309 1.433 . S
C3302 H3298 0.929 . S
C3302 C3304 1.378 . S
C3302 C3306 1.350 . S
C3303 C3306 1.463 . S
C3303 C3308 1.350 . S
C3303 N3311 1.427 . S
C3304 H3295 0.930 . S
C3304 C3302 1.378 . S
C3304 C3305 1.367 . S
C3305 C3304 1.367 . S
C3305 C3307 1.433 . S
C3306 C3302 1.350 . S
C3306 C3303 1.463 . S
C3306 N3310 1.427 . S
C3307 H3297 0.929 . S
C3307 C3305 1.433 . S
C3307 N3310 1.384 . S
C3308 H3299 0.929 . S
C3308 C3300 1.378 . S
C3308 C3303 1.350 . S
C3309 H3296 0.929 . S
C3309 C3301 1.433 . S
C3309 N3311 1.384 . S
N3310 C3306 1.427 . S
N3310 C3307 1.384 . S
N3311 C3303 1.427 . S
N3311 C3309 1.384 . S
H3312 C3318 0.930 . S
H3313 C3322 0.930 . S
H3314 C3327 0.929 . S
H3315 C3325 0.929 . S
H3316 C3320 0.929 . S
H3317 C3326 0.929 . S
C3318 H3312 0.930 . S
C3318 C3319 1.367 . S
C3318 C3326 1.378 . S
C3319 C3318 1.367 . S
C3319 C3327 1.433 . S
C3320 H3316 0.929 . S
C3320 C3322 1.378 . S
C3320 C3324 1.350 . S
C3321 C3324 1.463 . S
C3321 C3326 1.350 . S
C3321 N3329 1.427 . S
C3322 H3313 0.930 . S
C3322 C3320 1.378 . S
C3322 C3323 1.367 . S
C3323 C3322 1.367 . S
C3323 C3325 1.433 . S
C3324 C3320 1.350 . S
C3324 C3321 1.463 . S
C3324 N3328 1.427 . S
C3325 H3315 0.929 . S
C3325 C3323 1.433 . S
C3325 N3328 1.384 . S
C3326 H3317 0.929 . S
C3326 C3318 1.378 . S
C3326 C3321 1.350 . S
C3327 H3314 0.929 . S
C3327 C3319 1.433 . S
C3327 N3329 1.384 . S
N3328 C3324 1.427 . S
N3328 C3325 1.384 . S
N3329 C3321 1.427 . S
N3329 C3327 1.384 . S
H3330 C3336 0.930 . S
H3331 C3340 0.930 . S
H3332 C3345 0.929 . S
H3333 C3343 0.929 . S
H3334 C3338 0.929 . S
H3335 C3344 0.929 . S
C3336 H3330 0.930 . S
C3336 C3337 1.367 . S
C3336 C3344 1.378 . S
C3337 C3336 1.367 . S
C3337 C3345 1.433 . S
C3338 H3334 0.929 . S
C3338 C3340 1.378 . S
C3338 C3342 1.350 . S
C3339 C3342 1.463 . S
C3339 C3344 1.350 . S
C3339 N3347 1.427 . S
C3340 H3331 0.930 . S
C3340 C3338 1.378 . S
C3340 C3341 1.367 . S
C3341 C3340 1.367 . S
C3341 C3343 1.433 . S
C3342 C3338 1.350 . S
C3342 C3339 1.463 . S
C3342 N3346 1.427 . S
C3343 H3333 0.929 . S
C3343 C3341 1.433 . S
C3343 N3346 1.384 . S
C3344 H3335 0.929 . S
C3344 C3336 1.378 . S
C3344 C3339 1.350 . S
C3345 H3332 0.929 . S
C3345 C3337 1.433 . S
C3345 N3347 1.384 . S
N3346 C3342 1.427 . S
N3346 C3343 1.384 . S
N3347 C3339 1.427 . S
N3347 C3345 1.384 . S
H3348 C3354 0.930 . S
H3349 C3358 0.930 . S
H3350 C3363 0.929 . S
H3351 C3361 0.929 . S
H3352 C3356 0.929 . S
H3353 C3362 0.929 . S
C3354 H3348 0.930 . S
C3354 C3355 1.367 . S
C3354 C3362 1.378 . S
C3355 C3354 1.367 . S
C3355 C3363 1.433 . S
C3356 H3352 0.929 . S
C3356 C3358 1.378 . S
C3356 C3360 1.350 . S
C3357 C3360 1.463 . S
C3357 C3362 1.350 . S
C3357 N3365 1.427 . S
C3358 H3349 0.930 . S
C3358 C3356 1.378 . S
C3358 C3359 1.367 . S
C3359 C3358 1.367 . S
C3359 C3361 1.433 . S
C3360 C3356 1.350 . S
C3360 C3357 1.463 . S
C3360 N3364 1.427 . S
C3361 H3351 0.929 . S
C3361 C3359 1.433 . S
C3361 N3364 1.384 . S
C3362 H3353 0.929 . S
C3362 C3354 1.378 . S
C3362 C3357 1.350 . S
C3363 H3350 0.929 . S
C3363 C3355 1.433 . S
C3363 N3365 1.384 . S
N3364 C3360 1.427 . S
N3364 C3361 1.384 . S
N3365 C3357 1.427 . S
N3365 C3363 1.384 . S
H3366 C3372 0.930 . S
H3367 C3376 0.930 . S
H3368 C3381 0.929 . S
H3369 C3379 0.929 . S
H3370 C3374 0.929 . S
H3371 C3380 0.929 . S
C3372 H3366 0.930 . S
C3372 C3373 1.367 . S
C3372 C3380 1.378 . S
C3373 C3372 1.367 . S
C3373 C3381 1.433 . S
C3374 H3370 0.929 . S
C3374 C3376 1.378 . S
C3374 C3378 1.350 . S
C3375 C3378 1.463 . S
C3375 C3380 1.350 . S
C3375 N3383 1.427 . S
C3376 H3367 0.930 . S
C3376 C3374 1.378 . S
C3376 C3377 1.367 . S
C3377 C3376 1.367 . S
C3377 C3379 1.433 . S
C3378 C3374 1.350 . S
C3378 C3375 1.463 . S
C3378 N3382 1.427 . S
C3379 H3369 0.929 . S
C3379 C3377 1.433 . S
C3379 N3382 1.384 . S
C3380 H3371 0.929 . S
C3380 C3372 1.378 . S
C3380 C3375 1.350 . S
C3381 H3368 0.929 . S
C3381 C3373 1.433 . S
C3381 N3383 1.384 . S
N3382 C3378 1.427 . S
N3382 C3379 1.384 . S
N3383 C3375 1.427 . S
N3383 C3381 1.384 . S
H3384 C3390 0.930 . S
H3385 C3394 0.930 . S
H3386 C3399 0.929 . S
H3387 C3397 0.929 . S
H3388 C3392 0.929 . S
H3389 C3398 0.929 . S
C3390 H3384 0.930 . S
C3390 C3391 1.367 . S
C3390 C3398 1.378 . S
C3391 C3390 1.367 . S
C3391 C3399 1.433 . S
C3392 H3388 0.929 . S
C3392 C3394 1.378 . S
C3392 C3396 1.350 . S
C3393 C3396 1.463 . S
C3393 C3398 1.350 . S
C3393 N3401 1.427 . S
C3394 H3385 0.930 . S
C3394 C3392 1.378 . S
C3394 C3395 1.367 . S
C3395 C3394 1.367 . S
C3395 C3397 1.433 . S
C3396 C3392 1.350 . S
C3396 C3393 1.463 . S
C3396 N3400 1.427 . S
C3397 H3387 0.929 . S
C3397 C3395 1.433 . S
C3397 N3400 1.384 . S
C3398 H3389 0.929 . S
C3398 C3390 1.378 . S
C3398 C3393 1.350 . S
C3399 H3386 0.929 . S
C3399 C3391 1.433 . S
C3399 N3401 1.384 . S
N3400 C3396 1.427 . S
N3400 C3397 1.384 . S
N3401 C3393 1.427 . S
N3401 C3399 1.384 . S
H3402 C3408 0.930 . S
H3403 C3412 0.930 . S
H3404 C3417 0.929 . S
H3405 C3415 0.929 . S
H3406 C3410 0.929 . S
H3407 C3416 0.929 . S
C3408 H3402 0.930 . S
C3408 C3409 1.367 . S
C3408 C3416 1.378 . S
C3409 C3408 1.367 . S
C3409 C3417 1.433 . S
C3410 H3406 0.929 . S
C3410 C3412 1.378 . S
C3410 C3414 1.350 . S
C3411 C3414 1.463 . S
C3411 C3416 1.350 . S
C3411 N3419 1.427 . S
C3412 H3403 0.930 . S
C3412 C3410 1.378 . S
C3412 C3413 1.367 . S
C3413 C3412 1.367 . S
C3413 C3415 1.433 . S
C3414 C3410 1.350 . S
C3414 C3411 1.463 . S
C3414 N3418 1.427 . S
C3415 H3405 0.929 . S
C3415 C3413 1.433 . S
C3415 N3418 1.384 . S
C3416 H3407 0.929 . S
C3416 C3408 1.378 . S
C3416 C3411 1.350 . S
C3417 H3404 0.929 . S
C3417 C3409 1.433 . S
C3417 N3419 1.384 . S
N3418 C3414 1.427 . S
N3418 C3415 1.384 . S
N3419 C3411 1.427 . S
N3419 C3417 1.384 . S
H3420 C3426 0.930 . S
H3421 C3430 0.930 . S
H3422 C3435 0.929 . S
H3423 C3433 0.929 . S
H3424 C3428 0.929 . S
H3425 C3434 0.929 . S
C3426 H3420 0.930 . S
C3426 C3427 1.367 . S
C3426 C3434 1.378 . S
C3427 C3426 1.367 . S
C3427 C3435 1.433 . S
C3428 H3424 0.929 . S
C3428 C3430 1.378 . S
C3428 C3432 1.350 . S
C3429 C3432 1.463 . S
C3429 C3434 1.350 . S
C3429 N3437 1.427 . S
C3430 H3421 0.930 . S
C3430 C3428 1.378 . S
C3430 C3431 1.367 . S
C3431 C3430 1.367 . S
C3431 C3433 1.433 . S
C3432 C3428 1.350 . S
C3432 C3429 1.463 . S
C3432 N3436 1.427 . S
C3433 H3423 0.929 . S
C3433 C3431 1.433 . S
C3433 N3436 1.384 . S
C3434 H3425 0.929 . S
C3434 C3426 1.378 . S
C3434 C3429 1.350 . S
C3435 H3422 0.929 . S
C3435 C3427 1.433 . S
C3435 N3437 1.384 . S
N3436 C3432 1.427 . S
N3436 C3433 1.384 . S
N3437 C3429 1.427 . S
N3437 C3435 1.384 . S
H3438 C3444 0.930 . S
H3439 C3448 0.930 . S
H3440 C3453 0.929 . S
H3441 C3451 0.929 . S
H3442 C3446 0.929 . S
H3443 C3452 0.929 . S
C3444 H3438 0.930 . S
C3444 C3445 1.367 . S
C3444 C3452 1.378 . S
C3445 C3444 1.367 . S
C3445 C3453 1.433 . S
C3446 H3442 0.929 . S
C3446 C3448 1.378 . S
C3446 C3450 1.350 . S
C3447 C3450 1.463 . S
C3447 C3452 1.350 . S
C3447 N3455 1.427 . S
C3448 H3439 0.930 . S
C3448 C3446 1.378 . S
C3448 C3449 1.367 . S
C3449 C3448 1.367 . S
C3449 C3451 1.433 . S
C3450 C3446 1.350 . S
C3450 C3447 1.463 . S
C3450 N3454 1.427 . S
C3451 H3441 0.929 . S
C3451 C3449 1.433 . S
C3451 N3454 1.384 . S
C3452 H3443 0.929 . S
C3452 C3444 1.378 . S
C3452 C3447 1.350 . S
C3453 H3440 0.929 . S
C3453 C3445 1.433 . S
C3453 N3455 1.384 . S
N3454 C3450 1.427 . S
N3454 C3451 1.384 . S
N3455 C3447 1.427 . S
N3455 C3453 1.384 . S
C1735 C1119 1.348 . S
C1739 C3 1.348 . S
C1753 C39 1.348 . S
C1757 C1011 1.348 . S
C1771 C75 1.349 . S
C1775 C1047 1.347 . S
C1789 C1083 1.348 . S
C1793 C111 1.348 . S
C1807 C903 1.349 . S
C1811 C147 1.350 . S
C1825 C183 1.348 . S
C1829 C939 1.348 . S
C1843 C975 1.348 . S
C1847 C219 1.348 . S
C1861 C255 1.348 . S
C1865 C867 1.350 . S
C1879 C291 1.350 . S
C1883 C1587 1.348 . S
C1897 C1479 1.347 . S
C1901 C327 1.350 . S
C1915 C1515 1.347 . S
C1919 C363 1.349 . S
C1933 C399 1.350 . S
C1937 C1551 1.349 . S
C1951 C435 1.350 . S
C1955 C1695 1.349 . S
C1969 C471 1.350 . S
C1973 C1623 1.348 . S
C1987 C507 1.350 . S
C1991 C1659 1.348 . S
C2005 C1443 1.347 . S
C2009 C543 1.348 . S
C2023 C1407 1.348 . S
C2027 C579 1.350 . S
C2041 C615 1.348 . S
C2045 C1191 1.350 . S
C2059 C1227 1.347 . S
C2063 C651 1.350 . S
C2077 C687 1.349 . S
C2081 C1263 1.347 . S
C2095 C1155 1.350 . S
C2099 C723 1.348 . S
C2113 C1335 1.350 . S
C2117 C759 1.349 . S
C2131 C795 1.350 . S
C2135 C1371 1.348 . S
C2149 C1299 1.347 . S
C2153 C831 1.350 . S
C2167 C326 1.310 . S
C2171 C2 1.310 . S
C2185 C362 1.317 . S
C2189 C38 1.310 . S
C2203 C74 1.309 . S
C2207 C398 1.313 . S
C2221 C290 1.314 . S
C2225 C110 1.309 . S
C2239 C146 1.318 . S
C2243 C542 1.311 . S
C2257 C434 1.310 . S
C2261 C182 1.311 . S
C2275 C470 1.310 . S
C2279 C218 1.317 . S
C2293 C506 1.314 . S
C2297 C254 1.309 . S
C2311 C650 1.311 . S
C2315 C578 1.318 . S
C2329 C794 1.310 . S
C2333 C614 1.310 . S
C2347 C830 1.318 . S
C2351 C686 1.318 . S
C2365 C722 1.311 . S
C2369 C758 1.318 . S
C2383 C1190 1.319 . S
C2387 C866 1.317 . S
C2401 C1226 1.310 . S
C2405 C902 1.311 . S
C2419 C1262 1.311 . S
C2423 C938 1.318 . S
C2437 C974 1.314 . S
C2441 C1154 1.319 . S
C2455 C1010 1.319 . S
C2459 C1406 1.312 . S
C2473 C1046 1.309 . S
C2477 C1298 1.315 . S
C2491 C1334 1.309 . S
C2495 C1082 1.313 . S
C2509 C1370 1.319 . S
C2513 C1118 1.312 . S
C2527 C1442 1.315 . S
C2531 C1514 1.319 . S
C2545 C1658 1.318 . S
C2549 C1478 1.311 . S
C2563 C1694 1.310 . S
C2567 C1550 1.311 . S
C2581 C1622 1.313 . S
C2585 C1586 1.309 . S
C2599 C14 1.343 . S
C2603 C652 1.363 . S
C2617 C50 1.349 . S
C2621 C688 1.353 . S
C2635 C86 1.356 . S
C2639 C724 1.352 . S
C2653 C616 1.355 . S
C2657 C122 1.356 . S
C2671 C158 1.343 . S
C2675 C796 1.363 . S
C2689 C194 1.354 . S
C2693 C580 1.358 . S
C2707 C832 1.362 . S
C2711 C230 1.349 . S
C2725 C760 1.358 . S
C2729 C266 1.355 . S
C2743 C302 1.350 . S
C2747 C328 1.353 . S
C2761 C338 1.355 . S
C2765 C364 1.351 . S
C2779 C374 1.343 . S
C2783 C400 1.363 . S
C2797 C292 1.353 . S
C2801 C410 1.350 . S
C2815 C544 1.360 . S
C2819 C446 1.352 . S
C2833 C436 1.356 . S
C2837 C482 1.355 . S
C2851 C472 1.353 . S
C2855 C518 1.349 . S
C2869 C554 1.344 . S
C2873 C508 1.363 . S
C2887 C112 1.352 . S
C2891 C590 1.356 . S
C2905 C184 1.355 . S
C2909 C626 1.356 . S
C2923 C220 1.362 . S
C2927 C662 1.350 . S
C2941 C698 1.346 . S
C2945 C256 1.356 . S
C2959 C148 1.355 . S
C2963 C734 1.347 . S
C2977 C40 1.364 . S
C2981 C770 1.345 . S
C2995 C76 1.351 . S
C2999 C806 1.354 . S
C3013 C4 1.362 . S
C3017 C842 1.350 . S
C3031 C1516 1.353 . S
C3035 C878 1.357 . S
C3049 C914 1.352 . S
C3053 C1552 1.360 . S
C3067 C1588 1.358 . S
C3071 C950 1.344 . S
C3085 C1480 1.363 . S
C3089 C986 1.343 . S
C3103 C1022 1.351 . S
C3107 C1660 1.361 . S
C3121 C1058 1.347 . S
C3125 C1444 1.355 . S
C3139 C1696 1.361 . S
C3143 C1094 1.350 . S
C3157 C1130 1.351 . S
C3161 C1624 1.352 . S
C3175 C1166 1.352 . S
C3179 C1192 1.352 . S
C3193 C1202 1.356 . S
C3197 C1228 1.352 . S
C3211 C1238 1.344 . S
C3215 C1264 1.363 . S
C3229 C1274 1.345 . S
C3233 C1156 1.363 . S
C3247 C1408 1.361 . S
C3251 C1310 1.351 . S
C3265 C1300 1.360 . S
C3269 C1346 1.343 . S
C3283 C1336 1.363 . S
C3287 C1382 1.343 . S
C3301 C1418 1.343 . S
C3305 C1372 1.362 . S
C3319 C976 1.363 . S
C3323 C1454 1.344 . S
C3337 C1048 1.363 . S
C3341 C1490 1.348 . S
C3355 C1084 1.354 . S
C3359 C1526 1.348 . S
C3373 C1562 1.347 . S
C3377 C1120 1.355 . S
C3391 C1012 1.362 . S
C3395 C1598 1.349 . S
C3409 C904 1.357 . S
C3413 C1634 1.345 . S
C3427 C1670 1.356 . S
C3431 C940 1.351 . S
C3445 C868 1.351 . S
C3449 C1706 1.356 . S
