# Generated by pormake.
# Topology uot, (4)-cn, num edge types: 1
# Building blocks:
#     Node 0, Type 0, BuildingBlock: UXUYUI_clean_sbu_0, # of connection points: 4
#     Node 1, Type 0, BuildingBlock: UXUYUI_clean_sbu_0, # of connection points: 4
#     Node 2, Type 0, BuildingBlock: UXUYUI_clean_sbu_0, # of connection points: 4
#     Node 3, Type 0, BuildingBlock: UXUYUI_clean_sbu_0, # of connection points: 4
#     Node 4, Type 0, BuildingBlock: UXUYUI_clean_sbu_0, # of connection points: 4
#     Node 5, Type 0, BuildingBlock: UXUYUI_clean_sbu_0, # of connection points: 4
#     Node 6, Type 0, BuildingBlock: UXUYUI_clean_sbu_0, # of connection points: 4
#     Node 7, Type 0, BuildingBlock: UXUYUI_clean_sbu_0, # of connection points: 4
#     Node 8, Type 0, BuildingBlock: UXUYUI_clean_sbu_0, # of connection points: 4
#     Node 9, Type 0, BuildingBlock: UXUYUI_clean_sbu_0, # of connection points: 4
#     Node 10, Type 0, BuildingBlock: UXUYUI_clean_sbu_0, # of connection points: 4
#     Node 11, Type 0, BuildingBlock: UXUYUI_clean_sbu_0, # of connection points: 4
#     Node 12, Type 0, BuildingBlock: UXUYUI_clean_sbu_0, # of connection points: 4
#     Node 13, Type 0, BuildingBlock: UXUYUI_clean_sbu_0, # of connection points: 4
#     Node 14, Type 0, BuildingBlock: UXUYUI_clean_sbu_0, # of connection points: 4
#     Node 15, Type 0, BuildingBlock: UXUYUI_clean_sbu_0, # of connection points: 4
#     Edge 16, Type (0, 0), BuildingBlock: CIFDUS_clean_linker_0, # of connection points: 2
#     Edge 17, Type (0, 0), BuildingBlock: CIFDUS_clean_linker_0, # of connection points: 2
#     Edge 18, Type (0, 0), BuildingBlock: CIFDUS_clean_linker_0, # of connection points: 2
#     Edge 19, Type (0, 0), BuildingBlock: CIFDUS_clean_linker_0, # of connection points: 2
#     Edge 20, Type (0, 0), BuildingBlock: CIFDUS_clean_linker_0, # of connection points: 2
#     Edge 21, Type (0, 0), BuildingBlock: CIFDUS_clean_linker_0, # of connection points: 2
#     Edge 22, Type (0, 0), BuildingBlock: CIFDUS_clean_linker_0, # of connection points: 2
#     Edge 23, Type (0, 0), BuildingBlock: CIFDUS_clean_linker_0, # of connection points: 2
#     Edge 24, Type (0, 0), BuildingBlock: CIFDUS_clean_linker_0, # of connection points: 2
#     Edge 25, Type (0, 0), BuildingBlock: CIFDUS_clean_linker_0, # of connection points: 2
#     Edge 26, Type (0, 0), BuildingBlock: CIFDUS_clean_linker_0, # of connection points: 2
#     Edge 27, Type (0, 0), BuildingBlock: CIFDUS_clean_linker_0, # of connection points: 2
#     Edge 28, Type (0, 0), BuildingBlock: CIFDUS_clean_linker_0, # of connection points: 2
#     Edge 29, Type (0, 0), BuildingBlock: CIFDUS_clean_linker_0, # of connection points: 2
#     Edge 30, Type (0, 0), BuildingBlock: CIFDUS_clean_linker_0, # of connection points: 2
#     Edge 31, Type (0, 0), BuildingBlock: CIFDUS_clean_linker_0, # of connection points: 2
#     Edge 32, Type (0, 0), BuildingBlock: CIFDUS_clean_linker_0, # of connection points: 2
#     Edge 33, Type (0, 0), BuildingBlock: CIFDUS_clean_linker_0, # of connection points: 2
#     Edge 34, Type (0, 0), BuildingBlock: CIFDUS_clean_linker_0, # of connection points: 2
#     Edge 35, Type (0, 0), BuildingBlock: CIFDUS_clean_linker_0, # of connection points: 2
#     Edge 36, Type (0, 0), BuildingBlock: CIFDUS_clean_linker_0, # of connection points: 2
#     Edge 37, Type (0, 0), BuildingBlock: CIFDUS_clean_linker_0, # of connection points: 2
#     Edge 38, Type (0, 0), BuildingBlock: CIFDUS_clean_linker_0, # of connection points: 2
#     Edge 39, Type (0, 0), BuildingBlock: CIFDUS_clean_linker_0, # of connection points: 2
#     Edge 40, Type (0, 0), BuildingBlock: CIFDUS_clean_linker_0, # of connection points: 2
#     Edge 41, Type (0, 0), BuildingBlock: CIFDUS_clean_linker_0, # of connection points: 2
#     Edge 42, Type (0, 0), BuildingBlock: CIFDUS_clean_linker_0, # of connection points: 2
#     Edge 43, Type (0, 0), BuildingBlock: CIFDUS_clean_linker_0, # of connection points: 2
#     Edge 44, Type (0, 0), BuildingBlock: CIFDUS_clean_linker_0, # of connection points: 2
#     Edge 45, Type (0, 0), BuildingBlock: CIFDUS_clean_linker_0, # of connection points: 2
#     Edge 46, Type (0, 0), BuildingBlock: CIFDUS_clean_linker_0, # of connection points: 2
#     Edge 47, Type (0, 0), BuildingBlock: CIFDUS_clean_linker_0, # of connection points: 2
# Relax obj value: 0.272
# Max RMSD: 0.247
# Mean RMSD: 0.247
data_MOF--net-uot--node1-UXUYUI_clean_sbu_0--edge1-CIFDUS_clean_linker_0
_symmetry_space_group_name_H-M    P1
_symmetry_Int_Tables_number       1
_symmetry_cell_setting            triclinic
loop_
_symmetry_equiv_pos_as_xyz
'x, y, z'
_cell_length_a     58.253773
_cell_length_b     58.061115
_cell_length_c     54.254163
_cell_angle_alpha  90.020981
_cell_angle_beta   90.004032
_cell_angle_gamma 90.005995
loop_
_atom_site_label
_atom_site_type_symbol
_atom_site_fract_x
_atom_site_fract_y
_atom_site_fract_z
_atom_type_partial_charge
Li0 Li 0.21542 0.47135 0.29909 0.0
Li1 Li 0.2183 0.45918 0.34255 0.0
Li2 Li 0.24311 0.44344 0.31104 0.0
Li3 Li 0.20227 0.43342 0.31136 0.0
C4 C 0.26328 0.48268 0.32646 0.0
N5 N 0.30827 0.4956 0.33496 0.0
C6 C 0.27285 0.48034 0.34995 0.0
C7 C 0.27648 0.49201 0.30741 0.0
C8 C 0.29565 0.48684 0.35385 0.0
C9 C 0.29922 0.49832 0.31204 0.0
C10 C 0.1709 0.46038 0.33618 0.0
C11 C 0.15048 0.44035 0.36836 0.0
N12 N 0.1319 0.45403 0.36434 0.0
C13 C 0.15161 0.4742 0.33233 0.0
C14 C 0.17035 0.44327 0.35431 0.0
C15 C 0.13205 0.47074 0.34677 0.0
C16 C 0.18959 0.49337 0.26267 0.0
N17 N 0.20748 0.49639 0.27841 0.0
C18 C 0.21057 0.53601 0.26708 0.0
C19 C 0.21817 0.51708 0.28073 0.0
C20 C 0.1919 0.53347 0.2509 0.0
C21 C 0.18163 0.51171 0.24847 0.0
H22 H 0.1811 0.47683 0.26168 0.0
H23 H 0.23212 0.51905 0.2937 0.0
C24 C 0.22633 0.45643 0.39371 0.0
N25 N 0.21584 0.46893 0.3758 0.0
C26 C 0.22516 0.46349 0.41827 0.0
C27 C 0.20203 0.49595 0.40552 0.0
C28 C 0.2038 0.48833 0.38117 0.0
C29 C 0.21291 0.48355 0.42447 0.0
H30 H 0.23597 0.4412 0.38881 0.0
H31 H 0.19558 0.49789 0.3665 0.0
C32 C 0.22367 0.44677 0.25835 0.0
N33 N 0.22681 0.45869 0.20915 0.0
C34 C 0.20789 0.43802 0.24134 0.0
C35 C 0.24126 0.46125 0.25024 0.0
C36 C 0.2097 0.44433 0.21657 0.0
C37 C 0.24251 0.46717 0.22533 0.0
C38 C 0.23172 0.40355 0.33692 0.0
C39 C 0.23402 0.39186 0.3145 0.0
C40 C 0.23592 0.39189 0.359 0.0
C41 C 0.24052 0.36871 0.31458 0.0
C42 C 0.24236 0.36872 0.35829 0.0
N43 N 0.24452 0.35771 0.33628 0.0
C44 C 0.28613 0.42748 0.32644 0.0
C45 C 0.27911 0.42198 0.28383 0.0
C46 C 0.30656 0.41507 0.32486 0.0
N47 N 0.27285 0.4306 0.30614 0.0
C48 C 0.29929 0.40917 0.28146 0.0
C49 C 0.31309 0.40514 0.30228 0.0
H50 H 0.28032 0.43371 0.34414 0.0
H51 H 0.26787 0.42395 0.26815 0.0
C52 C 0.16361 0.41832 0.28702 0.0
N53 N 0.17856 0.41166 0.30484 0.0
C54 C 0.1455 0.40402 0.28016 0.0
C55 C 0.15779 0.37658 0.31095 0.0
C56 C 0.17577 0.39146 0.31719 0.0
C57 C 0.14254 0.38271 0.29198 0.0
H58 H 0.16577 0.43487 0.27818 0.0
H59 H 0.18737 0.38684 0.3319 0.0
O60 O 0.24098 0.47633 0.32229 0.0
O61 O 0.19009 0.46353 0.32205 0.0
O62 O 0.22194 0.44115 0.28279 0.0
O63 O 0.22591 0.4264 0.3374 0.0
H64 H 0.26289 0.47332 0.36496 0.0
H65 H 0.26924 0.49457 0.28928 0.0
H66 H 0.30331 0.48491 0.37189 0.0
H67 H 0.30965 0.50548 0.29743 0.0
H68 H 0.14982 0.42719 0.38245 0.0
H69 H 0.15176 0.48747 0.31831 0.0
H70 H 0.18508 0.43233 0.35751 0.0
H71 H 0.11699 0.48133 0.34401 0.0
H72 H 0.21892 0.55253 0.26945 0.0
H73 H 0.16693 0.50915 0.23654 0.0
H74 H 0.23416 0.4536 0.43215 0.0
H75 H 0.19215 0.51132 0.40944 0.0
H76 H 0.19442 0.42643 0.24714 0.0
H77 H 0.25379 0.46783 0.26308 0.0
H78 H 0.19753 0.43778 0.20324 0.0
H79 H 0.25597 0.47849 0.21886 0.0
H80 H 0.23086 0.40049 0.2972 0.0
H81 H 0.23425 0.40064 0.37651 0.0
H82 H 0.24239 0.35948 0.29737 0.0
H83 H 0.24566 0.3595 0.37524 0.0
H84 H 0.31672 0.41267 0.34136 0.0
H85 H 0.30335 0.40149 0.2638 0.0
H86 H 0.13378 0.40971 0.26591 0.0
H87 H 0.15605 0.36036 0.32061 0.0
Li88 Li 0.43508 0.80037 0.6952 0.0
Li89 Li 0.47305 0.7835 0.70152 0.0
Li90 Li 0.45413 0.78095 0.66117 0.0
Li91 Li 0.44067 0.75836 0.69688 0.0
C92 C 0.46349 0.83194 0.67702 0.0
N93 N 0.46015 0.87936 0.67486 0.0
C94 C 0.47448 0.84556 0.69468 0.0
C95 C 0.45097 0.84243 0.65813 0.0
C96 C 0.47255 0.86951 0.6933 0.0
C97 C 0.44943 0.86643 0.6574 0.0
C98 C 0.43623 0.77211 0.74365 0.0
C99 C 0.43532 0.743 0.77533 0.0
N100 N 0.41548 0.75218 0.78416 0.0
C101 C 0.41587 0.78131 0.75307 0.0
C102 C 0.44611 0.75286 0.7549 0.0
C103 C 0.40563 0.77097 0.77356 0.0
C104 C 0.39557 0.82945 0.69291 0.0
N105 N 0.41605 0.82557 0.70419 0.0
C106 C 0.41157 0.85926 0.72895 0.0
C107 C 0.424 0.83975 0.7222 0.0
C108 C 0.39055 0.86398 0.71736 0.0
C109 C 0.38239 0.84866 0.69933 0.0
H110 H 0.38951 0.81773 0.67889 0.0
H111 H 0.44012 0.83593 0.73119 0.0
C112 C 0.51768 0.8012 0.70427 0.0
N113 N 0.5017 0.78915 0.71716 0.0
C114 C 0.5377 0.80878 0.71582 0.0
C115 C 0.52499 0.79037 0.75337 0.0
C116 C 0.50511 0.78331 0.74113 0.0
C117 C 0.54136 0.80383 0.74089 0.0
H118 H 0.51437 0.80579 0.68528 0.0
H119 H 0.49206 0.77384 0.75098 0.0
C120 C 0.40866 0.7726 0.65324 0.0
N121 N 0.38238 0.76391 0.61187 0.0
C122 C 0.40014 0.75046 0.64885 0.0
C123 C 0.40365 0.79035 0.6367 0.0
C124 C 0.38691 0.74642 0.62781 0.0
C125 C 0.3904 0.7856 0.61585 0.0
C126 C 0.49231 0.74855 0.68114 0.0
C127 C 0.50857 0.75567 0.66382 0.0
C128 C 0.49899 0.7345 0.70078 0.0
C129 C 0.53138 0.7487 0.66654 0.0
C130 C 0.52198 0.72792 0.70286 0.0
N131 N 0.53756 0.73511 0.68585 0.0
C132 C 0.47329 0.79696 0.61676 0.0
C133 C 0.45079 0.76323 0.61245 0.0
C134 C 0.47864 0.79665 0.59168 0.0
N135 N 0.4595 0.78047 0.62657 0.0
C136 C 0.45525 0.76254 0.58718 0.0
C137 C 0.46952 0.7793 0.57641 0.0
H138 H 0.48058 0.81008 0.62854 0.0
H139 H 0.44051 0.74988 0.62081 0.0
C140 C 0.40615 0.72954 0.71702 0.0
N141 N 0.4267 0.7298 0.70513 0.0
C142 C 0.39446 0.70882 0.72048 0.0
C143 C 0.42495 0.6891 0.6988 0.0
C144 C 0.43635 0.71013 0.69629 0.0
C145 C 0.40369 0.68843 0.71087 0.0
H146 H 0.3984 0.7455 0.72294 0.0
H147 H 0.45241 0.71094 0.68633 0.0
O148 O 0.46477 0.80845 0.67834 0.0
O149 O 0.4465 0.78198 0.72359 0.0
O150 O 0.4217 0.77689 0.67372 0.0
O151 O 0.47005 0.75576 0.67924 0.0
H152 H 0.48411 0.83773 0.70953 0.0
H153 H 0.44249 0.83215 0.64424 0.0
H154 H 0.48083 0.88027 0.70695 0.0
H155 H 0.43971 0.87477 0.64295 0.0
H156 H 0.44269 0.728 0.78412 0.0
H157 H 0.40795 0.79617 0.74458 0.0
H158 H 0.46176 0.7454 0.74773 0.0
H159 H 0.38983 0.77786 0.78101 0.0
H160 H 0.41823 0.87045 0.74324 0.0
H161 H 0.36624 0.85174 0.69001 0.0
H162 H 0.54958 0.81939 0.7055 0.0
H163 H 0.52722 0.78584 0.77258 0.0
H164 H 0.40377 0.73651 0.66144 0.0
H165 H 0.41004 0.80758 0.63984 0.0
H166 H 0.38028 0.72935 0.62413 0.0
H167 H 0.3865 0.79915 0.60283 0.0
H168 H 0.50367 0.76665 0.64859 0.0
H169 H 0.48659 0.72892 0.71437 0.0
H170 H 0.54419 0.75417 0.65334 0.0
H171 H 0.52744 0.71715 0.71803 0.0
H172 H 0.49025 0.80958 0.58454 0.0
H173 H 0.44758 0.74894 0.57629 0.0
H174 H 0.37781 0.70889 0.72939 0.0
H175 H 0.43232 0.67366 0.69087 0.0
Li176 Li 0.75426 0.55996 0.3073 0.0
Li177 Li 0.79491 0.56867 0.30655 0.0
Li178 Li 0.78147 0.52868 0.30008 0.0
Li179 Li 0.77936 0.54684 0.34132 0.0
C180 C 0.77058 0.56542 0.25725 0.0
N181 N 0.75948 0.58433 0.21205 0.0
C182 C 0.77199 0.58921 0.25366 0.0
C183 C 0.76389 0.55121 0.23771 0.0
C184 C 0.76621 0.59845 0.23071 0.0
C185 C 0.75824 0.56111 0.21505 0.0
C186 C 0.77079 0.60168 0.33546 0.0
C187 C 0.77762 0.63469 0.36147 0.0
N188 N 0.76826 0.64855 0.34395 0.0
C189 C 0.76105 0.61624 0.31782 0.0
C190 C 0.77896 0.61094 0.35758 0.0
C191 C 0.75999 0.63989 0.32242 0.0
C192 C 0.714 0.58099 0.32166 0.0
N193 N 0.72462 0.57256 0.30127 0.0
C194 C 0.69544 0.58835 0.27532 0.0
C195 C 0.71542 0.57535 0.27842 0.0
C196 C 0.68482 0.59837 0.29597 0.0
C197 C 0.694 0.59399 0.31944 0.0
H198 H 0.72176 0.57854 0.33958 0.0
H199 H 0.7239 0.5682 0.2625 0.0
C200 C 0.8271 0.58573 0.2735 0.0
N201 N 0.81794 0.58979 0.29612 0.0
C202 C 0.84393 0.60028 0.26398 0.0
C203 C 0.84219 0.62263 0.30153 0.0
C204 C 0.82528 0.60766 0.31029 0.0
C205 C 0.85164 0.61909 0.278 0.0
H206 H 0.82129 0.57109 0.26285 0.0
H207 H 0.81819 0.61025 0.32845 0.0
C208 C 0.73748 0.51527 0.31529 0.0
N209 N 0.7023 0.48751 0.29844 0.0
C210 C 0.7257 0.50093 0.33164 0.0
C211 C 0.73138 0.51551 0.29039 0.0
C212 C 0.70796 0.48701 0.32276 0.0
C213 C 0.71355 0.50136 0.28222 0.0
C214 C 0.82765 0.54406 0.33249 0.0
C215 C 0.84713 0.53154 0.32569 0.0
C216 C 0.82942 0.56128 0.35038 0.0
C217 C 0.86811 0.53642 0.33703 0.0
C218 C 0.8507 0.56566 0.36127 0.0
N219 N 0.86945 0.55325 0.35443 0.0
C220 C 0.8016 0.50312 0.26244 0.0
C221 C 0.783 0.48022 0.29261 0.0
C222 C 0.8099 0.48348 0.25059 0.0
N223 N 0.78865 0.50113 0.28315 0.0
C224 C 0.79093 0.46009 0.28133 0.0
C225 C 0.80493 0.46159 0.26027 0.0
H226 H 0.80615 0.52003 0.25565 0.0
H227 H 0.77294 0.47919 0.30933 0.0
C228 C 0.76818 0.55438 0.39108 0.0
N229 N 0.78109 0.54128 0.37565 0.0
C230 C 0.76898 0.55065 0.41649 0.0
C231 C 0.7962 0.51988 0.40955 0.0
C232 C 0.7949 0.52424 0.38428 0.0
C233 C 0.7831 0.53317 0.42603 0.0
H234 H 0.75716 0.56764 0.38361 0.0
H235 H 0.80491 0.51404 0.37151 0.0
O236 O 0.77622 0.55594 0.27954 0.0
O237 O 0.77189 0.57843 0.33145 0.0
O238 O 0.75494 0.5289 0.32374 0.0
O239 O 0.80706 0.53964 0.32135 0.0
H240 H 0.77774 0.60042 0.26829 0.0
H241 H 0.763 0.53272 0.24004 0.0
H242 H 0.76718 0.61684 0.22771 0.0
H243 H 0.75291 0.55033 0.19982 0.0
H244 H 0.78401 0.64209 0.37844 0.0
H245 H 0.75412 0.60939 0.30088 0.0
H246 H 0.7864 0.59993 0.37154 0.0
H247 H 0.75251 0.65134 0.3089 0.0
H248 H 0.68873 0.59106 0.25694 0.0
H249 H 0.68656 0.60159 0.33583 0.0
H250 H 0.85111 0.59662 0.24599 0.0
H251 H 0.84768 0.63691 0.31295 0.0
H252 H 0.73026 0.50054 0.35098 0.0
H253 H 0.7403 0.5265 0.27753 0.0
H254 H 0.6987 0.4758 0.3352 0.0
H255 H 0.70864 0.50139 0.26299 0.0
H256 H 0.84602 0.51821 0.31178 0.0
H257 H 0.81455 0.57123 0.35571 0.0
H258 H 0.88334 0.52686 0.33197 0.0
H259 H 0.85232 0.57897 0.37513 0.0
H260 H 0.82093 0.4855 0.23468 0.0
H261 H 0.78653 0.44357 0.28929 0.0
H262 H 0.75834 0.56107 0.42849 0.0
H263 H 0.80748 0.50639 0.41613 0.0
Li264 Li 0.55996 0.19981 0.68645 0.0
Li265 Li 0.52212 0.21775 0.69675 0.0
Li266 Li 0.53884 0.21819 0.65382 0.0
Li267 Li 0.55539 0.24105 0.68561 0.0
C268 C 0.52973 0.16812 0.67704 0.0
N269 N 0.53324 0.12119 0.6848 0.0
C270 C 0.51953 0.15804 0.69773 0.0
C271 C 0.54163 0.15428 0.66025 0.0
C272 C 0.5215 0.13429 0.70132 0.0
C273 C 0.54324 0.13061 0.66452 0.0
C274 C 0.56213 0.23234 0.73228 0.0
C275 C 0.5619 0.26281 0.76248 0.0
N276 N 0.58452 0.25884 0.76705 0.0
C277 C 0.58533 0.22849 0.73732 0.0
C278 C 0.55026 0.24957 0.74497 0.0
C279 C 0.59636 0.2421 0.75496 0.0
C280 C 0.59571 0.16585 0.68198 0.0
N281 N 0.579 0.17496 0.6965 0.0
C282 C 0.58632 0.14709 0.72784 0.0
C283 C 0.57436 0.1662 0.71916 0.0
C284 C 0.60322 0.13678 0.71302 0.0
C285 C 0.60806 0.14657 0.68989 0.0
H286 H 0.59918 0.17325 0.66412 0.0
H287 H 0.56105 0.17393 0.73035 0.0
C288 C 0.47567 0.20716 0.70344 0.0
N289 N 0.49536 0.21241 0.71562 0.0
C290 C 0.45698 0.19798 0.71622 0.0
C291 C 0.47885 0.20097 0.75398 0.0
C292 C 0.49714 0.21 0.74045 0.0
C293 C 0.4587 0.1941 0.74174 0.0
H294 H 0.47502 0.20876 0.68358 0.0
H295 H 0.5132 0.21381 0.74955 0.0
C296 C 0.58064 0.2241 0.63859 0.0
N297 N 0.59702 0.22977 0.59114 0.0
C298 C 0.58564 0.24613 0.62966 0.0
C299 C 0.58394 0.20497 0.62333 0.0
C300 C 0.59396 0.24862 0.60565 0.0
C301 C 0.59221 0.20819 0.59941 0.0
C302 C 0.51638 0.26573 0.67609 0.0
C303 C 0.52251 0.2829 0.65927 0.0
C304 C 0.50264 0.27133 0.69636 0.0
C305 C 0.51487 0.30544 0.66309 0.0
C306 C 0.49534 0.29406 0.69951 0.0
N307 N 0.50156 0.3105 0.68296 0.0
C308 C 0.5229 0.1967 0.60986 0.0
C309 C 0.53371 0.23582 0.60552 0.0
C310 C 0.51825 0.19514 0.58464 0.0
N311 N 0.5308 0.21674 0.61968 0.0
C312 C 0.52942 0.23501 0.58025 0.0
C313 C 0.52175 0.21442 0.56946 0.0
H314 H 0.52038 0.18186 0.62153 0.0
H315 H 0.53979 0.25158 0.61376 0.0
C316 C 0.59588 0.26488 0.68969 0.0
N317 N 0.573 0.26827 0.69294 0.0
C318 C 0.6113 0.28295 0.69269 0.0
C319 C 0.57966 0.30766 0.704 0.0
C320 C 0.56477 0.28894 0.70089 0.0
C321 C 0.6032 0.30488 0.69923 0.0
H322 H 0.60217 0.24809 0.68438 0.0
H323 H 0.54675 0.29106 0.70471 0.0
O324 O 0.52865 0.19146 0.67362 0.0
O325 O 0.55124 0.21967 0.71456 0.0
O326 O 0.57218 0.2213 0.66195 0.0
O327 O 0.52326 0.24347 0.67242 0.0
H328 H 0.51043 0.16842 0.71106 0.0
H329 H 0.54988 0.16178 0.64431 0.0
H330 H 0.51379 0.1263 0.71731 0.0
H331 H 0.55255 0.11974 0.65177 0.0
H332 H 0.55298 0.2763 0.77234 0.0
H333 H 0.59478 0.21531 0.7275 0.0
H334 H 0.53234 0.25289 0.7411 0.0
H335 H 0.61435 0.23941 0.75897 0.0
H336 H 0.58232 0.14045 0.74599 0.0
H337 H 0.62083 0.13911 0.67779 0.0
H338 H 0.44196 0.19263 0.70596 0.0
H339 H 0.48083 0.19852 0.77365 0.0
H340 H 0.58273 0.26122 0.6409 0.0
H341 H 0.57977 0.18785 0.62969 0.0
H342 H 0.5978 0.26558 0.59849 0.0
H343 H 0.59469 0.19355 0.58737 0.0
H344 H 0.53329 0.27898 0.64363 0.0
H345 H 0.49767 0.2583 0.70954 0.0
H346 H 0.51959 0.31891 0.65029 0.0
H347 H 0.48474 0.29863 0.71514 0.0
H348 H 0.5124 0.17892 0.57705 0.0
H349 H 0.53197 0.2504 0.5693 0.0
H350 H 0.6294 0.2798 0.68967 0.0
H351 H 0.57273 0.32421 0.70941 0.0
Li352 Li 0.20255 0.55732 0.68426 0.0
Li353 Li 0.24377 0.54772 0.68281 0.0
Li354 Li 0.21825 0.53135 0.65188 0.0
Li355 Li 0.21698 0.5197 0.69574 0.0
C356 C 0.23236 0.5864 0.65449 0.0
N357 N 0.24835 0.63091 0.64894 0.0
C358 C 0.23682 0.60001 0.67521 0.0
C359 C 0.23594 0.59547 0.63095 0.0
C360 C 0.24495 0.62244 0.67203 0.0
C361 C 0.24401 0.61802 0.62853 0.0
C362 C 0.22415 0.54368 0.73618 0.0
C363 C 0.24381 0.52627 0.77059 0.0
N364 N 0.22507 0.53003 0.78499 0.0
C365 C 0.20522 0.54768 0.75142 0.0
C366 C 0.24371 0.53317 0.74593 0.0
C367 C 0.20596 0.54054 0.776 0.0
C368 C 0.16149 0.57043 0.70594 0.0
N369 N 0.17867 0.5789 0.69162 0.0
C370 C 0.16086 0.61603 0.691 0.0
C371 C 0.17837 0.60109 0.68357 0.0
C372 C 0.1433 0.6079 0.70645 0.0
C373 C 0.14359 0.58467 0.71364 0.0
H374 H 0.16187 0.55259 0.71164 0.0
H375 H 0.19161 0.60734 0.67142 0.0
C376 C 0.28819 0.56121 0.66721 0.0
N377 N 0.27343 0.56119 0.6866 0.0
C378 C 0.30839 0.57408 0.66818 0.0
C379 C 0.29764 0.58709 0.70887 0.0
C380 C 0.27799 0.5734 0.70739 0.0
C381 C 0.31304 0.58795 0.68888 0.0
H382 H 0.2838 0.55205 0.65054 0.0
H383 H 0.26563 0.5737 0.72224 0.0
C384 C 0.17096 0.52958 0.6604 0.0
N385 N 0.13083 0.53502 0.63393 0.0
C386 C 0.15215 0.51529 0.66504 0.0
C387 C 0.16935 0.5467 0.64237 0.0
C388 C 0.13201 0.5183 0.65143 0.0
C389 C 0.14891 0.54915 0.62916 0.0
C390 C 0.26409 0.50831 0.66789 0.0
C391 C 0.27269 0.50604 0.64396 0.0
C392 C 0.27831 0.50342 0.68797 0.0
C393 C 0.29554 0.49949 0.64053 0.0
C394 C 0.30107 0.49695 0.68379 0.0
N395 N 0.30916 0.49517 0.66036 0.0
C396 C 0.22816 0.53217 0.60117 0.0
C397 C 0.20084 0.50396 0.61282 0.0
C398 C 0.22688 0.52515 0.5766 0.0
N399 N 0.21525 0.52155 0.61864 0.0
C400 C 0.19887 0.49648 0.58844 0.0
C401 C 0.21207 0.50706 0.56992 0.0
H402 H 0.23987 0.54573 0.60645 0.0
H403 H 0.19091 0.49568 0.62714 0.0
C404 C 0.1899 0.49535 0.729 0.0
N405 N 0.2101 0.49443 0.71654 0.0
C406 C 0.18246 0.47648 0.74273 0.0
C407 C 0.21678 0.45599 0.73051 0.0
C408 C 0.22368 0.4754 0.7172 0.0
C409 C 0.19577 0.45631 0.74323 0.0
H410 H 0.17922 0.51053 0.72762 0.0
H411 H 0.23946 0.47501 0.70674 0.0
O412 O 0.22506 0.56414 0.65721 0.0
O413 O 0.22359 0.55012 0.71191 0.0
O414 O 0.19071 0.52689 0.67373 0.0
O415 O 0.24175 0.51477 0.67159 0.0
H416 H 0.23391 0.59335 0.69357 0.0
H417 H 0.23243 0.58528 0.6147 0.0
H418 H 0.24853 0.63313 0.68791 0.0
H419 H 0.24683 0.62527 0.61042 0.0
H420 H 0.25881 0.51799 0.77831 0.0
H421 H 0.19007 0.55612 0.74438 0.0
H422 H 0.25871 0.53046 0.7346 0.0
H423 H 0.19135 0.54337 0.78793 0.0
H424 H 0.161 0.6337 0.68463 0.0
H425 H 0.13043 0.5777 0.7256 0.0
H426 H 0.31981 0.5737 0.65245 0.0
H427 H 0.29994 0.59779 0.72501 0.0
H428 H 0.15313 0.50202 0.67902 0.0
H429 H 0.18368 0.558 0.63859 0.0
H430 H 0.11732 0.50734 0.6548 0.0
H431 H 0.14742 0.56231 0.61514 0.0
H432 H 0.26189 0.50937 0.62818 0.0
H433 H 0.27184 0.5045 0.70657 0.0
H434 H 0.30245 0.49784 0.62211 0.0
H435 H 0.31229 0.49326 0.69919 0.0
H436 H 0.23777 0.53348 0.56311 0.0
H437 H 0.18706 0.48265 0.58415 0.0
H438 H 0.16596 0.47728 0.75187 0.0
H439 H 0.2275 0.44075 0.73045 0.0
Li440 Li 0.53467 0.78927 0.35475 0.0
Li441 Li 0.55179 0.76432 0.3238 0.0
Li442 Li 0.55967 0.8058 0.32399 0.0
Li443 Li 0.52217 0.79067 0.31159 0.0
C444 C 0.58989 0.78816 0.35434 0.0
N445 N 0.63525 0.80015 0.36217 0.0
C446 C 0.60756 0.77414 0.34542 0.0
C447 C 0.59534 0.80832 0.36718 0.0
C448 C 0.63037 0.78048 0.34961 0.0
C449 C 0.61836 0.81409 0.37093 0.0
C450 C 0.51507 0.74197 0.33649 0.0
C451 C 0.50574 0.70569 0.31729 0.0
N452 N 0.50893 0.69486 0.33925 0.0
C453 C 0.51821 0.73049 0.35888 0.0
C454 C 0.50873 0.72951 0.31553 0.0
C455 C 0.51502 0.70666 0.3599 0.0
C456 C 0.50336 0.78199 0.39367 0.0
N457 N 0.52412 0.79129 0.38796 0.0
C458 C 0.52917 0.80411 0.42946 0.0
C459 C 0.53706 0.80216 0.40527 0.0
C460 C 0.50801 0.79433 0.43593 0.0
C461 C 0.49504 0.78307 0.41778 0.0
H462 H 0.49328 0.77368 0.37947 0.0
H463 H 0.55341 0.80948 0.40027 0.0
C464 C 0.56835 0.72603 0.29595 0.0
N465 N 0.56499 0.73467 0.31895 0.0
C466 C 0.5794 0.70487 0.29281 0.0
C467 C 0.58295 0.70182 0.33708 0.0
C468 C 0.57181 0.72296 0.33935 0.0
C469 C 0.58716 0.69261 0.31355 0.0
H470 H 0.56289 0.73576 0.28004 0.0
H471 H 0.56915 0.73042 0.3574 0.0
C472 C 0.51539 0.82915 0.34925 0.0
N473 N 0.48745 0.85225 0.38215 0.0
C474 C 0.49164 0.82576 0.34875 0.0
C475 C 0.52494 0.84428 0.36649 0.0
C476 C 0.4778 0.83762 0.36552 0.0
C477 C 0.51051 0.85579 0.38296 0.0
C478 C 0.5479 0.78906 0.27129 0.0
C479 C 0.55532 0.80918 0.25959 0.0
C480 C 0.53507 0.77288 0.25808 0.0
C481 C 0.54959 0.81287 0.2349 0.0
C482 C 0.52965 0.77722 0.23343 0.0
N483 N 0.53695 0.79696 0.22245 0.0
C484 C 0.60232 0.82375 0.30709 0.0
C485 C 0.57513 0.85156 0.32012 0.0
C486 C 0.61794 0.84107 0.30089 0.0
N487 N 0.58147 0.82928 0.31668 0.0
C488 C 0.59012 0.8694 0.31406 0.0
C489 C 0.61186 0.8643 0.30423 0.0
H490 H 0.60672 0.80589 0.30402 0.0
H491 H 0.55821 0.85551 0.32704 0.0
C492 C 0.4778 0.78436 0.28925 0.0
N493 N 0.49706 0.79756 0.29046 0.0
C494 C 0.45927 0.79131 0.27461 0.0
C495 C 0.481 0.82497 0.26258 0.0
C496 C 0.49885 0.81761 0.27772 0.0
C497 C 0.46082 0.81187 0.26106 0.0
H498 H 0.47661 0.76878 0.30007 0.0
H499 H 0.51406 0.82812 0.2797 0.0
O500 O 0.56742 0.78233 0.3503 0.0
O501 O 0.51864 0.76521 0.33498 0.0
O502 O 0.5293 0.8171 0.33354 0.0
O503 O 0.55305 0.78529 0.29556 0.0
H504 H 0.60378 0.75866 0.33514 0.0
H505 H 0.58198 0.81975 0.37361 0.0
H506 H 0.64419 0.7698 0.34278 0.0
H507 H 0.62279 0.82973 0.38067 0.0
H508 H 0.50094 0.69581 0.30118 0.0
H509 H 0.52342 0.73981 0.37522 0.0
H510 H 0.50634 0.73809 0.29803 0.0
H511 H 0.51752 0.69754 0.37707 0.0
H512 H 0.53965 0.81282 0.44308 0.0
H513 H 0.47856 0.77545 0.42218 0.0
H514 H 0.58209 0.69833 0.27434 0.0
H515 H 0.58898 0.69324 0.35357 0.0
H516 H 0.48398 0.81388 0.33579 0.0
H517 H 0.54332 0.84677 0.36747 0.0
H518 H 0.45941 0.8351 0.3654 0.0
H519 H 0.51768 0.86743 0.39651 0.0
H520 H 0.56522 0.82193 0.2695 0.0
H521 H 0.52908 0.75728 0.26685 0.0
H522 H 0.55512 0.82841 0.22566 0.0
H523 H 0.51959 0.76493 0.22305 0.0
H524 H 0.63453 0.83631 0.29347 0.0
H525 H 0.58443 0.88702 0.31636 0.0
H526 H 0.44387 0.78087 0.27401 0.0
H527 H 0.48264 0.84117 0.25285 0.0
Li528 Li 0.787 0.48088 0.69224 0.0
Li529 Li 0.78645 0.46878 0.64885 0.0
Li530 Li 0.76667 0.44698 0.68169 0.0
Li531 Li 0.80801 0.44618 0.67985 0.0
C532 C 0.75003 0.4993 0.67413 0.0
N533 N 0.7312 0.54199 0.6839 0.0
C534 C 0.75257 0.51726 0.65722 0.0
C535 C 0.73775 0.50297 0.69591 0.0
C536 C 0.74295 0.53874 0.66252 0.0
C537 C 0.72842 0.52471 0.70055 0.0
C538 C 0.83536 0.48491 0.67207 0.0
C539 C 0.87333 0.49243 0.65618 0.0
N540 N 0.88065 0.4975 0.67936 0.0
C541 C 0.84326 0.49035 0.6957 0.0
C542 C 0.8505 0.48609 0.65211 0.0
C543 C 0.8662 0.49661 0.69902 0.0
C544 C 0.79096 0.504 0.73783 0.0
N545 N 0.79 0.50711 0.71302 0.0
C546 C 0.80274 0.54602 0.71715 0.0
C547 C 0.79526 0.52771 0.70254 0.0
C548 C 0.80524 0.54288 0.74267 0.0
C549 C 0.7986 0.52178 0.7531 0.0
H550 H 0.78728 0.48727 0.7456 0.0
H551 H 0.79508 0.52944 0.68269 0.0
C552 C 0.77097 0.46578 0.60025 0.0
N553 N 0.78528 0.47776 0.61531 0.0
C554 C 0.77031 0.47057 0.57507 0.0
C555 C 0.79871 0.50037 0.58148 0.0
C556 C 0.79886 0.49494 0.60658 0.0
C557 C 0.78446 0.48794 0.56533 0.0
H558 H 0.76031 0.45226 0.6078 0.0
H559 H 0.80999 0.50423 0.61906 0.0
C560 C 0.77874 0.43664 0.72595 0.0
N561 N 0.75769 0.4068 0.75852 0.0
C562 C 0.78689 0.41414 0.72862 0.0
C563 C 0.75997 0.44401 0.73991 0.0
C564 C 0.776 0.39931 0.74519 0.0
C565 C 0.74953 0.42864 0.75625 0.0
C566 C 0.79618 0.42321 0.6354 0.0
C567 C 0.78674 0.40251 0.62702 0.0
C568 C 0.81526 0.43252 0.62338 0.0
C569 C 0.79673 0.39133 0.60689 0.0
C570 C 0.82473 0.42085 0.6033 0.0
N571 N 0.81536 0.40066 0.59554 0.0
C572 C 0.71946 0.4348 0.69093 0.0
C573 C 0.7461 0.40444 0.68479 0.0
C574 C 0.70129 0.41903 0.69197 0.0
N575 N 0.74125 0.42721 0.68704 0.0
C576 C 0.72857 0.38819 0.68556 0.0
C577 C 0.70577 0.39546 0.68863 0.0
H578 H 0.71612 0.45306 0.69246 0.0
H579 H 0.76362 0.39896 0.68175 0.0
C580 C 0.84467 0.43487 0.70952 0.0
N581 N 0.83486 0.42867 0.68778 0.0
C582 C 0.86414 0.42354 0.71815 0.0
C583 C 0.86272 0.39878 0.68239 0.0
C584 C 0.84327 0.41074 0.67435 0.0
C585 C 0.87348 0.40528 0.70449 0.0
H586 H 0.83708 0.44845 0.72044 0.0
H587 H 0.83485 0.40536 0.65764 0.0
O588 O 0.75961 0.47826 0.66946 0.0
O589 O 0.81291 0.47876 0.66838 0.0
O590 O 0.78882 0.45125 0.70941 0.0
O591 O 0.78616 0.43471 0.6546 0.0
H592 H 0.76201 0.51469 0.64026 0.0
H593 H 0.73565 0.48924 0.70919 0.0
H594 H 0.74487 0.55284 0.64965 0.0
H595 H 0.71901 0.52784 0.71741 0.0
H596 H 0.88522 0.49335 0.64089 0.0
H597 H 0.83193 0.48945 0.71142 0.0
H598 H 0.84473 0.48224 0.63361 0.0
H599 H 0.87253 0.50071 0.71724 0.0
H600 H 0.80806 0.5619 0.70836 0.0
H601 H 0.8003 0.51872 0.77271 0.0
H602 H 0.75882 0.46081 0.56336 0.0
H603 H 0.80999 0.51378 0.57472 0.0
H604 H 0.80128 0.40808 0.71782 0.0
H605 H 0.75336 0.46132 0.73796 0.0
H606 H 0.78205 0.38181 0.74736 0.0
H607 H 0.73491 0.43407 0.76708 0.0
H608 H 0.77177 0.3952 0.63588 0.0
H609 H 0.82268 0.44854 0.62956 0.0
H610 H 0.78962 0.37527 0.60024 0.0
H611 H 0.83953 0.42786 0.59387 0.0
H612 H 0.68389 0.42525 0.69426 0.0
H613 H 0.73274 0.37014 0.68326 0.0
H614 H 0.87151 0.4287 0.73563 0.0
H615 H 0.86932 0.3847 0.67139 0.0
Li616 Li 0.44597 0.23531 0.31462 0.0
Li617 Li 0.46162 0.20865 0.34639 0.0
Li618 Li 0.47723 0.20958 0.30377 0.0
Li619 Li 0.43959 0.19462 0.3116 0.0
C620 C 0.49058 0.2526 0.32039 0.0
N621 N 0.51682 0.28874 0.303 0.0
C622 C 0.50731 0.2626 0.33543 0.0
C623 C 0.48719 0.26096 0.2965 0.0
C624 C 0.5204 0.28087 0.3263 0.0
C625 C 0.50064 0.27924 0.28805 0.0
C626 C 0.40708 0.20893 0.3411 0.0
C627 C 0.37885 0.1826 0.35733 0.0
N628 N 0.3621 0.19433 0.34521 0.0
C629 C 0.38957 0.22081 0.32891 0.0
C630 C 0.40169 0.18975 0.35556 0.0
C631 C 0.36694 0.21314 0.33119 0.0
C632 C 0.42025 0.27078 0.29128 0.0
N633 N 0.43236 0.26466 0.31167 0.0
C634 C 0.4197 0.29815 0.33317 0.0
C635 C 0.43277 0.27807 0.33216 0.0
C636 C 0.40601 0.30436 0.31292 0.0
C637 C 0.40692 0.2908 0.29148 0.0
H638 H 0.41999 0.25951 0.27542 0.0
H639 H 0.44244 0.27255 0.34813 0.0
C640 C 0.49043 0.20033 0.38731 0.0
N641 N 0.46875 0.20587 0.38025 0.0
C642 C 0.49589 0.19866 0.41232 0.0
C643 C 0.45653 0.20824 0.42217 0.0
C644 C 0.45188 0.20983 0.39701 0.0
C645 C 0.4788 0.20269 0.43011 0.0
H646 H 0.50346 0.19727 0.37348 0.0
H647 H 0.43484 0.2144 0.39081 0.0
C648 C 0.44966 0.20496 0.26246 0.0
N649 N 0.45194 0.18251 0.21761 0.0
C650 C 0.45689 0.18204 0.2613 0.0
C651 C 0.44356 0.21646 0.24081 0.0
C652 C 0.45793 0.17099 0.23846 0.0
C653 C 0.44484 0.20482 0.21831 0.0
C654 C 0.47153 0.16053 0.3318 0.0
C655 C 0.48328 0.1448 0.3169 0.0
C656 C 0.46262 0.15328 0.35445 0.0
C657 C 0.48568 0.12202 0.32477 0.0
C658 C 0.46539 0.13036 0.36167 0.0
N659 N 0.47676 0.11533 0.3468 0.0
C660 C 0.52065 0.19126 0.29677 0.0
C661 C 0.50778 0.21277 0.26232 0.0
C662 C 0.54003 0.18402 0.28385 0.0
N663 N 0.50476 0.20487 0.28569 0.0
C664 C 0.52701 0.206 0.24869 0.0
C665 C 0.54321 0.191 0.25927 0.0
H666 H 0.51777 0.18527 0.31539 0.0
H667 H 0.49494 0.22372 0.25398 0.0
C668 C 0.40049 0.18077 0.28531 0.0
N669 N 0.41689 0.17269 0.30091 0.0
C670 C 0.38352 0.16607 0.27616 0.0
C671 C 0.40059 0.13495 0.29929 0.0
C672 C 0.41707 0.15028 0.30813 0.0
C673 C 0.38352 0.14273 0.28299 0.0
H674 H 0.40062 0.1987 0.27991 0.0
H675 H 0.43003 0.14407 0.32055 0.0
O676 O 0.47774 0.23464 0.32909 0.0
O677 O 0.4294 0.21582 0.33858 0.0
O678 O 0.4486 0.21628 0.28457 0.0
O679 O 0.46933 0.18299 0.32452 0.0
H680 H 0.51014 0.25629 0.35396 0.0
H681 H 0.47434 0.25344 0.28458 0.0
H682 H 0.53341 0.28879 0.33773 0.0
H683 H 0.49821 0.28588 0.26961 0.0
H684 H 0.37446 0.16769 0.36832 0.0
H685 H 0.39343 0.23564 0.3176 0.0
H686 H 0.41502 0.18036 0.3651 0.0
H687 H 0.35324 0.22208 0.32174 0.0
H688 H 0.41964 0.30827 0.34995 0.0
H689 H 0.39641 0.29485 0.27559 0.0
H690 H 0.51322 0.19415 0.41768 0.0
H691 H 0.44295 0.21181 0.43526 0.0
H692 H 0.4616 0.17286 0.27782 0.0
H693 H 0.43798 0.23424 0.24138 0.0
H694 H 0.4635 0.15325 0.23732 0.0
H695 H 0.4402 0.21352 0.2014 0.0
H696 H 0.49048 0.1501 0.29942 0.0
H697 H 0.45343 0.1651 0.36621 0.0
H698 H 0.49467 0.10967 0.31338 0.0
H699 H 0.45848 0.12451 0.37908 0.0
H700 H 0.55181 0.17222 0.29271 0.0
H701 H 0.52892 0.21207 0.22993 0.0
H702 H 0.37056 0.17295 0.2639 0.0
H703 H 0.4016 0.11705 0.30476 0.0
Li704 Li 0.71341 0.97102 0.80042 0.0
Li705 Li 0.71779 0.9573 0.84129 0.0
Li706 Li 0.74445 0.94251 0.81001 0.0
Li707 Li 0.70288 0.93124 0.8109 0.0
C708 C 0.7489 0.9897 0.83878 0.0
N709 N 0.76385 0.01848 0.87602 0.0
C710 C 0.73754 0.01048 0.84334 0.0
C711 C 0.76794 0.98362 0.85303 0.0
C712 C 0.74537 0.02479 0.86226 0.0
C713 C 0.77519 0.99838 0.87183 0.0
C714 C 0.67242 0.96911 0.8371 0.0
C715 C 0.64549 0.96508 0.87058 0.0
N716 N 0.63891 0.98736 0.86739 0.0
C717 C 0.66532 0.99194 0.83406 0.0
C718 C 0.66235 0.95551 0.8554 0.0
C719 C 0.64837 0.00085 0.84959 0.0
C720 C 0.68311 0.99335 0.76922 0.0
N721 N 0.70383 0.99597 0.78032 0.0
C722 C 0.70639 0.03487 0.76626 0.0
C723 C 0.71583 0.01598 0.77863 0.0
C724 C 0.68451 0.03297 0.75545 0.0
C725 C 0.6732 0.0116 0.75642 0.0
H726 H 0.67392 0.97725 0.77104 0.0
H727 H 0.73233 0.01753 0.78762 0.0
C728 C 0.73042 0.95267 0.89107 0.0
N729 N 0.71724 0.96556 0.87563 0.0
C730 C 0.73215 0.95842 0.91601 0.0
C731 C 0.70635 0.99032 0.90888 0.0
C732 C 0.70553 0.98427 0.88402 0.0
C733 C 0.7199 0.9774 0.92512 0.0
H734 H 0.73998 0.93818 0.88389 0.0
H735 H 0.69608 0.99497 0.87138 0.0
C736 C 0.71812 0.94751 0.75871 0.0
N737 N 0.70998 0.9612 0.71075 0.0
C738 C 0.69864 0.93967 0.74623 0.0
C739 C 0.73351 0.96225 0.74679 0.0
C740 C 0.69483 0.94679 0.72198 0.0
C741 C 0.72907 0.969 0.72255 0.0
C742 C 0.72352 0.90329 0.84302 0.0
C743 C 0.73556 0.88519 0.83202 0.0
C744 C 0.70725 0.8986 0.86126 0.0
C745 C 0.73089 0.86258 0.83927 0.0
C746 C 0.70308 0.87576 0.868 0.0
N747 N 0.71487 0.85838 0.85694 0.0
C748 C 0.7861 0.92242 0.82334 0.0
C749 C 0.78136 0.92685 0.7802 0.0
C750 C 0.80617 0.90973 0.81976 0.0
N751 N 0.774 0.93032 0.80368 0.0
C752 C 0.80142 0.91432 0.77576 0.0
C753 C 0.81381 0.90506 0.79568 0.0
H754 H 0.77949 0.92494 0.84177 0.0
H755 H 0.77118 0.93295 0.7649 0.0
C756 C 0.65936 0.9105 0.80649 0.0
N757 N 0.68218 0.90705 0.80291 0.0
C758 C 0.64347 0.89412 0.79858 0.0
C759 C 0.67484 0.87077 0.78357 0.0
C760 C 0.69014 0.88769 0.79169 0.0
C761 C 0.6511 0.874 0.78671 0.0
H762 H 0.65341 0.92635 0.8147 0.0
H763 H 0.70834 0.88569 0.78842 0.0
O764 O 0.74116 0.97519 0.82075 0.0
O765 O 0.68886 0.96003 0.82195 0.0
O766 O 0.72189 0.94115 0.78262 0.0
O767 O 0.72762 0.92551 0.83597 0.0
H768 H 0.72257 0.01528 0.83272 0.0
H769 H 0.77687 0.96758 0.84977 0.0
H770 H 0.73665 0.04084 0.86613 0.0
H771 H 0.78981 0.99383 0.88312 0.0
H772 H 0.63761 0.95479 0.88488 0.0
H773 H 0.67297 0.00276 0.82008 0.0
H774 H 0.66752 0.93779 0.85787 0.0
H775 H 0.64279 0.01852 0.84754 0.0
H776 H 0.71568 0.05102 0.76613 0.0
H777 H 0.65657 0.00913 0.74791 0.0
H778 H 0.74286 0.94815 0.92807 0.0
H779 H 0.69704 0.00534 0.91523 0.0
H780 H 0.68649 0.92836 0.75524 0.0
H781 H 0.74853 0.96868 0.75632 0.0
H782 H 0.67979 0.94093 0.71211 0.0
H783 H 0.74075 0.98051 0.71314 0.0
H784 H 0.74816 0.88853 0.81781 0.0
H785 H 0.69799 0.91245 0.87013 0.0
H786 H 0.73997 0.84838 0.83081 0.0
H787 H 0.69048 0.87186 0.88204 0.0
H788 H 0.81486 0.90259 0.83566 0.0
H789 H 0.80676 0.9113 0.75692 0.0
H790 H 0.62535 0.89768 0.80087 0.0
H791 H 0.68152 0.85552 0.7746 0.0
Li792 Li 0.93107 0.29703 0.19268 0.0
Li793 Li 0.97088 0.28608 0.19622 0.0
Li794 Li 0.95104 0.28499 0.15401 0.0
Li795 Li 0.94203 0.25757 0.18638 0.0
C796 C 0.95173 0.3342 0.17644 0.0
N797 N 0.93718 0.37943 0.1784 0.0
C798 C 0.96056 0.34908 0.19432 0.0
C799 C 0.93562 0.34232 0.15945 0.0
C800 C 0.95296 0.3719 0.19503 0.0
C801 C 0.92845 0.36525 0.16078 0.0
C802 C 0.95272 0.26661 0.23876 0.0
C803 C 0.9715 0.23588 0.26091 0.0
N804 N 0.96931 0.24805 0.2822 0.0
C805 C 0.95041 0.27867 0.26094 0.0
C806 C 0.96314 0.24494 0.23882 0.0
C807 C 0.959 0.26906 0.28267 0.0
C808 C 0.88929 0.32288 0.19353 0.0
N809 N 0.90926 0.31829 0.20553 0.0
C810 C 0.90032 0.34592 0.23668 0.0
C811 C 0.915 0.32943 0.22666 0.0
C812 C 0.87951 0.35105 0.2248 0.0
C813 C 0.87405 0.33929 0.20292 0.0
H814 H 0.88533 0.314 0.17653 0.0
H815 H 0.9313 0.32589 0.23538 0.0
C816 C 0.01886 0.29066 0.19878 0.0
N817 N 0.99905 0.29443 0.21137 0.0
C818 C 0.03959 0.29946 0.20758 0.0
C819 C 0.01919 0.31576 0.24224 0.0
C820 C 0.99885 0.30654 0.23281 0.0
C821 C 0.03987 0.31265 0.22931 0.0
H822 H 0.01844 0.28153 0.18142 0.0
H823 H 0.98274 0.31005 0.24194 0.0
C824 C 0.90046 0.26417 0.16611 0.0
N825 N 0.86139 0.2372 0.16721 0.0
C826 C 0.88739 0.26264 0.18766 0.0
C827 C 0.89355 0.25215 0.14506 0.0
C828 C 0.86771 0.2489 0.18785 0.0
C829 C 0.87378 0.23854 0.14602 0.0
C830 C 0.98501 0.24275 0.16738 0.0
C831 C 0.98537 0.23071 0.14506 0.0
C832 C 0.99884 0.23525 0.18685 0.0
C833 C 0.99886 0.21092 0.1429 0.0
C834 C 0.01212 0.2154 0.18398 0.0
N835 N 0.01182 0.20371 0.16226 0.0
C836 C 0.96462 0.30873 0.11069 0.0
C837 C 0.94953 0.27121 0.10464 0.0
C838 C 0.9692 0.31083 0.0855 0.0
N839 N 0.95511 0.28907 0.11968 0.0
C840 C 0.95413 0.27243 0.07944 0.0
C841 C 0.96429 0.29235 0.06966 0.0
H842 H 0.96915 0.32255 0.12314 0.0
H843 H 0.94207 0.25577 0.11235 0.0
C844 C 0.91889 0.21935 0.20865 0.0
N845 N 0.93086 0.22666 0.18859 0.0
C846 C 0.90604 0.19905 0.20752 0.0
C847 C 0.91879 0.19382 0.1655 0.0
C848 C 0.93134 0.21415 0.16743 0.0
C849 C 0.9053 0.18644 0.18543 0.0
H850 H 0.91793 0.2301 0.22489 0.0
H851 H 0.93996 0.2209 0.15138 0.0
O852 O 0.95836 0.31162 0.17594 0.0
O853 O 0.94449 0.27591 0.2173 0.0
O854 O 0.92029 0.2768 0.1659 0.0
O855 O 0.97213 0.26241 0.16968 0.0
H856 H 0.97298 0.34303 0.20765 0.0
H857 H 0.92847 0.33093 0.14564 0.0
H858 H 0.95955 0.38359 0.20885 0.0
H859 H 0.91586 0.37173 0.14787 0.0
H860 H 0.97964 0.21914 0.26114 0.0
H861 H 0.94215 0.29533 0.26141 0.0
H862 H 0.96452 0.23504 0.22206 0.0
H863 H 0.95745 0.2783 0.29991 0.0
H864 H 0.9055 0.35495 0.25324 0.0
H865 H 0.85816 0.34265 0.19321 0.0
H866 H 0.05514 0.29649 0.19711 0.0
H867 H 0.01848 0.32621 0.25876 0.0
H868 H 0.89266 0.2716 0.20422 0.0
H869 H 0.90345 0.25311 0.12825 0.0
H870 H 0.85755 0.2474 0.20446 0.0
H871 H 0.86833 0.22898 0.12993 0.0
H872 H 0.97528 0.23651 0.12956 0.0
H873 H -0.00042 0.24477 0.20394 0.0
H874 H 0.99908 0.20134 0.1258 0.0
H875 H 0.02279 0.20937 0.19897 0.0
H876 H 0.97725 0.32637 0.07863 0.0
H877 H 0.95 0.25788 0.06775 0.0
H878 H 0.89552 0.1942 0.22314 0.0
H879 H 0.91867 0.18461 0.14813 0.0
Li880 Li 0.25526 0.05908 0.81423 0.0
Li881 Li 0.29599 0.06792 0.81398 0.0
Li882 Li 0.28165 0.02799 0.80818 0.0
Li883 Li 0.27959 0.04565 0.84848 0.0
C884 C 0.26612 0.06236 0.76627 0.0
N885 N 0.24255 0.07728 0.72508 0.0
C886 C 0.26729 0.08544 0.75909 0.0
C887 C 0.25336 0.04677 0.75222 0.0
C888 C 0.25513 0.09268 0.7383 0.0
C889 C 0.24147 0.05467 0.73153 0.0
C890 C 0.28187 0.09291 0.85527 0.0
C891 C 0.31361 0.10589 0.8802 0.0
N892 N 0.30011 0.12282 0.88969 0.0
C893 C 0.26831 0.11043 0.86524 0.0
C894 C 0.30471 0.0906 0.86276 0.0
C895 C 0.27785 0.12539 0.88263 0.0
C896 C 0.20625 0.06172 0.80795 0.0
N897 N 0.22668 0.07298 0.80657 0.0
C898 C 0.20774 0.10837 0.79725 0.0
C899 C 0.22774 0.09585 0.80144 0.0
C900 C 0.18634 0.09734 0.79884 0.0
C901 C 0.1857 0.07367 0.80413 0.0
H902 H 0.2058 0.04367 0.81271 0.0
H903 H 0.24419 0.1045 0.80127 0.0
C904 C 0.33895 0.08264 0.7964 0.0
N905 N 0.31806 0.09008 0.80412 0.0
C906 C 0.35545 0.09843 0.78851 0.0
C907 C 0.32851 0.12924 0.79644 0.0
C908 C 0.31256 0.11284 0.80428 0.0
C909 C 0.35031 0.12209 0.78842 0.0
H910 H 0.34266 0.06441 0.79607 0.0
H911 H 0.29569 0.11823 0.81031 0.0
C912 C 0.24289 0.00883 0.82871 0.0
N913 N 0.21915 0.96788 0.82376 0.0
C914 C 0.24166 0.9934 0.84845 0.0
C915 C 0.23185 0.00354 0.80656 0.0
C916 C 0.22962 0.97276 0.84555 0.0
C917 C 0.21999 0.98272 0.80439 0.0
C918 C 0.32014 0.02034 0.8373 0.0
C919 C 0.30923 0.00248 0.84998 0.0
C920 C 0.34369 0.01897 0.83263 0.0
C921 C 0.32205 0.98351 0.85776 0.0
C922 C 0.35593 -0.0003 0.84071 0.0
N923 N 0.34495 0.98251 0.85299 0.0
C924 C 0.30013 0.00314 0.76913 0.0
C925 C 0.28549 0.97898 0.80062 0.0
C926 C 0.30908 0.98415 0.75663 0.0
N927 N 0.28887 0.0003 0.79085 0.0
C928 C 0.294 0.95949 0.78865 0.0
C929 C 0.3064 0.96201 0.76663 0.0
H930 H 0.30289 0.0203 0.76196 0.0
H931 H 0.27715 0.97707 0.81824 0.0
C932 C 0.26052 0.03833 0.89524 0.0
N933 N 0.28076 0.04098 0.88313 0.0
C934 C 0.26032 0.03384 0.92051 0.0
C935 C 0.3018 0.0354 0.92046 0.0
C936 C 0.30119 0.03996 0.89521 0.0
C937 C 0.28117 0.03207 0.93339 0.0
H938 H 0.24455 0.03936 0.88513 0.0
H939 H 0.31704 0.04242 0.88519 0.0
O940 O 0.27771 0.055 0.78672 0.0
O941 O 0.27268 0.07814 0.83827 0.0
O942 O 0.25473 0.02905 0.83117 0.0
O943 O 0.30786 0.03897 0.82924 0.0
H944 H 0.27729 0.09768 0.76961 0.0
H945 H 0.25279 0.02873 0.75712 0.0
H946 H 0.25569 0.11055 0.73267 0.0
H947 H 0.23143 0.04281 0.72055 0.0
H948 H 0.33126 0.1043 0.88617 0.0
H949 H 0.2506 0.11243 0.85959 0.0
H950 H 0.31549 0.07718 0.85521 0.0
H951 H 0.26755 0.13903 0.89052 0.0
H952 H 0.20898 0.12671 0.79384 0.0
H953 H 0.16951 0.06461 0.80567 0.0
H954 H 0.37189 0.09214 0.78205 0.0
H955 H 0.3239 0.14731 0.79678 0.0
H956 H 0.25002 0.99723 0.86578 0.0
H957 H 0.23243 0.01538 0.79123 0.0
H958 H 0.22862 0.96061 0.86063 0.0
H959 H 0.21145 0.97838 0.78731 0.0
H960 H 0.29104 0.00322 0.85368 0.0
H961 H 0.35245 0.03263 0.82288 0.0
H962 H 0.31378 0.96956 0.86754 0.0
H963 H 0.37417 0.99841 0.8372 0.0
H964 H 0.31848 0.98679 0.73964 0.0
H965 H 0.29191 0.94276 0.79718 0.0
H966 H 0.24404 0.03119 0.92973 0.0
H967 H 0.31822 0.03451 0.92976 0.0
Li968 Li 0.02934 0.71154 0.19674 0.0
Li969 Li 0.06656 0.69858 0.18623 0.0
Li970 Li 0.05681 0.73966 0.18574 0.0
Li971 Li 0.04063 0.71416 0.1532 0.0
C972 C 0.05309 0.71653 0.23837 0.0
N973 N 0.04167 0.71198 0.28758 0.0
C974 C 0.06208 0.69836 0.25227 0.0
C975 C 0.03844 0.73247 0.24957 0.0
C976 C 0.05607 0.69635 0.27711 0.0
C977 C 0.03282 0.72984 0.27444 0.0
C978 C 0.02021 0.67065 0.17673 0.0
C979 C 0.98083 0.65943 0.17008 0.0
N980 N 0.98408 0.64074 0.18478 0.0
C981 C 0.0232 0.65128 0.19169 0.0
C982 C 0.9989 0.67471 0.16573 0.0
C983 C 0.00472 0.63637 0.19554 0.0
C984 C 0.98277 0.71399 0.21214 0.0
N985 N 0.00338 0.70393 0.21685 0.0
C986 C 0.98625 0.67896 0.24662 0.0
C987 C 0.00542 0.68682 0.23381 0.0
C988 C 0.96463 0.68855 0.24167 0.0
C989 C 0.96303 0.7065 0.22439 0.0
H990 H 0.98152 0.72724 0.1982 0.0
H991 H 0.02177 0.67847 0.2366 0.0
C992 C 0.10803 0.68403 0.20755 0.0
N993 N 0.09009 0.677 0.19343 0.0
C994 C 0.12466 0.66827 0.21517 0.0
C995 C 0.1043 0.63844 0.19305 0.0
C996 C 0.08822 0.65486 0.18561 0.0
C997 C 0.12263 0.64497 0.20845 0.0
H998 H 0.10907 0.70181 0.21343 0.0
H999 H 0.07388 0.64983 0.17417 0.0
C1000 C 0.01936 0.7601 0.17147 0.0
N1001 N 0.0107 0.80669 0.16701 0.0
C1002 C 0.02367 0.77138 0.14919 0.0
C1003 C 0.01051 0.77247 0.19142 0.0
C1004 C 0.01921 0.79496 0.14732 0.0
C1005 C 0.00629 0.79602 0.18881 0.0
C1006 C 0.09622 0.71766 0.15631 0.0
C1007 C 0.11285 0.73111 0.16809 0.0
C1008 C 0.10307 0.69886 0.14197 0.0
C1009 C 0.13604 0.72566 0.16513 0.0
C1010 C 0.12643 0.69393 0.13952 0.0
N1011 N 0.1423 0.70733 0.15103 0.0
C1012 C 0.07246 0.77743 0.21441 0.0
C1013 C 0.07667 0.7817 0.17121 0.0
C1014 C 0.08461 0.79778 0.21852 0.0
N1015 N 0.0691 0.76963 0.19107 0.0
C1016 C 0.08897 0.8021 0.17446 0.0
C1017 C 0.0936 0.81008 0.19842 0.0
H1018 H 0.0666 0.76737 0.22989 0.0
H1019 H 0.07416 0.77483 0.15287 0.0
C1020 C 0.00905 0.72016 0.1146 0.0
N1021 N 0.03044 0.71221 0.11992 0.0
C1022 C 0.00063 0.71909 0.09053 0.0
C1023 C 0.03638 0.70164 0.07781 0.0
C1024 C 0.04411 0.70307 0.10214 0.0
C1025 C 0.01434 0.70972 0.07172 0.0
H1026 H 0.99853 0.72738 0.12909 0.0
H1027 H 0.06098 0.69681 0.10683 0.0
O1028 O 0.05879 0.71877 0.21402 0.0
O1029 O 0.03791 0.6858 0.17325 0.0
O1030 O 0.02407 0.73714 0.17384 0.0
O1031 O 0.07338 0.7224 0.15943 0.0
H1032 H 0.07336 0.68579 0.24394 0.0
H1033 H 0.03128 0.74658 0.2391 0.0
H1034 H 0.0628 0.68232 0.28804 0.0
H1035 H 0.02138 0.74197 0.28328 0.0
H1036 H 0.96419 0.66248 0.16186 0.0
H1037 H 0.03948 0.64801 0.20062 0.0
H1038 H 0.99624 0.68972 0.15431 0.0
H1039 H 0.00673 0.62141 0.20722 0.0
H1040 H 0.98816 0.66474 0.25937 0.0
H1041 H 0.94664 0.71432 0.22005 0.0
H1042 H 0.13869 0.67423 0.2266 0.0
H1043 H 0.10183 0.62068 0.18758 0.0
H1044 H 0.03073 0.76212 0.13364 0.0
H1045 H 0.00696 0.76397 0.20874 0.0
H1046 H 0.0226 0.80395 0.13024 0.0
H1047 H -0.00048 0.80583 0.20413 0.0
H1048 H 0.10797 0.74542 0.17969 0.0
H1049 H 0.09049 0.68783 0.13331 0.0
H1050 H 0.14907 0.7359 0.17418 0.0
H1051 H 0.13194 0.67935 0.1286 0.0
H1052 H 0.08759 0.80342 0.23728 0.0
H1053 H 0.09589 0.81077 0.15843 0.0
H1054 H 0.98367 0.72581 0.08666 0.0
H1055 H 0.04743 0.69402 0.06398 0.0
Li1056 Li 0.70035 0.06323 0.18013 0.0
Li1057 Li 0.74059 0.05093 0.18009 0.0
Li1058 Li 0.71393 0.0373 0.14832 0.0
Li1059 Li 0.71135 0.02377 0.19105 0.0
C1060 C 0.72103 0.09177 0.14959 0.0
N1061 N 0.71374 0.13807 0.14088 0.0
C1062 C 0.73521 0.10825 0.1606 0.0
C1063 C 0.70327 0.09881 0.13401 0.0
C1064 C 0.73122 0.13158 0.15599 0.0
C1065 C 0.69982 0.1223 0.1299 0.0
C1066 C 0.71565 0.04724 0.23218 0.0
C1067 C 0.72673 0.02722 0.26925 0.0
N1068 N 0.70692 0.03418 0.28023 0.0
C1069 C 0.69545 0.0543 0.24385 0.0
C1070 C 0.73149 0.0337 0.24499 0.0
C1071 C 0.69134 0.04748 0.26815 0.0
C1072 C 0.65721 0.08528 0.18454 0.0
N1073 N 0.6801 0.0877 0.18855 0.0
C1074 C 0.67397 0.12342 0.20944 0.0
C1075 C 0.68869 0.10632 0.20062 0.0
C1076 C 0.65013 0.12113 0.20618 0.0
C1077 C 0.64185 0.10188 0.19319 0.0
H1078 H 0.65077 0.07003 0.17547 0.0
H1079 H 0.70693 0.10753 0.20406 0.0
C1080 C 0.78455 0.06507 0.16547 0.0
N1081 N 0.77078 0.06211 0.18542 0.0
C1082 C 0.80538 0.07669 0.16777 0.0
C1083 C 0.79766 0.08173 0.21123 0.0
C1084 C 0.77705 0.06977 0.20812 0.0
C1085 C 0.81186 0.08586 0.19074 0.0
H1086 H 0.77885 0.05931 0.14753 0.0
H1087 H 0.7655 0.06767 0.22354 0.0
C1088 C 0.67008 0.02482 0.15419 0.0
N1089 N 0.63869 0.00514 0.12233 0.0
C1090 C 0.66408 0.00163 0.15671 0.0
C1091 C 0.66 0.03804 0.13559 0.0
C1092 C 0.64819 0.992 0.1404 0.0
C1093 C 0.64422 0.02776 0.11962 0.0
C1094 C 0.75862 0.01226 0.16373 0.0
C1095 C 0.76771 0.0117 0.1399 0.0
C1096 C 0.7725 0.00649 0.1838 0.0
C1097 C 0.7907 0.00559 0.13658 0.0
C1098 C 0.79541 0.00051 0.17972 0.0
N1099 N 0.80397 0.0002 0.15639 0.0
C1100 C 0.71715 0.04352 0.0967 0.0
C1101 C 0.70457 0.00648 0.10928 0.0
C1102 C 0.7159 0.037 0.07194 0.0
N1103 N 0.71136 0.02831 0.11472 0.0
C1104 C 0.70252 0.99944 0.08479 0.0
C1105 C 0.70831 0.01479 0.06588 0.0
H1106 H 0.72294 0.06061 0.10156 0.0
H1107 H 0.70082 0.99452 0.12399 0.0
C1108 C 0.68247 0.99954 0.22295 0.0
N1109 N 0.70278 0.99819 0.21072 0.0
C1110 C 0.67406 0.98053 0.23577 0.0
C1111 C 0.70764 0.95904 0.22319 0.0
C1112 C 0.71552 0.97858 0.21077 0.0
C1113 C 0.68652 0.95982 0.23567 0.0
H1114 H 0.67244 0.01518 0.22201 0.0
H1115 H 0.73144 0.97791 0.20055 0.0
O1116 O 0.72443 0.06886 0.15415 0.0
O1117 O 0.71982 0.05339 0.20828 0.0
O1118 O 0.68579 0.03451 0.1698 0.0
O1119 O 0.73624 0.01846 0.16739 0.0
H1120 H 0.74899 0.10313 0.17277 0.0
H1121 H 0.6922 0.08626 0.12529 0.0
H1122 H 0.74198 0.14453 0.16447 0.0
H1123 H 0.68606 0.12801 0.11797 0.0
H1124 H 0.73877 0.01663 0.27934 0.0
H1125 H 0.68296 0.06471 0.23419 0.0
H1126 H 0.7472 0.02811 0.23621 0.0
H1127 H 0.67572 0.05271 0.27738 0.0
H1128 H 0.68117 0.13802 0.21917 0.0
H1129 H 0.62363 0.09908 0.19067 0.0
H1130 H 0.8159 0.07918 0.15154 0.0
H1131 H 0.80175 0.08877 0.22918 0.0
H1132 H 0.67177 0.9911 0.17092 0.0
H1133 H 0.66446 0.056 0.13338 0.0
H1134 H 0.64346 0.97404 0.14205 0.0
H1135 H 0.63639 0.03776 0.10505 0.0
H1136 H 0.7572 0.0161 0.12415 0.0
H1137 H 0.76569 0.00681 0.20235 0.0
H1138 H 0.79802 0.0052 0.11826 0.0
H1139 H 0.8064 0.99613 0.19509 0.0
H1140 H 0.7206 0.04918 0.05768 0.0
H1141 H 0.69688 0.98208 0.08064 0.0
H1142 H 0.65749 0.98173 0.24473 0.0
H1143 H 0.71776 0.94339 0.22273 0.0
Li1144 Li 0.03974 0.28567 0.8517 0.0
Li1145 Li 0.05707 0.26421 0.81762 0.0
Li1146 Li 0.06627 0.30426 0.82515 0.0
Li1147 Li 0.02813 0.29343 0.80971 0.0
C1148 C 0.09335 0.28291 0.85673 0.0
N1149 N 0.13585 0.29453 0.8757 0.0
C1150 C 0.11259 0.26946 0.8513 0.0
C1151 C 0.09568 0.30202 0.87221 0.0
C1152 C 0.13394 0.27567 0.86097 0.0
C1153 C 0.11732 0.30769 0.8815 0.0
C1154 C 0.01822 0.24412 0.83965 0.0
C1155 C 0.9921 0.21245 0.84604 0.0
N1156 N 0.00657 0.20361 0.86328 0.0
C1157 C 0.03285 0.23472 0.85746 0.0
C1158 C 0.99767 0.23293 0.83392 0.0
C1159 C 0.02664 0.21423 0.86919 0.0
C1160 C 0.00605 0.28591 0.88944 0.0
N1161 N 0.02887 0.2835 0.88479 0.0
C1162 C 0.03656 0.27736 0.92753 0.0
C1163 C 0.04408 0.27908 0.90319 0.0
C1164 C 0.01321 0.28042 0.93294 0.0
C1165 C 0.99784 0.28477 0.91359 0.0
H1166 H 0.99423 0.28868 0.87437 0.0
H1167 H 0.06203 0.2767 0.89896 0.0
C1168 C 0.09205 0.23986 0.79609 0.0
N1169 N 0.07071 0.23658 0.80553 0.0
C1170 C 0.10516 0.22116 0.78832 0.0
C1171 C 0.07356 0.19599 0.79869 0.0
C1172 C 0.061 0.21527 0.80623 0.0
C1173 C 0.09615 0.19878 0.79006 0.0
H1174 H 0.09916 0.25706 0.79535 0.0
H1175 H 0.04372 0.21305 0.81294 0.0
C1176 C 0.0229 0.32837 0.85163 0.0
N1177 N 0.99591 0.35238 0.88476 0.0
C1178 C 0.9992 0.33005 0.84794 0.0
C1179 C 0.03289 0.33921 0.87199 0.0
C1180 C 0.98585 0.3422 0.86493 0.0
C1181 C 0.01895 0.35116 0.88859 0.0
C1182 C 0.05535 0.28084 0.7701 0.0
C1183 C 0.06902 0.28871 0.7507 0.0
C1184 C 0.03862 0.26407 0.76567 0.0
C1185 C 0.06569 0.27968 0.72709 0.0
C1186 C 0.03583 0.25548 0.7418 0.0
N1187 N 0.04931 0.26339 0.72317 0.0
C1188 C 0.11051 0.32085 0.81278 0.0
C1189 C 0.08414 0.34918 0.82648 0.0
C1190 C 0.12706 0.33772 0.80818 0.0
N1191 N 0.08954 0.32689 0.82165 0.0
C1192 C 0.10006 0.36661 0.82195 0.0
C1193 C 0.12179 0.36105 0.81235 0.0
H1194 H 0.11421 0.30297 0.80882 0.0
H1195 H 0.06718 0.35352 0.83308 0.0
C1196 C 0.98287 0.29414 0.78986 0.0
N1197 N 0.00435 0.30317 0.78846 0.0
C1198 C 0.96514 0.30345 0.77566 0.0
C1199 C 0.99231 0.3304 0.7582 0.0
C1200 C 0.00944 0.32068 0.77281 0.0
C1201 C 0.96969 0.32216 0.75992 0.0
H1202 H 0.97936 0.28033 0.80268 0.0
H1203 H 0.02673 0.32744 0.77216 0.0
O1204 O 0.07232 0.27729 0.84718 0.0
O1205 O 0.02364 0.26436 0.8281 0.0
O1206 O 0.03624 0.31633 0.83532 0.0
O1207 O 0.05855 0.28948 0.79331 0.0
H1208 H 0.11108 0.25429 0.83989 0.0
H1209 H 0.08095 0.31243 0.87685 0.0
H1210 H 0.14898 0.26546 0.85681 0.0
H1211 H 0.11937 0.32256 0.89331 0.0
H1212 H 0.97625 0.2036 0.84176 0.0
H1213 H 0.04886 0.243 0.86214 0.0
H1214 H 0.98614 0.23999 0.82022 0.0
H1215 H 0.0378 0.20677 0.88297 0.0
H1216 H 0.0489 0.27395 0.94201 0.0
H1217 H 0.97965 0.28687 0.91707 0.0
H1218 H 0.12254 0.22417 0.78203 0.0
H1219 H 0.06582 0.17907 0.79991 0.0
H1220 H 0.99113 0.32188 0.83231 0.0
H1221 H 0.0512 0.33842 0.87499 0.0
H1222 H 0.96748 0.34348 0.86239 0.0
H1223 H 0.02646 0.35949 0.90451 0.0
H1224 H 0.08207 0.30165 0.75388 0.0
H1225 H 0.02792 0.2577 0.78045 0.0
H1226 H 0.07615 0.28562 0.71189 0.0
H1227 H 0.02296 0.2425 0.7381 0.0
H1228 H 0.14364 0.33257 0.80105 0.0
H1229 H 0.095 0.38433 0.82498 0.0
H1230 H 0.94791 0.29673 0.77776 0.0
H1231 H 0.99666 0.34453 0.74604 0.0
Li1232 Li 0.28544 0.95809 0.15174 0.0
Li1233 Li 0.2857 0.9719 0.19434 0.0
Li1234 Li 0.29805 0.93277 0.18411 0.0
Li1235 Li 0.25762 0.9441 0.18157 0.0
C1236 C 0.32687 0.97324 0.15871 0.0
N1237 N 0.35499 0.99637 0.12601 0.0
C1238 C 0.32887 0.99721 0.15995 0.0
C1239 C 0.33925 0.96103 0.14092 0.0
C1240 C 0.34318 0.00858 0.14325 0.0
C1241 C 0.35333 0.97304 0.12452 0.0
C1242 C 0.23955 0.98221 0.16491 0.0
C1243 C 0.20256 0.99509 0.17929 0.0
N1244 N 0.19402 0.99259 0.15611 0.0
C1245 C 0.23046 0.97986 0.1412 0.0
C1246 C 0.22556 0.98998 0.1841 0.0
C1247 C 0.20738 0.98517 0.13714 0.0
C1248 C 0.29221 0.95158 0.10034 0.0
N1249 N 0.28933 0.96747 0.11846 0.0
C1250 C 0.2906 0.99813 0.08915 0.0
C1251 C 0.2885 0.99037 0.11338 0.0
C1252 C 0.29354 0.98212 0.06999 0.0
C1253 C 0.29447 0.95857 0.07584 0.0
H1254 H 0.29246 0.93347 0.10485 0.0
H1255 H 0.28604 0.00259 0.12821 0.0
C1256 C 0.31165 0.99491 0.22967 0.0
N1257 N 0.2932 0.99745 0.2146 0.0
C1258 C 0.31961 0.01344 0.24354 0.0
C1259 C 0.28986 0.03717 0.22559 0.0
C1260 C 0.28214 0.01797 0.21239 0.0
C1261 C 0.3089 0.03497 0.24129 0.0
H1262 H 0.32061 0.97863 0.23032 0.0
H1263 H 0.26785 0.01961 0.1998 0.0
C1264 C 0.27988 0.90324 0.15364 0.0
N1265 N 0.28919 0.85687 0.14799 0.0
C1266 C 0.26485 0.88676 0.16325 0.0
C1267 C 0.29963 0.89612 0.14113 0.0
C1268 C 0.26985 0.8634 0.16018 0.0
C1269 C 0.30405 0.8726 0.13851 0.0
C1270 C 0.27918 0.94787 0.23534 0.0
C1271 C 0.2976 0.93933 0.24909 0.0
C1272 C 0.26318 0.96245 0.24653 0.0
C1273 C 0.29981 0.9457 0.27382 0.0
C1274 C 0.26601 0.96844 0.27128 0.0
N1275 N 0.28411 0.96003 0.28429 0.0
C1276 C 0.34172 0.913 0.19048 0.0
C1277 C 0.31107 0.8898 0.20492 0.0
C1278 C 0.35774 0.89701 0.19896 0.0
N1279 N 0.31892 0.90918 0.19365 0.0
C1280 C 0.32651 0.87325 0.21357 0.0
C1281 C 0.35024 0.87687 0.21089 0.0
H1282 H 0.34752 0.92879 0.18202 0.0
H1283 H 0.29283 0.88744 0.20765 0.0
C1284 C 0.21597 0.92707 0.16375 0.0
N1285 N 0.22707 0.93316 0.18479 0.0
C1286 C 0.19459 0.91633 0.16487 0.0
C1287 C 0.19613 0.91896 0.20932 0.0
C1288 C 0.21752 0.92967 0.20732 0.0
C1289 C 0.18462 0.91166 0.18791 0.0
H1290 H 0.22422 0.92969 0.14611 0.0
H1291 H 0.22684 0.93444 0.22376 0.0
O1292 O 0.3125 0.96184 0.17447 0.0
O1293 O 0.26197 0.97665 0.16937 0.0
O1294 O 0.27547 0.92621 0.15673 0.0
O1295 O 0.27687 0.94205 0.21103 0.0
H1296 H 0.31933 0.00697 0.17348 0.0
H1297 H 0.33775 0.9425 0.13956 0.0
H1298 H 0.34482 0.02713 0.14393 0.0
H1299 H 0.36288 0.96383 0.11055 0.0
H1300 H 0.19149 0.00101 0.19399 0.0
H1301 H 0.24102 0.97373 0.12617 0.0
H1302 H 0.23236 0.99191 0.20254 0.0
H1303 H 0.20006 0.98331 0.11892 0.0
H1304 H 0.28998 0.01645 0.08545 0.0
H1305 H 0.29636 0.94565 0.06159 0.0
H1306 H 0.33465 0.01124 0.25506 0.0
H1307 H 0.28133 0.0536 0.22329 0.0
H1308 H 0.24961 0.8919 0.1732 0.0
H1309 H 0.31162 0.90862 0.13388 0.0
H1310 H 0.2584 0.85046 0.16758 0.0
H1311 H 0.31934 0.86686 0.12901 0.0
H1312 H 0.31018 0.92808 0.24074 0.0
H1313 H 0.24888 0.96927 0.23613 0.0
H1314 H 0.31403 0.93931 0.28465 0.0
H1315 H 0.25384 0.97983 0.28013 0.0
H1316 H 0.37584 0.90086 0.19699 0.0
H1317 H 0.31992 0.85795 0.22252 0.0
H1318 H 0.18657 0.91066 0.14792 0.0
H1319 H 0.18897 0.91584 0.22744 0.0
Li1320 Li 0.94682 0.7395 0.81217 0.0
Li1321 Li 0.96046 0.71357 0.84579 0.0
Li1322 Li 0.9726 0.70757 0.80234 0.0
Li1323 Li 0.93395 0.7008 0.81418 0.0
C1324 C 0.98881 0.75417 0.83233 0.0
N1325 N 0.00837 0.79465 0.84898 0.0
C1326 C 0.98066 0.76467 0.85379 0.0
C1327 C 0.00705 0.76415 0.81944 0.0
C1328 C 0.99072 0.78516 0.86187 0.0
C1329 C 0.01668 0.78465 0.82813 0.0
C1330 C 0.90652 0.72228 0.84374 0.0
C1331 C 0.87576 0.70478 0.86681 0.0
N1332 N 0.86025 0.7149 0.85152 0.0
C1333 C 0.8903 0.73255 0.82827 0.0
C1334 C 0.89924 0.7083 0.86319 0.0
C1335 C 0.86698 0.7286 0.8325 0.0
C1336 C 0.9336 0.781 0.78513 0.0
N1337 N 0.9367 0.77074 0.80744 0.0
C1338 C 0.91907 0.80273 0.82783 0.0
C1339 C 0.9299 0.78132 0.82858 0.0
C1340 C 0.91489 0.81333 0.80503 0.0
C1341 C 0.92274 0.80242 0.78351 0.0
H1342 H 0.93857 0.77238 0.76841 0.0
H1343 H 0.93185 0.7726 0.84605 0.0
C1344 C 0.9912 0.7025 0.88377 0.0
N1345 N 0.97025 0.71178 0.87904 0.0
C1346 C -0.00038 0.70185 0.90787 0.0
C1347 C 0.96462 0.72012 0.92173 0.0
C1348 C 0.95689 0.72044 0.89736 0.0
C1349 C 0.98632 0.71086 0.92723 0.0
H1350 H 0.00144 0.69581 0.86875 0.0
H1351 H 0.94045 0.72804 0.89297 0.0
C1352 C 0.95098 0.72806 0.76279 0.0
N1353 N 0.96456 0.74929 0.71956 0.0
C1354 C 0.93714 0.72683 0.74178 0.0
C1355 C 0.97182 0.74 0.76172 0.0
C1356 C 0.94427 0.73772 0.72013 0.0
C1357 C 0.97837 0.75062 0.73972 0.0
C1358 C 0.96428 0.66281 0.81789 0.0
C1359 C 0.95609 0.65691 0.79451 0.0
C1360 C 0.9758 0.64635 0.83203 0.0
C1361 C 0.95957 0.6346 0.78563 0.0
C1362 C 0.97894 0.62421 0.8225 0.0
N1363 N 0.97083 0.61885 0.7997 0.0
C1364 C 0.01877 0.69511 0.79366 0.0
C1365 C 0.99325 0.68616 0.76098 0.0
C1366 C 0.03672 0.6838 0.78158 0.0
N1367 N 0.99751 0.69579 0.78337 0.0
C1368 C 0.01063 0.67463 0.74833 0.0
C1369 C 0.03261 0.67295 0.75883 0.0
H1370 H 0.02155 0.70266 0.81165 0.0
H1371 H 0.97614 0.68671 0.75331 0.0
C1372 C 0.8958 0.68522 0.78754 0.0
N1373 N 0.90818 0.68133 0.80832 0.0
C1374 C 0.8781 0.6703 0.78087 0.0
C1375 C 0.88549 0.64822 0.8178 0.0
C1376 C 0.90326 0.66347 0.82361 0.0
C1377 C 0.87292 0.65124 0.79587 0.0
H1378 H 0.90011 0.69959 0.77578 0.0
H1379 H 0.91343 0.66082 0.84005 0.0
O1380 O 0.97921 0.73409 0.82406 0.0
O1381 O 0.92942 0.72546 0.83948 0.0
O1382 O 0.94432 0.71705 0.78394 0.0
O1383 O 0.96128 0.68459 0.82695 0.0
H1384 H 0.96659 0.7572 0.864 0.0
H1385 H 0.01377 0.75611 0.80295 0.0
H1386 H 0.9845 0.79352 0.87839 0.0
H1387 H 0.03078 0.79258 0.81832 0.0
H1388 H 0.86986 0.69391 0.88171 0.0
H1389 H 0.89567 0.74323 0.81297 0.0
H1390 H 0.9116 0.70001 0.87514 0.0
H1391 H 0.85422 0.73634 0.82062 0.0
H1392 H 0.91291 0.81026 0.84485 0.0
H1393 H 0.91992 0.81004 0.76555 0.0
H1394 H 0.01633 0.69434 0.91131 0.0
H1395 H 0.95395 0.72757 0.93601 0.0
H1396 H 0.92105 0.71753 0.74215 0.0
H1397 H 0.98284 0.74108 0.77762 0.0
H1398 H 0.93369 0.73693 0.70377 0.0
H1399 H 0.99443 0.75992 0.73869 0.0
H1400 H 0.94726 0.66946 0.78323 0.0
H1401 H 0.98228 0.65068 0.85015 0.0
H1402 H 0.95337 0.62983 0.76755 0.0
H1403 H 0.98784 0.6113 0.83323 0.0
H1404 H 0.05334 0.68269 0.79044 0.0
H1405 H 0.0068 0.66672 0.73072 0.0
H1406 H 0.86923 0.67322 0.76362 0.0
H1407 H 0.88192 0.63404 0.83016 0.0
H1408 H 0.32599 0.37366 0.33657 0.0
H1409 H 0.34458 0.39995 0.26488 0.0
H1410 H 0.37529 0.37137 0.26189 0.0
H1411 H 0.39622 0.3381 0.27936 0.0
H1412 H 0.37754 0.31292 0.35146 0.0
H1413 H 0.34798 0.3424 0.35485 0.0
C1414 C 0.33704 0.37358 0.32049 0.0
C1415 C 0.33294 0.38903 0.30101 0.0
C1416 C 0.35473 0.3573 0.31898 0.0
C1417 C 0.34714 0.38812 0.28005 0.0
C1418 C 0.36478 0.37184 0.27836 0.0
C1419 C 0.3857 0.33917 0.29581 0.0
C1420 C 0.38915 0.3234 0.31516 0.0
C1421 C 0.36859 0.35617 0.29763 0.0
C1422 C 0.3755 0.32506 0.33646 0.0
C1423 C 0.35846 0.3418 0.33835 0.0
H1424 H 0.38613 0.66681 0.67144 0.0
H1425 H 0.3898 0.66337 0.75061 0.0
H1426 H 0.36384 0.63005 0.75065 0.0
H1427 H 0.33855 0.60352 0.72814 0.0
H1428 H 0.3313 0.61094 0.64918 0.0
H1429 H 0.36078 0.64039 0.64901 0.0
C1430 C 0.38145 0.65846 0.68862 0.0
C1431 C 0.38987 0.66717 0.71096 0.0
C1432 C 0.36595 0.63999 0.6885 0.0
C1433 C 0.38349 0.65671 0.73323 0.0
C1434 C 0.36866 0.63776 0.73321 0.0
C1435 C 0.34321 0.61163 0.71086 0.0
C1436 C 0.33251 0.60472 0.68873 0.0
C1437 C 0.35945 0.62952 0.71096 0.0
C1438 C 0.33939 0.61526 0.66653 0.0
C1439 C 0.35613 0.63243 0.66638 0.0
H1440 H 0.62037 0.68383 0.27955 0.0
H1441 H 0.58528 0.65341 0.34159 0.0
H1442 H 0.61136 0.6205 0.34039 0.0
H1443 H 0.64597 0.60188 0.32372 0.0
H1444 H 0.68108 0.63269 0.26194 0.0
H1445 H 0.65263 0.66348 0.26049 0.0
C1446 C 0.61804 0.66978 0.29246 0.0
C1447 C 0.60101 0.67125 0.31079 0.0
C1448 C 0.63311 0.65093 0.29171 0.0
C1449 C 0.59851 0.65295 0.32757 0.0
C1450 C 0.61336 0.63407 0.32684 0.0
C1451 C 0.64727 0.61526 0.30983 0.0
C1452 C 0.66569 0.61505 0.29307 0.0
C1453 C 0.63106 0.63315 0.30936 0.0
C1454 C 0.66696 0.63229 0.27492 0.0
C1455 C 0.65081 0.65004 0.27422 0.0
H1456 H 0.63699 0.31452 0.6668 0.0
H1457 H 0.60551 0.33978 0.73348 0.0
H1458 H 0.63373 0.37106 0.73547 0.0
H1459 H 0.66886 0.38991 0.71923 0.0
H1460 H 0.7004 0.36305 0.65325 0.0
H1461 H 0.67087 0.33347 0.65024 0.0
C1462 C 0.63639 0.32674 0.68192 0.0
C1463 C 0.61938 0.32464 0.70014 0.0
C1464 C 0.65279 0.34431 0.68314 0.0
C1465 C 0.61842 0.34104 0.71919 0.0
C1466 C 0.63463 0.35884 0.7204 0.0
C1467 C 0.66908 0.37766 0.70413 0.0
C1468 C 0.6869 0.37847 0.68664 0.0
C1469 C 0.65208 0.36048 0.70262 0.0
C1470 C 0.68707 0.36251 0.66716 0.0
C1471 C 0.67016 0.34566 0.66536 0.0
H1472 H 0.85402 0.90184 0.82141 0.0
H1473 H 0.81687 0.87131 0.76077 0.0
H1474 H 0.84625 0.84172 0.75668 0.0
H1475 H 0.88023 0.82215 0.77299 0.0
H1476 H 0.9168 0.85153 0.8346 0.0
H1477 H 0.88973 0.8837 0.83586 0.0
C1478 C 0.8524 0.88877 0.80724 0.0
C1479 C 0.83318 0.88882 0.7915 0.0
C1480 C 0.86912 0.87142 0.80533 0.0
C1481 C 0.83158 0.87194 0.77296 0.0
C1482 C 0.84828 0.85483 0.77074 0.0
C1483 C 0.88261 0.83586 0.78634 0.0
C1484 C 0.90046 0.83439 0.80373 0.0
C1485 C 0.86685 0.85412 0.78715 0.0
C1486 C 0.90304 0.85212 0.82118 0.0
C1487 C 0.8876 0.87053 0.82189 0.0
H1488 H 0.82531 0.11836 0.1579 0.0
H1489 H 0.84332 0.0891 0.22841 0.0
H1490 H 0.8743 0.11727 0.23285 0.0
H1491 H 0.89544 0.15117 0.21713 0.0
H1492 H 0.87688 0.17973 0.14643 0.0
H1493 H 0.84738 0.15041 0.14136 0.0
C1494 C 0.83629 0.11773 0.17402 0.0
C1495 C 0.83198 0.10155 0.19275 0.0
C1496 C 0.85404 0.13386 0.1764 0.0
C1497 C 0.84609 0.10149 0.2138 0.0
C1498 C 0.86386 0.11755 0.21632 0.0
C1499 C 0.88498 0.15086 0.2006 0.0
C1500 C 0.88848 0.1675 0.18212 0.0
C1501 C 0.86782 0.134 0.19785 0.0
C1502 C 0.87485 0.16687 0.16073 0.0
C1503 C 0.85783 0.15022 0.15789 0.0
H1504 H 0.0994 0.15903 0.81631 0.0
H1505 H 0.12664 0.1934 0.75213 0.0
H1506 H 0.15576 0.16344 0.74769 0.0
H1507 H 0.17595 0.12989 0.7647 0.0
H1508 H 0.14907 0.09593 0.82923 0.0
H1509 H 0.11687 0.12288 0.83038 0.0
C1510 C 0.11131 0.15967 0.80097 0.0
C1511 C 0.11104 0.17861 0.78479 0.0
C1512 C 0.12813 0.14249 0.79864 0.0
C1513 C 0.12676 0.17924 0.76513 0.0
C1514 C 0.14339 0.1621 0.76254 0.0
C1515 C 0.16288 0.12827 0.77884 0.0
C1516 C 0.165 0.11114 0.797 0.0
C1517 C 0.14467 0.14406 0.77965 0.0
C1518 C 0.14777 0.10892 0.81497 0.0
C1519 C 0.12946 0.12445 0.81577 0.0
H1520 H 0.17623 0.87683 0.21996 0.0
H1521 H 0.14604 0.91372 0.15902 0.0
H1522 H 0.11404 0.88646 0.1581 0.0
H1523 H 0.09632 0.85042 0.17262 0.0
H1524 H 0.12755 0.81328 0.23285 0.0
H1525 H 0.15699 0.84283 0.23656 0.0
C1526 C 0.16239 0.87928 0.20686 0.0
C1527 C 0.16361 0.89723 0.1895 0.0
C1528 C 0.1442 0.86346 0.20629 0.0
C1529 C 0.14567 0.89986 0.17237 0.0
C1530 C 0.12736 0.88431 0.17187 0.0
C1531 C 0.1095 0.84887 0.18663 0.0
C1532 C 0.10971 0.82959 0.20236 0.0
C1533 C 0.12674 0.86572 0.18836 0.0
C1534 C 0.12674 0.82804 0.22068 0.0
C1535 C 0.14375 0.84484 0.22269 0.0
H1536 H 0.18184 0.57502 0.27075 0.0
H1537 H 0.17893 0.53687 0.20262 0.0
H1538 H 0.15866 0.56882 0.18281 0.0
H1539 H 0.13989 0.60664 0.18567 0.0
H1540 H 0.14083 0.64342 0.25489 0.0
H1541 H 0.16434 0.61331 0.27316 0.0
C1542 C 0.17714 0.57389 0.25143 0.0
C1543 C 0.18187 0.55366 0.23814 0.0
C1544 C 0.16514 0.59209 0.24035 0.0
C1545 C 0.17533 0.55224 0.21325 0.0
C1546 C 0.16377 0.57049 0.20194 0.0
C1547 C 0.14517 0.60807 0.20477 0.0
C1548 C 0.1385 0.62735 0.2188 0.0
C1549 C 0.1582 0.59032 0.21546 0.0
C1550 C 0.14594 0.62904 0.24343 0.0
C1551 C 0.15924 0.61169 0.25403 0.0
H1552 H 0.58523 0.81025 0.72433 0.0
H1553 H 0.54172 0.82145 0.78766 0.0
H1554 H 0.5726 0.8421 0.8083 0.0
H1555 H 0.61084 0.85964 0.8072 0.0
H1556 H 0.65331 0.85109 0.74264 0.0
H1557 H 0.62407 0.8267 0.72383 0.0
C1558 C 0.58248 0.81721 0.74264 0.0
C1559 C 0.56107 0.81431 0.7543 0.0
C1560 C 0.60013 0.82965 0.75421 0.0
C1561 C 0.55804 0.82308 0.77828 0.0
C1562 C 0.57565 0.83512 0.79005 0.0
C1563 C 0.61371 0.85248 0.78899 0.0
C1564 C 0.63423 0.85737 0.77634 0.0
C1565 C 0.59658 0.83892 0.778 0.0
C1566 C 0.63783 0.84748 0.75297 0.0
C1567 C 0.62101 0.83366 0.74208 0.0
H1568 H 0.85609 0.3842 0.1996 0.0
H1569 H 0.86817 0.35831 0.27303 0.0
H1570 H 0.84521 0.38952 0.29031 0.0
H1571 H 0.82363 0.42534 0.28479 0.0
H1572 H 0.81091 0.45108 0.21143 0.0
H1573 H 0.83207 0.41863 0.19391 0.0
C1574 C 0.85338 0.38515 0.21935 0.0
C1575 C 0.864 0.36902 0.23499 0.0
C1576 C 0.84014 0.40318 0.2292 0.0
C1577 C 0.86053 0.37071 0.26058 0.0
C1578 C 0.84731 0.3885 0.27049 0.0
C1579 C 0.82505 0.42363 0.26494 0.0
C1580 C 0.81574 0.44068 0.24947 0.0
C1581 C 0.8373 0.405 0.255 0.0
C1582 C 0.81816 0.43837 0.22379 0.0
C1583 C 0.8302 0.41978 0.21375 0.0
H1584 H 0.41211 0.19734 0.73665 0.0
H1585 H 0.46488 0.16035 0.77607 0.0
H1586 H 0.43594 0.13584 0.79503 0.0
H1587 H 0.39594 0.12327 0.7986 0.0
H1588 H 0.34312 0.15902 0.7581 0.0
H1589 H 0.37173 0.1856 0.74144 0.0
C1590 C 0.41726 0.18394 0.74942 0.0
C1591 C 0.44067 0.18077 0.7549 0.0
C1592 C 0.40053 0.16957 0.75999 0.0
C1593 C 0.447 0.16349 0.77177 0.0
C1594 C 0.43047 0.14927 0.78247 0.0
C1595 C 0.3907 0.13685 0.78608 0.0
C1596 C 0.36747 0.13905 0.77947 0.0
C1597 C 0.40724 0.15191 0.77641 0.0
C1598 C 0.36088 0.15703 0.76362 0.0
C1599 C 0.37725 0.17216 0.75397 0.0
H1600 H 0.17572 0.4526 0.78835 0.0
H1601 H 0.19496 0.41282 0.72444 0.0
H1602 H 0.17539 0.37912 0.74127 0.0
H1603 H 0.14947 0.36233 0.77188 0.0
H1604 H 0.13049 0.4018 0.8362 0.0
H1605 H 0.15304 0.43435 0.82126 0.0
C1606 C 0.17577 0.43647 0.77825 0.0
C1607 C 0.18662 0.43524 0.75513 0.0
C1608 C 0.16429 0.41723 0.78791 0.0
C1609 C 0.18687 0.41417 0.74236 0.0
C1610 C 0.17553 0.39495 0.75188 0.0
C1611 C 0.15067 0.3778 0.78299 0.0
C1612 C 0.13801 0.37964 0.80501 0.0
C1613 C 0.16374 0.39644 0.77436 0.0
C1614 C 0.13962 0.40004 0.81892 0.0
C1615 C 0.15261 0.41865 0.81045 0.0
H1616 H 0.39124 0.86323 0.19153 0.0
H1617 H 0.34751 0.85415 0.25503 0.0
H1618 H 0.37695 0.83079 0.2749 0.0
H1619 H 0.41664 0.81631 0.2761 0.0
H1620 H 0.4612 0.82765 0.21382 0.0
H1621 H 0.43006 0.84695 0.19174 0.0
C1622 C 0.38813 0.85615 0.20972 0.0
C1623 C 0.36721 0.86064 0.22179 0.0
C1624 C 0.40539 0.84328 0.22137 0.0
C1625 C 0.36331 0.85085 0.24515 0.0
C1626 C 0.38025 0.83762 0.25665 0.0
C1627 C 0.41934 0.82261 0.2575 0.0
C1628 C 0.44113 0.82065 0.24658 0.0
C1629 C 0.40153 0.83415 0.24517 0.0
C1630 C 0.44457 0.82914 0.22262 0.0
C1631 C 0.4268 0.84017 0.21002 0.0
H1632 H 0.79811 0.58929 0.74361 0.0
H1633 H 0.84024 0.53562 0.77482 0.0
H1634 H 0.86389 0.56437 0.79557 0.0
H1635 H 0.87483 0.60462 0.8015 0.0
H1636 H 0.83222 0.65864 0.77148 0.0
H1637 H 0.80677 0.62988 0.75335 0.0
C1638 C 0.81233 0.58395 0.75518 0.0
C1639 C 0.81744 0.5604 0.75765 0.0
C1640 C 0.82597 0.6006 0.76698 0.0
C1641 C 0.83579 0.55364 0.77284 0.0
C1642 C 0.84945 0.57008 0.78456 0.0
C1643 C 0.85969 0.61022 0.79154 0.0
C1644 C 0.85571 0.63386 0.78766 0.0
C1645 C 0.84497 0.59361 0.78136 0.0
C1646 C 0.83609 0.64059 0.77433 0.0
C1647 C 0.82141 0.62415 0.76404 0.0
H1648 H 0.60989 0.1378 0.18742 0.0
H1649 H 0.65366 0.14138 0.25155 0.0
H1650 H 0.62554 0.16546 0.2725 0.0
H1651 H 0.58723 0.18284 0.27403 0.0
H1652 H 0.5422 0.17683 0.21116 0.0
H1653 H 0.57214 0.15665 0.18832 0.0
C1654 C 0.61329 0.14384 0.20598 0.0
C1655 C 0.63388 0.13764 0.21786 0.0
C1656 C 0.59677 0.15725 0.21822 0.0
C1657 C 0.63815 0.14605 0.24176 0.0
C1658 C 0.62196 0.15969 0.25389 0.0
C1659 C 0.58395 0.17713 0.25532 0.0
C1660 C 0.56239 0.18123 0.24446 0.0
C1661 C 0.60102 0.16498 0.2425 0.0
C1662 C 0.55867 0.17415 0.21997 0.0
C1663 C 0.57572 0.1624 0.20694 0.0
H1664 H 0.63944 0.04416 0.75935 0.0
H1665 H 0.7032 0.06809 0.72792 0.0
H1666 H 0.68375 0.10233 0.71201 0.0
H1667 H 0.64862 0.12573 0.70765 0.0
H1668 H 0.58477 0.10017 0.73747 0.0
H1669 H 0.60433 0.06617 0.75316 0.0
C1670 C 0.64908 0.05659 0.74861 0.0
C1671 C 0.67276 0.05342 0.74477 0.0
C1672 C 0.63778 0.07603 0.73932 0.0
C1673 C 0.685 0.07015 0.73139 0.0
C1674 C 0.67387 0.08969 0.72217 0.0
C1675 C 0.63894 0.11259 0.71732 0.0
C1676 C 0.61528 0.11568 0.72158 0.0
C1677 C 0.65026 0.09285 0.7261 0.0
C1678 C 0.60307 0.09855 0.73438 0.0
C1679 C 0.6142 0.07898 0.74323 0.0
H1680 H 0.12902 0.37249 0.24545 0.0
H1681 H 0.11355 0.3579 0.32161 0.0
H1682 H 0.08112 0.33385 0.30897 0.0
H1683 H 0.05616 0.31837 0.2762 0.0
H1684 H 0.07122 0.33449 0.2002 0.0
H1685 H 0.10484 0.35639 0.21288 0.0
C1686 C 0.11849 0.36414 0.2593 0.0
C1687 C 0.12357 0.36714 0.28442 0.0
C1688 C 0.0998 0.35056 0.25192 0.0
C1689 C 0.11008 0.35577 0.30213 0.0
C1690 C 0.09146 0.34212 0.29492 0.0
C1691 C 0.06679 0.3267 0.26243 0.0
C1692 C 0.06114 0.3247 0.23728 0.0
C1693 C 0.086 0.33961 0.26986 0.0
C1694 C 0.07531 0.33537 0.21965 0.0
C1695 C 0.09446 0.3481 0.22689 0.0
H1696 H 0.35032 0.95981 0.75064 0.0
H1697 H 0.28883 0.91904 0.75805 0.0
H1698 H 0.30917 0.88521 0.74224 0.0
H1699 H 0.34504 0.86689 0.72811 0.0
H1700 H 0.40663 0.90772 0.722 0.0
H1701 H 0.38563 0.94194 0.73535 0.0
C1702 C 0.34127 0.94361 0.74839 0.0
C1703 C 0.3181 0.94192 0.75537 0.0
C1704 C 0.35314 0.92424 0.73968 0.0
C1705 C 0.30671 0.92071 0.75288 0.0
C1706 C 0.31832 0.9014 0.74383 0.0
C1707 C 0.35374 0.88336 0.72944 0.0
C1708 C 0.37733 0.88482 0.72418 0.0
C1709 C 0.34161 0.9029 0.73744 0.0
C1710 C 0.38852 0.90617 0.72623 0.0
C1711 C 0.37652 0.92573 0.73378 0.0
H1712 H 0.88873 0.63607 0.30251 0.0
H1713 H 0.85542 0.63655 0.23147 0.0
H1714 H 0.88674 0.6595 0.2144 0.0
H1715 H 0.92468 0.67735 0.21901 0.0
H1716 H 0.95821 0.67664 0.28989 0.0
H1717 H 0.92558 0.65608 0.30776 0.0
C1718 C 0.88814 0.64152 0.2834 0.0
C1719 C 0.86984 0.63448 0.26825 0.0
C1720 C 0.90627 0.65461 0.27367 0.0
C1721 C 0.86949 0.64144 0.24343 0.0
C1722 C 0.88733 0.65465 0.23368 0.0
C1723 C 0.92462 0.67311 0.23848 0.0
C1724 C 0.94381 0.67849 0.25311 0.0
C1725 C 0.90596 0.66104 0.24853 0.0
C1726 C 0.94369 0.67251 0.27821 0.0
C1727 C 0.92505 0.66078 0.28844 0.0
H1728 H 0.66564 0.95603 0.28032 0.0
H1729 H 0.68474 0.91658 0.21612 0.0
H1730 H 0.66464 0.88298 0.23249 0.0
H1731 H 0.63886 0.86596 0.26323 0.0
H1732 H 0.61991 0.90529 0.32764 0.0
H1733 H 0.64241 0.9379 0.31277 0.0
C1734 C 0.66548 0.94002 0.27 0.0
C1735 C 0.67655 0.93883 0.247 0.0
C1736 C 0.65369 0.92085 0.27939 0.0
C1737 C 0.67651 0.91789 0.23397 0.0
C1738 C 0.66487 0.89872 0.24323 0.0
C1739 C 0.64001 0.88147 0.2743 0.0
C1740 C 0.62748 0.8832 0.29641 0.0
C1741 C 0.65305 0.90014 0.2657 0.0
C1742 C 0.62899 0.90361 0.31031 0.0
C1743 C 0.64195 0.92225 0.30189 0.0
H1744 H 0.88071 0.35891 0.70589 0.0
H1745 H 0.91228 0.424 0.72403 0.0
H1746 H 0.94503 0.40396 0.74206 0.0
H1747 H 0.96378 0.36818 0.7544 0.0
H1748 H 0.93282 0.30284 0.73613 0.0
H1749 H 0.90067 0.32279 0.71647 0.0
C1750 C 0.89493 0.36868 0.71347 0.0
C1751 C 0.89401 0.3929 0.71375 0.0
C1752 C 0.9137 0.35704 0.72393 0.0
C1753 C 0.91243 0.40534 0.72391 0.0
C1754 C 0.93119 0.39391 0.73415 0.0
C1755 C 0.95024 0.35825 0.74573 0.0
C1756 C 0.95075 0.33404 0.7467 0.0
C1757 C 0.93188 0.36979 0.73451 0.0
C1758 C 0.93274 0.32149 0.73585 0.0
C1759 C 0.9144 0.33288 0.72452 0.0
H1760 H 0.36241 0.10685 0.3062 0.0
H1761 H 0.36646 0.14153 0.23594 0.0
H1762 H 0.34124 0.11268 0.21768 0.0
H1763 H 0.32116 0.07551 0.22057 0.0
H1764 H 0.31976 0.03926 0.28987 0.0
H1765 H 0.34103 0.07064 0.30955 0.0
C1766 C 0.35786 0.10809 0.28687 0.0
C1767 C 0.36652 0.1263 0.27248 0.0
C1768 C 0.34392 0.09105 0.27626 0.0
C1769 C 0.35992 0.12789 0.24758 0.0
C1770 C 0.34563 0.11127 0.23703 0.0
C1771 C 0.32514 0.07476 0.24009 0.0
C1772 C 0.31893 0.05522 0.25383 0.0
C1773 C 0.33791 0.09253 0.25106 0.0
C1774 C 0.32446 0.05418 0.27899 0.0
C1775 C 0.33664 0.07206 0.2902 0.0
H1776 H 0.09751 0.59936 0.70895 0.0
H1777 H 0.14815 0.65161 0.72436 0.0
H1778 H 0.11835 0.67669 0.74132 0.0
H1779 H 0.078 0.68324 0.75302 0.0
H1780 H 0.02764 0.63055 0.738 0.0
H1781 H 0.05719 0.60624 0.71963 0.0
C1782 C 0.10202 0.61621 0.71609 0.0
C1783 C 0.125 0.62356 0.7155 0.0
C1784 C 0.08484 0.63048 0.72589 0.0
C1785 C 0.13054 0.64562 0.72441 0.0
C1786 C 0.11354 0.65991 0.73425 0.0
C1787 C 0.07354 0.66642 0.74576 0.0
C1788 C 0.05065 0.65875 0.74686 0.0
C1789 C 0.09066 0.65244 0.73529 0.0
C1790 C 0.04507 0.63701 0.7371 0.0
C1791 C 0.06198 0.62302 0.72673 0.0
H1792 H 0.21292 0.5332 0.52818 0.0
H1793 H 0.20847 0.46272 0.55309 0.0
H1794 H 0.20729 0.4494 0.51047 0.0
H1795 H 0.20847 0.45762 0.46614 0.0
H1796 H 0.21528 0.52794 0.44131 0.0
H1797 H 0.21454 0.54139 0.48389 0.0
C1798 C 0.2119 0.5149 0.52433 0.0
C1799 C 0.21081 0.49902 0.5439 0.0
C1800 C 0.21161 0.5073 0.49976 0.0
C1801 C 0.20901 0.47539 0.53847 0.0
C1802 C 0.20851 0.46772 0.51407 0.0
C1803 C 0.21 0.47588 0.47001 0.0
C1804 C 0.21194 0.49171 0.45046 0.0
C1805 C 0.20996 0.4835 0.49458 0.0
C1806 C 0.21344 0.51536 0.4559 0.0
C1807 C 0.21319 0.52308 0.48028 0.0
H1808 H 0.49641 0.75868 0.46541 0.0
H1809 H 0.50165 0.83269 0.46384 0.0
H1810 H 0.48905 0.83471 0.50688 0.0
H1811 H 0.47707 0.81533 0.54488 0.0
H1812 H 0.47557 0.74093 0.54744 0.0
H1813 H 0.48556 0.73922 0.50396 0.0
C1814 C 0.49461 0.77521 0.47453 0.0
C1815 C 0.49978 0.79551 0.46163 0.0
C1816 C 0.48793 0.77617 0.49937 0.0
C1817 C 0.49775 0.81687 0.47357 0.0
C1818 C 0.49055 0.81801 0.4981 0.0
C1819 C 0.47919 0.79869 0.53612 0.0
C1820 C 0.47542 0.77832 0.54966 0.0
C1821 C 0.48576 0.79774 0.51124 0.0
C1822 C 0.47783 0.75697 0.53758 0.0
C1823 C 0.48379 0.75592 0.51268 0.0
H1824 H 0.78309 0.49155 0.44898 0.0
H1825 H 0.7847 0.56459 0.46358 0.0
H1826 H 0.78529 0.5571 0.5079 0.0
H1827 H 0.78503 0.52976 0.54253 0.0
H1828 H 0.78413 0.45673 0.5277 0.0
H1829 H 0.78364 0.46428 0.48347 0.0
C1830 C 0.78384 0.50583 0.46185 0.0
C1831 C 0.78387 0.52859 0.45296 0.0
C1832 C 0.78422 0.50141 0.48728 0.0
C1833 C 0.78441 0.5469 0.46992 0.0
C1834 C 0.78486 0.54264 0.49527 0.0
C1835 C 0.78494 0.51551 0.52961 0.0
C1836 C 0.78453 0.49273 0.53844 0.0
C1837 C 0.78473 0.51996 0.50416 0.0
C1838 C 0.78411 0.47444 0.52143 0.0
C1839 C 0.78396 0.47873 0.49612 0.0
H1840 H 0.51614 0.22041 0.4534 0.0
H1841 H 0.45342 0.18292 0.4668 0.0
H1842 H 0.46136 0.18285 0.51102 0.0
H1843 H 0.48561 0.19438 0.54599 0.0
H1844 H 0.54841 0.23172 0.53249 0.0
H1845 H 0.54097 0.23087 0.4882 0.0
C1846 C 0.50437 0.21196 0.46597 0.0
C1847 C 0.48422 0.20171 0.45683 0.0
C1848 C 0.50899 0.21207 0.49136 0.0
C1849 C 0.46893 0.19116 0.4734 0.0
C1850 C 0.4735 0.19104 0.49867 0.0
C1851 C 0.49779 0.2021 0.53332 0.0
C1852 C 0.51748 0.21317 0.54253 0.0
C1853 C 0.49339 0.20158 0.50788 0.0
C1854 C 0.53295 0.22337 0.5259 0.0
C1855 C 0.52878 0.22279 0.50056 0.0
H1856 H 0.74312 0.00965 0.03346 0.0
H1857 H 0.66975 0.00347 0.04068 0.0
H1858 H 0.6667 0.99159 0.99742 0.0
H1859 H 0.68507 0.98308 0.95753 0.0
H1860 H 0.7587 0.98677 0.95106 0.0
H1861 H 0.76167 0.99938 0.99406 0.0
C1862 C 0.72652 0.00572 0.02541 0.0
C1863 C 0.70665 0.00754 0.0399 0.0
C1864 C 0.72502 0.9984 0.00079 0.0
C1865 C 0.68521 0.00217 0.02965 0.0
C1866 C 0.68348 0.99541 0.00501 0.0
C1867 C 0.70172 0.98666 0.96564 0.0
C1868 C 0.72164 0.98413 0.95131 0.0
C1869 C 0.70328 0.99348 0.9904 0.0
C1870 C 0.74319 0.98853 0.96191 0.0
C1871 C 0.74486 0.9958 0.9864 0.0
H1872 H 0.9869 0.31134 0.95756 0.0
H1873 H 0.0214 0.24611 0.96585 0.0
H1874 H 0.00858 0.24369 0.00871 0.0
H1875 H 0.98826 0.26051 0.04401 0.0
H1876 H 0.95525 0.32659 0.03658 0.0
H1877 H 0.96677 0.3284 0.99318 0.0
C1878 C 0.99143 0.29656 0.96877 0.0
C1879 C 0.00498 0.27889 0.95867 0.0
C1880 C 0.98433 0.2955 0.99349 0.0
C1881 C 0.01106 0.25995 0.97336 0.0
C1882 C 0.00371 0.25854 0.9978 0.0
C1883 C 0.98343 0.27519 0.03278 0.0
C1884 C 0.97082 0.29332 0.04332 0.0
C1885 C 0.99043 0.27625 0.00807 0.0
C1886 C 0.96501 0.31247 0.02879 0.0
C1887 C 0.97155 0.31347 0.00402 0.0
H1888 H 0.30909 0.00156 0.95668 0.0
H1889 H 0.25353 0.04915 0.96976 0.0
H1890 H 0.2528 0.03825 0.01325 0.0
H1891 H 0.26727 0.01446 0.04728 0.0
H1892 H 0.32291 0.96696 0.03424 0.0
H1893 H 0.32433 0.97861 0.99098 0.0
C1894 C 0.29702 0.00976 0.96912 0.0
C1895 C 0.28139 0.02614 0.96 0.0
C1896 C 0.29665 0.00336 0.99406 0.0
C1897 C 0.26558 0.03632 0.97627 0.0
C1898 C 0.26522 0.03017 0.00115 0.0
C1899 C 0.2799 0.00688 0.03505 0.0
C1900 C 0.29496 0.98987 0.04396 0.0
C1901 C 0.28057 0.01361 0.01021 0.0
C1902 C 0.31097 0.97991 0.02776 0.0
C1903 C 0.31185 0.98663 0.00307 0.0
H1904 H 0.96299 0.70095 0.96943 0.0
H1905 H 0.02972 0.7214 0.94271 0.0
H1906 H 0.04434 0.72242 0.98486 0.0
H1907 H 0.03794 0.71853 0.02939 0.0
H1908 H 0.97124 0.69797 0.05614 0.0
H1909 H 0.95673 0.69653 0.01395 0.0
C1910 C 0.98069 0.70578 0.97284 0.0
C1911 C 0.99522 0.71108 0.95291 0.0
C1912 C 0.98897 0.70648 0.99715 0.0
C1913 C 0.01822 0.71695 0.95766 0.0
C1914 C 0.02657 0.71769 0.98178 0.0
C1915 C 0.0203 0.71348 0.02599 0.0
C1916 C 0.00571 0.70843 0.04595 0.0
C1917 C 0.01209 0.71254 0.00167 0.0
C1918 C 0.98278 0.70228 0.04118 0.0
C1919 C 0.97449 0.70131 0.01704 0.0
loop_
_geom_bond_atom_site_label_1
_geom_bond_atom_site_label_2
_geom_bond_distance
_geom_bond_site_symmetry_2
_ccdc_geom_bond_type
Li0 N17 1.990 . S
Li0 O60 1.956 . S
Li0 O61 1.970 . S
Li0 O62 1.961 . S
Li1 N25 1.990 . S
Li1 O60 1.970 . S
Li1 O61 1.956 . S
Li1 O63 1.961 . S
Li2 N47 1.990 . S
Li2 O60 1.961 . S
Li2 O62 1.956 . S
Li2 O63 1.970 . S
Li3 N53 1.990 . S
Li3 O61 1.961 . S
Li3 O62 1.970 . S
Li3 O63 1.956 . S
C4 C6 1.348 . S
C4 C7 1.356 . S
C4 O60 1.325 . S
N5 C8 1.314 . S
N5 C9 1.279 . S
C6 C4 1.348 . S
C6 C8 1.353 . S
C6 H64 0.929 . S
C7 C4 1.356 . S
C7 C9 1.358 . S
C7 H65 0.930 . S
C8 N5 1.314 . S
C8 C6 1.353 . S
C8 H66 0.930 . S
C9 N5 1.279 . S
C9 C7 1.358 . S
C9 H67 0.930 . S
C10 C13 1.348 . S
C10 C14 1.356 . S
C10 O61 1.325 . S
C11 N12 1.279 . S
C11 C14 1.358 . S
C11 H68 0.930 . S
N12 C11 1.279 . S
N12 C15 1.314 . S
C13 C10 1.348 . S
C13 C15 1.353 . S
C13 H69 0.929 . S
C14 C10 1.356 . S
C14 C11 1.358 . S
C14 H70 0.930 . S
C15 N12 1.314 . S
C15 C13 1.353 . S
C15 H71 0.930 . S
C16 N17 1.314 . S
C16 C21 1.353 . S
C16 H22 0.930 . S
N17 Li0 1.990 . S
N17 C16 1.314 . S
N17 C19 1.279 . S
C18 C19 1.358 . S
C18 C20 1.356 . S
C18 H72 0.930 . S
C19 N17 1.279 . S
C19 C18 1.358 . S
C19 H23 0.930 . S
C20 C18 1.356 . S
C20 C21 1.348 . S
C21 C16 1.353 . S
C21 C20 1.348 . S
C21 H73 0.929 . S
H22 C16 0.930 . S
H23 C19 0.930 . S
C24 N25 1.314 . S
C24 C26 1.353 . S
C24 H30 0.930 . S
N25 Li1 1.990 . S
N25 C24 1.314 . S
N25 C28 1.279 . S
C26 C24 1.353 . S
C26 C29 1.348 . S
C26 H74 0.929 . S
C27 C28 1.358 . S
C27 C29 1.356 . S
C27 H75 0.930 . S
C28 N25 1.279 . S
C28 C27 1.358 . S
C28 H31 0.930 . S
C29 C26 1.348 . S
C29 C27 1.356 . S
H30 C24 0.930 . S
H31 C28 0.930 . S
C32 C34 1.348 . S
C32 C35 1.356 . S
C32 O62 1.325 . S
N33 C36 1.314 . S
N33 C37 1.279 . S
C34 C32 1.348 . S
C34 C36 1.353 . S
C34 H76 0.929 . S
C35 C32 1.356 . S
C35 C37 1.358 . S
C35 H77 0.930 . S
C36 N33 1.314 . S
C36 C34 1.353 . S
C36 H78 0.930 . S
C37 N33 1.279 . S
C37 C35 1.358 . S
C37 H79 0.930 . S
C38 C39 1.348 . S
C38 C40 1.356 . S
C38 O63 1.325 . S
C39 C38 1.348 . S
C39 C41 1.353 . S
C39 H80 0.929 . S
C40 C38 1.356 . S
C40 C42 1.358 . S
C40 H81 0.930 . S
C41 C39 1.353 . S
C41 N43 1.314 . S
C41 H82 0.930 . S
C42 C40 1.358 . S
C42 N43 1.279 . S
C42 H83 0.930 . S
N43 C41 1.314 . S
N43 C42 1.279 . S
C44 C46 1.353 . S
C44 N47 1.314 . S
C44 H50 0.930 . S
C45 N47 1.279 . S
C45 C48 1.358 . S
C45 H51 0.930 . S
C46 C44 1.353 . S
C46 C49 1.348 . S
C46 H84 0.929 . S
N47 Li2 1.990 . S
N47 C44 1.314 . S
N47 C45 1.279 . S
C48 C45 1.358 . S
C48 C49 1.356 . S
C48 H85 0.930 . S
C49 C46 1.348 . S
C49 C48 1.356 . S
H50 C44 0.930 . S
H51 C45 0.930 . S
C52 N53 1.314 . S
C52 C54 1.353 . S
C52 H58 0.930 . S
N53 Li3 1.990 . S
N53 C52 1.314 . S
N53 C56 1.279 . S
C54 C52 1.353 . S
C54 C57 1.348 . S
C54 H86 0.929 . S
C55 C56 1.358 . S
C55 C57 1.356 . S
C55 H87 0.930 . S
C56 N53 1.279 . S
C56 C55 1.358 . S
C56 H59 0.930 . S
C57 C54 1.348 . S
C57 C55 1.356 . S
H58 C52 0.930 . S
H59 C56 0.930 . S
O60 Li0 1.956 . S
O60 Li1 1.970 . S
O60 Li2 1.961 . S
O60 C4 1.325 . S
O61 Li0 1.970 . S
O61 Li1 1.956 . S
O61 Li3 1.961 . S
O61 C10 1.325 . S
O62 Li0 1.961 . S
O62 Li2 1.956 . S
O62 Li3 1.970 . S
O62 C32 1.325 . S
O63 Li1 1.961 . S
O63 Li2 1.970 . S
O63 Li3 1.956 . S
O63 C38 1.325 . S
H64 C6 0.929 . S
H65 C7 0.930 . S
H66 C8 0.930 . S
H67 C9 0.930 . S
H68 C11 0.930 . S
H69 C13 0.929 . S
H70 C14 0.930 . S
H71 C15 0.930 . S
H72 C18 0.930 . S
H73 C21 0.929 . S
H74 C26 0.929 . S
H75 C27 0.930 . S
H76 C34 0.929 . S
H77 C35 0.930 . S
H78 C36 0.930 . S
H79 C37 0.930 . S
H80 C39 0.929 . S
H81 C40 0.930 . S
H82 C41 0.930 . S
H83 C42 0.930 . S
H84 C46 0.929 . S
H85 C48 0.930 . S
H86 C54 0.929 . S
H87 C55 0.930 . S
Li88 N105 1.990 . S
Li88 O148 1.956 . S
Li88 O149 1.970 . S
Li88 O150 1.961 . S
Li89 N113 1.990 . S
Li89 O148 1.970 . S
Li89 O149 1.956 . S
Li89 O151 1.961 . S
Li90 N135 1.990 . S
Li90 O148 1.961 . S
Li90 O150 1.956 . S
Li90 O151 1.970 . S
Li91 N141 1.990 . S
Li91 O149 1.961 . S
Li91 O150 1.970 . S
Li91 O151 1.956 . S
C92 C94 1.348 . S
C92 C95 1.356 . S
C92 O148 1.325 . S
N93 C96 1.314 . S
N93 C97 1.279 . S
C94 C92 1.348 . S
C94 C96 1.353 . S
C94 H152 0.929 . S
C95 C92 1.356 . S
C95 C97 1.358 . S
C95 H153 0.930 . S
C96 N93 1.314 . S
C96 C94 1.353 . S
C96 H154 0.930 . S
C97 N93 1.279 . S
C97 C95 1.358 . S
C97 H155 0.930 . S
C98 C101 1.348 . S
C98 C102 1.356 . S
C98 O149 1.325 . S
C99 N100 1.279 . S
C99 C102 1.358 . S
C99 H156 0.930 . S
N100 C99 1.279 . S
N100 C103 1.314 . S
C101 C98 1.348 . S
C101 C103 1.353 . S
C101 H157 0.929 . S
C102 C98 1.356 . S
C102 C99 1.358 . S
C102 H158 0.930 . S
C103 N100 1.314 . S
C103 C101 1.353 . S
C103 H159 0.930 . S
C104 N105 1.314 . S
C104 C109 1.353 . S
C104 H110 0.930 . S
N105 Li88 1.990 . S
N105 C104 1.314 . S
N105 C107 1.279 . S
C106 C107 1.358 . S
C106 C108 1.356 . S
C106 H160 0.930 . S
C107 N105 1.279 . S
C107 C106 1.358 . S
C107 H111 0.930 . S
C108 C106 1.356 . S
C108 C109 1.348 . S
C109 C104 1.353 . S
C109 C108 1.348 . S
C109 H161 0.929 . S
H110 C104 0.930 . S
H111 C107 0.930 . S
C112 N113 1.314 . S
C112 C114 1.353 . S
C112 H118 0.930 . S
N113 Li89 1.990 . S
N113 C112 1.314 . S
N113 C116 1.279 . S
C114 C112 1.353 . S
C114 C117 1.348 . S
C114 H162 0.929 . S
C115 C116 1.358 . S
C115 C117 1.356 . S
C115 H163 0.930 . S
C116 N113 1.279 . S
C116 C115 1.358 . S
C116 H119 0.930 . S
C117 C114 1.348 . S
C117 C115 1.356 . S
H118 C112 0.930 . S
H119 C116 0.930 . S
C120 C122 1.348 . S
C120 C123 1.356 . S
C120 O150 1.325 . S
N121 C124 1.314 . S
N121 C125 1.279 . S
C122 C120 1.348 . S
C122 C124 1.353 . S
C122 H164 0.929 . S
C123 C120 1.356 . S
C123 C125 1.358 . S
C123 H165 0.930 . S
C124 N121 1.314 . S
C124 C122 1.353 . S
C124 H166 0.930 . S
C125 N121 1.279 . S
C125 C123 1.358 . S
C125 H167 0.930 . S
C126 C127 1.348 . S
C126 C128 1.356 . S
C126 O151 1.325 . S
C127 C126 1.348 . S
C127 C129 1.353 . S
C127 H168 0.929 . S
C128 C126 1.356 . S
C128 C130 1.358 . S
C128 H169 0.930 . S
C129 C127 1.353 . S
C129 N131 1.314 . S
C129 H170 0.930 . S
C130 C128 1.358 . S
C130 N131 1.279 . S
C130 H171 0.930 . S
N131 C129 1.314 . S
N131 C130 1.279 . S
C132 C134 1.353 . S
C132 N135 1.314 . S
C132 H138 0.930 . S
C133 N135 1.279 . S
C133 C136 1.358 . S
C133 H139 0.930 . S
C134 C132 1.353 . S
C134 C137 1.348 . S
C134 H172 0.929 . S
N135 Li90 1.990 . S
N135 C132 1.314 . S
N135 C133 1.279 . S
C136 C133 1.358 . S
C136 C137 1.356 . S
C136 H173 0.930 . S
C137 C134 1.348 . S
C137 C136 1.356 . S
H138 C132 0.930 . S
H139 C133 0.930 . S
C140 N141 1.314 . S
C140 C142 1.353 . S
C140 H146 0.930 . S
N141 Li91 1.990 . S
N141 C140 1.314 . S
N141 C144 1.279 . S
C142 C140 1.353 . S
C142 C145 1.348 . S
C142 H174 0.929 . S
C143 C144 1.358 . S
C143 C145 1.356 . S
C143 H175 0.930 . S
C144 N141 1.279 . S
C144 C143 1.358 . S
C144 H147 0.930 . S
C145 C142 1.348 . S
C145 C143 1.356 . S
H146 C140 0.930 . S
H147 C144 0.930 . S
O148 Li88 1.956 . S
O148 Li89 1.970 . S
O148 Li90 1.961 . S
O148 C92 1.325 . S
O149 Li88 1.970 . S
O149 Li89 1.956 . S
O149 Li91 1.961 . S
O149 C98 1.325 . S
O150 Li88 1.961 . S
O150 Li90 1.956 . S
O150 Li91 1.970 . S
O150 C120 1.325 . S
O151 Li89 1.961 . S
O151 Li90 1.970 . S
O151 Li91 1.956 . S
O151 C126 1.325 . S
H152 C94 0.929 . S
H153 C95 0.930 . S
H154 C96 0.930 . S
H155 C97 0.930 . S
H156 C99 0.930 . S
H157 C101 0.929 . S
H158 C102 0.930 . S
H159 C103 0.930 . S
H160 C106 0.930 . S
H161 C109 0.929 . S
H162 C114 0.929 . S
H163 C115 0.930 . S
H164 C122 0.929 . S
H165 C123 0.930 . S
H166 C124 0.930 . S
H167 C125 0.930 . S
H168 C127 0.929 . S
H169 C128 0.930 . S
H170 C129 0.930 . S
H171 C130 0.930 . S
H172 C134 0.929 . S
H173 C136 0.930 . S
H174 C142 0.929 . S
H175 C143 0.930 . S
Li176 N193 1.990 . S
Li176 O236 1.956 . S
Li176 O237 1.970 . S
Li176 O238 1.961 . S
Li177 N201 1.990 . S
Li177 O236 1.970 . S
Li177 O237 1.956 . S
Li177 O239 1.961 . S
Li178 N223 1.990 . S
Li178 O236 1.961 . S
Li178 O238 1.956 . S
Li178 O239 1.970 . S
Li179 N229 1.990 . S
Li179 O237 1.961 . S
Li179 O238 1.970 . S
Li179 O239 1.956 . S
C180 C182 1.348 . S
C180 C183 1.356 . S
C180 O236 1.325 . S
N181 C184 1.314 . S
N181 C185 1.279 . S
C182 C180 1.348 . S
C182 C184 1.353 . S
C182 H240 0.929 . S
C183 C180 1.356 . S
C183 C185 1.358 . S
C183 H241 0.930 . S
C184 N181 1.314 . S
C184 C182 1.353 . S
C184 H242 0.930 . S
C185 N181 1.279 . S
C185 C183 1.358 . S
C185 H243 0.930 . S
C186 C189 1.348 . S
C186 C190 1.356 . S
C186 O237 1.325 . S
C187 N188 1.279 . S
C187 C190 1.358 . S
C187 H244 0.930 . S
N188 C187 1.279 . S
N188 C191 1.314 . S
C189 C186 1.348 . S
C189 C191 1.353 . S
C189 H245 0.929 . S
C190 C186 1.356 . S
C190 C187 1.358 . S
C190 H246 0.930 . S
C191 N188 1.314 . S
C191 C189 1.353 . S
C191 H247 0.930 . S
C192 N193 1.314 . S
C192 C197 1.353 . S
C192 H198 0.930 . S
N193 Li176 1.990 . S
N193 C192 1.314 . S
N193 C195 1.279 . S
C194 C195 1.358 . S
C194 C196 1.356 . S
C194 H248 0.930 . S
C195 N193 1.279 . S
C195 C194 1.358 . S
C195 H199 0.930 . S
C196 C194 1.356 . S
C196 C197 1.348 . S
C197 C192 1.353 . S
C197 C196 1.348 . S
C197 H249 0.929 . S
H198 C192 0.930 . S
H199 C195 0.930 . S
C200 N201 1.314 . S
C200 C202 1.353 . S
C200 H206 0.930 . S
N201 Li177 1.990 . S
N201 C200 1.314 . S
N201 C204 1.279 . S
C202 C200 1.353 . S
C202 C205 1.348 . S
C202 H250 0.929 . S
C203 C204 1.358 . S
C203 C205 1.356 . S
C203 H251 0.930 . S
C204 N201 1.279 . S
C204 C203 1.358 . S
C204 H207 0.930 . S
C205 C202 1.348 . S
C205 C203 1.356 . S
H206 C200 0.930 . S
H207 C204 0.930 . S
C208 C210 1.348 . S
C208 C211 1.356 . S
C208 O238 1.325 . S
N209 C212 1.314 . S
N209 C213 1.279 . S
C210 C208 1.348 . S
C210 C212 1.353 . S
C210 H252 0.929 . S
C211 C208 1.356 . S
C211 C213 1.358 . S
C211 H253 0.930 . S
C212 N209 1.314 . S
C212 C210 1.353 . S
C212 H254 0.930 . S
C213 N209 1.279 . S
C213 C211 1.358 . S
C213 H255 0.930 . S
C214 C215 1.348 . S
C214 C216 1.356 . S
C214 O239 1.325 . S
C215 C214 1.348 . S
C215 C217 1.353 . S
C215 H256 0.929 . S
C216 C214 1.356 . S
C216 C218 1.358 . S
C216 H257 0.930 . S
C217 C215 1.353 . S
C217 N219 1.314 . S
C217 H258 0.930 . S
C218 C216 1.358 . S
C218 N219 1.279 . S
C218 H259 0.930 . S
N219 C217 1.314 . S
N219 C218 1.279 . S
C220 C222 1.353 . S
C220 N223 1.314 . S
C220 H226 0.930 . S
C221 N223 1.279 . S
C221 C224 1.358 . S
C221 H227 0.930 . S
C222 C220 1.353 . S
C222 C225 1.348 . S
C222 H260 0.929 . S
N223 Li178 1.990 . S
N223 C220 1.314 . S
N223 C221 1.279 . S
C224 C221 1.358 . S
C224 C225 1.356 . S
C224 H261 0.930 . S
C225 C222 1.348 . S
C225 C224 1.356 . S
H226 C220 0.930 . S
H227 C221 0.930 . S
C228 N229 1.314 . S
C228 C230 1.353 . S
C228 H234 0.930 . S
N229 Li179 1.990 . S
N229 C228 1.314 . S
N229 C232 1.279 . S
C230 C228 1.353 . S
C230 C233 1.348 . S
C230 H262 0.929 . S
C231 C232 1.358 . S
C231 C233 1.356 . S
C231 H263 0.930 . S
C232 N229 1.279 . S
C232 C231 1.358 . S
C232 H235 0.930 . S
C233 C230 1.348 . S
C233 C231 1.356 . S
H234 C228 0.930 . S
H235 C232 0.930 . S
O236 Li176 1.956 . S
O236 Li177 1.970 . S
O236 Li178 1.961 . S
O236 C180 1.325 . S
O237 Li176 1.970 . S
O237 Li177 1.956 . S
O237 Li179 1.961 . S
O237 C186 1.325 . S
O238 Li176 1.961 . S
O238 Li178 1.956 . S
O238 Li179 1.970 . S
O238 C208 1.325 . S
O239 Li177 1.961 . S
O239 Li178 1.970 . S
O239 Li179 1.956 . S
O239 C214 1.325 . S
H240 C182 0.929 . S
H241 C183 0.930 . S
H242 C184 0.930 . S
H243 C185 0.930 . S
H244 C187 0.930 . S
H245 C189 0.929 . S
H246 C190 0.930 . S
H247 C191 0.930 . S
H248 C194 0.930 . S
H249 C197 0.929 . S
H250 C202 0.929 . S
H251 C203 0.930 . S
H252 C210 0.929 . S
H253 C211 0.930 . S
H254 C212 0.930 . S
H255 C213 0.930 . S
H256 C215 0.929 . S
H257 C216 0.930 . S
H258 C217 0.930 . S
H259 C218 0.930 . S
H260 C222 0.929 . S
H261 C224 0.930 . S
H262 C230 0.929 . S
H263 C231 0.930 . S
Li264 N281 1.990 . S
Li264 O324 1.956 . S
Li264 O325 1.970 . S
Li264 O326 1.961 . S
Li265 N289 1.990 . S
Li265 O324 1.970 . S
Li265 O325 1.956 . S
Li265 O327 1.961 . S
Li266 N311 1.990 . S
Li266 O324 1.961 . S
Li266 O326 1.956 . S
Li266 O327 1.970 . S
Li267 N317 1.990 . S
Li267 O325 1.961 . S
Li267 O326 1.970 . S
Li267 O327 1.956 . S
C268 C270 1.348 . S
C268 C271 1.356 . S
C268 O324 1.325 . S
N269 C272 1.314 . S
N269 C273 1.279 . S
C270 C268 1.348 . S
C270 C272 1.353 . S
C270 H328 0.929 . S
C271 C268 1.356 . S
C271 C273 1.358 . S
C271 H329 0.930 . S
C272 N269 1.314 . S
C272 C270 1.353 . S
C272 H330 0.930 . S
C273 N269 1.279 . S
C273 C271 1.358 . S
C273 H331 0.930 . S
C274 C277 1.348 . S
C274 C278 1.356 . S
C274 O325 1.325 . S
C275 N276 1.279 . S
C275 C278 1.358 . S
C275 H332 0.930 . S
N276 C275 1.279 . S
N276 C279 1.314 . S
C277 C274 1.348 . S
C277 C279 1.353 . S
C277 H333 0.929 . S
C278 C274 1.356 . S
C278 C275 1.358 . S
C278 H334 0.930 . S
C279 N276 1.314 . S
C279 C277 1.353 . S
C279 H335 0.930 . S
C280 N281 1.314 . S
C280 C285 1.353 . S
C280 H286 0.930 . S
N281 Li264 1.990 . S
N281 C280 1.314 . S
N281 C283 1.279 . S
C282 C283 1.358 . S
C282 C284 1.356 . S
C282 H336 0.930 . S
C283 N281 1.279 . S
C283 C282 1.358 . S
C283 H287 0.930 . S
C284 C282 1.356 . S
C284 C285 1.348 . S
C285 C280 1.353 . S
C285 C284 1.348 . S
C285 H337 0.929 . S
H286 C280 0.930 . S
H287 C283 0.930 . S
C288 N289 1.314 . S
C288 C290 1.353 . S
C288 H294 0.930 . S
N289 Li265 1.990 . S
N289 C288 1.314 . S
N289 C292 1.279 . S
C290 C288 1.353 . S
C290 C293 1.348 . S
C290 H338 0.929 . S
C291 C292 1.358 . S
C291 C293 1.356 . S
C291 H339 0.930 . S
C292 N289 1.279 . S
C292 C291 1.358 . S
C292 H295 0.930 . S
C293 C290 1.348 . S
C293 C291 1.356 . S
H294 C288 0.930 . S
H295 C292 0.930 . S
C296 C298 1.348 . S
C296 C299 1.356 . S
C296 O326 1.325 . S
N297 C300 1.314 . S
N297 C301 1.279 . S
C298 C296 1.348 . S
C298 C300 1.353 . S
C298 H340 0.929 . S
C299 C296 1.356 . S
C299 C301 1.358 . S
C299 H341 0.930 . S
C300 N297 1.314 . S
C300 C298 1.353 . S
C300 H342 0.930 . S
C301 N297 1.279 . S
C301 C299 1.358 . S
C301 H343 0.930 . S
C302 C303 1.348 . S
C302 C304 1.356 . S
C302 O327 1.325 . S
C303 C302 1.348 . S
C303 C305 1.353 . S
C303 H344 0.929 . S
C304 C302 1.356 . S
C304 C306 1.358 . S
C304 H345 0.930 . S
C305 C303 1.353 . S
C305 N307 1.314 . S
C305 H346 0.930 . S
C306 C304 1.358 . S
C306 N307 1.279 . S
C306 H347 0.930 . S
N307 C305 1.314 . S
N307 C306 1.279 . S
C308 C310 1.353 . S
C308 N311 1.314 . S
C308 H314 0.930 . S
C309 N311 1.279 . S
C309 C312 1.358 . S
C309 H315 0.930 . S
C310 C308 1.353 . S
C310 C313 1.348 . S
C310 H348 0.929 . S
N311 Li266 1.990 . S
N311 C308 1.314 . S
N311 C309 1.279 . S
C312 C309 1.358 . S
C312 C313 1.356 . S
C312 H349 0.930 . S
C313 C310 1.348 . S
C313 C312 1.356 . S
H314 C308 0.930 . S
H315 C309 0.930 . S
C316 N317 1.314 . S
C316 C318 1.353 . S
C316 H322 0.930 . S
N317 Li267 1.990 . S
N317 C316 1.314 . S
N317 C320 1.279 . S
C318 C316 1.353 . S
C318 C321 1.348 . S
C318 H350 0.929 . S
C319 C320 1.358 . S
C319 C321 1.356 . S
C319 H351 0.930 . S
C320 N317 1.279 . S
C320 C319 1.358 . S
C320 H323 0.930 . S
C321 C318 1.348 . S
C321 C319 1.356 . S
H322 C316 0.930 . S
H323 C320 0.930 . S
O324 Li264 1.956 . S
O324 Li265 1.970 . S
O324 Li266 1.961 . S
O324 C268 1.325 . S
O325 Li264 1.970 . S
O325 Li265 1.956 . S
O325 Li267 1.961 . S
O325 C274 1.325 . S
O326 Li264 1.961 . S
O326 Li266 1.956 . S
O326 Li267 1.970 . S
O326 C296 1.325 . S
O327 Li265 1.961 . S
O327 Li266 1.970 . S
O327 Li267 1.956 . S
O327 C302 1.325 . S
H328 C270 0.929 . S
H329 C271 0.930 . S
H330 C272 0.930 . S
H331 C273 0.930 . S
H332 C275 0.930 . S
H333 C277 0.929 . S
H334 C278 0.930 . S
H335 C279 0.930 . S
H336 C282 0.930 . S
H337 C285 0.929 . S
H338 C290 0.929 . S
H339 C291 0.930 . S
H340 C298 0.929 . S
H341 C299 0.930 . S
H342 C300 0.930 . S
H343 C301 0.930 . S
H344 C303 0.929 . S
H345 C304 0.930 . S
H346 C305 0.930 . S
H347 C306 0.930 . S
H348 C310 0.929 . S
H349 C312 0.930 . S
H350 C318 0.929 . S
H351 C319 0.930 . S
Li352 N369 1.990 . S
Li352 O412 1.956 . S
Li352 O413 1.970 . S
Li352 O414 1.961 . S
Li353 N377 1.990 . S
Li353 O412 1.970 . S
Li353 O413 1.956 . S
Li353 O415 1.961 . S
Li354 N399 1.990 . S
Li354 O412 1.961 . S
Li354 O414 1.956 . S
Li354 O415 1.970 . S
Li355 N405 1.990 . S
Li355 O413 1.961 . S
Li355 O414 1.970 . S
Li355 O415 1.956 . S
C356 C358 1.348 . S
C356 C359 1.356 . S
C356 O412 1.325 . S
N357 C360 1.314 . S
N357 C361 1.279 . S
C358 C356 1.348 . S
C358 C360 1.353 . S
C358 H416 0.929 . S
C359 C356 1.356 . S
C359 C361 1.358 . S
C359 H417 0.930 . S
C360 N357 1.314 . S
C360 C358 1.353 . S
C360 H418 0.930 . S
C361 N357 1.279 . S
C361 C359 1.358 . S
C361 H419 0.930 . S
C362 C365 1.348 . S
C362 C366 1.356 . S
C362 O413 1.325 . S
C363 N364 1.279 . S
C363 C366 1.358 . S
C363 H420 0.930 . S
N364 C363 1.279 . S
N364 C367 1.314 . S
C365 C362 1.348 . S
C365 C367 1.353 . S
C365 H421 0.929 . S
C366 C362 1.356 . S
C366 C363 1.358 . S
C366 H422 0.930 . S
C367 N364 1.314 . S
C367 C365 1.353 . S
C367 H423 0.930 . S
C368 N369 1.314 . S
C368 C373 1.353 . S
C368 H374 0.930 . S
N369 Li352 1.990 . S
N369 C368 1.314 . S
N369 C371 1.279 . S
C370 C371 1.358 . S
C370 C372 1.356 . S
C370 H424 0.930 . S
C371 N369 1.279 . S
C371 C370 1.358 . S
C371 H375 0.930 . S
C372 C370 1.356 . S
C372 C373 1.348 . S
C373 C368 1.353 . S
C373 C372 1.348 . S
C373 H425 0.929 . S
H374 C368 0.930 . S
H375 C371 0.930 . S
C376 N377 1.314 . S
C376 C378 1.353 . S
C376 H382 0.930 . S
N377 Li353 1.990 . S
N377 C376 1.314 . S
N377 C380 1.279 . S
C378 C376 1.353 . S
C378 C381 1.348 . S
C378 H426 0.929 . S
C379 C380 1.358 . S
C379 C381 1.356 . S
C379 H427 0.930 . S
C380 N377 1.279 . S
C380 C379 1.358 . S
C380 H383 0.930 . S
C381 C378 1.348 . S
C381 C379 1.356 . S
H382 C376 0.930 . S
H383 C380 0.930 . S
C384 C386 1.348 . S
C384 C387 1.356 . S
C384 O414 1.325 . S
N385 C388 1.314 . S
N385 C389 1.279 . S
C386 C384 1.348 . S
C386 C388 1.353 . S
C386 H428 0.929 . S
C387 C384 1.356 . S
C387 C389 1.358 . S
C387 H429 0.930 . S
C388 N385 1.314 . S
C388 C386 1.353 . S
C388 H430 0.930 . S
C389 N385 1.279 . S
C389 C387 1.358 . S
C389 H431 0.930 . S
C390 C391 1.348 . S
C390 C392 1.356 . S
C390 O415 1.325 . S
C391 C390 1.348 . S
C391 C393 1.353 . S
C391 H432 0.929 . S
C392 C390 1.356 . S
C392 C394 1.358 . S
C392 H433 0.930 . S
C393 C391 1.353 . S
C393 N395 1.314 . S
C393 H434 0.930 . S
C394 C392 1.358 . S
C394 N395 1.279 . S
C394 H435 0.930 . S
N395 C393 1.314 . S
N395 C394 1.279 . S
C396 C398 1.353 . S
C396 N399 1.314 . S
C396 H402 0.930 . S
C397 N399 1.279 . S
C397 C400 1.358 . S
C397 H403 0.930 . S
C398 C396 1.353 . S
C398 C401 1.348 . S
C398 H436 0.929 . S
N399 Li354 1.990 . S
N399 C396 1.314 . S
N399 C397 1.279 . S
C400 C397 1.358 . S
C400 C401 1.356 . S
C400 H437 0.930 . S
C401 C398 1.348 . S
C401 C400 1.356 . S
H402 C396 0.930 . S
H403 C397 0.930 . S
C404 N405 1.314 . S
C404 C406 1.353 . S
C404 H410 0.930 . S
N405 Li355 1.990 . S
N405 C404 1.314 . S
N405 C408 1.279 . S
C406 C404 1.353 . S
C406 C409 1.348 . S
C406 H438 0.929 . S
C407 C408 1.358 . S
C407 C409 1.356 . S
C407 H439 0.930 . S
C408 N405 1.279 . S
C408 C407 1.358 . S
C408 H411 0.930 . S
C409 C406 1.348 . S
C409 C407 1.356 . S
H410 C404 0.930 . S
H411 C408 0.930 . S
O412 Li352 1.956 . S
O412 Li353 1.970 . S
O412 Li354 1.961 . S
O412 C356 1.325 . S
O413 Li352 1.970 . S
O413 Li353 1.956 . S
O413 Li355 1.961 . S
O413 C362 1.325 . S
O414 Li352 1.961 . S
O414 Li354 1.956 . S
O414 Li355 1.970 . S
O414 C384 1.325 . S
O415 Li353 1.961 . S
O415 Li354 1.970 . S
O415 Li355 1.956 . S
O415 C390 1.325 . S
H416 C358 0.929 . S
H417 C359 0.930 . S
H418 C360 0.930 . S
H419 C361 0.930 . S
H420 C363 0.930 . S
H421 C365 0.929 . S
H422 C366 0.930 . S
H423 C367 0.930 . S
H424 C370 0.930 . S
H425 C373 0.929 . S
H426 C378 0.929 . S
H427 C379 0.930 . S
H428 C386 0.929 . S
H429 C387 0.930 . S
H430 C388 0.930 . S
H431 C389 0.930 . S
H432 C391 0.929 . S
H433 C392 0.930 . S
H434 C393 0.930 . S
H435 C394 0.930 . S
H436 C398 0.929 . S
H437 C400 0.930 . S
H438 C406 0.929 . S
H439 C407 0.930 . S
Li440 N457 1.990 . S
Li440 O500 1.956 . S
Li440 O501 1.970 . S
Li440 O502 1.961 . S
Li441 N465 1.990 . S
Li441 O500 1.970 . S
Li441 O501 1.956 . S
Li441 O503 1.961 . S
Li442 N487 1.990 . S
Li442 O500 1.961 . S
Li442 O502 1.956 . S
Li442 O503 1.970 . S
Li443 N493 1.990 . S
Li443 O501 1.961 . S
Li443 O502 1.970 . S
Li443 O503 1.956 . S
C444 C446 1.348 . S
C444 C447 1.356 . S
C444 O500 1.325 . S
N445 C448 1.314 . S
N445 C449 1.279 . S
C446 C444 1.348 . S
C446 C448 1.353 . S
C446 H504 0.929 . S
C447 C444 1.356 . S
C447 C449 1.358 . S
C447 H505 0.930 . S
C448 N445 1.314 . S
C448 C446 1.353 . S
C448 H506 0.930 . S
C449 N445 1.279 . S
C449 C447 1.358 . S
C449 H507 0.930 . S
C450 C453 1.348 . S
C450 C454 1.356 . S
C450 O501 1.325 . S
C451 N452 1.279 . S
C451 C454 1.358 . S
C451 H508 0.930 . S
N452 C451 1.279 . S
N452 C455 1.314 . S
C453 C450 1.348 . S
C453 C455 1.353 . S
C453 H509 0.929 . S
C454 C450 1.356 . S
C454 C451 1.358 . S
C454 H510 0.930 . S
C455 N452 1.314 . S
C455 C453 1.353 . S
C455 H511 0.930 . S
C456 N457 1.314 . S
C456 C461 1.353 . S
C456 H462 0.930 . S
N457 Li440 1.990 . S
N457 C456 1.314 . S
N457 C459 1.279 . S
C458 C459 1.358 . S
C458 C460 1.356 . S
C458 H512 0.930 . S
C459 N457 1.279 . S
C459 C458 1.358 . S
C459 H463 0.930 . S
C460 C458 1.356 . S
C460 C461 1.348 . S
C461 C456 1.353 . S
C461 C460 1.348 . S
C461 H513 0.929 . S
H462 C456 0.930 . S
H463 C459 0.930 . S
C464 N465 1.314 . S
C464 C466 1.353 . S
C464 H470 0.930 . S
N465 Li441 1.990 . S
N465 C464 1.314 . S
N465 C468 1.279 . S
C466 C464 1.353 . S
C466 C469 1.348 . S
C466 H514 0.929 . S
C467 C468 1.358 . S
C467 C469 1.356 . S
C467 H515 0.930 . S
C468 N465 1.279 . S
C468 C467 1.358 . S
C468 H471 0.930 . S
C469 C466 1.348 . S
C469 C467 1.356 . S
H470 C464 0.930 . S
H471 C468 0.930 . S
C472 C474 1.348 . S
C472 C475 1.356 . S
C472 O502 1.325 . S
N473 C476 1.314 . S
N473 C477 1.279 . S
C474 C472 1.348 . S
C474 C476 1.353 . S
C474 H516 0.929 . S
C475 C472 1.356 . S
C475 C477 1.358 . S
C475 H517 0.930 . S
C476 N473 1.314 . S
C476 C474 1.353 . S
C476 H518 0.930 . S
C477 N473 1.279 . S
C477 C475 1.358 . S
C477 H519 0.930 . S
C478 C479 1.348 . S
C478 C480 1.356 . S
C478 O503 1.325 . S
C479 C478 1.348 . S
C479 C481 1.353 . S
C479 H520 0.929 . S
C480 C478 1.356 . S
C480 C482 1.358 . S
C480 H521 0.930 . S
C481 C479 1.353 . S
C481 N483 1.314 . S
C481 H522 0.930 . S
C482 C480 1.358 . S
C482 N483 1.279 . S
C482 H523 0.930 . S
N483 C481 1.314 . S
N483 C482 1.279 . S
C484 C486 1.353 . S
C484 N487 1.314 . S
C484 H490 0.930 . S
C485 N487 1.279 . S
C485 C488 1.358 . S
C485 H491 0.930 . S
C486 C484 1.353 . S
C486 C489 1.348 . S
C486 H524 0.929 . S
N487 Li442 1.990 . S
N487 C484 1.314 . S
N487 C485 1.279 . S
C488 C485 1.358 . S
C488 C489 1.356 . S
C488 H525 0.930 . S
C489 C486 1.348 . S
C489 C488 1.356 . S
H490 C484 0.930 . S
H491 C485 0.930 . S
C492 N493 1.314 . S
C492 C494 1.353 . S
C492 H498 0.930 . S
N493 Li443 1.990 . S
N493 C492 1.314 . S
N493 C496 1.279 . S
C494 C492 1.353 . S
C494 C497 1.348 . S
C494 H526 0.929 . S
C495 C496 1.358 . S
C495 C497 1.356 . S
C495 H527 0.930 . S
C496 N493 1.279 . S
C496 C495 1.358 . S
C496 H499 0.930 . S
C497 C494 1.348 . S
C497 C495 1.356 . S
H498 C492 0.930 . S
H499 C496 0.930 . S
O500 Li440 1.956 . S
O500 Li441 1.970 . S
O500 Li442 1.961 . S
O500 C444 1.325 . S
O501 Li440 1.970 . S
O501 Li441 1.956 . S
O501 Li443 1.961 . S
O501 C450 1.325 . S
O502 Li440 1.961 . S
O502 Li442 1.956 . S
O502 Li443 1.970 . S
O502 C472 1.325 . S
O503 Li441 1.961 . S
O503 Li442 1.970 . S
O503 Li443 1.956 . S
O503 C478 1.325 . S
H504 C446 0.929 . S
H505 C447 0.930 . S
H506 C448 0.930 . S
H507 C449 0.930 . S
H508 C451 0.930 . S
H509 C453 0.929 . S
H510 C454 0.930 . S
H511 C455 0.930 . S
H512 C458 0.930 . S
H513 C461 0.929 . S
H514 C466 0.929 . S
H515 C467 0.930 . S
H516 C474 0.929 . S
H517 C475 0.930 . S
H518 C476 0.930 . S
H519 C477 0.930 . S
H520 C479 0.929 . S
H521 C480 0.930 . S
H522 C481 0.930 . S
H523 C482 0.930 . S
H524 C486 0.929 . S
H525 C488 0.930 . S
H526 C494 0.929 . S
H527 C495 0.930 . S
Li528 N545 1.990 . S
Li528 O588 1.956 . S
Li528 O589 1.970 . S
Li528 O590 1.961 . S
Li529 N553 1.990 . S
Li529 O588 1.970 . S
Li529 O589 1.956 . S
Li529 O591 1.961 . S
Li530 N575 1.990 . S
Li530 O588 1.961 . S
Li530 O590 1.956 . S
Li530 O591 1.970 . S
Li531 N581 1.990 . S
Li531 O589 1.961 . S
Li531 O590 1.970 . S
Li531 O591 1.956 . S
C532 C534 1.348 . S
C532 C535 1.356 . S
C532 O588 1.325 . S
N533 C536 1.314 . S
N533 C537 1.279 . S
C534 C532 1.348 . S
C534 C536 1.353 . S
C534 H592 0.929 . S
C535 C532 1.356 . S
C535 C537 1.358 . S
C535 H593 0.930 . S
C536 N533 1.314 . S
C536 C534 1.353 . S
C536 H594 0.930 . S
C537 N533 1.279 . S
C537 C535 1.358 . S
C537 H595 0.930 . S
C538 C541 1.348 . S
C538 C542 1.356 . S
C538 O589 1.325 . S
C539 N540 1.279 . S
C539 C542 1.358 . S
C539 H596 0.930 . S
N540 C539 1.279 . S
N540 C543 1.314 . S
C541 C538 1.348 . S
C541 C543 1.353 . S
C541 H597 0.929 . S
C542 C538 1.356 . S
C542 C539 1.358 . S
C542 H598 0.930 . S
C543 N540 1.314 . S
C543 C541 1.353 . S
C543 H599 0.930 . S
C544 N545 1.314 . S
C544 C549 1.353 . S
C544 H550 0.930 . S
N545 Li528 1.990 . S
N545 C544 1.314 . S
N545 C547 1.279 . S
C546 C547 1.358 . S
C546 C548 1.356 . S
C546 H600 0.930 . S
C547 N545 1.279 . S
C547 C546 1.358 . S
C547 H551 0.930 . S
C548 C546 1.356 . S
C548 C549 1.348 . S
C549 C544 1.353 . S
C549 C548 1.348 . S
C549 H601 0.929 . S
H550 C544 0.930 . S
H551 C547 0.930 . S
C552 N553 1.314 . S
C552 C554 1.353 . S
C552 H558 0.930 . S
N553 Li529 1.990 . S
N553 C552 1.314 . S
N553 C556 1.279 . S
C554 C552 1.353 . S
C554 C557 1.348 . S
C554 H602 0.929 . S
C555 C556 1.358 . S
C555 C557 1.356 . S
C555 H603 0.930 . S
C556 N553 1.279 . S
C556 C555 1.358 . S
C556 H559 0.930 . S
C557 C554 1.348 . S
C557 C555 1.356 . S
H558 C552 0.930 . S
H559 C556 0.930 . S
C560 C562 1.348 . S
C560 C563 1.356 . S
C560 O590 1.325 . S
N561 C564 1.314 . S
N561 C565 1.279 . S
C562 C560 1.348 . S
C562 C564 1.353 . S
C562 H604 0.929 . S
C563 C560 1.356 . S
C563 C565 1.358 . S
C563 H605 0.930 . S
C564 N561 1.314 . S
C564 C562 1.353 . S
C564 H606 0.930 . S
C565 N561 1.279 . S
C565 C563 1.358 . S
C565 H607 0.930 . S
C566 C567 1.348 . S
C566 C568 1.356 . S
C566 O591 1.325 . S
C567 C566 1.348 . S
C567 C569 1.353 . S
C567 H608 0.929 . S
C568 C566 1.356 . S
C568 C570 1.358 . S
C568 H609 0.930 . S
C569 C567 1.353 . S
C569 N571 1.314 . S
C569 H610 0.930 . S
C570 C568 1.358 . S
C570 N571 1.279 . S
C570 H611 0.930 . S
N571 C569 1.314 . S
N571 C570 1.279 . S
C572 C574 1.353 . S
C572 N575 1.314 . S
C572 H578 0.930 . S
C573 N575 1.279 . S
C573 C576 1.358 . S
C573 H579 0.930 . S
C574 C572 1.353 . S
C574 C577 1.348 . S
C574 H612 0.929 . S
N575 Li530 1.990 . S
N575 C572 1.314 . S
N575 C573 1.279 . S
C576 C573 1.358 . S
C576 C577 1.356 . S
C576 H613 0.930 . S
C577 C574 1.348 . S
C577 C576 1.356 . S
H578 C572 0.930 . S
H579 C573 0.930 . S
C580 N581 1.314 . S
C580 C582 1.353 . S
C580 H586 0.930 . S
N581 Li531 1.990 . S
N581 C580 1.314 . S
N581 C584 1.279 . S
C582 C580 1.353 . S
C582 C585 1.348 . S
C582 H614 0.929 . S
C583 C584 1.358 . S
C583 C585 1.356 . S
C583 H615 0.930 . S
C584 N581 1.279 . S
C584 C583 1.358 . S
C584 H587 0.930 . S
C585 C582 1.348 . S
C585 C583 1.356 . S
H586 C580 0.930 . S
H587 C584 0.930 . S
O588 Li528 1.956 . S
O588 Li529 1.970 . S
O588 Li530 1.961 . S
O588 C532 1.325 . S
O589 Li528 1.970 . S
O589 Li529 1.956 . S
O589 Li531 1.961 . S
O589 C538 1.325 . S
O590 Li528 1.961 . S
O590 Li530 1.956 . S
O590 Li531 1.970 . S
O590 C560 1.325 . S
O591 Li529 1.961 . S
O591 Li530 1.970 . S
O591 Li531 1.956 . S
O591 C566 1.325 . S
H592 C534 0.929 . S
H593 C535 0.930 . S
H594 C536 0.930 . S
H595 C537 0.930 . S
H596 C539 0.930 . S
H597 C541 0.929 . S
H598 C542 0.930 . S
H599 C543 0.930 . S
H600 C546 0.930 . S
H601 C549 0.929 . S
H602 C554 0.929 . S
H603 C555 0.930 . S
H604 C562 0.929 . S
H605 C563 0.930 . S
H606 C564 0.930 . S
H607 C565 0.930 . S
H608 C567 0.929 . S
H609 C568 0.930 . S
H610 C569 0.930 . S
H611 C570 0.930 . S
H612 C574 0.929 . S
H613 C576 0.930 . S
H614 C582 0.929 . S
H615 C583 0.930 . S
Li616 N633 1.990 . S
Li616 O676 1.956 . S
Li616 O677 1.970 . S
Li616 O678 1.961 . S
Li617 N641 1.990 . S
Li617 O676 1.970 . S
Li617 O677 1.956 . S
Li617 O679 1.961 . S
Li618 N663 1.990 . S
Li618 O676 1.961 . S
Li618 O678 1.956 . S
Li618 O679 1.970 . S
Li619 N669 1.990 . S
Li619 O677 1.961 . S
Li619 O678 1.970 . S
Li619 O679 1.956 . S
C620 C622 1.348 . S
C620 C623 1.356 . S
C620 O676 1.325 . S
N621 C624 1.314 . S
N621 C625 1.279 . S
C622 C620 1.348 . S
C622 C624 1.353 . S
C622 H680 0.929 . S
C623 C620 1.356 . S
C623 C625 1.358 . S
C623 H681 0.930 . S
C624 N621 1.314 . S
C624 C622 1.353 . S
C624 H682 0.930 . S
C625 N621 1.279 . S
C625 C623 1.358 . S
C625 H683 0.930 . S
C626 C629 1.348 . S
C626 C630 1.356 . S
C626 O677 1.325 . S
C627 N628 1.279 . S
C627 C630 1.358 . S
C627 H684 0.930 . S
N628 C627 1.279 . S
N628 C631 1.314 . S
C629 C626 1.348 . S
C629 C631 1.353 . S
C629 H685 0.929 . S
C630 C626 1.356 . S
C630 C627 1.358 . S
C630 H686 0.930 . S
C631 N628 1.314 . S
C631 C629 1.353 . S
C631 H687 0.930 . S
C632 N633 1.314 . S
C632 C637 1.353 . S
C632 H638 0.930 . S
N633 Li616 1.990 . S
N633 C632 1.314 . S
N633 C635 1.279 . S
C634 C635 1.358 . S
C634 C636 1.356 . S
C634 H688 0.930 . S
C635 N633 1.279 . S
C635 C634 1.358 . S
C635 H639 0.930 . S
C636 C634 1.356 . S
C636 C637 1.348 . S
C637 C632 1.353 . S
C637 C636 1.348 . S
C637 H689 0.929 . S
H638 C632 0.930 . S
H639 C635 0.930 . S
C640 N641 1.314 . S
C640 C642 1.353 . S
C640 H646 0.930 . S
N641 Li617 1.990 . S
N641 C640 1.314 . S
N641 C644 1.279 . S
C642 C640 1.353 . S
C642 C645 1.348 . S
C642 H690 0.929 . S
C643 C644 1.358 . S
C643 C645 1.356 . S
C643 H691 0.930 . S
C644 N641 1.279 . S
C644 C643 1.358 . S
C644 H647 0.930 . S
C645 C642 1.348 . S
C645 C643 1.356 . S
H646 C640 0.930 . S
H647 C644 0.930 . S
C648 C650 1.348 . S
C648 C651 1.356 . S
C648 O678 1.325 . S
N649 C652 1.314 . S
N649 C653 1.279 . S
C650 C648 1.348 . S
C650 C652 1.353 . S
C650 H692 0.929 . S
C651 C648 1.356 . S
C651 C653 1.358 . S
C651 H693 0.930 . S
C652 N649 1.314 . S
C652 C650 1.353 . S
C652 H694 0.930 . S
C653 N649 1.279 . S
C653 C651 1.358 . S
C653 H695 0.930 . S
C654 C655 1.348 . S
C654 C656 1.356 . S
C654 O679 1.325 . S
C655 C654 1.348 . S
C655 C657 1.353 . S
C655 H696 0.929 . S
C656 C654 1.356 . S
C656 C658 1.358 . S
C656 H697 0.930 . S
C657 C655 1.353 . S
C657 N659 1.314 . S
C657 H698 0.930 . S
C658 C656 1.358 . S
C658 N659 1.279 . S
C658 H699 0.930 . S
N659 C657 1.314 . S
N659 C658 1.279 . S
C660 C662 1.353 . S
C660 N663 1.314 . S
C660 H666 0.930 . S
C661 N663 1.279 . S
C661 C664 1.358 . S
C661 H667 0.930 . S
C662 C660 1.353 . S
C662 C665 1.348 . S
C662 H700 0.929 . S
N663 Li618 1.990 . S
N663 C660 1.314 . S
N663 C661 1.279 . S
C664 C661 1.358 . S
C664 C665 1.356 . S
C664 H701 0.930 . S
C665 C662 1.348 . S
C665 C664 1.356 . S
H666 C660 0.930 . S
H667 C661 0.930 . S
C668 N669 1.314 . S
C668 C670 1.353 . S
C668 H674 0.930 . S
N669 Li619 1.990 . S
N669 C668 1.314 . S
N669 C672 1.279 . S
C670 C668 1.353 . S
C670 C673 1.348 . S
C670 H702 0.929 . S
C671 C672 1.358 . S
C671 C673 1.356 . S
C671 H703 0.930 . S
C672 N669 1.279 . S
C672 C671 1.358 . S
C672 H675 0.930 . S
C673 C670 1.348 . S
C673 C671 1.356 . S
H674 C668 0.930 . S
H675 C672 0.930 . S
O676 Li616 1.956 . S
O676 Li617 1.970 . S
O676 Li618 1.961 . S
O676 C620 1.325 . S
O677 Li616 1.970 . S
O677 Li617 1.956 . S
O677 Li619 1.961 . S
O677 C626 1.325 . S
O678 Li616 1.961 . S
O678 Li618 1.956 . S
O678 Li619 1.970 . S
O678 C648 1.325 . S
O679 Li617 1.961 . S
O679 Li618 1.970 . S
O679 Li619 1.956 . S
O679 C654 1.325 . S
H680 C622 0.929 . S
H681 C623 0.930 . S
H682 C624 0.930 . S
H683 C625 0.930 . S
H684 C627 0.930 . S
H685 C629 0.929 . S
H686 C630 0.930 . S
H687 C631 0.930 . S
H688 C634 0.930 . S
H689 C637 0.929 . S
H690 C642 0.929 . S
H691 C643 0.930 . S
H692 C650 0.929 . S
H693 C651 0.930 . S
H694 C652 0.930 . S
H695 C653 0.930 . S
H696 C655 0.929 . S
H697 C656 0.930 . S
H698 C657 0.930 . S
H699 C658 0.930 . S
H700 C662 0.929 . S
H701 C664 0.930 . S
H702 C670 0.929 . S
H703 C671 0.930 . S
Li704 N721 1.990 . S
Li704 O764 1.956 . S
Li704 O765 1.970 . S
Li704 O766 1.961 . S
Li705 N729 1.990 . S
Li705 O764 1.970 . S
Li705 O765 1.956 . S
Li705 O767 1.961 . S
Li706 N751 1.990 . S
Li706 O764 1.961 . S
Li706 O766 1.956 . S
Li706 O767 1.970 . S
Li707 N757 1.990 . S
Li707 O765 1.961 . S
Li707 O766 1.970 . S
Li707 O767 1.956 . S
C708 C710 1.348 . S
C708 C711 1.356 . S
C708 O764 1.325 . S
N709 C712 1.314 . S
N709 C713 1.279 1_545 S
C710 C708 1.348 . S
C710 C712 1.353 1_565 S
C710 H768 0.929 . S
C711 C708 1.356 . S
C711 C713 1.358 . S
C711 H769 0.930 . S
C712 N709 1.314 . S
C712 C710 1.353 1_545 S
C712 H770 0.930 . S
C713 N709 1.279 1_565 S
C713 C711 1.358 . S
C713 H771 0.930 . S
C714 C717 1.348 . S
C714 C718 1.356 . S
C714 O765 1.325 . S
C715 N716 1.279 . S
C715 C718 1.358 . S
C715 H772 0.930 . S
N716 C715 1.279 . S
N716 C719 1.314 1_565 S
C717 C714 1.348 . S
C717 C719 1.353 1_565 S
C717 H773 0.929 1_565 S
C718 C714 1.356 . S
C718 C715 1.358 . S
C718 H774 0.930 . S
C719 N716 1.314 1_545 S
C719 C717 1.353 1_545 S
C719 H775 0.930 . S
C720 N721 1.313 1_545 S
C720 C725 1.366 . S
C720 H726 0.917 1_545 S
N721 Li704 1.990 . S
N721 C720 1.313 1_565 S
N721 C723 1.279 1_565 S
C722 C723 1.358 . S
C722 C724 1.356 . S
C722 H776 0.930 . S
C723 N721 1.279 1_545 S
C723 C722 1.358 . S
C723 H727 0.930 . S
C724 C722 1.356 . S
C724 C725 1.348 . S
C725 C720 1.366 . S
C725 C724 1.348 . S
C725 H777 0.929 . S
H726 C720 0.917 1_565 S
H727 C723 0.930 . S
C728 N729 1.314 . S
C728 C730 1.353 . S
C728 H734 0.930 . S
N729 Li705 1.990 . S
N729 C728 1.314 . S
N729 C732 1.279 . S
C730 C728 1.353 . S
C730 C733 1.348 . S
C730 H778 0.929 . S
C731 C732 1.358 . S
C731 C733 1.356 . S
C731 H779 0.930 . S
C732 N729 1.279 . S
C732 C731 1.358 . S
C732 H735 0.930 . S
C733 C730 1.348 . S
C733 C731 1.356 . S
H734 C728 0.930 . S
H735 C732 0.930 . S
C736 C738 1.348 . S
C736 C739 1.356 . S
C736 O766 1.325 . S
N737 C740 1.314 . S
N737 C741 1.279 . S
C738 C736 1.348 . S
C738 C740 1.353 . S
C738 H780 0.929 . S
C739 C736 1.356 . S
C739 C741 1.358 . S
C739 H781 0.930 . S
C740 N737 1.314 . S
C740 C738 1.353 . S
C740 H782 0.930 . S
C741 N737 1.279 . S
C741 C739 1.358 . S
C741 H783 0.930 . S
C742 C743 1.348 . S
C742 C744 1.356 . S
C742 O767 1.325 . S
C743 C742 1.348 . S
C743 C745 1.353 . S
C743 H784 0.929 . S
C744 C742 1.356 . S
C744 C746 1.358 . S
C744 H785 0.930 . S
C745 C743 1.353 . S
C745 N747 1.314 . S
C745 H786 0.930 . S
C746 C744 1.358 . S
C746 N747 1.279 . S
C746 H787 0.930 . S
N747 C745 1.314 . S
N747 C746 1.279 . S
C748 C750 1.353 . S
C748 N751 1.314 . S
C748 H754 0.930 . S
C749 N751 1.279 . S
C749 C752 1.358 . S
C749 H755 0.930 . S
C750 C748 1.353 . S
C750 C753 1.348 . S
C750 H788 0.929 . S
N751 Li706 1.990 . S
N751 C748 1.314 . S
N751 C749 1.279 . S
C752 C749 1.358 . S
C752 C753 1.356 . S
C752 H789 0.930 . S
C753 C750 1.348 . S
C753 C752 1.356 . S
H754 C748 0.930 . S
H755 C749 0.930 . S
C756 N757 1.314 . S
C756 C758 1.353 . S
C756 H762 0.930 . S
N757 Li707 1.990 . S
N757 C756 1.314 . S
N757 C760 1.279 . S
C758 C756 1.353 . S
C758 C761 1.348 . S
C758 H790 0.929 . S
C759 C760 1.358 . S
C759 C761 1.356 . S
C759 H791 0.930 . S
C760 N757 1.279 . S
C760 C759 1.358 . S
C760 H763 0.930 . S
C761 C758 1.348 . S
C761 C759 1.356 . S
H762 C756 0.930 . S
H763 C760 0.930 . S
O764 Li704 1.956 . S
O764 Li705 1.970 . S
O764 Li706 1.961 . S
O764 C708 1.325 . S
O765 Li704 1.970 . S
O765 Li705 1.956 . S
O765 Li707 1.961 . S
O765 C714 1.325 . S
O766 Li704 1.961 . S
O766 Li706 1.956 . S
O766 Li707 1.970 . S
O766 C736 1.325 . S
O767 Li705 1.961 . S
O767 Li706 1.970 . S
O767 Li707 1.956 . S
O767 C742 1.325 . S
H768 C710 0.929 . S
H769 C711 0.930 . S
H770 C712 0.930 . S
H771 C713 0.930 . S
H772 C715 0.930 . S
H773 C717 0.929 1_545 S
H774 C718 0.930 . S
H775 C719 0.930 . S
H776 C722 0.930 . S
H777 C725 0.929 . S
H778 C730 0.929 . S
H779 C731 0.930 . S
H780 C738 0.929 . S
H781 C739 0.930 . S
H782 C740 0.930 . S
H783 C741 0.930 . S
H784 C743 0.929 . S
H785 C744 0.930 . S
H786 C745 0.930 . S
H787 C746 0.930 . S
H788 C750 0.929 . S
H789 C752 0.930 . S
H790 C758 0.929 . S
H791 C759 0.930 . S
Li792 N809 1.990 . S
Li792 O852 1.956 . S
Li792 O853 1.970 . S
Li792 O854 1.961 . S
Li793 N817 1.990 . S
Li793 O852 1.970 . S
Li793 O853 1.956 . S
Li793 O855 1.961 . S
Li794 N839 1.990 . S
Li794 O852 1.961 . S
Li794 O854 1.956 . S
Li794 O855 1.970 . S
Li795 N845 1.990 . S
Li795 O853 1.961 . S
Li795 O854 1.970 . S
Li795 O855 1.956 . S
C796 C798 1.348 . S
C796 C799 1.356 . S
C796 O852 1.325 . S
N797 C800 1.314 . S
N797 C801 1.279 . S
C798 C796 1.348 . S
C798 C800 1.353 . S
C798 H856 0.929 . S
C799 C796 1.356 . S
C799 C801 1.358 . S
C799 H857 0.930 . S
C800 N797 1.314 . S
C800 C798 1.353 . S
C800 H858 0.930 1_655 S
C801 N797 1.279 . S
C801 C799 1.358 . S
C801 H859 0.930 . S
C802 C805 1.348 . S
C802 C806 1.356 . S
C802 O853 1.325 . S
C803 N804 1.279 . S
C803 C806 1.358 . S
C803 H860 0.930 . S
N804 C803 1.279 . S
N804 C807 1.314 . S
C805 C802 1.348 . S
C805 C807 1.353 . S
C805 H861 0.929 . S
C806 C802 1.356 . S
C806 C803 1.358 . S
C806 H862 0.930 . S
C807 N804 1.314 . S
C807 C805 1.353 . S
C807 H863 0.930 . S
C808 N809 1.314 . S
C808 C813 1.353 . S
C808 H814 0.930 . S
N809 Li792 1.990 . S
N809 C808 1.314 . S
N809 C811 1.279 . S
C810 C811 1.358 . S
C810 C812 1.356 . S
C810 H864 0.930 . S
C811 N809 1.279 . S
C811 C810 1.358 . S
C811 H815 0.930 . S
C812 C810 1.356 . S
C812 C813 1.348 . S
C813 C808 1.353 . S
C813 C812 1.348 . S
C813 H865 0.929 . S
H814 C808 0.930 . S
H815 C811 0.930 . S
C816 N817 1.314 1_455 S
C816 C818 1.353 . S
C816 H822 0.930 . S
N817 Li793 1.990 . S
N817 C816 1.314 1_655 S
N817 C820 1.279 . S
C818 C816 1.353 . S
C818 C821 1.348 . S
C818 H866 0.929 . S
C819 C820 1.358 1_455 S
C819 C821 1.356 . S
C819 H867 0.930 . S
C820 N817 1.279 . S
C820 C819 1.358 1_655 S
C820 H823 0.930 . S
C821 C818 1.348 . S
C821 C819 1.356 . S
H822 C816 0.930 . S
H823 C820 0.930 . S
C824 C826 1.348 . S
C824 C827 1.356 . S
C824 O854 1.325 . S
N825 C828 1.314 . S
N825 C829 1.279 . S
C826 C824 1.348 . S
C826 C828 1.353 . S
C826 H868 0.929 . S
C827 C824 1.356 . S
C827 C829 1.358 . S
C827 H869 0.930 . S
C828 N825 1.314 . S
C828 C826 1.353 . S
C828 H870 0.930 . S
C829 N825 1.279 . S
C829 C827 1.358 . S
C829 H871 0.930 . S
C830 C831 1.348 . S
C830 C832 1.356 . S
C830 O855 1.325 . S
C831 C830 1.348 . S
C831 C833 1.353 . S
C831 H872 0.929 . S
C832 C830 1.356 . S
C832 C834 1.370 . S
C832 H873 0.930 . S
C833 C831 1.353 . S
C833 N835 1.314 1_655 S
C833 H874 0.930 . S
C834 C832 1.370 . S
C834 N835 1.276 1_655 S
C834 H875 0.922 1_655 S
N835 C833 1.314 1_455 S
N835 C834 1.276 1_455 S
C836 C838 1.353 . S
C836 N839 1.314 . S
C836 H842 0.930 . S
C837 N839 1.279 . S
C837 C840 1.358 . S
C837 H843 0.930 . S
C838 C836 1.353 . S
C838 C841 1.348 . S
C838 H876 0.929 . S
N839 Li794 1.990 . S
N839 C836 1.314 . S
N839 C837 1.279 . S
C840 C837 1.358 . S
C840 C841 1.356 . S
C840 H877 0.930 . S
C841 C838 1.348 . S
C841 C840 1.356 . S
H842 C836 0.930 . S
H843 C837 0.930 . S
C844 N845 1.314 . S
C844 C846 1.353 . S
C844 H850 0.930 . S
N845 Li795 1.990 . S
N845 C844 1.314 . S
N845 C848 1.279 . S
C846 C844 1.353 . S
C846 C849 1.348 . S
C846 H878 0.929 . S
C847 C848 1.358 . S
C847 C849 1.356 . S
C847 H879 0.930 . S
C848 N845 1.279 . S
C848 C847 1.358 . S
C848 H851 0.930 . S
C849 C846 1.348 . S
C849 C847 1.356 . S
H850 C844 0.930 . S
H851 C848 0.930 . S
O852 Li792 1.956 . S
O852 Li793 1.970 . S
O852 Li794 1.961 . S
O852 C796 1.325 . S
O853 Li792 1.970 . S
O853 Li793 1.956 . S
O853 Li795 1.961 . S
O853 C802 1.325 . S
O854 Li792 1.961 . S
O854 Li794 1.956 . S
O854 Li795 1.970 . S
O854 C824 1.325 . S
O855 Li793 1.961 . S
O855 Li794 1.970 . S
O855 Li795 1.956 . S
O855 C830 1.325 . S
H856 C798 0.929 . S
H857 C799 0.930 . S
H858 C800 0.930 1_455 S
H859 C801 0.930 . S
H860 C803 0.930 . S
H861 C805 0.929 . S
H862 C806 0.930 . S
H863 C807 0.930 . S
H864 C810 0.930 . S
H865 C813 0.929 . S
H866 C818 0.929 . S
H867 C819 0.930 . S
H868 C826 0.929 . S
H869 C827 0.930 . S
H870 C828 0.930 . S
H871 C829 0.930 . S
H872 C831 0.929 . S
H873 C832 0.930 . S
H874 C833 0.930 . S
H875 C834 0.922 1_455 S
H876 C838 0.929 . S
H877 C840 0.930 . S
H878 C846 0.929 . S
H879 C847 0.930 . S
Li880 N897 1.990 . S
Li880 O940 1.956 . S
Li880 O941 1.970 . S
Li880 O942 1.961 . S
Li881 N905 1.990 . S
Li881 O940 1.970 . S
Li881 O941 1.956 . S
Li881 O943 1.961 . S
Li882 N927 1.990 . S
Li882 O940 1.961 . S
Li882 O942 1.956 . S
Li882 O943 1.970 . S
Li883 N933 1.990 . S
Li883 O941 1.961 . S
Li883 O942 1.970 . S
Li883 O943 1.956 . S
C884 C886 1.348 . S
C884 C887 1.356 . S
C884 O940 1.325 . S
N885 C888 1.314 . S
N885 C889 1.279 . S
C886 C884 1.348 . S
C886 C888 1.353 . S
C886 H944 0.929 . S
C887 C884 1.356 . S
C887 C889 1.358 . S
C887 H945 0.930 . S
C888 N885 1.314 . S
C888 C886 1.353 . S
C888 H946 0.930 . S
C889 N885 1.279 . S
C889 C887 1.358 . S
C889 H947 0.930 . S
C890 C893 1.348 . S
C890 C894 1.356 . S
C890 O941 1.325 . S
C891 N892 1.279 . S
C891 C894 1.358 . S
C891 H948 0.930 . S
N892 C891 1.279 . S
N892 C895 1.314 . S
C893 C890 1.348 . S
C893 C895 1.353 . S
C893 H949 0.929 . S
C894 C890 1.356 . S
C894 C891 1.358 . S
C894 H950 0.930 . S
C895 N892 1.314 . S
C895 C893 1.353 . S
C895 H951 0.930 . S
C896 N897 1.314 . S
C896 C901 1.353 . S
C896 H902 0.930 . S
N897 Li880 1.990 . S
N897 C896 1.314 . S
N897 C899 1.279 . S
C898 C899 1.358 . S
C898 C900 1.356 . S
C898 H952 0.930 . S
C899 N897 1.279 . S
C899 C898 1.358 . S
C899 H903 0.930 . S
C900 C898 1.356 . S
C900 C901 1.348 . S
C901 C896 1.353 . S
C901 C900 1.348 . S
C901 H953 0.929 . S
H902 C896 0.930 . S
H903 C899 0.930 . S
C904 N905 1.314 . S
C904 C906 1.353 . S
C904 H910 0.930 . S
N905 Li881 1.990 . S
N905 C904 1.314 . S
N905 C908 1.279 . S
C906 C904 1.353 . S
C906 C909 1.348 . S
C906 H954 0.929 . S
C907 C908 1.358 . S
C907 C909 1.356 . S
C907 H955 0.930 . S
C908 N905 1.279 . S
C908 C907 1.358 . S
C908 H911 0.930 . S
C909 C906 1.348 . S
C909 C907 1.356 . S
H910 C904 0.930 . S
H911 C908 0.930 . S
C912 C914 1.348 . S
C912 C915 1.356 . S
C912 O942 1.325 . S
N913 C916 1.314 . S
N913 C917 1.279 1_565 S
C914 C912 1.348 . S
C914 C916 1.353 1_545 S
C914 H956 0.929 . S
C915 C912 1.356 . S
C915 C917 1.358 . S
C915 H957 0.930 . S
C916 N913 1.314 . S
C916 C914 1.353 1_565 S
C916 H958 0.930 . S
C917 N913 1.279 1_545 S
C917 C915 1.358 . S
C917 H959 0.930 . S
C918 C919 1.348 . S
C918 C920 1.356 . S
C918 O943 1.325 . S
C919 C918 1.348 . S
C919 C921 1.353 1_545 S
C919 H960 0.929 1_545 S
C920 C918 1.356 . S
C920 C922 1.358 . S
C920 H961 0.930 . S
C921 C919 1.353 1_565 S
C921 N923 1.314 1_565 S
C921 H962 0.930 . S
C922 C920 1.358 . S
C922 N923 1.279 . S
C922 H963 0.930 . S
N923 C921 1.314 1_545 S
N923 C922 1.279 . S
C924 C926 1.366 . S
C924 N927 1.313 1_565 S
C924 H930 0.917 1_565 S
C925 N927 1.279 1_565 S
C925 C928 1.358 . S
C925 H931 0.930 . S
C926 C924 1.366 . S
C926 C929 1.348 . S
C926 H964 0.929 . S
N927 Li882 1.990 . S
N927 C924 1.313 1_545 S
N927 C925 1.279 1_545 S
C928 C925 1.358 . S
C928 C929 1.356 . S
C928 H965 0.930 . S
C929 C926 1.348 . S
C929 C928 1.356 . S
H930 C924 0.917 1_545 S
H931 C925 0.930 . S
C932 N933 1.314 . S
C932 C934 1.353 . S
C932 H938 0.930 . S
N933 Li883 1.990 . S
N933 C932 1.314 . S
N933 C936 1.279 . S
C934 C932 1.353 . S
C934 C937 1.348 . S
C934 H966 0.929 . S
C935 C936 1.358 . S
C935 C937 1.356 . S
C935 H967 0.930 . S
C936 N933 1.279 . S
C936 C935 1.358 . S
C936 H939 0.930 . S
C937 C934 1.348 . S
C937 C935 1.356 . S
H938 C932 0.930 . S
H939 C936 0.930 . S
O940 Li880 1.956 . S
O940 Li881 1.970 . S
O940 Li882 1.961 . S
O940 C884 1.325 . S
O941 Li880 1.970 . S
O941 Li881 1.956 . S
O941 Li883 1.961 . S
O941 C890 1.325 . S
O942 Li880 1.961 . S
O942 Li882 1.956 . S
O942 Li883 1.970 . S
O942 C912 1.325 . S
O943 Li881 1.961 . S
O943 Li882 1.970 . S
O943 Li883 1.956 . S
O943 C918 1.325 . S
H944 C886 0.929 . S
H945 C887 0.930 . S
H946 C888 0.930 . S
H947 C889 0.930 . S
H948 C891 0.930 . S
H949 C893 0.929 . S
H950 C894 0.930 . S
H951 C895 0.930 . S
H952 C898 0.930 . S
H953 C901 0.929 . S
H954 C906 0.929 . S
H955 C907 0.930 . S
H956 C914 0.929 . S
H957 C915 0.930 . S
H958 C916 0.930 . S
H959 C917 0.930 . S
H960 C919 0.929 1_565 S
H961 C920 0.930 . S
H962 C921 0.930 . S
H963 C922 0.930 . S
H964 C926 0.929 . S
H965 C928 0.930 . S
H966 C934 0.929 . S
H967 C935 0.930 . S
Li968 N985 1.990 . S
Li968 O1028 1.956 . S
Li968 O1029 1.970 . S
Li968 O1030 1.961 . S
Li969 N993 1.990 . S
Li969 O1028 1.970 . S
Li969 O1029 1.956 . S
Li969 O1031 1.961 . S
Li970 N1015 1.990 . S
Li970 O1028 1.961 . S
Li970 O1030 1.956 . S
Li970 O1031 1.970 . S
Li971 N1021 1.990 . S
Li971 O1029 1.961 . S
Li971 O1030 1.970 . S
Li971 O1031 1.956 . S
C972 C974 1.348 . S
C972 C975 1.356 . S
C972 O1028 1.325 . S
N973 C976 1.314 . S
N973 C977 1.279 . S
C974 C972 1.348 . S
C974 C976 1.353 . S
C974 H1032 0.929 . S
C975 C972 1.356 . S
C975 C977 1.358 . S
C975 H1033 0.930 . S
C976 N973 1.314 . S
C976 C974 1.353 . S
C976 H1034 0.930 . S
C977 N973 1.279 . S
C977 C975 1.358 . S
C977 H1035 0.930 . S
C978 C981 1.348 . S
C978 C982 1.356 . S
C978 O1029 1.325 . S
C979 N980 1.279 . S
C979 C982 1.358 . S
C979 H1036 0.930 . S
N980 C979 1.279 . S
N980 C983 1.314 . S
C981 C978 1.348 . S
C981 C983 1.353 . S
C981 H1037 0.929 . S
C982 C978 1.356 . S
C982 C979 1.358 . S
C982 H1038 0.930 . S
C983 N980 1.314 . S
C983 C981 1.353 . S
C983 H1039 0.930 1_455 S
C984 N985 1.314 1_655 S
C984 C989 1.353 . S
C984 H990 0.930 . S
N985 Li968 1.990 . S
N985 C984 1.314 1_455 S
N985 C987 1.279 . S
C986 C987 1.358 1_655 S
C986 C988 1.356 . S
C986 H1040 0.930 . S
C987 N985 1.279 . S
C987 C986 1.358 1_455 S
C987 H991 0.930 . S
C988 C986 1.356 . S
C988 C989 1.348 . S
C989 C984 1.353 . S
C989 C988 1.348 . S
C989 H1041 0.929 . S
H990 C984 0.930 . S
H991 C987 0.930 . S
C992 N993 1.314 . S
C992 C994 1.353 . S
C992 H998 0.930 . S
N993 Li969 1.990 . S
N993 C992 1.314 . S
N993 C996 1.279 . S
C994 C992 1.353 . S
C994 C997 1.348 . S
C994 H1042 0.929 . S
C995 C996 1.358 . S
C995 C997 1.356 . S
C995 H1043 0.930 . S
C996 N993 1.279 . S
C996 C995 1.358 . S
C996 H999 0.930 . S
C997 C994 1.348 . S
C997 C995 1.356 . S
H998 C992 0.930 . S
H999 C996 0.930 . S
C1000 C1002 1.348 . S
C1000 C1003 1.356 . S
C1000 O1030 1.325 . S
N1001 C1004 1.314 1_655 S
N1001 C1005 1.276 1_655 S
C1002 C1000 1.348 . S
C1002 C1004 1.353 . S
C1002 H1044 0.929 . S
C1003 C1000 1.356 . S
C1003 C1005 1.370 . S
C1003 H1045 0.930 . S
C1004 N1001 1.314 1_455 S
C1004 C1002 1.353 . S
C1004 H1046 0.930 . S
C1005 N1001 1.276 1_455 S
C1005 C1003 1.370 . S
C1005 H1047 0.922 1_455 S
C1006 C1007 1.348 . S
C1006 C1008 1.356 . S
C1006 O1031 1.325 . S
C1007 C1006 1.348 . S
C1007 C1009 1.353 . S
C1007 H1048 0.929 . S
C1008 C1006 1.356 . S
C1008 C1010 1.358 . S
C1008 H1049 0.930 . S
C1009 C1007 1.353 . S
C1009 N1011 1.314 . S
C1009 H1050 0.930 . S
C1010 C1008 1.358 . S
C1010 N1011 1.279 . S
C1010 H1051 0.930 . S
N1011 C1009 1.314 . S
N1011 C1010 1.279 . S
C1012 C1014 1.353 . S
C1012 N1015 1.314 . S
C1012 H1018 0.930 . S
C1013 N1015 1.279 . S
C1013 C1016 1.358 . S
C1013 H1019 0.930 . S
C1014 C1012 1.353 . S
C1014 C1017 1.348 . S
C1014 H1052 0.929 . S
N1015 Li970 1.990 . S
N1015 C1012 1.314 . S
N1015 C1013 1.279 . S
C1016 C1013 1.358 . S
C1016 C1017 1.356 . S
C1016 H1053 0.930 . S
C1017 C1014 1.348 . S
C1017 C1016 1.356 . S
H1018 C1012 0.930 . S
H1019 C1013 0.930 . S
C1020 N1021 1.314 . S
C1020 C1022 1.353 . S
C1020 H1026 0.930 . S
N1021 Li971 1.990 . S
N1021 C1020 1.314 . S
N1021 C1024 1.279 . S
C1022 C1020 1.353 . S
C1022 C1025 1.348 . S
C1022 H1054 0.929 . S
C1023 C1024 1.358 . S
C1023 C1025 1.356 . S
C1023 H1055 0.930 . S
C1024 N1021 1.279 . S
C1024 C1023 1.358 . S
C1024 H1027 0.930 . S
C1025 C1022 1.348 . S
C1025 C1023 1.356 . S
H1026 C1020 0.930 . S
H1027 C1024 0.930 . S
O1028 Li968 1.956 . S
O1028 Li969 1.970 . S
O1028 Li970 1.961 . S
O1028 C972 1.325 . S
O1029 Li968 1.970 . S
O1029 Li969 1.956 . S
O1029 Li971 1.961 . S
O1029 C978 1.325 . S
O1030 Li968 1.961 . S
O1030 Li970 1.956 . S
O1030 Li971 1.970 . S
O1030 C1000 1.325 . S
O1031 Li969 1.961 . S
O1031 Li970 1.970 . S
O1031 Li971 1.956 . S
O1031 C1006 1.325 . S
H1032 C974 0.929 . S
H1033 C975 0.930 . S
H1034 C976 0.930 . S
H1035 C977 0.930 . S
H1036 C979 0.930 . S
H1037 C981 0.929 . S
H1038 C982 0.930 . S
H1039 C983 0.930 1_655 S
H1040 C986 0.930 . S
H1041 C989 0.929 . S
H1042 C994 0.929 . S
H1043 C995 0.930 . S
H1044 C1002 0.929 . S
H1045 C1003 0.930 . S
H1046 C1004 0.930 . S
H1047 C1005 0.922 1_655 S
H1048 C1007 0.929 . S
H1049 C1008 0.930 . S
H1050 C1009 0.930 . S
H1051 C1010 0.930 . S
H1052 C1014 0.929 . S
H1053 C1016 0.930 . S
H1054 C1022 0.929 . S
H1055 C1023 0.930 . S
Li1056 N1073 1.990 . S
Li1056 O1116 1.956 . S
Li1056 O1117 1.970 . S
Li1056 O1118 1.961 . S
Li1057 N1081 1.990 . S
Li1057 O1116 1.970 . S
Li1057 O1117 1.956 . S
Li1057 O1119 1.961 . S
Li1058 N1103 1.990 . S
Li1058 O1116 1.961 . S
Li1058 O1118 1.956 . S
Li1058 O1119 1.970 . S
Li1059 N1109 1.990 . S
Li1059 O1117 1.961 . S
Li1059 O1118 1.970 . S
Li1059 O1119 1.956 . S
C1060 C1062 1.348 . S
C1060 C1063 1.356 . S
C1060 O1116 1.325 . S
N1061 C1064 1.314 . S
N1061 C1065 1.279 . S
C1062 C1060 1.348 . S
C1062 C1064 1.353 . S
C1062 H1120 0.929 . S
C1063 C1060 1.356 . S
C1063 C1065 1.358 . S
C1063 H1121 0.930 . S
C1064 N1061 1.314 . S
C1064 C1062 1.353 . S
C1064 H1122 0.930 . S
C1065 N1061 1.279 . S
C1065 C1063 1.358 . S
C1065 H1123 0.930 . S
C1066 C1069 1.348 . S
C1066 C1070 1.356 . S
C1066 O1117 1.325 . S
C1067 N1068 1.279 . S
C1067 C1070 1.358 . S
C1067 H1124 0.930 . S
N1068 C1067 1.279 . S
N1068 C1071 1.314 . S
C1069 C1066 1.348 . S
C1069 C1071 1.353 . S
C1069 H1125 0.929 . S
C1070 C1066 1.356 . S
C1070 C1067 1.358 . S
C1070 H1126 0.930 . S
C1071 N1068 1.314 . S
C1071 C1069 1.353 . S
C1071 H1127 0.930 . S
C1072 N1073 1.314 . S
C1072 C1077 1.353 . S
C1072 H1078 0.930 . S
N1073 Li1056 1.990 . S
N1073 C1072 1.314 . S
N1073 C1075 1.279 . S
C1074 C1075 1.358 . S
C1074 C1076 1.356 . S
C1074 H1128 0.930 . S
C1075 N1073 1.279 . S
C1075 C1074 1.358 . S
C1075 H1079 0.930 . S
C1076 C1074 1.356 . S
C1076 C1077 1.348 . S
C1077 C1072 1.353 . S
C1077 C1076 1.348 . S
C1077 H1129 0.929 . S
H1078 C1072 0.930 . S
H1079 C1075 0.930 . S
C1080 N1081 1.314 . S
C1080 C1082 1.353 . S
C1080 H1086 0.930 . S
N1081 Li1057 1.990 . S
N1081 C1080 1.314 . S
N1081 C1084 1.279 . S
C1082 C1080 1.353 . S
C1082 C1085 1.348 . S
C1082 H1130 0.929 . S
C1083 C1084 1.358 . S
C1083 C1085 1.356 . S
C1083 H1131 0.930 . S
C1084 N1081 1.279 . S
C1084 C1083 1.358 . S
C1084 H1087 0.930 . S
C1085 C1082 1.348 . S
C1085 C1083 1.356 . S
H1086 C1080 0.930 . S
H1087 C1084 0.930 . S
C1088 C1090 1.348 . S
C1088 C1091 1.356 . S
C1088 O1118 1.325 . S
N1089 C1092 1.314 1_545 S
N1089 C1093 1.279 . S
C1090 C1088 1.348 . S
C1090 C1092 1.353 1_545 S
C1090 H1132 0.929 1_545 S
C1091 C1088 1.356 . S
C1091 C1093 1.358 . S
C1091 H1133 0.930 . S
C1092 N1089 1.314 1_565 S
C1092 C1090 1.353 1_565 S
C1092 H1134 0.930 . S
C1093 N1089 1.279 . S
C1093 C1091 1.358 . S
C1093 H1135 0.930 . S
C1094 C1095 1.348 . S
C1094 C1096 1.356 . S
C1094 O1119 1.325 . S
C1095 C1094 1.348 . S
C1095 C1097 1.353 1_545 S
C1095 H1136 0.929 . S
C1096 C1094 1.356 . S
C1096 C1098 1.358 . S
C1096 H1137 0.930 . S
C1097 C1095 1.353 1_565 S
C1097 N1099 1.314 . S
C1097 H1138 0.930 . S
C1098 C1096 1.358 . S
C1098 N1099 1.279 1_545 S
C1098 H1139 0.930 . S
N1099 C1097 1.314 . S
N1099 C1098 1.279 1_565 S
C1100 C1102 1.353 . S
C1100 N1103 1.314 . S
C1100 H1106 0.930 . S
C1101 N1103 1.279 . S
C1101 C1104 1.358 . S
C1101 H1107 0.930 . S
C1102 C1100 1.353 . S
C1102 C1105 1.348 . S
C1102 H1140 0.929 . S
N1103 Li1058 1.990 . S
N1103 C1100 1.314 . S
N1103 C1101 1.279 . S
C1104 C1101 1.358 . S
C1104 C1105 1.356 . S
C1104 H1141 0.930 . S
C1105 C1102 1.348 . S
C1105 C1104 1.356 . S
H1106 C1100 0.930 . S
H1107 C1101 0.930 . S
C1108 N1109 1.313 1_565 S
C1108 C1110 1.366 . S
C1108 H1114 0.917 1_565 S
N1109 Li1059 1.990 . S
N1109 C1108 1.313 1_545 S
N1109 C1112 1.279 1_545 S
C1110 C1108 1.366 . S
C1110 C1113 1.348 . S
C1110 H1142 0.929 . S
C1111 C1112 1.358 . S
C1111 C1113 1.356 . S
C1111 H1143 0.930 . S
C1112 N1109 1.279 1_565 S
C1112 C1111 1.358 . S
C1112 H1115 0.930 . S
C1113 C1110 1.348 . S
C1113 C1111 1.356 . S
H1114 C1108 0.917 1_545 S
H1115 C1112 0.930 . S
O1116 Li1056 1.956 . S
O1116 Li1057 1.970 . S
O1116 Li1058 1.961 . S
O1116 C1060 1.325 . S
O1117 Li1056 1.970 . S
O1117 Li1057 1.956 . S
O1117 Li1059 1.961 . S
O1117 C1066 1.325 . S
O1118 Li1056 1.961 . S
O1118 Li1058 1.956 . S
O1118 Li1059 1.970 . S
O1118 C1088 1.325 . S
O1119 Li1057 1.961 . S
O1119 Li1058 1.970 . S
O1119 Li1059 1.956 . S
O1119 C1094 1.325 . S
H1120 C1062 0.929 . S
H1121 C1063 0.930 . S
H1122 C1064 0.930 . S
H1123 C1065 0.930 . S
H1124 C1067 0.930 . S
H1125 C1069 0.929 . S
H1126 C1070 0.930 . S
H1127 C1071 0.930 . S
H1128 C1074 0.930 . S
H1129 C1077 0.929 . S
H1130 C1082 0.929 . S
H1131 C1083 0.930 . S
H1132 C1090 0.929 1_565 S
H1133 C1091 0.930 . S
H1134 C1092 0.930 . S
H1135 C1093 0.930 . S
H1136 C1095 0.929 . S
H1137 C1096 0.930 . S
H1138 C1097 0.930 . S
H1139 C1098 0.930 . S
H1140 C1102 0.929 . S
H1141 C1104 0.930 . S
H1142 C1110 0.929 . S
H1143 C1111 0.930 . S
Li1144 N1161 1.990 . S
Li1144 O1204 1.956 . S
Li1144 O1205 1.970 . S
Li1144 O1206 1.961 . S
Li1145 N1169 1.990 . S
Li1145 O1204 1.970 . S
Li1145 O1205 1.956 . S
Li1145 O1207 1.961 . S
Li1146 N1191 1.990 . S
Li1146 O1204 1.961 . S
Li1146 O1206 1.956 . S
Li1146 O1207 1.970 . S
Li1147 N1197 1.990 . S
Li1147 O1205 1.961 . S
Li1147 O1206 1.970 . S
Li1147 O1207 1.956 . S
C1148 C1150 1.348 . S
C1148 C1151 1.356 . S
C1148 O1204 1.325 . S
N1149 C1152 1.314 . S
N1149 C1153 1.279 . S
C1150 C1148 1.348 . S
C1150 C1152 1.353 . S
C1150 H1208 0.929 . S
C1151 C1148 1.356 . S
C1151 C1153 1.358 . S
C1151 H1209 0.930 . S
C1152 N1149 1.314 . S
C1152 C1150 1.353 . S
C1152 H1210 0.930 . S
C1153 N1149 1.279 . S
C1153 C1151 1.358 . S
C1153 H1211 0.930 . S
C1154 C1157 1.348 . S
C1154 C1158 1.356 . S
C1154 O1205 1.325 . S
C1155 N1156 1.276 1_455 S
C1155 C1158 1.370 . S
C1155 H1212 0.922 1_455 S
N1156 C1155 1.276 1_655 S
N1156 C1159 1.314 1_655 S
C1157 C1154 1.348 . S
C1157 C1159 1.353 . S
C1157 H1213 0.929 . S
C1158 C1154 1.356 . S
C1158 C1155 1.370 . S
C1158 H1214 0.930 . S
C1159 N1156 1.314 1_455 S
C1159 C1157 1.353 . S
C1159 H1215 0.930 . S
C1160 N1161 1.314 . S
C1160 C1165 1.353 . S
C1160 H1166 0.930 . S
N1161 Li1144 1.990 . S
N1161 C1160 1.314 . S
N1161 C1163 1.279 . S
C1162 C1163 1.358 . S
C1162 C1164 1.356 . S
C1162 H1216 0.930 . S
C1163 N1161 1.279 . S
C1163 C1162 1.358 . S
C1163 H1167 0.930 . S
C1164 C1162 1.356 . S
C1164 C1165 1.348 . S
C1165 C1160 1.353 . S
C1165 C1164 1.348 . S
C1165 H1217 0.929 . S
H1166 C1160 0.930 . S
H1167 C1163 0.930 . S
C1168 N1169 1.314 . S
C1168 C1170 1.353 . S
C1168 H1174 0.930 . S
N1169 Li1145 1.990 . S
N1169 C1168 1.314 . S
N1169 C1172 1.279 . S
C1170 C1168 1.353 . S
C1170 C1173 1.348 . S
C1170 H1218 0.929 . S
C1171 C1172 1.358 . S
C1171 C1173 1.356 . S
C1171 H1219 0.930 . S
C1172 N1169 1.279 . S
C1172 C1171 1.358 . S
C1172 H1175 0.930 . S
C1173 C1170 1.348 . S
C1173 C1171 1.356 . S
H1174 C1168 0.930 . S
H1175 C1172 0.930 . S
C1176 C1178 1.348 . S
C1176 C1179 1.356 . S
C1176 O1206 1.325 . S
N1177 C1180 1.314 . S
N1177 C1181 1.279 . S
C1178 C1176 1.348 . S
C1178 C1180 1.353 . S
C1178 H1220 0.929 . S
C1179 C1176 1.356 . S
C1179 C1181 1.358 . S
C1179 H1221 0.930 . S
C1180 N1177 1.314 . S
C1180 C1178 1.353 . S
C1180 H1222 0.930 1_455 S
C1181 N1177 1.279 . S
C1181 C1179 1.358 . S
C1181 H1223 0.930 . S
C1182 C1183 1.348 . S
C1182 C1184 1.356 . S
C1182 O1207 1.325 . S
C1183 C1182 1.348 . S
C1183 C1185 1.353 . S
C1183 H1224 0.929 . S
C1184 C1182 1.356 . S
C1184 C1186 1.358 . S
C1184 H1225 0.930 . S
C1185 C1183 1.353 . S
C1185 N1187 1.314 . S
C1185 H1226 0.930 . S
C1186 C1184 1.358 . S
C1186 N1187 1.279 . S
C1186 H1227 0.930 . S
N1187 C1185 1.314 . S
N1187 C1186 1.279 . S
C1188 C1190 1.353 . S
C1188 N1191 1.314 . S
C1188 H1194 0.930 . S
C1189 N1191 1.279 . S
C1189 C1192 1.358 . S
C1189 H1195 0.930 . S
C1190 C1188 1.353 . S
C1190 C1193 1.348 . S
C1190 H1228 0.929 . S
N1191 Li1146 1.990 . S
N1191 C1188 1.314 . S
N1191 C1189 1.279 . S
C1192 C1189 1.358 . S
C1192 C1193 1.356 . S
C1192 H1229 0.930 . S
C1193 C1190 1.348 . S
C1193 C1192 1.356 . S
H1194 C1188 0.930 . S
H1195 C1189 0.930 . S
C1196 N1197 1.314 1_655 S
C1196 C1198 1.353 . S
C1196 H1202 0.930 . S
N1197 Li1147 1.990 . S
N1197 C1196 1.314 1_455 S
N1197 C1200 1.279 . S
C1198 C1196 1.353 . S
C1198 C1201 1.348 . S
C1198 H1230 0.929 . S
C1199 C1200 1.358 1_655 S
C1199 C1201 1.356 . S
C1199 H1231 0.930 . S
C1200 N1197 1.279 . S
C1200 C1199 1.358 1_455 S
C1200 H1203 0.930 . S
C1201 C1198 1.348 . S
C1201 C1199 1.356 . S
H1202 C1196 0.930 . S
H1203 C1200 0.930 . S
O1204 Li1144 1.956 . S
O1204 Li1145 1.970 . S
O1204 Li1146 1.961 . S
O1204 C1148 1.325 . S
O1205 Li1144 1.970 . S
O1205 Li1145 1.956 . S
O1205 Li1147 1.961 . S
O1205 C1154 1.325 . S
O1206 Li1144 1.961 . S
O1206 Li1146 1.956 . S
O1206 Li1147 1.970 . S
O1206 C1176 1.325 . S
O1207 Li1145 1.961 . S
O1207 Li1146 1.970 . S
O1207 Li1147 1.956 . S
O1207 C1182 1.325 . S
H1208 C1150 0.929 . S
H1209 C1151 0.930 . S
H1210 C1152 0.930 . S
H1211 C1153 0.930 . S
H1212 C1155 0.922 1_655 S
H1213 C1157 0.929 . S
H1214 C1158 0.930 . S
H1215 C1159 0.930 . S
H1216 C1162 0.930 . S
H1217 C1165 0.929 . S
H1218 C1170 0.929 . S
H1219 C1171 0.930 . S
H1220 C1178 0.929 . S
H1221 C1179 0.930 . S
H1222 C1180 0.930 1_655 S
H1223 C1181 0.930 . S
H1224 C1183 0.929 . S
H1225 C1184 0.930 . S
H1226 C1185 0.930 . S
H1227 C1186 0.930 . S
H1228 C1190 0.929 . S
H1229 C1192 0.930 . S
H1230 C1198 0.929 . S
H1231 C1199 0.930 . S
Li1232 N1249 1.990 . S
Li1232 O1292 1.956 . S
Li1232 O1293 1.970 . S
Li1232 O1294 1.961 . S
Li1233 N1257 1.990 . S
Li1233 O1292 1.970 . S
Li1233 O1293 1.956 . S
Li1233 O1295 1.961 . S
Li1234 N1279 1.990 . S
Li1234 O1292 1.961 . S
Li1234 O1294 1.956 . S
Li1234 O1295 1.970 . S
Li1235 N1285 1.990 . S
Li1235 O1293 1.961 . S
Li1235 O1294 1.970 . S
Li1235 O1295 1.956 . S
C1236 C1238 1.348 . S
C1236 C1239 1.356 . S
C1236 O1292 1.325 . S
N1237 C1240 1.314 1_565 S
N1237 C1241 1.279 . S
C1238 C1236 1.348 . S
C1238 C1240 1.353 1_565 S
C1238 H1296 0.929 1_565 S
C1239 C1236 1.356 . S
C1239 C1241 1.358 . S
C1239 H1297 0.930 . S
C1240 N1237 1.314 1_545 S
C1240 C1238 1.353 1_545 S
C1240 H1298 0.930 . S
C1241 N1237 1.279 . S
C1241 C1239 1.358 . S
C1241 H1299 0.930 . S
C1242 C1245 1.348 . S
C1242 C1246 1.356 . S
C1242 O1293 1.325 . S
C1243 N1244 1.279 1_565 S
C1243 C1246 1.358 . S
C1243 H1300 0.930 . S
N1244 C1243 1.279 1_545 S
N1244 C1247 1.314 . S
C1245 C1242 1.348 . S
C1245 C1247 1.353 1_565 S
C1245 H1301 0.929 . S
C1246 C1242 1.356 . S
C1246 C1243 1.358 . S
C1246 H1302 0.930 . S
C1247 N1244 1.314 . S
C1247 C1245 1.353 1_545 S
C1247 H1303 0.930 . S
C1248 N1249 1.314 . S
C1248 C1253 1.353 . S
C1248 H1254 0.930 . S
N1249 Li1232 1.990 . S
N1249 C1248 1.314 . S
N1249 C1251 1.279 . S
C1250 C1251 1.358 . S
C1250 C1252 1.356 . S
C1250 H1304 0.930 . S
C1251 N1249 1.279 . S
C1251 C1250 1.358 . S
C1251 H1255 0.930 . S
C1252 C1250 1.356 . S
C1252 C1253 1.348 . S
C1253 C1248 1.353 . S
C1253 C1252 1.348 . S
C1253 H1305 0.929 . S
H1254 C1248 0.930 . S
H1255 C1251 0.930 . S
C1256 N1257 1.313 1_545 S
C1256 C1258 1.366 . S
C1256 H1262 0.917 1_545 S
N1257 Li1233 1.990 . S
N1257 C1256 1.313 1_565 S
N1257 C1260 1.279 1_565 S
C1258 C1256 1.366 . S
C1258 C1261 1.348 . S
C1258 H1306 0.929 . S
C1259 C1260 1.358 . S
C1259 C1261 1.356 . S
C1259 H1307 0.930 . S
C1260 N1257 1.279 1_545 S
C1260 C1259 1.358 . S
C1260 H1263 0.930 . S
C1261 C1258 1.348 . S
C1261 C1259 1.356 . S
H1262 C1256 0.917 1_565 S
H1263 C1260 0.930 . S
C1264 C1266 1.348 . S
C1264 C1267 1.356 . S
C1264 O1294 1.325 . S
N1265 C1268 1.314 . S
N1265 C1269 1.279 . S
C1266 C1264 1.348 . S
C1266 C1268 1.353 . S
C1266 H1308 0.929 . S
C1267 C1264 1.356 . S
C1267 C1269 1.358 . S
C1267 H1309 0.930 . S
C1268 N1265 1.314 . S
C1268 C1266 1.353 . S
C1268 H1310 0.930 . S
C1269 N1265 1.279 . S
C1269 C1267 1.358 . S
C1269 H1311 0.930 . S
C1270 C1271 1.348 . S
C1270 C1272 1.356 . S
C1270 O1295 1.325 . S
C1271 C1270 1.348 . S
C1271 C1273 1.353 . S
C1271 H1312 0.929 . S
C1272 C1270 1.356 . S
C1272 C1274 1.358 . S
C1272 H1313 0.930 . S
C1273 C1271 1.353 . S
C1273 N1275 1.314 . S
C1273 H1314 0.930 . S
C1274 C1272 1.358 . S
C1274 N1275 1.279 . S
C1274 H1315 0.930 . S
N1275 C1273 1.314 . S
N1275 C1274 1.279 . S
C1276 C1278 1.353 . S
C1276 N1279 1.314 . S
C1276 H1282 0.930 . S
C1277 N1279 1.279 . S
C1277 C1280 1.358 . S
C1277 H1283 0.930 . S
C1278 C1276 1.353 . S
C1278 C1281 1.348 . S
C1278 H1316 0.929 . S
N1279 Li1234 1.990 . S
N1279 C1276 1.314 . S
N1279 C1277 1.279 . S
C1280 C1277 1.358 . S
C1280 C1281 1.356 . S
C1280 H1317 0.930 . S
C1281 C1278 1.348 . S
C1281 C1280 1.356 . S
H1282 C1276 0.930 . S
H1283 C1277 0.930 . S
C1284 N1285 1.314 . S
C1284 C1286 1.353 . S
C1284 H1290 0.930 . S
N1285 Li1235 1.990 . S
N1285 C1284 1.314 . S
N1285 C1288 1.279 . S
C1286 C1284 1.353 . S
C1286 C1289 1.348 . S
C1286 H1318 0.929 . S
C1287 C1288 1.358 . S
C1287 C1289 1.356 . S
C1287 H1319 0.930 . S
C1288 N1285 1.279 . S
C1288 C1287 1.358 . S
C1288 H1291 0.930 . S
C1289 C1286 1.348 . S
C1289 C1287 1.356 . S
H1290 C1284 0.930 . S
H1291 C1288 0.930 . S
O1292 Li1232 1.956 . S
O1292 Li1233 1.970 . S
O1292 Li1234 1.961 . S
O1292 C1236 1.325 . S
O1293 Li1232 1.970 . S
O1293 Li1233 1.956 . S
O1293 Li1235 1.961 . S
O1293 C1242 1.325 . S
O1294 Li1232 1.961 . S
O1294 Li1234 1.956 . S
O1294 Li1235 1.970 . S
O1294 C1264 1.325 . S
O1295 Li1233 1.961 . S
O1295 Li1234 1.970 . S
O1295 Li1235 1.956 . S
O1295 C1270 1.325 . S
H1296 C1238 0.929 1_545 S
H1297 C1239 0.930 . S
H1298 C1240 0.930 . S
H1299 C1241 0.930 . S
H1300 C1243 0.930 . S
H1301 C1245 0.929 . S
H1302 C1246 0.930 . S
H1303 C1247 0.930 . S
H1304 C1250 0.930 . S
H1305 C1253 0.929 . S
H1306 C1258 0.929 . S
H1307 C1259 0.930 . S
H1308 C1266 0.929 . S
H1309 C1267 0.930 . S
H1310 C1268 0.930 . S
H1311 C1269 0.930 . S
H1312 C1271 0.929 . S
H1313 C1272 0.930 . S
H1314 C1273 0.930 . S
H1315 C1274 0.930 . S
H1316 C1278 0.929 . S
H1317 C1280 0.930 . S
H1318 C1286 0.929 . S
H1319 C1287 0.930 . S
Li1320 N1337 1.990 . S
Li1320 O1380 1.956 . S
Li1320 O1381 1.970 . S
Li1320 O1382 1.961 . S
Li1321 N1345 1.990 . S
Li1321 O1380 1.970 . S
Li1321 O1381 1.956 . S
Li1321 O1383 1.961 . S
Li1322 N1367 1.990 . S
Li1322 O1380 1.961 . S
Li1322 O1382 1.956 . S
Li1322 O1383 1.970 . S
Li1323 N1373 1.990 . S
Li1323 O1381 1.961 . S
Li1323 O1382 1.970 . S
Li1323 O1383 1.956 . S
C1324 C1326 1.348 . S
C1324 C1327 1.356 . S
C1324 O1380 1.325 . S
N1325 C1328 1.314 1_455 S
N1325 C1329 1.276 1_455 S
C1326 C1324 1.348 . S
C1326 C1328 1.353 . S
C1326 H1384 0.929 . S
C1327 C1324 1.356 . S
C1327 C1329 1.370 . S
C1327 H1385 0.930 . S
C1328 N1325 1.314 1_655 S
C1328 C1326 1.353 . S
C1328 H1386 0.930 . S
C1329 N1325 1.276 1_655 S
C1329 C1327 1.370 . S
C1329 H1387 0.922 1_655 S
C1330 C1333 1.348 . S
C1330 C1334 1.356 . S
C1330 O1381 1.325 . S
C1331 N1332 1.279 . S
C1331 C1334 1.358 . S
C1331 H1388 0.930 . S
N1332 C1331 1.279 . S
N1332 C1335 1.314 . S
C1333 C1330 1.348 . S
C1333 C1335 1.353 . S
C1333 H1389 0.929 . S
C1334 C1330 1.356 . S
C1334 C1331 1.358 . S
C1334 H1390 0.930 . S
C1335 N1332 1.314 . S
C1335 C1333 1.353 . S
C1335 H1391 0.930 . S
C1336 N1337 1.314 . S
C1336 C1341 1.353 . S
C1336 H1342 0.930 . S
N1337 Li1320 1.990 . S
N1337 C1336 1.314 . S
N1337 C1339 1.279 . S
C1338 C1339 1.358 . S
C1338 C1340 1.356 . S
C1338 H1392 0.930 . S
C1339 N1337 1.279 . S
C1339 C1338 1.358 . S
C1339 H1343 0.930 . S
C1340 C1338 1.356 . S
C1340 C1341 1.348 . S
C1341 C1336 1.353 . S
C1341 C1340 1.348 . S
C1341 H1393 0.929 . S
H1342 C1336 0.930 . S
H1343 C1339 0.930 . S
C1344 N1345 1.314 . S
C1344 C1346 1.353 . S
C1344 H1350 0.930 . S
N1345 Li1321 1.990 . S
N1345 C1344 1.314 . S
N1345 C1348 1.279 . S
C1346 C1344 1.353 . S
C1346 C1349 1.348 . S
C1346 H1394 0.929 . S
C1347 C1348 1.358 . S
C1347 C1349 1.356 . S
C1347 H1395 0.930 . S
C1348 N1345 1.279 . S
C1348 C1347 1.358 . S
C1348 H1351 0.930 . S
C1349 C1346 1.348 . S
C1349 C1347 1.356 . S
H1350 C1344 0.930 . S
H1351 C1348 0.930 . S
C1352 C1354 1.348 . S
C1352 C1355 1.356 . S
C1352 O1382 1.325 . S
N1353 C1356 1.314 . S
N1353 C1357 1.279 . S
C1354 C1352 1.348 . S
C1354 C1356 1.353 . S
C1354 H1396 0.929 . S
C1355 C1352 1.356 . S
C1355 C1357 1.358 . S
C1355 H1397 0.930 . S
C1356 N1353 1.314 . S
C1356 C1354 1.353 . S
C1356 H1398 0.930 . S
C1357 N1353 1.279 . S
C1357 C1355 1.358 . S
C1357 H1399 0.930 . S
C1358 C1359 1.348 . S
C1358 C1360 1.356 . S
C1358 O1383 1.325 . S
C1359 C1358 1.348 . S
C1359 C1361 1.353 . S
C1359 H1400 0.929 . S
C1360 C1358 1.356 . S
C1360 C1362 1.358 . S
C1360 H1401 0.930 . S
C1361 C1359 1.353 . S
C1361 N1363 1.314 . S
C1361 H1402 0.930 1_655 S
C1362 C1360 1.358 . S
C1362 N1363 1.279 . S
C1362 H1403 0.930 . S
N1363 C1361 1.314 . S
N1363 C1362 1.279 . S
C1364 C1366 1.353 . S
C1364 N1367 1.314 1_455 S
C1364 H1370 0.930 . S
C1365 N1367 1.279 . S
C1365 C1368 1.358 1_655 S
C1365 H1371 0.930 . S
C1366 C1364 1.353 . S
C1366 C1369 1.348 . S
C1366 H1404 0.929 . S
N1367 Li1322 1.990 . S
N1367 C1364 1.314 1_655 S
N1367 C1365 1.279 . S
C1368 C1365 1.358 1_455 S
C1368 C1369 1.356 . S
C1368 H1405 0.930 . S
C1369 C1366 1.348 . S
C1369 C1368 1.356 . S
H1370 C1364 0.930 . S
H1371 C1365 0.930 . S
C1372 N1373 1.314 . S
C1372 C1374 1.353 . S
C1372 H1378 0.930 . S
N1373 Li1323 1.990 . S
N1373 C1372 1.314 . S
N1373 C1376 1.279 . S
C1374 C1372 1.353 . S
C1374 C1377 1.348 . S
C1374 H1406 0.929 . S
C1375 C1376 1.358 . S
C1375 C1377 1.356 . S
C1375 H1407 0.930 . S
C1376 N1373 1.279 . S
C1376 C1375 1.358 . S
C1376 H1379 0.930 . S
C1377 C1374 1.348 . S
C1377 C1375 1.356 . S
H1378 C1372 0.930 . S
H1379 C1376 0.930 . S
O1380 Li1320 1.956 . S
O1380 Li1321 1.970 . S
O1380 Li1322 1.961 . S
O1380 C1324 1.325 . S
O1381 Li1320 1.970 . S
O1381 Li1321 1.956 . S
O1381 Li1323 1.961 . S
O1381 C1330 1.325 . S
O1382 Li1320 1.961 . S
O1382 Li1322 1.956 . S
O1382 Li1323 1.970 . S
O1382 C1352 1.325 . S
O1383 Li1321 1.961 . S
O1383 Li1322 1.970 . S
O1383 Li1323 1.956 . S
O1383 C1358 1.325 . S
H1384 C1326 0.929 . S
H1385 C1327 0.930 . S
H1386 C1328 0.930 . S
H1387 C1329 0.922 1_455 S
H1388 C1331 0.930 . S
H1389 C1333 0.929 . S
H1390 C1334 0.930 . S
H1391 C1335 0.930 . S
H1392 C1338 0.930 . S
H1393 C1341 0.929 . S
H1394 C1346 0.929 . S
H1395 C1347 0.930 . S
H1396 C1354 0.929 . S
H1397 C1355 0.930 . S
H1398 C1356 0.930 . S
H1399 C1357 0.930 . S
H1400 C1359 0.929 . S
H1401 C1360 0.930 . S
H1402 C1361 0.930 1_455 S
H1403 C1362 0.930 . S
H1404 C1366 0.929 . S
H1405 C1368 0.930 . S
H1406 C1374 0.929 . S
H1407 C1375 0.930 . S
H1408 C1414 0.930 . S
H1409 C1417 0.930 . S
H1410 C1418 0.930 . S
H1411 C1419 0.930 . S
H1412 C1422 0.930 . S
H1413 C1423 0.930 . S
C1414 H1408 0.930 . S
C1414 C1415 1.355 . S
C1414 C1416 1.415 . S
C1415 C1414 1.355 . S
C1415 C1417 1.419 . S
C1416 C1414 1.415 . S
C1416 C1421 1.425 . S
C1416 C1423 1.409 . S
C1417 H1409 0.930 . S
C1417 C1415 1.419 . S
C1417 C1418 1.362 . S
C1418 H1410 0.930 . S
C1418 C1417 1.362 . S
C1418 C1421 1.409 . S
C1419 H1411 0.930 . S
C1419 C1420 1.355 . S
C1419 C1421 1.415 . S
C1420 C1419 1.355 . S
C1420 C1422 1.419 . S
C1421 C1416 1.425 . S
C1421 C1418 1.409 . S
C1421 C1419 1.415 . S
C1422 H1412 0.930 . S
C1422 C1420 1.419 . S
C1422 C1423 1.362 . S
C1423 H1413 0.930 . S
C1423 C1416 1.409 . S
C1423 C1422 1.362 . S
H1424 C1430 0.930 . S
H1425 C1433 0.930 . S
H1426 C1434 0.930 . S
H1427 C1435 0.930 . S
H1428 C1438 0.930 . S
H1429 C1439 0.930 . S
C1430 H1424 0.930 . S
C1430 C1431 1.355 . S
C1430 C1432 1.415 . S
C1431 C1430 1.355 . S
C1431 C1433 1.419 . S
C1432 C1430 1.415 . S
C1432 C1437 1.425 . S
C1432 C1439 1.409 . S
C1433 H1425 0.930 . S
C1433 C1431 1.419 . S
C1433 C1434 1.362 . S
C1434 H1426 0.930 . S
C1434 C1433 1.362 . S
C1434 C1437 1.409 . S
C1435 H1427 0.930 . S
C1435 C1436 1.355 . S
C1435 C1437 1.415 . S
C1436 C1435 1.355 . S
C1436 C1438 1.419 . S
C1437 C1432 1.425 . S
C1437 C1434 1.409 . S
C1437 C1435 1.415 . S
C1438 H1428 0.930 . S
C1438 C1436 1.419 . S
C1438 C1439 1.362 . S
C1439 H1429 0.930 . S
C1439 C1432 1.409 . S
C1439 C1438 1.362 . S
H1440 C1446 0.930 . S
H1441 C1449 0.930 . S
H1442 C1450 0.930 . S
H1443 C1451 0.930 . S
H1444 C1454 0.930 . S
H1445 C1455 0.930 . S
C1446 H1440 0.930 . S
C1446 C1447 1.355 . S
C1446 C1448 1.415 . S
C1447 C1446 1.355 . S
C1447 C1449 1.419 . S
C1448 C1446 1.415 . S
C1448 C1453 1.425 . S
C1448 C1455 1.409 . S
C1449 H1441 0.930 . S
C1449 C1447 1.419 . S
C1449 C1450 1.362 . S
C1450 H1442 0.930 . S
C1450 C1449 1.362 . S
C1450 C1453 1.409 . S
C1451 H1443 0.930 . S
C1451 C1452 1.355 . S
C1451 C1453 1.415 . S
C1452 C1451 1.355 . S
C1452 C1454 1.419 . S
C1453 C1448 1.425 . S
C1453 C1450 1.409 . S
C1453 C1451 1.415 . S
C1454 H1444 0.930 . S
C1454 C1452 1.419 . S
C1454 C1455 1.362 . S
C1455 H1445 0.930 . S
C1455 C1448 1.409 . S
C1455 C1454 1.362 . S
H1456 C1462 0.930 . S
H1457 C1465 0.930 . S
H1458 C1466 0.930 . S
H1459 C1467 0.930 . S
H1460 C1470 0.930 . S
H1461 C1471 0.930 . S
C1462 H1456 0.930 . S
C1462 C1463 1.355 . S
C1462 C1464 1.415 . S
C1463 C1462 1.355 . S
C1463 C1465 1.419 . S
C1464 C1462 1.415 . S
C1464 C1469 1.425 . S
C1464 C1471 1.409 . S
C1465 H1457 0.930 . S
C1465 C1463 1.419 . S
C1465 C1466 1.362 . S
C1466 H1458 0.930 . S
C1466 C1465 1.362 . S
C1466 C1469 1.409 . S
C1467 H1459 0.930 . S
C1467 C1468 1.355 . S
C1467 C1469 1.415 . S
C1468 C1467 1.355 . S
C1468 C1470 1.419 . S
C1469 C1464 1.425 . S
C1469 C1466 1.409 . S
C1469 C1467 1.415 . S
C1470 H1460 0.930 . S
C1470 C1468 1.419 . S
C1470 C1471 1.362 . S
C1471 H1461 0.930 . S
C1471 C1464 1.409 . S
C1471 C1470 1.362 . S
H1472 C1478 0.930 . S
H1473 C1481 0.930 . S
H1474 C1482 0.930 . S
H1475 C1483 0.930 . S
H1476 C1486 0.930 . S
H1477 C1487 0.930 . S
C1478 H1472 0.930 . S
C1478 C1479 1.355 . S
C1478 C1480 1.415 . S
C1479 C1478 1.355 . S
C1479 C1481 1.419 . S
C1480 C1478 1.415 . S
C1480 C1485 1.425 . S
C1480 C1487 1.409 . S
C1481 H1473 0.930 . S
C1481 C1479 1.419 . S
C1481 C1482 1.362 . S
C1482 H1474 0.930 . S
C1482 C1481 1.362 . S
C1482 C1485 1.409 . S
C1483 H1475 0.930 . S
C1483 C1484 1.355 . S
C1483 C1485 1.415 . S
C1484 C1483 1.355 . S
C1484 C1486 1.419 . S
C1485 C1480 1.425 . S
C1485 C1482 1.409 . S
C1485 C1483 1.415 . S
C1486 H1476 0.930 . S
C1486 C1484 1.419 . S
C1486 C1487 1.362 . S
C1487 H1477 0.930 . S
C1487 C1480 1.409 . S
C1487 C1486 1.362 . S
H1488 C1494 0.930 . S
H1489 C1497 0.930 . S
H1490 C1498 0.930 . S
H1491 C1499 0.930 . S
H1492 C1502 0.930 . S
H1493 C1503 0.930 . S
C1494 H1488 0.930 . S
C1494 C1495 1.355 . S
C1494 C1496 1.415 . S
C1495 C1494 1.355 . S
C1495 C1497 1.419 . S
C1496 C1494 1.415 . S
C1496 C1501 1.425 . S
C1496 C1503 1.409 . S
C1497 H1489 0.930 . S
C1497 C1495 1.419 . S
C1497 C1498 1.362 . S
C1498 H1490 0.930 . S
C1498 C1497 1.362 . S
C1498 C1501 1.409 . S
C1499 H1491 0.930 . S
C1499 C1500 1.355 . S
C1499 C1501 1.415 . S
C1500 C1499 1.355 . S
C1500 C1502 1.419 . S
C1501 C1496 1.425 . S
C1501 C1498 1.409 . S
C1501 C1499 1.415 . S
C1502 H1492 0.930 . S
C1502 C1500 1.419 . S
C1502 C1503 1.362 . S
C1503 H1493 0.930 . S
C1503 C1496 1.409 . S
C1503 C1502 1.362 . S
H1504 C1510 0.930 . S
H1505 C1513 0.930 . S
H1506 C1514 0.930 . S
H1507 C1515 0.930 . S
H1508 C1518 0.930 . S
H1509 C1519 0.930 . S
C1510 H1504 0.930 . S
C1510 C1511 1.355 . S
C1510 C1512 1.415 . S
C1511 C1510 1.355 . S
C1511 C1513 1.419 . S
C1512 C1510 1.415 . S
C1512 C1517 1.425 . S
C1512 C1519 1.409 . S
C1513 H1505 0.930 . S
C1513 C1511 1.419 . S
C1513 C1514 1.362 . S
C1514 H1506 0.930 . S
C1514 C1513 1.362 . S
C1514 C1517 1.409 . S
C1515 H1507 0.930 . S
C1515 C1516 1.355 . S
C1515 C1517 1.415 . S
C1516 C1515 1.355 . S
C1516 C1518 1.419 . S
C1517 C1512 1.425 . S
C1517 C1514 1.409 . S
C1517 C1515 1.415 . S
C1518 H1508 0.930 . S
C1518 C1516 1.419 . S
C1518 C1519 1.362 . S
C1519 H1509 0.930 . S
C1519 C1512 1.409 . S
C1519 C1518 1.362 . S
H1520 C1526 0.930 . S
H1521 C1529 0.930 . S
H1522 C1530 0.930 . S
H1523 C1531 0.930 . S
H1524 C1534 0.930 . S
H1525 C1535 0.930 . S
C1526 H1520 0.930 . S
C1526 C1527 1.355 . S
C1526 C1528 1.415 . S
C1527 C1526 1.355 . S
C1527 C1529 1.419 . S
C1528 C1526 1.415 . S
C1528 C1533 1.425 . S
C1528 C1535 1.409 . S
C1529 H1521 0.930 . S
C1529 C1527 1.419 . S
C1529 C1530 1.362 . S
C1530 H1522 0.930 . S
C1530 C1529 1.362 . S
C1530 C1533 1.409 . S
C1531 H1523 0.930 . S
C1531 C1532 1.355 . S
C1531 C1533 1.415 . S
C1532 C1531 1.355 . S
C1532 C1534 1.419 . S
C1533 C1528 1.425 . S
C1533 C1530 1.409 . S
C1533 C1531 1.415 . S
C1534 H1524 0.930 . S
C1534 C1532 1.419 . S
C1534 C1535 1.362 . S
C1535 H1525 0.930 . S
C1535 C1528 1.409 . S
C1535 C1534 1.362 . S
H1536 C1542 0.930 . S
H1537 C1545 0.930 . S
H1538 C1546 0.930 . S
H1539 C1547 0.930 . S
H1540 C1550 0.930 . S
H1541 C1551 0.930 . S
C1542 H1536 0.930 . S
C1542 C1543 1.355 . S
C1542 C1544 1.415 . S
C1543 C1542 1.355 . S
C1543 C1545 1.419 . S
C1544 C1542 1.415 . S
C1544 C1549 1.425 . S
C1544 C1551 1.409 . S
C1545 H1537 0.930 . S
C1545 C1543 1.419 . S
C1545 C1546 1.362 . S
C1546 H1538 0.930 . S
C1546 C1545 1.362 . S
C1546 C1549 1.409 . S
C1547 H1539 0.930 . S
C1547 C1548 1.355 . S
C1547 C1549 1.415 . S
C1548 C1547 1.355 . S
C1548 C1550 1.419 . S
C1549 C1544 1.425 . S
C1549 C1546 1.409 . S
C1549 C1547 1.415 . S
C1550 H1540 0.930 . S
C1550 C1548 1.419 . S
C1550 C1551 1.362 . S
C1551 H1541 0.930 . S
C1551 C1544 1.409 . S
C1551 C1550 1.362 . S
H1552 C1558 0.930 . S
H1553 C1561 0.930 . S
H1554 C1562 0.930 . S
H1555 C1563 0.930 . S
H1556 C1566 0.930 . S
H1557 C1567 0.930 . S
C1558 H1552 0.930 . S
C1558 C1559 1.355 . S
C1558 C1560 1.415 . S
C1559 C1558 1.355 . S
C1559 C1561 1.419 . S
C1560 C1558 1.415 . S
C1560 C1565 1.425 . S
C1560 C1567 1.409 . S
C1561 H1553 0.930 . S
C1561 C1559 1.419 . S
C1561 C1562 1.362 . S
C1562 H1554 0.930 . S
C1562 C1561 1.362 . S
C1562 C1565 1.409 . S
C1563 H1555 0.930 . S
C1563 C1564 1.355 . S
C1563 C1565 1.415 . S
C1564 C1563 1.355 . S
C1564 C1566 1.419 . S
C1565 C1560 1.425 . S
C1565 C1562 1.409 . S
C1565 C1563 1.415 . S
C1566 H1556 0.930 . S
C1566 C1564 1.419 . S
C1566 C1567 1.362 . S
C1567 H1557 0.930 . S
C1567 C1560 1.409 . S
C1567 C1566 1.362 . S
H1568 C1574 0.930 . S
H1569 C1577 0.930 . S
H1570 C1578 0.930 . S
H1571 C1579 0.930 . S
H1572 C1582 0.930 . S
H1573 C1583 0.930 . S
C1574 H1568 0.930 . S
C1574 C1575 1.355 . S
C1574 C1576 1.415 . S
C1575 C1574 1.355 . S
C1575 C1577 1.419 . S
C1576 C1574 1.415 . S
C1576 C1581 1.425 . S
C1576 C1583 1.409 . S
C1577 H1569 0.930 . S
C1577 C1575 1.419 . S
C1577 C1578 1.362 . S
C1578 H1570 0.930 . S
C1578 C1577 1.362 . S
C1578 C1581 1.409 . S
C1579 H1571 0.930 . S
C1579 C1580 1.355 . S
C1579 C1581 1.415 . S
C1580 C1579 1.355 . S
C1580 C1582 1.419 . S
C1581 C1576 1.425 . S
C1581 C1578 1.409 . S
C1581 C1579 1.415 . S
C1582 H1572 0.930 . S
C1582 C1580 1.419 . S
C1582 C1583 1.362 . S
C1583 H1573 0.930 . S
C1583 C1576 1.409 . S
C1583 C1582 1.362 . S
H1584 C1590 0.930 . S
H1585 C1593 0.930 . S
H1586 C1594 0.930 . S
H1587 C1595 0.930 . S
H1588 C1598 0.930 . S
H1589 C1599 0.930 . S
C1590 H1584 0.930 . S
C1590 C1591 1.355 . S
C1590 C1592 1.415 . S
C1591 C1590 1.355 . S
C1591 C1593 1.419 . S
C1592 C1590 1.415 . S
C1592 C1597 1.425 . S
C1592 C1599 1.409 . S
C1593 H1585 0.930 . S
C1593 C1591 1.419 . S
C1593 C1594 1.362 . S
C1594 H1586 0.930 . S
C1594 C1593 1.362 . S
C1594 C1597 1.409 . S
C1595 H1587 0.930 . S
C1595 C1596 1.355 . S
C1595 C1597 1.415 . S
C1596 C1595 1.355 . S
C1596 C1598 1.419 . S
C1597 C1592 1.425 . S
C1597 C1594 1.409 . S
C1597 C1595 1.415 . S
C1598 H1588 0.930 . S
C1598 C1596 1.419 . S
C1598 C1599 1.362 . S
C1599 H1589 0.930 . S
C1599 C1592 1.409 . S
C1599 C1598 1.362 . S
H1600 C1606 0.930 . S
H1601 C1609 0.930 . S
H1602 C1610 0.930 . S
H1603 C1611 0.930 . S
H1604 C1614 0.930 . S
H1605 C1615 0.930 . S
C1606 H1600 0.930 . S
C1606 C1607 1.355 . S
C1606 C1608 1.415 . S
C1607 C1606 1.355 . S
C1607 C1609 1.419 . S
C1608 C1606 1.415 . S
C1608 C1613 1.425 . S
C1608 C1615 1.409 . S
C1609 H1601 0.930 . S
C1609 C1607 1.419 . S
C1609 C1610 1.362 . S
C1610 H1602 0.930 . S
C1610 C1609 1.362 . S
C1610 C1613 1.409 . S
C1611 H1603 0.930 . S
C1611 C1612 1.355 . S
C1611 C1613 1.415 . S
C1612 C1611 1.355 . S
C1612 C1614 1.419 . S
C1613 C1608 1.425 . S
C1613 C1610 1.409 . S
C1613 C1611 1.415 . S
C1614 H1604 0.930 . S
C1614 C1612 1.419 . S
C1614 C1615 1.362 . S
C1615 H1605 0.930 . S
C1615 C1608 1.409 . S
C1615 C1614 1.362 . S
H1616 C1622 0.930 . S
H1617 C1625 0.930 . S
H1618 C1626 0.930 . S
H1619 C1627 0.930 . S
H1620 C1630 0.930 . S
H1621 C1631 0.930 . S
C1622 H1616 0.930 . S
C1622 C1623 1.355 . S
C1622 C1624 1.415 . S
C1623 C1622 1.355 . S
C1623 C1625 1.419 . S
C1624 C1622 1.415 . S
C1624 C1629 1.425 . S
C1624 C1631 1.409 . S
C1625 H1617 0.930 . S
C1625 C1623 1.419 . S
C1625 C1626 1.362 . S
C1626 H1618 0.930 . S
C1626 C1625 1.362 . S
C1626 C1629 1.409 . S
C1627 H1619 0.930 . S
C1627 C1628 1.355 . S
C1627 C1629 1.415 . S
C1628 C1627 1.355 . S
C1628 C1630 1.419 . S
C1629 C1624 1.425 . S
C1629 C1626 1.409 . S
C1629 C1627 1.415 . S
C1630 H1620 0.930 . S
C1630 C1628 1.419 . S
C1630 C1631 1.362 . S
C1631 H1621 0.930 . S
C1631 C1624 1.409 . S
C1631 C1630 1.362 . S
H1632 C1638 0.930 . S
H1633 C1641 0.930 . S
H1634 C1642 0.930 . S
H1635 C1643 0.930 . S
H1636 C1646 0.930 . S
H1637 C1647 0.930 . S
C1638 H1632 0.930 . S
C1638 C1639 1.355 . S
C1638 C1640 1.415 . S
C1639 C1638 1.355 . S
C1639 C1641 1.419 . S
C1640 C1638 1.415 . S
C1640 C1645 1.425 . S
C1640 C1647 1.409 . S
C1641 H1633 0.930 . S
C1641 C1639 1.419 . S
C1641 C1642 1.362 . S
C1642 H1634 0.930 . S
C1642 C1641 1.362 . S
C1642 C1645 1.409 . S
C1643 H1635 0.930 . S
C1643 C1644 1.355 . S
C1643 C1645 1.415 . S
C1644 C1643 1.355 . S
C1644 C1646 1.419 . S
C1645 C1640 1.425 . S
C1645 C1642 1.409 . S
C1645 C1643 1.415 . S
C1646 H1636 0.930 . S
C1646 C1644 1.419 . S
C1646 C1647 1.362 . S
C1647 H1637 0.930 . S
C1647 C1640 1.409 . S
C1647 C1646 1.362 . S
H1648 C1654 0.930 . S
H1649 C1657 0.930 . S
H1650 C1658 0.930 . S
H1651 C1659 0.930 . S
H1652 C1662 0.930 . S
H1653 C1663 0.930 . S
C1654 H1648 0.930 . S
C1654 C1655 1.355 . S
C1654 C1656 1.415 . S
C1655 C1654 1.355 . S
C1655 C1657 1.419 . S
C1656 C1654 1.415 . S
C1656 C1661 1.425 . S
C1656 C1663 1.409 . S
C1657 H1649 0.930 . S
C1657 C1655 1.419 . S
C1657 C1658 1.362 . S
C1658 H1650 0.930 . S
C1658 C1657 1.362 . S
C1658 C1661 1.409 . S
C1659 H1651 0.930 . S
C1659 C1660 1.355 . S
C1659 C1661 1.415 . S
C1660 C1659 1.355 . S
C1660 C1662 1.419 . S
C1661 C1656 1.425 . S
C1661 C1658 1.409 . S
C1661 C1659 1.415 . S
C1662 H1652 0.930 . S
C1662 C1660 1.419 . S
C1662 C1663 1.362 . S
C1663 H1653 0.930 . S
C1663 C1656 1.409 . S
C1663 C1662 1.362 . S
H1664 C1670 0.930 . S
H1665 C1673 0.930 . S
H1666 C1674 0.930 . S
H1667 C1675 0.930 . S
H1668 C1678 0.930 . S
H1669 C1679 0.930 . S
C1670 H1664 0.930 . S
C1670 C1671 1.355 . S
C1670 C1672 1.415 . S
C1671 C1670 1.355 . S
C1671 C1673 1.419 . S
C1672 C1670 1.415 . S
C1672 C1677 1.425 . S
C1672 C1679 1.409 . S
C1673 H1665 0.930 . S
C1673 C1671 1.419 . S
C1673 C1674 1.362 . S
C1674 H1666 0.930 . S
C1674 C1673 1.362 . S
C1674 C1677 1.409 . S
C1675 H1667 0.930 . S
C1675 C1676 1.355 . S
C1675 C1677 1.415 . S
C1676 C1675 1.355 . S
C1676 C1678 1.419 . S
C1677 C1672 1.425 . S
C1677 C1674 1.409 . S
C1677 C1675 1.415 . S
C1678 H1668 0.930 . S
C1678 C1676 1.419 . S
C1678 C1679 1.362 . S
C1679 H1669 0.930 . S
C1679 C1672 1.409 . S
C1679 C1678 1.362 . S
H1680 C1686 0.930 . S
H1681 C1689 0.930 . S
H1682 C1690 0.930 . S
H1683 C1691 0.930 . S
H1684 C1694 0.930 . S
H1685 C1695 0.930 . S
C1686 H1680 0.930 . S
C1686 C1687 1.355 . S
C1686 C1688 1.415 . S
C1687 C1686 1.355 . S
C1687 C1689 1.419 . S
C1688 C1686 1.415 . S
C1688 C1693 1.425 . S
C1688 C1695 1.409 . S
C1689 H1681 0.930 . S
C1689 C1687 1.419 . S
C1689 C1690 1.362 . S
C1690 H1682 0.930 . S
C1690 C1689 1.362 . S
C1690 C1693 1.409 . S
C1691 H1683 0.930 . S
C1691 C1692 1.355 . S
C1691 C1693 1.415 . S
C1692 C1691 1.355 . S
C1692 C1694 1.419 . S
C1693 C1688 1.425 . S
C1693 C1690 1.409 . S
C1693 C1691 1.415 . S
C1694 H1684 0.930 . S
C1694 C1692 1.419 . S
C1694 C1695 1.362 . S
C1695 H1685 0.930 . S
C1695 C1688 1.409 . S
C1695 C1694 1.362 . S
H1696 C1702 0.930 . S
H1697 C1705 0.930 . S
H1698 C1706 0.930 . S
H1699 C1707 0.930 . S
H1700 C1710 0.930 . S
H1701 C1711 0.930 . S
C1702 H1696 0.930 . S
C1702 C1703 1.355 . S
C1702 C1704 1.415 . S
C1703 C1702 1.355 . S
C1703 C1705 1.419 . S
C1704 C1702 1.415 . S
C1704 C1709 1.425 . S
C1704 C1711 1.409 . S
C1705 H1697 0.930 . S
C1705 C1703 1.419 . S
C1705 C1706 1.362 . S
C1706 H1698 0.930 . S
C1706 C1705 1.362 . S
C1706 C1709 1.409 . S
C1707 H1699 0.930 . S
C1707 C1708 1.355 . S
C1707 C1709 1.415 . S
C1708 C1707 1.355 . S
C1708 C1710 1.419 . S
C1709 C1704 1.425 . S
C1709 C1706 1.409 . S
C1709 C1707 1.415 . S
C1710 H1700 0.930 . S
C1710 C1708 1.419 . S
C1710 C1711 1.362 . S
C1711 H1701 0.930 . S
C1711 C1704 1.409 . S
C1711 C1710 1.362 . S
H1712 C1718 0.930 . S
H1713 C1721 0.930 . S
H1714 C1722 0.930 . S
H1715 C1723 0.930 . S
H1716 C1726 0.930 . S
H1717 C1727 0.930 . S
C1718 H1712 0.930 . S
C1718 C1719 1.355 . S
C1718 C1720 1.415 . S
C1719 C1718 1.355 . S
C1719 C1721 1.419 . S
C1720 C1718 1.415 . S
C1720 C1725 1.425 . S
C1720 C1727 1.409 . S
C1721 H1713 0.930 . S
C1721 C1719 1.419 . S
C1721 C1722 1.362 . S
C1722 H1714 0.930 . S
C1722 C1721 1.362 . S
C1722 C1725 1.409 . S
C1723 H1715 0.930 . S
C1723 C1724 1.355 . S
C1723 C1725 1.415 . S
C1724 C1723 1.355 . S
C1724 C1726 1.419 . S
C1725 C1720 1.425 . S
C1725 C1722 1.409 . S
C1725 C1723 1.415 . S
C1726 H1716 0.930 . S
C1726 C1724 1.419 . S
C1726 C1727 1.362 . S
C1727 H1717 0.930 . S
C1727 C1720 1.409 . S
C1727 C1726 1.362 . S
H1728 C1734 0.930 . S
H1729 C1737 0.930 . S
H1730 C1738 0.930 . S
H1731 C1739 0.930 . S
H1732 C1742 0.930 . S
H1733 C1743 0.930 . S
C1734 H1728 0.930 . S
C1734 C1735 1.355 . S
C1734 C1736 1.415 . S
C1735 C1734 1.355 . S
C1735 C1737 1.419 . S
C1736 C1734 1.415 . S
C1736 C1741 1.425 . S
C1736 C1743 1.409 . S
C1737 H1729 0.930 . S
C1737 C1735 1.419 . S
C1737 C1738 1.362 . S
C1738 H1730 0.930 . S
C1738 C1737 1.362 . S
C1738 C1741 1.409 . S
C1739 H1731 0.930 . S
C1739 C1740 1.355 . S
C1739 C1741 1.415 . S
C1740 C1739 1.355 . S
C1740 C1742 1.419 . S
C1741 C1736 1.425 . S
C1741 C1738 1.409 . S
C1741 C1739 1.415 . S
C1742 H1732 0.930 . S
C1742 C1740 1.419 . S
C1742 C1743 1.362 . S
C1743 H1733 0.930 . S
C1743 C1736 1.409 . S
C1743 C1742 1.362 . S
H1744 C1750 0.930 . S
H1745 C1753 0.930 . S
H1746 C1754 0.930 . S
H1747 C1755 0.930 . S
H1748 C1758 0.930 . S
H1749 C1759 0.930 . S
C1750 H1744 0.930 . S
C1750 C1751 1.355 . S
C1750 C1752 1.415 . S
C1751 C1750 1.355 . S
C1751 C1753 1.419 . S
C1752 C1750 1.415 . S
C1752 C1757 1.425 . S
C1752 C1759 1.409 . S
C1753 H1745 0.930 . S
C1753 C1751 1.419 . S
C1753 C1754 1.362 . S
C1754 H1746 0.930 . S
C1754 C1753 1.362 . S
C1754 C1757 1.409 . S
C1755 H1747 0.930 . S
C1755 C1756 1.355 . S
C1755 C1757 1.415 . S
C1756 C1755 1.355 . S
C1756 C1758 1.419 . S
C1757 C1752 1.425 . S
C1757 C1754 1.409 . S
C1757 C1755 1.415 . S
C1758 H1748 0.930 . S
C1758 C1756 1.419 . S
C1758 C1759 1.362 . S
C1759 H1749 0.930 . S
C1759 C1752 1.409 . S
C1759 C1758 1.362 . S
H1760 C1766 0.930 . S
H1761 C1769 0.930 . S
H1762 C1770 0.930 . S
H1763 C1771 0.930 . S
H1764 C1774 0.930 . S
H1765 C1775 0.930 . S
C1766 H1760 0.930 . S
C1766 C1767 1.355 . S
C1766 C1768 1.415 . S
C1767 C1766 1.355 . S
C1767 C1769 1.419 . S
C1768 C1766 1.415 . S
C1768 C1773 1.425 . S
C1768 C1775 1.409 . S
C1769 H1761 0.930 . S
C1769 C1767 1.419 . S
C1769 C1770 1.362 . S
C1770 H1762 0.930 . S
C1770 C1769 1.362 . S
C1770 C1773 1.409 . S
C1771 H1763 0.930 . S
C1771 C1772 1.355 . S
C1771 C1773 1.415 . S
C1772 C1771 1.355 . S
C1772 C1774 1.419 . S
C1773 C1768 1.425 . S
C1773 C1770 1.409 . S
C1773 C1771 1.415 . S
C1774 H1764 0.930 . S
C1774 C1772 1.419 . S
C1774 C1775 1.362 . S
C1775 H1765 0.930 . S
C1775 C1768 1.409 . S
C1775 C1774 1.362 . S
H1776 C1782 0.930 . S
H1777 C1785 0.930 . S
H1778 C1786 0.930 . S
H1779 C1787 0.930 . S
H1780 C1790 0.930 . S
H1781 C1791 0.930 . S
C1782 H1776 0.930 . S
C1782 C1783 1.355 . S
C1782 C1784 1.415 . S
C1783 C1782 1.355 . S
C1783 C1785 1.419 . S
C1784 C1782 1.415 . S
C1784 C1789 1.425 . S
C1784 C1791 1.409 . S
C1785 H1777 0.930 . S
C1785 C1783 1.419 . S
C1785 C1786 1.362 . S
C1786 H1778 0.930 . S
C1786 C1785 1.362 . S
C1786 C1789 1.409 . S
C1787 H1779 0.930 . S
C1787 C1788 1.355 . S
C1787 C1789 1.415 . S
C1788 C1787 1.355 . S
C1788 C1790 1.419 . S
C1789 C1784 1.425 . S
C1789 C1786 1.409 . S
C1789 C1787 1.415 . S
C1790 H1780 0.930 . S
C1790 C1788 1.419 . S
C1790 C1791 1.362 . S
C1791 H1781 0.930 . S
C1791 C1784 1.409 . S
C1791 C1790 1.362 . S
H1792 C1798 0.930 . S
H1793 C1801 0.930 . S
H1794 C1802 0.930 . S
H1795 C1803 0.930 . S
H1796 C1806 0.930 . S
H1797 C1807 0.930 . S
C1798 H1792 0.930 . S
C1798 C1799 1.355 . S
C1798 C1800 1.415 . S
C1799 C1798 1.355 . S
C1799 C1801 1.419 . S
C1800 C1798 1.415 . S
C1800 C1805 1.425 . S
C1800 C1807 1.409 . S
C1801 H1793 0.930 . S
C1801 C1799 1.419 . S
C1801 C1802 1.362 . S
C1802 H1794 0.930 . S
C1802 C1801 1.362 . S
C1802 C1805 1.409 . S
C1803 H1795 0.930 . S
C1803 C1804 1.355 . S
C1803 C1805 1.415 . S
C1804 C1803 1.355 . S
C1804 C1806 1.419 . S
C1805 C1800 1.425 . S
C1805 C1802 1.409 . S
C1805 C1803 1.415 . S
C1806 H1796 0.930 . S
C1806 C1804 1.419 . S
C1806 C1807 1.362 . S
C1807 H1797 0.930 . S
C1807 C1800 1.409 . S
C1807 C1806 1.362 . S
H1808 C1814 0.930 . S
H1809 C1817 0.930 . S
H1810 C1818 0.930 . S
H1811 C1819 0.930 . S
H1812 C1822 0.930 . S
H1813 C1823 0.930 . S
C1814 H1808 0.930 . S
C1814 C1815 1.355 . S
C1814 C1816 1.415 . S
C1815 C1814 1.355 . S
C1815 C1817 1.419 . S
C1816 C1814 1.415 . S
C1816 C1821 1.425 . S
C1816 C1823 1.409 . S
C1817 H1809 0.930 . S
C1817 C1815 1.419 . S
C1817 C1818 1.362 . S
C1818 H1810 0.930 . S
C1818 C1817 1.362 . S
C1818 C1821 1.409 . S
C1819 H1811 0.930 . S
C1819 C1820 1.355 . S
C1819 C1821 1.415 . S
C1820 C1819 1.355 . S
C1820 C1822 1.419 . S
C1821 C1816 1.425 . S
C1821 C1818 1.409 . S
C1821 C1819 1.415 . S
C1822 H1812 0.930 . S
C1822 C1820 1.419 . S
C1822 C1823 1.362 . S
C1823 H1813 0.930 . S
C1823 C1816 1.409 . S
C1823 C1822 1.362 . S
H1824 C1830 0.930 . S
H1825 C1833 0.930 . S
H1826 C1834 0.930 . S
H1827 C1835 0.930 . S
H1828 C1838 0.930 . S
H1829 C1839 0.930 . S
C1830 H1824 0.930 . S
C1830 C1831 1.355 . S
C1830 C1832 1.415 . S
C1831 C1830 1.355 . S
C1831 C1833 1.419 . S
C1832 C1830 1.415 . S
C1832 C1837 1.425 . S
C1832 C1839 1.409 . S
C1833 H1825 0.930 . S
C1833 C1831 1.419 . S
C1833 C1834 1.362 . S
C1834 H1826 0.930 . S
C1834 C1833 1.362 . S
C1834 C1837 1.409 . S
C1835 H1827 0.930 . S
C1835 C1836 1.355 . S
C1835 C1837 1.415 . S
C1836 C1835 1.355 . S
C1836 C1838 1.419 . S
C1837 C1832 1.425 . S
C1837 C1834 1.409 . S
C1837 C1835 1.415 . S
C1838 H1828 0.930 . S
C1838 C1836 1.419 . S
C1838 C1839 1.362 . S
C1839 H1829 0.930 . S
C1839 C1832 1.409 . S
C1839 C1838 1.362 . S
H1840 C1846 0.930 . S
H1841 C1849 0.930 . S
H1842 C1850 0.930 . S
H1843 C1851 0.930 . S
H1844 C1854 0.930 . S
H1845 C1855 0.930 . S
C1846 H1840 0.930 . S
C1846 C1847 1.355 . S
C1846 C1848 1.415 . S
C1847 C1846 1.355 . S
C1847 C1849 1.419 . S
C1848 C1846 1.415 . S
C1848 C1853 1.425 . S
C1848 C1855 1.409 . S
C1849 H1841 0.930 . S
C1849 C1847 1.419 . S
C1849 C1850 1.362 . S
C1850 H1842 0.930 . S
C1850 C1849 1.362 . S
C1850 C1853 1.409 . S
C1851 H1843 0.930 . S
C1851 C1852 1.355 . S
C1851 C1853 1.415 . S
C1852 C1851 1.355 . S
C1852 C1854 1.419 . S
C1853 C1848 1.425 . S
C1853 C1850 1.409 . S
C1853 C1851 1.415 . S
C1854 H1844 0.930 . S
C1854 C1852 1.419 . S
C1854 C1855 1.362 . S
C1855 H1845 0.930 . S
C1855 C1848 1.409 . S
C1855 C1854 1.362 . S
H1856 C1862 0.920 1_565 S
H1857 C1865 0.930 . S
H1858 C1866 0.930 1_556 S
H1859 C1867 0.920 1_545 S
H1860 C1870 0.930 . S
H1861 C1871 0.930 1_554 S
C1862 H1856 0.920 1_545 S
C1862 C1863 1.355 . S
C1862 C1864 1.415 1_545 S
C1863 C1862 1.355 . S
C1863 C1865 1.419 . S
C1864 C1862 1.415 1_565 S
C1864 C1869 1.425 1_564 S
C1864 C1871 1.409 1_554 S
C1865 H1857 0.930 . S
C1865 C1863 1.419 . S
C1865 C1866 1.362 . S
C1866 H1858 0.930 1_554 S
C1866 C1865 1.362 . S
C1866 C1869 1.409 1_554 S
C1867 H1859 0.920 1_565 S
C1867 C1868 1.355 . S
C1867 C1869 1.415 1_565 S
C1868 C1867 1.355 . S
C1868 C1870 1.419 . S
C1869 C1864 1.425 1_546 S
C1869 C1866 1.409 1_556 S
C1869 C1867 1.415 1_545 S
C1870 H1860 0.930 . S
C1870 C1868 1.419 . S
C1870 C1871 1.362 . S
C1871 H1861 0.930 1_556 S
C1871 C1864 1.409 1_556 S
C1871 C1870 1.362 . S
H1872 C1878 0.930 . S
H1873 C1881 0.930 . S
H1874 C1882 0.930 . S
H1875 C1883 0.930 . S
H1876 C1886 0.930 . S
H1877 C1887 0.930 . S
C1878 H1872 0.930 . S
C1878 C1879 1.355 . S
C1878 C1880 1.415 . S
C1879 C1878 1.355 . S
C1879 C1881 1.419 . S
C1880 C1878 1.415 . S
C1880 C1885 1.425 1_456 S
C1880 C1887 1.409 1_556 S
C1881 H1873 0.930 . S
C1881 C1879 1.419 . S
C1881 C1882 1.362 1_455 S
C1882 H1874 0.930 . S
C1882 C1881 1.362 1_655 S
C1882 C1885 1.409 1_556 S
C1883 H1875 0.930 . S
C1883 C1884 1.355 . S
C1883 C1885 1.415 . S
C1884 C1883 1.355 . S
C1884 C1886 1.419 . S
C1885 C1880 1.425 1_654 S
C1885 C1882 1.409 1_554 S
C1885 C1883 1.415 . S
C1886 H1876 0.930 . S
C1886 C1884 1.419 . S
C1886 C1887 1.362 1_655 S
C1887 H1877 0.930 . S
C1887 C1880 1.409 1_554 S
C1887 C1886 1.362 1_455 S
H1888 C1894 0.930 1_565 S
H1889 C1897 0.930 . S
H1890 C1898 0.930 . S
H1891 C1899 0.930 1_545 S
H1892 C1902 0.930 . S
H1893 C1903 0.930 . S
C1894 H1888 0.930 1_545 S
C1894 C1895 1.355 . S
C1894 C1896 1.415 1_545 S
C1895 C1894 1.355 . S
C1895 C1897 1.419 . S
C1896 C1894 1.415 1_565 S
C1896 C1901 1.425 1_566 S
C1896 C1903 1.409 . S
C1897 H1889 0.930 . S
C1897 C1895 1.419 . S
C1897 C1898 1.362 1_556 S
C1898 H1890 0.930 . S
C1898 C1897 1.362 1_554 S
C1898 C1901 1.409 . S
C1899 H1891 0.930 1_565 S
C1899 C1900 1.355 . S
C1899 C1901 1.415 1_565 S
C1900 C1899 1.355 . S
C1900 C1902 1.419 . S
C1901 C1896 1.425 1_544 S
C1901 C1898 1.409 . S
C1901 C1899 1.415 1_545 S
C1902 H1892 0.930 . S
C1902 C1900 1.419 . S
C1902 C1903 1.362 1_554 S
C1903 H1893 0.930 . S
C1903 C1896 1.409 . S
C1903 C1902 1.362 1_556 S
H1904 C1910 0.930 . S
H1905 C1913 0.930 . S
H1906 C1914 0.930 . S
H1907 C1915 0.930 . S
H1908 C1918 0.930 . S
H1909 C1919 0.930 . S
C1910 H1904 0.930 . S
C1910 C1911 1.355 . S
C1910 C1912 1.415 1_556 S
C1911 C1910 1.355 . S
C1911 C1913 1.419 1_655 S
C1912 C1910 1.415 1_554 S
C1912 C1917 1.425 1_654 S
C1912 C1919 1.409 . S
C1913 H1905 0.930 . S
C1913 C1911 1.419 1_455 S
C1913 C1914 1.362 . S
C1914 H1906 0.930 . S
C1914 C1913 1.362 . S
C1914 C1917 1.409 . S
C1915 H1907 0.930 . S
C1915 C1916 1.355 . S
C1915 C1917 1.415 1_554 S
C1916 C1915 1.355 . S
C1916 C1918 1.419 1_455 S
C1917 C1912 1.425 1_456 S
C1917 C1914 1.409 . S
C1917 C1915 1.415 1_556 S
C1918 H1908 0.930 . S
C1918 C1916 1.419 1_655 S
C1918 C1919 1.362 . S
C1919 H1909 0.930 . S
C1919 C1912 1.409 . S
C1919 C1918 1.362 . S
C1415 C49 1.055 . S
C1420 C636 0.994 . S
C1431 C145 1.050 . S
C1436 C381 1.001 . S
C1447 C469 1.055 . S
C1452 C196 0.995 . S
C1463 C321 1.055 . S
C1468 C577 0.995 . S
C1479 C753 1.014 . S
C1484 C1340 1.034 . S
C1495 C1085 1.055 . S
C1500 C849 0.994 . S
C1511 C1173 1.051 . S
C1516 C900 1.001 . S
C1527 C1289 1.041 . S
C1532 C1017 1.011 . S
C1543 C20 1.239 . S
C1548 C997 1.315 . S
C1559 C117 1.208 . S
C1564 C761 1.314 . S
C1575 C812 1.329 . S
C1580 C225 1.286 . S
C1591 C293 1.201 . S
C1596 C909 1.313 . S
C1607 C409 1.278 . S
C1612 C1193 1.335 . S
C1623 C1281 1.317 . S
C1628 C497 1.220 . S
C1639 C548 1.182 . S
C1644 C1377 1.308 . S
C1655 C1076 1.313 . S
C1660 C665 1.201 . S
C1671 C724 1.289 . S
C1676 C284 1.335 . S
C1687 C57 1.329 . S
C1692 C821 1.225 . S
C1703 C929 1.291 . S
C1708 C108 1.335 . S
C1719 C205 1.333 . S
C1724 C988 1.278 . S
C1735 C1113 1.255 . S
C1740 C489 1.331 . S
C1751 C585 1.343 . S
C1756 C1201 1.299 . S
C1767 C673 1.322 . S
C1772 C1261 1.266 . S
C1783 C372 1.314 . S
C1788 C1369 1.187 . S
C1799 C401 1.668 . S
C1804 C29 1.669 . S
C1815 C460 1.676 . S
C1820 C137 1.676 . S
C1831 C233 1.690 . S
C1836 C557 1.690 . S
C1847 C645 1.684 . S
C1852 C313 1.684 . S
C1863 C1105 1.688 . S
C1868 C733 1.689 . S
C1879 C1164 1.669 . S
C1884 C841 1.669 . S
C1895 C937 1.686 . S
C1900 C1252 1.685 . S
C1911 C1349 1.661 . S
C1916 C1025 1.661 . S
