# Generated by pormake.
# Topology vbm, (6)-cn, num edge types: 1
# Building blocks:
#     Node 0, Type 0, BuildingBlock: HISSIN_clean_sbu_0, # of connection points: 6
#     Node 1, Type 0, BuildingBlock: HISSIN_clean_sbu_0, # of connection points: 6
#     Node 2, Type 0, BuildingBlock: HISSIN_clean_sbu_0, # of connection points: 6
#     Node 3, Type 0, BuildingBlock: HISSIN_clean_sbu_0, # of connection points: 6
#     Node 4, Type 0, BuildingBlock: HISSIN_clean_sbu_0, # of connection points: 6
#     Node 5, Type 0, BuildingBlock: HISSIN_clean_sbu_0, # of connection points: 6
#     Node 6, Type 0, BuildingBlock: HISSIN_clean_sbu_0, # of connection points: 6
#     Node 7, Type 0, BuildingBlock: HISSIN_clean_sbu_0, # of connection points: 6
#     Node 8, Type 0, BuildingBlock: HISSIN_clean_sbu_0, # of connection points: 6
#     Node 9, Type 0, BuildingBlock: HISSIN_clean_sbu_0, # of connection points: 6
#     Node 10, Type 0, BuildingBlock: HISSIN_clean_sbu_0, # of connection points: 6
#     Node 11, Type 0, BuildingBlock: HISSIN_clean_sbu_0, # of connection points: 6
#     Node 12, Type 0, BuildingBlock: HISSIN_clean_sbu_0, # of connection points: 6
#     Node 13, Type 0, BuildingBlock: HISSIN_clean_sbu_0, # of connection points: 6
#     Node 14, Type 0, BuildingBlock: HISSIN_clean_sbu_0, # of connection points: 6
#     Node 15, Type 0, BuildingBlock: HISSIN_clean_sbu_0, # of connection points: 6
#     Edge 16, Type (0, 0), BuildingBlock: UVAHIK_clean_linker_0, # of connection points: 2
#     Edge 17, Type (0, 0), BuildingBlock: UVAHIK_clean_linker_0, # of connection points: 2
#     Edge 18, Type (0, 0), BuildingBlock: UVAHIK_clean_linker_0, # of connection points: 2
#     Edge 19, Type (0, 0), BuildingBlock: UVAHIK_clean_linker_0, # of connection points: 2
#     Edge 20, Type (0, 0), BuildingBlock: UVAHIK_clean_linker_0, # of connection points: 2
#     Edge 21, Type (0, 0), BuildingBlock: UVAHIK_clean_linker_0, # of connection points: 2
#     Edge 22, Type (0, 0), BuildingBlock: UVAHIK_clean_linker_0, # of connection points: 2
#     Edge 23, Type (0, 0), BuildingBlock: UVAHIK_clean_linker_0, # of connection points: 2
#     Edge 24, Type (0, 0), BuildingBlock: UVAHIK_clean_linker_0, # of connection points: 2
#     Edge 25, Type (0, 0), BuildingBlock: UVAHIK_clean_linker_0, # of connection points: 2
#     Edge 26, Type (0, 0), BuildingBlock: UVAHIK_clean_linker_0, # of connection points: 2
#     Edge 27, Type (0, 0), BuildingBlock: UVAHIK_clean_linker_0, # of connection points: 2
#     Edge 28, Type (0, 0), BuildingBlock: UVAHIK_clean_linker_0, # of connection points: 2
#     Edge 29, Type (0, 0), BuildingBlock: UVAHIK_clean_linker_0, # of connection points: 2
#     Edge 30, Type (0, 0), BuildingBlock: UVAHIK_clean_linker_0, # of connection points: 2
#     Edge 31, Type (0, 0), BuildingBlock: UVAHIK_clean_linker_0, # of connection points: 2
#     Edge 32, Type (0, 0), BuildingBlock: UVAHIK_clean_linker_0, # of connection points: 2
#     Edge 33, Type (0, 0), BuildingBlock: UVAHIK_clean_linker_0, # of connection points: 2
#     Edge 34, Type (0, 0), BuildingBlock: UVAHIK_clean_linker_0, # of connection points: 2
#     Edge 35, Type (0, 0), BuildingBlock: UVAHIK_clean_linker_0, # of connection points: 2
#     Edge 36, Type (0, 0), BuildingBlock: UVAHIK_clean_linker_0, # of connection points: 2
#     Edge 37, Type (0, 0), BuildingBlock: UVAHIK_clean_linker_0, # of connection points: 2
#     Edge 38, Type (0, 0), BuildingBlock: UVAHIK_clean_linker_0, # of connection points: 2
#     Edge 39, Type (0, 0), BuildingBlock: UVAHIK_clean_linker_0, # of connection points: 2
#     Edge 40, Type (0, 0), BuildingBlock: UVAHIK_clean_linker_0, # of connection points: 2
#     Edge 41, Type (0, 0), BuildingBlock: UVAHIK_clean_linker_0, # of connection points: 2
#     Edge 42, Type (0, 0), BuildingBlock: UVAHIK_clean_linker_0, # of connection points: 2
#     Edge 43, Type (0, 0), BuildingBlock: UVAHIK_clean_linker_0, # of connection points: 2
#     Edge 44, Type (0, 0), BuildingBlock: UVAHIK_clean_linker_0, # of connection points: 2
#     Edge 45, Type (0, 0), BuildingBlock: UVAHIK_clean_linker_0, # of connection points: 2
#     Edge 46, Type (0, 0), BuildingBlock: UVAHIK_clean_linker_0, # of connection points: 2
#     Edge 47, Type (0, 0), BuildingBlock: UVAHIK_clean_linker_0, # of connection points: 2
#     Edge 48, Type (0, 0), BuildingBlock: UVAHIK_clean_linker_0, # of connection points: 2
#     Edge 49, Type (0, 0), BuildingBlock: UVAHIK_clean_linker_0, # of connection points: 2
#     Edge 50, Type (0, 0), BuildingBlock: UVAHIK_clean_linker_0, # of connection points: 2
#     Edge 51, Type (0, 0), BuildingBlock: UVAHIK_clean_linker_0, # of connection points: 2
#     Edge 52, Type (0, 0), BuildingBlock: UVAHIK_clean_linker_0, # of connection points: 2
#     Edge 53, Type (0, 0), BuildingBlock: UVAHIK_clean_linker_0, # of connection points: 2
#     Edge 54, Type (0, 0), BuildingBlock: UVAHIK_clean_linker_0, # of connection points: 2
#     Edge 55, Type (0, 0), BuildingBlock: UVAHIK_clean_linker_0, # of connection points: 2
#     Edge 56, Type (0, 0), BuildingBlock: UVAHIK_clean_linker_0, # of connection points: 2
#     Edge 57, Type (0, 0), BuildingBlock: UVAHIK_clean_linker_0, # of connection points: 2
#     Edge 58, Type (0, 0), BuildingBlock: UVAHIK_clean_linker_0, # of connection points: 2
#     Edge 59, Type (0, 0), BuildingBlock: UVAHIK_clean_linker_0, # of connection points: 2
#     Edge 60, Type (0, 0), BuildingBlock: UVAHIK_clean_linker_0, # of connection points: 2
#     Edge 61, Type (0, 0), BuildingBlock: UVAHIK_clean_linker_0, # of connection points: 2
#     Edge 62, Type (0, 0), BuildingBlock: UVAHIK_clean_linker_0, # of connection points: 2
#     Edge 63, Type (0, 0), BuildingBlock: UVAHIK_clean_linker_0, # of connection points: 2
# Relax obj value: 0.066
# Max RMSD: 0.138
# Mean RMSD: 0.138
data_MOF--net-vbm--node1-HISSIN_clean_sbu_0--edge1-UVAHIK_clean_linker_0
_symmetry_space_group_name_H-M    P1
_symmetry_Int_Tables_number       1
_symmetry_cell_setting            triclinic
loop_
_symmetry_equiv_pos_as_xyz
'x, y, z'
_cell_length_a     72.946029
_cell_length_b     30.734545
_cell_length_c     76.206987
_cell_angle_alpha  90.011593
_cell_angle_beta   90.045927
_cell_angle_gamma 90.029112
loop_
_atom_site_label
_atom_site_type_symbol
_atom_site_fract_x
_atom_site_fract_y
_atom_site_fract_z
_atom_type_partial_charge
Eu0 Eu 0.1301 0.07681 0.12421 0.0
Eu1 Eu 0.11221 0.17664 0.13011 0.0
C2 C 0.12365 0.11536 0.16159 0.0
C3 C 0.13768 0.95143 0.11947 0.0
C4 C 0.12465 0.93203 0.13059 0.0
C5 C 0.14341 0.88043 0.10632 0.0
C6 C 0.12129 0.88714 0.12979 0.0
C7 C 0.14681 0.92526 0.10718 0.0
C8 C 0.13085 0.86053 0.11784 0.0
C9 C 0.14325 0.99759 0.12159 0.0
O10 O 0.1427 0.18515 0.1315 0.0
O11 O 0.15328 0.12282 0.1179 0.0
C12 C 0.15574 0.16269 0.1238 0.0
O13 O 0.11683 0.09694 0.09881 0.0
O14 O 0.10935 0.23364 0.14708 0.0
O15 O 0.09512 0.23151 0.1221 0.0
O16 O 0.11983 0.171 0.10148 0.0
C17 C 0.11758 0.13596 0.09178 0.0
O18 O 0.10039 0.06596 0.13119 0.0
O19 O 0.08818 0.13323 0.12456 0.0
O20 O 0.10987 0.1377 0.1552 0.0
O21 O 0.14142 0.02371 0.10819 0.0
O22 O 0.13919 0.01655 0.13639 0.0
O23 O 0.1367 0.10203 0.15114 0.0
C24 C 0.10266 0.30145 0.13356 0.0
C25 C 0.11415 0.317 0.12017 0.0
C26 C 0.09685 0.37605 0.14266 0.0
C27 C 0.11686 0.36195 0.11798 0.0
C28 C 0.09417 0.33131 0.14482 0.0
C29 C 0.10809 0.39211 0.12912 0.0
C30 C 0.09893 0.25459 0.13602 0.0
C31 C 0.0863 0.09162 0.12812 0.0
H32 H 0.1174 0.95128 0.14027 0.0
H33 H 0.15078 0.8613 0.09671 0.0
H34 H 0.11165 0.87313 0.139 0.0
H35 H 0.15694 0.93936 0.09848 0.0
H36 H 0.12088 0.29447 0.11134 0.0
H37 H 0.09016 0.39808 0.15171 0.0
H38 H 0.12552 0.37308 0.10735 0.0
H39 H 0.08534 0.32 0.1553 0.0
Eu40 Eu 0.85855 0.95485 0.11846 0.0
Eu41 Eu 0.87195 0.85531 0.13106 0.0
C42 C 0.86477 0.93139 0.15905 0.0
C43 C 0.85035 0.07953 0.11167 0.0
C44 C 0.85456 0.09584 0.12842 0.0
C45 C 0.84966 0.15363 0.10044 0.0
C46 C 0.85619 0.14091 0.13116 0.0
C47 C 0.84804 0.10879 0.09774 0.0
C48 C 0.85362 0.17045 0.1172 0.0
C49 C 0.84805 0.03251 0.10821 0.0
O50 O 0.84144 0.85986 0.13438 0.0
O51 O 0.83534 0.90856 0.1124 0.0
C52 C 0.83013 0.87722 0.12299 0.0
O53 O 0.8707 0.92091 0.09507 0.0
O54 O 0.87032 0.80092 0.14962 0.0
O55 O 0.88845 0.79692 0.12716 0.0
O56 O 0.86446 0.85011 0.1023 0.0
C57 C 0.86836 0.88007 0.09056 0.0
O58 O 0.88741 0.96305 0.12838 0.0
O59 O 0.89756 0.89278 0.12451 0.0
O60 O 0.87585 0.89954 0.15452 0.0
O61 O 0.86208 1.01193 0.10166 0.0
O62 O 0.83927 1.00922 0.1198 0.0
O63 O 0.85383 0.95013 0.14762 0.0
C64 C 0.87708 0.72995 0.13872 0.0
C65 C 0.87226 0.71178 0.12243 0.0
C66 C 0.8758 0.65764 0.15174 0.0
C67 C 0.86944 0.66676 0.12079 0.0
C68 C 0.87861 0.70251 0.15335 0.0
C69 C 0.87141 0.63897 0.13539 0.0
C70 C 0.88167 0.77665 0.14073 0.0
C71 C 0.90074 0.9345 0.12688 0.0
H72 H 0.85645 0.07383 0.13937 0.0
H73 H 0.84795 0.17512 0.0893 0.0
H74 H 0.85914 0.15261 0.14426 0.0
H75 H 0.84489 0.0969 0.08469 0.0
H76 H 0.871 0.73221 0.11091 0.0
H77 H 0.8771 0.63754 0.16334 0.0
H78 H 0.86621 0.65361 0.10797 0.0
H79 H 0.8823 0.71576 0.16606 0.0
Eu80 Eu 0.13133 0.95502 0.37021 0.0
Eu81 Eu 0.11386 0.8552 0.36411 0.0
C82 C 0.12439 0.91734 0.33266 0.0
C83 C 0.13905 0.08024 0.37515 0.0
C84 C 0.12684 0.09986 0.36326 0.0
C85 C 0.14392 0.15099 0.38884 0.0
C86 C 0.12347 0.14473 0.36396 0.0
C87 C 0.14733 0.10617 0.38808 0.0
C88 C 0.1322 0.1711 0.37659 0.0
C89 C 0.14463 0.03404 0.37335 0.0
O90 O 0.14436 0.84889 0.36146 0.0
O91 O 0.1541 0.90855 0.37719 0.0
C92 C 0.15708 0.87008 0.37018 0.0
O93 O 0.11777 0.93437 0.39534 0.0
O94 O 0.11104 0.7981 0.34716 0.0
O95 O 0.09721 0.79977 0.37234 0.0
O96 O 0.12187 0.86074 0.39269 0.0
C97 C 0.11928 0.89557 0.40242 0.0
O98 O 0.10165 0.96578 0.36326 0.0
O99 O 0.08967 0.89805 0.36959 0.0
O100 O 0.11088 0.89423 0.33913 0.0
O101 O 0.14201 1.00808 0.38666 0.0
O102 O 0.14131 1.01499 0.3584 0.0
O103 O 0.1375 0.93117 0.34297 0.0
C104 C 0.10484 0.73003 0.36071 0.0
C105 C 0.1153 0.71427 0.37483 0.0
C106 C 0.10007 0.65564 0.3508 0.0
C107 C 0.118 0.66932 0.37697 0.0
C108 C 0.09741 0.70038 0.34868 0.0
C109 C 0.11024 0.63938 0.36506 0.0
C110 C 0.10092 0.77684 0.35836 0.0
C111 C 0.08766 0.93969 0.36616 0.0
H112 H 0.12025 0.0808 0.35309 0.0
H113 H 0.15063 0.16994 0.39896 0.0
H114 H 0.11451 0.15894 0.35419 0.0
H115 H 0.15682 0.09189 0.39739 0.0
H116 H 0.1212 0.7366 0.38428 0.0
H117 H 0.09419 0.63377 0.34118 0.0
H118 H 0.12582 0.65799 0.38816 0.0
H119 H 0.08937 0.71186 0.33765 0.0
Eu120 Eu 0.86007 0.08971 0.36891 0.0
Eu121 Eu 0.87719 0.18965 0.362 0.0
C122 C 0.8663 0.12634 0.33106 0.0
C123 C 0.8524 0.9644 0.37378 0.0
C124 C 0.86534 0.946 0.36231 0.0
C125 C 0.84674 0.89239 0.38602 0.0
C126 C 0.86866 0.90107 0.36246 0.0
C127 C 0.84336 0.93725 0.38579 0.0
C128 C 0.85919 0.87355 0.37413 0.0
C129 C 0.84685 1.01067 0.3724 0.0
O130 O 0.8466 0.19557 0.36022 0.0
O131 O 0.8374 0.13596 0.37626 0.0
C132 C 0.83417 0.17434 0.36928 0.0
O133 O 0.87368 0.11122 0.39395 0.0
O134 O 0.87935 0.2461 0.34465 0.0
O135 O 0.89388 0.24572 0.36947 0.0
O136 O 0.87044 0.18515 0.39089 0.0
C137 C 0.87294 0.1505 0.40076 0.0
O138 O 0.88972 0.07905 0.36178 0.0
O139 O 0.90159 0.14738 0.36731 0.0
O140 O 0.87991 0.14966 0.33723 0.0
O141 O 0.85022 0.03633 0.38565 0.0
O142 O 0.84952 0.02993 0.35738 0.0
O143 O 0.85338 0.11283 0.34164 0.0
C144 C 0.88542 0.31469 0.35775 0.0
C145 C 0.87372 0.32971 0.37107 0.0
C146 C 0.89016 0.3894 0.34826 0.0
C147 C 0.87033 0.37446 0.37299 0.0
C148 C 0.89355 0.34487 0.34638 0.0
C149 C 0.87852 0.40492 0.36159 0.0
C150 C 0.88968 0.26806 0.35547 0.0
C151 C 0.90366 0.10557 0.36427 0.0
H152 H 0.87257 0.96614 0.35292 0.0
H153 H 0.83907 0.87225 0.39507 0.0
H154 H 0.87854 0.88781 0.35331 0.0
H155 H 0.83323 0.9506 0.39469 0.0
H156 H 0.86725 0.30692 0.37996 0.0
H157 H 0.89696 0.41176 0.33941 0.0
H158 H 0.86116 0.38514 0.38329 0.0
H159 H 0.90267 0.33397 0.33606 0.0
Eu160 Eu 0.86855 0.86299 0.86436 0.0
Eu161 Eu 0.85629 0.96292 0.87758 0.0
C162 C 0.86578 0.88691 0.90497 0.0
C163 C 0.87266 0.73742 0.85715 0.0
C164 C 0.86867 0.72001 0.87376 0.0
C165 C 0.87006 0.66479 0.84461 0.0
C166 C 0.86563 0.67519 0.8758 0.0
C167 C 0.87314 0.70947 0.84261 0.0
C168 C 0.86646 0.6469 0.86125 0.0
C169 C 0.87746 0.78382 0.85468 0.0
O170 O 0.88507 0.97022 0.8675 0.0
O171 O 0.89467 0.89919 0.87035 0.0
C172 C 0.89816 0.9409 0.86837 0.0
O173 O 0.87201 0.90626 0.84064 0.0
O174 O 0.86063 0.01935 0.89458 0.0
O175 O 0.83717 0.01767 0.87714 0.0
O176 O 0.85235 0.96174 0.84825 0.0
C177 C 0.86215 0.94067 0.83652 0.0
O178 O 0.8381 0.86925 0.86111 0.0
O179 O 0.83265 0.91754 0.88336 0.0
O180 O 0.8686 0.92768 0.90061 0.0
O181 O 0.86587 0.80818 0.84611 0.0
O182 O 0.88494 0.80429 0.86787 0.0
O183 O 0.86126 0.85768 0.89314 0.0
C184 C 0.84902 0.08741 0.88501 0.0
C185 C 0.85232 0.10366 0.86808 0.0
C186 C 0.84995 0.16135 0.8964 0.0
C187 C 0.85433 0.14862 0.86533 0.0
C188 C 0.8479 0.11661 0.8991 0.0
C189 C 0.85319 0.17806 0.87949 0.0
C190 C 0.8465 0.04049 0.88851 0.0
C191 C 0.82705 0.88679 0.87266 0.0
H192 H 0.86815 0.74088 0.88521 0.0
H193 H 0.87106 0.64409 0.83315 0.0
H194 H 0.86265 0.66269 0.88877 0.0
H195 H 0.8763 0.72211 0.82968 0.0
H196 H 0.85332 0.08168 0.857 0.0
H197 H 0.84868 0.18292 0.90757 0.0
H198 H 0.85699 0.16025 0.85217 0.0
H199 H 0.8453 0.10478 0.91226 0.0
Eu200 Eu 0.11055 0.17825 0.86487 0.0
Eu201 Eu 0.12833 0.0783 0.87035 0.0
C202 C 0.11636 0.13711 0.90303 0.0
C203 C 0.10095 0.30313 0.86181 0.0
C204 C 0.1127 0.31857 0.87503 0.0
C205 C 0.09487 0.37779 0.85298 0.0
C206 C 0.11542 0.3635 0.87726 0.0
C207 C 0.0922 0.33308 0.85076 0.0
C208 C 0.10638 0.39375 0.86635 0.0
C209 C 0.09721 0.2563 0.8593 0.0
O210 O 0.09851 0.06769 0.86366 0.0
O211 O 0.08651 0.13498 0.87056 0.0
C212 C 0.0845 0.09345 0.86692 0.0
O213 O 0.10791 0.13987 0.83966 0.0
O214 O 0.14004 0.02532 0.88618 0.0
O215 O 0.13694 0.01778 0.85806 0.0
O216 O 0.13466 0.10351 0.84336 0.0
C217 C 0.12157 0.11752 0.83308 0.0
O218 O 0.14103 0.18674 0.86315 0.0
O219 O 0.15172 0.12401 0.87637 0.0
O220 O 0.11539 0.09821 0.89591 0.0
O221 O 0.10748 0.2355 0.84808 0.0
O222 O 0.0936 0.23306 0.87322 0.0
O223 O 0.11859 0.17222 0.89339 0.0
C224 C 0.13588 0.95292 0.87516 0.0
C225 C 0.12256 0.93336 0.86437 0.0
C226 C 0.14192 0.88214 0.88836 0.0
C227 C 0.11922 0.8885 0.86535 0.0
C228 C 0.14531 0.92694 0.88732 0.0
C229 C 0.12908 0.86208 0.87716 0.0
C230 C 0.14143 0.999 0.8728 0.0
C231 C 0.15417 0.16394 0.87056 0.0
H232 H 0.11964 0.29596 0.88368 0.0
H233 H 0.08798 0.3999 0.84409 0.0
H234 H 0.12429 0.37456 0.88775 0.0
H235 H 0.08316 0.32184 0.84042 0.0
H236 H 0.11508 0.95246 0.85481 0.0
H237 H 0.14954 0.86314 0.89786 0.0
H238 H 0.10936 0.87435 0.85639 0.0
H239 H 0.15567 0.94116 0.89576 0.0
Eu240 Eu 0.87429 0.17295 0.6291 0.0
Eu241 Eu 0.86016 0.07277 0.61821 0.0
C242 C 0.86963 0.14351 0.58848 0.0
C243 C 0.88067 0.29823 0.63549 0.0
C244 C 0.87891 0.3147 0.61837 0.0
C245 C 0.87734 0.37161 0.647 0.0
C246 C 0.87647 0.35951 0.61561 0.0
C247 C 0.87983 0.32705 0.64972 0.0
C248 C 0.87564 0.38853 0.62992 0.0
C249 C 0.88362 0.25153 0.6391 0.0
O250 O 0.89093 0.07264 0.61526 0.0
O251 O 0.89868 0.12994 0.63332 0.0
C252 C 0.9031 0.09515 0.62425 0.0
O253 O 0.86442 0.13829 0.65371 0.0
O254 O 0.85942 0.01752 0.60011 0.0
O255 O 0.84334 0.01581 0.62403 0.0
O256 O 0.87057 0.0681 0.64576 0.0
C257 C 0.86759 0.09743 0.65788 0.0
O258 O 0.84641 0.18008 0.61741 0.0
O259 O 0.8352 0.11324 0.62514 0.0
O260 O 0.85854 0.11221 0.59351 0.0
O261 O 0.8698 0.23004 0.64561 0.0
O262 O 0.89291 0.22865 0.62772 0.0
O263 O 0.87901 0.16721 0.59977 0.0
C264 C 0.85349 0.94768 0.61235 0.0
C265 C 0.85615 0.92874 0.62896 0.0
C266 C 0.8574 0.87631 0.59897 0.0
C267 C 0.8592 0.88386 0.63054 0.0
C268 C 0.85428 0.92105 0.59741 0.0
C269 C 0.85971 0.857 0.61556 0.0
C270 C 0.84881 0.99429 0.61022 0.0
C271 C 0.83261 0.15404 0.62056 0.0
H272 H 0.87943 0.29303 0.60717 0.0
H273 H 0.87708 0.39293 0.65831 0.0
H274 H 0.87504 0.37136 0.6023 0.0
H275 H 0.88123 0.31506 0.66303 0.0
H276 H 0.85566 0.94844 0.64074 0.0
H277 H 0.85747 0.85665 0.58718 0.0
H278 H 0.86115 0.87018 0.6435 0.0
H279 H 0.85213 0.93479 0.58448 0.0
Eu280 Eu 0.11572 0.86184 0.62961 0.0
Eu281 Eu 0.13346 0.96142 0.62372 0.0
C282 C 0.12239 0.90098 0.59129 0.0
C283 C 0.10697 0.73685 0.63336 0.0
C284 C 0.11923 0.72152 0.62057 0.0
C285 C 0.10179 0.66229 0.64289 0.0
C286 C 0.12266 0.67672 0.61891 0.0
C287 C 0.09836 0.70688 0.6445 0.0
C288 C 0.11397 0.64647 0.63007 0.0
C289 C 0.10262 0.78356 0.63533 0.0
O290 O 0.10352 0.97213 0.62967 0.0
O291 O 0.09195 0.90458 0.62245 0.0
C292 C 0.08973 0.94622 0.62575 0.0
O293 O 0.11185 0.9017 0.65429 0.0
O294 O 0.14418 1.01497 0.60755 0.0
O295 O 0.14348 0.021 0.63584 0.0
O296 O 0.13877 0.93766 0.65113 0.0
C297 C 0.12527 0.92456 0.6611 0.0
O298 O 0.14615 0.85538 0.63302 0.0
O299 O 0.15643 0.91481 0.61747 0.0
O300 O 0.12103 0.94014 0.5981 0.0
O301 O 0.11215 0.80549 0.64681 0.0
O302 O 0.0995 0.80591 0.62107 0.0
O303 O 0.12459 0.8664 0.60126 0.0
C304 C 0.14137 0.08677 0.61946 0.0
C305 C 0.12797 0.10508 0.63048 0.0
C306 C 0.14743 0.15889 0.60748 0.0
C307 C 0.12461 0.15 0.63022 0.0
C308 C 0.15085 0.11403 0.60781 0.0
C309 C 0.1345 0.17763 0.61891 0.0
C310 C 0.14687 0.04047 0.621 0.0
C311 C 0.15914 0.87635 0.6246 0.0
H312 H 0.12609 0.74412 0.61186 0.0
H313 H 0.0946 0.64012 0.65153 0.0
H314 H 0.13226 0.66583 0.60901 0.0
H315 H 0.0888 0.718 0.65442 0.0
H316 H 0.12039 0.08487 0.63958 0.0
H317 H 0.15543 0.17909 0.59872 0.0
H318 H 0.11436 0.16316 0.63902 0.0
H319 H 0.16133 0.10077 0.59928 0.0
Eu320 Eu 0.63101 0.57104 0.12058 0.0
Eu321 Eu 0.61708 0.67104 0.13239 0.0
C322 C 0.6226 0.59483 0.16088 0.0
C323 C 0.63894 0.44627 0.11426 0.0
C324 C 0.63467 0.42998 0.131 0.0
C325 C 0.6384 0.37241 0.10277 0.0
C326 C 0.63236 0.38505 0.13358 0.0
C327 C 0.64075 0.41711 0.10023 0.0
C328 C 0.63417 0.35566 0.11947 0.0
C329 C 0.64175 0.49317 0.1109 0.0
O330 O 0.64742 0.66664 0.13704 0.0
O331 O 0.6547 0.61685 0.1158 0.0
C332 C 0.65927 0.64905 0.12625 0.0
O333 O 0.62123 0.60556 0.09634 0.0
O334 O 0.6179 0.72565 0.15088 0.0
O335 O 0.60072 0.72931 0.12772 0.0
O336 O 0.62633 0.6766 0.10414 0.0
C337 C 0.62408 0.64641 0.09211 0.0
O338 O 0.60154 0.5635 0.12866 0.0
O339 O 0.59182 0.63396 0.12438 0.0
O340 O 0.61222 0.6276 0.15587 0.0
O341 O 0.62823 0.51411 0.10358 0.0
O342 O 0.64999 0.51628 0.12293 0.0
O343 O 0.63375 0.57505 0.14994 0.0
C344 C 0.61192 0.79632 0.13938 0.0
C345 C 0.61694 0.81401 0.12307 0.0
C346 C 0.6138 0.86873 0.15225 0.0
C347 C 0.62013 0.85884 0.12134 0.0
C348 C 0.61056 0.82404 0.15395 0.0
C349 C 0.61844 0.88687 0.13589 0.0
C350 C 0.607 0.74985 0.14145 0.0
C351 C 0.5884 0.59228 0.12648 0.0
H352 H 0.63313 0.45192 0.14202 0.0
H353 H 0.6402 0.35088 0.09166 0.0
H354 H 0.62894 0.37338 0.14658 0.0
H355 H 0.6441 0.42896 0.08722 0.0
H356 H 0.61815 0.79334 0.11161 0.0
H357 H 0.61213 0.88924 0.16369 0.0
H358 H 0.62391 0.87154 0.10859 0.0
H359 H 0.6066 0.81119 0.16663 0.0
Eu360 Eu 0.35833 0.45458 0.12486 0.0
Eu361 Eu 0.3758 0.35446 0.13041 0.0
C362 C 0.3653 0.41573 0.16213 0.0
C363 C 0.35083 0.57998 0.12003 0.0
C364 C 0.36418 0.5996 0.13076 0.0
C365 C 0.3447 0.65068 0.1068 0.0
C366 C 0.36749 0.64446 0.12975 0.0
C367 C 0.34135 0.60587 0.10787 0.0
C368 C 0.35757 0.67081 0.11796 0.0
C369 C 0.3453 0.53393 0.12245 0.0
O370 O 0.34528 0.34651 0.13225 0.0
O371 O 0.3349 0.40916 0.11878 0.0
C372 C 0.33226 0.36941 0.1247 0.0
O373 O 0.37093 0.43418 0.09921 0.0
O374 O 0.37872 0.29732 0.14729 0.0
O375 O 0.39266 0.29944 0.12217 0.0
O376 O 0.36762 0.3602 0.10192 0.0
C377 C 0.36985 0.39517 0.09219 0.0
O378 O 0.38828 0.46488 0.13101 0.0
O379 O 0.39988 0.39712 0.12423 0.0
O380 O 0.37888 0.39326 0.15546 0.0
O381 O 0.34658 0.50757 0.10907 0.0
O382 O 0.34989 0.5152 0.13717 0.0
O383 O 0.35214 0.42968 0.15193 0.0
C384 C 0.3852 0.22957 0.13365 0.0
C385 C 0.37345 0.21416 0.12043 0.0
C386 C 0.39126 0.15492 0.14248 0.0
C387 C 0.37073 0.16924 0.11818 0.0
C388 C 0.39394 0.19962 0.1447 0.0
C389 C 0.37976 0.139 0.12909 0.0
C390 C 0.38899 0.27637 0.13611 0.0
C391 C 0.40211 0.43872 0.1276 0.0
H392 H 0.3717 0.58057 0.14032 0.0
H393 H 0.33704 0.66962 0.09732 0.0
H394 H 0.37737 0.65868 0.13868 0.0
H395 H 0.33097 0.59159 0.09948 0.0
H396 H 0.36653 0.23678 0.11176 0.0
H397 H 0.39815 0.13279 0.15136 0.0
H398 H 0.36187 0.15819 0.10768 0.0
H399 H 0.40298 0.21085 0.15505 0.0
Eu400 Eu 0.62954 0.45687 0.37874 0.0
Eu401 Eu 0.61536 0.35666 0.36726 0.0
C402 C 0.62163 0.43205 0.33847 0.0
C403 C 0.63729 0.58182 0.3849 0.0
C404 C 0.63281 0.59794 0.36819 0.0
C405 C 0.63688 0.65576 0.39629 0.0
C406 C 0.63044 0.64284 0.36556 0.0
C407 C 0.63928 0.61109 0.39887 0.0
C408 C 0.63241 0.67234 0.37962 0.0
C409 C 0.64015 0.53498 0.3883 0.0
O410 O 0.64577 0.35934 0.36321 0.0
O411 O 0.65339 0.4117 0.3834 0.0
C412 C 0.65777 0.37822 0.37354 0.0
O413 O 0.61984 0.42271 0.40311 0.0
O414 O 0.61565 0.3021 0.34874 0.0
O415 O 0.59889 0.29864 0.37218 0.0
O416 O 0.62464 0.35143 0.3955 0.0
C417 C 0.62251 0.38186 0.40745 0.0
O418 O 0.60025 0.46426 0.3701 0.0
O419 O 0.59034 0.39438 0.37527 0.0
O420 O 0.61107 0.39963 0.3435 0.0
O421 O 0.62665 0.51396 0.39562 0.0
O422 O 0.64841 0.51187 0.3763 0.0
O423 O 0.63268 0.45203 0.34946 0.0
C424 C 0.60971 0.23153 0.36031 0.0
C425 C 0.61498 0.21372 0.37654 0.0
C426 C 0.61134 0.15923 0.34733 0.0
C427 C 0.61819 0.16889 0.37817 0.0
C428 C 0.60809 0.20392 0.34573 0.0
C429 C 0.61625 0.14097 0.3636 0.0
C430 C 0.60486 0.27804 0.35834 0.0
C431 C 0.58704 0.43586 0.37258 0.0
H432 H 0.63113 0.5759 0.3572 0.0
H433 H 0.63881 0.67739 0.40736 0.0
H434 H 0.62684 0.65439 0.35259 0.0
H435 H 0.6428 0.59937 0.41186 0.0
H436 H 0.61641 0.23431 0.388 0.0
H437 H 0.60948 0.1388 0.33589 0.0
H438 H 0.62218 0.15608 0.39084 0.0
H439 H 0.60394 0.21686 0.33311 0.0
Eu440 Eu 0.35752 0.57295 0.37255 0.0
Eu441 Eu 0.37452 0.67271 0.36503 0.0
C442 C 0.36455 0.60764 0.33439 0.0
C443 C 0.3499 0.44777 0.37772 0.0
C444 C 0.36248 0.42972 0.3658 0.0
C445 C 0.34473 0.37545 0.38986 0.0
C446 C 0.36587 0.38481 0.3657 0.0
C447 C 0.34128 0.4203 0.38989 0.0
C448 C 0.35683 0.35696 0.37756 0.0
C449 C 0.34432 0.49408 0.37673 0.0
O450 O 0.34399 0.67738 0.3622 0.0
O451 O 0.33474 0.61963 0.37924 0.0
C452 C 0.33147 0.65706 0.37148 0.0
O453 O 0.371 0.59617 0.3974 0.0
O454 O 0.37675 0.72897 0.34756 0.0
O455 O 0.39108 0.72899 0.37248 0.0
O456 O 0.36679 0.66951 0.39371 0.0
C457 C 0.36972 0.63566 0.4039 0.0
O458 O 0.38719 0.56207 0.3656 0.0
O459 O 0.39884 0.63065 0.37102 0.0
O460 O 0.37785 0.63199 0.34054 0.0
O461 O 0.34861 0.51959 0.38978 0.0
O462 O 0.34604 0.51343 0.36161 0.0
O463 O 0.35155 0.59398 0.34486 0.0
C464 C 0.38267 0.79782 0.36057 0.0
C465 C 0.37135 0.81315 0.37414 0.0
C466 C 0.38716 0.87236 0.35072 0.0
C467 C 0.36804 0.85794 0.37601 0.0
C468 C 0.39046 0.82776 0.34889 0.0
C469 C 0.37593 0.88818 0.36432 0.0
C470 C 0.38696 0.75114 0.35841 0.0
C471 C 0.40105 0.58876 0.36822 0.0
H472 H 0.3694 0.45014 0.35629 0.0
H473 H 0.33737 0.35508 0.39906 0.0
H474 H 0.37548 0.37183 0.35623 0.0
H475 H 0.33143 0.43338 0.39913 0.0
H476 H 0.36513 0.79056 0.38328 0.0
H477 H 0.39372 0.89452 0.34164 0.0
H478 H 0.35918 0.86884 0.38652 0.0
H479 H 0.3993 0.81665 0.33838 0.0
Eu480 Eu 0.3752 0.35244 0.86539 0.0
Eu481 Eu 0.35772 0.45266 0.87056 0.0
C482 C 0.36906 0.39382 0.90346 0.0
C483 C 0.38427 0.2275 0.86224 0.0
C484 C 0.37059 0.21268 0.87374 0.0
C485 C 0.39101 0.15257 0.8543 0.0
C486 C 0.36719 0.1679 0.87553 0.0
C487 C 0.3944 0.19713 0.85257 0.0
C488 C 0.37733 0.13724 0.86577 0.0
C489 C 0.38838 0.27418 0.85998 0.0
O490 O 0.38777 0.46285 0.86482 0.0
O491 O 0.39929 0.39505 0.8717 0.0
C492 C 0.40156 0.43666 0.86838 0.0
O493 O 0.37863 0.391 0.84033 0.0
O494 O 0.34571 0.50577 0.88609 0.0
O495 O 0.34954 0.51321 0.85806 0.0
O496 O 0.35186 0.42749 0.84346 0.0
C497 C 0.36515 0.41343 0.83345 0.0
O498 O 0.3447 0.34456 0.86312 0.0
O499 O 0.33421 0.4073 0.87643 0.0
O500 O 0.37015 0.43272 0.89636 0.0
O501 O 0.37855 0.29544 0.84853 0.0
O502 O 0.39163 0.29704 0.87408 0.0
O503 O 0.36684 0.35871 0.8938 0.0
C504 C 0.35011 0.57803 0.8751 0.0
C505 C 0.36489 0.59628 0.86584 0.0
C506 C 0.34269 0.65004 0.88644 0.0
C507 C 0.36828 0.64115 0.86657 0.0
C508 C 0.33926 0.60523 0.88562 0.0
C509 C 0.35702 0.66875 0.87664 0.0
C510 C 0.34463 0.532 0.87266 0.0
C511 C 0.3316 0.36756 0.87047 0.0
H512 H 0.36256 0.23567 0.88128 0.0
H513 H 0.39931 0.13007 0.8468 0.0
H514 H 0.35645 0.15733 0.88436 0.0
H515 H 0.40506 0.20791 0.84367 0.0
H516 H 0.37355 0.57609 0.85765 0.0
H517 H 0.33364 0.67025 0.8942 0.0
H518 H 0.3796 0.65433 0.85907 0.0
H519 H 0.32771 0.59199 0.89279 0.0
Eu520 Eu 0.6161 0.67104 0.86651 0.0
Eu521 Eu 0.63045 0.57129 0.87836 0.0
C522 C 0.62353 0.6466 0.90678 0.0
C523 C 0.61084 0.79636 0.85947 0.0
C524 C 0.61608 0.81417 0.87571 0.0
C525 C 0.61253 0.86872 0.84653 0.0
C526 C 0.6193 0.85903 0.87737 0.0
C527 C 0.60928 0.824 0.8449 0.0
C528 C 0.61741 0.887 0.86282 0.0
C529 C 0.6059 0.74984 0.8575 0.0
O530 O 0.60087 0.56324 0.8706 0.0
O531 O 0.59095 0.63368 0.87461 0.0
C532 C 0.58766 0.59188 0.87268 0.0
O533 O 0.61092 0.62719 0.84317 0.0
O534 O 0.62809 0.51438 0.89542 0.0
O535 O 0.64952 0.51676 0.87577 0.0
O536 O 0.63267 0.57507 0.84898 0.0
C537 C 0.6212 0.59426 0.83816 0.0
O538 O 0.64634 0.6666 0.8614 0.0
O539 O 0.65406 0.61766 0.88281 0.0
O540 O 0.62073 0.60571 0.9026 0.0
O541 O 0.61665 0.72556 0.84796 0.0
O542 O 0.59981 0.72937 0.87132 0.0
O543 O 0.62562 0.67676 0.89471 0.0
C544 C 0.63869 0.44661 0.88452 0.0
C545 C 0.63414 0.43039 0.86784 0.0
C546 C 0.6384 0.37265 0.89593 0.0
C547 C 0.63181 0.38545 0.86523 0.0
C548 C 0.64076 0.41736 0.89849 0.0
C549 C 0.63387 0.35597 0.87928 0.0
C550 C 0.64151 0.49354 0.88789 0.0
C551 C 0.65839 0.64968 0.87218 0.0
H552 H 0.61746 0.79358 0.88717 0.0
H553 H 0.6107 0.88915 0.83508 0.0
H554 H 0.62326 0.8718 0.89006 0.0
H555 H 0.60515 0.81108 0.83227 0.0
H556 H 0.63239 0.45238 0.85685 0.0
H557 H 0.6404 0.35107 0.907 0.0
H558 H 0.62816 0.37385 0.85227 0.0
H559 H 0.64433 0.42914 0.91146 0.0
Eu560 Eu 0.37558 0.67175 0.63092 0.0
Eu561 Eu 0.35828 0.57236 0.6232 0.0
C562 C 0.37054 0.63529 0.59199 0.0
C563 C 0.38412 0.79685 0.6354 0.0
C564 C 0.37493 0.81312 0.62058 0.0
C565 C 0.38756 0.87088 0.64626 0.0
C566 C 0.37223 0.8581 0.61856 0.0
C567 C 0.39023 0.82609 0.64826 0.0
C568 C 0.3787 0.88765 0.6313 0.0
C569 C 0.38816 0.75001 0.63762 0.0
O570 O 0.38789 0.56097 0.63032 0.0
O571 O 0.3998 0.62931 0.62495 0.0
C572 C 0.40186 0.58738 0.62777 0.0
O573 O 0.3788 0.63086 0.65538 0.0
O574 O 0.34961 0.51901 0.60584 0.0
O575 O 0.34635 0.51311 0.63394 0.0
O576 O 0.35246 0.593 0.65096 0.0
C577 C 0.36549 0.60647 0.66146 0.0
O578 O 0.34506 0.67676 0.63382 0.0
O579 O 0.33557 0.61946 0.61664 0.0
O580 O 0.37178 0.59573 0.59841 0.0
O581 O 0.37779 0.72808 0.6484 0.0
O582 O 0.39241 0.72766 0.62363 0.0
O583 O 0.36773 0.66905 0.60225 0.0
C584 C 0.35057 0.44719 0.61797 0.0
C585 C 0.36132 0.42794 0.63118 0.0
C586 C 0.34708 0.3759 0.60434 0.0
C587 C 0.36465 0.383 0.63112 0.0
C588 C 0.3437 0.42079 0.60445 0.0
C589 C 0.35734 0.35619 0.61783 0.0
C590 C 0.34501 0.49359 0.61881 0.0
C591 C 0.33244 0.65682 0.62452 0.0
H592 H 0.37006 0.79116 0.61047 0.0
H593 H 0.39242 0.89241 0.65651 0.0
H594 H 0.36546 0.86978 0.60682 0.0
H595 H 0.39728 0.81426 0.65983 0.0
H596 H 0.36679 0.44739 0.64182 0.0
H597 H 0.3415 0.35661 0.59371 0.0
H598 H 0.37246 0.36913 0.64183 0.0
H599 H 0.33536 0.43477 0.59412 0.0
Eu600 Eu 0.61427 0.34566 0.63334 0.0
Eu601 Eu 0.62987 0.44565 0.62298 0.0
C602 C 0.62228 0.37301 0.59353 0.0
C603 C 0.60745 0.22058 0.63975 0.0
C604 C 0.61562 0.2035 0.62455 0.0
C605 C 0.60626 0.14753 0.65207 0.0
C606 C 0.61893 0.15863 0.62308 0.0
C607 C 0.60294 0.19223 0.65351 0.0
C608 C 0.61419 0.12997 0.6368 0.0
C609 C 0.60276 0.26726 0.64145 0.0
O610 O 0.60043 0.45457 0.6309 0.0
O611 O 0.58982 0.3854 0.62524 0.0
C612 C 0.58695 0.42705 0.62803 0.0
O613 O 0.60984 0.38815 0.65729 0.0
O614 O 0.62864 0.50274 0.60591 0.0
O615 O 0.64868 0.50037 0.62685 0.0
O616 O 0.63234 0.4389 0.6522 0.0
C617 C 0.62065 0.41971 0.66276 0.0
O618 O 0.64458 0.34593 0.63802 0.0
O619 O 0.65338 0.39909 0.61862 0.0
O620 O 0.61981 0.41359 0.59832 0.0
O621 O 0.61306 0.2909 0.65171 0.0
O622 O 0.59788 0.28809 0.62728 0.0
O623 O 0.62401 0.34169 0.60517 0.0
C624 C 0.63867 0.57049 0.61729 0.0
C625 C 0.63084 0.58651 0.63284 0.0
C626 C 0.64121 0.64465 0.60638 0.0
C627 C 0.62825 0.63149 0.63513 0.0
C628 C 0.64382 0.59992 0.60414 0.0
C629 C 0.63334 0.66116 0.62187 0.0
C630 C 0.64159 0.52352 0.6142 0.0
C631 C 0.65705 0.3645 0.62816 0.0
H632 H 0.6193 0.22474 0.61377 0.0
H633 H 0.60218 0.12658 0.66281 0.0
H634 H 0.62526 0.14642 0.61121 0.0
H635 H 0.59654 0.20463 0.66532 0.0
H636 H 0.62668 0.56433 0.64314 0.0
H637 H 0.64559 0.66637 0.59601 0.0
H638 H 0.62201 0.64295 0.64715 0.0
H639 H 0.64992 0.58826 0.59206 0.0
C640 C 0.18984 0.15904 0.11974 0.0
C641 C 0.1738 0.18375 0.12179 0.0
C642 C 0.20693 0.17959 0.11872 0.0
C643 C 0.22953 0.28456 0.12958 0.0
H644 H 0.26879 0.23886 0.10071 0.0
C645 C 0.29833 0.37461 0.11977 0.0
C646 C 0.314 0.34913 0.12281 0.0
C647 C 0.28107 0.35507 0.11848 0.0
C648 C 0.25793 0.25187 0.10885 0.0
H649 H 0.16295 0.24935 0.12354 0.0
H650 H 0.19252 0.28506 0.12117 0.0
H651 H 0.23884 0.20333 0.10038 0.0
H652 H 0.32395 0.28311 0.12634 0.0
H653 H 0.29386 0.24917 0.1239 0.0
H654 H 0.24862 0.3334 0.13784 0.0
C655 C 0.1921 0.24984 0.12099 0.0
C656 C 0.24081 0.23142 0.10875 0.0
C657 C 0.17511 0.22934 0.12226 0.0
C658 C 0.31212 0.30371 0.12413 0.0
C659 C 0.29493 0.28419 0.1226 0.0
C660 C 0.24655 0.30526 0.1295 0.0
C661 C 0.20827 0.22528 0.1195 0.0
C662 C 0.22642 0.24737 0.11921 0.0
C663 C 0.27923 0.30969 0.11992 0.0
C664 C 0.26094 0.28894 0.11924 0.0
H665 H 0.18924 0.12384 0.11939 0.0
H666 H 0.2191 0.15959 0.11778 0.0
H667 H 0.21893 0.29727 0.13809 0.0
H668 H 0.29935 0.40967 0.11868 0.0
H669 H 0.26915 0.3754 0.11632 0.0
C670 C 0.80226 0.8565 0.10572 0.0
C671 C 0.81142 0.8595 0.1219 0.0
C672 C 0.78524 0.83553 0.10465 0.0
C673 C 0.74476 0.8078 0.12949 0.0
H674 H 0.74123 0.70224 0.10179 0.0
C675 C 0.68503 0.69034 0.13965 0.0
C676 C 0.67761 0.66888 0.12504 0.0
C677 C 0.70138 0.71352 0.1382 0.0
C678 C 0.74181 0.73204 0.10935 0.0
H679 H 0.80987 0.84464 0.14966 0.0
H680 H 0.77987 0.80959 0.14787 0.0
H681 H 0.76906 0.74648 0.10043 0.0
H682 H 0.68154 0.65401 0.09752 0.0
H683 H 0.70987 0.69585 0.09475 0.0
H684 H 0.71757 0.79447 0.13822 0.0
C685 C 0.78594 0.82276 0.13603 0.0
C686 C 0.75777 0.75725 0.10856 0.0
C687 C 0.80308 0.84267 0.13704 0.0
C688 C 0.68709 0.66998 0.10903 0.0
C689 C 0.70333 0.69395 0.10747 0.0
C690 C 0.72872 0.78315 0.13004 0.0
C691 C 0.77703 0.81845 0.11982 0.0
C692 C 0.75946 0.7948 0.11891 0.0
C693 C 0.71051 0.71668 0.12199 0.0
C694 C 0.72718 0.74434 0.12032 0.0
H695 H 0.80852 0.86892 0.09385 0.0
H696 H 0.77853 0.83251 0.09202 0.0
H697 H 0.74577 0.83688 0.13748 0.0
H698 H 0.67807 0.68961 0.1522 0.0
H699 H 0.70676 0.72931 0.14982 0.0
C700 C 0.30932 0.71595 0.36392 0.0
C701 C 0.31334 0.6779 0.37339 0.0
C702 C 0.29251 0.73678 0.36596 0.0
C703 C 0.26033 0.78808 0.37939 0.0
H704 H 0.21575 0.71944 0.38009 0.0
C705 C 0.18851 0.86696 0.38354 0.0
C706 C 0.17515 0.84909 0.37237 0.0
C707 C 0.20532 0.84595 0.38591 0.0
C708 C 0.22809 0.73907 0.37987 0.0
H709 H 0.30283 0.63193 0.39251 0.0
H710 H 0.27339 0.6687 0.39618 0.0
H711 H 0.24537 0.68289 0.37985 0.0
H712 H 0.16905 0.79533 0.35478 0.0
H713 H 0.19837 0.75948 0.3586 0.0
H714 H 0.24306 0.84422 0.37856 0.0
C715 C 0.28325 0.68206 0.38703 0.0
C716 C 0.24506 0.71811 0.37996 0.0
C717 C 0.30011 0.66105 0.38494 0.0
C718 C 0.17898 0.80996 0.36356 0.0
C719 C 0.19576 0.78912 0.36587 0.0
C720 C 0.24337 0.80903 0.37923 0.0
C721 C 0.27932 0.72026 0.37759 0.0
C722 C 0.26136 0.74239 0.37934 0.0
C723 C 0.2091 0.80674 0.37711 0.0
C724 C 0.22706 0.78472 0.3791 0.0
H725 H 0.31914 0.72978 0.35484 0.0
H726 H 0.28977 0.76558 0.3582 0.0
H727 H 0.27267 0.80771 0.37923 0.0
H728 H 0.18593 0.89691 0.39061 0.0
H729 H 0.21529 0.86016 0.39476 0.0
C730 C 0.81237 0.23563 0.3641 0.0
C731 C 0.81608 0.19501 0.37181 0.0
C732 C 0.79546 0.25576 0.36656 0.0
C733 C 0.76226 0.3021 0.381 0.0
H734 H 0.71829 0.23222 0.37618 0.0
C735 C 0.68907 0.37404 0.38715 0.0
C736 C 0.67636 0.35938 0.3746 0.0
C737 C 0.70624 0.35414 0.38864 0.0
C738 C 0.73045 0.25218 0.37753 0.0
H739 H 0.80495 0.1439 0.38831 0.0
H740 H 0.77535 0.17933 0.39267 0.0
H741 H 0.74819 0.19708 0.37547 0.0
H742 H 0.67189 0.313 0.3535 0.0
H743 H 0.70178 0.27906 0.35592 0.0
H744 H 0.7445 0.35742 0.38232 0.0
C745 C 0.78553 0.1953 0.38458 0.0
C746 C 0.74757 0.23198 0.37734 0.0
C747 C 0.80249 0.17506 0.38211 0.0
C748 C 0.68128 0.32498 0.3634 0.0
C749 C 0.69838 0.30522 0.36488 0.0
C750 C 0.74513 0.32233 0.38116 0.0
C751 C 0.78185 0.23586 0.37681 0.0
C752 C 0.76367 0.25681 0.37874 0.0
C753 C 0.71098 0.31925 0.37761 0.0
C754 C 0.72907 0.29764 0.37907 0.0
H755 H 0.8225 0.25198 0.35607 0.0
H756 H 0.79294 0.28661 0.36012 0.0
H757 H 0.77443 0.32203 0.38237 0.0
H758 H 0.68566 0.40036 0.39602 0.0
H759 H 0.71566 0.36553 0.39863 0.0
C760 C 0.68621 0.67253 0.88911 0.0
C761 C 0.67662 0.67023 0.87316 0.0
C762 C 0.70219 0.69758 0.89043 0.0
C763 C 0.72624 0.78779 0.86723 0.0
H764 H 0.76737 0.75504 0.89664 0.0
C765 C 0.79962 0.85271 0.85903 0.0
C766 C 0.80834 0.86918 0.87406 0.0
C767 C 0.78264 0.83217 0.86035 0.0
C768 C 0.75585 0.76475 0.88857 0.0
H769 H 0.67669 0.6899 0.84586 0.0
H770 H 0.70493 0.73149 0.84786 0.0
H771 H 0.74009 0.70881 0.89579 0.0
H772 H 0.80621 0.87747 0.90222 0.0
H773 H 0.7765 0.84004 0.90459 0.0
H774 H 0.74248 0.8425 0.85936 0.0
C775 C 0.69982 0.71579 0.85959 0.0
C776 C 0.74021 0.73838 0.88807 0.0
C777 C 0.68373 0.69151 0.85837 0.0
C778 C 0.79965 0.86537 0.89043 0.0
C779 C 0.7828 0.84379 0.89181 0.0
C780 C 0.74196 0.81363 0.8675 0.0
C781 C 0.709 0.72023 0.87574 0.0
C782 C 0.72531 0.7492 0.87716 0.0
C783 C 0.77425 0.82685 0.87676 0.0
C784 C 0.75696 0.80206 0.878 0.0
H785 H 0.68089 0.65673 0.90075 0.0
H786 H 0.7088 0.70041 0.9031 0.0
H787 H 0.71486 0.798 0.85909 0.0
H788 H 0.80606 0.85526 0.84626 0.0
H789 H 0.77633 0.81914 0.84859 0.0
C790 C 0.2976 0.3731 0.87487 0.0
C791 C 0.31327 0.34745 0.87207 0.0
C792 C 0.28027 0.35376 0.87588 0.0
C793 C 0.2568 0.25084 0.88523 0.0
H794 H 0.21809 0.297 0.85577 0.0
C795 C 0.18831 0.15958 0.87437 0.0
C796 C 0.17236 0.18464 0.87231 0.0
C797 C 0.2055 0.17971 0.87527 0.0
C798 C 0.22861 0.28407 0.86433 0.0
H799 H 0.32312 0.28133 0.86864 0.0
H800 H 0.29292 0.24773 0.8706 0.0
H801 H 0.24792 0.33254 0.85619 0.0
H802 H 0.16182 0.25048 0.87037 0.0
H803 H 0.19156 0.28547 0.87253 0.0
H804 H 0.2375 0.20273 0.8936 0.0
C805 C 0.29404 0.28273 0.87193 0.0
C806 C 0.24572 0.30443 0.86451 0.0
C807 C 0.3113 0.30206 0.87067 0.0
C808 C 0.17388 0.23018 0.87167 0.0
C809 C 0.19098 0.25028 0.87282 0.0
C810 C 0.23961 0.23074 0.88523 0.0
C811 C 0.27835 0.3084 0.87439 0.0
C812 C 0.26 0.28786 0.87487 0.0
C813 C 0.20705 0.22534 0.87438 0.0
C814 C 0.22531 0.24698 0.8747 0.0
H815 H 0.29867 0.40814 0.876 0.0
H816 H 0.26837 0.37423 0.87788 0.0
H817 H 0.26758 0.23765 0.89345 0.0
H818 H 0.18755 0.1244 0.87485 0.0
H819 H 0.21758 0.1594 0.87626 0.0
C820 C 0.68948 0.36243 0.61712 0.0
C821 C 0.67534 0.34395 0.62718 0.0
C822 C 0.70643 0.34146 0.61571 0.0
C823 C 0.7279 0.23359 0.61979 0.0
H824 H 0.77304 0.2989 0.62503 0.0
C825 C 0.79897 0.15158 0.62745 0.0
C826 C 0.81394 0.1723 0.61943 0.0
C827 C 0.78171 0.17147 0.62754 0.0
C828 C 0.76057 0.28025 0.62328 0.0
H829 H 0.66802 0.28911 0.64378 0.0
H830 H 0.69749 0.25299 0.64134 0.0
H831 H 0.74374 0.33662 0.62673 0.0
H832 H 0.82237 0.22887 0.60438 0.0
H833 H 0.79235 0.2628 0.6042 0.0
H834 H 0.74472 0.17721 0.61629 0.0
C835 C 0.69543 0.28337 0.63441 0.0
C836 C 0.7438 0.3019 0.62428 0.0
C837 C 0.67858 0.30435 0.63591 0.0
C838 C 0.81117 0.21232 0.61092 0.0
C839 C 0.79397 0.23195 0.61089 0.0
C840 C 0.74469 0.21193 0.61871 0.0
C841 C 0.70949 0.30154 0.62423 0.0
C842 C 0.7273 0.27878 0.62262 0.0
C843 C 0.77912 0.21224 0.61949 0.0
C844 C 0.76122 0.23501 0.62047 0.0
H845 H 0.68742 0.39282 0.61021 0.0
H846 H 0.71703 0.35608 0.60769 0.0
H847 H 0.71538 0.21503 0.61826 0.0
H848 H 0.80071 0.12077 0.63414 0.0
H849 H 0.77057 0.15556 0.63438 0.0
C850 C 0.18064 0.81567 0.63169 0.0
C851 C 0.17719 0.85493 0.62283 0.0
C852 C 0.19733 0.79424 0.62968 0.0
C853 C 0.24531 0.81211 0.617 0.0
H854 H 0.24632 0.6859 0.61608 0.0
C855 C 0.30102 0.66193 0.6111 0.0
C856 C 0.31436 0.67812 0.62271 0.0
C857 C 0.28427 0.68355 0.60908 0.0
C858 C 0.24629 0.72114 0.61607 0.0
H859 H 0.18862 0.90245 0.60485 0.0
H860 H 0.21783 0.86469 0.60122 0.0
H861 H 0.217 0.7238 0.61568 0.0
H862 H 0.32045 0.72938 0.64149 0.0
H863 H 0.29129 0.76621 0.63822 0.0
H864 H 0.27459 0.80947 0.61725 0.0
C865 C 0.20762 0.8508 0.60988 0.0
C866 C 0.22948 0.74286 0.61607 0.0
C867 C 0.19088 0.87241 0.61195 0.0
C868 C 0.31055 0.71606 0.63234 0.0
C869 C 0.29386 0.73749 0.63036 0.0
C870 C 0.26211 0.79039 0.61694 0.0
C871 C 0.21098 0.81138 0.61869 0.0
C872 C 0.2288 0.78856 0.61692 0.0
C873 C 0.28057 0.7217 0.61864 0.0
C874 C 0.26278 0.74466 0.61687 0.0
H875 H 0.17045 0.80131 0.64025 0.0
H876 H 0.19961 0.76446 0.63695 0.0
H877 H 0.24527 0.8473 0.61774 0.0
H878 H 0.30358 0.63291 0.60342 0.0
H879 H 0.27434 0.67072 0.59987 0.0
C880 C 0.10728 0.93539 0.30505 0.0
C881 C 0.12396 0.93242 0.31423 0.0
C882 C 0.10669 0.95427 0.28834 0.0
C883 C 0.13461 0.97973 0.2498 0.0
H884 H 0.10046 0.07445 0.24199 0.0
C885 C 0.13975 0.08548 0.18788 0.0
C886 C 0.12345 0.09975 0.17994 0.0
C887 C 0.13945 0.06617 0.20447 0.0
C888 C 0.1099 0.04765 0.2438 0.0
H889 H 0.15314 0.94542 0.3129 0.0
H890 H 0.15215 0.97723 0.28355 0.0
H891 H 0.10016 0.03549 0.26991 0.0
H892 H 0.09407 0.10567 0.18326 0.0
H893 H 0.09339 0.07072 0.21199 0.0
H894 H 0.14411 0.99074 0.2237 0.0
C895 C 0.13954 0.96536 0.28933 0.0
C896 C 0.10973 0.02541 0.25983 0.0
C897 C 0.14009 0.94725 0.30614 0.0
C898 C 0.10688 0.09536 0.18914 0.0
C899 C 0.10652 0.07535 0.20564 0.0
C900 C 0.1346 1.00146 0.2337 0.0
C901 C 0.12281 0.96972 0.28039 0.0
C902 C 0.12221 0.99154 0.26304 0.0
C903 C 0.12278 0.05983 0.21342 0.0
C904 C 0.1224 0.03611 0.23052 0.0
H905 H 0.09461 0.92453 0.31101 0.0
H906 H 0.09363 0.95702 0.28166 0.0
H907 H 0.14424 0.95341 0.25188 0.0
H908 H 0.15276 0.08876 0.18117 0.0
H909 H 0.15232 0.05588 0.21018 0.0
C910 C 0.84995 0.0983 0.30454 0.0
C911 C 0.86639 0.11078 0.31269 0.0
C912 C 0.85007 0.07979 0.28779 0.0
C913 C 0.88013 0.05965 0.24869 0.0
H914 H 0.84312 0.97255 0.2385 0.0
C915 C 0.88111 0.94601 0.18743 0.0
C916 C 0.8651 0.94842 0.1772 0.0
C917 C 0.88171 0.96515 0.20411 0.0
C918 C 0.85351 0.99685 0.24119 0.0
H919 H 0.89588 0.11392 0.30969 0.0
H920 H 0.89626 0.07995 0.28079 0.0
H921 H 0.84351 1.0078 0.26711 0.0
H922 H 0.83704 0.97162 0.17658 0.0
H923 H 0.83792 1.00361 0.20595 0.0
H924 H 0.89043 0.04702 0.22279 0.0
C925 C 0.88314 0.08564 0.287 0.0
C926 C 0.85367 0.01748 0.25754 0.0
C927 C 0.88296 0.10506 0.30363 0.0
C928 C 0.84958 0.9693 0.18415 0.0
C929 C 0.85005 0.9875 0.20095 0.0
C930 C 0.88017 0.0383 0.23245 0.0
C931 C 0.8667 0.07223 0.2789 0.0
C932 C 0.86684 0.04962 0.2615 0.0
C933 C 0.86618 0.98607 0.211 0.0
C934 C 0.86676 1.00704 0.22851 0.0
H935 H 0.83694 0.10263 0.31118 0.0
H936 H 0.83706 0.07123 0.28189 0.0
H937 H 0.89032 0.08458 0.25102 0.0
H938 H 0.89332 0.93042 0.18236 0.0
H939 H 0.89428 0.96352 0.21166 0.0
C940 C 0.86107 0.11104 0.68988 0.0
C941 C 0.86739 0.08336 0.67651 0.0
C942 C 0.86035 0.09658 0.70732 0.0
C943 C 0.86005 0.99466 0.73374 0.0
H944 H 0.87202 0.07179 0.77234 0.0
C945 C 0.87055 0.93272 0.8047 0.0
C946 C 0.86245 0.95717 0.81822 0.0
C947 C 0.87092 0.94862 0.78749 0.0
C948 C 0.86848 0.04996 0.7617 0.0
H949 H 0.8784 0.01912 0.6711 0.0
H950 H 0.87757 0.9945 0.70133 0.0
H951 H 0.87322 0.09902 0.74227 0.0
H952 H 0.84852 0.01782 0.82421 0.0
H953 H 0.84924 0.04542 0.79423 0.0
H954 H 0.85557 0.94547 0.75318 0.0
C955 C 0.87268 0.02695 0.69839 0.0
C956 C 0.86912 0.0656 0.74445 0.0
C957 C 0.87327 0.04125 0.68102 0.0
C958 C 0.85482 0.99799 0.81413 0.0
C959 C 0.85534 1.01401 0.79696 0.0
C960 C 0.85954 0.97899 0.75095 0.0
C961 C 0.86604 0.0542 0.71178 0.0
C962 C 0.86499 0.03808 0.73023 0.0
C963 C 0.86336 0.98949 0.78343 0.0
C964 C 0.8638 1.0064 0.76514 0.0
H965 H 0.85638 0.14363 0.68686 0.0
H966 H 0.85499 0.11835 0.71724 0.0
H967 H 0.85638 0.97272 0.72319 0.0
H968 H 0.87658 0.90121 0.80737 0.0
H969 H 0.87737 0.92912 0.77739 0.0
C970 C 0.10481 0.10041 0.80516 0.0
C971 C 0.12138 0.10341 0.81452 0.0
C972 C 0.10447 0.08239 0.78828 0.0
C973 C 0.13302 0.0596 0.74984 0.0
H974 H 0.09949 0.96416 0.74089 0.0
C975 C 0.14034 0.955 0.68784 0.0
C976 C 0.12437 0.94032 0.67942 0.0
C977 C 0.13943 0.97422 0.70442 0.0
C978 C 0.10876 0.99119 0.74302 0.0
H979 H 0.15064 0.09142 0.81333 0.0
H980 H 0.1501 0.06114 0.78372 0.0
H981 H 0.09848 1.00213 0.76903 0.0
H982 H 0.09492 0.93357 0.68188 0.0
H983 H 0.09319 0.96834 0.71063 0.0
H984 H 0.1431 0.0497 0.72386 0.0
C985 C 0.13737 0.0723 0.78948 0.0
C986 C 0.10818 1.01286 0.75917 0.0
C987 C 0.13766 0.08953 0.80644 0.0
C988 C 0.10749 0.94424 0.68813 0.0
C989 C 0.10653 0.96415 0.70464 0.0
C990 C 0.13343 0.03841 0.73363 0.0
C991 C 0.12075 0.06789 0.78034 0.0
C992 C 0.12046 0.04692 0.76281 0.0
C993 C 0.12247 0.98003 0.7129 0.0
C994 C 0.12149 1.00346 0.73005 0.0
H995 H 0.09202 0.11054 0.81111 0.0
H996 H 0.09149 0.07958 0.78146 0.0
H997 H 0.1425 0.08609 0.75224 0.0
H998 H 0.15358 0.95207 0.68152 0.0
H999 H 0.15208 0.98481 0.71052 0.0
C1000 C 0.63124 0.484 0.31485 0.0
C1001 C 0.62074 0.44785 0.32008 0.0
C1002 C 0.63023 0.49978 0.29769 0.0
C1003 C 0.61761 0.46811 0.25261 0.0
H1004 H 0.61816 0.59273 0.24455 0.0
C1005 C 0.63169 0.54207 0.18441 0.0
C1006 C 0.62144 0.57861 0.1792 0.0
C1007 C 0.63049 0.52606 0.20153 0.0
C1008 C 0.61782 0.55786 0.24656 0.0
H1009 H 0.60092 0.39995 0.31123 0.0
H1010 H 0.59914 0.42767 0.28123 0.0
H1011 H 0.61771 0.56487 0.2745 0.0
H1012 H 0.6018 0.62688 0.188 0.0
H1013 H 0.59966 0.59878 0.21791 0.0
H1014 H 0.61759 0.46111 0.22466 0.0
C1015 C 0.60827 0.44355 0.29043 0.0
C1016 C 0.61777 0.54186 0.26374 0.0
C1017 C 0.60924 0.42776 0.30766 0.0
C1018 C 0.60994 0.59878 0.19157 0.0
C1019 C 0.60877 0.58278 0.20874 0.0
C1020 C 0.6177 0.48411 0.23543 0.0
C1021 C 0.61872 0.47986 0.28527 0.0
C1022 C 0.61784 0.49679 0.26698 0.0
C1023 C 0.619 0.54615 0.21391 0.0
C1024 C 0.61799 0.52918 0.23219 0.0
H1025 H 0.64027 0.50035 0.32402 0.0
H1026 H 0.63869 0.52735 0.2941 0.0
H1027 H 0.61779 0.43324 0.25463 0.0
H1028 H 0.6407 0.52563 0.17527 0.0
H1029 H 0.63878 0.49823 0.20512 0.0
C1030 C 0.34884 0.57594 0.30821 0.0
C1031 C 0.36494 0.59165 0.31609 0.0
C1032 C 0.34934 0.55691 0.29158 0.0
C1033 C 0.37891 0.54235 0.25198 0.0
H1034 H 0.3457 0.44605 0.24335 0.0
C1035 C 0.38237 0.43319 0.18982 0.0
C1036 C 0.36569 0.42995 0.18066 0.0
C1037 C 0.38288 0.4512 0.2067 0.0
C1038 C 0.35503 0.47294 0.24558 0.0
H1039 H 0.39419 0.60026 0.31264 0.0
H1040 H 0.39525 0.56574 0.28384 0.0
H1041 H 0.34559 0.48195 0.27184 0.0
H1042 H 0.33642 0.4415 0.1822 0.0
H1043 H 0.33726 0.47172 0.21184 0.0
H1044 H 0.38859 0.53218 0.22572 0.0
C1045 C 0.3821 0.56905 0.29026 0.0
C1046 C 0.35489 0.49385 0.26187 0.0
C1047 C 0.38152 0.5888 0.30682 0.0
C1048 C 0.34947 0.44359 0.18893 0.0
C1049 C 0.34994 0.46078 0.2059 0.0
C1050 C 0.37924 0.52091 0.23577 0.0
C1051 C 0.36604 0.55229 0.2825 0.0
C1052 C 0.36665 0.52927 0.26524 0.0
C1053 C 0.36667 0.46543 0.21483 0.0
C1054 C 0.36716 0.48633 0.23237 0.0
H1055 H 0.33581 0.57802 0.31498 0.0
H1056 H 0.3366 0.54562 0.28589 0.0
H1057 H 0.388 0.56978 0.25393 0.0
H1058 H 0.39511 0.42323 0.18373 0.0
H1059 H 0.39594 0.45421 0.21336 0.0
C1060 C 0.38256 0.43076 0.80596 0.0
C1061 C 0.36577 0.4275 0.8149 0.0
C1062 C 0.38326 0.44871 0.78908 0.0
C1063 C 0.3558 0.47044 0.74986 0.0
H1064 H 0.3888 0.56739 0.74192 0.0
C1065 C 0.34976 0.57442 0.68753 0.0
C1066 C 0.36587 0.59024 0.67973 0.0
C1067 C 0.35025 0.5551 0.70411 0.0
C1068 C 0.37971 0.53993 0.74376 0.0
H1069 H 0.33651 0.43893 0.81298 0.0
H1070 H 0.3377 0.46904 0.78335 0.0
H1071 H 0.38921 0.52956 0.77009 0.0
H1072 H 0.39513 0.59874 0.68326 0.0
H1073 H 0.39615 0.56375 0.71198 0.0
H1074 H 0.34652 0.4797 0.72356 0.0
C1075 C 0.35031 0.45816 0.78945 0.0
C1076 C 0.37993 0.51835 0.75994 0.0
C1077 C 0.34964 0.44104 0.80642 0.0
C1078 C 0.38245 0.58721 0.68903 0.0
C1079 C 0.38301 0.56718 0.70553 0.0
C1080 C 0.35576 0.4915 0.73362 0.0
C1081 C 0.36715 0.46285 0.78073 0.0
C1082 C 0.36782 0.48375 0.7632 0.0
C1083 C 0.36694 0.5503 0.7132 0.0
C1084 C 0.36752 0.52699 0.73039 0.0
H1085 H 0.39522 0.42089 0.81223 0.0
H1086 H 0.3964 0.45175 0.78258 0.0
H1087 H 0.34646 0.44353 0.75199 0.0
H1088 H 0.33674 0.57663 0.68074 0.0
H1089 H 0.3375 0.54373 0.70973 0.0
C1090 C 0.62935 0.53943 0.81513 0.0
C1091 C 0.6195 0.57683 0.82006 0.0
C1092 C 0.6276 0.52206 0.79828 0.0
C1093 C 0.61463 0.55096 0.75314 0.0
H1094 H 0.61387 0.42579 0.74653 0.0
C1095 C 0.62983 0.4719 0.6864 0.0
C1096 C 0.61922 0.43603 0.68104 0.0
C1097 C 0.62823 0.48873 0.70333 0.0
C1098 C 0.61386 0.4608 0.74815 0.0
H1099 H 0.6 0.62519 0.81104 0.0
H1100 H 0.59697 0.59478 0.78153 0.0
H1101 H 0.61359 0.45591 0.77618 0.0
H1102 H 0.59861 0.38962 0.68946 0.0
H1103 H 0.59585 0.4191 0.71918 0.0
H1104 H 0.61491 0.55588 0.72513 0.0
C1105 C 0.60614 0.57911 0.79075 0.0
C1106 C 0.61391 0.47807 0.76513 0.0
C1107 C 0.60785 0.59647 0.80768 0.0
C1108 C 0.60703 0.41718 0.69315 0.0
C1109 C 0.60548 0.434 0.71019 0.0
C1110 C 0.61464 0.5337 0.73616 0.0
C1111 C 0.61597 0.54162 0.78588 0.0
C1112 C 0.61456 0.52335 0.76783 0.0
C1113 C 0.61599 0.47017 0.71542 0.0
C1114 C 0.61454 0.4884 0.73346 0.0
H1115 H 0.63845 0.52332 0.8243 0.0
H1116 H 0.6356 0.4936 0.7949 0.0
H1117 H 0.61523 0.58595 0.75474 0.0
H1118 H 0.63938 0.48734 0.67748 0.0
H1119 H 0.63677 0.51609 0.70701 0.0
C1120 C 0.11703 0.18157 0.93077 0.0
C1121 C 0.11502 0.14105 0.92239 0.0
C1122 C 0.11608 0.18471 0.94909 0.0
C1123 C 0.09938 0.12561 0.98832 0.0
H1124 H 0.1354 0.19458 0.01341 0.0
C1125 C 0.11278 0.1031 0.06206 0.0
C1126 C 0.11598 0.14015 0.07245 0.0
C1127 C 0.11155 0.10649 0.04384 0.0
C1128 C 0.12507 0.17569 0.0066 0.0
H1129 H 0.11037 0.07212 0.92676 0.0
H1130 H 0.10886 0.07761 0.95852 0.0
H1131 H 0.1352 0.19477 0.98136 0.0
H1132 H 0.12031 0.20999 0.07174 0.0
H1133 H 0.11808 0.21587 0.03982 0.0
H1134 H 0.0894 0.10602 0.0135 0.0
C1135 C 0.11094 0.10706 0.95098 0.0
C1136 C 0.12496 0.1758 0.98823 0.0
C1137 C 0.11193 0.10389 0.93273 0.0
C1138 C 0.11785 0.18077 0.06414 0.0
C1139 C 0.11667 0.18414 0.04584 0.0
C1140 C 0.09949 0.1255 0.00665 0.0
C1141 C 0.11302 0.14746 0.9594 0.0
C1142 C 0.1123 0.15018 0.97888 0.0
C1143 C 0.11349 0.147 0.03548 0.0
C1144 C 0.11253 0.14996 0.01602 0.0
H1145 H 0.11942 0.21086 0.92321 0.0
H1146 H 0.1176 0.21637 0.95517 0.0
H1147 H 0.0892 0.10622 0.98153 0.0
H1148 H 0.11132 0.07125 0.06798 0.0
H1149 H 0.10939 0.07713 0.03625 0.0
C1150 C 0.87677 0.90299 0.93529 0.0
C1151 C 0.86781 0.87453 0.92367 0.0
C1152 C 0.87829 0.89295 0.95306 0.0
C1153 C 0.8562 0.83295 0.98846 0.0
H1154 H 0.90109 0.86179 0.01318 0.0
C1155 C 0.86263 0.82996 0.06488 0.0
C1156 C 0.87011 0.86859 0.07175 0.0
C1157 C 0.86349 0.82137 0.0468 0.0
C1158 C 0.88847 0.85345 0.00647 0.0
H1159 H 0.85351 0.81286 0.92164 0.0
H1160 H 0.856 0.79547 0.95303 0.0
H1161 H 0.90051 0.86334 0.98121 0.0
H1162 H 0.88483 0.92772 0.06509 0.0
H1163 H 0.88641 0.9127 0.03391 0.0
H1164 H 0.844 0.82471 0.01387 0.0
C1165 C 0.86188 0.82554 0.94821 0.0
C1166 C 0.88814 0.85434 0.98817 0.0
C1167 C 0.86053 0.8354 0.93026 0.0
C1168 C 0.87886 0.89772 0.06028 0.0
C1169 C 0.87991 0.88894 0.04237 0.0
C1170 C 0.85653 0.83207 0.00686 0.0
C1171 C 0.8708 0.85428 0.95979 0.0
C1172 C 0.87184 0.84562 0.97896 0.0
C1173 C 0.87214 0.85089 0.03536 0.0
C1174 C 0.87251 0.84385 0.01605 0.0
H1175 H 0.88258 0.93336 0.93069 0.0
H1176 H 0.88499 0.91613 0.96165 0.0
H1177 H 0.84343 0.8262 0.98173 0.0
H1178 H 0.85575 0.80695 0.07339 0.0
H1179 H 0.85741 0.79174 0.04176 0.0
C1180 C 0.12138 0.85158 0.43025 0.0
C1181 C 0.11877 0.89183 0.42182 0.0
C1182 C 0.12186 0.84908 0.44861 0.0
C1183 C 0.13095 0.91768 0.48737 0.0
H1184 H 0.10546 0.82804 0.51358 0.0
C1185 C 0.11924 0.93331 0.56133 0.0
C1186 C 0.12173 0.89635 0.57193 0.0
C1187 C 0.11918 0.92977 0.54309 0.0
C1188 C 0.11285 0.85294 0.50642 0.0
H1189 H 0.11411 0.9608 0.42615 0.0
H1190 H 0.11483 0.95632 0.45793 0.0
H1191 H 0.10472 0.82701 0.48145 0.0
H1192 H 0.12581 0.82642 0.57157 0.0
H1193 H 0.12578 0.82033 0.53955 0.0
H1194 H 0.13902 0.94383 0.51218 0.0
C1195 C 0.11681 0.92678 0.45041 0.0
C1196 C 0.11241 0.85236 0.48804 0.0
C1197 C 0.11628 0.92927 0.43215 0.0
C1198 C 0.12387 0.85556 0.5638 0.0
C1199 C 0.12378 0.85202 0.54546 0.0
C1200 C 0.1314 0.91823 0.50566 0.0
C1201 C 0.11984 0.88682 0.45887 0.0
C1202 C 0.1212 0.88521 0.47833 0.0
C1203 C 0.12162 0.88921 0.53491 0.0
C1204 C 0.12209 0.88636 0.51543 0.0
H1205 H 0.12333 0.8221 0.42269 0.0
H1206 H 0.12428 0.81784 0.45476 0.0
H1207 H 0.13823 0.94287 0.48028 0.0
H1208 H 0.11742 0.96523 0.56709 0.0
H1209 H 0.11711 0.95895 0.53537 0.0
C1210 C 0.87836 0.19029 0.56257 0.0
C1211 C 0.87184 0.15065 0.56938 0.0
C1212 C 0.88041 0.19581 0.54438 0.0
C1213 C 0.88864 0.13402 0.50434 0.0
H1214 H 0.86257 0.22411 0.47894 0.0
C1215 C 0.8747 0.11808 0.4308 0.0
C1216 C 0.87475 0.15523 0.42006 0.0
C1217 C 0.8762 0.12187 0.44899 0.0
C1218 C 0.87025 0.19926 0.48582 0.0
H1219 H 0.86261 0.08567 0.56247 0.0
H1220 H 0.86657 0.09508 0.53105 0.0
H1221 H 0.86228 0.22393 0.51109 0.0
H1222 H 0.8765 0.22569 0.4201 0.0
H1223 H 0.87948 0.23227 0.45197 0.0
H1224 H 0.89667 0.10909 0.47935 0.0
C1225 C 0.86994 0.12195 0.53968 0.0
C1226 C 0.87004 0.19918 0.50422 0.0
C1227 C 0.86756 0.11672 0.5577 0.0
C1228 C 0.87638 0.19639 0.42799 0.0
C1229 C 0.87801 0.20018 0.44627 0.0
C1230 C 0.88905 0.13437 0.48603 0.0
C1231 C 0.87639 0.16143 0.53282 0.0
C1232 C 0.8788 0.16581 0.5136 0.0
C1233 C 0.87797 0.16289 0.457 0.0
C1234 C 0.87938 0.16615 0.47649 0.0
H1235 H 0.88173 0.21703 0.57126 0.0
H1236 H 0.88541 0.22658 0.53937 0.0
H1237 H 0.89571 0.10825 0.51129 0.0
H1238 H 0.87328 0.08586 0.42521 0.0
H1239 H 0.87564 0.09245 0.45678 0.0
C1240 C 0.62514 0.70057 0.06716 0.0
C1241 C 0.62558 0.65731 0.07321 0.0
C1242 C 0.6268 0.70966 0.04916 0.0
C1243 C 0.6451 0.66208 0.00855 0.0
H1244 H 0.60747 0.72571 0.98336 0.0
C1245 C 0.62753 0.62379 0.9379 0.0
C1246 C 0.62519 0.65755 0.92567 0.0
C1247 C 0.62954 0.63283 0.95569 0.0
C1248 C 0.61829 0.7087 0.99025 0.0
H1249 H 0.62824 0.58984 0.06508 0.0
H1250 H 0.63128 0.60569 0.03411 0.0
H1251 H 0.60753 0.72561 0.01561 0.0
H1252 H 0.62292 0.72751 0.92263 0.0
H1253 H 0.62611 0.74333 0.95418 0.0
H1254 H 0.6554 0.64344 0.9834 0.0
C1255 C 0.62968 0.63261 0.04316 0.0
C1256 C 0.61833 0.70864 0.00867 0.0
C1257 C 0.62778 0.62355 0.06095 0.0
C1258 C 0.62474 0.7008 0.93174 0.0
C1259 C 0.62652 0.70986 0.94974 0.0
C1260 C 0.64507 0.66216 0.99027 0.0
C1261 C 0.62929 0.67566 0.03704 0.0
C1262 C 0.6313 0.6838 0.01795 0.0
C1263 C 0.62914 0.67586 0.96183 0.0
C1264 C 0.63124 0.68394 0.98093 0.0
H1265 H 0.62343 0.72729 0.07628 0.0
H1266 H 0.62641 0.74314 0.04474 0.0
H1267 H 0.65545 0.64331 0.01538 0.0
H1268 H 0.62801 0.59009 0.93376 0.0
H1269 H 0.63123 0.60589 0.96472 0.0
C1270 C 0.37357 0.427 0.93315 0.0
C1271 C 0.37036 0.38987 0.92282 0.0
C1272 C 0.37468 0.4238 0.95139 0.0
C1273 C 0.36087 0.35531 0.98873 0.0
H1274 H 0.39701 0.42432 0.01366 0.0
C1275 C 0.36895 0.35032 0.06457 0.0
C1276 C 0.37109 0.39093 0.07285 0.0
C1277 C 0.36985 0.34689 0.04626 0.0
C1278 C 0.38675 0.40506 0.00691 0.0
H1279 H 0.36581 0.32012 0.92363 0.0
H1280 H 0.36781 0.31457 0.95558 0.0
H1281 H 0.39682 0.4241 0.9817 0.0
H1282 H 0.37592 0.45973 0.0683 0.0
H1283 H 0.37736 0.45374 0.03656 0.0
H1284 H 0.35066 0.33678 0.01401 0.0
C1285 C 0.36935 0.34621 0.9495 0.0
C1286 C 0.38665 0.40494 0.98859 0.0
C1287 C 0.3683 0.34938 0.93119 0.0
C1288 C 0.37426 0.42789 0.06241 0.0
C1289 C 0.37521 0.42444 0.04418 0.0
C1290 C 0.36098 0.35544 0.0071 0.0
C1291 C 0.37258 0.38342 0.9598 0.0
C1292 C 0.37352 0.38066 0.97927 0.0
C1293 C 0.37301 0.38394 0.03586 0.0
C1294 C 0.37373 0.38092 0.01639 0.0
H1295 H 0.37518 0.45876 0.92719 0.0
H1296 H 0.37688 0.45322 0.95894 0.0
H1297 H 0.35048 0.33656 0.98195 0.0
H1298 H 0.36651 0.32118 0.0722 0.0
H1299 H 0.36824 0.31517 0.04026 0.0
C1300 C 0.62368 0.32779 0.43243 0.0
C1301 C 0.62379 0.37108 0.42639 0.0
C1302 C 0.6252 0.31874 0.45045 0.0
C1303 C 0.64254 0.36736 0.4913 0.0
H1304 H 0.60625 0.29841 0.51599 0.0
C1305 C 0.62556 0.39867 0.56269 0.0
C1306 C 0.62372 0.36376 0.57447 0.0
C1307 C 0.62735 0.39131 0.54476 0.0
C1308 C 0.6167 0.31699 0.50924 0.0
H1309 H 0.6256 0.43866 0.4346 0.0
H1310 H 0.62837 0.42288 0.46561 0.0
H1311 H 0.60619 0.30017 0.48375 0.0
H1312 H 0.6221 0.29347 0.57651 0.0
H1313 H 0.62498 0.28059 0.54474 0.0
H1314 H 0.65265 0.38563 0.51659 0.0
C1315 C 0.62717 0.3959 0.45653 0.0
C1316 C 0.61667 0.31801 0.49082 0.0
C1317 C 0.62544 0.40492 0.4387 0.0
C1318 C 0.62353 0.32106 0.56778 0.0
C1319 C 0.62512 0.31367 0.54963 0.0
C1320 C 0.64259 0.36631 0.50959 0.0
C1321 C 0.62718 0.35281 0.46263 0.0
C1322 C 0.62916 0.3446 0.48173 0.0
C1323 C 0.62727 0.34884 0.538 0.0
C1324 C 0.62924 0.34252 0.51877 0.0
H1325 H 0.62239 0.30099 0.42328 0.0
H1326 H 0.62513 0.28522 0.45483 0.0
H1327 H 0.65257 0.38745 0.48463 0.0
H1328 H 0.6258 0.43202 0.56728 0.0
H1329 H 0.62865 0.41912 0.53611 0.0
C1330 C 0.36902 0.68207 0.56489 0.0
C1331 C 0.37222 0.64136 0.57275 0.0
C1332 C 0.3702 0.68693 0.54663 0.0
C1333 C 0.38961 0.63441 0.50703 0.0
H1334 H 0.3509 0.69465 0.482 0.0
C1335 C 0.37619 0.60604 0.43383 0.0
C1336 C 0.37152 0.6416 0.42313 0.0
C1337 C 0.37762 0.61086 0.45198 0.0
C1338 C 0.36198 0.67833 0.48881 0.0
H1339 H 0.37934 0.57399 0.56756 0.0
H1340 H 0.38132 0.58245 0.53596 0.0
H1341 H 0.35107 0.69463 0.51409 0.0
H1342 H 0.36473 0.71033 0.4232 0.0
H1343 H 0.36722 0.71871 0.45506 0.0
H1344 H 0.40033 0.61734 0.48185 0.0
C1345 C 0.37808 0.61075 0.54384 0.0
C1346 C 0.36207 0.67832 0.50718 0.0
C1347 C 0.37681 0.60585 0.56199 0.0
C1348 C 0.36836 0.68226 0.43106 0.0
C1349 C 0.3697 0.68704 0.44931 0.0
C1350 C 0.38951 0.63442 0.48872 0.0
C1351 C 0.37476 0.65127 0.53591 0.0
C1352 C 0.37567 0.6555 0.51649 0.0
C1353 C 0.37437 0.65135 0.45996 0.0
C1354 C 0.37547 0.65552 0.47938 0.0
H1355 H 0.36545 0.7101 0.57279 0.0
H1356 H 0.36767 0.71863 0.54092 0.0
H1357 H 0.4005 0.61732 0.51381 0.0
H1358 H 0.3787 0.57421 0.42822 0.0
H1359 H 0.38093 0.58253 0.45981 0.0
C1360 C 0.93438 0.91913 0.12846 0.0
C1361 C 0.91996 0.94946 0.12807 0.0
C1362 C 0.95256 0.93308 0.12943 0.0
C1363 C 0.98115 0.02812 0.14118 0.0
H1364 H 0.01776 0.97033 0.11257 0.0
C1365 C 0.05231 0.10144 0.12814 0.0
C1366 C 0.06754 0.07352 0.12897 0.0
C1367 C 0.03455 0.08481 0.12896 0.0
C1368 C 0.00773 0.9864 0.1208 0.0
H1369 H 0.91336 0.01829 0.12842 0.0
H1370 H 0.9451 0.04263 0.12981 0.0
H1371 H 0.98615 0.94448 0.11212 0.0
H1372 H 0.07605 1.00609 0.1313 0.0
H1373 H 0.04488 0.977 0.13265 0.0
H1374 H 0.00271 0.07055 0.14958 0.0
C1375 C 0.94233 1.00802 0.12966 0.0
C1376 C 0.98963 0.97162 0.12056 0.0
C1377 C 0.92413 0.99406 0.12876 0.0
C1378 C 0.06461 0.02849 0.13062 0.0
C1379 C 0.04679 1.0118 0.13132 0.0
C1380 C -0.00077 0.04301 0.14135 0.0
C1381 C 0.95675 0.97767 0.12998 0.0
C1382 C 0.9761 0.99252 0.13065 0.0
C1383 C 0.0316 0.03985 0.13053 0.0
C1384 C 0.01266 0.02253 0.13105 0.0
H1385 H 0.93167 0.88449 0.12807 0.0
H1386 H 0.96333 0.90886 0.12992 0.0
H1387 H 0.97115 0.04441 0.14936 0.0
H1388 H 0.05404 0.13631 0.12688 0.0
H1389 H 0.02311 0.10715 0.12809 0.0
C1390 C 0.93753 0.11678 0.36357 0.0
C1391 C 0.9225 0.08815 0.36358 0.0
C1392 C 0.95539 0.10079 0.36322 0.0
C1393 C 0.98261 1.00321 0.35264 0.0
H1394 H 0.0191 0.05911 0.3821 0.0
C1395 C 0.05372 0.92915 0.36603 0.0
C1396 C 0.06887 0.95739 0.36532 0.0
C1397 C 0.03592 0.9455 0.36522 0.0
C1398 C 0.0091 0.04352 0.37366 0.0
H1399 H 0.91443 0.02019 0.36311 0.0
H1400 H 0.94572 0.99218 0.36281 0.0
H1401 H 0.98771 0.08622 0.38201 0.0
H1402 H 0.07722 0.02499 0.36317 0.0
H1403 H 0.04601 0.05354 0.36183 0.0
H1404 H 0.00403 0.9601 0.34453 0.0
C1405 C 0.94363 0.02707 0.36281 0.0
C1406 C 0.99113 0.05901 0.37359 0.0
C1407 C 0.92572 0.0431 0.36307 0.0
C1408 C 0.06584 1.00237 0.36377 0.0
C1409 C 0.048 0.01875 0.36307 0.0
C1410 C 0.00057 0.98758 0.35279 0.0
C1411 C 0.95865 0.05578 0.36297 0.0
C1412 C 0.9777 0.03905 0.36307 0.0
C1413 C 0.03289 0.99043 0.36379 0.0
C1414 C 0.01397 1.00759 0.36331 0.0
H1415 H 0.93556 0.15171 0.36378 0.0
H1416 H 0.96665 0.12377 0.36301 0.0
H1417 H 0.97265 0.98756 0.3442 0.0
H1418 H 0.05554 0.8943 0.36719 0.0
H1419 H 0.02452 0.92299 0.36601 0.0
C1420 C 0.05052 0.10368 0.86734 0.0
C1421 C 0.06568 0.07558 0.86619 0.0
C1422 C 0.03271 0.08733 0.86656 0.0
C1423 C 0.0056 0.98893 0.87403 0.0
H1424 H 0.96904 0.04932 0.84621 0.0
C1425 C 0.93171 0.92429 0.86636 0.0
C1426 C 0.91749 0.95512 0.86711 0.0
C1427 C 0.94998 0.93763 0.86536 0.0
C1428 C 0.97904 0.03234 0.85418 0.0
H1429 H 0.07397 1.00813 0.86335 0.0
H1430 H 0.04271 0.97955 0.86205 0.0
H1431 H 0.0007 0.07471 0.84604 0.0
H1432 H 0.91136 0.02422 0.86741 0.0
H1433 H 0.94324 0.04743 0.86596 0.0
H1434 H 0.98389 0.94704 0.88245 0.0
C1435 C 0.04472 1.01426 0.8636 0.0
C1436 C -0.00283 0.04682 0.85404 0.0
C1437 C 0.0626 0.03066 0.86428 0.0
C1438 C 0.92196 0.99959 0.86677 0.0
C1439 C 0.94024 1.01292 0.86584 0.0
C1440 C 0.98743 0.97455 0.87424 0.0
C1441 C 0.02961 0.04249 0.86468 0.0
C1442 C 0.0106 0.02552 0.86409 0.0
C1443 C 0.95446 0.98209 0.86515 0.0
C1444 C 0.97391 0.99633 0.86443 0.0
H1445 H 0.05235 0.13846 0.86882 0.0
H1446 H 0.02134 0.10981 0.86767 0.0
H1447 H 0.01562 0.97219 0.88206 0.0
H1448 H 0.92876 0.88975 0.86649 0.0
H1449 H 0.96058 0.91305 0.86459 0.0
C1450 C 0.93605 0.10742 0.63182 0.0
C1451 C 0.92245 0.081 0.62423 0.0
C1452 C 0.95438 0.09455 0.63164 0.0
C1453 C 0.98653 0.02092 0.60892 0.0
H1454 H 0.0167 0.03937 0.6502 0.0
C1455 C 0.05652 0.93865 0.61844 0.0
C1456 C 0.07096 0.96414 0.62507 0.0
C1457 C 0.03871 0.95498 0.61788 0.0
C1458 C 0.0085 0.03452 0.63851 0.0
H1459 H 0.91742 0.0201 0.61063 0.0
H1460 H 0.9494 0.99726 0.61061 0.0
H1461 H 0.98479 0.06307 0.65031 0.0
H1462 H 0.07802 0.0269 0.63626 0.0
H1463 H 0.04674 0.05538 0.63534 0.0
H1464 H 0.01018 0.99166 0.59725 0.0
C1465 C 0.94591 0.02834 0.61641 0.0
C1466 C 0.99023 0.04807 0.63856 0.0
C1467 C 0.92757 0.04132 0.61652 0.0
C1468 C 0.06719 1.00644 0.63108 0.0
C1469 C 0.0493 0.02268 0.63063 0.0
C1470 C 0.00475 1.00719 0.60891 0.0
C1471 C 0.95952 0.05487 0.62394 0.0
C1472 C 0.97902 0.04119 0.62379 0.0
C1473 C 0.03491 0.99706 0.62401 0.0
C1474 C 0.01587 1.01361 0.62374 0.0
H1475 H 0.93261 0.13835 0.63778 0.0
H1476 H 0.96456 0.11601 0.63733 0.0
H1477 H 0.97836 0.0159 0.59722 0.0
H1478 H 0.05892 0.90595 0.61366 0.0
H1479 H 0.02785 0.93432 0.6129 0.0
C1480 C 0.42425 0.50128 0.12879 0.0
C1481 C 0.42098 0.4563 0.12756 0.0
C1482 C 0.44218 0.51744 0.12846 0.0
C1483 C 0.48924 0.48678 0.11515 0.0
H1484 H 0.50385 0.58032 0.14632 0.0
C1485 C 0.56485 0.53294 0.12662 0.0
C1486 C 0.56911 0.57753 0.12654 0.0
C1487 C 0.5466 0.51915 0.12654 0.0
C1488 C 0.49991 0.55446 0.13743 0.0
H1489 H 0.43403 0.39301 0.12534 0.0
H1490 H 0.4651 0.42106 0.12508 0.0
H1491 H 0.47215 0.55477 0.14652 0.0
H1492 H 0.55753 0.64263 0.12646 0.0
H1493 H 0.52572 0.61842 0.12634 0.0
H1494 H 0.51704 0.48608 0.10624 0.0
C1495 C 0.45386 0.44398 0.12591 0.0
C1496 C 0.48176 0.5399 0.13751 0.0
C1497 C 0.436 0.42788 0.12616 0.0
C1498 C 0.55474 0.60801 0.1265 0.0
C1499 C 0.5365 0.59421 0.12653 0.0
C1500 C 0.50738 0.50117 0.11514 0.0
C1501 C 0.45717 0.48893 0.12694 0.0
C1502 C 0.47625 0.50568 0.12645 0.0
C1503 C 0.53226 0.54965 0.1265 0.0
C1504 C 0.51292 0.53498 0.12634 0.0
H1505 H 0.41298 0.52406 0.12983 0.0
H1506 H 0.44427 0.55229 0.12911 0.0
H1507 H 0.48537 0.46095 0.10621 0.0
H1508 H 0.57558 0.5086 0.12667 0.0
H1509 H 0.54371 0.48458 0.1267 0.0
C1510 C 0.4349 0.60017 0.36855 0.0
C1511 C 0.41992 0.57143 0.36811 0.0
C1512 C 0.45277 0.5843 0.36892 0.0
C1513 C 0.48071 0.48731 0.35951 0.0
H1514 H 0.51583 0.54508 0.38987 0.0
C1515 C 0.55338 0.42042 0.37269 0.0
C1516 C 0.5678 0.45075 0.37211 0.0
C1517 C 0.53519 0.43435 0.37216 0.0
C1518 C 0.50621 0.52889 0.38122 0.0
H1519 H 0.41196 0.50339 0.36753 0.0
H1520 H 0.4433 0.47561 0.36843 0.0
H1521 H 0.48418 0.5702 0.38913 0.0
H1522 H 0.57444 0.5195 0.37052 0.0
H1523 H 0.54263 0.54374 0.36962 0.0
H1524 H 0.50282 0.44579 0.35172 0.0
C1525 C 0.44116 0.51047 0.36827 0.0
C1526 C 0.4881 0.54326 0.38078 0.0
C1527 C 0.42322 0.52638 0.36783 0.0
C1528 C 0.56365 0.4953 0.37101 0.0
C1529 C 0.54545 0.50922 0.37059 0.0
C1530 C 0.49884 0.47279 0.36002 0.0
C1531 C 0.45611 0.53932 0.36895 0.0
C1532 C 0.47518 0.52287 0.36981 0.0
C1533 C 0.53106 0.47886 0.37115 0.0
C1534 C 0.51177 0.49366 0.37079 0.0
H1535 H 0.43288 0.63508 0.3686 0.0
H1536 H 0.464 0.60738 0.36906 0.0
H1537 H 0.47113 0.47127 0.35077 0.0
H1538 H 0.55609 0.38584 0.37351 0.0
H1539 H 0.52435 0.41029 0.37279 0.0
C1540 C 0.4237 0.49928 0.8676 0.0
C1541 C 0.42043 0.45428 0.86869 0.0
C1542 C 0.44161 0.51549 0.86826 0.0
C1543 C 0.48848 0.48484 0.8823 0.0
H1544 H 0.5035 0.57921 0.85175 0.0
C1545 C 0.56423 0.53222 0.87235 0.0
C1546 C 0.56839 0.57687 0.87252 0.0
C1547 C 0.54602 0.51818 0.87215 0.0
C1548 C 0.49944 0.55311 0.86047 0.0
H1549 H 0.43348 0.39101 0.87098 0.0
H1550 H 0.46454 0.41916 0.87179 0.0
H1551 H 0.47186 0.55333 0.85086 0.0
H1552 H 0.55665 0.6418 0.87253 0.0
H1553 H 0.5249 0.61717 0.87217 0.0
H1554 H 0.51612 0.48425 0.89173 0.0
C1555 C 0.4533 0.44205 0.87083 0.0
C1556 C 0.48132 0.53836 0.86 0.0
C1557 C 0.43545 0.42589 0.87026 0.0
C1558 C 0.55394 0.60715 0.87242 0.0
C1559 C 0.53574 0.5931 0.87211 0.0
C1560 C 0.50659 0.49943 0.8827 0.0
C1561 C 0.4566 0.48703 0.86996 0.0
C1562 C 0.47567 0.50386 0.87083 0.0
C1563 C 0.53159 0.54849 0.872 0.0
C1564 C 0.51228 0.53356 0.87174 0.0
H1565 H 0.41243 0.52204 0.86644 0.0
H1566 H 0.44368 0.55036 0.86772 0.0
H1567 H 0.48449 0.45879 0.89107 0.0
H1568 H 0.57502 0.50802 0.87239 0.0
H1569 H 0.54322 0.48357 0.87188 0.0
C1570 C 0.42381 0.5246 0.62868 0.0
C1571 C 0.42068 0.56969 0.62813 0.0
C1572 C 0.4417 0.50831 0.62869 0.0
C1573 C 0.4892 0.53967 0.61742 0.0
H1574 H 0.50241 0.44209 0.64709 0.0
C1575 C 0.56416 0.48793 0.6291 0.0
C1576 C 0.56787 0.44313 0.62813 0.0
C1577 C 0.54609 0.50293 0.62911 0.0
C1578 C 0.49886 0.46913 0.63863 0.0
H1579 H 0.43389 0.63305 0.62755 0.0
H1580 H 0.46491 0.60471 0.62789 0.0
H1581 H 0.4709 0.46877 0.64709 0.0
H1582 H 0.5555 0.37893 0.62654 0.0
H1583 H 0.52402 0.40524 0.62655 0.0
H1584 H 0.51721 0.54029 0.60912 0.0
C1585 C 0.45361 0.58186 0.62791 0.0
C1586 C 0.48083 0.48433 0.63859 0.0
C1587 C 0.43578 0.5981 0.62781 0.0
C1588 C 0.55314 0.41367 0.62728 0.0
C1589 C 0.53509 0.42867 0.6274 0.0
C1590 C 0.50724 0.52462 0.61753 0.0
C1591 C 0.45679 0.53681 0.62823 0.0
C1592 C 0.47582 0.51988 0.62803 0.0
C1593 C 0.53139 0.47342 0.62826 0.0
C1594 C 0.51225 0.48928 0.62816 0.0
H1595 H 0.41247 0.50184 0.62888 0.0
H1596 H 0.44371 0.4734 0.62877 0.0
H1597 H 0.48571 0.56659 0.60888 0.0
H1598 H 0.57518 0.51149 0.62979 0.0
H1599 H 0.54361 0.53761 0.62996 0.0
C1600 C 0.14325 0.78406 0.1152 0.0
C1601 C 0.12825 0.81217 0.11784 0.0
C1602 C 0.141 0.7388 0.11573 0.0
C1603 C 0.10999 0.65313 0.13282 0.0
H1604 H 0.13579 0.57859 0.10006 0.0
C1605 C 0.09548 0.46847 0.12901 0.0
C1606 C 0.11043 0.44012 0.1267 0.0
C1607 C 0.09766 0.51354 0.1274 0.0
C1608 C 0.12864 0.59884 0.10945 0.0
H1609 H 0.09897 0.81399 0.12273 0.0
H1610 H 0.09508 0.73521 0.12376 0.0
H1611 H 0.13944 0.6574 0.09819 0.0
H1612 H 0.13946 0.43746 0.12072 0.0
H1613 H 0.14329 0.51612 0.11794 0.0
H1614 H 0.09928 0.59473 0.14417 0.0
C1615 C 0.10867 0.74827 0.1215 0.0
C1616 C 0.13072 0.64413 0.10836 0.0
C1617 C 0.1109 0.79356 0.12091 0.0
C1618 C 0.12759 0.45818 0.12242 0.0
C1619 C 0.12978 0.50338 0.12082 0.0
C1620 C 0.10793 0.6079 0.13393 0.0
C1621 C 0.1237 0.72024 0.11899 0.0
C1622 C 0.1214 0.67193 0.12002 0.0
C1623 C 0.11486 0.53174 0.12344 0.0
C1624 C 0.1172 0.58006 0.12224 0.0
H1625 H 0.15689 0.79698 0.11314 0.0
H1626 H 0.15294 0.71834 0.114 0.0
H1627 H 0.10286 0.67337 0.14223 0.0
H1628 H 0.08197 0.45581 0.13194 0.0
H1629 H 0.08575 0.53414 0.12914 0.0
C1630 C 0.86846 0.23664 0.13098 0.0
C1631 C 0.85496 0.21858 0.11995 0.0
C1632 C 0.87003 0.28189 0.13296 0.0
C1633 C 0.85767 0.38593 0.11101 0.0
H1634 H 0.86885 0.4369 0.15629 0.0
C1635 C 0.85572 0.57253 0.12275 0.0
C1636 C 0.86934 0.5907 0.1336 0.0
C1637 C 0.85383 0.52726 0.1212 0.0
C1638 C 0.86593 0.42324 0.14349 0.0
H1639 H 0.83209 0.23444 0.10289 0.0
H1640 H 0.83485 0.3129 0.10632 0.0
H1641 H 0.86588 0.35814 0.15357 0.0
H1642 H 0.89194 0.57493 0.15099 0.0
H1643 H 0.88865 0.4964 0.1483 0.0
H1644 H 0.85776 0.45096 0.1009 0.0
C1645 C 0.84449 0.29219 0.11317 0.0
C1646 C 0.86422 0.37796 0.14193 0.0
C1647 C 0.84291 0.24705 0.11121 0.0
C1648 C 0.88106 0.56228 0.14278 0.0
C1649 C 0.87917 0.51709 0.14123 0.0
C1650 C 0.85939 0.43119 0.11255 0.0
C1651 C 0.85815 0.31032 0.12396 0.0
C1652 C 0.86005 0.35864 0.12567 0.0
C1653 C 0.86551 0.49887 0.13045 0.0
C1654 C 0.86354 0.45054 0.12882 0.0
H1655 H 0.87812 0.21586 0.13777 0.0
H1656 H 0.88085 0.2946 0.14124 0.0
H1657 H 0.85476 0.37228 0.0982 0.0
H1658 H 0.84629 0.59328 0.11565 0.0
H1659 H 0.84298 0.51453 0.11295 0.0
C1660 C 0.14442 0.24748 0.38023 0.0
C1661 C 0.12962 0.21943 0.37658 0.0
C1662 C 0.14221 0.29274 0.37969 0.0
C1663 C 0.11251 0.37856 0.36082 0.0
H1664 H 0.13587 0.45267 0.39543 0.0
C1665 C 0.09771 0.56301 0.36407 0.0
C1666 C 0.11244 0.59137 0.36748 0.0
C1667 C 0.09979 0.51794 0.36571 0.0
C1668 C 0.12942 0.43254 0.38553 0.0
H1669 H 0.10072 0.21767 0.36986 0.0
H1670 H 0.09693 0.29646 0.3688 0.0
H1671 H 0.13938 0.37383 0.39736 0.0
H1672 H 0.14096 0.59411 0.37544 0.0
H1673 H 0.14462 0.51541 0.37826 0.0
H1674 H 0.10266 0.43709 0.3489 0.0
C1675 C 0.11033 0.28335 0.37188 0.0
C1676 C 0.13142 0.38725 0.38665 0.0
C1677 C 0.11252 0.23807 0.37248 0.0
C1678 C 0.12926 0.57335 0.37287 0.0
C1679 C 0.13135 0.52814 0.37449 0.0
C1680 C 0.11055 0.42379 0.35968 0.0
C1681 C 0.12517 0.31133 0.37539 0.0
C1682 C 0.12297 0.35962 0.37432 0.0
C1683 C 0.11667 0.49977 0.3708 0.0
C1684 C 0.11893 0.45147 0.37203 0.0
H1685 H 0.15789 0.23452 0.38311 0.0
H1686 H 0.15402 0.31319 0.38222 0.0
H1687 H 0.10608 0.35843 0.3509 0.0
H1688 H 0.08444 0.57567 0.36025 0.0
H1689 H 0.08805 0.49731 0.36312 0.0
C1690 C 0.8745 0.47237 0.38019 0.0
C1691 C 0.87518 0.4527 0.36353 0.0
C1692 C 0.87223 0.51751 0.38188 0.0
C1693 C 0.85706 0.61592 0.35719 0.0
H1694 H 0.88538 0.67816 0.39221 0.0
C1695 C 0.86267 0.80365 0.35715 0.0
C1696 C 0.86163 0.82528 0.3734 0.0
C1697 C 0.86413 0.75826 0.35637 0.0
C1698 C 0.87721 0.66126 0.38248 0.0
H1699 H 0.87339 0.46537 0.33558 0.0
H1700 H 0.86983 0.54372 0.33848 0.0
H1701 H 0.88781 0.59912 0.39019 0.0
H1702 H 0.8617 0.81579 0.40159 0.0
H1703 H 0.86414 0.73657 0.40022 0.0
H1704 H 0.8466 0.67807 0.34938 0.0
C1705 C 0.87092 0.52435 0.3503 0.0
C1706 C 0.87857 0.61584 0.38134 0.0
C1707 C 0.87319 0.47933 0.34862 0.0
C1708 C 0.86232 0.80025 0.38885 0.0
C1709 C 0.86389 0.75481 0.38807 0.0
C1710 C 0.85574 0.6613 0.3583 0.0
C1711 C 0.87052 0.5442 0.36694 0.0
C1712 C 0.86859 0.59251 0.3686 0.0
C1713 C 0.86467 0.73316 0.37181 0.0
C1714 C 0.86587 0.68465 0.37089 0.0
H1715 H 0.87612 0.45302 0.39197 0.0
H1716 H 0.87177 0.53147 0.39492 0.0
H1717 H 0.84888 0.59914 0.34744 0.0
H1718 H 0.86197 0.82174 0.34498 0.0
H1719 H 0.86491 0.74281 0.34362 0.0
C1720 C 0.86483 0.25162 0.88903 0.0
C1721 C 0.85521 0.22602 0.87678 0.0
C1722 C 0.8661 0.29679 0.887 0.0
C1723 C 0.84356 0.39025 0.86498 0.0
H1724 H 0.8886 0.45042 0.87691 0.0
C1725 C 0.85463 0.57409 0.85084 0.0
C1726 C 0.86421 0.59883 0.86342 0.0
C1727 C 0.85328 0.52877 0.85243 0.0
C1728 C 0.87583 0.43426 0.87372 0.0
H1729 H 0.83948 0.22832 0.85264 0.0
H1730 H 0.84197 0.30704 0.84892 0.0
H1731 H 0.88711 0.37145 0.8793 0.0
H1732 H 0.87979 0.59483 0.88761 0.0
H1733 H 0.87715 0.51607 0.89054 0.0
H1734 H 0.83229 0.45314 0.8594 0.0
C1735 C 0.84836 0.29214 0.86025 0.0
C1736 C 0.87498 0.38885 0.87507 0.0
C1737 C 0.84712 0.24687 0.86227 0.0
C1738 C 0.87216 0.577 0.87776 0.0
C1739 C 0.87085 0.53168 0.87932 0.0
C1740 C 0.84441 0.4357 0.86362 0.0
C1741 C 0.8578 0.31777 0.87264 0.0
C1742 C 0.85882 0.36618 0.87078 0.0
C1743 C 0.8615 0.50687 0.86661 0.0
C1744 C 0.86055 0.45837 0.86802 0.0
H1745 H 0.87143 0.23673 0.90026 0.0
H1746 H 0.87333 0.31536 0.8969 0.0
H1747 H 0.83079 0.37407 0.86181 0.0
H1748 H 0.84816 0.58975 0.83972 0.0
H1749 H 0.84609 0.51083 0.84231 0.0
C1750 C 0.12597 0.45983 0.87277 0.0
C1751 C 0.10873 0.44172 0.86882 0.0
C1752 C 0.12815 0.50503 0.87437 0.0
C1753 C 0.10591 0.60942 0.86176 0.0
H1754 H 0.13822 0.65908 0.89686 0.0
C1755 C 0.10908 0.79507 0.87466 0.0
C1756 C 0.1265 0.81372 0.87731 0.0
C1757 C 0.10685 0.74978 0.87417 0.0
C1758 C 0.12927 0.64576 0.88687 0.0
H1759 H 0.08013 0.45727 0.86419 0.0
H1760 H 0.0839 0.5356 0.86702 0.0
H1761 H 0.13458 0.58025 0.89507 0.0
H1762 H 0.15525 0.79864 0.88139 0.0
H1763 H 0.15132 0.71999 0.8807 0.0
H1764 H 0.10059 0.67486 0.85356 0.0
C1765 C 0.09586 0.51506 0.86848 0.0
C1766 C 0.1272 0.60047 0.88582 0.0
C1767 C 0.09369 0.46999 0.86687 0.0
C1768 C 0.14157 0.78568 0.87965 0.0
C1769 C 0.13932 0.74041 0.87922 0.0
C1770 C 0.10796 0.65466 0.86283 0.0
C1771 C 0.11315 0.53332 0.8721 0.0
C1772 C 0.11547 0.58163 0.87326 0.0
C1773 C 0.12195 0.72181 0.87637 0.0
C1774 C 0.11966 0.6735 0.8754 0.0
H1775 H 0.1379 0.43917 0.87419 0.0
H1776 H 0.14172 0.51784 0.87698 0.0
H1777 H 0.09703 0.59621 0.85169 0.0
H1778 H 0.09709 0.81546 0.87308 0.0
H1779 H 0.09321 0.73667 0.87222 0.0
C1780 C 0.87303 0.78576 0.6052 0.0
C1781 C 0.86206 0.8089 0.61718 0.0
C1782 C 0.87458 0.74042 0.60625 0.0
C1783 C 0.85075 0.64322 0.62378 0.0
H1784 H 0.89748 0.58625 0.61621 0.0
C1785 C 0.86188 0.46057 0.63853 0.0
C1786 C 0.87321 0.43632 0.62724 0.0
C1787 C 0.86029 0.5057 0.63668 0.0
C1788 C 0.88426 0.60154 0.61812 0.0
H1789 H 0.84416 0.80213 0.63972 0.0
H1790 H 0.84708 0.72323 0.64171 0.0
H1791 H 0.8955 0.66537 0.61455 0.0
H1792 H 0.89159 0.44083 0.60496 0.0
H1793 H 0.88855 0.51953 0.60152 0.0
H1794 H 0.8395 0.57949 0.62734 0.0
C1795 C 0.85436 0.74013 0.63138 0.0
C1796 C 0.88313 0.647 0.6172 0.0
C1797 C 0.85286 0.78549 0.63037 0.0
C1798 C 0.88264 0.45838 0.61382 0.0
C1799 C 0.88107 0.50362 0.61198 0.0
C1800 C 0.85187 0.59781 0.62467 0.0
C1801 C 0.86514 0.71694 0.61927 0.0
C1802 C 0.86637 0.66847 0.6201 0.0
C1803 C 0.86996 0.52794 0.62347 0.0
C1804 C 0.86866 0.57632 0.62194 0.0
H1805 H 0.88046 0.80273 0.59498 0.0
H1806 H 0.8829 0.72367 0.59662 0.0
H1807 H 0.83754 0.65854 0.62576 0.0
H1808 H 0.85423 0.44466 0.64887 0.0
H1809 H 0.85174 0.52326 0.64588 0.0
C1810 C 0.13013 0.24754 0.63572 0.0
C1811 C 0.13193 0.22589 0.61954 0.0
C1812 C 0.12852 0.29292 0.63643 0.0
C1813 C 0.11638 0.38973 0.60974 0.0
H1814 H 0.14288 0.45238 0.64592 0.0
C1815 C 0.11879 0.5787 0.61181 0.0
C1816 C 0.11735 0.59862 0.62838 0.0
C1817 C 0.12113 0.53353 0.61032 0.0
C1818 C 0.13521 0.43546 0.63584 0.0
H1819 H 0.13306 0.23537 0.59137 0.0
H1820 H 0.13036 0.31454 0.59262 0.0
H1821 H 0.1454 0.37346 0.64417 0.0
H1822 H 0.11785 0.58632 0.65641 0.0
H1823 H 0.12153 0.50793 0.65384 0.0
H1824 H 0.10605 0.45172 0.6015 0.0
C1825 C 0.13013 0.29633 0.60478 0.0
C1826 C 0.13666 0.39008 0.63483 0.0
C1827 C 0.13185 0.25091 0.60407 0.0
C1828 C 0.11864 0.57218 0.64341 0.0
C1829 C 0.12099 0.52712 0.64193 0.0
C1830 C 0.11488 0.43516 0.61077 0.0
C1831 C 0.12858 0.31801 0.62098 0.0
C1832 C 0.1272 0.36653 0.62183 0.0
C1833 C 0.12216 0.50704 0.62537 0.0
C1834 C 0.1242 0.45869 0.62389 0.0
H1835 H 0.13035 0.22947 0.64792 0.0
H1836 H 0.12714 0.30836 0.64914 0.0
H1837 H 0.10872 0.3727 0.59968 0.0
H1838 H 0.11771 0.59788 0.59993 0.0
H1839 H 0.12219 0.5194 0.59735 0.0
C1840 C 0.6298 0.95933 0.14714 0.0
C1841 C 0.62092 0.93495 0.134 0.0
C1842 C 0.63137 1.00464 0.14575 0.0
C1843 C 0.61035 0.09987 0.12358 0.0
H1844 H 0.65486 0.15906 0.1379 0.0
C1845 C 0.62277 0.28247 0.10925 0.0
C1846 C 0.63182 0.30773 0.122 0.0
C1847 C 0.62123 0.23731 0.11113 0.0
C1848 C 0.64223 0.14316 0.13406 0.0
H1849 H 0.60678 0.93958 0.10902 0.0
H1850 H 0.60979 0.01835 0.10647 0.0
H1851 H 0.65298 0.07999 0.14004 0.0
H1852 H 0.6462 0.30488 0.14688 0.0
H1853 H 0.64322 0.22617 0.15034 0.0
H1854 H 0.59959 0.16296 0.1176 0.0
C1855 C 0.61538 1.00246 0.11796 0.0
C1856 C 0.64116 0.09772 0.13526 0.0
C1857 C 0.61386 0.95713 0.11932 0.0
C1858 C 0.63902 0.28658 0.13686 0.0
C1859 C 0.63751 0.24131 0.13873 0.0
C1860 C 0.61142 0.14528 0.12239 0.0
C1861 C 0.62405 0.02691 0.13122 0.0
C1862 C 0.62522 0.0754 0.12999 0.0
C1863 C 0.62867 0.216 0.12584 0.0
C1864 C 0.62739 0.1676 0.12755 0.0
H1865 H 0.63558 0.94338 0.15854 0.0
H1866 H 0.63801 0.02232 0.15629 0.0
H1867 H 0.59773 0.08398 0.1197 0.0
H1868 H 0.61684 0.29761 0.09774 0.0
H1869 H 0.61448 0.219 0.10084 0.0
C1870 C 0.3775 0.7379 0.12037 0.0
C1871 C 0.36009 0.71915 0.1178 0.0
C1872 C 0.37968 0.7832 0.12088 0.0
C1873 C 0.3571 0.88708 0.10836 0.0
H1874 H 0.38934 0.93662 0.14354 0.0
C1875 C 0.36022 0.07289 0.12266 0.0
C1876 C 0.37745 0.09106 0.12658 0.0
C1877 C 0.35807 0.02769 0.12102 0.0
C1878 C 0.38045 0.92341 0.13347 0.0
H1879 H 0.3313 0.73403 0.11386 0.0
H1880 H 0.33514 0.81271 0.11458 0.0
H1881 H 0.38586 0.85796 0.1416 0.0
H1882 H 0.40609 0.07566 0.13111 0.0
H1883 H 0.40238 0.99733 0.12821 0.0
H1884 H 0.35169 0.95261 0.10024 0.0
C1885 C 0.34716 0.79236 0.11599 0.0
C1886 C 0.37846 0.87818 0.13236 0.0
C1887 C 0.34497 0.74709 0.11554 0.0
C1888 C 0.39253 0.06287 0.12846 0.0
C1889 C 0.3904 0.01781 0.1268 0.0
C1890 C 0.35912 0.93237 0.10945 0.0
C1891 C 0.36453 0.81106 0.11878 0.0
C1892 C 0.36676 0.85935 0.11979 0.0
C1893 C 0.37312 0.99949 0.12322 0.0
C1894 C 0.37085 0.95119 0.12201 0.0
H1895 H 0.38952 0.71759 0.12188 0.0
H1896 H 0.3933 0.7964 0.12278 0.0
H1897 H 0.34814 0.87376 0.09837 0.0
H1898 H 0.34826 0.0935 0.1213 0.0
H1899 H 0.34452 1.01482 0.11843 0.0
C1900 C 0.62747 0.06868 0.35212 0.0
C1901 C 0.61876 0.0929 0.36539 0.0
C1902 C 0.62906 0.02336 0.35341 0.0
C1903 C 0.60835 0.9279 0.37566 0.0
H1904 H 0.65272 0.86898 0.3609 0.0
C1905 C 0.62106 0.74546 0.38989 0.0
C1906 C 0.62997 0.72022 0.37706 0.0
C1907 C 0.61945 0.79059 0.38799 0.0
C1908 C 0.64013 0.8848 0.36486 0.0
H1909 H 0.60499 0.08801 0.39052 0.0
H1910 H 0.60804 1.00922 0.39293 0.0
H1911 H 0.65078 0.94805 0.35883 0.0
H1912 H 0.64406 0.72308 0.35205 0.0
H1913 H 0.64098 0.80177 0.34858 0.0
H1914 H 0.59768 0.86475 0.38169 0.0
C1915 C 0.61347 0.02524 0.38139 0.0
C1916 C 0.63902 0.93025 0.3637 0.0
C1917 C 0.61192 0.07057 0.38012 0.0
C1918 C 0.63699 0.74137 0.36213 0.0
C1919 C 0.63541 0.78661 0.36024 0.0
C1920 C 0.60945 0.8825 0.37681 0.0
C1921 C 0.62195 1.00095 0.368 0.0
C1922 C 0.62314 0.95246 0.36915 0.0
C1923 C 0.62671 0.8119 0.3732 0.0
C1924 C 0.62537 0.86028 0.37149 0.0
H1925 H 0.63307 0.08476 0.34067 0.0
H1926 H 0.63555 1.0058 0.34278 0.0
H1927 H 0.59577 0.94372 0.37967 0.0
H1928 H 0.61527 0.73032 0.40146 0.0
H1929 H 0.61281 0.80889 0.39833 0.0
C1930 C 0.37044 0.96259 0.35138 0.0
C1931 C 0.37274 0.93604 0.36626 0.0
C1932 C 0.36828 1.00767 0.35305 0.0
C1933 C 0.37678 0.09929 0.38386 0.0
H1934 H 0.34406 0.1616 0.35262 0.0
C1935 C 0.36053 0.28349 0.39202 0.0
C1936 C 0.35936 0.30873 0.37665 0.0
C1937 C 0.36217 0.23808 0.3911 0.0
C1938 C 0.35341 0.14481 0.36134 0.0
H1939 H 0.3744 0.93659 0.39467 0.0
H1940 H 0.37025 1.01507 0.39763 0.0
H1941 H 0.34632 0.08268 0.35059 0.0
H1942 H 0.35894 0.30556 0.34822 0.0
H1943 H 0.36201 0.22668 0.34661 0.0
H1944 H 0.38381 0.16157 0.39463 0.0
C1945 C 0.37037 1.00103 0.3846 0.0
C1946 C 0.35472 0.09943 0.36017 0.0
C1947 C 0.37252 0.95586 0.38292 0.0
C1948 C 0.36001 0.28732 0.36033 0.0
C1949 C 0.36154 0.24194 0.35941 0.0
C1950 C 0.37543 0.14471 0.38506 0.0
C1951 C 0.36833 0.02763 0.36967 0.0
C1952 C 0.3665 0.07599 0.37134 0.0
C1953 C 0.36255 0.21664 0.37478 0.0
C1954 C 0.36381 0.16814 0.37374 0.0
H1955 H 0.37029 0.94854 0.33835 0.0
H1956 H 0.36694 0.02696 0.34123 0.0
H1957 H 0.38621 0.08256 0.39251 0.0
H1958 H 0.36023 0.29884 0.40481 0.0
H1959 H 0.36278 0.2197 0.4032 0.0
C1960 C 0.36327 0.73847 0.86033 0.0
C1961 C 0.35958 0.71699 0.87624 0.0
C1962 C 0.36478 0.78387 0.8597 0.0
C1963 C 0.37321 0.88136 0.88722 0.0
H1964 H 0.35068 0.94243 0.84827 0.0
C1965 C 0.3705 0.07024 0.88388 0.0
C1966 C 0.37385 0.08947 0.86743 0.0
C1967 C 0.36808 0.0251 0.8854 0.0
C1968 C 0.35724 0.92595 0.85915 0.0
H1969 H 0.35501 0.72671 0.90408 0.0
H1970 H 0.35756 0.80596 0.90297 0.0
H1971 H 0.3483 0.86351 0.85007 0.0
H1972 H 0.37668 0.07605 0.83962 0.0
H1973 H 0.37285 0.99774 0.8423 0.0
H1974 H 0.3823 0.94383 0.89622 0.0
C1975 C 0.35933 0.7876 0.89096 0.0
C1976 C 0.35586 0.88058 0.86018 0.0
C1977 C 0.35771 0.74216 0.89157 0.0
C1978 C 0.37438 0.06243 0.85254 0.0
C1979 C 0.37195 0.01742 0.85405 0.0
C1980 C 0.37464 0.9268 0.88617 0.0
C1981 C 0.36272 0.8091 0.87499 0.0
C1982 C 0.36393 0.85761 0.87416 0.0
C1983 C 0.36887 0.99801 0.87051 0.0
C1984 C 0.36677 0.94973 0.87205 0.0
H1985 H 0.36459 0.72027 0.84823 0.0
H1986 H 0.36762 0.79921 0.84721 0.0
H1987 H 0.37975 0.86475 0.89808 0.0
H1988 H 0.37012 0.08995 0.89565 0.0
H1989 H 0.36553 1.01145 0.89827 0.0
C1990 C 0.63834 0.28692 0.86173 0.0
C1991 C 0.63146 0.30802 0.87674 0.0
C1992 C 0.63675 0.24166 0.85982 0.0
C1993 C 0.61088 0.14562 0.87653 0.0
H1994 H 0.65193 0.08013 0.85797 0.0
C1995 C 0.61316 0.95738 0.87942 0.0
C1996 C 0.61992 0.93512 0.86464 0.0
C1997 C 0.61473 1.00272 0.88075 0.0
C1998 C 0.64025 0.09791 0.863 0.0
H1999 H 0.61698 0.29777 0.90125 0.0
H2000 H 0.61449 0.2192 0.89808 0.0
H2001 H 0.65396 0.15918 0.86015 0.0
H2002 H 0.63411 0.94347 0.83987 0.0
H2003 H 0.63663 0.02241 0.84207 0.0
H2004 H 0.59719 0.08439 0.87942 0.0
C2005 C 0.62104 0.23754 0.8877 0.0
C2006 C 0.64141 0.14335 0.86423 0.0
C2007 C 0.62267 0.28269 0.88961 0.0
C2008 C 0.62856 0.95946 0.85136 0.0
C2009 C 0.63018 1.00479 0.85271 0.0
C2010 C 0.60973 0.10021 0.87531 0.0
C2011 C 0.62815 0.21629 0.87283 0.0
C2012 C 0.62676 0.16787 0.87107 0.0
C2013 C 0.62316 0.02713 0.86736 0.0
C2014 C 0.62442 0.07565 0.86858 0.0
H2015 H 0.64531 0.30525 0.8516 0.0
H2016 H 0.6422 0.22657 0.8481 0.0
H2017 H 0.5992 0.16334 0.88157 0.0
H2018 H 0.60626 0.93988 0.88984 0.0
H2019 H 0.60937 0.01864 0.89233 0.0
C2020 C 0.39078 0.96426 0.63392 0.0
C2021 C 0.37656 0.93574 0.62901 0.0
C2022 C 0.38875 1.00935 0.63225 0.0
C2023 C 0.36114 0.09462 0.60979 0.0
H2024 H 0.38072 0.16887 0.64644 0.0
C2025 C 0.34556 0.27966 0.61333 0.0
C2026 C 0.35987 0.30783 0.61837 0.0
C2027 C 0.3477 0.23441 0.61423 0.0
C2028 C 0.37536 0.14871 0.63597 0.0
H2029 H 0.34901 0.93284 0.61839 0.0
H2030 H 0.34544 1.01153 0.6155 0.0
H2031 H 0.38404 0.09023 0.64875 0.0
H2032 H 0.38786 0.30977 0.62797 0.0
H2033 H 0.39153 0.23101 0.62962 0.0
H2034 H 0.35237 0.15324 0.59707 0.0
C2035 C 0.35829 0.9989 0.62047 0.0
C2036 C 0.37726 0.10348 0.63729 0.0
C2037 C 0.36033 0.95369 0.62213 0.0
C2038 C 0.37642 0.2893 0.62424 0.0
C2039 C 0.37854 0.24402 0.62518 0.0
C2040 C 0.3592 0.1399 0.60849 0.0
C2041 C 0.37244 0.02742 0.62561 0.0
C2042 C 0.37023 0.07573 0.6242 0.0
C2043 C 0.36418 0.21592 0.62024 0.0
C2044 C 0.36631 0.1676 0.62155 0.0
H2045 H 0.40363 0.9517 0.63892 0.0
H2046 H 0.40011 0.03007 0.636 0.0
H2047 H 0.35578 0.07446 0.59932 0.0
H2048 H 0.33248 0.29253 0.60906 0.0
H2049 H 0.33624 0.2139 0.61056 0.0
C2050 C 0.63418 0.72996 0.64009 0.0
C2051 C 0.63055 0.70911 0.62401 0.0
C2052 C 0.63231 0.77522 0.64175 0.0
C2053 C 0.61064 0.87176 0.62065 0.0
H2054 H 0.64707 0.93654 0.64694 0.0
C2055 C 0.6134 0.06022 0.61925 0.0
C2056 C 0.61705 0.08191 0.63514 0.0
C2057 C 0.61523 1.01491 0.61796 0.0
C2058 C 0.63665 0.91897 0.6397 0.0
H2059 H 0.62154 0.71985 0.59722 0.0
H2060 H 0.61858 0.7984 0.60003 0.0
H2061 H 0.64942 0.85753 0.64493 0.0
H2062 H 0.62604 0.07256 0.66201 0.0
H2063 H 0.62895 0.99376 0.65986 0.0
H2064 H 0.59788 0.93315 0.6154 0.0
C2065 C 0.62278 0.77986 0.61142 0.0
C2066 C 0.63798 0.87354 0.63857 0.0
C2067 C 0.6247 0.73472 0.60975 0.0
C2068 C 0.62289 0.05704 0.64962 0.0
C2069 C 0.62476 1.01177 0.64832 0.0
C2070 C 0.6093 0.91716 0.62178 0.0
C2071 C 0.62667 0.80086 0.62741 0.0
C2072 C 0.62502 0.84927 0.62898 0.0
C2073 C 0.62082 0.98998 0.63252 0.0
C2074 C 0.62231 0.94147 0.63129 0.0
H2075 H 0.63884 0.71142 0.65132 0.0
H2076 H 0.63521 0.7901 0.65433 0.0
H2077 H 0.60022 0.85423 0.61339 0.0
H2078 H 0.60872 0.07813 0.60786 0.0
H2079 H 0.61231 0.99944 0.6055 0.0
loop_
_geom_bond_atom_site_label_1
_geom_bond_atom_site_label_2
_geom_bond_distance
_geom_bond_site_symmetry_2
_ccdc_geom_bond_type
Eu0 C9 2.828 1_545 S
Eu0 O11 2.392 . S
Eu0 O13 2.418 . S
Eu0 O18 2.373 . S
Eu0 O21 2.488 1_545 S
Eu0 O22 2.471 1_545 S
Eu0 O23 2.349 . S
Eu1 O10 2.373 . S
Eu1 O14 2.488 . S
Eu1 O15 2.471 . S
Eu1 O16 2.349 . S
Eu1 O19 2.392 . S
Eu1 O20 2.418 . S
Eu1 C30 2.828 . S
C2 O20 1.244 . S
C2 O23 1.265 . S
C3 C4 1.379 . S
C3 C7 1.373 . S
C3 C9 1.505 . S
C4 C3 1.379 . S
C4 C6 1.369 . S
C4 H32 0.930 . S
C5 C7 1.383 . S
C5 C8 1.382 . S
C5 H33 0.930 . S
C6 C4 1.369 . S
C6 C8 1.392 . S
C6 H34 0.930 . S
C7 C3 1.373 . S
C7 C5 1.383 . S
C7 H35 0.931 . S
C8 C5 1.382 . S
C8 C6 1.392 . S
C9 Eu0 2.828 1_565 S
C9 C3 1.505 . S
C9 O21 1.249 . S
C9 O22 1.244 . S
O10 Eu1 2.373 . S
O10 C12 1.258 . S
O11 Eu0 2.392 . S
O11 C12 1.242 . S
C12 O10 1.258 . S
C12 O11 1.242 . S
O13 Eu0 2.418 . S
O13 C17 1.244 . S
O14 Eu1 2.488 . S
O14 C30 1.249 . S
O15 Eu1 2.471 . S
O15 C30 1.244 . S
O16 Eu1 2.349 . S
O16 C17 1.265 . S
C17 O13 1.244 . S
C17 O16 1.265 . S
O18 Eu0 2.373 . S
O18 C31 1.258 . S
O19 Eu1 2.392 . S
O19 C31 1.242 . S
O20 Eu1 2.418 . S
O20 C2 1.244 . S
O21 Eu0 2.488 1_565 S
O21 C9 1.249 . S
O22 Eu0 2.471 1_565 S
O22 C9 1.244 . S
O23 Eu0 2.349 . S
O23 C2 1.265 . S
C24 C25 1.379 . S
C24 C28 1.373 . S
C24 C30 1.505 . S
C25 C24 1.379 . S
C25 C27 1.369 . S
C25 H36 0.930 . S
C26 C28 1.383 . S
C26 C29 1.382 . S
C26 H37 0.930 . S
C27 C25 1.369 . S
C27 C29 1.392 . S
C27 H38 0.930 . S
C28 C24 1.373 . S
C28 C26 1.383 . S
C28 H39 0.931 . S
C29 C26 1.382 . S
C29 C27 1.392 . S
C30 Eu1 2.828 . S
C30 O14 1.249 . S
C30 O15 1.244 . S
C30 C24 1.505 . S
C31 O18 1.258 . S
C31 O19 1.242 . S
H32 C4 0.930 . S
H33 C5 0.930 . S
H34 C6 0.930 . S
H35 C7 0.931 . S
H36 C25 0.930 . S
H37 C26 0.930 . S
H38 C27 0.930 . S
H39 C28 0.931 . S
Eu40 C49 2.828 1_565 S
Eu40 O51 2.392 . S
Eu40 O53 2.418 . S
Eu40 O58 2.373 . S
Eu40 O61 2.488 1_565 S
Eu40 O62 2.471 1_565 S
Eu40 O63 2.349 . S
Eu41 O50 2.373 . S
Eu41 O54 2.488 . S
Eu41 O55 2.471 . S
Eu41 O56 2.349 . S
Eu41 O59 2.392 . S
Eu41 O60 2.418 . S
Eu41 C70 2.828 . S
C42 O60 1.244 . S
C42 O63 1.265 . S
C43 C44 1.379 . S
C43 C47 1.373 . S
C43 C49 1.505 . S
C44 C43 1.379 . S
C44 C46 1.369 . S
C44 H72 0.930 . S
C45 C47 1.383 . S
C45 C48 1.382 . S
C45 H73 0.930 . S
C46 C44 1.369 . S
C46 C48 1.392 . S
C46 H74 0.930 . S
C47 C43 1.373 . S
C47 C45 1.383 . S
C47 H75 0.931 . S
C48 C45 1.382 . S
C48 C46 1.392 . S
C49 Eu40 2.828 1_545 S
C49 C43 1.505 . S
C49 O61 1.249 . S
C49 O62 1.244 . S
O50 Eu41 2.373 . S
O50 C52 1.258 . S
O51 Eu40 2.392 . S
O51 C52 1.242 . S
C52 O50 1.258 . S
C52 O51 1.242 . S
O53 Eu40 2.418 . S
O53 C57 1.244 . S
O54 Eu41 2.488 . S
O54 C70 1.249 . S
O55 Eu41 2.471 . S
O55 C70 1.244 . S
O56 Eu41 2.349 . S
O56 C57 1.265 . S
C57 O53 1.244 . S
C57 O56 1.265 . S
O58 Eu40 2.373 . S
O58 C71 1.258 . S
O59 Eu41 2.392 . S
O59 C71 1.242 . S
O60 Eu41 2.418 . S
O60 C42 1.244 . S
O61 Eu40 2.488 1_545 S
O61 C49 1.249 . S
O62 Eu40 2.471 1_545 S
O62 C49 1.244 . S
O63 Eu40 2.349 . S
O63 C42 1.265 . S
C64 C65 1.379 . S
C64 C68 1.373 . S
C64 C70 1.505 . S
C65 C64 1.379 . S
C65 C67 1.369 . S
C65 H76 0.930 . S
C66 C68 1.383 . S
C66 C69 1.382 . S
C66 H77 0.930 . S
C67 C65 1.369 . S
C67 C69 1.392 . S
C67 H78 0.930 . S
C68 C64 1.373 . S
C68 C66 1.383 . S
C68 H79 0.931 . S
C69 C66 1.382 . S
C69 C67 1.392 . S
C70 Eu41 2.828 . S
C70 O54 1.249 . S
C70 O55 1.244 . S
C70 C64 1.505 . S
C71 O58 1.258 . S
C71 O59 1.242 . S
H72 C44 0.930 . S
H73 C45 0.930 . S
H74 C46 0.930 . S
H75 C47 0.931 . S
H76 C65 0.930 . S
H77 C66 0.930 . S
H78 C67 0.930 . S
H79 C68 0.931 . S
Eu80 C89 2.828 1_565 S
Eu80 O91 2.392 . S
Eu80 O93 2.418 . S
Eu80 O98 2.373 . S
Eu80 O101 2.488 1_565 S
Eu80 O102 2.471 1_565 S
Eu80 O103 2.349 . S
Eu81 O90 2.373 . S
Eu81 O94 2.488 . S
Eu81 O95 2.471 . S
Eu81 O96 2.349 . S
Eu81 O99 2.392 . S
Eu81 O100 2.418 . S
Eu81 C110 2.828 . S
C82 O100 1.244 . S
C82 O103 1.265 . S
C83 C84 1.379 . S
C83 C87 1.373 . S
C83 C89 1.505 . S
C84 C83 1.379 . S
C84 C86 1.369 . S
C84 H112 0.930 . S
C85 C87 1.383 . S
C85 C88 1.382 . S
C85 H113 0.930 . S
C86 C84 1.369 . S
C86 C88 1.392 . S
C86 H114 0.930 . S
C87 C83 1.373 . S
C87 C85 1.383 . S
C87 H115 0.931 . S
C88 C85 1.382 . S
C88 C86 1.392 . S
C89 Eu80 2.828 1_545 S
C89 C83 1.505 . S
C89 O101 1.249 . S
C89 O102 1.244 . S
O90 Eu81 2.373 . S
O90 C92 1.258 . S
O91 Eu80 2.392 . S
O91 C92 1.242 . S
C92 O90 1.258 . S
C92 O91 1.242 . S
O93 Eu80 2.418 . S
O93 C97 1.244 . S
O94 Eu81 2.488 . S
O94 C110 1.249 . S
O95 Eu81 2.471 . S
O95 C110 1.244 . S
O96 Eu81 2.349 . S
O96 C97 1.265 . S
C97 O93 1.244 . S
C97 O96 1.265 . S
O98 Eu80 2.373 . S
O98 C111 1.258 . S
O99 Eu81 2.392 . S
O99 C111 1.242 . S
O100 Eu81 2.418 . S
O100 C82 1.244 . S
O101 Eu80 2.488 1_545 S
O101 C89 1.249 . S
O102 Eu80 2.471 1_545 S
O102 C89 1.244 . S
O103 Eu80 2.349 . S
O103 C82 1.265 . S
C104 C105 1.379 . S
C104 C108 1.373 . S
C104 C110 1.505 . S
C105 C104 1.379 . S
C105 C107 1.369 . S
C105 H116 0.930 . S
C106 C108 1.383 . S
C106 C109 1.382 . S
C106 H117 0.930 . S
C107 C105 1.369 . S
C107 C109 1.392 . S
C107 H118 0.930 . S
C108 C104 1.373 . S
C108 C106 1.383 . S
C108 H119 0.931 . S
C109 C106 1.382 . S
C109 C107 1.392 . S
C110 Eu81 2.828 . S
C110 O94 1.249 . S
C110 O95 1.244 . S
C110 C104 1.505 . S
C111 O98 1.258 . S
C111 O99 1.242 . S
H112 C84 0.930 . S
H113 C85 0.930 . S
H114 C86 0.930 . S
H115 C87 0.931 . S
H116 C105 0.930 . S
H117 C106 0.930 . S
H118 C107 0.930 . S
H119 C108 0.931 . S
Eu120 C129 2.828 1_545 S
Eu120 O131 2.392 . S
Eu120 O133 2.418 . S
Eu120 O138 2.373 . S
Eu120 O141 2.488 1_545 S
Eu120 O142 2.471 1_545 S
Eu120 O143 2.349 . S
Eu121 O130 2.373 . S
Eu121 O134 2.488 . S
Eu121 O135 2.471 . S
Eu121 O136 2.349 . S
Eu121 O139 2.392 . S
Eu121 O140 2.418 . S
Eu121 C150 2.828 . S
C122 O140 1.244 . S
C122 O143 1.265 . S
C123 C124 1.379 . S
C123 C127 1.373 . S
C123 C129 1.505 . S
C124 C123 1.379 . S
C124 C126 1.369 . S
C124 H152 0.930 . S
C125 C127 1.383 . S
C125 C128 1.382 . S
C125 H153 0.930 . S
C126 C124 1.369 . S
C126 C128 1.392 . S
C126 H154 0.930 . S
C127 C123 1.373 . S
C127 C125 1.383 . S
C127 H155 0.931 . S
C128 C125 1.382 . S
C128 C126 1.392 . S
C129 Eu120 2.828 1_565 S
C129 C123 1.505 . S
C129 O141 1.249 . S
C129 O142 1.244 . S
O130 Eu121 2.373 . S
O130 C132 1.258 . S
O131 Eu120 2.392 . S
O131 C132 1.242 . S
C132 O130 1.258 . S
C132 O131 1.242 . S
O133 Eu120 2.418 . S
O133 C137 1.244 . S
O134 Eu121 2.488 . S
O134 C150 1.249 . S
O135 Eu121 2.471 . S
O135 C150 1.244 . S
O136 Eu121 2.349 . S
O136 C137 1.265 . S
C137 O133 1.244 . S
C137 O136 1.265 . S
O138 Eu120 2.373 . S
O138 C151 1.258 . S
O139 Eu121 2.392 . S
O139 C151 1.242 . S
O140 Eu121 2.418 . S
O140 C122 1.244 . S
O141 Eu120 2.488 1_565 S
O141 C129 1.249 . S
O142 Eu120 2.471 1_565 S
O142 C129 1.244 . S
O143 Eu120 2.349 . S
O143 C122 1.265 . S
C144 C145 1.379 . S
C144 C148 1.373 . S
C144 C150 1.505 . S
C145 C144 1.379 . S
C145 C147 1.369 . S
C145 H156 0.930 . S
C146 C148 1.383 . S
C146 C149 1.382 . S
C146 H157 0.930 . S
C147 C145 1.369 . S
C147 C149 1.392 . S
C147 H158 0.930 . S
C148 C144 1.373 . S
C148 C146 1.383 . S
C148 H159 0.931 . S
C149 C146 1.382 . S
C149 C147 1.392 . S
C150 Eu121 2.828 . S
C150 O134 1.249 . S
C150 O135 1.244 . S
C150 C144 1.505 . S
C151 O138 1.258 . S
C151 O139 1.242 . S
H152 C124 0.930 . S
H153 C125 0.930 . S
H154 C126 0.930 . S
H155 C127 0.931 . S
H156 C145 0.930 . S
H157 C146 0.930 . S
H158 C147 0.930 . S
H159 C148 0.931 . S
Eu160 C169 2.828 . S
Eu160 O171 2.392 . S
Eu160 O173 2.418 . S
Eu160 O178 2.373 . S
Eu160 O181 2.488 . S
Eu160 O182 2.471 . S
Eu160 O183 2.349 . S
Eu161 O170 2.373 . S
Eu161 O174 2.488 1_565 S
Eu161 O175 2.471 1_565 S
Eu161 O176 2.349 . S
Eu161 O179 2.392 . S
Eu161 O180 2.418 . S
Eu161 C190 2.828 1_565 S
C162 O180 1.244 . S
C162 O183 1.265 . S
C163 C164 1.379 . S
C163 C167 1.373 . S
C163 C169 1.505 . S
C164 C163 1.379 . S
C164 C166 1.369 . S
C164 H192 0.930 . S
C165 C167 1.383 . S
C165 C168 1.382 . S
C165 H193 0.930 . S
C166 C164 1.369 . S
C166 C168 1.392 . S
C166 H194 0.930 . S
C167 C163 1.373 . S
C167 C165 1.383 . S
C167 H195 0.931 . S
C168 C165 1.382 . S
C168 C166 1.392 . S
C169 Eu160 2.828 . S
C169 C163 1.505 . S
C169 O181 1.249 . S
C169 O182 1.244 . S
O170 Eu161 2.373 . S
O170 C172 1.258 . S
O171 Eu160 2.392 . S
O171 C172 1.242 . S
C172 O170 1.258 . S
C172 O171 1.242 . S
O173 Eu160 2.418 . S
O173 C177 1.244 . S
O174 Eu161 2.488 1_545 S
O174 C190 1.249 . S
O175 Eu161 2.471 1_545 S
O175 C190 1.244 . S
O176 Eu161 2.349 . S
O176 C177 1.265 . S
C177 O173 1.244 . S
C177 O176 1.265 . S
O178 Eu160 2.373 . S
O178 C191 1.258 . S
O179 Eu161 2.392 . S
O179 C191 1.242 . S
O180 Eu161 2.418 . S
O180 C162 1.244 . S
O181 Eu160 2.488 . S
O181 C169 1.249 . S
O182 Eu160 2.471 . S
O182 C169 1.244 . S
O183 Eu160 2.349 . S
O183 C162 1.265 . S
C184 C185 1.379 . S
C184 C188 1.373 . S
C184 C190 1.505 . S
C185 C184 1.379 . S
C185 C187 1.369 . S
C185 H196 0.930 . S
C186 C188 1.383 . S
C186 C189 1.382 . S
C186 H197 0.930 . S
C187 C185 1.369 . S
C187 C189 1.392 . S
C187 H198 0.930 . S
C188 C184 1.373 . S
C188 C186 1.383 . S
C188 H199 0.931 . S
C189 C186 1.382 . S
C189 C187 1.392 . S
C190 Eu161 2.828 1_545 S
C190 O174 1.249 . S
C190 O175 1.244 . S
C190 C184 1.505 . S
C191 O178 1.258 . S
C191 O179 1.242 . S
H192 C164 0.930 . S
H193 C165 0.930 . S
H194 C166 0.930 . S
H195 C167 0.931 . S
H196 C185 0.930 . S
H197 C186 0.930 . S
H198 C187 0.930 . S
H199 C188 0.931 . S
Eu200 C209 2.828 . S
Eu200 O211 2.392 . S
Eu200 O213 2.418 . S
Eu200 O218 2.373 . S
Eu200 O221 2.488 . S
Eu200 O222 2.471 . S
Eu200 O223 2.349 . S
Eu201 O210 2.373 . S
Eu201 O214 2.488 1_545 S
Eu201 O215 2.471 1_545 S
Eu201 O216 2.349 . S
Eu201 O219 2.392 . S
Eu201 O220 2.418 . S
Eu201 C230 2.828 1_545 S
C202 O220 1.244 . S
C202 O223 1.265 . S
C203 C204 1.379 . S
C203 C207 1.373 . S
C203 C209 1.505 . S
C204 C203 1.379 . S
C204 C206 1.369 . S
C204 H232 0.930 . S
C205 C207 1.383 . S
C205 C208 1.382 . S
C205 H233 0.930 . S
C206 C204 1.369 . S
C206 C208 1.392 . S
C206 H234 0.930 . S
C207 C203 1.373 . S
C207 C205 1.383 . S
C207 H235 0.931 . S
C208 C205 1.382 . S
C208 C206 1.392 . S
C209 Eu200 2.828 . S
C209 C203 1.505 . S
C209 O221 1.249 . S
C209 O222 1.244 . S
O210 Eu201 2.373 . S
O210 C212 1.258 . S
O211 Eu200 2.392 . S
O211 C212 1.242 . S
C212 O210 1.258 . S
C212 O211 1.242 . S
O213 Eu200 2.418 . S
O213 C217 1.244 . S
O214 Eu201 2.488 1_565 S
O214 C230 1.249 . S
O215 Eu201 2.471 1_565 S
O215 C230 1.244 . S
O216 Eu201 2.349 . S
O216 C217 1.265 . S
C217 O213 1.244 . S
C217 O216 1.265 . S
O218 Eu200 2.373 . S
O218 C231 1.258 . S
O219 Eu201 2.392 . S
O219 C231 1.242 . S
O220 Eu201 2.418 . S
O220 C202 1.244 . S
O221 Eu200 2.488 . S
O221 C209 1.249 . S
O222 Eu200 2.471 . S
O222 C209 1.244 . S
O223 Eu200 2.349 . S
O223 C202 1.265 . S
C224 C225 1.379 . S
C224 C228 1.373 . S
C224 C230 1.505 . S
C225 C224 1.379 . S
C225 C227 1.369 . S
C225 H236 0.930 . S
C226 C228 1.383 . S
C226 C229 1.382 . S
C226 H237 0.930 . S
C227 C225 1.369 . S
C227 C229 1.392 . S
C227 H238 0.930 . S
C228 C224 1.373 . S
C228 C226 1.383 . S
C228 H239 0.931 . S
C229 C226 1.382 . S
C229 C227 1.392 . S
C230 Eu201 2.828 1_565 S
C230 O214 1.249 . S
C230 O215 1.244 . S
C230 C224 1.505 . S
C231 O218 1.258 . S
C231 O219 1.242 . S
H232 C204 0.930 . S
H233 C205 0.930 . S
H234 C206 0.930 . S
H235 C207 0.931 . S
H236 C225 0.930 . S
H237 C226 0.930 . S
H238 C227 0.930 . S
H239 C228 0.931 . S
Eu240 C249 2.828 . S
Eu240 O251 2.392 . S
Eu240 O253 2.418 . S
Eu240 O258 2.373 . S
Eu240 O261 2.488 . S
Eu240 O262 2.471 . S
Eu240 O263 2.349 . S
Eu241 O250 2.373 . S
Eu241 O254 2.488 1_545 S
Eu241 O255 2.471 1_545 S
Eu241 O256 2.349 . S
Eu241 O259 2.392 . S
Eu241 O260 2.418 . S
Eu241 C270 2.828 1_545 S
C242 O260 1.244 . S
C242 O263 1.265 . S
C243 C244 1.379 . S
C243 C247 1.373 . S
C243 C249 1.505 . S
C244 C243 1.379 . S
C244 C246 1.369 . S
C244 H272 0.930 . S
C245 C247 1.383 . S
C245 C248 1.382 . S
C245 H273 0.930 . S
C246 C244 1.369 . S
C246 C248 1.392 . S
C246 H274 0.930 . S
C247 C243 1.373 . S
C247 C245 1.383 . S
C247 H275 0.931 . S
C248 C245 1.382 . S
C248 C246 1.392 . S
C249 Eu240 2.828 . S
C249 C243 1.505 . S
C249 O261 1.249 . S
C249 O262 1.244 . S
O250 Eu241 2.373 . S
O250 C252 1.258 . S
O251 Eu240 2.392 . S
O251 C252 1.242 . S
C252 O250 1.258 . S
C252 O251 1.242 . S
O253 Eu240 2.418 . S
O253 C257 1.244 . S
O254 Eu241 2.488 1_565 S
O254 C270 1.249 . S
O255 Eu241 2.471 1_565 S
O255 C270 1.244 . S
O256 Eu241 2.349 . S
O256 C257 1.265 . S
C257 O253 1.244 . S
C257 O256 1.265 . S
O258 Eu240 2.373 . S
O258 C271 1.258 . S
O259 Eu241 2.392 . S
O259 C271 1.242 . S
O260 Eu241 2.418 . S
O260 C242 1.244 . S
O261 Eu240 2.488 . S
O261 C249 1.249 . S
O262 Eu240 2.471 . S
O262 C249 1.244 . S
O263 Eu240 2.349 . S
O263 C242 1.265 . S
C264 C265 1.379 . S
C264 C268 1.373 . S
C264 C270 1.505 . S
C265 C264 1.379 . S
C265 C267 1.369 . S
C265 H276 0.930 . S
C266 C268 1.383 . S
C266 C269 1.382 . S
C266 H277 0.930 . S
C267 C265 1.369 . S
C267 C269 1.392 . S
C267 H278 0.930 . S
C268 C264 1.373 . S
C268 C266 1.383 . S
C268 H279 0.931 . S
C269 C266 1.382 . S
C269 C267 1.392 . S
C270 Eu241 2.828 1_565 S
C270 O254 1.249 . S
C270 O255 1.244 . S
C270 C264 1.505 . S
C271 O258 1.258 . S
C271 O259 1.242 . S
H272 C244 0.930 . S
H273 C245 0.930 . S
H274 C246 0.930 . S
H275 C247 0.931 . S
H276 C265 0.930 . S
H277 C266 0.930 . S
H278 C267 0.930 . S
H279 C268 0.931 . S
Eu280 C289 2.828 . S
Eu280 O291 2.392 . S
Eu280 O293 2.418 . S
Eu280 O298 2.373 . S
Eu280 O301 2.488 . S
Eu280 O302 2.471 . S
Eu280 O303 2.349 . S
Eu281 O290 2.373 . S
Eu281 O294 2.488 1_565 S
Eu281 O295 2.471 1_565 S
Eu281 O296 2.349 . S
Eu281 O299 2.392 . S
Eu281 O300 2.418 . S
Eu281 C310 2.828 1_565 S
C282 O300 1.244 . S
C282 O303 1.265 . S
C283 C284 1.379 . S
C283 C287 1.373 . S
C283 C289 1.505 . S
C284 C283 1.379 . S
C284 C286 1.369 . S
C284 H312 0.930 . S
C285 C287 1.383 . S
C285 C288 1.382 . S
C285 H313 0.930 . S
C286 C284 1.369 . S
C286 C288 1.392 . S
C286 H314 0.930 . S
C287 C283 1.373 . S
C287 C285 1.383 . S
C287 H315 0.931 . S
C288 C285 1.382 . S
C288 C286 1.392 . S
C289 Eu280 2.828 . S
C289 C283 1.505 . S
C289 O301 1.249 . S
C289 O302 1.244 . S
O290 Eu281 2.373 . S
O290 C292 1.258 . S
O291 Eu280 2.392 . S
O291 C292 1.242 . S
C292 O290 1.258 . S
C292 O291 1.242 . S
O293 Eu280 2.418 . S
O293 C297 1.244 . S
O294 Eu281 2.488 1_545 S
O294 C310 1.249 . S
O295 Eu281 2.471 1_545 S
O295 C310 1.244 . S
O296 Eu281 2.349 . S
O296 C297 1.265 . S
C297 O293 1.244 . S
C297 O296 1.265 . S
O298 Eu280 2.373 . S
O298 C311 1.258 . S
O299 Eu281 2.392 . S
O299 C311 1.242 . S
O300 Eu281 2.418 . S
O300 C282 1.244 . S
O301 Eu280 2.488 . S
O301 C289 1.249 . S
O302 Eu280 2.471 . S
O302 C289 1.244 . S
O303 Eu280 2.349 . S
O303 C282 1.265 . S
C304 C305 1.379 . S
C304 C308 1.373 . S
C304 C310 1.505 . S
C305 C304 1.379 . S
C305 C307 1.369 . S
C305 H316 0.930 . S
C306 C308 1.383 . S
C306 C309 1.382 . S
C306 H317 0.930 . S
C307 C305 1.369 . S
C307 C309 1.392 . S
C307 H318 0.930 . S
C308 C304 1.373 . S
C308 C306 1.383 . S
C308 H319 0.931 . S
C309 C306 1.382 . S
C309 C307 1.392 . S
C310 Eu281 2.828 1_545 S
C310 O294 1.249 . S
C310 O295 1.244 . S
C310 C304 1.505 . S
C311 O298 1.258 . S
C311 O299 1.242 . S
H312 C284 0.930 . S
H313 C285 0.930 . S
H314 C286 0.930 . S
H315 C287 0.931 . S
H316 C305 0.930 . S
H317 C306 0.930 . S
H318 C307 0.930 . S
H319 C308 0.931 . S
Eu320 C329 2.828 . S
Eu320 O331 2.392 . S
Eu320 O333 2.418 . S
Eu320 O338 2.373 . S
Eu320 O341 2.488 . S
Eu320 O342 2.471 . S
Eu320 O343 2.349 . S
Eu321 O330 2.373 . S
Eu321 O334 2.488 . S
Eu321 O335 2.471 . S
Eu321 O336 2.349 . S
Eu321 O339 2.392 . S
Eu321 O340 2.418 . S
Eu321 C350 2.828 . S
C322 O340 1.244 . S
C322 O343 1.265 . S
C323 C324 1.379 . S
C323 C327 1.373 . S
C323 C329 1.505 . S
C324 C323 1.379 . S
C324 C326 1.369 . S
C324 H352 0.930 . S
C325 C327 1.383 . S
C325 C328 1.382 . S
C325 H353 0.930 . S
C326 C324 1.369 . S
C326 C328 1.392 . S
C326 H354 0.930 . S
C327 C323 1.373 . S
C327 C325 1.383 . S
C327 H355 0.931 . S
C328 C325 1.382 . S
C328 C326 1.392 . S
C329 Eu320 2.828 . S
C329 C323 1.505 . S
C329 O341 1.249 . S
C329 O342 1.244 . S
O330 Eu321 2.373 . S
O330 C332 1.258 . S
O331 Eu320 2.392 . S
O331 C332 1.242 . S
C332 O330 1.258 . S
C332 O331 1.242 . S
O333 Eu320 2.418 . S
O333 C337 1.244 . S
O334 Eu321 2.488 . S
O334 C350 1.249 . S
O335 Eu321 2.471 . S
O335 C350 1.244 . S
O336 Eu321 2.349 . S
O336 C337 1.265 . S
C337 O333 1.244 . S
C337 O336 1.265 . S
O338 Eu320 2.373 . S
O338 C351 1.258 . S
O339 Eu321 2.392 . S
O339 C351 1.242 . S
O340 Eu321 2.418 . S
O340 C322 1.244 . S
O341 Eu320 2.488 . S
O341 C329 1.249 . S
O342 Eu320 2.471 . S
O342 C329 1.244 . S
O343 Eu320 2.349 . S
O343 C322 1.265 . S
C344 C345 1.379 . S
C344 C348 1.373 . S
C344 C350 1.505 . S
C345 C344 1.379 . S
C345 C347 1.369 . S
C345 H356 0.930 . S
C346 C348 1.383 . S
C346 C349 1.382 . S
C346 H357 0.930 . S
C347 C345 1.369 . S
C347 C349 1.392 . S
C347 H358 0.930 . S
C348 C344 1.373 . S
C348 C346 1.383 . S
C348 H359 0.931 . S
C349 C346 1.382 . S
C349 C347 1.392 . S
C350 Eu321 2.828 . S
C350 O334 1.249 . S
C350 O335 1.244 . S
C350 C344 1.505 . S
C351 O338 1.258 . S
C351 O339 1.242 . S
H352 C324 0.930 . S
H353 C325 0.930 . S
H354 C326 0.930 . S
H355 C327 0.931 . S
H356 C345 0.930 . S
H357 C346 0.930 . S
H358 C347 0.930 . S
H359 C348 0.931 . S
Eu360 C369 2.828 . S
Eu360 O371 2.392 . S
Eu360 O373 2.418 . S
Eu360 O378 2.373 . S
Eu360 O381 2.488 . S
Eu360 O382 2.471 . S
Eu360 O383 2.349 . S
Eu361 O370 2.373 . S
Eu361 O374 2.488 . S
Eu361 O375 2.471 . S
Eu361 O376 2.349 . S
Eu361 O379 2.392 . S
Eu361 O380 2.418 . S
Eu361 C390 2.828 . S
C362 O380 1.244 . S
C362 O383 1.265 . S
C363 C364 1.379 . S
C363 C367 1.373 . S
C363 C369 1.505 . S
C364 C363 1.379 . S
C364 C366 1.369 . S
C364 H392 0.930 . S
C365 C367 1.383 . S
C365 C368 1.382 . S
C365 H393 0.930 . S
C366 C364 1.369 . S
C366 C368 1.392 . S
C366 H394 0.930 . S
C367 C363 1.373 . S
C367 C365 1.383 . S
C367 H395 0.931 . S
C368 C365 1.382 . S
C368 C366 1.392 . S
C369 Eu360 2.828 . S
C369 C363 1.505 . S
C369 O381 1.249 . S
C369 O382 1.244 . S
O370 Eu361 2.373 . S
O370 C372 1.258 . S
O371 Eu360 2.392 . S
O371 C372 1.242 . S
C372 O370 1.258 . S
C372 O371 1.242 . S
O373 Eu360 2.418 . S
O373 C377 1.244 . S
O374 Eu361 2.488 . S
O374 C390 1.249 . S
O375 Eu361 2.471 . S
O375 C390 1.244 . S
O376 Eu361 2.349 . S
O376 C377 1.265 . S
C377 O373 1.244 . S
C377 O376 1.265 . S
O378 Eu360 2.373 . S
O378 C391 1.258 . S
O379 Eu361 2.392 . S
O379 C391 1.242 . S
O380 Eu361 2.418 . S
O380 C362 1.244 . S
O381 Eu360 2.488 . S
O381 C369 1.249 . S
O382 Eu360 2.471 . S
O382 C369 1.244 . S
O383 Eu360 2.349 . S
O383 C362 1.265 . S
C384 C385 1.379 . S
C384 C388 1.373 . S
C384 C390 1.505 . S
C385 C384 1.379 . S
C385 C387 1.369 . S
C385 H396 0.930 . S
C386 C388 1.383 . S
C386 C389 1.382 . S
C386 H397 0.930 . S
C387 C385 1.369 . S
C387 C389 1.392 . S
C387 H398 0.930 . S
C388 C384 1.373 . S
C388 C386 1.383 . S
C388 H399 0.931 . S
C389 C386 1.382 . S
C389 C387 1.392 . S
C390 Eu361 2.828 . S
C390 O374 1.249 . S
C390 O375 1.244 . S
C390 C384 1.505 . S
C391 O378 1.258 . S
C391 O379 1.242 . S
H392 C364 0.930 . S
H393 C365 0.930 . S
H394 C366 0.930 . S
H395 C367 0.931 . S
H396 C385 0.930 . S
H397 C386 0.930 . S
H398 C387 0.930 . S
H399 C388 0.931 . S
Eu400 C409 2.828 . S
Eu400 O411 2.392 . S
Eu400 O413 2.418 . S
Eu400 O418 2.373 . S
Eu400 O421 2.488 . S
Eu400 O422 2.471 . S
Eu400 O423 2.349 . S
Eu401 O410 2.373 . S
Eu401 O414 2.488 . S
Eu401 O415 2.471 . S
Eu401 O416 2.349 . S
Eu401 O419 2.392 . S
Eu401 O420 2.418 . S
Eu401 C430 2.828 . S
C402 O420 1.244 . S
C402 O423 1.265 . S
C403 C404 1.379 . S
C403 C407 1.373 . S
C403 C409 1.505 . S
C404 C403 1.379 . S
C404 C406 1.369 . S
C404 H432 0.930 . S
C405 C407 1.383 . S
C405 C408 1.382 . S
C405 H433 0.930 . S
C406 C404 1.369 . S
C406 C408 1.392 . S
C406 H434 0.930 . S
C407 C403 1.373 . S
C407 C405 1.383 . S
C407 H435 0.931 . S
C408 C405 1.382 . S
C408 C406 1.392 . S
C409 Eu400 2.828 . S
C409 C403 1.505 . S
C409 O421 1.249 . S
C409 O422 1.244 . S
O410 Eu401 2.373 . S
O410 C412 1.258 . S
O411 Eu400 2.392 . S
O411 C412 1.242 . S
C412 O410 1.258 . S
C412 O411 1.242 . S
O413 Eu400 2.418 . S
O413 C417 1.244 . S
O414 Eu401 2.488 . S
O414 C430 1.249 . S
O415 Eu401 2.471 . S
O415 C430 1.244 . S
O416 Eu401 2.349 . S
O416 C417 1.265 . S
C417 O413 1.244 . S
C417 O416 1.265 . S
O418 Eu400 2.373 . S
O418 C431 1.258 . S
O419 Eu401 2.392 . S
O419 C431 1.242 . S
O420 Eu401 2.418 . S
O420 C402 1.244 . S
O421 Eu400 2.488 . S
O421 C409 1.249 . S
O422 Eu400 2.471 . S
O422 C409 1.244 . S
O423 Eu400 2.349 . S
O423 C402 1.265 . S
C424 C425 1.379 . S
C424 C428 1.373 . S
C424 C430 1.505 . S
C425 C424 1.379 . S
C425 C427 1.369 . S
C425 H436 0.930 . S
C426 C428 1.383 . S
C426 C429 1.382 . S
C426 H437 0.930 . S
C427 C425 1.369 . S
C427 C429 1.392 . S
C427 H438 0.930 . S
C428 C424 1.373 . S
C428 C426 1.383 . S
C428 H439 0.931 . S
C429 C426 1.382 . S
C429 C427 1.392 . S
C430 Eu401 2.828 . S
C430 O414 1.249 . S
C430 O415 1.244 . S
C430 C424 1.505 . S
C431 O418 1.258 . S
C431 O419 1.242 . S
H432 C404 0.930 . S
H433 C405 0.930 . S
H434 C406 0.930 . S
H435 C407 0.931 . S
H436 C425 0.930 . S
H437 C426 0.930 . S
H438 C427 0.930 . S
H439 C428 0.931 . S
Eu440 C449 2.828 . S
Eu440 O451 2.392 . S
Eu440 O453 2.418 . S
Eu440 O458 2.373 . S
Eu440 O461 2.488 . S
Eu440 O462 2.471 . S
Eu440 O463 2.349 . S
Eu441 O450 2.373 . S
Eu441 O454 2.488 . S
Eu441 O455 2.471 . S
Eu441 O456 2.349 . S
Eu441 O459 2.392 . S
Eu441 O460 2.418 . S
Eu441 C470 2.828 . S
C442 O460 1.244 . S
C442 O463 1.265 . S
C443 C444 1.379 . S
C443 C447 1.373 . S
C443 C449 1.505 . S
C444 C443 1.379 . S
C444 C446 1.369 . S
C444 H472 0.930 . S
C445 C447 1.383 . S
C445 C448 1.382 . S
C445 H473 0.930 . S
C446 C444 1.369 . S
C446 C448 1.392 . S
C446 H474 0.930 . S
C447 C443 1.373 . S
C447 C445 1.383 . S
C447 H475 0.931 . S
C448 C445 1.382 . S
C448 C446 1.392 . S
C449 Eu440 2.828 . S
C449 C443 1.505 . S
C449 O461 1.249 . S
C449 O462 1.244 . S
O450 Eu441 2.373 . S
O450 C452 1.258 . S
O451 Eu440 2.392 . S
O451 C452 1.242 . S
C452 O450 1.258 . S
C452 O451 1.242 . S
O453 Eu440 2.418 . S
O453 C457 1.244 . S
O454 Eu441 2.488 . S
O454 C470 1.249 . S
O455 Eu441 2.471 . S
O455 C470 1.244 . S
O456 Eu441 2.349 . S
O456 C457 1.265 . S
C457 O453 1.244 . S
C457 O456 1.265 . S
O458 Eu440 2.373 . S
O458 C471 1.258 . S
O459 Eu441 2.392 . S
O459 C471 1.242 . S
O460 Eu441 2.418 . S
O460 C442 1.244 . S
O461 Eu440 2.488 . S
O461 C449 1.249 . S
O462 Eu440 2.471 . S
O462 C449 1.244 . S
O463 Eu440 2.349 . S
O463 C442 1.265 . S
C464 C465 1.379 . S
C464 C468 1.373 . S
C464 C470 1.505 . S
C465 C464 1.379 . S
C465 C467 1.369 . S
C465 H476 0.930 . S
C466 C468 1.383 . S
C466 C469 1.382 . S
C466 H477 0.930 . S
C467 C465 1.369 . S
C467 C469 1.392 . S
C467 H478 0.930 . S
C468 C464 1.373 . S
C468 C466 1.383 . S
C468 H479 0.931 . S
C469 C466 1.382 . S
C469 C467 1.392 . S
C470 Eu441 2.828 . S
C470 O454 1.249 . S
C470 O455 1.244 . S
C470 C464 1.505 . S
C471 O458 1.258 . S
C471 O459 1.242 . S
H472 C444 0.930 . S
H473 C445 0.930 . S
H474 C446 0.930 . S
H475 C447 0.931 . S
H476 C465 0.930 . S
H477 C466 0.930 . S
H478 C467 0.930 . S
H479 C468 0.931 . S
Eu480 C489 2.828 . S
Eu480 O491 2.392 . S
Eu480 O493 2.418 . S
Eu480 O498 2.373 . S
Eu480 O501 2.488 . S
Eu480 O502 2.471 . S
Eu480 O503 2.349 . S
Eu481 O490 2.373 . S
Eu481 O494 2.488 . S
Eu481 O495 2.471 . S
Eu481 O496 2.349 . S
Eu481 O499 2.392 . S
Eu481 O500 2.418 . S
Eu481 C510 2.828 . S
C482 O500 1.244 . S
C482 O503 1.265 . S
C483 C484 1.379 . S
C483 C487 1.373 . S
C483 C489 1.505 . S
C484 C483 1.379 . S
C484 C486 1.369 . S
C484 H512 0.930 . S
C485 C487 1.383 . S
C485 C488 1.382 . S
C485 H513 0.930 . S
C486 C484 1.369 . S
C486 C488 1.392 . S
C486 H514 0.930 . S
C487 C483 1.373 . S
C487 C485 1.383 . S
C487 H515 0.931 . S
C488 C485 1.382 . S
C488 C486 1.392 . S
C489 Eu480 2.828 . S
C489 C483 1.505 . S
C489 O501 1.249 . S
C489 O502 1.244 . S
O490 Eu481 2.373 . S
O490 C492 1.258 . S
O491 Eu480 2.392 . S
O491 C492 1.242 . S
C492 O490 1.258 . S
C492 O491 1.242 . S
O493 Eu480 2.418 . S
O493 C497 1.244 . S
O494 Eu481 2.488 . S
O494 C510 1.249 . S
O495 Eu481 2.471 . S
O495 C510 1.244 . S
O496 Eu481 2.349 . S
O496 C497 1.265 . S
C497 O493 1.244 . S
C497 O496 1.265 . S
O498 Eu480 2.373 . S
O498 C511 1.258 . S
O499 Eu481 2.392 . S
O499 C511 1.242 . S
O500 Eu481 2.418 . S
O500 C482 1.244 . S
O501 Eu480 2.488 . S
O501 C489 1.249 . S
O502 Eu480 2.471 . S
O502 C489 1.244 . S
O503 Eu480 2.349 . S
O503 C482 1.265 . S
C504 C505 1.379 . S
C504 C508 1.373 . S
C504 C510 1.505 . S
C505 C504 1.379 . S
C505 C507 1.369 . S
C505 H516 0.930 . S
C506 C508 1.383 . S
C506 C509 1.382 . S
C506 H517 0.930 . S
C507 C505 1.369 . S
C507 C509 1.392 . S
C507 H518 0.930 . S
C508 C504 1.373 . S
C508 C506 1.383 . S
C508 H519 0.931 . S
C509 C506 1.382 . S
C509 C507 1.392 . S
C510 Eu481 2.828 . S
C510 O494 1.249 . S
C510 O495 1.244 . S
C510 C504 1.505 . S
C511 O498 1.258 . S
C511 O499 1.242 . S
H512 C484 0.930 . S
H513 C485 0.930 . S
H514 C486 0.930 . S
H515 C487 0.931 . S
H516 C505 0.930 . S
H517 C506 0.930 . S
H518 C507 0.930 . S
H519 C508 0.931 . S
Eu520 C529 2.828 . S
Eu520 O531 2.392 . S
Eu520 O533 2.418 . S
Eu520 O538 2.373 . S
Eu520 O541 2.488 . S
Eu520 O542 2.471 . S
Eu520 O543 2.349 . S
Eu521 O530 2.373 . S
Eu521 O534 2.488 . S
Eu521 O535 2.471 . S
Eu521 O536 2.349 . S
Eu521 O539 2.392 . S
Eu521 O540 2.418 . S
Eu521 C550 2.828 . S
C522 O540 1.244 . S
C522 O543 1.265 . S
C523 C524 1.379 . S
C523 C527 1.373 . S
C523 C529 1.505 . S
C524 C523 1.379 . S
C524 C526 1.369 . S
C524 H552 0.930 . S
C525 C527 1.383 . S
C525 C528 1.382 . S
C525 H553 0.930 . S
C526 C524 1.369 . S
C526 C528 1.392 . S
C526 H554 0.930 . S
C527 C523 1.373 . S
C527 C525 1.383 . S
C527 H555 0.931 . S
C528 C525 1.382 . S
C528 C526 1.392 . S
C529 Eu520 2.828 . S
C529 C523 1.505 . S
C529 O541 1.249 . S
C529 O542 1.244 . S
O530 Eu521 2.373 . S
O530 C532 1.258 . S
O531 Eu520 2.392 . S
O531 C532 1.242 . S
C532 O530 1.258 . S
C532 O531 1.242 . S
O533 Eu520 2.418 . S
O533 C537 1.244 . S
O534 Eu521 2.488 . S
O534 C550 1.249 . S
O535 Eu521 2.471 . S
O535 C550 1.244 . S
O536 Eu521 2.349 . S
O536 C537 1.265 . S
C537 O533 1.244 . S
C537 O536 1.265 . S
O538 Eu520 2.373 . S
O538 C551 1.258 . S
O539 Eu521 2.392 . S
O539 C551 1.242 . S
O540 Eu521 2.418 . S
O540 C522 1.244 . S
O541 Eu520 2.488 . S
O541 C529 1.249 . S
O542 Eu520 2.471 . S
O542 C529 1.244 . S
O543 Eu520 2.349 . S
O543 C522 1.265 . S
C544 C545 1.379 . S
C544 C548 1.373 . S
C544 C550 1.505 . S
C545 C544 1.379 . S
C545 C547 1.369 . S
C545 H556 0.930 . S
C546 C548 1.383 . S
C546 C549 1.382 . S
C546 H557 0.930 . S
C547 C545 1.369 . S
C547 C549 1.392 . S
C547 H558 0.930 . S
C548 C544 1.373 . S
C548 C546 1.383 . S
C548 H559 0.931 . S
C549 C546 1.382 . S
C549 C547 1.392 . S
C550 Eu521 2.828 . S
C550 O534 1.249 . S
C550 O535 1.244 . S
C550 C544 1.505 . S
C551 O538 1.258 . S
C551 O539 1.242 . S
H552 C524 0.930 . S
H553 C525 0.930 . S
H554 C526 0.930 . S
H555 C527 0.931 . S
H556 C545 0.930 . S
H557 C546 0.930 . S
H558 C547 0.930 . S
H559 C548 0.931 . S
Eu560 C569 2.828 . S
Eu560 O571 2.392 . S
Eu560 O573 2.418 . S
Eu560 O578 2.373 . S
Eu560 O581 2.488 . S
Eu560 O582 2.471 . S
Eu560 O583 2.349 . S
Eu561 O570 2.373 . S
Eu561 O574 2.488 . S
Eu561 O575 2.471 . S
Eu561 O576 2.349 . S
Eu561 O579 2.392 . S
Eu561 O580 2.418 . S
Eu561 C590 2.828 . S
C562 O580 1.244 . S
C562 O583 1.265 . S
C563 C564 1.379 . S
C563 C567 1.373 . S
C563 C569 1.505 . S
C564 C563 1.379 . S
C564 C566 1.369 . S
C564 H592 0.930 . S
C565 C567 1.383 . S
C565 C568 1.382 . S
C565 H593 0.930 . S
C566 C564 1.369 . S
C566 C568 1.392 . S
C566 H594 0.930 . S
C567 C563 1.373 . S
C567 C565 1.383 . S
C567 H595 0.931 . S
C568 C565 1.382 . S
C568 C566 1.392 . S
C569 Eu560 2.828 . S
C569 C563 1.505 . S
C569 O581 1.249 . S
C569 O582 1.244 . S
O570 Eu561 2.373 . S
O570 C572 1.258 . S
O571 Eu560 2.392 . S
O571 C572 1.242 . S
C572 O570 1.258 . S
C572 O571 1.242 . S
O573 Eu560 2.418 . S
O573 C577 1.244 . S
O574 Eu561 2.488 . S
O574 C590 1.249 . S
O575 Eu561 2.471 . S
O575 C590 1.244 . S
O576 Eu561 2.349 . S
O576 C577 1.265 . S
C577 O573 1.244 . S
C577 O576 1.265 . S
O578 Eu560 2.373 . S
O578 C591 1.258 . S
O579 Eu561 2.392 . S
O579 C591 1.242 . S
O580 Eu561 2.418 . S
O580 C562 1.244 . S
O581 Eu560 2.488 . S
O581 C569 1.249 . S
O582 Eu560 2.471 . S
O582 C569 1.244 . S
O583 Eu560 2.349 . S
O583 C562 1.265 . S
C584 C585 1.379 . S
C584 C588 1.373 . S
C584 C590 1.505 . S
C585 C584 1.379 . S
C585 C587 1.369 . S
C585 H596 0.930 . S
C586 C588 1.383 . S
C586 C589 1.382 . S
C586 H597 0.930 . S
C587 C585 1.369 . S
C587 C589 1.392 . S
C587 H598 0.930 . S
C588 C584 1.373 . S
C588 C586 1.383 . S
C588 H599 0.931 . S
C589 C586 1.382 . S
C589 C587 1.392 . S
C590 Eu561 2.828 . S
C590 O574 1.249 . S
C590 O575 1.244 . S
C590 C584 1.505 . S
C591 O578 1.258 . S
C591 O579 1.242 . S
H592 C564 0.930 . S
H593 C565 0.930 . S
H594 C566 0.930 . S
H595 C567 0.931 . S
H596 C585 0.930 . S
H597 C586 0.930 . S
H598 C587 0.930 . S
H599 C588 0.931 . S
Eu600 C609 2.828 . S
Eu600 O611 2.392 . S
Eu600 O613 2.418 . S
Eu600 O618 2.373 . S
Eu600 O621 2.488 . S
Eu600 O622 2.471 . S
Eu600 O623 2.349 . S
Eu601 O610 2.373 . S
Eu601 O614 2.488 . S
Eu601 O615 2.471 . S
Eu601 O616 2.349 . S
Eu601 O619 2.392 . S
Eu601 O620 2.418 . S
Eu601 C630 2.828 . S
C602 O620 1.244 . S
C602 O623 1.265 . S
C603 C604 1.379 . S
C603 C607 1.373 . S
C603 C609 1.505 . S
C604 C603 1.379 . S
C604 C606 1.369 . S
C604 H632 0.930 . S
C605 C607 1.383 . S
C605 C608 1.382 . S
C605 H633 0.930 . S
C606 C604 1.369 . S
C606 C608 1.392 . S
C606 H634 0.930 . S
C607 C603 1.373 . S
C607 C605 1.383 . S
C607 H635 0.931 . S
C608 C605 1.382 . S
C608 C606 1.392 . S
C609 Eu600 2.828 . S
C609 C603 1.505 . S
C609 O621 1.249 . S
C609 O622 1.244 . S
O610 Eu601 2.373 . S
O610 C612 1.258 . S
O611 Eu600 2.392 . S
O611 C612 1.242 . S
C612 O610 1.258 . S
C612 O611 1.242 . S
O613 Eu600 2.418 . S
O613 C617 1.244 . S
O614 Eu601 2.488 . S
O614 C630 1.249 . S
O615 Eu601 2.471 . S
O615 C630 1.244 . S
O616 Eu601 2.349 . S
O616 C617 1.265 . S
C617 O613 1.244 . S
C617 O616 1.265 . S
O618 Eu600 2.373 . S
O618 C631 1.258 . S
O619 Eu601 2.392 . S
O619 C631 1.242 . S
O620 Eu601 2.418 . S
O620 C602 1.244 . S
O621 Eu600 2.488 . S
O621 C609 1.249 . S
O622 Eu600 2.471 . S
O622 C609 1.244 . S
O623 Eu600 2.349 . S
O623 C602 1.265 . S
C624 C625 1.379 . S
C624 C628 1.373 . S
C624 C630 1.505 . S
C625 C624 1.379 . S
C625 C627 1.369 . S
C625 H636 0.930 . S
C626 C628 1.383 . S
C626 C629 1.382 . S
C626 H637 0.930 . S
C627 C625 1.369 . S
C627 C629 1.392 . S
C627 H638 0.930 . S
C628 C624 1.373 . S
C628 C626 1.383 . S
C628 H639 0.931 . S
C629 C626 1.382 . S
C629 C627 1.392 . S
C630 Eu601 2.828 . S
C630 O614 1.249 . S
C630 O615 1.244 . S
C630 C624 1.505 . S
C631 O618 1.258 . S
C631 O619 1.242 . S
H632 C604 0.930 . S
H633 C605 0.930 . S
H634 C606 0.930 . S
H635 C607 0.931 . S
H636 C625 0.930 . S
H637 C626 0.930 . S
H638 C627 0.930 . S
H639 C628 0.931 . S
C640 C641 1.349 . S
C640 C642 1.327 . S
C640 H665 0.950 . S
C641 C640 1.349 . S
C641 C657 1.349 . S
C642 C640 1.327 . S
C642 C661 1.429 . S
C642 H666 0.950 . S
C643 C660 1.574 . S
C643 C662 1.368 . S
C643 H667 0.949 . S
H644 C648 0.949 . S
C645 C646 1.349 . S
C645 C647 1.327 . S
C645 H668 0.950 . S
C646 C645 1.349 . S
C646 C658 1.349 . S
C647 C645 1.327 . S
C647 C663 1.429 . S
C647 H669 0.950 . S
C648 H644 0.949 . S
C648 C656 1.574 . S
C648 C664 1.368 . S
H649 C657 0.950 . S
H650 C655 0.950 . S
H651 C656 0.949 . S
H652 C658 0.950 . S
H653 C659 0.950 . S
H654 C660 0.949 . S
C655 H650 0.950 . S
C655 C657 1.327 . S
C655 C661 1.429 . S
C656 C648 1.574 . S
C656 H651 0.949 . S
C656 C662 1.368 . S
C657 C641 1.349 . S
C657 H649 0.950 . S
C657 C655 1.327 . S
C658 C646 1.349 . S
C658 H652 0.950 . S
C658 C659 1.327 . S
C659 H653 0.950 . S
C659 C658 1.327 . S
C659 C663 1.429 . S
C660 C643 1.574 . S
C660 H654 0.949 . S
C660 C664 1.368 . S
C661 C642 1.429 . S
C661 C655 1.429 . S
C661 C662 1.523 . S
C662 C643 1.368 . S
C662 C656 1.368 . S
C662 C661 1.523 . S
C663 C647 1.429 . S
C663 C659 1.429 . S
C663 C664 1.523 . S
C664 C648 1.368 . S
C664 C660 1.368 . S
C664 C663 1.523 . S
H665 C640 0.950 . S
H666 C642 0.950 . S
H667 C643 0.949 . S
H668 C645 0.950 . S
H669 C647 0.950 . S
C670 C671 1.349 . S
C670 C672 1.327 . S
C670 H695 0.950 . S
C671 C670 1.349 . S
C671 C687 1.349 . S
C672 C670 1.327 . S
C672 C691 1.429 . S
C672 H696 0.950 . S
C673 C690 1.574 . S
C673 C692 1.368 . S
C673 H697 0.949 . S
H674 C678 0.949 . S
C675 C676 1.349 . S
C675 C677 1.327 . S
C675 H698 0.950 . S
C676 C675 1.349 . S
C676 C688 1.349 . S
C677 C675 1.327 . S
C677 C693 1.429 . S
C677 H699 0.950 . S
C678 H674 0.949 . S
C678 C686 1.574 . S
C678 C694 1.368 . S
H679 C687 0.950 . S
H680 C685 0.950 . S
H681 C686 0.949 . S
H682 C688 0.950 . S
H683 C689 0.950 . S
H684 C690 0.949 . S
C685 H680 0.950 . S
C685 C687 1.327 . S
C685 C691 1.429 . S
C686 C678 1.574 . S
C686 H681 0.949 . S
C686 C692 1.368 . S
C687 C671 1.349 . S
C687 H679 0.950 . S
C687 C685 1.327 . S
C688 C676 1.349 . S
C688 H682 0.950 . S
C688 C689 1.327 . S
C689 H683 0.950 . S
C689 C688 1.327 . S
C689 C693 1.429 . S
C690 C673 1.574 . S
C690 H684 0.949 . S
C690 C694 1.368 . S
C691 C672 1.429 . S
C691 C685 1.429 . S
C691 C692 1.523 . S
C692 C673 1.368 . S
C692 C686 1.368 . S
C692 C691 1.523 . S
C693 C677 1.429 . S
C693 C689 1.429 . S
C693 C694 1.523 . S
C694 C678 1.368 . S
C694 C690 1.368 . S
C694 C693 1.523 . S
H695 C670 0.950 . S
H696 C672 0.950 . S
H697 C673 0.949 . S
H698 C675 0.950 . S
H699 C677 0.950 . S
C700 C701 1.349 . S
C700 C702 1.327 . S
C700 H725 0.950 . S
C701 C700 1.349 . S
C701 C717 1.349 . S
C702 C700 1.327 . S
C702 C721 1.429 . S
C702 H726 0.950 . S
C703 C720 1.574 . S
C703 C722 1.368 . S
C703 H727 0.949 . S
H704 C708 0.949 . S
C705 C706 1.349 . S
C705 C707 1.327 . S
C705 H728 0.950 . S
C706 C705 1.349 . S
C706 C718 1.349 . S
C707 C705 1.327 . S
C707 C723 1.429 . S
C707 H729 0.950 . S
C708 H704 0.949 . S
C708 C716 1.574 . S
C708 C724 1.368 . S
H709 C717 0.950 . S
H710 C715 0.950 . S
H711 C716 0.949 . S
H712 C718 0.950 . S
H713 C719 0.950 . S
H714 C720 0.949 . S
C715 H710 0.950 . S
C715 C717 1.327 . S
C715 C721 1.429 . S
C716 C708 1.574 . S
C716 H711 0.949 . S
C716 C722 1.368 . S
C717 C701 1.349 . S
C717 H709 0.950 . S
C717 C715 1.327 . S
C718 C706 1.349 . S
C718 H712 0.950 . S
C718 C719 1.327 . S
C719 H713 0.950 . S
C719 C718 1.327 . S
C719 C723 1.429 . S
C720 C703 1.574 . S
C720 H714 0.949 . S
C720 C724 1.368 . S
C721 C702 1.429 . S
C721 C715 1.429 . S
C721 C722 1.523 . S
C722 C703 1.368 . S
C722 C716 1.368 . S
C722 C721 1.523 . S
C723 C707 1.429 . S
C723 C719 1.429 . S
C723 C724 1.523 . S
C724 C708 1.368 . S
C724 C720 1.368 . S
C724 C723 1.523 . S
H725 C700 0.950 . S
H726 C702 0.950 . S
H727 C703 0.949 . S
H728 C705 0.950 . S
H729 C707 0.950 . S
C730 C731 1.349 . S
C730 C732 1.327 . S
C730 H755 0.950 . S
C731 C730 1.349 . S
C731 C747 1.349 . S
C732 C730 1.327 . S
C732 C751 1.429 . S
C732 H756 0.950 . S
C733 C750 1.574 . S
C733 C752 1.368 . S
C733 H757 0.949 . S
H734 C738 0.949 . S
C735 C736 1.349 . S
C735 C737 1.327 . S
C735 H758 0.950 . S
C736 C735 1.349 . S
C736 C748 1.349 . S
C737 C735 1.327 . S
C737 C753 1.429 . S
C737 H759 0.950 . S
C738 H734 0.949 . S
C738 C746 1.574 . S
C738 C754 1.368 . S
H739 C747 0.950 . S
H740 C745 0.950 . S
H741 C746 0.949 . S
H742 C748 0.950 . S
H743 C749 0.950 . S
H744 C750 0.949 . S
C745 H740 0.950 . S
C745 C747 1.327 . S
C745 C751 1.429 . S
C746 C738 1.574 . S
C746 H741 0.949 . S
C746 C752 1.368 . S
C747 C731 1.349 . S
C747 H739 0.950 . S
C747 C745 1.327 . S
C748 C736 1.349 . S
C748 H742 0.950 . S
C748 C749 1.327 . S
C749 H743 0.950 . S
C749 C748 1.327 . S
C749 C753 1.429 . S
C750 C733 1.574 . S
C750 H744 0.949 . S
C750 C754 1.368 . S
C751 C732 1.429 . S
C751 C745 1.429 . S
C751 C752 1.523 . S
C752 C733 1.368 . S
C752 C746 1.368 . S
C752 C751 1.523 . S
C753 C737 1.429 . S
C753 C749 1.429 . S
C753 C754 1.523 . S
C754 C738 1.368 . S
C754 C750 1.368 . S
C754 C753 1.523 . S
H755 C730 0.950 . S
H756 C732 0.950 . S
H757 C733 0.949 . S
H758 C735 0.950 . S
H759 C737 0.950 . S
C760 C761 1.349 . S
C760 C762 1.327 . S
C760 H785 0.950 . S
C761 C760 1.349 . S
C761 C777 1.349 . S
C762 C760 1.327 . S
C762 C781 1.429 . S
C762 H786 0.950 . S
C763 C780 1.574 . S
C763 C782 1.368 . S
C763 H787 0.949 . S
H764 C768 0.949 . S
C765 C766 1.349 . S
C765 C767 1.327 . S
C765 H788 0.950 . S
C766 C765 1.349 . S
C766 C778 1.349 . S
C767 C765 1.327 . S
C767 C783 1.429 . S
C767 H789 0.950 . S
C768 H764 0.949 . S
C768 C776 1.574 . S
C768 C784 1.368 . S
H769 C777 0.950 . S
H770 C775 0.950 . S
H771 C776 0.949 . S
H772 C778 0.950 . S
H773 C779 0.950 . S
H774 C780 0.949 . S
C775 H770 0.950 . S
C775 C777 1.327 . S
C775 C781 1.429 . S
C776 C768 1.574 . S
C776 H771 0.949 . S
C776 C782 1.368 . S
C777 C761 1.349 . S
C777 H769 0.950 . S
C777 C775 1.327 . S
C778 C766 1.349 . S
C778 H772 0.950 . S
C778 C779 1.327 . S
C779 H773 0.950 . S
C779 C778 1.327 . S
C779 C783 1.429 . S
C780 C763 1.574 . S
C780 H774 0.949 . S
C780 C784 1.368 . S
C781 C762 1.429 . S
C781 C775 1.429 . S
C781 C782 1.523 . S
C782 C763 1.368 . S
C782 C776 1.368 . S
C782 C781 1.523 . S
C783 C767 1.429 . S
C783 C779 1.429 . S
C783 C784 1.523 . S
C784 C768 1.368 . S
C784 C780 1.368 . S
C784 C783 1.523 . S
H785 C760 0.950 . S
H786 C762 0.950 . S
H787 C763 0.949 . S
H788 C765 0.950 . S
H789 C767 0.950 . S
C790 C791 1.349 . S
C790 C792 1.327 . S
C790 H815 0.950 . S
C791 C790 1.349 . S
C791 C807 1.349 . S
C792 C790 1.327 . S
C792 C811 1.429 . S
C792 H816 0.950 . S
C793 C810 1.574 . S
C793 C812 1.368 . S
C793 H817 0.949 . S
H794 C798 0.949 . S
C795 C796 1.349 . S
C795 C797 1.327 . S
C795 H818 0.950 . S
C796 C795 1.349 . S
C796 C808 1.349 . S
C797 C795 1.327 . S
C797 C813 1.429 . S
C797 H819 0.950 . S
C798 H794 0.949 . S
C798 C806 1.574 . S
C798 C814 1.368 . S
H799 C807 0.950 . S
H800 C805 0.950 . S
H801 C806 0.949 . S
H802 C808 0.950 . S
H803 C809 0.950 . S
H804 C810 0.949 . S
C805 H800 0.950 . S
C805 C807 1.327 . S
C805 C811 1.429 . S
C806 C798 1.574 . S
C806 H801 0.949 . S
C806 C812 1.368 . S
C807 C791 1.349 . S
C807 H799 0.950 . S
C807 C805 1.327 . S
C808 C796 1.349 . S
C808 H802 0.950 . S
C808 C809 1.327 . S
C809 H803 0.950 . S
C809 C808 1.327 . S
C809 C813 1.429 . S
C810 C793 1.574 . S
C810 H804 0.949 . S
C810 C814 1.368 . S
C811 C792 1.429 . S
C811 C805 1.429 . S
C811 C812 1.523 . S
C812 C793 1.368 . S
C812 C806 1.368 . S
C812 C811 1.523 . S
C813 C797 1.429 . S
C813 C809 1.429 . S
C813 C814 1.523 . S
C814 C798 1.368 . S
C814 C810 1.368 . S
C814 C813 1.523 . S
H815 C790 0.950 . S
H816 C792 0.950 . S
H817 C793 0.949 . S
H818 C795 0.950 . S
H819 C797 0.950 . S
C820 C821 1.349 . S
C820 C822 1.327 . S
C820 H845 0.950 . S
C821 C820 1.349 . S
C821 C837 1.349 . S
C822 C820 1.327 . S
C822 C841 1.429 . S
C822 H846 0.950 . S
C823 C840 1.574 . S
C823 C842 1.368 . S
C823 H847 0.949 . S
H824 C828 0.949 . S
C825 C826 1.349 . S
C825 C827 1.327 . S
C825 H848 0.950 . S
C826 C825 1.349 . S
C826 C838 1.349 . S
C827 C825 1.327 . S
C827 C843 1.429 . S
C827 H849 0.950 . S
C828 H824 0.949 . S
C828 C836 1.574 . S
C828 C844 1.368 . S
H829 C837 0.950 . S
H830 C835 0.950 . S
H831 C836 0.949 . S
H832 C838 0.950 . S
H833 C839 0.950 . S
H834 C840 0.949 . S
C835 H830 0.950 . S
C835 C837 1.327 . S
C835 C841 1.429 . S
C836 C828 1.574 . S
C836 H831 0.949 . S
C836 C842 1.368 . S
C837 C821 1.349 . S
C837 H829 0.950 . S
C837 C835 1.327 . S
C838 C826 1.349 . S
C838 H832 0.950 . S
C838 C839 1.327 . S
C839 H833 0.950 . S
C839 C838 1.327 . S
C839 C843 1.429 . S
C840 C823 1.574 . S
C840 H834 0.949 . S
C840 C844 1.368 . S
C841 C822 1.429 . S
C841 C835 1.429 . S
C841 C842 1.523 . S
C842 C823 1.368 . S
C842 C836 1.368 . S
C842 C841 1.523 . S
C843 C827 1.429 . S
C843 C839 1.429 . S
C843 C844 1.523 . S
C844 C828 1.368 . S
C844 C840 1.368 . S
C844 C843 1.523 . S
H845 C820 0.950 . S
H846 C822 0.950 . S
H847 C823 0.949 . S
H848 C825 0.950 . S
H849 C827 0.950 . S
C850 C851 1.349 . S
C850 C852 1.327 . S
C850 H875 0.950 . S
C851 C850 1.349 . S
C851 C867 1.349 . S
C852 C850 1.327 . S
C852 C871 1.429 . S
C852 H876 0.950 . S
C853 C870 1.574 . S
C853 C872 1.368 . S
C853 H877 0.949 . S
H854 C858 0.949 . S
C855 C856 1.349 . S
C855 C857 1.327 . S
C855 H878 0.950 . S
C856 C855 1.349 . S
C856 C868 1.349 . S
C857 C855 1.327 . S
C857 C873 1.429 . S
C857 H879 0.950 . S
C858 H854 0.949 . S
C858 C866 1.574 . S
C858 C874 1.368 . S
H859 C867 0.950 . S
H860 C865 0.950 . S
H861 C866 0.949 . S
H862 C868 0.950 . S
H863 C869 0.950 . S
H864 C870 0.949 . S
C865 H860 0.950 . S
C865 C867 1.327 . S
C865 C871 1.429 . S
C866 C858 1.574 . S
C866 H861 0.949 . S
C866 C872 1.368 . S
C867 C851 1.349 . S
C867 H859 0.950 . S
C867 C865 1.327 . S
C868 C856 1.349 . S
C868 H862 0.950 . S
C868 C869 1.327 . S
C869 H863 0.950 . S
C869 C868 1.327 . S
C869 C873 1.429 . S
C870 C853 1.574 . S
C870 H864 0.949 . S
C870 C874 1.368 . S
C871 C852 1.429 . S
C871 C865 1.429 . S
C871 C872 1.523 . S
C872 C853 1.368 . S
C872 C866 1.368 . S
C872 C871 1.523 . S
C873 C857 1.429 . S
C873 C869 1.429 . S
C873 C874 1.523 . S
C874 C858 1.368 . S
C874 C870 1.368 . S
C874 C873 1.523 . S
H875 C850 0.950 . S
H876 C852 0.950 . S
H877 C853 0.949 . S
H878 C855 0.950 . S
H879 C857 0.950 . S
C880 C881 1.349 . S
C880 C882 1.327 . S
C880 H905 0.950 . S
C881 C880 1.349 . S
C881 C897 1.349 . S
C882 C880 1.327 . S
C882 C901 1.429 . S
C882 H906 0.950 . S
C883 C900 1.574 1_565 S
C883 C902 1.368 . S
C883 H907 0.949 . S
H884 C888 0.949 . S
C885 C886 1.349 . S
C885 C887 1.327 . S
C885 H908 0.950 . S
C886 C885 1.349 . S
C886 C898 1.349 . S
C887 C885 1.327 . S
C887 C903 1.429 . S
C887 H909 0.950 . S
C888 H884 0.949 . S
C888 C896 1.574 1_545 S
C888 C904 1.368 . S
H889 C897 0.950 . S
H890 C895 0.950 . S
H891 C896 0.949 . S
H892 C898 0.950 . S
H893 C899 0.950 . S
H894 C900 0.949 . S
C895 H890 0.950 . S
C895 C897 1.327 . S
C895 C901 1.429 . S
C896 C888 1.574 1_565 S
C896 H891 0.949 . S
C896 C902 1.368 . S
C897 C881 1.349 . S
C897 H889 0.950 . S
C897 C895 1.327 . S
C898 C886 1.349 . S
C898 H892 0.950 . S
C898 C899 1.327 . S
C899 H893 0.950 . S
C899 C898 1.327 . S
C899 C903 1.429 . S
C900 C883 1.574 1_545 S
C900 H894 0.949 . S
C900 C904 1.368 . S
C901 C882 1.429 . S
C901 C895 1.429 . S
C901 C902 1.523 . S
C902 C883 1.368 . S
C902 C896 1.368 . S
C902 C901 1.523 . S
C903 C887 1.429 . S
C903 C899 1.429 . S
C903 C904 1.523 . S
C904 C888 1.368 . S
C904 C900 1.368 . S
C904 C903 1.523 . S
H905 C880 0.950 . S
H906 C882 0.950 . S
H907 C883 0.949 . S
H908 C885 0.950 . S
H909 C887 0.950 . S
C910 C911 1.349 . S
C910 C912 1.327 . S
C910 H935 0.950 . S
C911 C910 1.349 . S
C911 C927 1.349 . S
C912 C910 1.327 . S
C912 C931 1.429 . S
C912 H936 0.950 1_545 S
C913 C930 1.574 . S
C913 C932 1.368 . S
C913 H937 0.949 . S
H914 C918 0.949 . S
C915 C916 1.349 . S
C915 C917 1.327 . S
C915 H938 0.950 . S
C916 C915 1.349 . S
C916 C928 1.349 . S
C917 C915 1.327 . S
C917 C933 1.429 . S
C917 H939 0.950 1_565 S
C918 H914 0.949 . S
C918 C926 1.574 . S
C918 C934 1.368 . S
H919 C927 0.950 . S
H920 C925 0.950 . S
H921 C926 0.949 . S
H922 C928 0.950 . S
H923 C929 0.950 . S
H924 C930 0.949 . S
C925 H920 0.950 . S
C925 C927 1.327 . S
C925 C931 1.429 . S
C926 C918 1.574 . S
C926 H921 0.949 . S
C926 C932 1.368 1_565 S
C927 C911 1.349 . S
C927 H919 0.950 . S
C927 C925 1.327 . S
C928 C916 1.349 . S
C928 H922 0.950 . S
C928 C929 1.327 . S
C929 H923 0.950 . S
C929 C928 1.327 . S
C929 C933 1.429 . S
C930 C913 1.574 . S
C930 H924 0.949 . S
C930 C934 1.368 1_545 S
C931 C912 1.429 . S
C931 C925 1.429 . S
C931 C932 1.523 . S
C932 C913 1.368 . S
C932 C926 1.368 1_545 S
C932 C931 1.523 . S
C933 C917 1.429 . S
C933 C929 1.429 . S
C933 C934 1.523 . S
C934 C918 1.368 . S
C934 C930 1.368 1_565 S
C934 C933 1.523 . S
H935 C910 0.950 . S
H936 C912 0.950 1_565 S
H937 C913 0.949 . S
H938 C915 0.950 . S
H939 C917 0.950 1_545 S
C940 C941 1.349 . S
C940 C942 1.327 . S
C940 H965 0.950 . S
C941 C940 1.349 . S
C941 C957 1.349 . S
C942 C940 1.327 . S
C942 C961 1.429 . S
C942 H966 0.950 . S
C943 C960 1.574 . S
C943 C962 1.368 1_565 S
C943 H967 0.949 . S
H944 C948 0.949 . S
C945 C946 1.349 . S
C945 C947 1.327 . S
C945 H968 0.950 . S
C946 C945 1.349 . S
C946 C958 1.349 . S
C947 C945 1.327 . S
C947 C963 1.429 . S
C947 H969 0.950 . S
C948 H944 0.949 . S
C948 C956 1.574 . S
C948 C964 1.368 1_545 S
H949 C957 0.950 . S
H950 C955 0.950 1_565 S
H951 C956 0.949 . S
H952 C958 0.950 . S
H953 C959 0.950 1_545 S
H954 C960 0.949 . S
C955 H950 0.950 1_545 S
C955 C957 1.327 . S
C955 C961 1.429 . S
C956 C948 1.574 . S
C956 H951 0.949 . S
C956 C962 1.368 . S
C957 C941 1.349 . S
C957 H949 0.950 . S
C957 C955 1.327 . S
C958 C946 1.349 . S
C958 H952 0.950 . S
C958 C959 1.327 . S
C959 H953 0.950 1_565 S
C959 C958 1.327 . S
C959 C963 1.429 . S
C960 C943 1.574 . S
C960 H954 0.949 . S
C960 C964 1.368 . S
C961 C942 1.429 . S
C961 C955 1.429 . S
C961 C962 1.523 . S
C962 C943 1.368 1_545 S
C962 C956 1.368 . S
C962 C961 1.523 . S
C963 C947 1.429 . S
C963 C959 1.429 . S
C963 C964 1.523 . S
C964 C948 1.368 1_565 S
C964 C960 1.368 . S
C964 C963 1.523 . S
H965 C940 0.950 . S
H966 C942 0.950 . S
H967 C943 0.949 . S
H968 C945 0.950 . S
H969 C947 0.950 . S
C970 C971 1.349 . S
C970 C972 1.327 . S
C970 H995 0.950 . S
C971 C970 1.349 . S
C971 C987 1.349 . S
C972 C970 1.327 . S
C972 C991 1.429 . S
C972 H996 0.950 1_545 S
C973 C990 1.574 . S
C973 C992 1.368 . S
C973 H997 0.949 . S
H974 C978 0.949 . S
C975 C976 1.349 . S
C975 C977 1.327 . S
C975 H998 0.950 . S
C976 C975 1.349 . S
C976 C988 1.349 . S
C977 C975 1.327 . S
C977 C993 1.429 . S
C977 H999 0.950 1_565 S
C978 H974 0.949 . S
C978 C986 1.574 . S
C978 C994 1.368 . S
H979 C987 0.950 . S
H980 C985 0.950 . S
H981 C986 0.949 . S
H982 C988 0.950 . S
H983 C989 0.950 . S
H984 C990 0.949 . S
C985 H980 0.950 . S
C985 C987 1.327 . S
C985 C991 1.429 . S
C986 C978 1.574 . S
C986 H981 0.949 . S
C986 C992 1.368 1_565 S
C987 C971 1.349 . S
C987 H979 0.950 . S
C987 C985 1.327 . S
C988 C976 1.349 . S
C988 H982 0.950 . S
C988 C989 1.327 . S
C989 H983 0.950 . S
C989 C988 1.327 . S
C989 C993 1.429 . S
C990 C973 1.574 . S
C990 H984 0.949 . S
C990 C994 1.368 1_545 S
C991 C972 1.429 . S
C991 C985 1.429 . S
C991 C992 1.523 . S
C992 C973 1.368 . S
C992 C986 1.368 1_545 S
C992 C991 1.523 . S
C993 C977 1.429 . S
C993 C989 1.429 . S
C993 C994 1.523 . S
C994 C978 1.368 . S
C994 C990 1.368 1_565 S
C994 C993 1.523 . S
H995 C970 0.950 . S
H996 C972 0.950 1_565 S
H997 C973 0.949 . S
H998 C975 0.950 . S
H999 C977 0.950 1_545 S
C1000 C1001 1.349 . S
C1000 C1002 1.327 . S
C1000 H1025 0.950 . S
C1001 C1000 1.349 . S
C1001 C1017 1.349 . S
C1002 C1000 1.327 . S
C1002 C1021 1.429 . S
C1002 H1026 0.950 . S
C1003 C1020 1.574 . S
C1003 C1022 1.368 . S
C1003 H1027 0.949 . S
H1004 C1008 0.949 . S
C1005 C1006 1.349 . S
C1005 C1007 1.327 . S
C1005 H1028 0.950 . S
C1006 C1005 1.349 . S
C1006 C1018 1.349 . S
C1007 C1005 1.327 . S
C1007 C1023 1.429 . S
C1007 H1029 0.950 . S
C1008 H1004 0.949 . S
C1008 C1016 1.574 . S
C1008 C1024 1.368 . S
H1009 C1017 0.950 . S
H1010 C1015 0.950 . S
H1011 C1016 0.949 . S
H1012 C1018 0.950 . S
H1013 C1019 0.950 . S
H1014 C1020 0.949 . S
C1015 H1010 0.950 . S
C1015 C1017 1.327 . S
C1015 C1021 1.429 . S
C1016 C1008 1.574 . S
C1016 H1011 0.949 . S
C1016 C1022 1.368 . S
C1017 C1001 1.349 . S
C1017 H1009 0.950 . S
C1017 C1015 1.327 . S
C1018 C1006 1.349 . S
C1018 H1012 0.950 . S
C1018 C1019 1.327 . S
C1019 H1013 0.950 . S
C1019 C1018 1.327 . S
C1019 C1023 1.429 . S
C1020 C1003 1.574 . S
C1020 H1014 0.949 . S
C1020 C1024 1.368 . S
C1021 C1002 1.429 . S
C1021 C1015 1.429 . S
C1021 C1022 1.523 . S
C1022 C1003 1.368 . S
C1022 C1016 1.368 . S
C1022 C1021 1.523 . S
C1023 C1007 1.429 . S
C1023 C1019 1.429 . S
C1023 C1024 1.523 . S
C1024 C1008 1.368 . S
C1024 C1020 1.368 . S
C1024 C1023 1.523 . S
H1025 C1000 0.950 . S
H1026 C1002 0.950 . S
H1027 C1003 0.949 . S
H1028 C1005 0.950 . S
H1029 C1007 0.950 . S
C1030 C1031 1.349 . S
C1030 C1032 1.327 . S
C1030 H1055 0.950 . S
C1031 C1030 1.349 . S
C1031 C1047 1.349 . S
C1032 C1030 1.327 . S
C1032 C1051 1.429 . S
C1032 H1056 0.950 . S
C1033 C1050 1.574 . S
C1033 C1052 1.368 . S
C1033 H1057 0.949 . S
H1034 C1038 0.949 . S
C1035 C1036 1.349 . S
C1035 C1037 1.327 . S
C1035 H1058 0.950 . S
C1036 C1035 1.349 . S
C1036 C1048 1.349 . S
C1037 C1035 1.327 . S
C1037 C1053 1.429 . S
C1037 H1059 0.950 . S
C1038 H1034 0.949 . S
C1038 C1046 1.574 . S
C1038 C1054 1.368 . S
H1039 C1047 0.950 . S
H1040 C1045 0.950 . S
H1041 C1046 0.949 . S
H1042 C1048 0.950 . S
H1043 C1049 0.950 . S
H1044 C1050 0.949 . S
C1045 H1040 0.950 . S
C1045 C1047 1.327 . S
C1045 C1051 1.429 . S
C1046 C1038 1.574 . S
C1046 H1041 0.949 . S
C1046 C1052 1.368 . S
C1047 C1031 1.349 . S
C1047 H1039 0.950 . S
C1047 C1045 1.327 . S
C1048 C1036 1.349 . S
C1048 H1042 0.950 . S
C1048 C1049 1.327 . S
C1049 H1043 0.950 . S
C1049 C1048 1.327 . S
C1049 C1053 1.429 . S
C1050 C1033 1.574 . S
C1050 H1044 0.949 . S
C1050 C1054 1.368 . S
C1051 C1032 1.429 . S
C1051 C1045 1.429 . S
C1051 C1052 1.523 . S
C1052 C1033 1.368 . S
C1052 C1046 1.368 . S
C1052 C1051 1.523 . S
C1053 C1037 1.429 . S
C1053 C1049 1.429 . S
C1053 C1054 1.523 . S
C1054 C1038 1.368 . S
C1054 C1050 1.368 . S
C1054 C1053 1.523 . S
H1055 C1030 0.950 . S
H1056 C1032 0.950 . S
H1057 C1033 0.949 . S
H1058 C1035 0.950 . S
H1059 C1037 0.950 . S
C1060 C1061 1.349 . S
C1060 C1062 1.327 . S
C1060 H1085 0.950 . S
C1061 C1060 1.349 . S
C1061 C1077 1.349 . S
C1062 C1060 1.327 . S
C1062 C1081 1.429 . S
C1062 H1086 0.950 . S
C1063 C1080 1.574 . S
C1063 C1082 1.368 . S
C1063 H1087 0.949 . S
H1064 C1068 0.949 . S
C1065 C1066 1.349 . S
C1065 C1067 1.327 . S
C1065 H1088 0.950 . S
C1066 C1065 1.349 . S
C1066 C1078 1.349 . S
C1067 C1065 1.327 . S
C1067 C1083 1.429 . S
C1067 H1089 0.950 . S
C1068 H1064 0.949 . S
C1068 C1076 1.574 . S
C1068 C1084 1.368 . S
H1069 C1077 0.950 . S
H1070 C1075 0.950 . S
H1071 C1076 0.949 . S
H1072 C1078 0.950 . S
H1073 C1079 0.950 . S
H1074 C1080 0.949 . S
C1075 H1070 0.950 . S
C1075 C1077 1.327 . S
C1075 C1081 1.429 . S
C1076 C1068 1.574 . S
C1076 H1071 0.949 . S
C1076 C1082 1.368 . S
C1077 C1061 1.349 . S
C1077 H1069 0.950 . S
C1077 C1075 1.327 . S
C1078 C1066 1.349 . S
C1078 H1072 0.950 . S
C1078 C1079 1.327 . S
C1079 H1073 0.950 . S
C1079 C1078 1.327 . S
C1079 C1083 1.429 . S
C1080 C1063 1.574 . S
C1080 H1074 0.949 . S
C1080 C1084 1.368 . S
C1081 C1062 1.429 . S
C1081 C1075 1.429 . S
C1081 C1082 1.523 . S
C1082 C1063 1.368 . S
C1082 C1076 1.368 . S
C1082 C1081 1.523 . S
C1083 C1067 1.429 . S
C1083 C1079 1.429 . S
C1083 C1084 1.523 . S
C1084 C1068 1.368 . S
C1084 C1080 1.368 . S
C1084 C1083 1.523 . S
H1085 C1060 0.950 . S
H1086 C1062 0.950 . S
H1087 C1063 0.949 . S
H1088 C1065 0.950 . S
H1089 C1067 0.950 . S
C1090 C1091 1.349 . S
C1090 C1092 1.327 . S
C1090 H1115 0.950 . S
C1091 C1090 1.349 . S
C1091 C1107 1.349 . S
C1092 C1090 1.327 . S
C1092 C1111 1.429 . S
C1092 H1116 0.950 . S
C1093 C1110 1.574 . S
C1093 C1112 1.368 . S
C1093 H1117 0.949 . S
H1094 C1098 0.949 . S
C1095 C1096 1.349 . S
C1095 C1097 1.327 . S
C1095 H1118 0.950 . S
C1096 C1095 1.349 . S
C1096 C1108 1.349 . S
C1097 C1095 1.327 . S
C1097 C1113 1.429 . S
C1097 H1119 0.950 . S
C1098 H1094 0.949 . S
C1098 C1106 1.574 . S
C1098 C1114 1.368 . S
H1099 C1107 0.950 . S
H1100 C1105 0.950 . S
H1101 C1106 0.949 . S
H1102 C1108 0.950 . S
H1103 C1109 0.950 . S
H1104 C1110 0.949 . S
C1105 H1100 0.950 . S
C1105 C1107 1.327 . S
C1105 C1111 1.429 . S
C1106 C1098 1.574 . S
C1106 H1101 0.949 . S
C1106 C1112 1.368 . S
C1107 C1091 1.349 . S
C1107 H1099 0.950 . S
C1107 C1105 1.327 . S
C1108 C1096 1.349 . S
C1108 H1102 0.950 . S
C1108 C1109 1.327 . S
C1109 H1103 0.950 . S
C1109 C1108 1.327 . S
C1109 C1113 1.429 . S
C1110 C1093 1.574 . S
C1110 H1104 0.949 . S
C1110 C1114 1.368 . S
C1111 C1092 1.429 . S
C1111 C1105 1.429 . S
C1111 C1112 1.523 . S
C1112 C1093 1.368 . S
C1112 C1106 1.368 . S
C1112 C1111 1.523 . S
C1113 C1097 1.429 . S
C1113 C1109 1.429 . S
C1113 C1114 1.523 . S
C1114 C1098 1.368 . S
C1114 C1110 1.368 . S
C1114 C1113 1.523 . S
H1115 C1090 0.950 . S
H1116 C1092 0.950 . S
H1117 C1093 0.949 . S
H1118 C1095 0.950 . S
H1119 C1097 0.950 . S
C1120 C1121 1.349 . S
C1120 C1122 1.327 . S
C1120 H1145 0.950 . S
C1121 C1120 1.349 . S
C1121 C1137 1.349 . S
C1122 C1120 1.327 . S
C1122 C1141 1.429 . S
C1122 H1146 0.950 . S
C1123 C1140 1.574 1_556 S
C1123 C1142 1.368 . S
C1123 H1147 0.949 . S
H1124 C1128 0.949 . S
C1125 C1126 1.349 . S
C1125 C1127 1.327 . S
C1125 H1148 0.950 . S
C1126 C1125 1.349 . S
C1126 C1138 1.349 . S
C1127 C1125 1.327 . S
C1127 C1143 1.429 . S
C1127 H1149 0.950 . S
C1128 H1124 0.949 . S
C1128 C1136 1.574 1_554 S
C1128 C1144 1.368 . S
H1129 C1137 0.950 . S
H1130 C1135 0.950 . S
H1131 C1136 0.949 . S
H1132 C1138 0.950 . S
H1133 C1139 0.950 . S
H1134 C1140 0.949 . S
C1135 H1130 0.950 . S
C1135 C1137 1.327 . S
C1135 C1141 1.429 . S
C1136 C1128 1.574 1_556 S
C1136 H1131 0.949 . S
C1136 C1142 1.368 . S
C1137 C1121 1.349 . S
C1137 H1129 0.950 . S
C1137 C1135 1.327 . S
C1138 C1126 1.349 . S
C1138 H1132 0.950 . S
C1138 C1139 1.327 . S
C1139 H1133 0.950 . S
C1139 C1138 1.327 . S
C1139 C1143 1.429 . S
C1140 C1123 1.574 1_554 S
C1140 H1134 0.949 . S
C1140 C1144 1.368 . S
C1141 C1122 1.429 . S
C1141 C1135 1.429 . S
C1141 C1142 1.523 . S
C1142 C1123 1.368 . S
C1142 C1136 1.368 . S
C1142 C1141 1.523 . S
C1143 C1127 1.429 . S
C1143 C1139 1.429 . S
C1143 C1144 1.523 . S
C1144 C1128 1.368 . S
C1144 C1140 1.368 . S
C1144 C1143 1.523 . S
H1145 C1120 0.950 . S
H1146 C1122 0.950 . S
H1147 C1123 0.949 . S
H1148 C1125 0.950 . S
H1149 C1127 0.950 . S
C1150 C1151 1.349 . S
C1150 C1152 1.327 . S
C1150 H1175 0.950 . S
C1151 C1150 1.349 . S
C1151 C1167 1.349 . S
C1152 C1150 1.327 . S
C1152 C1171 1.429 . S
C1152 H1176 0.950 . S
C1153 C1170 1.574 1_556 S
C1153 C1172 1.368 . S
C1153 H1177 0.949 . S
H1154 C1158 0.949 . S
C1155 C1156 1.349 . S
C1155 C1157 1.327 . S
C1155 H1178 0.950 . S
C1156 C1155 1.349 . S
C1156 C1168 1.349 . S
C1157 C1155 1.327 . S
C1157 C1173 1.429 . S
C1157 H1179 0.950 . S
C1158 H1154 0.949 . S
C1158 C1166 1.574 1_554 S
C1158 C1174 1.368 . S
H1159 C1167 0.950 . S
H1160 C1165 0.950 . S
H1161 C1166 0.949 . S
H1162 C1168 0.950 . S
H1163 C1169 0.950 . S
H1164 C1170 0.949 . S
C1165 H1160 0.950 . S
C1165 C1167 1.327 . S
C1165 C1171 1.429 . S
C1166 C1158 1.574 1_556 S
C1166 H1161 0.949 . S
C1166 C1172 1.368 . S
C1167 C1151 1.349 . S
C1167 H1159 0.950 . S
C1167 C1165 1.327 . S
C1168 C1156 1.349 . S
C1168 H1162 0.950 . S
C1168 C1169 1.327 . S
C1169 H1163 0.950 . S
C1169 C1168 1.327 . S
C1169 C1173 1.429 . S
C1170 C1153 1.574 1_554 S
C1170 H1164 0.949 . S
C1170 C1174 1.368 . S
C1171 C1152 1.429 . S
C1171 C1165 1.429 . S
C1171 C1172 1.523 . S
C1172 C1153 1.368 . S
C1172 C1166 1.368 . S
C1172 C1171 1.523 . S
C1173 C1157 1.429 . S
C1173 C1169 1.429 . S
C1173 C1174 1.523 . S
C1174 C1158 1.368 . S
C1174 C1170 1.368 . S
C1174 C1173 1.523 . S
H1175 C1150 0.950 . S
H1176 C1152 0.950 . S
H1177 C1153 0.949 . S
H1178 C1155 0.950 . S
H1179 C1157 0.950 . S
C1180 C1181 1.349 . S
C1180 C1182 1.327 . S
C1180 H1205 0.950 . S
C1181 C1180 1.349 . S
C1181 C1197 1.349 . S
C1182 C1180 1.327 . S
C1182 C1201 1.429 . S
C1182 H1206 0.950 . S
C1183 C1200 1.574 . S
C1183 C1202 1.368 . S
C1183 H1207 0.949 . S
H1184 C1188 0.949 . S
C1185 C1186 1.349 . S
C1185 C1187 1.327 . S
C1185 H1208 0.950 . S
C1186 C1185 1.349 . S
C1186 C1198 1.349 . S
C1187 C1185 1.327 . S
C1187 C1203 1.429 . S
C1187 H1209 0.950 . S
C1188 H1184 0.949 . S
C1188 C1196 1.574 . S
C1188 C1204 1.368 . S
H1189 C1197 0.950 . S
H1190 C1195 0.950 . S
H1191 C1196 0.949 . S
H1192 C1198 0.950 . S
H1193 C1199 0.950 . S
H1194 C1200 0.949 . S
C1195 H1190 0.950 . S
C1195 C1197 1.327 . S
C1195 C1201 1.429 . S
C1196 C1188 1.574 . S
C1196 H1191 0.949 . S
C1196 C1202 1.368 . S
C1197 C1181 1.349 . S
C1197 H1189 0.950 . S
C1197 C1195 1.327 . S
C1198 C1186 1.349 . S
C1198 H1192 0.950 . S
C1198 C1199 1.327 . S
C1199 H1193 0.950 . S
C1199 C1198 1.327 . S
C1199 C1203 1.429 . S
C1200 C1183 1.574 . S
C1200 H1194 0.949 . S
C1200 C1204 1.368 . S
C1201 C1182 1.429 . S
C1201 C1195 1.429 . S
C1201 C1202 1.523 . S
C1202 C1183 1.368 . S
C1202 C1196 1.368 . S
C1202 C1201 1.523 . S
C1203 C1187 1.429 . S
C1203 C1199 1.429 . S
C1203 C1204 1.523 . S
C1204 C1188 1.368 . S
C1204 C1200 1.368 . S
C1204 C1203 1.523 . S
H1205 C1180 0.950 . S
H1206 C1182 0.950 . S
H1207 C1183 0.949 . S
H1208 C1185 0.950 . S
H1209 C1187 0.950 . S
C1210 C1211 1.349 . S
C1210 C1212 1.327 . S
C1210 H1235 0.950 . S
C1211 C1210 1.349 . S
C1211 C1227 1.349 . S
C1212 C1210 1.327 . S
C1212 C1231 1.429 . S
C1212 H1236 0.950 . S
C1213 C1230 1.574 . S
C1213 C1232 1.368 . S
C1213 H1237 0.949 . S
H1214 C1218 0.949 . S
C1215 C1216 1.349 . S
C1215 C1217 1.327 . S
C1215 H1238 0.950 . S
C1216 C1215 1.349 . S
C1216 C1228 1.349 . S
C1217 C1215 1.327 . S
C1217 C1233 1.429 . S
C1217 H1239 0.950 . S
C1218 H1214 0.949 . S
C1218 C1226 1.574 . S
C1218 C1234 1.368 . S
H1219 C1227 0.950 . S
H1220 C1225 0.950 . S
H1221 C1226 0.949 . S
H1222 C1228 0.950 . S
H1223 C1229 0.950 . S
H1224 C1230 0.949 . S
C1225 H1220 0.950 . S
C1225 C1227 1.327 . S
C1225 C1231 1.429 . S
C1226 C1218 1.574 . S
C1226 H1221 0.949 . S
C1226 C1232 1.368 . S
C1227 C1211 1.349 . S
C1227 H1219 0.950 . S
C1227 C1225 1.327 . S
C1228 C1216 1.349 . S
C1228 H1222 0.950 . S
C1228 C1229 1.327 . S
C1229 H1223 0.950 . S
C1229 C1228 1.327 . S
C1229 C1233 1.429 . S
C1230 C1213 1.574 . S
C1230 H1224 0.949 . S
C1230 C1234 1.368 . S
C1231 C1212 1.429 . S
C1231 C1225 1.429 . S
C1231 C1232 1.523 . S
C1232 C1213 1.368 . S
C1232 C1226 1.368 . S
C1232 C1231 1.523 . S
C1233 C1217 1.429 . S
C1233 C1229 1.429 . S
C1233 C1234 1.523 . S
C1234 C1218 1.368 . S
C1234 C1230 1.368 . S
C1234 C1233 1.523 . S
H1235 C1210 0.950 . S
H1236 C1212 0.950 . S
H1237 C1213 0.949 . S
H1238 C1215 0.950 . S
H1239 C1217 0.950 . S
C1240 C1241 1.349 . S
C1240 C1242 1.327 . S
C1240 H1265 0.950 . S
C1241 C1240 1.349 . S
C1241 C1257 1.349 . S
C1242 C1240 1.327 . S
C1242 C1261 1.429 . S
C1242 H1266 0.950 . S
C1243 C1260 1.574 1_554 S
C1243 C1262 1.368 . S
C1243 H1267 0.949 . S
H1244 C1248 0.949 . S
C1245 C1246 1.349 . S
C1245 C1247 1.327 . S
C1245 H1268 0.950 . S
C1246 C1245 1.349 . S
C1246 C1258 1.349 . S
C1247 C1245 1.327 . S
C1247 C1263 1.429 . S
C1247 H1269 0.950 . S
C1248 H1244 0.949 . S
C1248 C1256 1.574 1_556 S
C1248 C1264 1.368 . S
H1249 C1257 0.950 . S
H1250 C1255 0.950 . S
H1251 C1256 0.949 . S
H1252 C1258 0.950 . S
H1253 C1259 0.950 . S
H1254 C1260 0.949 . S
C1255 H1250 0.950 . S
C1255 C1257 1.327 . S
C1255 C1261 1.429 . S
C1256 C1248 1.574 1_554 S
C1256 H1251 0.949 . S
C1256 C1262 1.368 . S
C1257 C1241 1.349 . S
C1257 H1249 0.950 . S
C1257 C1255 1.327 . S
C1258 C1246 1.349 . S
C1258 H1252 0.950 . S
C1258 C1259 1.327 . S
C1259 H1253 0.950 . S
C1259 C1258 1.327 . S
C1259 C1263 1.429 . S
C1260 C1243 1.574 1_556 S
C1260 H1254 0.949 . S
C1260 C1264 1.368 . S
C1261 C1242 1.429 . S
C1261 C1255 1.429 . S
C1261 C1262 1.523 . S
C1262 C1243 1.368 . S
C1262 C1256 1.368 . S
C1262 C1261 1.523 . S
C1263 C1247 1.429 . S
C1263 C1259 1.429 . S
C1263 C1264 1.523 . S
C1264 C1248 1.368 . S
C1264 C1260 1.368 . S
C1264 C1263 1.523 . S
H1265 C1240 0.950 . S
H1266 C1242 0.950 . S
H1267 C1243 0.949 . S
H1268 C1245 0.950 . S
H1269 C1247 0.950 . S
C1270 C1271 1.349 . S
C1270 C1272 1.327 . S
C1270 H1295 0.950 . S
C1271 C1270 1.349 . S
C1271 C1287 1.349 . S
C1272 C1270 1.327 . S
C1272 C1291 1.429 . S
C1272 H1296 0.950 . S
C1273 C1290 1.574 1_556 S
C1273 C1292 1.368 . S
C1273 H1297 0.949 . S
H1274 C1278 0.949 . S
C1275 C1276 1.349 . S
C1275 C1277 1.327 . S
C1275 H1298 0.950 . S
C1276 C1275 1.349 . S
C1276 C1288 1.349 . S
C1277 C1275 1.327 . S
C1277 C1293 1.429 . S
C1277 H1299 0.950 . S
C1278 H1274 0.949 . S
C1278 C1286 1.574 1_554 S
C1278 C1294 1.368 . S
H1279 C1287 0.950 . S
H1280 C1285 0.950 . S
H1281 C1286 0.949 . S
H1282 C1288 0.950 . S
H1283 C1289 0.950 . S
H1284 C1290 0.949 . S
C1285 H1280 0.950 . S
C1285 C1287 1.327 . S
C1285 C1291 1.429 . S
C1286 C1278 1.574 1_556 S
C1286 H1281 0.949 . S
C1286 C1292 1.368 . S
C1287 C1271 1.349 . S
C1287 H1279 0.950 . S
C1287 C1285 1.327 . S
C1288 C1276 1.349 . S
C1288 H1282 0.950 . S
C1288 C1289 1.327 . S
C1289 H1283 0.950 . S
C1289 C1288 1.327 . S
C1289 C1293 1.429 . S
C1290 C1273 1.574 1_554 S
C1290 H1284 0.949 . S
C1290 C1294 1.368 . S
C1291 C1272 1.429 . S
C1291 C1285 1.429 . S
C1291 C1292 1.523 . S
C1292 C1273 1.368 . S
C1292 C1286 1.368 . S
C1292 C1291 1.523 . S
C1293 C1277 1.429 . S
C1293 C1289 1.429 . S
C1293 C1294 1.523 . S
C1294 C1278 1.368 . S
C1294 C1290 1.368 . S
C1294 C1293 1.523 . S
H1295 C1270 0.950 . S
H1296 C1272 0.950 . S
H1297 C1273 0.949 . S
H1298 C1275 0.950 . S
H1299 C1277 0.950 . S
C1300 C1301 1.349 . S
C1300 C1302 1.327 . S
C1300 H1325 0.950 . S
C1301 C1300 1.349 . S
C1301 C1317 1.349 . S
C1302 C1300 1.327 . S
C1302 C1321 1.429 . S
C1302 H1326 0.950 . S
C1303 C1320 1.574 . S
C1303 C1322 1.368 . S
C1303 H1327 0.949 . S
H1304 C1308 0.949 . S
C1305 C1306 1.349 . S
C1305 C1307 1.327 . S
C1305 H1328 0.950 . S
C1306 C1305 1.349 . S
C1306 C1318 1.349 . S
C1307 C1305 1.327 . S
C1307 C1323 1.429 . S
C1307 H1329 0.950 . S
C1308 H1304 0.949 . S
C1308 C1316 1.574 . S
C1308 C1324 1.368 . S
H1309 C1317 0.950 . S
H1310 C1315 0.950 . S
H1311 C1316 0.949 . S
H1312 C1318 0.950 . S
H1313 C1319 0.950 . S
H1314 C1320 0.949 . S
C1315 H1310 0.950 . S
C1315 C1317 1.327 . S
C1315 C1321 1.429 . S
C1316 C1308 1.574 . S
C1316 H1311 0.949 . S
C1316 C1322 1.368 . S
C1317 C1301 1.349 . S
C1317 H1309 0.950 . S
C1317 C1315 1.327 . S
C1318 C1306 1.349 . S
C1318 H1312 0.950 . S
C1318 C1319 1.327 . S
C1319 H1313 0.950 . S
C1319 C1318 1.327 . S
C1319 C1323 1.429 . S
C1320 C1303 1.574 . S
C1320 H1314 0.949 . S
C1320 C1324 1.368 . S
C1321 C1302 1.429 . S
C1321 C1315 1.429 . S
C1321 C1322 1.523 . S
C1322 C1303 1.368 . S
C1322 C1316 1.368 . S
C1322 C1321 1.523 . S
C1323 C1307 1.429 . S
C1323 C1319 1.429 . S
C1323 C1324 1.523 . S
C1324 C1308 1.368 . S
C1324 C1320 1.368 . S
C1324 C1323 1.523 . S
H1325 C1300 0.950 . S
H1326 C1302 0.950 . S
H1327 C1303 0.949 . S
H1328 C1305 0.950 . S
H1329 C1307 0.950 . S
C1330 C1331 1.349 . S
C1330 C1332 1.327 . S
C1330 H1355 0.950 . S
C1331 C1330 1.349 . S
C1331 C1347 1.349 . S
C1332 C1330 1.327 . S
C1332 C1351 1.429 . S
C1332 H1356 0.950 . S
C1333 C1350 1.574 . S
C1333 C1352 1.368 . S
C1333 H1357 0.949 . S
H1334 C1338 0.949 . S
C1335 C1336 1.349 . S
C1335 C1337 1.327 . S
C1335 H1358 0.950 . S
C1336 C1335 1.349 . S
C1336 C1348 1.349 . S
C1337 C1335 1.327 . S
C1337 C1353 1.429 . S
C1337 H1359 0.950 . S
C1338 H1334 0.949 . S
C1338 C1346 1.574 . S
C1338 C1354 1.368 . S
H1339 C1347 0.950 . S
H1340 C1345 0.950 . S
H1341 C1346 0.949 . S
H1342 C1348 0.950 . S
H1343 C1349 0.950 . S
H1344 C1350 0.949 . S
C1345 H1340 0.950 . S
C1345 C1347 1.327 . S
C1345 C1351 1.429 . S
C1346 C1338 1.574 . S
C1346 H1341 0.949 . S
C1346 C1352 1.368 . S
C1347 C1331 1.349 . S
C1347 H1339 0.950 . S
C1347 C1345 1.327 . S
C1348 C1336 1.349 . S
C1348 H1342 0.950 . S
C1348 C1349 1.327 . S
C1349 H1343 0.950 . S
C1349 C1348 1.327 . S
C1349 C1353 1.429 . S
C1350 C1333 1.574 . S
C1350 H1344 0.949 . S
C1350 C1354 1.368 . S
C1351 C1332 1.429 . S
C1351 C1345 1.429 . S
C1351 C1352 1.523 . S
C1352 C1333 1.368 . S
C1352 C1346 1.368 . S
C1352 C1351 1.523 . S
C1353 C1337 1.429 . S
C1353 C1349 1.429 . S
C1353 C1354 1.523 . S
C1354 C1338 1.368 . S
C1354 C1350 1.368 . S
C1354 C1353 1.523 . S
H1355 C1330 0.950 . S
H1356 C1332 0.950 . S
H1357 C1333 0.949 . S
H1358 C1335 0.950 . S
H1359 C1337 0.950 . S
C1360 C1361 1.349 . S
C1360 C1362 1.327 . S
C1360 H1385 0.950 . S
C1361 C1360 1.349 . S
C1361 C1377 1.349 . S
C1362 C1360 1.327 . S
C1362 C1381 1.429 . S
C1362 H1386 0.950 . S
C1363 C1380 1.574 1_655 S
C1363 C1382 1.368 1_545 S
C1363 H1387 0.949 . S
H1364 C1368 0.949 . S
C1365 C1366 1.349 . S
C1365 C1367 1.327 . S
C1365 H1388 0.950 . S
C1366 C1365 1.349 . S
C1366 C1378 1.349 . S
C1367 C1365 1.327 . S
C1367 C1383 1.429 . S
C1367 H1389 0.950 . S
C1368 H1364 0.949 . S
C1368 C1376 1.574 1_455 S
C1368 C1384 1.368 1_565 S
H1369 C1377 0.939 1_545 S
H1370 C1375 0.950 1_545 S
H1371 C1376 0.949 . S
H1372 C1378 0.939 1_565 S
H1373 C1379 0.950 1_565 S
H1374 C1380 0.949 . S
C1375 H1370 0.950 1_565 S
C1375 C1377 1.327 . S
C1375 C1381 1.429 . S
C1376 C1368 1.574 1_655 S
C1376 H1371 0.949 . S
C1376 C1382 1.368 . S
C1377 C1361 1.349 . S
C1377 H1369 0.939 1_565 S
C1377 C1375 1.327 . S
C1378 C1366 1.349 . S
C1378 H1372 0.939 1_545 S
C1378 C1379 1.327 . S
C1379 H1373 0.950 1_545 S
C1379 C1378 1.327 . S
C1379 C1383 1.429 . S
C1380 C1363 1.574 1_455 S
C1380 H1374 0.949 . S
C1380 C1384 1.368 . S
C1381 C1362 1.429 . S
C1381 C1375 1.429 . S
C1381 C1382 1.523 . S
C1382 C1363 1.368 1_565 S
C1382 C1376 1.368 . S
C1382 C1381 1.523 . S
C1383 C1367 1.429 . S
C1383 C1379 1.429 . S
C1383 C1384 1.523 . S
C1384 C1368 1.368 1_545 S
C1384 C1380 1.368 . S
C1384 C1383 1.523 . S
H1385 C1360 0.950 . S
H1386 C1362 0.950 . S
H1387 C1363 0.949 . S
H1388 C1365 0.950 . S
H1389 C1367 0.950 . S
C1390 C1391 1.349 . S
C1390 C1392 1.327 . S
C1390 H1415 0.950 . S
C1391 C1390 1.349 . S
C1391 C1407 1.349 . S
C1392 C1390 1.327 . S
C1392 C1411 1.429 . S
C1392 H1416 0.950 . S
C1393 C1410 1.574 1_655 S
C1393 C1412 1.368 1_565 S
C1393 H1417 0.949 . S
H1394 C1398 0.949 . S
C1395 C1396 1.349 . S
C1395 C1397 1.327 . S
C1395 H1418 0.950 . S
C1396 C1395 1.349 . S
C1396 C1408 1.349 . S
C1397 C1395 1.327 . S
C1397 C1413 1.429 . S
C1397 H1419 0.950 . S
C1398 H1394 0.949 . S
C1398 C1406 1.574 1_455 S
C1398 C1414 1.368 1_545 S
H1399 C1407 0.939 1_565 S
H1400 C1405 0.950 1_565 S
H1401 C1406 0.949 . S
H1402 C1408 0.939 1_545 S
H1403 C1409 0.950 1_545 S
H1404 C1410 0.949 . S
C1405 H1400 0.950 1_545 S
C1405 C1407 1.327 . S
C1405 C1411 1.429 . S
C1406 C1398 1.574 1_655 S
C1406 H1401 0.949 . S
C1406 C1412 1.368 . S
C1407 C1391 1.349 . S
C1407 H1399 0.939 1_545 S
C1407 C1405 1.327 . S
C1408 C1396 1.349 . S
C1408 H1402 0.939 1_565 S
C1408 C1409 1.327 . S
C1409 H1403 0.950 1_565 S
C1409 C1408 1.327 . S
C1409 C1413 1.429 . S
C1410 C1393 1.574 1_455 S
C1410 H1404 0.949 . S
C1410 C1414 1.368 . S
C1411 C1392 1.429 . S
C1411 C1405 1.429 . S
C1411 C1412 1.523 . S
C1412 C1393 1.368 1_545 S
C1412 C1406 1.368 . S
C1412 C1411 1.523 . S
C1413 C1397 1.429 . S
C1413 C1409 1.429 . S
C1413 C1414 1.523 . S
C1414 C1398 1.368 1_565 S
C1414 C1410 1.368 . S
C1414 C1413 1.523 . S
H1415 C1390 0.950 . S
H1416 C1392 0.950 . S
H1417 C1393 0.949 . S
H1418 C1395 0.950 . S
H1419 C1397 0.950 . S
C1420 C1421 1.349 . S
C1420 C1422 1.327 . S
C1420 H1445 0.950 . S
C1421 C1420 1.349 . S
C1421 C1437 1.349 . S
C1422 C1420 1.327 . S
C1422 C1441 1.429 . S
C1422 H1446 0.950 . S
C1423 C1440 1.574 1_455 S
C1423 C1442 1.368 1_565 S
C1423 H1447 0.949 . S
H1424 C1428 0.949 . S
C1425 C1426 1.349 . S
C1425 C1427 1.327 . S
C1425 H1448 0.950 . S
C1426 C1425 1.349 . S
C1426 C1438 1.349 . S
C1427 C1425 1.327 . S
C1427 C1443 1.429 . S
C1427 H1449 0.950 . S
C1428 H1424 0.949 . S
C1428 C1436 1.574 1_655 S
C1428 C1444 1.368 1_545 S
H1429 C1437 0.939 1_565 S
H1430 C1435 0.950 1_565 S
H1431 C1436 0.949 . S
H1432 C1438 0.939 1_545 S
H1433 C1439 0.950 1_545 S
H1434 C1440 0.949 . S
C1435 H1430 0.950 1_545 S
C1435 C1437 1.327 . S
C1435 C1441 1.429 . S
C1436 C1428 1.574 1_455 S
C1436 H1431 0.949 . S
C1436 C1442 1.368 . S
C1437 C1421 1.349 . S
C1437 H1429 0.939 1_545 S
C1437 C1435 1.327 . S
C1438 C1426 1.349 . S
C1438 H1432 0.939 1_565 S
C1438 C1439 1.327 . S
C1439 H1433 0.950 1_565 S
C1439 C1438 1.327 . S
C1439 C1443 1.429 . S
C1440 C1423 1.574 1_655 S
C1440 H1434 0.949 . S
C1440 C1444 1.368 . S
C1441 C1422 1.429 . S
C1441 C1435 1.429 . S
C1441 C1442 1.523 . S
C1442 C1423 1.368 1_545 S
C1442 C1436 1.368 . S
C1442 C1441 1.523 . S
C1443 C1427 1.429 . S
C1443 C1439 1.429 . S
C1443 C1444 1.523 . S
C1444 C1428 1.368 1_565 S
C1444 C1440 1.368 . S
C1444 C1443 1.523 . S
H1445 C1420 0.950 . S
H1446 C1422 0.950 . S
H1447 C1423 0.949 . S
H1448 C1425 0.950 . S
H1449 C1427 0.950 . S
C1450 C1451 1.349 . S
C1450 C1452 1.327 . S
C1450 H1475 0.950 . S
C1451 C1450 1.349 . S
C1451 C1467 1.349 . S
C1452 C1450 1.327 . S
C1452 C1471 1.429 . S
C1452 H1476 0.950 . S
C1453 C1470 1.574 1_655 S
C1453 C1472 1.368 1_565 S
C1453 H1477 0.949 . S
H1454 C1458 0.949 . S
C1455 C1456 1.349 . S
C1455 C1457 1.327 . S
C1455 H1478 0.950 . S
C1456 C1455 1.349 . S
C1456 C1468 1.349 . S
C1457 C1455 1.327 . S
C1457 C1473 1.429 . S
C1457 H1479 0.950 . S
C1458 H1454 0.949 . S
C1458 C1466 1.574 1_455 S
C1458 C1474 1.368 1_545 S
H1459 C1467 0.939 1_565 S
H1460 C1465 0.950 1_565 S
H1461 C1466 0.949 . S
H1462 C1468 0.939 1_545 S
H1463 C1469 0.950 1_545 S
H1464 C1470 0.949 . S
C1465 H1460 0.950 1_545 S
C1465 C1467 1.327 . S
C1465 C1471 1.429 . S
C1466 C1458 1.574 1_655 S
C1466 H1461 0.949 . S
C1466 C1472 1.368 . S
C1467 C1451 1.349 . S
C1467 H1459 0.939 1_545 S
C1467 C1465 1.327 . S
C1468 C1456 1.349 . S
C1468 H1462 0.939 1_565 S
C1468 C1469 1.327 . S
C1469 H1463 0.950 1_565 S
C1469 C1468 1.327 . S
C1469 C1473 1.429 . S
C1470 C1453 1.574 1_455 S
C1470 H1464 0.949 . S
C1470 C1474 1.368 . S
C1471 C1452 1.429 . S
C1471 C1465 1.429 . S
C1471 C1472 1.523 . S
C1472 C1453 1.368 1_545 S
C1472 C1466 1.368 . S
C1472 C1471 1.523 . S
C1473 C1457 1.429 . S
C1473 C1469 1.429 . S
C1473 C1474 1.523 . S
C1474 C1458 1.368 1_565 S
C1474 C1470 1.368 . S
C1474 C1473 1.523 . S
H1475 C1450 0.950 . S
H1476 C1452 0.950 . S
H1477 C1453 0.949 . S
H1478 C1455 0.950 . S
H1479 C1457 0.950 . S
C1480 C1481 1.349 . S
C1480 C1482 1.327 . S
C1480 H1505 0.950 . S
C1481 C1480 1.349 . S
C1481 C1497 1.349 . S
C1482 C1480 1.327 . S
C1482 C1501 1.429 . S
C1482 H1506 0.950 . S
C1483 C1500 1.574 . S
C1483 C1502 1.368 . S
C1483 H1507 0.949 . S
H1484 C1488 0.949 . S
C1485 C1486 1.349 . S
C1485 C1487 1.327 . S
C1485 H1508 0.950 . S
C1486 C1485 1.349 . S
C1486 C1498 1.349 . S
C1487 C1485 1.327 . S
C1487 C1503 1.429 . S
C1487 H1509 0.950 . S
C1488 H1484 0.949 . S
C1488 C1496 1.574 . S
C1488 C1504 1.368 . S
H1489 C1497 0.950 . S
H1490 C1495 0.950 . S
H1491 C1496 0.949 . S
H1492 C1498 0.950 . S
H1493 C1499 0.950 . S
H1494 C1500 0.949 . S
C1495 H1490 0.950 . S
C1495 C1497 1.327 . S
C1495 C1501 1.429 . S
C1496 C1488 1.574 . S
C1496 H1491 0.949 . S
C1496 C1502 1.368 . S
C1497 C1481 1.349 . S
C1497 H1489 0.950 . S
C1497 C1495 1.327 . S
C1498 C1486 1.349 . S
C1498 H1492 0.950 . S
C1498 C1499 1.327 . S
C1499 H1493 0.950 . S
C1499 C1498 1.327 . S
C1499 C1503 1.429 . S
C1500 C1483 1.574 . S
C1500 H1494 0.949 . S
C1500 C1504 1.368 . S
C1501 C1482 1.429 . S
C1501 C1495 1.429 . S
C1501 C1502 1.523 . S
C1502 C1483 1.368 . S
C1502 C1496 1.368 . S
C1502 C1501 1.523 . S
C1503 C1487 1.429 . S
C1503 C1499 1.429 . S
C1503 C1504 1.523 . S
C1504 C1488 1.368 . S
C1504 C1500 1.368 . S
C1504 C1503 1.523 . S
H1505 C1480 0.950 . S
H1506 C1482 0.950 . S
H1507 C1483 0.949 . S
H1508 C1485 0.950 . S
H1509 C1487 0.950 . S
C1510 C1511 1.349 . S
C1510 C1512 1.327 . S
C1510 H1535 0.950 . S
C1511 C1510 1.349 . S
C1511 C1527 1.349 . S
C1512 C1510 1.327 . S
C1512 C1531 1.429 . S
C1512 H1536 0.950 . S
C1513 C1530 1.574 . S
C1513 C1532 1.368 . S
C1513 H1537 0.949 . S
H1514 C1518 0.949 . S
C1515 C1516 1.349 . S
C1515 C1517 1.327 . S
C1515 H1538 0.950 . S
C1516 C1515 1.349 . S
C1516 C1528 1.349 . S
C1517 C1515 1.327 . S
C1517 C1533 1.429 . S
C1517 H1539 0.950 . S
C1518 H1514 0.949 . S
C1518 C1526 1.574 . S
C1518 C1534 1.368 . S
H1519 C1527 0.950 . S
H1520 C1525 0.950 . S
H1521 C1526 0.949 . S
H1522 C1528 0.950 . S
H1523 C1529 0.950 . S
H1524 C1530 0.949 . S
C1525 H1520 0.950 . S
C1525 C1527 1.327 . S
C1525 C1531 1.429 . S
C1526 C1518 1.574 . S
C1526 H1521 0.949 . S
C1526 C1532 1.368 . S
C1527 C1511 1.349 . S
C1527 H1519 0.950 . S
C1527 C1525 1.327 . S
C1528 C1516 1.349 . S
C1528 H1522 0.950 . S
C1528 C1529 1.327 . S
C1529 H1523 0.950 . S
C1529 C1528 1.327 . S
C1529 C1533 1.429 . S
C1530 C1513 1.574 . S
C1530 H1524 0.949 . S
C1530 C1534 1.368 . S
C1531 C1512 1.429 . S
C1531 C1525 1.429 . S
C1531 C1532 1.523 . S
C1532 C1513 1.368 . S
C1532 C1526 1.368 . S
C1532 C1531 1.523 . S
C1533 C1517 1.429 . S
C1533 C1529 1.429 . S
C1533 C1534 1.523 . S
C1534 C1518 1.368 . S
C1534 C1530 1.368 . S
C1534 C1533 1.523 . S
H1535 C1510 0.950 . S
H1536 C1512 0.950 . S
H1537 C1513 0.949 . S
H1538 C1515 0.950 . S
H1539 C1517 0.950 . S
C1540 C1541 1.349 . S
C1540 C1542 1.327 . S
C1540 H1565 0.950 . S
C1541 C1540 1.349 . S
C1541 C1557 1.349 . S
C1542 C1540 1.327 . S
C1542 C1561 1.429 . S
C1542 H1566 0.950 . S
C1543 C1560 1.574 . S
C1543 C1562 1.368 . S
C1543 H1567 0.949 . S
H1544 C1548 0.949 . S
C1545 C1546 1.349 . S
C1545 C1547 1.327 . S
C1545 H1568 0.950 . S
C1546 C1545 1.349 . S
C1546 C1558 1.349 . S
C1547 C1545 1.327 . S
C1547 C1563 1.429 . S
C1547 H1569 0.950 . S
C1548 H1544 0.949 . S
C1548 C1556 1.574 . S
C1548 C1564 1.368 . S
H1549 C1557 0.950 . S
H1550 C1555 0.950 . S
H1551 C1556 0.949 . S
H1552 C1558 0.950 . S
H1553 C1559 0.950 . S
H1554 C1560 0.949 . S
C1555 H1550 0.950 . S
C1555 C1557 1.327 . S
C1555 C1561 1.429 . S
C1556 C1548 1.574 . S
C1556 H1551 0.949 . S
C1556 C1562 1.368 . S
C1557 C1541 1.349 . S
C1557 H1549 0.950 . S
C1557 C1555 1.327 . S
C1558 C1546 1.349 . S
C1558 H1552 0.950 . S
C1558 C1559 1.327 . S
C1559 H1553 0.950 . S
C1559 C1558 1.327 . S
C1559 C1563 1.429 . S
C1560 C1543 1.574 . S
C1560 H1554 0.949 . S
C1560 C1564 1.368 . S
C1561 C1542 1.429 . S
C1561 C1555 1.429 . S
C1561 C1562 1.523 . S
C1562 C1543 1.368 . S
C1562 C1556 1.368 . S
C1562 C1561 1.523 . S
C1563 C1547 1.429 . S
C1563 C1559 1.429 . S
C1563 C1564 1.523 . S
C1564 C1548 1.368 . S
C1564 C1560 1.368 . S
C1564 C1563 1.523 . S
H1565 C1540 0.950 . S
H1566 C1542 0.950 . S
H1567 C1543 0.949 . S
H1568 C1545 0.950 . S
H1569 C1547 0.950 . S
C1570 C1571 1.349 . S
C1570 C1572 1.327 . S
C1570 H1595 0.950 . S
C1571 C1570 1.349 . S
C1571 C1587 1.349 . S
C1572 C1570 1.327 . S
C1572 C1591 1.429 . S
C1572 H1596 0.950 . S
C1573 C1590 1.574 . S
C1573 C1592 1.368 . S
C1573 H1597 0.949 . S
H1574 C1578 0.949 . S
C1575 C1576 1.349 . S
C1575 C1577 1.327 . S
C1575 H1598 0.950 . S
C1576 C1575 1.349 . S
C1576 C1588 1.349 . S
C1577 C1575 1.327 . S
C1577 C1593 1.429 . S
C1577 H1599 0.950 . S
C1578 H1574 0.949 . S
C1578 C1586 1.574 . S
C1578 C1594 1.368 . S
H1579 C1587 0.950 . S
H1580 C1585 0.950 . S
H1581 C1586 0.949 . S
H1582 C1588 0.950 . S
H1583 C1589 0.950 . S
H1584 C1590 0.949 . S
C1585 H1580 0.950 . S
C1585 C1587 1.327 . S
C1585 C1591 1.429 . S
C1586 C1578 1.574 . S
C1586 H1581 0.949 . S
C1586 C1592 1.368 . S
C1587 C1571 1.349 . S
C1587 H1579 0.950 . S
C1587 C1585 1.327 . S
C1588 C1576 1.349 . S
C1588 H1582 0.950 . S
C1588 C1589 1.327 . S
C1589 H1583 0.950 . S
C1589 C1588 1.327 . S
C1589 C1593 1.429 . S
C1590 C1573 1.574 . S
C1590 H1584 0.949 . S
C1590 C1594 1.368 . S
C1591 C1572 1.429 . S
C1591 C1585 1.429 . S
C1591 C1592 1.523 . S
C1592 C1573 1.368 . S
C1592 C1586 1.368 . S
C1592 C1591 1.523 . S
C1593 C1577 1.429 . S
C1593 C1589 1.429 . S
C1593 C1594 1.523 . S
C1594 C1578 1.368 . S
C1594 C1590 1.368 . S
C1594 C1593 1.523 . S
H1595 C1570 0.950 . S
H1596 C1572 0.950 . S
H1597 C1573 0.949 . S
H1598 C1575 0.950 . S
H1599 C1577 0.950 . S
C1600 C1601 1.349 . S
C1600 C1602 1.327 . S
C1600 H1625 0.950 . S
C1601 C1600 1.349 . S
C1601 C1617 1.349 . S
C1602 C1600 1.327 . S
C1602 C1621 1.429 . S
C1602 H1626 0.950 . S
C1603 C1620 1.574 . S
C1603 C1622 1.368 . S
C1603 H1627 0.949 . S
H1604 C1608 0.949 . S
C1605 C1606 1.349 . S
C1605 C1607 1.327 . S
C1605 H1628 0.950 . S
C1606 C1605 1.349 . S
C1606 C1618 1.349 . S
C1607 C1605 1.327 . S
C1607 C1623 1.429 . S
C1607 H1629 0.950 . S
C1608 H1604 0.949 . S
C1608 C1616 1.574 . S
C1608 C1624 1.368 . S
H1609 C1617 0.950 . S
H1610 C1615 0.950 . S
H1611 C1616 0.949 . S
H1612 C1618 0.950 . S
H1613 C1619 0.950 . S
H1614 C1620 0.949 . S
C1615 H1610 0.950 . S
C1615 C1617 1.327 . S
C1615 C1621 1.429 . S
C1616 C1608 1.574 . S
C1616 H1611 0.949 . S
C1616 C1622 1.368 . S
C1617 C1601 1.349 . S
C1617 H1609 0.950 . S
C1617 C1615 1.327 . S
C1618 C1606 1.349 . S
C1618 H1612 0.950 . S
C1618 C1619 1.327 . S
C1619 H1613 0.950 . S
C1619 C1618 1.327 . S
C1619 C1623 1.429 . S
C1620 C1603 1.574 . S
C1620 H1614 0.949 . S
C1620 C1624 1.368 . S
C1621 C1602 1.429 . S
C1621 C1615 1.429 . S
C1621 C1622 1.523 . S
C1622 C1603 1.368 . S
C1622 C1616 1.368 . S
C1622 C1621 1.523 . S
C1623 C1607 1.429 . S
C1623 C1619 1.429 . S
C1623 C1624 1.523 . S
C1624 C1608 1.368 . S
C1624 C1620 1.368 . S
C1624 C1623 1.523 . S
H1625 C1600 0.950 . S
H1626 C1602 0.950 . S
H1627 C1603 0.949 . S
H1628 C1605 0.950 . S
H1629 C1607 0.950 . S
C1630 C1631 1.349 . S
C1630 C1632 1.327 . S
C1630 H1655 0.950 . S
C1631 C1630 1.349 . S
C1631 C1647 1.349 . S
C1632 C1630 1.327 . S
C1632 C1651 1.429 . S
C1632 H1656 0.950 . S
C1633 C1650 1.574 . S
C1633 C1652 1.368 . S
C1633 H1657 0.949 . S
H1634 C1638 0.949 . S
C1635 C1636 1.349 . S
C1635 C1637 1.327 . S
C1635 H1658 0.950 . S
C1636 C1635 1.349 . S
C1636 C1648 1.349 . S
C1637 C1635 1.327 . S
C1637 C1653 1.429 . S
C1637 H1659 0.950 . S
C1638 H1634 0.949 . S
C1638 C1646 1.574 . S
C1638 C1654 1.368 . S
H1639 C1647 0.950 . S
H1640 C1645 0.950 . S
H1641 C1646 0.949 . S
H1642 C1648 0.950 . S
H1643 C1649 0.950 . S
H1644 C1650 0.949 . S
C1645 H1640 0.950 . S
C1645 C1647 1.327 . S
C1645 C1651 1.429 . S
C1646 C1638 1.574 . S
C1646 H1641 0.949 . S
C1646 C1652 1.368 . S
C1647 C1631 1.349 . S
C1647 H1639 0.950 . S
C1647 C1645 1.327 . S
C1648 C1636 1.349 . S
C1648 H1642 0.950 . S
C1648 C1649 1.327 . S
C1649 H1643 0.950 . S
C1649 C1648 1.327 . S
C1649 C1653 1.429 . S
C1650 C1633 1.574 . S
C1650 H1644 0.949 . S
C1650 C1654 1.368 . S
C1651 C1632 1.429 . S
C1651 C1645 1.429 . S
C1651 C1652 1.523 . S
C1652 C1633 1.368 . S
C1652 C1646 1.368 . S
C1652 C1651 1.523 . S
C1653 C1637 1.429 . S
C1653 C1649 1.429 . S
C1653 C1654 1.523 . S
C1654 C1638 1.368 . S
C1654 C1650 1.368 . S
C1654 C1653 1.523 . S
H1655 C1630 0.950 . S
H1656 C1632 0.950 . S
H1657 C1633 0.949 . S
H1658 C1635 0.950 . S
H1659 C1637 0.950 . S
C1660 C1661 1.349 . S
C1660 C1662 1.327 . S
C1660 H1685 0.950 . S
C1661 C1660 1.349 . S
C1661 C1677 1.349 . S
C1662 C1660 1.327 . S
C1662 C1681 1.429 . S
C1662 H1686 0.950 . S
C1663 C1680 1.574 . S
C1663 C1682 1.368 . S
C1663 H1687 0.949 . S
H1664 C1668 0.949 . S
C1665 C1666 1.349 . S
C1665 C1667 1.327 . S
C1665 H1688 0.950 . S
C1666 C1665 1.349 . S
C1666 C1678 1.349 . S
C1667 C1665 1.327 . S
C1667 C1683 1.429 . S
C1667 H1689 0.950 . S
C1668 H1664 0.949 . S
C1668 C1676 1.574 . S
C1668 C1684 1.368 . S
H1669 C1677 0.950 . S
H1670 C1675 0.950 . S
H1671 C1676 0.949 . S
H1672 C1678 0.950 . S
H1673 C1679 0.950 . S
H1674 C1680 0.949 . S
C1675 H1670 0.950 . S
C1675 C1677 1.327 . S
C1675 C1681 1.429 . S
C1676 C1668 1.574 . S
C1676 H1671 0.949 . S
C1676 C1682 1.368 . S
C1677 C1661 1.349 . S
C1677 H1669 0.950 . S
C1677 C1675 1.327 . S
C1678 C1666 1.349 . S
C1678 H1672 0.950 . S
C1678 C1679 1.327 . S
C1679 H1673 0.950 . S
C1679 C1678 1.327 . S
C1679 C1683 1.429 . S
C1680 C1663 1.574 . S
C1680 H1674 0.949 . S
C1680 C1684 1.368 . S
C1681 C1662 1.429 . S
C1681 C1675 1.429 . S
C1681 C1682 1.523 . S
C1682 C1663 1.368 . S
C1682 C1676 1.368 . S
C1682 C1681 1.523 . S
C1683 C1667 1.429 . S
C1683 C1679 1.429 . S
C1683 C1684 1.523 . S
C1684 C1668 1.368 . S
C1684 C1680 1.368 . S
C1684 C1683 1.523 . S
H1685 C1660 0.950 . S
H1686 C1662 0.950 . S
H1687 C1663 0.949 . S
H1688 C1665 0.950 . S
H1689 C1667 0.950 . S
C1690 C1691 1.349 . S
C1690 C1692 1.327 . S
C1690 H1715 0.950 . S
C1691 C1690 1.349 . S
C1691 C1707 1.349 . S
C1692 C1690 1.327 . S
C1692 C1711 1.429 . S
C1692 H1716 0.950 . S
C1693 C1710 1.574 . S
C1693 C1712 1.368 . S
C1693 H1717 0.949 . S
H1694 C1698 0.949 . S
C1695 C1696 1.349 . S
C1695 C1697 1.327 . S
C1695 H1718 0.950 . S
C1696 C1695 1.349 . S
C1696 C1708 1.349 . S
C1697 C1695 1.327 . S
C1697 C1713 1.429 . S
C1697 H1719 0.950 . S
C1698 H1694 0.949 . S
C1698 C1706 1.574 . S
C1698 C1714 1.368 . S
H1699 C1707 0.950 . S
H1700 C1705 0.950 . S
H1701 C1706 0.949 . S
H1702 C1708 0.950 . S
H1703 C1709 0.950 . S
H1704 C1710 0.949 . S
C1705 H1700 0.950 . S
C1705 C1707 1.327 . S
C1705 C1711 1.429 . S
C1706 C1698 1.574 . S
C1706 H1701 0.949 . S
C1706 C1712 1.368 . S
C1707 C1691 1.349 . S
C1707 H1699 0.950 . S
C1707 C1705 1.327 . S
C1708 C1696 1.349 . S
C1708 H1702 0.950 . S
C1708 C1709 1.327 . S
C1709 H1703 0.950 . S
C1709 C1708 1.327 . S
C1709 C1713 1.429 . S
C1710 C1693 1.574 . S
C1710 H1704 0.949 . S
C1710 C1714 1.368 . S
C1711 C1692 1.429 . S
C1711 C1705 1.429 . S
C1711 C1712 1.523 . S
C1712 C1693 1.368 . S
C1712 C1706 1.368 . S
C1712 C1711 1.523 . S
C1713 C1697 1.429 . S
C1713 C1709 1.429 . S
C1713 C1714 1.523 . S
C1714 C1698 1.368 . S
C1714 C1710 1.368 . S
C1714 C1713 1.523 . S
H1715 C1690 0.950 . S
H1716 C1692 0.950 . S
H1717 C1693 0.949 . S
H1718 C1695 0.950 . S
H1719 C1697 0.950 . S
C1720 C1721 1.349 . S
C1720 C1722 1.327 . S
C1720 H1745 0.950 . S
C1721 C1720 1.349 . S
C1721 C1737 1.349 . S
C1722 C1720 1.327 . S
C1722 C1741 1.429 . S
C1722 H1746 0.950 . S
C1723 C1740 1.574 . S
C1723 C1742 1.368 . S
C1723 H1747 0.949 . S
H1724 C1728 0.949 . S
C1725 C1726 1.349 . S
C1725 C1727 1.327 . S
C1725 H1748 0.950 . S
C1726 C1725 1.349 . S
C1726 C1738 1.349 . S
C1727 C1725 1.327 . S
C1727 C1743 1.429 . S
C1727 H1749 0.950 . S
C1728 H1724 0.949 . S
C1728 C1736 1.574 . S
C1728 C1744 1.368 . S
H1729 C1737 0.950 . S
H1730 C1735 0.950 . S
H1731 C1736 0.949 . S
H1732 C1738 0.950 . S
H1733 C1739 0.950 . S
H1734 C1740 0.949 . S
C1735 H1730 0.950 . S
C1735 C1737 1.327 . S
C1735 C1741 1.429 . S
C1736 C1728 1.574 . S
C1736 H1731 0.949 . S
C1736 C1742 1.368 . S
C1737 C1721 1.349 . S
C1737 H1729 0.950 . S
C1737 C1735 1.327 . S
C1738 C1726 1.349 . S
C1738 H1732 0.950 . S
C1738 C1739 1.327 . S
C1739 H1733 0.950 . S
C1739 C1738 1.327 . S
C1739 C1743 1.429 . S
C1740 C1723 1.574 . S
C1740 H1734 0.949 . S
C1740 C1744 1.368 . S
C1741 C1722 1.429 . S
C1741 C1735 1.429 . S
C1741 C1742 1.523 . S
C1742 C1723 1.368 . S
C1742 C1736 1.368 . S
C1742 C1741 1.523 . S
C1743 C1727 1.429 . S
C1743 C1739 1.429 . S
C1743 C1744 1.523 . S
C1744 C1728 1.368 . S
C1744 C1740 1.368 . S
C1744 C1743 1.523 . S
H1745 C1720 0.950 . S
H1746 C1722 0.950 . S
H1747 C1723 0.949 . S
H1748 C1725 0.950 . S
H1749 C1727 0.950 . S
C1750 C1751 1.349 . S
C1750 C1752 1.327 . S
C1750 H1775 0.950 . S
C1751 C1750 1.349 . S
C1751 C1767 1.349 . S
C1752 C1750 1.327 . S
C1752 C1771 1.429 . S
C1752 H1776 0.950 . S
C1753 C1770 1.574 . S
C1753 C1772 1.368 . S
C1753 H1777 0.949 . S
H1754 C1758 0.949 . S
C1755 C1756 1.349 . S
C1755 C1757 1.327 . S
C1755 H1778 0.950 . S
C1756 C1755 1.349 . S
C1756 C1768 1.349 . S
C1757 C1755 1.327 . S
C1757 C1773 1.429 . S
C1757 H1779 0.950 . S
C1758 H1754 0.949 . S
C1758 C1766 1.574 . S
C1758 C1774 1.368 . S
H1759 C1767 0.950 . S
H1760 C1765 0.950 . S
H1761 C1766 0.949 . S
H1762 C1768 0.950 . S
H1763 C1769 0.950 . S
H1764 C1770 0.949 . S
C1765 H1760 0.950 . S
C1765 C1767 1.327 . S
C1765 C1771 1.429 . S
C1766 C1758 1.574 . S
C1766 H1761 0.949 . S
C1766 C1772 1.368 . S
C1767 C1751 1.349 . S
C1767 H1759 0.950 . S
C1767 C1765 1.327 . S
C1768 C1756 1.349 . S
C1768 H1762 0.950 . S
C1768 C1769 1.327 . S
C1769 H1763 0.950 . S
C1769 C1768 1.327 . S
C1769 C1773 1.429 . S
C1770 C1753 1.574 . S
C1770 H1764 0.949 . S
C1770 C1774 1.368 . S
C1771 C1752 1.429 . S
C1771 C1765 1.429 . S
C1771 C1772 1.523 . S
C1772 C1753 1.368 . S
C1772 C1766 1.368 . S
C1772 C1771 1.523 . S
C1773 C1757 1.429 . S
C1773 C1769 1.429 . S
C1773 C1774 1.523 . S
C1774 C1758 1.368 . S
C1774 C1770 1.368 . S
C1774 C1773 1.523 . S
H1775 C1750 0.950 . S
H1776 C1752 0.950 . S
H1777 C1753 0.949 . S
H1778 C1755 0.950 . S
H1779 C1757 0.950 . S
C1780 C1781 1.349 . S
C1780 C1782 1.327 . S
C1780 H1805 0.950 . S
C1781 C1780 1.349 . S
C1781 C1797 1.349 . S
C1782 C1780 1.327 . S
C1782 C1801 1.429 . S
C1782 H1806 0.950 . S
C1783 C1800 1.574 . S
C1783 C1802 1.368 . S
C1783 H1807 0.949 . S
H1784 C1788 0.949 . S
C1785 C1786 1.349 . S
C1785 C1787 1.327 . S
C1785 H1808 0.950 . S
C1786 C1785 1.349 . S
C1786 C1798 1.349 . S
C1787 C1785 1.327 . S
C1787 C1803 1.429 . S
C1787 H1809 0.950 . S
C1788 H1784 0.949 . S
C1788 C1796 1.574 . S
C1788 C1804 1.368 . S
H1789 C1797 0.950 . S
H1790 C1795 0.950 . S
H1791 C1796 0.949 . S
H1792 C1798 0.950 . S
H1793 C1799 0.950 . S
H1794 C1800 0.949 . S
C1795 H1790 0.950 . S
C1795 C1797 1.327 . S
C1795 C1801 1.429 . S
C1796 C1788 1.574 . S
C1796 H1791 0.949 . S
C1796 C1802 1.368 . S
C1797 C1781 1.349 . S
C1797 H1789 0.950 . S
C1797 C1795 1.327 . S
C1798 C1786 1.349 . S
C1798 H1792 0.950 . S
C1798 C1799 1.327 . S
C1799 H1793 0.950 . S
C1799 C1798 1.327 . S
C1799 C1803 1.429 . S
C1800 C1783 1.574 . S
C1800 H1794 0.949 . S
C1800 C1804 1.368 . S
C1801 C1782 1.429 . S
C1801 C1795 1.429 . S
C1801 C1802 1.523 . S
C1802 C1783 1.368 . S
C1802 C1796 1.368 . S
C1802 C1801 1.523 . S
C1803 C1787 1.429 . S
C1803 C1799 1.429 . S
C1803 C1804 1.523 . S
C1804 C1788 1.368 . S
C1804 C1800 1.368 . S
C1804 C1803 1.523 . S
H1805 C1780 0.950 . S
H1806 C1782 0.950 . S
H1807 C1783 0.949 . S
H1808 C1785 0.950 . S
H1809 C1787 0.950 . S
C1810 C1811 1.349 . S
C1810 C1812 1.327 . S
C1810 H1835 0.950 . S
C1811 C1810 1.349 . S
C1811 C1827 1.349 . S
C1812 C1810 1.327 . S
C1812 C1831 1.429 . S
C1812 H1836 0.950 . S
C1813 C1830 1.574 . S
C1813 C1832 1.368 . S
C1813 H1837 0.949 . S
H1814 C1818 0.949 . S
C1815 C1816 1.349 . S
C1815 C1817 1.327 . S
C1815 H1838 0.950 . S
C1816 C1815 1.349 . S
C1816 C1828 1.349 . S
C1817 C1815 1.327 . S
C1817 C1833 1.429 . S
C1817 H1839 0.950 . S
C1818 H1814 0.949 . S
C1818 C1826 1.574 . S
C1818 C1834 1.368 . S
H1819 C1827 0.950 . S
H1820 C1825 0.950 . S
H1821 C1826 0.949 . S
H1822 C1828 0.950 . S
H1823 C1829 0.950 . S
H1824 C1830 0.949 . S
C1825 H1820 0.950 . S
C1825 C1827 1.327 . S
C1825 C1831 1.429 . S
C1826 C1818 1.574 . S
C1826 H1821 0.949 . S
C1826 C1832 1.368 . S
C1827 C1811 1.349 . S
C1827 H1819 0.950 . S
C1827 C1825 1.327 . S
C1828 C1816 1.349 . S
C1828 H1822 0.950 . S
C1828 C1829 1.327 . S
C1829 H1823 0.950 . S
C1829 C1828 1.327 . S
C1829 C1833 1.429 . S
C1830 C1813 1.574 . S
C1830 H1824 0.949 . S
C1830 C1834 1.368 . S
C1831 C1812 1.429 . S
C1831 C1825 1.429 . S
C1831 C1832 1.523 . S
C1832 C1813 1.368 . S
C1832 C1826 1.368 . S
C1832 C1831 1.523 . S
C1833 C1817 1.429 . S
C1833 C1829 1.429 . S
C1833 C1834 1.523 . S
C1834 C1818 1.368 . S
C1834 C1830 1.368 . S
C1834 C1833 1.523 . S
H1835 C1810 0.950 . S
H1836 C1812 0.950 . S
H1837 C1813 0.949 . S
H1838 C1815 0.950 . S
H1839 C1817 0.950 . S
C1840 C1841 1.349 . S
C1840 C1842 1.327 . S
C1840 H1865 0.950 . S
C1841 C1840 1.349 . S
C1841 C1857 1.349 . S
C1842 C1840 1.327 . S
C1842 C1861 1.429 1_565 S
C1842 H1866 0.950 1_565 S
C1843 C1860 1.574 . S
C1843 C1862 1.368 . S
C1843 H1867 0.949 . S
H1844 C1848 0.949 . S
C1845 C1846 1.349 . S
C1845 C1847 1.327 . S
C1845 H1868 0.950 . S
C1846 C1845 1.349 . S
C1846 C1858 1.349 . S
C1847 C1845 1.327 . S
C1847 C1863 1.429 . S
C1847 H1869 0.950 . S
C1848 H1844 0.949 . S
C1848 C1856 1.574 . S
C1848 C1864 1.368 . S
H1849 C1857 0.950 . S
H1850 C1855 0.950 . S
H1851 C1856 0.949 . S
H1852 C1858 0.950 . S
H1853 C1859 0.950 . S
H1854 C1860 0.949 . S
C1855 H1850 0.950 . S
C1855 C1857 1.327 . S
C1855 C1861 1.429 1_565 S
C1856 C1848 1.574 . S
C1856 H1851 0.949 . S
C1856 C1862 1.368 . S
C1857 C1841 1.349 . S
C1857 H1849 0.950 . S
C1857 C1855 1.327 . S
C1858 C1846 1.349 . S
C1858 H1852 0.950 . S
C1858 C1859 1.327 . S
C1859 H1853 0.950 . S
C1859 C1858 1.327 . S
C1859 C1863 1.429 . S
C1860 C1843 1.574 . S
C1860 H1854 0.949 . S
C1860 C1864 1.368 . S
C1861 C1842 1.429 1_545 S
C1861 C1855 1.429 1_545 S
C1861 C1862 1.523 . S
C1862 C1843 1.368 . S
C1862 C1856 1.368 . S
C1862 C1861 1.523 . S
C1863 C1847 1.429 . S
C1863 C1859 1.429 . S
C1863 C1864 1.523 . S
C1864 C1848 1.368 . S
C1864 C1860 1.368 . S
C1864 C1863 1.523 . S
H1865 C1840 0.950 . S
H1866 C1842 0.950 1_545 S
H1867 C1843 0.949 . S
H1868 C1845 0.950 . S
H1869 C1847 0.950 . S
C1870 C1871 1.349 . S
C1870 C1872 1.327 . S
C1870 H1895 0.950 . S
C1871 C1870 1.349 . S
C1871 C1887 1.349 . S
C1872 C1870 1.327 . S
C1872 C1891 1.429 . S
C1872 H1896 0.950 . S
C1873 C1890 1.574 . S
C1873 C1892 1.368 . S
C1873 H1897 0.949 . S
H1874 C1878 0.949 . S
C1875 C1876 1.349 . S
C1875 C1877 1.327 . S
C1875 H1898 0.950 . S
C1876 C1875 1.349 . S
C1876 C1888 1.349 . S
C1877 C1875 1.327 . S
C1877 C1893 1.429 1_545 S
C1877 H1899 0.950 1_545 S
C1878 H1874 0.949 . S
C1878 C1886 1.574 . S
C1878 C1894 1.368 . S
H1879 C1887 0.950 . S
H1880 C1885 0.950 . S
H1881 C1886 0.949 . S
H1882 C1888 0.950 . S
H1883 C1889 0.950 . S
H1884 C1890 0.949 . S
C1885 H1880 0.950 . S
C1885 C1887 1.327 . S
C1885 C1891 1.429 . S
C1886 C1878 1.574 . S
C1886 H1881 0.949 . S
C1886 C1892 1.368 . S
C1887 C1871 1.349 . S
C1887 H1879 0.950 . S
C1887 C1885 1.327 . S
C1888 C1876 1.349 . S
C1888 H1882 0.950 . S
C1888 C1889 1.327 . S
C1889 H1883 0.950 . S
C1889 C1888 1.327 . S
C1889 C1893 1.429 1_545 S
C1890 C1873 1.574 . S
C1890 H1884 0.949 . S
C1890 C1894 1.368 . S
C1891 C1872 1.429 . S
C1891 C1885 1.429 . S
C1891 C1892 1.523 . S
C1892 C1873 1.368 . S
C1892 C1886 1.368 . S
C1892 C1891 1.523 . S
C1893 C1877 1.429 1_565 S
C1893 C1889 1.429 1_565 S
C1893 C1894 1.523 . S
C1894 C1878 1.368 . S
C1894 C1890 1.368 . S
C1894 C1893 1.523 . S
H1895 C1870 0.950 . S
H1896 C1872 0.950 . S
H1897 C1873 0.949 . S
H1898 C1875 0.950 . S
H1899 C1877 0.950 1_565 S
C1900 C1901 1.349 . S
C1900 C1902 1.327 . S
C1900 H1925 0.950 . S
C1901 C1900 1.349 . S
C1901 C1917 1.349 . S
C1902 C1900 1.327 . S
C1902 C1921 1.429 1_545 S
C1902 H1926 0.950 1_545 S
C1903 C1920 1.574 . S
C1903 C1922 1.368 . S
C1903 H1927 0.949 . S
H1904 C1908 0.949 . S
C1905 C1906 1.349 . S
C1905 C1907 1.327 . S
C1905 H1928 0.950 . S
C1906 C1905 1.349 . S
C1906 C1918 1.349 . S
C1907 C1905 1.327 . S
C1907 C1923 1.429 . S
C1907 H1929 0.950 . S
C1908 H1904 0.949 . S
C1908 C1916 1.574 . S
C1908 C1924 1.368 . S
H1909 C1917 0.950 . S
H1910 C1915 0.950 . S
H1911 C1916 0.949 . S
H1912 C1918 0.950 . S
H1913 C1919 0.950 . S
H1914 C1920 0.949 . S
C1915 H1910 0.950 . S
C1915 C1917 1.327 . S
C1915 C1921 1.429 1_545 S
C1916 C1908 1.574 . S
C1916 H1911 0.949 . S
C1916 C1922 1.368 . S
C1917 C1901 1.349 . S
C1917 H1909 0.950 . S
C1917 C1915 1.327 . S
C1918 C1906 1.349 . S
C1918 H1912 0.950 . S
C1918 C1919 1.327 . S
C1919 H1913 0.950 . S
C1919 C1918 1.327 . S
C1919 C1923 1.429 . S
C1920 C1903 1.574 . S
C1920 H1914 0.949 . S
C1920 C1924 1.368 . S
C1921 C1902 1.429 1_565 S
C1921 C1915 1.429 1_565 S
C1921 C1922 1.523 . S
C1922 C1903 1.368 . S
C1922 C1916 1.368 . S
C1922 C1921 1.523 . S
C1923 C1907 1.429 . S
C1923 C1919 1.429 . S
C1923 C1924 1.523 . S
C1924 C1908 1.368 . S
C1924 C1920 1.368 . S
C1924 C1923 1.523 . S
H1925 C1900 0.950 . S
H1926 C1902 0.950 1_565 S
H1927 C1903 0.949 . S
H1928 C1905 0.950 . S
H1929 C1907 0.950 . S
C1930 C1931 1.349 . S
C1930 C1932 1.327 . S
C1930 H1955 0.950 . S
C1931 C1930 1.349 . S
C1931 C1947 1.349 . S
C1932 C1930 1.327 . S
C1932 C1951 1.429 1_565 S
C1932 H1956 0.950 1_565 S
C1933 C1950 1.574 . S
C1933 C1952 1.368 . S
C1933 H1957 0.949 . S
H1934 C1938 0.949 . S
C1935 C1936 1.349 . S
C1935 C1937 1.327 . S
C1935 H1958 0.950 . S
C1936 C1935 1.349 . S
C1936 C1948 1.349 . S
C1937 C1935 1.327 . S
C1937 C1953 1.429 . S
C1937 H1959 0.950 . S
C1938 H1934 0.949 . S
C1938 C1946 1.574 . S
C1938 C1954 1.368 . S
H1939 C1947 0.950 . S
H1940 C1945 0.950 . S
H1941 C1946 0.949 . S
H1942 C1948 0.950 . S
H1943 C1949 0.950 . S
H1944 C1950 0.949 . S
C1945 H1940 0.950 . S
C1945 C1947 1.327 . S
C1945 C1951 1.429 1_565 S
C1946 C1938 1.574 . S
C1946 H1941 0.949 . S
C1946 C1952 1.368 . S
C1947 C1931 1.349 . S
C1947 H1939 0.950 . S
C1947 C1945 1.327 . S
C1948 C1936 1.349 . S
C1948 H1942 0.950 . S
C1948 C1949 1.327 . S
C1949 H1943 0.950 . S
C1949 C1948 1.327 . S
C1949 C1953 1.429 . S
C1950 C1933 1.574 . S
C1950 H1944 0.949 . S
C1950 C1954 1.368 . S
C1951 C1932 1.429 1_545 S
C1951 C1945 1.429 1_545 S
C1951 C1952 1.523 . S
C1952 C1933 1.368 . S
C1952 C1946 1.368 . S
C1952 C1951 1.523 . S
C1953 C1937 1.429 . S
C1953 C1949 1.429 . S
C1953 C1954 1.523 . S
C1954 C1938 1.368 . S
C1954 C1950 1.368 . S
C1954 C1953 1.523 . S
H1955 C1930 0.950 . S
H1956 C1932 0.950 1_545 S
H1957 C1933 0.949 . S
H1958 C1935 0.950 . S
H1959 C1937 0.950 . S
C1960 C1961 1.349 . S
C1960 C1962 1.327 . S
C1960 H1985 0.950 . S
C1961 C1960 1.349 . S
C1961 C1977 1.349 . S
C1962 C1960 1.327 . S
C1962 C1981 1.429 . S
C1962 H1986 0.950 . S
C1963 C1980 1.574 . S
C1963 C1982 1.368 . S
C1963 H1987 0.949 . S
H1964 C1968 0.949 . S
C1965 C1966 1.349 . S
C1965 C1967 1.327 . S
C1965 H1988 0.950 . S
C1966 C1965 1.349 . S
C1966 C1978 1.349 . S
C1967 C1965 1.327 . S
C1967 C1983 1.429 1_545 S
C1967 H1989 0.950 . S
C1968 H1964 0.949 . S
C1968 C1976 1.574 . S
C1968 C1984 1.368 . S
H1969 C1977 0.950 . S
H1970 C1975 0.950 . S
H1971 C1976 0.949 . S
H1972 C1978 0.950 . S
H1973 C1979 0.950 1_565 S
H1974 C1980 0.949 . S
C1975 H1970 0.950 . S
C1975 C1977 1.327 . S
C1975 C1981 1.429 . S
C1976 C1968 1.574 . S
C1976 H1971 0.949 . S
C1976 C1982 1.368 . S
C1977 C1961 1.349 . S
C1977 H1969 0.950 . S
C1977 C1975 1.327 . S
C1978 C1966 1.349 . S
C1978 H1972 0.950 . S
C1978 C1979 1.327 . S
C1979 H1973 0.950 1_545 S
C1979 C1978 1.327 . S
C1979 C1983 1.429 1_545 S
C1980 C1963 1.574 . S
C1980 H1974 0.949 . S
C1980 C1984 1.368 . S
C1981 C1962 1.429 . S
C1981 C1975 1.429 . S
C1981 C1982 1.523 . S
C1982 C1963 1.368 . S
C1982 C1976 1.368 . S
C1982 C1981 1.523 . S
C1983 C1967 1.429 1_565 S
C1983 C1979 1.429 1_565 S
C1983 C1984 1.523 . S
C1984 C1968 1.368 . S
C1984 C1980 1.368 . S
C1984 C1983 1.523 . S
H1985 C1960 0.950 . S
H1986 C1962 0.950 . S
H1987 C1963 0.949 . S
H1988 C1965 0.950 . S
H1989 C1967 0.950 . S
C1990 C1991 1.349 . S
C1990 C1992 1.327 . S
C1990 H2015 0.950 . S
C1991 C1990 1.349 . S
C1991 C2007 1.349 . S
C1992 C1990 1.327 . S
C1992 C2011 1.429 . S
C1992 H2016 0.950 . S
C1993 C2010 1.574 . S
C1993 C2012 1.368 . S
C1993 H2017 0.949 . S
H1994 C1998 0.949 . S
C1995 C1996 1.349 . S
C1995 C1997 1.327 . S
C1995 H2018 0.950 . S
C1996 C1995 1.349 . S
C1996 C2008 1.349 . S
C1997 C1995 1.327 . S
C1997 C2013 1.429 1_565 S
C1997 H2019 0.950 . S
C1998 H1994 0.949 . S
C1998 C2006 1.574 . S
C1998 C2014 1.368 . S
H1999 C2007 0.950 . S
H2000 C2005 0.950 . S
H2001 C2006 0.949 . S
H2002 C2008 0.950 . S
H2003 C2009 0.950 1_545 S
H2004 C2010 0.949 . S
C2005 H2000 0.950 . S
C2005 C2007 1.327 . S
C2005 C2011 1.429 . S
C2006 C1998 1.574 . S
C2006 H2001 0.949 . S
C2006 C2012 1.368 . S
C2007 C1991 1.349 . S
C2007 H1999 0.950 . S
C2007 C2005 1.327 . S
C2008 C1996 1.349 . S
C2008 H2002 0.950 . S
C2008 C2009 1.327 . S
C2009 H2003 0.950 1_565 S
C2009 C2008 1.327 . S
C2009 C2013 1.429 1_565 S
C2010 C1993 1.574 . S
C2010 H2004 0.949 . S
C2010 C2014 1.368 . S
C2011 C1992 1.429 . S
C2011 C2005 1.429 . S
C2011 C2012 1.523 . S
C2012 C1993 1.368 . S
C2012 C2006 1.368 . S
C2012 C2011 1.523 . S
C2013 C1997 1.429 1_545 S
C2013 C2009 1.429 1_545 S
C2013 C2014 1.523 . S
C2014 C1998 1.368 . S
C2014 C2010 1.368 . S
C2014 C2013 1.523 . S
H2015 C1990 0.950 . S
H2016 C1992 0.950 . S
H2017 C1993 0.949 . S
H2018 C1995 0.950 . S
H2019 C1997 0.950 . S
C2020 C2021 1.349 . S
C2020 C2022 1.327 . S
C2020 H2045 0.950 . S
C2021 C2020 1.349 . S
C2021 C2037 1.349 . S
C2022 C2020 1.327 . S
C2022 C2041 1.429 1_565 S
C2022 H2046 0.950 . S
C2023 C2040 1.574 . S
C2023 C2042 1.368 . S
C2023 H2047 0.949 . S
H2024 C2028 0.949 . S
C2025 C2026 1.349 . S
C2025 C2027 1.327 . S
C2025 H2048 0.950 . S
C2026 C2025 1.349 . S
C2026 C2038 1.349 . S
C2027 C2025 1.327 . S
C2027 C2043 1.429 . S
C2027 H2049 0.950 . S
C2028 H2024 0.949 . S
C2028 C2036 1.574 . S
C2028 C2044 1.368 . S
H2029 C2037 0.950 . S
H2030 C2035 0.950 1_545 S
H2031 C2036 0.949 . S
H2032 C2038 0.950 . S
H2033 C2039 0.950 . S
H2034 C2040 0.949 . S
C2035 H2030 0.950 1_565 S
C2035 C2037 1.327 . S
C2035 C2041 1.429 1_565 S
C2036 C2028 1.574 . S
C2036 H2031 0.949 . S
C2036 C2042 1.368 . S
C2037 C2021 1.349 . S
C2037 H2029 0.950 . S
C2037 C2035 1.327 . S
C2038 C2026 1.349 . S
C2038 H2032 0.950 . S
C2038 C2039 1.327 . S
C2039 H2033 0.950 . S
C2039 C2038 1.327 . S
C2039 C2043 1.429 . S
C2040 C2023 1.574 . S
C2040 H2034 0.949 . S
C2040 C2044 1.368 . S
C2041 C2022 1.429 1_545 S
C2041 C2035 1.429 1_545 S
C2041 C2042 1.523 . S
C2042 C2023 1.368 . S
C2042 C2036 1.368 . S
C2042 C2041 1.523 . S
C2043 C2027 1.429 . S
C2043 C2039 1.429 . S
C2043 C2044 1.523 . S
C2044 C2028 1.368 . S
C2044 C2040 1.368 . S
C2044 C2043 1.523 . S
H2045 C2020 0.950 . S
H2046 C2022 0.950 . S
H2047 C2023 0.949 . S
H2048 C2025 0.950 . S
H2049 C2027 0.950 . S
C2050 C2051 1.349 . S
C2050 C2052 1.327 . S
C2050 H2075 0.950 . S
C2051 C2050 1.349 . S
C2051 C2067 1.349 . S
C2052 C2050 1.327 . S
C2052 C2071 1.429 . S
C2052 H2076 0.950 . S
C2053 C2070 1.574 . S
C2053 C2072 1.368 . S
C2053 H2077 0.949 . S
H2054 C2058 0.949 . S
C2055 C2056 1.349 . S
C2055 C2057 1.327 . S
C2055 H2078 0.950 . S
C2056 C2055 1.349 . S
C2056 C2068 1.349 . S
C2057 C2055 1.327 . S
C2057 C2073 1.429 1_545 S
C2057 H2079 0.950 . S
C2058 H2054 0.949 . S
C2058 C2066 1.574 . S
C2058 C2074 1.368 . S
H2059 C2067 0.950 . S
H2060 C2065 0.950 . S
H2061 C2066 0.949 . S
H2062 C2068 0.950 . S
H2063 C2069 0.950 1_565 S
H2064 C2070 0.949 . S
C2065 H2060 0.950 . S
C2065 C2067 1.327 . S
C2065 C2071 1.429 . S
C2066 C2058 1.574 . S
C2066 H2061 0.949 . S
C2066 C2072 1.368 . S
C2067 C2051 1.349 . S
C2067 H2059 0.950 . S
C2067 C2065 1.327 . S
C2068 C2056 1.349 . S
C2068 H2062 0.950 . S
C2068 C2069 1.327 . S
C2069 H2063 0.950 1_545 S
C2069 C2068 1.327 . S
C2069 C2073 1.429 1_545 S
C2070 C2053 1.574 . S
C2070 H2064 0.949 . S
C2070 C2074 1.368 . S
C2071 C2052 1.429 . S
C2071 C2065 1.429 . S
C2071 C2072 1.523 . S
C2072 C2053 1.368 . S
C2072 C2066 1.368 . S
C2072 C2071 1.523 . S
C2073 C2057 1.429 1_565 S
C2073 C2069 1.429 1_565 S
C2073 C2074 1.523 . S
C2074 C2058 1.368 . S
C2074 C2070 1.368 . S
C2074 C2073 1.523 . S
H2075 C2050 0.950 . S
H2076 C2052 0.950 . S
H2077 C2053 0.949 . S
H2078 C2055 0.950 . S
H2079 C2057 0.950 . S
C641 C12 1.543 . S
C646 C372 1.543 . S
C671 C52 1.543 . S
C676 C332 1.543 . S
C701 C452 1.543 . S
C706 C92 1.543 . S
C731 C132 1.543 . S
C736 C412 1.543 . S
C761 C551 1.543 . S
C766 C191 1.543 . S
C791 C511 1.543 . S
C796 C231 1.543 . S
C821 C631 1.543 . S
C826 C271 1.543 . S
C851 C311 1.543 . S
C856 C591 1.543 . S
C881 C82 1.649 . S
C886 C2 1.649 . S
C911 C122 1.649 . S
C916 C42 1.649 . S
C941 C257 1.649 . S
C946 C177 1.649 . S
C971 C217 1.649 . S
C976 C297 1.649 . S
C1001 C402 1.649 . S
C1006 C322 1.649 . S
C1031 C442 1.649 . S
C1036 C362 1.649 . S
C1061 C497 1.649 . S
C1066 C577 1.649 . S
C1091 C537 1.649 . S
C1096 C617 1.649 . S
C1121 C202 1.546 . S
C1126 C17 1.546 . S
C1151 C162 1.546 . S
C1156 C57 1.546 . S
C1181 C97 1.546 . S
C1186 C282 1.546 . S
C1211 C242 1.546 . S
C1216 C137 1.546 . S
C1241 C337 1.546 . S
C1246 C522 1.546 . S
C1271 C482 1.546 . S
C1276 C377 1.546 . S
C1301 C417 1.546 . S
C1306 C602 1.546 . S
C1331 C562 1.546 . S
C1336 C457 1.546 . S
C1361 C71 1.618 . S
C1366 C31 1.618 . S
C1391 C151 1.618 . S
C1396 C111 1.618 . S
C1421 C212 1.618 . S
C1426 C172 1.618 . S
C1451 C252 1.618 . S
C1456 C292 1.618 . S
C1481 C391 1.618 . S
C1486 C351 1.618 . S
C1511 C471 1.618 . S
C1516 C431 1.618 . S
C1541 C492 1.618 . S
C1546 C532 1.618 . S
C1571 C572 1.618 . S
C1576 C612 1.618 . S
C1601 C8 1.694 . S
C1606 C29 1.694 . S
C1631 C48 1.694 . S
C1636 C69 1.694 . S
C1661 C88 1.694 . S
C1666 C109 1.694 . S
C1691 C149 1.694 . S
C1696 C128 1.694 . S
C1721 C189 1.694 . S
C1726 C168 1.694 . S
C1751 C208 1.694 . S
C1756 C229 1.694 . S
C1781 C269 1.694 . S
C1786 C248 1.694 . S
C1811 C309 1.694 . S
C1816 C288 1.694 . S
C1841 C349 1.694 . S
C1846 C328 1.694 . S
C1871 C368 1.694 . S
C1876 C389 1.694 . S
C1901 C429 1.694 . S
C1906 C408 1.694 . S
C1931 C469 1.694 . S
C1936 C448 1.694 . S
C1961 C509 1.694 . S
C1966 C488 1.694 . S
C1991 C549 1.694 . S
C1996 C528 1.694 . S
C2021 C568 1.694 . S
C2026 C589 1.694 . S
C2051 C629 1.694 . S
C2056 C608 1.694 . S
