# Generated by pormake.
# Topology bcs, (6)-cn, num edge types: 1
# Building blocks:
#     Node 0, Type 0, BuildingBlock: BETDAH_clean_sbu_0, # of connection points: 6
#     Node 1, Type 0, BuildingBlock: BETDAH_clean_sbu_0, # of connection points: 6
#     Node 2, Type 0, BuildingBlock: BETDAH_clean_sbu_0, # of connection points: 6
#     Node 3, Type 0, BuildingBlock: BETDAH_clean_sbu_0, # of connection points: 6
#     Node 4, Type 0, BuildingBlock: BETDAH_clean_sbu_0, # of connection points: 6
#     Node 5, Type 0, BuildingBlock: BETDAH_clean_sbu_0, # of connection points: 6
#     Node 6, Type 0, BuildingBlock: BETDAH_clean_sbu_0, # of connection points: 6
#     Node 7, Type 0, BuildingBlock: BETDAH_clean_sbu_0, # of connection points: 6
#     Node 8, Type 0, BuildingBlock: BETDAH_clean_sbu_0, # of connection points: 6
#     Node 9, Type 0, BuildingBlock: BETDAH_clean_sbu_0, # of connection points: 6
#     Node 10, Type 0, BuildingBlock: BETDAH_clean_sbu_0, # of connection points: 6
#     Node 11, Type 0, BuildingBlock: BETDAH_clean_sbu_0, # of connection points: 6
#     Node 12, Type 0, BuildingBlock: BETDAH_clean_sbu_0, # of connection points: 6
#     Node 13, Type 0, BuildingBlock: BETDAH_clean_sbu_0, # of connection points: 6
#     Node 14, Type 0, BuildingBlock: BETDAH_clean_sbu_0, # of connection points: 6
#     Node 15, Type 0, BuildingBlock: BETDAH_clean_sbu_0, # of connection points: 6
#     Edge 16, Type (0, 0), BuildingBlock: UVAHIK_clean_linker_0, # of connection points: 2
#     Edge 17, Type (0, 0), BuildingBlock: UVAHIK_clean_linker_0, # of connection points: 2
#     Edge 18, Type (0, 0), BuildingBlock: UVAHIK_clean_linker_0, # of connection points: 2
#     Edge 19, Type (0, 0), BuildingBlock: UVAHIK_clean_linker_0, # of connection points: 2
#     Edge 20, Type (0, 0), BuildingBlock: UVAHIK_clean_linker_0, # of connection points: 2
#     Edge 21, Type (0, 0), BuildingBlock: UVAHIK_clean_linker_0, # of connection points: 2
#     Edge 22, Type (0, 0), BuildingBlock: UVAHIK_clean_linker_0, # of connection points: 2
#     Edge 23, Type (0, 0), BuildingBlock: UVAHIK_clean_linker_0, # of connection points: 2
#     Edge 24, Type (0, 0), BuildingBlock: UVAHIK_clean_linker_0, # of connection points: 2
#     Edge 25, Type (0, 0), BuildingBlock: UVAHIK_clean_linker_0, # of connection points: 2
#     Edge 26, Type (0, 0), BuildingBlock: UVAHIK_clean_linker_0, # of connection points: 2
#     Edge 27, Type (0, 0), BuildingBlock: UVAHIK_clean_linker_0, # of connection points: 2
#     Edge 28, Type (0, 0), BuildingBlock: UVAHIK_clean_linker_0, # of connection points: 2
#     Edge 29, Type (0, 0), BuildingBlock: UVAHIK_clean_linker_0, # of connection points: 2
#     Edge 30, Type (0, 0), BuildingBlock: UVAHIK_clean_linker_0, # of connection points: 2
#     Edge 31, Type (0, 0), BuildingBlock: UVAHIK_clean_linker_0, # of connection points: 2
#     Edge 32, Type (0, 0), BuildingBlock: UVAHIK_clean_linker_0, # of connection points: 2
#     Edge 33, Type (0, 0), BuildingBlock: UVAHIK_clean_linker_0, # of connection points: 2
#     Edge 34, Type (0, 0), BuildingBlock: UVAHIK_clean_linker_0, # of connection points: 2
#     Edge 35, Type (0, 0), BuildingBlock: UVAHIK_clean_linker_0, # of connection points: 2
#     Edge 36, Type (0, 0), BuildingBlock: UVAHIK_clean_linker_0, # of connection points: 2
#     Edge 37, Type (0, 0), BuildingBlock: UVAHIK_clean_linker_0, # of connection points: 2
#     Edge 38, Type (0, 0), BuildingBlock: UVAHIK_clean_linker_0, # of connection points: 2
#     Edge 39, Type (0, 0), BuildingBlock: UVAHIK_clean_linker_0, # of connection points: 2
#     Edge 40, Type (0, 0), BuildingBlock: UVAHIK_clean_linker_0, # of connection points: 2
#     Edge 41, Type (0, 0), BuildingBlock: UVAHIK_clean_linker_0, # of connection points: 2
#     Edge 42, Type (0, 0), BuildingBlock: UVAHIK_clean_linker_0, # of connection points: 2
#     Edge 43, Type (0, 0), BuildingBlock: UVAHIK_clean_linker_0, # of connection points: 2
#     Edge 44, Type (0, 0), BuildingBlock: UVAHIK_clean_linker_0, # of connection points: 2
#     Edge 45, Type (0, 0), BuildingBlock: UVAHIK_clean_linker_0, # of connection points: 2
#     Edge 46, Type (0, 0), BuildingBlock: UVAHIK_clean_linker_0, # of connection points: 2
#     Edge 47, Type (0, 0), BuildingBlock: UVAHIK_clean_linker_0, # of connection points: 2
#     Edge 48, Type (0, 0), BuildingBlock: UVAHIK_clean_linker_0, # of connection points: 2
#     Edge 49, Type (0, 0), BuildingBlock: UVAHIK_clean_linker_0, # of connection points: 2
#     Edge 50, Type (0, 0), BuildingBlock: UVAHIK_clean_linker_0, # of connection points: 2
#     Edge 51, Type (0, 0), BuildingBlock: UVAHIK_clean_linker_0, # of connection points: 2
#     Edge 52, Type (0, 0), BuildingBlock: UVAHIK_clean_linker_0, # of connection points: 2
#     Edge 53, Type (0, 0), BuildingBlock: UVAHIK_clean_linker_0, # of connection points: 2
#     Edge 54, Type (0, 0), BuildingBlock: UVAHIK_clean_linker_0, # of connection points: 2
#     Edge 55, Type (0, 0), BuildingBlock: UVAHIK_clean_linker_0, # of connection points: 2
#     Edge 56, Type (0, 0), BuildingBlock: UVAHIK_clean_linker_0, # of connection points: 2
#     Edge 57, Type (0, 0), BuildingBlock: UVAHIK_clean_linker_0, # of connection points: 2
#     Edge 58, Type (0, 0), BuildingBlock: UVAHIK_clean_linker_0, # of connection points: 2
#     Edge 59, Type (0, 0), BuildingBlock: UVAHIK_clean_linker_0, # of connection points: 2
#     Edge 60, Type (0, 0), BuildingBlock: UVAHIK_clean_linker_0, # of connection points: 2
#     Edge 61, Type (0, 0), BuildingBlock: UVAHIK_clean_linker_0, # of connection points: 2
#     Edge 62, Type (0, 0), BuildingBlock: UVAHIK_clean_linker_0, # of connection points: 2
#     Edge 63, Type (0, 0), BuildingBlock: UVAHIK_clean_linker_0, # of connection points: 2
# Relax obj value: 0.189
# Max RMSD: 0.244
# Mean RMSD: 0.196
data_MOF--net-bcs--node1-BETDAH_clean_sbu_0--edge1-UVAHIK_clean_linker_0
_symmetry_space_group_name_H-M    P1
_symmetry_Int_Tables_number       1
_symmetry_cell_setting            triclinic
loop_
_symmetry_equiv_pos_as_xyz
'x, y, z'
_cell_length_a     53.234519
_cell_length_b     52.81787
_cell_length_c     49.581522
_cell_angle_alpha  79.794293
_cell_angle_beta   106.84287
_cell_angle_gamma 116.44582
loop_
_atom_site_label
_atom_site_type_symbol
_atom_site_fract_x
_atom_site_fract_y
_atom_site_fract_z
_atom_type_partial_charge
Ho0 Ho 0.05028 0.99256 0.99603 0.0
Ho1 Ho 0.03645 0.02754 0.02976 0.0
C2 C 0.09695 0.02527 0.05039 0.0
C3 C 0.06773 0.9695 0.96712 0.0
C4 C 0.089 0.96385 0.95779 0.0
C5 C 0.10603 0.98307 0.93972 0.0
C6 C 0.12227 0.97522 0.92759 0.0
C7 C 0.12172 0.9478 0.93289 0.0
C8 C 0.10501 0.9289 0.95142 0.0
C9 C 0.08901 0.93681 0.96362 0.0
C10 C 1.01591 0.96259 0.03242 0.0
C11 C 0.99033 0.99642 0.97371 0.0
C12 C 1.0183 0.04774 0.06085 0.0
C13 C 0.997 0.05548 0.06752 0.0
C14 C 0.97361 0.03532 0.07847 0.0
C15 C 0.957 0.04385 0.08928 0.0
C16 C 0.96358 0.07279 0.08983 0.0
C17 C 0.98642 0.09277 0.07805 0.0
C18 C 1.00284 0.08426 0.06714 0.0
C19 C 0.07035 0.05816 0.99314 0.0
O20 O 0.09289 0.01702 0.02518 0.0
O21 O 0.07597 0.02544 0.05931 0.0
O22 O 0.0621 0.95924 0.9918 0.0
O23 O 0.06447 0.99305 0.95886 0.0
O24 O 1.01286 0.95421 1.00819 0.0
O25 O 0.03786 0.9859 0.03683 0.0
O26 O 0.9945 0.00641 0.9981 0.0
O27 O 1.0107 0.99372 0.966 0.0
O28 O 1.03187 0.06277 0.04135 0.0
O29 O 1.01438 0.02124 0.06282 0.0
O30 O 0.07255 0.06681 0.01695 0.0
O31 O 0.04895 0.03437 0.98895 0.0
H32 H 0.10627 1.00396 0.93436 0.0
H33 H 0.13507 0.99067 0.91385 0.0
H34 H 0.10327 0.90745 0.95577 0.0
H35 H 0.07561 0.92119 0.97684 0.0
H36 H 0.96873 0.01299 0.07962 0.0
H37 H 0.93976 0.02779 0.09831 0.0
H38 H 0.99197 0.11519 0.07761 0.0
H39 H 1.02094 0.10044 0.05933 0.0
Ho40 Ho 0.28963 0.77677 0.26243 0.0
Ho41 Ho 0.23148 0.77536 0.2301 0.0
C42 C 0.23052 0.73089 0.28057 0.0
C43 C 0.33352 0.7779 0.30229 0.0
C44 C 0.33548 0.75678 0.32549 0.0
C45 C 0.31737 0.74781 0.34431 0.0
C46 C 0.31332 0.72269 0.36089 0.0
C47 C 0.32711 0.70622 0.35862 0.0
C48 C 0.34729 0.71655 0.3419 0.0
C49 C 0.35159 0.74179 0.32558 0.0
C50 C 0.26325 0.74398 0.21756 0.0
C51 C 0.29016 0.81959 0.21009 0.0
C52 C 0.1876 0.77806 0.19306 0.0
C53 C 0.18519 0.8042 0.17907 0.0
C54 C 0.19291 0.81459 0.15315 0.0
C55 C 0.19907 0.84275 0.14383 0.0
C56 C 0.1975 0.86082 0.16027 0.0
C57 C 0.18744 0.84985 0.18489 0.0
C58 C 0.18111 0.82172 0.19411 0.0
C59 C 0.25908 0.80907 0.2744 0.0
O60 O 0.25858 0.74682 0.28914 0.0
O61 O 0.21602 0.73445 0.25481 0.0
O62 O 0.32839 0.76959 0.27712 0.0
O63 O 0.3179 0.791 0.30307 0.0
O64 O 0.29103 0.75832 0.22527 0.0
O65 O 0.25137 0.74614 0.23501 0.0
O66 O 0.2619 0.80419 0.20237 0.0
O67 O 0.30553 0.81601 0.23536 0.0
O68 O 0.18894 0.77462 0.22015 0.0
O69 O 0.20669 0.77231 0.18678 0.0
O70 O 0.23147 0.79405 0.26806 0.0
O71 O 0.2699 0.80631 0.25646 0.0
H72 H 0.30473 0.75901 0.34484 0.0
H73 H 0.29779 0.71511 0.37379 0.0
H74 H 0.35855 0.70432 0.34031 0.0
H75 H 0.3658 0.74842 0.3114 0.0
H76 H 0.19609 0.80153 0.14105 0.0
H77 H 0.20649 0.85077 0.12457 0.0
H78 H 0.18526 0.86327 0.19744 0.0
H79 H 0.17483 0.81433 0.21398 0.0
Ho80 Ho 0.51886 1.00074 0.5378 0.0
Ho81 Ho 0.53453 1.00182 0.48657 0.0
C82 C 0.49339 0.03799 0.47858 0.0
C83 C 0.51455 0.01573 0.58229 0.0
C84 C 0.49564 0.02589 0.5883 0.0
C85 C 0.47271 0.02808 0.5669 0.0
C86 C 0.45574 0.03949 0.57231 0.0
C87 C 0.4615 0.04867 0.59924 0.0
C88 C 0.48413 0.04578 0.62078 0.0
C89 C 0.50119 0.03451 0.61528 0.0
C90 C 0.47832 0.96003 0.50338 0.0
C91 C 0.56055 0.96499 0.54585 0.0
C92 C 0.53747 0.98567 0.44215 0.0
C93 C 0.55599 0.97546 0.43555 0.0
C94 C 0.58052 0.97528 0.45581 0.0
C95 C 0.59771 0.96467 0.44951 0.0
C96 C 0.59042 0.9542 0.42289 0.0
C97 C 0.56589 0.95466 0.40263 0.0
C98 C 0.54871 0.96521 0.40899 0.0
C99 C 0.57424 0.04379 0.51949 0.0
O100 O 0.49741 0.03149 0.50704 0.0
O101 O 0.50537 0.02729 0.46564 0.0
O102 O 0.50225 0.98948 0.57508 0.0
O103 O 0.53147 0.0331 0.56617 0.0
O104 O 0.48423 0.95603 0.53065 0.0
O105 O 0.49287 0.98536 0.49654 0.0
O106 O 0.55798 0.97291 0.51773 0.0
O107 O 0.54687 0.974 0.55847 0.0
O108 O 0.54985 0.01217 0.44864 0.0
O109 O 0.52136 0.96858 0.4591 0.0
O110 O 0.56776 0.04685 0.49214 0.0
O111 O 0.56078 0.01844 0.52754 0.0
H112 H 0.46822 0.02137 0.54595 0.0
H113 H 0.43864 0.04178 0.55528 0.0
H114 H 0.48872 0.05236 0.64182 0.0
H115 H 0.51887 0.03282 0.63193 0.0
H116 H 0.58625 0.9832 0.47646 0.0
H117 H 0.61643 0.96434 0.46547 0.0
H118 H 0.56016 0.94712 0.38179 0.0
H119 H 0.52976 0.96533 0.39324 0.0
Ho120 Ho 0.28338 0.23604 0.75365 0.0
Ho121 Ho 0.29537 0.29187 0.77376 0.0
C122 C 0.32397 0.29582 0.72438 0.0
C123 C 0.26626 0.19352 0.72383 0.0
C124 C 0.27673 0.1869 0.70317 0.0
C125 C 0.26576 0.15881 0.69625 0.0
C126 C 0.27811 0.15165 0.67928 0.0
C127 C 0.30155 0.1726 0.66903 0.0
C128 C 0.31134 0.20102 0.67474 0.0
C129 C 0.2991 0.20809 0.69187 0.0
C130 C 0.33078 0.25698 0.79607 0.0
C131 C 0.25523 0.23175 0.80346 0.0
C132 C 0.30913 0.33361 0.80324 0.0
C133 C 0.2935 0.33759 0.82063 0.0
C134 C 0.30503 0.3626 0.83458 0.0
C135 C 0.28865 0.36703 0.84921 0.0
C136 C 0.26066 0.34644 0.84989 0.0
C137 C 0.24978 0.32093 0.83681 0.0
C138 C 0.26602 0.31662 0.82215 0.0
C139 C 0.24764 0.27036 0.7318 0.0
O140 O 0.30618 0.26855 0.72131 0.0
O141 O 0.32683 0.30871 0.74633 0.0
O142 O 0.28253 0.19569 0.74955 0.0
O143 O 0.25734 0.21371 0.71587 0.0
O144 O 0.31375 0.23019 0.79479 0.0
O145 O 0.32243 0.27051 0.77483 0.0
O146 O 0.27254 0.25919 0.80625 0.0
O147 O 0.25279 0.21887 0.78175 0.0
O148 O 0.29679 0.33283 0.77623 0.0
O149 O 0.31786 0.31339 0.81259 0.0
O150 O 0.26474 0.29711 0.73241 0.0
O151 O 0.25645 0.25735 0.75318 0.0
H152 H 0.24847 0.14228 0.70492 0.0
H153 H 0.27038 0.12952 0.67555 0.0
H154 H 0.32914 0.21761 0.66684 0.0
H155 H 0.30779 0.2299 0.69707 0.0
H156 H 0.32624 0.37894 0.83348 0.0
H157 H 0.29737 0.38697 0.85897 0.0
H158 H 0.22841 0.30459 0.83735 0.0
H159 H 0.25676 0.29726 0.81129 0.0
Ho160 Ho 0.061 1.00331 0.53398 0.0
Ho161 Ho 1.01157 0.01632 0.50697 0.0
C162 C 1.00656 0.9741 0.56089 0.0
C163 C 0.11046 1.00264 0.55679 0.0
C164 C 0.12161 0.9811 0.56395 0.0
C165 C 0.14336 0.98315 0.58852 0.0
C166 C 0.15814 0.96615 0.59287 0.0
C167 C 0.15137 0.94743 0.5724 0.0
C168 C 0.12835 0.94403 0.54877 0.0
C169 C 0.11323 0.96056 0.54471 0.0
C170 C 1.01771 0.96177 0.50133 0.0
C171 C 0.06455 0.04456 0.47763 0.0
C172 C 0.96833 0.02544 0.47785 0.0
C173 C 0.94364 0.03073 0.46118 0.0
C174 C 0.91573 0.00924 0.45949 0.0
C175 C 0.89202 0.01583 0.44964 0.0
C176 C 0.89612 0.04392 0.44132 0.0
C177 C 0.92388 0.06491 0.44081 0.0
C178 C 0.94758 0.05835 0.45076 0.0
C179 C 0.04799 0.0475 0.55213 0.0
O180 O 0.03519 0.98643 0.5676 0.0
O181 O 0.99223 0.97893 0.5355 0.0
O182 O 0.10135 0.00726 0.52976 0.0
O183 O 0.09359 1.00204 0.57179 0.0
O184 O 0.03432 0.9572 0.52455 0.0
O185 O 1.02628 0.98795 0.49543 0.0
O186 O 0.03647 0.0364 0.47324 0.0
O187 O 0.07917 0.03684 0.50133 0.0
O188 O 0.99382 0.04608 0.48593 0.0
O189 O 0.96656 0.99972 0.4852 0.0
O190 O 1.02017 0.03681 0.54737 0.0
O191 O 0.05458 0.04131 0.53281 0.0
H192 H 0.14991 0.9989 0.60349 0.0
H193 H 0.17606 0.96896 0.61115 0.0
H194 H 0.12302 0.92957 0.53288 0.0
H195 H 0.09619 0.95845 0.5257 0.0
H196 H 0.91232 0.9878 0.46757 0.0
H197 H 0.87076 0.99936 0.4503 0.0
H198 H 0.92736 0.08662 0.43394 0.0
H199 H 0.96902 0.07519 0.45176 0.0
Ho200 Ho 0.32261 0.78838 0.72842 0.0
Ho201 Ho 0.35441 0.77505 0.69064 0.0
C202 C 0.33481 0.82495 0.66955 0.0
C203 C 0.30969 0.80934 0.76365 0.0
C204 C 0.29104 0.82039 0.77082 0.0
C205 C 0.2978 0.84957 0.76834 0.0
C206 C 0.28323 0.86028 0.77958 0.0
C207 C 0.26172 0.8422 0.79399 0.0
C208 C 0.25455 0.81295 0.79581 0.0
C209 C 0.26898 0.80226 0.78449 0.0
C210 C 0.28778 0.74788 0.69138 0.0
C211 C 0.33966 0.73726 0.74647 0.0
C212 C 0.37401 0.75567 0.66009 0.0
C213 C 0.38215 0.73391 0.65369 0.0
C214 C 0.36273 0.71275 0.63467 0.0
C215 C 0.37192 0.6955 0.62494 0.0
C216 C 0.40095 0.69897 0.63369 0.0
C217 C 0.42015 0.7198 0.65318 0.0
C218 C 0.41094 0.73695 0.66292 0.0
C219 C 0.38688 0.81497 0.72964 0.0
O220 O 0.32977 0.82373 0.69458 0.0
O221 O 0.34092 0.80613 0.66169 0.0
O222 O 0.29909 0.7823 0.75978 0.0
O223 O 0.32787 0.82494 0.74794 0.0
O224 O 0.28168 0.75003 0.71412 0.0
O225 O 0.30996 0.76953 0.68743 0.0
O226 O 0.3406 0.737 0.72019 0.0
O227 O 0.34022 0.75926 0.75616 0.0
O228 O 0.39018 0.77142 0.68158 0.0
O229 O 0.34677 0.75076 0.65548 0.0
O230 O 0.3923 0.81692 0.70526 0.0
O231 O 0.36584 0.79195 0.73216 0.0
H232 H 0.31506 0.86431 0.75857 0.0
H233 H 0.28967 0.88294 0.77795 0.0
H234 H 0.23791 0.79821 0.80634 0.0
H235 H 0.26346 0.77975 0.78734 0.0
H236 H 0.34052 0.71001 0.62659 0.0
H237 H 0.35619 0.67958 0.61032 0.0
H238 H 0.44274 0.72375 0.6602 0.0
H239 H 0.42681 0.75341 0.67695 0.0
Ho240 Ho 0.53149 0.97379 0.01486 0.0
Ho241 Ho 0.52949 0.03173 1.00417 0.0
C242 C 0.57967 0.02734 0.98755 0.0
C243 C 0.53536 0.92779 0.01064 0.0
C244 C 0.55002 0.92121 0.99383 0.0
C245 C 0.55606 0.93739 0.96891 0.0
C246 C 0.57277 0.93307 0.95464 0.0
C247 C 0.5836 0.91242 0.96503 0.0
C248 C 0.57665 0.89566 0.9895 0.0
C249 C 0.56007 0.90011 1.00384 0.0
C250 C 0.554 1.00554 0.06029 0.0
C251 C 0.48134 0.97812 0.03173 0.0
C252 C 0.5265 0.07834 1.00778 0.0
C253 C 0.51173 0.08604 0.02345 0.0
C254 C 0.50375 0.06996 0.04779 0.0
C255 C 0.48756 0.07605 0.06123 0.0
C256 C 0.47916 0.09832 0.05049 0.0
C257 C 0.48785 0.11477 0.0265 0.0
C258 C 0.50396 0.1086 0.01305 0.0
C259 C 0.5079 1.00057 0.95844 0.0
O260 O 0.56434 0.99957 0.9889 0.0
O261 O 0.57282 0.04487 0.99661 0.0
O262 O 0.55255 0.94548 0.03036 0.0
O263 O 0.5134 0.93343 0.99642 0.0
O264 O 0.53977 0.97819 0.06163 0.0
O265 O 0.55676 0.01418 0.03554 0.0
O266 O 0.4964 1.00594 0.02991 0.0
O267 O 0.48839 0.96051 0.02307 0.0
O268 O 0.50947 0.0608 0.98789 0.0
O269 O 0.54761 0.07185 0.02303 0.0
O270 O 0.522 0.02792 0.95753 0.0
O271 O 0.50461 0.99156 0.98303 0.0
H272 H 0.54843 0.95381 0.96083 0.0
H273 H 0.57795 0.94649 0.93601 0.0
H274 H 0.58426 0.87925 0.99774 0.0
H275 H 0.55559 0.88748 0.02305 0.0
H276 H 0.50961 0.05243 0.05611 0.0
H277 H 0.48097 0.06288 0.07953 0.0
H278 H 0.48207 0.13234 0.01805 0.0
H279 H 0.50998 0.12117 0.99427 0.0
Ho280 Ho 0.26557 0.2326 0.23776 0.0
Ho281 Ho 0.28796 0.26867 0.28721 0.0
C282 C 0.31353 0.21772 0.29647 0.0
C283 C 0.25864 0.20583 0.19552 0.0
C284 C 0.2748 0.19338 0.18742 0.0
C285 C 0.30424 0.20125 0.20011 0.0
C286 C 0.31976 0.19035 0.19106 0.0
C287 C 0.306 0.17139 0.16926 0.0
C288 C 0.27626 0.16297 0.15727 0.0
C289 C 0.2608 0.17396 0.16627 0.0
C290 C 0.23126 0.21531 0.27417 0.0
C291 C 0.24207 0.28517 0.22759 0.0
C292 C 0.28729 0.28659 0.33184 0.0
C293 C 0.28181 0.30965 0.33772 0.0
C294 C 0.26085 0.3174 0.31859 0.0
C295 C 0.25185 0.33549 0.32635 0.0
C296 C 0.26395 0.34649 0.35327 0.0
C297 C 0.28673 0.34057 0.37142 0.0
C298 C 0.29543 0.32208 0.36376 0.0
C299 C 0.32353 0.29606 0.25166 0.0
O300 O 0.29849 0.21334 0.26893 0.0
O301 O 0.31205 0.23827 0.30816 0.0
O302 O 0.24771 0.1933 0.21726 0.0
O303 O 0.27078 0.23344 0.19608 0.0
O304 O 0.22146 0.21507 0.24697 0.0
O305 O 0.25838 0.22441 0.28015 0.0
O306 O 0.25632 0.28893 0.25532 0.0
O307 O 0.24383 0.26482 0.21592 0.0
O308 O 0.3112 0.29372 0.32407 0.0
O309 O 0.26486 0.26674 0.31702 0.0
O310 O 0.32694 0.30543 0.27551 0.0
O311 O 0.3017 0.27265 0.24853 0.0
H312 H 0.31531 0.21623 0.21657 0.0
H313 H 0.34269 0.19745 0.2005 0.0
H314 H 0.265 0.14806 0.14076 0.0
H315 H 0.23801 0.16759 0.15646 0.0
H316 H 0.25014 0.30818 0.29826 0.0
H317 H 0.23407 0.33923 0.3119 0.0
H318 H 0.29695 0.34921 0.39206 0.0
H319 H 0.31186 0.31651 0.37865 0.0
Ho320 Ho 0.55465 0.50629 0.02918 0.0
Ho321 Ho 0.4961 0.49799 0.99185 0.0
C322 C 0.49648 0.46838 0.0535 0.0
C323 C 0.60084 0.52092 0.06887 0.0
C324 C 0.61055 0.5044 0.0925 0.0
C325 C 0.58997 0.48037 0.10353 0.0
C326 C 0.59749 0.45889 0.1183 0.0
C327 C 0.6255 0.46155 0.1219 0.0
C328 C 0.64672 0.48657 0.11317 0.0
C329 C 0.63925 0.50811 0.09854 0.0
C330 C 0.52831 0.46032 0.99788 0.0
C331 C 0.55418 0.53657 0.96764 0.0
C332 C 0.45032 0.48427 0.9517 0.0
C333 C 0.44459 0.4995 0.92487 0.0
C334 C 0.46592 0.51258 0.90932 0.0
C335 C 0.46583 0.53529 0.89028 0.0
C336 C 0.44437 0.54469 0.88675 0.0
C337 C 0.42139 0.52979 0.89991 0.0
C338 C 0.4214 0.50707 0.91885 0.0
C339 C 0.52344 0.54376 0.02383 0.0
O340 O 0.52507 0.48289 0.05969 0.0
O341 O 0.48097 0.46818 0.02739 0.0
O342 O 0.5991 0.51316 0.04451 0.0
O343 O 0.57827 0.52463 0.06947 0.0
O344 O 0.55611 0.47495 1.00416 0.0
O345 O 0.51686 0.46945 0.01029 0.0
O346 O 0.52571 0.5212 0.96113 0.0
O347 O 0.56918 0.53728 0.99403 0.0
O348 O 0.45398 0.49736 0.97358 0.0
O349 O 0.46962 0.47429 0.95494 0.0
O350 O 0.49563 0.52897 0.01858 0.0
O351 O 0.53395 0.53446 0.01059 0.0
H352 H 0.56761 0.47704 0.09867 0.0
H353 H 0.58105 0.43947 0.12495 0.0
H354 H 0.66848 0.48855 0.11597 0.0
H355 H 0.65513 0.52634 0.08968 0.0
H356 H 0.48395 0.50693 0.91351 0.0
H357 H 0.48348 0.54669 0.87994 0.0
H358 H 0.40456 0.53698 0.89699 0.0
H359 H 0.40492 0.49729 0.93078 0.0
Ho360 Ho 0.71774 0.2392 0.32284 0.0
Ho361 Ho 0.74931 0.22275 0.28704 0.0
C362 C 0.73454 0.27547 0.26634 0.0
C363 C 0.70271 0.26221 0.35444 0.0
C364 C 0.69054 0.2816 0.35868 0.0
C365 C 0.70911 0.30851 0.36927 0.0
C366 C 0.69836 0.32496 0.37792 0.0
C367 C 0.66864 0.31501 0.37654 0.0
C368 C 0.65001 0.28832 0.3653 0.0
C369 C 0.66078 0.27189 0.35663 0.0
C370 C 0.68393 0.20096 0.28239 0.0
C371 C 0.73073 0.18559 0.343 0.0
C372 C 0.76279 0.20052 0.25342 0.0
C373 C 0.78213 0.18998 0.24688 0.0
C374 C 0.77211 0.16104 0.24289 0.0
C375 C 0.78763 0.15131 0.23193 0.0
C376 C 0.81357 0.17028 0.22432 0.0
C377 C 0.82395 0.19918 0.22902 0.0
C378 C 0.80847 0.20888 0.24006 0.0
C379 C 0.78441 0.26105 0.32649 0.0
O380 O 0.73107 0.27603 0.29157 0.0
O381 O 0.73471 0.25318 0.25803 0.0
O382 O 0.68543 0.23851 0.34198 0.0
O383 O 0.72839 0.27303 0.34934 0.0
O384 O 0.67679 0.2006 0.30542 0.0
O385 O 0.70691 0.22242 0.28131 0.0
O386 O 0.73443 0.1856 0.31769 0.0
O387 O 0.73 0.20726 0.35204 0.0
O388 O 0.77204 0.22774 0.25536 0.0
O389 O 0.74567 0.18536 0.27021 0.0
O390 O 0.79159 0.2589 0.30444 0.0
O391 O 0.76085 0.24042 0.32832 0.0
H392 H 0.73221 0.31658 0.37173 0.0
H393 H 0.71354 0.34546 0.38597 0.0
H394 H 0.6271 0.2795 0.36416 0.0
H395 H 0.6458 0.25105 0.34925 0.0
H396 H 0.75159 0.14596 0.24722 0.0
H397 H 0.77861 0.129 0.22836 0.0
H398 H 0.84398 0.21447 0.22384 0.0
H399 H 0.81677 0.23139 0.24238 0.0
Ho400 Ho 1.02755 0.48093 0.49748 0.0
Ho401 Ho 1.0292 0.53185 0.52113 0.0
C402 C 0.06141 0.54141 0.47121 0.0
C403 C 1.0171 0.43562 0.47557 0.0
C404 C 0.03558 0.42832 0.46452 0.0
C405 C 1.02416 0.41292 0.44023 0.0
C406 C 0.04218 0.40696 0.42918 0.0
C407 C 0.0717 0.41622 0.4425 0.0
C408 C 0.08306 0.43195 0.46657 0.0
C409 C 0.0652 0.43808 0.47741 0.0
C410 C 0.07706 0.51014 0.5347 0.0
C411 C 0.99471 0.47128 0.54672 0.0
C412 C 0.03999 0.5768 0.54402 0.0
C413 C 1.02362 0.58171 0.55997 0.0
C414 C 1.03201 0.60879 0.56843 0.0
C415 C 1.01479 0.61355 0.58172 0.0
C416 C 0.98899 0.59123 0.58651 0.0
C417 C 0.98128 0.56393 0.5788 0.0
C418 C 0.99845 0.55923 0.56558 0.0
C419 C 0.97994 0.50257 0.48351 0.0
O420 O 0.04668 0.51433 0.46604 0.0
O421 O 0.06059 0.552 0.49307 0.0
O422 O 1.02471 0.43845 0.50285 0.0
O423 O 1.01019 0.45577 0.46101 0.0
O424 O 0.07612 0.49813 0.51357 0.0
O425 O 0.0518 0.50431 0.53594 0.0
O426 O 1.00991 0.49819 0.55247 0.0
O427 O 0.99512 0.46114 0.52436 0.0
O428 O 1.02706 0.5722 0.5174 0.0
O429 O 0.05111 0.55881 0.55634 0.0
O430 O 0.98045 0.51394 0.50492 0.0
O431 O 1.00534 0.50872 0.48261 0.0
H432 H 1.00141 0.40562 0.42982 0.0
H433 H 0.03302 0.39479 0.41056 0.0
H434 H 0.10586 0.43971 0.4769 0.0
H435 H 0.07462 0.45052 0.49584 0.0
H436 H 0.05142 0.6263 0.56416 0.0
H437 H 1.02108 0.63483 0.5873 0.0
H438 H 0.96174 0.54629 0.58261 0.0
H439 H 0.99176 0.53815 0.55917 0.0
Ho440 Ho 0.78901 0.73229 0.24919 0.0
Ho441 Ho 0.78319 0.78558 0.25582 0.0
C442 C 0.82225 0.79081 0.21416 0.0
C443 C 0.78891 0.68977 0.2305 0.0
C444 C 0.79858 0.687 0.20685 0.0
C445 C 0.78658 0.66093 0.1946 0.0
C446 C 0.79755 0.65791 0.17353 0.0
C447 C 0.82053 0.68102 0.16455 0.0
C448 C 0.83124 0.70745 0.17576 0.0
C449 C 0.82051 0.71033 0.19686 0.0
C450 C 0.82343 0.76084 0.29564 0.0
C451 C 0.74986 0.7279 0.28969 0.0
C452 C 0.79199 0.8346 0.26798 0.0
C453 C 0.77765 0.84395 0.28222 0.0
C454 C 0.78653 0.87284 0.28441 0.0
C455 C 0.77314 0.88165 0.29878 0.0
C456 C 0.7509 0.86153 0.31114 0.0
C457 C 0.7424 0.83253 0.30912 0.0
C458 C 0.75563 0.82379 0.29463 0.0
C459 C 0.73751 0.74834 0.22128 0.0
O460 O 0.81795 0.76405 0.22152 0.0
O461 O 0.81007 0.80319 0.2238 0.0
O462 O 0.80948 0.70473 0.25086 0.0
O463 O 0.76646 0.69582 0.22362 0.0
O464 O 0.81085 0.73337 0.29601 0.0
O465 O 0.81741 0.77105 0.27107 0.0
O466 O 0.76367 0.75591 0.29071 0.0
O467 O 0.7529 0.71434 0.27163 0.0
O468 O 0.77686 0.82402 0.24341 0.0
O469 O 0.80475 0.81926 0.28426 0.0
O470 O 0.73517 0.76345 0.23765 0.0
O471 O 0.76377 0.75496 0.22301 0.0
H472 H 0.76948 0.64276 0.20198 0.0
H473 H 0.7891 0.63724 0.16534 0.0
H474 H 0.84875 0.72566 0.16899 0.0
H475 H 0.83023 0.73053 0.2061 0.0
H476 H 0.80369 0.8885 0.27499 0.0
H477 H 0.77983 0.90413 0.29981 0.0
H478 H 0.72561 0.81662 0.31883 0.0
H479 H 0.74884 0.80134 0.29323 0.0
Ho480 Ho 0.82537 0.23522 0.78776 0.0
Ho481 Ho 0.7684 0.2374 0.75681 0.0
C482 C 0.76625 0.19386 0.80848 0.0
C483 C 0.86836 0.22882 0.82307 0.0
C484 C 0.86794 0.20133 0.83452 0.0
C485 C 0.89343 0.19783 0.847 0.0
C486 C 0.89217 0.17051 0.85401 0.0
C487 C 0.86539 0.14674 0.84857 0.0
C488 C 0.84001 0.15057 0.83659 0.0
C489 C 0.84133 0.17758 0.82942 0.0
C490 C 0.79491 0.20203 0.74318 0.0
C491 C 0.82814 0.28071 0.73837 0.0
C492 C 0.72536 0.23909 0.71749 0.0
C493 C 0.72562 0.25852 0.6923 0.0
C494 C 0.74181 0.26113 0.67314 0.0
C495 C 0.74814 0.2843 0.65368 0.0
C496 C 0.73869 0.30521 0.65343 0.0
C497 C 0.72061 0.30141 0.67096 0.0
C498 C 0.71396 0.2781 0.69014 0.0
C499 C 0.79658 0.26815 0.80285 0.0
O500 O 0.79468 0.20827 0.81593 0.0
O501 O 0.75088 0.1984 0.7836 0.0
O502 O 0.8663 0.23268 0.7959 0.0
O503 O 0.8507 0.23565 0.8307 0.0
O504 O 0.82266 0.21596 0.74875 0.0
O505 O 0.78546 0.20588 0.76165 0.0
O506 O 0.79987 0.26571 0.72989 0.0
O507 O 0.84254 0.27635 0.7639 0.0
O508 O 0.73384 0.25105 0.74145 0.0
O509 O 0.73652 0.22128 0.71833 0.0
O510 O 0.76863 0.25482 0.7953 0.0
O511 O 0.80786 0.26613 0.78474 0.0
H512 H 0.91416 0.21599 0.85051 0.0
H513 H 0.91203 0.16793 0.86335 0.0
H514 H 0.81922 0.13262 0.83167 0.0
H515 H 0.82156 0.17977 0.81871 0.0
H516 H 0.75116 0.24635 0.6743 0.0
H517 H 0.76199 0.28683 0.64021 0.0
H518 H 0.71259 0.31708 0.67061 0.0
H519 H 0.70136 0.27643 0.70459 0.0
Ho520 Ho 0.76595 0.73521 0.73974 0.0
Ho521 Ho 0.79114 0.77089 0.78421 0.0
C522 C 0.81489 0.71934 0.79659 0.0
C523 C 0.75621 0.70647 0.69778 0.0
C524 C 0.76882 0.68935 0.69136 0.0
C525 C 0.76843 0.68818 0.66326 0.0
C526 C 0.78329 0.67484 0.65689 0.0
C527 C 0.7989 0.66268 0.67862 0.0
C528 C 0.7985 0.66313 0.70672 0.0
C529 C 0.78346 0.67631 0.71305 0.0
C530 C 0.73166 0.71931 0.77617 0.0
C531 C 0.7422 0.78674 0.72737 0.0
C532 C 0.80005 0.7996 0.82587 0.0
C533 C 0.78695 0.81658 0.83171 0.0
C534 C 0.75835 0.8119 0.81793 0.0
C535 C 0.74512 0.82626 0.82552 0.0
C536 C 0.76033 0.8456 0.84695 0.0
C537 C 0.78937 0.85101 0.85989 0.0
C538 C 0.80255 0.83653 0.85234 0.0
C539 C 0.82544 0.78666 0.74786 0.0
O540 O 0.79875 0.71483 0.7695 0.0
O541 O 0.8145 0.74065 0.80775 0.0
O542 O 0.74233 0.69634 0.7178 0.0
O543 O 0.77323 0.7334 0.69964 0.0
O544 O 0.72245 0.72043 0.74895 0.0
O545 O 0.75867 0.72683 0.78265 0.0
O546 O 0.75949 0.79225 0.75392 0.0
O547 O 0.74144 0.76455 0.71673 0.0
O548 O 0.81434 0.80989 0.80619 0.0
O549 O 0.78342 0.77257 0.82401 0.0
O550 O 0.83462 0.78538 0.7751 0.0
O551 O 0.79842 0.77927 0.74131 0.0
H552 H 0.7574 0.69837 0.64634 0.0
H553 H 0.78357 0.67507 0.63508 0.0
H554 H 0.81017 0.65368 0.7238 0.0
H555 H 0.78385 0.67686 0.73486 0.0
H556 H 0.74594 0.79646 0.80197 0.0
H557 H 0.72264 0.82133 0.8154 0.0
H558 H 0.80176 0.86609 0.87618 0.0
H559 H 0.82469 0.84042 0.86307 0.0
Ho560 Ho 0.55916 0.51687 0.52803 0.0
Ho561 Ho 0.50967 0.50148 0.47556 0.0
C562 C 0.5557 0.47486 0.48382 0.0
C563 C 0.5989 0.5177 0.57266 0.0
C564 C 0.62345 0.51074 0.57593 0.0
C565 C 0.61899 0.48573 0.56532 0.0
C566 C 0.64233 0.48165 0.56313 0.0
C567 C 0.67055 0.5024 0.57156 0.0
C568 C 0.67526 0.52672 0.58361 0.0
C569 C 0.65176 0.53095 0.58562 0.0
C570 C 0.56881 0.55401 0.48248 0.0
C571 C 0.51174 0.53987 0.52204 0.0
C572 C 0.47658 0.50348 0.42674 0.0
C573 C 0.4463 0.49919 0.41927 0.0
C574 C 0.43751 0.51752 0.39895 0.0
C575 C 0.41072 0.51768 0.39607 0.0
C576 C 0.39248 0.49956 0.41362 0.0
C577 C 0.40055 0.47991 0.4326 0.0
C578 C 0.42723 0.4797 0.43538 0.0
C579 C 0.48947 0.46605 0.51918 0.0
O580 O 0.56881 0.48705 0.50839 0.0
O581 O 0.53297 0.47828 0.46702 0.0
O582 O 0.59994 0.54028 0.55634 0.0
O583 O 0.57322 0.49664 0.56759 0.0
O584 O 0.5759 0.5613 0.5082 0.0
O585 O 0.55662 0.52731 0.48235 0.0
O586 O 0.50334 0.53382 0.49504 0.0
O587 O 0.53092 0.53189 0.54018 0.0
O588 O 0.48133 0.48101 0.43737 0.0
O589 O 0.49462 0.52619 0.44069 0.0
O590 O 0.47476 0.46488 0.4933 0.0
O591 O 0.51455 0.48534 0.52009 0.0
H592 H 0.59744 0.46971 0.5577 0.0
H593 H 0.6383 0.46233 0.55453 0.0
H594 H 0.69697 0.54276 0.5906 0.0
H595 H 0.65561 0.55047 0.59367 0.0
H596 H 0.45205 0.53284 0.38653 0.0
H597 H 0.40522 0.53334 0.3815 0.0
H598 H 0.3868 0.4656 0.44619 0.0
H599 H 0.43345 0.46525 0.45117 0.0
Ho600 Ho 1.02706 0.5075 0.03856 0.0
Ho601 Ho 0.03267 0.4989 0.98512 0.0
C602 C 0.99584 0.53904 0.9774 0.0
C603 C 1.03101 0.53206 0.08096 0.0
C604 C 1.01849 0.55085 0.08359 0.0
C605 C 1.01426 0.57 0.06112 0.0
C606 C 0.99912 0.58534 0.06216 0.0
C607 C 0.98849 0.58209 0.08586 0.0
C608 C 0.99383 0.56394 0.1089 0.0
C609 C 1.00864 0.54821 0.10767 0.0
C610 C 0.98324 0.46208 0.01318 0.0
C611 C 0.06328 0.46683 0.04623 0.0
C612 C 1.02914 0.47544 0.94207 0.0
C613 C 0.04373 0.45973 0.9368 0.0
C614 C 0.05307 0.44251 0.95838 0.0
C615 C 0.06915 0.4296 0.95388 0.0
C616 C 0.07594 0.43362 0.9277 0.0
C617 C 0.06587 0.45022 0.90587 0.0
C618 C 0.04989 0.46327 0.91045 0.0
C619 C 0.07677 0.54425 0.01079 0.0
O620 O 1.00394 0.53632 1.00624 0.0
O621 O 1.00388 0.52465 0.96414 0.0
O622 O 1.01247 0.50597 0.07547 0.0
O623 O 0.05005 0.54254 0.06559 0.0
O624 O 0.99471 0.46176 0.04015 0.0
O625 O 0.99509 0.4862 1.00174 0.0
O626 O 0.05579 0.47008 0.01738 0.0
O627 O 0.05485 0.48081 0.05956 0.0
O628 O 0.04544 0.50222 0.94663 0.0
O629 O 1.01226 0.46281 0.95953 0.0
O630 O 0.06545 0.54461 0.98382 0.0
O631 O 0.06472 0.52009 0.022 0.0
H632 H 1.02212 0.57276 0.04251 0.0
H633 H 0.99546 0.59953 0.04436 0.0
H634 H 0.98564 0.56118 0.12733 0.0
H635 H 1.01173 0.53348 0.12512 0.0
H636 H 0.04829 0.43928 0.97881 0.0
H637 H 0.07641 0.4166 0.97088 0.0
H638 H 0.0711 0.45379 0.88557 0.0
H639 H 0.04289 0.47661 0.89367 0.0
C640 C 0.21538 0.18735 0.81724 0.0
C641 C 0.23648 0.21499 0.82348 0.0
C642 C 0.19761 0.17088 0.83553 0.0
C643 C 0.17138 0.17469 0.89639 0.0
H644 H 0.14853 0.09354 0.90303 0.0
C645 C 0.11178 0.10176 0.98119 0.0
C646 C 0.08915 0.07527 0.97341 0.0
C647 C 0.12954 0.11863 0.96296 0.0
C648 C 0.1544 0.1161 0.90124 0.0
H649 H 0.25497 0.24692 0.85415 0.0
H650 H 0.22434 0.2179 0.88659 0.0
H651 H 0.18026 0.12339 0.87231 0.0
H652 H 0.06749 0.04575 0.94019 0.0
H653 H 0.09874 0.07506 0.90831 0.0
H654 H 0.14576 0.16729 0.92572 0.0
C655 C 0.22129 0.20909 0.86716 0.0
C656 C 0.17267 0.13336 0.8835 0.0
C657 C 0.23905 0.22576 0.84863 0.0
C658 C 0.08486 0.06592 0.94693 0.0
C659 C 0.10283 0.08276 0.92868 0.0
C660 C 0.15326 0.15743 0.91428 0.0
C661 C 0.20036 0.18126 0.86096 0.0
C662 C 0.1814 0.16297 0.88064 0.0
C663 C 0.12534 0.10949 0.93637 0.0
C664 C 0.14443 0.12785 0.91695 0.0
H665 H 0.21233 0.17826 0.79797 0.0
H666 H 0.18142 0.14999 0.82942 0.0
H667 H 0.17708 0.19721 0.89454 0.0
H668 H 0.11582 0.10959 1.00149 0.0
H669 H 0.14685 0.13878 0.96991 0.0
C670 C 0.12744 0.02163 0.09781 0.0
C671 C 0.12537 0.03218 0.06972 0.0
C672 C 0.15334 0.02097 0.11402 0.0
C673 C 0.20949 0.01101 0.09562 0.0
H674 H 0.21594 0.98125 0.17327 0.0
C675 C 0.22482 0.91149 0.1722 0.0
C676 C 0.20663 0.89119 0.15211 0.0
C677 C 0.23113 0.94009 0.1652 0.0
C678 C 0.2154 0.99004 0.15176 0.0
H679 H 0.14917 0.05495 0.03782 0.0
H680 H 0.19506 0.05547 0.06669 0.0
H681 H 0.19995 0.01899 0.1582 0.0
H682 H 0.18192 0.88461 0.10882 0.0
H683 H 0.19193 0.93414 0.09671 0.0
H684 H 0.22446 0.98175 0.08911 0.0
C685 C 0.1765 0.04614 0.07585 0.0
C686 C 0.20582 0.01151 0.143 0.0
C687 C 0.15032 0.04593 0.05931 0.0
C688 C 0.1961 0.89995 0.12457 0.0
C689 C 0.20215 0.92843 0.11764 0.0
C690 C 0.2198 0.99016 0.10455 0.0
C691 C 0.17765 0.03137 0.10243 0.0
C692 C 0.19997 0.02012 0.11423 0.0
C693 C 0.21914 0.94876 0.13807 0.0
C694 C 0.22019 0.97764 0.13199 0.0
H695 H 0.1084 0.0112 0.10627 0.0
H696 H 0.15306 0.00946 0.13436 0.0
H697 H 0.20586 0.01721 0.07333 0.0
H698 H 0.23362 0.90514 0.19349 0.0
H699 H 0.24451 0.95524 0.18128 0.0
C700 C 0.44983 0.94863 0.45442 0.0
C701 C 0.45302 0.94107 0.48339 0.0
C702 C 0.42514 0.93272 0.43495 0.0
C703 C 0.36308 0.86346 0.42322 0.0
H704 H 0.3353 0.9065 0.35954 0.0
C705 C 0.26615 0.8159 0.32533 0.0
C706 C 0.27625 0.82398 0.30053 0.0
C707 C 0.28393 0.82892 0.35053 0.0
C708 C 0.34263 0.89423 0.37735 0.0
H709 H 0.43319 0.91045 0.51478 0.0
H710 H 0.38934 0.88242 0.48041 0.0
H711 H 0.37358 0.93125 0.39915 0.0
H712 H 0.31225 0.85206 0.28226 0.0
H713 H 0.34274 0.87544 0.32586 0.0
H714 H 0.33202 0.82639 0.40078 0.0
C715 C 0.40622 0.90069 0.47288 0.0
C716 C 0.36468 0.90835 0.39992 0.0
C717 C 0.43125 0.91668 0.49252 0.0
C718 C 0.30395 0.84557 0.30109 0.0
C719 C 0.32136 0.85892 0.32597 0.0
C720 C 0.34065 0.84925 0.40063 0.0
C721 C 0.40271 0.90892 0.4439 0.0
C722 C 0.37601 0.89325 0.42258 0.0
C723 C 0.31164 0.85059 0.35094 0.0
C724 C 0.33101 0.86466 0.37711 0.0
H725 H 0.46631 0.96722 0.44671 0.0
H726 H 0.4236 0.9392 0.41277 0.0
H727 H 0.37131 0.85123 0.44035 0.0
H728 H 0.24493 0.79907 0.3254 0.0
H729 H 0.27606 0.8222 0.36959 0.0
C730 C 0.30349 0.1424 0.63679 0.0
C731 C 0.31789 0.1643 0.65558 0.0
C732 C 0.31909 0.13159 0.62779 0.0
C733 C 0.38658 0.12353 0.65289 0.0
H734 H 0.37035 0.10087 0.57723 0.0
C735 C 0.45864 0.08666 0.61987 0.0
C736 C 0.44458 0.06212 0.60459 0.0
C737 C 0.44283 0.09963 0.6248 0.0
C738 C 0.37486 0.10691 0.59847 0.0
H739 H 0.35991 0.19296 0.67867 0.0
H740 H 0.38708 0.17471 0.66221 0.0
H741 H 0.34353 0.12434 0.58687 0.0
H742 H 0.40312 0.03178 0.58253 0.0
H743 H 0.37537 0.05469 0.59112 0.0
H744 H 0.41778 0.10609 0.66457 0.0
C745 C 0.36376 0.1656 0.65485 0.0
C746 C 0.35962 0.12033 0.60395 0.0
C747 C 0.34821 0.17629 0.66393 0.0
C748 C 0.41446 0.05086 0.59414 0.0
C749 C 0.39863 0.06391 0.59901 0.0
C750 C 0.4018 0.1102 0.64742 0.0
C751 C 0.34928 0.14261 0.63743 0.0
C752 C 0.3655 0.12886 0.63118 0.0
C753 C 0.41273 0.08832 0.61447 0.0
C754 C 0.39614 0.10191 0.62016 0.0
H755 H 0.28014 0.13299 0.62983 0.0
H756 H 0.30744 0.11378 0.61441 0.0
H757 H 0.39102 0.12928 0.67425 0.0
H758 H 0.48192 0.09607 0.62766 0.0
H759 H 0.45418 0.1187 0.63643 0.0
C760 C 0.17515 0.91583 0.59643 0.0
C761 C 0.17074 0.93447 0.57371 0.0
C762 C 0.19506 0.90495 0.59821 0.0
C763 C 0.26221 0.92335 0.58357 0.0
H764 H 0.24282 0.84285 0.59512 0.0
C765 C 0.31458 0.83704 0.62021 0.0
C766 C 0.32813 0.84519 0.64806 0.0
C767 C 0.30023 0.85203 0.60164 0.0
C768 C 0.24844 0.86534 0.5911 0.0
H769 H 0.18317 0.95702 0.53535 0.0
H770 H 0.2188 0.93839 0.53892 0.0
H771 H 0.20429 0.85905 0.58176 0.0
H772 H 0.34085 0.87695 0.67753 0.0
H773 H 0.31602 0.90346 0.64489 0.0
H774 H 0.30652 0.92969 0.5952 0.0
C775 C 0.20647 0.9318 0.55484 0.0
C776 C 0.22651 0.87451 0.58382 0.0
C777 C 0.18621 0.94225 0.55279 0.0
C778 C 0.3303 0.87031 0.65614 0.0
C779 C 0.31635 0.88555 0.63743 0.0
C780 C 0.28422 0.91419 0.59126 0.0
C781 C 0.21095 0.91316 0.57755 0.0
C782 C 0.23341 0.90351 0.58079 0.0
C783 C 0.29985 0.87548 0.61071 0.0
C784 C 0.27744 0.88518 0.59577 0.0
H785 H 0.16342 0.90996 0.61277 0.0
H786 H 0.1987 0.89084 0.61609 0.0
H787 H 0.26774 0.94587 0.58151 0.0
H788 H 0.31256 0.81759 0.61361 0.0
H789 H 0.28745 0.84397 0.58111 0.0
C790 C 0.39517 0.82881 0.77792 0.0
C791 C 0.4023 0.83599 0.75161 0.0
C792 C 0.40944 0.84784 0.79931 0.0
C793 C 0.4506 0.92304 0.81351 0.0
H794 H 0.47238 0.89345 0.88974 0.0
C795 C 0.50768 0.99423 0.9095 0.0
C796 C 0.49826 0.98264 0.93444 0.0
C797 C 0.49859 0.9773 0.88674 0.0
C798 C 0.46622 0.90205 0.86865 0.0
H799 H 0.42976 0.86899 0.72689 0.0
H800 H 0.45486 0.90272 0.76459 0.0
H801 H 0.45207 0.86265 0.85053 0.0
H802 H 0.47176 0.94439 0.95509 0.0
H803 H 0.45566 0.91487 0.91544 0.0
H804 H 0.46413 0.9623 0.83176 0.0
C805 C 0.43815 0.88217 0.76852 0.0
C806 C 0.45466 0.88439 0.84614 0.0
C807 C 0.42391 0.86288 0.74702 0.0
C808 C 0.47962 0.95381 0.93624 0.0
C809 C 0.4705 0.93689 0.91351 0.0
C810 C 0.46208 0.94073 0.83611 0.0
C811 C 0.43122 0.87468 0.79502 0.0
C812 C 0.4462 0.89449 0.81836 0.0
C813 C 0.47982 0.94839 0.88841 0.0
C814 C 0.46956 0.93031 0.86405 0.0
H815 H 0.37853 0.80833 0.78212 0.0
H816 H 0.40317 0.84157 0.81923 0.0
H817 H 0.44412 0.9314 0.79239 0.0
H818 H 0.52223 0.01638 0.90762 0.0
H819 H 0.5065 0.98682 0.86793 0.0
C820 C 0.46622 0.1037 0.09326 0.0
C821 C 0.46079 0.10403 0.06376 0.0
C822 C 0.44918 0.10983 0.10556 0.0
C823 C 0.40208 0.14696 0.08951 0.0
H824 H 0.37434 0.10279 0.15455 0.0
C825 C 0.31801 0.16053 0.12883 0.0
C826 C 0.32286 0.16156 0.15809 0.0
C827 C 0.33465 0.15252 0.11803 0.0
C828 C 0.38221 0.11547 0.13657 0.0
H829 H 0.43258 0.10979 0.02404 0.0
H830 H 0.40296 0.12057 0.04547 0.0
H831 H 0.40401 0.0905 0.13437 0.0
H832 H 0.3485 0.15445 0.19902 0.0
H833 H 0.37805 0.14093 0.18004 0.0
H834 H 0.38043 0.17198 0.09165 0.0
C835 C 0.42071 0.11615 0.05908 0.0
C836 C 0.39915 0.10844 0.12505 0.0
C837 C 0.43768 0.11002 0.04682 0.0
C838 C 0.34446 0.15407 0.17636 0.0
C839 C 0.36116 0.14607 0.16553 0.0
C840 C 0.38521 0.15399 0.10102 0.0
C841 C 0.42646 0.11638 0.08853 0.0
C842 C 0.40906 0.12402 0.10128 0.0
C843 C 0.35657 0.14549 0.13624 0.0
C844 C 0.37494 0.1382 0.12453 0.0
H845 H 0.48402 0.09934 0.10682 0.0
H846 H 0.45422 0.1101 0.12832 0.0
H847 H 0.40989 0.15967 0.07152 0.0
H848 H 0.30177 0.16651 0.11419 0.0
H849 H 0.33038 0.15191 0.09537 0.0
C850 C 0.06566 0.06922 0.42905 0.0
C851 C 0.08038 0.06296 0.45605 0.0
C852 C 0.08099 0.08642 0.40893 0.0
C853 C 0.1537 0.14074 0.40252 0.0
H854 H 0.1277 0.12008 0.32479 0.0
C855 C 0.22626 0.19615 0.32333 0.0
C856 C 0.21323 0.20006 0.29485 0.0
C857 C 0.2094 0.18035 0.34262 0.0
C858 C 0.13511 0.12649 0.34628 0.0
H859 H 0.12292 0.07011 0.48291 0.0
H860 H 0.14937 0.0999 0.44809 0.0
H861 H 0.09935 0.09103 0.3587 0.0
H862 H 0.17224 0.19088 0.26438 0.0
H863 H 0.14272 0.16386 0.29808 0.0
H864 H 0.18931 0.17625 0.39026 0.0
C865 C 0.12603 0.09173 0.44243 0.0
C866 C 0.11881 0.10973 0.36579 0.0
C867 C 0.11076 0.07443 0.46239 0.0
C868 C 0.18292 0.18819 0.28618 0.0
C869 C 0.16601 0.17248 0.30552 0.0
C870 C 0.16989 0.15759 0.38302 0.0
C871 C 0.11141 0.098 0.41541 0.0
C872 C 0.12802 0.11647 0.39424 0.0
C873 C 0.17898 0.16812 0.33403 0.0
C874 C 0.16102 0.15063 0.35462 0.0
H875 H 0.0423 0.06076 0.42339 0.0
H876 H 0.06902 0.09096 0.38841 0.0
H877 H 0.16124 0.14689 0.42413 0.0
H878 H 0.24958 0.20485 0.33066 0.0
H879 H 0.22033 0.1772 0.36419 0.0
C880 C 0.83076 0.13391 0.21919 0.0
C881 C 0.82912 0.16015 0.2107 0.0
C882 C 0.84495 0.12435 0.20618 0.0
C883 C 0.89748 0.14958 0.15988 0.0
H884 H 0.86998 0.06929 0.15195 0.0
C885 C 0.96256 0.10633 0.11986 0.0
C886 C 0.94764 0.08233 0.10355 0.0
C887 C 0.94797 0.11543 0.13277 0.0
C888 C 0.87789 0.09185 0.15363 0.0
H889 H 0.84088 0.19648 0.18103 0.0
H890 H 0.86515 0.17985 0.15828 0.0
H891 H 0.84475 0.08572 0.17364 0.0
H892 H 0.90523 0.04925 0.08816 0.0
H893 H 0.87972 0.06529 0.11015 0.0
H894 H 0.92996 0.15585 0.13897 0.0
C895 C 0.85612 0.16682 0.17553 0.0
C896 C 0.86357 0.10132 0.16658 0.0
C897 C 0.84208 0.17644 0.18865 0.0
C898 C 0.91759 0.06765 0.10072 0.0
C899 C 0.90292 0.07688 0.11349 0.0
C900 C 0.91167 0.14014 0.14677 0.0
C901 C 0.85789 0.1406 0.18406 0.0
C902 C 0.87313 0.13037 0.17003 0.0
C903 C 0.91784 0.10099 0.12975 0.0
C904 C 0.90224 0.11108 0.14348 0.0
H905 H 0.82143 0.12083 0.23628 0.0
H906 H 0.84613 0.10431 0.21387 0.0
H907 H 0.90596 0.17208 0.16231 0.0
H908 H 0.98576 0.11793 0.12313 0.0
H909 H 0.96058 0.13363 0.14556 0.0
C910 C 0.09373 0.58966 0.45505 0.0
C911 C 0.08016 0.56022 0.45245 0.0
C912 C 0.1113 0.60734 0.43708 0.0
C913 C 0.1591 0.63872 0.40607 0.0
H914 H 0.1348 0.62114 0.32741 0.0
C915 C 0.22936 0.70296 0.32703 0.0
C916 C 0.21471 0.70928 0.30013 0.0
C917 C 0.21396 0.68363 0.34594 0.0
C918 C 0.14182 0.62646 0.34927 0.0
H919 H 0.07509 0.52614 0.42955 0.0
H920 H 0.1061 0.55685 0.3987 0.0
H921 H 0.10572 0.59053 0.3599 0.0
H922 H 0.17235 0.70025 0.27191 0.0
H923 H 0.14563 0.66722 0.3049 0.0
H924 H 0.19454 0.67537 0.39508 0.0
C925 C 0.10262 0.5664 0.41409 0.0
C926 C 0.12534 0.60869 0.368 0.0
C927 C 0.08491 0.54878 0.43188 0.0
C928 C 0.18438 0.69569 0.29239 0.0
C929 C 0.16901 0.6766 0.31129 0.0
C930 C 0.17549 0.65663 0.38726 0.0
C931 C 0.11582 0.5959 0.41631 0.0
C932 C 0.13373 0.61464 0.3966 0.0
C933 C 0.18358 0.67042 0.33833 0.0
C934 C 0.16695 0.65077 0.35862 0.0
H935 H 0.09054 0.59913 0.47072 0.0
H936 H 0.12087 0.63 0.43913 0.0
H937 H 0.16635 0.64372 0.42803 0.0
H938 H 0.25268 0.71306 0.33356 0.0
H939 H 0.22585 0.67904 0.36648 0.0
C940 C 0.60527 0.94753 0.5589 0.0
C941 C 0.57929 0.94635 0.56396 0.0
C942 C 0.62228 0.93174 0.57591 0.0
C943 C 0.62162 0.8648 0.63069 0.0
H944 H 0.70495 0.89813 0.64658 0.0
C945 C 0.69589 0.79392 0.68888 0.0
C946 C 0.72347 0.80534 0.70913 0.0
C947 C 0.6791 0.81014 0.67262 0.0
C948 C 0.68165 0.88753 0.6428 0.0
H949 H 0.5534 0.92377 0.59439 0.0
H950 H 0.58062 0.89614 0.62149 0.0
H951 H 0.67728 0.92485 0.61795 0.0
H952 H 0.75272 0.84695 0.72463 0.0
H953 H 0.72557 0.87432 0.69626 0.0
H954 H 0.62591 0.82699 0.65437 0.0
C955 C 0.58874 0.91022 0.60428 0.0
C956 C 0.66502 0.90356 0.62555 0.0
C957 C 0.57239 0.92682 0.58799 0.0
C958 C 0.73227 0.8354 0.71039 0.0
C959 C 0.71599 0.85183 0.6933 0.0
C960 C 0.63819 0.84838 0.64702 0.0
C961 C 0.61502 0.91176 0.59961 0.0
C962 C 0.63386 0.89342 0.61855 0.0
C963 C 0.68813 0.84028 0.67343 0.0
C964 C 0.66938 0.8587 0.65448 0.0
H965 H 0.61326 0.96151 0.54157 0.0
H966 H 0.64154 0.93514 0.56982 0.0
H967 H 0.59834 0.85429 0.62717 0.0
H968 H 0.68652 0.77152 0.6856 0.0
H969 H 0.65857 0.7985 0.65854 0.0
C970 C 0.52366 0.43189 0.95963 0.0
C971 C 0.51192 0.43605 0.97956 0.0
C972 C 0.5069 0.40997 0.94103 0.0
C973 C 0.45588 0.37651 0.8929 0.0
H974 H 0.41478 0.29906 0.91943 0.0
C975 C 0.35218 0.26702 0.84704 0.0
C976 C 0.35538 0.27094 0.81934 0.0
C977 C 0.3738 0.28492 0.8678 0.0
C978 C 0.42575 0.3206 0.91156 0.0
H979 H 0.47389 0.42019 0.99626 0.0
H980 H 0.44505 0.38151 0.9644 0.0
H981 H 0.44755 0.33497 0.95344 0.0
H982 H 0.38381 0.29517 0.79164 0.0
H983 H 0.42245 0.32477 0.82803 0.0
H984 H 0.43303 0.36313 0.85126 0.0
C985 C 0.46704 0.39524 0.963 0.0
C986 C 0.44473 0.34111 0.93111 0.0
C987 C 0.48351 0.41744 0.98113 0.0
C988 C 0.38102 0.29178 0.81299 0.0
C989 C 0.40293 0.30905 0.83382 0.0
C990 C 0.43648 0.35623 0.87338 0.0
C991 C 0.47841 0.39149 0.94254 0.0
C992 C 0.45989 0.36927 0.92195 0.0
C993 C 0.39927 0.30668 0.86132 0.0
C994 C 0.421 0.32792 0.88236 0.0
H995 H 0.54544 0.44604 0.95791 0.0
H996 H 0.51613 0.4075 0.92539 0.0
H997 H 0.46695 0.39818 0.8853 0.0
H998 H 0.33224 0.25141 0.85217 0.0
H999 H 0.3698 0.28251 0.8885 0.0
C1000 C 0.84197 0.76657 0.34802 0.0
C1001 C 0.84084 0.77834 0.32021 0.0
C1002 C 0.85762 0.78409 0.37086 0.0
C1003 C 0.9104 0.82771 0.41089 0.0
H1004 H 0.90021 0.89636 0.40906 0.0
C1005 C 0.97988 0.94629 0.45638 0.0
C1006 C 0.99342 0.93946 0.48362 0.0
C1007 C 0.95769 0.92493 0.43928 0.0
C1008 C 0.90352 0.87742 0.40983 0.0
H1009 H 0.85611 0.81725 0.29443 0.0
H1010 H 0.88248 0.84769 0.33403 0.0
H1011 H 0.86824 0.86148 0.37387 0.0
H1012 H 0.99342 0.90524 0.51499 0.0
H1013 H 0.95426 0.86798 0.48548 0.0
H1014 H 0.9466 0.84412 0.44577 0.0
C1015 C 0.8711 0.82512 0.33828 0.0
C1016 C 0.88505 0.85737 0.38979 0.0
C1017 C 0.85604 0.80767 0.31564 0.0
C1018 C 0.98366 0.91103 0.49386 0.0
C1019 C 0.96128 0.88968 0.47689 0.0
C1020 C 0.92912 0.84792 0.43075 0.0
C1021 C 0.87195 0.81359 0.3661 0.0
C1022 C 0.88874 0.83264 0.38975 0.0
C1023 C 0.94832 0.89626 0.44917 0.0
C1024 C 0.92636 0.87337 0.43008 0.0
H1025 H 0.83052 0.74399 0.35208 0.0
H1026 H 0.85814 0.77471 0.39218 0.0
H1027 H 0.91383 0.80892 0.41116 0.0
H1028 H 0.98688 0.96808 0.44803 0.0
H1029 H 0.94856 0.93088 0.41797 0.0
C1030 C 0.51045 0.56445 0.56073 0.0
C1031 C 0.49967 0.55608 0.53267 0.0
C1032 C 0.49942 0.57945 0.57116 0.0
C1033 C 0.45562 0.62254 0.54836 0.0
H1034 H 0.45182 0.60945 0.62677 0.0
C1035 C 0.39974 0.67317 0.59402 0.0
C1036 C 0.41141 0.68168 0.62206 0.0
C1037 C 0.41001 0.65773 0.58302 0.0
C1038 C 0.45299 0.61377 0.60489 0.0
H1039 H 0.46832 0.55715 0.49375 0.0
H1040 H 0.44875 0.58288 0.51197 0.0
H1041 H 0.47005 0.58319 0.60799 0.0
H1042 H 0.44319 0.67969 0.66039 0.0
H1043 H 0.46142 0.65372 0.64118 0.0
H1044 H 0.43853 0.65314 0.54531 0.0
C1045 C 0.46621 0.57826 0.52589 0.0
C1046 C 0.46355 0.59857 0.59401 0.0
C1047 C 0.47737 0.56328 0.51539 0.0
C1048 C 0.43368 0.67401 0.63865 0.0
C1049 C 0.44398 0.65863 0.62764 0.0
C1050 C 0.44504 0.63775 0.55925 0.0
C1051 C 0.47701 0.58662 0.55403 0.0
C1052 C 0.46517 0.60269 0.56553 0.0
C1053 C 0.43238 0.6502 0.59959 0.0
C1054 C 0.44356 0.63372 0.58777 0.0
H1055 H 0.52768 0.55954 0.57481 0.0
H1056 H 0.50888 0.58578 0.59271 0.0
H1057 H 0.45685 0.62687 0.5265 0.0
H1058 H 0.38289 0.67881 0.58022 0.0
H1059 H 0.4001 0.6515 0.56147 0.0
C1060 C 0.6255 0.06649 0.97885 0.0
C1061 C 0.6033 0.0394 0.97292 0.0
C1062 C 0.64609 0.07934 0.96279 0.0
C1063 C 0.65163 0.08486 0.89222 0.0
H1064 H 0.73476 0.11792 0.9215 0.0
C1065 C 0.72622 0.14827 0.81791 0.0
C1066 C 0.7511 0.17226 0.82824 0.0
C1067 C 0.71031 0.12876 0.83625 0.0
C1068 C 0.71161 0.10916 0.91298 0.0
H1069 H 0.58546 1.00419 0.94605 0.0
H1070 H 0.6211 0.02716 0.91737 0.0
H1071 H 0.70331 0.08996 0.95327 0.0
H1072 H 0.77934 0.1947 0.86564 0.0
H1073 H 0.75075 0.16162 0.89765 0.0
H1074 H 0.65926 0.10537 0.85251 0.0
C1075 C 0.62274 0.03812 0.93476 0.0
C1076 C 0.6937 0.09294 0.93117 0.0
C1077 C 0.60251 0.025 0.95121 0.0
C1078 C 0.76028 0.17618 0.85728 0.0
C1079 C 0.74393 0.15706 0.8756 0.0
C1080 C 0.66943 0.10158 0.87418 0.0
C1081 C 0.64441 0.06552 0.94021 0.0
C1082 C 0.6636 0.08079 0.92089 0.0
C1083 C 0.71847 0.13326 0.86527 0.0
C1084 C 0.6997 0.11412 0.88431 0.0
H1085 H 0.62659 0.078 0.9955 0.0
H1086 H 0.66252 0.1006 0.96716 0.0
H1087 H 0.62841 0.07601 0.88399 0.0
H1088 H 0.71897 0.14464 0.79556 0.0
H1089 H 0.69141 0.11033 0.82753 0.0
C1090 C 0.09155 0.44616 0.09477 0.0
C1091 C 0.0817 0.44787 0.06432 0.0
C1092 C 0.10794 0.42969 0.11129 0.0
C1093 C 0.14209 0.37454 0.10744 0.0
H1094 H 0.17094 0.38001 0.1881 0.0
C1095 C 0.20972 0.30201 0.17921 0.0
C1096 C 0.22367 0.30401 0.20903 0.0
C1097 C 0.1935 0.31861 0.16255 0.0
C1098 C 0.1635 0.37744 0.1656 0.0
H1099 H 0.08465 0.42991 0.02988 0.0
H1100 H 0.11172 0.40226 0.05731 0.0
H1101 H 0.14387 0.40729 0.16048 0.0
H1102 H 0.2283 0.32876 0.24213 0.0
H1103 H 0.20116 0.35623 0.21456 0.0
H1104 H 0.1616 0.34457 0.1126 0.0
C1105 C 0.10678 0.41408 0.06917 0.0
C1106 C 0.14711 0.3939 0.14891 0.0
C1107 C 0.0905 0.43072 0.05261 0.0
C1108 C 0.21907 0.32489 0.21993 0.0
C1109 C 0.20269 0.34141 0.2033 0.0
C1110 C 0.15834 0.35796 0.12416 0.0
C1111 C 0.11671 0.41241 0.09971 0.0
C1112 C 0.13525 0.39367 0.11861 0.0
C1113 C 0.18877 0.33949 0.17339 0.0
C1114 C 0.17026 0.35824 0.15445 0.0
H1115 H 0.08656 0.45801 0.10656 0.0
H1116 H 0.11372 0.43067 0.13398 0.0
H1117 H 0.13465 0.37198 0.08494 0.0
H1118 H 0.21131 0.28713 0.16805 0.0
H1119 H 0.18436 0.31464 0.14039 0.0
C1120 C 0.55633 0.55882 0.91786 0.0
C1121 C 0.57021 0.55521 0.94615 0.0
C1122 C 0.57237 0.57723 0.8986 0.0
C1123 C 0.64402 0.63793 0.89658 0.0
H1124 H 0.62697 0.61785 0.81982 0.0
C1125 C 0.72386 0.69836 0.82441 0.0
C1126 C 0.71239 0.70268 0.79555 0.0
C1127 C 0.70565 0.6813 0.84226 0.0
C1128 C 0.63187 0.62402 0.84108 0.0
H1129 H 0.61221 0.56801 0.97594 0.0
H1130 H 0.6396 0.59923 0.94282 0.0
H1131 H 0.59639 0.58649 0.85119 0.0
H1132 H 0.67266 0.69277 0.76292 0.0
H1133 H 0.64093 0.66328 0.79397 0.0
H1134 H 0.67959 0.67529 0.88664 0.0
C1135 C 0.61635 0.58849 0.9354 0.0
C1136 C 0.61424 0.60598 0.85911 0.0
C1137 C 0.60048 0.57025 0.95447 0.0
C1138 C 0.68224 0.68985 0.78505 0.0
C1139 C 0.66402 0.67273 0.80285 0.0
C1140 C 0.66163 0.65592 0.87861 0.0
C1141 C 0.60264 0.59252 0.90721 0.0
C1142 C 0.62022 0.6125 0.88724 0.0
C1143 C 0.67543 0.66802 0.83172 0.0
C1144 C 0.65601 0.64915 0.85064 0.0
H1145 H 0.53314 0.54766 0.91066 0.0
H1146 H 0.56097 0.57985 0.87709 0.0
H1147 H 0.64907 0.64409 0.91788 0.0
H1148 H 0.747 0.70784 0.83316 0.0
H1149 H 0.71535 0.678 0.86425 0.0
C1150 C 0.7355 0.32316 0.25398 0.0
C1151 C 0.73356 0.29833 0.24551 0.0
C1152 C 0.72955 0.34279 0.23384 0.0
C1153 C 0.68039 0.34018 0.16763 0.0
H1154 H 0.71154 0.42066 0.17742 0.0
C1155 C 0.63457 0.4232 0.11138 0.0
C1156 C 0.63197 0.43717 0.13128 0.0
C1157 C 0.64649 0.40367 0.12046 0.0
C1158 C 0.7029 0.39824 0.17435 0.0
H1159 H 0.72677 0.27551 0.2097 0.0
H1160 H 0.71609 0.31 0.17441 0.0
H1161 H 0.7411 0.39482 0.2002 0.0
H1162 H 0.63716 0.44105 0.17544 0.0
H1163 H 0.6586 0.40677 0.19162 0.0
H1164 H 0.64171 0.34368 0.14259 0.0
C1165 C 0.72209 0.3141 0.19655 0.0
C1166 C 0.71975 0.38363 0.18708 0.0
C1167 C 0.72813 0.29446 0.21673 0.0
C1168 C 0.63919 0.43022 0.16009 0.0
C1169 C 0.65134 0.41089 0.16918 0.0
C1170 C 0.66363 0.35494 0.15459 0.0
C1171 C 0.72167 0.33775 0.20506 0.0
C1172 C 0.70806 0.35431 0.18492 0.0
C1173 C 0.65604 0.39854 0.14937 0.0
C1174 C 0.67449 0.38366 0.15908 0.0
H1175 H 0.74006 0.32674 0.27609 0.0
H1176 H 0.72894 0.36075 0.24089 0.0
H1177 H 0.67084 0.31744 0.16605 0.0
H1178 H 0.62893 0.42864 0.08899 0.0
H1179 H 0.65015 0.39419 0.10512 0.0
C1180 C 0.95525 0.47353 0.4415 0.0
C1181 C 0.95432 0.48025 0.46721 0.0
C1182 C 0.93208 0.45104 0.42678 0.0
C1183 C 0.87428 0.38275 0.43676 0.0
H1184 H 0.84676 0.39054 0.35562 0.0
C1185 C 0.79323 0.28618 0.36922 0.0
C1186 C 0.79975 0.28606 0.34377 0.0
C1187 C 0.80783 0.31049 0.38487 0.0
C1188 C 0.85429 0.38792 0.37826 0.0
H1189 H 0.92858 0.46891 0.49784 0.0
H1190 H 0.88796 0.42893 0.47216 0.0
H1191 H 0.88024 0.43246 0.38192 0.0
H1192 H 0.82684 0.31096 0.31491 0.0
H1193 H 0.8527 0.35276 0.3423 0.0
H1194 H 0.84948 0.33804 0.43297 0.0
C1195 C 0.90656 0.44136 0.46333 0.0
C1196 C 0.87334 0.41197 0.3933 0.0
C1197 C 0.92964 0.46427 0.47787 0.0
C1198 C 0.82125 0.31045 0.33441 0.0
C1199 C 0.83585 0.33458 0.34998 0.0
C1200 C 0.85539 0.35856 0.42164 0.0
C1201 C 0.90763 0.43452 0.43766 0.0
C1202 C 0.88414 0.40956 0.42257 0.0
C1203 C 0.8293 0.33503 0.37537 0.0
C1204 C 0.84587 0.36079 0.39207 0.0
H1205 H 0.97409 0.4855 0.43292 0.0
H1206 H 0.93366 0.44602 0.40724 0.0
H1207 H 0.88239 0.3803 0.45932 0.0
H1208 H 0.77699 0.26748 0.37707 0.0
H1209 H 0.80219 0.3101 0.40429 0.0
C1210 C 0.60063 0.60187 0.46425 0.0
C1211 C 0.5839 0.57276 0.46048 0.0
C1212 C 0.61722 0.61918 0.44513 0.0
C1213 C 0.62806 0.62186 0.37286 0.0
H1214 H 0.70291 0.68134 0.40286 0.0
C1215 C 0.71331 0.68175 0.30598 0.0
C1216 C 0.73025 0.71101 0.30896 0.0
C1217 C 0.6949 0.6656 0.32391 0.0
C1218 C 0.68194 0.66509 0.39398 0.0
H1219 H 0.57114 0.53917 0.43315 0.0
H1220 H 0.60025 0.5691 0.40003 0.0
H1221 H 0.67192 0.65207 0.43444 0.0
H1222 H 0.74076 0.74607 0.33347 0.0
H1223 H 0.70868 0.71792 0.36476 0.0
H1224 H 0.63835 0.6347 0.33244 0.0
C1225 C 0.60034 0.57883 0.41755 0.0
C1226 C 0.66402 0.64821 0.41218 0.0
C1227 C 0.58363 0.56154 0.43664 0.0
C1228 C 0.72815 0.72363 0.33049 0.0
C1229 C 0.70981 0.70739 0.34858 0.0
C1230 C 0.64605 0.63867 0.35469 0.0
C1231 C 0.61774 0.60791 0.42164 0.0
C1232 C 0.63675 0.62625 0.40197 0.0
C1233 C 0.69286 0.67809 0.34556 0.0
C1234 C 0.67333 0.66053 0.36494 0.0
H1235 H 0.60129 0.61126 0.48232 0.0
H1236 H 0.6297 0.64148 0.44886 0.0
H1237 H 0.60713 0.60561 0.36392 0.0
H1238 H 0.71422 0.67116 0.28971 0.0
H1239 H 0.6826 0.64312 0.32104 0.0
C1240 C 0.79847 0.28481 0.84781 0.0
C1241 C 0.81296 0.2828 0.82927 0.0
C1242 C 0.81407 0.29948 0.87243 0.0
C1243 C 0.85264 0.35021 0.90864 0.0
H1244 H 0.92426 0.34742 0.95425 0.0
C1245 C 0.94502 0.44318 0.96994 0.0
C1246 C 0.9596 0.43802 0.99736 0.0
C1247 C 0.92389 0.42077 0.95372 0.0
C1248 C 0.90407 0.3481 0.942 0.0
H1249 H 0.85501 0.29365 0.82224 0.0
H1250 H 0.88227 0.3193 0.8652 0.0
H1251 H 0.89352 0.3133 0.91786 0.0
H1252 H 0.96336 0.40552 0.02958 0.0
H1253 H 0.92648 0.36588 1.00072 0.0
H1254 H 0.8637 0.38564 0.93201 0.0
C1255 C 0.85889 0.30945 0.86085 0.0
C1256 C 0.88664 0.32878 0.92102 0.0
C1257 C 0.84329 0.29498 0.83614 0.0
C1258 C 0.95232 0.40998 0.00851 0.0
C1259 C 0.93138 0.3874 0.99202 0.0
C1260 C 0.87018 0.36965 0.92939 0.0
C1261 C 0.84445 0.3122 0.87907 0.0
C1262 C 0.86108 0.33008 0.90369 0.0
C1263 C 0.9171 0.39265 0.9644 0.0
C1264 C 0.8964 0.36924 0.94579 0.0
H1265 H 0.77508 0.27538 0.84309 0.0
H1266 H 0.80237 0.30107 0.88619 0.0
H1267 H 0.83319 0.35186 0.89553 0.0
H1268 H 0.95023 0.46461 0.96082 0.0
H1269 H 0.91354 0.42544 0.9324 0.0
C1270 C 0.84095 0.83358 0.18148 0.0
C1271 C 0.84187 0.80809 0.19502 0.0
C1272 C 0.85976 0.85049 0.16415 0.0
C1273 C 0.93036 0.86767 0.15046 0.0
H1274 H 0.90011 0.89783 0.07766 0.0
C1275 C 1.00409 0.95245 0.08019 0.0
C1276 C 0.99616 0.94669 0.05156 0.0
C1277 C 0.98559 0.93616 0.09814 0.0
C1278 C 0.90895 0.8896 0.09793 0.0
H1279 H 0.86395 0.78082 0.20104 0.0
H1280 H 0.89703 0.81053 0.171 0.0
H1281 H 0.86743 0.8677 0.10775 0.0
H1282 H 0.96227 0.91978 0.01922 0.0
H1283 H 0.92993 0.89192 0.0502 0.0
H1284 H 0.97195 0.8898 0.14064 0.0
C1285 C 0.88152 0.81729 0.17375 0.0
C1286 C 0.89021 0.87243 0.11527 0.0
C1287 C 0.86234 0.8001 0.19079 0.0
C1288 C 0.9691 0.92474 0.04118 0.0
C1289 C 0.95047 0.90882 0.05894 0.0
C1290 C 0.94921 0.88527 0.13329 0.0
C1291 C 0.88043 0.8427 0.16013 0.0
C1292 C 0.90059 0.86106 0.14172 0.0
C1293 C 0.95851 0.91408 0.08774 0.0
C1294 C 0.93873 0.89632 0.10668 0.0
H1295 H 0.82558 0.84055 0.18421 0.0
H1296 H 0.85843 0.86999 0.15424 0.0
H1297 H 0.93917 0.8595 0.17078 0.0
H1298 H 1.02479 0.96921 0.08882 0.0
H1299 H 0.99239 0.94098 0.12014 0.0
C1300 C 0.88229 0.11058 0.84555 0.0
C1301 C 0.86361 0.11781 0.85421 0.0
C1302 C 0.88059 0.08316 0.85101 0.0
C1303 C 0.86605 0.02934 0.90572 0.0
H1304 H 0.88716 0.99221 0.8608 0.0
C1305 C 0.93706 0.97756 0.96378 0.0
C1306 C 0.96227 0.98961 0.95384 0.0
C1307 C 0.91107 0.97631 0.94579 0.0
C1308 C 0.88085 1.002 0.87355 0.0
H1309 H 0.82776 0.10217 0.87419 0.0
H1310 H 0.82505 0.05419 0.88406 0.0
H1311 H 0.86641 0.02582 0.83785 0.0
H1312 H 0.98008 0.0068 0.91714 0.0
H1313 H 0.93553 0.00681 0.88624 0.0
H1314 H 0.88327 0.00859 0.9417 0.0
C1315 C 0.84079 0.06963 0.8729 0.0
C1316 C 0.86894 0.02113 0.8604 0.0
C1317 C 0.84246 0.09703 0.8674 0.0
C1318 C 0.96079 0.9977 0.92519 0.0
C1319 C 0.93504 0.9973 0.90741 0.0
C1320 C 0.87825 0.0106 0.91887 0.0
C1321 C 0.86024 0.06265 0.86528 0.0
C1322 C 0.86317 0.03619 0.8767 0.0
C1323 C 0.91036 0.98829 0.91803 0.0
C1324 C 0.88768 0.99826 0.90317 0.0
H1325 H 0.89837 0.12617 0.83483 0.0
H1326 H 0.89622 0.07847 0.84539 0.0
H1327 H 0.86196 0.04079 0.91883 0.0
H1328 H 0.93776 0.97045 0.98577 0.0
H1329 H 0.89221 0.96836 0.95435 0.0
C1330 C 0.74764 0.16832 0.71728 0.0
C1331 C 0.77607 0.1877 0.71714 0.0
C1332 C 0.72803 0.15688 0.69239 0.0
C1333 C 0.72048 0.14277 0.61991 0.0
H1334 H 0.64214 0.13311 0.6125 0.0
C1335 C 0.6188 0.08945 0.52747 0.0
C1336 C 0.59856 0.06487 0.53831 0.0
C1337 C 0.64235 0.10872 0.54581 0.0
C1338 C 0.664 0.136 0.61414 0.0
H1339 H 0.80686 0.20964 0.69118 0.0
H1340 H 0.77221 0.1895 0.64705 0.0
H1341 H 0.68081 0.15937 0.65113 0.0
H1342 H 0.58696 0.04111 0.57656 0.0
H1343 H 0.62721 0.07532 0.60839 0.0
H1344 H 0.70309 0.11885 0.58284 0.0
C1345 C 0.76519 0.18319 0.66658 0.0
C1346 C 0.68609 0.15079 0.63634 0.0
C1347 C 0.785 0.19462 0.69175 0.0
C1348 C 0.60203 0.06002 0.56763 0.0
C1349 C 0.62505 0.07951 0.58583 0.0
C1350 C 0.69829 0.12819 0.59739 0.0
C1351 C 0.73629 0.16468 0.66661 0.0
C1352 C 0.71434 0.15331 0.6402 0.0
C1353 C 0.64544 0.10391 0.5751 0.0
C1354 C 0.66975 0.12388 0.59501 0.0
H1355 H 0.74032 0.1624 0.73667 0.0
H1356 H 0.70622 0.14201 0.69334 0.0
H1357 H 0.74201 0.14439 0.62229 0.0
H1358 H 0.61667 0.09355 0.50491 0.0
H1359 H 0.65792 0.12744 0.53718 0.0
C1360 C 0.63866 0.95812 0.42239 0.0
C1361 C 0.60847 0.94311 0.41593 0.0
C1362 C 0.65549 0.94882 0.41349 0.0
C1363 C 0.65018 0.91 0.35751 0.0
H1364 H 0.71975 0.90391 0.40457 0.0
C1365 C 0.70567 0.85702 0.32047 0.0
C1366 C 0.73587 0.87067 0.3253 0.0
C1367 C 0.69118 0.86598 0.33313 0.0
C1368 C 0.70054 0.90586 0.39118 0.0
H1369 H 0.57221 0.90592 0.39684 0.0
H1370 H 0.60168 0.88979 0.38106 0.0
H1371 H 0.69225 0.91917 0.42481 0.0
H1372 H 0.77476 0.90392 0.3475 0.0
H1373 H 0.74917 0.92022 0.36913 0.0
H1374 H 0.6584 0.89704 0.32384 0.0
C1375 C 0.61221 0.90889 0.39259 0.0
C1376 C 0.68487 0.91447 0.40273 0.0
C1377 C 0.59542 0.91811 0.40154 0.0
C1378 C 0.75141 0.89328 0.34323 0.0
C1379 C 0.73685 0.90237 0.35582 0.0
C1380 C 0.66586 0.90155 0.34597 0.0
C1381 C 0.64225 0.92451 0.398 0.0
C1382 C 0.65941 0.91621 0.38601 0.0
C1383 C 0.70662 0.88892 0.35062 0.0
C1384 C 0.69094 0.89906 0.36279 0.0
H1385 H 0.64913 0.97759 0.43332 0.0
H1386 H 0.67867 0.96122 0.41769 0.0
H1387 H 0.6309 0.91183 0.34412 0.0
H1388 H 0.69316 0.83972 0.30649 0.0
H1389 H 0.66785 0.85502 0.32914 0.0
C1390 C 0.7524 0.16805 0.38879 0.0
C1391 C 0.73216 0.16228 0.3628 0.0
C1392 C 0.76092 0.14712 0.40365 0.0
C1393 C 0.7697 0.09072 0.38217 0.0
H1394 H 0.80695 0.08506 0.46134 0.0
C1395 C 0.84493 0.03513 0.4192 0.0
C1396 C 0.87192 0.05176 0.43583 0.0
C1397 C 0.82194 0.04246 0.41451 0.0
C1398 C 0.79637 0.08629 0.43922 0.0
H1399 H 0.70187 0.13009 0.33347 0.0
H1400 H 0.7156 0.0929 0.36022 0.0
H1401 H 0.77333 0.10759 0.44701 0.0
H1402 H 0.89609 0.08823 0.46164 0.0
H1403 H 0.85609 0.10171 0.4525 0.0
H1404 H 0.79372 0.07087 0.37411 0.0
C1405 C 0.72566 0.11364 0.3687 0.0
C1406 C 0.77718 0.09905 0.43107 0.0
C1407 C 0.71772 0.13474 0.35351 0.0
C1408 C 0.87554 0.07545 0.44823 0.0
C1409 C 0.85259 0.08282 0.44349 0.0
C1410 C 0.78868 0.07791 0.3903 0.0
C1411 C 0.74878 0.12026 0.39273 0.0
C1412 C 0.76422 0.10193 0.4024 0.0
C1413 C 0.82573 0.0665 0.4264 0.0
C1414 C 0.80264 0.07621 0.41876 0.0
H1415 H 0.76384 0.18938 0.39604 0.0
H1416 H 0.77897 0.15291 0.42197 0.0
H1417 H 0.76083 0.09344 0.35981 0.0
H1418 H 0.84175 0.01675 0.40951 0.0
H1419 H 0.8013 0.02961 0.40128 0.0
C1420 C 0.67845 0.18407 0.23633 0.0
C1421 C 0.66913 0.17902 0.26131 0.0
C1422 C 0.66529 0.16371 0.2162 0.0
C1423 C 0.59895 0.09896 0.19217 0.0
H1424 H 0.64689 0.09275 0.1501 0.0
C1425 C 0.55732 0.01381 0.10978 0.0
C1426 C 0.56595 0.02399 0.08428 0.0
C1427 C 0.56896 0.03142 0.13247 0.0
C1428 C 0.63317 0.09433 0.16153 0.0
H1429 H 0.63875 0.14855 0.28489 0.0
H1430 H 0.61586 0.11245 0.24978 0.0
H1431 H 0.66912 0.12488 0.18828 0.0
H1432 H 0.59333 0.06052 0.06242 0.0
H1433 H 0.61385 0.09111 0.10199 0.0
H1434 H 0.56303 0.06793 0.16536 0.0
C1435 C 0.63311 0.13246 0.24555 0.0
C1436 C 0.64589 0.11285 0.18342 0.0
C1437 C 0.64626 0.15306 0.26574 0.0
C1438 C 0.58629 0.05209 0.08182 0.0
C1439 C 0.59815 0.06955 0.10455 0.0
C1440 C 0.58623 0.08015 0.17037 0.0
C1441 C 0.64256 0.1375 0.22051 0.0
C1442 C 0.62895 0.1159 0.19872 0.0
C1443 C 0.58976 0.05941 0.1302 0.0
C1444 C 0.60317 0.07801 0.15449 0.0
H1445 H 0.69592 0.20391 0.23219 0.0
H1446 H 0.67282 0.16877 0.19701 0.0
H1447 H 0.58514 0.10083 0.20326 0.0
H1448 H 0.54154 0.99226 0.11217 0.0
H1449 H 0.56213 0.02297 0.15198 0.0
C1450 C 0.74978 0.86028 0.88617 0.0
C1451 C 0.74528 0.85845 0.85708 0.0
C1452 C 0.73386 0.87006 0.89602 0.0
C1453 C 0.66458 0.87488 0.87645 0.0
H1454 H 0.69882 0.92366 0.9393 0.0
C1455 C 0.59727 0.91008 0.92144 0.0
C1456 C 0.6029 0.90899 0.95102 0.0
C1457 C 0.61556 0.90678 0.90842 0.0
C1458 C 0.68893 0.90988 0.92185 0.0
H1459 H 0.72137 0.8665 0.81547 0.0
H1460 H 0.69331 0.88339 0.83279 0.0
H1461 H 0.72976 0.91336 0.91915 0.0
H1462 H 0.63251 0.90433 0.99012 0.0
H1463 H 0.66385 0.89773 0.96747 0.0
H1464 H 0.62369 0.87075 0.87959 0.0
C1465 C 0.709 0.87698 0.8479 0.0
C1466 C 0.70664 0.90406 0.9103 0.0
C1467 C 0.72503 0.8673 0.83802 0.0
C1468 C 0.62732 0.90482 0.96729 0.0
C1469 C 0.64554 0.90147 0.9543 0.0
C1470 C 0.64685 0.88063 0.88806 0.0
C1471 C 0.71303 0.87812 0.87701 0.0
C1472 C 0.6946 0.88622 0.88773 0.0
C1473 C 0.63983 0.90234 0.92474 0.0
C1474 C 0.6588 0.89788 0.91113 0.0
H1475 H 0.76481 0.85312 0.90143 0.0
H1476 H 0.73711 0.8703 0.91859 0.0
H1477 H 0.65468 0.86074 0.8593 0.0
H1478 H 0.57853 0.91312 0.90835 0.0
H1479 H 0.61075 0.9078 0.88559 0.0
C1480 C 0.95933 0.94097 0.57277 0.0
C1481 C 0.98971 0.95433 0.58131 0.0
C1482 C 0.94287 0.92213 0.5912 0.0
C1483 C 0.9447 0.90055 0.66701 0.0
H1484 H 0.87671 0.83425 0.63676 0.0
C1485 C 0.87502 0.81534 0.73899 0.0
C1486 C 0.84483 0.80349 0.72859 0.0
C1487 C 0.89338 0.83273 0.7214 0.0
C1488 C 0.8954 0.85279 0.64558 0.0
H1489 H 1.02645 0.95809 0.61637 0.0
H1490 H 0.99762 0.92496 0.6487 0.0
H1491 H 0.90761 0.86619 0.60613 0.0
H1492 H 0.81032 0.80035 0.69132 0.0
H1493 H 0.84219 0.83077 0.66065 0.0
H1494 H 0.93231 0.88723 0.70644 0.0
C1495 C 0.98656 0.92936 0.62762 0.0
C1496 C 0.91324 0.87119 0.62795 0.0
C1497 C 1.00315 0.94828 0.60903 0.0
C1498 C 0.83347 0.80905 0.69999 0.0
C1499 C 0.85183 0.82645 0.68237 0.0
C1500 C 0.92681 0.88214 0.68467 0.0
C1501 C 0.95614 0.91588 0.61888 0.0
C1502 C 0.93803 0.89551 0.63829 0.0
C1503 C 0.88211 0.83877 0.69284 0.0
C1504 C 0.90173 0.85806 0.67419 0.0
H1505 H 0.94803 0.94503 0.55167 0.0
H1506 H 0.91957 0.91271 0.58374 0.0
H1507 H 0.96334 0.91918 0.67573 0.0
H1508 H 0.88451 0.81143 0.7609 0.0
H1509 H 0.9165 0.84134 0.73023 0.0
C1510 C 0.24023 0.87637 0.7951 0.0
C1511 C 0.24755 0.85374 0.8079 0.0
C1512 C 0.22706 0.88706 0.80825 0.0
C1513 C 0.21584 0.88999 0.87845 0.0
H1514 H 0.15398 0.91064 0.83423 0.0
C1515 C 0.14887 0.91864 0.9323 0.0
C1516 C 0.1376 0.9385 0.91869 0.0
C1517 C 0.16248 0.90894 0.91872 0.0
C1518 C 0.17151 0.90545 0.847 0.0
H1519 H 0.24699 0.82515 0.84522 0.0
H1520 H 0.22398 0.84349 0.86786 0.0
H1521 H 0.17712 0.89301 0.81097 0.0
H1522 H 0.13238 0.96359 0.8795 0.0
H1523 H 0.15705 0.94774 0.85646 0.0
H1524 H 0.21067 0.90273 0.91442 0.0
C1525 C 0.22846 0.85311 0.84762 0.0
C1526 C 0.18481 0.8952 0.83355 0.0
C1527 C 0.24141 0.8423 0.83439 0.0
C1528 C 0.14094 0.94861 0.89106 0.0
C1529 C 0.15479 0.93907 0.87754 0.0
C1530 C 0.20273 0.90044 0.89187 0.0
C1531 C 0.22102 0.87565 0.83479 0.0
C1532 C 0.2071 0.88714 0.84906 0.0
C1533 C 0.1657 0.91892 0.89105 0.0
C1534 C 0.18018 0.90824 0.87646 0.0
H1535 H 0.24437 0.88569 0.77468 0.0
H1536 H 0.22196 0.90457 0.79774 0.0
H1537 H 0.23322 0.88452 0.89116 0.0
H1538 H 0.14731 0.91049 0.95366 0.0
H1539 H 0.17007 0.89318 0.92995 0.0
C1540 C 0.9628 0.42263 0.56222 0.0
C1541 C 0.97595 0.45201 0.5653 0.0
C1542 C 0.94552 0.40432 0.58013 0.0
C1543 C 0.90241 0.40093 0.62755 0.0
H1544 H 0.91681 0.33536 0.66249 0.0
C1545 C 0.82965 0.311 0.69333 0.0
C1546 C 0.84422 0.30194 0.71877 0.0
C1547 C 0.84505 0.32999 0.67425 0.0
C1548 C 0.91262 0.35363 0.65294 0.0
H1549 H 0.98064 0.48529 0.58907 0.0
H1550 H 0.95036 0.45321 0.6203 0.0
H1551 H 0.94465 0.36719 0.62922 0.0
H1552 H 0.8864 0.3059 0.74437 0.0
H1553 H 0.91313 0.33887 0.71105 0.0
H1554 H 0.87046 0.38737 0.65147 0.0
C1555 C 0.95348 0.44443 0.60402 0.0
C1556 C 0.92834 0.37167 0.63374 0.0
C1557 C 0.97098 0.46274 0.58628 0.0
C1558 C 0.8745 0.31251 0.72496 0.0
C1559 C 0.88983 0.33123 0.70582 0.0
C1560 C 0.88646 0.3827 0.64657 0.0
C1561 C 0.94083 0.41505 0.60128 0.0
C1562 C 0.92349 0.39556 0.62098 0.0
C1563 C 0.87524 0.33997 0.6802 0.0
C1564 C 0.89157 0.359 0.65957 0.0
H1565 H 0.96608 0.41368 0.54618 0.0
H1566 H 0.93576 0.38176 0.57739 0.0
H1567 H 0.89816 0.41913 0.61786 0.0
H1568 H 0.80638 0.30333 0.68811 0.0
H1569 H 0.83329 0.33634 0.65457 0.0
C1570 C 0.46291 0.07103 0.47197 0.0
C1571 C 0.47477 0.05667 0.46038 0.0
C1572 C 0.44656 0.08755 0.45532 0.0
C1573 C 0.41086 0.11147 0.37529 0.0
H1574 H 0.39119 0.15647 0.41188 0.0
C1575 C 0.33738 0.17877 0.30401 0.0
C1576 C 0.33217 0.19918 0.31498 0.0
C1577 C 0.35389 0.16243 0.32071 0.0
C1578 C 0.39596 0.14433 0.40025 0.0
H1579 H 0.47534 0.05128 0.41825 0.0
H1580 H 0.44793 0.07833 0.39061 0.0
H1581 H 0.41825 0.12922 0.43972 0.0
H1582 H 0.34343 0.21536 0.3561 0.0
H1583 H 0.37051 0.18803 0.3839 0.0
H1584 H 0.38835 0.12637 0.33585 0.0
C1585 C 0.45132 0.07717 0.41329 0.0
C1586 C 0.41225 0.12784 0.41706 0.0
C1587 C 0.46786 0.06092 0.42993 0.0
C1588 C 0.34557 0.20087 0.34491 0.0
C1589 C 0.36184 0.18437 0.36164 0.0
C1590 C 0.39435 0.12775 0.3585 0.0
C1591 C 0.43955 0.09173 0.42478 0.0
C1592 C 0.42093 0.11029 0.40578 0.0
C1593 C 0.36722 0.16401 0.35075 0.0
C1594 C 0.38579 0.14541 0.36977 0.0
H1595 H 0.46634 0.06969 0.49469 0.0
H1596 H 0.43912 0.09714 0.46706 0.0
H1597 H 0.41561 0.09932 0.36366 0.0
H1598 H 0.32857 0.17518 0.28173 0.0
H1599 H 0.35597 0.14798 0.30944 0.0
C1600 C 0.53028 0.57375 0.06219 0.0
C1601 C 0.54144 0.56677 0.04358 0.0
C1602 C 0.54867 0.59486 0.08152 0.0
C1603 C 0.62085 0.65599 0.09409 0.0
H1604 H 0.61815 0.64331 0.17284 0.0
C1605 C 0.71808 0.71757 0.18062 0.0
C1606 C 0.71304 0.72805 0.20168 0.0
C1607 C 0.69499 0.69892 0.16156 0.0
C1608 C 0.61894 0.6473 0.15085 0.0
H1609 H 0.58046 0.57644 0.03056 0.0
H1610 H 0.61208 0.61243 0.06396 0.0
H1611 H 0.58081 0.60925 0.13861 0.0
H1612 H 0.68004 0.72692 0.21976 0.0
H1613 H 0.6395 0.69404 0.18642 0.0
H1614 H 0.65927 0.69352 0.10627 0.0
C1615 C 0.58926 0.60223 0.06358 0.0
C1616 C 0.59751 0.62785 0.13123 0.0
C1617 C 0.57107 0.58136 0.04447 0.0
C1618 C 0.68448 0.7192 0.20362 0.0
C1619 C 0.66132 0.7003 0.18466 0.0
C1620 C 0.64224 0.67525 0.11363 0.0
C1621 C 0.57841 0.60939 0.08233 0.0
C1622 C 0.59865 0.63162 0.10272 0.0
C1623 C 0.66632 0.69019 0.16322 0.0
C1624 C 0.64196 0.67083 0.14233 0.0
H1625 H 0.50754 0.56274 0.06204 0.0
H1626 H 0.53962 0.59993 0.09567 0.0
H1627 H 0.62203 0.65995 0.0722 0.0
H1628 H 0.73987 0.72404 0.17863 0.0
H1629 H 0.69961 0.6912 0.14557 0.0
C1630 C 0.19855 0.23395 0.71469 0.0
C1631 C 0.22386 0.2556 0.70839 0.0
C1632 C 0.17808 0.21521 0.69433 0.0
C1633 C 0.17474 0.17883 0.63883 0.0
H1634 H 0.09203 0.15652 0.62035 0.0
C1635 C 0.09574 0.08824 0.56529 0.0
C1636 C 0.06811 0.0714 0.57008 0.0
C1637 C 0.11437 0.11229 0.58042 0.0
C1638 C 0.11501 0.16215 0.6256 0.0
H1639 H 0.24784 0.27513 0.67612 0.0
H1640 H 0.21213 0.24149 0.64035 0.0
H1641 H 0.12454 0.19766 0.64825 0.0
H1642 H 0.03864 0.06577 0.59515 0.0
H1643 H 0.07174 0.1071 0.62278 0.0
H1644 H 0.16552 0.14259 0.61791 0.0
C1645 C 0.20788 0.23962 0.66086 0.0
C1646 C 0.1336 0.18596 0.64124 0.0
C1647 C 0.22807 0.25895 0.68111 0.0
C1648 C 0.05977 0.07854 0.59095 0.0
C1649 C 0.07867 0.10241 0.60652 0.0
C1650 C 0.15616 0.15472 0.62365 0.0
C1651 C 0.183 0.2173 0.66755 0.0
C1652 C 0.16358 0.19438 0.64811 0.0
C1653 C 0.1061 0.11986 0.60119 0.0
C1654 C 0.12598 0.14589 0.61698 0.0
H1655 H 0.19521 0.23076 0.73581 0.0
H1656 H 0.15926 0.198 0.70008 0.0
H1657 H 0.19779 0.18461 0.64438 0.0
H1658 H 0.10274 0.08329 0.54923 0.0
H1659 H 0.135 0.12528 0.57526 0.0
C1660 C 0.62972 0.33143 0.37471 0.0
C1661 C 0.6573 0.33192 0.38747 0.0
C1662 C 0.61906 0.34683 0.38518 0.0
C1663 C 0.63061 0.38336 0.44931 0.0
H1664 H 0.58262 0.4173 0.39737 0.0
C1665 C 0.59496 0.45858 0.4871 0.0
C1666 C 0.56752 0.45807 0.47374 0.0
C1667 C 0.60613 0.44348 0.47684 0.0
C1668 C 0.59566 0.40772 0.41237 0.0
H1669 H 0.69491 0.34925 0.42199 0.0
H1670 H 0.67679 0.37646 0.43958 0.0
H1671 H 0.60115 0.39082 0.37929 0.0
H1672 H 0.53039 0.4408 0.43884 0.0
H1673 H 0.54936 0.41431 0.42143 0.0
H1674 H 0.62507 0.40023 0.48241 0.0
C1675 C 0.66313 0.36386 0.42158 0.0
C1676 C 0.60638 0.3924 0.40189 0.0
C1677 C 0.67378 0.34846 0.41113 0.0
C1678 C 0.55162 0.4419 0.44981 0.0
C1679 C 0.5627 0.42676 0.4396 0.0
C1680 C 0.61986 0.39867 0.4598 0.0
C1681 C 0.63553 0.36335 0.40884 0.0
C1682 C 0.62405 0.37988 0.42014 0.0
C1683 C 0.59022 0.42729 0.45282 0.0
C1684 C 0.60211 0.41112 0.44156 0.0
H1685 H 0.61631 0.31931 0.35634 0.0
H1686 H 0.5976 0.34541 0.37483 0.0
H1687 H 0.64367 0.37379 0.46427 0.0
H1688 H 0.60811 0.47111 0.50522 0.0
H1689 H 0.62757 0.44501 0.48751 0.0
C1690 C 0.43569 0.93883 0.04096 0.0
C1691 C 0.45763 0.96617 0.04633 0.0
C1692 C 0.41485 0.92634 0.05679 0.0
C1693 C 0.40741 0.92313 0.12657 0.0
H1694 H 0.32457 0.89007 0.09546 0.0
C1695 C 0.33037 0.86472 0.19972 0.0
C1696 C 0.30541 0.84055 0.18991 0.0
C1697 C 0.34691 0.88305 0.18124 0.0
C1698 C 0.34763 0.89882 0.10453 0.0
H1699 H 0.47475 1.0021 0.07209 0.0
H1700 H 0.4387 0.9798 0.10035 0.0
H1701 H 0.35706 0.91616 0.06421 0.0
H1702 H 0.27775 0.81664 0.15319 0.0
H1703 H 0.30733 0.84769 0.12107 0.0
H1704 H 0.39865 0.90452 0.16647 0.0
C1705 C 0.43747 0.96834 0.08358 0.0
C1706 C 0.36616 0.91395 0.0866 0.0
C1707 C 0.45795 0.98109 0.06734 0.0
C1708 C 0.29678 0.83536 0.16116 0.0
C1709 C 0.31375 0.8533 0.14276 0.0
C1710 C 0.389 0.90747 0.1444 0.0
C1711 C 0.41599 0.94076 0.07862 0.0
C1712 C 0.39616 0.92617 0.09752 0.0
C1713 C 0.33934 0.87718 0.15263 0.0
C1714 C 0.35881 0.89499 0.13366 0.0
H1715 H 0.43493 0.9269 0.02485 0.0
H1716 H 0.39856 0.90496 0.05277 0.0
H1717 H 0.43056 0.93205 0.13536 0.0
H1718 H 0.33731 0.86928 0.22182 0.0
H1719 H 0.36589 0.90159 0.18959 0.0
C1720 C 0.96662 0.55892 0.92887 0.0
C1721 C 0.9772 0.55782 0.95929 0.0
C1722 C 0.95003 0.57523 0.91237 0.0
C1723 C 0.91697 0.63142 0.91602 0.0
H1724 H 0.88531 0.62358 0.83585 0.0
C1725 C 0.84885 0.70362 0.84432 0.0
C1726 C 0.83353 0.7006 0.81486 0.0
C1727 C 0.86524 0.68713 0.86088 0.0
C1728 C 0.89355 0.62683 0.85821 0.0
H1729 H 0.97531 0.57677 0.99362 0.0
H1730 H 0.94797 0.60418 0.96622 0.0
H1731 H 0.91271 0.59655 0.86342 0.0
H1732 H 0.82667 0.67407 0.78232 0.0
H1733 H 0.85416 0.64683 0.80972 0.0
H1734 H 0.89797 0.66183 0.91078 0.0
C1735 C 0.95245 0.59196 0.95438 0.0
C1736 C 0.91014 0.61053 0.87487 0.0
C1737 C 0.96891 0.57546 0.97093 0.0
C1738 C 0.837 0.67879 0.80422 0.0
C1739 C 0.85358 0.6624 0.82076 0.0
C1740 C 0.90054 0.64786 0.89933 0.0
C1741 C 0.94178 0.593 0.92389 0.0
C1742 C 0.92302 0.61159 0.905 0.0
C1743 C 0.86886 0.66535 0.85032 0.0
C1744 C 0.88758 0.64673 0.86921 0.0
H1745 H 0.97115 0.54667 0.91711 0.0
H1746 H 0.94368 0.57375 0.88972 0.0
H1747 H 0.92521 0.63466 0.93838 0.0
H1748 H 0.84822 0.71924 0.85527 0.0
H1749 H 0.87546 0.69195 0.88275 0.0
C1750 C 0.49516 0.44273 0.10186 0.0
C1751 C 0.48084 0.45044 0.07539 0.0
C1752 C 0.47939 0.42455 0.12134 0.0
C1753 C 0.44231 0.3976 0.16461 0.0
H1754 H 0.36537 0.34043 0.13605 0.0
C1755 C 0.36253 0.33962 0.23631 0.0
C1756 C 0.3422 0.31153 0.23159 0.0
C1757 C 0.38023 0.35499 0.21769 0.0
C1758 C 0.38693 0.35596 0.14457 0.0
H1759 H 0.43864 0.44559 0.04915 0.0
H1760 H 0.41167 0.41509 0.08294 0.0
H1761 H 0.39505 0.36925 0.10344 0.0
H1762 H 0.32491 0.27728 0.20382 0.0
H1763 H 0.35633 0.30381 0.17148 0.0
H1764 H 0.43456 0.38364 0.20584 0.0
C1765 C 0.43489 0.42211 0.08858 0.0
C1766 C 0.40391 0.37293 0.12571 0.0
C1767 C 0.45052 0.43995 0.06917 0.0
C1768 C 0.34018 0.29898 0.20788 0.0
C1769 C 0.35817 0.31431 0.18929 0.0
C1770 C 0.42544 0.38042 0.18351 0.0
C1771 C 0.44895 0.41381 0.11489 0.0
C1772 C 0.4317 0.39438 0.13535 0.0
C1773 C 0.37846 0.34265 0.19387 0.0
C1774 C 0.39726 0.35962 0.17378 0.0
H1775 H 0.51843 0.45026 0.10733 0.0
H1776 H 0.49109 0.41853 0.14124 0.0
H1777 H 0.46343 0.41389 0.173 0.0
H1778 H 0.36454 0.34998 0.25432 0.0
H1779 H 0.39495 0.37683 0.2218 0.0
C1780 C 0.45341 0.59423 0.88782 0.0
C1781 C 0.4471 0.5717 0.87203 0.0
C1782 C 0.44698 0.61679 0.87459 0.0
C1783 C 0.38696 0.61791 0.82358 0.0
H1784 H 0.42145 0.69945 0.82783 0.0
C1785 C 0.33793 0.68937 0.75573 0.0
C1786 C 0.34355 0.71476 0.76621 0.0
C1787 C 0.34852 0.67085 0.77276 0.0
C1788 C 0.41151 0.67659 0.82719 0.0
H1789 H 0.43276 0.55579 0.83047 0.0
H1790 H 0.42121 0.59548 0.80702 0.0
H1791 H 0.45182 0.67348 0.84583 0.0
H1792 H 0.36135 0.73952 0.80324 0.0
H1793 H 0.3798 0.70666 0.83332 0.0
H1794 H 0.34667 0.62065 0.80547 0.0
C1795 C 0.4312 0.59577 0.82943 0.0
C1796 C 0.42892 0.66198 0.83691 0.0
C1797 C 0.43772 0.57323 0.84268 0.0
C1798 C 0.35699 0.72004 0.79474 0.0
C1799 C 0.36767 0.70145 0.81184 0.0
C1800 C 0.36956 0.63237 0.81426 0.0
C1801 C 0.43397 0.61651 0.84568 0.0
C1802 C 0.41675 0.6327 0.83443 0.0
C1803 C 0.36468 0.67751 0.80046 0.0
C1804 C 0.38181 0.66184 0.8154 0.0
H1805 H 0.46065 0.59303 0.91063 0.0
H1806 H 0.44903 0.63257 0.88738 0.0
H1807 H 0.37709 0.59508 0.82253 0.0
H1808 H 0.32718 0.68478 0.73383 0.0
H1809 H 0.3461 0.65257 0.76346 0.0
C1810 C 0.10356 0.53958 0.57652 0.0
C1811 C 0.10321 0.53245 0.55045 0.0
C1812 C 0.12767 0.56171 0.59089 0.0
C1813 C 0.18695 0.62862 0.58032 0.0
H1814 H 0.21836 0.61858 0.66037 0.0
C1815 C 0.27562 0.72272 0.64749 0.0
C1816 C 0.27118 0.72295 0.67399 0.0
C1817 C 0.25907 0.69867 0.63151 0.0
C1818 C 0.20975 0.62185 0.63806 0.0
H1819 H 0.12756 0.54276 0.51875 0.0
H1820 H 0.16972 0.58208 0.54373 0.0
H1821 H 0.18141 0.57781 0.63409 0.0
H1822 H 0.24613 0.69838 0.7046 0.0
H1823 H 0.21703 0.65718 0.67679 0.0
H1824 H 0.21415 0.6729 0.58451 0.0
C1825 C 0.15143 0.57028 0.55313 0.0
C1826 C 0.18869 0.59844 0.62303 0.0
C1827 C 0.12745 0.54774 0.53898 0.0
C1828 C 0.2501 0.69884 0.68425 0.0
C1829 C 0.2336 0.67501 0.66838 0.0
C1830 C 0.20781 0.6522 0.59547 0.0
C1831 C 0.15174 0.57744 0.57924 0.0
C1832 C 0.17658 0.60169 0.59418 0.0
C1833 C 0.23778 0.67451 0.64179 0.0
C1834 C 0.21888 0.6492 0.62472 0.0
H1835 H 0.08509 0.5281 0.58574 0.0
H1836 H 0.12724 0.56699 0.61084 0.0
H1837 H 0.17787 0.63169 0.55808 0.0
H1838 H 0.29149 0.74119 0.63896 0.0
H1839 H 0.26294 0.699 0.61115 0.0
C1840 C 0.36575 0.33857 0.71094 0.0
C1841 C 0.34251 0.31208 0.70409 0.0
C1842 C 0.38316 0.35439 0.69208 0.0
C1843 C 0.38262 0.36455 0.61627 0.0
H1844 H 0.46583 0.40397 0.64219 0.0
C1845 C 0.45255 0.42182 0.53601 0.0
C1846 C 0.47718 0.44731 0.54265 0.0
C1847 C 0.43795 0.40497 0.55656 0.0
C1848 C 0.44261 0.39347 0.63454 0.0
H1849 H 0.31964 0.28153 0.67175 0.0
H1850 H 0.34984 0.3093 0.63862 0.0
H1851 H 0.43686 0.37525 0.67585 0.0
H1852 H 0.50616 0.47489 0.57645 0.0
H1853 H 0.48016 0.44582 0.61257 0.0
H1854 H 0.38791 0.3832 0.57526 0.0
C1855 C 0.35455 0.31782 0.65872 0.0
C1856 C 0.42595 0.37684 0.65391 0.0
C1857 C 0.33729 0.30179 0.67779 0.0
C1858 C 0.4874 0.45522 0.57074 0.0
C1859 C 0.4724 0.43846 0.59142 0.0
C1860 C 0.39917 0.38137 0.59701 0.0
C1861 C 0.37773 0.3444 0.66558 0.0
C1862 C 0.39571 0.36198 0.64501 0.0
C1863 C 0.44705 0.41328 0.5845 0.0
C1864 C 0.42951 0.39594 0.60567 0.0
H1865 H 0.3706 0.34724 0.731 0.0
H1866 H 0.40055 0.37481 0.69805 0.0
H1867 H 0.35938 0.35398 0.60868 0.0
H1868 H 0.44421 0.41497 0.51461 0.0
H1869 H 0.41926 0.38543 0.55031 0.0
C1870 C 0.21709 0.71514 0.18487 0.0
C1871 C 0.24744 0.72769 0.19198 0.0
C1872 C 0.20183 0.69947 0.16088 0.0
C1873 C 0.20795 0.65613 0.11577 0.0
H1874 H 0.13771 0.66011 0.06774 0.0
C1875 C 0.10868 0.59621 0.01531 0.0
C1876 C 0.10068 0.56819 0.02669 0.0
C1877 C 0.12988 0.61874 0.03174 0.0
C1878 C 0.1575 0.65902 0.08067 0.0
H1879 H 0.28567 0.73401 0.17948 0.0
H1880 H 0.25888 0.70598 0.13766 0.0
H1881 H 0.16851 0.69494 0.1034 0.0
H1882 H 0.10916 0.54159 0.06358 0.0
H1883 H 0.14626 0.58068 0.09195 0.0
H1884 H 0.19638 0.6196 0.09376 0.0
C1885 C 0.24696 0.70844 0.15063 0.0
C1886 C 0.17498 0.67879 0.10124 0.0
C1887 C 0.26227 0.72446 0.17452 0.0
C1888 C 0.11489 0.563 0.05428 0.0
C1889 C 0.13627 0.58538 0.07047 0.0
C1890 C 0.19031 0.6362 0.09542 0.0
C1891 C 0.21656 0.69571 0.14362 0.0
C1892 C 0.20005 0.67715 0.11944 0.0
C1893 C 0.14374 0.61351 0.05957 0.0
C1894 C 0.16456 0.63704 0.07811 0.0
H1895 H 0.20507 0.71723 0.19798 0.0
H1896 H 0.17844 0.6896 0.15629 0.0
H1897 H 0.22704 0.65424 0.12954 0.0
H1898 H 0.09799 0.60073 0.99409 0.0
H1899 H 0.13529 0.64024 0.0228 0.0
C1900 C 0.76073 0.35769 0.64938 0.0
C1901 C 0.74913 0.33197 0.63651 0.0
C1902 C 0.76703 0.38305 0.63312 0.0
C1903 C 0.73472 0.40514 0.56535 0.0
H1904 H 0.78676 0.47901 0.59447 0.0
C1905 C 0.69357 0.48896 0.54278 0.0
C1906 C 0.69472 0.49761 0.56847 0.0
C1907 C 0.71248 0.47781 0.54154 0.0
C1908 C 0.77233 0.45864 0.58568 0.0
H1909 H 0.73758 0.31245 0.59724 0.0
H1910 H 0.74823 0.35711 0.56841 0.0
H1911 H 0.79958 0.43893 0.61086 0.0
H1912 H 0.71791 0.50411 0.6122 0.0
H1913 H 0.75035 0.48384 0.61046 0.0
H1914 H 0.70616 0.42381 0.54234 0.0
C1915 C 0.75238 0.35759 0.59107 0.0
C1916 C 0.77969 0.43575 0.595 0.0
C1917 C 0.74622 0.33212 0.60747 0.0
C1918 C 0.71676 0.49761 0.59218 0.0
C1919 C 0.73547 0.48615 0.59104 0.0
C1920 C 0.72735 0.42794 0.5561 0.0
C1921 C 0.76172 0.38315 0.60364 0.0
C1922 C 0.75999 0.40843 0.58638 0.0
C1923 C 0.73248 0.47473 0.56609 0.0
C1924 C 0.74516 0.45446 0.56768 0.0
H1925 H 0.76372 0.35804 0.6719 0.0
H1926 H 0.77385 0.40226 0.64347 0.0
H1927 H 0.71896 0.38436 0.55839 0.0
H1928 H 0.67687 0.48919 0.52413 0.0
H1929 H 0.70997 0.46961 0.52192 0.0
C1930 C 0.86608 0.68775 0.15433 0.0
C1931 C 0.83582 0.67693 0.14641 0.0
C1932 C 0.88092 0.68186 0.13924 0.0
C1933 C 0.87028 0.62738 0.09604 0.0
H1934 H 0.94928 0.67803 0.09308 0.0
C1935 C 0.94624 0.59348 0.06386 0.0
C1936 C 0.97076 0.59674 0.08594 0.0
C1937 C 0.92863 0.60641 0.06442 0.0
C1938 C 0.92712 0.66386 0.09347 0.0
H1939 H 0.79731 0.65246 0.11595 0.0
H1940 H 0.82347 0.64231 0.08905 0.0
H1941 H 0.91899 0.69637 0.10439 0.0
H1942 H 0.9968 0.61629 0.1254 0.0
H1943 H 0.96612 0.63944 0.12622 0.0
H1944 H 0.87882 0.59479 0.08565 0.0
C1945 C 0.83561 0.6551 0.10719 0.0
C1946 C 0.90984 0.67423 0.10002 0.0
C1947 C 0.82066 0.66087 0.12251 0.0
C1948 C 0.9779 0.61355 0.10826 0.0
C1949 C 0.96059 0.62689 0.10857 0.0
C1950 C 0.88745 0.61714 0.08903 0.0
C1951 C 0.86585 0.66512 0.11577 0.0
C1952 C 0.88167 0.65581 0.10257 0.0
C1953 C 0.93573 0.62315 0.0868 0.0
C1954 C 0.91626 0.6351 0.08878 0.0
H1955 H 0.87827 0.6997 0.17304 0.0
H1956 H 0.90412 0.68927 0.14693 0.0
H1957 H 0.84883 0.61257 0.09817 0.0
H1958 H 0.94037 0.58038 0.04656 0.0
H1959 H 0.90942 0.60322 0.04757 0.0
C1960 C 0.93947 0.58497 0.58539 0.0
C1961 C 0.96924 0.59659 0.59796 0.0
C1962 C 0.9207 0.59052 0.59545 0.0
C1963 C 0.91294 0.61287 0.65714 0.0
H1964 H 0.85636 0.63472 0.60222 0.0
C1965 C 0.84582 0.65915 0.68747 0.0
C1966 C 0.81705 0.6513 0.67201 0.0
C1967 C 0.86388 0.6506 0.67966 0.0
C1968 C 0.87172 0.62822 0.6178 0.0
H1969 H 1.00272 0.62276 0.63109 0.0
H1970 H 0.96972 0.63272 0.64863 0.0
H1971 H 0.88931 0.62373 0.5862 0.0
H1972 H 0.78414 0.62744 0.63716 0.0
H1973 H 0.81559 0.61206 0.62371 0.0
H1974 H 0.89529 0.61731 0.68876 0.0
C1975 C 0.96102 0.61916 0.63111 0.0
C1976 C 0.89062 0.62203 0.60862 0.0
C1977 C 0.97987 0.6137 0.62095 0.0
C1978 C 0.80636 0.63401 0.64919 0.0
C1979 C 0.82436 0.62533 0.64147 0.0
C1980 C 0.89391 0.61894 0.66634 0.0
C1981 C 0.93131 0.60778 0.61828 0.0
C1982 C 0.91139 0.61431 0.6282 0.0
C1983 C 0.85343 0.63395 0.65633 0.0
C1984 C 0.87312 0.62668 0.64674 0.0
H1985 H 0.93074 0.57199 0.56741 0.0
H1986 H 0.89784 0.58129 0.58536 0.0
H1987 H 0.92859 0.60668 0.67261 0.0
H1988 H 0.85468 0.67281 0.70493 0.0
H1989 H 0.88627 0.6579 0.69127 0.0
C1990 C 0.36387 0.50671 0.4411 0.0
C1991 C 0.36743 0.50411 0.41485 0.0
C1992 C 0.34479 0.51763 0.44243 0.0
C1993 C 0.29135 0.54504 0.39831 0.0
H1994 H 0.3421 0.61205 0.44051 0.0
C1995 C 0.31024 0.655 0.35365 0.0
C1996 C 0.31816 0.67699 0.3709 0.0
C1997 C 0.30346 0.62743 0.36508 0.0
C1998 C 0.32701 0.59315 0.42932 0.0
H1999 H 0.35172 0.50786 0.36954 0.0
H2000 H 0.31896 0.52758 0.37172 0.0
H2001 H 0.35278 0.57092 0.45063 0.0
H2002 H 0.32333 0.6875 0.41301 0.0
H2003 H 0.31206 0.63891 0.43344 0.0
H2004 H 0.26717 0.56858 0.37522 0.0
C2005 C 0.33054 0.52094 0.39133 0.0
C2006 C 0.33314 0.56944 0.43513 0.0
C2007 C 0.34959 0.51 0.39001 0.0
C2008 C 0.31756 0.67079 0.39946 0.0
C2009 C 0.31101 0.64311 0.41104 0.0
C2010 C 0.28523 0.5688 0.39248 0.0
C2011 C 0.32907 0.52622 0.41754 0.0
C2012 C 0.31648 0.54592 0.41838 0.0
C2013 C 0.30458 0.62132 0.39404 0.0
C2014 C 0.30418 0.59369 0.40666 0.0
H2015 H 0.37748 0.50248 0.46064 0.0
H2016 H 0.34393 0.52132 0.46289 0.0
H2017 H 0.27787 0.52696 0.38545 0.0
H2018 H 0.30996 0.65926 0.33139 0.0
H2019 H 0.29908 0.61125 0.35149 0.0
C2020 C 0.25239 0.36458 0.88833 0.0
C2021 C 0.24186 0.35227 0.8622 0.0
C2022 C 0.2345 0.37077 0.89924 0.0
C2023 C 0.1579 0.3544 0.89182 0.0
H2024 H 0.18873 0.42872 0.92071 0.0
C2025 C 0.08693 0.40745 0.89888 0.0
C2026 C 0.09438 0.42136 0.92351 0.0
C2027 C 0.10495 0.39671 0.89454 0.0
C2028 C 0.17999 0.40774 0.9131 0.0
H2029 H 0.20478 0.33722 0.82671 0.0
H2030 H 0.17371 0.34819 0.8456 0.0
H2031 H 0.22075 0.41385 0.90772 0.0
H2032 H 0.12625 0.43509 0.96291 0.0
H2033 H 0.15781 0.41614 0.95532 0.0
H2034 H 0.11693 0.34875 0.8963 0.0
C2035 C 0.19544 0.3524 0.85803 0.0
C2036 C 0.19828 0.39921 0.90575 0.0
C2037 C 0.21323 0.34617 0.8472 0.0
C2038 C 0.11995 0.42417 0.94387 0.0
C2039 C 0.13806 0.41357 0.93945 0.0
C2040 C 0.13961 0.36299 0.89903 0.0
C2041 C 0.20592 0.36482 0.8841 0.0
C2042 C 0.18728 0.37266 0.8946 0.0
C2043 C 0.13073 0.39989 0.91471 0.0
C2044 C 0.15044 0.38988 0.90931 0.0
H2045 H 0.27436 0.36929 0.90032 0.0
H2046 H 0.243 0.38017 0.9195 0.0
H2047 H 0.14899 0.33363 0.88368 0.0
H2048 H 0.0672 0.40493 0.883 0.0
H2049 H 0.09906 0.38649 0.87513 0.0
C2050 C 0.23732 0.37733 0.34502 0.0
C2051 C 0.25004 0.3605 0.36356 0.0
C2052 C 0.21938 0.38573 0.3533 0.0
C2053 C 0.17337 0.36219 0.4036 0.0
H2054 H 0.16718 0.43375 0.38102 0.0
C2055 C 0.10941 0.39832 0.45075 0.0
C2056 C 0.09085 0.40926 0.43187 0.0
C2057 C 0.12855 0.39281 0.44129 0.0
C2058 C 0.16856 0.41359 0.38717 0.0
H2059 H 0.25526 0.3409 0.40601 0.0
H2060 H 0.22547 0.3569 0.42083 0.0
H2061 H 0.20368 0.42544 0.36789 0.0
H2062 H 0.07748 0.42301 0.3884 0.0
H2063 H 0.11132 0.41335 0.37171 0.0
H2064 H 0.13866 0.35056 0.42329 0.0
C2065 C 0.22855 0.36278 0.39957 0.0
C2066 C 0.18941 0.40884 0.37972 0.0
C2067 C 0.24613 0.35407 0.3912 0.0
C2068 C 0.09151 0.41439 0.40326 0.0
C2069 C 0.11094 0.40913 0.39381 0.0
C2070 C 0.15278 0.36704 0.41122 0.0
C2071 C 0.21411 0.37774 0.38039 0.0
C2072 C 0.19217 0.38317 0.3881 0.0
C2073 C 0.1296 0.39832 0.41281 0.0
C2074 C 0.15035 0.39282 0.40325 0.0
H2075 H 0.2403 0.38308 0.32372 0.0
H2076 H 0.20856 0.39727 0.33802 0.0
H2077 H 0.17437 0.34187 0.40969 0.0
H2078 H 0.10912 0.39405 0.47288 0.0
H2079 H 0.14291 0.38468 0.45636 0.0
loop_
_geom_bond_atom_site_label_1
_geom_bond_atom_site_label_2
_geom_bond_distance
_geom_bond_site_symmetry_2
_ccdc_geom_bond_type
Ho0 C3 2.811 1_655 S
Ho0 O20 2.322 1_656 S
Ho0 O22 2.378 . S
Ho0 O23 2.524 1_655 S
Ho0 O24 2.381 . S
Ho0 O25 2.669 1_556 S
Ho0 O27 2.346 . S
Ho0 O31 2.305 1_665 S
Ho1 C12 2.811 1_455 S
Ho1 O21 2.346 . S
Ho1 O25 2.305 1_445 S
Ho1 O26 2.322 1_454 S
Ho1 O28 2.378 . S
Ho1 O29 2.524 1_455 S
Ho1 O30 2.381 . S
Ho1 O31 2.669 1_554 S
C2 O20 1.259 . S
C2 O21 1.268 1_565 S
C3 Ho0 2.811 1_455 S
C3 C4 1.488 . S
C3 O22 1.215 1_455 S
C3 O23 1.289 . S
C4 C3 1.488 . S
C4 C5 1.348 . S
C4 C9 1.413 1_455 S
C5 C4 1.348 . S
C5 C6 1.442 . S
C5 H32 0.930 . S
C6 C5 1.442 . S
C6 C7 1.381 . S
C6 H33 0.931 . S
C7 C6 1.381 . S
C7 C8 1.321 . S
C8 C7 1.321 . S
C8 C9 1.403 1_455 S
C8 H34 0.934 1_455 S
C9 C4 1.413 1_655 S
C9 C8 1.403 1_655 S
C9 H35 0.930 . S
C10 O24 1.275 1_554 S
C10 O25 1.256 . S
C11 O26 1.259 . S
C11 O27 1.268 1_545 S
C12 Ho1 2.811 1_655 S
C12 C13 1.488 . S
C12 O28 1.215 1_655 S
C12 O29 1.289 . S
C13 C12 1.488 . S
C13 C14 1.348 . S
C13 C18 1.413 1_655 S
C14 C13 1.348 . S
C14 C15 1.442 . S
C14 H36 0.930 . S
C15 C14 1.442 . S
C15 C16 1.381 . S
C15 H37 0.931 . S
C16 C15 1.381 . S
C16 C17 1.321 . S
C17 C16 1.321 . S
C17 C18 1.403 1_655 S
C17 H38 0.934 1_655 S
C18 C13 1.413 1_455 S
C18 C17 1.403 1_455 S
C18 H39 0.930 . S
C19 O30 1.275 1_556 S
C19 O31 1.256 . S
O20 Ho0 2.322 1_454 S
O20 C2 1.259 . S
O21 Ho1 2.346 . S
O21 C2 1.268 1_545 S
O22 Ho0 2.378 . S
O22 C3 1.215 1_655 S
O23 Ho0 2.524 1_455 S
O23 C3 1.289 . S
O24 Ho0 2.381 . S
O24 C10 1.275 1_556 S
O25 Ho0 2.669 1_554 S
O25 Ho1 2.305 1_665 S
O25 C10 1.256 . S
O26 Ho1 2.322 1_656 S
O26 C11 1.259 . S
O27 Ho0 2.346 . S
O27 C11 1.268 1_565 S
O28 Ho1 2.378 . S
O28 C12 1.215 1_455 S
O29 Ho1 2.524 1_655 S
O29 C12 1.289 . S
O30 Ho1 2.381 . S
O30 C19 1.275 1_554 S
O31 Ho0 2.305 1_445 S
O31 Ho1 2.669 1_556 S
O31 C19 1.256 . S
H32 C5 0.930 . S
H33 C6 0.931 . S
H34 C8 0.934 1_655 S
H35 C9 0.930 . S
H36 C14 0.930 . S
H37 C15 0.931 . S
H38 C17 0.934 1_455 S
H39 C18 0.930 . S
Ho40 C43 2.811 . S
Ho40 O60 2.322 . S
Ho40 O62 2.378 . S
Ho40 O63 2.524 . S
Ho40 O64 2.381 . S
Ho40 O65 2.669 . S
Ho40 O67 2.346 . S
Ho40 O71 2.305 . S
Ho41 C52 2.811 . S
Ho41 O61 2.346 . S
Ho41 O65 2.305 . S
Ho41 O66 2.322 . S
Ho41 O68 2.378 . S
Ho41 O69 2.524 . S
Ho41 O70 2.381 . S
Ho41 O71 2.669 . S
C42 O60 1.259 . S
C42 O61 1.268 . S
C43 Ho40 2.811 . S
C43 C44 1.488 . S
C43 O62 1.215 . S
C43 O63 1.289 . S
C44 C43 1.488 . S
C44 C45 1.348 . S
C44 C49 1.413 . S
C45 C44 1.348 . S
C45 C46 1.442 . S
C45 H72 0.930 . S
C46 C45 1.442 . S
C46 C47 1.381 . S
C46 H73 0.931 . S
C47 C46 1.381 . S
C47 C48 1.321 . S
C48 C47 1.321 . S
C48 C49 1.403 . S
C48 H74 0.934 . S
C49 C44 1.413 . S
C49 C48 1.403 . S
C49 H75 0.930 . S
C50 O64 1.275 . S
C50 O65 1.256 . S
C51 O66 1.259 . S
C51 O67 1.268 . S
C52 Ho41 2.811 . S
C52 C53 1.488 . S
C52 O68 1.215 . S
C52 O69 1.289 . S
C53 C52 1.488 . S
C53 C54 1.348 . S
C53 C58 1.413 . S
C54 C53 1.348 . S
C54 C55 1.442 . S
C54 H76 0.930 . S
C55 C54 1.442 . S
C55 C56 1.381 . S
C55 H77 0.931 . S
C56 C55 1.381 . S
C56 C57 1.321 . S
C57 C56 1.321 . S
C57 C58 1.403 . S
C57 H78 0.934 . S
C58 C53 1.413 . S
C58 C57 1.403 . S
C58 H79 0.930 . S
C59 O70 1.275 . S
C59 O71 1.256 . S
O60 Ho40 2.322 . S
O60 C42 1.259 . S
O61 Ho41 2.346 . S
O61 C42 1.268 . S
O62 Ho40 2.378 . S
O62 C43 1.215 . S
O63 Ho40 2.524 . S
O63 C43 1.289 . S
O64 Ho40 2.381 . S
O64 C50 1.275 . S
O65 Ho40 2.669 . S
O65 Ho41 2.305 . S
O65 C50 1.256 . S
O66 Ho41 2.322 . S
O66 C51 1.259 . S
O67 Ho40 2.346 . S
O67 C51 1.268 . S
O68 Ho41 2.378 . S
O68 C52 1.215 . S
O69 Ho41 2.524 . S
O69 C52 1.289 . S
O70 Ho41 2.381 . S
O70 C59 1.275 . S
O71 Ho40 2.305 . S
O71 Ho41 2.669 . S
O71 C59 1.256 . S
H72 C45 0.930 . S
H73 C46 0.931 . S
H74 C48 0.934 . S
H75 C49 0.930 . S
H76 C54 0.930 . S
H77 C55 0.931 . S
H78 C57 0.934 . S
H79 C58 0.930 . S
Ho80 C83 2.811 1_565 S
Ho80 O100 2.322 1_565 S
Ho80 O102 2.378 . S
Ho80 O103 2.524 1_565 S
Ho80 O104 2.381 . S
Ho80 O105 2.669 . S
Ho80 O107 2.346 . S
Ho80 O111 2.305 1_565 S
Ho81 C92 2.811 1_545 S
Ho81 O101 2.346 . S
Ho81 O105 2.305 1_545 S
Ho81 O106 2.322 1_545 S
Ho81 O108 2.378 . S
Ho81 O109 2.524 1_545 S
Ho81 O110 2.381 . S
Ho81 O111 2.669 . S
C82 O100 1.259 . S
C82 O101 1.268 . S
C83 Ho80 2.811 1_545 S
C83 C84 1.488 . S
C83 O102 1.215 1_545 S
C83 O103 1.289 . S
C84 C83 1.488 . S
C84 C85 1.348 . S
C84 C89 1.413 . S
C85 C84 1.348 . S
C85 C86 1.442 . S
C85 H112 0.930 . S
C86 C85 1.442 . S
C86 C87 1.381 . S
C86 H113 0.931 . S
C87 C86 1.381 . S
C87 C88 1.321 . S
C88 C87 1.321 . S
C88 C89 1.403 . S
C88 H114 0.934 . S
C89 C84 1.413 . S
C89 C88 1.403 . S
C89 H115 0.930 1_545 S
C90 O104 1.275 . S
C90 O105 1.256 . S
C91 O106 1.259 . S
C91 O107 1.268 . S
C92 Ho81 2.811 1_565 S
C92 C93 1.488 . S
C92 O108 1.215 1_565 S
C92 O109 1.289 . S
C93 C92 1.488 . S
C93 C94 1.348 . S
C93 C98 1.413 . S
C94 C93 1.348 . S
C94 C95 1.442 . S
C94 H116 0.930 . S
C95 C94 1.442 . S
C95 C96 1.381 . S
C95 H117 0.931 . S
C96 C95 1.381 . S
C96 C97 1.321 . S
C97 C96 1.321 . S
C97 C98 1.403 . S
C97 H118 0.934 . S
C98 C93 1.413 . S
C98 C97 1.403 . S
C98 H119 0.930 1_565 S
C99 O110 1.275 . S
C99 O111 1.256 . S
O100 Ho80 2.322 1_545 S
O100 C82 1.259 . S
O101 Ho81 2.346 . S
O101 C82 1.268 . S
O102 Ho80 2.378 . S
O102 C83 1.215 1_565 S
O103 Ho80 2.524 1_545 S
O103 C83 1.289 . S
O104 Ho80 2.381 . S
O104 C90 1.275 . S
O105 Ho80 2.669 . S
O105 Ho81 2.305 1_565 S
O105 C90 1.256 . S
O106 Ho81 2.322 1_565 S
O106 C91 1.259 . S
O107 Ho80 2.346 . S
O107 C91 1.268 . S
O108 Ho81 2.378 . S
O108 C92 1.215 1_545 S
O109 Ho81 2.524 1_565 S
O109 C92 1.289 . S
O110 Ho81 2.381 . S
O110 C99 1.275 . S
O111 Ho80 2.305 1_545 S
O111 Ho81 2.669 . S
O111 C99 1.256 . S
H112 C85 0.930 . S
H113 C86 0.931 . S
H114 C88 0.934 . S
H115 C89 0.930 1_565 S
H116 C94 0.930 . S
H117 C95 0.931 . S
H118 C97 0.934 . S
H119 C98 0.930 1_545 S
Ho120 C123 2.811 . S
Ho120 O140 2.322 . S
Ho120 O142 2.378 . S
Ho120 O143 2.524 . S
Ho120 O144 2.381 . S
Ho120 O145 2.669 . S
Ho120 O147 2.346 . S
Ho120 O151 2.305 . S
Ho121 C132 2.811 . S
Ho121 O141 2.346 . S
Ho121 O145 2.305 . S
Ho121 O146 2.322 . S
Ho121 O148 2.378 . S
Ho121 O149 2.524 . S
Ho121 O150 2.381 . S
Ho121 O151 2.669 . S
C122 O140 1.259 . S
C122 O141 1.268 . S
C123 Ho120 2.811 . S
C123 C124 1.488 . S
C123 O142 1.215 . S
C123 O143 1.289 . S
C124 C123 1.488 . S
C124 C125 1.348 . S
C124 C129 1.413 . S
C125 C124 1.348 . S
C125 C126 1.442 . S
C125 H152 0.930 . S
C126 C125 1.442 . S
C126 C127 1.381 . S
C126 H153 0.931 . S
C127 C126 1.381 . S
C127 C128 1.321 . S
C128 C127 1.321 . S
C128 C129 1.403 . S
C128 H154 0.934 . S
C129 C124 1.413 . S
C129 C128 1.403 . S
C129 H155 0.930 . S
C130 O144 1.275 . S
C130 O145 1.256 . S
C131 O146 1.259 . S
C131 O147 1.268 . S
C132 Ho121 2.811 . S
C132 C133 1.488 . S
C132 O148 1.215 . S
C132 O149 1.289 . S
C133 C132 1.488 . S
C133 C134 1.348 . S
C133 C138 1.413 . S
C134 C133 1.348 . S
C134 C135 1.442 . S
C134 H156 0.930 . S
C135 C134 1.442 . S
C135 C136 1.381 . S
C135 H157 0.931 . S
C136 C135 1.381 . S
C136 C137 1.321 . S
C137 C136 1.321 . S
C137 C138 1.403 . S
C137 H158 0.934 . S
C138 C133 1.413 . S
C138 C137 1.403 . S
C138 H159 0.930 . S
C139 O150 1.275 . S
C139 O151 1.256 . S
O140 Ho120 2.322 . S
O140 C122 1.259 . S
O141 Ho121 2.346 . S
O141 C122 1.268 . S
O142 Ho120 2.378 . S
O142 C123 1.215 . S
O143 Ho120 2.524 . S
O143 C123 1.289 . S
O144 Ho120 2.381 . S
O144 C130 1.275 . S
O145 Ho120 2.669 . S
O145 Ho121 2.305 . S
O145 C130 1.256 . S
O146 Ho121 2.322 . S
O146 C131 1.259 . S
O147 Ho120 2.346 . S
O147 C131 1.268 . S
O148 Ho121 2.378 . S
O148 C132 1.215 . S
O149 Ho121 2.524 . S
O149 C132 1.289 . S
O150 Ho121 2.381 . S
O150 C139 1.275 . S
O151 Ho120 2.305 . S
O151 Ho121 2.669 . S
O151 C139 1.256 . S
H152 C125 0.930 . S
H153 C126 0.931 . S
H154 C128 0.934 . S
H155 C129 0.930 . S
H156 C134 0.930 . S
H157 C135 0.931 . S
H158 C137 0.934 . S
H159 C138 0.930 . S
Ho160 C163 2.811 . S
Ho160 O180 2.322 1_455 S
Ho160 O182 2.378 . S
Ho160 O183 2.524 . S
Ho160 O184 2.381 1_455 S
Ho160 O185 2.669 1_455 S
Ho160 O187 2.346 1_565 S
Ho160 O191 2.305 1_565 S
Ho161 C172 2.811 . S
Ho161 O181 2.346 1_545 S
Ho161 O185 2.305 1_545 S
Ho161 O186 2.322 1_655 S
Ho161 O188 2.378 . S
Ho161 O189 2.524 . S
Ho161 O190 2.381 1_655 S
Ho161 O191 2.669 1_655 S
C162 O180 1.259 . S
C162 O181 1.268 . S
C163 Ho160 2.811 . S
C163 C164 1.488 . S
C163 O182 1.215 . S
C163 O183 1.289 . S
C164 C163 1.488 . S
C164 C165 1.348 . S
C164 C169 1.413 . S
C165 C164 1.348 . S
C165 C166 1.442 . S
C165 H192 0.930 . S
C166 C165 1.442 . S
C166 C167 1.381 . S
C166 H193 0.931 . S
C167 C166 1.381 . S
C167 C168 1.321 . S
C168 C167 1.321 . S
C168 C169 1.403 . S
C168 H194 0.934 . S
C169 C164 1.413 . S
C169 C168 1.403 . S
C169 H195 0.930 . S
C170 O184 1.275 . S
C170 O185 1.256 . S
C171 O186 1.259 . S
C171 O187 1.268 . S
C172 Ho161 2.811 . S
C172 C173 1.488 . S
C172 O188 1.215 . S
C172 O189 1.289 . S
C173 C172 1.488 . S
C173 C174 1.348 . S
C173 C178 1.413 . S
C174 C173 1.348 . S
C174 C175 1.442 . S
C174 H196 0.930 . S
C175 C174 1.442 . S
C175 C176 1.381 . S
C175 H197 0.931 . S
C176 C175 1.381 . S
C176 C177 1.321 . S
C177 C176 1.321 . S
C177 C178 1.403 . S
C177 H198 0.934 . S
C178 C173 1.413 . S
C178 C177 1.403 . S
C178 H199 0.930 . S
C179 O190 1.275 . S
C179 O191 1.256 . S
O180 Ho160 2.322 1_655 S
O180 C162 1.259 . S
O181 Ho161 2.346 1_565 S
O181 C162 1.268 . S
O182 Ho160 2.378 . S
O182 C163 1.215 . S
O183 Ho160 2.524 . S
O183 C163 1.289 . S
O184 Ho160 2.381 1_655 S
O184 C170 1.275 . S
O185 Ho160 2.669 1_655 S
O185 Ho161 2.305 1_565 S
O185 C170 1.256 . S
O186 Ho161 2.322 1_455 S
O186 C171 1.259 . S
O187 Ho160 2.346 1_545 S
O187 C171 1.268 . S
O188 Ho161 2.378 . S
O188 C172 1.215 . S
O189 Ho161 2.524 . S
O189 C172 1.289 . S
O190 Ho161 2.381 1_455 S
O190 C179 1.275 . S
O191 Ho160 2.305 1_545 S
O191 Ho161 2.669 1_455 S
O191 C179 1.256 . S
H192 C165 0.930 . S
H193 C166 0.931 . S
H194 C168 0.934 . S
H195 C169 0.930 . S
H196 C174 0.930 . S
H197 C175 0.931 . S
H198 C177 0.934 . S
H199 C178 0.930 . S
Ho200 C203 2.811 . S
Ho200 O220 2.322 . S
Ho200 O222 2.378 . S
Ho200 O223 2.524 . S
Ho200 O224 2.381 . S
Ho200 O225 2.669 . S
Ho200 O227 2.346 . S
Ho200 O231 2.305 . S
Ho201 C212 2.811 . S
Ho201 O221 2.346 . S
Ho201 O225 2.305 . S
Ho201 O226 2.322 . S
Ho201 O228 2.378 . S
Ho201 O229 2.524 . S
Ho201 O230 2.381 . S
Ho201 O231 2.669 . S
C202 O220 1.259 . S
C202 O221 1.268 . S
C203 Ho200 2.811 . S
C203 C204 1.488 . S
C203 O222 1.215 . S
C203 O223 1.289 . S
C204 C203 1.488 . S
C204 C205 1.348 . S
C204 C209 1.413 . S
C205 C204 1.348 . S
C205 C206 1.442 . S
C205 H232 0.930 . S
C206 C205 1.442 . S
C206 C207 1.381 . S
C206 H233 0.931 . S
C207 C206 1.381 . S
C207 C208 1.321 . S
C208 C207 1.321 . S
C208 C209 1.403 . S
C208 H234 0.934 . S
C209 C204 1.413 . S
C209 C208 1.403 . S
C209 H235 0.930 . S
C210 O224 1.275 . S
C210 O225 1.256 . S
C211 O226 1.259 . S
C211 O227 1.268 . S
C212 Ho201 2.811 . S
C212 C213 1.488 . S
C212 O228 1.215 . S
C212 O229 1.289 . S
C213 C212 1.488 . S
C213 C214 1.348 . S
C213 C218 1.413 . S
C214 C213 1.348 . S
C214 C215 1.442 . S
C214 H236 0.930 . S
C215 C214 1.442 . S
C215 C216 1.381 . S
C215 H237 0.931 . S
C216 C215 1.381 . S
C216 C217 1.321 . S
C217 C216 1.321 . S
C217 C218 1.403 . S
C217 H238 0.934 . S
C218 C213 1.413 . S
C218 C217 1.403 . S
C218 H239 0.930 . S
C219 O230 1.275 . S
C219 O231 1.256 . S
O220 Ho200 2.322 . S
O220 C202 1.259 . S
O221 Ho201 2.346 . S
O221 C202 1.268 . S
O222 Ho200 2.378 . S
O222 C203 1.215 . S
O223 Ho200 2.524 . S
O223 C203 1.289 . S
O224 Ho200 2.381 . S
O224 C210 1.275 . S
O225 Ho200 2.669 . S
O225 Ho201 2.305 . S
O225 C210 1.256 . S
O226 Ho201 2.322 . S
O226 C211 1.259 . S
O227 Ho200 2.346 . S
O227 C211 1.268 . S
O228 Ho201 2.378 . S
O228 C212 1.215 . S
O229 Ho201 2.524 . S
O229 C212 1.289 . S
O230 Ho201 2.381 . S
O230 C219 1.275 . S
O231 Ho200 2.305 . S
O231 Ho201 2.669 . S
O231 C219 1.256 . S
H232 C205 0.930 . S
H233 C206 0.931 . S
H234 C208 0.934 . S
H235 C209 0.930 . S
H236 C214 0.930 . S
H237 C215 0.931 . S
H238 C217 0.934 . S
H239 C218 0.930 . S
Ho240 C243 2.811 1_554 S
Ho240 O260 2.322 1_564 S
Ho240 O262 2.378 . S
Ho240 O263 2.524 1_554 S
Ho240 O264 2.381 1_565 S
Ho240 O265 2.669 1_565 S
Ho240 O267 2.346 . S
Ho240 O271 2.305 1_554 S
Ho241 C252 2.811 1_556 S
Ho241 O261 2.346 . S
Ho241 O265 2.305 1_556 S
Ho241 O266 2.322 1_546 S
Ho241 O268 2.378 . S
Ho241 O269 2.524 1_556 S
Ho241 O270 2.381 1_545 S
Ho241 O271 2.669 1_545 S
C242 O260 1.259 . S
C242 O261 1.268 . S
C243 Ho240 2.811 1_556 S
C243 C244 1.488 . S
C243 O262 1.215 1_556 S
C243 O263 1.289 . S
C244 C243 1.488 . S
C244 C245 1.348 . S
C244 C249 1.413 . S
C245 C244 1.348 . S
C245 C246 1.442 . S
C245 H272 0.930 . S
C246 C245 1.442 . S
C246 C247 1.381 . S
C246 H273 0.931 . S
C247 C246 1.381 . S
C247 C248 1.321 . S
C248 C247 1.321 . S
C248 C249 1.403 . S
C248 H274 0.934 . S
C249 C244 1.413 . S
C249 C248 1.403 . S
C249 H275 0.930 1_556 S
C250 O264 1.275 . S
C250 O265 1.256 . S
C251 O266 1.259 . S
C251 O267 1.268 . S
C252 Ho241 2.811 1_554 S
C252 C253 1.488 . S
C252 O268 1.215 1_554 S
C252 O269 1.289 . S
C253 C252 1.488 . S
C253 C254 1.348 . S
C253 C258 1.413 . S
C254 C253 1.348 . S
C254 C255 1.442 . S
C254 H276 0.930 . S
C255 C254 1.442 . S
C255 C256 1.381 . S
C255 H277 0.931 . S
C256 C255 1.381 . S
C256 C257 1.321 . S
C257 C256 1.321 . S
C257 C258 1.403 . S
C257 H278 0.934 . S
C258 C253 1.413 . S
C258 C257 1.403 . S
C258 H279 0.930 1_554 S
C259 O270 1.275 . S
C259 O271 1.256 . S
O260 Ho240 2.322 1_546 S
O260 C242 1.259 . S
O261 Ho241 2.346 . S
O261 C242 1.268 . S
O262 Ho240 2.378 . S
O262 C243 1.215 1_554 S
O263 Ho240 2.524 1_556 S
O263 C243 1.289 . S
O264 Ho240 2.381 1_545 S
O264 C250 1.275 . S
O265 Ho240 2.669 1_545 S
O265 Ho241 2.305 1_554 S
O265 C250 1.256 . S
O266 Ho241 2.322 1_564 S
O266 C251 1.259 . S
O267 Ho240 2.346 . S
O267 C251 1.268 . S
O268 Ho241 2.378 . S
O268 C252 1.215 1_556 S
O269 Ho241 2.524 1_554 S
O269 C252 1.289 . S
O270 Ho241 2.381 1_565 S
O270 C259 1.275 . S
O271 Ho240 2.305 1_556 S
O271 Ho241 2.669 1_565 S
O271 C259 1.256 . S
H272 C245 0.930 . S
H273 C246 0.931 . S
H274 C248 0.934 . S
H275 C249 0.930 1_554 S
H276 C254 0.930 . S
H277 C255 0.931 . S
H278 C257 0.934 . S
H279 C258 0.930 1_556 S
Ho280 C283 2.811 . S
Ho280 O300 2.322 . S
Ho280 O302 2.378 . S
Ho280 O303 2.524 . S
Ho280 O304 2.381 . S
Ho280 O305 2.669 . S
Ho280 O307 2.346 . S
Ho280 O311 2.305 . S
Ho281 C292 2.811 . S
Ho281 O301 2.346 . S
Ho281 O305 2.305 . S
Ho281 O306 2.322 . S
Ho281 O308 2.378 . S
Ho281 O309 2.524 . S
Ho281 O310 2.381 . S
Ho281 O311 2.669 . S
C282 O300 1.259 . S
C282 O301 1.268 . S
C283 Ho280 2.811 . S
C283 C284 1.488 . S
C283 O302 1.215 . S
C283 O303 1.289 . S
C284 C283 1.488 . S
C284 C285 1.348 . S
C284 C289 1.413 . S
C285 C284 1.348 . S
C285 C286 1.442 . S
C285 H312 0.930 . S
C286 C285 1.442 . S
C286 C287 1.381 . S
C286 H313 0.931 . S
C287 C286 1.381 . S
C287 C288 1.321 . S
C288 C287 1.321 . S
C288 C289 1.403 . S
C288 H314 0.934 . S
C289 C284 1.413 . S
C289 C288 1.403 . S
C289 H315 0.930 . S
C290 O304 1.275 . S
C290 O305 1.256 . S
C291 O306 1.259 . S
C291 O307 1.268 . S
C292 Ho281 2.811 . S
C292 C293 1.488 . S
C292 O308 1.215 . S
C292 O309 1.289 . S
C293 C292 1.488 . S
C293 C294 1.348 . S
C293 C298 1.413 . S
C294 C293 1.348 . S
C294 C295 1.442 . S
C294 H316 0.930 . S
C295 C294 1.442 . S
C295 C296 1.381 . S
C295 H317 0.931 . S
C296 C295 1.381 . S
C296 C297 1.321 . S
C297 C296 1.321 . S
C297 C298 1.403 . S
C297 H318 0.934 . S
C298 C293 1.413 . S
C298 C297 1.403 . S
C298 H319 0.930 . S
C299 O310 1.275 . S
C299 O311 1.256 . S
O300 Ho280 2.322 . S
O300 C282 1.259 . S
O301 Ho281 2.346 . S
O301 C282 1.268 . S
O302 Ho280 2.378 . S
O302 C283 1.215 . S
O303 Ho280 2.524 . S
O303 C283 1.289 . S
O304 Ho280 2.381 . S
O304 C290 1.275 . S
O305 Ho280 2.669 . S
O305 Ho281 2.305 . S
O305 C290 1.256 . S
O306 Ho281 2.322 . S
O306 C291 1.259 . S
O307 Ho280 2.346 . S
O307 C291 1.268 . S
O308 Ho281 2.378 . S
O308 C292 1.215 . S
O309 Ho281 2.524 . S
O309 C292 1.289 . S
O310 Ho281 2.381 . S
O310 C299 1.275 . S
O311 Ho280 2.305 . S
O311 Ho281 2.669 . S
O311 C299 1.256 . S
H312 C285 0.930 . S
H313 C286 0.931 . S
H314 C288 0.934 . S
H315 C289 0.930 . S
H316 C294 0.930 . S
H317 C295 0.931 . S
H318 C297 0.934 . S
H319 C298 0.930 . S
Ho320 C323 2.811 . S
Ho320 O340 2.322 . S
Ho320 O342 2.378 . S
Ho320 O343 2.524 . S
Ho320 O344 2.381 1_554 S
Ho320 O345 2.669 1_554 S
Ho320 O347 2.346 1_554 S
Ho320 O351 2.305 . S
Ho321 C332 2.811 . S
Ho321 O341 2.346 1_556 S
Ho321 O345 2.305 . S
Ho321 O346 2.322 . S
Ho321 O348 2.378 . S
Ho321 O349 2.524 . S
Ho321 O350 2.381 1_556 S
Ho321 O351 2.669 1_556 S
C322 O340 1.259 . S
C322 O341 1.268 . S
C323 Ho320 2.811 . S
C323 C324 1.488 . S
C323 O342 1.215 . S
C323 O343 1.289 . S
C324 C323 1.488 . S
C324 C325 1.348 . S
C324 C329 1.413 . S
C325 C324 1.348 . S
C325 C326 1.442 . S
C325 H352 0.930 . S
C326 C325 1.442 . S
C326 C327 1.381 . S
C326 H353 0.931 . S
C327 C326 1.381 . S
C327 C328 1.321 . S
C328 C327 1.321 . S
C328 C329 1.403 . S
C328 H354 0.934 . S
C329 C324 1.413 . S
C329 C328 1.403 . S
C329 H355 0.930 . S
C330 O344 1.275 . S
C330 O345 1.256 . S
C331 O346 1.259 . S
C331 O347 1.268 . S
C332 Ho321 2.811 . S
C332 C333 1.488 . S
C332 O348 1.215 . S
C332 O349 1.289 . S
C333 C332 1.488 . S
C333 C334 1.348 . S
C333 C338 1.413 . S
C334 C333 1.348 . S
C334 C335 1.442 . S
C334 H356 0.930 . S
C335 C334 1.442 . S
C335 C336 1.381 . S
C335 H357 0.931 . S
C336 C335 1.381 . S
C336 C337 1.321 . S
C337 C336 1.321 . S
C337 C338 1.403 . S
C337 H358 0.934 . S
C338 C333 1.413 . S
C338 C337 1.403 . S
C338 H359 0.930 . S
C339 O350 1.275 . S
C339 O351 1.256 . S
O340 Ho320 2.322 . S
O340 C322 1.259 . S
O341 Ho321 2.346 1_554 S
O341 C322 1.268 . S
O342 Ho320 2.378 . S
O342 C323 1.215 . S
O343 Ho320 2.524 . S
O343 C323 1.289 . S
O344 Ho320 2.381 1_556 S
O344 C330 1.275 . S
O345 Ho320 2.669 1_556 S
O345 Ho321 2.305 . S
O345 C330 1.256 . S
O346 Ho321 2.322 . S
O346 C331 1.259 . S
O347 Ho320 2.346 1_556 S
O347 C331 1.268 . S
O348 Ho321 2.378 . S
O348 C332 1.215 . S
O349 Ho321 2.524 . S
O349 C332 1.289 . S
O350 Ho321 2.381 1_554 S
O350 C339 1.275 . S
O351 Ho320 2.305 . S
O351 Ho321 2.669 1_554 S
O351 C339 1.256 . S
H352 C325 0.930 . S
H353 C326 0.931 . S
H354 C328 0.934 . S
H355 C329 0.930 . S
H356 C334 0.930 . S
H357 C335 0.931 . S
H358 C337 0.934 . S
H359 C338 0.930 . S
Ho360 C363 2.811 . S
Ho360 O380 2.322 . S
Ho360 O382 2.378 . S
Ho360 O383 2.524 . S
Ho360 O384 2.381 . S
Ho360 O385 2.669 . S
Ho360 O387 2.346 . S
Ho360 O391 2.305 . S
Ho361 C372 2.811 . S
Ho361 O381 2.346 . S
Ho361 O385 2.305 . S
Ho361 O386 2.322 . S
Ho361 O388 2.378 . S
Ho361 O389 2.524 . S
Ho361 O390 2.381 . S
Ho361 O391 2.669 . S
C362 O380 1.259 . S
C362 O381 1.268 . S
C363 Ho360 2.811 . S
C363 C364 1.488 . S
C363 O382 1.215 . S
C363 O383 1.289 . S
C364 C363 1.488 . S
C364 C365 1.348 . S
C364 C369 1.413 . S
C365 C364 1.348 . S
C365 C366 1.442 . S
C365 H392 0.930 . S
C366 C365 1.442 . S
C366 C367 1.381 . S
C366 H393 0.931 . S
C367 C366 1.381 . S
C367 C368 1.321 . S
C368 C367 1.321 . S
C368 C369 1.403 . S
C368 H394 0.934 . S
C369 C364 1.413 . S
C369 C368 1.403 . S
C369 H395 0.930 . S
C370 O384 1.275 . S
C370 O385 1.256 . S
C371 O386 1.259 . S
C371 O387 1.268 . S
C372 Ho361 2.811 . S
C372 C373 1.488 . S
C372 O388 1.215 . S
C372 O389 1.289 . S
C373 C372 1.488 . S
C373 C374 1.348 . S
C373 C378 1.413 . S
C374 C373 1.348 . S
C374 C375 1.442 . S
C374 H396 0.930 . S
C375 C374 1.442 . S
C375 C376 1.381 . S
C375 H397 0.931 . S
C376 C375 1.381 . S
C376 C377 1.321 . S
C377 C376 1.321 . S
C377 C378 1.403 . S
C377 H398 0.934 . S
C378 C373 1.413 . S
C378 C377 1.403 . S
C378 H399 0.930 . S
C379 O390 1.275 . S
C379 O391 1.256 . S
O380 Ho360 2.322 . S
O380 C362 1.259 . S
O381 Ho361 2.346 . S
O381 C362 1.268 . S
O382 Ho360 2.378 . S
O382 C363 1.215 . S
O383 Ho360 2.524 . S
O383 C363 1.289 . S
O384 Ho360 2.381 . S
O384 C370 1.275 . S
O385 Ho360 2.669 . S
O385 Ho361 2.305 . S
O385 C370 1.256 . S
O386 Ho361 2.322 . S
O386 C371 1.259 . S
O387 Ho360 2.346 . S
O387 C371 1.268 . S
O388 Ho361 2.378 . S
O388 C372 1.215 . S
O389 Ho361 2.524 . S
O389 C372 1.289 . S
O390 Ho361 2.381 . S
O390 C379 1.275 . S
O391 Ho360 2.305 . S
O391 Ho361 2.669 . S
O391 C379 1.256 . S
H392 C365 0.930 . S
H393 C366 0.931 . S
H394 C368 0.934 . S
H395 C369 0.930 . S
H396 C374 0.930 . S
H397 C375 0.931 . S
H398 C377 0.934 . S
H399 C378 0.930 . S
Ho400 C403 2.811 . S
Ho400 O420 2.322 . S
Ho400 O422 2.378 . S
Ho400 O423 2.524 . S
Ho400 O424 2.381 . S
Ho400 O425 2.669 . S
Ho400 O427 2.346 1_455 S
Ho400 O431 2.305 1_455 S
Ho401 C412 2.811 . S
Ho401 O421 2.346 1_655 S
Ho401 O425 2.305 1_655 S
Ho401 O426 2.322 . S
Ho401 O428 2.378 . S
Ho401 O429 2.524 . S
Ho401 O430 2.381 . S
Ho401 O431 2.669 . S
C402 O420 1.259 . S
C402 O421 1.268 . S
C403 Ho400 2.811 . S
C403 C404 1.488 . S
C403 O422 1.215 . S
C403 O423 1.289 . S
C404 C403 1.488 . S
C404 C405 1.348 . S
C404 C409 1.413 . S
C405 C404 1.348 . S
C405 C406 1.442 . S
C405 H432 0.930 . S
C406 C405 1.442 . S
C406 C407 1.381 . S
C406 H433 0.931 . S
C407 C406 1.381 . S
C407 C408 1.321 . S
C408 C407 1.321 . S
C408 C409 1.403 . S
C408 H434 0.934 . S
C409 C404 1.413 . S
C409 C408 1.403 . S
C409 H435 0.930 . S
C410 O424 1.275 . S
C410 O425 1.256 . S
C411 O426 1.259 . S
C411 O427 1.268 . S
C412 Ho401 2.811 . S
C412 C413 1.488 . S
C412 O428 1.215 . S
C412 O429 1.289 . S
C413 C412 1.488 . S
C413 C414 1.348 . S
C413 C418 1.413 . S
C414 C413 1.348 . S
C414 C415 1.442 . S
C414 H436 0.930 . S
C415 C414 1.442 . S
C415 C416 1.381 . S
C415 H437 0.931 . S
C416 C415 1.381 . S
C416 C417 1.321 . S
C417 C416 1.321 . S
C417 C418 1.403 . S
C417 H438 0.934 . S
C418 C413 1.413 . S
C418 C417 1.403 . S
C418 H439 0.930 . S
C419 O430 1.275 . S
C419 O431 1.256 . S
O420 Ho400 2.322 . S
O420 C402 1.259 . S
O421 Ho401 2.346 1_455 S
O421 C402 1.268 . S
O422 Ho400 2.378 . S
O422 C403 1.215 . S
O423 Ho400 2.524 . S
O423 C403 1.289 . S
O424 Ho400 2.381 . S
O424 C410 1.275 . S
O425 Ho400 2.669 . S
O425 Ho401 2.305 1_455 S
O425 C410 1.256 . S
O426 Ho401 2.322 . S
O426 C411 1.259 . S
O427 Ho400 2.346 1_655 S
O427 C411 1.268 . S
O428 Ho401 2.378 . S
O428 C412 1.215 . S
O429 Ho401 2.524 . S
O429 C412 1.289 . S
O430 Ho401 2.381 . S
O430 C419 1.275 . S
O431 Ho400 2.305 1_655 S
O431 Ho401 2.669 . S
O431 C419 1.256 . S
H432 C405 0.930 . S
H433 C406 0.931 . S
H434 C408 0.934 . S
H435 C409 0.930 . S
H436 C414 0.930 . S
H437 C415 0.931 . S
H438 C417 0.934 . S
H439 C418 0.930 . S
Ho440 C443 2.811 . S
Ho440 O460 2.322 . S
Ho440 O462 2.378 . S
Ho440 O463 2.524 . S
Ho440 O464 2.381 . S
Ho440 O465 2.669 . S
Ho440 O467 2.346 . S
Ho440 O471 2.305 . S
Ho441 C452 2.811 . S
Ho441 O461 2.346 . S
Ho441 O465 2.305 . S
Ho441 O466 2.322 . S
Ho441 O468 2.378 . S
Ho441 O469 2.524 . S
Ho441 O470 2.381 . S
Ho441 O471 2.669 . S
C442 O460 1.259 . S
C442 O461 1.268 . S
C443 Ho440 2.811 . S
C443 C444 1.488 . S
C443 O462 1.215 . S
C443 O463 1.289 . S
C444 C443 1.488 . S
C444 C445 1.348 . S
C444 C449 1.413 . S
C445 C444 1.348 . S
C445 C446 1.442 . S
C445 H472 0.930 . S
C446 C445 1.442 . S
C446 C447 1.381 . S
C446 H473 0.931 . S
C447 C446 1.381 . S
C447 C448 1.321 . S
C448 C447 1.321 . S
C448 C449 1.403 . S
C448 H474 0.934 . S
C449 C444 1.413 . S
C449 C448 1.403 . S
C449 H475 0.930 . S
C450 O464 1.275 . S
C450 O465 1.256 . S
C451 O466 1.259 . S
C451 O467 1.268 . S
C452 Ho441 2.811 . S
C452 C453 1.488 . S
C452 O468 1.215 . S
C452 O469 1.289 . S
C453 C452 1.488 . S
C453 C454 1.348 . S
C453 C458 1.413 . S
C454 C453 1.348 . S
C454 C455 1.442 . S
C454 H476 0.930 . S
C455 C454 1.442 . S
C455 C456 1.381 . S
C455 H477 0.931 . S
C456 C455 1.381 . S
C456 C457 1.321 . S
C457 C456 1.321 . S
C457 C458 1.403 . S
C457 H478 0.934 . S
C458 C453 1.413 . S
C458 C457 1.403 . S
C458 H479 0.930 . S
C459 O470 1.275 . S
C459 O471 1.256 . S
O460 Ho440 2.322 . S
O460 C442 1.259 . S
O461 Ho441 2.346 . S
O461 C442 1.268 . S
O462 Ho440 2.378 . S
O462 C443 1.215 . S
O463 Ho440 2.524 . S
O463 C443 1.289 . S
O464 Ho440 2.381 . S
O464 C450 1.275 . S
O465 Ho440 2.669 . S
O465 Ho441 2.305 . S
O465 C450 1.256 . S
O466 Ho441 2.322 . S
O466 C451 1.259 . S
O467 Ho440 2.346 . S
O467 C451 1.268 . S
O468 Ho441 2.378 . S
O468 C452 1.215 . S
O469 Ho441 2.524 . S
O469 C452 1.289 . S
O470 Ho441 2.381 . S
O470 C459 1.275 . S
O471 Ho440 2.305 . S
O471 Ho441 2.669 . S
O471 C459 1.256 . S
H472 C445 0.930 . S
H473 C446 0.931 . S
H474 C448 0.934 . S
H475 C449 0.930 . S
H476 C454 0.930 . S
H477 C455 0.931 . S
H478 C457 0.934 . S
H479 C458 0.930 . S
Ho480 C483 2.811 . S
Ho480 O500 2.322 . S
Ho480 O502 2.378 . S
Ho480 O503 2.524 . S
Ho480 O504 2.381 . S
Ho480 O505 2.669 . S
Ho480 O507 2.346 . S
Ho480 O511 2.305 . S
Ho481 C492 2.811 . S
Ho481 O501 2.346 . S
Ho481 O505 2.305 . S
Ho481 O506 2.322 . S
Ho481 O508 2.378 . S
Ho481 O509 2.524 . S
Ho481 O510 2.381 . S
Ho481 O511 2.669 . S
C482 O500 1.259 . S
C482 O501 1.268 . S
C483 Ho480 2.811 . S
C483 C484 1.488 . S
C483 O502 1.215 . S
C483 O503 1.289 . S
C484 C483 1.488 . S
C484 C485 1.348 . S
C484 C489 1.413 . S
C485 C484 1.348 . S
C485 C486 1.442 . S
C485 H512 0.930 . S
C486 C485 1.442 . S
C486 C487 1.381 . S
C486 H513 0.931 . S
C487 C486 1.381 . S
C487 C488 1.321 . S
C488 C487 1.321 . S
C488 C489 1.403 . S
C488 H514 0.934 . S
C489 C484 1.413 . S
C489 C488 1.403 . S
C489 H515 0.930 . S
C490 O504 1.275 . S
C490 O505 1.256 . S
C491 O506 1.259 . S
C491 O507 1.268 . S
C492 Ho481 2.811 . S
C492 C493 1.488 . S
C492 O508 1.215 . S
C492 O509 1.289 . S
C493 C492 1.488 . S
C493 C494 1.348 . S
C493 C498 1.413 . S
C494 C493 1.348 . S
C494 C495 1.442 . S
C494 H516 0.930 . S
C495 C494 1.442 . S
C495 C496 1.381 . S
C495 H517 0.931 . S
C496 C495 1.381 . S
C496 C497 1.321 . S
C497 C496 1.321 . S
C497 C498 1.403 . S
C497 H518 0.934 . S
C498 C493 1.413 . S
C498 C497 1.403 . S
C498 H519 0.930 . S
C499 O510 1.275 . S
C499 O511 1.256 . S
O500 Ho480 2.322 . S
O500 C482 1.259 . S
O501 Ho481 2.346 . S
O501 C482 1.268 . S
O502 Ho480 2.378 . S
O502 C483 1.215 . S
O503 Ho480 2.524 . S
O503 C483 1.289 . S
O504 Ho480 2.381 . S
O504 C490 1.275 . S
O505 Ho480 2.669 . S
O505 Ho481 2.305 . S
O505 C490 1.256 . S
O506 Ho481 2.322 . S
O506 C491 1.259 . S
O507 Ho480 2.346 . S
O507 C491 1.268 . S
O508 Ho481 2.378 . S
O508 C492 1.215 . S
O509 Ho481 2.524 . S
O509 C492 1.289 . S
O510 Ho481 2.381 . S
O510 C499 1.275 . S
O511 Ho480 2.305 . S
O511 Ho481 2.669 . S
O511 C499 1.256 . S
H512 C485 0.930 . S
H513 C486 0.931 . S
H514 C488 0.934 . S
H515 C489 0.930 . S
H516 C494 0.930 . S
H517 C495 0.931 . S
H518 C497 0.934 . S
H519 C498 0.930 . S
Ho520 C523 2.811 . S
Ho520 O540 2.322 . S
Ho520 O542 2.378 . S
Ho520 O543 2.524 . S
Ho520 O544 2.381 . S
Ho520 O545 2.669 . S
Ho520 O547 2.346 . S
Ho520 O551 2.305 . S
Ho521 C532 2.811 . S
Ho521 O541 2.346 . S
Ho521 O545 2.305 . S
Ho521 O546 2.322 . S
Ho521 O548 2.378 . S
Ho521 O549 2.524 . S
Ho521 O550 2.381 . S
Ho521 O551 2.669 . S
C522 O540 1.259 . S
C522 O541 1.268 . S
C523 Ho520 2.811 . S
C523 C524 1.488 . S
C523 O542 1.215 . S
C523 O543 1.289 . S
C524 C523 1.488 . S
C524 C525 1.348 . S
C524 C529 1.413 . S
C525 C524 1.348 . S
C525 C526 1.442 . S
C525 H552 0.930 . S
C526 C525 1.442 . S
C526 C527 1.381 . S
C526 H553 0.931 . S
C527 C526 1.381 . S
C527 C528 1.321 . S
C528 C527 1.321 . S
C528 C529 1.403 . S
C528 H554 0.934 . S
C529 C524 1.413 . S
C529 C528 1.403 . S
C529 H555 0.930 . S
C530 O544 1.275 . S
C530 O545 1.256 . S
C531 O546 1.259 . S
C531 O547 1.268 . S
C532 Ho521 2.811 . S
C532 C533 1.488 . S
C532 O548 1.215 . S
C532 O549 1.289 . S
C533 C532 1.488 . S
C533 C534 1.348 . S
C533 C538 1.413 . S
C534 C533 1.348 . S
C534 C535 1.442 . S
C534 H556 0.930 . S
C535 C534 1.442 . S
C535 C536 1.381 . S
C535 H557 0.931 . S
C536 C535 1.381 . S
C536 C537 1.321 . S
C537 C536 1.321 . S
C537 C538 1.403 . S
C537 H558 0.934 . S
C538 C533 1.413 . S
C538 C537 1.403 . S
C538 H559 0.930 . S
C539 O550 1.275 . S
C539 O551 1.256 . S
O540 Ho520 2.322 . S
O540 C522 1.259 . S
O541 Ho521 2.346 . S
O541 C522 1.268 . S
O542 Ho520 2.378 . S
O542 C523 1.215 . S
O543 Ho520 2.524 . S
O543 C523 1.289 . S
O544 Ho520 2.381 . S
O544 C530 1.275 . S
O545 Ho520 2.669 . S
O545 Ho521 2.305 . S
O545 C530 1.256 . S
O546 Ho521 2.322 . S
O546 C531 1.259 . S
O547 Ho520 2.346 . S
O547 C531 1.268 . S
O548 Ho521 2.378 . S
O548 C532 1.215 . S
O549 Ho521 2.524 . S
O549 C532 1.289 . S
O550 Ho521 2.381 . S
O550 C539 1.275 . S
O551 Ho520 2.305 . S
O551 Ho521 2.669 . S
O551 C539 1.256 . S
H552 C525 0.930 . S
H553 C526 0.931 . S
H554 C528 0.934 . S
H555 C529 0.930 . S
H556 C534 0.930 . S
H557 C535 0.931 . S
H558 C537 0.934 . S
H559 C538 0.930 . S
Ho560 C563 2.811 . S
Ho560 O580 2.322 . S
Ho560 O582 2.378 . S
Ho560 O583 2.524 . S
Ho560 O584 2.381 . S
Ho560 O585 2.669 . S
Ho560 O587 2.346 . S
Ho560 O591 2.305 . S
Ho561 C572 2.811 . S
Ho561 O581 2.346 . S
Ho561 O585 2.305 . S
Ho561 O586 2.322 . S
Ho561 O588 2.378 . S
Ho561 O589 2.524 . S
Ho561 O590 2.381 . S
Ho561 O591 2.669 . S
C562 O580 1.259 . S
C562 O581 1.268 . S
C563 Ho560 2.811 . S
C563 C564 1.488 . S
C563 O582 1.215 . S
C563 O583 1.289 . S
C564 C563 1.488 . S
C564 C565 1.348 . S
C564 C569 1.413 . S
C565 C564 1.348 . S
C565 C566 1.442 . S
C565 H592 0.930 . S
C566 C565 1.442 . S
C566 C567 1.381 . S
C566 H593 0.931 . S
C567 C566 1.381 . S
C567 C568 1.321 . S
C568 C567 1.321 . S
C568 C569 1.403 . S
C568 H594 0.934 . S
C569 C564 1.413 . S
C569 C568 1.403 . S
C569 H595 0.930 . S
C570 O584 1.275 . S
C570 O585 1.256 . S
C571 O586 1.259 . S
C571 O587 1.268 . S
C572 Ho561 2.811 . S
C572 C573 1.488 . S
C572 O588 1.215 . S
C572 O589 1.289 . S
C573 C572 1.488 . S
C573 C574 1.348 . S
C573 C578 1.413 . S
C574 C573 1.348 . S
C574 C575 1.442 . S
C574 H596 0.930 . S
C575 C574 1.442 . S
C575 C576 1.381 . S
C575 H597 0.931 . S
C576 C575 1.381 . S
C576 C577 1.321 . S
C577 C576 1.321 . S
C577 C578 1.403 . S
C577 H598 0.934 . S
C578 C573 1.413 . S
C578 C577 1.403 . S
C578 H599 0.930 . S
C579 O590 1.275 . S
C579 O591 1.256 . S
O580 Ho560 2.322 . S
O580 C562 1.259 . S
O581 Ho561 2.346 . S
O581 C562 1.268 . S
O582 Ho560 2.378 . S
O582 C563 1.215 . S
O583 Ho560 2.524 . S
O583 C563 1.289 . S
O584 Ho560 2.381 . S
O584 C570 1.275 . S
O585 Ho560 2.669 . S
O585 Ho561 2.305 . S
O585 C570 1.256 . S
O586 Ho561 2.322 . S
O586 C571 1.259 . S
O587 Ho560 2.346 . S
O587 C571 1.268 . S
O588 Ho561 2.378 . S
O588 C572 1.215 . S
O589 Ho561 2.524 . S
O589 C572 1.289 . S
O590 Ho561 2.381 . S
O590 C579 1.275 . S
O591 Ho560 2.305 . S
O591 Ho561 2.669 . S
O591 C579 1.256 . S
H592 C565 0.930 . S
H593 C566 0.931 . S
H594 C568 0.934 . S
H595 C569 0.930 . S
H596 C574 0.930 . S
H597 C575 0.931 . S
H598 C577 0.934 . S
H599 C578 0.930 . S
Ho600 C603 2.811 . S
Ho600 O620 2.322 1_554 S
Ho600 O622 2.378 . S
Ho600 O623 2.524 . S
Ho600 O624 2.381 1_554 S
Ho600 O625 2.669 1_554 S
Ho600 O627 2.346 1_655 S
Ho600 O631 2.305 1_655 S
Ho601 C612 2.811 . S
Ho601 O621 2.346 1_455 S
Ho601 O625 2.305 1_455 S
Ho601 O626 2.322 1_556 S
Ho601 O628 2.378 . S
Ho601 O629 2.524 . S
Ho601 O630 2.381 1_556 S
Ho601 O631 2.669 1_556 S
C602 O620 1.259 . S
C602 O621 1.268 . S
C603 Ho600 2.811 . S
C603 C604 1.488 . S
C603 O622 1.215 . S
C603 O623 1.289 . S
C604 C603 1.488 . S
C604 C605 1.348 . S
C604 C609 1.413 . S
C605 C604 1.348 . S
C605 C606 1.442 . S
C605 H632 0.930 . S
C606 C605 1.442 . S
C606 C607 1.381 . S
C606 H633 0.931 . S
C607 C606 1.381 . S
C607 C608 1.321 . S
C608 C607 1.321 . S
C608 C609 1.403 . S
C608 H634 0.934 . S
C609 C604 1.413 . S
C609 C608 1.403 . S
C609 H635 0.930 . S
C610 O624 1.275 . S
C610 O625 1.256 . S
C611 O626 1.259 . S
C611 O627 1.268 . S
C612 Ho601 2.811 . S
C612 C613 1.488 . S
C612 O628 1.215 . S
C612 O629 1.289 . S
C613 C612 1.488 . S
C613 C614 1.348 . S
C613 C618 1.413 . S
C614 C613 1.348 . S
C614 C615 1.442 . S
C614 H636 0.930 . S
C615 C614 1.442 . S
C615 C616 1.381 . S
C615 H637 0.931 . S
C616 C615 1.381 . S
C616 C617 1.321 . S
C617 C616 1.321 . S
C617 C618 1.403 . S
C617 H638 0.934 . S
C618 C613 1.413 . S
C618 C617 1.403 . S
C618 H639 0.930 . S
C619 O630 1.275 . S
C619 O631 1.256 . S
O620 Ho600 2.322 1_556 S
O620 C602 1.259 . S
O621 Ho601 2.346 1_655 S
O621 C602 1.268 . S
O622 Ho600 2.378 . S
O622 C603 1.215 . S
O623 Ho600 2.524 . S
O623 C603 1.289 . S
O624 Ho600 2.381 1_556 S
O624 C610 1.275 . S
O625 Ho600 2.669 1_556 S
O625 Ho601 2.305 1_655 S
O625 C610 1.256 . S
O626 Ho601 2.322 1_554 S
O626 C611 1.259 . S
O627 Ho600 2.346 1_455 S
O627 C611 1.268 . S
O628 Ho601 2.378 . S
O628 C612 1.215 . S
O629 Ho601 2.524 . S
O629 C612 1.289 . S
O630 Ho601 2.381 1_554 S
O630 C619 1.275 . S
O631 Ho600 2.305 1_455 S
O631 Ho601 2.669 1_554 S
O631 C619 1.256 . S
H632 C605 0.930 . S
H633 C606 0.931 . S
H634 C608 0.934 . S
H635 C609 0.930 . S
H636 C614 0.930 . S
H637 C615 0.931 . S
H638 C617 0.934 . S
H639 C618 0.930 . S
C640 C641 1.349 . S
C640 C642 1.327 . S
C640 H665 0.950 . S
C641 C640 1.349 . S
C641 C657 1.349 . S
C642 C640 1.327 . S
C642 C661 1.429 . S
C642 H666 0.950 . S
C643 C660 1.574 . S
C643 C662 1.368 . S
C643 H667 0.949 . S
H644 C648 0.949 . S
C645 C646 1.349 . S
C645 C647 1.327 . S
C645 H668 0.950 . S
C646 C645 1.349 . S
C646 C658 1.349 . S
C647 C645 1.327 . S
C647 C663 1.429 . S
C647 H669 0.950 . S
C648 H644 0.949 . S
C648 C656 1.574 . S
C648 C664 1.368 . S
H649 C657 0.950 . S
H650 C655 0.950 . S
H651 C656 0.949 . S
H652 C658 0.950 . S
H653 C659 0.950 . S
H654 C660 0.949 . S
C655 H650 0.950 . S
C655 C657 1.327 . S
C655 C661 1.429 . S
C656 C648 1.574 . S
C656 H651 0.949 . S
C656 C662 1.368 . S
C657 C641 1.349 . S
C657 H649 0.950 . S
C657 C655 1.327 . S
C658 C646 1.349 . S
C658 H652 0.950 . S
C658 C659 1.327 . S
C659 H653 0.950 . S
C659 C658 1.327 . S
C659 C663 1.429 . S
C660 C643 1.574 . S
C660 H654 0.949 . S
C660 C664 1.368 . S
C661 C642 1.429 . S
C661 C655 1.429 . S
C661 C662 1.523 . S
C662 C643 1.368 . S
C662 C656 1.368 . S
C662 C661 1.523 . S
C663 C647 1.429 . S
C663 C659 1.429 . S
C663 C664 1.523 . S
C664 C648 1.368 . S
C664 C660 1.368 . S
C664 C663 1.523 . S
H665 C640 0.950 . S
H666 C642 0.950 . S
H667 C643 0.949 . S
H668 C645 0.950 . S
H669 C647 0.950 . S
C670 C671 1.349 . S
C670 C672 1.327 . S
C670 H695 0.950 . S
C671 C670 1.349 . S
C671 C687 1.349 . S
C672 C670 1.327 . S
C672 C691 1.429 . S
C672 H696 0.950 . S
C673 C690 1.574 . S
C673 C692 1.368 . S
C673 H697 0.949 . S
H674 C678 0.949 . S
C675 C676 1.349 . S
C675 C677 1.327 . S
C675 H698 0.950 . S
C676 C675 1.349 . S
C676 C688 1.349 . S
C677 C675 1.327 . S
C677 C693 1.429 . S
C677 H699 0.950 . S
C678 H674 0.949 . S
C678 C686 1.574 . S
C678 C694 1.368 . S
H679 C687 0.950 1_556 S
H680 C685 0.950 . S
H681 C686 0.949 . S
H682 C688 0.950 . S
H683 C689 0.950 . S
H684 C690 0.949 . S
C685 H680 0.950 . S
C685 C687 1.327 . S
C685 C691 1.429 . S
C686 C678 1.574 . S
C686 H681 0.949 . S
C686 C692 1.368 . S
C687 C671 1.349 . S
C687 H679 0.950 1_554 S
C687 C685 1.327 . S
C688 C676 1.349 . S
C688 H682 0.950 . S
C688 C689 1.327 . S
C689 H683 0.950 . S
C689 C688 1.327 . S
C689 C693 1.429 . S
C690 C673 1.574 . S
C690 H684 0.949 . S
C690 C694 1.368 . S
C691 C672 1.429 . S
C691 C685 1.429 . S
C691 C692 1.523 . S
C692 C673 1.368 . S
C692 C686 1.368 . S
C692 C691 1.523 . S
C693 C677 1.429 . S
C693 C689 1.429 . S
C693 C694 1.523 . S
C694 C678 1.368 . S
C694 C690 1.368 . S
C694 C693 1.523 . S
H695 C670 0.950 . S
H696 C672 0.950 . S
H697 C673 0.949 . S
H698 C675 0.950 . S
H699 C677 0.950 . S
C700 C701 1.349 . S
C700 C702 1.327 . S
C700 H725 0.950 . S
C701 C700 1.349 . S
C701 C717 1.349 . S
C702 C700 1.327 . S
C702 C721 1.429 . S
C702 H726 0.950 . S
C703 C720 1.574 . S
C703 C722 1.368 . S
C703 H727 0.949 . S
H704 C708 0.949 . S
C705 C706 1.349 . S
C705 C707 1.327 . S
C705 H728 0.950 . S
C706 C705 1.349 . S
C706 C718 1.349 . S
C707 C705 1.327 . S
C707 C723 1.429 . S
C707 H729 0.950 . S
C708 H704 0.949 . S
C708 C716 1.574 . S
C708 C724 1.368 . S
H709 C717 0.950 . S
H710 C715 0.950 . S
H711 C716 0.949 . S
H712 C718 0.950 . S
H713 C719 0.950 . S
H714 C720 0.949 . S
C715 H710 0.950 . S
C715 C717 1.327 . S
C715 C721 1.429 . S
C716 C708 1.574 . S
C716 H711 0.949 . S
C716 C722 1.368 . S
C717 C701 1.349 . S
C717 H709 0.950 . S
C717 C715 1.327 . S
C718 C706 1.349 . S
C718 H712 0.950 . S
C718 C719 1.327 . S
C719 H713 0.950 . S
C719 C718 1.327 . S
C719 C723 1.429 . S
C720 C703 1.574 . S
C720 H714 0.949 . S
C720 C724 1.368 . S
C721 C702 1.429 . S
C721 C715 1.429 . S
C721 C722 1.523 . S
C722 C703 1.368 . S
C722 C716 1.368 . S
C722 C721 1.523 . S
C723 C707 1.429 . S
C723 C719 1.429 . S
C723 C724 1.523 . S
C724 C708 1.368 . S
C724 C720 1.368 . S
C724 C723 1.523 . S
H725 C700 0.950 . S
H726 C702 0.950 . S
H727 C703 0.949 . S
H728 C705 0.950 . S
H729 C707 0.950 . S
C730 C731 1.349 . S
C730 C732 1.327 . S
C730 H755 0.950 . S
C731 C730 1.349 . S
C731 C747 1.349 . S
C732 C730 1.327 . S
C732 C751 1.429 . S
C732 H756 0.950 . S
C733 C750 1.574 . S
C733 C752 1.368 . S
C733 H757 0.949 . S
H734 C738 0.949 . S
C735 C736 1.349 . S
C735 C737 1.327 . S
C735 H758 0.950 . S
C736 C735 1.349 . S
C736 C748 1.349 . S
C737 C735 1.327 . S
C737 C753 1.429 . S
C737 H759 0.950 . S
C738 H734 0.949 . S
C738 C746 1.574 . S
C738 C754 1.368 . S
H739 C747 0.950 . S
H740 C745 0.950 . S
H741 C746 0.949 . S
H742 C748 0.950 . S
H743 C749 0.950 . S
H744 C750 0.949 . S
C745 H740 0.950 . S
C745 C747 1.327 . S
C745 C751 1.429 . S
C746 C738 1.574 . S
C746 H741 0.949 . S
C746 C752 1.368 . S
C747 C731 1.349 . S
C747 H739 0.950 . S
C747 C745 1.327 . S
C748 C736 1.349 . S
C748 H742 0.950 . S
C748 C749 1.327 . S
C749 H743 0.950 . S
C749 C748 1.327 . S
C749 C753 1.429 . S
C750 C733 1.574 . S
C750 H744 0.949 . S
C750 C754 1.368 . S
C751 C732 1.429 . S
C751 C745 1.429 . S
C751 C752 1.523 . S
C752 C733 1.368 . S
C752 C746 1.368 . S
C752 C751 1.523 . S
C753 C737 1.429 . S
C753 C749 1.429 . S
C753 C754 1.523 . S
C754 C738 1.368 . S
C754 C750 1.368 . S
C754 C753 1.523 . S
H755 C730 0.950 . S
H756 C732 0.950 . S
H757 C733 0.949 . S
H758 C735 0.950 . S
H759 C737 0.950 . S
C760 C761 1.349 . S
C760 C762 1.327 . S
C760 H785 0.950 . S
C761 C760 1.349 . S
C761 C777 1.349 . S
C762 C760 1.327 . S
C762 C781 1.429 . S
C762 H786 0.950 . S
C763 C780 1.574 . S
C763 C782 1.368 . S
C763 H787 0.949 . S
H764 C768 0.949 . S
C765 C766 1.349 . S
C765 C767 1.327 . S
C765 H788 0.950 . S
C766 C765 1.349 . S
C766 C778 1.349 . S
C767 C765 1.327 . S
C767 C783 1.429 . S
C767 H789 0.950 . S
C768 H764 0.949 . S
C768 C776 1.574 . S
C768 C784 1.368 . S
H769 C777 0.950 . S
H770 C775 0.950 . S
H771 C776 0.949 . S
H772 C778 0.950 . S
H773 C779 0.950 . S
H774 C780 0.949 . S
C775 H770 0.950 . S
C775 C777 1.327 . S
C775 C781 1.429 . S
C776 C768 1.574 . S
C776 H771 0.949 . S
C776 C782 1.368 . S
C777 C761 1.349 . S
C777 H769 0.950 . S
C777 C775 1.327 . S
C778 C766 1.349 . S
C778 H772 0.950 . S
C778 C779 1.327 . S
C779 H773 0.950 . S
C779 C778 1.327 . S
C779 C783 1.429 . S
C780 C763 1.574 . S
C780 H774 0.949 . S
C780 C784 1.368 . S
C781 C762 1.429 . S
C781 C775 1.429 . S
C781 C782 1.523 . S
C782 C763 1.368 . S
C782 C776 1.368 . S
C782 C781 1.523 . S
C783 C767 1.429 . S
C783 C779 1.429 . S
C783 C784 1.523 . S
C784 C768 1.368 . S
C784 C780 1.368 . S
C784 C783 1.523 . S
H785 C760 0.950 . S
H786 C762 0.950 . S
H787 C763 0.949 . S
H788 C765 0.950 . S
H789 C767 0.950 . S
C790 C791 1.349 . S
C790 C792 1.327 . S
C790 H815 0.950 . S
C791 C790 1.349 . S
C791 C807 1.349 . S
C792 C790 1.327 . S
C792 C811 1.429 . S
C792 H816 0.950 . S
C793 C810 1.574 . S
C793 C812 1.368 . S
C793 H817 0.949 . S
H794 C798 0.949 . S
C795 C796 1.349 . S
C795 C797 1.327 . S
C795 H818 0.950 . S
C796 C795 1.349 . S
C796 C808 1.349 . S
C797 C795 1.327 . S
C797 C813 1.429 . S
C797 H819 0.950 . S
C798 H794 0.949 . S
C798 C806 1.574 . S
C798 C814 1.368 . S
H799 C807 0.950 . S
H800 C805 0.950 . S
H801 C806 0.949 . S
H802 C808 0.950 . S
H803 C809 0.950 . S
H804 C810 0.949 . S
C805 H800 0.950 . S
C805 C807 1.327 . S
C805 C811 1.429 . S
C806 C798 1.574 . S
C806 H801 0.949 . S
C806 C812 1.368 . S
C807 C791 1.349 . S
C807 H799 0.950 . S
C807 C805 1.327 . S
C808 C796 1.349 . S
C808 H802 0.950 . S
C808 C809 1.327 . S
C809 H803 0.950 . S
C809 C808 1.327 . S
C809 C813 1.429 . S
C810 C793 1.574 . S
C810 H804 0.949 . S
C810 C814 1.368 . S
C811 C792 1.429 . S
C811 C805 1.429 . S
C811 C812 1.523 . S
C812 C793 1.368 . S
C812 C806 1.368 . S
C812 C811 1.523 . S
C813 C797 1.429 . S
C813 C809 1.429 . S
C813 C814 1.523 . S
C814 C798 1.368 . S
C814 C810 1.368 . S
C814 C813 1.523 . S
H815 C790 0.950 . S
H816 C792 0.950 . S
H817 C793 0.949 . S
H818 C795 0.950 . S
H819 C797 0.950 . S
C820 C821 1.349 . S
C820 C822 1.327 . S
C820 H845 0.950 . S
C821 C820 1.349 . S
C821 C837 1.349 . S
C822 C820 1.327 . S
C822 C841 1.429 . S
C822 H846 0.950 . S
C823 C840 1.574 . S
C823 C842 1.368 . S
C823 H847 0.949 . S
H824 C828 0.949 . S
C825 C826 1.349 . S
C825 C827 1.327 . S
C825 H848 0.950 . S
C826 C825 1.349 . S
C826 C838 1.349 . S
C827 C825 1.327 . S
C827 C843 1.429 . S
C827 H849 0.950 . S
C828 H824 0.949 . S
C828 C836 1.574 . S
C828 C844 1.368 . S
H829 C837 0.950 . S
H830 C835 0.950 . S
H831 C836 0.949 . S
H832 C838 0.950 . S
H833 C839 0.950 . S
H834 C840 0.949 . S
C835 H830 0.950 . S
C835 C837 1.327 . S
C835 C841 1.429 . S
C836 C828 1.574 . S
C836 H831 0.949 . S
C836 C842 1.368 . S
C837 C821 1.349 . S
C837 H829 0.950 . S
C837 C835 1.327 . S
C838 C826 1.349 . S
C838 H832 0.950 . S
C838 C839 1.327 . S
C839 H833 0.950 . S
C839 C838 1.327 . S
C839 C843 1.429 . S
C840 C823 1.574 . S
C840 H834 0.949 . S
C840 C844 1.368 . S
C841 C822 1.429 . S
C841 C835 1.429 . S
C841 C842 1.523 . S
C842 C823 1.368 . S
C842 C836 1.368 . S
C842 C841 1.523 . S
C843 C827 1.429 . S
C843 C839 1.429 . S
C843 C844 1.523 . S
C844 C828 1.368 . S
C844 C840 1.368 . S
C844 C843 1.523 . S
H845 C820 0.950 . S
H846 C822 0.950 . S
H847 C823 0.949 . S
H848 C825 0.950 . S
H849 C827 0.950 . S
C850 C851 1.349 . S
C850 C852 1.327 . S
C850 H875 0.950 . S
C851 C850 1.349 . S
C851 C867 1.349 . S
C852 C850 1.327 . S
C852 C871 1.429 . S
C852 H876 0.950 . S
C853 C870 1.574 . S
C853 C872 1.368 . S
C853 H877 0.949 . S
H854 C858 0.949 . S
C855 C856 1.349 . S
C855 C857 1.327 . S
C855 H878 0.950 . S
C856 C855 1.349 . S
C856 C868 1.349 . S
C857 C855 1.327 . S
C857 C873 1.429 . S
C857 H879 0.950 . S
C858 H854 0.949 . S
C858 C866 1.574 . S
C858 C874 1.368 . S
H859 C867 0.950 . S
H860 C865 0.950 . S
H861 C866 0.949 . S
H862 C868 0.950 . S
H863 C869 0.950 . S
H864 C870 0.949 . S
C865 H860 0.950 . S
C865 C867 1.327 . S
C865 C871 1.429 . S
C866 C858 1.574 . S
C866 H861 0.949 . S
C866 C872 1.368 . S
C867 C851 1.349 . S
C867 H859 0.950 . S
C867 C865 1.327 . S
C868 C856 1.349 . S
C868 H862 0.950 . S
C868 C869 1.327 . S
C869 H863 0.950 . S
C869 C868 1.327 . S
C869 C873 1.429 . S
C870 C853 1.574 . S
C870 H864 0.949 . S
C870 C874 1.368 . S
C871 C852 1.429 . S
C871 C865 1.429 . S
C871 C872 1.523 . S
C872 C853 1.368 . S
C872 C866 1.368 . S
C872 C871 1.523 . S
C873 C857 1.429 . S
C873 C869 1.429 . S
C873 C874 1.523 . S
C874 C858 1.368 . S
C874 C870 1.368 . S
C874 C873 1.523 . S
H875 C850 0.950 . S
H876 C852 0.950 . S
H877 C853 0.949 . S
H878 C855 0.950 . S
H879 C857 0.950 . S
C880 C881 1.349 . S
C880 C882 1.327 . S
C880 H905 0.950 . S
C881 C880 1.349 . S
C881 C897 1.349 . S
C882 C880 1.327 . S
C882 C901 1.429 . S
C882 H906 0.950 . S
C883 C900 1.574 . S
C883 C902 1.368 . S
C883 H907 0.949 . S
H884 C888 0.949 . S
C885 C886 1.349 . S
C885 C887 1.327 . S
C885 H908 0.950 . S
C886 C885 1.349 . S
C886 C898 1.349 . S
C887 C885 1.327 . S
C887 C903 1.429 . S
C887 H909 0.950 . S
C888 H884 0.949 . S
C888 C896 1.574 . S
C888 C904 1.368 . S
H889 C897 0.950 . S
H890 C895 0.950 . S
H891 C896 0.949 . S
H892 C898 0.950 . S
H893 C899 0.950 . S
H894 C900 0.949 . S
C895 H890 0.950 . S
C895 C897 1.327 . S
C895 C901 1.429 . S
C896 C888 1.574 . S
C896 H891 0.949 . S
C896 C902 1.368 . S
C897 C881 1.349 . S
C897 H889 0.950 . S
C897 C895 1.327 . S
C898 C886 1.349 . S
C898 H892 0.950 . S
C898 C899 1.327 . S
C899 H893 0.950 . S
C899 C898 1.327 . S
C899 C903 1.429 . S
C900 C883 1.574 . S
C900 H894 0.949 . S
C900 C904 1.368 . S
C901 C882 1.429 . S
C901 C895 1.429 . S
C901 C902 1.523 . S
C902 C883 1.368 . S
C902 C896 1.368 . S
C902 C901 1.523 . S
C903 C887 1.429 . S
C903 C899 1.429 . S
C903 C904 1.523 . S
C904 C888 1.368 . S
C904 C900 1.368 . S
C904 C903 1.523 . S
H905 C880 0.950 . S
H906 C882 0.950 . S
H907 C883 0.949 . S
H908 C885 0.950 . S
H909 C887 0.950 . S
C910 C911 1.349 . S
C910 C912 1.327 . S
C910 H935 0.950 . S
C911 C910 1.349 . S
C911 C927 1.349 . S
C912 C910 1.327 . S
C912 C931 1.429 . S
C912 H936 0.950 . S
C913 C930 1.574 . S
C913 C932 1.368 . S
C913 H937 0.949 . S
H914 C918 0.949 . S
C915 C916 1.349 . S
C915 C917 1.327 . S
C915 H938 0.950 . S
C916 C915 1.349 . S
C916 C928 1.349 . S
C917 C915 1.327 . S
C917 C933 1.429 . S
C917 H939 0.950 . S
C918 H914 0.949 . S
C918 C926 1.574 . S
C918 C934 1.368 . S
H919 C927 0.950 . S
H920 C925 0.950 . S
H921 C926 0.949 . S
H922 C928 0.950 . S
H923 C929 0.950 . S
H924 C930 0.949 . S
C925 H920 0.950 . S
C925 C927 1.327 . S
C925 C931 1.429 . S
C926 C918 1.574 . S
C926 H921 0.949 . S
C926 C932 1.368 . S
C927 C911 1.349 . S
C927 H919 0.950 . S
C927 C925 1.327 . S
C928 C916 1.349 . S
C928 H922 0.950 . S
C928 C929 1.327 . S
C929 H923 0.950 . S
C929 C928 1.327 . S
C929 C933 1.429 . S
C930 C913 1.574 . S
C930 H924 0.949 . S
C930 C934 1.368 . S
C931 C912 1.429 . S
C931 C925 1.429 . S
C931 C932 1.523 . S
C932 C913 1.368 . S
C932 C926 1.368 . S
C932 C931 1.523 . S
C933 C917 1.429 . S
C933 C929 1.429 . S
C933 C934 1.523 . S
C934 C918 1.368 . S
C934 C930 1.368 . S
C934 C933 1.523 . S
H935 C910 0.950 . S
H936 C912 0.950 . S
H937 C913 0.949 . S
H938 C915 0.950 . S
H939 C917 0.950 . S
C940 C941 1.349 . S
C940 C942 1.327 . S
C940 H965 0.950 . S
C941 C940 1.349 . S
C941 C957 1.349 . S
C942 C940 1.327 . S
C942 C961 1.429 . S
C942 H966 0.950 . S
C943 C960 1.574 . S
C943 C962 1.368 . S
C943 H967 0.949 . S
H944 C948 0.949 . S
C945 C946 1.349 . S
C945 C947 1.327 . S
C945 H968 0.950 . S
C946 C945 1.349 . S
C946 C958 1.349 . S
C947 C945 1.327 . S
C947 C963 1.429 . S
C947 H969 0.950 . S
C948 H944 0.949 . S
C948 C956 1.574 . S
C948 C964 1.368 . S
H949 C957 0.950 . S
H950 C955 0.950 . S
H951 C956 0.949 . S
H952 C958 0.950 . S
H953 C959 0.950 . S
H954 C960 0.949 . S
C955 H950 0.950 . S
C955 C957 1.327 . S
C955 C961 1.429 . S
C956 C948 1.574 . S
C956 H951 0.949 . S
C956 C962 1.368 . S
C957 C941 1.349 . S
C957 H949 0.950 . S
C957 C955 1.327 . S
C958 C946 1.349 . S
C958 H952 0.950 . S
C958 C959 1.327 . S
C959 H953 0.950 . S
C959 C958 1.327 . S
C959 C963 1.429 . S
C960 C943 1.574 . S
C960 H954 0.949 . S
C960 C964 1.368 . S
C961 C942 1.429 . S
C961 C955 1.429 . S
C961 C962 1.523 . S
C962 C943 1.368 . S
C962 C956 1.368 . S
C962 C961 1.523 . S
C963 C947 1.429 . S
C963 C959 1.429 . S
C963 C964 1.523 . S
C964 C948 1.368 . S
C964 C960 1.368 . S
C964 C963 1.523 . S
H965 C940 0.950 . S
H966 C942 0.950 . S
H967 C943 0.949 . S
H968 C945 0.950 . S
H969 C947 0.950 . S
C970 C971 1.349 . S
C970 C972 1.327 . S
C970 H995 0.950 . S
C971 C970 1.349 . S
C971 C987 1.349 . S
C972 C970 1.327 . S
C972 C991 1.429 . S
C972 H996 0.950 . S
C973 C990 1.574 . S
C973 C992 1.368 . S
C973 H997 0.949 . S
H974 C978 0.949 . S
C975 C976 1.349 . S
C975 C977 1.327 . S
C975 H998 0.950 . S
C976 C975 1.349 . S
C976 C988 1.349 . S
C977 C975 1.327 . S
C977 C993 1.429 . S
C977 H999 0.950 . S
C978 H974 0.949 . S
C978 C986 1.574 . S
C978 C994 1.368 . S
H979 C987 0.950 . S
H980 C985 0.950 . S
H981 C986 0.949 . S
H982 C988 0.950 . S
H983 C989 0.950 . S
H984 C990 0.949 . S
C985 H980 0.950 . S
C985 C987 1.327 . S
C985 C991 1.429 . S
C986 C978 1.574 . S
C986 H981 0.949 . S
C986 C992 1.368 . S
C987 C971 1.349 . S
C987 H979 0.950 . S
C987 C985 1.327 . S
C988 C976 1.349 . S
C988 H982 0.950 . S
C988 C989 1.327 . S
C989 H983 0.950 . S
C989 C988 1.327 . S
C989 C993 1.429 . S
C990 C973 1.574 . S
C990 H984 0.949 . S
C990 C994 1.368 . S
C991 C972 1.429 . S
C991 C985 1.429 . S
C991 C992 1.523 . S
C992 C973 1.368 . S
C992 C986 1.368 . S
C992 C991 1.523 . S
C993 C977 1.429 . S
C993 C989 1.429 . S
C993 C994 1.523 . S
C994 C978 1.368 . S
C994 C990 1.368 . S
C994 C993 1.523 . S
H995 C970 0.950 . S
H996 C972 0.950 . S
H997 C973 0.949 . S
H998 C975 0.950 . S
H999 C977 0.950 . S
C1000 C1001 1.349 . S
C1000 C1002 1.327 . S
C1000 H1025 0.950 . S
C1001 C1000 1.349 . S
C1001 C1017 1.349 . S
C1002 C1000 1.327 . S
C1002 C1021 1.429 . S
C1002 H1026 0.950 . S
C1003 C1020 1.574 . S
C1003 C1022 1.368 . S
C1003 H1027 0.949 . S
H1004 C1008 0.949 . S
C1005 C1006 1.349 . S
C1005 C1007 1.327 . S
C1005 H1028 0.950 . S
C1006 C1005 1.349 . S
C1006 C1018 1.349 . S
C1007 C1005 1.327 . S
C1007 C1023 1.429 . S
C1007 H1029 0.950 . S
C1008 H1004 0.949 . S
C1008 C1016 1.574 . S
C1008 C1024 1.368 . S
H1009 C1017 0.950 . S
H1010 C1015 0.950 . S
H1011 C1016 0.949 . S
H1012 C1018 0.950 . S
H1013 C1019 0.950 . S
H1014 C1020 0.949 . S
C1015 H1010 0.950 . S
C1015 C1017 1.327 . S
C1015 C1021 1.429 . S
C1016 C1008 1.574 . S
C1016 H1011 0.949 . S
C1016 C1022 1.368 . S
C1017 C1001 1.349 . S
C1017 H1009 0.950 . S
C1017 C1015 1.327 . S
C1018 C1006 1.349 . S
C1018 H1012 0.950 . S
C1018 C1019 1.327 . S
C1019 H1013 0.950 . S
C1019 C1018 1.327 . S
C1019 C1023 1.429 . S
C1020 C1003 1.574 . S
C1020 H1014 0.949 . S
C1020 C1024 1.368 . S
C1021 C1002 1.429 . S
C1021 C1015 1.429 . S
C1021 C1022 1.523 . S
C1022 C1003 1.368 . S
C1022 C1016 1.368 . S
C1022 C1021 1.523 . S
C1023 C1007 1.429 . S
C1023 C1019 1.429 . S
C1023 C1024 1.523 . S
C1024 C1008 1.368 . S
C1024 C1020 1.368 . S
C1024 C1023 1.523 . S
H1025 C1000 0.950 . S
H1026 C1002 0.950 . S
H1027 C1003 0.949 . S
H1028 C1005 0.950 . S
H1029 C1007 0.950 . S
C1030 C1031 1.349 . S
C1030 C1032 1.327 . S
C1030 H1055 0.950 . S
C1031 C1030 1.349 . S
C1031 C1047 1.349 . S
C1032 C1030 1.327 . S
C1032 C1051 1.429 . S
C1032 H1056 0.950 . S
C1033 C1050 1.574 . S
C1033 C1052 1.368 . S
C1033 H1057 0.949 . S
H1034 C1038 0.949 . S
C1035 C1036 1.349 . S
C1035 C1037 1.327 . S
C1035 H1058 0.950 . S
C1036 C1035 1.349 . S
C1036 C1048 1.349 . S
C1037 C1035 1.327 . S
C1037 C1053 1.429 . S
C1037 H1059 0.950 . S
C1038 H1034 0.949 . S
C1038 C1046 1.574 . S
C1038 C1054 1.368 . S
H1039 C1047 0.950 . S
H1040 C1045 0.950 . S
H1041 C1046 0.949 . S
H1042 C1048 0.950 . S
H1043 C1049 0.950 . S
H1044 C1050 0.949 . S
C1045 H1040 0.950 . S
C1045 C1047 1.327 . S
C1045 C1051 1.429 . S
C1046 C1038 1.574 . S
C1046 H1041 0.949 . S
C1046 C1052 1.368 . S
C1047 C1031 1.349 . S
C1047 H1039 0.950 . S
C1047 C1045 1.327 . S
C1048 C1036 1.349 . S
C1048 H1042 0.950 . S
C1048 C1049 1.327 . S
C1049 H1043 0.950 . S
C1049 C1048 1.327 . S
C1049 C1053 1.429 . S
C1050 C1033 1.574 . S
C1050 H1044 0.949 . S
C1050 C1054 1.368 . S
C1051 C1032 1.429 . S
C1051 C1045 1.429 . S
C1051 C1052 1.523 . S
C1052 C1033 1.368 . S
C1052 C1046 1.368 . S
C1052 C1051 1.523 . S
C1053 C1037 1.429 . S
C1053 C1049 1.429 . S
C1053 C1054 1.523 . S
C1054 C1038 1.368 . S
C1054 C1050 1.368 . S
C1054 C1053 1.523 . S
H1055 C1030 0.950 . S
H1056 C1032 0.950 . S
H1057 C1033 0.949 . S
H1058 C1035 0.950 . S
H1059 C1037 0.950 . S
C1060 C1061 1.349 . S
C1060 C1062 1.327 . S
C1060 H1085 0.950 . S
C1061 C1060 1.349 . S
C1061 C1077 1.349 . S
C1062 C1060 1.327 . S
C1062 C1081 1.429 . S
C1062 H1086 0.950 . S
C1063 C1080 1.574 . S
C1063 C1082 1.368 . S
C1063 H1087 0.949 . S
H1064 C1068 0.949 . S
C1065 C1066 1.349 . S
C1065 C1067 1.327 . S
C1065 H1088 0.950 . S
C1066 C1065 1.349 . S
C1066 C1078 1.349 . S
C1067 C1065 1.327 . S
C1067 C1083 1.429 . S
C1067 H1089 0.950 . S
C1068 H1064 0.949 . S
C1068 C1076 1.574 . S
C1068 C1084 1.368 . S
H1069 C1077 0.950 . S
H1070 C1075 0.950 . S
H1071 C1076 0.949 . S
H1072 C1078 0.950 . S
H1073 C1079 0.950 . S
H1074 C1080 0.949 . S
C1075 H1070 0.950 . S
C1075 C1077 1.327 . S
C1075 C1081 1.429 . S
C1076 C1068 1.574 . S
C1076 H1071 0.949 . S
C1076 C1082 1.368 . S
C1077 C1061 1.349 . S
C1077 H1069 0.950 . S
C1077 C1075 1.327 . S
C1078 C1066 1.349 . S
C1078 H1072 0.950 . S
C1078 C1079 1.327 . S
C1079 H1073 0.950 . S
C1079 C1078 1.327 . S
C1079 C1083 1.429 . S
C1080 C1063 1.574 . S
C1080 H1074 0.949 . S
C1080 C1084 1.368 . S
C1081 C1062 1.429 . S
C1081 C1075 1.429 . S
C1081 C1082 1.523 . S
C1082 C1063 1.368 . S
C1082 C1076 1.368 . S
C1082 C1081 1.523 . S
C1083 C1067 1.429 . S
C1083 C1079 1.429 . S
C1083 C1084 1.523 . S
C1084 C1068 1.368 . S
C1084 C1080 1.368 . S
C1084 C1083 1.523 . S
H1085 C1060 0.950 . S
H1086 C1062 0.950 . S
H1087 C1063 0.949 . S
H1088 C1065 0.950 . S
H1089 C1067 0.950 . S
C1090 C1091 1.349 . S
C1090 C1092 1.327 . S
C1090 H1115 0.950 . S
C1091 C1090 1.349 . S
C1091 C1107 1.349 . S
C1092 C1090 1.327 . S
C1092 C1111 1.429 . S
C1092 H1116 0.950 . S
C1093 C1110 1.574 . S
C1093 C1112 1.368 . S
C1093 H1117 0.949 . S
H1094 C1098 0.949 . S
C1095 C1096 1.349 . S
C1095 C1097 1.327 . S
C1095 H1118 0.950 . S
C1096 C1095 1.349 . S
C1096 C1108 1.349 . S
C1097 C1095 1.327 . S
C1097 C1113 1.429 . S
C1097 H1119 0.950 . S
C1098 H1094 0.949 . S
C1098 C1106 1.574 . S
C1098 C1114 1.368 . S
H1099 C1107 0.950 . S
H1100 C1105 0.950 . S
H1101 C1106 0.949 . S
H1102 C1108 0.950 . S
H1103 C1109 0.950 . S
H1104 C1110 0.949 . S
C1105 H1100 0.950 . S
C1105 C1107 1.327 . S
C1105 C1111 1.429 . S
C1106 C1098 1.574 . S
C1106 H1101 0.949 . S
C1106 C1112 1.368 . S
C1107 C1091 1.349 . S
C1107 H1099 0.950 . S
C1107 C1105 1.327 . S
C1108 C1096 1.349 . S
C1108 H1102 0.950 . S
C1108 C1109 1.327 . S
C1109 H1103 0.950 . S
C1109 C1108 1.327 . S
C1109 C1113 1.429 . S
C1110 C1093 1.574 . S
C1110 H1104 0.949 . S
C1110 C1114 1.368 . S
C1111 C1092 1.429 . S
C1111 C1105 1.429 . S
C1111 C1112 1.523 . S
C1112 C1093 1.368 . S
C1112 C1106 1.368 . S
C1112 C1111 1.523 . S
C1113 C1097 1.429 . S
C1113 C1109 1.429 . S
C1113 C1114 1.523 . S
C1114 C1098 1.368 . S
C1114 C1110 1.368 . S
C1114 C1113 1.523 . S
H1115 C1090 0.950 . S
H1116 C1092 0.950 . S
H1117 C1093 0.949 . S
H1118 C1095 0.950 . S
H1119 C1097 0.950 . S
C1120 C1121 1.349 . S
C1120 C1122 1.327 . S
C1120 H1145 0.950 . S
C1121 C1120 1.349 . S
C1121 C1137 1.349 . S
C1122 C1120 1.327 . S
C1122 C1141 1.429 . S
C1122 H1146 0.950 . S
C1123 C1140 1.574 . S
C1123 C1142 1.368 . S
C1123 H1147 0.949 . S
H1124 C1128 0.949 . S
C1125 C1126 1.349 . S
C1125 C1127 1.327 . S
C1125 H1148 0.950 . S
C1126 C1125 1.349 . S
C1126 C1138 1.349 . S
C1127 C1125 1.327 . S
C1127 C1143 1.429 . S
C1127 H1149 0.950 . S
C1128 H1124 0.949 . S
C1128 C1136 1.574 . S
C1128 C1144 1.368 . S
H1129 C1137 0.950 . S
H1130 C1135 0.950 . S
H1131 C1136 0.949 . S
H1132 C1138 0.950 . S
H1133 C1139 0.950 . S
H1134 C1140 0.949 . S
C1135 H1130 0.950 . S
C1135 C1137 1.327 . S
C1135 C1141 1.429 . S
C1136 C1128 1.574 . S
C1136 H1131 0.949 . S
C1136 C1142 1.368 . S
C1137 C1121 1.349 . S
C1137 H1129 0.950 . S
C1137 C1135 1.327 . S
C1138 C1126 1.349 . S
C1138 H1132 0.950 . S
C1138 C1139 1.327 . S
C1139 H1133 0.950 . S
C1139 C1138 1.327 . S
C1139 C1143 1.429 . S
C1140 C1123 1.574 . S
C1140 H1134 0.949 . S
C1140 C1144 1.368 . S
C1141 C1122 1.429 . S
C1141 C1135 1.429 . S
C1141 C1142 1.523 . S
C1142 C1123 1.368 . S
C1142 C1136 1.368 . S
C1142 C1141 1.523 . S
C1143 C1127 1.429 . S
C1143 C1139 1.429 . S
C1143 C1144 1.523 . S
C1144 C1128 1.368 . S
C1144 C1140 1.368 . S
C1144 C1143 1.523 . S
H1145 C1120 0.950 . S
H1146 C1122 0.950 . S
H1147 C1123 0.949 . S
H1148 C1125 0.950 . S
H1149 C1127 0.950 . S
C1150 C1151 1.349 . S
C1150 C1152 1.327 . S
C1150 H1175 0.950 . S
C1151 C1150 1.349 . S
C1151 C1167 1.349 . S
C1152 C1150 1.327 . S
C1152 C1171 1.429 . S
C1152 H1176 0.950 . S
C1153 C1170 1.574 . S
C1153 C1172 1.368 . S
C1153 H1177 0.949 . S
H1154 C1158 0.949 . S
C1155 C1156 1.349 . S
C1155 C1157 1.327 . S
C1155 H1178 0.950 . S
C1156 C1155 1.349 . S
C1156 C1168 1.349 . S
C1157 C1155 1.327 . S
C1157 C1173 1.429 . S
C1157 H1179 0.950 . S
C1158 H1154 0.949 . S
C1158 C1166 1.574 . S
C1158 C1174 1.368 . S
H1159 C1167 0.950 . S
H1160 C1165 0.950 . S
H1161 C1166 0.949 . S
H1162 C1168 0.950 . S
H1163 C1169 0.950 . S
H1164 C1170 0.949 . S
C1165 H1160 0.950 . S
C1165 C1167 1.327 . S
C1165 C1171 1.429 . S
C1166 C1158 1.574 . S
C1166 H1161 0.949 . S
C1166 C1172 1.368 . S
C1167 C1151 1.349 . S
C1167 H1159 0.950 . S
C1167 C1165 1.327 . S
C1168 C1156 1.349 . S
C1168 H1162 0.950 . S
C1168 C1169 1.327 . S
C1169 H1163 0.950 . S
C1169 C1168 1.327 . S
C1169 C1173 1.429 . S
C1170 C1153 1.574 . S
C1170 H1164 0.949 . S
C1170 C1174 1.368 . S
C1171 C1152 1.429 . S
C1171 C1165 1.429 . S
C1171 C1172 1.523 . S
C1172 C1153 1.368 . S
C1172 C1166 1.368 . S
C1172 C1171 1.523 . S
C1173 C1157 1.429 . S
C1173 C1169 1.429 . S
C1173 C1174 1.523 . S
C1174 C1158 1.368 . S
C1174 C1170 1.368 . S
C1174 C1173 1.523 . S
H1175 C1150 0.950 . S
H1176 C1152 0.950 . S
H1177 C1153 0.949 . S
H1178 C1155 0.950 . S
H1179 C1157 0.950 . S
C1180 C1181 1.349 . S
C1180 C1182 1.327 . S
C1180 H1205 0.950 . S
C1181 C1180 1.349 . S
C1181 C1197 1.349 . S
C1182 C1180 1.327 . S
C1182 C1201 1.429 . S
C1182 H1206 0.950 . S
C1183 C1200 1.574 . S
C1183 C1202 1.368 . S
C1183 H1207 0.949 . S
H1184 C1188 0.949 . S
C1185 C1186 1.349 . S
C1185 C1187 1.327 . S
C1185 H1208 0.950 . S
C1186 C1185 1.349 . S
C1186 C1198 1.349 . S
C1187 C1185 1.327 . S
C1187 C1203 1.429 . S
C1187 H1209 0.950 . S
C1188 H1184 0.949 . S
C1188 C1196 1.574 . S
C1188 C1204 1.368 . S
H1189 C1197 0.950 . S
H1190 C1195 0.950 . S
H1191 C1196 0.949 . S
H1192 C1198 0.950 . S
H1193 C1199 0.950 . S
H1194 C1200 0.949 . S
C1195 H1190 0.950 . S
C1195 C1197 1.327 . S
C1195 C1201 1.429 . S
C1196 C1188 1.574 . S
C1196 H1191 0.949 . S
C1196 C1202 1.368 . S
C1197 C1181 1.349 . S
C1197 H1189 0.950 . S
C1197 C1195 1.327 . S
C1198 C1186 1.349 . S
C1198 H1192 0.950 . S
C1198 C1199 1.327 . S
C1199 H1193 0.950 . S
C1199 C1198 1.327 . S
C1199 C1203 1.429 . S
C1200 C1183 1.574 . S
C1200 H1194 0.949 . S
C1200 C1204 1.368 . S
C1201 C1182 1.429 . S
C1201 C1195 1.429 . S
C1201 C1202 1.523 . S
C1202 C1183 1.368 . S
C1202 C1196 1.368 . S
C1202 C1201 1.523 . S
C1203 C1187 1.429 . S
C1203 C1199 1.429 . S
C1203 C1204 1.523 . S
C1204 C1188 1.368 . S
C1204 C1200 1.368 . S
C1204 C1203 1.523 . S
H1205 C1180 0.950 . S
H1206 C1182 0.950 . S
H1207 C1183 0.949 . S
H1208 C1185 0.950 . S
H1209 C1187 0.950 . S
C1210 C1211 1.349 . S
C1210 C1212 1.327 . S
C1210 H1235 0.950 . S
C1211 C1210 1.349 . S
C1211 C1227 1.349 . S
C1212 C1210 1.327 . S
C1212 C1231 1.429 . S
C1212 H1236 0.950 . S
C1213 C1230 1.574 . S
C1213 C1232 1.368 . S
C1213 H1237 0.949 . S
H1214 C1218 0.949 . S
C1215 C1216 1.349 . S
C1215 C1217 1.327 . S
C1215 H1238 0.950 . S
C1216 C1215 1.349 . S
C1216 C1228 1.349 . S
C1217 C1215 1.327 . S
C1217 C1233 1.429 . S
C1217 H1239 0.950 . S
C1218 H1214 0.949 . S
C1218 C1226 1.574 . S
C1218 C1234 1.368 . S
H1219 C1227 0.950 . S
H1220 C1225 0.950 . S
H1221 C1226 0.949 . S
H1222 C1228 0.950 . S
H1223 C1229 0.950 . S
H1224 C1230 0.949 . S
C1225 H1220 0.950 . S
C1225 C1227 1.327 . S
C1225 C1231 1.429 . S
C1226 C1218 1.574 . S
C1226 H1221 0.949 . S
C1226 C1232 1.368 . S
C1227 C1211 1.349 . S
C1227 H1219 0.950 . S
C1227 C1225 1.327 . S
C1228 C1216 1.349 . S
C1228 H1222 0.950 . S
C1228 C1229 1.327 . S
C1229 H1223 0.950 . S
C1229 C1228 1.327 . S
C1229 C1233 1.429 . S
C1230 C1213 1.574 . S
C1230 H1224 0.949 . S
C1230 C1234 1.368 . S
C1231 C1212 1.429 . S
C1231 C1225 1.429 . S
C1231 C1232 1.523 . S
C1232 C1213 1.368 . S
C1232 C1226 1.368 . S
C1232 C1231 1.523 . S
C1233 C1217 1.429 . S
C1233 C1229 1.429 . S
C1233 C1234 1.523 . S
C1234 C1218 1.368 . S
C1234 C1230 1.368 . S
C1234 C1233 1.523 . S
H1235 C1210 0.950 . S
H1236 C1212 0.950 . S
H1237 C1213 0.949 . S
H1238 C1215 0.950 . S
H1239 C1217 0.950 . S
C1240 C1241 1.349 . S
C1240 C1242 1.327 . S
C1240 H1265 0.950 . S
C1241 C1240 1.349 . S
C1241 C1257 1.349 . S
C1242 C1240 1.327 . S
C1242 C1261 1.429 . S
C1242 H1266 0.950 . S
C1243 C1260 1.574 . S
C1243 C1262 1.368 . S
C1243 H1267 0.949 . S
H1244 C1248 0.949 . S
C1245 C1246 1.349 . S
C1245 C1247 1.327 . S
C1245 H1268 0.950 . S
C1246 C1245 1.349 . S
C1246 C1258 1.349 . S
C1247 C1245 1.327 . S
C1247 C1263 1.429 . S
C1247 H1269 0.950 . S
C1248 H1244 0.949 . S
C1248 C1256 1.574 . S
C1248 C1264 1.368 . S
H1249 C1257 0.950 . S
H1250 C1255 0.950 . S
H1251 C1256 0.949 . S
H1252 C1258 0.950 . S
H1253 C1259 0.950 . S
H1254 C1260 0.949 . S
C1255 H1250 0.950 . S
C1255 C1257 1.327 . S
C1255 C1261 1.429 . S
C1256 C1248 1.574 . S
C1256 H1251 0.949 . S
C1256 C1262 1.368 . S
C1257 C1241 1.349 . S
C1257 H1249 0.950 . S
C1257 C1255 1.327 . S
C1258 C1246 1.349 . S
C1258 H1252 0.950 . S
C1258 C1259 1.327 . S
C1259 H1253 0.950 . S
C1259 C1258 1.327 . S
C1259 C1263 1.429 . S
C1260 C1243 1.574 . S
C1260 H1254 0.949 . S
C1260 C1264 1.368 . S
C1261 C1242 1.429 . S
C1261 C1255 1.429 . S
C1261 C1262 1.523 . S
C1262 C1243 1.368 . S
C1262 C1256 1.368 . S
C1262 C1261 1.523 . S
C1263 C1247 1.429 . S
C1263 C1259 1.429 . S
C1263 C1264 1.523 . S
C1264 C1248 1.368 . S
C1264 C1260 1.368 . S
C1264 C1263 1.523 . S
H1265 C1240 0.950 . S
H1266 C1242 0.950 . S
H1267 C1243 0.949 . S
H1268 C1245 0.950 . S
H1269 C1247 0.950 . S
C1270 C1271 1.349 . S
C1270 C1272 1.327 . S
C1270 H1295 0.950 . S
C1271 C1270 1.349 . S
C1271 C1287 1.349 . S
C1272 C1270 1.327 . S
C1272 C1291 1.429 . S
C1272 H1296 0.950 . S
C1273 C1290 1.574 . S
C1273 C1292 1.368 . S
C1273 H1297 0.949 . S
H1274 C1278 0.949 . S
C1275 C1276 1.349 . S
C1275 C1277 1.327 . S
C1275 H1298 0.950 . S
C1276 C1275 1.349 . S
C1276 C1288 1.349 . S
C1277 C1275 1.327 . S
C1277 C1293 1.429 . S
C1277 H1299 0.950 . S
C1278 H1274 0.949 . S
C1278 C1286 1.574 . S
C1278 C1294 1.368 . S
H1279 C1287 0.950 . S
H1280 C1285 0.950 . S
H1281 C1286 0.949 . S
H1282 C1288 0.950 . S
H1283 C1289 0.950 . S
H1284 C1290 0.949 . S
C1285 H1280 0.950 . S
C1285 C1287 1.327 . S
C1285 C1291 1.429 . S
C1286 C1278 1.574 . S
C1286 H1281 0.949 . S
C1286 C1292 1.368 . S
C1287 C1271 1.349 . S
C1287 H1279 0.950 . S
C1287 C1285 1.327 . S
C1288 C1276 1.349 . S
C1288 H1282 0.950 . S
C1288 C1289 1.327 . S
C1289 H1283 0.950 . S
C1289 C1288 1.327 . S
C1289 C1293 1.429 . S
C1290 C1273 1.574 . S
C1290 H1284 0.949 . S
C1290 C1294 1.368 . S
C1291 C1272 1.429 . S
C1291 C1285 1.429 . S
C1291 C1292 1.523 . S
C1292 C1273 1.368 . S
C1292 C1286 1.368 . S
C1292 C1291 1.523 . S
C1293 C1277 1.429 . S
C1293 C1289 1.429 . S
C1293 C1294 1.523 . S
C1294 C1278 1.368 . S
C1294 C1290 1.368 . S
C1294 C1293 1.523 . S
H1295 C1270 0.950 . S
H1296 C1272 0.950 . S
H1297 C1273 0.949 . S
H1298 C1275 0.950 . S
H1299 C1277 0.950 . S
C1300 C1301 1.349 . S
C1300 C1302 1.327 . S
C1300 H1325 0.950 . S
C1301 C1300 1.349 . S
C1301 C1317 1.349 . S
C1302 C1300 1.327 . S
C1302 C1321 1.429 . S
C1302 H1326 0.950 . S
C1303 C1320 1.574 . S
C1303 C1322 1.368 . S
C1303 H1327 0.949 . S
H1304 C1308 0.949 . S
C1305 C1306 1.349 . S
C1305 C1307 1.327 . S
C1305 H1328 0.950 1_556 S
C1306 C1305 1.349 . S
C1306 C1318 1.349 . S
C1307 C1305 1.327 . S
C1307 C1323 1.429 . S
C1307 H1329 0.950 . S
C1308 H1304 0.949 . S
C1308 C1316 1.574 . S
C1308 C1324 1.368 . S
H1309 C1317 0.950 . S
H1310 C1315 0.950 . S
H1311 C1316 0.949 . S
H1312 C1318 0.950 . S
H1313 C1319 0.950 . S
H1314 C1320 0.949 . S
C1315 H1310 0.950 . S
C1315 C1317 1.327 . S
C1315 C1321 1.429 . S
C1316 C1308 1.574 . S
C1316 H1311 0.949 . S
C1316 C1322 1.368 . S
C1317 C1301 1.349 . S
C1317 H1309 0.950 . S
C1317 C1315 1.327 . S
C1318 C1306 1.349 . S
C1318 H1312 0.950 . S
C1318 C1319 1.327 . S
C1319 H1313 0.950 . S
C1319 C1318 1.327 . S
C1319 C1323 1.429 . S
C1320 C1303 1.574 . S
C1320 H1314 0.949 . S
C1320 C1324 1.368 . S
C1321 C1302 1.429 . S
C1321 C1315 1.429 . S
C1321 C1322 1.523 . S
C1322 C1303 1.368 . S
C1322 C1316 1.368 . S
C1322 C1321 1.523 . S
C1323 C1307 1.429 . S
C1323 C1319 1.429 . S
C1323 C1324 1.523 . S
C1324 C1308 1.368 . S
C1324 C1320 1.368 . S
C1324 C1323 1.523 . S
H1325 C1300 0.950 . S
H1326 C1302 0.950 . S
H1327 C1303 0.949 . S
H1328 C1305 0.950 1_554 S
H1329 C1307 0.950 . S
C1330 C1331 1.349 . S
C1330 C1332 1.327 . S
C1330 H1355 0.950 . S
C1331 C1330 1.349 . S
C1331 C1347 1.349 . S
C1332 C1330 1.327 . S
C1332 C1351 1.429 . S
C1332 H1356 0.950 . S
C1333 C1350 1.574 . S
C1333 C1352 1.368 . S
C1333 H1357 0.949 . S
H1334 C1338 0.949 . S
C1335 C1336 1.349 . S
C1335 C1337 1.327 . S
C1335 H1358 0.950 . S
C1336 C1335 1.349 . S
C1336 C1348 1.349 . S
C1337 C1335 1.327 . S
C1337 C1353 1.429 . S
C1337 H1359 0.950 . S
C1338 H1334 0.949 . S
C1338 C1346 1.574 . S
C1338 C1354 1.368 . S
H1339 C1347 0.950 . S
H1340 C1345 0.950 . S
H1341 C1346 0.949 . S
H1342 C1348 0.950 . S
H1343 C1349 0.950 . S
H1344 C1350 0.949 . S
C1345 H1340 0.950 . S
C1345 C1347 1.327 . S
C1345 C1351 1.429 . S
C1346 C1338 1.574 . S
C1346 H1341 0.949 . S
C1346 C1352 1.368 . S
C1347 C1331 1.349 . S
C1347 H1339 0.950 . S
C1347 C1345 1.327 . S
C1348 C1336 1.349 . S
C1348 H1342 0.950 . S
C1348 C1349 1.327 . S
C1349 H1343 0.950 . S
C1349 C1348 1.327 . S
C1349 C1353 1.429 . S
C1350 C1333 1.574 . S
C1350 H1344 0.949 . S
C1350 C1354 1.368 . S
C1351 C1332 1.429 . S
C1351 C1345 1.429 . S
C1351 C1352 1.523 . S
C1352 C1333 1.368 . S
C1352 C1346 1.368 . S
C1352 C1351 1.523 . S
C1353 C1337 1.429 . S
C1353 C1349 1.429 . S
C1353 C1354 1.523 . S
C1354 C1338 1.368 . S
C1354 C1350 1.368 . S
C1354 C1353 1.523 . S
H1355 C1330 0.950 . S
H1356 C1332 0.950 . S
H1357 C1333 0.949 . S
H1358 C1335 0.950 . S
H1359 C1337 0.950 . S
C1360 C1361 1.349 . S
C1360 C1362 1.327 . S
C1360 H1385 0.950 . S
C1361 C1360 1.349 . S
C1361 C1377 1.349 . S
C1362 C1360 1.327 . S
C1362 C1381 1.429 . S
C1362 H1386 0.950 . S
C1363 C1380 1.574 . S
C1363 C1382 1.368 . S
C1363 H1387 0.949 . S
H1364 C1368 0.949 . S
C1365 C1366 1.349 . S
C1365 C1367 1.327 . S
C1365 H1388 0.950 . S
C1366 C1365 1.349 . S
C1366 C1378 1.349 . S
C1367 C1365 1.327 . S
C1367 C1383 1.429 . S
C1367 H1389 0.950 . S
C1368 H1364 0.949 . S
C1368 C1376 1.574 . S
C1368 C1384 1.368 . S
H1369 C1377 0.950 . S
H1370 C1375 0.950 . S
H1371 C1376 0.949 . S
H1372 C1378 0.950 . S
H1373 C1379 0.950 . S
H1374 C1380 0.949 . S
C1375 H1370 0.950 . S
C1375 C1377 1.327 . S
C1375 C1381 1.429 . S
C1376 C1368 1.574 . S
C1376 H1371 0.949 . S
C1376 C1382 1.368 . S
C1377 C1361 1.349 . S
C1377 H1369 0.950 . S
C1377 C1375 1.327 . S
C1378 C1366 1.349 . S
C1378 H1372 0.950 . S
C1378 C1379 1.327 . S
C1379 H1373 0.950 . S
C1379 C1378 1.327 . S
C1379 C1383 1.429 . S
C1380 C1363 1.574 . S
C1380 H1374 0.949 . S
C1380 C1384 1.368 . S
C1381 C1362 1.429 . S
C1381 C1375 1.429 . S
C1381 C1382 1.523 . S
C1382 C1363 1.368 . S
C1382 C1376 1.368 . S
C1382 C1381 1.523 . S
C1383 C1367 1.429 . S
C1383 C1379 1.429 . S
C1383 C1384 1.523 . S
C1384 C1368 1.368 . S
C1384 C1380 1.368 . S
C1384 C1383 1.523 . S
H1385 C1360 0.950 . S
H1386 C1362 0.950 . S
H1387 C1363 0.949 . S
H1388 C1365 0.950 . S
H1389 C1367 0.950 . S
C1390 C1391 1.349 . S
C1390 C1392 1.327 . S
C1390 H1415 0.950 . S
C1391 C1390 1.349 . S
C1391 C1407 1.349 . S
C1392 C1390 1.327 . S
C1392 C1411 1.429 . S
C1392 H1416 0.950 . S
C1393 C1410 1.574 . S
C1393 C1412 1.368 . S
C1393 H1417 0.949 . S
H1394 C1398 0.949 . S
C1395 C1396 1.349 . S
C1395 C1397 1.327 . S
C1395 H1418 0.950 . S
C1396 C1395 1.349 . S
C1396 C1408 1.349 . S
C1397 C1395 1.327 . S
C1397 C1413 1.429 . S
C1397 H1419 0.950 . S
C1398 H1394 0.949 . S
C1398 C1406 1.574 . S
C1398 C1414 1.368 . S
H1399 C1407 0.950 . S
H1400 C1405 0.950 . S
H1401 C1406 0.949 . S
H1402 C1408 0.950 . S
H1403 C1409 0.950 . S
H1404 C1410 0.949 . S
C1405 H1400 0.950 . S
C1405 C1407 1.327 . S
C1405 C1411 1.429 . S
C1406 C1398 1.574 . S
C1406 H1401 0.949 . S
C1406 C1412 1.368 . S
C1407 C1391 1.349 . S
C1407 H1399 0.950 . S
C1407 C1405 1.327 . S
C1408 C1396 1.349 . S
C1408 H1402 0.950 . S
C1408 C1409 1.327 . S
C1409 H1403 0.950 . S
C1409 C1408 1.327 . S
C1409 C1413 1.429 . S
C1410 C1393 1.574 . S
C1410 H1404 0.949 . S
C1410 C1414 1.368 . S
C1411 C1392 1.429 . S
C1411 C1405 1.429 . S
C1411 C1412 1.523 . S
C1412 C1393 1.368 . S
C1412 C1406 1.368 . S
C1412 C1411 1.523 . S
C1413 C1397 1.429 . S
C1413 C1409 1.429 . S
C1413 C1414 1.523 . S
C1414 C1398 1.368 . S
C1414 C1410 1.368 . S
C1414 C1413 1.523 . S
H1415 C1390 0.950 . S
H1416 C1392 0.950 . S
H1417 C1393 0.949 . S
H1418 C1395 0.950 . S
H1419 C1397 0.950 . S
C1420 C1421 1.349 . S
C1420 C1422 1.327 . S
C1420 H1445 0.950 . S
C1421 C1420 1.349 . S
C1421 C1437 1.349 . S
C1422 C1420 1.327 . S
C1422 C1441 1.429 . S
C1422 H1446 0.950 . S
C1423 C1440 1.574 . S
C1423 C1442 1.368 . S
C1423 H1447 0.949 . S
H1424 C1428 0.949 . S
C1425 C1426 1.349 . S
C1425 C1427 1.327 . S
C1425 H1448 0.950 . S
C1426 C1425 1.349 . S
C1426 C1438 1.349 . S
C1427 C1425 1.327 . S
C1427 C1443 1.429 . S
C1427 H1449 0.950 . S
C1428 H1424 0.949 . S
C1428 C1436 1.574 . S
C1428 C1444 1.368 . S
H1429 C1437 0.950 . S
H1430 C1435 0.950 . S
H1431 C1436 0.949 . S
H1432 C1438 0.950 . S
H1433 C1439 0.950 . S
H1434 C1440 0.949 . S
C1435 H1430 0.950 . S
C1435 C1437 1.327 . S
C1435 C1441 1.429 . S
C1436 C1428 1.574 . S
C1436 H1431 0.949 . S
C1436 C1442 1.368 . S
C1437 C1421 1.349 . S
C1437 H1429 0.950 . S
C1437 C1435 1.327 . S
C1438 C1426 1.349 . S
C1438 H1432 0.950 . S
C1438 C1439 1.327 . S
C1439 H1433 0.950 . S
C1439 C1438 1.327 . S
C1439 C1443 1.429 . S
C1440 C1423 1.574 . S
C1440 H1434 0.949 . S
C1440 C1444 1.368 . S
C1441 C1422 1.429 . S
C1441 C1435 1.429 . S
C1441 C1442 1.523 . S
C1442 C1423 1.368 . S
C1442 C1436 1.368 . S
C1442 C1441 1.523 . S
C1443 C1427 1.429 . S
C1443 C1439 1.429 . S
C1443 C1444 1.523 . S
C1444 C1428 1.368 . S
C1444 C1440 1.368 . S
C1444 C1443 1.523 . S
H1445 C1420 0.950 . S
H1446 C1422 0.950 . S
H1447 C1423 0.949 . S
H1448 C1425 0.950 . S
H1449 C1427 0.950 . S
C1450 C1451 1.349 . S
C1450 C1452 1.327 . S
C1450 H1475 0.950 . S
C1451 C1450 1.349 . S
C1451 C1467 1.349 . S
C1452 C1450 1.327 . S
C1452 C1471 1.429 . S
C1452 H1476 0.950 . S
C1453 C1470 1.574 . S
C1453 C1472 1.368 . S
C1453 H1477 0.949 . S
H1454 C1458 0.949 . S
C1455 C1456 1.349 . S
C1455 C1457 1.327 . S
C1455 H1478 0.950 . S
C1456 C1455 1.349 . S
C1456 C1468 1.349 . S
C1457 C1455 1.327 . S
C1457 C1473 1.429 . S
C1457 H1479 0.950 . S
C1458 H1454 0.949 . S
C1458 C1466 1.574 . S
C1458 C1474 1.368 . S
H1459 C1467 0.950 . S
H1460 C1465 0.950 . S
H1461 C1466 0.949 . S
H1462 C1468 0.950 . S
H1463 C1469 0.950 . S
H1464 C1470 0.949 . S
C1465 H1460 0.950 . S
C1465 C1467 1.327 . S
C1465 C1471 1.429 . S
C1466 C1458 1.574 . S
C1466 H1461 0.949 . S
C1466 C1472 1.368 . S
C1467 C1451 1.349 . S
C1467 H1459 0.950 . S
C1467 C1465 1.327 . S
C1468 C1456 1.349 . S
C1468 H1462 0.950 . S
C1468 C1469 1.327 . S
C1469 H1463 0.950 . S
C1469 C1468 1.327 . S
C1469 C1473 1.429 . S
C1470 C1453 1.574 . S
C1470 H1464 0.949 . S
C1470 C1474 1.368 . S
C1471 C1452 1.429 . S
C1471 C1465 1.429 . S
C1471 C1472 1.523 . S
C1472 C1453 1.368 . S
C1472 C1466 1.368 . S
C1472 C1471 1.523 . S
C1473 C1457 1.429 . S
C1473 C1469 1.429 . S
C1473 C1474 1.523 . S
C1474 C1458 1.368 . S
C1474 C1470 1.368 . S
C1474 C1473 1.523 . S
H1475 C1450 0.950 . S
H1476 C1452 0.950 . S
H1477 C1453 0.949 . S
H1478 C1455 0.950 . S
H1479 C1457 0.950 . S
C1480 C1481 1.349 . S
C1480 C1482 1.327 . S
C1480 H1505 0.950 . S
C1481 C1480 1.349 . S
C1481 C1497 1.349 . S
C1482 C1480 1.327 . S
C1482 C1501 1.429 . S
C1482 H1506 0.950 . S
C1483 C1500 1.574 . S
C1483 C1502 1.368 . S
C1483 H1507 0.949 . S
H1484 C1488 0.949 . S
C1485 C1486 1.349 . S
C1485 C1487 1.327 . S
C1485 H1508 0.950 . S
C1486 C1485 1.349 . S
C1486 C1498 1.349 . S
C1487 C1485 1.327 . S
C1487 C1503 1.429 . S
C1487 H1509 0.950 . S
C1488 H1484 0.949 . S
C1488 C1496 1.574 . S
C1488 C1504 1.368 . S
H1489 C1497 0.950 . S
H1490 C1495 0.950 . S
H1491 C1496 0.949 . S
H1492 C1498 0.950 . S
H1493 C1499 0.950 . S
H1494 C1500 0.949 . S
C1495 H1490 0.950 . S
C1495 C1497 1.327 . S
C1495 C1501 1.429 . S
C1496 C1488 1.574 . S
C1496 H1491 0.949 . S
C1496 C1502 1.368 . S
C1497 C1481 1.349 . S
C1497 H1489 0.950 . S
C1497 C1495 1.327 . S
C1498 C1486 1.349 . S
C1498 H1492 0.950 . S
C1498 C1499 1.327 . S
C1499 H1493 0.950 . S
C1499 C1498 1.327 . S
C1499 C1503 1.429 . S
C1500 C1483 1.574 . S
C1500 H1494 0.949 . S
C1500 C1504 1.368 . S
C1501 C1482 1.429 . S
C1501 C1495 1.429 . S
C1501 C1502 1.523 . S
C1502 C1483 1.368 . S
C1502 C1496 1.368 . S
C1502 C1501 1.523 . S
C1503 C1487 1.429 . S
C1503 C1499 1.429 . S
C1503 C1504 1.523 . S
C1504 C1488 1.368 . S
C1504 C1500 1.368 . S
C1504 C1503 1.523 . S
H1505 C1480 0.950 . S
H1506 C1482 0.950 . S
H1507 C1483 0.949 . S
H1508 C1485 0.950 . S
H1509 C1487 0.950 . S
C1510 C1511 1.349 . S
C1510 C1512 1.327 . S
C1510 H1535 0.950 . S
C1511 C1510 1.349 . S
C1511 C1527 1.349 . S
C1512 C1510 1.327 . S
C1512 C1531 1.429 . S
C1512 H1536 0.950 . S
C1513 C1530 1.574 . S
C1513 C1532 1.368 . S
C1513 H1537 0.949 . S
H1514 C1518 0.949 . S
C1515 C1516 1.349 . S
C1515 C1517 1.327 . S
C1515 H1538 0.950 . S
C1516 C1515 1.349 . S
C1516 C1528 1.349 . S
C1517 C1515 1.327 . S
C1517 C1533 1.429 . S
C1517 H1539 0.950 . S
C1518 H1514 0.949 . S
C1518 C1526 1.574 . S
C1518 C1534 1.368 . S
H1519 C1527 0.950 . S
H1520 C1525 0.950 . S
H1521 C1526 0.949 . S
H1522 C1528 0.950 . S
H1523 C1529 0.950 . S
H1524 C1530 0.949 . S
C1525 H1520 0.950 . S
C1525 C1527 1.327 . S
C1525 C1531 1.429 . S
C1526 C1518 1.574 . S
C1526 H1521 0.949 . S
C1526 C1532 1.368 . S
C1527 C1511 1.349 . S
C1527 H1519 0.950 . S
C1527 C1525 1.327 . S
C1528 C1516 1.349 . S
C1528 H1522 0.950 . S
C1528 C1529 1.327 . S
C1529 H1523 0.950 . S
C1529 C1528 1.327 . S
C1529 C1533 1.429 . S
C1530 C1513 1.574 . S
C1530 H1524 0.949 . S
C1530 C1534 1.368 . S
C1531 C1512 1.429 . S
C1531 C1525 1.429 . S
C1531 C1532 1.523 . S
C1532 C1513 1.368 . S
C1532 C1526 1.368 . S
C1532 C1531 1.523 . S
C1533 C1517 1.429 . S
C1533 C1529 1.429 . S
C1533 C1534 1.523 . S
C1534 C1518 1.368 . S
C1534 C1530 1.368 . S
C1534 C1533 1.523 . S
H1535 C1510 0.950 . S
H1536 C1512 0.950 . S
H1537 C1513 0.949 . S
H1538 C1515 0.950 . S
H1539 C1517 0.950 . S
C1540 C1541 1.349 . S
C1540 C1542 1.327 . S
C1540 H1565 0.950 . S
C1541 C1540 1.349 . S
C1541 C1557 1.349 . S
C1542 C1540 1.327 . S
C1542 C1561 1.429 . S
C1542 H1566 0.950 . S
C1543 C1560 1.574 . S
C1543 C1562 1.368 . S
C1543 H1567 0.949 . S
H1544 C1548 0.949 . S
C1545 C1546 1.349 . S
C1545 C1547 1.327 . S
C1545 H1568 0.950 . S
C1546 C1545 1.349 . S
C1546 C1558 1.349 . S
C1547 C1545 1.327 . S
C1547 C1563 1.429 . S
C1547 H1569 0.950 . S
C1548 H1544 0.949 . S
C1548 C1556 1.574 . S
C1548 C1564 1.368 . S
H1549 C1557 0.950 . S
H1550 C1555 0.950 . S
H1551 C1556 0.949 . S
H1552 C1558 0.950 . S
H1553 C1559 0.950 . S
H1554 C1560 0.949 . S
C1555 H1550 0.950 . S
C1555 C1557 1.327 . S
C1555 C1561 1.429 . S
C1556 C1548 1.574 . S
C1556 H1551 0.949 . S
C1556 C1562 1.368 . S
C1557 C1541 1.349 . S
C1557 H1549 0.950 . S
C1557 C1555 1.327 . S
C1558 C1546 1.349 . S
C1558 H1552 0.950 . S
C1558 C1559 1.327 . S
C1559 H1553 0.950 . S
C1559 C1558 1.327 . S
C1559 C1563 1.429 . S
C1560 C1543 1.574 . S
C1560 H1554 0.949 . S
C1560 C1564 1.368 . S
C1561 C1542 1.429 . S
C1561 C1555 1.429 . S
C1561 C1562 1.523 . S
C1562 C1543 1.368 . S
C1562 C1556 1.368 . S
C1562 C1561 1.523 . S
C1563 C1547 1.429 . S
C1563 C1559 1.429 . S
C1563 C1564 1.523 . S
C1564 C1548 1.368 . S
C1564 C1560 1.368 . S
C1564 C1563 1.523 . S
H1565 C1540 0.950 . S
H1566 C1542 0.950 . S
H1567 C1543 0.949 . S
H1568 C1545 0.950 . S
H1569 C1547 0.950 . S
C1570 C1571 1.349 . S
C1570 C1572 1.327 . S
C1570 H1595 0.950 . S
C1571 C1570 1.349 . S
C1571 C1587 1.349 . S
C1572 C1570 1.327 . S
C1572 C1591 1.429 . S
C1572 H1596 0.950 . S
C1573 C1590 1.574 . S
C1573 C1592 1.368 . S
C1573 H1597 0.949 . S
H1574 C1578 0.949 . S
C1575 C1576 1.349 . S
C1575 C1577 1.327 . S
C1575 H1598 0.950 . S
C1576 C1575 1.349 . S
C1576 C1588 1.349 . S
C1577 C1575 1.327 . S
C1577 C1593 1.429 . S
C1577 H1599 0.950 . S
C1578 H1574 0.949 . S
C1578 C1586 1.574 . S
C1578 C1594 1.368 . S
H1579 C1587 0.950 . S
H1580 C1585 0.950 . S
H1581 C1586 0.949 . S
H1582 C1588 0.950 . S
H1583 C1589 0.950 . S
H1584 C1590 0.949 . S
C1585 H1580 0.950 . S
C1585 C1587 1.327 . S
C1585 C1591 1.429 . S
C1586 C1578 1.574 . S
C1586 H1581 0.949 . S
C1586 C1592 1.368 . S
C1587 C1571 1.349 . S
C1587 H1579 0.950 . S
C1587 C1585 1.327 . S
C1588 C1576 1.349 . S
C1588 H1582 0.950 . S
C1588 C1589 1.327 . S
C1589 H1583 0.950 . S
C1589 C1588 1.327 . S
C1589 C1593 1.429 . S
C1590 C1573 1.574 . S
C1590 H1584 0.949 . S
C1590 C1594 1.368 . S
C1591 C1572 1.429 . S
C1591 C1585 1.429 . S
C1591 C1592 1.523 . S
C1592 C1573 1.368 . S
C1592 C1586 1.368 . S
C1592 C1591 1.523 . S
C1593 C1577 1.429 . S
C1593 C1589 1.429 . S
C1593 C1594 1.523 . S
C1594 C1578 1.368 . S
C1594 C1590 1.368 . S
C1594 C1593 1.523 . S
H1595 C1570 0.950 . S
H1596 C1572 0.950 . S
H1597 C1573 0.949 . S
H1598 C1575 0.950 . S
H1599 C1577 0.950 . S
C1600 C1601 1.349 . S
C1600 C1602 1.327 . S
C1600 H1625 0.950 . S
C1601 C1600 1.349 . S
C1601 C1617 1.349 . S
C1602 C1600 1.327 . S
C1602 C1621 1.429 . S
C1602 H1626 0.950 . S
C1603 C1620 1.574 . S
C1603 C1622 1.368 . S
C1603 H1627 0.949 . S
H1604 C1608 0.949 . S
C1605 C1606 1.349 . S
C1605 C1607 1.327 . S
C1605 H1628 0.950 . S
C1606 C1605 1.349 . S
C1606 C1618 1.349 . S
C1607 C1605 1.327 . S
C1607 C1623 1.429 . S
C1607 H1629 0.950 . S
C1608 H1604 0.949 . S
C1608 C1616 1.574 . S
C1608 C1624 1.368 . S
H1609 C1617 0.950 . S
H1610 C1615 0.950 . S
H1611 C1616 0.949 . S
H1612 C1618 0.950 . S
H1613 C1619 0.950 . S
H1614 C1620 0.949 . S
C1615 H1610 0.950 . S
C1615 C1617 1.327 . S
C1615 C1621 1.429 . S
C1616 C1608 1.574 . S
C1616 H1611 0.949 . S
C1616 C1622 1.368 . S
C1617 C1601 1.349 . S
C1617 H1609 0.950 . S
C1617 C1615 1.327 . S
C1618 C1606 1.349 . S
C1618 H1612 0.950 . S
C1618 C1619 1.327 . S
C1619 H1613 0.950 . S
C1619 C1618 1.327 . S
C1619 C1623 1.429 . S
C1620 C1603 1.574 . S
C1620 H1614 0.949 . S
C1620 C1624 1.368 . S
C1621 C1602 1.429 . S
C1621 C1615 1.429 . S
C1621 C1622 1.523 . S
C1622 C1603 1.368 . S
C1622 C1616 1.368 . S
C1622 C1621 1.523 . S
C1623 C1607 1.429 . S
C1623 C1619 1.429 . S
C1623 C1624 1.523 . S
C1624 C1608 1.368 . S
C1624 C1620 1.368 . S
C1624 C1623 1.523 . S
H1625 C1600 0.950 . S
H1626 C1602 0.950 . S
H1627 C1603 0.949 . S
H1628 C1605 0.950 . S
H1629 C1607 0.950 . S
C1630 C1631 1.349 . S
C1630 C1632 1.327 . S
C1630 H1655 0.950 . S
C1631 C1630 1.349 . S
C1631 C1647 1.349 . S
C1632 C1630 1.327 . S
C1632 C1651 1.429 . S
C1632 H1656 0.950 . S
C1633 C1650 1.574 . S
C1633 C1652 1.368 . S
C1633 H1657 0.949 . S
H1634 C1638 0.949 . S
C1635 C1636 1.349 . S
C1635 C1637 1.327 . S
C1635 H1658 0.950 . S
C1636 C1635 1.349 . S
C1636 C1648 1.349 . S
C1637 C1635 1.327 . S
C1637 C1653 1.429 . S
C1637 H1659 0.950 . S
C1638 H1634 0.949 . S
C1638 C1646 1.574 . S
C1638 C1654 1.368 . S
H1639 C1647 0.950 . S
H1640 C1645 0.950 . S
H1641 C1646 0.949 . S
H1642 C1648 0.950 . S
H1643 C1649 0.950 . S
H1644 C1650 0.949 . S
C1645 H1640 0.950 . S
C1645 C1647 1.327 . S
C1645 C1651 1.429 . S
C1646 C1638 1.574 . S
C1646 H1641 0.949 . S
C1646 C1652 1.368 . S
C1647 C1631 1.349 . S
C1647 H1639 0.950 . S
C1647 C1645 1.327 . S
C1648 C1636 1.349 . S
C1648 H1642 0.950 . S
C1648 C1649 1.327 . S
C1649 H1643 0.950 . S
C1649 C1648 1.327 . S
C1649 C1653 1.429 . S
C1650 C1633 1.574 . S
C1650 H1644 0.949 . S
C1650 C1654 1.368 . S
C1651 C1632 1.429 . S
C1651 C1645 1.429 . S
C1651 C1652 1.523 . S
C1652 C1633 1.368 . S
C1652 C1646 1.368 . S
C1652 C1651 1.523 . S
C1653 C1637 1.429 . S
C1653 C1649 1.429 . S
C1653 C1654 1.523 . S
C1654 C1638 1.368 . S
C1654 C1650 1.368 . S
C1654 C1653 1.523 . S
H1655 C1630 0.950 . S
H1656 C1632 0.950 . S
H1657 C1633 0.949 . S
H1658 C1635 0.950 . S
H1659 C1637 0.950 . S
C1660 C1661 1.349 . S
C1660 C1662 1.327 . S
C1660 H1685 0.950 . S
C1661 C1660 1.349 . S
C1661 C1677 1.349 . S
C1662 C1660 1.327 . S
C1662 C1681 1.429 . S
C1662 H1686 0.950 . S
C1663 C1680 1.574 . S
C1663 C1682 1.368 . S
C1663 H1687 0.949 . S
H1664 C1668 0.949 . S
C1665 C1666 1.349 . S
C1665 C1667 1.327 . S
C1665 H1688 0.950 . S
C1666 C1665 1.349 . S
C1666 C1678 1.349 . S
C1667 C1665 1.327 . S
C1667 C1683 1.429 . S
C1667 H1689 0.950 . S
C1668 H1664 0.949 . S
C1668 C1676 1.574 . S
C1668 C1684 1.368 . S
H1669 C1677 0.950 . S
H1670 C1675 0.950 . S
H1671 C1676 0.949 . S
H1672 C1678 0.950 . S
H1673 C1679 0.950 . S
H1674 C1680 0.949 . S
C1675 H1670 0.950 . S
C1675 C1677 1.327 . S
C1675 C1681 1.429 . S
C1676 C1668 1.574 . S
C1676 H1671 0.949 . S
C1676 C1682 1.368 . S
C1677 C1661 1.349 . S
C1677 H1669 0.950 . S
C1677 C1675 1.327 . S
C1678 C1666 1.349 . S
C1678 H1672 0.950 . S
C1678 C1679 1.327 . S
C1679 H1673 0.950 . S
C1679 C1678 1.327 . S
C1679 C1683 1.429 . S
C1680 C1663 1.574 . S
C1680 H1674 0.949 . S
C1680 C1684 1.368 . S
C1681 C1662 1.429 . S
C1681 C1675 1.429 . S
C1681 C1682 1.523 . S
C1682 C1663 1.368 . S
C1682 C1676 1.368 . S
C1682 C1681 1.523 . S
C1683 C1667 1.429 . S
C1683 C1679 1.429 . S
C1683 C1684 1.523 . S
C1684 C1668 1.368 . S
C1684 C1680 1.368 . S
C1684 C1683 1.523 . S
H1685 C1660 0.950 . S
H1686 C1662 0.950 . S
H1687 C1663 0.949 . S
H1688 C1665 0.950 . S
H1689 C1667 0.950 . S
C1690 C1691 1.349 . S
C1690 C1692 1.327 . S
C1690 H1715 0.950 . S
C1691 C1690 1.349 . S
C1691 C1707 1.349 . S
C1692 C1690 1.327 . S
C1692 C1711 1.429 . S
C1692 H1716 0.950 . S
C1693 C1710 1.574 . S
C1693 C1712 1.368 . S
C1693 H1717 0.949 . S
H1694 C1698 0.949 . S
C1695 C1696 1.349 . S
C1695 C1697 1.327 . S
C1695 H1718 0.950 . S
C1696 C1695 1.349 . S
C1696 C1708 1.349 . S
C1697 C1695 1.327 . S
C1697 C1713 1.429 . S
C1697 H1719 0.950 . S
C1698 H1694 0.949 . S
C1698 C1706 1.574 . S
C1698 C1714 1.368 . S
H1699 C1707 0.950 . S
H1700 C1705 0.950 . S
H1701 C1706 0.949 . S
H1702 C1708 0.950 . S
H1703 C1709 0.950 . S
H1704 C1710 0.949 . S
C1705 H1700 0.950 . S
C1705 C1707 1.327 . S
C1705 C1711 1.429 . S
C1706 C1698 1.574 . S
C1706 H1701 0.949 . S
C1706 C1712 1.368 . S
C1707 C1691 1.349 . S
C1707 H1699 0.950 . S
C1707 C1705 1.327 . S
C1708 C1696 1.349 . S
C1708 H1702 0.950 . S
C1708 C1709 1.327 . S
C1709 H1703 0.950 . S
C1709 C1708 1.327 . S
C1709 C1713 1.429 . S
C1710 C1693 1.574 . S
C1710 H1704 0.949 . S
C1710 C1714 1.368 . S
C1711 C1692 1.429 . S
C1711 C1705 1.429 . S
C1711 C1712 1.523 . S
C1712 C1693 1.368 . S
C1712 C1706 1.368 . S
C1712 C1711 1.523 . S
C1713 C1697 1.429 . S
C1713 C1709 1.429 . S
C1713 C1714 1.523 . S
C1714 C1698 1.368 . S
C1714 C1710 1.368 . S
C1714 C1713 1.523 . S
H1715 C1690 0.950 . S
H1716 C1692 0.950 . S
H1717 C1693 0.949 . S
H1718 C1695 0.950 . S
H1719 C1697 0.950 . S
C1720 C1721 1.349 . S
C1720 C1722 1.327 . S
C1720 H1745 0.950 . S
C1721 C1720 1.349 . S
C1721 C1737 1.349 . S
C1722 C1720 1.327 . S
C1722 C1741 1.429 . S
C1722 H1746 0.950 . S
C1723 C1740 1.574 . S
C1723 C1742 1.368 . S
C1723 H1747 0.949 . S
H1724 C1728 0.949 . S
C1725 C1726 1.349 . S
C1725 C1727 1.327 . S
C1725 H1748 0.950 . S
C1726 C1725 1.349 . S
C1726 C1738 1.349 . S
C1727 C1725 1.327 . S
C1727 C1743 1.429 . S
C1727 H1749 0.950 . S
C1728 H1724 0.949 . S
C1728 C1736 1.574 . S
C1728 C1744 1.368 . S
H1729 C1737 0.950 . S
H1730 C1735 0.950 . S
H1731 C1736 0.949 . S
H1732 C1738 0.950 . S
H1733 C1739 0.950 . S
H1734 C1740 0.949 . S
C1735 H1730 0.950 . S
C1735 C1737 1.327 . S
C1735 C1741 1.429 . S
C1736 C1728 1.574 . S
C1736 H1731 0.949 . S
C1736 C1742 1.368 . S
C1737 C1721 1.349 . S
C1737 H1729 0.950 . S
C1737 C1735 1.327 . S
C1738 C1726 1.349 . S
C1738 H1732 0.950 . S
C1738 C1739 1.327 . S
C1739 H1733 0.950 . S
C1739 C1738 1.327 . S
C1739 C1743 1.429 . S
C1740 C1723 1.574 . S
C1740 H1734 0.949 . S
C1740 C1744 1.368 . S
C1741 C1722 1.429 . S
C1741 C1735 1.429 . S
C1741 C1742 1.523 . S
C1742 C1723 1.368 . S
C1742 C1736 1.368 . S
C1742 C1741 1.523 . S
C1743 C1727 1.429 . S
C1743 C1739 1.429 . S
C1743 C1744 1.523 . S
C1744 C1728 1.368 . S
C1744 C1740 1.368 . S
C1744 C1743 1.523 . S
H1745 C1720 0.950 . S
H1746 C1722 0.950 . S
H1747 C1723 0.949 . S
H1748 C1725 0.950 . S
H1749 C1727 0.950 . S
C1750 C1751 1.349 . S
C1750 C1752 1.327 . S
C1750 H1775 0.950 . S
C1751 C1750 1.349 . S
C1751 C1767 1.349 . S
C1752 C1750 1.327 . S
C1752 C1771 1.429 . S
C1752 H1776 0.950 . S
C1753 C1770 1.574 . S
C1753 C1772 1.368 . S
C1753 H1777 0.949 . S
H1754 C1758 0.949 . S
C1755 C1756 1.349 . S
C1755 C1757 1.327 . S
C1755 H1778 0.950 . S
C1756 C1755 1.349 . S
C1756 C1768 1.349 . S
C1757 C1755 1.327 . S
C1757 C1773 1.429 . S
C1757 H1779 0.950 . S
C1758 H1754 0.949 . S
C1758 C1766 1.574 . S
C1758 C1774 1.368 . S
H1759 C1767 0.950 . S
H1760 C1765 0.950 . S
H1761 C1766 0.949 . S
H1762 C1768 0.950 . S
H1763 C1769 0.950 . S
H1764 C1770 0.949 . S
C1765 H1760 0.950 . S
C1765 C1767 1.327 . S
C1765 C1771 1.429 . S
C1766 C1758 1.574 . S
C1766 H1761 0.949 . S
C1766 C1772 1.368 . S
C1767 C1751 1.349 . S
C1767 H1759 0.950 . S
C1767 C1765 1.327 . S
C1768 C1756 1.349 . S
C1768 H1762 0.950 . S
C1768 C1769 1.327 . S
C1769 H1763 0.950 . S
C1769 C1768 1.327 . S
C1769 C1773 1.429 . S
C1770 C1753 1.574 . S
C1770 H1764 0.949 . S
C1770 C1774 1.368 . S
C1771 C1752 1.429 . S
C1771 C1765 1.429 . S
C1771 C1772 1.523 . S
C1772 C1753 1.368 . S
C1772 C1766 1.368 . S
C1772 C1771 1.523 . S
C1773 C1757 1.429 . S
C1773 C1769 1.429 . S
C1773 C1774 1.523 . S
C1774 C1758 1.368 . S
C1774 C1770 1.368 . S
C1774 C1773 1.523 . S
H1775 C1750 0.950 . S
H1776 C1752 0.950 . S
H1777 C1753 0.949 . S
H1778 C1755 0.950 . S
H1779 C1757 0.950 . S
C1780 C1781 1.349 . S
C1780 C1782 1.327 . S
C1780 H1805 0.950 . S
C1781 C1780 1.349 . S
C1781 C1797 1.349 . S
C1782 C1780 1.327 . S
C1782 C1801 1.429 . S
C1782 H1806 0.950 . S
C1783 C1800 1.574 . S
C1783 C1802 1.368 . S
C1783 H1807 0.949 . S
H1784 C1788 0.949 . S
C1785 C1786 1.349 . S
C1785 C1787 1.327 . S
C1785 H1808 0.950 . S
C1786 C1785 1.349 . S
C1786 C1798 1.349 . S
C1787 C1785 1.327 . S
C1787 C1803 1.429 . S
C1787 H1809 0.950 . S
C1788 H1784 0.949 . S
C1788 C1796 1.574 . S
C1788 C1804 1.368 . S
H1789 C1797 0.950 . S
H1790 C1795 0.950 . S
H1791 C1796 0.949 . S
H1792 C1798 0.950 . S
H1793 C1799 0.950 . S
H1794 C1800 0.949 . S
C1795 H1790 0.950 . S
C1795 C1797 1.327 . S
C1795 C1801 1.429 . S
C1796 C1788 1.574 . S
C1796 H1791 0.949 . S
C1796 C1802 1.368 . S
C1797 C1781 1.349 . S
C1797 H1789 0.950 . S
C1797 C1795 1.327 . S
C1798 C1786 1.349 . S
C1798 H1792 0.950 . S
C1798 C1799 1.327 . S
C1799 H1793 0.950 . S
C1799 C1798 1.327 . S
C1799 C1803 1.429 . S
C1800 C1783 1.574 . S
C1800 H1794 0.949 . S
C1800 C1804 1.368 . S
C1801 C1782 1.429 . S
C1801 C1795 1.429 . S
C1801 C1802 1.523 . S
C1802 C1783 1.368 . S
C1802 C1796 1.368 . S
C1802 C1801 1.523 . S
C1803 C1787 1.429 . S
C1803 C1799 1.429 . S
C1803 C1804 1.523 . S
C1804 C1788 1.368 . S
C1804 C1800 1.368 . S
C1804 C1803 1.523 . S
H1805 C1780 0.950 . S
H1806 C1782 0.950 . S
H1807 C1783 0.949 . S
H1808 C1785 0.950 . S
H1809 C1787 0.950 . S
C1810 C1811 1.349 . S
C1810 C1812 1.327 . S
C1810 H1835 0.950 . S
C1811 C1810 1.349 . S
C1811 C1827 1.349 . S
C1812 C1810 1.327 . S
C1812 C1831 1.429 . S
C1812 H1836 0.950 . S
C1813 C1830 1.574 . S
C1813 C1832 1.368 . S
C1813 H1837 0.949 . S
H1814 C1818 0.949 . S
C1815 C1816 1.349 . S
C1815 C1817 1.327 . S
C1815 H1838 0.950 . S
C1816 C1815 1.349 . S
C1816 C1828 1.349 . S
C1817 C1815 1.327 . S
C1817 C1833 1.429 . S
C1817 H1839 0.950 . S
C1818 H1814 0.949 . S
C1818 C1826 1.574 . S
C1818 C1834 1.368 . S
H1819 C1827 0.950 . S
H1820 C1825 0.950 . S
H1821 C1826 0.949 . S
H1822 C1828 0.950 . S
H1823 C1829 0.950 . S
H1824 C1830 0.949 . S
C1825 H1820 0.950 . S
C1825 C1827 1.327 . S
C1825 C1831 1.429 . S
C1826 C1818 1.574 . S
C1826 H1821 0.949 . S
C1826 C1832 1.368 . S
C1827 C1811 1.349 . S
C1827 H1819 0.950 . S
C1827 C1825 1.327 . S
C1828 C1816 1.349 . S
C1828 H1822 0.950 . S
C1828 C1829 1.327 . S
C1829 H1823 0.950 . S
C1829 C1828 1.327 . S
C1829 C1833 1.429 . S
C1830 C1813 1.574 . S
C1830 H1824 0.949 . S
C1830 C1834 1.368 . S
C1831 C1812 1.429 . S
C1831 C1825 1.429 . S
C1831 C1832 1.523 . S
C1832 C1813 1.368 . S
C1832 C1826 1.368 . S
C1832 C1831 1.523 . S
C1833 C1817 1.429 . S
C1833 C1829 1.429 . S
C1833 C1834 1.523 . S
C1834 C1818 1.368 . S
C1834 C1830 1.368 . S
C1834 C1833 1.523 . S
H1835 C1810 0.950 . S
H1836 C1812 0.950 . S
H1837 C1813 0.949 . S
H1838 C1815 0.950 . S
H1839 C1817 0.950 . S
C1840 C1841 1.349 . S
C1840 C1842 1.327 . S
C1840 H1865 0.950 . S
C1841 C1840 1.349 . S
C1841 C1857 1.349 . S
C1842 C1840 1.327 . S
C1842 C1861 1.429 . S
C1842 H1866 0.950 . S
C1843 C1860 1.574 . S
C1843 C1862 1.368 . S
C1843 H1867 0.949 . S
H1844 C1848 0.949 . S
C1845 C1846 1.349 . S
C1845 C1847 1.327 . S
C1845 H1868 0.950 . S
C1846 C1845 1.349 . S
C1846 C1858 1.349 . S
C1847 C1845 1.327 . S
C1847 C1863 1.429 . S
C1847 H1869 0.950 . S
C1848 H1844 0.949 . S
C1848 C1856 1.574 . S
C1848 C1864 1.368 . S
H1849 C1857 0.950 . S
H1850 C1855 0.950 . S
H1851 C1856 0.949 . S
H1852 C1858 0.950 . S
H1853 C1859 0.950 . S
H1854 C1860 0.949 . S
C1855 H1850 0.950 . S
C1855 C1857 1.327 . S
C1855 C1861 1.429 . S
C1856 C1848 1.574 . S
C1856 H1851 0.949 . S
C1856 C1862 1.368 . S
C1857 C1841 1.349 . S
C1857 H1849 0.950 . S
C1857 C1855 1.327 . S
C1858 C1846 1.349 . S
C1858 H1852 0.950 . S
C1858 C1859 1.327 . S
C1859 H1853 0.950 . S
C1859 C1858 1.327 . S
C1859 C1863 1.429 . S
C1860 C1843 1.574 . S
C1860 H1854 0.949 . S
C1860 C1864 1.368 . S
C1861 C1842 1.429 . S
C1861 C1855 1.429 . S
C1861 C1862 1.523 . S
C1862 C1843 1.368 . S
C1862 C1856 1.368 . S
C1862 C1861 1.523 . S
C1863 C1847 1.429 . S
C1863 C1859 1.429 . S
C1863 C1864 1.523 . S
C1864 C1848 1.368 . S
C1864 C1860 1.368 . S
C1864 C1863 1.523 . S
H1865 C1840 0.950 . S
H1866 C1842 0.950 . S
H1867 C1843 0.949 . S
H1868 C1845 0.950 . S
H1869 C1847 0.950 . S
C1870 C1871 1.349 . S
C1870 C1872 1.327 . S
C1870 H1895 0.950 . S
C1871 C1870 1.349 . S
C1871 C1887 1.349 . S
C1872 C1870 1.327 . S
C1872 C1891 1.429 . S
C1872 H1896 0.950 . S
C1873 C1890 1.574 . S
C1873 C1892 1.368 . S
C1873 H1897 0.949 . S
H1874 C1878 0.949 . S
C1875 C1876 1.349 . S
C1875 C1877 1.327 . S
C1875 H1898 0.950 . S
C1876 C1875 1.349 . S
C1876 C1888 1.349 . S
C1877 C1875 1.327 . S
C1877 C1893 1.429 . S
C1877 H1899 0.950 . S
C1878 H1874 0.949 . S
C1878 C1886 1.574 . S
C1878 C1894 1.368 . S
H1879 C1887 0.950 . S
H1880 C1885 0.950 . S
H1881 C1886 0.949 . S
H1882 C1888 0.950 . S
H1883 C1889 0.950 . S
H1884 C1890 0.949 . S
C1885 H1880 0.950 . S
C1885 C1887 1.327 . S
C1885 C1891 1.429 . S
C1886 C1878 1.574 . S
C1886 H1881 0.949 . S
C1886 C1892 1.368 . S
C1887 C1871 1.349 . S
C1887 H1879 0.950 . S
C1887 C1885 1.327 . S
C1888 C1876 1.349 . S
C1888 H1882 0.950 . S
C1888 C1889 1.327 . S
C1889 H1883 0.950 . S
C1889 C1888 1.327 . S
C1889 C1893 1.429 . S
C1890 C1873 1.574 . S
C1890 H1884 0.949 . S
C1890 C1894 1.368 . S
C1891 C1872 1.429 . S
C1891 C1885 1.429 . S
C1891 C1892 1.523 . S
C1892 C1873 1.368 . S
C1892 C1886 1.368 . S
C1892 C1891 1.523 . S
C1893 C1877 1.429 . S
C1893 C1889 1.429 . S
C1893 C1894 1.523 . S
C1894 C1878 1.368 . S
C1894 C1890 1.368 . S
C1894 C1893 1.523 . S
H1895 C1870 0.950 . S
H1896 C1872 0.950 . S
H1897 C1873 0.949 . S
H1898 C1875 0.950 . S
H1899 C1877 0.950 . S
C1900 C1901 1.349 . S
C1900 C1902 1.327 . S
C1900 H1925 0.950 . S
C1901 C1900 1.349 . S
C1901 C1917 1.349 . S
C1902 C1900 1.327 . S
C1902 C1921 1.429 . S
C1902 H1926 0.950 . S
C1903 C1920 1.574 . S
C1903 C1922 1.368 . S
C1903 H1927 0.949 . S
H1904 C1908 0.949 . S
C1905 C1906 1.349 . S
C1905 C1907 1.327 . S
C1905 H1928 0.950 . S
C1906 C1905 1.349 . S
C1906 C1918 1.349 . S
C1907 C1905 1.327 . S
C1907 C1923 1.429 . S
C1907 H1929 0.950 . S
C1908 H1904 0.949 . S
C1908 C1916 1.574 . S
C1908 C1924 1.368 . S
H1909 C1917 0.950 . S
H1910 C1915 0.950 . S
H1911 C1916 0.949 . S
H1912 C1918 0.950 . S
H1913 C1919 0.950 . S
H1914 C1920 0.949 . S
C1915 H1910 0.950 . S
C1915 C1917 1.327 . S
C1915 C1921 1.429 . S
C1916 C1908 1.574 . S
C1916 H1911 0.949 . S
C1916 C1922 1.368 . S
C1917 C1901 1.349 . S
C1917 H1909 0.950 . S
C1917 C1915 1.327 . S
C1918 C1906 1.349 . S
C1918 H1912 0.950 . S
C1918 C1919 1.327 . S
C1919 H1913 0.950 . S
C1919 C1918 1.327 . S
C1919 C1923 1.429 . S
C1920 C1903 1.574 . S
C1920 H1914 0.949 . S
C1920 C1924 1.368 . S
C1921 C1902 1.429 . S
C1921 C1915 1.429 . S
C1921 C1922 1.523 . S
C1922 C1903 1.368 . S
C1922 C1916 1.368 . S
C1922 C1921 1.523 . S
C1923 C1907 1.429 . S
C1923 C1919 1.429 . S
C1923 C1924 1.523 . S
C1924 C1908 1.368 . S
C1924 C1920 1.368 . S
C1924 C1923 1.523 . S
H1925 C1900 0.950 . S
H1926 C1902 0.950 . S
H1927 C1903 0.949 . S
H1928 C1905 0.950 . S
H1929 C1907 0.950 . S
C1930 C1931 1.349 . S
C1930 C1932 1.327 . S
C1930 H1955 0.950 . S
C1931 C1930 1.349 . S
C1931 C1947 1.349 . S
C1932 C1930 1.327 . S
C1932 C1951 1.429 . S
C1932 H1956 0.950 . S
C1933 C1950 1.574 . S
C1933 C1952 1.368 . S
C1933 H1957 0.949 . S
H1934 C1938 0.949 . S
C1935 C1936 1.349 . S
C1935 C1937 1.327 . S
C1935 H1958 0.950 . S
C1936 C1935 1.349 . S
C1936 C1948 1.349 . S
C1937 C1935 1.327 . S
C1937 C1953 1.429 . S
C1937 H1959 0.950 . S
C1938 H1934 0.949 . S
C1938 C1946 1.574 . S
C1938 C1954 1.368 . S
H1939 C1947 0.950 . S
H1940 C1945 0.950 . S
H1941 C1946 0.949 . S
H1942 C1948 0.950 . S
H1943 C1949 0.950 . S
H1944 C1950 0.949 . S
C1945 H1940 0.950 . S
C1945 C1947 1.327 . S
C1945 C1951 1.429 . S
C1946 C1938 1.574 . S
C1946 H1941 0.949 . S
C1946 C1952 1.368 . S
C1947 C1931 1.349 . S
C1947 H1939 0.950 . S
C1947 C1945 1.327 . S
C1948 C1936 1.349 . S
C1948 H1942 0.950 . S
C1948 C1949 1.327 . S
C1949 H1943 0.950 . S
C1949 C1948 1.327 . S
C1949 C1953 1.429 . S
C1950 C1933 1.574 . S
C1950 H1944 0.949 . S
C1950 C1954 1.368 . S
C1951 C1932 1.429 . S
C1951 C1945 1.429 . S
C1951 C1952 1.523 . S
C1952 C1933 1.368 . S
C1952 C1946 1.368 . S
C1952 C1951 1.523 . S
C1953 C1937 1.429 . S
C1953 C1949 1.429 . S
C1953 C1954 1.523 . S
C1954 C1938 1.368 . S
C1954 C1950 1.368 . S
C1954 C1953 1.523 . S
H1955 C1930 0.950 . S
H1956 C1932 0.950 . S
H1957 C1933 0.949 . S
H1958 C1935 0.950 . S
H1959 C1937 0.950 . S
C1960 C1961 1.349 . S
C1960 C1962 1.327 . S
C1960 H1985 0.950 . S
C1961 C1960 1.349 . S
C1961 C1977 1.349 . S
C1962 C1960 1.327 . S
C1962 C1981 1.429 . S
C1962 H1986 0.950 . S
C1963 C1980 1.574 . S
C1963 C1982 1.368 . S
C1963 H1987 0.949 . S
H1964 C1968 0.949 . S
C1965 C1966 1.349 . S
C1965 C1967 1.327 . S
C1965 H1988 0.950 . S
C1966 C1965 1.349 . S
C1966 C1978 1.349 . S
C1967 C1965 1.327 . S
C1967 C1983 1.429 . S
C1967 H1989 0.950 . S
C1968 H1964 0.949 . S
C1968 C1976 1.574 . S
C1968 C1984 1.368 . S
H1969 C1977 0.950 . S
H1970 C1975 0.950 . S
H1971 C1976 0.949 . S
H1972 C1978 0.950 . S
H1973 C1979 0.950 . S
H1974 C1980 0.949 . S
C1975 H1970 0.950 . S
C1975 C1977 1.327 . S
C1975 C1981 1.429 . S
C1976 C1968 1.574 . S
C1976 H1971 0.949 . S
C1976 C1982 1.368 . S
C1977 C1961 1.349 . S
C1977 H1969 0.950 . S
C1977 C1975 1.327 . S
C1978 C1966 1.349 . S
C1978 H1972 0.950 . S
C1978 C1979 1.327 . S
C1979 H1973 0.950 . S
C1979 C1978 1.327 . S
C1979 C1983 1.429 . S
C1980 C1963 1.574 . S
C1980 H1974 0.949 . S
C1980 C1984 1.368 . S
C1981 C1962 1.429 . S
C1981 C1975 1.429 . S
C1981 C1982 1.523 . S
C1982 C1963 1.368 . S
C1982 C1976 1.368 . S
C1982 C1981 1.523 . S
C1983 C1967 1.429 . S
C1983 C1979 1.429 . S
C1983 C1984 1.523 . S
C1984 C1968 1.368 . S
C1984 C1980 1.368 . S
C1984 C1983 1.523 . S
H1985 C1960 0.950 . S
H1986 C1962 0.950 . S
H1987 C1963 0.949 . S
H1988 C1965 0.950 . S
H1989 C1967 0.950 . S
C1990 C1991 1.349 . S
C1990 C1992 1.327 . S
C1990 H2015 0.950 . S
C1991 C1990 1.349 . S
C1991 C2007 1.349 . S
C1992 C1990 1.327 . S
C1992 C2011 1.429 . S
C1992 H2016 0.950 . S
C1993 C2010 1.574 . S
C1993 C2012 1.368 . S
C1993 H2017 0.949 . S
H1994 C1998 0.949 . S
C1995 C1996 1.349 . S
C1995 C1997 1.327 . S
C1995 H2018 0.950 . S
C1996 C1995 1.349 . S
C1996 C2008 1.349 . S
C1997 C1995 1.327 . S
C1997 C2013 1.429 . S
C1997 H2019 0.950 . S
C1998 H1994 0.949 . S
C1998 C2006 1.574 . S
C1998 C2014 1.368 . S
H1999 C2007 0.950 . S
H2000 C2005 0.950 . S
H2001 C2006 0.949 . S
H2002 C2008 0.950 . S
H2003 C2009 0.950 . S
H2004 C2010 0.949 . S
C2005 H2000 0.950 . S
C2005 C2007 1.327 . S
C2005 C2011 1.429 . S
C2006 C1998 1.574 . S
C2006 H2001 0.949 . S
C2006 C2012 1.368 . S
C2007 C1991 1.349 . S
C2007 H1999 0.950 . S
C2007 C2005 1.327 . S
C2008 C1996 1.349 . S
C2008 H2002 0.950 . S
C2008 C2009 1.327 . S
C2009 H2003 0.950 . S
C2009 C2008 1.327 . S
C2009 C2013 1.429 . S
C2010 C1993 1.574 . S
C2010 H2004 0.949 . S
C2010 C2014 1.368 . S
C2011 C1992 1.429 . S
C2011 C2005 1.429 . S
C2011 C2012 1.523 . S
C2012 C1993 1.368 . S
C2012 C2006 1.368 . S
C2012 C2011 1.523 . S
C2013 C1997 1.429 . S
C2013 C2009 1.429 . S
C2013 C2014 1.523 . S
C2014 C1998 1.368 . S
C2014 C2010 1.368 . S
C2014 C2013 1.523 . S
H2015 C1990 0.950 . S
H2016 C1992 0.950 . S
H2017 C1993 0.949 . S
H2018 C1995 0.950 . S
H2019 C1997 0.950 . S
C2020 C2021 1.349 . S
C2020 C2022 1.327 . S
C2020 H2045 0.950 . S
C2021 C2020 1.349 . S
C2021 C2037 1.349 . S
C2022 C2020 1.327 . S
C2022 C2041 1.429 . S
C2022 H2046 0.950 . S
C2023 C2040 1.574 . S
C2023 C2042 1.368 . S
C2023 H2047 0.949 . S
H2024 C2028 0.949 . S
C2025 C2026 1.349 . S
C2025 C2027 1.327 . S
C2025 H2048 0.950 . S
C2026 C2025 1.349 . S
C2026 C2038 1.349 . S
C2027 C2025 1.327 . S
C2027 C2043 1.429 . S
C2027 H2049 0.950 . S
C2028 H2024 0.949 . S
C2028 C2036 1.574 . S
C2028 C2044 1.368 . S
H2029 C2037 0.950 . S
H2030 C2035 0.950 . S
H2031 C2036 0.949 . S
H2032 C2038 0.950 . S
H2033 C2039 0.950 . S
H2034 C2040 0.949 . S
C2035 H2030 0.950 . S
C2035 C2037 1.327 . S
C2035 C2041 1.429 . S
C2036 C2028 1.574 . S
C2036 H2031 0.949 . S
C2036 C2042 1.368 . S
C2037 C2021 1.349 . S
C2037 H2029 0.950 . S
C2037 C2035 1.327 . S
C2038 C2026 1.349 . S
C2038 H2032 0.950 . S
C2038 C2039 1.327 . S
C2039 H2033 0.950 . S
C2039 C2038 1.327 . S
C2039 C2043 1.429 . S
C2040 C2023 1.574 . S
C2040 H2034 0.949 . S
C2040 C2044 1.368 . S
C2041 C2022 1.429 . S
C2041 C2035 1.429 . S
C2041 C2042 1.523 . S
C2042 C2023 1.368 . S
C2042 C2036 1.368 . S
C2042 C2041 1.523 . S
C2043 C2027 1.429 . S
C2043 C2039 1.429 . S
C2043 C2044 1.523 . S
C2044 C2028 1.368 . S
C2044 C2040 1.368 . S
C2044 C2043 1.523 . S
H2045 C2020 0.950 . S
H2046 C2022 0.950 . S
H2047 C2023 0.949 . S
H2048 C2025 0.950 . S
H2049 C2027 0.950 . S
C2050 C2051 1.349 . S
C2050 C2052 1.327 . S
C2050 H2075 0.950 . S
C2051 C2050 1.349 . S
C2051 C2067 1.349 . S
C2052 C2050 1.327 . S
C2052 C2071 1.429 . S
C2052 H2076 0.950 . S
C2053 C2070 1.574 . S
C2053 C2072 1.368 . S
C2053 H2077 0.949 . S
H2054 C2058 0.949 . S
C2055 C2056 1.349 . S
C2055 C2057 1.327 . S
C2055 H2078 0.950 . S
C2056 C2055 1.349 . S
C2056 C2068 1.349 . S
C2057 C2055 1.327 . S
C2057 C2073 1.429 . S
C2057 H2079 0.950 . S
C2058 H2054 0.949 . S
C2058 C2066 1.574 . S
C2058 C2074 1.368 . S
H2059 C2067 0.950 . S
H2060 C2065 0.950 . S
H2061 C2066 0.949 . S
H2062 C2068 0.950 . S
H2063 C2069 0.950 . S
H2064 C2070 0.949 . S
C2065 H2060 0.950 . S
C2065 C2067 1.327 . S
C2065 C2071 1.429 . S
C2066 C2058 1.574 . S
C2066 H2061 0.949 . S
C2066 C2072 1.368 . S
C2067 C2051 1.349 . S
C2067 H2059 0.950 . S
C2067 C2065 1.327 . S
C2068 C2056 1.349 . S
C2068 H2062 0.950 . S
C2068 C2069 1.327 . S
C2069 H2063 0.950 . S
C2069 C2068 1.327 . S
C2069 C2073 1.429 . S
C2070 C2053 1.574 . S
C2070 H2064 0.949 . S
C2070 C2074 1.368 . S
C2071 C2052 1.429 . S
C2071 C2065 1.429 . S
C2071 C2072 1.523 . S
C2072 C2053 1.368 . S
C2072 C2066 1.368 . S
C2072 C2071 1.523 . S
C2073 C2057 1.429 . S
C2073 C2069 1.429 . S
C2073 C2074 1.523 . S
C2074 C2058 1.368 . S
C2074 C2070 1.368 . S
C2074 C2073 1.523 . S
H2075 C2050 0.950 . S
H2076 C2052 0.950 . S
H2077 C2053 0.949 . S
H2078 C2055 0.950 . S
H2079 C2057 0.950 . S
C641 C131 1.688 . S
C646 C19 1.703 . S
C671 C2 0.522 . S
C676 C56 0.529 . S
C701 C90 0.969 . S
C706 C59 0.972 . S
C731 C127 1.048 . S
C736 C87 1.050 . S
C761 C167 1.841 . S
C766 C202 1.831 . S
C791 C219 0.846 . S
C796 C259 0.849 . S
C821 C256 0.945 . S
C826 C287 0.938 . S
C851 C171 1.822 . S
C856 C290 1.852 . S
C881 C376 1.726 . S
C886 C16 1.710 . S
C911 C402 2.068 . S
C916 C42 2.082 . S
C941 C91 4.398 . S
C946 C531 4.398 . S
C971 C330 0.515 . S
C976 C130 0.489 . S
C1001 C450 0.643 . S
C1006 C170 0.652 . S
C1031 C571 2.939 . S
C1036 C216 2.972 . S
C1061 C242 1.331 . S
C1066 C482 1.301 . S
C1091 C611 4.234 . S
C1096 C291 4.199 . S
C1121 C331 1.677 . S
C1126 C530 1.701 . S
C1151 C362 1.236 . S
C1156 C327 1.253 . S
C1181 C419 0.471 . S
C1186 C379 0.481 . S
C1211 C570 1.789 . S
C1216 C451 1.791 . S
C1241 C499 0.439 . S
C1246 C610 0.328 . S
C1271 C442 1.688 . S
C1276 C10 1.701 . S
C1301 C487 0.530 . S
C1306 C11 0.523 . S
C1331 C490 0.972 . S
C1336 C99 0.967 . S
C1361 C96 1.052 . S
C1366 C456 1.051 . S
C1391 C371 1.831 . S
C1396 C176 1.841 . S
C1421 C370 0.846 . S
C1426 C250 0.839 . S
C1451 C536 0.943 . S
C1456 C247 0.950 . S
C1481 C162 1.822 . S
C1486 C539 1.856 . S
C1511 C207 1.726 . S
C1516 C7 1.715 . S
C1541 C411 2.068 . S
C1546 C491 2.085 . S
C1571 C82 4.398 . S
C1576 C282 4.393 . S
C1601 C339 0.515 . S
C1606 C459 0.484 . S
C1631 C139 0.643 . S
C1636 C179 0.648 . S
C1661 C367 2.972 . S
C1666 C562 2.939 . S
C1691 C251 1.331 . S
C1696 C51 1.296 . S
C1721 C602 4.234 . S
C1726 C522 4.207 . S
C1751 C322 1.677 . S
C1756 C299 1.694 . S
C1781 C336 1.254 . S
C1786 C211 1.237 . S
C1811 C410 0.471 . S
C1816 C210 0.483 . S
C1841 C122 1.791 . S
C1846 C579 1.789 . S
C1871 C50 0.439 . S
C1876 C619 0.323 . S
C1901 C496 0.525 . S
C1906 C567 0.486 . S
C1931 C447 1.122 . S
C1936 C607 1.124 . S
C1961 C416 0.833 . S
C1966 C527 0.833 . S
C1991 C576 0.486 . S
C1996 C47 0.525 . S
C2021 C136 1.122 . S
C2026 C616 1.123 . S
C2051 C296 0.830 . S
C2056 C407 0.830 . S
