# Generated by pormake.
# Topology smc, (6)-cn, num edge types: 1
# Building blocks:
#     Node 0, Type 0, BuildingBlock: HISSIN_clean_sbu_0, # of connection points: 6
#     Node 1, Type 0, BuildingBlock: HISSIN_clean_sbu_0, # of connection points: 6
#     Node 2, Type 0, BuildingBlock: HISSIN_clean_sbu_0, # of connection points: 6
#     Node 3, Type 0, BuildingBlock: HISSIN_clean_sbu_0, # of connection points: 6
#     Node 4, Type 0, BuildingBlock: HISSIN_clean_sbu_0, # of connection points: 6
#     Node 5, Type 0, BuildingBlock: HISSIN_clean_sbu_0, # of connection points: 6
#     Node 6, Type 0, BuildingBlock: HISSIN_clean_sbu_0, # of connection points: 6
#     Node 7, Type 0, BuildingBlock: HISSIN_clean_sbu_0, # of connection points: 6
#     Node 8, Type 0, BuildingBlock: HISSIN_clean_sbu_0, # of connection points: 6
#     Edge 9, Type (0, 0), BuildingBlock: KIFKEQ_clean_linker_1, # of connection points: 2
#     Edge 10, Type (0, 0), BuildingBlock: KIFKEQ_clean_linker_1, # of connection points: 2
#     Edge 11, Type (0, 0), BuildingBlock: KIFKEQ_clean_linker_1, # of connection points: 2
#     Edge 12, Type (0, 0), BuildingBlock: KIFKEQ_clean_linker_1, # of connection points: 2
#     Edge 13, Type (0, 0), BuildingBlock: KIFKEQ_clean_linker_1, # of connection points: 2
#     Edge 14, Type (0, 0), BuildingBlock: KIFKEQ_clean_linker_1, # of connection points: 2
#     Edge 15, Type (0, 0), BuildingBlock: KIFKEQ_clean_linker_1, # of connection points: 2
#     Edge 16, Type (0, 0), BuildingBlock: KIFKEQ_clean_linker_1, # of connection points: 2
#     Edge 17, Type (0, 0), BuildingBlock: KIFKEQ_clean_linker_1, # of connection points: 2
#     Edge 18, Type (0, 0), BuildingBlock: KIFKEQ_clean_linker_1, # of connection points: 2
#     Edge 19, Type (0, 0), BuildingBlock: KIFKEQ_clean_linker_1, # of connection points: 2
#     Edge 20, Type (0, 0), BuildingBlock: KIFKEQ_clean_linker_1, # of connection points: 2
#     Edge 21, Type (0, 0), BuildingBlock: KIFKEQ_clean_linker_1, # of connection points: 2
#     Edge 22, Type (0, 0), BuildingBlock: KIFKEQ_clean_linker_1, # of connection points: 2
#     Edge 23, Type (0, 0), BuildingBlock: KIFKEQ_clean_linker_1, # of connection points: 2
#     Edge 24, Type (0, 0), BuildingBlock: KIFKEQ_clean_linker_1, # of connection points: 2
#     Edge 25, Type (0, 0), BuildingBlock: KIFKEQ_clean_linker_1, # of connection points: 2
#     Edge 26, Type (0, 0), BuildingBlock: KIFKEQ_clean_linker_1, # of connection points: 2
#     Edge 27, Type (0, 0), BuildingBlock: KIFKEQ_clean_linker_1, # of connection points: 2
#     Edge 28, Type (0, 0), BuildingBlock: KIFKEQ_clean_linker_1, # of connection points: 2
#     Edge 29, Type (0, 0), BuildingBlock: KIFKEQ_clean_linker_1, # of connection points: 2
#     Edge 30, Type (0, 0), BuildingBlock: KIFKEQ_clean_linker_1, # of connection points: 2
#     Edge 31, Type (0, 0), BuildingBlock: KIFKEQ_clean_linker_1, # of connection points: 2
#     Edge 32, Type (0, 0), BuildingBlock: KIFKEQ_clean_linker_1, # of connection points: 2
#     Edge 33, Type (0, 0), BuildingBlock: KIFKEQ_clean_linker_1, # of connection points: 2
#     Edge 34, Type (0, 0), BuildingBlock: KIFKEQ_clean_linker_1, # of connection points: 2
#     Edge 35, Type (0, 0), BuildingBlock: KIFKEQ_clean_linker_1, # of connection points: 2
# Relax obj value: 0.321
# Max RMSD: 0.370
# Mean RMSD: 0.322
data_MOF--net-smc--node1-HISSIN_clean_sbu_0--edge1-KIFKEQ_clean_linker_1
_symmetry_space_group_name_H-M    P1
_symmetry_Int_Tables_number       1
_symmetry_cell_setting            triclinic
loop_
_symmetry_equiv_pos_as_xyz
'x, y, z'
_cell_length_a     43.123884
_cell_length_b     31.873107
_cell_length_c     40.163314
_cell_angle_alpha  90.963127
_cell_angle_beta   90.98338
_cell_angle_gamma 119.02245
loop_
_atom_site_label
_atom_site_type_symbol
_atom_site_fract_x
_atom_site_fract_y
_atom_site_fract_z
_atom_type_partial_charge
Eu0 Eu 0.06614 0.49606 0.03176 0.0
Eu1 Eu 0.08252 0.41044 1.01315 0.0
C2 C 1.03329 0.43052 0.96369 0.0
C3 C 1.02274 0.56714 0.06423 0.0
C4 C 0.99857 0.52859 0.08282 0.0
C5 C 0.99043 0.60988 0.07614 0.0
C6 C 0.97035 0.5306 0.09794 0.0
C7 C 1.01865 0.60783 0.06112 0.0
C8 C 0.96583 0.57119 0.0946 0.0
C9 C 1.05164 0.56468 0.04724 0.0
O10 O 0.13521 0.48145 1.01378 0.0
O11 O 0.11034 0.5257 0.99598 0.0
C12 C 0.13848 0.52088 1.00047 0.0
O13 O 0.1052 0.49921 0.07284 0.0
O14 O 0.10701 0.37903 0.98163 0.0
O15 O 0.07656 0.33997 0.02367 0.0
O16 O 0.09127 0.42066 0.0684 0.0
C17 C 0.10578 0.46148 0.08526 0.0
O18 O 1.02775 0.43337 0.06015 0.0
O19 O 1.02372 0.37549 0.02346 0.0
O20 O 1.06025 0.4223 0.96546 0.0
O21 O 0.07165 0.55364 0.0656 0.0
O22 O 1.04326 0.54171 1.01857 0.0
O23 O 1.02688 0.45208 0.98894 0.0
C24 C 0.13133 0.34333 1.01521 0.0
C25 C 0.14761 0.37028 0.04451 0.0
C26 C 0.18658 0.34649 1.00088 0.0
C27 C 0.18385 0.38909 0.05027 0.0
C28 C 0.15028 0.32841 0.99475 0.0
C29 C 0.20423 0.38094 0.02676 0.0
C30 C 0.09982 0.34398 1.00183 0.0
C31 C 1.0101 0.3899 0.04719 0.0
H32 H 1.00142 0.49687 0.08539 0.0
H33 H 0.98737 0.64126 0.07247 0.0
H34 H 0.95208 0.50037 0.11216 0.0
H35 H 1.03698 0.63775 0.04666 0.0
H36 H 0.13343 0.38205 0.06078 0.0
H37 H 0.20141 0.33788 0.98311 0.0
H38 H 0.19614 0.41494 0.07069 0.0
H39 H 0.13803 0.30725 0.97217 0.0
Eu40 Eu 0.58988 0.62959 0.98562 0.0
Eu41 Eu 0.65647 0.66744 0.03252 0.0
C42 C 0.58838 0.62847 0.06568 0.0
C43 C 0.50481 0.6172 0.95493 0.0
C44 C 0.50739 0.64593 0.98287 0.0
C45 C 0.44389 0.59805 0.94567 0.0
C46 C 0.47761 0.64811 0.99342 0.0
C47 C 0.47363 0.59547 0.93533 0.0
C48 C 0.44512 0.62169 0.976 0.0
C49 C 0.53214 0.60339 0.95031 0.0
O50 O 0.64188 0.58639 1.0216 0.0
O51 O 0.58673 0.55807 0.99719 0.0
C52 C 0.61132 0.5494 1.00988 0.0
O53 O 0.6352 0.63938 0.95101 0.0
O54 O 0.68052 0.69278 0.0823 0.0
O55 O 0.7123 0.69072 0.04163 0.0
O56 O 0.67929 0.69756 0.98304 0.0
C57 C 0.66843 0.67414 0.95446 0.0
O58 O 0.60511 0.7081 0.98861 0.0
O59 O 0.63863 0.7273 0.03648 0.0
O60 O 0.61029 0.61305 0.05899 0.0
O61 O 0.56298 0.63763 0.94167 0.0
O62 O 0.53463 0.57817 0.97445 0.0
O63 O 0.57849 0.6446 0.03988 0.0
C64 C 0.72679 0.67523 0.09446 0.0
C65 C 0.71093 0.62509 0.09555 0.0
C66 C 0.77938 0.6825 0.12255 0.0
C67 C 0.72981 0.60372 0.10896 0.0
C68 C 0.76048 0.70378 0.10913 0.0
C69 C 0.76484 0.63226 0.1213 0.0
C70 C 0.71111 0.69768 0.07359 0.0
C71 C 0.61951 0.7372 1.01453 0.0
H72 H 0.53145 0.66295 0.99826 0.0
H73 H 0.41899 0.57697 0.93199 0.0
H74 H 0.47907 0.6664 1.01687 0.0
H75 H 0.47137 0.57322 0.91372 0.0
H76 H 0.68486 0.60255 0.08423 0.0
H77 H 0.8064 0.70556 0.13151 0.0
H78 H 0.71775 0.56495 0.10802 0.0
H79 H 0.77312 0.74256 0.10827 0.0
Eu80 Eu 0.57288 0.11513 0.05117 0.0
Eu81 Eu 0.49606 1.06099 0.02328 0.0
C82 C 0.55387 0.11043 0.97219 0.0
C83 C 0.67285 0.18697 0.08106 0.0
C84 C 0.68826 0.21688 0.05415 0.0
C85 C 0.73114 0.21175 0.10524 0.0
C86 C 0.72522 0.24362 0.05256 0.0
C87 C 0.69439 0.18562 0.10695 0.0
C88 C 0.74709 0.24016 0.07763 0.0
C89 C 0.63534 0.15102 0.0805 0.0
O90 O 0.51319 1.00239 0.03609 0.0
O91 O 0.57168 1.04931 0.02847 0.0
C92 C 0.54508 1.00622 0.0316 0.0
O93 O 0.53344 0.07375 0.09254 0.0
O94 O 0.45232 1.02919 0.9856 0.0
O95 O 0.44194 1.01459 0.03792 0.0
O96 O 0.49457 0.09409 0.0722 0.0
C97 C 0.50642 0.08123 0.09764 0.0
O98 O 0.56382 0.17898 0.04829 0.0
O99 O 0.51246 0.14374 1.01603 0.0
O100 O 0.52844 0.06811 0.97933 0.0
O101 O 0.61195 0.16384 0.08874 0.0
O102 O 0.62447 0.1196 0.0559 0.0
O103 O 0.57387 0.13971 0.99684 0.0
C104 C 0.40473 0.95186 1.00009 0.0
C105 C 0.40985 0.91629 1.01559 0.0
C106 C 0.34809 0.88894 0.97714 0.0
C107 C 0.3839 0.86766 1.01259 0.0
C108 C 0.37394 0.93752 0.98032 0.0
C109 C 0.35218 0.85329 0.99395 0.0
C110 C 0.4289 1.00377 1.00753 0.0
C111 C 0.53965 0.18334 0.03058 0.0
H112 H 0.67182 0.21792 0.03382 0.0
H113 H 0.74693 0.20742 0.12475 0.0
H114 H 0.73662 0.26582 0.03125 0.0
H115 H 0.68279 0.1621 0.12766 0.0
H116 H 0.43333 0.92626 0.0311 0.0
H117 H 0.32455 0.87947 0.96189 0.0
H118 H 0.38813 0.84166 0.02608 0.0
H119 H 0.36929 0.96412 0.96813 0.0
Eu120 Eu 0.70151 0.84669 0.35924 0.0
Eu121 Eu 0.76308 0.80499 0.34157 0.0
C122 C 0.70284 0.79536 0.28574 0.0
C123 C 0.62022 0.88035 0.36829 0.0
C124 C 0.58654 0.84755 0.35451 0.0
C125 C 0.59619 0.93488 0.38067 0.0
C126 C 0.55835 0.85813 0.35365 0.0
C127 C 0.62453 0.92424 0.38147 0.0
C128 C 0.56245 0.90212 0.3666 0.0
C129 C 0.65089 0.86996 0.36598 0.0
O130 O 0.79034 0.88575 0.34651 0.0
O131 O 0.74738 0.90674 0.33406 0.0
C132 C 0.78076 0.91722 0.33721 0.0
O133 O 0.73411 0.85716 0.40816 0.0
O134 O 0.79529 0.76856 0.35114 0.0
O135 O 0.80794 0.8169 0.3104 0.0
O136 O 0.76529 0.81551 0.39716 0.0
C137 C 0.75551 0.83975 0.41733 0.0
O138 O 0.68602 0.77651 0.38284 0.0
O139 O 0.70487 0.74088 0.34423 0.0
O140 O 0.73263 0.79452 0.29271 0.0
O141 O 0.68398 0.89953 0.37484 0.0
O142 O 0.64567 0.82787 0.3558 0.0
O143 O 0.68766 0.8112 0.30719 0.0
C144 C 0.85747 0.80725 0.33182 0.0
C145 C 0.88307 0.85471 0.34153 0.0
C146 C 0.9079 0.79159 0.32327 0.0
C147 C 0.92027 0.8701 0.3423 0.0
C148 C 0.87091 0.77626 0.32282 0.0
C149 C 0.93398 0.83906 0.33299 0.0
C150 C 0.81756 0.79027 0.32732 0.0
C151 C 0.68001 0.73879 0.36468 0.0
H152 H 0.58199 0.8136 0.34357 0.0
H153 H 0.60083 0.96894 0.39135 0.0
H154 H 0.53348 0.83195 0.34194 0.0
H155 H 0.64996 0.95069 0.39204 0.0
H156 H 0.87438 0.88031 0.34829 0.0
H157 H 0.91577 0.76579 0.31502 0.0
H158 H 0.93821 0.90672 0.35038 0.0
H159 H 0.85261 0.73979 0.31449 0.0
Eu160 Eu 0.26306 0.89729 0.32923 0.0
Eu161 Eu 0.29326 1.00741 0.33624 0.0
C162 C 0.31366 0.97246 0.27137 0.0
C163 C 0.253 0.79343 0.28053 0.0
C164 C 0.28914 0.82192 0.27402 0.0
C165 C 0.25051 0.7317 0.2431 0.0
C166 C 0.30614 0.80502 0.25281 0.0
C167 C 0.23339 0.74931 0.26368 0.0
C168 C 0.28771 0.7581 0.23912 0.0
C169 C 0.23603 0.81116 0.30396 0.0
O170 O 0.23294 0.98046 0.32503 0.0
O171 O 0.21315 0.90301 0.33907 0.0
C172 C 0.20612 0.93769 0.33192 0.0
O173 O 0.27183 0.90908 0.38571 0.0
O174 O 0.29966 0.07776 0.3247 0.0
O175 O 0.32891 0.07036 0.36656 0.0
O176 O 0.26751 0.97721 0.38474 0.0
C177 C 0.27081 0.94487 0.40164 0.0
O178 O 0.31604 0.91228 0.34878 0.0
O179 O 0.3421 0.99375 0.34255 0.0
O180 O 0.3061 1.00498 0.28259 0.0
O181 O 0.25037 0.8226 0.33404 0.0
O182 O 0.22938 0.84378 0.29174 0.0
O183 O 0.3022 0.93193 0.28699 0.0
C184 C 0.30507 0.12177 0.37358 0.0
C185 C 0.27871 0.09441 0.39607 0.0
C186 C 0.29835 0.19083 0.38796 0.0
C187 C 0.26164 0.11472 0.41382 0.0
C188 C 0.31548 0.17037 0.37018 0.0
C189 C 0.27054 0.16268 0.40915 0.0
C190 C 0.31891 0.09806 0.35167 0.0
C191 C 0.34447 0.95446 0.34916 0.0
H192 H 0.30476 0.8563 0.28666 0.0
H193 H 0.23486 0.69549 0.23301 0.0
H194 H 0.33448 0.82679 0.24993 0.0
H195 H 0.20525 0.72747 0.26769 0.0
H196 H 0.2702 1.05678 0.39883 0.0
H197 H 0.30535 0.22778 0.38355 0.0
H198 H 0.2404 0.09237 0.43005 0.0
H199 H 0.33565 0.19183 0.35276 0.0
Eu200 Eu 0.22768 0.47705 0.39358 0.0
Eu201 Eu 0.13807 0.43524 0.37945 0.0
C202 C 0.18684 0.44145 0.32072 0.0
C203 C 0.33466 0.52655 0.39569 0.0
C204 C 0.35007 0.5467 0.36518 0.0
C205 C 0.39356 0.5408 0.41515 0.0
C206 C 0.38663 0.56375 0.35984 0.0
C207 C 0.35705 0.52342 0.42034 0.0
C208 C 0.40935 0.56204 0.38498 0.0
C209 C 0.29738 0.51533 0.40424 0.0
O210 O 0.14606 0.37693 0.40266 0.0
O211 O 0.20205 0.39772 0.38405 0.0
C212 C 0.17159 0.36679 0.39649 0.0
O213 O 0.19652 0.45799 0.44314 0.0
O214 O 0.09315 0.41977 0.34596 0.0
O215 O 0.08443 0.40345 0.39822 0.0
O216 O 0.15441 0.47808 0.42713 0.0
C217 C 0.16991 0.46632 0.45055 0.0
O218 O 0.21289 0.53522 0.39661 0.0
O219 O 0.1681 0.5088 0.3581 0.0
O220 O 0.15929 0.41097 0.3372 0.0
O221 O 0.27429 0.4739 0.41576 0.0
O222 O 0.28195 0.53469 0.38715 0.0
O223 O 0.216 0.4736 0.337 0.0
C224 C 1.04024 0.35088 0.35994 0.0
C225 C 1.00514 0.34185 0.36182 0.0
C226 C 1.01872 0.26707 0.34448 0.0
C227 C 0.9769 0.29559 0.35532 0.0
C228 C 1.0469 0.31333 0.35097 0.0
C229 C 0.98336 0.25751 0.34694 0.0
C230 C 0.0697 0.39889 0.36877 0.0
C231 C 0.1986 0.54325 0.37012 0.0
H232 H 0.33408 0.55059 0.34567 0.0
H233 H 0.40953 0.53787 0.43511 0.0
H234 H 0.39733 0.57999 0.33634 0.0
H235 H 0.3465 0.50883 0.44429 0.0
H236 H 0.99955 0.37042 0.3689 0.0
H237 H 1.02463 0.23873 0.33768 0.0
H238 H 0.95005 0.28938 0.35783 0.0
H239 H 0.0739 0.31969 0.34943 0.0
Eu240 Eu 0.40649 0.16093 0.69469 0.0
Eu241 Eu 0.42553 0.07602 0.68466 0.0
C242 C 0.3859 0.09635 0.62594 0.0
C243 C 0.3598 0.23556 0.70904 0.0
C244 C 0.32635 0.19526 0.71269 0.0
C245 C 0.33455 0.28762 0.7196 0.0
C246 C 0.29705 0.20119 0.71983 0.0
C247 C 0.36372 0.28164 0.71244 0.0
C248 C 0.30092 0.2475 0.72354 0.0
C249 C 0.39109 0.23032 0.70279 0.0
O250 O 0.47832 0.14737 0.68698 0.0
O251 O 0.45511 0.19108 0.66415 0.0
C252 C 0.48278 0.18677 0.67251 0.0
O253 O 0.4453 0.17017 0.73806 0.0
O254 O 0.45658 1.04523 0.66342 0.0
O255 O 0.41209 1.0021 0.69423 0.0
O256 O 0.43212 0.0918 0.73965 0.0
C257 C 0.4468 0.13488 0.75347 0.0
O258 O 0.36367 0.0989 0.72054 0.0
O259 O 0.36525 1.0414 0.68745 0.0
O260 O 0.41342 0.0909 0.63315 0.0
O261 O 0.40125 0.21261 0.72693 0.0
O262 O 0.39219 0.21227 0.67377 0.0
O263 O 0.37413 0.11558 0.6485 0.0
C264 C 0.46368 0.99493 0.7011 0.0
C265 C 0.46323 0.99858 0.73603 0.0
C266 C 0.52073 0.99785 0.70564 0.0
C267 C 0.49256 1.0054 0.75533 0.0
C268 C 0.49133 0.99088 0.68631 0.0
C269 C 0.52273 1.00929 0.73985 0.0
C270 C 0.44036 1.00594 0.68021 0.0
C271 C 0.34805 1.05533 0.70765 0.0
H272 H 0.32301 0.15937 0.71029 0.0
H273 H 0.33827 0.32371 0.72172 0.0
H274 H 0.27154 0.16963 0.72293 0.0
H275 H 0.38943 0.31306 0.70968 0.0
H276 H 0.44205 1.00133 0.74821 0.0
H277 H 0.54367 1.00069 0.69306 0.0
H278 H 0.49347 1.01383 0.7817 0.0
H279 H 0.492 0.98764 0.65946 0.0
Eu280 Eu 0.90704 0.3043 0.66601 0.0
Eu281 Eu 0.97459 0.3536 0.71029 0.0
C282 C 0.90833 0.32536 0.74598 0.0
C283 C 0.8123 0.25763 0.65363 0.0
C284 C 0.81599 0.28035 0.68487 0.0
C285 C 0.74886 0.21342 0.65969 0.0
C286 C 0.78648 0.26778 0.70419 0.0
C287 C 0.77858 0.22535 0.64056 0.0
C288 C 0.75297 0.2331 0.69211 0.0
C289 C 0.84401 0.26161 0.63846 0.0
O290 O 0.94984 0.26858 0.71299 0.0
O291 O 0.92384 0.24788 0.66181 0.0
C292 C 0.93412 0.23512 0.68872 0.0
O293 O 0.95045 0.33433 0.62633 0.0
O294 O 0.99773 0.35069 0.75827 0.0
O295 O 1.03041 0.40268 0.72235 0.0
O296 O 0.99929 0.35984 0.66103 0.0
C297 C 0.98522 0.35314 0.63105 0.0
O298 O 0.90807 0.37521 0.67594 0.0
O299 O 0.96302 0.41799 0.70083 0.0
O300 O 0.93608 0.36464 0.73891 0.0
O301 O 0.86788 0.30499 0.63117 0.0
O302 O 0.85764 0.23886 0.65443 0.0
O303 O 0.89657 0.29037 0.72301 0.0
C304 C 1.0553 0.3631 0.75178 0.0
C305 C 1.0488 0.32242 0.73247 0.0
C306 C 0.11114 0.37016 0.77157 0.0
C307 C 0.07337 0.30592 0.73247 0.0
C308 C 0.08638 0.38667 0.77159 0.0
C309 C 0.10506 0.32996 0.75162 0.0
C310 C 1.02993 0.38119 0.74988 0.0
C311 C 0.93337 0.4162 0.68834 0.0
H312 H 0.842 0.30521 0.69534 0.0
H313 H 0.72305 0.18616 0.65022 0.0
H314 H 0.79001 0.28309 0.72917 0.0
H315 H 0.77547 0.20726 0.61667 0.0
H316 H 1.02486 0.30378 0.71702 0.0
H317 H 0.13546 0.38966 0.78636 0.0
H318 H 0.06763 0.27445 0.71727 0.0
H319 H 0.09177 0.4182 0.78655 0.0
Eu320 Eu 0.89872 0.80493 0.70495 0.0
Eu321 Eu 0.81593 0.74532 0.69603 0.0
C322 C 0.85706 0.79131 0.63357 0.0
C323 C 1.0067 0.86709 0.71156 0.0
C324 C 1.02304 0.85347 0.68686 0.0
C325 C 0.06483 0.91734 0.73809 0.0
C326 C 1.05973 0.8714 0.68775 0.0
C327 C 1.02792 0.89913 0.73726 0.0
C328 C 0.08122 0.90368 0.7133 0.0
C329 C 0.96759 0.84622 0.71059 0.0
O330 O 0.83635 0.68991 0.70686 0.0
O331 O 0.89101 0.73337 0.68645 0.0
C332 C 0.86626 0.69212 0.69643 0.0
O333 O 0.87171 0.77042 0.75494 0.0
O334 O 0.7651 0.7106 0.66782 0.0
O335 O 0.76664 0.69805 0.72046 0.0
O336 O 0.82588 0.78337 0.74497 0.0
C337 C 0.84484 0.77516 0.76642 0.0
O338 O 0.8873 0.8658 0.71321 0.0
O339 O 0.82993 0.82798 0.6918 0.0
O340 O 0.83593 0.7491 0.64493 0.0
O341 O 0.94843 0.84611 0.73554 0.0
O342 O 0.94943 0.82576 0.68322 0.0
O343 O 0.88206 0.8232 0.65407 0.0
C344 C 0.72341 0.6328 0.68778 0.0
C345 C 0.69238 0.61002 0.70617 0.0
C346 C 0.7096 0.55433 0.66388 0.0
C347 C 0.67032 0.56009 0.70367 0.0
C348 C 0.73185 0.60443 0.66658 0.0
C349 C 0.67859 0.5313 0.68262 0.0
C350 C 0.74734 0.68539 0.69302 0.0
C351 C 0.85932 0.86843 0.70264 0.0
H352 H 1.0074 0.82829 0.66695 0.0
H353 H 0.08053 0.94252 0.75797 0.0
H354 H 0.07114 0.85922 0.6686 0.0
H355 H 1.01603 0.91017 0.75667 0.0
H356 H 0.68533 0.63092 0.72286 0.0
H357 H 0.71712 0.53351 0.64764 0.0
H358 H 0.64652 0.54409 0.71812 0.0
H359 H 0.75588 0.62086 0.65245 0.0
H360 H 0.38573 0.62387 0.95352 0.0
H361 H 0.42902 0.5827 0.03653 0.0
H362 H 0.32587 0.57086 0.97227 0.0
H363 H 0.3697 0.52799 0.05418 0.0
H364 H 0.25396 0.42895 0.07741 0.0
H365 H 0.31097 0.50146 0.07201 0.0
H366 H 0.29763 0.48612 0.96477 0.0
H367 H 0.24023 0.41698 0.97 0.0
C368 C 0.38239 0.60483 0.97643 0.0
C369 C 0.41172 0.60663 0.9933 0.0
C370 C 0.34825 0.57399 0.98693 0.0
C371 C 0.34313 0.5437 1.01383 0.0
C372 C 0.37265 0.55047 0.03323 0.0
C373 C 0.40675 0.58205 0.02315 0.0
C374 C 0.26327 0.44113 0.0527 0.0
C375 C 0.24225 0.41696 0.0242 0.0
C376 C 0.29591 0.48271 0.04963 0.0
C377 C 0.30831 0.50048 1.01799 0.0
C378 C 0.28828 0.47463 0.98959 0.0
C379 C 0.25565 0.43374 0.99263 0.0
H380 H 0.5013 0.90591 1.01869 0.0
H381 H 0.60933 1.01019 0.04472 0.0
H382 H 0.51876 0.84276 1.0163 0.0
H383 H 0.62651 0.94781 0.04283 0.0
H384 H 0.64457 0.81586 0.06133 0.0
H385 H 0.62574 0.87739 0.06709 0.0
H386 H 0.5511 0.81093 0.98484 0.0
H387 H 0.57018 0.75101 0.97866 0.0
C388 C 0.52867 0.91568 0.02422 0.0
C389 C 0.55357 0.96426 0.03185 0.0
C390 C 0.53897 0.87914 1.02265 0.0
C391 C 0.5745 0.88904 0.02934 0.0
C392 C 0.59894 0.93743 0.03774 0.0
C393 C 0.58888 0.97382 0.03864 0.0
C394 C 0.62434 0.81439 0.04426 0.0
C395 C 0.60956 0.77756 1.01926 0.0
C396 C 0.61331 0.85007 0.04755 0.0
C397 C 0.58635 0.85017 0.02655 0.0
C398 C 0.57144 0.8129 1.00199 0.0
C399 C 0.58286 0.77812 0.9983 0.0
H400 H 0.35652 0.76914 0.99332 0.0
H401 H 0.28047 0.82057 0.99434 0.0
H402 H 0.30777 0.68624 0.99293 0.0
H403 H 0.23232 0.73852 0.99345 0.0
H404 H 0.15172 0.59245 0.95803 0.0
H405 H 0.20479 0.66995 0.95504 0.0
H406 H 0.25804 0.62619 0.02721 0.0
H407 H 0.20432 0.54735 0.02991 0.0
C408 C 0.32953 0.763 0.99354 0.0
C409 C 0.3227 0.80207 0.99339 0.0
C410 C 0.30155 0.71533 0.99331 0.0
C411 C 0.26597 0.70542 0.9927 0.0
C412 C 0.25927 0.74449 0.99304 0.0
C413 C 0.28707 0.79186 0.99343 0.0
C414 C 0.17486 0.59886 0.97295 0.0
C415 C 0.17354 0.56367 0.99446 0.0
C416 C 0.20531 0.64364 0.97143 0.0
C417 C 0.23555 0.65502 0.99148 0.0
C418 C 0.23522 0.61878 1.01146 0.0
C419 C 0.20448 0.57351 1.01295 0.0
H420 H 0.51312 0.22567 0.98356 0.0
H421 H 0.58404 0.2631 0.06907 0.0
H422 H 0.53091 0.31116 0.97756 0.0
H423 H 0.60115 0.34693 0.06367 0.0
H424 H 0.64974 0.50643 0.03786 0.0
H425 H 0.63222 0.42103 0.04138 0.0
H426 H 0.53281 0.38346 0.9907 0.0
H427 H 0.55073 0.46812 0.98652 0.0
C428 C 0.53206 0.25159 1.00147 0.0
C429 C 0.54665 0.23565 0.02694 0.0
C430 C 0.5426 0.30153 0.99804 0.0
C431 C 0.5683 0.33834 1.01987 0.0
C432 C 0.58216 0.32175 0.0455 0.0
C433 C 0.57179 0.27239 0.04883 0.0
C434 C 0.62422 0.48016 0.02722 0.0
C435 C 0.60212 0.49597 1.01179 0.0
C436 C 0.61371 0.43019 0.0295 0.0
C437 C 0.58042 0.39296 1.01654 0.0
C438 C 0.55868 0.40921 1.00085 0.0
C439 C 0.56916 0.45888 0.9986 0.0
H440 H 0.78375 0.2496 1.02062 0.0
H441 H 0.79894 0.28084 0.12669 0.0
H442 H 0.8473 0.28204 1.0154 0.0
H443 H 0.8619 0.30916 0.12193 0.0
H444 H 0.97598 0.40989 0.09595 0.0
H445 H 0.91288 0.37363 0.10322 0.0
H446 H 0.89508 0.26703 0.02628 0.0
H447 H 0.95886 0.30584 1.0174 0.0
C448 C 0.8006 0.26356 0.04283 0.0
C449 C 0.78612 0.2627 0.07408 0.0
C450 C 0.83703 0.28119 0.03993 0.0
C451 C 0.85981 0.2978 0.06827 0.0
C452 C 0.84531 0.29714 0.09947 0.0
C453 C 0.80902 0.28033 0.10228 0.0
C454 C 0.95874 0.37852 0.08065 0.0
C455 C 0.97245 0.36119 0.05572 0.0
C456 C 0.92237 0.35735 0.08507 0.0
C457 C 0.89869 0.31757 0.06515 0.0
C458 C 0.91252 0.29834 0.04154 0.0
C459 C 0.94909 0.3201 0.03676 0.0
H460 H 0.96379 0.64732 0.12493 0.0
H461 H 0.89721 0.49805 0.09599 0.0
H462 H 0.91154 0.65316 0.13949 0.0
H463 H 0.845 0.50318 0.11232 0.0
H464 H 0.76844 0.56261 0.08424 0.0
H465 H 0.81466 0.54033 0.08631 0.0
H466 H 0.86139 0.63191 0.17399 0.0
H467 H 0.81487 0.65474 0.17165 0.0
C468 C 0.93802 0.61552 0.1222 0.0
C469 C 0.93465 0.57251 0.10866 0.0
C470 C 0.90804 0.61864 0.13107 0.0
C471 C 0.87396 0.57872 0.12681 0.0
C472 C 0.87081 0.53481 0.11543 0.0
C473 C 0.90081 0.53175 0.10637 0.0
C474 C 0.78779 0.57678 0.10469 0.0
C475 C 0.78815 0.61084 0.1276 0.0
C476 C 0.81443 0.56395 0.10588 0.0
C477 C 0.84206 0.58478 0.13008 0.0
C478 C 0.84088 0.61596 0.15462 0.0
C479 C 0.81421 0.62894 0.15335 0.0
H480 H 0.96919 0.78419 0.3357 0.0
H481 H 0.99377 0.93217 0.33058 0.0
H482 H 1.03141 0.80836 0.33382 0.0
H483 H 1.05682 0.95682 0.33104 0.0
H484 H 0.17365 0.99224 0.31107 0.0
H485 H 0.1106 0.97043 0.31087 0.0
H486 H 0.08598 0.83576 0.35524 0.0
H487 H 0.14787 0.85678 0.35405 0.0
C488 C 0.98746 0.82215 0.33415 0.0
C489 C 0.97452 0.85546 0.33309 0.0
C490 C 1.02427 0.8365 0.33368 0.0
C491 C 1.05105 0.88532 0.33259 0.0
C492 C 1.03824 0.91882 0.33162 0.0
C493 C 1.00123 0.90438 0.33182 0.0
C494 C 0.15479 0.95788 0.32072 0.0
C495 C 0.16697 0.92655 0.33235 0.0
C496 C 0.11801 0.94512 0.3208 0.0
C497 C 0.09136 0.90043 0.33271 0.0
C498 C 0.10407 0.86984 0.34483 0.0
C499 C 0.14048 0.88235 0.34446 0.0
H500 H 0.15495 0.28659 0.35986 0.0
H501 H 0.18507 0.34992 0.45887 0.0
H502 H 0.16911 0.22397 0.37554 0.0
H503 H 0.19991 0.28768 0.47468 0.0
H504 H 0.29089 0.24931 0.44023 0.0
H505 H 0.25387 0.28694 0.44815 0.0
H506 H 0.16156 0.15587 0.41412 0.0
H507 H 0.19857 0.11829 0.40601 0.0
C508 C 0.16306 0.28558 0.3854 0.0
C509 C 0.16889 0.32233 0.40831 0.0
C510 C 0.17107 0.24984 0.39446 0.0
C511 C 0.18575 0.25132 0.4263 0.0
C512 C 0.18857 0.28587 0.45007 0.0
C513 C 0.18003 0.32119 0.4411 0.0
C514 C 0.26253 0.22817 0.43548 0.0
C515 C 0.24764 0.18128 0.42209 0.0
C516 C 0.24127 0.24944 0.44035 0.0
C517 C 0.20494 0.22421 0.43152 0.0
C518 C 0.18952 0.17591 0.42107 0.0
C519 C 0.21071 0.15449 0.41652 0.0
H520 H 0.91935 0.22735 0.31394 0.0
H521 H 0.97941 0.17488 0.36969 0.0
H522 H 0.86989 0.14554 0.30772 0.0
H523 H 0.93018 0.09363 0.36386 0.0
H524 H 0.85036 0.94767 0.32569 0.0
H525 H 0.89871 1.02965 0.32439 0.0
H526 H 0.82459 0.08254 0.33936 0.0
H527 H 0.77583 1.00002 0.33958 0.0
C528 C 0.92195 0.19839 0.32496 0.0
C529 C 0.95343 0.20767 0.34219 0.0
C530 C 0.89358 0.1515 0.32143 0.0
C531 C 0.89601 0.11281 0.33513 0.0
C532 C 0.92756 0.12225 0.3523 0.0
C533 C 0.95588 0.16897 0.3557 0.0
C534 C 0.84427 0.97675 0.32842 0.0
C535 C 0.80925 0.96728 0.33305 0.0
C536 C 0.87208 1.02385 0.32787 0.0
C537 C 0.86573 1.06286 0.33232 0.0
C538 C 0.83048 1.05343 0.33564 0.0
C539 C 0.8025 1.00612 0.33586 0.0
H540 H 0.27284 0.6822 0.19299 0.0
H541 H 0.35132 0.77096 0.26708 0.0
H542 H 0.26027 0.61144 0.22441 0.0
H543 H 0.33714 0.70264 0.30007 0.0
H544 H 0.27052 0.602 0.37629 0.0
H545 H 0.31078 0.6381 0.33117 0.0
H546 H 0.22085 0.60468 0.26497 0.0
H547 H 0.18104 0.56256 0.30887 0.0
C548 C 0.2888 0.68663 0.21525 0.0
C549 C 0.30764 0.73188 0.23144 0.0
C550 C 0.28094 0.64603 0.23377 0.0
C551 C 0.29369 0.65239 0.26708 0.0
C552 C 0.32388 0.69635 0.27595 0.0
C553 C 0.33222 0.73615 0.2566 0.0
C554 C 0.25944 0.60121 0.3518 0.0
C555 C 0.22256 0.57752 0.34588 0.0
C556 C 0.28261 0.62234 0.32581 0.0
C557 C 0.26948 0.62319 0.29365 0.0
C558 C 0.23243 0.60285 0.28864 0.0
C559 C 0.20933 0.57982 0.31424 0.0
H560 H 0.44624 0.56251 0.32841 0.0
H561 H 0.46423 0.61185 0.43109 0.0
H562 H 0.51019 0.59695 0.32185 0.0
H563 H 0.52773 0.64736 0.42453 0.0
H564 H 0.64179 0.68687 0.41675 0.0
H565 H 0.57759 0.64089 0.42061 0.0
H566 H 0.56634 0.66177 0.316 0.0
H567 H 0.63103 0.70564 0.31221 0.0
C568 C 0.46371 0.58094 0.34965 0.0
C569 C 0.44928 0.58359 0.38045 0.0
C570 C 0.50083 0.60104 0.34586 0.0
C571 C 0.5253 0.62516 0.37263 0.0
C572 C 0.51065 0.62818 0.40327 0.0
C573 C 0.47366 0.60771 0.40711 0.0
C574 C 0.62564 0.67992 0.39424 0.0
C575 C 0.64206 0.69888 0.36396 0.0
C576 C 0.58837 0.65437 0.39655 0.0
C577 C 0.56557 0.64778 0.36885 0.0
C578 C 0.58216 0.66511 0.3381 0.0
C579 C 0.61964 0.6901 0.33572 0.0
H580 H 0.35664 0.89483 0.38819 0.0
H581 H 0.4113 1.0133 0.3231 0.0
H582 H 0.40899 0.88538 0.39345 0.0
H583 H 0.46425 1.00301 0.32744 0.0
H584 H 0.56377 0.99017 0.35979 0.0
H585 H 0.5141 1.0069 0.35747 0.0
H586 H 0.44097 0.85574 0.36594 0.0
H587 H 0.4902 0.83952 0.3701 0.0
C588 C 0.38004 0.91924 0.37503 0.0
C589 C 0.37938 0.955 0.3553 0.0
C590 C 0.41029 0.91341 0.37772 0.0
C591 C 0.44137 0.9426 0.36038 0.0
C592 C 0.44125 0.97969 0.34143 0.0
C593 C 0.41077 0.98583 0.33898 0.0
C594 C 0.53715 0.96042 0.36166 0.0
C595 C 0.53172 0.91323 0.36521 0.0
C596 C 0.50835 0.97007 0.35986 0.0
C597 C 0.47283 0.93298 0.36168 0.0
C598 C 0.46753 0.88589 0.36507 0.0
C599 C 0.49618 0.87631 0.36693 0.0
H600 H 0.6895 0.23059 0.6857 0.0
H601 H 0.74987 0.18578 0.74817 0.0
H602 H 0.63622 0.17957 0.716 0.0
H603 H 0.69617 0.1335 0.77827 0.0
H604 H 0.57991 0.99349 0.74422 0.0
H605 H 0.64169 1.05749 0.74883 0.0
H606 H 0.60665 0.15996 0.77296 0.0
H607 H 0.54585 0.09743 0.7659 0.0
C608 C 0.69141 0.21092 0.70666 0.0
C609 C 0.72332 0.2117 0.71476 0.0
C610 C 0.66114 0.18199 0.72416 0.0
C611 C 0.66231 0.15277 0.74951 0.0
C612 C 0.69481 0.15595 0.75898 0.0
C613 C 0.72532 0.18575 0.74187 0.0
C614 C 0.5856 1.02921 0.75223 0.0
C615 C 0.55804 1.04034 0.7554 0.0
C616 C 0.62087 0.06577 0.75509 0.0
C617 C 0.62864 0.11357 0.76094 0.0
C618 C 0.60124 0.12334 0.76861 0.0
C619 C 0.56625 0.08716 0.76528 0.0
H620 H 0.97602 0.51352 0.70983 0.0
H621 H 0.87038 0.41495 0.67277 0.0
H622 H 0.95958 0.57743 0.7134 0.0
H623 H 0.85418 0.47793 0.67615 0.0
H624 H 0.82256 0.59284 0.708 0.0
H625 H 0.83891 0.52872 0.7076 0.0
H626 H 0.94645 0.63217 0.68539 0.0
H627 H 0.93032 0.69532 0.68596 0.0
C628 C 0.94935 0.50514 0.70231 0.0
C629 C 0.92497 0.45807 0.69078 0.0
C630 C 0.93972 0.54222 0.70424 0.0
C631 C 0.9051 0.53402 0.69515 0.0
C632 C 0.88086 0.48679 0.68395 0.0
C633 C 0.89052 0.45015 0.68171 0.0
C634 C 0.84971 0.60207 0.70307 0.0
C635 C 0.87473 0.65029 0.69691 0.0
C636 C 0.85929 0.56488 0.70265 0.0
C637 C 0.89445 0.57408 0.69647 0.0
C638 C 0.91931 0.62244 0.69073 0.0
C639 C 0.90972 0.65921 0.6908 0.0
H640 H 0.64421 0.46934 0.73304 0.0
H641 H 0.65867 0.47118 0.6269 0.0
H642 H 0.60215 0.38357 0.72879 0.0
H643 H 0.61726 0.38508 0.62278 0.0
H644 H 0.50323 0.25379 0.62503 0.0
H645 H 0.55399 0.33421 0.62681 0.0
H646 H 0.59259 0.30204 0.71744 0.0
H647 H 0.54108 0.22084 0.71561 0.0
C648 C 0.6386 0.45149 0.70876 0.0
C649 C 0.65475 0.47773 0.68027 0.0
C650 C 0.61474 0.40195 0.7064 0.0
C651 C 0.60602 0.37697 0.67542 0.0
C652 C 0.62293 0.40295 0.64705 0.0
C653 C 0.64699 0.45245 0.64945 0.0
C654 C 0.52302 0.26335 0.6449 0.0
C655 C 0.5181 0.23064 0.67006 0.0
C656 C 0.55229 0.30968 0.64592 0.0
C657 C 0.57752 0.3252 0.6724 0.0
C658 C 0.57356 0.29167 0.69683 0.0
C659 C 0.5443 0.24482 0.69556 0.0
H660 H 0.82758 0.91155 0.66251 0.0
H661 H 0.90512 0.94577 0.74194 0.0
H662 H 0.8443 0.99718 0.66014 0.0
H663 H 0.92243 1.02996 0.73907 0.0
H664 H 0.93974 0.18441 0.74358 0.0
H665 H 0.9187 0.09817 0.74803 0.0
H666 H 0.88219 0.07567 0.64529 0.0
H667 H 0.90242 0.16115 0.64133 0.0
C668 C 0.84776 0.93679 0.67988 0.0
C669 C 0.86443 0.92002 0.70263 0.0
C670 C 0.858 0.98683 0.67825 0.0
C671 C 0.88536 1.02278 0.69933 0.0
C672 C 0.90112 1.00526 0.72245 0.0
C673 C 0.89104 0.95583 0.72398 0.0
C674 C 0.92748 0.1613 0.72179 0.0
C675 C 0.92344 0.18145 0.69201 0.0
C676 C 0.91521 0.11092 0.72423 0.0
C677 C 0.89815 0.07764 0.69703 0.0
C678 C 0.89433 0.0982 0.6673 0.0
C679 C 0.90653 0.14833 0.66491 0.0
H680 H 0.12558 0.93001 0.6603 0.0
H681 H 0.12606 0.92048 0.76748 0.0
H682 H 0.18937 0.96009 0.66089 0.0
H683 H 0.19013 0.95132 0.76802 0.0
H684 H 0.30796 0.06709 0.75471 0.0
H685 H 0.24362 1.02712 0.75707 0.0
H686 H 0.23536 0.93674 0.67229 0.0
H687 H 0.30014 0.97737 0.66966 0.0
C688 C 0.13916 0.9338 0.684 0.0
C689 C 0.12047 0.92269 0.71386 0.0
C690 C 0.17582 0.95101 0.6843 0.0
C691 C 0.1949 0.95792 0.71447 0.0
C692 C 0.1763 0.94682 0.74436 0.0
C693 C 0.13956 0.92935 0.74405 0.0
C694 C 0.29251 1.03817 0.73685 0.0
C695 C 0.30926 1.02548 0.71195 0.0
C696 C 0.25554 1.0151 0.73831 0.0
C697 C 0.23426 0.97889 0.71477 0.0
C698 C 0.25099 0.9649 0.69058 0.0
C699 C 0.28811 0.98781 0.68927 0.0
H700 H 0.29862 0.31229 0.76742 0.0
H701 H 0.23357 0.19827 0.69654 0.0
H702 H 0.24972 0.32879 0.77593 0.0
H703 H 0.18416 0.2136 0.706 0.0
H704 H 0.12648 0.30246 0.69588 0.0
H705 H 0.17154 0.27784 0.69167 0.0
H706 H 0.19041 0.29733 0.79824 0.0
H707 H 0.14509 0.32214 0.80246 0.0
C708 C 0.27376 0.29052 0.75384 0.0
C709 C 0.27008 0.25435 0.73101 0.0
C710 C 0.24561 0.29959 0.75903 0.0
C711 C 0.21313 0.27269 0.7415 0.0
C712 C 0.20903 0.23537 0.71955 0.0
C713 C 0.2372 0.22627 0.71438 0.0
C714 C 0.13985 0.30084 0.7185 0.0
C715 C 0.13215 0.31414 0.74953 0.0
C716 C 0.16565 0.28662 0.71609 0.0
C717 C 0.18443 0.28539 0.74463 0.0
C718 C 0.17661 0.29837 0.77575 0.0
C719 C 0.15073 0.31264 0.77817 0.0
H720 H 0.2286 0.51227 0.27692 0.0
H721 H 0.13128 0.37767 0.28137 0.0
H722 H 0.2122 0.52188 0.21955 0.0
H723 H 0.11539 0.38691 0.22503 0.0
H724 H 0.10951 0.38787 0.11485 0.0
H725 H 0.13413 0.38579 0.16872 0.0
H726 H 0.16472 0.53476 0.1873 0.0
H727 H 0.14028 0.53743 0.13182 0.0
C728 C 0.20398 0.4846 0.26568 0.0
C729 C 0.18122 0.44443 0.2841 0.0
C730 C 0.19445 0.49027 0.23289 0.0
C731 C 0.16233 0.45531 0.21755 0.0
C732 C 0.14044 0.41448 0.23569 0.0
C733 C 0.14968 0.40915 0.26825 0.0
C734 C 0.12163 0.42065 0.12997 0.0
C735 C 0.12249 0.46283 0.11866 0.0
C736 C 0.13571 0.41925 0.16123 0.0
C737 C 0.15109 0.45985 0.18276 0.0
C738 C 0.15315 0.50278 0.17134 0.0
C739 C 0.13891 0.50423 0.13963 0.0
H740 H 0.64514 0.79841 0.25697 0.0
H741 H 0.71668 0.74194 0.2399 0.0
H742 H 0.61184 0.75774 0.20545 0.0
H743 H 0.68336 0.70134 0.18894 0.0
H744 H 0.59723 0.59055 0.12232 0.0
H745 H 0.62313 0.63234 0.17524 0.0
H746 H 0.61746 0.7561 0.14116 0.0
H747 H 0.59135 0.71388 0.08759 0.0
C748 C 0.65401 0.77769 0.24222 0.0
C749 C 0.68385 0.77373 0.25291 0.0
C750 C 0.63485 0.75439 0.21258 0.0
C751 C 0.64453 0.72568 0.19306 0.0
C752 C 0.67467 0.72245 0.20349 0.0
C753 C 0.69406 0.7462 0.23274 0.0
C754 C 0.6004 0.62614 0.12635 0.0
C755 C 0.59216 0.64865 0.10042 0.0
C756 C 0.61583 0.65046 0.15664 0.0
C757 C 0.62334 0.69817 0.16235 0.0
C758 C 0.61228 0.71949 0.13763 0.0
C759 C 0.59695 0.69507 0.10695 0.0
H760 H 0.48268 0.13346 0.13184 0.0
H761 H 0.47735 0.99509 0.1299 0.0
H762 H 0.43755 0.10693 0.17377 0.0
H763 H 0.43009 0.96659 0.1704 0.0
H764 H 0.35772 0.93427 0.25994 0.0
H765 H 0.40648 0.96091 0.22168 0.0
H766 H 0.37913 0.06505 0.1832 0.0
H767 H 0.33197 1.04018 0.22306 0.0
C768 C 0.47208 0.09733 0.14083 0.0
C769 C 0.48425 0.06682 0.12795 0.0
C770 C 0.4454 0.0815 0.16454 0.0
C771 C 0.42883 1.03382 0.17556 0.0
C772 C 0.44193 1.00364 0.16325 0.0
C773 C 0.46936 1.02001 0.13999 0.0
C774 C 0.3619 0.96257 0.24305 0.0
C775 C 0.34057 0.98485 0.24468 0.0
C776 C 0.39012 0.97803 0.22085 0.0
C777 C 0.39781 1.01594 0.19899 0.0
C778 C 0.37545 1.03693 0.19999 0.0
C779 C 0.34774 1.02212 0.22267 0.0
H780 H 0.56094 0.19738 0.95146 0.0
H781 H 0.53737 1.05643 0.91591 0.0
H782 H 0.53926 0.2111 0.89781 0.0
H783 H 0.51392 0.06799 0.86434 0.0
H784 H 0.4897 0.09757 0.76477 0.0
H785 H 0.52264 0.10068 0.81493 0.0
H786 H 0.48804 0.19211 0.86318 0.0
H787 H 0.45568 0.19035 0.81141 0.0
C788 C 0.55233 0.17001 0.93183 0.0
C789 C 0.5517 0.12614 0.93781 0.0
C790 C 0.53902 0.17735 0.90126 0.0
C791 C 0.52463 0.14089 0.87602 0.0
C792 C 0.5255 0.09796 0.88204 0.0
C793 C 0.53907 0.09106 0.91202 0.0
C794 C 0.48926 0.11871 0.78595 0.0
C795 C 0.46959 0.14308 0.78407 0.0
C796 C 0.50816 0.12036 0.81499 0.0
C797 C 0.50778 0.14567 0.84386 0.0
C798 C 0.48931 0.17216 0.84166 0.0
C799 C 0.47059 0.17112 0.81198 0.0
H800 H 1.04167 0.38832 0.90728 0.0
H801 H 0.96779 0.42545 0.95249 0.0
H802 H 1.00119 0.35165 0.8599 0.0
H803 H 0.92651 0.38767 0.90471 0.0
H804 H 0.89271 0.37639 0.79038 0.0
H805 H 0.91868 0.39789 0.84653 0.0
H806 H 0.94682 0.28522 0.84009 0.0
H807 H 0.92132 0.26464 0.78348 0.0
C808 C 1.01667 0.38862 0.90726 0.0
C809 C 1.00832 0.41033 0.93394 0.0
C810 C 0.99304 0.36681 0.88004 0.0
C811 C 0.96001 0.36568 0.87833 0.0
C812 C 0.95163 0.38771 0.90491 0.0
C813 C 0.9754 0.40961 0.93236 0.0
C814 C 0.90249 0.35427 0.80172 0.0
C815 C 0.90446 0.31835 0.78242 0.0
C816 C 0.91799 0.36714 0.83393 0.0
C817 C 0.936 0.34443 0.84782 0.0
C818 C 0.93412 0.30457 0.83003 0.0
C819 C 0.9185 0.29167 0.79778 0.0
H820 H 0.80832 0.68398 0.79028 0.0
H821 H 0.83944 0.8312 0.81503 0.0
H822 H 0.76564 0.65763 0.83543 0.0
H823 H 0.79716 0.80557 0.85984 0.0
H824 H 0.73603 0.74973 0.95447 0.0
H825 H 0.78118 0.77157 0.91307 0.0
H826 H 0.7085 0.65146 0.85023 0.0
H827 H 0.66281 0.62888 0.8925 0.0
C828 C 0.80726 0.71087 0.80634 0.0
C829 C 0.82868 0.75995 0.79984 0.0
C830 C 0.78205 0.69573 0.83181 0.0
C831 C 0.77741 0.7292 0.85168 0.0
C832 C 0.79992 0.77834 0.8458 0.0
C833 C 0.8247 0.7933 0.82019 0.0
C834 C 0.72928 0.72771 0.93186 0.0
C835 C 0.6952 0.68742 0.92715 0.0
C836 C 0.75548 0.74056 0.90781 0.0
C837 C 0.74901 0.71368 0.87782 0.0
C838 C 0.71496 0.67305 0.873 0.0
C839 C 0.68846 0.66025 0.89719 0.0
H840 H 0.82476 0.88867 0.43751 0.0
H841 H 0.72012 0.80121 0.47476 0.0
H842 H 0.85117 0.88233 0.49041 0.0
H843 H 0.7464 0.79413 0.5277 0.0
H844 H 0.80427 0.73128 0.58995 0.0
H845 H 0.78 0.75055 0.54138 0.0
H846 H 0.85935 0.8995 0.55366 0.0
H847 H 0.88366 0.88027 0.60355 0.0
C848 C 0.80738 0.86947 0.45752 0.0
C849 C 0.77028 0.84636 0.45213 0.0
C850 C 0.82256 0.86561 0.48784 0.0
C851 C 0.80108 0.83738 0.51344 0.0
C852 C 0.76388 0.81591 0.50853 0.0
C853 C 0.7487 0.8205 0.47835 0.0
C854 C 0.81694 0.76831 0.58249 0.0
C855 C 0.84623 0.80413 0.60106 0.0
C856 C 0.80259 0.77941 0.55459 0.0
C857 C 0.81714 0.82672 0.54367 0.0
C858 C 0.84727 0.86261 0.56135 0.0
C859 C 0.86142 0.85155 0.58987 0.0
H860 H 0.3094 0.91801 0.44311 0.0
H861 H 0.25204 0.9974 0.44273 0.0
H862 H 0.33419 0.95193 0.49861 0.0
H863 H 0.2777 1.03272 0.49723 0.0
H864 H 0.31692 0.07194 0.60667 0.0
H865 H 0.28422 1.02799 0.55574 0.0
H866 H 0.37814 1.02691 0.5212 0.0
H867 H 0.41015 0.06952 0.57183 0.0
C868 C 0.30134 0.94171 0.45516 0.0
C869 C 0.27875 0.95494 0.43824 0.0
C870 C 0.3161 0.96202 0.48684 0.0
C871 C 0.30872 0.99618 0.5025 0.0
C872 C 0.28418 1.00671 0.48638 0.0
C873 C 0.26947 0.98644 0.45485 0.0
C874 C 0.33063 1.06277 0.588 0.0
C875 C 0.3663 0.07457 0.59355 0.0
C876 C 0.31183 1.0373 0.55873 0.0
C877 C 0.32818 1.02293 0.53418 0.0
C878 C 0.36408 1.03585 0.53962 0.0
C879 C 0.3827 1.06103 0.56871 0.0
H880 H 1.05027 0.43166 0.63229 0.0
H881 H 0.98 0.31295 0.56726 0.0
H882 H 0.09653 0.45771 0.59145 0.0
H883 H 1.02717 0.3391 0.52588 0.0
H884 H 0.1363 0.37642 0.4768 0.0
H885 H 0.09001 0.34776 0.51881 0.0
H886 H 0.10904 0.49254 0.53509 0.0
H887 H 0.15443 0.52056 0.49283 0.0
C888 C 1.04451 0.41118 0.60904 0.0
C889 C 1.01105 0.37026 0.60316 0.0
C890 C 0.07124 0.42627 0.58551 0.0
C891 C 0.06598 0.40061 0.55523 0.0
C892 C 1.03242 0.35963 0.54903 0.0
C893 C 1.00516 0.34492 0.57255 0.0
C894 C 0.13146 0.40232 0.49026 0.0
C895 C 0.15011 0.45119 0.48224 0.0
C896 C 0.10432 0.38573 0.51385 0.0
C897 C 0.0954 0.41766 0.53042 0.0
C898 C 0.11513 0.46676 0.5232 0.0
C899 C 0.14159 0.48306 0.49921 0.0
loop_
_geom_bond_atom_site_label_1
_geom_bond_atom_site_label_2
_geom_bond_distance
_geom_bond_site_symmetry_2
_ccdc_geom_bond_type
Eu0 C9 2.828 . S
Eu0 O11 2.392 1_655 S
Eu0 O13 2.418 . S
Eu0 O18 2.373 . S
Eu0 O21 2.488 . S
Eu0 O22 2.471 1_554 S
Eu0 O23 2.349 1_554 S
Eu1 O10 2.369 1_554 S
Eu1 O14 2.477 1_554 S
Eu1 O15 2.482 . S
Eu1 O16 2.370 . S
Eu1 O19 2.397 1_455 S
Eu1 O20 2.393 1_554 S
Eu1 C30 2.828 . S
C2 O20 1.244 1_655 S
C2 O23 1.265 . S
C3 C4 1.379 1_554 S
C3 C7 1.373 . S
C3 C9 1.505 . S
C4 C3 1.379 1_556 S
C4 C6 1.369 . S
C4 H32 0.930 . S
C5 C7 1.383 . S
C5 C8 1.382 . S
C5 H33 0.930 . S
C6 C4 1.369 . S
C6 C8 1.392 1_556 S
C6 H34 0.930 . S
C7 C3 1.373 . S
C7 C5 1.383 . S
C7 H35 0.931 . S
C8 C5 1.382 . S
C8 C6 1.392 1_554 S
C9 Eu0 2.828 . S
C9 C3 1.505 . S
C9 O21 1.249 . S
C9 O22 1.244 1_554 S
O10 Eu1 2.369 1_556 S
O10 C12 1.258 1_556 S
O11 Eu0 2.392 1_455 S
O11 C12 1.242 . S
C12 O10 1.258 1_554 S
C12 O11 1.242 . S
O13 Eu0 2.418 . S
O13 C17 1.244 1_655 S
O14 Eu1 2.477 1_556 S
O14 C30 1.249 1_556 S
O15 Eu1 2.482 . S
O15 C30 1.244 . S
O16 Eu1 2.370 . S
O16 C17 1.265 . S
C17 O13 1.244 1_455 S
C17 O16 1.265 . S
O18 Eu0 2.373 . S
O18 C31 1.258 . S
O19 Eu1 2.397 1_655 S
O19 C31 1.242 . S
O20 Eu1 2.393 1_556 S
O20 C2 1.244 1_455 S
O21 Eu0 2.488 . S
O21 C9 1.249 . S
O22 Eu0 2.471 1_556 S
O22 C9 1.244 1_556 S
O23 Eu0 2.349 1_556 S
O23 C2 1.265 . S
C24 C25 1.379 . S
C24 C28 1.373 1_554 S
C24 C30 1.505 . S
C25 C24 1.379 . S
C25 C27 1.369 . S
C25 H36 0.930 . S
C26 C28 1.383 . S
C26 C29 1.382 1_556 S
C26 H37 0.930 . S
C27 C25 1.369 . S
C27 C29 1.392 . S
C27 H38 0.930 . S
C28 C24 1.373 1_556 S
C28 C26 1.383 . S
C28 H39 0.931 . S
C29 C26 1.382 1_554 S
C29 C27 1.392 . S
C30 Eu1 2.828 . S
C30 O14 1.249 1_554 S
C30 O15 1.244 . S
C30 C24 1.505 . S
C31 O18 1.258 . S
C31 O19 1.242 . S
H32 C4 0.930 . S
H33 C5 0.930 . S
H34 C6 0.930 . S
H35 C7 0.931 . S
H36 C25 0.930 . S
H37 C26 0.930 . S
H38 C27 0.930 . S
H39 C28 0.931 . S
Eu40 C49 2.828 . S
Eu40 O51 2.392 . S
Eu40 O53 2.418 . S
Eu40 O58 2.373 . S
Eu40 O61 2.488 . S
Eu40 O62 2.471 1_556 S
Eu40 O63 2.349 1_556 S
Eu41 O50 2.373 . S
Eu41 O54 2.488 . S
Eu41 O55 2.471 1_554 S
Eu41 O56 2.349 1_554 S
Eu41 O59 2.392 . S
Eu41 O60 2.418 . S
Eu41 C70 2.828 . S
C42 O60 1.244 . S
C42 O63 1.265 . S
C43 C44 1.379 1_556 S
C43 C47 1.373 . S
C43 C49 1.505 . S
C44 C43 1.379 1_554 S
C44 C46 1.369 . S
C44 H72 0.930 . S
C45 C47 1.383 . S
C45 C48 1.382 . S
C45 H73 0.930 . S
C46 C44 1.369 . S
C46 C48 1.392 1_554 S
C46 H74 0.930 . S
C47 C43 1.373 . S
C47 C45 1.383 . S
C47 H75 0.931 . S
C48 C45 1.382 . S
C48 C46 1.392 1_556 S
C49 Eu40 2.828 . S
C49 C43 1.505 . S
C49 O61 1.249 . S
C49 O62 1.244 1_556 S
O50 Eu41 2.373 . S
O50 C52 1.258 . S
O51 Eu40 2.392 . S
O51 C52 1.242 1_556 S
C52 O50 1.258 . S
C52 O51 1.242 1_554 S
O53 Eu40 2.418 . S
O53 C57 1.244 . S
O54 Eu41 2.488 . S
O54 C70 1.249 . S
O55 Eu41 2.471 1_556 S
O55 C70 1.244 1_556 S
O56 Eu41 2.349 1_556 S
O56 C57 1.265 . S
C57 O53 1.244 . S
C57 O56 1.265 . S
O58 Eu40 2.373 . S
O58 C71 1.258 . S
O59 Eu41 2.392 . S
O59 C71 1.242 1_554 S
O60 Eu41 2.418 . S
O60 C42 1.244 . S
O61 Eu40 2.488 . S
O61 C49 1.249 . S
O62 Eu40 2.471 1_554 S
O62 C49 1.244 1_554 S
O63 Eu40 2.349 1_554 S
O63 C42 1.265 . S
C64 C65 1.379 1_554 S
C64 C68 1.373 . S
C64 C70 1.505 . S
C65 C64 1.379 1_556 S
C65 C67 1.369 . S
C65 H76 0.930 . S
C66 C68 1.383 . S
C66 C69 1.382 . S
C66 H77 0.930 . S
C67 C65 1.369 . S
C67 C69 1.392 1_556 S
C67 H78 0.930 . S
C68 C64 1.373 . S
C68 C66 1.383 . S
C68 H79 0.931 . S
C69 C66 1.382 . S
C69 C67 1.392 1_554 S
C70 Eu41 2.828 . S
C70 O54 1.249 . S
C70 O55 1.244 1_554 S
C70 C64 1.505 . S
C71 O58 1.258 . S
C71 O59 1.242 1_556 S
H72 C44 0.930 . S
H73 C45 0.930 . S
H74 C46 0.930 . S
H75 C47 0.931 . S
H76 C65 0.930 . S
H77 C66 0.930 . S
H78 C67 0.930 . S
H79 C68 0.931 . S
Eu80 C89 2.828 . S
Eu80 O91 2.392 1_545 S
Eu80 O93 2.418 . S
Eu80 O98 2.373 . S
Eu80 O101 2.488 . S
Eu80 O102 2.471 1_554 S
Eu80 O103 2.349 1_554 S
Eu81 O90 2.377 . S
Eu81 O94 2.501 . S
Eu81 O95 2.454 1_556 S
Eu81 O96 2.321 1_556 S
Eu81 O99 2.391 1_566 S
Eu81 O100 2.451 . S
Eu81 C110 2.827 . S
C82 O100 1.244 1_545 S
C82 O103 1.265 . S
C83 C84 1.379 1_554 S
C83 C87 1.373 . S
C83 C89 1.505 . S
C84 C83 1.379 1_556 S
C84 C86 1.369 . S
C84 H112 0.930 . S
C85 C87 1.383 . S
C85 C88 1.382 . S
C85 H113 0.930 . S
C86 C84 1.369 . S
C86 C88 1.392 1_556 S
C86 H114 0.930 . S
C87 C83 1.373 . S
C87 C85 1.383 . S
C87 H115 0.931 . S
C88 C85 1.382 . S
C88 C86 1.392 1_554 S
C89 Eu80 2.828 . S
C89 C83 1.505 . S
C89 O101 1.249 . S
C89 O102 1.244 1_554 S
O90 Eu81 2.377 . S
O90 C92 1.258 1_556 S
O91 Eu80 2.392 1_565 S
O91 C92 1.242 . S
C92 O90 1.258 1_554 S
C92 O91 1.242 . S
O93 Eu80 2.418 . S
O93 C97 1.244 1_545 S
O94 Eu81 2.501 . S
O94 C110 1.270 . S
O95 Eu81 2.454 1_554 S
O95 C110 1.226 1_554 S
O96 Eu81 2.321 1_554 S
O96 C97 1.265 . S
C97 O93 1.244 1_565 S
C97 O96 1.265 . S
O98 Eu80 2.373 . S
O98 C111 1.258 . S
O99 Eu81 2.391 1_544 S
O99 C111 1.242 . S
O100 Eu81 2.451 . S
O100 C82 1.244 1_565 S
O101 Eu80 2.488 . S
O101 C89 1.249 . S
O102 Eu80 2.471 1_556 S
O102 C89 1.244 1_556 S
O103 Eu80 2.349 1_556 S
O103 C82 1.265 . S
C104 C105 1.355 1_556 S
C104 C108 1.395 . S
C104 C110 1.506 . S
C105 C104 1.355 1_554 S
C105 C107 1.369 . S
C105 H116 0.930 . S
C106 C108 1.383 . S
C106 C109 1.376 1_556 S
C106 H117 0.930 . S
C107 C105 1.369 . S
C107 C109 1.398 . S
C107 H118 0.930 . S
C108 C104 1.395 . S
C108 C106 1.383 . S
C108 H119 0.931 . S
C109 C106 1.376 1_554 S
C109 C107 1.398 . S
C110 Eu81 2.827 . S
C110 O94 1.270 . S
C110 O95 1.226 1_556 S
C110 C104 1.506 . S
C111 O98 1.258 . S
C111 O99 1.242 . S
H112 C84 0.930 . S
H113 C85 0.930 . S
H114 C86 0.930 . S
H115 C87 0.931 . S
H116 C105 0.930 . S
H117 C106 0.930 . S
H118 C107 0.930 . S
H119 C108 0.931 . S
Eu120 C129 2.828 . S
Eu120 O131 2.392 . S
Eu120 O133 2.418 . S
Eu120 O138 2.373 . S
Eu120 O141 2.488 . S
Eu120 O142 2.471 . S
Eu120 O143 2.349 . S
Eu121 O130 2.373 . S
Eu121 O134 2.488 . S
Eu121 O135 2.471 . S
Eu121 O136 2.349 . S
Eu121 O139 2.392 . S
Eu121 O140 2.418 . S
Eu121 C150 2.828 . S
C122 O140 1.244 . S
C122 O143 1.265 . S
C123 C124 1.379 . S
C123 C127 1.373 . S
C123 C129 1.505 . S
C124 C123 1.379 . S
C124 C126 1.369 . S
C124 H152 0.930 . S
C125 C127 1.383 . S
C125 C128 1.382 . S
C125 H153 0.930 . S
C126 C124 1.369 . S
C126 C128 1.392 . S
C126 H154 0.930 . S
C127 C123 1.373 . S
C127 C125 1.383 . S
C127 H155 0.931 . S
C128 C125 1.382 . S
C128 C126 1.392 . S
C129 Eu120 2.828 . S
C129 C123 1.505 . S
C129 O141 1.249 . S
C129 O142 1.244 . S
O130 Eu121 2.373 . S
O130 C132 1.258 . S
O131 Eu120 2.392 . S
O131 C132 1.242 . S
C132 O130 1.258 . S
C132 O131 1.242 . S
O133 Eu120 2.418 . S
O133 C137 1.244 . S
O134 Eu121 2.488 . S
O134 C150 1.249 . S
O135 Eu121 2.471 . S
O135 C150 1.244 . S
O136 Eu121 2.349 . S
O136 C137 1.265 . S
C137 O133 1.244 . S
C137 O136 1.265 . S
O138 Eu120 2.373 . S
O138 C151 1.258 . S
O139 Eu121 2.392 . S
O139 C151 1.242 . S
O140 Eu121 2.418 . S
O140 C122 1.244 . S
O141 Eu120 2.488 . S
O141 C129 1.249 . S
O142 Eu120 2.471 . S
O142 C129 1.244 . S
O143 Eu120 2.349 . S
O143 C122 1.265 . S
C144 C145 1.379 . S
C144 C148 1.373 . S
C144 C150 1.505 . S
C145 C144 1.379 . S
C145 C147 1.369 . S
C145 H156 0.930 . S
C146 C148 1.383 . S
C146 C149 1.382 . S
C146 H157 0.930 . S
C147 C145 1.369 . S
C147 C149 1.392 . S
C147 H158 0.930 . S
C148 C144 1.373 . S
C148 C146 1.383 . S
C148 H159 0.931 . S
C149 C146 1.382 . S
C149 C147 1.392 . S
C150 Eu121 2.828 . S
C150 O134 1.249 . S
C150 O135 1.244 . S
C150 C144 1.505 . S
C151 O138 1.258 . S
C151 O139 1.242 . S
H152 C124 0.930 . S
H153 C125 0.930 . S
H154 C126 0.930 . S
H155 C127 0.931 . S
H156 C145 0.930 . S
H157 C146 0.930 . S
H158 C147 0.930 . S
H159 C148 0.931 . S
Eu160 C169 2.828 . S
Eu160 O171 2.392 . S
Eu160 O173 2.418 . S
Eu160 O178 2.373 . S
Eu160 O181 2.488 . S
Eu160 O182 2.471 . S
Eu160 O183 2.349 . S
Eu161 O170 2.373 . S
Eu161 O174 2.488 1_565 S
Eu161 O175 2.471 1_565 S
Eu161 O176 2.349 . S
Eu161 O179 2.392 . S
Eu161 O180 2.418 . S
Eu161 C190 2.828 1_565 S
C162 O180 1.244 . S
C162 O183 1.265 . S
C163 C164 1.379 . S
C163 C167 1.373 . S
C163 C169 1.505 . S
C164 C163 1.379 . S
C164 C166 1.369 . S
C164 H192 0.930 . S
C165 C167 1.383 . S
C165 C168 1.382 . S
C165 H193 0.930 . S
C166 C164 1.369 . S
C166 C168 1.392 . S
C166 H194 0.930 . S
C167 C163 1.373 . S
C167 C165 1.383 . S
C167 H195 0.931 . S
C168 C165 1.382 . S
C168 C166 1.392 . S
C169 Eu160 2.828 . S
C169 C163 1.505 . S
C169 O181 1.249 . S
C169 O182 1.244 . S
O170 Eu161 2.373 . S
O170 C172 1.258 . S
O171 Eu160 2.392 . S
O171 C172 1.242 . S
C172 O170 1.258 . S
C172 O171 1.242 . S
O173 Eu160 2.418 . S
O173 C177 1.244 . S
O174 Eu161 2.488 1_545 S
O174 C190 1.249 . S
O175 Eu161 2.471 1_545 S
O175 C190 1.244 . S
O176 Eu161 2.349 . S
O176 C177 1.265 . S
C177 O173 1.244 . S
C177 O176 1.265 . S
O178 Eu160 2.373 . S
O178 C191 1.258 . S
O179 Eu161 2.392 . S
O179 C191 1.242 . S
O180 Eu161 2.418 . S
O180 C162 1.244 . S
O181 Eu160 2.488 . S
O181 C169 1.249 . S
O182 Eu160 2.471 . S
O182 C169 1.244 . S
O183 Eu160 2.349 . S
O183 C162 1.265 . S
C184 C185 1.379 . S
C184 C188 1.373 . S
C184 C190 1.505 . S
C185 C184 1.379 . S
C185 C187 1.369 . S
C185 H196 0.930 . S
C186 C188 1.383 . S
C186 C189 1.382 . S
C186 H197 0.930 . S
C187 C185 1.369 . S
C187 C189 1.392 . S
C187 H198 0.930 . S
C188 C184 1.373 . S
C188 C186 1.383 . S
C188 H199 0.931 . S
C189 C186 1.382 . S
C189 C187 1.392 . S
C190 Eu161 2.828 1_545 S
C190 O174 1.249 . S
C190 O175 1.244 . S
C190 C184 1.505 . S
C191 O178 1.258 . S
C191 O179 1.242 . S
H192 C164 0.930 . S
H193 C165 0.930 . S
H194 C166 0.930 . S
H195 C167 0.931 . S
H196 C185 0.930 . S
H197 C186 0.930 . S
H198 C187 0.930 . S
H199 C188 0.931 . S
Eu200 C209 2.828 . S
Eu200 O211 2.392 . S
Eu200 O213 2.418 . S
Eu200 O218 2.373 . S
Eu200 O221 2.488 . S
Eu200 O222 2.471 . S
Eu200 O223 2.349 . S
Eu201 O210 2.373 . S
Eu201 O214 2.488 . S
Eu201 O215 2.471 . S
Eu201 O216 2.349 . S
Eu201 O219 2.392 . S
Eu201 O220 2.418 . S
Eu201 C230 2.828 . S
C202 O220 1.244 . S
C202 O223 1.265 . S
C203 C204 1.379 . S
C203 C207 1.373 . S
C203 C209 1.505 . S
C204 C203 1.379 . S
C204 C206 1.369 . S
C204 H232 0.930 . S
C205 C207 1.383 . S
C205 C208 1.382 . S
C205 H233 0.930 . S
C206 C204 1.369 . S
C206 C208 1.392 . S
C206 H234 0.930 . S
C207 C203 1.373 . S
C207 C205 1.383 . S
C207 H235 0.931 . S
C208 C205 1.382 . S
C208 C206 1.392 . S
C209 Eu200 2.828 . S
C209 C203 1.505 . S
C209 O221 1.249 . S
C209 O222 1.244 . S
O210 Eu201 2.373 . S
O210 C212 1.258 . S
O211 Eu200 2.392 . S
O211 C212 1.242 . S
C212 O210 1.258 . S
C212 O211 1.242 . S
O213 Eu200 2.418 . S
O213 C217 1.244 . S
O214 Eu201 2.488 . S
O214 C230 1.249 . S
O215 Eu201 2.471 . S
O215 C230 1.244 . S
O216 Eu201 2.349 . S
O216 C217 1.265 . S
C217 O213 1.244 . S
C217 O216 1.265 . S
O218 Eu200 2.373 . S
O218 C231 1.258 . S
O219 Eu201 2.392 . S
O219 C231 1.242 . S
O220 Eu201 2.418 . S
O220 C202 1.244 . S
O221 Eu200 2.488 . S
O221 C209 1.249 . S
O222 Eu200 2.471 . S
O222 C209 1.244 . S
O223 Eu200 2.349 . S
O223 C202 1.265 . S
C224 C225 1.379 . S
C224 C228 1.373 . S
C224 C230 1.505 1_655 S
C225 C224 1.379 . S
C225 C227 1.369 . S
C225 H236 0.930 . S
C226 C228 1.383 . S
C226 C229 1.382 . S
C226 H237 0.930 . S
C227 C225 1.369 . S
C227 C229 1.392 . S
C227 H238 0.930 . S
C228 C224 1.373 . S
C228 C226 1.383 . S
C228 H239 0.931 . S
C229 C226 1.382 . S
C229 C227 1.392 . S
C230 Eu201 2.828 . S
C230 O214 1.249 . S
C230 O215 1.244 . S
C230 C224 1.505 1_455 S
C231 O218 1.258 . S
C231 O219 1.242 . S
H232 C204 0.930 . S
H233 C205 0.930 . S
H234 C206 0.930 . S
H235 C207 0.931 . S
H236 C225 0.930 . S
H237 C226 0.930 . S
H238 C227 0.930 . S
H239 C228 0.931 . S
Eu240 C249 2.828 . S
Eu240 O251 2.392 . S
Eu240 O253 2.418 . S
Eu240 O258 2.373 . S
Eu240 O261 2.488 . S
Eu240 O262 2.471 . S
Eu240 O263 2.349 . S
Eu241 O250 2.373 . S
Eu241 O254 2.488 . S
Eu241 O255 2.471 . S
Eu241 O256 2.349 . S
Eu241 O259 2.392 . S
Eu241 O260 2.418 . S
Eu241 C270 2.828 . S
C242 O260 1.244 . S
C242 O263 1.265 . S
C243 C244 1.379 . S
C243 C247 1.373 . S
C243 C249 1.505 . S
C244 C243 1.379 . S
C244 C246 1.369 . S
C244 H272 0.930 . S
C245 C247 1.383 . S
C245 C248 1.382 . S
C245 H273 0.930 . S
C246 C244 1.369 . S
C246 C248 1.392 . S
C246 H274 0.930 . S
C247 C243 1.373 . S
C247 C245 1.383 . S
C247 H275 0.931 . S
C248 C245 1.382 . S
C248 C246 1.392 . S
C249 Eu240 2.828 . S
C249 C243 1.505 . S
C249 O261 1.249 . S
C249 O262 1.244 . S
O250 Eu241 2.373 . S
O250 C252 1.258 . S
O251 Eu240 2.392 . S
O251 C252 1.242 . S
C252 O250 1.258 . S
C252 O251 1.242 . S
O253 Eu240 2.418 . S
O253 C257 1.244 . S
O254 Eu241 2.488 . S
O254 C270 1.249 . S
O255 Eu241 2.471 . S
O255 C270 1.244 . S
O256 Eu241 2.349 . S
O256 C257 1.265 . S
C257 O253 1.244 . S
C257 O256 1.265 . S
O258 Eu240 2.373 . S
O258 C271 1.258 . S
O259 Eu241 2.392 . S
O259 C271 1.242 . S
O260 Eu241 2.418 . S
O260 C242 1.244 . S
O261 Eu240 2.488 . S
O261 C249 1.249 . S
O262 Eu240 2.471 . S
O262 C249 1.244 . S
O263 Eu240 2.349 . S
O263 C242 1.265 . S
C264 C265 1.379 . S
C264 C268 1.373 . S
C264 C270 1.505 . S
C265 C264 1.379 . S
C265 C267 1.369 . S
C265 H276 0.930 . S
C266 C268 1.383 . S
C266 C269 1.382 . S
C266 H277 0.930 . S
C267 C265 1.369 . S
C267 C269 1.392 . S
C267 H278 0.930 . S
C268 C264 1.373 . S
C268 C266 1.383 . S
C268 H279 0.931 . S
C269 C266 1.382 . S
C269 C267 1.392 . S
C270 Eu241 2.828 . S
C270 O254 1.249 . S
C270 O255 1.244 . S
C270 C264 1.505 . S
C271 O258 1.258 . S
C271 O259 1.242 . S
H272 C244 0.930 . S
H273 C245 0.930 . S
H274 C246 0.930 . S
H275 C247 0.931 . S
H276 C265 0.930 . S
H277 C266 0.930 . S
H278 C267 0.930 . S
H279 C268 0.931 . S
Eu280 C289 2.828 . S
Eu280 O291 2.392 . S
Eu280 O293 2.418 . S
Eu280 O298 2.373 . S
Eu280 O301 2.488 . S
Eu280 O302 2.471 . S
Eu280 O303 2.349 . S
Eu281 O290 2.373 . S
Eu281 O294 2.488 . S
Eu281 O295 2.471 . S
Eu281 O296 2.349 . S
Eu281 O299 2.392 . S
Eu281 O300 2.418 . S
Eu281 C310 2.857 . S
C282 O300 1.244 . S
C282 O303 1.265 . S
C283 C284 1.379 . S
C283 C287 1.373 . S
C283 C289 1.505 . S
C284 C283 1.379 . S
C284 C286 1.369 . S
C284 H312 0.930 . S
C285 C287 1.383 . S
C285 C288 1.382 . S
C285 H313 0.930 . S
C286 C284 1.369 . S
C286 C288 1.392 . S
C286 H314 0.930 . S
C287 C283 1.373 . S
C287 C285 1.383 . S
C287 H315 0.931 . S
C288 C285 1.382 . S
C288 C286 1.392 . S
C289 Eu280 2.828 . S
C289 C283 1.505 . S
C289 O301 1.249 . S
C289 O302 1.244 . S
O290 Eu281 2.373 . S
O290 C292 1.258 . S
O291 Eu280 2.392 . S
O291 C292 1.242 . S
C292 O290 1.258 . S
C292 O291 1.242 . S
O293 Eu280 2.418 . S
O293 C297 1.244 . S
O294 Eu281 2.488 . S
O294 C310 1.263 . S
O295 Eu281 2.471 . S
O295 C310 1.259 . S
O296 Eu281 2.349 . S
O296 C297 1.265 . S
C297 O293 1.244 . S
C297 O296 1.265 . S
O298 Eu280 2.373 . S
O298 C311 1.258 . S
O299 Eu281 2.392 . S
O299 C311 1.242 . S
O300 Eu281 2.418 . S
O300 C282 1.244 . S
O301 Eu280 2.488 . S
O301 C289 1.249 . S
O302 Eu280 2.471 . S
O302 C289 1.244 . S
O303 Eu280 2.349 . S
O303 C282 1.265 . S
C304 C305 1.379 . S
C304 C308 1.373 . S
C304 C310 1.476 1_455 S
C305 C304 1.379 . S
C305 C307 1.369 . S
C305 H316 0.930 . S
C306 C308 1.383 . S
C306 C309 1.382 . S
C306 H317 0.930 . S
C307 C305 1.369 . S
C307 C309 1.392 . S
C307 H318 0.930 . S
C308 C304 1.373 . S
C308 C306 1.383 . S
C308 H319 0.931 . S
C309 C306 1.382 . S
C309 C307 1.392 . S
C310 Eu281 2.857 . S
C310 O294 1.263 . S
C310 O295 1.259 . S
C310 C304 1.476 1_655 S
C311 O298 1.258 . S
C311 O299 1.242 . S
H312 C284 0.930 . S
H313 C285 0.930 . S
H314 C286 0.930 . S
H315 C287 0.931 . S
H316 C305 0.930 . S
H317 C306 0.930 . S
H318 C307 0.930 . S
H319 C308 0.931 . S
Eu320 C329 2.828 . S
Eu320 O331 2.392 . S
Eu320 O333 2.418 . S
Eu320 O338 2.373 . S
Eu320 O341 2.488 . S
Eu320 O342 2.471 . S
Eu320 O343 2.349 . S
Eu321 O330 2.373 . S
Eu321 O334 2.488 . S
Eu321 O335 2.471 . S
Eu321 O336 2.349 . S
Eu321 O339 2.392 . S
Eu321 O340 2.418 . S
Eu321 C350 2.828 . S
C322 O340 1.244 . S
C322 O343 1.265 . S
C323 C324 1.379 . S
C323 C327 1.373 . S
C323 C329 1.505 . S
C324 C323 1.379 . S
C324 C326 1.369 . S
C324 H352 0.930 . S
C325 C327 1.383 . S
C325 C328 1.382 . S
C325 H353 0.930 1_655 S
C326 C324 1.369 . S
C326 C328 1.392 . S
C326 H354 0.930 . S
C327 C323 1.373 . S
C327 C325 1.383 . S
C327 H355 0.931 . S
C328 C325 1.382 . S
C328 C326 1.392 . S
C329 Eu320 2.828 . S
C329 C323 1.505 . S
C329 O341 1.249 . S
C329 O342 1.244 . S
O330 Eu321 2.373 . S
O330 C332 1.258 . S
O331 Eu320 2.392 . S
O331 C332 1.242 . S
C332 O330 1.258 . S
C332 O331 1.242 . S
O333 Eu320 2.418 . S
O333 C337 1.244 . S
O334 Eu321 2.488 . S
O334 C350 1.249 . S
O335 Eu321 2.471 . S
O335 C350 1.244 . S
O336 Eu321 2.349 . S
O336 C337 1.265 . S
C337 O333 1.244 . S
C337 O336 1.265 . S
O338 Eu320 2.373 . S
O338 C351 1.258 . S
O339 Eu321 2.392 . S
O339 C351 1.242 . S
O340 Eu321 2.418 . S
O340 C322 1.244 . S
O341 Eu320 2.488 . S
O341 C329 1.249 . S
O342 Eu320 2.471 . S
O342 C329 1.244 . S
O343 Eu320 2.349 . S
O343 C322 1.265 . S
C344 C345 1.379 . S
C344 C348 1.373 . S
C344 C350 1.505 . S
C345 C344 1.379 . S
C345 C347 1.369 . S
C345 H356 0.930 . S
C346 C348 1.383 . S
C346 C349 1.382 . S
C346 H357 0.930 . S
C347 C345 1.369 . S
C347 C349 1.392 . S
C347 H358 0.930 . S
C348 C344 1.373 . S
C348 C346 1.383 . S
C348 H359 0.931 . S
C349 C346 1.382 . S
C349 C347 1.392 . S
C350 Eu321 2.828 . S
C350 O334 1.249 . S
C350 O335 1.244 . S
C350 C344 1.505 . S
C351 O338 1.258 . S
C351 O339 1.242 . S
H352 C324 0.930 . S
H353 C325 0.930 1_455 S
H354 C326 0.930 . S
H355 C327 0.931 . S
H356 C345 0.930 . S
H357 C346 0.930 . S
H358 C347 0.930 . S
H359 C348 0.931 . S
H360 C368 0.950 . S
H361 C373 0.950 . S
H362 C370 0.950 . S
H363 C372 0.950 . S
H364 C374 0.950 . S
H365 C376 0.950 . S
H366 C378 0.950 . S
H367 C379 0.950 . S
C368 H360 0.950 . S
C368 C369 1.386 . S
C368 C370 1.391 . S
C369 C368 1.386 . S
C369 C373 1.393 1_556 S
C370 H362 0.950 . S
C370 C368 1.391 . S
C370 C371 1.400 . S
C371 C370 1.400 . S
C371 C372 1.398 1_556 S
C371 C377 1.490 1_556 S
C372 H363 0.950 . S
C372 C371 1.398 1_554 S
C372 C373 1.391 . S
C373 H361 0.950 . S
C373 C369 1.393 1_554 S
C373 C372 1.391 . S
C374 H364 0.950 . S
C374 C375 1.386 . S
C374 C376 1.391 . S
C375 C374 1.386 . S
C375 C379 1.393 1_554 S
C376 H365 0.950 . S
C376 C374 1.391 . S
C376 C377 1.402 . S
C377 C371 1.490 1_554 S
C377 C376 1.402 . S
C377 C378 1.397 1_554 S
C378 H366 0.950 . S
C378 C377 1.397 1_556 S
C378 C379 1.391 . S
C379 H367 0.950 . S
C379 C375 1.393 1_556 S
C379 C378 1.391 . S
H380 C388 0.950 . S
H381 C393 0.950 . S
H382 C390 0.950 . S
H383 C392 0.950 . S
H384 C394 0.950 . S
H385 C396 0.950 . S
H386 C398 0.950 . S
H387 C399 0.950 . S
C388 H380 0.950 . S
C388 C389 1.386 . S
C388 C390 1.391 . S
C389 C388 1.386 . S
C389 C393 1.393 1_556 S
C390 H382 0.950 . S
C390 C388 1.391 . S
C390 C391 1.400 . S
C391 C390 1.400 . S
C391 C392 1.398 1_556 S
C391 C397 1.491 . S
C392 H383 0.950 . S
C392 C391 1.398 1_554 S
C392 C393 1.391 . S
C393 H381 0.950 . S
C393 C389 1.393 1_554 S
C393 C392 1.391 . S
C394 H384 0.950 . S
C394 C395 1.386 1_554 S
C394 C396 1.391 . S
C395 C394 1.386 1_556 S
C395 C399 1.393 . S
C396 H385 0.950 . S
C396 C394 1.391 . S
C396 C397 1.400 1_554 S
C397 C391 1.491 . S
C397 C396 1.400 1_556 S
C397 C398 1.398 . S
C398 H386 0.950 . S
C398 C397 1.398 . S
C398 C399 1.391 . S
C399 H387 0.950 . S
C399 C395 1.393 . S
C399 C398 1.391 . S
H400 C408 0.952 . S
H401 C413 0.950 . S
H402 C410 0.952 . S
H403 C412 0.950 . S
H404 C414 0.950 . S
H405 C416 0.950 . S
H406 C418 0.950 . S
H407 C419 0.950 . S
C408 H400 0.952 . S
C408 C409 1.385 1_556 S
C408 C410 1.392 . S
C409 C408 1.385 1_554 S
C409 C413 1.393 . S
C410 H402 0.952 . S
C410 C408 1.392 . S
C410 C411 1.397 1_556 S
C411 C410 1.397 1_554 S
C411 C412 1.398 . S
C411 C417 1.491 . S
C412 H403 0.950 . S
C412 C411 1.398 . S
C412 C413 1.391 . S
C413 H401 0.950 . S
C413 C409 1.393 . S
C413 C412 1.391 . S
C414 H404 0.950 . S
C414 C415 1.386 . S
C414 C416 1.391 . S
C415 C414 1.386 . S
C415 C419 1.393 1_554 S
C416 H405 0.950 . S
C416 C414 1.391 . S
C416 C417 1.400 . S
C417 C411 1.491 . S
C417 C416 1.400 . S
C417 C418 1.398 1_554 S
C418 H406 0.950 . S
C418 C417 1.398 1_556 S
C418 C419 1.391 . S
C419 H407 0.950 . S
C419 C415 1.393 1_556 S
C419 C418 1.391 . S
H420 C428 0.950 . S
H421 C433 0.950 . S
H422 C430 0.950 . S
H423 C432 0.950 . S
H424 C434 0.950 . S
H425 C436 0.950 . S
H426 C438 0.950 . S
H427 C439 0.950 . S
C428 H420 0.950 . S
C428 C429 1.386 1_556 S
C428 C430 1.391 . S
C429 C428 1.386 1_554 S
C429 C433 1.393 . S
C430 H422 0.950 . S
C430 C428 1.391 . S
C430 C431 1.400 1_556 S
C431 C430 1.400 1_554 S
C431 C432 1.398 . S
C431 C437 1.491 . S
C432 H423 0.950 . S
C432 C431 1.398 . S
C432 C433 1.391 . S
C433 H421 0.950 . S
C433 C429 1.393 . S
C433 C432 1.391 . S
C434 H424 0.950 . S
C434 C435 1.386 . S
C434 C436 1.391 . S
C435 C434 1.386 . S
C435 C439 1.393 1_554 S
C436 H425 0.950 . S
C436 C434 1.391 . S
C436 C437 1.400 . S
C437 C431 1.491 . S
C437 C436 1.400 . S
C437 C438 1.398 1_554 S
C438 H426 0.950 . S
C438 C437 1.398 1_556 S
C438 C439 1.391 . S
C439 H427 0.950 . S
C439 C435 1.393 1_556 S
C439 C438 1.391 . S
H440 C448 0.950 . S
H441 C453 0.950 . S
H442 C450 0.950 . S
H443 C452 0.950 . S
H444 C454 0.950 . S
H445 C456 0.950 . S
H446 C458 0.950 . S
H447 C459 0.950 . S
C448 H440 0.950 . S
C448 C449 1.386 1_556 S
C448 C450 1.391 . S
C449 C448 1.386 1_554 S
C449 C453 1.393 . S
C450 H442 0.950 . S
C450 C448 1.391 . S
C450 C451 1.400 1_556 S
C451 C450 1.400 1_554 S
C451 C452 1.398 . S
C451 C457 1.491 . S
C452 H443 0.950 . S
C452 C451 1.398 . S
C452 C453 1.391 . S
C453 H441 0.950 . S
C453 C449 1.393 . S
C453 C452 1.391 . S
C454 H444 0.950 . S
C454 C455 1.386 . S
C454 C456 1.391 . S
C455 C454 1.386 . S
C455 C459 1.393 1_554 S
C456 H445 0.950 . S
C456 C454 1.391 . S
C456 C457 1.400 . S
C457 C451 1.491 . S
C457 C456 1.400 . S
C457 C458 1.398 1_554 S
C458 H446 0.950 . S
C458 C457 1.398 1_556 S
C458 C459 1.391 . S
C459 H447 0.950 . S
C459 C455 1.393 1_556 S
C459 C458 1.391 . S
H460 C468 0.950 . S
H461 C473 0.934 1_556 S
H462 C470 0.950 . S
H463 C472 0.966 . S
H464 C474 0.950 . S
H465 C476 0.950 . S
H466 C478 0.950 . S
H467 C479 0.950 . S
C468 H460 0.950 . S
C468 C469 1.386 . S
C468 C470 1.391 . S
C469 C468 1.386 . S
C469 C473 1.411 . S
C470 H462 0.950 . S
C470 C468 1.391 . S
C470 C471 1.400 . S
C471 C470 1.400 . S
C471 C472 1.385 1_554 S
C471 C477 1.491 . S
C472 H463 0.966 . S
C472 C471 1.385 1_556 S
C472 C473 1.388 1_556 S
C473 H461 0.934 1_554 S
C473 C469 1.411 . S
C473 C472 1.388 1_554 S
C474 H464 0.950 . S
C474 C475 1.386 1_556 S
C474 C476 1.391 . S
C475 C474 1.386 1_554 S
C475 C479 1.393 . S
C476 H465 0.950 . S
C476 C474 1.391 . S
C476 C477 1.400 1_556 S
C477 C471 1.491 . S
C477 C476 1.400 1_554 S
C477 C478 1.398 . S
C478 H466 0.950 . S
C478 C477 1.398 . S
C478 C479 1.391 . S
C479 H467 0.950 . S
C479 C475 1.393 . S
C479 C478 1.391 . S
H480 C488 0.950 . S
H481 C493 0.950 . S
H482 C490 0.950 . S
H483 C492 0.950 . S
H484 C494 0.950 . S
H485 C496 0.950 . S
H486 C498 0.950 . S
H487 C499 0.950 . S
C488 H480 0.950 . S
C488 C489 1.386 . S
C488 C490 1.391 . S
C489 C488 1.386 . S
C489 C493 1.393 . S
C490 H482 0.950 . S
C490 C488 1.391 . S
C490 C491 1.400 . S
C491 C490 1.400 . S
C491 C492 1.398 . S
C491 C497 1.491 1_655 S
C492 H483 0.950 . S
C492 C491 1.398 . S
C492 C493 1.391 . S
C493 H481 0.950 . S
C493 C489 1.393 . S
C493 C492 1.391 . S
C494 H484 0.950 . S
C494 C495 1.386 . S
C494 C496 1.391 . S
C495 C494 1.386 . S
C495 C499 1.393 . S
C496 H485 0.950 . S
C496 C494 1.391 . S
C496 C497 1.400 . S
C497 C491 1.491 1_455 S
C497 C496 1.400 . S
C497 C498 1.398 . S
C498 H486 0.950 . S
C498 C497 1.398 . S
C498 C499 1.391 . S
C499 H487 0.950 . S
C499 C495 1.393 . S
C499 C498 1.391 . S
H500 C508 0.950 . S
H501 C513 0.950 . S
H502 C510 0.950 . S
H503 C512 0.950 . S
H504 C514 0.950 . S
H505 C516 0.950 . S
H506 C518 0.950 . S
H507 C519 0.950 . S
C508 H500 0.950 . S
C508 C509 1.386 . S
C508 C510 1.391 . S
C509 C508 1.386 . S
C509 C513 1.393 . S
C510 H502 0.950 . S
C510 C508 1.391 . S
C510 C511 1.400 . S
C511 C510 1.400 . S
C511 C512 1.398 . S
C511 C517 1.491 . S
C512 H503 0.950 . S
C512 C511 1.398 . S
C512 C513 1.391 . S
C513 H501 0.950 . S
C513 C509 1.393 . S
C513 C512 1.391 . S
C514 H504 0.950 . S
C514 C515 1.386 . S
C514 C516 1.391 . S
C515 C514 1.386 . S
C515 C519 1.393 . S
C516 H505 0.950 . S
C516 C514 1.391 . S
C516 C517 1.400 . S
C517 C511 1.491 . S
C517 C516 1.400 . S
C517 C518 1.398 . S
C518 H506 0.950 . S
C518 C517 1.398 . S
C518 C519 1.391 . S
C519 H507 0.950 . S
C519 C515 1.393 . S
C519 C518 1.391 . S
H520 C528 0.950 . S
H521 C533 0.950 . S
H522 C530 0.950 . S
H523 C532 0.950 1_565 S
H524 C534 0.950 . S
H525 C536 0.950 . S
H526 C538 0.950 . S
H527 C539 0.950 . S
C528 H520 0.950 . S
C528 C529 1.386 . S
C528 C530 1.391 . S
C529 C528 1.386 . S
C529 C533 1.393 . S
C530 H522 0.950 . S
C530 C528 1.391 . S
C530 C531 1.400 1_545 S
C531 C530 1.400 1_565 S
C531 C532 1.398 1_565 S
C531 C537 1.491 . S
C532 H523 0.950 1_545 S
C532 C531 1.398 1_545 S
C532 C533 1.391 . S
C533 H521 0.950 . S
C533 C529 1.393 . S
C533 C532 1.391 . S
C534 H524 0.950 . S
C534 C535 1.386 . S
C534 C536 1.391 . S
C535 C534 1.386 . S
C535 C539 1.393 . S
C536 H525 0.950 . S
C536 C534 1.391 . S
C536 C537 1.400 . S
C537 C531 1.491 . S
C537 C536 1.400 . S
C537 C538 1.398 . S
C538 H526 0.950 . S
C538 C537 1.398 . S
C538 C539 1.391 . S
C539 H527 0.950 . S
C539 C535 1.393 . S
C539 C538 1.391 . S
H540 C548 0.950 . S
H541 C553 0.950 . S
H542 C550 0.950 . S
H543 C552 0.950 . S
H544 C554 0.950 . S
H545 C556 0.950 . S
H546 C558 0.950 . S
H547 C559 0.950 . S
C548 H540 0.950 . S
C548 C549 1.386 . S
C548 C550 1.391 . S
C549 C548 1.386 . S
C549 C553 1.393 . S
C550 H542 0.950 . S
C550 C548 1.391 . S
C550 C551 1.400 . S
C551 C550 1.400 . S
C551 C552 1.398 . S
C551 C557 1.491 . S
C552 H543 0.950 . S
C552 C551 1.398 . S
C552 C553 1.391 . S
C553 H541 0.950 . S
C553 C549 1.393 . S
C553 C552 1.391 . S
C554 H544 0.950 . S
C554 C555 1.386 . S
C554 C556 1.391 . S
C555 C554 1.386 . S
C555 C559 1.393 . S
C556 H545 0.950 . S
C556 C554 1.391 . S
C556 C557 1.400 . S
C557 C551 1.491 . S
C557 C556 1.400 . S
C557 C558 1.398 . S
C558 H546 0.950 . S
C558 C557 1.398 . S
C558 C559 1.391 . S
C559 H547 0.950 . S
C559 C555 1.393 . S
C559 C558 1.391 . S
H560 C568 0.950 . S
H561 C573 0.950 . S
H562 C570 0.950 . S
H563 C572 0.950 . S
H564 C574 0.950 . S
H565 C576 0.950 . S
H566 C578 0.950 . S
H567 C579 0.950 . S
C568 H560 0.950 . S
C568 C569 1.386 . S
C568 C570 1.391 . S
C569 C568 1.386 . S
C569 C573 1.393 . S
C570 H562 0.950 . S
C570 C568 1.391 . S
C570 C571 1.400 . S
C571 C570 1.400 . S
C571 C572 1.398 . S
C571 C577 1.491 . S
C572 H563 0.950 . S
C572 C571 1.398 . S
C572 C573 1.391 . S
C573 H561 0.950 . S
C573 C569 1.393 . S
C573 C572 1.391 . S
C574 H564 0.950 . S
C574 C575 1.386 . S
C574 C576 1.391 . S
C575 C574 1.386 . S
C575 C579 1.393 . S
C576 H565 0.950 . S
C576 C574 1.391 . S
C576 C577 1.400 . S
C577 C571 1.491 . S
C577 C576 1.400 . S
C577 C578 1.398 . S
C578 H566 0.950 . S
C578 C577 1.398 . S
C578 C579 1.391 . S
C579 H567 0.950 . S
C579 C575 1.393 . S
C579 C578 1.391 . S
H580 C588 0.950 . S
H581 C593 0.950 . S
H582 C590 0.950 . S
H583 C592 0.950 . S
H584 C594 0.950 . S
H585 C596 0.950 . S
H586 C598 0.950 . S
H587 C599 0.950 . S
C588 H580 0.950 . S
C588 C589 1.386 . S
C588 C590 1.391 . S
C589 C588 1.386 . S
C589 C593 1.393 . S
C590 H582 0.950 . S
C590 C588 1.391 . S
C590 C591 1.400 . S
C591 C590 1.400 . S
C591 C592 1.398 . S
C591 C597 1.491 . S
C592 H583 0.950 . S
C592 C591 1.398 . S
C592 C593 1.391 . S
C593 H581 0.950 . S
C593 C589 1.393 . S
C593 C592 1.391 . S
C594 H584 0.950 . S
C594 C595 1.386 . S
C594 C596 1.391 . S
C595 C594 1.386 . S
C595 C599 1.393 . S
C596 H585 0.950 . S
C596 C594 1.391 . S
C596 C597 1.400 . S
C597 C591 1.491 . S
C597 C596 1.400 . S
C597 C598 1.398 . S
C598 H586 0.950 . S
C598 C597 1.398 . S
C598 C599 1.391 . S
C599 H587 0.950 . S
C599 C595 1.393 . S
C599 C598 1.391 . S
H600 C608 0.950 . S
H601 C613 0.950 . S
H602 C610 0.950 . S
H603 C612 0.950 . S
H604 C614 0.950 . S
H605 C616 0.950 . S
H606 C618 0.950 . S
H607 C619 0.950 . S
C608 H600 0.950 . S
C608 C609 1.386 . S
C608 C610 1.391 . S
C609 C608 1.386 . S
C609 C613 1.393 . S
C610 H602 0.950 . S
C610 C608 1.391 . S
C610 C611 1.400 . S
C611 C610 1.400 . S
C611 C612 1.398 . S
C611 C617 1.491 . S
C612 H603 0.950 . S
C612 C611 1.398 . S
C612 C613 1.391 . S
C613 H601 0.950 . S
C613 C609 1.393 . S
C613 C612 1.391 . S
C614 H604 0.950 . S
C614 C615 1.386 . S
C614 C616 1.391 . S
C615 C614 1.386 . S
C615 C619 1.393 . S
C616 H605 0.950 . S
C616 C614 1.391 . S
C616 C617 1.400 . S
C617 C611 1.491 . S
C617 C616 1.400 . S
C617 C618 1.398 . S
C618 H606 0.950 . S
C618 C617 1.398 . S
C618 C619 1.391 . S
C619 H607 0.950 . S
C619 C615 1.393 . S
C619 C618 1.391 . S
H620 C628 0.950 . S
H621 C633 0.950 . S
H622 C630 0.950 . S
H623 C632 0.950 . S
H624 C634 0.950 . S
H625 C636 0.950 . S
H626 C638 0.950 . S
H627 C639 0.950 . S
C628 H620 0.950 . S
C628 C629 1.386 . S
C628 C630 1.391 . S
C629 C628 1.386 . S
C629 C633 1.393 . S
C630 H622 0.950 . S
C630 C628 1.391 . S
C630 C631 1.400 . S
C631 C630 1.400 . S
C631 C632 1.398 . S
C631 C637 1.491 . S
C632 H623 0.950 . S
C632 C631 1.398 . S
C632 C633 1.391 . S
C633 H621 0.950 . S
C633 C629 1.393 . S
C633 C632 1.391 . S
C634 H624 0.950 . S
C634 C635 1.386 . S
C634 C636 1.391 . S
C635 C634 1.386 . S
C635 C639 1.393 . S
C636 H625 0.950 . S
C636 C634 1.391 . S
C636 C637 1.400 . S
C637 C631 1.491 . S
C637 C636 1.400 . S
C637 C638 1.398 . S
C638 H626 0.950 . S
C638 C637 1.398 . S
C638 C639 1.391 . S
C639 H627 0.950 . S
C639 C635 1.393 . S
C639 C638 1.391 . S
H640 C648 0.950 . S
H641 C653 0.950 . S
H642 C650 0.950 . S
H643 C652 0.950 . S
H644 C654 0.950 . S
H645 C656 0.950 . S
H646 C658 0.950 . S
H647 C659 0.950 . S
C648 H640 0.950 . S
C648 C649 1.386 . S
C648 C650 1.391 . S
C649 C648 1.386 . S
C649 C653 1.393 . S
C650 H642 0.950 . S
C650 C648 1.391 . S
C650 C651 1.400 . S
C651 C650 1.400 . S
C651 C652 1.398 . S
C651 C657 1.491 . S
C652 H643 0.950 . S
C652 C651 1.398 . S
C652 C653 1.391 . S
C653 H641 0.950 . S
C653 C649 1.393 . S
C653 C652 1.391 . S
C654 H644 0.950 . S
C654 C655 1.386 . S
C654 C656 1.391 . S
C655 C654 1.386 . S
C655 C659 1.393 . S
C656 H645 0.950 . S
C656 C654 1.391 . S
C656 C657 1.400 . S
C657 C651 1.491 . S
C657 C656 1.400 . S
C657 C658 1.398 . S
C658 H646 0.950 . S
C658 C657 1.398 . S
C658 C659 1.391 . S
C659 H647 0.950 . S
C659 C655 1.393 . S
C659 C658 1.391 . S
H660 C668 0.950 . S
H661 C673 0.950 . S
H662 C670 0.950 . S
H663 C672 0.950 . S
H664 C674 0.950 . S
H665 C676 0.950 1_565 S
H666 C678 0.950 . S
H667 C679 0.950 . S
C668 H660 0.950 . S
C668 C669 1.386 . S
C668 C670 1.391 . S
C669 C668 1.386 . S
C669 C673 1.393 . S
C670 H662 0.950 . S
C670 C668 1.391 . S
C670 C671 1.400 . S
C671 C670 1.400 . S
C671 C672 1.398 . S
C671 C677 1.491 . S
C672 H663 0.950 . S
C672 C671 1.398 . S
C672 C673 1.391 . S
C673 H661 0.950 . S
C673 C669 1.393 . S
C673 C672 1.391 . S
C674 H664 0.950 . S
C674 C675 1.386 . S
C674 C676 1.391 . S
C675 C674 1.386 . S
C675 C679 1.393 . S
C676 H665 0.950 1_545 S
C676 C674 1.391 . S
C676 C677 1.400 1_545 S
C677 C671 1.491 . S
C677 C676 1.400 1_565 S
C677 C678 1.398 . S
C678 H666 0.950 . S
C678 C677 1.398 . S
C678 C679 1.391 1_565 S
C679 H667 0.950 . S
C679 C675 1.393 . S
C679 C678 1.391 1_545 S
H680 C688 0.950 1_545 S
H681 C693 0.950 . S
H682 C690 0.950 1_545 S
H683 C692 0.950 . S
H684 C694 0.950 . S
H685 C696 0.950 . S
H686 C698 0.950 . S
H687 C699 0.950 . S
C688 H680 0.950 1_565 S
C688 C689 1.386 . S
C688 C690 1.391 . S
C689 C688 1.386 . S
C689 C693 1.393 . S
C690 H682 0.950 1_565 S
C690 C688 1.391 . S
C690 C691 1.400 . S
C691 C690 1.400 . S
C691 C692 1.398 . S
C691 C697 1.491 . S
C692 H683 0.950 . S
C692 C691 1.398 . S
C692 C693 1.391 . S
C693 H681 0.950 . S
C693 C689 1.393 . S
C693 C692 1.391 . S
C694 H684 0.950 . S
C694 C695 1.386 1_565 S
C694 C696 1.391 . S
C695 C694 1.386 1_545 S
C695 C699 1.393 . S
C696 H685 0.950 . S
C696 C694 1.391 . S
C696 C697 1.400 . S
C697 C691 1.491 . S
C697 C696 1.400 . S
C697 C698 1.398 1_565 S
C698 H686 0.950 . S
C698 C697 1.398 1_545 S
C698 C699 1.391 . S
C699 H687 0.950 . S
C699 C695 1.393 . S
C699 C698 1.391 . S
H700 C708 0.950 . S
H701 C713 0.950 . S
H702 C710 0.950 . S
H703 C712 0.950 . S
H704 C714 0.950 . S
H705 C716 0.950 . S
H706 C718 0.950 . S
H707 C719 0.950 . S
C708 H700 0.950 . S
C708 C709 1.386 . S
C708 C710 1.391 . S
C709 C708 1.386 . S
C709 C713 1.393 . S
C710 H702 0.950 . S
C710 C708 1.391 . S
C710 C711 1.400 . S
C711 C710 1.400 . S
C711 C712 1.398 . S
C711 C717 1.491 . S
C712 H703 0.950 . S
C712 C711 1.398 . S
C712 C713 1.391 . S
C713 H701 0.950 . S
C713 C709 1.393 . S
C713 C712 1.391 . S
C714 H704 0.950 . S
C714 C715 1.386 . S
C714 C716 1.391 . S
C715 C714 1.386 . S
C715 C719 1.393 . S
C716 H705 0.950 . S
C716 C714 1.391 . S
C716 C717 1.400 . S
C717 C711 1.491 . S
C717 C716 1.400 . S
C717 C718 1.398 . S
C718 H706 0.950 . S
C718 C717 1.398 . S
C718 C719 1.391 . S
C719 H707 0.950 . S
C719 C715 1.393 . S
C719 C718 1.391 . S
H720 C728 0.950 . S
H721 C733 0.950 . S
H722 C730 0.950 . S
H723 C732 0.950 . S
H724 C734 0.950 . S
H725 C736 0.950 . S
H726 C738 0.950 . S
H727 C739 0.950 . S
C728 H720 0.950 . S
C728 C729 1.386 . S
C728 C730 1.391 . S
C729 C728 1.386 . S
C729 C733 1.393 . S
C730 H722 0.950 . S
C730 C728 1.391 . S
C730 C731 1.400 . S
C731 C730 1.400 . S
C731 C732 1.398 . S
C731 C737 1.491 . S
C732 H723 0.950 . S
C732 C731 1.398 . S
C732 C733 1.391 . S
C733 H721 0.950 . S
C733 C729 1.393 . S
C733 C732 1.391 . S
C734 H724 0.950 . S
C734 C735 1.386 . S
C734 C736 1.391 . S
C735 C734 1.386 . S
C735 C739 1.393 . S
C736 H725 0.950 . S
C736 C734 1.391 . S
C736 C737 1.400 . S
C737 C731 1.491 . S
C737 C736 1.400 . S
C737 C738 1.398 . S
C738 H726 0.950 . S
C738 C737 1.398 . S
C738 C739 1.391 . S
C739 H727 0.950 . S
C739 C735 1.393 . S
C739 C738 1.391 . S
H740 C748 0.950 . S
H741 C753 0.950 . S
H742 C750 0.950 . S
H743 C752 0.950 . S
H744 C754 0.950 . S
H745 C756 0.950 . S
H746 C758 0.950 . S
H747 C759 0.950 . S
C748 H740 0.950 . S
C748 C749 1.386 . S
C748 C750 1.391 . S
C749 C748 1.386 . S
C749 C753 1.393 . S
C750 H742 0.950 . S
C750 C748 1.391 . S
C750 C751 1.400 . S
C751 C750 1.400 . S
C751 C752 1.398 . S
C751 C757 1.491 . S
C752 H743 0.950 . S
C752 C751 1.398 . S
C752 C753 1.391 . S
C753 H741 0.950 . S
C753 C749 1.393 . S
C753 C752 1.391 . S
C754 H744 0.950 . S
C754 C755 1.386 . S
C754 C756 1.391 . S
C755 C754 1.386 . S
C755 C759 1.393 . S
C756 H745 0.950 . S
C756 C754 1.391 . S
C756 C757 1.400 . S
C757 C751 1.491 . S
C757 C756 1.400 . S
C757 C758 1.398 . S
C758 H746 0.950 . S
C758 C757 1.398 . S
C758 C759 1.391 . S
C759 H747 0.950 . S
C759 C755 1.393 . S
C759 C758 1.391 . S
H760 C768 0.950 1_545 S
H761 C773 0.950 . S
H762 C770 0.950 . S
H763 C772 0.950 . S
H764 C774 0.950 . S
H765 C776 0.950 . S
H766 C778 0.950 . S
H767 C779 0.950 . S
C768 H760 0.950 1_565 S
C768 C769 1.386 . S
C768 C770 1.391 . S
C769 C768 1.386 . S
C769 C773 1.393 . S
C770 H762 0.950 . S
C770 C768 1.391 . S
C770 C771 1.400 . S
C771 C770 1.400 . S
C771 C772 1.398 . S
C771 C777 1.491 . S
C772 H763 0.950 . S
C772 C771 1.398 . S
C772 C773 1.391 . S
C773 H761 0.950 . S
C773 C769 1.393 . S
C773 C772 1.391 . S
C774 H764 0.950 . S
C774 C775 1.386 . S
C774 C776 1.391 . S
C775 C774 1.386 . S
C775 C779 1.393 . S
C776 H765 0.950 . S
C776 C774 1.391 . S
C776 C777 1.400 . S
C777 C771 1.491 . S
C777 C776 1.400 . S
C777 C778 1.398 . S
C778 H766 0.950 . S
C778 C777 1.398 . S
C778 C779 1.391 . S
C779 H767 0.950 . S
C779 C775 1.393 . S
C779 C778 1.391 . S
H780 C788 0.950 . S
H781 C793 0.950 . S
H782 C790 0.950 . S
H783 C792 0.950 . S
H784 C794 0.950 . S
H785 C796 0.950 . S
H786 C798 0.950 . S
H787 C799 0.950 . S
C788 H780 0.950 . S
C788 C789 1.386 . S
C788 C790 1.391 . S
C789 C788 1.386 . S
C789 C793 1.393 . S
C790 H782 0.950 . S
C790 C788 1.391 . S
C790 C791 1.400 . S
C791 C790 1.400 . S
C791 C792 1.398 . S
C791 C797 1.491 . S
C792 H783 0.950 . S
C792 C791 1.398 . S
C792 C793 1.391 . S
C793 H781 0.950 . S
C793 C789 1.393 . S
C793 C792 1.391 . S
C794 H784 0.950 . S
C794 C795 1.386 . S
C794 C796 1.391 . S
C795 C794 1.386 . S
C795 C799 1.393 . S
C796 H785 0.950 . S
C796 C794 1.391 . S
C796 C797 1.400 . S
C797 C791 1.491 . S
C797 C796 1.400 . S
C797 C798 1.398 . S
C798 H786 0.950 . S
C798 C797 1.398 . S
C798 C799 1.391 . S
C799 H787 0.950 . S
C799 C795 1.393 . S
C799 C798 1.391 . S
H800 C808 0.950 1_455 S
H801 C813 0.950 . S
H802 C810 0.950 . S
H803 C812 0.950 . S
H804 C814 0.950 . S
H805 C816 0.950 . S
H806 C818 0.950 . S
H807 C819 0.950 . S
C808 H800 0.950 1_655 S
C808 C809 1.386 . S
C808 C810 1.391 . S
C809 C808 1.386 . S
C809 C813 1.393 . S
C810 H802 0.950 . S
C810 C808 1.391 . S
C810 C811 1.400 . S
C811 C810 1.400 . S
C811 C812 1.398 . S
C811 C817 1.491 . S
C812 H803 0.950 . S
C812 C811 1.398 . S
C812 C813 1.391 . S
C813 H801 0.950 . S
C813 C809 1.393 . S
C813 C812 1.391 . S
C814 H804 0.950 . S
C814 C815 1.386 . S
C814 C816 1.391 . S
C815 C814 1.386 . S
C815 C819 1.393 . S
C816 H805 0.950 . S
C816 C814 1.391 . S
C816 C817 1.400 . S
C817 C811 1.491 . S
C817 C816 1.400 . S
C817 C818 1.398 . S
C818 H806 0.950 . S
C818 C817 1.398 . S
C818 C819 1.391 . S
C819 H807 0.950 . S
C819 C815 1.393 . S
C819 C818 1.391 . S
H820 C828 0.950 . S
H821 C833 0.950 . S
H822 C830 0.950 . S
H823 C832 0.950 . S
H824 C834 0.950 . S
H825 C836 0.950 . S
H826 C838 0.950 . S
H827 C839 0.950 . S
C828 H820 0.950 . S
C828 C829 1.386 . S
C828 C830 1.391 . S
C829 C828 1.386 . S
C829 C833 1.393 . S
C830 H822 0.950 . S
C830 C828 1.391 . S
C830 C831 1.400 . S
C831 C830 1.400 . S
C831 C832 1.398 . S
C831 C837 1.491 . S
C832 H823 0.950 . S
C832 C831 1.398 . S
C832 C833 1.391 . S
C833 H821 0.950 . S
C833 C829 1.393 . S
C833 C832 1.391 . S
C834 H824 0.950 . S
C834 C835 1.386 . S
C834 C836 1.391 . S
C835 C834 1.386 . S
C835 C839 1.393 . S
C836 H825 0.950 . S
C836 C834 1.391 . S
C836 C837 1.400 . S
C837 C831 1.491 . S
C837 C836 1.400 . S
C837 C838 1.398 . S
C838 H826 0.950 . S
C838 C837 1.398 . S
C838 C839 1.391 . S
C839 H827 0.950 . S
C839 C835 1.393 . S
C839 C838 1.391 . S
H840 C848 0.950 . S
H841 C853 0.950 . S
H842 C850 0.950 . S
H843 C852 0.950 . S
H844 C854 0.950 . S
H845 C856 0.950 . S
H846 C858 0.950 . S
H847 C859 0.950 . S
C848 H840 0.950 . S
C848 C849 1.386 . S
C848 C850 1.391 . S
C849 C848 1.386 . S
C849 C853 1.393 . S
C850 H842 0.950 . S
C850 C848 1.391 . S
C850 C851 1.400 . S
C851 C850 1.400 . S
C851 C852 1.398 . S
C851 C857 1.491 . S
C852 H843 0.950 . S
C852 C851 1.398 . S
C852 C853 1.391 . S
C853 H841 0.950 . S
C853 C849 1.393 . S
C853 C852 1.391 . S
C854 H844 0.950 . S
C854 C855 1.386 . S
C854 C856 1.391 . S
C855 C854 1.386 . S
C855 C859 1.393 . S
C856 H845 0.950 . S
C856 C854 1.391 . S
C856 C857 1.400 . S
C857 C851 1.491 . S
C857 C856 1.400 . S
C857 C858 1.398 . S
C858 H846 0.950 . S
C858 C857 1.398 . S
C858 C859 1.391 . S
C859 H847 0.950 . S
C859 C855 1.393 . S
C859 C858 1.391 . S
H860 C868 0.950 . S
H861 C873 0.950 . S
H862 C870 0.950 . S
H863 C872 0.950 . S
H864 C874 0.950 . S
H865 C876 0.950 . S
H866 C878 0.950 . S
H867 C879 0.950 . S
C868 H860 0.950 . S
C868 C869 1.386 . S
C868 C870 1.391 . S
C869 C868 1.386 . S
C869 C873 1.393 . S
C870 H862 0.950 . S
C870 C868 1.391 . S
C870 C871 1.400 . S
C871 C870 1.400 . S
C871 C872 1.398 . S
C871 C877 1.491 1_565 S
C872 H863 0.950 . S
C872 C871 1.398 . S
C872 C873 1.391 . S
C873 H861 0.950 . S
C873 C869 1.393 . S
C873 C872 1.391 . S
C874 H864 0.950 . S
C874 C875 1.386 . S
C874 C876 1.391 . S
C875 C874 1.386 . S
C875 C879 1.393 . S
C876 H865 0.950 . S
C876 C874 1.391 . S
C876 C877 1.400 . S
C877 C871 1.491 1_545 S
C877 C876 1.400 . S
C877 C878 1.398 . S
C878 H866 0.950 . S
C878 C877 1.398 . S
C878 C879 1.391 . S
C879 H867 0.950 . S
C879 C875 1.393 . S
C879 C878 1.391 . S
H880 C888 0.950 . S
H881 C893 0.950 . S
H882 C890 0.950 1_455 S
H883 C892 0.950 . S
H884 C894 0.950 . S
H885 C896 0.950 . S
H886 C898 0.950 . S
H887 C899 0.950 . S
C888 H880 0.950 . S
C888 C889 1.386 . S
C888 C890 1.391 . S
C889 C888 1.386 . S
C889 C893 1.393 . S
C890 H882 0.950 1_655 S
C890 C888 1.391 . S
C890 C891 1.400 . S
C891 C890 1.400 . S
C891 C892 1.398 . S
C891 C897 1.491 1_655 S
C892 H883 0.950 . S
C892 C891 1.398 . S
C892 C893 1.391 . S
C893 H881 0.950 . S
C893 C889 1.393 . S
C893 C892 1.391 . S
C894 H884 0.950 . S
C894 C895 1.386 . S
C894 C896 1.391 . S
C895 C894 1.386 . S
C895 C899 1.393 . S
C896 H885 0.950 . S
C896 C894 1.391 . S
C896 C897 1.400 . S
C897 C891 1.491 1_455 S
C897 C896 1.400 . S
C897 C898 1.398 . S
C898 H886 0.950 . S
C898 C897 1.398 . S
C898 C899 1.391 . S
C899 H887 0.950 . S
C899 C895 1.393 . S
C899 C898 1.391 . S
C369 C48 0.638 . S
C375 C29 0.605 . S
C389 C92 3.338 1_556 S
C395 C71 3.393 . S
C409 C109 1.074 . S
C415 C12 1.069 . S
C429 C111 3.104 . S
C435 C52 3.080 . S
C449 C88 2.159 . S
C455 C31 2.273 . S
C469 C8 0.589 . S
C475 C69 0.326 . S
C489 C149 2.914 . S
C495 C172 2.867 . S
C509 C212 0.807 . S
C515 C189 0.839 . S
C529 C229 0.916 . S
C535 C132 0.918 . S
C549 C168 0.630 . S
C555 C231 0.520 . S
C569 C208 2.219 . S
C575 C151 2.329 . S
C589 C191 2.445 . S
C595 C128 2.417 . S
C609 C288 0.625 . S
C615 C269 0.559 . S
C629 C311 3.417 . S
C635 C332 3.359 . S
C649 C349 1.077 . S
C655 C252 1.078 . S
C669 C351 3.030 . S
C675 C292 3.002 . S
C689 C328 2.155 1_455 S
C695 C271 2.272 . S
C709 C248 0.563 . S
C715 C309 0.300 . S
C729 C202 2.271 . S
C735 C17 2.599 . S
C749 C122 1.963 . S
C755 C42 1.933 . S
C769 C97 3.032 . S
C775 C162 2.732 . S
C789 C82 2.270 . S
C795 C257 2.599 . S
C809 C2 1.843 . S
C815 C282 1.798 . S
C829 C337 3.000 . S
C835 C57 3.004 . S
C849 C137 2.672 . S
C855 C322 2.341 . S
C869 C177 2.056 . S
C875 C242 1.832 . S
C889 C297 2.900 . S
C895 C217 2.891 . S
