# Generated by pormake.
# Topology lcs-e, (6)-cn, num edge types: 1
# Building blocks:
#     Node 0, Type 0, BuildingBlock: LEVNOQ01_clean_sbu_1, # of connection points: 6
#     Node 1, Type 0, BuildingBlock: LEVNOQ01_clean_sbu_1, # of connection points: 6
#     Node 2, Type 0, BuildingBlock: LEVNOQ01_clean_sbu_1, # of connection points: 6
#     Node 3, Type 0, BuildingBlock: LEVNOQ01_clean_sbu_1, # of connection points: 6
#     Node 4, Type 0, BuildingBlock: LEVNOQ01_clean_sbu_1, # of connection points: 6
#     Node 5, Type 0, BuildingBlock: LEVNOQ01_clean_sbu_1, # of connection points: 6
#     Node 6, Type 0, BuildingBlock: LEVNOQ01_clean_sbu_1, # of connection points: 6
#     Node 7, Type 0, BuildingBlock: LEVNOQ01_clean_sbu_1, # of connection points: 6
#     Node 8, Type 0, BuildingBlock: LEVNOQ01_clean_sbu_1, # of connection points: 6
#     Node 9, Type 0, BuildingBlock: LEVNOQ01_clean_sbu_1, # of connection points: 6
#     Node 10, Type 0, BuildingBlock: LEVNOQ01_clean_sbu_1, # of connection points: 6
#     Node 11, Type 0, BuildingBlock: LEVNOQ01_clean_sbu_1, # of connection points: 6
#     Node 12, Type 0, BuildingBlock: LEVNOQ01_clean_sbu_1, # of connection points: 6
#     Node 13, Type 0, BuildingBlock: LEVNOQ01_clean_sbu_1, # of connection points: 6
#     Node 14, Type 0, BuildingBlock: LEVNOQ01_clean_sbu_1, # of connection points: 6
#     Node 15, Type 0, BuildingBlock: LEVNOQ01_clean_sbu_1, # of connection points: 6
#     Node 16, Type 0, BuildingBlock: LEVNOQ01_clean_sbu_1, # of connection points: 6
#     Node 17, Type 0, BuildingBlock: LEVNOQ01_clean_sbu_1, # of connection points: 6
#     Node 18, Type 0, BuildingBlock: LEVNOQ01_clean_sbu_1, # of connection points: 6
#     Node 19, Type 0, BuildingBlock: LEVNOQ01_clean_sbu_1, # of connection points: 6
#     Node 20, Type 0, BuildingBlock: LEVNOQ01_clean_sbu_1, # of connection points: 6
#     Node 21, Type 0, BuildingBlock: LEVNOQ01_clean_sbu_1, # of connection points: 6
#     Node 22, Type 0, BuildingBlock: LEVNOQ01_clean_sbu_1, # of connection points: 6
#     Node 23, Type 0, BuildingBlock: LEVNOQ01_clean_sbu_1, # of connection points: 6
#     Node 24, Type 0, BuildingBlock: LEVNOQ01_clean_sbu_1, # of connection points: 6
#     Node 25, Type 0, BuildingBlock: LEVNOQ01_clean_sbu_1, # of connection points: 6
#     Node 26, Type 0, BuildingBlock: LEVNOQ01_clean_sbu_1, # of connection points: 6
#     Node 27, Type 0, BuildingBlock: LEVNOQ01_clean_sbu_1, # of connection points: 6
#     Node 28, Type 0, BuildingBlock: LEVNOQ01_clean_sbu_1, # of connection points: 6
#     Node 29, Type 0, BuildingBlock: LEVNOQ01_clean_sbu_1, # of connection points: 6
#     Node 30, Type 0, BuildingBlock: LEVNOQ01_clean_sbu_1, # of connection points: 6
#     Node 31, Type 0, BuildingBlock: LEVNOQ01_clean_sbu_1, # of connection points: 6
#     Node 32, Type 0, BuildingBlock: LEVNOQ01_clean_sbu_1, # of connection points: 6
#     Node 33, Type 0, BuildingBlock: LEVNOQ01_clean_sbu_1, # of connection points: 6
#     Node 34, Type 0, BuildingBlock: LEVNOQ01_clean_sbu_1, # of connection points: 6
#     Node 35, Type 0, BuildingBlock: LEVNOQ01_clean_sbu_1, # of connection points: 6
#     Node 36, Type 0, BuildingBlock: LEVNOQ01_clean_sbu_1, # of connection points: 6
#     Node 37, Type 0, BuildingBlock: LEVNOQ01_clean_sbu_1, # of connection points: 6
#     Node 38, Type 0, BuildingBlock: LEVNOQ01_clean_sbu_1, # of connection points: 6
#     Node 39, Type 0, BuildingBlock: LEVNOQ01_clean_sbu_1, # of connection points: 6
#     Node 40, Type 0, BuildingBlock: LEVNOQ01_clean_sbu_1, # of connection points: 6
#     Node 41, Type 0, BuildingBlock: LEVNOQ01_clean_sbu_1, # of connection points: 6
#     Node 42, Type 0, BuildingBlock: LEVNOQ01_clean_sbu_1, # of connection points: 6
#     Node 43, Type 0, BuildingBlock: LEVNOQ01_clean_sbu_1, # of connection points: 6
#     Node 44, Type 0, BuildingBlock: LEVNOQ01_clean_sbu_1, # of connection points: 6
#     Node 45, Type 0, BuildingBlock: LEVNOQ01_clean_sbu_1, # of connection points: 6
#     Node 46, Type 0, BuildingBlock: LEVNOQ01_clean_sbu_1, # of connection points: 6
#     Node 47, Type 0, BuildingBlock: LEVNOQ01_clean_sbu_1, # of connection points: 6
#     Edge 48, Type (0, 0), BuildingBlock: KIFKEQ_clean_linker_1, # of connection points: 2
#     Edge 49, Type (0, 0), BuildingBlock: KIFKEQ_clean_linker_1, # of connection points: 2
#     Edge 50, Type (0, 0), BuildingBlock: KIFKEQ_clean_linker_1, # of connection points: 2
#     Edge 51, Type (0, 0), BuildingBlock: KIFKEQ_clean_linker_1, # of connection points: 2
#     Edge 52, Type (0, 0), BuildingBlock: KIFKEQ_clean_linker_1, # of connection points: 2
#     Edge 53, Type (0, 0), BuildingBlock: KIFKEQ_clean_linker_1, # of connection points: 2
#     Edge 54, Type (0, 0), BuildingBlock: KIFKEQ_clean_linker_1, # of connection points: 2
#     Edge 55, Type (0, 0), BuildingBlock: KIFKEQ_clean_linker_1, # of connection points: 2
#     Edge 56, Type (0, 0), BuildingBlock: KIFKEQ_clean_linker_1, # of connection points: 2
#     Edge 57, Type (0, 0), BuildingBlock: KIFKEQ_clean_linker_1, # of connection points: 2
#     Edge 58, Type (0, 0), BuildingBlock: KIFKEQ_clean_linker_1, # of connection points: 2
#     Edge 59, Type (0, 0), BuildingBlock: KIFKEQ_clean_linker_1, # of connection points: 2
#     Edge 60, Type (0, 0), BuildingBlock: KIFKEQ_clean_linker_1, # of connection points: 2
#     Edge 61, Type (0, 0), BuildingBlock: KIFKEQ_clean_linker_1, # of connection points: 2
#     Edge 62, Type (0, 0), BuildingBlock: KIFKEQ_clean_linker_1, # of connection points: 2
#     Edge 63, Type (0, 0), BuildingBlock: KIFKEQ_clean_linker_1, # of connection points: 2
#     Edge 64, Type (0, 0), BuildingBlock: KIFKEQ_clean_linker_1, # of connection points: 2
#     Edge 65, Type (0, 0), BuildingBlock: KIFKEQ_clean_linker_1, # of connection points: 2
#     Edge 66, Type (0, 0), BuildingBlock: KIFKEQ_clean_linker_1, # of connection points: 2
#     Edge 67, Type (0, 0), BuildingBlock: KIFKEQ_clean_linker_1, # of connection points: 2
#     Edge 68, Type (0, 0), BuildingBlock: KIFKEQ_clean_linker_1, # of connection points: 2
#     Edge 69, Type (0, 0), BuildingBlock: KIFKEQ_clean_linker_1, # of connection points: 2
#     Edge 70, Type (0, 0), BuildingBlock: KIFKEQ_clean_linker_1, # of connection points: 2
#     Edge 71, Type (0, 0), BuildingBlock: KIFKEQ_clean_linker_1, # of connection points: 2
#     Edge 72, Type (0, 0), BuildingBlock: KIFKEQ_clean_linker_1, # of connection points: 2
#     Edge 73, Type (0, 0), BuildingBlock: KIFKEQ_clean_linker_1, # of connection points: 2
#     Edge 74, Type (0, 0), BuildingBlock: KIFKEQ_clean_linker_1, # of connection points: 2
#     Edge 75, Type (0, 0), BuildingBlock: KIFKEQ_clean_linker_1, # of connection points: 2
#     Edge 76, Type (0, 0), BuildingBlock: KIFKEQ_clean_linker_1, # of connection points: 2
#     Edge 77, Type (0, 0), BuildingBlock: KIFKEQ_clean_linker_1, # of connection points: 2
#     Edge 78, Type (0, 0), BuildingBlock: KIFKEQ_clean_linker_1, # of connection points: 2
#     Edge 79, Type (0, 0), BuildingBlock: KIFKEQ_clean_linker_1, # of connection points: 2
#     Edge 80, Type (0, 0), BuildingBlock: KIFKEQ_clean_linker_1, # of connection points: 2
#     Edge 81, Type (0, 0), BuildingBlock: KIFKEQ_clean_linker_1, # of connection points: 2
#     Edge 82, Type (0, 0), BuildingBlock: KIFKEQ_clean_linker_1, # of connection points: 2
#     Edge 83, Type (0, 0), BuildingBlock: KIFKEQ_clean_linker_1, # of connection points: 2
#     Edge 84, Type (0, 0), BuildingBlock: KIFKEQ_clean_linker_1, # of connection points: 2
#     Edge 85, Type (0, 0), BuildingBlock: KIFKEQ_clean_linker_1, # of connection points: 2
#     Edge 86, Type (0, 0), BuildingBlock: KIFKEQ_clean_linker_1, # of connection points: 2
#     Edge 87, Type (0, 0), BuildingBlock: KIFKEQ_clean_linker_1, # of connection points: 2
#     Edge 88, Type (0, 0), BuildingBlock: KIFKEQ_clean_linker_1, # of connection points: 2
#     Edge 89, Type (0, 0), BuildingBlock: KIFKEQ_clean_linker_1, # of connection points: 2
#     Edge 90, Type (0, 0), BuildingBlock: KIFKEQ_clean_linker_1, # of connection points: 2
#     Edge 91, Type (0, 0), BuildingBlock: KIFKEQ_clean_linker_1, # of connection points: 2
#     Edge 92, Type (0, 0), BuildingBlock: KIFKEQ_clean_linker_1, # of connection points: 2
#     Edge 93, Type (0, 0), BuildingBlock: KIFKEQ_clean_linker_1, # of connection points: 2
#     Edge 94, Type (0, 0), BuildingBlock: KIFKEQ_clean_linker_1, # of connection points: 2
#     Edge 95, Type (0, 0), BuildingBlock: KIFKEQ_clean_linker_1, # of connection points: 2
#     Edge 96, Type (0, 0), BuildingBlock: KIFKEQ_clean_linker_1, # of connection points: 2
#     Edge 97, Type (0, 0), BuildingBlock: KIFKEQ_clean_linker_1, # of connection points: 2
#     Edge 98, Type (0, 0), BuildingBlock: KIFKEQ_clean_linker_1, # of connection points: 2
#     Edge 99, Type (0, 0), BuildingBlock: KIFKEQ_clean_linker_1, # of connection points: 2
#     Edge 100, Type (0, 0), BuildingBlock: KIFKEQ_clean_linker_1, # of connection points: 2
#     Edge 101, Type (0, 0), BuildingBlock: KIFKEQ_clean_linker_1, # of connection points: 2
#     Edge 102, Type (0, 0), BuildingBlock: KIFKEQ_clean_linker_1, # of connection points: 2
#     Edge 103, Type (0, 0), BuildingBlock: KIFKEQ_clean_linker_1, # of connection points: 2
#     Edge 104, Type (0, 0), BuildingBlock: KIFKEQ_clean_linker_1, # of connection points: 2
#     Edge 105, Type (0, 0), BuildingBlock: KIFKEQ_clean_linker_1, # of connection points: 2
#     Edge 106, Type (0, 0), BuildingBlock: KIFKEQ_clean_linker_1, # of connection points: 2
#     Edge 107, Type (0, 0), BuildingBlock: KIFKEQ_clean_linker_1, # of connection points: 2
#     Edge 108, Type (0, 0), BuildingBlock: KIFKEQ_clean_linker_1, # of connection points: 2
#     Edge 109, Type (0, 0), BuildingBlock: KIFKEQ_clean_linker_1, # of connection points: 2
#     Edge 110, Type (0, 0), BuildingBlock: KIFKEQ_clean_linker_1, # of connection points: 2
#     Edge 111, Type (0, 0), BuildingBlock: KIFKEQ_clean_linker_1, # of connection points: 2
#     Edge 112, Type (0, 0), BuildingBlock: KIFKEQ_clean_linker_1, # of connection points: 2
#     Edge 113, Type (0, 0), BuildingBlock: KIFKEQ_clean_linker_1, # of connection points: 2
#     Edge 114, Type (0, 0), BuildingBlock: KIFKEQ_clean_linker_1, # of connection points: 2
#     Edge 115, Type (0, 0), BuildingBlock: KIFKEQ_clean_linker_1, # of connection points: 2
#     Edge 116, Type (0, 0), BuildingBlock: KIFKEQ_clean_linker_1, # of connection points: 2
#     Edge 117, Type (0, 0), BuildingBlock: KIFKEQ_clean_linker_1, # of connection points: 2
#     Edge 118, Type (0, 0), BuildingBlock: KIFKEQ_clean_linker_1, # of connection points: 2
#     Edge 119, Type (0, 0), BuildingBlock: KIFKEQ_clean_linker_1, # of connection points: 2
#     Edge 120, Type (0, 0), BuildingBlock: KIFKEQ_clean_linker_1, # of connection points: 2
#     Edge 121, Type (0, 0), BuildingBlock: KIFKEQ_clean_linker_1, # of connection points: 2
#     Edge 122, Type (0, 0), BuildingBlock: KIFKEQ_clean_linker_1, # of connection points: 2
#     Edge 123, Type (0, 0), BuildingBlock: KIFKEQ_clean_linker_1, # of connection points: 2
#     Edge 124, Type (0, 0), BuildingBlock: KIFKEQ_clean_linker_1, # of connection points: 2
#     Edge 125, Type (0, 0), BuildingBlock: KIFKEQ_clean_linker_1, # of connection points: 2
#     Edge 126, Type (0, 0), BuildingBlock: KIFKEQ_clean_linker_1, # of connection points: 2
#     Edge 127, Type (0, 0), BuildingBlock: KIFKEQ_clean_linker_1, # of connection points: 2
#     Edge 128, Type (0, 0), BuildingBlock: KIFKEQ_clean_linker_1, # of connection points: 2
#     Edge 129, Type (0, 0), BuildingBlock: KIFKEQ_clean_linker_1, # of connection points: 2
#     Edge 130, Type (0, 0), BuildingBlock: KIFKEQ_clean_linker_1, # of connection points: 2
#     Edge 131, Type (0, 0), BuildingBlock: KIFKEQ_clean_linker_1, # of connection points: 2
#     Edge 132, Type (0, 0), BuildingBlock: KIFKEQ_clean_linker_1, # of connection points: 2
#     Edge 133, Type (0, 0), BuildingBlock: KIFKEQ_clean_linker_1, # of connection points: 2
#     Edge 134, Type (0, 0), BuildingBlock: KIFKEQ_clean_linker_1, # of connection points: 2
#     Edge 135, Type (0, 0), BuildingBlock: KIFKEQ_clean_linker_1, # of connection points: 2
#     Edge 136, Type (0, 0), BuildingBlock: KIFKEQ_clean_linker_1, # of connection points: 2
#     Edge 137, Type (0, 0), BuildingBlock: KIFKEQ_clean_linker_1, # of connection points: 2
#     Edge 138, Type (0, 0), BuildingBlock: KIFKEQ_clean_linker_1, # of connection points: 2
#     Edge 139, Type (0, 0), BuildingBlock: KIFKEQ_clean_linker_1, # of connection points: 2
#     Edge 140, Type (0, 0), BuildingBlock: KIFKEQ_clean_linker_1, # of connection points: 2
#     Edge 141, Type (0, 0), BuildingBlock: KIFKEQ_clean_linker_1, # of connection points: 2
#     Edge 142, Type (0, 0), BuildingBlock: KIFKEQ_clean_linker_1, # of connection points: 2
#     Edge 143, Type (0, 0), BuildingBlock: KIFKEQ_clean_linker_1, # of connection points: 2
#     Edge 144, Type (0, 0), BuildingBlock: KIFKEQ_clean_linker_1, # of connection points: 2
#     Edge 145, Type (0, 0), BuildingBlock: KIFKEQ_clean_linker_1, # of connection points: 2
#     Edge 146, Type (0, 0), BuildingBlock: KIFKEQ_clean_linker_1, # of connection points: 2
#     Edge 147, Type (0, 0), BuildingBlock: KIFKEQ_clean_linker_1, # of connection points: 2
#     Edge 148, Type (0, 0), BuildingBlock: KIFKEQ_clean_linker_1, # of connection points: 2
#     Edge 149, Type (0, 0), BuildingBlock: KIFKEQ_clean_linker_1, # of connection points: 2
#     Edge 150, Type (0, 0), BuildingBlock: KIFKEQ_clean_linker_1, # of connection points: 2
#     Edge 151, Type (0, 0), BuildingBlock: KIFKEQ_clean_linker_1, # of connection points: 2
#     Edge 152, Type (0, 0), BuildingBlock: KIFKEQ_clean_linker_1, # of connection points: 2
#     Edge 153, Type (0, 0), BuildingBlock: KIFKEQ_clean_linker_1, # of connection points: 2
#     Edge 154, Type (0, 0), BuildingBlock: KIFKEQ_clean_linker_1, # of connection points: 2
#     Edge 155, Type (0, 0), BuildingBlock: KIFKEQ_clean_linker_1, # of connection points: 2
#     Edge 156, Type (0, 0), BuildingBlock: KIFKEQ_clean_linker_1, # of connection points: 2
#     Edge 157, Type (0, 0), BuildingBlock: KIFKEQ_clean_linker_1, # of connection points: 2
#     Edge 158, Type (0, 0), BuildingBlock: KIFKEQ_clean_linker_1, # of connection points: 2
#     Edge 159, Type (0, 0), BuildingBlock: KIFKEQ_clean_linker_1, # of connection points: 2
#     Edge 160, Type (0, 0), BuildingBlock: KIFKEQ_clean_linker_1, # of connection points: 2
#     Edge 161, Type (0, 0), BuildingBlock: KIFKEQ_clean_linker_1, # of connection points: 2
#     Edge 162, Type (0, 0), BuildingBlock: KIFKEQ_clean_linker_1, # of connection points: 2
#     Edge 163, Type (0, 0), BuildingBlock: KIFKEQ_clean_linker_1, # of connection points: 2
#     Edge 164, Type (0, 0), BuildingBlock: KIFKEQ_clean_linker_1, # of connection points: 2
#     Edge 165, Type (0, 0), BuildingBlock: KIFKEQ_clean_linker_1, # of connection points: 2
#     Edge 166, Type (0, 0), BuildingBlock: KIFKEQ_clean_linker_1, # of connection points: 2
#     Edge 167, Type (0, 0), BuildingBlock: KIFKEQ_clean_linker_1, # of connection points: 2
#     Edge 168, Type (0, 0), BuildingBlock: KIFKEQ_clean_linker_1, # of connection points: 2
#     Edge 169, Type (0, 0), BuildingBlock: KIFKEQ_clean_linker_1, # of connection points: 2
#     Edge 170, Type (0, 0), BuildingBlock: KIFKEQ_clean_linker_1, # of connection points: 2
#     Edge 171, Type (0, 0), BuildingBlock: KIFKEQ_clean_linker_1, # of connection points: 2
#     Edge 172, Type (0, 0), BuildingBlock: KIFKEQ_clean_linker_1, # of connection points: 2
#     Edge 173, Type (0, 0), BuildingBlock: KIFKEQ_clean_linker_1, # of connection points: 2
#     Edge 174, Type (0, 0), BuildingBlock: KIFKEQ_clean_linker_1, # of connection points: 2
#     Edge 175, Type (0, 0), BuildingBlock: KIFKEQ_clean_linker_1, # of connection points: 2
#     Edge 176, Type (0, 0), BuildingBlock: KIFKEQ_clean_linker_1, # of connection points: 2
#     Edge 177, Type (0, 0), BuildingBlock: KIFKEQ_clean_linker_1, # of connection points: 2
#     Edge 178, Type (0, 0), BuildingBlock: KIFKEQ_clean_linker_1, # of connection points: 2
#     Edge 179, Type (0, 0), BuildingBlock: KIFKEQ_clean_linker_1, # of connection points: 2
#     Edge 180, Type (0, 0), BuildingBlock: KIFKEQ_clean_linker_1, # of connection points: 2
#     Edge 181, Type (0, 0), BuildingBlock: KIFKEQ_clean_linker_1, # of connection points: 2
#     Edge 182, Type (0, 0), BuildingBlock: KIFKEQ_clean_linker_1, # of connection points: 2
#     Edge 183, Type (0, 0), BuildingBlock: KIFKEQ_clean_linker_1, # of connection points: 2
#     Edge 184, Type (0, 0), BuildingBlock: KIFKEQ_clean_linker_1, # of connection points: 2
#     Edge 185, Type (0, 0), BuildingBlock: KIFKEQ_clean_linker_1, # of connection points: 2
#     Edge 186, Type (0, 0), BuildingBlock: KIFKEQ_clean_linker_1, # of connection points: 2
#     Edge 187, Type (0, 0), BuildingBlock: KIFKEQ_clean_linker_1, # of connection points: 2
#     Edge 188, Type (0, 0), BuildingBlock: KIFKEQ_clean_linker_1, # of connection points: 2
#     Edge 189, Type (0, 0), BuildingBlock: KIFKEQ_clean_linker_1, # of connection points: 2
#     Edge 190, Type (0, 0), BuildingBlock: KIFKEQ_clean_linker_1, # of connection points: 2
#     Edge 191, Type (0, 0), BuildingBlock: KIFKEQ_clean_linker_1, # of connection points: 2
# Relax obj value: 0.362
# Max RMSD: 0.255
# Mean RMSD: 0.255
data_MOF--net-lcs-e--node1-LEVNOQ01_clean_sbu_1--edge1-KIFKEQ_clean_linker_1
_symmetry_space_group_name_H-M    P1
_symmetry_Int_Tables_number       1
_symmetry_cell_setting            triclinic
loop_
_symmetry_equiv_pos_as_xyz
'x, y, z'
_cell_length_a     57.570214
_cell_length_b     57.620266
_cell_length_c     57.663976
_cell_angle_alpha  89.939997
_cell_angle_beta   90.04106
_cell_angle_gamma 90.032178
loop_
_atom_site_label
_atom_site_type_symbol
_atom_site_fract_x
_atom_site_fract_y
_atom_site_fract_z
_atom_type_partial_charge
O0 O 0.9811 0.41061 0.25152 0.0
Mg1 Mg 0.99318 0.41898 0.28545 0.0
O2 O 0.01509 0.39859 0.24015 0.0
Mg3 Mg 0.02424 0.37199 0.2691 0.0
O4 O -0.00197 0.38563 0.29402 0.0
O5 O 0.97523 0.40677 0.31553 0.0
O6 O 0.03497 0.34587 0.2969 0.0
O7 O -0.00248 0.34413 0.25691 0.0
Mg8 Mg 0.04522 0.3251 0.24174 0.0
O9 O 0.0527 0.35865 0.24671 0.0
O10 O 0.0441 0.31335 0.27772 0.0
O11 O 0.013 0.33151 0.22478 0.0
O12 O 0.07692 0.33734 0.22692 0.0
C13 C 0.04828 0.42064 0.28842 0.0
C14 C -0.00238 0.41182 0.23714 0.0
C15 C 0.98488 0.387 0.31181 0.0
C16 C 0.0407 0.32445 0.29665 0.0
C17 C -0.00342 0.3308 0.23929 0.0
C18 C 0.07166 0.35735 0.23525 0.0
O19 O 0.02888 0.43148 0.28939 0.0
O20 O 0.0495 0.39927 0.2826 0.0
O21 O 0.83536 0.73297 0.49412 0.0
Mg22 Mg 0.82837 0.74271 0.52876 0.0
O23 O 0.84419 0.7693 0.49079 0.0
Mg24 Mg 0.87153 0.77546 0.52026 0.0
O25 O 0.86066 0.74451 0.54287 0.0
O26 O 0.83482 0.71859 0.55467 0.0
O27 O 0.89914 0.78456 0.54783 0.0
O28 O 0.89968 0.75137 0.50438 0.0
Mg29 Mg 0.91598 0.80239 0.4923 0.0
O30 O 0.8827 0.80721 0.50077 0.0
O31 O 0.92964 0.79734 0.52721 0.0
O32 O 0.90638 0.77213 0.47385 0.0
O33 O 0.90113 0.83491 0.48265 0.0
C34 C 0.82224 0.79607 0.5384 0.0
C35 C 0.83267 0.7519 0.4835 0.0
C36 C 0.8555 0.72708 0.55603 0.0
C37 C 0.92031 0.79136 0.54648 0.0
C38 C 0.91205 0.75523 0.48654 0.0
C39 C 0.88208 0.82735 0.49148 0.0
O40 O 0.81258 0.77637 0.53515 0.0
O41 O 0.84417 0.79867 0.5366 0.0
O42 O 0.51631 0.58366 0.77077 0.0
Mg43 Mg 0.49974 0.5778 0.8031 0.0
O44 O 0.48441 0.59127 0.75209 0.0
Mg45 Mg 0.46989 0.62033 0.77591 0.0
O46 O 0.49229 0.61147 0.80633 0.0
O47 O 0.51289 0.59449 0.83327 0.0
O48 O 0.45421 0.64869 0.79849 0.0
O49 O 0.49756 0.6475 0.76554 0.0
Mg50 Mg 0.45275 0.66322 0.74082 0.0
O51 O 0.44491 0.62982 0.74761 0.0
O52 O 0.44702 0.67868 0.77492 0.0
O53 O 0.4877 0.65747 0.73046 0.0
O54 O 0.4248 0.64875 0.7215 0.0
C55 C 0.44511 0.57276 0.79655 0.0
C56 C 0.50241 0.57872 0.75456 0.0
C57 C 0.50355 0.61316 0.82537 0.0
C58 C 0.44784 0.66967 0.79522 0.0
C59 C 0.501 0.66007 0.74771 0.0
C60 C 0.42838 0.6298 0.73273 0.0
O61 O 0.46457 0.56373 0.80241 0.0
O62 O 0.44369 0.59322 0.78803 0.0
O63 O 0.66163 0.26559 0.01371 0.0
Mg64 Mg 0.66733 0.25328 0.04808 0.0
O65 O 0.65141 0.23191 -0.00024 0.0
Mg66 Mg 0.62333 0.22026 0.02613 0.0
O67 O 0.63347 0.24641 0.05251 0.0
O68 O 0.65066 0.2694 0.07708 0.0
O69 O 0.59559 0.20756 0.05107 0.0
O70 O 0.59444 0.2456 0.01258 0.0
Mg71 Mg 0.58109 0.19778 0.99355 0.0
O72 O 0.61402 0.19098 0.00215 0.0
O73 O 0.56562 0.19792 0.02824 0.0
O74 O 0.59153 0.22979 0.9788 0.0
O75 O 0.59532 0.16709 0.97923 0.0
C76 C 0.67226 0.19837 0.04836 0.0
C77 C 0.66475 0.24956 -0.00093 0.0
C78 C 0.63198 0.25902 0.07062 0.0
C79 C 0.57445 0.20129 0.04836 0.0
C80 C 0.58446 0.24487 0.99289 0.0
C81 C 0.61429 0.1727 0.98957 0.0
O82 O 0.68162 0.21827 0.05164 0.0
O83 O 0.65148 0.19623 0.04075 0.0
O84 O 0.97692 0.58123 0.235 0.0
Mg85 Mg 0.99002 0.57368 0.20129 0.0
O86 O 0.01017 0.59281 0.24886 0.0
Mg87 Mg 0.02258 0.61884 0.22074 0.0
O88 O -0.00318 0.60714 0.19434 0.0
O89 O 0.97356 0.58806 0.17133 0.0
O90 O 0.03676 0.64458 0.19371 0.0
O91 O -0.00299 0.64798 0.23134 0.0
Mg92 Mg 0.04502 0.6641 0.24955 0.0
O93 O 0.05015 0.63006 0.24532 0.0
O94 O 0.04855 0.67566 0.21381 0.0
O95 O 0.01097 0.66189 0.26382 0.0
O96 O 0.07419 0.64966 0.26712 0.0
C97 C 0.04494 0.56889 0.2021 0.0
C98 C 0.99268 0.57932 0.25016 0.0
C99 C 0.98375 0.60725 0.17642 0.0
C100 C 0.04506 0.66518 0.19456 0.0
C101 C 0.9953 0.6619 0.2484 0.0
C102 C 0.06824 0.63009 0.2582 0.0
O103 O 0.02509 0.55941 0.1988 0.0
O104 O 0.04696 0.58994 0.20886 0.0
O105 O 0.5838 0.76134 0.51498 0.0
Mg106 Mg 0.57728 0.79318 0.49756 0.0
O107 O 0.59472 0.74547 0.48258 0.0
Mg108 Mg 0.62211 0.77146 0.46828 0.0
O109 O 0.61065 0.80125 0.4908 0.0
O110 O 0.58929 0.82483 0.51163 0.0
O111 O 0.64879 0.79535 0.45205 0.0
O112 O 0.65053 0.76305 0.496 0.0
Mg113 Mg 0.66704 0.7384 0.45176 0.0
O114 O 0.63347 0.74367 0.44337 0.0
O115 O 0.68041 0.77354 0.44557 0.0
O116 O 0.66011 0.72799 0.48634 0.0
O117 O 0.65366 0.71778 0.42429 0.0
C118 C 0.57343 0.78904 0.44304 0.0
C119 C 0.58184 0.74503 0.50052 0.0
C120 C 0.60901 0.8203 0.50218 0.0
C121 C 0.66992 0.79313 0.44574 0.0
C122 C 0.66362 0.74548 0.49899 0.0
C123 C 0.63427 0.72846 0.4272 0.0
O124 O 0.56337 0.79275 0.46247 0.0
O125 O 0.59456 0.78232 0.44183 0.0
O126 O 0.51476 0.40149 0.7254 0.0
Mg127 Mg 0.50015 0.41325 0.69389 0.0
O128 O 0.48227 0.39595 0.74311 0.0
Mg129 Mg 0.46675 0.37034 0.71627 0.0
O130 O 0.49033 0.38063 0.68673 0.0
O131 O 0.51383 0.39881 0.66303 0.0
O132 O 0.44992 0.34481 0.69129 0.0
O133 O 0.49251 0.34064 0.72526 0.0
Mg134 Mg 0.44705 0.3262 0.74813 0.0
O135 O 0.44137 0.36011 0.74327 0.0
O136 O 0.44216 0.31339 0.71285 0.0
O137 O 0.48202 0.32883 0.75981 0.0
O138 O 0.41923 0.3412 0.76752 0.0
C139 C 0.44556 0.42124 0.70021 0.0
C140 C 0.50065 0.40788 0.74078 0.0
C141 C 0.50292 0.3801 0.66844 0.0
C142 C 0.4433 0.32372 0.69321 0.0
C143 C 0.49606 0.32784 0.74296 0.0
C144 C 0.42453 0.36052 0.75767 0.0
O145 O 0.46581 0.42931 0.69575 0.0
O146 O 0.44233 0.40008 0.70622 0.0
O147 O 0.83163 0.26186 0.98915 0.0
Mg148 Mg 0.82549 0.24974 0.95478 0.0
O149 O 0.84571 0.22829 5e-05 0.0
Mg150 Mg 0.87128 0.21751 0.97108 0.0
O151 O 0.85861 0.24397 0.94621 0.0
O152 O 0.83882 0.26922 0.92604 0.0
O153 O 0.89638 0.20459 0.94334 0.0
O154 O 0.89938 0.24409 0.98162 0.0
Mg155 Mg 0.91843 0.19705 -0.00222 0.0
O156 O 0.88447 0.1901 0.99457 0.0
O157 O 0.92952 0.1953 0.96152 0.0
O158 O 0.91462 0.23026 0.01351 0.0
O159 O 0.90598 0.16723 0.01592 0.0
C160 C 0.82143 0.19466 0.95352 0.0
C161 C 0.83251 0.2456 0.00391 0.0
C162 C 0.85821 0.2588 0.92973 0.0
C163 C 0.91757 0.19797 0.943 0.0
C164 C 0.91321 0.24639 -0.0013 0.0
C165 C 0.88582 0.17237 0.0078 0.0
O166 O 0.81185 0.21462 0.95157 0.0
O167 O 0.84281 0.19236 0.95917 0.0
O168 O 0.26279 0.97359 0.40598 0.0
Mg169 Mg 0.2967 0.98769 0.40958 0.0
O170 O 0.2475 0.00721 0.39743 0.0
Mg171 Mg 0.27193 0.02243 0.36926 0.0
O172 O 0.30034 -0.00309 0.37614 0.0
O173 O 0.32524 0.97277 0.39164 0.0
O174 O 0.29527 0.03883 0.3415 0.0
O175 O 0.2598 -0.00204 0.33984 0.0
Mg176 Mg 0.23747 0.04546 0.32847 0.0
O177 O 0.24482 0.0501 0.3624 0.0
O178 O 0.27153 0.05148 0.31336 0.0
O179 O 0.22549 0.01075 0.33048 0.0
O180 O 0.21913 0.07238 0.34507 0.0
C181 C 0.29503 0.04184 0.41862 0.0
C182 C 0.24756 0.98889 0.40985 0.0
C183 C 0.31833 0.98411 0.37369 0.0
C184 C 0.29188 0.04796 0.32154 0.0
C185 C 0.24226 -0.00277 0.32642 0.0
C186 C 0.23054 0.06719 0.36353 0.0
O187 O 0.29967 0.02145 0.42608 0.0
O188 O 0.28619 0.04538 0.39852 0.0
O189 O 0.23438 0.97582 0.58071 0.0
Mg190 Mg 0.2005 0.98998 0.5767 0.0
O191 O 0.24697 0.00956 0.59258 0.0
Mg192 Mg 0.22075 0.02104 0.62081 0.0
O193 O 0.19316 0.99571 0.61023 0.0
O194 O 0.1708 0.9727 0.58982 0.0
O195 O 0.19588 0.03384 0.64905 0.0
O196 O 0.23276 0.99364 0.64764 0.0
Mg197 Mg 0.25333 0.03948 0.66468 0.0
O198 O 0.24637 0.04882 0.63171 0.0
O199 O 0.2187 0.042 0.67944 0.0
O200 O 0.26706 0.00625 0.65668 0.0
O201 O 0.27011 0.06977 0.65291 0.0
C202 C 0.20017 0.04476 0.57277 0.0
C203 C 0.24952 0.9917 0.57981 0.0
C204 C 0.17521 0.98255 0.60935 0.0
C205 C 0.19858 0.03993 0.67023 0.0
C206 C 0.25099 0.99173 0.65996 0.0
C207 C 0.25976 0.06659 0.63338 0.0
O208 O 0.19748 0.02499 0.56304 0.0
O209 O 0.20711 0.04673 0.59376 0.0
O210 O 0.22702 0.01832 0.90229 0.0
Mg211 Mg 0.19422 0.00301 0.90832 0.0
O212 O 0.24227 0.98429 0.89774 0.0
Mg213 Mg 0.21898 0.96955 0.8686 0.0
O214 O 0.18865 0.99358 0.8753 0.0
O215 O 0.16462 0.01758 0.89275 0.0
O216 O 0.1973 0.95335 0.8393 0.0
O217 O 0.23113 0.99578 0.84093 0.0
Mg218 Mg 0.25542 0.94994 0.82782 0.0
O219 O 0.24782 0.94471 0.86143 0.0
O220 O 0.22222 0.94246 0.81151 0.0
O221 O 0.26577 0.9854 0.82907 0.0
O222 O 0.27527 0.92411 0.84503 0.0
C223 C 0.19695 0.94855 0.91706 0.0
C224 C 0.24173 0.00342 0.90863 0.0
C225 C 0.17032 0.00623 0.87442 0.0
C226 C 0.20155 0.94504 0.81916 0.0
C227 C 0.24884 -0.0006 0.82819 0.0
C228 C 0.26336 0.92892 0.86326 0.0
O229 O 0.19281 0.96907 0.92445 0.0
O230 O 0.20518 0.94467 0.89677 0.0
O231 O 0.23588 0.99112 0.15807 0.0
Mg232 Mg 0.24687 0.95663 0.16469 0.0
O233 O 0.27154 0.99604 0.14699 0.0
Mg234 Mg 0.27846 0.96644 0.12048 0.0
O235 O 0.24943 0.94258 0.13249 0.0
O236 O 0.22423 0.92917 0.15806 0.0
O237 O 0.28799 0.93896 0.09316 0.0
O238 O 0.25376 0.98159 0.09217 0.0
Mg239 Mg 0.30498 0.99523 0.07615 0.0
O240 O 0.30919 0.98686 0.10918 0.0
O241 O 0.30073 0.95997 0.06291 0.0
O242 O 0.27424 0.01258 0.08658 0.0
O243 O 0.33687 0.00604 0.09199 0.0
C244 C 0.30043 0.94826 0.16967 0.0
C245 C 0.25417 0.00317 0.15857 0.0
C246 C 0.23318 0.92806 0.13762 0.0
C247 C 0.29492 0.94054 0.07209 0.0
C248 C 0.2575 -8e-05 0.08043 0.0
C249 C 0.32872 -0.00284 0.11074 0.0
O250 O 0.28098 0.95085 0.18002 0.0
O251 O 0.30233 0.95098 0.14779 0.0
O252 O 0.33405 0.22975 0.00944 0.0
Mg253 Mg 0.32851 0.24429 0.04272 0.0
O254 O 0.34393 0.26437 -0.00185 0.0
Mg255 Mg 0.37263 0.27505 0.02447 0.0
O256 O 0.36178 0.24984 0.05238 0.0
O257 O 0.33937 0.22696 0.07307 0.0
O258 O 0.40146 0.28693 0.04858 0.0
O259 O 0.39988 0.24805 0.01142 0.0
Mg260 Mg 0.41593 0.29544 0.99068 0.0
O261 O 0.38332 0.30282 -0.00036 0.0
O262 O 0.43146 0.29588 0.02537 0.0
O263 O 0.40505 0.26293 0.97728 0.0
O264 O 0.40151 0.32622 0.97599 0.0
C265 C 0.32432 0.2991 0.04263 0.0
C266 C 0.33154 0.24628 0.99526 0.0
C267 C 0.35937 0.23648 0.07006 0.0
C268 C 0.4227 0.29276 0.04557 0.0
C269 C 0.4104 0.24766 0.99202 0.0
C270 C 0.38286 0.32111 0.98711 0.0
O271 O 0.31437 0.27928 0.04387 0.0
O272 O 0.34599 0.30111 0.03822 0.0
O273 O 0.01799 0.90806 0.2326 0.0
Mg274 Mg 0.00489 0.91645 0.19906 0.0
O275 O 0.9846 0.89759 0.24707 0.0
Mg276 Mg 0.9711 0.87204 0.21897 0.0
O277 O -0.00325 0.88334 0.19242 0.0
O278 O 0.02056 0.90119 0.16904 0.0
O279 O 0.95598 0.84712 0.19213 0.0
O280 O -0.003 0.84264 0.22837 0.0
Mg281 Mg 0.95332 0.82785 0.24779 0.0
O282 O 0.94235 0.86094 0.24354 0.0
O283 O 0.95104 0.81444 0.21257 0.0
O284 O 0.98619 0.83388 0.26319 0.0
O285 O 0.92304 0.83654 0.26579 0.0
C286 C 0.95005 0.92273 0.20129 0.0
C287 C 0.00253 0.91056 0.24796 0.0
C288 C 0.00971 0.88247 0.17449 0.0
C289 C 0.95113 0.8255 0.19334 0.0
C290 C 1e-05 0.83058 0.2466 0.0
C291 C 0.92499 0.85703 0.25704 0.0
O292 O 0.97012 0.93154 0.1975 0.0
O293 O 0.94738 0.90168 0.20786 0.0
O294 O 0.09174 0.72758 0.48058 0.0
Mg295 Mg 0.08199 0.69642 0.49726 0.0
O296 O 0.09522 0.74428 0.51385 0.0
Mg297 Mg 0.12413 0.71997 0.52839 0.0
O298 O 0.11488 0.68898 0.506 0.0
O299 O 0.09501 0.66489 0.48408 0.0
O300 O 0.1526 0.69751 0.54401 0.0
O301 O 0.15151 0.72962 0.50066 0.0
Mg302 Mg 0.16785 0.75469 0.54538 0.0
O303 O 0.13417 0.74867 0.55271 0.0
O304 O 0.18291 0.72047 0.55223 0.0
O305 O 0.16271 0.76447 0.5102 0.0
O306 O 0.15303 0.77563 0.57177 0.0
C307 C 0.07525 0.70294 0.55171 0.0
C308 C 0.08469 0.74279 0.49455 0.0
C309 C 0.11428 0.67023 0.49402 0.0
C310 C 0.17355 0.70036 0.55083 0.0
C311 C 0.16462 0.74705 0.49704 0.0
C312 C 0.13401 0.76439 0.56841 0.0
O313 O 0.06656 0.69912 0.53163 0.0
O314 O 0.0966 0.70848 0.55453 0.0
O315 O 0.01842 0.58114 0.72384 0.0
Mg316 Mg 0.0035 0.5745 0.69067 0.0
O317 O 0.98616 0.59193 0.74059 0.0
Mg318 Mg 0.97 0.61758 0.71422 0.0
O319 O 0.99421 0.60768 0.68601 0.0
O320 O 0.01683 0.5914 0.66045 0.0
O321 O 0.95254 0.64255 0.68866 0.0
O322 O 0.99516 0.64791 0.72275 0.0
Mg323 Mg 0.94938 0.66107 0.74452 0.0
O324 O 0.94382 0.62671 0.74211 0.0
O325 O 0.94041 0.67267 0.70991 0.0
O326 O 0.98439 0.66345 0.7557 0.0
O327 O 0.92398 0.64793 0.76705 0.0
C328 C 0.94925 0.56671 0.69478 0.0
C329 C 0.00394 0.57876 0.74017 0.0
C330 C 0.0059 0.60959 0.66731 0.0
C331 C 0.94299 0.66247 0.69042 0.0
C332 C -0.00121 0.66218 0.7392 0.0
C333 C 0.92786 0.62804 0.75769 0.0
O334 O 0.96928 0.55862 0.6896 0.0
O335 O 0.94653 0.58717 0.7031 0.0
O336 O 0.1603 0.26896 0.48063 0.0
Mg337 Mg 0.16307 0.25561 0.4464 0.0
O338 O 0.15008 0.23551 0.49522 0.0
Mg339 Mg 0.12164 0.2217 0.47042 0.0
O340 O 0.12935 0.24758 0.44234 0.0
O341 O 0.1458 0.2722 0.41846 0.0
O342 O 0.09357 0.20623 0.44671 0.0
O343 O 0.09314 0.2474 0.4823 0.0
Mg344 Mg 0.07977 0.20106 0.50422 0.0
O345 O 0.11363 0.19427 0.49785 0.0
O346 O 0.06462 0.19519 0.47017 0.0
O347 O 0.0837 0.23539 0.51669 0.0
O348 O 0.09399 0.17382 0.52362 0.0
C349 C 0.17042 0.20114 0.44664 0.0
C350 C 0.16342 0.25315 0.49554 0.0
C351 C 0.12748 0.2611 0.42477 0.0
C352 C 0.07319 0.19795 0.4499 0.0
C353 C 0.07998 0.24897 0.49993 0.0
C354 C 0.11318 0.17771 0.51285 0.0
O355 O 0.17821 0.22144 0.44214 0.0
O356 O 0.15048 0.1978 0.45601 0.0
O357 O 0.47535 0.40605 0.23758 0.0
Mg358 Mg 0.48379 0.41306 0.2024 0.0
O359 O 0.5108 0.3966 0.2468 0.0
Mg360 Mg 0.52118 0.3703 0.21808 0.0
O361 O 0.49204 0.38025 0.1943 0.0
O362 O 0.46386 0.39741 0.17551 0.0
O363 O 0.53319 0.34456 0.18998 0.0
O364 O 0.49686 0.34089 0.23118 0.0
Mg365 Mg 0.54195 0.32774 0.24512 0.0
O366 O 0.5527 0.36098 0.24063 0.0
O367 O 0.54084 0.31284 0.21078 0.0
O368 O 0.511 0.33112 0.26461 0.0
O369 O 0.57333 0.33552 0.26084 0.0
C370 C 0.53823 0.42107 0.19708 0.0
C371 C 0.49298 0.40922 0.25026 0.0
C372 C 0.4765 0.37925 0.17844 0.0
C373 C 0.53821 0.32297 0.19126 0.0
C374 C 0.4953 0.32876 0.24956 0.0
C375 C 0.57069 0.35641 0.25327 0.0
O376 O 0.51749 0.429 0.1959 0.0
O377 O 0.54275 0.40028 0.20351 0.0
O378 O 0.33199 0.72928 0.98309 0.0
Mg379 Mg 0.32621 0.74662 0.95118 0.0
O380 O 0.34435 0.76229 -0.0039 0.0
Mg381 Mg 0.37266 0.77268 0.96914 0.0
O382 O 0.35945 0.74948 0.93998 0.0
O383 O 0.33366 0.72927 0.92026 0.0
O384 O 0.40101 0.78538 0.94439 0.0
O385 O 0.39889 0.74355 0.97938 0.0
Mg386 Mg 0.41896 0.78963 0.00188 0.0
O387 O 0.38581 0.79764 0.99547 0.0
O388 O 0.43214 0.79291 0.96654 0.0
O389 O 0.40987 0.7557 0.01341 0.0
O390 O 0.4054 0.81969 0.01909 0.0
C391 C 0.32598 0.80116 0.95276 0.0
C392 C 0.33089 0.74491 -0.00169 0.0
C393 C 0.3547 0.73661 0.92234 0.0
C394 C 0.42232 0.7913 0.94666 0.0
C395 C 0.4121 0.74135 -0.003 0.0
C396 C 0.3861 0.81534 0.00877 0.0
O397 O 0.31418 0.78245 0.951 0.0
O398 O 0.34764 0.80095 0.95751 0.0
O399 O 0.01244 0.40953 0.75643 0.0
Mg400 Mg -0.00018 0.41705 0.79033 0.0
O401 O 0.97827 0.39736 0.74517 0.0
Mg402 Mg 0.96715 0.37162 0.77401 0.0
O403 O 0.99354 0.38409 0.79921 0.0
O404 O 0.01753 0.40431 0.82041 0.0
O405 O 0.95456 0.34642 0.80189 0.0
O406 O 0.99387 0.34367 0.76331 0.0
Mg407 Mg 0.94812 0.32542 0.74728 0.0
O408 O 0.93865 0.35895 0.75047 0.0
O409 O 0.94725 0.31328 0.78313 0.0
O410 O 0.98058 0.33051 0.73051 0.0
O411 O 0.9174 0.33503 0.72979 0.0
C412 C 0.94478 0.42155 0.79125 0.0
C413 C 0.99622 0.40982 0.7416 0.0
C414 C 0.00734 0.38482 0.81656 0.0
C415 C 0.94908 0.32493 0.80191 0.0
C416 C 0.99645 0.33076 0.74562 0.0
C417 C 0.92085 0.35574 0.73742 0.0
O418 O 0.96479 0.43115 0.79267 0.0
O419 O 0.94231 0.40008 0.78621 0.0
O420 O 0.41218 0.2273 0.47413 0.0
Mg421 Mg 0.41776 0.19401 0.48907 0.0
O422 O 0.40009 0.24165 0.50693 0.0
Mg423 Mg 0.37243 0.21504 0.51926 0.0
O424 O 0.38412 0.18723 0.495 0.0
O425 O 0.40375 0.16461 0.4717 0.0
O426 O 0.34489 0.1898 0.53328 0.0
O427 O 0.34485 0.22539 0.49169 0.0
Mg428 Mg 0.32763 0.24709 0.53654 0.0
O429 O 0.36085 0.24135 0.54523 0.0
O430 O 0.31378 0.21209 0.54005 0.0
O431 O 0.33398 0.25993 0.50255 0.0
O432 O 0.34006 0.26548 0.56592 0.0
C433 C 0.421 0.19633 0.54405 0.0
C434 C 0.41359 0.24287 0.48947 0.0
C435 C 0.38436 0.16959 0.48156 0.0
C436 C 0.32353 0.19216 0.539 0.0
C437 C 0.33252 0.24342 0.48822 0.0
C438 C 0.35966 0.25543 0.56234 0.0
O439 O 0.43093 0.19246 0.52456 0.0
O440 O 0.39993 0.20327 0.54538 0.0
O441 O 0.51315 0.65762 0.2262 0.0
Mg442 Mg 0.54726 0.66456 0.23843 0.0
O443 O 0.4996 0.64798 0.26004 0.0
Mg444 Mg 0.52676 0.62077 0.27229 0.0
O445 O 0.55359 0.63119 0.24611 0.0
O446 O 0.57573 0.64894 0.22088 0.0
O447 O 0.55295 0.59404 0.28609 0.0
O448 O 0.5152 0.59183 0.24648 0.0
Mg449 Mg 0.49633 0.57756 0.29143 0.0
O450 O 0.50126 0.61099 0.30078 0.0
O451 O 0.53088 0.56298 0.29337 0.0
O452 O 0.48082 0.5818 0.25838 0.0
O453 O 0.47835 0.58802 0.32111 0.0
C454 C 0.54786 0.67023 0.29337 0.0
C455 C 0.49873 0.66112 0.2423 0.0
C456 C 0.57095 0.63037 0.2323 0.0
C457 C 0.55078 0.57264 0.29163 0.0
C458 C 0.49701 0.57952 0.24382 0.0
C459 C 0.48712 0.60834 0.31789 0.0
O460 O 0.55121 0.67911 0.27326 0.0
O461 O 0.54018 0.64954 0.29608 0.0
O462 O 0.16128 0.73147 0.0022 0.0
Mg463 Mg 0.16425 0.74205 0.03721 0.0
O464 O 0.14974 0.76664 0.99523 0.0
Mg465 Mg 0.1208 0.77379 0.02254 0.0
O466 O 0.13036 0.74394 0.04695 0.0
O467 O 0.15419 0.71842 0.0628 0.0
O468 O 0.0926 0.78426 0.04837 0.0
O469 O 0.0935 0.74906 0.00618 0.0
Mg470 Mg 0.07701 0.79918 0.99305 0.0
O471 O 0.11082 0.80394 0.00041 0.0
O472 O 0.06258 0.79818 0.02796 0.0
O473 O 0.08148 0.76725 0.97516 0.0
O474 O 0.09266 0.82966 0.97918 0.0
C475 C 0.16783 0.79544 0.04664 0.0
C476 C 0.16276 0.74959 0.99002 0.0
C477 C 0.13362 0.72712 0.06142 0.0
C478 C 0.07198 0.79241 0.04723 0.0
C479 C 0.07992 0.75008 0.98874 0.0
C480 C 0.11165 0.82277 0.98868 0.0
O481 O 0.1786 0.77609 0.04568 0.0
O482 O 0.14666 0.79745 0.04052 0.0
O483 O 0.74249 0.00914 0.58245 0.0
Mg484 Mg 0.70742 0.00236 0.57307 0.0
O485 O 0.74772 0.97322 0.59295 0.0
Mg486 Mg 0.71617 0.96528 0.61692 0.0
O487 O 0.69552 -0.00378 0.60542 0.0
O488 O 0.68106 0.02506 0.58529 0.0
O489 O 0.6856 0.95506 0.64062 0.0
O490 O 0.72996 0.98654 0.64858 0.0
Mg491 Mg 0.7388 0.93453 0.66101 0.0
O492 O 0.73438 0.93288 0.62696 0.0
O493 O 0.70294 0.93902 0.67153 0.0
O494 O 0.75923 0.96517 0.65973 0.0
O495 O 0.75055 0.90356 0.64478 0.0
C496 C 0.69808 0.94877 0.5651 0.0
C497 C 0.75422 0.99067 0.58102 0.0
C498 C 0.68109 0.0131 0.60414 0.0
C499 C 0.68487 0.94663 0.66114 0.0
C500 C 0.74674 0.98298 0.66258 0.0
C501 C 0.74389 0.91291 0.62564 0.0
O502 O 0.69978 0.96908 0.5562 0.0
O503 O 0.7019 0.94506 0.58657 0.0
O504 O 0.76069 0.01612 0.40956 0.0
Mg505 Mg 0.79375 0.0018 0.41717 0.0
O506 O 0.74682 0.98262 0.39926 0.0
Mg507 Mg 0.77444 0.96967 0.37275 0.0
O508 O 0.80223 0.99471 0.38408 0.0
O509 O 0.82357 0.01897 0.40408 0.0
O510 O 0.80031 0.95466 0.34695 0.0
O511 O 0.7657 -0.00276 0.34458 0.0
Mg512 Mg 0.74495 0.95613 0.32887 0.0
O513 O 0.74838 0.94219 0.3611 0.0
O514 O 0.77959 0.95265 0.31421 0.0
O515 O 0.73024 0.98916 0.33545 0.0
O516 O 0.72506 0.9267 0.33481 0.0
C517 C 0.79102 0.9469 0.42277 0.0
C518 C 0.7457 0.00037 0.41236 0.0
C519 C 0.81955 0.0087 0.38469 0.0
C520 C 0.79882 0.95103 0.32515 0.0
C521 C 0.74763 0.00217 0.33289 0.0
C522 C 0.73378 0.92619 0.3554 0.0
O523 O 0.79424 0.96697 0.43169 0.0
O524 O 0.78538 0.94424 0.40145 0.0
O525 O 0.76486 0.97592 0.08879 0.0
Mg526 Mg 0.79798 0.98938 0.08066 0.0
O527 O 0.74962 0.00952 0.09508 0.0
Mg528 Mg 0.77512 0.02158 0.12393 0.0
O529 O 0.80366 -0.00352 0.11432 0.0
O530 O 0.82674 0.97244 0.096 0.0
O531 O 0.79916 0.03549 0.15218 0.0
O532 O 0.76292 0.99464 0.15131 0.0
Mg533 Mg 0.7419 0.04047 0.1665 0.0
O534 O 0.74825 0.04873 0.133 0.0
O535 O 0.77615 0.04423 0.18213 0.0
O536 O 0.72857 0.00653 0.16141 0.0
O537 O 0.72291 0.06875 0.15326 0.0
C538 C 0.79716 0.04448 0.07654 0.0
C539 C 0.75087 0.99148 0.08252 0.0
C540 C 0.82113 0.98273 0.11496 0.0
C541 C 0.79633 0.04211 0.17314 0.0
C542 C 0.74497 0.99223 0.16395 0.0
C543 C 0.7334 0.06537 0.13386 0.0
O544 O 0.80023 0.02478 0.06673 0.0
O545 O 0.78958 0.04643 0.09725 0.0
O546 O 0.77047 0.01008 0.83819 0.0
Mg547 Mg 0.75979 0.04317 0.82666 0.0
O548 O 0.7369 0.99483 0.84474 0.0
Mg549 Mg 0.72091 0.02398 0.86712 0.0
O550 O 0.74846 0.0513 0.85898 0.0
O551 O 0.77461 0.07293 0.8416 0.0
O552 O 0.7035 0.05059 0.89117 0.0
O553 O 0.74218 0.01363 0.89975 0.0
Mg554 Mg 0.69533 0.99248 0.90676 0.0
O555 O 0.69117 -0.00132 0.87298 0.0
O556 O 0.69087 0.02732 0.91977 0.0
O557 O 0.72937 0.97874 0.90606 0.0
O558 O 0.66772 0.97454 0.89122 0.0
C559 C 0.70625 0.04263 0.81406 0.0
C560 C 0.75485 0.99604 0.83207 0.0
C561 C 0.76199 0.06903 0.85959 0.0
C562 C 0.69429 0.0475 0.91116 0.0
C563 C 0.74285 0.99509 0.91166 0.0
C564 C 0.67351 0.98499 0.87237 0.0
O565 O 0.72722 0.04602 0.80757 0.0
O566 O 0.70114 0.03576 0.83455 0.0
O567 O 0.66227 0.76643 0.98308 0.0
Mg568 Mg 0.66812 0.75112 0.95006 0.0
O569 O 0.64971 0.73357 -0.00294 0.0
Mg570 Mg 0.62209 0.72183 0.97011 0.0
O571 O 0.63446 0.74596 0.94241 0.0
O572 O 0.65559 0.76747 0.91937 0.0
O573 O 0.5947 0.70873 0.94446 0.0
O574 O 0.59448 0.74948 0.98045 0.0
Mg575 Mg 0.57647 0.70318 0.00159 0.0
O576 O 0.60997 0.69584 -0.00403 0.0
O577 O 0.56336 0.70099 0.96617 0.0
O578 O 0.58285 0.73723 0.01432 0.0
O579 O 0.59025 0.67368 0.01952 0.0
C580 C 0.67048 0.69616 0.9527 0.0
C581 C 0.66323 0.751 -0.00134 0.0
C582 C 0.63564 0.7587 0.92425 0.0
C583 C 0.57329 0.70308 0.94641 0.0
C584 C 0.58119 0.75179 -0.00203 0.0
C585 C 0.60975 0.67851 0.0098 0.0
O586 O 0.68093 0.71555 0.94975 0.0
O587 O 0.64904 0.69505 0.95839 0.0
O588 O 0.01343 0.16233 0.72548 0.0
Mg589 Mg 0.04557 0.16419 0.74336 0.0
O590 O -0.00172 0.14984 0.7577 0.0
Mg591 Mg 0.02207 0.11987 0.76981 0.0
O592 O 0.05242 0.12996 0.74696 0.0
O593 O 0.07549 0.15236 0.72616 0.0
O594 O 0.04378 0.08941 0.78346 0.0
O595 O 0.01092 0.09449 0.74078 0.0
Mg596 Mg 0.98565 0.07714 0.78541 0.0
O597 O 0.99289 0.11025 0.79369 0.0
O598 O 0.01889 0.06079 0.79232 0.0
O599 O 0.97625 0.08204 0.75003 0.0
O600 O 0.96484 0.09202 0.8118 0.0
C601 C 0.04276 0.1654 0.79786 0.0
C602 C -0.00267 0.16335 0.74028 0.0
C603 C 0.07055 0.13208 0.73412 0.0
C604 C 0.03954 0.06873 0.79042 0.0
C605 C 0.99353 0.08151 0.73649 0.0
C606 C 0.97676 0.1107 0.80902 0.0
O607 O 0.04636 0.17665 0.77908 0.0
O608 O 0.03548 0.14444 0.79788 0.0
O609 O 0.84032 0.22767 0.47291 0.0
Mg610 Mg 0.83096 0.24073 0.43985 0.0
O611 O 0.84541 0.26141 0.48858 0.0
Mg612 Mg 0.87335 0.27502 0.46273 0.0
O613 O 0.86359 0.2504 0.43448 0.0
O614 O 0.84784 0.22526 0.41091 0.0
O615 O 0.90024 0.29004 0.43748 0.0
O616 O 0.90084 0.24725 0.47245 0.0
Mg617 Mg 0.91624 0.28875 0.49274 0.0
O618 O 0.88344 0.30179 0.4905 0.0
O619 O 0.93213 0.29358 0.45901 0.0
O620 O 0.91267 0.25517 0.50725 0.0
O621 O 0.91003 0.31674 0.51409 0.0
C622 C 0.82414 0.29596 0.44183 0.0
C623 C 0.83425 0.24238 0.48787 0.0
C624 C 0.86583 0.23697 0.41704 0.0
C625 C 0.9219 0.29446 0.43939 0.0
C626 C 0.91273 0.24158 0.49014 0.0
C627 C 0.88908 0.31688 0.50614 0.0
O628 O 0.81631 0.27553 0.43779 0.0
O629 O 0.84455 0.29961 0.45003 0.0
O630 O 0.47237 0.90679 0.75896 0.0
Mg631 Mg 0.48645 0.91666 0.79158 0.0
O632 O 0.50576 0.89599 0.74533 0.0
Mg633 Mg 0.5193 0.87163 0.77414 0.0
O634 O 0.49439 0.88409 0.80156 0.0
O635 O 0.47113 0.9052 0.82291 0.0
O636 O 0.53469 0.84648 0.80115 0.0
O637 O 0.49349 0.84194 0.7655 0.0
Mg638 Mg 0.53965 0.82617 0.74437 0.0
O639 O 0.5457 0.86004 0.74847 0.0
O640 O 0.54324 0.81486 0.78019 0.0
O641 O 0.5052 0.82991 0.7316 0.0
O642 O 0.56817 0.84018 0.72528 0.0
C643 C 0.54113 0.92282 0.78954 0.0
C644 C 0.48796 0.90893 0.74371 0.0
C645 C 0.48181 0.88584 0.81982 0.0
C646 C 0.54135 0.82531 0.79969 0.0
C647 C 0.49093 0.82846 0.74819 0.0
C648 C 0.56272 0.85986 0.73424 0.0
O649 O 0.521 0.93177 0.79238 0.0
O650 O 0.54394 0.90147 0.78405 0.0
O651 O 0.01553 0.08124 0.25762 0.0
Mg652 Mg 0.00235 0.07823 0.29188 0.0
O653 O 0.98106 0.09241 0.24664 0.0
Mg654 Mg 0.97033 0.12124 0.27248 0.0
O655 O -0.00295 0.11191 0.29971 0.0
O656 O 0.02187 0.09112 0.32003 0.0
O657 O 0.95806 0.15063 0.29636 0.0
O658 O 0.99641 0.14849 0.25826 0.0
Mg659 Mg 0.94881 0.16381 0.23842 0.0
O660 O 0.94221 0.13089 0.24762 0.0
O661 O 0.94777 0.17968 0.27248 0.0
O662 O 0.9823 0.15742 0.22429 0.0
O663 O 0.91823 0.14871 0.22423 0.0
C664 C 0.94773 0.07302 0.29435 0.0
C665 C -0.00109 0.07982 0.24337 0.0
C666 C 0.01164 0.11066 0.31655 0.0
C667 C 0.95138 0.17157 0.29283 0.0
C668 C -0.00248 0.16061 0.23979 0.0
C669 C 0.92355 0.13025 0.2356 0.0
O670 O 0.96775 0.06359 0.29636 0.0
O671 O 0.94532 0.09408 0.28763 0.0
O672 O 0.48131 0.07732 0.73339 0.0
Mg673 Mg 0.49144 0.07633 0.69799 0.0
O674 O 0.51599 0.0897 0.7428 0.0
Mg675 Mg 0.52544 0.11862 0.7166 0.0
O676 O 0.49631 0.11039 0.69178 0.0
O677 O 0.46937 0.09115 0.6728 0.0
O678 O 0.53659 0.14758 0.69161 0.0
O679 O 0.5008 0.14584 0.73269 0.0
Mg680 Mg 0.54836 0.16025 0.74862 0.0
O681 O 0.55587 0.12711 0.73993 0.0
O682 O 0.54696 0.17687 0.7149 0.0
O683 O 0.51626 0.15518 0.76585 0.0
O684 O 0.57926 0.14669 0.76291 0.0
C685 C 0.54541 0.07102 0.69104 0.0
C686 C 0.49855 0.07676 0.74698 0.0
C687 C 0.48011 0.11041 0.67644 0.0
C688 C 0.5427 0.16871 0.69473 0.0
C689 C 0.50029 0.15804 0.75108 0.0
C690 C 0.57445 0.12767 0.75228 0.0
O691 O 0.52529 0.06176 0.68943 0.0
O692 O 0.54836 0.09144 0.6992 0.0
O693 O 0.15901 0.22961 0.98737 0.0
Mg694 Mg 0.16397 0.23734 0.95164 0.0
O695 O 0.14881 0.26522 0.99532 0.0
Mg696 Mg 0.12154 0.27445 0.96718 0.0
O697 O 0.13076 0.24463 0.9443 0.0
O698 O 0.14783 0.21605 0.92612 0.0
O699 O 0.09476 0.28552 0.93947 0.0
O700 O 0.09314 0.25043 0.982 0.0
Mg701 Mg 0.07881 0.29702 0.99492 0.0
O702 O 0.11222 0.30612 0.98874 0.0
O703 O 0.0638 0.29543 0.96054 0.0
O704 O 0.08282 0.26617 0.01456 0.0
O705 O 0.08891 0.32876 0.00905 0.0
C706 C 0.17126 0.29149 0.94423 0.0
C707 C 0.16142 0.24759 -0.00028 0.0
C708 C 0.12946 0.22831 0.92932 0.0
C709 C 0.07344 0.29165 0.94096 0.0
C710 C 0.08085 0.24972 0.00028 0.0
C711 C 0.10922 0.32486 0.00054 0.0
O712 O 0.1794 0.27084 0.94345 0.0
O713 O 0.15064 0.29599 0.95113 0.0
O714 O 0.33351 0.76316 0.49059 0.0
Mg715 Mg 0.32617 0.75479 0.45542 0.0
O716 O 0.34517 0.7279 0.49771 0.0
Mg717 Mg 0.37009 0.71863 0.46775 0.0
O718 O 0.35877 0.74826 0.44495 0.0
O719 O 0.339 0.77654 0.4288 0.0
O720 O 0.39488 0.70712 0.43866 0.0
O721 O 0.3996 0.74354 0.47982 0.0
Mg722 Mg 0.41415 0.69895 0.49321 0.0
O723 O 0.38093 0.68779 0.49039 0.0
O724 O 0.42748 0.69991 0.45824 0.0
O725 O 0.41107 0.72978 0.51287 0.0
O726 O 0.40756 0.66777 0.50968 0.0
C727 C 0.31888 0.70088 0.44744 0.0
C728 C 0.33268 0.74524 0.50322 0.0
C729 C 0.35789 0.76465 0.4299 0.0
C730 C 0.41655 0.70231 0.43913 0.0
C731 C 0.41219 0.74561 0.49784 0.0
C732 C 0.38625 0.67014 0.50318 0.0
O733 O 0.31058 0.72146 0.4474 0.0
O734 O 0.33983 0.69639 0.45352 0.0
O735 O 0.76131 0.47897 0.90392 0.0
Mg736 Mg 0.79372 0.49333 0.91362 0.0
O737 O 0.74743 0.51353 0.89987 0.0
Mg738 Mg 0.77296 0.52593 0.87133 0.0
O739 O 0.80192 0.50134 0.88079 0.0
O740 O 0.82464 0.47829 0.90084 0.0
O741 O 0.7965 0.53955 0.84283 0.0
O742 O 0.76046 0.49933 0.84373 0.0
Mg743 Mg 0.73845 0.54836 0.82861 0.0
O744 O 0.74713 0.5532 0.8618 0.0
O745 O 0.77331 0.5505 0.81352 0.0
O746 O 0.72667 0.51467 0.83763 0.0
O747 O 0.72335 0.57773 0.8455 0.0
C748 C 0.79241 0.54821 0.91976 0.0
C749 C 0.74677 0.49404 0.91014 0.0
C750 C 0.82017 0.48863 0.88157 0.0
C751 C 0.79353 0.54684 0.82209 0.0
C752 C 0.74207 0.50034 0.83157 0.0
C753 C 0.73437 0.57121 0.86376 0.0
O754 O 0.79435 0.52801 0.92886 0.0
O755 O 0.78675 0.55102 0.8985 0.0
O756 O 0.76428 0.50395 0.15942 0.0
Mg757 Mg 0.75672 0.53899 0.16802 0.0
O758 O 0.72874 0.49528 0.14995 0.0
Mg759 Mg 0.71827 0.52561 0.12545 0.0
O760 O 0.74856 0.5482 0.13525 0.0
O761 O 0.77751 0.56542 0.15286 0.0
O762 O 0.70542 0.55426 0.1011 0.0
O763 O 0.74007 0.51273 0.09395 0.0
Mg764 Mg 0.69185 0.49862 0.08321 0.0
O765 O 0.68574 0.50525 0.11675 0.0
O766 O 0.69456 0.53395 0.06981 0.0
O767 O 0.72255 0.47987 0.09056 0.0
O768 O 0.66022 0.48569 0.09611 0.0
C769 C 0.70295 0.54488 0.17754 0.0
C770 C 0.74654 0.49141 0.1625 0.0
C771 C 0.76501 0.56318 0.1345 0.0
C772 C 0.69873 0.55327 0.07995 0.0
C773 C 0.73793 0.49358 0.08329 0.0
C774 C 0.66642 0.49419 0.11578 0.0
O775 O 0.7237 0.54581 0.18548 0.0
O776 O 0.69847 0.53929 0.15657 0.0
O777 O 0.73069 0.51427 0.4111 0.0
Mg778 Mg 0.6982 0.49824 0.41853 0.0
O779 O 0.74608 0.48215 0.39863 0.0
Mg780 Mg 0.7189 0.47009 0.3715 0.0
O781 O 0.69082 0.49303 0.38497 0.0
O782 O 0.66684 0.51345 0.406 0.0
O783 O 0.69347 0.45633 0.34437 0.0
O784 O 0.72798 0.4986 0.34436 0.0
Mg785 Mg 0.75063 0.45389 0.32519 0.0
O786 O 0.74516 0.44523 0.35831 0.0
O787 O 0.71504 0.45 0.31262 0.0
O788 O 0.76233 0.48815 0.33248 0.0
O789 O 0.76971 0.42472 0.33805 0.0
C790 C 0.7016 0.44321 0.4196 0.0
C791 C 0.74677 0.49942 0.41236 0.0
C792 C 0.67208 0.50485 0.38611 0.0
C793 C 0.69536 0.45078 0.32297 0.0
C794 C 0.74543 0.50208 0.33123 0.0
C795 C 0.75929 0.42819 0.35744 0.0
O796 O 0.69811 0.46227 0.43045 0.0
O797 O 0.70799 0.4428 0.39834 0.0
O798 O 0.72824 0.47574 0.65357 0.0
Mg799 Mg 0.74318 0.44369 0.66362 0.0
O800 O 0.76009 0.49459 0.64742 0.0
Mg801 Mg 0.77458 0.46894 0.61994 0.0
O802 O 0.75218 0.4393 0.63065 0.0
O803 O 0.73042 0.41302 0.64702 0.0
O804 O 0.79034 0.44495 0.59328 0.0
O805 O 0.74664 0.47725 0.59235 0.0
Mg806 Mg 0.79005 0.50112 0.57479 0.0
O807 O 0.79898 0.49685 0.6083 0.0
O808 O 0.79655 0.46616 0.5614 0.0
O809 O 0.75501 0.51181 0.5794 0.0
O810 O 0.81729 0.52268 0.58714 0.0
C811 C 0.79825 0.45048 0.66895 0.0
C812 C 0.74215 0.49142 0.65983 0.0
C813 C 0.74049 0.4206 0.62864 0.0
C814 C 0.79643 0.44666 0.57208 0.0
C815 C 0.7417 0.49436 0.57931 0.0
C816 C 0.81496 0.51226 0.60674 0.0
O817 O 0.77837 0.44532 0.67753 0.0
O818 O 0.80064 0.45803 0.64816 0.0
O819 O 0.51591 0.08063 0.23138 0.0
Mg820 Mg 0.49944 0.07729 0.1987 0.0
O821 O 0.48209 0.09101 0.24448 0.0
Mg822 Mg 0.46983 0.12045 0.21964 0.0
O823 O 0.49446 0.11101 0.19059 0.0
O824 O 0.51721 0.08898 0.1692 0.0
O825 O 0.45551 0.14988 0.19678 0.0
O826 O 0.49777 0.14682 0.23141 0.0
Mg827 Mg 0.45243 0.163 0.25546 0.0
O828 O 0.44427 0.13019 0.24722 0.0
O829 O 0.44653 0.17855 0.22158 0.0
O830 O 0.48708 0.15624 0.26636 0.0
O831 O 0.4242 0.14821 0.27396 0.0
C832 C 0.44476 0.07302 0.20071 0.0
C833 C 0.50015 0.07839 0.2464 0.0
C834 C 0.50838 0.1091 0.17326 0.0
C835 C 0.44835 0.17047 0.201 0.0
C836 C 0.50089 0.15899 0.24956 0.0
C837 C 0.42746 0.12985 0.26173 0.0
O838 O 0.4645 0.06326 0.19798 0.0
O839 O 0.4429 0.09436 0.20643 0.0
O840 O 0.0109 0.83435 0.76566 0.0
Mg841 Mg 0.04488 0.82687 0.75361 0.0
O842 O -0.00352 0.84342 0.73205 0.0
Mg843 Mg 0.02376 0.87035 0.71936 0.0
O844 O 0.0509 0.8603 0.74542 0.0
O845 O 0.07399 0.84285 0.76995 0.0
O846 O 0.04969 0.89708 0.7052 0.0
O847 O 0.01187 0.89984 0.74422 0.0
Mg848 Mg 0.99235 0.9134 0.69681 0.0
O849 O -0.00106 0.8797 0.69073 0.0
O850 O 0.02747 0.92736 0.69518 0.0
O851 O 0.97785 0.90854 0.73029 0.0
O852 O 0.97625 0.89889 0.66704 0.0
C853 C 0.04422 0.82064 0.69881 0.0
C854 C -0.0034 0.83003 0.74963 0.0
C855 C 0.06876 0.86132 0.75859 0.0
C856 C 0.04743 0.91808 0.69831 0.0
C857 C 0.99371 0.91246 0.74492 0.0
C858 C 0.98609 0.87963 0.67256 0.0
O859 O 0.04785 0.81184 0.71891 0.0
O860 O 0.03689 0.8414 0.6961 0.0
O861 O 0.514 0.90825 0.25897 0.0
Mg862 Mg 0.49662 0.91491 0.29067 0.0
O863 O 0.48058 0.89673 0.24596 0.0
Mg864 Mg 0.46876 0.8695 0.27338 0.0
O865 O 0.49276 0.88199 0.30217 0.0
O866 O 0.51385 0.90721 0.32167 0.0
O867 O 0.45502 0.84204 0.29858 0.0
O868 O 0.49697 0.8426 0.26375 0.0
Mg869 Mg 0.45093 0.82299 0.24224 0.0
O870 O 0.44409 0.85653 0.24724 0.0
O871 O 0.44663 0.81041 0.27758 0.0
O872 O 0.48577 0.82775 0.23051 0.0
O873 O 0.42163 0.83702 0.22394 0.0
C874 C 0.44198 0.91783 0.28757 0.0
C875 C 0.49863 0.90924 0.24342 0.0
C876 C 0.50628 0.88628 0.31947 0.0
C877 C 0.44851 0.82085 0.29708 0.0
C878 C 0.50062 0.82901 0.24671 0.0
C879 C 0.42644 0.85639 0.23388 0.0
O880 O 0.4614 0.92837 0.2897 0.0
O881 O 0.44095 0.896 0.28379 0.0
O882 O 0.90965 0.73354 0.98219 0.0
Mg883 Mg 0.91679 0.70075 -0.00262 0.0
O884 O 0.89847 0.74471 0.01637 0.0
Mg885 Mg 0.871 0.71676 0.02639 0.0
O886 O 0.88394 0.68944 0.00129 0.0
O887 O 0.90834 0.67041 0.97902 0.0
O888 O 0.84332 0.69066 0.03777 0.0
O889 O 0.84454 0.72773 -0.00205 0.0
Mg890 Mg 0.82505 0.74708 0.04272 0.0
O891 O 0.85781 0.74158 0.05362 0.0
O892 O 0.81144 0.71192 0.04425 0.0
O893 O 0.83379 0.76172 0.01003 0.0
O894 O 0.8346 0.76424 0.0735 0.0
C895 C 0.91919 0.70017 0.05222 0.0
C896 C 0.91062 0.74832 -0.00172 0.0
C897 C 0.88771 0.6724 0.9874 0.0
C898 C 0.82168 0.6923 0.04259 0.0
C899 C 0.83215 0.7458 0.99512 0.0
C900 C 0.85476 0.75488 0.07121 0.0
O901 O 0.92979 0.69931 0.03276 0.0
O902 O 0.8974 0.70433 0.05349 0.0
O903 O 0.65503 0.22828 0.51937 0.0
Mg904 Mg 0.66266 0.24645 0.55025 0.0
O905 O 0.65009 0.26088 0.50145 0.0
Mg906 Mg 0.61935 0.27421 0.52409 0.0
O907 O 0.62907 0.25349 0.55574 0.0
O908 O 0.64877 0.23438 0.58206 0.0
O909 O 0.58923 0.288 0.54567 0.0
O910 O 0.59427 0.24426 0.51408 0.0
Mg911 Mg 0.57681 0.28628 0.4886 0.0
O912 O 0.60955 0.29818 0.4941 0.0
O913 O 0.55922 0.29228 0.52148 0.0
O914 O 0.5844 0.25173 0.47847 0.0
O915 O 0.58734 0.3135 0.46704 0.0
C916 C 0.6657 0.30105 0.54263 0.0
C917 C 0.66144 0.24208 0.50367 0.0
C918 C 0.62927 0.24289 0.57527 0.0
C919 C 0.56782 0.29244 0.54191 0.0
C920 C 0.58256 0.23891 0.49613 0.0
C921 C 0.60709 0.31308 0.47755 0.0
O922 O 0.67592 0.28175 0.54678 0.0
O923 O 0.64437 0.3022 0.53653 0.0
O924 O 0.23549 0.51649 0.08365 0.0
Mg925 Mg 0.20072 0.5058 0.07814 0.0
O926 O 0.24548 0.4813 0.09271 0.0
Mg927 Mg 0.21837 0.47069 0.12062 0.0
O928 O 0.19267 0.49889 0.11149 0.0
O929 O 0.17337 0.52564 0.09244 0.0
O930 O 0.19263 0.45774 0.1483 0.0
O931 O 0.23264 0.49519 0.14923 0.0
Mg932 Mg 0.24974 0.44704 0.16327 0.0
O933 O 0.2421 0.44137 0.12975 0.0
O934 O 0.21507 0.44657 0.17803 0.0
O935 O 0.26592 0.47986 0.15871 0.0
O936 O 0.26435 0.41677 0.14833 0.0
C937 C 0.19697 0.45119 0.07121 0.0
C938 C 0.2483 0.49911 0.07995 0.0
C939 C 0.17654 0.51429 0.1114 0.0
C940 C 0.19507 0.45048 0.16916 0.0
C941 C 0.25094 0.49559 0.16168 0.0
C942 C 0.25435 0.42284 0.12932 0.0
O943 O 0.19569 0.47168 0.0627 0.0
O944 O 0.2031 0.44753 0.09222 0.0
O945 O 0.25213 0.51262 0.91042 0.0
Mg946 Mg 0.28771 0.50418 0.91561 0.0
O947 O 0.24489 0.47745 0.89839 0.0
Mg948 Mg 0.27378 0.46914 0.8716 0.0
O949 O 0.29683 0.49863 0.88254 0.0
O950 O 0.31377 0.52642 0.90225 0.0
O951 O 0.30151 0.45839 0.84499 0.0
O952 O 0.25971 0.49388 0.84318 0.0
Mg953 Mg 0.24605 0.44597 0.8266 0.0
O954 O 0.25224 0.43901 0.86021 0.0
O955 O 0.28135 0.4478 0.81349 0.0
O956 O 0.22774 0.47766 0.83106 0.0
O957 O 0.23174 0.41458 0.83942 0.0
C958 C 0.29552 0.44998 0.92121 0.0
C959 C 0.23956 0.49463 0.91119 0.0
C960 C 0.31187 0.51505 0.88315 0.0
C961 C 0.30061 0.45207 0.82372 0.0
C962 C 0.24196 0.49433 0.83 0.0
C963 C 0.24064 0.42009 0.85912 0.0
O964 O 0.29589 0.47034 0.93003 0.0
O965 O 0.28906 0.44612 0.90032 0.0
O966 O 0.26417 0.47493 0.58308 0.0
Mg967 Mg 0.29673 0.49108 0.57682 0.0
O968 O 0.24809 0.50761 0.59297 0.0
Mg969 Mg 0.27367 0.52128 0.62114 0.0
O970 O 0.30297 0.49813 0.61037 0.0
O971 O 0.32781 0.47705 0.59101 0.0
O972 O 0.29788 0.53642 0.64828 0.0
O973 O 0.26395 0.49356 0.64879 0.0
Mg974 Mg 0.24127 0.53805 0.66542 0.0
O975 O 0.24623 0.54708 0.63198 0.0
O976 O 0.27619 0.5435 0.67963 0.0
O977 O 0.22918 0.5038 0.65924 0.0
O978 O 0.22086 0.56595 0.65326 0.0
C979 C 0.29261 0.54586 0.57299 0.0
C980 C 0.24834 0.48977 0.57992 0.0
C981 C 0.32204 0.48672 0.61026 0.0
C982 C 0.29591 0.54278 0.66939 0.0
C983 C 0.2461 0.49005 0.66133 0.0
C984 C 0.23116 0.56342 0.63363 0.0
O985 O 0.29665 0.52635 0.5632 0.0
O986 O 0.2855 0.54733 0.59393 0.0
O987 O 0.23938 0.47771 0.40915 0.0
Mg988 Mg 0.20475 0.48826 0.41615 0.0
O989 O 0.24658 0.51323 0.39862 0.0
Mg990 Mg 0.21732 0.52227 0.37246 0.0
O991 O 0.19278 0.49348 0.38367 0.0
O992 O 0.17671 0.46725 0.40625 0.0
O993 O 0.18954 0.5334 0.34601 0.0
O994 O 0.23061 0.49702 0.34407 0.0
Mg995 Mg 0.24559 0.54353 0.32798 0.0
O996 O 0.23948 0.55242 0.36116 0.0
O997 O 0.2105 0.54167 0.31439 0.0
O998 O 0.26365 0.51181 0.33316 0.0
O999 O 0.26014 0.57539 0.33877 0.0
C1000 C 0.19859 0.54229 0.42261 0.0
C1001 C 0.25219 0.49545 0.41048 0.0
C1002 C 0.17715 0.47773 0.38652 0.0
C1003 C 0.19095 0.53848 0.32443 0.0
C1004 C 0.24891 0.49562 0.33177 0.0
C1005 C 0.25127 0.57119 0.35881 0.0
O1006 O 0.19895 0.52201 0.43161 0.0
O1007 O 0.20324 0.54587 0.40121 0.0
H1008 H 0.03837 0.43582 0.24073 0.0
H1009 H 0.96751 0.44203 0.21704 0.0
H1010 H 0.03952 0.47699 0.24878 0.0
H1011 H 0.96926 0.48379 0.22299 0.0
H1012 H 0.96174 0.5466 0.26416 0.0
H1013 H 0.96637 0.50523 0.25725 0.0
H1014 H 0.03892 0.51623 0.24107 0.0
H1015 H 0.03466 0.55699 0.25004 0.0
C1016 C 0.02341 0.44619 0.23602 0.0
C1017 C 0.00249 0.4356 0.2291 0.0
C1018 C 0.02401 0.46992 0.24085 0.0
C1019 C 0.00399 0.48355 0.23784 0.0
C1020 C 0.98454 0.47354 0.22689 0.0
C1021 C 0.98372 0.44972 0.22275 0.0
C1022 C 0.9789 0.53992 0.26025 0.0
C1023 C -0.00239 0.55514 0.25696 0.0
C1024 C 0.98146 0.51633 0.25557 0.0
C1025 C 0.00268 0.5076 0.24712 0.0
C1026 C 0.02217 0.52231 0.24702 0.0
C1027 C 0.01973 0.5458 0.25238 0.0
H1028 H 0.80263 0.7216 0.46296 0.0
H1029 H 0.80741 0.79211 0.48779 0.0
H1030 H 0.76076 0.72264 0.46837 0.0
H1031 H 0.7661 0.79279 0.49436 0.0
H1032 H 0.68652 0.78739 0.49705 0.0
H1033 H 0.72731 0.79185 0.48788 0.0
H1034 H 0.73837 0.71895 0.5017 0.0
H1035 H 0.69728 0.71434 0.51005 0.0
C1036 C 0.79469 0.73758 0.46885 0.0
C1037 C 0.80854 0.75642 0.47574 0.0
C1038 C 0.77073 0.738 0.4726 0.0
C1039 C 0.76019 0.7572 0.48346 0.0
C1040 C 0.77355 0.77736 0.48674 0.0
C1041 C 0.79745 0.77707 0.48262 0.0
C1042 C 0.69773 0.77241 0.49883 0.0
C1043 C 0.68846 0.7503 0.50362 0.0
C1044 C 0.72121 0.77493 0.49317 0.0
C1045 C 0.73596 0.75549 0.49252 0.0
C1046 C 0.72728 0.73408 0.50054 0.0
C1047 C 0.70381 0.73151 0.50599 0.0
H1048 H 0.52765 0.44158 0.72148 0.0
H1049 H 0.4666 0.43186 0.76434 0.0
H1050 H 0.52039 0.48293 0.7204 0.0
H1051 H 0.46035 0.47405 0.76411 0.0
H1052 H 0.51431 0.54319 0.78303 0.0
H1053 H 0.50583 0.50252 0.77856 0.0
H1054 H 0.47498 0.51569 0.71167 0.0
H1055 H 0.4819 0.55775 0.7168 0.0
C1056 C 0.51268 0.44817 0.73074 0.0
C1057 C 0.49772 0.43327 0.74309 0.0
C1058 C 0.50832 0.47181 0.72962 0.0
C1059 C 0.48945 0.48127 0.74147 0.0
C1060 C 0.47458 0.46678 0.75421 0.0
C1061 C 0.47852 0.44283 0.75479 0.0
C1062 C 0.50546 0.53778 0.76738 0.0
C1063 C 0.49902 0.55377 0.75006 0.0
C1064 C 0.5003 0.51446 0.76509 0.0
C1065 C 0.4894 0.50634 0.7451 0.0
C1066 C 0.48297 0.52194 0.7275 0.0
C1067 C 0.48731 0.54574 0.73022 0.0
H1068 H 0.80895 0.20473 0.0037 0.0
H1069 H 0.80489 0.27547 0.02794 0.0
H1070 H 0.7672 0.20327 0.00016 0.0
H1071 H 0.76266 0.27334 0.02668 0.0
H1072 H 0.69769 0.28094 0.98695 0.0
H1073 H 0.73907 0.27659 0.99401 0.0
H1074 H 0.72855 0.20394 0.01003 0.0
H1075 H 0.68768 0.20796 0.00085 0.0
C1076 C 0.79905 0.21955 0.00966 0.0
C1077 C 0.81017 0.24059 0.01522 0.0
C1078 C 0.77493 0.21876 0.00744 0.0
C1079 C 0.76158 0.2387 0.01179 0.0
C1080 C 0.77256 0.25814 0.02178 0.0
C1081 C 0.79672 0.25919 0.02321 0.0
C1082 C 0.70445 0.26386 0.99099 0.0
C1083 C 0.68937 0.24497 0.9938 0.0
C1084 C 0.72805 0.26145 -0.00422 0.0
C1085 C 0.73701 0.2402 0.00393 0.0
C1086 C 0.72232 0.22069 0.00422 0.0
C1087 C 0.6988 0.22298 -0.00125 0.0
H1088 H 0.2362 0.95562 0.44138 0.0
H1089 H 0.2482 0.02929 0.43452 0.0
H1090 H 0.24123 0.95874 0.48314 0.0
H1091 H 0.25574 0.03211 0.47556 0.0
H1092 H 0.24803 0.03141 0.55462 0.0
H1093 H 0.24493 0.03227 0.513 0.0
H1094 H 0.2706 0.96172 0.50982 0.0
H1095 H 0.27128 0.96026 0.55203 0.0
C1096 C 0.23945 0.97255 0.44889 0.0
C1097 C 0.24201 0.99209 0.43462 0.0
C1098 C 0.24308 0.97428 0.47276 0.0
C1099 C 0.25003 0.99549 0.48282 0.0
C1100 C 0.25058 0.01541 0.4687 0.0
C1101 C 0.24611 0.01381 0.44498 0.0
C1102 C 0.25382 0.01632 0.54505 0.0
C1103 C 0.25938 0.99554 0.55659 0.0
C1104 C 0.25188 0.01675 0.52096 0.0
C1105 C 0.2564 -0.00334 0.50787 0.0
C1106 C 0.26563 0.97711 0.51935 0.0
C1107 C 0.26674 0.97642 0.54353 0.0
H1108 H 0.2099 0.9916 0.68392 0.0
H1109 H 0.28353 0.9796 0.6919 0.0
H1110 H 0.20678 0.00072 0.7246 0.0
H1111 H 0.28008 0.98637 0.73333 0.0
H1112 H 0.27931 0.02128 0.79925 0.0
H1113 H 0.27716 0.01838 0.75718 0.0
H1114 H 0.2068 0.99244 0.76288 0.0
H1115 H 0.20827 -0.00232 0.80424 0.0
C1116 C 0.2253 0.98982 0.69457 0.0
C1117 C 0.24719 0.98566 0.68453 0.0
C1118 C 0.22352 0.99525 0.71806 0.0
C1119 C 0.24342 0.99551 0.73221 0.0
C1120 C 0.26461 0.9878 0.72275 0.0
C1121 C 0.26652 0.98314 0.6991 0.0
C1122 C 0.26301 0.01625 0.7913 0.0
C1123 C 0.24425 0.00912 0.80504 0.0
C1124 C 0.26194 0.01385 0.76724 0.0
C1125 C 0.24234 0.00368 0.75667 0.0
C1126 C 0.22241 -0.00011 0.77022 0.0
C1127 C 0.2232 0.00312 0.79415 0.0
H1128 H 0.225 0.97382 0.05671 0.0
H1129 H 0.28185 0.02211 0.04662 0.0
H1130 H 0.22168 0.9698 0.01422 0.0
H1131 H 0.27922 0.01683 0.00522 0.0
H1132 H 0.27279 0.97534 0.93153 0.0
H1133 H 0.27521 0.96914 0.97376 0.0
H1134 H 0.22059 0.01917 0.9842 0.0
H1135 H 0.21872 0.02632 0.94286 0.0
C1136 C 0.23677 0.98339 0.04559 0.0
C1137 C 0.25351 -0.0016 0.05514 0.0
C1138 C 0.23513 0.98077 0.02148 0.0
C1139 C 0.2507 0.99256 0.00689 0.0
C1140 C 0.26746 0.00722 0.01635 0.0
C1141 C 0.26863 0.01043 0.04011 0.0
C1142 C 0.26155 0.98519 0.94292 0.0
C1143 C 0.24589 0.0016 0.93383 0.0
C1144 C 0.26258 0.98127 0.96686 0.0
C1145 C 0.2475 0.99321 0.98176 0.0
C1146 C 0.23189 0.0094 0.97278 0.0
C1147 C 0.23126 0.0138 0.94913 0.0
H1148 H 0.29368 -0.00049 0.18439 0.0
H1149 H 0.22527 0.03015 0.1845 0.0
H1150 H 0.29298 -0.00288 0.22616 0.0
H1151 H 0.2253 0.02968 0.22675 0.0
H1152 H 0.21155 0.98964 0.29143 0.0
H1153 H 0.21824 -0.00254 0.25055 0.0
H1154 H 0.29126 0.00839 0.26458 0.0
H1155 H 0.28483 -0.00116 0.30497 0.0
C1156 C 0.27901 0.00705 0.19338 0.0
C1157 C 0.25907 0.01416 0.18114 0.0
C1158 C 0.27854 0.0055 0.21753 0.0
C1159 C 0.25847 0.01195 0.22981 0.0
C1160 C 0.24047 0.02326 0.2177 0.0
C1161 C 0.24066 0.02415 0.19351 0.0
C1162 C 0.22914 0.9929 0.28559 0.0
C1163 C 0.2475 0.99389 0.30154 0.0
C1164 C 0.23294 -0.00195 0.26226 0.0
C1165 C 0.25513 0.00469 0.25437 0.0
C1166 C 0.27388 0.00366 0.26996 0.0
C1167 C 0.27017 -0.00204 0.29322 0.0
H1168 H 0.43893 0.24698 0.95501 0.0
H1169 H 0.43832 0.23462 0.02895 0.0
H1170 H 0.48045 0.24993 0.95563 0.0
H1171 H 0.48076 0.23521 0.02928 0.0
H1172 H 0.55583 0.23662 0.9567 0.0
H1173 H 0.51456 0.23219 0.95769 0.0
H1174 H 0.51293 0.26021 0.02731 0.0
H1175 H 0.55539 0.26211 0.02721 0.0
C1176 C 0.44779 0.24388 0.97131 0.0
C1177 C 0.43519 0.24084 0.99192 0.0
C1178 C 0.47184 0.24551 0.9717 0.0
C1179 C 0.48429 0.24298 0.99256 0.0
C1180 C 0.47182 0.23789 0.01297 0.0
C1181 C 0.44747 0.23695 0.01269 0.0
C1182 C 0.54681 0.24215 0.97223 0.0
C1183 C 0.55913 0.24949 0.99196 0.0
C1184 C 0.52285 0.23972 0.97276 0.0
C1185 C 0.51006 0.24579 0.99258 0.0
C1186 C 0.52216 0.25478 0.01189 0.0
C1187 C 0.5465 0.25642 0.01166 0.0
H1188 H 0.93661 0.24679 0.95821 0.0
H1189 H 0.94038 0.27023 0.02916 0.0
H1190 H 0.97815 0.24295 0.95699 0.0
H1191 H 0.98258 0.26919 0.02725 0.0
H1192 H 0.05055 0.23611 0.03394 0.0
H1193 H 0.00858 0.23955 0.03066 0.0
H1194 H 0.01571 0.25167 0.95684 0.0
H1195 H 0.05681 0.24527 0.95986 0.0
C1196 C 0.94648 0.25263 0.97312 0.0
C1197 C 0.93532 0.25806 0.99407 0.0
C1198 C 0.97053 0.25018 0.97252 0.0
C1199 C 0.98386 0.25441 0.99254 0.0
C1200 C 0.9728 0.26422 0.01201 0.0
C1201 C 0.94865 0.26569 0.0129 0.0
C1202 C 0.04288 0.23828 0.01691 0.0
C1203 C 0.057 0.24101 -0.00267 0.0
C1204 C 0.01889 0.2411 0.01505 0.0
C1205 C 0.00872 0.24742 0.9937 0.0
C1206 C 0.02266 0.24722 0.9737 0.0
C1207 C 0.04646 0.24338 0.97543 0.0
H1208 H 0.97429 0.69135 0.27872 0.0
H1209 H 0.99614 0.68494 0.20744 0.0
H1210 H 0.97674 0.73342 0.27558 0.0
H1211 H 0.00086 0.72645 0.20484 0.0
H1212 H -0.00049 0.80577 0.2061 0.0
H1213 H 0.99172 0.76462 0.20413 0.0
H1214 H 0.0084 0.758 0.27701 0.0
H1215 H 0.01416 0.79971 0.27934 0.0
C1216 C 0.97881 0.69901 0.26216 0.0
C1217 C 0.98546 0.68491 0.24353 0.0
C1218 C 0.98096 0.72308 0.2605 0.0
C1219 C 0.99045 0.73334 0.24043 0.0
C1220 C 0.99391 0.71935 0.22076 0.0
C1221 C 0.99096 0.69537 0.22218 0.0
C1222 C 0.00211 0.79548 0.22163 0.0
C1223 C 0.0067 0.80612 0.24312 0.0
C1224 C -0.00259 0.77175 0.22051 0.0
C1225 C -0.00187 0.75803 0.24069 0.0
C1226 C 0.00622 0.7682 0.26139 0.0
C1227 C 0.01028 0.79203 0.26263 0.0
H1228 H 0.55753 0.74401 0.45998 0.0
H1229 H 0.55126 0.72998 0.53323 0.0
H1230 H 0.51633 0.75071 0.45742 0.0
H1231 H 0.50931 0.73366 0.53027 0.0
H1232 H 0.44057 0.76442 0.53064 0.0
H1233 H 0.48274 0.76259 0.5291 0.0
H1234 H 0.47868 0.74251 0.45683 0.0
H1235 H 0.43719 0.74727 0.45789 0.0
C1236 C 0.54715 0.74119 0.47538 0.0
C1237 C 0.55772 0.73717 0.497 0.0
C1238 C 0.52329 0.74515 0.47394 0.0
C1239 C 0.50928 0.74393 0.49391 0.0
C1240 C 0.51956 0.73628 0.51478 0.0
C1241 C 0.54358 0.73333 0.5164 0.0
C1242 C 0.44892 0.76089 0.51418 0.0
C1243 C 0.43558 0.75542 0.4946 0.0
C1244 C 0.47308 0.75901 0.51341 0.0
C1245 C 0.48428 0.75084 0.49325 0.0
C1246 C 0.47101 0.74842 0.47288 0.0
C1247 C 0.44697 0.7513 0.47344 0.0
H1248 H 0.94681 0.77684 0.46301 0.0
H1249 H 0.93475 0.72561 0.51675 0.0
H1250 H 0.98806 0.77527 0.47066 0.0
H1251 H 0.97699 0.72354 0.52354 0.0
H1252 H 0.05254 0.7229 0.46627 0.0
H1253 H 0.01076 0.72376 0.4699 0.0
H1254 H 0.01613 0.77112 0.52744 0.0
H1255 H 0.05887 0.76966 0.52474 0.0
C1256 C 0.95287 0.76505 0.47634 0.0
C1257 C 0.93732 0.75125 0.48921 0.0
C1258 C 0.97651 0.76451 0.48091 0.0
C1259 C 0.98534 0.74979 0.498 0.0
C1260 C 0.97023 0.73549 0.51068 0.0
C1261 C 0.94626 0.73636 0.50646 0.0
C1262 C 0.04512 0.7336 0.47979 0.0
C1263 C 0.05923 0.74643 0.49511 0.0
C1264 C 0.02116 0.7337 0.48203 0.0
C1265 C 0.01057 0.74703 0.49921 0.0
C1266 C 0.02423 0.76025 0.51443 0.0
C1267 C 0.04852 0.75977 0.51255 0.0
H1268 H 0.01194 0.19083 0.20643 0.0
H1269 H -0.00227 0.18599 0.27976 0.0
H1270 H 0.00847 0.23282 0.20854 0.0
H1271 H 0.99132 0.22725 0.28148 0.0
H1272 H 0.99562 0.30634 0.2796 0.0
H1273 H 0.00028 0.26482 0.28136 0.0
H1274 H 0.9798 0.25973 0.20924 0.0
H1275 H 0.97795 0.30183 0.20703 0.0
C1276 C 0.00851 0.19882 0.22308 0.0
C1277 C 0.00464 0.18505 0.24275 0.0
C1278 C 0.00574 0.22287 0.22423 0.0
C1279 C -0.00177 0.23359 0.24489 0.0
C1280 C -0.00319 0.21995 0.26511 0.0
C1281 C 0.00057 0.19605 0.26414 0.0
C1282 C 0.99147 0.29631 0.26427 0.0
C1283 C 0.98706 0.30736 0.24298 0.0
C1284 C 0.99429 0.27228 0.26522 0.0
C1285 C 0.99164 0.25869 0.2451 0.0
C1286 C 0.98347 0.26961 0.22477 0.0
C1287 C 0.98158 0.29374 0.22361 0.0
H1288 H 0.49427 0.80506 0.78914 0.0
H1289 H 0.47167 0.79771 0.71811 0.0
H1290 H 0.50106 0.76371 0.79152 0.0
H1291 H 0.47672 0.75585 0.72098 0.0
H1292 H 0.5171 0.69179 0.7167 0.0
H1293 H 0.51099 0.73345 0.71994 0.0
H1294 H 0.49074 0.72472 0.79165 0.0
H1295 H 0.49858 0.68361 0.78886 0.0
C1296 C 0.48951 0.79445 0.77439 0.0
C1297 C 0.48303 0.80468 0.75317 0.0
C1298 C 0.49365 0.77064 0.7757 0.0
C1299 C 0.49061 0.75659 0.75603 0.0
C1300 C 0.48048 0.76639 0.73606 0.0
C1301 C 0.47691 0.79028 0.73457 0.0
C1302 C 0.51241 0.69899 0.73341 0.0
C1303 C 0.50776 0.68434 0.75227 0.0
C1304 C 0.50825 0.72275 0.73515 0.0
C1305 C 0.49905 0.73224 0.75568 0.0
C1306 C 0.49738 0.71803 0.77542 0.0
C1307 C 0.50212 0.69434 0.77383 0.0
H1308 H 0.02734 0.43643 0.71796 0.0
H1309 H 0.95672 0.43547 0.743 0.0
H1310 H 0.02688 0.47866 0.71843 0.0
H1311 H 0.95696 0.47712 0.74603 0.0
H1312 H 0.96252 0.55578 0.74233 0.0
H1313 H 0.95797 0.51472 0.73564 0.0
H1314 H 0.03152 0.50482 0.74798 0.0
H1315 H 0.03631 0.54655 0.75202 0.0
C1316 C 0.01148 0.44529 0.72283 0.0
C1317 C 0.99232 0.43268 0.73094 0.0
C1318 C 0.0114 0.46948 0.72386 0.0
C1319 C 0.99244 0.48139 0.73371 0.0
C1320 C 0.9721 0.4688 0.73871 0.0
C1321 C 0.97189 0.44469 0.73679 0.0
C1322 C 0.97768 0.5448 0.74412 0.0
C1323 C -6e-05 0.55446 0.74708 0.0
C1324 C 0.97507 0.52108 0.74014 0.0
C1325 C 0.99455 0.50634 0.74015 0.0
C1326 C 0.01629 0.51572 0.74642 0.0
C1327 C 0.01901 0.53957 0.74952 0.0
H1328 H 0.18577 0.21131 0.49466 0.0
H1329 H 0.19695 0.28441 0.50693 0.0
H1330 H 0.22656 0.20629 0.48629 0.0
H1331 H 0.2384 0.27904 0.50079 0.0
H1332 H 0.30486 0.27478 0.4663 0.0
H1333 H 0.26268 0.27471 0.46911 0.0
H1334 H 0.26487 0.20463 0.49609 0.0
H1335 H 0.30649 0.20407 0.49101 0.0
C1336 C 0.19713 0.22618 0.49662 0.0
C1337 C 0.18804 0.24845 0.50093 0.0
C1338 C 0.22066 0.22329 0.49165 0.0
C1339 C 0.23578 0.24246 0.4918 0.0
C1340 C 0.22711 0.2641 0.4992 0.0
C1341 C 0.20345 0.26712 0.50344 0.0
C1342 C 0.29612 0.25898 0.47158 0.0
C1343 C 0.30898 0.23969 0.47896 0.0
C1344 C 0.272 0.25912 0.47391 0.0
C1345 C 0.26041 0.24019 0.48421 0.0
C1346 C 0.27305 0.21974 0.48849 0.0
C1347 C 0.29708 0.21935 0.4854 0.0
H1348 H 0.4621 0.44128 0.26592 0.0
H1349 H 0.53397 0.43314 0.24617 0.0
H1350 H 0.46552 0.48303 0.26071 0.0
H1351 H 0.53688 0.47434 0.23887 0.0
H1352 H 0.53703 0.55413 0.24425 0.0
H1353 H 0.53814 0.51252 0.24946 0.0
H1354 H 0.46585 0.50817 0.22933 0.0
H1355 H 0.46433 0.55027 0.22623 0.0
C1356 C 0.47877 0.44848 0.26097 0.0
C1357 C 0.49755 0.43381 0.25602 0.0
C1358 C 0.4806 0.47236 0.25731 0.0
C1359 C 0.50112 0.48206 0.24814 0.0
C1360 C 0.52067 0.46765 0.24563 0.0
C1361 C 0.51902 0.44386 0.24997 0.0
C1362 C 0.52152 0.54427 0.24021 0.0
C1363 C 0.50036 0.55556 0.23545 0.0
C1364 C 0.52213 0.52024 0.24338 0.0
C1365 C 0.50177 0.50694 0.24097 0.0
C1366 C 0.48156 0.51796 0.23265 0.0
C1367 C 0.48079 0.54205 0.23017 0.0
H1368 H 0.30868 0.78691 0.00043 0.0
H1369 H 0.29877 0.71371 0.01321 0.0
H1370 H 0.26742 0.79148 0.99372 0.0
H1371 H 0.25711 0.71852 0.00795 0.0
H1372 H 0.1932 0.72111 0.96796 0.0
H1373 H 0.23507 0.7229 0.97354 0.0
H1374 H 0.22811 0.79123 0.00364 0.0
H1375 H 0.18663 0.79005 -0.0035 0.0
C1376 C 0.29758 0.77196 0.00298 0.0
C1377 C 0.3071 0.74973 0.00658 0.0
C1378 C 0.27381 0.77457 -0.00118 0.0
C1379 C 0.25911 0.75509 -0.00108 0.0
C1380 C 0.26818 0.73364 0.00637 0.0
C1381 C 0.29197 0.73096 0.01007 0.0
C1382 C 0.2008 0.73696 0.97465 0.0
C1383 C 0.18656 0.75511 0.98235 0.0
C1384 C 0.22471 0.73776 0.97851 0.0
C1385 C 0.23475 0.75661 0.9904 0.0
C1386 C 0.22095 0.77619 0.99496 0.0
C1387 C 0.19708 0.77559 0.99059 0.0
H1388 H 0.73694 0.03228 0.44593 0.0
H1389 H 0.74182 0.95834 0.43471 0.0
H1390 H 0.74315 0.02634 0.48716 0.0
H1391 H 0.74977 0.95248 0.4755 0.0
H1392 H 0.74776 0.9512 0.55554 0.0
H1393 H 0.74178 0.95184 0.51413 0.0
H1394 H 0.77501 0.01913 0.51052 0.0
H1395 H 0.77876 0.01936 0.55254 0.0
C1396 C 0.73882 0.0147 0.45236 0.0
C1397 C 0.73958 0.99593 0.4369 0.0
C1398 C 0.74308 0.01129 0.47593 0.0
C1399 C 0.74852 0.98906 0.48456 0.0
C1400 C 0.74629 0.96995 0.46956 0.0
C1401 C 0.74149 0.97332 0.44603 0.0
C1402 C 0.75448 0.96586 0.54589 0.0
C1403 C 0.76283 0.98571 0.55743 0.0
C1404 C 0.75088 0.96629 0.52194 0.0
C1405 C 0.7566 0.98618 0.50899 0.0
C1406 C 0.76896 0.00414 0.52011 0.0
C1407 C 0.77182 0.00402 0.54415 0.0
H1408 H 0.71569 0.01989 0.30284 0.0
H1409 H 0.78819 0.00137 0.30809 0.0
H1410 H 0.71754 0.01505 0.261 0.0
H1411 H 0.78955 0.99436 0.2669 0.0
H1412 H 0.78609 0.99349 0.18768 0.0
H1413 H 0.78892 0.00177 0.22856 0.0
H1414 H 0.71662 0.98302 0.23719 0.0
H1415 H 0.71333 0.97704 0.19558 0.0
C1416 C 0.73218 0.01542 0.29498 0.0
C1417 C 0.7515 0.01023 0.30887 0.0
C1418 C 0.73311 0.01191 0.27105 0.0
C1419 C 0.75326 0.00274 0.26064 0.0
C1420 C 0.77351 0.00086 0.27417 0.0
C1421 C 0.77276 0.00508 0.29798 0.0
C1422 C 0.77089 0.99051 0.19835 0.0
C1423 C 0.74922 0.98537 0.18826 0.0
C1424 C 0.7725 0.99546 0.22198 0.0
C1425 C 0.75267 0.99434 0.23619 0.0
C1426 C 0.73193 0.98553 0.2266 0.0
C1427 C 0.73016 0.98133 0.20284 0.0
H1428 H 0.78126 0.01213 0.93454 0.0
H1429 H 0.71125 0.98703 0.94507 0.0
H1430 H 0.78503 0.01778 0.97694 0.0
H1431 H 0.71452 0.99418 0.98617 0.0
H1432 H 0.72835 0.02666 0.05916 0.0
H1433 H 0.72978 0.03449 0.01724 0.0
H1434 H 0.77341 0.97454 0.00747 0.0
H1435 H 0.77114 0.96577 0.04843 0.0
C1436 C 0.76675 0.0081 0.94579 0.0
C1437 C 0.74626 -0.00146 0.93666 0.0
C1438 C 0.76873 0.01171 0.96977 0.0
C1439 C 0.74981 0.00681 0.98441 0.0
C1440 C 0.72909 -0.00153 0.97505 0.0
C1441 C 0.72744 0.99403 0.95153 0.0
C1442 C 0.73811 0.0151 0.04802 0.0
C1443 C 0.7494 0.99546 0.05721 0.0
C1444 C 0.73935 0.0199 0.02426 0.0
C1445 C 0.75241 0.00552 0.0096 0.0
C1446 C 0.76391 0.98624 0.01872 0.0
C1447 C 0.76212 0.98102 0.04214 0.0
H1448 H 0.73651 0.95302 0.69672 0.0
H1449 H 0.74671 0.02613 0.6835 0.0
H1450 H 0.73117 0.96042 0.73721 0.0
H1451 H 0.74292 0.03351 0.72562 0.0
H1452 H 0.78364 0.00981 0.79719 0.0
H1453 H 0.77442 0.01348 0.75624 0.0
H1454 H 0.70656 0.98418 0.76849 0.0
H1455 H 0.71536 0.9808 0.8098 0.0
C1456 C 0.73714 0.97083 0.70236 0.0
C1457 C 0.74219 0.989 0.68689 0.0
C1458 C 0.7339 0.97505 0.72569 0.0
C1459 C 0.73653 -0.00253 0.73439 0.0
C1460 C 0.74067 0.01605 0.71904 0.0
C1461 C 0.74306 0.01186 0.69518 0.0
C1462 C 0.76667 0.00422 0.79129 0.0
C1463 C 0.75027 0.99501 0.80687 0.0
C1464 C 0.76125 0.00687 0.76794 0.0
C1465 C 0.73958 -0.00018 0.75953 0.0
C1466 C 0.7232 0.99027 0.77484 0.0
C1467 C 0.72847 0.98788 0.79833 0.0
H1468 H 0.44352 0.72487 0.02797 0.0
H1469 H 0.43604 0.74398 0.95597 0.0
H1470 H 0.48521 0.73085 0.02524 0.0
H1471 H 0.47727 0.75219 0.9537 0.0
H1472 H 0.55771 0.75096 0.95666 0.0
H1473 H 0.5163 0.74417 0.95373 0.0
H1474 H 0.5082 0.76388 0.02564 0.0
H1475 H 0.55001 0.76879 0.02894 0.0
C1476 C 0.4509 0.72976 0.01138 0.0
C1477 C 0.43642 0.73461 0.99244 0.0
C1478 C 0.47472 0.73392 0.00995 0.0
C1479 C 0.4845 0.7435 0.98968 0.0
C1480 C 0.47044 0.74536 0.9698 0.0
C1481 C 0.44667 0.74048 0.97106 0.0
C1482 C 0.54703 0.75453 0.97169 0.0
C1483 C 0.55722 0.75961 0.99331 0.0
C1484 C 0.52315 0.7504 0.97005 0.0
C1485 C 0.50897 0.75204 0.98984 0.0
C1486 C 0.51876 0.76097 0.01039 0.0
C1487 C 0.54267 0.7645 0.01217 0.0
H1488 H 0.9371 0.74675 0.0373 0.0
H1489 H 0.9372 0.77098 0.96648 0.0
H1490 H 0.97872 0.7428 0.03633 0.0
H1491 H 0.97943 0.7698 0.96619 0.0
H1492 H 0.04784 0.73774 0.95634 0.0
H1493 H 0.00603 0.741 0.96137 0.0
H1494 H 0.01624 0.75241 0.03491 0.0
H1495 H 0.05736 0.7465 0.03008 0.0
C1496 C 0.94616 0.75251 0.02188 0.0
C1497 C 0.93385 0.75844 0.00166 0.0
C1498 C 0.97026 0.7501 0.02124 0.0
C1499 C 0.98261 0.75474 0.00069 0.0
C1500 C 0.97047 0.76459 0.98185 0.0
C1501 C 0.94628 0.76608 0.98221 0.0
C1502 C 0.04091 0.73979 0.97369 0.0
C1503 C 0.0559 0.74219 0.99269 0.0
C1504 C 0.01698 0.74247 0.97656 0.0
C1505 C 0.00762 0.74833 -0.00162 0.0
C1506 C 0.02251 0.74822 0.01775 0.0
C1507 C 0.0463 0.74465 0.01498 0.0
H1508 H 0.9959 0.18589 0.78158 0.0
H1509 H 0.98114 0.19447 0.70864 0.0
H1510 H 0.00241 0.227 0.78533 0.0
H1511 H 0.9852 0.23628 0.71279 0.0
H1512 H 0.01818 0.30352 0.71381 0.0
H1513 H 0.01623 0.26135 0.71502 0.0
H1514 H 0.99325 0.26481 0.78643 0.0
H1515 H -0.00227 0.30632 0.78576 0.0
C1516 C 0.99276 0.19675 0.76655 0.0
C1517 C 0.98866 0.18692 0.74461 0.0
C1518 C -0.00326 0.2205 0.76867 0.0
C1519 C 0.99561 0.23499 0.74908 0.0
C1520 C 0.9877 0.2255 0.72797 0.0
C1521 C 0.98455 0.20162 0.72568 0.0
C1522 C 0.01411 0.29505 0.7301 0.0
C1523 C 0.00751 0.30815 0.74945 0.0
C1524 C 0.01216 0.27093 0.73064 0.0
C1525 C 0.00302 0.25969 0.75034 0.0
C1526 C -0.00011 0.27268 0.77074 0.0
C1527 C 0.00271 0.29668 0.77043 0.0
H1528 H 0.44553 0.25764 0.45807 0.0
H1529 H 0.43609 0.24418 0.53115 0.0
H1530 H 0.48728 0.25307 0.46271 0.0
H1531 H 0.4773 0.23747 0.53545 0.0
H1532 H 0.5571 0.2423 0.53593 0.0
H1533 H 0.51561 0.24779 0.5362 0.0
H1534 H 0.51162 0.221 0.46624 0.0
H1535 H 0.55375 0.2175 0.46536 0.0
C1536 C 0.45247 0.25439 0.47524 0.0
C1537 C 0.4375 0.25077 0.49407 0.0
C1538 C 0.47632 0.25102 0.47782 0.0
C1539 C 0.4856 0.24354 0.49918 0.0
C1540 C 0.47089 0.24282 0.51863 0.0
C1541 C 0.44713 0.24688 0.51618 0.0
C1542 C 0.54739 0.23677 0.52084 0.0
C1543 C 0.55882 0.23018 0.5003 0.0
C1544 C 0.5234 0.24015 0.52094 0.0
C1545 C 0.51029 0.23604 0.50079 0.0
C1546 C 0.52134 0.22567 0.48162 0.0
C1547 C 0.54543 0.22296 0.4813 0.0
H1548 H 0.93887 0.21667 0.5208 0.0
H1549 H 0.93767 0.24146 0.45013 0.0
H1550 H 0.98114 0.21761 0.52033 0.0
H1551 H 0.97937 0.2447 0.45032 0.0
H1552 H 0.05801 0.24675 0.45775 0.0
H1553 H 0.01781 0.23597 0.45243 0.0
H1554 H 0.00464 0.24994 0.52499 0.0
H1555 H 0.04556 0.25852 0.53069 0.0
C1556 C 0.94767 0.22145 0.50489 0.0
C1557 C 0.935 0.22983 0.48588 0.0
C1558 C 0.97187 0.2227 0.50479 0.0
C1559 C 0.98362 0.23285 0.4859 0.0
C1560 C 0.97106 0.23734 0.46546 0.0
C1561 C 0.94694 0.23529 0.46529 0.0
C1562 C 0.04648 0.248 0.47253 0.0
C1563 C 0.05514 0.25288 0.49486 0.0
C1564 C 0.02329 0.24161 0.46947 0.0
C1565 C 0.00804 0.24098 0.48849 0.0
C1566 C 0.01612 0.24888 0.51017 0.0
C1567 C 0.03945 0.25455 0.51336 0.0
H1568 H 0.02839 0.68734 0.76619 0.0
H1569 H 0.99303 0.68731 0.70022 0.0
H1570 H 0.02985 0.72962 0.76529 0.0
H1571 H 0.99243 0.72925 0.70019 0.0
H1572 H 0.99508 0.80802 0.70726 0.0
H1573 H 0.00415 0.76748 0.70057 0.0
H1574 H -0.00057 0.75441 0.77433 0.0
H1575 H 0.9922 0.7953 0.78106 0.0
C1576 C 0.02181 0.69638 0.75107 0.0
C1577 C 0.01032 0.68416 0.73351 0.0
C1578 C 0.02202 0.72061 0.75079 0.0
C1579 C 0.00994 0.7329 0.7334 0.0
C1580 C 0.00157 0.72054 0.71411 0.0
C1581 C 0.00212 0.69633 0.714 0.0
C1582 C 0.99556 0.79642 0.72204 0.0
C1583 C 0.99341 0.80501 0.7448 0.0
C1584 C 0.00097 0.77309 0.71819 0.0
C1585 C 0.00353 0.75769 0.73697 0.0
C1586 C -0.00113 0.76591 0.75948 0.0
C1587 C 0.99404 0.78927 0.76336 0.0
H1588 H 0.49205 0.30393 0.20948 0.0
H1589 H 0.48079 0.29898 0.28334 0.0
H1590 H 0.49818 0.26271 0.20743 0.0
H1591 H 0.4842 0.25698 0.28101 0.0
H1592 H 0.51869 0.18934 0.28106 0.0
H1593 H 0.5141 0.23124 0.2791 0.0
H1594 H 0.49015 0.22496 0.20814 0.0
H1595 H 0.4974 0.18388 0.20945 0.0
C1596 C 0.48966 0.29386 0.22517 0.0
C1597 C 0.48673 0.30481 0.24677 0.0
C1598 C 0.49333 0.26998 0.22401 0.0
C1599 C 0.49295 0.25637 0.24429 0.0
C1600 C 0.48614 0.26698 0.26524 0.0
C1601 C 0.48339 0.29102 0.26653 0.0
C1602 C 0.51357 0.19719 0.26475 0.0
C1603 C 0.50794 0.18327 0.24564 0.0
C1604 C 0.51016 0.22115 0.26378 0.0
C1605 C 0.50039 0.23157 0.24389 0.0
C1606 C 0.49739 0.21785 0.22393 0.0
C1607 C 0.50169 0.19406 0.22465 0.0
H1608 H 0.53776 0.05144 0.74171 0.0
H1609 H 0.46949 0.04961 0.77256 0.0
H1610 H 0.53716 0.0098 0.73739 0.0
H1611 H 0.46969 0.0074 0.77036 0.0
H1612 H 0.45637 0.94236 0.73326 0.0
H1613 H 0.46262 0.98371 0.73859 0.0
H1614 H 0.5363 0.97142 0.74706 0.0
H1615 H 0.53025 0.93064 0.73947 0.0
C1616 C 0.52318 0.04198 0.74894 0.0
C1617 C 0.50333 0.05377 0.75687 0.0
C1618 C 0.52273 0.01795 0.74622 0.0
C1619 C 0.50277 0.00528 0.7523 0.0
C1620 C 0.48475 0.01679 0.76416 0.0
C1621 C 0.48488 0.04091 0.76614 0.0
C1622 C 0.47399 0.9487 0.73524 0.0
C1623 C 0.49264 0.93314 0.73672 0.0
C1624 C 0.47756 0.97231 0.73903 0.0
C1625 C 0.49979 0.98078 0.74475 0.0
C1626 C 0.51884 0.9656 0.74322 0.0
C1627 C 0.51534 0.94208 0.73868 0.0
H1628 H 0.19192 0.21774 0.0199 0.0
H1629 H 0.18594 0.28777 0.99384 0.0
H1630 H 0.23394 0.21989 0.01575 0.0
H1631 H 0.22748 0.28931 0.98783 0.0
H1632 H 0.30739 0.2872 0.9938 0.0
H1633 H 0.26583 0.29014 -0.00081 0.0
H1634 H 0.25868 0.21703 0.98381 0.0
H1635 H 0.30067 0.21377 0.98031 0.0
C1636 C 0.19966 0.23381 0.01393 0.0
C1637 C 0.18558 0.25234 0.0068 0.0
C1638 C 0.22368 0.23487 0.01088 0.0
C1639 C 0.23405 0.2543 0.00022 0.0
C1640 C 0.22021 0.2739 -0.00426 0.0
C1641 C 0.19625 0.27306 -0.00061 0.0
C1642 C 0.29694 0.27184 0.9909 0.0
C1643 C 0.30741 0.25003 0.98736 0.0
C1644 C 0.27297 0.27352 0.99417 0.0
C1645 C 0.25892 0.25357 0.99315 0.0
C1646 C 0.2691 0.23251 0.98607 0.0
C1647 C 0.29312 0.23072 0.9834 0.0
H1648 H 0.95882 0.05499 0.24537 0.0
H1649 H 0.0301 0.05109 0.22249 0.0
H1650 H 0.95775 0.01344 0.25008 0.0
H1651 H 0.02843 0.00894 0.22493 0.0
H1652 H 0.03482 0.94225 0.26122 0.0
H1653 H 0.03116 0.98395 0.25598 0.0
H1654 H 0.95803 0.97534 0.24067 0.0
H1655 H 0.96135 0.93427 0.24846 0.0
C1656 C 0.97391 0.04512 0.24005 0.0
C1657 C 0.99482 0.05633 0.23421 0.0
C1658 C 0.97335 0.0211 0.24295 0.0
C1659 C 0.99344 0.00777 0.23912 0.0
C1660 C 0.01306 0.01875 0.22944 0.0
C1661 C 0.01386 0.04287 0.22732 0.0
C1662 C 0.01779 0.94951 0.25781 0.0
C1663 C -0.00145 0.93492 0.25469 0.0
C1664 C 0.01577 0.97333 0.25404 0.0
C1665 C 0.99457 0.983 0.24651 0.0
C1666 C 0.97476 0.9687 0.24606 0.0
C1667 C 0.97665 0.94498 0.25067 0.0
H1668 H 0.30939 0.70393 0.50061 0.0
H1669 H 0.30264 0.77457 0.52479 0.0
H1670 H 0.26777 0.70158 0.49529 0.0
H1671 H 0.26061 0.77166 0.521 0.0
H1672 H 0.19672 0.77714 0.48008 0.0
H1673 H 0.23839 0.77317 0.48599 0.0
H1674 H 0.22856 0.70182 0.50713 0.0
H1675 H 0.18727 0.70536 0.49973 0.0
C1676 C 0.29894 0.7186 0.506 0.0
C1677 C 0.30936 0.73982 0.5123 0.0
C1678 C 0.27497 0.71727 0.50272 0.0
C1679 C 0.26103 0.7369 0.50647 0.0
C1680 C 0.27109 0.75667 0.51671 0.0
C1681 C 0.2951 0.75817 0.5195 0.0
C1682 C 0.20364 0.76033 0.48492 0.0
C1683 C 0.18866 0.74181 0.48999 0.0
C1684 C 0.22741 0.75819 0.48896 0.0
C1685 C 0.23658 0.73757 0.49834 0.0
C1686 C 0.22203 0.71811 0.50039 0.0
C1687 C 0.19829 0.72011 0.49588 0.0
H1688 H 0.72682 0.52922 0.93598 0.0
H1689 H 0.75567 0.46 0.94137 0.0
H1690 H 0.72615 0.53178 0.97857 0.0
H1691 H 0.75568 0.46314 0.9831 0.0
H1692 H 0.76351 0.52447 0.05679 0.0
H1693 H 0.76339 0.52739 0.01411 0.0
H1694 H 0.71787 0.46803 0.01035 0.0
H1695 H 0.71857 0.46432 0.05194 0.0
C1696 C 0.73273 0.51453 0.94611 0.0
C1697 C 0.74127 0.49438 0.93518 0.0
C1698 C 0.73276 0.51623 0.97037 0.0
C1699 C 0.74127 0.49779 0.98382 0.0
C1700 C 0.74912 0.47757 0.97296 0.0
C1701 C 0.74884 0.47574 0.94902 0.0
C1702 C 0.7538 0.51188 0.04676 0.0
C1703 C 0.74131 0.494 0.05786 0.0
C1704 C 0.75339 0.51385 0.0225 0.0
C1705 C 0.74038 0.49805 0.00926 0.0
C1706 C 0.72801 0.48036 0.02032 0.0
C1707 C 0.7287 0.47814 0.0442 0.0
H1708 H 0.77759 0.47679 0.19486 0.0
H1709 H 0.70516 0.49432 0.18611 0.0
H1710 H 0.77419 0.48362 0.23631 0.0
H1711 H 0.7022 0.503 0.2271 0.0
H1712 H 0.70435 0.49947 0.30757 0.0
H1713 H 0.7021 0.49333 0.26614 0.0
H1714 H 0.7729 0.51742 0.25892 0.0
H1715 H 0.77563 0.52179 0.30081 0.0
C1716 C 0.7608 0.48155 0.20189 0.0
C1717 C 0.74191 0.4857 0.18708 0.0
C1718 C 0.75897 0.48613 0.22555 0.0
C1719 C 0.73829 0.49522 0.23488 0.0
C1720 C 0.71856 0.49649 0.22055 0.0
C1721 C 0.72025 0.49133 0.19693 0.0
C1722 C 0.7192 0.50428 0.29711 0.0
C1723 C 0.74047 0.5104 0.30753 0.0
C1724 C 0.71796 0.50053 0.27322 0.0
C1725 C 0.73774 0.50363 0.25928 0.0
C1726 C 0.75773 0.51356 0.26932 0.0
C1727 C 0.75914 0.51672 0.29327 0.0
H1728 H 0.7453 0.45357 0.55583 0.0
H1729 H 0.71752 0.52297 0.55052 0.0
H1730 H 0.75055 0.45232 0.51427 0.0
H1731 H 0.72082 0.52101 0.50849 0.0
H1732 H 0.76061 0.53061 0.44475 0.0
H1733 H 0.75471 0.52553 0.48619 0.0
H1734 H 0.7408 0.45257 0.47527 0.0
H1735 H 0.74876 0.45735 0.4343 0.0
C1736 C 0.739 0.46809 0.54566 0.0
C1737 C 0.73183 0.48879 0.55645 0.0
C1738 C 0.74226 0.46744 0.5217 0.0
C1739 C 0.73744 0.48715 0.50817 0.0
C1740 C 0.72607 0.50607 0.51862 0.0
C1741 C 0.72347 0.50698 0.54264 0.0
C1742 C 0.75745 0.51331 0.45143 0.0
C1743 C 0.75449 0.49458 0.43623 0.0
C1744 C 0.75331 0.51047 0.47506 0.0
C1745 C 0.7458 0.48893 0.48386 0.0
C1746 C 0.74601 0.46954 0.4691 0.0
C1747 C 0.75081 0.47227 0.44553 0.0
H1748 H 0.77364 0.47271 0.80842 0.0
H1749 H 0.71816 0.52228 0.79728 0.0
H1750 H 0.77997 0.47118 0.7661 0.0
H1751 H 0.72557 0.52158 0.75614 0.0
H1752 H 0.77399 0.51844 0.68351 0.0
H1753 H 0.78027 0.51927 0.72581 0.0
H1754 H 0.72546 0.46912 0.73492 0.0
H1755 H 0.71809 0.46909 0.69373 0.0
C1756 C 0.763 0.48333 0.79711 0.0
C1757 C 0.74524 0.4974 0.80629 0.0
C1758 C 0.76695 0.4828 0.77312 0.0
C1759 C 0.75362 0.49682 0.75831 0.0
C1760 C 0.73633 0.51107 0.76746 0.0
C1761 C 0.73191 0.5111 0.79105 0.0
C1762 C 0.76325 0.5077 0.6946 0.0
C1763 C 0.74539 0.4939 0.68517 0.0
C1764 C 0.76721 0.50782 0.7186 0.0
C1765 C 0.75374 0.49368 0.73317 0.0
C1766 C 0.73636 0.47967 0.72377 0.0
C1767 C 0.73195 0.48005 0.70017 0.0
H1768 H 0.49048 0.30148 0.70461 0.0
H1769 H 0.52164 0.30141 0.77268 0.0
H1770 H 0.48779 0.25978 0.7055 0.0
H1771 H 0.52147 0.25915 0.7727 0.0
H1772 H 0.49109 0.18996 0.7847 0.0
H1773 H 0.49369 0.23179 0.77986 0.0
H1774 H 0.49884 0.22264 0.70551 0.0
H1775 H 0.49379 0.18148 0.71031 0.0
C1776 C 0.49805 0.29242 0.71925 0.0
C1777 C 0.50582 0.30467 0.73883 0.0
C1778 C 0.49635 0.26829 0.71987 0.0
C1779 C 0.50334 0.25589 0.73972 0.0
C1780 C 0.51459 0.26811 0.7577 0.0
C1781 C 0.51543 0.29232 0.75744 0.0
C1782 C 0.49176 0.19708 0.76731 0.0
C1783 C 0.49268 0.18233 0.74801 0.0
C1784 C 0.49399 0.22104 0.76449 0.0
C1785 C 0.49779 0.23073 0.74235 0.0
C1786 C 0.49625 0.21609 0.7229 0.0
C1787 C 0.4932 0.19225 0.72568 0.0
H1788 H 0.53126 0.93827 0.22533 0.0
H1789 H 0.45816 0.93376 0.24121 0.0
H1790 H 0.52934 0.98026 0.22845 0.0
H1791 H 0.45666 0.97503 0.24717 0.0
H1792 H 0.45949 0.05403 0.24746 0.0
H1793 H 0.45703 0.01283 0.24111 0.0
H1794 H 0.53004 0.00605 0.25789 0.0
H1795 H 0.5328 0.04791 0.26195 0.0
C1796 C 0.51464 0.94634 0.22887 0.0
C1797 C 0.4951 0.93267 0.23379 0.0
C1798 C 0.51365 0.9704 0.23154 0.0
C1799 C 0.49327 0.98116 0.23981 0.0
C1800 C 0.47292 0.96768 0.24139 0.0
C1801 C 0.47372 0.94376 0.23778 0.0
C1802 C 0.47494 0.0437 0.2504 0.0
C1803 C 0.49657 0.05433 0.25443 0.0
C1804 C 0.47358 0.01985 0.24649 0.0
C1805 C 0.49367 0.00596 0.24745 0.0
C1806 C 0.51447 0.01624 0.25532 0.0
C1807 C 0.51598 0.04022 0.25846 0.0
H1808 H 0.80301 0.77791 0.97654 0.0
H1809 H 0.80696 0.70559 -0.00433 0.0
H1810 H 0.76099 0.77656 0.98042 0.0
H1811 H 0.76555 0.70475 0.0021 0.0
H1812 H 0.68594 0.70944 -0.00018 0.0
H1813 H 0.72726 0.70572 0.99368 0.0
H1814 H 0.73633 0.77808 0.01166 0.0
H1815 H 0.69448 0.78221 0.01539 0.0
C1816 C 0.7948 0.76155 0.98093 0.0
C1817 C 0.80834 0.74211 0.98646 0.0
C1818 C 0.77077 0.76091 0.98395 0.0
C1819 C 0.75989 0.74099 0.99311 0.0
C1820 C 0.77315 0.72062 0.99551 0.0
C1821 C 0.79708 0.72105 0.99165 0.0
C1822 C 0.6968 0.72444 0.0031 0.0
C1823 C 0.6869 0.74637 0.00727 0.0
C1824 C 0.72066 0.72234 -0.00062 0.0
C1825 C 0.73518 0.74194 0.00079 0.0
C1826 C 0.72557 0.76292 0.00889 0.0
C1827 C 0.70163 0.76519 0.01181 0.0
H1828 H 0.9643 0.05183 0.71406 0.0
H1829 H 0.03454 0.05808 0.73964 0.0
H1830 H 0.96715 0.00976 0.71686 0.0
H1831 H 0.03666 0.01654 0.74463 0.0
H1832 H 0.03453 0.93698 0.74422 0.0
H1833 H 0.0374 0.97795 0.73528 0.0
H1834 H 0.96396 0.98584 0.74911 0.0
H1835 H 0.96083 0.94434 0.75597 0.0
C1836 C 0.98059 0.04417 0.71955 0.0
C1837 C -0.00112 0.05827 0.72723 0.0
C1838 C 0.98205 0.02009 0.72184 0.0
C1839 C 0.00158 0.00978 0.73241 0.0
C1840 C 0.02113 0.02372 0.73687 0.0
C1841 C 0.01994 0.04772 0.73383 0.0
C1842 C 0.01907 0.94753 0.7459 0.0
C1843 C -0.00273 0.93729 0.75019 0.0
C1844 C 0.0207 0.97114 0.74057 0.0
C1845 C 0.00069 0.98515 0.74032 0.0
C1846 C 0.97952 0.9754 0.74778 0.0
C1847 C 0.97779 0.9517 0.75244 0.0
H1848 H 0.68596 0.27291 0.47626 0.0
H1849 H 0.6946 0.21456 0.52293 0.0
H1850 H 0.72855 0.27695 0.47426 0.0
H1851 H 0.73626 0.21937 0.5214 0.0
H1852 H 0.81027 0.27413 0.51469 0.0
H1853 H 0.76769 0.27793 0.51764 0.0
H1854 H 0.75923 0.2182 0.47348 0.0
H1855 H 0.80083 0.21365 0.47107 0.0
C1856 C 0.6968 0.261 0.48598 0.0
C1857 C 0.68678 0.24326 0.49952 0.0
C1858 C 0.72101 0.26364 0.48519 0.0
C1859 C 0.7353 0.24877 0.49817 0.0
C1860 C 0.72539 0.2312 0.51158 0.0
C1861 C 0.70149 0.22829 0.51209 0.0
C1862 C 0.79927 0.2617 0.50585 0.0
C1863 C 0.80905 0.2435 0.4928 0.0
C1864 C 0.77506 0.26415 0.5072 0.0
C1865 C 0.76056 0.24861 0.49529 0.0
C1866 C 0.77026 0.2305 0.48251 0.0
C1867 C 0.79414 0.22779 0.48146 0.0
H1868 H 0.25928 0.53056 0.04654 0.0
H1869 H 0.24666 0.45735 0.0569 0.0
H1870 H 0.25207 0.52589 0.00528 0.0
H1871 H 0.23785 0.45297 0.01602 0.0
H1872 H 0.24435 0.45419 0.93535 0.0
H1873 H 0.24888 0.45291 0.97706 0.0
H1874 H 0.2185 0.52132 0.98226 0.0
H1875 H 0.21568 0.52325 0.94015 0.0
C1876 C 0.25549 0.51338 0.03993 0.0
C1877 C 0.25305 0.49452 0.05514 0.0
C1878 C 0.25071 0.51077 0.01636 0.0
C1879 C 0.24312 0.4893 0.00748 0.0
C1880 C 0.24322 0.46987 0.02224 0.0
C1881 C 0.2485 0.47238 0.04577 0.0
C1882 C 0.23778 0.46864 0.9454 0.0
C1883 C 0.23036 0.4892 0.93443 0.0
C1884 C 0.24058 0.46796 0.96946 0.0
C1885 C 0.23526 0.48755 0.98295 0.0
C1886 C 0.22401 0.50644 0.97223 0.0
C1887 C 0.22177 0.50734 0.94814 0.0
H1888 H 0.20912 0.50924 0.79945 0.0
H1889 H 0.28299 0.49865 0.80691 0.0
H1890 H 0.21299 0.50617 0.75754 0.0
H1891 H 0.2866 0.49317 0.76564 0.0
H1892 H 0.28596 0.49508 0.68635 0.0
H1893 H 0.28644 0.50226 0.72753 0.0
H1894 H 0.2166 0.47488 0.73292 0.0
H1895 H 0.21546 0.46996 0.69105 0.0
C1896 C 0.22627 0.50696 0.79206 0.0
C1897 C 0.24558 0.5036 0.80648 0.0
C1898 C 0.22845 0.50444 0.76809 0.0
C1899 C 0.24986 0.49792 0.75822 0.0
C1900 C 0.26971 0.49774 0.77245 0.0
C1901 C 0.26764 0.50108 0.7963 0.0
C1902 C 0.27093 0.48989 0.69637 0.0
C1903 C 0.25039 0.48254 0.68537 0.0
C1904 C 0.27113 0.49423 0.72016 0.0
C1905 C 0.2511 0.49031 0.73356 0.0
C1906 C 0.23188 0.47946 0.72299 0.0
C1907 C 0.23143 0.47586 0.69907 0.0
H1908 H 0.23802 0.45713 0.54755 0.0
H1909 H 0.24682 0.53101 0.55634 0.0
H1910 H 0.24347 0.46151 0.50599 0.0
H1911 H 0.25464 0.53521 0.51537 0.0
H1912 H 0.24904 0.5353 0.43577 0.0
H1913 H 0.24502 0.53559 0.47737 0.0
H1914 H 0.27387 0.4663 0.48063 0.0
H1915 H 0.27553 0.46527 0.43847 0.0
C1916 C 0.24063 0.47438 0.5405 0.0
C1917 C 0.24239 0.49359 0.5553 0.0
C1918 C 0.24451 0.47686 0.51675 0.0
C1919 C 0.2508 0.49855 0.5073 0.0
C1920 C 0.25018 0.51815 0.52183 0.0
C1921 C 0.24552 0.51575 0.54548 0.0
C1922 C 0.25523 0.52035 0.44536 0.0
C1923 C 0.26178 0.49987 0.43379 0.0
C1924 C 0.25277 0.52046 0.46943 0.0
C1925 C 0.25785 0.50044 0.48246 0.0
C1926 C 0.26836 0.48152 0.47108 0.0
C1927 C 0.27002 0.48112 0.44693 0.0
H1928 H 0.20924 0.49308 0.30638 0.0
H1929 H 0.28252 0.47761 0.30377 0.0
H1930 H 0.20822 0.49704 0.26495 0.0
H1931 H 0.2811 0.47849 0.26162 0.0
H1932 H 0.2842 0.50984 0.19208 0.0
H1933 H 0.28181 0.50609 0.23399 0.0
H1934 H 0.20884 0.4886 0.22775 0.0
H1935 H 0.21084 0.4954 0.18668 0.0
C1936 C 0.22495 0.48924 0.2968 0.0
C1937 C 0.24618 0.4858 0.30836 0.0
C1938 C 0.22442 0.49162 0.27276 0.0
C1939 C 0.2449 0.48934 0.25962 0.0
C1940 C 0.26526 0.48194 0.27109 0.0
C1941 C 0.266 0.48062 0.29527 0.0
C1942 C 0.26748 0.50633 0.19995 0.0
C1943 C 0.24785 0.50259 0.18605 0.0
C1944 C 0.26618 0.50334 0.22395 0.0
C1945 C 0.24541 0.49572 0.23449 0.0
C1946 C 0.22528 0.49425 0.22067 0.0
C1947 C 0.22639 0.49827 0.19685 0.0
H1948 H 0.49988 0.80524 0.28725 0.0
H1949 H 0.5262 0.80239 0.21725 0.0
H1950 H 0.49811 0.7634 0.28859 0.0
H1951 H 0.5265 0.76016 0.21922 0.0
H1952 H 0.48772 0.69421 0.21071 0.0
H1953 H 0.49454 0.73559 0.21516 0.0
H1954 H 0.50952 0.72513 0.28798 0.0
H1955 H 0.50076 0.68427 0.28379 0.0
C1956 C 0.50672 0.79563 0.27263 0.0
C1957 C 0.51248 0.80702 0.25181 0.0
C1958 C 0.50549 0.77147 0.27332 0.0
C1959 C 0.51087 0.75838 0.25349 0.0
C1960 C 0.52088 0.7698 0.23432 0.0
C1961 C 0.52139 0.79399 0.23336 0.0
C1962 C 0.49154 0.70097 0.22782 0.0
C1963 C 0.49402 0.68589 0.24676 0.0
C1964 C 0.49618 0.72458 0.2303 0.0
C1965 C 0.5038 0.7336 0.2517 0.0
C1966 C 0.50403 0.71888 0.27115 0.0
C1967 C 0.49877 0.69534 0.26877 0.0
H1968 H 0.05195 0.34416 0.33805 0.0
H1969 H 0.03872 0.27788 0.30573 0.0
H1970 H 0.06534 0.32461 0.37286 0.0
H1971 H 0.05112 0.25813 0.34113 0.0
H1972 H 0.11787 0.2403 0.3843 0.0
H1973 H 0.08899 0.25269 0.35615 0.0
H1974 H 0.06075 0.30079 0.40634 0.0
H1975 H 0.09026 0.28832 0.43438 0.0
C1976 C 0.05129 0.32538 0.33864 0.0
C1977 C 0.04489 0.31253 0.31896 0.0
C1978 C 0.05876 0.31411 0.35875 0.0
C1979 C 0.05965 0.28971 0.35976 0.0
C1980 C 0.05122 0.27692 0.34074 0.0
C1981 C 0.04412 0.28821 0.32046 0.0
C1982 C 0.10489 0.25288 0.3895 0.0
C1983 C 0.10608 0.26338 0.41131 0.0
C1984 C 0.08824 0.25999 0.37342 0.0
C1985 C 0.0727 0.27806 0.3788 0.0
C1986 C 0.0727 0.28712 0.40149 0.0
C1987 C 0.08937 0.27986 0.41763 0.0
H1988 H 0.96904 0.83659 0.68301 0.0
H1989 H -0.00272 0.87795 0.62746 0.0
H1990 H 0.95714 0.8068 0.65481 0.0
H1991 H 0.98596 0.8485 0.59949 0.0
H1992 H 0.96746 0.79506 0.55071 0.0
H1993 H 0.98905 0.80883 0.5844 0.0
H1994 H 0.92579 0.80918 0.6246 0.0
H1995 H 0.90426 0.79491 0.59108 0.0
C1996 C 0.9734 0.83885 0.66488 0.0
C1997 C 0.98393 0.85943 0.65722 0.0
C1998 C 0.9665 0.82195 0.64876 0.0
C1999 C 0.97049 0.82533 0.62488 0.0
C2000 C 0.9828 0.84516 0.61771 0.0
C2001 C 0.9892 0.86213 0.63368 0.0
C2002 C 0.95823 0.79759 0.56688 0.0
C2003 C 0.93401 0.79459 0.56803 0.0
C2004 C 0.97063 0.80542 0.58619 0.0
C2005 C 0.95906 0.8106 0.60702 0.0
C2006 C 0.93526 0.80533 0.60884 0.0
C2007 C 0.92286 0.79731 0.58954 0.0
H2008 H 0.44459 0.65542 0.8404 0.0
H2009 H 0.43417 0.71528 0.79622 0.0
H2010 H 0.42663 0.67618 0.8726 0.0
H2011 H 0.41596 0.73576 0.82864 0.0
H2012 H 0.40236 0.73887 0.92527 0.0
H2013 H 0.43045 0.72627 0.89557 0.0
H2014 H 0.37387 0.70971 0.8494 0.0
H2015 H 0.34601 0.72159 0.87879 0.0
C2016 C 0.43893 0.67314 0.83763 0.0
C2017 C 0.44028 0.68349 0.81552 0.0
C2018 C 0.42889 0.68504 0.85617 0.0
C2019 C 0.42009 0.70748 0.85296 0.0
C2020 C 0.4228 0.71847 0.83142 0.0
C2021 C 0.433 0.70664 0.81287 0.0
C2022 C 0.39603 0.73275 0.90867 0.0
C2023 C 0.37203 0.73104 0.90437 0.0
C2024 C 0.41203 0.7256 0.89179 0.0
C2025 C 0.40413 0.71725 0.87032 0.0
C2026 C 0.38026 0.71633 0.8658 0.0
C2027 C 0.36437 0.723 0.88268 0.0
H2028 H 0.53076 0.18236 0.05064 0.0
H2029 H 0.5862 0.20919 0.09361 0.0
H2030 H 0.51158 0.16697 0.08513 0.0
H2031 H 0.56693 0.19377 0.12791 0.0
H2032 H 0.5519 0.11904 0.16009 0.0
H2033 H 0.5646 0.14909 0.13329 0.0
H2034 H 0.49402 0.17382 0.1273 0.0
H2035 H 0.48135 0.14378 0.15504 0.0
C2036 C 0.53858 0.18548 0.06744 0.0
C2037 C 0.56042 0.19628 0.06929 0.0
C2038 C 0.52745 0.17687 0.0872 0.0
C2039 C 0.538 0.17891 0.10907 0.0
C2040 C 0.55861 0.19175 0.11117 0.0
C2041 C 0.5697 0.20042 0.09148 0.0
C2042 C 0.53919 0.13122 0.15343 0.0
C2043 C 0.51571 0.12916 0.15941 0.0
C2044 C 0.54646 0.14854 0.13828 0.0
C2045 C 0.53029 0.16383 0.12834 0.0
C2046 C 0.5068 0.16229 0.13488 0.0
C2047 C 0.49959 0.14522 0.15068 0.0
H2048 H 0.033 0.65362 0.14995 0.0
H2049 H 0.07371 0.70261 0.18968 0.0
H2050 H 0.04934 0.66959 0.114 0.0
H2051 H 0.08958 0.71852 0.15379 0.0
H2052 H 0.13067 0.68408 0.0801 0.0
H2053 H 0.10336 0.67042 0.1095 0.0
H2054 H 0.06781 0.73623 0.10729 0.0
H2055 H 0.09491 0.74987 0.07731 0.0
C2056 C 0.04512 0.66797 0.15102 0.0
C2057 C 0.05227 0.67667 0.17271 0.0
C2058 C 0.0543 0.67715 0.13048 0.0
C2059 C 0.0705 0.69532 0.13131 0.0
C2060 C 0.07676 0.70477 0.15281 0.0
C2061 C 0.06773 0.69557 0.17332 0.0
C2062 C 0.11672 0.69548 0.08547 0.0
C2063 C 0.11498 0.71812 0.07653 0.0
C2064 C 0.10105 0.68758 0.10215 0.0
C2065 C 0.08357 0.70229 0.11046 0.0
C2066 C 0.08111 0.72458 0.10091 0.0
C2067 C 0.09656 0.73235 0.0838 0.0
H2068 H 0.59264 0.79834 0.40087 0.0
H2069 H 0.52661 0.79477 0.43641 0.0
H2070 H 0.57384 0.81727 0.36805 0.0
H2071 H 0.50791 0.81377 0.40323 0.0
H2072 H 0.49618 0.83953 0.31892 0.0
H2073 H 0.51002 0.80985 0.34638 0.0
H2074 H 0.5481 0.86238 0.38369 0.0
H2075 H 0.53386 0.89195 0.35716 0.0
C2076 C 0.574 0.80075 0.40136 0.0
C2077 C 0.56116 0.79535 0.4214 0.0
C2078 C 0.56328 0.81157 0.38253 0.0
C2079 C 0.53953 0.81683 0.38327 0.0
C2080 C 0.52624 0.80962 0.40231 0.0
C2081 C 0.53699 0.79897 0.42131 0.0
C2082 C 0.50717 0.84474 0.33321 0.0
C2083 C 0.5137 0.86812 0.33601 0.0
C2084 C 0.51516 0.82778 0.34875 0.0
C2085 C 0.53011 0.83403 0.36692 0.0
C2086 C 0.5366 0.85728 0.36969 0.0
C2087 C 0.5284 0.87416 0.3545 0.0
H2088 H 0.43093 0.34191 0.65135 0.0
H2089 H 0.44158 0.27671 0.68688 0.0
H2090 H 0.41742 0.32119 0.61721 0.0
H2091 H 0.42837 0.25585 0.65241 0.0
H2092 H 0.36294 0.23908 0.60582 0.0
H2093 H 0.38954 0.25247 0.63585 0.0
H2094 H 0.42566 0.29443 0.58516 0.0
H2095 H 0.39877 0.28072 0.55506 0.0
C2096 C 0.43078 0.32311 0.65172 0.0
C2097 C 0.43686 0.31095 0.67196 0.0
C2098 C 0.42325 0.31121 0.63204 0.0
C2099 C 0.42173 0.28685 0.63213 0.0
C2100 C 0.42904 0.27463 0.65195 0.0
C2101 C 0.43647 0.28657 0.6717 0.0
C2102 C 0.37707 0.25057 0.60107 0.0
C2103 C 0.37897 0.259 0.57839 0.0
C2104 C 0.39238 0.25819 0.61818 0.0
C2105 C 0.40955 0.27475 0.61294 0.0
C2106 C 0.41243 0.28187 0.58975 0.0
C2107 C 0.39723 0.27396 0.57253 0.0
H2108 H 0.00457 0.13366 0.83968 0.0
H2109 H 0.9361 0.13356 0.80949 0.0
H2110 H 0.99118 0.16001 0.8701 0.0
H2111 H 0.92299 0.16126 0.83844 0.0
H2112 H 0.89671 0.17082 0.91155 0.0
H2113 H 0.91263 0.15521 0.87613 0.0
H2114 H 0.97628 0.19361 0.88758 0.0
H2115 H 0.96044 0.20796 0.92445 0.0
C2116 C 0.9869 0.1401 0.83908 0.0
C2117 C 0.97118 0.13143 0.82266 0.0
C2118 C 0.97916 0.15524 0.85647 0.0
C2119 C 0.95567 0.16216 0.85736 0.0
C2120 C 0.94088 0.15553 0.83905 0.0
C2121 C 0.94842 0.13992 0.82221 0.0
C2122 C 0.91401 0.17612 0.90636 0.0
C2123 C 0.92737 0.19051 0.92064 0.0
C2124 C 0.92316 0.16737 0.88582 0.0
C2125 C 0.94576 0.17333 0.87855 0.0
C2126 C 0.95894 0.18839 0.89265 0.0
C2127 C 0.94991 0.19669 0.91369 0.0
H2128 H 0.33457 0.02764 0.32113 0.0
H2129 H 0.295 0.08323 0.29018 0.0
H2130 H 0.3693 0.04086 0.30071 0.0
H2131 H 0.32978 0.09706 0.27045 0.0
H2132 H 0.39295 0.11711 0.23246 0.0
H2133 H 0.3603 0.09151 0.24205 0.0
H2134 H 0.39368 0.0741 0.30701 0.0
H2135 H 0.42603 0.09952 0.29717 0.0
C2136 C 0.33334 0.04267 0.30991 0.0
C2137 C 0.31225 0.0547 0.30755 0.0
C2138 C 0.35318 0.05021 0.29818 0.0
C2139 C 0.35242 0.07016 0.28411 0.0
C2140 C 0.33097 0.08144 0.28085 0.0
C2141 C 0.31106 0.07367 0.29233 0.0
C2142 C 0.39354 0.10705 0.24834 0.0
C2143 C 0.41178 0.11005 0.26415 0.0
C2144 C 0.37481 0.09261 0.25396 0.0
C2145 C 0.37419 0.08102 0.27547 0.0
C2146 C 0.39359 0.0826 0.29026 0.0
C2147 C 0.41212 0.09717 0.28471 0.0
H2148 H 0.173 0.04808 0.53414 0.0
H2149 H 0.21355 0.0894 0.58181 0.0
H2150 H 0.15811 0.08319 0.51624 0.0
H2151 H 0.19938 0.1247 0.56322 0.0
H2152 H 0.13525 0.17355 0.55378 0.0
H2153 H 0.16243 0.14317 0.5649 0.0
H2154 H 0.16271 0.11787 0.49427 0.0
H2155 H 0.13463 0.14803 0.48363 0.0
C2156 C 0.17918 0.06468 0.54043 0.0
C2157 C 0.19401 0.06598 0.55973 0.0
C2158 C 0.1708 0.08488 0.53 0.0
C2159 C 0.17731 0.10684 0.53846 0.0
C2160 C 0.19359 0.10807 0.55662 0.0
C2161 C 0.20173 0.08785 0.56726 0.0
C2162 C 0.14175 0.16187 0.54057 0.0
C2163 C 0.13337 0.16318 0.51782 0.0
C2164 C 0.15742 0.14452 0.54685 0.0
C2165 C 0.16475 0.12795 0.5305 0.0
C2166 C 0.15725 0.13018 0.50735 0.0
C2167 C 0.1415 0.1476 0.50113 0.0
H2168 H 0.1595 0.96605 0.81616 0.0
H2169 H 0.19938 0.90938 0.78815 0.0
H2170 H 0.12521 0.95273 0.795 0.0
H2171 H 0.16515 0.89553 0.76743 0.0
H2172 H 0.10346 0.8734 0.72938 0.0
H2173 H 0.1354 0.90006 0.73832 0.0
H2174 H 0.10027 0.92005 0.8015 0.0
H2175 H 0.06845 0.89381 0.79211 0.0
C2176 C 0.16083 0.9507 0.80548 0.0
C2177 C 0.18178 0.93834 0.8043 0.0
C2178 C 0.1413 0.94314 0.79324 0.0
C2179 C 0.14229 0.92287 0.77973 0.0
C2180 C 0.16375 0.91136 0.77743 0.0
C2181 C 0.18335 0.91912 0.78948 0.0
C2182 C 0.10229 0.8843 0.74463 0.0
C2183 C 0.08369 0.88179 0.7601 0.0
C2184 C 0.12063 0.89933 0.74992 0.0
C2185 C 0.12065 0.91185 0.77087 0.0
C2186 C 0.10085 0.91081 0.78517 0.0
C2187 C 0.0826 0.89577 0.77987 0.0
H2188 H 0.34205 0.80476 0.02262 0.0
H2189 H 0.38607 0.86128 0.00096 0.0
H2190 H 0.31153 0.83266 0.03342 0.0
H2191 H 0.35587 0.88898 0.01117 0.0
H2192 H 0.30041 0.93679 0.02517 0.0
H2193 H 0.31533 0.90335 0.00402 0.0
H2194 H 0.31267 0.86235 0.06665 0.0
H2195 H 0.29743 0.89567 0.08783 0.0
C2196 C 0.3448 0.82309 0.01948 0.0
C2197 C 0.36624 0.83108 0.0111 0.0
C2198 C 0.32748 0.83901 0.02573 0.0
C2199 C 0.33131 0.863 0.02314 0.0
C2200 C 0.35223 0.87063 0.01312 0.0
C2201 C 0.36961 0.85484 0.00743 0.0
C2202 C 0.30251 0.92051 0.03435 0.0
C2203 C 0.29852 0.9191 0.05837 0.0
C2204 C 0.31095 0.90135 0.02218 0.0
C2205 C 0.31565 0.88043 0.0338 0.0
C2206 C 0.30922 0.87825 0.05722 0.0
C2207 C 0.30066 0.89743 0.0694 0.0
H2208 H 0.43622 0.89862 0.2151 0.0
H2209 H 0.38183 0.8585 0.24725 0.0
H2210 H 0.40768 0.92832 0.20395 0.0
H2211 H 0.35344 0.888 0.23664 0.0
H2212 H 0.30478 0.94326 0.21686 0.0
H2213 H 0.33832 0.92815 0.23809 0.0
H2214 H 0.37686 0.92371 0.174 0.0
H2215 H 0.34377 0.93903 0.15292 0.0
C2216 C 0.41827 0.8966 0.22036 0.0
C2217 C 0.41092 0.87634 0.23164 0.0
C2218 C 0.40198 0.91348 0.21399 0.0
C2219 C 0.37828 0.91035 0.2192 0.0
C2220 C 0.37153 0.89101 0.23245 0.0
C2221 C 0.38769 0.87402 0.23837 0.0
C2222 C 0.32051 0.9393 0.20736 0.0
C2223 C 0.32135 0.94168 0.1831 0.0
C2224 C 0.33973 0.93078 0.21954 0.0
C2225 C 0.36013 0.92453 0.20769 0.0
C2226 C 0.3615 0.92855 0.1837 0.0
C2227 C 0.34235 0.93705 0.17155 0.0
H2228 H 0.36324 0.16496 0.44036 0.0
H2229 H 0.36004 0.14264 0.51158 0.0
H2230 H 0.33418 0.13618 0.42981 0.0
H2231 H 0.33058 0.11348 0.50123 0.0
H2232 H 0.32188 0.04298 0.45793 0.0
H2233 H 0.3363 0.07736 0.4779 0.0
H2234 H 0.29461 0.12085 0.43323 0.0
H2235 H 0.28085 0.08654 0.41283 0.0
C2236 C 0.35565 0.15427 0.45385 0.0
C2237 C 0.36358 0.15586 0.47671 0.0
C2238 C 0.33891 0.13788 0.44791 0.0
C2239 C 0.33014 0.12246 0.46468 0.0
C2240 C 0.33711 0.12507 0.48794 0.0
C2241 C 0.35372 0.14179 0.49392 0.0
C2242 C 0.31546 0.05984 0.45263 0.0
C2243 C 0.30072 0.06211 0.43332 0.0
C2244 C 0.32353 0.07955 0.46427 0.0
C2245 C 0.31685 0.10184 0.45689 0.0
C2246 C 0.30039 0.10392 0.43903 0.0
C2247 C 0.29254 0.08427 0.42729 0.0
H2248 H 0.19731 0.06451 0.71062 0.0
H2249 H 0.15301 0.02962 0.66116 0.0
H2250 H 0.16343 0.08122 0.72917 0.0
H2251 H 0.11887 0.04572 0.68032 0.0
H2252 H 0.07502 0.11281 0.69191 0.0
H2253 H 0.10381 0.08432 0.6798 0.0
H2254 H 0.12819 0.07892 0.7506 0.0
H2255 H 0.0995 0.10807 0.76235 0.0
C2256 C 0.18029 0.05994 0.70405 0.0
C2257 C 0.17788 0.04633 0.68399 0.0
C2258 C 0.16077 0.06938 0.71484 0.0
C2259 C 0.13839 0.0652 0.70597 0.0
C2260 C 0.1359 0.04982 0.68719 0.0
C2261 C 0.15546 0.04057 0.67622 0.0
C2262 C 0.08625 0.10506 0.70487 0.0
C2263 C 0.0851 0.11224 0.728 0.0
C2264 C 0.10263 0.08861 0.69804 0.0
C2265 C 0.11839 0.07926 0.71423 0.0
C2266 C 0.11648 0.0859 0.73765 0.0
C2267 C 0.10001 0.10238 0.74445 0.0
H2268 H 0.1271 0.85861 0.0147 0.0
H2269 H 0.14314 0.81734 0.95458 0.0
H2270 H 0.15529 0.88784 0.00233 0.0
H2271 H 0.17051 0.8468 0.9414 0.0
H2272 H 0.21593 0.90485 0.91819 0.0
H2273 H 0.20313 0.87183 0.94174 0.0
H2274 H 0.15012 0.91508 0.97261 0.0
H2275 H 0.16361 0.94783 0.95013 0.0
C2276 C 0.1373 0.85553 -0.00078 0.0
C2277 C 0.13307 0.83601 0.98544 0.0
C2278 C 0.15322 0.87233 0.99194 0.0
C2279 C 0.16464 0.8701 0.97043 0.0
C2280 C 0.16208 0.84923 0.958 0.0
C2281 C 0.14635 0.83233 0.96546 0.0
C2282 C 0.20175 0.90721 0.93027 0.0
C2283 C 0.19063 0.92882 0.93218 0.0
C2284 C 0.19441 0.88835 0.94377 0.0
C2285 C 0.17554 0.89067 0.95915 0.0
C2286 C 0.16505 0.9126 0.96149 0.0
C2287 C 0.17263 0.93143 0.94835 0.0
H2288 H 0.27318 0.43437 0.08756 0.0
H2289 H 0.24124 0.37836 0.12553 0.0
H2290 H 0.28626 0.40672 0.05785 0.0
H2291 H 0.25375 0.35091 0.09611 0.0
H2292 H 0.277 0.3029 0.04378 0.0
H2293 H 0.25423 0.33633 0.05614 0.0
H2294 H 0.31716 0.37659 0.06301 0.0
H2295 H 0.33991 0.3434 0.05014 0.0
C2296 C 0.2682 0.41628 0.08898 0.0
C2297 C 0.2564 0.40825 0.10868 0.0
C2298 C 0.27576 0.40048 0.07214 0.0
C2299 C 0.27123 0.3766 0.07475 0.0
C2300 C 0.25739 0.36916 0.09342 0.0
C2301 C 0.25029 0.38481 0.11036 0.0
C2302 C 0.28597 0.31898 0.04761 0.0
C2303 C 0.31034 0.32026 0.04681 0.0
C2304 C 0.27289 0.33816 0.05454 0.0
C2305 C 0.28392 0.35894 0.06097 0.0
C2306 C 0.3081 0.36086 0.05811 0.0
C2307 C 0.32119 0.34171 0.05102 0.0
H2308 H 0.76657 0.05984 0.90599 0.0
H2309 H 0.75967 0.11526 0.85609 0.0
H2310 H 0.7765 0.08852 0.93618 0.0
H2311 H 0.76867 0.14363 0.88597 0.0
H2312 H 0.8365 0.14955 0.95081 0.0
H2313 H 0.81542 0.11662 0.93442 0.0
H2314 H 0.75419 0.15912 0.92713 0.0
H2315 H 0.77503 0.1921 0.94357 0.0
C2316 C 0.76636 0.07816 0.90176 0.0
C2317 C 0.76244 0.08553 0.87889 0.0
C2318 C 0.7721 0.09447 0.9189 0.0
C2319 C 0.77322 0.11823 0.91333 0.0
C2320 C 0.76759 0.12548 0.89079 0.0
C2321 C 0.76252 0.10927 0.87369 0.0
C2322 C 0.81837 0.15177 0.94627 0.0
C2323 C 0.80767 0.17368 0.9478 0.0
C2324 C 0.80626 0.13281 0.93714 0.0
C2325 C 0.78329 0.13548 0.9294 0.0
C2326 C 0.77195 0.15674 0.9329 0.0
C2327 C 0.78399 0.17564 0.9421 0.0
H2328 H 0.08946 0.58001 0.21413 0.0
H2329 H 0.04907 0.52778 0.17847 0.0
H2330 H 0.12505 0.56288 0.19909 0.0
H2331 H 0.08478 0.51083 0.16322 0.0
H2332 H 0.15434 0.48339 0.13951 0.0
H2333 H 0.12479 0.4924 0.16898 0.0
H2334 H 0.13624 0.56559 0.15716 0.0
H2335 H 0.16533 0.55643 0.12799 0.0
C2336 C 0.08816 0.56466 0.20337 0.0
C2337 C 0.06638 0.55573 0.19683 0.0
C2338 C 0.10858 0.55481 0.19485 0.0
C2339 C 0.10765 0.53583 0.1796 0.0
C2340 C 0.08604 0.52546 0.17495 0.0
C2341 C 0.06556 0.5353 0.18353 0.0
C2342 C 0.15099 0.50129 0.14395 0.0
C2343 C 0.16206 0.51923 0.13176 0.0
C2344 C 0.134 0.50648 0.16057 0.0
C2345 C 0.12825 0.52971 0.16542 0.0
C2346 C 0.14049 0.54754 0.15411 0.0
C2347 C 0.15703 0.54234 0.13729 0.0
H2348 H 0.7117 0.81325 0.45711 0.0
H2349 H 0.65307 0.81856 0.41083 0.0
H2350 H 0.73019 0.84656 0.43753 0.0
H2351 H 0.67144 0.85114 0.39112 0.0
H2352 H 0.72185 0.88301 0.34224 0.0
H2353 H 0.7092 0.85101 0.36657 0.0
H2354 H 0.72107 0.89246 0.42778 0.0
H2355 H 0.73438 0.92483 0.40312 0.0
C2356 C 0.70289 0.82154 0.44278 0.0
C2357 C 0.68118 0.81338 0.43522 0.0
C2358 C 0.71331 0.8406 0.43175 0.0
C2359 C 0.7023 0.85114 0.4127 0.0
C2360 C 0.68037 0.84316 0.40563 0.0
C2361 C 0.66984 0.8246 0.4169 0.0
C2362 C 0.72191 0.88533 0.36088 0.0
C2363 C 0.72852 0.90653 0.37082 0.0
C2364 C 0.71474 0.867 0.37479 0.0
C2365 C 0.71374 0.8695 0.39895 0.0
C2366 C 0.72167 0.8902 0.40915 0.0
C2367 C 0.72915 0.90866 0.3951 0.0
H2368 H 0.94658 0.96428 0.17837 0.0
H2369 H 0.90589 0.91356 0.21584 0.0
H2370 H 0.91097 0.98335 0.16577 0.0
H2371 H 0.8704 0.9331 0.20391 0.0
H2372 H 0.82743 0.94103 0.13458 0.0
H2373 H 0.85578 0.93102 0.16417 0.0
H2374 H 0.87329 0.00361 0.17201 0.0
H2375 H 0.84463 0.01336 0.14188 0.0
C2376 C 0.93009 0.95758 0.18444 0.0
C2377 C 0.92902 0.93695 0.19742 0.0
C2378 C 0.90966 0.96868 0.17745 0.0
C2379 C 0.88787 0.95944 0.1835 0.0
C2380 C 0.88695 0.94032 0.19859 0.0
C2381 C 0.9073 0.92909 0.20535 0.0
C2382 C 0.83682 0.95485 0.14324 0.0
C2383 C 0.834 0.97792 0.13626 0.0
C2384 C 0.85294 0.9492 0.16031 0.0
C2385 C 0.86688 0.96653 0.17039 0.0
C2386 C 0.86284 0.9899 0.16449 0.0
C2387 C 0.84638 0.99554 0.14752 0.0
H2388 H 0.18902 0.57393 0.61656 0.0
H2389 H 0.26179 0.58973 0.60913 0.0
H2390 H 0.17923 0.6058 0.59056 0.0
H2391 H 0.2521 0.62225 0.58311 0.0
H2392 H 0.21245 0.69679 0.57849 0.0
H2393 H 0.23045 0.66082 0.5925 0.0
H2394 H 0.18359 0.62084 0.54979 0.0
H2395 H 0.16552 0.65652 0.53629 0.0
C2396 C 0.20293 0.58394 0.60879 0.0
C2397 C 0.22611 0.57943 0.61453 0.0
C2398 C 0.19739 0.60214 0.59387 0.0
C2399 C 0.21492 0.61655 0.58485 0.0
C2400 C 0.23828 0.61142 0.58985 0.0
C2401 C 0.24384 0.59276 0.60446 0.0
C2402 C 0.20632 0.68032 0.57182 0.0
C2403 C 0.1871 0.67938 0.55683 0.0
C2404 C 0.21674 0.65976 0.57967 0.0
C2405 C 0.20815 0.63805 0.57247 0.0
C2406 C 0.1903 0.63731 0.55594 0.0
C2407 C 0.17987 0.65773 0.54829 0.0
H2408 H 0.05464 0.46678 0.29899 0.0
H2409 H 0.09084 0.40108 0.29549 0.0
H2410 H 0.08828 0.48392 0.31877 0.0
H2411 H 0.12396 0.41829 0.31535 0.0
H2412 H 0.13795 0.45249 0.39247 0.0
H2413 H 0.10898 0.44205 0.36359 0.0
H2414 H 0.14677 0.48008 0.31136 0.0
H2415 H 0.17651 0.49027 0.34037 0.0
C2416 C 0.06986 0.45615 0.30195 0.0
C2417 C 0.06982 0.43242 0.29614 0.0
C2418 C 0.08912 0.46603 0.31306 0.0
C2419 C 0.10852 0.45233 0.31843 0.0
C2420 C 0.10919 0.42917 0.31112 0.0
C2421 C 0.09012 0.41934 0.2999 0.0
C2422 C 0.1402 0.45871 0.37488 0.0
C2423 C 0.15951 0.47229 0.36871 0.0
C2424 C 0.12355 0.4528 0.35843 0.0
C2425 C 0.12575 0.46037 0.33547 0.0
C2426 C 0.14475 0.47425 0.32912 0.0
C2427 C 0.16163 0.48012 0.34568 0.0
H2428 H 0.40083 0.58517 0.78465 0.0
H2429 H 0.44002 0.53105 0.81888 0.0
H2430 H 0.36482 0.56784 0.79848 0.0
H2431 H 0.40398 0.51398 0.83295 0.0
H2432 H 0.33544 0.48548 0.85488 0.0
H2433 H 0.36494 0.49591 0.82601 0.0
H2434 H 0.35191 0.56852 0.83954 0.0
H2435 H 0.32243 0.55795 0.86786 0.0
C2436 C 0.40179 0.56938 0.7948 0.0
C2437 C 0.42335 0.55989 0.80125 0.0
C2438 C 0.38113 0.55944 0.80266 0.0
C2439 C 0.38162 0.53982 0.81712 0.0
C2440 C 0.40304 0.52908 0.82178 0.0
C2441 C 0.42373 0.53901 0.81389 0.0
C2442 C 0.33828 0.50358 0.85084 0.0
C2443 C 0.32661 0.52093 0.86326 0.0
C2444 C 0.35532 0.50957 0.83459 0.0
C2445 C 0.36072 0.53303 0.83049 0.0
C2446 C 0.34794 0.55031 0.84201 0.0
C2447 C 0.3312 0.5443 0.85838 0.0
H2448 H 0.85241 0.68535 0.57749 0.0
H2449 H 0.89643 0.74589 0.572 0.0
H2450 H 0.87709 0.6702 0.60832 0.0
H2451 H 0.92127 0.73042 0.60307 0.0
H2452 H 0.96249 0.66489 0.64725 0.0
H2453 H 0.9447 0.68117 0.6119 0.0
H2454 H 0.88373 0.69962 0.65121 0.0
H2455 H 0.90163 0.68416 0.68647 0.0
C2456 C 0.86749 0.69533 0.58268 0.0
C2457 C 0.87227 0.71703 0.57261 0.0
C2458 C 0.88164 0.68655 0.6002 0.0
C2459 C 0.90088 0.69924 0.60794 0.0
C2460 C 0.90654 0.72034 0.59714 0.0
C2461 C 0.89231 0.72918 0.57949 0.0
C2462 C 0.94541 0.67269 0.64826 0.0
C2463 C 0.93335 0.67337 0.66946 0.0
C2464 C 0.93536 0.68204 0.62818 0.0
C2465 C 0.91297 0.69159 0.62909 0.0
C2466 C 0.9011 0.69245 0.65029 0.0
C2467 C 0.91132 0.68367 0.67038 0.0
H2468 H 0.07707 0.2135 0.40533 0.0
H2469 H 0.0381 0.16613 0.44838 0.0
H2470 H 0.05754 0.19836 0.37096 0.0
H2471 H 0.01934 0.15023 0.4141 0.0
H2472 H 0.98352 0.12642 0.35062 0.0
H2473 H 0.99406 0.1533 0.38179 0.0
H2474 H 0.06138 0.16324 0.34997 0.0
H2475 H 0.05029 0.13703 0.31871 0.0
C2476 C 0.06427 0.19988 0.40743 0.0
C2477 C 0.05946 0.19066 0.42947 0.0
C2478 C 0.0531 0.19117 0.38774 0.0
C2479 C 0.03713 0.17276 0.38963 0.0
C2480 C 0.03134 0.16453 0.4119 0.0
C2481 C 0.04226 0.17351 0.4316 0.0
C2482 C 0.00024 0.13506 0.35006 0.0
C2483 C 0.01603 0.1301 0.33229 0.0
C2484 C 0.00641 0.15021 0.36798 0.0
C2485 C 0.02868 0.16033 0.36859 0.0
C2486 C 0.04398 0.15612 0.35 0.0
C2487 C 0.03773 0.14104 0.33211 0.0
H2488 H 0.53907 0.27583 0.18635 0.0
H2489 H 0.54714 0.33961 0.14766 0.0
H2490 H 0.55375 0.25394 0.15323 0.0
H2491 H 0.56149 0.31765 0.11456 0.0
H2492 H 0.589 0.27375 0.05739 0.0
H2493 H 0.55719 0.28479 0.08368 0.0
H2494 H 0.59647 0.25794 0.14167 0.0
H2495 H 0.62816 0.24782 0.11566 0.0
C2496 C 0.54347 0.28514 0.17062 0.0
C2497 C 0.5425 0.30953 0.16982 0.0
C2498 C 0.55167 0.27257 0.15162 0.0
C2499 C 0.55898 0.28413 0.13146 0.0
C2500 C 0.5558 0.30826 0.12982 0.0
C2501 C 0.54772 0.32087 0.14887 0.0
C2502 C 0.59034 0.26965 0.07569 0.0
C2503 C 0.61091 0.26027 0.08475 0.0
C2504 C 0.57225 0.27595 0.09067 0.0
C2505 C 0.57445 0.27232 0.11471 0.0
C2506 C 0.59419 0.26079 0.12324 0.0
C2507 C 0.6124 0.25514 0.10842 0.0
H2508 H 0.40575 0.79803 0.90269 0.0
H2509 H 0.4691 0.79943 0.94307 0.0
H2510 H 0.42636 0.81538 0.87003 0.0
H2511 H 0.48947 0.8171 0.91026 0.0
H2512 H 0.4799 0.83894 0.81275 0.0
H2513 H 0.46992 0.8093 0.84198 0.0
H2514 H 0.47049 0.86195 0.89514 0.0
H2515 H 0.47947 0.89142 0.8661 0.0
C2516 C 0.42417 0.80144 0.90444 0.0
C2517 C 0.43566 0.79784 0.92569 0.0
C2518 C 0.43597 0.81117 0.88564 0.0
C2519 C 0.45942 0.81743 0.88775 0.0
C2520 C 0.47137 0.81229 0.90832 0.0
C2521 C 0.45963 0.80241 0.9271 0.0
C2522 C 0.47838 0.84393 0.83078 0.0
C2523 C 0.48016 0.86735 0.83727 0.0
C2524 C 0.4727 0.82709 0.84739 0.0
C2525 C 0.46958 0.8335 0.87068 0.0
C2526 C 0.47306 0.85664 0.8773 0.0
C2527 C 0.47803 0.87346 0.8607 0.0
H2528 H 0.87439 0.23573 0.89222 0.0
H2529 H 0.88749 0.29483 0.93599 0.0
H2530 H 0.90252 0.25018 0.8641 0.0
H2531 H 0.91675 0.30888 0.90875 0.0
H2532 H 0.93022 0.34581 0.83949 0.0
H2533 H 0.91411 0.32754 0.87365 0.0
H2534 H 0.93862 0.26074 0.84965 0.0
H2535 H 0.95348 0.27922 0.81444 0.0
C2536 C 0.88398 0.25145 0.89608 0.0
C2537 C 0.87879 0.26439 0.91593 0.0
C2538 C 0.90024 0.25974 0.88007 0.0
C2539 C 0.91166 0.28109 0.88376 0.0
C2540 C 0.90782 0.29281 0.90487 0.0
C2541 C 0.89128 0.28469 0.92063 0.0
C2542 C 0.93247 0.32727 0.84166 0.0
C2543 C 0.94272 0.31388 0.82414 0.0
C2544 C 0.92339 0.31671 0.86145 0.0
C2545 C 0.9248 0.29249 0.86453 0.0
C2546 C 0.93662 0.27932 0.84766 0.0
C2547 C 0.94524 0.28988 0.82753 0.0
H2548 H 0.43707 0.12626 0.6673 0.0
H2549 H 0.50941 0.1399 0.65398 0.0
H2550 H 0.42608 0.15477 0.63814 0.0
H2551 H 0.49857 0.16872 0.62445 0.0
H2552 H 0.46282 0.17421 0.54941 0.0
H2553 H 0.48025 0.16095 0.58558 0.0
H2554 H 0.42625 0.19554 0.62431 0.0
H2555 H 0.40855 0.20855 0.58815 0.0
C2556 C 0.45061 0.13597 0.65855 0.0
C2557 C 0.47405 0.13108 0.66281 0.0
C2558 C 0.44436 0.15241 0.64195 0.0
C2559 C 0.46147 0.16394 0.6289 0.0
C2560 C 0.48502 0.16005 0.6342 0.0
C2561 C 0.49125 0.14381 0.6512 0.0
C2562 C 0.45488 0.17937 0.56563 0.0
C2563 C 0.43386 0.19177 0.56586 0.0
C2564 C 0.46503 0.17196 0.5864 0.0
C2565 C 0.4544 0.17689 0.60778 0.0
C2566 C 0.43458 0.19111 0.60806 0.0
C2567 C 0.4244 0.19846 0.58733 0.0
H2568 H 0.61552 0.6866 0.4186 0.0
H2569 H 0.60978 0.759 0.40077 0.0
H2570 H 0.58806 0.67669 0.38801 0.0
H2571 H 0.58223 0.7492 0.36963 0.0
H2572 H 0.57515 0.70915 0.29652 0.0
H2573 H 0.58971 0.72727 0.33195 0.0
H2574 H 0.54759 0.68078 0.37299 0.0
H2575 H 0.53327 0.66244 0.3377 0.0
C2576 C 0.60781 0.70043 0.40844 0.0
C2577 C 0.61448 0.72351 0.41198 0.0
C2578 C 0.59201 0.69483 0.391 0.0
C2579 C 0.583 0.71217 0.37638 0.0
C2580 C 0.58891 0.73549 0.38063 0.0
C2581 C 0.60443 0.74113 0.3985 0.0
C2582 C 0.56864 0.7031 0.31308 0.0
C2583 C 0.55362 0.68389 0.31434 0.0
C2584 C 0.57684 0.71362 0.33338 0.0
C2585 C 0.57005 0.70518 0.35524 0.0
C2586 C 0.55344 0.68735 0.35638 0.0
C2587 C 0.54534 0.67679 0.33616 0.0
H2588 H 0.025 0.7942 0.05438 0.0
H2589 H 0.0909 0.80169 0.08937 0.0
H2590 H 0.005 0.80818 0.08905 0.0
H2591 H 0.07126 0.8167 0.12339 0.0
H2592 H 0.03455 0.84362 0.18394 0.0
H2593 H 0.04604 0.81384 0.15588 0.0
H2594 H 0.00199 0.84619 0.10432 0.0
H2595 H 0.99058 0.87545 0.13249 0.0
C2596 C 0.03516 0.79863 0.06957 0.0
C2597 C 0.0595 0.79724 0.06907 0.0
C2598 C 0.02375 0.80667 0.08941 0.0
C2599 C 0.03649 0.81396 0.10894 0.0
C2600 C 0.06076 0.81101 0.10888 0.0
C2601 C 0.0721 0.80257 0.08924 0.0
C2602 C 0.02682 0.84371 0.1668 0.0
C2603 C 0.01184 0.86167 0.16012 0.0
C2604 C 0.03349 0.82684 0.15068 0.0
C2605 C 0.02528 0.8278 0.12766 0.0
C2606 C 0.00863 0.84473 0.12183 0.0
C2607 C 0.00213 0.86161 0.13789 0.0
H2608 H 0.67667 0.95227 0.70707 0.0
H2609 H 0.64267 0.93571 0.64245 0.0
H2610 H 0.64232 0.93969 0.72843 0.0
H2611 H 0.60859 0.92217 0.6638 0.0
H2612 H 0.54978 0.89609 0.70698 0.0
H2613 H 0.57564 0.92612 0.69109 0.0
H2614 H 0.63184 0.89918 0.733 0.0
H2615 H 0.60611 0.86942 0.74838 0.0
C2616 C 0.66163 0.9463 0.69745 0.0
C2617 C 0.66244 0.94432 0.6732 0.0
C2618 C 0.64199 0.93912 0.70965 0.0
C2619 C 0.623 0.92934 0.69786 0.0
C2620 C 0.62291 0.92963 0.67343 0.0
C2621 C 0.64247 0.93724 0.66117 0.0
C2622 C 0.56752 0.89722 0.71317 0.0
C2623 C 0.57618 0.88067 0.72878 0.0
C2624 C 0.58231 0.91424 0.70405 0.0
C2625 C 0.60582 0.915 0.7107 0.0
C2626 C 0.6138 0.89934 0.72768 0.0
C2627 C 0.59917 0.88219 0.73644 0.0
H2628 H 0.83982 0.8144 0.47518 0.0
H2629 H 0.87762 0.87208 0.504 0.0
H2630 H 0.80812 0.84059 0.46397 0.0
H2631 H 0.84652 0.89827 0.49286 0.0
H2632 H 0.794 0.94504 0.47004 0.0
H2633 H 0.80692 0.91243 0.49362 0.0
H2634 H 0.80979 0.86937 0.43239 0.0
H2635 H 0.796 0.9017 0.40895 0.0
C2636 C 0.84077 0.83251 0.48003 0.0
C2637 C 0.86092 0.84138 0.4904 0.0
C2638 C 0.82283 0.84754 0.47342 0.0
C2639 C 0.82489 0.87157 0.47728 0.0
C2640 C 0.84419 0.87989 0.48976 0.0
C2641 C 0.86213 0.86495 0.49603 0.0
C2642 C 0.7969 0.92848 0.46167 0.0
C2643 C 0.79478 0.92617 0.43749 0.0
C2644 C 0.80422 0.90977 0.47522 0.0
C2645 C 0.80995 0.88849 0.46482 0.0
C2646 C 0.80552 0.88551 0.441 0.0
C2647 C 0.7979 0.90417 0.42747 0.0
H2648 H 0.79944 0.04694 0.22035 0.0
H2649 H 0.84017 0.05071 0.15753 0.0
H2650 H 0.83295 0.06072 0.24261 0.0
H2651 H 0.8735 0.06378 0.17973 0.0
H2652 H 0.9326 0.08586 0.22214 0.0
H2653 H 0.90317 0.05655 0.21222 0.0
H2654 H 0.8496 0.10144 0.23932 0.0
H2655 H 0.87879 0.13061 0.24853 0.0
C2656 C 0.81562 0.05027 0.21135 0.0
C2657 C 0.81709 0.04789 0.18713 0.0
C2658 C 0.83481 0.05794 0.22412 0.0
C2659 C 0.85584 0.06322 0.21291 0.0
C2660 C 0.8577 0.0594 0.18894 0.0
C2661 C 0.8385 0.052 0.17618 0.0
C2662 C 0.9146 0.08893 0.22667 0.0
C2663 C 0.9077 0.11039 0.23578 0.0
C2664 C 0.89781 0.07228 0.22098 0.0
C2665 C 0.8741 0.07685 0.22481 0.0
C2666 C 0.86771 0.09735 0.23629 0.0
C2667 C 0.88435 0.11411 0.24144 0.0
H2668 H 0.64924 0.18068 0.9595 0.0
H2669 H 0.6248 0.13255 0.01123 0.0
H2670 H 0.67459 0.15081 0.94347 0.0
H2671 H 0.65124 0.10299 -0.00355 0.0
H2672 H 0.65636 0.05014 0.93819 0.0
H2673 H 0.64396 0.08201 0.96241 0.0
H2674 H 0.70415 0.12178 0.94129 0.0
H2675 H 0.71595 0.08972 0.91584 0.0
C2676 C 0.65027 0.16399 0.96812 0.0
C2677 C 0.63508 0.15861 0.98631 0.0
C2678 C 0.6648 0.14686 0.959 0.0
C2679 C 0.66429 0.1242 0.96812 0.0
C2680 C 0.65137 0.12 0.98845 0.0
C2681 C 0.63646 0.13694 -0.00285 0.0
C2682 C 0.66698 0.06567 0.93876 0.0
C2683 C 0.68699 0.06757 0.92511 0.0
C2684 C 0.6601 0.08388 0.95296 0.0
C2685 C 0.67331 0.10438 0.95429 0.0
C2686 C 0.69354 0.10626 0.94067 0.0
C2687 C 0.70024 0.08802 0.92604 0.0
H2688 H 0.6093 0.1149 0.72345 0.0
H2689 H 0.57528 0.09704 0.78751 0.0
H2690 H 0.64057 0.08742 0.73223 0.0
H2691 H 0.6067 0.07041 0.79703 0.0
H2692 H 0.66356 0.02265 0.81214 0.0
H2693 H 0.62945 0.03669 0.79123 0.0
H2694 H 0.67185 0.08957 0.75887 0.0
H2695 H 0.70578 0.07496 0.7794 0.0
C2696 C 0.60829 0.10455 0.73911 0.0
C2697 C 0.58994 0.10768 0.75472 0.0
C2698 C 0.62626 0.08902 0.7443 0.0
C2699 C 0.6264 0.07686 0.7655 0.0
C2700 C 0.60714 0.07913 0.7804 0.0
C2701 C 0.58913 0.09445 0.77506 0.0
C2702 C 0.66548 0.03709 0.80036 0.0
C2703 C 0.68703 0.04821 0.798 0.0
C2704 C 0.64601 0.04513 0.78831 0.0
C2705 C 0.64769 0.06468 0.77377 0.0
C2706 C 0.66979 0.07446 0.76984 0.0
C2707 C 0.68929 0.06619 0.78174 0.0
H2708 H 0.69568 0.90339 0.57829 0.0
H2709 H 0.68666 0.94818 0.51872 0.0
H2710 H 0.6806 0.87089 0.55636 0.0
H2711 H 0.67165 0.91519 0.49656 0.0
H2712 H 0.60523 0.86599 0.49389 0.0
H2713 H 0.63345 0.89603 0.50301 0.0
H2714 H 0.68317 0.84342 0.52283 0.0
H2715 H 0.6546 0.81315 0.51323 0.0
C2716 C 0.6908 0.90628 0.56037 0.0
C2717 C 0.69166 0.92862 0.55049 0.0
C2718 C 0.68247 0.88746 0.54768 0.0
C2719 C 0.67474 0.89051 0.52479 0.0
C2720 C 0.67723 0.91243 0.5143 0.0
C2721 C 0.68569 0.93133 0.52701 0.0
C2722 C 0.62244 0.86088 0.49956 0.0
C2723 C 0.62782 0.83744 0.50311 0.0
C2724 C 0.63869 0.87805 0.50459 0.0
C2725 C 0.66049 0.87211 0.51378 0.0
C2726 C 0.66645 0.84848 0.51583 0.0
C2727 C 0.65023 0.83119 0.51029 0.0
H2728 H 0.82541 0.91582 0.33985 0.0
H2729 H 0.81725 0.9642 0.28324 0.0
H2730 H 0.85633 0.89613 0.31874 0.0
H2731 H 0.84911 0.9447 0.26218 0.0
H2732 H 0.92925 0.90432 0.26136 0.0
H2733 H 0.89878 0.93124 0.27479 0.0
H2734 H 0.84922 0.87505 0.27457 0.0
H2735 H 0.87932 0.84837 0.26158 0.0
C2736 C 0.83067 0.92254 0.32309 0.0
C2737 C 0.81907 0.94142 0.31309 0.0
C2738 C 0.84825 0.91127 0.31103 0.0
C2739 C 0.85493 0.91897 0.28893 0.0
C2740 C 0.84415 0.93855 0.27923 0.0
C2741 C 0.826 0.94957 0.29116 0.0
C2742 C 0.9117 0.89798 0.26372 0.0
C2743 C 0.90662 0.87428 0.26102 0.0
C2744 C 0.89434 0.91332 0.27124 0.0
C2745 C 0.87187 0.90499 0.27588 0.0
C2746 C 0.86651 0.88173 0.27129 0.0
C2747 C 0.88374 0.86649 0.26402 0.0
H2748 H 0.87067 0.13432 0.98512 0.0
H2749 H 0.85634 0.17855 0.04356 0.0
H2750 H 0.84323 0.1056 -0.00017 0.0
H2751 H 0.82802 0.15048 0.05805 0.0
H2752 H 0.81843 0.08125 0.09584 0.0
H2753 H 0.83399 0.11521 0.07669 0.0
H2754 H 0.8069 0.09066 0.0111 0.0
H2755 H 0.79247 0.05558 0.03049 0.0
C2756 C 0.86098 0.13809 0.00077 0.0
C2757 C 0.86559 0.15824 0.01348 0.0
C2758 C 0.84514 0.12177 0.00917 0.0
C2759 C 0.83378 0.1254 0.03049 0.0
C2760 C 0.83695 0.14677 0.04195 0.0
C2761 C 0.85294 0.16296 0.03362 0.0
C2762 C 0.81556 0.08325 0.07737 0.0
C2763 C 0.8045 0.06579 0.06457 0.0
C2764 C 0.82427 0.1029 0.06635 0.0
C2765 C 0.82165 0.10587 0.04227 0.0
C2766 C 0.80957 0.08878 0.02959 0.0
C2767 C 0.80129 0.06875 0.04063 0.0
H2768 H 0.71756 0.68982 0.95203 0.0
H2769 H 0.65261 0.653 0.94449 0.0
H2770 H 0.7386 0.65533 0.93947 0.0
H2771 H 0.67347 0.61895 0.93099 0.0
H2772 H 0.71199 0.55982 0.90362 0.0
H2773 H 0.70045 0.5871 0.93417 0.0
H2774 H 0.74124 0.64073 0.90095 0.0
H2775 H 0.75259 0.61347 0.87094 0.0
C2776 C 0.70779 0.6743 0.94787 0.0
C2777 C 0.68339 0.67435 0.94855 0.0
C2778 C 0.71985 0.65452 0.94073 0.0
C2779 C 0.70774 0.63451 0.9337 0.0
C2780 C 0.68344 0.63396 0.93635 0.0
C2781 C 0.67141 0.65363 0.94383 0.0
C2782 C 0.7191 0.57724 0.90355 0.0
C2783 C 0.733 0.58481 0.88509 0.0
C2784 C 0.71238 0.59289 0.92086 0.0
C2785 C 0.71957 0.61625 0.91983 0.0
C2786 C 0.73543 0.62293 0.90248 0.0
C2787 C 0.74189 0.60738 0.88516 0.0
H2788 H 0.23002 0.92797 0.08999 0.0
H2789 H 0.22253 0.8846 0.15062 0.0
H2790 H 0.21542 0.89597 0.06559 0.0
H2791 H 0.2089 0.85282 0.12654 0.0
H2792 H 0.15357 0.81625 0.08548 0.0
H2793 H 0.17127 0.84903 0.10546 0.0
H2794 H 0.2242 0.85317 0.05251 0.0
H2795 H 0.20629 0.81977 0.03251 0.0
C2796 C 0.22559 0.91152 0.09797 0.0
C2797 C 0.22685 0.90878 0.12216 0.0
C2798 C 0.21737 0.89326 0.08407 0.0
C2799 C 0.21063 0.8721 0.09428 0.0
C2800 C 0.21335 0.86913 0.11829 0.0
C2801 C 0.22115 0.88731 0.13207 0.0
C2802 C 0.16898 0.82419 0.07815 0.0
C2803 C 0.17889 0.81542 0.05782 0.0
C2804 C 0.17915 0.84287 0.08955 0.0
C2805 C 0.19931 0.85342 0.0807 0.0
C2806 C 0.20875 0.84524 0.05975 0.0
C2807 C 0.19871 0.82612 0.04847 0.0
H2808 H 0.81023 0.47661 0.83694 0.0
H2809 H 0.86632 0.49531 0.88289 0.0
H2810 H 0.83867 0.46431 0.80752 0.0
H2811 H 0.89453 0.48405 0.85347 0.0
H2812 H 0.90077 0.40587 0.79987 0.0
H2813 H 0.86814 0.42819 0.81494 0.0
H2814 H 0.90862 0.49103 0.80996 0.0
H2815 H 0.94142 0.46881 0.79476 0.0
C2816 C 0.8286 0.47886 0.84033 0.0
C2817 C 0.8363 0.48663 0.86206 0.0
C2818 C 0.84479 0.47184 0.82361 0.0
C2819 C 0.86872 0.47325 0.82832 0.0
C2820 C 0.8762 0.483 0.84933 0.0
C2821 C 0.86012 0.48932 0.86619 0.0
C2822 C 0.90258 0.42452 0.80141 0.0
C2823 C 0.9239 0.43549 0.79669 0.0
C2824 C 0.88379 0.43732 0.80982 0.0
C2825 C 0.88597 0.46128 0.81363 0.0
C2826 C 0.90662 0.47253 0.80724 0.0
C2827 C 0.92541 0.45977 0.79876 0.0
H2828 H 0.33964 0.14819 0.54721 0.0
H2829 H 0.27666 0.18906 0.54659 0.0
H2830 H 0.31824 0.11564 0.56383 0.0
H2831 H 0.25561 0.15658 0.56408 0.0
H2832 H 0.26354 0.05887 0.58664 0.0
H2833 H 0.27496 0.08774 0.55711 0.0
H2834 H 0.27275 0.14155 0.60905 0.0
H2835 H 0.26236 0.11291 0.63841 0.0
C2836 C 0.32114 0.15005 0.54993 0.0
C2837 C 0.30995 0.17136 0.54579 0.0
C2838 C 0.3089 0.13134 0.55937 0.0
C2839 C 0.28534 0.13369 0.56506 0.0
C2840 C 0.27376 0.15441 0.55965 0.0
C2841 C 0.28591 0.17303 0.54989 0.0
C2842 C 0.26506 0.07696 0.59148 0.0
C2843 C 0.26236 0.08376 0.61471 0.0
C2844 C 0.27156 0.09337 0.5747 0.0
C2845 C 0.2746 0.11675 0.58095 0.0
C2846 C 0.27027 0.12365 0.60383 0.0
C2847 C 0.26448 0.10727 0.62061 0.0
H2848 H 0.0821 0.06796 0.77054 0.0
H2849 H 0.04107 0.03496 0.82356 0.0
H2850 H 0.11648 0.04678 0.78354 0.0
H2851 H 0.07528 0.01406 0.83708 0.0
H2852 H 0.13701 0.97673 0.85943 0.0
H2853 H 0.10597 0.98635 0.83196 0.0
H2854 H 0.13985 0.05181 0.81742 0.0
H2855 H 0.17091 0.04164 0.84419 0.0
C2856 C 0.08056 0.05618 0.785 0.0
C2857 C 0.05927 0.05365 0.79652 0.0
C2858 C 0.10012 0.04391 0.79235 0.0
C2859 C 0.09875 0.02895 0.81157 0.0
C2860 C 0.07697 0.02523 0.82207 0.0
C2861 C 0.05738 0.03737 0.8145 0.0
C2862 C 0.13813 0.99269 0.84953 0.0
C2863 C 0.15619 0.00845 0.85356 0.0
C2864 C 0.12032 -0.00167 0.83403 0.0
C2865 C 0.12018 0.02003 0.82281 0.0
C2866 C 0.13944 0.03486 0.82554 0.0
C2867 C 0.15724 0.02913 0.8409 0.0
H2868 H 0.79486 0.42892 0.38783 0.0
H2869 H 0.73236 0.39188 0.36995 0.0
H2870 H 0.80617 0.39765 0.41398 0.0
H2871 H 0.74303 0.36065 0.39671 0.0
H2872 H 0.79181 0.29755 0.4076 0.0
H2873 H 0.77143 0.33133 0.39291 0.0
H2874 H 0.80237 0.37343 0.44678 0.0
H2875 H 0.82392 0.33968 0.46052 0.0
C2876 C 0.78321 0.41432 0.39021 0.0
C2877 C 0.76291 0.41251 0.37701 0.0
C2878 C 0.78955 0.39644 0.40526 0.0
C2879 C 0.77573 0.37635 0.40717 0.0
C2880 C 0.75435 0.37561 0.39528 0.0
C2881 C 0.74808 0.39352 0.38017 0.0
C2882 C 0.79398 0.31394 0.41654 0.0
C2883 C 0.80964 0.31601 0.4351 0.0
C2884 C 0.7821 0.33334 0.40825 0.0
C2885 C 0.78524 0.35523 0.4186 0.0
C2886 C 0.79985 0.35695 0.43811 0.0
C2887 C 0.81215 0.3376 0.44608 0.0
H2888 H 0.94619 0.52714 0.66831 0.0
H2889 H 0.90489 0.57474 0.70856 0.0
H2890 H 0.91067 0.50991 0.65267 0.0
H2891 H 0.86956 0.5574 0.69336 0.0
H2892 H 0.82745 0.5543 0.62296 0.0
H2893 H 0.85821 0.56288 0.65078 0.0
H2894 H 0.87057 0.48948 0.66003 0.0
H2895 H 0.83929 0.48105 0.63214 0.0
C2896 C 0.92958 0.53352 0.67437 0.0
C2897 C 0.92832 0.55281 0.68926 0.0
C2898 C 0.90925 0.52352 0.66553 0.0
C2899 C 0.88743 0.53264 0.67154 0.0
C2900 C 0.88619 0.55031 0.68818 0.0
C2901 C 0.90643 0.56028 0.69688 0.0
C2902 C 0.83638 0.54006 0.63141 0.0
C2903 C 0.831 0.51706 0.62584 0.0
C2904 C 0.85386 0.5449 0.64739 0.0
C2905 C 0.86665 0.52681 0.65764 0.0
C2906 C 0.86085 0.5037 0.65247 0.0
C2907 C 0.84292 0.49887 0.63679 0.0
H2908 H 0.66936 0.45771 0.14449 0.0
H2909 H 0.63074 0.52041 0.13159 0.0
H2910 H 0.63904 0.44402 0.17034 0.0
H2911 H 0.60066 0.50762 0.15872 0.0
H2912 H 0.53811 0.45769 0.16716 0.0
H2913 H 0.57125 0.48036 0.1543 0.0
H2914 H 0.61534 0.44335 0.20263 0.0
H2915 H 0.58231 0.41961 0.21416 0.0
C2916 C 0.65474 0.46898 0.14813 0.0
C2917 C 0.65214 0.48996 0.13623 0.0
C2918 C 0.63732 0.46125 0.16304 0.0
C2919 C 0.61701 0.47447 0.16633 0.0
C2920 C 0.61569 0.49665 0.15607 0.0
C2921 C 0.63297 0.50416 0.1408 0.0
C2922 C 0.55487 0.45457 0.17513 0.0
C2923 C 0.55778 0.43655 0.19122 0.0
C2924 C 0.57391 0.46779 0.168 0.0
C2925 C 0.5962 0.4636 0.17721 0.0
C2926 C 0.59863 0.44668 0.19466 0.0
C2927 C 0.5797 0.43308 0.20133 0.0
H2928 H 0.59325 0.77683 0.93495 0.0
H2929 H 0.6341 0.74952 0.87861 0.0
H2930 H 0.56372 0.7902 0.90706 0.0
H2931 H 0.60466 0.76208 0.85096 0.0
H2932 H 0.54654 0.77852 0.80489 0.0
H2933 H 0.56308 0.75795 0.83795 0.0
H2934 H 0.56736 0.82232 0.87593 0.0
H2935 H 0.55055 0.843 0.84292 0.0
C2936 C 0.59547 0.77307 0.91668 0.0
C2937 C 0.61581 0.76232 0.90871 0.0
C2938 C 0.57872 0.78078 0.90077 0.0
C2939 C 0.58194 0.77723 0.87684 0.0
C2940 C 0.60157 0.7649 0.86927 0.0
C2941 C 0.61848 0.75779 0.88503 0.0
C2942 C 0.55072 0.78829 0.82038 0.0
C2943 C 0.54789 0.81252 0.82103 0.0
C2944 C 0.56007 0.77645 0.83935 0.0
C2945 C 0.56681 0.78858 0.85936 0.0
C2946 C 0.56221 0.8125 0.86077 0.0
C2947 C 0.55278 0.82438 0.84177 0.0
H2948 H 0.46164 0.31978 0.04898 0.0
H2949 H 0.41618 0.27565 0.08914 0.0
H2950 H 0.47966 0.33368 0.08464 0.0
H2951 H 0.43459 0.28909 0.12474 0.0
H2952 H 0.43639 0.35652 0.17089 0.0
H2953 H 0.4286 0.328 0.14079 0.0
H2954 H 0.50119 0.32849 0.12161 0.0
H2955 H 0.50874 0.35743 0.15197 0.0
C2956 C 0.45598 0.31254 0.06537 0.0
C2957 C 0.437 0.29725 0.06635 0.0
C2958 C 0.46644 0.32035 0.08582 0.0
C2959 C 0.45819 0.31284 0.10753 0.0
C2960 C 0.44093 0.2956 0.10828 0.0
C2961 C 0.43035 0.28797 0.0879 0.0
C2962 C 0.45075 0.34995 0.16069 0.0
C2963 C 0.47317 0.35881 0.16374 0.0
C2964 C 0.44638 0.3335 0.14355 0.0
C2965 C 0.4643 0.32595 0.1288 0.0
C2966 C 0.48706 0.33397 0.13273 0.0
C2967 C 0.49146 0.35026 0.15019 0.0
H2968 H 0.89127 0.19809 0.41788 0.0
H2969 H 0.88895 0.26711 0.3894 0.0
H2970 H 0.92126 0.18742 0.39036 0.0
H2971 H 0.91988 0.257 0.36199 0.0
H2972 H 0.92593 0.21152 0.29426 0.0
H2973 H 0.91439 0.23308 0.32848 0.0
H2974 H 0.95759 0.18878 0.37103 0.0
H2975 H 0.96819 0.16659 0.33668 0.0
C2976 C 0.89804 0.21125 0.40626 0.0
C2977 C 0.88801 0.23331 0.40546 0.0
C2978 C 0.91538 0.20527 0.39057 0.0
C2979 C 0.92271 0.22124 0.3736 0.0
C2980 C 0.91431 0.24419 0.37457 0.0
C2981 C 0.89688 0.25012 0.39035 0.0
C2982 C 0.93326 0.20661 0.31087 0.0
C2983 C 0.94737 0.18686 0.31297 0.0
C2984 C 0.9269 0.2192 0.33052 0.0
C2985 C 0.93477 0.21245 0.35264 0.0
C2986 C 0.95078 0.19411 0.35434 0.0
C2987 C 0.9568 0.18132 0.33472 0.0
H2988 H 0.08897 0.69503 0.59641 0.0
H2989 H 0.02784 0.70279 0.55355 0.0
H2990 H 0.06488 0.68132 0.62821 0.0
H2991 H 0.0037 0.68896 0.58551 0.0
H2992 H 0.99491 0.61476 0.62234 0.0
H2993 H 0.00569 0.64707 0.59739 0.0
H2994 H 0.03145 0.68464 0.65696 0.0
H2995 H 0.02005 0.6521 0.68204 0.0
C2996 C 0.07032 0.69455 0.59401 0.0
C2997 C 0.06037 0.69935 0.57228 0.0
C2998 C 0.05646 0.68686 0.61233 0.0
C2999 C 0.03245 0.68376 0.6092 0.0
C3000 C 0.02222 0.69091 0.58826 0.0
C3001 C 0.03607 0.69861 0.56993 0.0
C3002 C 0.00206 0.63032 0.63013 0.0
C3003 C 0.00684 0.63109 0.65389 0.0
C3004 C 0.00808 0.64891 0.61593 0.0
C3005 C 0.01961 0.66831 0.62522 0.0
C3006 C 0.02264 0.66986 0.64938 0.0
C3007 C 0.01607 0.65136 0.6637 0.0
H3008 H 0.54369 0.21611 0.69402 0.0
H3009 H 0.54856 0.15608 0.64943 0.0
H3010 H 0.55556 0.24097 0.66185 0.0
H3011 H 0.56056 0.18085 0.61746 0.0
H3012 H 0.58668 0.22666 0.56281 0.0
H3013 H 0.55597 0.2139 0.58954 0.0
H3014 H 0.59579 0.24082 0.64715 0.0
H3015 H 0.6261 0.25319 0.62058 0.0
C3016 C 0.54689 0.20826 0.67726 0.0
C3017 C 0.54581 0.18405 0.6744 0.0
C3018 C 0.5535 0.22253 0.65882 0.0
C3019 C 0.55935 0.21283 0.63725 0.0
C3020 C 0.55603 0.1889 0.63381 0.0
C3021 C 0.54935 0.17464 0.65223 0.0
C3022 C 0.58825 0.23055 0.58112 0.0
C3023 C 0.6086 0.24068 0.58985 0.0
C3024 C 0.57082 0.22319 0.59638 0.0
C3025 C 0.57356 0.22617 0.62046 0.0
C3026 C 0.59299 0.23843 0.62873 0.0
C3027 C 0.61047 0.24536 0.61358 0.0
H3028 H 0.0001 0.38445 0.86259 0.0
H3029 H 0.02283 0.3414 0.80589 0.0
H3030 H 0.01174 0.35457 0.89017 0.0
H3031 H 0.03528 0.31138 0.83367 0.0
H3032 H 0.08975 0.29703 0.89657 0.0
H3033 H 0.06864 0.31338 0.86365 0.0
H3034 H 0.00547 0.31341 0.90392 0.0
H3035 H 0.02649 0.29723 0.9369 0.0
C3036 C 0.00717 0.36829 0.8561 0.0
C3037 C 0.01067 0.36509 0.8323 0.0
C3038 C 0.01372 0.35112 0.87182 0.0
C3039 C 0.02448 0.33064 0.86409 0.0
C3040 C 0.02704 0.327 0.84009 0.0
C3041 C 0.01987 0.34405 0.82425 0.0
C3042 C 0.07124 0.29994 0.89822 0.0
C3043 C 0.05996 0.29652 0.91958 0.0
C3044 C 0.05911 0.30917 0.87929 0.0
C3045 C 0.0355 0.31505 0.88139 0.0
C3046 C 0.02376 0.30942 0.90198 0.0
C3047 C 0.03585 0.30024 0.92088 0.0
H3048 H 0.92 0.84212 0.1627 0.0
H3049 H 0.96228 0.78209 0.17762 0.0
H3050 H 0.90032 0.82067 0.1319 0.0
H3051 H 0.94288 0.7607 0.14605 0.0
H3052 H 0.90204 0.75703 0.06513 0.0
H3053 H 0.93044 0.77194 0.09352 0.0
H3054 H 0.87614 0.77675 0.14481 0.0
H3055 H 0.84799 0.76228 0.11676 0.0
C3056 C 0.92558 0.82458 0.15886 0.0
C3057 C 0.94252 0.81365 0.17249 0.0
C3058 C 0.91434 0.81234 0.14132 0.0
C3059 C 0.92022 0.78917 0.13675 0.0
C3060 C 0.93821 0.77861 0.14932 0.0
C3061 C 0.94915 0.79075 0.16734 0.0
C3062 C 0.89643 0.76073 0.08267 0.0
C3063 C 0.87284 0.75903 0.08873 0.0
C3064 C 0.9126 0.76918 0.09881 0.0
C3065 C 0.90521 0.77567 0.12109 0.0
C3066 C 0.88206 0.77205 0.1276 0.0
C3067 C 0.86601 0.76387 0.11156 0.0
H3068 H 0.47598 0.60439 0.36311 0.0
H3069 H 0.48414 0.65488 0.30837 0.0
H3070 H 0.46148 0.63458 0.38888 0.0
H3071 H 0.46898 0.68536 0.33438 0.0
H3072 H 0.46343 0.70153 0.43241 0.0
H3073 H 0.48402 0.68471 0.39943 0.0
H3074 H 0.41906 0.67552 0.36341 0.0
H3075 H 0.39819 0.69213 0.39643 0.0
C3076 C 0.47488 0.62203 0.35668 0.0
C3077 C 0.48112 0.62739 0.33378 0.0
C3078 C 0.46664 0.63925 0.37141 0.0
C3079 C 0.46413 0.66208 0.36346 0.0
C3080 C 0.47088 0.66778 0.34077 0.0
C3081 C 0.47961 0.65048 0.32604 0.0
C3082 C 0.45354 0.69649 0.41723 0.0
C3083 C 0.42912 0.69755 0.41726 0.0
C3084 C 0.46539 0.68716 0.3983 0.0
C3085 C 0.45305 0.67897 0.37904 0.0
C3086 C 0.42889 0.68209 0.37803 0.0
C3087 C 0.41698 0.69141 0.397 0.0
H3088 H 0.79655 0.57345 0.78287 0.0
H3089 H 0.83774 0.53136 0.82937 0.0
H3090 H 0.83181 0.58673 0.76378 0.0
H3091 H 0.87298 0.54403 0.80979 0.0
H3092 H 0.92367 0.6069 0.79931 0.0
H3093 H 0.89249 0.58087 0.81128 0.0
H3094 H 0.86605 0.58034 0.74104 0.0
H3095 H 0.89683 0.60744 0.72966 0.0
C3096 C 0.81309 0.56662 0.78867 0.0
C3097 C 0.8144 0.55191 0.80804 0.0
C3098 C 0.83335 0.57407 0.77759 0.0
C3099 C 0.8553 0.56675 0.78551 0.0
C3100 C 0.8564 0.55045 0.80363 0.0
C3101 C 0.83619 0.5432 0.81485 0.0
C3102 C 0.91158 0.60053 0.78638 0.0
C3103 C 0.91284 0.60842 0.76346 0.0
C3104 C 0.89376 0.58555 0.79314 0.0
C3105 C 0.8767 0.57848 0.77711 0.0
C3106 C 0.87881 0.58553 0.75383 0.0
C3107 C 0.89663 0.6006 0.74716 0.0
H3108 H 0.68755 0.59559 0.09799 0.0
H3109 H 0.69923 0.56014 0.0331 0.0
H3110 H 0.67268 0.62913 0.07703 0.0
H3111 H 0.68512 0.59407 0.012 0.0
H3112 H 0.61715 0.63526 0.99386 0.0
H3113 H 0.64596 0.6077 0.00793 0.0
H3114 H 0.67664 0.66145 0.0504 0.0
H3115 H 0.64746 0.68901 0.03606 0.0
C3116 C 0.68756 0.59523 0.07921 0.0
C3117 C 0.69399 0.57504 0.0672 0.0
C3118 C 0.67918 0.61456 0.06714 0.0
C3119 C 0.67733 0.61418 0.0428 0.0
C3120 C 0.68578 0.59472 0.03076 0.0
C3121 C 0.69386 0.57529 0.04284 0.0
C3122 C 0.63053 0.64125 0.00566 0.0
C3123 C 0.63022 0.66403 0.01401 0.0
C3124 C 0.64714 0.62555 0.01368 0.0
C3125 C 0.66351 0.63227 0.03054 0.0
C3126 C 0.6641 0.65565 0.03765 0.0
C3127 C 0.64758 0.67145 0.02936 0.0
H3128 H 0.65391 0.43678 0.34116 0.0
H3129 H 0.68922 0.44811 0.27594 0.0
H3130 H 0.62169 0.41851 0.3205 0.0
H3131 H 0.65673 0.42974 0.25543 0.0
H3132 H 0.56517 0.40369 0.25453 0.0
H3133 H 0.59351 0.43236 0.26894 0.0
H3134 H 0.64344 0.37762 0.27958 0.0
H3135 H 0.61544 0.34913 0.26559 0.0
C3136 C 0.65453 0.43599 0.3224 0.0
C3137 C 0.6743 0.44351 0.3102 0.0
C3138 C 0.63602 0.42567 0.31063 0.0
C3139 C 0.63685 0.42298 0.28649 0.0
C3140 C 0.65578 0.43188 0.27407 0.0
C3141 C 0.67438 0.44214 0.28583 0.0
C3142 C 0.58234 0.39793 0.2596 0.0
C3143 C 0.5881 0.37423 0.2591 0.0
C3144 C 0.59843 0.41426 0.26782 0.0
C3145 C 0.62047 0.40698 0.27525 0.0
C3146 C 0.62651 0.3835 0.27381 0.0
C3147 C 0.61046 0.36725 0.26591 0.0
H3148 H 0.89652 0.34916 0.53957 0.0
H3149 H 0.84399 0.3238 0.49239 0.0
H3150 H 0.8697 0.37851 0.55365 0.0
H3151 H 0.81721 0.35419 0.5061 0.0
H3152 H 0.80639 0.44051 0.52578 0.0
H3153 H 0.82515 0.4066 0.50807 0.0
H3154 H 0.82409 0.37133 0.57403 0.0
H3155 H 0.80516 0.40459 0.59173 0.0
C3156 C 0.87928 0.34991 0.53208 0.0
C3157 C 0.87241 0.33434 0.51463 0.0
C3158 C 0.86397 0.36671 0.54017 0.0
C3159 C 0.84159 0.36852 0.53082 0.0
C3160 C 0.83453 0.3531 0.51337 0.0
C3161 C 0.8498 0.33588 0.50552 0.0
C3162 C 0.8098 0.42537 0.53639 0.0
C3163 C 0.80476 0.42546 0.56027 0.0
C3164 C 0.8203 0.40597 0.52621 0.0
C3165 C 0.82601 0.3866 0.53983 0.0
C3166 C 0.81976 0.38615 0.56328 0.0
C3167 C 0.80904 0.40528 0.57336 0.0
H3168 H 0.87547 0.35079 0.72677 0.0
H3169 H 0.92896 0.40263 0.7356 0.0
H3170 H 0.84827 0.38078 0.71457 0.0
H3171 H 0.90156 0.43284 0.72252 0.0
H3172 H 0.8006 0.44247 0.7156 0.0
H3173 H 0.83293 0.42491 0.7367 0.0
H3174 H 0.87565 0.42928 0.67551 0.0
H3175 H 0.84325 0.44615 0.654 0.0
C3176 C 0.88135 0.36865 0.72626 0.0
C3177 C 0.90431 0.37444 0.732 0.0
C3178 C 0.86576 0.38578 0.71942 0.0
C3179 C 0.87291 0.40897 0.71776 0.0
C3180 C 0.89574 0.41501 0.72385 0.0
C3181 C 0.9113 0.39782 0.7313 0.0
C3182 C 0.81703 0.44023 0.70674 0.0
C3183 C 0.8192 0.4453 0.68296 0.0
C3184 C 0.83555 0.43042 0.71892 0.0
C3185 C 0.85662 0.42586 0.70764 0.0
C3186 C 0.85961 0.433 0.68458 0.0
C3187 C 0.841 0.4426 0.67229 0.0
H3188 H 0.79542 0.59342 0.90529 0.0
H3189 H 0.80402 0.54978 0.9658 0.0
H3190 H 0.81371 0.62557 0.92601 0.0
H3191 H 0.82243 0.58207 0.98623 0.0
H3192 H 0.84032 0.6772 0.98984 0.0
H3193 H 0.81091 0.6489 0.9769 0.0
H3194 H 0.86543 0.60083 0.95904 0.0
H3195 H 0.8946 0.62886 0.97139 0.0
C3196 C 0.80062 0.59082 0.92316 0.0
C3197 C 0.79886 0.56882 0.93368 0.0
C3198 C 0.81087 0.60931 0.93504 0.0
C3199 C 0.81936 0.60611 0.95759 0.0
C3200 C 0.81586 0.58482 0.96883 0.0
C3201 C 0.80552 0.56634 0.95703 0.0
C3202 C 0.84591 0.66048 0.98337 0.0
C3203 C 0.86968 0.65521 0.98154 0.0
C3204 C 0.82916 0.64442 0.97598 0.0
C3205 C 0.83612 0.62282 0.96717 0.0
C3206 C 0.85978 0.61737 0.96599 0.0
C3207 C 0.87641 0.63344 0.97295 0.0
H3208 H 0.57729 0.60561 0.19336 0.0
H3209 H 0.59805 0.61023 0.26498 0.0
H3210 H 0.60789 0.57735 0.18618 0.0
H3211 H 0.62912 0.58179 0.25797 0.0
H3212 H 0.70086 0.57499 0.21429 0.0
H3213 H 0.66549 0.58849 0.2336 0.0
H3214 H 0.62512 0.5385 0.19495 0.0
H3215 H 0.66037 0.52528 0.17564 0.0
C3216 C 0.58799 0.59986 0.20773 0.0
C3217 C 0.5854 0.60971 0.22972 0.0
C3218 C 0.60544 0.58363 0.20371 0.0
C3219 C 0.62095 0.57741 0.22153 0.0
C3220 C 0.61742 0.5863 0.24395 0.0
C3221 C 0.59961 0.60231 0.24803 0.0
C3222 C 0.6845 0.56655 0.21041 0.0
C3223 C 0.68308 0.54979 0.19285 0.0
C3224 C 0.66428 0.57411 0.22158 0.0
C3225 C 0.64251 0.56484 0.21539 0.0
C3226 C 0.6416 0.54627 0.19969 0.0
C3227 C 0.6617 0.53887 0.1885 0.0
H3228 H 0.6994 0.40009 0.4001 0.0
H3229 H 0.69068 0.43582 0.46545 0.0
H3230 H 0.68175 0.36547 0.41675 0.0
H3231 H 0.67302 0.40082 0.48199 0.0
H3232 H 0.65144 0.31782 0.4954 0.0
H3233 H 0.68067 0.34708 0.48442 0.0
H3234 H 0.63361 0.37427 0.43291 0.0
H3235 H 0.60441 0.34608 0.44421 0.0
C3236 C 0.69442 0.4004 0.4182 0.0
C3237 C 0.69592 0.42096 0.43125 0.0
C3238 C 0.68442 0.38049 0.42772 0.0
C3239 C 0.67603 0.38064 0.45054 0.0
C3240 C 0.67955 0.40034 0.46437 0.0
C3241 C 0.68942 0.4204 0.4548 0.0
C3242 C 0.64731 0.33021 0.48196 0.0
C3243 C 0.62549 0.32977 0.47092 0.0
C3244 C 0.66404 0.34679 0.47561 0.0
C3245 C 0.65927 0.36269 0.45777 0.0
C3246 C 0.63768 0.362 0.44659 0.0
C3247 C 0.62097 0.34585 0.45314 0.0
H3248 H 0.77499 0.79966 0.5354 0.0
H3249 H 0.83658 0.83926 0.55193 0.0
H3250 H 0.75086 0.83263 0.54609 0.0
H3251 H 0.81246 0.87171 0.56385 0.0
H3252 H 0.76849 0.92761 0.58821 0.0
H3253 H 0.7841 0.90241 0.55771 0.0
H3254 H 0.74322 0.84542 0.58466 0.0
H3255 H 0.72794 0.87057 0.61468 0.0
C3256 C 0.7834 0.81542 0.54121 0.0
C3257 C 0.80767 0.81658 0.54346 0.0
C3258 C 0.76956 0.83435 0.54726 0.0
C3259 C 0.77967 0.85467 0.55622 0.0
C3260 C 0.80404 0.85642 0.55687 0.0
C3261 C 0.81789 0.83762 0.55043 0.0
C3262 C 0.76218 0.90995 0.5868 0.0
C3263 C 0.74728 0.90076 0.60369 0.0
C3264 C 0.77123 0.89548 0.56954 0.0
C3265 C 0.76529 0.87176 0.56903 0.0
C3266 C 0.74819 0.86354 0.58441 0.0
C3267 C 0.73948 0.87787 0.60174 0.0
H3268 H 0.27658 0.56682 0.39823 0.0
H3269 H 0.23229 0.61385 0.36058 0.0
H3270 H 0.28917 0.59852 0.42332 0.0
H3271 H 0.24321 0.64533 0.38659 0.0
H3272 H 0.29668 0.70024 0.40635 0.0
H3273 H 0.27562 0.66827 0.38882 0.0
H3274 H 0.28583 0.62744 0.45109 0.0
H3275 H 0.3083 0.65934 0.46779 0.0
C3276 C 0.26889 0.58384 0.39601 0.0
C3277 C 0.25376 0.58817 0.3775 0.0
C3278 C 0.27599 0.60206 0.4104 0.0
C3279 C 0.26774 0.62481 0.40666 0.0
C3280 C 0.25067 0.62834 0.38949 0.0
C3281 C 0.24412 0.61029 0.37477 0.0
C3282 C 0.29421 0.68446 0.41629 0.0
C3283 C 0.30433 0.68203 0.43823 0.0
C3284 C 0.28189 0.66612 0.40638 0.0
C3285 C 0.27884 0.64505 0.41847 0.0
C3286 C 0.28817 0.64312 0.44099 0.0
C3287 C 0.30103 0.66136 0.45064 0.0
H3288 H 0.59 0.07803 0.7043 0.0
H3289 H 0.54762 0.03434 0.66069 0.0
H3290 H 0.62496 0.06012 0.68877 0.0
H3291 H 0.58277 0.0166 0.64468 0.0
H3292 H 0.65197 0.98303 0.62616 0.0
H3293 H 0.61992 0.99321 0.65235 0.0
H3294 H 0.64041 0.06529 0.6486 0.0
H3295 H 0.6721 0.05503 0.62255 0.0
C3296 C 0.58818 0.06447 0.69151 0.0
C3297 C 0.56613 0.05798 0.68335 0.0
C3298 C 0.60818 0.05416 0.68268 0.0
C3299 C 0.60659 0.0372 0.66531 0.0
C3300 C 0.5845 0.02954 0.65818 0.0
C3301 C 0.5644 0.03981 0.6672 0.0
C3302 C 0.64995 0.00088 0.63163 0.0
C3303 C 0.66446 0.01829 0.62265 0.0
C3304 C 0.63152 0.00674 0.64634 0.0
C3305 C 0.62768 0.03003 0.65248 0.0
C3306 C 0.64308 0.04717 0.64439 0.0
C3307 C 0.66113 0.04137 0.62941 0.0
H3308 H 0.20407 0.29147 0.91042 0.0
H3309 H 0.17228 0.33514 0.96219 0.0
H3310 H 0.22586 0.3245 0.8958 0.0
H3311 H 0.19516 0.36811 0.94859 0.0
H3312 H 0.20599 0.42313 0.89013 0.0
H3313 H 0.19331 0.39252 0.91632 0.0
H3314 H 0.25478 0.35277 0.89931 0.0
H3315 H 0.26658 0.38321 0.87216 0.0
C3316 C 0.20221 0.30809 0.919 0.0
C3317 C 0.18622 0.31093 0.93708 0.0
C3318 C 0.2149 0.32703 0.91083 0.0
C3319 C 0.21225 0.34913 0.92092 0.0
C3320 C 0.19728 0.35152 0.94005 0.0
C3321 C 0.18418 0.33267 0.94786 0.0
C3322 C 0.21702 0.4081 0.89263 0.0
C3323 C 0.23706 0.40522 0.87927 0.0
C3324 C 0.20988 0.39055 0.9077 0.0
C3325 C 0.22276 0.36984 0.90961 0.0
C3326 C 0.2441 0.36816 0.89778 0.0
C3327 C 0.25104 0.38562 0.88247 0.0
H3328 H 0.36798 0.49449 0.60976 0.0
H3329 H 0.31154 0.47604 0.6553 0.0
H3330 H 0.39585 0.48494 0.63989 0.0
H3331 H 0.33966 0.46593 0.68586 0.0
H3332 H 0.39958 0.40886 0.70005 0.0
H3333 H 0.36719 0.43188 0.68568 0.0
H3334 H 0.41237 0.49134 0.67889 0.0
H3335 H 0.44499 0.46821 0.69285 0.0
C3336 C 0.36159 0.48895 0.62656 0.0
C3337 C 0.33778 0.48575 0.63027 0.0
C3338 C 0.37752 0.48365 0.64393 0.0
C3339 C 0.36999 0.47453 0.66526 0.0
C3340 C 0.34596 0.47285 0.66956 0.0
C3341 C 0.3299 0.47869 0.65219 0.0
C3342 C 0.40255 0.42698 0.69597 0.0
C3343 C 0.42508 0.43643 0.69663 0.0
C3344 C 0.38387 0.44027 0.68799 0.0
C3345 C 0.38736 0.46328 0.68064 0.0
C3346 C 0.4093 0.47348 0.68394 0.0
C3347 C 0.42801 0.46018 0.6918 0.0
H3348 H 0.76291 0.08873 0.10465 0.0
H3349 H 0.69056 0.07512 0.11849 0.0
H3350 H 0.75172 0.1193 0.0769 0.0
H3351 H 0.67937 0.10491 0.09083 0.0
H3352 H 0.66111 0.15385 0.03682 0.0
H3353 H 0.67976 0.11828 0.04987 0.0
H3354 H 0.73224 0.15856 0.08509 0.0
H3355 H 0.71386 0.19434 0.07155 0.0
C3356 C 0.74467 0.09179 0.10116 0.0
C3357 C 0.72752 0.07982 0.11368 0.0
C3358 C 0.73828 0.10931 0.08545 0.0
C3359 C 0.71466 0.11458 0.08176 0.0
C3360 C 0.69768 0.10119 0.09306 0.0
C3361 C 0.70405 0.0842 0.10901 0.0
C3362 C 0.67684 0.15519 0.04702 0.0
C3363 C 0.68559 0.17697 0.0537 0.0
C3364 C 0.68757 0.13477 0.05441 0.0
C3365 C 0.70724 0.13562 0.06882 0.0
C3366 C 0.71715 0.15734 0.07393 0.0
C3367 C 0.70645 0.17785 0.06639 0.0
H3368 H 0.58498 0.91755 0.77209 0.0
H3369 H 0.54394 0.96087 0.81727 0.0
H3370 H 0.62007 0.93808 0.78417 0.0
H3371 H 0.57881 0.98049 0.8303 0.0
H3372 H 0.64183 0.01443 0.85409 0.0
H3373 H 0.61142 0.00435 0.82619 0.0
H3374 H 0.64202 0.93621 0.81838 0.0
H3375 H 0.67265 0.94692 0.84539 0.0
C3376 C 0.58348 0.93156 0.7845 0.0
C3377 C 0.56183 0.93727 0.79414 0.0
C3378 C 0.60357 0.94331 0.79148 0.0
C3379 C 0.60246 0.96069 0.8086 0.0
C3380 C 0.58049 0.96743 0.81693 0.0
C3381 C 0.56041 0.95599 0.80963 0.0
C3382 C 0.64242 -0.00231 0.84557 0.0
C3383 C 0.65954 0.98148 0.85148 0.0
C3384 C 0.62489 0.99176 0.82984 0.0
C3385 C 0.62392 0.96928 0.82026 0.0
C3386 C 0.6422 0.95375 0.82508 0.0
C3387 C 0.65976 0.95979 0.84064 0.0
H3388 H 0.82706 0.05155 0.36844 0.0
H3389 H 0.84329 0.97971 0.35531 0.0
H3390 H 0.85528 0.06356 0.33952 0.0
H3391 H 0.87224 0.99173 0.32621 0.0
H3392 H 0.94538 0.03167 0.31781 0.0
H3393 H 0.91065 0.01243 0.33255 0.0
H3394 H 0.86774 0.06362 0.29851 0.0
H3395 H 0.90245 0.08316 0.28411 0.0
C3396 C 0.83638 0.03833 0.35886 0.0
C3397 C 0.83323 0.0148 0.36408 0.0
C3398 C 0.85244 0.04516 0.34217 0.0
C3399 C 0.86611 0.02862 0.33063 0.0
C3400 C 0.86202 0.00487 0.33492 0.0
C3401 C 0.84544 -0.00201 0.35141 0.0
C3402 C 0.92854 0.03863 0.31314 0.0
C3403 C 0.92672 0.0594 0.30042 0.0
C3404 C 0.90861 0.02742 0.32138 0.0
C3405 C 0.88646 0.0367 0.31698 0.0
C3406 C 0.8846 0.05631 0.30255 0.0
C3407 C 0.9045 0.06757 0.29442 0.0
H3408 H 0.35513 0.24876 0.11468 0.0
H3409 H 0.40322 0.21877 0.06597 0.0
H3410 H 0.38043 0.23788 0.14668 0.0
H3411 H 0.42816 0.20627 0.0982 0.0
H3412 H 0.47087 0.19017 0.16395 0.0
H3413 H 0.45289 0.21183 0.13174 0.0
H3414 H 0.38545 0.20117 0.16313 0.0
H3415 H 0.40356 0.18084 0.19523 0.0
C3416 C 0.37139 0.24009 0.1109 0.0
C3417 C 0.37721 0.23427 0.08808 0.0
C3418 C 0.3858 0.23362 0.1292 0.0
C3419 C 0.40593 0.22039 0.12514 0.0
C3420 C 0.41274 0.2163 0.10202 0.0
C3421 C 0.39849 0.22336 0.08356 0.0
C3422 C 0.45224 0.19277 0.16379 0.0
C3423 C 0.43846 0.18409 0.18191 0.0
C3424 C 0.44194 0.20508 0.14544 0.0
C3425 C 0.41771 0.2086 0.14493 0.0
C3426 C 0.40419 0.19961 0.1632 0.0
C3427 C 0.41448 0.18775 0.18155 0.0
H3428 H 0.52608 0.70281 0.94166 0.0
H3429 H 0.58958 0.69344 0.90292 0.0
H3430 H 0.50362 0.69036 0.90808 0.0
H3431 H 0.56724 0.67994 0.86973 0.0
H3432 H 0.5256 0.65283 0.81229 0.0
H3433 H 0.53885 0.68354 0.83868 0.0
H3434 H 0.49998 0.6515 0.89436 0.0
H3435 H 0.48707 0.62129 0.86806 0.0
C3436 C 0.53524 0.69826 0.92592 0.0
C3437 C 0.55963 0.69845 0.92516 0.0
C3438 C 0.52236 0.69119 0.90664 0.0
C3439 C 0.53361 0.68367 0.88636 0.0
C3440 C 0.55794 0.68571 0.88499 0.0
C3441 C 0.57081 0.69316 0.90416 0.0
C3442 C 0.51925 0.65309 0.82997 0.0
C3443 C 0.5055 0.63484 0.83839 0.0
C3444 C 0.52695 0.67047 0.84511 0.0
C3445 C 0.5208 0.6698 0.86876 0.0
C3446 C 0.505 0.65275 0.87631 0.0
C3447 C 0.49763 0.63532 0.86131 0.0
H3448 H 0.10707 0.73348 0.59173 0.0
H3449 H 0.11609 0.80644 0.57798 0.0
H3450 H 0.07742 0.74255 0.621 0.0
H3451 H 0.08675 0.81565 0.60694 0.0
H3452 H 0.03051 0.8298 0.65446 0.0
H3453 H 0.04503 0.81189 0.61912 0.0
H3454 H 0.08371 0.76237 0.66003 0.0
H3455 H 0.06901 0.78012 0.69552 0.0
C3456 C 0.10198 0.75135 0.59437 0.0
C3457 C 0.11351 0.76928 0.58262 0.0
C3458 C 0.08527 0.75656 0.61121 0.0
C3459 C 0.07975 0.77979 0.6162 0.0
C3460 C 0.09035 0.79757 0.60326 0.0
C3461 C 0.10725 0.79236 0.58681 0.0
C3462 C 0.04181 0.81484 0.65597 0.0
C3463 C 0.04934 0.8069 0.67779 0.0
C3464 C 0.04999 0.80453 0.6357 0.0
C3465 C 0.06587 0.78608 0.63686 0.0
C3466 C 0.07149 0.77659 0.65862 0.0
C3467 C 0.06324 0.7869 0.67896 0.0
H3468 H 0.96888 0.30155 0.43544 0.0
H3469 H 0.90493 0.3042 0.39618 0.0
H3470 H 0.98968 0.31826 0.4024 0.0
H3471 H 0.92592 0.31994 0.36311 0.0
H3472 H 0.97239 0.34204 0.3036 0.0
H3473 H 0.96117 0.31319 0.33311 0.0
H3474 H 0.98148 0.36096 0.3871 0.0
H3475 H 0.99168 0.38983 0.35783 0.0
C3476 C 0.95933 0.3052 0.41967 0.0
C3477 C 0.93516 0.30169 0.41855 0.0
C3478 C 0.9713 0.31458 0.40073 0.0
C3479 C 0.95939 0.32025 0.38023 0.0
C3480 C 0.93558 0.31534 0.37858 0.0
C3481 C 0.92355 0.30637 0.3976 0.0
C3482 C 0.97489 0.34601 0.3218 0.0
C3483 C 0.98255 0.36808 0.32865 0.0
C3484 C 0.96852 0.3296 0.33859 0.0
C3485 C 0.97047 0.33493 0.36233 0.0
C3486 C 0.97999 0.35635 0.36895 0.0
C3487 C 0.98566 0.3729 0.35226 0.0
H3488 H 0.42448 0.77998 0.30124 0.0
H3489 H 0.45769 0.83371 0.34172 0.0
H3490 H 0.40835 0.76333 0.33661 0.0
H3491 H 0.44227 0.81657 0.37705 0.0
H3492 H 0.3739 0.80725 0.41953 0.0
H3493 H 0.40193 0.81759 0.38973 0.0
H3494 H 0.41326 0.74486 0.37519 0.0
H3495 H 0.38457 0.73469 0.40496 0.0
C3496 C 0.42883 0.7879 0.3177 0.0
C3497 C 0.44193 0.80849 0.3186 0.0
C3498 C 0.41975 0.77822 0.33801 0.0
C3499 C 0.42377 0.78886 0.35958 0.0
C3500 C 0.4385 0.80827 0.36062 0.0
C3501 C 0.44735 0.81807 0.34035 0.0
C3502 C 0.38279 0.79351 0.41028 0.0
C3503 C 0.3774 0.77021 0.41458 0.0
C3504 C 0.39899 0.79937 0.39336 0.0
C3505 C 0.40989 0.78203 0.38013 0.0
C3506 C 0.40515 0.75859 0.38511 0.0
C3507 C 0.38903 0.75273 0.40231 0.0
H3508 H 0.99385 0.60924 0.13105 0.0
H3509 H 0.96743 0.65019 0.18772 0.0
H3510 H 0.9827 0.6395 0.10373 0.0
H3511 H 0.95544 0.68058 0.16015 0.0
H3512 H 0.90204 0.69266 0.09596 0.0
H3513 H 0.92313 0.67714 0.12923 0.0
H3514 H 0.98728 0.68111 0.09073 0.0
H3515 H 0.96627 0.69643 0.05732 0.0
C3516 C 0.98615 0.62508 0.13763 0.0
C3517 C 0.98136 0.62752 0.16128 0.0
C3518 C 0.97987 0.64247 0.12206 0.0
C3519 C 0.96809 0.66236 0.1298 0.0
C3520 C 0.96447 0.6654 0.15374 0.0
C3521 C 0.97136 0.64814 0.16946 0.0
C3522 C 0.92071 0.69069 0.09472 0.0
C3523 C 0.93236 0.695 0.07371 0.0
C3524 C 0.93283 0.68203 0.1139 0.0
C3525 C 0.95678 0.67759 0.11241 0.0
C3526 C 0.96874 0.68403 0.09218 0.0
C3527 C 0.95666 0.69266 0.07302 0.0
H3528 H 0.10164 0.19091 0.93326 0.0
H3529 H 0.11087 0.2544 0.8949 0.0
H3530 H 0.07316 0.17765 0.90496 0.0
H3531 H 0.08385 0.24067 0.86536 0.0
H3532 H 0.03659 0.21052 0.8117 0.0
H3533 H 0.04987 0.2282 0.84798 0.0
H3534 H 0.07814 0.16185 0.86922 0.0
H3535 H 0.06335 0.14432 0.83416 0.0
C3536 C 0.09711 0.20218 0.9189 0.0
C3537 C 0.10838 0.2235 0.91598 0.0
C3538 C 0.08108 0.19451 0.90245 0.0
C3539 C 0.07681 0.20757 0.8822 0.0
C3540 C 0.08662 0.22996 0.88053 0.0
C3541 C 0.10219 0.2379 0.89741 0.0
C3542 C 0.04532 0.19981 0.82445 0.0
C3543 C 0.04905 0.17611 0.8202 0.0
C3544 C 0.05304 0.2099 0.8452 0.0
C3545 C 0.06521 0.1966 0.86176 0.0
C3546 C 0.06832 0.17272 0.85746 0.0
C3547 C 0.06005 0.16259 0.83714 0.0
H3548 H 0.54341 0.35788 0.66551 0.0
H3549 H 0.4726 0.35555 0.64141 0.0
H3550 H 0.55442 0.32904 0.63703 0.0
H3551 H 0.48341 0.32607 0.61252 0.0
H3552 H 0.52716 0.31717 0.54269 0.0
H3553 H 0.50632 0.33067 0.57699 0.0
H3554 H 0.55285 0.29115 0.62067 0.0
H3555 H 0.57433 0.27886 0.58657 0.0
C3556 C 0.53005 0.35046 0.65451 0.0
C3557 C 0.50727 0.35879 0.65542 0.0
C3558 C 0.53627 0.3338 0.63824 0.0
C3559 C 0.51984 0.32534 0.62227 0.0
C3560 C 0.49651 0.33244 0.62441 0.0
C3561 C 0.49025 0.34909 0.64099 0.0
C3562 C 0.53268 0.31113 0.55961 0.0
C3563 C 0.5528 0.29758 0.56202 0.0
C3564 C 0.52057 0.31862 0.57928 0.0
C3565 C 0.5282 0.31236 0.60164 0.0
C3566 C 0.54688 0.2968 0.60375 0.0
C3567 C 0.55922 0.28976 0.5842 0.0
H3568 H 0.11798 0.35679 0.24125 0.0
H3569 H 0.06107 0.40185 0.22288 0.0
H3570 H 0.1456 0.38696 0.23056 0.0
H3571 H 0.08891 0.4322 0.21141 0.0
H3572 H 0.15037 0.44439 0.15406 0.0
H3573 H 0.11779 0.42897 0.17619 0.0
H3574 H 0.15995 0.42861 0.2381 0.0
H3575 H 0.19256 0.44442 0.2161 0.0
C3576 C 0.11145 0.37342 0.23536 0.0
C3577 C 0.08756 0.37708 0.23268 0.0
C3578 C 0.12721 0.39076 0.22942 0.0
C3579 C 0.11938 0.41189 0.2201 0.0
C3580 C 0.09535 0.41605 0.21858 0.0
C3581 C 0.07948 0.3988 0.22516 0.0
C3582 C 0.1525 0.44181 0.17254 0.0
C3583 C 0.1742 0.44519 0.18321 0.0
C3584 C 0.13377 0.43308 0.18524 0.0
C3585 C 0.13646 0.4274 0.20879 0.0
C3586 C 0.15752 0.43266 0.2199 0.0
C3587 C 0.17621 0.44152 0.20725 0.0
H3588 H 0.33374 0.44879 0.94825 0.0
H3589 H 0.27542 0.40734 0.92613 0.0
H3590 H 0.34925 0.41599 0.96961 0.0
H3591 H 0.29008 0.37449 0.94884 0.0
H3592 H 0.34647 0.31627 0.95801 0.0
H3593 H 0.32007 0.34717 0.94625 0.0
H3594 H 0.34728 0.39077 0.00101 0.0
H3595 H 0.37452 0.36008 0.01165 0.0
C3596 C 0.32398 0.4327 0.94849 0.0
C3597 C 0.3036 0.43042 0.93545 0.0
C3598 C 0.33269 0.41389 0.96097 0.0
C3599 C 0.32088 0.39247 0.9612 0.0
C3600 C 0.29984 0.39056 0.94883 0.0
C3601 C 0.29143 0.40931 0.93584 0.0
C3602 C 0.34618 0.33227 0.96788 0.0
C3603 C 0.36249 0.33612 0.98547 0.0
C3604 C 0.33103 0.35001 0.96124 0.0
C3605 C 0.33202 0.37184 0.97218 0.0
C3606 C 0.3466 0.37451 0.99164 0.0
C3607 C 0.36198 0.35689 -0.00201 0.0
H3608 H 0.43433 0.59159 0.70593 0.0
H3609 H 0.38624 0.62504 0.75231 0.0
H3610 H 0.40386 0.56445 0.69391 0.0
H3611 H 0.35558 0.59849 0.74016 0.0
H3612 H 0.30298 0.54662 0.71641 0.0
H3613 H 0.33774 0.56123 0.73609 0.0
H3614 H 0.37114 0.57077 0.66963 0.0
H3615 H 0.33711 0.55552 0.65028 0.0
C3616 C 0.41737 0.5926 0.71402 0.0
C3617 C 0.41242 0.6102 0.72997 0.0
C3618 C 0.39986 0.57728 0.70701 0.0
C3619 C 0.37709 0.57954 0.71572 0.0
C3620 C 0.37285 0.5961 0.73313 0.0
C3621 C 0.39035 0.61138 0.74007 0.0
C3622 C 0.31788 0.55166 0.7061 0.0
C3623 C 0.31718 0.55018 0.68179 0.0
C3624 C 0.33779 0.56001 0.71735 0.0
C3625 C 0.35729 0.56725 0.70448 0.0
C3626 C 0.35674 0.56495 0.68021 0.0
C3627 C 0.33704 0.5564 0.66905 0.0
H3628 H 0.12854 0.63326 0.51931 0.0
H3629 H 0.14468 0.67426 0.45896 0.0
H3630 H 0.15628 0.60373 0.50691 0.0
H3631 H 0.17085 0.64421 0.44526 0.0
H3632 H 0.21512 0.58673 0.42076 0.0
H3633 H 0.20231 0.61985 0.44386 0.0
H3634 H 0.15348 0.57523 0.47967 0.0
H3635 H 0.16757 0.54229 0.45785 0.0
C3636 C 0.13851 0.63608 0.50362 0.0
C3637 C 0.13479 0.65588 0.49009 0.0
C3638 C 0.15413 0.61906 0.49626 0.0
C3639 C 0.16537 0.62106 0.47462 0.0
C3640 C 0.16278 0.64189 0.46203 0.0
C3641 C 0.14767 0.65916 0.46978 0.0
C3642 C 0.20185 0.58413 0.43383 0.0
C3643 C 0.19205 0.56209 0.43736 0.0
C3644 C 0.19444 0.60309 0.44706 0.0
C3645 C 0.1766 0.60048 0.4636 0.0
C3646 C 0.16754 0.5781 0.46756 0.0
C3647 C 0.1754 0.55912 0.45481 0.0
H3648 H 0.05601 0.58721 0.2743 0.0
H3649 H 0.11381 0.62758 0.24915 0.0
H3650 H 0.08293 0.55614 0.28611 0.0
H3651 H 0.14048 0.59682 0.26028 0.0
H3652 H 0.18663 0.54113 0.27732 0.0
H3653 H 0.15325 0.55547 0.25559 0.0
H3654 H 0.11323 0.55845 0.3188 0.0
H3655 H 0.14649 0.5438 0.34058 0.0
C3656 C 0.07437 0.58901 0.27064 0.0
C3657 C 0.08306 0.60964 0.26106 0.0
C3658 C 0.08972 0.57137 0.27742 0.0
C3659 C 0.1138 0.57408 0.27415 0.0
C3660 C 0.12205 0.59406 0.26281 0.0
C3661 C 0.10685 0.61177 0.25661 0.0
C3662 C 0.17058 0.5444 0.28655 0.0
C3663 C 0.16946 0.54221 0.31082 0.0
C3664 C 0.15143 0.55245 0.27405 0.0
C3665 C 0.13085 0.55855 0.28558 0.0
C3666 C 0.12888 0.55389 0.30944 0.0
C3667 C 0.14803 0.54573 0.32196 0.0
H3668 H 0.1549 0.31737 0.01129 0.0
H3669 H 0.10466 0.37114 -0.00264 0.0
H3670 H 0.183 0.34702 0.02396 0.0
H3671 H 0.13249 0.40052 0.00933 0.0
H3672 H 0.18619 0.45147 0.02496 0.0
H3673 H 0.17143 0.41924 0.00186 0.0
H3674 H 0.18006 0.37315 0.0603 0.0
H3675 H 0.19503 0.40524 0.08344 0.0
C3676 C 0.15019 0.33555 0.0103 0.0
C3677 C 0.12769 0.34213 0.00363 0.0
C3678 C 0.16616 0.35244 0.01757 0.0
C3679 C 0.15988 0.37605 0.01766 0.0
C3680 C 0.13793 0.38252 0.00924 0.0
C3681 C 0.12193 0.36572 0.00255 0.0
C3682 C 0.18521 0.43442 0.03285 0.0
C3683 C 0.19099 0.43111 0.05632 0.0
C3684 C 0.17692 0.41595 0.01954 0.0
C3685 C 0.17432 0.3938 0.02939 0.0
C3686 C 0.18197 0.39003 0.05222 0.0
C3687 C 0.19025 0.40851 0.06556 0.0
H3688 H 0.30694 0.4511 0.77679 0.0
H3689 H 0.34372 0.4435 0.84168 0.0
H3690 H 0.34085 0.43663 0.75598 0.0
H3691 H 0.37737 0.42858 0.82096 0.0
H3692 H 0.43627 0.40062 0.77975 0.0
H3693 H 0.40927 0.43121 0.79228 0.0
H3694 H 0.35351 0.39627 0.7561 0.0
H3695 H 0.38037 0.36605 0.744 0.0
C3696 C 0.32239 0.44669 0.78658 0.0
C3697 C 0.32246 0.44784 0.81092 0.0
C3698 C 0.34182 0.43846 0.77465 0.0
C3699 C 0.36162 0.431 0.78685 0.0
C3700 C 0.36245 0.43426 0.811 0.0
C3701 C 0.34307 0.44266 0.82293 0.0
C3702 C 0.41834 0.40004 0.77404 0.0
C3703 C 0.41013 0.38114 0.76113 0.0
C3704 C 0.40291 0.4174 0.78124 0.0
C3705 C 0.37921 0.41611 0.77531 0.0
C3706 C 0.37164 0.398 0.76079 0.0
C3707 C 0.38693 0.38057 0.75398 0.0
H3708 H 0.39259 0.6347 0.53348 0.0
H3709 H 0.33992 0.66871 0.49225 0.0
H3710 H 0.36355 0.60808 0.54864 0.0
H3711 H 0.3107 0.64114 0.5072 0.0
H3712 H 0.29867 0.55185 0.52623 0.0
H3713 H 0.31641 0.58551 0.50716 0.0
H3714 H 0.31792 0.62188 0.57243 0.0
H3715 H 0.3003 0.58858 0.5916 0.0
C3716 C 0.37485 0.63638 0.52745 0.0
C3717 C 0.36852 0.65363 0.51143 0.0
C3718 C 0.35827 0.62119 0.53622 0.0
C3719 C 0.33512 0.62275 0.52897 0.0
C3720 C 0.32859 0.63975 0.51285 0.0
C3721 C 0.34523 0.65531 0.50428 0.0
C3722 C 0.30218 0.56727 0.53638 0.0
C3723 C 0.29845 0.56744 0.56048 0.0
C3724 C 0.31207 0.58654 0.52541 0.0
C3725 C 0.31838 0.60605 0.53846 0.0
C3726 C 0.31291 0.60699 0.5621 0.0
C3727 C 0.30287 0.58789 0.57302 0.0
H3728 H 0.1956 0.06724 0.39474 0.0
H3729 H 0.25948 0.1016 0.37648 0.0
H3730 H 0.18568 0.09916 0.42065 0.0
H3731 H 0.25015 0.13341 0.40296 0.0
H3732 H 0.20213 0.19819 0.41168 0.0
H3733 H 0.22195 0.16359 0.39788 0.0
H3734 H 0.1916 0.12378 0.45378 0.0
H3735 H 0.17146 0.1586 0.46711 0.0
C3736 C 0.20797 0.08121 0.39716 0.0
C3737 C 0.22837 0.082 0.384 0.0
C3738 C 0.20236 0.09952 0.412 0.0
C3739 C 0.21696 0.11908 0.41364 0.0
C3740 C 0.23833 0.11883 0.40179 0.0
C3741 C 0.24385 0.10053 0.38689 0.0
C3742 C 0.19997 0.18212 0.4212 0.0
C3743 C 0.18468 0.18084 0.44011 0.0
C3744 C 0.2115 0.16227 0.41343 0.0
C3745 C 0.20821 0.14076 0.42457 0.0
C3746 C 0.19414 0.13992 0.44447 0.0
C3747 C 0.18247 0.15976 0.45207 0.0
H3748 H 0.64892 0.34197 0.55868 0.0
H3749 H 0.71168 0.30894 0.53459 0.0
H3750 H 0.67127 0.37557 0.57097 0.0
H3751 H 0.73415 0.34316 0.5459 0.0
H3752 H 0.76029 0.38085 0.61391 0.0
H3753 H 0.7447 0.35541 0.58405 0.0
H3754 H 0.69562 0.40872 0.56427 0.0
H3755 H 0.7114 0.43402 0.59451 0.0
C3756 C 0.66745 0.34226 0.55536 0.0
C3757 C 0.6787 0.32274 0.54622 0.0
C3758 C 0.68028 0.36164 0.56219 0.0
C3759 C 0.70461 0.36201 0.55963 0.0
C3760 C 0.71553 0.34322 0.54855 0.0
C3761 C 0.70272 0.32364 0.54212 0.0
C3762 C 0.74682 0.38735 0.6025 0.0
C3763 C 0.73683 0.40909 0.6064 0.0
C3764 C 0.73787 0.37286 0.58531 0.0
C3765 C 0.7185 0.37982 0.57209 0.0
C3766 C 0.71023 0.40268 0.57446 0.0
C3767 C 0.71935 0.41723 0.59157 0.0
H3768 H 0.39794 0.90108 0.29438 0.0
H3769 H 0.43651 0.96493 0.28625 0.0
H3770 H 0.36392 0.92313 0.30625 0.0
H3771 H 0.4022 0.98703 0.29734 0.0
H3772 H 0.36135 0.00055 0.36713 0.0
H3773 H 0.38814 0.989 0.33678 0.0
H3774 H 0.33272 0.9521 0.30203 0.0
H3775 H 0.30575 0.96412 0.33278 0.0
C3776 C 0.399 0.91986 0.29456 0.0
C3777 C 0.42019 0.93121 0.29033 0.0
C3778 C 0.37936 0.93255 0.30107 0.0
C3779 C 0.38051 0.95685 0.30326 0.0
C3780 C 0.40095 0.9683 0.29639 0.0
C3781 C 0.42064 0.95561 0.29015 0.0
C3782 C 0.35476 0.99077 0.35248 0.0
C3783 C 0.33172 0.98308 0.35217 0.0
C3784 C 0.37004 0.98419 0.33498 0.0
C3785 C 0.36267 0.9693 0.3171 0.0
C3786 C 0.33897 0.96335 0.31572 0.0
C3787 C 0.32353 0.97032 0.33316 0.0
H3788 H 0.73436 0.5871 0.1074 0.0
H3789 H 0.80705 0.57154 0.1161 0.0
H3790 H 0.7439 0.615 0.07673 0.0
H3791 H 0.81683 0.59962 0.08624 0.0
H3792 H 0.83361 0.64769 0.0319 0.0
H3793 H 0.81557 0.61229 0.04635 0.0
H3794 H 0.76232 0.6531 0.0798 0.0
H3795 H 0.7798 0.6884 0.06458 0.0
C3796 C 0.75226 0.58905 0.1021 0.0
C3797 C 0.76998 0.57714 0.11381 0.0
C3798 C 0.75779 0.6052 0.08481 0.0
C3799 C 0.78114 0.60958 0.07904 0.0
C3800 C 0.79866 0.59648 0.08992 0.0
C3801 C 0.79312 0.58056 0.10722 0.0
C3802 C 0.81776 0.64908 0.04189 0.0
C3803 C 0.80851 0.67087 0.04768 0.0
C3804 C 0.80742 0.62878 0.05016 0.0
C3805 C 0.78786 0.62991 0.0647 0.0
C3806 C 0.77735 0.65158 0.06863 0.0
C3807 C 0.78753 0.67187 0.06009 0.0
H3808 H 0.59478 0.58839 0.30055 0.0
H3809 H 0.55404 0.52553 0.29566 0.0
H3810 H 0.62721 0.56613 0.31617 0.0
H3811 H 0.5864 0.50345 0.31187 0.0
H3812 H 0.6257 0.49945 0.38574 0.0
H3813 H 0.59884 0.51096 0.35515 0.0
H3814 H 0.6567 0.53023 0.31152 0.0
H3815 H 0.68375 0.51791 0.34222 0.0
C3816 C 0.59295 0.56976 0.30213 0.0
C3817 C 0.57167 0.55882 0.2973 0.0
C3818 C 0.61159 0.557 0.31097 0.0
C3819 C 0.60916 0.53315 0.31535 0.0
C3820 C 0.58859 0.52187 0.30874 0.0
C3821 C 0.57004 0.53457 0.29969 0.0
C3822 C 0.63264 0.50551 0.36935 0.0
C3823 C 0.65662 0.50793 0.36619 0.0
C3824 C 0.61733 0.51193 0.3518 0.0
C3825 C 0.62575 0.52147 0.33102 0.0
C3826 C 0.64985 0.52282 0.32738 0.0
C3827 C 0.66525 0.51575 0.34482 0.0
H3828 H 0.27978 0.81214 0.95559 0.0
H3829 H 0.34688 0.84097 0.9385 0.0
H3830 H 0.26108 0.84776 0.9422 0.0
H3831 H 0.32839 0.87575 0.9239 0.0
H3832 H 0.29475 0.9375 0.89716 0.0
H3833 H 0.30728 0.91013 0.92714 0.0
H3834 H 0.25365 0.86227 0.90508 0.0
H3835 H 0.24084 0.89014 0.87608 0.0
C3836 C 0.29052 0.82615 0.9491 0.0
C3837 C 0.31473 0.82362 0.94765 0.0
C3838 C 0.27983 0.84654 0.94137 0.0
C3839 C 0.29312 0.86457 0.93154 0.0
C3840 C 0.31748 0.8625 0.93158 0.0
C3841 C 0.32815 0.84236 0.93974 0.0
C3842 C 0.28522 0.92144 0.89949 0.0
C3843 C 0.26691 0.91571 0.88457 0.0
C3844 C 0.29249 0.90565 0.91642 0.0
C3845 C 0.28184 0.88369 0.91827 0.0
C3846 C 0.26224 0.87897 0.90441 0.0
C3847 C 0.2549 0.89485 0.88767 0.0
H3848 H 0.3135 0.02123 0.14799 0.0
H3849 H 0.37132 0.98156 0.12206 0.0
H3850 H 0.33794 0.03646 0.17929 0.0
H3851 H 0.39577 -0.00354 0.15301 0.0
H3852 H 0.43994 0.02622 0.20458 0.0
H3853 H 0.4069 0.00267 0.1926 0.0
H3854 H 0.36904 0.06502 0.17501 0.0
H3855 H 0.40165 0.08854 0.18823 0.0
C3856 C 0.33118 0.01502 0.14967 0.0
C3857 C 0.34076 0.00038 0.1328 0.0
C3858 C 0.34521 0.02388 0.1674 0.0
C3859 C 0.36891 0.01799 0.16845 0.0
C3860 C 0.37761 0.00132 0.15287 0.0
C3861 C 0.3637 0.99281 0.13503 0.0
C3862 C 0.42434 0.03488 0.19867 0.0
C3863 C 0.42357 0.05916 0.19672 0.0
C3864 C 0.40541 0.0214 0.19184 0.0
C3865 C 0.38555 0.03192 0.18235 0.0
C3866 C 0.38401 0.05631 0.18233 0.0
C3867 C 0.40282 0.06982 0.18964 0.0
H3868 H 0.12931 0.98984 0.60724 0.0
H3869 H 0.18402 0.9698 0.65425 0.0
H3870 H 0.10031 0.97939 0.63602 0.0
H3871 H 0.15472 0.95863 0.68336 0.0
H3872 H 0.09249 0.903 0.69531 0.0
H3873 H 0.12582 0.92464 0.68071 0.0
H3874 H 0.08361 0.98632 0.67552 0.0
H3875 H 0.05018 0.96474 0.68999 0.0
C3876 C 0.13506 0.98367 0.62405 0.0
C3877 C 0.15872 0.98043 0.62861 0.0
C3878 C 0.11849 0.97783 0.64062 0.0
C3879 C 0.12523 0.96809 0.66192 0.0
C3880 C 0.14907 0.96607 0.66704 0.0
C3881 C 0.16578 0.9725 0.65052 0.0
C3882 C 0.09041 0.92129 0.69154 0.0
C3883 C 0.06848 0.93195 0.69311 0.0
C3884 C 0.1096 0.93376 0.68339 0.0
C3885 C 0.10721 0.95708 0.67666 0.0
C3886 C 0.08583 0.96826 0.68025 0.0
C3887 C 0.06666 0.95583 0.68838 0.0
loop_
_geom_bond_atom_site_label_1
_geom_bond_atom_site_label_2
_geom_bond_distance
_geom_bond_site_symmetry_2
_ccdc_geom_bond_type
O0 Mg1 1.990 . S
O0 C14 1.253 . S
Mg1 O0 1.990 . S
Mg1 O4 2.180 . S
Mg1 O5 2.117 1_455 S
Mg1 O19 2.030 . S
O2 Mg3 2.072 . S
O2 C14 1.260 . S
Mg3 O2 2.072 . S
Mg3 O4 2.099 . S
Mg3 O6 2.079 . S
Mg3 O7 2.072 . S
Mg3 O9 2.099 . S
Mg3 O20 2.079 . S
O4 Mg1 2.180 . S
O4 Mg3 2.099 . S
O4 C15 1.279 . S
O5 Mg1 2.117 1_655 S
O5 C15 1.250 1_655 S
O6 Mg3 2.079 . S
O6 C16 1.264 . S
O7 Mg3 2.072 . S
O7 C17 1.260 . S
Mg8 O9 2.180 . S
Mg8 O10 2.030 . S
Mg8 O11 1.990 . S
Mg8 O12 2.117 . S
O9 Mg3 2.099 . S
O9 Mg8 2.180 . S
O9 C18 1.279 . S
O10 Mg8 2.030 . S
O10 C16 1.248 . S
O11 Mg8 1.990 . S
O11 C17 1.253 . S
O12 Mg8 2.117 . S
O12 C18 1.250 . S
C13 O19 1.248 . S
C13 O20 1.264 . S
C14 O0 1.253 . S
C14 O2 1.260 . S
C15 O4 1.279 . S
C15 O5 1.250 1_455 S
C16 O6 1.264 . S
C16 O10 1.248 . S
C17 O7 1.260 . S
C17 O11 1.253 . S
C18 O9 1.279 . S
C18 O12 1.250 . S
O19 Mg1 2.030 . S
O19 C13 1.248 . S
O20 Mg3 2.079 . S
O20 C13 1.264 . S
O21 Mg22 1.990 . S
O21 C35 1.253 . S
Mg22 O21 1.990 . S
Mg22 O25 2.180 . S
Mg22 O26 2.117 . S
Mg22 O40 2.030 . S
O23 Mg24 2.072 . S
O23 C35 1.260 . S
Mg24 O23 2.072 . S
Mg24 O25 2.099 . S
Mg24 O27 2.079 . S
Mg24 O28 2.072 . S
Mg24 O30 2.099 . S
Mg24 O41 2.079 . S
O25 Mg22 2.180 . S
O25 Mg24 2.099 . S
O25 C36 1.279 . S
O26 Mg22 2.117 . S
O26 C36 1.250 . S
O27 Mg24 2.079 . S
O27 C37 1.264 . S
O28 Mg24 2.072 . S
O28 C38 1.260 . S
Mg29 O30 2.180 . S
Mg29 O31 2.030 . S
Mg29 O32 1.990 . S
Mg29 O33 2.117 . S
O30 Mg24 2.099 . S
O30 Mg29 2.180 . S
O30 C39 1.279 . S
O31 Mg29 2.030 . S
O31 C37 1.248 . S
O32 Mg29 1.990 . S
O32 C38 1.253 . S
O33 Mg29 2.117 . S
O33 C39 1.250 . S
C34 O40 1.248 . S
C34 O41 1.264 . S
C35 O21 1.253 . S
C35 O23 1.260 . S
C36 O25 1.279 . S
C36 O26 1.250 . S
C37 O27 1.264 . S
C37 O31 1.248 . S
C38 O28 1.260 . S
C38 O32 1.253 . S
C39 O30 1.279 . S
C39 O33 1.250 . S
O40 Mg22 2.030 . S
O40 C34 1.248 . S
O41 Mg24 2.079 . S
O41 C34 1.264 . S
O42 Mg43 1.990 . S
O42 C56 1.253 . S
Mg43 O42 1.990 . S
Mg43 O46 2.180 . S
Mg43 O47 2.117 . S
Mg43 O61 2.030 . S
O44 Mg45 2.072 . S
O44 C56 1.260 . S
Mg45 O44 2.072 . S
Mg45 O46 2.099 . S
Mg45 O48 2.079 . S
Mg45 O49 2.072 . S
Mg45 O51 2.099 . S
Mg45 O62 2.079 . S
O46 Mg43 2.180 . S
O46 Mg45 2.099 . S
O46 C57 1.279 . S
O47 Mg43 2.117 . S
O47 C57 1.250 . S
O48 Mg45 2.079 . S
O48 C58 1.264 . S
O49 Mg45 2.072 . S
O49 C59 1.260 . S
Mg50 O51 2.180 . S
Mg50 O52 2.030 . S
Mg50 O53 1.990 . S
Mg50 O54 2.117 . S
O51 Mg45 2.099 . S
O51 Mg50 2.180 . S
O51 C60 1.279 . S
O52 Mg50 2.030 . S
O52 C58 1.248 . S
O53 Mg50 1.990 . S
O53 C59 1.253 . S
O54 Mg50 2.117 . S
O54 C60 1.250 . S
C55 O61 1.248 . S
C55 O62 1.264 . S
C56 O42 1.253 . S
C56 O44 1.260 . S
C57 O46 1.279 . S
C57 O47 1.250 . S
C58 O48 1.264 . S
C58 O52 1.248 . S
C59 O49 1.260 . S
C59 O53 1.253 . S
C60 O51 1.279 . S
C60 O54 1.250 . S
O61 Mg43 2.030 . S
O61 C55 1.248 . S
O62 Mg45 2.079 . S
O62 C55 1.264 . S
O63 Mg64 1.990 . S
O63 C77 1.253 . S
Mg64 O63 1.990 . S
Mg64 O67 2.180 . S
Mg64 O68 2.117 . S
Mg64 O82 2.030 . S
O65 Mg66 2.072 . S
O65 C77 1.260 . S
Mg66 O65 2.072 . S
Mg66 O67 2.099 . S
Mg66 O69 2.079 . S
Mg66 O70 2.072 . S
Mg66 O72 2.099 . S
Mg66 O83 2.079 . S
O67 Mg64 2.180 . S
O67 Mg66 2.099 . S
O67 C78 1.279 . S
O68 Mg64 2.117 . S
O68 C78 1.250 . S
O69 Mg66 2.079 . S
O69 C79 1.264 . S
O70 Mg66 2.072 . S
O70 C80 1.260 . S
Mg71 O72 2.180 . S
Mg71 O73 2.030 . S
Mg71 O74 1.990 . S
Mg71 O75 2.117 1_554 S
O72 Mg66 2.099 . S
O72 Mg71 2.180 . S
O72 C81 1.279 . S
O73 Mg71 2.030 . S
O73 C79 1.248 . S
O74 Mg71 1.990 . S
O74 C80 1.253 . S
O75 Mg71 2.117 1_556 S
O75 C81 1.250 1_556 S
C76 O82 1.248 . S
C76 O83 1.264 . S
C77 O63 1.253 . S
C77 O65 1.260 . S
C78 O67 1.279 . S
C78 O68 1.250 . S
C79 O69 1.264 . S
C79 O73 1.248 . S
C80 O70 1.260 . S
C80 O74 1.253 . S
C81 O72 1.279 . S
C81 O75 1.250 1_554 S
O82 Mg64 2.030 . S
O82 C76 1.248 . S
O83 Mg66 2.079 . S
O83 C76 1.264 . S
O84 Mg85 1.990 . S
O84 C98 1.253 . S
Mg85 O84 1.990 . S
Mg85 O88 2.180 . S
Mg85 O89 2.117 1_455 S
Mg85 O103 2.030 . S
O86 Mg87 2.072 . S
O86 C98 1.260 . S
Mg87 O86 2.072 . S
Mg87 O88 2.099 . S
Mg87 O90 2.079 . S
Mg87 O91 2.072 . S
Mg87 O93 2.099 . S
Mg87 O104 2.079 . S
O88 Mg85 2.180 . S
O88 Mg87 2.099 . S
O88 C99 1.279 . S
O89 Mg85 2.117 1_655 S
O89 C99 1.250 1_655 S
O90 Mg87 2.079 . S
O90 C100 1.264 . S
O91 Mg87 2.072 . S
O91 C101 1.260 . S
Mg92 O93 2.180 . S
Mg92 O94 2.030 . S
Mg92 O95 1.990 . S
Mg92 O96 2.117 . S
O93 Mg87 2.099 . S
O93 Mg92 2.180 . S
O93 C102 1.279 . S
O94 Mg92 2.030 . S
O94 C100 1.248 . S
O95 Mg92 1.990 . S
O95 C101 1.253 . S
O96 Mg92 2.117 . S
O96 C102 1.250 . S
C97 O103 1.248 . S
C97 O104 1.264 . S
C98 O84 1.253 . S
C98 O86 1.260 . S
C99 O88 1.279 . S
C99 O89 1.250 1_455 S
C100 O90 1.264 . S
C100 O94 1.248 . S
C101 O91 1.260 . S
C101 O95 1.253 . S
C102 O93 1.279 . S
C102 O96 1.250 . S
O103 Mg85 2.030 . S
O103 C97 1.248 . S
O104 Mg87 2.079 . S
O104 C97 1.264 . S
O105 Mg106 1.990 . S
O105 C119 1.253 . S
Mg106 O105 1.990 . S
Mg106 O109 2.180 . S
Mg106 O110 2.117 . S
Mg106 O124 2.030 . S
O107 Mg108 2.072 . S
O107 C119 1.260 . S
Mg108 O107 2.072 . S
Mg108 O109 2.099 . S
Mg108 O111 2.079 . S
Mg108 O112 2.072 . S
Mg108 O114 2.099 . S
Mg108 O125 2.079 . S
O109 Mg106 2.180 . S
O109 Mg108 2.099 . S
O109 C120 1.279 . S
O110 Mg106 2.117 . S
O110 C120 1.250 . S
O111 Mg108 2.079 . S
O111 C121 1.264 . S
O112 Mg108 2.072 . S
O112 C122 1.260 . S
Mg113 O114 2.180 . S
Mg113 O115 2.030 . S
Mg113 O116 1.990 . S
Mg113 O117 2.117 . S
O114 Mg108 2.099 . S
O114 Mg113 2.180 . S
O114 C123 1.279 . S
O115 Mg113 2.030 . S
O115 C121 1.248 . S
O116 Mg113 1.990 . S
O116 C122 1.253 . S
O117 Mg113 2.117 . S
O117 C123 1.250 . S
C118 O124 1.248 . S
C118 O125 1.264 . S
C119 O105 1.253 . S
C119 O107 1.260 . S
C120 O109 1.279 . S
C120 O110 1.250 . S
C121 O111 1.264 . S
C121 O115 1.248 . S
C122 O112 1.260 . S
C122 O116 1.253 . S
C123 O114 1.279 . S
C123 O117 1.250 . S
O124 Mg106 2.030 . S
O124 C118 1.248 . S
O125 Mg108 2.079 . S
O125 C118 1.264 . S
O126 Mg127 1.990 . S
O126 C140 1.253 . S
Mg127 O126 1.990 . S
Mg127 O130 2.180 . S
Mg127 O131 2.117 . S
Mg127 O145 2.030 . S
O128 Mg129 2.072 . S
O128 C140 1.260 . S
Mg129 O128 2.072 . S
Mg129 O130 2.099 . S
Mg129 O132 2.079 . S
Mg129 O133 2.072 . S
Mg129 O135 2.099 . S
Mg129 O146 2.079 . S
O130 Mg127 2.180 . S
O130 Mg129 2.099 . S
O130 C141 1.279 . S
O131 Mg127 2.117 . S
O131 C141 1.250 . S
O132 Mg129 2.079 . S
O132 C142 1.264 . S
O133 Mg129 2.072 . S
O133 C143 1.260 . S
Mg134 O135 2.180 . S
Mg134 O136 2.030 . S
Mg134 O137 1.990 . S
Mg134 O138 2.117 . S
O135 Mg129 2.099 . S
O135 Mg134 2.180 . S
O135 C144 1.279 . S
O136 Mg134 2.030 . S
O136 C142 1.248 . S
O137 Mg134 1.990 . S
O137 C143 1.253 . S
O138 Mg134 2.117 . S
O138 C144 1.250 . S
C139 O145 1.248 . S
C139 O146 1.264 . S
C140 O126 1.253 . S
C140 O128 1.260 . S
C141 O130 1.279 . S
C141 O131 1.250 . S
C142 O132 1.264 . S
C142 O136 1.248 . S
C143 O133 1.260 . S
C143 O137 1.253 . S
C144 O135 1.279 . S
C144 O138 1.250 . S
O145 Mg127 2.030 . S
O145 C139 1.248 . S
O146 Mg129 2.079 . S
O146 C139 1.264 . S
O147 Mg148 1.990 . S
O147 C161 1.253 . S
Mg148 O147 1.990 . S
Mg148 O151 2.180 . S
Mg148 O152 2.117 . S
Mg148 O166 2.030 . S
O149 Mg150 2.072 . S
O149 C161 1.260 . S
Mg150 O149 2.072 . S
Mg150 O151 2.099 . S
Mg150 O153 2.079 . S
Mg150 O154 2.072 . S
Mg150 O156 2.099 . S
Mg150 O167 2.079 . S
O151 Mg148 2.180 . S
O151 Mg150 2.099 . S
O151 C162 1.279 . S
O152 Mg148 2.117 . S
O152 C162 1.250 . S
O153 Mg150 2.079 . S
O153 C163 1.264 . S
O154 Mg150 2.072 . S
O154 C164 1.260 . S
Mg155 O156 2.180 . S
Mg155 O157 2.030 . S
Mg155 O158 1.990 . S
Mg155 O159 2.117 1_556 S
O156 Mg150 2.099 . S
O156 Mg155 2.180 . S
O156 C165 1.279 . S
O157 Mg155 2.030 . S
O157 C163 1.248 . S
O158 Mg155 1.990 . S
O158 C164 1.253 . S
O159 Mg155 2.117 1_554 S
O159 C165 1.250 1_554 S
C160 O166 1.248 . S
C160 O167 1.264 . S
C161 O147 1.253 . S
C161 O149 1.260 . S
C162 O151 1.279 . S
C162 O152 1.250 . S
C163 O153 1.264 . S
C163 O157 1.248 . S
C164 O154 1.260 . S
C164 O158 1.253 . S
C165 O156 1.279 . S
C165 O159 1.250 1_556 S
O166 Mg148 2.030 . S
O166 C160 1.248 . S
O167 Mg150 2.079 . S
O167 C160 1.264 . S
O168 Mg169 1.990 . S
O168 C182 1.253 . S
Mg169 O168 1.990 . S
Mg169 O172 2.180 . S
Mg169 O173 2.117 1_545 S
Mg169 O187 2.030 . S
O170 Mg171 2.072 . S
O170 C182 1.260 . S
Mg171 O170 2.072 . S
Mg171 O172 2.099 . S
Mg171 O174 2.079 . S
Mg171 O175 2.072 . S
Mg171 O177 2.099 . S
Mg171 O188 2.079 . S
O172 Mg169 2.180 . S
O172 Mg171 2.099 . S
O172 C183 1.279 . S
O173 Mg169 2.117 1_565 S
O173 C183 1.250 1_565 S
O174 Mg171 2.079 . S
O174 C184 1.264 . S
O175 Mg171 2.072 . S
O175 C185 1.260 . S
Mg176 O177 2.180 . S
Mg176 O178 2.030 . S
Mg176 O179 1.990 . S
Mg176 O180 2.117 . S
O177 Mg171 2.099 . S
O177 Mg176 2.180 . S
O177 C186 1.279 . S
O178 Mg176 2.030 . S
O178 C184 1.248 . S
O179 Mg176 1.990 . S
O179 C185 1.253 . S
O180 Mg176 2.117 . S
O180 C186 1.250 . S
C181 O187 1.248 . S
C181 O188 1.264 . S
C182 O168 1.253 . S
C182 O170 1.260 . S
C183 O172 1.279 . S
C183 O173 1.250 1_545 S
C184 O174 1.264 . S
C184 O178 1.248 . S
C185 O175 1.260 . S
C185 O179 1.253 . S
C186 O177 1.279 . S
C186 O180 1.250 . S
O187 Mg169 2.030 . S
O187 C181 1.248 . S
O188 Mg171 2.079 . S
O188 C181 1.264 . S
O189 Mg190 1.990 . S
O189 C203 1.253 . S
Mg190 O189 1.990 . S
Mg190 O193 2.180 . S
Mg190 O194 2.117 1_545 S
Mg190 O208 2.030 . S
O191 Mg192 2.072 . S
O191 C203 1.260 . S
Mg192 O191 2.072 . S
Mg192 O193 2.099 . S
Mg192 O195 2.079 . S
Mg192 O196 2.072 . S
Mg192 O198 2.099 . S
Mg192 O209 2.079 . S
O193 Mg190 2.180 . S
O193 Mg192 2.099 . S
O193 C204 1.279 . S
O194 Mg190 2.117 1_565 S
O194 C204 1.250 1_565 S
O195 Mg192 2.079 . S
O195 C205 1.264 . S
O196 Mg192 2.072 . S
O196 C206 1.260 . S
Mg197 O198 2.180 . S
Mg197 O199 2.030 . S
Mg197 O200 1.990 . S
Mg197 O201 2.117 . S
O198 Mg192 2.099 . S
O198 Mg197 2.180 . S
O198 C207 1.279 . S
O199 Mg197 2.030 . S
O199 C205 1.248 . S
O200 Mg197 1.990 . S
O200 C206 1.253 . S
O201 Mg197 2.117 . S
O201 C207 1.250 . S
C202 O208 1.248 . S
C202 O209 1.264 . S
C203 O189 1.253 . S
C203 O191 1.260 . S
C204 O193 1.279 . S
C204 O194 1.250 1_545 S
C205 O195 1.264 . S
C205 O199 1.248 . S
C206 O196 1.260 . S
C206 O200 1.253 . S
C207 O198 1.279 . S
C207 O201 1.250 . S
O208 Mg190 2.030 . S
O208 C202 1.248 . S
O209 Mg192 2.079 . S
O209 C202 1.264 . S
O210 Mg211 1.990 . S
O210 C224 1.253 . S
Mg211 O210 1.990 . S
Mg211 O214 2.180 . S
Mg211 O215 2.117 1_565 S
Mg211 O229 2.030 . S
O212 Mg213 2.072 . S
O212 C224 1.260 . S
Mg213 O212 2.072 . S
Mg213 O214 2.099 . S
Mg213 O216 2.079 . S
Mg213 O217 2.072 . S
Mg213 O219 2.099 . S
Mg213 O230 2.079 . S
O214 Mg211 2.180 . S
O214 Mg213 2.099 . S
O214 C225 1.279 . S
O215 Mg211 2.117 1_545 S
O215 C225 1.250 1_545 S
O216 Mg213 2.079 . S
O216 C226 1.264 . S
O217 Mg213 2.072 . S
O217 C227 1.260 . S
Mg218 O219 2.180 . S
Mg218 O220 2.030 . S
Mg218 O221 1.990 . S
Mg218 O222 2.117 . S
O219 Mg213 2.099 . S
O219 Mg218 2.180 . S
O219 C228 1.279 . S
O220 Mg218 2.030 . S
O220 C226 1.248 . S
O221 Mg218 1.990 . S
O221 C227 1.253 . S
O222 Mg218 2.117 . S
O222 C228 1.250 . S
C223 O229 1.248 . S
C223 O230 1.264 . S
C224 O210 1.253 . S
C224 O212 1.260 . S
C225 O214 1.279 . S
C225 O215 1.250 1_565 S
C226 O216 1.264 . S
C226 O220 1.248 . S
C227 O217 1.260 . S
C227 O221 1.253 . S
C228 O219 1.279 . S
C228 O222 1.250 . S
O229 Mg211 2.030 . S
O229 C223 1.248 . S
O230 Mg213 2.079 . S
O230 C223 1.264 . S
O231 Mg232 1.990 . S
O231 C245 1.253 . S
Mg232 O231 1.990 . S
Mg232 O235 2.180 . S
Mg232 O236 2.117 . S
Mg232 O250 2.030 . S
O233 Mg234 2.072 . S
O233 C245 1.260 . S
Mg234 O233 2.072 . S
Mg234 O235 2.099 . S
Mg234 O237 2.079 . S
Mg234 O238 2.072 . S
Mg234 O240 2.099 . S
Mg234 O251 2.079 . S
O235 Mg232 2.180 . S
O235 Mg234 2.099 . S
O235 C246 1.279 . S
O236 Mg232 2.117 . S
O236 C246 1.250 . S
O237 Mg234 2.079 . S
O237 C247 1.264 . S
O238 Mg234 2.072 . S
O238 C248 1.260 . S
Mg239 O240 2.180 . S
Mg239 O241 2.030 . S
Mg239 O242 1.990 . S
Mg239 O243 2.117 1_565 S
O240 Mg234 2.099 . S
O240 Mg239 2.180 . S
O240 C249 1.279 . S
O241 Mg239 2.030 . S
O241 C247 1.248 . S
O242 Mg239 1.990 . S
O242 C248 1.253 . S
O243 Mg239 2.117 1_545 S
O243 C249 1.250 1_545 S
C244 O250 1.248 . S
C244 O251 1.264 . S
C245 O231 1.253 . S
C245 O233 1.260 . S
C246 O235 1.279 . S
C246 O236 1.250 . S
C247 O237 1.264 . S
C247 O241 1.248 . S
C248 O238 1.260 . S
C248 O242 1.253 . S
C249 O240 1.279 . S
C249 O243 1.250 1_565 S
O250 Mg232 2.030 . S
O250 C244 1.248 . S
O251 Mg234 2.079 . S
O251 C244 1.264 . S
O252 Mg253 1.990 . S
O252 C266 1.253 . S
Mg253 O252 1.990 . S
Mg253 O256 2.180 . S
Mg253 O257 2.117 . S
Mg253 O271 2.030 . S
O254 Mg255 2.072 . S
O254 C266 1.260 . S
Mg255 O254 2.072 . S
Mg255 O256 2.099 . S
Mg255 O258 2.079 . S
Mg255 O259 2.072 . S
Mg255 O261 2.099 . S
Mg255 O272 2.079 . S
O256 Mg253 2.180 . S
O256 Mg255 2.099 . S
O256 C267 1.279 . S
O257 Mg253 2.117 . S
O257 C267 1.250 . S
O258 Mg255 2.079 . S
O258 C268 1.264 . S
O259 Mg255 2.072 . S
O259 C269 1.260 . S
Mg260 O261 2.180 . S
Mg260 O262 2.030 . S
Mg260 O263 1.990 . S
Mg260 O264 2.117 1_554 S
O261 Mg255 2.099 . S
O261 Mg260 2.180 . S
O261 C270 1.279 . S
O262 Mg260 2.030 . S
O262 C268 1.248 . S
O263 Mg260 1.990 . S
O263 C269 1.253 . S
O264 Mg260 2.117 1_556 S
O264 C270 1.250 1_556 S
C265 O271 1.248 . S
C265 O272 1.264 . S
C266 O252 1.253 . S
C266 O254 1.260 . S
C267 O256 1.279 . S
C267 O257 1.250 . S
C268 O258 1.264 . S
C268 O262 1.248 . S
C269 O259 1.260 . S
C269 O263 1.253 . S
C270 O261 1.279 . S
C270 O264 1.250 1_554 S
O271 Mg253 2.030 . S
O271 C265 1.248 . S
O272 Mg255 2.079 . S
O272 C265 1.264 . S
O273 Mg274 1.990 . S
O273 C287 1.253 . S
Mg274 O273 1.990 . S
Mg274 O277 2.180 . S
Mg274 O278 2.117 1_655 S
Mg274 O292 2.030 . S
O275 Mg276 2.072 . S
O275 C287 1.260 . S
Mg276 O275 2.072 . S
Mg276 O277 2.099 . S
Mg276 O279 2.079 . S
Mg276 O280 2.072 . S
Mg276 O282 2.099 . S
Mg276 O293 2.079 . S
O277 Mg274 2.180 . S
O277 Mg276 2.099 . S
O277 C288 1.279 . S
O278 Mg274 2.117 1_455 S
O278 C288 1.250 1_455 S
O279 Mg276 2.079 . S
O279 C289 1.264 . S
O280 Mg276 2.072 . S
O280 C290 1.260 . S
Mg281 O282 2.180 . S
Mg281 O283 2.030 . S
Mg281 O284 1.990 . S
Mg281 O285 2.117 . S
O282 Mg276 2.099 . S
O282 Mg281 2.180 . S
O282 C291 1.279 . S
O283 Mg281 2.030 . S
O283 C289 1.248 . S
O284 Mg281 1.990 . S
O284 C290 1.253 . S
O285 Mg281 2.117 . S
O285 C291 1.250 . S
C286 O292 1.248 . S
C286 O293 1.264 . S
C287 O273 1.253 . S
C287 O275 1.260 . S
C288 O277 1.279 . S
C288 O278 1.250 1_655 S
C289 O279 1.264 . S
C289 O283 1.248 . S
C290 O280 1.260 . S
C290 O284 1.253 . S
C291 O282 1.279 . S
C291 O285 1.250 . S
O292 Mg274 2.030 . S
O292 C286 1.248 . S
O293 Mg276 2.079 . S
O293 C286 1.264 . S
O294 Mg295 1.990 . S
O294 C308 1.253 . S
Mg295 O294 1.990 . S
Mg295 O298 2.180 . S
Mg295 O299 2.117 . S
Mg295 O313 2.030 . S
O296 Mg297 2.072 . S
O296 C308 1.260 . S
Mg297 O296 2.072 . S
Mg297 O298 2.099 . S
Mg297 O300 2.079 . S
Mg297 O301 2.072 . S
Mg297 O303 2.099 . S
Mg297 O314 2.079 . S
O298 Mg295 2.180 . S
O298 Mg297 2.099 . S
O298 C309 1.279 . S
O299 Mg295 2.117 . S
O299 C309 1.250 . S
O300 Mg297 2.079 . S
O300 C310 1.264 . S
O301 Mg297 2.072 . S
O301 C311 1.260 . S
Mg302 O303 2.180 . S
Mg302 O304 2.030 . S
Mg302 O305 1.990 . S
Mg302 O306 2.117 . S
O303 Mg297 2.099 . S
O303 Mg302 2.180 . S
O303 C312 1.279 . S
O304 Mg302 2.030 . S
O304 C310 1.248 . S
O305 Mg302 1.990 . S
O305 C311 1.253 . S
O306 Mg302 2.117 . S
O306 C312 1.250 . S
C307 O313 1.248 . S
C307 O314 1.264 . S
C308 O294 1.253 . S
C308 O296 1.260 . S
C309 O298 1.279 . S
C309 O299 1.250 . S
C310 O300 1.264 . S
C310 O304 1.248 . S
C311 O301 1.260 . S
C311 O305 1.253 . S
C312 O303 1.279 . S
C312 O306 1.250 . S
O313 Mg295 2.030 . S
O313 C307 1.248 . S
O314 Mg297 2.079 . S
O314 C307 1.264 . S
O315 Mg316 1.990 . S
O315 C329 1.253 . S
Mg316 O315 1.990 . S
Mg316 O319 2.180 . S
Mg316 O320 2.117 1_655 S
Mg316 O334 2.030 . S
O317 Mg318 2.072 . S
O317 C329 1.260 . S
Mg318 O317 2.072 . S
Mg318 O319 2.099 . S
Mg318 O321 2.079 . S
Mg318 O322 2.072 . S
Mg318 O324 2.099 . S
Mg318 O335 2.079 . S
O319 Mg316 2.180 . S
O319 Mg318 2.099 . S
O319 C330 1.279 . S
O320 Mg316 2.117 1_455 S
O320 C330 1.250 1_455 S
O321 Mg318 2.079 . S
O321 C331 1.264 . S
O322 Mg318 2.072 . S
O322 C332 1.260 . S
Mg323 O324 2.180 . S
Mg323 O325 2.030 . S
Mg323 O326 1.990 . S
Mg323 O327 2.117 . S
O324 Mg318 2.099 . S
O324 Mg323 2.180 . S
O324 C333 1.279 . S
O325 Mg323 2.030 . S
O325 C331 1.248 . S
O326 Mg323 1.990 . S
O326 C332 1.253 . S
O327 Mg323 2.117 . S
O327 C333 1.250 . S
C328 O334 1.248 . S
C328 O335 1.264 . S
C329 O315 1.253 . S
C329 O317 1.260 . S
C330 O319 1.279 . S
C330 O320 1.250 1_655 S
C331 O321 1.264 . S
C331 O325 1.248 . S
C332 O322 1.260 . S
C332 O326 1.253 . S
C333 O324 1.279 . S
C333 O327 1.250 . S
O334 Mg316 2.030 . S
O334 C328 1.248 . S
O335 Mg318 2.079 . S
O335 C328 1.264 . S
O336 Mg337 1.990 . S
O336 C350 1.253 . S
Mg337 O336 1.990 . S
Mg337 O340 2.180 . S
Mg337 O341 2.117 . S
Mg337 O355 2.030 . S
O338 Mg339 2.072 . S
O338 C350 1.260 . S
Mg339 O338 2.072 . S
Mg339 O340 2.099 . S
Mg339 O342 2.079 . S
Mg339 O343 2.072 . S
Mg339 O345 2.099 . S
Mg339 O356 2.079 . S
O340 Mg337 2.180 . S
O340 Mg339 2.099 . S
O340 C351 1.279 . S
O341 Mg337 2.117 . S
O341 C351 1.250 . S
O342 Mg339 2.079 . S
O342 C352 1.264 . S
O343 Mg339 2.072 . S
O343 C353 1.260 . S
Mg344 O345 2.180 . S
Mg344 O346 2.030 . S
Mg344 O347 1.990 . S
Mg344 O348 2.117 . S
O345 Mg339 2.099 . S
O345 Mg344 2.180 . S
O345 C354 1.279 . S
O346 Mg344 2.030 . S
O346 C352 1.248 . S
O347 Mg344 1.990 . S
O347 C353 1.253 . S
O348 Mg344 2.117 . S
O348 C354 1.250 . S
C349 O355 1.248 . S
C349 O356 1.264 . S
C350 O336 1.253 . S
C350 O338 1.260 . S
C351 O340 1.279 . S
C351 O341 1.250 . S
C352 O342 1.264 . S
C352 O346 1.248 . S
C353 O343 1.260 . S
C353 O347 1.253 . S
C354 O345 1.279 . S
C354 O348 1.250 . S
O355 Mg337 2.030 . S
O355 C349 1.248 . S
O356 Mg339 2.079 . S
O356 C349 1.264 . S
O357 Mg358 1.990 . S
O357 C371 1.253 . S
Mg358 O357 1.990 . S
Mg358 O361 2.180 . S
Mg358 O362 2.117 . S
Mg358 O376 2.030 . S
O359 Mg360 2.072 . S
O359 C371 1.260 . S
Mg360 O359 2.072 . S
Mg360 O361 2.099 . S
Mg360 O363 2.079 . S
Mg360 O364 2.072 . S
Mg360 O366 2.099 . S
Mg360 O377 2.079 . S
O361 Mg358 2.180 . S
O361 Mg360 2.099 . S
O361 C372 1.279 . S
O362 Mg358 2.117 . S
O362 C372 1.250 . S
O363 Mg360 2.079 . S
O363 C373 1.264 . S
O364 Mg360 2.072 . S
O364 C374 1.260 . S
Mg365 O366 2.180 . S
Mg365 O367 2.030 . S
Mg365 O368 1.990 . S
Mg365 O369 2.117 . S
O366 Mg360 2.099 . S
O366 Mg365 2.180 . S
O366 C375 1.279 . S
O367 Mg365 2.030 . S
O367 C373 1.248 . S
O368 Mg365 1.990 . S
O368 C374 1.253 . S
O369 Mg365 2.117 . S
O369 C375 1.250 . S
C370 O376 1.248 . S
C370 O377 1.264 . S
C371 O357 1.253 . S
C371 O359 1.260 . S
C372 O361 1.279 . S
C372 O362 1.250 . S
C373 O363 1.264 . S
C373 O367 1.248 . S
C374 O364 1.260 . S
C374 O368 1.253 . S
C375 O366 1.279 . S
C375 O369 1.250 . S
O376 Mg358 2.030 . S
O376 C370 1.248 . S
O377 Mg360 2.079 . S
O377 C370 1.264 . S
O378 Mg379 1.990 . S
O378 C392 1.253 . S
Mg379 O378 1.990 . S
Mg379 O382 2.180 . S
Mg379 O383 2.117 . S
Mg379 O397 2.030 . S
O380 Mg381 2.072 . S
O380 C392 1.260 . S
Mg381 O380 2.072 . S
Mg381 O382 2.099 . S
Mg381 O384 2.079 . S
Mg381 O385 2.072 . S
Mg381 O387 2.099 . S
Mg381 O398 2.079 . S
O382 Mg379 2.180 . S
O382 Mg381 2.099 . S
O382 C393 1.279 . S
O383 Mg379 2.117 . S
O383 C393 1.250 . S
O384 Mg381 2.079 . S
O384 C394 1.264 . S
O385 Mg381 2.072 . S
O385 C395 1.260 . S
Mg386 O387 2.180 . S
Mg386 O388 2.030 . S
Mg386 O389 1.990 . S
Mg386 O390 2.117 1_556 S
O387 Mg381 2.099 . S
O387 Mg386 2.180 . S
O387 C396 1.279 . S
O388 Mg386 2.030 . S
O388 C394 1.248 . S
O389 Mg386 1.990 . S
O389 C395 1.253 . S
O390 Mg386 2.117 1_554 S
O390 C396 1.250 1_554 S
C391 O397 1.248 . S
C391 O398 1.264 . S
C392 O378 1.253 . S
C392 O380 1.260 . S
C393 O382 1.279 . S
C393 O383 1.250 . S
C394 O384 1.264 . S
C394 O388 1.248 . S
C395 O385 1.260 . S
C395 O389 1.253 . S
C396 O387 1.279 . S
C396 O390 1.250 1_556 S
O397 Mg379 2.030 . S
O397 C391 1.248 . S
O398 Mg381 2.079 . S
O398 C391 1.264 . S
O399 Mg400 1.990 . S
O399 C413 1.253 . S
Mg400 O399 1.990 . S
Mg400 O403 2.180 . S
Mg400 O404 2.117 1_655 S
Mg400 O418 2.030 . S
O401 Mg402 2.072 . S
O401 C413 1.260 . S
Mg402 O401 2.072 . S
Mg402 O403 2.099 . S
Mg402 O405 2.079 . S
Mg402 O406 2.072 . S
Mg402 O408 2.099 . S
Mg402 O419 2.079 . S
O403 Mg400 2.180 . S
O403 Mg402 2.099 . S
O403 C414 1.279 . S
O404 Mg400 2.117 1_455 S
O404 C414 1.250 1_455 S
O405 Mg402 2.079 . S
O405 C415 1.264 . S
O406 Mg402 2.072 . S
O406 C416 1.260 . S
Mg407 O408 2.180 . S
Mg407 O409 2.030 . S
Mg407 O410 1.990 . S
Mg407 O411 2.117 . S
O408 Mg402 2.099 . S
O408 Mg407 2.180 . S
O408 C417 1.279 . S
O409 Mg407 2.030 . S
O409 C415 1.248 . S
O410 Mg407 1.990 . S
O410 C416 1.253 . S
O411 Mg407 2.117 . S
O411 C417 1.250 . S
C412 O418 1.248 . S
C412 O419 1.264 . S
C413 O399 1.253 . S
C413 O401 1.260 . S
C414 O403 1.279 . S
C414 O404 1.250 1_655 S
C415 O405 1.264 . S
C415 O409 1.248 . S
C416 O406 1.260 . S
C416 O410 1.253 . S
C417 O408 1.279 . S
C417 O411 1.250 . S
O418 Mg400 2.030 . S
O418 C412 1.248 . S
O419 Mg402 2.079 . S
O419 C412 1.264 . S
O420 Mg421 1.990 . S
O420 C434 1.253 . S
Mg421 O420 1.990 . S
Mg421 O424 2.180 . S
Mg421 O425 2.117 . S
Mg421 O439 2.030 . S
O422 Mg423 2.072 . S
O422 C434 1.260 . S
Mg423 O422 2.072 . S
Mg423 O424 2.099 . S
Mg423 O426 2.079 . S
Mg423 O427 2.072 . S
Mg423 O429 2.099 . S
Mg423 O440 2.079 . S
O424 Mg421 2.180 . S
O424 Mg423 2.099 . S
O424 C435 1.279 . S
O425 Mg421 2.117 . S
O425 C435 1.250 . S
O426 Mg423 2.079 . S
O426 C436 1.264 . S
O427 Mg423 2.072 . S
O427 C437 1.260 . S
Mg428 O429 2.180 . S
Mg428 O430 2.030 . S
Mg428 O431 1.990 . S
Mg428 O432 2.117 . S
O429 Mg423 2.099 . S
O429 Mg428 2.180 . S
O429 C438 1.279 . S
O430 Mg428 2.030 . S
O430 C436 1.248 . S
O431 Mg428 1.990 . S
O431 C437 1.253 . S
O432 Mg428 2.117 . S
O432 C438 1.250 . S
C433 O439 1.248 . S
C433 O440 1.264 . S
C434 O420 1.253 . S
C434 O422 1.260 . S
C435 O424 1.279 . S
C435 O425 1.250 . S
C436 O426 1.264 . S
C436 O430 1.248 . S
C437 O427 1.260 . S
C437 O431 1.253 . S
C438 O429 1.279 . S
C438 O432 1.250 . S
O439 Mg421 2.030 . S
O439 C433 1.248 . S
O440 Mg423 2.079 . S
O440 C433 1.264 . S
O441 Mg442 1.990 . S
O441 C455 1.253 . S
Mg442 O441 1.990 . S
Mg442 O445 2.180 . S
Mg442 O446 2.117 . S
Mg442 O460 2.030 . S
O443 Mg444 2.072 . S
O443 C455 1.260 . S
Mg444 O443 2.072 . S
Mg444 O445 2.099 . S
Mg444 O447 2.079 . S
Mg444 O448 2.072 . S
Mg444 O450 2.099 . S
Mg444 O461 2.079 . S
O445 Mg442 2.180 . S
O445 Mg444 2.099 . S
O445 C456 1.279 . S
O446 Mg442 2.117 . S
O446 C456 1.250 . S
O447 Mg444 2.079 . S
O447 C457 1.264 . S
O448 Mg444 2.072 . S
O448 C458 1.260 . S
Mg449 O450 2.180 . S
Mg449 O451 2.030 . S
Mg449 O452 1.990 . S
Mg449 O453 2.117 . S
O450 Mg444 2.099 . S
O450 Mg449 2.180 . S
O450 C459 1.279 . S
O451 Mg449 2.030 . S
O451 C457 1.248 . S
O452 Mg449 1.990 . S
O452 C458 1.253 . S
O453 Mg449 2.117 . S
O453 C459 1.250 . S
C454 O460 1.248 . S
C454 O461 1.264 . S
C455 O441 1.253 . S
C455 O443 1.260 . S
C456 O445 1.279 . S
C456 O446 1.250 . S
C457 O447 1.264 . S
C457 O451 1.248 . S
C458 O448 1.260 . S
C458 O452 1.253 . S
C459 O450 1.279 . S
C459 O453 1.250 . S
O460 Mg442 2.030 . S
O460 C454 1.248 . S
O461 Mg444 2.079 . S
O461 C454 1.264 . S
O462 Mg463 1.990 . S
O462 C476 1.253 . S
Mg463 O462 1.990 . S
Mg463 O466 2.180 . S
Mg463 O467 2.117 . S
Mg463 O481 2.030 . S
O464 Mg465 2.072 . S
O464 C476 1.260 . S
Mg465 O464 2.072 . S
Mg465 O466 2.099 . S
Mg465 O468 2.079 . S
Mg465 O469 2.072 . S
Mg465 O471 2.099 . S
Mg465 O482 2.079 . S
O466 Mg463 2.180 . S
O466 Mg465 2.099 . S
O466 C477 1.279 . S
O467 Mg463 2.117 . S
O467 C477 1.250 . S
O468 Mg465 2.079 . S
O468 C478 1.264 . S
O469 Mg465 2.072 . S
O469 C479 1.260 . S
Mg470 O471 2.180 . S
Mg470 O472 2.030 . S
Mg470 O473 1.990 . S
Mg470 O474 2.117 1_554 S
O471 Mg465 2.099 . S
O471 Mg470 2.180 . S
O471 C480 1.279 . S
O472 Mg470 2.030 . S
O472 C478 1.248 . S
O473 Mg470 1.990 . S
O473 C479 1.253 . S
O474 Mg470 2.117 1_556 S
O474 C480 1.250 1_556 S
C475 O481 1.248 . S
C475 O482 1.264 . S
C476 O462 1.253 . S
C476 O464 1.260 . S
C477 O466 1.279 . S
C477 O467 1.250 . S
C478 O468 1.264 . S
C478 O472 1.248 . S
C479 O469 1.260 . S
C479 O473 1.253 . S
C480 O471 1.279 . S
C480 O474 1.250 1_554 S
O481 Mg463 2.030 . S
O481 C475 1.248 . S
O482 Mg465 2.079 . S
O482 C475 1.264 . S
O483 Mg484 1.990 . S
O483 C497 1.253 . S
Mg484 O483 1.990 . S
Mg484 O487 2.180 . S
Mg484 O488 2.117 1_565 S
Mg484 O502 2.030 . S
O485 Mg486 2.072 . S
O485 C497 1.260 . S
Mg486 O485 2.072 . S
Mg486 O487 2.099 . S
Mg486 O489 2.079 . S
Mg486 O490 2.072 . S
Mg486 O492 2.099 . S
Mg486 O503 2.079 . S
O487 Mg484 2.180 . S
O487 Mg486 2.099 . S
O487 C498 1.279 . S
O488 Mg484 2.117 1_545 S
O488 C498 1.250 1_545 S
O489 Mg486 2.079 . S
O489 C499 1.264 . S
O490 Mg486 2.072 . S
O490 C500 1.260 . S
Mg491 O492 2.180 . S
Mg491 O493 2.030 . S
Mg491 O494 1.990 . S
Mg491 O495 2.117 . S
O492 Mg486 2.099 . S
O492 Mg491 2.180 . S
O492 C501 1.279 . S
O493 Mg491 2.030 . S
O493 C499 1.248 . S
O494 Mg491 1.990 . S
O494 C500 1.253 . S
O495 Mg491 2.117 . S
O495 C501 1.250 . S
C496 O502 1.248 . S
C496 O503 1.264 . S
C497 O483 1.253 . S
C497 O485 1.260 . S
C498 O487 1.279 . S
C498 O488 1.250 1_565 S
C499 O489 1.264 . S
C499 O493 1.248 . S
C500 O490 1.260 . S
C500 O494 1.253 . S
C501 O492 1.279 . S
C501 O495 1.250 . S
O502 Mg484 2.030 . S
O502 C496 1.248 . S
O503 Mg486 2.079 . S
O503 C496 1.264 . S
O504 Mg505 1.990 . S
O504 C518 1.253 . S
Mg505 O504 1.990 . S
Mg505 O508 2.180 . S
Mg505 O509 2.117 1_565 S
Mg505 O523 2.030 . S
O506 Mg507 2.072 . S
O506 C518 1.260 . S
Mg507 O506 2.072 . S
Mg507 O508 2.099 . S
Mg507 O510 2.079 . S
Mg507 O511 2.072 . S
Mg507 O513 2.099 . S
Mg507 O524 2.079 . S
O508 Mg505 2.180 . S
O508 Mg507 2.099 . S
O508 C519 1.279 . S
O509 Mg505 2.117 1_545 S
O509 C519 1.250 1_545 S
O510 Mg507 2.079 . S
O510 C520 1.264 . S
O511 Mg507 2.072 . S
O511 C521 1.260 . S
Mg512 O513 2.180 . S
Mg512 O514 2.030 . S
Mg512 O515 1.990 . S
Mg512 O516 2.117 . S
O513 Mg507 2.099 . S
O513 Mg512 2.180 . S
O513 C522 1.279 . S
O514 Mg512 2.030 . S
O514 C520 1.248 . S
O515 Mg512 1.990 . S
O515 C521 1.253 . S
O516 Mg512 2.117 . S
O516 C522 1.250 . S
C517 O523 1.248 . S
C517 O524 1.264 . S
C518 O504 1.253 . S
C518 O506 1.260 . S
C519 O508 1.279 . S
C519 O509 1.250 1_565 S
C520 O510 1.264 . S
C520 O514 1.248 . S
C521 O511 1.260 . S
C521 O515 1.253 . S
C522 O513 1.279 . S
C522 O516 1.250 . S
O523 Mg505 2.030 . S
O523 C517 1.248 . S
O524 Mg507 2.079 . S
O524 C517 1.264 . S
O525 Mg526 1.990 . S
O525 C539 1.253 . S
Mg526 O525 1.990 . S
Mg526 O529 2.180 . S
Mg526 O530 2.117 1_545 S
Mg526 O544 2.030 . S
O527 Mg528 2.072 . S
O527 C539 1.260 . S
Mg528 O527 2.072 . S
Mg528 O529 2.099 . S
Mg528 O531 2.079 . S
Mg528 O532 2.072 . S
Mg528 O534 2.099 . S
Mg528 O545 2.079 . S
O529 Mg526 2.180 . S
O529 Mg528 2.099 . S
O529 C540 1.279 . S
O530 Mg526 2.117 1_565 S
O530 C540 1.250 1_565 S
O531 Mg528 2.079 . S
O531 C541 1.264 . S
O532 Mg528 2.072 . S
O532 C542 1.260 . S
Mg533 O534 2.180 . S
Mg533 O535 2.030 . S
Mg533 O536 1.990 . S
Mg533 O537 2.117 . S
O534 Mg528 2.099 . S
O534 Mg533 2.180 . S
O534 C543 1.279 . S
O535 Mg533 2.030 . S
O535 C541 1.248 . S
O536 Mg533 1.990 . S
O536 C542 1.253 . S
O537 Mg533 2.117 . S
O537 C543 1.250 . S
C538 O544 1.248 . S
C538 O545 1.264 . S
C539 O525 1.253 . S
C539 O527 1.260 . S
C540 O529 1.279 . S
C540 O530 1.250 1_545 S
C541 O531 1.264 . S
C541 O535 1.248 . S
C542 O532 1.260 . S
C542 O536 1.253 . S
C543 O534 1.279 . S
C543 O537 1.250 . S
O544 Mg526 2.030 . S
O544 C538 1.248 . S
O545 Mg528 2.079 . S
O545 C538 1.264 . S
O546 Mg547 1.990 . S
O546 C560 1.253 . S
Mg547 O546 1.990 . S
Mg547 O550 2.180 . S
Mg547 O551 2.117 . S
Mg547 O565 2.030 . S
O548 Mg549 2.072 . S
O548 C560 1.260 . S
Mg549 O548 2.072 . S
Mg549 O550 2.099 . S
Mg549 O552 2.079 . S
Mg549 O553 2.072 . S
Mg549 O555 2.099 . S
Mg549 O566 2.079 . S
O550 Mg547 2.180 . S
O550 Mg549 2.099 . S
O550 C561 1.279 . S
O551 Mg547 2.117 . S
O551 C561 1.250 . S
O552 Mg549 2.079 . S
O552 C562 1.264 . S
O553 Mg549 2.072 . S
O553 C563 1.260 . S
Mg554 O555 2.180 . S
Mg554 O556 2.030 . S
Mg554 O557 1.990 . S
Mg554 O558 2.117 1_545 S
O555 Mg549 2.099 . S
O555 Mg554 2.180 . S
O555 C564 1.279 . S
O556 Mg554 2.030 . S
O556 C562 1.248 . S
O557 Mg554 1.990 . S
O557 C563 1.253 . S
O558 Mg554 2.117 1_565 S
O558 C564 1.250 1_565 S
C559 O565 1.248 . S
C559 O566 1.264 . S
C560 O546 1.253 . S
C560 O548 1.260 . S
C561 O550 1.279 . S
C561 O551 1.250 . S
C562 O552 1.264 . S
C562 O556 1.248 . S
C563 O553 1.260 . S
C563 O557 1.253 . S
C564 O555 1.279 . S
C564 O558 1.250 1_545 S
O565 Mg547 2.030 . S
O565 C559 1.248 . S
O566 Mg549 2.079 . S
O566 C559 1.264 . S
O567 Mg568 1.990 . S
O567 C581 1.253 . S
Mg568 O567 1.990 . S
Mg568 O571 2.180 . S
Mg568 O572 2.117 . S
Mg568 O586 2.030 . S
O569 Mg570 2.072 . S
O569 C581 1.260 . S
Mg570 O569 2.072 . S
Mg570 O571 2.099 . S
Mg570 O573 2.079 . S
Mg570 O574 2.072 . S
Mg570 O576 2.099 . S
Mg570 O587 2.079 . S
O571 Mg568 2.180 . S
O571 Mg570 2.099 . S
O571 C582 1.279 . S
O572 Mg568 2.117 . S
O572 C582 1.250 . S
O573 Mg570 2.079 . S
O573 C583 1.264 . S
O574 Mg570 2.072 . S
O574 C584 1.260 . S
Mg575 O576 2.180 . S
Mg575 O577 2.030 . S
Mg575 O578 1.990 . S
Mg575 O579 2.117 1_556 S
O576 Mg570 2.099 . S
O576 Mg575 2.180 . S
O576 C585 1.279 . S
O577 Mg575 2.030 . S
O577 C583 1.248 . S
O578 Mg575 1.990 . S
O578 C584 1.253 . S
O579 Mg575 2.117 1_554 S
O579 C585 1.250 1_554 S
C580 O586 1.248 . S
C580 O587 1.264 . S
C581 O567 1.253 . S
C581 O569 1.260 . S
C582 O571 1.279 . S
C582 O572 1.250 . S
C583 O573 1.264 . S
C583 O577 1.248 . S
C584 O574 1.260 . S
C584 O578 1.253 . S
C585 O576 1.279 . S
C585 O579 1.250 1_556 S
O586 Mg568 2.030 . S
O586 C580 1.248 . S
O587 Mg570 2.079 . S
O587 C580 1.264 . S
O588 Mg589 1.990 . S
O588 C602 1.253 . S
Mg589 O588 1.990 . S
Mg589 O592 2.180 . S
Mg589 O593 2.117 . S
Mg589 O607 2.030 . S
O590 Mg591 2.072 . S
O590 C602 1.260 . S
Mg591 O590 2.072 . S
Mg591 O592 2.099 . S
Mg591 O594 2.079 . S
Mg591 O595 2.072 . S
Mg591 O597 2.099 . S
Mg591 O608 2.079 . S
O592 Mg589 2.180 . S
O592 Mg591 2.099 . S
O592 C603 1.279 . S
O593 Mg589 2.117 . S
O593 C603 1.250 . S
O594 Mg591 2.079 . S
O594 C604 1.264 . S
O595 Mg591 2.072 . S
O595 C605 1.260 . S
Mg596 O597 2.180 . S
Mg596 O598 2.030 . S
Mg596 O599 1.990 . S
Mg596 O600 2.117 1_455 S
O597 Mg591 2.099 . S
O597 Mg596 2.180 . S
O597 C606 1.279 . S
O598 Mg596 2.030 . S
O598 C604 1.248 . S
O599 Mg596 1.990 . S
O599 C605 1.253 . S
O600 Mg596 2.117 1_655 S
O600 C606 1.250 1_655 S
C601 O607 1.248 . S
C601 O608 1.264 . S
C602 O588 1.253 . S
C602 O590 1.260 . S
C603 O592 1.279 . S
C603 O593 1.250 . S
C604 O594 1.264 . S
C604 O598 1.248 . S
C605 O595 1.260 . S
C605 O599 1.253 . S
C606 O597 1.279 . S
C606 O600 1.250 1_455 S
O607 Mg589 2.030 . S
O607 C601 1.248 . S
O608 Mg591 2.079 . S
O608 C601 1.264 . S
O609 Mg610 1.990 . S
O609 C623 1.253 . S
Mg610 O609 1.990 . S
Mg610 O613 2.180 . S
Mg610 O614 2.117 . S
Mg610 O628 2.030 . S
O611 Mg612 2.072 . S
O611 C623 1.260 . S
Mg612 O611 2.072 . S
Mg612 O613 2.099 . S
Mg612 O615 2.079 . S
Mg612 O616 2.072 . S
Mg612 O618 2.099 . S
Mg612 O629 2.079 . S
O613 Mg610 2.180 . S
O613 Mg612 2.099 . S
O613 C624 1.279 . S
O614 Mg610 2.117 . S
O614 C624 1.250 . S
O615 Mg612 2.079 . S
O615 C625 1.264 . S
O616 Mg612 2.072 . S
O616 C626 1.260 . S
Mg617 O618 2.180 . S
Mg617 O619 2.030 . S
Mg617 O620 1.990 . S
Mg617 O621 2.117 . S
O618 Mg612 2.099 . S
O618 Mg617 2.180 . S
O618 C627 1.279 . S
O619 Mg617 2.030 . S
O619 C625 1.248 . S
O620 Mg617 1.990 . S
O620 C626 1.253 . S
O621 Mg617 2.117 . S
O621 C627 1.250 . S
C622 O628 1.248 . S
C622 O629 1.264 . S
C623 O609 1.253 . S
C623 O611 1.260 . S
C624 O613 1.279 . S
C624 O614 1.250 . S
C625 O615 1.264 . S
C625 O619 1.248 . S
C626 O616 1.260 . S
C626 O620 1.253 . S
C627 O618 1.279 . S
C627 O621 1.250 . S
O628 Mg610 2.030 . S
O628 C622 1.248 . S
O629 Mg612 2.079 . S
O629 C622 1.264 . S
O630 Mg631 1.990 . S
O630 C644 1.253 . S
Mg631 O630 1.990 . S
Mg631 O634 2.180 . S
Mg631 O635 2.117 . S
Mg631 O649 2.030 . S
O632 Mg633 2.072 . S
O632 C644 1.260 . S
Mg633 O632 2.072 . S
Mg633 O634 2.099 . S
Mg633 O636 2.079 . S
Mg633 O637 2.072 . S
Mg633 O639 2.099 . S
Mg633 O650 2.079 . S
O634 Mg631 2.180 . S
O634 Mg633 2.099 . S
O634 C645 1.279 . S
O635 Mg631 2.117 . S
O635 C645 1.250 . S
O636 Mg633 2.079 . S
O636 C646 1.264 . S
O637 Mg633 2.072 . S
O637 C647 1.260 . S
Mg638 O639 2.180 . S
Mg638 O640 2.030 . S
Mg638 O641 1.990 . S
Mg638 O642 2.117 . S
O639 Mg633 2.099 . S
O639 Mg638 2.180 . S
O639 C648 1.279 . S
O640 Mg638 2.030 . S
O640 C646 1.248 . S
O641 Mg638 1.990 . S
O641 C647 1.253 . S
O642 Mg638 2.117 . S
O642 C648 1.250 . S
C643 O649 1.248 . S
C643 O650 1.264 . S
C644 O630 1.253 . S
C644 O632 1.260 . S
C645 O634 1.279 . S
C645 O635 1.250 . S
C646 O636 1.264 . S
C646 O640 1.248 . S
C647 O637 1.260 . S
C647 O641 1.253 . S
C648 O639 1.279 . S
C648 O642 1.250 . S
O649 Mg631 2.030 . S
O649 C643 1.248 . S
O650 Mg633 2.079 . S
O650 C643 1.264 . S
O651 Mg652 1.990 . S
O651 C665 1.253 . S
Mg652 O651 1.990 . S
Mg652 O655 2.180 . S
Mg652 O656 2.117 1_655 S
Mg652 O670 2.030 . S
O653 Mg654 2.072 . S
O653 C665 1.260 . S
Mg654 O653 2.072 . S
Mg654 O655 2.099 . S
Mg654 O657 2.079 . S
Mg654 O658 2.072 . S
Mg654 O660 2.099 . S
Mg654 O671 2.079 . S
O655 Mg652 2.180 . S
O655 Mg654 2.099 . S
O655 C666 1.279 . S
O656 Mg652 2.117 1_455 S
O656 C666 1.250 1_455 S
O657 Mg654 2.079 . S
O657 C667 1.264 . S
O658 Mg654 2.072 . S
O658 C668 1.260 . S
Mg659 O660 2.180 . S
Mg659 O661 2.030 . S
Mg659 O662 1.990 . S
Mg659 O663 2.117 . S
O660 Mg654 2.099 . S
O660 Mg659 2.180 . S
O660 C669 1.279 . S
O661 Mg659 2.030 . S
O661 C667 1.248 . S
O662 Mg659 1.990 . S
O662 C668 1.253 . S
O663 Mg659 2.117 . S
O663 C669 1.250 . S
C664 O670 1.248 . S
C664 O671 1.264 . S
C665 O651 1.253 . S
C665 O653 1.260 . S
C666 O655 1.279 . S
C666 O656 1.250 1_655 S
C667 O657 1.264 . S
C667 O661 1.248 . S
C668 O658 1.260 . S
C668 O662 1.253 . S
C669 O660 1.279 . S
C669 O663 1.250 . S
O670 Mg652 2.030 . S
O670 C664 1.248 . S
O671 Mg654 2.079 . S
O671 C664 1.264 . S
O672 Mg673 1.990 . S
O672 C686 1.253 . S
Mg673 O672 1.990 . S
Mg673 O676 2.180 . S
Mg673 O677 2.117 . S
Mg673 O691 2.030 . S
O674 Mg675 2.072 . S
O674 C686 1.260 . S
Mg675 O674 2.072 . S
Mg675 O676 2.099 . S
Mg675 O678 2.079 . S
Mg675 O679 2.072 . S
Mg675 O681 2.099 . S
Mg675 O692 2.079 . S
O676 Mg673 2.180 . S
O676 Mg675 2.099 . S
O676 C687 1.279 . S
O677 Mg673 2.117 . S
O677 C687 1.250 . S
O678 Mg675 2.079 . S
O678 C688 1.264 . S
O679 Mg675 2.072 . S
O679 C689 1.260 . S
Mg680 O681 2.180 . S
Mg680 O682 2.030 . S
Mg680 O683 1.990 . S
Mg680 O684 2.117 . S
O681 Mg675 2.099 . S
O681 Mg680 2.180 . S
O681 C690 1.279 . S
O682 Mg680 2.030 . S
O682 C688 1.248 . S
O683 Mg680 1.990 . S
O683 C689 1.253 . S
O684 Mg680 2.117 . S
O684 C690 1.250 . S
C685 O691 1.248 . S
C685 O692 1.264 . S
C686 O672 1.253 . S
C686 O674 1.260 . S
C687 O676 1.279 . S
C687 O677 1.250 . S
C688 O678 1.264 . S
C688 O682 1.248 . S
C689 O679 1.260 . S
C689 O683 1.253 . S
C690 O681 1.279 . S
C690 O684 1.250 . S
O691 Mg673 2.030 . S
O691 C685 1.248 . S
O692 Mg675 2.079 . S
O692 C685 1.264 . S
O693 Mg694 1.990 . S
O693 C707 1.253 . S
Mg694 O693 1.990 . S
Mg694 O697 2.180 . S
Mg694 O698 2.117 . S
Mg694 O712 2.030 . S
O695 Mg696 2.072 . S
O695 C707 1.260 . S
Mg696 O695 2.072 . S
Mg696 O697 2.099 . S
Mg696 O699 2.079 . S
Mg696 O700 2.072 . S
Mg696 O702 2.099 . S
Mg696 O713 2.079 . S
O697 Mg694 2.180 . S
O697 Mg696 2.099 . S
O697 C708 1.279 . S
O698 Mg694 2.117 . S
O698 C708 1.250 . S
O699 Mg696 2.079 . S
O699 C709 1.264 . S
O700 Mg696 2.072 . S
O700 C710 1.260 . S
Mg701 O702 2.180 . S
Mg701 O703 2.030 . S
Mg701 O704 1.990 . S
Mg701 O705 2.117 1_556 S
O702 Mg696 2.099 . S
O702 Mg701 2.180 . S
O702 C711 1.279 . S
O703 Mg701 2.030 . S
O703 C709 1.248 . S
O704 Mg701 1.990 . S
O704 C710 1.253 . S
O705 Mg701 2.117 1_554 S
O705 C711 1.250 1_554 S
C706 O712 1.248 . S
C706 O713 1.264 . S
C707 O693 1.253 . S
C707 O695 1.260 . S
C708 O697 1.279 . S
C708 O698 1.250 . S
C709 O699 1.264 . S
C709 O703 1.248 . S
C710 O700 1.260 . S
C710 O704 1.253 . S
C711 O702 1.279 . S
C711 O705 1.250 1_556 S
O712 Mg694 2.030 . S
O712 C706 1.248 . S
O713 Mg696 2.079 . S
O713 C706 1.264 . S
O714 Mg715 1.990 . S
O714 C728 1.253 . S
Mg715 O714 1.990 . S
Mg715 O718 2.180 . S
Mg715 O719 2.117 . S
Mg715 O733 2.030 . S
O716 Mg717 2.072 . S
O716 C728 1.260 . S
Mg717 O716 2.072 . S
Mg717 O718 2.099 . S
Mg717 O720 2.079 . S
Mg717 O721 2.072 . S
Mg717 O723 2.099 . S
Mg717 O734 2.079 . S
O718 Mg715 2.180 . S
O718 Mg717 2.099 . S
O718 C729 1.279 . S
O719 Mg715 2.117 . S
O719 C729 1.250 . S
O720 Mg717 2.079 . S
O720 C730 1.264 . S
O721 Mg717 2.072 . S
O721 C731 1.260 . S
Mg722 O723 2.180 . S
Mg722 O724 2.030 . S
Mg722 O725 1.990 . S
Mg722 O726 2.117 . S
O723 Mg717 2.099 . S
O723 Mg722 2.180 . S
O723 C732 1.279 . S
O724 Mg722 2.030 . S
O724 C730 1.248 . S
O725 Mg722 1.990 . S
O725 C731 1.253 . S
O726 Mg722 2.117 . S
O726 C732 1.250 . S
C727 O733 1.248 . S
C727 O734 1.264 . S
C728 O714 1.253 . S
C728 O716 1.260 . S
C729 O718 1.279 . S
C729 O719 1.250 . S
C730 O720 1.264 . S
C730 O724 1.248 . S
C731 O721 1.260 . S
C731 O725 1.253 . S
C732 O723 1.279 . S
C732 O726 1.250 . S
O733 Mg715 2.030 . S
O733 C727 1.248 . S
O734 Mg717 2.079 . S
O734 C727 1.264 . S
O735 Mg736 1.990 . S
O735 C749 1.253 . S
Mg736 O735 1.990 . S
Mg736 O739 2.180 . S
Mg736 O740 2.117 . S
Mg736 O754 2.030 . S
O737 Mg738 2.072 . S
O737 C749 1.260 . S
Mg738 O737 2.072 . S
Mg738 O739 2.099 . S
Mg738 O741 2.079 . S
Mg738 O742 2.072 . S
Mg738 O744 2.099 . S
Mg738 O755 2.079 . S
O739 Mg736 2.180 . S
O739 Mg738 2.099 . S
O739 C750 1.279 . S
O740 Mg736 2.117 . S
O740 C750 1.250 . S
O741 Mg738 2.079 . S
O741 C751 1.264 . S
O742 Mg738 2.072 . S
O742 C752 1.260 . S
Mg743 O744 2.180 . S
Mg743 O745 2.030 . S
Mg743 O746 1.990 . S
Mg743 O747 2.117 . S
O744 Mg738 2.099 . S
O744 Mg743 2.180 . S
O744 C753 1.279 . S
O745 Mg743 2.030 . S
O745 C751 1.248 . S
O746 Mg743 1.990 . S
O746 C752 1.253 . S
O747 Mg743 2.117 . S
O747 C753 1.250 . S
C748 O754 1.248 . S
C748 O755 1.264 . S
C749 O735 1.253 . S
C749 O737 1.260 . S
C750 O739 1.279 . S
C750 O740 1.250 . S
C751 O741 1.264 . S
C751 O745 1.248 . S
C752 O742 1.260 . S
C752 O746 1.253 . S
C753 O744 1.279 . S
C753 O747 1.250 . S
O754 Mg736 2.030 . S
O754 C748 1.248 . S
O755 Mg738 2.079 . S
O755 C748 1.264 . S
O756 Mg757 1.990 . S
O756 C770 1.253 . S
Mg757 O756 1.990 . S
Mg757 O760 2.180 . S
Mg757 O761 2.117 . S
Mg757 O775 2.030 . S
O758 Mg759 2.072 . S
O758 C770 1.260 . S
Mg759 O758 2.072 . S
Mg759 O760 2.099 . S
Mg759 O762 2.079 . S
Mg759 O763 2.072 . S
Mg759 O765 2.099 . S
Mg759 O776 2.079 . S
O760 Mg757 2.180 . S
O760 Mg759 2.099 . S
O760 C771 1.279 . S
O761 Mg757 2.117 . S
O761 C771 1.250 . S
O762 Mg759 2.079 . S
O762 C772 1.264 . S
O763 Mg759 2.072 . S
O763 C773 1.260 . S
Mg764 O765 2.180 . S
Mg764 O766 2.030 . S
Mg764 O767 1.990 . S
Mg764 O768 2.117 . S
O765 Mg759 2.099 . S
O765 Mg764 2.180 . S
O765 C774 1.279 . S
O766 Mg764 2.030 . S
O766 C772 1.248 . S
O767 Mg764 1.990 . S
O767 C773 1.253 . S
O768 Mg764 2.117 . S
O768 C774 1.250 . S
C769 O775 1.248 . S
C769 O776 1.264 . S
C770 O756 1.253 . S
C770 O758 1.260 . S
C771 O760 1.279 . S
C771 O761 1.250 . S
C772 O762 1.264 . S
C772 O766 1.248 . S
C773 O763 1.260 . S
C773 O767 1.253 . S
C774 O765 1.279 . S
C774 O768 1.250 . S
O775 Mg757 2.030 . S
O775 C769 1.248 . S
O776 Mg759 2.079 . S
O776 C769 1.264 . S
O777 Mg778 1.990 . S
O777 C791 1.253 . S
Mg778 O777 1.990 . S
Mg778 O781 2.180 . S
Mg778 O782 2.117 . S
Mg778 O796 2.030 . S
O779 Mg780 2.072 . S
O779 C791 1.260 . S
Mg780 O779 2.072 . S
Mg780 O781 2.099 . S
Mg780 O783 2.079 . S
Mg780 O784 2.072 . S
Mg780 O786 2.099 . S
Mg780 O797 2.079 . S
O781 Mg778 2.180 . S
O781 Mg780 2.099 . S
O781 C792 1.279 . S
O782 Mg778 2.117 . S
O782 C792 1.250 . S
O783 Mg780 2.079 . S
O783 C793 1.264 . S
O784 Mg780 2.072 . S
O784 C794 1.260 . S
Mg785 O786 2.180 . S
Mg785 O787 2.030 . S
Mg785 O788 1.990 . S
Mg785 O789 2.117 . S
O786 Mg780 2.099 . S
O786 Mg785 2.180 . S
O786 C795 1.279 . S
O787 Mg785 2.030 . S
O787 C793 1.248 . S
O788 Mg785 1.990 . S
O788 C794 1.253 . S
O789 Mg785 2.117 . S
O789 C795 1.250 . S
C790 O796 1.248 . S
C790 O797 1.264 . S
C791 O777 1.253 . S
C791 O779 1.260 . S
C792 O781 1.279 . S
C792 O782 1.250 . S
C793 O783 1.264 . S
C793 O787 1.248 . S
C794 O784 1.260 . S
C794 O788 1.253 . S
C795 O786 1.279 . S
C795 O789 1.250 . S
O796 Mg778 2.030 . S
O796 C790 1.248 . S
O797 Mg780 2.079 . S
O797 C790 1.264 . S
O798 Mg799 1.990 . S
O798 C812 1.253 . S
Mg799 O798 1.990 . S
Mg799 O802 2.180 . S
Mg799 O803 2.117 . S
Mg799 O817 2.030 . S
O800 Mg801 2.072 . S
O800 C812 1.260 . S
Mg801 O800 2.072 . S
Mg801 O802 2.099 . S
Mg801 O804 2.079 . S
Mg801 O805 2.072 . S
Mg801 O807 2.099 . S
Mg801 O818 2.079 . S
O802 Mg799 2.180 . S
O802 Mg801 2.099 . S
O802 C813 1.279 . S
O803 Mg799 2.117 . S
O803 C813 1.250 . S
O804 Mg801 2.079 . S
O804 C814 1.264 . S
O805 Mg801 2.072 . S
O805 C815 1.260 . S
Mg806 O807 2.180 . S
Mg806 O808 2.030 . S
Mg806 O809 1.990 . S
Mg806 O810 2.117 . S
O807 Mg801 2.099 . S
O807 Mg806 2.180 . S
O807 C816 1.279 . S
O808 Mg806 2.030 . S
O808 C814 1.248 . S
O809 Mg806 1.990 . S
O809 C815 1.253 . S
O810 Mg806 2.117 . S
O810 C816 1.250 . S
C811 O817 1.248 . S
C811 O818 1.264 . S
C812 O798 1.253 . S
C812 O800 1.260 . S
C813 O802 1.279 . S
C813 O803 1.250 . S
C814 O804 1.264 . S
C814 O808 1.248 . S
C815 O805 1.260 . S
C815 O809 1.253 . S
C816 O807 1.279 . S
C816 O810 1.250 . S
O817 Mg799 2.030 . S
O817 C811 1.248 . S
O818 Mg801 2.079 . S
O818 C811 1.264 . S
O819 Mg820 1.990 . S
O819 C833 1.253 . S
Mg820 O819 1.990 . S
Mg820 O823 2.180 . S
Mg820 O824 2.117 . S
Mg820 O838 2.030 . S
O821 Mg822 2.072 . S
O821 C833 1.260 . S
Mg822 O821 2.072 . S
Mg822 O823 2.099 . S
Mg822 O825 2.079 . S
Mg822 O826 2.072 . S
Mg822 O828 2.099 . S
Mg822 O839 2.079 . S
O823 Mg820 2.180 . S
O823 Mg822 2.099 . S
O823 C834 1.279 . S
O824 Mg820 2.117 . S
O824 C834 1.250 . S
O825 Mg822 2.079 . S
O825 C835 1.264 . S
O826 Mg822 2.072 . S
O826 C836 1.260 . S
Mg827 O828 2.180 . S
Mg827 O829 2.030 . S
Mg827 O830 1.990 . S
Mg827 O831 2.117 . S
O828 Mg822 2.099 . S
O828 Mg827 2.180 . S
O828 C837 1.279 . S
O829 Mg827 2.030 . S
O829 C835 1.248 . S
O830 Mg827 1.990 . S
O830 C836 1.253 . S
O831 Mg827 2.117 . S
O831 C837 1.250 . S
C832 O838 1.248 . S
C832 O839 1.264 . S
C833 O819 1.253 . S
C833 O821 1.260 . S
C834 O823 1.279 . S
C834 O824 1.250 . S
C835 O825 1.264 . S
C835 O829 1.248 . S
C836 O826 1.260 . S
C836 O830 1.253 . S
C837 O828 1.279 . S
C837 O831 1.250 . S
O838 Mg820 2.030 . S
O838 C832 1.248 . S
O839 Mg822 2.079 . S
O839 C832 1.264 . S
O840 Mg841 1.990 . S
O840 C854 1.253 . S
Mg841 O840 1.990 . S
Mg841 O844 2.180 . S
Mg841 O845 2.117 . S
Mg841 O859 2.030 . S
O842 Mg843 2.072 . S
O842 C854 1.260 . S
Mg843 O842 2.072 . S
Mg843 O844 2.099 . S
Mg843 O846 2.079 . S
Mg843 O847 2.072 . S
Mg843 O849 2.099 . S
Mg843 O860 2.079 . S
O844 Mg841 2.180 . S
O844 Mg843 2.099 . S
O844 C855 1.279 . S
O845 Mg841 2.117 . S
O845 C855 1.250 . S
O846 Mg843 2.079 . S
O846 C856 1.264 . S
O847 Mg843 2.072 . S
O847 C857 1.260 . S
Mg848 O849 2.180 . S
Mg848 O850 2.030 . S
Mg848 O851 1.990 . S
Mg848 O852 2.117 1_455 S
O849 Mg843 2.099 . S
O849 Mg848 2.180 . S
O849 C858 1.279 . S
O850 Mg848 2.030 . S
O850 C856 1.248 . S
O851 Mg848 1.990 . S
O851 C857 1.253 . S
O852 Mg848 2.117 1_655 S
O852 C858 1.250 1_655 S
C853 O859 1.248 . S
C853 O860 1.264 . S
C854 O840 1.253 . S
C854 O842 1.260 . S
C855 O844 1.279 . S
C855 O845 1.250 . S
C856 O846 1.264 . S
C856 O850 1.248 . S
C857 O847 1.260 . S
C857 O851 1.253 . S
C858 O849 1.279 . S
C858 O852 1.250 1_455 S
O859 Mg841 2.030 . S
O859 C853 1.248 . S
O860 Mg843 2.079 . S
O860 C853 1.264 . S
O861 Mg862 1.990 . S
O861 C875 1.253 . S
Mg862 O861 1.990 . S
Mg862 O865 2.180 . S
Mg862 O866 2.117 . S
Mg862 O880 2.030 . S
O863 Mg864 2.072 . S
O863 C875 1.260 . S
Mg864 O863 2.072 . S
Mg864 O865 2.099 . S
Mg864 O867 2.079 . S
Mg864 O868 2.072 . S
Mg864 O870 2.099 . S
Mg864 O881 2.079 . S
O865 Mg862 2.180 . S
O865 Mg864 2.099 . S
O865 C876 1.279 . S
O866 Mg862 2.117 . S
O866 C876 1.250 . S
O867 Mg864 2.079 . S
O867 C877 1.264 . S
O868 Mg864 2.072 . S
O868 C878 1.260 . S
Mg869 O870 2.180 . S
Mg869 O871 2.030 . S
Mg869 O872 1.990 . S
Mg869 O873 2.117 . S
O870 Mg864 2.099 . S
O870 Mg869 2.180 . S
O870 C879 1.279 . S
O871 Mg869 2.030 . S
O871 C877 1.248 . S
O872 Mg869 1.990 . S
O872 C878 1.253 . S
O873 Mg869 2.117 . S
O873 C879 1.250 . S
C874 O880 1.248 . S
C874 O881 1.264 . S
C875 O861 1.253 . S
C875 O863 1.260 . S
C876 O865 1.279 . S
C876 O866 1.250 . S
C877 O867 1.264 . S
C877 O871 1.248 . S
C878 O868 1.260 . S
C878 O872 1.253 . S
C879 O870 1.279 . S
C879 O873 1.250 . S
O880 Mg862 2.030 . S
O880 C874 1.248 . S
O881 Mg864 2.079 . S
O881 C874 1.264 . S
O882 Mg883 1.990 . S
O882 C896 1.253 . S
Mg883 O882 1.990 . S
Mg883 O886 2.180 . S
Mg883 O887 2.117 1_554 S
Mg883 O901 2.030 . S
O884 Mg885 2.072 . S
O884 C896 1.260 . S
Mg885 O884 2.072 . S
Mg885 O886 2.099 . S
Mg885 O888 2.079 . S
Mg885 O889 2.072 . S
Mg885 O891 2.099 . S
Mg885 O902 2.079 . S
O886 Mg883 2.180 . S
O886 Mg885 2.099 . S
O886 C897 1.279 . S
O887 Mg883 2.117 1_556 S
O887 C897 1.250 1_556 S
O888 Mg885 2.079 . S
O888 C898 1.264 . S
O889 Mg885 2.072 . S
O889 C899 1.260 . S
Mg890 O891 2.180 . S
Mg890 O892 2.030 . S
Mg890 O893 1.990 . S
Mg890 O894 2.117 . S
O891 Mg885 2.099 . S
O891 Mg890 2.180 . S
O891 C900 1.279 . S
O892 Mg890 2.030 . S
O892 C898 1.248 . S
O893 Mg890 1.990 . S
O893 C899 1.253 . S
O894 Mg890 2.117 . S
O894 C900 1.250 . S
C895 O901 1.248 . S
C895 O902 1.264 . S
C896 O882 1.253 . S
C896 O884 1.260 . S
C897 O886 1.279 . S
C897 O887 1.250 1_554 S
C898 O888 1.264 . S
C898 O892 1.248 . S
C899 O889 1.260 . S
C899 O893 1.253 . S
C900 O891 1.279 . S
C900 O894 1.250 . S
O901 Mg883 2.030 . S
O901 C895 1.248 . S
O902 Mg885 2.079 . S
O902 C895 1.264 . S
O903 Mg904 1.990 . S
O903 C917 1.253 . S
Mg904 O903 1.990 . S
Mg904 O907 2.180 . S
Mg904 O908 2.117 . S
Mg904 O922 2.030 . S
O905 Mg906 2.072 . S
O905 C917 1.260 . S
Mg906 O905 2.072 . S
Mg906 O907 2.099 . S
Mg906 O909 2.079 . S
Mg906 O910 2.072 . S
Mg906 O912 2.099 . S
Mg906 O923 2.079 . S
O907 Mg904 2.180 . S
O907 Mg906 2.099 . S
O907 C918 1.279 . S
O908 Mg904 2.117 . S
O908 C918 1.250 . S
O909 Mg906 2.079 . S
O909 C919 1.264 . S
O910 Mg906 2.072 . S
O910 C920 1.260 . S
Mg911 O912 2.180 . S
Mg911 O913 2.030 . S
Mg911 O914 1.990 . S
Mg911 O915 2.117 . S
O912 Mg906 2.099 . S
O912 Mg911 2.180 . S
O912 C921 1.279 . S
O913 Mg911 2.030 . S
O913 C919 1.248 . S
O914 Mg911 1.990 . S
O914 C920 1.253 . S
O915 Mg911 2.117 . S
O915 C921 1.250 . S
C916 O922 1.248 . S
C916 O923 1.264 . S
C917 O903 1.253 . S
C917 O905 1.260 . S
C918 O907 1.279 . S
C918 O908 1.250 . S
C919 O909 1.264 . S
C919 O913 1.248 . S
C920 O910 1.260 . S
C920 O914 1.253 . S
C921 O912 1.279 . S
C921 O915 1.250 . S
O922 Mg904 2.030 . S
O922 C916 1.248 . S
O923 Mg906 2.079 . S
O923 C916 1.264 . S
O924 Mg925 1.990 . S
O924 C938 1.253 . S
Mg925 O924 1.990 . S
Mg925 O928 2.180 . S
Mg925 O929 2.117 . S
Mg925 O943 2.030 . S
O926 Mg927 2.072 . S
O926 C938 1.260 . S
Mg927 O926 2.072 . S
Mg927 O928 2.099 . S
Mg927 O930 2.079 . S
Mg927 O931 2.072 . S
Mg927 O933 2.099 . S
Mg927 O944 2.079 . S
O928 Mg925 2.180 . S
O928 Mg927 2.099 . S
O928 C939 1.279 . S
O929 Mg925 2.117 . S
O929 C939 1.250 . S
O930 Mg927 2.079 . S
O930 C940 1.264 . S
O931 Mg927 2.072 . S
O931 C941 1.260 . S
Mg932 O933 2.180 . S
Mg932 O934 2.030 . S
Mg932 O935 1.990 . S
Mg932 O936 2.117 . S
O933 Mg927 2.099 . S
O933 Mg932 2.180 . S
O933 C942 1.279 . S
O934 Mg932 2.030 . S
O934 C940 1.248 . S
O935 Mg932 1.990 . S
O935 C941 1.253 . S
O936 Mg932 2.117 . S
O936 C942 1.250 . S
C937 O943 1.248 . S
C937 O944 1.264 . S
C938 O924 1.253 . S
C938 O926 1.260 . S
C939 O928 1.279 . S
C939 O929 1.250 . S
C940 O930 1.264 . S
C940 O934 1.248 . S
C941 O931 1.260 . S
C941 O935 1.253 . S
C942 O933 1.279 . S
C942 O936 1.250 . S
O943 Mg925 2.030 . S
O943 C937 1.248 . S
O944 Mg927 2.079 . S
O944 C937 1.264 . S
O945 Mg946 1.990 . S
O945 C959 1.253 . S
Mg946 O945 1.990 . S
Mg946 O949 2.180 . S
Mg946 O950 2.117 . S
Mg946 O964 2.030 . S
O947 Mg948 2.072 . S
O947 C959 1.260 . S
Mg948 O947 2.072 . S
Mg948 O949 2.099 . S
Mg948 O951 2.079 . S
Mg948 O952 2.072 . S
Mg948 O954 2.099 . S
Mg948 O965 2.079 . S
O949 Mg946 2.180 . S
O949 Mg948 2.099 . S
O949 C960 1.279 . S
O950 Mg946 2.117 . S
O950 C960 1.250 . S
O951 Mg948 2.079 . S
O951 C961 1.264 . S
O952 Mg948 2.072 . S
O952 C962 1.260 . S
Mg953 O954 2.180 . S
Mg953 O955 2.030 . S
Mg953 O956 1.990 . S
Mg953 O957 2.117 . S
O954 Mg948 2.099 . S
O954 Mg953 2.180 . S
O954 C963 1.279 . S
O955 Mg953 2.030 . S
O955 C961 1.248 . S
O956 Mg953 1.990 . S
O956 C962 1.253 . S
O957 Mg953 2.117 . S
O957 C963 1.250 . S
C958 O964 1.248 . S
C958 O965 1.264 . S
C959 O945 1.253 . S
C959 O947 1.260 . S
C960 O949 1.279 . S
C960 O950 1.250 . S
C961 O951 1.264 . S
C961 O955 1.248 . S
C962 O952 1.260 . S
C962 O956 1.253 . S
C963 O954 1.279 . S
C963 O957 1.250 . S
O964 Mg946 2.030 . S
O964 C958 1.248 . S
O965 Mg948 2.079 . S
O965 C958 1.264 . S
O966 Mg967 1.990 . S
O966 C980 1.253 . S
Mg967 O966 1.990 . S
Mg967 O970 2.180 . S
Mg967 O971 2.117 . S
Mg967 O985 2.030 . S
O968 Mg969 2.072 . S
O968 C980 1.260 . S
Mg969 O968 2.072 . S
Mg969 O970 2.099 . S
Mg969 O972 2.079 . S
Mg969 O973 2.072 . S
Mg969 O975 2.099 . S
Mg969 O986 2.079 . S
O970 Mg967 2.180 . S
O970 Mg969 2.099 . S
O970 C981 1.279 . S
O971 Mg967 2.117 . S
O971 C981 1.250 . S
O972 Mg969 2.079 . S
O972 C982 1.264 . S
O973 Mg969 2.072 . S
O973 C983 1.260 . S
Mg974 O975 2.180 . S
Mg974 O976 2.030 . S
Mg974 O977 1.990 . S
Mg974 O978 2.117 . S
O975 Mg969 2.099 . S
O975 Mg974 2.180 . S
O975 C984 1.279 . S
O976 Mg974 2.030 . S
O976 C982 1.248 . S
O977 Mg974 1.990 . S
O977 C983 1.253 . S
O978 Mg974 2.117 . S
O978 C984 1.250 . S
C979 O985 1.248 . S
C979 O986 1.264 . S
C980 O966 1.253 . S
C980 O968 1.260 . S
C981 O970 1.279 . S
C981 O971 1.250 . S
C982 O972 1.264 . S
C982 O976 1.248 . S
C983 O973 1.260 . S
C983 O977 1.253 . S
C984 O975 1.279 . S
C984 O978 1.250 . S
O985 Mg967 2.030 . S
O985 C979 1.248 . S
O986 Mg969 2.079 . S
O986 C979 1.264 . S
O987 Mg988 1.990 . S
O987 C1001 1.253 . S
Mg988 O987 1.990 . S
Mg988 O991 2.180 . S
Mg988 O992 2.117 . S
Mg988 O1006 2.030 . S
O989 Mg990 2.072 . S
O989 C1001 1.260 . S
Mg990 O989 2.072 . S
Mg990 O991 2.099 . S
Mg990 O993 2.079 . S
Mg990 O994 2.072 . S
Mg990 O996 2.099 . S
Mg990 O1007 2.079 . S
O991 Mg988 2.180 . S
O991 Mg990 2.099 . S
O991 C1002 1.279 . S
O992 Mg988 2.117 . S
O992 C1002 1.250 . S
O993 Mg990 2.079 . S
O993 C1003 1.264 . S
O994 Mg990 2.072 . S
O994 C1004 1.260 . S
Mg995 O996 2.180 . S
Mg995 O997 2.030 . S
Mg995 O998 1.990 . S
Mg995 O999 2.117 . S
O996 Mg990 2.099 . S
O996 Mg995 2.180 . S
O996 C1005 1.279 . S
O997 Mg995 2.030 . S
O997 C1003 1.248 . S
O998 Mg995 1.990 . S
O998 C1004 1.253 . S
O999 Mg995 2.117 . S
O999 C1005 1.250 . S
C1000 O1006 1.248 . S
C1000 O1007 1.264 . S
C1001 O987 1.253 . S
C1001 O989 1.260 . S
C1002 O991 1.279 . S
C1002 O992 1.250 . S
C1003 O993 1.264 . S
C1003 O997 1.248 . S
C1004 O994 1.260 . S
C1004 O998 1.253 . S
C1005 O996 1.279 . S
C1005 O999 1.250 . S
O1006 Mg988 2.030 . S
O1006 C1000 1.248 . S
O1007 Mg990 2.079 . S
O1007 C1000 1.264 . S
H1008 C1016 0.950 . S
H1009 C1021 0.950 1_655 S
H1010 C1018 0.950 . S
H1011 C1020 0.950 1_655 S
H1012 C1022 0.950 1_655 S
H1013 C1024 0.950 1_655 S
H1014 C1026 0.950 . S
H1015 C1027 0.950 . S
C1016 H1008 0.950 . S
C1016 C1017 1.386 . S
C1016 C1018 1.391 . S
C1017 C1016 1.386 . S
C1017 C1021 1.393 . S
C1018 H1010 0.950 . S
C1018 C1016 1.391 . S
C1018 C1019 1.400 . S
C1019 C1018 1.400 . S
C1019 C1020 1.398 . S
C1019 C1025 1.491 . S
C1020 H1011 0.950 1_455 S
C1020 C1019 1.398 . S
C1020 C1021 1.391 . S
C1021 H1009 0.950 1_455 S
C1021 C1017 1.393 . S
C1021 C1020 1.391 . S
C1022 H1012 0.950 1_455 S
C1022 C1023 1.386 . S
C1022 C1024 1.391 . S
C1023 C1022 1.386 . S
C1023 C1027 1.393 . S
C1024 H1013 0.950 1_455 S
C1024 C1022 1.391 . S
C1024 C1025 1.400 . S
C1025 C1019 1.491 . S
C1025 C1024 1.400 . S
C1025 C1026 1.398 . S
C1026 H1014 0.950 . S
C1026 C1025 1.398 . S
C1026 C1027 1.391 . S
C1027 H1015 0.950 . S
C1027 C1023 1.393 . S
C1027 C1026 1.391 . S
H1028 C1036 0.950 . S
H1029 C1041 0.950 . S
H1030 C1038 0.950 . S
H1031 C1040 0.950 . S
H1032 C1042 0.950 . S
H1033 C1044 0.950 . S
H1034 C1046 0.950 . S
H1035 C1047 0.950 . S
C1036 H1028 0.950 . S
C1036 C1037 1.386 . S
C1036 C1038 1.391 . S
C1037 C1036 1.386 . S
C1037 C1041 1.393 . S
C1038 H1030 0.950 . S
C1038 C1036 1.391 . S
C1038 C1039 1.400 . S
C1039 C1038 1.400 . S
C1039 C1040 1.398 . S
C1039 C1045 1.491 . S
C1040 H1031 0.950 . S
C1040 C1039 1.398 . S
C1040 C1041 1.391 . S
C1041 H1029 0.950 . S
C1041 C1037 1.393 . S
C1041 C1040 1.391 . S
C1042 H1032 0.950 . S
C1042 C1043 1.386 . S
C1042 C1044 1.391 . S
C1043 C1042 1.386 . S
C1043 C1047 1.393 . S
C1044 H1033 0.950 . S
C1044 C1042 1.391 . S
C1044 C1045 1.400 . S
C1045 C1039 1.491 . S
C1045 C1044 1.400 . S
C1045 C1046 1.398 . S
C1046 H1034 0.950 . S
C1046 C1045 1.398 . S
C1046 C1047 1.391 . S
C1047 H1035 0.950 . S
C1047 C1043 1.393 . S
C1047 C1046 1.391 . S
H1048 C1056 0.950 . S
H1049 C1061 0.950 . S
H1050 C1058 0.950 . S
H1051 C1060 0.950 . S
H1052 C1062 0.950 . S
H1053 C1064 0.950 . S
H1054 C1066 0.950 . S
H1055 C1067 0.950 . S
C1056 H1048 0.950 . S
C1056 C1057 1.386 . S
C1056 C1058 1.391 . S
C1057 C1056 1.386 . S
C1057 C1061 1.393 . S
C1058 H1050 0.950 . S
C1058 C1056 1.391 . S
C1058 C1059 1.400 . S
C1059 C1058 1.400 . S
C1059 C1060 1.398 . S
C1059 C1065 1.491 . S
C1060 H1051 0.950 . S
C1060 C1059 1.398 . S
C1060 C1061 1.391 . S
C1061 H1049 0.950 . S
C1061 C1057 1.393 . S
C1061 C1060 1.391 . S
C1062 H1052 0.950 . S
C1062 C1063 1.386 . S
C1062 C1064 1.391 . S
C1063 C1062 1.386 . S
C1063 C1067 1.393 . S
C1064 H1053 0.950 . S
C1064 C1062 1.391 . S
C1064 C1065 1.400 . S
C1065 C1059 1.491 . S
C1065 C1064 1.400 . S
C1065 C1066 1.398 . S
C1066 H1054 0.950 . S
C1066 C1065 1.398 . S
C1066 C1067 1.391 . S
C1067 H1055 0.950 . S
C1067 C1063 1.393 . S
C1067 C1066 1.391 . S
H1068 C1076 0.950 . S
H1069 C1081 0.950 . S
H1070 C1078 0.950 . S
H1071 C1080 0.950 . S
H1072 C1082 0.950 . S
H1073 C1084 0.950 . S
H1074 C1086 0.950 . S
H1075 C1087 0.950 . S
C1076 H1068 0.950 . S
C1076 C1077 1.386 . S
C1076 C1078 1.391 . S
C1077 C1076 1.386 . S
C1077 C1081 1.393 1_556 S
C1078 H1070 0.950 . S
C1078 C1076 1.391 . S
C1078 C1079 1.400 . S
C1079 C1078 1.400 . S
C1079 C1080 1.398 1_556 S
C1079 C1085 1.491 1_556 S
C1080 H1071 0.950 . S
C1080 C1079 1.398 1_554 S
C1080 C1081 1.391 . S
C1081 H1069 0.950 . S
C1081 C1077 1.393 1_554 S
C1081 C1080 1.391 . S
C1082 H1072 0.950 . S
C1082 C1083 1.386 . S
C1082 C1084 1.391 . S
C1083 C1082 1.386 . S
C1083 C1087 1.393 1_554 S
C1084 H1073 0.950 . S
C1084 C1082 1.391 . S
C1084 C1085 1.400 . S
C1085 C1079 1.491 1_554 S
C1085 C1084 1.400 . S
C1085 C1086 1.398 1_554 S
C1086 H1074 0.950 . S
C1086 C1085 1.398 1_556 S
C1086 C1087 1.391 . S
C1087 H1075 0.950 . S
C1087 C1083 1.393 1_556 S
C1087 C1086 1.391 . S
H1088 C1096 0.950 . S
H1089 C1101 0.950 . S
H1090 C1098 0.950 . S
H1091 C1100 0.950 . S
H1092 C1102 0.950 . S
H1093 C1104 0.950 . S
H1094 C1106 0.963 . S
H1095 C1107 0.950 . S
C1096 H1088 0.950 . S
C1096 C1097 1.386 . S
C1096 C1098 1.391 . S
C1097 C1096 1.386 . S
C1097 C1101 1.393 . S
C1098 H1090 0.950 . S
C1098 C1096 1.391 . S
C1098 C1099 1.400 . S
C1099 C1098 1.400 . S
C1099 C1100 1.398 . S
C1099 C1105 1.491 . S
C1100 H1091 0.950 . S
C1100 C1099 1.398 . S
C1100 C1101 1.391 . S
C1101 H1089 0.950 . S
C1101 C1097 1.393 . S
C1101 C1100 1.391 . S
C1102 H1092 0.950 . S
C1102 C1103 1.386 . S
C1102 C1104 1.391 . S
C1103 C1102 1.386 . S
C1103 C1107 1.393 . S
C1104 H1093 0.950 . S
C1104 C1102 1.391 . S
C1104 C1105 1.400 . S
C1105 C1099 1.491 . S
C1105 C1104 1.400 . S
C1105 C1106 1.398 . S
C1106 H1094 0.963 . S
C1106 C1105 1.398 . S
C1106 C1107 1.391 . S
C1107 H1095 0.950 . S
C1107 C1103 1.393 . S
C1107 C1106 1.391 . S
H1108 C1116 0.950 . S
H1109 C1121 0.950 . S
H1110 C1118 0.950 . S
H1111 C1120 0.950 . S
H1112 C1122 0.950 . S
H1113 C1124 0.950 . S
H1114 C1126 0.950 . S
H1115 C1127 0.950 . S
C1116 H1108 0.950 . S
C1116 C1117 1.386 1_565 S
C1116 C1118 1.391 . S
C1117 C1116 1.386 1_545 S
C1117 C1121 1.393 . S
C1118 H1110 0.950 . S
C1118 C1116 1.391 . S
C1118 C1119 1.400 1_565 S
C1119 C1118 1.400 1_545 S
C1119 C1120 1.398 . S
C1119 C1125 1.491 1_545 S
C1120 H1111 0.950 . S
C1120 C1119 1.398 . S
C1120 C1121 1.391 . S
C1121 H1109 0.950 . S
C1121 C1117 1.393 . S
C1121 C1120 1.391 . S
C1122 H1112 0.950 . S
C1122 C1123 1.386 1_545 S
C1122 C1124 1.391 . S
C1123 C1122 1.386 1_565 S
C1123 C1127 1.393 . S
C1124 H1113 0.950 . S
C1124 C1122 1.391 . S
C1124 C1125 1.400 1_545 S
C1125 C1119 1.491 1_565 S
C1125 C1124 1.400 1_565 S
C1125 C1126 1.398 . S
C1126 H1114 0.950 . S
C1126 C1125 1.398 . S
C1126 C1127 1.391 . S
C1127 H1115 0.950 . S
C1127 C1123 1.393 . S
C1127 C1126 1.391 . S
H1128 C1136 0.950 . S
H1129 C1141 0.950 . S
H1130 C1138 0.950 . S
H1131 C1140 0.950 . S
H1132 C1142 0.950 . S
H1133 C1144 0.950 . S
H1134 C1146 0.950 . S
H1135 C1147 0.950 . S
C1136 H1128 0.950 . S
C1136 C1137 1.386 . S
C1136 C1138 1.391 . S
C1137 C1136 1.386 . S
C1137 C1141 1.393 . S
C1138 H1130 0.950 . S
C1138 C1136 1.391 . S
C1138 C1139 1.400 . S
C1139 C1138 1.400 . S
C1139 C1140 1.398 . S
C1139 C1145 1.491 1_554 S
C1140 H1131 0.950 . S
C1140 C1139 1.398 . S
C1140 C1141 1.391 . S
C1141 H1129 0.950 . S
C1141 C1137 1.393 . S
C1141 C1140 1.391 . S
C1142 H1132 0.950 . S
C1142 C1143 1.386 . S
C1142 C1144 1.391 . S
C1143 C1142 1.386 . S
C1143 C1147 1.393 . S
C1144 H1133 0.950 . S
C1144 C1142 1.391 . S
C1144 C1145 1.400 . S
C1145 C1139 1.491 1_556 S
C1145 C1144 1.400 . S
C1145 C1146 1.398 . S
C1146 H1134 0.950 . S
C1146 C1145 1.398 . S
C1146 C1147 1.391 . S
C1147 H1135 0.950 . S
C1147 C1143 1.393 . S
C1147 C1146 1.391 . S
H1148 C1156 0.950 . S
H1149 C1161 0.950 . S
H1150 C1158 0.950 . S
H1151 C1160 0.950 . S
H1152 C1162 0.950 . S
H1153 C1164 0.950 . S
H1154 C1166 0.950 . S
H1155 C1167 0.950 . S
C1156 H1148 0.950 . S
C1156 C1157 1.386 . S
C1156 C1158 1.391 . S
C1157 C1156 1.386 . S
C1157 C1161 1.393 1_565 S
C1158 H1150 0.950 . S
C1158 C1156 1.391 . S
C1158 C1159 1.400 . S
C1159 C1158 1.400 . S
C1159 C1160 1.398 1_565 S
C1159 C1165 1.491 1_565 S
C1160 H1151 0.950 . S
C1160 C1159 1.398 1_545 S
C1160 C1161 1.391 . S
C1161 H1149 0.950 . S
C1161 C1157 1.393 1_545 S
C1161 C1160 1.391 . S
C1162 H1152 0.950 . S
C1162 C1163 1.386 . S
C1162 C1164 1.391 . S
C1163 C1162 1.386 . S
C1163 C1167 1.393 1_545 S
C1164 H1153 0.950 . S
C1164 C1162 1.391 . S
C1164 C1165 1.400 . S
C1165 C1159 1.491 1_545 S
C1165 C1164 1.400 . S
C1165 C1166 1.398 1_545 S
C1166 H1154 0.950 . S
C1166 C1165 1.398 1_565 S
C1166 C1167 1.391 . S
C1167 H1155 0.950 . S
C1167 C1163 1.393 1_565 S
C1167 C1166 1.391 . S
H1168 C1176 0.950 . S
H1169 C1181 0.950 . S
H1170 C1178 0.950 . S
H1171 C1180 0.950 . S
H1172 C1182 0.950 . S
H1173 C1184 0.950 . S
H1174 C1186 0.950 . S
H1175 C1187 0.950 . S
C1176 H1168 0.950 . S
C1176 C1177 1.386 . S
C1176 C1178 1.391 . S
C1177 C1176 1.386 . S
C1177 C1181 1.393 . S
C1178 H1170 0.950 . S
C1178 C1176 1.391 . S
C1178 C1179 1.400 . S
C1179 C1178 1.400 . S
C1179 C1180 1.398 . S
C1179 C1185 1.491 . S
C1180 H1171 0.950 . S
C1180 C1179 1.398 . S
C1180 C1181 1.391 . S
C1181 H1169 0.950 . S
C1181 C1177 1.393 . S
C1181 C1180 1.391 . S
C1182 H1172 0.950 . S
C1182 C1183 1.386 . S
C1182 C1184 1.391 . S
C1183 C1182 1.386 . S
C1183 C1187 1.393 . S
C1184 H1173 0.950 . S
C1184 C1182 1.391 . S
C1184 C1185 1.400 . S
C1185 C1179 1.491 . S
C1185 C1184 1.400 . S
C1185 C1186 1.398 . S
C1186 H1174 0.950 . S
C1186 C1185 1.398 . S
C1186 C1187 1.391 . S
C1187 H1175 0.950 . S
C1187 C1183 1.393 . S
C1187 C1186 1.391 . S
H1188 C1196 0.950 . S
H1189 C1201 0.950 1_554 S
H1190 C1198 0.950 . S
H1191 C1200 0.950 1_554 S
H1192 C1202 0.950 1_554 S
H1193 C1204 0.950 1_554 S
H1194 C1206 0.950 . S
H1195 C1207 0.950 . S
C1196 H1188 0.950 . S
C1196 C1197 1.386 . S
C1196 C1198 1.391 . S
C1197 C1196 1.386 . S
C1197 C1201 1.393 . S
C1198 H1190 0.950 . S
C1198 C1196 1.391 . S
C1198 C1199 1.400 . S
C1199 C1198 1.400 . S
C1199 C1200 1.398 . S
C1199 C1205 1.491 1_655 S
C1200 H1191 0.950 1_556 S
C1200 C1199 1.398 . S
C1200 C1201 1.391 . S
C1201 H1189 0.950 1_556 S
C1201 C1197 1.393 . S
C1201 C1200 1.391 . S
C1202 H1192 0.950 1_556 S
C1202 C1203 1.386 . S
C1202 C1204 1.391 . S
C1203 C1202 1.386 . S
C1203 C1207 1.393 . S
C1204 H1193 0.950 1_556 S
C1204 C1202 1.391 . S
C1204 C1205 1.400 . S
C1205 C1199 1.491 1_455 S
C1205 C1204 1.400 . S
C1205 C1206 1.398 . S
C1206 H1194 0.950 . S
C1206 C1205 1.398 . S
C1206 C1207 1.391 . S
C1207 H1195 0.950 . S
C1207 C1203 1.393 . S
C1207 C1206 1.391 . S
H1208 C1216 0.950 . S
H1209 C1221 0.950 . S
H1210 C1218 0.950 . S
H1211 C1220 0.950 . S
H1212 C1222 0.950 . S
H1213 C1224 0.950 . S
H1214 C1226 0.950 . S
H1215 C1227 0.950 . S
C1216 H1208 0.950 . S
C1216 C1217 1.386 1_655 S
C1216 C1218 1.391 . S
C1217 C1216 1.386 1_455 S
C1217 C1221 1.393 . S
C1218 H1210 0.950 . S
C1218 C1216 1.391 . S
C1218 C1219 1.400 1_655 S
C1219 C1218 1.400 1_455 S
C1219 C1220 1.398 . S
C1219 C1225 1.491 1_455 S
C1220 H1211 0.950 . S
C1220 C1219 1.398 . S
C1220 C1221 1.391 . S
C1221 H1209 0.950 . S
C1221 C1217 1.393 . S
C1221 C1220 1.391 . S
C1222 H1212 0.950 . S
C1222 C1223 1.386 1_455 S
C1222 C1224 1.391 . S
C1223 C1222 1.386 1_655 S
C1223 C1227 1.393 . S
C1224 H1213 0.950 . S
C1224 C1222 1.391 . S
C1224 C1225 1.400 1_455 S
C1225 C1219 1.491 1_655 S
C1225 C1224 1.400 1_655 S
C1225 C1226 1.398 . S
C1226 H1214 0.950 . S
C1226 C1225 1.398 . S
C1226 C1227 1.391 . S
C1227 H1215 0.950 . S
C1227 C1223 1.393 . S
C1227 C1226 1.391 . S
H1228 C1236 0.950 . S
H1229 C1241 0.950 . S
H1230 C1238 0.950 . S
H1231 C1240 0.950 . S
H1232 C1242 0.950 . S
H1233 C1244 0.950 . S
H1234 C1246 0.950 . S
H1235 C1247 0.950 . S
C1236 H1228 0.950 . S
C1236 C1237 1.386 . S
C1236 C1238 1.391 . S
C1237 C1236 1.386 . S
C1237 C1241 1.393 . S
C1238 H1230 0.950 . S
C1238 C1236 1.391 . S
C1238 C1239 1.400 . S
C1239 C1238 1.400 . S
C1239 C1240 1.398 . S
C1239 C1245 1.491 . S
C1240 H1231 0.950 . S
C1240 C1239 1.398 . S
C1240 C1241 1.391 . S
C1241 H1229 0.950 . S
C1241 C1237 1.393 . S
C1241 C1240 1.391 . S
C1242 H1232 0.950 . S
C1242 C1243 1.386 . S
C1242 C1244 1.391 . S
C1243 C1242 1.386 . S
C1243 C1247 1.393 . S
C1244 H1233 0.950 . S
C1244 C1242 1.391 . S
C1244 C1245 1.400 . S
C1245 C1239 1.491 . S
C1245 C1244 1.400 . S
C1245 C1246 1.398 . S
C1246 H1234 0.950 . S
C1246 C1245 1.398 . S
C1246 C1247 1.391 . S
C1247 H1235 0.950 . S
C1247 C1243 1.393 . S
C1247 C1246 1.391 . S
H1248 C1256 0.950 . S
H1249 C1261 0.950 . S
H1250 C1258 0.950 . S
H1251 C1260 0.950 . S
H1252 C1262 0.950 . S
H1253 C1264 0.950 . S
H1254 C1266 0.950 . S
H1255 C1267 0.950 . S
C1256 H1248 0.950 . S
C1256 C1257 1.386 . S
C1256 C1258 1.391 . S
C1257 C1256 1.386 . S
C1257 C1261 1.393 . S
C1258 H1250 0.950 . S
C1258 C1256 1.391 . S
C1258 C1259 1.400 . S
C1259 C1258 1.400 . S
C1259 C1260 1.398 . S
C1259 C1265 1.491 1_655 S
C1260 H1251 0.950 . S
C1260 C1259 1.398 . S
C1260 C1261 1.391 . S
C1261 H1249 0.950 . S
C1261 C1257 1.393 . S
C1261 C1260 1.391 . S
C1262 H1252 0.950 . S
C1262 C1263 1.386 . S
C1262 C1264 1.391 . S
C1263 C1262 1.386 . S
C1263 C1267 1.393 . S
C1264 H1253 0.950 . S
C1264 C1262 1.391 . S
C1264 C1265 1.400 . S
C1265 C1259 1.491 1_455 S
C1265 C1264 1.400 . S
C1265 C1266 1.398 . S
C1266 H1254 0.950 . S
C1266 C1265 1.398 . S
C1266 C1267 1.391 . S
C1267 H1255 0.950 . S
C1267 C1263 1.393 . S
C1267 C1266 1.391 . S
H1268 C1276 0.948 1_455 S
H1269 C1281 0.950 . S
H1270 C1278 0.950 . S
H1271 C1280 0.950 . S
H1272 C1282 0.948 1_655 S
H1273 C1284 0.950 . S
H1274 C1286 0.950 . S
H1275 C1287 0.950 . S
C1276 H1268 0.948 1_655 S
C1276 C1277 1.388 . S
C1276 C1278 1.390 1_655 S
C1277 C1276 1.388 . S
C1277 C1281 1.393 . S
C1278 H1270 0.950 . S
C1278 C1276 1.390 1_455 S
C1278 C1279 1.400 1_455 S
C1279 C1278 1.400 1_655 S
C1279 C1280 1.398 . S
C1279 C1285 1.491 1_655 S
C1280 H1271 0.950 . S
C1280 C1279 1.398 . S
C1280 C1281 1.391 . S
C1281 H1269 0.950 . S
C1281 C1277 1.393 . S
C1281 C1280 1.391 . S
C1282 H1272 0.948 1_455 S
C1282 C1283 1.388 . S
C1282 C1284 1.390 1_455 S
C1283 C1282 1.388 . S
C1283 C1287 1.393 . S
C1284 H1273 0.950 . S
C1284 C1282 1.390 1_655 S
C1284 C1285 1.400 1_655 S
C1285 C1279 1.491 1_455 S
C1285 C1284 1.400 1_455 S
C1285 C1286 1.398 . S
C1286 H1274 0.950 . S
C1286 C1285 1.398 . S
C1286 C1287 1.391 . S
C1287 H1275 0.950 . S
C1287 C1283 1.393 . S
C1287 C1286 1.391 . S
H1288 C1296 0.950 . S
H1289 C1301 0.950 . S
H1290 C1298 0.950 . S
H1291 C1300 0.950 . S
H1292 C1302 0.950 . S
H1293 C1304 0.950 . S
H1294 C1306 0.950 . S
H1295 C1307 0.950 . S
C1296 H1288 0.950 . S
C1296 C1297 1.386 . S
C1296 C1298 1.391 . S
C1297 C1296 1.386 . S
C1297 C1301 1.393 . S
C1298 H1290 0.950 . S
C1298 C1296 1.391 . S
C1298 C1299 1.400 . S
C1299 C1298 1.400 . S
C1299 C1300 1.398 . S
C1299 C1305 1.491 . S
C1300 H1291 0.950 . S
C1300 C1299 1.398 . S
C1300 C1301 1.391 . S
C1301 H1289 0.950 . S
C1301 C1297 1.393 . S
C1301 C1300 1.391 . S
C1302 H1292 0.950 . S
C1302 C1303 1.386 . S
C1302 C1304 1.391 . S
C1303 C1302 1.386 . S
C1303 C1307 1.393 . S
C1304 H1293 0.950 . S
C1304 C1302 1.391 . S
C1304 C1305 1.400 . S
C1305 C1299 1.491 . S
C1305 C1304 1.400 . S
C1305 C1306 1.398 . S
C1306 H1294 0.950 . S
C1306 C1305 1.398 . S
C1306 C1307 1.391 . S
C1307 H1295 0.950 . S
C1307 C1303 1.393 . S
C1307 C1306 1.391 . S
H1308 C1316 0.950 1_455 S
H1309 C1321 0.950 . S
H1310 C1318 0.950 1_455 S
H1311 C1320 0.950 . S
H1312 C1322 0.950 . S
H1313 C1324 0.950 . S
H1314 C1326 0.950 1_455 S
H1315 C1327 0.950 1_455 S
C1316 H1308 0.950 1_655 S
C1316 C1317 1.386 . S
C1316 C1318 1.391 . S
C1317 C1316 1.386 . S
C1317 C1321 1.393 . S
C1318 H1310 0.950 1_655 S
C1318 C1316 1.391 . S
C1318 C1319 1.400 . S
C1319 C1318 1.400 . S
C1319 C1320 1.398 . S
C1319 C1325 1.491 . S
C1320 H1311 0.950 . S
C1320 C1319 1.398 . S
C1320 C1321 1.391 . S
C1321 H1309 0.950 . S
C1321 C1317 1.393 . S
C1321 C1320 1.391 . S
C1322 H1312 0.950 . S
C1322 C1323 1.386 . S
C1322 C1324 1.391 . S
C1323 C1322 1.386 . S
C1323 C1327 1.393 . S
C1324 H1313 0.950 . S
C1324 C1322 1.391 . S
C1324 C1325 1.400 . S
C1325 C1319 1.491 . S
C1325 C1324 1.400 . S
C1325 C1326 1.398 . S
C1326 H1314 0.950 1_655 S
C1326 C1325 1.398 . S
C1326 C1327 1.391 . S
C1327 H1315 0.950 1_655 S
C1327 C1323 1.393 . S
C1327 C1326 1.391 . S
H1328 C1336 0.950 . S
H1329 C1341 0.950 . S
H1330 C1338 0.950 . S
H1331 C1340 0.950 . S
H1332 C1342 0.950 . S
H1333 C1344 0.950 . S
H1334 C1346 0.950 . S
H1335 C1347 0.950 . S
C1336 H1328 0.950 . S
C1336 C1337 1.386 . S
C1336 C1338 1.391 . S
C1337 C1336 1.386 . S
C1337 C1341 1.393 . S
C1338 H1330 0.950 . S
C1338 C1336 1.391 . S
C1338 C1339 1.400 . S
C1339 C1338 1.400 . S
C1339 C1340 1.398 . S
C1339 C1345 1.491 . S
C1340 H1331 0.950 . S
C1340 C1339 1.398 . S
C1340 C1341 1.391 . S
C1341 H1329 0.950 . S
C1341 C1337 1.393 . S
C1341 C1340 1.391 . S
C1342 H1332 0.950 . S
C1342 C1343 1.386 . S
C1342 C1344 1.391 . S
C1343 C1342 1.386 . S
C1343 C1347 1.393 . S
C1344 H1333 0.950 . S
C1344 C1342 1.391 . S
C1344 C1345 1.400 . S
C1345 C1339 1.491 . S
C1345 C1344 1.400 . S
C1345 C1346 1.398 . S
C1346 H1334 0.950 . S
C1346 C1345 1.398 . S
C1346 C1347 1.391 . S
C1347 H1335 0.950 . S
C1347 C1343 1.393 . S
C1347 C1346 1.391 . S
H1348 C1356 0.950 . S
H1349 C1361 0.950 . S
H1350 C1358 0.950 . S
H1351 C1360 0.950 . S
H1352 C1362 0.950 . S
H1353 C1364 0.950 . S
H1354 C1366 0.950 . S
H1355 C1367 0.950 . S
C1356 H1348 0.950 . S
C1356 C1357 1.386 . S
C1356 C1358 1.391 . S
C1357 C1356 1.386 . S
C1357 C1361 1.393 . S
C1358 H1350 0.950 . S
C1358 C1356 1.391 . S
C1358 C1359 1.400 . S
C1359 C1358 1.400 . S
C1359 C1360 1.398 . S
C1359 C1365 1.491 . S
C1360 H1351 0.950 . S
C1360 C1359 1.398 . S
C1360 C1361 1.391 . S
C1361 H1349 0.950 . S
C1361 C1357 1.393 . S
C1361 C1360 1.391 . S
C1362 H1352 0.950 . S
C1362 C1363 1.386 . S
C1362 C1364 1.391 . S
C1363 C1362 1.386 . S
C1363 C1367 1.393 . S
C1364 H1353 0.950 . S
C1364 C1362 1.391 . S
C1364 C1365 1.400 . S
C1365 C1359 1.491 . S
C1365 C1364 1.400 . S
C1365 C1366 1.398 . S
C1366 H1354 0.950 . S
C1366 C1365 1.398 . S
C1366 C1367 1.391 . S
C1367 H1355 0.950 . S
C1367 C1363 1.393 . S
C1367 C1366 1.391 . S
H1368 C1376 0.950 . S
H1369 C1381 0.950 . S
H1370 C1378 0.950 . S
H1371 C1380 0.950 1_554 S
H1372 C1382 0.950 . S
H1373 C1384 0.950 . S
H1374 C1386 0.950 1_556 S
H1375 C1387 0.950 . S
C1376 H1368 0.950 . S
C1376 C1377 1.386 . S
C1376 C1378 1.391 . S
C1377 C1376 1.386 . S
C1377 C1381 1.393 . S
C1378 H1370 0.950 . S
C1378 C1376 1.391 . S
C1378 C1379 1.400 . S
C1379 C1378 1.400 . S
C1379 C1380 1.398 . S
C1379 C1385 1.491 1_556 S
C1380 H1371 0.950 1_556 S
C1380 C1379 1.398 . S
C1380 C1381 1.391 . S
C1381 H1369 0.950 . S
C1381 C1377 1.393 . S
C1381 C1380 1.391 . S
C1382 H1372 0.950 . S
C1382 C1383 1.386 . S
C1382 C1384 1.391 . S
C1383 C1382 1.386 . S
C1383 C1387 1.393 . S
C1384 H1373 0.950 . S
C1384 C1382 1.391 . S
C1384 C1385 1.400 . S
C1385 C1379 1.491 1_554 S
C1385 C1384 1.400 . S
C1385 C1386 1.398 . S
C1386 H1374 0.950 1_554 S
C1386 C1385 1.398 . S
C1386 C1387 1.391 . S
C1387 H1375 0.950 . S
C1387 C1383 1.393 . S
C1387 C1386 1.391 . S
H1388 C1396 0.950 1_545 S
H1389 C1401 0.950 . S
H1390 C1398 0.950 1_545 S
H1391 C1400 0.950 . S
H1392 C1402 0.950 . S
H1393 C1404 0.950 . S
H1394 C1406 0.944 1_545 S
H1395 C1407 0.950 1_545 S
C1396 H1388 0.950 1_565 S
C1396 C1397 1.386 . S
C1396 C1398 1.391 . S
C1397 C1396 1.386 . S
C1397 C1401 1.393 . S
C1398 H1390 0.950 1_565 S
C1398 C1396 1.391 . S
C1398 C1399 1.400 . S
C1399 C1398 1.400 . S
C1399 C1400 1.398 . S
C1399 C1405 1.491 . S
C1400 H1391 0.950 . S
C1400 C1399 1.398 . S
C1400 C1401 1.391 . S
C1401 H1389 0.950 . S
C1401 C1397 1.393 . S
C1401 C1400 1.391 . S
C1402 H1392 0.950 . S
C1402 C1403 1.386 . S
C1402 C1404 1.391 . S
C1403 C1402 1.386 . S
C1403 C1407 1.393 . S
C1404 H1393 0.950 . S
C1404 C1402 1.391 . S
C1404 C1405 1.400 . S
C1405 C1399 1.491 . S
C1405 C1404 1.400 . S
C1405 C1406 1.398 . S
C1406 H1394 0.944 1_565 S
C1406 C1405 1.398 . S
C1406 C1407 1.391 . S
C1407 H1395 0.950 1_565 S
C1407 C1403 1.393 . S
C1407 C1406 1.391 . S
H1408 C1416 0.949 . S
H1409 C1421 0.950 . S
H1410 C1418 0.950 . S
H1411 C1420 0.950 . S
H1412 C1422 0.949 . S
H1413 C1424 0.950 . S
H1414 C1426 0.950 . S
H1415 C1427 0.950 . S
C1416 H1408 0.949 . S
C1416 C1417 1.386 . S
C1416 C1418 1.391 1_565 S
C1417 C1416 1.386 . S
C1417 C1421 1.393 . S
C1418 H1410 0.950 . S
C1418 C1416 1.391 1_545 S
C1418 C1419 1.400 1_545 S
C1419 C1418 1.400 1_565 S
C1419 C1420 1.398 . S
C1419 C1425 1.491 1_565 S
C1420 H1411 0.950 . S
C1420 C1419 1.398 . S
C1420 C1421 1.391 . S
C1421 H1409 0.950 . S
C1421 C1417 1.393 . S
C1421 C1420 1.391 . S
C1422 H1412 0.949 . S
C1422 C1423 1.386 . S
C1422 C1424 1.391 1_545 S
C1423 C1422 1.386 . S
C1423 C1427 1.393 . S
C1424 H1413 0.950 . S
C1424 C1422 1.391 1_565 S
C1424 C1425 1.400 1_565 S
C1425 C1419 1.491 1_545 S
C1425 C1424 1.400 1_545 S
C1425 C1426 1.398 . S
C1426 H1414 0.950 . S
C1426 C1425 1.398 . S
C1426 C1427 1.391 . S
C1427 H1415 0.950 . S
C1427 C1423 1.393 . S
C1427 C1426 1.391 . S
H1428 C1436 0.950 . S
H1429 C1441 0.950 . S
H1430 C1438 0.950 . S
H1431 C1440 0.950 . S
H1432 C1442 0.950 . S
H1433 C1444 0.950 . S
H1434 C1446 0.950 . S
H1435 C1447 0.950 . S
C1436 H1428 0.950 . S
C1436 C1437 1.386 . S
C1436 C1438 1.391 . S
C1437 C1436 1.386 . S
C1437 C1441 1.393 . S
C1438 H1430 0.950 . S
C1438 C1436 1.391 . S
C1438 C1439 1.400 . S
C1439 C1438 1.400 . S
C1439 C1440 1.398 . S
C1439 C1445 1.491 1_556 S
C1440 H1431 0.950 . S
C1440 C1439 1.398 . S
C1440 C1441 1.391 . S
C1441 H1429 0.950 . S
C1441 C1437 1.393 . S
C1441 C1440 1.391 . S
C1442 H1432 0.950 . S
C1442 C1443 1.386 . S
C1442 C1444 1.391 . S
C1443 C1442 1.386 . S
C1443 C1447 1.393 . S
C1444 H1433 0.950 . S
C1444 C1442 1.391 . S
C1444 C1445 1.400 . S
C1445 C1439 1.491 1_554 S
C1445 C1444 1.400 . S
C1445 C1446 1.398 . S
C1446 H1434 0.950 . S
C1446 C1445 1.398 . S
C1446 C1447 1.391 . S
C1447 H1435 0.950 . S
C1447 C1443 1.393 . S
C1447 C1446 1.391 . S
H1448 C1456 0.950 . S
H1449 C1461 0.950 . S
H1450 C1458 0.950 . S
H1451 C1460 0.950 . S
H1452 C1462 0.950 . S
H1453 C1464 0.950 . S
H1454 C1466 0.950 . S
H1455 C1467 0.950 . S
C1456 H1448 0.950 . S
C1456 C1457 1.386 . S
C1456 C1458 1.391 . S
C1457 C1456 1.386 . S
C1457 C1461 1.393 1_565 S
C1458 H1450 0.950 . S
C1458 C1456 1.391 . S
C1458 C1459 1.400 . S
C1459 C1458 1.400 . S
C1459 C1460 1.398 1_565 S
C1459 C1465 1.491 1_565 S
C1460 H1451 0.950 . S
C1460 C1459 1.398 1_545 S
C1460 C1461 1.391 . S
C1461 H1449 0.950 . S
C1461 C1457 1.393 1_545 S
C1461 C1460 1.391 . S
C1462 H1452 0.950 . S
C1462 C1463 1.386 . S
C1462 C1464 1.391 . S
C1463 C1462 1.386 . S
C1463 C1467 1.393 1_545 S
C1464 H1453 0.950 . S
C1464 C1462 1.391 . S
C1464 C1465 1.400 . S
C1465 C1459 1.491 1_545 S
C1465 C1464 1.400 . S
C1465 C1466 1.398 1_545 S
C1466 H1454 0.950 . S
C1466 C1465 1.398 1_565 S
C1466 C1467 1.391 . S
C1467 H1455 0.950 . S
C1467 C1463 1.393 1_565 S
C1467 C1466 1.391 . S
H1468 C1476 0.950 1_554 S
H1469 C1481 0.950 . S
H1470 C1478 0.950 1_554 S
H1471 C1480 0.950 . S
H1472 C1482 0.950 . S
H1473 C1484 0.950 . S
H1474 C1486 0.950 1_554 S
H1475 C1487 0.950 1_554 S
C1476 H1468 0.950 1_556 S
C1476 C1477 1.386 . S
C1476 C1478 1.391 . S
C1477 C1476 1.386 . S
C1477 C1481 1.393 . S
C1478 H1470 0.950 1_556 S
C1478 C1476 1.391 . S
C1478 C1479 1.400 . S
C1479 C1478 1.400 . S
C1479 C1480 1.398 . S
C1479 C1485 1.491 . S
C1480 H1471 0.950 . S
C1480 C1479 1.398 . S
C1480 C1481 1.391 . S
C1481 H1469 0.950 . S
C1481 C1477 1.393 . S
C1481 C1480 1.391 . S
C1482 H1472 0.950 . S
C1482 C1483 1.386 . S
C1482 C1484 1.391 . S
C1483 C1482 1.386 . S
C1483 C1487 1.393 . S
C1484 H1473 0.950 . S
C1484 C1482 1.391 . S
C1484 C1485 1.400 . S
C1485 C1479 1.491 . S
C1485 C1484 1.400 . S
C1485 C1486 1.398 . S
C1486 H1474 0.950 1_556 S
C1486 C1485 1.398 . S
C1486 C1487 1.391 . S
C1487 H1475 0.950 1_556 S
C1487 C1483 1.393 . S
C1487 C1486 1.391 . S
H1488 C1496 0.950 . S
H1489 C1501 0.950 . S
H1490 C1498 0.950 . S
H1491 C1500 0.950 . S
H1492 C1502 0.950 . S
H1493 C1504 0.950 . S
H1494 C1506 0.950 . S
H1495 C1507 0.950 . S
C1496 H1488 0.950 . S
C1496 C1497 1.386 . S
C1496 C1498 1.391 . S
C1497 C1496 1.386 . S
C1497 C1501 1.393 . S
C1498 H1490 0.950 . S
C1498 C1496 1.391 . S
C1498 C1499 1.400 . S
C1499 C1498 1.400 . S
C1499 C1500 1.398 . S
C1499 C1505 1.491 1_655 S
C1500 H1491 0.950 . S
C1500 C1499 1.398 . S
C1500 C1501 1.391 . S
C1501 H1489 0.950 . S
C1501 C1497 1.393 . S
C1501 C1500 1.391 . S
C1502 H1492 0.950 . S
C1502 C1503 1.386 . S
C1502 C1504 1.391 . S
C1503 C1502 1.386 . S
C1503 C1507 1.393 . S
C1504 H1493 0.950 . S
C1504 C1502 1.391 . S
C1504 C1505 1.400 . S
C1505 C1499 1.491 1_455 S
C1505 C1504 1.400 . S
C1505 C1506 1.398 . S
C1506 H1494 0.950 . S
C1506 C1505 1.398 . S
C1506 C1507 1.391 . S
C1507 H1495 0.950 . S
C1507 C1503 1.393 . S
C1507 C1506 1.391 . S
H1508 C1516 0.950 . S
H1509 C1521 0.940 1_655 S
H1510 C1518 0.950 . S
H1511 C1520 0.950 . S
H1512 C1522 0.950 . S
H1513 C1524 0.950 . S
H1514 C1526 0.950 . S
H1515 C1527 0.940 1_455 S
C1516 H1508 0.950 . S
C1516 C1517 1.386 . S
C1516 C1518 1.391 . S
C1517 C1516 1.386 . S
C1517 C1521 1.409 . S
C1518 H1510 0.950 . S
C1518 C1516 1.391 . S
C1518 C1519 1.400 . S
C1519 C1518 1.400 . S
C1519 C1520 1.398 1_455 S
C1519 C1525 1.491 1_455 S
C1520 H1511 0.950 . S
C1520 C1519 1.398 1_655 S
C1520 C1521 1.385 1_655 S
C1521 H1509 0.940 1_455 S
C1521 C1517 1.409 . S
C1521 C1520 1.385 1_455 S
C1522 H1512 0.950 . S
C1522 C1523 1.386 . S
C1522 C1524 1.391 . S
C1523 C1522 1.386 . S
C1523 C1527 1.409 . S
C1524 H1513 0.950 . S
C1524 C1522 1.391 . S
C1524 C1525 1.400 . S
C1525 C1519 1.491 1_655 S
C1525 C1524 1.400 . S
C1525 C1526 1.398 1_655 S
C1526 H1514 0.950 . S
C1526 C1525 1.398 1_455 S
C1526 C1527 1.385 1_455 S
C1527 H1515 0.940 1_655 S
C1527 C1523 1.409 . S
C1527 C1526 1.385 1_655 S
H1528 C1536 0.950 . S
H1529 C1541 0.950 . S
H1530 C1538 0.950 . S
H1531 C1540 0.950 . S
H1532 C1542 0.950 . S
H1533 C1544 0.950 . S
H1534 C1546 0.950 . S
H1535 C1547 0.950 . S
C1536 H1528 0.950 . S
C1536 C1537 1.386 . S
C1536 C1538 1.391 . S
C1537 C1536 1.386 . S
C1537 C1541 1.393 . S
C1538 H1530 0.950 . S
C1538 C1536 1.391 . S
C1538 C1539 1.400 . S
C1539 C1538 1.400 . S
C1539 C1540 1.398 . S
C1539 C1545 1.491 . S
C1540 H1531 0.950 . S
C1540 C1539 1.398 . S
C1540 C1541 1.391 . S
C1541 H1529 0.950 . S
C1541 C1537 1.393 . S
C1541 C1540 1.391 . S
C1542 H1532 0.950 . S
C1542 C1543 1.386 . S
C1542 C1544 1.391 . S
C1543 C1542 1.386 . S
C1543 C1547 1.393 . S
C1544 H1533 0.950 . S
C1544 C1542 1.391 . S
C1544 C1545 1.400 . S
C1545 C1539 1.491 . S
C1545 C1544 1.400 . S
C1545 C1546 1.398 . S
C1546 H1534 0.950 . S
C1546 C1545 1.398 . S
C1546 C1547 1.391 . S
C1547 H1535 0.950 . S
C1547 C1543 1.393 . S
C1547 C1546 1.391 . S
H1548 C1556 0.950 . S
H1549 C1561 0.950 . S
H1550 C1558 0.950 . S
H1551 C1560 0.950 . S
H1552 C1562 0.950 . S
H1553 C1564 0.950 . S
H1554 C1566 0.950 . S
H1555 C1567 0.950 . S
C1556 H1548 0.950 . S
C1556 C1557 1.386 . S
C1556 C1558 1.391 . S
C1557 C1556 1.386 . S
C1557 C1561 1.393 . S
C1558 H1550 0.950 . S
C1558 C1556 1.391 . S
C1558 C1559 1.400 . S
C1559 C1558 1.400 . S
C1559 C1560 1.398 . S
C1559 C1565 1.491 1_655 S
C1560 H1551 0.950 . S
C1560 C1559 1.398 . S
C1560 C1561 1.391 . S
C1561 H1549 0.950 . S
C1561 C1557 1.393 . S
C1561 C1560 1.391 . S
C1562 H1552 0.950 . S
C1562 C1563 1.386 . S
C1562 C1564 1.391 . S
C1563 C1562 1.386 . S
C1563 C1567 1.393 . S
C1564 H1553 0.950 . S
C1564 C1562 1.391 . S
C1564 C1565 1.400 . S
C1565 C1559 1.491 1_455 S
C1565 C1564 1.400 . S
C1565 C1566 1.398 . S
C1566 H1554 0.950 . S
C1566 C1565 1.398 . S
C1566 C1567 1.391 . S
C1567 H1555 0.950 . S
C1567 C1563 1.393 . S
C1567 C1566 1.391 . S
H1568 C1576 0.950 . S
H1569 C1581 0.950 . S
H1570 C1578 0.950 . S
H1571 C1580 0.950 . S
H1572 C1582 0.950 . S
H1573 C1584 0.950 . S
H1574 C1586 0.950 . S
H1575 C1587 0.950 . S
C1576 H1568 0.950 . S
C1576 C1577 1.386 1_455 S
C1576 C1578 1.391 . S
C1577 C1576 1.386 1_655 S
C1577 C1581 1.393 . S
C1578 H1570 0.950 . S
C1578 C1576 1.391 . S
C1578 C1579 1.400 1_455 S
C1579 C1578 1.400 1_655 S
C1579 C1580 1.398 . S
C1579 C1585 1.491 1_655 S
C1580 H1571 0.950 . S
C1580 C1579 1.398 . S
C1580 C1581 1.391 . S
C1581 H1569 0.950 . S
C1581 C1577 1.393 . S
C1581 C1580 1.391 . S
C1582 H1572 0.950 . S
C1582 C1583 1.386 1_655 S
C1582 C1584 1.391 . S
C1583 C1582 1.386 1_455 S
C1583 C1587 1.393 . S
C1584 H1573 0.950 . S
C1584 C1582 1.391 . S
C1584 C1585 1.400 1_655 S
C1585 C1579 1.491 1_455 S
C1585 C1584 1.400 1_455 S
C1585 C1586 1.398 . S
C1586 H1574 0.950 . S
C1586 C1585 1.398 . S
C1586 C1587 1.391 . S
C1587 H1575 0.950 . S
C1587 C1583 1.393 . S
C1587 C1586 1.391 . S
H1588 C1596 0.950 . S
H1589 C1601 0.950 . S
H1590 C1598 0.950 . S
H1591 C1600 0.950 . S
H1592 C1602 0.950 . S
H1593 C1604 0.950 . S
H1594 C1606 0.950 . S
H1595 C1607 0.950 . S
C1596 H1588 0.950 . S
C1596 C1597 1.386 . S
C1596 C1598 1.391 . S
C1597 C1596 1.386 . S
C1597 C1601 1.393 . S
C1598 H1590 0.950 . S
C1598 C1596 1.391 . S
C1598 C1599 1.400 . S
C1599 C1598 1.400 . S
C1599 C1600 1.398 . S
C1599 C1605 1.491 . S
C1600 H1591 0.950 . S
C1600 C1599 1.398 . S
C1600 C1601 1.391 . S
C1601 H1589 0.950 . S
C1601 C1597 1.393 . S
C1601 C1600 1.391 . S
C1602 H1592 0.950 . S
C1602 C1603 1.386 . S
C1602 C1604 1.391 . S
C1603 C1602 1.386 . S
C1603 C1607 1.393 . S
C1604 H1593 0.950 . S
C1604 C1602 1.391 . S
C1604 C1605 1.400 . S
C1605 C1599 1.491 . S
C1605 C1604 1.400 . S
C1605 C1606 1.398 . S
C1606 H1594 0.950 . S
C1606 C1605 1.398 . S
C1606 C1607 1.391 . S
C1607 H1595 0.950 . S
C1607 C1603 1.393 . S
C1607 C1606 1.391 . S
H1608 C1616 0.950 . S
H1609 C1621 0.950 . S
H1610 C1618 0.950 . S
H1611 C1620 0.950 . S
H1612 C1622 0.950 . S
H1613 C1624 0.950 . S
H1614 C1626 0.950 . S
H1615 C1627 0.950 . S
C1616 H1608 0.950 . S
C1616 C1617 1.386 . S
C1616 C1618 1.391 . S
C1617 C1616 1.386 . S
C1617 C1621 1.393 . S
C1618 H1610 0.950 . S
C1618 C1616 1.391 . S
C1618 C1619 1.400 . S
C1619 C1618 1.400 . S
C1619 C1620 1.398 . S
C1619 C1625 1.491 1_545 S
C1620 H1611 0.950 . S
C1620 C1619 1.398 . S
C1620 C1621 1.391 . S
C1621 H1609 0.950 . S
C1621 C1617 1.393 . S
C1621 C1620 1.391 . S
C1622 H1612 0.950 . S
C1622 C1623 1.386 . S
C1622 C1624 1.391 . S
C1623 C1622 1.386 . S
C1623 C1627 1.393 . S
C1624 H1613 0.950 . S
C1624 C1622 1.391 . S
C1624 C1625 1.400 . S
C1625 C1619 1.491 1_565 S
C1625 C1624 1.400 . S
C1625 C1626 1.398 . S
C1626 H1614 0.950 . S
C1626 C1625 1.398 . S
C1626 C1627 1.391 . S
C1627 H1615 0.950 . S
C1627 C1623 1.393 . S
C1627 C1626 1.391 . S
H1628 C1636 0.950 . S
H1629 C1641 0.950 . S
H1630 C1638 0.950 . S
H1631 C1640 0.950 . S
H1632 C1642 0.950 . S
H1633 C1644 0.950 . S
H1634 C1646 0.950 . S
H1635 C1647 0.950 . S
C1636 H1628 0.950 . S
C1636 C1637 1.386 1_554 S
C1636 C1638 1.391 . S
C1637 C1636 1.386 1_556 S
C1637 C1641 1.393 . S
C1638 H1630 0.950 . S
C1638 C1636 1.391 . S
C1638 C1639 1.400 1_554 S
C1639 C1638 1.400 1_556 S
C1639 C1640 1.398 . S
C1639 C1645 1.491 1_556 S
C1640 H1631 0.950 . S
C1640 C1639 1.398 . S
C1640 C1641 1.391 . S
C1641 H1629 0.950 . S
C1641 C1637 1.393 . S
C1641 C1640 1.391 . S
C1642 H1632 0.950 . S
C1642 C1643 1.386 1_556 S
C1642 C1644 1.391 . S
C1643 C1642 1.386 1_554 S
C1643 C1647 1.393 . S
C1644 H1633 0.950 . S
C1644 C1642 1.391 . S
C1644 C1645 1.400 1_556 S
C1645 C1639 1.491 1_554 S
C1645 C1644 1.400 1_554 S
C1645 C1646 1.398 . S
C1646 H1634 0.950 . S
C1646 C1645 1.398 . S
C1646 C1647 1.391 . S
C1647 H1635 0.950 . S
C1647 C1643 1.393 . S
C1647 C1646 1.391 . S
H1648 C1656 0.950 . S
H1649 C1661 0.950 1_455 S
H1650 C1658 0.950 . S
H1651 C1660 0.928 1_455 S
H1652 C1662 0.950 1_455 S
H1653 C1664 0.950 1_455 S
H1654 C1666 0.950 . S
H1655 C1667 0.950 . S
C1656 H1648 0.950 . S
C1656 C1657 1.386 . S
C1656 C1658 1.391 . S
C1657 C1656 1.386 . S
C1657 C1661 1.393 . S
C1658 H1650 0.950 . S
C1658 C1656 1.391 . S
C1658 C1659 1.400 . S
C1659 C1658 1.400 . S
C1659 C1660 1.398 . S
C1659 C1665 1.491 1_545 S
C1660 H1651 0.928 1_655 S
C1660 C1659 1.398 . S
C1660 C1661 1.391 . S
C1661 H1649 0.950 1_655 S
C1661 C1657 1.393 . S
C1661 C1660 1.391 . S
C1662 H1652 0.950 1_655 S
C1662 C1663 1.386 . S
C1662 C1664 1.391 . S
C1663 C1662 1.386 . S
C1663 C1667 1.393 . S
C1664 H1653 0.950 1_655 S
C1664 C1662 1.391 . S
C1664 C1665 1.400 . S
C1665 C1659 1.491 1_565 S
C1665 C1664 1.400 . S
C1665 C1666 1.398 . S
C1666 H1654 0.950 . S
C1666 C1665 1.398 . S
C1666 C1667 1.391 . S
C1667 H1655 0.950 . S
C1667 C1663 1.393 . S
C1667 C1666 1.391 . S
H1668 C1676 0.950 . S
H1669 C1681 0.950 . S
H1670 C1678 0.950 . S
H1671 C1680 0.950 . S
H1672 C1682 0.950 . S
H1673 C1684 0.950 . S
H1674 C1686 0.950 . S
H1675 C1687 0.950 . S
C1676 H1668 0.950 . S
C1676 C1677 1.386 . S
C1676 C1678 1.391 . S
C1677 C1676 1.386 . S
C1677 C1681 1.393 . S
C1678 H1670 0.950 . S
C1678 C1676 1.391 . S
C1678 C1679 1.400 . S
C1679 C1678 1.400 . S
C1679 C1680 1.398 . S
C1679 C1685 1.491 . S
C1680 H1671 0.950 . S
C1680 C1679 1.398 . S
C1680 C1681 1.391 . S
C1681 H1669 0.950 . S
C1681 C1677 1.393 . S
C1681 C1680 1.391 . S
C1682 H1672 0.950 . S
C1682 C1683 1.386 . S
C1682 C1684 1.391 . S
C1683 C1682 1.386 . S
C1683 C1687 1.393 . S
C1684 H1673 0.950 . S
C1684 C1682 1.391 . S
C1684 C1685 1.400 . S
C1685 C1679 1.491 . S
C1685 C1684 1.400 . S
C1685 C1686 1.398 . S
C1686 H1674 0.950 . S
C1686 C1685 1.398 . S
C1686 C1687 1.391 . S
C1687 H1675 0.950 . S
C1687 C1683 1.393 . S
C1687 C1686 1.391 . S
H1688 C1696 0.950 . S
H1689 C1701 0.950 . S
H1690 C1698 0.950 . S
H1691 C1700 0.950 . S
H1692 C1702 0.950 . S
H1693 C1704 0.950 . S
H1694 C1706 0.950 . S
H1695 C1707 0.950 . S
C1696 H1688 0.950 . S
C1696 C1697 1.386 . S
C1696 C1698 1.391 . S
C1697 C1696 1.386 . S
C1697 C1701 1.393 . S
C1698 H1690 0.950 . S
C1698 C1696 1.391 . S
C1698 C1699 1.400 . S
C1699 C1698 1.400 . S
C1699 C1700 1.398 . S
C1699 C1705 1.491 1_556 S
C1700 H1691 0.950 . S
C1700 C1699 1.398 . S
C1700 C1701 1.391 . S
C1701 H1689 0.950 . S
C1701 C1697 1.393 . S
C1701 C1700 1.391 . S
C1702 H1692 0.950 . S
C1702 C1703 1.386 . S
C1702 C1704 1.391 . S
C1703 C1702 1.386 . S
C1703 C1707 1.393 . S
C1704 H1693 0.950 . S
C1704 C1702 1.391 . S
C1704 C1705 1.400 . S
C1705 C1699 1.491 1_554 S
C1705 C1704 1.400 . S
C1705 C1706 1.398 . S
C1706 H1694 0.950 . S
C1706 C1705 1.398 . S
C1706 C1707 1.391 . S
C1707 H1695 0.950 . S
C1707 C1703 1.393 . S
C1707 C1706 1.391 . S
H1708 C1716 0.950 . S
H1709 C1721 0.950 . S
H1710 C1718 0.950 . S
H1711 C1720 0.950 . S
H1712 C1722 0.950 . S
H1713 C1724 0.950 . S
H1714 C1726 0.950 . S
H1715 C1727 0.950 . S
C1716 H1708 0.950 . S
C1716 C1717 1.386 . S
C1716 C1718 1.391 . S
C1717 C1716 1.386 . S
C1717 C1721 1.393 . S
C1718 H1710 0.950 . S
C1718 C1716 1.391 . S
C1718 C1719 1.400 . S
C1719 C1718 1.400 . S
C1719 C1720 1.398 . S
C1719 C1725 1.491 . S
C1720 H1711 0.950 . S
C1720 C1719 1.398 . S
C1720 C1721 1.391 . S
C1721 H1709 0.950 . S
C1721 C1717 1.393 . S
C1721 C1720 1.391 . S
C1722 H1712 0.950 . S
C1722 C1723 1.386 . S
C1722 C1724 1.391 . S
C1723 C1722 1.386 . S
C1723 C1727 1.393 . S
C1724 H1713 0.950 . S
C1724 C1722 1.391 . S
C1724 C1725 1.400 . S
C1725 C1719 1.491 . S
C1725 C1724 1.400 . S
C1725 C1726 1.398 . S
C1726 H1714 0.950 . S
C1726 C1725 1.398 . S
C1726 C1727 1.391 . S
C1727 H1715 0.950 . S
C1727 C1723 1.393 . S
C1727 C1726 1.391 . S
H1728 C1736 0.950 . S
H1729 C1741 0.950 . S
H1730 C1738 0.950 . S
H1731 C1740 0.950 . S
H1732 C1742 0.950 . S
H1733 C1744 0.950 . S
H1734 C1746 0.950 . S
H1735 C1747 0.950 . S
C1736 H1728 0.950 . S
C1736 C1737 1.386 . S
C1736 C1738 1.391 . S
C1737 C1736 1.386 . S
C1737 C1741 1.393 . S
C1738 H1730 0.950 . S
C1738 C1736 1.391 . S
C1738 C1739 1.400 . S
C1739 C1738 1.400 . S
C1739 C1740 1.398 . S
C1739 C1745 1.491 . S
C1740 H1731 0.950 . S
C1740 C1739 1.398 . S
C1740 C1741 1.391 . S
C1741 H1729 0.950 . S
C1741 C1737 1.393 . S
C1741 C1740 1.391 . S
C1742 H1732 0.950 . S
C1742 C1743 1.386 . S
C1742 C1744 1.391 . S
C1743 C1742 1.386 . S
C1743 C1747 1.393 . S
C1744 H1733 0.950 . S
C1744 C1742 1.391 . S
C1744 C1745 1.400 . S
C1745 C1739 1.491 . S
C1745 C1744 1.400 . S
C1745 C1746 1.398 . S
C1746 H1734 0.950 . S
C1746 C1745 1.398 . S
C1746 C1747 1.391 . S
C1747 H1735 0.950 . S
C1747 C1743 1.393 . S
C1747 C1746 1.391 . S
H1748 C1756 0.950 . S
H1749 C1761 0.950 . S
H1750 C1758 0.950 . S
H1751 C1760 0.950 . S
H1752 C1762 0.950 . S
H1753 C1764 0.950 . S
H1754 C1766 0.950 . S
H1755 C1767 0.950 . S
C1756 H1748 0.950 . S
C1756 C1757 1.386 . S
C1756 C1758 1.391 . S
C1757 C1756 1.386 . S
C1757 C1761 1.393 . S
C1758 H1750 0.950 . S
C1758 C1756 1.391 . S
C1758 C1759 1.400 . S
C1759 C1758 1.400 . S
C1759 C1760 1.398 . S
C1759 C1765 1.491 . S
C1760 H1751 0.950 . S
C1760 C1759 1.398 . S
C1760 C1761 1.391 . S
C1761 H1749 0.950 . S
C1761 C1757 1.393 . S
C1761 C1760 1.391 . S
C1762 H1752 0.950 . S
C1762 C1763 1.386 . S
C1762 C1764 1.391 . S
C1763 C1762 1.386 . S
C1763 C1767 1.393 . S
C1764 H1753 0.950 . S
C1764 C1762 1.391 . S
C1764 C1765 1.400 . S
C1765 C1759 1.491 . S
C1765 C1764 1.400 . S
C1765 C1766 1.398 . S
C1766 H1754 0.950 . S
C1766 C1765 1.398 . S
C1766 C1767 1.391 . S
C1767 H1755 0.950 . S
C1767 C1763 1.393 . S
C1767 C1766 1.391 . S
H1768 C1776 0.950 . S
H1769 C1781 0.950 . S
H1770 C1778 0.950 . S
H1771 C1780 0.950 . S
H1772 C1782 0.950 . S
H1773 C1784 0.950 . S
H1774 C1786 0.950 . S
H1775 C1787 0.950 . S
C1776 H1768 0.950 . S
C1776 C1777 1.386 . S
C1776 C1778 1.391 . S
C1777 C1776 1.386 . S
C1777 C1781 1.393 . S
C1778 H1770 0.950 . S
C1778 C1776 1.391 . S
C1778 C1779 1.400 . S
C1779 C1778 1.400 . S
C1779 C1780 1.398 . S
C1779 C1785 1.491 . S
C1780 H1771 0.950 . S
C1780 C1779 1.398 . S
C1780 C1781 1.391 . S
C1781 H1769 0.950 . S
C1781 C1777 1.393 . S
C1781 C1780 1.391 . S
C1782 H1772 0.950 . S
C1782 C1783 1.386 . S
C1782 C1784 1.391 . S
C1783 C1782 1.386 . S
C1783 C1787 1.393 . S
C1784 H1773 0.950 . S
C1784 C1782 1.391 . S
C1784 C1785 1.400 . S
C1785 C1779 1.491 . S
C1785 C1784 1.400 . S
C1785 C1786 1.398 . S
C1786 H1774 0.950 . S
C1786 C1785 1.398 . S
C1786 C1787 1.391 . S
C1787 H1775 0.950 . S
C1787 C1783 1.393 . S
C1787 C1786 1.391 . S
H1788 C1796 0.950 . S
H1789 C1801 0.950 . S
H1790 C1798 0.950 . S
H1791 C1800 0.950 . S
H1792 C1802 0.950 . S
H1793 C1804 0.950 . S
H1794 C1806 0.950 . S
H1795 C1807 0.950 . S
C1796 H1788 0.950 . S
C1796 C1797 1.386 . S
C1796 C1798 1.391 . S
C1797 C1796 1.386 . S
C1797 C1801 1.393 . S
C1798 H1790 0.950 . S
C1798 C1796 1.391 . S
C1798 C1799 1.400 . S
C1799 C1798 1.400 . S
C1799 C1800 1.398 . S
C1799 C1805 1.491 1_565 S
C1800 H1791 0.950 . S
C1800 C1799 1.398 . S
C1800 C1801 1.391 . S
C1801 H1789 0.950 . S
C1801 C1797 1.393 . S
C1801 C1800 1.391 . S
C1802 H1792 0.950 . S
C1802 C1803 1.386 . S
C1802 C1804 1.391 . S
C1803 C1802 1.386 . S
C1803 C1807 1.393 . S
C1804 H1793 0.950 . S
C1804 C1802 1.391 . S
C1804 C1805 1.400 . S
C1805 C1799 1.491 1_545 S
C1805 C1804 1.400 . S
C1805 C1806 1.398 . S
C1806 H1794 0.950 . S
C1806 C1805 1.398 . S
C1806 C1807 1.391 . S
C1807 H1795 0.950 . S
C1807 C1803 1.393 . S
C1807 C1806 1.391 . S
H1808 C1816 0.950 . S
H1809 C1821 0.950 . S
H1810 C1818 0.950 . S
H1811 C1820 0.950 . S
H1812 C1822 0.950 . S
H1813 C1824 0.950 . S
H1814 C1826 0.950 . S
H1815 C1827 0.950 . S
C1816 H1808 0.950 . S
C1816 C1817 1.386 1_556 S
C1816 C1818 1.391 . S
C1817 C1816 1.386 1_554 S
C1817 C1821 1.393 . S
C1818 H1810 0.950 . S
C1818 C1816 1.391 . S
C1818 C1819 1.400 1_556 S
C1819 C1818 1.400 1_554 S
C1819 C1820 1.398 . S
C1819 C1825 1.491 1_554 S
C1820 H1811 0.950 . S
C1820 C1819 1.398 . S
C1820 C1821 1.391 . S
C1821 H1809 0.950 . S
C1821 C1817 1.393 . S
C1821 C1820 1.391 . S
C1822 H1812 0.950 . S
C1822 C1823 1.386 1_554 S
C1822 C1824 1.391 . S
C1823 C1822 1.386 1_556 S
C1823 C1827 1.393 . S
C1824 H1813 0.950 . S
C1824 C1822 1.391 . S
C1824 C1825 1.400 1_554 S
C1825 C1819 1.491 1_556 S
C1825 C1824 1.400 1_556 S
C1825 C1826 1.398 . S
C1826 H1814 0.950 . S
C1826 C1825 1.398 . S
C1826 C1827 1.391 . S
C1827 H1815 0.950 . S
C1827 C1823 1.393 . S
C1827 C1826 1.391 . S
H1828 C1836 0.950 . S
H1829 C1841 0.950 . S
H1830 C1838 0.950 . S
H1831 C1840 0.950 . S
H1832 C1842 0.950 . S
H1833 C1844 0.950 . S
H1834 C1846 0.950 . S
H1835 C1847 0.950 . S
C1836 H1828 0.950 . S
C1836 C1837 1.386 . S
C1836 C1838 1.391 . S
C1837 C1836 1.386 . S
C1837 C1841 1.393 . S
C1838 H1830 0.950 . S
C1838 C1836 1.391 . S
C1838 C1839 1.400 . S
C1839 C1838 1.400 . S
C1839 C1840 1.398 . S
C1839 C1845 1.491 1_545 S
C1840 H1831 0.950 . S
C1840 C1839 1.398 . S
C1840 C1841 1.391 . S
C1841 H1829 0.950 . S
C1841 C1837 1.393 . S
C1841 C1840 1.391 . S
C1842 H1832 0.950 . S
C1842 C1843 1.386 . S
C1842 C1844 1.391 . S
C1843 C1842 1.386 . S
C1843 C1847 1.393 . S
C1844 H1833 0.950 . S
C1844 C1842 1.391 . S
C1844 C1845 1.400 . S
C1845 C1839 1.491 1_565 S
C1845 C1844 1.400 . S
C1845 C1846 1.398 . S
C1846 H1834 0.950 . S
C1846 C1845 1.398 . S
C1846 C1847 1.391 . S
C1847 H1835 0.950 . S
C1847 C1843 1.393 . S
C1847 C1846 1.391 . S
H1848 C1856 0.950 . S
H1849 C1861 0.950 . S
H1850 C1858 0.950 . S
H1851 C1860 0.950 . S
H1852 C1862 0.950 . S
H1853 C1864 0.950 . S
H1854 C1866 0.950 . S
H1855 C1867 0.950 . S
C1856 H1848 0.950 . S
C1856 C1857 1.386 . S
C1856 C1858 1.391 . S
C1857 C1856 1.386 . S
C1857 C1861 1.393 . S
C1858 H1850 0.950 . S
C1858 C1856 1.391 . S
C1858 C1859 1.400 . S
C1859 C1858 1.400 . S
C1859 C1860 1.398 . S
C1859 C1865 1.491 . S
C1860 H1851 0.950 . S
C1860 C1859 1.398 . S
C1860 C1861 1.391 . S
C1861 H1849 0.950 . S
C1861 C1857 1.393 . S
C1861 C1860 1.391 . S
C1862 H1852 0.950 . S
C1862 C1863 1.386 . S
C1862 C1864 1.391 . S
C1863 C1862 1.386 . S
C1863 C1867 1.393 . S
C1864 H1853 0.950 . S
C1864 C1862 1.391 . S
C1864 C1865 1.400 . S
C1865 C1859 1.491 . S
C1865 C1864 1.400 . S
C1865 C1866 1.398 . S
C1866 H1854 0.950 . S
C1866 C1865 1.398 . S
C1866 C1867 1.391 . S
C1867 H1855 0.950 . S
C1867 C1863 1.393 . S
C1867 C1866 1.391 . S
H1868 C1876 0.950 . S
H1869 C1881 0.950 . S
H1870 C1878 0.950 . S
H1871 C1880 0.950 . S
H1872 C1882 0.950 . S
H1873 C1884 0.950 . S
H1874 C1886 0.950 . S
H1875 C1887 0.950 . S
C1876 H1868 0.950 . S
C1876 C1877 1.386 . S
C1876 C1878 1.391 . S
C1877 C1876 1.386 . S
C1877 C1881 1.393 . S
C1878 H1870 0.950 . S
C1878 C1876 1.391 . S
C1878 C1879 1.400 . S
C1879 C1878 1.400 . S
C1879 C1880 1.398 . S
C1879 C1885 1.491 1_554 S
C1880 H1871 0.950 . S
C1880 C1879 1.398 . S
C1880 C1881 1.391 . S
C1881 H1869 0.950 . S
C1881 C1877 1.393 . S
C1881 C1880 1.391 . S
C1882 H1872 0.950 . S
C1882 C1883 1.386 . S
C1882 C1884 1.391 . S
C1883 C1882 1.386 . S
C1883 C1887 1.393 . S
C1884 H1873 0.950 . S
C1884 C1882 1.391 . S
C1884 C1885 1.400 . S
C1885 C1879 1.491 1_556 S
C1885 C1884 1.400 . S
C1885 C1886 1.398 . S
C1886 H1874 0.950 . S
C1886 C1885 1.398 . S
C1886 C1887 1.391 . S
C1887 H1875 0.950 . S
C1887 C1883 1.393 . S
C1887 C1886 1.391 . S
H1888 C1896 0.950 . S
H1889 C1901 0.950 . S
H1890 C1898 0.950 . S
H1891 C1900 0.950 . S
H1892 C1902 0.950 . S
H1893 C1904 0.950 . S
H1894 C1906 0.950 . S
H1895 C1907 0.950 . S
C1896 H1888 0.950 . S
C1896 C1897 1.386 . S
C1896 C1898 1.391 . S
C1897 C1896 1.386 . S
C1897 C1901 1.393 . S
C1898 H1890 0.950 . S
C1898 C1896 1.391 . S
C1898 C1899 1.400 . S
C1899 C1898 1.400 . S
C1899 C1900 1.398 . S
C1899 C1905 1.491 . S
C1900 H1891 0.950 . S
C1900 C1899 1.398 . S
C1900 C1901 1.391 . S
C1901 H1889 0.950 . S
C1901 C1897 1.393 . S
C1901 C1900 1.391 . S
C1902 H1892 0.950 . S
C1902 C1903 1.386 . S
C1902 C1904 1.391 . S
C1903 C1902 1.386 . S
C1903 C1907 1.393 . S
C1904 H1893 0.950 . S
C1904 C1902 1.391 . S
C1904 C1905 1.400 . S
C1905 C1899 1.491 . S
C1905 C1904 1.400 . S
C1905 C1906 1.398 . S
C1906 H1894 0.950 . S
C1906 C1905 1.398 . S
C1906 C1907 1.391 . S
C1907 H1895 0.950 . S
C1907 C1903 1.393 . S
C1907 C1906 1.391 . S
H1908 C1916 0.950 . S
H1909 C1921 0.950 . S
H1910 C1918 0.950 . S
H1911 C1920 0.950 . S
H1912 C1922 0.950 . S
H1913 C1924 0.950 . S
H1914 C1926 0.950 . S
H1915 C1927 0.950 . S
C1916 H1908 0.950 . S
C1916 C1917 1.386 . S
C1916 C1918 1.391 . S
C1917 C1916 1.386 . S
C1917 C1921 1.393 . S
C1918 H1910 0.950 . S
C1918 C1916 1.391 . S
C1918 C1919 1.400 . S
C1919 C1918 1.400 . S
C1919 C1920 1.398 . S
C1919 C1925 1.491 . S
C1920 H1911 0.950 . S
C1920 C1919 1.398 . S
C1920 C1921 1.391 . S
C1921 H1909 0.950 . S
C1921 C1917 1.393 . S
C1921 C1920 1.391 . S
C1922 H1912 0.950 . S
C1922 C1923 1.386 . S
C1922 C1924 1.391 . S
C1923 C1922 1.386 . S
C1923 C1927 1.393 . S
C1924 H1913 0.950 . S
C1924 C1922 1.391 . S
C1924 C1925 1.400 . S
C1925 C1919 1.491 . S
C1925 C1924 1.400 . S
C1925 C1926 1.398 . S
C1926 H1914 0.950 . S
C1926 C1925 1.398 . S
C1926 C1927 1.391 . S
C1927 H1915 0.950 . S
C1927 C1923 1.393 . S
C1927 C1926 1.391 . S
H1928 C1936 0.950 . S
H1929 C1941 0.950 . S
H1930 C1938 0.950 . S
H1931 C1940 0.950 . S
H1932 C1942 0.950 . S
H1933 C1944 0.950 . S
H1934 C1946 0.950 . S
H1935 C1947 0.950 . S
C1936 H1928 0.950 . S
C1936 C1937 1.386 . S
C1936 C1938 1.391 . S
C1937 C1936 1.386 . S
C1937 C1941 1.393 . S
C1938 H1930 0.950 . S
C1938 C1936 1.391 . S
C1938 C1939 1.400 . S
C1939 C1938 1.400 . S
C1939 C1940 1.398 . S
C1939 C1945 1.491 . S
C1940 H1931 0.950 . S
C1940 C1939 1.398 . S
C1940 C1941 1.391 . S
C1941 H1929 0.950 . S
C1941 C1937 1.393 . S
C1941 C1940 1.391 . S
C1942 H1932 0.950 . S
C1942 C1943 1.386 . S
C1942 C1944 1.391 . S
C1943 C1942 1.386 . S
C1943 C1947 1.393 . S
C1944 H1933 0.950 . S
C1944 C1942 1.391 . S
C1944 C1945 1.400 . S
C1945 C1939 1.491 . S
C1945 C1944 1.400 . S
C1945 C1946 1.398 . S
C1946 H1934 0.950 . S
C1946 C1945 1.398 . S
C1946 C1947 1.391 . S
C1947 H1935 0.950 . S
C1947 C1943 1.393 . S
C1947 C1946 1.391 . S
H1948 C1956 0.950 . S
H1949 C1961 0.950 . S
H1950 C1958 0.950 . S
H1951 C1960 0.950 . S
H1952 C1962 0.950 . S
H1953 C1964 0.950 . S
H1954 C1966 0.950 . S
H1955 C1967 0.950 . S
C1956 H1948 0.950 . S
C1956 C1957 1.386 . S
C1956 C1958 1.391 . S
C1957 C1956 1.386 . S
C1957 C1961 1.393 . S
C1958 H1950 0.950 . S
C1958 C1956 1.391 . S
C1958 C1959 1.400 . S
C1959 C1958 1.400 . S
C1959 C1960 1.398 . S
C1959 C1965 1.491 . S
C1960 H1951 0.950 . S
C1960 C1959 1.398 . S
C1960 C1961 1.391 . S
C1961 H1949 0.950 . S
C1961 C1957 1.393 . S
C1961 C1960 1.391 . S
C1962 H1952 0.950 . S
C1962 C1963 1.386 . S
C1962 C1964 1.391 . S
C1963 C1962 1.386 . S
C1963 C1967 1.393 . S
C1964 H1953 0.950 . S
C1964 C1962 1.391 . S
C1964 C1965 1.400 . S
C1965 C1959 1.491 . S
C1965 C1964 1.400 . S
C1965 C1966 1.398 . S
C1966 H1954 0.950 . S
C1966 C1965 1.398 . S
C1966 C1967 1.391 . S
C1967 H1955 0.950 . S
C1967 C1963 1.393 . S
C1967 C1966 1.391 . S
H1968 C1976 0.950 . S
H1969 C1981 0.950 . S
H1970 C1978 0.950 . S
H1971 C1980 0.950 . S
H1972 C1982 0.950 . S
H1973 C1984 0.950 . S
H1974 C1986 0.950 . S
H1975 C1987 0.950 . S
C1976 H1968 0.950 . S
C1976 C1977 1.386 . S
C1976 C1978 1.391 . S
C1977 C1976 1.386 . S
C1977 C1981 1.393 . S
C1978 H1970 0.950 . S
C1978 C1976 1.391 . S
C1978 C1979 1.400 . S
C1979 C1978 1.400 . S
C1979 C1980 1.398 . S
C1979 C1985 1.491 . S
C1980 H1971 0.950 . S
C1980 C1979 1.398 . S
C1980 C1981 1.391 . S
C1981 H1969 0.950 . S
C1981 C1977 1.393 . S
C1981 C1980 1.391 . S
C1982 H1972 0.950 . S
C1982 C1983 1.386 . S
C1982 C1984 1.391 . S
C1983 C1982 1.386 . S
C1983 C1987 1.393 . S
C1984 H1973 0.950 . S
C1984 C1982 1.391 . S
C1984 C1985 1.400 . S
C1985 C1979 1.491 . S
C1985 C1984 1.400 . S
C1985 C1986 1.398 . S
C1986 H1974 0.950 . S
C1986 C1985 1.398 . S
C1986 C1987 1.391 . S
C1987 H1975 0.950 . S
C1987 C1983 1.393 . S
C1987 C1986 1.391 . S
H1988 C1996 0.950 . S
H1989 C2001 0.950 . S
H1990 C1998 0.950 . S
H1991 C2000 0.937 1_455 S
H1992 C2002 0.950 . S
H1993 C2004 0.950 . S
H1994 C2006 0.950 . S
H1995 C2007 0.950 . S
C1996 H1988 0.950 . S
C1996 C1997 1.386 1_655 S
C1996 C1998 1.391 . S
C1997 C1996 1.386 1_455 S
C1997 C2001 1.393 . S
C1998 H1990 0.950 . S
C1998 C1996 1.391 . S
C1998 C1999 1.400 . S
C1999 C1998 1.400 . S
C1999 C2000 1.398 . S
C1999 C2005 1.491 . S
C2000 H1991 0.937 1_655 S
C2000 C1999 1.398 . S
C2000 C2001 1.391 1_655 S
C2001 H1989 0.950 . S
C2001 C1997 1.393 . S
C2001 C2000 1.391 1_455 S
C2002 H1992 0.950 . S
C2002 C2003 1.386 . S
C2002 C2004 1.391 . S
C2003 C2002 1.386 . S
C2003 C2007 1.393 . S
C2004 H1993 0.950 . S
C2004 C2002 1.391 . S
C2004 C2005 1.400 . S
C2005 C1999 1.491 . S
C2005 C2004 1.400 . S
C2005 C2006 1.398 . S
C2006 H1994 0.950 . S
C2006 C2005 1.398 . S
C2006 C2007 1.391 . S
C2007 H1995 0.950 . S
C2007 C2003 1.393 . S
C2007 C2006 1.391 . S
H2008 C2016 0.950 . S
H2009 C2021 0.950 . S
H2010 C2018 0.950 . S
H2011 C2020 0.950 . S
H2012 C2022 0.950 . S
H2013 C2024 0.950 . S
H2014 C2026 0.950 . S
H2015 C2027 0.950 . S
C2016 H2008 0.950 . S
C2016 C2017 1.386 . S
C2016 C2018 1.391 . S
C2017 C2016 1.386 . S
C2017 C2021 1.393 . S
C2018 H2010 0.950 . S
C2018 C2016 1.391 . S
C2018 C2019 1.400 . S
C2019 C2018 1.400 . S
C2019 C2020 1.398 . S
C2019 C2025 1.491 . S
C2020 H2011 0.950 . S
C2020 C2019 1.398 . S
C2020 C2021 1.391 . S
C2021 H2009 0.950 . S
C2021 C2017 1.393 . S
C2021 C2020 1.391 . S
C2022 H2012 0.950 . S
C2022 C2023 1.386 . S
C2022 C2024 1.391 . S
C2023 C2022 1.386 . S
C2023 C2027 1.393 . S
C2024 H2013 0.950 . S
C2024 C2022 1.391 . S
C2024 C2025 1.400 . S
C2025 C2019 1.491 . S
C2025 C2024 1.400 . S
C2025 C2026 1.398 . S
C2026 H2014 0.950 . S
C2026 C2025 1.398 . S
C2026 C2027 1.391 . S
C2027 H2015 0.950 . S
C2027 C2023 1.393 . S
C2027 C2026 1.391 . S
H2028 C2036 0.950 . S
H2029 C2041 0.950 . S
H2030 C2038 0.950 . S
H2031 C2040 0.950 . S
H2032 C2042 0.950 . S
H2033 C2044 0.950 . S
H2034 C2046 0.950 . S
H2035 C2047 0.950 . S
C2036 H2028 0.950 . S
C2036 C2037 1.386 . S
C2036 C2038 1.391 . S
C2037 C2036 1.386 . S
C2037 C2041 1.393 . S
C2038 H2030 0.950 . S
C2038 C2036 1.391 . S
C2038 C2039 1.400 . S
C2039 C2038 1.400 . S
C2039 C2040 1.398 . S
C2039 C2045 1.491 . S
C2040 H2031 0.950 . S
C2040 C2039 1.398 . S
C2040 C2041 1.391 . S
C2041 H2029 0.950 . S
C2041 C2037 1.393 . S
C2041 C2040 1.391 . S
C2042 H2032 0.950 . S
C2042 C2043 1.386 . S
C2042 C2044 1.391 . S
C2043 C2042 1.386 . S
C2043 C2047 1.393 . S
C2044 H2033 0.950 . S
C2044 C2042 1.391 . S
C2044 C2045 1.400 . S
C2045 C2039 1.491 . S
C2045 C2044 1.400 . S
C2045 C2046 1.398 . S
C2046 H2034 0.950 . S
C2046 C2045 1.398 . S
C2046 C2047 1.391 . S
C2047 H2035 0.950 . S
C2047 C2043 1.393 . S
C2047 C2046 1.391 . S
H2048 C2056 0.950 . S
H2049 C2061 0.950 . S
H2050 C2058 0.950 . S
H2051 C2060 0.950 . S
H2052 C2062 0.950 . S
H2053 C2064 0.950 . S
H2054 C2066 0.950 . S
H2055 C2067 0.950 . S
C2056 H2048 0.950 . S
C2056 C2057 1.386 . S
C2056 C2058 1.391 . S
C2057 C2056 1.386 . S
C2057 C2061 1.393 . S
C2058 H2050 0.950 . S
C2058 C2056 1.391 . S
C2058 C2059 1.400 . S
C2059 C2058 1.400 . S
C2059 C2060 1.398 . S
C2059 C2065 1.491 . S
C2060 H2051 0.950 . S
C2060 C2059 1.398 . S
C2060 C2061 1.391 . S
C2061 H2049 0.950 . S
C2061 C2057 1.393 . S
C2061 C2060 1.391 . S
C2062 H2052 0.950 . S
C2062 C2063 1.386 . S
C2062 C2064 1.391 . S
C2063 C2062 1.386 . S
C2063 C2067 1.393 . S
C2064 H2053 0.950 . S
C2064 C2062 1.391 . S
C2064 C2065 1.400 . S
C2065 C2059 1.491 . S
C2065 C2064 1.400 . S
C2065 C2066 1.398 . S
C2066 H2054 0.950 . S
C2066 C2065 1.398 . S
C2066 C2067 1.391 . S
C2067 H2055 0.950 . S
C2067 C2063 1.393 . S
C2067 C2066 1.391 . S
H2068 C2076 0.950 . S
H2069 C2081 0.950 . S
H2070 C2078 0.950 . S
H2071 C2080 0.950 . S
H2072 C2082 0.950 . S
H2073 C2084 0.950 . S
H2074 C2086 0.950 . S
H2075 C2087 0.950 . S
C2076 H2068 0.950 . S
C2076 C2077 1.386 . S
C2076 C2078 1.391 . S
C2077 C2076 1.386 . S
C2077 C2081 1.393 . S
C2078 H2070 0.950 . S
C2078 C2076 1.391 . S
C2078 C2079 1.400 . S
C2079 C2078 1.400 . S
C2079 C2080 1.398 . S
C2079 C2085 1.491 . S
C2080 H2071 0.950 . S
C2080 C2079 1.398 . S
C2080 C2081 1.391 . S
C2081 H2069 0.950 . S
C2081 C2077 1.393 . S
C2081 C2080 1.391 . S
C2082 H2072 0.950 . S
C2082 C2083 1.386 . S
C2082 C2084 1.391 . S
C2083 C2082 1.386 . S
C2083 C2087 1.393 . S
C2084 H2073 0.950 . S
C2084 C2082 1.391 . S
C2084 C2085 1.400 . S
C2085 C2079 1.491 . S
C2085 C2084 1.400 . S
C2085 C2086 1.398 . S
C2086 H2074 0.950 . S
C2086 C2085 1.398 . S
C2086 C2087 1.391 . S
C2087 H2075 0.950 . S
C2087 C2083 1.393 . S
C2087 C2086 1.391 . S
H2088 C2096 0.950 . S
H2089 C2101 0.950 . S
H2090 C2098 0.950 . S
H2091 C2100 0.950 . S
H2092 C2102 0.950 . S
H2093 C2104 0.950 . S
H2094 C2106 0.950 . S
H2095 C2107 0.950 . S
C2096 H2088 0.950 . S
C2096 C2097 1.386 . S
C2096 C2098 1.391 . S
C2097 C2096 1.386 . S
C2097 C2101 1.393 . S
C2098 H2090 0.950 . S
C2098 C2096 1.391 . S
C2098 C2099 1.400 . S
C2099 C2098 1.400 . S
C2099 C2100 1.398 . S
C2099 C2105 1.491 . S
C2100 H2091 0.950 . S
C2100 C2099 1.398 . S
C2100 C2101 1.391 . S
C2101 H2089 0.950 . S
C2101 C2097 1.393 . S
C2101 C2100 1.391 . S
C2102 H2092 0.950 . S
C2102 C2103 1.386 . S
C2102 C2104 1.391 . S
C2103 C2102 1.386 . S
C2103 C2107 1.393 . S
C2104 H2093 0.950 . S
C2104 C2102 1.391 . S
C2104 C2105 1.400 . S
C2105 C2099 1.491 . S
C2105 C2104 1.400 . S
C2105 C2106 1.398 . S
C2106 H2094 0.950 . S
C2106 C2105 1.398 . S
C2106 C2107 1.391 . S
C2107 H2095 0.950 . S
C2107 C2103 1.393 . S
C2107 C2106 1.391 . S
H2108 C2116 0.950 . S
H2109 C2121 0.950 . S
H2110 C2118 0.950 . S
H2111 C2120 0.950 . S
H2112 C2122 0.950 . S
H2113 C2124 0.950 . S
H2114 C2126 0.950 . S
H2115 C2127 0.950 . S
C2116 H2108 0.950 . S
C2116 C2117 1.388 . S
C2116 C2118 1.391 1_455 S
C2117 C2116 1.388 . S
C2117 C2121 1.382 1_455 S
C2118 H2110 0.950 . S
C2118 C2116 1.391 1_655 S
C2118 C2119 1.400 . S
C2119 C2118 1.400 . S
C2119 C2120 1.398 . S
C2119 C2125 1.491 . S
C2120 H2111 0.950 . S
C2120 C2119 1.398 . S
C2120 C2121 1.391 . S
C2121 H2109 0.950 . S
C2121 C2117 1.382 1_655 S
C2121 C2120 1.391 . S
C2122 H2112 0.950 . S
C2122 C2123 1.386 . S
C2122 C2124 1.391 . S
C2123 C2122 1.386 . S
C2123 C2127 1.393 . S
C2124 H2113 0.950 . S
C2124 C2122 1.391 . S
C2124 C2125 1.400 . S
C2125 C2119 1.491 . S
C2125 C2124 1.400 . S
C2125 C2126 1.398 . S
C2126 H2114 0.950 . S
C2126 C2125 1.398 . S
C2126 C2127 1.391 . S
C2127 H2115 0.950 . S
C2127 C2123 1.393 . S
C2127 C2126 1.391 . S
H2128 C2136 0.950 . S
H2129 C2141 0.950 . S
H2130 C2138 0.950 . S
H2131 C2140 0.950 . S
H2132 C2142 0.950 . S
H2133 C2144 0.950 . S
H2134 C2146 0.950 . S
H2135 C2147 0.950 . S
C2136 H2128 0.950 . S
C2136 C2137 1.386 . S
C2136 C2138 1.391 . S
C2137 C2136 1.386 . S
C2137 C2141 1.393 . S
C2138 H2130 0.950 . S
C2138 C2136 1.391 . S
C2138 C2139 1.400 . S
C2139 C2138 1.400 . S
C2139 C2140 1.398 . S
C2139 C2145 1.491 . S
C2140 H2131 0.950 . S
C2140 C2139 1.398 . S
C2140 C2141 1.391 . S
C2141 H2129 0.950 . S
C2141 C2137 1.393 . S
C2141 C2140 1.391 . S
C2142 H2132 0.950 . S
C2142 C2143 1.386 . S
C2142 C2144 1.391 . S
C2143 C2142 1.386 . S
C2143 C2147 1.393 . S
C2144 H2133 0.950 . S
C2144 C2142 1.391 . S
C2144 C2145 1.400 . S
C2145 C2139 1.491 . S
C2145 C2144 1.400 . S
C2145 C2146 1.398 . S
C2146 H2134 0.950 . S
C2146 C2145 1.398 . S
C2146 C2147 1.391 . S
C2147 H2135 0.950 . S
C2147 C2143 1.393 . S
C2147 C2146 1.391 . S
H2148 C2156 0.950 . S
H2149 C2161 0.950 . S
H2150 C2158 0.950 . S
H2151 C2160 0.950 . S
H2152 C2162 0.950 . S
H2153 C2164 0.950 . S
H2154 C2166 0.950 . S
H2155 C2167 0.950 . S
C2156 H2148 0.950 . S
C2156 C2157 1.386 . S
C2156 C2158 1.391 . S
C2157 C2156 1.386 . S
C2157 C2161 1.393 . S
C2158 H2150 0.950 . S
C2158 C2156 1.391 . S
C2158 C2159 1.400 . S
C2159 C2158 1.400 . S
C2159 C2160 1.398 . S
C2159 C2165 1.491 . S
C2160 H2151 0.950 . S
C2160 C2159 1.398 . S
C2160 C2161 1.391 . S
C2161 H2149 0.950 . S
C2161 C2157 1.393 . S
C2161 C2160 1.391 . S
C2162 H2152 0.950 . S
C2162 C2163 1.386 . S
C2162 C2164 1.391 . S
C2163 C2162 1.386 . S
C2163 C2167 1.393 . S
C2164 H2153 0.950 . S
C2164 C2162 1.391 . S
C2164 C2165 1.400 . S
C2165 C2159 1.491 . S
C2165 C2164 1.400 . S
C2165 C2166 1.398 . S
C2166 H2154 0.950 . S
C2166 C2165 1.398 . S
C2166 C2167 1.391 . S
C2167 H2155 0.950 . S
C2167 C2163 1.393 . S
C2167 C2166 1.391 . S
H2168 C2176 0.950 . S
H2169 C2181 0.950 . S
H2170 C2178 0.950 . S
H2171 C2180 0.950 . S
H2172 C2182 0.950 . S
H2173 C2184 0.950 . S
H2174 C2186 0.950 . S
H2175 C2187 0.950 . S
C2176 H2168 0.950 . S
C2176 C2177 1.386 . S
C2176 C2178 1.391 . S
C2177 C2176 1.386 . S
C2177 C2181 1.393 . S
C2178 H2170 0.950 . S
C2178 C2176 1.391 . S
C2178 C2179 1.400 . S
C2179 C2178 1.400 . S
C2179 C2180 1.398 . S
C2179 C2185 1.491 . S
C2180 H2171 0.950 . S
C2180 C2179 1.398 . S
C2180 C2181 1.391 . S
C2181 H2169 0.950 . S
C2181 C2177 1.393 . S
C2181 C2180 1.391 . S
C2182 H2172 0.950 . S
C2182 C2183 1.386 . S
C2182 C2184 1.391 . S
C2183 C2182 1.386 . S
C2183 C2187 1.393 . S
C2184 H2173 0.950 . S
C2184 C2182 1.391 . S
C2184 C2185 1.400 . S
C2185 C2179 1.491 . S
C2185 C2184 1.400 . S
C2185 C2186 1.398 . S
C2186 H2174 0.950 . S
C2186 C2185 1.398 . S
C2186 C2187 1.391 . S
C2187 H2175 0.950 . S
C2187 C2183 1.393 . S
C2187 C2186 1.391 . S
H2188 C2196 0.950 . S
H2189 C2201 0.950 . S
H2190 C2198 0.950 . S
H2191 C2200 0.950 1_556 S
H2192 C2202 0.950 . S
H2193 C2204 0.950 . S
H2194 C2206 0.950 . S
H2195 C2207 0.950 . S
C2196 H2188 0.950 . S
C2196 C2197 1.341 1_554 S
C2196 C2198 1.391 . S
C2197 C2196 1.341 1_556 S
C2197 C2201 1.410 . S
C2198 H2190 0.950 . S
C2198 C2196 1.391 . S
C2198 C2199 1.400 . S
C2199 C2198 1.400 . S
C2199 C2200 1.398 . S
C2199 C2205 1.491 . S
C2200 H2191 0.950 1_554 S
C2200 C2199 1.398 . S
C2200 C2201 1.391 1_554 S
C2201 H2189 0.950 . S
C2201 C2197 1.410 . S
C2201 C2200 1.391 1_556 S
C2202 H2192 0.950 . S
C2202 C2203 1.386 . S
C2202 C2204 1.391 . S
C2203 C2202 1.386 . S
C2203 C2207 1.393 . S
C2204 H2193 0.950 . S
C2204 C2202 1.391 . S
C2204 C2205 1.400 . S
C2205 C2199 1.491 . S
C2205 C2204 1.400 . S
C2205 C2206 1.398 . S
C2206 H2194 0.950 . S
C2206 C2205 1.398 . S
C2206 C2207 1.391 . S
C2207 H2195 0.950 . S
C2207 C2203 1.393 . S
C2207 C2206 1.391 . S
H2208 C2216 0.950 . S
H2209 C2221 0.950 . S
H2210 C2218 0.950 . S
H2211 C2220 0.950 . S
H2212 C2222 0.950 . S
H2213 C2224 0.950 . S
H2214 C2226 0.950 . S
H2215 C2227 0.950 . S
C2216 H2208 0.950 . S
C2216 C2217 1.386 . S
C2216 C2218 1.391 . S
C2217 C2216 1.386 . S
C2217 C2221 1.393 . S
C2218 H2210 0.950 . S
C2218 C2216 1.391 . S
C2218 C2219 1.400 . S
C2219 C2218 1.400 . S
C2219 C2220 1.398 . S
C2219 C2225 1.491 . S
C2220 H2211 0.950 . S
C2220 C2219 1.398 . S
C2220 C2221 1.391 . S
C2221 H2209 0.950 . S
C2221 C2217 1.393 . S
C2221 C2220 1.391 . S
C2222 H2212 0.950 . S
C2222 C2223 1.386 . S
C2222 C2224 1.391 . S
C2223 C2222 1.386 . S
C2223 C2227 1.393 . S
C2224 H2213 0.950 . S
C2224 C2222 1.391 . S
C2224 C2225 1.400 . S
C2225 C2219 1.491 . S
C2225 C2224 1.400 . S
C2225 C2226 1.398 . S
C2226 H2214 0.950 . S
C2226 C2225 1.398 . S
C2226 C2227 1.391 . S
C2227 H2215 0.950 . S
C2227 C2223 1.393 . S
C2227 C2226 1.391 . S
H2228 C2236 0.950 . S
H2229 C2241 0.950 . S
H2230 C2238 0.950 . S
H2231 C2240 0.950 . S
H2232 C2242 0.950 . S
H2233 C2244 0.950 . S
H2234 C2246 0.950 . S
H2235 C2247 0.950 . S
C2236 H2228 0.950 . S
C2236 C2237 1.386 . S
C2236 C2238 1.391 . S
C2237 C2236 1.386 . S
C2237 C2241 1.393 . S
C2238 H2230 0.950 . S
C2238 C2236 1.391 . S
C2238 C2239 1.400 . S
C2239 C2238 1.400 . S
C2239 C2240 1.398 . S
C2239 C2245 1.491 . S
C2240 H2231 0.950 . S
C2240 C2239 1.398 . S
C2240 C2241 1.391 . S
C2241 H2229 0.950 . S
C2241 C2237 1.393 . S
C2241 C2240 1.391 . S
C2242 H2232 0.950 . S
C2242 C2243 1.386 . S
C2242 C2244 1.391 . S
C2243 C2242 1.386 . S
C2243 C2247 1.393 . S
C2244 H2233 0.950 . S
C2244 C2242 1.391 . S
C2244 C2245 1.400 . S
C2245 C2239 1.491 . S
C2245 C2244 1.400 . S
C2245 C2246 1.398 . S
C2246 H2234 0.950 . S
C2246 C2245 1.398 . S
C2246 C2247 1.391 . S
C2247 H2235 0.950 . S
C2247 C2243 1.393 . S
C2247 C2246 1.391 . S
H2248 C2256 0.950 . S
H2249 C2261 0.950 . S
H2250 C2258 0.950 . S
H2251 C2260 0.950 . S
H2252 C2262 0.950 . S
H2253 C2264 0.950 . S
H2254 C2266 0.950 . S
H2255 C2267 0.950 . S
C2256 H2248 0.950 . S
C2256 C2257 1.386 . S
C2256 C2258 1.391 . S
C2257 C2256 1.386 . S
C2257 C2261 1.393 . S
C2258 H2250 0.950 . S
C2258 C2256 1.391 . S
C2258 C2259 1.400 . S
C2259 C2258 1.400 . S
C2259 C2260 1.398 . S
C2259 C2265 1.491 . S
C2260 H2251 0.950 . S
C2260 C2259 1.398 . S
C2260 C2261 1.391 . S
C2261 H2249 0.950 . S
C2261 C2257 1.393 . S
C2261 C2260 1.391 . S
C2262 H2252 0.950 . S
C2262 C2263 1.386 . S
C2262 C2264 1.391 . S
C2263 C2262 1.386 . S
C2263 C2267 1.393 . S
C2264 H2253 0.950 . S
C2264 C2262 1.391 . S
C2264 C2265 1.400 . S
C2265 C2259 1.491 . S
C2265 C2264 1.400 . S
C2265 C2266 1.398 . S
C2266 H2254 0.950 . S
C2266 C2265 1.398 . S
C2266 C2267 1.391 . S
C2267 H2255 0.950 . S
C2267 C2263 1.393 . S
C2267 C2266 1.391 . S
H2268 C2276 0.950 1_554 S
H2269 C2281 0.950 . S
H2270 C2278 0.950 . S
H2271 C2280 0.950 . S
H2272 C2282 0.950 . S
H2273 C2284 0.950 . S
H2274 C2286 0.950 . S
H2275 C2287 0.950 . S
C2276 H2268 0.950 1_556 S
C2276 C2277 1.386 1_556 S
C2276 C2278 1.391 . S
C2277 C2276 1.386 1_554 S
C2277 C2281 1.393 1_554 S
C2278 H2270 0.950 . S
C2278 C2276 1.391 . S
C2278 C2279 1.400 . S
C2279 C2278 1.400 . S
C2279 C2280 1.398 . S
C2279 C2285 1.491 . S
C2280 H2271 0.950 . S
C2280 C2279 1.398 . S
C2280 C2281 1.391 . S
C2281 H2269 0.950 . S
C2281 C2277 1.393 1_556 S
C2281 C2280 1.391 . S
C2282 H2272 0.950 . S
C2282 C2283 1.386 . S
C2282 C2284 1.391 . S
C2283 C2282 1.386 . S
C2283 C2287 1.393 . S
C2284 H2273 0.950 . S
C2284 C2282 1.391 . S
C2284 C2285 1.400 . S
C2285 C2279 1.491 . S
C2285 C2284 1.400 . S
C2285 C2286 1.398 . S
C2286 H2274 0.950 . S
C2286 C2285 1.398 . S
C2286 C2287 1.391 . S
C2287 H2275 0.950 . S
C2287 C2283 1.393 . S
C2287 C2286 1.391 . S
H2288 C2296 0.950 . S
H2289 C2301 0.950 . S
H2290 C2298 0.950 . S
H2291 C2300 0.950 . S
H2292 C2302 0.950 . S
H2293 C2304 0.950 . S
H2294 C2306 0.950 . S
H2295 C2307 0.950 . S
C2296 H2288 0.950 . S
C2296 C2297 1.386 . S
C2296 C2298 1.391 . S
C2297 C2296 1.386 . S
C2297 C2301 1.393 . S
C2298 H2290 0.950 . S
C2298 C2296 1.391 . S
C2298 C2299 1.400 . S
C2299 C2298 1.400 . S
C2299 C2300 1.398 . S
C2299 C2305 1.491 . S
C2300 H2291 0.950 . S
C2300 C2299 1.398 . S
C2300 C2301 1.391 . S
C2301 H2289 0.950 . S
C2301 C2297 1.393 . S
C2301 C2300 1.391 . S
C2302 H2292 0.950 . S
C2302 C2303 1.386 . S
C2302 C2304 1.391 . S
C2303 C2302 1.386 . S
C2303 C2307 1.393 . S
C2304 H2293 0.950 . S
C2304 C2302 1.391 . S
C2304 C2305 1.400 . S
C2305 C2299 1.491 . S
C2305 C2304 1.400 . S
C2305 C2306 1.398 . S
C2306 H2294 0.950 . S
C2306 C2305 1.398 . S
C2306 C2307 1.391 . S
C2307 H2295 0.950 . S
C2307 C2303 1.393 . S
C2307 C2306 1.391 . S
H2308 C2316 0.950 . S
H2309 C2321 0.950 . S
H2310 C2318 0.950 . S
H2311 C2320 0.950 . S
H2312 C2322 0.950 . S
H2313 C2324 0.950 . S
H2314 C2326 0.950 . S
H2315 C2327 0.950 . S
C2316 H2308 0.950 . S
C2316 C2317 1.386 . S
C2316 C2318 1.391 . S
C2317 C2316 1.386 . S
C2317 C2321 1.393 . S
C2318 H2310 0.950 . S
C2318 C2316 1.391 . S
C2318 C2319 1.400 . S
C2319 C2318 1.400 . S
C2319 C2320 1.398 . S
C2319 C2325 1.491 . S
C2320 H2311 0.950 . S
C2320 C2319 1.398 . S
C2320 C2321 1.391 . S
C2321 H2309 0.950 . S
C2321 C2317 1.393 . S
C2321 C2320 1.391 . S
C2322 H2312 0.950 . S
C2322 C2323 1.386 . S
C2322 C2324 1.391 . S
C2323 C2322 1.386 . S
C2323 C2327 1.393 . S
C2324 H2313 0.950 . S
C2324 C2322 1.391 . S
C2324 C2325 1.400 . S
C2325 C2319 1.491 . S
C2325 C2324 1.400 . S
C2325 C2326 1.398 . S
C2326 H2314 0.950 . S
C2326 C2325 1.398 . S
C2326 C2327 1.391 . S
C2327 H2315 0.950 . S
C2327 C2323 1.393 . S
C2327 C2326 1.391 . S
H2328 C2336 0.950 . S
H2329 C2341 0.950 . S
H2330 C2338 0.950 . S
H2331 C2340 0.950 . S
H2332 C2342 0.950 . S
H2333 C2344 0.950 . S
H2334 C2346 0.950 . S
H2335 C2347 0.950 . S
C2336 H2328 0.950 . S
C2336 C2337 1.386 . S
C2336 C2338 1.391 . S
C2337 C2336 1.386 . S
C2337 C2341 1.393 . S
C2338 H2330 0.950 . S
C2338 C2336 1.391 . S
C2338 C2339 1.400 . S
C2339 C2338 1.400 . S
C2339 C2340 1.398 . S
C2339 C2345 1.491 . S
C2340 H2331 0.950 . S
C2340 C2339 1.398 . S
C2340 C2341 1.391 . S
C2341 H2329 0.950 . S
C2341 C2337 1.393 . S
C2341 C2340 1.391 . S
C2342 H2332 0.950 . S
C2342 C2343 1.386 . S
C2342 C2344 1.391 . S
C2343 C2342 1.386 . S
C2343 C2347 1.393 . S
C2344 H2333 0.950 . S
C2344 C2342 1.391 . S
C2344 C2345 1.400 . S
C2345 C2339 1.491 . S
C2345 C2344 1.400 . S
C2345 C2346 1.398 . S
C2346 H2334 0.950 . S
C2346 C2345 1.398 . S
C2346 C2347 1.391 . S
C2347 H2335 0.950 . S
C2347 C2343 1.393 . S
C2347 C2346 1.391 . S
H2348 C2356 0.950 . S
H2349 C2361 0.950 . S
H2350 C2358 0.950 . S
H2351 C2360 0.950 . S
H2352 C2362 0.950 . S
H2353 C2364 0.950 . S
H2354 C2366 0.950 . S
H2355 C2367 0.950 . S
C2356 H2348 0.950 . S
C2356 C2357 1.386 . S
C2356 C2358 1.391 . S
C2357 C2356 1.386 . S
C2357 C2361 1.393 . S
C2358 H2350 0.950 . S
C2358 C2356 1.391 . S
C2358 C2359 1.400 . S
C2359 C2358 1.400 . S
C2359 C2360 1.398 . S
C2359 C2365 1.491 . S
C2360 H2351 0.950 . S
C2360 C2359 1.398 . S
C2360 C2361 1.391 . S
C2361 H2349 0.950 . S
C2361 C2357 1.393 . S
C2361 C2360 1.391 . S
C2362 H2352 0.950 . S
C2362 C2363 1.386 . S
C2362 C2364 1.391 . S
C2363 C2362 1.386 . S
C2363 C2367 1.393 . S
C2364 H2353 0.950 . S
C2364 C2362 1.391 . S
C2364 C2365 1.400 . S
C2365 C2359 1.491 . S
C2365 C2364 1.400 . S
C2365 C2366 1.398 . S
C2366 H2354 0.950 . S
C2366 C2365 1.398 . S
C2366 C2367 1.391 . S
C2367 H2355 0.950 . S
C2367 C2363 1.393 . S
C2367 C2366 1.391 . S
H2368 C2376 0.950 . S
H2369 C2381 0.950 . S
H2370 C2378 0.950 . S
H2371 C2380 0.950 . S
H2372 C2382 0.950 . S
H2373 C2384 0.950 . S
H2374 C2386 0.956 . S
H2375 C2387 0.950 . S
C2376 H2368 0.950 . S
C2376 C2377 1.386 . S
C2376 C2378 1.391 . S
C2377 C2376 1.386 . S
C2377 C2381 1.393 . S
C2378 H2370 0.950 . S
C2378 C2376 1.391 . S
C2378 C2379 1.400 . S
C2379 C2378 1.400 . S
C2379 C2380 1.398 . S
C2379 C2385 1.491 . S
C2380 H2371 0.950 . S
C2380 C2379 1.398 . S
C2380 C2381 1.391 . S
C2381 H2369 0.950 . S
C2381 C2377 1.393 . S
C2381 C2380 1.391 . S
C2382 H2372 0.950 . S
C2382 C2383 1.386 1_565 S
C2382 C2384 1.391 . S
C2383 C2382 1.386 1_545 S
C2383 C2387 1.393 . S
C2384 H2373 0.950 . S
C2384 C2382 1.391 . S
C2384 C2385 1.400 . S
C2385 C2379 1.491 . S
C2385 C2384 1.400 . S
C2385 C2386 1.398 . S
C2386 H2374 0.956 . S
C2386 C2385 1.398 . S
C2386 C2387 1.391 1_565 S
C2387 H2375 0.950 . S
C2387 C2383 1.393 . S
C2387 C2386 1.391 1_545 S
H2388 C2396 0.950 . S
H2389 C2401 0.950 . S
H2390 C2398 0.950 . S
H2391 C2400 0.950 . S
H2392 C2402 0.950 . S
H2393 C2404 0.950 . S
H2394 C2406 0.950 . S
H2395 C2407 0.950 . S
C2396 H2388 0.950 . S
C2396 C2397 1.386 . S
C2396 C2398 1.391 . S
C2397 C2396 1.386 . S
C2397 C2401 1.393 . S
C2398 H2390 0.950 . S
C2398 C2396 1.391 . S
C2398 C2399 1.400 . S
C2399 C2398 1.400 . S
C2399 C2400 1.398 . S
C2399 C2405 1.491 . S
C2400 H2391 0.950 . S
C2400 C2399 1.398 . S
C2400 C2401 1.391 . S
C2401 H2389 0.950 . S
C2401 C2397 1.393 . S
C2401 C2400 1.391 . S
C2402 H2392 0.950 . S
C2402 C2403 1.386 . S
C2402 C2404 1.391 . S
C2403 C2402 1.386 . S
C2403 C2407 1.393 . S
C2404 H2393 0.950 . S
C2404 C2402 1.391 . S
C2404 C2405 1.400 . S
C2405 C2399 1.491 . S
C2405 C2404 1.400 . S
C2405 C2406 1.398 . S
C2406 H2394 0.950 . S
C2406 C2405 1.398 . S
C2406 C2407 1.391 . S
C2407 H2395 0.950 . S
C2407 C2403 1.393 . S
C2407 C2406 1.391 . S
H2408 C2416 0.950 . S
H2409 C2421 0.950 . S
H2410 C2418 0.950 . S
H2411 C2420 0.950 . S
H2412 C2422 0.950 . S
H2413 C2424 0.950 . S
H2414 C2426 0.950 . S
H2415 C2427 0.950 . S
C2416 H2408 0.950 . S
C2416 C2417 1.386 . S
C2416 C2418 1.391 . S
C2417 C2416 1.386 . S
C2417 C2421 1.393 . S
C2418 H2410 0.950 . S
C2418 C2416 1.391 . S
C2418 C2419 1.400 . S
C2419 C2418 1.400 . S
C2419 C2420 1.398 . S
C2419 C2425 1.491 . S
C2420 H2411 0.950 . S
C2420 C2419 1.398 . S
C2420 C2421 1.391 . S
C2421 H2409 0.950 . S
C2421 C2417 1.393 . S
C2421 C2420 1.391 . S
C2422 H2412 0.950 . S
C2422 C2423 1.386 . S
C2422 C2424 1.391 . S
C2423 C2422 1.386 . S
C2423 C2427 1.393 . S
C2424 H2413 0.950 . S
C2424 C2422 1.391 . S
C2424 C2425 1.400 . S
C2425 C2419 1.491 . S
C2425 C2424 1.400 . S
C2425 C2426 1.398 . S
C2426 H2414 0.950 . S
C2426 C2425 1.398 . S
C2426 C2427 1.391 . S
C2427 H2415 0.950 . S
C2427 C2423 1.393 . S
C2427 C2426 1.391 . S
H2428 C2436 0.950 . S
H2429 C2441 0.950 . S
H2430 C2438 0.950 . S
H2431 C2440 0.950 . S
H2432 C2442 0.950 . S
H2433 C2444 0.950 . S
H2434 C2446 0.950 . S
H2435 C2447 0.950 . S
C2436 H2428 0.950 . S
C2436 C2437 1.386 . S
C2436 C2438 1.391 . S
C2437 C2436 1.386 . S
C2437 C2441 1.393 . S
C2438 H2430 0.950 . S
C2438 C2436 1.391 . S
C2438 C2439 1.400 . S
C2439 C2438 1.400 . S
C2439 C2440 1.398 . S
C2439 C2445 1.491 . S
C2440 H2431 0.950 . S
C2440 C2439 1.398 . S
C2440 C2441 1.391 . S
C2441 H2429 0.950 . S
C2441 C2437 1.393 . S
C2441 C2440 1.391 . S
C2442 H2432 0.950 . S
C2442 C2443 1.386 . S
C2442 C2444 1.391 . S
C2443 C2442 1.386 . S
C2443 C2447 1.393 . S
C2444 H2433 0.950 . S
C2444 C2442 1.391 . S
C2444 C2445 1.400 . S
C2445 C2439 1.491 . S
C2445 C2444 1.400 . S
C2445 C2446 1.398 . S
C2446 H2434 0.950 . S
C2446 C2445 1.398 . S
C2446 C2447 1.391 . S
C2447 H2435 0.950 . S
C2447 C2443 1.393 . S
C2447 C2446 1.391 . S
H2448 C2456 0.950 . S
H2449 C2461 0.950 . S
H2450 C2458 0.950 . S
H2451 C2460 0.950 . S
H2452 C2462 0.950 . S
H2453 C2464 0.950 . S
H2454 C2466 0.950 . S
H2455 C2467 0.950 . S
C2456 H2448 0.950 . S
C2456 C2457 1.386 . S
C2456 C2458 1.391 . S
C2457 C2456 1.386 . S
C2457 C2461 1.393 . S
C2458 H2450 0.950 . S
C2458 C2456 1.391 . S
C2458 C2459 1.400 . S
C2459 C2458 1.400 . S
C2459 C2460 1.398 . S
C2459 C2465 1.491 . S
C2460 H2451 0.950 . S
C2460 C2459 1.398 . S
C2460 C2461 1.391 . S
C2461 H2449 0.950 . S
C2461 C2457 1.393 . S
C2461 C2460 1.391 . S
C2462 H2452 0.950 . S
C2462 C2463 1.386 . S
C2462 C2464 1.391 . S
C2463 C2462 1.386 . S
C2463 C2467 1.393 . S
C2464 H2453 0.950 . S
C2464 C2462 1.391 . S
C2464 C2465 1.400 . S
C2465 C2459 1.491 . S
C2465 C2464 1.400 . S
C2465 C2466 1.398 . S
C2466 H2454 0.950 . S
C2466 C2465 1.398 . S
C2466 C2467 1.391 . S
C2467 H2455 0.950 . S
C2467 C2463 1.393 . S
C2467 C2466 1.391 . S
H2468 C2476 0.950 . S
H2469 C2481 0.950 . S
H2470 C2478 0.950 . S
H2471 C2480 0.950 . S
H2472 C2482 0.944 1_655 S
H2473 C2484 0.950 . S
H2474 C2486 0.950 . S
H2475 C2487 0.950 . S
C2476 H2468 0.950 . S
C2476 C2477 1.386 . S
C2476 C2478 1.391 . S
C2477 C2476 1.386 . S
C2477 C2481 1.393 . S
C2478 H2470 0.950 . S
C2478 C2476 1.391 . S
C2478 C2479 1.400 . S
C2479 C2478 1.400 . S
C2479 C2480 1.398 . S
C2479 C2485 1.491 . S
C2480 H2471 0.950 . S
C2480 C2479 1.398 . S
C2480 C2481 1.391 . S
C2481 H2469 0.950 . S
C2481 C2477 1.393 . S
C2481 C2480 1.391 . S
C2482 H2472 0.944 1_455 S
C2482 C2483 1.385 1_455 S
C2482 C2484 1.398 . S
C2483 C2482 1.385 1_655 S
C2483 C2487 1.393 1_655 S
C2484 H2473 0.950 . S
C2484 C2482 1.398 . S
C2484 C2485 1.400 . S
C2485 C2479 1.491 . S
C2485 C2484 1.400 . S
C2485 C2486 1.398 . S
C2486 H2474 0.950 . S
C2486 C2485 1.398 . S
C2486 C2487 1.391 . S
C2487 H2475 0.950 . S
C2487 C2483 1.393 1_455 S
C2487 C2486 1.391 . S
H2488 C2496 0.950 . S
H2489 C2501 0.950 . S
H2490 C2498 0.950 . S
H2491 C2500 0.950 . S
H2492 C2502 0.950 . S
H2493 C2504 0.950 . S
H2494 C2506 0.950 . S
H2495 C2507 0.950 . S
C2496 H2488 0.950 . S
C2496 C2497 1.386 . S
C2496 C2498 1.391 . S
C2497 C2496 1.386 . S
C2497 C2501 1.393 . S
C2498 H2490 0.950 . S
C2498 C2496 1.391 . S
C2498 C2499 1.400 . S
C2499 C2498 1.400 . S
C2499 C2500 1.398 . S
C2499 C2505 1.491 . S
C2500 H2491 0.950 . S
C2500 C2499 1.398 . S
C2500 C2501 1.391 . S
C2501 H2489 0.950 . S
C2501 C2497 1.393 . S
C2501 C2500 1.391 . S
C2502 H2492 0.950 . S
C2502 C2503 1.386 . S
C2502 C2504 1.391 . S
C2503 C2502 1.386 . S
C2503 C2507 1.393 . S
C2504 H2493 0.950 . S
C2504 C2502 1.391 . S
C2504 C2505 1.400 . S
C2505 C2499 1.491 . S
C2505 C2504 1.400 . S
C2505 C2506 1.398 . S
C2506 H2494 0.950 . S
C2506 C2505 1.398 . S
C2506 C2507 1.391 . S
C2507 H2495 0.950 . S
C2507 C2503 1.393 . S
C2507 C2506 1.391 . S
H2508 C2516 0.950 . S
H2509 C2521 0.950 . S
H2510 C2518 0.950 . S
H2511 C2520 0.950 . S
H2512 C2522 0.950 . S
H2513 C2524 0.950 . S
H2514 C2526 0.950 . S
H2515 C2527 0.950 . S
C2516 H2508 0.950 . S
C2516 C2517 1.386 . S
C2516 C2518 1.391 . S
C2517 C2516 1.386 . S
C2517 C2521 1.393 . S
C2518 H2510 0.950 . S
C2518 C2516 1.391 . S
C2518 C2519 1.400 . S
C2519 C2518 1.400 . S
C2519 C2520 1.398 . S
C2519 C2525 1.491 . S
C2520 H2511 0.950 . S
C2520 C2519 1.398 . S
C2520 C2521 1.391 . S
C2521 H2509 0.950 . S
C2521 C2517 1.393 . S
C2521 C2520 1.391 . S
C2522 H2512 0.950 . S
C2522 C2523 1.386 . S
C2522 C2524 1.391 . S
C2523 C2522 1.386 . S
C2523 C2527 1.393 . S
C2524 H2513 0.950 . S
C2524 C2522 1.391 . S
C2524 C2525 1.400 . S
C2525 C2519 1.491 . S
C2525 C2524 1.400 . S
C2525 C2526 1.398 . S
C2526 H2514 0.950 . S
C2526 C2525 1.398 . S
C2526 C2527 1.391 . S
C2527 H2515 0.950 . S
C2527 C2523 1.393 . S
C2527 C2526 1.391 . S
H2528 C2536 0.950 . S
H2529 C2541 0.950 . S
H2530 C2538 0.950 . S
H2531 C2540 0.950 . S
H2532 C2542 0.950 . S
H2533 C2544 0.950 . S
H2534 C2546 0.950 . S
H2535 C2547 0.950 . S
C2536 H2528 0.950 . S
C2536 C2537 1.386 . S
C2536 C2538 1.391 . S
C2537 C2536 1.386 . S
C2537 C2541 1.393 . S
C2538 H2530 0.950 . S
C2538 C2536 1.391 . S
C2538 C2539 1.400 . S
C2539 C2538 1.400 . S
C2539 C2540 1.398 . S
C2539 C2545 1.491 . S
C2540 H2531 0.950 . S
C2540 C2539 1.398 . S
C2540 C2541 1.391 . S
C2541 H2529 0.950 . S
C2541 C2537 1.393 . S
C2541 C2540 1.391 . S
C2542 H2532 0.950 . S
C2542 C2543 1.386 . S
C2542 C2544 1.391 . S
C2543 C2542 1.386 . S
C2543 C2547 1.393 . S
C2544 H2533 0.950 . S
C2544 C2542 1.391 . S
C2544 C2545 1.400 . S
C2545 C2539 1.491 . S
C2545 C2544 1.400 . S
C2545 C2546 1.398 . S
C2546 H2534 0.950 . S
C2546 C2545 1.398 . S
C2546 C2547 1.391 . S
C2547 H2535 0.950 . S
C2547 C2543 1.393 . S
C2547 C2546 1.391 . S
H2548 C2556 0.950 . S
H2549 C2561 0.950 . S
H2550 C2558 0.950 . S
H2551 C2560 0.950 . S
H2552 C2562 0.950 . S
H2553 C2564 0.950 . S
H2554 C2566 0.950 . S
H2555 C2567 0.950 . S
C2556 H2548 0.950 . S
C2556 C2557 1.386 . S
C2556 C2558 1.391 . S
C2557 C2556 1.386 . S
C2557 C2561 1.393 . S
C2558 H2550 0.950 . S
C2558 C2556 1.391 . S
C2558 C2559 1.400 . S
C2559 C2558 1.400 . S
C2559 C2560 1.398 . S
C2559 C2565 1.491 . S
C2560 H2551 0.950 . S
C2560 C2559 1.398 . S
C2560 C2561 1.391 . S
C2561 H2549 0.950 . S
C2561 C2557 1.393 . S
C2561 C2560 1.391 . S
C2562 H2552 0.950 . S
C2562 C2563 1.386 . S
C2562 C2564 1.391 . S
C2563 C2562 1.386 . S
C2563 C2567 1.393 . S
C2564 H2553 0.950 . S
C2564 C2562 1.391 . S
C2564 C2565 1.400 . S
C2565 C2559 1.491 . S
C2565 C2564 1.400 . S
C2565 C2566 1.398 . S
C2566 H2554 0.950 . S
C2566 C2565 1.398 . S
C2566 C2567 1.391 . S
C2567 H2555 0.950 . S
C2567 C2563 1.393 . S
C2567 C2566 1.391 . S
H2568 C2576 0.950 . S
H2569 C2581 0.950 . S
H2570 C2578 0.950 . S
H2571 C2580 0.950 . S
H2572 C2582 0.950 . S
H2573 C2584 0.950 . S
H2574 C2586 0.950 . S
H2575 C2587 0.950 . S
C2576 H2568 0.950 . S
C2576 C2577 1.386 . S
C2576 C2578 1.391 . S
C2577 C2576 1.386 . S
C2577 C2581 1.393 . S
C2578 H2570 0.950 . S
C2578 C2576 1.391 . S
C2578 C2579 1.400 . S
C2579 C2578 1.400 . S
C2579 C2580 1.398 . S
C2579 C2585 1.491 . S
C2580 H2571 0.950 . S
C2580 C2579 1.398 . S
C2580 C2581 1.391 . S
C2581 H2569 0.950 . S
C2581 C2577 1.393 . S
C2581 C2580 1.391 . S
C2582 H2572 0.950 . S
C2582 C2583 1.386 . S
C2582 C2584 1.391 . S
C2583 C2582 1.386 . S
C2583 C2587 1.393 . S
C2584 H2573 0.950 . S
C2584 C2582 1.391 . S
C2584 C2585 1.400 . S
C2585 C2579 1.491 . S
C2585 C2584 1.400 . S
C2585 C2586 1.398 . S
C2586 H2574 0.950 . S
C2586 C2585 1.398 . S
C2586 C2587 1.391 . S
C2587 H2575 0.950 . S
C2587 C2583 1.393 . S
C2587 C2586 1.391 . S
H2588 C2596 0.950 . S
H2589 C2601 0.950 . S
H2590 C2598 0.950 . S
H2591 C2600 0.950 . S
H2592 C2602 0.950 . S
H2593 C2604 0.950 . S
H2594 C2606 0.950 . S
H2595 C2607 0.950 . S
C2596 H2588 0.950 . S
C2596 C2597 1.386 . S
C2596 C2598 1.391 . S
C2597 C2596 1.386 . S
C2597 C2601 1.393 . S
C2598 H2590 0.950 . S
C2598 C2596 1.391 . S
C2598 C2599 1.400 . S
C2599 C2598 1.400 . S
C2599 C2600 1.398 . S
C2599 C2605 1.491 . S
C2600 H2591 0.950 . S
C2600 C2599 1.398 . S
C2600 C2601 1.391 . S
C2601 H2589 0.950 . S
C2601 C2597 1.393 . S
C2601 C2600 1.391 . S
C2602 H2592 0.950 . S
C2602 C2603 1.386 1_455 S
C2602 C2604 1.391 . S
C2603 C2602 1.386 1_655 S
C2603 C2607 1.393 . S
C2604 H2593 0.950 . S
C2604 C2602 1.391 . S
C2604 C2605 1.400 . S
C2605 C2599 1.491 . S
C2605 C2604 1.400 . S
C2605 C2606 1.398 . S
C2606 H2594 0.950 . S
C2606 C2605 1.398 . S
C2606 C2607 1.391 1_455 S
C2607 H2595 0.950 . S
C2607 C2603 1.393 . S
C2607 C2606 1.391 1_655 S
H2608 C2616 0.950 . S
H2609 C2621 0.950 . S
H2610 C2618 0.950 . S
H2611 C2620 0.950 . S
H2612 C2622 0.950 . S
H2613 C2624 0.950 . S
H2614 C2626 0.950 . S
H2615 C2627 0.950 . S
C2616 H2608 0.950 . S
C2616 C2617 1.386 . S
C2616 C2618 1.391 . S
C2617 C2616 1.386 . S
C2617 C2621 1.393 . S
C2618 H2610 0.950 . S
C2618 C2616 1.391 . S
C2618 C2619 1.400 . S
C2619 C2618 1.400 . S
C2619 C2620 1.398 . S
C2619 C2625 1.491 . S
C2620 H2611 0.950 . S
C2620 C2619 1.398 . S
C2620 C2621 1.391 . S
C2621 H2609 0.950 . S
C2621 C2617 1.393 . S
C2621 C2620 1.391 . S
C2622 H2612 0.950 . S
C2622 C2623 1.386 . S
C2622 C2624 1.391 . S
C2623 C2622 1.386 . S
C2623 C2627 1.393 . S
C2624 H2613 0.950 . S
C2624 C2622 1.391 . S
C2624 C2625 1.400 . S
C2625 C2619 1.491 . S
C2625 C2624 1.400 . S
C2625 C2626 1.398 . S
C2626 H2614 0.950 . S
C2626 C2625 1.398 . S
C2626 C2627 1.391 . S
C2627 H2615 0.950 . S
C2627 C2623 1.393 . S
C2627 C2626 1.391 . S
H2628 C2636 0.950 . S
H2629 C2641 0.950 . S
H2630 C2638 0.950 . S
H2631 C2640 0.950 . S
H2632 C2642 0.950 . S
H2633 C2644 0.950 . S
H2634 C2646 0.950 . S
H2635 C2647 0.950 . S
C2636 H2628 0.950 . S
C2636 C2637 1.386 . S
C2636 C2638 1.391 . S
C2637 C2636 1.386 . S
C2637 C2641 1.393 . S
C2638 H2630 0.950 . S
C2638 C2636 1.391 . S
C2638 C2639 1.400 . S
C2639 C2638 1.400 . S
C2639 C2640 1.398 . S
C2639 C2645 1.491 . S
C2640 H2631 0.950 . S
C2640 C2639 1.398 . S
C2640 C2641 1.391 . S
C2641 H2629 0.950 . S
C2641 C2637 1.393 . S
C2641 C2640 1.391 . S
C2642 H2632 0.950 . S
C2642 C2643 1.386 . S
C2642 C2644 1.391 . S
C2643 C2642 1.386 . S
C2643 C2647 1.393 . S
C2644 H2633 0.950 . S
C2644 C2642 1.391 . S
C2644 C2645 1.400 . S
C2645 C2639 1.491 . S
C2645 C2644 1.400 . S
C2645 C2646 1.398 . S
C2646 H2634 0.950 . S
C2646 C2645 1.398 . S
C2646 C2647 1.391 . S
C2647 H2635 0.950 . S
C2647 C2643 1.393 . S
C2647 C2646 1.391 . S
H2648 C2656 0.950 . S
H2649 C2661 0.950 . S
H2650 C2658 0.950 . S
H2651 C2660 0.950 . S
H2652 C2662 0.950 . S
H2653 C2664 0.950 . S
H2654 C2666 0.950 . S
H2655 C2667 0.950 . S
C2656 H2648 0.950 . S
C2656 C2657 1.386 . S
C2656 C2658 1.391 . S
C2657 C2656 1.386 . S
C2657 C2661 1.393 . S
C2658 H2650 0.950 . S
C2658 C2656 1.391 . S
C2658 C2659 1.400 . S
C2659 C2658 1.400 . S
C2659 C2660 1.398 . S
C2659 C2665 1.491 . S
C2660 H2651 0.950 . S
C2660 C2659 1.398 . S
C2660 C2661 1.391 . S
C2661 H2649 0.950 . S
C2661 C2657 1.393 . S
C2661 C2660 1.391 . S
C2662 H2652 0.950 . S
C2662 C2663 1.386 . S
C2662 C2664 1.391 . S
C2663 C2662 1.386 . S
C2663 C2667 1.393 . S
C2664 H2653 0.950 . S
C2664 C2662 1.391 . S
C2664 C2665 1.400 . S
C2665 C2659 1.491 . S
C2665 C2664 1.400 . S
C2665 C2666 1.398 . S
C2666 H2654 0.950 . S
C2666 C2665 1.398 . S
C2666 C2667 1.391 . S
C2667 H2655 0.950 . S
C2667 C2663 1.393 . S
C2667 C2666 1.391 . S
H2668 C2676 0.950 1_554 S
H2669 C2681 0.950 . S
H2670 C2678 0.950 . S
H2671 C2680 0.950 . S
H2672 C2682 0.950 . S
H2673 C2684 0.950 . S
H2674 C2686 0.950 . S
H2675 C2687 0.950 . S
C2676 H2668 0.950 1_556 S
C2676 C2677 1.386 1_556 S
C2676 C2678 1.391 . S
C2677 C2676 1.386 1_554 S
C2677 C2681 1.393 1_554 S
C2678 H2670 0.950 . S
C2678 C2676 1.391 . S
C2678 C2679 1.400 . S
C2679 C2678 1.400 . S
C2679 C2680 1.398 . S
C2679 C2685 1.491 . S
C2680 H2671 0.950 . S
C2680 C2679 1.398 . S
C2680 C2681 1.391 . S
C2681 H2669 0.950 . S
C2681 C2677 1.393 1_556 S
C2681 C2680 1.391 . S
C2682 H2672 0.950 . S
C2682 C2683 1.386 . S
C2682 C2684 1.391 . S
C2683 C2682 1.386 . S
C2683 C2687 1.393 . S
C2684 H2673 0.950 . S
C2684 C2682 1.391 . S
C2684 C2685 1.400 . S
C2685 C2679 1.491 . S
C2685 C2684 1.400 . S
C2685 C2686 1.398 . S
C2686 H2674 0.950 . S
C2686 C2685 1.398 . S
C2686 C2687 1.391 . S
C2687 H2675 0.950 . S
C2687 C2683 1.393 . S
C2687 C2686 1.391 . S
H2688 C2696 0.950 . S
H2689 C2701 0.950 . S
H2690 C2698 0.950 . S
H2691 C2700 0.950 . S
H2692 C2702 0.950 . S
H2693 C2704 0.950 . S
H2694 C2706 0.950 . S
H2695 C2707 0.950 . S
C2696 H2688 0.950 . S
C2696 C2697 1.386 . S
C2696 C2698 1.391 . S
C2697 C2696 1.386 . S
C2697 C2701 1.393 . S
C2698 H2690 0.950 . S
C2698 C2696 1.391 . S
C2698 C2699 1.400 . S
C2699 C2698 1.400 . S
C2699 C2700 1.398 . S
C2699 C2705 1.491 . S
C2700 H2691 0.950 . S
C2700 C2699 1.398 . S
C2700 C2701 1.391 . S
C2701 H2689 0.950 . S
C2701 C2697 1.393 . S
C2701 C2700 1.391 . S
C2702 H2692 0.950 . S
C2702 C2703 1.386 . S
C2702 C2704 1.391 . S
C2703 C2702 1.386 . S
C2703 C2707 1.393 . S
C2704 H2693 0.950 . S
C2704 C2702 1.391 . S
C2704 C2705 1.400 . S
C2705 C2699 1.491 . S
C2705 C2704 1.400 . S
C2705 C2706 1.398 . S
C2706 H2694 0.950 . S
C2706 C2705 1.398 . S
C2706 C2707 1.391 . S
C2707 H2695 0.950 . S
C2707 C2703 1.393 . S
C2707 C2706 1.391 . S
H2708 C2716 0.950 . S
H2709 C2721 0.950 . S
H2710 C2718 0.950 . S
H2711 C2720 0.950 . S
H2712 C2722 0.950 . S
H2713 C2724 0.950 . S
H2714 C2726 0.950 . S
H2715 C2727 0.950 . S
C2716 H2708 0.950 . S
C2716 C2717 1.386 . S
C2716 C2718 1.391 . S
C2717 C2716 1.386 . S
C2717 C2721 1.393 . S
C2718 H2710 0.950 . S
C2718 C2716 1.391 . S
C2718 C2719 1.400 . S
C2719 C2718 1.400 . S
C2719 C2720 1.398 . S
C2719 C2725 1.491 . S
C2720 H2711 0.950 . S
C2720 C2719 1.398 . S
C2720 C2721 1.391 . S
C2721 H2709 0.950 . S
C2721 C2717 1.393 . S
C2721 C2720 1.391 . S
C2722 H2712 0.950 . S
C2722 C2723 1.386 . S
C2722 C2724 1.391 . S
C2723 C2722 1.386 . S
C2723 C2727 1.393 . S
C2724 H2713 0.950 . S
C2724 C2722 1.391 . S
C2724 C2725 1.400 . S
C2725 C2719 1.491 . S
C2725 C2724 1.400 . S
C2725 C2726 1.398 . S
C2726 H2714 0.950 . S
C2726 C2725 1.398 . S
C2726 C2727 1.391 . S
C2727 H2715 0.950 . S
C2727 C2723 1.393 . S
C2727 C2726 1.391 . S
H2728 C2736 0.950 . S
H2729 C2741 0.950 . S
H2730 C2738 0.950 . S
H2731 C2740 0.950 . S
H2732 C2742 0.950 . S
H2733 C2744 0.950 . S
H2734 C2746 0.950 . S
H2735 C2747 0.950 . S
C2736 H2728 0.950 . S
C2736 C2737 1.386 . S
C2736 C2738 1.391 . S
C2737 C2736 1.386 . S
C2737 C2741 1.393 . S
C2738 H2730 0.950 . S
C2738 C2736 1.391 . S
C2738 C2739 1.400 . S
C2739 C2738 1.400 . S
C2739 C2740 1.398 . S
C2739 C2745 1.491 . S
C2740 H2731 0.950 . S
C2740 C2739 1.398 . S
C2740 C2741 1.391 . S
C2741 H2729 0.950 . S
C2741 C2737 1.393 . S
C2741 C2740 1.391 . S
C2742 H2732 0.950 . S
C2742 C2743 1.386 . S
C2742 C2744 1.391 . S
C2743 C2742 1.386 . S
C2743 C2747 1.393 . S
C2744 H2733 0.950 . S
C2744 C2742 1.391 . S
C2744 C2745 1.400 . S
C2745 C2739 1.491 . S
C2745 C2744 1.400 . S
C2745 C2746 1.398 . S
C2746 H2734 0.950 . S
C2746 C2745 1.398 . S
C2746 C2747 1.391 . S
C2747 H2735 0.950 . S
C2747 C2743 1.393 . S
C2747 C2746 1.391 . S
H2748 C2756 0.950 . S
H2749 C2761 0.950 . S
H2750 C2758 0.950 . S
H2751 C2760 0.950 . S
H2752 C2762 0.950 . S
H2753 C2764 0.950 . S
H2754 C2766 0.950 . S
H2755 C2767 0.950 . S
C2756 H2748 0.950 . S
C2756 C2757 1.386 . S
C2756 C2758 1.391 1_556 S
C2757 C2756 1.386 . S
C2757 C2761 1.393 1_556 S
C2758 H2750 0.950 . S
C2758 C2756 1.391 1_554 S
C2758 C2759 1.400 . S
C2759 C2758 1.400 . S
C2759 C2760 1.398 . S
C2759 C2765 1.491 . S
C2760 H2751 0.950 . S
C2760 C2759 1.398 . S
C2760 C2761 1.391 . S
C2761 H2749 0.950 . S
C2761 C2757 1.393 1_554 S
C2761 C2760 1.391 . S
C2762 H2752 0.950 . S
C2762 C2763 1.386 . S
C2762 C2764 1.391 . S
C2763 C2762 1.386 . S
C2763 C2767 1.393 . S
C2764 H2753 0.950 . S
C2764 C2762 1.391 . S
C2764 C2765 1.400 . S
C2765 C2759 1.491 . S
C2765 C2764 1.400 . S
C2765 C2766 1.398 . S
C2766 H2754 0.950 . S
C2766 C2765 1.398 . S
C2766 C2767 1.391 . S
C2767 H2755 0.950 . S
C2767 C2763 1.393 . S
C2767 C2766 1.391 . S
H2768 C2776 0.950 . S
H2769 C2781 0.950 . S
H2770 C2778 0.950 . S
H2771 C2780 0.950 . S
H2772 C2782 0.950 . S
H2773 C2784 0.950 . S
H2774 C2786 0.950 . S
H2775 C2787 0.950 . S
C2776 H2768 0.950 . S
C2776 C2777 1.386 . S
C2776 C2778 1.391 . S
C2777 C2776 1.386 . S
C2777 C2781 1.393 . S
C2778 H2770 0.950 . S
C2778 C2776 1.391 . S
C2778 C2779 1.400 . S
C2779 C2778 1.400 . S
C2779 C2780 1.398 . S
C2779 C2785 1.491 . S
C2780 H2771 0.950 . S
C2780 C2779 1.398 . S
C2780 C2781 1.391 . S
C2781 H2769 0.950 . S
C2781 C2777 1.393 . S
C2781 C2780 1.391 . S
C2782 H2772 0.950 . S
C2782 C2783 1.386 . S
C2782 C2784 1.391 . S
C2783 C2782 1.386 . S
C2783 C2787 1.393 . S
C2784 H2773 0.950 . S
C2784 C2782 1.391 . S
C2784 C2785 1.400 . S
C2785 C2779 1.491 . S
C2785 C2784 1.400 . S
C2785 C2786 1.398 . S
C2786 H2774 0.950 . S
C2786 C2785 1.398 . S
C2786 C2787 1.391 . S
C2787 H2775 0.950 . S
C2787 C2783 1.393 . S
C2787 C2786 1.391 . S
H2788 C2796 0.950 . S
H2789 C2801 0.950 . S
H2790 C2798 0.950 . S
H2791 C2800 0.950 . S
H2792 C2802 0.950 . S
H2793 C2804 0.950 . S
H2794 C2806 0.950 . S
H2795 C2807 0.950 . S
C2796 H2788 0.950 . S
C2796 C2797 1.386 . S
C2796 C2798 1.391 . S
C2797 C2796 1.386 . S
C2797 C2801 1.393 . S
C2798 H2790 0.950 . S
C2798 C2796 1.391 . S
C2798 C2799 1.400 . S
C2799 C2798 1.400 . S
C2799 C2800 1.398 . S
C2799 C2805 1.491 . S
C2800 H2791 0.950 . S
C2800 C2799 1.398 . S
C2800 C2801 1.391 . S
C2801 H2789 0.950 . S
C2801 C2797 1.393 . S
C2801 C2800 1.391 . S
C2802 H2792 0.950 . S
C2802 C2803 1.386 . S
C2802 C2804 1.391 . S
C2803 C2802 1.386 . S
C2803 C2807 1.393 . S
C2804 H2793 0.950 . S
C2804 C2802 1.391 . S
C2804 C2805 1.400 . S
C2805 C2799 1.491 . S
C2805 C2804 1.400 . S
C2805 C2806 1.398 . S
C2806 H2794 0.950 . S
C2806 C2805 1.398 . S
C2806 C2807 1.391 . S
C2807 H2795 0.950 . S
C2807 C2803 1.393 . S
C2807 C2806 1.391 . S
H2808 C2816 0.950 . S
H2809 C2821 0.950 . S
H2810 C2818 0.950 . S
H2811 C2820 0.950 . S
H2812 C2822 0.950 . S
H2813 C2824 0.950 . S
H2814 C2826 0.950 . S
H2815 C2827 0.950 . S
C2816 H2808 0.950 . S
C2816 C2817 1.386 . S
C2816 C2818 1.391 . S
C2817 C2816 1.386 . S
C2817 C2821 1.393 . S
C2818 H2810 0.950 . S
C2818 C2816 1.391 . S
C2818 C2819 1.400 . S
C2819 C2818 1.400 . S
C2819 C2820 1.398 . S
C2819 C2825 1.491 . S
C2820 H2811 0.950 . S
C2820 C2819 1.398 . S
C2820 C2821 1.391 . S
C2821 H2809 0.950 . S
C2821 C2817 1.393 . S
C2821 C2820 1.391 . S
C2822 H2812 0.950 . S
C2822 C2823 1.386 . S
C2822 C2824 1.391 . S
C2823 C2822 1.386 . S
C2823 C2827 1.393 . S
C2824 H2813 0.950 . S
C2824 C2822 1.391 . S
C2824 C2825 1.400 . S
C2825 C2819 1.491 . S
C2825 C2824 1.400 . S
C2825 C2826 1.398 . S
C2826 H2814 0.950 . S
C2826 C2825 1.398 . S
C2826 C2827 1.391 . S
C2827 H2815 0.950 . S
C2827 C2823 1.393 . S
C2827 C2826 1.391 . S
H2828 C2836 0.950 . S
H2829 C2841 0.950 . S
H2830 C2838 0.950 . S
H2831 C2840 0.950 . S
H2832 C2842 0.950 . S
H2833 C2844 0.950 . S
H2834 C2846 0.950 . S
H2835 C2847 0.950 . S
C2836 H2828 0.950 . S
C2836 C2837 1.386 . S
C2836 C2838 1.391 . S
C2837 C2836 1.386 . S
C2837 C2841 1.393 . S
C2838 H2830 0.950 . S
C2838 C2836 1.391 . S
C2838 C2839 1.400 . S
C2839 C2838 1.400 . S
C2839 C2840 1.398 . S
C2839 C2845 1.491 . S
C2840 H2831 0.950 . S
C2840 C2839 1.398 . S
C2840 C2841 1.391 . S
C2841 H2829 0.950 . S
C2841 C2837 1.393 . S
C2841 C2840 1.391 . S
C2842 H2832 0.950 . S
C2842 C2843 1.386 . S
C2842 C2844 1.391 . S
C2843 C2842 1.386 . S
C2843 C2847 1.393 . S
C2844 H2833 0.950 . S
C2844 C2842 1.391 . S
C2844 C2845 1.400 . S
C2845 C2839 1.491 . S
C2845 C2844 1.400 . S
C2845 C2846 1.398 . S
C2846 H2834 0.950 . S
C2846 C2845 1.398 . S
C2846 C2847 1.391 . S
C2847 H2835 0.950 . S
C2847 C2843 1.393 . S
C2847 C2846 1.391 . S
H2848 C2856 0.950 . S
H2849 C2861 0.950 . S
H2850 C2858 0.950 . S
H2851 C2860 0.950 . S
H2852 C2862 0.950 . S
H2853 C2864 0.950 . S
H2854 C2866 0.950 . S
H2855 C2867 0.950 . S
C2856 H2848 0.950 . S
C2856 C2857 1.386 . S
C2856 C2858 1.391 . S
C2857 C2856 1.386 . S
C2857 C2861 1.393 . S
C2858 H2850 0.950 . S
C2858 C2856 1.391 . S
C2858 C2859 1.400 . S
C2859 C2858 1.400 . S
C2859 C2860 1.398 . S
C2859 C2865 1.491 . S
C2860 H2851 0.950 . S
C2860 C2859 1.398 . S
C2860 C2861 1.391 . S
C2861 H2849 0.950 . S
C2861 C2857 1.393 . S
C2861 C2860 1.391 . S
C2862 H2852 0.950 . S
C2862 C2863 1.386 . S
C2862 C2864 1.391 1_565 S
C2863 C2862 1.386 . S
C2863 C2867 1.393 1_565 S
C2864 H2853 0.950 . S
C2864 C2862 1.391 1_545 S
C2864 C2865 1.400 . S
C2865 C2859 1.491 . S
C2865 C2864 1.400 . S
C2865 C2866 1.398 . S
C2866 H2854 0.950 . S
C2866 C2865 1.398 . S
C2866 C2867 1.391 . S
C2867 H2855 0.950 . S
C2867 C2863 1.393 1_545 S
C2867 C2866 1.391 . S
H2868 C2876 0.950 . S
H2869 C2881 0.950 . S
H2870 C2878 0.950 . S
H2871 C2880 0.950 . S
H2872 C2882 0.950 . S
H2873 C2884 0.950 . S
H2874 C2886 0.950 . S
H2875 C2887 0.950 . S
C2876 H2868 0.950 . S
C2876 C2877 1.386 . S
C2876 C2878 1.391 . S
C2877 C2876 1.386 . S
C2877 C2881 1.393 . S
C2878 H2870 0.950 . S
C2878 C2876 1.391 . S
C2878 C2879 1.400 . S
C2879 C2878 1.400 . S
C2879 C2880 1.398 . S
C2879 C2885 1.491 . S
C2880 H2871 0.950 . S
C2880 C2879 1.398 . S
C2880 C2881 1.391 . S
C2881 H2869 0.950 . S
C2881 C2877 1.393 . S
C2881 C2880 1.391 . S
C2882 H2872 0.950 . S
C2882 C2883 1.386 . S
C2882 C2884 1.391 . S
C2883 C2882 1.386 . S
C2883 C2887 1.393 . S
C2884 H2873 0.950 . S
C2884 C2882 1.391 . S
C2884 C2885 1.400 . S
C2885 C2879 1.491 . S
C2885 C2884 1.400 . S
C2885 C2886 1.398 . S
C2886 H2874 0.950 . S
C2886 C2885 1.398 . S
C2886 C2887 1.391 . S
C2887 H2875 0.950 . S
C2887 C2883 1.393 . S
C2887 C2886 1.391 . S
H2888 C2896 0.950 . S
H2889 C2901 0.950 . S
H2890 C2898 0.950 . S
H2891 C2900 0.950 . S
H2892 C2902 0.950 . S
H2893 C2904 0.950 . S
H2894 C2906 0.950 . S
H2895 C2907 0.950 . S
C2896 H2888 0.950 . S
C2896 C2897 1.386 . S
C2896 C2898 1.391 . S
C2897 C2896 1.386 . S
C2897 C2901 1.393 . S
C2898 H2890 0.950 . S
C2898 C2896 1.391 . S
C2898 C2899 1.400 . S
C2899 C2898 1.400 . S
C2899 C2900 1.398 . S
C2899 C2905 1.491 . S
C2900 H2891 0.950 . S
C2900 C2899 1.398 . S
C2900 C2901 1.391 . S
C2901 H2889 0.950 . S
C2901 C2897 1.393 . S
C2901 C2900 1.391 . S
C2902 H2892 0.950 . S
C2902 C2903 1.386 . S
C2902 C2904 1.391 . S
C2903 C2902 1.386 . S
C2903 C2907 1.393 . S
C2904 H2893 0.950 . S
C2904 C2902 1.391 . S
C2904 C2905 1.400 . S
C2905 C2899 1.491 . S
C2905 C2904 1.400 . S
C2905 C2906 1.398 . S
C2906 H2894 0.950 . S
C2906 C2905 1.398 . S
C2906 C2907 1.391 . S
C2907 H2895 0.950 . S
C2907 C2903 1.393 . S
C2907 C2906 1.391 . S
H2908 C2916 0.950 . S
H2909 C2921 0.950 . S
H2910 C2918 0.950 . S
H2911 C2920 0.950 . S
H2912 C2922 0.950 . S
H2913 C2924 0.950 . S
H2914 C2926 0.950 . S
H2915 C2927 0.950 . S
C2916 H2908 0.950 . S
C2916 C2917 1.386 . S
C2916 C2918 1.391 . S
C2917 C2916 1.386 . S
C2917 C2921 1.393 . S
C2918 H2910 0.950 . S
C2918 C2916 1.391 . S
C2918 C2919 1.400 . S
C2919 C2918 1.400 . S
C2919 C2920 1.398 . S
C2919 C2925 1.491 . S
C2920 H2911 0.950 . S
C2920 C2919 1.398 . S
C2920 C2921 1.391 . S
C2921 H2909 0.950 . S
C2921 C2917 1.393 . S
C2921 C2920 1.391 . S
C2922 H2912 0.950 . S
C2922 C2923 1.386 . S
C2922 C2924 1.391 . S
C2923 C2922 1.386 . S
C2923 C2927 1.393 . S
C2924 H2913 0.950 . S
C2924 C2922 1.391 . S
C2924 C2925 1.400 . S
C2925 C2919 1.491 . S
C2925 C2924 1.400 . S
C2925 C2926 1.398 . S
C2926 H2914 0.950 . S
C2926 C2925 1.398 . S
C2926 C2927 1.391 . S
C2927 H2915 0.950 . S
C2927 C2923 1.393 . S
C2927 C2926 1.391 . S
H2928 C2936 0.950 . S
H2929 C2941 0.950 . S
H2930 C2938 0.950 . S
H2931 C2940 0.950 . S
H2932 C2942 0.950 . S
H2933 C2944 0.950 . S
H2934 C2946 0.950 . S
H2935 C2947 0.950 . S
C2936 H2928 0.950 . S
C2936 C2937 1.386 . S
C2936 C2938 1.391 . S
C2937 C2936 1.386 . S
C2937 C2941 1.393 . S
C2938 H2930 0.950 . S
C2938 C2936 1.391 . S
C2938 C2939 1.400 . S
C2939 C2938 1.400 . S
C2939 C2940 1.398 . S
C2939 C2945 1.491 . S
C2940 H2931 0.950 . S
C2940 C2939 1.398 . S
C2940 C2941 1.391 . S
C2941 H2929 0.950 . S
C2941 C2937 1.393 . S
C2941 C2940 1.391 . S
C2942 H2932 0.950 . S
C2942 C2943 1.386 . S
C2942 C2944 1.391 . S
C2943 C2942 1.386 . S
C2943 C2947 1.393 . S
C2944 H2933 0.950 . S
C2944 C2942 1.391 . S
C2944 C2945 1.400 . S
C2945 C2939 1.491 . S
C2945 C2944 1.400 . S
C2945 C2946 1.398 . S
C2946 H2934 0.950 . S
C2946 C2945 1.398 . S
C2946 C2947 1.391 . S
C2947 H2935 0.950 . S
C2947 C2943 1.393 . S
C2947 C2946 1.391 . S
H2948 C2956 0.950 . S
H2949 C2961 0.950 . S
H2950 C2958 0.950 . S
H2951 C2960 0.950 . S
H2952 C2962 0.950 . S
H2953 C2964 0.950 . S
H2954 C2966 0.950 . S
H2955 C2967 0.950 . S
C2956 H2948 0.950 . S
C2956 C2957 1.386 . S
C2956 C2958 1.391 . S
C2957 C2956 1.386 . S
C2957 C2961 1.393 . S
C2958 H2950 0.950 . S
C2958 C2956 1.391 . S
C2958 C2959 1.400 . S
C2959 C2958 1.400 . S
C2959 C2960 1.398 . S
C2959 C2965 1.491 . S
C2960 H2951 0.950 . S
C2960 C2959 1.398 . S
C2960 C2961 1.391 . S
C2961 H2949 0.950 . S
C2961 C2957 1.393 . S
C2961 C2960 1.391 . S
C2962 H2952 0.950 . S
C2962 C2963 1.386 . S
C2962 C2964 1.391 . S
C2963 C2962 1.386 . S
C2963 C2967 1.393 . S
C2964 H2953 0.950 . S
C2964 C2962 1.391 . S
C2964 C2965 1.400 . S
C2965 C2959 1.491 . S
C2965 C2964 1.400 . S
C2965 C2966 1.398 . S
C2966 H2954 0.950 . S
C2966 C2965 1.398 . S
C2966 C2967 1.391 . S
C2967 H2955 0.950 . S
C2967 C2963 1.393 . S
C2967 C2966 1.391 . S
H2968 C2976 0.950 . S
H2969 C2981 0.950 . S
H2970 C2978 0.950 . S
H2971 C2980 0.950 . S
H2972 C2982 0.950 . S
H2973 C2984 0.950 . S
H2974 C2986 0.950 . S
H2975 C2987 0.950 . S
C2976 H2968 0.950 . S
C2976 C2977 1.386 . S
C2976 C2978 1.391 . S
C2977 C2976 1.386 . S
C2977 C2981 1.393 . S
C2978 H2970 0.950 . S
C2978 C2976 1.391 . S
C2978 C2979 1.400 . S
C2979 C2978 1.400 . S
C2979 C2980 1.398 . S
C2979 C2985 1.491 . S
C2980 H2971 0.950 . S
C2980 C2979 1.398 . S
C2980 C2981 1.391 . S
C2981 H2969 0.950 . S
C2981 C2977 1.393 . S
C2981 C2980 1.391 . S
C2982 H2972 0.950 . S
C2982 C2983 1.386 . S
C2982 C2984 1.391 . S
C2983 C2982 1.386 . S
C2983 C2987 1.393 . S
C2984 H2973 0.950 . S
C2984 C2982 1.391 . S
C2984 C2985 1.400 . S
C2985 C2979 1.491 . S
C2985 C2984 1.400 . S
C2985 C2986 1.398 . S
C2986 H2974 0.950 . S
C2986 C2985 1.398 . S
C2986 C2987 1.391 . S
C2987 H2975 0.950 . S
C2987 C2983 1.393 . S
C2987 C2986 1.391 . S
H2988 C2996 0.950 . S
H2989 C3001 0.950 . S
H2990 C2998 0.950 . S
H2991 C3000 0.950 . S
H2992 C3002 0.950 . S
H2993 C3004 0.950 1_655 S
H2994 C3006 0.950 . S
H2995 C3007 0.950 . S
C2996 H2988 0.950 . S
C2996 C2997 1.386 . S
C2996 C2998 1.391 . S
C2997 C2996 1.386 . S
C2997 C3001 1.393 . S
C2998 H2990 0.950 . S
C2998 C2996 1.391 . S
C2998 C2999 1.400 . S
C2999 C2998 1.400 . S
C2999 C3000 1.398 . S
C2999 C3005 1.491 . S
C3000 H2991 0.950 . S
C3000 C2999 1.398 . S
C3000 C3001 1.391 . S
C3001 H2989 0.950 . S
C3001 C2997 1.393 . S
C3001 C3000 1.391 . S
C3002 H2992 0.950 . S
C3002 C3003 1.404 . S
C3002 C3004 1.391 1_655 S
C3003 C3002 1.404 . S
C3003 C3007 1.346 1_655 S
C3004 H2993 0.950 1_455 S
C3004 C3002 1.391 1_455 S
C3004 C3005 1.400 . S
C3005 C2999 1.491 . S
C3005 C3004 1.400 . S
C3005 C3006 1.398 . S
C3006 H2994 0.950 . S
C3006 C3005 1.398 . S
C3006 C3007 1.391 . S
C3007 H2995 0.950 . S
C3007 C3003 1.346 1_455 S
C3007 C3006 1.391 . S
H3008 C3016 0.950 . S
H3009 C3021 0.950 . S
H3010 C3018 0.950 . S
H3011 C3020 0.950 . S
H3012 C3022 0.950 . S
H3013 C3024 0.950 . S
H3014 C3026 0.950 . S
H3015 C3027 0.950 . S
C3016 H3008 0.950 . S
C3016 C3017 1.386 . S
C3016 C3018 1.391 . S
C3017 C3016 1.386 . S
C3017 C3021 1.393 . S
C3018 H3010 0.950 . S
C3018 C3016 1.391 . S
C3018 C3019 1.400 . S
C3019 C3018 1.400 . S
C3019 C3020 1.398 . S
C3019 C3025 1.491 . S
C3020 H3011 0.950 . S
C3020 C3019 1.398 . S
C3020 C3021 1.391 . S
C3021 H3009 0.950 . S
C3021 C3017 1.393 . S
C3021 C3020 1.391 . S
C3022 H3012 0.950 . S
C3022 C3023 1.386 . S
C3022 C3024 1.391 . S
C3023 C3022 1.386 . S
C3023 C3027 1.393 . S
C3024 H3013 0.950 . S
C3024 C3022 1.391 . S
C3024 C3025 1.400 . S
C3025 C3019 1.491 . S
C3025 C3024 1.400 . S
C3025 C3026 1.398 . S
C3026 H3014 0.950 . S
C3026 C3025 1.398 . S
C3026 C3027 1.391 . S
C3027 H3015 0.950 . S
C3027 C3023 1.393 . S
C3027 C3026 1.391 . S
H3028 C3036 0.950 . S
H3029 C3041 0.950 . S
H3030 C3038 0.950 1_655 S
H3031 C3040 0.950 . S
H3032 C3042 0.950 . S
H3033 C3044 0.950 . S
H3034 C3046 0.950 . S
H3035 C3047 0.950 . S
C3036 H3028 0.950 . S
C3036 C3037 1.401 . S
C3036 C3038 1.391 1_655 S
C3037 C3036 1.401 . S
C3037 C3041 1.353 1_655 S
C3038 H3030 0.950 1_455 S
C3038 C3036 1.391 1_455 S
C3038 C3039 1.400 . S
C3039 C3038 1.400 . S
C3039 C3040 1.398 . S
C3039 C3045 1.491 . S
C3040 H3031 0.950 . S
C3040 C3039 1.398 . S
C3040 C3041 1.391 . S
C3041 H3029 0.950 . S
C3041 C3037 1.353 1_455 S
C3041 C3040 1.391 . S
C3042 H3032 0.950 . S
C3042 C3043 1.386 . S
C3042 C3044 1.391 . S
C3043 C3042 1.386 . S
C3043 C3047 1.393 . S
C3044 H3033 0.950 . S
C3044 C3042 1.391 . S
C3044 C3045 1.400 . S
C3045 C3039 1.491 . S
C3045 C3044 1.400 . S
C3045 C3046 1.398 . S
C3046 H3034 0.950 . S
C3046 C3045 1.398 . S
C3046 C3047 1.391 . S
C3047 H3035 0.950 . S
C3047 C3043 1.393 . S
C3047 C3046 1.391 . S
H3048 C3056 0.950 . S
H3049 C3061 0.950 . S
H3050 C3058 0.950 . S
H3051 C3060 0.950 . S
H3052 C3062 0.950 . S
H3053 C3064 0.950 . S
H3054 C3066 0.950 . S
H3055 C3067 0.950 . S
C3056 H3048 0.950 . S
C3056 C3057 1.386 . S
C3056 C3058 1.391 . S
C3057 C3056 1.386 . S
C3057 C3061 1.393 . S
C3058 H3050 0.950 . S
C3058 C3056 1.391 . S
C3058 C3059 1.400 . S
C3059 C3058 1.400 . S
C3059 C3060 1.398 . S
C3059 C3065 1.491 . S
C3060 H3051 0.950 . S
C3060 C3059 1.398 . S
C3060 C3061 1.391 . S
C3061 H3049 0.950 . S
C3061 C3057 1.393 . S
C3061 C3060 1.391 . S
C3062 H3052 0.950 . S
C3062 C3063 1.386 . S
C3062 C3064 1.391 . S
C3063 C3062 1.386 . S
C3063 C3067 1.393 . S
C3064 H3053 0.950 . S
C3064 C3062 1.391 . S
C3064 C3065 1.400 . S
C3065 C3059 1.491 . S
C3065 C3064 1.400 . S
C3065 C3066 1.398 . S
C3066 H3054 0.950 . S
C3066 C3065 1.398 . S
C3066 C3067 1.391 . S
C3067 H3055 0.950 . S
C3067 C3063 1.393 . S
C3067 C3066 1.391 . S
H3068 C3076 0.950 . S
H3069 C3081 0.950 . S
H3070 C3078 0.950 . S
H3071 C3080 0.950 . S
H3072 C3082 0.950 . S
H3073 C3084 0.950 . S
H3074 C3086 0.950 . S
H3075 C3087 0.950 . S
C3076 H3068 0.950 . S
C3076 C3077 1.386 . S
C3076 C3078 1.391 . S
C3077 C3076 1.386 . S
C3077 C3081 1.393 . S
C3078 H3070 0.950 . S
C3078 C3076 1.391 . S
C3078 C3079 1.400 . S
C3079 C3078 1.400 . S
C3079 C3080 1.398 . S
C3079 C3085 1.491 . S
C3080 H3071 0.950 . S
C3080 C3079 1.398 . S
C3080 C3081 1.391 . S
C3081 H3069 0.950 . S
C3081 C3077 1.393 . S
C3081 C3080 1.391 . S
C3082 H3072 0.950 . S
C3082 C3083 1.386 . S
C3082 C3084 1.391 . S
C3083 C3082 1.386 . S
C3083 C3087 1.393 . S
C3084 H3073 0.950 . S
C3084 C3082 1.391 . S
C3084 C3085 1.400 . S
C3085 C3079 1.491 . S
C3085 C3084 1.400 . S
C3085 C3086 1.398 . S
C3086 H3074 0.950 . S
C3086 C3085 1.398 . S
C3086 C3087 1.391 . S
C3087 H3075 0.950 . S
C3087 C3083 1.393 . S
C3087 C3086 1.391 . S
H3088 C3096 0.950 . S
H3089 C3101 0.950 . S
H3090 C3098 0.950 . S
H3091 C3100 0.950 . S
H3092 C3102 0.950 . S
H3093 C3104 0.950 . S
H3094 C3106 0.950 . S
H3095 C3107 0.950 . S
C3096 H3088 0.950 . S
C3096 C3097 1.386 . S
C3096 C3098 1.391 . S
C3097 C3096 1.386 . S
C3097 C3101 1.393 . S
C3098 H3090 0.950 . S
C3098 C3096 1.391 . S
C3098 C3099 1.400 . S
C3099 C3098 1.400 . S
C3099 C3100 1.398 . S
C3099 C3105 1.491 . S
C3100 H3091 0.950 . S
C3100 C3099 1.398 . S
C3100 C3101 1.391 . S
C3101 H3089 0.950 . S
C3101 C3097 1.393 . S
C3101 C3100 1.391 . S
C3102 H3092 0.950 . S
C3102 C3103 1.386 . S
C3102 C3104 1.391 . S
C3103 C3102 1.386 . S
C3103 C3107 1.393 . S
C3104 H3093 0.950 . S
C3104 C3102 1.391 . S
C3104 C3105 1.400 . S
C3105 C3099 1.491 . S
C3105 C3104 1.400 . S
C3105 C3106 1.398 . S
C3106 H3094 0.950 . S
C3106 C3105 1.398 . S
C3106 C3107 1.391 . S
C3107 H3095 0.950 . S
C3107 C3103 1.393 . S
C3107 C3106 1.391 . S
H3108 C3116 0.950 . S
H3109 C3121 0.950 . S
H3110 C3118 0.950 . S
H3111 C3120 0.950 . S
H3112 C3122 0.950 . S
H3113 C3124 0.950 . S
H3114 C3126 0.950 . S
H3115 C3127 0.950 . S
C3116 H3108 0.950 . S
C3116 C3117 1.386 . S
C3116 C3118 1.391 . S
C3117 C3116 1.386 . S
C3117 C3121 1.393 . S
C3118 H3110 0.950 . S
C3118 C3116 1.391 . S
C3118 C3119 1.400 . S
C3119 C3118 1.400 . S
C3119 C3120 1.398 . S
C3119 C3125 1.491 . S
C3120 H3111 0.950 . S
C3120 C3119 1.398 . S
C3120 C3121 1.391 . S
C3121 H3109 0.950 . S
C3121 C3117 1.393 . S
C3121 C3120 1.391 . S
C3122 H3112 0.950 . S
C3122 C3123 1.386 . S
C3122 C3124 1.391 1_556 S
C3123 C3122 1.386 . S
C3123 C3127 1.393 1_556 S
C3124 H3113 0.950 . S
C3124 C3122 1.391 1_554 S
C3124 C3125 1.400 . S
C3125 C3119 1.491 . S
C3125 C3124 1.400 . S
C3125 C3126 1.398 . S
C3126 H3114 0.950 . S
C3126 C3125 1.398 . S
C3126 C3127 1.391 . S
C3127 H3115 0.950 . S
C3127 C3123 1.393 1_554 S
C3127 C3126 1.391 . S
H3128 C3136 0.950 . S
H3129 C3141 0.950 . S
H3130 C3138 0.950 . S
H3131 C3140 0.950 . S
H3132 C3142 0.950 . S
H3133 C3144 0.950 . S
H3134 C3146 0.950 . S
H3135 C3147 0.950 . S
C3136 H3128 0.950 . S
C3136 C3137 1.386 . S
C3136 C3138 1.391 . S
C3137 C3136 1.386 . S
C3137 C3141 1.393 . S
C3138 H3130 0.950 . S
C3138 C3136 1.391 . S
C3138 C3139 1.400 . S
C3139 C3138 1.400 . S
C3139 C3140 1.398 . S
C3139 C3145 1.491 . S
C3140 H3131 0.950 . S
C3140 C3139 1.398 . S
C3140 C3141 1.391 . S
C3141 H3129 0.950 . S
C3141 C3137 1.393 . S
C3141 C3140 1.391 . S
C3142 H3132 0.950 . S
C3142 C3143 1.386 . S
C3142 C3144 1.391 . S
C3143 C3142 1.386 . S
C3143 C3147 1.393 . S
C3144 H3133 0.950 . S
C3144 C3142 1.391 . S
C3144 C3145 1.400 . S
C3145 C3139 1.491 . S
C3145 C3144 1.400 . S
C3145 C3146 1.398 . S
C3146 H3134 0.950 . S
C3146 C3145 1.398 . S
C3146 C3147 1.391 . S
C3147 H3135 0.950 . S
C3147 C3143 1.393 . S
C3147 C3146 1.391 . S
H3148 C3156 0.950 . S
H3149 C3161 0.950 . S
H3150 C3158 0.950 . S
H3151 C3160 0.950 . S
H3152 C3162 0.950 . S
H3153 C3164 0.950 . S
H3154 C3166 0.950 . S
H3155 C3167 0.950 . S
C3156 H3148 0.950 . S
C3156 C3157 1.386 . S
C3156 C3158 1.391 . S
C3157 C3156 1.386 . S
C3157 C3161 1.393 . S
C3158 H3150 0.950 . S
C3158 C3156 1.391 . S
C3158 C3159 1.400 . S
C3159 C3158 1.400 . S
C3159 C3160 1.398 . S
C3159 C3165 1.491 . S
C3160 H3151 0.950 . S
C3160 C3159 1.398 . S
C3160 C3161 1.391 . S
C3161 H3149 0.950 . S
C3161 C3157 1.393 . S
C3161 C3160 1.391 . S
C3162 H3152 0.950 . S
C3162 C3163 1.386 . S
C3162 C3164 1.391 . S
C3163 C3162 1.386 . S
C3163 C3167 1.393 . S
C3164 H3153 0.950 . S
C3164 C3162 1.391 . S
C3164 C3165 1.400 . S
C3165 C3159 1.491 . S
C3165 C3164 1.400 . S
C3165 C3166 1.398 . S
C3166 H3154 0.950 . S
C3166 C3165 1.398 . S
C3166 C3167 1.391 . S
C3167 H3155 0.950 . S
C3167 C3163 1.393 . S
C3167 C3166 1.391 . S
H3168 C3176 0.950 . S
H3169 C3181 0.950 . S
H3170 C3178 0.950 . S
H3171 C3180 0.950 . S
H3172 C3182 0.950 . S
H3173 C3184 0.950 . S
H3174 C3186 0.950 . S
H3175 C3187 0.950 . S
C3176 H3168 0.950 . S
C3176 C3177 1.386 . S
C3176 C3178 1.391 . S
C3177 C3176 1.386 . S
C3177 C3181 1.393 . S
C3178 H3170 0.950 . S
C3178 C3176 1.391 . S
C3178 C3179 1.400 . S
C3179 C3178 1.400 . S
C3179 C3180 1.398 . S
C3179 C3185 1.491 . S
C3180 H3171 0.950 . S
C3180 C3179 1.398 . S
C3180 C3181 1.391 . S
C3181 H3169 0.950 . S
C3181 C3177 1.393 . S
C3181 C3180 1.391 . S
C3182 H3172 0.950 . S
C3182 C3183 1.386 . S
C3182 C3184 1.391 . S
C3183 C3182 1.386 . S
C3183 C3187 1.393 . S
C3184 H3173 0.950 . S
C3184 C3182 1.391 . S
C3184 C3185 1.400 . S
C3185 C3179 1.491 . S
C3185 C3184 1.400 . S
C3185 C3186 1.398 . S
C3186 H3174 0.950 . S
C3186 C3185 1.398 . S
C3186 C3187 1.391 . S
C3187 H3175 0.950 . S
C3187 C3183 1.393 . S
C3187 C3186 1.391 . S
H3188 C3196 0.950 . S
H3189 C3201 0.950 . S
H3190 C3198 0.950 . S
H3191 C3200 0.950 . S
H3192 C3202 0.950 . S
H3193 C3204 0.950 . S
H3194 C3206 0.950 . S
H3195 C3207 0.950 . S
C3196 H3188 0.950 . S
C3196 C3197 1.386 . S
C3196 C3198 1.391 . S
C3197 C3196 1.386 . S
C3197 C3201 1.393 . S
C3198 H3190 0.950 . S
C3198 C3196 1.391 . S
C3198 C3199 1.400 . S
C3199 C3198 1.400 . S
C3199 C3200 1.398 . S
C3199 C3205 1.491 . S
C3200 H3191 0.950 . S
C3200 C3199 1.398 . S
C3200 C3201 1.391 . S
C3201 H3189 0.950 . S
C3201 C3197 1.393 . S
C3201 C3200 1.391 . S
C3202 H3192 0.950 . S
C3202 C3203 1.386 . S
C3202 C3204 1.391 1_554 S
C3203 C3202 1.386 . S
C3203 C3207 1.393 1_554 S
C3204 H3193 0.950 . S
C3204 C3202 1.391 1_556 S
C3204 C3205 1.400 . S
C3205 C3199 1.491 . S
C3205 C3204 1.400 . S
C3205 C3206 1.398 . S
C3206 H3194 0.950 . S
C3206 C3205 1.398 . S
C3206 C3207 1.391 . S
C3207 H3195 0.950 . S
C3207 C3203 1.393 1_556 S
C3207 C3206 1.391 . S
H3208 C3216 0.950 . S
H3209 C3221 0.950 . S
H3210 C3218 0.950 . S
H3211 C3220 0.950 . S
H3212 C3222 0.950 . S
H3213 C3224 0.950 . S
H3214 C3226 0.950 . S
H3215 C3227 0.950 . S
C3216 H3208 0.950 . S
C3216 C3217 1.386 . S
C3216 C3218 1.391 . S
C3217 C3216 1.386 . S
C3217 C3221 1.393 . S
C3218 H3210 0.950 . S
C3218 C3216 1.391 . S
C3218 C3219 1.400 . S
C3219 C3218 1.400 . S
C3219 C3220 1.398 . S
C3219 C3225 1.491 . S
C3220 H3211 0.950 . S
C3220 C3219 1.398 . S
C3220 C3221 1.391 . S
C3221 H3209 0.950 . S
C3221 C3217 1.393 . S
C3221 C3220 1.391 . S
C3222 H3212 0.950 . S
C3222 C3223 1.386 . S
C3222 C3224 1.391 . S
C3223 C3222 1.386 . S
C3223 C3227 1.393 . S
C3224 H3213 0.950 . S
C3224 C3222 1.391 . S
C3224 C3225 1.400 . S
C3225 C3219 1.491 . S
C3225 C3224 1.400 . S
C3225 C3226 1.398 . S
C3226 H3214 0.950 . S
C3226 C3225 1.398 . S
C3226 C3227 1.391 . S
C3227 H3215 0.950 . S
C3227 C3223 1.393 . S
C3227 C3226 1.391 . S
H3228 C3236 0.950 . S
H3229 C3241 0.950 . S
H3230 C3238 0.950 . S
H3231 C3240 0.950 . S
H3232 C3242 0.950 . S
H3233 C3244 0.950 . S
H3234 C3246 0.950 . S
H3235 C3247 0.950 . S
C3236 H3228 0.950 . S
C3236 C3237 1.386 . S
C3236 C3238 1.391 . S
C3237 C3236 1.386 . S
C3237 C3241 1.393 . S
C3238 H3230 0.950 . S
C3238 C3236 1.391 . S
C3238 C3239 1.400 . S
C3239 C3238 1.400 . S
C3239 C3240 1.398 . S
C3239 C3245 1.491 . S
C3240 H3231 0.950 . S
C3240 C3239 1.398 . S
C3240 C3241 1.391 . S
C3241 H3229 0.950 . S
C3241 C3237 1.393 . S
C3241 C3240 1.391 . S
C3242 H3232 0.950 . S
C3242 C3243 1.386 . S
C3242 C3244 1.391 . S
C3243 C3242 1.386 . S
C3243 C3247 1.393 . S
C3244 H3233 0.950 . S
C3244 C3242 1.391 . S
C3244 C3245 1.400 . S
C3245 C3239 1.491 . S
C3245 C3244 1.400 . S
C3245 C3246 1.398 . S
C3246 H3234 0.950 . S
C3246 C3245 1.398 . S
C3246 C3247 1.391 . S
C3247 H3235 0.950 . S
C3247 C3243 1.393 . S
C3247 C3246 1.391 . S
H3248 C3256 0.950 . S
H3249 C3261 0.950 . S
H3250 C3258 0.950 . S
H3251 C3260 0.950 . S
H3252 C3262 0.950 . S
H3253 C3264 0.950 . S
H3254 C3266 0.950 . S
H3255 C3267 0.950 . S
C3256 H3248 0.950 . S
C3256 C3257 1.386 . S
C3256 C3258 1.391 . S
C3257 C3256 1.386 . S
C3257 C3261 1.393 . S
C3258 H3250 0.950 . S
C3258 C3256 1.391 . S
C3258 C3259 1.400 . S
C3259 C3258 1.400 . S
C3259 C3260 1.398 . S
C3259 C3265 1.491 . S
C3260 H3251 0.950 . S
C3260 C3259 1.398 . S
C3260 C3261 1.391 . S
C3261 H3249 0.950 . S
C3261 C3257 1.393 . S
C3261 C3260 1.391 . S
C3262 H3252 0.950 . S
C3262 C3263 1.386 . S
C3262 C3264 1.391 . S
C3263 C3262 1.386 . S
C3263 C3267 1.393 . S
C3264 H3253 0.950 . S
C3264 C3262 1.391 . S
C3264 C3265 1.400 . S
C3265 C3259 1.491 . S
C3265 C3264 1.400 . S
C3265 C3266 1.398 . S
C3266 H3254 0.950 . S
C3266 C3265 1.398 . S
C3266 C3267 1.391 . S
C3267 H3255 0.950 . S
C3267 C3263 1.393 . S
C3267 C3266 1.391 . S
H3268 C3276 0.950 . S
H3269 C3281 0.950 . S
H3270 C3278 0.950 . S
H3271 C3280 0.950 . S
H3272 C3282 0.950 . S
H3273 C3284 0.950 . S
H3274 C3286 0.950 . S
H3275 C3287 0.950 . S
C3276 H3268 0.950 . S
C3276 C3277 1.386 . S
C3276 C3278 1.391 . S
C3277 C3276 1.386 . S
C3277 C3281 1.393 . S
C3278 H3270 0.950 . S
C3278 C3276 1.391 . S
C3278 C3279 1.400 . S
C3279 C3278 1.400 . S
C3279 C3280 1.398 . S
C3279 C3285 1.491 . S
C3280 H3271 0.950 . S
C3280 C3279 1.398 . S
C3280 C3281 1.391 . S
C3281 H3269 0.950 . S
C3281 C3277 1.393 . S
C3281 C3280 1.391 . S
C3282 H3272 0.950 . S
C3282 C3283 1.386 . S
C3282 C3284 1.391 . S
C3283 C3282 1.386 . S
C3283 C3287 1.393 . S
C3284 H3273 0.950 . S
C3284 C3282 1.391 . S
C3284 C3285 1.400 . S
C3285 C3279 1.491 . S
C3285 C3284 1.400 . S
C3285 C3286 1.398 . S
C3286 H3274 0.950 . S
C3286 C3285 1.398 . S
C3286 C3287 1.391 . S
C3287 H3275 0.950 . S
C3287 C3283 1.393 . S
C3287 C3286 1.391 . S
H3288 C3296 0.950 . S
H3289 C3301 0.950 . S
H3290 C3298 0.950 . S
H3291 C3300 0.950 . S
H3292 C3302 0.950 1_565 S
H3293 C3304 0.950 . S
H3294 C3306 0.950 . S
H3295 C3307 0.950 . S
C3296 H3288 0.950 . S
C3296 C3297 1.386 . S
C3296 C3298 1.391 . S
C3297 C3296 1.386 . S
C3297 C3301 1.393 . S
C3298 H3290 0.950 . S
C3298 C3296 1.391 . S
C3298 C3299 1.400 . S
C3299 C3298 1.400 . S
C3299 C3300 1.398 . S
C3299 C3305 1.491 . S
C3300 H3291 0.950 . S
C3300 C3299 1.398 . S
C3300 C3301 1.391 . S
C3301 H3289 0.950 . S
C3301 C3297 1.393 . S
C3301 C3300 1.391 . S
C3302 H3292 0.950 1_545 S
C3302 C3303 1.385 1_545 S
C3302 C3304 1.391 . S
C3303 C3302 1.385 1_565 S
C3303 C3307 1.388 1_565 S
C3304 H3293 0.950 . S
C3304 C3302 1.391 . S
C3304 C3305 1.400 . S
C3305 C3299 1.491 . S
C3305 C3304 1.400 . S
C3305 C3306 1.398 . S
C3306 H3294 0.950 . S
C3306 C3305 1.398 . S
C3306 C3307 1.391 . S
C3307 H3295 0.950 . S
C3307 C3303 1.388 1_545 S
C3307 C3306 1.391 . S
H3308 C3316 0.950 . S
H3309 C3321 0.950 . S
H3310 C3318 0.950 . S
H3311 C3320 0.950 . S
H3312 C3322 0.950 . S
H3313 C3324 0.950 . S
H3314 C3326 0.950 . S
H3315 C3327 0.950 . S
C3316 H3308 0.950 . S
C3316 C3317 1.386 . S
C3316 C3318 1.391 . S
C3317 C3316 1.386 . S
C3317 C3321 1.393 . S
C3318 H3310 0.950 . S
C3318 C3316 1.391 . S
C3318 C3319 1.400 . S
C3319 C3318 1.400 . S
C3319 C3320 1.398 . S
C3319 C3325 1.491 . S
C3320 H3311 0.950 . S
C3320 C3319 1.398 . S
C3320 C3321 1.391 . S
C3321 H3309 0.950 . S
C3321 C3317 1.393 . S
C3321 C3320 1.391 . S
C3322 H3312 0.950 . S
C3322 C3323 1.386 . S
C3322 C3324 1.391 . S
C3323 C3322 1.386 . S
C3323 C3327 1.393 . S
C3324 H3313 0.950 . S
C3324 C3322 1.391 . S
C3324 C3325 1.400 . S
C3325 C3319 1.491 . S
C3325 C3324 1.400 . S
C3325 C3326 1.398 . S
C3326 H3314 0.950 . S
C3326 C3325 1.398 . S
C3326 C3327 1.391 . S
C3327 H3315 0.950 . S
C3327 C3323 1.393 . S
C3327 C3326 1.391 . S
H3328 C3336 0.950 . S
H3329 C3341 0.950 . S
H3330 C3338 0.950 . S
H3331 C3340 0.950 . S
H3332 C3342 0.950 . S
H3333 C3344 0.950 . S
H3334 C3346 0.950 . S
H3335 C3347 0.950 . S
C3336 H3328 0.950 . S
C3336 C3337 1.386 . S
C3336 C3338 1.391 . S
C3337 C3336 1.386 . S
C3337 C3341 1.393 . S
C3338 H3330 0.950 . S
C3338 C3336 1.391 . S
C3338 C3339 1.400 . S
C3339 C3338 1.400 . S
C3339 C3340 1.398 . S
C3339 C3345 1.491 . S
C3340 H3331 0.950 . S
C3340 C3339 1.398 . S
C3340 C3341 1.391 . S
C3341 H3329 0.950 . S
C3341 C3337 1.393 . S
C3341 C3340 1.391 . S
C3342 H3332 0.950 . S
C3342 C3343 1.386 . S
C3342 C3344 1.391 . S
C3343 C3342 1.386 . S
C3343 C3347 1.393 . S
C3344 H3333 0.950 . S
C3344 C3342 1.391 . S
C3344 C3345 1.400 . S
C3345 C3339 1.491 . S
C3345 C3344 1.400 . S
C3345 C3346 1.398 . S
C3346 H3334 0.950 . S
C3346 C3345 1.398 . S
C3346 C3347 1.391 . S
C3347 H3335 0.950 . S
C3347 C3343 1.393 . S
C3347 C3346 1.391 . S
H3348 C3356 0.950 . S
H3349 C3361 0.950 . S
H3350 C3358 0.950 . S
H3351 C3360 0.950 . S
H3352 C3362 0.950 . S
H3353 C3364 0.950 . S
H3354 C3366 0.950 . S
H3355 C3367 0.950 . S
C3356 H3348 0.950 . S
C3356 C3357 1.386 . S
C3356 C3358 1.391 . S
C3357 C3356 1.386 . S
C3357 C3361 1.393 . S
C3358 H3350 0.950 . S
C3358 C3356 1.391 . S
C3358 C3359 1.400 . S
C3359 C3358 1.400 . S
C3359 C3360 1.398 . S
C3359 C3365 1.491 . S
C3360 H3351 0.950 . S
C3360 C3359 1.398 . S
C3360 C3361 1.391 . S
C3361 H3349 0.950 . S
C3361 C3357 1.393 . S
C3361 C3360 1.391 . S
C3362 H3352 0.950 . S
C3362 C3363 1.386 . S
C3362 C3364 1.391 . S
C3363 C3362 1.386 . S
C3363 C3367 1.393 . S
C3364 H3353 0.950 . S
C3364 C3362 1.391 . S
C3364 C3365 1.400 . S
C3365 C3359 1.491 . S
C3365 C3364 1.400 . S
C3365 C3366 1.398 . S
C3366 H3354 0.950 . S
C3366 C3365 1.398 . S
C3366 C3367 1.391 . S
C3367 H3355 0.950 . S
C3367 C3363 1.393 . S
C3367 C3366 1.391 . S
H3368 C3376 0.950 . S
H3369 C3381 0.950 . S
H3370 C3378 0.950 . S
H3371 C3380 0.950 . S
H3372 C3382 0.950 1_545 S
H3373 C3384 0.950 . S
H3374 C3386 0.950 . S
H3375 C3387 0.950 . S
C3376 H3368 0.950 . S
C3376 C3377 1.386 . S
C3376 C3378 1.391 . S
C3377 C3376 1.386 . S
C3377 C3381 1.393 . S
C3378 H3370 0.950 . S
C3378 C3376 1.391 . S
C3378 C3379 1.400 . S
C3379 C3378 1.400 . S
C3379 C3380 1.398 . S
C3379 C3385 1.491 . S
C3380 H3371 0.950 . S
C3380 C3379 1.398 . S
C3380 C3381 1.391 . S
C3381 H3369 0.950 . S
C3381 C3377 1.393 . S
C3381 C3380 1.391 . S
C3382 H3372 0.950 1_565 S
C3382 C3383 1.385 1_565 S
C3382 C3384 1.391 . S
C3383 C3382 1.385 1_545 S
C3383 C3387 1.389 1_545 S
C3384 H3373 0.950 . S
C3384 C3382 1.391 . S
C3384 C3385 1.400 . S
C3385 C3379 1.491 . S
C3385 C3384 1.400 . S
C3385 C3386 1.398 . S
C3386 H3374 0.950 . S
C3386 C3385 1.398 . S
C3386 C3387 1.391 . S
C3387 H3375 0.950 . S
C3387 C3383 1.389 1_565 S
C3387 C3386 1.391 . S
H3388 C3396 0.950 . S
H3389 C3401 0.950 . S
H3390 C3398 0.950 . S
H3391 C3400 0.950 . S
H3392 C3402 0.950 . S
H3393 C3404 0.950 . S
H3394 C3406 0.950 . S
H3395 C3407 0.950 . S
C3396 H3388 0.950 . S
C3396 C3397 1.368 1_545 S
C3396 C3398 1.391 . S
C3397 C3396 1.368 1_565 S
C3397 C3401 1.397 . S
C3398 H3390 0.950 . S
C3398 C3396 1.391 . S
C3398 C3399 1.400 . S
C3399 C3398 1.400 . S
C3399 C3400 1.398 . S
C3399 C3405 1.491 . S
C3400 H3391 0.950 . S
C3400 C3399 1.398 . S
C3400 C3401 1.391 1_545 S
C3401 H3389 0.950 . S
C3401 C3397 1.397 . S
C3401 C3400 1.391 1_565 S
C3402 H3392 0.950 . S
C3402 C3403 1.386 . S
C3402 C3404 1.391 . S
C3403 C3402 1.386 . S
C3403 C3407 1.393 . S
C3404 H3393 0.950 . S
C3404 C3402 1.391 . S
C3404 C3405 1.400 . S
C3405 C3399 1.491 . S
C3405 C3404 1.400 . S
C3405 C3406 1.398 . S
C3406 H3394 0.950 . S
C3406 C3405 1.398 . S
C3406 C3407 1.391 . S
C3407 H3395 0.950 . S
C3407 C3403 1.393 . S
C3407 C3406 1.391 . S
H3408 C3416 0.950 . S
H3409 C3421 0.950 . S
H3410 C3418 0.950 . S
H3411 C3420 0.950 . S
H3412 C3422 0.950 . S
H3413 C3424 0.950 . S
H3414 C3426 0.950 . S
H3415 C3427 0.950 . S
C3416 H3408 0.950 . S
C3416 C3417 1.386 . S
C3416 C3418 1.391 . S
C3417 C3416 1.386 . S
C3417 C3421 1.393 . S
C3418 H3410 0.950 . S
C3418 C3416 1.391 . S
C3418 C3419 1.400 . S
C3419 C3418 1.400 . S
C3419 C3420 1.398 . S
C3419 C3425 1.491 . S
C3420 H3411 0.950 . S
C3420 C3419 1.398 . S
C3420 C3421 1.391 . S
C3421 H3409 0.950 . S
C3421 C3417 1.393 . S
C3421 C3420 1.391 . S
C3422 H3412 0.950 . S
C3422 C3423 1.386 . S
C3422 C3424 1.391 . S
C3423 C3422 1.386 . S
C3423 C3427 1.393 . S
C3424 H3413 0.950 . S
C3424 C3422 1.391 . S
C3424 C3425 1.400 . S
C3425 C3419 1.491 . S
C3425 C3424 1.400 . S
C3425 C3426 1.398 . S
C3426 H3414 0.950 . S
C3426 C3425 1.398 . S
C3426 C3427 1.391 . S
C3427 H3415 0.950 . S
C3427 C3423 1.393 . S
C3427 C3426 1.391 . S
H3428 C3436 0.950 . S
H3429 C3441 0.950 . S
H3430 C3438 0.950 . S
H3431 C3440 0.950 . S
H3432 C3442 0.950 . S
H3433 C3444 0.950 . S
H3434 C3446 0.950 . S
H3435 C3447 0.950 . S
C3436 H3428 0.950 . S
C3436 C3437 1.386 . S
C3436 C3438 1.391 . S
C3437 C3436 1.386 . S
C3437 C3441 1.393 . S
C3438 H3430 0.950 . S
C3438 C3436 1.391 . S
C3438 C3439 1.400 . S
C3439 C3438 1.400 . S
C3439 C3440 1.398 . S
C3439 C3445 1.491 . S
C3440 H3431 0.950 . S
C3440 C3439 1.398 . S
C3440 C3441 1.391 . S
C3441 H3429 0.950 . S
C3441 C3437 1.393 . S
C3441 C3440 1.391 . S
C3442 H3432 0.950 . S
C3442 C3443 1.386 . S
C3442 C3444 1.391 . S
C3443 C3442 1.386 . S
C3443 C3447 1.393 . S
C3444 H3433 0.950 . S
C3444 C3442 1.391 . S
C3444 C3445 1.400 . S
C3445 C3439 1.491 . S
C3445 C3444 1.400 . S
C3445 C3446 1.398 . S
C3446 H3434 0.950 . S
C3446 C3445 1.398 . S
C3446 C3447 1.391 . S
C3447 H3435 0.950 . S
C3447 C3443 1.393 . S
C3447 C3446 1.391 . S
H3448 C3456 0.950 . S
H3449 C3461 0.950 . S
H3450 C3458 0.950 . S
H3451 C3460 0.950 . S
H3452 C3462 0.950 . S
H3453 C3464 0.950 . S
H3454 C3466 0.950 . S
H3455 C3467 0.950 . S
C3456 H3448 0.950 . S
C3456 C3457 1.386 . S
C3456 C3458 1.391 . S
C3457 C3456 1.386 . S
C3457 C3461 1.393 . S
C3458 H3450 0.950 . S
C3458 C3456 1.391 . S
C3458 C3459 1.400 . S
C3459 C3458 1.400 . S
C3459 C3460 1.398 . S
C3459 C3465 1.491 . S
C3460 H3451 0.950 . S
C3460 C3459 1.398 . S
C3460 C3461 1.391 . S
C3461 H3449 0.950 . S
C3461 C3457 1.393 . S
C3461 C3460 1.391 . S
C3462 H3452 0.950 . S
C3462 C3463 1.386 . S
C3462 C3464 1.391 . S
C3463 C3462 1.386 . S
C3463 C3467 1.393 . S
C3464 H3453 0.950 . S
C3464 C3462 1.391 . S
C3464 C3465 1.400 . S
C3465 C3459 1.491 . S
C3465 C3464 1.400 . S
C3465 C3466 1.398 . S
C3466 H3454 0.950 . S
C3466 C3465 1.398 . S
C3466 C3467 1.391 . S
C3467 H3455 0.950 . S
C3467 C3463 1.393 . S
C3467 C3466 1.391 . S
H3468 C3476 0.950 . S
H3469 C3481 0.950 . S
H3470 C3478 0.950 . S
H3471 C3480 0.950 . S
H3472 C3482 0.950 . S
H3473 C3484 0.950 . S
H3474 C3486 0.950 1_455 S
H3475 C3487 0.950 . S
C3476 H3468 0.950 . S
C3476 C3477 1.386 . S
C3476 C3478 1.391 . S
C3477 C3476 1.386 . S
C3477 C3481 1.393 . S
C3478 H3470 0.950 . S
C3478 C3476 1.391 . S
C3478 C3479 1.400 . S
C3479 C3478 1.400 . S
C3479 C3480 1.398 . S
C3479 C3485 1.491 . S
C3480 H3471 0.950 . S
C3480 C3479 1.398 . S
C3480 C3481 1.391 . S
C3481 H3469 0.950 . S
C3481 C3477 1.393 . S
C3481 C3480 1.391 . S
C3482 H3472 0.950 . S
C3482 C3483 1.338 1_655 S
C3482 C3484 1.391 . S
C3483 C3482 1.338 1_455 S
C3483 C3487 1.412 . S
C3484 H3473 0.950 . S
C3484 C3482 1.391 . S
C3484 C3485 1.400 . S
C3485 C3479 1.491 . S
C3485 C3484 1.400 . S
C3485 C3486 1.398 . S
C3486 H3474 0.950 1_655 S
C3486 C3485 1.398 . S
C3486 C3487 1.391 1_655 S
C3487 H3475 0.950 . S
C3487 C3483 1.412 . S
C3487 C3486 1.391 1_455 S
H3488 C3496 0.950 . S
H3489 C3501 0.950 . S
H3490 C3498 0.950 . S
H3491 C3500 0.950 . S
H3492 C3502 0.950 . S
H3493 C3504 0.950 . S
H3494 C3506 0.950 . S
H3495 C3507 0.950 . S
C3496 H3488 0.950 . S
C3496 C3497 1.386 . S
C3496 C3498 1.391 . S
C3497 C3496 1.386 . S
C3497 C3501 1.393 . S
C3498 H3490 0.950 . S
C3498 C3496 1.391 . S
C3498 C3499 1.400 . S
C3499 C3498 1.400 . S
C3499 C3500 1.398 . S
C3499 C3505 1.491 . S
C3500 H3491 0.950 . S
C3500 C3499 1.398 . S
C3500 C3501 1.391 . S
C3501 H3489 0.950 . S
C3501 C3497 1.393 . S
C3501 C3500 1.391 . S
C3502 H3492 0.950 . S
C3502 C3503 1.386 . S
C3502 C3504 1.391 . S
C3503 C3502 1.386 . S
C3503 C3507 1.393 . S
C3504 H3493 0.950 . S
C3504 C3502 1.391 . S
C3504 C3505 1.400 . S
C3505 C3499 1.491 . S
C3505 C3504 1.400 . S
C3505 C3506 1.398 . S
C3506 H3494 0.950 . S
C3506 C3505 1.398 . S
C3506 C3507 1.391 . S
C3507 H3495 0.950 . S
C3507 C3503 1.393 . S
C3507 C3506 1.391 . S
H3508 C3516 0.950 . S
H3509 C3521 0.950 . S
H3510 C3518 0.950 1_455 S
H3511 C3520 0.950 . S
H3512 C3522 0.950 . S
H3513 C3524 0.950 . S
H3514 C3526 0.950 . S
H3515 C3527 0.950 . S
C3516 H3508 0.950 . S
C3516 C3517 1.404 . S
C3516 C3518 1.391 1_455 S
C3517 C3516 1.404 . S
C3517 C3521 1.346 1_455 S
C3518 H3510 0.950 1_655 S
C3518 C3516 1.391 1_655 S
C3518 C3519 1.400 . S
C3519 C3518 1.400 . S
C3519 C3520 1.398 . S
C3519 C3525 1.491 . S
C3520 H3511 0.950 . S
C3520 C3519 1.398 . S
C3520 C3521 1.391 . S
C3521 H3509 0.950 . S
C3521 C3517 1.346 1_655 S
C3521 C3520 1.391 . S
C3522 H3512 0.950 . S
C3522 C3523 1.386 . S
C3522 C3524 1.391 . S
C3523 C3522 1.386 . S
C3523 C3527 1.393 . S
C3524 H3513 0.950 . S
C3524 C3522 1.391 . S
C3524 C3525 1.400 . S
C3525 C3519 1.491 . S
C3525 C3524 1.400 . S
C3525 C3526 1.398 . S
C3526 H3514 0.950 . S
C3526 C3525 1.398 . S
C3526 C3527 1.391 . S
C3527 H3515 0.950 . S
C3527 C3523 1.393 . S
C3527 C3526 1.391 . S
H3528 C3536 0.950 . S
H3529 C3541 0.950 . S
H3530 C3538 0.950 . S
H3531 C3540 0.950 . S
H3532 C3542 0.950 . S
H3533 C3544 0.950 . S
H3534 C3546 0.950 . S
H3535 C3547 0.950 . S
C3536 H3528 0.950 . S
C3536 C3537 1.386 . S
C3536 C3538 1.391 . S
C3537 C3536 1.386 . S
C3537 C3541 1.393 . S
C3538 H3530 0.950 . S
C3538 C3536 1.391 . S
C3538 C3539 1.400 . S
C3539 C3538 1.400 . S
C3539 C3540 1.398 . S
C3539 C3545 1.491 . S
C3540 H3531 0.950 . S
C3540 C3539 1.398 . S
C3540 C3541 1.391 . S
C3541 H3529 0.950 . S
C3541 C3537 1.393 . S
C3541 C3540 1.391 . S
C3542 H3532 0.950 . S
C3542 C3543 1.386 . S
C3542 C3544 1.391 . S
C3543 C3542 1.386 . S
C3543 C3547 1.393 . S
C3544 H3533 0.950 . S
C3544 C3542 1.391 . S
C3544 C3545 1.400 . S
C3545 C3539 1.491 . S
C3545 C3544 1.400 . S
C3545 C3546 1.398 . S
C3546 H3534 0.950 . S
C3546 C3545 1.398 . S
C3546 C3547 1.391 . S
C3547 H3535 0.950 . S
C3547 C3543 1.393 . S
C3547 C3546 1.391 . S
H3548 C3556 0.950 . S
H3549 C3561 0.950 . S
H3550 C3558 0.950 . S
H3551 C3560 0.950 . S
H3552 C3562 0.950 . S
H3553 C3564 0.950 . S
H3554 C3566 0.950 . S
H3555 C3567 0.950 . S
C3556 H3548 0.950 . S
C3556 C3557 1.386 . S
C3556 C3558 1.391 . S
C3557 C3556 1.386 . S
C3557 C3561 1.393 . S
C3558 H3550 0.950 . S
C3558 C3556 1.391 . S
C3558 C3559 1.400 . S
C3559 C3558 1.400 . S
C3559 C3560 1.398 . S
C3559 C3565 1.491 . S
C3560 H3551 0.950 . S
C3560 C3559 1.398 . S
C3560 C3561 1.391 . S
C3561 H3549 0.950 . S
C3561 C3557 1.393 . S
C3561 C3560 1.391 . S
C3562 H3552 0.950 . S
C3562 C3563 1.386 . S
C3562 C3564 1.391 . S
C3563 C3562 1.386 . S
C3563 C3567 1.393 . S
C3564 H3553 0.950 . S
C3564 C3562 1.391 . S
C3564 C3565 1.400 . S
C3565 C3559 1.491 . S
C3565 C3564 1.400 . S
C3565 C3566 1.398 . S
C3566 H3554 0.950 . S
C3566 C3565 1.398 . S
C3566 C3567 1.391 . S
C3567 H3555 0.950 . S
C3567 C3563 1.393 . S
C3567 C3566 1.391 . S
H3568 C3576 0.950 . S
H3569 C3581 0.950 . S
H3570 C3578 0.950 . S
H3571 C3580 0.950 . S
H3572 C3582 0.950 . S
H3573 C3584 0.950 . S
H3574 C3586 0.950 . S
H3575 C3587 0.950 . S
C3576 H3568 0.950 . S
C3576 C3577 1.386 . S
C3576 C3578 1.391 . S
C3577 C3576 1.386 . S
C3577 C3581 1.393 . S
C3578 H3570 0.950 . S
C3578 C3576 1.391 . S
C3578 C3579 1.400 . S
C3579 C3578 1.400 . S
C3579 C3580 1.398 . S
C3579 C3585 1.491 . S
C3580 H3571 0.950 . S
C3580 C3579 1.398 . S
C3580 C3581 1.391 . S
C3581 H3569 0.950 . S
C3581 C3577 1.393 . S
C3581 C3580 1.391 . S
C3582 H3572 0.950 . S
C3582 C3583 1.386 . S
C3582 C3584 1.391 . S
C3583 C3582 1.386 . S
C3583 C3587 1.393 . S
C3584 H3573 0.950 . S
C3584 C3582 1.391 . S
C3584 C3585 1.400 . S
C3585 C3579 1.491 . S
C3585 C3584 1.400 . S
C3585 C3586 1.398 . S
C3586 H3574 0.950 . S
C3586 C3585 1.398 . S
C3586 C3587 1.391 . S
C3587 H3575 0.950 . S
C3587 C3583 1.393 . S
C3587 C3586 1.391 . S
H3588 C3596 0.950 . S
H3589 C3601 0.950 . S
H3590 C3598 0.950 . S
H3591 C3600 0.950 . S
H3592 C3602 0.950 1_554 S
H3593 C3604 0.950 . S
H3594 C3606 0.950 . S
H3595 C3607 0.950 . S
C3596 H3588 0.950 . S
C3596 C3597 1.386 . S
C3596 C3598 1.391 . S
C3597 C3596 1.386 . S
C3597 C3601 1.393 . S
C3598 H3590 0.950 . S
C3598 C3596 1.391 . S
C3598 C3599 1.400 . S
C3599 C3598 1.400 . S
C3599 C3600 1.398 . S
C3599 C3605 1.491 . S
C3600 H3591 0.950 . S
C3600 C3599 1.398 . S
C3600 C3601 1.391 . S
C3601 H3589 0.950 . S
C3601 C3597 1.393 . S
C3601 C3600 1.391 . S
C3602 H3592 0.950 1_556 S
C3602 C3603 1.384 1_556 S
C3602 C3604 1.391 . S
C3603 C3602 1.384 1_554 S
C3603 C3607 1.389 1_554 S
C3604 H3593 0.950 . S
C3604 C3602 1.391 . S
C3604 C3605 1.400 . S
C3605 C3599 1.491 . S
C3605 C3604 1.400 . S
C3605 C3606 1.398 . S
C3606 H3594 0.950 . S
C3606 C3605 1.398 . S
C3606 C3607 1.391 . S
C3607 H3595 0.950 . S
C3607 C3603 1.389 1_556 S
C3607 C3606 1.391 . S
H3608 C3616 0.950 . S
H3609 C3621 0.950 . S
H3610 C3618 0.950 . S
H3611 C3620 0.950 . S
H3612 C3622 0.950 . S
H3613 C3624 0.950 . S
H3614 C3626 0.950 . S
H3615 C3627 0.950 . S
C3616 H3608 0.950 . S
C3616 C3617 1.386 . S
C3616 C3618 1.391 . S
C3617 C3616 1.386 . S
C3617 C3621 1.393 . S
C3618 H3610 0.950 . S
C3618 C3616 1.391 . S
C3618 C3619 1.400 . S
C3619 C3618 1.400 . S
C3619 C3620 1.398 . S
C3619 C3625 1.491 . S
C3620 H3611 0.950 . S
C3620 C3619 1.398 . S
C3620 C3621 1.391 . S
C3621 H3609 0.950 . S
C3621 C3617 1.393 . S
C3621 C3620 1.391 . S
C3622 H3612 0.950 . S
C3622 C3623 1.386 . S
C3622 C3624 1.391 . S
C3623 C3622 1.386 . S
C3623 C3627 1.393 . S
C3624 H3613 0.950 . S
C3624 C3622 1.391 . S
C3624 C3625 1.400 . S
C3625 C3619 1.491 . S
C3625 C3624 1.400 . S
C3625 C3626 1.398 . S
C3626 H3614 0.950 . S
C3626 C3625 1.398 . S
C3626 C3627 1.391 . S
C3627 H3615 0.950 . S
C3627 C3623 1.393 . S
C3627 C3626 1.391 . S
H3628 C3636 0.950 . S
H3629 C3641 0.950 . S
H3630 C3638 0.950 . S
H3631 C3640 0.950 . S
H3632 C3642 0.950 . S
H3633 C3644 0.950 . S
H3634 C3646 0.950 . S
H3635 C3647 0.950 . S
C3636 H3628 0.950 . S
C3636 C3637 1.386 . S
C3636 C3638 1.391 . S
C3637 C3636 1.386 . S
C3637 C3641 1.393 . S
C3638 H3630 0.950 . S
C3638 C3636 1.391 . S
C3638 C3639 1.400 . S
C3639 C3638 1.400 . S
C3639 C3640 1.398 . S
C3639 C3645 1.491 . S
C3640 H3631 0.950 . S
C3640 C3639 1.398 . S
C3640 C3641 1.391 . S
C3641 H3629 0.950 . S
C3641 C3637 1.393 . S
C3641 C3640 1.391 . S
C3642 H3632 0.950 . S
C3642 C3643 1.386 . S
C3642 C3644 1.391 . S
C3643 C3642 1.386 . S
C3643 C3647 1.393 . S
C3644 H3633 0.950 . S
C3644 C3642 1.391 . S
C3644 C3645 1.400 . S
C3645 C3639 1.491 . S
C3645 C3644 1.400 . S
C3645 C3646 1.398 . S
C3646 H3634 0.950 . S
C3646 C3645 1.398 . S
C3646 C3647 1.391 . S
C3647 H3635 0.950 . S
C3647 C3643 1.393 . S
C3647 C3646 1.391 . S
H3648 C3656 0.950 . S
H3649 C3661 0.950 . S
H3650 C3658 0.950 . S
H3651 C3660 0.950 . S
H3652 C3662 0.950 . S
H3653 C3664 0.950 . S
H3654 C3666 0.950 . S
H3655 C3667 0.950 . S
C3656 H3648 0.950 . S
C3656 C3657 1.386 . S
C3656 C3658 1.391 . S
C3657 C3656 1.386 . S
C3657 C3661 1.393 . S
C3658 H3650 0.950 . S
C3658 C3656 1.391 . S
C3658 C3659 1.400 . S
C3659 C3658 1.400 . S
C3659 C3660 1.398 . S
C3659 C3665 1.491 . S
C3660 H3651 0.950 . S
C3660 C3659 1.398 . S
C3660 C3661 1.391 . S
C3661 H3649 0.950 . S
C3661 C3657 1.393 . S
C3661 C3660 1.391 . S
C3662 H3652 0.950 . S
C3662 C3663 1.386 . S
C3662 C3664 1.391 . S
C3663 C3662 1.386 . S
C3663 C3667 1.393 . S
C3664 H3653 0.950 . S
C3664 C3662 1.391 . S
C3664 C3665 1.400 . S
C3665 C3659 1.491 . S
C3665 C3664 1.400 . S
C3665 C3666 1.398 . S
C3666 H3654 0.950 . S
C3666 C3665 1.398 . S
C3666 C3667 1.391 . S
C3667 H3655 0.950 . S
C3667 C3663 1.393 . S
C3667 C3666 1.391 . S
H3668 C3676 0.950 . S
H3669 C3681 0.950 . S
H3670 C3678 0.950 . S
H3671 C3680 0.934 1_556 S
H3672 C3682 0.950 . S
H3673 C3684 0.950 . S
H3674 C3686 0.950 . S
H3675 C3687 0.950 . S
C3676 H3668 0.950 . S
C3676 C3677 1.386 1_554 S
C3676 C3678 1.391 . S
C3677 C3676 1.386 1_556 S
C3677 C3681 1.393 . S
C3678 H3670 0.950 . S
C3678 C3676 1.391 . S
C3678 C3679 1.400 . S
C3679 C3678 1.400 . S
C3679 C3680 1.398 . S
C3679 C3685 1.491 . S
C3680 H3671 0.934 1_554 S
C3680 C3679 1.398 . S
C3680 C3681 1.391 1_554 S
C3681 H3669 0.950 . S
C3681 C3677 1.393 . S
C3681 C3680 1.391 1_556 S
C3682 H3672 0.950 . S
C3682 C3683 1.386 . S
C3682 C3684 1.391 . S
C3683 C3682 1.386 . S
C3683 C3687 1.393 . S
C3684 H3673 0.950 . S
C3684 C3682 1.391 . S
C3684 C3685 1.400 . S
C3685 C3679 1.491 . S
C3685 C3684 1.400 . S
C3685 C3686 1.398 . S
C3686 H3674 0.950 . S
C3686 C3685 1.398 . S
C3686 C3687 1.391 . S
C3687 H3675 0.950 . S
C3687 C3683 1.393 . S
C3687 C3686 1.391 . S
H3688 C3696 0.950 . S
H3689 C3701 0.950 . S
H3690 C3698 0.950 . S
H3691 C3700 0.950 . S
H3692 C3702 0.950 . S
H3693 C3704 0.950 . S
H3694 C3706 0.950 . S
H3695 C3707 0.950 . S
C3696 H3688 0.950 . S
C3696 C3697 1.386 . S
C3696 C3698 1.391 . S
C3697 C3696 1.386 . S
C3697 C3701 1.393 . S
C3698 H3690 0.950 . S
C3698 C3696 1.391 . S
C3698 C3699 1.400 . S
C3699 C3698 1.400 . S
C3699 C3700 1.398 . S
C3699 C3705 1.491 . S
C3700 H3691 0.950 . S
C3700 C3699 1.398 . S
C3700 C3701 1.391 . S
C3701 H3689 0.950 . S
C3701 C3697 1.393 . S
C3701 C3700 1.391 . S
C3702 H3692 0.950 . S
C3702 C3703 1.386 . S
C3702 C3704 1.391 . S
C3703 C3702 1.386 . S
C3703 C3707 1.393 . S
C3704 H3693 0.950 . S
C3704 C3702 1.391 . S
C3704 C3705 1.400 . S
C3705 C3699 1.491 . S
C3705 C3704 1.400 . S
C3705 C3706 1.398 . S
C3706 H3694 0.950 . S
C3706 C3705 1.398 . S
C3706 C3707 1.391 . S
C3707 H3695 0.950 . S
C3707 C3703 1.393 . S
C3707 C3706 1.391 . S
H3708 C3716 0.950 . S
H3709 C3721 0.950 . S
H3710 C3718 0.950 . S
H3711 C3720 0.950 . S
H3712 C3722 0.950 . S
H3713 C3724 0.950 . S
H3714 C3726 0.950 . S
H3715 C3727 0.950 . S
C3716 H3708 0.950 . S
C3716 C3717 1.386 . S
C3716 C3718 1.391 . S
C3717 C3716 1.386 . S
C3717 C3721 1.393 . S
C3718 H3710 0.950 . S
C3718 C3716 1.391 . S
C3718 C3719 1.400 . S
C3719 C3718 1.400 . S
C3719 C3720 1.398 . S
C3719 C3725 1.491 . S
C3720 H3711 0.950 . S
C3720 C3719 1.398 . S
C3720 C3721 1.391 . S
C3721 H3709 0.950 . S
C3721 C3717 1.393 . S
C3721 C3720 1.391 . S
C3722 H3712 0.950 . S
C3722 C3723 1.386 . S
C3722 C3724 1.391 . S
C3723 C3722 1.386 . S
C3723 C3727 1.393 . S
C3724 H3713 0.950 . S
C3724 C3722 1.391 . S
C3724 C3725 1.400 . S
C3725 C3719 1.491 . S
C3725 C3724 1.400 . S
C3725 C3726 1.398 . S
C3726 H3714 0.950 . S
C3726 C3725 1.398 . S
C3726 C3727 1.391 . S
C3727 H3715 0.950 . S
C3727 C3723 1.393 . S
C3727 C3726 1.391 . S
H3728 C3736 0.950 . S
H3729 C3741 0.950 . S
H3730 C3738 0.950 . S
H3731 C3740 0.950 . S
H3732 C3742 0.950 . S
H3733 C3744 0.950 . S
H3734 C3746 0.950 . S
H3735 C3747 0.950 . S
C3736 H3728 0.950 . S
C3736 C3737 1.386 . S
C3736 C3738 1.391 . S
C3737 C3736 1.386 . S
C3737 C3741 1.393 . S
C3738 H3730 0.950 . S
C3738 C3736 1.391 . S
C3738 C3739 1.400 . S
C3739 C3738 1.400 . S
C3739 C3740 1.398 . S
C3739 C3745 1.491 . S
C3740 H3731 0.950 . S
C3740 C3739 1.398 . S
C3740 C3741 1.391 . S
C3741 H3729 0.950 . S
C3741 C3737 1.393 . S
C3741 C3740 1.391 . S
C3742 H3732 0.950 . S
C3742 C3743 1.386 . S
C3742 C3744 1.391 . S
C3743 C3742 1.386 . S
C3743 C3747 1.393 . S
C3744 H3733 0.950 . S
C3744 C3742 1.391 . S
C3744 C3745 1.400 . S
C3745 C3739 1.491 . S
C3745 C3744 1.400 . S
C3745 C3746 1.398 . S
C3746 H3734 0.950 . S
C3746 C3745 1.398 . S
C3746 C3747 1.391 . S
C3747 H3735 0.950 . S
C3747 C3743 1.393 . S
C3747 C3746 1.391 . S
H3748 C3756 0.950 . S
H3749 C3761 0.950 . S
H3750 C3758 0.950 . S
H3751 C3760 0.950 . S
H3752 C3762 0.950 . S
H3753 C3764 0.950 . S
H3754 C3766 0.950 . S
H3755 C3767 0.950 . S
C3756 H3748 0.950 . S
C3756 C3757 1.386 . S
C3756 C3758 1.391 . S
C3757 C3756 1.386 . S
C3757 C3761 1.393 . S
C3758 H3750 0.950 . S
C3758 C3756 1.391 . S
C3758 C3759 1.400 . S
C3759 C3758 1.400 . S
C3759 C3760 1.398 . S
C3759 C3765 1.491 . S
C3760 H3751 0.950 . S
C3760 C3759 1.398 . S
C3760 C3761 1.391 . S
C3761 H3749 0.950 . S
C3761 C3757 1.393 . S
C3761 C3760 1.391 . S
C3762 H3752 0.950 . S
C3762 C3763 1.386 . S
C3762 C3764 1.391 . S
C3763 C3762 1.386 . S
C3763 C3767 1.393 . S
C3764 H3753 0.950 . S
C3764 C3762 1.391 . S
C3764 C3765 1.400 . S
C3765 C3759 1.491 . S
C3765 C3764 1.400 . S
C3765 C3766 1.398 . S
C3766 H3754 0.950 . S
C3766 C3765 1.398 . S
C3766 C3767 1.391 . S
C3767 H3755 0.950 . S
C3767 C3763 1.393 . S
C3767 C3766 1.391 . S
H3768 C3776 0.950 . S
H3769 C3781 0.950 . S
H3770 C3778 0.950 . S
H3771 C3780 0.950 . S
H3772 C3782 0.950 . S
H3773 C3784 0.950 1_545 S
H3774 C3786 0.950 . S
H3775 C3787 0.950 . S
C3776 H3768 0.950 . S
C3776 C3777 1.386 . S
C3776 C3778 1.391 . S
C3777 C3776 1.386 . S
C3777 C3781 1.393 . S
C3778 H3770 0.950 . S
C3778 C3776 1.391 . S
C3778 C3779 1.400 . S
C3779 C3778 1.400 . S
C3779 C3780 1.398 . S
C3779 C3785 1.491 . S
C3780 H3771 0.950 . S
C3780 C3779 1.398 . S
C3780 C3781 1.391 . S
C3781 H3769 0.950 . S
C3781 C3777 1.393 . S
C3781 C3780 1.391 . S
C3782 H3772 0.950 . S
C3782 C3783 1.401 . S
C3782 C3784 1.391 1_545 S
C3783 C3782 1.401 . S
C3783 C3787 1.354 1_545 S
C3784 H3773 0.950 1_565 S
C3784 C3782 1.391 1_565 S
C3784 C3785 1.400 . S
C3785 C3779 1.491 . S
C3785 C3784 1.400 . S
C3785 C3786 1.398 . S
C3786 H3774 0.950 . S
C3786 C3785 1.398 . S
C3786 C3787 1.391 . S
C3787 H3775 0.950 . S
C3787 C3783 1.354 1_565 S
C3787 C3786 1.391 . S
H3788 C3796 0.950 . S
H3789 C3801 0.950 . S
H3790 C3798 0.950 . S
H3791 C3800 0.950 . S
H3792 C3802 0.950 . S
H3793 C3804 0.950 . S
H3794 C3806 0.950 . S
H3795 C3807 0.950 . S
C3796 H3788 0.950 . S
C3796 C3797 1.386 . S
C3796 C3798 1.391 . S
C3797 C3796 1.386 . S
C3797 C3801 1.393 . S
C3798 H3790 0.950 . S
C3798 C3796 1.391 . S
C3798 C3799 1.400 . S
C3799 C3798 1.400 . S
C3799 C3800 1.398 . S
C3799 C3805 1.491 . S
C3800 H3791 0.950 . S
C3800 C3799 1.398 . S
C3800 C3801 1.391 . S
C3801 H3789 0.950 . S
C3801 C3797 1.393 . S
C3801 C3800 1.391 . S
C3802 H3792 0.950 . S
C3802 C3803 1.386 . S
C3802 C3804 1.391 . S
C3803 C3802 1.386 . S
C3803 C3807 1.393 . S
C3804 H3793 0.950 . S
C3804 C3802 1.391 . S
C3804 C3805 1.400 . S
C3805 C3799 1.491 . S
C3805 C3804 1.400 . S
C3805 C3806 1.398 . S
C3806 H3794 0.950 . S
C3806 C3805 1.398 . S
C3806 C3807 1.391 . S
C3807 H3795 0.950 . S
C3807 C3803 1.393 . S
C3807 C3806 1.391 . S
H3808 C3816 0.950 . S
H3809 C3821 0.950 . S
H3810 C3818 0.950 . S
H3811 C3820 0.950 . S
H3812 C3822 0.950 . S
H3813 C3824 0.950 . S
H3814 C3826 0.950 . S
H3815 C3827 0.950 . S
C3816 H3808 0.950 . S
C3816 C3817 1.386 . S
C3816 C3818 1.391 . S
C3817 C3816 1.386 . S
C3817 C3821 1.393 . S
C3818 H3810 0.950 . S
C3818 C3816 1.391 . S
C3818 C3819 1.400 . S
C3819 C3818 1.400 . S
C3819 C3820 1.398 . S
C3819 C3825 1.491 . S
C3820 H3811 0.950 . S
C3820 C3819 1.398 . S
C3820 C3821 1.391 . S
C3821 H3809 0.950 . S
C3821 C3817 1.393 . S
C3821 C3820 1.391 . S
C3822 H3812 0.950 . S
C3822 C3823 1.386 . S
C3822 C3824 1.391 . S
C3823 C3822 1.386 . S
C3823 C3827 1.393 . S
C3824 H3813 0.950 . S
C3824 C3822 1.391 . S
C3824 C3825 1.400 . S
C3825 C3819 1.491 . S
C3825 C3824 1.400 . S
C3825 C3826 1.398 . S
C3826 H3814 0.950 . S
C3826 C3825 1.398 . S
C3826 C3827 1.391 . S
C3827 H3815 0.950 . S
C3827 C3823 1.393 . S
C3827 C3826 1.391 . S
H3828 C3836 0.950 . S
H3829 C3841 0.950 . S
H3830 C3838 0.950 . S
H3831 C3840 0.950 . S
H3832 C3842 0.950 . S
H3833 C3844 0.950 . S
H3834 C3846 0.950 . S
H3835 C3847 0.950 . S
C3836 H3828 0.950 . S
C3836 C3837 1.386 . S
C3836 C3838 1.391 . S
C3837 C3836 1.386 . S
C3837 C3841 1.393 . S
C3838 H3830 0.950 . S
C3838 C3836 1.391 . S
C3838 C3839 1.400 . S
C3839 C3838 1.400 . S
C3839 C3840 1.398 . S
C3839 C3845 1.491 . S
C3840 H3831 0.950 . S
C3840 C3839 1.398 . S
C3840 C3841 1.391 . S
C3841 H3829 0.950 . S
C3841 C3837 1.393 . S
C3841 C3840 1.391 . S
C3842 H3832 0.950 . S
C3842 C3843 1.386 . S
C3842 C3844 1.391 . S
C3843 C3842 1.386 . S
C3843 C3847 1.393 . S
C3844 H3833 0.950 . S
C3844 C3842 1.391 . S
C3844 C3845 1.400 . S
C3845 C3839 1.491 . S
C3845 C3844 1.400 . S
C3845 C3846 1.398 . S
C3846 H3834 0.950 . S
C3846 C3845 1.398 . S
C3846 C3847 1.391 . S
C3847 H3835 0.950 . S
C3847 C3843 1.393 . S
C3847 C3846 1.391 . S
H3848 C3856 0.950 . S
H3849 C3861 0.950 . S
H3850 C3858 0.950 . S
H3851 C3860 0.950 . S
H3852 C3862 0.950 . S
H3853 C3864 0.950 . S
H3854 C3866 0.950 . S
H3855 C3867 0.950 . S
C3856 H3848 0.950 . S
C3856 C3857 1.364 1_545 S
C3856 C3858 1.391 . S
C3857 C3856 1.364 1_565 S
C3857 C3861 1.399 . S
C3858 H3850 0.950 . S
C3858 C3856 1.391 . S
C3858 C3859 1.400 . S
C3859 C3858 1.400 . S
C3859 C3860 1.398 . S
C3859 C3865 1.491 . S
C3860 H3851 0.950 . S
C3860 C3859 1.398 . S
C3860 C3861 1.391 1_545 S
C3861 H3849 0.950 . S
C3861 C3857 1.399 . S
C3861 C3860 1.391 1_565 S
C3862 H3852 0.950 . S
C3862 C3863 1.386 . S
C3862 C3864 1.391 . S
C3863 C3862 1.386 . S
C3863 C3867 1.393 . S
C3864 H3853 0.950 . S
C3864 C3862 1.391 . S
C3864 C3865 1.400 . S
C3865 C3859 1.491 . S
C3865 C3864 1.400 . S
C3865 C3866 1.398 . S
C3866 H3854 0.950 . S
C3866 C3865 1.398 . S
C3866 C3867 1.391 . S
C3867 H3855 0.950 . S
C3867 C3863 1.393 . S
C3867 C3866 1.391 . S
H3868 C3876 0.950 . S
H3869 C3881 0.950 . S
H3870 C3878 0.949 1_545 S
H3871 C3880 0.950 . S
H3872 C3882 0.950 . S
H3873 C3884 0.950 . S
H3874 C3886 0.950 . S
H3875 C3887 0.950 . S
C3876 H3868 0.950 . S
C3876 C3877 1.396 . S
C3876 C3878 1.391 1_545 S
C3877 C3876 1.396 . S
C3877 C3881 1.365 1_545 S
C3878 H3870 0.949 1_565 S
C3878 C3876 1.391 1_565 S
C3878 C3879 1.400 . S
C3879 C3878 1.400 . S
C3879 C3880 1.398 . S
C3879 C3885 1.491 . S
C3880 H3871 0.950 . S
C3880 C3879 1.398 . S
C3880 C3881 1.391 . S
C3881 H3869 0.950 . S
C3881 C3877 1.365 1_565 S
C3881 C3880 1.391 . S
C3882 H3872 0.950 . S
C3882 C3883 1.386 . S
C3882 C3884 1.391 . S
C3883 C3882 1.386 . S
C3883 C3887 1.393 . S
C3884 H3873 0.950 . S
C3884 C3882 1.391 . S
C3884 C3885 1.400 . S
C3885 C3879 1.491 . S
C3885 C3884 1.400 . S
C3885 C3886 1.398 . S
C3886 H3874 0.950 . S
C3886 C3885 1.398 . S
C3886 C3887 1.391 . S
C3887 H3875 0.950 . S
C3887 C3883 1.393 . S
C3887 C3886 1.391 . S
C1017 C14 1.482 . S
C1023 C98 1.482 . S
C1037 C35 1.445 . S
C1043 C122 1.446 . S
C1057 C140 1.462 . S
C1063 C56 1.463 . S
C1077 C161 1.476 . S
C1083 C77 1.478 . S
C1097 C182 1.454 . S
C1103 C203 1.455 . S
C1117 C206 1.477 . S
C1123 C227 1.475 . S
C1137 C248 1.461 . S
C1143 C224 1.459 . S
C1157 C245 1.473 . S
C1163 C185 1.475 . S
C1177 C269 1.464 . S
C1183 C80 1.465 . S
C1197 C164 1.482 . S
C1203 C710 1.482 . S
C1217 C101 1.449 . S
C1223 C290 1.448 . S
C1237 C119 1.479 . S
C1243 C731 1.480 . S
C1257 C38 1.468 . S
C1263 C308 1.470 . S
C1277 C668 1.447 . S
C1283 C17 1.446 . S
C1297 C647 1.479 . S
C1303 C59 1.480 . S
C1317 C413 1.478 . S
C1323 C329 1.479 . S
C1337 C350 1.447 . S
C1343 C437 1.448 . S
C1357 C371 1.476 . S
C1363 C458 1.477 . S
C1377 C392 1.446 . S
C1383 C476 1.446 . S
C1397 C518 1.478 . S
C1403 C497 1.477 . S
C1417 C521 1.480 . S
C1423 C542 1.481 . S
C1437 C563 1.464 . S
C1443 C539 1.465 . S
C1457 C500 1.460 . S
C1463 C560 1.459 . S
C1477 C395 1.481 . S
C1483 C584 1.481 . S
C1497 C896 1.458 . S
C1503 C479 1.457 . S
C1517 C602 1.449 . S
C1523 C416 1.448 . S
C1537 C434 1.482 . S
C1543 C920 1.482 . S
C1557 C626 1.476 . S
C1563 C353 1.477 . S
C1577 C332 1.466 . S
C1583 C854 1.467 . S
C1597 C374 1.445 . S
C1603 C836 1.446 . S
C1617 C686 1.474 . S
C1623 C644 1.475 . S
C1637 C707 1.448 . S
C1643 C266 1.447 . S
C1657 C665 1.478 . S
C1663 C287 1.479 . S
C1677 C728 1.481 . S
C1683 C311 1.481 . S
C1697 C749 1.462 . S
C1703 C773 1.460 . S
C1717 C770 1.445 . S
C1723 C794 1.445 . S
C1737 C815 1.479 . S
C1743 C791 1.480 . S
C1757 C752 1.459 . S
C1763 C812 1.457 . S
C1777 C143 1.478 . S
C1783 C689 1.479 . S
C1797 C875 1.481 . S
C1803 C833 1.481 . S
C1817 C899 1.478 . S
C1823 C581 1.479 . S
C1837 C605 1.471 . S
C1843 C857 1.473 . S
C1857 C917 1.459 . S
C1863 C623 1.461 . S
C1877 C938 1.475 . S
C1883 C959 1.473 . S
C1897 C962 1.481 . S
C1903 C983 1.481 . S
C1917 C980 1.474 . S
C1923 C1001 1.472 . S
C1937 C1004 1.451 . S
C1943 C941 1.449 . S
C1957 C878 1.458 . S
C1963 C455 1.457 . S
C1977 C16 0.633 . S
C1983 C351 0.627 . S
C1997 C858 0.625 . S
C2003 C37 0.632 . S
C2017 C58 0.631 . S
C2023 C393 0.644 . S
C2037 C79 0.612 . S
C2043 C834 0.688 . S
C2057 C100 0.600 . S
C2063 C477 0.671 . S
C2077 C118 0.632 . S
C2083 C876 0.636 . S
C2097 C142 0.631 . S
C2103 C438 0.619 . S
C2117 C606 0.669 . S
C2123 C163 0.601 . S
C2137 C184 0.607 . S
C2143 C837 0.645 . S
C2157 C202 0.617 . S
C2163 C354 0.682 . S
C2177 C226 0.608 . S
C2183 C855 0.642 . S
C2197 C396 0.628 . S
C2203 C247 0.629 . S
C2217 C879 0.616 . S
C2223 C244 0.630 . S
C2237 C435 0.625 . S
C2243 C181 0.616 . S
C2257 C205 0.616 . S
C2263 C603 0.684 . S
C2277 C480 0.674 . S
C2283 C223 0.622 . S
C2297 C942 0.622 . S
C2303 C265 0.632 . S
C2317 C561 0.662 . S
C2323 C160 0.602 . S
C2337 C97 0.619 . S
C2343 C939 0.620 . S
C2357 C121 0.603 . S
C2363 C522 0.655 . S
C2377 C286 0.611 . S
C2383 C540 0.689 . S
C2397 C984 0.622 . S
C2403 C310 0.618 . S
C2417 C13 0.601 . S
C2423 C1002 0.665 . S
C2437 C55 0.619 . S
C2443 C960 0.620 . S
C2457 C36 0.674 . S
C2463 C331 0.600 . S
C2477 C352 0.619 . S
C2483 C666 0.678 . S
C2497 C373 0.630 . S
C2503 C78 0.617 . S
C2517 C394 0.606 . S
C2523 C645 0.647 . S
C2537 C162 0.624 . S
C2543 C415 0.632 . S
C2557 C687 0.677 . S
C2563 C433 0.620 . S
C2577 C123 0.675 . S
C2583 C454 0.621 . S
C2597 C478 0.632 . S
C2603 C288 0.634 . S
C2617 C499 0.633 . S
C2623 C648 0.630 . S
C2637 C39 0.690 . S
C2643 C517 0.604 . S
C2657 C541 0.631 . S
C2663 C669 0.618 . S
C2677 C81 0.657 . S
C2683 C562 0.628 . S
C2697 C690 0.627 . S
C2703 C559 0.615 . S
C2717 C496 0.601 . S
C2723 C120 0.687 . S
C2737 C520 0.609 . S
C2743 C291 0.638 . S
C2757 C165 0.628 . S
C2763 C538 0.633 . S
C2777 C580 0.633 . S
C2783 C753 0.627 . S
C2797 C246 0.648 . S
C2803 C475 0.630 . S
C2817 C750 0.645 . S
C2823 C412 0.631 . S
C2837 C436 0.607 . S
C2843 C207 0.644 . S
C2857 C604 0.609 . S
C2863 C225 0.689 . S
C2877 C795 0.663 . S
C2883 C622 0.626 . S
C2897 C328 0.620 . S
C2903 C816 0.619 . S
C2917 C774 0.680 . S
C2923 C370 0.618 . S
C2937 C582 0.621 . S
C2943 C646 0.632 . S
C2957 C268 0.623 . S
C2963 C372 0.670 . S
C2977 C624 0.624 . S
C2983 C667 0.616 . S
C2997 C307 0.630 . S
C3003 C330 0.629 . S
C3017 C688 0.606 . S
C3023 C918 0.690 . S
C3037 C414 0.697 . S
C3043 C709 0.602 . S
C3057 C289 0.628 . S
C3063 C900 0.657 . S
C3077 C459 0.652 . S
C3083 C730 0.629 . S
C3097 C751 0.615 . S
C3103 C333 0.684 . S
C3117 C772 0.632 . S
C3123 C585 0.624 . S
C3137 C793 0.629 . S
C3143 C375 0.652 . S
C3157 C627 0.642 . S
C3163 C814 0.632 . S
C3177 C417 0.658 . S
C3183 C811 0.628 . S
C3197 C748 0.632 . S
C3203 C897 0.640 . S
C3217 C456 0.616 . S
C3223 C769 0.624 . S
C3237 C790 0.632 . S
C3243 C921 0.635 . S
C3257 C34 0.603 . S
C3263 C501 0.689 . S
C3277 C1005 0.643 . S
C3283 C727 0.607 . S
C3297 C685 0.610 . S
C3303 C498 0.639 . S
C3317 C706 0.624 . S
C3323 C963 0.669 . S
C3337 C981 0.689 . S
C3343 C139 0.603 . S
C3357 C543 0.687 . S
C3363 C76 0.613 . S
C3377 C643 0.609 . S
C3383 C564 0.642 . S
C3397 C519 0.624 . S
C3403 C664 0.621 . S
C3417 C267 0.653 . S
C3423 C835 0.604 . S
C3437 C583 0.632 . S
C3443 C57 0.623 . S
C3457 C312 0.620 . S
C3463 C853 0.620 . S
C3477 C625 0.630 . S
C3483 C15 0.630 . S
C3497 C877 0.618 . S
C3503 C729 0.621 . S
C3517 C99 0.629 . S
C3523 C895 0.630 . S
C3537 C708 0.679 . S
C3543 C601 0.600 . S
C3557 C141 0.684 . S
C3563 C919 0.616 . S
C3577 C18 0.615 . S
C3583 C940 0.629 . S
C3597 C958 0.606 . S
C3603 C270 0.649 . S
C3617 C60 0.682 . S
C3623 C982 0.600 . S
C3637 C309 0.631 . S
C3643 C1000 0.612 . S
C3657 C102 0.690 . S
C3663 C1003 0.604 . S
C3677 C711 0.690 . S
C3683 C937 0.609 . S
C3697 C961 0.632 . S
C3703 C144 0.620 . S
C3717 C732 0.668 . S
C3723 C979 0.601 . S
C3737 C186 0.674 . S
C3743 C349 0.621 . S
C3757 C916 0.600 . S
C3763 C813 0.669 . S
C3777 C874 0.601 . S
C3783 C183 0.696 . S
C3797 C771 0.627 . S
C3803 C898 0.614 . S
C3817 C457 0.606 . S
C3823 C792 0.690 . S
C3837 C391 0.633 . S
C3843 C228 0.629 . S
C3857 C249 0.685 . S
C3863 C832 0.600 . S
C3877 C204 0.624 . S
C3883 C856 0.624 . S
