# Generated by pormake.
# Topology wjk, (5)-cn, num edge types: 1
# Building blocks:
#     Node 0, Type 0, BuildingBlock: XOMCOT_clean_sbu_1, # of connection points: 5
#     Node 1, Type 0, BuildingBlock: XOMCOT_clean_sbu_1, # of connection points: 5
#     Node 2, Type 0, BuildingBlock: XOMCOT_clean_sbu_1, # of connection points: 5
#     Node 3, Type 0, BuildingBlock: XOMCOT_clean_sbu_1, # of connection points: 5
#     Node 4, Type 0, BuildingBlock: XOMCOT_clean_sbu_1, # of connection points: 5
#     Node 5, Type 0, BuildingBlock: XOMCOT_clean_sbu_1, # of connection points: 5
#     Node 6, Type 0, BuildingBlock: XOMCOT_clean_sbu_1, # of connection points: 5
#     Node 7, Type 0, BuildingBlock: XOMCOT_clean_sbu_1, # of connection points: 5
#     Node 8, Type 0, BuildingBlock: XOMCOT_clean_sbu_1, # of connection points: 5
#     Node 9, Type 0, BuildingBlock: XOMCOT_clean_sbu_1, # of connection points: 5
#     Node 10, Type 0, BuildingBlock: XOMCOT_clean_sbu_1, # of connection points: 5
#     Node 11, Type 0, BuildingBlock: XOMCOT_clean_sbu_1, # of connection points: 5
#     Edge 12, Type (0, 0), BuildingBlock: XUDNAN_clean_linker_2, # of connection points: 2
#     Edge 13, Type (0, 0), BuildingBlock: XUDNAN_clean_linker_2, # of connection points: 2
#     Edge 14, Type (0, 0), BuildingBlock: XUDNAN_clean_linker_2, # of connection points: 2
#     Edge 15, Type (0, 0), BuildingBlock: XUDNAN_clean_linker_2, # of connection points: 2
#     Edge 16, Type (0, 0), BuildingBlock: XUDNAN_clean_linker_2, # of connection points: 2
#     Edge 17, Type (0, 0), BuildingBlock: XUDNAN_clean_linker_2, # of connection points: 2
#     Edge 18, Type (0, 0), BuildingBlock: XUDNAN_clean_linker_2, # of connection points: 2
#     Edge 19, Type (0, 0), BuildingBlock: XUDNAN_clean_linker_2, # of connection points: 2
#     Edge 20, Type (0, 0), BuildingBlock: XUDNAN_clean_linker_2, # of connection points: 2
#     Edge 21, Type (0, 0), BuildingBlock: XUDNAN_clean_linker_2, # of connection points: 2
#     Edge 22, Type (0, 0), BuildingBlock: XUDNAN_clean_linker_2, # of connection points: 2
#     Edge 23, Type (0, 0), BuildingBlock: XUDNAN_clean_linker_2, # of connection points: 2
#     Edge 24, Type (0, 0), BuildingBlock: XUDNAN_clean_linker_2, # of connection points: 2
#     Edge 25, Type (0, 0), BuildingBlock: XUDNAN_clean_linker_2, # of connection points: 2
#     Edge 26, Type (0, 0), BuildingBlock: XUDNAN_clean_linker_2, # of connection points: 2
#     Edge 27, Type (0, 0), BuildingBlock: XUDNAN_clean_linker_2, # of connection points: 2
#     Edge 28, Type (0, 0), BuildingBlock: XUDNAN_clean_linker_2, # of connection points: 2
#     Edge 29, Type (0, 0), BuildingBlock: XUDNAN_clean_linker_2, # of connection points: 2
#     Edge 30, Type (0, 0), BuildingBlock: XUDNAN_clean_linker_2, # of connection points: 2
#     Edge 31, Type (0, 0), BuildingBlock: XUDNAN_clean_linker_2, # of connection points: 2
#     Edge 32, Type (0, 0), BuildingBlock: XUDNAN_clean_linker_2, # of connection points: 2
#     Edge 33, Type (0, 0), BuildingBlock: XUDNAN_clean_linker_2, # of connection points: 2
#     Edge 34, Type (0, 0), BuildingBlock: XUDNAN_clean_linker_2, # of connection points: 2
#     Edge 35, Type (0, 0), BuildingBlock: XUDNAN_clean_linker_2, # of connection points: 2
#     Edge 36, Type (0, 0), BuildingBlock: XUDNAN_clean_linker_2, # of connection points: 2
#     Edge 37, Type (0, 0), BuildingBlock: XUDNAN_clean_linker_2, # of connection points: 2
#     Edge 38, Type (0, 0), BuildingBlock: XUDNAN_clean_linker_2, # of connection points: 2
#     Edge 39, Type (0, 0), BuildingBlock: XUDNAN_clean_linker_2, # of connection points: 2
#     Edge 40, Type (0, 0), BuildingBlock: XUDNAN_clean_linker_2, # of connection points: 2
#     Edge 41, Type (0, 0), BuildingBlock: XUDNAN_clean_linker_2, # of connection points: 2
# Relax obj value: 0.521
# Max RMSD: 0.263
# Mean RMSD: 0.263
data_MOF--net-wjk--node1-XOMCOT_clean_sbu_1--edge1-XUDNAN_clean_linker_2
_symmetry_space_group_name_H-M    P1
_symmetry_Int_Tables_number       1
_symmetry_cell_setting            triclinic
loop_
_symmetry_equiv_pos_as_xyz
'x, y, z'
_cell_length_a     33.301511
_cell_length_b     33.261101
_cell_length_c     72.870764
_cell_angle_alpha  90.058047
_cell_angle_beta   90.004133
_cell_angle_gamma 119.92475
loop_
_atom_site_label
_atom_site_type_symbol
_atom_site_fract_x
_atom_site_fract_y
_atom_site_fract_z
_atom_type_partial_charge
C0 C 0.11489 0.23943 0.24416 0.0
C1 C 0.07322 0.20213 0.24936 0.0
N2 N 0.07723 0.1638 0.24892 0.0
N3 N 0.14502 0.22472 0.24006 0.0
C4 C 0.12135 0.17876 0.24368 0.0
H5 H 0.12228 0.27486 0.24369 0.0
Co6 Co 0.20745 0.25823 0.2326 0.0
C7 C 0.16304 0.18233 0.20372 0.0
O8 O 0.123 0.18087 0.20522 0.0
N9 N 0.26926 0.29076 0.22575 0.0
C10 C 0.33907 0.30758 0.21609 0.0
C11 C 0.2939 0.27304 0.21801 0.0
C12 C 0.30029 0.33594 0.22867 0.0
N13 N 0.34313 0.3472 0.2228 0.0
O14 O 0.22223 0.22738 0.25135 0.0
H15 H 0.28056 0.23698 0.21456 0.0
H16 H 0.29175 0.35986 0.23525 0.0
O17 O 0.19709 0.21025 0.21388 0.0
C18 C 0.22674 0.25048 0.26599 0.0
O19 O 0.22346 0.28815 0.26466 0.0
N20 N 0.19412 0.29332 0.21602 0.0
C21 C 0.14504 0.33323 0.20184 0.0
C22 C 0.1526 0.30232 0.19113 0.0
C23 C 0.17874 0.28373 0.19834 0.0
C24 C 0.1956 0.33021 0.22479 0.0
C25 C 0.17155 0.35115 0.21784 0.0
H26 H 0.18336 0.2595 0.19013 0.0
H27 H 0.21034 0.33948 0.23841 0.0
H28 H 0.13598 0.15642 0.24176 0.0
H29 H 0.04249 0.20336 0.25325 0.0
H30 H 0.36712 0.30323 0.2109 0.0
H31 H 0.13493 0.28881 0.17821 0.0
H32 H 0.16926 0.37706 0.22606 0.0
C33 C 0.89755 0.15467 0.59944 0.0
C34 C 0.89232 0.11386 0.60633 0.0
N35 N 0.9288 0.10974 0.60087 0.0
N36 N 0.93713 0.17631 0.5897 0.0
C37 C 0.95561 0.1483 0.59093 0.0
H38 H 0.8733 0.16712 0.60095 0.0
Co39 Co 0.95614 0.23047 0.57624 0.0
C40 C 0.04543 0.24991 0.55948 0.0
O41 O 0.06581 0.29265 0.56575 0.0
N42 N 0.9744 0.28458 0.56243 0.0
C43 C 0.98781 0.32874 0.53774 0.0
C44 C 0.98333 0.28808 0.54421 0.0
C45 C 0.9737 0.32384 0.56669 0.0
N46 N 0.98149 0.35103 0.55186 0.0
O47 O 0.9964 0.26492 0.59612 0.0
H48 H 0.98383 0.2614 0.53589 0.0
H49 H 0.96444 0.33101 0.58001 0.0
O50 O 0.00326 0.22189 0.56367 0.0
C51 C 0.97001 0.27143 0.60697 0.0
O52 O 0.92855 0.26064 0.60099 0.0
N53 N 0.91262 0.19617 0.55845 0.0
C54 C 0.83426 0.13752 0.53843 0.0
C55 C 0.87171 0.12944 0.53935 0.0
C56 C 0.91086 0.15934 0.54947 0.0
C57 C 0.87713 0.20536 0.55719 0.0
C58 C 0.83762 0.17668 0.54697 0.0
H59 H 0.93831 0.15124 0.55097 0.0
H60 H 0.87866 0.23394 0.56487 0.0
H61 H 0.98694 0.15485 0.58394 0.0
H62 H 0.86344 0.08883 0.61445 0.0
H63 H 0.99326 0.34014 0.52358 0.0
H64 H 0.86993 0.09926 0.53286 0.0
H65 H 0.80904 0.18349 0.54661 0.0
C66 C 0.79859 0.91151 0.9305 0.0
C67 C 0.84043 0.91299 0.93117 0.0
N68 N 0.87385 0.95611 0.92659 0.0
N69 N 0.80538 0.95333 0.92534 0.0
C70 C 0.85164 0.97992 0.92304 0.0
H71 H 0.76543 0.88211 0.9341 0.0
Co72 Co 0.75906 0.96868 0.92467 0.0
C73 C 0.77804 0.02904 0.89216 0.0
O74 O 0.73302 0.00856 0.88968 0.0
N75 N 0.71174 0.98427 0.92479 0.0
C76 C 0.6769 0.02654 0.92665 0.0
C77 C 0.718 0.02672 0.92884 0.0
C78 C 0.66621 0.95881 0.92057 0.0
N79 N 0.64446 0.98376 0.92129 0.0
O80 O 0.78857 0.01112 0.9443 0.0
H81 H 0.75091 0.05665 0.93237 0.0
H82 H 0.64898 0.92297 0.91652 0.0
O83 O 0.79413 0.01741 0.90591 0.0
C84 C 0.77464 0.98844 0.95926 0.0
O85 O 0.7459 0.94348 0.95835 0.0
N86 N 0.7286 0.92253 0.9068 0.0
C87 C 0.68569 0.84302 0.88529 0.0
C88 C 0.72158 0.88439 0.87811 0.0
C89 C 0.74373 0.92343 0.8893 0.0
C90 C 0.69452 0.88195 0.91408 0.0
C91 C 0.67225 0.84171 0.90351 0.0
H92 H 0.77473 0.95289 0.88415 0.0
H93 H 0.68551 0.88066 0.92842 0.0
H94 H 0.86881 0.01643 0.91961 0.0
H95 H 0.8458 0.88454 0.93492 0.0
H96 H 0.67199 0.05623 0.92791 0.0
H97 H 0.73471 0.8855 0.8644 0.0
H98 H 0.64615 0.80958 0.90967 0.0
C99 C 0.87369 0.75693 0.26061 0.0
C100 C 0.90294 0.80323 0.2643 0.0
N101 N 0.88534 0.82773 0.25638 0.0
N102 N 0.83801 0.75232 0.25035 0.0
C103 C 0.84591 0.79594 0.24805 0.0
H104 H 0.878 0.72834 0.26513 0.0
Co105 Co 0.78947 0.69636 0.24221 0.0
C106 C 0.74901 0.71915 0.21036 0.0
O107 O 0.74153 0.6803 0.20263 0.0
N108 N 0.73946 0.63873 0.23455 0.0
C109 C 0.69295 0.5665 0.22485 0.0
C110 C 0.73814 0.60022 0.22776 0.0
C111 C 0.69434 0.62692 0.23591 0.0
N112 N 0.66546 0.58339 0.22999 0.0
O113 O 0.75383 0.69645 0.26251 0.0
H114 H 0.76744 0.59566 0.22523 0.0
H115 H 0.68293 0.65019 0.24095 0.0
O116 O 0.76657 0.72935 0.22652 0.0
C117 C 0.75665 0.67131 0.27506 0.0
O118 O 0.77888 0.64885 0.2714 0.0
N119 N 0.82816 0.69599 0.22373 0.0
C120 C 0.89325 0.69465 0.20024 0.0
C121 C 0.87698 0.72574 0.19735 0.0
C122 C 0.84545 0.72679 0.20955 0.0
C123 C 0.84649 0.66832 0.22758 0.0
C124 C 0.87837 0.66626 0.21578 0.0
H125 H 0.83701 0.75393 0.20798 0.0
H126 H 0.83629 0.64776 0.23999 0.0
H127 H 0.82359 0.80441 0.24021 0.0
H128 H 0.93439 0.81756 0.27236 0.0
H129 H 0.68123 0.53173 0.21984 0.0
H130 H 0.89019 0.75063 0.18622 0.0
H131 H 0.89159 0.64316 0.2189 0.0
C132 C 0.08155 0.8585 0.59928 0.0
C133 C 0.07266 0.89194 0.6061 0.0
N134 N 0.02913 0.88044 0.60133 0.0
N135 N 0.044 0.82655 0.59005 0.0
C136 C 0.01245 0.84051 0.59176 0.0
H137 H 0.11389 0.85838 0.60035 0.0
Co138 Co 0.03954 0.77758 0.57606 0.0
C139 C 0.95585 0.74976 0.55397 0.0
O140 O 0.93895 0.70721 0.5601 0.0
N141 N 0.03495 0.7287 0.56173 0.0
C142 C 0.02921 0.68758 0.53684 0.0
C143 C 0.03922 0.73027 0.54327 0.0
C144 C 0.02281 0.68464 0.56625 0.0
N145 N 0.0186 0.65884 0.55127 0.0
O146 O 0.99157 0.73561 0.59187 0.0
H147 H 0.04733 0.76018 0.53488 0.0
H148 H 0.01492 0.67104 0.58007 0.0
O149 O 0.9954 0.78162 0.55958 0.0
C150 C 0.00984 0.73106 0.60651 0.0
O151 O 0.05518 0.75024 0.60722 0.0
N152 N 0.08946 0.81968 0.56215 0.0
C153 C 0.17284 0.88974 0.54856 0.0
C154 C 0.13196 0.89158 0.54624 0.0
C155 C 0.0904 0.85606 0.55316 0.0
C156 C 0.12859 0.81665 0.56408 0.0
C157 C 0.17083 0.8512 0.55712 0.0
H158 H 0.0597 0.85918 0.55225 0.0
H159 H 0.12726 0.78816 0.57174 0.0
H160 H 0.9786 0.82295 0.58538 0.0
H161 H 0.09658 0.92273 0.61366 0.0
H162 H 0.02883 0.67813 0.5226 0.0
H163 H 0.13243 0.92091 0.53956 0.0
H164 H 0.20186 0.84894 0.55917 0.0
C165 C 0.26378 0.10957 0.88265 0.0
C166 C 0.22587 0.11066 0.8897 0.0
N167 N 0.19469 0.06736 0.895 0.0
N168 N 0.25572 0.06555 0.88319 0.0
C169 C 0.21354 0.04085 0.89091 0.0
H170 H 0.29531 0.13899 0.87763 0.0
Co171 Co 0.29405 0.04203 0.8764 0.0
C172 C 0.22999 0.96655 0.85052 0.0
O173 O 0.26004 0.98491 0.83714 0.0
N174 N 0.33297 0.01764 0.8698 0.0
C175 C 0.37664 0.99534 0.85449 0.0
C176 C 0.34929 0.01521 0.85303 0.0
C177 C 0.35203 -0.00035 0.88122 0.0
N178 N 0.37833 0.98573 0.87224 0.0
O179 O 0.28481 0.01522 0.90048 0.0
H180 H 0.34359 0.02864 0.84043 0.0
H181 H 0.34751 0.9971 0.89593 0.0
O182 O 0.23943 0.9855 0.86646 0.0
C183 C 0.31319 0.04885 0.91064 0.0
O184 O 0.34239 0.0881 0.90258 0.0
N185 N 0.30701 0.0749 0.85443 0.0
C186 C 0.33169 0.15168 0.8325 0.0
C187 C 0.28641 0.11391 0.83199 0.0
C188 C 0.27444 0.07588 0.84334 0.0
C189 C 0.35195 0.11011 0.85401 0.0
C190 C 0.36519 0.14884 0.84298 0.0
H191 H 0.23822 0.05031 0.84486 0.0
H192 H 0.37665 0.11037 0.86372 0.0
H193 H 0.19708 0.00401 0.89366 0.0
H194 H 0.22208 0.14095 0.89133 0.0
H195 H 0.39574 0.99052 0.84351 0.0
H196 H 0.25941 0.11624 0.82459 0.0
H197 H 0.39994 0.17826 0.84416 0.0
C198 C 0.75672 0.88054 0.41711 0.0
C199 C 0.80026 0.91308 0.41112 0.0
N200 N 0.82731 0.8936 0.41149 0.0
N201 N 0.75691 0.84126 0.42152 0.0
C202 C 0.80021 0.85016 0.41777 0.0
H203 H 0.72714 0.88548 0.4185 0.0
Co204 Co 0.70945 0.78674 0.43127 0.0
C205 C 0.76169 0.75056 0.45208 0.0
O206 O 0.73668 0.70882 0.44508 0.0
N207 N 0.66205 0.73219 0.44108 0.0
C208 C 0.61629 0.67683 0.46047 0.0
C209 C 0.65284 0.72128 0.45899 0.0
C210 C 0.63046 0.69422 0.43194 0.0
N211 N 0.60244 0.65977 0.44341 0.0
O212 O 0.71958 0.75263 0.41269 0.0
H213 H 0.67209 0.74388 0.47027 0.0
H214 H 0.62902 0.6913 0.41715 0.0
O215 O 0.75382 0.78291 0.44741 0.0
C216 C 0.70414 0.75632 0.39717 0.0
O217 O 0.6836 0.78124 0.39599 0.0
N218 N 0.69775 0.82076 0.4485 0.0
C219 C 0.67715 0.8756 0.47084 0.0
C220 C 0.71777 0.87351 0.47359 0.0
C221 C 0.72776 0.84627 0.46213 0.0
C222 C 0.6578 0.82182 0.44572 0.0
C223 C 0.64685 0.84939 0.45673 0.0
H224 H 0.76041 0.84727 0.46387 0.0
H225 H 0.63502 0.80207 0.43455 0.0
H226 H 0.81208 0.82566 0.42015 0.0
H227 H 0.81131 0.94833 0.40697 0.0
H228 H 0.60134 0.6585 0.47314 0.0
H229 H 0.74281 0.89458 0.48397 0.0
H230 H 0.61562 0.85087 0.45405 0.0
C231 C 0.85609 0.76072 0.7518 0.0
C232 C 0.87316 0.80781 0.75042 0.0
N233 N 0.91644 0.82999 0.75739 0.0
N234 N 0.88832 0.75313 0.75967 0.0
C235 C 0.92472 0.79594 0.76285 0.0
H236 H 0.82226 0.73366 0.74741 0.0
Co237 Co 0.88109 0.69499 0.76494 0.0
C238 C 0.94692 0.71151 0.79546 0.0
O239 O 0.9164 0.67173 0.80273 0.0
N240 N 0.8738 0.6355 0.76995 0.0
C241 C 0.85125 0.56396 0.77999 0.0
C242 C 0.84092 0.59908 0.7796 0.0
C243 C 0.90342 0.62096 0.76453 0.0
N244 N 0.89042 0.57778 0.77044 0.0
O245 O 0.91529 0.69929 0.7433 0.0
H246 H 0.8117 0.5977 0.78652 0.0
H247 H 0.93491 0.64217 0.75688 0.0
O248 O 0.93761 0.72443 0.78026 0.0
C249 C 0.88444 0.67845 0.73098 0.0
O250 O 0.8407 0.65957 0.73581 0.0
N251 N 0.84253 0.69005 0.78434 0.0
C252 C 0.77291 0.68574 0.80678 0.0
C253 C 0.81977 0.71365 0.81161 0.0
C254 C 0.85424 0.71614 0.79997 0.0
C255 C 0.79725 0.66387 0.77926 0.0
C256 C 0.76184 0.66037 0.79044 0.0
H257 H 0.88983 0.74112 0.80302 0.0
H258 H 0.78867 0.64586 0.76624 0.0
H259 H 0.95651 0.80213 0.7693 0.0
H260 H 0.85521 0.82429 0.74451 0.0
H261 H 0.83156 0.53082 0.78682 0.0
H262 H 0.8298 0.73564 0.82367 0.0
H263 H 0.7262 0.63911 0.78605 0.0
C264 C 0.15588 0.9672 0.04893 0.0
C265 C 0.12166 0.97865 0.04746 0.0
N266 N 0.11507 0.99187 0.06413 0.0
N267 N 0.17153 0.97408 0.06639 0.0
C268 C 0.14495 0.98782 0.07541 0.0
H269 H 0.16921 0.95581 0.0378 0.0
Co270 Co 0.22204 0.96985 0.07523 0.0
C271 C 0.26135 0.04662 0.10518 0.0
O272 O 0.29486 0.04011 0.11114 0.0
N273 N 0.27242 0.96439 0.08353 0.0
C274 C 0.31263 0.93002 0.09115 0.0
C275 C 0.26932 0.9234 0.08774 0.0
C276 C 0.31845 0.99532 0.08392 0.0
N277 N 0.34358 0.97524 0.08874 0.0
O278 O 0.25969 0.01051 0.05608 0.0
H279 H 0.23765 0.89027 0.08781 0.0
H280 H 0.33333 0.03148 0.08019 0.0
O281 O 0.23543 0.02194 0.09194 0.0
C282 C 0.26063 0.98567 0.04289 0.0
O283 O 0.24057 0.94056 0.04534 0.0
N284 N 0.18383 0.92668 0.09258 0.0
C285 C 0.12978 0.851 0.11493 0.0
C286 C 0.16357 0.89318 0.12256 0.0
C287 C 0.19049 0.93066 0.11112 0.0
C288 C 0.15095 0.88605 0.08495 0.0
C289 C 0.12333 0.84776 0.09588 0.0
H290 H 0.21776 0.96182 0.11718 0.0
H291 H 0.14727 0.88296 0.07019 0.0
H292 H 0.14854 0.99628 0.08986 0.0
H293 H 0.10376 0.97835 0.03502 0.0
H294 H 0.32074 0.90345 0.09502 0.0
H295 H 0.16923 0.89722 0.13725 0.0
H296 H 0.09784 0.81567 0.08947 0.0
C297 C 0.23697 0.10737 0.42252 0.0
C298 C 0.19754 0.06737 0.41724 0.0
N299 N 0.16272 0.07684 0.41565 0.0
N300 N 0.22684 0.14164 0.42434 0.0
C301 C 0.18172 0.12223 0.41988 0.0
H302 H 0.27065 0.11111 0.42511 0.0
Co303 Co 0.26548 0.20262 0.43144 0.0
C304 C 0.20033 0.23123 0.44718 0.0
O305 O 0.22064 0.27106 0.43844 0.0
N306 N 0.30419 0.26369 0.43889 0.0
C307 C 0.34095 0.3247 0.45725 0.0
C308 C 0.30727 0.27906 0.45629 0.0
C309 C 0.33647 0.30073 0.42948 0.0
N310 N 0.3594 0.33824 0.44042 0.0
O311 O 0.25128 0.22236 0.40874 0.0
H312 H 0.2865 0.25822 0.46767 0.0
H313 H 0.34397 0.29994 0.41508 0.0
O314 O 0.21393 0.20198 0.44456 0.0
C315 C 0.27558 0.2162 0.39669 0.0
O316 O 0.30672 0.20576 0.4024 0.0
N317 N 0.28202 0.182 0.45226 0.0
C318 C 0.31167 0.14602 0.48009 0.0
C319 C 0.26648 0.13909 0.48012 0.0
C320 C 0.2521 0.15693 0.46595 0.0
C321 C 0.32632 0.1899 0.45213 0.0
C322 C 0.34195 0.17205 0.46596 0.0
H323 H 0.2164 0.14873 0.46566 0.0
H324 H 0.34913 0.20897 0.44089 0.0
H325 H 0.16337 0.1414 0.41966 0.0
H326 H 0.19463 0.03379 0.41523 0.0
H327 H 0.35105 0.34636 0.46939 0.0
H328 H 0.2415 0.11773 0.49045 0.0
H329 H 0.37679 0.17742 0.46535 0.0
C330 C 0.12 0.24461 0.7565 0.0
C331 C 0.11746 0.20249 0.75401 0.0
N332 N 0.07625 0.16901 0.7604 0.0
N333 N 0.08061 0.23802 0.76443 0.0
C334 C 0.05437 0.19149 0.76652 0.0
H335 H 0.14921 0.27817 0.75312 0.0
Co336 Co 0.07104 0.28663 0.77166 0.0
C337 C 0.01487 0.24614 0.80601 0.0
O338 O 0.04507 0.28132 0.81585 0.0
N339 N 0.06157 0.33657 0.77879 0.0
C340 C 0.06157 0.39473 0.79416 0.0
C341 C 0.07671 0.36323 0.79411 0.0
C342 C 0.03802 0.35379 0.76958 0.0
N343 N 0.03736 0.38878 0.7787 0.0
O344 O 0.0275 0.27083 0.75201 0.0
H345 H 0.0979 0.36072 0.80475 0.0
H346 H 0.02097 0.34083 0.75654 0.0
O347 O 0.02133 0.2446 0.78873 0.0
C348 C 0.05069 0.28744 0.73726 0.0
O349 O 0.0961 0.31171 0.73831 0.0
N350 N 0.11836 0.30401 0.78882 0.0
C351 C 0.2037 0.32609 0.80376 0.0
C352 C 0.16335 0.28532 0.80897 0.0
C353 C 0.12108 0.27434 0.801 0.0
C354 C 0.15694 0.34474 0.78424 0.0
C355 C 0.2 0.35675 0.7917 0.0
H356 H 0.09173 0.24019 0.8033 0.0
H357 H 0.15482 0.36639 0.77365 0.0
H358 H 0.02061 0.17455 0.77297 0.0
H359 H 0.14411 0.19706 0.74801 0.0
H360 H 0.0685 0.4206 0.80459 0.0
H361 H 0.16511 0.25979 0.81764 0.0
H362 H 0.23055 0.38792 0.78704 0.0
C363 C 0.87834 0.14068 0.11996 0.0
C364 C 0.92079 0.1475 0.11441 0.0
N365 N 0.91729 0.10567 0.11225 0.0
N366 N 0.84826 0.09472 0.12112 0.0
C367 C 0.87307 0.07428 0.11641 0.0
H368 H 0.86917 0.16736 0.12182 0.0
Co369 Co 0.7843 0.06702 0.12373 0.0
C370 C 0.76449 0.99199 0.15069 0.0
O371 O 0.74249 0.00701 0.16111 0.0
N372 N 0.71915 0.03872 0.12535 0.0
C373 C 0.64499 0.98396 0.12278 0.0
C374 C 0.68915 0.99249 0.12572 0.0
C375 C 0.69201 0.05726 0.12131 0.0
N376 N 0.64677 0.02468 0.11983 0.0
O377 O 0.77727 0.04054 0.09992 0.0
H378 H 0.69854 0.96582 0.12639 0.0
H379 H 0.70528 0.09317 0.11767 0.0
O380 O 0.78245 0.01242 0.13547 0.0
C381 C 0.78293 0.0721 0.08856 0.0
O382 O 0.7877 0.11111 0.09509 0.0
N383 N 0.79377 0.09869 0.14615 0.0
C384 C 0.84096 0.1747 0.1693 0.0
C385 C 0.84555 0.13543 0.17146 0.0
C386 C 0.82263 0.09822 0.15942 0.0
C387 C 0.78601 0.13523 0.14504 0.0
C388 C 0.80941 0.17378 0.15649 0.0
H389 H 0.83336 0.07252 0.15927 0.0
H390 H 0.7674 0.13816 0.13355 0.0
H391 H 0.85804 0.03724 0.11446 0.0
H392 H 0.9511 0.18045 0.11118 0.0
H393 H 0.61426 0.95005 0.12191 0.0
H394 H 0.87138 0.13607 0.18071 0.0
H395 H 0.80673 0.20446 0.15397 0.0
H396 H 0.60942 0.51601 0.20629 0.0
H397 H 0.60876 0.59484 0.25359 0.0
H398 H 0.52326 0.54774 0.25487 0.0
H399 H 0.4999 0.49746 0.18568 0.0
H400 H 0.48386 0.43963 0.17828 0.0
H401 H 0.54413 0.48354 0.17977 0.0
H402 H 0.55928 0.43036 0.20124 0.0
H403 H 0.49919 0.38646 0.19987 0.0
H404 H 0.52562 0.40832 0.22194 0.0
H405 H 0.43872 0.48568 0.25305 0.0
H406 H 0.36303 0.41484 0.24821 0.0
H407 H 0.4199 0.37839 0.2017 0.0
C408 C 0.59126 0.5237 0.21679 0.0
C409 C 0.61564 0.559 0.22984 0.0
C410 C 0.59067 0.5683 0.24331 0.0
C411 C 0.54215 0.54167 0.24416 0.0
C412 C 0.51926 0.50637 0.23129 0.0
C413 C 0.54305 0.49769 0.21776 0.0
C414 C 0.51096 0.45596 0.20632 0.0
C415 C 0.50964 0.47 0.18633 0.0
C416 C 0.52458 0.41805 0.20742 0.0
C417 C 0.46558 0.44133 0.21595 0.0
C418 C 0.4708 0.47106 0.23018 0.0
C419 C 0.43406 0.46262 0.24174 0.0
C420 C 0.39112 0.42235 0.23885 0.0
C421 C 0.38547 0.39094 0.22458 0.0
C422 C 0.42309 0.40141 0.21281 0.0
H423 H 0.03665 0.60711 0.57523 0.0
H424 H 0.96373 0.60019 0.52497 0.0
H425 H 0.94086 0.51791 0.52133 0.0
H426 H 0.08291 0.53904 0.55997 0.0
H427 H 0.07669 0.5093 0.58136 0.0
H428 H 0.08311 0.56632 0.5814 0.0
H429 H 0.00669 0.53539 0.59972 0.0
H430 H 0.00013 0.4782 0.59983 0.0
H431 H 0.95435 0.48667 0.59097 0.0
H432 H 0.93262 0.4403 0.52116 0.0
H433 H 0.93769 0.36933 0.52495 0.0
H434 H 0.01451 0.42378 0.57555 0.0
C435 C 0.01499 0.5878 0.56373 0.0
C436 C 0.00209 0.6099 0.55032 0.0
C437 C 0.97445 0.58398 0.53524 0.0
C438 C 0.96099 0.53718 0.53314 0.0
C439 C 0.97522 0.51667 0.5463 0.0
C440 C 0.00132 0.54083 0.56138 0.0
C441 C 0.01448 0.51095 0.57277 0.0
C442 C 0.06744 0.53271 0.57393 0.0
C443 C 0.99259 0.50229 0.59196 0.0
C444 C 0.99279 0.46683 0.5614 0.0
C445 C 0.97003 0.47097 0.54628 0.0
C446 C 0.94977 0.43631 0.53306 0.0
C447 C 0.95313 0.39636 0.53523 0.0
C448 C 0.97648 0.39134 0.55051 0.0
C449 C 0.99593 0.42671 0.56391 0.0
H450 H 0.4303 0.01843 0.90289 0.0
H451 H 0.39381 0.91942 0.85856 0.0
H452 H 0.45211 0.89963 0.86954 0.0
H453 H 0.54699 0.06396 0.89935 0.0
H454 H 0.56011 0.07296 0.92351 0.0
H455 H 0.5094 0.0724 0.91473 0.0
H456 H 0.45769 0.00704 0.93748 0.0
H457 H 0.50842 0.00769 0.94652 0.0
H458 H 0.4606 0.95436 0.93798 0.0
H459 H 0.52037 0.89877 0.8824 0.0
H460 H 0.59561 0.91785 0.89564 0.0
H461 H 0.58946 0.01864 0.93168 0.0
C462 C 0.4335 0.99135 0.89598 0.0
C463 C 0.40742 0.96987 0.88007 0.0
C464 C 0.41353 0.93591 0.87084 0.0
C465 C 0.44625 0.92434 0.87704 0.0
C466 C 0.47252 0.94718 0.89247 0.0
C467 C 0.46647 0.9799 0.90187 0.0
C468 C 0.50309 0.0036 0.91657 0.0
C469 C 0.53157 0.05633 0.91333 0.0
C470 C 0.48113 0.99249 0.93578 0.0
C471 C 0.53185 0.98057 0.91339 0.0
C472 C 0.51297 0.9474 0.89972 0.0
C473 C 0.53499 0.92387 0.89341 0.0
C474 C 0.57776 0.9349 0.9011 0.0
C475 C 0.59836 0.9695 0.91487 0.0
C476 C 0.57456 0.99199 0.92124 0.0
H477 H 0.57269 0.58228 0.46401 0.0
H478 H 0.55255 0.63188 0.41168 0.0
H479 H 0.49194 0.55209 0.40364 0.0
H480 H 0.55325 0.47052 0.44811 0.0
H481 H 0.52326 0.44125 0.46879 0.0
H482 H 0.56753 0.50151 0.46961 0.0
H483 H 0.50927 0.52228 0.48434 0.0
H484 H 0.46497 0.46215 0.48366 0.0
H485 H 0.45505 0.50523 0.47292 0.0
H486 H 0.42992 0.46669 0.4023 0.0
H487 H 0.37024 0.3849 0.40857 0.0
H488 H 0.43204 0.39387 0.46182 0.0
C489 C 0.55556 0.5766 0.45087 0.0
C490 C 0.56737 0.61341 0.43851 0.0
C491 C 0.54446 0.60413 0.42131 0.0
C492 C 0.50996 0.55895 0.41663 0.0
C493 C 0.49905 0.52352 0.42925 0.0
C494 C 0.52124 0.532 0.44603 0.0
C495 C 0.50184 0.48876 0.45763 0.0
C496 C 0.53867 0.47469 0.46124 0.0
C497 C 0.48157 0.495 0.4757 0.0
C498 C 0.46436 0.45477 0.44498 0.0
C499 C 0.46352 0.47506 0.42856 0.0
C500 C 0.43051 0.45037 0.41505 0.0
C501 C 0.39696 0.40403 0.41866 0.0
C502 C 0.39659 0.38346 0.43569 0.0
C503 C 0.43134 0.40898 0.44876 0.0
H504 H 0.90338 0.52628 0.79576 0.0
H505 H 0.93134 0.57194 0.73923 0.0
H506 H 0.96996 0.5253 0.73451 0.0
H507 H 0.01227 0.53178 0.80379 0.0
H508 H 0.98789 0.48185 0.81865 0.0
H509 H 0.96113 0.51726 0.81707 0.0
H510 H 0.88313 0.44473 0.80827 0.0
H511 H 0.90971 0.40912 0.80973 0.0
H512 H 0.8809 0.40988 0.7889 0.0
H513 H 0.00306 0.47076 0.73606 0.0
H514 H 0.03587 0.42075 0.74466 0.0
H515 H 0.9899 0.41569 0.80063 0.0
C516 C 0.91742 0.52613 0.78238 0.0
C517 C 0.91416 0.55213 0.76778 0.0
C518 C 0.93371 0.55213 0.75054 0.0
C519 C 0.95536 0.5256 0.74774 0.0
C520 C 0.95768 0.49995 0.76243 0.0
C521 C 0.93981 0.50064 0.77948 0.0
C522 C 0.94867 0.47206 0.79329 0.0
C523 C 0.97932 0.50257 0.80913 0.0
C524 C 0.90287 0.43154 0.80046 0.0
C525 C 0.97421 0.45496 0.78137 0.0
C526 C 0.97854 0.47076 0.76354 0.0
C527 C 0.00011 0.45847 0.75001 0.0
C528 C 0.01838 0.42995 0.75495 0.0
C529 C 0.01558 0.41487 0.7733 0.0
C530 C 0.9929 0.42731 0.78656 0.0
H531 H 0.3956 0.93601 0.08113 0.0
H532 H 0.40293 0.06161 0.10182 0.0
H533 H 0.48591 0.09281 0.10956 0.0
H534 H 0.45977 0.92387 0.11539 0.0
H535 H 0.48832 0.90201 0.10082 0.0
H536 H 0.43231 0.89322 0.09454 0.0
H537 H 0.46474 0.93295 0.06316 0.0
H538 H 0.52093 0.94154 0.06928 0.0
H539 H 0.51481 0.99034 0.06254 0.0
H540 H 0.56617 0.10543 0.11829 0.0
H541 H 0.63488 0.09859 0.12652 0.0
H542 H 0.57241 0.96427 0.09981 0.0
C543 C 0.41483 0.97038 0.08705 0.0
C544 C 0.39297 0.9964 0.09095 0.0
C545 C 0.4193 0.04139 0.09856 0.0
C546 C 0.46632 0.05923 0.10304 0.0
C547 C 0.4864 0.03181 0.09956 0.0
C548 C 0.46143 0.98853 0.09151 0.0
C549 C 0.48944 0.96428 0.09025 0.0
C550 C 0.46607 0.91815 0.10089 0.0
C551 C 0.49799 0.95686 0.07011 0.0
C552 C 0.53364 -0.00018 0.09946 0.0
C553 C 0.53176 0.03889 0.10456 0.0
C554 C 0.56813 0.07522 0.11412 0.0
C555 C 0.60701 0.07113 0.11872 0.0
C556 C 0.60882 0.03077 0.11394 0.0
C557 C 0.57188 0.99527 0.1039 0.0
H558 H 0.24614 0.26584 0.37547 0.0
H559 H 0.28126 0.15667 0.37311 0.0
H560 H 0.26892 0.1504 0.33969 0.0
H561 H 0.1578 0.22024 0.33899 0.0
H562 H 0.17531 0.27698 0.32986 0.0
H563 H 0.18283 0.27015 0.35392 0.0
H564 H 0.27026 0.33059 0.3512 0.0
H565 H 0.26302 0.33742 0.32714 0.0
H566 H 0.30506 0.32175 0.3345 0.0
H567 H 0.25583 0.15771 0.30614 0.0
H568 H 0.24485 0.18038 0.27492 0.0
H569 H 0.22138 0.28645 0.29891 0.0
C570 C 0.25043 0.24019 0.36791 0.0
C571 C 0.26458 0.21174 0.37687 0.0
C572 C 0.27068 0.17907 0.36649 0.0
C573 C 0.26356 0.17503 0.34749 0.0
C574 C 0.25058 0.20413 0.33894 0.0
C575 C 0.24414 0.23616 0.34876 0.0
C576 C 0.23294 0.26513 0.33599 0.0
C577 C 0.18433 0.25766 0.33993 0.0
C578 C 0.27004 0.31677 0.33729 0.0
C579 C 0.23462 0.24467 0.31758 0.0
C580 C 0.24434 0.20918 0.31955 0.0
C581 C 0.24808 0.18543 0.3044 0.0
C582 C 0.24186 0.1985 0.28673 0.0
C583 C 0.23255 0.23528 0.28443 0.0
C584 C 0.22873 0.25831 0.30013 0.0
H585 H 0.04174 0.2751 0.62778 0.0
H586 H 0.91916 0.28928 0.63125 0.0
H587 H 0.92476 0.29207 0.66485 0.0
H588 H 0.01845 0.20308 0.66646 0.0
H589 H 0.07743 0.23012 0.67453 0.0
H590 H 0.06577 0.23129 0.65046 0.0
H591 H 0.11522 0.32102 0.6503 0.0
H592 H 0.12781 0.32007 0.67429 0.0
H593 H 0.1026 0.35408 0.66658 0.0
H594 H 0.93853 0.28562 0.69826 0.0
H595 H 0.96857 0.28418 0.72927 0.0
H596 H 0.08449 0.27945 0.70443 0.0
C597 C 0.01676 0.27984 0.63559 0.0
C598 C 0.97987 0.28164 0.6268 0.0
C599 C 0.94765 0.28751 0.6376 0.0
C600 C 0.95033 0.28897 0.65676 0.0
C601 C 0.98588 0.28525 0.66505 0.0
C602 C 0.01924 0.28199 0.65486 0.0
C603 C 0.05411 0.27911 0.66734 0.0
C604 C 0.0539 0.23316 0.66452 0.0
C605 C 0.10282 0.32108 0.66446 0.0
C606 C 0.03472 0.28074 0.686 0.0
C607 C 0.99497 0.28362 0.68438 0.0
C608 C 0.96998 0.28393 0.69974 0.0
C609 C 0.98695 0.28267 0.71727 0.0
C610 C 0.02877 0.2819 0.71916 0.0
C611 C 0.05251 0.28035 0.70332 0.0
H612 H 0.76076 0.99352 0.06825 0.0
H613 H 0.81892 0.14258 0.06387 0.0
H614 H 0.82906 0.13834 0.03065 0.0
H615 H 0.83385 0.98289 0.03319 0.0
H616 H 0.7875 0.9289 0.0244 0.0
H617 H 0.78788 0.9438 0.04821 0.0
H618 H 0.70587 0.93363 0.04457 0.0
H619 H 0.70518 0.91853 0.0208 0.0
H620 H 0.6958 0.9657 0.02699 0.0
H621 H 0.83015 0.11811 0.99762 0.0
H622 H 0.8177 0.08177 0.96692 0.0
H623 H 0.75787 0.94626 0.99263 0.0
C624 C 0.77601 0.02524 0.0603 0.0
C625 C 0.78901 0.0683 0.06867 0.0
C626 C 0.80843 0.10906 0.05778 0.0
C627 C 0.81465 0.10715 0.03888 0.0
C628 C 0.80122 0.06421 0.031 0.0
C629 C 0.78212 0.02393 0.04131 0.0
C630 C 0.76809 0.98196 0.02923 0.0
C631 C 0.79601 0.95798 0.03405 0.0
C632 C 0.71563 0.94797 0.03047 0.0
C633 C 0.7816 0.00495 0.01056 0.0
C634 C 0.8012 0.05246 0.01188 0.0
C635 C 0.81511 0.08091 0.99639 0.0
C636 C 0.80803 0.06006 0.97903 0.0
C637 C 0.78686 0.0113 0.97739 0.0
C638 C 0.77422 0.98368 0.99341 0.0
H639 H 0.69824 0.77808 0.36167 0.0
H640 H 0.72197 0.68439 0.39536 0.0
H641 H 0.73018 0.64714 0.36728 0.0
H642 H 0.6341 0.69703 0.32481 0.0
H643 H 0.661 0.74034 0.30715 0.0
H644 H 0.65323 0.75702 0.32983 0.0
H645 H 0.7412 0.81611 0.33189 0.0
H646 H 0.74917 0.79986 0.30921 0.0
H647 H 0.78219 0.7965 0.32815 0.0
H648 H 0.73847 0.6224 0.33576 0.0
H649 H 0.75326 0.61581 0.30312 0.0
H650 H 0.7263 0.72749 0.28995 0.0
C651 C 0.70458 0.74932 0.36315 0.0
C652 C 0.70911 0.73373 0.38064 0.0
C653 C 0.71836 0.69672 0.38205 0.0
C654 C 0.72275 0.67523 0.36621 0.0
C655 C 0.71803 0.69146 0.34915 0.0
C656 C 0.70957 0.72793 0.34753 0.0
C657 C 0.7094 0.74105 0.32765 0.0
C658 C 0.66158 0.73338 0.32203 0.0
C659 C 0.74778 0.79135 0.32402 0.0
C660 C 0.71972 0.70661 0.31829 0.0
C661 C 0.7239 0.67793 0.33095 0.0
C662 C 0.73508 0.64449 0.32572 0.0
C663 C 0.74342 0.64107 0.30713 0.0
C664 C 0.74095 0.6712 0.294 0.0
C665 C 0.72795 0.70368 0.29964 0.0
H666 H 0.04255 0.74426 0.64152 0.0
H667 H 0.9155 0.67603 0.60968 0.0
H668 H 0.87023 0.64967 0.63848 0.0
H669 H 0.00616 0.66025 0.67935 0.0
H670 H 0.03529 0.70496 0.69638 0.0
H671 H 0.05774 0.71357 0.67333 0.0
H672 H 0.05442 0.7896 0.67103 0.0
H673 H 0.03178 0.78116 0.69399 0.0
H674 H 0.00038 0.78815 0.67528 0.0
H675 H 0.8392 0.63513 0.67042 0.0
H676 H 0.82307 0.63556 0.70325 0.0
H677 H 0.97068 0.71646 0.71452 0.0
C678 C 0.00524 0.72285 0.64055 0.0
C679 C 0.98242 0.71159 0.62337 0.0
C680 C 0.93356 0.68466 0.62271 0.0
C681 C 0.90767 0.66951 0.63898 0.0
C682 C 0.9313 0.6819 0.6557 0.0
C683 C 0.97898 0.70807 0.65661 0.0
C684 C 0.99574 0.72001 0.67627 0.0
C685 C 0.02549 0.69839 0.68164 0.0
C686 C 0.02212 0.77286 0.67931 0.0
C687 C 0.94991 0.69703 0.68633 0.0
C688 C 0.91331 0.67476 0.67419 0.0
C689 C 0.86755 0.65219 0.68005 0.0
C690 C 0.85884 0.65278 0.69879 0.0
C691 C 0.89568 0.67615 0.71151 0.0
C692 C 0.94186 0.69814 0.70517 0.0
H693 H 0.26494 0.9726 0.93343 0.0
H694 H 0.35927 0.12148 0.93394 0.0
H695 H 0.35727 0.12164 0.9676 0.0
H696 H 0.19519 0.96955 0.97147 0.0
H697 H 0.18796 0.91614 0.98077 0.0
H698 H 0.19691 0.92724 0.95651 0.0
H699 H 0.26758 0.91451 0.95777 0.0
H700 H 0.25881 0.90334 0.98204 0.0
H701 H 0.3141 0.94806 0.97361 0.0
H702 H 0.34243 0.10702 1.00134 0.0
H703 H 0.31847 0.07658 0.03291 0.0
H704 H 0.23734 0.93741 0.01074 0.0
C705 C 0.28528 0.00511 0.94065 0.0
C706 C 0.31222 0.04693 0.93097 0.0
C707 C 0.33842 0.08882 0.94096 0.0
C708 C 0.33752 0.08942 0.96015 0.0
C709 C 0.31059 0.04781 0.96929 0.0
C710 C 0.28523 0.00633 0.95993 0.0
C711 C 0.25942 0.96655 0.97321 0.0
C712 C 0.20675 0.94353 0.97031 0.0
C713 C 0.27598 0.93102 0.97156 0.0
C714 C 0.27403 0.9923 0.99136 0.0
C715 C 0.30331 0.0392 0.98882 0.0
C716 C 0.31988 0.07024 0.00355 0.0
C717 C 0.30611 0.05276 0.02141 0.0
C718 C 0.2766 0.00471 0.0243 0.0
C719 C 0.26063 0.97429 0.00903 0.0
H720 H 0.08806 0.09002 0.2576 0.0
H721 H 0.98409 0.12908 0.24613 0.0
H722 H 0.92291 0.04721 0.24861 0.0
H723 H 0.03698 0.98813 0.23073 0.0
H724 H 0.05227 0.95552 0.24614 0.0
H725 H 0.08753 0.0177 0.24514 0.0
H726 H 0.07723 0.02285 0.28017 0.0
H727 H 0.04194 0.96061 0.28128 0.0
H728 H 0.01968 0.99665 0.28971 0.0
H729 H 0.87333 0.96033 0.25036 0.0
H730 H 0.83927 0.87543 0.25183 0.0
H731 H 0.97611 0.89323 0.26079 0.0
C732 C 0.0525 0.08159 0.25565 0.0
C733 C 0.04114 0.11635 0.2517 0.0
C734 C 0.99389 0.10346 0.24946 0.0
C735 C 0.95879 0.0569 0.25074 0.0
C736 C 0.97141 0.02357 0.25431 0.0
C737 C 0.01711 0.03534 0.2568 0.0
C738 C 0.02167 0.99273 0.2597 0.0
C739 C 0.05136 0.98827 0.24452 0.0
C740 C 0.04128 0.99325 0.27886 0.0
C741 C 0.97142 0.95507 0.25816 0.0
C742 C 0.94294 0.97356 0.25515 0.0
C743 C 0.8953 0.94548 0.25279 0.0
C744 C 0.87632 0.89722 0.25348 0.0
C745 C 0.90493 0.87742 0.25637 0.0
C746 C 0.9531 0.90704 0.25884 0.0
H747 H 0.01044 0.10927 0.60062 0.0
H748 H 0.86174 0.02022 0.60649 0.0
H749 H 0.87214 0.95221 0.6093 0.0
H750 H 0.02847 0.0324 0.57272 0.0
H751 H 0.08338 0.04674 0.58288 0.0
H752 H 0.0646 0.08896 0.58266 0.0
H753 H 0.07399 0.09715 0.618 0.0
H754 H 0.09274 0.05484 0.61833 0.0
H755 H 0.04429 0.04625 0.63222 0.0
H756 H 0.89782 0.89308 0.60917 0.0
H757 H 0.93766 0.84734 0.60686 0.0
H758 H 0.06947 0.97437 0.60119 0.0
C759 C 0.98006 0.07553 0.60256 0.0
C760 C 0.93526 0.0703 0.60342 0.0
C761 C 0.89648 0.02542 0.6061 0.0
C762 C 0.902 0.98644 0.60762 0.0
C763 C 0.94654 0.99282 0.60654 0.0
C764 C 0.98495 0.03623 0.60416 0.0
C765 C 0.02886 0.03333 0.60283 0.0
C766 C 0.05271 0.05142 0.58416 0.0
C767 C 0.06191 0.05944 0.6188 0.0
C768 C 0.009 0.98141 0.60453 0.0
C769 C 0.96145 0.9587 0.60669 0.0
C770 C 0.93509 0.9105 0.60767 0.0
C771 C 0.95792 0.88481 0.60627 0.0
C772 C 0.00658 0.90733 0.60399 0.0
C773 C 0.03237 0.9563 0.60332 0.0
H774 H 0.13016 0.09163 0.88674 0.0
H775 H 0.16092 0.00794 0.92335 0.0
H776 H 0.08366 0.9762 0.93753 0.0
H777 H 0.05841 0.11482 0.91958 0.0
H778 H 0.01774 0.10986 0.90219 0.0
H779 H 0.07745 0.13077 0.89621 0.0
H780 H 0.05219 0.06685 0.87145 0.0
H781 H 0.99244 0.04597 0.87715 0.0
H782 H 0.01531 0.00697 0.87781 0.0
H783 H 0.00244 0.94907 0.94597 0.0
H784 H 0.91991 0.92569 0.9478 0.0
H785 H 0.93914 0.02462 0.90509 0.0
C786 C 0.12077 0.06745 0.89803 0.0
C787 C 0.15124 0.0522 0.90407 0.0
C788 C 0.13776 0.01972 0.91855 0.0
C789 C 0.09419 0.00182 0.92674 0.0
C790 C 0.06448 0.01673 0.92024 0.0
C791 C 0.077 0.04877 0.90623 0.0
C792 C 0.03689 0.05583 0.90089 0.0
C793 C 0.04832 0.10579 0.90496 0.0
C794 C 0.02342 0.04312 0.88063 0.0
C795 C -0.00042 0.0216 0.91368 0.0
C796 C 0.01665 0.00012 0.92491 0.0
C797 C 0.98865 0.96578 0.93733 0.0
C798 C 0.9417 0.95243 0.93815 0.0
C799 C 0.92295 0.97301 0.92648 0.0
C800 C 0.95258 0.00866 0.91432 0.0
H801 H 0.89218 0.98155 0.41998 0.0
H802 H 0.87249 0.85424 0.39549 0.0
H803 H 0.95738 0.88954 0.39179 0.0
H804 H 0.99302 0.06291 0.39243 0.0
H805 H 0.02054 0.10105 0.41166 0.0
H806 H 0.95825 0.06742 0.4104 0.0
H807 H 0.95605 0.03245 0.44242 0.0
H808 H 0.01824 0.06578 0.44373 0.0
H809 H 0.98898 0.00362 0.44627 0.0
H810 H 0.04456 0.93745 0.39252 0.0
H811 H 0.12713 0.99333 0.39822 0.0
H812 H 0.08856 0.0873 0.42374 0.0
C813 C 0.90579 0.96165 0.41341 0.0
C814 C 0.87607 0.91546 0.40783 0.0
C815 C 0.89496 0.88976 0.39982 0.0
C816 C 0.94298 0.90956 0.3976 0.0
C817 C 0.97148 0.95498 0.40358 0.0
C818 C 0.95357 0.98068 0.41134 0.0
C819 C 0.99167 0.02736 0.41796 0.0
C820 C 0.99081 0.06702 0.40748 0.0
C821 C 0.98854 0.03257 0.43883 0.0
C822 C 0.03376 0.02367 0.41294 0.0
C823 C 0.02151 0.98196 0.40447 0.0
C824 C 0.05458 0.97034 0.39908 0.0
C825 C 0.10143 0.0022 0.40251 0.0
C826 C 0.11473 0.04496 0.41142 0.0
C827 C 0.08012 0.05558 0.41658 0.0
H828 H 0.89323 0.89812 0.75798 0.0
H829 H 0.01051 0.87498 0.75958 0.0
H830 H 0.06357 0.95917 0.76193 0.0
H831 H 0.94732 -0.00032 0.72976 0.0
H832 H 0.92093 0.02847 0.74142 0.0
H833 H 0.89177 0.96607 0.74074 0.0
H834 H 0.88704 0.96348 0.77625 0.0
H835 H 0.91636 0.02592 0.77704 0.0
H836 H 0.93936 0.99515 0.78954 0.0
H837 H 0.10423 0.04579 0.76314 0.0
H838 H 0.12999 0.12921 0.76303 0.0
H839 H 0.9869 0.09724 0.75976 0.0
C840 C 0.93003 0.91063 0.75874 0.0
C841 C 0.94747 0.87951 0.75871 0.0
C842 C 0.99602 0.89771 0.75992 0.0
C843 C 0.02656 0.94564 0.76115 0.0
C844 C 0.00817 0.97517 0.7611 0.0
C845 C 0.96107 0.95846 0.75992 0.0
C846 C 0.95048 0.99788 0.7598 0.0
C847 C 0.9262 0.99802 0.74186 0.0
C848 C 0.9216 0.99545 0.77666 0.0
C849 C -0.00094 0.03936 0.76088 0.0
C850 C 0.03174 0.02536 0.76169 0.0
C851 C 0.07897 0.05717 0.76248 0.0
C852 C 0.09327 0.10457 0.76228 0.0
C853 C 0.06056 0.11997 0.76124 0.0
C854 C 0.01275 0.08669 0.76071 0.0
H855 H 0.94832 0.04853 0.1237 0.0
H856 H 0.95852 0.1411 0.07993 0.0
H857 H 0.01072 0.12165 0.06275 0.0
H858 H 0.07025 0.07784 0.121 0.0
H859 H 0.05772 0.01985 0.12635 0.0
H860 H 0.02129 0.0411 0.13528 0.0
H861 H 0.94931 0.97117 0.12064 0.0
H862 H 0.98544 0.94971 0.11163 0.0
H863 H 0.94912 0.96035 0.09638 0.0
H864 H 0.05701 0.08853 0.04958 0.0
H865 H 0.10186 0.04978 0.04233 0.0
H866 H 0.06674 0.9823 0.09547 0.0
C867 C 0.96198 0.06475 0.11055 0.0
C868 C 0.94977 0.09627 0.10303 0.0
C869 C 0.96809 0.11723 0.08587 0.0
C870 C 0.99745 0.10621 0.07604 0.0
C871 C 0.00875 0.07482 0.08375 0.0
C872 C 0.99233 0.05497 0.10075 0.0
C873 C 0.01096 0.02323 0.10604 0.0
C874 C 0.04188 0.04159 0.12319 0.0
C875 C 0.97134 0.97315 0.10883 0.0
C876 C 0.03929 0.02737 0.08913 0.0
C877 C 0.03727 0.05714 0.07643 0.0
C878 C 0.0592 0.06544 0.05946 0.0
C879 C 0.08425 0.04301 0.05541 0.0
C880 C 0.08758 0.01303 0.06832 0.0
C881 C 0.06493 0.00531 0.08543 0.0
H882 H 0.91505 0.23401 0.15006 0.0
H883 H 0.85339 0.21081 0.20396 0.0
H884 H 0.92741 0.27334 0.21652 0.0
H885 H 0.0071 0.23385 0.16329 0.0
H886 H 0.04883 0.27681 0.14792 0.0
H887 H 0.98887 0.24588 0.14168 0.0
H888 H 0.98901 0.32326 0.13757 0.0
H889 H 0.04959 0.35481 0.14366 0.0
H890 H 0.00857 0.36489 0.15604 0.0
H891 H 0.00909 0.31969 0.22451 0.0
H892 H 0.0894 0.33891 0.22818 0.0
H893 H 0.10253 0.33244 0.16911 0.0
C894 C 0.91672 0.24444 0.16427 0.0
C895 C 0.87868 0.21924 0.17603 0.0
C896 C 0.88203 0.23105 0.19475 0.0
C897 C 0.92391 0.26656 0.20191 0.0
C898 C 0.96196 0.28929 0.19015 0.0
C899 C 0.95864 0.2788 0.17163 0.0
C900 C 0.00607 0.29943 0.1628 0.0
C901 C 0.01309 0.26175 0.1534 0.0
C902 C 0.01376 0.3379 0.14922 0.0
C903 C 0.03668 0.31943 0.17954 0.0
C904 C 0.01062 0.31514 0.19499 0.0
C905 C 0.03005 0.32463 0.21246 0.0
C906 C 0.07629 0.33594 0.21437 0.0
C907 C 0.10286 0.33727 0.19889 0.0
C908 C 0.08334 0.33168 0.1812 0.0
H909 H 0.7836 0.04775 0.54784 0.0
H910 H 0.7889 0.14937 0.5095 0.0
H911 H 0.72472 0.08687 0.49171 0.0
H912 H 0.77882 0.97362 0.51835 0.0
H913 H 0.73974 0.92077 0.53022 0.0
H914 H 0.77287 0.97311 0.54297 0.0
H915 H 0.69733 0.96445 0.55693 0.0
H916 H 0.66373 0.91171 0.54401 0.0
H917 H 0.65151 0.95857 0.54202 0.0
H918 H 0.67958 0.01509 0.47389 0.0
H919 H 0.6615 0.94309 0.45753 0.0
H920 H 0.68205 0.88621 0.50766 0.0
C921 C 0.76968 0.05667 0.5361 0.0
C922 C 0.79066 0.10274 0.52988 0.0
C923 C 0.77265 0.11398 0.51443 0.0
C924 C 0.73607 0.07874 0.50438 0.0
C925 C 0.71751 0.03289 0.51028 0.0
C926 C 0.73327 0.02194 0.52605 0.0
C927 C 0.71444 0.97031 0.52771 0.0
C928 C 0.7538 0.95886 0.52991 0.0
C929 C 0.67967 0.95007 0.54361 0.0
C930 C 0.69016 0.9544 0.50942 0.0
C931 C 0.69041 0.99057 0.49988 0.0
C932 C 0.67755 0.98613 0.48143 0.0
C933 C 0.66718 0.94504 0.47222 0.0
C934 C 0.67038 0.90944 0.48149 0.0
C935 C 0.67879 0.91296 0.5005 0.0
H936 H 0.76405 0.68422 0.84404 0.0
H937 H 0.70141 0.69516 0.79356 0.0
H938 H 0.6515 0.71596 0.81115 0.0
H939 H 0.65583 0.64846 0.87521 0.0
H940 H 0.69333 0.68325 0.8936 0.0
H941 H 0.71197 0.65358 0.87804 0.0
H942 H 0.78612 0.73151 0.87071 0.0
H943 H 0.76783 0.76111 0.88613 0.0
H944 H 0.78053 0.77969 0.86256 0.0
H945 H 0.62902 0.759 0.83176 0.0
H946 H 0.63416 0.81752 0.85399 0.0
H947 H 0.70683 0.7767 0.89203 0.0
C948 C 0.73841 0.68919 0.83684 0.0
C949 C 0.7364 0.68793 0.81752 0.0
C950 C 0.70297 0.69511 0.8084 0.0
C951 C 0.67434 0.70689 0.81831 0.0
C952 C 0.679 0.71058 0.83733 0.0
C953 C 0.70959 0.70098 0.84658 0.0
C954 C 0.71413 0.71534 0.86651 0.0
C955 C 0.69251 0.6726 0.87908 0.0
C956 C 0.76513 0.74892 0.87175 0.0
C957 C 0.6855 0.73915 0.86651 0.0
C958 C 0.66418 0.73466 0.84971 0.0
C959 C 0.64358 0.76108 0.84524 0.0
C960 C 0.64664 0.79424 0.85787 0.0
C961 C 0.66965 0.80013 0.87475 0.0
C962 C 0.68728 0.77091 0.87947 0.0
H963 H 0.03657 0.795 0.11249 0.0
H964 H 0.15593 0.81938 0.14479 0.0
H965 H 0.10419 0.76246 0.16768 0.0
H966 H 0.97381 0.79746 0.14629 0.0
H967 H 0.91776 0.7527 0.13847 0.0
H968 H 0.96326 0.78354 0.1222 0.0
H969 H 0.95453 0.70602 0.11039 0.0
H970 H 0.90851 0.67469 0.12668 0.0
H971 H 0.95809 0.66651 0.12633 0.0
H972 H 0.04149 0.71973 0.18999 0.0
H973 H 0.97391 0.6974 0.20998 0.0
H974 H 0.89431 0.69789 0.16304 0.0
C975 C 0.05183 0.78664 0.12393 0.0
C976 C 0.10005 0.81134 0.1269 0.0
C977 C 0.11891 0.80089 0.14236 0.0
C978 C 0.08982 0.76819 0.15529 0.0
C979 C 0.0421 0.74586 0.15241 0.0
C980 C 0.02324 0.75425 0.13695 0.0
C981 C 0.97124 0.73234 0.13852 0.0
C982 C 0.95568 0.76869 0.13626 0.0
C983 C 0.94665 0.69251 0.12466 0.0
C984 C 0.96434 0.71408 0.15791 0.0
C985 C 0.00529 0.72063 0.16548 0.0
C986 C 0.00888 0.71291 0.18407 0.0
C987 C 0.9703 0.70018 0.19534 0.0
C988 C 0.92908 0.69594 0.18796 0.0
C989 C 0.92548 0.70066 0.16891 0.0
H990 H 0.20723 0.97941 0.55784 0.0
H991 H 0.23662 0.88823 0.52541 0.0
H992 H 0.30094 0.95619 0.51016 0.0
H993 H 0.20887 0.04402 0.52559 0.0
H994 H 0.23598 0.09941 0.53713 0.0
H995 H 0.20668 0.04732 0.55026 0.0
H996 H 0.28135 0.07208 0.56918 0.0
H997 H 0.31115 0.12472 0.55591 0.0
H998 H 0.33469 0.08643 0.55761 0.0
H999 H 0.341 0.02728 0.49208 0.0
H1000 H 0.34928 0.09142 0.47267 0.0
H1001 H 0.29735 0.13988 0.5168 0.0
C1002 C 0.22878 0.97424 0.54809 0.0
C1003 C 0.21737 0.92918 0.54265 0.0
C1004 C 0.24539 0.9228 0.52979 0.0
C1005 C 0.28212 0.96125 0.52118 0.0
C1006 C 0.29074 0.00559 0.52592 0.0
C1007 C 0.26532 0.01227 0.53942 0.0
C1008 C 0.2743 0.06154 0.53946 0.0
C1009 C 0.22879 0.06308 0.53799 0.0
C1010 C 0.30204 0.08774 0.55656 0.0
C1011 C 0.30363 0.07974 0.52235 0.0
C1012 C 0.31484 0.04788 0.51527 0.0
C1013 C 0.33405 0.05323 0.4978 0.0
C1014 C 0.33878 0.08991 0.48684 0.0
C1015 C 0.32379 0.12027 0.49337 0.0
C1016 C 0.30941 0.11714 0.51172 0.0
H1017 H 0.31366 0.20643 0.85318 0.0
H1018 H 0.36286 0.19628 0.79949 0.0
H1019 H 0.35871 0.26525 0.78937 0.0
H1020 H 0.22831 0.21698 0.83893 0.0
H1021 H 0.22904 0.25638 0.85612 0.0
H1022 H 0.25352 0.22056 0.86121 0.0
H1023 H 0.33164 0.29349 0.86949 0.0
H1024 H 0.30713 0.32983 0.86432 0.0
H1025 H 0.35966 0.34002 0.85313 0.0
H1026 H 0.32969 0.31829 0.78282 0.0
H1027 H 0.27073 0.34139 0.77899 0.0
H1028 H 0.23607 0.31573 0.83662 0.0
C1029 C 0.32575 0.22055 0.83961 0.0
C1030 C 0.33935 0.19736 0.82712 0.0
C1031 C 0.35323 0.21464 0.80922 0.0
C1032 C 0.35127 0.25389 0.80349 0.0
C1033 C 0.33531 0.27496 0.81588 0.0
C1034 C 0.32292 0.25883 0.83367 0.0
C1035 C 0.2965 0.27928 0.84293 0.0
C1036 C 0.24907 0.24103 0.85018 0.0
C1037 C 0.32549 0.31266 0.85838 0.0
C1038 C 0.29146 0.30545 0.82699 0.0
C1039 C 0.31634 0.3048 0.81184 0.0
C1040 C 0.31128 0.32032 0.7947 0.0
C1041 C 0.27774 0.33361 0.79266 0.0
C1042 C 0.24916 0.33035 0.8076 0.0
C1043 C 0.25822 0.3191 0.82515 0.0
H1044 H 0.23023 0.15741 0.19841 0.0
H1045 H 0.11564 0.16067 0.17145 0.0
H1046 H 0.13222 0.13195 0.14295 0.0
H1047 H 0.30719 0.19162 0.15948 0.0
H1048 H 0.32832 0.15237 0.16446 0.0
H1049 H 0.30866 0.17457 0.18284 0.0
H1050 H 0.25044 0.09073 0.19319 0.0
H1051 H 0.27032 0.06835 0.17498 0.0
H1052 H 0.20966 0.05027 0.17682 0.0
H1053 H 0.16277 0.10592 0.11683 0.0
H1054 H 0.19863 0.07411 0.09615 0.0
H1055 H 0.28934 0.08081 0.14029 0.0
C1056 C 0.20861 0.15192 0.18651 0.0
C1057 C 0.17166 0.16143 0.18721 0.0
C1058 C 0.1439 0.15337 0.17137 0.0
C1059 C 0.15323 0.13734 0.15501 0.0
C1060 C 0.19008 0.12876 0.15469 0.0
C1061 C 0.21685 0.13492 0.17008 0.0
C1062 C 0.25293 0.12079 0.16618 0.0
C1063 C 0.30219 0.16232 0.16837 0.0
C1064 C 0.24537 0.08011 0.17852 0.0
C1065 C 0.24225 0.1059 0.14621 0.0
C1066 C 0.2063 0.11148 0.13981 0.0
C1067 C 0.19049 0.10073 0.12178 0.0
C1068 C 0.21089 0.08232 0.11014 0.0
C1069 C 0.24596 0.07362 0.11663 0.0
C1070 C 0.26253 0.0868 0.13483 0.0
H1071 H 0.11299 0.30875 0.53554 0.0
H1072 H 0.02411 0.1629 0.54811 0.0
H1073 H 0.05274 0.14194 0.52042 0.0
H1074 H 0.09485 0.2974 0.48733 0.0
H1075 H 0.15331 0.34071 0.48151 0.0
H1076 H 0.12855 0.34442 0.50298 0.0
H1077 H 0.19667 0.34584 0.52073 0.0
H1078 H 0.222 0.34283 0.4993 0.0
H1079 H 0.21019 0.30034 0.51691 0.0
H1080 H 0.09088 0.13709 0.49093 0.0
H1081 H 0.13589 0.14881 0.46244 0.0
H1082 H 0.1965 0.29775 0.4683 0.0
C1083 C 0.10025 0.2724 0.5327 0.0
C1084 C 0.06671 0.23744 0.54416 0.0
C1085 C 0.05005 0.19027 0.53963 0.0
C1086 C 0.06602 0.17805 0.52389 0.0
C1087 C 0.09834 0.21337 0.51267 0.0
C1088 C 0.11531 0.2596 0.5169 0.0
C1089 C 0.14855 0.29085 0.50223 0.0
C1090 C 0.1302 0.32006 0.49297 0.0
C1091 C 0.19724 0.32178 0.51027 0.0
C1092 C 0.14778 0.25507 0.48909 0.0
C1093 C 0.11878 0.21055 0.4954 0.0
C1094 C 0.11349 0.17182 0.48585 0.0
C1095 C 0.1391 0.17879 0.46965 0.0
C1096 C 0.16928 0.22413 0.46299 0.0
C1097 C 0.17303 0.26263 0.47279 0.0
H1098 H 0.00894 0.222 0.84222 0.0
H1099 H 0.93093 0.18272 0.7913 0.0
H1100 H 0.86278 0.12171 0.80786 0.0
H1101 H 0.95907 0.10314 0.86013 0.0
H1102 H 0.95907 0.12058 0.88354 0.0
H1103 H 0.00238 0.16013 0.86772 0.0
H1104 H 0.9787 0.22183 0.87466 0.0
H1105 H 0.93547 0.18271 0.89056 0.0
H1106 H 0.91909 0.20706 0.87188 0.0
H1107 H 0.80174 0.07032 0.83036 0.0
H1108 H 0.75315 0.02611 0.85648 0.0
H1109 H 0.87177 0.09481 0.89291 0.0
C1110 C 0.97757 0.20037 0.83452 0.0
C1111 C 0.97499 0.20735 0.81547 0.0
C1112 C 0.9336 0.17798 0.80586 0.0
C1113 C 0.89477 0.14334 0.81517 0.0
C1114 C 0.89827 0.13796 0.83401 0.0
C1115 C 0.93886 0.16507 0.84353 0.0
C1116 C 0.93346 0.15198 0.86373 0.0
C1117 C 0.96541 0.13283 0.86908 0.0
C1118 C 0.94219 0.19336 0.87592 0.0
C1119 C 0.88297 0.1142 0.86422 0.0
C1120 C 0.86344 0.10685 0.8469 0.0
C1121 C 0.81681 0.07541 0.84391 0.0
C1122 C 0.78941 0.05067 0.85893 0.0
C1123 C 0.80857 0.05698 0.87681 0.0
C1124 C 0.85619 0.08902 0.87942 0.0
H1125 H 0.75295 0.80118 0.22086 0.0
H1126 H 0.74505 0.71944 0.17304 0.0
H1127 H 0.75162 0.78155 0.15284 0.0
H1128 H 0.68363 0.84705 0.20127 0.0
H1129 H 0.71706 0.90314 0.21194 0.0
H1130 H 0.71261 0.85245 0.2228 0.0
H1131 H 0.80202 0.89193 0.22356 0.0
H1132 H 0.80695 0.94258 0.21247 0.0
H1133 H 0.83438 0.91273 0.20252 0.0
H1134 H 0.76329 0.85398 0.13758 0.0
H1135 H 0.76831 0.92795 0.12835 0.0
H1136 H 0.76298 0.96088 0.1856 0.0
C1137 C 0.75226 0.79626 0.20615 0.0
C1138 C 0.74849 0.75531 0.1986 0.0
C1139 C 0.74761 0.75024 0.17924 0.0
C1140 C 0.75167 0.78553 0.16759 0.0
C1141 C 0.75599 0.82564 0.17542 0.0
C1142 C 0.75547 0.83095 0.19423 0.0
C1143 C 0.75889 0.87698 0.19899 0.0
C1144 C 0.71545 0.86944 0.20936 0.0
C1145 C 0.8032 0.90788 0.21003 0.0
C1146 C 0.76133 0.89647 0.17992 0.0
C1147 C 0.76046 0.86662 0.16654 0.0
C1148 C 0.76358 0.87751 0.14792 0.0
C1149 C 0.76666 0.91964 0.14279 0.0
C1150 C 0.76568 0.94985 0.15623 0.0
C1151 C 0.76335 0.93817 0.17502 0.0
H1152 H 0.77153 0.68707 0.47298 0.0
H1153 H 0.83083 0.83496 0.46399 0.0
H1154 H 0.8866 0.85099 0.4891 0.0
H1155 H 0.7793 0.69285 0.52192 0.0
H1156 H 0.79382 0.64761 0.52405 0.0
H1157 H 0.75965 0.64755 0.50489 0.0
H1158 H 0.81894 0.64594 0.48231 0.0
H1159 H 0.85314 0.64567 0.50141 0.0
H1160 H 0.8792 0.68985 0.48402 0.0
H1161 H 0.93577 0.851 0.51549 0.0
H1162 H 0.97453 0.83479 0.54101 0.0
H1163 H 0.88202 0.68703 0.53328 0.0
C1164 C 0.79655 0.72281 0.47616 0.0
C1165 C 0.79678 0.75975 0.46648 0.0
C1166 C 0.82979 0.80606 0.47125 0.0
C1167 C 0.86169 0.81554 0.48549 0.0
C1168 C 0.86013 0.77837 0.49492 0.0
C1169 C 0.82845 0.73292 0.49045 0.0
C1170 C 0.83346 0.69935 0.503 0.0
C1171 C 0.78891 0.67013 0.51412 0.0
C1172 C 0.847 0.66839 0.49203 0.0
C1173 C 0.87284 0.73299 0.51522 0.0
C1174 C 0.88787 0.77841 0.5103 0.0
C1175 C 0.92424 0.81555 0.51947 0.0
C1176 C 0.94605 0.806 0.53396 0.0
C1177 C 0.93128 0.75967 0.53922 0.0
C1178 C 0.89395 0.72285 0.52973 0.0
H1179 H 0.18682 0.94243 0.81725 0.0
H1180 H 0.16958 0.89888 0.87418 0.0
H1181 H 0.09549 0.82828 0.86615 0.0
H1182 H 0.06461 0.90263 0.80877 0.0
H1183 H 0.06704 0.88572 0.78548 0.0
H1184 H 0.11785 0.93262 0.79594 0.0
H1185 H 0.16366 0.89044 0.78848 0.0
H1186 H 0.11274 0.84325 0.7782 0.0
H1187 H 0.14216 0.83197 0.79652 0.0
H1188 H 0.02602 0.76022 0.85128 0.0
H1189 H 0.96221 0.70386 0.83179 0.0
H1190 H 0.02298 0.79424 0.78471 0.0
C1191 C 0.16744 0.91809 0.82807 0.0
C1192 C 0.18414 0.9258 0.84634 0.0
C1193 C 0.15741 0.89356 0.86012 0.0
C1194 C 0.11544 0.85337 0.85565 0.0
C1195 C 0.10041 0.84649 0.83742 0.0
C1196 C 0.12523 0.87841 0.82391 0.0
C1197 C 0.10115 0.86347 0.80544 0.0
C1198 C 0.08681 0.89818 0.79851 0.0
C1199 C 0.13176 0.85689 0.79133 0.0
C1200 C 0.05923 0.81754 0.81053 0.0
C1201 C 0.05961 0.8083 0.82902 0.0
C1202 C 0.02521 0.76736 0.83684 0.0
C1203 C 0.98918 0.73539 0.82558 0.0
C1204 C 0.98738 0.74453 0.80667 0.0
C1205 C 0.02315 0.78623 0.7991 0.0
loop_
_geom_bond_atom_site_label_1
_geom_bond_atom_site_label_2
_geom_bond_distance
_geom_bond_site_symmetry_2
_ccdc_geom_bond_type
C0 C1 1.351 . S
C0 N3 1.368 . S
C0 H5 0.931 . S
C1 C0 1.351 . S
C1 N2 1.373 . S
C1 H29 0.930 . S
N2 C1 1.373 . S
N2 C4 1.340 . S
N3 C0 1.368 . S
N3 C4 1.321 . S
N3 Co6 2.135 . S
C4 N2 1.340 . S
C4 N3 1.321 . S
C4 H28 0.930 . S
H5 C0 0.931 . S
Co6 N3 2.135 . S
Co6 N9 2.121 . S
Co6 O14 2.055 . S
Co6 O17 2.039 . S
Co6 N20 2.140 . S
C7 O8 1.227 . S
C7 O17 1.265 . S
O8 C7 1.227 . S
N9 Co6 2.121 . S
N9 C11 1.375 . S
N9 C12 1.313 . S
C10 C11 1.338 . S
C10 N13 1.377 . S
C10 H30 0.930 . S
C11 N9 1.375 . S
C11 C10 1.338 . S
C11 H15 0.931 . S
C12 N9 1.313 . S
C12 N13 1.344 . S
C12 H16 0.930 . S
N13 C10 1.377 . S
N13 C12 1.344 . S
O14 Co6 2.055 . S
O14 C18 1.253 . S
H15 C11 0.931 . S
H16 C12 0.930 . S
O17 Co6 2.039 . S
O17 C7 1.265 . S
C18 O14 1.253 . S
C18 O19 1.227 . S
O19 C18 1.227 . S
N20 Co6 2.140 . S
N20 C23 1.346 . S
N20 C24 1.345 . S
C21 C22 1.387 . S
C21 C25 1.391 . S
C22 C21 1.387 . S
C22 C23 1.369 . S
C22 H31 0.929 . S
C23 N20 1.346 . S
C23 C22 1.369 . S
C23 H26 0.928 . S
C24 N20 1.345 . S
C24 C25 1.371 . S
C24 H27 0.931 . S
C25 C21 1.391 . S
C25 C24 1.371 . S
C25 H32 0.930 . S
H26 C23 0.928 . S
H27 C24 0.931 . S
H28 C4 0.930 . S
H29 C1 0.930 . S
H30 C10 0.930 . S
H31 C22 0.929 . S
H32 C25 0.930 . S
C33 C34 1.351 . S
C33 N36 1.368 . S
C33 H38 0.931 . S
C34 C33 1.351 . S
C34 N35 1.373 . S
C34 H62 0.930 . S
N35 C34 1.373 . S
N35 C37 1.340 . S
N36 C33 1.368 . S
N36 C37 1.321 . S
N36 Co39 2.135 . S
C37 N35 1.340 . S
C37 N36 1.321 . S
C37 H61 0.930 . S
H38 C33 0.931 . S
Co39 N36 2.135 . S
Co39 N42 2.121 . S
Co39 O47 2.055 . S
Co39 O50 2.039 1_655 S
Co39 N53 2.140 . S
C40 O41 1.227 1_455 S
C40 O50 1.265 . S
O41 C40 1.227 1_655 S
N42 Co39 2.121 . S
N42 C44 1.375 . S
N42 C45 1.313 . S
C43 C44 1.338 . S
C43 N46 1.377 . S
C43 H63 0.930 . S
C44 N42 1.375 . S
C44 C43 1.338 . S
C44 H48 0.931 . S
C45 N42 1.313 . S
C45 N46 1.344 . S
C45 H49 0.930 . S
N46 C43 1.377 . S
N46 C45 1.344 . S
O47 Co39 2.055 . S
O47 C51 1.253 . S
H48 C44 0.931 . S
H49 C45 0.930 . S
O50 Co39 2.039 1_455 S
O50 C40 1.265 . S
C51 O47 1.253 . S
C51 O52 1.227 . S
O52 C51 1.227 . S
N53 Co39 2.140 . S
N53 C56 1.346 . S
N53 C57 1.345 . S
C54 C55 1.387 . S
C54 C58 1.391 . S
C55 C54 1.387 . S
C55 C56 1.369 . S
C55 H64 0.929 . S
C56 N53 1.346 . S
C56 C55 1.369 . S
C56 H59 0.928 . S
C57 N53 1.345 . S
C57 C58 1.371 . S
C57 H60 0.931 . S
C58 C54 1.391 . S
C58 C57 1.371 . S
C58 H65 0.930 . S
H59 C56 0.928 . S
H60 C57 0.931 . S
H61 C37 0.930 . S
H62 C34 0.930 . S
H63 C43 0.930 . S
H64 C55 0.929 . S
H65 C58 0.930 . S
C66 C67 1.351 . S
C66 N69 1.368 . S
C66 H71 0.931 . S
C67 C66 1.351 . S
C67 N68 1.373 . S
C67 H95 0.930 . S
N68 C67 1.373 . S
N68 C70 1.340 . S
N69 C66 1.368 . S
N69 C70 1.321 . S
N69 Co72 2.135 . S
C70 N68 1.340 . S
C70 N69 1.321 . S
C70 H94 0.930 . S
H71 C66 0.931 . S
Co72 N69 2.135 . S
Co72 N75 2.121 . S
Co72 O80 2.055 . S
Co72 O83 2.039 1_565 S
Co72 N86 2.140 . S
C73 O74 1.227 1_545 S
C73 O83 1.265 . S
O74 C73 1.227 1_565 S
N75 Co72 2.121 . S
N75 C77 1.375 . S
N75 C78 1.313 . S
C76 C77 1.338 . S
C76 N79 1.377 . S
C76 H96 0.930 . S
C77 N75 1.375 . S
C77 C76 1.338 . S
C77 H81 0.931 . S
C78 N75 1.313 . S
C78 N79 1.344 . S
C78 H82 0.930 . S
N79 C76 1.377 . S
N79 C78 1.344 . S
O80 Co72 2.055 . S
O80 C84 1.253 . S
H81 C77 0.931 . S
H82 C78 0.930 . S
O83 Co72 2.039 1_545 S
O83 C73 1.265 . S
C84 O80 1.253 . S
C84 O85 1.227 . S
O85 C84 1.227 . S
N86 Co72 2.140 . S
N86 C89 1.346 . S
N86 C90 1.345 . S
C87 C88 1.387 . S
C87 C91 1.391 . S
C88 C87 1.387 . S
C88 C89 1.369 . S
C88 H97 0.929 . S
C89 N86 1.346 . S
C89 C88 1.369 . S
C89 H92 0.928 . S
C90 N86 1.345 . S
C90 C91 1.371 . S
C90 H93 0.931 . S
C91 C87 1.391 . S
C91 C90 1.371 . S
C91 H98 0.930 . S
H92 C89 0.928 . S
H93 C90 0.931 . S
H94 C70 0.930 . S
H95 C67 0.930 . S
H96 C76 0.930 . S
H97 C88 0.929 . S
H98 C91 0.930 . S
C99 C100 1.351 . S
C99 N102 1.368 . S
C99 H104 0.931 . S
C100 C99 1.351 . S
C100 N101 1.373 . S
C100 H128 0.930 . S
N101 C100 1.373 . S
N101 C103 1.340 . S
N102 C99 1.368 . S
N102 C103 1.321 . S
N102 Co105 2.135 . S
C103 N101 1.340 . S
C103 N102 1.321 . S
C103 H127 0.930 . S
H104 C99 0.931 . S
Co105 N102 2.135 . S
Co105 N108 2.121 . S
Co105 O113 2.055 . S
Co105 O116 2.039 . S
Co105 N119 2.140 . S
C106 O107 1.227 . S
C106 O116 1.265 . S
O107 C106 1.227 . S
N108 Co105 2.121 . S
N108 C110 1.375 . S
N108 C111 1.313 . S
C109 C110 1.338 . S
C109 N112 1.377 . S
C109 H129 0.930 . S
C110 N108 1.375 . S
C110 C109 1.338 . S
C110 H114 0.931 . S
C111 N108 1.313 . S
C111 N112 1.344 . S
C111 H115 0.930 . S
N112 C109 1.377 . S
N112 C111 1.344 . S
O113 Co105 2.055 . S
O113 C117 1.253 . S
H114 C110 0.931 . S
H115 C111 0.930 . S
O116 Co105 2.039 . S
O116 C106 1.265 . S
C117 O113 1.253 . S
C117 O118 1.227 . S
O118 C117 1.227 . S
N119 Co105 2.140 . S
N119 C122 1.346 . S
N119 C123 1.345 . S
C120 C121 1.387 . S
C120 C124 1.391 . S
C121 C120 1.387 . S
C121 C122 1.369 . S
C121 H130 0.929 . S
C122 N119 1.346 . S
C122 C121 1.369 . S
C122 H125 0.928 . S
C123 N119 1.345 . S
C123 C124 1.371 . S
C123 H126 0.931 . S
C124 C120 1.391 . S
C124 C123 1.371 . S
C124 H131 0.930 . S
H125 C122 0.928 . S
H126 C123 0.931 . S
H127 C103 0.930 . S
H128 C100 0.930 . S
H129 C109 0.930 . S
H130 C121 0.929 . S
H131 C124 0.930 . S
C132 C133 1.351 . S
C132 N135 1.368 . S
C132 H137 0.931 . S
C133 C132 1.351 . S
C133 N134 1.373 . S
C133 H161 0.930 . S
N134 C133 1.373 . S
N134 C136 1.340 . S
N135 C132 1.368 . S
N135 C136 1.321 . S
N135 Co138 2.135 . S
C136 N134 1.340 . S
C136 N135 1.321 . S
C136 H160 0.930 . S
H137 C132 0.931 . S
Co138 N135 2.135 . S
Co138 N141 2.121 . S
Co138 O146 2.055 . S
Co138 O149 2.039 1_455 S
Co138 N152 2.140 . S
C139 O140 1.227 1_655 S
C139 O149 1.265 . S
O140 C139 1.227 1_455 S
N141 Co138 2.121 . S
N141 C143 1.375 . S
N141 C144 1.313 . S
C142 C143 1.338 . S
C142 N145 1.377 . S
C142 H162 0.930 . S
C143 N141 1.375 . S
C143 C142 1.338 . S
C143 H147 0.931 . S
C144 N141 1.313 . S
C144 N145 1.344 . S
C144 H148 0.930 . S
N145 C142 1.377 . S
N145 C144 1.344 . S
O146 Co138 2.055 . S
O146 C150 1.253 . S
H147 C143 0.931 . S
H148 C144 0.930 . S
O149 Co138 2.039 1_655 S
O149 C139 1.265 . S
C150 O146 1.253 . S
C150 O151 1.227 . S
O151 C150 1.227 . S
N152 Co138 2.140 . S
N152 C155 1.346 . S
N152 C156 1.345 . S
C153 C154 1.387 . S
C153 C157 1.391 . S
C154 C153 1.387 . S
C154 C155 1.369 . S
C154 H163 0.929 . S
C155 N152 1.346 . S
C155 C154 1.369 . S
C155 H158 0.928 . S
C156 N152 1.345 . S
C156 C157 1.371 . S
C156 H159 0.931 . S
C157 C153 1.391 . S
C157 C156 1.371 . S
C157 H164 0.930 . S
H158 C155 0.928 . S
H159 C156 0.931 . S
H160 C136 0.930 . S
H161 C133 0.930 . S
H162 C142 0.930 . S
H163 C154 0.929 . S
H164 C157 0.930 . S
C165 C166 1.351 . S
C165 N168 1.368 . S
C165 H170 0.931 . S
C166 C165 1.351 . S
C166 N167 1.373 . S
C166 H194 0.930 . S
N167 C166 1.373 . S
N167 C169 1.340 . S
N168 C165 1.368 . S
N168 C169 1.321 . S
N168 Co171 2.135 . S
C169 N167 1.340 . S
C169 N168 1.321 . S
C169 H193 0.930 . S
H170 C165 0.931 . S
Co171 N168 2.135 . S
Co171 N174 2.121 . S
Co171 O179 2.055 . S
Co171 O182 2.039 1_545 S
Co171 N185 2.140 . S
C172 O173 1.227 1_565 S
C172 O182 1.265 . S
O173 C172 1.227 1_545 S
N174 Co171 2.121 . S
N174 C176 1.375 . S
N174 C177 1.313 . S
C175 C176 1.338 . S
C175 N178 1.377 . S
C175 H195 0.930 . S
C176 N174 1.375 . S
C176 C175 1.338 . S
C176 H180 0.931 . S
C177 N174 1.313 . S
C177 N178 1.344 . S
C177 H181 0.930 . S
N178 C175 1.377 . S
N178 C177 1.344 . S
O179 Co171 2.055 . S
O179 C183 1.253 . S
H180 C176 0.931 . S
H181 C177 0.930 . S
O182 Co171 2.039 1_565 S
O182 C172 1.265 . S
C183 O179 1.253 . S
C183 O184 1.227 . S
O184 C183 1.227 . S
N185 Co171 2.140 . S
N185 C188 1.346 . S
N185 C189 1.345 . S
C186 C187 1.387 . S
C186 C190 1.391 . S
C187 C186 1.387 . S
C187 C188 1.369 . S
C187 H196 0.929 . S
C188 N185 1.346 . S
C188 C187 1.369 . S
C188 H191 0.928 . S
C189 N185 1.345 . S
C189 C190 1.371 . S
C189 H192 0.931 . S
C190 C186 1.391 . S
C190 C189 1.371 . S
C190 H197 0.930 . S
H191 C188 0.928 . S
H192 C189 0.931 . S
H193 C169 0.930 . S
H194 C166 0.930 . S
H195 C175 0.930 . S
H196 C187 0.929 . S
H197 C190 0.930 . S
C198 C199 1.351 . S
C198 N201 1.368 . S
C198 H203 0.931 . S
C199 C198 1.351 . S
C199 N200 1.373 . S
C199 H227 0.930 . S
N200 C199 1.373 . S
N200 C202 1.340 . S
N201 C198 1.368 . S
N201 C202 1.321 . S
N201 Co204 2.135 . S
C202 N200 1.340 . S
C202 N201 1.321 . S
C202 H226 0.930 . S
H203 C198 0.931 . S
Co204 N201 2.135 . S
Co204 N207 2.121 . S
Co204 O212 2.055 . S
Co204 O215 2.039 . S
Co204 N218 2.140 . S
C205 O206 1.227 . S
C205 O215 1.265 . S
O206 C205 1.227 . S
N207 Co204 2.121 . S
N207 C209 1.375 . S
N207 C210 1.313 . S
C208 C209 1.338 . S
C208 N211 1.377 . S
C208 H228 0.930 . S
C209 N207 1.375 . S
C209 C208 1.338 . S
C209 H213 0.931 . S
C210 N207 1.313 . S
C210 N211 1.344 . S
C210 H214 0.930 . S
N211 C208 1.377 . S
N211 C210 1.344 . S
O212 Co204 2.055 . S
O212 C216 1.253 . S
H213 C209 0.931 . S
H214 C210 0.930 . S
O215 Co204 2.039 . S
O215 C205 1.265 . S
C216 O212 1.253 . S
C216 O217 1.227 . S
O217 C216 1.227 . S
N218 Co204 2.140 . S
N218 C221 1.346 . S
N218 C222 1.345 . S
C219 C220 1.387 . S
C219 C223 1.391 . S
C220 C219 1.387 . S
C220 C221 1.369 . S
C220 H229 0.929 . S
C221 N218 1.346 . S
C221 C220 1.369 . S
C221 H224 0.928 . S
C222 N218 1.345 . S
C222 C223 1.371 . S
C222 H225 0.931 . S
C223 C219 1.391 . S
C223 C222 1.371 . S
C223 H230 0.930 . S
H224 C221 0.928 . S
H225 C222 0.931 . S
H226 C202 0.930 . S
H227 C199 0.930 . S
H228 C208 0.930 . S
H229 C220 0.929 . S
H230 C223 0.930 . S
C231 C232 1.351 . S
C231 N234 1.368 . S
C231 H236 0.931 . S
C232 C231 1.351 . S
C232 N233 1.373 . S
C232 H260 0.930 . S
N233 C232 1.373 . S
N233 C235 1.340 . S
N234 C231 1.368 . S
N234 C235 1.321 . S
N234 Co237 2.135 . S
C235 N233 1.340 . S
C235 N234 1.321 . S
C235 H259 0.930 . S
H236 C231 0.931 . S
Co237 N234 2.135 . S
Co237 N240 2.121 . S
Co237 O245 2.055 . S
Co237 O248 2.039 1_655 S
Co237 N251 2.140 . S
C238 O239 1.227 1_455 S
C238 O248 1.265 . S
O239 C238 1.227 1_655 S
N240 Co237 2.121 . S
N240 C242 1.375 . S
N240 C243 1.313 . S
C241 C242 1.338 . S
C241 N244 1.377 . S
C241 H261 0.930 . S
C242 N240 1.375 . S
C242 C241 1.338 . S
C242 H246 0.931 . S
C243 N240 1.313 . S
C243 N244 1.344 . S
C243 H247 0.930 . S
N244 C241 1.377 . S
N244 C243 1.344 . S
O245 Co237 2.055 . S
O245 C249 1.253 . S
H246 C242 0.931 . S
H247 C243 0.930 . S
O248 Co237 2.039 1_455 S
O248 C238 1.265 . S
C249 O245 1.253 . S
C249 O250 1.227 . S
O250 C249 1.227 . S
N251 Co237 2.140 . S
N251 C254 1.346 . S
N251 C255 1.345 . S
C252 C253 1.387 . S
C252 C256 1.391 . S
C253 C252 1.387 . S
C253 C254 1.369 . S
C253 H262 0.929 . S
C254 N251 1.346 . S
C254 C253 1.369 . S
C254 H257 0.928 . S
C255 N251 1.345 . S
C255 C256 1.371 . S
C255 H258 0.931 . S
C256 C252 1.391 . S
C256 C255 1.371 . S
C256 H263 0.930 . S
H257 C254 0.928 . S
H258 C255 0.931 . S
H259 C235 0.930 . S
H260 C232 0.930 . S
H261 C241 0.930 . S
H262 C253 0.929 . S
H263 C256 0.930 . S
C264 C265 1.351 . S
C264 N267 1.368 . S
C264 H269 0.931 . S
C265 C264 1.351 . S
C265 N266 1.373 . S
C265 H293 0.930 . S
N266 C265 1.373 . S
N266 C268 1.340 . S
N267 C264 1.368 . S
N267 C268 1.321 . S
N267 Co270 2.135 . S
C268 N266 1.340 . S
C268 N267 1.321 . S
C268 H292 0.930 . S
H269 C264 0.931 . S
Co270 N267 2.135 . S
Co270 N273 2.121 . S
Co270 O278 2.055 . S
Co270 O281 2.039 1_565 S
Co270 N284 2.140 . S
C271 O272 1.227 1_545 S
C271 O281 1.265 . S
O272 C271 1.227 1_565 S
N273 Co270 2.121 . S
N273 C275 1.375 . S
N273 C276 1.313 . S
C274 C275 1.338 . S
C274 N277 1.377 . S
C274 H294 0.930 . S
C275 N273 1.375 . S
C275 C274 1.338 . S
C275 H279 0.931 . S
C276 N273 1.313 . S
C276 N277 1.344 . S
C276 H280 0.930 . S
N277 C274 1.377 . S
N277 C276 1.344 . S
O278 Co270 2.055 . S
O278 C282 1.253 . S
H279 C275 0.931 . S
H280 C276 0.930 . S
O281 Co270 2.039 1_545 S
O281 C271 1.265 . S
C282 O278 1.253 . S
C282 O283 1.227 . S
O283 C282 1.227 . S
N284 Co270 2.140 . S
N284 C287 1.346 . S
N284 C288 1.345 . S
C285 C286 1.387 . S
C285 C289 1.391 . S
C286 C285 1.387 . S
C286 C287 1.369 . S
C286 H295 0.929 . S
C287 N284 1.346 . S
C287 C286 1.369 . S
C287 H290 0.928 . S
C288 N284 1.345 . S
C288 C289 1.371 . S
C288 H291 0.931 . S
C289 C285 1.391 . S
C289 C288 1.371 . S
C289 H296 0.930 . S
H290 C287 0.928 . S
H291 C288 0.931 . S
H292 C268 0.930 . S
H293 C265 0.930 . S
H294 C274 0.930 . S
H295 C286 0.929 . S
H296 C289 0.930 . S
C297 C298 1.351 . S
C297 N300 1.368 . S
C297 H302 0.931 . S
C298 C297 1.351 . S
C298 N299 1.373 . S
C298 H326 0.930 . S
N299 C298 1.373 . S
N299 C301 1.340 . S
N300 C297 1.368 . S
N300 C301 1.321 . S
N300 Co303 2.135 . S
C301 N299 1.340 . S
C301 N300 1.321 . S
C301 H325 0.930 . S
H302 C297 0.931 . S
Co303 N300 2.135 . S
Co303 N306 2.121 . S
Co303 O311 2.055 . S
Co303 O314 2.039 . S
Co303 N317 2.140 . S
C304 O305 1.227 . S
C304 O314 1.265 . S
O305 C304 1.227 . S
N306 Co303 2.121 . S
N306 C308 1.375 . S
N306 C309 1.313 . S
C307 C308 1.338 . S
C307 N310 1.377 . S
C307 H327 0.930 . S
C308 N306 1.375 . S
C308 C307 1.338 . S
C308 H312 0.931 . S
C309 N306 1.313 . S
C309 N310 1.344 . S
C309 H313 0.930 . S
N310 C307 1.377 . S
N310 C309 1.344 . S
O311 Co303 2.055 . S
O311 C315 1.253 . S
H312 C308 0.931 . S
H313 C309 0.930 . S
O314 Co303 2.039 . S
O314 C304 1.265 . S
C315 O311 1.253 . S
C315 O316 1.227 . S
O316 C315 1.227 . S
N317 Co303 2.140 . S
N317 C320 1.346 . S
N317 C321 1.345 . S
C318 C319 1.387 . S
C318 C322 1.391 . S
C319 C318 1.387 . S
C319 C320 1.369 . S
C319 H328 0.929 . S
C320 N317 1.346 . S
C320 C319 1.369 . S
C320 H323 0.928 . S
C321 N317 1.345 . S
C321 C322 1.371 . S
C321 H324 0.931 . S
C322 C318 1.391 . S
C322 C321 1.371 . S
C322 H329 0.930 . S
H323 C320 0.928 . S
H324 C321 0.931 . S
H325 C301 0.930 . S
H326 C298 0.930 . S
H327 C307 0.930 . S
H328 C319 0.929 . S
H329 C322 0.930 . S
C330 C331 1.351 . S
C330 N333 1.368 . S
C330 H335 0.931 . S
C331 C330 1.351 . S
C331 N332 1.373 . S
C331 H359 0.930 . S
N332 C331 1.373 . S
N332 C334 1.340 . S
N333 C330 1.368 . S
N333 C334 1.321 . S
N333 Co336 2.135 . S
C334 N332 1.340 . S
C334 N333 1.321 . S
C334 H358 0.930 . S
H335 C330 0.931 . S
Co336 N333 2.135 . S
Co336 N339 2.121 . S
Co336 O344 2.055 . S
Co336 O347 2.039 1_455 S
Co336 N350 2.140 . S
C337 O338 1.227 1_655 S
C337 O347 1.265 . S
O338 C337 1.227 1_455 S
N339 Co336 2.121 . S
N339 C341 1.375 . S
N339 C342 1.313 . S
C340 C341 1.338 . S
C340 N343 1.377 . S
C340 H360 0.930 . S
C341 N339 1.375 . S
C341 C340 1.338 . S
C341 H345 0.931 . S
C342 N339 1.313 . S
C342 N343 1.344 . S
C342 H346 0.930 . S
N343 C340 1.377 . S
N343 C342 1.344 . S
O344 Co336 2.055 . S
O344 C348 1.253 . S
H345 C341 0.931 . S
H346 C342 0.930 . S
O347 Co336 2.039 1_655 S
O347 C337 1.265 . S
C348 O344 1.253 . S
C348 O349 1.227 . S
O349 C348 1.227 . S
N350 Co336 2.140 . S
N350 C353 1.346 . S
N350 C354 1.345 . S
C351 C352 1.387 . S
C351 C355 1.391 . S
C352 C351 1.387 . S
C352 C353 1.369 . S
C352 H361 0.929 . S
C353 N350 1.346 . S
C353 C352 1.369 . S
C353 H356 0.928 . S
C354 N350 1.345 . S
C354 C355 1.371 . S
C354 H357 0.931 . S
C355 C351 1.391 . S
C355 C354 1.371 . S
C355 H362 0.930 . S
H356 C353 0.928 . S
H357 C354 0.931 . S
H358 C334 0.930 . S
H359 C331 0.930 . S
H360 C340 0.930 . S
H361 C352 0.929 . S
H362 C355 0.930 . S
C363 C364 1.351 . S
C363 N366 1.368 . S
C363 H368 0.931 . S
C364 C363 1.351 . S
C364 N365 1.373 . S
C364 H392 0.930 . S
N365 C364 1.373 . S
N365 C367 1.340 . S
N366 C363 1.368 . S
N366 C367 1.321 . S
N366 Co369 2.135 . S
C367 N365 1.340 . S
C367 N366 1.321 . S
C367 H391 0.930 . S
H368 C363 0.931 . S
Co369 N366 2.135 . S
Co369 N372 2.121 . S
Co369 O377 2.055 . S
Co369 O380 2.039 1_545 S
Co369 N383 2.140 . S
C370 O371 1.227 1_565 S
C370 O380 1.265 . S
O371 C370 1.227 1_545 S
N372 Co369 2.121 . S
N372 C374 1.375 . S
N372 C375 1.313 . S
C373 C374 1.338 . S
C373 N376 1.377 . S
C373 H393 0.930 . S
C374 N372 1.375 . S
C374 C373 1.338 . S
C374 H378 0.931 . S
C375 N372 1.313 . S
C375 N376 1.344 . S
C375 H379 0.930 . S
N376 C373 1.377 . S
N376 C375 1.344 . S
O377 Co369 2.055 . S
O377 C381 1.253 . S
H378 C374 0.931 . S
H379 C375 0.930 . S
O380 Co369 2.039 1_565 S
O380 C370 1.265 . S
C381 O377 1.253 . S
C381 O382 1.227 . S
O382 C381 1.227 . S
N383 Co369 2.140 . S
N383 C386 1.346 . S
N383 C387 1.345 . S
C384 C385 1.387 . S
C384 C388 1.391 . S
C385 C384 1.387 . S
C385 C386 1.369 . S
C385 H394 0.929 . S
C386 N383 1.346 . S
C386 C385 1.369 . S
C386 H389 0.928 . S
C387 N383 1.345 . S
C387 C388 1.371 . S
C387 H390 0.931 . S
C388 C384 1.391 . S
C388 C387 1.371 . S
C388 H395 0.930 . S
H389 C386 0.928 . S
H390 C387 0.931 . S
H391 C367 0.930 . S
H392 C364 0.930 . S
H393 C373 0.930 . S
H394 C385 0.929 . S
H395 C388 0.930 . S
H396 C408 0.930 . S
H397 C410 0.930 . S
H398 C411 0.930 . S
H399 C415 0.959 . S
H400 C415 0.959 . S
H401 C415 0.961 . S
H402 C416 0.960 . S
H403 C416 0.961 . S
H404 C416 0.959 . S
H405 C419 0.929 . S
H406 C420 0.931 . S
H407 C422 0.930 . S
C408 H396 0.930 . S
C408 C409 1.399 . S
C408 C413 1.399 . S
C409 C408 1.399 . S
C409 C410 1.376 . S
C410 H397 0.930 . S
C410 C409 1.376 . S
C410 C411 1.388 . S
C411 H398 0.930 . S
C411 C410 1.388 . S
C411 C412 1.390 . S
C412 C411 1.390 . S
C412 C413 1.394 . S
C412 C418 1.465 . S
C413 C408 1.399 . S
C413 C412 1.394 . S
C413 C414 1.516 . S
C414 C413 1.516 . S
C414 C415 1.502 . S
C414 C416 1.561 . S
C414 C417 1.526 . S
C415 H399 0.959 . S
C415 H400 0.959 . S
C415 H401 0.961 . S
C415 C414 1.502 . S
C416 H402 0.960 . S
C416 H403 0.961 . S
C416 H404 0.959 . S
C416 C414 1.561 . S
C417 C414 1.526 . S
C417 C418 1.396 . S
C417 C422 1.390 . S
C418 C412 1.465 . S
C418 C417 1.396 . S
C418 C419 1.399 . S
C419 H405 0.929 . S
C419 C418 1.399 . S
C419 C420 1.385 . S
C420 H406 0.931 . S
C420 C419 1.385 . S
C420 C421 1.389 . S
C421 C420 1.389 . S
C421 C422 1.387 . S
C422 H407 0.930 . S
C422 C417 1.390 . S
C422 C421 1.387 . S
H423 C435 0.930 . S
H424 C437 0.930 . S
H425 C438 0.930 1_655 S
H426 C442 0.959 . S
H427 C442 0.959 . S
H428 C442 0.961 . S
H429 C443 0.960 . S
H430 C443 0.961 . S
H431 C443 0.959 . S
H432 C446 0.929 . S
H433 C447 0.931 . S
H434 C449 0.930 . S
C435 H423 0.930 . S
C435 C436 1.399 . S
C435 C440 1.399 . S
C436 C435 1.399 . S
C436 C437 1.376 . S
C437 H424 0.930 . S
C437 C436 1.376 . S
C437 C438 1.388 . S
C438 H425 0.930 1_455 S
C438 C437 1.388 . S
C438 C439 1.390 . S
C439 C438 1.390 . S
C439 C440 1.394 . S
C439 C445 1.465 1_455 S
C440 C435 1.399 . S
C440 C439 1.394 . S
C440 C441 1.516 . S
C441 C440 1.516 . S
C441 C442 1.502 . S
C441 C443 1.561 1_455 S
C441 C444 1.526 1_455 S
C442 H426 0.959 . S
C442 H427 0.959 . S
C442 H428 0.961 . S
C442 C441 1.502 . S
C443 H429 0.960 . S
C443 H430 0.961 . S
C443 H431 0.959 . S
C443 C441 1.561 1_655 S
C444 C441 1.526 1_655 S
C444 C445 1.396 . S
C444 C449 1.390 . S
C445 C439 1.465 1_655 S
C445 C444 1.396 . S
C445 C446 1.399 . S
C446 H432 0.929 . S
C446 C445 1.399 . S
C446 C447 1.385 . S
C447 H433 0.931 . S
C447 C446 1.385 . S
C447 C448 1.389 . S
C448 C447 1.389 . S
C448 C449 1.387 . S
C449 H434 0.930 . S
C449 C444 1.390 . S
C449 C448 1.387 . S
H450 C462 0.930 . S
H451 C464 0.930 . S
H452 C465 0.930 1_565 S
H453 C469 0.959 . S
H454 C469 0.959 . S
H455 C469 0.961 . S
H456 C470 0.960 . S
H457 C470 0.961 . S
H458 C470 0.959 . S
H459 C473 0.929 . S
H460 C474 0.931 . S
H461 C476 0.930 . S
C462 H450 0.930 . S
C462 C463 1.399 . S
C462 C467 1.399 . S
C463 C462 1.399 . S
C463 C464 1.376 . S
C464 H451 0.930 . S
C464 C463 1.376 . S
C464 C465 1.388 . S
C465 H452 0.930 1_545 S
C465 C464 1.388 . S
C465 C466 1.390 . S
C466 C465 1.390 . S
C466 C467 1.394 . S
C466 C472 1.465 1_545 S
C467 C462 1.399 . S
C467 C466 1.394 . S
C467 C468 1.516 . S
C468 C467 1.516 . S
C468 C469 1.502 . S
C468 C470 1.561 1_545 S
C468 C471 1.526 1_545 S
C469 H453 0.959 . S
C469 H454 0.959 . S
C469 H455 0.961 . S
C469 C468 1.502 . S
C470 H456 0.960 . S
C470 H457 0.961 . S
C470 H458 0.959 . S
C470 C468 1.561 1_565 S
C471 C468 1.526 1_565 S
C471 C472 1.396 . S
C471 C476 1.390 . S
C472 C466 1.465 1_565 S
C472 C471 1.396 . S
C472 C473 1.399 . S
C473 H459 0.929 . S
C473 C472 1.399 . S
C473 C474 1.385 . S
C474 H460 0.931 . S
C474 C473 1.385 . S
C474 C475 1.389 . S
C475 C474 1.389 . S
C475 C476 1.387 . S
C476 H461 0.930 . S
C476 C471 1.390 . S
C476 C475 1.387 . S
H477 C489 0.930 . S
H478 C491 0.930 . S
H479 C492 0.930 . S
H480 C496 0.959 . S
H481 C496 0.959 . S
H482 C496 0.961 . S
H483 C497 0.960 . S
H484 C497 0.961 . S
H485 C497 0.959 . S
H486 C500 0.929 . S
H487 C501 0.931 . S
H488 C503 0.930 . S
C489 H477 0.930 . S
C489 C490 1.399 . S
C489 C494 1.399 . S
C490 C489 1.399 . S
C490 C491 1.376 . S
C491 H478 0.930 . S
C491 C490 1.376 . S
C491 C492 1.388 . S
C492 H479 0.930 . S
C492 C491 1.388 . S
C492 C493 1.390 . S
C493 C492 1.390 . S
C493 C494 1.394 . S
C493 C499 1.465 . S
C494 C489 1.399 . S
C494 C493 1.394 . S
C494 C495 1.516 . S
C495 C494 1.516 . S
C495 C496 1.502 . S
C495 C497 1.561 . S
C495 C498 1.526 . S
C496 H480 0.959 . S
C496 H481 0.959 . S
C496 H482 0.961 . S
C496 C495 1.502 . S
C497 H483 0.960 . S
C497 H484 0.961 . S
C497 H485 0.959 . S
C497 C495 1.561 . S
C498 C495 1.526 . S
C498 C499 1.396 . S
C498 C503 1.390 . S
C499 C493 1.465 . S
C499 C498 1.396 . S
C499 C500 1.399 . S
C500 H486 0.929 . S
C500 C499 1.399 . S
C500 C501 1.385 . S
C501 H487 0.931 . S
C501 C500 1.385 . S
C501 C502 1.389 . S
C502 C501 1.389 . S
C502 C503 1.387 . S
C503 H488 0.930 . S
C503 C498 1.390 . S
C503 C502 1.387 . S
H504 C516 0.930 . S
H505 C518 0.930 . S
H506 C519 0.930 . S
H507 C523 0.959 . S
H508 C523 0.959 . S
H509 C523 0.961 . S
H510 C524 0.960 . S
H511 C524 0.961 . S
H512 C524 0.959 . S
H513 C527 0.929 1_655 S
H514 C528 0.931 . S
H515 C530 0.930 . S
C516 H504 0.930 . S
C516 C517 1.399 . S
C516 C521 1.399 . S
C517 C516 1.399 . S
C517 C518 1.376 . S
C518 H505 0.930 . S
C518 C517 1.376 . S
C518 C519 1.388 . S
C519 H506 0.930 . S
C519 C518 1.388 . S
C519 C520 1.390 . S
C520 C519 1.390 . S
C520 C521 1.394 . S
C520 C526 1.465 1_655 S
C521 C516 1.399 . S
C521 C520 1.394 . S
C521 C522 1.516 1_655 S
C522 C521 1.516 1_455 S
C522 C523 1.502 . S
C522 C524 1.561 1_455 S
C522 C525 1.526 . S
C523 H507 0.959 . S
C523 H508 0.959 . S
C523 H509 0.961 . S
C523 C522 1.502 . S
C524 H510 0.960 . S
C524 H511 0.961 . S
C524 H512 0.959 . S
C524 C522 1.561 1_655 S
C525 C522 1.526 . S
C525 C526 1.396 . S
C525 C530 1.390 . S
C526 C520 1.465 1_455 S
C526 C525 1.396 . S
C526 C527 1.399 . S
C527 H513 0.929 1_455 S
C527 C526 1.399 . S
C527 C528 1.385 . S
C528 H514 0.931 . S
C528 C527 1.385 . S
C528 C529 1.389 . S
C529 C528 1.389 . S
C529 C530 1.387 . S
C530 H515 0.930 . S
C530 C525 1.390 . S
C530 C529 1.387 . S
H531 C543 0.930 . S
H532 C545 0.930 . S
H533 C546 0.930 1_545 S
H534 C550 0.959 . S
H535 C550 0.959 . S
H536 C550 0.961 . S
H537 C551 0.960 . S
H538 C551 0.961 . S
H539 C551 0.959 . S
H540 C554 0.929 . S
H541 C555 0.931 . S
H542 C557 0.930 . S
C543 H531 0.930 . S
C543 C544 1.399 . S
C543 C548 1.399 . S
C544 C543 1.399 . S
C544 C545 1.376 . S
C545 H532 0.930 . S
C545 C544 1.376 . S
C545 C546 1.388 . S
C546 H533 0.930 1_565 S
C546 C545 1.388 . S
C546 C547 1.390 . S
C547 C546 1.390 . S
C547 C548 1.394 . S
C547 C553 1.465 1_565 S
C548 C543 1.399 . S
C548 C547 1.394 . S
C548 C549 1.516 . S
C549 C548 1.516 . S
C549 C550 1.502 . S
C549 C551 1.561 1_565 S
C549 C552 1.526 1_565 S
C550 H534 0.959 . S
C550 H535 0.959 . S
C550 H536 0.961 . S
C550 C549 1.502 . S
C551 H537 0.960 . S
C551 H538 0.961 . S
C551 H539 0.959 . S
C551 C549 1.561 1_545 S
C552 C549 1.526 1_545 S
C552 C553 1.396 . S
C552 C557 1.390 . S
C553 C547 1.465 1_545 S
C553 C552 1.396 . S
C553 C554 1.399 . S
C554 H540 0.929 . S
C554 C553 1.399 . S
C554 C555 1.385 . S
C555 H541 0.931 . S
C555 C554 1.385 . S
C555 C556 1.389 . S
C556 C555 1.389 . S
C556 C557 1.387 . S
C557 H542 0.930 . S
C557 C552 1.390 . S
C557 C556 1.387 . S
H558 C570 0.930 . S
H559 C572 0.930 . S
H560 C573 0.930 . S
H561 C577 0.959 . S
H562 C577 0.959 . S
H563 C577 0.961 . S
H564 C578 0.960 . S
H565 C578 0.961 . S
H566 C578 0.959 . S
H567 C581 0.929 . S
H568 C582 0.931 . S
H569 C584 0.930 . S
C570 H558 0.930 . S
C570 C571 1.399 . S
C570 C575 1.399 . S
C571 C570 1.399 . S
C571 C572 1.376 . S
C572 H559 0.930 . S
C572 C571 1.376 . S
C572 C573 1.388 . S
C573 H560 0.930 . S
C573 C572 1.388 . S
C573 C574 1.390 . S
C574 C573 1.390 . S
C574 C575 1.394 . S
C574 C580 1.465 . S
C575 C570 1.399 . S
C575 C574 1.394 . S
C575 C576 1.516 . S
C576 C575 1.516 . S
C576 C577 1.502 . S
C576 C578 1.561 . S
C576 C579 1.526 . S
C577 H561 0.959 . S
C577 H562 0.959 . S
C577 H563 0.961 . S
C577 C576 1.502 . S
C578 H564 0.960 . S
C578 H565 0.961 . S
C578 H566 0.959 . S
C578 C576 1.561 . S
C579 C576 1.526 . S
C579 C580 1.396 . S
C579 C584 1.390 . S
C580 C574 1.465 . S
C580 C579 1.396 . S
C580 C581 1.399 . S
C581 H567 0.929 . S
C581 C580 1.399 . S
C581 C582 1.385 . S
C582 H568 0.931 . S
C582 C581 1.385 . S
C582 C583 1.389 . S
C583 C582 1.389 . S
C583 C584 1.387 . S
C584 H569 0.930 . S
C584 C579 1.390 . S
C584 C583 1.387 . S
H585 C597 0.930 1_455 S
H586 C599 0.930 . S
H587 C600 0.930 . S
H588 C604 0.959 . S
H589 C604 0.959 . S
H590 C604 0.961 . S
H591 C605 0.960 . S
H592 C605 0.961 . S
H593 C605 0.959 1_655 S
H594 C608 0.929 . S
H595 C609 0.931 1_655 S
H596 C611 0.930 . S
C597 H585 0.930 1_655 S
C597 C598 1.399 . S
C597 C602 1.399 . S
C598 C597 1.399 . S
C598 C599 1.376 . S
C599 H586 0.930 . S
C599 C598 1.376 . S
C599 C600 1.388 . S
C600 H587 0.930 . S
C600 C599 1.388 . S
C600 C601 1.390 . S
C601 C600 1.390 . S
C601 C602 1.394 . S
C601 C607 1.465 . S
C602 C597 1.399 . S
C602 C601 1.394 . S
C602 C603 1.516 1_655 S
C603 C602 1.516 1_455 S
C603 C604 1.502 . S
C603 C605 1.561 . S
C603 C606 1.526 . S
C604 H588 0.959 . S
C604 H589 0.959 . S
C604 H590 0.961 . S
C604 C603 1.502 . S
C605 H591 0.960 . S
C605 H592 0.961 . S
C605 H593 0.959 1_455 S
C605 C603 1.561 . S
C606 C603 1.526 . S
C606 C607 1.396 1_455 S
C606 C611 1.390 . S
C607 C601 1.465 . S
C607 C606 1.396 1_655 S
C607 C608 1.399 . S
C608 H594 0.929 . S
C608 C607 1.399 . S
C608 C609 1.385 1_655 S
C609 H595 0.931 1_455 S
C609 C608 1.385 1_455 S
C609 C610 1.389 . S
C610 C609 1.389 . S
C610 C611 1.387 . S
C611 H596 0.930 . S
C611 C606 1.390 . S
C611 C610 1.387 . S
H612 C624 0.930 1_565 S
H613 C626 0.930 . S
H614 C627 0.930 . S
H615 C631 0.959 . S
H616 C631 0.959 . S
H617 C631 0.961 . S
H618 C632 0.960 . S
H619 C632 0.961 . S
H620 C632 0.959 . S
H621 C635 0.929 . S
H622 C636 0.931 . S
H623 C638 0.930 . S
C624 H612 0.930 1_545 S
C624 C625 1.399 . S
C624 C629 1.399 1_545 S
C625 C624 1.399 . S
C625 C626 1.376 . S
C626 H613 0.930 . S
C626 C625 1.376 . S
C626 C627 1.388 . S
C627 H614 0.930 . S
C627 C626 1.388 . S
C627 C628 1.390 . S
C628 C627 1.390 . S
C628 C629 1.394 1_545 S
C628 C634 1.465 1_554 S
C629 C624 1.399 1_565 S
C629 C628 1.394 1_565 S
C629 C630 1.516 . S
C630 C629 1.516 . S
C630 C631 1.502 . S
C630 C632 1.561 . S
C630 C633 1.526 1_554 S
C631 H615 0.959 . S
C631 H616 0.959 . S
C631 H617 0.961 . S
C631 C630 1.502 . S
C632 H618 0.960 . S
C632 H619 0.961 . S
C632 H620 0.959 . S
C632 C630 1.561 . S
C633 C630 1.526 1_556 S
C633 C634 1.396 1_565 S
C633 C638 1.390 . S
C634 C628 1.465 1_556 S
C634 C633 1.396 1_545 S
C634 C635 1.399 . S
C635 H621 0.929 . S
C635 C634 1.399 . S
C635 C636 1.385 . S
C636 H622 0.931 . S
C636 C635 1.385 . S
C636 C637 1.389 1_545 S
C637 C636 1.389 1_565 S
C637 C638 1.387 . S
C638 H623 0.930 . S
C638 C633 1.390 . S
C638 C637 1.387 . S
H639 C651 0.930 . S
H640 C653 0.930 . S
H641 C654 0.930 . S
H642 C658 0.959 . S
H643 C658 0.959 . S
H644 C658 0.961 . S
H645 C659 0.960 . S
H646 C659 0.961 . S
H647 C659 0.959 . S
H648 C662 0.929 . S
H649 C663 0.931 . S
H650 C665 0.930 . S
C651 H639 0.930 . S
C651 C652 1.399 . S
C651 C656 1.399 . S
C652 C651 1.399 . S
C652 C653 1.376 . S
C653 H640 0.930 . S
C653 C652 1.376 . S
C653 C654 1.388 . S
C654 H641 0.930 . S
C654 C653 1.388 . S
C654 C655 1.390 . S
C655 C654 1.390 . S
C655 C656 1.394 . S
C655 C661 1.465 . S
C656 C651 1.399 . S
C656 C655 1.394 . S
C656 C657 1.516 . S
C657 C656 1.516 . S
C657 C658 1.502 . S
C657 C659 1.561 . S
C657 C660 1.526 . S
C658 H642 0.959 . S
C658 H643 0.959 . S
C658 H644 0.961 . S
C658 C657 1.502 . S
C659 H645 0.960 . S
C659 H646 0.961 . S
C659 H647 0.959 . S
C659 C657 1.561 . S
C660 C657 1.526 . S
C660 C661 1.396 . S
C660 C665 1.390 . S
C661 C655 1.465 . S
C661 C660 1.396 . S
C661 C662 1.399 . S
C662 H648 0.929 . S
C662 C661 1.399 . S
C662 C663 1.385 . S
C663 H649 0.931 . S
C663 C662 1.385 . S
C663 C664 1.389 . S
C664 C663 1.389 . S
C664 C665 1.387 . S
C665 H650 0.930 . S
C665 C660 1.390 . S
C665 C664 1.387 . S
H666 C678 0.930 . S
H667 C680 0.930 1_655 S
H668 C681 0.930 . S
H669 C685 0.959 . S
H670 C685 0.959 . S
H671 C685 0.961 . S
H672 C686 0.960 . S
H673 C686 0.961 . S
H674 C686 0.959 1_655 S
H675 C689 0.929 . S
H676 C690 0.931 . S
H677 C692 0.930 . S
C678 H666 0.930 . S
C678 C679 1.399 . S
C678 C683 1.399 . S
C679 C678 1.399 . S
C679 C680 1.376 . S
C680 H667 0.930 1_455 S
C680 C679 1.376 . S
C680 C681 1.388 1_455 S
C681 H668 0.930 . S
C681 C680 1.388 1_655 S
C681 C682 1.390 . S
C682 C681 1.390 . S
C682 C683 1.394 1_655 S
C682 C688 1.465 . S
C683 C678 1.399 . S
C683 C682 1.394 1_455 S
C683 C684 1.516 . S
C684 C683 1.516 . S
C684 C685 1.502 . S
C684 C686 1.561 . S
C684 C687 1.526 1_455 S
C685 H669 0.959 . S
C685 H670 0.959 . S
C685 H671 0.961 . S
C685 C684 1.502 . S
C686 H672 0.960 . S
C686 H673 0.961 . S
C686 H674 0.959 1_455 S
C686 C684 1.561 . S
C687 C684 1.526 1_655 S
C687 C688 1.396 . S
C687 C692 1.390 . S
C688 C682 1.465 . S
C688 C687 1.396 . S
C688 C689 1.399 . S
C689 H675 0.929 . S
C689 C688 1.399 . S
C689 C690 1.385 . S
C690 H676 0.931 . S
C690 C689 1.385 . S
C690 C691 1.389 . S
C691 C690 1.389 . S
C691 C692 1.387 . S
C692 H677 0.930 . S
C692 C687 1.390 . S
C692 C691 1.387 . S
H693 C705 0.930 1_565 S
H694 C707 0.930 . S
H695 C708 0.930 . S
H696 C712 0.959 . S
H697 C712 0.959 . S
H698 C712 0.961 . S
H699 C713 0.960 . S
H700 C713 0.961 . S
H701 C713 0.959 . S
H702 C716 0.929 . S
H703 C717 0.931 . S
H704 C719 0.930 . S
C705 H693 0.930 1_545 S
C705 C706 1.399 . S
C705 C710 1.399 1_545 S
C706 C705 1.399 . S
C706 C707 1.376 . S
C707 H694 0.930 . S
C707 C706 1.376 . S
C707 C708 1.388 . S
C708 H695 0.930 . S
C708 C707 1.388 . S
C708 C709 1.390 . S
C709 C708 1.390 . S
C709 C710 1.394 1_545 S
C709 C715 1.465 1_556 S
C710 C705 1.399 1_565 S
C710 C709 1.394 1_565 S
C710 C711 1.516 . S
C711 C710 1.516 . S
C711 C712 1.502 . S
C711 C713 1.561 . S
C711 C714 1.526 1_556 S
C712 H696 0.959 . S
C712 H697 0.959 . S
C712 H698 0.961 . S
C712 C711 1.502 . S
C713 H699 0.960 . S
C713 H700 0.961 . S
C713 H701 0.959 . S
C713 C711 1.561 . S
C714 C711 1.526 1_554 S
C714 C715 1.396 1_565 S
C714 C719 1.390 . S
C715 C709 1.465 1_554 S
C715 C714 1.396 1_545 S
C715 C716 1.399 . S
C716 H702 0.929 . S
C716 C715 1.399 . S
C716 C717 1.385 . S
C717 H703 0.931 . S
C717 C716 1.385 . S
C717 C718 1.389 1_545 S
C718 C717 1.389 1_565 S
C718 C719 1.387 . S
C719 H704 0.930 . S
C719 C714 1.390 . S
C719 C718 1.387 . S
H720 C732 0.930 . S
H721 C734 0.930 . S
H722 C735 0.930 . S
H723 C739 0.959 . S
H724 C739 0.959 . S
H725 C739 0.961 1_545 S
H726 C740 0.960 1_455 S
H727 C740 0.961 1_565 S
H728 C740 0.959 . S
H729 C743 0.929 . S
H730 C744 0.931 . S
H731 C746 0.930 . S
C732 H720 0.930 . S
C732 C733 1.399 . S
C732 C737 1.399 . S
C733 C732 1.399 . S
C733 C734 1.376 . S
C734 H721 0.930 . S
C734 C733 1.376 . S
C734 C735 1.388 . S
C735 H722 0.930 . S
C735 C734 1.388 . S
C735 C736 1.390 . S
C736 C735 1.390 . S
C736 C737 1.394 . S
C736 C742 1.465 1_445 S
C737 C732 1.399 . S
C737 C736 1.394 . S
C737 C738 1.516 1_545 S
C738 C737 1.516 1_565 S
C738 C739 1.502 . S
C738 C740 1.561 1_465 S
C738 C741 1.526 1_455 S
C739 H723 0.959 . S
C739 H724 0.959 . S
C739 H725 0.961 1_565 S
C739 C738 1.502 . S
C740 H726 0.960 1_655 S
C740 H727 0.961 1_545 S
C740 H728 0.959 . S
C740 C738 1.561 1_645 S
C741 C738 1.526 1_655 S
C741 C742 1.396 . S
C741 C746 1.390 . S
C742 C736 1.465 1_665 S
C742 C741 1.396 . S
C742 C743 1.399 . S
C743 H729 0.929 . S
C743 C742 1.399 . S
C743 C744 1.385 . S
C744 H730 0.931 . S
C744 C743 1.385 . S
C744 C745 1.389 . S
C745 C744 1.389 . S
C745 C746 1.387 . S
C746 H731 0.930 . S
C746 C741 1.390 . S
C746 C745 1.387 . S
H747 C759 0.930 . S
H748 C761 0.930 . S
H749 C762 0.930 . S
H750 C766 0.959 . S
H751 C766 0.959 . S
H752 C766 0.961 . S
H753 C767 0.960 . S
H754 C767 0.961 . S
H755 C767 0.959 . S
H756 C770 0.929 1_655 S
H757 C771 0.931 . S
H758 C773 0.930 . S
C759 H747 0.930 . S
C759 C760 1.399 . S
C759 C764 1.399 . S
C760 C759 1.399 . S
C760 C761 1.376 . S
C761 H748 0.930 . S
C761 C760 1.376 . S
C761 C762 1.388 . S
C762 H749 0.930 . S
C762 C761 1.388 . S
C762 C763 1.390 . S
C763 C762 1.390 . S
C763 C764 1.394 . S
C763 C769 1.462 1_645 S
C764 C759 1.399 . S
C764 C763 1.394 . S
C764 C765 1.516 1_655 S
C765 C764 1.516 1_455 S
C765 C766 1.502 . S
C765 C767 1.561 1_445 S
C765 C768 1.526 1_545 S
C766 H750 0.959 . S
C766 H751 0.959 . S
C766 H752 0.961 . S
C766 C765 1.502 . S
C767 H753 0.960 . S
C767 H754 0.961 . S
C767 H755 0.959 . S
C767 C765 1.561 1_665 S
C768 C765 1.526 1_565 S
C768 C769 1.397 . S
C768 C773 1.390 . S
C769 C763 1.462 1_465 S
C769 C768 1.397 . S
C769 C770 1.400 . S
C770 H756 0.929 1_455 S
C770 C769 1.400 . S
C770 C771 1.385 . S
C771 H757 0.931 . S
C771 C770 1.385 . S
C771 C772 1.389 . S
C772 C771 1.389 . S
C772 C773 1.387 . S
C773 H758 0.930 . S
C773 C768 1.390 . S
C773 C772 1.387 . S
H774 C786 0.930 . S
H775 C788 0.930 . S
H776 C789 0.930 . S
H777 C793 0.959 . S
H778 C793 0.959 1_655 S
H779 C793 0.961 . S
H780 C794 0.960 1_455 S
H781 C794 0.961 . S
H782 C794 0.959 . S
H783 C797 0.929 . S
H784 C798 0.931 . S
H785 C800 0.930 . S
C786 H774 0.930 . S
C786 C787 1.399 . S
C786 C791 1.399 . S
C787 C786 1.399 . S
C787 C788 1.376 . S
C788 H775 0.930 . S
C788 C787 1.376 . S
C788 C789 1.388 1_545 S
C789 H776 0.930 . S
C789 C788 1.388 1_565 S
C789 C790 1.390 . S
C790 C789 1.390 . S
C790 C791 1.394 1_565 S
C790 C796 1.465 1_455 S
C791 C786 1.399 . S
C791 C790 1.394 1_545 S
C791 C792 1.516 . S
C792 C791 1.516 . S
C792 C793 1.502 . S
C792 C794 1.561 1_445 S
C792 C795 1.526 1_445 S
C793 H777 0.959 . S
C793 H778 0.959 1_455 S
C793 H779 0.961 . S
C793 C792 1.502 . S
C794 H780 0.960 1_655 S
C794 H781 0.961 . S
C794 H782 0.959 . S
C794 C792 1.561 1_665 S
C795 C792 1.526 1_665 S
C795 C796 1.396 . S
C795 C800 1.390 . S
C796 C790 1.465 1_655 S
C796 C795 1.396 . S
C796 C797 1.399 . S
C797 H783 0.929 . S
C797 C796 1.399 . S
C797 C798 1.385 . S
C798 H784 0.931 . S
C798 C797 1.385 . S
C798 C799 1.389 . S
C799 C798 1.389 . S
C799 C800 1.387 . S
C800 H785 0.930 . S
C800 C795 1.390 . S
C800 C799 1.387 . S
H801 C813 0.930 . S
H802 C815 0.930 . S
H803 C816 0.930 . S
H804 C820 0.959 . S
H805 C820 0.959 1_455 S
H806 C820 0.961 . S
H807 C821 0.960 1_655 S
H808 C821 0.961 1_545 S
H809 C821 0.959 . S
H810 C824 0.929 1_565 S
H811 C825 0.931 . S
H812 C827 0.930 . S
C813 H801 0.930 . S
C813 C814 1.399 . S
C813 C818 1.399 . S
C814 C813 1.399 . S
C814 C815 1.376 . S
C815 H802 0.930 . S
C815 C814 1.376 . S
C815 C816 1.388 . S
C816 H803 0.930 . S
C816 C815 1.388 . S
C816 C817 1.390 . S
C817 C816 1.390 . S
C817 C818 1.394 . S
C817 C823 1.465 1_665 S
C818 C813 1.399 . S
C818 C817 1.394 . S
C818 C819 1.516 1_565 S
C819 C818 1.516 1_545 S
C819 C820 1.502 . S
C819 C821 1.561 1_645 S
C819 C822 1.526 1_655 S
C820 H804 0.959 . S
C820 H805 0.959 1_655 S
C820 H806 0.961 . S
C820 C819 1.502 . S
C821 H807 0.960 1_455 S
C821 H808 0.961 1_565 S
C821 H809 0.959 . S
C821 C819 1.561 1_465 S
C822 C819 1.526 1_455 S
C822 C823 1.396 . S
C822 C827 1.390 . S
C823 C817 1.465 1_445 S
C823 C822 1.396 . S
C823 C824 1.399 . S
C824 H810 0.929 1_545 S
C824 C823 1.399 . S
C824 C825 1.385 . S
C825 H811 0.931 . S
C825 C824 1.385 . S
C825 C826 1.389 . S
C826 C825 1.389 . S
C826 C827 1.387 . S
C827 H812 0.930 . S
C827 C822 1.390 . S
C827 C826 1.387 . S
H828 C840 0.930 . S
H829 C842 0.930 . S
H830 C843 0.930 . S
H831 C847 0.959 . S
H832 C847 0.959 1_545 S
H833 C847 0.961 . S
H834 C848 0.960 1_565 S
H835 C848 0.961 . S
H836 C848 0.959 . S
H837 C851 0.929 . S
H838 C852 0.931 . S
H839 C854 0.930 . S
C840 H828 0.930 . S
C840 C841 1.399 . S
C840 C845 1.399 . S
C841 C840 1.399 . S
C841 C842 1.376 . S
C842 H829 0.930 . S
C842 C841 1.376 . S
C842 C843 1.388 1_655 S
C843 H830 0.930 . S
C843 C842 1.388 1_455 S
C843 C844 1.390 . S
C844 C843 1.390 . S
C844 C845 1.394 1_455 S
C844 C850 1.465 1_565 S
C845 C840 1.399 . S
C845 C844 1.394 1_655 S
C845 C846 1.516 . S
C846 C845 1.516 . S
C846 C847 1.502 . S
C846 C848 1.561 1_665 S
C846 C849 1.526 1_665 S
C847 H831 0.959 . S
C847 H832 0.959 1_565 S
C847 H833 0.961 . S
C847 C846 1.502 . S
C848 H834 0.960 1_545 S
C848 H835 0.961 . S
C848 H836 0.959 . S
C848 C846 1.561 1_445 S
C849 C846 1.526 1_445 S
C849 C850 1.396 . S
C849 C854 1.390 . S
C850 C844 1.465 1_545 S
C850 C849 1.396 . S
C850 C851 1.399 . S
C851 H837 0.929 . S
C851 C850 1.399 . S
C851 C852 1.385 . S
C852 H838 0.931 . S
C852 C851 1.385 . S
C852 C853 1.389 . S
C853 C852 1.389 . S
C853 C854 1.387 . S
C854 H839 0.930 . S
C854 C849 1.390 . S
C854 C853 1.387 . S
H855 C867 0.930 . S
H856 C869 0.930 . S
H857 C870 0.930 1_565 S
H858 C874 0.959 . S
H859 C874 0.959 . S
H860 C874 0.961 . S
H861 C875 0.960 . S
H862 C875 0.961 . S
H863 C875 0.959 . S
H864 C878 0.929 . S
H865 C879 0.931 . S
H866 C881 0.930 . S
C867 H855 0.930 . S
C867 C868 1.399 . S
C867 C872 1.399 . S
C868 C867 1.399 . S
C868 C869 1.376 . S
C869 H856 0.930 . S
C869 C868 1.376 . S
C869 C870 1.388 . S
C870 H857 0.930 1_545 S
C870 C869 1.388 . S
C870 C871 1.386 1_545 S
C871 C870 1.386 1_565 S
C871 C872 1.390 1_565 S
C871 C877 1.472 1_655 S
C872 C867 1.399 . S
C872 C871 1.390 1_545 S
C872 C873 1.516 1_655 S
C873 C872 1.516 1_455 S
C873 C874 1.502 . S
C873 C875 1.561 1_445 S
C873 C876 1.526 1_545 S
C874 H858 0.959 . S
C874 H859 0.959 . S
C874 H860 0.961 . S
C874 C873 1.502 . S
C875 H861 0.960 . S
C875 H862 0.961 . S
C875 H863 0.959 . S
C875 C873 1.561 1_665 S
C876 C873 1.526 1_565 S
C876 C877 1.396 . S
C876 C881 1.390 . S
C877 C871 1.472 1_455 S
C877 C876 1.396 . S
C877 C878 1.399 . S
C878 H864 0.929 . S
C878 C877 1.399 . S
C878 C879 1.385 . S
C879 H865 0.931 . S
C879 C878 1.385 . S
C879 C880 1.389 . S
C880 C879 1.389 . S
C880 C881 1.387 . S
C881 H866 0.930 . S
C881 C876 1.390 . S
C881 C880 1.387 . S
H882 C894 0.930 . S
H883 C896 0.930 . S
H884 C897 0.930 . S
H885 C901 0.959 . S
H886 C901 0.959 . S
H887 C901 0.937 1_655 S
H888 C902 0.960 . S
H889 C902 0.961 . S
H890 C902 0.959 . S
H891 C905 0.929 . S
H892 C906 0.931 . S
H893 C908 0.930 . S
C894 H882 0.930 . S
C894 C895 1.399 . S
C894 C899 1.399 . S
C895 C894 1.399 . S
C895 C896 1.376 . S
C896 H883 0.930 . S
C896 C895 1.376 . S
C896 C897 1.388 . S
C897 H884 0.930 . S
C897 C896 1.388 . S
C897 C898 1.390 . S
C898 C897 1.390 . S
C898 C899 1.394 . S
C898 C904 1.465 1_655 S
C899 C894 1.399 . S
C899 C898 1.394 . S
C899 C900 1.516 . S
C900 C899 1.516 . S
C900 C901 1.502 1_655 S
C900 C902 1.561 . S
C900 C903 1.526 1_655 S
C901 H885 0.959 . S
C901 H886 0.959 . S
C901 H887 0.937 1_455 S
C901 C900 1.502 1_455 S
C902 H888 0.960 . S
C902 H889 0.961 . S
C902 H890 0.959 . S
C902 C900 1.561 . S
C903 C900 1.526 1_455 S
C903 C904 1.396 . S
C903 C908 1.390 . S
C904 C898 1.465 1_455 S
C904 C903 1.396 . S
C904 C905 1.399 . S
C905 H891 0.929 . S
C905 C904 1.399 . S
C905 C906 1.385 . S
C906 H892 0.931 . S
C906 C905 1.385 . S
C906 C907 1.389 . S
C907 C906 1.389 . S
C907 C908 1.387 . S
C908 H893 0.930 . S
C908 C903 1.390 . S
C908 C907 1.387 . S
H909 C921 0.930 . S
H910 C923 0.930 . S
H911 C924 0.930 . S
H912 C928 0.959 1_545 S
H913 C928 0.959 . S
H914 C928 0.958 1_545 S
H915 C929 0.960 . S
H916 C929 0.961 . S
H917 C929 0.959 . S
H918 C932 0.929 . S
H919 C933 0.931 . S
H920 C935 0.930 . S
C921 H909 0.930 . S
C921 C922 1.399 . S
C921 C926 1.399 . S
C922 C921 1.399 . S
C922 C923 1.376 . S
C923 H910 0.930 . S
C923 C922 1.376 . S
C923 C924 1.388 . S
C924 H911 0.930 . S
C924 C923 1.388 . S
C924 C925 1.390 . S
C925 C924 1.390 . S
C925 C926 1.394 . S
C925 C931 1.465 1_545 S
C926 C921 1.399 . S
C926 C925 1.394 . S
C926 C927 1.516 1_545 S
C927 C926 1.516 1_565 S
C927 C928 1.502 . S
C927 C929 1.561 . S
C927 C930 1.526 . S
C928 H912 0.959 1_565 S
C928 H913 0.959 . S
C928 H914 0.958 1_565 S
C928 C927 1.502 . S
C929 H915 0.960 . S
C929 H916 0.961 . S
C929 H917 0.959 . S
C929 C927 1.561 . S
C930 C927 1.526 . S
C930 C931 1.396 . S
C930 C935 1.390 . S
C931 C925 1.465 1_565 S
C931 C930 1.396 . S
C931 C932 1.399 . S
C932 H918 0.929 . S
C932 C931 1.399 . S
C932 C933 1.385 . S
C933 H919 0.931 . S
C933 C932 1.385 . S
C933 C934 1.389 . S
C934 C933 1.389 . S
C934 C935 1.387 . S
C935 H920 0.930 . S
C935 C930 1.390 . S
C935 C934 1.387 . S
H936 C948 0.930 . S
H937 C950 0.930 . S
H938 C951 0.930 . S
H939 C955 0.959 . S
H940 C955 0.959 . S
H941 C955 0.961 . S
H942 C956 0.960 . S
H943 C956 0.961 . S
H944 C956 0.959 . S
H945 C959 0.929 . S
H946 C960 0.931 . S
H947 C962 0.930 . S
C948 H936 0.930 . S
C948 C949 1.399 . S
C948 C953 1.399 . S
C949 C948 1.399 . S
C949 C950 1.376 . S
C950 H937 0.930 . S
C950 C949 1.376 . S
C950 C951 1.388 . S
C951 H938 0.930 . S
C951 C950 1.388 . S
C951 C952 1.390 . S
C952 C951 1.390 . S
C952 C953 1.394 . S
C952 C958 1.465 . S
C953 C948 1.399 . S
C953 C952 1.394 . S
C953 C954 1.516 . S
C954 C953 1.516 . S
C954 C955 1.502 . S
C954 C956 1.561 . S
C954 C957 1.526 . S
C955 H939 0.959 . S
C955 H940 0.959 . S
C955 H941 0.961 . S
C955 C954 1.502 . S
C956 H942 0.960 . S
C956 H943 0.961 . S
C956 H944 0.959 . S
C956 C954 1.561 . S
C957 C954 1.526 . S
C957 C958 1.396 . S
C957 C962 1.390 . S
C958 C952 1.465 . S
C958 C957 1.396 . S
C958 C959 1.399 . S
C959 H945 0.929 . S
C959 C958 1.399 . S
C959 C960 1.385 . S
C960 H946 0.931 . S
C960 C959 1.385 . S
C960 C961 1.389 . S
C961 C960 1.389 . S
C961 C962 1.387 . S
C962 H947 0.930 . S
C962 C957 1.390 . S
C962 C961 1.387 . S
H963 C975 0.930 . S
H964 C977 0.930 . S
H965 C978 0.930 . S
H966 C982 0.959 . S
H967 C982 0.959 . S
H968 C982 0.961 . S
H969 C983 0.960 . S
H970 C983 0.961 . S
H971 C983 0.959 . S
H972 C986 0.929 1_455 S
H973 C987 0.931 . S
H974 C989 0.930 . S
C975 H963 0.930 . S
C975 C976 1.399 . S
C975 C980 1.399 . S
C976 C975 1.399 . S
C976 C977 1.376 . S
C977 H964 0.930 . S
C977 C976 1.376 . S
C977 C978 1.388 . S
C978 H965 0.930 . S
C978 C977 1.388 . S
C978 C979 1.390 . S
C979 C978 1.390 . S
C979 C980 1.394 . S
C979 C985 1.465 1_455 S
C980 C975 1.399 . S
C980 C979 1.394 . S
C980 C981 1.516 1_455 S
C981 C980 1.516 1_655 S
C981 C982 1.502 . S
C981 C983 1.561 . S
C981 C984 1.526 . S
C982 H966 0.959 . S
C982 H967 0.959 . S
C982 H968 0.961 . S
C982 C981 1.502 . S
C983 H969 0.960 . S
C983 H970 0.961 . S
C983 H971 0.959 . S
C983 C981 1.561 . S
C984 C981 1.526 . S
C984 C985 1.396 . S
C984 C989 1.390 . S
C985 C979 1.465 1_655 S
C985 C984 1.396 . S
C985 C986 1.399 . S
C986 H972 0.929 1_655 S
C986 C985 1.399 . S
C986 C987 1.385 . S
C987 H973 0.931 . S
C987 C986 1.385 . S
C987 C988 1.389 . S
C988 C987 1.389 . S
C988 C989 1.387 . S
C989 H974 0.930 . S
C989 C984 1.390 . S
C989 C988 1.387 . S
H990 C1002 0.930 . S
H991 C1004 0.930 . S
H992 C1005 0.930 . S
H993 C1009 0.959 . S
H994 C1009 0.959 . S
H995 C1009 0.961 . S
H996 C1010 0.960 . S
H997 C1010 0.961 . S
H998 C1010 0.959 . S
H999 C1013 0.929 1_565 S
H1000 C1014 0.931 . S
H1001 C1016 0.930 . S
C1002 H990 0.930 . S
C1002 C1003 1.399 . S
C1002 C1007 1.399 . S
C1003 C1002 1.399 . S
C1003 C1004 1.376 . S
C1004 H991 0.930 . S
C1004 C1003 1.376 . S
C1004 C1005 1.388 . S
C1005 H992 0.930 . S
C1005 C1004 1.388 . S
C1005 C1006 1.390 . S
C1006 C1005 1.390 . S
C1006 C1007 1.394 . S
C1006 C1012 1.465 1_565 S
C1007 C1002 1.399 . S
C1007 C1006 1.394 . S
C1007 C1008 1.516 1_565 S
C1008 C1007 1.516 1_545 S
C1008 C1009 1.502 . S
C1008 C1010 1.561 . S
C1008 C1011 1.526 . S
C1009 H993 0.959 . S
C1009 H994 0.959 . S
C1009 H995 0.961 . S
C1009 C1008 1.502 . S
C1010 H996 0.960 . S
C1010 H997 0.961 . S
C1010 H998 0.959 . S
C1010 C1008 1.561 . S
C1011 C1008 1.526 . S
C1011 C1012 1.396 . S
C1011 C1016 1.390 . S
C1012 C1006 1.465 1_545 S
C1012 C1011 1.396 . S
C1012 C1013 1.399 . S
C1013 H999 0.929 1_545 S
C1013 C1012 1.399 . S
C1013 C1014 1.385 . S
C1014 H1000 0.931 . S
C1014 C1013 1.385 . S
C1014 C1015 1.389 . S
C1015 C1014 1.389 . S
C1015 C1016 1.387 . S
C1016 H1001 0.930 . S
C1016 C1011 1.390 . S
C1016 C1015 1.387 . S
H1017 C1029 0.930 . S
H1018 C1031 0.930 . S
H1019 C1032 0.930 . S
H1020 C1036 0.959 . S
H1021 C1036 0.959 . S
H1022 C1036 0.961 . S
H1023 C1037 0.960 . S
H1024 C1037 0.961 . S
H1025 C1037 0.959 . S
H1026 C1040 0.929 . S
H1027 C1041 0.931 . S
H1028 C1043 0.930 . S
C1029 H1017 0.930 . S
C1029 C1030 1.399 . S
C1029 C1034 1.399 . S
C1030 C1029 1.399 . S
C1030 C1031 1.376 . S
C1031 H1018 0.930 . S
C1031 C1030 1.376 . S
C1031 C1032 1.388 . S
C1032 H1019 0.930 . S
C1032 C1031 1.388 . S
C1032 C1033 1.390 . S
C1033 C1032 1.390 . S
C1033 C1034 1.394 . S
C1033 C1039 1.465 . S
C1034 C1029 1.399 . S
C1034 C1033 1.394 . S
C1034 C1035 1.516 . S
C1035 C1034 1.516 . S
C1035 C1036 1.502 . S
C1035 C1037 1.561 . S
C1035 C1038 1.526 . S
C1036 H1020 0.959 . S
C1036 H1021 0.959 . S
C1036 H1022 0.961 . S
C1036 C1035 1.502 . S
C1037 H1023 0.960 . S
C1037 H1024 0.961 . S
C1037 H1025 0.959 . S
C1037 C1035 1.561 . S
C1038 C1035 1.526 . S
C1038 C1039 1.396 . S
C1038 C1043 1.390 . S
C1039 C1033 1.465 . S
C1039 C1038 1.396 . S
C1039 C1040 1.399 . S
C1040 H1026 0.929 . S
C1040 C1039 1.399 . S
C1040 C1041 1.385 . S
C1041 H1027 0.931 . S
C1041 C1040 1.385 . S
C1041 C1042 1.389 . S
C1042 C1041 1.389 . S
C1042 C1043 1.387 . S
C1043 H1028 0.930 . S
C1043 C1038 1.390 . S
C1043 C1042 1.387 . S
H1044 C1056 0.930 . S
H1045 C1058 0.930 . S
H1046 C1059 0.930 . S
H1047 C1063 0.959 . S
H1048 C1063 0.959 . S
H1049 C1063 0.961 . S
H1050 C1064 0.960 . S
H1051 C1064 0.961 . S
H1052 C1064 0.959 . S
H1053 C1067 0.929 . S
H1054 C1068 0.931 . S
H1055 C1070 0.930 . S
C1056 H1044 0.930 . S
C1056 C1057 1.399 . S
C1056 C1061 1.399 . S
C1057 C1056 1.399 . S
C1057 C1058 1.376 . S
C1058 H1045 0.930 . S
C1058 C1057 1.376 . S
C1058 C1059 1.388 . S
C1059 H1046 0.930 . S
C1059 C1058 1.388 . S
C1059 C1060 1.390 . S
C1060 C1059 1.390 . S
C1060 C1061 1.394 . S
C1060 C1066 1.465 . S
C1061 C1056 1.399 . S
C1061 C1060 1.394 . S
C1061 C1062 1.516 . S
C1062 C1061 1.516 . S
C1062 C1063 1.502 . S
C1062 C1064 1.561 . S
C1062 C1065 1.526 . S
C1063 H1047 0.959 . S
C1063 H1048 0.959 . S
C1063 H1049 0.961 . S
C1063 C1062 1.502 . S
C1064 H1050 0.960 . S
C1064 H1051 0.961 . S
C1064 H1052 0.959 . S
C1064 C1062 1.561 . S
C1065 C1062 1.526 . S
C1065 C1066 1.396 . S
C1065 C1070 1.390 . S
C1066 C1060 1.465 . S
C1066 C1065 1.396 . S
C1066 C1067 1.399 . S
C1067 H1053 0.929 . S
C1067 C1066 1.399 . S
C1067 C1068 1.385 . S
C1068 H1054 0.931 . S
C1068 C1067 1.385 . S
C1068 C1069 1.389 . S
C1069 C1068 1.389 . S
C1069 C1070 1.387 . S
C1070 H1055 0.930 . S
C1070 C1065 1.390 . S
C1070 C1069 1.387 . S
H1071 C1083 0.930 . S
H1072 C1085 0.930 . S
H1073 C1086 0.930 . S
H1074 C1090 0.959 . S
H1075 C1090 0.959 . S
H1076 C1090 0.961 . S
H1077 C1091 0.960 . S
H1078 C1091 0.961 . S
H1079 C1091 0.959 . S
H1080 C1094 0.929 . S
H1081 C1095 0.931 . S
H1082 C1097 0.930 . S
C1083 H1071 0.930 . S
C1083 C1084 1.399 . S
C1083 C1088 1.399 . S
C1084 C1083 1.399 . S
C1084 C1085 1.376 . S
C1085 H1072 0.930 . S
C1085 C1084 1.376 . S
C1085 C1086 1.388 . S
C1086 H1073 0.930 . S
C1086 C1085 1.388 . S
C1086 C1087 1.390 . S
C1087 C1086 1.390 . S
C1087 C1088 1.394 . S
C1087 C1093 1.465 . S
C1088 C1083 1.399 . S
C1088 C1087 1.394 . S
C1088 C1089 1.516 . S
C1089 C1088 1.516 . S
C1089 C1090 1.502 . S
C1089 C1091 1.561 . S
C1089 C1092 1.526 . S
C1090 H1074 0.959 . S
C1090 H1075 0.959 . S
C1090 H1076 0.961 . S
C1090 C1089 1.502 . S
C1091 H1077 0.960 . S
C1091 H1078 0.961 . S
C1091 H1079 0.959 . S
C1091 C1089 1.561 . S
C1092 C1089 1.526 . S
C1092 C1093 1.396 . S
C1092 C1097 1.390 . S
C1093 C1087 1.465 . S
C1093 C1092 1.396 . S
C1093 C1094 1.399 . S
C1094 H1080 0.929 . S
C1094 C1093 1.399 . S
C1094 C1095 1.385 . S
C1095 H1081 0.931 . S
C1095 C1094 1.385 . S
C1095 C1096 1.389 . S
C1096 C1095 1.389 . S
C1096 C1097 1.387 . S
C1097 H1082 0.930 . S
C1097 C1092 1.390 . S
C1097 C1096 1.387 . S
H1098 C1110 0.930 . S
H1099 C1112 0.930 . S
H1100 C1113 0.930 . S
H1101 C1117 0.959 . S
H1102 C1117 0.959 . S
H1103 C1117 0.961 . S
H1104 C1118 0.960 . S
H1105 C1118 0.961 . S
H1106 C1118 0.959 . S
H1107 C1121 0.929 . S
H1108 C1122 0.931 . S
H1109 C1124 0.930 . S
C1110 H1098 0.930 . S
C1110 C1111 1.399 . S
C1110 C1115 1.399 . S
C1111 C1110 1.399 . S
C1111 C1112 1.376 . S
C1112 H1099 0.930 . S
C1112 C1111 1.376 . S
C1112 C1113 1.388 . S
C1113 H1100 0.930 . S
C1113 C1112 1.388 . S
C1113 C1114 1.390 . S
C1114 C1113 1.390 . S
C1114 C1115 1.394 . S
C1114 C1120 1.465 . S
C1115 C1110 1.399 . S
C1115 C1114 1.394 . S
C1115 C1116 1.516 . S
C1116 C1115 1.516 . S
C1116 C1117 1.502 . S
C1116 C1118 1.561 . S
C1116 C1119 1.526 . S
C1117 H1101 0.959 . S
C1117 H1102 0.959 . S
C1117 H1103 0.961 . S
C1117 C1116 1.502 . S
C1118 H1104 0.960 . S
C1118 H1105 0.961 . S
C1118 H1106 0.959 . S
C1118 C1116 1.561 . S
C1119 C1116 1.526 . S
C1119 C1120 1.396 . S
C1119 C1124 1.390 . S
C1120 C1114 1.465 . S
C1120 C1119 1.396 . S
C1120 C1121 1.399 . S
C1121 H1107 0.929 . S
C1121 C1120 1.399 . S
C1121 C1122 1.385 . S
C1122 H1108 0.931 . S
C1122 C1121 1.385 . S
C1122 C1123 1.389 . S
C1123 C1122 1.389 . S
C1123 C1124 1.387 . S
C1124 H1109 0.930 . S
C1124 C1119 1.390 . S
C1124 C1123 1.387 . S
H1125 C1137 0.930 . S
H1126 C1139 0.930 . S
H1127 C1140 0.930 . S
H1128 C1144 0.959 . S
H1129 C1144 0.959 . S
H1130 C1144 0.961 . S
H1131 C1145 0.960 . S
H1132 C1145 0.961 . S
H1133 C1145 0.959 . S
H1134 C1148 0.929 . S
H1135 C1149 0.931 . S
H1136 C1151 0.930 . S
C1137 H1125 0.930 . S
C1137 C1138 1.399 . S
C1137 C1142 1.399 . S
C1138 C1137 1.399 . S
C1138 C1139 1.376 . S
C1139 H1126 0.930 . S
C1139 C1138 1.376 . S
C1139 C1140 1.388 . S
C1140 H1127 0.930 . S
C1140 C1139 1.388 . S
C1140 C1141 1.390 . S
C1141 C1140 1.390 . S
C1141 C1142 1.394 . S
C1141 C1147 1.465 . S
C1142 C1137 1.399 . S
C1142 C1141 1.394 . S
C1142 C1143 1.516 . S
C1143 C1142 1.516 . S
C1143 C1144 1.502 . S
C1143 C1145 1.561 . S
C1143 C1146 1.526 . S
C1144 H1128 0.959 . S
C1144 H1129 0.959 . S
C1144 H1130 0.961 . S
C1144 C1143 1.502 . S
C1145 H1131 0.960 . S
C1145 H1132 0.961 . S
C1145 H1133 0.959 . S
C1145 C1143 1.561 . S
C1146 C1143 1.526 . S
C1146 C1147 1.396 . S
C1146 C1151 1.390 . S
C1147 C1141 1.465 . S
C1147 C1146 1.396 . S
C1147 C1148 1.399 . S
C1148 H1134 0.929 . S
C1148 C1147 1.399 . S
C1148 C1149 1.385 . S
C1149 H1135 0.931 . S
C1149 C1148 1.385 . S
C1149 C1150 1.389 . S
C1150 C1149 1.389 . S
C1150 C1151 1.387 . S
C1151 H1136 0.930 . S
C1151 C1146 1.390 . S
C1151 C1150 1.387 . S
H1152 C1164 0.930 . S
H1153 C1166 0.930 . S
H1154 C1167 0.930 . S
H1155 C1171 0.959 . S
H1156 C1171 0.959 . S
H1157 C1171 0.961 . S
H1158 C1172 0.960 . S
H1159 C1172 0.961 . S
H1160 C1172 0.959 . S
H1161 C1175 0.929 . S
H1162 C1176 0.931 1_455 S
H1163 C1178 0.930 . S
C1164 H1152 0.930 . S
C1164 C1165 1.399 . S
C1164 C1169 1.399 . S
C1165 C1164 1.399 . S
C1165 C1166 1.376 . S
C1166 H1153 0.930 . S
C1166 C1165 1.376 . S
C1166 C1167 1.388 . S
C1167 H1154 0.930 . S
C1167 C1166 1.388 . S
C1167 C1168 1.390 . S
C1168 C1167 1.390 . S
C1168 C1169 1.394 . S
C1168 C1174 1.465 . S
C1169 C1164 1.399 . S
C1169 C1168 1.394 . S
C1169 C1170 1.516 . S
C1170 C1169 1.516 . S
C1170 C1171 1.502 . S
C1170 C1172 1.561 . S
C1170 C1173 1.526 . S
C1171 H1155 0.959 . S
C1171 H1156 0.959 . S
C1171 H1157 0.961 . S
C1171 C1170 1.502 . S
C1172 H1158 0.960 . S
C1172 H1159 0.961 . S
C1172 H1160 0.959 . S
C1172 C1170 1.561 . S
C1173 C1170 1.526 . S
C1173 C1174 1.396 . S
C1173 C1178 1.390 . S
C1174 C1168 1.465 . S
C1174 C1173 1.396 . S
C1174 C1175 1.399 . S
C1175 H1161 0.929 . S
C1175 C1174 1.399 . S
C1175 C1176 1.385 . S
C1176 H1162 0.931 1_655 S
C1176 C1175 1.385 . S
C1176 C1177 1.389 . S
C1177 C1176 1.389 . S
C1177 C1178 1.387 . S
C1178 H1163 0.930 . S
C1178 C1173 1.390 . S
C1178 C1177 1.387 . S
H1179 C1191 0.930 . S
H1180 C1193 0.930 . S
H1181 C1194 0.930 . S
H1182 C1198 0.959 . S
H1183 C1198 0.959 . S
H1184 C1198 0.961 . S
H1185 C1199 0.960 . S
H1186 C1199 0.961 . S
H1187 C1199 0.959 . S
H1188 C1202 0.929 . S
H1189 C1203 0.931 . S
H1190 C1205 0.930 . S
C1191 H1179 0.930 . S
C1191 C1192 1.399 . S
C1191 C1196 1.399 . S
C1192 C1191 1.399 . S
C1192 C1193 1.376 . S
C1193 H1180 0.930 . S
C1193 C1192 1.376 . S
C1193 C1194 1.388 . S
C1194 H1181 0.930 . S
C1194 C1193 1.388 . S
C1194 C1195 1.390 . S
C1195 C1194 1.390 . S
C1195 C1196 1.394 . S
C1195 C1201 1.465 . S
C1196 C1191 1.399 . S
C1196 C1195 1.394 . S
C1196 C1197 1.516 . S
C1197 C1196 1.516 . S
C1197 C1198 1.502 . S
C1197 C1199 1.561 . S
C1197 C1200 1.526 . S
C1198 H1182 0.959 . S
C1198 H1183 0.959 . S
C1198 H1184 0.961 . S
C1198 C1197 1.502 . S
C1199 H1185 0.960 . S
C1199 H1186 0.961 . S
C1199 H1187 0.959 . S
C1199 C1197 1.561 . S
C1200 C1197 1.526 . S
C1200 C1201 1.396 . S
C1200 C1205 1.390 . S
C1201 C1195 1.465 . S
C1201 C1200 1.396 . S
C1201 C1202 1.399 . S
C1202 H1188 0.929 . S
C1202 C1201 1.399 . S
C1202 C1203 1.385 . S
C1203 H1189 0.931 . S
C1203 C1202 1.385 . S
C1203 C1204 1.389 . S
C1204 C1203 1.389 . S
C1204 C1205 1.387 . S
C1205 H1190 0.930 . S
C1205 C1200 1.390 . S
C1205 C1204 1.387 . S
C409 N112 1.490 . S
C421 N13 1.438 . S
C436 N145 1.389 . S
C448 N46 1.435 . S
C463 N178 1.388 . S
C475 N79 1.437 . S
C490 N211 1.489 . S
C502 N310 1.441 . S
C517 N244 1.489 . S
C529 N343 1.441 . S
C544 N277 1.389 . S
C556 N376 1.434 . S
C571 C315 1.852 . S
C583 C18 1.816 . S
C598 C51 1.852 . S
C610 C348 1.816 . S
C625 C381 1.860 . S
C637 C84 1.825 . S
C652 C216 1.821 . S
C664 C117 1.860 . S
C679 C150 1.825 . S
C691 C249 1.860 . S
C706 C183 1.859 . S
C718 C282 1.819 . S
C733 N2 0.589 . S
C745 N101 0.581 . S
C760 N35 0.594 . S
C772 N134 0.587 . S
C787 N167 0.461 . S
C799 N68 0.471 . S
C814 N200 0.470 . S
C826 N299 0.482 . S
C841 N233 0.467 . S
C853 N332 0.478 . S
C868 N365 0.456 . S
C880 N266 0.464 . S
C895 C384 0.806 . S
C907 C21 0.798 . S
C922 C54 0.966 . S
C934 C219 0.957 . S
C949 C252 0.798 . S
C961 C87 0.797 . S
C976 C285 0.919 . S
C988 C120 0.893 . S
C1003 C153 0.955 . S
C1015 C318 0.937 . S
C1030 C186 0.966 . S
C1042 C351 0.956 . S
C1057 C7 0.915 . S
C1069 C271 0.921 . S
C1084 C40 0.915 . S
C1096 C304 0.911 . S
C1111 C337 0.990 . S
C1123 C73 0.985 . S
C1138 C106 0.920 . S
C1150 C370 0.926 . S
C1165 C205 0.903 . S
C1177 C139 0.901 . S
C1192 C172 1.001 . S
C1204 C238 0.997 . S
