# Generated by pormake.
# Topology uoh, (4)-cn, num edge types: 1
# Building blocks:
#     Node 0, Type 0, BuildingBlock: CEKHIL_clean_sbu_0, # of connection points: 4
#     Node 1, Type 0, BuildingBlock: CEKHIL_clean_sbu_0, # of connection points: 4
#     Node 2, Type 0, BuildingBlock: CEKHIL_clean_sbu_0, # of connection points: 4
#     Node 3, Type 0, BuildingBlock: CEKHIL_clean_sbu_0, # of connection points: 4
#     Node 4, Type 0, BuildingBlock: CEKHIL_clean_sbu_0, # of connection points: 4
#     Node 5, Type 0, BuildingBlock: CEKHIL_clean_sbu_0, # of connection points: 4
#     Node 6, Type 0, BuildingBlock: CEKHIL_clean_sbu_0, # of connection points: 4
#     Node 7, Type 0, BuildingBlock: CEKHIL_clean_sbu_0, # of connection points: 4
#     Node 8, Type 0, BuildingBlock: CEKHIL_clean_sbu_0, # of connection points: 4
#     Node 9, Type 0, BuildingBlock: CEKHIL_clean_sbu_0, # of connection points: 4
#     Node 10, Type 0, BuildingBlock: CEKHIL_clean_sbu_0, # of connection points: 4
#     Node 11, Type 0, BuildingBlock: CEKHIL_clean_sbu_0, # of connection points: 4
#     Node 12, Type 0, BuildingBlock: CEKHIL_clean_sbu_0, # of connection points: 4
#     Node 13, Type 0, BuildingBlock: CEKHIL_clean_sbu_0, # of connection points: 4
#     Node 14, Type 0, BuildingBlock: CEKHIL_clean_sbu_0, # of connection points: 4
#     Node 15, Type 0, BuildingBlock: CEKHIL_clean_sbu_0, # of connection points: 4
#     Node 16, Type 0, BuildingBlock: CEKHIL_clean_sbu_0, # of connection points: 4
#     Node 17, Type 0, BuildingBlock: CEKHIL_clean_sbu_0, # of connection points: 4
#     Node 18, Type 0, BuildingBlock: CEKHIL_clean_sbu_0, # of connection points: 4
#     Node 19, Type 0, BuildingBlock: CEKHIL_clean_sbu_0, # of connection points: 4
#     Node 20, Type 0, BuildingBlock: CEKHIL_clean_sbu_0, # of connection points: 4
#     Node 21, Type 0, BuildingBlock: CEKHIL_clean_sbu_0, # of connection points: 4
#     Node 22, Type 0, BuildingBlock: CEKHIL_clean_sbu_0, # of connection points: 4
#     Node 23, Type 0, BuildingBlock: CEKHIL_clean_sbu_0, # of connection points: 4
#     Node 24, Type 0, BuildingBlock: CEKHIL_clean_sbu_0, # of connection points: 4
#     Node 25, Type 0, BuildingBlock: CEKHIL_clean_sbu_0, # of connection points: 4
#     Node 26, Type 0, BuildingBlock: CEKHIL_clean_sbu_0, # of connection points: 4
#     Node 27, Type 0, BuildingBlock: CEKHIL_clean_sbu_0, # of connection points: 4
#     Node 28, Type 0, BuildingBlock: CEKHIL_clean_sbu_0, # of connection points: 4
#     Node 29, Type 0, BuildingBlock: CEKHIL_clean_sbu_0, # of connection points: 4
#     Node 30, Type 0, BuildingBlock: CEKHIL_clean_sbu_0, # of connection points: 4
#     Node 31, Type 0, BuildingBlock: CEKHIL_clean_sbu_0, # of connection points: 4
#     Node 32, Type 0, BuildingBlock: CEKHIL_clean_sbu_0, # of connection points: 4
#     Node 33, Type 0, BuildingBlock: CEKHIL_clean_sbu_0, # of connection points: 4
#     Node 34, Type 0, BuildingBlock: CEKHIL_clean_sbu_0, # of connection points: 4
#     Node 35, Type 0, BuildingBlock: CEKHIL_clean_sbu_0, # of connection points: 4
#     Edge 36, Type (0, 0), BuildingBlock: KIFKEQ_clean_linker_1, # of connection points: 2
#     Edge 37, Type (0, 0), BuildingBlock: KIFKEQ_clean_linker_1, # of connection points: 2
#     Edge 38, Type (0, 0), BuildingBlock: KIFKEQ_clean_linker_1, # of connection points: 2
#     Edge 39, Type (0, 0), BuildingBlock: KIFKEQ_clean_linker_1, # of connection points: 2
#     Edge 40, Type (0, 0), BuildingBlock: KIFKEQ_clean_linker_1, # of connection points: 2
#     Edge 41, Type (0, 0), BuildingBlock: KIFKEQ_clean_linker_1, # of connection points: 2
#     Edge 42, Type (0, 0), BuildingBlock: KIFKEQ_clean_linker_1, # of connection points: 2
#     Edge 43, Type (0, 0), BuildingBlock: KIFKEQ_clean_linker_1, # of connection points: 2
#     Edge 44, Type (0, 0), BuildingBlock: KIFKEQ_clean_linker_1, # of connection points: 2
#     Edge 45, Type (0, 0), BuildingBlock: KIFKEQ_clean_linker_1, # of connection points: 2
#     Edge 46, Type (0, 0), BuildingBlock: KIFKEQ_clean_linker_1, # of connection points: 2
#     Edge 47, Type (0, 0), BuildingBlock: KIFKEQ_clean_linker_1, # of connection points: 2
#     Edge 48, Type (0, 0), BuildingBlock: KIFKEQ_clean_linker_1, # of connection points: 2
#     Edge 49, Type (0, 0), BuildingBlock: KIFKEQ_clean_linker_1, # of connection points: 2
#     Edge 50, Type (0, 0), BuildingBlock: KIFKEQ_clean_linker_1, # of connection points: 2
#     Edge 51, Type (0, 0), BuildingBlock: KIFKEQ_clean_linker_1, # of connection points: 2
#     Edge 52, Type (0, 0), BuildingBlock: KIFKEQ_clean_linker_1, # of connection points: 2
#     Edge 53, Type (0, 0), BuildingBlock: KIFKEQ_clean_linker_1, # of connection points: 2
#     Edge 54, Type (0, 0), BuildingBlock: KIFKEQ_clean_linker_1, # of connection points: 2
#     Edge 55, Type (0, 0), BuildingBlock: KIFKEQ_clean_linker_1, # of connection points: 2
#     Edge 56, Type (0, 0), BuildingBlock: KIFKEQ_clean_linker_1, # of connection points: 2
#     Edge 57, Type (0, 0), BuildingBlock: KIFKEQ_clean_linker_1, # of connection points: 2
#     Edge 58, Type (0, 0), BuildingBlock: KIFKEQ_clean_linker_1, # of connection points: 2
#     Edge 59, Type (0, 0), BuildingBlock: KIFKEQ_clean_linker_1, # of connection points: 2
#     Edge 60, Type (0, 0), BuildingBlock: KIFKEQ_clean_linker_1, # of connection points: 2
#     Edge 61, Type (0, 0), BuildingBlock: KIFKEQ_clean_linker_1, # of connection points: 2
#     Edge 62, Type (0, 0), BuildingBlock: KIFKEQ_clean_linker_1, # of connection points: 2
#     Edge 63, Type (0, 0), BuildingBlock: KIFKEQ_clean_linker_1, # of connection points: 2
#     Edge 64, Type (0, 0), BuildingBlock: KIFKEQ_clean_linker_1, # of connection points: 2
#     Edge 65, Type (0, 0), BuildingBlock: KIFKEQ_clean_linker_1, # of connection points: 2
#     Edge 66, Type (0, 0), BuildingBlock: KIFKEQ_clean_linker_1, # of connection points: 2
#     Edge 67, Type (0, 0), BuildingBlock: KIFKEQ_clean_linker_1, # of connection points: 2
#     Edge 68, Type (0, 0), BuildingBlock: KIFKEQ_clean_linker_1, # of connection points: 2
#     Edge 69, Type (0, 0), BuildingBlock: KIFKEQ_clean_linker_1, # of connection points: 2
#     Edge 70, Type (0, 0), BuildingBlock: KIFKEQ_clean_linker_1, # of connection points: 2
#     Edge 71, Type (0, 0), BuildingBlock: KIFKEQ_clean_linker_1, # of connection points: 2
#     Edge 72, Type (0, 0), BuildingBlock: KIFKEQ_clean_linker_1, # of connection points: 2
#     Edge 73, Type (0, 0), BuildingBlock: KIFKEQ_clean_linker_1, # of connection points: 2
#     Edge 74, Type (0, 0), BuildingBlock: KIFKEQ_clean_linker_1, # of connection points: 2
#     Edge 75, Type (0, 0), BuildingBlock: KIFKEQ_clean_linker_1, # of connection points: 2
#     Edge 76, Type (0, 0), BuildingBlock: KIFKEQ_clean_linker_1, # of connection points: 2
#     Edge 77, Type (0, 0), BuildingBlock: KIFKEQ_clean_linker_1, # of connection points: 2
#     Edge 78, Type (0, 0), BuildingBlock: KIFKEQ_clean_linker_1, # of connection points: 2
#     Edge 79, Type (0, 0), BuildingBlock: KIFKEQ_clean_linker_1, # of connection points: 2
#     Edge 80, Type (0, 0), BuildingBlock: KIFKEQ_clean_linker_1, # of connection points: 2
#     Edge 81, Type (0, 0), BuildingBlock: KIFKEQ_clean_linker_1, # of connection points: 2
#     Edge 82, Type (0, 0), BuildingBlock: KIFKEQ_clean_linker_1, # of connection points: 2
#     Edge 83, Type (0, 0), BuildingBlock: KIFKEQ_clean_linker_1, # of connection points: 2
#     Edge 84, Type (0, 0), BuildingBlock: KIFKEQ_clean_linker_1, # of connection points: 2
#     Edge 85, Type (0, 0), BuildingBlock: KIFKEQ_clean_linker_1, # of connection points: 2
#     Edge 86, Type (0, 0), BuildingBlock: KIFKEQ_clean_linker_1, # of connection points: 2
#     Edge 87, Type (0, 0), BuildingBlock: KIFKEQ_clean_linker_1, # of connection points: 2
#     Edge 88, Type (0, 0), BuildingBlock: KIFKEQ_clean_linker_1, # of connection points: 2
#     Edge 89, Type (0, 0), BuildingBlock: KIFKEQ_clean_linker_1, # of connection points: 2
#     Edge 90, Type (0, 0), BuildingBlock: KIFKEQ_clean_linker_1, # of connection points: 2
#     Edge 91, Type (0, 0), BuildingBlock: KIFKEQ_clean_linker_1, # of connection points: 2
#     Edge 92, Type (0, 0), BuildingBlock: KIFKEQ_clean_linker_1, # of connection points: 2
#     Edge 93, Type (0, 0), BuildingBlock: KIFKEQ_clean_linker_1, # of connection points: 2
#     Edge 94, Type (0, 0), BuildingBlock: KIFKEQ_clean_linker_1, # of connection points: 2
#     Edge 95, Type (0, 0), BuildingBlock: KIFKEQ_clean_linker_1, # of connection points: 2
#     Edge 96, Type (0, 0), BuildingBlock: KIFKEQ_clean_linker_1, # of connection points: 2
#     Edge 97, Type (0, 0), BuildingBlock: KIFKEQ_clean_linker_1, # of connection points: 2
#     Edge 98, Type (0, 0), BuildingBlock: KIFKEQ_clean_linker_1, # of connection points: 2
#     Edge 99, Type (0, 0), BuildingBlock: KIFKEQ_clean_linker_1, # of connection points: 2
#     Edge 100, Type (0, 0), BuildingBlock: KIFKEQ_clean_linker_1, # of connection points: 2
#     Edge 101, Type (0, 0), BuildingBlock: KIFKEQ_clean_linker_1, # of connection points: 2
#     Edge 102, Type (0, 0), BuildingBlock: KIFKEQ_clean_linker_1, # of connection points: 2
#     Edge 103, Type (0, 0), BuildingBlock: KIFKEQ_clean_linker_1, # of connection points: 2
#     Edge 104, Type (0, 0), BuildingBlock: KIFKEQ_clean_linker_1, # of connection points: 2
#     Edge 105, Type (0, 0), BuildingBlock: KIFKEQ_clean_linker_1, # of connection points: 2
#     Edge 106, Type (0, 0), BuildingBlock: KIFKEQ_clean_linker_1, # of connection points: 2
#     Edge 107, Type (0, 0), BuildingBlock: KIFKEQ_clean_linker_1, # of connection points: 2
# Relax obj value: 0.090
# Max RMSD: 0.139
# Mean RMSD: 0.139
data_MOF--net-uoh--node1-CEKHIL_clean_sbu_0--edge1-KIFKEQ_clean_linker_1
_symmetry_space_group_name_H-M    P1
_symmetry_Int_Tables_number       1
_symmetry_cell_setting            triclinic
loop_
_symmetry_equiv_pos_as_xyz
'x, y, z'
_cell_length_a     89.559925
_cell_length_b     89.581634
_cell_length_c     27.971888
_cell_angle_alpha  89.975161
_cell_angle_beta   90.007823
_cell_angle_gamma 119.95503
loop_
_atom_site_label
_atom_site_type_symbol
_atom_site_fract_x
_atom_site_fract_y
_atom_site_fract_z
_atom_type_partial_charge
Co0 Co 0.24044 0.14948 0.17074 0.0
O1 O 0.22013 0.15113 0.18134 0.0
O2 O 0.24653 0.17115 0.20207 0.0
C3 C 0.23469 0.14089 0.0939 0.0
O4 O 0.26443 0.15226 0.1644 0.0
Co5 Co 0.23721 0.11411 0.14704 0.0
O6 O 0.26216 0.12814 0.13257 0.0
C7 C 0.23272 0.12212 0.24669 0.0
C8 C 0.23017 0.16612 0.20008 0.0
C9 C 0.27118 0.14364 0.14703 0.0
O10 O 0.2371 0.13761 0.23427 0.0
O11 O 0.23076 0.11048 0.21667 0.0
O12 O 0.24177 0.15709 0.10492 0.0
O13 O 0.22985 0.13034 0.12965 0.0
Co14 Co 0.85583 0.09156 0.17171 0.0
O15 O 0.85465 0.06987 0.182 0.0
O16 O 0.83418 0.07558 0.20273 0.0
C17 C 0.86473 0.0945 0.09543 0.0
O18 O 0.8526 0.11252 0.16471 0.0
Co19 Co 0.89139 0.12387 0.14936 0.0
O20 O 0.87734 0.13491 0.13738 0.0
C21 C 0.88291 0.11107 0.24845 0.0
C22 C 0.83948 0.06444 0.20011 0.0
C23 C 0.86156 0.12818 0.14956 0.0
O24 O 0.86742 0.10018 0.23557 0.0
O25 O 0.89477 0.12064 0.21879 0.0
O26 O 0.8485 0.0851 0.10581 0.0
O27 O 0.87513 0.10043 0.13138 0.0
Co28 Co 0.91273 0.76497 0.16526 0.0
O29 O 0.93445 0.78568 0.17385 0.0
O30 O 0.92871 0.75997 0.19914 0.0
C31 C 0.9098 0.76944 0.08744 0.0
O32 O 0.89179 0.74063 0.16107 0.0
Co33 Co 0.88027 0.7675 0.138 0.0
O34 O 0.86947 0.74229 0.12984 0.0
C35 C 0.89197 0.7724 0.23847 0.0
C36 C 0.93984 0.77632 0.19465 0.0
C37 C 0.87616 0.73357 0.14538 0.0
O38 O 0.90396 0.76906 0.22753 0.0
O39 O 0.8819 0.77335 0.20767 0.0
O40 O 0.91924 0.76288 0.10015 0.0
O41 O 0.90382 0.77454 0.12188 0.0
Co42 Co 0.1511 0.24075 0.30532 0.0
O43 O 0.1529 0.22047 0.29636 0.0
O44 O 0.17263 0.24669 0.27328 0.0
C45 C 0.14299 0.23583 0.38258 0.0
O46 O 0.15364 0.26472 0.31 0.0
Co47 Co 0.11545 0.23701 0.32981 0.0
O48 O 0.12912 0.26222 0.3397 0.0
C49 C 0.12306 0.23169 0.23059 0.0
C50 C 0.16772 0.23038 0.27656 0.0
C51 C 0.14466 0.27135 0.32555 0.0
O52 O 0.13871 0.23643 0.24219 0.0
O53 O 0.11158 0.22996 0.26087 0.0
O54 O 0.15916 0.24291 0.37097 0.0
O55 O 0.13226 0.23046 0.3473 0.0
Co56 Co 0.76525 0.91185 0.32266 0.0
O57 O 0.78558 0.93395 0.31721 0.0
O58 O 0.75986 0.92804 0.2914 0.0
C59 C 0.76949 0.90775 0.39981 0.0
O60 O 0.74131 0.89036 0.32426 0.0
Co61 Co 0.76921 0.87993 0.34403 0.0
O62 O 0.74386 0.8681 0.35175 0.0
C63 C 0.77511 0.89402 0.24615 0.0
C64 C 0.77608 0.93938 0.29743 0.0
C65 C 0.73471 0.87454 0.33793 0.0
O66 O 0.77015 0.90465 0.25902 0.0
O67 O 0.77694 0.88408 0.27554 0.0
O68 O 0.76233 0.9168 0.38866 0.0
O69 O 0.77522 0.90286 0.36429 0.0
Co70 Co 0.09215 0.85304 0.32417 0.0
O71 O 0.07057 0.85236 0.31625 0.0
O72 O 0.07571 0.83191 0.29165 0.0
C73 C 0.09568 0.86101 0.40156 0.0
O74 O 0.11296 0.84941 0.32825 0.0
Co75 Co 0.12476 0.88823 0.34781 0.0
O76 O 0.13554 0.87377 0.35668 0.0
C77 C 0.11178 0.88084 0.24883 0.0
C78 C 0.06481 0.83743 0.29629 0.0
C79 C 0.12871 0.85815 0.34295 0.0
O80 O 0.10063 0.86533 0.26103 0.0
O81 O 0.12162 0.89234 0.27892 0.0
O82 O 0.08599 0.84496 0.38978 0.0
O83 O 0.10146 0.87181 0.36645 0.0
Co84 Co 0.76483 0.85385 0.82214 0.0
O85 O 0.78534 0.85229 0.81743 0.0
O86 O 0.75982 0.83247 0.79058 0.0
C87 C 0.7686 0.86201 0.8994 0.0
O88 O 0.74073 0.85109 0.82271 0.0
Co89 Co 0.76773 0.88923 0.84387 0.0
O90 O 0.74249 0.87509 0.85388 0.0
C91 C 0.77478 0.88173 0.74635 0.0
C92 C 0.77606 0.83746 0.79708 0.0
C93 C 0.73371 0.8597 0.8384 0.0
O94 O 0.76997 0.86614 0.75883 0.0
O95 O 0.77606 0.89324 0.77587 0.0
O96 O 0.76167 0.84584 0.88807 0.0
O97 O 0.77433 0.87271 0.86405 0.0
Co98 Co 0.15181 0.91091 0.82383 0.0
O99 O 0.15235 0.93247 0.81628 0.0
O100 O 0.17275 0.92736 0.79081 0.0
C101 C 0.14403 0.90741 0.90155 0.0
O102 O 0.15586 0.89038 0.82679 0.0
Co103 Co 0.11775 0.87758 0.85034 0.0
O104 O 0.1332 0.86813 0.86275 0.0
C105 C 0.12418 0.88984 0.75001 0.0
C106 C 0.1672 0.93822 0.79572 0.0
C107 C 0.14834 0.87513 0.84519 0.0
O108 O 0.13919 0.90235 0.7612 0.0
O109 O 0.11351 0.87921 0.78058 0.0
O110 O 0.16008 0.91701 0.88937 0.0
O111 O 0.13316 0.90142 0.86665 0.0
Co112 Co 0.09238 0.23858 0.80734 0.0
O113 O 0.07055 0.21837 0.79518 0.0
O114 O 0.07678 0.24501 0.77774 0.0
C115 C 0.09513 0.23177 0.88296 0.0
O116 O 0.11353 0.26252 0.81577 0.0
Co117 Co 0.12442 0.23462 0.82851 0.0
O118 O 0.13597 0.25974 0.84035 0.0
C119 C 0.11148 0.23097 0.7297 0.0
C120 C 0.06554 0.22862 0.77816 0.0
C121 C 0.12931 0.26899 0.82965 0.0
O122 O 0.10103 0.2361 0.74298 0.0
O123 O 0.12073 0.22809 0.75908 0.0
O124 O 0.08583 0.23881 0.87363 0.0
O125 O 0.101 0.22756 0.84636 0.0
Co126 Co 0.85454 0.76408 0.6648 0.0
O127 O 0.85369 0.78484 0.6743 0.0
O128 O 0.83351 0.75903 0.69837 0.0
C129 C 0.86222 0.76898 0.58725 0.0
O130 O 0.85096 0.73969 0.65953 0.0
Co131 Co 0.88946 0.76642 0.63787 0.0
O132 O 0.87493 0.74129 0.62849 0.0
C133 C 0.88245 0.77096 0.73843 0.0
C134 C 0.83886 0.77543 0.69467 0.0
C135 C 0.85947 0.7326 0.64354 0.0
O136 O 0.86719 0.76775 0.72729 0.0
O137 O 0.89353 0.77196 0.70774 0.0
O138 O 0.84618 0.76245 0.59959 0.0
O139 O 0.87316 0.77378 0.62195 0.0
Co140 Co 0.24084 0.09112 0.67218 0.0
O141 O 0.22022 0.06914 0.67709 0.0
O142 O 0.24566 0.07471 0.70442 0.0
C143 C 0.2373 0.09539 0.59451 0.0
O144 O 0.26502 0.1123 0.67153 0.0
Co145 Co 0.23826 0.12369 0.64918 0.0
O146 O 0.26342 0.13436 0.63827 0.0
C147 C 0.23116 0.10955 0.74726 0.0
C148 C 0.22941 0.06354 0.69783 0.0
C149 C 0.27212 0.12776 0.65464 0.0
O150 O 0.23571 0.09853 0.73519 0.0
O151 O 0.23008 0.11982 0.71736 0.0
O152 O 0.24407 0.08605 0.60652 0.0
O153 O 0.23153 0.1005 0.62946 0.0
Co154 Co 0.91187 0.14953 0.67412 0.0
O155 O 0.93386 0.15106 0.68234 0.0
O156 O 0.92753 0.17074 0.70717 0.0
C157 C 0.9087 0.14193 0.59645 0.0
O158 O 0.89062 0.1524 0.67087 0.0
Co159 Co 0.87953 0.11459 0.64774 0.0
O160 O 0.86873 0.12894 0.63661 0.0
C161 C 0.8923 0.1212 0.74737 0.0
C162 C 0.93885 0.16576 0.70308 0.0
C163 C 0.87525 0.14415 0.65339 0.0
O164 O 0.90373 0.13673 0.73647 0.0
O165 O 0.88218 0.11015 0.71672 0.0
O166 O 0.91781 0.15801 0.60882 0.0
O167 O 0.90313 0.13096 0.63118 0.0
Co168 Co 0.90844 0.48429 0.50364 0.0
O169 O 0.88811 0.4862 0.50686 0.0
O170 O 0.91387 0.50639 0.53128 0.0
C171 C 0.90437 0.47454 0.42784 0.0
O172 O 0.93241 0.48678 0.5035 0.0
Co173 Co 0.90456 0.4481 0.489 0.0
O174 O 0.9299 0.46151 0.48068 0.0
C175 C 0.89796 0.4579 0.58395 0.0
C176 C 0.89763 0.50142 0.52483 0.0
C177 C 0.93903 0.47738 0.49186 0.0
O178 O 0.90352 0.47339 0.56913 0.0
O179 O 0.89595 0.44562 0.55636 0.0
O180 O 0.91139 0.49092 0.43656 0.0
O181 O 0.89855 0.46459 0.46473 0.0
Co182 Co 0.52255 0.42438 0.50208 0.0
O183 O 0.52137 0.40268 0.5137 0.0
O184 O 0.50077 0.40849 0.53233 0.0
C185 C 0.53181 0.42738 0.42582 0.0
O186 O 0.51918 0.4452 0.49434 0.0
Co187 Co 0.55773 0.45698 0.47967 0.0
O188 O 0.5433 0.46734 0.46347 0.0
C189 C 0.5491 0.4446 0.57934 0.0
C190 C 0.50615 0.39742 0.53134 0.0
C191 C 0.52765 0.46056 0.47689 0.0
O192 O 0.53383 0.43317 0.5662 0.0
O193 O 0.56087 0.45443 0.54978 0.0
O194 O 0.51556 0.41793 0.43594 0.0
O195 O 0.54205 0.43331 0.46218 0.0
Co196 Co 0.57939 0.09741 0.49993 0.0
O197 O 0.60089 0.11831 0.50834 0.0
O198 O 0.59569 0.09273 0.53336 0.0
C199 C 0.57639 0.10199 0.4223 0.0
O200 O 0.55868 0.07293 0.49552 0.0
Co201 Co 0.54665 0.09948 0.47316 0.0
O202 O 0.53627 0.07436 0.46403 0.0
C203 C 0.55846 0.10441 0.57354 0.0
C204 C 0.60661 0.10912 0.52857 0.0
C205 C 0.54309 0.06574 0.47944 0.0
O206 O 0.57055 0.10125 0.56239 0.0
O207 O 0.54829 0.10527 0.54288 0.0
O208 O 0.58596 0.09555 0.43477 0.0
O209 O 0.57026 0.10686 0.45689 0.0
Co210 Co 0.81707 0.57309 0.65003 0.0
O211 O 0.81922 0.55293 0.64437 0.0
O212 O 0.83843 0.57871 0.61743 0.0
C213 C 0.80932 0.5692 0.72765 0.0
O214 O 0.81927 0.5969 0.65121 0.0
Co215 Co 0.78149 0.56943 0.67336 0.0
O216 O 0.7952 0.5947 0.68332 0.0
C217 C 0.78882 0.56287 0.57511 0.0
C218 C 0.83387 0.56257 0.62338 0.0
C219 C 0.81051 0.60368 0.66734 0.0
O220 O 0.80447 0.56778 0.58718 0.0
O221 O 0.77733 0.56139 0.60504 0.0
O222 O 0.82545 0.57639 0.71556 0.0
O223 O 0.79841 0.56323 0.69278 0.0
Co224 Co 0.43175 0.2449 0.64861 0.0
O225 O 0.45215 0.26644 0.63493 0.0
O226 O 0.42565 0.26023 0.6158 0.0
C227 C 0.43829 0.24316 0.72535 0.0
O228 O 0.40762 0.224 0.65806 0.0
Co229 Co 0.43502 0.21287 0.67572 0.0
O230 O 0.41009 0.20213 0.68914 0.0
C231 C 0.4377 0.22339 0.57459 0.0
C232 C 0.44208 0.27134 0.61598 0.0
C233 C 0.40097 0.2086 0.67528 0.0
O234 O 0.43429 0.23528 0.58596 0.0
O235 O 0.43948 0.21376 0.6052 0.0
O236 O 0.4314 0.25241 0.71371 0.0
O237 O 0.44251 0.23667 0.69016 0.0
Co238 Co 0.75934 0.18859 0.65206 0.0
O239 O 0.73785 0.18784 0.6413 0.0
O240 O 0.7431 0.16704 0.62099 0.0
C241 C 0.7622 0.19755 0.72832 0.0
O242 O 0.78007 0.18498 0.65943 0.0
Co243 Co 0.79191 0.22393 0.67484 0.0
O244 O 0.8026 0.20956 0.68696 0.0
C245 C 0.77959 0.21543 0.57531 0.0
C246 C 0.73219 0.17262 0.6233 0.0
C247 C 0.79575 0.1938 0.67459 0.0
O248 O 0.76826 0.20009 0.58826 0.0
O249 O 0.78927 0.22721 0.60497 0.0
O250 O 0.75265 0.18134 0.71796 0.0
O251 O 0.76836 0.20791 0.69234 0.0
Co252 Co 0.43199 0.18797 0.14708 0.0
O253 O 0.45294 0.18732 0.13996 0.0
O254 O 0.42758 0.1672 0.113 0.0
C255 C 0.43573 0.19501 0.22512 0.0
O256 O 0.4075 0.18431 0.14981 0.0
Co257 Co 0.43408 0.22275 0.17418 0.0
O258 O 0.40885 0.20812 0.18128 0.0
C259 C 0.43998 0.21642 0.07422 0.0
C260 C 0.44394 0.17262 0.11868 0.0
C261 C 0.40028 0.19277 0.16533 0.0
O262 O 0.43652 0.20106 0.08505 0.0
O263 O 0.44064 0.22732 0.10498 0.0
O264 O 0.42942 0.17909 0.21198 0.0
O265 O 0.44104 0.20622 0.19103 0.0
Co266 Co 0.81728 0.24428 0.14858 0.0
O267 O 0.81899 0.26642 0.14329 0.0
O268 O 0.83822 0.26015 0.11449 0.0
C269 C 0.81027 0.24055 0.22671 0.0
O270 O 0.81993 0.22289 0.14911 0.0
Co271 Co 0.78228 0.21202 0.1752 0.0
O272 O 0.79665 0.20115 0.18454 0.0
C273 C 0.78838 0.22535 0.0762 0.0
C274 C 0.83348 0.27158 0.12117 0.0
C275 C 0.81171 0.20753 0.16669 0.0
O276 O 0.80398 0.23671 0.08681 0.0
O277 O 0.77748 0.21505 0.10688 0.0
O278 O 0.82628 0.24962 0.21356 0.0
O279 O 0.79906 0.23537 0.19263 0.0
Co280 Co 0.75952 0.57363 0.15118 0.0
O281 O 0.73754 0.5532 0.14351 0.0
O282 O 0.74353 0.57913 0.11942 0.0
C283 C 0.76299 0.56875 0.22834 0.0
O284 O 0.78071 0.59772 0.15468 0.0
Co285 Co 0.79194 0.57084 0.17452 0.0
O286 O 0.80277 0.59591 0.18702 0.0
C287 C 0.77867 0.56516 0.07549 0.0
C288 C 0.73224 0.56282 0.12382 0.0
C289 C 0.79616 0.60472 0.17158 0.0
O290 O 0.76748 0.56945 0.08781 0.0
O291 O 0.78872 0.56373 0.10543 0.0
O292 O 0.75385 0.57581 0.21705 0.0
O293 O 0.76848 0.56359 0.19283 0.0
Co294 Co 0.52183 0.09691 0.00053 0.0
O295 O 0.52165 0.11813 0.00761 0.0
O296 O 0.50114 0.09289 0.03417 0.0
C297 C 0.52915 0.10081 0.92269 0.0
O298 O 0.5175 0.0722 -0.00196 0.0
Co299 Co 0.55567 0.09718 0.97319 0.0
O300 O 0.53995 0.07233 0.96141 0.0
C301 C 0.54982 0.10368 0.07334 0.0
C302 C 0.50681 0.10929 0.02843 0.0
C303 C 0.52488 0.06434 0.97944 0.0
O304 O 0.53473 0.10106 0.06259 0.0
O305 O 0.56037 0.10359 0.04255 0.0
O306 O 0.51321 0.09471 0.93548 0.0
O307 O 0.54025 0.10563 0.957 0.0
Co308 Co 0.90758 0.42478 0.00402 0.0
O309 O 0.88712 0.40262 0.00679 0.0
O310 O 0.91273 0.40795 0.03194 0.0
C311 C 0.90377 0.43058 0.92806 0.0
O312 O 0.93163 0.44609 0.00473 0.0
Co313 Co 0.90453 0.45753 0.98838 0.0
O314 O 0.92968 0.46863 0.97674 0.0
C315 C 0.89751 0.44119 0.08378 0.0
C316 C 0.89651 0.39679 0.02509 0.0
C317 C 0.93855 0.46185 0.9903 0.0
O318 O 0.90252 0.43078 0.0692 0.0
O319 O 0.89607 0.45179 0.05606 0.0
O320 O 0.91068 0.42112 0.93703 0.0
O321 O 0.89799 0.43484 0.96478 0.0
Co322 Co 0.57918 0.48515 0.0044 0.0
O323 O 0.60141 0.48701 0.00682 0.0
O324 O 0.59568 0.50659 0.03556 0.0
C325 C 0.57407 0.47713 0.92696 0.0
O326 O 0.55766 0.48758 0.00597 0.0
Co327 Co 0.54712 0.44932 0.98442 0.0
O328 O 0.53506 0.46274 0.98005 0.0
C329 C 0.56277 0.45698 0.08039 0.0
C330 C 0.60699 0.50179 0.02749 0.0
C331 C 0.54167 0.47834 -0.00614 0.0
O332 O 0.57282 0.47275 0.0679 0.0
O333 O 0.55265 0.44531 0.05109 0.0
O334 O 0.58327 0.49329 0.93848 0.0
O335 O 0.56971 0.46638 0.96206 0.0
Co336 Co 0.57334 0.81618 0.83238 0.0
O337 O 0.55253 0.81708 0.83991 0.0
O338 O 0.57811 0.83735 0.86495 0.0
C339 C 0.56902 0.80827 0.75488 0.0
O340 O 0.59771 0.81958 0.8288 0.0
Co341 Co 0.57055 0.78088 0.80868 0.0
O342 O 0.59584 0.79511 0.80085 0.0
C343 C 0.5648 0.78824 0.90757 0.0
C344 C 0.56173 0.83197 0.86003 0.0
C345 C 0.60466 0.81073 0.8146 0.0
O346 O 0.56928 0.80379 0.89549 0.0
O347 O 0.56313 0.77675 0.87741 0.0
O348 O 0.57548 0.82434 0.76675 0.0
O349 O 0.56386 0.79745 0.78993 0.0
Co350 Co 0.19013 0.75796 0.83469 0.0
O351 O 0.18823 0.73591 0.84559 0.0
O352 O 0.16827 0.74249 0.86542 0.0
C353 C 0.19907 0.76082 0.75805 0.0
O354 O 0.18763 0.77933 0.82789 0.0
Co355 Co 0.22599 0.78968 0.81221 0.0
O356 O 0.21256 0.80144 0.80073 0.0
C357 C 0.21721 0.77732 0.91171 0.0
C358 C 0.17319 0.73107 0.8639 0.0
C359 C 0.19684 0.79502 0.8132 0.0
O360 O 0.20173 0.76637 0.8987 0.0
O361 O 0.22911 0.78679 0.88206 0.0
O362 O 0.18281 0.7518 0.76855 0.0
O363 O 0.20943 0.76633 0.7942 0.0
Co364 Co 0.24609 0.42881 0.83888 0.0
O365 O 0.26812 0.44896 0.85078 0.0
O366 O 0.26097 0.42235 0.87221 0.0
C367 C 0.24412 0.43468 0.76162 0.0
O368 O 0.22491 0.40485 0.83183 0.0
Co369 Co 0.21402 0.43172 0.81098 0.0
O370 O 0.2033 0.40679 0.79706 0.0
C371 C 0.22513 0.43584 0.91205 0.0
C372 C 0.27251 0.43861 0.87054 0.0
C373 C 0.20971 0.39792 0.81326 0.0
O374 O 0.23703 0.43237 0.90123 0.0
O375 O 0.21523 0.43702 0.88111 0.0
O376 O 0.25309 0.42754 0.77381 0.0
O377 O 0.23791 0.43941 0.79641 0.0
Co378 Co 0.48198 0.90466 0.98918 0.0
O379 O 0.48298 0.88401 0.97907 0.0
O380 O 0.50344 0.90999 0.95734 0.0
C381 C 0.4734 0.89897 0.06596 0.0
O382 O 0.48534 0.92894 -0.00439 0.0
Co383 Co 0.44661 0.90174 0.01295 0.0
O384 O 0.46089 0.92679 0.02479 0.0
C385 C 0.45472 0.89761 0.91321 0.0
C386 C 0.49806 0.89355 0.96025 0.0
C387 C 0.47653 0.93576 0.01135 0.0
O388 O 0.47012 0.90164 0.9257 0.0
O389 O 0.44307 0.89567 0.9432 0.0
O390 O 0.48957 0.90567 0.055 0.0
O391 O 0.46287 0.89448 0.03031 0.0
Co392 Co 0.09815 0.5784 0.98023 0.0
O393 O 0.11842 0.60022 0.96831 0.0
O394 O 0.09193 0.5939 0.94884 0.0
C395 C 0.10434 0.57578 0.05696 0.0
O396 O 0.07419 0.55725 0.98813 0.0
Co397 Co 0.1021 0.54659 0.00362 0.0
O398 O 0.07696 0.5351 0.01547 0.0
C399 C 0.10581 0.55873 0.90397 0.0
C400 C 0.10833 0.60513 0.94969 0.0
C401 C 0.06771 0.54161 0.00329 0.0
O402 O 0.10108 0.56957 0.91652 0.0
O403 O 0.10835 0.54943 0.93398 0.0
O404 O 0.09726 0.58495 0.04616 0.0
O405 O 0.10901 0.57003 0.02098 0.0
Co406 Co 0.42508 0.52188 0.98705 0.0
O407 O 0.40309 0.52031 0.97843 0.0
O408 O 0.40914 0.50021 0.95637 0.0
C409 C 0.42864 0.53072 0.06371 0.0
O410 O 0.44623 0.51891 0.99197 0.0
Co411 Co 0.45749 0.55725 0.00881 0.0
O412 O 0.4682 0.54302 0.02338 0.0
C413 C 0.44432 0.54886 0.90987 0.0
C414 C 0.39782 0.50523 0.95986 0.0
C415 C 0.46162 0.52747 0.00916 0.0
O416 O 0.43312 0.53351 0.92305 0.0
O417 O 0.45432 0.56058 0.93925 0.0
O418 O 0.41935 0.51448 0.0532 0.0
O419 O 0.43408 0.54114 0.02768 0.0
Co420 Co 0.09843 0.51976 0.47855 0.0
O421 O 0.1182 0.51679 0.47403 0.0
O422 O 0.09228 0.49838 0.44564 0.0
C423 C 0.10212 0.52741 0.55628 0.0
O424 O 0.07486 0.51812 0.47932 0.0
Co425 Co 0.10274 0.55557 0.50173 0.0
O426 O 0.07754 0.54207 0.51339 0.0
C427 C 0.10913 0.54812 0.4034 0.0
C428 C 0.10818 0.50229 0.45289 0.0
C429 C 0.06831 0.52688 0.49695 0.0
O430 O 0.10423 0.53248 0.41559 0.0
O431 O 0.11059 0.55961 0.43328 0.0
O432 O 0.09467 0.51128 0.54406 0.0
O433 O 0.10848 0.53834 0.52153 0.0
Co434 Co 0.48548 0.57818 0.48552 0.0
O435 O 0.4873 0.60039 0.4827 0.0
O436 O 0.50696 0.59466 0.45444 0.0
C437 C 0.4773 0.57319 0.56285 0.0
O438 O 0.48793 0.55666 0.48424 0.0
Co439 Co 0.44963 0.54609 0.50559 0.0
O440 O 0.46302 0.53398 0.50952 0.0
C441 C 0.45744 0.5616 0.4094 0.0
C442 C 0.50211 0.60596 0.46215 0.0
C443 C 0.47865 0.54063 0.49588 0.0
O444 O 0.47318 0.57173 0.42197 0.0
O445 O 0.44575 0.5515 0.43868 0.0
O446 O 0.49348 0.58234 0.55157 0.0
O447 O 0.46663 0.56874 0.52754 0.0
Co448 Co 0.42554 0.90658 0.48657 0.0
O449 O 0.40274 0.88692 0.48178 0.0
O450 O 0.41057 0.91272 0.452 0.0
C451 C 0.42897 0.90308 0.56484 0.0
O452 O 0.44759 0.9301 0.48676 0.0
Co453 Co 0.45702 0.90261 0.51389 0.0
O454 O 0.46877 0.92789 0.52331 0.0
C455 C 0.44418 0.89622 0.4142 0.0
C456 C 0.39843 0.89691 0.4595 0.0
C457 C 0.46288 0.93688 0.50467 0.0
O458 O 0.43269 0.9003 0.42484 0.0
O459 O 0.45441 0.89553 0.44497 0.0
O460 O 0.42056 0.91071 0.55152 0.0
O461 O 0.43377 0.89664 0.53088 0.0
Co462 Co 0.19051 0.43223 0.33901 0.0
O463 O 0.18919 0.45283 0.34782 0.0
O464 O 0.16951 0.4269 0.37279 0.0
C465 C 0.19797 0.43696 0.26131 0.0
O466 O 0.18703 0.40789 0.33417 0.0
Co467 Co 0.22494 0.43391 0.31139 0.0
O468 O 0.20986 0.40916 0.29675 0.0
C469 C 0.21839 0.43876 0.41231 0.0
C470 C 0.17437 0.44315 0.368 0.0
C471 C 0.19473 0.40061 0.31413 0.0
O472 O 0.20332 0.43616 0.40133 0.0
O473 O 0.22915 0.43915 0.38147 0.0
O474 O 0.18196 0.43031 0.27403 0.0
O475 O 0.20906 0.44189 0.29574 0.0
Co476 Co 0.57445 0.75793 0.33237 0.0
O477 O 0.55376 0.73618 0.34117 0.0
O478 O 0.57961 0.74195 0.36544 0.0
C479 C 0.56964 0.761 0.25477 0.0
O480 O 0.59878 0.77873 0.32803 0.0
Co481 Co 0.57281 0.79077 0.3056 0.0
O482 O 0.59767 0.80058 0.29184 0.0
C483 C 0.56784 0.77897 0.40628 0.0
C484 C 0.56325 0.73082 0.36148 0.0
C485 C 0.60614 0.79388 0.30906 0.0
O486 O 0.57055 0.76659 0.39506 0.0
O487 O 0.56739 0.78937 0.37564 0.0
O488 O 0.57638 0.75165 0.26687 0.0
O489 O 0.56474 0.76695 0.28975 0.0
Co490 Co 0.24714 0.81764 0.33697 0.0
O491 O 0.2701 0.82108 0.33981 0.0
O492 O 0.26237 0.83914 0.36944 0.0
C493 C 0.24272 0.8099 0.25928 0.0
O494 O 0.22492 0.81879 0.33838 0.0
Co495 Co 0.21585 0.78162 0.31478 0.0
O496 O 0.20347 0.79461 0.30574 0.0
C497 C 0.23068 0.78919 0.41209 0.0
C498 C 0.27452 0.83554 0.36123 0.0
C499 C 0.20939 0.80977 0.32243 0.0
O500 O 0.24099 0.80494 0.39991 0.0
O501 O 0.22058 0.77764 0.38246 0.0
O502 O 0.25115 0.82606 0.27132 0.0
O503 O 0.23857 0.79904 0.29406 0.0
H504 H 0.23697 0.09412 0.82426 0.0
H505 H 0.21938 0.12966 0.78703 0.0
H506 H 0.23635 0.10058 0.90864 0.0
H507 H 0.21846 0.1358 0.8713 0.0
H508 H 0.24348 0.16075 0.01393 0.0
H509 H 0.24054 0.15151 0.93105 0.0
H510 H 0.21823 0.09858 0.97712 0.0
H511 H 0.22146 0.10792 0.06055 0.0
C512 C 0.23267 0.10307 0.83401 0.0
C513 C 0.22843 0.11153 0.79868 0.0
C514 C 0.23227 0.10672 0.88246 0.0
C515 C 0.22759 0.11889 0.89663 0.0
C516 C 0.22249 0.12665 0.86148 0.0
C517 C 0.22292 0.12304 0.81312 0.0
C518 C 0.23792 0.14714 0.00644 0.0
C519 C 0.23271 0.13506 0.04373 0.0
C520 C 0.2361 0.14182 0.95889 0.0
C521 C 0.22902 0.12429 0.94744 0.0
C522 C 0.22382 0.11218 0.98478 0.0
C523 C 0.22562 0.11752 0.0325 0.0
H524 H 0.8629 0.09685 0.78965 0.0
H525 H 0.91596 0.13436 0.82001 0.0
H526 H 0.8576 0.09018 0.87376 0.0
H527 H 0.91105 0.12685 0.90467 0.0
H528 H 0.89058 0.12419 0.05717 0.0
H529 H 0.89843 0.13006 0.97292 0.0
H530 H 0.86107 0.07709 0.93892 0.0
H531 H 0.85236 0.07192 0.02231 0.0
C532 C 0.87357 0.10339 0.81434 0.0
C533 C 0.88983 0.11614 0.79825 0.0
C534 C 0.87058 0.09947 0.86282 0.0
C535 C 0.88389 0.10789 0.89654 0.0
C536 C 0.90036 0.12031 0.88011 0.0
C537 C 0.90324 0.12453 0.83152 0.0
C538 C 0.88414 0.11388 0.0314 0.0
C539 C 0.87072 0.09772 0.04571 0.0
C540 C 0.8887 0.11716 0.98312 0.0
C541 C 0.88024 0.10413 0.94854 0.0
C542 C 0.86748 0.08766 0.96389 0.0
C543 C 0.86255 0.0846 0.01177 0.0
H544 H 0.93055 0.77445 0.01167 0.0
H545 H 0.88097 0.76789 0.04976 0.0
H546 H 0.92493 0.77694 0.92796 0.0
H547 H 0.87452 0.76889 0.96558 0.0
H548 H 0.87158 0.78328 0.81226 0.0
H549 H 0.87899 0.78459 0.89674 0.0
H550 H 0.90994 0.76116 0.8637 0.0
H551 H 0.90354 0.76115 0.77968 0.0
C552 C 0.91832 0.77331 0.00185 0.0
C553 C 0.90616 0.7709 0.03692 0.0
C554 C 0.91499 0.77459 0.95375 0.0
C555 C 0.89913 0.77289 0.93938 0.0
C556 C 0.88699 0.77056 0.97493 0.0
C557 C 0.89058 0.76982 0.02325 0.0
C558 C 0.88013 0.77863 0.82332 0.0
C559 C 0.88713 0.77228 0.78946 0.0
C560 C 0.88428 0.77921 0.8718 0.0
C561 C 0.89514 0.77301 0.88758 0.0
C562 C 0.90196 0.76654 0.8533 0.0
C563 C 0.8982 0.76641 0.80491 0.0
H564 H 0.16311 0.24496 0.46206 0.0
H565 H 0.11025 0.22364 0.4163 0.0
H566 H 0.15405 0.24249 0.54511 0.0
H567 H 0.10113 0.221 0.49983 0.0
H568 H 0.13112 0.21914 0.68757 0.0
H569 H 0.13754 0.21934 0.60312 0.0
H570 H 0.10412 0.23974 0.56947 0.0
H571 H 0.09742 0.23936 0.65423 0.0
C572 C 0.14954 0.23971 0.46977 0.0
C573 C 0.13738 0.23444 0.43274 0.0
C574 C 0.14434 0.23819 0.51736 0.0
C575 C 0.12686 0.2314 0.52899 0.0
C576 C 0.11469 0.22633 0.49191 0.0
C577 C 0.1199 0.22778 0.44417 0.0
C578 C 0.12499 0.22354 0.66229 0.0
C579 C 0.11389 0.22941 0.67788 0.0
C580 C 0.12876 0.22373 0.61386 0.0
C581 C 0.12153 0.22978 0.57978 0.0
C582 C 0.10984 0.23495 0.59495 0.0
C583 C 0.10606 0.23478 0.64354 0.0
H584 H 0.78352 0.88872 0.43299 0.0
H585 H 0.75989 0.91809 0.47964 0.0
H586 H 0.78733 0.88307 0.51641 0.0
H587 H 0.76347 0.91229 0.56255 0.0
H588 H 0.78616 0.91335 0.70542 0.0
H589 H 0.78656 0.91989 0.62088 0.0
H590 H 0.76943 0.8668 0.58574 0.0
H591 H 0.76928 0.86023 0.67035 0.0
C592 C 0.7791 0.89391 0.46104 0.0
C593 C 0.77142 0.90385 0.44988 0.0
C594 C 0.78125 0.89066 0.50873 0.0
C595 C 0.77583 0.89736 0.54602 0.0
C596 C 0.76808 0.90722 0.53466 0.0
C597 C 0.76589 0.91042 0.48713 0.0
C598 C 0.78269 0.90309 0.67975 0.0
C599 C 0.77745 0.8862 0.69485 0.0
C600 C 0.78283 0.90683 0.63128 0.0
C601 C 0.77775 0.8938 0.59675 0.0
C602 C 0.77346 0.87713 0.61151 0.0
C603 C 0.77332 0.87337 0.66007 0.0
H604 H 0.13456 0.91326 0.6766 0.0
H605 H 0.1033 0.85903 0.70819 0.0
H606 H 0.12694 0.90733 0.59212 0.0
H607 H 0.09667 0.85287 0.62427 0.0
H608 H 0.0752 0.84561 0.47789 0.0
H609 H 0.08113 0.85386 0.56136 0.0
H610 H 0.13132 0.89619 0.52231 0.0
H611 H 0.12458 0.88856 0.43819 0.0
C612 C 0.12612 0.90007 0.66537 0.0
C613 C 0.11937 0.88663 0.69898 0.0
C614 C 0.12185 0.89662 0.61689 0.0
C615 C 0.11108 0.87959 0.60091 0.0
C616 C 0.10454 0.86621 0.6349 0.0
C617 C 0.10845 0.86971 0.68325 0.0
C618 C 0.08745 0.85674 0.4873 0.0
C619 C 0.09948 0.8664 0.45185 0.0
C620 C 0.09096 0.86142 0.53526 0.0
C621 C 0.10687 0.87557 0.54918 0.0
C622 C 0.11884 0.88537 0.51327 0.0
C623 C 0.11507 0.88094 0.46502 0.0
H624 H 0.76879 0.90963 0.17051 0.0
H625 H 0.78595 0.87347 0.20435 0.0
H626 H 0.76816 0.90282 0.08588 0.0
H627 H 0.78553 0.86694 0.11986 0.0
H628 H 0.75874 0.84201 0.97924 0.0
H629 H 0.76215 0.85137 0.0622 0.0
H630 H 0.78584 0.90439 0.01595 0.0
H631 H 0.7822 0.89497 0.93259 0.0
C632 C 0.77272 0.90046 0.15995 0.0
C633 C 0.77722 0.89194 0.19443 0.0
C634 C 0.77239 0.89661 0.11139 0.0
C635 C 0.77654 0.88415 0.09633 0.0
C636 C 0.7819 0.87632 0.13051 0.0
C637 C 0.78225 0.88017 0.17895 0.0
C638 C 0.76464 0.85566 0.98674 0.0
C639 C 0.77023 0.86776 0.94948 0.0
C640 C 0.76673 0.86104 0.03427 0.0
C641 C 0.77443 0.87863 0.04561 0.0
C642 C 0.77981 0.89074 0.0083 0.0
C643 C 0.77776 0.88535 0.96064 0.0
H644 H 0.09673 0.85935 0.17218 0.0
H645 H 0.13308 0.91231 0.20833 0.0
H646 H 0.10392 0.86592 0.08793 0.0
H647 H 0.13996 0.91888 0.1241 0.0
H648 H 0.16437 0.91828 0.98095 0.0
H649 H 0.15536 0.91213 0.06424 0.0
H650 H 0.10224 0.88187 0.0194 0.0
H651 H 0.11132 0.88777 0.93594 0.0
C652 C 0.10605 0.87245 0.1622 0.0
C653 C 0.11444 0.88525 0.19723 0.0
C654 C 0.11013 0.87622 0.11381 0.0
C655 C 0.12266 0.89288 0.09936 0.0
C656 C 0.13051 0.90583 0.13416 0.0
C657 C 0.12646 0.90207 0.18248 0.0
C658 C 0.15077 0.9103 0.98888 0.0
C659 C 0.13855 0.9035 0.95196 0.0
C660 C 0.14558 0.90688 0.03662 0.0
C661 C 0.12806 0.89659 0.04849 0.0
C662 C 0.11584 0.88972 0.01146 0.0
C663 C 0.12104 0.89315 0.96367 0.0
H664 H 0.12576 0.23786 0.92038 0.0
H665 H 0.07254 0.21936 0.95608 0.0
H666 H 0.1322 0.23622 0.00432 0.0
H667 H 0.07836 0.21608 0.03915 0.0
H668 H 0.09718 0.23434 0.18854 0.0
H669 H 0.0904 0.23275 0.10457 0.0
H670 H 0.13068 0.22097 0.07237 0.0
H671 H 0.13822 0.22379 0.15705 0.0
C672 C 0.11538 0.23307 0.94625 0.0
C673 C 0.09874 0.22898 0.93231 0.0
C674 C 0.119 0.23196 -0.00563 0.0
C675 C 0.10587 0.22625 0.02916 0.0
C676 C 0.08898 0.22116 0.01407 0.0
C677 C 0.08555 0.22286 0.96638 0.0
C678 C 0.10453 0.23128 0.16362 0.0
C679 C 0.11825 0.22921 0.17946 0.0
C680 C 0.10053 0.23021 0.11518 0.0
C681 C 0.10987 0.2266 0.08111 0.0
C682 C 0.12336 0.22406 0.0972 0.0
C683 C 0.12762 0.22554 0.14581 0.0
H684 H 0.91499 0.78412 0.3128 0.0
H685 H 0.86115 0.76325 0.2792 0.0
H686 H 0.90873 0.7851 0.39732 0.0
H687 H 0.85459 0.76293 0.36315 0.0
H688 H 0.84704 0.7751 0.51206 0.0
H689 H 0.85546 0.77828 0.42851 0.0
H690 H 0.89706 0.76888 0.46512 0.0
H691 H 0.88932 0.7672 0.54926 0.0
C692 C 0.90182 0.7797 0.32362 0.0
C693 C 0.88859 0.77377 0.28947 0.0
C694 C 0.89816 0.78008 0.37212 0.0
C695 C 0.88111 0.7741 0.3876 0.0
C696 C 0.86794 0.76812 0.35302 0.0
C697 C 0.87167 0.76818 0.30464 0.0
C698 C 0.85803 0.77381 0.50205 0.0
C699 C 0.86749 0.77083 0.53683 0.0
C700 C 0.86283 0.77549 0.45404 0.0
C701 C 0.87687 0.77362 0.43942 0.0
C702 C 0.88637 0.77071 0.47468 0.0
C703 C 0.88187 0.76958 0.52297 0.0
H704 H 0.22404 0.11489 0.55971 0.0
H705 H 0.24782 0.08539 0.51563 0.0
H706 H 0.22129 0.12101 0.47597 0.0
H707 H 0.24534 0.09171 0.43232 0.0
H708 H 0.22292 0.09081 0.28777 0.0
H709 H 0.22304 0.0844 0.37219 0.0
H710 H 0.23931 0.13729 0.4075 0.0
H711 H 0.23891 0.14372 0.32298 0.0
C712 C 0.22874 0.10978 0.53215 0.0
C713 C 0.2361 0.09963 0.54417 0.0
C714 C 0.22722 0.11333 0.48425 0.0
C715 C 0.23298 0.10674 0.44749 0.0
C716 C 0.24048 0.09672 0.45971 0.0
C717 C 0.24203 0.09321 0.50749 0.0
C718 C 0.22637 0.10107 0.31344 0.0
C719 C 0.23105 0.11784 0.29838 0.0
C720 C 0.22655 0.0974 0.36188 0.0
C721 C 0.23141 0.11039 0.39649 0.0
C722 C 0.23542 0.12698 0.38173 0.0
C723 C 0.23524 0.13067 0.3332 0.0
H724 H 0.91975 0.16249 0.51766 0.0
H725 H 0.8888 0.10934 0.5614 0.0
H726 H 0.91361 0.1538 0.4342 0.0
H727 H 0.88284 0.10059 0.47763 0.0
H728 H 0.86081 0.09637 0.32416 0.0
H729 H 0.86708 0.10314 0.40877 0.0
H730 H 0.9205 0.13817 0.37471 0.0
H731 H 0.91428 0.13169 0.29022 0.0
C732 C 0.91167 0.14894 0.50941 0.0
C733 C 0.90477 0.1366 0.54601 0.0
C734 C 0.90825 0.14395 0.46159 0.0
C735 C 0.89784 0.12649 0.44931 0.0
C736 C 0.89082 0.11414 0.48598 0.0
C737 C 0.89429 0.11915 0.5339 0.0
C738 C 0.87394 0.10538 0.33469 0.0
C739 C 0.887 0.11361 0.30021 0.0
C740 C 0.87753 0.10921 0.38324 0.0
C741 C 0.89424 0.12133 0.39834 0.0
C742 C 0.90742 0.12903 0.36409 0.0
C743 C 0.90385 0.12522 0.31563 0.0
H744 H 0.90492 0.42572 0.15793 0.0
H745 H 0.88435 0.45934 0.12754 0.0
H746 H 0.90538 0.43199 0.24327 0.0
H747 H 0.88484 0.46545 0.21233 0.0
H748 H 0.88999 0.44088 0.39894 0.0
H749 H 0.88615 0.43018 0.31648 0.0
H750 H 0.91147 0.48254 0.26441 0.0
H751 H 0.91529 0.49319 0.34601 0.0
C752 C 0.90018 0.43415 0.16939 0.0
C753 C 0.89491 0.4423 0.13572 0.0
C754 C 0.90043 0.4377 0.21825 0.0
C755 C 0.89547 0.44946 0.23409 0.0
C756 C 0.88908 0.45661 0.20084 0.0
C757 C 0.88877 0.45306 0.15226 0.0
C758 C 0.89479 0.45007 0.36978 0.0
C759 C 0.9028 0.46787 0.3788 0.0
C760 C 0.89261 0.44394 0.32276 0.0
C761 C 0.89828 0.45554 0.28421 0.0
C762 C 0.90666 0.47331 0.29347 0.0
C763 C 0.90892 0.47941 0.34022 0.0
H764 H 0.54569 0.42478 0.11996 0.0
H765 H 0.57692 0.4786 0.15739 0.0
H766 H 0.54005 0.41738 0.20418 0.0
H767 H 0.57098 0.47112 0.24185 0.0
H768 H 0.51276 0.41504 0.34488 0.0
H769 H 0.52243 0.42193 0.26249 0.0
H770 H 0.57449 0.45581 0.31108 0.0
H771 H 0.5647 0.44902 0.39413 0.0
C772 C 0.55151 0.43504 0.1461 0.0
C773 C 0.56157 0.45233 0.13173 0.0
C774 C 0.54819 0.43078 0.19443 0.0
C775 C 0.55481 0.44369 0.22963 0.0
C776 C 0.56572 0.46087 0.21558 0.0
C777 C 0.56908 0.46516 0.16712 0.0
C778 C 0.52628 0.42392 0.33808 0.0
C779 C 0.53797 0.4315 0.37596 0.0
C780 C 0.53186 0.42777 0.2908 0.0
C781 C 0.54926 0.43932 0.28021 0.0
C782 C 0.56099 0.44692 0.31813 0.0
C783 C 0.5554 0.44299 0.36561 0.0
H784 H 0.54757 0.1002 0.38381 0.0
H785 H 0.59785 0.10819 0.34761 0.0
H786 H 0.54164 0.10176 0.29945 0.0
H787 H 0.5927 0.11121 0.26385 0.0
H788 H 0.57163 0.09483 0.11508 0.0
H789 H 0.57808 0.09523 0.19914 0.0
H790 H 0.54641 0.11794 0.23105 0.0
H791 H 0.539 0.11633 0.14652 0.0
C792 C 0.55744 0.10257 0.35769 0.0
C793 C 0.57306 0.10386 0.37186 0.0
C794 C 0.55415 0.10364 0.30931 0.0
C795 C 0.56662 0.10649 0.2743 0.0
C796 C 0.58253 0.10846 0.28924 0.0
C797 C 0.58558 0.10686 0.33734 0.0
C798 C 0.56616 0.10005 0.14 0.0
C799 C 0.55483 0.10557 0.12422 0.0
C800 C 0.56995 0.1004 0.18843 0.0
C801 C 0.56287 0.1067 0.2224 0.0
C802 C 0.55187 0.11268 0.2063 0.0
C803 C 0.54773 0.11192 0.15778 0.0
H804 H 0.8299 0.58035 0.80629 0.0
H805 H 0.77651 0.55499 0.76275 0.0
H806 H 0.82117 0.57779 0.88965 0.0
H807 H 0.76771 0.55217 0.84656 0.0
H808 H 0.76243 0.57019 -0.00089 0.0
H809 H 0.76903 0.57027 0.91453 0.0
H810 H 0.80677 0.55547 0.95026 0.0
H811 H 0.80046 0.55566 0.03471 0.0
C812 C 0.81628 0.57418 0.81456 0.0
C813 C 0.80389 0.56785 0.77802 0.0
C814 C 0.81127 0.57259 0.86236 0.0
C815 C 0.79373 0.56463 0.87475 0.0
C816 C 0.78132 0.55844 0.83814 0.0
C817 C 0.78635 0.56001 0.7902 0.0
C818 C 0.772 0.56676 0.98897 0.0
C819 C 0.78104 0.5631 0.0239 0.0
C820 C 0.77574 0.56675 0.94042 0.0
C821 C 0.78858 0.5631 0.92576 0.0
C822 C 0.79706 0.5587 0.9605 0.0
C823 C 0.79334 0.5587 0.00895 0.0
H824 H 0.44473 0.26465 0.80015 0.0
H825 H 0.4372 0.21459 0.7635 0.0
H826 H 0.44781 0.25946 0.88384 0.0
H827 H 0.43879 0.2086 0.84774 0.0
H828 H 0.45259 0.20549 0.00123 0.0
H829 H 0.45448 0.21305 0.9167 0.0
H830 H 0.43182 0.24479 0.94826 0.0
H831 H 0.43122 0.23822 0.03231 0.0
C832 C 0.44357 0.25243 0.81028 0.0
C833 C 0.44063 0.23998 0.77563 0.0
C834 C 0.44518 0.24935 0.85836 0.0
C835 C 0.44328 0.23346 0.8732 0.0
C836 C 0.4406 0.22109 0.83803 0.0
C837 C 0.43952 0.22443 0.78966 0.0
C838 C 0.44826 0.21426 0.98986 0.0
C839 C 0.4419 0.22139 0.02331 0.0
C840 C 0.44918 0.2185 0.94134 0.0
C841 C 0.44332 0.22959 0.92512 0.0
C842 C 0.43694 0.23662 0.95901 0.0
C843 C 0.43646 0.23276 0.00744 0.0
H844 H 0.79179 0.22338 0.76702 0.0
H845 H 0.73935 0.18534 0.80091 0.0
H846 H 0.79736 0.23141 0.8512 0.0
H847 H 0.74421 0.19423 0.88416 0.0
H848 H 0.76362 0.19615 0.03412 0.0
H849 H 0.75697 0.19085 0.95008 0.0
H850 H 0.79404 0.24415 0.9189 0.0
H851 H 0.80154 0.24906 0.00356 0.0
C852 C 0.78138 0.21701 0.79255 0.0
C853 C 0.76526 0.20359 0.77801 0.0
C854 C 0.78447 0.22169 0.84078 0.0
C855 C 0.77131 0.21334 0.87509 0.0
C856 C 0.75488 0.20056 0.85945 0.0
C857 C 0.752 0.19553 0.81165 0.0
C858 C 0.77023 0.20681 0.00942 0.0
C859 C 0.78313 0.22301 0.02545 0.0
C860 C 0.76632 0.20381 0.96094 0.0
C861 C 0.7749 0.21706 0.92713 0.0
C862 C 0.78738 0.23351 0.94352 0.0
C863 C 0.7916 0.23639 0.99212 0.0
H864 H 0.44941 0.24642 0.50062 0.0
H865 H 0.42767 0.19243 0.53345 0.0
H866 H 0.45034 0.2403 0.41604 0.0
H867 H 0.42726 0.18599 0.44922 0.0
H868 H 0.44063 0.17905 0.30054 0.0
H869 H 0.44291 0.18688 0.38441 0.0
H870 H 0.43444 0.22906 0.34768 0.0
H871 H 0.43366 0.2219 0.26333 0.0
C872 C 0.44473 0.23323 0.48956 0.0
C873 C 0.43861 0.21992 0.52348 0.0
C874 C 0.44509 0.22965 0.44102 0.0
C875 C 0.43889 0.2126 0.42527 0.0
C876 C 0.43262 0.19933 0.45961 0.0
C877 C 0.43272 0.20298 0.50809 0.0
C878 C 0.43934 0.19004 0.31061 0.0
C879 C 0.43692 0.19986 0.27574 0.0
C880 C 0.4405 0.19448 0.35879 0.0
C881 C 0.43867 0.20854 0.37344 0.0
C882 C 0.43624 0.21836 0.33811 0.0
C883 C 0.43562 0.21419 0.2897 0.0
H884 H 0.802 0.24622 0.53326 0.0
H885 H 0.76394 0.19352 0.49981 0.0
H886 H 0.80874 0.25204 0.44875 0.0
H887 H 0.77097 0.19936 0.4152 0.0
H888 H 0.77776 0.2217 0.26301 0.0
H889 H 0.76938 0.21578 0.34698 0.0
H890 H 0.82302 0.24391 0.38824 0.0
H891 H 0.83137 0.25006 0.30448 0.0
C892 C 0.79499 0.23588 0.50795 0.0
C893 C 0.78248 0.21936 0.52352 0.0
C894 C 0.79896 0.23921 0.45949 0.0
C895 C 0.79053 0.22611 0.42537 0.0
C896 C 0.77762 0.20975 0.44063 0.0
C897 C 0.77363 0.2064 0.48918 0.0
C898 C 0.78775 0.22659 0.29006 0.0
C899 C 0.80521 0.23641 0.27726 0.0
C900 C 0.78295 0.22314 0.3381 0.0
C901 C 0.79553 0.22947 0.37424 0.0
C902 C 0.81301 0.2391 0.36127 0.0
C903 C 0.8178 0.24253 0.31329 0.0
H904 H 0.81018 0.56841 0.49872 0.0
H905 H 0.75715 0.55171 0.53456 0.0
H906 H 0.80353 0.56836 0.41428 0.0
H907 H 0.7505 0.55136 0.45009 0.0
H908 H 0.75205 0.57775 0.30825 0.0
H909 H 0.7577 0.57403 0.39122 0.0
H910 H 0.78749 0.55079 0.34513 0.0
H911 H 0.78204 0.55478 0.26174 0.0
C912 C 0.79704 0.56443 0.48864 0.0
C913 C 0.78426 0.5603 0.52362 0.0
C914 C 0.79322 0.56434 0.44015 0.0
C915 C 0.77655 0.56011 0.42557 0.0
C916 C 0.76356 0.55506 0.4603 0.0
C917 C 0.76737 0.55516 0.50874 0.0
C918 C 0.75981 0.57185 0.31578 0.0
C919 C 0.76663 0.56658 0.27853 0.0
C920 C 0.76292 0.56957 0.36335 0.0
C921 C 0.77293 0.56199 0.37479 0.0
C922 C 0.77981 0.55676 0.33747 0.0
C923 C 0.77666 0.55901 0.28976 0.0
H924 H 0.52766 0.09526 0.6145 0.0
H925 H 0.58151 0.11598 0.64778 0.0
H926 H 0.52116 0.0948 0.69854 0.0
H927 H 0.5753 0.1168 0.73241 0.0
H928 H 0.55595 0.09863 0.88415 0.0
H929 H 0.56356 0.10033 0.79989 0.0
H930 H 0.52217 0.11014 0.76418 0.0
H931 H 0.51387 0.10695 0.84783 0.0
C932 C 0.5382 0.10013 0.63988 0.0
C933 C 0.5551 0.10571 0.62459 0.0
C934 C 0.5345 0.09998 0.68831 0.0
C935 C 0.54768 0.10586 0.72282 0.0
C936 C 0.56471 0.11185 0.70724 0.0
C937 C 0.56835 0.11156 0.65868 0.0
C938 C 0.5485 0.10107 0.85802 0.0
C939 C 0.53422 0.10245 0.87215 0.0
C940 C 0.55294 0.10223 0.80969 0.0
C941 C 0.54346 0.10529 0.77466 0.0
C942 C 0.5295 0.10724 0.78954 0.0
C943 C 0.52477 0.10555 0.8376 0.0
H944 H 0.88365 0.42656 0.62798 0.0
H945 H 0.90656 0.48102 0.65797 0.0
H946 H 0.88404 0.42084 0.71276 0.0
H947 H 0.90687 0.4751 0.74335 0.0
H948 H 0.91436 0.42243 0.84624 0.0
H949 H 0.91091 0.42961 0.76459 0.0
H950 H 0.88684 0.45788 0.81664 0.0
H951 H 0.89025 0.45062 0.89908 0.0
C952 C 0.88856 0.43731 0.65262 0.0
C953 C 0.89538 0.45429 0.63595 0.0
C954 C 0.88881 0.43401 0.70119 0.0
C955 C 0.89579 0.44757 0.73431 0.0
C956 C 0.90146 0.46443 0.71839 0.0
C957 C 0.90129 0.46779 0.66953 0.0
C958 C 0.90834 0.43019 0.84042 0.0
C959 C 0.90244 0.43584 0.87899 0.0
C960 C 0.9063 0.43423 0.79367 0.0
C961 C 0.89839 0.44408 0.78441 0.0
C962 C 0.89295 0.45023 0.82294 0.0
C963 C 0.89487 0.44605 0.86995 0.0
H964 H 0.52717 0.42871 0.65482 0.0
H965 H 0.57979 0.46711 0.62166 0.0
H966 H 0.53285 0.43587 0.73949 0.0
H967 H 0.58544 0.47398 0.70611 0.0
H968 H 0.58279 0.49743 0.84781 0.0
H969 H 0.57666 0.48837 0.76467 0.0
H970 H 0.54943 0.43507 0.80926 0.0
H971 H 0.55538 0.44419 0.89287 0.0
C972 C 0.54 0.4385 0.66553 0.0
C973 C 0.55297 0.44745 0.63122 0.0
C974 C 0.54326 0.44256 0.71412 0.0
C975 C 0.55953 0.45565 0.7294 0.0
C976 C 0.57266 0.46408 0.69534 0.0
C977 C 0.56943 0.46004 0.64689 0.0
C978 C 0.57545 0.48378 0.83993 0.0
C979 C 0.56962 0.47151 0.87682 0.0
C980 C 0.57204 0.47858 0.79226 0.0
C981 C 0.56273 0.461 0.78035 0.0
C982 C 0.55659 0.44872 0.81732 0.0
C983 C 0.56004 0.45393 0.86514 0.0
H984 H 0.57045 0.78077 0.7182 0.0
H985 H 0.56386 0.82365 0.67857 0.0
H986 H 0.56946 0.77308 0.63411 0.0
H987 H 0.56142 0.81533 0.59512 0.0
H988 H 0.57773 0.80984 0.44771 0.0
H989 H 0.57757 0.81618 0.53164 0.0
H990 H 0.5539 0.76182 0.56467 0.0
H991 H 0.55531 0.75573 0.48018 0.0
C992 C 0.56851 0.78836 0.69139 0.0
C993 C 0.56744 0.8029 0.70458 0.0
C994 C 0.56779 0.7839 0.64314 0.0
C995 C 0.56551 0.79364 0.60723 0.0
C996 C 0.56376 0.8078 0.62118 0.0
C997 C 0.56501 0.81253 0.66914 0.0
C998 C 0.57238 0.79922 0.47287 0.0
C999 C 0.56645 0.78228 0.45736 0.0
C1000 C 0.57216 0.80283 0.52123 0.0
C1001 C 0.56556 0.78953 0.55549 0.0
C1002 C 0.55935 0.77248 0.53972 0.0
C1003 C 0.55999 0.76893 0.49123 0.0
H1004 H 0.21199 0.75712 0.45187 0.0
H1005 H 0.24568 0.81059 0.48907 0.0
H1006 H 0.20598 0.74993 0.53614 0.0
H1007 H 0.23939 0.80335 0.57349 0.0
H1008 H 0.17969 0.74929 0.67734 0.0
H1009 H 0.18932 0.75573 0.59477 0.0
H1010 H 0.24186 0.78748 0.64266 0.0
H1011 H 0.23213 0.78116 0.72582 0.0
C1012 C 0.21827 0.76734 0.47796 0.0
C1013 C 0.22916 0.78449 0.46349 0.0
C1014 C 0.21473 0.76321 0.52631 0.0
C1015 C 0.22197 0.77611 0.56145 0.0
C1016 C 0.23364 0.7931 0.5473 0.0
C1017 C 0.23721 0.79725 0.49883 0.0
C1018 C 0.19331 0.75762 0.67034 0.0
C1019 C 0.20515 0.76473 0.70806 0.0
C1020 C 0.19885 0.7612 0.62296 0.0
C1021 C 0.21638 0.77201 0.61211 0.0
C1022 C 0.22827 0.77917 0.64988 0.0
C1023 C 0.2227 0.77551 0.69744 0.0
H1024 H 0.23903 0.42833 0.45349 0.0
H1025 H 0.2081 0.45158 0.48634 0.0
H1026 H 0.24521 0.42797 0.53751 0.0
H1027 H 0.21532 0.45251 0.57085 0.0
H1028 H 0.21606 0.43463 0.72339 0.0
H1029 H 0.21021 0.43648 0.63921 0.0
H1030 H 0.26013 0.44304 0.60269 0.0
H1031 H 0.26513 0.43971 0.68636 0.0
C1032 C 0.23388 0.43376 0.47876 0.0
C1033 C 0.22313 0.44003 0.46335 0.0
C1034 C 0.23753 0.43368 0.52719 0.0
C1035 C 0.23091 0.44032 0.56159 0.0
C1036 C 0.22043 0.44697 0.54584 0.0
C1037 C 0.21639 0.44662 0.49732 0.0
C1038 C 0.22571 0.43644 0.69715 0.0
C1039 C 0.24094 0.43685 0.71113 0.0
C1040 C 0.22246 0.43767 0.64879 0.0
C1041 C 0.23462 0.43981 0.6135 0.0
C1042 C 0.25017 0.44086 0.62822 0.0
C1043 C 0.25315 0.43911 0.67632 0.0
H1044 H 0.44682 0.90169 0.10403 0.0
H1045 H 0.48678 0.89014 0.13993 0.0
H1046 H 0.43872 0.89938 0.18811 0.0
H1047 H 0.47789 0.88626 0.22313 0.0
H1048 H 0.47406 0.90236 0.37284 0.0
H1049 H 0.48002 0.9018 0.28896 0.0
H1050 H 0.42637 0.88341 0.25595 0.0
H1051 H 0.42078 0.88529 0.34057 0.0
C1052 C 0.45364 0.89834 0.12999 0.0
C1053 C 0.46756 0.89634 0.11593 0.0
C1054 C 0.44892 0.89684 0.17821 0.0
C1055 C 0.45773 0.89281 0.21308 0.0
C1056 C 0.47113 0.88997 0.19802 0.0
C1057 C 0.47619 0.89205 0.1502 0.0
C1058 C 0.46348 0.89801 0.34777 0.0
C1059 C 0.44695 0.89384 0.36334 0.0
C1060 C 0.46686 0.89756 0.29935 0.0
C1061 C 0.45369 0.89246 0.26504 0.0
C1062 C 0.43696 0.88773 0.28092 0.0
C1063 C 0.43368 0.88863 0.3295 0.0
H1064 H 0.11751 0.55589 0.08966 0.0
H1065 H 0.0959 0.58695 0.13743 0.0
H1066 H 0.12098 0.54973 0.17289 0.0
H1067 H 0.09909 0.58062 0.22015 0.0
H1068 H 0.12094 0.57996 0.36332 0.0
H1069 H 0.12143 0.58691 0.2791 0.0
H1070 H 0.10314 0.53374 0.24204 0.0
H1071 H 0.10292 0.52676 0.32641 0.0
C1072 C 0.11349 0.56138 0.11791 0.0
C1073 C 0.10645 0.57192 0.10705 0.0
C1074 C 0.11542 0.5578 0.16553 0.0
C1075 C 0.11042 0.56477 0.20317 0.0
C1076 C 0.10338 0.57531 0.19209 0.0
C1077 C 0.10142 0.57883 0.14463 0.0
C1078 C 0.11723 0.56975 0.3373 0.0
C1079 C 0.11171 0.55274 0.35187 0.0
C1080 C 0.11741 0.57373 0.28897 0.0
C1081 C 0.11207 0.56083 0.25391 0.0
C1082 C 0.1074 0.544 0.26814 0.0
C1083 C 0.10723 0.53999 0.31659 0.0
H1084 H 0.41731 0.51125 0.14425 0.0
H1085 H 0.4495 0.56366 0.09585 0.0
H1086 H 0.42405 0.52079 0.2268 0.0
H1087 H 0.45614 0.5733 0.17903 0.0
H1088 H 0.4254 0.54361 0.36928 0.0
H1089 H 0.41831 0.53781 0.28496 0.0
H1090 H 0.47196 0.57029 0.24824 0.0
H1091 H 0.47914 0.57636 0.33281 0.0
C1092 C 0.42578 0.52484 0.15128 0.0
C1093 C 0.43286 0.53671 0.11362 0.0
C1094 C 0.42954 0.53033 0.19862 0.0
C1095 C 0.4405 0.54782 0.20945 0.0
C1096 C 0.44769 0.55973 0.17176 0.0
C1097 C 0.44386 0.55422 0.12422 0.0
C1098 C 0.4357 0.54973 0.34333 0.0
C1099 C 0.45289 0.56027 0.35799 0.0
C1100 C 0.43162 0.54632 0.29497 0.0
C1101 C 0.44462 0.55335 0.26005 0.0
C1102 C 0.46166 0.56471 0.27434 0.0
C1103 C 0.46576 0.56815 0.32285 0.0
H1104 H 0.11515 0.53686 0.8631 0.0
H1105 H 0.09966 0.57416 0.8274 0.0
H1106 H 0.11499 0.53023 0.77882 0.0
H1107 H 0.0993 0.56727 0.74282 0.0
H1108 H 0.11574 0.56017 0.59129 0.0
H1109 H 0.1179 0.56893 0.675 0.0
H1110 H 0.0926 0.5155 0.71817 0.0
H1111 H 0.09065 0.5068 0.6349 0.0
C1112 C 0.1118 0.54374 0.83735 0.0
C1113 C 0.10729 0.55597 0.85225 0.0
C1114 C 0.1116 0.53984 0.78898 0.0
C1115 C 0.10692 0.54806 0.75421 0.0
C1116 C 0.10303 0.56076 0.76877 0.0
C1117 C 0.10319 0.56466 0.81729 0.0
C1118 C 0.11064 0.55032 0.61873 0.0
C1119 C 0.10309 0.53281 0.6066 0.0
C1120 C 0.11182 0.55533 0.6666 0.0
C1121 C 0.10553 0.54291 0.70321 0.0
C1122 C 0.09784 0.5254 0.69087 0.0
C1123 C 0.09661 0.5204 0.64312 0.0
H1124 H 0.42865 0.52679 0.83464 0.0
H1125 H 0.46587 0.57983 0.86734 0.0
H1126 H 0.43578 0.53249 0.75001 0.0
H1127 H 0.47273 0.5855 0.78283 0.0
H1128 H 0.49728 0.58276 0.64273 0.0
H1129 H 0.48786 0.57699 0.72568 0.0
H1130 H 0.43479 0.54862 0.67939 0.0
H1131 H 0.44426 0.55422 0.59603 0.0
C1132 C 0.43814 0.53972 0.82382 0.0
C1133 C 0.44683 0.55279 0.858 0.0
C1134 C 0.44219 0.54299 0.77525 0.0
C1135 C 0.455 0.55937 0.75986 0.0
C1136 C 0.46307 0.57263 0.79373 0.0
C1137 C 0.45904 0.56939 0.84219 0.0
C1138 C 0.4836 0.57524 0.65021 0.0
C1139 C 0.4715 0.56898 0.61292 0.0
C1140 C 0.4782 0.57206 0.69775 0.0
C1141 C 0.46057 0.56251 0.7091 0.0
C1142 C 0.44846 0.55597 0.67176 0.0
C1143 C 0.45388 0.55921 0.62408 0.0
H1144 H 0.42391 0.8898 0.8721 0.0
H1145 H 0.47613 0.90301 0.83693 0.0
H1146 H 0.41781 0.89059 0.78776 0.0
H1147 H 0.47 0.90405 0.75246 0.0
H1148 H 0.44702 0.88853 0.60115 0.0
H1149 H 0.45297 0.886 0.68502 0.0
H1150 H 0.42618 0.91288 0.72649 0.0
H1151 H 0.42001 0.91516 0.64275 0.0
C1152 C 0.43408 0.89278 0.84646 0.0
C1153 C 0.45056 0.89643 0.86151 0.0
C1154 C 0.4306 0.89336 0.79807 0.0
C1155 C 0.44347 0.89757 0.76349 0.0
C1156 C 0.45978 0.90066 0.77824 0.0
C1157 C 0.46329 0.9001 0.82672 0.0
C1158 C 0.44243 0.89392 0.62821 0.0
C1159 C 0.43301 0.90201 0.61544 0.0
C1160 C 0.4459 0.89253 0.67621 0.0
C1161 C 0.43997 0.89916 0.7124 0.0
C1162 C 0.43068 0.90738 0.69949 0.0
C1163 C 0.42724 0.9088 0.65152 0.0
H1164 H 0.18193 0.44159 0.18557 0.0
H1165 H 0.22531 0.43555 0.22337 0.0
H1166 H 0.18962 0.44349 0.10164 0.0
H1167 H 0.23231 0.43593 0.13909 0.0
H1168 H 0.24865 0.44874 0.98482 0.0
H1169 H 0.24304 0.45088 0.06917 0.0
H1170 H 0.18851 0.42724 0.03822 0.0
H1171 H 0.19443 0.42642 0.9541 0.0
C1172 C 0.19303 0.44046 0.17566 0.0
C1173 C 0.20298 0.43834 0.21072 0.0
C1174 C 0.19738 0.44139 0.12744 0.0
C1175 C 0.21149 0.43961 0.11294 0.0
C1176 C 0.22154 0.43764 0.14848 0.0
C1177 C 0.21746 0.43725 0.1969 0.0
C1178 C 0.23551 0.4442 -0.00371 0.0
C1179 C 0.22199 0.43754 0.96299 0.0
C1180 C 0.23223 0.44527 0.04473 0.0
C1181 C 0.21527 0.43925 0.06107 0.0
C1182 C 0.20179 0.43248 0.02734 0.0
C1183 C 0.20515 0.43187 0.97893 0.0
H1184 H 0.57098 0.80957 0.98451 0.0
H1185 H 0.55452 0.75668 0.94768 0.0
H1186 H 0.5713 0.80279 0.06876 0.0
H1187 H 0.55455 0.74992 0.03186 0.0
H1188 H 0.57927 0.75029 0.17539 0.0
H1189 H 0.57658 0.7566 0.09213 0.0
H1190 H 0.55339 0.78659 0.13686 0.0
H1191 H 0.55638 0.78051 0.22036 0.0
C1192 C 0.56717 0.79644 -0.00567 0.0
C1193 C 0.56288 0.78372 0.95912 0.0
C1194 C 0.56731 0.79255 0.04271 0.0
C1195 C 0.56315 0.77586 0.05696 0.0
C1196 C 0.55816 0.76299 0.02197 0.0
C1197 C 0.55803 0.76686 0.97367 0.0
C1198 C 0.5736 0.75823 0.16746 0.0
C1199 C 0.56804 0.76491 0.20437 0.0
C1200 C 0.57194 0.76174 0.11973 0.0
C1201 C 0.56467 0.77202 0.10783 0.0
C1202 C 0.55917 0.77875 0.14484 0.0
C1203 C 0.56082 0.77522 0.19264 0.0
H1204 H 0.25158 0.83026 0.18008 0.0
H1205 H 0.22417 0.77701 0.22499 0.0
H1206 H 0.24536 0.82121 0.09686 0.0
H1207 H 0.21809 0.76791 0.14143 0.0
H1208 H 0.19535 0.76168 0.98757 0.0
H1209 H 0.20128 0.76891 0.07216 0.0
H1210 H 0.25393 0.80656 0.03794 0.0
H1211 H 0.24807 0.79958 0.95361 0.0
C1212 C 0.24422 0.81661 0.17216 0.0
C1213 C 0.2384 0.80434 0.20903 0.0
C1214 C 0.24076 0.81142 0.12447 0.0
C1215 C 0.23137 0.79383 0.11255 0.0
C1216 C 0.22529 0.78155 0.1495 0.0
C1217 C 0.22882 0.78676 0.19729 0.0
C1218 C 0.20825 0.77137 -0.00193 0.0
C1219 C 0.22118 0.78014 0.96356 0.0
C1220 C 0.21164 0.77548 0.04661 0.0
C1221 C 0.22801 0.78846 0.06164 0.0
C1222 C 0.24109 0.79674 0.02738 0.0
C1223 C 0.23774 0.79263 0.97899 0.0
H1224 H 0.15648 0.19956 0.23446 0.0
H1225 H 0.2028 0.24459 0.28261 0.0
H1226 H 0.17284 0.18539 0.21595 0.0
H1227 H 0.21931 0.22998 0.26709 0.0
H1228 H 0.24526 0.20135 0.19747 0.0
H1229 H 0.23118 0.21835 0.21303 0.0
H1230 H 0.18507 0.17191 0.25708 0.0
H1231 H 0.19876 0.15511 0.23862 0.0
C1232 C 0.17024 0.20641 0.24107 0.0
C1233 C 0.17838 0.22309 0.26013 0.0
C1234 C 0.17964 0.19822 0.23108 0.0
C1235 C 0.19739 0.20627 0.24135 0.0
C1236 C 0.2057 0.22334 0.25865 0.0
C1237 C 0.19627 0.23173 0.26757 0.0
C1238 C 0.23216 0.19492 0.21091 0.0
C1239 C 0.223 0.17692 0.21635 0.0
C1240 C 0.22408 0.20462 0.21988 0.0
C1241 C 0.20677 0.1965 0.23519 0.0
C1242 C 0.19813 0.17861 0.24347 0.0
C1243 C 0.20604 0.16894 0.23349 0.0
H1244 H 0.76109 0.95572 0.25 0.0
H1245 H 0.80857 0.96479 0.31578 0.0
H1246 H 0.77517 0.98633 0.22694 0.0
H1247 H 0.82226 0.99487 0.29383 0.0
H1248 H 0.84817 0.03961 0.19405 0.0
H1249 H 0.83136 0.00959 0.21649 0.0
H1250 H 0.78963 0.01733 0.26182 0.0
H1251 H 0.80659 0.04784 0.23822 0.0
C1252 C 0.77443 0.96421 0.25969 0.0
C1253 C 0.78378 0.95777 0.28407 0.0
C1254 C 0.78244 0.9817 0.24681 0.0
C1255 C 0.79989 0.99294 0.25806 0.0
C1256 C 0.80892 0.9865 0.28374 0.0
C1257 C 0.80102 0.9692 0.2964 0.0
C1258 C 0.83544 0.03504 0.20886 0.0
C1259 C 0.82881 0.0462 0.21486 0.0
C1260 C 0.82579 0.01778 0.22182 0.0
C1261 C 0.80925 0.01112 0.24146 0.0
C1262 C 0.80234 0.02212 0.24665 0.0
C1263 C 0.81209 0.03957 0.23354 0.0
H1264 H 0.96454 0.80993 0.18821 0.0
H1265 H 0.95644 0.76053 0.23576 0.0
H1266 H 0.99453 0.82339 0.21156 0.0
H1267 H 0.98683 0.77428 0.26029 0.0
H1268 H 0.04785 0.80575 0.25122 0.0
H1269 H 0.01735 0.78977 0.22732 0.0
H1270 H 0.01008 0.83022 0.28648 0.0
H1271 H 0.04015 0.84611 0.30914 0.0
C1272 C 0.96913 0.80191 0.20398 0.0
C1273 C 0.95802 0.78415 0.21047 0.0
C1274 C 0.98637 0.80968 0.21754 0.0
C1275 C 0.99306 0.79995 0.23824 0.0
C1276 C 0.98207 0.7821 0.24424 0.0
C1277 C 0.96466 0.77426 0.23057 0.0
C1278 C 0.03968 0.81118 0.25891 0.0
C1279 C 0.04648 0.8273 0.28154 0.0
C1280 C 0.02222 0.80199 0.24558 0.0
C1281 C 0.01133 0.80881 0.25456 0.0
C1282 C 0.01815 0.82474 0.2781 0.0
C1283 C 0.03545 0.83385 0.29123 0.0
H1284 H 0.84829 0.80923 0.69147 0.0
H1285 H 0.80616 0.75954 0.73371 0.0
H1286 H 0.83192 0.82278 0.71572 0.0
H1287 H 0.78966 0.77337 0.75904 0.0
H1288 H 0.76126 0.80624 0.74951 0.0
H1289 H 0.77546 0.78991 0.72583 0.0
H1290 H 0.82263 0.8286 0.79183 0.0
H1291 H 0.80878 0.84484 0.81443 0.0
C1292 C 0.83553 0.80117 0.70624 0.0
C1293 C 0.8286 0.7833 0.711 0.0
C1294 C 0.82615 0.80898 0.72031 0.0
C1295 C 0.80955 0.79919 0.73974 0.0
C1296 C 0.80241 0.78124 0.744 0.0
C1297 C 0.81189 0.77336 0.72988 0.0
C1298 C 0.77465 0.81119 0.75888 0.0
C1299 C 0.78394 0.82695 0.78329 0.0
C1300 C 0.78273 0.8018 0.74564 0.0
C1301 C 0.80023 0.80808 0.7565 0.0
C1302 C 0.80925 0.82357 0.78204 0.0
C1303 C 0.80126 0.83288 0.79511 0.0
H1304 H 0.1964 0.03849 0.68271 0.0
H1305 H 0.24436 0.04686 0.74332 0.0
H1306 H 0.18259 0.00834 0.70452 0.0
H1307 H 0.23022 0.01629 0.76623 0.0
H1308 H 0.19972 0.95546 0.75578 0.0
H1309 H 0.21594 0.98593 0.73198 0.0
H1310 H 0.17368 0.99252 0.77935 0.0
H1311 H 0.15757 0.96242 0.8021 0.0
C1312 C 0.20402 0.03392 0.70097 0.0
C1313 C 0.22146 0.04516 0.71172 0.0
C1314 C 0.19604 0.01658 0.71361 0.0
C1315 C 0.20523 0.00993 0.73762 0.0
C1316 C 0.22282 0.02103 0.74759 0.0
C1317 C 0.23087 0.03853 0.73481 0.0
C1318 C 0.19392 0.96346 0.76085 0.0
C1319 C 0.17729 0.95648 0.78042 0.0
C1320 C 0.20325 0.98091 0.7476 0.0
C1321 C 0.19604 0.99161 0.75344 0.0
C1322 C 0.17951 0.98459 0.77355 0.0
C1323 C 0.17027 0.96729 0.78676 0.0
H1324 H 0.95921 0.15413 0.73826 0.0
H1325 H 0.95902 0.20098 0.70395 0.0
H1326 H 0.98972 0.17061 0.75661 0.0
H1327 H 0.99009 0.21768 0.71941 0.0
H1328 H 0.04473 0.24276 0.78837 0.0
H1329 H 0.01363 0.22845 0.77339 0.0
H1330 H 0.01533 0.18461 0.71496 0.0
H1331 H 0.04587 0.19845 0.73286 0.0
C1332 C 0.96579 0.16803 0.7346 0.0
C1333 C 0.95684 0.17629 0.71937 0.0
C1334 C 0.98336 0.17751 0.74453 0.0
C1335 C 0.99262 0.19551 0.7381 0.0
C1336 C 0.98346 0.20387 0.72477 0.0
C1337 C 0.96567 0.19433 0.71587 0.0
C1338 C 0.03837 0.23014 0.77184 0.0
C1339 C 0.04758 0.22159 0.76214 0.0
C1340 C 0.02056 0.22192 0.76323 0.0
C1341 C 0.01176 0.20513 0.74402 0.0
C1342 C 0.0214 0.19721 0.73156 0.0
C1343 C 0.039 0.20521 0.74119 0.0
H1344 H 0.82618 0.5294 0.63237 0.0
H1345 H 0.86598 0.5789 0.58056 0.0
H1346 H 0.84307 0.51645 0.60781 0.0
H1347 H 0.88304 0.56564 0.55521 0.0
H1348 H 0.91279 0.53337 0.56857 0.0
H1349 H 0.89862 0.54988 0.5909 0.0
H1350 H 0.85117 0.51042 0.52819 0.0
H1351 H 0.86499 0.49405 0.50666 0.0
C1352 C 0.83855 0.53755 0.61557 0.0
C1353 C 0.84465 0.55517 0.60804 0.0
C1354 C 0.84823 0.53008 0.60137 0.0
C1355 C 0.8643 0.53998 0.57912 0.0
C1356 C 0.8707 0.55772 0.57239 0.0
C1357 C 0.8609 0.56526 0.58659 0.0
C1358 C 0.89936 0.52832 0.55949 0.0
C1359 C 0.88994 0.51226 0.53659 0.0
C1360 C 0.8913 0.53781 0.57197 0.0
C1361 C 0.87373 0.5313 0.56186 0.0
C1362 C 0.86462 0.51561 0.53731 0.0
C1363 C 0.87259 0.50622 0.52494 0.0
H1364 H 0.47248 0.29014 0.57065 0.0
H1365 H 0.4282 0.29251 0.62087 0.0
H1366 H 0.48663 0.32042 0.54913 0.0
H1367 H 0.44281 0.32336 0.60231 0.0
H1368 H 0.47091 0.37722 0.5301 0.0
H1369 H 0.454 0.34626 0.54672 0.0
H1370 H 0.50074 0.34657 0.58767 0.0
H1371 H 0.51744 0.37696 0.56825 0.0
C1372 C 0.46579 0.29723 0.57704 0.0
C1373 C 0.44933 0.28907 0.59762 0.0
C1374 C 0.47398 0.31468 0.56531 0.0
C1375 C 0.46615 0.32462 0.57526 0.0
C1376 C 0.44928 0.31621 0.59402 0.0
C1377 C 0.44088 0.29853 0.60471 0.0
C1378 C 0.47744 0.37059 0.54302 0.0
C1379 C 0.49548 0.3794 0.54745 0.0
C1380 C 0.46778 0.35285 0.5526 0.0
C1381 C 0.47598 0.34369 0.56755 0.0
C1382 C 0.49396 0.3529 0.57445 0.0
C1383 C 0.50357 0.37043 0.5639 0.0
H1384 H 0.63152 0.14207 0.51249 0.0
H1385 H 0.62341 0.09452 0.57532 0.0
H1386 H 0.66172 0.15602 0.53336 0.0
H1387 H 0.65406 0.10885 0.59763 0.0
H1388 H 0.71498 0.13959 0.58628 0.0
H1389 H 0.68439 0.12295 0.56359 0.0
H1390 H 0.67772 0.16553 0.60699 0.0
H1391 H 0.70786 0.18204 0.62826 0.0
C1392 C 0.63615 0.13459 0.53118 0.0
C1393 C 0.62497 0.11721 0.54274 0.0
C1394 C 0.65353 0.14263 0.54327 0.0
C1395 C 0.66029 0.13363 0.56772 0.0
C1396 C 0.64924 0.11611 0.57863 0.0
C1397 C 0.63169 0.10796 0.56623 0.0
C1398 C 0.70694 0.14536 0.59063 0.0
C1399 C 0.71391 0.16221 0.60855 0.0
C1400 C 0.68942 0.1358 0.57805 0.0
C1401 C 0.67866 0.14299 0.58306 0.0
C1402 C 0.68568 0.15971 0.60172 0.0
C1403 C 0.70302 0.16919 0.61409 0.0
H1404 H 0.42894 0.14016 0.07836 0.0
H1405 H 0.47768 0.1822 0.12688 0.0
H1406 H 0.44332 0.12384 0.05666 0.0
H1407 H 0.49175 0.16598 0.10644 0.0
H1408 H 0.51586 0.14272 0.01498 0.0
H1409 H 0.49966 0.15692 0.03445 0.0
H1410 H 0.45864 0.10935 0.09257 0.0
H1411 H 0.4749 0.09483 0.0718 0.0
C1412 C 0.44267 0.14591 0.08429 0.0
C1413 C 0.45218 0.16253 0.10395 0.0
C1414 C 0.45087 0.13653 0.07228 0.0
C1415 C 0.46872 0.14366 0.07951 0.0
C1416 C 0.47807 0.1602 0.09954 0.0
C1417 C 0.46995 0.1695 0.11145 0.0
C1418 C 0.50342 0.13522 0.03205 0.0
C1419 C 0.49676 0.11766 0.04224 0.0
C1420 C 0.49412 0.1434 0.04334 0.0
C1421 C 0.47791 0.13433 0.06549 0.0
C1422 C 0.47106 0.11668 0.07526 0.0
C1423 C 0.48042 0.10841 0.06377 0.0
H1424 H 0.86362 0.37178 0.00836 0.0
H1425 H 0.91169 0.37971 0.06703 0.0
H1426 H 0.8498 0.3415 0.02891 0.0
H1427 H 0.89754 0.34898 0.08842 0.0
H1428 H 0.86538 0.28772 0.07727 0.0
H1429 H 0.88208 0.3181 0.05245 0.0
H1430 H 0.84183 0.32662 0.10683 0.0
H1431 H 0.82528 0.2967 0.13083 0.0
C1432 C 0.87127 0.36707 0.02575 0.0
C1433 C 0.88871 0.37824 0.0367 0.0
C1434 C 0.86331 0.34967 0.03759 0.0
C1435 C 0.87251 0.3429 0.06087 0.0
C1436 C 0.89014 0.35386 0.07043 0.0
C1437 C 0.89819 0.37144 0.05851 0.0
C1438 C 0.86015 0.29613 0.08374 0.0
C1439 C 0.84394 0.28976 0.10563 0.0
C1440 C 0.86974 0.3135 0.06985 0.0
C1441 C 0.86318 0.32469 0.07732 0.0
C1442 C 0.84711 0.31828 0.09981 0.0
C1443 C 0.83764 0.30109 0.11371 0.0
H1444 H 0.71556 0.57928 0.08749 0.0
H1445 H 0.70759 0.52915 0.12677 0.0
H1446 H 0.68511 0.56587 0.0635 0.0
H1447 H 0.6776 0.51604 0.10367 0.0
H1448 H 0.63241 0.495 0.00547 0.0
H1449 H 0.66261 0.51118 0.02672 0.0
H1450 H 0.65424 0.54898 0.09889 0.0
H1451 H 0.62355 0.53268 0.07671 0.0
C1452 C 0.70736 0.56546 0.09097 0.0
C1453 C 0.71403 0.55526 0.10861 0.0
C1454 C 0.68993 0.55783 0.07761 0.0
C1455 C 0.67901 0.53988 0.08133 0.0
C1456 C 0.68573 0.52985 0.09958 0.0
C1457 C 0.70296 0.53741 0.11298 0.0
C1458 C 0.63689 0.50675 0.02584 0.0
C1459 C 0.62549 0.51241 0.03997 0.0
C1460 C 0.65426 0.51603 0.03808 0.0
C1461 C 0.66078 0.53123 0.06504 0.0
C1462 C 0.64957 0.53731 0.078 0.0
C1463 C 0.63202 0.52794 0.0656 0.0
H1464 H 0.53062 0.90936 0.91997 0.0
H1465 H 0.48923 0.85998 0.96714 0.0
H1466 H 0.54727 0.89553 0.89586 0.0
H1467 H 0.50576 0.84648 0.94435 0.0
H1468 H 0.52844 0.82346 0.84733 0.0
H1469 H 0.51441 0.83953 0.86977 0.0
H1470 H 0.56223 0.8799 0.92849 0.0
H1471 H 0.5766 0.86375 0.90476 0.0
C1472 C 0.52509 0.89562 0.9252 0.0
C1473 C 0.50852 0.88575 0.94496 0.0
C1474 C 0.53467 0.88773 0.91178 0.0
C1475 C 0.52777 0.86987 0.91775 0.0
C1476 C 0.51134 0.86019 0.9383 0.0
C1477 C 0.50186 0.86799 0.95154 0.0
C1478 C 0.53606 0.83575 0.86508 0.0
C1479 C 0.55363 0.84222 0.87469 0.0
C1480 C 0.52796 0.84496 0.8781 0.0
C1481 C 0.53712 0.86092 0.90147 0.0
C1482 C 0.55482 0.86766 0.91037 0.0
C1483 C 0.56302 0.85837 0.89713 0.0
H1484 H 0.09463 0.6265 0.95569 0.0
H1485 H 0.13853 0.62381 0.90365 0.0
H1486 H 0.10935 0.65738 0.93703 0.0
H1487 H 0.15276 0.65407 0.88214 0.0
H1488 H 0.18409 0.71042 0.90139 0.0
H1489 H 0.16711 0.68012 0.92145 0.0
H1490 H 0.12062 0.68036 0.88081 0.0
H1491 H 0.13785 0.71128 0.86345 0.0
C1492 C 0.10725 0.63246 0.93917 0.0
C1493 C 0.11557 0.6229 0.93159 0.0
C1494 C 0.1157 0.65014 0.92843 0.0
C1495 C 0.1325 0.65845 0.90918 0.0
C1496 C 0.14017 0.64841 0.89873 0.0
C1497 C 0.13194 0.63097 0.91048 0.0
C1498 C 0.17022 0.70404 0.89724 0.0
C1499 C 0.1623 0.71314 0.88058 0.0
C1500 C 0.16044 0.68656 0.90818 0.0
C1501 C 0.14246 0.67752 0.90146 0.0
C1502 C 0.13441 0.68682 0.88647 0.0
C1503 C 0.14426 0.70453 0.87647 0.0
H1504 H 0.28679 0.45856 0.94841 0.0
H1505 H 0.29769 0.43399 0.83197 0.0
H1506 H 0.31704 0.47292 0.97252 0.0
H1507 H 0.32825 0.44904 0.85411 0.0
H1508 H 0.38132 0.47165 0.92791 0.0
H1509 H 0.35057 0.45343 0.91013 0.0
H1510 H 0.3426 0.49617 0.94175 0.0
H1511 H 0.37288 0.51398 0.96059 0.0
C1512 C 0.29574 0.45617 0.92832 0.0
C1513 C 0.29008 0.44522 0.88862 0.0
C1514 C 0.31308 0.4645 0.94167 0.0
C1515 C 0.32521 0.46243 0.91471 0.0
C1516 C 0.31931 0.45085 0.87595 0.0
C1517 C 0.30185 0.44226 0.86316 0.0
C1518 C 0.37295 0.47709 0.93094 0.0
C1519 C 0.37953 0.49423 0.94585 0.0
C1520 C 0.35533 0.46667 0.92069 0.0
C1521 C 0.34399 0.47322 0.92518 0.0
C1522 C 0.35078 0.49049 0.93913 0.0
C1523 C 0.36825 0.50081 0.94946 0.0
H1524 H 0.10821 0.48883 0.36536 0.0
H1525 H 0.12311 0.48997 0.51253 0.0
H1526 H 0.12277 0.4726 0.344 0.0
H1527 H 0.137 0.47321 0.49169 0.0
H1528 H 0.14685 0.42961 0.42981 0.0
H1529 H 0.12829 0.44171 0.44995 0.0
H1530 H 0.1576 0.48425 0.35408 0.0
H1531 H 0.17636 0.47258 0.33504 0.0
C1532 C 0.11422 0.48521 0.39317 0.0
C1533 C 0.11463 0.49058 0.44046 0.0
C1534 C 0.12255 0.47601 0.38103 0.0
C1535 C 0.13093 0.47166 0.41632 0.0
C1536 C 0.13052 0.47631 0.46398 0.0
C1537 C 0.12266 0.48592 0.47581 0.0
C1538 C 0.14931 0.44155 0.41319 0.0
C1539 C 0.16312 0.45022 0.38117 0.0
C1540 C 0.1387 0.44842 0.42459 0.0
C1541 C 0.14146 0.46378 0.40309 0.0
C1542 C 0.15509 0.47227 0.37062 0.0
C1543 C 0.16591 0.46566 0.36014 0.0
H1544 H 0.49528 0.6314 0.48361 0.0
H1545 H 0.53291 0.62242 0.41245 0.0
H1546 H 0.51137 0.66153 0.46153 0.0
H1547 H 0.54909 0.65301 0.3894 0.0
H1548 H 0.57956 0.71408 0.39806 0.0
H1549 H 0.56606 0.68378 0.42329 0.0
H1550 H 0.51616 0.67656 0.38503 0.0
H1551 H 0.52941 0.70646 0.36069 0.0
C1552 C 0.50701 0.63584 0.46307 0.0
C1553 C 0.51268 0.62442 0.44924 0.0
C1554 C 0.51622 0.65317 0.45033 0.0
C1555 C 0.53137 0.65962 0.42314 0.0
C1556 C 0.53746 0.64839 0.41046 0.0
C1557 C 0.52816 0.63089 0.42337 0.0
C1558 C 0.56571 0.70598 0.3953 0.0
C1559 C 0.55554 0.71271 0.37774 0.0
C1560 C 0.55801 0.68864 0.40937 0.0
C1561 C 0.54003 0.67782 0.40648 0.0
C1562 C 0.53 0.6846 0.38847 0.0
C1563 C 0.53764 0.70178 0.37435 0.0
H1564 H 0.3862 0.9067 0.38278 0.0
H1565 H 0.36988 0.87267 0.50491 0.0
H1566 H 0.3559 0.89418 0.35778 0.0
H1567 H 0.33978 0.86076 0.48097 0.0
H1568 H 0.28723 0.85791 0.43693 0.0
H1569 H 0.31764 0.87539 0.46114 0.0
H1570 H 0.33302 0.85751 0.33772 0.0
H1571 H 0.3028 0.83961 0.31454 0.0
C1572 C 0.37614 0.89678 0.40459 0.0
C1573 C 0.38034 0.89053 0.44549 0.0
C1574 C 0.35889 0.88967 0.39038 0.0
C1575 C 0.34562 0.87665 0.41779 0.0
C1576 C 0.34981 0.87091 0.45959 0.0
C1577 C 0.367 0.87763 0.47299 0.0
C1578 C 0.29715 0.85789 0.41483 0.0
C1579 C 0.29271 0.84733 0.37415 0.0
C1580 C 0.31447 0.86786 0.4286 0.0
C1581 C 0.32756 0.86781 0.40099 0.0
C1582 C 0.32314 0.85785 0.35925 0.0
C1583 C 0.30587 0.84755 0.34627 0.0
H1584 H 0.29056 0.1336 0.09519 0.0
H1585 H 0.29477 0.17097 0.1998 0.0
H1586 H 0.32159 0.14515 0.09899 0.0
H1587 H 0.32563 0.18204 0.2052 0.0
H1588 H 0.3822 0.20968 0.17039 0.0
H1589 H 0.35147 0.19808 0.16366 0.0
H1590 H 0.34414 0.14684 0.1477 0.0
H1591 H 0.37535 0.15872 0.15246 0.0
C1592 C 0.29812 0.14428 0.11905 0.0
C1593 C 0.29019 0.15143 0.14701 0.0
C1594 C 0.31591 0.1508 0.12159 0.0
C1595 C 0.32621 0.16451 0.15252 0.0
C1596 C 0.31823 0.17169 0.18029 0.0
C1597 C 0.30048 0.16532 0.17729 0.0
C1598 C 0.3741 0.1959 0.16566 0.0
C1599 C 0.38129 0.18511 0.16229 0.0
C1600 C 0.35636 0.18922 0.16203 0.0
C1601 C 0.34519 0.17148 0.15557 0.0
C1602 C 0.35235 0.16061 0.15212 0.0
C1603 C 0.37023 0.16738 0.15517 0.0
H1604 H 0.83855 0.2115 0.11052 0.0
H1605 H 0.80209 0.17783 0.21628 0.0
H1606 H 0.84983 0.19184 0.1028 0.0
H1607 H 0.81374 0.15856 0.20996 0.0
H1608 H 0.82738 0.11894 0.15812 0.0
H1609 H 0.81525 0.13803 0.15986 0.0
H1610 H 0.86634 0.18209 0.14348 0.0
H1611 H 0.87827 0.16312 0.13982 0.0
C1612 C 0.8331 0.20003 0.13259 0.0
C1613 C 0.81944 0.19627 0.16403 0.0
C1614 C 0.83957 0.18874 0.12824 0.0
C1615 C 0.83267 0.17352 0.15565 0.0
C1616 C 0.81915 0.16993 0.18752 0.0
C1617 C 0.81257 0.1811 0.19148 0.0
C1618 C 0.83598 0.13269 0.15454 0.0
C1619 C 0.85379 0.13944 0.14877 0.0
C1620 C 0.82905 0.14367 0.15586 0.0
C1621 C 0.83981 0.16167 0.15197 0.0
C1622 C 0.85758 0.16833 0.14573 0.0
C1623 C 0.86446 0.15739 0.1439 0.0
H1624 H 0.79223 0.62766 0.11604 0.0
H1625 H 0.8256 0.6247 0.2225 0.0
H1626 H 0.81198 0.65846 0.10798 0.0
H1627 H 0.84502 0.65564 0.21605 0.0
H1628 H 0.88513 0.7086 0.15979 0.0
H1629 H 0.86576 0.67748 0.16592 0.0
H1630 H 0.82199 0.68487 0.14649 0.0
H1631 H 0.84118 0.71553 0.13833 0.0
C1632 C 0.80363 0.63364 0.13837 0.0
C1633 C 0.80731 0.62371 0.16992 0.0
C1634 C 0.81499 0.65135 0.13383 0.0
C1635 C 0.8302 0.65964 0.16129 0.0
C1636 C 0.83367 0.64971 0.19358 0.0
C1637 C 0.82242 0.63197 0.19764 0.0
C1638 C 0.87138 0.70351 0.1565 0.0
C1639 C 0.86477 0.71459 0.14819 0.0
C1640 C 0.86023 0.68568 0.16038 0.0
C1641 C 0.84223 0.67856 0.15661 0.0
C1642 C 0.83573 0.68973 0.14853 0.0
C1643 C 0.84681 0.70742 0.14407 0.0
H1644 H 0.20295 0.38074 0.25847 0.0
H1645 H 0.16792 0.37737 0.36968 0.0
H1646 H 0.19087 0.34969 0.2615 0.0
H1647 H 0.15622 0.34631 0.37399 0.0
H1648 H 0.12765 0.28928 0.33703 0.0
H1649 H 0.13922 0.32015 0.33289 0.0
H1650 H 0.19024 0.32762 0.30992 0.0
H1651 H 0.17848 0.29648 0.31227 0.0
C1652 C 0.19267 0.37336 0.28367 0.0
C1653 C 0.18641 0.38156 0.31387 0.0
C1654 C 0.18584 0.35554 0.28571 0.0
C1655 C 0.17267 0.34544 0.31831 0.0
C1656 C 0.16621 0.35362 0.34801 0.0
C1657 C 0.17293 0.37146 0.34563 0.0
C1658 C 0.14137 0.29746 0.33129 0.0
C1659 C 0.15214 0.29034 0.325 0.0
C1660 C 0.14803 0.31524 0.32915 0.0
C1661 C 0.16568 0.32646 0.32112 0.0
C1662 C 0.17652 0.31937 0.31537 0.0
C1663 C 0.16981 0.30151 0.31705 0.0
H1664 H 0.62662 0.82227 0.25504 0.0
H1665 H 0.62865 0.79034 0.3677 0.0
H1666 H 0.65753 0.84165 0.26233 0.0
H1667 H 0.65948 0.81007 0.37634 0.0
H1668 H 0.71707 0.83958 0.34832 0.0
H1669 H 0.68645 0.81993 0.33959 0.0
H1670 H 0.67844 0.863 0.31357 0.0
H1671 H 0.70941 0.88277 0.32054 0.0
C1672 C 0.63368 0.81938 0.28139 0.0
C1673 C 0.62516 0.80473 0.31075 0.0
C1674 C 0.6514 0.83061 0.2859 0.0
C1675 C 0.66105 0.82758 0.32025 0.0
C1676 C 0.65255 0.81274 0.34906 0.0
C1677 C 0.63484 0.80139 0.34416 0.0
C1678 C 0.70883 0.84495 0.34095 0.0
C1679 C 0.71578 0.86283 0.33514 0.0
C1680 C 0.69117 0.83362 0.33616 0.0
C1681 C 0.67988 0.8398 0.32587 0.0
C1682 C 0.68677 0.85772 0.32071 0.0
C1683 C 0.70452 0.86909 0.32508 0.0
H1684 H 0.17927 0.79912 0.27364 0.0
H1685 H 0.21256 0.83621 0.37858 0.0
H1686 H 0.1595 0.81028 0.27958 0.0
H1687 H 0.19247 0.84689 0.38614 0.0
H1688 H 0.16367 0.87488 0.35046 0.0
H1689 H 0.18269 0.86309 0.34519 0.0
H1690 H 0.13873 0.81197 0.32834 0.0
H1691 H 0.11952 0.82402 0.33164 0.0
C1692 C 0.18232 0.8096 0.29823 0.0
C1693 C 0.19757 0.81685 0.32543 0.0
C1694 C 0.17088 0.81591 0.30195 0.0
C1695 C 0.1743 0.8295 0.33338 0.0
C1696 C 0.18952 0.83664 0.36085 0.0
C1697 C 0.20106 0.83048 0.35665 0.0
C1698 C 0.15796 0.86109 0.34589 0.0
C1699 C 0.13999 0.85039 0.34164 0.0
C1700 C 0.16894 0.85429 0.34314 0.0
C1701 C 0.16233 0.83653 0.33666 0.0
C1702 C 0.14433 0.82575 0.33274 0.0
C1703 C 0.13328 0.83262 0.33495 0.0
H1704 H 0.71386 0.87023 0.88552 0.0
H1705 H 0.71057 0.83201 0.78533 0.0
H1706 H 0.68296 0.85875 0.87895 0.0
H1707 H 0.67971 0.82091 0.77724 0.0
H1708 H 0.62266 0.79365 0.81117 0.0
H1709 H 0.65343 0.80527 0.81766 0.0
H1710 H 0.66092 0.85672 0.82794 0.0
H1711 H 0.62974 0.84488 0.82341 0.0
C1712 C 0.70654 0.85938 0.86193 0.0
C1713 C 0.71471 0.852 0.83607 0.0
C1714 C 0.6888 0.8529 0.85781 0.0
C1715 C 0.67875 0.83894 0.82736 0.0
C1716 C 0.68694 0.8315 0.80163 0.0
C1717 C 0.70467 0.83788 0.80618 0.0
C1718 C 0.63082 0.80747 0.81455 0.0
C1719 C 0.62367 0.81833 0.81664 0.0
C1720 C 0.64857 0.81417 0.81802 0.0
C1721 C 0.65979 0.83197 0.82311 0.0
C1722 C 0.65268 0.8429 0.82476 0.0
C1723 C 0.6348 0.83615 0.82185 0.0
H1724 H 0.21389 0.82988 0.79961 0.0
H1725 H 0.16329 0.78673 0.82971 0.0
H1726 H 0.20282 0.8495 0.80829 0.0
H1727 H 0.15201 0.80642 0.83656 0.0
H1728 H 0.14118 0.84679 0.89838 0.0
H1729 H 0.15284 0.82759 0.88897 0.0
H1730 H 0.1854 0.85952 0.774 0.0
H1731 H 0.17415 0.8791 0.78475 0.0
C1732 C 0.20031 0.82451 0.80735 0.0
C1733 C 0.1895 0.80667 0.81413 0.0
C1734 C 0.19393 0.83583 0.81213 0.0
C1735 C 0.17652 0.82963 0.82339 0.0
C1736 C 0.16558 0.81172 0.82885 0.0
C1737 C 0.17201 0.80039 0.82449 0.0
C1738 C 0.15095 0.8498 0.87136 0.0
C1739 C 0.15674 0.86449 0.84232 0.0
C1740 C 0.15751 0.83868 0.8656 0.0
C1741 C 0.16992 0.84182 0.83029 0.0
C1742 C 0.17599 0.85674 0.8019 0.0
C1743 C 0.16954 0.868 0.80805 0.0
H1744 H 0.18035 0.37823 0.76172 0.0
H1745 H 0.21353 0.37465 0.86772 0.0
H1746 H 0.16086 0.34729 0.76718 0.0
H1747 H 0.1937 0.34381 0.8746 0.0
H1748 H 0.16428 0.28676 0.8392 0.0
H1749 H 0.18363 0.31754 0.83428 0.0
H1750 H 0.14007 0.32542 0.81751 0.0
H1751 H 0.12058 0.2943 0.82049 0.0
C1752 C 0.18349 0.37083 0.78624 0.0
C1753 C 0.19856 0.37892 0.81414 0.0
C1754 C 0.17219 0.35309 0.78974 0.0
C1755 C 0.17558 0.34299 0.82158 0.0
C1756 C 0.19076 0.35109 0.84916 0.0
C1757 C 0.20215 0.36881 0.84526 0.0
C1758 C 0.15873 0.295 0.83479 0.0
C1759 C 0.1408 0.28798 0.83022 0.0
C1760 C 0.1699 0.31275 0.83219 0.0
C1761 C 0.16349 0.32406 0.82549 0.0
C1762 C 0.14552 0.3171 0.82186 0.0
C1763 C 0.13431 0.29925 0.82396 0.0
H1764 H 0.87628 0.7144 0.63815 0.0
H1765 H 0.82531 0.70775 0.65428 0.0
H1766 H 0.86451 0.68365 0.64481 0.0
H1767 H 0.81328 0.67654 0.65888 0.0
H1768 H 0.80005 0.62342 0.71554 0.0
H1769 H 0.81143 0.65433 0.70901 0.0
H1770 H 0.84849 0.65754 0.60448 0.0
H1771 H 0.83757 0.62676 0.61262 0.0
C1772 C 0.86246 0.70634 0.64235 0.0
C1773 C 0.85172 0.7136 0.64546 0.0
C1774 C 0.85569 0.68859 0.64593 0.0
C1775 C 0.83791 0.67748 0.65207 0.0
C1776 C 0.82708 0.6847 0.65481 0.0
C1777 C 0.83393 0.70258 0.65184 0.0
C1778 C 0.81071 0.63075 0.69136 0.0
C1779 C 0.81797 0.62262 0.6648 0.0
C1780 C 0.81713 0.64849 0.68727 0.0
C1781 C 0.83088 0.65852 0.65612 0.0
C1782 C 0.83811 0.65034 0.62951 0.0
C1783 C 0.83182 0.63264 0.63407 0.0
H1784 H 0.29486 0.12474 0.71374 0.0
H1785 H 0.29226 0.15639 0.60121 0.0
H1786 H 0.32566 0.14476 0.72208 0.0
H1787 H 0.32312 0.17599 0.60793 0.0
H1788 H 0.37572 0.21709 0.65978 0.0
H1789 H 0.34461 0.19754 0.65638 0.0
H1790 H 0.35237 0.15448 0.68546 0.0
H1791 H 0.38308 0.17393 0.69096 0.0
C1792 C 0.30093 0.13581 0.69022 0.0
C1793 C 0.2911 0.13896 0.65686 0.0
C1794 C 0.31862 0.14732 0.69492 0.0
C1795 C 0.32697 0.16213 0.66585 0.0
C1796 C 0.31714 0.16501 0.63176 0.0
C1797 C 0.29944 0.15364 0.62754 0.0
C1798 C 0.37074 0.20348 0.66593 0.0
C1799 C 0.38196 0.19716 0.67576 0.0
C1800 C 0.35289 0.19221 0.66357 0.0
C1801 C 0.34588 0.17434 0.67044 0.0
C1802 C 0.35715 0.16813 0.68081 0.0
C1803 C 0.37488 0.17936 0.68372 0.0
H1804 H 0.84573 0.13483 0.60306 0.0
H1805 H 0.87918 0.17085 0.70985 0.0
H1806 H 0.82636 0.14639 0.61002 0.0
H1807 H 0.85946 0.18197 0.71833 0.0
H1808 H 0.83066 0.2104 0.68484 0.0
H1809 H 0.84966 0.19858 0.67936 0.0
H1810 H 0.80569 0.14761 0.6602 0.0
H1811 H 0.78653 0.15967 0.66366 0.0
C1812 C 0.84894 0.14521 0.62814 0.0
C1813 C 0.86407 0.15197 0.65573 0.0
C1814 C 0.83771 0.15173 0.63251 0.0
C1815 C 0.84122 0.16507 0.66495 0.0
C1816 C 0.85642 0.17188 0.69241 0.0
C1817 C 0.86776 0.16549 0.68761 0.0
C1818 C 0.82493 0.19663 0.67979 0.0
C1819 C 0.80699 0.18599 0.67467 0.0
C1820 C 0.83591 0.18982 0.67689 0.0
C1821 C 0.82929 0.17211 0.66938 0.0
C1822 C 0.8113 0.16136 0.6652 0.0
C1823 C 0.80027 0.16824 0.66756 0.0
H1824 H 0.04947 0.53823 0.54591 0.0
H1825 H 0.04416 0.49871 0.44743 0.0
H1826 H 0.01844 0.52646 0.54473 0.0
H1827 H 0.01314 0.48728 0.44493 0.0
H1828 H 0.96411 0.51156 0.49583 0.0
H1829 H 0.99531 0.52355 0.49607 0.0
H1830 H 0.98794 0.47206 0.49171 0.0
H1831 H 0.957 0.46019 0.48975 0.0
C1832 C 0.04169 0.52707 0.52375 0.0
C1833 C 0.04933 0.5194 0.4968 0.0
C1834 C 0.02387 0.5204 0.52281 0.0
C1835 C 0.01322 0.50595 0.49461 0.0
C1836 C 0.02088 0.49826 0.46765 0.0
C1837 C 0.0387 0.50485 0.46893 0.0
C1838 C 0.96918 0.50283 0.49484 0.0
C1839 C 0.95802 0.48492 0.49253 0.0
C1840 C 0.98707 0.50968 0.49523 0.0
C1841 C 0.9942 0.49878 0.49378 0.0
C1842 C 0.98299 0.48089 0.49186 0.0
C1843 C 0.96517 0.47406 0.49102 0.0
H1844 H 0.461 0.50552 0.49462 0.0
H1845 H 0.51264 0.54922 0.48707 0.0
H1846 H 0.47231 0.48608 0.48686 0.0
H1847 H 0.52411 0.52961 0.48111 0.0
H1848 H 0.5382 0.49042 0.42686 0.0
H1849 H 0.52635 0.50964 0.42987 0.0
H1850 H 0.48743 0.47517 0.52945 0.0
H1851 H 0.49892 0.45566 0.52502 0.0
C1852 C 0.47483 0.51101 0.49182 0.0
C1853 C 0.48592 0.52898 0.49172 0.0
C1854 C 0.48133 0.4998 0.48758 0.0
C1855 C 0.49915 0.50619 0.48364 0.0
C1856 C 0.51028 0.52419 0.48342 0.0
C1857 C 0.50374 0.53546 0.48715 0.0
C1858 C 0.52701 0.48686 0.44908 0.0
C1859 C 0.5195 0.47147 0.47568 0.0
C1860 C 0.5203 0.49799 0.45115 0.0
C1861 C 0.50599 0.49409 0.48019 0.0
C1862 C 0.49831 0.47852 0.50615 0.0
C1863 C 0.50491 0.46731 0.50369 0.0
H1864 H 0.55241 0.04097 0.49301 0.0
H1865 H 0.50817 0.04741 0.47149 0.0
H1866 H 0.53328 0.00975 0.49766 0.0
H1867 H 0.48923 0.01666 0.47808 0.0
H1868 H 0.45969 0.95978 0.44682 0.0
H1869 H 0.47969 0.9905 0.43825 0.0
H1870 H 0.5124 0.98759 0.5472 0.0
H1871 H 0.49272 0.95672 0.55427 0.0
C1872 C 0.53865 0.03576 0.48937 0.0
C1873 C 0.53189 0.04673 0.48149 0.0
C1874 C 0.52765 0.01787 0.49235 0.0
C1875 C 0.50964 0.01059 0.48805 0.0
C1876 C 0.50299 0.02165 0.48043 0.0
C1877 C 0.51392 0.0394 0.47689 0.0
C1878 C 0.47111 0.96571 0.46909 0.0
C1879 C 0.47455 0.95578 0.50132 0.0
C1880 C 0.4826 0.98337 0.46429 0.0
C1881 C 0.49772 0.99163 0.4921 0.0
C1882 C 0.50108 0.98168 0.52457 0.0
C1883 C 0.48969 0.96398 0.52895 0.0
H1884 H 0.50048 0.04282 0.04361 0.0
H1885 H 0.53076 0.04295 0.92333 0.0
H1886 H 0.48958 0.01208 0.05473 0.0
H1887 H 0.51939 0.01216 0.93305 0.0
H1888 H 0.50978 0.96073 0.98918 0.0
H1889 H 0.52117 0.99174 0.98275 0.0
H1890 H 0.47141 0.98465 0.02273 0.0
H1891 H 0.46033 0.95402 0.03108 0.0
C1892 C 0.50453 0.03621 0.01894 0.0
C1893 C 0.51648 0.04533 0.98263 0.0
C1894 C 0.4983 0.01856 0.02529 0.0
C1895 C 0.5037 0.00957 -0.00494 0.0
C1896 C 0.51526 0.01866 0.95782 0.0
C1897 C 0.52163 0.03631 0.95188 0.0
C1898 C 0.50135 0.96583 -0.00289 0.0
C1899 C 0.48414 0.9548 0.01059 0.0
C1900 C 0.50782 0.98362 0.99299 0.0
C1901 C 0.49719 0.99077 0.00183 0.0
C1902 C 0.48009 0.97974 0.01624 0.0
C1903 C 0.4737 0.96205 0.02078 0.0
H1904 H 0.95809 0.49183 0.94153 0.0
H1905 H 0.96195 0.45736 0.04234 0.0
H1906 H 0.98906 0.51106 0.94595 0.0
H1907 H 0.99291 0.47698 0.04843 0.0
H1908 H 0.04986 0.50659 0.0107 0.0
H1909 H 0.019 0.48738 0.0071 0.0
H1910 H 0.01135 0.53124 -0.00469 0.0
H1911 H 0.04251 0.55054 -0.00318 0.0
C1912 C 0.96556 0.48839 0.96485 0.0
C1913 C 0.95754 0.47302 0.99151 0.0
C1914 C 0.98334 0.49953 0.96774 0.0
C1915 C 0.99358 0.49572 -0.00217 0.0
C1916 C 0.98554 0.48027 0.02432 0.0
C1917 C 0.96775 0.469 0.02094 0.0
C1918 C 0.04164 0.5122 0.00763 0.0
C1919 C 0.04872 0.53016 0.00404 0.0
C1920 C 0.02385 0.50113 0.00581 0.0
C1921 C 0.01256 0.50767 0.00094 0.0
C1922 C 0.01962 0.52567 -0.00178 0.0
C1923 C 0.0375 0.53678 -0.00056 0.0
H1924 H 0.50655 0.46084 -0.00643 0.0
H1925 H 0.55039 0.51235 0.00232 0.0
H1926 H 0.48719 0.47231 -0.00038 0.0
H1927 H 0.53088 0.52398 0.00658 0.0
H1928 H 0.49146 0.5381 0.05925 0.0
H1929 H 0.5107 0.52628 0.05673 0.0
H1930 H 0.47666 0.48762 0.956 0.0
H1931 H 0.45711 0.49908 0.95993 0.0
C1932 C 0.51209 0.47468 -0.0037 0.0
C1933 C 0.53007 0.48569 -0.00273 0.0
C1934 C 0.50093 0.48127 -0.00048 0.0
C1935 C 0.5074 0.4991 0.00329 0.0
C1936 C 0.5254 0.51015 0.00437 0.0
C1937 C 0.53662 0.50351 0.00164 0.0
C1938 C 0.48802 0.52699 0.03679 0.0
C1939 C 0.47271 0.51952 0.00983 0.0
C1940 C 0.49915 0.5203 0.03503 0.0
C1941 C 0.49536 0.50604 0.00594 0.0
C1942 C 0.47993 0.49845 0.97938 0.0
C1943 C 0.46869 0.50504 0.98152 0.0
loop_
_geom_bond_atom_site_label_1
_geom_bond_atom_site_label_2
_geom_bond_distance
_geom_bond_site_symmetry_2
_ccdc_geom_bond_type
Co0 O1 2.216 . S
Co0 O2 2.091 . S
Co0 O4 2.004 . S
Co0 O10 2.021 . S
Co0 O12 2.137 . S
Co0 O13 2.244 . S
O1 Co0 2.216 . S
O1 C8 1.247 . S
O2 Co0 2.091 . S
O2 C8 1.261 . S
C3 O12 1.247 . S
C3 O13 1.272 . S
O4 Co0 2.004 . S
O4 C9 1.259 . S
Co5 O6 2.061 . S
Co5 O11 2.052 . S
Co5 O13 2.135 . S
O6 Co5 2.061 . S
O6 C9 1.235 . S
C7 O10 1.238 . S
C7 O11 1.241 . S
C8 O1 1.247 . S
C8 O2 1.261 . S
C9 O4 1.259 . S
C9 O6 1.235 . S
O10 Co0 2.021 . S
O10 C7 1.238 . S
O11 Co5 2.052 . S
O11 C7 1.241 . S
O12 Co0 2.137 . S
O12 C3 1.247 . S
O13 Co0 2.244 . S
O13 C3 1.272 . S
O13 Co5 2.135 . S
Co14 O15 2.216 . S
Co14 O16 2.091 . S
Co14 O18 2.004 . S
Co14 O24 2.021 . S
Co14 O26 2.137 . S
Co14 O27 2.244 . S
O15 Co14 2.216 . S
O15 C22 1.247 . S
O16 Co14 2.091 . S
O16 C22 1.261 . S
C17 O26 1.247 . S
C17 O27 1.272 . S
O18 Co14 2.004 . S
O18 C23 1.259 . S
Co19 O20 2.061 . S
Co19 O25 2.052 . S
Co19 O27 2.135 . S
O20 Co19 2.061 . S
O20 C23 1.235 . S
C21 O24 1.238 . S
C21 O25 1.241 . S
C22 O15 1.247 . S
C22 O16 1.261 . S
C23 O18 1.259 . S
C23 O20 1.235 . S
O24 Co14 2.021 . S
O24 C21 1.238 . S
O25 Co19 2.052 . S
O25 C21 1.241 . S
O26 Co14 2.137 . S
O26 C17 1.247 . S
O27 Co14 2.244 . S
O27 C17 1.272 . S
O27 Co19 2.135 . S
Co28 O29 2.216 . S
Co28 O30 2.091 . S
Co28 O32 2.004 . S
Co28 O38 2.021 . S
Co28 O40 2.137 . S
Co28 O41 2.244 . S
O29 Co28 2.216 . S
O29 C36 1.247 . S
O30 Co28 2.091 . S
O30 C36 1.261 . S
C31 O40 1.247 . S
C31 O41 1.272 . S
O32 Co28 2.004 . S
O32 C37 1.259 . S
Co33 O34 2.061 . S
Co33 O39 2.052 . S
Co33 O41 2.135 . S
O34 Co33 2.061 . S
O34 C37 1.235 . S
C35 O38 1.238 . S
C35 O39 1.241 . S
C36 O29 1.247 . S
C36 O30 1.261 . S
C37 O32 1.259 . S
C37 O34 1.235 . S
O38 Co28 2.021 . S
O38 C35 1.238 . S
O39 Co33 2.052 . S
O39 C35 1.241 . S
O40 Co28 2.137 . S
O40 C31 1.247 . S
O41 Co28 2.244 . S
O41 C31 1.272 . S
O41 Co33 2.135 . S
Co42 O43 2.216 . S
Co42 O44 2.091 . S
Co42 O46 2.004 . S
Co42 O52 2.021 . S
Co42 O54 2.137 . S
Co42 O55 2.244 . S
O43 Co42 2.216 . S
O43 C50 1.247 . S
O44 Co42 2.091 . S
O44 C50 1.261 . S
C45 O54 1.247 . S
C45 O55 1.272 . S
O46 Co42 2.004 . S
O46 C51 1.259 . S
Co47 O48 2.061 . S
Co47 O53 2.052 . S
Co47 O55 2.135 . S
O48 Co47 2.061 . S
O48 C51 1.235 . S
C49 O52 1.238 . S
C49 O53 1.241 . S
C50 O43 1.247 . S
C50 O44 1.261 . S
C51 O46 1.259 . S
C51 O48 1.235 . S
O52 Co42 2.021 . S
O52 C49 1.238 . S
O53 Co47 2.052 . S
O53 C49 1.241 . S
O54 Co42 2.137 . S
O54 C45 1.247 . S
O55 Co42 2.244 . S
O55 C45 1.272 . S
O55 Co47 2.135 . S
Co56 O57 2.216 . S
Co56 O58 2.091 . S
Co56 O60 2.004 . S
Co56 O66 2.021 . S
Co56 O68 2.137 . S
Co56 O69 2.244 . S
O57 Co56 2.216 . S
O57 C64 1.247 . S
O58 Co56 2.091 . S
O58 C64 1.261 . S
C59 O68 1.247 . S
C59 O69 1.272 . S
O60 Co56 2.004 . S
O60 C65 1.259 . S
Co61 O62 2.061 . S
Co61 O67 2.052 . S
Co61 O69 2.135 . S
O62 Co61 2.061 . S
O62 C65 1.235 . S
C63 O66 1.238 . S
C63 O67 1.241 . S
C64 O57 1.247 . S
C64 O58 1.261 . S
C65 O60 1.259 . S
C65 O62 1.235 . S
O66 Co56 2.021 . S
O66 C63 1.238 . S
O67 Co61 2.052 . S
O67 C63 1.241 . S
O68 Co56 2.137 . S
O68 C59 1.247 . S
O69 Co56 2.244 . S
O69 C59 1.272 . S
O69 Co61 2.135 . S
Co70 O71 2.216 . S
Co70 O72 2.091 . S
Co70 O74 2.004 . S
Co70 O80 2.021 . S
Co70 O82 2.137 . S
Co70 O83 2.244 . S
O71 Co70 2.216 . S
O71 C78 1.247 . S
O72 Co70 2.091 . S
O72 C78 1.261 . S
C73 O82 1.247 . S
C73 O83 1.272 . S
O74 Co70 2.004 . S
O74 C79 1.259 . S
Co75 O76 2.061 . S
Co75 O81 2.052 . S
Co75 O83 2.135 . S
O76 Co75 2.061 . S
O76 C79 1.235 . S
C77 O80 1.238 . S
C77 O81 1.241 . S
C78 O71 1.247 . S
C78 O72 1.261 . S
C79 O74 1.259 . S
C79 O76 1.235 . S
O80 Co70 2.021 . S
O80 C77 1.238 . S
O81 Co75 2.052 . S
O81 C77 1.241 . S
O82 Co70 2.137 . S
O82 C73 1.247 . S
O83 Co70 2.244 . S
O83 C73 1.272 . S
O83 Co75 2.135 . S
Co84 O85 2.216 . S
Co84 O86 2.091 . S
Co84 O88 2.004 . S
Co84 O94 2.021 . S
Co84 O96 2.137 . S
Co84 O97 2.244 . S
O85 Co84 2.216 . S
O85 C92 1.247 . S
O86 Co84 2.091 . S
O86 C92 1.261 . S
C87 O96 1.247 . S
C87 O97 1.272 . S
O88 Co84 2.004 . S
O88 C93 1.259 . S
Co89 O90 2.061 . S
Co89 O95 2.052 . S
Co89 O97 2.135 . S
O90 Co89 2.061 . S
O90 C93 1.235 . S
C91 O94 1.238 . S
C91 O95 1.241 . S
C92 O85 1.247 . S
C92 O86 1.261 . S
C93 O88 1.259 . S
C93 O90 1.235 . S
O94 Co84 2.021 . S
O94 C91 1.238 . S
O95 Co89 2.052 . S
O95 C91 1.241 . S
O96 Co84 2.137 . S
O96 C87 1.247 . S
O97 Co84 2.244 . S
O97 C87 1.272 . S
O97 Co89 2.135 . S
Co98 O99 2.216 . S
Co98 O100 2.091 . S
Co98 O102 2.004 . S
Co98 O108 2.021 . S
Co98 O110 2.137 . S
Co98 O111 2.244 . S
O99 Co98 2.216 . S
O99 C106 1.247 . S
O100 Co98 2.091 . S
O100 C106 1.261 . S
C101 O110 1.247 . S
C101 O111 1.272 . S
O102 Co98 2.004 . S
O102 C107 1.259 . S
Co103 O104 2.061 . S
Co103 O109 2.052 . S
Co103 O111 2.135 . S
O104 Co103 2.061 . S
O104 C107 1.235 . S
C105 O108 1.238 . S
C105 O109 1.241 . S
C106 O99 1.247 . S
C106 O100 1.261 . S
C107 O102 1.259 . S
C107 O104 1.235 . S
O108 Co98 2.021 . S
O108 C105 1.238 . S
O109 Co103 2.052 . S
O109 C105 1.241 . S
O110 Co98 2.137 . S
O110 C101 1.247 . S
O111 Co98 2.244 . S
O111 C101 1.272 . S
O111 Co103 2.135 . S
Co112 O113 2.216 . S
Co112 O114 2.091 . S
Co112 O116 2.004 . S
Co112 O122 2.021 . S
Co112 O124 2.137 . S
Co112 O125 2.244 . S
O113 Co112 2.216 . S
O113 C120 1.247 . S
O114 Co112 2.091 . S
O114 C120 1.261 . S
C115 O124 1.247 . S
C115 O125 1.272 . S
O116 Co112 2.004 . S
O116 C121 1.259 . S
Co117 O118 2.061 . S
Co117 O123 2.052 . S
Co117 O125 2.135 . S
O118 Co117 2.061 . S
O118 C121 1.235 . S
C119 O122 1.238 . S
C119 O123 1.241 . S
C120 O113 1.247 . S
C120 O114 1.261 . S
C121 O116 1.259 . S
C121 O118 1.235 . S
O122 Co112 2.021 . S
O122 C119 1.238 . S
O123 Co117 2.052 . S
O123 C119 1.241 . S
O124 Co112 2.137 . S
O124 C115 1.247 . S
O125 Co112 2.244 . S
O125 C115 1.272 . S
O125 Co117 2.135 . S
Co126 O127 2.216 . S
Co126 O128 2.091 . S
Co126 O130 2.004 . S
Co126 O136 2.021 . S
Co126 O138 2.137 . S
Co126 O139 2.244 . S
O127 Co126 2.216 . S
O127 C134 1.247 . S
O128 Co126 2.091 . S
O128 C134 1.261 . S
C129 O138 1.247 . S
C129 O139 1.272 . S
O130 Co126 2.004 . S
O130 C135 1.259 . S
Co131 O132 2.061 . S
Co131 O137 2.052 . S
Co131 O139 2.135 . S
O132 Co131 2.061 . S
O132 C135 1.235 . S
C133 O136 1.238 . S
C133 O137 1.241 . S
C134 O127 1.247 . S
C134 O128 1.261 . S
C135 O130 1.259 . S
C135 O132 1.235 . S
O136 Co126 2.021 . S
O136 C133 1.238 . S
O137 Co131 2.052 . S
O137 C133 1.241 . S
O138 Co126 2.137 . S
O138 C129 1.247 . S
O139 Co126 2.244 . S
O139 C129 1.272 . S
O139 Co131 2.135 . S
Co140 O141 2.216 . S
Co140 O142 2.091 . S
Co140 O144 2.004 . S
Co140 O150 2.021 . S
Co140 O152 2.137 . S
Co140 O153 2.244 . S
O141 Co140 2.216 . S
O141 C148 1.247 . S
O142 Co140 2.091 . S
O142 C148 1.261 . S
C143 O152 1.247 . S
C143 O153 1.272 . S
O144 Co140 2.004 . S
O144 C149 1.259 . S
Co145 O146 2.061 . S
Co145 O151 2.052 . S
Co145 O153 2.135 . S
O146 Co145 2.061 . S
O146 C149 1.235 . S
C147 O150 1.238 . S
C147 O151 1.241 . S
C148 O141 1.247 . S
C148 O142 1.261 . S
C149 O144 1.259 . S
C149 O146 1.235 . S
O150 Co140 2.021 . S
O150 C147 1.238 . S
O151 Co145 2.052 . S
O151 C147 1.241 . S
O152 Co140 2.137 . S
O152 C143 1.247 . S
O153 Co140 2.244 . S
O153 C143 1.272 . S
O153 Co145 2.135 . S
Co154 O155 2.216 . S
Co154 O156 2.091 . S
Co154 O158 2.004 . S
Co154 O164 2.021 . S
Co154 O166 2.137 . S
Co154 O167 2.244 . S
O155 Co154 2.216 . S
O155 C162 1.247 . S
O156 Co154 2.091 . S
O156 C162 1.261 . S
C157 O166 1.247 . S
C157 O167 1.272 . S
O158 Co154 2.004 . S
O158 C163 1.259 . S
Co159 O160 2.061 . S
Co159 O165 2.052 . S
Co159 O167 2.135 . S
O160 Co159 2.061 . S
O160 C163 1.235 . S
C161 O164 1.238 . S
C161 O165 1.241 . S
C162 O155 1.247 . S
C162 O156 1.261 . S
C163 O158 1.259 . S
C163 O160 1.235 . S
O164 Co154 2.021 . S
O164 C161 1.238 . S
O165 Co159 2.052 . S
O165 C161 1.241 . S
O166 Co154 2.137 . S
O166 C157 1.247 . S
O167 Co154 2.244 . S
O167 C157 1.272 . S
O167 Co159 2.135 . S
Co168 O169 2.216 . S
Co168 O170 2.091 . S
Co168 O172 2.004 . S
Co168 O178 2.021 . S
Co168 O180 2.137 . S
Co168 O181 2.244 . S
O169 Co168 2.216 . S
O169 C176 1.247 . S
O170 Co168 2.091 . S
O170 C176 1.261 . S
C171 O180 1.247 . S
C171 O181 1.272 . S
O172 Co168 2.004 . S
O172 C177 1.259 . S
Co173 O174 2.061 . S
Co173 O179 2.052 . S
Co173 O181 2.135 . S
O174 Co173 2.061 . S
O174 C177 1.235 . S
C175 O178 1.238 . S
C175 O179 1.241 . S
C176 O169 1.247 . S
C176 O170 1.261 . S
C177 O172 1.259 . S
C177 O174 1.235 . S
O178 Co168 2.021 . S
O178 C175 1.238 . S
O179 Co173 2.052 . S
O179 C175 1.241 . S
O180 Co168 2.137 . S
O180 C171 1.247 . S
O181 Co168 2.244 . S
O181 C171 1.272 . S
O181 Co173 2.135 . S
Co182 O183 2.216 . S
Co182 O184 2.091 . S
Co182 O186 2.004 . S
Co182 O192 2.021 . S
Co182 O194 2.137 . S
Co182 O195 2.244 . S
O183 Co182 2.216 . S
O183 C190 1.247 . S
O184 Co182 2.091 . S
O184 C190 1.261 . S
C185 O194 1.247 . S
C185 O195 1.272 . S
O186 Co182 2.004 . S
O186 C191 1.259 . S
Co187 O188 2.061 . S
Co187 O193 2.052 . S
Co187 O195 2.135 . S
O188 Co187 2.061 . S
O188 C191 1.235 . S
C189 O192 1.238 . S
C189 O193 1.241 . S
C190 O183 1.247 . S
C190 O184 1.261 . S
C191 O186 1.259 . S
C191 O188 1.235 . S
O192 Co182 2.021 . S
O192 C189 1.238 . S
O193 Co187 2.052 . S
O193 C189 1.241 . S
O194 Co182 2.137 . S
O194 C185 1.247 . S
O195 Co182 2.244 . S
O195 C185 1.272 . S
O195 Co187 2.135 . S
Co196 O197 2.216 . S
Co196 O198 2.091 . S
Co196 O200 2.004 . S
Co196 O206 2.021 . S
Co196 O208 2.137 . S
Co196 O209 2.244 . S
O197 Co196 2.216 . S
O197 C204 1.247 . S
O198 Co196 2.091 . S
O198 C204 1.261 . S
C199 O208 1.247 . S
C199 O209 1.272 . S
O200 Co196 2.004 . S
O200 C205 1.259 . S
Co201 O202 2.061 . S
Co201 O207 2.052 . S
Co201 O209 2.135 . S
O202 Co201 2.061 . S
O202 C205 1.235 . S
C203 O206 1.238 . S
C203 O207 1.241 . S
C204 O197 1.247 . S
C204 O198 1.261 . S
C205 O200 1.259 . S
C205 O202 1.235 . S
O206 Co196 2.021 . S
O206 C203 1.238 . S
O207 Co201 2.052 . S
O207 C203 1.241 . S
O208 Co196 2.137 . S
O208 C199 1.247 . S
O209 Co196 2.244 . S
O209 C199 1.272 . S
O209 Co201 2.135 . S
Co210 O211 2.216 . S
Co210 O212 2.091 . S
Co210 O214 2.004 . S
Co210 O220 2.021 . S
Co210 O222 2.137 . S
Co210 O223 2.244 . S
O211 Co210 2.216 . S
O211 C218 1.247 . S
O212 Co210 2.091 . S
O212 C218 1.261 . S
C213 O222 1.247 . S
C213 O223 1.272 . S
O214 Co210 2.004 . S
O214 C219 1.259 . S
Co215 O216 2.061 . S
Co215 O221 2.052 . S
Co215 O223 2.135 . S
O216 Co215 2.061 . S
O216 C219 1.235 . S
C217 O220 1.238 . S
C217 O221 1.241 . S
C218 O211 1.247 . S
C218 O212 1.261 . S
C219 O214 1.259 . S
C219 O216 1.235 . S
O220 Co210 2.021 . S
O220 C217 1.238 . S
O221 Co215 2.052 . S
O221 C217 1.241 . S
O222 Co210 2.137 . S
O222 C213 1.247 . S
O223 Co210 2.244 . S
O223 C213 1.272 . S
O223 Co215 2.135 . S
Co224 O225 2.216 . S
Co224 O226 2.091 . S
Co224 O228 2.004 . S
Co224 O234 2.021 . S
Co224 O236 2.137 . S
Co224 O237 2.244 . S
O225 Co224 2.216 . S
O225 C232 1.247 . S
O226 Co224 2.091 . S
O226 C232 1.261 . S
C227 O236 1.247 . S
C227 O237 1.272 . S
O228 Co224 2.004 . S
O228 C233 1.259 . S
Co229 O230 2.061 . S
Co229 O235 2.052 . S
Co229 O237 2.135 . S
O230 Co229 2.061 . S
O230 C233 1.235 . S
C231 O234 1.238 . S
C231 O235 1.241 . S
C232 O225 1.247 . S
C232 O226 1.261 . S
C233 O228 1.259 . S
C233 O230 1.235 . S
O234 Co224 2.021 . S
O234 C231 1.238 . S
O235 Co229 2.052 . S
O235 C231 1.241 . S
O236 Co224 2.137 . S
O236 C227 1.247 . S
O237 Co224 2.244 . S
O237 C227 1.272 . S
O237 Co229 2.135 . S
Co238 O239 2.216 . S
Co238 O240 2.091 . S
Co238 O242 2.004 . S
Co238 O248 2.021 . S
Co238 O250 2.137 . S
Co238 O251 2.244 . S
O239 Co238 2.216 . S
O239 C246 1.247 . S
O240 Co238 2.091 . S
O240 C246 1.261 . S
C241 O250 1.247 . S
C241 O251 1.272 . S
O242 Co238 2.004 . S
O242 C247 1.259 . S
Co243 O244 2.061 . S
Co243 O249 2.052 . S
Co243 O251 2.135 . S
O244 Co243 2.061 . S
O244 C247 1.235 . S
C245 O248 1.238 . S
C245 O249 1.241 . S
C246 O239 1.247 . S
C246 O240 1.261 . S
C247 O242 1.259 . S
C247 O244 1.235 . S
O248 Co238 2.021 . S
O248 C245 1.238 . S
O249 Co243 2.052 . S
O249 C245 1.241 . S
O250 Co238 2.137 . S
O250 C241 1.247 . S
O251 Co238 2.244 . S
O251 C241 1.272 . S
O251 Co243 2.135 . S
Co252 O253 2.216 . S
Co252 O254 2.091 . S
Co252 O256 2.004 . S
Co252 O262 2.021 . S
Co252 O264 2.137 . S
Co252 O265 2.244 . S
O253 Co252 2.216 . S
O253 C260 1.247 . S
O254 Co252 2.091 . S
O254 C260 1.261 . S
C255 O264 1.247 . S
C255 O265 1.272 . S
O256 Co252 2.004 . S
O256 C261 1.259 . S
Co257 O258 2.061 . S
Co257 O263 2.052 . S
Co257 O265 2.135 . S
O258 Co257 2.061 . S
O258 C261 1.235 . S
C259 O262 1.238 . S
C259 O263 1.241 . S
C260 O253 1.247 . S
C260 O254 1.261 . S
C261 O256 1.259 . S
C261 O258 1.235 . S
O262 Co252 2.021 . S
O262 C259 1.238 . S
O263 Co257 2.052 . S
O263 C259 1.241 . S
O264 Co252 2.137 . S
O264 C255 1.247 . S
O265 Co252 2.244 . S
O265 C255 1.272 . S
O265 Co257 2.135 . S
Co266 O267 2.216 . S
Co266 O268 2.091 . S
Co266 O270 2.004 . S
Co266 O276 2.021 . S
Co266 O278 2.137 . S
Co266 O279 2.244 . S
O267 Co266 2.216 . S
O267 C274 1.247 . S
O268 Co266 2.091 . S
O268 C274 1.261 . S
C269 O278 1.247 . S
C269 O279 1.272 . S
O270 Co266 2.004 . S
O270 C275 1.259 . S
Co271 O272 2.061 . S
Co271 O277 2.052 . S
Co271 O279 2.135 . S
O272 Co271 2.061 . S
O272 C275 1.235 . S
C273 O276 1.238 . S
C273 O277 1.241 . S
C274 O267 1.247 . S
C274 O268 1.261 . S
C275 O270 1.259 . S
C275 O272 1.235 . S
O276 Co266 2.021 . S
O276 C273 1.238 . S
O277 Co271 2.052 . S
O277 C273 1.241 . S
O278 Co266 2.137 . S
O278 C269 1.247 . S
O279 Co266 2.244 . S
O279 C269 1.272 . S
O279 Co271 2.135 . S
Co280 O281 2.216 . S
Co280 O282 2.091 . S
Co280 O284 2.004 . S
Co280 O290 2.021 . S
Co280 O292 2.137 . S
Co280 O293 2.244 . S
O281 Co280 2.216 . S
O281 C288 1.247 . S
O282 Co280 2.091 . S
O282 C288 1.261 . S
C283 O292 1.247 . S
C283 O293 1.272 . S
O284 Co280 2.004 . S
O284 C289 1.259 . S
Co285 O286 2.061 . S
Co285 O291 2.052 . S
Co285 O293 2.135 . S
O286 Co285 2.061 . S
O286 C289 1.235 . S
C287 O290 1.238 . S
C287 O291 1.241 . S
C288 O281 1.247 . S
C288 O282 1.261 . S
C289 O284 1.259 . S
C289 O286 1.235 . S
O290 Co280 2.021 . S
O290 C287 1.238 . S
O291 Co285 2.052 . S
O291 C287 1.241 . S
O292 Co280 2.137 . S
O292 C283 1.247 . S
O293 Co280 2.244 . S
O293 C283 1.272 . S
O293 Co285 2.135 . S
Co294 O295 2.216 . S
Co294 O296 2.091 . S
Co294 O298 2.004 . S
Co294 O304 2.021 . S
Co294 O306 2.137 1_554 S
Co294 O307 2.244 1_554 S
O295 Co294 2.216 . S
O295 C302 1.247 . S
O296 Co294 2.091 . S
O296 C302 1.261 . S
C297 O306 1.247 . S
C297 O307 1.272 . S
O298 Co294 2.004 . S
O298 C303 1.259 . S
Co299 O300 2.061 . S
Co299 O305 2.052 . S
Co299 O307 2.135 1_554 S
O300 Co299 2.061 . S
O300 C303 1.235 . S
C301 O304 1.238 . S
C301 O305 1.241 . S
C302 O295 1.247 . S
C302 O296 1.261 . S
C303 O298 1.259 . S
C303 O300 1.235 . S
O304 Co294 2.021 . S
O304 C301 1.238 . S
O305 Co299 2.052 . S
O305 C301 1.241 . S
O306 Co294 2.137 1_556 S
O306 C297 1.247 . S
O307 Co294 2.244 1_556 S
O307 C297 1.272 . S
O307 Co299 2.135 1_556 S
Co308 O309 2.216 . S
Co308 O310 2.091 . S
Co308 O312 2.004 . S
Co308 O318 2.021 . S
Co308 O320 2.137 1_554 S
Co308 O321 2.244 1_554 S
O309 Co308 2.216 . S
O309 C316 1.247 . S
O310 Co308 2.091 . S
O310 C316 1.261 . S
C311 O320 1.247 . S
C311 O321 1.272 . S
O312 Co308 2.004 . S
O312 C317 1.259 . S
Co313 O314 2.061 . S
Co313 O319 2.052 . S
Co313 O321 2.135 1_554 S
O314 Co313 2.061 . S
O314 C317 1.235 . S
C315 O318 1.238 . S
C315 O319 1.241 . S
C316 O309 1.247 . S
C316 O310 1.261 . S
C317 O312 1.259 . S
C317 O314 1.235 . S
O318 Co308 2.021 . S
O318 C315 1.238 . S
O319 Co313 2.052 . S
O319 C315 1.241 . S
O320 Co308 2.137 1_556 S
O320 C311 1.247 . S
O321 Co308 2.244 1_556 S
O321 C311 1.272 . S
O321 Co313 2.135 1_556 S
Co322 O323 2.216 . S
Co322 O324 2.091 . S
Co322 O326 2.004 . S
Co322 O332 2.021 . S
Co322 O334 2.137 1_554 S
Co322 O335 2.244 1_554 S
O323 Co322 2.216 . S
O323 C330 1.247 . S
O324 Co322 2.091 . S
O324 C330 1.261 . S
C325 O334 1.247 . S
C325 O335 1.272 . S
O326 Co322 2.004 . S
O326 C331 1.259 . S
Co327 O328 2.061 . S
Co327 O333 2.052 . S
Co327 O335 2.135 1_554 S
O328 Co327 2.061 . S
O328 C331 1.235 . S
C329 O332 1.238 . S
C329 O333 1.241 . S
C330 O323 1.247 . S
C330 O324 1.261 . S
C331 O326 1.259 . S
C331 O328 1.235 . S
O332 Co322 2.021 . S
O332 C329 1.238 . S
O333 Co327 2.052 . S
O333 C329 1.241 . S
O334 Co322 2.137 1_556 S
O334 C325 1.247 . S
O335 Co322 2.244 1_556 S
O335 C325 1.272 . S
O335 Co327 2.135 1_556 S
Co336 O337 2.216 . S
Co336 O338 2.091 . S
Co336 O340 2.004 . S
Co336 O346 2.021 . S
Co336 O348 2.137 . S
Co336 O349 2.244 . S
O337 Co336 2.216 . S
O337 C344 1.247 . S
O338 Co336 2.091 . S
O338 C344 1.261 . S
C339 O348 1.247 . S
C339 O349 1.272 . S
O340 Co336 2.004 . S
O340 C345 1.259 . S
Co341 O342 2.061 . S
Co341 O347 2.052 . S
Co341 O349 2.135 . S
O342 Co341 2.061 . S
O342 C345 1.235 . S
C343 O346 1.238 . S
C343 O347 1.241 . S
C344 O337 1.247 . S
C344 O338 1.261 . S
C345 O340 1.259 . S
C345 O342 1.235 . S
O346 Co336 2.021 . S
O346 C343 1.238 . S
O347 Co341 2.052 . S
O347 C343 1.241 . S
O348 Co336 2.137 . S
O348 C339 1.247 . S
O349 Co336 2.244 . S
O349 C339 1.272 . S
O349 Co341 2.135 . S
Co350 O351 2.216 . S
Co350 O352 2.091 . S
Co350 O354 2.004 . S
Co350 O360 2.021 . S
Co350 O362 2.137 . S
Co350 O363 2.244 . S
O351 Co350 2.216 . S
O351 C358 1.247 . S
O352 Co350 2.091 . S
O352 C358 1.261 . S
C353 O362 1.247 . S
C353 O363 1.272 . S
O354 Co350 2.004 . S
O354 C359 1.259 . S
Co355 O356 2.061 . S
Co355 O361 2.052 . S
Co355 O363 2.135 . S
O356 Co355 2.061 . S
O356 C359 1.235 . S
C357 O360 1.238 . S
C357 O361 1.241 . S
C358 O351 1.247 . S
C358 O352 1.261 . S
C359 O354 1.259 . S
C359 O356 1.235 . S
O360 Co350 2.021 . S
O360 C357 1.238 . S
O361 Co355 2.052 . S
O361 C357 1.241 . S
O362 Co350 2.137 . S
O362 C353 1.247 . S
O363 Co350 2.244 . S
O363 C353 1.272 . S
O363 Co355 2.135 . S
Co364 O365 2.216 . S
Co364 O366 2.091 . S
Co364 O368 2.004 . S
Co364 O374 2.021 . S
Co364 O376 2.137 . S
Co364 O377 2.244 . S
O365 Co364 2.216 . S
O365 C372 1.247 . S
O366 Co364 2.091 . S
O366 C372 1.261 . S
C367 O376 1.247 . S
C367 O377 1.272 . S
O368 Co364 2.004 . S
O368 C373 1.259 . S
Co369 O370 2.061 . S
Co369 O375 2.052 . S
Co369 O377 2.135 . S
O370 Co369 2.061 . S
O370 C373 1.235 . S
C371 O374 1.238 . S
C371 O375 1.241 . S
C372 O365 1.247 . S
C372 O366 1.261 . S
C373 O368 1.259 . S
C373 O370 1.235 . S
O374 Co364 2.021 . S
O374 C371 1.238 . S
O375 Co369 2.052 . S
O375 C371 1.241 . S
O376 Co364 2.137 . S
O376 C367 1.247 . S
O377 Co364 2.244 . S
O377 C367 1.272 . S
O377 Co369 2.135 . S
Co378 O379 2.216 . S
Co378 O380 2.091 . S
Co378 O382 2.004 . S
Co378 O388 2.021 . S
Co378 O390 2.137 1_556 S
Co378 O391 2.244 1_556 S
O379 Co378 2.216 . S
O379 C386 1.247 . S
O380 Co378 2.091 . S
O380 C386 1.261 . S
C381 O390 1.247 . S
C381 O391 1.272 . S
O382 Co378 2.004 . S
O382 C387 1.259 . S
Co383 O384 2.061 . S
Co383 O389 2.052 . S
Co383 O391 2.135 1_556 S
O384 Co383 2.061 . S
O384 C387 1.235 . S
C385 O388 1.238 . S
C385 O389 1.241 . S
C386 O379 1.247 . S
C386 O380 1.261 . S
C387 O382 1.259 . S
C387 O384 1.235 . S
O388 Co378 2.021 . S
O388 C385 1.238 . S
O389 Co383 2.052 . S
O389 C385 1.241 . S
O390 Co378 2.137 1_554 S
O390 C381 1.247 . S
O391 Co378 2.244 1_554 S
O391 C381 1.272 . S
O391 Co383 2.135 1_554 S
Co392 O393 2.216 . S
Co392 O394 2.091 . S
Co392 O396 2.004 . S
Co392 O402 2.021 . S
Co392 O404 2.137 1_556 S
Co392 O405 2.244 1_556 S
O393 Co392 2.216 . S
O393 C400 1.247 . S
O394 Co392 2.091 . S
O394 C400 1.261 . S
C395 O404 1.247 . S
C395 O405 1.272 . S
O396 Co392 2.004 . S
O396 C401 1.259 . S
Co397 O398 2.061 . S
Co397 O403 2.052 . S
Co397 O405 2.135 1_556 S
O398 Co397 2.061 . S
O398 C401 1.235 . S
C399 O402 1.238 . S
C399 O403 1.241 . S
C400 O393 1.247 . S
C400 O394 1.261 . S
C401 O396 1.259 . S
C401 O398 1.235 . S
O402 Co392 2.021 . S
O402 C399 1.238 . S
O403 Co397 2.052 . S
O403 C399 1.241 . S
O404 Co392 2.137 1_554 S
O404 C395 1.247 . S
O405 Co392 2.244 1_554 S
O405 C395 1.272 . S
O405 Co397 2.135 1_554 S
Co406 O407 2.216 . S
Co406 O408 2.091 . S
Co406 O410 2.004 . S
Co406 O416 2.021 . S
Co406 O418 2.137 1_556 S
Co406 O419 2.244 1_556 S
O407 Co406 2.216 . S
O407 C414 1.247 . S
O408 Co406 2.091 . S
O408 C414 1.261 . S
C409 O418 1.247 . S
C409 O419 1.272 . S
O410 Co406 2.004 . S
O410 C415 1.259 . S
Co411 O412 2.061 . S
Co411 O417 2.052 . S
Co411 O419 2.135 1_556 S
O412 Co411 2.061 . S
O412 C415 1.235 . S
C413 O416 1.238 . S
C413 O417 1.241 . S
C414 O407 1.247 . S
C414 O408 1.261 . S
C415 O410 1.259 . S
C415 O412 1.235 . S
O416 Co406 2.021 . S
O416 C413 1.238 . S
O417 Co411 2.052 . S
O417 C413 1.241 . S
O418 Co406 2.137 1_554 S
O418 C409 1.247 . S
O419 Co406 2.244 1_554 S
O419 C409 1.272 . S
O419 Co411 2.135 1_554 S
Co420 O421 2.216 . S
Co420 O422 2.091 . S
Co420 O424 2.004 . S
Co420 O430 2.021 . S
Co420 O432 2.137 . S
Co420 O433 2.244 . S
O421 Co420 2.216 . S
O421 C428 1.247 . S
O422 Co420 2.091 . S
O422 C428 1.261 . S
C423 O432 1.247 . S
C423 O433 1.272 . S
O424 Co420 2.004 . S
O424 C429 1.259 . S
Co425 O426 2.061 . S
Co425 O431 2.052 . S
Co425 O433 2.135 . S
O426 Co425 2.061 . S
O426 C429 1.235 . S
C427 O430 1.238 . S
C427 O431 1.241 . S
C428 O421 1.247 . S
C428 O422 1.261 . S
C429 O424 1.259 . S
C429 O426 1.235 . S
O430 Co420 2.021 . S
O430 C427 1.238 . S
O431 Co425 2.052 . S
O431 C427 1.241 . S
O432 Co420 2.137 . S
O432 C423 1.247 . S
O433 Co420 2.244 . S
O433 C423 1.272 . S
O433 Co425 2.135 . S
Co434 O435 2.216 . S
Co434 O436 2.091 . S
Co434 O438 2.004 . S
Co434 O444 2.021 . S
Co434 O446 2.137 . S
Co434 O447 2.244 . S
O435 Co434 2.216 . S
O435 C442 1.247 . S
O436 Co434 2.091 . S
O436 C442 1.261 . S
C437 O446 1.247 . S
C437 O447 1.272 . S
O438 Co434 2.004 . S
O438 C443 1.259 . S
Co439 O440 2.061 . S
Co439 O445 2.052 . S
Co439 O447 2.135 . S
O440 Co439 2.061 . S
O440 C443 1.235 . S
C441 O444 1.238 . S
C441 O445 1.241 . S
C442 O435 1.247 . S
C442 O436 1.261 . S
C443 O438 1.259 . S
C443 O440 1.235 . S
O444 Co434 2.021 . S
O444 C441 1.238 . S
O445 Co439 2.052 . S
O445 C441 1.241 . S
O446 Co434 2.137 . S
O446 C437 1.247 . S
O447 Co434 2.244 . S
O447 C437 1.272 . S
O447 Co439 2.135 . S
Co448 O449 2.216 . S
Co448 O450 2.091 . S
Co448 O452 2.004 . S
Co448 O458 2.021 . S
Co448 O460 2.137 . S
Co448 O461 2.244 . S
O449 Co448 2.216 . S
O449 C456 1.247 . S
O450 Co448 2.091 . S
O450 C456 1.261 . S
C451 O460 1.247 . S
C451 O461 1.272 . S
O452 Co448 2.004 . S
O452 C457 1.259 . S
Co453 O454 2.061 . S
Co453 O459 2.052 . S
Co453 O461 2.135 . S
O454 Co453 2.061 . S
O454 C457 1.235 . S
C455 O458 1.238 . S
C455 O459 1.241 . S
C456 O449 1.247 . S
C456 O450 1.261 . S
C457 O452 1.259 . S
C457 O454 1.235 . S
O458 Co448 2.021 . S
O458 C455 1.238 . S
O459 Co453 2.052 . S
O459 C455 1.241 . S
O460 Co448 2.137 . S
O460 C451 1.247 . S
O461 Co448 2.244 . S
O461 C451 1.272 . S
O461 Co453 2.135 . S
Co462 O463 2.216 . S
Co462 O464 2.091 . S
Co462 O466 2.004 . S
Co462 O472 2.021 . S
Co462 O474 2.137 . S
Co462 O475 2.244 . S
O463 Co462 2.216 . S
O463 C470 1.247 . S
O464 Co462 2.091 . S
O464 C470 1.261 . S
C465 O474 1.247 . S
C465 O475 1.272 . S
O466 Co462 2.004 . S
O466 C471 1.259 . S
Co467 O468 2.061 . S
Co467 O473 2.052 . S
Co467 O475 2.135 . S
O468 Co467 2.061 . S
O468 C471 1.235 . S
C469 O472 1.238 . S
C469 O473 1.241 . S
C470 O463 1.247 . S
C470 O464 1.261 . S
C471 O466 1.259 . S
C471 O468 1.235 . S
O472 Co462 2.021 . S
O472 C469 1.238 . S
O473 Co467 2.052 . S
O473 C469 1.241 . S
O474 Co462 2.137 . S
O474 C465 1.247 . S
O475 Co462 2.244 . S
O475 C465 1.272 . S
O475 Co467 2.135 . S
Co476 O477 2.216 . S
Co476 O478 2.091 . S
Co476 O480 2.004 . S
Co476 O486 2.021 . S
Co476 O488 2.137 . S
Co476 O489 2.244 . S
O477 Co476 2.216 . S
O477 C484 1.247 . S
O478 Co476 2.091 . S
O478 C484 1.261 . S
C479 O488 1.247 . S
C479 O489 1.272 . S
O480 Co476 2.004 . S
O480 C485 1.259 . S
Co481 O482 2.061 . S
Co481 O487 2.052 . S
Co481 O489 2.135 . S
O482 Co481 2.061 . S
O482 C485 1.235 . S
C483 O486 1.238 . S
C483 O487 1.241 . S
C484 O477 1.247 . S
C484 O478 1.261 . S
C485 O480 1.259 . S
C485 O482 1.235 . S
O486 Co476 2.021 . S
O486 C483 1.238 . S
O487 Co481 2.052 . S
O487 C483 1.241 . S
O488 Co476 2.137 . S
O488 C479 1.247 . S
O489 Co476 2.244 . S
O489 C479 1.272 . S
O489 Co481 2.135 . S
Co490 O491 2.216 . S
Co490 O492 2.091 . S
Co490 O494 2.004 . S
Co490 O500 2.021 . S
Co490 O502 2.137 . S
Co490 O503 2.244 . S
O491 Co490 2.216 . S
O491 C498 1.247 . S
O492 Co490 2.091 . S
O492 C498 1.261 . S
C493 O502 1.247 . S
C493 O503 1.272 . S
O494 Co490 2.004 . S
O494 C499 1.259 . S
Co495 O496 2.061 . S
Co495 O501 2.052 . S
Co495 O503 2.135 . S
O496 Co495 2.061 . S
O496 C499 1.235 . S
C497 O500 1.238 . S
C497 O501 1.241 . S
C498 O491 1.247 . S
C498 O492 1.261 . S
C499 O494 1.259 . S
C499 O496 1.235 . S
O500 Co490 2.021 . S
O500 C497 1.238 . S
O501 Co495 2.052 . S
O501 C497 1.241 . S
O502 Co490 2.137 . S
O502 C493 1.247 . S
O503 Co490 2.244 . S
O503 C493 1.272 . S
O503 Co495 2.135 . S
H504 C512 0.950 . S
H505 C517 0.950 . S
H506 C514 0.950 . S
H507 C516 0.950 . S
H508 C518 0.950 . S
H509 C520 0.950 1_556 S
H510 C522 0.946 1_556 S
H511 C523 0.950 . S
C512 H504 0.950 . S
C512 C513 1.386 . S
C512 C514 1.391 . S
C513 C512 1.386 . S
C513 C517 1.393 . S
C514 H506 0.950 . S
C514 C512 1.391 . S
C514 C515 1.400 . S
C515 C514 1.400 . S
C515 C516 1.398 . S
C515 C521 1.491 . S
C516 H507 0.950 . S
C516 C515 1.398 . S
C516 C517 1.391 . S
C517 H505 0.950 . S
C517 C513 1.393 . S
C517 C516 1.391 . S
C518 H508 0.950 . S
C518 C519 1.386 . S
C518 C520 1.391 . S
C519 C518 1.386 . S
C519 C523 1.393 . S
C520 H509 0.950 1_554 S
C520 C518 1.391 . S
C520 C521 1.400 1_554 S
C521 C515 1.491 . S
C521 C520 1.400 1_556 S
C521 C522 1.398 1_556 S
C522 H510 0.946 1_554 S
C522 C521 1.398 1_554 S
C522 C523 1.391 . S
C523 H511 0.950 . S
C523 C519 1.393 . S
C523 C522 1.391 . S
H524 C532 0.950 . S
H525 C537 0.950 . S
H526 C534 0.950 . S
H527 C536 0.950 . S
H528 C538 0.950 . S
H529 C540 0.950 . S
H530 C542 0.950 1_556 S
H531 C543 0.950 . S
C532 H524 0.950 . S
C532 C533 1.386 . S
C532 C534 1.391 . S
C533 C532 1.386 . S
C533 C537 1.393 . S
C534 H526 0.950 . S
C534 C532 1.391 . S
C534 C535 1.400 . S
C535 C534 1.400 . S
C535 C536 1.398 . S
C535 C541 1.491 . S
C536 H527 0.950 . S
C536 C535 1.398 . S
C536 C537 1.391 . S
C537 H525 0.950 . S
C537 C533 1.393 . S
C537 C536 1.391 . S
C538 H528 0.950 . S
C538 C539 1.386 . S
C538 C540 1.391 . S
C539 C538 1.386 . S
C539 C543 1.393 . S
C540 H529 0.950 . S
C540 C538 1.391 . S
C540 C541 1.400 1_554 S
C541 C535 1.491 . S
C541 C540 1.400 1_556 S
C541 C542 1.398 1_556 S
C542 H530 0.950 1_554 S
C542 C541 1.398 1_554 S
C542 C543 1.391 . S
C543 H531 0.950 . S
C543 C539 1.393 . S
C543 C542 1.391 . S
H544 C552 0.950 . S
H545 C557 0.950 . S
H546 C554 0.950 1_556 S
H547 C556 0.950 . S
H548 C558 0.950 . S
H549 C560 0.950 . S
H550 C562 0.950 . S
H551 C563 0.950 . S
C552 H544 0.950 . S
C552 C553 1.386 . S
C552 C554 1.391 . S
C553 C552 1.386 . S
C553 C557 1.393 . S
C554 H546 0.950 1_554 S
C554 C552 1.391 . S
C554 C555 1.400 1_554 S
C555 C554 1.400 1_556 S
C555 C556 1.398 1_556 S
C555 C561 1.491 . S
C556 H547 0.950 . S
C556 C555 1.398 1_554 S
C556 C557 1.391 . S
C557 H545 0.950 . S
C557 C553 1.393 . S
C557 C556 1.391 . S
C558 H548 0.950 . S
C558 C559 1.386 . S
C558 C560 1.391 . S
C559 C558 1.386 . S
C559 C563 1.393 . S
C560 H549 0.950 . S
C560 C558 1.391 . S
C560 C561 1.400 . S
C561 C555 1.491 . S
C561 C560 1.400 . S
C561 C562 1.398 . S
C562 H550 0.950 . S
C562 C561 1.398 . S
C562 C563 1.391 . S
C563 H551 0.950 . S
C563 C559 1.393 . S
C563 C562 1.391 . S
H564 C572 0.950 . S
H565 C577 0.950 . S
H566 C574 0.950 . S
H567 C576 0.950 . S
H568 C578 0.950 . S
H569 C580 0.950 . S
H570 C582 0.950 . S
H571 C583 0.950 . S
C572 H564 0.950 . S
C572 C573 1.386 . S
C572 C574 1.391 . S
C573 C572 1.386 . S
C573 C577 1.393 . S
C574 H566 0.950 . S
C574 C572 1.391 . S
C574 C575 1.400 . S
C575 C574 1.400 . S
C575 C576 1.398 . S
C575 C581 1.491 . S
C576 H567 0.950 . S
C576 C575 1.398 . S
C576 C577 1.391 . S
C577 H565 0.950 . S
C577 C573 1.393 . S
C577 C576 1.391 . S
C578 H568 0.950 . S
C578 C579 1.386 . S
C578 C580 1.391 . S
C579 C578 1.386 . S
C579 C583 1.393 . S
C580 H569 0.950 . S
C580 C578 1.391 . S
C580 C581 1.400 . S
C581 C575 1.491 . S
C581 C580 1.400 . S
C581 C582 1.398 . S
C582 H570 0.950 . S
C582 C581 1.398 . S
C582 C583 1.391 . S
C583 H571 0.950 . S
C583 C579 1.393 . S
C583 C582 1.391 . S
H584 C592 0.950 . S
H585 C597 0.950 . S
H586 C594 0.950 . S
H587 C596 0.950 . S
H588 C598 0.950 . S
H589 C600 0.950 . S
H590 C602 0.950 . S
H591 C603 0.950 . S
C592 H584 0.950 . S
C592 C593 1.386 . S
C592 C594 1.391 . S
C593 C592 1.386 . S
C593 C597 1.393 . S
C594 H586 0.950 . S
C594 C592 1.391 . S
C594 C595 1.400 . S
C595 C594 1.400 . S
C595 C596 1.398 . S
C595 C601 1.491 . S
C596 H587 0.950 . S
C596 C595 1.398 . S
C596 C597 1.391 . S
C597 H585 0.950 . S
C597 C593 1.393 . S
C597 C596 1.391 . S
C598 H588 0.950 . S
C598 C599 1.386 . S
C598 C600 1.391 . S
C599 C598 1.386 . S
C599 C603 1.393 . S
C600 H589 0.950 . S
C600 C598 1.391 . S
C600 C601 1.400 . S
C601 C595 1.491 . S
C601 C600 1.400 . S
C601 C602 1.398 . S
C602 H590 0.950 . S
C602 C601 1.398 . S
C602 C603 1.391 . S
C603 H591 0.950 . S
C603 C599 1.393 . S
C603 C602 1.391 . S
H604 C612 0.950 . S
H605 C617 0.950 . S
H606 C614 0.950 . S
H607 C616 0.950 . S
H608 C618 0.950 . S
H609 C620 0.950 . S
H610 C622 0.950 . S
H611 C623 0.950 . S
C612 H604 0.950 . S
C612 C613 1.386 . S
C612 C614 1.391 . S
C613 C612 1.386 . S
C613 C617 1.393 . S
C614 H606 0.950 . S
C614 C612 1.391 . S
C614 C615 1.400 . S
C615 C614 1.400 . S
C615 C616 1.398 . S
C615 C621 1.491 . S
C616 H607 0.950 . S
C616 C615 1.398 . S
C616 C617 1.391 . S
C617 H605 0.950 . S
C617 C613 1.393 . S
C617 C616 1.391 . S
C618 H608 0.950 . S
C618 C619 1.386 . S
C618 C620 1.391 . S
C619 C618 1.386 . S
C619 C623 1.393 . S
C620 H609 0.950 . S
C620 C618 1.391 . S
C620 C621 1.400 . S
C621 C615 1.491 . S
C621 C620 1.400 . S
C621 C622 1.398 . S
C622 H610 0.950 . S
C622 C621 1.398 . S
C622 C623 1.391 . S
C623 H611 0.950 . S
C623 C619 1.393 . S
C623 C622 1.391 . S
H624 C632 0.950 . S
H625 C637 0.950 . S
H626 C634 0.950 . S
H627 C636 0.950 . S
H628 C638 0.950 . S
H629 C640 0.950 1_554 S
H630 C642 0.950 1_554 S
H631 C643 0.950 . S
C632 H624 0.950 . S
C632 C633 1.386 . S
C632 C634 1.391 . S
C633 C632 1.386 . S
C633 C637 1.393 . S
C634 H626 0.950 . S
C634 C632 1.391 . S
C634 C635 1.400 . S
C635 C634 1.400 . S
C635 C636 1.398 . S
C635 C641 1.491 . S
C636 H627 0.950 . S
C636 C635 1.398 . S
C636 C637 1.391 . S
C637 H625 0.950 . S
C637 C633 1.393 . S
C637 C636 1.391 . S
C638 H628 0.950 . S
C638 C639 1.386 . S
C638 C640 1.391 . S
C639 C638 1.386 . S
C639 C643 1.393 . S
C640 H629 0.950 1_556 S
C640 C638 1.391 . S
C640 C641 1.400 1_556 S
C641 C635 1.491 . S
C641 C640 1.400 1_554 S
C641 C642 1.398 1_554 S
C642 H630 0.950 1_556 S
C642 C641 1.398 1_556 S
C642 C643 1.391 . S
C643 H631 0.950 . S
C643 C639 1.393 . S
C643 C642 1.391 . S
H644 C652 0.950 . S
H645 C657 0.950 . S
H646 C654 0.950 . S
H647 C656 0.950 . S
H648 C658 0.950 . S
H649 C660 0.950 1_554 S
H650 C662 0.947 1_554 S
H651 C663 0.950 . S
C652 H644 0.950 . S
C652 C653 1.386 . S
C652 C654 1.391 . S
C653 C652 1.386 . S
C653 C657 1.393 . S
C654 H646 0.950 . S
C654 C652 1.391 . S
C654 C655 1.400 . S
C655 C654 1.400 . S
C655 C656 1.398 . S
C655 C661 1.491 . S
C656 H647 0.950 . S
C656 C655 1.398 . S
C656 C657 1.391 . S
C657 H645 0.950 . S
C657 C653 1.393 . S
C657 C656 1.391 . S
C658 H648 0.950 . S
C658 C659 1.386 . S
C658 C660 1.391 . S
C659 C658 1.386 . S
C659 C663 1.393 . S
C660 H649 0.950 1_556 S
C660 C658 1.391 . S
C660 C661 1.400 1_556 S
C661 C655 1.491 . S
C661 C660 1.400 1_554 S
C661 C662 1.398 1_554 S
C662 H650 0.947 1_556 S
C662 C661 1.398 1_556 S
C662 C663 1.391 . S
C663 H651 0.950 . S
C663 C659 1.393 . S
C663 C662 1.391 . S
H664 C672 0.950 . S
H665 C677 0.950 . S
H666 C674 0.950 . S
H667 C676 0.950 1_554 S
H668 C678 0.950 . S
H669 C680 0.950 . S
H670 C682 0.950 . S
H671 C683 0.950 . S
C672 H664 0.950 . S
C672 C673 1.386 . S
C672 C674 1.391 . S
C673 C672 1.386 . S
C673 C677 1.393 . S
C674 H666 0.950 . S
C674 C672 1.391 . S
C674 C675 1.400 1_556 S
C675 C674 1.400 1_554 S
C675 C676 1.398 1_554 S
C675 C681 1.491 . S
C676 H667 0.950 1_556 S
C676 C675 1.398 1_556 S
C676 C677 1.391 . S
C677 H665 0.950 . S
C677 C673 1.393 . S
C677 C676 1.391 . S
C678 H668 0.950 . S
C678 C679 1.386 . S
C678 C680 1.391 . S
C679 C678 1.386 . S
C679 C683 1.393 . S
C680 H669 0.950 . S
C680 C678 1.391 . S
C680 C681 1.400 . S
C681 C675 1.491 . S
C681 C680 1.400 . S
C681 C682 1.398 . S
C682 H670 0.950 . S
C682 C681 1.398 . S
C682 C683 1.391 . S
C683 H671 0.950 . S
C683 C679 1.393 . S
C683 C682 1.391 . S
H684 C692 0.950 . S
H685 C697 0.950 . S
H686 C694 0.950 . S
H687 C696 0.950 . S
H688 C698 0.950 . S
H689 C700 0.950 . S
H690 C702 0.950 . S
H691 C703 0.950 . S
C692 H684 0.950 . S
C692 C693 1.386 . S
C692 C694 1.391 . S
C693 C692 1.386 . S
C693 C697 1.393 . S
C694 H686 0.950 . S
C694 C692 1.391 . S
C694 C695 1.400 . S
C695 C694 1.400 . S
C695 C696 1.398 . S
C695 C701 1.491 . S
C696 H687 0.950 . S
C696 C695 1.398 . S
C696 C697 1.391 . S
C697 H685 0.950 . S
C697 C693 1.393 . S
C697 C696 1.391 . S
C698 H688 0.950 . S
C698 C699 1.386 . S
C698 C700 1.391 . S
C699 C698 1.386 . S
C699 C703 1.393 . S
C700 H689 0.950 . S
C700 C698 1.391 . S
C700 C701 1.400 . S
C701 C695 1.491 . S
C701 C700 1.400 . S
C701 C702 1.398 . S
C702 H690 0.950 . S
C702 C701 1.398 . S
C702 C703 1.391 . S
C703 H691 0.950 . S
C703 C699 1.393 . S
C703 C702 1.391 . S
H704 C712 0.950 . S
H705 C717 0.950 . S
H706 C714 0.950 . S
H707 C716 0.950 . S
H708 C718 0.950 . S
H709 C720 0.950 . S
H710 C722 0.950 . S
H711 C723 0.950 . S
C712 H704 0.950 . S
C712 C713 1.386 . S
C712 C714 1.391 . S
C713 C712 1.386 . S
C713 C717 1.393 . S
C714 H706 0.950 . S
C714 C712 1.391 . S
C714 C715 1.400 . S
C715 C714 1.400 . S
C715 C716 1.398 . S
C715 C721 1.491 . S
C716 H707 0.950 . S
C716 C715 1.398 . S
C716 C717 1.391 . S
C717 H705 0.950 . S
C717 C713 1.393 . S
C717 C716 1.391 . S
C718 H708 0.950 . S
C718 C719 1.386 . S
C718 C720 1.391 . S
C719 C718 1.386 . S
C719 C723 1.393 . S
C720 H709 0.950 . S
C720 C718 1.391 . S
C720 C721 1.400 . S
C721 C715 1.491 . S
C721 C720 1.400 . S
C721 C722 1.398 . S
C722 H710 0.950 . S
C722 C721 1.398 . S
C722 C723 1.391 . S
C723 H711 0.950 . S
C723 C719 1.393 . S
C723 C722 1.391 . S
H724 C732 0.950 . S
H725 C737 0.950 . S
H726 C734 0.950 . S
H727 C736 0.950 . S
H728 C738 0.950 . S
H729 C740 0.950 . S
H730 C742 0.950 . S
H731 C743 0.950 . S
C732 H724 0.950 . S
C732 C733 1.386 . S
C732 C734 1.391 . S
C733 C732 1.386 . S
C733 C737 1.393 . S
C734 H726 0.950 . S
C734 C732 1.391 . S
C734 C735 1.400 . S
C735 C734 1.400 . S
C735 C736 1.398 . S
C735 C741 1.491 . S
C736 H727 0.950 . S
C736 C735 1.398 . S
C736 C737 1.391 . S
C737 H725 0.950 . S
C737 C733 1.393 . S
C737 C736 1.391 . S
C738 H728 0.950 . S
C738 C739 1.386 . S
C738 C740 1.391 . S
C739 C738 1.386 . S
C739 C743 1.393 . S
C740 H729 0.950 . S
C740 C738 1.391 . S
C740 C741 1.400 . S
C741 C735 1.491 . S
C741 C740 1.400 . S
C741 C742 1.398 . S
C742 H730 0.950 . S
C742 C741 1.398 . S
C742 C743 1.391 . S
C743 H731 0.950 . S
C743 C739 1.393 . S
C743 C742 1.391 . S
H744 C752 0.950 . S
H745 C757 0.950 . S
H746 C754 0.950 . S
H747 C756 0.950 . S
H748 C758 0.950 . S
H749 C760 0.950 . S
H750 C762 0.950 . S
H751 C763 0.950 . S
C752 H744 0.950 . S
C752 C753 1.386 . S
C752 C754 1.391 . S
C753 C752 1.386 . S
C753 C757 1.393 . S
C754 H746 0.950 . S
C754 C752 1.391 . S
C754 C755 1.400 . S
C755 C754 1.400 . S
C755 C756 1.398 . S
C755 C761 1.491 . S
C756 H747 0.950 . S
C756 C755 1.398 . S
C756 C757 1.391 . S
C757 H745 0.950 . S
C757 C753 1.393 . S
C757 C756 1.391 . S
C758 H748 0.950 . S
C758 C759 1.386 . S
C758 C760 1.391 . S
C759 C758 1.386 . S
C759 C763 1.393 . S
C760 H749 0.950 . S
C760 C758 1.391 . S
C760 C761 1.400 . S
C761 C755 1.491 . S
C761 C760 1.400 . S
C761 C762 1.398 . S
C762 H750 0.950 . S
C762 C761 1.398 . S
C762 C763 1.391 . S
C763 H751 0.950 . S
C763 C759 1.393 . S
C763 C762 1.391 . S
H764 C772 0.950 . S
H765 C777 0.950 . S
H766 C774 0.950 . S
H767 C776 0.950 . S
H768 C778 0.950 . S
H769 C780 0.950 . S
H770 C782 0.950 . S
H771 C783 0.950 . S
C772 H764 0.950 . S
C772 C773 1.386 . S
C772 C774 1.391 . S
C773 C772 1.386 . S
C773 C777 1.393 . S
C774 H766 0.950 . S
C774 C772 1.391 . S
C774 C775 1.400 . S
C775 C774 1.400 . S
C775 C776 1.398 . S
C775 C781 1.491 . S
C776 H767 0.950 . S
C776 C775 1.398 . S
C776 C777 1.391 . S
C777 H765 0.950 . S
C777 C773 1.393 . S
C777 C776 1.391 . S
C778 H768 0.950 . S
C778 C779 1.386 . S
C778 C780 1.391 . S
C779 C778 1.386 . S
C779 C783 1.393 . S
C780 H769 0.950 . S
C780 C778 1.391 . S
C780 C781 1.400 . S
C781 C775 1.491 . S
C781 C780 1.400 . S
C781 C782 1.398 . S
C782 H770 0.950 . S
C782 C781 1.398 . S
C782 C783 1.391 . S
C783 H771 0.950 . S
C783 C779 1.393 . S
C783 C782 1.391 . S
H784 C792 0.950 . S
H785 C797 0.950 . S
H786 C794 0.950 . S
H787 C796 0.950 . S
H788 C798 0.950 . S
H789 C800 0.950 . S
H790 C802 0.950 . S
H791 C803 0.950 . S
C792 H784 0.950 . S
C792 C793 1.386 . S
C792 C794 1.391 . S
C793 C792 1.386 . S
C793 C797 1.393 . S
C794 H786 0.950 . S
C794 C792 1.391 . S
C794 C795 1.400 . S
C795 C794 1.400 . S
C795 C796 1.398 . S
C795 C801 1.491 . S
C796 H787 0.950 . S
C796 C795 1.398 . S
C796 C797 1.391 . S
C797 H785 0.950 . S
C797 C793 1.393 . S
C797 C796 1.391 . S
C798 H788 0.950 . S
C798 C799 1.386 . S
C798 C800 1.391 . S
C799 C798 1.386 . S
C799 C803 1.393 . S
C800 H789 0.950 . S
C800 C798 1.391 . S
C800 C801 1.400 . S
C801 C795 1.491 . S
C801 C800 1.400 . S
C801 C802 1.398 . S
C802 H790 0.950 . S
C802 C801 1.398 . S
C802 C803 1.391 . S
C803 H791 0.950 . S
C803 C799 1.393 . S
C803 C802 1.391 . S
H804 C812 0.950 . S
H805 C817 0.950 . S
H806 C814 0.950 . S
H807 C816 0.950 . S
H808 C818 0.963 . S
H809 C820 0.950 . S
H810 C822 0.950 . S
H811 C823 0.950 . S
C812 H804 0.950 . S
C812 C813 1.386 . S
C812 C814 1.391 . S
C813 C812 1.386 . S
C813 C817 1.393 . S
C814 H806 0.950 . S
C814 C812 1.391 . S
C814 C815 1.400 . S
C815 C814 1.400 . S
C815 C816 1.398 . S
C815 C821 1.491 . S
C816 H807 0.950 . S
C816 C815 1.398 . S
C816 C817 1.391 . S
C817 H805 0.950 . S
C817 C813 1.393 . S
C817 C816 1.391 . S
C818 H808 0.963 . S
C818 C819 1.386 1_556 S
C818 C820 1.391 . S
C819 C818 1.386 1_554 S
C819 C823 1.393 1_554 S
C820 H809 0.950 . S
C820 C818 1.391 . S
C820 C821 1.400 . S
C821 C815 1.491 . S
C821 C820 1.400 . S
C821 C822 1.398 . S
C822 H810 0.950 . S
C822 C821 1.398 . S
C822 C823 1.391 . S
C823 H811 0.950 . S
C823 C819 1.393 1_556 S
C823 C822 1.391 . S
H824 C832 0.950 . S
H825 C837 0.950 . S
H826 C834 0.950 . S
H827 C836 0.950 . S
H828 C838 0.950 . S
H829 C840 0.950 . S
H830 C842 0.950 . S
H831 C843 0.950 1_554 S
C832 H824 0.950 . S
C832 C833 1.386 . S
C832 C834 1.391 . S
C833 C832 1.386 . S
C833 C837 1.393 . S
C834 H826 0.950 . S
C834 C832 1.391 . S
C834 C835 1.400 . S
C835 C834 1.400 . S
C835 C836 1.398 . S
C835 C841 1.491 . S
C836 H827 0.950 . S
C836 C835 1.398 . S
C836 C837 1.391 . S
C837 H825 0.950 . S
C837 C833 1.393 . S
C837 C836 1.391 . S
C838 H828 0.950 . S
C838 C839 1.386 1_556 S
C838 C840 1.391 . S
C839 C838 1.386 1_554 S
C839 C843 1.393 1_554 S
C840 H829 0.950 . S
C840 C838 1.391 . S
C840 C841 1.400 . S
C841 C835 1.491 . S
C841 C840 1.400 . S
C841 C842 1.398 . S
C842 H830 0.950 . S
C842 C841 1.398 . S
C842 C843 1.391 . S
C843 H831 0.950 1_556 S
C843 C839 1.393 1_556 S
C843 C842 1.391 . S
H844 C852 0.950 . S
H845 C857 0.950 . S
H846 C854 0.950 . S
H847 C856 0.950 . S
H848 C858 0.950 1_554 S
H849 C860 0.950 . S
H850 C862 0.950 . S
H851 C863 0.950 . S
C852 H844 0.950 . S
C852 C853 1.386 . S
C852 C854 1.391 . S
C853 C852 1.386 . S
C853 C857 1.393 . S
C854 H846 0.950 . S
C854 C852 1.391 . S
C854 C855 1.400 . S
C855 C854 1.400 . S
C855 C856 1.398 . S
C855 C861 1.491 . S
C856 H847 0.950 . S
C856 C855 1.398 . S
C856 C857 1.391 . S
C857 H845 0.950 . S
C857 C853 1.393 . S
C857 C856 1.391 . S
C858 H848 0.950 1_556 S
C858 C859 1.386 1_556 S
C858 C860 1.391 . S
C859 C858 1.386 1_554 S
C859 C863 1.393 1_554 S
C860 H849 0.950 . S
C860 C858 1.391 . S
C860 C861 1.400 . S
C861 C855 1.491 . S
C861 C860 1.400 . S
C861 C862 1.398 . S
C862 H850 0.950 . S
C862 C861 1.398 . S
C862 C863 1.391 . S
C863 H851 0.950 . S
C863 C859 1.393 1_556 S
C863 C862 1.391 . S
H864 C872 0.950 . S
H865 C877 0.950 . S
H866 C874 0.950 . S
H867 C876 0.950 . S
H868 C878 0.950 . S
H869 C880 0.950 . S
H870 C882 0.950 . S
H871 C883 0.950 . S
C872 H864 0.950 . S
C872 C873 1.386 . S
C872 C874 1.391 . S
C873 C872 1.386 . S
C873 C877 1.393 . S
C874 H866 0.950 . S
C874 C872 1.391 . S
C874 C875 1.400 . S
C875 C874 1.400 . S
C875 C876 1.398 . S
C875 C881 1.491 . S
C876 H867 0.950 . S
C876 C875 1.398 . S
C876 C877 1.391 . S
C877 H865 0.950 . S
C877 C873 1.393 . S
C877 C876 1.391 . S
C878 H868 0.950 . S
C878 C879 1.386 . S
C878 C880 1.391 . S
C879 C878 1.386 . S
C879 C883 1.393 . S
C880 H869 0.950 . S
C880 C878 1.391 . S
C880 C881 1.400 . S
C881 C875 1.491 . S
C881 C880 1.400 . S
C881 C882 1.398 . S
C882 H870 0.950 . S
C882 C881 1.398 . S
C882 C883 1.391 . S
C883 H871 0.950 . S
C883 C879 1.393 . S
C883 C882 1.391 . S
H884 C892 0.950 . S
H885 C897 0.950 . S
H886 C894 0.950 . S
H887 C896 0.950 . S
H888 C898 0.950 . S
H889 C900 0.950 . S
H890 C902 0.950 . S
H891 C903 0.950 . S
C892 H884 0.950 . S
C892 C893 1.386 . S
C892 C894 1.391 . S
C893 C892 1.386 . S
C893 C897 1.393 . S
C894 H886 0.950 . S
C894 C892 1.391 . S
C894 C895 1.400 . S
C895 C894 1.400 . S
C895 C896 1.398 . S
C895 C901 1.491 . S
C896 H887 0.950 . S
C896 C895 1.398 . S
C896 C897 1.391 . S
C897 H885 0.950 . S
C897 C893 1.393 . S
C897 C896 1.391 . S
C898 H888 0.950 . S
C898 C899 1.386 . S
C898 C900 1.391 . S
C899 C898 1.386 . S
C899 C903 1.393 . S
C900 H889 0.950 . S
C900 C898 1.391 . S
C900 C901 1.400 . S
C901 C895 1.491 . S
C901 C900 1.400 . S
C901 C902 1.398 . S
C902 H890 0.950 . S
C902 C901 1.398 . S
C902 C903 1.391 . S
C903 H891 0.950 . S
C903 C899 1.393 . S
C903 C902 1.391 . S
H904 C912 0.950 . S
H905 C917 0.950 . S
H906 C914 0.950 . S
H907 C916 0.950 . S
H908 C918 0.950 . S
H909 C920 0.950 . S
H910 C922 0.950 . S
H911 C923 0.950 . S
C912 H904 0.950 . S
C912 C913 1.386 . S
C912 C914 1.391 . S
C913 C912 1.386 . S
C913 C917 1.393 . S
C914 H906 0.950 . S
C914 C912 1.391 . S
C914 C915 1.400 . S
C915 C914 1.400 . S
C915 C916 1.398 . S
C915 C921 1.491 . S
C916 H907 0.950 . S
C916 C915 1.398 . S
C916 C917 1.391 . S
C917 H905 0.950 . S
C917 C913 1.393 . S
C917 C916 1.391 . S
C918 H908 0.950 . S
C918 C919 1.386 . S
C918 C920 1.391 . S
C919 C918 1.386 . S
C919 C923 1.393 . S
C920 H909 0.950 . S
C920 C918 1.391 . S
C920 C921 1.400 . S
C921 C915 1.491 . S
C921 C920 1.400 . S
C921 C922 1.398 . S
C922 H910 0.950 . S
C922 C921 1.398 . S
C922 C923 1.391 . S
C923 H911 0.950 . S
C923 C919 1.393 . S
C923 C922 1.391 . S
H924 C932 0.950 . S
H925 C937 0.950 . S
H926 C934 0.950 . S
H927 C936 0.950 . S
H928 C938 0.950 . S
H929 C940 0.950 . S
H930 C942 0.950 . S
H931 C943 0.950 . S
C932 H924 0.950 . S
C932 C933 1.386 . S
C932 C934 1.391 . S
C933 C932 1.386 . S
C933 C937 1.393 . S
C934 H926 0.950 . S
C934 C932 1.391 . S
C934 C935 1.400 . S
C935 C934 1.400 . S
C935 C936 1.398 . S
C935 C941 1.491 . S
C936 H927 0.950 . S
C936 C935 1.398 . S
C936 C937 1.391 . S
C937 H925 0.950 . S
C937 C933 1.393 . S
C937 C936 1.391 . S
C938 H928 0.950 . S
C938 C939 1.386 . S
C938 C940 1.391 . S
C939 C938 1.386 . S
C939 C943 1.393 . S
C940 H929 0.950 . S
C940 C938 1.391 . S
C940 C941 1.400 . S
C941 C935 1.491 . S
C941 C940 1.400 . S
C941 C942 1.398 . S
C942 H930 0.950 . S
C942 C941 1.398 . S
C942 C943 1.391 . S
C943 H931 0.950 . S
C943 C939 1.393 . S
C943 C942 1.391 . S
H944 C952 0.950 . S
H945 C957 0.950 . S
H946 C954 0.950 . S
H947 C956 0.950 . S
H948 C958 0.950 . S
H949 C960 0.950 . S
H950 C962 0.950 . S
H951 C963 0.950 . S
C952 H944 0.950 . S
C952 C953 1.386 . S
C952 C954 1.391 . S
C953 C952 1.386 . S
C953 C957 1.393 . S
C954 H946 0.950 . S
C954 C952 1.391 . S
C954 C955 1.400 . S
C955 C954 1.400 . S
C955 C956 1.398 . S
C955 C961 1.491 . S
C956 H947 0.950 . S
C956 C955 1.398 . S
C956 C957 1.391 . S
C957 H945 0.950 . S
C957 C953 1.393 . S
C957 C956 1.391 . S
C958 H948 0.950 . S
C958 C959 1.386 . S
C958 C960 1.391 . S
C959 C958 1.386 . S
C959 C963 1.393 . S
C960 H949 0.950 . S
C960 C958 1.391 . S
C960 C961 1.400 . S
C961 C955 1.491 . S
C961 C960 1.400 . S
C961 C962 1.398 . S
C962 H950 0.950 . S
C962 C961 1.398 . S
C962 C963 1.391 . S
C963 H951 0.950 . S
C963 C959 1.393 . S
C963 C962 1.391 . S
H964 C972 0.950 . S
H965 C977 0.950 . S
H966 C974 0.950 . S
H967 C976 0.950 . S
H968 C978 0.950 . S
H969 C980 0.950 . S
H970 C982 0.950 . S
H971 C983 0.950 . S
C972 H964 0.950 . S
C972 C973 1.386 . S
C972 C974 1.391 . S
C973 C972 1.386 . S
C973 C977 1.393 . S
C974 H966 0.950 . S
C974 C972 1.391 . S
C974 C975 1.400 . S
C975 C974 1.400 . S
C975 C976 1.398 . S
C975 C981 1.491 . S
C976 H967 0.950 . S
C976 C975 1.398 . S
C976 C977 1.391 . S
C977 H965 0.950 . S
C977 C973 1.393 . S
C977 C976 1.391 . S
C978 H968 0.950 . S
C978 C979 1.386 . S
C978 C980 1.391 . S
C979 C978 1.386 . S
C979 C983 1.393 . S
C980 H969 0.950 . S
C980 C978 1.391 . S
C980 C981 1.400 . S
C981 C975 1.491 . S
C981 C980 1.400 . S
C981 C982 1.398 . S
C982 H970 0.950 . S
C982 C981 1.398 . S
C982 C983 1.391 . S
C983 H971 0.950 . S
C983 C979 1.393 . S
C983 C982 1.391 . S
H984 C992 0.950 . S
H985 C997 0.950 . S
H986 C994 0.950 . S
H987 C996 0.950 . S
H988 C998 0.950 . S
H989 C1000 0.950 . S
H990 C1002 0.950 . S
H991 C1003 0.950 . S
C992 H984 0.950 . S
C992 C993 1.386 . S
C992 C994 1.391 . S
C993 C992 1.386 . S
C993 C997 1.393 . S
C994 H986 0.950 . S
C994 C992 1.391 . S
C994 C995 1.400 . S
C995 C994 1.400 . S
C995 C996 1.398 . S
C995 C1001 1.491 . S
C996 H987 0.950 . S
C996 C995 1.398 . S
C996 C997 1.391 . S
C997 H985 0.950 . S
C997 C993 1.393 . S
C997 C996 1.391 . S
C998 H988 0.950 . S
C998 C999 1.386 . S
C998 C1000 1.391 . S
C999 C998 1.386 . S
C999 C1003 1.393 . S
C1000 H989 0.950 . S
C1000 C998 1.391 . S
C1000 C1001 1.400 . S
C1001 C995 1.491 . S
C1001 C1000 1.400 . S
C1001 C1002 1.398 . S
C1002 H990 0.950 . S
C1002 C1001 1.398 . S
C1002 C1003 1.391 . S
C1003 H991 0.950 . S
C1003 C999 1.393 . S
C1003 C1002 1.391 . S
H1004 C1012 0.950 . S
H1005 C1017 0.950 . S
H1006 C1014 0.950 . S
H1007 C1016 0.950 . S
H1008 C1018 0.950 . S
H1009 C1020 0.950 . S
H1010 C1022 0.950 . S
H1011 C1023 0.950 . S
C1012 H1004 0.950 . S
C1012 C1013 1.386 . S
C1012 C1014 1.391 . S
C1013 C1012 1.386 . S
C1013 C1017 1.393 . S
C1014 H1006 0.950 . S
C1014 C1012 1.391 . S
C1014 C1015 1.400 . S
C1015 C1014 1.400 . S
C1015 C1016 1.398 . S
C1015 C1021 1.491 . S
C1016 H1007 0.950 . S
C1016 C1015 1.398 . S
C1016 C1017 1.391 . S
C1017 H1005 0.950 . S
C1017 C1013 1.393 . S
C1017 C1016 1.391 . S
C1018 H1008 0.950 . S
C1018 C1019 1.386 . S
C1018 C1020 1.391 . S
C1019 C1018 1.386 . S
C1019 C1023 1.393 . S
C1020 H1009 0.950 . S
C1020 C1018 1.391 . S
C1020 C1021 1.400 . S
C1021 C1015 1.491 . S
C1021 C1020 1.400 . S
C1021 C1022 1.398 . S
C1022 H1010 0.950 . S
C1022 C1021 1.398 . S
C1022 C1023 1.391 . S
C1023 H1011 0.950 . S
C1023 C1019 1.393 . S
C1023 C1022 1.391 . S
H1024 C1032 0.950 . S
H1025 C1037 0.950 . S
H1026 C1034 0.950 . S
H1027 C1036 0.950 . S
H1028 C1038 0.950 . S
H1029 C1040 0.950 . S
H1030 C1042 0.950 . S
H1031 C1043 0.950 . S
C1032 H1024 0.950 . S
C1032 C1033 1.386 . S
C1032 C1034 1.391 . S
C1033 C1032 1.386 . S
C1033 C1037 1.393 . S
C1034 H1026 0.950 . S
C1034 C1032 1.391 . S
C1034 C1035 1.400 . S
C1035 C1034 1.400 . S
C1035 C1036 1.398 . S
C1035 C1041 1.491 . S
C1036 H1027 0.950 . S
C1036 C1035 1.398 . S
C1036 C1037 1.391 . S
C1037 H1025 0.950 . S
C1037 C1033 1.393 . S
C1037 C1036 1.391 . S
C1038 H1028 0.950 . S
C1038 C1039 1.386 . S
C1038 C1040 1.391 . S
C1039 C1038 1.386 . S
C1039 C1043 1.393 . S
C1040 H1029 0.950 . S
C1040 C1038 1.391 . S
C1040 C1041 1.400 . S
C1041 C1035 1.491 . S
C1041 C1040 1.400 . S
C1041 C1042 1.398 . S
C1042 H1030 0.950 . S
C1042 C1041 1.398 . S
C1042 C1043 1.391 . S
C1043 H1031 0.950 . S
C1043 C1039 1.393 . S
C1043 C1042 1.391 . S
H1044 C1052 0.950 . S
H1045 C1057 0.950 . S
H1046 C1054 0.950 . S
H1047 C1056 0.950 . S
H1048 C1058 0.950 . S
H1049 C1060 0.950 . S
H1050 C1062 0.950 . S
H1051 C1063 0.950 . S
C1052 H1044 0.950 . S
C1052 C1053 1.386 . S
C1052 C1054 1.391 . S
C1053 C1052 1.386 . S
C1053 C1057 1.393 . S
C1054 H1046 0.950 . S
C1054 C1052 1.391 . S
C1054 C1055 1.400 . S
C1055 C1054 1.400 . S
C1055 C1056 1.398 . S
C1055 C1061 1.491 . S
C1056 H1047 0.950 . S
C1056 C1055 1.398 . S
C1056 C1057 1.391 . S
C1057 H1045 0.950 . S
C1057 C1053 1.393 . S
C1057 C1056 1.391 . S
C1058 H1048 0.950 . S
C1058 C1059 1.386 . S
C1058 C1060 1.391 . S
C1059 C1058 1.386 . S
C1059 C1063 1.393 . S
C1060 H1049 0.950 . S
C1060 C1058 1.391 . S
C1060 C1061 1.400 . S
C1061 C1055 1.491 . S
C1061 C1060 1.400 . S
C1061 C1062 1.398 . S
C1062 H1050 0.950 . S
C1062 C1061 1.398 . S
C1062 C1063 1.391 . S
C1063 H1051 0.950 . S
C1063 C1059 1.393 . S
C1063 C1062 1.391 . S
H1064 C1072 0.950 . S
H1065 C1077 0.950 . S
H1066 C1074 0.950 . S
H1067 C1076 0.950 . S
H1068 C1078 0.950 . S
H1069 C1080 0.950 . S
H1070 C1082 0.950 . S
H1071 C1083 0.950 . S
C1072 H1064 0.950 . S
C1072 C1073 1.386 . S
C1072 C1074 1.391 . S
C1073 C1072 1.386 . S
C1073 C1077 1.393 . S
C1074 H1066 0.950 . S
C1074 C1072 1.391 . S
C1074 C1075 1.400 . S
C1075 C1074 1.400 . S
C1075 C1076 1.398 . S
C1075 C1081 1.491 . S
C1076 H1067 0.950 . S
C1076 C1075 1.398 . S
C1076 C1077 1.391 . S
C1077 H1065 0.950 . S
C1077 C1073 1.393 . S
C1077 C1076 1.391 . S
C1078 H1068 0.950 . S
C1078 C1079 1.386 . S
C1078 C1080 1.391 . S
C1079 C1078 1.386 . S
C1079 C1083 1.393 . S
C1080 H1069 0.950 . S
C1080 C1078 1.391 . S
C1080 C1081 1.400 . S
C1081 C1075 1.491 . S
C1081 C1080 1.400 . S
C1081 C1082 1.398 . S
C1082 H1070 0.950 . S
C1082 C1081 1.398 . S
C1082 C1083 1.391 . S
C1083 H1071 0.950 . S
C1083 C1079 1.393 . S
C1083 C1082 1.391 . S
H1084 C1092 0.950 . S
H1085 C1097 0.950 . S
H1086 C1094 0.950 . S
H1087 C1096 0.950 . S
H1088 C1098 0.950 . S
H1089 C1100 0.950 . S
H1090 C1102 0.950 . S
H1091 C1103 0.950 . S
C1092 H1084 0.950 . S
C1092 C1093 1.386 . S
C1092 C1094 1.391 . S
C1093 C1092 1.386 . S
C1093 C1097 1.393 . S
C1094 H1086 0.950 . S
C1094 C1092 1.391 . S
C1094 C1095 1.400 . S
C1095 C1094 1.400 . S
C1095 C1096 1.398 . S
C1095 C1101 1.491 . S
C1096 H1087 0.950 . S
C1096 C1095 1.398 . S
C1096 C1097 1.391 . S
C1097 H1085 0.950 . S
C1097 C1093 1.393 . S
C1097 C1096 1.391 . S
C1098 H1088 0.950 . S
C1098 C1099 1.386 . S
C1098 C1100 1.391 . S
C1099 C1098 1.386 . S
C1099 C1103 1.393 . S
C1100 H1089 0.950 . S
C1100 C1098 1.391 . S
C1100 C1101 1.400 . S
C1101 C1095 1.491 . S
C1101 C1100 1.400 . S
C1101 C1102 1.398 . S
C1102 H1090 0.950 . S
C1102 C1101 1.398 . S
C1102 C1103 1.391 . S
C1103 H1091 0.950 . S
C1103 C1099 1.393 . S
C1103 C1102 1.391 . S
H1104 C1112 0.950 . S
H1105 C1117 0.950 . S
H1106 C1114 0.950 . S
H1107 C1116 0.950 . S
H1108 C1118 0.950 . S
H1109 C1120 0.950 . S
H1110 C1122 0.950 . S
H1111 C1123 0.950 . S
C1112 H1104 0.950 . S
C1112 C1113 1.386 . S
C1112 C1114 1.391 . S
C1113 C1112 1.386 . S
C1113 C1117 1.393 . S
C1114 H1106 0.950 . S
C1114 C1112 1.391 . S
C1114 C1115 1.400 . S
C1115 C1114 1.400 . S
C1115 C1116 1.398 . S
C1115 C1121 1.491 . S
C1116 H1107 0.950 . S
C1116 C1115 1.398 . S
C1116 C1117 1.391 . S
C1117 H1105 0.950 . S
C1117 C1113 1.393 . S
C1117 C1116 1.391 . S
C1118 H1108 0.950 . S
C1118 C1119 1.386 . S
C1118 C1120 1.391 . S
C1119 C1118 1.386 . S
C1119 C1123 1.393 . S
C1120 H1109 0.950 . S
C1120 C1118 1.391 . S
C1120 C1121 1.400 . S
C1121 C1115 1.491 . S
C1121 C1120 1.400 . S
C1121 C1122 1.398 . S
C1122 H1110 0.950 . S
C1122 C1121 1.398 . S
C1122 C1123 1.391 . S
C1123 H1111 0.950 . S
C1123 C1119 1.393 . S
C1123 C1122 1.391 . S
H1124 C1132 0.950 . S
H1125 C1137 0.950 . S
H1126 C1134 0.950 . S
H1127 C1136 0.950 . S
H1128 C1138 0.950 . S
H1129 C1140 0.950 . S
H1130 C1142 0.950 . S
H1131 C1143 0.950 . S
C1132 H1124 0.950 . S
C1132 C1133 1.386 . S
C1132 C1134 1.391 . S
C1133 C1132 1.386 . S
C1133 C1137 1.393 . S
C1134 H1126 0.950 . S
C1134 C1132 1.391 . S
C1134 C1135 1.400 . S
C1135 C1134 1.400 . S
C1135 C1136 1.398 . S
C1135 C1141 1.491 . S
C1136 H1127 0.950 . S
C1136 C1135 1.398 . S
C1136 C1137 1.391 . S
C1137 H1125 0.950 . S
C1137 C1133 1.393 . S
C1137 C1136 1.391 . S
C1138 H1128 0.950 . S
C1138 C1139 1.386 . S
C1138 C1140 1.391 . S
C1139 C1138 1.386 . S
C1139 C1143 1.393 . S
C1140 H1129 0.950 . S
C1140 C1138 1.391 . S
C1140 C1141 1.400 . S
C1141 C1135 1.491 . S
C1141 C1140 1.400 . S
C1141 C1142 1.398 . S
C1142 H1130 0.950 . S
C1142 C1141 1.398 . S
C1142 C1143 1.391 . S
C1143 H1131 0.950 . S
C1143 C1139 1.393 . S
C1143 C1142 1.391 . S
H1144 C1152 0.950 . S
H1145 C1157 0.950 . S
H1146 C1154 0.950 . S
H1147 C1156 0.950 . S
H1148 C1158 0.950 . S
H1149 C1160 0.950 . S
H1150 C1162 0.950 . S
H1151 C1163 0.950 . S
C1152 H1144 0.950 . S
C1152 C1153 1.386 . S
C1152 C1154 1.391 . S
C1153 C1152 1.386 . S
C1153 C1157 1.393 . S
C1154 H1146 0.950 . S
C1154 C1152 1.391 . S
C1154 C1155 1.400 . S
C1155 C1154 1.400 . S
C1155 C1156 1.398 . S
C1155 C1161 1.491 . S
C1156 H1147 0.950 . S
C1156 C1155 1.398 . S
C1156 C1157 1.391 . S
C1157 H1145 0.950 . S
C1157 C1153 1.393 . S
C1157 C1156 1.391 . S
C1158 H1148 0.950 . S
C1158 C1159 1.386 . S
C1158 C1160 1.391 . S
C1159 C1158 1.386 . S
C1159 C1163 1.393 . S
C1160 H1149 0.950 . S
C1160 C1158 1.391 . S
C1160 C1161 1.400 . S
C1161 C1155 1.491 . S
C1161 C1160 1.400 . S
C1161 C1162 1.398 . S
C1162 H1150 0.950 . S
C1162 C1161 1.398 . S
C1162 C1163 1.391 . S
C1163 H1151 0.950 . S
C1163 C1159 1.393 . S
C1163 C1162 1.391 . S
H1164 C1172 0.950 . S
H1165 C1177 0.950 . S
H1166 C1174 0.950 . S
H1167 C1176 0.950 . S
H1168 C1178 0.950 . S
H1169 C1180 0.950 . S
H1170 C1182 0.950 . S
H1171 C1183 0.950 1_556 S
C1172 H1164 0.950 . S
C1172 C1173 1.386 . S
C1172 C1174 1.391 . S
C1173 C1172 1.386 . S
C1173 C1177 1.393 . S
C1174 H1166 0.950 . S
C1174 C1172 1.391 . S
C1174 C1175 1.400 . S
C1175 C1174 1.400 . S
C1175 C1176 1.398 . S
C1175 C1181 1.491 . S
C1176 H1167 0.950 . S
C1176 C1175 1.398 . S
C1176 C1177 1.391 . S
C1177 H1165 0.950 . S
C1177 C1173 1.393 . S
C1177 C1176 1.391 . S
C1178 H1168 0.950 . S
C1178 C1179 1.386 1_554 S
C1178 C1180 1.391 . S
C1179 C1178 1.386 1_556 S
C1179 C1183 1.393 1_556 S
C1180 H1169 0.950 . S
C1180 C1178 1.391 . S
C1180 C1181 1.400 . S
C1181 C1175 1.491 . S
C1181 C1180 1.400 . S
C1181 C1182 1.398 . S
C1182 H1170 0.950 . S
C1182 C1181 1.398 . S
C1182 C1183 1.391 . S
C1183 H1171 0.950 1_554 S
C1183 C1179 1.393 1_554 S
C1183 C1182 1.391 . S
H1184 C1192 0.950 . S
H1185 C1197 0.950 . S
H1186 C1194 0.950 . S
H1187 C1196 0.950 . S
H1188 C1198 0.950 . S
H1189 C1200 0.950 . S
H1190 C1202 0.950 . S
H1191 C1203 0.950 . S
C1192 H1184 0.950 . S
C1192 C1193 1.386 1_554 S
C1192 C1194 1.391 . S
C1193 C1192 1.386 1_556 S
C1193 C1197 1.393 1_556 S
C1194 H1186 0.950 . S
C1194 C1192 1.391 . S
C1194 C1195 1.400 . S
C1195 C1194 1.400 . S
C1195 C1196 1.398 . S
C1195 C1201 1.491 . S
C1196 H1187 0.950 . S
C1196 C1195 1.398 . S
C1196 C1197 1.391 . S
C1197 H1185 0.950 . S
C1197 C1193 1.393 1_554 S
C1197 C1196 1.391 . S
C1198 H1188 0.950 . S
C1198 C1199 1.386 . S
C1198 C1200 1.391 . S
C1199 C1198 1.386 . S
C1199 C1203 1.393 . S
C1200 H1189 0.950 . S
C1200 C1198 1.391 . S
C1200 C1201 1.400 . S
C1201 C1195 1.491 . S
C1201 C1200 1.400 . S
C1201 C1202 1.398 . S
C1202 H1190 0.950 . S
C1202 C1201 1.398 . S
C1202 C1203 1.391 . S
C1203 H1191 0.950 . S
C1203 C1199 1.393 . S
C1203 C1202 1.391 . S
H1204 C1212 0.950 . S
H1205 C1217 0.950 . S
H1206 C1214 0.950 . S
H1207 C1216 0.950 . S
H1208 C1218 0.950 . S
H1209 C1220 0.950 . S
H1210 C1222 0.950 . S
H1211 C1223 0.950 . S
C1212 H1204 0.950 . S
C1212 C1213 1.386 . S
C1212 C1214 1.391 . S
C1213 C1212 1.386 . S
C1213 C1217 1.393 . S
C1214 H1206 0.950 . S
C1214 C1212 1.391 . S
C1214 C1215 1.400 . S
C1215 C1214 1.400 . S
C1215 C1216 1.398 . S
C1215 C1221 1.491 . S
C1216 H1207 0.950 . S
C1216 C1215 1.398 . S
C1216 C1217 1.391 . S
C1217 H1205 0.950 . S
C1217 C1213 1.393 . S
C1217 C1216 1.391 . S
C1218 H1208 0.950 . S
C1218 C1219 1.386 1_554 S
C1218 C1220 1.391 . S
C1219 C1218 1.386 1_556 S
C1219 C1223 1.393 1_556 S
C1220 H1209 0.950 . S
C1220 C1218 1.391 . S
C1220 C1221 1.400 . S
C1221 C1215 1.491 . S
C1221 C1220 1.400 . S
C1221 C1222 1.398 . S
C1222 H1210 0.950 . S
C1222 C1221 1.398 . S
C1222 C1223 1.391 . S
C1223 H1211 0.950 . S
C1223 C1219 1.393 1_554 S
C1223 C1222 1.391 . S
H1224 C1232 0.950 . S
H1225 C1237 0.950 . S
H1226 C1234 0.950 . S
H1227 C1236 0.950 . S
H1228 C1238 0.950 . S
H1229 C1240 0.950 . S
H1230 C1242 0.950 . S
H1231 C1243 0.950 . S
C1232 H1224 0.950 . S
C1232 C1233 1.386 . S
C1232 C1234 1.391 . S
C1233 C1232 1.386 . S
C1233 C1237 1.393 . S
C1234 H1226 0.950 . S
C1234 C1232 1.391 . S
C1234 C1235 1.400 . S
C1235 C1234 1.400 . S
C1235 C1236 1.398 . S
C1235 C1241 1.491 . S
C1236 H1227 0.950 . S
C1236 C1235 1.398 . S
C1236 C1237 1.391 . S
C1237 H1225 0.950 . S
C1237 C1233 1.393 . S
C1237 C1236 1.391 . S
C1238 H1228 0.950 . S
C1238 C1239 1.386 . S
C1238 C1240 1.391 . S
C1239 C1238 1.386 . S
C1239 C1243 1.393 . S
C1240 H1229 0.950 . S
C1240 C1238 1.391 . S
C1240 C1241 1.400 . S
C1241 C1235 1.491 . S
C1241 C1240 1.400 . S
C1241 C1242 1.398 . S
C1242 H1230 0.950 . S
C1242 C1241 1.398 . S
C1242 C1243 1.391 . S
C1243 H1231 0.950 . S
C1243 C1239 1.393 . S
C1243 C1242 1.391 . S
H1244 C1252 0.950 . S
H1245 C1257 0.950 . S
H1246 C1254 0.950 . S
H1247 C1256 0.950 . S
H1248 C1258 0.950 . S
H1249 C1260 0.950 . S
H1250 C1262 0.950 . S
H1251 C1263 0.950 . S
C1252 H1244 0.950 . S
C1252 C1253 1.386 . S
C1252 C1254 1.391 . S
C1253 C1252 1.386 . S
C1253 C1257 1.393 . S
C1254 H1246 0.950 . S
C1254 C1252 1.391 . S
C1254 C1255 1.400 . S
C1255 C1254 1.400 . S
C1255 C1256 1.398 . S
C1255 C1261 1.491 1_565 S
C1256 H1247 0.950 . S
C1256 C1255 1.398 . S
C1256 C1257 1.391 . S
C1257 H1245 0.950 . S
C1257 C1253 1.393 . S
C1257 C1256 1.391 . S
C1258 H1248 0.950 . S
C1258 C1259 1.386 . S
C1258 C1260 1.391 . S
C1259 C1258 1.386 . S
C1259 C1263 1.393 . S
C1260 H1249 0.950 . S
C1260 C1258 1.391 . S
C1260 C1261 1.400 . S
C1261 C1255 1.491 1_545 S
C1261 C1260 1.400 . S
C1261 C1262 1.398 . S
C1262 H1250 0.950 . S
C1262 C1261 1.398 . S
C1262 C1263 1.391 . S
C1263 H1251 0.950 . S
C1263 C1259 1.393 . S
C1263 C1262 1.391 . S
H1264 C1272 0.950 . S
H1265 C1277 0.950 . S
H1266 C1274 0.950 . S
H1267 C1276 0.950 . S
H1268 C1278 0.950 . S
H1269 C1280 0.950 . S
H1270 C1282 0.950 . S
H1271 C1283 0.950 . S
C1272 H1264 0.950 . S
C1272 C1273 1.386 . S
C1272 C1274 1.391 . S
C1273 C1272 1.386 . S
C1273 C1277 1.393 . S
C1274 H1266 0.950 . S
C1274 C1272 1.391 . S
C1274 C1275 1.400 . S
C1275 C1274 1.400 . S
C1275 C1276 1.398 . S
C1275 C1281 1.491 1_655 S
C1276 H1267 0.950 . S
C1276 C1275 1.398 . S
C1276 C1277 1.391 . S
C1277 H1265 0.950 . S
C1277 C1273 1.393 . S
C1277 C1276 1.391 . S
C1278 H1268 0.950 . S
C1278 C1279 1.386 . S
C1278 C1280 1.391 . S
C1279 C1278 1.386 . S
C1279 C1283 1.393 . S
C1280 H1269 0.950 . S
C1280 C1278 1.391 . S
C1280 C1281 1.400 . S
C1281 C1275 1.491 1_455 S
C1281 C1280 1.400 . S
C1281 C1282 1.398 . S
C1282 H1270 0.950 . S
C1282 C1281 1.398 . S
C1282 C1283 1.391 . S
C1283 H1271 0.950 . S
C1283 C1279 1.393 . S
C1283 C1282 1.391 . S
H1284 C1292 0.950 . S
H1285 C1297 0.950 . S
H1286 C1294 0.950 . S
H1287 C1296 0.950 . S
H1288 C1298 0.950 . S
H1289 C1300 0.950 . S
H1290 C1302 0.950 . S
H1291 C1303 0.950 . S
C1292 H1284 0.950 . S
C1292 C1293 1.386 . S
C1292 C1294 1.391 . S
C1293 C1292 1.386 . S
C1293 C1297 1.393 . S
C1294 H1286 0.950 . S
C1294 C1292 1.391 . S
C1294 C1295 1.400 . S
C1295 C1294 1.400 . S
C1295 C1296 1.398 . S
C1295 C1301 1.491 . S
C1296 H1287 0.950 . S
C1296 C1295 1.398 . S
C1296 C1297 1.391 . S
C1297 H1285 0.950 . S
C1297 C1293 1.393 . S
C1297 C1296 1.391 . S
C1298 H1288 0.950 . S
C1298 C1299 1.386 . S
C1298 C1300 1.391 . S
C1299 C1298 1.386 . S
C1299 C1303 1.393 . S
C1300 H1289 0.950 . S
C1300 C1298 1.391 . S
C1300 C1301 1.400 . S
C1301 C1295 1.491 . S
C1301 C1300 1.400 . S
C1301 C1302 1.398 . S
C1302 H1290 0.950 . S
C1302 C1301 1.398 . S
C1302 C1303 1.391 . S
C1303 H1291 0.950 . S
C1303 C1299 1.393 . S
C1303 C1302 1.391 . S
H1304 C1312 0.950 . S
H1305 C1317 0.950 . S
H1306 C1314 0.950 . S
H1307 C1316 0.950 . S
H1308 C1318 0.950 . S
H1309 C1320 0.950 . S
H1310 C1322 0.950 . S
H1311 C1323 0.950 . S
C1312 H1304 0.950 . S
C1312 C1313 1.386 . S
C1312 C1314 1.391 . S
C1313 C1312 1.386 . S
C1313 C1317 1.393 . S
C1314 H1306 0.950 . S
C1314 C1312 1.391 . S
C1314 C1315 1.400 . S
C1315 C1314 1.400 . S
C1315 C1316 1.398 . S
C1315 C1321 1.491 1_545 S
C1316 H1307 0.950 . S
C1316 C1315 1.398 . S
C1316 C1317 1.391 . S
C1317 H1305 0.950 . S
C1317 C1313 1.393 . S
C1317 C1316 1.391 . S
C1318 H1308 0.950 . S
C1318 C1319 1.386 . S
C1318 C1320 1.391 . S
C1319 C1318 1.386 . S
C1319 C1323 1.393 . S
C1320 H1309 0.950 . S
C1320 C1318 1.391 . S
C1320 C1321 1.400 . S
C1321 C1315 1.491 1_565 S
C1321 C1320 1.400 . S
C1321 C1322 1.398 . S
C1322 H1310 0.950 . S
C1322 C1321 1.398 . S
C1322 C1323 1.391 . S
C1323 H1311 0.950 . S
C1323 C1319 1.393 . S
C1323 C1322 1.391 . S
H1324 C1332 0.950 . S
H1325 C1337 0.950 . S
H1326 C1334 0.950 . S
H1327 C1336 0.950 . S
H1328 C1338 0.950 . S
H1329 C1340 0.950 . S
H1330 C1342 0.950 . S
H1331 C1343 0.950 . S
C1332 H1324 0.950 . S
C1332 C1333 1.386 . S
C1332 C1334 1.391 . S
C1333 C1332 1.386 . S
C1333 C1337 1.393 . S
C1334 H1326 0.950 . S
C1334 C1332 1.391 . S
C1334 C1335 1.400 . S
C1335 C1334 1.400 . S
C1335 C1336 1.398 . S
C1335 C1341 1.491 1_655 S
C1336 H1327 0.950 . S
C1336 C1335 1.398 . S
C1336 C1337 1.391 . S
C1337 H1325 0.950 . S
C1337 C1333 1.393 . S
C1337 C1336 1.391 . S
C1338 H1328 0.950 . S
C1338 C1339 1.386 . S
C1338 C1340 1.391 . S
C1339 C1338 1.386 . S
C1339 C1343 1.393 . S
C1340 H1329 0.950 . S
C1340 C1338 1.391 . S
C1340 C1341 1.400 . S
C1341 C1335 1.491 1_455 S
C1341 C1340 1.400 . S
C1341 C1342 1.398 . S
C1342 H1330 0.950 . S
C1342 C1341 1.398 . S
C1342 C1343 1.391 . S
C1343 H1331 0.950 . S
C1343 C1339 1.393 . S
C1343 C1342 1.391 . S
H1344 C1352 0.950 . S
H1345 C1357 0.950 . S
H1346 C1354 0.950 . S
H1347 C1356 0.950 . S
H1348 C1358 0.950 . S
H1349 C1360 0.950 . S
H1350 C1362 0.950 . S
H1351 C1363 0.950 . S
C1352 H1344 0.950 . S
C1352 C1353 1.386 . S
C1352 C1354 1.391 . S
C1353 C1352 1.386 . S
C1353 C1357 1.393 . S
C1354 H1346 0.950 . S
C1354 C1352 1.391 . S
C1354 C1355 1.400 . S
C1355 C1354 1.400 . S
C1355 C1356 1.398 . S
C1355 C1361 1.491 . S
C1356 H1347 0.950 . S
C1356 C1355 1.398 . S
C1356 C1357 1.391 . S
C1357 H1345 0.950 . S
C1357 C1353 1.393 . S
C1357 C1356 1.391 . S
C1358 H1348 0.950 . S
C1358 C1359 1.386 . S
C1358 C1360 1.391 . S
C1359 C1358 1.386 . S
C1359 C1363 1.393 . S
C1360 H1349 0.950 . S
C1360 C1358 1.391 . S
C1360 C1361 1.400 . S
C1361 C1355 1.491 . S
C1361 C1360 1.400 . S
C1361 C1362 1.398 . S
C1362 H1350 0.950 . S
C1362 C1361 1.398 . S
C1362 C1363 1.391 . S
C1363 H1351 0.950 . S
C1363 C1359 1.393 . S
C1363 C1362 1.391 . S
H1364 C1372 0.950 . S
H1365 C1377 0.950 . S
H1366 C1374 0.950 . S
H1367 C1376 0.950 . S
H1368 C1378 0.950 . S
H1369 C1380 0.950 . S
H1370 C1382 0.950 . S
H1371 C1383 0.950 . S
C1372 H1364 0.950 . S
C1372 C1373 1.386 . S
C1372 C1374 1.391 . S
C1373 C1372 1.386 . S
C1373 C1377 1.393 . S
C1374 H1366 0.950 . S
C1374 C1372 1.391 . S
C1374 C1375 1.400 . S
C1375 C1374 1.400 . S
C1375 C1376 1.398 . S
C1375 C1381 1.491 . S
C1376 H1367 0.950 . S
C1376 C1375 1.398 . S
C1376 C1377 1.391 . S
C1377 H1365 0.950 . S
C1377 C1373 1.393 . S
C1377 C1376 1.391 . S
C1378 H1368 0.950 . S
C1378 C1379 1.386 . S
C1378 C1380 1.391 . S
C1379 C1378 1.386 . S
C1379 C1383 1.393 . S
C1380 H1369 0.950 . S
C1380 C1378 1.391 . S
C1380 C1381 1.400 . S
C1381 C1375 1.491 . S
C1381 C1380 1.400 . S
C1381 C1382 1.398 . S
C1382 H1370 0.950 . S
C1382 C1381 1.398 . S
C1382 C1383 1.391 . S
C1383 H1371 0.950 . S
C1383 C1379 1.393 . S
C1383 C1382 1.391 . S
H1384 C1392 0.950 . S
H1385 C1397 0.950 . S
H1386 C1394 0.950 . S
H1387 C1396 0.950 . S
H1388 C1398 0.950 . S
H1389 C1400 0.950 . S
H1390 C1402 0.950 . S
H1391 C1403 0.950 . S
C1392 H1384 0.950 . S
C1392 C1393 1.386 . S
C1392 C1394 1.391 . S
C1393 C1392 1.386 . S
C1393 C1397 1.393 . S
C1394 H1386 0.950 . S
C1394 C1392 1.391 . S
C1394 C1395 1.400 . S
C1395 C1394 1.400 . S
C1395 C1396 1.398 . S
C1395 C1401 1.491 . S
C1396 H1387 0.950 . S
C1396 C1395 1.398 . S
C1396 C1397 1.391 . S
C1397 H1385 0.950 . S
C1397 C1393 1.393 . S
C1397 C1396 1.391 . S
C1398 H1388 0.950 . S
C1398 C1399 1.386 . S
C1398 C1400 1.391 . S
C1399 C1398 1.386 . S
C1399 C1403 1.393 . S
C1400 H1389 0.950 . S
C1400 C1398 1.391 . S
C1400 C1401 1.400 . S
C1401 C1395 1.491 . S
C1401 C1400 1.400 . S
C1401 C1402 1.398 . S
C1402 H1390 0.950 . S
C1402 C1401 1.398 . S
C1402 C1403 1.391 . S
C1403 H1391 0.950 . S
C1403 C1399 1.393 . S
C1403 C1402 1.391 . S
H1404 C1412 0.950 . S
H1405 C1417 0.950 . S
H1406 C1414 0.950 . S
H1407 C1416 0.950 . S
H1408 C1418 0.950 . S
H1409 C1420 0.950 . S
H1410 C1422 0.950 . S
H1411 C1423 0.950 . S
C1412 H1404 0.950 . S
C1412 C1413 1.386 . S
C1412 C1414 1.391 . S
C1413 C1412 1.386 . S
C1413 C1417 1.393 . S
C1414 H1406 0.950 . S
C1414 C1412 1.391 . S
C1414 C1415 1.400 . S
C1415 C1414 1.400 . S
C1415 C1416 1.398 . S
C1415 C1421 1.491 . S
C1416 H1407 0.950 . S
C1416 C1415 1.398 . S
C1416 C1417 1.391 . S
C1417 H1405 0.950 . S
C1417 C1413 1.393 . S
C1417 C1416 1.391 . S
C1418 H1408 0.950 . S
C1418 C1419 1.386 . S
C1418 C1420 1.391 . S
C1419 C1418 1.386 . S
C1419 C1423 1.393 . S
C1420 H1409 0.950 . S
C1420 C1418 1.391 . S
C1420 C1421 1.400 . S
C1421 C1415 1.491 . S
C1421 C1420 1.400 . S
C1421 C1422 1.398 . S
C1422 H1410 0.950 . S
C1422 C1421 1.398 . S
C1422 C1423 1.391 . S
C1423 H1411 0.950 . S
C1423 C1419 1.393 . S
C1423 C1422 1.391 . S
H1424 C1432 0.950 . S
H1425 C1437 0.950 . S
H1426 C1434 0.950 . S
H1427 C1436 0.950 . S
H1428 C1438 0.950 . S
H1429 C1440 0.950 . S
H1430 C1442 0.950 . S
H1431 C1443 0.950 . S
C1432 H1424 0.950 . S
C1432 C1433 1.386 . S
C1432 C1434 1.391 . S
C1433 C1432 1.386 . S
C1433 C1437 1.393 . S
C1434 H1426 0.950 . S
C1434 C1432 1.391 . S
C1434 C1435 1.400 . S
C1435 C1434 1.400 . S
C1435 C1436 1.398 . S
C1435 C1441 1.491 . S
C1436 H1427 0.950 . S
C1436 C1435 1.398 . S
C1436 C1437 1.391 . S
C1437 H1425 0.950 . S
C1437 C1433 1.393 . S
C1437 C1436 1.391 . S
C1438 H1428 0.950 . S
C1438 C1439 1.386 . S
C1438 C1440 1.391 . S
C1439 C1438 1.386 . S
C1439 C1443 1.393 . S
C1440 H1429 0.950 . S
C1440 C1438 1.391 . S
C1440 C1441 1.400 . S
C1441 C1435 1.491 . S
C1441 C1440 1.400 . S
C1441 C1442 1.398 . S
C1442 H1430 0.950 . S
C1442 C1441 1.398 . S
C1442 C1443 1.391 . S
C1443 H1431 0.950 . S
C1443 C1439 1.393 . S
C1443 C1442 1.391 . S
H1444 C1452 0.950 . S
H1445 C1457 0.950 . S
H1446 C1454 0.950 . S
H1447 C1456 0.950 . S
H1448 C1458 0.950 . S
H1449 C1460 0.950 . S
H1450 C1462 0.950 . S
H1451 C1463 0.950 . S
C1452 H1444 0.950 . S
C1452 C1453 1.386 . S
C1452 C1454 1.391 . S
C1453 C1452 1.386 . S
C1453 C1457 1.393 . S
C1454 H1446 0.950 . S
C1454 C1452 1.391 . S
C1454 C1455 1.400 . S
C1455 C1454 1.400 . S
C1455 C1456 1.398 . S
C1455 C1461 1.491 . S
C1456 H1447 0.950 . S
C1456 C1455 1.398 . S
C1456 C1457 1.391 . S
C1457 H1445 0.950 . S
C1457 C1453 1.393 . S
C1457 C1456 1.391 . S
C1458 H1448 0.950 . S
C1458 C1459 1.386 . S
C1458 C1460 1.391 . S
C1459 C1458 1.386 . S
C1459 C1463 1.393 . S
C1460 H1449 0.950 . S
C1460 C1458 1.391 . S
C1460 C1461 1.400 . S
C1461 C1455 1.491 . S
C1461 C1460 1.400 . S
C1461 C1462 1.398 . S
C1462 H1450 0.950 . S
C1462 C1461 1.398 . S
C1462 C1463 1.391 . S
C1463 H1451 0.950 . S
C1463 C1459 1.393 . S
C1463 C1462 1.391 . S
H1464 C1472 0.950 . S
H1465 C1477 0.950 . S
H1466 C1474 0.950 . S
H1467 C1476 0.950 . S
H1468 C1478 0.950 . S
H1469 C1480 0.950 . S
H1470 C1482 0.950 . S
H1471 C1483 0.950 . S
C1472 H1464 0.950 . S
C1472 C1473 1.386 . S
C1472 C1474 1.391 . S
C1473 C1472 1.386 . S
C1473 C1477 1.393 . S
C1474 H1466 0.950 . S
C1474 C1472 1.391 . S
C1474 C1475 1.400 . S
C1475 C1474 1.400 . S
C1475 C1476 1.398 . S
C1475 C1481 1.491 . S
C1476 H1467 0.950 . S
C1476 C1475 1.398 . S
C1476 C1477 1.391 . S
C1477 H1465 0.950 . S
C1477 C1473 1.393 . S
C1477 C1476 1.391 . S
C1478 H1468 0.950 . S
C1478 C1479 1.386 . S
C1478 C1480 1.391 . S
C1479 C1478 1.386 . S
C1479 C1483 1.393 . S
C1480 H1469 0.950 . S
C1480 C1478 1.391 . S
C1480 C1481 1.400 . S
C1481 C1475 1.491 . S
C1481 C1480 1.400 . S
C1481 C1482 1.398 . S
C1482 H1470 0.950 . S
C1482 C1481 1.398 . S
C1482 C1483 1.391 . S
C1483 H1471 0.950 . S
C1483 C1479 1.393 . S
C1483 C1482 1.391 . S
H1484 C1492 0.950 1_554 S
H1485 C1497 0.950 . S
H1486 C1494 0.950 . S
H1487 C1496 0.950 . S
H1488 C1498 0.950 . S
H1489 C1500 0.950 . S
H1490 C1502 0.950 . S
H1491 C1503 0.950 . S
C1492 H1484 0.950 1_556 S
C1492 C1493 1.386 . S
C1492 C1494 1.391 . S
C1493 C1492 1.386 . S
C1493 C1497 1.393 . S
C1494 H1486 0.950 . S
C1494 C1492 1.391 . S
C1494 C1495 1.400 . S
C1495 C1494 1.400 . S
C1495 C1496 1.398 . S
C1495 C1501 1.491 . S
C1496 H1487 0.950 . S
C1496 C1495 1.398 . S
C1496 C1497 1.391 . S
C1497 H1485 0.950 . S
C1497 C1493 1.393 . S
C1497 C1496 1.391 . S
C1498 H1488 0.950 . S
C1498 C1499 1.386 . S
C1498 C1500 1.391 . S
C1499 C1498 1.386 . S
C1499 C1503 1.393 . S
C1500 H1489 0.950 . S
C1500 C1498 1.391 . S
C1500 C1501 1.400 . S
C1501 C1495 1.491 . S
C1501 C1500 1.400 . S
C1501 C1502 1.398 . S
C1502 H1490 0.950 . S
C1502 C1501 1.398 . S
C1502 C1503 1.391 . S
C1503 H1491 0.950 . S
C1503 C1499 1.393 . S
C1503 C1502 1.391 . S
H1504 C1512 0.950 . S
H1505 C1517 0.950 . S
H1506 C1514 0.950 . S
H1507 C1516 0.950 . S
H1508 C1518 0.950 . S
H1509 C1520 0.950 . S
H1510 C1522 0.950 . S
H1511 C1523 0.950 1_554 S
C1512 H1504 0.950 . S
C1512 C1513 1.386 . S
C1512 C1514 1.391 . S
C1513 C1512 1.386 . S
C1513 C1517 1.393 . S
C1514 H1506 0.950 . S
C1514 C1512 1.391 . S
C1514 C1515 1.400 . S
C1515 C1514 1.400 . S
C1515 C1516 1.398 . S
C1515 C1521 1.491 . S
C1516 H1507 0.950 . S
C1516 C1515 1.398 . S
C1516 C1517 1.391 . S
C1517 H1505 0.950 . S
C1517 C1513 1.393 . S
C1517 C1516 1.391 . S
C1518 H1508 0.950 . S
C1518 C1519 1.386 . S
C1518 C1520 1.391 . S
C1519 C1518 1.386 . S
C1519 C1523 1.393 . S
C1520 H1509 0.950 . S
C1520 C1518 1.391 . S
C1520 C1521 1.400 . S
C1521 C1515 1.491 . S
C1521 C1520 1.400 . S
C1521 C1522 1.398 . S
C1522 H1510 0.950 . S
C1522 C1521 1.398 . S
C1522 C1523 1.391 . S
C1523 H1511 0.950 1_556 S
C1523 C1519 1.393 . S
C1523 C1522 1.391 . S
H1524 C1532 0.950 . S
H1525 C1537 0.950 . S
H1526 C1534 0.950 . S
H1527 C1536 0.950 . S
H1528 C1538 0.950 . S
H1529 C1540 0.950 . S
H1530 C1542 0.950 . S
H1531 C1543 0.950 . S
C1532 H1524 0.950 . S
C1532 C1533 1.386 . S
C1532 C1534 1.391 . S
C1533 C1532 1.386 . S
C1533 C1537 1.393 . S
C1534 H1526 0.950 . S
C1534 C1532 1.391 . S
C1534 C1535 1.400 . S
C1535 C1534 1.400 . S
C1535 C1536 1.398 . S
C1535 C1541 1.491 . S
C1536 H1527 0.950 . S
C1536 C1535 1.398 . S
C1536 C1537 1.391 . S
C1537 H1525 0.950 . S
C1537 C1533 1.393 . S
C1537 C1536 1.391 . S
C1538 H1528 0.950 . S
C1538 C1539 1.386 . S
C1538 C1540 1.391 . S
C1539 C1538 1.386 . S
C1539 C1543 1.393 . S
C1540 H1529 0.950 . S
C1540 C1538 1.391 . S
C1540 C1541 1.400 . S
C1541 C1535 1.491 . S
C1541 C1540 1.400 . S
C1541 C1542 1.398 . S
C1542 H1530 0.950 . S
C1542 C1541 1.398 . S
C1542 C1543 1.391 . S
C1543 H1531 0.950 . S
C1543 C1539 1.393 . S
C1543 C1542 1.391 . S
H1544 C1552 0.950 . S
H1545 C1557 0.950 . S
H1546 C1554 0.950 . S
H1547 C1556 0.950 . S
H1548 C1558 0.950 . S
H1549 C1560 0.950 . S
H1550 C1562 0.950 . S
H1551 C1563 0.950 . S
C1552 H1544 0.950 . S
C1552 C1553 1.386 . S
C1552 C1554 1.391 . S
C1553 C1552 1.386 . S
C1553 C1557 1.393 . S
C1554 H1546 0.950 . S
C1554 C1552 1.391 . S
C1554 C1555 1.400 . S
C1555 C1554 1.400 . S
C1555 C1556 1.398 . S
C1555 C1561 1.491 . S
C1556 H1547 0.950 . S
C1556 C1555 1.398 . S
C1556 C1557 1.391 . S
C1557 H1545 0.950 . S
C1557 C1553 1.393 . S
C1557 C1556 1.391 . S
C1558 H1548 0.950 . S
C1558 C1559 1.386 . S
C1558 C1560 1.391 . S
C1559 C1558 1.386 . S
C1559 C1563 1.393 . S
C1560 H1549 0.950 . S
C1560 C1558 1.391 . S
C1560 C1561 1.400 . S
C1561 C1555 1.491 . S
C1561 C1560 1.400 . S
C1561 C1562 1.398 . S
C1562 H1550 0.950 . S
C1562 C1561 1.398 . S
C1562 C1563 1.391 . S
C1563 H1551 0.950 . S
C1563 C1559 1.393 . S
C1563 C1562 1.391 . S
H1564 C1572 0.950 . S
H1565 C1577 0.950 . S
H1566 C1574 0.950 . S
H1567 C1576 0.950 . S
H1568 C1578 0.950 . S
H1569 C1580 0.950 . S
H1570 C1582 0.950 . S
H1571 C1583 0.950 . S
C1572 H1564 0.950 . S
C1572 C1573 1.386 . S
C1572 C1574 1.391 . S
C1573 C1572 1.386 . S
C1573 C1577 1.393 . S
C1574 H1566 0.950 . S
C1574 C1572 1.391 . S
C1574 C1575 1.400 . S
C1575 C1574 1.400 . S
C1575 C1576 1.398 . S
C1575 C1581 1.491 . S
C1576 H1567 0.950 . S
C1576 C1575 1.398 . S
C1576 C1577 1.391 . S
C1577 H1565 0.950 . S
C1577 C1573 1.393 . S
C1577 C1576 1.391 . S
C1578 H1568 0.950 . S
C1578 C1579 1.386 . S
C1578 C1580 1.391 . S
C1579 C1578 1.386 . S
C1579 C1583 1.393 . S
C1580 H1569 0.950 . S
C1580 C1578 1.391 . S
C1580 C1581 1.400 . S
C1581 C1575 1.491 . S
C1581 C1580 1.400 . S
C1581 C1582 1.398 . S
C1582 H1570 0.950 . S
C1582 C1581 1.398 . S
C1582 C1583 1.391 . S
C1583 H1571 0.950 . S
C1583 C1579 1.393 . S
C1583 C1582 1.391 . S
H1584 C1592 0.950 . S
H1585 C1597 0.950 . S
H1586 C1594 0.950 . S
H1587 C1596 0.950 . S
H1588 C1598 0.950 . S
H1589 C1600 0.950 . S
H1590 C1602 0.950 . S
H1591 C1603 0.950 . S
C1592 H1584 0.950 . S
C1592 C1593 1.386 . S
C1592 C1594 1.391 . S
C1593 C1592 1.386 . S
C1593 C1597 1.393 . S
C1594 H1586 0.950 . S
C1594 C1592 1.391 . S
C1594 C1595 1.400 . S
C1595 C1594 1.400 . S
C1595 C1596 1.398 . S
C1595 C1601 1.491 . S
C1596 H1587 0.950 . S
C1596 C1595 1.398 . S
C1596 C1597 1.391 . S
C1597 H1585 0.950 . S
C1597 C1593 1.393 . S
C1597 C1596 1.391 . S
C1598 H1588 0.950 . S
C1598 C1599 1.386 . S
C1598 C1600 1.391 . S
C1599 C1598 1.386 . S
C1599 C1603 1.393 . S
C1600 H1589 0.950 . S
C1600 C1598 1.391 . S
C1600 C1601 1.400 . S
C1601 C1595 1.491 . S
C1601 C1600 1.400 . S
C1601 C1602 1.398 . S
C1602 H1590 0.950 . S
C1602 C1601 1.398 . S
C1602 C1603 1.391 . S
C1603 H1591 0.950 . S
C1603 C1599 1.393 . S
C1603 C1602 1.391 . S
H1604 C1612 0.950 . S
H1605 C1617 0.950 . S
H1606 C1614 0.950 . S
H1607 C1616 0.950 . S
H1608 C1618 0.950 . S
H1609 C1620 0.950 . S
H1610 C1622 0.950 . S
H1611 C1623 0.950 . S
C1612 H1604 0.950 . S
C1612 C1613 1.386 . S
C1612 C1614 1.391 . S
C1613 C1612 1.386 . S
C1613 C1617 1.393 . S
C1614 H1606 0.950 . S
C1614 C1612 1.391 . S
C1614 C1615 1.400 . S
C1615 C1614 1.400 . S
C1615 C1616 1.398 . S
C1615 C1621 1.491 . S
C1616 H1607 0.950 . S
C1616 C1615 1.398 . S
C1616 C1617 1.391 . S
C1617 H1605 0.950 . S
C1617 C1613 1.393 . S
C1617 C1616 1.391 . S
C1618 H1608 0.950 . S
C1618 C1619 1.386 . S
C1618 C1620 1.391 . S
C1619 C1618 1.386 . S
C1619 C1623 1.393 . S
C1620 H1609 0.950 . S
C1620 C1618 1.391 . S
C1620 C1621 1.400 . S
C1621 C1615 1.491 . S
C1621 C1620 1.400 . S
C1621 C1622 1.398 . S
C1622 H1610 0.950 . S
C1622 C1621 1.398 . S
C1622 C1623 1.391 . S
C1623 H1611 0.950 . S
C1623 C1619 1.393 . S
C1623 C1622 1.391 . S
H1624 C1632 0.950 . S
H1625 C1637 0.950 . S
H1626 C1634 0.950 . S
H1627 C1636 0.950 . S
H1628 C1638 0.950 . S
H1629 C1640 0.950 . S
H1630 C1642 0.950 . S
H1631 C1643 0.950 . S
C1632 H1624 0.950 . S
C1632 C1633 1.386 . S
C1632 C1634 1.391 . S
C1633 C1632 1.386 . S
C1633 C1637 1.393 . S
C1634 H1626 0.950 . S
C1634 C1632 1.391 . S
C1634 C1635 1.400 . S
C1635 C1634 1.400 . S
C1635 C1636 1.398 . S
C1635 C1641 1.491 . S
C1636 H1627 0.950 . S
C1636 C1635 1.398 . S
C1636 C1637 1.391 . S
C1637 H1625 0.950 . S
C1637 C1633 1.393 . S
C1637 C1636 1.391 . S
C1638 H1628 0.950 . S
C1638 C1639 1.386 . S
C1638 C1640 1.391 . S
C1639 C1638 1.386 . S
C1639 C1643 1.393 . S
C1640 H1629 0.950 . S
C1640 C1638 1.391 . S
C1640 C1641 1.400 . S
C1641 C1635 1.491 . S
C1641 C1640 1.400 . S
C1641 C1642 1.398 . S
C1642 H1630 0.950 . S
C1642 C1641 1.398 . S
C1642 C1643 1.391 . S
C1643 H1631 0.950 . S
C1643 C1639 1.393 . S
C1643 C1642 1.391 . S
H1644 C1652 0.950 . S
H1645 C1657 0.950 . S
H1646 C1654 0.950 . S
H1647 C1656 0.950 . S
H1648 C1658 0.950 . S
H1649 C1660 0.950 . S
H1650 C1662 0.950 . S
H1651 C1663 0.950 . S
C1652 H1644 0.950 . S
C1652 C1653 1.386 . S
C1652 C1654 1.391 . S
C1653 C1652 1.386 . S
C1653 C1657 1.393 . S
C1654 H1646 0.950 . S
C1654 C1652 1.391 . S
C1654 C1655 1.400 . S
C1655 C1654 1.400 . S
C1655 C1656 1.398 . S
C1655 C1661 1.491 . S
C1656 H1647 0.950 . S
C1656 C1655 1.398 . S
C1656 C1657 1.391 . S
C1657 H1645 0.950 . S
C1657 C1653 1.393 . S
C1657 C1656 1.391 . S
C1658 H1648 0.950 . S
C1658 C1659 1.386 . S
C1658 C1660 1.391 . S
C1659 C1658 1.386 . S
C1659 C1663 1.393 . S
C1660 H1649 0.950 . S
C1660 C1658 1.391 . S
C1660 C1661 1.400 . S
C1661 C1655 1.491 . S
C1661 C1660 1.400 . S
C1661 C1662 1.398 . S
C1662 H1650 0.950 . S
C1662 C1661 1.398 . S
C1662 C1663 1.391 . S
C1663 H1651 0.950 . S
C1663 C1659 1.393 . S
C1663 C1662 1.391 . S
H1664 C1672 0.950 . S
H1665 C1677 0.950 . S
H1666 C1674 0.950 . S
H1667 C1676 0.950 . S
H1668 C1678 0.950 . S
H1669 C1680 0.950 . S
H1670 C1682 0.950 . S
H1671 C1683 0.950 . S
C1672 H1664 0.950 . S
C1672 C1673 1.386 . S
C1672 C1674 1.391 . S
C1673 C1672 1.386 . S
C1673 C1677 1.393 . S
C1674 H1666 0.950 . S
C1674 C1672 1.391 . S
C1674 C1675 1.400 . S
C1675 C1674 1.400 . S
C1675 C1676 1.398 . S
C1675 C1681 1.491 . S
C1676 H1667 0.950 . S
C1676 C1675 1.398 . S
C1676 C1677 1.391 . S
C1677 H1665 0.950 . S
C1677 C1673 1.393 . S
C1677 C1676 1.391 . S
C1678 H1668 0.950 . S
C1678 C1679 1.386 . S
C1678 C1680 1.391 . S
C1679 C1678 1.386 . S
C1679 C1683 1.393 . S
C1680 H1669 0.950 . S
C1680 C1678 1.391 . S
C1680 C1681 1.400 . S
C1681 C1675 1.491 . S
C1681 C1680 1.400 . S
C1681 C1682 1.398 . S
C1682 H1670 0.950 . S
C1682 C1681 1.398 . S
C1682 C1683 1.391 . S
C1683 H1671 0.950 . S
C1683 C1679 1.393 . S
C1683 C1682 1.391 . S
H1684 C1692 0.950 . S
H1685 C1697 0.950 . S
H1686 C1694 0.950 . S
H1687 C1696 0.950 . S
H1688 C1698 0.950 . S
H1689 C1700 0.950 . S
H1690 C1702 0.950 . S
H1691 C1703 0.950 . S
C1692 H1684 0.950 . S
C1692 C1693 1.386 . S
C1692 C1694 1.391 . S
C1693 C1692 1.386 . S
C1693 C1697 1.393 . S
C1694 H1686 0.950 . S
C1694 C1692 1.391 . S
C1694 C1695 1.400 . S
C1695 C1694 1.400 . S
C1695 C1696 1.398 . S
C1695 C1701 1.491 . S
C1696 H1687 0.950 . S
C1696 C1695 1.398 . S
C1696 C1697 1.391 . S
C1697 H1685 0.950 . S
C1697 C1693 1.393 . S
C1697 C1696 1.391 . S
C1698 H1688 0.950 . S
C1698 C1699 1.386 . S
C1698 C1700 1.391 . S
C1699 C1698 1.386 . S
C1699 C1703 1.393 . S
C1700 H1689 0.950 . S
C1700 C1698 1.391 . S
C1700 C1701 1.400 . S
C1701 C1695 1.491 . S
C1701 C1700 1.400 . S
C1701 C1702 1.398 . S
C1702 H1690 0.950 . S
C1702 C1701 1.398 . S
C1702 C1703 1.391 . S
C1703 H1691 0.950 . S
C1703 C1699 1.393 . S
C1703 C1702 1.391 . S
H1704 C1712 0.950 . S
H1705 C1717 0.950 . S
H1706 C1714 0.950 . S
H1707 C1716 0.950 . S
H1708 C1718 0.950 . S
H1709 C1720 0.950 . S
H1710 C1722 0.950 . S
H1711 C1723 0.950 . S
C1712 H1704 0.950 . S
C1712 C1713 1.386 . S
C1712 C1714 1.391 . S
C1713 C1712 1.386 . S
C1713 C1717 1.393 . S
C1714 H1706 0.950 . S
C1714 C1712 1.391 . S
C1714 C1715 1.400 . S
C1715 C1714 1.400 . S
C1715 C1716 1.398 . S
C1715 C1721 1.491 . S
C1716 H1707 0.950 . S
C1716 C1715 1.398 . S
C1716 C1717 1.391 . S
C1717 H1705 0.950 . S
C1717 C1713 1.393 . S
C1717 C1716 1.391 . S
C1718 H1708 0.950 . S
C1718 C1719 1.386 . S
C1718 C1720 1.391 . S
C1719 C1718 1.386 . S
C1719 C1723 1.393 . S
C1720 H1709 0.950 . S
C1720 C1718 1.391 . S
C1720 C1721 1.400 . S
C1721 C1715 1.491 . S
C1721 C1720 1.400 . S
C1721 C1722 1.398 . S
C1722 H1710 0.950 . S
C1722 C1721 1.398 . S
C1722 C1723 1.391 . S
C1723 H1711 0.950 . S
C1723 C1719 1.393 . S
C1723 C1722 1.391 . S
H1724 C1732 0.950 . S
H1725 C1737 0.950 . S
H1726 C1734 0.950 . S
H1727 C1736 0.950 . S
H1728 C1738 0.950 . S
H1729 C1740 0.950 . S
H1730 C1742 0.950 . S
H1731 C1743 0.950 . S
C1732 H1724 0.950 . S
C1732 C1733 1.386 . S
C1732 C1734 1.391 . S
C1733 C1732 1.386 . S
C1733 C1737 1.393 . S
C1734 H1726 0.950 . S
C1734 C1732 1.391 . S
C1734 C1735 1.400 . S
C1735 C1734 1.400 . S
C1735 C1736 1.398 . S
C1735 C1741 1.491 . S
C1736 H1727 0.950 . S
C1736 C1735 1.398 . S
C1736 C1737 1.391 . S
C1737 H1725 0.950 . S
C1737 C1733 1.393 . S
C1737 C1736 1.391 . S
C1738 H1728 0.950 . S
C1738 C1739 1.386 . S
C1738 C1740 1.391 . S
C1739 C1738 1.386 . S
C1739 C1743 1.393 . S
C1740 H1729 0.950 . S
C1740 C1738 1.391 . S
C1740 C1741 1.400 . S
C1741 C1735 1.491 . S
C1741 C1740 1.400 . S
C1741 C1742 1.398 . S
C1742 H1730 0.950 . S
C1742 C1741 1.398 . S
C1742 C1743 1.391 . S
C1743 H1731 0.950 . S
C1743 C1739 1.393 . S
C1743 C1742 1.391 . S
H1744 C1752 0.950 . S
H1745 C1757 0.950 . S
H1746 C1754 0.950 . S
H1747 C1756 0.950 . S
H1748 C1758 0.950 . S
H1749 C1760 0.950 . S
H1750 C1762 0.950 . S
H1751 C1763 0.950 . S
C1752 H1744 0.950 . S
C1752 C1753 1.386 . S
C1752 C1754 1.391 . S
C1753 C1752 1.386 . S
C1753 C1757 1.393 . S
C1754 H1746 0.950 . S
C1754 C1752 1.391 . S
C1754 C1755 1.400 . S
C1755 C1754 1.400 . S
C1755 C1756 1.398 . S
C1755 C1761 1.491 . S
C1756 H1747 0.950 . S
C1756 C1755 1.398 . S
C1756 C1757 1.391 . S
C1757 H1745 0.950 . S
C1757 C1753 1.393 . S
C1757 C1756 1.391 . S
C1758 H1748 0.950 . S
C1758 C1759 1.386 . S
C1758 C1760 1.391 . S
C1759 C1758 1.386 . S
C1759 C1763 1.393 . S
C1760 H1749 0.950 . S
C1760 C1758 1.391 . S
C1760 C1761 1.400 . S
C1761 C1755 1.491 . S
C1761 C1760 1.400 . S
C1761 C1762 1.398 . S
C1762 H1750 0.950 . S
C1762 C1761 1.398 . S
C1762 C1763 1.391 . S
C1763 H1751 0.950 . S
C1763 C1759 1.393 . S
C1763 C1762 1.391 . S
H1764 C1772 0.950 . S
H1765 C1777 0.950 . S
H1766 C1774 0.950 . S
H1767 C1776 0.950 . S
H1768 C1778 0.950 . S
H1769 C1780 0.950 . S
H1770 C1782 0.950 . S
H1771 C1783 0.950 . S
C1772 H1764 0.950 . S
C1772 C1773 1.386 . S
C1772 C1774 1.391 . S
C1773 C1772 1.386 . S
C1773 C1777 1.393 . S
C1774 H1766 0.950 . S
C1774 C1772 1.391 . S
C1774 C1775 1.400 . S
C1775 C1774 1.400 . S
C1775 C1776 1.398 . S
C1775 C1781 1.491 . S
C1776 H1767 0.950 . S
C1776 C1775 1.398 . S
C1776 C1777 1.391 . S
C1777 H1765 0.950 . S
C1777 C1773 1.393 . S
C1777 C1776 1.391 . S
C1778 H1768 0.950 . S
C1778 C1779 1.386 . S
C1778 C1780 1.391 . S
C1779 C1778 1.386 . S
C1779 C1783 1.393 . S
C1780 H1769 0.950 . S
C1780 C1778 1.391 . S
C1780 C1781 1.400 . S
C1781 C1775 1.491 . S
C1781 C1780 1.400 . S
C1781 C1782 1.398 . S
C1782 H1770 0.950 . S
C1782 C1781 1.398 . S
C1782 C1783 1.391 . S
C1783 H1771 0.950 . S
C1783 C1779 1.393 . S
C1783 C1782 1.391 . S
H1784 C1792 0.950 . S
H1785 C1797 0.950 . S
H1786 C1794 0.950 . S
H1787 C1796 0.950 . S
H1788 C1798 0.950 . S
H1789 C1800 0.950 . S
H1790 C1802 0.950 . S
H1791 C1803 0.950 . S
C1792 H1784 0.950 . S
C1792 C1793 1.386 . S
C1792 C1794 1.391 . S
C1793 C1792 1.386 . S
C1793 C1797 1.393 . S
C1794 H1786 0.950 . S
C1794 C1792 1.391 . S
C1794 C1795 1.400 . S
C1795 C1794 1.400 . S
C1795 C1796 1.398 . S
C1795 C1801 1.491 . S
C1796 H1787 0.950 . S
C1796 C1795 1.398 . S
C1796 C1797 1.391 . S
C1797 H1785 0.950 . S
C1797 C1793 1.393 . S
C1797 C1796 1.391 . S
C1798 H1788 0.950 . S
C1798 C1799 1.386 . S
C1798 C1800 1.391 . S
C1799 C1798 1.386 . S
C1799 C1803 1.393 . S
C1800 H1789 0.950 . S
C1800 C1798 1.391 . S
C1800 C1801 1.400 . S
C1801 C1795 1.491 . S
C1801 C1800 1.400 . S
C1801 C1802 1.398 . S
C1802 H1790 0.950 . S
C1802 C1801 1.398 . S
C1802 C1803 1.391 . S
C1803 H1791 0.950 . S
C1803 C1799 1.393 . S
C1803 C1802 1.391 . S
H1804 C1812 0.950 . S
H1805 C1817 0.950 . S
H1806 C1814 0.950 . S
H1807 C1816 0.950 . S
H1808 C1818 0.950 . S
H1809 C1820 0.950 . S
H1810 C1822 0.950 . S
H1811 C1823 0.950 . S
C1812 H1804 0.950 . S
C1812 C1813 1.386 . S
C1812 C1814 1.391 . S
C1813 C1812 1.386 . S
C1813 C1817 1.393 . S
C1814 H1806 0.950 . S
C1814 C1812 1.391 . S
C1814 C1815 1.400 . S
C1815 C1814 1.400 . S
C1815 C1816 1.398 . S
C1815 C1821 1.491 . S
C1816 H1807 0.950 . S
C1816 C1815 1.398 . S
C1816 C1817 1.391 . S
C1817 H1805 0.950 . S
C1817 C1813 1.393 . S
C1817 C1816 1.391 . S
C1818 H1808 0.950 . S
C1818 C1819 1.386 . S
C1818 C1820 1.391 . S
C1819 C1818 1.386 . S
C1819 C1823 1.393 . S
C1820 H1809 0.950 . S
C1820 C1818 1.391 . S
C1820 C1821 1.400 . S
C1821 C1815 1.491 . S
C1821 C1820 1.400 . S
C1821 C1822 1.398 . S
C1822 H1810 0.950 . S
C1822 C1821 1.398 . S
C1822 C1823 1.391 . S
C1823 H1811 0.950 . S
C1823 C1819 1.393 . S
C1823 C1822 1.391 . S
H1824 C1832 0.950 . S
H1825 C1837 0.950 . S
H1826 C1834 0.950 . S
H1827 C1836 0.950 . S
H1828 C1838 0.950 . S
H1829 C1840 0.950 . S
H1830 C1842 0.950 . S
H1831 C1843 0.950 . S
C1832 H1824 0.950 . S
C1832 C1833 1.386 . S
C1832 C1834 1.391 . S
C1833 C1832 1.386 . S
C1833 C1837 1.393 . S
C1834 H1826 0.950 . S
C1834 C1832 1.391 . S
C1834 C1835 1.400 . S
C1835 C1834 1.400 . S
C1835 C1836 1.398 . S
C1835 C1841 1.491 1_455 S
C1836 H1827 0.950 . S
C1836 C1835 1.398 . S
C1836 C1837 1.391 . S
C1837 H1825 0.950 . S
C1837 C1833 1.393 . S
C1837 C1836 1.391 . S
C1838 H1828 0.950 . S
C1838 C1839 1.386 . S
C1838 C1840 1.391 . S
C1839 C1838 1.386 . S
C1839 C1843 1.393 . S
C1840 H1829 0.950 . S
C1840 C1838 1.391 . S
C1840 C1841 1.400 . S
C1841 C1835 1.491 1_655 S
C1841 C1840 1.400 . S
C1841 C1842 1.398 . S
C1842 H1830 0.950 . S
C1842 C1841 1.398 . S
C1842 C1843 1.391 . S
C1843 H1831 0.950 . S
C1843 C1839 1.393 . S
C1843 C1842 1.391 . S
H1844 C1852 0.950 . S
H1845 C1857 0.950 . S
H1846 C1854 0.950 . S
H1847 C1856 0.950 . S
H1848 C1858 0.950 . S
H1849 C1860 0.950 . S
H1850 C1862 0.950 . S
H1851 C1863 0.950 . S
C1852 H1844 0.950 . S
C1852 C1853 1.386 . S
C1852 C1854 1.391 . S
C1853 C1852 1.386 . S
C1853 C1857 1.393 . S
C1854 H1846 0.950 . S
C1854 C1852 1.391 . S
C1854 C1855 1.400 . S
C1855 C1854 1.400 . S
C1855 C1856 1.398 . S
C1855 C1861 1.491 . S
C1856 H1847 0.950 . S
C1856 C1855 1.398 . S
C1856 C1857 1.391 . S
C1857 H1845 0.950 . S
C1857 C1853 1.393 . S
C1857 C1856 1.391 . S
C1858 H1848 0.950 . S
C1858 C1859 1.386 . S
C1858 C1860 1.391 . S
C1859 C1858 1.386 . S
C1859 C1863 1.393 . S
C1860 H1849 0.950 . S
C1860 C1858 1.391 . S
C1860 C1861 1.400 . S
C1861 C1855 1.491 . S
C1861 C1860 1.400 . S
C1861 C1862 1.398 . S
C1862 H1850 0.950 . S
C1862 C1861 1.398 . S
C1862 C1863 1.391 . S
C1863 H1851 0.950 . S
C1863 C1859 1.393 . S
C1863 C1862 1.391 . S
H1864 C1872 0.950 . S
H1865 C1877 0.950 . S
H1866 C1874 0.950 . S
H1867 C1876 0.950 . S
H1868 C1878 0.950 . S
H1869 C1880 0.950 . S
H1870 C1882 0.950 . S
H1871 C1883 0.950 . S
C1872 H1864 0.950 . S
C1872 C1873 1.386 . S
C1872 C1874 1.391 . S
C1873 C1872 1.386 . S
C1873 C1877 1.393 . S
C1874 H1866 0.950 . S
C1874 C1872 1.391 . S
C1874 C1875 1.400 . S
C1875 C1874 1.400 . S
C1875 C1876 1.398 . S
C1875 C1881 1.491 1_545 S
C1876 H1867 0.950 . S
C1876 C1875 1.398 . S
C1876 C1877 1.391 . S
C1877 H1865 0.950 . S
C1877 C1873 1.393 . S
C1877 C1876 1.391 . S
C1878 H1868 0.950 . S
C1878 C1879 1.386 . S
C1878 C1880 1.391 . S
C1879 C1878 1.386 . S
C1879 C1883 1.393 . S
C1880 H1869 0.950 . S
C1880 C1878 1.391 . S
C1880 C1881 1.400 . S
C1881 C1875 1.491 1_565 S
C1881 C1880 1.400 . S
C1881 C1882 1.398 . S
C1882 H1870 0.950 . S
C1882 C1881 1.398 . S
C1882 C1883 1.391 . S
C1883 H1871 0.950 . S
C1883 C1879 1.393 . S
C1883 C1882 1.391 . S
H1884 C1892 0.950 . S
H1885 C1897 0.950 . S
H1886 C1894 0.950 . S
H1887 C1896 0.950 . S
H1888 C1898 0.950 . S
H1889 C1900 0.950 . S
H1890 C1902 0.950 . S
H1891 C1903 0.950 . S
C1892 H1884 0.950 . S
C1892 C1893 1.386 . S
C1892 C1894 1.391 . S
C1893 C1892 1.386 . S
C1893 C1897 1.393 1_554 S
C1894 H1886 0.950 . S
C1894 C1892 1.391 . S
C1894 C1895 1.400 . S
C1895 C1894 1.400 . S
C1895 C1896 1.398 1_554 S
C1895 C1901 1.491 1_544 S
C1896 H1887 0.950 . S
C1896 C1895 1.398 1_556 S
C1896 C1897 1.391 . S
C1897 H1885 0.950 . S
C1897 C1893 1.393 1_556 S
C1897 C1896 1.391 . S
C1898 H1888 0.950 . S
C1898 C1899 1.386 . S
C1898 C1900 1.391 . S
C1899 C1898 1.386 . S
C1899 C1903 1.393 1_556 S
C1900 H1889 0.950 . S
C1900 C1898 1.391 . S
C1900 C1901 1.400 . S
C1901 C1895 1.491 1_566 S
C1901 C1900 1.400 . S
C1901 C1902 1.398 1_556 S
C1902 H1890 0.950 . S
C1902 C1901 1.398 1_554 S
C1902 C1903 1.391 . S
C1903 H1891 0.950 . S
C1903 C1899 1.393 1_554 S
C1903 C1902 1.391 . S
H1904 C1912 0.950 . S
H1905 C1917 0.950 . S
H1906 C1914 0.950 . S
H1907 C1916 0.950 . S
H1908 C1918 0.950 . S
H1909 C1920 0.950 . S
H1910 C1922 0.950 . S
H1911 C1923 0.950 . S
C1912 H1904 0.950 . S
C1912 C1913 1.386 1_556 S
C1912 C1914 1.391 . S
C1913 C1912 1.386 1_554 S
C1913 C1917 1.393 . S
C1914 H1906 0.950 . S
C1914 C1912 1.391 . S
C1914 C1915 1.400 1_556 S
C1915 C1914 1.400 1_554 S
C1915 C1916 1.398 . S
C1915 C1921 1.491 1_654 S
C1916 H1907 0.950 . S
C1916 C1915 1.398 . S
C1916 C1917 1.391 . S
C1917 H1905 0.950 . S
C1917 C1913 1.393 . S
C1917 C1916 1.391 . S
C1918 H1908 0.950 . S
C1918 C1919 1.386 1_554 S
C1918 C1920 1.391 . S
C1919 C1918 1.386 1_556 S
C1919 C1923 1.393 . S
C1920 H1909 0.950 . S
C1920 C1918 1.391 . S
C1920 C1921 1.400 1_554 S
C1921 C1915 1.491 1_456 S
C1921 C1920 1.400 1_556 S
C1921 C1922 1.398 . S
C1922 H1910 0.950 . S
C1922 C1921 1.398 . S
C1922 C1923 1.391 . S
C1923 H1911 0.950 . S
C1923 C1919 1.393 . S
C1923 C1922 1.391 . S
H1924 C1932 0.950 . S
H1925 C1937 0.950 . S
H1926 C1934 0.950 . S
H1927 C1936 0.950 . S
H1928 C1938 0.950 . S
H1929 C1940 0.950 . S
H1930 C1942 0.950 . S
H1931 C1943 0.950 . S
C1932 H1924 0.950 . S
C1932 C1933 1.386 1_556 S
C1932 C1934 1.391 . S
C1933 C1932 1.386 1_554 S
C1933 C1937 1.393 . S
C1934 H1926 0.950 . S
C1934 C1932 1.391 . S
C1934 C1935 1.400 1_556 S
C1935 C1934 1.400 1_554 S
C1935 C1936 1.398 . S
C1935 C1941 1.491 1_554 S
C1936 H1927 0.950 . S
C1936 C1935 1.398 . S
C1936 C1937 1.391 . S
C1937 H1925 0.950 . S
C1937 C1933 1.393 . S
C1937 C1936 1.391 . S
C1938 H1928 0.950 . S
C1938 C1939 1.386 1_554 S
C1938 C1940 1.391 . S
C1939 C1938 1.386 1_556 S
C1939 C1943 1.393 . S
C1940 H1929 0.950 . S
C1940 C1938 1.391 . S
C1940 C1941 1.400 1_554 S
C1941 C1935 1.491 1_556 S
C1941 C1940 1.400 1_556 S
C1941 C1942 1.398 . S
C1942 H1930 0.950 . S
C1942 C1941 1.398 . S
C1942 C1943 1.391 . S
C1943 H1931 0.950 . S
C1943 C1939 1.393 . S
C1943 C1942 1.391 . S
C513 C147 1.186 . S
C519 C3 1.176 . S
C533 C161 1.197 . S
C539 C17 1.148 . S
C553 C31 1.155 . S
C559 C133 1.197 . S
C573 C45 1.178 . S
C579 C119 1.183 . S
C593 C59 1.161 . S
C599 C91 1.187 . S
C613 C105 1.182 . S
C619 C73 1.172 . S
C633 C63 1.190 . S
C639 C87 1.170 . S
C653 C77 1.195 . S
C659 C101 1.160 . S
C673 C115 1.148 . S
C679 C49 1.197 . S
C693 C35 1.197 . S
C699 C129 1.149 . S
C713 C143 1.153 . S
C719 C7 1.197 . S
C733 C157 1.175 . S
C739 C21 1.187 . S
C753 C315 1.184 . S
C759 C171 1.178 . S
C773 C329 1.191 . S
C779 C185 1.153 . S
C793 C199 1.178 . S
C799 C301 1.182 . S
C813 C213 1.175 . S
C819 C287 1.187 . S
C833 C227 1.154 . S
C839 C259 1.197 . S
C853 C241 1.177 . S
C859 C273 1.182 . S
C873 C231 1.197 . S
C879 C255 1.148 . S
C893 C245 1.188 . S
C899 C269 1.158 . S
C913 C217 1.195 . S
C919 C283 1.162 . S
C933 C203 1.182 . S
C939 C297 1.176 . S
C953 C175 1.183 . S
C959 C311 1.179 . S
C973 C189 1.187 . S
C979 C325 1.175 . S
C993 C339 1.168 . S
C999 C483 1.184 . S
C1013 C497 1.192 . S
C1019 C353 1.152 . S
C1033 C469 1.197 . S
C1039 C367 1.148 . S
C1053 C381 1.171 . S
C1059 C455 1.183 . S
C1073 C395 1.159 . S
C1079 C427 1.188 . S
C1093 C409 1.178 . S
C1099 C441 1.183 . S
C1113 C399 1.192 . S
C1119 C423 1.152 . S
C1133 C413 1.192 . S
C1139 C437 1.166 . S
C1153 C385 1.187 . S
C1159 C451 1.161 . S
C1173 C465 1.177 . S
C1179 C371 1.182 . S
C1193 C343 1.191 . S
C1199 C479 1.168 . S
C1213 C493 1.157 . S
C1219 C357 1.189 . S
C1233 C50 1.518 . S
C1239 C8 1.522 . S
C1253 C64 1.521 . S
C1259 C22 1.523 . S
C1273 C36 1.518 . S
C1279 C78 1.522 . S
C1293 C134 1.522 . S
C1299 C92 1.522 . S
C1313 C148 1.521 . S
C1319 C106 1.523 . S
C1333 C162 1.519 . S
C1339 C120 1.523 . S
C1353 C218 1.521 . S
C1359 C176 1.518 . S
C1373 C232 1.518 . S
C1379 C190 1.522 . S
C1393 C204 1.521 . S
C1399 C246 1.518 . S
C1413 C260 1.519 . S
C1419 C302 1.521 . S
C1433 C316 1.522 . S
C1439 C274 1.522 . S
C1453 C288 1.521 . S
C1459 C330 1.519 . S
C1473 C386 1.521 . S
C1479 C344 1.522 . S
C1493 C400 1.523 . S
C1499 C358 1.519 . S
C1513 C372 1.518 . S
C1519 C414 1.523 . S
C1533 C428 1.523 . S
C1539 C470 1.519 . S
C1553 C442 1.520 . S
C1559 C484 1.523 . S
C1573 C456 1.523 . S
C1579 C498 1.519 . S
C1593 C9 1.497 . S
C1599 C261 1.497 . S
C1613 C275 1.485 . S
C1619 C23 1.485 . S
C1633 C289 1.490 . S
C1639 C37 1.490 . S
C1653 C471 1.497 . S
C1659 C51 1.497 . S
C1673 C485 1.485 . S
C1679 C65 1.485 . S
C1693 C499 1.486 . S
C1699 C79 1.486 . S
C1713 C93 1.501 . S
C1719 C345 1.501 . S
C1733 C359 1.499 . S
C1739 C107 1.499 . S
C1753 C373 1.498 . S
C1759 C121 1.498 . S
C1773 C135 1.501 . S
C1779 C219 1.501 . S
C1793 C149 1.498 . S
C1799 C233 1.498 . S
C1813 C163 1.500 . S
C1819 C247 1.500 . S
C1833 C429 1.484 . S
C1839 C177 1.484 . S
C1853 C443 1.496 . S
C1859 C191 1.496 . S
C1873 C205 1.499 . S
C1879 C457 1.499 . S
C1893 C303 1.500 . S
C1899 C387 1.500 . S
C1913 C317 1.486 . S
C1919 C401 1.486 . S
C1933 C331 1.491 . S
C1939 C415 1.491 . S
