# Generated by pormake.
# Topology wme, (6)-cn, num edge types: 1
# Building blocks:
#     Node 0, Type 0, BuildingBlock: BETGAK_clean_sbu_0, # of connection points: 6
#     Node 1, Type 0, BuildingBlock: BETGAK_clean_sbu_0, # of connection points: 6
#     Node 2, Type 0, BuildingBlock: BETGAK_clean_sbu_0, # of connection points: 6
#     Node 3, Type 0, BuildingBlock: BETGAK_clean_sbu_0, # of connection points: 6
#     Node 4, Type 0, BuildingBlock: BETGAK_clean_sbu_0, # of connection points: 6
#     Node 5, Type 0, BuildingBlock: BETGAK_clean_sbu_0, # of connection points: 6
#     Node 6, Type 0, BuildingBlock: BETGAK_clean_sbu_0, # of connection points: 6
#     Node 7, Type 0, BuildingBlock: BETGAK_clean_sbu_0, # of connection points: 6
#     Node 8, Type 0, BuildingBlock: BETGAK_clean_sbu_0, # of connection points: 6
#     Node 9, Type 0, BuildingBlock: BETGAK_clean_sbu_0, # of connection points: 6
#     Node 10, Type 0, BuildingBlock: BETGAK_clean_sbu_0, # of connection points: 6
#     Node 11, Type 0, BuildingBlock: BETGAK_clean_sbu_0, # of connection points: 6
#     Edge 12, Type (0, 0), BuildingBlock: CIFDUS_clean_linker_0, # of connection points: 2
#     Edge 13, Type (0, 0), BuildingBlock: CIFDUS_clean_linker_0, # of connection points: 2
#     Edge 14, Type (0, 0), BuildingBlock: CIFDUS_clean_linker_0, # of connection points: 2
#     Edge 15, Type (0, 0), BuildingBlock: CIFDUS_clean_linker_0, # of connection points: 2
#     Edge 16, Type (0, 0), BuildingBlock: CIFDUS_clean_linker_0, # of connection points: 2
#     Edge 17, Type (0, 0), BuildingBlock: CIFDUS_clean_linker_0, # of connection points: 2
#     Edge 18, Type (0, 0), BuildingBlock: CIFDUS_clean_linker_0, # of connection points: 2
#     Edge 19, Type (0, 0), BuildingBlock: CIFDUS_clean_linker_0, # of connection points: 2
#     Edge 20, Type (0, 0), BuildingBlock: CIFDUS_clean_linker_0, # of connection points: 2
#     Edge 21, Type (0, 0), BuildingBlock: CIFDUS_clean_linker_0, # of connection points: 2
#     Edge 22, Type (0, 0), BuildingBlock: CIFDUS_clean_linker_0, # of connection points: 2
#     Edge 23, Type (0, 0), BuildingBlock: CIFDUS_clean_linker_0, # of connection points: 2
#     Edge 24, Type (0, 0), BuildingBlock: CIFDUS_clean_linker_0, # of connection points: 2
#     Edge 25, Type (0, 0), BuildingBlock: CIFDUS_clean_linker_0, # of connection points: 2
#     Edge 26, Type (0, 0), BuildingBlock: CIFDUS_clean_linker_0, # of connection points: 2
#     Edge 27, Type (0, 0), BuildingBlock: CIFDUS_clean_linker_0, # of connection points: 2
#     Edge 28, Type (0, 0), BuildingBlock: CIFDUS_clean_linker_0, # of connection points: 2
#     Edge 29, Type (0, 0), BuildingBlock: CIFDUS_clean_linker_0, # of connection points: 2
#     Edge 30, Type (0, 0), BuildingBlock: CIFDUS_clean_linker_0, # of connection points: 2
#     Edge 31, Type (0, 0), BuildingBlock: CIFDUS_clean_linker_0, # of connection points: 2
#     Edge 32, Type (0, 0), BuildingBlock: CIFDUS_clean_linker_0, # of connection points: 2
#     Edge 33, Type (0, 0), BuildingBlock: CIFDUS_clean_linker_0, # of connection points: 2
#     Edge 34, Type (0, 0), BuildingBlock: CIFDUS_clean_linker_0, # of connection points: 2
#     Edge 35, Type (0, 0), BuildingBlock: CIFDUS_clean_linker_0, # of connection points: 2
#     Edge 36, Type (0, 0), BuildingBlock: CIFDUS_clean_linker_0, # of connection points: 2
#     Edge 37, Type (0, 0), BuildingBlock: CIFDUS_clean_linker_0, # of connection points: 2
#     Edge 38, Type (0, 0), BuildingBlock: CIFDUS_clean_linker_0, # of connection points: 2
#     Edge 39, Type (0, 0), BuildingBlock: CIFDUS_clean_linker_0, # of connection points: 2
#     Edge 40, Type (0, 0), BuildingBlock: CIFDUS_clean_linker_0, # of connection points: 2
#     Edge 41, Type (0, 0), BuildingBlock: CIFDUS_clean_linker_0, # of connection points: 2
#     Edge 42, Type (0, 0), BuildingBlock: CIFDUS_clean_linker_0, # of connection points: 2
#     Edge 43, Type (0, 0), BuildingBlock: CIFDUS_clean_linker_0, # of connection points: 2
#     Edge 44, Type (0, 0), BuildingBlock: CIFDUS_clean_linker_0, # of connection points: 2
#     Edge 45, Type (0, 0), BuildingBlock: CIFDUS_clean_linker_0, # of connection points: 2
#     Edge 46, Type (0, 0), BuildingBlock: CIFDUS_clean_linker_0, # of connection points: 2
#     Edge 47, Type (0, 0), BuildingBlock: CIFDUS_clean_linker_0, # of connection points: 2
# Relax obj value: 0.108
# Max RMSD: 0.216
# Mean RMSD: 0.216
data_MOF--net-wme--node1-BETGAK_clean_sbu_0--edge1-CIFDUS_clean_linker_0
_symmetry_space_group_name_H-M    P1
_symmetry_Int_Tables_number       1
_symmetry_cell_setting            triclinic
loop_
_symmetry_equiv_pos_as_xyz
'x, y, z'
_cell_length_a     36.115842
_cell_length_b     36.282561
_cell_length_c     43.580775
_cell_angle_alpha  90.286457
_cell_angle_beta   90.431585
_cell_angle_gamma 119.72145
loop_
_atom_site_label
_atom_site_type_symbol
_atom_site_fract_x
_atom_site_fract_y
_atom_site_fract_z
_atom_type_partial_charge
La0 La 0.24532 0.38489 0.13511 0.0
La1 La 0.28769 0.33381 0.15453 0.0
C2 C 0.22272 0.43982 0.13745 0.0
C3 C 0.21041 0.4729 0.14079 0.0
C4 C 0.1898 0.48197 0.11695 0.0
C5 C 0.18096 0.51538 0.12012 0.0
C6 C 0.1928 0.54021 0.14713 0.0
C7 C 0.21176 0.5298 0.17132 0.0
C8 C 0.22044 0.49661 0.1682 0.0
C9 C 0.26232 0.34676 0.09039 0.0
C10 C 0.34767 0.43036 0.14223 0.0
C11 C 0.30636 0.27573 0.1577 0.0
C12 C 0.28083 0.22878 0.15786 0.0
C13 C 0.2828 0.20652 0.18345 0.0
C14 C 0.25919 0.16219 0.18399 0.0
C15 C 0.2335 0.13894 0.15869 0.0
C16 C 0.23078 0.16141 0.13339 0.0
C17 C 0.25401 0.20577 0.13307 0.0
C18 C 0.27155 0.3724 0.19925 0.0
C19 C 0.1856 0.28983 0.14806 0.0
O20 O 0.21076 0.41221 0.11474 0.0
O21 O 0.24768 0.43654 0.15787 0.0
O22 O 0.23233 0.35659 0.08861 0.0
O23 O 0.28435 0.36376 0.11403 0.0
O24 O 0.31265 0.43295 0.13806 0.0
O25 O 0.3466 0.39373 0.14704 0.0
O26 O 0.30244 0.29515 0.1818 0.0
O27 O 0.30695 0.29486 0.13209 0.0
O28 O 0.30378 0.36584 0.19923 0.0
O29 O 0.24857 0.35467 0.17592 0.0
O30 O 0.21982 0.28518 0.14698 0.0
O31 O 0.18898 0.32773 0.14831 0.0
H32 H 0.1815 0.46401 0.09564 0.0
H33 H 0.16647 0.52285 0.10107 0.0
H34 H 0.22066 0.54795 0.19257 0.0
H35 H 0.23575 0.49004 0.1872 0.0
H36 H 0.3028 0.22344 0.20305 0.0
H37 H 0.26144 0.14615 0.20421 0.0
H38 H 0.21178 0.1448 0.11335 0.0
H39 H 0.25128 0.22189 0.11322 0.0
La40 La 0.90124 0.23204 0.63998 0.0
La41 La 0.99146 0.26924 0.66454 0.0
C42 C 0.82208 0.20255 0.63102 0.0
C43 C 0.78214 0.19996 0.64236 0.0
C44 C 0.77075 0.23044 0.63411 0.0
C45 C 0.73047 0.22464 0.64134 0.0
C46 C 0.70037 0.18805 0.6568 0.0
C47 C 0.71194 0.15778 0.6653 0.0
C48 C 0.75227 0.16364 0.65814 0.0
C49 C 0.9634 0.26875 0.59898 0.0
C50 C 0.94776 0.32465 0.66695 0.0
C51 C 0.06946 0.29085 0.66474 0.0
C52 C 0.09733 0.27236 0.66973 0.0
C53 C 0.13875 0.29828 0.68118 0.0
C54 C 0.16877 0.28464 0.67999 0.0
C55 C 0.15808 0.2449 0.66697 0.0
C56 C 0.11567 0.21783 0.6574 0.0
C57 C 0.08558 0.23139 0.65882 0.0
C58 C 0.93548 0.24419 0.70789 0.0
C59 C 0.9377 0.17031 0.6441 0.0
O60 O 0.85163 0.23817 0.61926 0.0
O61 O 0.8384 0.18355 0.64705 0.0
O62 O 0.92624 0.23654 0.59264 0.0
O63 O 0.96282 0.27963 0.626 0.0
O64 O 0.91134 0.28827 0.66547 0.0
O65 O 0.98485 0.32633 0.66167 0.0
O66 O 0.0506 0.29651 0.68846 0.0
O67 O 1.04409 0.27591 0.64082 0.0
O68 O 0.97479 0.27452 0.7109 0.0
O69 O 0.92983 0.22558 0.682 0.0
O70 O 0.97298 0.20215 0.65617 0.0
O71 O 0.90518 0.17487 0.63561 0.0
H72 H 0.79249 0.25829 0.62133 0.0
H73 H 0.72248 0.24834 0.63399 0.0
H74 H 0.68978 0.12946 0.67745 0.0
H75 H 0.75966 0.1391 0.66433 0.0
H76 H 0.14852 0.32996 0.68967 0.0
H77 H 0.20084 0.3059 0.68831 0.0
H78 H 0.10625 0.18713 0.64716 0.0
H79 H 0.05382 0.21071 0.64973 0.0
La80 La 0.68441 0.87942 0.14816 0.0
La81 La 0.74597 0.96636 0.1734 0.0
C82 C 0.6283 0.80311 0.1418 0.0
C83 C 0.59526 0.75805 0.13831 0.0
C84 C 0.57532 0.7421 0.10976 0.0
C85 C 0.5442 0.69943 0.10638 0.0
C86 C 0.53209 0.67178 0.13153 0.0
C87 C 0.55267 0.68766 0.15998 0.0
C88 C 0.584 0.73035 0.16332 0.0
C89 C 0.71433 0.94216 0.10792 0.0
C90 C 0.64901 0.93686 0.17504 0.0
C91 C 0.80718 0.04122 0.17773 0.0
C92 C 0.85378 0.06462 0.18236 0.0
C93 C 0.87162 0.09863 0.20326 0.0
C94 C 0.91541 0.12708 0.20337 0.0
C95 C 0.94208 0.12237 0.18221 0.0
C96 C 0.92464 0.08628 0.16302 0.0
C97 C 0.88086 0.05755 0.16315 0.0
C98 C 0.71285 0.90771 0.21514 0.0
C99 C 0.77998 0.90523 0.14657 0.0
O100 O 0.6346 0.83188 0.12129 0.0
O101 O 0.65299 0.81772 0.16615 0.0
O102 O 0.70482 0.90358 0.10099 0.0
O103 O 0.7046 0.94302 0.13524 0.0
O104 O 0.64231 0.89787 0.1711 0.0
O105 O 0.68741 0.97052 0.17156 0.0
O106 O 0.7832 1.02068 0.20104 0.0
O107 O 0.79356 1.01981 0.15201 0.0
O108 O 0.72328 0.94711 0.21948 0.0
O109 O 0.72423 0.90314 0.1886 0.0
O110 O 0.78891 0.94232 0.15891 0.0
O111 O 0.74066 0.87478 0.14118 0.0
H112 H 0.5838 0.76258 0.08999 0.0
H113 H 0.52946 0.6881 0.08401 0.0
H114 H 0.54375 0.6674 0.1799 0.0
H115 H 0.599 0.74179 0.1856 0.0
H116 H 0.8514 0.10457 0.21836 0.0
H117 H 0.92808 0.15403 0.21898 0.0
H118 H 0.94421 0.08172 0.14642 0.0
H119 H 0.868 0.03131 0.1469 0.0
La120 La 0.85193 0.67245 0.63998 0.0
La121 La 0.81717 0.72873 0.6627 0.0
C122 C 0.87396 0.61705 0.63786 0.0
C123 C 0.88737 0.58459 0.63933 0.0
C124 C 0.8985 0.5704 0.61279 0.0
C125 C 0.91273 0.54083 0.61486 0.0
C126 C 0.91631 0.52505 0.64357 0.0
C127 C 0.9054 0.53971 0.67005 0.0
C128 C 0.89105 0.56897 0.66795 0.0
C129 C 0.83696 0.71564 0.59775 0.0
C130 C 0.75165 0.63183 0.65126 0.0
C131 C 0.7993 0.78761 0.66576 0.0
C132 C 0.81997 0.83348 0.65836 0.0
C133 C 0.83845 0.86426 0.68182 0.0
C134 C 0.85496 0.90738 0.67548 0.0
C135 C 0.853 0.92072 0.64556 0.0
C136 C 0.83541 0.89 0.62196 0.0
C137 C 0.81906 0.84693 0.62827 0.0
C138 C 0.83028 0.68599 0.70581 0.0
C139 C 0.9182 0.7655 0.65639 0.0
O140 O 0.88053 0.64258 0.61476 0.0
O141 O 0.85356 0.62187 0.66087 0.0
O142 O 0.86758 0.70672 0.59586 0.0
O143 O 0.8153 0.69808 0.62098 0.0
O144 O 0.78397 0.62665 0.64295 0.0
O145 O 0.75612 0.66931 0.659 0.0
O146 O 0.81529 0.77671 0.68878 0.0
O147 O 0.78853 0.76091 0.64263 0.0
O148 O 0.80079 0.69658 0.70682 0.0
O149 O 0.85274 0.70247 0.68242 0.0
O150 O 0.88643 0.77419 0.65524 0.0
O151 O 0.91059 0.72608 0.65516 0.0
H152 H 0.89617 0.5821 0.59045 0.0
H153 H 0.92039 0.52994 0.59395 0.0
H154 H 0.90849 0.52901 0.69259 0.0
H155 H 0.88341 0.57985 0.68891 0.0
H156 H 0.83924 0.85495 0.70529 0.0
H157 H 0.86775 0.9301 0.69426 0.0
H158 H 0.83375 0.89922 0.59861 0.0
H159 H 0.80494 0.82417 0.60961 0.0
La160 La 0.20632 0.83299 0.13365 0.0
La161 La 0.1086 0.79521 0.15007 0.0
C162 C 0.28395 0.85563 0.13269 0.0
C163 C 0.3302 0.87056 0.13388 0.0
C164 C 0.34961 0.85758 0.11183 0.0
C165 C 0.39344 0.87185 0.11365 0.0
C166 C 0.4186 0.89924 0.13764 0.0
C167 C 0.39904 0.91233 0.1595 0.0
C168 C 0.35543 0.89819 0.15765 0.0
C169 C 0.15094 0.81729 0.08842 0.0
C170 C 0.14737 0.73451 0.14814 0.0
C171 C 1.03224 0.77543 0.14079 0.0
C172 C 1.00585 0.79456 0.14859 0.0
C173 C 0.96154 0.77074 0.14492 0.0
C174 C 0.93656 0.79005 0.14843 0.0
C175 C 0.95556 0.83371 0.1554 0.0
C176 C 0.99994 0.85709 0.16022 0.0
C177 C 1.02483 0.83766 0.15691 0.0
C178 C 0.15684 0.81661 0.20008 0.0
C179 C 0.17429 0.89619 0.15017 0.0
O180 O 0.25683 0.828 0.11269 0.0
O181 O 0.26697 0.87004 0.15242 0.0
O182 O 0.19 0.84857 0.08801 0.0
O183 O 0.14584 0.79654 0.1123 0.0
O184 O 0.18596 0.76868 0.14885 0.0
O185 O 0.11178 0.73669 0.1449 0.0
O186 O 1.04443 0.76002 0.1635 0.0
O187 O 0.0632 0.79771 0.12171 0.0
O188 O 0.11553 0.79925 0.20051 0.0
O189 O 0.16758 0.82031 0.17243 0.0
O190 O 0.13392 0.86488 0.14867 0.0
O191 O 0.20717 0.89021 0.14682 0.0
H192 H 0.33094 0.83627 0.0933 0.0
H193 H 0.40748 0.8608 0.09662 0.0
H194 H 0.41752 0.93379 0.17802 0.0
H195 H 0.34149 0.90889 0.17502 0.0
H196 H 0.94634 0.73746 0.13852 0.0
H197 H 0.90237 0.77087 0.14522 0.0
H198 H 1.01567 0.89075 0.16541 0.0
H199 H 0.05904 0.85668 0.15983 0.0
La200 La 0.41439 0.18327 0.64292 0.0
La201 La 0.35847 0.09473 0.66766 0.0
C202 C 0.46877 0.26053 0.6379 0.0
C203 C 0.50026 0.30645 0.63568 0.0
C204 C 0.53328 0.32118 0.61428 0.0
C205 C 0.56331 0.36449 0.61263 0.0
C206 C 0.56086 0.39438 0.63212 0.0
C207 C 0.5275 0.37942 0.65344 0.0
C208 C 0.49773 0.33604 0.65527 0.0
C209 C 0.38455 0.12014 0.60183 0.0
C210 C 0.45677 0.13027 0.66802 0.0
C211 C 0.29608 1.0203 0.67062 0.0
C212 C 0.24919 1.00133 0.67325 0.0
C213 C 0.22738 0.97244 0.69665 0.0
C214 C 0.18274 0.95061 0.69721 0.0
C215 C 0.15881 0.95672 0.67408 0.0
C216 C 0.18082 0.98736 0.65159 0.0
C217 C 0.22542 1.00945 0.65121 0.0
C218 C 0.39288 0.15303 0.71015 0.0
C219 C 0.31808 0.1537 0.64693 0.0
O220 O 0.46524 0.23183 0.61788 0.0
O221 O 0.44178 0.24539 0.66049 0.0
O222 O 0.39122 0.158 0.59572 0.0
O223 O 0.39663 0.12037 0.62879 0.0
O224 O 0.45957 0.16788 0.66489 0.0
O225 O 0.41934 0.0945 0.66547 0.0
O226 O 0.31989 0.04077 0.69451 0.0
O227 O 0.31234 0.04026 0.64511 0.0
O228 O 0.38421 0.11396 0.7134 0.0
O229 O 0.37893 0.15726 0.68434 0.0
O230 O 0.31277 0.11693 0.65697 0.0
O231 O 0.35594 0.18536 0.63999 0.0
H232 H 0.53624 0.29916 0.599 0.0
H233 H 0.58889 0.37435 0.59632 0.0
H234 H 0.52395 0.40121 0.66856 0.0
H235 H 0.47254 0.32571 0.67199 0.0
H236 H 0.24482 0.96579 0.71403 0.0
H237 H 0.16695 0.928 0.71535 0.0
H238 H 0.16369 0.99284 0.63331 0.0
H239 H 0.24113 0.0318 0.6329 0.0
La240 La 0.70236 0.84292 0.44436 0.0
La241 La 0.7495 0.79206 0.42553 0.0
C242 C 0.65512 0.87543 0.45112 0.0
C243 C 0.61678 0.87615 0.43922 0.0
C244 C 0.57536 0.84361 0.44592 0.0
C245 C 0.53978 0.84736 0.43772 0.0
C246 C 0.54459 0.88381 0.4227 0.0
C247 C 0.58604 0.91607 0.41568 0.0
C248 C 0.62163 0.9123 0.42388 0.0
C249 C 0.74142 0.82346 0.48798 0.0
C250 C 0.64979 0.74476 0.42603 0.0
C251 C 0.79735 0.76056 0.43222 0.0
C252 C 0.84369 0.77694 0.42895 0.0
C253 C 0.85809 0.75184 0.41456 0.0
C254 C 0.90176 0.76566 0.41313 0.0
C255 C 0.93208 0.80484 0.42631 0.0
C256 C 0.91754 0.83054 0.43988 0.0
C257 C 0.87388 0.81682 0.44112 0.0
C258 C 0.72484 0.81758 0.37664 0.0
C259 C 0.79791 0.89387 0.42504 0.0
O260 O 0.64987 0.84171 0.46589 0.0
O261 O 0.68899 0.89159 0.43375 0.0
O262 O 0.73635 0.85634 0.48913 0.0
O263 O 0.72121 0.80158 0.4651 0.0
O264 O 0.65176 0.78231 0.42661 0.0
O265 O 0.68383 0.73994 0.42937 0.0
O266 O 0.77521 0.75575 0.40703 0.0
O267 O 0.78632 0.77719 0.45459 0.0
O268 O 0.74387 0.79519 0.37535 0.0
O269 O 0.72101 0.82382 0.40453 0.0
O270 O 0.80123 0.85904 0.42758 0.0
O271 O 0.76139 0.89366 0.42773 0.0
H272 H 0.57036 0.81563 0.45816 0.0
H273 H 0.50846 0.8221 0.44397 0.0
H274 H 0.59104 0.94434 0.40386 0.0
H275 H 0.65314 0.93822 0.41878 0.0
H276 H 0.83549 0.72117 0.40481 0.0
H277 H 0.91174 0.74538 0.40191 0.0
H278 H 0.93977 0.86068 0.45047 0.0
H279 H 0.86378 0.83709 0.45221 0.0
La280 La 0.88402 0.67343 0.93864 0.0
La281 La 0.98019 0.72272 0.91678 0.0
C282 C 0.80531 0.62558 0.94706 0.0
C283 C 0.76726 0.58465 0.93837 0.0
C284 C 0.76041 0.54604 0.95065 0.0
C285 C 0.72155 0.50864 0.94573 0.0
C286 C 0.68853 0.50893 0.92849 0.0
C287 C 0.69592 0.54739 0.91556 0.0
C288 C 0.73473 0.58477 0.92052 0.0
C289 C 0.9448 0.71533 0.98027 0.0
C290 C 0.93278 0.62302 0.92084 0.0
C291 C 0.05938 0.77203 0.92065 0.0
C292 C 0.0875 0.81839 0.91779 0.0
C293 C 0.12599 0.83399 0.90209 0.0
C294 C 0.15474 0.87759 0.90137 0.0
C295 C 0.14585 0.9066 0.91668 0.0
C296 C 0.10631 0.89102 0.93122 0.0
C297 C 0.07736 0.84735 0.93168 0.0
C298 C 0.92648 0.69558 0.86953 0.0
C299 C 0.92429 0.76906 0.92101 0.0
O300 O 0.83517 0.62485 0.96401 0.0
O301 O 0.82098 0.65536 0.92624 0.0
O302 O 0.90627 0.70875 0.98265 0.0
O303 O 0.94606 0.69495 0.95744 0.0
O304 O 0.89604 0.62285 0.92351 0.0
O305 O 0.97052 0.65852 0.92089 0.0
O306 O 1.04032 0.75075 0.89556 0.0
O307 O 1.03395 0.75949 0.94422 0.0
O308 O 0.9677 0.71536 0.86701 0.0
O309 O 0.91844 0.69225 0.89769 0.0
O310 O 0.96299 0.77308 0.92089 0.0
O311 O 0.88903 0.7322 0.9242 0.0
H312 H 0.78452 0.54485 0.96487 0.0
H313 H 0.71689 0.47976 0.95637 0.0
H314 H 0.67153 0.54874 0.9018 0.0
H315 H 0.73884 0.61411 0.91106 0.0
H316 H 0.13428 0.81235 0.89093 0.0
H317 H 0.18447 0.88854 0.88935 0.0
H318 H 0.09845 0.91234 0.94332 0.0
H319 H 1.04757 0.83626 0.94364 0.0
La320 La 0.25501 0.87567 0.42981 0.0
La321 La 0.28506 0.96391 0.4053 0.0
C322 C 0.23219 0.79835 0.43308 0.0
C323 C 0.21886 0.75265 0.43416 0.0
C324 C 0.20532 0.73018 0.46172 0.0
C325 C 0.19147 0.68668 0.46239 0.0
C326 C 0.19081 0.66465 0.4355 0.0
C327 C 0.20385 0.68713 0.40786 0.0
C328 C 0.21773 0.73062 0.4072 0.0
C329 C 0.2908 0.93902 0.47098 0.0
C330 C 0.3507 0.93007 0.40685 0.0
C331 C 0.30147 0.04 0.40104 0.0
C332 C 0.27897 0.06371 0.39467 0.0
C333 C 0.30236 0.10639 0.38622 0.0
C334 C 0.28294 0.1315 0.38554 0.0
C335 C 0.23977 0.11434 0.39342 0.0
C336 C 0.21582 0.07093 0.40013 0.0
C337 C 0.23535 0.04592 0.40078 0.0
C338 C 0.25852 0.90461 0.36305 0.0
C339 C 0.18631 0.90346 0.42542 0.0
O340 O 0.2323 0.82052 0.45697 0.0
O341 O 0.24653 0.82034 0.40793 0.0
O342 O 0.26205 0.90055 0.47777 0.0
O343 O 0.30017 0.93889 0.44354 0.0
O344 O 0.31756 0.8921 0.41192 0.0
O345 O 0.34696 0.9649 0.40785 0.0
O346 O 0.30612 1.01889 0.37833 0.0
O347 O 0.29026 1.01807 0.42632 0.0
O348 O 0.28831 0.94359 0.35919 0.0
O349 O 0.24219 0.90108 0.38922 0.0
O350 O 0.21761 0.94206 0.41832 0.0
O351 O 0.19343 0.87141 0.42825 0.0
H352 H 0.20532 0.74615 0.48278 0.0
H353 H 0.18125 0.67027 0.48403 0.0
H354 H 0.20435 0.67135 0.38683 0.0
H355 H 0.22764 0.74699 0.38552 0.0
H356 H 0.33609 0.12078 0.38146 0.0
H357 H 0.30206 0.16474 0.3798 0.0
H358 H 0.18264 0.05683 0.40651 0.0
H359 H 0.217 1.01322 0.40755 0.0
La360 La 0.40045 0.21992 0.94124 0.0
La361 La 0.3489 0.25855 0.91759 0.0
C362 C 0.45149 0.19267 0.95206 0.0
C363 C 0.48974 0.19256 0.94011 0.0
C364 C 0.48501 0.15572 0.92565 0.0
C365 C 0.52064 0.15273 0.91709 0.0
C366 C 0.56204 0.18639 0.92305 0.0
C367 C 0.5668 0.22369 0.93695 0.0
C368 C 0.53105 0.22673 0.94543 0.0
C369 C 0.3601 0.23999 0.98294 0.0
C370 C 0.44746 0.31658 0.92321 0.0
C371 C 0.29254 0.27996 0.91222 0.0
C372 C 0.24532 0.25768 0.91421 0.0
C373 C 0.22052 0.24987 0.88742 0.0
C374 C 0.17601 0.22934 0.88885 0.0
C375 C 0.15516 0.21641 0.91716 0.0
C376 C 0.17999 0.22413 0.94398 0.0
C377 C 0.22453 0.24449 0.94255 0.0
C378 C 0.38933 0.2424 0.87447 0.0
C379 C 0.30513 0.15771 0.92789 0.0
O380 O 0.45559 0.22768 0.96413 0.0
O381 O 0.41663 0.17238 0.93555 0.0
O382 O 0.36538 0.20736 0.98495 0.0
O383 O 0.3789 0.26035 0.95967 0.0
O384 O 0.44902 0.28089 0.92358 0.0
O385 O 0.41059 0.31634 0.92473 0.0
O386 O 0.30842 0.2697 0.88895 0.0
O387 O 0.31395 0.28429 0.93762 0.0
O388 O 0.38117 0.27345 0.87379 0.0
O389 O 0.3721 0.21986 0.89777 0.0
O390 O 0.29971 0.19127 0.92571 0.0
O391 O 0.34335 0.16202 0.93032 0.0
H392 H 0.45361 0.12864 0.92153 0.0
H393 H 0.51567 0.12381 0.90603 0.0
H394 H 0.59817 0.25008 0.94225 0.0
H395 H 0.53585 0.25539 0.95684 0.0
H396 H 0.23562 0.25995 0.8653 0.0
H397 H 0.15795 0.22452 0.86781 0.0
H398 H 0.16496 0.2143 0.96614 0.0
H399 H 0.24258 0.24998 0.96369 0.0
La400 La 0.20667 0.39282 0.43002 0.0
La401 La 0.11908 0.33257 0.40319 0.0
C402 C 0.28324 0.44957 0.43429 0.0
C403 C 0.32851 0.48325 0.43552 0.0
C404 C 0.35172 0.49457 0.46328 0.0
C405 C 0.39536 0.52447 0.46371 0.0
C406 C 0.41659 0.54355 0.43637 0.0
C407 C 0.39312 0.53211 0.40868 0.0
C408 C 0.34966 0.50242 0.40828 0.0
C409 C 0.14307 0.36026 0.47002 0.0
C410 C 0.14658 0.4297 0.40922 0.0
C411 C 1.04492 0.26977 0.3983 0.0
C412 C 1.02302 0.22359 0.39206 0.0
C413 C 0.99209 0.20641 0.36866 0.0
C414 C 0.96474 0.16258 0.36649 0.0
C415 C 0.96721 0.13508 0.38809 0.0
C416 C 1.00044 0.1521 0.40999 0.0
C417 C 1.02817 0.19588 0.41189 0.0
C418 C 0.17825 0.3703 0.3623 0.0
C419 C 0.18342 0.29834 0.42277 0.0
O420 O 0.26209 0.42682 0.45792 0.0
O421 O 0.26057 0.44127 0.40899 0.0
O422 O 0.18242 0.37239 0.47739 0.0
O423 O 0.14251 0.37043 0.44284 0.0
O424 O 0.18555 0.43688 0.41549 0.0
O425 O 0.11336 0.39043 0.40692 0.0
O426 O 0.06423 0.29578 0.37562 0.0
O427 O 0.0669 0.28238 0.4239 0.0
O428 O 0.13833 0.35886 0.35806 0.0
O429 O 0.18301 0.35691 0.38802 0.0
O430 O 0.14457 0.28947 0.41386 0.0
O431 O 0.21392 0.33757 0.42806 0.0
H432 H 0.33628 0.4801 0.48461 0.0
H433 H 0.41236 0.53293 0.48548 0.0
H434 H 0.40851 0.54561 0.38714 0.0
H435 H 0.3328 0.49394 0.38644 0.0
H436 H 0.98758 0.22702 0.35303 0.0
H437 H 0.9402 0.15045 0.3488 0.0
H438 H 1.00332 0.13204 0.42706 0.0
H439 H 0.05196 0.20805 0.4301 0.0
La440 La 0.84465 0.18546 0.93989 0.0
La441 La 0.81496 0.09985 0.91231 0.0
C442 C 0.86964 0.26217 0.95315 0.0
C443 C 0.87162 0.30224 0.94458 0.0
C444 C 0.90189 0.33938 0.95965 0.0
C445 C 0.90566 0.37851 0.95249 0.0
C446 C 0.87923 0.38147 0.92996 0.0
C447 C 0.84882 0.34403 0.91473 0.0
C448 C 0.8451 0.30464 0.92194 0.0
C449 C 0.81037 0.12076 0.97885 0.0
C450 C 0.75312 0.1365 0.91141 0.0
C451 C 0.79764 1.02375 0.9077 0.0
C452 C 0.81816 0.9984 0.9004 0.0
C453 C 0.79536 0.96113 0.883 0.0
C454 C 0.80945 0.93164 0.88136 0.0
C455 C 0.84634 0.93861 0.89749 0.0
C456 C 0.87107 0.97762 0.91282 0.0
C457 C 0.85716 1.00735 0.91421 0.0
C458 C 0.83871 0.15831 0.87077 0.0
C459 C 0.91193 0.15589 0.93672 0.0
O460 O 0.83312 0.23053 0.96196 0.0
O461 O 0.89119 0.24963 0.93629 0.0
O462 O 0.84057 0.15839 0.98629 0.0
O463 O 0.79933 0.12199 0.95193 0.0
O464 O 0.78807 0.17397 0.91389 0.0
O465 O 0.75477 0.10099 0.91536 0.0
O466 O 0.79103 0.04391 0.88534 0.0
O467 O 0.8109 0.04643 0.93295 0.0
O468 O 0.80912 0.11904 0.86699 0.0
O469 O 0.85688 0.16324 0.89685 0.0
O470 O 0.88283 0.12124 0.92224 0.0
O471 O 0.90378 0.18552 0.94619 0.0
H472 H 0.92262 0.33809 0.97721 0.0
H473 H 0.92878 0.40636 0.96514 0.0
H474 H 0.82811 0.34521 0.89714 0.0
H475 H 0.82169 0.27624 0.90995 0.0
H476 H 0.76536 0.95368 0.87208 0.0
H477 H 0.79022 0.90232 0.86872 0.0
H478 H 0.8996 0.98399 0.92548 0.0
H479 H 0.8756 0.0361 0.92764 0.0
H480 H 0.13166 0.93939 0.13492 0.0
H481 H 0.2421 0.95181 0.1834 0.0
H482 H 0.26873 1.02695 0.1914 0.0
H483 H 0.2648 0.09018 0.18091 0.0
H484 H 0.15497 0.081 0.13384 0.0
H485 H 0.12449 1.00404 0.12866 0.0
C486 C 0.16112 0.95856 0.14762 0.0
C487 C 0.18518 0.94014 0.15805 0.0
C488 C 0.17684 1.0025 0.15203 0.0
C489 C 0.22333 0.96531 0.17456 0.0
C490 C 0.23868 1.00838 0.17923 0.0
C491 C 0.23366 0.07148 0.17019 0.0
C492 C 0.21241 0.09165 0.15778 0.0
C493 C 0.21628 1.02748 0.16748 0.0
C494 C 0.1725 0.06654 0.14324 0.0
C495 C 0.15488 1.02241 0.14041 0.0
H496 H 0.31979 0.22823 0.63628 0.0
H497 H 0.23456 0.09802 0.66106 0.0
H498 H 0.17737 0.11444 0.66929 0.0
H499 H 0.15283 0.16698 0.67234 0.0
H500 H 0.2391 0.29691 0.64732 0.0
H501 H 0.29472 0.27942 0.63708 0.0
C502 C 0.28861 0.20318 0.64313 0.0
C503 C 0.28168 0.16191 0.64804 0.0
C504 C 0.25616 0.21299 0.64841 0.0
C505 C 0.24094 0.13006 0.65703 0.0
C506 C 0.20823 0.13949 0.66194 0.0
C507 C 0.18369 0.19141 0.66443 0.0
C508 C 0.19177 0.2334 0.6611 0.0
C509 C 0.21568 0.18104 0.65819 0.0
C510 C 0.23213 0.2646 0.65095 0.0
C511 C 0.26394 0.25455 0.64472 0.0
H512 H 1.01442 0.11752 0.17108 0.0
H513 H 0.96858 0.20654 0.18141 0.0
H514 H 1.03928 0.26516 0.17122 0.0
H515 H 0.11313 0.29143 0.15892 0.0
H516 H 0.16171 0.2048 0.14802 0.0
H517 H 0.09051 0.14479 0.15823 0.0
C518 C 1.02 0.14976 0.17109 0.0
C519 C 0.98625 0.15756 0.17749 0.0
C520 C 0.06097 0.18366 0.1648 0.0
C521 C 0.99405 0.19957 0.17743 0.0
C522 C 1.03441 0.23317 0.17124 0.0
C523 C 0.10842 0.25948 0.15861 0.0
C524 C 0.14277 0.25268 0.15265 0.0
C525 C 0.06795 0.22557 0.16484 0.0
C526 C 0.13579 0.21095 0.15251 0.0
C527 C 0.09513 0.17667 0.15843 0.0
H528 H 0.92431 0.992 0.66678 0.0
H529 H 0.81125 0.95121 0.61084 0.0
H530 H 0.82946 1.02483 0.60342 0.0
H531 H 0.8746 0.1003 0.61547 0.0
H532 H 0.98741 0.14207 0.6719 0.0
H533 H 0.97235 0.06874 0.67623 0.0
C534 C 0.90375 0.99928 0.65291 0.0
C535 C 0.86639 0.966 0.63945 0.0
C536 C 0.9143 0.04189 0.64884 0.0
C537 C 0.84041 0.97607 0.6212 0.0
C538 C 0.85065 1.01822 0.61709 0.0
C539 C 0.8962 0.09355 0.62852 0.0
C540 C 0.93195 0.1268 0.64351 0.0
C541 C 0.88716 0.05131 0.63115 0.0
C542 C 0.9597 0.11726 0.66006 0.0
C543 C 0.95095 0.07523 0.66271 0.0
H544 H 0.89085 0.82076 0.11681 0.0
H545 H 0.96184 0.89514 0.19577 0.0
H546 H 0.91716 0.92832 0.19771 0.0
H547 H 0.85397 0.93196 0.17925 0.0
H548 H 0.78136 0.85384 0.10212 0.0
H549 H 0.8305 0.82644 0.09722 0.0
C550 C 0.89639 0.84395 0.13465 0.0
C551 C 0.9293 0.85492 0.15636 0.0
C552 C 0.87025 0.86236 0.13591 0.0
C553 C 0.93676 0.88605 0.17873 0.0
C554 C 0.91112 0.90496 0.17992 0.0
C555 C 0.84954 0.90961 0.16104 0.0
C556 C 0.81412 0.8949 0.14109 0.0
C557 C 0.87734 0.89294 0.15888 0.0
C558 C 0.80834 0.86551 0.11781 0.0
C559 C 0.83632 0.8497 0.11505 0.0
H560 H 0.95809 0.85308 0.64896 0.0
H561 H 0.97991 0.752 0.67922 0.0
H562 H 0.05432 0.80185 0.68815 0.0
H563 H 0.11448 0.87259 0.68526 0.0
H564 H 0.09677 0.97634 0.6563 0.0
H565 H 1.02027 0.9272 0.6487 0.0
C566 C 0.97916 0.84219 0.65767 0.0
C567 C 0.96311 0.79857 0.66291 0.0
C568 C 1.02297 0.87143 0.66287 0.0
C569 C 0.99104 0.78509 0.67433 0.0
C570 C 1.03389 0.81365 0.67965 0.0
C571 C 0.09396 0.88491 0.67799 0.0
C572 C 0.1116 0.92826 0.67165 0.0
C573 C 0.0503 0.8567 0.67372 0.0
C574 C 0.08426 0.94304 0.66124 0.0
C575 C 1.0404 0.91494 0.65696 0.0
H576 H 0.11651 0.82672 0.43514 0.0
H577 H 0.15331 0.95741 0.41802 0.0
H578 H 0.07834 0.93872 0.41657 0.0
H579 H 1.00176 0.88435 0.41878 0.0
H580 H 0.96671 0.75411 0.4367 0.0
H581 H 1.04154 0.77358 0.43861 0.0
C582 C 0.10848 0.85142 0.43121 0.0
C583 C 0.14104 0.89363 0.42656 0.0
C584 C 0.06532 0.84033 0.4302 0.0
C585 C 0.12936 0.92478 0.42157 0.0
C586 C 0.08629 0.91401 0.42069 0.0
C587 C 1.01047 0.86026 0.42333 0.0
C588 C 0.97829 0.81763 0.42727 0.0
C589 C 0.05393 0.87177 0.42476 0.0
C590 C 0.99045 0.78693 0.43288 0.0
C591 C 1.03337 0.7981 0.43428 0.0
H592 H 0.13689 0.97788 0.91331 0.0
H593 H 0.23026 0.93794 0.92759 0.0
H594 H 0.2863 1.01134 0.93253 0.0
H595 H 0.30934 0.08593 0.93282 0.0
H596 H 0.21887 0.12954 0.91912 0.0
H597 H 0.16095 0.05542 0.91457 0.0
C598 C 0.16948 0.98531 0.91763 0.0
C599 C 0.17929 0.95218 0.91956 0.0
C600 C 0.202 1.02811 0.92075 0.0
C601 C 0.22176 0.96253 0.92515 0.0
C602 C 0.2539 1.00459 0.92829 0.0
C603 C 0.27704 0.07968 0.92884 0.0
C604 C 0.26865 0.11354 0.9262 0.0
C605 C 0.24441 0.03749 0.92603 0.0
C606 C 0.22634 0.1042 0.92123 0.0
C607 C 0.19326 0.06181 0.91856 0.0
H608 H 0.14027 0.21744 0.39831 0.0
H609 H 0.25527 0.30471 0.44778 0.0
H610 H 0.28226 0.25569 0.44291 0.0
H611 H 0.27547 0.18994 0.42286 0.0
H612 H 0.16149 0.10108 0.37367 0.0
H613 H 0.13176 0.14845 0.38047 0.0
C614 C 0.17093 0.2254 0.40838 0.0
C615 C 0.19579 0.265 0.42311 0.0
C616 C 0.18672 0.19696 0.40533 0.0
C617 C 0.2355 0.27473 0.43604 0.0
C618 C 0.25114 0.24673 0.43324 0.0
C619 C 0.24428 0.18108 0.41334 0.0
C620 C 0.2211 0.14249 0.39728 0.0
C621 C 0.22746 0.20821 0.41746 0.0
C622 C 0.18012 0.13083 0.38596 0.0
C623 C 0.16314 0.15791 0.38983 0.0
H624 H 0.10911 0.23277 0.95861 0.0
H625 H 0.09479 0.15559 0.87896 0.0
H626 H 1.01752 0.12671 0.87951 0.0
H627 H 0.95423 0.12682 0.90086 0.0
H628 H 0.97014 0.20611 0.97963 0.0
H629 H 1.04612 0.2298 0.98159 0.0
C630 C 0.08907 0.20908 0.94167 0.0
C631 C 0.10785 0.19652 0.91874 0.0
C632 C 1.04475 0.19288 0.94198 0.0
C633 C 0.08129 0.16627 0.89666 0.0
C634 C 1.03704 0.14957 0.89704 0.0
C635 C 0.97424 0.14866 0.91876 0.0
C636 C 0.95649 0.16471 0.94002 0.0
C637 C 1.01841 0.16309 0.91934 0.0
C638 C 0.98297 0.1934 0.96288 0.0
C639 C 1.02651 0.20709 0.964 0.0
H640 H 0.97218 0.06362 0.40245 0.0
H641 H 0.88248 0.106 0.3803 0.0
H642 H 0.8235 0.0351 0.38827 0.0
H643 H 0.79681 0.96278 0.40393 0.0
H644 H 0.88356 0.91787 0.42837 0.0
H645 H 0.94434 0.9883 0.41726 0.0
C646 C 0.93973 0.05727 0.39929 0.0
C647 C 0.93205 0.09032 0.39042 0.0
C648 C 0.90543 1.01617 0.4046 0.0
C649 C 0.88969 0.08129 0.38628 0.0
C650 C 0.85575 0.04074 0.39121 0.0
C651 C 0.82894 0.96811 0.40702 0.0
C652 C 0.83558 0.93518 0.41743 0.0
C653 C 0.86325 1.00823 0.40073 0.0
C654 C 0.87754 0.94274 0.42056 0.0
C655 C 0.91224 0.983 0.41424 0.0
H656 H 0.85021 0.77013 0.92145 0.0
H657 H 0.98572 0.85259 0.91071 0.0
H658 H 0.97388 0.91284 0.90205 0.0
H659 H 0.92404 0.9414 0.89686 0.0
H660 H 0.78911 0.85634 0.90866 0.0
H661 H 0.80196 0.79761 0.9171 0.0
C662 C 0.87747 0.80116 0.91723 0.0
C663 C 0.91885 0.80665 0.91665 0.0
C664 C 0.87043 0.83518 0.91214 0.0
C665 C 0.95349 0.84737 0.91127 0.0
C666 C 0.9467 0.88179 0.90626 0.0
C667 C 0.89754 0.90999 0.90127 0.0
C668 C 0.85555 0.90326 0.90152 0.0
C669 C 0.90518 0.876 0.9065 0.0
C670 C 0.82158 0.86234 0.90739 0.0
C671 C 0.8289 0.82872 0.91257 0.0
H672 H 0.21084 0.72028 0.16574 0.0
H673 H 0.08074 0.65516 0.13243 0.0
H674 H 0.0829 0.58865 0.12899 0.0
H675 H 0.12361 0.54988 0.13353 0.0
H676 H 0.25407 0.61796 0.16607 0.0
H677 H 0.25 0.6826 0.1713 0.0
C678 C 0.18273 0.69161 0.15779 0.0
C679 C 0.14575 0.69286 0.14917 0.0
C680 C 0.18445 0.65403 0.15546 0.0
C681 C 0.1096 0.65512 0.13933 0.0
C682 C 0.11095 0.61716 0.13714 0.0
C683 C 0.15105 0.57897 0.14168 0.0
C684 C 0.18903 0.57905 0.14958 0.0
C685 C 0.14849 0.61638 0.14474 0.0
C686 C 0.22432 0.61688 0.16026 0.0
C687 C 0.22208 0.65392 0.16318 0.0
H688 H 0.62259 0.11476 0.6519 0.0
H689 H 0.68078 0.24716 0.67766 0.0
H690 H 0.61068 0.23926 0.68623 0.0
H691 H 0.53346 0.19657 0.6838 0.0
H692 H 0.47313 0.06464 0.65676 0.0
H693 H 0.54351 0.07016 0.65246 0.0
C694 C 0.61994 0.14173 0.65982 0.0
C695 C 0.65714 0.1817 0.66381 0.0
C696 C 0.57918 0.13699 0.66468 0.0
C697 C 0.6529 0.2163 0.67382 0.0
C698 C 0.61276 0.21175 0.67894 0.0
C699 C 0.53543 0.16872 0.67722 0.0
C700 C 0.49789 0.13024 0.67042 0.0
C701 C 0.57577 0.17248 0.67402 0.0
C702 C 0.50137 0.09457 0.66229 0.0
C703 C 0.54168 0.09787 0.65955 0.0
H704 H 0.52568 0.59901 0.15575 0.0
H705 H 0.45728 0.64493 0.10069 0.0
H706 H 0.39646 0.57363 0.097 0.0
H707 H 0.36095 0.49974 0.11161 0.0
H708 H 0.42596 0.45167 0.16796 0.0
H709 H 0.49013 0.52234 0.16873 0.0
C710 C 0.49743 0.59333 0.14297 0.0
C711 C 0.4962 0.62743 0.12846 0.0
C712 C 0.46204 0.55199 0.14118 0.0
C713 C 0.45951 0.61938 0.11168 0.0
C714 C 0.42452 0.5786 0.10971 0.0
C715 C 0.38917 0.5045 0.12403 0.0
C716 C 0.38857 0.47064 0.14002 0.0
C717 C 0.42527 0.54491 0.12466 0.0
C718 C 0.42568 0.47724 0.15544 0.0
C719 C 0.46219 0.51769 0.15604 0.0
H720 H 0.88547 0.45688 0.68135 0.0
H721 H 0.97935 0.5208 0.61133 0.0
H722 H 1.00122 0.467 0.61482 0.0
H723 H 0.99079 0.39916 0.636 0.0
H724 H 0.89536 0.33546 0.70497 0.0
H725 H 0.87818 0.39258 0.70453 0.0
C726 C 0.91127 0.45961 0.6672 0.0
C727 C 0.93062 0.49296 0.64608 0.0
C728 C 0.92377 0.42872 0.66941 0.0
C729 C 0.96337 0.4952 0.62748 0.0
C730 C 0.97618 0.46461 0.62965 0.0
C731 C 0.96713 0.39855 0.65149 0.0
C732 C 0.94468 0.36348 0.67076 0.0
C733 C 0.95635 0.43096 0.65036 0.0
C734 C 0.91325 0.36235 0.69014 0.0
C735 C 0.90319 0.39482 0.68973 0.0
H736 H 0.61313 0.95216 0.1266 0.0
H737 H 0.59803 0.9265 0.22337 0.0
H738 H 0.5252 0.91513 0.22062 0.0
H739 H 0.46366 0.90455 0.18944 0.0
H740 H 0.4775 0.92584 0.09183 0.0
H741 H 0.5528 0.94613 0.0959 0.0
C742 C 0.59421 0.94552 0.14719 0.0
C743 C 0.61087 0.9413 0.17532 0.0
C744 C 0.55189 0.93708 0.14504 0.0
C745 C 0.58592 0.931 0.20173 0.0
C746 C 0.54422 0.92396 0.20002 0.0
C747 C 0.48331 0.91435 0.16912 0.0
C748 C 0.46488 0.91347 0.14033 0.0
C749 C 0.52649 0.9257 0.17162 0.0
C750 C 0.49069 0.92559 0.11418 0.0
C751 C 0.53383 0.9375 0.11652 0.0
H752 H 0.70979 0.58014 0.60349 0.0
H753 H 0.70121 0.59585 0.70066 0.0
H754 H 0.64011 0.52357 0.70352 0.0
H755 H 0.59408 0.45378 0.67894 0.0
H756 H 0.60035 0.4403 0.58082 0.0
H757 H 0.65749 0.51363 0.57785 0.0
C758 C 0.69367 0.56801 0.6251 0.0
C759 C 0.70942 0.59318 0.65177 0.0
C760 C 0.65874 0.52656 0.62649 0.0
C761 C 0.68891 0.5772 0.67976 0.0
C762 C 0.65436 0.53574 0.68142 0.0
C763 C 0.60719 0.46693 0.65676 0.0
C764 C 0.59319 0.44071 0.63025 0.0
C765 C 0.63962 0.50975 0.65501 0.0
C766 C 0.61118 0.45884 0.60183 0.0
C767 C 0.6437 0.50108 0.6 0.0
H768 H 0.3652 0.86604 0.39216 0.0
H769 H 0.43093 0.99824 0.41879 0.0
H770 H 0.49767 0.99629 0.42459 0.0
H771 H 0.53548 0.95476 0.42663 0.0
H772 H 0.46752 0.82217 0.40049 0.0
H773 H 0.40333 0.82645 0.39066 0.0
C774 C 0.39417 0.8947 0.39895 0.0
C775 C 0.39289 0.93222 0.40522 0.0
C776 C 0.43192 0.89302 0.40288 0.0
C777 C 0.43095 0.96902 0.41364 0.0
C778 C 0.46903 0.96775 0.41724 0.0
C779 C 0.50683 0.92695 0.41833 0.0
C780 C 0.50644 0.88798 0.41471 0.0
C781 C 0.46967 0.92962 0.4126 0.0
C782 C 0.46874 0.8523 0.40417 0.0
C783 C 0.43199 0.85478 0.39829 0.0
H784 H 0.609 0.50094 0.9302 0.0
H785 H 0.67282 0.42793 0.91843 0.0
H786 H 0.60412 0.36278 0.91491 0.0
H787 H 0.52646 0.32632 0.9164 0.0
H788 H 0.46146 0.39825 0.92774 0.0
H789 H 0.53025 0.4642 0.92945 0.0
C790 C 0.60794 0.47088 0.9264 0.0
C791 C 0.64628 0.46951 0.92475 0.0
C792 C 0.56814 0.43335 0.92423 0.0
C793 C 0.64404 0.43003 0.9203 0.0
C794 C 0.6047 0.39271 0.91809 0.0
C795 C 0.52707 0.35635 0.91909 0.0
C796 C 0.48862 0.35716 0.92203 0.0
C797 C 0.56661 0.39397 0.92028 0.0
C798 C 0.49042 0.39657 0.92538 0.0
C799 C 0.5298 0.43431 0.92646 0.0
H800 H 0.14214 0.60015 0.39457 0.0
H801 H 0.21465 0.627 0.47909 0.0
H802 H 0.20186 0.55463 0.47999 0.0
H803 H 0.17625 0.4862 0.45478 0.0
H804 H 0.10582 0.45758 0.36957 0.0
H805 H 0.11098 0.52794 0.37103 0.0
C806 C 0.15497 0.59004 0.41322 0.0
C807 C 0.17947 0.61919 0.43672 0.0
C808 C 0.14784 0.54813 0.41346 0.0
C809 C 0.19532 0.60534 0.46093 0.0
C810 C 0.18825 0.56395 0.46138 0.0
C811 C 0.16143 0.49515 0.43674 0.0
C812 C 0.1409 0.46712 0.41202 0.0
C813 C 0.16533 0.53547 0.43753 0.0
C814 C 0.12151 0.47867 0.38891 0.0
C815 C 0.1249 0.519 0.38964 0.0
H816 H 0.74019 0.20116 0.89493 0.0
H817 H 0.67337 0.07077 0.92425 0.0
H818 H 0.60768 0.07422 0.92922 0.0
H819 H 0.57122 0.11636 0.92968 0.0
H820 H 0.63857 0.2467 0.90002 0.0
H821 H 0.70239 0.24133 0.89136 0.0
C822 C 0.71114 0.17325 0.90203 0.0
C823 C 0.71179 0.13579 0.90936 0.0
C824 C 0.67379 0.17569 0.9053 0.0
C825 C 0.67376 0.09991 0.91831 0.0
C826 C 0.63626 0.102 0.92141 0.0
C827 C 0.59955 0.1434 0.92077 0.0
C828 C 0.60002 0.18204 0.91578 0.0
C829 C 0.63617 0.14002 0.9156 0.0
C830 C 0.63741 0.21685 0.90466 0.0
C831 C 0.67388 0.21372 0.89947 0.0
H832 H 0.45545 0.61668 0.40416 0.0
H833 H 0.48169 0.543 0.46913 0.0
H834 H 0.55737 0.59694 0.46971 0.0
H835 H 0.61587 0.66705 0.45315 0.0
H836 H 0.58752 0.7401 0.38903 0.0
H837 H 0.5133 0.68383 0.38594 0.0
C838 C 0.47775 0.61199 0.41811 0.0
C839 C 0.46281 0.5758 0.43656 0.0
C840 C 0.52104 0.64297 0.41829 0.0
C841 C 0.49218 0.57082 0.45499 0.0
C842 C 0.53554 0.60151 0.45516 0.0
C843 C 0.59351 0.67009 0.4381 0.0
C844 C 0.60705 0.70752 0.42129 0.0
C845 C 0.55035 0.63793 0.43705 0.0
C846 C 0.57772 0.71155 0.40223 0.0
C847 C 0.53526 0.67949 0.40053 0.0
H848 H 0.86178 0.54519 0.91546 0.0
H849 H 0.99907 0.60622 0.92224 0.0
H850 H 0.99464 0.53677 0.92352 0.0
H851 H 0.95155 0.45882 0.92556 0.0
H852 H 0.81428 0.39854 0.92046 0.0
H853 H 0.81914 0.46773 0.91507 0.0
C854 C 0.8909 0.54352 0.91704 0.0
C855 C 0.93075 0.58112 0.91899 0.0
C856 C 0.88811 0.50354 0.91802 0.0
C857 C 0.96797 0.57797 0.92076 0.0
C858 C 0.96545 0.53821 0.92157 0.0
C859 C 0.92266 0.46078 0.92329 0.0
C860 C 0.88256 0.42337 0.92363 0.0
C861 C 0.92565 0.5008 0.92071 0.0
C862 C 0.84555 0.4266 0.91999 0.0
C863 C 0.84829 0.46623 0.91716 0.0
H864 H 0.16416 0.38791 0.30524 0.0
H865 H 0.2568 0.37546 0.36055 0.0
H866 H 0.29775 0.38101 0.31436 0.0
H867 H 0.30175 0.3804 0.25771 0.0
H868 H 0.204 0.38534 0.20327 0.0
H869 H 0.17061 0.39217 0.24969 0.0
C870 C 0.19362 0.38694 0.30728 0.0
C871 C 0.20724 0.38071 0.3361 0.0
C872 C 0.21584 0.38855 0.28072 0.0
C873 C 0.24564 0.37999 0.33851 0.0
C874 C 0.26886 0.38295 0.31211 0.0
C875 C 0.27357 0.38373 0.25607 0.0
C876 C 0.25536 0.38249 0.22713 0.0
C877 C 0.25348 0.38586 0.283 0.0
C878 C 0.21873 0.38651 0.22525 0.0
C879 C 0.19948 0.39015 0.2518 0.0
H880 H 0.95407 0.27494 0.7656 0.0
H881 H 0.85498 0.17522 0.71039 0.0
H882 H 0.81339 0.14339 0.75671 0.0
H883 H 0.80923 0.14023 0.81271 0.0
H884 H 0.91149 0.23611 0.86821 0.0
H885 H 0.94794 0.27398 0.82159 0.0
C886 C 0.92318 0.24639 0.76363 0.0
C887 C 0.9077 0.227 0.73472 0.0
C888 C 0.90036 0.22776 0.79032 0.0
C889 C 0.86756 0.19039 0.73244 0.0
C890 C 0.84394 0.17226 0.75888 0.0
C891 C 0.83934 0.16967 0.81469 0.0
C892 C 0.85809 0.18519 0.84379 0.0
C893 C 0.86062 0.19009 0.78793 0.0
C894 C 0.89672 0.22352 0.84603 0.0
C895 C 0.91754 0.24496 0.81942 0.0
H896 H 0.69215 0.91739 0.27265 0.0
H897 H 0.71902 0.83554 0.21629 0.0
H898 H 0.72064 0.79733 0.26201 0.0
H899 H 0.72304 0.79326 0.31815 0.0
H900 H 0.69852 0.87649 0.37469 0.0
H901 H 0.68713 0.9083 0.32863 0.0
C902 C 0.69774 0.89075 0.27036 0.0
C903 C 0.70606 0.87956 0.24129 0.0
C904 C 0.69949 0.86968 0.29673 0.0
C905 C 0.71271 0.84476 0.23847 0.0
C906 C 0.7139 0.82315 0.2646 0.0
C907 C 0.71465 0.81801 0.32036 0.0
C908 C 0.71206 0.833 0.34964 0.0
C909 C 0.70871 0.83628 0.29387 0.0
C910 C 0.70078 0.86467 0.35234 0.0
C911 C 0.69444 0.88287 0.32603 0.0
H912 H 0.79837 0.6734 0.76364 0.0
H913 H 0.90017 0.67667 0.71028 0.0
H914 H 0.93597 0.67389 0.75712 0.0
H915 H 0.94332 0.68069 0.81285 0.0
H916 H 0.84403 0.68049 0.86714 0.0
H917 H 0.80175 0.6713 0.82037 0.0
C918 C 0.82795 0.67264 0.7623 0.0
C919 C 0.84694 0.6758 0.73359 0.0
C920 C 0.8489 0.672 0.78946 0.0
C921 C 0.88509 0.67453 0.7321 0.0
C922 C 0.90568 0.67314 0.75888 0.0
C923 C 0.91202 0.67782 0.81447 0.0
C924 C 0.89677 0.68156 0.84319 0.0
C925 C 0.88864 0.67344 0.78762 0.0
C926 C 0.85617 0.67746 0.8452 0.0
C927 C 0.83227 0.67259 0.81845 0.0
H928 H 0.13352 0.79137 0.25814 0.0
H929 H 0.24146 0.87518 0.20362 0.0
H930 H 0.2847 0.90529 0.25 0.0
H931 H 0.28887 0.91353 0.3059 0.0
H932 H 0.17978 0.83304 0.36093 0.0
H933 H 0.13984 0.79517 0.31457 0.0
C934 C 0.16674 0.81577 0.25648 0.0
C935 C 0.1846 0.83088 0.22752 0.0
C936 C 0.1909 0.83359 0.28335 0.0
C937 C 0.22748 0.86242 0.22554 0.0
C938 C 0.25198 0.87995 0.25212 0.0
C939 C 0.25654 0.88725 0.30778 0.0
C940 C 0.23695 0.87639 0.3366 0.0
C941 C 0.23365 0.86654 0.28111 0.0
C942 C 0.19533 0.84204 0.33889 0.0
C943 C 0.17249 0.82062 0.31241 0.0
H944 H 0.39498 0.2712 0.81659 0.0
H945 H 0.40747 0.17821 0.87021 0.0
H946 H 0.4159 0.14603 0.82321 0.0
H947 H 0.41158 0.13969 0.76729 0.0
H948 H 0.39218 0.22825 0.71341 0.0
H949 H 0.39532 0.26753 0.7602 0.0
C950 C 0.40018 0.24426 0.81798 0.0
C951 C 0.40027 0.22674 0.84671 0.0
C952 C 0.4035 0.22515 0.79087 0.0
C953 C 0.40702 0.19193 0.84828 0.0
C954 C 0.41174 0.17355 0.82146 0.0
C955 C 0.40856 0.16792 0.76573 0.0
C956 C 0.40131 0.18095 0.73705 0.0
C957 C 0.40877 0.18916 0.79267 0.0
C958 C 0.39779 0.21769 0.73527 0.0
C959 C 0.39932 0.23992 0.76201 0.0
H960 H 0.36658 0.31704 0.98846 0.0
H961 H 0.3001 0.19037 1.02473 0.0
H962 H 0.25964 0.21106 0.05883 0.0
H963 H 0.24544 0.26676 0.07978 0.0
H964 H 0.31506 0.39376 0.0451 0.0
H965 H 0.35105 0.37143 1.00805 0.0
C966 C 0.34304 0.29392 1.00374 0.0
C967 C 0.33615 0.25222 1.0041 0.0
C968 C 0.32025 0.30618 1.02329 0.0
C969 C 0.30603 0.2227 1.02422 0.0
C970 C 0.28284 0.23452 0.04361 0.0
C971 C 0.26833 0.28915 0.06389 0.0
C972 C 0.2777 0.33158 0.06486 0.0
C973 C 0.28991 0.27628 0.04351 0.0
C974 C 0.30712 0.36078 0.04428 0.0
C975 C 0.32794 0.34811 1.02341 0.0
H976 H 0.1416 0.36245 0.53314 0.0
H977 H 0.06034 0.33209 0.45368 0.0
H978 H 0.99711 0.29209 0.48474 0.0
H979 H 0.965 0.26519 0.536 0.0
H980 H 1.0432 0.33223 0.61418 0.0
H981 H 0.1075 0.35927 0.58346 0.0
C982 C 0.11006 0.34677 0.52268 0.0
C983 C 0.10571 0.34446 0.49058 0.0
C984 C 0.07344 0.33041 0.54117 0.0
C985 C 0.06462 0.32827 0.47773 0.0
C986 C 1.0283 0.30689 0.4957 0.0
C987 C 0.99614 0.28553 0.54627 0.0
C988 C 1.00012 0.29191 0.57818 0.0
C989 C 1.03235 0.30686 0.5276 0.0
C990 C 1.04004 0.32206 0.5905 0.0
C991 C 0.07678 0.33869 0.57272 0.0
H992 H 0.71752 0.94321 0.04499 0.0
H993 H 0.73971 1.02409 0.12348 0.0
H994 H 0.7792 0.08712 0.09228 0.0
H995 H 0.80849 0.11932 0.04167 0.0
H996 H 0.75313 0.03932 0.96215 0.0
H997 H 0.72542 0.97597 0.99363 0.0
C998 C 0.73118 0.97464 0.05521 0.0
C999 C 0.73051 0.97916 0.08718 0.0
C1000 C 0.74826 1.01083 1.03643 0.0
C1001 C 0.74468 1.01992 0.09961 0.0
C1002 C 0.76616 0.05605 0.08158 0.0
C1003 C 0.7906 0.088 1.03129 0.0
C1004 C 0.78752 0.08365 0.99921 0.0
C1005 C 0.76899 0.05192 0.0499 0.0
C1006 C 0.76078 0.04318 0.98635 0.0
C1007 C 0.74363 1.00691 1.0045 0.0
H1008 H 0.76166 0.71327 0.59024 0.0
H1009 H 0.89016 0.77457 0.55639 0.0
H1010 H 0.87337 0.81764 0.52172 0.0
H1011 H 0.82098 0.83644 0.50022 0.0
H1012 H 0.69152 0.77073 0.53201 0.0
H1013 H 0.71011 0.73219 0.56941 0.0
C1014 C 0.78613 0.73637 0.57547 0.0
C1015 C 0.8272 0.74104 0.57602 0.0
C1016 C 0.77613 0.7607 0.55567 0.0
C1017 C 0.85832 0.77041 0.55633 0.0
C1018 C 0.84877 0.79519 0.53669 0.0
C1019 C 0.79717 0.81409 0.51571 0.0
C1020 C 0.75504 0.80651 0.5137 0.0
C1021 C 0.80773 0.79059 0.53614 0.0
C1022 C 0.7242 0.77729 0.53352 0.0
C1023 C 0.73474 0.75498 0.55462 0.0
H1024 H 1.01108 0.79521 0.98981 0.0
H1025 H 0.95116 0.66814 1.02518 0.0
H1026 H 1.01042 0.68877 0.06149 0.0
H1027 H 0.08066 0.74148 0.08101 0.0
H1028 H 0.14392 0.86812 0.04457 0.0
H1029 H 0.08296 0.84888 1.00966 0.0
C1030 C 1.01107 0.77237 1.00575 0.0
C1031 C 0.97696 0.73032 1.00513 0.0
C1032 C 1.04624 0.78412 1.02562 0.0
C1033 C 0.97697 0.70073 1.02564 0.0
C1034 C 1.01101 0.71242 0.04609 0.0
C1035 C 0.08117 0.76493 0.06539 0.0
C1036 C 0.11655 0.80623 0.06542 0.0
C1037 C 1.0461 0.75373 0.04585 0.0
C1038 C 0.11702 0.83614 0.0449 0.0
C1039 C 0.08203 0.82521 1.02519 0.0
H1040 H 0.29543 0.94145 0.53421 0.0
H1041 H 0.34609 1.02074 0.45533 0.0
H1042 H 0.37102 0.08447 0.48699 0.0
H1043 H 0.37791 0.11769 0.53865 0.0
H1044 H 0.36655 0.03988 0.61593 0.0
H1045 H 0.32745 0.97566 0.58477 0.0
C1046 C 0.31163 0.97267 0.524 0.0
C1047 C 0.31332 0.97647 0.4919 0.0
C1048 C 0.33265 1.00936 0.54281 0.0
C1049 C 0.33853 1.01706 0.4794 0.0
C1050 C 0.35434 0.05362 0.4977 0.0
C1051 C 0.36661 0.08666 0.54865 0.0
C1052 C 0.36945 0.08303 0.58056 0.0
C1053 C 0.35072 0.05018 0.52961 0.0
C1054 C 0.35897 0.04302 0.59241 0.0
C1055 C 0.33793 1.00627 0.57432 0.0
loop_
_geom_bond_atom_site_label_1
_geom_bond_atom_site_label_2
_geom_bond_distance
_geom_bond_site_symmetry_2
_ccdc_geom_bond_type
La0 C2 2.928 . S
La0 O20 2.521 . S
La0 O21 2.628 . S
La0 O22 2.554 . S
La0 O23 2.757 . S
La0 O24 2.470 . S
La0 O29 2.482 . S
La0 O31 2.503 . S
La1 C11 2.928 . S
La1 O23 2.482 . S
La1 O25 2.503 . S
La1 O26 2.521 . S
La1 O27 2.628 . S
La1 O28 2.554 . S
La1 O29 2.757 . S
La1 O30 2.470 . S
C2 La0 2.928 . S
C2 C3 1.503 . S
C2 O20 1.261 . S
C2 O21 1.243 . S
C3 C2 1.503 . S
C3 C4 1.394 . S
C3 C8 1.373 . S
C4 C3 1.394 . S
C4 C5 1.380 . S
C4 H32 0.930 . S
C5 C4 1.380 . S
C5 C6 1.376 . S
C5 H33 0.930 . S
C6 C5 1.376 . S
C6 C7 1.370 . S
C7 C6 1.370 . S
C7 C8 1.396 . S
C7 H34 0.929 . S
C8 C3 1.373 . S
C8 C7 1.396 . S
C8 H35 0.929 . S
C9 O22 1.240 . S
C9 O23 1.289 . S
C10 O24 1.258 . S
C10 O25 1.256 . S
C11 La1 2.928 . S
C11 C12 1.503 . S
C11 O26 1.261 . S
C11 O27 1.243 . S
C12 C11 1.503 . S
C12 C13 1.394 . S
C12 C17 1.373 . S
C13 C12 1.394 . S
C13 C14 1.380 . S
C13 H36 0.930 . S
C14 C13 1.380 . S
C14 C15 1.376 . S
C14 H37 0.930 . S
C15 C14 1.376 . S
C15 C16 1.370 . S
C16 C15 1.370 . S
C16 C17 1.396 . S
C16 H38 0.929 . S
C17 C12 1.373 . S
C17 C16 1.396 . S
C17 H39 0.929 . S
C18 O28 1.240 . S
C18 O29 1.289 . S
C19 O30 1.258 . S
C19 O31 1.256 . S
O20 La0 2.521 . S
O20 C2 1.261 . S
O21 La0 2.628 . S
O21 C2 1.243 . S
O22 La0 2.554 . S
O22 C9 1.240 . S
O23 La0 2.757 . S
O23 La1 2.482 . S
O23 C9 1.289 . S
O24 La0 2.470 . S
O24 C10 1.258 . S
O25 La1 2.503 . S
O25 C10 1.256 . S
O26 La1 2.521 . S
O26 C11 1.261 . S
O27 La1 2.628 . S
O27 C11 1.243 . S
O28 La1 2.554 . S
O28 C18 1.240 . S
O29 La0 2.482 . S
O29 La1 2.757 . S
O29 C18 1.289 . S
O30 La1 2.470 . S
O30 C19 1.258 . S
O31 La0 2.503 . S
O31 C19 1.256 . S
H32 C4 0.930 . S
H33 C5 0.930 . S
H34 C7 0.929 . S
H35 C8 0.929 . S
H36 C13 0.930 . S
H37 C14 0.930 . S
H38 C16 0.929 . S
H39 C17 0.929 . S
La40 C42 2.928 . S
La40 O60 2.521 . S
La40 O61 2.628 . S
La40 O62 2.554 . S
La40 O63 2.757 . S
La40 O64 2.470 . S
La40 O69 2.482 . S
La40 O71 2.503 . S
La41 C51 2.928 . S
La41 O63 2.482 . S
La41 O65 2.503 . S
La41 O66 2.521 . S
La41 O67 2.628 . S
La41 O68 2.554 . S
La41 O69 2.757 . S
La41 O70 2.470 . S
C42 La40 2.928 . S
C42 C43 1.503 . S
C42 O60 1.261 . S
C42 O61 1.243 . S
C43 C42 1.503 . S
C43 C44 1.394 . S
C43 C48 1.373 . S
C44 C43 1.394 . S
C44 C45 1.380 . S
C44 H72 0.930 . S
C45 C44 1.380 . S
C45 C46 1.376 . S
C45 H73 0.930 . S
C46 C45 1.376 . S
C46 C47 1.370 . S
C47 C46 1.370 . S
C47 C48 1.396 . S
C47 H74 0.929 . S
C48 C43 1.373 . S
C48 C47 1.396 . S
C48 H75 0.929 . S
C49 O62 1.240 . S
C49 O63 1.289 . S
C50 O64 1.258 . S
C50 O65 1.256 . S
C51 La41 2.928 . S
C51 C52 1.503 1_655 S
C51 O66 1.261 . S
C51 O67 1.243 . S
C52 C51 1.503 1_455 S
C52 C53 1.394 . S
C52 C57 1.373 . S
C53 C52 1.394 . S
C53 C54 1.380 . S
C53 H76 0.930 . S
C54 C53 1.380 . S
C54 C55 1.376 . S
C54 H77 0.930 . S
C55 C54 1.376 . S
C55 C56 1.370 . S
C56 C55 1.370 . S
C56 C57 1.396 . S
C56 H78 0.929 . S
C57 C52 1.373 . S
C57 C56 1.396 . S
C57 H79 0.929 . S
C58 O68 1.240 . S
C58 O69 1.289 . S
C59 O70 1.258 . S
C59 O71 1.256 . S
O60 La40 2.521 . S
O60 C42 1.261 . S
O61 La40 2.628 . S
O61 C42 1.243 . S
O62 La40 2.554 . S
O62 C49 1.240 . S
O63 La40 2.757 . S
O63 La41 2.482 . S
O63 C49 1.289 . S
O64 La40 2.470 . S
O64 C50 1.258 . S
O65 La41 2.503 . S
O65 C50 1.256 . S
O66 La41 2.521 . S
O66 C51 1.261 . S
O67 La41 2.628 . S
O67 C51 1.243 . S
O68 La41 2.554 . S
O68 C58 1.240 . S
O69 La40 2.482 . S
O69 La41 2.757 . S
O69 C58 1.289 . S
O70 La41 2.470 . S
O70 C59 1.258 . S
O71 La40 2.503 . S
O71 C59 1.256 . S
H72 C44 0.930 . S
H73 C45 0.930 . S
H74 C47 0.929 . S
H75 C48 0.929 . S
H76 C53 0.930 . S
H77 C54 0.930 . S
H78 C56 0.929 . S
H79 C57 0.929 . S
La80 C82 2.928 . S
La80 O100 2.521 . S
La80 O101 2.628 . S
La80 O102 2.554 . S
La80 O103 2.757 . S
La80 O104 2.470 . S
La80 O109 2.482 . S
La80 O111 2.503 . S
La81 C91 2.928 . S
La81 O103 2.482 . S
La81 O105 2.503 . S
La81 O106 2.521 . S
La81 O107 2.628 . S
La81 O108 2.554 . S
La81 O109 2.757 . S
La81 O110 2.470 . S
C82 La80 2.928 . S
C82 C83 1.503 . S
C82 O100 1.261 . S
C82 O101 1.243 . S
C83 C82 1.503 . S
C83 C84 1.394 . S
C83 C88 1.373 . S
C84 C83 1.394 . S
C84 C85 1.380 . S
C84 H112 0.930 . S
C85 C84 1.380 . S
C85 C86 1.376 . S
C85 H113 0.930 . S
C86 C85 1.376 . S
C86 C87 1.370 . S
C87 C86 1.370 . S
C87 C88 1.396 . S
C87 H114 0.929 . S
C88 C83 1.373 . S
C88 C87 1.396 . S
C88 H115 0.929 . S
C89 O102 1.240 . S
C89 O103 1.289 . S
C90 O104 1.258 . S
C90 O105 1.256 . S
C91 La81 2.928 . S
C91 C92 1.503 1_565 S
C91 O106 1.261 . S
C91 O107 1.243 . S
C92 C91 1.503 1_545 S
C92 C93 1.394 . S
C92 C97 1.373 . S
C93 C92 1.394 . S
C93 C94 1.380 . S
C93 H116 0.930 . S
C94 C93 1.380 . S
C94 C95 1.376 . S
C94 H117 0.930 . S
C95 C94 1.376 . S
C95 C96 1.370 . S
C96 C95 1.370 . S
C96 C97 1.396 . S
C96 H118 0.929 . S
C97 C92 1.373 . S
C97 C96 1.396 . S
C97 H119 0.929 . S
C98 O108 1.240 . S
C98 O109 1.289 . S
C99 O110 1.258 . S
C99 O111 1.256 . S
O100 La80 2.521 . S
O100 C82 1.261 . S
O101 La80 2.628 . S
O101 C82 1.243 . S
O102 La80 2.554 . S
O102 C89 1.240 . S
O103 La80 2.757 . S
O103 La81 2.482 . S
O103 C89 1.289 . S
O104 La80 2.470 . S
O104 C90 1.258 . S
O105 La81 2.503 . S
O105 C90 1.256 . S
O106 La81 2.521 . S
O106 C91 1.261 . S
O107 La81 2.628 . S
O107 C91 1.243 . S
O108 La81 2.554 . S
O108 C98 1.240 . S
O109 La80 2.482 . S
O109 La81 2.757 . S
O109 C98 1.289 . S
O110 La81 2.470 . S
O110 C99 1.258 . S
O111 La80 2.503 . S
O111 C99 1.256 . S
H112 C84 0.930 . S
H113 C85 0.930 . S
H114 C87 0.929 . S
H115 C88 0.929 . S
H116 C93 0.930 . S
H117 C94 0.930 . S
H118 C96 0.929 . S
H119 C97 0.929 . S
La120 C122 2.928 . S
La120 O140 2.521 . S
La120 O141 2.628 . S
La120 O142 2.554 . S
La120 O143 2.757 . S
La120 O144 2.470 . S
La120 O149 2.482 . S
La120 O151 2.503 . S
La121 C131 2.928 . S
La121 O143 2.482 . S
La121 O145 2.503 . S
La121 O146 2.521 . S
La121 O147 2.628 . S
La121 O148 2.554 . S
La121 O149 2.757 . S
La121 O150 2.470 . S
C122 La120 2.928 . S
C122 C123 1.503 . S
C122 O140 1.261 . S
C122 O141 1.243 . S
C123 C122 1.503 . S
C123 C124 1.394 . S
C123 C128 1.373 . S
C124 C123 1.394 . S
C124 C125 1.380 . S
C124 H152 0.930 . S
C125 C124 1.380 . S
C125 C126 1.376 . S
C125 H153 0.930 . S
C126 C125 1.376 . S
C126 C127 1.370 . S
C127 C126 1.370 . S
C127 C128 1.396 . S
C127 H154 0.929 . S
C128 C123 1.373 . S
C128 C127 1.396 . S
C128 H155 0.929 . S
C129 O142 1.240 . S
C129 O143 1.289 . S
C130 O144 1.258 . S
C130 O145 1.256 . S
C131 La121 2.928 . S
C131 C132 1.503 . S
C131 O146 1.261 . S
C131 O147 1.243 . S
C132 C131 1.503 . S
C132 C133 1.394 . S
C132 C137 1.373 . S
C133 C132 1.394 . S
C133 C134 1.380 . S
C133 H156 0.930 . S
C134 C133 1.380 . S
C134 C135 1.376 . S
C134 H157 0.930 . S
C135 C134 1.376 . S
C135 C136 1.370 . S
C136 C135 1.370 . S
C136 C137 1.396 . S
C136 H158 0.929 . S
C137 C132 1.373 . S
C137 C136 1.396 . S
C137 H159 0.929 . S
C138 O148 1.240 . S
C138 O149 1.289 . S
C139 O150 1.258 . S
C139 O151 1.256 . S
O140 La120 2.521 . S
O140 C122 1.261 . S
O141 La120 2.628 . S
O141 C122 1.243 . S
O142 La120 2.554 . S
O142 C129 1.240 . S
O143 La120 2.757 . S
O143 La121 2.482 . S
O143 C129 1.289 . S
O144 La120 2.470 . S
O144 C130 1.258 . S
O145 La121 2.503 . S
O145 C130 1.256 . S
O146 La121 2.521 . S
O146 C131 1.261 . S
O147 La121 2.628 . S
O147 C131 1.243 . S
O148 La121 2.554 . S
O148 C138 1.240 . S
O149 La120 2.482 . S
O149 La121 2.757 . S
O149 C138 1.289 . S
O150 La121 2.470 . S
O150 C139 1.258 . S
O151 La120 2.503 . S
O151 C139 1.256 . S
H152 C124 0.930 . S
H153 C125 0.930 . S
H154 C127 0.929 . S
H155 C128 0.929 . S
H156 C133 0.930 . S
H157 C134 0.930 . S
H158 C136 0.929 . S
H159 C137 0.929 . S
La160 C162 2.928 . S
La160 O180 2.521 . S
La160 O181 2.628 . S
La160 O182 2.554 . S
La160 O183 2.757 . S
La160 O184 2.470 . S
La160 O189 2.482 . S
La160 O191 2.503 . S
La161 C171 2.928 . S
La161 O183 2.482 . S
La161 O185 2.503 . S
La161 O186 2.521 . S
La161 O187 2.628 . S
La161 O188 2.554 . S
La161 O189 2.757 . S
La161 O190 2.470 . S
C162 La160 2.928 . S
C162 C163 1.503 . S
C162 O180 1.261 . S
C162 O181 1.243 . S
C163 C162 1.503 . S
C163 C164 1.394 . S
C163 C168 1.373 . S
C164 C163 1.394 . S
C164 C165 1.380 . S
C164 H192 0.930 . S
C165 C164 1.380 . S
C165 C166 1.376 . S
C165 H193 0.930 . S
C166 C165 1.376 . S
C166 C167 1.370 . S
C167 C166 1.370 . S
C167 C168 1.396 . S
C167 H194 0.929 . S
C168 C163 1.373 . S
C168 C167 1.396 . S
C168 H195 0.929 . S
C169 O182 1.240 . S
C169 O183 1.289 . S
C170 O184 1.258 . S
C170 O185 1.256 . S
C171 La161 2.928 . S
C171 C172 1.503 1_455 S
C171 O186 1.261 . S
C171 O187 1.243 . S
C172 C171 1.503 1_655 S
C172 C173 1.394 . S
C172 C177 1.373 . S
C173 C172 1.394 . S
C173 C174 1.380 . S
C173 H196 0.930 . S
C174 C173 1.380 . S
C174 C175 1.376 . S
C174 H197 0.930 . S
C175 C174 1.376 . S
C175 C176 1.370 . S
C176 C175 1.370 . S
C176 C177 1.396 . S
C176 H198 0.929 . S
C177 C172 1.373 . S
C177 C176 1.396 . S
C177 H199 0.929 . S
C178 O188 1.240 . S
C178 O189 1.289 . S
C179 O190 1.258 . S
C179 O191 1.256 . S
O180 La160 2.521 . S
O180 C162 1.261 . S
O181 La160 2.628 . S
O181 C162 1.243 . S
O182 La160 2.554 . S
O182 C169 1.240 . S
O183 La160 2.757 . S
O183 La161 2.482 . S
O183 C169 1.289 . S
O184 La160 2.470 . S
O184 C170 1.258 . S
O185 La161 2.503 . S
O185 C170 1.256 . S
O186 La161 2.521 . S
O186 C171 1.261 . S
O187 La161 2.628 . S
O187 C171 1.243 . S
O188 La161 2.554 . S
O188 C178 1.240 . S
O189 La160 2.482 . S
O189 La161 2.757 . S
O189 C178 1.289 . S
O190 La161 2.470 . S
O190 C179 1.258 . S
O191 La160 2.503 . S
O191 C179 1.256 . S
H192 C164 0.930 . S
H193 C165 0.930 . S
H194 C167 0.929 . S
H195 C168 0.929 . S
H196 C173 0.930 . S
H197 C174 0.930 . S
H198 C176 0.929 . S
H199 C177 0.929 . S
La200 C202 2.928 . S
La200 O220 2.521 . S
La200 O221 2.628 . S
La200 O222 2.554 . S
La200 O223 2.757 . S
La200 O224 2.470 . S
La200 O229 2.482 . S
La200 O231 2.503 . S
La201 C211 2.928 . S
La201 O223 2.482 . S
La201 O225 2.503 . S
La201 O226 2.521 . S
La201 O227 2.628 . S
La201 O228 2.554 . S
La201 O229 2.757 . S
La201 O230 2.470 . S
C202 La200 2.928 . S
C202 C203 1.503 . S
C202 O220 1.261 . S
C202 O221 1.243 . S
C203 C202 1.503 . S
C203 C204 1.394 . S
C203 C208 1.373 . S
C204 C203 1.394 . S
C204 C205 1.380 . S
C204 H232 0.930 . S
C205 C204 1.380 . S
C205 C206 1.376 . S
C205 H233 0.930 . S
C206 C205 1.376 . S
C206 C207 1.370 . S
C207 C206 1.370 . S
C207 C208 1.396 . S
C207 H234 0.929 . S
C208 C203 1.373 . S
C208 C207 1.396 . S
C208 H235 0.929 . S
C209 O222 1.240 . S
C209 O223 1.289 . S
C210 O224 1.258 . S
C210 O225 1.256 . S
C211 La201 2.928 . S
C211 C212 1.503 1_545 S
C211 O226 1.261 . S
C211 O227 1.243 . S
C212 C211 1.503 1_565 S
C212 C213 1.394 . S
C212 C217 1.373 . S
C213 C212 1.394 . S
C213 C214 1.380 . S
C213 H236 0.930 . S
C214 C213 1.380 . S
C214 C215 1.376 . S
C214 H237 0.930 . S
C215 C214 1.376 . S
C215 C216 1.370 . S
C216 C215 1.370 . S
C216 C217 1.396 . S
C216 H238 0.929 . S
C217 C212 1.373 . S
C217 C216 1.396 . S
C217 H239 0.929 . S
C218 O228 1.240 . S
C218 O229 1.289 . S
C219 O230 1.258 . S
C219 O231 1.256 . S
O220 La200 2.521 . S
O220 C202 1.261 . S
O221 La200 2.628 . S
O221 C202 1.243 . S
O222 La200 2.554 . S
O222 C209 1.240 . S
O223 La200 2.757 . S
O223 La201 2.482 . S
O223 C209 1.289 . S
O224 La200 2.470 . S
O224 C210 1.258 . S
O225 La201 2.503 . S
O225 C210 1.256 . S
O226 La201 2.521 . S
O226 C211 1.261 . S
O227 La201 2.628 . S
O227 C211 1.243 . S
O228 La201 2.554 . S
O228 C218 1.240 . S
O229 La200 2.482 . S
O229 La201 2.757 . S
O229 C218 1.289 . S
O230 La201 2.470 . S
O230 C219 1.258 . S
O231 La200 2.503 . S
O231 C219 1.256 . S
H232 C204 0.930 . S
H233 C205 0.930 . S
H234 C207 0.929 . S
H235 C208 0.929 . S
H236 C213 0.930 . S
H237 C214 0.930 . S
H238 C216 0.929 . S
H239 C217 0.929 . S
La240 C242 2.928 . S
La240 O260 2.521 . S
La240 O261 2.628 . S
La240 O262 2.554 . S
La240 O263 2.757 . S
La240 O264 2.470 . S
La240 O269 2.482 . S
La240 O271 2.503 . S
La241 C251 2.928 . S
La241 O263 2.482 . S
La241 O265 2.503 . S
La241 O266 2.521 . S
La241 O267 2.628 . S
La241 O268 2.554 . S
La241 O269 2.757 . S
La241 O270 2.470 . S
C242 La240 2.928 . S
C242 C243 1.503 . S
C242 O260 1.261 . S
C242 O261 1.243 . S
C243 C242 1.503 . S
C243 C244 1.394 . S
C243 C248 1.373 . S
C244 C243 1.394 . S
C244 C245 1.380 . S
C244 H272 0.930 . S
C245 C244 1.380 . S
C245 C246 1.376 . S
C245 H273 0.930 . S
C246 C245 1.376 . S
C246 C247 1.370 . S
C247 C246 1.370 . S
C247 C248 1.396 . S
C247 H274 0.929 . S
C248 C243 1.373 . S
C248 C247 1.396 . S
C248 H275 0.929 . S
C249 O262 1.240 . S
C249 O263 1.289 . S
C250 O264 1.258 . S
C250 O265 1.256 . S
C251 La241 2.928 . S
C251 C252 1.503 . S
C251 O266 1.261 . S
C251 O267 1.243 . S
C252 C251 1.503 . S
C252 C253 1.394 . S
C252 C257 1.373 . S
C253 C252 1.394 . S
C253 C254 1.380 . S
C253 H276 0.930 . S
C254 C253 1.380 . S
C254 C255 1.376 . S
C254 H277 0.930 . S
C255 C254 1.376 . S
C255 C256 1.370 . S
C256 C255 1.370 . S
C256 C257 1.396 . S
C256 H278 0.929 . S
C257 C252 1.373 . S
C257 C256 1.396 . S
C257 H279 0.929 . S
C258 O268 1.240 . S
C258 O269 1.289 . S
C259 O270 1.258 . S
C259 O271 1.256 . S
O260 La240 2.521 . S
O260 C242 1.261 . S
O261 La240 2.628 . S
O261 C242 1.243 . S
O262 La240 2.554 . S
O262 C249 1.240 . S
O263 La240 2.757 . S
O263 La241 2.482 . S
O263 C249 1.289 . S
O264 La240 2.470 . S
O264 C250 1.258 . S
O265 La241 2.503 . S
O265 C250 1.256 . S
O266 La241 2.521 . S
O266 C251 1.261 . S
O267 La241 2.628 . S
O267 C251 1.243 . S
O268 La241 2.554 . S
O268 C258 1.240 . S
O269 La240 2.482 . S
O269 La241 2.757 . S
O269 C258 1.289 . S
O270 La241 2.470 . S
O270 C259 1.258 . S
O271 La240 2.503 . S
O271 C259 1.256 . S
H272 C244 0.930 . S
H273 C245 0.930 . S
H274 C247 0.929 . S
H275 C248 0.929 . S
H276 C253 0.930 . S
H277 C254 0.930 . S
H278 C256 0.929 . S
H279 C257 0.929 . S
La280 C282 2.928 . S
La280 O300 2.521 . S
La280 O301 2.628 . S
La280 O302 2.554 . S
La280 O303 2.757 . S
La280 O304 2.470 . S
La280 O309 2.482 . S
La280 O311 2.503 . S
La281 C291 2.928 . S
La281 O303 2.482 . S
La281 O305 2.503 . S
La281 O306 2.521 . S
La281 O307 2.628 . S
La281 O308 2.554 . S
La281 O309 2.757 . S
La281 O310 2.470 . S
C282 La280 2.928 . S
C282 C283 1.503 . S
C282 O300 1.261 . S
C282 O301 1.243 . S
C283 C282 1.503 . S
C283 C284 1.394 . S
C283 C288 1.373 . S
C284 C283 1.394 . S
C284 C285 1.380 . S
C284 H312 0.930 . S
C285 C284 1.380 . S
C285 C286 1.376 . S
C285 H313 0.930 . S
C286 C285 1.376 . S
C286 C287 1.370 . S
C287 C286 1.370 . S
C287 C288 1.396 . S
C287 H314 0.929 . S
C288 C283 1.373 . S
C288 C287 1.396 . S
C288 H315 0.929 . S
C289 O302 1.240 . S
C289 O303 1.289 . S
C290 O304 1.258 . S
C290 O305 1.256 . S
C291 La281 2.928 . S
C291 C292 1.503 1_655 S
C291 O306 1.261 . S
C291 O307 1.243 . S
C292 C291 1.503 1_455 S
C292 C293 1.394 . S
C292 C297 1.373 . S
C293 C292 1.394 . S
C293 C294 1.380 . S
C293 H316 0.930 . S
C294 C293 1.380 . S
C294 C295 1.376 . S
C294 H317 0.930 . S
C295 C294 1.376 . S
C295 C296 1.370 . S
C296 C295 1.370 . S
C296 C297 1.396 . S
C296 H318 0.929 . S
C297 C292 1.373 . S
C297 C296 1.396 . S
C297 H319 0.929 . S
C298 O308 1.240 . S
C298 O309 1.289 . S
C299 O310 1.258 . S
C299 O311 1.256 . S
O300 La280 2.521 . S
O300 C282 1.261 . S
O301 La280 2.628 . S
O301 C282 1.243 . S
O302 La280 2.554 . S
O302 C289 1.240 . S
O303 La280 2.757 . S
O303 La281 2.482 . S
O303 C289 1.289 . S
O304 La280 2.470 . S
O304 C290 1.258 . S
O305 La281 2.503 . S
O305 C290 1.256 . S
O306 La281 2.521 . S
O306 C291 1.261 . S
O307 La281 2.628 . S
O307 C291 1.243 . S
O308 La281 2.554 . S
O308 C298 1.240 . S
O309 La280 2.482 . S
O309 La281 2.757 . S
O309 C298 1.289 . S
O310 La281 2.470 . S
O310 C299 1.258 . S
O311 La280 2.503 . S
O311 C299 1.256 . S
H312 C284 0.930 . S
H313 C285 0.930 . S
H314 C287 0.929 . S
H315 C288 0.929 . S
H316 C293 0.930 . S
H317 C294 0.930 . S
H318 C296 0.929 . S
H319 C297 0.929 . S
La320 C322 2.928 . S
La320 O340 2.521 . S
La320 O341 2.628 . S
La320 O342 2.554 . S
La320 O343 2.757 . S
La320 O344 2.470 . S
La320 O349 2.482 . S
La320 O351 2.503 . S
La321 C331 2.928 . S
La321 O343 2.482 . S
La321 O345 2.503 . S
La321 O346 2.521 . S
La321 O347 2.628 . S
La321 O348 2.554 . S
La321 O349 2.757 . S
La321 O350 2.470 . S
C322 La320 2.928 . S
C322 C323 1.503 . S
C322 O340 1.261 . S
C322 O341 1.243 . S
C323 C322 1.503 . S
C323 C324 1.394 . S
C323 C328 1.373 . S
C324 C323 1.394 . S
C324 C325 1.380 . S
C324 H352 0.930 . S
C325 C324 1.380 . S
C325 C326 1.376 . S
C325 H353 0.930 . S
C326 C325 1.376 . S
C326 C327 1.370 . S
C327 C326 1.370 . S
C327 C328 1.396 . S
C327 H354 0.929 . S
C328 C323 1.373 . S
C328 C327 1.396 . S
C328 H355 0.929 . S
C329 O342 1.240 . S
C329 O343 1.289 . S
C330 O344 1.258 . S
C330 O345 1.256 . S
C331 La321 2.928 . S
C331 C332 1.503 1_565 S
C331 O346 1.261 . S
C331 O347 1.243 . S
C332 C331 1.503 1_545 S
C332 C333 1.394 . S
C332 C337 1.373 . S
C333 C332 1.394 . S
C333 C334 1.380 . S
C333 H356 0.930 . S
C334 C333 1.380 . S
C334 C335 1.376 . S
C334 H357 0.930 . S
C335 C334 1.376 . S
C335 C336 1.370 . S
C336 C335 1.370 . S
C336 C337 1.396 . S
C336 H358 0.929 . S
C337 C332 1.373 . S
C337 C336 1.396 . S
C337 H359 0.929 . S
C338 O348 1.240 . S
C338 O349 1.289 . S
C339 O350 1.258 . S
C339 O351 1.256 . S
O340 La320 2.521 . S
O340 C322 1.261 . S
O341 La320 2.628 . S
O341 C322 1.243 . S
O342 La320 2.554 . S
O342 C329 1.240 . S
O343 La320 2.757 . S
O343 La321 2.482 . S
O343 C329 1.289 . S
O344 La320 2.470 . S
O344 C330 1.258 . S
O345 La321 2.503 . S
O345 C330 1.256 . S
O346 La321 2.521 . S
O346 C331 1.261 . S
O347 La321 2.628 . S
O347 C331 1.243 . S
O348 La321 2.554 . S
O348 C338 1.240 . S
O349 La320 2.482 . S
O349 La321 2.757 . S
O349 C338 1.289 . S
O350 La321 2.470 . S
O350 C339 1.258 . S
O351 La320 2.503 . S
O351 C339 1.256 . S
H352 C324 0.930 . S
H353 C325 0.930 . S
H354 C327 0.929 . S
H355 C328 0.929 . S
H356 C333 0.930 . S
H357 C334 0.930 . S
H358 C336 0.929 . S
H359 C337 0.929 . S
La360 C362 2.928 . S
La360 O380 2.521 . S
La360 O381 2.628 . S
La360 O382 2.554 . S
La360 O383 2.757 . S
La360 O384 2.470 . S
La360 O389 2.482 . S
La360 O391 2.503 . S
La361 C371 2.928 . S
La361 O383 2.482 . S
La361 O385 2.503 . S
La361 O386 2.521 . S
La361 O387 2.628 . S
La361 O388 2.554 . S
La361 O389 2.757 . S
La361 O390 2.470 . S
C362 La360 2.928 . S
C362 C363 1.503 . S
C362 O380 1.261 . S
C362 O381 1.243 . S
C363 C362 1.503 . S
C363 C364 1.394 . S
C363 C368 1.373 . S
C364 C363 1.394 . S
C364 C365 1.380 . S
C364 H392 0.930 . S
C365 C364 1.380 . S
C365 C366 1.376 . S
C365 H393 0.930 . S
C366 C365 1.376 . S
C366 C367 1.370 . S
C367 C366 1.370 . S
C367 C368 1.396 . S
C367 H394 0.929 . S
C368 C363 1.373 . S
C368 C367 1.396 . S
C368 H395 0.929 . S
C369 O382 1.240 . S
C369 O383 1.289 . S
C370 O384 1.258 . S
C370 O385 1.256 . S
C371 La361 2.928 . S
C371 C372 1.503 . S
C371 O386 1.261 . S
C371 O387 1.243 . S
C372 C371 1.503 . S
C372 C373 1.394 . S
C372 C377 1.373 . S
C373 C372 1.394 . S
C373 C374 1.380 . S
C373 H396 0.930 . S
C374 C373 1.380 . S
C374 C375 1.376 . S
C374 H397 0.930 . S
C375 C374 1.376 . S
C375 C376 1.370 . S
C376 C375 1.370 . S
C376 C377 1.396 . S
C376 H398 0.929 . S
C377 C372 1.373 . S
C377 C376 1.396 . S
C377 H399 0.929 . S
C378 O388 1.240 . S
C378 O389 1.289 . S
C379 O390 1.258 . S
C379 O391 1.256 . S
O380 La360 2.521 . S
O380 C362 1.261 . S
O381 La360 2.628 . S
O381 C362 1.243 . S
O382 La360 2.554 . S
O382 C369 1.240 . S
O383 La360 2.757 . S
O383 La361 2.482 . S
O383 C369 1.289 . S
O384 La360 2.470 . S
O384 C370 1.258 . S
O385 La361 2.503 . S
O385 C370 1.256 . S
O386 La361 2.521 . S
O386 C371 1.261 . S
O387 La361 2.628 . S
O387 C371 1.243 . S
O388 La361 2.554 . S
O388 C378 1.240 . S
O389 La360 2.482 . S
O389 La361 2.757 . S
O389 C378 1.289 . S
O390 La361 2.470 . S
O390 C379 1.258 . S
O391 La360 2.503 . S
O391 C379 1.256 . S
H392 C364 0.930 . S
H393 C365 0.930 . S
H394 C367 0.929 . S
H395 C368 0.929 . S
H396 C373 0.930 . S
H397 C374 0.930 . S
H398 C376 0.929 . S
H399 C377 0.929 . S
La400 C402 2.928 . S
La400 O420 2.521 . S
La400 O421 2.628 . S
La400 O422 2.554 . S
La400 O423 2.757 . S
La400 O424 2.470 . S
La400 O429 2.482 . S
La400 O431 2.503 . S
La401 C411 2.928 . S
La401 O423 2.482 . S
La401 O425 2.503 . S
La401 O426 2.521 . S
La401 O427 2.628 . S
La401 O428 2.554 . S
La401 O429 2.757 . S
La401 O430 2.470 . S
C402 La400 2.928 . S
C402 C403 1.503 . S
C402 O420 1.261 . S
C402 O421 1.243 . S
C403 C402 1.503 . S
C403 C404 1.394 . S
C403 C408 1.373 . S
C404 C403 1.394 . S
C404 C405 1.380 . S
C404 H432 0.930 . S
C405 C404 1.380 . S
C405 C406 1.376 . S
C405 H433 0.930 . S
C406 C405 1.376 . S
C406 C407 1.370 . S
C407 C406 1.370 . S
C407 C408 1.396 . S
C407 H434 0.929 . S
C408 C403 1.373 . S
C408 C407 1.396 . S
C408 H435 0.929 . S
C409 O422 1.240 . S
C409 O423 1.289 . S
C410 O424 1.258 . S
C410 O425 1.256 . S
C411 La401 2.928 . S
C411 C412 1.503 1_455 S
C411 O426 1.261 . S
C411 O427 1.243 . S
C412 C411 1.503 1_655 S
C412 C413 1.394 . S
C412 C417 1.373 . S
C413 C412 1.394 . S
C413 C414 1.380 . S
C413 H436 0.930 . S
C414 C413 1.380 . S
C414 C415 1.376 . S
C414 H437 0.930 . S
C415 C414 1.376 . S
C415 C416 1.370 . S
C416 C415 1.370 . S
C416 C417 1.396 . S
C416 H438 0.929 . S
C417 C412 1.373 . S
C417 C416 1.396 . S
C417 H439 0.929 . S
C418 O428 1.240 . S
C418 O429 1.289 . S
C419 O430 1.258 . S
C419 O431 1.256 . S
O420 La400 2.521 . S
O420 C402 1.261 . S
O421 La400 2.628 . S
O421 C402 1.243 . S
O422 La400 2.554 . S
O422 C409 1.240 . S
O423 La400 2.757 . S
O423 La401 2.482 . S
O423 C409 1.289 . S
O424 La400 2.470 . S
O424 C410 1.258 . S
O425 La401 2.503 . S
O425 C410 1.256 . S
O426 La401 2.521 . S
O426 C411 1.261 . S
O427 La401 2.628 . S
O427 C411 1.243 . S
O428 La401 2.554 . S
O428 C418 1.240 . S
O429 La400 2.482 . S
O429 La401 2.757 . S
O429 C418 1.289 . S
O430 La401 2.470 . S
O430 C419 1.258 . S
O431 La400 2.503 . S
O431 C419 1.256 . S
H432 C404 0.930 . S
H433 C405 0.930 . S
H434 C407 0.929 . S
H435 C408 0.929 . S
H436 C413 0.930 . S
H437 C414 0.930 . S
H438 C416 0.929 . S
H439 C417 0.929 . S
La440 C442 2.928 . S
La440 O460 2.521 . S
La440 O461 2.628 . S
La440 O462 2.554 . S
La440 O463 2.757 . S
La440 O464 2.470 . S
La440 O469 2.482 . S
La440 O471 2.503 . S
La441 C451 2.928 . S
La441 O463 2.482 . S
La441 O465 2.503 . S
La441 O466 2.521 . S
La441 O467 2.628 . S
La441 O468 2.554 . S
La441 O469 2.757 . S
La441 O470 2.470 . S
C442 La440 2.928 . S
C442 C443 1.503 . S
C442 O460 1.261 . S
C442 O461 1.243 . S
C443 C442 1.503 . S
C443 C444 1.394 . S
C443 C448 1.373 . S
C444 C443 1.394 . S
C444 C445 1.380 . S
C444 H472 0.930 . S
C445 C444 1.380 . S
C445 C446 1.376 . S
C445 H473 0.930 . S
C446 C445 1.376 . S
C446 C447 1.370 . S
C447 C446 1.370 . S
C447 C448 1.396 . S
C447 H474 0.929 . S
C448 C443 1.373 . S
C448 C447 1.396 . S
C448 H475 0.929 . S
C449 O462 1.240 . S
C449 O463 1.289 . S
C450 O464 1.258 . S
C450 O465 1.256 . S
C451 La441 2.928 . S
C451 C452 1.503 1_545 S
C451 O466 1.261 . S
C451 O467 1.243 . S
C452 C451 1.503 1_565 S
C452 C453 1.394 . S
C452 C457 1.373 . S
C453 C452 1.394 . S
C453 C454 1.380 . S
C453 H476 0.930 . S
C454 C453 1.380 . S
C454 C455 1.376 . S
C454 H477 0.930 . S
C455 C454 1.376 . S
C455 C456 1.370 . S
C456 C455 1.370 . S
C456 C457 1.396 . S
C456 H478 0.929 . S
C457 C452 1.373 . S
C457 C456 1.396 . S
C457 H479 0.929 . S
C458 O468 1.240 . S
C458 O469 1.289 . S
C459 O470 1.258 . S
C459 O471 1.256 . S
O460 La440 2.521 . S
O460 C442 1.261 . S
O461 La440 2.628 . S
O461 C442 1.243 . S
O462 La440 2.554 . S
O462 C449 1.240 . S
O463 La440 2.757 . S
O463 La441 2.482 . S
O463 C449 1.289 . S
O464 La440 2.470 . S
O464 C450 1.258 . S
O465 La441 2.503 . S
O465 C450 1.256 . S
O466 La441 2.521 . S
O466 C451 1.261 . S
O467 La441 2.628 . S
O467 C451 1.243 . S
O468 La441 2.554 . S
O468 C458 1.240 . S
O469 La440 2.482 . S
O469 La441 2.757 . S
O469 C458 1.289 . S
O470 La441 2.470 . S
O470 C459 1.258 . S
O471 La440 2.503 . S
O471 C459 1.256 . S
H472 C444 0.930 . S
H473 C445 0.930 . S
H474 C447 0.929 . S
H475 C448 0.929 . S
H476 C453 0.930 . S
H477 C454 0.930 . S
H478 C456 0.929 . S
H479 C457 0.929 . S
H480 C486 0.930 . S
H481 C489 0.930 . S
H482 C490 0.930 . S
H483 C491 0.930 . S
H484 C494 0.930 . S
H485 C495 0.930 . S
C486 H480 0.930 . S
C486 C487 1.355 . S
C486 C488 1.415 . S
C487 C486 1.355 . S
C487 C489 1.419 . S
C488 C486 1.415 . S
C488 C493 1.425 . S
C488 C495 1.409 . S
C489 H481 0.930 . S
C489 C487 1.419 . S
C489 C490 1.362 . S
C490 H482 0.930 . S
C490 C489 1.362 . S
C490 C493 1.409 . S
C491 H483 0.930 . S
C491 C492 1.355 . S
C491 C493 1.415 1_545 S
C492 C491 1.355 . S
C492 C494 1.419 . S
C493 C488 1.425 . S
C493 C490 1.409 . S
C493 C491 1.415 1_565 S
C494 H484 0.930 . S
C494 C492 1.419 . S
C494 C495 1.362 1_545 S
C495 H485 0.930 . S
C495 C488 1.409 . S
C495 C494 1.362 1_565 S
H496 C502 0.930 . S
H497 C505 0.930 . S
H498 C506 0.930 . S
H499 C507 0.930 . S
H500 C510 0.930 . S
H501 C511 0.930 . S
C502 H496 0.930 . S
C502 C503 1.355 . S
C502 C504 1.415 . S
C503 C502 1.355 . S
C503 C505 1.419 . S
C504 C502 1.415 . S
C504 C509 1.425 . S
C504 C511 1.409 . S
C505 H497 0.930 . S
C505 C503 1.419 . S
C505 C506 1.362 . S
C506 H498 0.930 . S
C506 C505 1.362 . S
C506 C509 1.409 . S
C507 H499 0.930 . S
C507 C508 1.355 . S
C507 C509 1.415 . S
C508 C507 1.355 . S
C508 C510 1.419 . S
C509 C504 1.425 . S
C509 C506 1.409 . S
C509 C507 1.415 . S
C510 H500 0.930 . S
C510 C508 1.419 . S
C510 C511 1.362 . S
C511 H501 0.930 . S
C511 C504 1.409 . S
C511 C510 1.362 . S
H512 C518 0.930 . S
H513 C521 0.930 . S
H514 C522 0.930 . S
H515 C523 0.930 . S
H516 C526 0.930 . S
H517 C527 0.930 . S
C518 H512 0.930 . S
C518 C519 1.355 . S
C518 C520 1.415 1_655 S
C519 C518 1.355 . S
C519 C521 1.419 . S
C520 C518 1.415 1_455 S
C520 C525 1.425 . S
C520 C527 1.409 . S
C521 H513 0.930 . S
C521 C519 1.419 . S
C521 C522 1.362 . S
C522 H514 0.930 . S
C522 C521 1.362 . S
C522 C525 1.409 1_655 S
C523 H515 0.930 . S
C523 C524 1.355 . S
C523 C525 1.415 . S
C524 C523 1.355 . S
C524 C526 1.419 . S
C525 C520 1.425 . S
C525 C522 1.409 1_455 S
C525 C523 1.415 . S
C526 H516 0.930 . S
C526 C524 1.419 . S
C526 C527 1.362 . S
C527 H517 0.930 . S
C527 C520 1.409 . S
C527 C526 1.362 . S
H528 C534 0.930 . S
H529 C537 0.930 . S
H530 C538 0.930 . S
H531 C539 0.930 . S
H532 C542 0.930 . S
H533 C543 0.930 . S
C534 H528 0.930 . S
C534 C535 1.355 . S
C534 C536 1.415 1_565 S
C535 C534 1.355 . S
C535 C537 1.419 . S
C536 C534 1.415 1_545 S
C536 C541 1.425 . S
C536 C543 1.409 . S
C537 H529 0.930 . S
C537 C535 1.419 . S
C537 C538 1.362 . S
C538 H530 0.930 . S
C538 C537 1.362 . S
C538 C541 1.409 1_565 S
C539 H531 0.930 . S
C539 C540 1.355 . S
C539 C541 1.415 . S
C540 C539 1.355 . S
C540 C542 1.419 . S
C541 C536 1.425 . S
C541 C538 1.409 1_545 S
C541 C539 1.415 . S
C542 H532 0.930 . S
C542 C540 1.419 . S
C542 C543 1.362 . S
C543 H533 0.930 . S
C543 C536 1.409 . S
C543 C542 1.362 . S
H544 C550 0.930 . S
H545 C553 0.930 . S
H546 C554 0.930 . S
H547 C555 0.930 . S
H548 C558 0.930 . S
H549 C559 0.930 . S
C550 H544 0.930 . S
C550 C551 1.355 . S
C550 C552 1.415 . S
C551 C550 1.355 . S
C551 C553 1.419 . S
C552 C550 1.415 . S
C552 C557 1.425 . S
C552 C559 1.409 . S
C553 H545 0.930 . S
C553 C551 1.419 . S
C553 C554 1.362 . S
C554 H546 0.930 . S
C554 C553 1.362 . S
C554 C557 1.409 . S
C555 H547 0.930 . S
C555 C556 1.355 . S
C555 C557 1.415 . S
C556 C555 1.355 . S
C556 C558 1.419 . S
C557 C552 1.425 . S
C557 C554 1.409 . S
C557 C555 1.415 . S
C558 H548 0.930 . S
C558 C556 1.419 . S
C558 C559 1.362 . S
C559 H549 0.930 . S
C559 C552 1.409 . S
C559 C558 1.362 . S
H560 C566 0.930 . S
H561 C569 0.930 . S
H562 C570 0.930 . S
H563 C571 0.930 . S
H564 C574 0.930 . S
H565 C575 0.930 . S
C566 H560 0.930 . S
C566 C567 1.355 . S
C566 C568 1.415 . S
C567 C566 1.355 . S
C567 C569 1.419 . S
C568 C566 1.415 . S
C568 C573 1.425 . S
C568 C575 1.409 1_655 S
C569 H561 0.930 . S
C569 C567 1.419 . S
C569 C570 1.362 . S
C570 H562 0.930 . S
C570 C569 1.362 . S
C570 C573 1.409 . S
C571 H563 0.930 . S
C571 C572 1.355 . S
C571 C573 1.415 1_455 S
C572 C571 1.355 . S
C572 C574 1.419 . S
C573 C568 1.425 . S
C573 C570 1.409 . S
C573 C571 1.415 1_655 S
C574 H564 0.930 . S
C574 C572 1.419 . S
C574 C575 1.362 . S
C575 H565 0.930 . S
C575 C568 1.409 1_455 S
C575 C574 1.362 . S
H576 C582 0.930 . S
H577 C585 0.930 . S
H578 C586 0.930 . S
H579 C587 0.930 . S
H580 C590 0.930 . S
H581 C591 0.930 . S
C582 H576 0.930 . S
C582 C583 1.355 . S
C582 C584 1.415 . S
C583 C582 1.355 . S
C583 C585 1.419 . S
C584 C582 1.415 . S
C584 C589 1.425 . S
C584 C591 1.409 1_455 S
C585 H577 0.930 . S
C585 C583 1.419 . S
C585 C586 1.362 . S
C586 H578 0.930 . S
C586 C585 1.362 . S
C586 C589 1.409 . S
C587 H579 0.930 . S
C587 C588 1.355 . S
C587 C589 1.415 1_655 S
C588 C587 1.355 . S
C588 C590 1.419 . S
C589 C584 1.425 . S
C589 C586 1.409 . S
C589 C587 1.415 1_455 S
C590 H580 0.930 . S
C590 C588 1.419 . S
C590 C591 1.362 . S
C591 H581 0.930 . S
C591 C584 1.409 1_655 S
C591 C590 1.362 . S
H592 C598 0.930 . S
H593 C601 0.930 . S
H594 C602 0.930 . S
H595 C603 0.930 . S
H596 C606 0.930 . S
H597 C607 0.930 . S
C598 H592 0.930 . S
C598 C599 1.355 . S
C598 C600 1.415 1_565 S
C599 C598 1.355 . S
C599 C601 1.419 . S
C600 C598 1.415 1_545 S
C600 C605 1.425 . S
C600 C607 1.409 . S
C601 H593 0.930 . S
C601 C599 1.419 . S
C601 C602 1.362 . S
C602 H594 0.930 . S
C602 C601 1.362 . S
C602 C605 1.409 1_565 S
C603 H595 0.930 . S
C603 C604 1.355 . S
C603 C605 1.415 . S
C604 C603 1.355 . S
C604 C606 1.419 . S
C605 C600 1.425 . S
C605 C602 1.409 1_545 S
C605 C603 1.415 . S
C606 H596 0.930 . S
C606 C604 1.419 . S
C606 C607 1.362 . S
C607 H597 0.930 . S
C607 C600 1.409 . S
C607 C606 1.362 . S
H608 C614 0.930 . S
H609 C617 0.930 . S
H610 C618 0.930 . S
H611 C619 0.930 . S
H612 C622 0.930 . S
H613 C623 0.930 . S
C614 H608 0.930 . S
C614 C615 1.355 . S
C614 C616 1.415 . S
C615 C614 1.355 . S
C615 C617 1.419 . S
C616 C614 1.415 . S
C616 C621 1.425 . S
C616 C623 1.409 . S
C617 H609 0.930 . S
C617 C615 1.419 . S
C617 C618 1.362 . S
C618 H610 0.930 . S
C618 C617 1.362 . S
C618 C621 1.409 . S
C619 H611 0.930 . S
C619 C620 1.355 . S
C619 C621 1.415 . S
C620 C619 1.355 . S
C620 C622 1.419 . S
C621 C616 1.425 . S
C621 C618 1.409 . S
C621 C619 1.415 . S
C622 H612 0.930 . S
C622 C620 1.419 . S
C622 C623 1.362 . S
C623 H613 0.930 . S
C623 C616 1.409 . S
C623 C622 1.362 . S
H624 C630 0.930 . S
H625 C633 0.930 . S
H626 C634 0.930 . S
H627 C635 0.930 . S
H628 C638 0.930 . S
H629 C639 0.930 . S
C630 H624 0.930 . S
C630 C631 1.355 . S
C630 C632 1.415 1_455 S
C631 C630 1.355 . S
C631 C633 1.419 . S
C632 C630 1.415 1_655 S
C632 C637 1.425 . S
C632 C639 1.409 . S
C633 H625 0.930 . S
C633 C631 1.419 . S
C633 C634 1.362 1_455 S
C634 H626 0.930 . S
C634 C633 1.362 1_655 S
C634 C637 1.409 . S
C635 H627 0.930 . S
C635 C636 1.355 . S
C635 C637 1.415 . S
C636 C635 1.355 . S
C636 C638 1.419 . S
C637 C632 1.425 . S
C637 C634 1.409 . S
C637 C635 1.415 . S
C638 H628 0.930 . S
C638 C636 1.419 . S
C638 C639 1.362 . S
C639 H629 0.930 . S
C639 C632 1.409 . S
C639 C638 1.362 . S
H640 C646 0.930 . S
H641 C649 0.930 . S
H642 C650 0.930 . S
H643 C651 0.930 . S
H644 C654 0.930 . S
H645 C655 0.930 . S
C646 H640 0.930 . S
C646 C647 1.355 . S
C646 C648 1.415 1_545 S
C647 C646 1.355 . S
C647 C649 1.419 . S
C648 C646 1.415 1_565 S
C648 C653 1.425 . S
C648 C655 1.409 . S
C649 H641 0.930 . S
C649 C647 1.419 . S
C649 C650 1.362 . S
C650 H642 0.930 . S
C650 C649 1.362 . S
C650 C653 1.409 1_545 S
C651 H643 0.930 . S
C651 C652 1.355 . S
C651 C653 1.415 . S
C652 C651 1.355 . S
C652 C654 1.419 . S
C653 C648 1.425 . S
C653 C650 1.409 1_565 S
C653 C651 1.415 . S
C654 H644 0.930 . S
C654 C652 1.419 . S
C654 C655 1.362 . S
C655 H645 0.930 . S
C655 C648 1.409 . S
C655 C654 1.362 . S
H656 C662 0.930 . S
H657 C665 0.930 . S
H658 C666 0.930 . S
H659 C667 0.930 . S
H660 C670 0.930 . S
H661 C671 0.930 . S
C662 H656 0.930 . S
C662 C663 1.355 . S
C662 C664 1.415 . S
C663 C662 1.355 . S
C663 C665 1.419 . S
C664 C662 1.415 . S
C664 C669 1.425 . S
C664 C671 1.409 . S
C665 H657 0.930 . S
C665 C663 1.419 . S
C665 C666 1.362 . S
C666 H658 0.930 . S
C666 C665 1.362 . S
C666 C669 1.409 . S
C667 H659 0.930 . S
C667 C668 1.355 . S
C667 C669 1.415 . S
C668 C667 1.355 . S
C668 C670 1.419 . S
C669 C664 1.425 . S
C669 C666 1.409 . S
C669 C667 1.415 . S
C670 H660 0.930 . S
C670 C668 1.419 . S
C670 C671 1.362 . S
C671 H661 0.930 . S
C671 C664 1.409 . S
C671 C670 1.362 . S
H672 C678 0.930 . S
H673 C681 0.930 . S
H674 C682 0.930 . S
H675 C683 0.930 . S
H676 C686 0.930 . S
H677 C687 0.930 . S
C678 H672 0.930 . S
C678 C679 1.355 . S
C678 C680 1.415 . S
C679 C678 1.355 . S
C679 C681 1.419 . S
C680 C678 1.415 . S
C680 C685 1.425 . S
C680 C687 1.409 . S
C681 H673 0.930 . S
C681 C679 1.419 . S
C681 C682 1.362 . S
C682 H674 0.930 . S
C682 C681 1.362 . S
C682 C685 1.409 . S
C683 H675 0.930 . S
C683 C684 1.355 . S
C683 C685 1.415 . S
C684 C683 1.355 . S
C684 C686 1.419 . S
C685 C680 1.425 . S
C685 C682 1.409 . S
C685 C683 1.415 . S
C686 H676 0.930 . S
C686 C684 1.419 . S
C686 C687 1.362 . S
C687 H677 0.930 . S
C687 C680 1.409 . S
C687 C686 1.362 . S
H688 C694 0.930 . S
H689 C697 0.930 . S
H690 C698 0.930 . S
H691 C699 0.930 . S
H692 C702 0.930 . S
H693 C703 0.930 . S
C694 H688 0.930 . S
C694 C695 1.355 . S
C694 C696 1.415 . S
C695 C694 1.355 . S
C695 C697 1.419 . S
C696 C694 1.415 . S
C696 C701 1.425 . S
C696 C703 1.409 . S
C697 H689 0.930 . S
C697 C695 1.419 . S
C697 C698 1.362 . S
C698 H690 0.930 . S
C698 C697 1.362 . S
C698 C701 1.409 . S
C699 H691 0.930 . S
C699 C700 1.355 . S
C699 C701 1.415 . S
C700 C699 1.355 . S
C700 C702 1.419 . S
C701 C696 1.425 . S
C701 C698 1.409 . S
C701 C699 1.415 . S
C702 H692 0.930 . S
C702 C700 1.419 . S
C702 C703 1.362 . S
C703 H693 0.930 . S
C703 C696 1.409 . S
C703 C702 1.362 . S
H704 C710 0.930 . S
H705 C713 0.930 . S
H706 C714 0.930 . S
H707 C715 0.930 . S
H708 C718 0.930 . S
H709 C719 0.930 . S
C710 H704 0.930 . S
C710 C711 1.355 . S
C710 C712 1.415 . S
C711 C710 1.355 . S
C711 C713 1.419 . S
C712 C710 1.415 . S
C712 C717 1.425 . S
C712 C719 1.409 . S
C713 H705 0.930 . S
C713 C711 1.419 . S
C713 C714 1.362 . S
C714 H706 0.930 . S
C714 C713 1.362 . S
C714 C717 1.409 . S
C715 H707 0.930 . S
C715 C716 1.355 . S
C715 C717 1.415 . S
C716 C715 1.355 . S
C716 C718 1.419 . S
C717 C712 1.425 . S
C717 C714 1.409 . S
C717 C715 1.415 . S
C718 H708 0.930 . S
C718 C716 1.419 . S
C718 C719 1.362 . S
C719 H709 0.930 . S
C719 C712 1.409 . S
C719 C718 1.362 . S
H720 C726 0.930 . S
H721 C729 0.930 . S
H722 C730 0.930 . S
H723 C731 0.930 . S
H724 C734 0.930 . S
H725 C735 0.930 . S
C726 H720 0.930 . S
C726 C727 1.355 . S
C726 C728 1.415 . S
C727 C726 1.355 . S
C727 C729 1.419 . S
C728 C726 1.415 . S
C728 C733 1.425 . S
C728 C735 1.409 . S
C729 H721 0.930 . S
C729 C727 1.419 . S
C729 C730 1.362 . S
C730 H722 0.930 . S
C730 C729 1.362 . S
C730 C733 1.409 . S
C731 H723 0.930 . S
C731 C732 1.355 . S
C731 C733 1.415 . S
C732 C731 1.355 . S
C732 C734 1.419 . S
C733 C728 1.425 . S
C733 C730 1.409 . S
C733 C731 1.415 . S
C734 H724 0.930 . S
C734 C732 1.419 . S
C734 C735 1.362 . S
C735 H725 0.930 . S
C735 C728 1.409 . S
C735 C734 1.362 . S
H736 C742 0.930 . S
H737 C745 0.930 . S
H738 C746 0.930 . S
H739 C747 0.930 . S
H740 C750 0.930 . S
H741 C751 0.930 . S
C742 H736 0.930 . S
C742 C743 1.355 . S
C742 C744 1.415 . S
C743 C742 1.355 . S
C743 C745 1.419 . S
C744 C742 1.415 . S
C744 C749 1.425 . S
C744 C751 1.409 . S
C745 H737 0.930 . S
C745 C743 1.419 . S
C745 C746 1.362 . S
C746 H738 0.930 . S
C746 C745 1.362 . S
C746 C749 1.409 . S
C747 H739 0.930 . S
C747 C748 1.355 . S
C747 C749 1.415 . S
C748 C747 1.355 . S
C748 C750 1.419 . S
C749 C744 1.425 . S
C749 C746 1.409 . S
C749 C747 1.415 . S
C750 H740 0.930 . S
C750 C748 1.419 . S
C750 C751 1.362 . S
C751 H741 0.930 . S
C751 C744 1.409 . S
C751 C750 1.362 . S
H752 C758 0.930 . S
H753 C761 0.930 . S
H754 C762 0.930 . S
H755 C763 0.930 . S
H756 C766 0.930 . S
H757 C767 0.930 . S
C758 H752 0.930 . S
C758 C759 1.355 . S
C758 C760 1.415 . S
C759 C758 1.355 . S
C759 C761 1.419 . S
C760 C758 1.415 . S
C760 C765 1.425 . S
C760 C767 1.409 . S
C761 H753 0.930 . S
C761 C759 1.419 . S
C761 C762 1.362 . S
C762 H754 0.930 . S
C762 C761 1.362 . S
C762 C765 1.409 . S
C763 H755 0.930 . S
C763 C764 1.355 . S
C763 C765 1.415 . S
C764 C763 1.355 . S
C764 C766 1.419 . S
C765 C760 1.425 . S
C765 C762 1.409 . S
C765 C763 1.415 . S
C766 H756 0.930 . S
C766 C764 1.419 . S
C766 C767 1.362 . S
C767 H757 0.930 . S
C767 C760 1.409 . S
C767 C766 1.362 . S
H768 C774 0.930 . S
H769 C777 0.930 . S
H770 C778 0.930 . S
H771 C779 0.930 . S
H772 C782 0.930 . S
H773 C783 0.930 . S
C774 H768 0.930 . S
C774 C775 1.355 . S
C774 C776 1.415 . S
C775 C774 1.355 . S
C775 C777 1.419 . S
C776 C774 1.415 . S
C776 C781 1.425 . S
C776 C783 1.409 . S
C777 H769 0.930 . S
C777 C775 1.419 . S
C777 C778 1.362 . S
C778 H770 0.930 . S
C778 C777 1.362 . S
C778 C781 1.409 . S
C779 H771 0.930 . S
C779 C780 1.355 . S
C779 C781 1.415 . S
C780 C779 1.355 . S
C780 C782 1.419 . S
C781 C776 1.425 . S
C781 C778 1.409 . S
C781 C779 1.415 . S
C782 H772 0.930 . S
C782 C780 1.419 . S
C782 C783 1.362 . S
C783 H773 0.930 . S
C783 C776 1.409 . S
C783 C782 1.362 . S
H784 C790 0.930 . S
H785 C793 0.930 . S
H786 C794 0.930 . S
H787 C795 0.930 . S
H788 C798 0.930 . S
H789 C799 0.930 . S
C790 H784 0.930 . S
C790 C791 1.355 . S
C790 C792 1.415 . S
C791 C790 1.355 . S
C791 C793 1.419 . S
C792 C790 1.415 . S
C792 C797 1.425 . S
C792 C799 1.409 . S
C793 H785 0.930 . S
C793 C791 1.419 . S
C793 C794 1.362 . S
C794 H786 0.930 . S
C794 C793 1.362 . S
C794 C797 1.409 . S
C795 H787 0.930 . S
C795 C796 1.355 . S
C795 C797 1.415 . S
C796 C795 1.355 . S
C796 C798 1.419 . S
C797 C792 1.425 . S
C797 C794 1.409 . S
C797 C795 1.415 . S
C798 H788 0.930 . S
C798 C796 1.419 . S
C798 C799 1.362 . S
C799 H789 0.930 . S
C799 C792 1.409 . S
C799 C798 1.362 . S
H800 C806 0.930 . S
H801 C809 0.930 . S
H802 C810 0.930 . S
H803 C811 0.930 . S
H804 C814 0.930 . S
H805 C815 0.930 . S
C806 H800 0.930 . S
C806 C807 1.355 . S
C806 C808 1.415 . S
C807 C806 1.355 . S
C807 C809 1.419 . S
C808 C806 1.415 . S
C808 C813 1.425 . S
C808 C815 1.409 . S
C809 H801 0.930 . S
C809 C807 1.419 . S
C809 C810 1.362 . S
C810 H802 0.930 . S
C810 C809 1.362 . S
C810 C813 1.409 . S
C811 H803 0.930 . S
C811 C812 1.355 . S
C811 C813 1.415 . S
C812 C811 1.355 . S
C812 C814 1.419 . S
C813 C808 1.425 . S
C813 C810 1.409 . S
C813 C811 1.415 . S
C814 H804 0.930 . S
C814 C812 1.419 . S
C814 C815 1.362 . S
C815 H805 0.930 . S
C815 C808 1.409 . S
C815 C814 1.362 . S
H816 C822 0.930 . S
H817 C825 0.930 . S
H818 C826 0.930 . S
H819 C827 0.930 . S
H820 C830 0.930 . S
H821 C831 0.930 . S
C822 H816 0.930 . S
C822 C823 1.355 . S
C822 C824 1.415 . S
C823 C822 1.355 . S
C823 C825 1.419 . S
C824 C822 1.415 . S
C824 C829 1.425 . S
C824 C831 1.409 . S
C825 H817 0.930 . S
C825 C823 1.419 . S
C825 C826 1.362 . S
C826 H818 0.930 . S
C826 C825 1.362 . S
C826 C829 1.409 . S
C827 H819 0.930 . S
C827 C828 1.355 . S
C827 C829 1.415 . S
C828 C827 1.355 . S
C828 C830 1.419 . S
C829 C824 1.425 . S
C829 C826 1.409 . S
C829 C827 1.415 . S
C830 H820 0.930 . S
C830 C828 1.419 . S
C830 C831 1.362 . S
C831 H821 0.930 . S
C831 C824 1.409 . S
C831 C830 1.362 . S
H832 C838 0.930 . S
H833 C841 0.930 . S
H834 C842 0.930 . S
H835 C843 0.930 . S
H836 C846 0.930 . S
H837 C847 0.930 . S
C838 H832 0.930 . S
C838 C839 1.355 . S
C838 C840 1.415 . S
C839 C838 1.355 . S
C839 C841 1.419 . S
C840 C838 1.415 . S
C840 C845 1.425 . S
C840 C847 1.409 . S
C841 H833 0.930 . S
C841 C839 1.419 . S
C841 C842 1.362 . S
C842 H834 0.930 . S
C842 C841 1.362 . S
C842 C845 1.409 . S
C843 H835 0.930 . S
C843 C844 1.355 . S
C843 C845 1.415 . S
C844 C843 1.355 . S
C844 C846 1.419 . S
C845 C840 1.425 . S
C845 C842 1.409 . S
C845 C843 1.415 . S
C846 H836 0.930 . S
C846 C844 1.419 . S
C846 C847 1.362 . S
C847 H837 0.930 . S
C847 C840 1.409 . S
C847 C846 1.362 . S
H848 C854 0.930 . S
H849 C857 0.930 . S
H850 C858 0.930 . S
H851 C859 0.930 . S
H852 C862 0.930 . S
H853 C863 0.930 . S
C854 H848 0.930 . S
C854 C855 1.355 . S
C854 C856 1.415 . S
C855 C854 1.355 . S
C855 C857 1.419 . S
C856 C854 1.415 . S
C856 C861 1.425 . S
C856 C863 1.409 . S
C857 H849 0.930 . S
C857 C855 1.419 . S
C857 C858 1.362 . S
C858 H850 0.930 . S
C858 C857 1.362 . S
C858 C861 1.409 . S
C859 H851 0.930 . S
C859 C860 1.355 . S
C859 C861 1.415 . S
C860 C859 1.355 . S
C860 C862 1.419 . S
C861 C856 1.425 . S
C861 C858 1.409 . S
C861 C859 1.415 . S
C862 H852 0.930 . S
C862 C860 1.419 . S
C862 C863 1.362 . S
C863 H853 0.930 . S
C863 C856 1.409 . S
C863 C862 1.362 . S
H864 C870 0.930 . S
H865 C873 0.930 . S
H866 C874 0.930 . S
H867 C875 0.930 . S
H868 C878 0.930 . S
H869 C879 0.930 . S
C870 H864 0.930 . S
C870 C871 1.355 . S
C870 C872 1.415 . S
C871 C870 1.355 . S
C871 C873 1.419 . S
C872 C870 1.415 . S
C872 C877 1.425 . S
C872 C879 1.409 . S
C873 H865 0.930 . S
C873 C871 1.419 . S
C873 C874 1.362 . S
C874 H866 0.930 . S
C874 C873 1.362 . S
C874 C877 1.409 . S
C875 H867 0.930 . S
C875 C876 1.355 . S
C875 C877 1.415 . S
C876 C875 1.355 . S
C876 C878 1.419 . S
C877 C872 1.425 . S
C877 C874 1.409 . S
C877 C875 1.415 . S
C878 H868 0.930 . S
C878 C876 1.419 . S
C878 C879 1.362 . S
C879 H869 0.930 . S
C879 C872 1.409 . S
C879 C878 1.362 . S
H880 C886 0.930 . S
H881 C889 0.930 . S
H882 C890 0.930 . S
H883 C891 0.930 . S
H884 C894 0.930 . S
H885 C895 0.930 . S
C886 H880 0.930 . S
C886 C887 1.355 . S
C886 C888 1.415 . S
C887 C886 1.355 . S
C887 C889 1.419 . S
C888 C886 1.415 . S
C888 C893 1.425 . S
C888 C895 1.409 . S
C889 H881 0.930 . S
C889 C887 1.419 . S
C889 C890 1.362 . S
C890 H882 0.930 . S
C890 C889 1.362 . S
C890 C893 1.409 . S
C891 H883 0.930 . S
C891 C892 1.355 . S
C891 C893 1.415 . S
C892 C891 1.355 . S
C892 C894 1.419 . S
C893 C888 1.425 . S
C893 C890 1.409 . S
C893 C891 1.415 . S
C894 H884 0.930 . S
C894 C892 1.419 . S
C894 C895 1.362 . S
C895 H885 0.930 . S
C895 C888 1.409 . S
C895 C894 1.362 . S
H896 C902 0.930 . S
H897 C905 0.930 . S
H898 C906 0.930 . S
H899 C907 0.930 . S
H900 C910 0.930 . S
H901 C911 0.930 . S
C902 H896 0.930 . S
C902 C903 1.355 . S
C902 C904 1.415 . S
C903 C902 1.355 . S
C903 C905 1.419 . S
C904 C902 1.415 . S
C904 C909 1.425 . S
C904 C911 1.409 . S
C905 H897 0.930 . S
C905 C903 1.419 . S
C905 C906 1.362 . S
C906 H898 0.930 . S
C906 C905 1.362 . S
C906 C909 1.409 . S
C907 H899 0.930 . S
C907 C908 1.355 . S
C907 C909 1.415 . S
C908 C907 1.355 . S
C908 C910 1.419 . S
C909 C904 1.425 . S
C909 C906 1.409 . S
C909 C907 1.415 . S
C910 H900 0.930 . S
C910 C908 1.419 . S
C910 C911 1.362 . S
C911 H901 0.930 . S
C911 C904 1.409 . S
C911 C910 1.362 . S
H912 C918 0.930 . S
H913 C921 0.930 . S
H914 C922 0.930 . S
H915 C923 0.930 . S
H916 C926 0.930 . S
H917 C927 0.930 . S
C918 H912 0.930 . S
C918 C919 1.355 . S
C918 C920 1.415 . S
C919 C918 1.355 . S
C919 C921 1.419 . S
C920 C918 1.415 . S
C920 C925 1.425 . S
C920 C927 1.409 . S
C921 H913 0.930 . S
C921 C919 1.419 . S
C921 C922 1.362 . S
C922 H914 0.930 . S
C922 C921 1.362 . S
C922 C925 1.409 . S
C923 H915 0.930 . S
C923 C924 1.355 . S
C923 C925 1.415 . S
C924 C923 1.355 . S
C924 C926 1.419 . S
C925 C920 1.425 . S
C925 C922 1.409 . S
C925 C923 1.415 . S
C926 H916 0.930 . S
C926 C924 1.419 . S
C926 C927 1.362 . S
C927 H917 0.930 . S
C927 C920 1.409 . S
C927 C926 1.362 . S
H928 C934 0.930 . S
H929 C937 0.930 . S
H930 C938 0.930 . S
H931 C939 0.930 . S
H932 C942 0.930 . S
H933 C943 0.930 . S
C934 H928 0.930 . S
C934 C935 1.355 . S
C934 C936 1.415 . S
C935 C934 1.355 . S
C935 C937 1.419 . S
C936 C934 1.415 . S
C936 C941 1.425 . S
C936 C943 1.409 . S
C937 H929 0.930 . S
C937 C935 1.419 . S
C937 C938 1.362 . S
C938 H930 0.930 . S
C938 C937 1.362 . S
C938 C941 1.409 . S
C939 H931 0.930 . S
C939 C940 1.355 . S
C939 C941 1.415 . S
C940 C939 1.355 . S
C940 C942 1.419 . S
C941 C936 1.425 . S
C941 C938 1.409 . S
C941 C939 1.415 . S
C942 H932 0.930 . S
C942 C940 1.419 . S
C942 C943 1.362 . S
C943 H933 0.930 . S
C943 C936 1.409 . S
C943 C942 1.362 . S
H944 C950 0.930 . S
H945 C953 0.930 . S
H946 C954 0.930 . S
H947 C955 0.930 . S
H948 C958 0.930 . S
H949 C959 0.930 . S
C950 H944 0.930 . S
C950 C951 1.355 . S
C950 C952 1.415 . S
C951 C950 1.355 . S
C951 C953 1.419 . S
C952 C950 1.415 . S
C952 C957 1.425 . S
C952 C959 1.409 . S
C953 H945 0.930 . S
C953 C951 1.419 . S
C953 C954 1.362 . S
C954 H946 0.930 . S
C954 C953 1.362 . S
C954 C957 1.409 . S
C955 H947 0.930 . S
C955 C956 1.355 . S
C955 C957 1.415 . S
C956 C955 1.355 . S
C956 C958 1.419 . S
C957 C952 1.425 . S
C957 C954 1.409 . S
C957 C955 1.415 . S
C958 H948 0.930 . S
C958 C956 1.419 . S
C958 C959 1.362 . S
C959 H949 0.930 . S
C959 C952 1.409 . S
C959 C958 1.362 . S
H960 C966 0.930 . S
H961 C969 0.930 . S
H962 C970 0.930 . S
H963 C971 0.930 . S
H964 C974 0.930 . S
H965 C975 0.930 . S
C966 H960 0.930 . S
C966 C967 1.355 . S
C966 C968 1.415 . S
C967 C966 1.355 . S
C967 C969 1.419 . S
C968 C966 1.415 . S
C968 C973 1.425 1_556 S
C968 C975 1.409 . S
C969 H961 0.930 . S
C969 C967 1.419 . S
C969 C970 1.362 1_556 S
C970 H962 0.930 . S
C970 C969 1.362 1_554 S
C970 C973 1.409 . S
C971 H963 0.930 . S
C971 C972 1.355 . S
C971 C973 1.415 . S
C972 C971 1.355 . S
C972 C974 1.419 . S
C973 C968 1.425 1_554 S
C973 C970 1.409 . S
C973 C971 1.415 . S
C974 H964 0.930 . S
C974 C972 1.419 . S
C974 C975 1.362 1_554 S
C975 H965 0.930 . S
C975 C968 1.409 . S
C975 C974 1.362 1_556 S
H976 C982 0.930 . S
H977 C985 0.930 . S
H978 C986 0.930 . S
H979 C987 0.930 . S
H980 C990 0.930 . S
H981 C991 0.930 . S
C982 H976 0.930 . S
C982 C983 1.355 . S
C982 C984 1.415 . S
C983 C982 1.355 . S
C983 C985 1.419 . S
C984 C982 1.415 . S
C984 C989 1.425 1_455 S
C984 C991 1.409 . S
C985 H977 0.930 . S
C985 C983 1.419 . S
C985 C986 1.362 1_455 S
C986 H978 0.930 . S
C986 C985 1.362 1_655 S
C986 C989 1.409 . S
C987 H979 0.930 . S
C987 C988 1.355 . S
C987 C989 1.415 . S
C988 C987 1.355 . S
C988 C990 1.419 . S
C989 C984 1.425 1_655 S
C989 C986 1.409 . S
C989 C987 1.415 . S
C990 H980 0.930 . S
C990 C988 1.419 . S
C990 C991 1.362 1_655 S
C991 H981 0.930 . S
C991 C984 1.409 . S
C991 C990 1.362 1_455 S
H992 C998 0.947 . S
H993 C1001 0.930 . S
H994 C1002 0.930 . S
H995 C1003 0.947 . S
H996 C1006 0.930 . S
H997 C1007 0.930 . S
C998 H992 0.947 . S
C998 C999 1.329 1_556 S
C998 C1000 1.423 . S
C999 C998 1.329 1_554 S
C999 C1001 1.419 . S
C1000 C998 1.423 . S
C1000 C1005 1.425 1_566 S
C1000 C1007 1.409 . S
C1001 H993 0.930 . S
C1001 C999 1.419 . S
C1001 C1002 1.362 1_565 S
C1002 H994 0.930 . S
C1002 C1001 1.362 1_545 S
C1002 C1005 1.409 . S
C1003 H995 0.947 . S
C1003 C1004 1.329 1_554 S
C1003 C1005 1.423 . S
C1004 C1003 1.329 1_556 S
C1004 C1006 1.419 . S
C1005 C1000 1.425 1_544 S
C1005 C1002 1.409 . S
C1005 C1003 1.423 . S
C1006 H996 0.930 . S
C1006 C1004 1.419 . S
C1006 C1007 1.362 1_545 S
C1007 H997 0.930 . S
C1007 C1000 1.409 . S
C1007 C1006 1.362 1_565 S
H1008 C1014 0.930 . S
H1009 C1017 0.930 . S
H1010 C1018 0.930 . S
H1011 C1019 0.930 . S
H1012 C1022 0.930 . S
H1013 C1023 0.930 . S
C1014 H1008 0.930 . S
C1014 C1015 1.355 . S
C1014 C1016 1.415 . S
C1015 C1014 1.355 . S
C1015 C1017 1.419 . S
C1016 C1014 1.415 . S
C1016 C1021 1.425 . S
C1016 C1023 1.409 . S
C1017 H1009 0.930 . S
C1017 C1015 1.419 . S
C1017 C1018 1.362 . S
C1018 H1010 0.930 . S
C1018 C1017 1.362 . S
C1018 C1021 1.409 . S
C1019 H1011 0.930 . S
C1019 C1020 1.355 . S
C1019 C1021 1.415 . S
C1020 C1019 1.355 . S
C1020 C1022 1.419 . S
C1021 C1016 1.425 . S
C1021 C1018 1.409 . S
C1021 C1019 1.415 . S
C1022 H1012 0.930 . S
C1022 C1020 1.419 . S
C1022 C1023 1.362 . S
C1023 H1013 0.930 . S
C1023 C1016 1.409 . S
C1023 C1022 1.362 . S
H1024 C1030 0.930 . S
H1025 C1033 0.930 . S
H1026 C1034 0.930 . S
H1027 C1035 0.930 . S
H1028 C1038 0.930 . S
H1029 C1039 0.930 . S
C1030 H1024 0.930 . S
C1030 C1031 1.355 . S
C1030 C1032 1.415 . S
C1031 C1030 1.355 . S
C1031 C1033 1.419 . S
C1032 C1030 1.415 . S
C1032 C1037 1.425 1_656 S
C1032 C1039 1.409 1_656 S
C1033 H1025 0.930 . S
C1033 C1031 1.419 . S
C1033 C1034 1.362 . S
C1034 H1026 0.930 . S
C1034 C1033 1.362 . S
C1034 C1037 1.409 1_656 S
C1035 H1027 0.930 . S
C1035 C1036 1.355 . S
C1035 C1037 1.415 . S
C1036 C1035 1.355 . S
C1036 C1038 1.419 . S
C1037 C1032 1.425 1_454 S
C1037 C1034 1.409 1_454 S
C1037 C1035 1.415 . S
C1038 H1028 0.930 . S
C1038 C1036 1.419 . S
C1038 C1039 1.362 . S
C1039 H1029 0.930 . S
C1039 C1032 1.409 1_454 S
C1039 C1038 1.362 . S
H1040 C1046 0.930 . S
H1041 C1049 0.930 . S
H1042 C1050 0.930 . S
H1043 C1051 0.930 . S
H1044 C1054 0.930 . S
H1045 C1055 0.930 . S
C1046 H1040 0.930 . S
C1046 C1047 1.355 . S
C1046 C1048 1.415 . S
C1047 C1046 1.355 . S
C1047 C1049 1.419 . S
C1048 C1046 1.415 . S
C1048 C1053 1.425 1_565 S
C1048 C1055 1.409 . S
C1049 H1041 0.930 . S
C1049 C1047 1.419 . S
C1049 C1050 1.362 1_565 S
C1050 H1042 0.930 . S
C1050 C1049 1.362 1_545 S
C1050 C1053 1.409 . S
C1051 H1043 0.930 . S
C1051 C1052 1.355 . S
C1051 C1053 1.415 . S
C1052 C1051 1.355 . S
C1052 C1054 1.419 . S
C1053 C1048 1.425 1_545 S
C1053 C1050 1.409 . S
C1053 C1051 1.415 . S
C1054 H1044 0.930 . S
C1054 C1052 1.419 . S
C1054 C1055 1.362 1_545 S
C1055 H1045 0.930 . S
C1055 C1048 1.409 . S
C1055 C1054 1.362 1_565 S
C487 C179 1.278 . S
C492 C15 1.365 . S
C503 C219 1.258 . S
C508 C55 1.342 . S
C519 C95 1.396 . S
C524 C19 1.357 . S
C535 C135 1.344 . S
C540 C59 1.273 . S
C551 C175 1.358 . S
C556 C99 1.267 . S
C567 C139 1.255 . S
C572 C215 1.345 . S
C583 C339 1.348 . S
C588 C255 1.384 . S
C599 C295 1.382 . S
C604 C379 1.346 . S
C615 C419 1.255 . S
C620 C335 1.345 . S
C631 C375 1.393 . S
C636 C459 1.334 . S
C647 C415 1.395 . S
C652 C259 1.357 . S
C663 C299 1.257 . S
C668 C455 1.342 . S
C679 C170 1.769 . S
C684 C6 1.791 . S
C695 C46 1.810 . S
C700 C210 1.813 . S
C711 C86 1.786 . S
C716 C10 1.807 . S
C727 C126 1.757 . S
C732 C50 1.771 . S
C743 C90 1.798 . S
C748 C166 1.775 . S
C759 C130 1.811 . S
C764 C206 1.793 . S
C775 C330 1.798 . S
C780 C246 1.812 . S
C791 C286 1.813 . S
C796 C370 1.802 . S
C807 C326 1.786 . S
C812 C410 1.807 . S
C823 C450 1.769 . S
C828 C366 1.756 . S
C839 C406 1.757 . S
C844 C250 1.772 . S
C855 C290 1.764 . S
C860 C446 1.783 . S
C871 C418 1.610 . S
C876 C18 1.642 . S
C887 C58 1.644 . S
C892 C458 1.625 . S
C903 C98 1.640 . S
C908 C258 1.640 . S
C919 C138 1.558 . S
C924 C298 1.591 . S
C935 C178 1.626 . S
C940 C338 1.644 . S
C951 C378 1.564 . S
C956 C218 1.603 . S
C967 C369 2.325 . S
C972 C9 2.328 . S
C983 C409 2.309 . S
C988 C49 2.311 . S
C999 C89 2.309 . S
C1004 C449 2.311 . S
C1015 C129 2.319 . S
C1020 C249 2.322 . S
C1031 C289 2.318 . S
C1036 C169 2.315 . S
C1047 C329 2.308 . S
C1052 C209 2.308 . S
