# Generated by pormake.
# Topology wjh, (4)-cn, num edge types: 1
# Building blocks:
#     Node 0, Type 0, BuildingBlock: QUQFOY_clean_sbu_3, # of connection points: 4
#     Node 1, Type 0, BuildingBlock: QUQFOY_clean_sbu_3, # of connection points: 4
#     Node 2, Type 0, BuildingBlock: QUQFOY_clean_sbu_3, # of connection points: 4
#     Node 3, Type 0, BuildingBlock: QUQFOY_clean_sbu_3, # of connection points: 4
#     Node 4, Type 0, BuildingBlock: QUQFOY_clean_sbu_3, # of connection points: 4
#     Node 5, Type 0, BuildingBlock: QUQFOY_clean_sbu_3, # of connection points: 4
#     Node 6, Type 0, BuildingBlock: QUQFOY_clean_sbu_3, # of connection points: 4
#     Node 7, Type 0, BuildingBlock: QUQFOY_clean_sbu_3, # of connection points: 4
#     Node 8, Type 0, BuildingBlock: QUQFOY_clean_sbu_3, # of connection points: 4
#     Node 9, Type 0, BuildingBlock: QUQFOY_clean_sbu_3, # of connection points: 4
#     Node 10, Type 0, BuildingBlock: QUQFOY_clean_sbu_3, # of connection points: 4
#     Node 11, Type 0, BuildingBlock: QUQFOY_clean_sbu_3, # of connection points: 4
#     Edge 12, Type (0, 0), BuildingBlock: TEMPAE_clean_linker_10, # of connection points: 2
#     Edge 13, Type (0, 0), BuildingBlock: TEMPAE_clean_linker_10, # of connection points: 2
#     Edge 14, Type (0, 0), BuildingBlock: TEMPAE_clean_linker_10, # of connection points: 2
#     Edge 15, Type (0, 0), BuildingBlock: TEMPAE_clean_linker_10, # of connection points: 2
#     Edge 16, Type (0, 0), BuildingBlock: TEMPAE_clean_linker_10, # of connection points: 2
#     Edge 17, Type (0, 0), BuildingBlock: TEMPAE_clean_linker_10, # of connection points: 2
#     Edge 18, Type (0, 0), BuildingBlock: TEMPAE_clean_linker_10, # of connection points: 2
#     Edge 19, Type (0, 0), BuildingBlock: TEMPAE_clean_linker_10, # of connection points: 2
#     Edge 20, Type (0, 0), BuildingBlock: TEMPAE_clean_linker_10, # of connection points: 2
#     Edge 21, Type (0, 0), BuildingBlock: TEMPAE_clean_linker_10, # of connection points: 2
#     Edge 22, Type (0, 0), BuildingBlock: TEMPAE_clean_linker_10, # of connection points: 2
#     Edge 23, Type (0, 0), BuildingBlock: TEMPAE_clean_linker_10, # of connection points: 2
#     Edge 24, Type (0, 0), BuildingBlock: TEMPAE_clean_linker_10, # of connection points: 2
#     Edge 25, Type (0, 0), BuildingBlock: TEMPAE_clean_linker_10, # of connection points: 2
#     Edge 26, Type (0, 0), BuildingBlock: TEMPAE_clean_linker_10, # of connection points: 2
#     Edge 27, Type (0, 0), BuildingBlock: TEMPAE_clean_linker_10, # of connection points: 2
#     Edge 28, Type (0, 0), BuildingBlock: TEMPAE_clean_linker_10, # of connection points: 2
#     Edge 29, Type (0, 0), BuildingBlock: TEMPAE_clean_linker_10, # of connection points: 2
#     Edge 30, Type (0, 0), BuildingBlock: TEMPAE_clean_linker_10, # of connection points: 2
#     Edge 31, Type (0, 0), BuildingBlock: TEMPAE_clean_linker_10, # of connection points: 2
#     Edge 32, Type (0, 0), BuildingBlock: TEMPAE_clean_linker_10, # of connection points: 2
#     Edge 33, Type (0, 0), BuildingBlock: TEMPAE_clean_linker_10, # of connection points: 2
#     Edge 34, Type (0, 0), BuildingBlock: TEMPAE_clean_linker_10, # of connection points: 2
#     Edge 35, Type (0, 0), BuildingBlock: TEMPAE_clean_linker_10, # of connection points: 2
# Relax obj value: 0.075
# Max RMSD: 0.098
# Mean RMSD: 0.098
data_MOF--net-wjh--node1-QUQFOY_clean_sbu_3--edge1-TEMPAE_clean_linker_10
_symmetry_space_group_name_H-M    P1
_symmetry_Int_Tables_number       1
_symmetry_cell_setting            triclinic
loop_
_symmetry_equiv_pos_as_xyz
'x, y, z'
_cell_length_a     64.700537
_cell_length_b     64.66424
_cell_length_c     27.882891
_cell_angle_alpha  89.923653
_cell_angle_beta   90.086357
_cell_angle_gamma 120.05421
loop_
_atom_site_label
_atom_site_type_symbol
_atom_site_fract_x
_atom_site_fract_y
_atom_site_fract_z
_atom_type_partial_charge
C0 C 0.5272 0.13147 0.95371 0.0
O1 O 0.53609 0.1229 -0.01723 0.0
Cd2 Cd 0.52855 0.11624 0.06603 0.0
O3 O 0.51185 0.13708 0.96774 0.0
Cd4 Cd 0.49174 0.13382 0.0467 0.0
C5 C 0.46919 0.07441 0.05638 0.0
O6 O 0.52797 0.15044 0.09437 0.0
O7 O 0.49529 0.1316 0.13405 0.0
O8 O 0.49043 0.17037 0.03178 0.0
C9 C 0.51775 0.1451 0.1347 0.0
O10 O 0.48992 0.07983 0.07128 0.0
C11 C 0.46975 0.1626 0.04944 0.0
O12 O 0.46505 0.09045 0.04032 0.0
O13 O 0.45842 0.14071 0.06136 0.0
C14 C 0.38479 0.53688 0.12001 0.0
O15 O 0.40201 0.54577 0.14961 0.0
Cd16 Cd 0.40049 0.53774 0.23278 0.0
O17 O 0.36374 0.52133 0.13339 0.0
Cd18 Cd 0.34607 0.50079 0.21172 0.0
C19 C 0.38292 0.47831 0.22261 0.0
O20 O 0.3654 0.53678 0.26001 0.0
O21 O 0.35108 0.50387 0.29922 0.0
O22 O 0.30864 0.50007 0.19532 0.0
C23 C 0.36017 0.52635 0.30017 0.0
O24 O 0.39813 0.49905 0.23767 0.0
C25 C 0.29531 0.47936 0.21264 0.0
O26 O 0.36279 0.4741 0.20613 0.0
O27 O 0.30545 0.46771 0.22499 0.0
C28 C 0.82791 0.38254 0.28669 0.0
O29 O 0.83269 0.39965 0.31515 0.0
Cd30 Cd 0.84582 0.40212 0.39536 0.0
O31 O 0.82822 0.36388 0.30073 0.0
Cd32 Cd 0.83345 0.34838 0.37988 0.0
C33 C 0.89153 0.38921 0.37977 0.0
O34 O 0.81592 0.36624 0.42991 0.0
O35 O 0.83839 0.35571 0.46668 0.0
O36 O 0.79749 0.31022 0.36553 0.0
C37 C 0.82365 0.36313 0.46932 0.0
O38 O 0.88441 0.40361 0.39206 0.0
C39 C 0.80544 0.29753 0.38362 0.0
O40 O 0.87661 0.36759 0.36913 0.0
O41 O 0.82731 0.30835 0.3957 0.0
C42 C 0.42588 0.84036 0.46247 0.0
O43 O 0.41697 0.84798 0.4935 0.0
Cd44 Cd 0.42744 0.8556 0.57554 0.0
O45 O 0.44255 0.8361 0.47378 0.0
Cd46 Cd 0.46522 0.83997 0.54976 0.0
C47 C 0.48601 0.89907 0.55892 0.0
O48 O 0.43054 0.82239 0.60156 0.0
O49 O 0.46419 0.84245 0.63764 0.0
O50 O 0.46696 0.80396 0.53176 0.0
C51 C 0.44191 0.82822 0.64068 0.0
O52 O 0.46548 0.89298 0.57597 0.0
C53 C 0.48807 0.81201 0.54744 0.0
O54 O 0.49054 0.88343 0.54217 0.0
O55 O 0.49937 0.83387 0.55948 0.0
C56 C 0.57452 0.43833 0.62334 0.0
O57 O 0.55721 0.42956 0.65268 0.0
Cd58 Cd 0.55869 0.43761 0.73581 0.0
O59 O 0.59558 0.45375 0.63697 0.0
Cd60 Cd 0.61327 0.47431 0.71522 0.0
C61 C 0.57665 0.49712 0.72503 0.0
O62 O 0.59365 0.43829 0.76341 0.0
O63 O 0.6083 0.47116 0.80277 0.0
O64 O 0.65053 0.4748 0.69845 0.0
C65 C 0.59895 0.44865 0.80362 0.0
O66 O 0.56131 0.47642 0.74011 0.0
C67 C 0.66402 0.4955 0.71566 0.0
O68 O 0.59678 0.50117 0.70895 0.0
O69 O 0.65402 0.50722 0.72839 0.0
C70 C 0.1256 0.58239 0.79465 0.0
O71 O 0.11862 0.56599 0.82598 0.0
Cd72 Cd 0.11182 0.56907 0.90846 0.0
O73 O 0.12953 0.60323 0.80577 0.0
Cd74 Cd 0.12594 0.62211 0.88156 0.0
C75 C 0.06726 0.5827 0.89369 0.0
O76 O 0.14457 0.60599 0.93327 0.0
O77 O 0.12424 0.61921 0.9694 0.0
O78 O 0.1615 0.6599 0.86179 0.0
C79 C 0.13882 0.61159 0.97237 0.0
O80 O 0.07406 0.56882 0.91088 0.0
C81 C 0.15354 0.67297 0.87768 0.0
O82 O 0.08226 0.60284 0.87565 0.0
O83 O 0.1318 0.66236 0.89052 0.0
C84 C 0.8271 0.43223 0.94833 0.0
O85 O 0.83211 0.42036 0.91913 0.0
Cd86 Cd 0.8449 0.43178 0.83899 0.0
O87 O 0.82697 0.4511 0.93516 0.0
Cd88 Cd 0.8316 0.47241 0.85697 0.0
C89 C 0.88996 0.49066 0.85613 0.0
O90 O 0.81453 0.43741 0.80581 0.0
O91 O 0.83625 0.47085 0.76984 0.0
O92 O 0.7953 0.47378 0.87246 0.0
C93 C 0.82194 0.44857 0.76666 0.0
O94 O 0.88319 0.46931 0.84306 0.0
C95 C 0.80305 0.49464 0.85568 0.0
O96 O 0.87477 0.49688 0.86739 0.0
O97 O 0.82491 0.50611 0.84368 0.0
C98 C 0.38041 0.84142 0.11828 0.0
O99 O 0.39768 0.84964 0.08886 0.0
Cd100 Cd 0.39651 0.85622 0.00562 0.0
O101 O 0.35944 0.83609 0.10468 0.0
Cd102 Cd 0.34217 0.83929 0.02605 0.0
C103 C 0.37967 0.89857 0.01578 0.0
O104 O 0.36123 0.82234 0.97794 0.0
O105 O 0.34747 0.8414 0.93866 0.0
O106 O 0.30428 0.80289 0.0415 0.0
C107 C 0.35628 0.82779 0.93773 0.0
O108 O 0.3947 0.89284 0.00071 0.0
C109 C 0.29135 0.81071 0.02406 0.0
O110 O 0.35945 0.88276 0.03212 0.0
O111 O 0.30194 0.8326 0.01212 0.0
C112 C 0.52963 0.39099 0.27934 0.0
O113 O 0.53859 0.4075 0.24815 0.0
Cd114 Cd 0.52811 0.40451 0.16608 0.0
O115 O 0.51299 0.37001 0.26812 0.0
Cd116 Cd 0.49055 0.35091 0.19213 0.0
C117 C 0.46927 0.38869 0.18217 0.0
O118 O 0.52521 0.36832 0.14021 0.0
O119 O 0.49149 0.35446 0.10427 0.0
O120 O 0.48964 0.3136 0.21071 0.0
C121 C 0.5138 0.36273 0.10113 0.0
O122 O 0.48984 0.40325 0.16538 0.0
C123 C 0.46863 0.30013 0.19496 0.0
O124 O 0.46479 0.36855 0.19916 0.0
O125 O 0.45694 0.31024 0.18263 0.0
C126 C 0.12474 0.53661 0.4501 0.0
O127 O 0.11665 0.54575 0.42051 0.0
Cd128 Cd 0.11093 0.53858 0.33689 0.0
O129 O 0.1303 0.52116 0.43653 0.0
Cd130 Cd 0.12775 0.50113 0.35794 0.0
C131 C 0.06857 0.47933 0.34515 0.0
O132 O 0.145 0.53737 0.31016 0.0
O133 O 0.12639 0.5046 0.27057 0.0
O134 O 0.16417 0.49995 0.37486 0.0
C135 C 0.13991 0.52706 0.26988 0.0
O136 O 0.07442 0.50013 0.32995 0.0
C137 C 0.15668 0.4793 0.35722 0.0
O138 O 0.08418 0.4749 0.36253 0.0
O139 O 0.13492 0.46785 0.34451 0.0
C140 C 0.57465 0.13443 0.60987 0.0
O141 O 0.55833 0.1272 0.57832 0.0
Cd142 Cd 0.56146 0.11967 0.49636 0.0
O143 O 0.59553 0.13838 0.59921 0.0
Cd144 Cd 0.61476 0.13457 0.52397 0.0
C145 C 0.57573 0.07563 0.51381 0.0
O146 O 0.59827 0.15248 0.47129 0.0
O147 O 0.61194 0.13235 0.43598 0.0
O148 O 0.65256 0.17033 0.54303 0.0
C149 C 0.60391 0.14658 0.43243 0.0
O150 O 0.56158 0.08204 0.49639 0.0
C151 C 0.6656 0.16208 0.52855 0.0
O152 O 0.59592 0.09101 0.53099 0.0
O153 O 0.65495 0.14021 0.51654 0.0
C154 C 0.4302 0.58407 0.77606 0.0
O155 O 0.42138 0.56749 0.74505 0.0
Cd156 Cd 0.43171 0.57046 0.66297 0.0
O157 O 0.44664 0.60512 0.76465 0.0
Cd158 Cd 0.46894 0.62411 0.68848 0.0
C159 C 0.49061 0.58664 0.67925 0.0
O160 O 0.43414 0.60644 0.63681 0.0
O161 O 0.46778 0.62034 0.60066 0.0
O162 O 0.46985 0.66145 0.70659 0.0
C163 C 0.44546 0.61202 0.59766 0.0
O164 O 0.47009 0.57196 0.66234 0.0
C165 C 0.49077 0.67489 0.69045 0.0
O166 O 0.49492 0.60674 0.69607 0.0
O167 O 0.50244 0.66477 0.67816 0.0
C168 C 0.52059 0.13675 0.22094 0.0
C169 C 0.53166 0.14951 0.17914 0.0
C170 C 0.53407 0.13875 0.2618 0.0
C171 C 0.55913 0.15415 0.26088 0.0
C172 C 0.57027 0.16797 0.21958 0.0
C173 C 0.55638 0.16536 0.17898 0.0
C174 C 0.52161 0.12364 0.30524 0.0
C175 C 0.5969 0.1849 0.21776 0.0
C176 C 0.58827 0.16786 0.38318 0.0
C177 C 0.59566 0.15088 0.38626 0.0
C178 C 0.57745 0.17005 0.34144 0.0
C179 C 0.57368 0.15465 0.30234 0.0
C180 C 0.58215 0.13828 0.30439 0.0
C181 C 0.59324 0.13673 0.34632 0.0
C182 C 0.56906 0.18803 0.34006 0.0
C183 C 0.57831 0.12149 0.26337 0.0
H184 H 0.50148 0.1245 0.2212 0.0
H185 H 0.56496 0.17542 0.14677 0.0
H186 H 0.52814 0.11097 0.31207 0.0
H187 H 0.52581 0.13509 0.33749 0.0
H188 H 0.5019 0.11323 0.30073 0.0
H189 H 0.60242 0.19598 0.18469 0.0
H190 H 0.60279 0.19691 0.24939 0.0
H191 H 0.60636 0.17458 0.21906 0.0
H192 H 0.59037 0.17901 0.4139 0.0
H193 H 0.59898 0.12362 0.34856 0.0
H194 H 0.54926 0.17855 0.34071 0.0
H195 H 0.57491 0.19856 0.30636 0.0
H196 H 0.57588 0.20053 0.37097 0.0
H197 H 0.55891 0.1089 0.25868 0.0
H198 H 0.58735 0.11095 0.26943 0.0
H199 H 0.58502 0.13161 0.22939 0.0
C200 C 0.37841 0.56478 0.34504 0.0
C201 C 0.36952 0.54005 0.34485 0.0
C202 C 0.38967 0.5785 0.3858 0.0
C203 C 0.39233 0.56719 0.42686 0.0
C204 C 0.38259 0.54211 0.42747 0.0
C205 C 0.37111 0.52879 0.38647 0.0
C206 C 0.39945 0.60515 0.38433 0.0
C207 C 0.38522 0.52947 0.47066 0.0
C208 C 0.4442 0.60114 0.51163 0.0
C209 C 0.43264 0.60358 0.55181 0.0
C210 C 0.43137 0.59005 0.4699 0.0
C211 C 0.40653 0.5816 0.46829 0.0
C212 C 0.39506 0.58534 0.50769 0.0
C213 C 0.40826 0.59615 0.54924 0.0
C214 C 0.44415 0.58623 0.42855 0.0
C215 C 0.3687 0.57699 0.50676 0.0
H216 H 0.37699 0.57349 0.31298 0.0
H217 H 0.36423 0.50967 0.38645 0.0
H218 H 0.39348 0.61097 0.41627 0.0
H219 H 0.41924 0.6146 0.38527 0.0
H220 H 0.3938 0.61079 0.35154 0.0
H221 H 0.37577 0.50977 0.46599 0.0
H222 H 0.40442 0.53588 0.47722 0.0
H223 H 0.37812 0.53366 0.50312 0.0
H224 H 0.46306 0.60691 0.5135 0.0
H225 H 0.39935 0.59827 0.58016 0.0
H226 H 0.44076 0.59312 0.39478 0.0
H227 H 0.43717 0.56681 0.4236 0.0
H228 H 0.46375 0.59514 0.43441 0.0
H229 H 0.36395 0.58297 0.47331 0.0
H230 H 0.36314 0.58372 0.53796 0.0
H231 H 0.35831 0.55718 0.5072 0.0
C232 C 0.83246 0.44737 0.68111 0.0
C233 C 0.81859 0.43556 0.72136 0.0
C234 C 0.83135 0.43464 0.63967 0.0
C235 C 0.81583 0.40959 0.63846 0.0
C236 C 0.80097 0.39774 0.67814 0.0
C237 C 0.8026 0.41088 0.71928 0.0
C238 C 0.8475 0.44785 0.59793 0.0
C239 C 0.78398 0.37109 0.67776 0.0
C240 C 0.80348 0.38087 0.51575 0.0
C241 C 0.81997 0.37283 0.51422 0.0
C242 C 0.80134 0.39221 0.55666 0.0
C243 C 0.8162 0.3957 0.59665 0.0
C244 C 0.8323 0.3869 0.59594 0.0
C245 C 0.8339 0.37542 0.55472 0.0
C246 C 0.78375 0.40109 0.55652 0.0
C247 C 0.84846 0.39038 0.63802 0.0
H248 H 0.8448 0.46646 0.68255 0.0
H249 H 0.7917 0.40171 0.75024 0.0
H250 H 0.86039 0.44152 0.59232 0.0
H251 H 0.83688 0.4441 0.56452 0.0
H252 H 0.85767 0.46748 0.60371 0.0
H253 H 0.77225 0.36495 0.70987 0.0
H254 H 0.77261 0.36584 0.64517 0.0
H255 H 0.79427 0.36159 0.67668 0.0
H256 H 0.79253 0.37871 0.48459 0.0
H257 H 0.84663 0.36919 0.55372 0.0
H258 H 0.79352 0.4209 0.55797 0.0
H259 H 0.77218 0.39453 0.58875 0.0
H260 H 0.77223 0.3953 0.52405 0.0
H261 H 0.86078 0.40974 0.64397 0.0
H262 H 0.85927 0.38159 0.63245 0.0
H263 H 0.83775 0.38308 0.67117 0.0
C264 C 0.40479 0.80657 0.68908 0.0
C265 C 0.42914 0.82367 0.68657 0.0
C266 C 0.3916 0.80406 0.73063 0.0
C267 C 0.40304 0.81926 0.77013 0.0
C268 C 0.42787 0.83577 0.76861 0.0
C269 C 0.4407 0.83764 0.72686 0.0
C270 C 0.36524 0.78594 0.73144 0.0
C271 C 0.44063 0.85235 0.81007 0.0
C272 C 0.36745 0.83646 0.85159 0.0
C273 C 0.36577 0.82354 0.89318 0.0
C274 C 0.37904 0.83471 0.81075 0.0
C275 C 0.3888 0.81941 0.81145 0.0
C276 C 0.38608 0.8054 0.85248 0.0
C277 C 0.3747 0.80775 0.89308 0.0
C278 C 0.38172 0.85002 0.76759 0.0
C279 C 0.3959 0.78858 0.85405 0.0
H280 H 0.39588 0.79555 0.65808 0.0
H281 H 0.45954 0.85083 0.72505 0.0
H282 H 0.3605 0.77521 0.76488 0.0
H283 H 0.35482 0.79531 0.73089 0.0
H284 H 0.35972 0.77363 0.70023 0.0
H285 H 0.46024 0.86305 0.80437 0.0
H286 H 0.43368 0.8648 0.81496 0.0
H287 H 0.43718 0.84204 0.84382 0.0
H288 H 0.36054 0.84865 0.85153 0.0
H289 H 0.37322 0.79757 0.92511 0.0
H290 H 0.37464 0.83873 0.73507 0.0
H291 H 0.40092 0.86284 0.76118 0.0
H292 H 0.37228 0.86026 0.77219 0.0
H293 H 0.38997 0.77679 0.82209 0.0
H294 H 0.39024 0.77728 0.88682 0.0
H295 H 0.4157 0.79901 0.85324 0.0
C296 C 0.55085 0.37852 0.05243 0.0
C297 C 0.5265 0.37119 0.05521 0.0
C298 C 0.56396 0.38938 0.01084 0.0
C299 C 0.55244 0.39324 0.9716 0.0
C300 C 0.52762 0.38488 0.9734 0.0
C301 C 0.51487 0.37375 0.01517 0.0
C302 C 0.5903 0.39762 0.0097 0.0
C303 C 0.51478 0.38884 0.93223 0.0
C304 C 0.58798 0.44612 0.88988 0.0
C305 C 0.58948 0.43488 0.84822 0.0
C306 C 0.57646 0.43276 0.93082 0.0
C307 C 0.56658 0.40766 0.93013 0.0
C308 C 0.5691 0.39636 0.88899 0.0
C309 C 0.58041 0.41012 0.8483 0.0
C310 C 0.57397 0.44539 0.97408 0.0
C311 C 0.55916 0.36968 0.88741 0.0
H312 H 0.55981 0.37632 0.08324 0.0
H313 H 0.49603 0.36805 0.0172 0.0
H314 H 0.59492 0.39163 0.97617 0.0
H315 H 0.60076 0.41743 0.01014 0.0
H316 H 0.59591 0.39083 0.04082 0.0
H317 H 0.4952 0.37997 0.93821 0.0
H318 H 0.52182 0.40827 0.9274 0.0
H319 H 0.51806 0.38198 0.89836 0.0
H320 H 0.59499 0.46526 0.88994 0.0
H321 H 0.58174 0.40142 0.8162 0.0
H322 H 0.58111 0.44114 0.00647 0.0
H323 H 0.5548 0.43903 -0.01924 0.0
H324 H 0.58346 0.4651 0.96944 0.0
H325 H 0.56519 0.36377 0.91919 0.0
H326 H 0.56461 0.36401 0.85447 0.0
H327 H 0.53937 0.36034 0.88861 0.0
C328 C 0.13183 0.52967 0.18344 0.0
C329 C 0.14445 0.54089 0.2253 0.0
C330 C 0.13371 0.54306 0.14252 0.0
C331 C 0.14886 0.56817 0.14342 0.0
C332 C 0.16265 0.57945 0.18467 0.0
C333 C 0.16015 0.56565 0.22537 0.0
C334 C 0.11863 0.53044 0.09913 0.0
C335 C 0.17933 0.60613 0.18643 0.0
C336 C 0.16122 0.59697 0.02091 0.0
C337 C 0.14382 0.6038 0.01838 0.0
C338 C 0.16406 0.58654 0.06261 0.0
C339 C 0.14889 0.5826 0.10218 0.0
C340 C 0.13213 0.59059 0.10068 0.0
C341 C 0.12994 0.6013 0.0588 0.0
C342 C 0.18247 0.57871 0.06344 0.0
C343 C 0.11555 0.58654 0.14221 0.0
H344 H 0.11971 0.51053 0.18324 0.0
H345 H 0.17011 0.57433 0.2576 0.0
H346 H 0.10567 0.53663 0.09258 0.0
H347 H 0.13002 0.53488 0.06676 0.0
H348 H 0.10855 0.51071 0.10356 0.0
H349 H 0.19068 0.61174 0.21913 0.0
H350 H 0.19106 0.61221 0.15439 0.0
H351 H 0.1688 0.61538 0.18598 0.0
H352 H 0.17218 0.59916 -0.01019 0.0
H353 H 0.11652 0.60664 0.05699 0.0
H354 H 0.17337 0.55892 0.06248 0.0
H355 H 0.19306 0.58463 0.09705 0.0
H356 H 0.19486 0.58585 0.03241 0.0
H357 H 0.10325 0.56709 0.1471 0.0
H358 H 0.1047 0.59529 0.13656 0.0
H359 H 0.12587 0.59346 0.17592 0.0
C360 C 0.47332 0.26415 0.19779 0.0
C361 C 0.46029 0.27492 0.18247 0.0
C362 C 0.46984 0.243 0.17651 0.0
C363 C 0.4531 0.23251 0.13869 0.0
C364 C 0.43841 0.24212 0.12605 0.0
C365 C 0.4421 0.26318 0.14831 0.0
C366 C 0.48548 0.233 0.19191 0.0
C367 C 0.42024 0.23139 0.08622 0.0
C368 C 0.47389 0.20308 0.04876 0.0
C369 C 0.46133 0.17918 0.06367 0.0
C370 C 0.47005 0.22037 0.0707 0.0
C371 C 0.45341 0.21362 0.10878 0.0
C372 C 0.4393 0.18923 0.12132 0.0
C373 C 0.44335 0.17224 0.09841 0.0
C374 C 0.4851 0.24615 0.05546 0.0
C375 C 0.42129 0.18127 0.16148 0.0
H376 H 0.48725 0.27302 0.22446 0.0
H377 H 0.43193 0.27137 0.13626 0.0
H378 H 0.47459 0.21343 0.19763 0.0
H379 H 0.49858 0.2361 0.16317 0.0
H380 H 0.49546 0.24143 0.22542 0.0
H381 H 0.40738 0.23803 0.08682 0.0
H382 H 0.42959 0.23622 0.05115 0.0
H383 H 0.41017 0.21161 0.08865 0.0
H384 H 0.48767 0.20853 0.02168 0.0
H385 H 0.43355 0.15379 0.11017 0.0
H386 H 0.49804 0.25643 0.08431 0.0
H387 H 0.47373 0.25428 0.04969 0.0
H388 H 0.49522 0.24807 0.02201 0.0
H389 H 0.43082 0.18605 0.19639 0.0
H390 H 0.40887 0.16165 0.16093 0.0
H391 H 0.41072 0.19045 0.15942 0.0
C392 C 0.25946 0.48429 0.21096 0.0
C393 C 0.27027 0.47128 0.22612 0.0
C394 C 0.23833 0.48077 0.23236 0.0
C395 C 0.22788 0.46399 0.27013 0.0
C396 C 0.23763 0.44944 0.28289 0.0
C397 C 0.25869 0.45319 0.26053 0.0
C398 C 0.2282 0.4963 0.21691 0.0
C399 C 0.22698 0.43127 0.32273 0.0
C400 C 0.19734 0.48393 0.35923 0.0
C401 C 0.17356 0.47114 0.34369 0.0
C402 C 0.21496 0.48045 0.33778 0.0
C403 C 0.20867 0.46393 0.29957 0.0
C404 C 0.1844 0.44957 0.28642 0.0
C405 C 0.16708 0.45327 0.30883 0.0
C406 C 0.2406 0.49577 0.35364 0.0
C407 C 0.17692 0.43167 0.2461 0.0
H408 H 0.26821 0.49817 0.18414 0.0
H409 H 0.26693 0.44304 0.27249 0.0
H410 H 0.20868 0.48527 0.2107 0.0
H411 H 0.23098 0.50923 0.24584 0.0
H412 H 0.23675 0.50648 0.18366 0.0
H413 H 0.23394 0.41866 0.32258 0.0
H414 H 0.23148 0.44065 0.35777 0.0
H415 H 0.20723 0.42089 0.31987 0.0
H416 H 0.20245 0.49763 0.38639 0.0
H417 H 0.14872 0.44329 0.29658 0.0
H418 H 0.25089 0.50889 0.32507 0.0
H419 H 0.24896 0.48462 0.35955 0.0
H420 H 0.24216 0.50572 0.38717 0.0
H421 H 0.18198 0.44131 0.21131 0.0
H422 H 0.15734 0.41913 0.24594 0.0
H423 H 0.18621 0.42121 0.24867 0.0
C424 C 0.70227 0.20229 0.53101 0.0
C425 C 0.69112 0.17825 0.51716 0.0
C426 C 0.72391 0.21932 0.51018 0.0
C427 C 0.73456 0.21214 0.47442 0.0
C428 C 0.72457 0.18758 0.46364 0.0
C429 C 0.70296 0.17088 0.48531 0.0
C430 C 0.73426 0.24528 0.52354 0.0
C431 C 0.73549 0.17914 0.4262 0.0
C432 C 0.76525 0.26091 0.38181 0.0
C433 C 0.7889 0.27254 0.39818 0.0
C434 C 0.74767 0.24004 0.40415 0.0
C435 C 0.75389 0.23067 0.44406 0.0
C436 C 0.77811 0.24111 0.458 0.0
C437 C 0.7954 0.26192 0.43472 0.0
C438 C 0.72211 0.22916 0.38742 0.0
C439 C 0.78553 0.23154 0.49998 0.0
H440 H 0.69335 0.20808 0.55596 0.0
H441 H 0.69451 0.1523 0.47449 0.0
H442 H 0.75371 0.2537 0.53044 0.0
H443 H 0.73182 0.25502 0.49325 0.0
H444 H 0.72556 0.24757 0.55583 0.0
H445 H 0.72862 0.15962 0.42892 0.0
H446 H 0.73108 0.18297 0.39 0.0
H447 H 0.75523 0.18874 0.42944 0.0
H448 H 0.76016 0.2689 0.35331 0.0
H449 H 0.81367 0.2708 0.44758 0.0
H450 H 0.71156 0.23235 0.41476 0.0
H451 H 0.71393 0.20955 0.38314 0.0
H452 H 0.72065 0.23687 0.35281 0.0
H453 H 0.78078 0.23714 0.53385 0.0
H454 H 0.80508 0.2384 0.50014 0.0
H455 H 0.77601 0.21173 0.49961 0.0
C456 C 0.48443 0.77177 0.54497 0.0
C457 C 0.497 0.79563 0.56004 0.0
C458 C 0.48858 0.75451 0.56621 0.0
C459 C 0.50555 0.76125 0.60374 0.0
C460 C 0.51974 0.78565 0.61618 0.0
C461 C 0.51538 0.80261 0.59396 0.0
C462 C 0.47345 0.72874 0.55103 0.0
C463 C 0.53811 0.79362 0.65571 0.0
C464 C 0.48613 0.71089 0.69317 0.0
C465 C 0.49901 0.70005 0.67759 0.0
C466 C 0.4895 0.732 0.67177 0.0
C467 C 0.50598 0.74236 0.63355 0.0
C468 C 0.52052 0.73267 0.62053 0.0
C469 C 0.51695 0.71165 0.64293 0.0
C470 C 0.47402 0.7421 0.68757 0.0
C471 C 0.5384 0.74325 0.58024 0.0
H472 H 0.47036 0.76631 0.5185 0.0
H473 H 0.5252 0.82104 0.60582 0.0
H474 H 0.48477 0.72059 0.54496 0.0
H475 H 0.46063 0.71846 0.58004 0.0
H476 H 0.46317 0.72686 0.51777 0.0
H477 H 0.55059 0.81322 0.65484 0.0
H478 H 0.5289 0.78894 0.69093 0.0
H479 H 0.5486 0.78436 0.6532 0.0
H480 H 0.47239 0.70213 0.72021 0.0
H481 H 0.527 0.70339 0.63066 0.0
H482 H 0.46078 0.73905 0.65909 0.0
H483 H 0.48502 0.76167 0.69318 0.0
H484 H 0.46421 0.73371 0.72124 0.0
H485 H 0.5288 0.73826 0.54542 0.0
H486 H 0.55127 0.73662 0.58063 0.0
H487 H 0.54848 0.76303 0.58228 0.0
C488 C 0.70112 0.52174 0.76234 0.0
C489 C 0.68915 0.50353 0.72834 0.0
C490 C 0.72238 0.52552 0.78388 0.0
C491 C 0.73193 0.51086 0.77074 0.0
C492 C 0.72108 0.49396 0.73332 0.0
C493 C 0.69977 0.49044 0.71271 0.0
C494 C 0.73347 0.54383 0.82333 0.0
C495 C 0.73096 0.47829 0.71752 0.0
C496 C 0.79279 0.52096 0.80767 0.0
C497 C 0.78635 0.50312 0.84263 0.0
C498 C 0.77546 0.52491 0.78584 0.0
C499 C 0.75126 0.51081 0.79968 0.0
C500 C 0.74509 0.49435 0.83802 0.0
C501 C 0.7627 0.49063 0.85888 0.0
C502 C 0.78281 0.54275 0.74542 0.0
C503 C 0.71955 0.4793 0.8546 0.0
H504 H 0.69304 0.53197 0.77462 0.0
H505 H 0.69073 0.47648 0.68618 0.0
H506 H 0.72917 0.53459 0.85854 0.0
H507 H 0.7532 0.55404 0.81994 0.0
H508 H 0.72669 0.55658 0.82324 0.0
H509 H 0.72209 0.46804 0.68452 0.0
H510 H 0.75043 0.48922 0.71072 0.0
H511 H 0.72835 0.46542 0.7465 0.0
H512 H 0.81105 0.53069 0.79488 0.0
H513 H 0.75766 0.47697 0.88616 0.0
H514 H 0.77367 0.55334 0.7482 0.0
H515 H 0.7775 0.53307 0.71071 0.0
H516 H 0.80242 0.55518 0.74488 0.0
H517 H 0.71144 0.49065 0.86081 0.0
H518 H 0.71814 0.46938 0.88814 0.0
H519 H 0.70892 0.46617 0.82631 0.0
C520 C 0.19383 0.70949 0.87464 0.0
C521 C 0.17004 0.69831 0.89002 0.0
C522 C 0.21132 0.73072 0.89611 0.0
C523 C 0.20486 0.74088 0.93411 0.0
C524 C 0.18052 0.73091 0.94669 0.0
C525 C 0.16334 0.70975 0.92428 0.0
C526 C 0.23702 0.74111 0.88079 0.0
C527 C 0.17285 0.74131 -0.01337 0.0
C528 C 0.25502 0.7702 0.02449 0.0
C529 C 0.26629 0.79415 0.00991 0.0
C530 C 0.23391 0.75292 0.00234 0.0
C531 C 0.22394 0.75973 0.96442 0.0
C532 C 0.23412 0.78417 0.95232 0.0
C533 C 0.25516 0.80114 0.97539 0.0
C534 C 0.22332 0.72709 0.0171 0.0
C535 C 0.22396 0.7922 0.91241 0.0
H536 H 0.19909 0.70087 0.84787 0.0
H537 H 0.14496 0.70125 0.93635 0.0
H538 H 0.24549 0.76069 0.87541 0.0
H539 H 0.24713 0.73806 0.90943 0.0
H540 H 0.23869 0.73291 0.84711 0.0
H541 H 0.15331 0.7345 -0.01423 0.0
H542 H 0.17734 0.73637 0.02164 0.0
H543 H 0.18243 0.7611 -0.01541 0.0
H544 H 0.26342 0.76471 0.0514 0.0
H545 H 0.26375 0.81963 0.9639 0.0
H546 H 0.22607 0.71701 -0.01197 0.0
H547 H 0.20379 0.71881 0.0228 0.0
H548 H 0.23156 0.7251 0.05047 0.0
H549 H 0.2289 0.78779 0.87737 0.0
H550 H 0.23094 0.81177 0.91356 0.0
H551 H 0.20419 0.78278 0.9142 0.0
C552 C 0.58635 0.15105 0.69316 0.0
C553 C 0.56858 0.1371 0.65974 0.0
C554 C 0.58036 0.15286 0.74081 0.0
C555 C 0.55614 0.13996 0.75539 0.0
C556 C 0.53815 0.1262 0.72155 0.0
C557 C 0.54457 0.12514 0.67411 0.0
C558 C 0.59996 0.16808 0.77582 0.0
C559 C 0.51218 0.11171 0.73587 0.0
C560 C 0.54244 0.11914 0.8842 0.0
C561 C 0.53458 0.13412 0.90295 0.0
C562 C 0.54973 0.12109 0.83641 0.0
C563 C 0.54967 0.13883 0.80679 0.0
C564 C 0.54216 0.15433 0.82564 0.0
C565 C 0.53436 0.15158 0.8735 0.0
C566 C 0.55699 0.10377 0.81737 0.0
C567 C 0.54231 0.17374 0.79523 0.0
H568 H 0.6049 0.16051 0.68211 0.0
H569 H 0.53072 0.11422 0.64854 0.0
H570 H 0.59541 0.18019 0.79542 0.0
H571 H 0.60179 0.15649 0.80283 0.0
H572 H 0.61746 0.17899 0.75776 0.0
H573 H 0.50027 0.1029 0.70467 0.0
H574 H 0.50981 0.09771 0.76195 0.0
H575 H 0.50639 0.12325 0.75383 0.0
H576 H 0.54247 0.10548 0.90677 0.0
H577 H 0.5285 0.16332 0.88808 0.0
H578 H 0.57545 0.11365 0.8031 0.0
H579 H 0.54508 0.09333 0.78728 0.0
H580 H 0.55614 0.09109 0.84529 0.0
H581 H 0.5603 0.18512 0.77949 0.0
H582 H 0.53736 0.18524 0.81607 0.0
H583 H 0.52959 0.16566 0.76499 0.0
C584 C 0.42499 0.59598 0.85891 0.0
C585 C 0.42167 0.57817 0.8261 0.0
C586 C 0.41718 0.59012 0.90662 0.0
C587 C 0.40636 0.56601 0.92188 0.0
C588 C 0.4027 0.54797 0.88868 0.0
C589 C 0.41019 0.55424 0.84118 0.0
C590 C 0.42095 0.60975 0.94092 0.0
C591 C 0.39176 0.52212 0.90375 0.0
C592 C 0.41299 0.55298 0.05147 0.0
C593 C 0.38988 0.5445 0.06938 0.0
C594 C 0.41861 0.56035 0.00374 0.0
C595 C 0.4008 0.55972 0.97331 0.0
C596 C 0.37751 0.55165 -0.00866 0.0
C597 C 0.37221 0.5438 0.03916 0.0
C598 C 0.44347 0.56821 -0.0144 0.0
C599 C 0.35823 0.55118 0.96005 0.0
H600 H 0.43364 0.61446 0.84731 0.0
H601 H 0.40765 0.54036 0.8161 0.0
H602 H 0.40406 0.60493 0.9599 0.0
H603 H 0.43428 0.61199 0.96853 0.0
H604 H 0.42737 0.62713 0.9224 0.0
H605 H 0.38924 0.51015 0.87304 0.0
H606 H 0.40344 0.52033 0.93061 0.0
H607 H 0.3742 0.51594 0.92103 0.0
H608 H 0.42667 0.5534 0.07463 0.0
H609 H 0.3544 0.53747 0.05307 0.0
H610 H 0.4517 0.58656 0.97076 0.0
H611 H 0.44256 0.55628 0.9561 0.0
H612 H 0.45533 0.56795 0.01417 0.0
H613 H 0.36461 0.56901 0.94365 0.0
H614 H 0.34159 0.54603 -0.01961 0.0
H615 H 0.35396 0.53828 0.93029 0.0
C616 C 0.83544 0.44036 0.03536 0.0
C617 C 0.82262 0.42434 -0.00145 0.0
C618 C 0.8344 0.43216 0.08243 0.0
C619 C 0.81952 0.40754 0.09287 0.0
C620 C 0.80545 0.39158 0.05614 0.0
C621 C 0.80757 0.40011 0.00912 0.0
C622 C 0.85014 0.44963 0.12039 0.0
C623 C 0.78868 0.36541 0.06622 0.0
C624 C 0.83671 0.38299 0.19991 0.0
C625 C 0.82316 0.38531 0.23629 0.0
C626 C 0.83543 0.38984 0.15271 0.0
C627 C 0.81961 0.39838 0.1417 0.0
C628 C 0.80481 0.39929 0.17796 0.0
C629 C 0.80715 0.39321 0.22513 0.0
C630 C 0.85193 0.38919 0.11527 0.0
C631 C 0.78707 0.40738 0.16726 0.0
H632 H 0.84733 0.45903 0.02681 0.0
H633 H 0.79766 0.38779 -0.01962 0.0
H634 H 0.8392 0.44938 0.15119 0.0
H635 H 0.86288 0.44427 0.13417 0.0
H636 H 0.86046 0.4682 0.10652 0.0
H637 H 0.7771 0.35601 0.03496 0.0
H638 H 0.79911 0.3566 0.07543 0.0
H639 H 0.77717 0.36327 0.09747 0.0
H640 H 0.84932 0.37719 0.20895 0.0
H641 H 0.79671 0.39497 0.25356 0.0
H642 H 0.86416 0.40756 0.10201 0.0
H643 H 0.84153 0.37836 0.08405 0.0
H644 H 0.86283 0.38165 0.12946 0.0
H645 H 0.79671 0.42671 0.1585 0.0
H646 H 0.77502 0.40438 0.19809 0.0
H647 H 0.77606 0.39775 0.13556 0.0
C648 C 0.40546 0.84969 0.39739 0.0
C649 C 0.41719 0.83751 0.41249 0.0
C650 C 0.39789 0.84833 0.34989 0.0
C651 C 0.40171 0.83406 0.31673 0.0
C652 C 0.41275 0.821 0.33203 0.0
C653 C 0.42065 0.82311 0.37972 0.0
C654 C 0.38672 0.863 0.33478 0.0
C655 C 0.4167 0.80526 0.29776 0.0
C656 C 0.36774 0.82187 0.19903 0.0
C657 C 0.3854 0.83895 0.169 0.0
C658 C 0.37298 0.81938 0.24694 0.0
C659 C 0.3962 0.83478 0.26524 0.0
C660 C 0.414 0.8521 0.23501 0.0
C661 C 0.40845 0.85378 0.18719 0.0
C662 C 0.35373 0.80041 0.27802 0.0
C663 C 0.43878 0.8693 0.25344 0.0
H664 H 0.40281 0.86095 0.42245 0.0
H665 H 0.42949 0.81348 0.39134 0.0
H666 H 0.39836 0.87661 0.30809 0.0
H667 H 0.36922 0.85147 0.31727 0.0
H668 H 0.384 0.8723 0.3655 0.0
H669 H 0.42318 0.79437 0.31635 0.0
H670 H 0.39987 0.79311 0.27858 0.0
H671 H 0.43006 0.81646 0.27032 0.0
H672 H 0.34998 0.81025 0.18489 0.0
H673 H 0.42212 0.86714 0.16417 0.0
H674 H 0.34933 0.80891 0.30777 0.0
H675 H 0.3602 0.78905 0.29442 0.0
H676 H 0.33714 0.78882 0.2575 0.0
H677 H 0.43769 0.88019 0.283 0.0
H678 H 0.45061 0.88156 0.22504 0.0
H679 H 0.44714 0.85932 0.26828 0.0
C680 C 0.58708 0.43079 0.54322 0.0
C681 C 0.56955 0.43075 0.57272 0.0
C682 C 0.58186 0.42291 0.49543 0.0
C683 C 0.55881 0.41549 0.47668 0.0
C684 C 0.54115 0.41557 0.50638 0.0
C685 C 0.54666 0.42293 0.55412 0.0
C686 C 0.60096 0.4226 0.46495 0.0
C687 C 0.51656 0.40843 0.48744 0.0
C688 C 0.55032 0.42091 0.34402 0.0
C689 C 0.5382 0.39691 0.32939 0.0
C690 C 0.55776 0.42721 0.39155 0.0
C691 C 0.55338 0.40911 0.42526 0.0
C692 C 0.54194 0.3849 0.41047 0.0
C693 C 0.53422 0.37904 0.3627 0.0
C694 C 0.5694 0.45317 0.40608 0.0
C695 C 0.53738 0.3652 0.44535 0.0
H696 H 0.60471 0.43661 0.5577 0.0
H697 H 0.5331 0.42304 0.57675 0.0
H698 H 0.59415 0.40461 0.44903 0.0
H699 H 0.60572 0.43542 0.43485 0.0
H700 H 0.61739 0.42735 0.4858 0.0
H701 H 0.50481 0.40927 0.51545 0.0
H702 H 0.51806 0.42043 0.45749 0.0
H703 H 0.50787 0.38999 0.47299 0.0
H704 H 0.5534 0.43484 0.31855 0.0
H705 H 0.52507 0.3605 0.35148 0.0
H706 H 0.58675 0.45887 0.42396 0.0
H707 H 0.55787 0.45555 0.4323 0.0
H708 H 0.57251 0.46515 0.37501 0.0
H709 H 0.55403 0.36959 0.46494 0.0
H710 H 0.5306 0.34768 0.4272 0.0
H711 H 0.52405 0.36346 0.4724 0.0
C712 C 0.11181 0.55167 0.51899 0.0
C713 C 0.12689 0.54379 0.50091 0.0
C714 C 0.11326 0.55869 0.56688 0.0
C715 C 0.13061 0.55834 0.59727 0.0
C716 C 0.14622 0.55081 0.57909 0.0
C717 C 0.14395 0.54328 0.53112 0.0
C718 C 0.09585 0.56596 0.5852 0.0
C719 C 0.16522 0.55067 0.61033 0.0
C720 C 0.14231 0.59447 0.71158 0.0
C721 C 0.12816 0.57655 0.74456 0.0
C722 C 0.14425 0.58871 0.66383 0.0
C723 C 0.13128 0.56457 0.6487 0.0
C724 C 0.11722 0.54642 0.68204 0.0
C725 C 0.11603 0.55261 0.72961 0.0
C726 C 0.15978 0.60846 0.62937 0.0
C727 C 0.10265 0.52054 0.6671 0.0
H728 H 0.09846 0.55192 0.49581 0.0
H729 H 0.15576 0.53739 0.51705 0.0
H730 H 0.08506 0.55391 0.61481 0.0
H731 H 0.10565 0.58435 0.59994 0.0
H732 H 0.08352 0.56535 0.55675 0.0
H733 H 0.17686 0.54573 0.58998 0.0
H734 H 0.17651 0.56856 0.62657 0.0
H735 H 0.15676 0.53778 0.64019 0.0
H736 H 0.1519 0.61296 0.7231 0.0
H737 H 0.10495 0.53866 0.75486 0.0
H738 H 0.14846 0.61038 0.60184 0.0
H739 H 0.17207 0.60398 0.61031 0.0
H740 H 0.17051 0.62591 0.64777 0.0
H741 H 0.08901 0.51847 0.64037 0.0
H742 H 0.0934 0.5085 0.69789 0.0
H743 H 0.11423 0.51466 0.64968 0.0
C744 C 0.45328 0.03223 0.08215 0.0
C745 C 0.45046 0.04889 0.05491 0.0
C746 C 0.43777 0.00766 0.07653 0.0
C747 C 0.41904 -0.00051 0.04254 0.0
C748 C 0.41511 0.0162 0.01714 0.0
C749 C 0.43087 0.04078 0.02375 0.0
C750 C 0.44243 -0.00954 0.10483 0.0
C751 C 0.39525 0.00816 -0.01922 0.0
C752 C 0.40628 0.94059 -0.01053 0.0
C753 C 0.38688 0.92419 0.0172 0.0
C754 C 0.41584 0.96522 -0.00489 0.0
C755 C 0.40587 0.97373 0.02961 0.0
C756 C 0.38529 0.95731 0.0555 0.0
C757 C 0.37595 0.93265 0.04887 0.0
C758 C 0.4376 0.98212 0.96627 0.0
C759 C 0.3741 0.96571 0.09241 0.0
H760 H 0.46815 0.03838 0.10689 0.0
H761 H 0.42853 0.05357 0.0027 0.0
H762 H 0.42572 0.9765 0.12181 0.0
H763 H 0.44879 0.98132 0.0803 0.0
H764 H 0.45608 -0.0004 0.13327 0.0
H765 H 0.39208 0.02291 0.97016 0.0
H766 H 0.40001 0.00162 0.94818 0.0
H767 H 0.3784 -0.00687 -0.00494 0.0
H768 H 0.41457 0.93417 0.96435 0.0
H769 H 0.36089 0.92006 0.0703 0.0
H770 H 0.45335 -0.009 -0.00964 0.0
H771 H 0.43509 -0.0037 0.94968 0.0
H772 H 0.4416 0.97277 0.93749 0.0
H773 H 0.38567 0.97207 0.12471 0.0
H774 H 0.35612 0.95121 0.10342 0.0
H775 H 0.37253 0.98094 0.07845 0.0
C776 C 0.4318 0.38539 0.2162 0.0
C777 C 0.45117 0.39628 0.18442 0.0
C778 C 0.41658 0.39481 0.223 0.0
C779 C 0.42082 0.41545 0.1972 0.0
C780 C 0.43938 0.4255 0.16282 0.0
C781 C 0.45434 0.41585 0.15698 0.0
C782 C 0.39691 0.38354 0.25981 0.0
C783 C 0.44438 0.44737 0.13415 0.0
C784 C 0.37853 0.44008 0.19025 0.0
C785 C 0.3898 0.45966 0.22149 0.0
C786 C 0.38751 0.42445 0.18398 0.0
C787 C 0.40807 0.42848 0.20979 0.0
C788 C 0.41841 0.44719 0.24384 0.0
C789 C 0.40921 0.46257 0.24913 0.0
C790 C 0.37593 0.40462 0.14755 0.0
C791 C 0.44019 0.45196 0.27255 0.0
H792 H 0.42919 0.37021 0.23742 0.0
H793 H 0.46904 0.42414 0.13179 0.0
H794 H 0.40198 0.39518 0.29196 0.0
H795 H 0.38009 0.38179 0.24558 0.0
H796 H 0.39352 0.36563 0.27112 0.0
H797 H 0.4579 0.45155 0.10567 0.0
H798 H 0.42775 0.44483 0.11718 0.0
H799 H 0.45105 0.46302 0.15841 0.0
H800 H 0.36347 0.43767 0.1689 0.0
H801 H 0.41778 0.47743 0.27393 0.0
H802 H 0.37399 0.38775 0.16206 0.0
H803 H 0.38744 0.40941 0.11527 0.0
H804 H 0.35807 0.40142 0.13637 0.0
H805 H 0.43747 0.43526 0.28954 0.0
H806 H 0.4445 0.46553 0.30101 0.0
H807 H 0.45582 0.45849 0.24829 0.0
C808 C 0.02719 0.46307 0.31417 0.0
C809 C 0.04297 0.46088 0.34543 0.0
C810 C 0.00246 0.44803 0.31825 0.0
C811 C -0.00676 0.43057 0.35495 0.0
C812 C 0.00911 0.42728 0.3848 0.0
C813 C 0.03388 0.44242 0.37947 0.0
C814 C -0.01382 0.45187 0.28514 0.0
C815 C -4e-05 0.4089 0.42443 0.0
C816 C 0.93349 0.41937 0.40066 0.0
C817 C 0.91751 0.39822 0.37682 0.0
C818 C 0.95821 0.42936 0.39567 0.0
C819 C 0.96724 0.4181 0.36558 0.0
C820 C 0.95126 0.39627 0.34276 0.0
C821 C 0.92652 0.38648 0.34889 0.0
C822 C 0.97465 0.4525 0.4212 0.0
C823 C 0.96023 0.38385 0.31018 0.0
H824 H 0.03416 0.4771 0.28733 0.0
H825 H 0.04602 0.44066 0.40372 0.0
H826 H 0.9722 0.43461 0.27003 0.0
H827 H 0.977 0.45962 0.30566 0.0
H828 H -0.00392 0.46415 0.25506 0.0
H829 H 0.01429 0.4062 0.43973 0.0
H830 H -0.00749 0.41487 0.4536 0.0
H831 H -0.01466 0.39152 0.41118 0.0
H832 H 0.92666 0.42837 0.42284 0.0
H833 H 0.91425 0.37012 0.33039 0.0
H834 H -0.01601 0.467 0.39448 0.0
H835 H -0.01151 0.45085 0.44157 0.0
H836 H 0.96488 0.45786 0.44639 0.0
H837 H 0.96788 0.39468 0.27723 0.0
H838 H 0.9458 0.36577 0.29954 0.0
H839 H 0.9747 0.38221 0.32791 0.0
C840 C 0.52343 0.93318 0.52441 0.0
C841 C 0.50404 0.92481 0.55609 0.0
C842 C 0.53873 0.95781 0.51723 0.0
C843 C 0.53456 0.97433 0.54258 0.0
C844 C 0.51591 0.96596 0.57672 0.0
C845 C 0.50085 0.94133 0.58291 0.0
C846 C 0.55846 0.96608 0.4806 0.0
C847 C 0.51101 0.98298 0.60491 0.0
C848 C 0.5782 0.04111 0.54866 0.0
C849 C 0.56759 0.04979 0.51658 0.0
C850 C 0.56842 0.01641 0.55582 0.0
C851 C 0.54772 0.00015 0.53003 0.0
C852 C 0.53789 0.00884 0.49546 0.0
C853 C 0.54789 0.03352 0.48931 0.0
C854 C 0.57942 0.00781 0.5929 0.0
C855 C 0.51597 -0.0079 0.4668 0.0
H856 H 0.52604 0.92051 0.50363 0.0
H857 H 0.48611 0.93502 0.60797 0.0
H858 H 0.55373 0.97308 0.4486 0.0
H859 H 0.5754 0.98085 0.49519 0.0
H860 H 0.56147 0.95137 0.46898 0.0
H861 H 0.49733 0.97372 0.63322 0.0
H862 H 0.52764 -0.00299 0.62204 0.0
H863 H 0.50459 -0.00793 0.5803 0.0
H864 H 0.59347 0.05357 0.56978 0.0
H865 H 0.53979 0.04008 0.46393 0.0
H866 H 0.58131 -0.00715 0.57857 0.0
H867 H 0.56753 0.00097 0.62464 0.0
H868 H 0.59722 0.0223 0.60485 0.0
H869 H 0.51832 0.97787 0.44999 0.0
H870 H 0.51196 0.00156 0.43819 0.0
H871 H 0.5003 0.98325 0.49103 0.0
C872 C 0.55038 0.51305 0.75017 0.0
C873 C 0.5699 0.51585 0.72321 0.0
C874 C 0.54127 0.52847 0.74403 0.0
C875 C 0.55183 0.54711 0.70984 0.0
C876 C 0.57251 0.55105 0.68476 0.0
C877 C 0.58138 0.53537 0.69186 0.0
C878 C 0.51935 0.5238 0.77198 0.0
C879 C 0.58434 0.57082 0.64822 0.0
C880 C 0.50583 0.55964 0.65492 0.0
C881 C 0.50881 0.5792 0.68204 0.0
C882 C 0.5208 0.55005 0.66151 0.0
C883 C 0.53919 0.56015 0.69632 0.0
C884 C 0.54329 0.58082 0.72172 0.0
C885 C 0.52805 0.59018 0.71418 0.0
C886 C 0.51597 0.52815 0.63322 0.0
C887 C 0.56278 0.59216 0.75893 0.0
H888 H 0.54164 0.49823 0.77505 0.0
H889 H 0.59654 0.5377 0.67102 0.0
H890 H 0.52201 0.54054 0.78858 0.0
H891 H 0.50386 0.51727 0.74728 0.0
H892 H 0.51485 0.51026 0.80067 0.0
H893 H 0.60227 0.57401 0.63783 0.0
H894 H 0.57305 0.56595 0.61554 0.0
H895 H 0.58616 0.5877 0.66223 0.0
H896 H 0.49123 0.55129 0.62946 0.0
H897 H 0.53052 0.60536 0.73515 0.0
H898 H 0.50913 0.51252 0.65763 0.0
H899 H 0.53269 0.53066 0.61689 0.0
H900 H 0.50262 0.52395 0.60429 0.0
H901 H 0.55752 0.58063 0.79129 0.0
H902 H 0.56616 0.61013 0.76972 0.0
H903 H 0.57965 0.59381 0.74535 0.0
C904 C 0.02587 0.55591 0.92317 0.0
C905 C 0.04137 0.57423 0.89218 0.0
C906 C 0.00106 0.54529 0.91847 0.0
C907 C -0.00854 0.55296 0.88144 0.0
C908 C 0.00698 0.57233 0.85166 0.0
C909 C 0.03182 0.58288 0.85759 0.0
C910 C -0.01486 0.52493 0.95148 0.0
C911 C -0.00259 0.58094 0.81167 0.0
C912 C 0.93216 0.5033 0.8357 0.0
C913 C 0.91586 0.50803 0.85931 0.0
C914 C 0.95683 0.51849 0.84083 0.0
C915 C 0.96547 0.53881 0.8708 0.0
C916 C 0.94916 0.5442 0.89344 0.0
C917 C 0.92449 0.5288 0.8872 0.0
C918 C 0.97362 0.51225 0.81553 0.0
C919 C 0.95773 0.56563 0.9259 0.0
H920 H 0.03315 0.54937 0.95044 0.0
H921 H 0.04372 0.59704 0.83354 0.0
H922 H 0.97088 0.52773 0.96656 0.0
H923 H 0.97632 0.50797 0.93089 0.0
H924 H -0.00474 0.52289 -0.01842 0.0
H925 H 0.01146 0.59805 0.79597 0.0
H926 H -0.00989 0.5673 0.78283 0.0
H927 H -0.01741 0.58338 0.82474 0.0
H928 H 0.92564 0.48746 0.81357 0.0
H929 H 0.91199 0.53257 0.90553 0.0
H930 H -0.01677 0.5075 0.84239 0.0
H931 H -0.01276 0.52788 0.79507 0.0
H932 H 0.96411 0.49698 0.79045 0.0
H933 H 0.96575 0.56286 0.95874 0.0
H934 H 0.943 0.56876 0.93673 0.0
H935 H 0.97182 0.58192 0.90793 0.0
loop_
_geom_bond_atom_site_label_1
_geom_bond_atom_site_label_2
_geom_bond_distance
_geom_bond_site_symmetry_2
_ccdc_geom_bond_type
C0 O1 1.298 1_556 S
C0 O3 1.160 . S
O1 C0 1.298 1_554 S
O1 Cd2 2.241 . S
Cd2 O1 2.241 . S
Cd2 O6 2.273 . S
Cd2 O10 2.277 . S
O3 C0 1.160 . S
O3 Cd4 2.203 1_556 S
Cd4 O3 2.203 1_554 S
Cd4 O6 2.411 . S
Cd4 O7 2.333 . S
Cd4 O8 2.352 . S
Cd4 O12 2.277 . S
Cd4 O13 2.356 . S
C5 O10 1.209 . S
C5 O12 1.226 . S
O6 Cd2 2.273 . S
O6 Cd4 2.411 . S
O6 C9 1.320 . S
O7 Cd4 2.333 . S
O7 C9 1.214 . S
O8 Cd4 2.352 . S
O8 C11 1.258 . S
C9 O6 1.320 . S
C9 O7 1.214 . S
O10 Cd2 2.277 . S
O10 C5 1.209 . S
C11 O8 1.258 . S
C11 O13 1.282 . S
O12 Cd4 2.277 . S
O12 C5 1.226 . S
O13 Cd4 2.356 . S
O13 C11 1.282 . S
C14 O15 1.306 . S
C14 O17 1.160 . S
O15 C14 1.306 . S
O15 Cd16 2.228 . S
Cd16 O15 2.228 . S
Cd16 O20 2.273 . S
Cd16 O24 2.277 . S
O17 C14 1.160 . S
O17 Cd18 2.203 . S
Cd18 O17 2.203 . S
Cd18 O20 2.411 . S
Cd18 O21 2.333 . S
Cd18 O22 2.352 . S
Cd18 O26 2.277 . S
Cd18 O27 2.356 . S
C19 O24 1.209 . S
C19 O26 1.226 . S
O20 Cd16 2.273 . S
O20 Cd18 2.411 . S
O20 C23 1.320 . S
O21 Cd18 2.333 . S
O21 C23 1.214 . S
O22 Cd18 2.352 . S
O22 C25 1.258 . S
C23 O20 1.320 . S
C23 O21 1.214 . S
O24 Cd16 2.277 . S
O24 C19 1.209 . S
C25 O22 1.258 . S
C25 O27 1.282 . S
O26 Cd18 2.277 . S
O26 C19 1.226 . S
O27 Cd18 2.356 . S
O27 C25 1.282 . S
C28 O29 1.306 . S
C28 O31 1.160 . S
O29 C28 1.306 . S
O29 Cd30 2.228 . S
Cd30 O29 2.228 . S
Cd30 O34 2.273 . S
Cd30 O38 2.277 . S
O31 C28 1.160 . S
O31 Cd32 2.203 . S
Cd32 O31 2.203 . S
Cd32 O34 2.411 . S
Cd32 O35 2.333 . S
Cd32 O36 2.352 . S
Cd32 O40 2.277 . S
Cd32 O41 2.356 . S
C33 O38 1.209 . S
C33 O40 1.226 . S
O34 Cd30 2.273 . S
O34 Cd32 2.411 . S
O34 C37 1.320 . S
O35 Cd32 2.333 . S
O35 C37 1.214 . S
O36 Cd32 2.352 . S
O36 C39 1.258 . S
C37 O34 1.320 . S
C37 O35 1.214 . S
O38 Cd30 2.277 . S
O38 C33 1.209 . S
C39 O36 1.258 . S
C39 O41 1.282 . S
O40 Cd32 2.277 . S
O40 C33 1.226 . S
O41 Cd32 2.356 . S
O41 C39 1.282 . S
C42 O43 1.306 . S
C42 O45 1.160 . S
O43 C42 1.306 . S
O43 Cd44 2.228 . S
Cd44 O43 2.228 . S
Cd44 O48 2.273 . S
Cd44 O52 2.277 . S
O45 C42 1.160 . S
O45 Cd46 2.203 . S
Cd46 O45 2.203 . S
Cd46 O48 2.411 . S
Cd46 O49 2.333 . S
Cd46 O50 2.352 . S
Cd46 O54 2.277 . S
Cd46 O55 2.356 . S
C47 O52 1.209 . S
C47 O54 1.226 . S
O48 Cd44 2.273 . S
O48 Cd46 2.411 . S
O48 C51 1.320 . S
O49 Cd46 2.333 . S
O49 C51 1.214 . S
O50 Cd46 2.352 . S
O50 C53 1.258 . S
C51 O48 1.320 . S
C51 O49 1.214 . S
O52 Cd44 2.277 . S
O52 C47 1.209 . S
C53 O50 1.258 . S
C53 O55 1.282 . S
O54 Cd46 2.277 . S
O54 C47 1.226 . S
O55 Cd46 2.356 . S
O55 C53 1.282 . S
C56 O57 1.306 . S
C56 O59 1.160 . S
O57 C56 1.306 . S
O57 Cd58 2.228 . S
Cd58 O57 2.228 . S
Cd58 O62 2.273 . S
Cd58 O66 2.277 . S
O59 C56 1.160 . S
O59 Cd60 2.203 . S
Cd60 O59 2.203 . S
Cd60 O62 2.411 . S
Cd60 O63 2.333 . S
Cd60 O64 2.352 . S
Cd60 O68 2.277 . S
Cd60 O69 2.356 . S
C61 O66 1.209 . S
C61 O68 1.226 . S
O62 Cd58 2.273 . S
O62 Cd60 2.411 . S
O62 C65 1.320 . S
O63 Cd60 2.333 . S
O63 C65 1.214 . S
O64 Cd60 2.352 . S
O64 C67 1.258 . S
C65 O62 1.320 . S
C65 O63 1.214 . S
O66 Cd58 2.277 . S
O66 C61 1.209 . S
C67 O64 1.258 . S
C67 O69 1.282 . S
O68 Cd60 2.277 . S
O68 C61 1.226 . S
O69 Cd60 2.356 . S
O69 C67 1.282 . S
C70 O71 1.306 . S
C70 O73 1.160 . S
O71 C70 1.306 . S
O71 Cd72 2.228 . S
Cd72 O71 2.228 . S
Cd72 O76 2.273 . S
Cd72 O80 2.277 . S
O73 C70 1.160 . S
O73 Cd74 2.203 . S
Cd74 O73 2.203 . S
Cd74 O76 2.411 . S
Cd74 O77 2.333 . S
Cd74 O78 2.352 . S
Cd74 O82 2.277 . S
Cd74 O83 2.356 . S
C75 O80 1.209 . S
C75 O82 1.226 . S
O76 Cd72 2.273 . S
O76 Cd74 2.411 . S
O76 C79 1.320 . S
O77 Cd74 2.333 . S
O77 C79 1.214 . S
O78 Cd74 2.352 . S
O78 C81 1.258 . S
C79 O76 1.320 . S
C79 O77 1.214 . S
O80 Cd72 2.277 . S
O80 C75 1.209 . S
C81 O78 1.258 . S
C81 O83 1.282 . S
O82 Cd74 2.277 . S
O82 C75 1.226 . S
O83 Cd74 2.356 . S
O83 C81 1.282 . S
C84 O85 1.306 . S
C84 O87 1.160 . S
O85 C84 1.306 . S
O85 Cd86 2.228 . S
Cd86 O85 2.228 . S
Cd86 O90 2.273 . S
Cd86 O94 2.277 . S
O87 C84 1.160 . S
O87 Cd88 2.203 . S
Cd88 O87 2.203 . S
Cd88 O90 2.411 . S
Cd88 O91 2.333 . S
Cd88 O92 2.352 . S
Cd88 O96 2.277 . S
Cd88 O97 2.356 . S
C89 O94 1.209 . S
C89 O96 1.226 . S
O90 Cd86 2.273 . S
O90 Cd88 2.411 . S
O90 C93 1.320 . S
O91 Cd88 2.333 . S
O91 C93 1.214 . S
O92 Cd88 2.352 . S
O92 C95 1.258 . S
C93 O90 1.320 . S
C93 O91 1.214 . S
O94 Cd86 2.277 . S
O94 C89 1.209 . S
C95 O92 1.258 . S
C95 O97 1.282 . S
O96 Cd88 2.277 . S
O96 C89 1.226 . S
O97 Cd88 2.356 . S
O97 C95 1.282 . S
C98 O99 1.306 . S
C98 O101 1.160 . S
O99 C98 1.306 . S
O99 Cd100 2.228 . S
Cd100 O99 2.228 . S
Cd100 O104 2.273 . S
Cd100 O108 2.277 . S
O101 C98 1.160 . S
O101 Cd102 2.203 . S
Cd102 O101 2.203 . S
Cd102 O104 2.411 . S
Cd102 O105 2.333 1_554 S
Cd102 O106 2.352 . S
Cd102 O110 2.277 . S
Cd102 O111 2.356 . S
C103 O108 1.209 . S
C103 O110 1.226 . S
O104 Cd100 2.273 . S
O104 Cd102 2.411 . S
O104 C107 1.320 1_554 S
O105 Cd102 2.333 1_556 S
O105 C107 1.214 . S
O106 Cd102 2.352 . S
O106 C109 1.258 . S
C107 O104 1.320 1_556 S
C107 O105 1.214 . S
O108 Cd100 2.277 . S
O108 C103 1.209 . S
C109 O106 1.258 . S
C109 O111 1.282 . S
O110 Cd102 2.277 . S
O110 C103 1.226 . S
O111 Cd102 2.356 . S
O111 C109 1.282 . S
C112 O113 1.306 . S
C112 O115 1.160 . S
O113 C112 1.306 . S
O113 Cd114 2.228 . S
Cd114 O113 2.228 . S
Cd114 O118 2.273 . S
Cd114 O122 2.277 . S
O115 C112 1.160 . S
O115 Cd116 2.203 . S
Cd116 O115 2.203 . S
Cd116 O118 2.411 . S
Cd116 O119 2.333 . S
Cd116 O120 2.352 . S
Cd116 O124 2.277 . S
Cd116 O125 2.356 . S
C117 O122 1.209 . S
C117 O124 1.226 . S
O118 Cd114 2.273 . S
O118 Cd116 2.411 . S
O118 C121 1.320 . S
O119 Cd116 2.333 . S
O119 C121 1.214 . S
O120 Cd116 2.352 . S
O120 C123 1.258 . S
C121 O118 1.320 . S
C121 O119 1.214 . S
O122 Cd114 2.277 . S
O122 C117 1.209 . S
C123 O120 1.258 . S
C123 O125 1.282 . S
O124 Cd116 2.277 . S
O124 C117 1.226 . S
O125 Cd116 2.356 . S
O125 C123 1.282 . S
C126 O127 1.306 . S
C126 O129 1.160 . S
O127 C126 1.306 . S
O127 Cd128 2.228 . S
Cd128 O127 2.228 . S
Cd128 O132 2.273 . S
Cd128 O136 2.277 . S
O129 C126 1.160 . S
O129 Cd130 2.203 . S
Cd130 O129 2.203 . S
Cd130 O132 2.411 . S
Cd130 O133 2.333 . S
Cd130 O134 2.352 . S
Cd130 O138 2.277 . S
Cd130 O139 2.356 . S
C131 O136 1.209 . S
C131 O138 1.226 . S
O132 Cd128 2.273 . S
O132 Cd130 2.411 . S
O132 C135 1.320 . S
O133 Cd130 2.333 . S
O133 C135 1.214 . S
O134 Cd130 2.352 . S
O134 C137 1.258 . S
C135 O132 1.320 . S
C135 O133 1.214 . S
O136 Cd128 2.277 . S
O136 C131 1.209 . S
C137 O134 1.258 . S
C137 O139 1.282 . S
O138 Cd130 2.277 . S
O138 C131 1.226 . S
O139 Cd130 2.356 . S
O139 C137 1.282 . S
C140 O141 1.306 . S
C140 O143 1.160 . S
O141 C140 1.306 . S
O141 Cd142 2.228 . S
Cd142 O141 2.228 . S
Cd142 O146 2.273 . S
Cd142 O150 2.277 . S
O143 C140 1.160 . S
O143 Cd144 2.203 . S
Cd144 O143 2.203 . S
Cd144 O146 2.411 . S
Cd144 O147 2.333 . S
Cd144 O148 2.352 . S
Cd144 O152 2.277 . S
Cd144 O153 2.356 . S
C145 O150 1.209 . S
C145 O152 1.226 . S
O146 Cd142 2.273 . S
O146 Cd144 2.411 . S
O146 C149 1.320 . S
O147 Cd144 2.333 . S
O147 C149 1.214 . S
O148 Cd144 2.352 . S
O148 C151 1.258 . S
C149 O146 1.320 . S
C149 O147 1.214 . S
O150 Cd142 2.277 . S
O150 C145 1.209 . S
C151 O148 1.258 . S
C151 O153 1.282 . S
O152 Cd144 2.277 . S
O152 C145 1.226 . S
O153 Cd144 2.356 . S
O153 C151 1.282 . S
C154 O155 1.306 . S
C154 O157 1.160 . S
O155 C154 1.306 . S
O155 Cd156 2.228 . S
Cd156 O155 2.228 . S
Cd156 O160 2.273 . S
Cd156 O164 2.277 . S
O157 C154 1.160 . S
O157 Cd158 2.203 . S
Cd158 O157 2.203 . S
Cd158 O160 2.411 . S
Cd158 O161 2.333 . S
Cd158 O162 2.352 . S
Cd158 O166 2.277 . S
Cd158 O167 2.356 . S
C159 O164 1.209 . S
C159 O166 1.226 . S
O160 Cd156 2.273 . S
O160 Cd158 2.411 . S
O160 C163 1.320 . S
O161 Cd158 2.333 . S
O161 C163 1.214 . S
O162 Cd158 2.352 . S
O162 C165 1.258 . S
C163 O160 1.320 . S
C163 O161 1.214 . S
O164 Cd156 2.277 . S
O164 C159 1.209 . S
C165 O162 1.258 . S
C165 O167 1.282 . S
O166 Cd158 2.277 . S
O166 C159 1.226 . S
O167 Cd158 2.356 . S
O167 C165 1.282 . S
C168 C169 1.391 . S
C168 C170 1.394 . S
C168 H184 0.931 . S
C169 C168 1.391 . S
C169 C173 1.376 . S
C170 C168 1.394 . S
C170 C171 1.369 . S
C170 C174 1.531 . S
C171 C170 1.369 . S
C171 C172 1.410 . S
C171 C179 1.503 . S
C172 C171 1.410 . S
C172 C173 1.392 . S
C172 C175 1.511 . S
C173 C169 1.376 . S
C173 C172 1.392 . S
C173 H185 0.929 . S
C174 C170 1.531 . S
C174 H186 0.960 . S
C174 H187 0.962 . S
C174 H188 0.960 . S
C175 C172 1.511 . S
C175 H189 0.961 . S
C175 H190 0.961 . S
C175 H191 0.961 . S
C176 C177 1.370 . S
C176 C178 1.363 . S
C176 H192 0.931 . S
C177 C176 1.370 . S
C177 C181 1.408 . S
C178 C176 1.363 . S
C178 C179 1.370 . S
C178 C182 1.524 . S
C179 C171 1.503 . S
C179 C178 1.370 . S
C179 C180 1.403 . S
C180 C179 1.403 . S
C180 C181 1.404 . S
C180 C183 1.539 . S
C181 C177 1.408 . S
C181 C180 1.404 . S
C181 H193 0.930 . S
C182 C178 1.524 . S
C182 H194 0.956 . S
C182 H195 0.961 . S
C182 H196 0.961 . S
C183 C180 1.539 . S
C183 H197 0.958 . S
C183 H198 0.961 . S
C183 H199 0.960 . S
H184 C168 0.931 . S
H185 C173 0.929 . S
H186 C174 0.960 . S
H187 C174 0.962 . S
H188 C174 0.960 . S
H189 C175 0.961 . S
H190 C175 0.961 . S
H191 C175 0.961 . S
H192 C176 0.931 . S
H193 C181 0.930 . S
H194 C182 0.956 . S
H195 C182 0.961 . S
H196 C182 0.961 . S
H197 C183 0.958 . S
H198 C183 0.961 . S
H199 C183 0.960 . S
C200 C201 1.391 . S
C200 C202 1.394 . S
C200 H216 0.931 . S
C201 C200 1.391 . S
C201 C205 1.376 . S
C202 C200 1.394 . S
C202 C203 1.369 . S
C202 C206 1.531 . S
C203 C202 1.369 . S
C203 C204 1.410 . S
C203 C211 1.503 . S
C204 C203 1.410 . S
C204 C205 1.392 . S
C204 C207 1.511 . S
C205 C201 1.376 . S
C205 C204 1.392 . S
C205 H217 0.929 . S
C206 C202 1.531 . S
C206 H218 0.960 . S
C206 H219 0.962 . S
C206 H220 0.960 . S
C207 C204 1.511 . S
C207 H221 0.961 . S
C207 H222 0.961 . S
C207 H223 0.961 . S
C208 C209 1.370 . S
C208 C210 1.363 . S
C208 H224 0.931 . S
C209 C208 1.370 . S
C209 C213 1.408 . S
C210 C208 1.363 . S
C210 C211 1.370 . S
C210 C214 1.524 . S
C211 C203 1.503 . S
C211 C210 1.370 . S
C211 C212 1.403 . S
C212 C211 1.403 . S
C212 C213 1.404 . S
C212 C215 1.539 . S
C213 C209 1.408 . S
C213 C212 1.404 . S
C213 H225 0.930 . S
C214 C210 1.524 . S
C214 H226 0.956 . S
C214 H227 0.961 . S
C214 H228 0.961 . S
C215 C212 1.539 . S
C215 H229 0.958 . S
C215 H230 0.961 . S
C215 H231 0.960 . S
H216 C200 0.931 . S
H217 C205 0.929 . S
H218 C206 0.960 . S
H219 C206 0.962 . S
H220 C206 0.960 . S
H221 C207 0.961 . S
H222 C207 0.961 . S
H223 C207 0.961 . S
H224 C208 0.931 . S
H225 C213 0.930 . S
H226 C214 0.956 . S
H227 C214 0.961 . S
H228 C214 0.961 . S
H229 C215 0.958 . S
H230 C215 0.961 . S
H231 C215 0.960 . S
C232 C233 1.391 . S
C232 C234 1.394 . S
C232 H248 0.931 . S
C233 C232 1.391 . S
C233 C237 1.376 . S
C234 C232 1.394 . S
C234 C235 1.369 . S
C234 C238 1.531 . S
C235 C234 1.369 . S
C235 C236 1.410 . S
C235 C243 1.503 . S
C236 C235 1.410 . S
C236 C237 1.392 . S
C236 C239 1.511 . S
C237 C233 1.376 . S
C237 C236 1.392 . S
C237 H249 0.929 . S
C238 C234 1.531 . S
C238 H250 0.960 . S
C238 H251 0.962 . S
C238 H252 0.960 . S
C239 C236 1.511 . S
C239 H253 0.961 . S
C239 H254 0.961 . S
C239 H255 0.961 . S
C240 C241 1.370 . S
C240 C242 1.363 . S
C240 H256 0.931 . S
C241 C240 1.370 . S
C241 C245 1.408 . S
C242 C240 1.363 . S
C242 C243 1.370 . S
C242 C246 1.524 . S
C243 C235 1.503 . S
C243 C242 1.370 . S
C243 C244 1.403 . S
C244 C243 1.403 . S
C244 C245 1.404 . S
C244 C247 1.539 . S
C245 C241 1.408 . S
C245 C244 1.404 . S
C245 H257 0.930 . S
C246 C242 1.524 . S
C246 H258 0.956 . S
C246 H259 0.961 . S
C246 H260 0.961 . S
C247 C244 1.539 . S
C247 H261 0.958 . S
C247 H262 0.961 . S
C247 H263 0.960 . S
H248 C232 0.931 . S
H249 C237 0.929 . S
H250 C238 0.960 . S
H251 C238 0.962 . S
H252 C238 0.960 . S
H253 C239 0.961 . S
H254 C239 0.961 . S
H255 C239 0.961 . S
H256 C240 0.931 . S
H257 C245 0.930 . S
H258 C246 0.956 . S
H259 C246 0.961 . S
H260 C246 0.961 . S
H261 C247 0.958 . S
H262 C247 0.961 . S
H263 C247 0.960 . S
C264 C265 1.391 . S
C264 C266 1.394 . S
C264 H280 0.931 . S
C265 C264 1.391 . S
C265 C269 1.376 . S
C266 C264 1.394 . S
C266 C267 1.369 . S
C266 C270 1.531 . S
C267 C266 1.369 . S
C267 C268 1.410 . S
C267 C275 1.503 . S
C268 C267 1.410 . S
C268 C269 1.392 . S
C268 C271 1.511 . S
C269 C265 1.376 . S
C269 C268 1.392 . S
C269 H281 0.929 . S
C270 C266 1.531 . S
C270 H282 0.960 . S
C270 H283 0.962 . S
C270 H284 0.960 . S
C271 C268 1.511 . S
C271 H285 0.961 . S
C271 H286 0.961 . S
C271 H287 0.961 . S
C272 C273 1.370 . S
C272 C274 1.363 . S
C272 H288 0.931 . S
C273 C272 1.370 . S
C273 C277 1.408 . S
C274 C272 1.363 . S
C274 C275 1.370 . S
C274 C278 1.524 . S
C275 C267 1.503 . S
C275 C274 1.370 . S
C275 C276 1.403 . S
C276 C275 1.403 . S
C276 C277 1.404 . S
C276 C279 1.539 . S
C277 C273 1.408 . S
C277 C276 1.404 . S
C277 H289 0.930 . S
C278 C274 1.524 . S
C278 H290 0.956 . S
C278 H291 0.961 . S
C278 H292 0.961 . S
C279 C276 1.539 . S
C279 H293 0.958 . S
C279 H294 0.961 . S
C279 H295 0.960 . S
H280 C264 0.931 . S
H281 C269 0.929 . S
H282 C270 0.960 . S
H283 C270 0.962 . S
H284 C270 0.960 . S
H285 C271 0.961 . S
H286 C271 0.961 . S
H287 C271 0.961 . S
H288 C272 0.931 . S
H289 C277 0.930 . S
H290 C278 0.956 . S
H291 C278 0.961 . S
H292 C278 0.961 . S
H293 C279 0.958 . S
H294 C279 0.961 . S
H295 C279 0.960 . S
C296 C297 1.391 . S
C296 C298 1.394 . S
C296 H312 0.931 . S
C297 C296 1.391 . S
C297 C301 1.376 . S
C298 C296 1.394 . S
C298 C299 1.369 1_554 S
C298 C302 1.531 . S
C299 C298 1.369 1_556 S
C299 C300 1.410 1_556 S
C299 C307 1.503 . S
C300 C299 1.410 1_554 S
C300 C301 1.392 . S
C300 C303 1.511 1_554 S
C301 C297 1.376 . S
C301 C300 1.392 . S
C301 H313 0.929 . S
C302 C298 1.531 . S
C302 H314 0.960 1_554 S
C302 H315 0.962 . S
C302 H316 0.960 . S
C303 C300 1.511 1_556 S
C303 H317 0.961 . S
C303 H318 0.961 . S
C303 H319 0.961 . S
C304 C305 1.370 . S
C304 C306 1.363 . S
C304 H320 0.931 . S
C305 C304 1.370 . S
C305 C309 1.408 . S
C306 C304 1.363 . S
C306 C307 1.370 . S
C306 C310 1.524 . S
C307 C299 1.503 . S
C307 C306 1.370 . S
C307 C308 1.403 . S
C308 C307 1.403 . S
C308 C309 1.404 . S
C308 C311 1.539 . S
C309 C305 1.408 . S
C309 C308 1.404 . S
C309 H321 0.930 . S
C310 C306 1.524 . S
C310 H322 0.956 1_556 S
C310 H323 0.961 1_556 S
C310 H324 0.961 . S
C311 C308 1.539 . S
C311 H325 0.958 . S
C311 H326 0.961 . S
C311 H327 0.960 . S
H312 C296 0.931 . S
H313 C301 0.929 . S
H314 C302 0.960 1_556 S
H315 C302 0.962 . S
H316 C302 0.960 . S
H317 C303 0.961 . S
H318 C303 0.961 . S
H319 C303 0.961 . S
H320 C304 0.931 . S
H321 C309 0.930 . S
H322 C310 0.956 1_554 S
H323 C310 0.961 1_554 S
H324 C310 0.961 . S
H325 C311 0.958 . S
H326 C311 0.961 . S
H327 C311 0.960 . S
C328 C329 1.391 . S
C328 C330 1.394 . S
C328 H344 0.931 . S
C329 C328 1.391 . S
C329 C333 1.376 . S
C330 C328 1.394 . S
C330 C331 1.369 . S
C330 C334 1.531 . S
C331 C330 1.369 . S
C331 C332 1.410 . S
C331 C339 1.503 . S
C332 C331 1.410 . S
C332 C333 1.392 . S
C332 C335 1.511 . S
C333 C329 1.376 . S
C333 C332 1.392 . S
C333 H345 0.929 . S
C334 C330 1.531 . S
C334 H346 0.960 . S
C334 H347 0.962 . S
C334 H348 0.960 . S
C335 C332 1.511 . S
C335 H349 0.961 . S
C335 H350 0.961 . S
C335 H351 0.961 . S
C336 C337 1.370 . S
C336 C338 1.363 . S
C336 H352 0.931 . S
C337 C336 1.370 . S
C337 C341 1.408 . S
C338 C336 1.363 . S
C338 C339 1.370 . S
C338 C342 1.524 . S
C339 C331 1.503 . S
C339 C338 1.370 . S
C339 C340 1.403 . S
C340 C339 1.403 . S
C340 C341 1.404 . S
C340 C343 1.539 . S
C341 C337 1.408 . S
C341 C340 1.404 . S
C341 H353 0.930 . S
C342 C338 1.524 . S
C342 H354 0.956 . S
C342 H355 0.961 . S
C342 H356 0.961 . S
C343 C340 1.539 . S
C343 H357 0.958 . S
C343 H358 0.961 . S
C343 H359 0.960 . S
H344 C328 0.931 . S
H345 C333 0.929 . S
H346 C334 0.960 . S
H347 C334 0.962 . S
H348 C334 0.960 . S
H349 C335 0.961 . S
H350 C335 0.961 . S
H351 C335 0.961 . S
H352 C336 0.931 . S
H353 C341 0.930 . S
H354 C342 0.956 . S
H355 C342 0.961 . S
H356 C342 0.961 . S
H357 C343 0.958 . S
H358 C343 0.961 . S
H359 C343 0.960 . S
C360 C361 1.391 . S
C360 C362 1.394 . S
C360 H376 0.931 . S
C361 C360 1.391 . S
C361 C365 1.376 . S
C362 C360 1.394 . S
C362 C363 1.369 . S
C362 C366 1.531 . S
C363 C362 1.369 . S
C363 C364 1.410 . S
C363 C371 1.503 . S
C364 C363 1.410 . S
C364 C365 1.392 . S
C364 C367 1.511 . S
C365 C361 1.376 . S
C365 C364 1.392 . S
C365 H377 0.929 . S
C366 C362 1.531 . S
C366 H378 0.960 . S
C366 H379 0.962 . S
C366 H380 0.960 . S
C367 C364 1.511 . S
C367 H381 0.961 . S
C367 H382 0.961 . S
C367 H383 0.961 . S
C368 C369 1.370 . S
C368 C370 1.363 . S
C368 H384 0.931 . S
C369 C368 1.370 . S
C369 C373 1.408 . S
C370 C368 1.363 . S
C370 C371 1.370 . S
C370 C374 1.524 . S
C371 C363 1.503 . S
C371 C370 1.370 . S
C371 C372 1.403 . S
C372 C371 1.403 . S
C372 C373 1.404 . S
C372 C375 1.539 . S
C373 C369 1.408 . S
C373 C372 1.404 . S
C373 H385 0.930 . S
C374 C370 1.524 . S
C374 H386 0.956 . S
C374 H387 0.961 . S
C374 H388 0.961 . S
C375 C372 1.539 . S
C375 H389 0.958 . S
C375 H390 0.961 . S
C375 H391 0.960 . S
H376 C360 0.931 . S
H377 C365 0.929 . S
H378 C366 0.960 . S
H379 C366 0.962 . S
H380 C366 0.960 . S
H381 C367 0.961 . S
H382 C367 0.961 . S
H383 C367 0.961 . S
H384 C368 0.931 . S
H385 C373 0.930 . S
H386 C374 0.956 . S
H387 C374 0.961 . S
H388 C374 0.961 . S
H389 C375 0.958 . S
H390 C375 0.961 . S
H391 C375 0.960 . S
C392 C393 1.391 . S
C392 C394 1.394 . S
C392 H408 0.931 . S
C393 C392 1.391 . S
C393 C397 1.376 . S
C394 C392 1.394 . S
C394 C395 1.369 . S
C394 C398 1.531 . S
C395 C394 1.369 . S
C395 C396 1.410 . S
C395 C403 1.503 . S
C396 C395 1.410 . S
C396 C397 1.392 . S
C396 C399 1.511 . S
C397 C393 1.376 . S
C397 C396 1.392 . S
C397 H409 0.929 . S
C398 C394 1.531 . S
C398 H410 0.960 . S
C398 H411 0.962 . S
C398 H412 0.960 . S
C399 C396 1.511 . S
C399 H413 0.961 . S
C399 H414 0.961 . S
C399 H415 0.961 . S
C400 C401 1.370 . S
C400 C402 1.363 . S
C400 H416 0.931 . S
C401 C400 1.370 . S
C401 C405 1.408 . S
C402 C400 1.363 . S
C402 C403 1.370 . S
C402 C406 1.524 . S
C403 C395 1.503 . S
C403 C402 1.370 . S
C403 C404 1.403 . S
C404 C403 1.403 . S
C404 C405 1.404 . S
C404 C407 1.539 . S
C405 C401 1.408 . S
C405 C404 1.404 . S
C405 H417 0.930 . S
C406 C402 1.524 . S
C406 H418 0.956 . S
C406 H419 0.961 . S
C406 H420 0.961 . S
C407 C404 1.539 . S
C407 H421 0.958 . S
C407 H422 0.961 . S
C407 H423 0.960 . S
H408 C392 0.931 . S
H409 C397 0.929 . S
H410 C398 0.960 . S
H411 C398 0.962 . S
H412 C398 0.960 . S
H413 C399 0.961 . S
H414 C399 0.961 . S
H415 C399 0.961 . S
H416 C400 0.931 . S
H417 C405 0.930 . S
H418 C406 0.956 . S
H419 C406 0.961 . S
H420 C406 0.961 . S
H421 C407 0.958 . S
H422 C407 0.961 . S
H423 C407 0.960 . S
C424 C425 1.391 . S
C424 C426 1.394 . S
C424 H440 0.931 . S
C425 C424 1.391 . S
C425 C429 1.376 . S
C426 C424 1.394 . S
C426 C427 1.369 . S
C426 C430 1.531 . S
C427 C426 1.369 . S
C427 C428 1.410 . S
C427 C435 1.503 . S
C428 C427 1.410 . S
C428 C429 1.392 . S
C428 C431 1.511 . S
C429 C425 1.376 . S
C429 C428 1.392 . S
C429 H441 0.929 . S
C430 C426 1.531 . S
C430 H442 0.960 . S
C430 H443 0.962 . S
C430 H444 0.960 . S
C431 C428 1.511 . S
C431 H445 0.961 . S
C431 H446 0.961 . S
C431 H447 0.961 . S
C432 C433 1.370 . S
C432 C434 1.363 . S
C432 H448 0.931 . S
C433 C432 1.370 . S
C433 C437 1.408 . S
C434 C432 1.363 . S
C434 C435 1.370 . S
C434 C438 1.524 . S
C435 C427 1.503 . S
C435 C434 1.370 . S
C435 C436 1.403 . S
C436 C435 1.403 . S
C436 C437 1.404 . S
C436 C439 1.539 . S
C437 C433 1.408 . S
C437 C436 1.404 . S
C437 H449 0.930 . S
C438 C434 1.524 . S
C438 H450 0.956 . S
C438 H451 0.961 . S
C438 H452 0.961 . S
C439 C436 1.539 . S
C439 H453 0.958 . S
C439 H454 0.961 . S
C439 H455 0.960 . S
H440 C424 0.931 . S
H441 C429 0.929 . S
H442 C430 0.960 . S
H443 C430 0.962 . S
H444 C430 0.960 . S
H445 C431 0.961 . S
H446 C431 0.961 . S
H447 C431 0.961 . S
H448 C432 0.931 . S
H449 C437 0.930 . S
H450 C438 0.956 . S
H451 C438 0.961 . S
H452 C438 0.961 . S
H453 C439 0.958 . S
H454 C439 0.961 . S
H455 C439 0.960 . S
C456 C457 1.391 . S
C456 C458 1.394 . S
C456 H472 0.931 . S
C457 C456 1.391 . S
C457 C461 1.376 . S
C458 C456 1.394 . S
C458 C459 1.369 . S
C458 C462 1.531 . S
C459 C458 1.369 . S
C459 C460 1.410 . S
C459 C467 1.503 . S
C460 C459 1.410 . S
C460 C461 1.392 . S
C460 C463 1.511 . S
C461 C457 1.376 . S
C461 C460 1.392 . S
C461 H473 0.929 . S
C462 C458 1.531 . S
C462 H474 0.960 . S
C462 H475 0.962 . S
C462 H476 0.960 . S
C463 C460 1.511 . S
C463 H477 0.961 . S
C463 H478 0.961 . S
C463 H479 0.961 . S
C464 C465 1.370 . S
C464 C466 1.363 . S
C464 H480 0.931 . S
C465 C464 1.370 . S
C465 C469 1.408 . S
C466 C464 1.363 . S
C466 C467 1.370 . S
C466 C470 1.524 . S
C467 C459 1.503 . S
C467 C466 1.370 . S
C467 C468 1.403 . S
C468 C467 1.403 . S
C468 C469 1.404 . S
C468 C471 1.539 . S
C469 C465 1.408 . S
C469 C468 1.404 . S
C469 H481 0.930 . S
C470 C466 1.524 . S
C470 H482 0.956 . S
C470 H483 0.961 . S
C470 H484 0.961 . S
C471 C468 1.539 . S
C471 H485 0.958 . S
C471 H486 0.961 . S
C471 H487 0.960 . S
H472 C456 0.931 . S
H473 C461 0.929 . S
H474 C462 0.960 . S
H475 C462 0.962 . S
H476 C462 0.960 . S
H477 C463 0.961 . S
H478 C463 0.961 . S
H479 C463 0.961 . S
H480 C464 0.931 . S
H481 C469 0.930 . S
H482 C470 0.956 . S
H483 C470 0.961 . S
H484 C470 0.961 . S
H485 C471 0.958 . S
H486 C471 0.961 . S
H487 C471 0.960 . S
C488 C489 1.391 . S
C488 C490 1.394 . S
C488 H504 0.931 . S
C489 C488 1.391 . S
C489 C493 1.376 . S
C490 C488 1.394 . S
C490 C491 1.369 . S
C490 C494 1.531 . S
C491 C490 1.369 . S
C491 C492 1.410 . S
C491 C499 1.503 . S
C492 C491 1.410 . S
C492 C493 1.392 . S
C492 C495 1.511 . S
C493 C489 1.376 . S
C493 C492 1.392 . S
C493 H505 0.929 . S
C494 C490 1.531 . S
C494 H506 0.960 . S
C494 H507 0.962 . S
C494 H508 0.960 . S
C495 C492 1.511 . S
C495 H509 0.961 . S
C495 H510 0.961 . S
C495 H511 0.961 . S
C496 C497 1.370 . S
C496 C498 1.363 . S
C496 H512 0.931 . S
C497 C496 1.370 . S
C497 C501 1.408 . S
C498 C496 1.363 . S
C498 C499 1.370 . S
C498 C502 1.524 . S
C499 C491 1.503 . S
C499 C498 1.370 . S
C499 C500 1.403 . S
C500 C499 1.403 . S
C500 C501 1.404 . S
C500 C503 1.539 . S
C501 C497 1.408 . S
C501 C500 1.404 . S
C501 H513 0.930 . S
C502 C498 1.524 . S
C502 H514 0.956 . S
C502 H515 0.961 . S
C502 H516 0.961 . S
C503 C500 1.539 . S
C503 H517 0.958 . S
C503 H518 0.961 . S
C503 H519 0.960 . S
H504 C488 0.931 . S
H505 C493 0.929 . S
H506 C494 0.960 . S
H507 C494 0.962 . S
H508 C494 0.960 . S
H509 C495 0.961 . S
H510 C495 0.961 . S
H511 C495 0.961 . S
H512 C496 0.931 . S
H513 C501 0.930 . S
H514 C502 0.956 . S
H515 C502 0.961 . S
H516 C502 0.961 . S
H517 C503 0.958 . S
H518 C503 0.961 . S
H519 C503 0.960 . S
C520 C521 1.391 . S
C520 C522 1.394 . S
C520 H536 0.931 . S
C521 C520 1.391 . S
C521 C525 1.376 . S
C522 C520 1.394 . S
C522 C523 1.369 . S
C522 C526 1.531 . S
C523 C522 1.369 . S
C523 C524 1.410 . S
C523 C531 1.503 . S
C524 C523 1.410 . S
C524 C525 1.392 . S
C524 C527 1.511 1_556 S
C525 C521 1.376 . S
C525 C524 1.392 . S
C525 H537 0.929 . S
C526 C522 1.531 . S
C526 H538 0.960 . S
C526 H539 0.962 . S
C526 H540 0.960 . S
C527 C524 1.511 1_554 S
C527 H541 0.961 . S
C527 H542 0.961 . S
C527 H543 0.961 . S
C528 C529 1.370 . S
C528 C530 1.363 . S
C528 H544 0.931 . S
C529 C528 1.370 . S
C529 C533 1.408 1_554 S
C530 C528 1.363 . S
C530 C531 1.370 1_554 S
C530 C534 1.524 . S
C531 C523 1.503 . S
C531 C530 1.370 1_556 S
C531 C532 1.403 . S
C532 C531 1.403 . S
C532 C533 1.404 . S
C532 C535 1.539 . S
C533 C529 1.408 1_556 S
C533 C532 1.404 . S
C533 H545 0.930 . S
C534 C530 1.524 . S
C534 H546 0.956 . S
C534 H547 0.961 . S
C534 H548 0.961 . S
C535 C532 1.539 . S
C535 H549 0.958 . S
C535 H550 0.961 . S
C535 H551 0.960 . S
H536 C520 0.931 . S
H537 C525 0.929 . S
H538 C526 0.960 . S
H539 C526 0.962 . S
H540 C526 0.960 . S
H541 C527 0.961 . S
H542 C527 0.961 . S
H543 C527 0.961 . S
H544 C528 0.931 . S
H545 C533 0.930 . S
H546 C534 0.956 . S
H547 C534 0.961 . S
H548 C534 0.961 . S
H549 C535 0.958 . S
H550 C535 0.961 . S
H551 C535 0.960 . S
C552 C553 1.391 . S
C552 C554 1.394 . S
C552 H568 0.931 . S
C553 C552 1.391 . S
C553 C557 1.376 . S
C554 C552 1.394 . S
C554 C555 1.369 . S
C554 C558 1.531 . S
C555 C554 1.369 . S
C555 C556 1.410 . S
C555 C563 1.503 . S
C556 C555 1.410 . S
C556 C557 1.392 . S
C556 C559 1.511 . S
C557 C553 1.376 . S
C557 C556 1.392 . S
C557 H569 0.929 . S
C558 C554 1.531 . S
C558 H570 0.960 . S
C558 H571 0.962 . S
C558 H572 0.960 . S
C559 C556 1.511 . S
C559 H573 0.961 . S
C559 H574 0.961 . S
C559 H575 0.961 . S
C560 C561 1.370 . S
C560 C562 1.363 . S
C560 H576 0.931 . S
C561 C560 1.370 . S
C561 C565 1.408 . S
C562 C560 1.363 . S
C562 C563 1.370 . S
C562 C566 1.524 . S
C563 C555 1.503 . S
C563 C562 1.370 . S
C563 C564 1.403 . S
C564 C563 1.403 . S
C564 C565 1.404 . S
C564 C567 1.539 . S
C565 C561 1.408 . S
C565 C564 1.404 . S
C565 H577 0.930 . S
C566 C562 1.524 . S
C566 H578 0.956 . S
C566 H579 0.961 . S
C566 H580 0.961 . S
C567 C564 1.539 . S
C567 H581 0.958 . S
C567 H582 0.961 . S
C567 H583 0.960 . S
H568 C552 0.931 . S
H569 C557 0.929 . S
H570 C558 0.960 . S
H571 C558 0.962 . S
H572 C558 0.960 . S
H573 C559 0.961 . S
H574 C559 0.961 . S
H575 C559 0.961 . S
H576 C560 0.931 . S
H577 C565 0.930 . S
H578 C566 0.956 . S
H579 C566 0.961 . S
H580 C566 0.961 . S
H581 C567 0.958 . S
H582 C567 0.961 . S
H583 C567 0.960 . S
C584 C585 1.391 . S
C584 C586 1.394 . S
C584 H600 0.931 . S
C585 C584 1.391 . S
C585 C589 1.376 . S
C586 C584 1.394 . S
C586 C587 1.369 . S
C586 C590 1.531 . S
C587 C586 1.369 . S
C587 C588 1.410 . S
C587 C595 1.503 . S
C588 C587 1.410 . S
C588 C589 1.392 . S
C588 C591 1.511 . S
C589 C585 1.376 . S
C589 C588 1.392 . S
C589 H601 0.929 . S
C590 C586 1.531 . S
C590 H602 0.960 1_556 S
C590 H603 0.962 1_556 S
C590 H604 0.960 . S
C591 C588 1.511 . S
C591 H605 0.961 . S
C591 H606 0.961 . S
C591 H607 0.961 . S
C592 C593 1.370 . S
C592 C594 1.363 . S
C592 H608 0.931 . S
C593 C592 1.370 . S
C593 C597 1.408 . S
C594 C592 1.363 . S
C594 C595 1.370 1_554 S
C594 C598 1.524 1_554 S
C595 C587 1.503 . S
C595 C594 1.370 1_556 S
C595 C596 1.403 1_556 S
C596 C595 1.403 1_554 S
C596 C597 1.404 . S
C596 C599 1.539 1_554 S
C597 C593 1.408 . S
C597 C596 1.404 . S
C597 H609 0.930 . S
C598 C594 1.524 1_556 S
C598 H610 0.956 . S
C598 H611 0.961 . S
C598 H612 0.961 1_556 S
C599 C596 1.539 1_556 S
C599 H613 0.958 1_556 S
C599 H614 0.961 1_556 S
C599 H615 0.960 . S
H600 C584 0.931 . S
H601 C589 0.929 . S
H602 C590 0.960 1_554 S
H603 C590 0.962 1_554 S
H604 C590 0.960 . S
H605 C591 0.961 . S
H606 C591 0.961 . S
H607 C591 0.961 . S
H608 C592 0.931 . S
H609 C597 0.930 . S
H610 C598 0.956 . S
H611 C598 0.961 . S
H612 C598 0.961 1_554 S
H613 C599 0.958 1_554 S
H614 C599 0.961 1_554 S
H615 C599 0.960 . S
C616 C617 1.391 . S
C616 C618 1.394 . S
C616 H632 0.931 . S
C617 C616 1.391 . S
C617 C621 1.376 . S
C618 C616 1.394 . S
C618 C619 1.369 . S
C618 C622 1.531 . S
C619 C618 1.369 . S
C619 C620 1.410 . S
C619 C627 1.503 . S
C620 C619 1.410 . S
C620 C621 1.392 . S
C620 C623 1.511 . S
C621 C617 1.376 . S
C621 C620 1.392 . S
C621 H633 0.929 . S
C622 C618 1.531 . S
C622 H634 0.960 . S
C622 H635 0.962 . S
C622 H636 0.960 . S
C623 C620 1.511 . S
C623 H637 0.961 . S
C623 H638 0.961 . S
C623 H639 0.961 . S
C624 C625 1.370 . S
C624 C626 1.363 . S
C624 H640 0.931 . S
C625 C624 1.370 . S
C625 C629 1.408 . S
C626 C624 1.363 . S
C626 C627 1.370 . S
C626 C630 1.524 . S
C627 C619 1.503 . S
C627 C626 1.370 . S
C627 C628 1.403 . S
C628 C627 1.403 . S
C628 C629 1.404 . S
C628 C631 1.539 . S
C629 C625 1.408 . S
C629 C628 1.404 . S
C629 H641 0.930 . S
C630 C626 1.524 . S
C630 H642 0.956 . S
C630 H643 0.961 . S
C630 H644 0.961 . S
C631 C628 1.539 . S
C631 H645 0.958 . S
C631 H646 0.961 . S
C631 H647 0.960 . S
H632 C616 0.931 . S
H633 C621 0.929 . S
H634 C622 0.960 . S
H635 C622 0.962 . S
H636 C622 0.960 . S
H637 C623 0.961 . S
H638 C623 0.961 . S
H639 C623 0.961 . S
H640 C624 0.931 . S
H641 C629 0.930 . S
H642 C630 0.956 . S
H643 C630 0.961 . S
H644 C630 0.961 . S
H645 C631 0.958 . S
H646 C631 0.961 . S
H647 C631 0.960 . S
C648 C649 1.391 . S
C648 C650 1.394 . S
C648 H664 0.931 . S
C649 C648 1.391 . S
C649 C653 1.376 . S
C650 C648 1.394 . S
C650 C651 1.369 . S
C650 C654 1.531 . S
C651 C650 1.369 . S
C651 C652 1.410 . S
C651 C659 1.503 . S
C652 C651 1.410 . S
C652 C653 1.392 . S
C652 C655 1.511 . S
C653 C649 1.376 . S
C653 C652 1.392 . S
C653 H665 0.929 . S
C654 C650 1.531 . S
C654 H666 0.960 . S
C654 H667 0.962 . S
C654 H668 0.960 . S
C655 C652 1.511 . S
C655 H669 0.961 . S
C655 H670 0.961 . S
C655 H671 0.961 . S
C656 C657 1.370 . S
C656 C658 1.363 . S
C656 H672 0.931 . S
C657 C656 1.370 . S
C657 C661 1.408 . S
C658 C656 1.363 . S
C658 C659 1.370 . S
C658 C662 1.524 . S
C659 C651 1.503 . S
C659 C658 1.370 . S
C659 C660 1.403 . S
C660 C659 1.403 . S
C660 C661 1.404 . S
C660 C663 1.539 . S
C661 C657 1.408 . S
C661 C660 1.404 . S
C661 H673 0.930 . S
C662 C658 1.524 . S
C662 H674 0.956 . S
C662 H675 0.961 . S
C662 H676 0.961 . S
C663 C660 1.539 . S
C663 H677 0.958 . S
C663 H678 0.961 . S
C663 H679 0.960 . S
H664 C648 0.931 . S
H665 C653 0.929 . S
H666 C654 0.960 . S
H667 C654 0.962 . S
H668 C654 0.960 . S
H669 C655 0.961 . S
H670 C655 0.961 . S
H671 C655 0.961 . S
H672 C656 0.931 . S
H673 C661 0.930 . S
H674 C662 0.956 . S
H675 C662 0.961 . S
H676 C662 0.961 . S
H677 C663 0.958 . S
H678 C663 0.961 . S
H679 C663 0.960 . S
C680 C681 1.391 . S
C680 C682 1.394 . S
C680 H696 0.931 . S
C681 C680 1.391 . S
C681 C685 1.376 . S
C682 C680 1.394 . S
C682 C683 1.369 . S
C682 C686 1.531 . S
C683 C682 1.369 . S
C683 C684 1.410 . S
C683 C691 1.503 . S
C684 C683 1.410 . S
C684 C685 1.392 . S
C684 C687 1.511 . S
C685 C681 1.376 . S
C685 C684 1.392 . S
C685 H697 0.929 . S
C686 C682 1.531 . S
C686 H698 0.960 . S
C686 H699 0.962 . S
C686 H700 0.960 . S
C687 C684 1.511 . S
C687 H701 0.961 . S
C687 H702 0.961 . S
C687 H703 0.961 . S
C688 C689 1.370 . S
C688 C690 1.363 . S
C688 H704 0.931 . S
C689 C688 1.370 . S
C689 C693 1.408 . S
C690 C688 1.363 . S
C690 C691 1.370 . S
C690 C694 1.524 . S
C691 C683 1.503 . S
C691 C690 1.370 . S
C691 C692 1.403 . S
C692 C691 1.403 . S
C692 C693 1.404 . S
C692 C695 1.539 . S
C693 C689 1.408 . S
C693 C692 1.404 . S
C693 H705 0.930 . S
C694 C690 1.524 . S
C694 H706 0.956 . S
C694 H707 0.961 . S
C694 H708 0.961 . S
C695 C692 1.539 . S
C695 H709 0.958 . S
C695 H710 0.961 . S
C695 H711 0.960 . S
H696 C680 0.931 . S
H697 C685 0.929 . S
H698 C686 0.960 . S
H699 C686 0.962 . S
H700 C686 0.960 . S
H701 C687 0.961 . S
H702 C687 0.961 . S
H703 C687 0.961 . S
H704 C688 0.931 . S
H705 C693 0.930 . S
H706 C694 0.956 . S
H707 C694 0.961 . S
H708 C694 0.961 . S
H709 C695 0.958 . S
H710 C695 0.961 . S
H711 C695 0.960 . S
C712 C713 1.391 . S
C712 C714 1.394 . S
C712 H728 0.931 . S
C713 C712 1.391 . S
C713 C717 1.376 . S
C714 C712 1.394 . S
C714 C715 1.369 . S
C714 C718 1.531 . S
C715 C714 1.369 . S
C715 C716 1.410 . S
C715 C723 1.503 . S
C716 C715 1.410 . S
C716 C717 1.392 . S
C716 C719 1.511 . S
C717 C713 1.376 . S
C717 C716 1.392 . S
C717 H729 0.929 . S
C718 C714 1.531 . S
C718 H730 0.960 . S
C718 H731 0.962 . S
C718 H732 0.960 . S
C719 C716 1.511 . S
C719 H733 0.961 . S
C719 H734 0.961 . S
C719 H735 0.961 . S
C720 C721 1.370 . S
C720 C722 1.363 . S
C720 H736 0.931 . S
C721 C720 1.370 . S
C721 C725 1.408 . S
C722 C720 1.363 . S
C722 C723 1.370 . S
C722 C726 1.524 . S
C723 C715 1.503 . S
C723 C722 1.370 . S
C723 C724 1.403 . S
C724 C723 1.403 . S
C724 C725 1.404 . S
C724 C727 1.539 . S
C725 C721 1.408 . S
C725 C724 1.404 . S
C725 H737 0.930 . S
C726 C722 1.524 . S
C726 H738 0.956 . S
C726 H739 0.961 . S
C726 H740 0.961 . S
C727 C724 1.539 . S
C727 H741 0.958 . S
C727 H742 0.961 . S
C727 H743 0.960 . S
H728 C712 0.931 . S
H729 C717 0.929 . S
H730 C718 0.960 . S
H731 C718 0.962 . S
H732 C718 0.960 . S
H733 C719 0.961 . S
H734 C719 0.961 . S
H735 C719 0.961 . S
H736 C720 0.931 . S
H737 C725 0.930 . S
H738 C726 0.956 . S
H739 C726 0.961 . S
H740 C726 0.961 . S
H741 C727 0.958 . S
H742 C727 0.961 . S
H743 C727 0.960 . S
C744 C745 1.391 . S
C744 C746 1.394 . S
C744 H760 0.931 . S
C745 C744 1.391 . S
C745 C749 1.376 . S
C746 C744 1.394 . S
C746 C747 1.369 . S
C746 C750 1.531 . S
C747 C746 1.369 . S
C747 C748 1.410 . S
C747 C755 1.503 1_545 S
C748 C747 1.410 . S
C748 C749 1.392 . S
C748 C751 1.511 1_554 S
C749 C745 1.376 . S
C749 C748 1.392 . S
C749 H761 0.929 . S
C750 C746 1.531 . S
C750 H762 0.960 1_545 S
C750 H763 0.962 . S
C750 H764 0.960 . S
C751 C748 1.511 1_556 S
C751 H765 0.961 . S
C751 H766 0.961 1_545 S
C751 H767 0.961 1_556 S
C752 C753 1.370 . S
C752 C754 1.363 . S
C752 H768 0.931 . S
C753 C752 1.370 . S
C753 C757 1.408 . S
C754 C752 1.363 . S
C754 C755 1.370 . S
C754 C758 1.524 1_554 S
C755 C747 1.503 1_565 S
C755 C754 1.370 . S
C755 C756 1.403 . S
C756 C755 1.403 . S
C756 C757 1.404 . S
C756 C759 1.539 . S
C757 C753 1.408 . S
C757 C756 1.404 . S
C757 H769 0.930 . S
C758 C754 1.524 1_556 S
C758 H770 0.959 1_556 S
C758 H771 0.961 1_565 S
C758 H772 0.961 . S
C759 C756 1.539 . S
C759 H773 0.958 . S
C759 H774 0.961 . S
C759 H775 0.960 . S
H760 C744 0.931 . S
H761 C749 0.929 . S
H762 C750 0.960 1_565 S
H763 C750 0.962 . S
H764 C750 0.960 . S
H765 C751 0.961 . S
H766 C751 0.961 1_565 S
H767 C751 0.961 1_554 S
H768 C752 0.931 . S
H769 C757 0.930 . S
H770 C758 0.959 1_554 S
H771 C758 0.961 1_545 S
H772 C758 0.961 . S
H773 C759 0.958 . S
H774 C759 0.961 . S
H775 C759 0.960 . S
C776 C777 1.391 . S
C776 C778 1.394 . S
C776 H792 0.931 . S
C777 C776 1.391 . S
C777 C781 1.376 . S
C778 C776 1.394 . S
C778 C779 1.369 . S
C778 C782 1.531 . S
C779 C778 1.369 . S
C779 C780 1.410 . S
C779 C787 1.503 . S
C780 C779 1.410 . S
C780 C781 1.392 . S
C780 C783 1.511 . S
C781 C777 1.376 . S
C781 C780 1.392 . S
C781 H793 0.929 . S
C782 C778 1.531 . S
C782 H794 0.960 . S
C782 H795 0.962 . S
C782 H796 0.960 . S
C783 C780 1.511 . S
C783 H797 0.961 . S
C783 H798 0.961 . S
C783 H799 0.961 . S
C784 C785 1.370 . S
C784 C786 1.363 . S
C784 H800 0.931 . S
C785 C784 1.370 . S
C785 C789 1.408 . S
C786 C784 1.363 . S
C786 C787 1.370 . S
C786 C790 1.524 . S
C787 C779 1.503 . S
C787 C786 1.370 . S
C787 C788 1.403 . S
C788 C787 1.403 . S
C788 C789 1.404 . S
C788 C791 1.539 . S
C789 C785 1.408 . S
C789 C788 1.404 . S
C789 H801 0.930 . S
C790 C786 1.524 . S
C790 H802 0.956 . S
C790 H803 0.961 . S
C790 H804 0.961 . S
C791 C788 1.539 . S
C791 H805 0.958 . S
C791 H806 0.961 . S
C791 H807 0.960 . S
H792 C776 0.931 . S
H793 C781 0.929 . S
H794 C782 0.960 . S
H795 C782 0.962 . S
H796 C782 0.960 . S
H797 C783 0.961 . S
H798 C783 0.961 . S
H799 C783 0.961 . S
H800 C784 0.931 . S
H801 C789 0.930 . S
H802 C790 0.956 . S
H803 C790 0.961 . S
H804 C790 0.961 . S
H805 C791 0.958 . S
H806 C791 0.961 . S
H807 C791 0.960 . S
C808 C809 1.391 . S
C808 C810 1.394 . S
C808 H824 0.931 . S
C809 C808 1.391 . S
C809 C813 1.376 . S
C810 C808 1.394 . S
C810 C811 1.369 . S
C810 C814 1.531 . S
C811 C810 1.369 . S
C811 C812 1.410 . S
C811 C819 1.503 1_455 S
C812 C811 1.410 . S
C812 C813 1.392 . S
C812 C815 1.511 . S
C813 C809 1.376 . S
C813 C812 1.392 . S
C813 H825 0.929 . S
C814 C810 1.531 . S
C814 H826 0.960 1_455 S
C814 H827 0.962 . S
C814 H828 0.960 . S
C815 C812 1.511 . S
C815 H829 0.961 . S
C815 H830 0.961 1_455 S
C815 H831 0.961 . S
C816 C817 1.370 . S
C816 C818 1.363 . S
C816 H832 0.931 . S
C817 C816 1.370 . S
C817 C821 1.408 . S
C818 C816 1.363 . S
C818 C819 1.370 . S
C818 C822 1.524 . S
C819 C811 1.503 1_655 S
C819 C818 1.370 . S
C819 C820 1.403 . S
C820 C819 1.403 . S
C820 C821 1.404 . S
C820 C823 1.539 . S
C821 C817 1.408 . S
C821 C820 1.404 . S
C821 H833 0.930 . S
C822 C818 1.524 . S
C822 H834 0.956 1_655 S
C822 H835 0.961 1_655 S
C822 H836 0.961 . S
C823 C820 1.539 . S
C823 H837 0.958 . S
C823 H838 0.961 . S
C823 H839 0.960 . S
H824 C808 0.931 . S
H825 C813 0.929 . S
H826 C814 0.960 1_655 S
H827 C814 0.962 . S
H828 C814 0.960 . S
H829 C815 0.961 . S
H830 C815 0.961 1_655 S
H831 C815 0.961 . S
H832 C816 0.931 . S
H833 C821 0.930 . S
H834 C822 0.956 1_455 S
H835 C822 0.961 1_455 S
H836 C822 0.961 . S
H837 C823 0.958 . S
H838 C823 0.961 . S
H839 C823 0.960 . S
C840 C841 1.391 . S
C840 C842 1.394 . S
C840 H856 0.931 . S
C841 C840 1.391 . S
C841 C845 1.376 . S
C842 C840 1.394 . S
C842 C843 1.369 . S
C842 C846 1.531 . S
C843 C842 1.369 . S
C843 C844 1.410 . S
C843 C851 1.503 1_565 S
C844 C843 1.410 . S
C844 C845 1.392 . S
C844 C847 1.511 . S
C845 C841 1.376 . S
C845 C844 1.392 . S
C845 H857 0.929 . S
C846 C842 1.531 . S
C846 H858 0.960 1_565 S
C846 H859 0.962 . S
C846 H860 0.960 . S
C847 C844 1.511 . S
C847 H861 0.961 . S
C847 H862 0.961 1_565 S
C847 H863 0.961 . S
C848 C849 1.370 . S
C848 C850 1.363 . S
C848 H864 0.931 . S
C849 C848 1.370 . S
C849 C853 1.408 . S
C850 C848 1.363 . S
C850 C851 1.370 . S
C850 C854 1.524 . S
C851 C843 1.503 1_545 S
C851 C850 1.370 . S
C851 C852 1.403 . S
C852 C851 1.403 . S
C852 C853 1.404 . S
C852 C855 1.539 . S
C853 C849 1.408 . S
C853 C852 1.404 . S
C853 H865 0.930 . S
C854 C850 1.524 . S
C854 H866 0.956 . S
C854 H867 0.960 1_545 S
C854 H868 0.961 . S
C855 C852 1.539 . S
C855 H869 0.958 . S
C855 H870 0.961 . S
C855 H871 0.935 1_545 S
H856 C840 0.931 . S
H857 C845 0.929 . S
H858 C846 0.960 1_545 S
H859 C846 0.962 . S
H860 C846 0.960 . S
H861 C847 0.961 . S
H862 C847 0.961 1_545 S
H863 C847 0.961 . S
H864 C848 0.931 . S
H865 C853 0.930 . S
H866 C854 0.956 . S
H867 C854 0.960 1_565 S
H868 C854 0.961 . S
H869 C855 0.958 . S
H870 C855 0.961 . S
H871 C855 0.935 1_565 S
C872 C873 1.391 . S
C872 C874 1.394 . S
C872 H888 0.931 . S
C873 C872 1.391 . S
C873 C877 1.376 . S
C874 C872 1.394 . S
C874 C875 1.369 . S
C874 C878 1.531 . S
C875 C874 1.369 . S
C875 C876 1.410 . S
C875 C883 1.503 . S
C876 C875 1.410 . S
C876 C877 1.392 . S
C876 C879 1.511 . S
C877 C873 1.376 . S
C877 C876 1.392 . S
C877 H889 0.929 . S
C878 C874 1.531 . S
C878 H890 0.960 . S
C878 H891 0.962 . S
C878 H892 0.960 . S
C879 C876 1.511 . S
C879 H893 0.961 . S
C879 H894 0.961 . S
C879 H895 0.961 . S
C880 C881 1.370 . S
C880 C882 1.363 . S
C880 H896 0.931 . S
C881 C880 1.370 . S
C881 C885 1.408 . S
C882 C880 1.363 . S
C882 C883 1.370 . S
C882 C886 1.524 . S
C883 C875 1.503 . S
C883 C882 1.370 . S
C883 C884 1.403 . S
C884 C883 1.403 . S
C884 C885 1.404 . S
C884 C887 1.539 . S
C885 C881 1.408 . S
C885 C884 1.404 . S
C885 H897 0.930 . S
C886 C882 1.524 . S
C886 H898 0.956 . S
C886 H899 0.961 . S
C886 H900 0.961 . S
C887 C884 1.539 . S
C887 H901 0.958 . S
C887 H902 0.961 . S
C887 H903 0.960 . S
H888 C872 0.931 . S
H889 C877 0.929 . S
H890 C878 0.960 . S
H891 C878 0.962 . S
H892 C878 0.960 . S
H893 C879 0.961 . S
H894 C879 0.961 . S
H895 C879 0.961 . S
H896 C880 0.931 . S
H897 C885 0.930 . S
H898 C886 0.956 . S
H899 C886 0.961 . S
H900 C886 0.961 . S
H901 C887 0.958 . S
H902 C887 0.961 . S
H903 C887 0.960 . S
C904 C905 1.391 . S
C904 C906 1.394 . S
C904 H920 0.931 . S
C905 C904 1.391 . S
C905 C909 1.376 . S
C906 C904 1.394 . S
C906 C907 1.369 . S
C906 C910 1.531 . S
C907 C906 1.369 . S
C907 C908 1.410 . S
C907 C915 1.503 1_455 S
C908 C907 1.410 . S
C908 C909 1.392 . S
C908 C911 1.511 . S
C909 C905 1.376 . S
C909 C908 1.392 . S
C909 H921 0.929 . S
C910 C906 1.531 . S
C910 H922 0.960 1_455 S
C910 H923 0.962 . S
C910 H924 0.960 . S
C911 C908 1.511 . S
C911 H925 0.961 . S
C911 H926 0.961 1_455 S
C911 H927 0.961 . S
C912 C913 1.370 . S
C912 C914 1.363 . S
C912 H928 0.931 . S
C913 C912 1.370 . S
C913 C917 1.408 . S
C914 C912 1.363 . S
C914 C915 1.370 . S
C914 C918 1.524 . S
C915 C907 1.503 1_655 S
C915 C914 1.370 . S
C915 C916 1.403 . S
C916 C915 1.403 . S
C916 C917 1.404 . S
C916 C919 1.539 . S
C917 C913 1.408 . S
C917 C916 1.404 . S
C917 H929 0.930 . S
C918 C914 1.524 . S
C918 H930 0.959 1_655 S
C918 H931 0.961 1_655 S
C918 H932 0.961 . S
C919 C916 1.539 . S
C919 H933 0.958 1_556 S
C919 H934 0.961 1_556 S
C919 H935 0.960 . S
H920 C904 0.931 . S
H921 C909 0.929 . S
H922 C910 0.960 1_655 S
H923 C910 0.962 . S
H924 C910 0.960 . S
H925 C911 0.961 . S
H926 C911 0.961 1_655 S
H927 C911 0.961 . S
H928 C912 0.931 . S
H929 C917 0.930 . S
H930 C918 0.959 1_455 S
H931 C918 0.961 1_455 S
H932 C918 0.961 . S
H933 C919 0.958 1_554 S
H934 C919 0.961 1_554 S
H935 C919 0.960 . S
C169 C9 1.127 . S
C177 C149 1.134 . S
C201 C23 1.129 . S
C209 C163 1.130 . S
C233 C93 1.130 . S
C241 C37 1.132 . S
C265 C51 1.116 . S
C273 C107 1.137 . S
C297 C121 1.116 . S
C305 C65 1.136 . S
C329 C135 1.131 . S
C337 C79 1.132 1_554 S
C361 C123 1.356 . S
C369 C11 1.353 . S
C393 C25 1.348 . S
C401 C137 1.355 . S
C425 C151 1.371 . S
C433 C39 1.345 . S
C457 C53 1.367 . S
C465 C165 1.344 . S
C489 C67 1.353 . S
C497 C95 1.346 . S
C521 C81 1.366 . S
C529 C109 1.348 . S
C553 C140 1.611 . S
C561 C0 1.615 . S
C585 C154 1.616 . S
C593 C14 1.614 . S
C617 C84 1.622 1_554 S
C625 C28 1.609 . S
C649 C42 1.594 . S
C657 C98 1.599 . S
C681 C56 1.586 . S
C689 C112 1.608 . S
C713 C126 1.616 . S
C721 C70 1.603 . S
C745 C5 1.329 . S
C753 C103 1.328 . S
C777 C117 1.317 . S
C785 C19 1.318 . S
C809 C131 1.317 . S
C817 C33 1.324 . S
C841 C47 1.312 . S
C849 C145 1.317 . S
C873 C61 1.328 . S
C881 C159 1.328 . S
C905 C75 1.320 . S
C913 C89 1.325 . S
