# Generated by pormake.
# Topology wip, (6)-cn, num edge types: 1
# Building blocks:
#     Node 0, Type 0, BuildingBlock: GEDQOX_clean_sbu_0, # of connection points: 6
#     Node 1, Type 0, BuildingBlock: GEDQOX_clean_sbu_0, # of connection points: 6
#     Node 2, Type 0, BuildingBlock: GEDQOX_clean_sbu_0, # of connection points: 6
#     Node 3, Type 0, BuildingBlock: GEDQOX_clean_sbu_0, # of connection points: 6
#     Node 4, Type 0, BuildingBlock: GEDQOX_clean_sbu_0, # of connection points: 6
#     Node 5, Type 0, BuildingBlock: GEDQOX_clean_sbu_0, # of connection points: 6
#     Node 6, Type 0, BuildingBlock: GEDQOX_clean_sbu_0, # of connection points: 6
#     Node 7, Type 0, BuildingBlock: GEDQOX_clean_sbu_0, # of connection points: 6
#     Node 8, Type 0, BuildingBlock: GEDQOX_clean_sbu_0, # of connection points: 6
#     Node 9, Type 0, BuildingBlock: GEDQOX_clean_sbu_0, # of connection points: 6
#     Node 10, Type 0, BuildingBlock: GEDQOX_clean_sbu_0, # of connection points: 6
#     Node 11, Type 0, BuildingBlock: GEDQOX_clean_sbu_0, # of connection points: 6
#     Node 12, Type 0, BuildingBlock: GEDQOX_clean_sbu_0, # of connection points: 6
#     Node 13, Type 0, BuildingBlock: GEDQOX_clean_sbu_0, # of connection points: 6
#     Node 14, Type 0, BuildingBlock: GEDQOX_clean_sbu_0, # of connection points: 6
#     Node 15, Type 0, BuildingBlock: GEDQOX_clean_sbu_0, # of connection points: 6
#     Node 16, Type 0, BuildingBlock: GEDQOX_clean_sbu_0, # of connection points: 6
#     Node 17, Type 0, BuildingBlock: GEDQOX_clean_sbu_0, # of connection points: 6
#     Node 18, Type 0, BuildingBlock: GEDQOX_clean_sbu_0, # of connection points: 6
#     Node 19, Type 0, BuildingBlock: GEDQOX_clean_sbu_0, # of connection points: 6
#     Node 20, Type 0, BuildingBlock: GEDQOX_clean_sbu_0, # of connection points: 6
#     Node 21, Type 0, BuildingBlock: GEDQOX_clean_sbu_0, # of connection points: 6
#     Node 22, Type 0, BuildingBlock: GEDQOX_clean_sbu_0, # of connection points: 6
#     Node 23, Type 0, BuildingBlock: GEDQOX_clean_sbu_0, # of connection points: 6
#     Node 24, Type 0, BuildingBlock: GEDQOX_clean_sbu_0, # of connection points: 6
#     Node 25, Type 0, BuildingBlock: GEDQOX_clean_sbu_0, # of connection points: 6
#     Node 26, Type 0, BuildingBlock: GEDQOX_clean_sbu_0, # of connection points: 6
#     Node 27, Type 0, BuildingBlock: GEDQOX_clean_sbu_0, # of connection points: 6
#     Node 28, Type 0, BuildingBlock: GEDQOX_clean_sbu_0, # of connection points: 6
#     Node 29, Type 0, BuildingBlock: GEDQOX_clean_sbu_0, # of connection points: 6
#     Node 30, Type 0, BuildingBlock: GEDQOX_clean_sbu_0, # of connection points: 6
#     Node 31, Type 0, BuildingBlock: GEDQOX_clean_sbu_0, # of connection points: 6
#     Edge 32, Type (0, 0), None
#     Edge 33, Type (0, 0), None
#     Edge 34, Type (0, 0), None
#     Edge 35, Type (0, 0), None
#     Edge 36, Type (0, 0), None
#     Edge 37, Type (0, 0), None
#     Edge 38, Type (0, 0), None
#     Edge 39, Type (0, 0), None
#     Edge 40, Type (0, 0), None
#     Edge 41, Type (0, 0), None
#     Edge 42, Type (0, 0), None
#     Edge 43, Type (0, 0), None
#     Edge 44, Type (0, 0), None
#     Edge 45, Type (0, 0), None
#     Edge 46, Type (0, 0), None
#     Edge 47, Type (0, 0), None
#     Edge 48, Type (0, 0), None
#     Edge 49, Type (0, 0), None
#     Edge 50, Type (0, 0), None
#     Edge 51, Type (0, 0), None
#     Edge 52, Type (0, 0), None
#     Edge 53, Type (0, 0), None
#     Edge 54, Type (0, 0), None
#     Edge 55, Type (0, 0), None
#     Edge 56, Type (0, 0), None
#     Edge 57, Type (0, 0), None
#     Edge 58, Type (0, 0), None
#     Edge 59, Type (0, 0), None
#     Edge 60, Type (0, 0), None
#     Edge 61, Type (0, 0), None
#     Edge 62, Type (0, 0), None
#     Edge 63, Type (0, 0), None
#     Edge 64, Type (0, 0), None
#     Edge 65, Type (0, 0), None
#     Edge 66, Type (0, 0), None
#     Edge 67, Type (0, 0), None
#     Edge 68, Type (0, 0), None
#     Edge 69, Type (0, 0), None
#     Edge 70, Type (0, 0), None
#     Edge 71, Type (0, 0), None
#     Edge 72, Type (0, 0), None
#     Edge 73, Type (0, 0), None
#     Edge 74, Type (0, 0), None
#     Edge 75, Type (0, 0), None
#     Edge 76, Type (0, 0), None
#     Edge 77, Type (0, 0), None
#     Edge 78, Type (0, 0), None
#     Edge 79, Type (0, 0), None
#     Edge 80, Type (0, 0), None
#     Edge 81, Type (0, 0), None
#     Edge 82, Type (0, 0), None
#     Edge 83, Type (0, 0), None
#     Edge 84, Type (0, 0), None
#     Edge 85, Type (0, 0), None
#     Edge 86, Type (0, 0), None
#     Edge 87, Type (0, 0), None
#     Edge 88, Type (0, 0), None
#     Edge 89, Type (0, 0), None
#     Edge 90, Type (0, 0), None
#     Edge 91, Type (0, 0), None
#     Edge 92, Type (0, 0), None
#     Edge 93, Type (0, 0), None
#     Edge 94, Type (0, 0), None
#     Edge 95, Type (0, 0), None
#     Edge 96, Type (0, 0), None
#     Edge 97, Type (0, 0), None
#     Edge 98, Type (0, 0), None
#     Edge 99, Type (0, 0), None
#     Edge 100, Type (0, 0), None
#     Edge 101, Type (0, 0), None
#     Edge 102, Type (0, 0), None
#     Edge 103, Type (0, 0), None
#     Edge 104, Type (0, 0), None
#     Edge 105, Type (0, 0), None
#     Edge 106, Type (0, 0), None
#     Edge 107, Type (0, 0), None
#     Edge 108, Type (0, 0), None
#     Edge 109, Type (0, 0), None
#     Edge 110, Type (0, 0), None
#     Edge 111, Type (0, 0), None
#     Edge 112, Type (0, 0), None
#     Edge 113, Type (0, 0), None
#     Edge 114, Type (0, 0), None
#     Edge 115, Type (0, 0), None
#     Edge 116, Type (0, 0), None
#     Edge 117, Type (0, 0), None
#     Edge 118, Type (0, 0), None
#     Edge 119, Type (0, 0), None
#     Edge 120, Type (0, 0), None
#     Edge 121, Type (0, 0), None
#     Edge 122, Type (0, 0), None
#     Edge 123, Type (0, 0), None
#     Edge 124, Type (0, 0), None
#     Edge 125, Type (0, 0), None
#     Edge 126, Type (0, 0), None
#     Edge 127, Type (0, 0), None
# Relax obj value: 0.461
# Max RMSD: 0.395
# Mean RMSD: 0.343
data_MOF--net-wip--node1-GEDQOX_clean_sbu_0--edge1-none
_symmetry_space_group_name_H-M    P1
_symmetry_Int_Tables_number       1
_symmetry_cell_setting            triclinic
loop_
_symmetry_equiv_pos_as_xyz
'x, y, z'
_cell_length_a     28.890423
_cell_length_b     28.875255
_cell_length_c     19.968803
_cell_angle_alpha  89.999465
_cell_angle_beta   90.000201
_cell_angle_gamma 89.993831
loop_
_atom_site_label
_atom_site_type_symbol
_atom_site_fract_x
_atom_site_fract_y
_atom_site_fract_z
_atom_type_partial_charge
Nd0 Nd 0.05747 0.42157 0.09536 0.0
Nd1 Nd -0.02269 0.35689 0.14494 0.0
C2 C 0.11266 0.45723 1.00174 0.0
C3 C 0.107 0.47434 0.9309 0.0
C4 C 0.06681 0.49793 0.91105 0.0
C5 C 0.05992 0.51062 0.84386 0.0
C6 C 0.09295 0.50095 0.79361 0.0
C7 C 0.13325 0.47699 0.81309 0.0
C8 C 0.14018 0.46396 0.88089 0.0
C9 C 0.08362 0.34213 0.16409 0.0
C10 C -0.02654 0.393 0.99196 0.0
C11 C 0.92857 0.29268 0.20254 0.0
C12 C 0.91664 0.29413 0.2746 0.0
C13 C 0.93767 0.26229 0.31753 0.0
C14 C 0.93827 0.27023 0.38626 0.0
C15 C 0.91834 0.30982 0.41444 0.0
C16 C 0.89372 0.33989 0.37237 0.0
C17 C 0.8931 0.33235 0.30286 0.0
C18 C 0.96042 0.44499 0.17992 0.0
C19 C 0.04393 0.42031 0.24867 0.0
O20 O 0.09489 0.48205 1.05108 0.0
O21 O 0.10627 0.41261 1.01032 0.0
O22 O 0.10739 0.38023 0.16384 0.0
O23 O 0.05143 0.34493 0.12025 0.0
O24 O 0.00311 0.42453 1.01153 0.0
O25 O 0.9606 0.35878 1.03184 0.0
O26 O -0.02706 0.28714 0.19025 0.0
O27 O 0.90914 0.32414 0.16422 0.0
O28 O 0.94259 0.41011 0.21072 0.0
O29 O -0.01903 0.43312 0.12527 0.0
O30 O 0.01762 0.38316 0.23718 0.0
O31 O 0.06093 0.44772 0.20129 0.0
H32 H 0.03998 0.5057 0.94725 0.0
H33 H 0.02753 0.52684 0.83078 0.0
H34 H 0.15924 0.46823 0.77612 0.0
H35 H 0.17129 0.44513 0.89414 0.0
H36 H 0.95554 0.23223 0.29777 0.0
H37 H 0.95353 0.24454 0.4175 0.0
H38 H 0.87636 0.36983 0.39272 0.0
H39 H 0.87614 0.35767 0.27129 0.0
Nd40 Nd 0.75987 0.80864 0.34512 0.0
Nd41 Nd 0.82472 0.7286 0.39474 0.0
C42 C 0.72391 0.86375 0.2516 0.0
C43 C 0.7068 0.85801 0.18076 0.0
C44 C 0.68331 0.81774 0.16096 0.0
C45 C 0.67062 0.8108 0.09377 0.0
C46 C 0.6802 0.84384 1.04349 0.0
C47 C 0.70404 0.88422 1.06293 0.0
C48 C 0.71706 0.89122 0.13073 0.0
C49 C 0.83921 0.83493 0.41389 0.0
C50 C 0.78885 0.72475 0.24165 0.0
C51 C 0.88904 0.67992 0.45223 0.0
C52 C 0.88761 0.66774 0.52419 0.0
C53 C 0.91957 0.68847 0.56722 0.0
C54 C 0.91167 0.68888 0.63597 0.0
C55 C 0.87199 0.6691 0.66404 0.0
C56 C 0.84181 0.64474 0.62185 0.0
C57 C 0.84932 0.64428 0.55234 0.0
C58 C 0.7367 0.71144 0.42961 0.0
C59 C 0.76108 0.79508 0.49843 0.0
O60 O 0.69921 0.84583 0.30095 0.0
O61 O 0.76853 0.85758 0.26014 0.0
O62 O 0.80108 0.85864 0.41368 0.0
O63 O 0.83647 0.80276 0.37001 0.0
O64 O 0.75724 0.75434 0.26115 0.0
O65 O 0.823 0.71192 0.28163 0.0
O66 O 0.89438 0.72439 0.44028 0.0
O67 O 0.8577 0.66048 0.41374 0.0
O68 O 0.77161 0.6937 0.46043 0.0
O69 O 0.74851 0.73205 0.37497 0.0
O70 O 0.79827 0.76883 0.487 0.0
O71 O 0.73367 0.812 0.45101 0.0
H72 H 0.67562 0.7909 0.19718 0.0
H73 H 0.65448 0.77835 0.08074 0.0
H74 H 0.71273 0.91024 1.02594 0.0
H75 H 0.73579 0.92241 0.14394 0.0
H76 H 0.94968 0.70627 0.54753 0.0
H77 H 0.93743 0.70396 0.66726 0.0
H78 H 0.81181 0.62745 0.64211 0.0
H79 H 0.82393 0.62751 0.52069 0.0
Nd80 Nd 0.37337 0.51041 0.59537 0.0
Nd81 Nd 0.45351 0.57513 0.64495 0.0
C82 C 0.31819 0.47475 0.50174 0.0
C83 C 0.32386 0.45765 0.43089 0.0
C84 C 0.36411 0.4342 0.411 0.0
C85 C 0.37099 0.42152 0.3438 0.0
C86 C 0.3379 0.43106 0.29359 0.0
C87 C 0.29754 0.45489 0.31312 0.0
C88 C 0.29061 0.46791 0.38093 0.0
C89 C 0.3472 0.58981 0.66415 0.0
C90 C 0.45735 0.53904 0.49195 0.0
C91 C 0.50222 0.63936 0.70255 0.0
C92 C 0.51418 0.63791 0.77459 0.0
C93 C 0.4932 0.66977 0.81755 0.0
C94 C 0.49264 0.66184 0.88628 0.0
C95 C 0.51255 0.62223 0.91444 0.0
C96 C 0.53713 0.59214 0.87235 0.0
C97 C 0.53772 0.59968 0.80284 0.0
C98 C 0.47046 0.48703 0.6799 0.0
C99 C 0.38694 0.51163 0.74868 0.0
O100 O 0.33597 0.44992 0.55107 0.0
O101 O 0.32457 0.51936 0.51033 0.0
O102 O 0.32345 0.55171 0.6639 0.0
O103 O 0.37938 0.58704 0.6203 0.0
O104 O 0.42775 0.50747 0.51156 0.0
O105 O 0.47018 0.57327 0.53183 0.0
O106 O 0.45784 0.64487 0.69031 0.0
O107 O 0.52166 0.60792 0.6642 0.0
O108 O 0.48829 0.52191 0.71069 0.0
O109 O 0.44989 0.49889 0.62525 0.0
O110 O 0.41323 0.5488 0.73719 0.0
O111 O 0.36995 0.48423 0.70128 0.0
H112 H 0.39099 0.42652 0.44716 0.0
H113 H 0.40344 0.40541 0.33068 0.0
H114 H 0.27148 0.46355 0.27619 0.0
H115 H 0.25944 0.48663 0.39422 0.0
H116 H 0.47533 0.69984 0.7978 0.0
H117 H 0.47739 0.68753 0.91753 0.0
H118 H 0.55448 0.56219 0.89269 0.0
H119 H 0.55465 0.57435 0.77125 0.0
Nd120 Nd 0.67096 0.12341 0.84503 0.0
Nd121 Nd 0.60609 0.20342 0.89465 0.0
C122 C 0.70693 0.0683 0.75152 0.0
C123 C 0.72405 0.07404 0.68069 0.0
C124 C 0.74751 0.11432 0.66088 0.0
C125 C 0.76021 0.12126 0.5937 0.0
C126 C 0.75068 0.0882 0.54342 0.0
C127 C 0.72686 0.0478 0.56287 0.0
C128 C 0.71383 0.04081 0.63067 0.0
C129 C 0.59164 0.09708 0.91383 0.0
C130 C 0.64193 0.20724 0.74153 0.0
C131 C 0.54177 0.25211 0.95212 0.0
C132 C 0.54321 0.26432 1.02407 0.0
C133 C 0.51128 0.24358 1.06713 0.0
C134 C 0.51918 0.24321 0.13587 0.0
C135 C 0.55884 0.26306 0.16392 0.0
C136 C 0.589 0.28743 0.1217 0.0
C137 C 0.58148 0.28785 1.05219 0.0
C138 C 0.6941 0.22062 0.92952 0.0
C139 C 0.66975 0.13696 0.99835 0.0
O140 O 0.73162 0.08623 0.80088 0.0
O141 O 0.6623 0.07448 0.76005 0.0
O142 O 0.62978 0.07339 0.91361 0.0
O143 O 0.59435 0.12925 0.86995 0.0
O144 O 0.67358 0.17771 0.76106 0.0
O145 O 0.60777 0.22005 0.78151 0.0
O146 O 0.53644 0.20765 0.9402 0.0
O147 O 0.57311 0.27155 0.91361 0.0
O148 O 0.65918 0.23834 0.96034 0.0
O149 O 0.6823 0.20001 0.87488 0.0
O150 O 0.63255 0.16321 0.98693 0.0
O151 O 0.69716 0.12006 0.95092 0.0
H152 H 0.75517 0.14118 0.6971 0.0
H153 H 0.77632 0.15372 0.58066 0.0
H154 H 0.71819 0.02177 0.52589 0.0
H155 H 0.69511 0.00961 0.64388 0.0
H156 H 0.48118 0.22574 1.04747 0.0
H157 H 0.49344 0.22814 0.16719 0.0
H158 H 0.61897 0.30477 0.14194 0.0
H159 H 0.60685 0.30462 1.02051 0.0
Nd160 Nd 0.05289 0.50198 0.57335 0.0
Nd161 Nd 0.0258 0.56477 0.60431 0.0
C162 C 0.08628 0.42655 0.52245 0.0
C163 C 0.07844 0.41825 0.45163 0.0
C164 C 0.11238 0.43137 0.40472 0.0
C165 C 0.10081 0.43573 0.33747 0.0
C166 C 0.05521 0.42755 0.31763 0.0
C167 C 0.02124 0.41587 0.36427 0.0
C168 C 0.03278 0.41078 0.43037 0.0
C169 C -0.01703 0.48096 0.68819 0.0
C170 C -0.02246 0.54311 0.46981 0.0
C171 C 0.01775 0.63776 0.67835 0.0
C172 C 0.01526 0.63486 0.75239 0.0
C173 C -0.02161 0.61241 0.784 0.0
C174 C -0.02094 0.60467 0.85305 0.0
C175 C 0.01666 0.61938 0.89318 0.0
C176 C 0.0553 0.63771 0.85988 0.0
C177 C 0.05458 0.64512 0.79083 0.0
C178 C 0.06741 0.58562 0.46476 0.0
C179 C 0.08237 0.51497 0.72229 0.0
O180 O 0.11256 0.46214 0.53491 0.0
O181 O 0.04931 0.42602 0.5596 0.0
O182 O -0.01601 0.49847 0.62829 0.0
O183 O -0.01492 0.4982 0.6292 0.0
O184 O 0.0104 0.51151 0.47498 0.0
O185 O -0.02947 0.57076 0.5214 0.0
O186 O -0.01742 0.62215 0.64315 0.0
O187 O 0.05747 0.62403 0.65462 0.0
O188 O 0.08122 0.56874 0.52235 0.0
O189 O 0.08037 0.56885 0.5223 0.0
O190 O 0.04848 0.54302 0.71078 0.0
O191 O 0.09974 0.49605 0.66877 0.0
H192 H 0.14732 0.43968 0.42037 0.0
H193 H 0.12743 0.44395 0.30113 0.0
H194 H -0.01435 0.40973 0.34929 0.0
H195 H 0.00486 0.4043 0.46509 0.0
H196 H 0.95011 0.59865 0.75483 0.0
H197 H 0.95057 0.58539 0.8736 0.0
H198 H 0.08649 0.64643 0.88647 0.0
H199 H 0.08578 0.65707 0.76703 0.0
Nd200 Nd 0.67947 0.804 0.82307 0.0
Nd201 Nd 0.61689 0.77614 0.85419 0.0
C202 C 0.75442 0.83823 0.77194 0.0
C203 C 0.76292 0.83023 0.70121 0.0
C204 C 0.74986 0.86404 0.65407 0.0
C205 C 0.7456 0.85226 0.58688 0.0
C206 C 0.75386 0.80658 0.56733 0.0
C207 C 0.76559 0.77275 0.61419 0.0
C208 C 0.77054 0.7845 0.68024 0.0
C209 C 0.70107 0.73407 0.93781 0.0
C210 C 0.63895 0.72827 0.71949 0.0
C211 C 0.54405 0.76712 0.92819 0.0
C212 C 0.54697 0.76473 1.00224 0.0
C213 C 0.56967 0.72804 1.03394 0.0
C214 C 0.57732 0.72882 0.10301 0.0
C215 C 0.56234 0.76639 0.14303 0.0
C216 C 0.54372 0.80486 0.10964 0.0
C217 C 0.53634 0.80401 1.04059 0.0
C218 C 0.59552 0.81776 0.71482 0.0
C219 C 0.66626 0.83317 0.97216 0.0
O220 O 0.71846 0.86407 0.78405 0.0
O221 O 0.75545 0.80142 0.80944 0.0
O222 O 0.68366 0.73503 0.87784 0.0
O223 O 0.68392 0.73613 0.87877 0.0
O224 O 0.67023 0.76143 0.72467 0.0
O225 O 0.61144 0.72093 0.77111 0.0
O226 O 0.56015 0.73212 0.89308 0.0
O227 O 0.55722 0.80702 0.9044 0.0
O228 O 0.61233 0.83165 0.77241 0.0
O229 O 0.61223 0.8308 0.77237 0.0
O230 O 0.63845 0.79908 0.96063 0.0
O231 O 0.68504 0.85074 0.91866 0.0
H232 H 0.7415 0.89903 0.6695 0.0
H233 H 0.73736 0.87877 0.55036 0.0
H234 H 0.77183 0.73712 0.59944 0.0
H235 H 0.77701 0.75668 0.71517 0.0
H236 H 0.58366 0.69981 1.00486 0.0
H237 H 0.59674 0.70045 0.12366 0.0
H238 H 0.53475 0.83601 0.13615 0.0
H239 H 0.52413 0.8351 1.01674 0.0
Nd240 Nd 0.37794 0.42999 0.07335 0.0
Nd241 Nd 0.40506 0.36724 0.10431 0.0
C242 C 0.34449 0.50538 1.02241 0.0
C243 C 0.35236 0.51369 0.95159 0.0
C244 C 0.31844 0.50055 0.90466 0.0
C245 C 0.33004 0.49619 0.83743 0.0
C246 C 0.37565 0.50439 0.81762 0.0
C247 C 0.4096 0.51608 0.86428 0.0
C248 C 0.39802 0.52118 0.93037 0.0
C249 C 0.44786 0.45108 0.18817 0.0
C250 C 0.45333 0.38891 0.96983 0.0
C251 C 0.41316 0.29429 0.17841 0.0
C252 C 0.41563 0.2972 0.25245 0.0
C253 C 0.4524 0.31981 0.28405 0.0
C254 C 0.45171 0.32755 0.3531 0.0
C255 C 0.41416 0.31269 0.39323 0.0
C256 C 0.37561 0.29418 0.35994 0.0
C257 C 0.37636 0.28677 0.29088 0.0
C258 C 0.36349 0.34632 0.96475 0.0
C259 C 0.34847 0.41702 0.22228 0.0
O260 O 0.31825 0.46976 1.03484 0.0
O261 O 0.38144 0.50595 1.0596 0.0
O262 O 0.44685 0.43357 0.12827 0.0
O263 O 0.44575 0.43384 0.12918 0.0
O264 O 0.42044 0.42048 0.97498 0.0
O265 O 0.46035 0.36127 1.02142 0.0
O266 O 0.44832 0.30992 0.14321 0.0
O267 O 0.37343 0.30797 0.15466 0.0
O268 O 0.34966 0.36321 1.02233 0.0
O269 O 0.35051 0.3631 1.02229 0.0
O270 O 0.38238 0.389 0.21077 0.0
O271 O 0.33106 0.4359 0.16875 0.0
H272 H 0.2835 0.49224 0.92029 0.0
H273 H 0.30344 0.48796 0.80107 0.0
H274 H 0.44518 0.52224 0.84933 0.0
H275 H 0.42593 0.52767 0.96512 0.0
H276 H 0.48063 0.3337 0.25488 0.0
H277 H 0.4801 0.34697 0.37366 0.0
H278 H 0.34447 0.28531 0.38654 0.0
H279 H 0.34523 0.27469 0.26708 0.0
Nd280 Nd 0.7514 0.12792 0.32295 0.0
Nd281 Nd 0.81391 0.15601 0.35414 0.0
C282 C 0.67658 0.09346 0.27174 0.0
C283 C 0.66799 0.10154 0.20105 0.0
C284 C 0.68107 0.06781 0.1538 0.0
C285 C 0.68528 0.07969 0.08665 0.0
C286 C 0.67693 0.12538 1.06723 0.0
C287 C 0.66514 0.15912 0.11418 0.0
C288 C 0.66025 0.14727 0.18022 0.0
C289 C 0.7296 0.19789 0.43759 0.0
C290 C 0.79177 0.20375 0.21939 0.0
C291 C 0.88668 0.16533 0.4282 0.0
C292 C 0.88374 0.16766 0.50224 0.0
C293 C 0.86091 0.20424 0.53399 0.0
C294 C 0.85331 0.20341 0.60307 0.0
C295 C 0.86844 0.16587 0.64304 0.0
C296 C 0.8872 0.1275 0.6096 0.0
C297 C 0.89456 0.12841 0.54055 0.0
C298 C 0.83548 0.11436 0.21485 0.0
C299 C 0.76461 0.09887 0.47209 0.0
O300 O 0.71266 0.06776 0.2837 0.0
O301 O 0.6754 0.1302 0.30938 0.0
O302 O 0.74699 0.19692 0.37762 0.0
O303 O 0.74674 0.19582 0.37855 0.0
O304 O 0.76059 0.17049 0.22454 0.0
O305 O 0.81922 0.21119 0.27103 0.0
O306 O 0.87043 0.20027 0.39312 0.0
O307 O 0.87369 0.12538 0.40435 0.0
O308 O 0.81867 0.10048 0.27243 0.0
O309 O 0.81877 0.10133 0.27239 0.0
O310 O 0.79235 0.13303 0.46056 0.0
O311 O 0.74591 0.08123 0.41859 0.0
H312 H 0.68948 0.03281 0.16914 0.0
H313 H 0.69356 0.05324 1.05005 0.0
H314 H 0.65882 0.19476 0.09953 0.0
H315 H 0.65376 0.17504 0.21523 0.0
H316 H 0.8468 0.23244 0.50495 0.0
H317 H 0.83383 0.23171 0.62377 0.0
H318 H 0.89631 0.09638 0.63609 0.0
H319 H 0.90691 0.0974 0.51668 0.0
Nd320 Nd 0.94933 0.57724 0.24746 0.0
Nd321 Nd 0.87003 0.51439 0.30164 0.0
C322 C -0.0021 0.63739 0.18209 0.0
C323 C 0.00459 0.63198 0.10896 0.0
C324 C -0.03393 0.62283 1.06842 0.0
C325 C -0.02902 0.61569 1.00009 0.0
C326 C 0.01424 0.61862 0.96857 0.0
C327 C 0.05351 0.62519 1.0101 0.0
C328 C 0.04864 0.63172 0.07954 0.0
C329 C -0.034 0.48886 0.21516 0.0
C330 C 0.88083 0.51199 0.14825 0.0
C331 C 0.8154 0.47648 0.39354 0.0
C332 C 0.82252 0.46053 0.46425 0.0
C333 C 0.86553 0.44301 0.48463 0.0
C334 C 0.87333 0.43017 0.55129 0.0
C335 C 0.83871 0.43489 0.6008 0.0
C336 C 0.79596 0.45406 0.58115 0.0
C337 C 0.78783 0.46628 0.51346 0.0
C338 C 0.84208 0.59169 0.2295 0.0
C339 C 0.95324 0.54922 0.40487 0.0
O340 O 0.95532 0.64672 0.20142 0.0
O341 O 0.01805 0.60572 0.21904 0.0
O342 O -0.01654 0.52335 0.18325 0.0
O343 O 0.94592 0.50106 0.27017 0.0
O344 O 0.90712 0.54943 0.15739 0.0
O345 O 0.86561 0.48538 0.19759 0.0
O346 O 0.83511 0.45239 0.34509 0.0
O347 O 0.8191 0.52131 0.3843 0.0
O348 O 0.81855 0.55356 0.23289 0.0
O349 O 0.87507 0.59029 0.27226 0.0
O350 O 0.92146 0.51862 0.3895 0.0
O351 O -0.03151 0.57944 0.36019 0.0
H352 H 0.93152 0.62154 0.08919 0.0
H353 H 0.94002 0.60903 0.97225 0.0
H354 H 0.08817 0.6255 0.9899 0.0
H355 H 0.07919 0.63653 0.11015 0.0
H356 H 0.89365 0.43969 0.44912 0.0
H357 H 0.90735 0.41713 0.5641 0.0
H358 H 0.76888 0.45951 0.61782 0.0
H359 H 0.75463 0.48089 0.49972 0.0
Nd360 Nd 0.09942 0.19419 0.99973 0.0
Nd361 Nd 0.17232 0.1217 1.05282 0.0
C362 C 0.02867 0.23126 0.93849 0.0
C363 C 0.02428 0.23985 0.86549 0.0
C364 C -0.00867 0.21498 0.82932 0.0
C365 C -0.00953 0.21601 0.75954 0.0
C366 C 0.0251 0.23922 0.72307 0.0
C367 C 0.05726 0.26611 0.75958 0.0
C368 C 0.05674 0.26657 0.82988 0.0
C369 C 0.18578 0.22076 0.96752 0.0
C370 C 0.17088 0.134 0.89959 0.0
C371 C 0.21199 0.06746 0.14354 0.0
C372 C 0.22387 0.07316 0.21566 0.0
C373 C 0.2307 0.11759 0.24153 0.0
C374 C 0.23674 0.12441 0.31005 0.0
C375 C 0.23869 0.08703 0.35522 0.0
C376 C 0.22998 0.04233 0.3303 0.0
C377 C 0.22261 0.03547 0.26087 0.0
C378 C 0.09722 0.08597 0.98525 0.0
C379 C 0.13237 0.20345 0.15471 0.0
O380 O 0.02951 0.18736 0.95569 0.0
O381 O 0.05885 0.25648 0.97149 0.0
O382 O 0.14962 0.23458 0.9353 0.0
O383 O 0.17532 0.19891 1.02178 0.0
O384 O 0.13074 0.15562 0.90975 0.0
O385 O 0.19967 0.12083 0.94765 0.0
O386 O 0.23592 0.09147 0.09904 0.0
O387 O 0.16743 0.06795 0.13135 0.0
O388 O 0.13776 0.06691 0.98555 0.0
O389 O 0.09615 0.11934 1.02737 0.0
O390 O 0.1656 0.17461 0.1384 0.0
O391 O 0.09882 0.21428 0.11219 0.0
H392 H -0.03183 0.19213 0.85535 0.0
H393 H 0.96421 0.1958 0.73482 0.0
H394 H 0.08335 0.28649 0.73422 0.0
H395 H 0.08309 0.28615 0.85605 0.0
H396 H 0.23127 0.14743 0.20887 0.0
H397 H 0.24048 0.15962 0.32771 0.0
H398 H 0.22967 0.0129 0.36386 0.0
H399 H 0.21584 0.00082 0.24251 0.0
Nd400 Nd 0.48158 0.3548 0.74748 0.0
Nd401 Nd 0.56085 0.41767 0.80168 0.0
C402 C 0.43302 0.29465 0.68211 0.0
C403 C 0.4263 0.30008 0.60898 0.0
C404 C 0.46479 0.30931 0.56844 0.0
C405 C 0.45985 0.31648 0.50012 0.0
C406 C 0.41659 0.31346 0.46861 0.0
C407 C 0.37734 0.30679 0.51014 0.0
C408 C 0.38224 0.30025 0.57959 0.0
C409 C 0.46488 0.44317 0.71516 0.0
C410 C 0.55008 0.42008 0.6483 0.0
C411 C 0.61547 0.45557 0.89359 0.0
C412 C 0.60834 0.47152 0.96429 0.0
C413 C 0.56534 0.48906 0.98466 0.0
C414 C 0.55753 0.5019 1.05132 0.0
C415 C 0.59215 0.49716 0.10084 0.0
C416 C 0.63488 0.47796 0.08121 0.0
C417 C 0.64302 0.46575 1.01351 0.0
C418 C 0.58883 0.34038 0.72955 0.0
C419 C 0.47764 0.38281 0.90489 0.0
O420 O 0.4756 0.28533 0.7014 0.0
O421 O 0.41286 0.32629 0.71909 0.0
O422 O 0.44744 0.40866 0.68325 0.0
O423 O 0.48497 0.43098 0.77017 0.0
O424 O 0.52379 0.38263 0.65743 0.0
O425 O 0.56528 0.4467 0.69764 0.0
O426 O 0.59576 0.47966 0.84514 0.0
O427 O 0.61178 0.41074 0.88435 0.0
O428 O 0.61235 0.37852 0.73294 0.0
O429 O 0.55584 0.34177 0.7723 0.0
O430 O 0.50941 0.41343 0.88952 0.0
O431 O 0.46241 0.35259 0.86021 0.0
H432 H 0.49933 0.31065 0.58919 0.0
H433 H 0.49078 0.32322 0.47226 0.0
H434 H 0.34268 0.30641 0.48995 0.0
H435 H 0.3517 0.29538 0.61021 0.0
H436 H 0.53723 0.49238 0.94914 0.0
H437 H 0.52351 0.51495 1.06412 0.0
H438 H 0.66195 0.4725 0.11789 0.0
H439 H 0.67622 0.45113 0.99979 0.0
Nd440 Nd 0.33155 0.73774 0.49987 0.0
Nd441 Nd 0.2586 0.8102 0.55291 0.0
C442 C 0.40228 0.70069 0.43861 0.0
C443 C 0.40665 0.69212 0.3656 0.0
C444 C 0.43956 0.71704 0.32941 0.0
C445 C 0.44039 0.71602 0.25963 0.0
C446 C 0.40578 0.69278 0.22317 0.0
C447 C 0.37365 0.66585 0.2597 0.0
C448 C 0.3742 0.66538 0.33 0.0
C449 C 0.2452 0.71112 0.46767 0.0
C450 C 0.26006 0.79788 0.39969 0.0
C451 C 0.21897 0.86444 0.64368 0.0
C452 C 0.20707 0.85874 0.71579 0.0
C453 C 0.20023 0.81431 0.74167 0.0
C454 C 0.19417 0.8075 0.81019 0.0
C455 C 0.19219 0.84488 0.85535 0.0
C456 C 0.20089 0.88958 0.83041 0.0
C457 C 0.20829 0.89644 0.76098 0.0
C458 C 0.33368 0.84597 0.48532 0.0
C459 C 0.29853 0.72847 0.65481 0.0
O460 O 0.40146 0.74459 0.45584 0.0
O461 O 0.37212 0.67546 0.47163 0.0
O462 O 0.28136 0.69731 0.43545 0.0
O463 O 0.25565 0.73298 0.52192 0.0
O464 O 0.3002 0.77628 0.40987 0.0
O465 O 0.23126 0.81104 0.44774 0.0
O466 O 0.19503 0.84047 0.59915 0.0
O467 O 0.26353 0.8639 0.63152 0.0
O468 O 0.29313 0.86499 0.48562 0.0
O469 O 0.33478 0.81261 0.52745 0.0
O470 O 0.26524 0.75722 0.63841 0.0
O471 O 0.33214 0.71772 0.61237 0.0
H472 H 0.46269 0.73992 0.35543 0.0
H473 H 0.46663 0.73626 0.23491 0.0
H474 H 0.34758 0.64546 0.23435 0.0
H475 H 0.34788 0.64576 0.35619 0.0
H476 H 0.19968 0.78446 0.70901 0.0
H477 H 0.19042 0.77229 0.82785 0.0
H478 H 0.20118 0.91902 0.86397 0.0
H479 H 0.21506 0.93108 0.74262 0.0
Nd480 Nd 0.91469 0.37568 0.78544 0.0
Nd481 Nd 0.86889 0.43249 0.82467 0.0
C482 C 0.94178 0.31179 0.70254 0.0
C483 C 0.93584 0.31572 0.62837 0.0
C484 C -0.02641 0.32408 0.58593 0.0
C485 C -0.03245 0.32386 0.51626 0.0
C486 C 0.92345 0.31831 0.48754 0.0
C487 C 0.88507 0.31599 0.52995 0.0
C488 C 0.89121 0.31366 0.59939 0.0
C489 C 0.87048 0.34032 0.91816 0.0
C490 C 0.8501 0.421 0.67159 0.0
C491 C 0.81935 0.49585 0.88322 0.0
C492 C 0.83012 0.50909 0.95148 0.0
C493 C 0.80165 0.49324 1.00377 0.0
C494 C 0.81876 0.49147 1.06877 0.0
C495 C 0.86444 0.50508 0.08106 0.0
C496 C 0.89261 0.52077 1.02911 0.0
C497 C 0.87532 0.52395 0.96526 0.0
C498 C 0.93876 0.47309 0.7206 0.0
C499 C 0.95074 0.39973 0.92654 0.0
O500 O -0.02775 0.3386 0.73219 0.0
O501 O 0.90341 0.3091 0.73619 0.0
O502 O 0.8571 0.35709 0.86027 0.0
O503 O 0.85798 0.35714 0.86034 0.0
O504 O 0.88884 0.39998 0.68264 0.0
O505 O 0.82695 0.43304 0.72484 0.0
O506 O 0.80511 0.45328 0.87786 0.0
O507 O 0.85042 0.50639 0.8385 0.0
O508 O 0.93795 0.45219 0.77823 0.0
O509 O 0.93674 0.45233 0.77711 0.0
O510 O 0.91206 0.42429 0.92294 0.0
O511 O -0.03448 0.37755 0.87296 0.0
H512 H 0.0081 0.32817 0.60628 0.0
H513 H -0.00235 0.32679 0.48484 0.0
H514 H 0.85046 0.31361 0.50936 0.0
H515 H 0.86067 0.31024 0.63029 0.0
H516 H 0.76708 0.48041 0.99372 0.0
H517 H 0.79634 0.48025 0.10914 0.0
H518 H 0.92824 0.53068 1.03803 0.0
H519 H 0.89885 0.53461 0.92611 0.0
Nd520 Nd 0.3051 0.1565 0.53759 0.0
Nd521 Nd 0.24469 0.12429 0.57384 0.0
C522 C 0.37201 0.16267 0.45196 0.0
C523 C 0.3642 0.15913 0.37846 0.0
C524 C 0.33368 0.18902 0.34548 0.0
C525 C 0.32531 0.18402 0.27699 0.0
C526 C 0.34795 0.14979 0.23905 0.0
C527 C 0.3723 0.1155 0.27398 0.0
C528 C 0.37968 0.12003 0.34312 0.0
C529 C 0.33146 0.11488 0.67572 0.0
C530 C 0.25341 0.09753 0.42537 0.0
C531 C 0.17383 0.08517 0.62979 0.0
C532 C 0.16587 0.09476 0.70001 0.0
C533 C 0.18024 0.06214 0.74802 0.0
C534 C 0.18684 0.07571 0.814 0.0
C535 C 0.17928 0.1219 0.83149 0.0
C536 C 0.16614 0.15456 0.78377 0.0
C537 C 0.1587 0.14106 0.71891 0.0
C538 C 0.21279 0.19501 0.46524 0.0
C539 C 0.28499 0.2036 0.67303 0.0
O540 O 0.35715 0.19969 0.48409 0.0
O541 O 0.36366 0.1244 0.48415 0.0
O542 O 0.31484 0.10071 0.61818 0.0
O543 O 0.31492 0.10165 0.61836 0.0
O544 O 0.27684 0.13467 0.43553 0.0
O545 O 0.23987 0.07674 0.47944 0.0
O546 O 0.21194 0.06246 0.61873 0.0
O547 O 0.16921 0.12039 0.58982 0.0
O548 O 0.23458 0.1938 0.52209 0.0
O549 O 0.23433 0.19277 0.52133 0.0
O550 O 0.25571 0.16837 0.67063 0.0
O551 O 0.31059 0.21223 0.61965 0.0
H552 H 0.31478 0.21513 0.3729 0.0
H553 H 0.30124 0.20742 0.25344 0.0
H554 H 0.38836 0.08692 0.24774 0.0
H555 H 0.39879 0.09356 0.36887 0.0
H556 H 0.18827 0.02681 0.73388 0.0
H557 H 0.19574 0.05005 0.85147 0.0
H558 H 0.1597 0.19038 0.79736 0.0
H559 H 0.14999 0.16791 0.68326 0.0
Nd560 Nd 0.51616 0.55636 0.28546 0.0
Nd561 Nd 0.56193 0.49956 0.32468 0.0
C562 C 0.48913 0.62026 0.20253 0.0
C563 C 0.49506 0.61632 0.12837 0.0
C564 C 0.45733 0.6079 0.08593 0.0
C565 C 0.46337 0.60811 1.01626 0.0
C566 C 0.50746 0.61374 0.98754 0.0
C567 C 0.54584 0.61611 1.02995 0.0
C568 C 0.53969 0.61844 0.09939 0.0
C569 C 0.56034 0.59172 0.4182 0.0
C570 C 0.58075 0.51105 0.17162 0.0
C571 C 0.61147 0.43619 0.38323 0.0
C572 C 0.60071 0.42298 0.4515 0.0
C573 C 0.62922 0.43879 0.50376 0.0
C574 C 0.61214 0.44057 0.56879 0.0
C575 C 0.56644 0.42701 0.5811 0.0
C576 C 0.53822 0.41139 0.52917 0.0
C577 C 0.55549 0.40819 0.46531 0.0
C578 C 0.49207 0.45898 0.22057 0.0
C579 C 0.48008 0.53232 0.42654 0.0
O580 O 0.45863 0.59349 0.2322 0.0
O581 O 0.5275 0.62293 0.23619 0.0
O582 O 0.57373 0.57495 0.36032 0.0
O583 O 0.57285 0.57491 0.36039 0.0
O584 O 0.54201 0.53208 0.18266 0.0
O585 O 0.60389 0.499 0.22488 0.0
O586 O 0.62572 0.47876 0.37785 0.0
O587 O 0.58039 0.42566 0.33852 0.0
O588 O 0.49287 0.47987 0.27821 0.0
O589 O 0.49408 0.47973 0.27709 0.0
O590 O 0.51875 0.50775 0.42294 0.0
O591 O 0.4653 0.55451 0.37296 0.0
H592 H 0.42282 0.60378 0.10628 0.0
H593 H 0.43327 0.60513 0.98484 0.0
H594 H 0.58043 0.61856 1.00935 0.0
H595 H 0.57022 0.62189 0.13028 0.0
H596 H 0.6638 0.45157 0.49369 0.0
H597 H 0.63459 0.45175 0.60914 0.0
H598 H 0.50259 0.40152 0.53812 0.0
H599 H 0.53192 0.39758 0.42617 0.0
Nd600 Nd 0.12579 0.77541 1.03773 0.0
Nd601 Nd 0.18621 0.80764 0.07397 0.0
C602 C 0.05888 0.7692 0.95213 0.0
C603 C 0.0667 0.77272 0.87864 0.0
C604 C 0.09721 0.74281 0.8457 0.0
C605 C 0.10562 0.7478 0.77722 0.0
C606 C 0.08303 0.78205 0.73925 0.0
C607 C 0.05869 0.81636 0.77416 0.0
C608 C 0.05127 0.81183 0.84329 0.0
C609 C 0.09941 0.81705 0.17583 0.0
C610 C 0.17747 0.83439 0.9255 0.0
C611 C 0.25709 0.84675 0.1299 0.0
C612 C 0.26507 0.83716 0.20012 0.0
C613 C 0.25065 0.86975 0.24813 0.0
C614 C 0.24405 0.85616 0.3141 0.0
C615 C 0.25167 0.80998 0.33158 0.0
C616 C 0.26487 0.77734 0.28385 0.0
C617 C 0.2723 0.79086 0.219 0.0
C618 C 0.21811 0.73692 0.96537 0.0
C619 C 0.14594 0.72833 0.17317 0.0
O620 O 0.07374 0.73219 0.98429 0.0
O621 O 0.06722 0.80748 0.9843 0.0
O622 O 0.11605 0.83121 0.11829 0.0
O623 O 0.11597 0.83027 0.11847 0.0
O624 O 0.15405 0.79724 0.93566 0.0
O625 O 0.19101 0.85518 0.97956 0.0
O626 O 0.21898 0.86946 0.11884 0.0
O627 O 0.2617 0.81153 0.08993 0.0
O628 O 0.19632 0.73813 1.02223 0.0
O629 O 0.19658 0.73915 1.02146 0.0
O630 O 0.1752 0.76358 0.17077 0.0
O631 O 0.12035 0.71968 0.11979 0.0
H632 H 0.11609 0.71669 0.87314 0.0
H633 H 0.12971 0.7244 0.75371 0.0
H634 H 0.04267 0.84495 0.74791 0.0
H635 H 0.03219 0.83832 0.86903 0.0
H636 H 0.24258 0.90507 0.23401 0.0
H637 H 0.23511 0.8818 0.35158 0.0
H638 H 0.27136 0.74153 0.29744 0.0
H639 H 0.28105 0.76404 0.18335 0.0
Nd640 Nd 0.56121 0.92709 0.59027 0.0
Nd641 Nd 0.48341 0.86301 0.64594 0.0
C642 C 0.61445 -0.02847 0.50281 0.0
C643 C 0.60781 -0.01403 0.43141 0.0
C644 C 0.56393 -0.00072 0.40867 0.0
C645 C 0.55641 0.00955 0.34108 0.0
C646 C 0.59245 0.00837 0.29353 0.0
C647 C 0.63606 -0.0074 0.31527 0.0
C648 C 0.64376 -0.01806 0.38367 0.0
C649 C 0.5922 0.84863 0.6549 0.0
C650 C 0.47794 0.89037 0.48751 0.0
C651 C 0.43106 0.80243 0.70582 0.0
C652 C 0.4207 0.80664 0.77835 0.0
C653 C 0.45754 0.81436 0.82252 0.0
C654 C 0.44948 0.82618 0.88875 0.0
C655 C 0.40468 0.82922 0.91494 0.0
C656 C 0.36717 0.82298 0.87059 0.0
C657 C 0.37519 0.81216 0.8026 0.0
C658 C 0.46878 0.9508 0.68417 0.0
C659 C 0.55397 0.92295 0.74606 0.0
O660 O 0.59003 -0.00701 0.54927 0.0
O661 O 0.61609 0.92669 0.51247 0.0
O662 O 0.61518 0.88708 0.65204 0.0
O663 O 0.55723 0.85036 0.6154 0.0
O664 O 0.51441 0.91638 0.49808 0.0
O665 O 0.45961 0.8648 0.53549 0.0
O666 O 0.47437 0.79306 0.69013 0.0
O667 O 0.41335 0.83538 0.66869 0.0
O668 O 0.45391 0.9154 0.71677 0.0
O669 O 0.48617 0.94021 0.62651 0.0
O670 O 0.52753 0.88581 0.73602 0.0
O671 O 0.5679 0.95115 0.69769 0.0
H672 H 0.53492 0.00089 0.44297 0.0
H673 H 0.52148 0.01706 0.32576 0.0
H674 H 0.66418 -0.01103 0.27984 0.0
H675 H 0.67769 -0.02988 0.39918 0.0
H676 H 0.49311 0.81263 0.80567 0.0
H677 H 0.47886 0.83243 0.92009 0.0
H678 H 0.33188 0.82596 0.88832 0.0
H679 H 0.346 0.80866 0.76895 0.0
Nd680 Nd 0.25425 0.31188 0.84016 0.0
Nd681 Nd 0.31841 0.2341 0.8958 0.0
C682 C 0.20948 0.36499 0.75285 0.0
C683 C 0.19505 0.35833 0.68144 0.0
C684 C 0.18198 0.31438 0.65864 0.0
C685 C 0.17171 0.30686 0.59105 0.0
C686 C 0.17266 0.34297 0.54355 0.0
C687 C 0.18818 0.38666 0.56536 0.0
C688 C 0.19883 0.39436 0.63377 0.0
C689 C 0.33262 0.34299 0.90484 0.0
C690 C 0.29125 0.22878 0.73722 0.0
C691 C 0.37902 0.18175 0.95563 0.0
C692 C 0.37478 0.17131 1.02814 0.0
C693 C 0.36671 0.20809 0.07232 0.0
C694 C 0.35488 0.1999 0.13852 0.0
C695 C 0.35227 0.15505 0.16469 0.0
C696 C 0.35882 0.11759 0.1203 0.0
C697 C 0.36959 0.12573 1.05232 0.0
C698 C 0.23066 0.21938 0.934 0.0
C699 C 0.25849 0.30459 0.99602 0.0
O700 O 0.1882 0.3404 0.7993 0.0
O701 O 0.25429 0.36689 0.76249 0.0
O702 O 0.29416 0.36594 0.90195 0.0
O703 O 0.33094 0.308 0.86531 0.0
O704 O 0.26526 0.26528 0.74779 0.0
O705 O 0.31668 0.21034 0.78528 0.0
O706 O 0.38832 0.22512 0.94005 0.0
O707 O 0.34614 0.16402 0.91842 0.0
O708 O 0.26605 0.20447 0.96657 0.0
O709 O 0.24125 0.23679 0.87636 0.0
O710 O 0.29561 0.27815 0.98599 0.0
O711 O 0.23029 0.31852 0.94764 0.0
H712 H 0.18054 0.28531 0.69289 0.0
H713 H 0.16436 0.27188 0.57568 0.0
H714 H 0.19164 0.41484 0.52998 0.0
H715 H 0.21047 0.42835 0.64933 0.0
H716 H 0.36817 0.24369 1.05551 0.0
H717 H 0.3483 0.22925 0.16982 0.0
H718 H 0.35612 0.08225 0.13797 0.0
H719 H 0.37332 0.09657 1.01863 0.0
Nd720 Nd 0.86977 0.00503 0.09031 0.0
Nd721 Nd 0.94762 0.06908 0.14593 0.0
C722 C 0.81655 0.96049 1.00292 0.0
C723 C 0.82316 0.94606 0.9315 0.0
C724 C 0.86705 0.93283 0.90869 0.0
C725 C 0.87453 0.92256 0.84109 0.0
C726 C 0.83846 0.92366 0.79359 0.0
C727 C 0.79484 0.93935 0.8154 0.0
C728 C 0.78717 0.95 0.88382 0.0
C729 C 0.83881 0.08349 0.15494 0.0
C730 C 0.95298 0.04175 0.98746 0.0
C731 C 3e-05 0.12965 0.20572 0.0
C732 C 0.01039 0.12552 0.27827 0.0
C733 C -0.02648 0.11818 0.32251 0.0
C734 C -0.01846 0.10639 0.38877 0.0
C735 C 0.02632 0.10296 0.41488 0.0
C736 C 0.06386 0.1089 0.37049 0.0
C737 C 0.05588 0.11971 0.30249 0.0
C738 C 0.9622 -0.01872 0.18415 0.0
C739 C 0.87707 0.00925 0.24615 0.0
O740 O 0.84104 0.93907 1.04935 0.0
O741 O 0.81483 0.00531 1.0126 0.0
O742 O 0.81581 0.04505 0.15206 0.0
O743 O 0.87379 0.08176 0.11543 0.0
O744 O 0.91642 0.01586 0.998 0.0
O745 O -0.02858 0.06721 1.03548 0.0
O746 O 0.95674 0.13906 0.19 0.0
O747 O 0.01771 0.09664 0.16866 0.0
O748 O -0.02291 0.01666 0.21676 0.0
O749 O 0.94482 -0.00811 0.12649 0.0
O750 O 0.90353 0.04636 0.23607 0.0
O751 O 0.86311 -0.01896 0.19779 0.0
H752 H 0.89609 0.93127 0.94295 0.0
H753 H 0.90947 0.9151 0.82572 0.0
H754 H 0.76668 0.94292 0.78001 0.0
H755 H 0.75323 0.96176 0.89938 0.0
H756 H 0.93796 0.12016 0.30571 0.0
H757 H 0.95215 0.10043 0.4202 0.0
H758 H 0.09913 0.10566 0.3882 0.0
H759 H 0.08508 0.12296 0.2688 0.0
Nd760 Nd 0.17668 0.62002 0.34025 0.0
Nd761 Nd 0.11256 0.69781 0.39594 0.0
C762 C 0.22146 0.56691 0.25296 0.0
C763 C 0.23587 0.57358 0.18155 0.0
C764 C 0.24895 0.61753 0.15875 0.0
C765 C 0.2592 0.62505 0.09115 0.0
C766 C 0.25823 0.58895 1.04365 0.0
C767 C 0.24269 0.54526 1.06545 0.0
C768 C 0.23206 0.53755 0.13387 0.0
C769 C 0.09828 0.58894 0.40486 0.0
C770 C 0.13969 0.70315 0.23736 0.0
C771 C 0.05198 0.75016 0.4558 0.0
C772 C 0.05624 0.76058 0.52831 0.0
C773 C 0.06443 0.7238 0.57243 0.0
C774 C 0.07627 0.73197 0.63863 0.0
C775 C 0.07875 0.77682 0.66487 0.0
C776 C 0.07211 0.81428 0.62052 0.0
C777 C 0.06133 0.80616 0.55253 0.0
C778 C 0.20031 0.71247 0.43416 0.0
C779 C 0.17246 0.62725 0.4961 0.0
O780 O 0.24274 0.59152 0.29938 0.0
O781 O 0.17667 0.56498 0.26262 0.0
O782 O 0.13673 0.56596 0.40198 0.0
O783 O 0.09999 0.62394 0.36537 0.0
O784 O 0.16562 0.66659 0.24787 0.0
O785 O 0.11433 0.72163 0.28546 0.0
O786 O 0.04266 0.70681 0.4402 0.0
O787 O 0.08486 0.76789 0.4186 0.0
O788 O 0.16493 0.72738 0.46674 0.0
O789 O 0.18972 0.69509 0.3765 0.0
O790 O 0.13534 0.65371 0.48609 0.0
O791 O 0.20064 0.61332 0.44772 0.0
H792 H 0.2504 0.64659 0.193 0.0
H793 H 0.26655 0.66003 0.07578 0.0
H794 H 0.23921 0.51709 1.03006 0.0
H795 H 0.22042 0.50356 0.14942 0.0
H796 H 0.06305 0.68821 0.55558 0.0
H797 H 0.08294 0.70261 0.66988 0.0
H798 H 0.07473 0.84962 0.63822 0.0
H799 H 0.05752 0.83533 0.51889 0.0
Nd800 Nd 0.55746 0.00973 0.07182 0.0
Nd801 Nd 0.51575 0.07211 0.1114 0.0
C802 C 0.60309 0.94157 1.01687 0.0
C803 C 0.59475 0.92821 0.94778 0.0
C804 C 0.62739 0.93929 0.89806 0.0
C805 C 0.61403 0.94017 0.83099 0.0
C806 C 0.56805 0.9302 0.81428 0.0
C807 C 0.53591 0.91893 0.86368 0.0
C808 C 0.54926 0.91725 0.92949 0.0
C809 C 0.48844 -0.02208 0.18386 0.0
C810 C 0.47736 0.04427 0.96966 0.0
C811 C 0.48245 0.14187 0.18251 0.0
C812 C 0.47589 0.14494 0.25638 0.0
C813 C 0.48285 0.1058 0.29642 0.0
C814 C 0.48797 0.10959 0.36596 0.0
C815 C 0.48324 0.15261 0.39832 0.0
C816 C 0.47063 0.19104 0.35842 0.0
C817 C 0.46735 0.18718 0.28856 0.0
C818 C 0.56071 0.09921 0.97453 0.0
C819 C 0.58189 0.02337 0.22292 0.0
O820 O 0.62085 -0.0172 1.02319 0.0
O821 O 0.56878 0.93453 1.05801 0.0
O822 O 0.48896 -0.00254 0.12522 0.0
O823 O 0.48999 -0.00279 0.12618 0.0
O824 O 0.51409 0.01702 0.9739 0.0
O825 O 0.46515 0.06895 1.02235 0.0
O826 O 0.45597 0.11345 0.14894 0.0
O827 O 0.52554 0.13854 0.16379 0.0
O828 O 0.57329 0.08422 1.03378 0.0
O829 O 0.57233 0.08419 1.03374 0.0
O830 O 0.54676 0.05045 0.21299 0.0
O831 O 0.60089 0.00582 0.16955 0.0
H832 H 0.66239 0.94912 0.91142 0.0
H833 H 0.6394 0.94776 0.79256 0.0
H834 H 0.50016 0.91136 0.8513 0.0
H835 H 0.52281 0.91056 0.96625 0.0
H836 H 0.48182 0.072 0.27399 0.0
H837 H 0.49265 0.07823 0.39463 0.0
H838 H 0.46542 0.22487 0.38008 0.0
H839 H 0.45911 0.21756 0.2602 0.0
Nd840 Nd 0.17127 0.30837 0.32163 0.0
Nd841 Nd 0.10921 0.26615 0.36134 0.0
C842 C 0.23918 0.35427 0.26652 0.0
C843 C 0.25284 0.34571 0.19762 0.0
C844 C 0.24212 0.37833 0.14772 0.0
C845 C 0.24139 0.36486 0.0807 0.0
C846 C 0.25124 0.31879 1.0642 0.0
C847 C 0.26226 0.28666 0.11377 0.0
C848 C 0.26367 0.30009 0.1796 0.0
C849 C 0.20377 0.2393 0.43312 0.0
C850 C 0.13705 0.22808 0.21951 0.0
C851 C 0.03966 0.23253 0.4325 0.0
C852 C 0.03656 0.22609 0.50637 0.0
C853 C 0.07567 0.23307 0.54642 0.0
C854 C 0.07184 0.23833 0.61593 0.0
C855 C 0.02881 0.23377 0.64824 0.0
C856 C -0.00961 0.2212 0.60834 0.0
C857 C -0.00569 0.21774 0.53851 0.0
C858 C 0.08155 0.31118 0.22477 0.0
C859 C 0.15768 0.33238 0.47293 0.0
O860 O 0.19779 0.37169 0.27233 0.0
O861 O 0.24638 0.32022 0.30807 0.0
O862 O 0.18405 0.23978 0.37462 0.0
O863 O 0.18428 0.24082 0.37558 0.0
O864 O 0.16398 0.26504 0.22367 0.0
O865 O 0.1126 0.21559 0.27227 0.0
O866 O 0.06825 0.20615 0.39906 0.0
O867 O 0.04275 0.27564 0.41368 0.0
O868 O 0.09664 0.32376 0.28396 0.0
O869 O 0.09668 0.32281 0.28392 0.0
O870 O 0.13094 0.29699 0.46297 0.0
O871 O 0.17492 0.35169 0.41955 0.0
H872 H 0.23239 0.41341 0.16088 0.0
H873 H 0.23399 0.39021 1.04215 0.0
H874 H 0.26976 0.25086 0.10152 0.0
H875 H 0.27007 0.27363 0.21653 0.0
H876 H 0.10947 0.23197 0.52404 0.0
H877 H 0.10318 0.24301 0.64463 0.0
H878 H 0.95654 0.21616 0.62997 0.0
H879 H 0.96397 0.2095 0.51011 0.0
Nd880 Nd 0.8733 0.92229 0.57179 0.0
Nd881 Nd 0.91513 0.85996 0.6114 0.0
C882 C 0.82757 -0.00962 0.51681 0.0
C883 C 0.83592 0.00387 0.44777 0.0
C884 C 0.80345 -0.00744 0.39792 0.0
C885 C 0.81694 -0.00823 0.3309 0.0
C886 C 0.86288 0.00207 0.31435 0.0
C887 C 0.89483 0.01364 0.36388 0.0
C888 C 0.88135 0.01522 0.42965 0.0
C889 C 0.94235 0.95422 0.68371 0.0
C890 C 0.95345 0.88783 0.46964 0.0
C891 C 0.94853 0.79025 0.68251 0.0
C892 C 0.95506 0.78718 0.75639 0.0
C893 C 0.94812 0.82633 0.79641 0.0
C894 C 0.94297 0.82256 0.86595 0.0
C895 C 0.94764 0.77953 0.89832 0.0
C896 C 0.96022 0.74109 0.85843 0.0
C897 C 0.96354 0.74494 0.78858 0.0
C898 C 0.87015 0.83279 0.47458 0.0
C899 C 0.84899 0.90865 0.72297 0.0
O900 O 0.80992 0.9491 0.523 0.0
O901 O 0.86182 -0.00253 0.55804 0.0
O902 O 0.94182 0.93466 0.62509 0.0
O903 O 0.94079 0.9349 0.62605 0.0
O904 O 0.91669 0.91502 0.47386 0.0
O905 O -0.03429 0.86318 0.52234 0.0
O906 O -0.02503 0.81872 0.64897 0.0
O907 O 0.90544 0.79351 0.66376 0.0
O908 O 0.85757 0.84777 0.53383 0.0
O909 O 0.85853 0.8478 0.53379 0.0
O910 O 0.88416 0.88162 0.71301 0.0
O911 O 0.82993 0.92617 0.6696 0.0
H912 H 0.76851 -0.01753 0.41114 0.0
H913 H 0.7917 -0.01605 0.29239 0.0
H914 H 0.93055 0.02148 0.35164 0.0
H915 H 0.90767 0.02214 0.46651 0.0
H916 H 0.94917 0.86013 0.77398 0.0
H917 H 0.9383 0.85392 0.89461 0.0
H918 H 0.96539 0.70725 0.8801 0.0
H919 H -0.02822 0.71455 0.76024 0.0
Nd920 Nd 0.2596 0.62356 0.82174 0.0
Nd921 Nd 0.32168 0.66577 0.86144 0.0
C922 C 0.19169 0.57766 0.76664 0.0
C923 C 0.17806 0.58622 0.69773 0.0
C924 C 0.18869 0.55354 0.64786 0.0
C925 C 0.18945 0.56699 0.58083 0.0
C926 C 0.17972 0.61307 0.56428 0.0
C927 C 0.1688 0.64525 0.61382 0.0
C928 C 0.16736 0.63186 0.67966 0.0
C929 C 0.22712 0.69263 0.93325 0.0
C930 C 0.29384 0.70385 0.71961 0.0
C931 C 0.39123 0.69939 0.9326 0.0
C932 C 0.39432 0.70584 1.00647 0.0
C933 C 0.35522 0.69887 1.04652 0.0
C934 C 0.35904 0.69362 0.11604 0.0
C935 C 0.40207 0.69821 0.14835 0.0
C936 C 0.44049 0.71078 0.10844 0.0
C937 C 0.43658 0.71422 1.03861 0.0
C938 C 0.3493 0.62075 0.72485 0.0
C939 C 0.2732 0.59954 0.97303 0.0
O940 O 0.23307 0.56023 0.77248 0.0
O941 O 0.18448 0.61172 0.80817 0.0
O942 O 0.24684 0.69215 0.87474 0.0
O943 O 0.24661 0.6911 0.87571 0.0
O944 O 0.26689 0.66691 0.72378 0.0
O945 O 0.31831 0.71632 0.77237 0.0
O946 O 0.36264 0.72577 0.89915 0.0
O947 O 0.38813 0.65628 0.91379 0.0
O948 O 0.33422 0.60816 0.78404 0.0
O949 O 0.33418 0.60912 0.78401 0.0
O950 O 0.29995 0.63492 0.96307 0.0
O951 O 0.25594 0.58025 0.91965 0.0
H952 H 0.19834 0.51845 0.66107 0.0
H953 H 0.19677 0.54159 0.5423 0.0
H954 H 0.1614 0.68107 0.60153 0.0
H955 H 0.16105 0.65837 0.71655 0.0
H956 H 0.32142 0.69995 1.02414 0.0
H957 H 0.32771 0.68893 0.14473 0.0
H958 H 0.47433 0.71584 0.13008 0.0
H959 H 0.46692 0.72245 1.01021 0.0
Nd960 Nd 0.44339 0.08206 0.7499 0.0
Nd961 Nd 0.37107 0.00904 0.80296 0.0
C962 C 0.48042 0.15283 0.68863 0.0
C963 C 0.48904 0.15715 0.61563 0.0
C964 C 0.46413 0.19005 0.57936 0.0
C965 C 0.46524 0.19088 0.50959 0.0
C966 C 0.48853 0.15627 0.47318 0.0
C967 C 0.51542 0.12413 0.50978 0.0
C968 C 0.51582 0.1247 0.58009 0.0
C969 C 0.47007 -0.00428 0.71765 0.0
C970 C 0.38333 0.0105 0.64973 0.0
C971 C 0.31689 -0.03062 0.89372 0.0
C972 C 0.32259 0.95741 0.96581 0.0
C973 C 0.36702 0.95065 0.99168 0.0
C974 C 0.37383 0.94457 1.06019 0.0
C975 C 0.33647 0.9425 0.10534 0.0
C976 C 0.29177 0.95112 0.08041 0.0
C977 C 0.28491 0.95854 1.01099 0.0
C978 C 0.33522 0.08403 0.73528 0.0
C979 C 0.45271 0.04899 0.90487 0.0
O980 O 0.43653 0.15199 0.7058 0.0
O981 O 0.50564 0.12268 0.72172 0.0
O982 O 0.48385 0.03191 0.68544 0.0
O983 O 0.44825 0.00614 0.77194 0.0
O984 O 0.40489 0.05069 0.65985 0.0
O985 O 0.37024 -0.01831 0.6978 0.0
O986 O 0.34082 0.94543 0.84915 0.0
O987 O 0.31746 0.01397 0.88163 0.0
O988 O 0.31624 0.04345 0.73563 0.0
O989 O 0.36855 0.08526 0.77743 0.0
O990 O 0.42412 0.0156 0.88836 0.0
O991 O 0.46335 0.0827 0.86247 0.0
H992 H 0.4412 0.21318 0.60532 0.0
H993 H 0.44503 0.21712 0.48482 0.0
H994 H 0.53586 0.09806 0.48449 0.0
H995 H 0.53543 0.09839 0.60633 0.0
H996 H 0.39685 0.95015 0.95903 0.0
H997 H 0.40903 0.94093 0.07785 0.0
H998 H 0.26236 0.95136 0.11397 0.0
H999 H 0.25027 0.96526 0.99263 0.0
Nd1000 Nd 0.6046 0.69974 0.49731 0.0
Nd1001 Nd 0.66777 0.62073 0.55142 0.0
C1002 C 0.54421 0.74797 0.43195 0.0
C1003 C 0.54961 0.75458 0.3588 0.0
C1004 C 0.55902 0.71602 0.31841 0.0
C1005 C 0.56626 0.72088 0.25009 0.0
C1006 C 0.56308 0.76409 0.21842 0.0
C1007 C 0.55624 0.80341 0.25981 0.0
C1008 C 0.54964 0.79861 0.32924 0.0
C1009 C 0.69283 0.71681 0.46482 0.0
C1010 C 0.67008 0.63141 0.3981 0.0
C1011 C 0.70549 0.56618 0.64357 0.0
C1012 C 0.7214 0.57338 0.71425 0.0
C1013 C 0.73906 0.61638 0.73449 0.0
C1014 C 0.7519 0.62424 0.80112 0.0
C1015 C 0.74698 0.5897 0.85074 0.0
C1016 C 0.72758 0.54702 0.83126 0.0
C1017 C 0.71543 0.5388 0.76358 0.0
C1018 C 0.59065 0.59244 0.47944 0.0
C1019 C 0.63298 0.70397 0.65453 0.0
O1020 O 0.53508 0.70536 0.4514 0.0
O1021 O 0.57575 0.76834 0.46884 0.0
O1022 O 0.65825 0.73408 0.43291 0.0
O1023 O 0.68077 0.6967 0.51987 0.0
O1024 O 0.63254 0.65755 0.40727 0.0
O1025 O 0.69678 0.61631 0.4474 0.0
O1026 O 0.72964 0.58575 0.59507 0.0
O1027 O 0.66069 0.56998 0.6343 0.0
O1028 O 0.62886 0.56905 0.48274 0.0
O1029 O 0.59186 0.62544 0.5222 0.0
O1030 O 0.66385 0.67251 0.63892 0.0
O1031 O 0.60243 0.71886 0.61007 0.0
H1032 H 0.56048 0.6815 0.33929 0.0
H1033 H 0.5732 0.68991 0.22237 0.0
H1034 H 0.55577 0.83805 0.2395 0.0
H1035 H 0.54461 0.82919 0.35974 0.0
H1036 H 0.74247 0.64444 0.69889 0.0
H1037 H 0.76507 0.65824 0.81383 0.0
H1038 H 0.72193 0.52004 0.86804 0.0
H1039 H 0.70067 0.50563 0.74995 0.0
Nd1040 Nd -0.01256 0.84999 0.24989 0.0
Nd1041 Nd 0.05982 0.92295 0.30296 0.0
C1042 C 0.95032 0.77927 0.18864 0.0
C1043 C 0.94173 0.77497 0.11562 0.0
C1044 C -0.0334 0.74204 0.07938 0.0
C1045 C -0.03446 0.74122 1.0096 0.0
C1046 C 0.94231 0.77588 0.97318 0.0
C1047 C 0.91546 0.80804 1.00976 0.0
C1048 C 0.91502 0.80747 0.08007 0.0
C1049 C 0.96087 0.93636 0.2176 0.0
C1050 C 0.0476 0.92143 0.1497 0.0
C1051 C 0.11402 0.96265 0.39366 0.0
C1052 C 0.10831 -0.02537 0.46574 0.0
C1053 C 0.06389 -0.01855 0.49158 0.0
C1054 C 0.05705 -0.01249 0.56009 0.0
C1055 C 0.0944 -0.01048 0.60527 0.0
C1056 C 0.13909 -0.01917 0.58037 0.0
C1057 C 0.14597 -0.02657 0.51095 0.0
C1058 C 0.09563 0.84791 0.23536 0.0
C1059 C -0.0219 0.88309 0.40485 0.0
O1060 O -0.0058 0.78004 0.20584 0.0
O1061 O 0.92514 0.80946 0.2217 0.0
O1062 O 0.94707 0.90018 0.18539 0.0
O1063 O -0.01734 0.92593 0.27191 0.0
O1064 O 0.026 0.88127 0.15985 0.0
O1065 O 0.0607 0.95026 0.19775 0.0
O1066 O 0.09008 -0.01342 0.34909 0.0
O1067 O 0.11346 0.91805 0.3816 0.0
O1068 O 0.11465 0.88848 0.23571 0.0
O1069 O 0.06228 0.84672 0.27748 0.0
O1070 O 0.00681 0.9164 0.38841 0.0
O1071 O -0.0326 0.84943 0.36243 0.0
H1072 H -0.01053 0.71886 0.10536 0.0
H1073 H -0.01427 0.71496 0.98485 0.0
H1074 H 0.89507 0.83415 0.98446 0.0
H1075 H 0.89544 0.83381 0.1063 0.0
H1076 H 0.03407 -0.01801 0.4589 0.0
H1077 H 0.02185 -0.0088 0.57773 0.0
H1078 H 0.16849 -0.01946 0.61395 0.0
H1079 H 0.18061 -0.03334 0.49262 0.0
Nd1080 Nd 0.82619 0.23234 0.99727 0.0
Nd1081 Nd 0.76303 0.31134 1.05137 0.0
C1082 C 0.88662 0.18413 0.93194 0.0
C1083 C 0.88123 0.17756 0.85879 0.0
C1084 C 0.87177 0.21613 0.81845 0.0
C1085 C 0.86449 0.21131 0.75014 0.0
C1086 C 0.86771 0.16812 0.71842 0.0
C1087 C 0.87461 0.12879 0.75975 0.0
C1088 C 0.88123 0.13355 0.82918 0.0
C1089 C 0.73797 0.21526 0.96474 0.0
C1090 C 0.7607 0.30067 0.89807 0.0
C1091 C 0.72538 0.36591 0.14354 0.0
C1092 C 0.70945 0.35872 0.2142 0.0
C1093 C 0.69173 0.31575 0.23442 0.0
C1094 C 0.67888 0.30788 0.30105 0.0
C1095 C 0.68385 0.3424 0.35069 0.0
C1096 C 0.70329 0.38507 0.33122 0.0
C1097 C 0.71546 0.39329 0.26355 0.0
C1098 C 0.84016 0.33962 0.9794 0.0
C1099 C 0.79773 0.22805 0.15443 0.0
O1100 O 0.89574 0.22673 0.95143 0.0
O1101 O 0.85506 0.16375 0.96879 0.0
O1102 O 0.77257 0.198 0.93284 0.0
O1103 O 0.75002 0.23537 1.0198 0.0
O1104 O 0.79824 0.27453 0.90724 0.0
O1105 O 0.734 0.31578 0.94736 0.0
O1106 O 0.7012 0.34639 0.09502 0.0
O1107 O 0.77017 0.36205 0.13428 0.0
O1108 O 0.80196 0.36301 0.98267 0.0
O1109 O 0.83895 0.30663 1.02217 0.0
O1110 O 0.76685 0.25951 0.1388 0.0
O1111 O 0.82832 0.2132 0.11001 0.0
H1112 H 0.87028 0.25064 0.83937 0.0
H1113 H 0.8575 0.24228 0.72246 0.0
H1114 H 0.87511 0.09415 0.73939 0.0
H1115 H 0.8863 0.10295 0.85964 0.0
H1116 H 0.68828 0.28769 0.19881 0.0
H1117 H 0.66568 0.2739 0.31374 0.0
H1118 H 0.70897 0.41203 0.36801 0.0
H1119 H 0.73026 0.42644 0.24994 0.0
Nd1120 Nd 0.40606 0.87635 0.28779 0.0
Nd1121 Nd 0.3733 0.93656 0.32412 0.0
C1122 C 0.41272 0.80953 0.20208 0.0
C1123 C 0.40908 0.8174 0.12861 0.0
C1124 C 0.43893 0.84789 0.09555 0.0
C1125 C 0.43383 0.85624 1.02707 0.0
C1126 C 0.39951 0.83366 0.98928 0.0
C1127 C 0.36523 0.80942 1.02433 0.0
C1128 C 0.36989 0.802 0.09343 0.0
C1129 C 0.3644 0.84944 0.4256 0.0
C1130 C 0.34699 0.92782 0.1755 0.0
C1131 C 0.33365 0.0071 0.38027 0.0
C1132 C 0.34347 0.0153 0.45035 0.0
C1133 C 0.311 0.00111 0.49864 0.0
C1134 C 0.32478 -0.00539 0.56455 0.0
C1135 C 0.37101 0.00215 0.5817 0.0
C1136 C 0.4035 0.01521 0.53373 0.0
C1137 C 0.38982 0.02244 0.4689 0.0
C1138 C 0.44414 -0.03098 0.216 0.0
C1139 C 0.45279 0.89658 0.42333 0.0
O1140 O 0.44963 0.82463 0.23421 0.0
O1141 O 0.37443 0.81755 0.23432 0.0
O1142 O 0.35021 0.86611 0.3681 0.0
O1143 O 0.35116 0.86605 0.36829 0.0
O1144 O 0.3843 0.90468 0.18574 0.0
O1145 O 0.32597 0.94109 0.22951 0.0
O1146 O 0.31138 -0.03134 0.36965 0.0
O1147 O 0.36857 0.01209 0.33988 0.0
O1148 O 0.44288 0.94721 0.27285 0.0
O1149 O 0.44184 0.94746 0.27206 0.0
O1150 O 0.41736 0.92562 0.42096 0.0
O1151 O 0.46169 0.87113 0.36989 0.0
H1152 H 0.4651 0.86676 0.12286 0.0
H1153 H 0.4572 0.88023 1.0034 0.0
H1154 H 0.33658 0.79343 0.99818 0.0
H1155 H 0.34346 0.78294 0.11929 0.0
H1156 H 0.27563 -0.0069 0.48477 0.0
H1157 H 0.29925 -0.01422 0.60222 0.0
H1158 H 0.43935 0.02165 0.54708 0.0
H1159 H 0.41655 0.03097 0.43301 0.0
Nd1160 Nd 0.80622 0.66578 1.03523 0.0
Nd1161 Nd 0.74952 0.62001 0.07452 0.0
C1162 C 0.87 0.69269 0.9521 0.0
C1163 C 0.86602 0.68668 0.87795 0.0
C1164 C 0.85732 0.72435 0.83545 0.0
C1165 C 0.85748 0.71824 0.76579 0.0
C1166 C 0.86346 0.67416 0.73713 0.0
C1167 C 0.86616 0.63581 0.77959 0.0
C1168 C 0.86844 0.64202 0.84902 0.0
C1169 C 0.8418 0.62173 0.16791 0.0
C1170 C 0.7609 0.60113 0.92148 0.0
C1171 C 0.68621 0.57031 0.13295 0.0
C1172 C 0.67291 0.58099 0.20121 0.0
C1173 C 0.68852 0.55231 0.25342 0.0
C1174 C 0.69033 0.5693 0.31849 0.0
C1175 C 0.67702 0.61508 0.3309 0.0
C1176 C 0.66159 0.64347 0.27903 0.0
C1177 C 0.65836 0.62629 0.21512 0.0
C1178 C 0.70896 0.68985 0.97028 0.0
C1179 C 0.78221 0.70195 0.17627 0.0
O1180 O 0.84328 0.72325 0.98175 0.0
O1181 O 0.87271 0.65433 0.98585 0.0
O1182 O 0.82494 0.60824 0.11013 0.0
O1183 O 0.82486 0.60914 0.1102 0.0
O1184 O 0.78198 0.63986 0.93246 0.0
O1185 O 0.74886 0.57803 0.97476 0.0
O1186 O 0.72881 0.55617 0.12767 0.0
O1187 O 0.67568 0.60143 0.08829 0.0
O1188 O 0.72977 0.68908 1.02798 0.0
O1189 O 0.72963 0.68786 1.02685 0.0
O1190 O 0.7577 0.66323 0.17273 0.0
O1191 O 0.80437 0.71672 0.12266 0.0
H1192 H 0.85299 0.75886 0.85576 0.0
H1193 H 0.85424 0.7483 0.73432 0.0
H1194 H 0.86887 0.6012 0.75904 0.0
H1195 H 0.8721 0.61153 0.87996 0.0
H1196 H 0.70113 0.51766 0.24326 0.0
H1197 H 0.70134 0.54673 0.35881 0.0
H1198 H 0.65189 0.67916 0.28807 0.0
H1199 H 0.64794 0.64998 0.17603 0.0
Nd1200 Nd 0.02483 0.05569 0.7877 0.0
Nd1201 Nd 0.0575 -0.00458 0.82403 0.0
C1202 C 0.01822 0.12252 0.702 0.0
C1203 C 0.02189 0.11464 0.62853 0.0
C1204 C -0.008 0.08422 0.59541 0.0
C1205 C -0.0029 0.07591 0.52693 0.0
C1206 C 0.03149 0.09843 0.4892 0.0
C1207 C 0.06581 0.12258 0.52429 0.0
C1208 C 0.06112 0.12998 0.5934 0.0
C1209 C 0.06651 0.08253 0.92552 0.0
C1210 C 0.08388 0.00418 0.67543 0.0
C1211 C 0.09706 0.9248 0.88014 0.0
C1212 C 0.08729 0.91662 0.95025 0.0
C1213 C 0.11981 0.9308 0.99848 0.0
C1214 C 0.10609 0.9373 1.06441 0.0
C1215 C 0.05988 0.92978 0.08165 0.0
C1216 C 0.02733 0.91673 1.03373 0.0
C1217 C 0.04095 0.90949 0.96888 0.0
C1218 C -0.01334 0.9631 0.71584 0.0
C1219 C -0.02191 0.0355 0.92326 0.0
O1220 O -0.01871 0.10743 0.7341 0.0
O1221 O 0.0565 0.11449 0.73428 0.0
O1222 O 0.08069 0.06583 0.86802 0.0
O1223 O 0.07973 0.0659 0.86821 0.0
O1224 O 0.0466 0.02737 0.68566 0.0
O1225 O 0.10485 -0.00915 0.72945 0.0
O1226 O 0.1194 0.96318 0.86945 0.0
O1227 O 0.06207 0.91989 0.83983 0.0
O1228 O -0.01207 -0.01512 0.77271 0.0
O1229 O -0.01103 -0.01537 0.77192 0.0
O1230 O 0.01348 0.00642 0.92088 0.0
O1231 O -0.03079 0.06096 0.86983 0.0
H1232 H -0.03423 0.06538 0.62268 0.0
H1233 H -0.02633 0.05201 0.50316 0.0
H1234 H 0.09448 0.13853 0.49816 0.0
H1235 H 0.08756 0.14902 0.61929 0.0
H1236 H 0.15517 0.93879 0.98454 0.0
H1237 H 0.13166 0.94611 0.10204 0.0
H1238 H -0.00851 0.91031 1.04714 0.0
H1239 H 0.01419 0.90096 0.93304 0.0
Nd1240 Nd 0.62457 0.26636 0.53517 0.0
Nd1241 Nd 0.68133 0.31197 0.57442 0.0
C1242 C 0.56071 0.23964 0.45202 0.0
C1243 C 0.56473 0.24561 0.37785 0.0
C1244 C 0.57351 0.20793 0.33541 0.0
C1245 C 0.57338 0.214 0.26574 0.0
C1246 C 0.56736 0.25806 0.23702 0.0
C1247 C 0.56459 0.29643 0.27943 0.0
C1248 C 0.56229 0.29025 0.34887 0.0
C1249 C 0.58911 0.31036 0.66794 0.0
C1250 C 0.66993 0.33096 0.42142 0.0
C1251 C 0.74471 0.36159 0.63282 0.0
C1252 C 0.75794 0.35093 0.70111 0.0
C1253 C 0.74238 0.37969 0.75327 0.0
C1254 C 0.74052 0.36275 0.81837 0.0
C1255 C 0.75373 0.31695 0.83085 0.0
C1256 C 0.76908 0.28848 0.77904 0.0
C1257 C 0.77235 0.3056 0.71511 0.0
C1258 C 0.72172 0.24211 0.47004 0.0
C1259 C 0.64857 0.23006 0.67615 0.0
O1260 O 0.58732 0.20899 0.48171 0.0
O1261 O 0.55815 0.27802 0.48572 0.0
O1262 O 0.60596 0.32386 0.61016 0.0
O1263 O 0.60603 0.32297 0.61023 0.0
O1264 O 0.64879 0.29228 0.43239 0.0
O1265 O 0.68204 0.35402 0.47472 0.0
O1266 O 0.70216 0.37583 0.62746 0.0
O1267 O 0.7552 0.33041 0.58823 0.0
O1268 O 0.70096 0.2429 0.52779 0.0
O1269 O 0.7011 0.24412 0.52665 0.0
O1270 O 0.67315 0.26873 0.67261 0.0
O1271 O 0.62634 0.21536 0.62255 0.0
H1272 H 0.57785 0.17343 0.35575 0.0
H1273 H 0.57665 0.18393 0.23431 0.0
H1274 H 0.56185 0.33102 0.25883 0.0
H1275 H 0.55857 0.32075 0.37977 0.0
H1276 H 0.72984 0.41436 0.74305 0.0
H1277 H 0.72957 0.38537 0.85866 0.0
H1278 H 0.7787 0.25277 0.78814 0.0
H1279 H 0.7827 0.28185 0.67606 0.0
loop_
_geom_bond_atom_site_label_1
_geom_bond_atom_site_label_2
_geom_bond_distance
_geom_bond_site_symmetry_2
_ccdc_geom_bond_type
Nd0 C2 2.836 1_554 S
Nd0 O20 2.500 1_554 S
Nd0 O21 2.492 1_554 S
Nd0 O22 2.487 . S
Nd0 O23 2.682 . S
Nd0 O24 2.410 1_554 S
Nd0 O29 2.414 . S
Nd0 O31 2.424 . S
Nd1 C11 2.836 1_455 S
Nd1 O23 2.414 . S
Nd1 O25 2.424 1_454 S
Nd1 O26 2.500 . S
Nd1 O27 2.492 1_455 S
Nd1 O28 2.487 1_455 S
Nd1 O29 2.682 . S
Nd1 O30 2.410 . S
C2 Nd0 2.836 1_556 S
C2 C3 1.498 . S
C2 O20 1.258 . S
C2 O21 1.239 . S
C3 C2 1.498 . S
C3 C4 1.366 . S
C3 C8 1.407 . S
C4 C3 1.366 . S
C4 C5 1.392 . S
C4 H32 0.930 . S
C5 C4 1.392 . S
C5 C6 1.398 . S
C5 H33 0.929 . S
C6 C5 1.398 . S
C6 C7 1.352 . S
C7 C6 1.352 . S
C7 C8 1.384 . S
C7 H34 0.930 . S
C8 C3 1.407 . S
C8 C7 1.384 . S
C8 H35 0.929 . S
C9 O22 1.241 . S
C9 O23 1.273 . S
C10 O24 1.251 . S
C10 O25 1.268 1_455 S
C11 Nd1 2.836 1_655 S
C11 C12 1.498 . S
C11 O26 1.258 1_655 S
C11 O27 1.239 . S
C12 C11 1.498 . S
C12 C13 1.366 1_655 S
C12 C17 1.407 . S
C13 C12 1.366 1_455 S
C13 C14 1.392 . S
C13 H36 0.930 . S
C14 C13 1.392 . S
C14 C15 1.398 1_455 S
C14 H37 0.929 . S
C15 C14 1.398 1_655 S
C15 C16 1.352 . S
C16 C15 1.352 . S
C16 C17 1.384 . S
C16 H38 0.930 . S
C17 C12 1.407 . S
C17 C16 1.384 . S
C17 H39 0.929 . S
C18 O28 1.241 . S
C18 O29 1.273 1_655 S
C19 O30 1.251 . S
C19 O31 1.268 . S
O20 Nd0 2.500 1_556 S
O20 C2 1.258 . S
O21 Nd0 2.492 1_556 S
O21 C2 1.239 . S
O22 Nd0 2.487 . S
O22 C9 1.241 . S
O23 Nd0 2.682 . S
O23 Nd1 2.414 . S
O23 C9 1.273 . S
O24 Nd0 2.410 1_556 S
O24 C10 1.251 . S
O25 Nd1 2.424 1_656 S
O25 C10 1.268 1_655 S
O26 Nd1 2.500 . S
O26 C11 1.258 1_455 S
O27 Nd1 2.492 1_655 S
O27 C11 1.239 . S
O28 Nd1 2.487 1_655 S
O28 C18 1.241 . S
O29 Nd0 2.414 . S
O29 Nd1 2.682 . S
O29 C18 1.273 1_455 S
O30 Nd1 2.410 . S
O30 C19 1.251 . S
O31 Nd0 2.424 . S
O31 C19 1.268 . S
H32 C4 0.930 . S
H33 C5 0.929 . S
H34 C7 0.930 . S
H35 C8 0.929 . S
H36 C13 0.930 . S
H37 C14 0.929 . S
H38 C16 0.930 . S
H39 C17 0.929 . S
Nd40 C42 2.836 . S
Nd40 O60 2.500 . S
Nd40 O61 2.492 . S
Nd40 O62 2.487 . S
Nd40 O63 2.682 . S
Nd40 O64 2.410 . S
Nd40 O69 2.414 . S
Nd40 O71 2.424 . S
Nd41 C51 2.836 . S
Nd41 O63 2.414 . S
Nd41 O65 2.424 . S
Nd41 O66 2.500 . S
Nd41 O67 2.492 . S
Nd41 O68 2.487 . S
Nd41 O69 2.682 . S
Nd41 O70 2.410 . S
C42 Nd40 2.836 . S
C42 C43 1.498 . S
C42 O60 1.258 . S
C42 O61 1.239 . S
C43 C42 1.498 . S
C43 C44 1.366 . S
C43 C48 1.407 . S
C44 C43 1.366 . S
C44 C45 1.392 1_554 S
C44 H72 0.930 . S
C45 C44 1.392 1_556 S
C45 C46 1.398 . S
C45 H73 0.929 . S
C46 C45 1.398 . S
C46 C47 1.352 . S
C47 C46 1.352 . S
C47 C48 1.384 1_556 S
C47 H74 0.930 . S
C48 C43 1.407 . S
C48 C47 1.384 1_554 S
C48 H75 0.929 . S
C49 O62 1.241 . S
C49 O63 1.273 . S
C50 O64 1.251 . S
C50 O65 1.268 . S
C51 Nd41 2.836 . S
C51 C52 1.498 . S
C51 O66 1.258 . S
C51 O67 1.239 . S
C52 C51 1.498 . S
C52 C53 1.366 . S
C52 C57 1.407 . S
C53 C52 1.366 . S
C53 C54 1.392 . S
C53 H76 0.930 . S
C54 C53 1.392 . S
C54 C55 1.398 . S
C54 H77 0.929 . S
C55 C54 1.398 . S
C55 C56 1.352 . S
C56 C55 1.352 . S
C56 C57 1.384 . S
C56 H78 0.930 . S
C57 C52 1.407 . S
C57 C56 1.384 . S
C57 H79 0.929 . S
C58 O68 1.241 . S
C58 O69 1.273 . S
C59 O70 1.251 . S
C59 O71 1.268 . S
O60 Nd40 2.500 . S
O60 C42 1.258 . S
O61 Nd40 2.492 . S
O61 C42 1.239 . S
O62 Nd40 2.487 . S
O62 C49 1.241 . S
O63 Nd40 2.682 . S
O63 Nd41 2.414 . S
O63 C49 1.273 . S
O64 Nd40 2.410 . S
O64 C50 1.251 . S
O65 Nd41 2.424 . S
O65 C50 1.268 . S
O66 Nd41 2.500 . S
O66 C51 1.258 . S
O67 Nd41 2.492 . S
O67 C51 1.239 . S
O68 Nd41 2.487 . S
O68 C58 1.241 . S
O69 Nd40 2.414 . S
O69 Nd41 2.682 . S
O69 C58 1.273 . S
O70 Nd41 2.410 . S
O70 C59 1.251 . S
O71 Nd40 2.424 . S
O71 C59 1.268 . S
H72 C44 0.930 . S
H73 C45 0.929 . S
H74 C47 0.930 . S
H75 C48 0.929 . S
H76 C53 0.930 . S
H77 C54 0.929 . S
H78 C56 0.930 . S
H79 C57 0.929 . S
Nd80 C82 2.836 . S
Nd80 O100 2.500 . S
Nd80 O101 2.492 . S
Nd80 O102 2.487 . S
Nd80 O103 2.682 . S
Nd80 O104 2.410 . S
Nd80 O109 2.414 . S
Nd80 O111 2.424 . S
Nd81 C91 2.836 . S
Nd81 O103 2.414 . S
Nd81 O105 2.424 . S
Nd81 O106 2.500 . S
Nd81 O107 2.492 . S
Nd81 O108 2.487 . S
Nd81 O109 2.682 . S
Nd81 O110 2.410 . S
C82 Nd80 2.836 . S
C82 C83 1.498 . S
C82 O100 1.258 . S
C82 O101 1.239 . S
C83 C82 1.498 . S
C83 C84 1.366 . S
C83 C88 1.407 . S
C84 C83 1.366 . S
C84 C85 1.392 . S
C84 H112 0.930 . S
C85 C84 1.392 . S
C85 C86 1.398 . S
C85 H113 0.929 . S
C86 C85 1.398 . S
C86 C87 1.352 . S
C87 C86 1.352 . S
C87 C88 1.384 . S
C87 H114 0.930 . S
C88 C83 1.407 . S
C88 C87 1.384 . S
C88 H115 0.929 . S
C89 O102 1.241 . S
C89 O103 1.273 . S
C90 O104 1.251 . S
C90 O105 1.268 . S
C91 Nd81 2.836 . S
C91 C92 1.498 . S
C91 O106 1.258 . S
C91 O107 1.239 . S
C92 C91 1.498 . S
C92 C93 1.366 . S
C92 C97 1.407 . S
C93 C92 1.366 . S
C93 C94 1.392 . S
C93 H116 0.930 . S
C94 C93 1.392 . S
C94 C95 1.398 . S
C94 H117 0.929 . S
C95 C94 1.398 . S
C95 C96 1.352 . S
C96 C95 1.352 . S
C96 C97 1.384 . S
C96 H118 0.930 . S
C97 C92 1.407 . S
C97 C96 1.384 . S
C97 H119 0.929 . S
C98 O108 1.241 . S
C98 O109 1.273 . S
C99 O110 1.251 . S
C99 O111 1.268 . S
O100 Nd80 2.500 . S
O100 C82 1.258 . S
O101 Nd80 2.492 . S
O101 C82 1.239 . S
O102 Nd80 2.487 . S
O102 C89 1.241 . S
O103 Nd80 2.682 . S
O103 Nd81 2.414 . S
O103 C89 1.273 . S
O104 Nd80 2.410 . S
O104 C90 1.251 . S
O105 Nd81 2.424 . S
O105 C90 1.268 . S
O106 Nd81 2.500 . S
O106 C91 1.258 . S
O107 Nd81 2.492 . S
O107 C91 1.239 . S
O108 Nd81 2.487 . S
O108 C98 1.241 . S
O109 Nd80 2.414 . S
O109 Nd81 2.682 . S
O109 C98 1.273 . S
O110 Nd81 2.410 . S
O110 C99 1.251 . S
O111 Nd80 2.424 . S
O111 C99 1.268 . S
H112 C84 0.930 . S
H113 C85 0.929 . S
H114 C87 0.930 . S
H115 C88 0.929 . S
H116 C93 0.930 . S
H117 C94 0.929 . S
H118 C96 0.930 . S
H119 C97 0.929 . S
Nd120 C122 2.836 . S
Nd120 O140 2.500 . S
Nd120 O141 2.492 . S
Nd120 O142 2.487 . S
Nd120 O143 2.682 . S
Nd120 O144 2.410 . S
Nd120 O149 2.414 . S
Nd120 O151 2.424 . S
Nd121 C131 2.836 . S
Nd121 O143 2.414 . S
Nd121 O145 2.424 . S
Nd121 O146 2.500 . S
Nd121 O147 2.492 . S
Nd121 O148 2.487 . S
Nd121 O149 2.682 . S
Nd121 O150 2.410 . S
C122 Nd120 2.836 . S
C122 C123 1.498 . S
C122 O140 1.258 . S
C122 O141 1.239 . S
C123 C122 1.498 . S
C123 C124 1.366 . S
C123 C128 1.407 . S
C124 C123 1.366 . S
C124 C125 1.392 . S
C124 H152 0.930 . S
C125 C124 1.392 . S
C125 C126 1.398 . S
C125 H153 0.929 . S
C126 C125 1.398 . S
C126 C127 1.352 . S
C127 C126 1.352 . S
C127 C128 1.384 . S
C127 H154 0.930 . S
C128 C123 1.407 . S
C128 C127 1.384 . S
C128 H155 0.929 . S
C129 O142 1.241 . S
C129 O143 1.273 . S
C130 O144 1.251 . S
C130 O145 1.268 . S
C131 Nd121 2.836 . S
C131 C132 1.498 1_556 S
C131 O146 1.258 . S
C131 O147 1.239 . S
C132 C131 1.498 1_554 S
C132 C133 1.366 . S
C132 C137 1.407 . S
C133 C132 1.366 . S
C133 C134 1.392 . S
C133 H156 0.930 . S
C134 C133 1.392 . S
C134 C135 1.398 . S
C134 H157 0.929 . S
C135 C134 1.398 . S
C135 C136 1.352 . S
C136 C135 1.352 . S
C136 C137 1.384 . S
C136 H158 0.930 . S
C137 C132 1.407 . S
C137 C136 1.384 . S
C137 H159 0.929 . S
C138 O148 1.241 . S
C138 O149 1.273 . S
C139 O150 1.251 . S
C139 O151 1.268 . S
O140 Nd120 2.500 . S
O140 C122 1.258 . S
O141 Nd120 2.492 . S
O141 C122 1.239 . S
O142 Nd120 2.487 . S
O142 C129 1.241 . S
O143 Nd120 2.682 . S
O143 Nd121 2.414 . S
O143 C129 1.273 . S
O144 Nd120 2.410 . S
O144 C130 1.251 . S
O145 Nd121 2.424 . S
O145 C130 1.268 . S
O146 Nd121 2.500 . S
O146 C131 1.258 . S
O147 Nd121 2.492 . S
O147 C131 1.239 . S
O148 Nd121 2.487 . S
O148 C138 1.241 . S
O149 Nd120 2.414 . S
O149 Nd121 2.682 . S
O149 C138 1.273 . S
O150 Nd121 2.410 . S
O150 C139 1.251 . S
O151 Nd120 2.424 . S
O151 C139 1.268 . S
H152 C124 0.930 . S
H153 C125 0.929 . S
H154 C127 0.930 . S
H155 C128 0.929 . S
H156 C133 0.930 . S
H157 C134 0.929 . S
H158 C136 0.930 . S
H159 C137 0.929 . S
Nd160 C162 2.836 . S
Nd160 O180 2.500 . S
Nd160 O181 2.492 . S
Nd160 O182 2.487 . S
Nd160 O183 2.682 . S
Nd160 O184 2.410 . S
Nd160 O189 2.414 . S
Nd160 O191 2.424 . S
Nd161 C171 2.836 . S
Nd161 O183 2.414 . S
Nd161 O185 2.424 . S
Nd161 O186 2.500 . S
Nd161 O187 2.492 . S
Nd161 O188 2.487 . S
Nd161 O189 2.682 . S
Nd161 O190 2.410 . S
C162 Nd160 2.836 . S
C162 C163 1.498 . S
C162 O180 1.258 . S
C162 O181 1.239 . S
C163 C162 1.498 . S
C163 C164 1.366 . S
C163 C168 1.407 . S
C164 C163 1.366 . S
C164 C165 1.392 . S
C164 H192 0.930 . S
C165 C164 1.392 . S
C165 C166 1.398 . S
C165 H193 0.929 . S
C166 C165 1.398 . S
C166 C167 1.352 . S
C167 C166 1.352 . S
C167 C168 1.384 . S
C167 H194 0.930 . S
C168 C163 1.407 . S
C168 C167 1.384 . S
C168 H195 0.929 . S
C169 O182 1.241 . S
C169 O183 1.273 . S
C170 O184 1.251 . S
C170 O185 1.268 . S
C171 Nd161 2.836 . S
C171 C172 1.498 . S
C171 O186 1.258 . S
C171 O187 1.239 . S
C172 C171 1.498 . S
C172 C173 1.366 . S
C172 C177 1.407 . S
C173 C172 1.366 . S
C173 C174 1.392 . S
C173 H196 0.930 . S
C174 C173 1.392 . S
C174 C175 1.398 . S
C174 H197 0.929 . S
C175 C174 1.398 . S
C175 C176 1.352 . S
C176 C175 1.352 . S
C176 C177 1.384 . S
C176 H198 0.930 . S
C177 C172 1.407 . S
C177 C176 1.384 . S
C177 H199 0.929 . S
C178 O188 1.241 . S
C178 O189 1.273 . S
C179 O190 1.251 . S
C179 O191 1.268 . S
O180 Nd160 2.500 . S
O180 C162 1.258 . S
O181 Nd160 2.492 . S
O181 C162 1.239 . S
O182 Nd160 2.487 . S
O182 C169 1.241 . S
O183 Nd160 2.682 . S
O183 Nd161 2.414 . S
O183 C169 1.273 . S
O184 Nd160 2.410 . S
O184 C170 1.251 . S
O185 Nd161 2.424 . S
O185 C170 1.268 . S
O186 Nd161 2.500 . S
O186 C171 1.258 . S
O187 Nd161 2.492 . S
O187 C171 1.239 . S
O188 Nd161 2.487 . S
O188 C178 1.241 . S
O189 Nd160 2.414 . S
O189 Nd161 2.682 . S
O189 C178 1.273 . S
O190 Nd161 2.410 . S
O190 C179 1.251 . S
O191 Nd160 2.424 . S
O191 C179 1.268 . S
H192 C164 0.930 . S
H193 C165 0.929 . S
H194 C167 0.930 . S
H195 C168 0.929 . S
H196 C173 0.930 . S
H197 C174 0.929 . S
H198 C176 0.930 . S
H199 C177 0.929 . S
Nd200 C202 2.836 . S
Nd200 O220 2.500 . S
Nd200 O221 2.492 . S
Nd200 O222 2.487 . S
Nd200 O223 2.682 . S
Nd200 O224 2.410 . S
Nd200 O229 2.414 . S
Nd200 O231 2.424 . S
Nd201 C211 2.836 . S
Nd201 O223 2.414 . S
Nd201 O225 2.424 . S
Nd201 O226 2.500 . S
Nd201 O227 2.492 . S
Nd201 O228 2.487 . S
Nd201 O229 2.682 . S
Nd201 O230 2.410 . S
C202 Nd200 2.836 . S
C202 C203 1.498 . S
C202 O220 1.258 . S
C202 O221 1.239 . S
C203 C202 1.498 . S
C203 C204 1.366 . S
C203 C208 1.407 . S
C204 C203 1.366 . S
C204 C205 1.392 . S
C204 H232 0.930 . S
C205 C204 1.392 . S
C205 C206 1.398 . S
C205 H233 0.929 . S
C206 C205 1.398 . S
C206 C207 1.352 . S
C207 C206 1.352 . S
C207 C208 1.384 . S
C207 H234 0.930 . S
C208 C203 1.407 . S
C208 C207 1.384 . S
C208 H235 0.929 . S
C209 O222 1.241 . S
C209 O223 1.273 . S
C210 O224 1.251 . S
C210 O225 1.268 . S
C211 Nd201 2.836 . S
C211 C212 1.498 . S
C211 O226 1.258 . S
C211 O227 1.239 . S
C212 C211 1.498 . S
C212 C213 1.366 1_556 S
C212 C217 1.407 . S
C213 C212 1.366 1_554 S
C213 C214 1.392 . S
C213 H236 0.930 . S
C214 C213 1.392 . S
C214 C215 1.398 . S
C214 H237 0.929 . S
C215 C214 1.398 . S
C215 C216 1.352 . S
C216 C215 1.352 . S
C216 C217 1.384 1_554 S
C216 H238 0.930 . S
C217 C212 1.407 . S
C217 C216 1.384 1_556 S
C217 H239 0.929 . S
C218 O228 1.241 . S
C218 O229 1.273 . S
C219 O230 1.251 . S
C219 O231 1.268 . S
O220 Nd200 2.500 . S
O220 C202 1.258 . S
O221 Nd200 2.492 . S
O221 C202 1.239 . S
O222 Nd200 2.487 . S
O222 C209 1.241 . S
O223 Nd200 2.682 . S
O223 Nd201 2.414 . S
O223 C209 1.273 . S
O224 Nd200 2.410 . S
O224 C210 1.251 . S
O225 Nd201 2.424 . S
O225 C210 1.268 . S
O226 Nd201 2.500 . S
O226 C211 1.258 . S
O227 Nd201 2.492 . S
O227 C211 1.239 . S
O228 Nd201 2.487 . S
O228 C218 1.241 . S
O229 Nd200 2.414 . S
O229 Nd201 2.682 . S
O229 C218 1.273 . S
O230 Nd201 2.410 . S
O230 C219 1.251 . S
O231 Nd200 2.424 . S
O231 C219 1.268 . S
H232 C204 0.930 . S
H233 C205 0.929 . S
H234 C207 0.930 . S
H235 C208 0.929 . S
H236 C213 0.930 . S
H237 C214 0.929 . S
H238 C216 0.930 . S
H239 C217 0.929 . S
Nd240 C242 2.836 . S
Nd240 O260 2.500 . S
Nd240 O261 2.492 . S
Nd240 O262 2.487 1_556 S
Nd240 O263 2.682 1_556 S
Nd240 O264 2.410 . S
Nd240 O269 2.414 . S
Nd240 O271 2.424 1_556 S
Nd241 C251 2.836 . S
Nd241 O263 2.414 . S
Nd241 O265 2.424 1_554 S
Nd241 O266 2.500 . S
Nd241 O267 2.492 . S
Nd241 O268 2.487 1_554 S
Nd241 O269 2.682 1_554 S
Nd241 O270 2.410 . S
C242 Nd240 2.836 . S
C242 C243 1.498 . S
C242 O260 1.258 . S
C242 O261 1.239 . S
C243 C242 1.498 . S
C243 C244 1.366 . S
C243 C248 1.407 . S
C244 C243 1.366 . S
C244 C245 1.392 . S
C244 H272 0.930 . S
C245 C244 1.392 . S
C245 C246 1.398 . S
C245 H273 0.929 . S
C246 C245 1.398 . S
C246 C247 1.352 . S
C247 C246 1.352 . S
C247 C248 1.384 . S
C247 H274 0.930 . S
C248 C243 1.407 . S
C248 C247 1.384 . S
C248 H275 0.929 . S
C249 O262 1.241 . S
C249 O263 1.273 . S
C250 O264 1.251 . S
C250 O265 1.268 . S
C251 Nd241 2.836 . S
C251 C252 1.498 . S
C251 O266 1.258 . S
C251 O267 1.239 . S
C252 C251 1.498 . S
C252 C253 1.366 . S
C252 C257 1.407 . S
C253 C252 1.366 . S
C253 C254 1.392 . S
C253 H276 0.930 . S
C254 C253 1.392 . S
C254 C255 1.398 . S
C254 H277 0.929 . S
C255 C254 1.398 . S
C255 C256 1.352 . S
C256 C255 1.352 . S
C256 C257 1.384 . S
C256 H278 0.930 . S
C257 C252 1.407 . S
C257 C256 1.384 . S
C257 H279 0.929 . S
C258 O268 1.241 . S
C258 O269 1.273 . S
C259 O270 1.251 . S
C259 O271 1.268 . S
O260 Nd240 2.500 . S
O260 C242 1.258 . S
O261 Nd240 2.492 . S
O261 C242 1.239 . S
O262 Nd240 2.487 1_554 S
O262 C249 1.241 . S
O263 Nd240 2.682 1_554 S
O263 Nd241 2.414 . S
O263 C249 1.273 . S
O264 Nd240 2.410 . S
O264 C250 1.251 . S
O265 Nd241 2.424 1_556 S
O265 C250 1.268 . S
O266 Nd241 2.500 . S
O266 C251 1.258 . S
O267 Nd241 2.492 . S
O267 C251 1.239 . S
O268 Nd241 2.487 1_556 S
O268 C258 1.241 . S
O269 Nd240 2.414 . S
O269 Nd241 2.682 1_556 S
O269 C258 1.273 . S
O270 Nd241 2.410 . S
O270 C259 1.251 . S
O271 Nd240 2.424 1_554 S
O271 C259 1.268 . S
H272 C244 0.930 . S
H273 C245 0.929 . S
H274 C247 0.930 . S
H275 C248 0.929 . S
H276 C253 0.930 . S
H277 C254 0.929 . S
H278 C256 0.930 . S
H279 C257 0.929 . S
Nd280 C282 2.836 . S
Nd280 O300 2.500 . S
Nd280 O301 2.492 . S
Nd280 O302 2.487 . S
Nd280 O303 2.682 . S
Nd280 O304 2.410 . S
Nd280 O309 2.414 . S
Nd280 O311 2.424 . S
Nd281 C291 2.836 . S
Nd281 O303 2.414 . S
Nd281 O305 2.424 . S
Nd281 O306 2.500 . S
Nd281 O307 2.492 . S
Nd281 O308 2.487 . S
Nd281 O309 2.682 . S
Nd281 O310 2.410 . S
C282 Nd280 2.836 . S
C282 C283 1.498 . S
C282 O300 1.258 . S
C282 O301 1.239 . S
C283 C282 1.498 . S
C283 C284 1.366 1_554 S
C283 C288 1.407 . S
C284 C283 1.366 1_556 S
C284 C285 1.392 . S
C284 H312 0.930 . S
C285 C284 1.392 . S
C285 C286 1.398 . S
C285 H313 0.929 . S
C286 C285 1.398 . S
C286 C287 1.352 . S
C287 C286 1.352 . S
C287 C288 1.384 1_556 S
C287 H314 0.930 . S
C288 C283 1.407 . S
C288 C287 1.384 1_554 S
C288 H315 0.929 . S
C289 O302 1.241 . S
C289 O303 1.273 . S
C290 O304 1.251 . S
C290 O305 1.268 . S
C291 Nd281 2.836 . S
C291 C292 1.498 . S
C291 O306 1.258 . S
C291 O307 1.239 . S
C292 C291 1.498 . S
C292 C293 1.366 . S
C292 C297 1.407 . S
C293 C292 1.366 . S
C293 C294 1.392 . S
C293 H316 0.930 . S
C294 C293 1.392 . S
C294 C295 1.398 . S
C294 H317 0.929 . S
C295 C294 1.398 . S
C295 C296 1.352 . S
C296 C295 1.352 . S
C296 C297 1.384 . S
C296 H318 0.930 . S
C297 C292 1.407 . S
C297 C296 1.384 . S
C297 H319 0.929 . S
C298 O308 1.241 . S
C298 O309 1.273 . S
C299 O310 1.251 . S
C299 O311 1.268 . S
O300 Nd280 2.500 . S
O300 C282 1.258 . S
O301 Nd280 2.492 . S
O301 C282 1.239 . S
O302 Nd280 2.487 . S
O302 C289 1.241 . S
O303 Nd280 2.682 . S
O303 Nd281 2.414 . S
O303 C289 1.273 . S
O304 Nd280 2.410 . S
O304 C290 1.251 . S
O305 Nd281 2.424 . S
O305 C290 1.268 . S
O306 Nd281 2.500 . S
O306 C291 1.258 . S
O307 Nd281 2.492 . S
O307 C291 1.239 . S
O308 Nd281 2.487 . S
O308 C298 1.241 . S
O309 Nd280 2.414 . S
O309 Nd281 2.682 . S
O309 C298 1.273 . S
O310 Nd281 2.410 . S
O310 C299 1.251 . S
O311 Nd280 2.424 . S
O311 C299 1.268 . S
H312 C284 0.930 . S
H313 C285 0.929 . S
H314 C287 0.930 . S
H315 C288 0.929 . S
H316 C293 0.930 . S
H317 C294 0.929 . S
H318 C296 0.930 . S
H319 C297 0.929 . S
Nd320 C322 2.834 1_655 S
Nd320 O340 2.502 . S
Nd320 O341 2.486 1_655 S
Nd320 O342 2.482 1_655 S
Nd320 O343 2.685 . S
Nd320 O344 2.416 . S
Nd320 O349 2.425 . S
Nd320 O351 2.423 1_655 S
Nd321 C331 2.836 . S
Nd321 O343 2.414 . S
Nd321 O345 2.424 . S
Nd321 O346 2.500 . S
Nd321 O347 2.492 . S
Nd321 O348 2.487 . S
Nd321 O349 2.682 . S
Nd321 O350 2.410 . S
C322 Nd320 2.834 1_455 S
C322 C323 1.498 1_554 S
C322 O340 1.258 1_455 S
C322 O341 1.239 . S
C323 C322 1.498 1_556 S
C323 C324 1.366 1_455 S
C323 C328 1.407 . S
C324 C323 1.366 1_655 S
C324 C325 1.392 . S
C324 H352 0.930 . S
C325 C324 1.392 . S
C325 C326 1.398 1_655 S
C325 H353 0.929 . S
C326 C325 1.398 1_455 S
C326 C327 1.352 . S
C327 C326 1.352 . S
C327 C328 1.384 . S
C327 H354 0.930 . S
C328 C323 1.407 . S
C328 C327 1.384 . S
C328 H355 0.929 . S
C329 O342 1.241 . S
C329 O343 1.273 1_455 S
C330 O344 1.251 . S
C330 O345 1.268 . S
C331 Nd321 2.836 . S
C331 C332 1.498 . S
C331 O346 1.258 . S
C331 O347 1.239 . S
C332 C331 1.498 . S
C332 C333 1.366 . S
C332 C337 1.407 . S
C333 C332 1.366 . S
C333 C334 1.392 . S
C333 H356 0.930 . S
C334 C333 1.392 . S
C334 C335 1.398 . S
C334 H357 0.929 . S
C335 C334 1.398 . S
C335 C336 1.352 . S
C336 C335 1.352 . S
C336 C337 1.384 . S
C336 H358 0.930 . S
C337 C332 1.407 . S
C337 C336 1.384 . S
C337 H359 0.929 . S
C338 O348 1.241 . S
C338 O349 1.273 . S
C339 O350 1.251 . S
C339 O351 1.268 1_655 S
O340 Nd320 2.502 . S
O340 C322 1.258 1_655 S
O341 Nd320 2.486 1_455 S
O341 C322 1.239 . S
O342 Nd320 2.482 1_455 S
O342 C329 1.241 . S
O343 Nd320 2.685 . S
O343 Nd321 2.414 . S
O343 C329 1.273 1_655 S
O344 Nd320 2.416 . S
O344 C330 1.251 . S
O345 Nd321 2.424 . S
O345 C330 1.268 . S
O346 Nd321 2.500 . S
O346 C331 1.258 . S
O347 Nd321 2.492 . S
O347 C331 1.239 . S
O348 Nd321 2.487 . S
O348 C338 1.241 . S
O349 Nd320 2.425 . S
O349 Nd321 2.682 . S
O349 C338 1.273 . S
O350 Nd321 2.410 . S
O350 C339 1.251 . S
O351 Nd320 2.423 1_455 S
O351 C339 1.268 1_455 S
H352 C324 0.930 . S
H353 C325 0.929 . S
H354 C327 0.930 . S
H355 C328 0.929 . S
H356 C333 0.930 . S
H357 C334 0.929 . S
H358 C336 0.930 . S
H359 C337 0.929 . S
Nd360 C362 2.836 . S
Nd360 O380 2.500 . S
Nd360 O381 2.492 . S
Nd360 O382 2.487 . S
Nd360 O383 2.682 . S
Nd360 O384 2.410 . S
Nd360 O389 2.414 . S
Nd360 O391 2.424 1_556 S
Nd361 C371 2.836 1_556 S
Nd361 O383 2.414 . S
Nd361 O385 2.424 . S
Nd361 O386 2.500 1_556 S
Nd361 O387 2.492 1_556 S
Nd361 O388 2.487 . S
Nd361 O389 2.682 . S
Nd361 O390 2.410 1_556 S
C362 Nd360 2.836 . S
C362 C363 1.498 . S
C362 O380 1.258 . S
C362 O381 1.239 . S
C363 C362 1.498 . S
C363 C364 1.366 . S
C363 C368 1.407 . S
C364 C363 1.366 . S
C364 C365 1.392 . S
C364 H392 0.930 . S
C365 C364 1.392 . S
C365 C366 1.398 . S
C365 H393 0.929 . S
C366 C365 1.398 . S
C366 C367 1.352 . S
C367 C366 1.352 . S
C367 C368 1.384 . S
C367 H394 0.930 . S
C368 C363 1.407 . S
C368 C367 1.384 . S
C368 H395 0.929 . S
C369 O382 1.241 . S
C369 O383 1.273 . S
C370 O384 1.251 . S
C370 O385 1.268 . S
C371 Nd361 2.836 1_554 S
C371 C372 1.498 . S
C371 O386 1.258 . S
C371 O387 1.239 . S
C372 C371 1.498 . S
C372 C373 1.366 . S
C372 C377 1.407 . S
C373 C372 1.366 . S
C373 C374 1.392 . S
C373 H396 0.930 . S
C374 C373 1.392 . S
C374 C375 1.398 . S
C374 H397 0.929 . S
C375 C374 1.398 . S
C375 C376 1.352 . S
C376 C375 1.352 . S
C376 C377 1.384 . S
C376 H398 0.930 . S
C377 C372 1.407 . S
C377 C376 1.384 . S
C377 H399 0.929 . S
C378 O388 1.241 . S
C378 O389 1.273 . S
C379 O390 1.251 . S
C379 O391 1.268 . S
O380 Nd360 2.500 . S
O380 C362 1.258 . S
O381 Nd360 2.492 . S
O381 C362 1.239 . S
O382 Nd360 2.487 . S
O382 C369 1.241 . S
O383 Nd360 2.682 . S
O383 Nd361 2.414 . S
O383 C369 1.273 . S
O384 Nd360 2.410 . S
O384 C370 1.251 . S
O385 Nd361 2.424 . S
O385 C370 1.268 . S
O386 Nd361 2.500 1_554 S
O386 C371 1.258 . S
O387 Nd361 2.492 1_554 S
O387 C371 1.239 . S
O388 Nd361 2.487 . S
O388 C378 1.241 . S
O389 Nd360 2.414 . S
O389 Nd361 2.682 . S
O389 C378 1.273 . S
O390 Nd361 2.410 1_554 S
O390 C379 1.251 . S
O391 Nd360 2.424 1_554 S
O391 C379 1.268 . S
H392 C364 0.930 . S
H393 C365 0.929 . S
H394 C367 0.930 . S
H395 C368 0.929 . S
H396 C373 0.930 . S
H397 C374 0.929 . S
H398 C376 0.930 . S
H399 C377 0.929 . S
Nd400 C402 2.836 . S
Nd400 O420 2.500 . S
Nd400 O421 2.492 . S
Nd400 O422 2.487 . S
Nd400 O423 2.682 . S
Nd400 O424 2.410 . S
Nd400 O429 2.414 . S
Nd400 O431 2.424 . S
Nd401 C411 2.836 . S
Nd401 O423 2.414 . S
Nd401 O425 2.424 . S
Nd401 O426 2.500 . S
Nd401 O427 2.492 . S
Nd401 O428 2.487 . S
Nd401 O429 2.682 . S
Nd401 O430 2.410 . S
C402 Nd400 2.836 . S
C402 C403 1.498 . S
C402 O420 1.258 . S
C402 O421 1.239 . S
C403 C402 1.498 . S
C403 C404 1.366 . S
C403 C408 1.407 . S
C404 C403 1.366 . S
C404 C405 1.392 . S
C404 H432 0.930 . S
C405 C404 1.392 . S
C405 C406 1.398 . S
C405 H433 0.929 . S
C406 C405 1.398 . S
C406 C407 1.352 . S
C407 C406 1.352 . S
C407 C408 1.384 . S
C407 H434 0.930 . S
C408 C403 1.407 . S
C408 C407 1.384 . S
C408 H435 0.929 . S
C409 O422 1.241 . S
C409 O423 1.273 . S
C410 O424 1.251 . S
C410 O425 1.268 . S
C411 Nd401 2.836 . S
C411 C412 1.498 . S
C411 O426 1.258 . S
C411 O427 1.239 . S
C412 C411 1.498 . S
C412 C413 1.366 . S
C412 C417 1.407 . S
C413 C412 1.366 . S
C413 C414 1.392 1_556 S
C413 H436 0.930 . S
C414 C413 1.392 1_554 S
C414 C415 1.398 . S
C414 H437 0.929 . S
C415 C414 1.398 . S
C415 C416 1.352 . S
C416 C415 1.352 . S
C416 C417 1.384 1_554 S
C416 H438 0.930 . S
C417 C412 1.407 . S
C417 C416 1.384 1_556 S
C417 H439 0.929 . S
C418 O428 1.241 . S
C418 O429 1.273 . S
C419 O430 1.251 . S
C419 O431 1.268 . S
O420 Nd400 2.500 . S
O420 C402 1.258 . S
O421 Nd400 2.492 . S
O421 C402 1.239 . S
O422 Nd400 2.487 . S
O422 C409 1.241 . S
O423 Nd400 2.682 . S
O423 Nd401 2.414 . S
O423 C409 1.273 . S
O424 Nd400 2.410 . S
O424 C410 1.251 . S
O425 Nd401 2.424 . S
O425 C410 1.268 . S
O426 Nd401 2.500 . S
O426 C411 1.258 . S
O427 Nd401 2.492 . S
O427 C411 1.239 . S
O428 Nd401 2.487 . S
O428 C418 1.241 . S
O429 Nd400 2.414 . S
O429 Nd401 2.682 . S
O429 C418 1.273 . S
O430 Nd401 2.410 . S
O430 C419 1.251 . S
O431 Nd400 2.424 . S
O431 C419 1.268 . S
H432 C404 0.930 . S
H433 C405 0.929 . S
H434 C407 0.930 . S
H435 C408 0.929 . S
H436 C413 0.930 . S
H437 C414 0.929 . S
H438 C416 0.930 . S
H439 C417 0.929 . S
Nd440 C442 2.836 . S
Nd440 O460 2.500 . S
Nd440 O461 2.492 . S
Nd440 O462 2.487 . S
Nd440 O463 2.682 . S
Nd440 O464 2.410 . S
Nd440 O469 2.414 . S
Nd440 O471 2.424 . S
Nd441 C451 2.836 . S
Nd441 O463 2.414 . S
Nd441 O465 2.424 . S
Nd441 O466 2.500 . S
Nd441 O467 2.492 . S
Nd441 O468 2.487 . S
Nd441 O469 2.682 . S
Nd441 O470 2.410 . S
C442 Nd440 2.836 . S
C442 C443 1.498 . S
C442 O460 1.258 . S
C442 O461 1.239 . S
C443 C442 1.498 . S
C443 C444 1.366 . S
C443 C448 1.407 . S
C444 C443 1.366 . S
C444 C445 1.392 . S
C444 H472 0.930 . S
C445 C444 1.392 . S
C445 C446 1.398 . S
C445 H473 0.929 . S
C446 C445 1.398 . S
C446 C447 1.352 . S
C447 C446 1.352 . S
C447 C448 1.384 . S
C447 H474 0.930 . S
C448 C443 1.407 . S
C448 C447 1.384 . S
C448 H475 0.929 . S
C449 O462 1.241 . S
C449 O463 1.273 . S
C450 O464 1.251 . S
C450 O465 1.268 . S
C451 Nd441 2.836 . S
C451 C452 1.498 . S
C451 O466 1.258 . S
C451 O467 1.239 . S
C452 C451 1.498 . S
C452 C453 1.366 . S
C452 C457 1.407 . S
C453 C452 1.366 . S
C453 C454 1.392 . S
C453 H476 0.930 . S
C454 C453 1.392 . S
C454 C455 1.398 . S
C454 H477 0.929 . S
C455 C454 1.398 . S
C455 C456 1.352 . S
C456 C455 1.352 . S
C456 C457 1.384 . S
C456 H478 0.930 . S
C457 C452 1.407 . S
C457 C456 1.384 . S
C457 H479 0.929 . S
C458 O468 1.241 . S
C458 O469 1.273 . S
C459 O470 1.251 . S
C459 O471 1.268 . S
O460 Nd440 2.500 . S
O460 C442 1.258 . S
O461 Nd440 2.492 . S
O461 C442 1.239 . S
O462 Nd440 2.487 . S
O462 C449 1.241 . S
O463 Nd440 2.682 . S
O463 Nd441 2.414 . S
O463 C449 1.273 . S
O464 Nd440 2.410 . S
O464 C450 1.251 . S
O465 Nd441 2.424 . S
O465 C450 1.268 . S
O466 Nd441 2.500 . S
O466 C451 1.258 . S
O467 Nd441 2.492 . S
O467 C451 1.239 . S
O468 Nd441 2.487 . S
O468 C458 1.241 . S
O469 Nd440 2.414 . S
O469 Nd441 2.682 . S
O469 C458 1.273 . S
O470 Nd441 2.410 . S
O470 C459 1.251 . S
O471 Nd440 2.424 . S
O471 C459 1.268 . S
H472 C444 0.930 . S
H473 C445 0.929 . S
H474 C447 0.930 . S
H475 C448 0.929 . S
H476 C453 0.930 . S
H477 C454 0.929 . S
H478 C456 0.930 . S
H479 C457 0.929 . S
Nd480 C482 2.836 . S
Nd480 O500 2.500 . S
Nd480 O501 2.492 . S
Nd480 O502 2.487 . S
Nd480 O503 2.682 . S
Nd480 O504 2.410 . S
Nd480 O509 2.414 . S
Nd480 O511 2.424 . S
Nd481 C491 2.836 . S
Nd481 O503 2.414 . S
Nd481 O505 2.424 . S
Nd481 O506 2.500 . S
Nd481 O507 2.492 . S
Nd481 O508 2.487 . S
Nd481 O509 2.682 . S
Nd481 O510 2.410 . S
C482 Nd480 2.836 . S
C482 C483 1.498 . S
C482 O500 1.258 . S
C482 O501 1.239 . S
C483 C482 1.498 . S
C483 C484 1.366 . S
C483 C488 1.407 . S
C484 C483 1.366 . S
C484 C485 1.392 . S
C484 H512 0.930 . S
C485 C484 1.392 . S
C485 C486 1.398 . S
C485 H513 0.929 . S
C486 C485 1.398 . S
C486 C487 1.352 . S
C487 C486 1.352 . S
C487 C488 1.384 . S
C487 H514 0.930 . S
C488 C483 1.407 . S
C488 C487 1.384 . S
C488 H515 0.929 . S
C489 O502 1.241 . S
C489 O503 1.273 . S
C490 O504 1.251 . S
C490 O505 1.268 . S
C491 Nd481 2.836 . S
C491 C492 1.498 . S
C491 O506 1.258 . S
C491 O507 1.239 . S
C492 C491 1.498 . S
C492 C493 1.366 1_556 S
C492 C497 1.407 . S
C493 C492 1.366 1_554 S
C493 C494 1.392 . S
C493 H516 0.930 . S
C494 C493 1.392 . S
C494 C495 1.398 . S
C494 H517 0.929 . S
C495 C494 1.398 . S
C495 C496 1.352 . S
C496 C495 1.352 . S
C496 C497 1.384 1_554 S
C496 H518 0.930 . S
C497 C492 1.407 . S
C497 C496 1.384 1_556 S
C497 H519 0.929 . S
C498 O508 1.241 . S
C498 O509 1.273 . S
C499 O510 1.251 . S
C499 O511 1.268 . S
O500 Nd480 2.500 . S
O500 C482 1.258 . S
O501 Nd480 2.492 . S
O501 C482 1.239 . S
O502 Nd480 2.487 . S
O502 C489 1.241 . S
O503 Nd480 2.682 . S
O503 Nd481 2.414 . S
O503 C489 1.273 . S
O504 Nd480 2.410 . S
O504 C490 1.251 . S
O505 Nd481 2.424 . S
O505 C490 1.268 . S
O506 Nd481 2.500 . S
O506 C491 1.258 . S
O507 Nd481 2.492 . S
O507 C491 1.239 . S
O508 Nd481 2.487 . S
O508 C498 1.241 . S
O509 Nd480 2.414 . S
O509 Nd481 2.682 . S
O509 C498 1.273 . S
O510 Nd481 2.410 . S
O510 C499 1.251 . S
O511 Nd480 2.424 . S
O511 C499 1.268 . S
H512 C484 0.930 . S
H513 C485 0.929 . S
H514 C487 0.930 . S
H515 C488 0.929 . S
H516 C493 0.930 . S
H517 C494 0.929 . S
H518 C496 0.930 . S
H519 C497 0.929 . S
Nd520 C522 2.836 . S
Nd520 O540 2.500 . S
Nd520 O541 2.492 . S
Nd520 O542 2.487 . S
Nd520 O543 2.682 . S
Nd520 O544 2.410 . S
Nd520 O549 2.414 . S
Nd520 O551 2.424 . S
Nd521 C531 2.836 . S
Nd521 O543 2.414 . S
Nd521 O545 2.424 . S
Nd521 O546 2.500 . S
Nd521 O547 2.492 . S
Nd521 O548 2.487 . S
Nd521 O549 2.682 . S
Nd521 O550 2.410 . S
C522 Nd520 2.836 . S
C522 C523 1.498 . S
C522 O540 1.258 . S
C522 O541 1.239 . S
C523 C522 1.498 . S
C523 C524 1.366 . S
C523 C528 1.407 . S
C524 C523 1.366 . S
C524 C525 1.392 . S
C524 H552 0.930 . S
C525 C524 1.392 . S
C525 C526 1.398 . S
C525 H553 0.929 . S
C526 C525 1.398 . S
C526 C527 1.352 . S
C527 C526 1.352 . S
C527 C528 1.384 . S
C527 H554 0.930 . S
C528 C523 1.407 . S
C528 C527 1.384 . S
C528 H555 0.929 . S
C529 O542 1.241 . S
C529 O543 1.273 . S
C530 O544 1.251 . S
C530 O545 1.268 . S
C531 Nd521 2.836 . S
C531 C532 1.498 . S
C531 O546 1.258 . S
C531 O547 1.239 . S
C532 C531 1.498 . S
C532 C533 1.366 . S
C532 C537 1.407 . S
C533 C532 1.366 . S
C533 C534 1.392 . S
C533 H556 0.930 . S
C534 C533 1.392 . S
C534 C535 1.398 . S
C534 H557 0.929 . S
C535 C534 1.398 . S
C535 C536 1.352 . S
C536 C535 1.352 . S
C536 C537 1.384 . S
C536 H558 0.930 . S
C537 C532 1.407 . S
C537 C536 1.384 . S
C537 H559 0.929 . S
C538 O548 1.241 . S
C538 O549 1.273 . S
C539 O550 1.251 . S
C539 O551 1.268 . S
O540 Nd520 2.500 . S
O540 C522 1.258 . S
O541 Nd520 2.492 . S
O541 C522 1.239 . S
O542 Nd520 2.487 . S
O542 C529 1.241 . S
O543 Nd520 2.682 . S
O543 Nd521 2.414 . S
O543 C529 1.273 . S
O544 Nd520 2.410 . S
O544 C530 1.251 . S
O545 Nd521 2.424 . S
O545 C530 1.268 . S
O546 Nd521 2.500 . S
O546 C531 1.258 . S
O547 Nd521 2.492 . S
O547 C531 1.239 . S
O548 Nd521 2.487 . S
O548 C538 1.241 . S
O549 Nd520 2.414 . S
O549 Nd521 2.682 . S
O549 C538 1.273 . S
O550 Nd521 2.410 . S
O550 C539 1.251 . S
O551 Nd520 2.424 . S
O551 C539 1.268 . S
H552 C524 0.930 . S
H553 C525 0.929 . S
H554 C527 0.930 . S
H555 C528 0.929 . S
H556 C533 0.930 . S
H557 C534 0.929 . S
H558 C536 0.930 . S
H559 C537 0.929 . S
Nd560 C562 2.836 . S
Nd560 O580 2.500 . S
Nd560 O581 2.492 . S
Nd560 O582 2.487 . S
Nd560 O583 2.682 . S
Nd560 O584 2.410 . S
Nd560 O589 2.414 . S
Nd560 O591 2.424 . S
Nd561 C571 2.836 . S
Nd561 O583 2.414 . S
Nd561 O585 2.424 . S
Nd561 O586 2.500 . S
Nd561 O587 2.492 . S
Nd561 O588 2.487 . S
Nd561 O589 2.682 . S
Nd561 O590 2.410 . S
C562 Nd560 2.836 . S
C562 C563 1.498 . S
C562 O580 1.258 . S
C562 O581 1.239 . S
C563 C562 1.498 . S
C563 C564 1.366 1_554 S
C563 C568 1.407 . S
C564 C563 1.366 1_556 S
C564 C565 1.392 . S
C564 H592 0.930 . S
C565 C564 1.392 . S
C565 C566 1.398 . S
C565 H593 0.929 . S
C566 C565 1.398 . S
C566 C567 1.352 . S
C567 C566 1.352 . S
C567 C568 1.384 1_556 S
C567 H594 0.930 . S
C568 C563 1.407 . S
C568 C567 1.384 1_554 S
C568 H595 0.929 . S
C569 O582 1.241 . S
C569 O583 1.273 . S
C570 O584 1.251 . S
C570 O585 1.268 . S
C571 Nd561 2.836 . S
C571 C572 1.498 . S
C571 O586 1.258 . S
C571 O587 1.239 . S
C572 C571 1.498 . S
C572 C573 1.366 . S
C572 C577 1.407 . S
C573 C572 1.366 . S
C573 C574 1.392 . S
C573 H596 0.930 . S
C574 C573 1.392 . S
C574 C575 1.398 . S
C574 H597 0.929 . S
C575 C574 1.398 . S
C575 C576 1.352 . S
C576 C575 1.352 . S
C576 C577 1.384 . S
C576 H598 0.930 . S
C577 C572 1.407 . S
C577 C576 1.384 . S
C577 H599 0.929 . S
C578 O588 1.241 . S
C578 O589 1.273 . S
C579 O590 1.251 . S
C579 O591 1.268 . S
O580 Nd560 2.500 . S
O580 C562 1.258 . S
O581 Nd560 2.492 . S
O581 C562 1.239 . S
O582 Nd560 2.487 . S
O582 C569 1.241 . S
O583 Nd560 2.682 . S
O583 Nd561 2.414 . S
O583 C569 1.273 . S
O584 Nd560 2.410 . S
O584 C570 1.251 . S
O585 Nd561 2.424 . S
O585 C570 1.268 . S
O586 Nd561 2.500 . S
O586 C571 1.258 . S
O587 Nd561 2.492 . S
O587 C571 1.239 . S
O588 Nd561 2.487 . S
O588 C578 1.241 . S
O589 Nd560 2.414 . S
O589 Nd561 2.682 . S
O589 C578 1.273 . S
O590 Nd561 2.410 . S
O590 C579 1.251 . S
O591 Nd560 2.424 . S
O591 C579 1.268 . S
H592 C564 0.930 . S
H593 C565 0.929 . S
H594 C567 0.930 . S
H595 C568 0.929 . S
H596 C573 0.930 . S
H597 C574 0.929 . S
H598 C576 0.930 . S
H599 C577 0.929 . S
Nd600 C602 2.836 . S
Nd600 O620 2.500 . S
Nd600 O621 2.492 . S
Nd600 O622 2.487 1_556 S
Nd600 O623 2.682 1_556 S
Nd600 O624 2.410 . S
Nd600 O629 2.414 . S
Nd600 O631 2.424 1_556 S
Nd601 C611 2.836 . S
Nd601 O623 2.414 . S
Nd601 O625 2.424 1_554 S
Nd601 O626 2.500 . S
Nd601 O627 2.492 . S
Nd601 O628 2.487 1_554 S
Nd601 O629 2.682 1_554 S
Nd601 O630 2.410 . S
C602 Nd600 2.836 . S
C602 C603 1.498 . S
C602 O620 1.258 . S
C602 O621 1.239 . S
C603 C602 1.498 . S
C603 C604 1.366 . S
C603 C608 1.407 . S
C604 C603 1.366 . S
C604 C605 1.392 . S
C604 H632 0.930 . S
C605 C604 1.392 . S
C605 C606 1.398 . S
C605 H633 0.929 . S
C606 C605 1.398 . S
C606 C607 1.352 . S
C607 C606 1.352 . S
C607 C608 1.384 . S
C607 H634 0.930 . S
C608 C603 1.407 . S
C608 C607 1.384 . S
C608 H635 0.929 . S
C609 O622 1.241 . S
C609 O623 1.273 . S
C610 O624 1.251 . S
C610 O625 1.268 . S
C611 Nd601 2.836 . S
C611 C612 1.498 . S
C611 O626 1.258 . S
C611 O627 1.239 . S
C612 C611 1.498 . S
C612 C613 1.366 . S
C612 C617 1.407 . S
C613 C612 1.366 . S
C613 C614 1.392 . S
C613 H636 0.930 . S
C614 C613 1.392 . S
C614 C615 1.398 . S
C614 H637 0.929 . S
C615 C614 1.398 . S
C615 C616 1.352 . S
C616 C615 1.352 . S
C616 C617 1.384 . S
C616 H638 0.930 . S
C617 C612 1.407 . S
C617 C616 1.384 . S
C617 H639 0.929 . S
C618 O628 1.241 . S
C618 O629 1.273 . S
C619 O630 1.251 . S
C619 O631 1.268 . S
O620 Nd600 2.500 . S
O620 C602 1.258 . S
O621 Nd600 2.492 . S
O621 C602 1.239 . S
O622 Nd600 2.487 1_554 S
O622 C609 1.241 . S
O623 Nd600 2.682 1_554 S
O623 Nd601 2.414 . S
O623 C609 1.273 . S
O624 Nd600 2.410 . S
O624 C610 1.251 . S
O625 Nd601 2.424 1_556 S
O625 C610 1.268 . S
O626 Nd601 2.500 . S
O626 C611 1.258 . S
O627 Nd601 2.492 . S
O627 C611 1.239 . S
O628 Nd601 2.487 1_556 S
O628 C618 1.241 . S
O629 Nd600 2.414 . S
O629 Nd601 2.682 1_556 S
O629 C618 1.273 . S
O630 Nd601 2.410 . S
O630 C619 1.251 . S
O631 Nd600 2.424 1_554 S
O631 C619 1.268 . S
H632 C604 0.930 . S
H633 C605 0.929 . S
H634 C607 0.930 . S
H635 C608 0.929 . S
H636 C613 0.930 . S
H637 C614 0.929 . S
H638 C616 0.930 . S
H639 C617 0.929 . S
Nd640 C642 2.836 . S
Nd640 O660 2.500 . S
Nd640 O661 2.492 . S
Nd640 O662 2.487 . S
Nd640 O663 2.682 . S
Nd640 O664 2.410 . S
Nd640 O669 2.414 . S
Nd640 O671 2.424 . S
Nd641 C651 2.836 . S
Nd641 O663 2.414 . S
Nd641 O665 2.424 . S
Nd641 O666 2.500 . S
Nd641 O667 2.492 . S
Nd641 O668 2.487 . S
Nd641 O669 2.682 . S
Nd641 O670 2.410 . S
C642 Nd640 2.836 . S
C642 C643 1.498 . S
C642 O660 1.258 . S
C642 O661 1.239 . S
C643 C642 1.498 . S
C643 C644 1.366 . S
C643 C648 1.407 . S
C644 C643 1.366 . S
C644 C645 1.392 . S
C644 H672 0.930 . S
C645 C644 1.392 . S
C645 C646 1.398 . S
C645 H673 0.929 1_565 S
C646 C645 1.398 . S
C646 C647 1.352 . S
C647 C646 1.352 . S
C647 C648 1.384 . S
C647 H674 0.930 . S
C648 C643 1.407 . S
C648 C647 1.384 . S
C648 H675 0.929 . S
C649 O662 1.241 . S
C649 O663 1.273 . S
C650 O664 1.251 . S
C650 O665 1.268 . S
C651 Nd641 2.836 . S
C651 C652 1.498 . S
C651 O666 1.258 . S
C651 O667 1.239 . S
C652 C651 1.498 . S
C652 C653 1.366 . S
C652 C657 1.407 . S
C653 C652 1.366 . S
C653 C654 1.392 . S
C653 H676 0.930 . S
C654 C653 1.392 . S
C654 C655 1.398 . S
C654 H677 0.929 . S
C655 C654 1.398 . S
C655 C656 1.352 . S
C656 C655 1.352 . S
C656 C657 1.384 . S
C656 H678 0.930 . S
C657 C652 1.407 . S
C657 C656 1.384 . S
C657 H679 0.929 . S
C658 O668 1.241 . S
C658 O669 1.273 . S
C659 O670 1.251 . S
C659 O671 1.268 . S
O660 Nd640 2.500 . S
O660 C642 1.258 . S
O661 Nd640 2.492 . S
O661 C642 1.239 . S
O662 Nd640 2.487 . S
O662 C649 1.241 . S
O663 Nd640 2.682 . S
O663 Nd641 2.414 . S
O663 C649 1.273 . S
O664 Nd640 2.410 . S
O664 C650 1.251 . S
O665 Nd641 2.424 . S
O665 C650 1.268 . S
O666 Nd641 2.500 . S
O666 C651 1.258 . S
O667 Nd641 2.492 . S
O667 C651 1.239 . S
O668 Nd641 2.487 . S
O668 C658 1.241 . S
O669 Nd640 2.414 . S
O669 Nd641 2.682 . S
O669 C658 1.273 . S
O670 Nd641 2.410 . S
O670 C659 1.251 . S
O671 Nd640 2.424 . S
O671 C659 1.268 . S
H672 C644 0.930 . S
H673 C645 0.929 1_545 S
H674 C647 0.930 . S
H675 C648 0.929 . S
H676 C653 0.930 . S
H677 C654 0.929 . S
H678 C656 0.930 . S
H679 C657 0.929 . S
Nd680 C682 2.836 . S
Nd680 O700 2.500 . S
Nd680 O701 2.492 . S
Nd680 O702 2.487 . S
Nd680 O703 2.682 . S
Nd680 O704 2.410 . S
Nd680 O709 2.414 . S
Nd680 O711 2.424 . S
Nd681 C691 2.836 . S
Nd681 O703 2.414 . S
Nd681 O705 2.424 . S
Nd681 O706 2.500 . S
Nd681 O707 2.492 . S
Nd681 O708 2.487 . S
Nd681 O709 2.682 . S
Nd681 O710 2.410 . S
C682 Nd680 2.836 . S
C682 C683 1.498 . S
C682 O700 1.258 . S
C682 O701 1.239 . S
C683 C682 1.498 . S
C683 C684 1.366 . S
C683 C688 1.407 . S
C684 C683 1.366 . S
C684 C685 1.392 . S
C684 H712 0.930 . S
C685 C684 1.392 . S
C685 C686 1.398 . S
C685 H713 0.929 . S
C686 C685 1.398 . S
C686 C687 1.352 . S
C687 C686 1.352 . S
C687 C688 1.384 . S
C687 H714 0.930 . S
C688 C683 1.407 . S
C688 C687 1.384 . S
C688 H715 0.929 . S
C689 O702 1.241 . S
C689 O703 1.273 . S
C690 O704 1.251 . S
C690 O705 1.268 . S
C691 Nd681 2.836 . S
C691 C692 1.498 1_556 S
C691 O706 1.258 . S
C691 O707 1.239 . S
C692 C691 1.498 1_554 S
C692 C693 1.366 . S
C692 C697 1.407 . S
C693 C692 1.366 . S
C693 C694 1.392 . S
C693 H716 0.930 . S
C694 C693 1.392 . S
C694 C695 1.398 . S
C694 H717 0.929 . S
C695 C694 1.398 . S
C695 C696 1.352 . S
C696 C695 1.352 . S
C696 C697 1.384 . S
C696 H718 0.930 . S
C697 C692 1.407 . S
C697 C696 1.384 . S
C697 H719 0.929 . S
C698 O708 1.241 . S
C698 O709 1.273 . S
C699 O710 1.251 . S
C699 O711 1.268 . S
O700 Nd680 2.500 . S
O700 C682 1.258 . S
O701 Nd680 2.492 . S
O701 C682 1.239 . S
O702 Nd680 2.487 . S
O702 C689 1.241 . S
O703 Nd680 2.682 . S
O703 Nd681 2.414 . S
O703 C689 1.273 . S
O704 Nd680 2.410 . S
O704 C690 1.251 . S
O705 Nd681 2.424 . S
O705 C690 1.268 . S
O706 Nd681 2.500 . S
O706 C691 1.258 . S
O707 Nd681 2.492 . S
O707 C691 1.239 . S
O708 Nd681 2.487 . S
O708 C698 1.241 . S
O709 Nd680 2.414 . S
O709 Nd681 2.682 . S
O709 C698 1.273 . S
O710 Nd681 2.410 . S
O710 C699 1.251 . S
O711 Nd680 2.424 . S
O711 C699 1.268 . S
H712 C684 0.930 . S
H713 C685 0.929 . S
H714 C687 0.930 . S
H715 C688 0.929 . S
H716 C693 0.930 . S
H717 C694 0.929 . S
H718 C696 0.930 . S
H719 C697 0.929 . S
Nd720 C722 2.836 1_554 S
Nd720 O740 2.500 1_554 S
Nd720 O741 2.492 1_554 S
Nd720 O742 2.487 . S
Nd720 O743 2.682 . S
Nd720 O744 2.410 1_554 S
Nd720 O749 2.414 . S
Nd720 O751 2.424 . S
Nd721 C731 2.836 1_655 S
Nd721 O743 2.414 . S
Nd721 O745 2.424 1_654 S
Nd721 O746 2.500 . S
Nd721 O747 2.492 1_655 S
Nd721 O748 2.487 1_655 S
Nd721 O749 2.682 . S
Nd721 O750 2.410 . S
C722 Nd720 2.836 1_556 S
C722 C723 1.498 . S
C722 O740 1.258 . S
C722 O741 1.239 . S
C723 C722 1.498 . S
C723 C724 1.366 . S
C723 C728 1.407 . S
C724 C723 1.366 . S
C724 C725 1.392 . S
C724 H752 0.930 . S
C725 C724 1.392 . S
C725 C726 1.398 . S
C725 H753 0.929 1_545 S
C726 C725 1.398 . S
C726 C727 1.352 . S
C727 C726 1.352 . S
C727 C728 1.384 . S
C727 H754 0.930 . S
C728 C723 1.407 . S
C728 C727 1.384 . S
C728 H755 0.929 . S
C729 O742 1.241 . S
C729 O743 1.273 . S
C730 O744 1.251 . S
C730 O745 1.268 1_655 S
C731 Nd721 2.836 1_455 S
C731 C732 1.498 . S
C731 O746 1.258 1_455 S
C731 O747 1.239 . S
C732 C731 1.498 . S
C732 C733 1.366 1_455 S
C732 C737 1.407 . S
C733 C732 1.366 1_655 S
C733 C734 1.392 . S
C733 H756 0.930 . S
C734 C733 1.392 . S
C734 C735 1.398 1_655 S
C734 H757 0.929 . S
C735 C734 1.398 1_455 S
C735 C736 1.352 . S
C736 C735 1.352 . S
C736 C737 1.384 . S
C736 H758 0.930 . S
C737 C732 1.407 . S
C737 C736 1.384 . S
C737 H759 0.929 . S
C738 O748 1.241 . S
C738 O749 1.273 1_455 S
C739 O750 1.251 . S
C739 O751 1.268 . S
O740 Nd720 2.500 1_556 S
O740 C722 1.258 . S
O741 Nd720 2.492 1_556 S
O741 C722 1.239 . S
O742 Nd720 2.487 . S
O742 C729 1.241 . S
O743 Nd720 2.682 . S
O743 Nd721 2.414 . S
O743 C729 1.273 . S
O744 Nd720 2.410 1_556 S
O744 C730 1.251 . S
O745 Nd721 2.424 1_456 S
O745 C730 1.268 1_455 S
O746 Nd721 2.500 . S
O746 C731 1.258 1_655 S
O747 Nd721 2.492 1_455 S
O747 C731 1.239 . S
O748 Nd721 2.487 1_455 S
O748 C738 1.241 . S
O749 Nd720 2.414 . S
O749 Nd721 2.682 . S
O749 C738 1.273 1_655 S
O750 Nd721 2.410 . S
O750 C739 1.251 . S
O751 Nd720 2.424 . S
O751 C739 1.268 . S
H752 C724 0.930 . S
H753 C725 0.929 1_565 S
H754 C727 0.930 . S
H755 C728 0.929 . S
H756 C733 0.930 . S
H757 C734 0.929 . S
H758 C736 0.930 . S
H759 C737 0.929 . S
Nd760 C762 2.836 . S
Nd760 O780 2.500 . S
Nd760 O781 2.492 . S
Nd760 O782 2.487 . S
Nd760 O783 2.682 . S
Nd760 O784 2.410 . S
Nd760 O789 2.414 . S
Nd760 O791 2.424 . S
Nd761 C771 2.836 . S
Nd761 O783 2.414 . S
Nd761 O785 2.424 . S
Nd761 O786 2.500 . S
Nd761 O787 2.492 . S
Nd761 O788 2.487 . S
Nd761 O789 2.682 . S
Nd761 O790 2.410 . S
C762 Nd760 2.836 . S
C762 C763 1.498 . S
C762 O780 1.258 . S
C762 O781 1.239 . S
C763 C762 1.498 . S
C763 C764 1.366 . S
C763 C768 1.407 . S
C764 C763 1.366 . S
C764 C765 1.392 1_554 S
C764 H792 0.930 . S
C765 C764 1.392 1_556 S
C765 C766 1.398 . S
C765 H793 0.929 . S
C766 C765 1.398 . S
C766 C767 1.352 . S
C767 C766 1.352 . S
C767 C768 1.384 1_556 S
C767 H794 0.930 . S
C768 C763 1.407 . S
C768 C767 1.384 1_554 S
C768 H795 0.929 . S
C769 O782 1.241 . S
C769 O783 1.273 . S
C770 O784 1.251 . S
C770 O785 1.268 . S
C771 Nd761 2.836 . S
C771 C772 1.498 . S
C771 O786 1.258 . S
C771 O787 1.239 . S
C772 C771 1.498 . S
C772 C773 1.366 . S
C772 C777 1.407 . S
C773 C772 1.366 . S
C773 C774 1.392 . S
C773 H796 0.930 . S
C774 C773 1.392 . S
C774 C775 1.398 . S
C774 H797 0.929 . S
C775 C774 1.398 . S
C775 C776 1.352 . S
C776 C775 1.352 . S
C776 C777 1.384 . S
C776 H798 0.930 . S
C777 C772 1.407 . S
C777 C776 1.384 . S
C777 H799 0.929 . S
C778 O788 1.241 . S
C778 O789 1.273 . S
C779 O790 1.251 . S
C779 O791 1.268 . S
O780 Nd760 2.500 . S
O780 C762 1.258 . S
O781 Nd760 2.492 . S
O781 C762 1.239 . S
O782 Nd760 2.487 . S
O782 C769 1.241 . S
O783 Nd760 2.682 . S
O783 Nd761 2.414 . S
O783 C769 1.273 . S
O784 Nd760 2.410 . S
O784 C770 1.251 . S
O785 Nd761 2.424 . S
O785 C770 1.268 . S
O786 Nd761 2.500 . S
O786 C771 1.258 . S
O787 Nd761 2.492 . S
O787 C771 1.239 . S
O788 Nd761 2.487 . S
O788 C778 1.241 . S
O789 Nd760 2.414 . S
O789 Nd761 2.682 . S
O789 C778 1.273 . S
O790 Nd761 2.410 . S
O790 C779 1.251 . S
O791 Nd760 2.424 . S
O791 C779 1.268 . S
H792 C764 0.930 . S
H793 C765 0.929 . S
H794 C767 0.930 . S
H795 C768 0.929 . S
H796 C773 0.930 . S
H797 C774 0.929 . S
H798 C776 0.930 . S
H799 C777 0.929 . S
Nd800 C802 2.836 . S
Nd800 O820 2.500 . S
Nd800 O821 2.492 . S
Nd800 O822 2.487 1_556 S
Nd800 O823 2.682 1_566 S
Nd800 O824 2.410 1_565 S
Nd800 O829 2.414 1_565 S
Nd800 O831 2.424 1_556 S
Nd801 C811 2.836 . S
Nd801 O823 2.414 . S
Nd801 O825 2.424 1_554 S
Nd801 O826 2.500 . S
Nd801 O827 2.492 . S
Nd801 O828 2.487 1_554 S
Nd801 O829 2.682 1_554 S
Nd801 O830 2.410 . S
C802 Nd800 2.836 . S
C802 C803 1.498 . S
C802 O820 1.258 . S
C802 O821 1.239 . S
C803 C802 1.498 . S
C803 C804 1.366 . S
C803 C808 1.407 . S
C804 C803 1.366 . S
C804 C805 1.392 . S
C804 H832 0.930 . S
C805 C804 1.392 . S
C805 C806 1.398 . S
C805 H833 0.929 . S
C806 C805 1.398 . S
C806 C807 1.352 . S
C807 C806 1.352 . S
C807 C808 1.384 . S
C807 H834 0.930 . S
C808 C803 1.407 . S
C808 C807 1.384 . S
C808 H835 0.929 . S
C809 O822 1.241 . S
C809 O823 1.273 1_565 S
C810 O824 1.251 . S
C810 O825 1.268 . S
C811 Nd801 2.836 . S
C811 C812 1.498 . S
C811 O826 1.258 . S
C811 O827 1.239 . S
C812 C811 1.498 . S
C812 C813 1.366 . S
C812 C817 1.407 . S
C813 C812 1.366 . S
C813 C814 1.392 . S
C813 H836 0.930 . S
C814 C813 1.392 . S
C814 C815 1.398 . S
C814 H837 0.929 . S
C815 C814 1.398 . S
C815 C816 1.352 . S
C816 C815 1.352 . S
C816 C817 1.384 . S
C816 H838 0.930 . S
C817 C812 1.407 . S
C817 C816 1.384 . S
C817 H839 0.929 . S
C818 O828 1.241 . S
C818 O829 1.273 . S
C819 O830 1.251 . S
C819 O831 1.268 1_545 S
O820 Nd800 2.500 . S
O820 C802 1.258 . S
O821 Nd800 2.492 . S
O821 C802 1.239 . S
O822 Nd800 2.487 1_554 S
O822 C809 1.241 . S
O823 Nd800 2.682 1_544 S
O823 Nd801 2.414 . S
O823 C809 1.273 1_545 S
O824 Nd800 2.410 1_545 S
O824 C810 1.251 . S
O825 Nd801 2.424 1_556 S
O825 C810 1.268 . S
O826 Nd801 2.500 . S
O826 C811 1.258 . S
O827 Nd801 2.492 . S
O827 C811 1.239 . S
O828 Nd801 2.487 1_556 S
O828 C818 1.241 . S
O829 Nd800 2.414 1_545 S
O829 Nd801 2.682 1_556 S
O829 C818 1.273 . S
O830 Nd801 2.410 . S
O830 C819 1.251 . S
O831 Nd800 2.424 1_554 S
O831 C819 1.268 1_565 S
H832 C804 0.930 . S
H833 C805 0.929 . S
H834 C807 0.930 . S
H835 C808 0.929 . S
H836 C813 0.930 . S
H837 C814 0.929 . S
H838 C816 0.930 . S
H839 C817 0.929 . S
Nd840 C842 2.836 . S
Nd840 O860 2.500 . S
Nd840 O861 2.492 . S
Nd840 O862 2.487 . S
Nd840 O863 2.682 . S
Nd840 O864 2.410 . S
Nd840 O869 2.414 . S
Nd840 O871 2.424 . S
Nd841 C851 2.836 . S
Nd841 O863 2.414 . S
Nd841 O865 2.424 . S
Nd841 O866 2.500 . S
Nd841 O867 2.492 . S
Nd841 O868 2.487 . S
Nd841 O869 2.682 . S
Nd841 O870 2.410 . S
C842 Nd840 2.836 . S
C842 C843 1.498 . S
C842 O860 1.258 . S
C842 O861 1.239 . S
C843 C842 1.498 . S
C843 C844 1.366 1_554 S
C843 C848 1.407 . S
C844 C843 1.366 1_556 S
C844 C845 1.392 . S
C844 H872 0.930 . S
C845 C844 1.392 . S
C845 C846 1.398 . S
C845 H873 0.929 . S
C846 C845 1.398 . S
C846 C847 1.352 . S
C847 C846 1.352 . S
C847 C848 1.384 1_556 S
C847 H874 0.930 . S
C848 C843 1.407 . S
C848 C847 1.384 1_554 S
C848 H875 0.929 . S
C849 O862 1.241 . S
C849 O863 1.273 . S
C850 O864 1.251 . S
C850 O865 1.268 . S
C851 Nd841 2.836 . S
C851 C852 1.498 . S
C851 O866 1.258 . S
C851 O867 1.239 . S
C852 C851 1.498 . S
C852 C853 1.366 . S
C852 C857 1.407 . S
C853 C852 1.366 . S
C853 C854 1.392 . S
C853 H876 0.930 . S
C854 C853 1.392 . S
C854 C855 1.398 . S
C854 H877 0.929 . S
C855 C854 1.398 . S
C855 C856 1.352 . S
C856 C855 1.352 . S
C856 C857 1.384 . S
C856 H878 0.930 . S
C857 C852 1.407 . S
C857 C856 1.384 . S
C857 H879 0.929 . S
C858 O868 1.241 . S
C858 O869 1.273 . S
C859 O870 1.251 . S
C859 O871 1.268 . S
O860 Nd840 2.500 . S
O860 C842 1.258 . S
O861 Nd840 2.492 . S
O861 C842 1.239 . S
O862 Nd840 2.487 . S
O862 C849 1.241 . S
O863 Nd840 2.682 . S
O863 Nd841 2.414 . S
O863 C849 1.273 . S
O864 Nd840 2.410 . S
O864 C850 1.251 . S
O865 Nd841 2.424 . S
O865 C850 1.268 . S
O866 Nd841 2.500 . S
O866 C851 1.258 . S
O867 Nd841 2.492 . S
O867 C851 1.239 . S
O868 Nd841 2.487 . S
O868 C858 1.241 . S
O869 Nd840 2.414 . S
O869 Nd841 2.682 . S
O869 C858 1.273 . S
O870 Nd841 2.410 . S
O870 C859 1.251 . S
O871 Nd840 2.424 . S
O871 C859 1.268 . S
H872 C844 0.930 . S
H873 C845 0.929 . S
H874 C847 0.930 . S
H875 C848 0.929 . S
H876 C853 0.930 . S
H877 C854 0.929 . S
H878 C856 0.930 . S
H879 C857 0.929 . S
Nd880 C882 2.836 . S
Nd880 O900 2.500 . S
Nd880 O901 2.492 . S
Nd880 O902 2.487 . S
Nd880 O903 2.682 1_545 S
Nd880 O904 2.410 1_545 S
Nd880 O909 2.414 1_545 S
Nd880 O911 2.424 . S
Nd881 C891 2.836 . S
Nd881 O903 2.414 . S
Nd881 O905 2.424 . S
Nd881 O906 2.500 . S
Nd881 O907 2.492 . S
Nd881 O908 2.487 . S
Nd881 O909 2.682 . S
Nd881 O910 2.410 . S
C882 Nd880 2.836 . S
C882 C883 1.498 . S
C882 O900 1.258 . S
C882 O901 1.239 . S
C883 C882 1.498 . S
C883 C884 1.366 . S
C883 C888 1.407 . S
C884 C883 1.366 . S
C884 C885 1.392 . S
C884 H912 0.930 . S
C885 C884 1.392 . S
C885 C886 1.398 . S
C885 H913 0.929 . S
C886 C885 1.398 . S
C886 C887 1.352 . S
C887 C886 1.352 . S
C887 C888 1.384 . S
C887 H914 0.930 . S
C888 C883 1.407 . S
C888 C887 1.384 . S
C888 H915 0.929 . S
C889 O902 1.241 . S
C889 O903 1.273 1_545 S
C890 O904 1.251 . S
C890 O905 1.268 . S
C891 Nd881 2.836 . S
C891 C892 1.498 . S
C891 O906 1.258 . S
C891 O907 1.239 . S
C892 C891 1.498 . S
C892 C893 1.366 . S
C892 C897 1.407 . S
C893 C892 1.366 . S
C893 C894 1.392 . S
C893 H916 0.930 . S
C894 C893 1.392 . S
C894 C895 1.398 . S
C894 H917 0.929 . S
C895 C894 1.398 . S
C895 C896 1.352 . S
C896 C895 1.352 . S
C896 C897 1.384 . S
C896 H918 0.930 . S
C897 C892 1.407 . S
C897 C896 1.384 . S
C897 H919 0.929 . S
C898 O908 1.241 . S
C898 O909 1.273 . S
C899 O910 1.251 . S
C899 O911 1.268 1_565 S
O900 Nd880 2.500 . S
O900 C882 1.258 . S
O901 Nd880 2.492 . S
O901 C882 1.239 . S
O902 Nd880 2.487 . S
O902 C889 1.241 . S
O903 Nd880 2.682 1_565 S
O903 Nd881 2.414 . S
O903 C889 1.273 1_565 S
O904 Nd880 2.410 1_565 S
O904 C890 1.251 . S
O905 Nd881 2.424 . S
O905 C890 1.268 . S
O906 Nd881 2.500 . S
O906 C891 1.258 . S
O907 Nd881 2.492 . S
O907 C891 1.239 . S
O908 Nd881 2.487 . S
O908 C898 1.241 . S
O909 Nd880 2.414 1_565 S
O909 Nd881 2.682 . S
O909 C898 1.273 . S
O910 Nd881 2.410 . S
O910 C899 1.251 . S
O911 Nd880 2.424 . S
O911 C899 1.268 1_545 S
H912 C884 0.930 . S
H913 C885 0.929 . S
H914 C887 0.930 . S
H915 C888 0.929 . S
H916 C893 0.930 . S
H917 C894 0.929 . S
H918 C896 0.930 . S
H919 C897 0.929 . S
Nd920 C922 2.836 . S
Nd920 O940 2.500 . S
Nd920 O941 2.492 . S
Nd920 O942 2.487 . S
Nd920 O943 2.682 . S
Nd920 O944 2.410 . S
Nd920 O949 2.414 . S
Nd920 O951 2.424 . S
Nd921 C931 2.836 . S
Nd921 O943 2.414 . S
Nd921 O945 2.424 . S
Nd921 O946 2.500 . S
Nd921 O947 2.492 . S
Nd921 O948 2.487 . S
Nd921 O949 2.682 . S
Nd921 O950 2.410 . S
C922 Nd920 2.836 . S
C922 C923 1.498 . S
C922 O940 1.258 . S
C922 O941 1.239 . S
C923 C922 1.498 . S
C923 C924 1.366 . S
C923 C928 1.407 . S
C924 C923 1.366 . S
C924 C925 1.392 . S
C924 H952 0.930 . S
C925 C924 1.392 . S
C925 C926 1.398 . S
C925 H953 0.929 . S
C926 C925 1.398 . S
C926 C927 1.352 . S
C927 C926 1.352 . S
C927 C928 1.384 . S
C927 H954 0.930 . S
C928 C923 1.407 . S
C928 C927 1.384 . S
C928 H955 0.929 . S
C929 O942 1.241 . S
C929 O943 1.273 . S
C930 O944 1.251 . S
C930 O945 1.268 . S
C931 Nd921 2.836 . S
C931 C932 1.498 . S
C931 O946 1.258 . S
C931 O947 1.239 . S
C932 C931 1.498 . S
C932 C933 1.366 1_556 S
C932 C937 1.407 . S
C933 C932 1.366 1_554 S
C933 C934 1.392 . S
C933 H956 0.930 . S
C934 C933 1.392 . S
C934 C935 1.398 . S
C934 H957 0.929 . S
C935 C934 1.398 . S
C935 C936 1.352 . S
C936 C935 1.352 . S
C936 C937 1.384 1_554 S
C936 H958 0.930 . S
C937 C932 1.407 . S
C937 C936 1.384 1_556 S
C937 H959 0.929 . S
C938 O948 1.241 . S
C938 O949 1.273 . S
C939 O950 1.251 . S
C939 O951 1.268 . S
O940 Nd920 2.500 . S
O940 C922 1.258 . S
O941 Nd920 2.492 . S
O941 C922 1.239 . S
O942 Nd920 2.487 . S
O942 C929 1.241 . S
O943 Nd920 2.682 . S
O943 Nd921 2.414 . S
O943 C929 1.273 . S
O944 Nd920 2.410 . S
O944 C930 1.251 . S
O945 Nd921 2.424 . S
O945 C930 1.268 . S
O946 Nd921 2.500 . S
O946 C931 1.258 . S
O947 Nd921 2.492 . S
O947 C931 1.239 . S
O948 Nd921 2.487 . S
O948 C938 1.241 . S
O949 Nd920 2.414 . S
O949 Nd921 2.682 . S
O949 C938 1.273 . S
O950 Nd921 2.410 . S
O950 C939 1.251 . S
O951 Nd920 2.424 . S
O951 C939 1.268 . S
H952 C924 0.930 . S
H953 C925 0.929 . S
H954 C927 0.930 . S
H955 C928 0.929 . S
H956 C933 0.930 . S
H957 C934 0.929 . S
H958 C936 0.930 . S
H959 C937 0.929 . S
Nd960 C962 2.836 . S
Nd960 O980 2.500 . S
Nd960 O981 2.492 . S
Nd960 O982 2.487 . S
Nd960 O983 2.682 . S
Nd960 O984 2.410 . S
Nd960 O989 2.414 . S
Nd960 O991 2.424 . S
Nd961 C971 2.836 . S
Nd961 O983 2.414 . S
Nd961 O985 2.424 . S
Nd961 O986 2.500 . S
Nd961 O987 2.492 . S
Nd961 O988 2.487 . S
Nd961 O989 2.682 . S
Nd961 O990 2.410 . S
C962 Nd960 2.836 . S
C962 C963 1.498 . S
C962 O980 1.258 . S
C962 O981 1.239 . S
C963 C962 1.498 . S
C963 C964 1.366 . S
C963 C968 1.407 . S
C964 C963 1.366 . S
C964 C965 1.392 . S
C964 H992 0.930 . S
C965 C964 1.392 . S
C965 C966 1.398 . S
C965 H993 0.929 . S
C966 C965 1.398 . S
C966 C967 1.352 . S
C967 C966 1.352 . S
C967 C968 1.384 . S
C967 H994 0.930 . S
C968 C963 1.407 . S
C968 C967 1.384 . S
C968 H995 0.929 . S
C969 O982 1.241 . S
C969 O983 1.273 . S
C970 O984 1.251 . S
C970 O985 1.268 . S
C971 Nd961 2.836 . S
C971 C972 1.498 . S
C971 O986 1.258 . S
C971 O987 1.239 . S
C972 C971 1.498 . S
C972 C973 1.366 . S
C972 C977 1.407 . S
C973 C972 1.366 . S
C973 C974 1.392 1_556 S
C973 H996 0.930 . S
C974 C973 1.392 1_554 S
C974 C975 1.398 . S
C974 H997 0.929 1_545 S
C975 C974 1.398 . S
C975 C976 1.352 . S
C976 C975 1.352 . S
C976 C977 1.384 1_554 S
C976 H998 0.930 . S
C977 C972 1.407 . S
C977 C976 1.384 1_556 S
C977 H999 0.929 . S
C978 O988 1.241 . S
C978 O989 1.273 . S
C979 O990 1.251 . S
C979 O991 1.268 . S
O980 Nd960 2.500 . S
O980 C962 1.258 . S
O981 Nd960 2.492 . S
O981 C962 1.239 . S
O982 Nd960 2.487 . S
O982 C969 1.241 . S
O983 Nd960 2.682 . S
O983 Nd961 2.414 . S
O983 C969 1.273 . S
O984 Nd960 2.410 . S
O984 C970 1.251 . S
O985 Nd961 2.424 . S
O985 C970 1.268 . S
O986 Nd961 2.500 . S
O986 C971 1.258 . S
O987 Nd961 2.492 . S
O987 C971 1.239 . S
O988 Nd961 2.487 . S
O988 C978 1.241 . S
O989 Nd960 2.414 . S
O989 Nd961 2.682 . S
O989 C978 1.273 . S
O990 Nd961 2.410 . S
O990 C979 1.251 . S
O991 Nd960 2.424 . S
O991 C979 1.268 . S
H992 C964 0.930 . S
H993 C965 0.929 . S
H994 C967 0.930 . S
H995 C968 0.929 . S
H996 C973 0.930 . S
H997 C974 0.929 1_565 S
H998 C976 0.930 . S
H999 C977 0.929 . S
Nd1000 C1002 2.836 . S
Nd1000 O1020 2.500 . S
Nd1000 O1021 2.492 . S
Nd1000 O1022 2.487 . S
Nd1000 O1023 2.682 . S
Nd1000 O1024 2.410 . S
Nd1000 O1029 2.414 . S
Nd1000 O1031 2.424 . S
Nd1001 C1011 2.836 . S
Nd1001 O1023 2.414 . S
Nd1001 O1025 2.424 . S
Nd1001 O1026 2.500 . S
Nd1001 O1027 2.492 . S
Nd1001 O1028 2.487 . S
Nd1001 O1029 2.682 . S
Nd1001 O1030 2.410 . S
C1002 Nd1000 2.836 . S
C1002 C1003 1.498 . S
C1002 O1020 1.258 . S
C1002 O1021 1.239 . S
C1003 C1002 1.498 . S
C1003 C1004 1.366 . S
C1003 C1008 1.407 . S
C1004 C1003 1.366 . S
C1004 C1005 1.392 . S
C1004 H1032 0.930 . S
C1005 C1004 1.392 . S
C1005 C1006 1.398 . S
C1005 H1033 0.929 . S
C1006 C1005 1.398 . S
C1006 C1007 1.352 . S
C1007 C1006 1.352 . S
C1007 C1008 1.384 . S
C1007 H1034 0.930 . S
C1008 C1003 1.407 . S
C1008 C1007 1.384 . S
C1008 H1035 0.929 . S
C1009 O1022 1.241 . S
C1009 O1023 1.273 . S
C1010 O1024 1.251 . S
C1010 O1025 1.268 . S
C1011 Nd1001 2.836 . S
C1011 C1012 1.498 . S
C1011 O1026 1.258 . S
C1011 O1027 1.239 . S
C1012 C1011 1.498 . S
C1012 C1013 1.366 . S
C1012 C1017 1.407 . S
C1013 C1012 1.366 . S
C1013 C1014 1.392 . S
C1013 H1036 0.930 . S
C1014 C1013 1.392 . S
C1014 C1015 1.398 . S
C1014 H1037 0.929 . S
C1015 C1014 1.398 . S
C1015 C1016 1.352 . S
C1016 C1015 1.352 . S
C1016 C1017 1.384 . S
C1016 H1038 0.930 . S
C1017 C1012 1.407 . S
C1017 C1016 1.384 . S
C1017 H1039 0.929 . S
C1018 O1028 1.241 . S
C1018 O1029 1.273 . S
C1019 O1030 1.251 . S
C1019 O1031 1.268 . S
O1020 Nd1000 2.500 . S
O1020 C1002 1.258 . S
O1021 Nd1000 2.492 . S
O1021 C1002 1.239 . S
O1022 Nd1000 2.487 . S
O1022 C1009 1.241 . S
O1023 Nd1000 2.682 . S
O1023 Nd1001 2.414 . S
O1023 C1009 1.273 . S
O1024 Nd1000 2.410 . S
O1024 C1010 1.251 . S
O1025 Nd1001 2.424 . S
O1025 C1010 1.268 . S
O1026 Nd1001 2.500 . S
O1026 C1011 1.258 . S
O1027 Nd1001 2.492 . S
O1027 C1011 1.239 . S
O1028 Nd1001 2.487 . S
O1028 C1018 1.241 . S
O1029 Nd1000 2.414 . S
O1029 Nd1001 2.682 . S
O1029 C1018 1.273 . S
O1030 Nd1001 2.410 . S
O1030 C1019 1.251 . S
O1031 Nd1000 2.424 . S
O1031 C1019 1.268 . S
H1032 C1004 0.930 . S
H1033 C1005 0.929 . S
H1034 C1007 0.930 . S
H1035 C1008 0.929 . S
H1036 C1013 0.930 . S
H1037 C1014 0.929 . S
H1038 C1016 0.930 . S
H1039 C1017 0.929 . S
Nd1040 C1042 2.834 1_455 S
Nd1040 O1060 2.502 . S
Nd1040 O1061 2.486 1_455 S
Nd1040 O1062 2.482 1_455 S
Nd1040 O1063 2.685 . S
Nd1040 O1064 2.416 . S
Nd1040 O1069 2.425 . S
Nd1040 O1071 2.423 1_455 S
Nd1041 C1051 2.836 . S
Nd1041 O1063 2.414 . S
Nd1041 O1065 2.424 . S
Nd1041 O1066 2.500 . S
Nd1041 O1067 2.492 . S
Nd1041 O1068 2.487 . S
Nd1041 O1069 2.682 . S
Nd1041 O1070 2.410 . S
C1042 Nd1040 2.834 1_655 S
C1042 C1043 1.498 1_554 S
C1042 O1060 1.258 1_655 S
C1042 O1061 1.239 . S
C1043 C1042 1.498 1_556 S
C1043 C1044 1.366 1_655 S
C1043 C1048 1.407 . S
C1044 C1043 1.366 1_455 S
C1044 C1045 1.392 . S
C1044 H1072 0.930 . S
C1045 C1044 1.392 . S
C1045 C1046 1.398 1_455 S
C1045 H1073 0.929 . S
C1046 C1045 1.398 1_655 S
C1046 C1047 1.352 . S
C1047 C1046 1.352 . S
C1047 C1048 1.384 . S
C1047 H1074 0.930 . S
C1048 C1043 1.407 . S
C1048 C1047 1.384 . S
C1048 H1075 0.929 . S
C1049 O1062 1.241 . S
C1049 O1063 1.273 1_655 S
C1050 O1064 1.251 . S
C1050 O1065 1.268 . S
C1051 Nd1041 2.836 . S
C1051 C1052 1.498 . S
C1051 O1066 1.258 . S
C1051 O1067 1.239 . S
C1052 C1051 1.498 . S
C1052 C1053 1.366 . S
C1052 C1057 1.407 . S
C1053 C1052 1.366 . S
C1053 C1054 1.392 . S
C1053 H1076 0.930 . S
C1054 C1053 1.392 . S
C1054 C1055 1.398 . S
C1054 H1077 0.929 1_565 S
C1055 C1054 1.398 . S
C1055 C1056 1.352 . S
C1056 C1055 1.352 . S
C1056 C1057 1.384 . S
C1056 H1078 0.930 . S
C1057 C1052 1.407 . S
C1057 C1056 1.384 . S
C1057 H1079 0.929 . S
C1058 O1068 1.241 . S
C1058 O1069 1.273 . S
C1059 O1070 1.251 . S
C1059 O1071 1.268 1_455 S
O1060 Nd1040 2.502 . S
O1060 C1042 1.258 1_455 S
O1061 Nd1040 2.486 1_655 S
O1061 C1042 1.239 . S
O1062 Nd1040 2.482 1_655 S
O1062 C1049 1.241 . S
O1063 Nd1040 2.685 . S
O1063 Nd1041 2.414 . S
O1063 C1049 1.273 1_455 S
O1064 Nd1040 2.416 . S
O1064 C1050 1.251 . S
O1065 Nd1041 2.424 . S
O1065 C1050 1.268 . S
O1066 Nd1041 2.500 . S
O1066 C1051 1.258 . S
O1067 Nd1041 2.492 . S
O1067 C1051 1.239 . S
O1068 Nd1041 2.487 . S
O1068 C1058 1.241 . S
O1069 Nd1040 2.425 . S
O1069 Nd1041 2.682 . S
O1069 C1058 1.273 . S
O1070 Nd1041 2.410 . S
O1070 C1059 1.251 . S
O1071 Nd1040 2.423 1_655 S
O1071 C1059 1.268 1_655 S
H1072 C1044 0.930 . S
H1073 C1045 0.929 . S
H1074 C1047 0.930 . S
H1075 C1048 0.929 . S
H1076 C1053 0.930 . S
H1077 C1054 0.929 1_545 S
H1078 C1056 0.930 . S
H1079 C1057 0.929 . S
Nd1080 C1082 2.836 . S
Nd1080 O1100 2.500 . S
Nd1080 O1101 2.492 . S
Nd1080 O1102 2.487 . S
Nd1080 O1103 2.682 . S
Nd1080 O1104 2.410 . S
Nd1080 O1109 2.414 . S
Nd1080 O1111 2.424 1_556 S
Nd1081 C1091 2.836 1_556 S
Nd1081 O1103 2.414 . S
Nd1081 O1105 2.424 . S
Nd1081 O1106 2.500 1_556 S
Nd1081 O1107 2.492 1_556 S
Nd1081 O1108 2.487 . S
Nd1081 O1109 2.682 . S
Nd1081 O1110 2.410 1_556 S
C1082 Nd1080 2.836 . S
C1082 C1083 1.498 . S
C1082 O1100 1.258 . S
C1082 O1101 1.239 . S
C1083 C1082 1.498 . S
C1083 C1084 1.366 . S
C1083 C1088 1.407 . S
C1084 C1083 1.366 . S
C1084 C1085 1.392 . S
C1084 H1112 0.930 . S
C1085 C1084 1.392 . S
C1085 C1086 1.398 . S
C1085 H1113 0.929 . S
C1086 C1085 1.398 . S
C1086 C1087 1.352 . S
C1087 C1086 1.352 . S
C1087 C1088 1.384 . S
C1087 H1114 0.930 . S
C1088 C1083 1.407 . S
C1088 C1087 1.384 . S
C1088 H1115 0.929 . S
C1089 O1102 1.241 . S
C1089 O1103 1.273 . S
C1090 O1104 1.251 . S
C1090 O1105 1.268 . S
C1091 Nd1081 2.836 1_554 S
C1091 C1092 1.498 . S
C1091 O1106 1.258 . S
C1091 O1107 1.239 . S
C1092 C1091 1.498 . S
C1092 C1093 1.366 . S
C1092 C1097 1.407 . S
C1093 C1092 1.366 . S
C1093 C1094 1.392 . S
C1093 H1116 0.930 . S
C1094 C1093 1.392 . S
C1094 C1095 1.398 . S
C1094 H1117 0.929 . S
C1095 C1094 1.398 . S
C1095 C1096 1.352 . S
C1096 C1095 1.352 . S
C1096 C1097 1.384 . S
C1096 H1118 0.930 . S
C1097 C1092 1.407 . S
C1097 C1096 1.384 . S
C1097 H1119 0.929 . S
C1098 O1108 1.241 . S
C1098 O1109 1.273 . S
C1099 O1110 1.251 . S
C1099 O1111 1.268 . S
O1100 Nd1080 2.500 . S
O1100 C1082 1.258 . S
O1101 Nd1080 2.492 . S
O1101 C1082 1.239 . S
O1102 Nd1080 2.487 . S
O1102 C1089 1.241 . S
O1103 Nd1080 2.682 . S
O1103 Nd1081 2.414 . S
O1103 C1089 1.273 . S
O1104 Nd1080 2.410 . S
O1104 C1090 1.251 . S
O1105 Nd1081 2.424 . S
O1105 C1090 1.268 . S
O1106 Nd1081 2.500 1_554 S
O1106 C1091 1.258 . S
O1107 Nd1081 2.492 1_554 S
O1107 C1091 1.239 . S
O1108 Nd1081 2.487 . S
O1108 C1098 1.241 . S
O1109 Nd1080 2.414 . S
O1109 Nd1081 2.682 . S
O1109 C1098 1.273 . S
O1110 Nd1081 2.410 1_554 S
O1110 C1099 1.251 . S
O1111 Nd1080 2.424 1_554 S
O1111 C1099 1.268 . S
H1112 C1084 0.930 . S
H1113 C1085 0.929 . S
H1114 C1087 0.930 . S
H1115 C1088 0.929 . S
H1116 C1093 0.930 . S
H1117 C1094 0.929 . S
H1118 C1096 0.930 . S
H1119 C1097 0.929 . S
Nd1120 C1122 2.836 . S
Nd1120 O1140 2.500 . S
Nd1120 O1141 2.492 . S
Nd1120 O1142 2.487 . S
Nd1120 O1143 2.682 . S
Nd1120 O1144 2.410 . S
Nd1120 O1149 2.414 . S
Nd1120 O1151 2.424 . S
Nd1121 C1131 2.836 . S
Nd1121 O1143 2.414 1_545 S
Nd1121 O1145 2.424 . S
Nd1121 O1146 2.500 . S
Nd1121 O1147 2.492 . S
Nd1121 O1148 2.487 . S
Nd1121 O1149 2.682 1_545 S
Nd1121 O1150 2.410 1_545 S
C1122 Nd1120 2.836 . S
C1122 C1123 1.498 . S
C1122 O1140 1.258 . S
C1122 O1141 1.239 . S
C1123 C1122 1.498 . S
C1123 C1124 1.366 1_554 S
C1123 C1128 1.407 . S
C1124 C1123 1.366 1_556 S
C1124 C1125 1.392 . S
C1124 H1152 0.930 . S
C1125 C1124 1.392 . S
C1125 C1126 1.398 . S
C1125 H1153 0.929 . S
C1126 C1125 1.398 . S
C1126 C1127 1.352 . S
C1127 C1126 1.352 . S
C1127 C1128 1.384 1_556 S
C1127 H1154 0.930 . S
C1128 C1123 1.407 . S
C1128 C1127 1.384 1_554 S
C1128 H1155 0.929 . S
C1129 O1142 1.241 . S
C1129 O1143 1.273 . S
C1130 O1144 1.251 . S
C1130 O1145 1.268 1_565 S
C1131 Nd1121 2.836 . S
C1131 C1132 1.498 . S
C1131 O1146 1.258 . S
C1131 O1147 1.239 . S
C1132 C1131 1.498 . S
C1132 C1133 1.366 . S
C1132 C1137 1.407 . S
C1133 C1132 1.366 . S
C1133 C1134 1.392 . S
C1133 H1156 0.930 . S
C1134 C1133 1.392 . S
C1134 C1135 1.398 . S
C1134 H1157 0.929 . S
C1135 C1134 1.398 . S
C1135 C1136 1.352 . S
C1136 C1135 1.352 . S
C1136 C1137 1.384 . S
C1136 H1158 0.930 . S
C1137 C1132 1.407 . S
C1137 C1136 1.384 . S
C1137 H1159 0.929 . S
C1138 O1148 1.241 . S
C1138 O1149 1.273 1_545 S
C1139 O1150 1.251 . S
C1139 O1151 1.268 . S
O1140 Nd1120 2.500 . S
O1140 C1122 1.258 . S
O1141 Nd1120 2.492 . S
O1141 C1122 1.239 . S
O1142 Nd1120 2.487 . S
O1142 C1129 1.241 . S
O1143 Nd1120 2.682 . S
O1143 Nd1121 2.414 1_565 S
O1143 C1129 1.273 . S
O1144 Nd1120 2.410 . S
O1144 C1130 1.251 . S
O1145 Nd1121 2.424 . S
O1145 C1130 1.268 1_545 S
O1146 Nd1121 2.500 . S
O1146 C1131 1.258 . S
O1147 Nd1121 2.492 . S
O1147 C1131 1.239 . S
O1148 Nd1121 2.487 . S
O1148 C1138 1.241 . S
O1149 Nd1120 2.414 . S
O1149 Nd1121 2.682 1_565 S
O1149 C1138 1.273 1_565 S
O1150 Nd1121 2.410 1_565 S
O1150 C1139 1.251 . S
O1151 Nd1120 2.424 . S
O1151 C1139 1.268 . S
H1152 C1124 0.930 . S
H1153 C1125 0.929 . S
H1154 C1127 0.930 . S
H1155 C1128 0.929 . S
H1156 C1133 0.930 . S
H1157 C1134 0.929 . S
H1158 C1136 0.930 . S
H1159 C1137 0.929 . S
Nd1160 C1162 2.836 . S
Nd1160 O1180 2.500 . S
Nd1160 O1181 2.492 . S
Nd1160 O1182 2.487 1_556 S
Nd1160 O1183 2.682 1_556 S
Nd1160 O1184 2.410 . S
Nd1160 O1189 2.414 . S
Nd1160 O1191 2.424 1_556 S
Nd1161 C1171 2.836 . S
Nd1161 O1183 2.414 . S
Nd1161 O1185 2.424 1_554 S
Nd1161 O1186 2.500 . S
Nd1161 O1187 2.492 . S
Nd1161 O1188 2.487 1_554 S
Nd1161 O1189 2.682 1_554 S
Nd1161 O1190 2.410 . S
C1162 Nd1160 2.836 . S
C1162 C1163 1.498 . S
C1162 O1180 1.258 . S
C1162 O1181 1.239 . S
C1163 C1162 1.498 . S
C1163 C1164 1.366 . S
C1163 C1168 1.407 . S
C1164 C1163 1.366 . S
C1164 C1165 1.392 . S
C1164 H1192 0.930 . S
C1165 C1164 1.392 . S
C1165 C1166 1.398 . S
C1165 H1193 0.929 . S
C1166 C1165 1.398 . S
C1166 C1167 1.352 . S
C1167 C1166 1.352 . S
C1167 C1168 1.384 . S
C1167 H1194 0.930 . S
C1168 C1163 1.407 . S
C1168 C1167 1.384 . S
C1168 H1195 0.929 . S
C1169 O1182 1.241 . S
C1169 O1183 1.273 . S
C1170 O1184 1.251 . S
C1170 O1185 1.268 . S
C1171 Nd1161 2.836 . S
C1171 C1172 1.498 . S
C1171 O1186 1.258 . S
C1171 O1187 1.239 . S
C1172 C1171 1.498 . S
C1172 C1173 1.366 . S
C1172 C1177 1.407 . S
C1173 C1172 1.366 . S
C1173 C1174 1.392 . S
C1173 H1196 0.930 . S
C1174 C1173 1.392 . S
C1174 C1175 1.398 . S
C1174 H1197 0.929 . S
C1175 C1174 1.398 . S
C1175 C1176 1.352 . S
C1176 C1175 1.352 . S
C1176 C1177 1.384 . S
C1176 H1198 0.930 . S
C1177 C1172 1.407 . S
C1177 C1176 1.384 . S
C1177 H1199 0.929 . S
C1178 O1188 1.241 . S
C1178 O1189 1.273 . S
C1179 O1190 1.251 . S
C1179 O1191 1.268 . S
O1180 Nd1160 2.500 . S
O1180 C1162 1.258 . S
O1181 Nd1160 2.492 . S
O1181 C1162 1.239 . S
O1182 Nd1160 2.487 1_554 S
O1182 C1169 1.241 . S
O1183 Nd1160 2.682 1_554 S
O1183 Nd1161 2.414 . S
O1183 C1169 1.273 . S
O1184 Nd1160 2.410 . S
O1184 C1170 1.251 . S
O1185 Nd1161 2.424 1_556 S
O1185 C1170 1.268 . S
O1186 Nd1161 2.500 . S
O1186 C1171 1.258 . S
O1187 Nd1161 2.492 . S
O1187 C1171 1.239 . S
O1188 Nd1161 2.487 1_556 S
O1188 C1178 1.241 . S
O1189 Nd1160 2.414 . S
O1189 Nd1161 2.682 1_556 S
O1189 C1178 1.273 . S
O1190 Nd1161 2.410 . S
O1190 C1179 1.251 . S
O1191 Nd1160 2.424 1_554 S
O1191 C1179 1.268 . S
H1192 C1164 0.930 . S
H1193 C1165 0.929 . S
H1194 C1167 0.930 . S
H1195 C1168 0.929 . S
H1196 C1173 0.930 . S
H1197 C1174 0.929 . S
H1198 C1176 0.930 . S
H1199 C1177 0.929 . S
Nd1200 C1202 2.836 . S
Nd1200 O1220 2.500 . S
Nd1200 O1221 2.492 . S
Nd1200 O1222 2.487 . S
Nd1200 O1223 2.682 . S
Nd1200 O1224 2.410 . S
Nd1200 O1229 2.414 . S
Nd1200 O1231 2.424 . S
Nd1201 C1211 2.836 . S
Nd1201 O1223 2.414 1_565 S
Nd1201 O1225 2.424 . S
Nd1201 O1226 2.500 . S
Nd1201 O1227 2.492 . S
Nd1201 O1228 2.487 . S
Nd1201 O1229 2.682 1_565 S
Nd1201 O1230 2.410 1_565 S
C1202 Nd1200 2.836 . S
C1202 C1203 1.498 . S
C1202 O1220 1.258 . S
C1202 O1221 1.239 . S
C1203 C1202 1.498 . S
C1203 C1204 1.366 . S
C1203 C1208 1.407 . S
C1204 C1203 1.366 . S
C1204 C1205 1.392 . S
C1204 H1232 0.930 . S
C1205 C1204 1.392 . S
C1205 C1206 1.398 . S
C1205 H1233 0.929 . S
C1206 C1205 1.398 . S
C1206 C1207 1.352 . S
C1207 C1206 1.352 . S
C1207 C1208 1.384 . S
C1207 H1234 0.930 . S
C1208 C1203 1.407 . S
C1208 C1207 1.384 . S
C1208 H1235 0.929 . S
C1209 O1222 1.241 . S
C1209 O1223 1.273 . S
C1210 O1224 1.251 . S
C1210 O1225 1.268 1_545 S
C1211 Nd1201 2.836 . S
C1211 C1212 1.498 . S
C1211 O1226 1.258 . S
C1211 O1227 1.239 . S
C1212 C1211 1.498 . S
C1212 C1213 1.366 1_556 S
C1212 C1217 1.407 . S
C1213 C1212 1.366 1_554 S
C1213 C1214 1.392 . S
C1213 H1236 0.930 . S
C1214 C1213 1.392 . S
C1214 C1215 1.398 . S
C1214 H1237 0.929 . S
C1215 C1214 1.398 . S
C1215 C1216 1.352 . S
C1216 C1215 1.352 . S
C1216 C1217 1.384 1_554 S
C1216 H1238 0.930 . S
C1217 C1212 1.407 . S
C1217 C1216 1.384 1_556 S
C1217 H1239 0.929 . S
C1218 O1228 1.241 . S
C1218 O1229 1.273 1_565 S
C1219 O1230 1.251 . S
C1219 O1231 1.268 . S
O1220 Nd1200 2.500 . S
O1220 C1202 1.258 . S
O1221 Nd1200 2.492 . S
O1221 C1202 1.239 . S
O1222 Nd1200 2.487 . S
O1222 C1209 1.241 . S
O1223 Nd1200 2.682 . S
O1223 Nd1201 2.414 1_545 S
O1223 C1209 1.273 . S
O1224 Nd1200 2.410 . S
O1224 C1210 1.251 . S
O1225 Nd1201 2.424 . S
O1225 C1210 1.268 1_565 S
O1226 Nd1201 2.500 . S
O1226 C1211 1.258 . S
O1227 Nd1201 2.492 . S
O1227 C1211 1.239 . S
O1228 Nd1201 2.487 . S
O1228 C1218 1.241 . S
O1229 Nd1200 2.414 . S
O1229 Nd1201 2.682 1_545 S
O1229 C1218 1.273 1_545 S
O1230 Nd1201 2.410 1_545 S
O1230 C1219 1.251 . S
O1231 Nd1200 2.424 . S
O1231 C1219 1.268 . S
H1232 C1204 0.930 . S
H1233 C1205 0.929 . S
H1234 C1207 0.930 . S
H1235 C1208 0.929 . S
H1236 C1213 0.930 . S
H1237 C1214 0.929 . S
H1238 C1216 0.930 . S
H1239 C1217 0.929 . S
Nd1240 C1242 2.836 . S
Nd1240 O1260 2.500 . S
Nd1240 O1261 2.492 . S
Nd1240 O1262 2.487 . S
Nd1240 O1263 2.682 . S
Nd1240 O1264 2.410 . S
Nd1240 O1269 2.414 . S
Nd1240 O1271 2.424 . S
Nd1241 C1251 2.836 . S
Nd1241 O1263 2.414 . S
Nd1241 O1265 2.424 . S
Nd1241 O1266 2.500 . S
Nd1241 O1267 2.492 . S
Nd1241 O1268 2.487 . S
Nd1241 O1269 2.682 . S
Nd1241 O1270 2.410 . S
C1242 Nd1240 2.836 . S
C1242 C1243 1.498 . S
C1242 O1260 1.258 . S
C1242 O1261 1.239 . S
C1243 C1242 1.498 . S
C1243 C1244 1.366 . S
C1243 C1248 1.407 . S
C1244 C1243 1.366 . S
C1244 C1245 1.392 . S
C1244 H1272 0.930 . S
C1245 C1244 1.392 . S
C1245 C1246 1.398 . S
C1245 H1273 0.929 . S
C1246 C1245 1.398 . S
C1246 C1247 1.352 . S
C1247 C1246 1.352 . S
C1247 C1248 1.384 . S
C1247 H1274 0.930 . S
C1248 C1243 1.407 . S
C1248 C1247 1.384 . S
C1248 H1275 0.929 . S
C1249 O1262 1.241 . S
C1249 O1263 1.273 . S
C1250 O1264 1.251 . S
C1250 O1265 1.268 . S
C1251 Nd1241 2.836 . S
C1251 C1252 1.498 . S
C1251 O1266 1.258 . S
C1251 O1267 1.239 . S
C1252 C1251 1.498 . S
C1252 C1253 1.366 . S
C1252 C1257 1.407 . S
C1253 C1252 1.366 . S
C1253 C1254 1.392 . S
C1253 H1276 0.930 . S
C1254 C1253 1.392 . S
C1254 C1255 1.398 . S
C1254 H1277 0.929 . S
C1255 C1254 1.398 . S
C1255 C1256 1.352 . S
C1256 C1255 1.352 . S
C1256 C1257 1.384 . S
C1256 H1278 0.930 . S
C1257 C1252 1.407 . S
C1257 C1256 1.384 . S
C1257 H1279 0.929 . S
C1258 O1268 1.241 . S
C1258 O1269 1.273 . S
C1259 O1270 1.251 . S
C1259 O1271 1.268 . S
O1260 Nd1240 2.500 . S
O1260 C1242 1.258 . S
O1261 Nd1240 2.492 . S
O1261 C1242 1.239 . S
O1262 Nd1240 2.487 . S
O1262 C1249 1.241 . S
O1263 Nd1240 2.682 . S
O1263 Nd1241 2.414 . S
O1263 C1249 1.273 . S
O1264 Nd1240 2.410 . S
O1264 C1250 1.251 . S
O1265 Nd1241 2.424 . S
O1265 C1250 1.268 . S
O1266 Nd1241 2.500 . S
O1266 C1251 1.258 . S
O1267 Nd1241 2.492 . S
O1267 C1251 1.239 . S
O1268 Nd1241 2.487 . S
O1268 C1258 1.241 . S
O1269 Nd1240 2.414 . S
O1269 Nd1241 2.682 . S
O1269 C1258 1.273 . S
O1270 Nd1241 2.410 . S
O1270 C1259 1.251 . S
O1271 Nd1240 2.424 . S
O1271 C1259 1.268 . S
H1272 C1244 0.930 . S
H1273 C1245 0.929 . S
H1274 C1247 0.930 . S
H1275 C1248 0.929 . S
H1276 C1253 0.930 . S
H1277 C1254 0.929 . S
H1278 C1256 0.930 . S
H1279 C1257 0.929 . S
C19 C166 1.479 . S
C206 C59 1.465 . S
C99 C246 1.472 . S
C286 C139 1.481 . S
C330 C495 1.481 . S
C370 C535 1.478 . S
C575 C410 1.465 . S
C450 C615 1.471 . S
C806 C659 1.472 . S
C699 C846 1.480 . S
C739 C886 1.479 . S
C779 C926 1.465 . S
C970 C1135 1.466 . S
C1175 C1010 1.471 . S
C1050 C1215 1.482 . S
C1255 C1090 1.478 . S
C858 C9 4.198 . S
C898 C49 4.202 . S
C938 C89 4.152 . S
C129 C818 4.213 . S
C178 C769 4.203 . S
C649 C218 4.152 . S
C258 C689 4.213 . S
C298 C729 4.198 . S
C338 C1169 4.212 . S
C1209 C378 4.196 . S
C1249 C418 4.206 . S
C458 C1129 4.152 . S
C489 C1098 4.197 . S
C529 C978 4.206 . S
C569 C1018 4.152 . S
C609 C1058 4.212 . S
C329 C18 4.076 1_455 S
C58 C1009 4.078 . S
C409 C98 4.078 . S
C138 C1089 4.076 . S
C498 C169 4.593 1_655 S
C1178 C209 4.574 . S
C249 C578 4.574 . S
C289 C1258 4.594 . S
C698 C369 4.076 . S
C778 C449 4.078 . S
C538 C849 4.594 . S
C929 C618 4.574 . S
C969 C658 4.078 1_545 S
C1049 C738 4.076 1_665 S
C1138 C809 4.574 1_545 S
C889 C1218 4.593 1_645 S
C10 C499 3.387 1_455 S
C1179 C50 3.394 . S
C579 C90 3.374 . S
C130 C1259 3.391 . S
C326 C175 0.835 . S
C1006 C215 0.834 . S
C406 C255 0.842 . S
C1086 C295 0.835 . S
C170 C339 3.391 1_455 S
C850 C379 3.387 . S
C250 C419 3.395 . S
C459 C930 3.374 . S
C15 C486 0.837 . S
C695 C526 0.834 . S
C566 C95 0.834 . S
C606 C775 0.841 . S
C1139 C650 3.374 . S
C539 C690 3.391 . S
C730 C1219 3.387 1_655 S
C619 C770 3.394 . S
C815 C966 0.842 . S
C855 C366 0.835 . S
C1046 C895 0.835 . S
C446 C935 0.834 . S
C979 C810 3.395 . S
C1019 C210 3.374 . S
C1059 C890 3.391 1_455 S
C1099 C290 3.387 . S
C655 C1126 0.834 . S
C55 C1166 0.841 . S
C1206 C735 0.837 . S
C135 C1246 0.834 . S
C179 C6 2.675 . S
C219 C46 2.662 . S
C86 C259 2.641 . S
C299 C126 2.676 . S
C490 C335 2.677 . S
C375 C530 2.675 . S
C415 C570 2.662 . S
C610 C455 2.640 . S
C646 C819 2.641 1_565 S
C859 C686 2.676 . S
C726 C899 2.675 1_545 S
C766 C939 2.662 . S
C1130 C975 2.662 1_565 S
C1170 C1015 2.640 . S
C1055 C1210 2.677 1_565 S
C1250 C1095 2.675 . S
