# Generated by pormake.
# Topology wjf, (4)-cn, num edge types: 1
# Building blocks:
#     Node 0, Type 0, BuildingBlock: QUQFOY_clean_sbu_1, # of connection points: 4
#     Node 1, Type 0, BuildingBlock: QUQFOY_clean_sbu_1, # of connection points: 4
#     Node 2, Type 0, BuildingBlock: QUQFOY_clean_sbu_1, # of connection points: 4
#     Node 3, Type 0, BuildingBlock: QUQFOY_clean_sbu_1, # of connection points: 4
#     Node 4, Type 0, BuildingBlock: QUQFOY_clean_sbu_1, # of connection points: 4
#     Node 5, Type 0, BuildingBlock: QUQFOY_clean_sbu_1, # of connection points: 4
#     Node 6, Type 0, BuildingBlock: QUQFOY_clean_sbu_1, # of connection points: 4
#     Node 7, Type 0, BuildingBlock: QUQFOY_clean_sbu_1, # of connection points: 4
#     Node 8, Type 0, BuildingBlock: QUQFOY_clean_sbu_1, # of connection points: 4
#     Node 9, Type 0, BuildingBlock: QUQFOY_clean_sbu_1, # of connection points: 4
#     Node 10, Type 0, BuildingBlock: QUQFOY_clean_sbu_1, # of connection points: 4
#     Node 11, Type 0, BuildingBlock: QUQFOY_clean_sbu_1, # of connection points: 4
#     Edge 12, Type (0, 0), BuildingBlock: UVAHIK_clean_linker_0, # of connection points: 2
#     Edge 13, Type (0, 0), BuildingBlock: UVAHIK_clean_linker_0, # of connection points: 2
#     Edge 14, Type (0, 0), BuildingBlock: UVAHIK_clean_linker_0, # of connection points: 2
#     Edge 15, Type (0, 0), BuildingBlock: UVAHIK_clean_linker_0, # of connection points: 2
#     Edge 16, Type (0, 0), BuildingBlock: UVAHIK_clean_linker_0, # of connection points: 2
#     Edge 17, Type (0, 0), BuildingBlock: UVAHIK_clean_linker_0, # of connection points: 2
#     Edge 18, Type (0, 0), BuildingBlock: UVAHIK_clean_linker_0, # of connection points: 2
#     Edge 19, Type (0, 0), BuildingBlock: UVAHIK_clean_linker_0, # of connection points: 2
#     Edge 20, Type (0, 0), BuildingBlock: UVAHIK_clean_linker_0, # of connection points: 2
#     Edge 21, Type (0, 0), BuildingBlock: UVAHIK_clean_linker_0, # of connection points: 2
#     Edge 22, Type (0, 0), BuildingBlock: UVAHIK_clean_linker_0, # of connection points: 2
#     Edge 23, Type (0, 0), BuildingBlock: UVAHIK_clean_linker_0, # of connection points: 2
#     Edge 24, Type (0, 0), BuildingBlock: UVAHIK_clean_linker_0, # of connection points: 2
#     Edge 25, Type (0, 0), BuildingBlock: UVAHIK_clean_linker_0, # of connection points: 2
#     Edge 26, Type (0, 0), BuildingBlock: UVAHIK_clean_linker_0, # of connection points: 2
#     Edge 27, Type (0, 0), BuildingBlock: UVAHIK_clean_linker_0, # of connection points: 2
#     Edge 28, Type (0, 0), BuildingBlock: UVAHIK_clean_linker_0, # of connection points: 2
#     Edge 29, Type (0, 0), BuildingBlock: UVAHIK_clean_linker_0, # of connection points: 2
#     Edge 30, Type (0, 0), BuildingBlock: UVAHIK_clean_linker_0, # of connection points: 2
#     Edge 31, Type (0, 0), BuildingBlock: UVAHIK_clean_linker_0, # of connection points: 2
#     Edge 32, Type (0, 0), BuildingBlock: UVAHIK_clean_linker_0, # of connection points: 2
#     Edge 33, Type (0, 0), BuildingBlock: UVAHIK_clean_linker_0, # of connection points: 2
#     Edge 34, Type (0, 0), BuildingBlock: UVAHIK_clean_linker_0, # of connection points: 2
#     Edge 35, Type (0, 0), BuildingBlock: UVAHIK_clean_linker_0, # of connection points: 2
# Relax obj value: 0.020
# Max RMSD: 0.067
# Mean RMSD: 0.067
data_MOF--net-wjf--node1-QUQFOY_clean_sbu_1--edge1-UVAHIK_clean_linker_0
_symmetry_space_group_name_H-M    P1
_symmetry_Int_Tables_number       1
_symmetry_cell_setting            triclinic
loop_
_symmetry_equiv_pos_as_xyz
'x, y, z'
_cell_length_a     68.77031
_cell_length_b     68.773502
_cell_length_c     37.226675
_cell_angle_alpha  89.982198
_cell_angle_beta   90.030036
_cell_angle_gamma 120.00382
loop_
_atom_site_label
_atom_site_type_symbol
_atom_site_fract_x
_atom_site_fract_y
_atom_site_fract_z
_atom_type_partial_charge
O0 O 0.32966 0.37996 0.01627 0.0
Cd1 Cd 0.33597 0.40356 0.05561 0.0
Cd2 Cd 0.34629 0.37323 0.09144 0.0
O3 O 0.33497 0.35476 0.04472 0.0
O4 O 0.32591 0.4227 0.03062 0.0
O5 O 0.30868 0.40239 0.07841 0.0
C6 C 0.3094 0.41543 0.05282 0.0
C7 C 0.335 0.35711 0.1484 0.0
C8 C 0.32951 0.36142 0.01666 0.0
C9 C 0.38359 0.42115 0.08158 0.0
O10 O 0.37781 0.40104 0.0898 0.0
O11 O 0.36915 0.42601 0.06981 0.0
O12 O 0.3484 0.35358 0.12885 0.0
O13 O 0.32704 0.36901 0.1348 0.0
O14 O 0.95403 0.32901 0.35565 0.0
Cd15 Cd 0.93748 0.33673 0.39432 0.0
Cd16 Cd 0.9788 0.34641 0.42863 0.0
O17 O 0.98447 0.33314 0.38269 0.0
O18 O 0.90915 0.32775 0.36726 0.0
O19 O 0.90991 0.31054 0.41676 0.0
C20 C 0.89868 0.31157 0.38972 0.0
C21 C 0.98371 0.33613 0.48641 0.0
C22 C 0.97185 0.32778 0.35521 0.0
C23 C 0.96949 0.38459 0.41678 0.0
O24 O 0.98353 0.37832 0.42446 0.0
O25 O 0.9496 0.37036 0.40693 0.0
O26 O 1.00062 0.34869 0.46614 0.0
O27 O 0.9638 0.32846 0.47315 0.0
O28 O 0.62475 0.94981 0.68396 0.0
Cd29 Cd 0.59973 0.93139 0.72077 0.0
Cd30 Cd 0.63006 0.9725 0.75997 0.0
O31 O 0.64898 0.98028 0.71362 0.0
O32 O 0.58161 0.90368 0.6916 0.0
O33 O 0.59879 0.90366 0.74161 0.0
C34 C 0.58722 0.89295 0.71372 0.0
C35 C 0.64672 0.97977 0.81705 0.0
C36 C 0.64305 0.96841 0.68527 0.0
C37 C 0.58173 0.96102 0.74745 0.0
O38 O 0.60158 0.97504 0.75744 0.0
O39 O 0.57715 0.9421 0.73421 0.0
O40 O 0.64922 0.99576 0.79605 0.0
O41 O 0.63549 0.95946 0.80499 0.0
O42 O 0.67159 0.61945 0.01131 0.0
Cd43 Cd 0.66661 0.5986 0.0543 0.0
Cd44 Cd 0.65963 0.63092 0.0855 0.0
O45 O 0.67291 0.64861 0.03837 0.0
O46 O 0.67656 0.57836 0.03325 0.0
O47 O 0.69466 0.60188 0.07756 0.0
C48 C 0.69371 0.58749 0.0543 0.0
C49 C 0.67161 0.64651 0.1426 0.0
C50 C 0.67502 0.63939 0.01017 0.0
C51 C 0.6201 0.58402 0.07967 0.0
O52 O 0.62692 0.60481 0.08369 0.0
O53 O 0.63387 0.57749 0.07136 0.0
O54 O 0.65963 0.65183 0.12264 0.0
O55 O 0.6779 0.63318 0.12922 0.0
O56 O 0.05195 0.67574 0.35469 0.0
Cd57 Cd 0.0708 0.66891 0.39029 0.0
Cd58 Cd 0.03005 0.65765 0.43096 0.0
O59 O 0.02152 0.66865 0.38529 0.0
O60 O 0.09822 0.67891 0.36015 0.0
O61 O 0.09875 0.69541 0.41122 0.0
C62 C 0.10919 0.69492 0.3827 0.0
C63 C 0.02291 0.66691 0.48818 0.0
C64 C 0.03318 0.67505 0.35676 0.0
C65 C 0.04156 0.62102 0.41633 0.0
O66 O 0.02771 0.62674 0.42763 0.0
O67 O 0.06023 0.63547 0.40252 0.0
O68 O 0.0069 0.65317 0.46744 0.0
O69 O 0.04318 0.67618 0.47588 0.0
O70 O 0.38608 0.0535 0.6841 0.0
Cd71 Cd 0.40691 0.06959 0.72693 0.0
Cd72 Cd 0.37358 0.02988 0.75739 0.0
O73 O 0.35599 0.02631 0.7102 0.0
O74 O 0.42739 0.09906 0.70371 0.0
O75 O 0.40523 0.09565 0.74902 0.0
C76 C 0.41925 0.10814 0.72456 0.0
C77 C 0.35796 0.02514 0.81486 0.0
C78 C 0.36593 0.03746 0.68219 0.0
C79 C 0.42058 0.03692 0.7512 0.0
O80 O 0.39967 0.02316 0.75455 0.0
O81 O 0.42755 0.05748 0.74402 0.0
O82 O 0.35264 0.00825 0.79394 0.0
O83 O 0.37126 0.04501 0.80227 0.0
O84 O 0.62738 0.67466 0.65072 0.0
Cd85 Cd 0.60284 0.66681 0.6125 0.0
Cd86 Cd 0.63417 0.65634 0.57779 0.0
O87 O 0.65313 0.66961 0.62374 0.0
O88 O 0.58387 0.67615 0.63983 0.0
O89 O 0.60128 0.69281 0.58969 0.0
C90 C 0.58933 0.69208 0.61696 0.0
C91 C 0.65011 0.66561 0.52032 0.0
C92 C 0.64624 0.67546 0.65109 0.0
C93 C 0.58639 0.6187 0.59054 0.0
O94 O 0.60656 0.62471 0.58225 0.0
O95 O 0.58106 0.63312 0.60068 0.0
O96 O 0.65375 0.653 0.54166 0.0
O97 O 0.63808 0.67385 0.53223 0.0
O98 O 0.95139 0.62271 0.9957 0.0
Cd99 Cd 0.93452 0.59996 0.9551 0.0
Cd100 Cd 0.97522 0.63045 0.92107 0.0
O101 O 0.98199 0.64848 0.96819 0.0
O102 O 0.90485 0.58072 0.97857 0.0
O103 O 0.90911 0.60218 0.93175 0.0
C104 C 0.89624 0.58876 0.95652 0.0
C105 C 0.97986 0.6468 0.8644 0.0
C106 C 0.9697 0.64133 0.99601 0.0
C107 C 0.96459 0.5825 0.92926 0.0
O108 O 0.97909 0.60274 0.92216 0.0
O109 O 0.94509 0.57749 0.94028 0.0
O110 O 0.99687 0.65044 0.8839 0.0
O111 O 0.96004 0.63469 0.87795 0.0
O112 O 0.33327 0.95052 0.32344 0.0
Cd113 Cd 0.33822 0.93429 0.28107 0.0
Cd114 Cd 0.34525 0.97457 0.25016 0.0
O115 O 0.33112 0.97812 0.29721 0.0
O116 O 0.32933 0.90503 0.30502 0.0
O117 O 0.31058 0.90792 0.25922 0.0
C118 C 0.31214 0.89568 0.28411 0.0
C119 C 0.33537 0.98091 0.19282 0.0
C120 C 0.32949 0.96678 0.3252 0.0
C121 C 0.3848 0.96683 0.25732 0.0
O122 O 0.37785 0.98073 0.25355 0.0
O123 O 0.37106 0.94632 0.26454 0.0
O124 O 0.34692 0.99722 0.21474 0.0
O125 O 0.32826 0.9607 0.20425 0.0
O126 O 0.3776 0.32736 0.65815 0.0
Cd127 Cd 0.40315 0.33448 0.62216 0.0
Cd128 Cd 0.37338 0.3456 0.58236 0.0
O129 O 0.35392 0.33421 0.62804 0.0
O130 O 0.42086 0.32457 0.65179 0.0
O131 O 0.40471 0.30815 0.60076 0.0
C132 C 0.41581 0.30865 0.62907 0.0
C133 C 0.35714 0.33631 0.52503 0.0
C134 C 0.3594 0.32783 0.65639 0.0
C135 C 0.42141 0.38243 0.59678 0.0
O136 O 0.40173 0.37666 0.5859 0.0
O137 O 0.42583 0.36799 0.61005 0.0
O138 O 0.35454 0.34981 0.54583 0.0
O139 O 0.36834 0.32726 0.53734 0.0
O140 O 0.05406 0.38357 0.9957 0.0
Cd141 Cd 0.07002 0.40488 0.95323 0.0
Cd142 Cd 0.03032 0.37242 0.92115 0.0
O143 O 0.02604 0.35474 0.96827 0.0
O144 O 0.10008 0.42523 0.97479 0.0
O145 O 0.09514 0.40219 0.92999 0.0
C146 C 0.10839 0.41651 0.95351 0.0
C147 C 0.02484 0.35601 0.86425 0.0
C148 C 0.03743 0.36369 0.99653 0.0
C149 C 0.038 0.41949 0.92796 0.0
O150 O 0.02407 0.39876 0.92331 0.0
O151 O 0.05824 0.42595 0.93665 0.0
O152 O 0.00821 0.3513 0.88541 0.0
O153 O 0.04488 0.36925 0.87622 0.0
O154 O 0.67607 0.05285 0.32692 0.0
Cd155 Cd 0.66939 0.07126 0.29014 0.0
Cd156 Cd 0.65871 0.03071 0.25088 0.0
O157 O 0.66969 0.02244 0.29695 0.0
O158 O 0.67966 0.09932 0.31869 0.0
O159 O 0.69603 0.09857 0.26819 0.0
C160 C 0.69568 0.10967 0.29593 0.0
C161 C 0.66903 0.02519 0.19345 0.0
C162 C 0.67569 0.03422 0.3254 0.0
C163 C 0.62171 0.04182 0.2637 0.0
O164 O 0.62757 0.02789 0.25338 0.0
O165 O 0.63605 0.06067 0.27715 0.0
O166 O 0.65535 0.00854 0.21325 0.0
O167 O 0.67777 0.04513 0.20698 0.0
C168 C 0.31879 0.35593 0.20941 0.0
C169 C 0.33057 0.34932 0.18625 0.0
C170 C 0.31726 0.35101 0.24617 0.0
C171 C 0.32596 0.31644 0.31462 0.0
H172 H 0.33904 0.36644 0.37749 0.0
C173 C 0.35554 0.32207 0.46225 0.0
C174 C 0.34884 0.33277 0.48746 0.0
C175 C 0.34986 0.32126 0.4259 0.0
C176 C 0.33496 0.35213 0.36049 0.0
H177 H 0.34902 0.33138 0.1833 0.0
H178 H 0.34648 0.32298 0.24717 0.0
H179 H 0.33469 0.3698 0.31341 0.0
H180 H 0.32984 0.34991 0.49457 0.0
H181 H 0.31961 0.34812 0.43159 0.0
H182 H 0.32669 0.29895 0.36182 0.0
C183 C 0.33828 0.33182 0.23705 0.0
C184 C 0.33244 0.35406 0.32363 0.0
C185 C 0.33984 0.33676 0.20037 0.0
C186 C 0.33547 0.34171 0.47582 0.0
C187 C 0.32971 0.34082 0.43961 0.0
C188 C 0.32846 0.31449 0.35157 0.0
C189 C 0.32743 0.33933 0.26057 0.0
C190 C 0.32816 0.33636 0.30013 0.0
C191 C 0.33728 0.33108 0.41401 0.0
C192 C 0.33322 0.33241 0.37495 0.0
H193 H 0.3114 0.36556 0.1994 0.0
H194 H 0.30847 0.35674 0.26344 0.0
H195 H 0.32239 0.30237 0.29735 0.0
H196 H 0.3659 0.31506 0.47032 0.0
H197 H 0.35613 0.31377 0.40693 0.0
C198 C 0.96887 0.32007 0.54762 0.0
C199 C 0.9872 0.33217 0.52447 0.0
C200 C 0.97232 0.31858 0.58438 0.0
C201 C 0.01612 0.32828 0.65266 0.0
H202 H 0.97718 0.33776 0.71663 0.0
C203 C 0.03833 0.35625 0.80136 0.0
C204 C 0.02072 0.34801 0.82649 0.0
C205 C 0.03384 0.35099 0.76482 0.0
C206 C 0.98802 0.33472 0.69927 0.0
H207 H 0.02357 0.35149 0.52168 0.0
H208 H 0.02953 0.34915 0.58555 0.0
H209 H 0.9698 0.33426 0.65243 0.0
H210 H 0.98472 0.32676 0.83312 0.0
H211 H 0.97699 0.31739 0.76971 0.0
H212 H 0.03465 0.32931 0.69968 0.0
C213 C 0.01248 0.34055 0.5754 0.0
C214 C 0.98375 0.33268 0.66234 0.0
C215 C 0.00905 0.34201 0.5387 0.0
C216 C 0.99868 0.33355 0.81449 0.0
C217 C 0.99421 0.32828 0.77805 0.0
C218 C 0.02042 0.33037 0.68967 0.0
C219 C 0.99416 0.32919 0.59888 0.0
C220 C 0.99786 0.32965 0.63846 0.0
C221 C 0.01165 0.33737 0.7526 0.0
C222 C 0.00652 0.33381 0.71342 0.0
H223 H 0.95183 0.31222 0.53754 0.0
H224 H 0.95781 0.30937 0.60155 0.0
H225 H 0.02717 0.32565 0.63515 0.0
H226 H 0.05549 0.36747 0.80968 0.0
H227 H 0.04768 0.35841 0.74597 0.0
C228 C 0.66846 0.00706 0.86597 0.0
C229 C 0.65501 0.9847 0.85461 0.0
C230 C 0.67409 0.01211 0.9022 0.0
C231 C 0.67461 0.98732 0.99102 0.0
H232 H 0.66918 0.03717 0.02766 0.0
C233 C 0.66325 0.9995 0.14177 0.0
C234 C 0.67304 0.02145 0.15555 0.0
C235 C 0.66463 0.99581 0.10516 0.0
C236 C 0.67118 0.02345 0.01787 0.0
H237 H 0.63767 0.95003 0.87231 0.0
H238 H 0.64721 0.95883 0.93567 0.0
H239 H 0.66498 0.02909 0.96368 0.0
H240 H 0.6928 0.05673 0.1418 0.0
H241 H 0.69537 0.05029 0.07786 0.0
H242 H 0.68027 0.98142 0.04558 0.0
C243 C 0.65366 0.97249 0.9165 0.0
C244 C 0.66876 0.01878 0.98107 0.0
C245 C 0.64811 0.96743 0.88014 0.0
C246 C 0.68503 0.03962 0.13207 0.0
C247 C 0.68636 0.03592 0.09537 0.0
C248 C 0.677 0.99198 0.02792 0.0
C249 C 0.66631 0.99494 0.9281 0.0
C250 C 0.67024 1.00054 0.96714 0.0
C251 C 0.67579 0.01396 0.08134 0.0
C252 C 0.67508 0.00997 0.04185 0.0
H253 H 0.67423 0.02079 0.84698 0.0
H254 H 0.68427 0.02955 0.90998 0.0
H255 H 0.67618 0.97334 0.98123 0.0
H256 H 0.65389 0.9851 0.15908 0.0
H257 H 0.65611 0.97869 0.09532 0.0
C258 C 0.66779 0.6672 0.19502 0.0
C259 C 0.67614 0.6539 0.18065 0.0
C260 C 0.66928 0.67175 0.23184 0.0
C261 C 0.67351 0.6478 0.3181 0.0
H262 H 0.6809 0.70331 0.35747 0.0
C263 C 0.67131 0.65986 0.47069 0.0
C264 C 0.65817 0.66901 0.48261 0.0
C265 C 0.67686 0.6607 0.43439 0.0
C266 C 0.67869 0.68767 0.34688 0.0
H267 H 0.69364 0.6359 0.19356 0.0
H268 H 0.69657 0.64414 0.25779 0.0
H269 H 0.68527 0.70024 0.29294 0.0
H270 H 0.64132 0.68701 0.46581 0.0
H271 H 0.65088 0.68833 0.40232 0.0
H272 H 0.66656 0.63507 0.37178 0.0
C273 C 0.68847 0.65071 0.24064 0.0
C274 C 0.6812 0.6859 0.30988 0.0
C275 C 0.68696 0.64613 0.20375 0.0
C276 C 0.65149 0.67984 0.45755 0.0
C277 C 0.65705 0.68066 0.42114 0.0
C278 C 0.67105 0.64958 0.35503 0.0
C279 C 0.67919 0.66315 0.25528 0.0
C280 C 0.6784 0.66584 0.29495 0.0
C281 C 0.6694 0.67066 0.409 0.0
C282 C 0.67338 0.66945 0.36989 0.0
H283 H 0.65934 0.67346 0.17803 0.0
H284 H 0.66175 0.6812 0.2421 0.0
H285 H 0.67079 0.63195 0.30759 0.0
H286 H 0.67688 0.65153 0.48927 0.0
H287 H 0.68676 0.65322 0.42612 0.0
C288 C 0.00494 0.66745 0.81251 0.0
C289 C 0.98314 0.65467 0.82661 0.0
C290 C 0.00827 0.67237 0.77583 0.0
C291 C 0.98031 0.64959 0.68936 0.0
H292 H 0.02926 0.70484 0.65079 0.0
C293 C 0.99571 0.66137 0.53717 0.0
C294 C 0.01806 0.67051 0.52563 0.0
C295 C 0.99077 0.66236 0.5733 0.0
C296 C 0.0156 0.68926 0.66115 0.0
H297 H 0.9477 0.63803 0.81341 0.0
H298 H 0.95351 0.64681 0.74936 0.0
H299 H 0.0215 0.70161 0.71524 0.0
H300 H 0.05282 0.68865 0.54286 0.0
H301 H 0.04421 0.69011 0.60612 0.0
H302 H 0.97469 0.63698 0.63566 0.0
C303 C 0.96805 0.65273 0.76666 0.0
C304 C 0.01112 0.68742 0.69809 0.0
C305 C 0.96471 0.64784 0.80342 0.0
C306 C 0.03542 0.68149 0.55086 0.0
C307 C 0.03047 0.6824 0.58713 0.0
C308 C 0.98478 0.65141 0.65253 0.0
C309 C 0.98988 0.66461 0.75227 0.0
C310 C 0.99356 0.66746 0.71271 0.0
C311 C 0.00805 0.67239 0.59893 0.0
C312 C 1.00262 0.67118 0.63794 0.0
H313 H 0.01953 0.67301 0.8296 0.0
H314 H 0.02531 0.68137 0.76571 0.0
H315 H 0.96694 0.63381 0.6997 0.0
H316 H 0.98191 0.65296 0.5184 0.0
H317 H 0.97334 0.6549 0.58125 0.0
C318 C 0.32246 0.96815 0.12946 0.0
C319 C 0.33219 0.98555 0.15493 0.0
C320 C 0.3221 0.97299 0.09294 0.0
C321 C 0.35301 0.01889 0.02791 0.0
H322 H 0.30394 0.98163 0.96365 0.0
C323 C 0.35779 0.03974 0.87678 0.0
C324 C 0.35056 0.02155 0.85298 0.0
C325 C 0.35303 0.03607 0.91358 0.0
C326 C 0.31787 0.99214 0.98117 0.0
H327 H 0.3482 0.02163 0.16208 0.0
H328 H 0.34735 0.02999 0.09873 0.0
H329 H 0.30008 0.9736 0.028 0.0
H330 H 0.33189 0.9852 0.84915 0.0
H331 H 0.32387 0.97882 0.91304 0.0
H332 H 0.37104 0.03711 0.98125 0.0
C333 C 0.34035 0.01263 0.1068 0.0
C334 C 0.31564 0.98752 0.0181 0.0
C335 C 0.34069 0.0078 0.14322 0.0
C336 C 0.3377 0.99964 0.86665 0.0
C337 C 0.33299 0.99597 0.90339 0.0
C338 C 0.35527 0.02346 0.99105 0.0
C339 C 0.33151 0.99535 0.08106 0.0
C340 C 0.33325 1.00075 0.04193 0.0
C341 C 0.34096 0.01411 0.9275 0.0
C342 C 0.33781 0.01005 0.96708 0.0
H343 H 0.31581 0.95083 0.13752 0.0
H344 H 0.31529 0.95926 0.07387 0.0
H345 H 0.36709 0.02921 0.04531 0.0
H346 H 0.36767 0.05684 0.86717 0.0
H347 H 0.35911 0.05048 0.9312 0.0
C348 C 0.13957 0.40844 0.94081 0.0
C349 C 0.13166 0.42104 0.95898 0.0
C350 C 0.1602 0.41037 0.95021 0.0
C351 C 0.20923 0.4247 0.96567 0.0
H352 H 0.2214 0.42675 0.06781 0.0
C353 C 0.2924 0.43444 0.01826 0.0
C354 C 0.29087 0.42017 0.04654 0.0
C355 C 0.27392 0.43657 0.00861 0.0
C356 C 0.21822 0.42611 0.03922 0.0
H357 H 0.1398 0.44642 0.99995 0.0
H358 H 0.17578 0.44998 0.01587 0.0
H359 H 0.18764 0.42657 0.04717 0.0
H360 H 0.26894 0.39767 0.08783 0.0
H361 H 0.2366 0.40137 0.07094 0.0
H362 H 0.23951 0.42365 0.95774 0.0
C363 C 0.16588 0.43828 0.9949 0.0
C364 C 0.199 0.42626 0.02733 0.0
C365 C 0.14531 0.43636 0.98551 0.0
C366 C 0.27071 0.40887 0.06601 0.0
C367 C 0.25217 0.41101 0.05633 0.0
C368 C 0.2285 0.42462 0.97755 0.0
C369 C 0.17334 0.42493 0.97798 0.0
C370 C 0.19421 0.42548 0.99041 0.0
C371 C 0.25341 0.4245 0.02696 0.0
C372 C 0.2332 0.42525 0.01448 0.0
H373 H 0.12943 0.39641 0.92037 0.0
H374 H 0.16538 0.39975 0.93674 0.0
H375 H 0.20615 0.42423 0.93706 0.0
H376 H 0.30771 0.44351 1.00279 0.0
H377 H 0.27561 0.44746 0.98636 0.0
C378 C 0.86262 0.27703 0.40779 0.0
C379 C 0.87537 0.29353 0.38209 0.0
C380 C 0.84165 0.25868 0.39861 0.0
C381 C 0.81256 0.22296 0.32338 0.0
H382 H 0.75703 0.20547 0.37407 0.0
C383 C 0.72957 0.14592 0.27694 0.0
C384 C 0.71413 0.13276 0.30358 0.0
C385 C 0.74807 0.1669 0.28554 0.0
C386 C 0.7724 0.20982 0.35987 0.0
H387 H 0.87584 0.30393 0.32685 0.0
H388 H 0.83966 0.2717 0.31083 0.0
H389 H 0.79152 0.23899 0.39282 0.0
H390 H 0.70589 0.13136 0.3601 0.0
H391 H 0.73837 0.16707 0.37539 0.0
H392 H 0.79413 0.19346 0.29157 0.0
C393 C 0.84579 0.27309 0.33807 0.0
C394 C 0.79212 0.22914 0.37059 0.0
C395 C 0.86645 0.2916 0.34739 0.0
C396 C 0.71735 0.14118 0.3388 0.0
C397 C 0.73603 0.16186 0.34755 0.0
C398 C 0.793 0.20339 0.31315 0.0
C399 C 0.83334 0.25632 0.36341 0.0
C400 C 0.81235 0.23589 0.35238 0.0
C401 C 0.75185 0.17499 0.32117 0.0
C402 C 0.77257 0.19646 0.33122 0.0
H403 H 0.86906 0.27802 0.4347 0.0
H404 H 0.83233 0.24589 0.41858 0.0
H405 H 0.82804 0.22774 0.3091 0.0
H406 H 0.72749 0.13993 0.24952 0.0
H407 H 0.75948 0.17664 0.26418 0.0
C408 C 0.58558 0.85667 0.73056 0.0
C409 C 0.58244 0.86993 0.70504 0.0
C410 C 0.5832 0.8359 0.7207 0.0
C411 C 0.59138 0.80806 0.64506 0.0
H412 H 0.55231 0.75182 0.69329 0.0
C413 C 0.58669 0.7258 0.59773 0.0
C414 C 0.58405 0.71013 0.62424 0.0
C415 C 0.58383 0.74408 0.60623 0.0
C416 C 0.56361 0.76739 0.67978 0.0
H417 H 0.57397 0.87157 0.64935 0.0
H418 H 0.57046 0.83574 0.63217 0.0
H419 H 0.55296 0.78606 0.71258 0.0
H420 H 0.5761 0.70125 0.68037 0.0
H421 H 0.57218 0.73332 0.69551 0.0
H422 H 0.60303 0.79005 0.61347 0.0
C423 C 0.57451 0.8413 0.65978 0.0
C424 C 0.56383 0.78697 0.69081 0.0
C425 C 0.57641 0.86176 0.66975 0.0
C426 C 0.57803 0.71288 0.65915 0.0
C427 C 0.57564 0.73133 0.66782 0.0
C428 C 0.59156 0.78863 0.63454 0.0
C429 C 0.57813 0.8283 0.68502 0.0
C430 C 0.57771 0.80746 0.67352 0.0
C431 C 0.57874 0.7474 0.64164 0.0
C432 C 0.57771 0.76795 0.65176 0.0
H433 H 0.59027 0.86251 0.75792 0.0
H434 H 0.58614 0.82616 0.74061 0.0
H435 H 0.60237 0.82373 0.63149 0.0
H436 H 0.59124 0.72409 0.57054 0.0
H437 H 0.58585 0.7557 0.58501 0.0
C438 C 0.71145 0.56853 0.02168 0.0
C439 C 0.71271 0.58337 0.04877 0.0
C440 C 0.73033 0.56706 0.01225 0.0
C441 C 0.77594 0.58023 0.9805 0.0
H442 H 0.81791 0.58071 0.05046 0.0
C443 C 0.86502 0.59675 0.94348 0.0
C444 C 0.87309 0.58448 0.96226 0.0
C445 C 0.84448 0.59499 0.95292 0.0
C446 C 0.80626 0.58037 0.03055 0.0
H447 H 0.73463 0.60759 0.0883 0.0
H448 H 0.76765 0.60494 0.07193 0.0
H449 H 0.78391 0.58013 0.07088 0.0
H450 H 0.86532 0.55986 1.00443 0.0
H451 H 0.8295 0.5566 0.02043 0.0
H452 H 0.79824 0.5804 0.94016 0.0
C453 C 0.75198 0.59441 0.05802 0.0
C454 C 0.78689 0.58028 0.04229 0.0
C455 C 0.73306 0.59593 0.06741 0.0
C456 C 0.85969 0.56967 0.98953 0.0
C457 C 0.83922 0.56793 0.99894 0.0
C458 C 0.79536 0.58044 0.96875 0.0
C459 C 0.75096 0.58035 0.02972 0.0
C460 C 0.77147 0.58017 0.01741 0.0
C461 C 0.83159 0.58094 0.98135 0.0
C462 C 0.81075 0.58047 0.99363 0.0
H463 H 0.69603 0.55853 0.00683 0.0
H464 H 0.72885 0.55574 0.99083 0.0
H465 H 0.76456 0.58046 0.9606 0.0
H466 H 0.87498 0.60839 0.92248 0.0
H467 H 0.83914 0.60534 0.93892 0.0
C468 C 0.13969 0.71652 0.33826 0.0
C469 C 0.13219 0.71318 0.37404 0.0
C470 C 0.16034 0.73499 0.32876 0.0
C471 C 0.2039 0.79126 0.36304 0.0
H472 H 0.23674 0.78937 0.27966 0.0
C473 C 0.29258 0.86273 0.32519 0.0
C474 C 0.29372 0.87252 0.29148 0.0
C475 C 0.27384 0.84229 0.33472 0.0
C476 C 0.22767 0.79008 0.30293 0.0
H477 H 0.14093 0.7261 0.42822 0.0
H478 H 0.1776 0.75769 0.41215 0.0
H479 H 0.20312 0.75525 0.29925 0.0
H480 H 0.27649 0.86797 0.24074 0.0
H481 H 0.24393 0.83159 0.25708 0.0
H482 H 0.2292 0.826 0.36726 0.0
C483 C 0.16716 0.74657 0.391 0.0
C484 C 0.20828 0.77059 0.31414 0.0
C485 C 0.14621 0.7283 0.40039 0.0
C486 C 0.27612 0.86084 0.26685 0.0
C487 C 0.25753 0.84007 0.27616 0.0
C488 C 0.22356 0.81058 0.3523 0.0
C489 C 0.17438 0.75046 0.35488 0.0
C490 C 0.1959 0.77091 0.34416 0.0
C491 C 0.25603 0.83092 0.3105 0.0
C492 C 0.23548 0.81021 0.32197 0.0
H493 H 0.12919 0.70533 0.31719 0.0
H494 H 0.16484 0.73745 0.3006 0.0
H495 H 0.19476 0.79254 0.38571 0.0
H496 H 0.30576 0.8713 0.34491 0.0
H497 H 0.27309 0.8355 0.36128 0.0
C498 C 0.41771 0.14272 0.74225 0.0
C499 C 0.42389 0.13131 0.71753 0.0
C500 C 0.41981 0.16349 0.73322 0.0
C501 C 0.4153 0.19326 0.65769 0.0
H502 H 0.45016 0.24846 0.71108 0.0
C503 C 0.41963 0.27548 0.61079 0.0
C504 C 0.42074 0.29047 0.63736 0.0
C505 C 0.42247 0.25726 0.61984 0.0
C506 C 0.43999 0.23316 0.6961 0.0
H507 H 0.43753 0.133 0.66427 0.0
H508 H 0.44051 0.1688 0.64839 0.0
H509 H 0.44986 0.21436 0.73021 0.0
H510 H 0.42575 0.29815 0.69426 0.0
H511 H 0.42954 0.2661 0.71028 0.0
H512 H 0.40434 0.21131 0.62466 0.0
C513 C 0.43433 0.1618 0.6748 0.0
C514 C 0.44 0.21368 0.70705 0.0
C515 C 0.43272 0.14136 0.68405 0.0
C516 C 0.42505 0.28706 0.67301 0.0
C517 C 0.42738 0.26863 0.68219 0.0
C518 C 0.41484 0.21256 0.64722 0.0
C519 C 0.42763 0.1729 0.69908 0.0
C520 C 0.42769 0.1936 0.68788 0.0
C521 C 0.42595 0.25329 0.65585 0.0
C522 C 0.42718 0.23286 0.66624 0.0
H523 H 0.41081 0.13538 0.76819 0.0
H524 H 0.41449 0.17177 0.75234 0.0
H525 H 0.40553 0.17788 0.64264 0.0
H526 H 0.41642 0.27773 0.58304 0.0
H527 H 0.42178 0.24623 0.59852 0.0
C528 C 0.34179 0.30495 0.71118 0.0
C529 C 0.34606 0.32329 0.6894 0.0
C530 C 0.33297 0.30293 0.74569 0.0
C531 C 0.31249 0.33102 0.81076 0.0
H532 H 0.33553 0.30576 0.88037 0.0
C533 C 0.30664 0.34556 0.96129 0.0
C534 C 0.32468 0.34871 0.98291 0.0
C535 C 0.30403 0.3367 0.92669 0.0
C536 C 0.32919 0.31321 0.8615 0.0
H537 H 0.34405 0.3536 0.68578 0.0
H538 H 0.33024 0.35116 0.7465 0.0
H539 H 0.34073 0.30216 0.81728 0.0
H540 H 0.3539 0.34478 0.98607 0.0
H541 H 0.35052 0.33089 0.92512 0.0
H542 H 0.30316 0.34422 0.85494 0.0
C543 C 0.33251 0.33757 0.73696 0.0
C544 C 0.3317 0.31066 0.82485 0.0
C545 C 0.34056 0.33912 0.70199 0.0
C546 C 0.33967 0.34219 0.96996 0.0
C547 C 0.33757 0.33408 0.9349 0.0
C548 C 0.31066 0.33424 0.8474 0.0
C549 C 0.32915 0.31976 0.7598 0.0
C550 C 0.32383 0.31995 0.79879 0.0
C551 C 0.31997 0.33166 0.91234 0.0
C552 C 0.31943 0.32582 0.87343 0.0
H553 H 0.34587 0.29249 0.70185 0.0
H554 H 0.32991 0.2885 0.76161 0.0
H555 H 0.30549 0.33784 0.7919 0.0
H556 H 0.29479 0.3504 0.97092 0.0
H557 H 0.2898 0.33442 0.91099 0.0
C558 C 0.96177 0.30828 0.29605 0.0
C559 C 0.97842 0.3218 0.321 0.0
C560 C 0.96756 0.3059 0.26107 0.0
C561 C 0.01593 0.31957 0.19986 0.0
H562 H 0.9777 0.326 0.12991 0.0
C563 C 0.0458 0.35993 0.06064 0.0
C564 C 0.03085 0.35175 0.03142 0.0
C565 C 0.03897 0.35065 0.09482 0.0
C566 C 0.98833 0.32372 0.14892 0.0
H567 H 0.01424 0.34234 0.32966 0.0
H568 H 0.02443 0.33889 0.26815 0.0
H569 H 0.96664 0.31989 0.19254 0.0
H570 H 0.99732 0.3266 0.01483 0.0
H571 H 0.98527 0.31045 0.07486 0.0
H572 H 0.0382 0.32466 0.15599 0.0
C573 C 0.00689 0.32968 0.27569 0.0
C574 C 0.98197 0.32017 0.18499 0.0
C575 C 1.00108 0.33173 0.31099 0.0
C576 C 0.00921 0.33332 0.0368 0.0
C577 C 1.00229 0.32414 0.07118 0.0
C578 C 0.02238 0.3233 0.16371 0.0
C579 C 0.99013 0.31738 0.24995 0.0
C580 C 0.99587 0.31846 0.2111 0.0
C581 C 0.01695 0.33307 0.10069 0.0
C582 C 0.00884 0.32586 0.13797 0.0
H583 H 0.94416 0.30017 0.30322 0.0
H584 H 0.95424 0.29574 0.24235 0.0
H585 H 0.02688 0.31798 0.21908 0.0
H586 H 0.06266 0.37401 0.05737 0.0
H587 H 0.05061 0.35807 0.11699 0.0
C588 C 0.66217 0.99847 0.6395 0.0
C589 C 0.65612 0.97696 0.65193 0.0
C590 C 0.67018 0.0049 0.60447 0.0
C591 C 0.67024 0.97875 0.51619 0.0
H592 H 0.70098 0.04106 0.48688 0.0
C593 C 0.66456 0.00408 0.37108 0.0
C594 C 0.68018 0.02552 0.35861 0.0
C595 C 0.66615 0.99756 0.40605 0.0
C596 C 0.69285 0.02351 0.49421 0.0
H597 H 0.65525 0.94588 0.63905 0.0
H598 H 0.67109 0.95765 0.57918 0.0
H599 H 0.69785 0.03195 0.54985 0.0
H600 H 0.71067 0.05638 0.37137 0.0
H601 H 0.71474 0.04444 0.43112 0.0
H602 H 0.66652 0.9703 0.46055 0.0
C603 C 0.6685 0.96925 0.59528 0.0
C604 C 0.69057 0.01824 0.5308 0.0
C605 C 0.65974 0.96256 0.62986 0.0
C606 C 0.69836 0.03975 0.38059 0.0
C607 C 0.70043 0.03297 0.4151 0.0
C608 C 0.67318 0.98401 0.4796 0.0
C609 C 0.67295 0.99017 0.5814 0.0
C610 C 0.67849 0.99578 0.54247 0.0
C611 C 0.68382 0.01214 0.42902 0.0
C612 C 0.68378 0.00648 0.46793 0.0
H613 H 0.6592 0.00973 0.65593 0.0
H614 H 0.67295 0.02098 0.5951 0.0
H615 H 0.66064 0.9612 0.52353 0.0
H616 H 0.65021 0.99295 0.35473 0.0
H617 H 0.65273 0.98157 0.41546 0.0
C618 C 0.67116 0.67098 0.69537 0.0
C619 C 0.65891 0.6814 0.68519 0.0
C620 C 0.67901 0.67297 0.73067 0.0
C621 C 0.66415 0.68332 0.82114 0.0
H622 H 0.71491 0.67723 0.85052 0.0
C623 C 0.67767 0.66986 0.96955 0.0
C624 C 0.68037 0.65113 0.97511 0.0
C625 C 0.68006 0.67897 0.9351 0.0
C626 C 0.70072 0.67904 0.8427 0.0
H627 H 0.64716 0.7038 0.70263 0.0
H628 H 0.66167 0.7081 0.7635 0.0
H629 H 0.71059 0.68404 0.78735 0.0
H630 H 0.68913 0.62823 0.94934 0.0
H631 H 0.69325 0.64406 0.8896 0.0
H632 H 0.65398 0.6778 0.87619 0.0
C633 C 0.66446 0.69763 0.74492 0.0
C634 C 0.69819 0.68285 0.8065 0.0
C635 C 0.6563 0.69533 0.70994 0.0
C636 C 0.68675 0.64255 0.94595 0.0
C637 C 0.68932 0.65176 0.9117 0.0
C638 C 0.66677 0.67969 0.85725 0.0
C639 C 0.67502 0.68568 0.75624 0.0
C640 C 0.67957 0.68454 0.79512 0.0
C641 C 0.68544 0.66969 0.90567 0.0
C642 C 0.68478 0.67697 0.86833 0.0
H643 H 0.67332 0.66005 0.67685 0.0
H644 H 0.68695 0.66339 0.73837 0.0
H645 H 0.64933 0.68405 0.81348 0.0
H646 H 0.67282 0.67689 0.99148 0.0
H647 H 0.67715 0.69293 0.93129 0.0
C648 C 0.03769 0.69783 0.30218 0.0
C649 C 0.02403 0.6793 0.3239 0.0
C650 C 0.03066 0.69964 0.26772 0.0
C651 C 0.98219 0.67042 0.20264 0.0
H652 H 0.03042 0.69702 0.13306 0.0
C653 C 0.96197 0.65611 0.05196 0.0
C654 C 0.97722 0.65365 0.03017 0.0
C655 C 0.968 0.66476 0.08671 0.0
C656 C 0.01665 0.68918 0.15193 0.0
H657 H 0.99222 0.64841 0.32749 0.0
H658 H 0.9805 0.65049 0.26684 0.0
H659 H 0.03926 0.70076 0.19615 0.0
H660 H 0.01075 0.65854 0.02693 0.0
H661 H 0.0209 0.67206 0.08813 0.0
H662 H 0.95973 0.65675 0.15843 0.0
C663 C 0.99616 0.66438 0.27639 0.0
C664 C 0.02173 0.69181 0.18858 0.0
C665 C 0.00287 0.66304 0.31132 0.0
C666 C 0.99883 0.66059 0.04317 0.0
C667 C 0.00463 0.66849 0.07837 0.0
C668 C 0.97716 0.66714 0.166 0.0
C669 C 0.01023 0.68241 0.25359 0.0
C670 C 0.00461 0.68206 0.21462 0.0
C671 C 0.98913 0.67028 0.10104 0.0
C672 C 0.99434 0.67606 0.13998 0.0
H673 H 0.05409 0.71062 0.31151 0.0
H674 H 0.0417 0.71422 0.25184 0.0
H675 H 0.96838 0.66321 0.2215 0.0
H676 H 0.94521 0.65094 0.04229 0.0
H677 H 0.95578 0.66653 0.10252 0.0
C678 C 0.32449 0.96088 0.39146 0.0
C679 C 0.32449 0.9729 0.36089 0.0
C680 C 0.32203 0.96749 0.42573 0.0
C681 C 0.31056 0.9795 0.49683 0.0
H682 H 0.34402 0.04348 0.51496 0.0
C683 C 0.33271 0.01386 0.64189 0.0
C684 C 0.35493 0.03143 0.6464 0.0
C685 C 0.32341 0.00752 0.60736 0.0
C686 C 0.33465 0.02552 0.51046 0.0
H687 H 0.32067 1.0007 0.34243 0.0
H688 H 0.31578 0.01201 0.40256 0.0
H689 H 0.33777 0.0299 0.45355 0.0
H690 H 0.38451 0.05652 0.61804 0.0
H691 H 0.36884 0.04512 0.55876 0.0
H692 H 0.30917 0.97507 0.55375 0.0
C693 C 0.31823 0.99771 0.39993 0.0
C694 C 0.33071 0.01771 0.47504 0.0
C695 C 0.32092 0.99117 0.36542 0.0
C696 C 0.36733 0.04291 0.61577 0.0
C697 C 0.35818 0.03649 0.5815 0.0
C698 C 0.31486 0.9873 0.53225 0.0
C699 C 0.3192 0.98619 0.43063 0.0
C700 C 0.3194 0.99455 0.46774 0.0
C701 C 0.3362 0.01854 0.57664 0.0
C702 C 0.32775 0.01041 0.53955 0.0
H703 H 0.32718 0.9467 0.38918 0.0
H704 H 0.32338 0.95841 0.44845 0.0
H705 H 0.30115 0.96154 0.49233 0.0
H706 H 0.32264 0.00476 0.66492 0.0
H707 H 0.30632 0.99379 0.60476 0.0
C708 C 0.42394 0.43257 0.09121 0.0
C709 C 0.40759 0.43872 0.08469 0.0
C710 C 0.44668 0.44879 0.09288 0.0
C711 C 0.48701 0.50741 0.06598 0.0
H712 H 0.52687 0.49942 0.13031 0.0
C713 C 0.58014 0.57502 0.08531 0.0
C714 C 0.5958 0.56756 0.08339 0.0
C715 C 0.55714 0.55966 0.08719 0.0
C716 C 0.51595 0.50178 0.11206 0.0
H717 H 0.40237 0.46692 0.07556 0.0
H718 H 0.44208 0.49537 0.07946 0.0
H719 H 0.48668 0.47251 0.13142 0.0
H720 H 0.5995 0.53804 0.08271 0.0
H721 H 0.55923 0.51118 0.08647 0.0
H722 H 0.51636 0.5369 0.04709 0.0
C723 C 0.43734 0.47789 0.08245 0.0
C724 C 0.49291 0.48634 0.11259 0.0
C725 C 0.41454 0.46159 0.08043 0.0
C726 C 0.58791 0.54435 0.08411 0.0
C727 C 0.56486 0.52897 0.08642 0.0
C728 C 0.51001 0.52297 0.06577 0.0
C729 C 0.45374 0.47168 0.08846 0.0
C730 C 0.47813 0.48881 0.08929 0.0
C731 C 0.54924 0.53648 0.08761 0.0
C732 C 0.52475 0.52022 0.08858 0.0
H733 H 0.41926 0.4151 0.09437 0.0
H734 H 0.45875 0.44325 0.09684 0.0
H735 H 0.47628 0.5097 0.04722 0.0
H736 H 0.5856 0.59277 0.08481 0.0
H737 H 0.54552 0.56594 0.08845 0.0
C738 C 0.05092 0.59001 0.41235 0.0
C739 C 0.03514 0.59698 0.41816 0.0
C740 C 0.04437 0.56717 0.41356 0.0
C741 C 0.99744 0.51152 0.44418 0.0
H742 H 0.02427 0.48811 0.37812 0.0
C743 C 0.96125 0.41637 0.41744 0.0
C744 C 0.97687 0.40886 0.41826 0.0
C745 C 0.96854 0.43938 0.4184 0.0
C746 C 0.01673 0.49446 0.39687 0.0
H747 H 1.00002 0.58531 0.42935 0.0
H748 H 0.98855 0.54581 0.43025 0.0
H749 H 0.03695 0.52817 0.3781 0.0
H750 H 0.01242 0.41971 0.4205 0.0
H751 H 0.02502 0.45971 0.42161 0.0
H752 H 0.97677 0.47757 0.46211 0.0
C753 C 0.00613 0.55785 0.42587 0.0
C754 C 0.02408 0.51745 0.39704 0.0
C755 C 0.01271 0.58061 0.42511 0.0
C756 C 0.99991 0.42487 0.41994 0.0
C757 C 0.00717 0.44781 0.42036 0.0
C758 C 0.98989 0.4885 0.44363 0.0
C759 C 0.02183 0.55075 0.42019 0.0
C760 C 0.01451 0.52633 0.42067 0.0
C761 C 0.99159 0.45532 0.41961 0.0
C762 C 0.99945 0.47973 0.41998 0.0
H763 H 0.06835 0.6022 0.40706 0.0
H764 H 0.05703 0.56242 0.40957 0.0
H765 H 0.98996 0.51771 0.46331 0.0
H766 H 0.9434 0.4045 0.41617 0.0
H767 H 0.95617 0.44474 0.4176 0.0
C768 C 0.54133 0.95173 0.74469 0.0
C769 C 0.56413 0.96742 0.75041 0.0
C770 C 0.52505 0.95826 0.747 0.0
C771 C 0.51646 0.00457 0.78102 0.0
H772 H 0.46678 0.97992 0.71373 0.0
C773 C 0.45995 0.04357 0.75581 0.0
C774 C 0.43668 0.02859 0.75417 0.0
C775 C 0.47501 0.03549 0.75732 0.0
C776 C 0.48046 0.98681 0.7329 0.0
H777 H 0.58765 0.00237 0.76274 0.0
H778 H 0.55961 0.01379 0.76569 0.0
H779 H 0.49371 0.96668 0.71266 0.0
H780 H 0.41104 0.99332 0.753 0.0
H781 H 0.43734 0.97934 0.75524 0.0
H782 H 0.50347 0.02516 0.80047 0.0
C783 C 0.55407 0.9963 0.76043 0.0
C784 C 0.49586 0.97915 0.73243 0.0
C785 C 0.57024 0.98974 0.75847 0.0
C786 C 0.42884 0.00536 0.7543 0.0
C787 C 0.4439 0.99731 0.75536 0.0
C788 C 0.50121 0.0124 0.78119 0.0
C789 C 0.53124 0.98068 0.75478 0.0
C790 C 0.51417 0.98803 0.75634 0.0
C791 C 0.46714 0.01227 0.75676 0.0
C792 C 0.48311 0.00367 0.75705 0.0
H793 H 0.53604 0.93439 0.73856 0.0
H794 H 0.50761 0.94569 0.74294 0.0
H795 H 0.53003 0.01148 0.80039 0.0
H796 H 0.46655 0.06155 0.75576 0.0
H797 H 0.49286 0.04742 0.75814 0.0
C798 C 0.57602 0.57829 0.58713 0.0
C799 C 0.56928 0.59448 0.58958 0.0
C800 C 0.56018 0.5554 0.58745 0.0
C801 C 0.50077 0.51525 0.61172 0.0
H802 H 0.51111 0.47362 0.55594 0.0
C803 C 0.43271 0.42286 0.5891 0.0
C804 C 0.43894 0.4065 0.59505 0.0
C805 C 0.44884 0.44564 0.58845 0.0
C806 C 0.50812 0.48505 0.57188 0.0
H807 H 0.54048 0.59922 0.5936 0.0
H808 H 0.51272 0.55925 0.5929 0.0
H809 H 0.53825 0.51372 0.55343 0.0
H810 H 0.46715 0.40133 0.60447 0.0
H811 H 0.49551 0.44135 0.60263 0.0
H812 H 0.47027 0.48647 0.62928 0.0
C813 C 0.53033 0.56423 0.59172 0.0
C814 C 0.52369 0.50805 0.57056 0.0
C815 C 0.54624 0.58719 0.59187 0.0
C816 C 0.4618 0.4135 0.59987 0.0
C817 C 0.47802 0.43637 0.59869 0.0
C818 C 0.48508 0.49229 0.61263 0.0
C819 C 0.5371 0.548 0.58975 0.0
C820 C 0.52027 0.52349 0.59055 0.0
C821 C 0.47165 0.45266 0.59327 0.0
C822 C 0.4886 0.47695 0.59277 0.0
H823 H 0.59364 0.58327 0.58566 0.0
H824 H 0.56614 0.54352 0.5866 0.0
H825 H 0.49772 0.52647 0.62807 0.0
H826 H 0.41527 0.41812 0.58537 0.0
H827 H 0.44347 0.4578 0.58386 0.0
C828 C 0.99358 0.57113 0.92009 0.0
C829 C 0.97098 0.56493 0.92573 0.0
C830 C 1.00005 0.5549 0.91801 0.0
C831 C 0.98116 0.49576 0.94226 0.0
H832 H 0.03011 0.5049 0.87964 0.0
C833 C 0.0071 0.42854 0.92175 0.0
C834 C 0.03019 0.43599 0.92449 0.0
C835 C 0.99946 0.4439 0.9201 0.0
C836 C 0.01652 0.50221 0.89741 0.0
H837 H 0.93738 0.53664 0.93286 0.0
H838 H 0.94858 0.50818 0.92825 0.0
H839 H 0.01688 0.53184 0.87903 0.0
H840 H 0.06338 0.46552 0.92689 0.0
H841 H 0.04997 0.49239 0.92356 0.0
H842 H 0.98068 0.46592 0.96018 0.0
C843 C 0.96141 0.5257 0.92626 0.0
C844 C 0.00894 0.51766 0.89717 0.0
C845 C 0.95494 0.54201 0.92869 0.0
C846 C 0.04549 0.45921 0.92484 0.0
C847 C 0.03783 0.4746 0.92277 0.0
C848 C 0.98859 0.48018 0.94219 0.0
C849 C 0.9841 0.53195 0.92112 0.0
C850 C 0.99131 0.51479 0.91988 0.0
C851 C 0.01472 0.46709 0.92074 0.0
C852 C 0.00647 0.48335 0.92 0.0
H853 H 0.00645 0.58864 0.91793 0.0
H854 H 0.01772 0.56046 0.91476 0.0
H855 H 0.96783 0.49314 0.96055 0.0
H856 H 0.99482 0.41079 0.92142 0.0
H857 H 0.98157 0.43763 0.91818 0.0
C858 C 0.59062 0.05112 0.26647 0.0
C859 C 0.5977 0.03541 0.26081 0.0
C860 C 0.56781 0.0446 0.26407 0.0
C861 C 0.51295 0.99834 0.22974 0.0
H862 H 0.48784 0.02322 0.29639 0.0
C863 C 0.41735 0.95987 0.25355 0.0
C864 C 0.40922 0.97499 0.25479 0.0
C865 C 0.44048 0.96779 0.25246 0.0
C866 C 0.49467 0.01626 0.2774 0.0
H867 H 0.58626 1.00045 0.24858 0.0
H868 H 0.5468 0.98906 0.24549 0.0
H869 H 0.52798 0.0363 0.29799 0.0
H870 H 0.4191 0.01032 0.2557 0.0
H871 H 0.45934 0.02402 0.2542 0.0
H872 H 0.47942 0.97786 0.20995 0.0
C873 C 0.55876 0.00655 0.25075 0.0
C874 C 0.51771 0.02383 0.27818 0.0
C875 C 0.58148 0.01309 0.25278 0.0
C876 C 0.42474 0.99818 0.2547 0.0
C877 C 0.44782 0.00607 0.25407 0.0
C878 C 0.48989 0.99061 0.22928 0.0
C879 C 0.55156 0.02219 0.25627 0.0
C880 C 0.52716 0.01488 0.25448 0.0
C881 C 0.45594 0.99098 0.25306 0.0
C882 C 0.48049 0.99942 0.25318 0.0
H883 H 0.60268 0.06847 0.27258 0.0
H884 H 0.56296 0.0572 0.26804 0.0
H885 H 0.51963 0.99138 0.21054 0.0
H886 H 0.40587 0.94192 0.25358 0.0
H887 H 0.44628 0.95577 0.25193 0.0
loop_
_geom_bond_atom_site_label_1
_geom_bond_atom_site_label_2
_geom_bond_distance
_geom_bond_site_symmetry_2
_ccdc_geom_bond_type
O0 Cd1 2.223 1_556 S
O0 C8 1.311 1_556 S
Cd1 O0 2.223 1_554 S
Cd1 O4 2.297 . S
Cd1 O5 2.439 . S
Cd1 O11 2.240 . S
Cd2 O3 2.240 . S
Cd2 O10 2.223 . S
Cd2 O12 2.297 . S
Cd2 O13 2.439 . S
O3 Cd2 2.240 . S
O3 C8 1.294 . S
O4 Cd1 2.297 . S
O4 C6 1.247 . S
O5 Cd1 2.439 . S
O5 C6 1.208 . S
C6 O4 1.247 . S
C6 O5 1.208 . S
C7 O12 1.247 . S
C7 O13 1.208 . S
C8 O0 1.311 1_554 S
C8 O3 1.294 . S
C9 O10 1.315 . S
C9 O11 1.279 . S
O10 Cd2 2.223 . S
O10 C9 1.315 . S
O11 Cd1 2.240 . S
O11 C9 1.279 . S
O12 Cd2 2.297 . S
O12 C7 1.247 . S
O13 Cd2 2.439 . S
O13 C7 1.208 . S
O14 Cd15 2.223 . S
O14 C22 1.315 . S
Cd15 O14 2.223 . S
Cd15 O18 2.297 . S
Cd15 O19 2.439 . S
Cd15 O25 2.240 . S
Cd16 O17 2.240 . S
Cd16 O24 2.223 . S
Cd16 O26 2.297 . S
Cd16 O27 2.439 . S
O17 Cd16 2.240 . S
O17 C22 1.279 . S
O18 Cd15 2.297 . S
O18 C20 1.247 . S
O19 Cd15 2.439 . S
O19 C20 1.208 . S
C20 O18 1.247 . S
C20 O19 1.208 . S
C21 O26 1.247 . S
C21 O27 1.208 . S
C22 O14 1.315 . S
C22 O17 1.279 . S
C23 O24 1.315 . S
C23 O25 1.279 . S
O24 Cd16 2.223 . S
O24 C23 1.315 . S
O25 Cd15 2.240 . S
O25 C23 1.279 . S
O26 Cd16 2.297 . S
O26 C21 1.247 . S
O27 Cd16 2.439 . S
O27 C21 1.208 . S
O28 Cd29 2.223 . S
O28 C36 1.315 . S
Cd29 O28 2.223 . S
Cd29 O32 2.297 . S
Cd29 O33 2.439 . S
Cd29 O39 2.240 . S
Cd30 O31 2.240 . S
Cd30 O38 2.223 . S
Cd30 O40 2.297 . S
Cd30 O41 2.439 . S
O31 Cd30 2.240 . S
O31 C36 1.279 . S
O32 Cd29 2.297 . S
O32 C34 1.247 . S
O33 Cd29 2.439 . S
O33 C34 1.208 . S
C34 O32 1.247 . S
C34 O33 1.208 . S
C35 O40 1.247 . S
C35 O41 1.208 . S
C36 O28 1.315 . S
C36 O31 1.279 . S
C37 O38 1.315 . S
C37 O39 1.279 . S
O38 Cd30 2.223 . S
O38 C37 1.315 . S
O39 Cd29 2.240 . S
O39 C37 1.279 . S
O40 Cd30 2.297 . S
O40 C35 1.247 . S
O41 Cd30 2.439 . S
O41 C35 1.208 . S
O42 Cd43 2.223 1_556 S
O42 C50 1.311 1_556 S
Cd43 O42 2.223 1_554 S
Cd43 O46 2.297 . S
Cd43 O47 2.439 . S
Cd43 O53 2.240 . S
Cd44 O45 2.240 . S
Cd44 O52 2.223 . S
Cd44 O54 2.297 . S
Cd44 O55 2.439 . S
O45 Cd44 2.240 . S
O45 C50 1.294 . S
O46 Cd43 2.297 . S
O46 C48 1.247 . S
O47 Cd43 2.439 . S
O47 C48 1.208 . S
C48 O46 1.247 . S
C48 O47 1.208 . S
C49 O54 1.247 . S
C49 O55 1.208 . S
C50 O42 1.311 1_554 S
C50 O45 1.294 . S
C51 O52 1.315 . S
C51 O53 1.279 . S
O52 Cd44 2.223 . S
O52 C51 1.315 . S
O53 Cd43 2.240 . S
O53 C51 1.279 . S
O54 Cd44 2.297 . S
O54 C49 1.247 . S
O55 Cd44 2.439 . S
O55 C49 1.208 . S
O56 Cd57 2.223 . S
O56 C64 1.315 . S
Cd57 O56 2.223 . S
Cd57 O60 2.297 . S
Cd57 O61 2.439 . S
Cd57 O67 2.240 . S
Cd58 O59 2.240 . S
Cd58 O66 2.223 . S
Cd58 O68 2.297 . S
Cd58 O69 2.439 . S
O59 Cd58 2.240 . S
O59 C64 1.279 . S
O60 Cd57 2.297 . S
O60 C62 1.247 . S
O61 Cd57 2.439 . S
O61 C62 1.208 . S
C62 O60 1.247 . S
C62 O61 1.208 . S
C63 O68 1.247 . S
C63 O69 1.208 . S
C64 O56 1.315 . S
C64 O59 1.279 . S
C65 O66 1.315 . S
C65 O67 1.279 . S
O66 Cd58 2.223 . S
O66 C65 1.315 . S
O67 Cd57 2.240 . S
O67 C65 1.279 . S
O68 Cd58 2.297 . S
O68 C63 1.247 . S
O69 Cd58 2.439 . S
O69 C63 1.208 . S
O70 Cd71 2.223 . S
O70 C78 1.315 . S
Cd71 O70 2.223 . S
Cd71 O74 2.297 . S
Cd71 O75 2.439 . S
Cd71 O81 2.240 . S
Cd72 O73 2.240 . S
Cd72 O80 2.223 . S
Cd72 O82 2.297 . S
Cd72 O83 2.439 . S
O73 Cd72 2.240 . S
O73 C78 1.279 . S
O74 Cd71 2.297 . S
O74 C76 1.247 . S
O75 Cd71 2.439 . S
O75 C76 1.208 . S
C76 O74 1.247 . S
C76 O75 1.208 . S
C77 O82 1.247 . S
C77 O83 1.208 . S
C78 O70 1.315 . S
C78 O73 1.279 . S
C79 O80 1.315 . S
C79 O81 1.279 . S
O80 Cd72 2.223 . S
O80 C79 1.315 . S
O81 Cd71 2.240 . S
O81 C79 1.279 . S
O82 Cd72 2.297 . S
O82 C77 1.247 . S
O83 Cd72 2.439 . S
O83 C77 1.208 . S
O84 Cd85 2.223 . S
O84 C92 1.315 . S
Cd85 O84 2.223 . S
Cd85 O88 2.297 . S
Cd85 O89 2.439 . S
Cd85 O95 2.240 . S
Cd86 O87 2.240 . S
Cd86 O94 2.223 . S
Cd86 O96 2.297 . S
Cd86 O97 2.439 . S
O87 Cd86 2.240 . S
O87 C92 1.279 . S
O88 Cd85 2.297 . S
O88 C90 1.247 . S
O89 Cd85 2.439 . S
O89 C90 1.208 . S
C90 O88 1.247 . S
C90 O89 1.208 . S
C91 O96 1.247 . S
C91 O97 1.208 . S
C92 O84 1.315 . S
C92 O87 1.279 . S
C93 O94 1.315 . S
C93 O95 1.279 . S
O94 Cd86 2.223 . S
O94 C93 1.315 . S
O95 Cd85 2.240 . S
O95 C93 1.279 . S
O96 Cd86 2.297 . S
O96 C91 1.247 . S
O97 Cd86 2.439 . S
O97 C91 1.208 . S
O98 Cd99 2.223 1_554 S
O98 C106 1.311 1_554 S
Cd99 O98 2.223 1_556 S
Cd99 O102 2.297 . S
Cd99 O103 2.439 . S
Cd99 O109 2.240 . S
Cd100 O101 2.240 . S
Cd100 O108 2.223 . S
Cd100 O110 2.297 . S
Cd100 O111 2.439 . S
O101 Cd100 2.240 . S
O101 C106 1.294 . S
O102 Cd99 2.297 . S
O102 C104 1.247 . S
O103 Cd99 2.439 . S
O103 C104 1.208 . S
C104 O102 1.247 . S
C104 O103 1.208 . S
C105 O110 1.247 . S
C105 O111 1.208 . S
C106 O98 1.311 1_556 S
C106 O101 1.294 . S
C107 O108 1.315 . S
C107 O109 1.279 . S
O108 Cd100 2.223 . S
O108 C107 1.315 . S
O109 Cd99 2.240 . S
O109 C107 1.279 . S
O110 Cd100 2.297 . S
O110 C105 1.247 . S
O111 Cd100 2.439 . S
O111 C105 1.208 . S
O112 Cd113 2.223 . S
O112 C120 1.315 . S
Cd113 O112 2.223 . S
Cd113 O116 2.297 . S
Cd113 O117 2.439 . S
Cd113 O123 2.240 . S
Cd114 O115 2.240 . S
Cd114 O122 2.223 . S
Cd114 O124 2.297 . S
Cd114 O125 2.439 . S
O115 Cd114 2.240 . S
O115 C120 1.279 . S
O116 Cd113 2.297 . S
O116 C118 1.247 . S
O117 Cd113 2.439 . S
O117 C118 1.208 . S
C118 O116 1.247 . S
C118 O117 1.208 . S
C119 O124 1.247 . S
C119 O125 1.208 . S
C120 O112 1.315 . S
C120 O115 1.279 . S
C121 O122 1.315 . S
C121 O123 1.279 . S
O122 Cd114 2.223 . S
O122 C121 1.315 . S
O123 Cd113 2.240 . S
O123 C121 1.279 . S
O124 Cd114 2.297 . S
O124 C119 1.247 . S
O125 Cd114 2.439 . S
O125 C119 1.208 . S
O126 Cd127 2.223 . S
O126 C134 1.315 . S
Cd127 O126 2.223 . S
Cd127 O130 2.297 . S
Cd127 O131 2.439 . S
Cd127 O137 2.240 . S
Cd128 O129 2.240 . S
Cd128 O136 2.223 . S
Cd128 O138 2.297 . S
Cd128 O139 2.439 . S
O129 Cd128 2.240 . S
O129 C134 1.279 . S
O130 Cd127 2.297 . S
O130 C132 1.247 . S
O131 Cd127 2.439 . S
O131 C132 1.208 . S
C132 O130 1.247 . S
C132 O131 1.208 . S
C133 O138 1.247 . S
C133 O139 1.208 . S
C134 O126 1.315 . S
C134 O129 1.279 . S
C135 O136 1.315 . S
C135 O137 1.279 . S
O136 Cd128 2.223 . S
O136 C135 1.315 . S
O137 Cd127 2.240 . S
O137 C135 1.279 . S
O138 Cd128 2.297 . S
O138 C133 1.247 . S
O139 Cd128 2.439 . S
O139 C133 1.208 . S
O140 Cd141 2.223 1_554 S
O140 C148 1.311 1_554 S
Cd141 O140 2.223 1_556 S
Cd141 O144 2.297 . S
Cd141 O145 2.439 . S
Cd141 O151 2.240 . S
Cd142 O143 2.240 . S
Cd142 O150 2.223 . S
Cd142 O152 2.297 . S
Cd142 O153 2.439 . S
O143 Cd142 2.240 . S
O143 C148 1.294 . S
O144 Cd141 2.297 . S
O144 C146 1.247 . S
O145 Cd141 2.439 . S
O145 C146 1.208 . S
C146 O144 1.247 . S
C146 O145 1.208 . S
C147 O152 1.247 . S
C147 O153 1.208 . S
C148 O140 1.311 1_556 S
C148 O143 1.294 . S
C149 O150 1.315 . S
C149 O151 1.279 . S
O150 Cd142 2.223 . S
O150 C149 1.315 . S
O151 Cd141 2.240 . S
O151 C149 1.279 . S
O152 Cd142 2.297 . S
O152 C147 1.247 . S
O153 Cd142 2.439 . S
O153 C147 1.208 . S
O154 Cd155 2.223 . S
O154 C162 1.315 . S
Cd155 O154 2.223 . S
Cd155 O158 2.297 . S
Cd155 O159 2.439 . S
Cd155 O165 2.240 . S
Cd156 O157 2.240 . S
Cd156 O164 2.223 . S
Cd156 O166 2.297 . S
Cd156 O167 2.439 . S
O157 Cd156 2.240 . S
O157 C162 1.279 . S
O158 Cd155 2.297 . S
O158 C160 1.247 . S
O159 Cd155 2.439 . S
O159 C160 1.208 . S
C160 O158 1.247 . S
C160 O159 1.208 . S
C161 O166 1.247 . S
C161 O167 1.208 . S
C162 O154 1.315 . S
C162 O157 1.279 . S
C163 O164 1.315 . S
C163 O165 1.279 . S
O164 Cd156 2.223 . S
O164 C163 1.315 . S
O165 Cd155 2.240 . S
O165 C163 1.279 . S
O166 Cd156 2.297 . S
O166 C161 1.247 . S
O167 Cd156 2.439 . S
O167 C161 1.208 . S
C168 C169 1.349 . S
C168 C170 1.327 . S
C168 H193 0.950 . S
C169 C168 1.349 . S
C169 C185 1.349 . S
C170 C168 1.327 . S
C170 C189 1.429 . S
C170 H194 0.950 . S
C171 C188 1.574 . S
C171 C190 1.368 . S
C171 H195 0.949 . S
H172 C176 0.949 . S
C173 C174 1.349 . S
C173 C175 1.327 . S
C173 H196 0.950 . S
C174 C173 1.349 . S
C174 C186 1.349 . S
C175 C173 1.327 . S
C175 C191 1.429 . S
C175 H197 0.950 . S
C176 H172 0.949 . S
C176 C184 1.574 . S
C176 C192 1.368 . S
H177 C185 0.950 . S
H178 C183 0.950 . S
H179 C184 0.949 . S
H180 C186 0.950 . S
H181 C187 0.950 . S
H182 C188 0.949 . S
C183 H178 0.950 . S
C183 C185 1.327 . S
C183 C189 1.429 . S
C184 C176 1.574 . S
C184 H179 0.949 . S
C184 C190 1.368 . S
C185 C169 1.349 . S
C185 H177 0.950 . S
C185 C183 1.327 . S
C186 C174 1.349 . S
C186 H180 0.950 . S
C186 C187 1.327 . S
C187 H181 0.950 . S
C187 C186 1.327 . S
C187 C191 1.429 . S
C188 C171 1.574 . S
C188 H182 0.949 . S
C188 C192 1.368 . S
C189 C170 1.429 . S
C189 C183 1.429 . S
C189 C190 1.523 . S
C190 C171 1.368 . S
C190 C184 1.368 . S
C190 C189 1.523 . S
C191 C175 1.429 . S
C191 C187 1.429 . S
C191 C192 1.523 . S
C192 C176 1.368 . S
C192 C188 1.368 . S
C192 C191 1.523 . S
H193 C168 0.950 . S
H194 C170 0.950 . S
H195 C171 0.949 . S
H196 C173 0.950 . S
H197 C175 0.950 . S
C198 C199 1.349 . S
C198 C200 1.327 . S
C198 H223 0.950 . S
C199 C198 1.349 . S
C199 C215 1.349 . S
C200 C198 1.327 . S
C200 C219 1.429 . S
C200 H224 0.950 . S
C201 C218 1.574 1_655 S
C201 C220 1.368 . S
C201 H225 0.949 . S
H202 C206 0.949 . S
C203 C204 1.349 . S
C203 C205 1.327 . S
C203 H226 0.950 . S
C204 C203 1.349 . S
C204 C216 1.349 . S
C205 C203 1.327 . S
C205 C221 1.429 . S
C205 H227 0.950 . S
C206 H202 0.949 . S
C206 C214 1.574 1_455 S
C206 C222 1.368 . S
H207 C215 0.950 . S
H208 C213 0.950 . S
H209 C214 0.949 . S
H210 C216 0.950 . S
H211 C217 0.950 . S
H212 C218 0.949 . S
C213 H208 0.950 . S
C213 C215 1.327 . S
C213 C219 1.429 . S
C214 C206 1.574 1_655 S
C214 H209 0.949 . S
C214 C220 1.368 . S
C215 C199 1.349 . S
C215 H207 0.950 . S
C215 C213 1.327 . S
C216 C204 1.349 . S
C216 H210 0.950 . S
C216 C217 1.327 . S
C217 H211 0.950 . S
C217 C216 1.327 . S
C217 C221 1.429 . S
C218 C201 1.574 1_455 S
C218 H212 0.949 . S
C218 C222 1.368 . S
C219 C200 1.429 . S
C219 C213 1.429 . S
C219 C220 1.523 . S
C220 C201 1.368 . S
C220 C214 1.368 . S
C220 C219 1.523 . S
C221 C205 1.429 . S
C221 C217 1.429 . S
C221 C222 1.523 . S
C222 C206 1.368 . S
C222 C218 1.368 . S
C222 C221 1.523 . S
H223 C198 0.950 . S
H224 C200 0.950 . S
H225 C201 0.949 . S
H226 C203 0.950 . S
H227 C205 0.950 . S
C228 C229 1.349 . S
C228 C230 1.321 1_565 S
C228 H253 0.950 1_565 S
C229 C228 1.349 . S
C229 C245 1.349 . S
C230 C228 1.321 1_545 S
C230 C249 1.407 1_545 S
C230 H254 0.979 . S
C231 C248 1.574 1_556 S
C231 C250 1.368 . S
C231 H255 0.949 . S
H232 C236 0.949 . S
C233 C234 1.349 . S
C233 C235 1.321 1_545 S
C233 H256 0.950 1_545 S
C234 C233 1.349 . S
C234 C246 1.349 . S
C235 C233 1.321 1_565 S
C235 C251 1.406 1_565 S
C235 H257 0.980 . S
C236 H232 0.949 . S
C236 C244 1.574 1_554 S
C236 C252 1.368 . S
H237 C245 0.950 . S
H238 C243 0.950 . S
H239 C244 0.949 . S
H240 C246 0.950 . S
H241 C247 0.950 . S
H242 C248 0.949 . S
C243 H238 0.950 . S
C243 C245 1.327 . S
C243 C249 1.429 . S
C244 C236 1.574 1_556 S
C244 H239 0.949 . S
C244 C250 1.368 1_545 S
C245 C229 1.349 . S
C245 H237 0.950 . S
C245 C243 1.327 . S
C246 C234 1.349 . S
C246 H240 0.950 . S
C246 C247 1.327 . S
C247 H241 0.950 . S
C247 C246 1.327 . S
C247 C251 1.429 . S
C248 C231 1.574 1_554 S
C248 H242 0.949 . S
C248 C252 1.368 1_565 S
C249 C230 1.407 1_565 S
C249 C243 1.429 . S
C249 C250 1.523 . S
C250 C231 1.368 . S
C250 C244 1.368 1_565 S
C250 C249 1.523 . S
C251 C235 1.406 1_545 S
C251 C247 1.429 . S
C251 C252 1.523 . S
C252 C236 1.368 . S
C252 C248 1.368 1_545 S
C252 C251 1.523 . S
H253 C228 0.950 1_545 S
H254 C230 0.979 . S
H255 C231 0.949 . S
H256 C233 0.950 1_565 S
H257 C235 0.980 . S
C258 C259 1.349 . S
C258 C260 1.327 . S
C258 H283 0.950 . S
C259 C258 1.349 . S
C259 C275 1.349 . S
C260 C258 1.327 . S
C260 C279 1.429 . S
C260 H284 0.950 . S
C261 C278 1.574 . S
C261 C280 1.368 . S
C261 H285 0.949 . S
H262 C266 0.949 . S
C263 C264 1.349 . S
C263 C265 1.327 . S
C263 H286 0.950 . S
C264 C263 1.349 . S
C264 C276 1.349 . S
C265 C263 1.327 . S
C265 C281 1.429 . S
C265 H287 0.950 . S
C266 H262 0.949 . S
C266 C274 1.574 . S
C266 C282 1.368 . S
H267 C275 0.950 . S
H268 C273 0.950 . S
H269 C274 0.949 . S
H270 C276 0.950 . S
H271 C277 0.950 . S
H272 C278 0.949 . S
C273 H268 0.950 . S
C273 C275 1.327 . S
C273 C279 1.429 . S
C274 C266 1.574 . S
C274 H269 0.949 . S
C274 C280 1.368 . S
C275 C259 1.349 . S
C275 H267 0.950 . S
C275 C273 1.327 . S
C276 C264 1.349 . S
C276 H270 0.950 . S
C276 C277 1.327 . S
C277 H271 0.950 . S
C277 C276 1.327 . S
C277 C281 1.429 . S
C278 C261 1.574 . S
C278 H272 0.949 . S
C278 C282 1.368 . S
C279 C260 1.429 . S
C279 C273 1.429 . S
C279 C280 1.523 . S
C280 C261 1.368 . S
C280 C274 1.368 . S
C280 C279 1.523 . S
C281 C265 1.429 . S
C281 C277 1.429 . S
C281 C282 1.523 . S
C282 C266 1.368 . S
C282 C278 1.368 . S
C282 C281 1.523 . S
H283 C258 0.950 . S
H284 C260 0.950 . S
H285 C261 0.949 . S
H286 C263 0.950 . S
H287 C265 0.950 . S
C288 C289 1.349 . S
C288 C290 1.327 1_655 S
C288 H313 0.950 1_655 S
C289 C288 1.349 . S
C289 C305 1.349 . S
C290 C288 1.327 1_455 S
C290 C309 1.429 1_455 S
C290 H314 0.950 . S
C291 C308 1.574 . S
C291 C310 1.368 . S
C291 H315 0.949 . S
H292 C296 0.949 . S
C293 C294 1.349 . S
C293 C295 1.327 1_455 S
C293 H316 0.950 1_455 S
C294 C293 1.349 . S
C294 C306 1.349 . S
C295 C293 1.327 1_655 S
C295 C311 1.429 1_655 S
C295 H317 0.950 . S
C296 H292 0.949 . S
C296 C304 1.574 . S
C296 C312 1.368 . S
H297 C305 0.950 . S
H298 C303 0.950 . S
H299 C304 0.949 . S
H300 C306 0.950 . S
H301 C307 0.950 . S
H302 C308 0.949 . S
C303 H298 0.950 . S
C303 C305 1.327 . S
C303 C309 1.429 . S
C304 C296 1.574 . S
C304 H299 0.949 . S
C304 C310 1.368 1_455 S
C305 C289 1.349 . S
C305 H297 0.950 . S
C305 C303 1.327 . S
C306 C294 1.349 . S
C306 H300 0.950 . S
C306 C307 1.327 . S
C307 H301 0.950 . S
C307 C306 1.327 . S
C307 C311 1.429 . S
C308 C291 1.574 . S
C308 H302 0.949 . S
C308 C312 1.368 1_655 S
C309 C290 1.429 1_655 S
C309 C303 1.429 . S
C309 C310 1.523 . S
C310 C291 1.368 . S
C310 C304 1.368 1_655 S
C310 C309 1.523 . S
C311 C295 1.429 1_455 S
C311 C307 1.429 . S
C311 C312 1.523 . S
C312 C296 1.368 . S
C312 C308 1.368 1_455 S
C312 C311 1.523 . S
H313 C288 0.950 1_455 S
H314 C290 0.950 . S
H315 C291 0.949 . S
H316 C293 0.950 1_655 S
H317 C295 0.950 . S
C318 C319 1.349 . S
C318 C320 1.327 . S
C318 H343 0.950 . S
C319 C318 1.349 . S
C319 C335 1.349 . S
C320 C318 1.327 . S
C320 C339 1.429 . S
C320 H344 0.950 . S
C321 C338 1.574 1_554 S
C321 C340 1.368 1_545 S
C321 H345 0.949 . S
H322 C326 0.949 . S
C323 C324 1.349 . S
C323 C325 1.327 . S
C323 H346 0.950 . S
C324 C323 1.349 . S
C324 C336 1.349 . S
C325 C323 1.327 . S
C325 C341 1.429 . S
C325 H347 0.950 . S
C326 H322 0.949 . S
C326 C334 1.574 1_556 S
C326 C342 1.368 1_565 S
H327 C335 0.950 1_545 S
H328 C333 0.950 . S
H329 C334 0.949 . S
H330 C336 0.950 1_565 S
H331 C337 0.950 . S
H332 C338 0.949 . S
C333 H328 0.950 . S
C333 C335 1.327 1_545 S
C333 C339 1.429 1_545 S
C334 C326 1.574 1_554 S
C334 H329 0.949 . S
C334 C340 1.368 . S
C335 C319 1.349 . S
C335 H327 0.950 1_565 S
C335 C333 1.327 1_565 S
C336 C324 1.349 . S
C336 H330 0.950 1_545 S
C336 C337 1.327 1_545 S
C337 H331 0.950 . S
C337 C336 1.327 1_565 S
C337 C341 1.429 1_565 S
C338 C321 1.574 1_556 S
C338 H332 0.949 . S
C338 C342 1.368 . S
C339 C320 1.429 . S
C339 C333 1.429 1_565 S
C339 C340 1.523 . S
C340 C321 1.368 1_565 S
C340 C334 1.368 . S
C340 C339 1.523 . S
C341 C325 1.429 . S
C341 C337 1.429 1_545 S
C341 C342 1.523 . S
C342 C326 1.368 1_545 S
C342 C338 1.368 . S
C342 C341 1.523 . S
H343 C318 0.950 . S
H344 C320 0.950 . S
H345 C321 0.949 . S
H346 C323 0.950 . S
H347 C325 0.950 . S
C348 C349 1.349 . S
C348 C350 1.327 . S
C348 H373 0.950 . S
C349 C348 1.349 . S
C349 C365 1.349 . S
C350 C348 1.327 . S
C350 C369 1.429 . S
C350 H374 0.950 . S
C351 C368 1.574 . S
C351 C370 1.368 1_554 S
C351 H375 0.949 . S
H352 C356 0.949 . S
C353 C354 1.349 . S
C353 C355 1.327 . S
C353 H376 0.950 . S
C354 C353 1.349 . S
C354 C366 1.349 . S
C355 C353 1.327 . S
C355 C371 1.429 . S
C355 H377 0.950 . S
C356 H352 0.949 . S
C356 C364 1.574 . S
C356 C372 1.368 1_556 S
H357 C365 0.950 . S
H358 C363 0.950 1_554 S
H359 C364 0.949 . S
H360 C366 0.950 . S
H361 C367 0.950 1_556 S
H362 C368 0.949 . S
C363 H358 0.950 1_556 S
C363 C365 1.327 . S
C363 C369 1.429 . S
C364 C356 1.574 . S
C364 H359 0.949 . S
C364 C370 1.368 . S
C365 C349 1.349 . S
C365 H357 0.950 . S
C365 C363 1.327 . S
C366 C354 1.349 . S
C366 H360 0.950 . S
C366 C367 1.327 . S
C367 H361 0.950 1_554 S
C367 C366 1.327 . S
C367 C371 1.429 . S
C368 C351 1.574 . S
C368 H362 0.949 . S
C368 C372 1.368 . S
C369 C350 1.429 . S
C369 C363 1.429 . S
C369 C370 1.523 . S
C370 C351 1.368 1_556 S
C370 C364 1.368 . S
C370 C369 1.523 . S
C371 C355 1.429 . S
C371 C367 1.429 . S
C371 C372 1.523 . S
C372 C356 1.368 1_554 S
C372 C368 1.368 . S
C372 C371 1.523 . S
H373 C348 0.950 . S
H374 C350 0.950 . S
H375 C351 0.949 . S
H376 C353 0.950 . S
H377 C355 0.950 . S
C378 C379 1.349 . S
C378 C380 1.327 . S
C378 H403 0.950 . S
C379 C378 1.349 . S
C379 C395 1.349 . S
C380 C378 1.327 . S
C380 C399 1.429 . S
C380 H404 0.950 . S
C381 C398 1.574 . S
C381 C400 1.368 . S
C381 H405 0.949 . S
H382 C386 0.949 . S
C383 C384 1.349 . S
C383 C385 1.327 . S
C383 H406 0.950 . S
C384 C383 1.349 . S
C384 C396 1.349 . S
C385 C383 1.327 . S
C385 C401 1.429 . S
C385 H407 0.950 . S
C386 H382 0.949 . S
C386 C394 1.574 . S
C386 C402 1.368 . S
H387 C395 0.950 . S
H388 C393 0.950 . S
H389 C394 0.949 . S
H390 C396 0.950 . S
H391 C397 0.950 . S
H392 C398 0.949 . S
C393 H388 0.950 . S
C393 C395 1.327 . S
C393 C399 1.429 . S
C394 C386 1.574 . S
C394 H389 0.949 . S
C394 C400 1.368 . S
C395 C379 1.349 . S
C395 H387 0.950 . S
C395 C393 1.327 . S
C396 C384 1.349 . S
C396 H390 0.950 . S
C396 C397 1.327 . S
C397 H391 0.950 . S
C397 C396 1.327 . S
C397 C401 1.429 . S
C398 C381 1.574 . S
C398 H392 0.949 . S
C398 C402 1.368 . S
C399 C380 1.429 . S
C399 C393 1.429 . S
C399 C400 1.523 . S
C400 C381 1.368 . S
C400 C394 1.368 . S
C400 C399 1.523 . S
C401 C385 1.429 . S
C401 C397 1.429 . S
C401 C402 1.523 . S
C402 C386 1.368 . S
C402 C398 1.368 . S
C402 C401 1.523 . S
H403 C378 0.950 . S
H404 C380 0.950 . S
H405 C381 0.949 . S
H406 C383 0.950 . S
H407 C385 0.950 . S
C408 C409 1.349 . S
C408 C410 1.327 . S
C408 H433 0.950 . S
C409 C408 1.349 . S
C409 C425 1.349 . S
C410 C408 1.327 . S
C410 C429 1.429 . S
C410 H434 0.950 . S
C411 C428 1.574 . S
C411 C430 1.368 . S
C411 H435 0.949 . S
H412 C416 0.949 . S
C413 C414 1.349 . S
C413 C415 1.327 . S
C413 H436 0.950 . S
C414 C413 1.349 . S
C414 C426 1.349 . S
C415 C413 1.327 . S
C415 C431 1.429 . S
C415 H437 0.950 . S
C416 H412 0.949 . S
C416 C424 1.574 . S
C416 C432 1.368 . S
H417 C425 0.950 . S
H418 C423 0.950 . S
H419 C424 0.949 . S
H420 C426 0.950 . S
H421 C427 0.950 . S
H422 C428 0.949 . S
C423 H418 0.950 . S
C423 C425 1.327 . S
C423 C429 1.429 . S
C424 C416 1.574 . S
C424 H419 0.949 . S
C424 C430 1.368 . S
C425 C409 1.349 . S
C425 H417 0.950 . S
C425 C423 1.327 . S
C426 C414 1.349 . S
C426 H420 0.950 . S
C426 C427 1.327 . S
C427 H421 0.950 . S
C427 C426 1.327 . S
C427 C431 1.429 . S
C428 C411 1.574 . S
C428 H422 0.949 . S
C428 C432 1.368 . S
C429 C410 1.429 . S
C429 C423 1.429 . S
C429 C430 1.523 . S
C430 C411 1.368 . S
C430 C424 1.368 . S
C430 C429 1.523 . S
C431 C415 1.429 . S
C431 C427 1.429 . S
C431 C432 1.523 . S
C432 C416 1.368 . S
C432 C428 1.368 . S
C432 C431 1.523 . S
H433 C408 0.950 . S
H434 C410 0.950 . S
H435 C411 0.949 . S
H436 C413 0.950 . S
H437 C415 0.950 . S
C438 C439 1.349 . S
C438 C440 1.327 . S
C438 H463 0.950 . S
C439 C438 1.349 . S
C439 C455 1.349 . S
C440 C438 1.327 . S
C440 C459 1.429 . S
C440 H464 0.950 1_554 S
C441 C458 1.574 . S
C441 C460 1.368 . S
C441 H465 0.949 . S
H442 C446 0.949 . S
C443 C444 1.349 . S
C443 C445 1.327 . S
C443 H466 0.950 . S
C444 C443 1.349 . S
C444 C456 1.349 . S
C445 C443 1.327 . S
C445 C461 1.429 . S
C445 H467 0.950 1_556 S
C446 H442 0.949 . S
C446 C454 1.574 . S
C446 C462 1.368 . S
H447 C455 0.950 . S
H448 C453 0.950 . S
H449 C454 0.949 . S
H450 C456 0.950 . S
H451 C457 0.950 . S
H452 C458 0.949 . S
C453 H448 0.950 . S
C453 C455 1.327 . S
C453 C459 1.429 . S
C454 C446 1.574 . S
C454 H449 0.949 . S
C454 C460 1.368 1_556 S
C455 C439 1.349 . S
C455 H447 0.950 . S
C455 C453 1.327 . S
C456 C444 1.349 . S
C456 H450 0.950 . S
C456 C457 1.327 . S
C457 H451 0.950 . S
C457 C456 1.327 . S
C457 C461 1.429 . S
C458 C441 1.574 . S
C458 H452 0.949 . S
C458 C462 1.368 1_554 S
C459 C440 1.429 . S
C459 C453 1.429 . S
C459 C460 1.523 . S
C460 C441 1.368 . S
C460 C454 1.368 1_554 S
C460 C459 1.523 . S
C461 C445 1.429 . S
C461 C457 1.429 . S
C461 C462 1.523 . S
C462 C446 1.368 . S
C462 C458 1.368 1_556 S
C462 C461 1.523 . S
H463 C438 0.950 . S
H464 C440 0.950 1_556 S
H465 C441 0.949 . S
H466 C443 0.950 . S
H467 C445 0.950 1_554 S
C468 C469 1.349 . S
C468 C470 1.327 . S
C468 H493 0.950 . S
C469 C468 1.349 . S
C469 C485 1.349 . S
C470 C468 1.327 . S
C470 C489 1.429 . S
C470 H494 0.950 . S
C471 C488 1.574 . S
C471 C490 1.368 . S
C471 H495 0.949 . S
H472 C476 0.949 . S
C473 C474 1.349 . S
C473 C475 1.327 . S
C473 H496 0.950 . S
C474 C473 1.349 . S
C474 C486 1.349 . S
C475 C473 1.327 . S
C475 C491 1.429 . S
C475 H497 0.950 . S
C476 H472 0.949 . S
C476 C484 1.574 . S
C476 C492 1.368 . S
H477 C485 0.950 . S
H478 C483 0.950 . S
H479 C484 0.949 . S
H480 C486 0.950 . S
H481 C487 0.950 . S
H482 C488 0.949 . S
C483 H478 0.950 . S
C483 C485 1.327 . S
C483 C489 1.429 . S
C484 C476 1.574 . S
C484 H479 0.949 . S
C484 C490 1.368 . S
C485 C469 1.349 . S
C485 H477 0.950 . S
C485 C483 1.327 . S
C486 C474 1.349 . S
C486 H480 0.950 . S
C486 C487 1.327 . S
C487 H481 0.950 . S
C487 C486 1.327 . S
C487 C491 1.429 . S
C488 C471 1.574 . S
C488 H482 0.949 . S
C488 C492 1.368 . S
C489 C470 1.429 . S
C489 C483 1.429 . S
C489 C490 1.523 . S
C490 C471 1.368 . S
C490 C484 1.368 . S
C490 C489 1.523 . S
C491 C475 1.429 . S
C491 C487 1.429 . S
C491 C492 1.523 . S
C492 C476 1.368 . S
C492 C488 1.368 . S
C492 C491 1.523 . S
H493 C468 0.950 . S
H494 C470 0.950 . S
H495 C471 0.949 . S
H496 C473 0.950 . S
H497 C475 0.950 . S
C498 C499 1.349 . S
C498 C500 1.327 . S
C498 H523 0.950 . S
C499 C498 1.349 . S
C499 C515 1.349 . S
C500 C498 1.327 . S
C500 C519 1.429 . S
C500 H524 0.950 . S
C501 C518 1.574 . S
C501 C520 1.368 . S
C501 H525 0.949 . S
H502 C506 0.949 . S
C503 C504 1.349 . S
C503 C505 1.327 . S
C503 H526 0.950 . S
C504 C503 1.349 . S
C504 C516 1.349 . S
C505 C503 1.327 . S
C505 C521 1.429 . S
C505 H527 0.950 . S
C506 H502 0.949 . S
C506 C514 1.574 . S
C506 C522 1.368 . S
H507 C515 0.950 . S
H508 C513 0.950 . S
H509 C514 0.949 . S
H510 C516 0.950 . S
H511 C517 0.950 . S
H512 C518 0.949 . S
C513 H508 0.950 . S
C513 C515 1.327 . S
C513 C519 1.429 . S
C514 C506 1.574 . S
C514 H509 0.949 . S
C514 C520 1.368 . S
C515 C499 1.349 . S
C515 H507 0.950 . S
C515 C513 1.327 . S
C516 C504 1.349 . S
C516 H510 0.950 . S
C516 C517 1.327 . S
C517 H511 0.950 . S
C517 C516 1.327 . S
C517 C521 1.429 . S
C518 C501 1.574 . S
C518 H512 0.949 . S
C518 C522 1.368 . S
C519 C500 1.429 . S
C519 C513 1.429 . S
C519 C520 1.523 . S
C520 C501 1.368 . S
C520 C514 1.368 . S
C520 C519 1.523 . S
C521 C505 1.429 . S
C521 C517 1.429 . S
C521 C522 1.523 . S
C522 C506 1.368 . S
C522 C518 1.368 . S
C522 C521 1.523 . S
H523 C498 0.950 . S
H524 C500 0.950 . S
H525 C501 0.949 . S
H526 C503 0.950 . S
H527 C505 0.950 . S
C528 C529 1.349 . S
C528 C530 1.327 . S
C528 H553 0.950 . S
C529 C528 1.349 . S
C529 C545 1.349 . S
C530 C528 1.327 . S
C530 C549 1.429 . S
C530 H554 0.950 . S
C531 C548 1.574 . S
C531 C550 1.368 . S
C531 H555 0.949 . S
H532 C536 0.949 . S
C533 C534 1.349 . S
C533 C535 1.327 . S
C533 H556 0.950 . S
C534 C533 1.349 . S
C534 C546 1.349 . S
C535 C533 1.327 . S
C535 C551 1.429 . S
C535 H557 0.950 . S
C536 H532 0.949 . S
C536 C544 1.574 . S
C536 C552 1.368 . S
H537 C545 0.950 . S
H538 C543 0.950 . S
H539 C544 0.949 . S
H540 C546 0.950 . S
H541 C547 0.950 . S
H542 C548 0.949 . S
C543 H538 0.950 . S
C543 C545 1.327 . S
C543 C549 1.429 . S
C544 C536 1.574 . S
C544 H539 0.949 . S
C544 C550 1.368 . S
C545 C529 1.349 . S
C545 H537 0.950 . S
C545 C543 1.327 . S
C546 C534 1.349 . S
C546 H540 0.950 . S
C546 C547 1.327 . S
C547 H541 0.950 . S
C547 C546 1.327 . S
C547 C551 1.429 . S
C548 C531 1.574 . S
C548 H542 0.949 . S
C548 C552 1.368 . S
C549 C530 1.429 . S
C549 C543 1.429 . S
C549 C550 1.523 . S
C550 C531 1.368 . S
C550 C544 1.368 . S
C550 C549 1.523 . S
C551 C535 1.429 . S
C551 C547 1.429 . S
C551 C552 1.523 . S
C552 C536 1.368 . S
C552 C548 1.368 . S
C552 C551 1.523 . S
H553 C528 0.950 . S
H554 C530 0.950 . S
H555 C531 0.949 . S
H556 C533 0.950 . S
H557 C535 0.950 . S
C558 C559 1.349 . S
C558 C560 1.327 . S
C558 H583 0.950 . S
C559 C558 1.349 . S
C559 C575 1.349 . S
C560 C558 1.327 . S
C560 C579 1.429 . S
C560 H584 0.950 . S
C561 C578 1.574 . S
C561 C580 1.368 1_455 S
C561 H585 0.949 . S
H562 C566 0.949 . S
C563 C564 1.349 . S
C563 C565 1.327 . S
C563 H586 0.950 . S
C564 C563 1.349 . S
C564 C576 1.349 . S
C565 C563 1.327 . S
C565 C581 1.429 . S
C565 H587 0.950 . S
C566 H562 0.949 . S
C566 C574 1.574 . S
C566 C582 1.368 1_655 S
H567 C575 0.950 1_455 S
H568 C573 0.950 . S
H569 C574 0.949 . S
H570 C576 0.950 1_655 S
H571 C577 0.950 . S
H572 C578 0.949 . S
C573 H568 0.950 . S
C573 C575 1.327 1_455 S
C573 C579 1.429 1_455 S
C574 C566 1.574 . S
C574 H569 0.949 . S
C574 C580 1.368 . S
C575 C559 1.349 . S
C575 H567 0.950 1_655 S
C575 C573 1.327 1_655 S
C576 C564 1.349 . S
C576 H570 0.950 1_455 S
C576 C577 1.327 1_455 S
C577 H571 0.950 . S
C577 C576 1.327 1_655 S
C577 C581 1.429 1_655 S
C578 C561 1.574 . S
C578 H572 0.949 . S
C578 C582 1.368 . S
C579 C560 1.429 . S
C579 C573 1.429 1_655 S
C579 C580 1.523 . S
C580 C561 1.368 1_655 S
C580 C574 1.368 . S
C580 C579 1.523 . S
C581 C565 1.429 . S
C581 C577 1.429 1_455 S
C581 C582 1.523 . S
C582 C566 1.368 1_455 S
C582 C578 1.368 . S
C582 C581 1.523 . S
H583 C558 0.950 . S
H584 C560 0.950 . S
H585 C561 0.949 . S
H586 C563 0.950 . S
H587 C565 0.950 . S
C588 C589 1.349 . S
C588 C590 1.327 1_565 S
C588 H613 0.950 1_565 S
C589 C588 1.349 . S
C589 C605 1.349 . S
C590 C588 1.327 1_545 S
C590 C609 1.429 1_545 S
C590 H614 0.950 . S
C591 C608 1.574 . S
C591 C610 1.368 . S
C591 H615 0.949 . S
H592 C596 0.949 . S
C593 C594 1.349 . S
C593 C595 1.327 1_545 S
C593 H616 0.950 1_545 S
C594 C593 1.349 . S
C594 C606 1.349 . S
C595 C593 1.327 1_565 S
C595 C611 1.429 1_565 S
C595 H617 0.950 . S
C596 H592 0.949 . S
C596 C604 1.574 . S
C596 C612 1.368 . S
H597 C605 0.950 . S
H598 C603 0.950 . S
H599 C604 0.949 . S
H600 C606 0.950 . S
H601 C607 0.950 . S
H602 C608 0.949 . S
C603 H598 0.950 . S
C603 C605 1.327 . S
C603 C609 1.429 . S
C604 C596 1.574 . S
C604 H599 0.949 . S
C604 C610 1.368 1_545 S
C605 C589 1.349 . S
C605 H597 0.950 . S
C605 C603 1.327 . S
C606 C594 1.349 . S
C606 H600 0.950 . S
C606 C607 1.327 . S
C607 H601 0.950 . S
C607 C606 1.327 . S
C607 C611 1.429 . S
C608 C591 1.574 . S
C608 H602 0.949 . S
C608 C612 1.368 1_565 S
C609 C590 1.429 1_565 S
C609 C603 1.429 . S
C609 C610 1.523 . S
C610 C591 1.368 . S
C610 C604 1.368 1_565 S
C610 C609 1.523 . S
C611 C595 1.429 1_545 S
C611 C607 1.429 . S
C611 C612 1.523 . S
C612 C596 1.368 . S
C612 C608 1.368 1_545 S
C612 C611 1.523 . S
H613 C588 0.950 1_545 S
H614 C590 0.950 . S
H615 C591 0.949 . S
H616 C593 0.950 1_565 S
H617 C595 0.950 . S
C618 C619 1.349 . S
C618 C620 1.327 . S
C618 H643 0.950 . S
C619 C618 1.349 . S
C619 C635 1.349 . S
C620 C618 1.327 . S
C620 C639 1.429 . S
C620 H644 0.950 . S
C621 C638 1.574 . S
C621 C640 1.368 . S
C621 H645 0.949 . S
H622 C626 0.949 . S
C623 C624 1.349 . S
C623 C625 1.327 . S
C623 H646 0.950 . S
C624 C623 1.349 . S
C624 C636 1.349 . S
C625 C623 1.327 . S
C625 C641 1.429 . S
C625 H647 0.950 . S
C626 H622 0.949 . S
C626 C634 1.574 . S
C626 C642 1.368 . S
H627 C635 0.950 . S
H628 C633 0.950 . S
H629 C634 0.949 . S
H630 C636 0.950 . S
H631 C637 0.950 . S
H632 C638 0.949 . S
C633 H628 0.950 . S
C633 C635 1.327 . S
C633 C639 1.429 . S
C634 C626 1.574 . S
C634 H629 0.949 . S
C634 C640 1.368 . S
C635 C619 1.349 . S
C635 H627 0.950 . S
C635 C633 1.327 . S
C636 C624 1.349 . S
C636 H630 0.950 . S
C636 C637 1.327 . S
C637 H631 0.950 . S
C637 C636 1.327 . S
C637 C641 1.429 . S
C638 C621 1.574 . S
C638 H632 0.949 . S
C638 C642 1.368 . S
C639 C620 1.429 . S
C639 C633 1.429 . S
C639 C640 1.523 . S
C640 C621 1.368 . S
C640 C634 1.368 . S
C640 C639 1.523 . S
C641 C625 1.429 . S
C641 C637 1.429 . S
C641 C642 1.523 . S
C642 C626 1.368 . S
C642 C638 1.368 . S
C642 C641 1.523 . S
H643 C618 0.950 . S
H644 C620 0.950 . S
H645 C621 0.949 . S
H646 C623 0.950 . S
H647 C625 0.950 . S
C648 C649 1.349 . S
C648 C650 1.327 . S
C648 H673 0.950 . S
C649 C648 1.349 . S
C649 C665 1.349 . S
C650 C648 1.327 . S
C650 C669 1.429 . S
C650 H674 0.950 . S
C651 C668 1.574 . S
C651 C670 1.368 1_655 S
C651 H675 0.949 . S
H652 C656 0.949 . S
C653 C654 1.349 . S
C653 C655 1.327 . S
C653 H676 0.950 . S
C654 C653 1.349 . S
C654 C666 1.349 . S
C655 C653 1.327 . S
C655 C671 1.429 . S
C655 H677 0.950 . S
C656 H652 0.949 . S
C656 C664 1.574 . S
C656 C672 1.368 1_455 S
H657 C665 0.950 1_655 S
H658 C663 0.950 . S
H659 C664 0.949 . S
H660 C666 0.950 1_455 S
H661 C667 0.950 . S
H662 C668 0.949 . S
C663 H658 0.950 . S
C663 C665 1.327 1_655 S
C663 C669 1.429 1_655 S
C664 C656 1.574 . S
C664 H659 0.949 . S
C664 C670 1.368 . S
C665 C649 1.349 . S
C665 H657 0.950 1_455 S
C665 C663 1.327 1_455 S
C666 C654 1.349 . S
C666 H660 0.950 1_655 S
C666 C667 1.327 1_655 S
C667 H661 0.950 . S
C667 C666 1.327 1_455 S
C667 C671 1.429 1_455 S
C668 C651 1.574 . S
C668 H662 0.949 . S
C668 C672 1.368 . S
C669 C650 1.429 . S
C669 C663 1.429 1_455 S
C669 C670 1.523 . S
C670 C651 1.368 1_455 S
C670 C664 1.368 . S
C670 C669 1.523 . S
C671 C655 1.429 . S
C671 C667 1.429 1_655 S
C671 C672 1.523 . S
C672 C656 1.368 1_655 S
C672 C668 1.368 . S
C672 C671 1.523 . S
H673 C648 0.950 . S
H674 C650 0.950 . S
H675 C651 0.949 . S
H676 C653 0.950 . S
H677 C655 0.950 . S
C678 C679 1.349 . S
C678 C680 1.327 . S
C678 H703 0.950 . S
C679 C678 1.349 . S
C679 C695 1.349 . S
C680 C678 1.327 . S
C680 C699 1.429 . S
C680 H704 0.950 . S
C681 C698 1.574 1_565 S
C681 C700 1.368 . S
C681 H705 0.949 . S
H682 C686 0.949 . S
C683 C684 1.349 . S
C683 C685 1.327 . S
C683 H706 0.950 . S
C684 C683 1.349 . S
C684 C696 1.349 . S
C685 C683 1.327 . S
C685 C701 1.429 . S
C685 H707 0.950 . S
C686 H682 0.949 . S
C686 C694 1.574 1_545 S
C686 C702 1.368 . S
H687 C695 0.950 . S
H688 C693 0.950 . S
H689 C694 0.949 . S
H690 C696 0.950 . S
H691 C697 0.950 . S
H692 C698 0.949 . S
C693 H688 0.950 . S
C693 C695 1.327 . S
C693 C699 1.429 . S
C694 C686 1.574 1_565 S
C694 H689 0.949 . S
C694 C700 1.368 . S
C695 C679 1.349 . S
C695 H687 0.950 . S
C695 C693 1.327 . S
C696 C684 1.349 . S
C696 H690 0.950 . S
C696 C697 1.327 . S
C697 H691 0.950 . S
C697 C696 1.327 . S
C697 C701 1.429 . S
C698 C681 1.574 1_545 S
C698 H692 0.949 . S
C698 C702 1.368 . S
C699 C680 1.429 . S
C699 C693 1.429 . S
C699 C700 1.523 . S
C700 C681 1.368 . S
C700 C694 1.368 . S
C700 C699 1.523 . S
C701 C685 1.429 . S
C701 C697 1.429 . S
C701 C702 1.523 . S
C702 C686 1.368 . S
C702 C698 1.368 . S
C702 C701 1.523 . S
H703 C678 0.950 . S
H704 C680 0.950 . S
H705 C681 0.949 . S
H706 C683 0.950 . S
H707 C685 0.950 . S
C708 C709 1.349 . S
C708 C710 1.327 . S
C708 H733 0.950 . S
C709 C708 1.349 . S
C709 C725 1.349 . S
C710 C708 1.327 . S
C710 C729 1.429 . S
C710 H734 0.950 . S
C711 C728 1.574 . S
C711 C730 1.368 . S
C711 H735 0.949 . S
H712 C716 0.949 . S
C713 C714 1.349 . S
C713 C715 1.327 . S
C713 H736 0.950 . S
C714 C713 1.349 . S
C714 C726 1.349 . S
C715 C713 1.327 . S
C715 C731 1.429 . S
C715 H737 0.950 . S
C716 H712 0.949 . S
C716 C724 1.574 . S
C716 C732 1.368 . S
H717 C725 0.950 . S
H718 C723 0.950 . S
H719 C724 0.949 . S
H720 C726 0.950 . S
H721 C727 0.950 . S
H722 C728 0.949 . S
C723 H718 0.950 . S
C723 C725 1.327 . S
C723 C729 1.429 . S
C724 C716 1.574 . S
C724 H719 0.949 . S
C724 C730 1.368 . S
C725 C709 1.349 . S
C725 H717 0.950 . S
C725 C723 1.327 . S
C726 C714 1.349 . S
C726 H720 0.950 . S
C726 C727 1.327 . S
C727 H721 0.950 . S
C727 C726 1.327 . S
C727 C731 1.429 . S
C728 C711 1.574 . S
C728 H722 0.949 . S
C728 C732 1.368 . S
C729 C710 1.429 . S
C729 C723 1.429 . S
C729 C730 1.523 . S
C730 C711 1.368 . S
C730 C724 1.368 . S
C730 C729 1.523 . S
C731 C715 1.429 . S
C731 C727 1.429 . S
C731 C732 1.523 . S
C732 C716 1.368 . S
C732 C728 1.368 . S
C732 C731 1.523 . S
H733 C708 0.950 . S
H734 C710 0.950 . S
H735 C711 0.949 . S
H736 C713 0.950 . S
H737 C715 0.950 . S
C738 C739 1.349 . S
C738 C740 1.327 . S
C738 H763 0.950 . S
C739 C738 1.349 . S
C739 C755 1.349 . S
C740 C738 1.327 . S
C740 C759 1.429 . S
C740 H764 0.950 . S
C741 C758 1.574 . S
C741 C760 1.368 1_655 S
C741 H765 0.949 . S
H742 C746 0.949 . S
C743 C744 1.349 . S
C743 C745 1.327 . S
C743 H766 0.950 . S
C744 C743 1.349 . S
C744 C756 1.349 . S
C745 C743 1.327 . S
C745 C761 1.429 . S
C745 H767 0.950 . S
C746 H742 0.949 . S
C746 C754 1.574 . S
C746 C762 1.368 1_455 S
H747 C755 0.950 . S
H748 C753 0.950 1_655 S
H749 C754 0.949 . S
H750 C756 0.950 . S
H751 C757 0.950 1_455 S
H752 C758 0.949 . S
C753 H748 0.950 1_455 S
C753 C755 1.327 . S
C753 C759 1.429 . S
C754 C746 1.574 . S
C754 H749 0.949 . S
C754 C760 1.368 . S
C755 C739 1.349 . S
C755 H747 0.950 . S
C755 C753 1.327 . S
C756 C744 1.349 . S
C756 H750 0.950 . S
C756 C757 1.327 . S
C757 H751 0.950 1_655 S
C757 C756 1.327 . S
C757 C761 1.429 . S
C758 C741 1.574 . S
C758 H752 0.949 . S
C758 C762 1.368 . S
C759 C740 1.429 . S
C759 C753 1.429 . S
C759 C760 1.523 . S
C760 C741 1.368 1_455 S
C760 C754 1.368 . S
C760 C759 1.523 . S
C761 C745 1.429 . S
C761 C757 1.429 . S
C761 C762 1.523 . S
C762 C746 1.368 1_655 S
C762 C758 1.368 . S
C762 C761 1.523 . S
H763 C738 0.950 . S
H764 C740 0.950 . S
H765 C741 0.949 . S
H766 C743 0.950 . S
H767 C745 0.950 . S
C768 C769 1.349 . S
C768 C770 1.327 . S
C768 H793 0.950 . S
C769 C768 1.349 . S
C769 C785 1.349 . S
C770 C768 1.327 . S
C770 C789 1.429 . S
C770 H794 0.950 . S
C771 C788 1.574 . S
C771 C790 1.368 1_545 S
C771 H795 0.949 . S
H772 C776 0.949 . S
C773 C774 1.349 . S
C773 C775 1.327 . S
C773 H796 0.950 . S
C774 C773 1.349 . S
C774 C786 1.349 . S
C775 C773 1.327 . S
C775 C791 1.429 . S
C775 H797 0.950 . S
C776 H772 0.949 . S
C776 C784 1.574 . S
C776 C792 1.368 1_565 S
H777 C785 0.950 . S
H778 C783 0.950 1_545 S
H779 C784 0.949 . S
H780 C786 0.950 . S
H781 C787 0.950 1_565 S
H782 C788 0.949 . S
C783 H778 0.950 1_565 S
C783 C785 1.327 . S
C783 C789 1.429 . S
C784 C776 1.574 . S
C784 H779 0.949 . S
C784 C790 1.368 . S
C785 C769 1.349 . S
C785 H777 0.950 . S
C785 C783 1.327 . S
C786 C774 1.349 . S
C786 H780 0.950 . S
C786 C787 1.327 . S
C787 H781 0.950 1_545 S
C787 C786 1.327 . S
C787 C791 1.429 . S
C788 C771 1.574 . S
C788 H782 0.949 . S
C788 C792 1.368 . S
C789 C770 1.429 . S
C789 C783 1.429 . S
C789 C790 1.523 . S
C790 C771 1.368 1_565 S
C790 C784 1.368 . S
C790 C789 1.523 . S
C791 C775 1.429 . S
C791 C787 1.429 . S
C791 C792 1.523 . S
C792 C776 1.368 1_545 S
C792 C788 1.368 . S
C792 C791 1.523 . S
H793 C768 0.950 . S
H794 C770 0.950 . S
H795 C771 0.949 . S
H796 C773 0.950 . S
H797 C775 0.950 . S
C798 C799 1.349 . S
C798 C800 1.327 . S
C798 H823 0.950 . S
C799 C798 1.349 . S
C799 C815 1.349 . S
C800 C798 1.327 . S
C800 C819 1.429 . S
C800 H824 0.950 . S
C801 C818 1.574 . S
C801 C820 1.368 . S
C801 H825 0.949 . S
H802 C806 0.949 . S
C803 C804 1.349 . S
C803 C805 1.327 . S
C803 H826 0.950 . S
C804 C803 1.349 . S
C804 C816 1.349 . S
C805 C803 1.327 . S
C805 C821 1.429 . S
C805 H827 0.950 . S
C806 H802 0.949 . S
C806 C814 1.574 . S
C806 C822 1.368 . S
H807 C815 0.950 . S
H808 C813 0.950 . S
H809 C814 0.949 . S
H810 C816 0.950 . S
H811 C817 0.950 . S
H812 C818 0.949 . S
C813 H808 0.950 . S
C813 C815 1.327 . S
C813 C819 1.429 . S
C814 C806 1.574 . S
C814 H809 0.949 . S
C814 C820 1.368 . S
C815 C799 1.349 . S
C815 H807 0.950 . S
C815 C813 1.327 . S
C816 C804 1.349 . S
C816 H810 0.950 . S
C816 C817 1.327 . S
C817 H811 0.950 . S
C817 C816 1.327 . S
C817 C821 1.429 . S
C818 C801 1.574 . S
C818 H812 0.949 . S
C818 C822 1.368 . S
C819 C800 1.429 . S
C819 C813 1.429 . S
C819 C820 1.523 . S
C820 C801 1.368 . S
C820 C814 1.368 . S
C820 C819 1.523 . S
C821 C805 1.429 . S
C821 C817 1.429 . S
C821 C822 1.523 . S
C822 C806 1.368 . S
C822 C818 1.368 . S
C822 C821 1.523 . S
H823 C798 0.950 . S
H824 C800 0.950 . S
H825 C801 0.949 . S
H826 C803 0.950 . S
H827 C805 0.950 . S
C828 C829 1.349 . S
C828 C830 1.327 . S
C828 H853 0.950 . S
C829 C828 1.349 . S
C829 C845 1.349 . S
C830 C828 1.327 . S
C830 C849 1.429 . S
C830 H854 0.950 1_655 S
C831 C848 1.574 . S
C831 C850 1.368 . S
C831 H855 0.949 . S
H832 C836 0.949 . S
C833 C834 1.349 . S
C833 C835 1.327 . S
C833 H856 0.950 . S
C834 C833 1.349 . S
C834 C846 1.349 . S
C835 C833 1.327 . S
C835 C851 1.429 . S
C835 H857 0.950 1_455 S
C836 H832 0.949 . S
C836 C844 1.574 . S
C836 C852 1.368 . S
H837 C845 0.950 . S
H838 C843 0.950 . S
H839 C844 0.949 . S
H840 C846 0.950 . S
H841 C847 0.950 . S
H842 C848 0.949 . S
C843 H838 0.950 . S
C843 C845 1.327 . S
C843 C849 1.429 . S
C844 C836 1.574 . S
C844 H839 0.949 . S
C844 C850 1.368 1_455 S
C845 C829 1.349 . S
C845 H837 0.950 . S
C845 C843 1.327 . S
C846 C834 1.349 . S
C846 H840 0.950 . S
C846 C847 1.327 . S
C847 H841 0.950 . S
C847 C846 1.327 . S
C847 C851 1.429 . S
C848 C831 1.574 . S
C848 H842 0.949 . S
C848 C852 1.368 1_655 S
C849 C830 1.429 . S
C849 C843 1.429 . S
C849 C850 1.523 . S
C850 C831 1.368 . S
C850 C844 1.368 1_655 S
C850 C849 1.523 . S
C851 C835 1.429 . S
C851 C847 1.429 . S
C851 C852 1.523 . S
C852 C836 1.368 . S
C852 C848 1.368 1_455 S
C852 C851 1.523 . S
H853 C828 0.950 . S
H854 C830 0.950 1_455 S
H855 C831 0.949 . S
H856 C833 0.950 . S
H857 C835 0.950 1_655 S
C858 C859 1.349 . S
C858 C860 1.327 . S
C858 H883 0.950 . S
C859 C858 1.349 . S
C859 C875 1.349 . S
C860 C858 1.327 . S
C860 C879 1.429 . S
C860 H884 0.950 . S
C861 C878 1.574 . S
C861 C880 1.368 1_565 S
C861 H885 0.949 . S
H862 C866 0.949 . S
C863 C864 1.349 . S
C863 C865 1.327 . S
C863 H886 0.950 . S
C864 C863 1.349 . S
C864 C876 1.349 . S
C865 C863 1.327 . S
C865 C881 1.429 . S
C865 H887 0.950 . S
C866 H862 0.949 . S
C866 C874 1.574 . S
C866 C882 1.368 1_545 S
H867 C875 0.950 . S
H868 C873 0.950 1_565 S
H869 C874 0.949 . S
H870 C876 0.950 . S
H871 C877 0.950 1_545 S
H872 C878 0.949 . S
C873 H868 0.950 1_545 S
C873 C875 1.327 . S
C873 C879 1.429 . S
C874 C866 1.574 . S
C874 H869 0.949 . S
C874 C880 1.368 . S
C875 C859 1.349 . S
C875 H867 0.950 . S
C875 C873 1.327 . S
C876 C864 1.349 . S
C876 H870 0.950 . S
C876 C877 1.327 . S
C877 H871 0.950 1_565 S
C877 C876 1.327 . S
C877 C881 1.429 . S
C878 C861 1.574 . S
C878 H872 0.949 . S
C878 C882 1.368 . S
C879 C860 1.429 . S
C879 C873 1.429 . S
C879 C880 1.523 . S
C880 C861 1.368 1_545 S
C880 C874 1.368 . S
C880 C879 1.523 . S
C881 C865 1.429 . S
C881 C877 1.429 . S
C881 C882 1.523 . S
C882 C866 1.368 1_565 S
C882 C878 1.368 . S
C882 C881 1.523 . S
H883 C858 0.950 . S
H884 C860 0.950 . S
H885 C861 0.949 . S
H886 C863 0.950 . S
H887 C865 0.950 . S
C169 C7 1.443 . S
C174 C133 1.443 . S
C199 C21 1.443 . S
C204 C147 1.443 . S
C229 C35 1.443 . S
C234 C161 1.443 . S
C259 C49 1.443 . S
C264 C91 1.443 . S
C289 C105 1.443 . S
C294 C63 1.443 . S
C319 C119 1.443 . S
C324 C77 1.443 . S
C349 C146 1.494 . S
C354 C6 1.494 . S
C379 C20 1.494 . S
C384 C160 1.494 . S
C409 C34 1.494 . S
C414 C90 1.494 . S
C439 C48 1.494 . S
C444 C104 1.494 . S
C469 C62 1.494 . S
C474 C118 1.494 . S
C499 C76 1.494 . S
C504 C132 1.494 . S
C529 C134 1.045 . S
C534 C8 1.031 1_556 S
C559 C22 1.045 . S
C564 C148 1.031 1_554 S
C589 C36 1.045 . S
C594 C162 1.045 . S
C619 C92 1.045 . S
C624 C50 1.031 1_556 S
C649 C64 1.045 . S
C654 C106 1.031 1_554 S
C679 C120 1.045 . S
C684 C78 1.045 . S
C709 C9 1.507 . S
C714 C51 1.507 . S
C739 C65 1.507 . S
C744 C23 1.507 . S
C769 C37 1.507 . S
C774 C79 1.507 . S
C799 C93 1.507 . S
C804 C135 1.507 . S
C829 C107 1.507 . S
C834 C149 1.507 . S
C859 C163 1.507 . S
C864 C121 1.507 . S
