# Generated by pormake.
# Topology gan, (5)-cn, num edge types: 1
# Building blocks:
#     Node 0, Type 0, BuildingBlock: BEQFEK_clean_sbu_0, # of connection points: 5
#     Node 1, Type 0, BuildingBlock: BEQFEK_clean_sbu_0, # of connection points: 5
#     Node 2, Type 0, BuildingBlock: BEQFEK_clean_sbu_0, # of connection points: 5
#     Node 3, Type 0, BuildingBlock: BEQFEK_clean_sbu_0, # of connection points: 5
#     Node 4, Type 0, BuildingBlock: BEQFEK_clean_sbu_0, # of connection points: 5
#     Node 5, Type 0, BuildingBlock: BEQFEK_clean_sbu_0, # of connection points: 5
#     Node 6, Type 0, BuildingBlock: BEQFEK_clean_sbu_0, # of connection points: 5
#     Node 7, Type 0, BuildingBlock: BEQFEK_clean_sbu_0, # of connection points: 5
#     Node 8, Type 0, BuildingBlock: BEQFEK_clean_sbu_0, # of connection points: 5
#     Node 9, Type 0, BuildingBlock: BEQFEK_clean_sbu_0, # of connection points: 5
#     Node 10, Type 0, BuildingBlock: BEQFEK_clean_sbu_0, # of connection points: 5
#     Node 11, Type 0, BuildingBlock: BEQFEK_clean_sbu_0, # of connection points: 5
#     Node 12, Type 0, BuildingBlock: BEQFEK_clean_sbu_0, # of connection points: 5
#     Node 13, Type 0, BuildingBlock: BEQFEK_clean_sbu_0, # of connection points: 5
#     Node 14, Type 0, BuildingBlock: BEQFEK_clean_sbu_0, # of connection points: 5
#     Node 15, Type 0, BuildingBlock: BEQFEK_clean_sbu_0, # of connection points: 5
#     Edge 16, Type (0, 0), BuildingBlock: AJUNOK_clean_linker_0, # of connection points: 2
#     Edge 17, Type (0, 0), BuildingBlock: AJUNOK_clean_linker_0, # of connection points: 2
#     Edge 18, Type (0, 0), BuildingBlock: AJUNOK_clean_linker_0, # of connection points: 2
#     Edge 19, Type (0, 0), BuildingBlock: AJUNOK_clean_linker_0, # of connection points: 2
#     Edge 20, Type (0, 0), BuildingBlock: AJUNOK_clean_linker_0, # of connection points: 2
#     Edge 21, Type (0, 0), BuildingBlock: AJUNOK_clean_linker_0, # of connection points: 2
#     Edge 22, Type (0, 0), BuildingBlock: AJUNOK_clean_linker_0, # of connection points: 2
#     Edge 23, Type (0, 0), BuildingBlock: AJUNOK_clean_linker_0, # of connection points: 2
#     Edge 24, Type (0, 0), BuildingBlock: AJUNOK_clean_linker_0, # of connection points: 2
#     Edge 25, Type (0, 0), BuildingBlock: AJUNOK_clean_linker_0, # of connection points: 2
#     Edge 26, Type (0, 0), BuildingBlock: AJUNOK_clean_linker_0, # of connection points: 2
#     Edge 27, Type (0, 0), BuildingBlock: AJUNOK_clean_linker_0, # of connection points: 2
#     Edge 28, Type (0, 0), BuildingBlock: AJUNOK_clean_linker_0, # of connection points: 2
#     Edge 29, Type (0, 0), BuildingBlock: AJUNOK_clean_linker_0, # of connection points: 2
#     Edge 30, Type (0, 0), BuildingBlock: AJUNOK_clean_linker_0, # of connection points: 2
#     Edge 31, Type (0, 0), BuildingBlock: AJUNOK_clean_linker_0, # of connection points: 2
#     Edge 32, Type (0, 0), BuildingBlock: AJUNOK_clean_linker_0, # of connection points: 2
#     Edge 33, Type (0, 0), BuildingBlock: AJUNOK_clean_linker_0, # of connection points: 2
#     Edge 34, Type (0, 0), BuildingBlock: AJUNOK_clean_linker_0, # of connection points: 2
#     Edge 35, Type (0, 0), BuildingBlock: AJUNOK_clean_linker_0, # of connection points: 2
#     Edge 36, Type (0, 0), BuildingBlock: AJUNOK_clean_linker_0, # of connection points: 2
#     Edge 37, Type (0, 0), BuildingBlock: AJUNOK_clean_linker_0, # of connection points: 2
#     Edge 38, Type (0, 0), BuildingBlock: AJUNOK_clean_linker_0, # of connection points: 2
#     Edge 39, Type (0, 0), BuildingBlock: AJUNOK_clean_linker_0, # of connection points: 2
#     Edge 40, Type (0, 0), BuildingBlock: AJUNOK_clean_linker_0, # of connection points: 2
#     Edge 41, Type (0, 0), BuildingBlock: AJUNOK_clean_linker_0, # of connection points: 2
#     Edge 42, Type (0, 0), BuildingBlock: AJUNOK_clean_linker_0, # of connection points: 2
#     Edge 43, Type (0, 0), BuildingBlock: AJUNOK_clean_linker_0, # of connection points: 2
#     Edge 44, Type (0, 0), BuildingBlock: AJUNOK_clean_linker_0, # of connection points: 2
#     Edge 45, Type (0, 0), BuildingBlock: AJUNOK_clean_linker_0, # of connection points: 2
#     Edge 46, Type (0, 0), BuildingBlock: AJUNOK_clean_linker_0, # of connection points: 2
#     Edge 47, Type (0, 0), BuildingBlock: AJUNOK_clean_linker_0, # of connection points: 2
#     Edge 48, Type (0, 0), BuildingBlock: AJUNOK_clean_linker_0, # of connection points: 2
#     Edge 49, Type (0, 0), BuildingBlock: AJUNOK_clean_linker_0, # of connection points: 2
#     Edge 50, Type (0, 0), BuildingBlock: AJUNOK_clean_linker_0, # of connection points: 2
#     Edge 51, Type (0, 0), BuildingBlock: AJUNOK_clean_linker_0, # of connection points: 2
#     Edge 52, Type (0, 0), BuildingBlock: AJUNOK_clean_linker_0, # of connection points: 2
#     Edge 53, Type (0, 0), BuildingBlock: AJUNOK_clean_linker_0, # of connection points: 2
#     Edge 54, Type (0, 0), BuildingBlock: AJUNOK_clean_linker_0, # of connection points: 2
#     Edge 55, Type (0, 0), BuildingBlock: AJUNOK_clean_linker_0, # of connection points: 2
# Relax obj value: 0.125
# Max RMSD: 0.210
# Mean RMSD: 0.185
data_MOF--net-gan--node1-BEQFEK_clean_sbu_0--edge1-AJUNOK_clean_linker_0
_symmetry_space_group_name_H-M    P1
_symmetry_Int_Tables_number       1
_symmetry_cell_setting            triclinic
loop_
_symmetry_equiv_pos_as_xyz
'x, y, z'
_cell_length_a     33.963639
_cell_length_b     34.189474
_cell_length_c     33.130035
_cell_angle_alpha  91.709691
_cell_angle_beta   91.664631
_cell_angle_gamma 93.629544
loop_
_atom_site_label
_atom_site_type_symbol
_atom_site_fract_x
_atom_site_fract_y
_atom_site_fract_z
_atom_type_partial_charge
Co0 Co 0.11574 0.13433 0.10013 0.0
Co1 Co 0.17111 0.18523 0.15053 0.0
C2 C 0.14983 0.10899 0.1827 0.0
O3 O 0.13133 0.10208 0.14888 0.0
O4 O 0.16738 0.1425 0.18997 0.0
C5 C 0.04466 0.09841 0.10911 0.0
O6 O 0.0527 0.11276 0.14583 0.0
C7 C 0.24151 0.21736 0.1861 0.0
C8 C 0.23926 0.28122 0.17869 0.0
C9 C 0.26286 0.25262 0.19276 0.0
N10 N 0.20644 0.22473 0.17002 0.0
N11 N 0.20544 0.26274 0.16429 0.0
C12 C 0.25573 0.17689 0.1895 0.0
H13 H 0.24677 0.15897 0.16193 0.0
H14 H 0.24163 0.16228 0.21532 0.0
H15 H 0.28832 0.17771 0.19377 0.0
C16 C 0.06384 0.20228 0.11012 0.0
N17 N 0.09834 0.18501 0.11505 0.0
N18 N 0.12075 0.20542 0.14179 0.0
C19 C 0.10034 0.23493 0.15705 0.0
C20 C 0.06333 0.23439 0.13729 0.0
C21 C 0.03339 0.18982 0.07791 0.0
H22 H 0.04759 0.17605 0.05178 0.0
H23 H 1.01174 0.16783 0.08982 0.0
H24 H 1.01736 0.21527 0.06781 0.0
O25 O 0.15773 0.13571 0.05826 0.0
O26 O 0.19885 0.16962 0.10024 0.0
H27 H 0.12457 0.28906 0.18434 0.0
H28 H 0.0884 0.2634 0.21372 0.0
C29 C 0.11358 0.25956 0.19365 0.0
H30 H 0.13755 0.24586 0.21049 0.0
H31 H 0.18253 0.27579 0.14941 0.0
O32 O 0.06872 0.1049 0.08106 0.0
C33 C 0.19203 0.15173 0.06634 0.0
Co34 Co 0.11425 0.92988 0.40898 0.0
Co35 Co 0.16597 0.88211 0.35941 0.0
C36 C 0.1974 0.91115 0.44002 0.0
O37 O 0.16354 0.92474 0.44423 0.0
O38 O 0.20515 0.89328 0.40697 0.0
C39 C 0.07594 0.95088 0.47328 0.0
O40 O 0.08864 0.91662 0.48237 0.0
C41 C 0.20757 0.82143 0.32006 0.0
C42 C 0.17902 0.82026 0.25906 0.0
C43 C 0.2041 0.80046 0.28357 0.0
N44 N 0.18554 0.8524 0.31708 0.0
N45 N 0.1683 0.85137 0.28072 0.0
C46 C 0.22541 0.80888 0.35906 0.0
H47 H 0.20723 0.81772 0.38466 0.0
H48 H 0.25528 0.82375 0.3636 0.0
H49 H 0.22798 0.77667 0.35892 0.0
C50 C 0.1206 0.98496 0.33981 0.0
N51 N 0.12734 0.95128 0.35847 0.0
N52 N 0.15143 0.93116 0.33708 0.0
C53 C 0.16176 0.95212 0.30446 0.0
C54 C 0.14212 0.98671 0.30458 0.0
C55 C 0.09436 1.01492 0.35582 0.0
H56 H 0.06745 1.00009 0.36805 0.0
H57 H 0.11015 0.032 0.38103 0.0
H58 H 0.08596 0.03525 0.33201 0.0
O59 O 0.07832 0.88131 0.40279 0.0
O60 O 0.11974 0.84413 0.37305 0.0
H61 H 0.18009 0.92867 0.24799 0.0
H62 H 0.21106 0.96928 0.26819 0.0
C63 C 0.19364 0.94223 0.27633 0.0
H64 H 0.21361 0.92172 0.29035 0.0
H65 H 0.14673 0.86994 0.27181 0.0
O66 O 0.08387 0.96509 0.43935 0.0
C67 C 0.08631 0.84803 0.38851 0.0
Co68 Co 0.40045 0.96272 0.603 0.0
Co69 Co 0.34567 0.91891 0.65625 0.0
C70 C 0.38262 0.99602 0.68668 0.0
O71 O 0.39788 1.0005 0.65226 0.0
O72 O 0.3608 0.96539 0.69289 0.0
C73 C 0.47563 0.99565 0.59411 0.0
O74 O 0.47771 0.98855 0.63284 0.0
C75 C 0.31374 0.88038 0.72544 0.0
C76 C 0.26264 0.84539 0.69753 0.0
C77 C 0.28268 0.85449 0.7339 0.0
N78 N 0.31219 0.88654 0.68574 0.0
N79 N 0.28124 0.8661 0.6692 0.0
C80 C 0.34369 0.89984 0.75476 0.0
H81 H 0.33297 0.92832 0.76514 0.0
H82 H 0.37216 0.90572 0.73987 0.0
H83 H 0.34803 0.88191 0.78168 0.0
C84 C 0.44547 0.88911 0.60879 0.0
N85 N 0.4152 0.9114 0.61787 0.0
N86 N 0.39189 0.89234 0.64254 0.0
C87 C 0.40732 0.85782 0.65114 0.0
C88 C 0.44198 0.85434 0.62981 0.0
C89 C 0.47571 0.89945 0.57821 0.0
H90 H 0.46273 0.91682 0.55405 0.0
H91 H 0.50076 0.91714 0.59324 0.0
H92 H 0.48723 0.87265 0.56443 0.0
O93 O 0.35286 0.95707 0.56426 0.0
O94 O 0.31215 0.92777 0.60602 0.0
H95 H 0.36252 0.81537 0.66861 0.0
H96 H 0.41137 0.80775 0.68954 0.0
C97 C 0.3905 0.83002 0.68119 0.0
H98 H 0.38372 0.84635 0.70905 0.0
H99 H 0.27333 0.86567 0.63854 0.0
O100 O 0.44383 0.98638 0.57407 0.0
C101 C 0.3188 0.94135 0.57129 0.0
Co102 Co 0.38787 0.18903 0.85576 0.0
Co103 Co 0.43468 0.13826 0.9076 0.0
C104 C 0.41356 0.11025 0.82311 0.0
O105 O 0.39875 0.14325 0.81896 0.0
O106 O 0.42933 0.10207 0.85717 0.0
C107 C 0.32237 0.19587 0.80897 0.0
O108 O 0.3185 0.15812 0.81553 0.0
C109 C 0.47944 0.08335 0.95524 0.0
C110 C 0.4858 0.11773 1.01311 0.0
C111 C 0.49564 0.0835 0.99399 0.0
N112 N 0.46059 0.11641 0.95153 0.0
N113 N 0.46466 0.13684 0.98609 0.0
C114 C 0.48224 0.053 0.92221 0.0
H115 H 0.45221 0.03991 0.91413 0.0
H116 H 0.50147 0.02957 0.93151 0.0
H117 H 0.49397 0.06714 0.89494 0.0
C118 C 0.32768 0.17798 0.92036 0.0
N119 N 0.36303 0.17279 0.90381 0.0
N120 N 0.3827 0.14909 0.92599 0.0
C121 C 0.35988 0.13749 0.95697 0.0
C122 C 0.32405 0.15537 0.95451 0.0
C123 C 0.29876 0.20585 0.90531 0.0
H124 H 0.31449 0.23148 0.89186 0.0
H125 H 0.27892 0.19071 0.8818 0.0
H126 H 0.28035 0.21609 0.93017 0.0
O127 O 0.43366 0.22675 0.8667 0.0
O128 O 0.47096 0.18766 0.90011 0.0
H129 H 0.38762 0.12321 1.01275 0.0
H130 H 0.3441 0.09253 0.99894 0.0
C131 C 0.37086 0.10795 0.98703 0.0
H132 H 0.38964 0.08625 0.97301 0.0
H133 H 0.45321 0.16411 0.99105 0.0
O134 O 0.35104 0.21648 0.82525 0.0
C135 C 0.46602 0.22088 0.88487 0.0
Co136 Co 0.62015 0.42986 0.92183 0.0
Co137 Co 0.67131 0.38195 0.87255 0.0
C138 C 0.70017 0.40683 0.956 0.0
O139 O 0.66705 0.4221 0.95965 0.0
O140 O 0.7082 0.38993 0.92248 0.0
C141 C 0.6045 0.49871 0.96458 0.0
O142 O 0.64248 0.50809 0.9624 0.0
C143 C 0.71543 0.3232 0.83233 0.0
C144 C 0.68644 0.32239 0.77147 0.0
C145 C 0.71295 0.30345 0.79511 0.0
N146 N 0.69176 0.35299 0.83035 0.0
N147 N 0.67429 0.35214 0.79412 0.0
C148 C 0.7335 0.31011 0.871 0.0
H149 H 0.71307 0.3144 0.89606 0.0
H150 H 0.76105 0.32851 0.87823 0.0
H151 H 0.74041 0.27884 0.86879 0.0
C152 C 0.62575 0.48408 0.85132 0.0
N153 N 0.63422 0.45155 0.87141 0.0
N154 N 0.65886 0.43173 0.85048 0.0
C155 C 0.66817 0.45199 0.81705 0.0
C156 C 0.64695 0.48558 0.816 0.0
C157 C 0.59658 0.51245 0.86461 0.0
H158 H 0.57185 0.49687 0.87989 0.0
H159 H 0.61147 0.53441 0.88621 0.0
H160 H 0.5848 0.5282 0.83852 0.0
O161 O 0.58318 0.3826 0.91484 0.0
O162 O 0.62319 0.34538 0.88287 0.0
H163 H 0.68583 0.42707 0.76089 0.0
H164 H 0.71598 0.4691 0.77891 0.0
C165 C 0.69961 0.44195 0.78846 0.0
H166 H 0.72052 0.42252 0.80278 0.0
H167 H 0.6517 0.36987 0.78591 0.0
O168 O 0.59008 0.46659 0.94906 0.0
C169 C 0.58992 0.34978 0.8985 0.0
Co170 Co 0.83598 0.39995 0.18428 0.0
Co171 Co 0.88844 0.44977 0.13533 0.0
C172 C 0.81284 0.42489 0.09651 0.0
O173 O 0.80452 0.40923 0.13032 0.0
O174 O 0.84627 0.44333 0.09247 0.0
C175 C 0.79748 0.32744 0.19251 0.0
O176 O 0.807 0.32418 0.15446 0.0
C177 C 0.94679 0.49358 0.08831 0.0
C178 C 0.99129 0.50689 0.13812 0.0
C179 C 0.98379 0.5113 0.09746 0.0
N180 N 0.93328 0.47871 0.1224 0.0
N181 N 0.95958 0.48713 0.15205 0.0
C182 C 0.92416 0.49135 0.04877 0.0
H183 H 0.89331 0.49882 0.05367 0.0
H184 H 0.92304 0.46085 0.03619 0.0
H185 H 0.9379 0.51155 0.02682 0.0
C186 C 0.90499 0.34608 0.1803 0.0
N187 N 0.88576 0.37878 0.17252 0.0
N188 N 0.90659 0.40004 0.14773 0.0
C189 C 0.93846 0.38099 0.13692 0.0
C190 C 0.93916 0.34598 0.15742 0.0
C191 C 0.89276 0.31749 0.21163 0.0
H192 H 0.87724 0.3325 0.23608 0.0
H193 H 0.87217 0.29414 0.19767 0.0
H194 H 0.91878 0.30366 0.22461 0.0
O195 O 0.84422 0.44567 0.22499 0.0
O196 O 0.87586 0.48338 0.18283 0.0
H197 H 0.98944 0.415 0.11846 0.0
H198 H 0.97951 0.3695 0.08994 0.0
C199 C 0.96577 0.39455 0.10476 0.0
H200 H 0.94934 0.41022 0.08154 0.0
H201 H 0.95615 0.47851 0.18178 0.0
O202 O 0.80599 0.35951 0.21181 0.0
C203 C 0.8613 0.47863 0.21723 0.0
Co204 Co 0.88109 0.68783 0.36655 0.0
Co205 Co 0.92995 0.63965 0.41894 0.0
C206 C 0.90124 0.60481 0.33994 0.0
O207 O 0.88813 0.63831 0.33379 0.0
O208 O 0.91907 0.59858 0.37344 0.0
C209 C 0.81292 0.69226 0.32181 0.0
O210 O 0.80939 0.65482 0.32978 0.0
C211 C 0.97839 0.58922 0.46722 0.0
C212 C 0.99094 0.62875 0.52092 0.0
C213 C 0.99926 0.59298 0.50382 0.0
N214 N 0.9587 0.62163 0.46287 0.0
N215 N 0.96629 0.6451 0.49496 0.0
C216 C 0.97958 0.55736 0.43541 0.0
H217 H 0.98345 0.57048 0.40545 0.0
H218 H 0.95098 0.53971 0.43432 0.0
H219 H 1.0039 0.53795 0.44149 0.0
C220 C 0.82433 0.68083 0.43436 0.0
N221 N 0.85938 0.67585 0.41717 0.0
N222 N 0.88008 0.65333 0.43973 0.0
C223 C 0.8584 0.64235 0.47165 0.0
C224 C 0.82212 0.65929 0.46929 0.0
C225 C 0.79372 0.70643 0.41833 0.0
H226 H 0.80793 0.73177 0.40298 0.0
H227 H 0.7739 0.68926 0.39624 0.0
H228 H 0.77549 0.7172 0.4431 0.0
O229 O 0.92832 0.72535 0.37143 0.0
O230 O 0.96667 0.68673 0.40405 0.0
H231 H 0.88962 0.62895 0.52577 0.0
H232 H 0.84455 0.59906 0.51614 0.0
C233 C 0.87061 0.6134 0.50182 0.0
H234 H 0.88785 0.59081 0.48703 0.0
H235 H 0.95525 0.6727 0.49864 0.0
O236 O 0.84246 0.71322 0.33594 0.0
C237 C 0.96182 0.71912 0.38705 0.0
Co238 Co 0.86975 0.86229 0.87993 0.0
Co239 Co 0.9144 0.91061 0.94233 0.0
C240 C 0.89675 0.9471 0.86359 0.0
O241 O 0.87793 0.9145 0.85442 0.0
O242 O 0.91517 0.95157 0.89787 0.0
C243 C 0.86449 0.82966 0.80188 0.0
O244 O 0.89151 0.85708 0.79322 0.0
C245 C 0.95504 0.96368 1.00094 0.0
C246 C 0.94223 0.93186 0.05694 0.0
C247 C 0.95734 0.96711 0.04271 0.0
N248 N 0.93828 0.9283 0.99099 0.0
N249 N 0.93098 0.9092 0.02436 0.0
C250 C 0.96837 0.99292 0.97063 0.0
H251 H 0.97721 0.97755 0.94268 0.0
H252 H 0.99366 1.01227 0.98287 0.0
H253 H 0.94357 1.01118 0.96273 0.0
C254 C 0.93852 0.80985 0.88933 0.0
N255 N 0.91823 0.84164 0.89867 0.0
N256 N 0.93798 0.86281 0.92692 0.0
C257 C 0.97113 0.84477 0.9373 0.0
C258 C 0.97259 0.80997 0.91401 0.0
C259 C 0.92793 0.78213 0.85431 0.0
H260 H 0.92904 0.79857 0.82611 0.0
H261 H 0.94878 0.75876 0.85096 0.0
H262 H 0.89772 0.76887 0.85779 0.0
O263 O 0.8259 0.86205 0.92063 0.0
O264 O 0.85978 0.90267 0.96256 0.0
H265 H 0.02685 0.84353 0.97093 0.0
H266 H 1.00771 0.89159 0.96574 0.0
C267 C 0.99982 0.86002 0.97003 0.0
H268 H 0.98554 0.85737 0.99958 0.0
H269 H 0.91637 0.88146 0.02486 0.0
O270 O 0.85074 0.82827 0.83694 0.0
C271 C 0.82784 0.88291 0.95317 0.0
Co272 Co 0.85855 0.16259 0.67354 0.0
Co273 Co 0.91719 0.11796 0.6291 0.0
C274 C 0.83873 0.13037 0.58798 0.0
O275 O 0.82858 0.14776 0.62045 0.0
O276 O 0.87295 0.11694 0.58608 0.0
C277 C 0.78862 0.17858 0.71746 0.0
O278 O 0.76945 0.1486 0.69841 0.0
C279 C 0.9602 0.06134 0.58392 0.0
C280 C 1.01911 0.07066 0.61453 0.0
C281 C 0.99799 0.04873 0.58457 0.0
N282 N 0.95886 0.0894 0.61269 0.0
N283 N 0.99404 0.09503 0.6308 0.0
C284 C 0.92549 0.04606 0.55798 0.0
H285 H 0.89846 0.04474 0.57605 0.0
H286 H 0.93012 1.01652 0.54485 0.0
H287 H 0.92106 0.06649 0.53308 0.0
C288 C 0.87178 0.10122 0.73691 0.0
N289 N 0.87753 0.11802 0.70074 0.0
N290 N 0.90125 0.09708 0.67983 0.0
C291 C 0.91057 0.06572 0.70147 0.0
C292 C 0.89261 0.0673 0.7388 0.0
C293 C 0.84549 0.11636 0.76841 0.0
H294 H 0.85178 0.14841 0.77323 0.0
H295 H 0.81433 0.11111 0.75767 0.0
H296 H 0.8493 0.10148 0.79743 0.0
O297 O 0.90079 0.20589 0.66639 0.0
O298 O 0.944 0.17144 0.63554 0.0
H299 H 0.96799 0.04742 0.68897 0.0
H300 H 0.93486 1.00878 0.70588 0.0
C301 C 0.93699 0.03511 0.68715 0.0
H302 H 0.92929 0.02646 0.65524 0.0
H303 H 1.00079 0.11535 0.6545 0.0
O304 O 0.82414 0.18761 0.70958 0.0
C305 C 0.93419 0.2039 0.65044 0.0
Co306 Co 0.63683 0.08407 0.42833 0.0
Co307 Co 0.68568 0.1316 0.37036 0.0
C308 C 0.72196 0.11372 0.45114 0.0
O309 O 0.68926 0.09503 0.45816 0.0
O310 O 0.72686 0.12997 0.41709 0.0
C311 C 0.60749 0.05643 0.50341 0.0
O312 O 0.64298 0.0655 0.51901 0.0
C313 C 0.73093 0.18822 0.31975 0.0
C314 C 0.69713 0.17514 0.26218 0.0
C315 C 0.7284 0.19808 0.27945 0.0
N316 N 0.70227 0.16037 0.3258 0.0
N317 N 0.68236 0.15274 0.29128 0.0
C318 C 0.7601 0.20434 0.35164 0.0
H319 H 0.76713 0.18115 0.37291 0.0
H320 H 0.74694 0.2282 0.36905 0.0
H321 H 0.78755 0.2164 0.33795 0.0
C322 C 0.58475 0.15232 0.42255 0.0
N323 N 0.61659 0.1326 0.41252 0.0
N324 N 0.63843 0.15395 0.38845 0.0
C325 C 0.62122 0.18807 0.38237 0.0
C326 C 0.58632 0.18837 0.40371 0.0
C327 C 0.55298 0.13637 0.44897 0.0
H328 H 0.54333 0.10609 0.43841 0.0
H329 H 0.56503 0.13498 0.48035 0.0
H330 H 0.52715 0.15467 0.44874 0.0
O331 O 0.63686 0.04377 0.38202 0.0
O332 O 0.67327 0.07939 0.34145 0.0
H333 H 0.6355 0.21294 0.32585 0.0
H334 H 0.62496 0.24864 0.36474 0.0
C335 C 0.63911 0.22079 0.35854 0.0
H336 H 0.67113 0.225 0.36609 0.0
H337 H 0.65811 0.13251 0.28772 0.0
O338 O 0.60024 0.0617 0.4663 0.0
C339 C 0.65337 0.04769 0.34825 0.0
Co340 Co 0.59513 0.90873 0.12807 0.0
Co341 Co 0.64464 0.85424 0.1732 0.0
C342 C 0.63003 0.92991 0.21401 0.0
O343 O 0.61015 0.93806 0.1822 0.0
O344 O 0.64605 0.89723 0.21594 0.0
C345 C 0.58545 0.9782 0.0854 0.0
O346 O 0.62136 0.98847 0.09927 0.0
C347 C 0.69241 0.80487 0.22155 0.0
C348 C 0.6915 0.75217 0.18072 0.0
C349 C 0.70464 0.76718 0.21821 0.0
N350 N 0.67292 0.81194 0.18727 0.0
N351 N 0.67208 0.78038 0.16312 0.0
C352 C 0.69578 0.83248 0.2576 0.0
H353 H 0.66612 0.84222 0.26449 0.0
H354 H 0.71476 0.85882 0.25042 0.0
H355 H 0.70806 0.81864 0.28465 0.0
C356 C 0.65987 0.89918 0.06541 0.0
N357 N 0.64184 0.89257 0.10094 0.0
N358 N 0.66469 0.87182 0.1233 0.0
C359 C 0.6984 0.86605 0.10384 0.0
C360 C 0.69654 0.88276 0.06614 0.0
C361 C 0.64313 0.9215 0.03154 0.0
H362 H 0.61043 0.919 0.03151 0.0
H363 H 0.6536 0.95282 0.03529 0.0
H364 H 0.65343 0.91043 1.00209 0.0
O365 O 0.55337 0.86392 0.13382 0.0
O366 O 0.59206 0.82659 0.16736 0.0
H367 H 0.72682 0.81317 0.1142 0.0
H368 H 0.76041 0.85479 0.10765 0.0
C369 C 0.73209 0.84503 0.12111 0.0
H370 H 0.73445 0.84993 0.15435 0.0
H371 H 0.65791 0.7781 0.13474 0.0
O372 O 0.56911 0.94543 0.09439 0.0
C373 C 0.55867 0.83197 0.1513 0.0
Co374 Co 0.36094 0.66246 0.17859 0.0
Co375 Co 0.41788 0.61575 0.13415 0.0
C376 C 0.3417 0.63018 0.09225 0.0
O377 O 0.33225 0.64871 0.12432 0.0
O378 O 0.37494 0.61487 0.09075 0.0
C379 C 0.28788 0.67636 0.21496 0.0
O380 O 0.27251 0.64686 0.19217 0.0
C381 C 0.47164 0.5821 0.08048 0.0
C382 C 0.51958 0.56685 0.12284 0.0
C383 C 0.50857 0.56753 0.0824 0.0
N384 N 0.46065 0.58865 0.11829 0.0
N385 N 0.48958 0.58031 0.14355 0.0
C386 C 0.45018 0.59617 0.04409 0.0
H387 H 0.44032 0.62595 0.05066 0.0
H388 H 0.42355 0.57633 0.03722 0.0
H389 H 0.4691 0.59721 1.01734 0.0
C390 C 0.36988 0.59879 0.24021 0.0
N391 N 0.37776 0.61648 0.20497 0.0
N392 N 0.39954 0.59404 0.18335 0.0
C393 C 0.4046 0.56049 0.20313 0.0
C394 C 0.38668 0.56251 0.24036 0.0
C395 C 0.34481 0.61525 0.27211 0.0
H396 H 0.35237 0.64715 0.27668 0.0
H397 H 0.31339 0.61117 0.2619 0.0
H398 H 0.34846 0.60025 0.30108 0.0
O399 O 0.40423 0.70541 0.17344 0.0
O400 O 0.44463 0.66889 0.14125 0.0
H401 H 0.45562 0.52711 0.20004 0.0
H402 H 0.4099 0.49834 0.19462 0.0
C403 C 0.42531 0.52643 0.18653 0.0
H404 H 0.42665 0.52737 0.15319 0.0
H405 H 0.48957 0.58553 0.17469 0.0
O406 O 0.32428 0.68639 0.21323 0.0
C407 C 0.43709 0.70177 0.15682 0.0
Co408 Co 0.14383 0.58553 0.9287 0.0
Co409 Co 0.19168 0.63372 0.87368 0.0
C410 C 0.22596 0.61179 0.95546 0.0
O411 O 0.19375 0.5925 0.96179 0.0
O412 O 0.23033 0.62892 0.92205 0.0
C413 C 0.11021 0.56569 1.00025 0.0
O414 O 0.138 0.59064 1.01566 0.0
C415 C 0.2334 0.70492 0.8514 0.0
C416 C 0.24693 0.6919 0.78773 0.0
C417 C 0.25145 0.72043 0.81833 0.0
N418 N 0.21886 0.66861 0.84097 0.0
N419 N 0.22742 0.66064 0.80308 0.0
C420 C 0.23111 0.72365 0.8926 0.0
H421 H 0.20878 0.70747 0.91062 0.0
H422 H 0.22412 0.75479 0.89052 0.0
H423 H 0.26034 0.72311 0.90834 0.0
C424 C 0.09233 0.65502 0.92865 0.0
N425 N 0.12347 0.63523 0.91646 0.0
N426 N 0.14259 0.6555 0.88943 0.0
C427 C 0.12263 0.68776 0.88166 0.0
C428 C 0.08998 0.68903 0.90645 0.0
C429 C 0.06874 0.64421 0.96463 0.0
H430 H 0.08915 0.63999 0.99051 0.0
H431 H 0.04932 0.66748 0.97394 0.0
H432 H 0.05095 0.61629 0.958 0.0
O433 O 0.14536 0.54851 0.88006 0.0
O434 O 0.1803 0.58466 0.83851 0.0
H435 H 0.10645 0.72728 0.83563 0.0
H436 H 0.15078 0.74143 0.86458 0.0
C437 C 0.13336 0.7162 0.84991 0.0
H438 H 0.15104 0.70246 0.82643 0.0
H439 H 0.2194 0.63422 0.78761 0.0
O440 O 0.10706 0.55936 0.96251 0.0
C441 C 0.16069 0.5528 0.84574 0.0
Co442 Co 0.09365 0.41154 0.6302 0.0
Co443 Co 0.13989 0.3549 0.67572 0.0
C444 C 0.12922 0.43219 0.71546 0.0
O445 O 0.10965 0.44082 0.6837 0.0
O446 O 0.14318 0.39852 0.71798 0.0
C447 C 0.08667 0.48329 0.59283 0.0
O448 O 0.11979 0.49312 0.61315 0.0
C449 C 0.192 0.30696 0.7209 0.0
C450 C 0.184 0.25169 0.68385 0.0
C451 C 0.20378 0.26915 0.71732 0.0
N452 N 0.16673 0.31192 0.6902 0.0
N453 N 0.1616 0.27884 0.66844 0.0
C454 C 0.20249 0.33723 0.75368 0.0
H455 H 0.17504 0.34801 0.76604 0.0
H456 H 0.21923 0.36257 0.74075 0.0
H457 H 0.22013 0.32527 0.77861 0.0
C458 C 0.1585 0.40096 0.56917 0.0
N459 N 0.13966 0.39385 0.60402 0.0
N460 N 0.16108 0.3715 0.62608 0.0
C461 C 0.19466 0.36469 0.60686 0.0
C462 C 0.19417 0.38278 0.56984 0.0
C463 C 0.14381 0.42614 0.53659 0.0
H464 H 0.11114 0.42273 0.53381 0.0
H465 H 0.15271 0.45727 0.54448 0.0
H466 H 0.15673 0.41854 0.5072 0.0
O467 O 0.05029 0.36819 0.63507 0.0
O468 O 0.08667 0.3288 0.66882 0.0
H469 H 0.21832 0.30995 0.61999 0.0
H470 H 0.25506 0.34756 0.60817 0.0
C471 C 0.22699 0.34167 0.62385 0.0
H472 H 0.23167 0.34886 0.65657 0.0
H473 H 0.14316 0.27506 0.64273 0.0
O474 O 0.07054 0.44916 0.59593 0.0
C475 C 0.05395 0.33577 0.65222 0.0
Co476 Co 0.6109 0.62981 0.60745 0.0
Co477 Co 0.6622 0.6822 0.65965 0.0
C478 C 0.64248 0.60561 0.69165 0.0
O479 O 0.62484 0.59848 0.65738 0.0
O480 O 0.65879 0.6396 0.69957 0.0
C481 C 0.53777 0.59597 0.6111 0.0
O482 O 0.54302 0.60943 0.64854 0.0
C483 C 0.73109 0.71791 0.69449 0.0
C484 C 0.72744 0.78054 0.68074 0.0
C485 C 0.75189 0.75383 0.69707 0.0
N486 N 0.69547 0.72331 0.67854 0.0
N487 N 0.69361 0.76044 0.66909 0.0
C488 C 0.74662 0.67817 0.69971 0.0
H489 H 0.7368 0.65837 0.67377 0.0
H490 H 0.73418 0.66498 0.72715 0.0
H491 H 0.77935 0.67988 0.70221 0.0
C492 C 0.55968 0.69897 0.60855 0.0
N493 N 0.59231 0.68055 0.61922 0.0
N494 N 0.61215 0.7014 0.64751 0.0
C495 C 0.59151 0.73247 0.65817 0.0
C496 C 0.55747 0.73259 0.63338 0.0
C497 C 0.53343 0.68637 0.57281 0.0
H498 H 0.55035 0.67063 0.54998 0.0
H499 H 0.50908 0.66599 0.58247 0.0
H500 H 0.5205 0.71203 0.55901 0.0
O501 O 0.65423 0.63118 0.56768 0.0
O502 O 0.69232 0.66711 0.6108 0.0
H503 H 0.61381 0.78763 0.68515 0.0
H504 H 0.57438 0.76357 0.71145 0.0
C505 C 0.60149 0.75865 0.69457 0.0
H506 H 0.62345 0.7455 0.71463 0.0
H507 H 0.67065 0.7715 0.65244 0.0
O508 O 0.56505 0.60091 0.58596 0.0
C509 C 0.68758 0.64863 0.57699 0.0
Co510 Co 0.36367 0.35623 0.38401 0.0
Co511 Co 0.41039 0.40789 0.4419 0.0
C512 C 0.39024 0.44111 0.36349 0.0
O513 O 0.3712 0.40822 0.35571 0.0
O514 O 0.40959 0.44645 0.39697 0.0
C515 C 0.36786 0.31865 0.31036 0.0
O516 O 0.39921 0.34276 0.30713 0.0
C517 C 0.42973 0.46655 0.50143 0.0
C518 C 0.46178 0.43595 0.54871 0.0
C519 C 0.44653 0.47147 0.5398 0.0
N520 N 0.43554 0.43028 0.48793 0.0
N521 N 0.45352 0.4115 0.51669 0.0
C522 C 0.40371 0.49356 0.47995 0.0
H523 H 0.37857 0.4765 0.46433 0.0
H524 H 0.42086 0.5091 0.45666 0.0
H525 H 0.39223 0.51541 0.50131 0.0
C526 C 0.43037 0.30311 0.39739 0.0
N527 N 0.41176 0.33637 0.40458 0.0
N528 N 0.43521 0.36098 0.42645 0.0
C529 C 0.47052 0.34501 0.43194 0.0
C530 C 0.46864 0.30749 0.4138 0.0
C531 C 0.41101 0.26639 0.37822 0.0
H532 H 0.37898 0.26479 0.38401 0.0
H533 H 0.41533 0.2662 0.3452 0.0
H534 H 0.4243 0.24016 0.39038 0.0
O535 O 0.32052 0.35744 0.4241 0.0
O536 O 0.3563 0.39855 0.46416 0.0
H537 H 0.51287 0.35488 0.48071 0.0
H538 H 0.5326 0.36098 0.43167 0.0
C539 C 0.50675 0.36636 0.45035 0.0
H540 H 0.50295 0.39832 0.45296 0.0
H541 H 0.4586 0.38182 0.51522 0.0
O542 O 0.34688 0.32049 0.34132 0.0
C543 C 0.3239 0.37889 0.45615 0.0
C544 C 0.32569 0.2911 0.20845 0.0
C545 C 0.29853 0.26033 0.21804 0.0
C546 C 0.353 0.30723 0.23761 0.0
C547 C 0.35319 0.29294 0.27682 0.0
H548 H 0.32358 0.30484 0.17948 0.0
H549 H 0.37077 0.3335 0.23071 0.0
S550 S 0.293 0.2087 0.31499 0.0
N551 N 0.27663 0.2136 0.26822 0.0
N552 N 0.32957 0.24248 0.32188 0.0
C553 C 0.32986 0.25904 0.28505 0.0
C554 C 0.30175 0.2431 0.25586 0.0
C555 C 1.00994 0.02519 0.5152 0.0
C556 C 1.01462 0.02076 0.55694 0.0
C557 C 0.02942 1.00175 0.4882 0.0
C558 C 0.05379 0.97304 0.50227 0.0
H559 H 0.99238 0.04789 0.5034 0.0
H560 H 0.02581 1.00656 0.45616 0.0
S561 S 0.07378 0.94916 0.60914 0.0
N562 N 0.04389 0.98537 0.61145 0.0
N563 N 0.0804 0.94051 0.56058 0.0
C564 C 0.05761 0.96751 0.54402 0.0
C565 C 0.03811 0.99175 0.57147 0.0
C566 C 0.30121 0.7709 0.79852 0.0
C567 C 0.26305 0.76135 0.81155 0.0
C568 C 0.30922 0.80518 0.77764 0.0
C569 C 0.27897 0.83014 0.76898 0.0
H570 H 0.32386 0.75009 0.80112 0.0
H571 H 0.33782 0.80968 0.76426 0.0
S572 S 0.17579 0.82045 0.80133 0.0
N573 N 0.19616 0.78139 0.81849 0.0
N574 N 0.21133 0.84595 0.77891 0.0
C575 C 0.24196 0.82294 0.78547 0.0
C576 C 0.2339 0.78829 0.80695 0.0
C577 C 0.49996 0.02622 0.03678 0.0
C578 C 0.51883 0.05417 1.01274 0.0
C579 C 0.52196 1.00128 0.0597 0.0
C580 C 0.5635 1.00411 0.05971 0.0
H581 H 0.46809 0.02433 0.03864 0.0
H582 H 0.5063 0.98042 0.07843 0.0
S583 S 0.62619 0.07144 0.99927 0.0
N584 N 0.58055 0.08255 0.98824 0.0
N585 N 0.62242 0.03575 0.03176 0.0
C586 C 0.58259 0.03149 0.0349 0.0
C587 C 0.56005 0.05658 1.01123 0.0
C588 C 0.28212 0.7294 0.26641 0.0
C589 C 0.2633 0.70198 0.23845 0.0
C590 C 0.26206 0.76014 0.2827 0.0
C591 C 0.22238 0.76422 0.272 0.0
H592 H 0.31327 0.72849 0.27412 0.0
H593 H 0.2785 0.78211 0.30175 0.0
S594 S 0.15772 0.6966 0.20579 0.0
N595 N 0.20146 0.67814 0.20463 0.0
N596 N 0.16336 0.73594 0.23606 0.0
C597 C 0.20226 0.73532 0.24674 0.0
C598 C 0.22277 0.70395 0.22996 0.0
C599 C 0.50473 0.02431 0.53335 0.0
C600 C 0.5101 1.01212 0.57309 0.0
C601 C 0.53649 0.03863 0.51147 0.0
C602 C 0.57506 0.0415 0.52838 0.0
H603 H 0.4757 0.02271 0.51873 0.0
H604 H 0.5305 0.04743 0.48089 0.0
S605 S 0.60515 1.0132 0.63148 0.0
N606 N 0.55686 1.00361 0.6288 0.0
N607 N 0.61706 0.03097 0.58735 0.0
C608 C 0.58101 0.02976 0.56828 0.0
C609 C 0.54841 1.01498 0.59073 0.0
C610 C 0.25517 0.19586 0.77801 0.0
C611 C 0.29278 0.21475 0.78498 0.0
C612 C 0.22617 0.21394 0.75611 0.0
C613 C 0.23409 0.25133 0.74094 0.0
H614 H 0.24792 0.1672 0.78989 0.0
H615 H 0.19733 0.19881 0.75132 0.0
S616 S 0.32885 0.31132 0.74716 0.0
N617 N 0.33713 0.27185 0.7728 0.0
N618 N 0.28241 0.30537 0.73091 0.0
C619 C 0.27172 0.27012 0.74666 0.0
C620 C 0.3012 0.25191 0.76901 0.0
C621 C 0.98548 0.07188 0.07149 0.0
C622 C 1.01381 0.06776 0.10225 0.0
C623 C 0.96402 0.03901 0.05485 0.0
C624 C 0.9719 1.00133 0.0674 0.0
H625 H 0.98179 0.1002 0.05853 0.0
H626 H 0.94309 0.04296 0.03027 0.0
S627 S 0.03894 0.97666 0.15176 0.0
N628 N 0.04462 0.02485 0.14914 0.0
N629 N 1.0055 0.96226 0.11629 0.0
C630 C 0.9972 0.99739 0.10103 0.0
C631 C 1.01821 0.03102 0.11874 0.0
C632 C 0.72763 0.20766 0.74067 0.0
C633 C 0.76865 0.20537 0.74434 0.0
C634 C 0.70941 0.23868 0.75923 0.0
C635 C 0.73163 0.26792 0.78227 0.0
H636 H 0.70982 0.1869 0.7214 0.0
H637 H 0.67793 0.24065 0.75419 0.0
S638 S 0.83927 0.27278 0.8048 0.0
N639 N 0.83044 0.23257 0.77634 0.0
N640 N 0.79607 0.29159 0.80983 0.0
C641 C 0.77218 0.26458 0.78837 0.0
C642 C 0.79075 0.23298 0.76977 0.0
C643 C 0.06749 0.57343 0.05832 0.0
C644 C 0.07849 0.55082 0.02501 0.0
C645 C 0.0353 0.56104 0.08071 0.0
C646 C 1.01346 0.52588 0.07023 0.0
H647 H 0.08341 0.60106 0.06678 0.0
H648 H 0.02763 0.57883 0.10659 0.0
S649 S 0.03284 0.45461 0.98791 0.0
N650 N 0.06659 0.49103 0.98352 0.0
N651 N 1.00643 0.46711 0.02673 0.0
C652 C 0.02449 0.50269 0.03742 0.0
C653 C 0.05707 0.51538 1.01445 0.0
C654 C 0.79051 0.74999 0.28695 0.0
C655 C 0.78345 0.71045 0.29672 0.0
C656 C 0.76434 0.76826 0.26196 0.0
C657 C 0.73005 0.74778 0.24627 0.0
H658 H 0.81683 0.76699 0.29801 0.0
H659 H 0.77151 0.79836 0.25409 0.0
S660 S 0.69683 0.64456 0.26339 0.0
N661 N 0.73907 0.6516 0.28936 0.0
N662 N 0.68943 0.68665 0.24211 0.0
C663 C 0.72217 0.7085 0.25587 0.0
C664 C 0.74894 0.68967 0.28138 0.0
C665 C 1.0099 0.52574 0.5254 0.0
C666 C 0.02415 0.56487 0.52277 0.0
C667 C 0.03105 0.49941 0.54727 0.0
C668 C 0.06712 0.51138 0.56742 0.0
H669 H 0.98151 0.51574 0.51177 0.0
H670 H 1.01835 0.46967 0.54916 0.0
S671 S 0.11833 0.6105 0.56642 0.0
N672 N 0.07712 0.61425 0.53953 0.0
N673 N 0.11733 0.56465 0.58088 0.0
C674 C 0.08235 0.55026 0.5637 0.0
C675 C 0.06064 0.5771 0.54143 0.0
C676 C 0.59589 0.54823 1.01942 0.0
C677 C 0.57907 0.52176 0.98957 0.0
C678 C 0.57248 0.56412 0.04889 0.0
C679 C 0.53176 0.55418 0.04894 0.0
H680 H 0.62748 0.5551 1.02138 0.0
H681 H 0.58643 0.58343 0.07238 0.0
S682 S 0.47312 0.48833 0.9758 0.0
N683 N 0.51868 0.48897 0.95981 0.0
N684 N 0.47534 0.51716 1.0167 0.0
C685 C 0.51433 0.52913 1.01836 0.0
C686 C 0.53789 0.51346 0.98809 0.0
C687 C 0.81389 0.79528 0.70527 0.0
C688 C 0.78911 0.76425 0.71887 0.0
C689 C 0.84266 0.81413 0.73117 0.0
C690 C 0.84691 0.80221 0.77107 0.0
H691 H 0.80881 0.80708 0.67571 0.0
H692 H 0.85861 0.84039 0.72123 0.0
S693 S 0.79452 0.71792 0.81869 0.0
N694 N 0.7738 0.71984 0.77329 0.0
N695 N 0.8299 0.75322 0.82059 0.0
C696 C 0.82608 0.76793 0.78305 0.0
C697 C 0.79631 0.74944 0.75725 0.0
C698 C 0.75463 0.26721 0.27635 0.0
C699 C 0.75001 0.22946 0.25855 0.0
C700 C 0.77001 0.29868 0.2546 0.0
C701 C 0.78115 0.29345 0.21425 0.0
H702 H 0.74487 0.27283 0.30669 0.0
H703 H 0.77253 0.32743 0.26943 0.0
S704 S 0.77696 0.19922 0.15515 0.0
N705 N 0.75904 0.18773 0.19935 0.0
N706 N 0.78823 0.24693 0.15816 0.0
C707 C 0.77748 0.25549 0.19647 0.0
C708 C 0.76177 0.22348 0.2187 0.0
C709 C 0.46707 0.54198 0.54016 0.0
C710 C 0.45652 0.50856 0.56211 0.0
C711 C 0.48962 0.57325 0.55826 0.0
C712 C 0.50269 0.57175 0.59856 0.0
H713 H 0.46224 0.54258 0.50783 0.0
H714 H 0.50031 0.59684 0.53946 0.0
S715 S 0.47571 0.49525 0.67131 0.0
N716 N 0.45441 0.47906 0.628 0.0
N717 N 0.49819 0.53818 0.66208 0.0
C718 C 0.48821 0.54117 0.62232 0.0
C719 C 0.46487 0.50922 0.60389 0.0
C720 C 0.13686 0.03883 0.20398 0.0
C721 C 0.14934 0.07815 0.21429 0.0
C722 C 0.13494 1.00959 0.23318 0.0
C723 C 0.14473 1.01837 0.27419 0.0
H724 H 0.12858 0.03042 0.17298 0.0
H725 H 0.12517 0.97989 0.22364 0.0
S726 S 0.1805 0.11583 0.31759 0.0
N727 N 0.17281 0.12357 0.26911 0.0
N728 N 0.16867 0.06879 0.32348 0.0
C729 C 0.15753 0.05728 0.28502 0.0
C730 C 0.16001 0.08702 0.25527 0.0
C731 C 0.2688 0.92206 0.4659 0.0
C732 C 0.22814 0.91805 0.47382 0.0
C733 C 0.29767 0.93093 0.49715 0.0
C734 C 0.28741 0.93536 0.53802 0.0
H735 H 0.27844 0.91897 0.43516 0.0
H736 H 0.32842 0.93349 0.48925 0.0
S737 S 0.18523 0.92696 0.57544 0.0
N738 N 0.17944 0.91926 0.52613 0.0
N739 N 0.23323 0.93457 0.58432 0.0
C740 C 0.2469 0.931 0.54633 0.0
C741 C 0.21752 0.92276 0.51451 0.0
C742 C 0.39158 0.06565 0.71601 0.0
C743 C 0.39267 0.02501 0.72109 0.0
C744 C 0.39918 0.09278 0.74883 0.0
C745 C 0.40924 0.08071 0.78816 0.0
H746 H 0.38371 0.07655 0.68669 0.0
H747 H 0.39676 0.12361 0.74329 0.0
S748 S 0.42009 0.97757 0.81649 0.0
N749 N 0.40726 0.97427 0.768 0.0
N750 N 0.42185 0.02476 0.82906 0.0
C751 C 0.41195 0.04017 0.79312 0.0
C752 C 0.40358 1.01257 0.75986 0.0
C753 C 0.2961 0.16082 0.02402 0.0
C754 C 0.29005 0.15212 0.98248 0.0
C755 C 0.26437 0.16025 0.05055 0.0
C756 C 0.22501 0.15037 0.03697 0.0
H757 H 0.32556 0.16905 0.03603 0.0
H758 H 0.27089 0.16782 0.08212 0.0
S759 S 0.19374 0.12263 0.93105 0.0
N760 N 0.24199 0.13164 0.92913 0.0
N761 N 0.18252 0.13018 0.97873 0.0
C762 C 0.21878 0.14055 0.99553 0.0
C763 C 0.25115 0.14158 0.96843 0.0
C764 C 0.04 0.30245 0.14876 0.0
C765 C 0.03094 0.26174 0.14432 0.0
C766 C 1.01038 0.32898 0.1543 0.0
C767 C 0.97006 0.31631 0.15481 0.0
H768 H 0.07024 0.31416 0.14715 0.0
H769 H 1.01927 0.35989 0.15781 0.0
S770 S 0.93031 0.21257 0.14659 0.0
N771 N 0.97856 0.20987 0.1444 0.0
N772 N 0.92288 0.25976 0.1506 0.0
C773 C 0.96056 0.27563 0.15086 0.0
C774 C 0.99089 0.24845 0.14645 0.0
C775 C 0.56761 0.27742 0.89291 0.0
C776 C 0.55818 0.31702 0.89613 0.0
C777 C 0.53793 0.24642 0.89017 0.0
C778 C 0.4975 0.25371 0.88933 0.0
H779 H 0.59822 0.27026 0.8928 0.0
H780 H 0.54674 0.21656 0.88785 0.0
S781 S 0.45676 0.35191 0.89697 0.0
N782 N 0.50505 0.36138 0.8989 0.0
N783 N 0.44983 0.30373 0.89262 0.0
C784 C 0.48774 0.29314 0.89246 0.0
C785 C 0.51784 0.32454 0.89615 0.0
C786 C 0.98545 0.79066 0.38726 0.0
C787 C 0.99456 0.75097 0.38726 0.0
C788 C 1.01517 0.82146 0.38831 0.0
C789 C 0.05561 0.81423 0.38836 0.0
H790 H 0.95494 0.79816 0.38705 0.0
H791 H 1.00622 0.85132 0.38849 0.0
S792 S 0.09576 0.71563 0.38792 0.0
N793 N 0.04742 0.70627 0.38768 0.0
N794 N 0.10304 0.76388 0.38813 0.0
C795 C 0.06522 0.77466 0.38793 0.0
C796 C 0.03488 0.74322 0.38784 0.0
C797 C 0.53895 0.80301 0.63571 0.0
C798 C 0.52705 0.76275 0.63283 0.0
C799 C 0.51135 0.83206 0.63507 0.0
C800 C 0.47047 0.82239 0.63065 0.0
H801 H 0.56997 0.81238 0.63787 0.0
H802 H 0.52227 0.86248 0.63819 0.0
S803 S 0.42338 0.7214 0.62115 0.0
N804 N 0.47093 0.7149 0.62703 0.0
N805 N 0.41964 0.76932 0.62142 0.0
C806 C 0.45812 0.78228 0.62697 0.0
C807 C 0.48618 0.75261 0.629 0.0
C808 C 0.87797 0.99926 0.76423 0.0
C809 C 0.89364 0.03792 0.77174 0.0
C810 C 0.87926 0.9707 0.794 0.0
C811 C 0.89653 0.97912 0.83297 0.0
H812 H 0.86448 0.99096 0.73494 0.0
H813 H 0.86659 0.94153 0.78606 0.0
S814 S 0.94229 0.07634 0.86788 0.0
N815 N 0.92727 0.08334 0.82091 0.0
N816 N 0.92983 0.02996 0.87684 0.0
C817 C 0.9124 1.01788 0.84083 0.0
C818 C 0.91086 0.0471 0.81037 0.0
C819 C 0.76906 0.12358 0.55813 0.0
C820 C 0.81006 0.12587 0.55216 0.0
C821 C 0.74136 0.11939 0.52543 0.0
C822 C 0.75302 0.11829 0.48482 0.0
H823 H 0.75811 0.12455 0.58851 0.0
H824 H 0.7103 0.11758 0.53217 0.0
S825 S 0.85675 0.12445 0.45204 0.0
N826 N 0.86087 0.12696 0.50189 0.0
N827 N 0.80892 0.12055 0.44074 0.0
C828 C 0.79391 0.12124 0.47828 0.0
C829 C 0.82227 0.12454 0.51172 0.0
C830 C 0.64549 0.02773 0.27418 0.0
C831 C 0.64732 1.01673 0.31494 0.0
C832 C 0.63906 0.99975 0.24205 0.0
C833 C 0.63533 0.95921 0.24892 0.0
H834 H 0.64847 0.05844 0.26696 0.0
H835 H 0.63776 1.00998 0.21144 0.0
S836 S 0.63815 0.91447 0.34975 0.0
N837 N 0.64427 0.96208 0.36012 0.0
N838 N 0.63384 0.90963 0.30003 0.0
C839 C 0.63743 0.94774 0.28949 0.0
C840 C 0.64292 0.97635 0.32231 0.0
C841 C 0.72566 0.86282 0.9994 0.0
C842 C 0.72855 0.88534 0.03582 0.0
C843 C 0.75742 0.86235 0.97261 0.0
C844 C 0.79349 0.88443 0.98111 0.0
H845 H 0.69895 0.84471 0.99199 0.0
H846 H 0.75381 0.84412 0.94531 0.0
S847 S 0.81488 0.94985 0.07218 0.0
N848 N 0.76947 0.9313 0.07829 0.0
N849 N 0.82881 0.93073 0.02896 0.0
C850 C 0.79608 0.90776 1.01729 0.0
C851 C 0.76381 0.90813 0.04429 0.0
C852 C 0.07122 0.76021 0.90866 0.0
C853 C 0.05976 0.71974 0.90886 0.0
C854 C 0.04331 0.78921 0.91099 0.0
C855 C 1.00268 0.77921 0.91474 0.0
H856 H 0.10208 0.76974 0.90681 0.0
H857 H 0.05366 0.81969 0.90916 0.0
S858 S 0.95669 0.67783 0.91679 0.0
N859 N 1.00397 0.67169 0.91057 0.0
N860 N 0.95282 0.72568 0.92036 0.0
C861 C 0.99101 0.73895 0.91609 0.0
C862 C 1.01907 0.70948 0.91179 0.0
C863 C 0.45762 0.77469 0.15564 0.0
C864 C 0.46778 0.73526 0.15589 0.0
C865 C 0.48674 0.80601 0.15313 0.0
C866 C 0.52722 0.79916 0.15175 0.0
H867 H 0.42693 0.78138 0.15678 0.0
H868 H 0.47755 0.83576 0.153 0.0
S869 S 0.56954 0.70143 0.15186 0.0
N870 N 0.52152 0.69154 0.15442 0.0
N871 N 0.57556 0.74961 0.15044 0.0
C872 C 0.53758 0.75986 0.15218 0.0
C873 C 0.50813 0.7282 0.15406 0.0
C874 C 1.00381 0.23285 0.64954 0.0
C875 C 0.9632 0.2388 0.65048 0.0
C876 C 0.03233 0.26441 0.65009 0.0
C877 C 0.02181 0.30367 0.65071 0.0
H878 H 1.01387 0.2034 0.64901 0.0
H879 H 0.06311 0.25784 0.64972 0.0
S880 S 0.91955 0.33574 0.6523 0.0
N881 N 0.91385 0.28735 0.65187 0.0
N882 N 0.96762 0.34672 0.65166 0.0
C883 C 0.98132 0.31025 0.65093 0.0
C884 C 0.95207 0.2779 0.65125 0.0
C885 C 0.51917 0.26537 0.44566 0.0
C886 C 0.50036 0.27889 0.41074 0.0
C887 C 0.54686 0.23624 0.44324 0.0
C888 C 0.55732 0.21981 0.40578 0.0
H889 H 0.5117 0.27668 0.47515 0.0
H890 H 0.56019 0.22646 0.47095 0.0
S891 S 0.51807 0.24638 0.30529 0.0
N892 N 0.49553 0.27454 0.33746 0.0
N893 N 0.54697 0.22001 0.333 0.0
C894 C 0.53931 0.23371 0.37069 0.0
C895 C 0.51102 0.2631 0.37315 0.0
C896 C 0.65722 0.55531 0.79295 0.0
C897 C 0.6461 0.51559 0.78384 0.0
C898 C 0.65639 0.58391 0.76306 0.0
C899 C 0.64363 0.57427 0.72277 0.0
H900 H 0.66697 0.56432 0.82343 0.0
H901 H 0.66552 0.61396 0.77182 0.0
S902 S 0.60946 0.47424 0.68399 0.0
N903 N 0.62106 0.46814 0.73205 0.0
N904 N 0.61867 0.52138 0.6762 0.0
C905 C 0.63192 0.53451 0.71357 0.0
C906 C 0.63339 0.50539 0.74392 0.0
C907 C 0.71646 0.41315 0.03146 0.0
C908 C 0.72949 0.40986 0.99138 0.0
C909 C 0.7432 0.41732 0.06518 0.0
C910 C 0.78441 0.4197 0.06049 0.0
H911 H 0.68514 0.41225 0.03695 0.0
H912 H 0.73143 0.41946 0.09514 0.0
S913 S 0.83439 0.41231 0.96236 0.0
N914 N 0.78692 0.40841 0.94953 0.0
N915 N 0.8368 0.4176 1.0121 0.0
C916 C 0.79784 0.41648 1.02059 0.0
C917 C 0.77062 0.4112 0.98639 0.0
C918 C 0.87543 0.50277 0.28996 0.0
C919 C 0.8687 0.51097 0.2489 0.0
C920 C 0.88728 0.53283 0.31901 0.0
C921 C 0.89229 0.57252 0.30843 0.0
H922 H 0.87254 0.47276 0.2996 0.0
H923 H 0.89192 0.52493 0.35013 0.0
S924 S 0.87783 0.60982 0.20511 0.0
N925 N 0.86799 0.56204 0.1995 0.0
N926 N 0.88918 0.61798 0.25353 0.0
C927 C 0.88521 0.581 0.26752 0.0
C928 C 0.87375 0.55049 0.23802 0.0
C929 C 0.75985 0.6619 0.56335 0.0
C930 C 0.72154 0.64874 0.5489 0.0
C931 C 0.79226 0.66423 0.53776 0.0
C932 C 0.78782 0.65405 0.49642 0.0
H933 H 0.76496 0.67081 0.59482 0.0
H934 H 0.82087 0.67499 0.55027 0.0
S935 S 0.69508 0.61566 0.44321 0.0
N936 N 0.682 0.62369 0.49023 0.0
N937 N 0.74279 0.62832 0.44241 0.0
C938 C 0.75011 0.64007 0.48159 0.0
C939 C 0.71708 0.63731 0.5077 0.0
C940 C 0.36773 0.49515 0.266 0.0
C941 C 0.38656 0.53272 0.27281 0.0
C942 C 0.36902 0.4661 0.29534 0.0
C943 C 0.38937 0.47311 0.33299 0.0
H944 H 0.35182 0.48808 0.23764 0.0
H945 H 0.35399 0.43774 0.28821 0.0
S946 S 0.44381 0.56717 0.36549 0.0
N947 N 0.42619 0.57555 0.31979 0.0
N948 N 0.42885 0.52151 0.37482 0.0
C949 C 0.40819 0.51087 0.34009 0.0
C950 C 0.40668 0.54044 0.31017 0.0
C951 C 0.2448 0.6171 0.02973 0.0
C952 C 0.25669 0.6167 0.9892 0.0
C953 C 0.27227 0.62209 0.0625 0.0
C954 C 0.3132 0.62586 0.05654 0.0
H955 H 0.21376 0.61411 0.03635 0.0
H956 H 0.26128 0.62235 0.09287 0.0
S957 S 0.36035 0.62725 0.9567 0.0
N958 N 0.31262 0.62155 0.94522 0.0
N959 N 0.36422 0.62947 1.00656 0.0
C960 C 0.32563 0.6254 1.01621 0.0
C961 C 0.29749 0.62129 0.98272 0.0
C962 C 0.15068 0.5313 0.77212 0.0
C963 C 0.15366 0.52134 0.81309 0.0
C964 C 0.14205 0.50255 0.74104 0.0
C965 C 0.13707 0.46231 0.74928 0.0
H966 H 0.15428 0.56174 0.76398 0.0
H967 H 0.13985 0.51194 0.71016 0.0
S968 S 0.14257 0.4203 0.85124 0.0
N969 N 0.15071 0.46799 0.85996 0.0
N970 N 0.13608 0.41419 0.8018 0.0
C971 C 0.14054 0.4519 0.79004 0.0
C972 C 0.14834 0.48125 0.82178 0.0
C973 C 0.25348 0.36088 0.47615 0.0
C974 C 0.29036 0.38139 0.48472 0.0
C975 C 0.22205 0.36238 0.50309 0.0
C976 C 0.22618 0.38434 0.53976 0.0
H977 H 0.24887 0.34318 0.44857 0.0
H978 H 0.19458 0.34557 0.49558 0.0
S979 S 0.31517 0.44475 0.57651 0.0
N980 N 0.32797 0.42563 0.53285 0.0
N981 N 0.26916 0.42796 0.58278 0.0
C982 C 0.26234 0.4055 0.54845 0.0
C983 C 0.29428 0.40417 0.52117 0.0
loop_
_geom_bond_atom_site_label_1
_geom_bond_atom_site_label_2
_geom_bond_distance
_geom_bond_site_symmetry_2
_ccdc_geom_bond_type
Co0 O3 1.970 . S
Co0 N17 1.989 . S
Co0 O25 1.967 . S
Co0 O32 1.920 . S
Co1 O4 1.966 . S
Co1 N10 2.022 . S
Co1 N18 1.993 . S
Co1 O26 1.941 . S
C2 O3 1.258 . S
C2 O4 1.263 . S
O3 Co0 1.970 . S
O3 C2 1.258 . S
O4 Co1 1.966 . S
O4 C2 1.263 . S
C5 O6 1.235 . S
C5 O32 1.289 . S
O6 C5 1.235 . S
C7 C9 1.400 . S
C7 N10 1.351 . S
C7 C12 1.501 . S
C8 C9 1.387 . S
C8 N11 1.341 . S
C9 C7 1.400 . S
C9 C8 1.387 . S
N10 Co1 2.022 . S
N10 C7 1.351 . S
N10 N11 1.365 . S
N11 C8 1.341 . S
N11 N10 1.365 . S
N11 H31 0.862 . S
C12 C7 1.501 . S
C12 H13 0.961 . S
C12 H14 0.961 . S
C12 H15 0.960 . S
H13 C12 0.961 . S
H14 C12 0.961 . S
H15 C12 0.960 . S
C16 N17 1.342 . S
C16 C20 1.401 . S
C16 C21 1.499 . S
N17 Co0 1.989 . S
N17 C16 1.342 . S
N17 N18 1.388 . S
N18 Co1 1.993 . S
N18 N17 1.388 . S
N18 C19 1.346 . S
C19 N18 1.346 . S
C19 C20 1.396 . S
C19 C29 1.510 . S
C20 C16 1.401 . S
C20 C19 1.396 . S
C21 C16 1.499 . S
C21 H22 0.959 . S
C21 H23 0.960 . S
C21 H24 0.961 . S
H22 C21 0.959 . S
H23 C21 0.960 . S
H24 C21 0.961 . S
O25 Co0 1.967 . S
O25 C33 1.258 . S
O26 Co1 1.941 . S
O26 C33 1.266 . S
H27 C29 0.959 . S
H28 C29 0.961 . S
C29 C19 1.510 . S
C29 H27 0.959 . S
C29 H28 0.961 . S
C29 H30 0.960 . S
H30 C29 0.960 . S
H31 N11 0.862 . S
O32 Co0 1.920 . S
O32 C5 1.289 . S
C33 O25 1.258 . S
C33 O26 1.266 . S
Co34 O37 1.970 . S
Co34 N51 1.989 . S
Co34 O59 1.967 . S
Co34 O66 1.920 . S
Co35 O38 1.966 . S
Co35 N44 2.022 . S
Co35 N52 1.993 . S
Co35 O60 1.941 . S
C36 O37 1.258 . S
C36 O38 1.263 . S
O37 Co34 1.970 . S
O37 C36 1.258 . S
O38 Co35 1.966 . S
O38 C36 1.263 . S
C39 O40 1.235 . S
C39 O66 1.289 . S
O40 C39 1.235 . S
C41 C43 1.400 . S
C41 N44 1.351 . S
C41 C46 1.501 . S
C42 C43 1.387 . S
C42 N45 1.341 . S
C43 C41 1.400 . S
C43 C42 1.387 . S
N44 Co35 2.022 . S
N44 C41 1.351 . S
N44 N45 1.365 . S
N45 C42 1.341 . S
N45 N44 1.365 . S
N45 H65 0.862 . S
C46 C41 1.501 . S
C46 H47 0.961 . S
C46 H48 0.961 . S
C46 H49 0.960 . S
H47 C46 0.961 . S
H48 C46 0.961 . S
H49 C46 0.960 . S
C50 N51 1.342 . S
C50 C54 1.401 . S
C50 C55 1.499 . S
N51 Co34 1.989 . S
N51 C50 1.342 . S
N51 N52 1.388 . S
N52 Co35 1.993 . S
N52 N51 1.388 . S
N52 C53 1.346 . S
C53 N52 1.346 . S
C53 C54 1.396 . S
C53 C63 1.510 . S
C54 C50 1.401 . S
C54 C53 1.396 . S
C55 C50 1.499 . S
C55 H56 0.959 . S
C55 H57 0.960 . S
C55 H58 0.961 . S
H56 C55 0.959 . S
H57 C55 0.960 . S
H58 C55 0.961 . S
O59 Co34 1.967 . S
O59 C67 1.258 . S
O60 Co35 1.941 . S
O60 C67 1.266 . S
H61 C63 0.959 . S
H62 C63 0.961 . S
C63 C53 1.510 . S
C63 H61 0.959 . S
C63 H62 0.961 . S
C63 H64 0.960 . S
H64 C63 0.960 . S
H65 N45 0.862 . S
O66 Co34 1.920 . S
O66 C39 1.289 . S
C67 O59 1.258 . S
C67 O60 1.266 . S
Co68 O71 1.970 . S
Co68 N85 1.989 . S
Co68 O93 1.967 . S
Co68 O100 1.920 . S
Co69 O72 1.966 . S
Co69 N78 2.022 . S
Co69 N86 1.993 . S
Co69 O94 1.941 . S
C70 O71 1.258 . S
C70 O72 1.263 . S
O71 Co68 1.970 . S
O71 C70 1.258 . S
O72 Co69 1.966 . S
O72 C70 1.263 . S
C73 O74 1.235 . S
C73 O100 1.289 . S
O74 C73 1.235 . S
C75 C77 1.400 . S
C75 N78 1.351 . S
C75 C80 1.501 . S
C76 C77 1.387 . S
C76 N79 1.341 . S
C77 C75 1.400 . S
C77 C76 1.387 . S
N78 Co69 2.022 . S
N78 C75 1.351 . S
N78 N79 1.365 . S
N79 C76 1.341 . S
N79 N78 1.365 . S
N79 H99 0.862 . S
C80 C75 1.501 . S
C80 H81 0.961 . S
C80 H82 0.961 . S
C80 H83 0.960 . S
H81 C80 0.961 . S
H82 C80 0.961 . S
H83 C80 0.960 . S
C84 N85 1.342 . S
C84 C88 1.401 . S
C84 C89 1.499 . S
N85 Co68 1.989 . S
N85 C84 1.342 . S
N85 N86 1.388 . S
N86 Co69 1.993 . S
N86 N85 1.388 . S
N86 C87 1.346 . S
C87 N86 1.346 . S
C87 C88 1.396 . S
C87 C97 1.510 . S
C88 C84 1.401 . S
C88 C87 1.396 . S
C89 C84 1.499 . S
C89 H90 0.959 . S
C89 H91 0.960 . S
C89 H92 0.961 . S
H90 C89 0.959 . S
H91 C89 0.960 . S
H92 C89 0.961 . S
O93 Co68 1.967 . S
O93 C101 1.258 . S
O94 Co69 1.941 . S
O94 C101 1.266 . S
H95 C97 0.959 . S
H96 C97 0.961 . S
C97 C87 1.510 . S
C97 H95 0.959 . S
C97 H96 0.961 . S
C97 H98 0.960 . S
H98 C97 0.960 . S
H99 N79 0.862 . S
O100 Co68 1.920 . S
O100 C73 1.289 . S
C101 O93 1.258 . S
C101 O94 1.266 . S
Co102 O105 1.970 . S
Co102 N119 1.989 . S
Co102 O127 1.967 . S
Co102 O134 1.920 . S
Co103 O106 1.966 . S
Co103 N112 2.022 . S
Co103 N120 1.993 . S
Co103 O128 1.941 . S
C104 O105 1.258 . S
C104 O106 1.263 . S
O105 Co102 1.970 . S
O105 C104 1.258 . S
O106 Co103 1.966 . S
O106 C104 1.263 . S
C107 O108 1.235 . S
C107 O134 1.289 . S
O108 C107 1.235 . S
C109 C111 1.400 . S
C109 N112 1.351 . S
C109 C114 1.501 . S
C110 C111 1.387 . S
C110 N113 1.341 . S
C111 C109 1.400 . S
C111 C110 1.387 . S
N112 Co103 2.022 . S
N112 C109 1.351 . S
N112 N113 1.365 . S
N113 C110 1.341 . S
N113 N112 1.365 . S
N113 H133 0.862 . S
C114 C109 1.501 . S
C114 H115 0.961 . S
C114 H116 0.980 . S
C114 H117 0.960 . S
H115 C114 0.961 . S
H116 C114 0.980 . S
H117 C114 0.960 . S
C118 N119 1.342 . S
C118 C122 1.401 . S
C118 C123 1.499 . S
N119 Co102 1.989 . S
N119 C118 1.342 . S
N119 N120 1.388 . S
N120 Co103 1.993 . S
N120 N119 1.388 . S
N120 C121 1.346 . S
C121 N120 1.346 . S
C121 C122 1.396 . S
C121 C131 1.510 . S
C122 C118 1.401 . S
C122 C121 1.396 . S
C123 C118 1.499 . S
C123 H124 0.959 . S
C123 H125 0.960 . S
C123 H126 0.961 . S
H124 C123 0.959 . S
H125 C123 0.960 . S
H126 C123 0.961 . S
O127 Co102 1.967 . S
O127 C135 1.258 . S
O128 Co103 1.941 . S
O128 C135 1.266 . S
H129 C131 0.959 1_554 S
H130 C131 0.961 . S
C131 C121 1.510 . S
C131 H129 0.959 1_556 S
C131 H130 0.961 . S
C131 H132 0.960 . S
H132 C131 0.960 . S
H133 N113 0.862 . S
O134 Co102 1.920 . S
O134 C107 1.289 . S
C135 O127 1.258 . S
C135 O128 1.266 . S
Co136 O139 1.970 . S
Co136 N153 1.989 . S
Co136 O161 1.967 . S
Co136 O168 1.920 . S
Co137 O140 1.966 . S
Co137 N146 2.022 . S
Co137 N154 1.993 . S
Co137 O162 1.941 . S
C138 O139 1.258 . S
C138 O140 1.263 . S
O139 Co136 1.970 . S
O139 C138 1.258 . S
O140 Co137 1.966 . S
O140 C138 1.263 . S
C141 O142 1.235 . S
C141 O168 1.289 . S
O142 C141 1.235 . S
C143 C145 1.400 . S
C143 N146 1.351 . S
C143 C148 1.501 . S
C144 C145 1.387 . S
C144 N147 1.341 . S
C145 C143 1.400 . S
C145 C144 1.387 . S
N146 Co137 2.022 . S
N146 C143 1.351 . S
N146 N147 1.365 . S
N147 C144 1.341 . S
N147 N146 1.365 . S
N147 H167 0.862 . S
C148 C143 1.501 . S
C148 H149 0.961 . S
C148 H150 0.961 . S
C148 H151 0.960 . S
H149 C148 0.961 . S
H150 C148 0.961 . S
H151 C148 0.960 . S
C152 N153 1.342 . S
C152 C156 1.401 . S
C152 C157 1.499 . S
N153 Co136 1.989 . S
N153 C152 1.342 . S
N153 N154 1.388 . S
N154 Co137 1.993 . S
N154 N153 1.388 . S
N154 C155 1.346 . S
C155 N154 1.346 . S
C155 C156 1.396 . S
C155 C165 1.510 . S
C156 C152 1.401 . S
C156 C155 1.396 . S
C157 C152 1.499 . S
C157 H158 0.959 . S
C157 H159 0.960 . S
C157 H160 0.961 . S
H158 C157 0.959 . S
H159 C157 0.960 . S
H160 C157 0.961 . S
O161 Co136 1.967 . S
O161 C169 1.258 . S
O162 Co137 1.941 . S
O162 C169 1.266 . S
H163 C165 0.959 . S
H164 C165 0.961 . S
C165 C155 1.510 . S
C165 H163 0.959 . S
C165 H164 0.961 . S
C165 H166 0.960 . S
H166 C165 0.960 . S
H167 N147 0.862 . S
O168 Co136 1.920 . S
O168 C141 1.289 . S
C169 O161 1.258 . S
C169 O162 1.266 . S
Co170 O173 1.970 . S
Co170 N187 1.989 . S
Co170 O195 1.967 . S
Co170 O202 1.920 . S
Co171 O174 1.966 . S
Co171 N180 2.022 . S
Co171 N188 1.993 . S
Co171 O196 1.941 . S
C172 O173 1.258 . S
C172 O174 1.263 . S
O173 Co170 1.970 . S
O173 C172 1.258 . S
O174 Co171 1.966 . S
O174 C172 1.263 . S
C175 O176 1.235 . S
C175 O202 1.289 . S
O176 C175 1.235 . S
C177 C179 1.400 . S
C177 N180 1.351 . S
C177 C182 1.501 . S
C178 C179 1.387 . S
C178 N181 1.341 . S
C179 C177 1.400 . S
C179 C178 1.387 . S
N180 Co171 2.022 . S
N180 C177 1.351 . S
N180 N181 1.365 . S
N181 C178 1.341 . S
N181 N180 1.365 . S
N181 H201 0.862 . S
C182 C177 1.501 . S
C182 H183 0.961 . S
C182 H184 0.961 1_554 S
C182 H185 0.944 1_554 S
H183 C182 0.961 . S
H184 C182 0.961 1_556 S
H185 C182 0.944 1_556 S
C186 N187 1.342 . S
C186 C190 1.401 . S
C186 C191 1.499 . S
N187 Co170 1.989 . S
N187 C186 1.342 . S
N187 N188 1.388 . S
N188 Co171 1.993 . S
N188 N187 1.388 . S
N188 C189 1.346 . S
C189 N188 1.346 . S
C189 C190 1.396 . S
C189 C199 1.510 . S
C190 C186 1.401 . S
C190 C189 1.396 . S
C191 C186 1.499 . S
C191 H192 0.959 . S
C191 H193 0.960 . S
C191 H194 0.961 . S
H192 C191 0.959 . S
H193 C191 0.960 . S
H194 C191 0.961 . S
O195 Co170 1.967 . S
O195 C203 1.258 . S
O196 Co171 1.941 . S
O196 C203 1.266 . S
H197 C199 0.959 . S
H198 C199 0.961 . S
C199 C189 1.510 . S
C199 H197 0.959 . S
C199 H198 0.961 . S
C199 H200 0.960 . S
H200 C199 0.960 . S
H201 N181 0.862 . S
O202 Co170 1.920 . S
O202 C175 1.289 . S
C203 O195 1.258 . S
C203 O196 1.266 . S
Co204 O207 1.970 . S
Co204 N221 1.989 . S
Co204 O229 1.967 . S
Co204 O236 1.920 . S
Co205 O208 1.966 . S
Co205 N214 2.022 . S
Co205 N222 1.993 . S
Co205 O230 1.941 . S
C206 O207 1.258 . S
C206 O208 1.263 . S
O207 Co204 1.970 . S
O207 C206 1.258 . S
O208 Co205 1.966 . S
O208 C206 1.263 . S
C209 O210 1.235 . S
C209 O236 1.289 . S
O210 C209 1.235 . S
C211 C213 1.400 . S
C211 N214 1.351 . S
C211 C216 1.501 . S
C212 C213 1.387 . S
C212 N215 1.341 . S
C213 C211 1.400 . S
C213 C212 1.387 . S
N214 Co205 2.022 . S
N214 C211 1.351 . S
N214 N215 1.365 . S
N215 C212 1.341 . S
N215 N214 1.365 . S
N215 H235 0.862 . S
C216 C211 1.501 . S
C216 H217 0.961 . S
C216 H218 0.961 . S
C216 H219 0.960 . S
H217 C216 0.961 . S
H218 C216 0.961 . S
H219 C216 0.960 . S
C220 N221 1.342 . S
C220 C224 1.401 . S
C220 C225 1.499 . S
N221 Co204 1.989 . S
N221 C220 1.342 . S
N221 N222 1.388 . S
N222 Co205 1.993 . S
N222 N221 1.388 . S
N222 C223 1.346 . S
C223 N222 1.346 . S
C223 C224 1.396 . S
C223 C233 1.510 . S
C224 C220 1.401 . S
C224 C223 1.396 . S
C225 C220 1.499 . S
C225 H226 0.959 . S
C225 H227 0.960 . S
C225 H228 0.961 . S
H226 C225 0.959 . S
H227 C225 0.960 . S
H228 C225 0.961 . S
O229 Co204 1.967 . S
O229 C237 1.258 . S
O230 Co205 1.941 . S
O230 C237 1.266 . S
H231 C233 0.959 . S
H232 C233 0.961 . S
C233 C223 1.510 . S
C233 H231 0.959 . S
C233 H232 0.961 . S
C233 H234 0.960 . S
H234 C233 0.960 . S
H235 N215 0.862 . S
O236 Co204 1.920 . S
O236 C209 1.289 . S
C237 O229 1.258 . S
C237 O230 1.266 . S
Co238 O241 1.970 . S
Co238 N255 1.989 . S
Co238 O263 1.967 . S
Co238 O270 1.920 . S
Co239 O242 1.966 . S
Co239 N248 2.022 . S
Co239 N256 1.993 . S
Co239 O264 1.941 . S
C240 O241 1.258 . S
C240 O242 1.263 . S
O241 Co238 1.970 . S
O241 C240 1.258 . S
O242 Co239 1.966 . S
O242 C240 1.263 . S
C243 O244 1.235 . S
C243 O270 1.289 . S
O244 C243 1.235 . S
C245 C247 1.400 . S
C245 N248 1.351 . S
C245 C250 1.501 . S
C246 C247 1.387 . S
C246 N249 1.341 . S
C247 C245 1.400 . S
C247 C246 1.387 . S
N248 Co239 2.022 . S
N248 C245 1.351 . S
N248 N249 1.365 . S
N249 C246 1.341 . S
N249 N248 1.365 . S
N249 H269 0.862 . S
C250 C245 1.501 . S
C250 H251 0.961 . S
C250 H252 0.961 . S
C250 H253 0.960 1_565 S
H251 C250 0.961 . S
H252 C250 0.961 . S
H253 C250 0.960 1_545 S
C254 N255 1.342 . S
C254 C258 1.401 . S
C254 C259 1.499 . S
N255 Co238 1.989 . S
N255 C254 1.342 . S
N255 N256 1.388 . S
N256 Co239 1.993 . S
N256 N255 1.388 . S
N256 C257 1.346 . S
C257 N256 1.346 . S
C257 C258 1.396 . S
C257 C267 1.510 . S
C258 C254 1.401 . S
C258 C257 1.396 . S
C259 C254 1.499 . S
C259 H260 0.959 . S
C259 H261 0.960 . S
C259 H262 0.961 . S
H260 C259 0.959 . S
H261 C259 0.960 . S
H262 C259 0.961 . S
O263 Co238 1.967 . S
O263 C271 1.258 . S
O264 Co239 1.941 . S
O264 C271 1.266 . S
H265 C267 0.959 . S
H266 C267 0.961 . S
C267 C257 1.510 . S
C267 H265 0.959 . S
C267 H266 0.961 . S
C267 H268 0.960 . S
H268 C267 0.960 . S
H269 N249 0.862 . S
O270 Co238 1.920 . S
O270 C243 1.289 . S
C271 O263 1.258 . S
C271 O264 1.266 . S
Co272 O275 1.970 . S
Co272 N289 1.989 . S
Co272 O297 1.967 . S
Co272 O304 1.920 . S
Co273 O276 1.966 . S
Co273 N282 2.022 . S
Co273 N290 1.993 . S
Co273 O298 1.941 . S
C274 O275 1.258 . S
C274 O276 1.263 . S
O275 Co272 1.970 . S
O275 C274 1.258 . S
O276 Co273 1.966 . S
O276 C274 1.263 . S
C277 O278 1.235 . S
C277 O304 1.289 . S
O278 C277 1.235 . S
C279 C281 1.400 . S
C279 N282 1.351 . S
C279 C284 1.501 . S
C280 C281 1.387 . S
C280 N283 1.341 . S
C281 C279 1.400 . S
C281 C280 1.387 . S
N282 Co273 2.022 . S
N282 C279 1.351 . S
N282 N283 1.365 . S
N283 C280 1.341 . S
N283 N282 1.365 . S
N283 H303 0.862 . S
C284 C279 1.501 . S
C284 H285 0.961 . S
C284 H286 0.961 . S
C284 H287 0.960 . S
H285 C284 0.961 . S
H286 C284 0.961 . S
H287 C284 0.960 . S
C288 N289 1.342 . S
C288 C292 1.401 . S
C288 C293 1.499 . S
N289 Co272 1.989 . S
N289 C288 1.342 . S
N289 N290 1.388 . S
N290 Co273 1.993 . S
N290 N289 1.388 . S
N290 C291 1.346 . S
C291 N290 1.346 . S
C291 C292 1.396 . S
C291 C301 1.510 . S
C292 C288 1.401 . S
C292 C291 1.396 . S
C293 C288 1.499 . S
C293 H294 0.959 . S
C293 H295 0.960 . S
C293 H296 0.961 . S
H294 C293 0.959 . S
H295 C293 0.960 . S
H296 C293 0.961 . S
O297 Co272 1.967 . S
O297 C305 1.258 . S
O298 Co273 1.941 . S
O298 C305 1.266 . S
H299 C301 0.959 . S
H300 C301 0.961 . S
C301 C291 1.510 . S
C301 H299 0.959 . S
C301 H300 0.961 . S
C301 H302 0.960 . S
H302 C301 0.960 . S
H303 N283 0.862 . S
O304 Co272 1.920 . S
O304 C277 1.289 . S
C305 O297 1.258 . S
C305 O298 1.266 . S
Co306 O309 1.970 . S
Co306 N323 1.989 . S
Co306 O331 1.967 . S
Co306 O338 1.920 . S
Co307 O310 1.966 . S
Co307 N316 2.022 . S
Co307 N324 1.993 . S
Co307 O332 1.941 . S
C308 O309 1.258 . S
C308 O310 1.263 . S
O309 Co306 1.970 . S
O309 C308 1.258 . S
O310 Co307 1.966 . S
O310 C308 1.263 . S
C311 O312 1.235 . S
C311 O338 1.289 . S
O312 C311 1.235 . S
C313 C315 1.400 . S
C313 N316 1.351 . S
C313 C318 1.501 . S
C314 C315 1.387 . S
C314 N317 1.341 . S
C315 C313 1.400 . S
C315 C314 1.387 . S
N316 Co307 2.022 . S
N316 C313 1.351 . S
N316 N317 1.365 . S
N317 C314 1.341 . S
N317 N316 1.365 . S
N317 H337 0.862 . S
C318 C313 1.501 . S
C318 H319 0.961 . S
C318 H320 0.961 . S
C318 H321 0.960 . S
H319 C318 0.961 . S
H320 C318 0.961 . S
H321 C318 0.960 . S
C322 N323 1.342 . S
C322 C326 1.401 . S
C322 C327 1.499 . S
N323 Co306 1.989 . S
N323 C322 1.342 . S
N323 N324 1.388 . S
N324 Co307 1.993 . S
N324 N323 1.388 . S
N324 C325 1.346 . S
C325 N324 1.346 . S
C325 C326 1.396 . S
C325 C335 1.510 . S
C326 C322 1.401 . S
C326 C325 1.396 . S
C327 C322 1.499 . S
C327 H328 0.959 . S
C327 H329 0.960 . S
C327 H330 0.961 . S
H328 C327 0.959 . S
H329 C327 0.960 . S
H330 C327 0.961 . S
O331 Co306 1.967 . S
O331 C339 1.258 . S
O332 Co307 1.941 . S
O332 C339 1.266 . S
H333 C335 0.959 . S
H334 C335 0.961 . S
C335 C325 1.510 . S
C335 H333 0.959 . S
C335 H334 0.961 . S
C335 H336 0.960 . S
H336 C335 0.960 . S
H337 N317 0.862 . S
O338 Co306 1.920 . S
O338 C311 1.289 . S
C339 O331 1.258 . S
C339 O332 1.266 . S
Co340 O343 1.970 . S
Co340 N357 1.989 . S
Co340 O365 1.967 . S
Co340 O372 1.920 . S
Co341 O344 1.966 . S
Co341 N350 2.022 . S
Co341 N358 1.993 . S
Co341 O366 1.941 . S
C342 O343 1.258 . S
C342 O344 1.263 . S
O343 Co340 1.970 . S
O343 C342 1.258 . S
O344 Co341 1.966 . S
O344 C342 1.263 . S
C345 O346 1.235 . S
C345 O372 1.289 . S
O346 C345 1.235 . S
C347 C349 1.400 . S
C347 N350 1.351 . S
C347 C352 1.501 . S
C348 C349 1.387 . S
C348 N351 1.341 . S
C349 C347 1.400 . S
C349 C348 1.387 . S
N350 Co341 2.022 . S
N350 C347 1.351 . S
N350 N351 1.365 . S
N351 C348 1.341 . S
N351 N350 1.365 . S
N351 H371 0.862 . S
C352 C347 1.501 . S
C352 H353 0.961 . S
C352 H354 0.961 . S
C352 H355 0.960 . S
H353 C352 0.961 . S
H354 C352 0.961 . S
H355 C352 0.960 . S
C356 N357 1.342 . S
C356 C360 1.401 . S
C356 C361 1.499 . S
N357 Co340 1.989 . S
N357 C356 1.342 . S
N357 N358 1.388 . S
N358 Co341 1.993 . S
N358 N357 1.388 . S
N358 C359 1.346 . S
C359 N358 1.346 . S
C359 C360 1.396 . S
C359 C369 1.510 . S
C360 C356 1.401 . S
C360 C359 1.396 . S
C361 C356 1.499 . S
C361 H362 0.959 . S
C361 H363 0.960 . S
C361 H364 0.942 1_554 S
H362 C361 0.959 . S
H363 C361 0.960 . S
H364 C361 0.942 1_556 S
O365 Co340 1.967 . S
O365 C373 1.258 . S
O366 Co341 1.941 . S
O366 C373 1.266 . S
H367 C369 0.959 . S
H368 C369 0.961 . S
C369 C359 1.510 . S
C369 H367 0.959 . S
C369 H368 0.961 . S
C369 H370 0.960 . S
H370 C369 0.960 . S
H371 N351 0.862 . S
O372 Co340 1.920 . S
O372 C345 1.289 . S
C373 O365 1.258 . S
C373 O366 1.266 . S
Co374 O377 1.970 . S
Co374 N391 1.989 . S
Co374 O399 1.967 . S
Co374 O406 1.920 . S
Co375 O378 1.966 . S
Co375 N384 2.022 . S
Co375 N392 1.993 . S
Co375 O400 1.941 . S
C376 O377 1.258 . S
C376 O378 1.263 . S
O377 Co374 1.970 . S
O377 C376 1.258 . S
O378 Co375 1.966 . S
O378 C376 1.263 . S
C379 O380 1.235 . S
C379 O406 1.289 . S
O380 C379 1.235 . S
C381 C383 1.400 . S
C381 N384 1.351 . S
C381 C386 1.501 . S
C382 C383 1.387 . S
C382 N385 1.341 . S
C383 C381 1.400 . S
C383 C382 1.387 . S
N384 Co375 2.022 . S
N384 C381 1.351 . S
N384 N385 1.365 . S
N385 C382 1.341 . S
N385 N384 1.365 . S
N385 H405 0.862 . S
C386 C381 1.501 . S
C386 H387 0.961 . S
C386 H388 0.961 . S
C386 H389 0.960 1_554 S
H387 C386 0.961 . S
H388 C386 0.961 . S
H389 C386 0.960 1_556 S
C390 N391 1.342 . S
C390 C394 1.401 . S
C390 C395 1.499 . S
N391 Co374 1.989 . S
N391 C390 1.342 . S
N391 N392 1.388 . S
N392 Co375 1.993 . S
N392 N391 1.388 . S
N392 C393 1.346 . S
C393 N392 1.346 . S
C393 C394 1.396 . S
C393 C403 1.510 . S
C394 C390 1.401 . S
C394 C393 1.396 . S
C395 C390 1.499 . S
C395 H396 0.959 . S
C395 H397 0.960 . S
C395 H398 0.961 . S
H396 C395 0.959 . S
H397 C395 0.960 . S
H398 C395 0.961 . S
O399 Co374 1.967 . S
O399 C407 1.258 . S
O400 Co375 1.941 . S
O400 C407 1.266 . S
H401 C403 0.959 . S
H402 C403 0.961 . S
C403 C393 1.510 . S
C403 H401 0.959 . S
C403 H402 0.961 . S
C403 H404 0.960 . S
H404 C403 0.960 . S
H405 N385 0.862 . S
O406 Co374 1.920 . S
O406 C379 1.289 . S
C407 O399 1.258 . S
C407 O400 1.266 . S
Co408 O411 1.970 . S
Co408 N425 1.989 . S
Co408 O433 1.967 . S
Co408 O440 1.920 . S
Co409 O412 1.966 . S
Co409 N418 2.022 . S
Co409 N426 1.993 . S
Co409 O434 1.941 . S
C410 O411 1.258 . S
C410 O412 1.263 . S
O411 Co408 1.970 . S
O411 C410 1.258 . S
O412 Co409 1.966 . S
O412 C410 1.263 . S
C413 O414 1.235 . S
C413 O440 1.289 . S
O414 C413 1.235 . S
C415 C417 1.400 . S
C415 N418 1.351 . S
C415 C420 1.501 . S
C416 C417 1.387 . S
C416 N419 1.341 . S
C417 C415 1.400 . S
C417 C416 1.387 . S
N418 Co409 2.022 . S
N418 C415 1.351 . S
N418 N419 1.365 . S
N419 C416 1.341 . S
N419 N418 1.365 . S
N419 H439 0.862 . S
C420 C415 1.501 . S
C420 H421 0.961 . S
C420 H422 0.961 . S
C420 H423 0.960 . S
H421 C420 0.961 . S
H422 C420 0.961 . S
H423 C420 0.960 . S
C424 N425 1.342 . S
C424 C428 1.401 . S
C424 C429 1.499 . S
N425 Co408 1.989 . S
N425 C424 1.342 . S
N425 N426 1.388 . S
N426 Co409 1.993 . S
N426 N425 1.388 . S
N426 C427 1.346 . S
C427 N426 1.346 . S
C427 C428 1.396 . S
C427 C437 1.510 . S
C428 C424 1.401 . S
C428 C427 1.396 . S
C429 C424 1.499 . S
C429 H430 0.959 . S
C429 H431 0.960 . S
C429 H432 0.961 1_455 S
H430 C429 0.959 . S
H431 C429 0.960 . S
H432 C429 0.961 1_655 S
O433 Co408 1.967 . S
O433 C441 1.258 . S
O434 Co409 1.941 . S
O434 C441 1.266 . S
H435 C437 0.959 . S
H436 C437 0.961 . S
C437 C427 1.510 . S
C437 H435 0.959 . S
C437 H436 0.961 . S
C437 H438 0.960 . S
H438 C437 0.960 . S
H439 N419 0.862 . S
O440 Co408 1.920 . S
O440 C413 1.289 . S
C441 O433 1.258 . S
C441 O434 1.266 . S
Co442 O445 1.970 . S
Co442 N459 1.989 . S
Co442 O467 1.967 . S
Co442 O474 1.920 . S
Co443 O446 1.966 . S
Co443 N452 2.022 . S
Co443 N460 1.993 . S
Co443 O468 1.941 . S
C444 O445 1.258 . S
C444 O446 1.263 . S
O445 Co442 1.970 . S
O445 C444 1.258 . S
O446 Co443 1.966 . S
O446 C444 1.263 . S
C447 O448 1.235 . S
C447 O474 1.289 . S
O448 C447 1.235 . S
C449 C451 1.400 . S
C449 N452 1.351 . S
C449 C454 1.501 . S
C450 C451 1.387 . S
C450 N453 1.341 . S
C451 C449 1.400 . S
C451 C450 1.387 . S
N452 Co443 2.022 . S
N452 C449 1.351 . S
N452 N453 1.365 . S
N453 C450 1.341 . S
N453 N452 1.365 . S
N453 H473 0.862 . S
C454 C449 1.501 . S
C454 H455 0.961 . S
C454 H456 0.961 . S
C454 H457 0.960 . S
H455 C454 0.961 . S
H456 C454 0.961 . S
H457 C454 0.960 . S
C458 N459 1.342 . S
C458 C462 1.401 . S
C458 C463 1.499 . S
N459 Co442 1.989 . S
N459 C458 1.342 . S
N459 N460 1.388 . S
N460 Co443 1.993 . S
N460 N459 1.388 . S
N460 C461 1.346 . S
C461 N460 1.346 . S
C461 C462 1.396 . S
C461 C471 1.510 . S
C462 C458 1.401 . S
C462 C461 1.396 . S
C463 C458 1.499 . S
C463 H464 0.959 . S
C463 H465 0.960 . S
C463 H466 0.961 . S
H464 C463 0.959 . S
H465 C463 0.960 . S
H466 C463 0.961 . S
O467 Co442 1.967 . S
O467 C475 1.258 . S
O468 Co443 1.941 . S
O468 C475 1.266 . S
H469 C471 0.959 . S
H470 C471 0.961 . S
C471 C461 1.510 . S
C471 H469 0.959 . S
C471 H470 0.961 . S
C471 H472 0.960 . S
H472 C471 0.960 . S
H473 N453 0.862 . S
O474 Co442 1.920 . S
O474 C447 1.289 . S
C475 O467 1.258 . S
C475 O468 1.266 . S
Co476 O479 1.970 . S
Co476 N493 1.989 . S
Co476 O501 1.967 . S
Co476 O508 1.920 . S
Co477 O480 1.966 . S
Co477 N486 2.022 . S
Co477 N494 1.993 . S
Co477 O502 1.941 . S
C478 O479 1.258 . S
C478 O480 1.263 . S
O479 Co476 1.970 . S
O479 C478 1.258 . S
O480 Co477 1.966 . S
O480 C478 1.263 . S
C481 O482 1.235 . S
C481 O508 1.289 . S
O482 C481 1.235 . S
C483 C485 1.400 . S
C483 N486 1.351 . S
C483 C488 1.501 . S
C484 C485 1.387 . S
C484 N487 1.341 . S
C485 C483 1.400 . S
C485 C484 1.387 . S
N486 Co477 2.022 . S
N486 C483 1.351 . S
N486 N487 1.365 . S
N487 C484 1.341 . S
N487 N486 1.365 . S
N487 H507 0.862 . S
C488 C483 1.501 . S
C488 H489 0.961 . S
C488 H490 0.961 . S
C488 H491 0.960 . S
H489 C488 0.961 . S
H490 C488 0.961 . S
H491 C488 0.960 . S
C492 N493 1.342 . S
C492 C496 1.401 . S
C492 C497 1.499 . S
N493 Co476 1.989 . S
N493 C492 1.342 . S
N493 N494 1.388 . S
N494 Co477 1.993 . S
N494 N493 1.388 . S
N494 C495 1.346 . S
C495 N494 1.346 . S
C495 C496 1.396 . S
C495 C505 1.510 . S
C496 C492 1.401 . S
C496 C495 1.396 . S
C497 C492 1.499 . S
C497 H498 0.959 . S
C497 H499 0.960 . S
C497 H500 0.961 . S
H498 C497 0.959 . S
H499 C497 0.960 . S
H500 C497 0.961 . S
O501 Co476 1.967 . S
O501 C509 1.258 . S
O502 Co477 1.941 . S
O502 C509 1.266 . S
H503 C505 0.959 . S
H504 C505 0.961 . S
C505 C495 1.510 . S
C505 H503 0.959 . S
C505 H504 0.961 . S
C505 H506 0.960 . S
H506 C505 0.960 . S
H507 N487 0.862 . S
O508 Co476 1.920 . S
O508 C481 1.289 . S
C509 O501 1.258 . S
C509 O502 1.266 . S
Co510 O513 1.970 . S
Co510 N527 1.989 . S
Co510 O535 1.967 . S
Co510 O542 1.920 . S
Co511 O514 1.966 . S
Co511 N520 2.022 . S
Co511 N528 1.993 . S
Co511 O536 1.941 . S
C512 O513 1.258 . S
C512 O514 1.263 . S
O513 Co510 1.970 . S
O513 C512 1.258 . S
O514 Co511 1.966 . S
O514 C512 1.263 . S
C515 O516 1.235 . S
C515 O542 1.289 . S
O516 C515 1.235 . S
C517 C519 1.400 . S
C517 N520 1.351 . S
C517 C522 1.501 . S
C518 C519 1.387 . S
C518 N521 1.341 . S
C519 C517 1.400 . S
C519 C518 1.387 . S
N520 Co511 2.022 . S
N520 C517 1.351 . S
N520 N521 1.365 . S
N521 C518 1.341 . S
N521 N520 1.365 . S
N521 H541 0.862 . S
C522 C517 1.501 . S
C522 H523 0.961 . S
C522 H524 0.961 . S
C522 H525 0.960 . S
H523 C522 0.961 . S
H524 C522 0.961 . S
H525 C522 0.960 . S
C526 N527 1.342 . S
C526 C530 1.401 . S
C526 C531 1.499 . S
N527 Co510 1.989 . S
N527 C526 1.342 . S
N527 N528 1.388 . S
N528 Co511 1.993 . S
N528 N527 1.388 . S
N528 C529 1.346 . S
C529 N528 1.346 . S
C529 C530 1.396 . S
C529 C539 1.510 . S
C530 C526 1.401 . S
C530 C529 1.396 . S
C531 C526 1.499 . S
C531 H532 0.959 . S
C531 H533 0.960 . S
C531 H534 0.961 . S
H532 C531 0.959 . S
H533 C531 0.960 . S
H534 C531 0.961 . S
O535 Co510 1.967 . S
O535 C543 1.258 . S
O536 Co511 1.941 . S
O536 C543 1.266 . S
H537 C539 0.959 . S
H538 C539 0.961 . S
C539 C529 1.510 . S
C539 H537 0.959 . S
C539 H538 0.961 . S
C539 H540 0.960 . S
H540 C539 0.960 . S
H541 N521 0.862 . S
O542 Co510 1.920 . S
O542 C515 1.289 . S
C543 O535 1.258 . S
C543 O536 1.266 . S
C544 C545 1.369 . S
C544 C546 1.419 . S
C544 H548 0.930 . S
C545 C544 1.369 . S
C545 C554 1.429 . S
C546 C544 1.419 . S
C546 C547 1.363 . S
C546 H549 0.929 . S
C547 C546 1.363 . S
C547 C553 1.428 . S
H548 C544 0.930 . S
H549 C546 0.929 . S
S550 N551 1.613 . S
S550 N552 1.610 . S
N551 S550 1.613 . S
N551 C554 1.350 . S
N552 S550 1.610 . S
N552 C553 1.351 . S
C553 C547 1.428 . S
C553 N552 1.351 . S
C553 C554 1.434 . S
C554 C545 1.429 . S
C554 N551 1.350 . S
C554 C553 1.434 . S
C555 C556 1.369 . S
C555 C557 1.419 1_655 S
C555 H559 0.930 1_565 S
C556 C555 1.369 . S
C556 C565 1.429 1_655 S
C557 C555 1.419 1_455 S
C557 C558 1.363 . S
C557 H560 0.929 . S
C558 C557 1.363 . S
C558 C564 1.428 . S
H559 C555 0.930 1_545 S
H560 C557 0.929 . S
S561 N562 1.613 . S
S561 N563 1.610 . S
N562 S561 1.613 . S
N562 C565 1.350 . S
N563 S561 1.610 . S
N563 C564 1.351 . S
C564 C558 1.428 . S
C564 N563 1.351 . S
C564 C565 1.434 . S
C565 C556 1.429 1_455 S
C565 N562 1.350 . S
C565 C564 1.434 . S
C566 C567 1.369 . S
C566 C568 1.419 . S
C566 H570 0.930 . S
C567 C566 1.369 . S
C567 C576 1.429 . S
C568 C566 1.419 . S
C568 C569 1.363 . S
C568 H571 0.929 . S
C569 C568 1.363 . S
C569 C575 1.428 . S
H570 C566 0.930 . S
H571 C568 0.929 . S
S572 N573 1.613 . S
S572 N574 1.610 . S
N573 S572 1.613 . S
N573 C576 1.350 . S
N574 S572 1.610 . S
N574 C575 1.351 . S
C575 C569 1.428 . S
C575 N574 1.351 . S
C575 C576 1.434 . S
C576 C567 1.429 . S
C576 N573 1.350 . S
C576 C575 1.434 . S
C577 C578 1.369 1_564 S
C577 C579 1.421 . S
C577 H581 0.928 1_565 S
C578 C577 1.369 1_546 S
C578 C587 1.429 1_545 S
C579 C577 1.421 . S
C579 C580 1.363 . S
C579 H582 0.929 . S
C580 C579 1.363 . S
C580 C586 1.428 1_554 S
H581 C577 0.928 1_545 S
H582 C579 0.929 . S
S583 N584 1.613 . S
S583 N585 1.610 . S
N584 S583 1.613 . S
N584 C587 1.350 . S
N585 S583 1.610 . S
N585 C586 1.351 . S
C586 C580 1.428 1_556 S
C586 N585 1.351 . S
C586 C587 1.434 . S
C587 C578 1.429 1_565 S
C587 N584 1.350 . S
C587 C586 1.434 . S
C588 C589 1.369 . S
C588 C590 1.419 . S
C588 H592 0.930 . S
C589 C588 1.369 . S
C589 C598 1.429 . S
C590 C588 1.419 . S
C590 C591 1.363 . S
C590 H593 0.929 . S
C591 C590 1.363 . S
C591 C597 1.428 . S
H592 C588 0.930 . S
H593 C590 0.929 . S
S594 N595 1.613 . S
S594 N596 1.610 . S
N595 S594 1.613 . S
N595 C598 1.350 . S
N596 S594 1.610 . S
N596 C597 1.351 . S
C597 C591 1.428 . S
C597 N596 1.351 . S
C597 C598 1.434 . S
C598 C589 1.429 . S
C598 N595 1.350 . S
C598 C597 1.434 . S
C599 C600 1.369 1_545 S
C599 C601 1.419 . S
C599 H603 0.930 . S
C600 C599 1.369 1_565 S
C600 C609 1.429 . S
C601 C599 1.419 . S
C601 C602 1.363 . S
C601 H604 0.929 . S
C602 C601 1.363 . S
C602 C608 1.428 . S
H603 C599 0.930 . S
H604 C601 0.929 . S
S605 N606 1.613 . S
S605 N607 1.610 . S
N606 S605 1.613 . S
N606 C609 1.350 . S
N607 S605 1.610 . S
N607 C608 1.351 1_565 S
C608 C602 1.428 . S
C608 N607 1.351 1_545 S
C608 C609 1.434 1_545 S
C609 C600 1.429 . S
C609 N606 1.350 . S
C609 C608 1.434 1_565 S
C610 C611 1.369 . S
C610 C612 1.419 . S
C610 H614 0.930 . S
C611 C610 1.369 . S
C611 C620 1.429 . S
C612 C610 1.419 . S
C612 C613 1.363 . S
C612 H615 0.929 . S
C613 C612 1.363 . S
C613 C619 1.428 . S
H614 C610 0.930 . S
H615 C612 0.929 . S
S616 N617 1.613 . S
S616 N618 1.610 . S
N617 S616 1.613 . S
N617 C620 1.350 . S
N618 S616 1.610 . S
N618 C619 1.351 . S
C619 C613 1.428 . S
C619 N618 1.351 . S
C619 C620 1.434 . S
C620 C611 1.429 . S
C620 N617 1.350 . S
C620 C619 1.434 . S
C621 C622 1.369 . S
C621 C623 1.419 1_554 S
C621 H625 0.930 . S
C622 C621 1.369 . S
C622 C631 1.429 1_545 S
C623 C621 1.419 1_556 S
C623 C624 1.363 1_545 S
C623 H626 0.929 . S
C624 C623 1.363 1_565 S
C624 C630 1.428 1_556 S
H625 C621 0.930 . S
H626 C623 0.929 . S
S627 N628 1.613 . S
S627 N629 1.612 . S
N628 S627 1.613 . S
N628 C631 1.350 . S
N629 S627 1.612 . S
N629 C630 1.352 . S
C630 C624 1.428 1_554 S
C630 N629 1.352 . S
C630 C631 1.434 . S
C631 C622 1.429 1_565 S
C631 N628 1.350 . S
C631 C630 1.434 . S
C632 C633 1.369 . S
C632 C634 1.419 . S
C632 H636 0.930 . S
C633 C632 1.369 . S
C633 C642 1.429 . S
C634 C632 1.419 . S
C634 C635 1.363 . S
C634 H637 0.929 . S
C635 C634 1.363 . S
C635 C641 1.428 . S
H636 C632 0.930 . S
H637 C634 0.929 . S
S638 N639 1.613 . S
S638 N640 1.610 . S
N639 S638 1.613 . S
N639 C642 1.350 . S
N640 S638 1.610 . S
N640 C641 1.351 . S
C641 C635 1.428 . S
C641 N640 1.351 . S
C641 C642 1.434 . S
C642 C633 1.429 . S
C642 N639 1.350 . S
C642 C641 1.434 . S
C643 C644 1.369 1_554 S
C643 C645 1.419 1_455 S
C643 H647 0.930 . S
C644 C643 1.369 1_556 S
C644 C653 1.429 . S
C645 C643 1.419 1_655 S
C645 C646 1.363 . S
C645 H648 0.929 . S
C646 C645 1.363 . S
C646 C652 1.428 1_654 S
H647 C643 0.930 . S
H648 C645 0.929 . S
S649 N650 1.613 . S
S649 N651 1.610 . S
N650 S649 1.613 . S
N650 C653 1.350 . S
N651 S649 1.610 . S
N651 C652 1.351 . S
C652 C646 1.428 1_456 S
C652 N651 1.351 . S
C652 C653 1.434 . S
C653 C644 1.429 . S
C653 N650 1.350 . S
C653 C652 1.434 . S
C654 C655 1.369 . S
C654 C656 1.419 . S
C654 H658 0.930 . S
C655 C654 1.369 . S
C655 C664 1.429 . S
C656 C654 1.419 . S
C656 C657 1.363 . S
C656 H659 0.929 . S
C657 C656 1.363 . S
C657 C663 1.428 . S
H658 C654 0.930 . S
H659 C656 0.929 . S
S660 N661 1.613 . S
S660 N662 1.610 . S
N661 S660 1.613 . S
N661 C664 1.350 . S
N662 S660 1.610 . S
N662 C663 1.351 . S
C663 C657 1.428 . S
C663 N662 1.351 . S
C663 C664 1.434 . S
C664 C655 1.429 . S
C664 N661 1.350 . S
C664 C663 1.434 . S
C665 C666 1.369 . S
C665 C667 1.419 . S
C665 H669 0.930 . S
C666 C665 1.369 . S
C666 C675 1.429 1_655 S
C667 C665 1.419 . S
C667 C668 1.363 1_655 S
C667 H670 0.929 . S
C668 C667 1.363 1_455 S
C668 C674 1.428 . S
H669 C665 0.930 . S
H670 C667 0.929 . S
S671 N672 1.613 . S
S671 N673 1.610 . S
N672 S671 1.613 . S
N672 C675 1.350 . S
N673 S671 1.610 . S
N673 C674 1.351 . S
C674 C668 1.428 . S
C674 N673 1.351 . S
C674 C675 1.434 . S
C675 C666 1.429 1_455 S
C675 N672 1.350 . S
C675 C674 1.434 . S
C676 C677 1.369 . S
C676 C678 1.419 1_556 S
C676 H680 0.930 . S
C677 C676 1.369 . S
C677 C686 1.429 . S
C678 C676 1.419 1_554 S
C678 C679 1.363 . S
C678 H681 0.929 . S
C679 C678 1.363 . S
C679 C685 1.428 1_554 S
H680 C676 0.930 . S
H681 C678 0.929 . S
S682 N683 1.613 . S
S682 N684 1.610 . S
N683 S682 1.613 . S
N683 C686 1.350 . S
N684 S682 1.610 . S
N684 C685 1.351 . S
C685 C679 1.428 1_556 S
C685 N684 1.351 . S
C685 C686 1.434 . S
C686 C677 1.429 . S
C686 N683 1.350 . S
C686 C685 1.434 . S
C687 C688 1.369 . S
C687 C689 1.419 . S
C687 H691 0.930 . S
C688 C687 1.369 . S
C688 C697 1.429 . S
C689 C687 1.419 . S
C689 C690 1.363 . S
C689 H692 0.929 . S
C690 C689 1.363 . S
C690 C696 1.428 . S
H691 C687 0.930 . S
H692 C689 0.929 . S
S693 N694 1.613 . S
S693 N695 1.610 . S
N694 S693 1.613 . S
N694 C697 1.350 . S
N695 S693 1.610 . S
N695 C696 1.351 . S
C696 C690 1.428 . S
C696 N695 1.351 . S
C696 C697 1.434 . S
C697 C688 1.429 . S
C697 N694 1.350 . S
C697 C696 1.434 . S
C698 C699 1.369 . S
C698 C700 1.419 . S
C698 H702 0.930 . S
C699 C698 1.369 . S
C699 C708 1.429 . S
C700 C698 1.419 . S
C700 C701 1.363 . S
C700 H703 0.929 . S
C701 C700 1.363 . S
C701 C707 1.428 . S
H702 C698 0.930 . S
H703 C700 0.929 . S
S704 N705 1.613 . S
S704 N706 1.610 . S
N705 S704 1.613 . S
N705 C708 1.350 . S
N706 S704 1.610 . S
N706 C707 1.351 . S
C707 C701 1.428 . S
C707 N706 1.351 . S
C707 C708 1.434 . S
C708 C699 1.429 . S
C708 N705 1.350 . S
C708 C707 1.434 . S
C709 C710 1.369 . S
C709 C711 1.419 . S
C709 H713 0.930 . S
C710 C709 1.369 . S
C710 C719 1.429 . S
C711 C709 1.419 . S
C711 C712 1.363 . S
C711 H714 0.929 . S
C712 C711 1.363 . S
C712 C718 1.428 . S
H713 C709 0.930 . S
H714 C711 0.929 . S
S715 N716 1.613 . S
S715 N717 1.610 . S
N716 S715 1.613 . S
N716 C719 1.350 . S
N717 S715 1.610 . S
N717 C718 1.351 . S
C718 C712 1.428 . S
C718 N717 1.351 . S
C718 C719 1.434 . S
C719 C710 1.429 . S
C719 N716 1.350 . S
C719 C718 1.434 . S
C720 C721 1.369 . S
C720 C722 1.419 1_545 S
C720 H724 0.930 . S
C721 C720 1.369 . S
C721 C730 1.429 . S
C722 C720 1.419 1_565 S
C722 C723 1.363 . S
C722 H725 0.929 . S
C723 C722 1.363 . S
C723 C729 1.428 1_565 S
H724 C720 0.930 . S
H725 C722 0.929 . S
S726 N727 1.613 . S
S726 N728 1.610 . S
N727 S726 1.613 . S
N727 C730 1.350 . S
N728 S726 1.610 . S
N728 C729 1.351 . S
C729 C723 1.428 1_545 S
C729 N728 1.351 . S
C729 C730 1.434 . S
C730 C721 1.429 . S
C730 N727 1.350 . S
C730 C729 1.434 . S
C731 C732 1.369 . S
C731 C733 1.419 . S
C731 H735 0.930 . S
C732 C731 1.369 . S
C732 C741 1.429 . S
C733 C731 1.419 . S
C733 C734 1.363 . S
C733 H736 0.929 . S
C734 C733 1.363 . S
C734 C740 1.428 . S
H735 C731 0.930 . S
H736 C733 0.929 . S
S737 N738 1.613 . S
S737 N739 1.610 . S
N738 S737 1.613 . S
N738 C741 1.350 . S
N739 S737 1.610 . S
N739 C740 1.351 . S
C740 C734 1.428 . S
C740 N739 1.351 . S
C740 C741 1.434 . S
C741 C732 1.429 . S
C741 N738 1.350 . S
C741 C740 1.434 . S
C742 C743 1.369 1_545 S
C742 C744 1.419 . S
C742 H746 0.930 . S
C743 C742 1.369 1_565 S
C743 C752 1.429 . S
C744 C742 1.419 . S
C744 C745 1.363 . S
C744 H747 0.929 . S
C745 C744 1.363 . S
C745 C751 1.428 . S
H746 C742 0.930 . S
H747 C744 0.929 . S
S748 N749 1.613 . S
S748 N750 1.610 1_565 S
N749 S748 1.613 . S
N749 C752 1.350 . S
N750 S748 1.610 1_545 S
N750 C751 1.351 . S
C751 C745 1.428 . S
C751 N750 1.351 . S
C751 C752 1.434 1_545 S
C752 C743 1.429 . S
C752 N749 1.350 . S
C752 C751 1.434 1_565 S
C753 C754 1.369 1_554 S
C753 C755 1.419 . S
C753 H757 0.930 . S
C754 C753 1.369 1_556 S
C754 C763 1.429 . S
C755 C753 1.419 . S
C755 C756 1.363 . S
C755 H758 0.929 . S
C756 C755 1.363 . S
C756 C762 1.428 . S
H757 C753 0.930 . S
H758 C755 0.929 . S
S759 N760 1.613 . S
S759 N761 1.610 . S
N760 S759 1.613 . S
N760 C763 1.350 . S
N761 S759 1.610 . S
N761 C762 1.351 1_556 S
C762 C756 1.428 . S
C762 N761 1.351 1_554 S
C762 C763 1.434 1_554 S
C763 C754 1.429 . S
C763 N760 1.350 . S
C763 C762 1.434 1_556 S
C764 C765 1.369 . S
C764 C766 1.419 . S
C764 H768 0.930 . S
C765 C764 1.369 . S
C765 C774 1.429 1_455 S
C766 C764 1.419 . S
C766 C767 1.363 1_455 S
C766 H769 0.929 . S
C767 C766 1.363 1_655 S
C767 C773 1.428 . S
H768 C764 0.930 . S
H769 C766 0.929 . S
S770 N771 1.613 . S
S770 N772 1.610 . S
N771 S770 1.613 . S
N771 C774 1.350 . S
N772 S770 1.610 . S
N772 C773 1.351 . S
C773 C767 1.428 . S
C773 N772 1.351 . S
C773 C774 1.434 . S
C774 C765 1.429 1_655 S
C774 N771 1.350 . S
C774 C773 1.434 . S
C775 C776 1.369 . S
C775 C777 1.419 . S
C775 H779 0.930 . S
C776 C775 1.369 . S
C776 C785 1.429 . S
C777 C775 1.419 . S
C777 C778 1.363 . S
C777 H780 0.929 . S
C778 C777 1.363 . S
C778 C784 1.428 . S
H779 C775 0.930 . S
H780 C777 0.929 . S
S781 N782 1.613 . S
S781 N783 1.610 . S
N782 S781 1.613 . S
N782 C785 1.350 . S
N783 S781 1.610 . S
N783 C784 1.351 . S
C784 C778 1.428 . S
C784 N783 1.351 . S
C784 C785 1.434 . S
C785 C776 1.429 . S
C785 N782 1.350 . S
C785 C784 1.434 . S
C786 C787 1.369 . S
C786 C788 1.419 . S
C786 H790 0.930 . S
C787 C786 1.369 . S
C787 C796 1.429 1_655 S
C788 C786 1.419 . S
C788 C789 1.363 1_655 S
C788 H791 0.929 . S
C789 C788 1.363 1_455 S
C789 C795 1.428 . S
H790 C786 0.930 . S
H791 C788 0.929 . S
S792 N793 1.613 . S
S792 N794 1.610 . S
N793 S792 1.613 . S
N793 C796 1.350 . S
N794 S792 1.610 . S
N794 C795 1.351 . S
C795 C789 1.428 . S
C795 N794 1.351 . S
C795 C796 1.434 . S
C796 C787 1.429 1_455 S
C796 N793 1.350 . S
C796 C795 1.434 . S
C797 C798 1.369 . S
C797 C799 1.419 . S
C797 H801 0.930 . S
C798 C797 1.369 . S
C798 C807 1.429 . S
C799 C797 1.419 . S
C799 C800 1.363 . S
C799 H802 0.929 . S
C800 C799 1.363 . S
C800 C806 1.428 . S
H801 C797 0.930 . S
H802 C799 0.929 . S
S803 N804 1.613 . S
S803 N805 1.610 . S
N804 S803 1.613 . S
N804 C807 1.350 . S
N805 S803 1.610 . S
N805 C806 1.351 . S
C806 C800 1.428 . S
C806 N805 1.351 . S
C806 C807 1.434 . S
C807 C798 1.429 . S
C807 N804 1.350 . S
C807 C806 1.434 . S
C808 C809 1.369 . S
C808 C810 1.419 1_545 S
C808 H812 0.930 . S
C809 C808 1.369 . S
C809 C818 1.429 . S
C810 C808 1.419 1_565 S
C810 C811 1.363 . S
C810 H813 0.929 . S
C811 C810 1.363 . S
C811 C817 1.428 . S
H812 C808 0.930 . S
H813 C810 0.929 . S
S814 N815 1.613 1_565 S
S814 N816 1.610 . S
N815 S814 1.613 1_545 S
N815 C818 1.350 . S
N816 S814 1.610 . S
N816 C817 1.351 . S
C817 C811 1.428 . S
C817 N816 1.351 . S
C817 C818 1.434 1_565 S
C818 C809 1.429 . S
C818 N815 1.350 . S
C818 C817 1.434 1_545 S
C819 C820 1.369 . S
C819 C821 1.419 . S
C819 H823 0.930 . S
C820 C819 1.369 . S
C820 C829 1.429 . S
C821 C819 1.419 . S
C821 C822 1.363 . S
C821 H824 0.929 . S
C822 C821 1.363 . S
C822 C828 1.428 . S
H823 C819 0.930 . S
H824 C821 0.929 . S
S825 N826 1.613 . S
S825 N827 1.610 . S
N826 S825 1.613 . S
N826 C829 1.350 . S
N827 S825 1.610 . S
N827 C828 1.351 . S
C828 C822 1.428 . S
C828 N827 1.351 . S
C828 C829 1.434 . S
C829 C820 1.429 . S
C829 N826 1.350 . S
C829 C828 1.434 . S
C830 C831 1.369 . S
C830 C832 1.419 1_545 S
C830 H834 0.930 . S
C831 C830 1.369 . S
C831 C840 1.429 1_545 S
C832 C830 1.419 1_565 S
C832 C833 1.363 . S
C832 H835 0.929 . S
C833 C832 1.363 . S
C833 C839 1.428 . S
H834 C830 0.930 . S
H835 C832 0.929 . S
S836 N837 1.613 . S
S836 N838 1.610 . S
N837 S836 1.613 . S
N837 C840 1.350 . S
N838 S836 1.610 . S
N838 C839 1.351 . S
C839 C833 1.428 . S
C839 N838 1.351 . S
C839 C840 1.434 . S
C840 C831 1.429 1_565 S
C840 N837 1.350 . S
C840 C839 1.434 . S
C841 C842 1.369 1_556 S
C841 C843 1.419 . S
C841 H845 0.930 . S
C842 C841 1.369 1_554 S
C842 C851 1.429 . S
C843 C841 1.419 . S
C843 C844 1.363 . S
C843 H846 0.929 . S
C844 C843 1.363 . S
C844 C850 1.428 1_556 S
H845 C841 0.930 . S
H846 C843 0.929 . S
S847 N848 1.613 . S
S847 N849 1.610 . S
N848 S847 1.613 . S
N848 C851 1.350 . S
N849 S847 1.610 . S
N849 C850 1.351 . S
C850 C844 1.428 1_554 S
C850 N849 1.351 . S
C850 C851 1.434 . S
C851 C842 1.429 . S
C851 N848 1.350 . S
C851 C850 1.434 . S
C852 C853 1.369 . S
C852 C854 1.419 . S
C852 H856 0.930 . S
C853 C852 1.369 . S
C853 C862 1.429 1_455 S
C854 C852 1.419 . S
C854 C855 1.363 1_455 S
C854 H857 0.929 . S
C855 C854 1.363 1_655 S
C855 C861 1.428 . S
H856 C852 0.930 . S
H857 C854 0.929 . S
S858 N859 1.613 . S
S858 N860 1.610 . S
N859 S858 1.613 . S
N859 C862 1.350 . S
N860 S858 1.610 . S
N860 C861 1.351 . S
C861 C855 1.428 . S
C861 N860 1.351 . S
C861 C862 1.434 . S
C862 C853 1.429 1_655 S
C862 N859 1.350 . S
C862 C861 1.434 . S
C863 C864 1.369 . S
C863 C865 1.419 . S
C863 H867 0.930 . S
C864 C863 1.369 . S
C864 C873 1.429 . S
C865 C863 1.419 . S
C865 C866 1.363 . S
C865 H868 0.929 . S
C866 C865 1.363 . S
C866 C872 1.428 . S
H867 C863 0.930 . S
H868 C865 0.929 . S
S869 N870 1.613 . S
S869 N871 1.610 . S
N870 S869 1.613 . S
N870 C873 1.350 . S
N871 S869 1.610 . S
N871 C872 1.351 . S
C872 C866 1.428 . S
C872 N871 1.351 . S
C872 C873 1.434 . S
C873 C864 1.429 . S
C873 N870 1.350 . S
C873 C872 1.434 . S
C874 C875 1.369 . S
C874 C876 1.419 1_655 S
C874 H878 0.930 . S
C875 C874 1.369 . S
C875 C884 1.429 . S
C876 C874 1.419 1_455 S
C876 C877 1.363 . S
C876 H879 0.929 . S
C877 C876 1.363 . S
C877 C883 1.428 1_455 S
H878 C874 0.930 . S
H879 C876 0.929 . S
S880 N881 1.613 . S
S880 N882 1.610 . S
N881 S880 1.613 . S
N881 C884 1.350 . S
N882 S880 1.610 . S
N882 C883 1.351 . S
C883 C877 1.428 1_655 S
C883 N882 1.351 . S
C883 C884 1.434 . S
C884 C875 1.429 . S
C884 N881 1.350 . S
C884 C883 1.434 . S
C885 C886 1.369 . S
C885 C887 1.419 . S
C885 H889 0.930 . S
C886 C885 1.369 . S
C886 C895 1.429 . S
C887 C885 1.419 . S
C887 C888 1.363 . S
C887 H890 0.929 . S
C888 C887 1.363 . S
C888 C894 1.428 . S
H889 C885 0.930 . S
H890 C887 0.929 . S
S891 N892 1.613 . S
S891 N893 1.610 . S
N892 S891 1.613 . S
N892 C895 1.350 . S
N893 S891 1.610 . S
N893 C894 1.351 . S
C894 C888 1.428 . S
C894 N893 1.351 . S
C894 C895 1.434 . S
C895 C886 1.429 . S
C895 N892 1.350 . S
C895 C894 1.434 . S
C896 C897 1.369 . S
C896 C898 1.419 . S
C896 H900 0.930 . S
C897 C896 1.369 . S
C897 C906 1.429 . S
C898 C896 1.419 . S
C898 C899 1.363 . S
C898 H901 0.929 . S
C899 C898 1.363 . S
C899 C905 1.428 . S
H900 C896 0.930 . S
H901 C898 0.929 . S
S902 N903 1.613 . S
S902 N904 1.610 . S
N903 S902 1.613 . S
N903 C906 1.350 . S
N904 S902 1.610 . S
N904 C905 1.351 . S
C905 C899 1.428 . S
C905 N904 1.351 . S
C905 C906 1.434 . S
C906 C897 1.429 . S
C906 N903 1.350 . S
C906 C905 1.434 . S
C907 C908 1.384 . S
C907 C909 1.399 1_556 S
C907 H911 0.936 . S
C908 C907 1.384 . S
C908 C917 1.429 . S
C909 C907 1.399 1_554 S
C909 C910 1.363 . S
C909 H912 0.929 . S
C910 C909 1.363 . S
C910 C916 1.428 . S
H911 C907 0.936 . S
H912 C909 0.929 . S
S913 N914 1.613 . S
S913 N915 1.610 1_556 S
N914 S913 1.613 . S
N914 C917 1.350 . S
N915 S913 1.610 1_554 S
N915 C916 1.351 . S
C916 C910 1.428 . S
C916 N915 1.351 . S
C916 C917 1.434 1_554 S
C917 C908 1.429 . S
C917 N914 1.350 . S
C917 C916 1.434 1_556 S
C918 C919 1.369 . S
C918 C920 1.419 . S
C918 H922 0.930 . S
C919 C918 1.369 . S
C919 C928 1.429 . S
C920 C918 1.419 . S
C920 C921 1.363 . S
C920 H923 0.929 . S
C921 C920 1.363 . S
C921 C927 1.428 . S
H922 C918 0.930 . S
H923 C920 0.929 . S
S924 N925 1.613 . S
S924 N926 1.610 . S
N925 S924 1.613 . S
N925 C928 1.350 . S
N926 S924 1.610 . S
N926 C927 1.351 . S
C927 C921 1.428 . S
C927 N926 1.351 . S
C927 C928 1.434 . S
C928 C919 1.429 . S
C928 N925 1.350 . S
C928 C927 1.434 . S
C929 C930 1.369 . S
C929 C931 1.419 . S
C929 H933 0.930 . S
C930 C929 1.369 . S
C930 C939 1.429 . S
C931 C929 1.419 . S
C931 C932 1.363 . S
C931 H934 0.929 . S
C932 C931 1.363 . S
C932 C938 1.428 . S
H933 C929 0.930 . S
H934 C931 0.929 . S
S935 N936 1.613 . S
S935 N937 1.610 . S
N936 S935 1.613 . S
N936 C939 1.350 . S
N937 S935 1.610 . S
N937 C938 1.351 . S
C938 C932 1.428 . S
C938 N937 1.351 . S
C938 C939 1.434 . S
C939 C930 1.429 . S
C939 N936 1.350 . S
C939 C938 1.434 . S
C940 C941 1.369 . S
C940 C942 1.419 . S
C940 H944 0.930 . S
C941 C940 1.369 . S
C941 C950 1.429 . S
C942 C940 1.419 . S
C942 C943 1.363 . S
C942 H945 0.929 . S
C943 C942 1.363 . S
C943 C949 1.428 . S
H944 C940 0.930 . S
H945 C942 0.929 . S
S946 N947 1.613 . S
S946 N948 1.610 . S
N947 S946 1.613 . S
N947 C950 1.350 . S
N948 S946 1.610 . S
N948 C949 1.351 . S
C949 C943 1.428 . S
C949 N948 1.351 . S
C949 C950 1.434 . S
C950 C941 1.429 . S
C950 N947 1.350 . S
C950 C949 1.434 . S
C951 C952 1.369 . S
C951 C953 1.419 1_556 S
C951 H955 0.930 . S
C952 C951 1.369 . S
C952 C961 1.429 . S
C953 C951 1.419 1_554 S
C953 C954 1.363 . S
C953 H956 0.929 . S
C954 C953 1.363 . S
C954 C960 1.428 1_554 S
H955 C951 0.930 . S
H956 C953 0.929 . S
S957 N958 1.613 . S
S957 N959 1.610 . S
N958 S957 1.613 . S
N958 C961 1.350 . S
N959 S957 1.610 . S
N959 C960 1.351 . S
C960 C954 1.428 1_556 S
C960 N959 1.351 . S
C960 C961 1.434 . S
C961 C952 1.429 . S
C961 N958 1.350 . S
C961 C960 1.434 . S
C962 C963 1.369 . S
C962 C964 1.419 . S
C962 H966 0.930 . S
C963 C962 1.369 . S
C963 C972 1.429 . S
C964 C962 1.419 . S
C964 C965 1.363 . S
C964 H967 0.929 . S
C965 C964 1.363 . S
C965 C971 1.428 . S
H966 C962 0.930 . S
H967 C964 0.929 . S
S968 N969 1.613 . S
S968 N970 1.610 . S
N969 S968 1.613 . S
N969 C972 1.350 . S
N970 S968 1.610 . S
N970 C971 1.351 . S
C971 C965 1.428 . S
C971 N970 1.351 . S
C971 C972 1.434 . S
C972 C963 1.429 . S
C972 N969 1.350 . S
C972 C971 1.434 . S
C973 C974 1.369 . S
C973 C975 1.419 . S
C973 H977 0.930 . S
C974 C973 1.369 . S
C974 C983 1.429 . S
C975 C973 1.419 . S
C975 C976 1.363 . S
C975 H978 0.929 . S
C976 C975 1.363 . S
C976 C982 1.428 . S
H977 C973 0.930 . S
H978 C975 0.929 . S
S979 N980 1.613 . S
S979 N981 1.610 . S
N980 S979 1.613 . S
N980 C983 1.350 . S
N981 S979 1.610 . S
N981 C982 1.351 . S
C982 C976 1.428 . S
C982 N981 1.351 . S
C982 C983 1.434 . S
C983 C974 1.429 . S
C983 N980 1.350 . S
C983 C982 1.434 . S
C545 C9 0.895 . S
C547 C515 0.970 . S
C556 C281 1.534 1_565 S
C558 C39 1.790 . S
C567 C417 1.080 . S
C569 C77 1.096 . S
C578 C111 1.468 . S
C580 C345 1.619 . S
C589 C379 1.552 . S
C591 C43 1.328 . S
C600 C73 1.359 . S
C602 C311 1.352 . S
C611 C107 1.625 . S
C613 C451 1.442 . S
C622 C5 1.133 . S
C624 C247 1.003 1_455 S
C633 C277 1.576 . S
C635 C145 1.376 . S
C644 C413 1.200 . S
C646 C179 1.074 . S
C655 C209 1.700 . S
C657 C349 1.494 . S
C666 C213 1.416 . S
C668 C447 1.576 . S
C677 C141 1.709 . S
C679 C383 1.478 . S
C688 C485 0.933 . S
C690 C243 1.016 . S
C699 C315 1.328 . S
C701 C175 1.535 . S
C710 C519 0.951 . S
C712 C481 1.072 . S
C721 C2 1.853 . S
C723 C54 1.850 . S
C732 C36 2.143 . S
C734 C101 2.163 . S
C743 C70 2.077 . S
C745 C104 2.098 . S
C754 C122 1.548 . S
C756 C33 1.560 . S
C765 C20 1.779 . S
C767 C190 1.777 . S
C776 C169 1.689 . S
C778 C135 1.688 . S
C787 C237 1.872 . S
C789 C67 1.873 . S
C798 C496 1.752 . S
C800 C88 1.754 . S
C809 C292 2.029 . S
C811 C240 2.008 . S
C820 C274 2.083 . S
C822 C308 2.091 . S
C831 C339 2.107 . S
C833 C342 2.064 . S
C842 C360 1.791 . S
C844 C271 1.818 . S
C853 C428 1.718 . S
C855 C258 1.714 . S
C864 C407 1.609 . S
C866 C373 1.606 . S
C875 C305 1.605 . S
C877 C475 1.601 . S
C886 C530 1.671 . S
C888 C326 1.674 . S
C897 C156 1.982 . S
C899 C478 1.974 . S
C908 C138 2.325 . S
C910 C172 2.316 . S
C919 C203 1.915 . S
C921 C206 1.903 . S
C930 C509 1.445 . S
C932 C224 1.428 . S
C941 C394 2.010 . S
C943 C512 1.988 . S
C952 C410 2.031 . S
C954 C376 2.027 . S
C963 C441 2.059 . S
C965 C444 2.015 . S
C974 C543 1.802 . S
C976 C462 1.774 . S
