# Generated by pormake.
# Topology wkw, (8)-cn, num edge types: 1
# Building blocks:
#     Node 0, Type 0, BuildingBlock: TAGTUT_clean_sbu_1, # of connection points: 8
#     Node 1, Type 0, BuildingBlock: TAGTUT_clean_sbu_1, # of connection points: 8
#     Node 2, Type 0, BuildingBlock: TAGTUT_clean_sbu_1, # of connection points: 8
#     Node 3, Type 0, BuildingBlock: TAGTUT_clean_sbu_1, # of connection points: 8
#     Node 4, Type 0, BuildingBlock: TAGTUT_clean_sbu_1, # of connection points: 8
#     Node 5, Type 0, BuildingBlock: TAGTUT_clean_sbu_1, # of connection points: 8
#     Edge 6, Type (0, 0), BuildingBlock: CIFDUS_clean_linker_0, # of connection points: 2
#     Edge 7, Type (0, 0), BuildingBlock: CIFDUS_clean_linker_0, # of connection points: 2
#     Edge 8, Type (0, 0), BuildingBlock: CIFDUS_clean_linker_0, # of connection points: 2
#     Edge 9, Type (0, 0), BuildingBlock: CIFDUS_clean_linker_0, # of connection points: 2
#     Edge 10, Type (0, 0), BuildingBlock: CIFDUS_clean_linker_0, # of connection points: 2
#     Edge 11, Type (0, 0), BuildingBlock: CIFDUS_clean_linker_0, # of connection points: 2
#     Edge 12, Type (0, 0), BuildingBlock: CIFDUS_clean_linker_0, # of connection points: 2
#     Edge 13, Type (0, 0), BuildingBlock: CIFDUS_clean_linker_0, # of connection points: 2
#     Edge 14, Type (0, 0), BuildingBlock: CIFDUS_clean_linker_0, # of connection points: 2
#     Edge 15, Type (0, 0), BuildingBlock: CIFDUS_clean_linker_0, # of connection points: 2
#     Edge 16, Type (0, 0), BuildingBlock: CIFDUS_clean_linker_0, # of connection points: 2
#     Edge 17, Type (0, 0), BuildingBlock: CIFDUS_clean_linker_0, # of connection points: 2
#     Edge 18, Type (0, 0), BuildingBlock: CIFDUS_clean_linker_0, # of connection points: 2
#     Edge 19, Type (0, 0), BuildingBlock: CIFDUS_clean_linker_0, # of connection points: 2
#     Edge 20, Type (0, 0), BuildingBlock: CIFDUS_clean_linker_0, # of connection points: 2
#     Edge 21, Type (0, 0), BuildingBlock: CIFDUS_clean_linker_0, # of connection points: 2
#     Edge 22, Type (0, 0), BuildingBlock: CIFDUS_clean_linker_0, # of connection points: 2
#     Edge 23, Type (0, 0), BuildingBlock: CIFDUS_clean_linker_0, # of connection points: 2
#     Edge 24, Type (0, 0), BuildingBlock: CIFDUS_clean_linker_0, # of connection points: 2
#     Edge 25, Type (0, 0), BuildingBlock: CIFDUS_clean_linker_0, # of connection points: 2
#     Edge 26, Type (0, 0), BuildingBlock: CIFDUS_clean_linker_0, # of connection points: 2
#     Edge 27, Type (0, 0), BuildingBlock: CIFDUS_clean_linker_0, # of connection points: 2
#     Edge 28, Type (0, 0), BuildingBlock: CIFDUS_clean_linker_0, # of connection points: 2
#     Edge 29, Type (0, 0), BuildingBlock: CIFDUS_clean_linker_0, # of connection points: 2
# Relax obj value: 0.241
# Max RMSD: 0.273
# Mean RMSD: 0.273
data_MOF--net-wkw--node1-TAGTUT_clean_sbu_1--edge1-CIFDUS_clean_linker_0
_symmetry_space_group_name_H-M    P1
_symmetry_Int_Tables_number       1
_symmetry_cell_setting            triclinic
loop_
_symmetry_equiv_pos_as_xyz
'x, y, z'
_cell_length_a     34.832253
_cell_length_b     35.097906
_cell_length_c     17.250042
_cell_angle_alpha  90.113668
_cell_angle_beta   89.813704
_cell_angle_gamma 120.24902
loop_
_atom_site_label
_atom_site_type_symbol
_atom_site_fract_x
_atom_site_fract_y
_atom_site_fract_z
_atom_type_partial_charge
C0 C 0.75967 0.2151 0.76684 0.0
C1 C 0.88262 0.31424 0.68021 0.0
C2 C 0.9627 0.27564 0.9207 0.0
Mg3 Mg 0.82815 0.30777 0.82344 0.0
O4 O 0.84357 0.27117 0.87795 0.0
Mg5 Mg 0.86323 0.23677 0.81506 0.0
Mg6 Mg 0.89371 0.30199 0.94895 0.0
O7 O 0.94495 0.33496 0.02435 0.0
Mg8 Mg 0.97005 0.30695 0.08436 0.0
Mg9 Mg 0.9218 0.36937 0.08111 0.0
C10 C 0.83869 0.35093 -0.01018 0.0
C11 C 0.93666 0.40654 0.90611 0.0
O12 O 0.78851 0.20212 0.76743 0.0
O13 O 0.76852 0.25365 0.7876 0.0
O14 O 0.88363 0.28168 0.71019 0.0
O15 O 0.86576 0.33392 0.71696 0.0
O16 O 0.82764 0.34852 0.9182 0.0
O17 O 0.85531 0.32847 0.01783 0.0
C18 C 0.84452 0.19504 -0.01389 0.0
O19 O 0.86241 0.23347 0.01817 0.0
O20 O 0.84253 0.191 0.91297 0.0
O21 O 0.99163 0.40761 0.12683 0.0
O22 O 0.02897 0.37074 0.11414 0.0
O23 O 0.9024 0.32681 0.18979 0.0
C24 C 0.02726 0.40561 0.13131 0.0
O25 O 0.93287 0.28428 0.19183 0.0
O26 O 0.94948 0.2589 -0.01207 0.0
C27 C 0.90993 0.29909 0.22397 0.0
O28 O 0.93528 0.27957 0.87567 0.0
O29 O 0.92121 0.36752 0.87867 0.0
O30 O 0.94121 0.41377 -0.02129 0.0
C31 C 0.57667 0.75297 -0.01967 0.0
C32 C 0.5825 0.8686 0.90217 0.0
C33 C 0.69778 0.95241 0.15161 0.0
Mg34 Mg 0.53333 0.80464 0.03693 0.0
O35 O 0.58305 0.83186 0.09799 0.0
Mg36 Mg 0.64241 0.85801 0.04602 0.0
Mg37 Mg 0.59156 0.87774 0.17349 0.0
O38 O 0.60171 0.92364 0.25011 0.0
Mg39 Mg 0.65124 0.94587 0.31521 0.0
Mg40 Mg 0.54235 0.89644 0.30049 0.0
C41 C 0.48426 0.81584 0.18219 0.0
C42 C 0.53154 0.92101 0.1251 0.0
O43 O 0.61567 0.78768 -0.01476 0.0
O44 O 0.54126 0.75215 0.00253 0.0
O45 O 0.61926 0.8779 0.9347 0.0
O46 O 0.54506 0.84395 0.93487 0.0
O47 O 0.48303 0.79692 0.11787 0.0
O48 O 0.51983 0.8341 0.22458 0.0
C49 C 0.65014 0.83195 0.22398 0.0
O50 O 0.62476 0.84614 0.24922 0.0
O51 O 0.66107 0.83464 0.15263 0.0
O52 O 0.56964 0.96281 0.35841 0.0
O53 O 0.64449 0.99943 0.36155 0.0
O54 O 0.56417 0.87347 0.40987 0.0
C55 C 0.60708 0.99718 0.37337 0.0
O56 O 0.63758 0.90092 0.40909 0.0
O57 O 0.70013 0.95932 0.22519 0.0
C58 C 0.59966 0.87849 0.44159 0.0
O59 O 0.66095 0.9238 0.11855 0.0
O60 O 0.55661 0.90691 0.09799 0.0
O61 O 0.52444 0.92112 0.19753 0.0
C62 C 0.79851 0.53333 0.15436 0.0
C63 C 0.70694 0.57024 0.06661 0.0
C64 C 0.75339 0.6831 0.31434 0.0
Mg65 Mg 0.70512 0.51209 0.20241 0.0
O66 O 0.73928 0.56154 0.26444 0.0
Mg67 Mg 0.78184 0.61689 0.20934 0.0
Mg68 Mg 0.70972 0.58309 0.336 0.0
O69 O 0.67735 0.60323 0.41177 0.0
Mg70 Mg 0.71804 0.65752 0.47372 0.0
Mg71 Mg 0.62655 0.53974 0.45603 0.0
C72 C 0.64682 0.47811 0.3578 0.0
C73 C 0.60702 0.53315 0.27131 0.0
O74 O 0.81208 0.57501 0.15643 0.0
O75 O 0.75921 0.50362 0.17401 0.0
O76 O 0.73938 0.60229 0.10132 0.0
O77 O 0.68678 0.53148 0.09552 0.0
O78 O 0.65555 0.47116 0.28845 0.0
O79 O 0.66949 0.51582 0.39192 0.0
C80 C 0.81523 0.62443 0.38511 0.0
O81 O 0.77566 0.60827 0.41377 0.0
O82 O 0.82253 0.63036 0.31277 0.0
O83 O 0.6461 0.61181 0.43769 0.0
O84 O 0.66691 0.67507 0.49154 0.0
O85 O 0.66533 0.55771 0.57026 0.0
C86 C 0.63551 0.63577 0.47906 0.0
O87 O 0.72263 0.62733 0.58205 0.0
O88 O 0.76863 0.6849 0.38237 0.0
C89 C 0.6975 0.58823 0.60883 0.0
O90 O 0.74499 0.64987 0.27139 0.0
O91 O 0.64873 0.55665 0.25709 0.0
O92 O 0.59163 0.52408 0.34039 0.0
C93 C 0.2811 0.8274 0.27335 0.0
C94 C 0.16028 0.72483 0.16449 0.0
C95 C 0.07319 0.74117 0.4255 0.0
Mg96 Mg 0.21813 0.72966 0.30008 0.0
O97 O 0.19499 0.75509 0.36686 0.0
Mg98 Mg 0.17195 0.79044 0.31821 0.0
Mg99 Mg 0.14574 0.71604 0.43427 0.0
O100 O 0.09539 0.67502 0.50511 0.0
Mg101 Mg 0.0693 0.69702 0.57687 0.0
Mg102 Mg 0.12211 0.64012 0.54725 0.0
C103 C 0.20691 0.67063 0.44584 0.0
C104 C 0.10877 0.61719 0.36447 0.0
O105 O 0.24887 0.8357 0.27864 0.0
O106 O 0.27562 0.78882 0.28 0.0
O107 O 0.15465 0.75289 0.20237 0.0
O108 O 0.18233 0.70823 0.19273 0.0
O109 O 0.22102 0.68352 0.37678 0.0
O110 O 0.18761 0.6874 0.48576 0.0
C111 C 0.18717 0.81837 0.49714 0.0
O112 O 0.1739 0.77862 0.52017 0.0
O113 O 0.18776 0.82713 0.42584 0.0
O114 O 0.05295 0.59574 0.59479 0.0
O115 O 1.01335 0.6306 0.60186 0.0
O116 O 0.14188 0.67695 0.66412 0.0
C117 C 0.01678 0.59583 0.60786 0.0
O118 O 0.10816 0.71598 0.68123 0.0
O119 O 0.08628 0.75186 0.49524 0.0
C120 C 0.13357 0.7022 0.70536 0.0
O121 O 0.10009 0.73926 0.3756 0.0
O122 O 0.12189 0.6576 0.34855 0.0
O123 O 0.10423 0.60356 0.43423 0.0
C124 C 0.44885 0.26211 0.47268 0.0
C125 C 0.4396 0.14291 0.39581 0.0
C126 C 0.32968 0.06373 0.65198 0.0
Mg127 Mg 0.49071 0.20866 0.5259 0.0
O128 O 0.44059 0.18687 0.59027 0.0
Mg129 Mg 0.38142 0.15662 0.53923 0.0
Mg130 Mg 0.43328 0.14167 0.66408 0.0
O131 O 0.42826 0.09621 0.73744 0.0
Mg132 Mg 0.38113 0.06628 0.80588 0.0
Mg133 Mg 0.48984 0.1247 0.77926 0.0
C134 C 0.54036 0.20624 0.67697 0.0
C135 C 0.4972 0.10666 0.59856 0.0
O136 O 0.40914 0.22825 0.47989 0.0
O137 O 0.48409 0.26135 0.48986 0.0
O138 O 0.4041 0.13522 0.43087 0.0
O139 O 0.47789 0.16869 0.42417 0.0
O140 O 0.54244 0.21745 0.6057 0.0
O141 O 0.50349 0.1877 0.71483 0.0
C142 C 0.3692 0.18054 0.71489 0.0
O143 O 0.39683 0.16969 0.74229 0.0
O144 O 0.36001 0.17733 0.64296 0.0
O145 O 0.46997 0.05695 0.82621 0.0
O146 O 0.39533 0.01378 0.82948 0.0
O147 O 0.47002 0.14238 0.89563 0.0
C148 C 0.43464 0.01955 0.83589 0.0
O149 O 0.39637 0.10397 0.91089 0.0
O150 O 0.33 0.06154 0.72646 0.0
C151 C 0.43514 0.13116 0.93616 0.0
O152 O 0.36456 0.0914 0.61269 0.0
O153 O 0.468 0.11713 0.58181 0.0
O154 O 0.50914 0.10652 0.66814 0.0
C155 C 0.23032 0.48456 0.63171 0.0
C156 C 0.32055 0.44774 0.53509 0.0
C157 C 0.26997 0.33431 0.79282 0.0
Mg158 Mg 0.32563 0.5078 0.67028 0.0
O159 O 0.29131 0.45847 0.73345 0.0
Mg160 Mg 0.24817 0.40172 0.68428 0.0
Mg161 Mg 0.32109 0.43832 0.80387 0.0
O162 O 0.35261 0.41903 0.87676 0.0
Mg163 Mg 0.31951 0.37287 0.94827 0.0
Mg164 Mg 0.39524 0.47826 0.92138 0.0
C165 C 0.38463 0.54476 0.82159 0.0
C166 C 0.42316 0.48323 0.74031 0.0
O167 O 0.21674 0.44291 0.63488 0.0
O168 O 0.2703 0.51478 0.64591 0.0
O169 O 0.289 0.41579 0.5722 0.0
O170 O 0.3415 0.48669 0.56313 0.0
O171 O 0.37788 0.55173 0.75117 0.0
O172 O 0.35966 0.50778 0.85564 0.0
C173 C 0.21785 0.39765 0.86148 0.0
O174 O 0.25811 0.41528 0.88617 0.0
O175 O 0.20852 0.3895 0.79009 0.0
O176 O 0.42505 0.44111 0.97615 0.0
O177 O 0.37671 0.36808 -0.01294 0.0
O178 O 0.3564 0.46802 0.03512 0.0
C179 C 0.41578 0.40205 -0.00522 0.0
O180 O 0.3035 0.3979 0.04948 0.0
O181 O 0.26442 0.3375 0.86553 0.0
C182 C 0.32513 0.43735 0.07464 0.0
O183 O 0.28539 0.36865 0.74853 0.0
O184 O 0.38197 0.46256 0.72135 0.0
O185 O 0.43523 0.49076 0.81119 0.0
H186 H 0.88759 0.34651 0.32003 0.0
H187 H 0.9146 0.23908 0.31901 0.0
H188 H 0.91322 0.23801 0.46064 0.0
H189 H 0.90617 0.2684 0.58349 0.0
H190 H 0.87755 0.37472 0.58576 0.0
H191 H 0.87987 0.37667 0.44389 0.0
C192 C 0.89243 0.32225 0.35048 0.0
C193 C 0.90086 0.2926 0.30849 0.0
C194 C 0.89273 0.32258 0.43191 0.0
C195 C 0.90768 0.26198 0.34951 0.0
C196 C 0.90738 0.2617 0.43054 0.0
C197 C 0.90093 0.2925 0.55342 0.0
C198 C 0.89202 0.32168 0.59579 0.0
C199 C 0.90061 0.29226 0.47216 0.0
C200 C 0.8851 0.35232 0.55505 0.0
C201 C 0.88579 0.353 0.47386 0.0
H202 H 0.53993 0.87316 0.5488 0.0
H203 H 0.65954 0.86612 0.52378 0.0
H204 H 0.66722 0.86731 0.66481 0.0
H205 H 0.64123 0.87256 0.79481 0.0
H206 H 0.52127 0.87878 0.82007 0.0
H207 H 0.51336 0.8774 0.67892 0.0
C208 C 0.56712 0.87078 0.57407 0.0
C209 C 0.59882 0.86894 0.52554 0.0
C210 C 0.57212 0.87294 0.65512 0.0
C211 C 0.63441 0.86702 0.55964 0.0
C212 C 0.63912 0.86827 0.64027 0.0
C213 C 0.61391 0.87467 0.76945 0.0
C214 C 0.58237 0.87677 0.81795 0.0
C215 C 0.60868 0.87214 0.68847 0.0
C216 C 0.54639 0.87801 0.78403 0.0
C217 C 0.54156 0.8766 0.7034 0.0
H218 H 0.68153 0.51273 0.94622 0.0
H219 H 0.71688 0.64592 0.00527 0.0
H220 H 0.72034 0.66435 0.86796 0.0
H221 H 0.71704 0.64368 0.7308 0.0
H222 H 0.68138 0.51048 0.6714 0.0
H223 H 0.67553 0.49128 0.80886 0.0
C224 C 0.68888 0.54544 0.92897 0.0
C225 C 0.69866 0.57784 -0.01426 0.0
C226 C 0.69221 0.55621 0.8498 0.0
C227 C 0.70901 0.62036 0.96253 0.0
C228 C 0.71148 0.63106 0.88405 0.0
C229 C 0.70887 0.61072 0.7481 0.0
C230 C 0.70064 0.57881 0.69122 0.0
C231 C 0.70427 0.59958 0.82716 0.0
C232 C 0.68858 0.53579 0.71431 0.0
C233 C 0.68477 0.52468 0.79282 0.0
H234 H 0.19629 0.70067 0.0477 0.0
H235 H 0.09524 0.73422 0.0961 0.0
H236 H 0.08061 0.73358 0.95768 0.0
H237 H 0.09754 0.72522 0.82318 0.0
H238 H 0.19833 0.69143 0.77361 0.0
H239 H 0.21282 0.69157 0.91225 0.0
C240 C 0.17051 0.70704 0.02801 0.0
C241 C 0.14668 0.71719 0.08218 0.0
C242 C 0.163 0.70768 0.94811 0.0
C243 C 0.11393 0.72615 0.05561 0.0
C244 C 0.10578 0.72614 0.97644 0.0
C245 C 0.12323 0.7186 0.84245 0.0
C246 C 0.14716 0.70882 0.78786 0.0
C247 C 0.1306 0.71765 0.92217 0.0
C248 C 0.17968 0.69945 0.81427 0.0
C249 C 0.18772 0.69914 0.89358 0.0
H250 H 0.37927 0.08404 0.05291 0.0
H251 H 0.50547 0.20111 0.00697 0.0
H252 H 0.52052 0.21182 0.14613 0.0
H253 H 0.49771 0.18785 0.28048 0.0
H254 H 0.37129 0.07107 0.32606 0.0
H255 H 0.35716 0.05931 0.18681 0.0
C256 C 0.40969 0.11243 0.0733 0.0
C257 C 0.44088 0.1422 0.01965 0.0
C258 C 0.41867 0.11761 0.15307 0.0
C259 C 0.48067 0.17809 0.04712 0.0
C260 C 0.4895 0.18393 0.12658 0.0
C261 C 0.46757 0.15919 0.25991 0.0
C262 C 0.43579 0.13004 0.31344 0.0
C263 C 0.45897 0.15359 0.17999 0.0
C264 C 0.39642 0.09368 0.28591 0.0
C265 C 0.3881 0.08727 0.2064 0.0
H266 H 0.30119 0.37913 0.19265 0.0
H267 H 0.34505 0.5155 0.14332 0.0
H268 H 0.35213 0.53191 0.28235 0.0
H269 H 0.34639 0.50738 0.41787 0.0
H270 H 0.30358 0.37105 0.46583 0.0
H271 H 0.29706 0.35507 0.32706 0.0
C272 C 0.31137 0.41227 0.21226 0.0
C273 C 0.32168 0.44588 0.15771 0.0
C274 C 0.31687 0.42173 0.29193 0.0
C275 C 0.33619 0.48892 0.18419 0.0
C276 C 0.34075 0.4984 0.2636 0.0
C277 C 0.33664 0.47441 0.3979 0.0
C278 C 0.32589 0.44052 0.45215 0.0
C279 C 0.33175 0.46517 0.31797 0.0
C280 C 0.31236 0.39776 0.42527 0.0
C281 C 0.30815 0.3885 0.34597 0.0
H282 H 0.60264 0.19909 0.59339 0.0
H283 H 0.56055 0.20121 0.8283 0.0
H284 H 0.61891 0.18833 0.87719 0.0
H285 H 0.68683 0.18555 0.85317 0.0
H286 H 0.73181 0.18878 0.61936 0.0
H287 H 0.66526 0.18708 0.56928 0.0
C288 C 0.60641 0.19719 0.65541 0.0
C289 C 0.57778 0.20202 0.70733 0.0
C290 C 0.63953 0.18914 0.68288 0.0
C291 C 0.58246 0.19816 0.78727 0.0
C292 C 0.61547 0.1903 0.81512 0.0
C293 C 0.68071 0.18344 0.7912 0.0
C294 C 0.71396 0.18725 0.73988 0.0
C295 C 0.64448 0.1863 0.76346 0.0
C296 C 0.70633 0.18517 0.65983 0.0
C297 C 0.66903 0.18573 0.63139 0.0
H298 H 0.53926 0.67278 0.04181 0.0
H299 H 0.59085 0.74335 0.82797 0.0
H300 H 0.53457 0.67983 0.75496 0.0
H301 H 0.46001 0.61262 0.75644 0.0
H302 H 0.40322 0.54956 0.97544 0.0
H303 H 0.47086 0.60188 0.04208 0.0
C304 C 0.53959 0.67317 -0.02115 0.0
C305 C 0.56854 0.71267 0.94032 0.0
C306 C 0.50426 0.63871 0.93864 0.0
C307 C 0.56896 0.71317 0.85892 0.0
C308 C 0.53578 0.67735 0.81742 0.0
C309 C 0.46249 0.61031 0.81871 0.0
C310 C 0.42629 0.57722 0.86086 0.0
C311 C 0.50131 0.64147 0.85735 0.0
C312 C 0.43047 0.57437 0.94136 0.0
C313 C 0.46927 0.60429 -0.02035 0.0
H314 H 0.8545 0.43036 0.93825 0.0
H315 H 0.82891 0.35303 0.14626 0.0
H316 H 0.82436 0.40992 0.22136 0.0
H317 H 0.81566 0.47515 0.22237 0.0
H318 H 0.8406 0.5521 0.01457 0.0
H319 H 0.85968 0.50285 0.94496 0.0
C320 C 0.84829 0.42617 0.00017 0.0
C321 C 0.84056 0.38703 0.03654 0.0
C322 C 0.84627 0.45914 0.0428 0.0
C323 C 0.83405 0.38254 0.11703 0.0
C324 C 0.83161 0.41507 0.15986 0.0
C325 C 0.82699 0.48201 0.16263 0.0
C326 C 0.8266 0.51679 0.12315 0.0
C327 C 0.83613 0.45269 0.12274 0.0
C328 C 0.84117 0.52569 0.04599 0.0
C329 C 0.85121 0.49706 0.00599 0.0
H330 H 0.45796 0.84741 0.30995 0.0
H331 H 0.43023 0.81305 0.06708 0.0
H332 H 0.37391 0.83293 0.06798 0.0
H333 H 0.32439 0.84949 0.13889 0.0
H334 H 0.34288 0.87581 0.38299 0.0
H335 H 0.41249 0.87448 0.37856 0.0
C336 C 0.43971 0.84441 0.25739 0.0
C337 C 0.44847 0.82756 0.18944 0.0
C338 C 0.4061 0.85601 0.25742 0.0
C339 C 0.42417 0.82443 0.12166 0.0
C340 C 0.39193 0.83652 0.12118 0.0
C341 C 0.34503 0.85748 0.19022 0.0
C342 C 0.32779 0.86134 0.26127 0.0
C343 C 0.38191 0.85143 0.1888 0.0
C344 C 0.35518 0.87231 0.32721 0.0
C345 C 0.39421 0.8698 0.32531 0.0
H346 H 0.48221 0.33813 0.54985 0.0
H347 H 0.4415 0.28103 0.32286 0.0
H348 H 0.50172 0.34802 0.26431 0.0
H349 H 0.57535 0.41375 0.2811 0.0
H350 H 0.62035 0.46738 0.51011 0.0
H351 H 0.54979 0.41031 0.56501 0.0
C352 C 0.48498 0.34156 0.48723 0.0
C353 C 0.45788 0.30456 0.44072 0.0
C354 C 0.52214 0.37847 0.45496 0.0
C355 C 0.46171 0.30909 0.35984 0.0
C356 C 0.49712 0.34691 0.32661 0.0
C357 C 0.5698 0.41318 0.34309 0.0
C358 C 0.6036 0.44443 0.39165 0.0
C359 C 0.52927 0.3802 0.37415 0.0
C360 C 0.59518 0.44363 0.47149 0.0
C361 C 0.55472 0.41111 0.50283 0.0
H362 H 0.18519 0.62964 0.58867 0.0
H363 H 0.22007 0.61537 0.35378 0.0
H364 H 0.21641 0.54697 0.38726 0.0
H365 H 0.21506 0.49724 0.48627 0.0
H366 H 0.18627 0.51276 0.72286 0.0
H367 H 0.17301 0.57244 0.68517 0.0
C368 C 0.19137 0.61127 0.5447 0.0
C369 C 0.20367 0.62846 0.46932 0.0
C370 C 0.18944 0.57139 0.56424 0.0
C371 C 0.21166 0.60398 0.41305 0.0
C372 C 0.20907 0.5643 0.43166 0.0
C373 C 0.20351 0.51219 0.52861 0.0
C374 C 0.20101 0.50058 0.60662 0.0
C375 C 0.19926 0.54834 0.50739 0.0
C376 C 0.18741 0.52082 0.66196 0.0
C377 C 0.18093 0.55562 0.64069 0.0
H378 H 0.79378 0.11309 0.92738 0.0
H379 H 0.85014 0.18105 0.14313 0.0
H380 H 0.81612 0.10954 0.21026 0.0
H381 H 0.76684 0.0293 0.20793 0.0
H382 H 0.70528 0.96325 -0.00696 0.0
H383 H 0.74768 0.03323 0.92395 0.0
C384 C 0.79917 0.11274 -0.01081 0.0
C385 C 0.82455 0.15284 0.03026 0.0
C386 C 0.77931 0.07188 0.02692 0.0
C387 C 0.83059 0.15103 0.11022 0.0
C388 C 0.81136 0.1101 0.14831 0.0
C389 C 0.76294 0.02965 0.14565 0.0
C390 C 0.73214 0.99055 0.10598 0.0
C391 C 0.78526 0.07044 0.10722 0.0
C392 C 0.72845 0.99235 0.02525 0.0
C393 C 0.75228 0.03256 -0.01405 0.0
H394 H 0.62375 0.74753 0.20247 0.0
H395 H 0.70755 0.85821 0.34817 0.0
H396 H 0.74481 0.81903 0.39611 0.0
H397 H 0.76052 0.7575 0.38025 0.0
H398 H 0.67828 0.65015 0.22526 0.0
H399 H 0.63361 0.68364 0.19745 0.0
C400 C 0.64918 0.76241 0.24681 0.0
C401 C 0.66266 0.80535 0.27253 0.0
C402 C 0.67149 0.74061 0.27089 0.0
C403 C 0.69611 0.82481 0.32876 0.0
C404 C 0.71781 0.80263 0.35508 0.0
C405 C 0.73243 0.74119 0.34128 0.0
C406 C 0.72342 0.70158 0.30424 0.0
C407 C 0.70698 0.76121 0.32405 0.0
C408 C 0.68672 0.68087 0.25393 0.0
C409 C 0.66088 0.69994 0.23806 0.0
H410 H 1.00738 0.7453 0.502 0.0
H411 H 0.0294 0.66671 0.33443 0.0
H412 H 0.94922 0.61584 0.32638 0.0
H413 H 0.87339 0.59833 0.35599 0.0
H414 H 0.85028 0.68208 0.50845 0.0
H415 H 0.9302 0.72474 0.53775 0.0
C416 C 0.99458 0.7169 0.46387 0.0
C417 C 0.02448 0.71021 0.41802 0.0
C418 C 0.94828 0.6882 0.45857 0.0
C419 C 1.00737 0.67322 0.36915 0.0
C420 C 0.9615 0.64386 0.36524 0.0
C421 C 0.88568 0.62496 0.39804 0.0
C422 C 0.85582 0.63675 0.43071 0.0
C423 C 0.93173 0.65147 0.40864 0.0
C424 C 0.87219 0.67165 0.48401 0.0
C425 C 0.91809 0.6967 0.49901 0.0
H426 H 0.19339 0.89608 0.46366 0.0
H427 H 0.22393 0.83037 0.64418 0.0
H428 H 0.26919 0.90176 0.70959 0.0
H429 H 0.30614 0.98279 0.70641 0.0
H430 H 0.28223 0.04834 0.51693 0.0
H431 H 0.22916 0.97615 0.46115 0.0
C432 C 0.20965 0.89698 0.51774 0.0
C433 C 0.20563 0.8577 0.54858 0.0
C434 C 0.23752 0.93807 0.55172 0.0
C435 C 0.22621 0.85977 0.61938 0.0
C436 C 0.25255 0.90069 0.65597 0.0
C437 C 0.28892 0.98141 0.65326 0.0
C438 C 0.29765 0.02098 0.61599 0.0
C439 C 0.25945 0.94004 0.62121 0.0
C440 C 0.276 0.01853 0.54643 0.0
C441 C 0.24561 0.97732 0.51507 0.0
H442 H 0.29026 0.17371 0.69133 0.0
H443 H 0.40628 0.2391 0.83678 0.0
H444 H 0.38476 0.29336 0.87508 0.0
H445 H 0.33818 0.32741 0.85199 0.0
H446 H 0.22787 0.26575 0.6937 0.0
H447 H 0.24331 0.20572 0.67152 0.0
C448 C 0.31045 0.19932 0.73283 0.0
C449 C 0.34998 0.20254 0.76095 0.0
C450 C 0.29989 0.23202 0.74909 0.0
C451 C 0.3755 0.23556 0.81509 0.0
C452 C 0.36368 0.2671 0.83545 0.0
C453 C 0.31769 0.30078 0.81263 0.0
C454 C 0.28222 0.30094 0.77363 0.0
C455 C 0.32703 0.26667 0.80008 0.0
C456 C 0.25572 0.26648 0.72294 0.0
C457 C 0.26423 0.23203 0.71119 0.0
H458 H 0.03107 0.27533 -0.00493 0.0
H459 H 1.00251 0.35225 0.83496 0.0
H460 H 0.08183 0.405 0.82201 0.0
H461 H 0.15863 0.42313 0.84101 0.0
H462 H 0.18807 0.3418 -0.01304 0.0
H463 H 0.10936 0.29837 0.0246 0.0
C464 C 0.04221 0.30394 0.95799 0.0
C465 C 1.01074 0.30938 0.91517 0.0
C466 C 0.08807 0.33373 0.94951 0.0
C467 C 0.02577 0.34668 0.86753 0.0
C468 C 0.07118 0.37709 0.86058 0.0
C469 C 0.14802 0.39698 0.88368 0.0
C470 C 0.17904 0.38577 0.91165 0.0
C471 C 0.10255 0.37024 0.89955 0.0
C472 C 0.16503 0.35157 0.96589 0.0
C473 C 0.11983 0.32614 -0.01423 0.0
H474 H 0.05817 0.48818 0.08258 0.0
H475 H 0.07819 0.41134 0.25507 0.0
H476 H 0.11085 0.47494 0.34265 0.0
H477 H 0.11614 0.54476 0.37943 0.0
H478 H 0.09159 0.62039 0.21008 0.0
H479 H 0.07696 0.56419 0.11169 0.0
C480 C 0.07166 0.48616 0.13807 0.0
C481 C 0.0655 0.44529 0.16315 0.0
C482 C 0.0873 0.52173 0.18958 0.0
C483 C 0.08295 0.4426 0.23463 0.0
C484 C 0.10055 0.47863 0.28525 0.0
C485 C 0.10799 0.54926 0.32079 0.0
C486 C 0.10344 0.58591 0.30246 0.0
C487 C 0.09987 0.51708 0.26507 0.0
C488 C 0.09425 0.59194 0.22583 0.0
C489 C 0.08617 0.55998 0.16965 0.0
H490 H 0.57428 0.10719 0.61114 0.0
H491 H 0.46982 0.08172 0.44892 0.0
H492 H 0.50289 0.05463 0.35424 0.0
H493 H 0.55339 0.02655 0.32895 0.0
H494 H 0.65518 0.0489 0.49446 0.0
H495 H 0.63252 0.09135 0.57611 0.0
C496 C 0.55922 0.0967 0.55448 0.0
C497 C 0.51931 0.09572 0.53725 0.0
C498 C 0.57815 0.08107 0.50127 0.0
C499 C 0.50035 0.08237 0.4635 0.0
C500 C 0.51922 0.06692 0.40956 0.0
C501 C 0.57141 0.04199 0.38185 0.0
C502 C 0.60512 0.03423 0.40722 0.0
C503 C 0.55701 0.06451 0.42931 0.0
C504 C 0.62905 0.05463 0.47454 0.0
C505 C 0.6157 0.07829 0.52142 0.0
H506 H 0.55711 0.55949 0.45663 0.0
H507 H 0.62856 0.66358 0.62318 0.0
H508 H 0.56984 0.62412 0.71852 0.0
H509 H 0.50014 0.55943 0.75635 0.0
H510 H 0.42389 0.4575 0.58926 0.0
H511 H 0.48291 0.49644 0.49219 0.0
C512 C 0.55949 0.57363 0.5136 0.0
C513 C 0.59721 0.61436 0.53285 0.0
C514 C 0.52517 0.55093 0.56811 0.0
C515 C 0.59982 0.63252 0.60662 0.0
C516 C 0.5664 0.60981 0.66142 0.0
C517 C 0.49634 0.54554 0.69875 0.0
C518 C 0.45809 0.50519 0.68039 0.0
C519 C 0.52931 0.56883 0.64308 0.0
C520 C 0.45329 0.48823 0.60499 0.0
C521 C 0.48693 0.51058 0.54958 0.0
H522 H 0.98351 0.58664 0.75046 0.0
H523 H 0.97617 0.51437 0.54399 0.0
H524 H 0.94766 0.44635 0.61906 0.0
H525 H 0.93809 0.41102 0.7469 0.0
H526 H 0.95173 0.48669 0.95349 0.0
H527 H 0.96503 0.5494 0.87562 0.0
C528 C 0.97332 0.55547 0.7216 0.0
C529 C 0.98124 0.55513 0.64216 0.0
C530 C 0.95989 0.51731 0.76583 0.0
C531 C 0.9694 0.51496 0.60521 0.0
C532 C 0.95399 0.47629 0.64836 0.0
C533 C 0.94347 0.44102 0.77469 0.0
C534 C 0.94464 0.44405 0.85594 0.0
C535 C 0.95145 0.47762 0.72934 0.0
C536 C 0.95164 0.4834 0.89103 0.0
C537 C 0.9588 0.5194 0.84658 0.0
H538 H 0.53388 0.92899 0.96569 0.0
H539 H 0.46874 0.93981 0.17179 0.0
H540 H 0.42282 0.95788 0.09485 0.0
H541 H 0.40785 0.9813 0.97282 0.0
H542 H 0.48049 0.98452 0.76854 0.0
H543 H 0.51526 0.94921 0.83918 0.0
C544 C 0.50964 0.9353 -0.00657 0.0
C545 C 0.5053 0.93322 0.07449 0.0
C546 C 0.48396 0.94773 0.94876 0.0
C547 C 0.47347 0.94141 0.10957 0.0
C548 C 0.44667 0.95156 0.06563 0.0
C549 C 0.42979 0.97238 0.94325 0.0
C550 C 0.44124 0.98453 0.86611 0.0
C551 C 0.45232 0.95588 -0.01439 0.0
C552 C 0.47082 0.97447 0.82815 0.0
C553 C 0.49123 0.95507 0.86881 0.0
H554 H 0.50294 0.4451 0.9655 0.0
H555 H 0.40495 0.35888 0.13122 0.0
H556 H 0.45855 0.3937 0.23618 0.0
H557 H 0.52655 0.45876 0.28195 0.0
H558 H 0.6204 0.55126 0.11661 0.0
H559 H 0.57417 0.50543 0.00996 0.0
C560 C 0.49418 0.4326 0.02431 0.0
C561 C 0.45002 0.40041 0.04128 0.0
C562 C 0.52348 0.45579 0.08455 0.0
C563 C 0.43879 0.38373 0.11691 0.0
C564 C 0.46903 0.40461 0.17717 0.0
C565 C 0.53696 0.469 0.22262 0.0
C566 C 0.57688 0.50846 0.20706 0.0
C567 C 0.51017 0.4426 0.16195 0.0
C568 C 0.58995 0.52098 0.1299 0.0
C569 C 0.5637 0.49463 0.06905 0.0
loop_
_geom_bond_atom_site_label_1
_geom_bond_atom_site_label_2
_geom_bond_distance
_geom_bond_site_symmetry_2
_ccdc_geom_bond_type
C0 O12 1.241 . S
C0 O13 1.280 . S
C1 O14 1.277 . S
C1 O15 1.245 . S
C2 O26 1.247 1_556 S
C2 O28 1.289 . S
Mg3 O4 1.926 . S
Mg3 O13 1.984 . S
Mg3 O15 1.988 . S
Mg3 O16 2.061 . S
O4 Mg3 1.926 . S
O4 Mg5 1.986 . S
O4 Mg6 1.914 1_556 S
Mg5 O4 1.986 . S
Mg5 O12 2.042 . S
Mg5 O14 2.041 . S
Mg5 O20 2.038 . S
Mg5 O28 2.238 . S
Mg6 O4 1.914 1_554 S
Mg6 O7 1.919 . S
Mg6 O17 2.108 . S
Mg6 O19 2.081 . S
Mg6 O28 2.105 1_554 S
Mg6 O29 2.077 1_554 S
O7 Mg6 1.919 . S
O7 Mg8 1.926 . S
O7 Mg9 1.986 . S
Mg8 O7 1.926 . S
Mg8 O22 1.984 . S
Mg8 O25 1.988 . S
Mg8 O26 2.061 . S
Mg9 O7 1.986 . S
Mg9 O17 2.238 . S
Mg9 O21 2.042 . S
Mg9 O23 2.041 . S
Mg9 O30 2.038 . S
C10 O16 1.247 1_554 S
C10 O17 1.289 . S
C11 O29 1.245 . S
C11 O30 1.274 1_556 S
O12 C0 1.241 . S
O12 Mg5 2.042 . S
O13 C0 1.280 . S
O13 Mg3 1.984 . S
O14 C1 1.277 . S
O14 Mg5 2.041 . S
O15 C1 1.245 . S
O15 Mg3 1.988 . S
O16 Mg3 2.061 . S
O16 C10 1.247 1_556 S
O17 Mg6 2.108 . S
O17 Mg9 2.238 . S
O17 C10 1.289 . S
C18 O19 1.245 . S
C18 O20 1.274 1_554 S
O19 Mg6 2.081 . S
O19 C18 1.245 . S
O20 Mg5 2.038 . S
O20 C18 1.274 1_556 S
O21 Mg9 2.042 . S
O21 C24 1.241 1_655 S
O22 Mg8 1.984 . S
O22 C24 1.280 1_655 S
O23 Mg9 2.041 . S
O23 C27 1.277 . S
C24 O21 1.241 1_455 S
C24 O22 1.280 1_455 S
O25 Mg8 1.988 . S
O25 C27 1.245 . S
O26 C2 1.247 1_554 S
O26 Mg8 2.061 . S
C27 O23 1.277 . S
C27 O25 1.245 . S
O28 C2 1.289 . S
O28 Mg5 2.238 . S
O28 Mg6 2.105 1_556 S
O29 Mg6 2.077 1_556 S
O29 C11 1.245 . S
O30 Mg9 2.038 . S
O30 C11 1.274 1_554 S
C31 O43 1.241 . S
C31 O44 1.280 . S
C32 O45 1.277 . S
C32 O46 1.245 . S
C33 O57 1.247 . S
C33 O59 1.289 . S
Mg34 O35 1.926 . S
Mg34 O44 1.984 1_554 S
Mg34 O46 1.988 1_554 S
Mg34 O47 2.061 . S
O35 Mg34 1.926 . S
O35 Mg36 1.986 . S
O35 Mg37 1.917 . S
Mg36 O35 1.986 . S
Mg36 O43 2.042 1_554 S
Mg36 O45 2.041 1_554 S
Mg36 O51 2.038 . S
Mg36 O59 2.238 . S
Mg37 O35 1.917 . S
Mg37 O38 1.917 . S
Mg37 O48 2.106 . S
Mg37 O50 2.079 . S
Mg37 O59 2.106 . S
Mg37 O60 2.079 . S
O38 Mg37 1.917 . S
O38 Mg39 1.926 . S
O38 Mg40 1.986 . S
Mg39 O38 1.926 . S
Mg39 O53 1.984 . S
Mg39 O56 1.988 . S
Mg39 O57 2.061 . S
Mg40 O38 1.986 . S
Mg40 O48 2.238 . S
Mg40 O52 2.042 . S
Mg40 O54 2.041 . S
Mg40 O61 2.038 . S
C41 O47 1.247 . S
C41 O48 1.289 . S
C42 O60 1.245 . S
C42 O61 1.274 . S
O43 C31 1.241 . S
O43 Mg36 2.042 1_556 S
O44 C31 1.280 . S
O44 Mg34 1.984 1_556 S
O45 C32 1.277 . S
O45 Mg36 2.041 1_556 S
O46 C32 1.245 . S
O46 Mg34 1.988 1_556 S
O47 Mg34 2.061 . S
O47 C41 1.247 . S
O48 Mg37 2.106 . S
O48 Mg40 2.238 . S
O48 C41 1.289 . S
C49 O50 1.245 . S
C49 O51 1.274 . S
O50 Mg37 2.079 . S
O50 C49 1.245 . S
O51 Mg36 2.038 . S
O51 C49 1.274 . S
O52 Mg40 2.042 . S
O52 C55 1.241 1_565 S
O53 Mg39 1.984 . S
O53 C55 1.280 1_565 S
O54 Mg40 2.041 . S
O54 C58 1.277 . S
C55 O52 1.241 1_545 S
C55 O53 1.280 1_545 S
O56 Mg39 1.988 . S
O56 C58 1.245 . S
O57 C33 1.247 . S
O57 Mg39 2.061 . S
C58 O54 1.277 . S
C58 O56 1.245 . S
O59 C33 1.289 . S
O59 Mg36 2.238 . S
O59 Mg37 2.106 . S
O60 Mg37 2.079 . S
O60 C42 1.245 . S
O61 Mg40 2.038 . S
O61 C42 1.274 . S
C62 O74 1.241 . S
C62 O75 1.280 . S
C63 O76 1.277 . S
C63 O77 1.245 . S
C64 O88 1.247 . S
C64 O90 1.289 . S
Mg65 O66 1.926 . S
Mg65 O75 1.984 . S
Mg65 O77 1.988 . S
Mg65 O78 2.061 . S
O66 Mg65 1.926 . S
O66 Mg67 1.986 . S
O66 Mg68 1.917 . S
Mg67 O66 1.986 . S
Mg67 O74 2.042 . S
Mg67 O76 2.041 . S
Mg67 O82 2.038 . S
Mg67 O90 2.238 . S
Mg68 O66 1.917 . S
Mg68 O69 1.917 . S
Mg68 O79 2.106 . S
Mg68 O81 2.079 . S
Mg68 O90 2.106 . S
Mg68 O91 2.079 . S
O69 Mg68 1.917 . S
O69 Mg70 1.926 . S
O69 Mg71 1.986 . S
Mg70 O69 1.926 . S
Mg70 O84 1.984 . S
Mg70 O87 1.988 . S
Mg70 O88 2.061 . S
Mg71 O69 1.986 . S
Mg71 O79 2.238 . S
Mg71 O83 2.042 . S
Mg71 O85 2.041 . S
Mg71 O92 2.038 . S
C72 O78 1.247 . S
C72 O79 1.289 . S
C73 O91 1.245 . S
C73 O92 1.274 . S
O74 C62 1.241 . S
O74 Mg67 2.042 . S
O75 C62 1.280 . S
O75 Mg65 1.984 . S
O76 C63 1.277 . S
O76 Mg67 2.041 . S
O77 C63 1.245 . S
O77 Mg65 1.988 . S
O78 Mg65 2.061 . S
O78 C72 1.247 . S
O79 Mg68 2.106 . S
O79 Mg71 2.238 . S
O79 C72 1.289 . S
C80 O81 1.245 . S
C80 O82 1.274 . S
O81 Mg68 2.079 . S
O81 C80 1.245 . S
O82 Mg67 2.038 . S
O82 C80 1.274 . S
O83 Mg71 2.042 . S
O83 C86 1.241 . S
O84 Mg70 1.984 . S
O84 C86 1.280 . S
O85 Mg71 2.041 . S
O85 C89 1.277 . S
C86 O83 1.241 . S
C86 O84 1.280 . S
O87 Mg70 1.988 . S
O87 C89 1.245 . S
O88 C64 1.247 . S
O88 Mg70 2.061 . S
C89 O85 1.277 . S
C89 O87 1.245 . S
O90 C64 1.289 . S
O90 Mg67 2.238 . S
O90 Mg68 2.106 . S
O91 Mg68 2.079 . S
O91 C73 1.245 . S
O92 Mg71 2.038 . S
O92 C73 1.274 . S
C93 O105 1.241 . S
C93 O106 1.280 . S
C94 O107 1.277 . S
C94 O108 1.245 . S
C95 O119 1.247 . S
C95 O121 1.289 . S
Mg96 O97 1.926 . S
Mg96 O106 1.984 . S
Mg96 O108 1.988 . S
Mg96 O109 2.061 . S
O97 Mg96 1.926 . S
O97 Mg98 1.986 . S
O97 Mg99 1.917 . S
Mg98 O97 1.986 . S
Mg98 O105 2.042 . S
Mg98 O107 2.041 . S
Mg98 O113 2.038 . S
Mg98 O121 2.238 . S
Mg99 O97 1.917 . S
Mg99 O100 1.917 . S
Mg99 O110 2.106 . S
Mg99 O112 2.079 . S
Mg99 O121 2.106 . S
Mg99 O122 2.079 . S
O100 Mg99 1.917 . S
O100 Mg101 1.926 . S
O100 Mg102 1.986 . S
Mg101 O100 1.926 . S
Mg101 O115 1.984 . S
Mg101 O118 1.988 . S
Mg101 O119 2.061 . S
Mg102 O100 1.986 . S
Mg102 O110 2.238 . S
Mg102 O114 2.042 . S
Mg102 O116 2.041 . S
Mg102 O123 2.038 . S
C103 O109 1.247 . S
C103 O110 1.289 . S
C104 O122 1.245 . S
C104 O123 1.274 . S
O105 C93 1.241 . S
O105 Mg98 2.042 . S
O106 C93 1.280 . S
O106 Mg96 1.984 . S
O107 C94 1.277 . S
O107 Mg98 2.041 . S
O108 C94 1.245 . S
O108 Mg96 1.988 . S
O109 Mg96 2.061 . S
O109 C103 1.247 . S
O110 Mg99 2.106 . S
O110 Mg102 2.238 . S
O110 C103 1.289 . S
C111 O112 1.245 . S
C111 O113 1.274 . S
O112 Mg99 2.079 . S
O112 C111 1.245 . S
O113 Mg98 2.038 . S
O113 C111 1.274 . S
O114 Mg102 2.042 . S
O114 C117 1.241 1_455 S
O115 Mg101 1.984 . S
O115 C117 1.280 1_455 S
O116 Mg102 2.041 . S
O116 C120 1.277 . S
C117 O114 1.241 1_655 S
C117 O115 1.280 1_655 S
O118 Mg101 1.988 . S
O118 C120 1.245 . S
O119 C95 1.247 . S
O119 Mg101 2.061 . S
C120 O116 1.277 . S
C120 O118 1.245 . S
O121 C95 1.289 . S
O121 Mg98 2.238 . S
O121 Mg99 2.106 . S
O122 Mg99 2.079 . S
O122 C104 1.245 . S
O123 Mg102 2.038 . S
O123 C104 1.274 . S
C124 O136 1.241 . S
C124 O137 1.280 . S
C125 O138 1.277 . S
C125 O139 1.245 . S
C126 O150 1.247 . S
C126 O152 1.289 . S
Mg127 O128 1.926 . S
Mg127 O137 1.984 . S
Mg127 O139 1.988 . S
Mg127 O140 2.061 . S
O128 Mg127 1.926 . S
O128 Mg129 1.986 . S
O128 Mg130 1.917 . S
Mg129 O128 1.986 . S
Mg129 O136 2.042 . S
Mg129 O138 2.041 . S
Mg129 O144 2.038 . S
Mg129 O152 2.238 . S
Mg130 O128 1.917 . S
Mg130 O131 1.917 . S
Mg130 O141 2.106 . S
Mg130 O143 2.079 . S
Mg130 O152 2.106 . S
Mg130 O153 2.079 . S
O131 Mg130 1.917 . S
O131 Mg132 1.926 . S
O131 Mg133 1.986 . S
Mg132 O131 1.926 . S
Mg132 O146 1.984 . S
Mg132 O149 1.988 . S
Mg132 O150 2.061 . S
Mg133 O131 1.986 . S
Mg133 O141 2.238 . S
Mg133 O145 2.042 . S
Mg133 O147 2.041 . S
Mg133 O154 2.038 . S
C134 O140 1.247 . S
C134 O141 1.289 . S
C135 O153 1.245 . S
C135 O154 1.274 . S
O136 C124 1.241 . S
O136 Mg129 2.042 . S
O137 C124 1.280 . S
O137 Mg127 1.984 . S
O138 C125 1.277 . S
O138 Mg129 2.041 . S
O139 C125 1.245 . S
O139 Mg127 1.988 . S
O140 Mg127 2.061 . S
O140 C134 1.247 . S
O141 Mg130 2.106 . S
O141 Mg133 2.238 . S
O141 C134 1.289 . S
C142 O143 1.245 . S
C142 O144 1.274 . S
O143 Mg130 2.079 . S
O143 C142 1.245 . S
O144 Mg129 2.038 . S
O144 C142 1.274 . S
O145 Mg133 2.042 . S
O145 C148 1.241 1_545 S
O146 Mg132 1.984 . S
O146 C148 1.280 1_545 S
O147 Mg133 2.041 . S
O147 C151 1.277 . S
C148 O145 1.241 1_565 S
C148 O146 1.280 1_565 S
O149 Mg132 1.988 . S
O149 C151 1.245 . S
O150 C126 1.247 . S
O150 Mg132 2.061 . S
C151 O147 1.277 . S
C151 O149 1.245 . S
O152 C126 1.289 . S
O152 Mg129 2.238 . S
O152 Mg130 2.106 . S
O153 Mg130 2.079 . S
O153 C135 1.245 . S
O154 Mg133 2.038 . S
O154 C135 1.274 . S
C155 O167 1.241 . S
C155 O168 1.280 . S
C156 O169 1.277 . S
C156 O170 1.245 . S
C157 O181 1.247 . S
C157 O183 1.289 . S
Mg158 O159 1.926 . S
Mg158 O168 1.984 . S
Mg158 O170 1.988 . S
Mg158 O171 2.061 . S
O159 Mg158 1.926 . S
O159 Mg160 1.986 . S
O159 Mg161 1.917 . S
Mg160 O159 1.986 . S
Mg160 O167 2.042 . S
Mg160 O169 2.041 . S
Mg160 O175 2.038 . S
Mg160 O183 2.238 . S
Mg161 O159 1.917 . S
Mg161 O162 1.917 . S
Mg161 O172 2.106 . S
Mg161 O174 2.079 . S
Mg161 O183 2.106 . S
Mg161 O184 2.079 . S
O162 Mg161 1.917 . S
O162 Mg163 1.926 . S
O162 Mg164 1.986 . S
Mg163 O162 1.926 . S
Mg163 O177 1.984 1_556 S
Mg163 O180 1.988 1_556 S
Mg163 O181 2.061 . S
Mg164 O162 1.986 . S
Mg164 O172 2.238 . S
Mg164 O176 2.042 1_556 S
Mg164 O178 2.041 1_556 S
Mg164 O185 2.038 . S
C165 O171 1.247 . S
C165 O172 1.289 . S
C166 O184 1.245 . S
C166 O185 1.274 . S
O167 C155 1.241 . S
O167 Mg160 2.042 . S
O168 C155 1.280 . S
O168 Mg158 1.984 . S
O169 C156 1.277 . S
O169 Mg160 2.041 . S
O170 C156 1.245 . S
O170 Mg158 1.988 . S
O171 Mg158 2.061 . S
O171 C165 1.247 . S
O172 Mg161 2.106 . S
O172 Mg164 2.238 . S
O172 C165 1.289 . S
C173 O174 1.245 . S
C173 O175 1.274 . S
O174 Mg161 2.079 . S
O174 C173 1.245 . S
O175 Mg160 2.038 . S
O175 C173 1.274 . S
O176 Mg164 2.042 1_554 S
O176 C179 1.241 . S
O177 Mg163 1.984 1_554 S
O177 C179 1.280 . S
O178 Mg164 2.041 1_554 S
O178 C182 1.277 . S
C179 O176 1.241 . S
C179 O177 1.280 . S
O180 Mg163 1.988 1_554 S
O180 C182 1.245 . S
O181 C157 1.247 . S
O181 Mg163 2.061 . S
C182 O178 1.277 . S
C182 O180 1.245 . S
O183 C157 1.289 . S
O183 Mg160 2.238 . S
O183 Mg161 2.106 . S
O184 Mg161 2.079 . S
O184 C166 1.245 . S
O185 Mg164 2.038 . S
O185 C166 1.274 . S
H186 C192 0.930 . S
H187 C195 0.930 . S
H188 C196 0.930 . S
H189 C197 0.930 . S
H190 C200 0.930 . S
H191 C201 0.930 . S
C192 H186 0.930 . S
C192 C193 1.355 . S
C192 C194 1.415 . S
C193 C192 1.355 . S
C193 C195 1.419 . S
C194 C192 1.415 . S
C194 C199 1.425 . S
C194 C201 1.409 . S
C195 H187 0.930 . S
C195 C193 1.419 . S
C195 C196 1.362 . S
C196 H188 0.930 . S
C196 C195 1.362 . S
C196 C199 1.409 . S
C197 H189 0.930 . S
C197 C198 1.355 . S
C197 C199 1.415 . S
C198 C197 1.355 . S
C198 C200 1.419 . S
C199 C194 1.425 . S
C199 C196 1.409 . S
C199 C197 1.415 . S
C200 H190 0.930 . S
C200 C198 1.419 . S
C200 C201 1.362 . S
C201 H191 0.930 . S
C201 C194 1.409 . S
C201 C200 1.362 . S
H202 C208 0.930 . S
H203 C211 0.930 . S
H204 C212 0.930 . S
H205 C213 0.930 . S
H206 C216 0.930 . S
H207 C217 0.930 . S
C208 H202 0.930 . S
C208 C209 1.355 . S
C208 C210 1.415 . S
C209 C208 1.355 . S
C209 C211 1.419 . S
C210 C208 1.415 . S
C210 C215 1.425 . S
C210 C217 1.409 . S
C211 H203 0.930 . S
C211 C209 1.419 . S
C211 C212 1.362 . S
C212 H204 0.930 . S
C212 C211 1.362 . S
C212 C215 1.409 . S
C213 H205 0.930 . S
C213 C214 1.355 . S
C213 C215 1.415 . S
C214 C213 1.355 . S
C214 C216 1.419 . S
C215 C210 1.425 . S
C215 C212 1.409 . S
C215 C213 1.415 . S
C216 H206 0.930 . S
C216 C214 1.419 . S
C216 C217 1.362 . S
C217 H207 0.930 . S
C217 C210 1.409 . S
C217 C216 1.362 . S
H218 C224 0.930 . S
H219 C227 0.930 . S
H220 C228 0.930 . S
H221 C229 0.930 . S
H222 C232 0.930 . S
H223 C233 0.930 . S
C224 H218 0.930 . S
C224 C225 1.355 . S
C224 C226 1.415 . S
C225 C224 1.355 . S
C225 C227 1.419 . S
C226 C224 1.415 . S
C226 C231 1.425 . S
C226 C233 1.409 . S
C227 H219 0.930 . S
C227 C225 1.419 . S
C227 C228 1.362 . S
C228 H220 0.930 . S
C228 C227 1.362 . S
C228 C231 1.409 . S
C229 H221 0.930 . S
C229 C230 1.355 . S
C229 C231 1.415 . S
C230 C229 1.355 . S
C230 C232 1.419 . S
C231 C226 1.425 . S
C231 C228 1.409 . S
C231 C229 1.415 . S
C232 H222 0.930 . S
C232 C230 1.419 . S
C232 C233 1.362 . S
C233 H223 0.930 . S
C233 C226 1.409 . S
C233 C232 1.362 . S
H234 C240 0.930 . S
H235 C243 0.930 . S
H236 C244 0.930 . S
H237 C245 0.930 . S
H238 C248 0.930 . S
H239 C249 0.930 . S
C240 H234 0.930 . S
C240 C241 1.355 . S
C240 C242 1.415 . S
C241 C240 1.355 . S
C241 C243 1.419 . S
C242 C240 1.415 . S
C242 C247 1.425 1_554 S
C242 C249 1.409 1_554 S
C243 H235 0.930 . S
C243 C241 1.419 . S
C243 C244 1.362 . S
C244 H236 0.930 . S
C244 C243 1.362 . S
C244 C247 1.409 1_554 S
C245 H237 0.930 . S
C245 C246 1.355 . S
C245 C247 1.415 . S
C246 C245 1.355 . S
C246 C248 1.419 . S
C247 C242 1.425 1_556 S
C247 C244 1.409 1_556 S
C247 C245 1.415 . S
C248 H238 0.930 . S
C248 C246 1.419 . S
C248 C249 1.362 . S
C249 H239 0.930 . S
C249 C242 1.409 1_556 S
C249 C248 1.362 . S
H250 C256 0.930 . S
H251 C259 0.930 . S
H252 C260 0.930 . S
H253 C261 0.930 . S
H254 C264 0.930 . S
H255 C265 0.930 . S
C256 H250 0.930 . S
C256 C257 1.355 . S
C256 C258 1.415 . S
C257 C256 1.355 . S
C257 C259 1.419 . S
C258 C256 1.415 . S
C258 C263 1.425 . S
C258 C265 1.409 . S
C259 H251 0.930 . S
C259 C257 1.419 . S
C259 C260 1.362 . S
C260 H252 0.930 . S
C260 C259 1.362 . S
C260 C263 1.409 . S
C261 H253 0.930 . S
C261 C262 1.355 . S
C261 C263 1.415 . S
C262 C261 1.355 . S
C262 C264 1.419 . S
C263 C258 1.425 . S
C263 C260 1.409 . S
C263 C261 1.415 . S
C264 H254 0.930 . S
C264 C262 1.419 . S
C264 C265 1.362 . S
C265 H255 0.930 . S
C265 C258 1.409 . S
C265 C264 1.362 . S
H266 C272 0.930 . S
H267 C275 0.930 . S
H268 C276 0.930 . S
H269 C277 0.930 . S
H270 C280 0.930 . S
H271 C281 0.930 . S
C272 H266 0.930 . S
C272 C273 1.355 . S
C272 C274 1.415 . S
C273 C272 1.355 . S
C273 C275 1.419 . S
C274 C272 1.415 . S
C274 C279 1.425 . S
C274 C281 1.409 . S
C275 H267 0.930 . S
C275 C273 1.419 . S
C275 C276 1.362 . S
C276 H268 0.930 . S
C276 C275 1.362 . S
C276 C279 1.409 . S
C277 H269 0.930 . S
C277 C278 1.355 . S
C277 C279 1.415 . S
C278 C277 1.355 . S
C278 C280 1.419 . S
C279 C274 1.425 . S
C279 C276 1.409 . S
C279 C277 1.415 . S
C280 H270 0.930 . S
C280 C278 1.419 . S
C280 C281 1.362 . S
C281 H271 0.930 . S
C281 C274 1.409 . S
C281 C280 1.362 . S
H282 C288 0.930 . S
H283 C291 0.930 . S
H284 C292 0.930 . S
H285 C293 0.930 . S
H286 C296 0.930 . S
H287 C297 0.930 . S
C288 H282 0.930 . S
C288 C289 1.355 . S
C288 C290 1.415 . S
C289 C288 1.355 . S
C289 C291 1.419 . S
C290 C288 1.415 . S
C290 C295 1.425 . S
C290 C297 1.409 . S
C291 H283 0.930 . S
C291 C289 1.419 . S
C291 C292 1.362 . S
C292 H284 0.930 . S
C292 C291 1.362 . S
C292 C295 1.409 . S
C293 H285 0.930 . S
C293 C294 1.355 . S
C293 C295 1.415 . S
C294 C293 1.355 . S
C294 C296 1.419 . S
C295 C290 1.425 . S
C295 C292 1.409 . S
C295 C293 1.415 . S
C296 H286 0.930 . S
C296 C294 1.419 . S
C296 C297 1.362 . S
C297 H287 0.930 . S
C297 C290 1.409 . S
C297 C296 1.362 . S
H298 C304 0.930 . S
H299 C307 0.930 . S
H300 C308 0.930 . S
H301 C309 0.930 . S
H302 C312 0.930 . S
H303 C313 0.930 . S
C304 H298 0.930 . S
C304 C305 1.355 . S
C304 C306 1.415 . S
C305 C304 1.355 . S
C305 C307 1.419 . S
C306 C304 1.415 . S
C306 C311 1.425 . S
C306 C313 1.409 . S
C307 H299 0.930 . S
C307 C305 1.419 . S
C307 C308 1.362 . S
C308 H300 0.930 . S
C308 C307 1.362 . S
C308 C311 1.409 . S
C309 H301 0.930 . S
C309 C310 1.355 . S
C309 C311 1.415 . S
C310 C309 1.355 . S
C310 C312 1.419 . S
C311 C306 1.425 . S
C311 C308 1.409 . S
C311 C309 1.415 . S
C312 H302 0.930 . S
C312 C310 1.419 . S
C312 C313 1.362 . S
C313 H303 0.930 . S
C313 C306 1.409 . S
C313 C312 1.362 . S
H314 C320 0.930 . S
H315 C323 0.930 . S
H316 C324 0.930 . S
H317 C325 0.930 . S
H318 C328 0.930 . S
H319 C329 0.930 . S
C320 H314 0.930 . S
C320 C321 1.355 . S
C320 C322 1.415 . S
C321 C320 1.355 . S
C321 C323 1.419 . S
C322 C320 1.415 . S
C322 C327 1.425 . S
C322 C329 1.409 . S
C323 H315 0.930 . S
C323 C321 1.419 . S
C323 C324 1.362 . S
C324 H316 0.930 . S
C324 C323 1.362 . S
C324 C327 1.409 . S
C325 H317 0.930 . S
C325 C326 1.355 . S
C325 C327 1.415 . S
C326 C325 1.355 . S
C326 C328 1.419 . S
C327 C322 1.425 . S
C327 C324 1.409 . S
C327 C325 1.415 . S
C328 H318 0.930 . S
C328 C326 1.419 . S
C328 C329 1.362 . S
C329 H319 0.930 . S
C329 C322 1.409 . S
C329 C328 1.362 . S
H330 C336 0.930 . S
H331 C339 0.930 . S
H332 C340 0.930 . S
H333 C341 0.930 . S
H334 C344 0.930 . S
H335 C345 0.930 . S
C336 H330 0.930 . S
C336 C337 1.355 . S
C336 C338 1.415 . S
C337 C336 1.355 . S
C337 C339 1.419 . S
C338 C336 1.415 . S
C338 C343 1.425 . S
C338 C345 1.409 . S
C339 H331 0.930 . S
C339 C337 1.419 . S
C339 C340 1.362 . S
C340 H332 0.930 . S
C340 C339 1.362 . S
C340 C343 1.409 . S
C341 H333 0.930 . S
C341 C342 1.355 . S
C341 C343 1.415 . S
C342 C341 1.355 . S
C342 C344 1.419 . S
C343 C338 1.425 . S
C343 C340 1.409 . S
C343 C341 1.415 . S
C344 H334 0.930 . S
C344 C342 1.419 . S
C344 C345 1.362 . S
C345 H335 0.930 . S
C345 C338 1.409 . S
C345 C344 1.362 . S
H346 C352 0.930 . S
H347 C355 0.930 . S
H348 C356 0.930 . S
H349 C357 0.930 . S
H350 C360 0.930 . S
H351 C361 0.930 . S
C352 H346 0.930 . S
C352 C353 1.355 . S
C352 C354 1.415 . S
C353 C352 1.355 . S
C353 C355 1.419 . S
C354 C352 1.415 . S
C354 C359 1.425 . S
C354 C361 1.409 . S
C355 H347 0.930 . S
C355 C353 1.419 . S
C355 C356 1.362 . S
C356 H348 0.930 . S
C356 C355 1.362 . S
C356 C359 1.409 . S
C357 H349 0.930 . S
C357 C358 1.355 . S
C357 C359 1.415 . S
C358 C357 1.355 . S
C358 C360 1.419 . S
C359 C354 1.425 . S
C359 C356 1.409 . S
C359 C357 1.415 . S
C360 H350 0.930 . S
C360 C358 1.419 . S
C360 C361 1.362 . S
C361 H351 0.930 . S
C361 C354 1.409 . S
C361 C360 1.362 . S
H362 C368 0.930 . S
H363 C371 0.930 . S
H364 C372 0.930 . S
H365 C373 0.930 . S
H366 C376 0.930 . S
H367 C377 0.930 . S
C368 H362 0.930 . S
C368 C369 1.355 . S
C368 C370 1.415 . S
C369 C368 1.355 . S
C369 C371 1.419 . S
C370 C368 1.415 . S
C370 C375 1.425 . S
C370 C377 1.409 . S
C371 H363 0.930 . S
C371 C369 1.419 . S
C371 C372 1.362 . S
C372 H364 0.930 . S
C372 C371 1.362 . S
C372 C375 1.409 . S
C373 H365 0.930 . S
C373 C374 1.355 . S
C373 C375 1.415 . S
C374 C373 1.355 . S
C374 C376 1.419 . S
C375 C370 1.425 . S
C375 C372 1.409 . S
C375 C373 1.415 . S
C376 H366 0.930 . S
C376 C374 1.419 . S
C376 C377 1.362 . S
C377 H367 0.930 . S
C377 C370 1.409 . S
C377 C376 1.362 . S
H378 C384 0.930 . S
H379 C387 0.930 . S
H380 C388 0.930 . S
H381 C389 0.930 . S
H382 C392 0.930 1_565 S
H383 C393 0.930 . S
C384 H378 0.930 . S
C384 C385 1.355 . S
C384 C386 1.415 . S
C385 C384 1.355 . S
C385 C387 1.419 . S
C386 C384 1.415 . S
C386 C391 1.425 . S
C386 C393 1.409 . S
C387 H379 0.930 . S
C387 C385 1.419 . S
C387 C388 1.362 . S
C388 H380 0.930 . S
C388 C387 1.362 . S
C388 C391 1.409 . S
C389 H381 0.930 . S
C389 C390 1.355 . S
C389 C391 1.415 . S
C390 C389 1.355 . S
C390 C392 1.419 . S
C391 C386 1.425 . S
C391 C388 1.409 . S
C391 C389 1.415 . S
C392 H382 0.930 1_545 S
C392 C390 1.419 . S
C392 C393 1.362 . S
C393 H383 0.930 . S
C393 C386 1.409 . S
C393 C392 1.362 . S
H394 C400 0.930 . S
H395 C403 0.930 . S
H396 C404 0.930 . S
H397 C405 0.930 . S
H398 C408 0.930 . S
H399 C409 0.930 . S
C400 H394 0.930 . S
C400 C401 1.355 . S
C400 C402 1.415 . S
C401 C400 1.355 . S
C401 C403 1.419 . S
C402 C400 1.415 . S
C402 C407 1.425 . S
C402 C409 1.409 . S
C403 H395 0.930 . S
C403 C401 1.419 . S
C403 C404 1.362 . S
C404 H396 0.930 . S
C404 C403 1.362 . S
C404 C407 1.409 . S
C405 H397 0.930 . S
C405 C406 1.355 . S
C405 C407 1.415 . S
C406 C405 1.355 . S
C406 C408 1.419 . S
C407 C402 1.425 . S
C407 C404 1.409 . S
C407 C405 1.415 . S
C408 H398 0.930 . S
C408 C406 1.419 . S
C408 C409 1.362 . S
C409 H399 0.930 . S
C409 C402 1.409 . S
C409 C408 1.362 . S
H410 C416 0.930 . S
H411 C419 0.930 . S
H412 C420 0.930 . S
H413 C421 0.930 . S
H414 C424 0.930 . S
H415 C425 0.930 . S
C416 H410 0.930 . S
C416 C417 1.355 . S
C416 C418 1.415 . S
C417 C416 1.355 . S
C417 C419 1.419 . S
C418 C416 1.415 . S
C418 C423 1.425 . S
C418 C425 1.409 . S
C419 H411 0.930 . S
C419 C417 1.419 . S
C419 C420 1.362 . S
C420 H412 0.930 . S
C420 C419 1.362 . S
C420 C423 1.409 . S
C421 H413 0.930 . S
C421 C422 1.355 . S
C421 C423 1.415 . S
C422 C421 1.355 . S
C422 C424 1.419 . S
C423 C418 1.425 . S
C423 C420 1.409 . S
C423 C421 1.415 . S
C424 H414 0.930 . S
C424 C422 1.419 . S
C424 C425 1.362 . S
C425 H415 0.930 . S
C425 C418 1.409 . S
C425 C424 1.362 . S
H426 C432 0.930 . S
H427 C435 0.930 . S
H428 C436 0.930 . S
H429 C437 0.930 . S
H430 C440 0.930 . S
H431 C441 0.930 . S
C432 H426 0.930 . S
C432 C433 1.355 . S
C432 C434 1.415 . S
C433 C432 1.355 . S
C433 C435 1.419 . S
C434 C432 1.415 . S
C434 C439 1.425 . S
C434 C441 1.409 . S
C435 H427 0.930 . S
C435 C433 1.419 . S
C435 C436 1.362 . S
C436 H428 0.930 . S
C436 C435 1.362 . S
C436 C439 1.409 . S
C437 H429 0.930 . S
C437 C438 1.355 . S
C437 C439 1.415 . S
C438 C437 1.355 . S
C438 C440 1.419 . S
C439 C434 1.425 . S
C439 C436 1.409 . S
C439 C437 1.415 . S
C440 H430 0.930 . S
C440 C438 1.419 . S
C440 C441 1.362 . S
C441 H431 0.930 . S
C441 C434 1.409 . S
C441 C440 1.362 . S
H442 C448 0.930 . S
H443 C451 0.930 . S
H444 C452 0.930 . S
H445 C453 0.930 . S
H446 C456 0.930 . S
H447 C457 0.930 . S
C448 H442 0.930 . S
C448 C449 1.355 . S
C448 C450 1.415 . S
C449 C448 1.355 . S
C449 C451 1.419 . S
C450 C448 1.415 . S
C450 C455 1.425 . S
C450 C457 1.409 . S
C451 H443 0.930 . S
C451 C449 1.419 . S
C451 C452 1.362 . S
C452 H444 0.930 . S
C452 C451 1.362 . S
C452 C455 1.409 . S
C453 H445 0.930 . S
C453 C454 1.355 . S
C453 C455 1.415 . S
C454 C453 1.355 . S
C454 C456 1.419 . S
C455 C450 1.425 . S
C455 C452 1.409 . S
C455 C453 1.415 . S
C456 H446 0.930 . S
C456 C454 1.419 . S
C456 C457 1.362 . S
C457 H447 0.930 . S
C457 C450 1.409 . S
C457 C456 1.362 . S
H458 C464 0.930 . S
H459 C467 0.930 1_554 S
H460 C468 0.930 . S
H461 C469 0.930 . S
H462 C472 0.930 . S
H463 C473 0.930 . S
C464 H458 0.930 . S
C464 C465 1.355 . S
C464 C466 1.415 . S
C465 C464 1.355 . S
C465 C467 1.419 . S
C466 C464 1.415 . S
C466 C471 1.425 . S
C466 C473 1.409 . S
C467 H459 0.930 1_556 S
C467 C465 1.419 . S
C467 C468 1.362 1_556 S
C468 H460 0.930 . S
C468 C467 1.362 1_554 S
C468 C471 1.409 1_554 S
C469 H461 0.930 . S
C469 C470 1.355 . S
C469 C471 1.415 . S
C470 C469 1.355 . S
C470 C472 1.419 . S
C471 C466 1.425 . S
C471 C468 1.409 1_556 S
C471 C469 1.415 . S
C472 H462 0.930 . S
C472 C470 1.419 . S
C472 C473 1.362 . S
C473 H463 0.930 . S
C473 C466 1.409 . S
C473 C472 1.362 . S
H474 C480 0.930 1_655 S
H475 C483 0.930 . S
H476 C484 0.930 . S
H477 C485 0.930 . S
H478 C488 0.930 1_655 S
H479 C489 0.930 . S
C480 H474 0.930 1_455 S
C480 C481 1.355 . S
C480 C482 1.415 . S
C481 C480 1.355 . S
C481 C483 1.419 . S
C482 C480 1.415 . S
C482 C487 1.425 . S
C482 C489 1.409 1_455 S
C483 H475 0.930 . S
C483 C481 1.419 . S
C483 C484 1.362 . S
C484 H476 0.930 . S
C484 C483 1.362 . S
C484 C487 1.409 . S
C485 H477 0.930 . S
C485 C486 1.355 . S
C485 C487 1.415 . S
C486 C485 1.355 . S
C486 C488 1.419 . S
C487 C482 1.425 . S
C487 C484 1.409 . S
C487 C485 1.415 . S
C488 H478 0.930 1_455 S
C488 C486 1.419 . S
C488 C489 1.362 1_455 S
C489 H479 0.930 . S
C489 C482 1.409 1_655 S
C489 C488 1.362 1_655 S
H490 C496 0.930 . S
H491 C499 0.930 . S
H492 C500 0.930 . S
H493 C501 0.930 . S
H494 C504 0.930 . S
H495 C505 0.930 . S
C496 H490 0.930 . S
C496 C497 1.355 . S
C496 C498 1.415 . S
C497 C496 1.355 . S
C497 C499 1.419 . S
C498 C496 1.415 . S
C498 C503 1.425 . S
C498 C505 1.409 1_545 S
C499 H491 0.930 . S
C499 C497 1.419 . S
C499 C500 1.362 . S
C500 H492 0.930 . S
C500 C499 1.362 . S
C500 C503 1.409 . S
C501 H493 0.930 . S
C501 C502 1.355 . S
C501 C503 1.415 . S
C502 C501 1.355 . S
C502 C504 1.419 1_545 S
C503 C498 1.425 . S
C503 C500 1.409 . S
C503 C501 1.415 . S
C504 H494 0.930 . S
C504 C502 1.419 1_565 S
C504 C505 1.362 . S
C505 H495 0.930 . S
C505 C498 1.409 1_565 S
C505 C504 1.362 . S
H506 C512 0.930 . S
H507 C515 0.930 . S
H508 C516 0.930 . S
H509 C517 0.930 . S
H510 C520 0.930 . S
H511 C521 0.930 . S
C512 H506 0.930 . S
C512 C513 1.355 . S
C512 C514 1.415 . S
C513 C512 1.355 . S
C513 C515 1.419 . S
C514 C512 1.415 . S
C514 C519 1.425 . S
C514 C521 1.409 . S
C515 H507 0.930 . S
C515 C513 1.419 . S
C515 C516 1.362 . S
C516 H508 0.930 . S
C516 C515 1.362 . S
C516 C519 1.409 . S
C517 H509 0.930 . S
C517 C518 1.355 . S
C517 C519 1.415 . S
C518 C517 1.355 . S
C518 C520 1.419 . S
C519 C514 1.425 . S
C519 C516 1.409 . S
C519 C517 1.415 . S
C520 H510 0.930 . S
C520 C518 1.419 . S
C520 C521 1.362 . S
C521 H511 0.930 . S
C521 C514 1.409 . S
C521 C520 1.362 . S
H522 C528 0.930 1_455 S
H523 C531 0.930 . S
H524 C532 0.930 . S
H525 C533 0.930 . S
H526 C536 0.930 . S
H527 C537 0.930 1_455 S
C528 H522 0.930 1_655 S
C528 C529 1.355 . S
C528 C530 1.415 . S
C529 C528 1.355 . S
C529 C531 1.419 . S
C530 C528 1.415 . S
C530 C535 1.425 . S
C530 C537 1.409 . S
C531 H523 0.930 . S
C531 C529 1.419 . S
C531 C532 1.362 . S
C532 H524 0.930 . S
C532 C531 1.362 . S
C532 C535 1.409 . S
C533 H525 0.930 . S
C533 C534 1.355 . S
C533 C535 1.415 . S
C534 C533 1.355 . S
C534 C536 1.419 . S
C535 C530 1.425 . S
C535 C532 1.409 . S
C535 C533 1.415 . S
C536 H526 0.930 . S
C536 C534 1.419 . S
C536 C537 1.362 . S
C537 H527 0.930 1_655 S
C537 C530 1.409 . S
C537 C536 1.362 . S
H538 C544 0.930 . S
H539 C547 0.930 . S
H540 C548 0.930 . S
H541 C549 0.930 . S
H542 C552 0.930 . S
H543 C553 0.930 . S
C544 H538 0.930 . S
C544 C545 1.355 1_556 S
C544 C546 1.415 . S
C545 C544 1.355 1_554 S
C545 C547 1.419 . S
C546 C544 1.415 . S
C546 C551 1.425 . S
C546 C553 1.409 . S
C547 H539 0.930 . S
C547 C545 1.419 . S
C547 C548 1.362 . S
C548 H540 0.930 . S
C548 C547 1.362 . S
C548 C551 1.409 1_554 S
C549 H541 0.930 . S
C549 C550 1.355 . S
C549 C551 1.415 . S
C550 C549 1.355 . S
C550 C552 1.419 . S
C551 C546 1.425 . S
C551 C548 1.409 1_556 S
C551 C549 1.415 . S
C552 H542 0.930 . S
C552 C550 1.419 . S
C552 C553 1.362 . S
C553 H543 0.930 . S
C553 C546 1.409 . S
C553 C552 1.362 . S
H554 C560 0.930 . S
H555 C563 0.930 . S
H556 C564 0.930 . S
H557 C565 0.930 . S
H558 C568 0.930 . S
H559 C569 0.930 . S
C560 H554 0.930 . S
C560 C561 1.355 . S
C560 C562 1.415 . S
C561 C560 1.355 . S
C561 C563 1.419 . S
C562 C560 1.415 . S
C562 C567 1.425 . S
C562 C569 1.409 . S
C563 H555 0.930 . S
C563 C561 1.419 . S
C563 C564 1.362 . S
C564 H556 0.930 . S
C564 C563 1.362 . S
C564 C567 1.409 . S
C565 H557 0.930 . S
C565 C566 1.355 . S
C565 C567 1.415 . S
C566 C565 1.355 . S
C566 C568 1.419 . S
C567 C562 1.425 . S
C567 C564 1.409 . S
C567 C565 1.415 . S
C568 H558 0.930 . S
C568 C566 1.419 . S
C568 C569 1.362 . S
C569 H559 0.930 . S
C569 C562 1.409 . S
C569 C568 1.362 . S
C193 C27 1.470 . S
C198 C1 1.470 . S
C209 C58 1.449 . S
C214 C32 1.449 . S
C225 C63 1.487 1_556 S
C230 C89 1.487 . S
C241 C94 1.462 . S
C246 C120 1.462 . S
C257 C151 1.476 1_554 S
C262 C125 1.476 . S
C273 C182 1.462 . S
C278 C156 1.462 . S
C289 C134 1.415 . S
C294 C0 1.384 . S
C305 C31 1.337 . S
C310 C165 1.346 . S
C321 C10 1.330 . S
C326 C62 1.337 . S
C337 C41 1.386 . S
C342 C93 1.448 . S
C353 C124 1.449 . S
C358 C72 1.418 . S
C369 C103 1.366 . S
C374 C155 1.440 . S
C385 C18 2.035 . S
C390 C33 2.029 1_545 S
C401 C49 2.065 . S
C406 C64 2.049 . S
C417 C95 2.012 1_655 S
C422 C80 2.027 . S
C433 C111 2.017 . S
C438 C126 2.005 1_565 S
C449 C142 2.050 . S
C454 C157 2.046 . S
C465 C2 2.005 1_455 S
C470 C173 2.017 . S
C481 C24 1.028 . S
C486 C104 1.090 . S
C497 C135 1.037 . S
C502 C55 0.833 . S
C513 C86 0.834 . S
C518 C166 1.039 . S
C529 C117 0.991 . S
C534 C11 1.064 . S
C545 C42 1.069 . S
C550 C148 1.001 . S
C561 C179 0.841 . S
C566 C73 1.049 . S
