# Generated by pormake.
# Topology snk, (6)-cn, num edge types: 1
# Building blocks:
#     Node 0, Type 0, BuildingBlock: MIFKUJ_clean_sbu_0, # of connection points: 6
#     Node 1, Type 0, BuildingBlock: MIFKUJ_clean_sbu_0, # of connection points: 6
#     Node 2, Type 0, BuildingBlock: MIFKUJ_clean_sbu_0, # of connection points: 6
#     Node 3, Type 0, BuildingBlock: MIFKUJ_clean_sbu_0, # of connection points: 6
#     Node 4, Type 0, BuildingBlock: MIFKUJ_clean_sbu_0, # of connection points: 6
#     Node 5, Type 0, BuildingBlock: MIFKUJ_clean_sbu_0, # of connection points: 6
#     Node 6, Type 0, BuildingBlock: MIFKUJ_clean_sbu_0, # of connection points: 6
#     Node 7, Type 0, BuildingBlock: MIFKUJ_clean_sbu_0, # of connection points: 6
#     Edge 8, Type (0, 0), BuildingBlock: AJUNOK_clean_linker_0, # of connection points: 2
#     Edge 9, Type (0, 0), BuildingBlock: AJUNOK_clean_linker_0, # of connection points: 2
#     Edge 10, Type (0, 0), BuildingBlock: AJUNOK_clean_linker_0, # of connection points: 2
#     Edge 11, Type (0, 0), BuildingBlock: AJUNOK_clean_linker_0, # of connection points: 2
#     Edge 12, Type (0, 0), BuildingBlock: AJUNOK_clean_linker_0, # of connection points: 2
#     Edge 13, Type (0, 0), BuildingBlock: AJUNOK_clean_linker_0, # of connection points: 2
#     Edge 14, Type (0, 0), BuildingBlock: AJUNOK_clean_linker_0, # of connection points: 2
#     Edge 15, Type (0, 0), BuildingBlock: AJUNOK_clean_linker_0, # of connection points: 2
#     Edge 16, Type (0, 0), BuildingBlock: AJUNOK_clean_linker_0, # of connection points: 2
#     Edge 17, Type (0, 0), BuildingBlock: AJUNOK_clean_linker_0, # of connection points: 2
#     Edge 18, Type (0, 0), BuildingBlock: AJUNOK_clean_linker_0, # of connection points: 2
#     Edge 19, Type (0, 0), BuildingBlock: AJUNOK_clean_linker_0, # of connection points: 2
#     Edge 20, Type (0, 0), BuildingBlock: AJUNOK_clean_linker_0, # of connection points: 2
#     Edge 21, Type (0, 0), BuildingBlock: AJUNOK_clean_linker_0, # of connection points: 2
#     Edge 22, Type (0, 0), BuildingBlock: AJUNOK_clean_linker_0, # of connection points: 2
#     Edge 23, Type (0, 0), BuildingBlock: AJUNOK_clean_linker_0, # of connection points: 2
#     Edge 24, Type (0, 0), BuildingBlock: AJUNOK_clean_linker_0, # of connection points: 2
#     Edge 25, Type (0, 0), BuildingBlock: AJUNOK_clean_linker_0, # of connection points: 2
#     Edge 26, Type (0, 0), BuildingBlock: AJUNOK_clean_linker_0, # of connection points: 2
#     Edge 27, Type (0, 0), BuildingBlock: AJUNOK_clean_linker_0, # of connection points: 2
#     Edge 28, Type (0, 0), BuildingBlock: AJUNOK_clean_linker_0, # of connection points: 2
#     Edge 29, Type (0, 0), BuildingBlock: AJUNOK_clean_linker_0, # of connection points: 2
#     Edge 30, Type (0, 0), BuildingBlock: AJUNOK_clean_linker_0, # of connection points: 2
#     Edge 31, Type (0, 0), BuildingBlock: AJUNOK_clean_linker_0, # of connection points: 2
# Relax obj value: 0.045
# Max RMSD: 0.080
# Mean RMSD: 0.071
data_MOF--net-snk--node1-MIFKUJ_clean_sbu_0--edge1-AJUNOK_clean_linker_0
_symmetry_space_group_name_H-M    P1
_symmetry_Int_Tables_number       1
_symmetry_cell_setting            triclinic
loop_
_symmetry_equiv_pos_as_xyz
'x, y, z'
_cell_length_a     31.324369
_cell_length_b     31.268116
_cell_length_c     14.487364
_cell_angle_alpha  98.892836
_cell_angle_beta   81.032172
_cell_angle_gamma 87.940891
loop_
_atom_site_label
_atom_site_type_symbol
_atom_site_fract_x
_atom_site_fract_y
_atom_site_fract_z
_atom_type_partial_charge
Zn0 Zn 0.00989 0.01897 0.38724 0.0
Zn1 Zn 0.02115 0.03139 0.61259 0.0
C2 C 0.92521 0.05074 0.39053 0.0
O3 O 0.92345 1.00952 0.3563 0.0
C4 C 0.09249 0.98109 0.64403 0.0
O5 O 0.09382 0.01624 0.7059 0.0
O6 O 0.01352 1.00323 0.24529 0.0
O7 O 0.065 0.04779 0.40601 0.0
O8 O 0.05121 0.07943 0.55626 0.0
C9 C 0.0136 0.0364 0.20407 0.0
O10 O 0.01394 0.07481 0.25537 0.0
O11 O 0.95969 0.06363 0.41896 0.0
C12 C 1.0 0.01792 0.80309 0.0
O13 O 0.99357 0.97945 0.75815 0.0
O14 O 0.01005 0.04791 0.75491 0.0
O15 O 0.96408 0.01346 0.57757 0.0
O16 O 0.99267 0.96754 0.45098 0.0
O17 O 0.06447 0.97959 0.58888 0.0
C18 C 0.07268 0.07623 0.47313 0.0
C19 C 0.96403 0.97714 0.5246 0.0
Zn20 Zn 0.26202 0.76314 0.87883 0.0
Zn21 Zn 0.27492 0.77338 0.65443 0.0
C22 C 0.29421 0.67845 0.87999 0.0
O23 O 0.25314 0.6763 0.91458 0.0
C24 C 0.22528 0.84656 0.63273 0.0
O25 O 0.26048 0.84827 0.57129 0.0
O26 O 0.24428 0.76747 0.0205 0.0
O27 O 0.29181 0.81788 0.85837 0.0
O28 O 0.32361 0.80286 0.7082 0.0
C29 C 0.27582 0.76768 0.0664 0.0
O30 O 0.31527 0.7683 0.0201 0.0
O31 O 0.30667 0.71302 0.85095 0.0
C32 C 0.25732 0.75388 0.46754 0.0
O33 O 0.22007 0.74697 0.51692 0.0
O34 O 0.28874 0.76362 0.51142 0.0
O35 O 0.25872 0.71563 0.68859 0.0
O36 O 0.21155 0.74475 0.81268 0.0
O37 O 0.22317 0.81684 0.68398 0.0
C38 C 0.32051 0.82482 0.79084 0.0
C39 C 0.22279 0.71474 0.74221 0.0
Zn40 Zn 0.51238 1.00526 0.10694 0.0
Zn41 Zn 0.50654 0.01159 0.89303 0.0
C42 C 0.59153 0.04741 0.11665 0.0
O43 O 0.60581 1.00827 0.12412 0.0
C44 C 0.43214 0.96715 0.85206 0.0
O45 O 0.42693 1.00094 0.81031 0.0
O46 O 0.51004 0.99281 0.24003 0.0
O47 O 0.45316 0.03058 0.09853 0.0
O48 O 0.47836 0.06508 0.98179 0.0
C49 C 0.50341 0.02479 0.30752 0.0
O50 O 0.49605 0.0637 0.28767 0.0
O51 O 0.55303 0.05344 0.10186 0.0
C52 C 0.51954 0.99639 0.68983 0.0
O53 O 0.52781 0.95658 0.70367 0.0
O54 O 0.51139 0.02641 0.76123 0.0
O55 O 0.56555 0.98527 0.90327 0.0
O56 O 0.53932 0.95098 0.01886 0.0
O57 O 0.4639 0.96465 0.89641 0.0
C58 C 0.45019 0.06215 0.05363 0.0
C59 C 0.56785 0.95331 0.94733 0.0
Zn60 Zn 0.25709 0.26408 0.14423 0.0
Zn61 Zn 0.265 0.2558 0.35679 0.0
C62 C 0.2989 0.34362 0.14124 0.0
O63 O 0.25992 0.35783 0.13294 0.0
C64 C 0.21771 0.18398 0.40514 0.0
O65 O 0.25112 0.17846 0.44764 0.0
O66 O 0.24507 0.26353 0.01096 0.0
O67 O 0.28219 0.20408 0.14858 0.0
O68 O 0.31721 0.22564 0.26662 0.0
C69 C 0.27753 0.26033 0.94487 0.0
O70 O 0.31653 0.25641 0.96632 0.0
O71 O 0.30509 0.30469 0.15364 0.0
C72 C 0.25058 0.27216 0.55973 0.0
O73 O 0.21116 0.28159 0.54541 0.0
O74 O 0.28032 0.26166 0.48834 0.0
O75 O 0.24046 0.31522 0.34487 0.0
O76 O 0.20308 0.29039 0.23414 0.0
O77 O 0.21661 0.2148 0.35744 0.0
C78 C 0.31397 0.19942 0.1919 0.0
C79 C 0.20712 0.31824 0.30568 0.0
Zn80 Zn 0.73856 0.24492 0.34107 0.0
Zn81 Zn 0.7561 0.2485 0.12093 0.0
C82 C 0.78415 0.16693 0.34431 0.0
O83 O 0.74473 0.15886 0.3807 0.0
C84 C 0.70728 0.32471 0.11097 0.0
O85 O 0.7413 0.32757 0.04715 0.0
O86 O 0.72432 0.2497 0.48507 0.0
O87 O 0.75811 0.30261 0.31154 0.0
O88 O 0.80459 0.27429 0.18436 0.0
C89 C 0.75646 0.25596 0.52887 0.0
O90 O 0.79378 0.26308 0.48008 0.0
O91 O 0.79006 0.20218 0.31203 0.0
C92 C 0.74035 0.23677 0.92886 0.0
O93 O 0.70187 0.23035 0.97361 0.0
O94 O 0.77107 0.24323 0.97682 0.0
O95 O 0.73618 0.19069 0.14881 0.0
O96 O 0.69042 0.21792 0.27792 0.0
O97 O 0.70568 0.29299 0.15651 0.0
C98 C 0.79391 0.3035 0.25693 0.0
C99 C 0.70072 0.18934 0.20415 0.0
Zn100 Zn 0.78184 0.78709 0.63702 0.0
Zn101 Zn 0.74033 0.72871 0.86962 0.0
C102 C 0.8234 0.86686 0.61782 0.0
O103 O 0.78335 0.88354 0.63309 0.0
C104 C 0.69573 0.65916 0.94324 0.0
O105 O 0.72965 0.6568 0.98566 0.0
O106 O 0.76177 0.77793 0.51189 0.0
O107 O 0.80943 0.72934 0.65015 0.0
O108 O 0.78923 0.69678 0.77399 0.0
C109 C 0.79035 0.76752 0.43855 0.0
O110 O 0.83104 0.76241 0.44893 0.0
O111 O 0.83038 0.82691 0.62095 0.0
C112 C 0.73665 0.7514 0.06879 0.0
O113 O 0.69508 0.75534 0.06519 0.0
O114 O 0.76312 0.74098 0.99205 0.0
O115 O 0.71084 0.78496 0.85236 0.0
O116 O 0.73163 0.8188 0.73116 0.0
O117 O 0.69364 0.68662 0.88765 0.0
C118 C 0.81299 0.69792 0.69507 0.0
C119 C 0.70666 0.81654 0.80811 0.0
Zn120 Zn 0.49225 0.49518 0.92652 0.0
Zn121 Zn 0.49721 0.50967 0.1485 0.0
C122 C 0.41252 0.53835 0.92288 0.0
O123 O 0.40522 0.49869 0.88623 0.0
C124 C 0.57214 0.46057 0.16202 0.0
O125 O 0.57477 0.49509 0.22469 0.0
O126 O 0.49699 0.47971 0.78363 0.0
O127 O 0.54906 0.51813 0.95224 0.0
O128 O 0.52489 0.55851 0.09131 0.0
C129 C 0.50263 0.51179 0.73935 0.0
O130 O 0.50843 0.54964 0.78779 0.0
O131 O 0.44757 0.54503 0.95519 0.0
C132 C 0.48393 0.49345 0.33993 0.0
O133 O 0.47791 0.45475 0.29557 0.0
O134 O 0.49043 0.52412 0.2918 0.0
O135 O 0.43956 0.49137 0.11749 0.0
O136 O 0.46835 0.44575 0.98985 0.0
O137 O 0.54126 0.45885 0.11429 0.0
C138 C 0.55229 0.55049 0.01521 0.0
C139 C 0.43926 0.45558 0.06267 0.0
Zn140 Zn 0.03749 0.53175 0.61566 0.0
Zn141 Zn 0.98219 0.48578 0.3811 0.0
C142 C 0.11392 0.57215 0.65909 0.0
O143 O 0.1253 0.53223 0.66716 0.0
C144 C 0.9035 0.44422 0.35318 0.0
O145 O 0.88779 0.48442 0.36153 0.0
O146 O 0.02739 0.50904 0.738 0.0
O147 O 0.98046 0.55945 0.59941 0.0
O148 O 0.94991 0.53573 0.47437 0.0
C149 C 0.01788 0.53531 0.81521 0.0
O150 O 0.01293 0.57698 0.81234 0.0
O151 O 0.07745 0.58005 0.63534 0.0
C152 C 1.00302 0.47843 0.18232 0.0
O153 O 0.00832 0.43749 0.19125 0.0
O154 O 0.99233 0.5065 0.25647 0.0
O155 O 0.03926 0.45817 0.39736 0.0
O156 O 0.07021 0.48269 0.52074 0.0
O157 O 0.94252 0.43716 0.36339 0.0
C158 C 0.94999 0.56142 0.5514 0.0
C159 C 0.07019 0.45663 0.44423 0.0
C160 C 0.13514 0.11562 0.5236 0.0
C161 C 0.1086 0.10472 0.45482 0.0
C162 C 0.17071 0.14083 0.50615 0.0
C163 C 0.18034 0.15696 0.42026 0.0
H164 H 0.12895 0.10381 0.59063 0.0
H165 H 0.1905 0.14817 0.56092 0.0
S166 S 0.11987 0.1389 0.21847 0.0
N167 N 0.09406 0.11225 0.29789 0.0
N168 N 0.16006 0.16092 0.26643 0.0
C169 C 0.15358 0.14702 0.35162 0.0
C170 C 0.11796 0.12049 0.36851 0.0
C171 C 0.14699 0.92337 0.55523 0.0
C172 C 0.12281 0.94377 0.6415 0.0
C173 C 0.1797 0.89129 0.55326 0.0
C174 C 0.18834 0.87778 0.6372 0.0
H175 H 0.14184 0.93353 0.4894 0.0
H176 H 0.19865 0.87723 0.48554 0.0
S177 S 0.13096 0.91854 0.88021 0.0
N178 N 0.10783 0.94694 0.81225 0.0
N179 N 0.16827 0.88536 0.80808 0.0
C180 C 0.16283 0.8964 0.72337 0.0
C181 C 0.13032 0.92984 0.72562 0.0
C182 C 0.36042 0.88675 0.73866 0.0
C183 C 0.34955 0.86035 0.80792 0.0
C184 C 0.38661 0.92167 0.75448 0.0
C185 C 0.40378 0.93072 0.83909 0.0
H186 H 0.34794 0.88088 0.67245 0.0
H187 H 0.39399 0.94132 0.69932 0.0
S188 S 0.38592 0.87053 0.04169 0.0
N189 N 0.35798 0.84545 0.9641 0.0
N190 N 0.40851 0.91021 0.99244 0.0
C191 C 0.39372 0.90418 0.90831 0.0
C192 C 0.36619 0.86925 0.89313 0.0
C193 C 0.40069 0.10996 0.1847 0.0
C194 C 0.41476 0.0964 0.08708 0.0
C195 C 0.36827 0.14347 0.21796 0.0
C196 C 0.34775 0.16372 0.15487 0.0
H197 H 0.41549 0.09523 0.23585 0.0
H198 H 0.35892 0.1533 0.29372 0.0
S199 S 0.37178 0.13903 0.89238 0.0
N200 N 0.40557 0.10561 0.9277 0.0
N201 N 0.34343 0.1671 0.99001 0.0
C202 C 0.36089 0.14975 0.05709 0.0
C203 C 0.39473 0.11653 0.02327 0.0
C204 C 0.88945 0.96542 0.60228 0.0
C205 C 0.92881 0.94807 0.54582 0.0
C206 C 0.8555 0.93893 0.62478 0.0
C207 C 0.8599 0.89396 0.59333 0.0
H208 H 0.88457 0.99988 0.62875 0.0
H209 H 0.82577 0.9538 0.66807 0.0
S210 S 0.95613 0.83236 0.44271 0.0
N211 N 0.96998 0.88312 0.45781 0.0
N212 N 0.90643 0.83314 0.50148 0.0
C213 C 0.89908 0.87609 0.53693 0.0
C214 C 0.93344 0.9032 0.51269 0.0
C215 C 0.84803 0.0673 0.37949 0.0
C216 C 0.88976 0.08186 0.38318 0.0
C217 C 0.8143 0.09495 0.36559 0.0
C218 C 0.82118 0.13801 0.35301 0.0
H219 H 0.84129 0.03421 0.38757 0.0
H220 H 0.7826 0.08234 0.36422 0.0
S221 S 0.92478 0.19199 0.35537 0.0
N222 N 0.93627 0.14222 0.37295 0.0
N223 N 0.87298 0.19408 0.34541 0.0
C224 C 0.86286 0.15301 0.35596 0.0
C225 C 0.8971 0.125 0.37167 0.0
C226 C 0.69008 0.11296 0.13585 0.0
C227 C 0.67203 0.15396 0.18246 0.0
C228 C 0.66376 0.07873 0.11417 0.0
C229 C 0.61842 0.0846 0.13593 0.0
H230 H 0.72489 0.10704 0.11739 0.0
H231 H 0.67905 0.04748 0.07974 0.0
S232 S 0.55507 0.18599 0.25609 0.0
N233 N 0.60608 0.19861 0.24938 0.0
N234 N 0.55648 0.13465 0.20626 0.0
C235 C 0.5999 0.12565 0.18117 0.0
C236 C 0.62675 0.16022 0.2052 0.0
C237 C 0.66394 0.88452 0.79369 0.0
C238 C 0.67149 0.85144 0.84636 0.0
C239 C 0.63074 0.91728 0.82699 0.0
C240 C 0.60343 0.91857 0.91456 0.0
H241 H 0.68365 0.88508 0.72551 0.0
H242 H 0.62626 0.94158 0.78299 0.0
S243 S 0.61035 0.84098 0.08262 0.0
N244 N 0.64914 0.8231 0.99258 0.0
N245 N 0.58721 0.88443 0.05491 0.0
C246 C 0.61087 0.88607 0.96861 0.0
C247 C 0.64468 0.85268 0.93469 0.0
C248 C 0.602 0.58863 0.90815 0.0
C249 C 0.58847 0.57871 0.99921 0.0
C250 C 0.63646 0.6152 0.8908 0.0
C251 C 0.65939 0.63154 0.96326 0.0
H252 H 0.58551 0.57621 0.85012 0.0
H253 H 0.64566 0.62242 0.81987 0.0
S254 S 0.63712 0.61444 0.21356 0.0
N255 N 0.60033 0.5874 0.16269 0.0
N256 N 0.6662 0.63609 0.12939 0.0
C257 C 0.64648 0.62149 0.05438 0.0
C258 C 0.61066 0.59541 0.07258 0.0
C259 C 0.65802 0.3725 0.04724 0.0
C260 C 0.67085 0.35726 0.12578 0.0
C261 C 0.62467 0.40492 0.05915 0.0
C262 C 0.6042 0.42395 0.15009 0.0
H263 H 0.67391 0.35925 0.9761 0.0
H264 H 0.61588 0.41619 0.99716 0.0
S265 S 0.6252 0.39487 0.37819 0.0
N266 N 0.65952 0.36236 0.29697 0.0
N267 N 0.59794 0.4247 0.3197 0.0
C268 C 0.6164 0.40873 0.22907 0.0
C269 C 0.64948 0.37492 0.21683 0.0
C270 C 0.83113 0.41361 0.34942 0.0
C271 C 0.87651 0.40763 0.32829 0.0
C272 C 0.80474 0.37967 0.3261 0.0
C273 C 0.82271 0.33875 0.27886 0.0
H274 H 0.81581 0.44463 0.38522 0.0
H275 H 0.76993 0.38569 0.34442 0.0
S276 S 0.93964 0.30628 0.20648 0.0
N277 N 0.93834 0.35748 0.25726 0.0
N278 N 0.88858 0.29398 0.21196 0.0
C279 C 0.86799 0.33237 0.25642 0.0
C280 C 0.89493 0.36671 0.28165 0.0
C281 C 0.86784 0.64182 0.71824 0.0
C282 C 0.84686 0.6624 0.65632 0.0
C283 C 0.90115 0.60935 0.68369 0.0
C284 C 0.91405 0.59529 0.58581 0.0
H285 H 0.85912 0.65153 0.79417 0.0
H286 H 0.91673 0.59494 0.73419 0.0
S287 S 0.8685 0.6378 0.39373 0.0
N288 N 0.84111 0.66603 0.49227 0.0
N289 N 0.90275 0.60425 0.42736 0.0
C290 C 0.89275 0.61501 0.52309 0.0
C291 C 0.85949 0.64876 0.55829 0.0
C292 C 0.32911 0.41652 0.14743 0.0
C293 C 0.3358 0.37117 0.12527 0.0
C294 C 0.36297 0.44353 0.1279 0.0
C295 C 0.40443 0.42618 0.08319 0.0
H296 H 0.29746 0.43129 0.18022 0.0
H297 H 0.35637 0.47832 0.14627 0.0
S298 S 0.43884 0.30953 0.01052 0.0
N299 N 0.38725 0.30999 0.05745 0.0
N300 N 0.45054 0.36091 0.01834 0.0
C301 C 0.41159 0.38091 0.06054 0.0
C302 C 0.37738 0.35335 0.08237 0.0
C303 C 0.33975 0.56776 0.90487 0.0
C304 C 0.38302 0.57498 0.91434 0.0
C305 C 0.31152 0.6013 0.89204 0.0
C306 C 0.3257 0.64312 0.88634 0.0
H307 H 0.32746 0.53598 0.90804 0.0
H308 H 0.2783 0.59433 0.8864 0.0
S309 S 0.43641 0.67862 0.90345 0.0
N310 N 0.43902 0.62697 0.91528 0.0
N311 N 0.38609 0.68984 0.88983 0.0
C312 C 0.3691 0.65067 0.89411 0.0
C313 C 0.39769 0.61667 0.9087 0.0
C314 C 0.15033 0.68477 0.73596 0.0
C315 C 0.19552 0.67786 0.72448 0.0
C316 C 0.12419 0.65041 0.71358 0.0
C317 C 0.1423 0.60782 0.68125 0.0
H318 H 0.13517 0.71709 0.76018 0.0
H319 H 0.08951 0.65722 0.7225 0.0
S320 S 0.25896 0.57259 0.64437 0.0
N321 N 0.25734 0.62541 0.68099 0.0
N322 N 0.2082 0.56062 0.64162 0.0
C323 C 0.18742 0.60041 0.67178 0.0
C324 C 0.21405 0.63551 0.69262 0.0
C325 C 0.13965 0.36096 0.29072 0.0
C326 C 0.17332 0.35438 0.34208 0.0
C327 C 0.10701 0.39422 0.32369 0.0
C328 C 0.10633 0.4225 0.40985 0.0
H329 H 0.13835 0.34022 0.22416 0.0
H330 H 0.08194 0.39753 0.28109 0.0
S331 S 0.18697 0.41913 0.57225 0.0
N332 N 0.20393 0.3792 0.48401 0.0
N333 N 0.14272 0.44134 0.54609 0.0
C334 C 0.13998 0.41642 0.46186 0.0
C335 C 0.17333 0.38255 0.42806 0.0
C336 C 1.00071 0.98785 0.95334 0.0
C337 C 1.00177 0.02405 0.9061 0.0
C338 C 1.005 0.992 0.04916 0.0
C339 C 0.01038 0.03256 0.10194 0.0
H340 H 0.99712 0.95576 0.91585 0.0
H341 H 1.004 0.96311 0.08198 0.0
S342 S 0.01464 0.13783 0.01226 0.0
N343 N 0.0081 0.10201 0.91999 0.0
N344 N 0.01617 0.10995 0.09963 0.0
C345 C 0.01123 0.06916 0.05575 0.0
C346 C 1.00691 0.06488 0.95809 0.0
C347 C 0.30062 0.7655 0.31396 0.0
C348 C 0.26112 0.75567 0.36463 0.0
C349 C 0.3047 0.7697 0.21819 0.0
C350 C 0.26943 0.76441 0.16874 0.0
H351 H 0.32874 0.77032 0.34854 0.0
H352 H 0.33592 0.77732 0.18285 0.0
S353 S 0.15891 0.73756 0.26768 0.0
N354 N 0.18592 0.74013 0.35733 0.0
N355 N 0.19372 0.74812 0.17738 0.0
C356 C 0.22972 0.7544 0.21819 0.0
C357 C 0.22556 0.74994 0.31593 0.0
C358 C 0.52565 0.97141 0.51529 0.0
C359 C 0.51598 1.00516 0.59324 0.0
C360 C 0.52108 0.97797 0.42372 0.0
C361 C 0.50667 0.01861 0.40594 0.0
H362 H 0.5368 0.93943 0.52479 0.0
H363 H 0.5292 0.95089 0.36636 0.0
S364 S 0.47602 0.11773 0.58567 0.0
N365 N 0.49064 0.0808 0.64655 0.0
N366 N 0.48212 0.09316 0.47469 0.0
C367 C 0.49675 0.05272 0.48323 0.0
C368 C 0.50141 0.04602 0.57666 0.0
C369 C 0.23115 0.27652 0.82684 0.0
C370 C 0.2717 0.2629 0.84603 0.0
C371 C 0.22497 0.28007 0.73448 0.0
C372 C 0.25899 0.26997 0.65717 0.0
H373 H 0.20389 0.28481 0.88368 0.0
H374 H 0.19303 0.29062 0.72385 0.0
S375 S 0.37147 0.23179 0.66882 0.0
N376 N 0.34646 0.2387 0.77955 0.0
N377 N 0.33483 0.24525 0.60626 0.0
C378 C 0.29977 0.25624 0.67529 0.0
C379 C 0.3061 0.25273 0.7695 0.0
C380 C 0.70999 0.23799 0.77855 0.0
C381 C 0.74601 0.24078 0.82634 0.0
C382 C 0.71352 0.24335 0.6832 0.0
C383 C 0.75322 0.2518 0.63105 0.0
H384 H 0.6785 0.23184 0.81512 0.0
H385 H 0.68477 0.24077 0.65021 0.0
S386 S 0.85781 0.26152 0.72193 0.0
N387 N 0.82295 0.25211 0.81327 0.0
N388 N 0.82974 0.26214 0.63472 0.0
C389 C 0.78963 0.2545 0.6778 0.0
C390 C 0.786 0.24899 0.77501 0.0
C391 C 0.73508 0.77411 0.33382 0.0
C392 C 0.77792 0.76287 0.34317 0.0
C393 C 0.7223 0.77067 0.24483 0.0
C394 C 0.7518 0.75587 0.16141 0.0
H395 H 0.71106 0.78586 0.39573 0.0
H396 H 0.68891 0.77975 0.24173 0.0
S397 S 0.8677 0.72116 0.14682 0.0
N398 N 0.84984 0.73559 0.26116 0.0
N399 N 0.82583 0.72916 0.09376 0.0
C400 C 0.79481 0.74441 0.16951 0.0
C401 C 0.80784 0.74788 0.26036 0.0
C402 C 0.48882 0.46823 0.58718 0.0
C403 C 0.49897 0.50781 0.6371 0.0
C404 C 0.48345 0.4642 0.49188 0.0
C405 C 0.48795 0.49957 0.44217 0.0
H406 H 0.48473 0.44003 0.62196 0.0
H407 H 0.47585 0.43287 0.45696 0.0
S408 S 0.51485 0.61048 0.53968 0.0
N409 N 0.51367 0.58326 0.62886 0.0
N410 N 0.50355 0.5756 0.4504 0.0
C411 C 0.49819 0.53938 0.49111 0.0
C412 C 0.50373 0.5435 0.58819 0.0
C413 C 1.00148 0.54894 0.9919 0.0
C414 C 0.01409 0.51954 0.9073 0.0
C415 C 0.99829 0.53533 0.08015 0.0
C416 C 0.00759 0.49173 0.08761 0.0
H417 H 0.99393 0.58287 0.99032 0.0
H418 H 0.98825 0.55933 0.143 0.0
S419 S 0.0428 0.40173 0.88746 0.0
N420 N 0.03646 0.44469 0.8365 0.0
N421 N 0.03045 0.41915 1.00239 0.0
C422 C 0.02039 0.46192 1.00359 0.0
C423 C 0.02362 0.47579 0.91352 0.0
loop_
_geom_bond_atom_site_label_1
_geom_bond_atom_site_label_2
_geom_bond_distance
_geom_bond_site_symmetry_2
_ccdc_geom_bond_type
Zn0 O6 1.969 1_545 S
Zn0 O7 1.965 1_655 S
Zn0 O11 2.024 . S
Zn0 O16 1.969 1_545 S
Zn1 O8 1.969 1_565 S
Zn1 O14 1.969 1_565 S
Zn1 O15 1.965 1_455 S
Zn1 O17 2.024 . S
C2 O3 1.229 . S
C2 O11 1.058 . S
O3 C2 1.229 . S
C4 O5 1.229 . S
C4 O17 1.058 . S
O5 C4 1.229 . S
O6 Zn0 1.969 1_565 S
O6 C9 1.267 1_565 S
O7 Zn0 1.965 1_455 S
O7 C18 1.260 . S
O8 Zn1 1.969 1_545 S
O8 C18 1.258 . S
C9 O6 1.267 1_545 S
C9 O10 1.228 . S
O10 C9 1.228 . S
O11 Zn0 2.024 . S
O11 C2 1.058 . S
C12 O13 1.229 . S
C12 O14 1.267 1_565 S
O13 C12 1.229 . S
O14 Zn1 1.969 1_545 S
O14 C12 1.267 1_545 S
O15 Zn1 1.965 1_655 S
O15 C19 1.260 . S
O16 Zn0 1.969 1_565 S
O16 C19 1.258 . S
O17 Zn1 2.024 . S
O17 C4 1.058 . S
C18 O7 1.260 . S
C18 O8 1.258 . S
C19 O15 1.260 . S
C19 O16 1.258 . S
Zn20 O26 1.969 . S
Zn20 O27 1.965 . S
Zn20 O31 2.024 . S
Zn20 O36 1.969 . S
Zn21 O28 1.969 . S
Zn21 O34 1.969 . S
Zn21 O35 1.965 . S
Zn21 O37 2.024 . S
C22 O23 1.229 . S
C22 O31 1.058 . S
O23 C22 1.229 . S
C24 O25 1.229 . S
C24 O37 1.058 . S
O25 C24 1.229 . S
O26 Zn20 1.969 . S
O26 C29 1.267 1_556 S
O27 Zn20 1.965 . S
O27 C38 1.260 . S
O28 Zn21 1.969 . S
O28 C38 1.258 . S
C29 O26 1.267 1_554 S
C29 O30 1.228 . S
O30 C29 1.228 . S
O31 Zn20 2.024 . S
O31 C22 1.058 . S
C32 O33 1.228 . S
C32 O34 1.267 . S
O33 C32 1.228 . S
O34 Zn21 1.969 . S
O34 C32 1.267 . S
O35 Zn21 1.965 . S
O35 C39 1.260 . S
O36 Zn20 1.969 . S
O36 C39 1.258 . S
O37 Zn21 2.024 . S
O37 C24 1.058 . S
C38 O27 1.260 . S
C38 O28 1.258 . S
C39 O35 1.260 . S
C39 O36 1.258 . S
Zn40 O46 1.969 1_545 S
Zn40 O47 1.965 . S
Zn40 O51 2.024 . S
Zn40 O56 1.969 1_545 S
Zn41 O48 1.969 1_565 S
Zn41 O54 1.969 1_565 S
Zn41 O55 1.965 . S
Zn41 O57 2.024 . S
C42 O43 1.229 . S
C42 O51 1.058 . S
O43 C42 1.229 . S
C44 O45 1.229 . S
C44 O57 1.058 . S
O45 C44 1.229 . S
O46 Zn40 1.969 1_565 S
O46 C49 1.267 1_565 S
O47 Zn40 1.965 . S
O47 C58 1.260 . S
O48 Zn41 1.969 1_545 S
O48 C58 1.258 1_556 S
C49 O46 1.267 1_545 S
C49 O50 1.228 . S
O50 C49 1.228 . S
O51 Zn40 2.024 . S
O51 C42 1.058 . S
C52 O53 1.228 . S
C52 O54 1.267 1_565 S
O53 C52 1.228 . S
O54 Zn41 1.969 1_545 S
O54 C52 1.267 1_545 S
O55 Zn41 1.965 . S
O55 C59 1.260 . S
O56 Zn40 1.969 1_565 S
O56 C59 1.258 1_554 S
O57 Zn41 2.024 . S
O57 C44 1.058 . S
C58 O47 1.260 . S
C58 O48 1.258 1_554 S
C59 O55 1.260 . S
C59 O56 1.258 1_556 S
Zn60 O66 1.969 . S
Zn60 O67 1.965 . S
Zn60 O71 2.024 . S
Zn60 O76 1.969 . S
Zn61 O68 1.969 . S
Zn61 O74 1.969 . S
Zn61 O75 1.965 . S
Zn61 O77 2.024 . S
C62 O63 1.229 . S
C62 O71 1.058 . S
O63 C62 1.229 . S
C64 O65 1.229 . S
C64 O77 1.058 . S
O65 C64 1.229 . S
O66 Zn60 1.969 . S
O66 C69 1.267 1_554 S
O67 Zn60 1.965 . S
O67 C78 1.260 . S
O68 Zn61 1.969 . S
O68 C78 1.258 . S
C69 O66 1.267 1_556 S
C69 O70 1.228 . S
O70 C69 1.228 . S
O71 Zn60 2.024 . S
O71 C62 1.058 . S
C72 O73 1.228 . S
C72 O74 1.267 . S
O73 C72 1.228 . S
O74 Zn61 1.969 . S
O74 C72 1.267 . S
O75 Zn61 1.965 . S
O75 C79 1.260 . S
O76 Zn60 1.969 . S
O76 C79 1.258 . S
O77 Zn61 2.024 . S
O77 C64 1.058 . S
C78 O67 1.260 . S
C78 O68 1.258 . S
C79 O75 1.260 . S
C79 O76 1.258 . S
Zn80 O86 1.969 . S
Zn80 O87 1.965 . S
Zn80 O91 2.024 . S
Zn80 O96 1.969 . S
Zn81 O88 1.969 . S
Zn81 O94 1.969 . S
Zn81 O95 1.965 . S
Zn81 O97 2.024 . S
C82 O83 1.229 . S
C82 O91 1.058 . S
O83 C82 1.229 . S
C84 O85 1.229 . S
C84 O97 1.058 . S
O85 C84 1.229 . S
O86 Zn80 1.969 . S
O86 C89 1.267 . S
O87 Zn80 1.965 . S
O87 C98 1.260 . S
O88 Zn81 1.969 . S
O88 C98 1.258 . S
C89 O86 1.267 . S
C89 O90 1.228 . S
O90 C89 1.228 . S
O91 Zn80 2.024 . S
O91 C82 1.058 . S
C92 O93 1.228 . S
C92 O94 1.267 1_556 S
O93 C92 1.228 . S
O94 Zn81 1.969 . S
O94 C92 1.267 1_554 S
O95 Zn81 1.965 . S
O95 C99 1.260 . S
O96 Zn80 1.969 . S
O96 C99 1.258 . S
O97 Zn81 2.024 . S
O97 C84 1.058 . S
C98 O87 1.260 . S
C98 O88 1.258 . S
C99 O95 1.260 . S
C99 O96 1.258 . S
Zn100 O106 1.969 . S
Zn100 O107 1.965 . S
Zn100 O111 2.024 . S
Zn100 O116 1.969 . S
Zn101 O108 1.969 . S
Zn101 O114 1.969 . S
Zn101 O115 1.965 . S
Zn101 O117 2.024 . S
C102 O103 1.229 . S
C102 O111 1.058 . S
O103 C102 1.229 . S
C104 O105 1.229 . S
C104 O117 1.058 . S
O105 C104 1.229 . S
O106 Zn100 1.969 . S
O106 C109 1.267 . S
O107 Zn100 1.965 . S
O107 C118 1.260 . S
O108 Zn101 1.969 . S
O108 C118 1.258 . S
C109 O106 1.267 . S
C109 O110 1.228 . S
O110 C109 1.228 . S
O111 Zn100 2.024 . S
O111 C102 1.058 . S
C112 O113 1.228 . S
C112 O114 1.267 1_554 S
O113 C112 1.228 . S
O114 Zn101 1.969 . S
O114 C112 1.267 1_556 S
O115 Zn101 1.965 . S
O115 C119 1.260 . S
O116 Zn100 1.969 . S
O116 C119 1.258 . S
O117 Zn101 2.024 . S
O117 C104 1.058 . S
C118 O107 1.260 . S
C118 O108 1.258 . S
C119 O115 1.260 . S
C119 O116 1.258 . S
Zn120 O126 1.969 . S
Zn120 O127 1.965 . S
Zn120 O131 2.024 . S
Zn120 O136 1.969 . S
Zn121 O128 1.969 . S
Zn121 O134 1.969 . S
Zn121 O135 1.965 . S
Zn121 O137 2.024 . S
C122 O123 1.229 . S
C122 O131 1.058 . S
O123 C122 1.229 . S
C124 O125 1.229 . S
C124 O137 1.058 . S
O125 C124 1.229 . S
O126 Zn120 1.969 . S
O126 C129 1.267 . S
O127 Zn120 1.965 . S
O127 C138 1.260 . S
O128 Zn121 1.969 . S
O128 C138 1.258 1_554 S
C129 O126 1.267 . S
C129 O130 1.228 . S
O130 C129 1.228 . S
O131 Zn120 2.024 . S
O131 C122 1.058 . S
C132 O133 1.228 . S
C132 O134 1.267 . S
O133 C132 1.228 . S
O134 Zn121 1.969 . S
O134 C132 1.267 . S
O135 Zn121 1.965 . S
O135 C139 1.260 . S
O136 Zn120 1.969 . S
O136 C139 1.258 1_556 S
O137 Zn121 2.024 . S
O137 C124 1.058 . S
C138 O127 1.260 . S
C138 O128 1.258 1_556 S
C139 O135 1.260 . S
C139 O136 1.258 1_554 S
Zn140 O146 1.969 . S
Zn140 O147 1.965 1_455 S
Zn140 O151 2.024 . S
Zn140 O156 1.969 . S
Zn141 O148 1.969 . S
Zn141 O154 1.969 . S
Zn141 O155 1.965 1_655 S
Zn141 O157 2.024 . S
C142 O143 1.229 . S
C142 O151 1.058 . S
O143 C142 1.229 . S
C144 O145 1.229 . S
C144 O157 1.058 . S
O145 C144 1.229 . S
O146 Zn140 1.969 . S
O146 C149 1.267 . S
O147 Zn140 1.965 1_655 S
O147 C158 1.260 . S
O148 Zn141 1.969 . S
O148 C158 1.258 . S
C149 O146 1.267 . S
C149 O150 1.226 1_455 S
O150 C149 1.226 1_655 S
O151 Zn140 2.024 . S
O151 C142 1.058 . S
C152 O153 1.225 1_655 S
C152 O154 1.267 . S
O153 C152 1.225 1_455 S
O154 Zn141 1.969 . S
O154 C152 1.267 . S
O155 Zn141 1.965 1_455 S
O155 C159 1.260 . S
O156 Zn140 1.969 . S
O156 C159 1.258 . S
O157 Zn141 2.024 . S
O157 C144 1.058 . S
C158 O147 1.260 . S
C158 O148 1.258 . S
C159 O155 1.260 . S
C159 O156 1.258 . S
C160 C161 1.369 . S
C160 C162 1.419 . S
C160 H164 0.930 . S
C161 C160 1.369 . S
C161 C170 1.429 . S
C162 C160 1.419 . S
C162 C163 1.363 . S
C162 H165 0.929 . S
C163 C162 1.363 . S
C163 C169 1.428 . S
H164 C160 0.930 . S
H165 C162 0.929 . S
S166 N167 1.613 . S
S166 N168 1.610 . S
N167 S166 1.613 . S
N167 C170 1.350 . S
N168 S166 1.610 . S
N168 C169 1.351 . S
C169 C163 1.428 . S
C169 N168 1.351 . S
C169 C170 1.434 . S
C170 C161 1.429 . S
C170 N167 1.350 . S
C170 C169 1.434 . S
C171 C172 1.369 . S
C171 C173 1.419 . S
C171 H175 0.930 . S
C172 C171 1.369 . S
C172 C181 1.429 . S
C173 C171 1.419 . S
C173 C174 1.363 . S
C173 H176 0.929 . S
C174 C173 1.363 . S
C174 C180 1.428 . S
H175 C171 0.930 . S
H176 C173 0.929 . S
S177 N178 1.613 . S
S177 N179 1.610 . S
N178 S177 1.613 . S
N178 C181 1.350 . S
N179 S177 1.610 . S
N179 C180 1.351 . S
C180 C174 1.428 . S
C180 N179 1.351 . S
C180 C181 1.434 . S
C181 C172 1.429 . S
C181 N178 1.350 . S
C181 C180 1.434 . S
C182 C183 1.369 . S
C182 C184 1.419 . S
C182 H186 0.930 . S
C183 C182 1.369 . S
C183 C192 1.429 . S
C184 C182 1.419 . S
C184 C185 1.363 . S
C184 H187 0.929 . S
C185 C184 1.363 . S
C185 C191 1.428 . S
H186 C182 0.930 . S
H187 C184 0.929 . S
S188 N189 1.613 1_554 S
S188 N190 1.610 . S
N189 S188 1.613 1_556 S
N189 C192 1.350 . S
N190 S188 1.610 . S
N190 C191 1.351 1_554 S
C191 C185 1.428 . S
C191 N190 1.351 1_556 S
C191 C192 1.434 . S
C192 C183 1.429 . S
C192 N189 1.350 . S
C192 C191 1.434 . S
C193 C194 1.369 . S
C193 C195 1.419 . S
C193 H197 0.930 . S
C194 C193 1.369 . S
C194 C203 1.429 . S
C195 C193 1.419 . S
C195 C196 1.363 . S
C195 H198 0.929 . S
C196 C195 1.363 . S
C196 C202 1.428 . S
H197 C193 0.930 . S
H198 C195 0.929 . S
S199 N200 1.613 . S
S199 N201 1.612 . S
N200 S199 1.613 . S
N200 C203 1.350 1_556 S
N201 S199 1.612 . S
N201 C202 1.349 1_556 S
C202 C196 1.428 . S
C202 N201 1.349 1_554 S
C202 C203 1.434 . S
C203 C194 1.429 . S
C203 N200 1.350 1_554 S
C203 C202 1.434 . S
C204 C205 1.369 . S
C204 C206 1.419 . S
C204 H208 0.930 . S
C205 C204 1.369 . S
C205 C214 1.429 . S
C206 C204 1.419 . S
C206 C207 1.363 . S
C206 H209 0.929 . S
C207 C206 1.363 . S
C207 C213 1.428 . S
H208 C204 0.930 . S
H209 C206 0.929 . S
S210 N211 1.613 . S
S210 N212 1.610 . S
N211 S210 1.613 . S
N211 C214 1.350 . S
N212 S210 1.610 . S
N212 C213 1.351 . S
C213 C207 1.428 . S
C213 N212 1.351 . S
C213 C214 1.434 . S
C214 C205 1.429 . S
C214 N211 1.350 . S
C214 C213 1.434 . S
C215 C216 1.369 . S
C215 C217 1.419 . S
C215 H219 0.930 . S
C216 C215 1.369 . S
C216 C225 1.429 . S
C217 C215 1.419 . S
C217 C218 1.363 . S
C217 H220 0.929 . S
C218 C217 1.363 . S
C218 C224 1.428 . S
H219 C215 0.930 . S
H220 C217 0.929 . S
S221 N222 1.613 . S
S221 N223 1.610 . S
N222 S221 1.613 . S
N222 C225 1.350 . S
N223 S221 1.610 . S
N223 C224 1.351 . S
C224 C218 1.428 . S
C224 N223 1.351 . S
C224 C225 1.434 . S
C225 C216 1.429 . S
C225 N222 1.350 . S
C225 C224 1.434 . S
C226 C227 1.369 . S
C226 C228 1.419 . S
C226 H230 0.930 . S
C227 C226 1.369 . S
C227 C236 1.429 . S
C228 C226 1.419 . S
C228 C229 1.363 . S
C228 H231 0.929 . S
C229 C228 1.363 . S
C229 C235 1.428 . S
H230 C226 0.930 . S
H231 C228 0.929 . S
S232 N233 1.613 . S
S232 N234 1.610 . S
N233 S232 1.613 . S
N233 C236 1.350 . S
N234 S232 1.610 . S
N234 C235 1.351 . S
C235 C229 1.428 . S
C235 N234 1.351 . S
C235 C236 1.434 . S
C236 C227 1.429 . S
C236 N233 1.350 . S
C236 C235 1.434 . S
C237 C238 1.369 . S
C237 C239 1.419 . S
C237 H241 0.930 . S
C238 C237 1.369 . S
C238 C247 1.429 . S
C239 C237 1.419 . S
C239 C240 1.363 . S
C239 H242 0.929 . S
C240 C239 1.363 . S
C240 C246 1.428 . S
H241 C237 0.930 . S
H242 C239 0.929 . S
S243 N244 1.613 1_554 S
S243 N245 1.610 . S
N244 S243 1.613 1_556 S
N244 C247 1.350 . S
N245 S243 1.610 . S
N245 C246 1.351 1_554 S
C246 C240 1.428 . S
C246 N245 1.351 1_556 S
C246 C247 1.434 . S
C247 C238 1.429 . S
C247 N244 1.350 . S
C247 C246 1.434 . S
C248 C249 1.369 . S
C248 C250 1.419 . S
C248 H252 0.930 . S
C249 C248 1.369 . S
C249 C258 1.429 . S
C250 C248 1.419 . S
C250 C251 1.363 . S
C250 H253 0.929 . S
C251 C250 1.363 . S
C251 C257 1.428 . S
H252 C248 0.930 . S
H253 C250 0.929 . S
S254 N255 1.613 . S
S254 N256 1.610 . S
N255 S254 1.613 . S
N255 C258 1.350 1_554 S
N256 S254 1.610 . S
N256 C257 1.351 1_554 S
C257 C251 1.428 . S
C257 N256 1.351 1_556 S
C257 C258 1.434 . S
C258 C249 1.429 . S
C258 N255 1.350 1_556 S
C258 C257 1.434 . S
C259 C260 1.369 . S
C259 C261 1.419 . S
C259 H263 0.930 . S
C260 C259 1.369 . S
C260 C269 1.429 . S
C261 C259 1.419 . S
C261 C262 1.363 . S
C261 H264 0.929 1_554 S
C262 C261 1.363 . S
C262 C268 1.428 . S
H263 C259 0.930 . S
H264 C261 0.929 1_556 S
S265 N266 1.613 . S
S265 N267 1.610 . S
N266 S265 1.613 . S
N266 C269 1.350 . S
N267 S265 1.610 . S
N267 C268 1.351 . S
C268 C262 1.428 . S
C268 N267 1.351 . S
C268 C269 1.434 . S
C269 C260 1.429 . S
C269 N266 1.350 . S
C269 C268 1.434 . S
C270 C271 1.369 . S
C270 C272 1.419 . S
C270 H274 0.930 . S
C271 C270 1.369 . S
C271 C280 1.429 . S
C272 C270 1.419 . S
C272 C273 1.363 . S
C272 H275 0.929 . S
C273 C272 1.363 . S
C273 C279 1.428 . S
H274 C270 0.930 . S
H275 C272 0.929 . S
S276 N277 1.613 . S
S276 N278 1.610 . S
N277 S276 1.613 . S
N277 C280 1.350 . S
N278 S276 1.610 . S
N278 C279 1.351 . S
C279 C273 1.428 . S
C279 N278 1.351 . S
C279 C280 1.434 . S
C280 C271 1.429 . S
C280 N277 1.350 . S
C280 C279 1.434 . S
C281 C282 1.369 . S
C281 C283 1.419 . S
C281 H285 0.930 . S
C282 C281 1.369 . S
C282 C291 1.429 . S
C283 C281 1.419 . S
C283 C284 1.363 . S
C283 H286 0.929 . S
C284 C283 1.363 . S
C284 C290 1.428 . S
H285 C281 0.930 . S
H286 C283 0.929 . S
S287 N288 1.613 . S
S287 N289 1.610 . S
N288 S287 1.613 . S
N288 C291 1.350 . S
N289 S287 1.610 . S
N289 C290 1.351 . S
C290 C284 1.428 . S
C290 N289 1.351 . S
C290 C291 1.434 . S
C291 C282 1.429 . S
C291 N288 1.350 . S
C291 C290 1.434 . S
C292 C293 1.369 . S
C292 C294 1.419 . S
C292 H296 0.930 . S
C293 C292 1.369 . S
C293 C302 1.429 . S
C294 C292 1.419 . S
C294 C295 1.363 . S
C294 H297 0.929 . S
C295 C294 1.363 . S
C295 C301 1.428 . S
H296 C292 0.930 . S
H297 C294 0.929 . S
S298 N299 1.613 . S
S298 N300 1.610 . S
N299 S298 1.613 . S
N299 C302 1.350 . S
N300 S298 1.610 . S
N300 C301 1.351 . S
C301 C295 1.428 . S
C301 N300 1.351 . S
C301 C302 1.434 . S
C302 C293 1.429 . S
C302 N299 1.350 . S
C302 C301 1.434 . S
C303 C304 1.369 . S
C303 C305 1.419 . S
C303 H307 0.930 . S
C304 C303 1.369 . S
C304 C313 1.429 . S
C305 C303 1.419 . S
C305 C306 1.363 . S
C305 H308 0.929 . S
C306 C305 1.363 . S
C306 C312 1.428 . S
H307 C303 0.930 . S
H308 C305 0.929 . S
S309 N310 1.613 . S
S309 N311 1.610 . S
N310 S309 1.613 . S
N310 C313 1.350 . S
N311 S309 1.610 . S
N311 C312 1.351 . S
C312 C306 1.428 . S
C312 N311 1.351 . S
C312 C313 1.434 . S
C313 C304 1.429 . S
C313 N310 1.350 . S
C313 C312 1.434 . S
C314 C315 1.369 . S
C314 C316 1.419 . S
C314 H318 0.930 . S
C315 C314 1.369 . S
C315 C324 1.429 . S
C316 C314 1.419 . S
C316 C317 1.363 . S
C316 H319 0.929 . S
C317 C316 1.363 . S
C317 C323 1.428 . S
H318 C314 0.930 . S
H319 C316 0.929 . S
S320 N321 1.613 . S
S320 N322 1.610 . S
N321 S320 1.613 . S
N321 C324 1.350 . S
N322 S320 1.610 . S
N322 C323 1.351 . S
C323 C317 1.428 . S
C323 N322 1.351 . S
C323 C324 1.434 . S
C324 C315 1.429 . S
C324 N321 1.350 . S
C324 C323 1.434 . S
C325 C326 1.369 . S
C325 C327 1.419 . S
C325 H329 0.930 . S
C326 C325 1.369 . S
C326 C335 1.429 . S
C327 C325 1.419 . S
C327 C328 1.363 . S
C327 H330 0.929 . S
C328 C327 1.363 . S
C328 C334 1.428 . S
H329 C325 0.930 . S
H330 C327 0.929 . S
S331 N332 1.613 . S
S331 N333 1.610 . S
N332 S331 1.613 . S
N332 C335 1.350 . S
N333 S331 1.610 . S
N333 C334 1.351 . S
C334 C328 1.428 . S
C334 N333 1.351 . S
C334 C335 1.434 . S
C335 C326 1.429 . S
C335 N332 1.350 . S
C335 C334 1.434 . S
C336 C337 1.369 1_565 S
C336 C338 1.418 1_556 S
C336 H340 0.930 . S
C337 C336 1.369 1_545 S
C337 C346 1.429 . S
C338 C336 1.418 1_554 S
C338 C339 1.364 1_455 S
C338 H341 0.928 . S
C339 C338 1.364 1_655 S
C339 C345 1.428 1_565 S
H340 C336 0.930 . S
H341 C338 0.928 . S
S342 N343 1.613 1_554 S
S342 N344 1.611 1_455 S
N343 S342 1.613 1_556 S
N343 C346 1.350 . S
N344 S342 1.611 1_655 S
N344 C345 1.353 . S
C345 C339 1.428 1_545 S
C345 N344 1.353 . S
C345 C346 1.434 1_654 S
C346 C337 1.429 . S
C346 N343 1.350 . S
C346 C345 1.434 1_456 S
C347 C348 1.369 . S
C347 C349 1.419 . S
C347 H351 0.930 . S
C348 C347 1.369 . S
C348 C357 1.429 . S
C349 C347 1.419 . S
C349 C350 1.363 . S
C349 H352 0.929 . S
C350 C349 1.363 . S
C350 C356 1.428 . S
H351 C347 0.930 . S
H352 C349 0.929 . S
S353 N354 1.613 . S
S353 N355 1.610 . S
N354 S353 1.613 . S
N354 C357 1.350 . S
N355 S353 1.610 . S
N355 C356 1.351 . S
C356 C350 1.428 . S
C356 N355 1.351 . S
C356 C357 1.434 . S
C357 C348 1.429 . S
C357 N354 1.350 . S
C357 C356 1.434 . S
C358 C359 1.369 . S
C358 C360 1.419 . S
C358 H362 0.930 . S
C359 C358 1.369 . S
C359 C368 1.429 1_565 S
C360 C358 1.419 . S
C360 C361 1.363 1_565 S
C360 H363 0.929 . S
C361 C360 1.363 1_545 S
C361 C367 1.428 . S
H362 C358 0.930 . S
H363 C360 0.929 . S
S364 N365 1.613 . S
S364 N366 1.610 . S
N365 S364 1.613 . S
N365 C368 1.350 . S
N366 S364 1.610 . S
N366 C367 1.351 . S
C367 C361 1.428 . S
C367 N366 1.351 . S
C367 C368 1.434 . S
C368 C359 1.429 1_545 S
C368 N365 1.350 . S
C368 C367 1.434 . S
C369 C370 1.369 . S
C369 C371 1.419 . S
C369 H373 0.930 . S
C370 C369 1.369 . S
C370 C379 1.429 . S
C371 C369 1.419 . S
C371 C372 1.363 . S
C371 H374 0.929 . S
C372 C371 1.363 . S
C372 C378 1.428 . S
H373 C369 0.930 . S
H374 C371 0.929 . S
S375 N376 1.613 . S
S375 N377 1.610 . S
N376 S375 1.613 . S
N376 C379 1.350 . S
N377 S375 1.610 . S
N377 C378 1.351 . S
C378 C372 1.428 . S
C378 N377 1.351 . S
C378 C379 1.434 . S
C379 C370 1.429 . S
C379 N376 1.350 . S
C379 C378 1.434 . S
C380 C381 1.369 . S
C380 C382 1.419 . S
C380 H384 0.930 . S
C381 C380 1.369 . S
C381 C390 1.429 . S
C382 C380 1.419 . S
C382 C383 1.363 . S
C382 H385 0.929 . S
C383 C382 1.363 . S
C383 C389 1.428 . S
H384 C380 0.930 . S
H385 C382 0.929 . S
S386 N387 1.613 . S
S386 N388 1.610 . S
N387 S386 1.613 . S
N387 C390 1.350 . S
N388 S386 1.610 . S
N388 C389 1.351 . S
C389 C383 1.428 . S
C389 N388 1.351 . S
C389 C390 1.434 . S
C390 C381 1.429 . S
C390 N387 1.350 . S
C390 C389 1.434 . S
C391 C392 1.369 . S
C391 C393 1.419 . S
C391 H395 0.930 . S
C392 C391 1.369 . S
C392 C401 1.429 . S
C393 C391 1.419 . S
C393 C394 1.363 . S
C393 H396 0.929 . S
C394 C393 1.363 . S
C394 C400 1.428 . S
H395 C391 0.930 . S
H396 C393 0.929 . S
S397 N398 1.613 . S
S397 N399 1.610 . S
N398 S397 1.613 . S
N398 C401 1.350 . S
N399 S397 1.610 . S
N399 C400 1.351 . S
C400 C394 1.428 . S
C400 N399 1.351 . S
C400 C401 1.434 . S
C401 C392 1.429 . S
C401 N398 1.350 . S
C401 C400 1.434 . S
C402 C403 1.369 . S
C402 C404 1.419 . S
C402 H406 0.930 . S
C403 C402 1.369 . S
C403 C412 1.429 . S
C404 C402 1.419 . S
C404 C405 1.363 . S
C404 H407 0.929 . S
C405 C404 1.363 . S
C405 C411 1.428 . S
H406 C402 0.930 . S
H407 C404 0.929 . S
S408 N409 1.613 . S
S408 N410 1.610 . S
N409 S408 1.613 . S
N409 C412 1.350 . S
N410 S408 1.610 . S
N410 C411 1.351 . S
C411 C405 1.428 . S
C411 N410 1.351 . S
C411 C412 1.434 . S
C412 C403 1.429 . S
C412 N409 1.350 . S
C412 C411 1.434 . S
C413 C414 1.369 1_655 S
C413 C415 1.419 1_556 S
C413 H417 0.930 . S
C414 C413 1.369 1_455 S
C414 C423 1.429 . S
C415 C413 1.419 1_554 S
C415 C416 1.363 . S
C415 H418 0.929 . S
C416 C415 1.363 . S
C416 C422 1.428 1_655 S
H417 C413 0.930 . S
H418 C415 0.929 . S
S419 N420 1.613 . S
S419 N421 1.610 1_556 S
N420 S419 1.613 . S
N420 C423 1.350 . S
N421 S419 1.610 1_554 S
N421 C422 1.351 . S
C422 C416 1.428 1_455 S
C422 N421 1.351 . S
C422 C423 1.434 1_554 S
C423 C414 1.429 . S
C423 N420 1.350 . S
C423 C422 1.434 1_556 S
C161 C18 1.499 . S
C163 C64 1.442 . S
C172 C4 0.968 . S
C174 C24 0.985 . S
C183 C38 1.500 . S
C185 C44 1.448 . S
C194 C58 2.071 . S
C196 C78 2.071 . S
C205 C19 1.500 . S
C207 C102 1.443 . S
C216 C2 0.985 . S
C218 C82 0.977 . S
C227 C99 1.501 . S
C229 C42 1.440 . S
C238 C119 2.073 . S
C240 C59 2.073 . S
C249 C138 1.499 . S
C251 C104 1.439 . S
C260 C84 0.987 . S
C262 C124 0.973 . S
C271 C144 1.443 . S
C273 C98 1.503 . S
C282 C118 2.068 . S
C284 C158 2.071 . S
C293 C62 1.448 . S
C295 C139 1.501 . S
C304 C122 0.978 . S
C306 C22 0.982 . S
C315 C39 1.498 . S
C317 C142 1.441 . S
C326 C79 2.069 . S
C328 C159 2.068 . S
C337 C12 1.439 1_545 S
C339 C9 1.431 1_565 S
C348 C32 1.433 . S
C350 C29 1.436 . S
C359 C52 1.516 . S
C361 C49 1.515 . S
C370 C69 1.516 . S
C372 C72 1.515 . S
C381 C92 1.440 . S
C383 C89 1.431 . S
C392 C109 1.515 . S
C394 C112 1.516 . S
C403 C129 1.429 . S
C405 C132 1.439 . S
C414 C149 1.516 . S
C416 C152 1.516 . S
