# Generated by pormake.
# Topology qtz-a, (4)-cn, num edge types: 1
# Building blocks:
#     Node 0, Type 0, BuildingBlock: NAHDIM_clean_sbu_0, # of connection points: 4
#     Node 1, Type 0, BuildingBlock: NAHDIM_clean_sbu_0, # of connection points: 4
#     Node 2, Type 0, BuildingBlock: NAHDIM_clean_sbu_0, # of connection points: 4
#     Node 3, Type 0, BuildingBlock: NAHDIM_clean_sbu_0, # of connection points: 4
#     Node 4, Type 0, BuildingBlock: NAHDIM_clean_sbu_0, # of connection points: 4
#     Node 5, Type 0, BuildingBlock: NAHDIM_clean_sbu_0, # of connection points: 4
#     Node 6, Type 0, BuildingBlock: NAHDIM_clean_sbu_0, # of connection points: 4
#     Node 7, Type 0, BuildingBlock: NAHDIM_clean_sbu_0, # of connection points: 4
#     Node 8, Type 0, BuildingBlock: NAHDIM_clean_sbu_0, # of connection points: 4
#     Node 9, Type 0, BuildingBlock: NAHDIM_clean_sbu_0, # of connection points: 4
#     Node 10, Type 0, BuildingBlock: NAHDIM_clean_sbu_0, # of connection points: 4
#     Node 11, Type 0, BuildingBlock: NAHDIM_clean_sbu_0, # of connection points: 4
#     Edge 12, Type (0, 0), BuildingBlock: EZIPEK_clean_linker_0, # of connection points: 2
#     Edge 13, Type (0, 0), BuildingBlock: EZIPEK_clean_linker_0, # of connection points: 2
#     Edge 14, Type (0, 0), BuildingBlock: EZIPEK_clean_linker_0, # of connection points: 2
#     Edge 15, Type (0, 0), BuildingBlock: EZIPEK_clean_linker_0, # of connection points: 2
#     Edge 16, Type (0, 0), BuildingBlock: EZIPEK_clean_linker_0, # of connection points: 2
#     Edge 17, Type (0, 0), BuildingBlock: EZIPEK_clean_linker_0, # of connection points: 2
#     Edge 18, Type (0, 0), BuildingBlock: EZIPEK_clean_linker_0, # of connection points: 2
#     Edge 19, Type (0, 0), BuildingBlock: EZIPEK_clean_linker_0, # of connection points: 2
#     Edge 20, Type (0, 0), BuildingBlock: EZIPEK_clean_linker_0, # of connection points: 2
#     Edge 21, Type (0, 0), BuildingBlock: EZIPEK_clean_linker_0, # of connection points: 2
#     Edge 22, Type (0, 0), BuildingBlock: EZIPEK_clean_linker_0, # of connection points: 2
#     Edge 23, Type (0, 0), BuildingBlock: EZIPEK_clean_linker_0, # of connection points: 2
#     Edge 24, Type (0, 0), BuildingBlock: EZIPEK_clean_linker_0, # of connection points: 2
#     Edge 25, Type (0, 0), BuildingBlock: EZIPEK_clean_linker_0, # of connection points: 2
#     Edge 26, Type (0, 0), BuildingBlock: EZIPEK_clean_linker_0, # of connection points: 2
#     Edge 27, Type (0, 0), BuildingBlock: EZIPEK_clean_linker_0, # of connection points: 2
#     Edge 28, Type (0, 0), BuildingBlock: EZIPEK_clean_linker_0, # of connection points: 2
#     Edge 29, Type (0, 0), BuildingBlock: EZIPEK_clean_linker_0, # of connection points: 2
#     Edge 30, Type (0, 0), BuildingBlock: EZIPEK_clean_linker_0, # of connection points: 2
#     Edge 31, Type (0, 0), BuildingBlock: EZIPEK_clean_linker_0, # of connection points: 2
#     Edge 32, Type (0, 0), BuildingBlock: EZIPEK_clean_linker_0, # of connection points: 2
#     Edge 33, Type (0, 0), BuildingBlock: EZIPEK_clean_linker_0, # of connection points: 2
#     Edge 34, Type (0, 0), BuildingBlock: EZIPEK_clean_linker_0, # of connection points: 2
#     Edge 35, Type (0, 0), BuildingBlock: EZIPEK_clean_linker_0, # of connection points: 2
# Relax obj value: 0.785
# Max RMSD: 0.436
# Mean RMSD: 0.347
data_MOF--net-qtz-a--node1-NAHDIM_clean_sbu_0--edge1-EZIPEK_clean_linker_0
_symmetry_space_group_name_H-M    P1
_symmetry_Int_Tables_number       1
_symmetry_cell_setting            triclinic
loop_
_symmetry_equiv_pos_as_xyz
'x, y, z'
_cell_length_a     33.198733
_cell_length_b     34.838338
_cell_length_c     30.838934
_cell_angle_alpha  89.699012
_cell_angle_beta   89.822716
_cell_angle_gamma 109.15792
loop_
_atom_site_label
_atom_site_type_symbol
_atom_site_fract_x
_atom_site_fract_y
_atom_site_fract_z
_atom_type_partial_charge
C0 C 0.45863 0.13272 0.15946 0.0
O1 O 0.48803 0.11614 0.15124 0.0
O2 O 0.42351 0.01877 0.16979 0.0
Zn3 Zn 0.40889 0.05735 0.12805 0.0
O4 O 0.45189 0.0681 0.07939 0.0
C5 C 0.32847 0.00301 0.09046 0.0
O6 O 0.33713 0.97363 0.11118 0.0
O7 O 0.41954 0.11183 0.15503 0.0
C8 C 0.44367 0.05025 0.04311 0.0
O9 O 0.40626 0.023 0.03622 0.0
C10 C 0.43313 -0.01059 0.15364 0.0
O11 O 0.42675 -0.01857 0.11223 0.0
O12 O 0.35172 0.0393 0.09806 0.0
C13 C 0.31827 0.45839 0.48069 0.0
O14 O 0.35509 0.45196 0.48078 0.0
O15 O 0.41411 0.54722 0.4663 0.0
Zn16 Zn 0.36228 0.52925 0.42861 0.0
O17 O 0.34376 0.57768 0.41291 0.0
C18 C 0.40472 0.48272 0.38153 0.0
O19 O 0.42651 0.48681 0.41765 0.0
O20 O 0.31472 0.48961 0.46181 0.0
C21 C 0.33261 0.59148 0.37825 0.0
O22 O 0.319 0.62278 0.38132 0.0
C23 C 0.41659 0.55823 0.50565 0.0
O24 O 0.38303 0.5614 0.52596 0.0
O25 O 0.37543 0.49865 0.37821 0.0
C26 C 0.85093 0.29046 0.85701 0.0
O27 O 0.8847 0.28152 0.84486 0.0
O28 O 0.94443 0.40989 0.88173 0.0
Zn29 Zn 0.90491 0.37024 0.83549 0.0
O30 O 0.88569 0.40662 0.79645 0.0
C31 C 0.97097 0.3623 0.77622 0.0
O32 O 0.98558 0.40217 0.77636 0.0
O33 O 0.85276 0.32741 0.85924 0.0
C34 C 0.87856 0.39742 0.75688 0.0
O35 O 0.87791 0.36152 0.74347 0.0
C36 C 0.93393 0.44179 0.8862 0.0
O37 O 0.9469 0.41024 0.88362 0.0
O38 O 0.93878 0.34334 0.79928 0.0
C39 C 0.50493 0.80291 0.09795 0.0
O40 O 0.48146 0.826 0.09006 0.0
O41 O 0.56385 0.91367 0.14137 0.0
Zn42 Zn 0.56903 0.87947 0.09034 0.0
O43 O 0.53023 0.88988 0.04635 0.0
C44 C 0.63949 0.93546 0.05046 0.0
O45 O 0.62386 0.95917 0.07321 0.0
O46 O 0.54516 0.81915 0.102 0.0
C47 C 0.52685 0.8731 0.00951 0.0
O48 O 0.55089 0.85108 -0.00049 0.0
C49 C 0.53742 0.89867 0.17196 0.0
O50 O 0.52109 0.859 0.17481 0.0
O51 O 0.6249 0.89755 0.05807 0.0
C52 C 0.6586 0.48633 0.45534 0.0
O53 O 0.62879 0.46166 0.47993 0.0
O54 O 0.58012 0.54642 0.47863 0.0
Zn55 Zn 0.59018 0.51338 0.42923 0.0
O56 O 0.54573 0.45719 0.43469 0.0
C57 C 0.55434 0.56039 0.37629 0.0
O58 O 0.52756 0.55213 0.4092 0.0
O59 O 0.6496 0.51151 0.43065 0.0
C60 C 0.53816 0.4265 0.41003 0.0
O61 O 0.50821 0.39255 0.421 0.0
C62 C 0.56356 0.5309 0.51449 0.0
O63 O 0.55962 0.4927 0.52213 0.0
O64 O 0.58295 0.54355 0.37581 0.0
C65 C 0.17848 0.69233 0.77778 0.0
O66 O 0.17874 0.67292 0.74142 0.0
O67 O 0.05827 0.60603 0.83631 0.0
Zn68 Zn 0.10154 0.62715 0.78845 0.0
O69 O 0.12587 0.58241 0.77577 0.0
C70 C 0.07647 0.62418 0.69809 0.0
O71 O 0.10136 0.60189 0.6947 0.0
O72 O 0.1482 0.678 0.80481 0.0
C73 C 0.09908 0.54714 0.77057 0.0
O74 O 0.05824 0.54193 0.77499 0.0
C75 C 0.06659 0.58565 0.86736 0.0
O76 O 0.10495 0.58258 0.86843 0.0
O77 O 0.07243 0.63925 0.73467 0.0
C78 C 0.83138 0.49214 0.48654 0.0
O79 O 0.8364 0.45745 0.49712 0.0
O80 O 0.94552 0.49033 0.49718 0.0
Zn81 Zn 0.91123 0.52096 0.52688 0.0
O82 O 0.88733 0.4869 0.57928 0.0
C83 C 0.9861 0.59374 0.54528 0.0
O84 O 0.00624 0.57958 0.51598 0.0
O85 O 0.86141 0.52516 0.49334 0.0
C86 C 0.87749 0.50193 0.61346 0.0
O87 O 0.87975 0.54025 0.61409 0.0
C88 C 0.96898 0.47948 0.52383 0.0
O89 O 0.97284 0.49353 0.56356 0.0
O90 O 0.94687 0.57451 0.55175 0.0
C91 C 0.31276 0.84224 0.81705 0.0
O92 O 0.35005 0.84082 0.82937 0.0
O93 O 0.38081 0.96739 0.80236 0.0
Zn94 Zn 0.34615 0.92594 0.84601 0.0
O95 O 0.39183 0.91157 0.87805 0.0
C96 C 0.3315 0.97319 0.91809 0.0
O97 O 0.37195 -0.00591 0.91215 0.0
O98 O 0.3049 0.87554 0.819 0.0
C99 C 0.38647 0.89102 0.9129 0.0
O100 O 0.34825 0.87586 0.93002 0.0
C101 C 0.40395 0.95372 0.77801 0.0
O102 O 0.39803 0.91458 0.78044 0.0
O103 O 0.31285 0.94623 0.89066 0.0
C104 C 0.52432 0.30643 0.17757 0.0
O105 O 0.54145 0.32738 0.14273 0.0
O106 O 0.51714 0.40028 0.15218 0.0
Zn107 Zn 0.5378 0.38521 0.20875 0.0
O108 O 0.60228 0.41084 0.21375 0.0
C109 C 0.46633 0.40065 0.24838 0.0
O110 O 0.44668 0.38469 0.2126 0.0
O111 O 0.52039 0.32491 0.21177 0.0
C112 C 0.62427 0.42579 0.2471 0.0
O113 O 0.666 0.44022 0.24383 0.0
C114 C 0.5354 0.43279 0.13115 0.0
O115 O 0.57145 0.45758 0.14629 0.0
O116 O 0.50488 0.40297 0.25433 0.0
C117 C 0.16176 0.35477 0.55789 0.0
O118 O 0.13016 0.33679 0.53178 0.0
O119 O 0.0627 0.36842 0.58175 0.0
Zn120 Zn 0.0959 0.34502 0.62322 0.0
O121 O 0.10593 0.37931 0.67782 0.0
C122 C 0.03999 0.26779 0.66224 0.0
O123 O 0.02589 0.22801 0.66575 0.0
O124 O 0.15449 0.35776 0.59794 0.0
C125 C 0.08658 0.40509 0.68212 0.0
O126 O 0.05719 0.40565 0.65404 0.0
C127 C 0.04321 0.35751 0.54618 0.0
O128 O 0.04151 0.32295 0.52817 0.0
O129 O 0.06837 0.28455 0.63391 0.0
C130 C 0.69671 0.15269 0.87176 0.0
O131 O 0.67891 0.14101 0.90979 0.0
O132 O 0.59388 0.06422 0.7957 0.0
Zn133 Zn 0.63292 0.07964 0.84777 0.0
O134 O 0.59627 0.08997 0.89531 0.0
C135 C 0.63576 0.00873 0.89567 0.0
O136 O 0.59422 -0.00039 0.89584 0.0
O137 O 0.68176 0.1316 0.83834 0.0
C138 C 0.55751 0.06782 0.89903 0.0
O139 O 0.5403 0.04019 0.86972 0.0
C140 C 0.57492 0.02836 0.78258 0.0
O141 O 0.58574 -0.0014 0.79982 0.0
O142 O 0.65825 0.03792 0.87195 0.0
C143 C 0.42382 0.62933 0.11059 0.0
O144 O 0.42109 0.60298 0.07952 0.0
O145 O 0.43377 0.53109 0.13613 0.0
Zn146 Zn 0.4033 0.561 0.1715 0.0
O147 O 0.34079 0.52767 0.17574 0.0
C148 C 0.47362 0.58982 0.22477 0.0
O149 O 0.48915 0.6081 0.18807 0.0
O150 O 0.41451 0.61718 0.14927 0.0
C151 C 0.3145 0.5209 0.20728 0.0
O152 O 0.27531 0.49657 0.20117 0.0
C153 C 0.42353 0.51135 0.10115 0.0
O154 O 0.38861 0.5103 0.08058 0.0
O155 O 0.43435 0.56855 0.22734 0.0
C156 C 0.4661 0.0756 0.96832 0.0
C157 C 0.47582 0.06034 0.0082 0.0
C158 C 0.54466 0.06072 0.97924 0.0
C159 C 0.53224 0.07048 0.93761 0.0
N160 N 0.4813 0.08664 0.89153 0.0
N161 N 0.52164 0.03388 0.051 0.0
C162 C 0.49301 0.07788 0.93191 0.0
C163 C 0.51472 0.0524 0.01385 0.0
N164 N 0.43189 0.08917 0.96579 0.0
N165 N 0.58444 0.05814 0.98562 0.0
H166 H 0.50046 0.02694 0.07708 0.0
H167 H 0.54656 0.02222 0.05477 0.0
H168 H 0.60646 0.06058 0.96087 0.0
H169 H 0.5969 0.05617 0.01618 0.0
H170 H 0.42529 0.10419 0.93887 0.0
H171 H 0.41201 0.08872 -0.0078 0.0
H172 H 0.45073 0.0866 0.88405 0.0
H173 H 0.50175 0.09231 0.86476 0.0
C174 C 0.31728 0.5136 0.28769 0.0
C175 C 0.32652 0.53935 0.25067 0.0
C176 C 0.34897 0.5986 0.29835 0.0
C177 C 0.33321 0.57288 0.33495 0.0
N178 N 0.2917 0.50614 0.36156 0.0
N179 N 0.34445 0.60708 0.22068 0.0
C180 C 0.31468 0.53035 0.329 0.0
C181 C 0.34089 0.58215 0.25587 0.0
N182 N 0.31126 0.4731 0.2835 0.0
N183 N 0.37191 0.63871 0.30414 0.0
H184 H 0.33772 0.59625 0.1892 0.0
H185 H 0.35024 0.63824 0.22305 0.0
H186 H 0.38114 0.65129 0.33461 0.0
H187 H 0.386 0.65845 0.27878 0.0
H188 H 0.30831 0.45375 0.3101 0.0
H189 H 0.31402 0.46 0.25376 0.0
H190 H 0.27445 0.47548 0.35724 0.0
H191 H 0.28606 0.51744 0.39134 0.0
C192 C 0.91175 0.48805 0.68063 0.0
C193 C 0.87489 0.47937 0.65439 0.0
C194 C 0.83836 0.41952 0.69877 0.0
C195 C 0.8753 0.42811 0.72505 0.0
N196 N 0.94383 0.4752 0.74691 0.0
N197 N 0.80093 0.44233 0.64174 0.0
C198 C 0.91076 0.46405 0.71815 0.0
C199 C 0.83743 0.44674 0.66454 0.0
N200 N 0.94871 0.51752 0.66807 0.0
N201 N 0.80443 0.38509 0.70638 0.0
H202 H 0.7996 0.46184 0.61643 0.0
H203 H 0.77131 0.42149 0.64966 0.0
H204 H 0.80257 0.36629 0.73328 0.0
H205 H 0.77869 0.37423 0.68549 0.0
H206 H 0.97819 0.52167 0.68238 0.0
H207 H 0.95089 0.53621 0.64106 0.0
H208 H 0.96733 0.50367 0.74655 0.0
H209 H 0.94666 0.45765 0.77333 0.0
C210 C 0.4948 0.91577 0.96639 0.0
C211 C 0.49376 0.87657 0.9797 0.0
C212 C 0.42547 0.84635 0.94306 0.0
C213 C 0.4238 0.88591 0.93499 0.0
N214 N 0.45408 0.95854 0.94451 0.0
N215 N 0.45615 0.8044 0.98548 0.0
C216 C 0.45788 0.92077 0.94781 0.0
C217 C 0.45876 0.84169 0.96906 0.0
N218 N 0.53138 0.94814 0.97099 0.0
N219 N 0.39607 0.81332 0.9248 0.0
H220 H 0.48004 0.79929 0.00408 0.0
H221 H 0.42884 0.77897 0.98337 0.0
H222 H 0.37142 0.81556 0.90524 0.0
H223 H 0.3984 0.78423 0.92566 0.0
H224 H 0.53532 0.97679 0.95811 0.0
H225 H 0.55932 0.94541 0.98398 0.0
H226 H 0.47582 -0.01559 0.95781 0.0
H227 H 0.42717 0.96361 0.93218 0.0
C228 C 0.55623 0.45165 0.33377 0.0
C229 C 0.56231 0.42826 0.36934 0.0
C230 C 0.60828 0.40192 0.32418 0.0
C231 C 0.60369 0.42705 0.28944 0.0
N232 N 0.57555 0.478 0.26185 0.0
N233 N 0.59922 0.38599 0.40111 0.0
C234 C 0.57907 0.45302 0.29482 0.0
C235 C 0.58974 0.40464 0.36529 0.0
N236 N 0.52777 0.4722 0.33541 0.0
N237 N 0.62876 0.37421 0.31732 0.0
H238 H 0.58628 0.38743 0.43169 0.0
H239 H 0.62263 0.37214 0.40153 0.0
H240 H 0.64275 0.37139 0.2877 0.0
H241 H 0.62912 0.3519 0.33974 0.0
H242 H 0.50846 0.47223 0.36216 0.0
H243 H 0.50846 0.47223 0.36216 0.0
H244 H 0.55527 0.49527 0.26393 0.0
H245 H 0.59254 0.48122 0.23279 0.0
C246 C 0.12499 0.4793 0.69008 0.0
C247 C 0.10428 0.44106 0.70992 0.0
C248 C 0.0948 0.47432 0.77671 0.0
C249 C 0.11203 0.51255 0.75552 0.0
N250 N 0.16019 0.55137 0.70001 0.0
N251 N 0.08558 0.40218 0.77571 0.0
C252 C 0.13291 0.51514 0.71489 0.0
C253 C 0.09459 0.43854 0.75465 0.0
N254 N 0.1356 0.48141 0.64709 0.0
N255 N 0.07772 0.47233 0.81735 0.0
H256 H 0.08777 0.3765 0.76002 0.0
H257 H 0.08059 0.39856 0.80904 0.0
H258 H 0.0803 0.49831 0.83536 0.0
H259 H 0.06008 0.44522 0.83254 0.0
H260 H 0.14547 0.50844 0.62933 0.0
H261 H 0.13235 0.45562 0.62861 0.0
H262 H 0.17854 0.55412 0.67199 0.0
H263 H 0.16873 0.57787 0.71817 0.0
C264 C 0.28897 0.95384 0.03329 0.0
C265 C 0.30559 -0.00571 0.04786 0.0
C266 C 0.31512 0.01884 0.97287 0.0
C267 C 0.3101 0.9787 0.95914 0.0
N268 N 0.28231 0.90635 0.97457 0.0
N269 N 0.30876 0.06271 0.03185 0.0
C270 C 0.2927 0.9455 0.98854 0.0
C271 C 0.31024 0.02618 0.0176 0.0
N272 N 0.26854 0.92401 0.06228 0.0
N273 N 0.32614 0.04988 0.94325 0.0
H274 H 0.30153 0.06686 0.0641 0.0
H275 H 0.30977 0.08692 0.01148 0.0
H276 H 0.32697 0.04471 0.91 0.0
H277 H 0.33523 0.08046 0.95151 0.0
H278 H 0.2528 0.89392 0.05391 0.0
H279 H 0.26346 0.93081 0.09437 0.0
H280 H 0.27612 0.88141 -0.00467 0.0
H281 H 0.27975 0.89839 0.94204 0.0
C282 C 0.44009 0.457 0.27131 0.0
C283 C 0.44499 0.41884 0.28035 0.0
C284 C 0.41542 0.41934 0.35334 0.0
C285 C 0.41447 0.45928 0.34539 0.0
N286 N 0.42508 0.5153 0.29433 0.0
N287 N 0.44031 0.36431 0.33057 0.0
C288 C 0.4258 0.47742 0.30391 0.0
C289 C 0.43323 0.40002 0.32152 0.0
N290 N 0.45108 0.47623 0.23227 0.0
N291 N 0.39766 0.39933 0.39057 0.0
H292 H 0.45124 0.3483 0.3074 0.0
H293 H 0.43767 0.35157 0.36148 0.0
H294 H 0.38325 0.41213 0.41389 0.0
H295 H 0.39353 0.36887 0.39669 0.0
H296 H 0.46307 0.46448 0.20603 0.0
H297 H 0.46307 0.46448 0.20603 0.0
H298 H 0.41663 0.53431 0.31592 0.0
H299 H 0.41663 0.53431 0.31592 0.0
C300 C 0.03119 0.2929 0.73657 0.0
C301 C 0.02285 0.29237 0.69141 0.0
C302 C 0.98337 0.34002 0.70178 0.0
C303 C -0.01009 0.33915 0.74714 0.0
N304 N 0.01453 0.31052 0.80894 0.0
N305 N 0.98561 0.31187 0.63203 0.0
C306 C 0.01189 0.31402 0.76493 0.0
C307 C -0.00239 0.31472 0.67438 0.0
N308 N 0.05928 0.27496 0.75205 0.0
N309 N 0.96247 0.36429 0.68435 0.0
H310 H -0.00695 0.29286 0.60962 0.0
H311 H -0.00695 0.29286 0.60962 0.0
H312 H 0.95166 0.38399 0.70271 0.0
H313 H 0.95717 0.36552 0.65108 0.0
H314 H 0.07051 0.27811 0.78375 0.0
H315 H 0.0743 0.25952 0.73225 0.0
H316 H 0.02548 0.28905 0.824 0.0
H317 H 0.00349 0.32765 0.83072 0.0
C318 C 0.65021 0.92798 0.9703 0.0
C319 C 0.66101 0.95158 0.00837 0.0
C320 C 0.67671 0.01392 0.96531 0.0
C321 C 0.65535 -0.0099 0.92955 0.0
N322 N 0.62651 0.92478 0.89559 0.0
N323 N 0.70386 0.01453 0.03879 0.0
C324 C 0.64439 0.94715 0.93105 0.0
C325 C 0.68108 -0.00608 0.00447 0.0
N326 N 0.64714 0.88798 0.97149 0.0
N327 N 0.68913 0.05536 0.96339 0.0
H328 H 0.70738 -0.00063 0.06712 0.0
H329 H 0.72228 0.04512 0.0379 0.0
H330 H 0.68739 0.07137 0.93538 0.0
H331 H 0.69967 0.07416 0.99001 0.0
H332 H 0.64159 0.86946 0.94427 0.0
H333 H 0.65578 0.87485 -0.00113 0.0
H334 H 0.6127 0.89328 0.89612 0.0
H335 H 0.62422 0.93823 0.86577 0.0
C336 C 0.53729 0.57749 0.25833 0.0
C337 C 0.50211 0.59201 0.26204 0.0
C338 C 0.51517 0.60262 0.33956 0.0
C339 C 0.54553 0.582 0.3372 0.0
N340 N 0.60199 0.57438 0.29214 0.0
N341 N 0.46573 0.62867 0.30533 0.0
C342 C 0.56199 0.57701 0.29583 0.0
C343 C 0.49375 0.6078 0.30201 0.0
N344 N 0.546 0.56253 0.21979 0.0
N345 N 0.50753 0.6199 0.37682 0.0
H346 H 0.44995 0.63568 0.27879 0.0
H347 H 0.44995 0.63568 0.27879 0.0
H348 H 0.52501 0.62153 0.40523 0.0
H349 H 0.52501 0.62153 0.40523 0.0
H350 H 0.56989 0.54958 0.21582 0.0
H351 H 0.52756 0.56039 0.19207 0.0
H352 H 0.61666 0.57331 0.26249 0.0
H353 H 0.62293 0.57968 0.31824 0.0
C354 C 0.01002 0.62553 0.65871 0.0
C355 C 0.05451 0.63179 0.65869 0.0
C356 C 0.05567 0.63637 0.57906 0.0
C357 C 0.0105 0.6222 0.57971 0.0
N358 N 0.94931 0.6278 0.61892 0.0
N359 N 0.12152 0.65877 0.62066 0.0
C360 C -0.01062 0.62541 0.61882 0.0
C361 C 0.07807 0.64235 0.61923 0.0
N362 N 0.98644 0.61787 0.69606 0.0
N363 N 0.07659 0.64408 0.54016 0.0
H364 H 0.1381 0.66562 0.64986 0.0
H365 H 0.14101 0.6685 0.59358 0.0
H366 H 0.06055 0.64522 0.51136 0.0
H367 H 0.10924 0.65029 0.53631 0.0
H368 H 0.95354 0.61226 0.69603 0.0
H369 H -0.00122 0.61533 0.72648 0.0
H370 H 0.93335 0.63095 0.59069 0.0
H371 H 0.93335 0.63095 0.59069 0.0
C372 C 0.53269 0.96755 0.18666 0.0
C373 C 0.5147 0.925 0.19166 0.0
C374 C 0.44306 0.93012 0.19276 0.0
C375 C 0.46053 0.97068 0.17759 0.0
N376 N 0.52176 0.03066 0.16606 0.0
N377 N 0.45706 0.87199 0.22503 0.0
C378 C 0.50541 -0.00936 0.17772 0.0
C379 C 0.47106 0.9081 0.20312 0.0
N380 N 0.57578 -0.0148 0.19052 0.0
N381 N 0.39984 0.91223 0.19511 0.0
H382 H 0.47823 0.85795 0.23673 0.0
H383 H 0.42596 0.85896 0.23642 0.0
H384 H 0.37887 0.92841 0.18949 0.0
H385 H 0.38493 0.88132 0.20094 0.0
H386 H 0.59152 0.0164 0.18979 0.0
H387 H 0.59528 0.96805 0.19863 0.0
H388 H 0.554 0.04595 0.16055 0.0
H389 H 0.50255 0.04849 0.16038 0.0
C390 C 0.50001 0.52489 0.56125 0.0
C391 C 0.53513 0.55 0.53711 0.0
C392 C 0.49386 0.59359 0.51669 0.0
C393 C 0.45639 0.56193 0.52889 0.0
N394 N 0.42298 0.49968 0.56869 0.0
N395 N 0.56988 0.61839 0.51057 0.0
C396 C 0.45921 0.52881 0.55432 0.0
C397 C 0.5337 0.58792 0.52185 0.0
N398 N 0.50604 0.49774 0.59038 0.0
N399 N 0.49134 0.62835 0.49816 0.0
H400 H 0.60034 0.61649 0.51515 0.0
H401 H 0.60034 0.61649 0.51515 0.0
H402 H 0.46231 0.63359 0.49446 0.0
H403 H 0.51832 0.6518 0.48763 0.0
H404 H 0.48219 0.48 0.61098 0.0
H405 H 0.53652 0.49677 0.59704 0.0
H406 H 0.42277 0.47239 0.58277 0.0
H407 H 0.39278 0.50231 0.56501 0.0
C408 C 0.03682 0.52415 0.91703 0.0
C409 C 0.03055 0.55632 0.8924 0.0
C410 C 0.95536 0.51706 0.88324 0.0
C411 C 0.96395 0.48217 0.89878 0.0
N412 N 0.00482 0.45661 0.94865 0.0
N413 N 0.98005 0.59064 0.87738 0.0
C414 C 0.0024 0.48683 0.92146 0.0
C415 C 0.98836 0.5552 0.88384 0.0
N416 N 0.07511 0.52971 0.93658 0.0
N417 N 0.91656 0.51337 0.86558 0.0
H418 H 0.00368 0.61886 0.88112 0.0
H419 H 0.94941 0.59214 0.87383 0.0
H420 H 0.89096 0.48622 0.86646 0.0
H421 H 0.91038 0.53674 0.84861 0.0
H422 H 0.08415 0.50641 0.95017 0.0
H423 H 0.09746 0.55859 0.9404 0.0
H424 H 0.03126 0.45814 0.9674 0.0
H425 H 0.97825 0.43133 0.95576 0.0
C426 C 0.96081 0.40621 0.51377 0.0
C427 C 0.98761 0.44744 0.51339 0.0
C428 C 0.05059 0.4257 0.51581 0.0
C429 C 0.02382 0.38558 0.52533 0.0
N430 N 0.95339 0.33639 0.53208 0.0
N431 N 0.05779 0.49722 0.51153 0.0
C432 C 0.97885 0.37519 0.5228 0.0
C433 C 0.03254 0.45737 0.51295 0.0
N434 N 0.91806 0.39688 0.50662 0.0
N435 N 0.09325 0.43315 0.50943 0.0
H436 H 0.04539 0.52083 0.50676 0.0
H437 H 0.09057 0.507 0.51662 0.0
H438 H 0.10676 0.40999 0.51028 0.0
H439 H 0.11438 0.46108 0.49935 0.0
H440 H 0.89739 0.36737 0.50247 0.0
H441 H 0.90367 0.41887 0.50098 0.0
H442 H 0.92057 0.32799 0.5368 0.0
H443 H 0.96534 0.31258 0.53712 0.0
C444 C 0.46143 0.02309 0.76768 0.0
C445 C 0.44442 -0.01887 0.75751 0.0
C446 C 0.51581 -0.01969 0.73881 0.0
C447 C 0.53318 0.01851 0.75919 0.0
N448 N 0.52384 0.08401 0.76658 0.0
N449 N 0.45255 0.93017 0.70927 0.0
C450 C 0.50646 0.04268 0.76535 0.0
C451 C 0.4708 0.96307 0.7349 0.0
N452 N 0.43487 0.04408 0.77907 0.0
N453 N 0.54236 0.96048 0.72407 0.0
H454 H 0.4197 0.91939 0.70388 0.0
H455 H 0.46988 0.91678 0.68986 0.0
H456 H 0.57539 0.97454 0.72283 0.0
H457 H 0.5318 0.93044 0.71366 0.0
H458 H 0.44533 0.07269 0.79326 0.0
H459 H 0.40218 0.03293 0.77315 0.0
H460 H 0.50597 0.10347 0.76922 0.0
H461 H 0.55573 0.09903 0.75876 0.0
C462 C 0.4666 0.42454 0.09269 0.0
C463 C 0.50988 0.44765 0.09933 0.0
C464 C 0.49489 0.50937 0.07928 0.0
C465 C 0.45092 0.48803 0.08627 0.0
N466 N 0.39362 0.42418 0.09415 0.0
N467 N 0.56703 0.50614 0.07511 0.0
C468 C 0.43615 0.44502 0.08981 0.0
C469 C 0.52481 0.48842 0.0847 0.0
N470 N 0.45518 0.38339 0.08861 0.0
N471 N 0.50763 0.5499 0.06967 0.0
H472 H 0.588 0.48942 0.0754 0.0
H473 H 0.58035 0.53548 0.06285 0.0
H474 H 0.48562 0.56467 0.06287 0.0
H475 H 0.53927 0.56872 0.0686 0.0
H476 H 0.42444 0.36486 0.08095 0.0
H477 H 0.47804 0.36875 0.08771 0.0
H478 H 0.38164 0.39351 0.10258 0.0
H479 H 0.37027 0.43795 0.09106 0.0
C480 C 0.47306 0.24462 0.14436 0.0
C481 C 0.5052 0.26186 0.17542 0.0
C482 C 0.49921 0.19389 0.20202 0.0
C483 C 0.4717 0.17686 0.16698 0.0
N484 N 0.43879 0.1865 0.09965 0.0
N485 N 0.5528 0.25346 0.23091 0.0
C486 C 0.46005 0.20226 0.13683 0.0
C487 C 0.51921 0.23669 0.20376 0.0
N488 N 0.45395 0.26847 0.12299 0.0
N489 N 0.50547 0.16919 0.23405 0.0
H490 H 0.56857 0.28467 0.23285 0.0
H491 H 0.56737 0.23632 0.24886 0.0
H492 H 0.49089 0.13771 0.23392 0.0
H493 H 0.52179 0.1801 0.2626 0.0
H494 H 0.42736 0.25669 0.10327 0.0
H495 H 0.4617 0.29956 0.12853 0.0
H496 H 0.43388 0.20454 0.07452 0.0
H497 H 0.42969 0.1558 0.09174 0.0
C498 C 0.21755 0.42265 0.54747 0.0
C499 C 0.20313 0.3802 0.53953 0.0
C500 C 0.26447 0.38861 0.49166 0.0
C501 C 0.28083 0.43027 0.50337 0.0
N502 N 0.27827 0.48399 0.55124 0.0
N503 N 0.21619 0.32142 0.51003 0.0
C504 C 0.25903 0.44634 0.53409 0.0
C505 C 0.22764 0.3627 0.51342 0.0
N506 N 0.1908 0.44093 0.56527 0.0
N507 N 0.28252 0.37426 0.45828 0.0
H508 H 0.18936 0.30163 0.52555 0.0
H509 H 0.23526 0.30682 0.49503 0.0
H510 H 0.30882 0.39242 0.44077 0.0
H511 H 0.26913 0.34529 0.44541 0.0
H512 H 0.19861 0.47237 0.56765 0.0
H513 H 0.15904 0.42523 0.57291 0.0
H514 H 0.26516 0.49545 0.57683 0.0
H515 H 0.30934 0.50181 0.54322 0.0
C516 C 0.73616 0.22193 0.84156 0.0
C517 C 0.73558 0.18875 0.86866 0.0
C518 C 0.8075 0.22636 0.89407 0.0
C519 C 0.81002 0.25728 0.86318 0.0
N520 N 0.77947 0.28122 0.80182 0.0
N521 N 0.77361 0.15602 0.9146 0.0
C522 C 0.77503 0.25438 0.83545 0.0
C523 C 0.77198 0.19007 0.89346 0.0
N524 N 0.69937 0.22308 0.82269 0.0
N525 N 0.83864 0.23205 0.92462 0.0
H526 H 0.74901 0.12827 0.91354 0.0
H527 H 0.80104 0.15411 0.92945 0.0
H528 H 0.86491 0.25857 0.92634 0.0
H529 H 0.8363 0.21231 0.95072 0.0
H530 H 0.69703 0.24855 0.80643 0.0
H531 H 0.67015 0.20004 0.82669 0.0
H532 H 0.75655 0.27769 0.77781 0.0
H533 H 0.80755 0.30505 0.79542 0.0
C534 C 0.48369 0.68979 0.08305 0.0
C535 C 0.44287 0.67349 0.10282 0.0
C536 C 0.44594 0.74173 0.12451 0.0
C537 C 0.48425 0.75834 0.10028 0.0
N538 N 0.53278 0.74777 0.04644 0.0
N539 N 0.3808 0.68497 0.1333 0.0
C540 C 0.50117 0.73232 0.07648 0.0
C541 C 0.42259 0.69983 0.12068 0.0
N542 N 0.50716 0.66534 0.07293 0.0
N543 N 0.43283 0.7653 0.15288 0.0
H544 H 0.36227 0.65454 0.12958 0.0
H545 H 0.36345 0.70356 0.14298 0.0
H546 H 0.45012 0.79568 0.15865 0.0
H547 H 0.40731 0.75349 0.17425 0.0
H548 H 0.53879 0.67677 0.0625 0.0
H549 H 0.49702 0.6343 0.07951 0.0
H550 H 0.54301 0.72939 0.02552 0.0
H551 H 0.54543 0.77861 0.03895 0.0
C552 C 0.76935 0.47949 0.43624 0.0
C553 C 0.7882 0.49307 0.47697 0.0
C554 C 0.72393 0.50704 0.50068 0.0
C555 C 0.70358 0.48969 0.46179 0.0
N556 N 0.70491 0.45788 0.39288 0.0
N557 N 0.78228 0.51493 0.55025 0.0
C558 C 0.72581 0.47568 0.42947 0.0
C559 C 0.76528 0.50575 0.50976 0.0
N560 N 0.7935 0.47131 0.40385 0.0
N561 N 0.70428 0.52604 0.52827 0.0
H562 H 0.81276 0.51507 0.55823 0.0
H563 H 0.76505 0.5193 0.57695 0.0
H564 H 0.67388 0.52766 0.52277 0.0
H565 H 0.71944 0.54336 0.55458 0.0
H566 H 0.78317 0.46507 0.37204 0.0
H567 H 0.82539 0.47361 0.40805 0.0
H568 H 0.71744 0.44275 0.37028 0.0
H569 H 0.67371 0.4564 0.38611 0.0
C570 C 0.23627 0.73427 0.82645 0.0
C571 C 0.21322 0.73062 0.78721 0.0
C572 C 0.25839 0.79911 0.76541 0.0
C573 C 0.27822 0.80414 0.8066 0.0
N574 N 0.27863 0.78005 0.88012 0.0
N575 N 0.19679 0.76233 0.7228 0.0
C576 C 0.26515 0.77269 0.83822 0.0
C577 C 0.22278 0.76377 0.75749 0.0
N578 N 0.23184 0.70079 0.85178 0.0
N579 N 0.27428 0.82746 0.73348 0.0
H580 H 0.1697 0.73753 0.71644 0.0
H581 H 0.19973 0.78723 0.7027 0.0
H582 H 0.30037 0.85369 0.7381 0.0
H583 H 0.264 0.82325 0.70144 0.0
H584 H 0.25122 0.70112 0.87839 0.0
H585 H 0.21191 0.67174 0.84374 0.0
H586 H 0.26675 0.75936 0.90535 0.0
H587 H 0.29804 0.80845 0.89062 0.0
loop_
_geom_bond_atom_site_label_1
_geom_bond_atom_site_label_2
_geom_bond_distance
_geom_bond_site_symmetry_2
_ccdc_geom_bond_type
C0 O1 1.160 . S
C0 O7 1.185 . S
O1 C0 1.160 . S
O2 Zn3 1.899 . S
O2 C10 1.284 . S
Zn3 O2 1.899 . S
Zn3 O4 2.032 . S
Zn3 O7 2.086 . S
Zn3 O12 1.977 . S
O4 Zn3 2.032 . S
O4 C8 1.278 . S
C5 O6 1.203 . S
C5 O12 1.267 . S
O6 C5 1.203 . S
O7 C0 1.185 . S
O7 Zn3 2.086 . S
C8 O4 1.278 . S
C8 O9 1.211 1_554 S
O9 C8 1.211 1_556 S
C10 O2 1.284 . S
C10 O11 1.273 . S
O11 C10 1.273 . S
O12 Zn3 1.977 . S
O12 C5 1.267 . S
C13 O14 1.160 . S
C13 O20 1.185 . S
O14 C13 1.160 . S
O15 Zn16 1.899 . S
O15 C23 1.284 . S
Zn16 O15 1.899 . S
Zn16 O17 2.032 . S
Zn16 O20 2.086 . S
Zn16 O25 1.977 . S
O17 Zn16 2.032 . S
O17 C21 1.278 . S
C18 O19 1.203 . S
C18 O25 1.267 . S
O19 C18 1.203 . S
O20 C13 1.185 . S
O20 Zn16 2.086 . S
C21 O17 1.278 . S
C21 O22 1.211 . S
O22 C21 1.211 . S
C23 O15 1.284 . S
C23 O24 1.273 . S
O24 C23 1.273 . S
O25 Zn16 1.977 . S
O25 C18 1.267 . S
C26 O27 1.160 . S
C26 O33 1.185 . S
O27 C26 1.160 . S
O28 Zn29 1.899 . S
O28 C36 1.284 . S
Zn29 O28 1.899 . S
Zn29 O30 2.032 . S
Zn29 O33 2.086 . S
Zn29 O38 1.977 . S
O30 Zn29 2.032 . S
O30 C34 1.278 . S
C31 O32 1.203 . S
C31 O38 1.267 . S
O32 C31 1.203 . S
O33 C26 1.185 . S
O33 Zn29 2.086 . S
C34 O30 1.278 . S
C34 O35 1.211 . S
O35 C34 1.211 . S
C36 O28 1.284 . S
C36 O37 1.273 . S
O37 C36 1.273 . S
O38 Zn29 1.977 . S
O38 C31 1.267 . S
C39 O40 1.160 . S
C39 O46 1.185 . S
O40 C39 1.160 . S
O41 Zn42 1.899 . S
O41 C49 1.284 . S
Zn42 O41 1.899 . S
Zn42 O43 2.032 . S
Zn42 O46 2.086 . S
Zn42 O51 1.977 . S
O43 Zn42 2.032 . S
O43 C47 1.278 . S
C44 O45 1.203 . S
C44 O51 1.267 . S
O45 C44 1.203 . S
O46 C39 1.185 . S
O46 Zn42 2.086 . S
C47 O43 1.278 . S
C47 O48 1.211 1_554 S
O48 C47 1.211 1_556 S
C49 O41 1.284 . S
C49 O50 1.273 . S
O50 C49 1.273 . S
O51 Zn42 1.977 . S
O51 C44 1.267 . S
C52 O53 1.160 . S
C52 O59 1.185 . S
O53 C52 1.160 . S
O54 Zn55 1.899 . S
O54 C62 1.284 . S
Zn55 O54 1.899 . S
Zn55 O56 2.032 . S
Zn55 O59 2.086 . S
Zn55 O64 1.977 . S
O56 Zn55 2.032 . S
O56 C60 1.278 . S
C57 O58 1.203 . S
C57 O64 1.267 . S
O58 C57 1.203 . S
O59 C52 1.185 . S
O59 Zn55 2.086 . S
C60 O56 1.278 . S
C60 O61 1.211 . S
O61 C60 1.211 . S
C62 O54 1.284 . S
C62 O63 1.273 . S
O63 C62 1.273 . S
O64 Zn55 1.977 . S
O64 C57 1.267 . S
C65 O66 1.160 . S
C65 O72 1.185 . S
O66 C65 1.160 . S
O67 Zn68 1.899 . S
O67 C75 1.284 . S
Zn68 O67 1.899 . S
Zn68 O69 2.032 . S
Zn68 O72 2.086 . S
Zn68 O77 1.977 . S
O69 Zn68 2.032 . S
O69 C73 1.278 . S
C70 O71 1.203 . S
C70 O77 1.267 . S
O71 C70 1.203 . S
O72 C65 1.185 . S
O72 Zn68 2.086 . S
C73 O69 1.278 . S
C73 O74 1.211 . S
O74 C73 1.211 . S
C75 O67 1.284 . S
C75 O76 1.273 . S
O76 C75 1.273 . S
O77 Zn68 1.977 . S
O77 C70 1.267 . S
C78 O79 1.160 . S
C78 O85 1.185 . S
O79 C78 1.160 . S
O80 Zn81 1.899 . S
O80 C88 1.284 . S
Zn81 O80 1.899 . S
Zn81 O82 2.032 . S
Zn81 O85 2.086 . S
Zn81 O90 1.977 . S
O82 Zn81 2.032 . S
O82 C86 1.278 . S
C83 O84 1.203 1_655 S
C83 O90 1.267 . S
O84 C83 1.203 1_455 S
O85 C78 1.185 . S
O85 Zn81 2.086 . S
C86 O82 1.278 . S
C86 O87 1.211 . S
O87 C86 1.211 . S
C88 O80 1.284 . S
C88 O89 1.273 . S
O89 C88 1.273 . S
O90 Zn81 1.977 . S
O90 C83 1.267 . S
C91 O92 1.160 . S
C91 O98 1.185 . S
O92 C91 1.160 . S
O93 Zn94 1.899 . S
O93 C101 1.284 . S
Zn94 O93 1.899 . S
Zn94 O95 2.032 . S
Zn94 O98 2.086 . S
Zn94 O103 1.977 . S
O95 Zn94 2.032 . S
O95 C99 1.278 . S
C96 O97 1.203 . S
C96 O103 1.267 . S
O97 C96 1.203 . S
O98 C91 1.185 . S
O98 Zn94 2.086 . S
C99 O95 1.278 . S
C99 O100 1.211 . S
O100 C99 1.211 . S
C101 O93 1.284 . S
C101 O102 1.273 . S
O102 C101 1.273 . S
O103 Zn94 1.977 . S
O103 C96 1.267 . S
C104 O105 1.160 . S
C104 O111 1.185 . S
O105 C104 1.160 . S
O106 Zn107 1.899 . S
O106 C114 1.284 . S
Zn107 O106 1.899 . S
Zn107 O108 2.032 . S
Zn107 O111 2.086 . S
Zn107 O116 1.977 . S
O108 Zn107 2.032 . S
O108 C112 1.278 . S
C109 O110 1.203 . S
C109 O116 1.267 . S
O110 C109 1.203 . S
O111 C104 1.185 . S
O111 Zn107 2.086 . S
C112 O108 1.278 . S
C112 O113 1.211 . S
O113 C112 1.211 . S
C114 O106 1.284 . S
C114 O115 1.273 . S
O115 C114 1.273 . S
O116 Zn107 1.977 . S
O116 C109 1.267 . S
C117 O118 1.160 . S
C117 O124 1.185 . S
O118 C117 1.160 . S
O119 Zn120 1.899 . S
O119 C127 1.284 . S
Zn120 O119 1.899 . S
Zn120 O121 2.032 . S
Zn120 O124 2.086 . S
Zn120 O129 1.977 . S
O121 Zn120 2.032 . S
O121 C125 1.278 . S
C122 O123 1.203 1_455 S
C122 O129 1.267 . S
O123 C122 1.203 1_655 S
O124 C117 1.185 . S
O124 Zn120 2.086 . S
C125 O121 1.278 . S
C125 O126 1.211 . S
O126 C125 1.211 . S
C127 O119 1.284 . S
C127 O128 1.273 . S
O128 C127 1.273 . S
O129 Zn120 1.977 . S
O129 C122 1.267 . S
C130 O131 1.160 . S
C130 O137 1.185 . S
O131 C130 1.160 . S
O132 Zn133 1.899 . S
O132 C140 1.284 . S
Zn133 O132 1.899 . S
Zn133 O134 2.032 . S
Zn133 O137 2.086 . S
Zn133 O142 1.977 . S
O134 Zn133 2.032 . S
O134 C138 1.278 . S
C135 O136 1.203 . S
C135 O142 1.267 . S
O136 C135 1.203 . S
O137 C130 1.185 . S
O137 Zn133 2.086 . S
C138 O134 1.278 . S
C138 O139 1.211 . S
O139 C138 1.211 . S
C140 O132 1.284 . S
C140 O141 1.273 . S
O141 C140 1.273 . S
O142 Zn133 1.977 . S
O142 C135 1.267 . S
C143 O144 1.160 . S
C143 O150 1.185 . S
O144 C143 1.160 . S
O145 Zn146 1.899 . S
O145 C153 1.284 . S
Zn146 O145 1.899 . S
Zn146 O147 2.032 . S
Zn146 O150 2.086 . S
Zn146 O155 1.977 . S
O147 Zn146 2.032 . S
O147 C151 1.278 . S
C148 O149 1.203 . S
C148 O155 1.267 . S
O149 C148 1.203 . S
O150 C143 1.185 . S
O150 Zn146 2.086 . S
C151 O147 1.278 . S
C151 O152 1.211 . S
O152 C151 1.211 . S
C153 O145 1.284 . S
C153 O154 1.273 . S
O154 C153 1.273 . S
O155 Zn146 1.977 . S
O155 C148 1.267 . S
C156 C157 1.363 . S
C156 C162 1.379 . S
C156 N164 1.356 . S
C157 C156 1.363 . S
C157 C163 1.363 . S
C158 C159 1.363 . S
C158 C163 1.379 . S
C158 N165 1.356 . S
C159 C158 1.363 . S
C159 C162 1.363 . S
N160 C162 1.356 . S
N160 H172 0.984 . S
N160 H173 0.985 . S
N161 C163 1.356 1_554 S
N161 H166 0.984 . S
N161 H167 0.985 . S
C162 C156 1.379 . S
C162 C159 1.363 . S
C162 N160 1.356 . S
C163 C157 1.363 . S
C163 C158 1.379 . S
C163 N161 1.356 1_556 S
N164 C156 1.356 . S
N164 H170 0.984 . S
N164 H171 0.984 1_556 S
N165 C158 1.356 . S
N165 H168 0.984 . S
N165 H169 0.985 . S
H166 N161 0.984 . S
H167 N161 0.985 . S
H168 N165 0.984 . S
H169 N165 0.985 . S
H170 N164 0.984 . S
H171 N164 0.984 1_554 S
H172 N160 0.984 . S
H173 N160 0.985 . S
C174 C175 1.363 . S
C174 C180 1.379 . S
C174 N182 1.356 . S
C175 C174 1.363 . S
C175 C181 1.363 . S
C176 C177 1.363 . S
C176 C181 1.379 . S
C176 N183 1.356 . S
C177 C176 1.363 . S
C177 C180 1.363 . S
N178 C180 1.356 . S
N178 H190 0.984 . S
N178 H191 0.985 . S
N179 C181 1.356 . S
N179 H184 0.984 . S
N179 H185 0.985 . S
C180 C174 1.379 . S
C180 C177 1.363 . S
C180 N178 1.356 . S
C181 C175 1.363 . S
C181 C176 1.379 . S
C181 N179 1.356 . S
N182 C174 1.356 . S
N182 H188 0.984 . S
N182 H189 0.984 . S
N183 C176 1.356 . S
N183 H186 0.984 . S
N183 H187 0.985 . S
H184 N179 0.984 . S
H185 N179 0.985 . S
H186 N183 0.984 . S
H187 N183 0.985 . S
H188 N182 0.984 . S
H189 N182 0.984 . S
H190 N178 0.984 . S
H191 N178 0.985 . S
C192 C193 1.363 . S
C192 C198 1.379 . S
C192 N200 1.356 . S
C193 C192 1.363 . S
C193 C199 1.363 . S
C194 C195 1.363 . S
C194 C199 1.379 . S
C194 N201 1.356 . S
C195 C194 1.363 . S
C195 C198 1.363 . S
N196 C198 1.356 . S
N196 H208 0.984 . S
N196 H209 0.985 . S
N197 C199 1.356 . S
N197 H202 0.984 . S
N197 H203 0.985 . S
C198 C192 1.379 . S
C198 C195 1.363 . S
C198 N196 1.356 . S
C199 C193 1.363 . S
C199 C194 1.379 . S
C199 N197 1.356 . S
N200 C192 1.356 . S
N200 H206 0.984 . S
N200 H207 0.984 . S
N201 C194 1.356 . S
N201 H204 0.984 . S
N201 H205 0.985 . S
H202 N197 0.984 . S
H203 N197 0.985 . S
H204 N201 0.984 . S
H205 N201 0.985 . S
H206 N200 0.984 . S
H207 N200 0.984 . S
H208 N196 0.984 . S
H209 N196 0.985 . S
C210 C211 1.363 . S
C210 C216 1.379 . S
C210 N218 1.356 1_556 S
C211 C210 1.363 . S
C211 C217 1.363 . S
C212 C213 1.363 . S
C212 C217 1.379 . S
C212 N219 1.356 . S
C213 C212 1.363 . S
C213 C216 1.363 . S
N214 C216 1.356 . S
N214 H226 0.984 . S
N214 H227 0.985 . S
N215 C217 1.356 . S
N215 H220 0.984 1_556 S
N215 H221 0.985 . S
C216 C210 1.379 . S
C216 C213 1.363 . S
C216 N214 1.356 . S
C217 C211 1.363 . S
C217 C212 1.379 . S
C217 N215 1.356 . S
N218 C210 1.356 1_554 S
N218 H224 0.984 . S
N218 H225 0.984 . S
N219 C212 1.356 . S
N219 H222 0.984 . S
N219 H223 0.985 . S
H220 N215 0.984 1_554 S
H221 N215 0.985 . S
H222 N219 0.984 . S
H223 N219 0.985 . S
H224 N218 0.984 . S
H225 N218 0.984 . S
H226 N214 0.984 . S
H227 N214 0.985 . S
C228 C229 1.363 . S
C228 C234 1.379 . S
C228 N236 1.356 . S
C229 C228 1.363 . S
C229 C235 1.363 . S
C230 C231 1.363 . S
C230 C235 1.379 . S
C230 N237 1.356 . S
C231 C230 1.363 . S
C231 C234 1.363 . S
N232 C234 1.356 . S
N232 H244 0.984 . S
N232 H245 0.985 . S
N233 C235 1.356 . S
N233 H238 0.984 . S
N233 H239 0.985 . S
C234 C228 1.379 . S
C234 C231 1.363 . S
C234 N232 1.356 . S
C235 C229 1.363 . S
C235 C230 1.379 . S
C235 N233 1.356 . S
N236 C228 1.356 . S
N236 H242 0.984 . S
N236 H243 0.984 . S
N237 C230 1.356 . S
N237 H240 0.984 . S
N237 H241 0.985 . S
H238 N233 0.984 . S
H239 N233 0.985 . S
H240 N237 0.984 . S
H241 N237 0.985 . S
H242 N236 0.984 . S
H243 N236 0.984 . S
H244 N232 0.984 . S
H245 N232 0.985 . S
C246 C247 1.363 . S
C246 C252 1.379 . S
C246 N254 1.356 . S
C247 C246 1.363 . S
C247 C253 1.363 . S
C248 C249 1.363 . S
C248 C253 1.379 . S
C248 N255 1.356 . S
C249 C248 1.363 . S
C249 C252 1.363 . S
N250 C252 1.356 . S
N250 H262 0.984 . S
N250 H263 0.985 . S
N251 C253 1.356 . S
N251 H256 0.984 . S
N251 H257 0.985 . S
C252 C246 1.379 . S
C252 C249 1.363 . S
C252 N250 1.356 . S
C253 C247 1.363 . S
C253 C248 1.379 . S
C253 N251 1.356 . S
N254 C246 1.356 . S
N254 H260 0.984 . S
N254 H261 0.984 . S
N255 C248 1.356 . S
N255 H258 0.984 . S
N255 H259 0.985 . S
H256 N251 0.984 . S
H257 N251 0.985 . S
H258 N255 0.984 . S
H259 N255 0.985 . S
H260 N254 0.984 . S
H261 N254 0.984 . S
H262 N250 0.984 . S
H263 N250 0.985 . S
C264 C265 1.363 1_565 S
C264 C270 1.379 1_554 S
C264 N272 1.356 . S
C265 C264 1.363 1_545 S
C265 C271 1.363 1_554 S
C266 C267 1.363 1_545 S
C266 C271 1.379 . S
C266 N273 1.356 . S
C267 C266 1.363 1_565 S
C267 C270 1.363 . S
N268 C270 1.356 . S
N268 H280 0.984 . S
N268 H281 0.985 . S
N269 C271 1.356 . S
N269 H274 0.984 1_556 S
N269 H275 0.985 . S
C270 C264 1.379 1_556 S
C270 C267 1.363 . S
C270 N268 1.356 . S
C271 C265 1.363 1_556 S
C271 C266 1.379 . S
C271 N269 1.356 . S
N272 C264 1.356 . S
N272 H278 0.984 . S
N272 H279 0.984 . S
N273 C266 1.356 . S
N273 H276 0.984 . S
N273 H277 0.985 . S
H274 N269 0.984 1_554 S
H275 N269 0.985 . S
H276 N273 0.984 . S
H277 N273 0.985 . S
H278 N272 0.984 . S
H279 N272 0.984 . S
H280 N268 0.984 . S
H281 N268 0.985 . S
C282 C283 1.363 . S
C282 C288 1.379 . S
C282 N290 1.356 . S
C283 C282 1.363 . S
C283 C289 1.363 . S
C284 C285 1.363 . S
C284 C289 1.379 . S
C284 N291 1.356 . S
C285 C284 1.363 . S
C285 C288 1.363 . S
N286 C288 1.356 . S
N286 H298 0.984 . S
N286 H299 0.985 . S
N287 C289 1.356 . S
N287 H292 0.984 . S
N287 H293 0.985 . S
C288 C282 1.379 . S
C288 C285 1.363 . S
C288 N286 1.356 . S
C289 C283 1.363 . S
C289 C284 1.379 . S
C289 N287 1.356 . S
N290 C282 1.356 . S
N290 H296 0.984 . S
N290 H297 0.984 . S
N291 C284 1.356 . S
N291 H294 0.984 . S
N291 H295 0.985 . S
H292 N287 0.984 . S
H293 N287 0.985 . S
H294 N291 0.984 . S
H295 N291 0.985 . S
H296 N290 0.984 . S
H297 N290 0.984 . S
H298 N286 0.984 . S
H299 N286 0.985 . S
C300 C301 1.363 1_655 S
C300 C306 1.379 . S
C300 N308 1.356 . S
C301 C300 1.363 1_455 S
C301 C307 1.363 . S
C302 C303 1.353 1_455 S
C302 C307 1.388 . S
C302 N309 1.354 . S
C303 C302 1.353 1_655 S
C303 C306 1.363 . S
N304 C306 1.356 . S
N304 H316 0.984 . S
N304 H317 0.985 . S
N305 C307 1.356 . S
N305 H310 0.984 . S
N305 H311 0.985 . S
C306 C300 1.379 . S
C306 C303 1.363 . S
C306 N304 1.356 . S
C307 C301 1.363 . S
C307 C302 1.388 . S
C307 N305 1.356 . S
N308 C300 1.356 . S
N308 H314 0.984 . S
N308 H315 0.984 . S
N309 C302 1.354 . S
N309 H312 0.984 1_455 S
N309 H313 0.985 . S
H310 N305 0.984 . S
H311 N305 0.985 . S
H312 N309 0.984 1_655 S
H313 N309 0.985 . S
H314 N308 0.984 . S
H315 N308 0.984 . S
H316 N304 0.984 . S
H317 N304 0.985 . S
C318 C319 1.363 1_556 S
C318 C324 1.379 . S
C318 N326 1.356 . S
C319 C318 1.363 1_554 S
C319 C325 1.363 1_565 S
C320 C321 1.363 . S
C320 C325 1.379 1_556 S
C320 N327 1.356 . S
C321 C320 1.363 . S
C321 C324 1.363 1_545 S
N322 C324 1.356 . S
N322 H334 0.984 . S
N322 H335 0.985 . S
N323 C325 1.356 . S
N323 H328 0.984 . S
N323 H329 0.985 . S
C324 C318 1.379 . S
C324 C321 1.363 1_565 S
C324 N322 1.356 . S
C325 C319 1.363 1_545 S
C325 C320 1.379 1_554 S
C325 N323 1.356 . S
N326 C318 1.356 . S
N326 H332 0.984 . S
N326 H333 0.984 1_556 S
N327 C320 1.356 . S
N327 H330 0.984 . S
N327 H331 0.985 . S
H328 N323 0.984 . S
H329 N323 0.985 . S
H330 N327 0.984 . S
H331 N327 0.985 . S
H332 N326 0.984 . S
H333 N326 0.984 1_554 S
H334 N322 0.984 . S
H335 N322 0.985 . S
C336 C337 1.363 . S
C336 C342 1.379 . S
C336 N344 1.356 . S
C337 C336 1.363 . S
C337 C343 1.363 . S
C338 C339 1.363 . S
C338 C343 1.379 . S
C338 N345 1.356 . S
C339 C338 1.363 . S
C339 C342 1.363 . S
N340 C342 1.356 . S
N340 H352 0.984 . S
N340 H353 0.985 . S
N341 C343 1.356 . S
N341 H346 0.984 . S
N341 H347 0.985 . S
C342 C336 1.379 . S
C342 C339 1.363 . S
C342 N340 1.356 . S
C343 C337 1.363 . S
C343 C338 1.379 . S
C343 N341 1.356 . S
N344 C336 1.356 . S
N344 H350 0.984 . S
N344 H351 0.984 . S
N345 C338 1.356 . S
N345 H348 0.984 . S
N345 H349 0.985 . S
H346 N341 0.984 . S
H347 N341 0.985 . S
H348 N345 0.984 . S
H349 N345 0.985 . S
H350 N344 0.984 . S
H351 N344 0.984 . S
H352 N340 0.984 . S
H353 N340 0.985 . S
C354 C355 1.363 1_655 S
C354 C360 1.379 . S
C354 N362 1.356 . S
C355 C354 1.363 1_455 S
C355 C361 1.363 . S
C356 C357 1.363 1_455 S
C356 C361 1.379 . S
C356 N363 1.356 . S
C357 C356 1.363 1_655 S
C357 C360 1.363 . S
N358 C360 1.356 . S
N358 H370 0.984 . S
N358 H371 0.985 . S
N359 C361 1.356 . S
N359 H364 0.984 . S
N359 H365 0.985 . S
C360 C354 1.379 . S
C360 C357 1.363 . S
C360 N358 1.356 . S
C361 C355 1.363 . S
C361 C356 1.379 . S
C361 N359 1.356 . S
N362 C354 1.356 . S
N362 H368 0.984 . S
N362 H369 0.984 . S
N363 C356 1.356 . S
N363 H366 0.984 . S
N363 H367 0.985 . S
H364 N359 0.984 . S
H365 N359 0.985 . S
H366 N363 0.984 . S
H367 N363 0.985 . S
H368 N362 0.984 . S
H369 N362 0.984 . S
H370 N358 0.984 . S
H371 N358 0.985 . S
C372 C373 1.363 1_545 S
C372 C378 1.379 . S
C372 N380 1.356 . S
C373 C372 1.363 1_565 S
C373 C379 1.363 . S
C374 C375 1.363 1_565 S
C374 C379 1.379 . S
C374 N381 1.356 . S
C375 C374 1.363 1_545 S
C375 C378 1.363 . S
N376 C378 1.356 . S
N376 H388 0.984 . S
N376 H389 0.985 . S
N377 C379 1.356 . S
N377 H382 0.984 . S
N377 H383 0.985 . S
C378 C372 1.379 . S
C378 C375 1.363 . S
C378 N376 1.356 . S
C379 C373 1.363 . S
C379 C374 1.379 . S
C379 N377 1.356 . S
N380 C372 1.356 . S
N380 H386 0.984 . S
N380 H387 0.984 1_545 S
N381 C374 1.356 . S
N381 H384 0.984 1_565 S
N381 H385 0.985 . S
H382 N377 0.984 . S
H383 N377 0.985 . S
H384 N381 0.984 1_545 S
H385 N381 0.985 . S
H386 N380 0.984 . S
H387 N380 0.984 1_565 S
H388 N376 0.984 . S
H389 N376 0.985 . S
C390 C391 1.363 . S
C390 C396 1.379 . S
C390 N398 1.356 . S
C391 C390 1.363 . S
C391 C397 1.363 . S
C392 C393 1.363 . S
C392 C397 1.379 . S
C392 N399 1.356 . S
C393 C392 1.363 . S
C393 C396 1.363 . S
N394 C396 1.356 . S
N394 H406 0.984 . S
N394 H407 0.985 . S
N395 C397 1.356 . S
N395 H400 0.984 . S
N395 H401 0.985 . S
C396 C390 1.379 . S
C396 C393 1.363 . S
C396 N394 1.356 . S
C397 C391 1.363 . S
C397 C392 1.379 . S
C397 N395 1.356 . S
N398 C390 1.356 . S
N398 H404 0.984 . S
N398 H405 0.984 . S
N399 C392 1.356 . S
N399 H402 0.984 . S
N399 H403 0.985 . S
H400 N395 0.984 . S
H401 N395 0.985 . S
H402 N399 0.984 . S
H403 N399 0.985 . S
H404 N398 0.984 . S
H405 N398 0.984 . S
H406 N394 0.984 . S
H407 N394 0.985 . S
C408 C409 1.363 . S
C408 C414 1.379 1_455 S
C408 N416 1.356 . S
C409 C408 1.363 . S
C409 C415 1.363 . S
C410 C411 1.363 . S
C410 C415 1.379 1_655 S
C410 N417 1.356 . S
C411 C410 1.363 . S
C411 C414 1.363 . S
N412 C414 1.356 . S
N412 H424 0.984 . S
N412 H425 0.985 . S
N413 C415 1.356 . S
N413 H418 0.984 . S
N413 H419 0.985 . S
C414 C408 1.379 1_655 S
C414 C411 1.363 . S
C414 N412 1.356 . S
C415 C409 1.363 . S
C415 C410 1.379 1_455 S
C415 N413 1.356 . S
N416 C408 1.356 . S
N416 H422 0.984 . S
N416 H423 0.984 . S
N417 C410 1.356 . S
N417 H420 0.984 . S
N417 H421 0.985 . S
H418 N413 0.984 . S
H419 N413 0.985 . S
H420 N417 0.984 . S
H421 N417 0.985 . S
H422 N416 0.984 . S
H423 N416 0.984 . S
H424 N412 0.984 . S
H425 N412 0.985 . S
C426 C427 1.363 . S
C426 C432 1.379 . S
C426 N434 1.356 . S
C427 C426 1.363 . S
C427 C433 1.363 1_655 S
C428 C429 1.363 . S
C428 C433 1.379 . S
C428 N435 1.356 . S
C429 C428 1.363 . S
C429 C432 1.363 1_455 S
N430 C432 1.356 . S
N430 H442 0.984 . S
N430 H443 0.985 1_655 S
N431 C433 1.356 . S
N431 H436 0.984 1_455 S
N431 H437 0.985 . S
C432 C426 1.379 . S
C432 C429 1.363 1_655 S
C432 N430 1.356 . S
C433 C427 1.363 1_455 S
C433 C428 1.379 . S
C433 N431 1.356 . S
N434 C426 1.356 . S
N434 H440 0.984 . S
N434 H441 0.984 . S
N435 C428 1.356 . S
N435 H438 0.984 . S
N435 H439 0.985 . S
H436 N431 0.984 1_655 S
H437 N431 0.985 . S
H438 N435 0.984 . S
H439 N435 0.985 . S
H440 N434 0.984 . S
H441 N434 0.984 . S
H442 N430 0.984 . S
H443 N430 0.985 1_455 S
C444 C445 1.362 1_545 S
C444 C450 1.379 . S
C444 N452 1.356 1_545 S
C445 C444 1.362 1_565 S
C445 C451 1.363 . S
C446 C447 1.363 1_565 S
C446 C451 1.379 . S
C446 N453 1.356 1_565 S
C447 C446 1.363 1_545 S
C447 C450 1.363 . S
N448 C450 1.356 . S
N448 H460 0.984 . S
N448 H461 0.985 . S
N449 C451 1.356 . S
N449 H454 0.984 . S
N449 H455 0.985 . S
C450 C444 1.379 . S
C450 C447 1.363 . S
C450 N448 1.356 . S
C451 C445 1.363 . S
C451 C446 1.379 . S
C451 N449 1.356 . S
N452 C444 1.356 1_565 S
N452 H458 0.984 1_565 S
N452 H459 0.984 . S
N453 C446 1.356 1_545 S
N453 H456 0.984 . S
N453 H457 0.985 1_545 S
H454 N449 0.984 . S
H455 N449 0.985 . S
H456 N453 0.984 . S
H457 N453 0.985 1_565 S
H458 N452 0.984 1_545 S
H459 N452 0.984 . S
H460 N448 0.984 . S
H461 N448 0.985 . S
C462 C463 1.363 . S
C462 C468 1.379 . S
C462 N470 1.356 . S
C463 C462 1.363 . S
C463 C469 1.363 . S
C464 C465 1.363 . S
C464 C469 1.379 . S
C464 N471 1.356 . S
C465 C464 1.363 . S
C465 C468 1.363 . S
N466 C468 1.356 . S
N466 H478 0.984 . S
N466 H479 0.985 . S
N467 C469 1.356 . S
N467 H472 0.984 . S
N467 H473 0.985 . S
C468 C462 1.379 . S
C468 C465 1.363 . S
C468 N466 1.356 . S
C469 C463 1.363 . S
C469 C464 1.379 . S
C469 N467 1.356 . S
N470 C462 1.356 . S
N470 H476 0.984 . S
N470 H477 0.984 . S
N471 C464 1.356 . S
N471 H474 0.984 . S
N471 H475 0.985 . S
H472 N467 0.984 . S
H473 N467 0.985 . S
H474 N471 0.984 . S
H475 N471 0.985 . S
H476 N470 0.984 . S
H477 N470 0.984 . S
H478 N466 0.984 . S
H479 N466 0.985 . S
C480 C481 1.363 . S
C480 C486 1.379 . S
C480 N488 1.356 . S
C481 C480 1.363 . S
C481 C487 1.363 . S
C482 C483 1.363 . S
C482 C487 1.379 . S
C482 N489 1.356 . S
C483 C482 1.363 . S
C483 C486 1.363 . S
N484 C486 1.356 . S
N484 H496 0.984 . S
N484 H497 0.985 . S
N485 C487 1.356 . S
N485 H490 0.984 . S
N485 H491 0.985 . S
C486 C480 1.379 . S
C486 C483 1.363 . S
C486 N484 1.356 . S
C487 C481 1.363 . S
C487 C482 1.379 . S
C487 N485 1.356 . S
N488 C480 1.356 . S
N488 H494 0.984 . S
N488 H495 0.984 . S
N489 C482 1.356 . S
N489 H492 0.984 . S
N489 H493 0.985 . S
H490 N485 0.984 . S
H491 N485 0.985 . S
H492 N489 0.984 . S
H493 N489 0.985 . S
H494 N488 0.984 . S
H495 N488 0.984 . S
H496 N484 0.984 . S
H497 N484 0.985 . S
C498 C499 1.363 . S
C498 C504 1.379 . S
C498 N506 1.356 . S
C499 C498 1.363 . S
C499 C505 1.363 . S
C500 C501 1.363 . S
C500 C505 1.379 . S
C500 N507 1.356 . S
C501 C500 1.363 . S
C501 C504 1.363 . S
N502 C504 1.356 . S
N502 H514 0.984 . S
N502 H515 0.985 . S
N503 C505 1.356 . S
N503 H508 0.984 . S
N503 H509 0.985 . S
C504 C498 1.379 . S
C504 C501 1.363 . S
C504 N502 1.356 . S
C505 C499 1.363 . S
C505 C500 1.379 . S
C505 N503 1.356 . S
N506 C498 1.356 . S
N506 H512 0.984 . S
N506 H513 0.984 . S
N507 C500 1.356 . S
N507 H510 0.984 . S
N507 H511 0.985 . S
H508 N503 0.984 . S
H509 N503 0.985 . S
H510 N507 0.984 . S
H511 N507 0.985 . S
H512 N506 0.984 . S
H513 N506 0.984 . S
H514 N502 0.984 . S
H515 N502 0.985 . S
C516 C517 1.363 . S
C516 C522 1.379 . S
C516 N524 1.356 . S
C517 C516 1.363 . S
C517 C523 1.363 . S
C518 C519 1.363 . S
C518 C523 1.379 . S
C518 N525 1.356 . S
C519 C518 1.363 . S
C519 C522 1.363 . S
N520 C522 1.356 . S
N520 H532 0.984 . S
N520 H533 0.985 . S
N521 C523 1.356 . S
N521 H526 0.984 . S
N521 H527 0.985 . S
C522 C516 1.379 . S
C522 C519 1.363 . S
C522 N520 1.356 . S
C523 C517 1.363 . S
C523 C518 1.379 . S
C523 N521 1.356 . S
N524 C516 1.356 . S
N524 H530 0.984 . S
N524 H531 0.984 . S
N525 C518 1.356 . S
N525 H528 0.984 . S
N525 H529 0.985 . S
H526 N521 0.984 . S
H527 N521 0.985 . S
H528 N525 0.984 . S
H529 N525 0.985 . S
H530 N524 0.984 . S
H531 N524 0.984 . S
H532 N520 0.984 . S
H533 N520 0.985 . S
C534 C535 1.363 . S
C534 C540 1.379 . S
C534 N542 1.356 . S
C535 C534 1.363 . S
C535 C541 1.363 . S
C536 C537 1.363 . S
C536 C541 1.379 . S
C536 N543 1.356 . S
C537 C536 1.363 . S
C537 C540 1.363 . S
N538 C540 1.356 . S
N538 H550 0.984 . S
N538 H551 0.985 . S
N539 C541 1.356 . S
N539 H544 0.984 . S
N539 H545 0.985 . S
C540 C534 1.379 . S
C540 C537 1.363 . S
C540 N538 1.356 . S
C541 C535 1.363 . S
C541 C536 1.379 . S
C541 N539 1.356 . S
N542 C534 1.356 . S
N542 H548 0.984 . S
N542 H549 0.984 . S
N543 C536 1.356 . S
N543 H546 0.984 . S
N543 H547 0.985 . S
H544 N539 0.984 . S
H545 N539 0.985 . S
H546 N543 0.984 . S
H547 N543 0.985 . S
H548 N542 0.984 . S
H549 N542 0.984 . S
H550 N538 0.984 . S
H551 N538 0.985 . S
C552 C553 1.363 . S
C552 C558 1.379 . S
C552 N560 1.356 . S
C553 C552 1.363 . S
C553 C559 1.363 . S
C554 C555 1.363 . S
C554 C559 1.379 . S
C554 N561 1.356 . S
C555 C554 1.363 . S
C555 C558 1.363 . S
N556 C558 1.356 . S
N556 H568 0.984 . S
N556 H569 0.985 . S
N557 C559 1.356 . S
N557 H562 0.984 . S
N557 H563 0.985 . S
C558 C552 1.379 . S
C558 C555 1.363 . S
C558 N556 1.356 . S
C559 C553 1.363 . S
C559 C554 1.379 . S
C559 N557 1.356 . S
N560 C552 1.356 . S
N560 H566 0.984 . S
N560 H567 0.984 . S
N561 C554 1.356 . S
N561 H564 0.984 . S
N561 H565 0.985 . S
H562 N557 0.984 . S
H563 N557 0.985 . S
H564 N561 0.984 . S
H565 N561 0.985 . S
H566 N560 0.984 . S
H567 N560 0.984 . S
H568 N556 0.984 . S
H569 N556 0.985 . S
C570 C571 1.363 . S
C570 C576 1.379 . S
C570 N578 1.356 . S
C571 C570 1.363 . S
C571 C577 1.363 . S
C572 C573 1.363 . S
C572 C577 1.379 . S
C572 N579 1.356 . S
C573 C572 1.363 . S
C573 C576 1.363 . S
N574 C576 1.356 . S
N574 H586 0.984 . S
N574 H587 0.985 . S
N575 C577 1.356 . S
N575 H580 0.984 . S
N575 H581 0.985 . S
C576 C570 1.379 . S
C576 C573 1.363 . S
C576 N574 1.356 . S
C577 C571 1.363 . S
C577 C572 1.379 . S
C577 N575 1.356 . S
N578 C570 1.356 . S
N578 H584 0.984 . S
N578 H585 0.984 . S
N579 C572 1.356 . S
N579 H582 0.984 . S
N579 H583 0.985 . S
H580 N575 0.984 . S
H581 N575 0.985 . S
H582 N579 0.984 . S
H583 N579 0.985 . S
H584 N578 0.984 . S
H585 N578 0.984 . S
H586 N574 0.984 . S
H587 N574 0.985 . S
C157 C8 0.805 1_556 S
C159 C138 0.795 . S
C175 C151 1.232 . S
C177 C21 1.239 . S
C193 C86 0.787 . S
C195 C34 0.765 . S
C211 C47 0.805 1_556 S
C213 C99 0.795 . S
C229 C60 1.239 . S
C231 C112 1.232 . S
C247 C125 0.787 . S
C249 C73 0.766 . S
C265 C5 1.016 . S
C267 C96 1.296 . S
C283 C109 1.085 . S
C285 C18 1.080 . S
C301 C122 1.068 . S
C303 C31 1.588 . S
C319 C44 1.016 . S
C321 C135 1.296 . S
C337 C148 1.085 . S
C339 C57 1.080 . S
C355 C70 1.588 . S
C357 C83 1.068 . S
C373 C49 1.044 . S
C375 C10 1.044 . S
C391 C62 1.613 . S
C393 C23 1.613 . S
C409 C75 0.931 . S
C411 C36 0.931 . S
C427 C88 0.919 . S
C429 C127 0.919 . S
C445 C101 0.918 . S
C447 C140 0.918 . S
C463 C114 1.644 . S
C465 C153 1.644 . S
C481 C104 1.662 . S
C483 C0 1.568 . S
C499 C117 1.583 . S
C501 C13 1.736 . S
C517 C130 1.687 . S
C519 C26 1.675 . S
C535 C143 1.662 . S
C537 C39 1.568 . S
C553 C78 1.583 . S
C555 C52 1.736 . S
C571 C65 1.675 . S
C573 C91 1.688 . S
