# Generated by pormake.
# Topology ukc, (4)-cn, num edge types: 1
# Building blocks:
#     Node 0, Type 0, BuildingBlock: UXUYUI_clean_sbu_0, # of connection points: 4
#     Node 1, Type 0, BuildingBlock: UXUYUI_clean_sbu_0, # of connection points: 4
#     Node 2, Type 0, BuildingBlock: UXUYUI_clean_sbu_0, # of connection points: 4
#     Node 3, Type 0, BuildingBlock: UXUYUI_clean_sbu_0, # of connection points: 4
#     Node 4, Type 0, BuildingBlock: UXUYUI_clean_sbu_0, # of connection points: 4
#     Node 5, Type 0, BuildingBlock: UXUYUI_clean_sbu_0, # of connection points: 4
#     Node 6, Type 0, BuildingBlock: UXUYUI_clean_sbu_0, # of connection points: 4
#     Node 7, Type 0, BuildingBlock: UXUYUI_clean_sbu_0, # of connection points: 4
#     Node 8, Type 0, BuildingBlock: UXUYUI_clean_sbu_0, # of connection points: 4
#     Node 9, Type 0, BuildingBlock: UXUYUI_clean_sbu_0, # of connection points: 4
#     Node 10, Type 0, BuildingBlock: UXUYUI_clean_sbu_0, # of connection points: 4
#     Node 11, Type 0, BuildingBlock: UXUYUI_clean_sbu_0, # of connection points: 4
#     Node 12, Type 0, BuildingBlock: UXUYUI_clean_sbu_0, # of connection points: 4
#     Node 13, Type 0, BuildingBlock: UXUYUI_clean_sbu_0, # of connection points: 4
#     Node 14, Type 0, BuildingBlock: UXUYUI_clean_sbu_0, # of connection points: 4
#     Node 15, Type 0, BuildingBlock: UXUYUI_clean_sbu_0, # of connection points: 4
#     Node 16, Type 0, BuildingBlock: UXUYUI_clean_sbu_0, # of connection points: 4
#     Node 17, Type 0, BuildingBlock: UXUYUI_clean_sbu_0, # of connection points: 4
#     Node 18, Type 0, BuildingBlock: UXUYUI_clean_sbu_0, # of connection points: 4
#     Node 19, Type 0, BuildingBlock: UXUYUI_clean_sbu_0, # of connection points: 4
#     Node 20, Type 0, BuildingBlock: UXUYUI_clean_sbu_0, # of connection points: 4
#     Node 21, Type 0, BuildingBlock: UXUYUI_clean_sbu_0, # of connection points: 4
#     Node 22, Type 0, BuildingBlock: UXUYUI_clean_sbu_0, # of connection points: 4
#     Node 23, Type 0, BuildingBlock: UXUYUI_clean_sbu_0, # of connection points: 4
#     Node 24, Type 0, BuildingBlock: UXUYUI_clean_sbu_0, # of connection points: 4
#     Node 25, Type 0, BuildingBlock: UXUYUI_clean_sbu_0, # of connection points: 4
#     Node 26, Type 0, BuildingBlock: UXUYUI_clean_sbu_0, # of connection points: 4
#     Node 27, Type 0, BuildingBlock: UXUYUI_clean_sbu_0, # of connection points: 4
#     Node 28, Type 0, BuildingBlock: UXUYUI_clean_sbu_0, # of connection points: 4
#     Node 29, Type 0, BuildingBlock: UXUYUI_clean_sbu_0, # of connection points: 4
#     Node 30, Type 0, BuildingBlock: UXUYUI_clean_sbu_0, # of connection points: 4
#     Node 31, Type 0, BuildingBlock: UXUYUI_clean_sbu_0, # of connection points: 4
#     Edge 32, Type (0, 0), None
#     Edge 33, Type (0, 0), None
#     Edge 34, Type (0, 0), None
#     Edge 35, Type (0, 0), None
#     Edge 36, Type (0, 0), None
#     Edge 37, Type (0, 0), None
#     Edge 38, Type (0, 0), None
#     Edge 39, Type (0, 0), None
#     Edge 40, Type (0, 0), None
#     Edge 41, Type (0, 0), None
#     Edge 42, Type (0, 0), None
#     Edge 43, Type (0, 0), None
#     Edge 44, Type (0, 0), None
#     Edge 45, Type (0, 0), None
#     Edge 46, Type (0, 0), None
#     Edge 47, Type (0, 0), None
#     Edge 48, Type (0, 0), None
#     Edge 49, Type (0, 0), None
#     Edge 50, Type (0, 0), None
#     Edge 51, Type (0, 0), None
#     Edge 52, Type (0, 0), None
#     Edge 53, Type (0, 0), None
#     Edge 54, Type (0, 0), None
#     Edge 55, Type (0, 0), None
#     Edge 56, Type (0, 0), None
#     Edge 57, Type (0, 0), None
#     Edge 58, Type (0, 0), None
#     Edge 59, Type (0, 0), None
#     Edge 60, Type (0, 0), None
#     Edge 61, Type (0, 0), None
#     Edge 62, Type (0, 0), None
#     Edge 63, Type (0, 0), None
#     Edge 64, Type (0, 0), None
#     Edge 65, Type (0, 0), None
#     Edge 66, Type (0, 0), None
#     Edge 67, Type (0, 0), None
#     Edge 68, Type (0, 0), None
#     Edge 69, Type (0, 0), None
#     Edge 70, Type (0, 0), None
#     Edge 71, Type (0, 0), None
#     Edge 72, Type (0, 0), None
#     Edge 73, Type (0, 0), None
#     Edge 74, Type (0, 0), None
#     Edge 75, Type (0, 0), None
#     Edge 76, Type (0, 0), None
#     Edge 77, Type (0, 0), None
#     Edge 78, Type (0, 0), None
#     Edge 79, Type (0, 0), None
#     Edge 80, Type (0, 0), None
#     Edge 81, Type (0, 0), None
#     Edge 82, Type (0, 0), None
#     Edge 83, Type (0, 0), None
#     Edge 84, Type (0, 0), None
#     Edge 85, Type (0, 0), None
#     Edge 86, Type (0, 0), None
#     Edge 87, Type (0, 0), None
#     Edge 88, Type (0, 0), None
#     Edge 89, Type (0, 0), None
#     Edge 90, Type (0, 0), None
#     Edge 91, Type (0, 0), None
#     Edge 92, Type (0, 0), None
#     Edge 93, Type (0, 0), None
#     Edge 94, Type (0, 0), None
#     Edge 95, Type (0, 0), None
# Relax obj value: 0.100
# Max RMSD: 0.121
# Mean RMSD: 0.120
data_MOF--net-ukc--node1-UXUYUI_clean_sbu_0--edge1-none
_symmetry_space_group_name_H-M    P1
_symmetry_Int_Tables_number       1
_symmetry_cell_setting            triclinic
loop_
_symmetry_equiv_pos_as_xyz
'x, y, z'
_cell_length_a     41.933943
_cell_length_b     41.934074
_cell_length_c     76.12153
_cell_angle_alpha  90.000033
_cell_angle_beta   89.999994
_cell_angle_gamma 89.999967
loop_
_atom_site_label
_atom_site_type_symbol
_atom_site_fract_x
_atom_site_fract_y
_atom_site_fract_z
_atom_type_partial_charge
Li0 Li 0.13826 0.3905 0.03527 0.0
Li1 Li 0.11049 0.39586 0.06366 0.0
Li2 Li 0.08687 0.36137 0.03953 0.0
Li3 Li 0.08546 0.41958 0.03735 0.0
C4 C 0.14695 0.33104 0.05469 0.0
N5 N 0.18572 0.27844 0.05945 0.0
C6 C 0.16864 0.33015 0.06863 0.0
C7 C 0.14456 0.30489 0.04338 0.0
C8 C 0.18817 0.30344 0.07075 0.0
C9 C 0.16447 0.2786 0.04595 0.0
C10 C 0.14004 0.45344 0.0589 0.0
C11 C 0.1332 0.49573 0.08002 0.0
N12 N 0.16542 0.49913 0.08098 0.0
C13 C 0.17306 0.45752 0.05996 0.0
C14 C 0.11991 0.47284 0.06888 0.0
C15 C 0.18543 0.4807 0.07125 0.0
C16 C 0.18535 0.39863 1.00841 0.0
N17 N 0.18032 0.38976 0.02537 0.0
C18 C 0.23624 0.38112 0.02956 0.0
C19 C 0.20503 0.38145 0.03598 0.0
C20 C 0.2423 0.38991 0.01205 0.0
C21 C 0.21625 0.39884 1.00145 0.0
H22 H 0.16541 0.40585 1.00033 0.0
H23 H 0.2006 0.3755 0.04955 0.0
C24 C 0.09455 0.38274 0.09871 0.0
N25 N 0.11763 0.39597 0.08851 0.0
C26 C 0.09992 0.37755 0.11661 0.0
C27 C 0.15245 0.40043 0.11332 0.0
C28 C 0.14619 0.40485 0.09544 0.0
C29 C 0.12935 0.38609 0.12409 0.0
H30 H 0.07231 0.37523 0.09282 0.0
H31 H 0.1647 0.41404 0.08699 0.0
C32 C 0.10059 0.3721 1.00368 0.0
N33 N 0.10121 0.33908 0.97228 0.0
C34 C 0.07898 0.37995 0.99039 0.0
C35 C 0.12275 0.34774 1.00093 0.0
C36 C 0.07959 0.36289 0.97463 0.0
C37 C 0.12263 0.33126 0.98499 0.0
C38 C 0.03613 0.40362 0.05918 0.0
C39 C 0.00945 0.39102 0.05064 0.0
C40 C 0.03226 0.42804 0.07148 0.0
C41 C 0.97933 0.40363 0.05427 0.0
C42 C 1.00173 0.43999 0.07475 0.0
N43 N 0.97613 0.42767 0.06613 0.0
C44 C 0.06015 0.30422 0.05034 0.0
C45 C 0.04444 0.3185 0.02148 0.0
C46 C 0.0395 0.27814 0.05018 0.0
N47 N 0.0621 0.32385 0.03618 0.0
C48 C 0.0236 0.29249 0.0207 0.0
C49 C 0.02057 0.27223 0.03531 0.0
H50 H 0.07409 0.30939 0.06196 0.0
H51 H 0.04557 0.33497 0.01062 0.0
C52 C 0.06675 0.48405 0.02886 0.0
N53 N 0.05897 0.45265 0.02776 0.0
C54 C 0.04691 0.50722 0.02133 0.0
C55 C 0.01146 0.46531 0.01175 0.0
C56 C 0.03215 0.44302 0.01925 0.0
C57 C 0.01865 0.49804 0.01265 0.0
H58 H 0.08852 0.49114 0.03538 0.0
H59 H 0.02681 0.41787 0.01824 0.0
O60 O 0.12736 0.35686 0.05256 0.0
O61 O 0.12752 0.43075 0.04801 0.0
O62 O 0.10018 0.38851 0.01921 0.0
O63 O 0.06583 0.39173 0.05571 0.0
H64 H 0.17057 0.35 0.07763 0.0
H65 H 0.12729 0.3047 0.03283 0.0
H66 H 0.20524 0.30257 0.08139 0.0
H67 H 0.16293 0.25825 0.03725 0.0
H68 H 0.11791 0.51083 0.08788 0.0
H69 H 0.18896 0.44284 0.05223 0.0
H70 H 0.09432 0.47027 0.068 0.0
H71 H 0.21095 0.48401 0.07229 0.0
H72 H 0.25535 0.37384 0.03823 0.0
H73 H 0.21967 0.40646 0.988 0.0
H74 H 0.08135 0.36668 0.12448 0.0
H75 H 0.17559 0.40697 0.11851 0.0
H76 H 0.06181 0.39891 0.99226 0.0
H77 H 0.14007 0.34185 0.01091 0.0
H78 H 0.06289 0.36858 0.96426 0.0
H79 H 0.13964 0.31232 0.98269 0.0
H80 H 0.01203 0.37192 0.04119 0.0
H81 H 0.05258 0.43754 0.07848 0.0
H82 H 0.95849 0.3943 0.04764 0.0
H83 H 0.99839 0.45899 0.08418 0.0
H84 H 0.03817 0.26291 0.06165 0.0
H85 H 0.00915 0.28898 0.00907 0.0
H86 H 0.05399 0.532 0.02209 0.0
H87 H 0.98991 0.45686 1.00547 0.0
Li88 Li 0.87732 0.88826 0.28527 0.0
Li89 Li 0.87195 0.86049 0.31366 0.0
Li90 Li 0.90644 0.83687 0.28953 0.0
Li91 Li 0.84824 0.83546 0.28735 0.0
C92 C 0.93678 0.89695 0.30469 0.0
N93 N 0.98938 0.93572 0.30945 0.0
C94 C 0.93766 0.91864 0.31863 0.0
C95 C 0.96292 0.89456 0.29338 0.0
C96 C 0.96437 0.93817 0.32075 0.0
C97 C 0.98922 0.91447 0.29595 0.0
C98 C 0.81438 0.89004 0.3089 0.0
C99 C 0.77208 0.88321 0.33002 0.0
N100 N 0.76868 0.91542 0.33098 0.0
C101 C 0.8103 0.92306 0.30996 0.0
C102 C 0.79497 0.86991 0.31888 0.0
C103 C 0.78712 0.93544 0.32125 0.0
C104 C 0.86918 0.93535 0.25841 0.0
N105 N 0.87805 0.93032 0.27537 0.0
C106 C 0.88669 0.98624 0.27956 0.0
C107 C 0.88636 0.95503 0.28598 0.0
C108 C 0.8779 0.9923 0.26205 0.0
C109 C 0.86898 0.96625 0.25145 0.0
H110 H 0.86196 0.91541 0.25033 0.0
H111 H 0.89232 0.9506 0.29955 0.0
C112 C 0.88507 0.84455 0.34871 0.0
N113 N 0.87184 0.86763 0.33851 0.0
C114 C 0.89027 0.84992 0.36661 0.0
C115 C 0.86738 0.90245 0.36332 0.0
C116 C 0.86296 0.89619 0.34544 0.0
C117 C 0.88172 0.87935 0.37409 0.0
H118 H 0.89258 0.82231 0.34282 0.0
H119 H 0.85377 0.9147 0.33699 0.0
C120 C 0.89571 0.85059 0.25368 0.0
N121 N 0.92874 0.85121 0.22228 0.0
C122 C 0.88786 0.82898 0.24039 0.0
C123 C 0.92007 0.87275 0.25093 0.0
C124 C 0.90493 0.8296 0.22463 0.0
C125 C 0.93656 0.87264 0.23499 0.0
C126 C 0.8642 0.78613 0.30918 0.0
C127 C 0.87679 0.75945 0.30064 0.0
C128 C 0.83977 0.78226 0.32148 0.0
C129 C 0.86418 0.72933 0.30426 0.0
C130 C 0.82782 0.75173 0.32475 0.0
N131 N 0.84014 0.72613 0.31613 0.0
C132 C 0.96359 0.81015 0.30034 0.0
C133 C 0.94932 0.79444 0.27148 0.0
C134 C 0.98967 0.7895 0.30018 0.0
N135 N 0.94397 0.8121 0.28618 0.0
C136 C 0.97532 0.7736 0.2707 0.0
C137 C 0.99558 0.77057 0.28531 0.0
H138 H 0.95842 0.82408 0.31196 0.0
H139 H 0.93285 0.79557 0.26062 0.0
C140 C 0.78376 0.81675 0.27886 0.0
N141 N 0.81516 0.80897 0.27776 0.0
C142 C 0.7606 0.7969 0.27133 0.0
C143 C 0.8025 0.76146 0.26175 0.0
C144 C 0.82479 0.78215 0.26925 0.0
C145 C 0.76978 0.76865 0.26265 0.0
H146 H 0.77668 0.83852 0.28538 0.0
H147 H 0.84994 0.77682 0.26824 0.0
O148 O 0.91095 0.87736 0.30256 0.0
O149 O 0.83706 0.87752 0.29801 0.0
O150 O 0.87931 0.85018 0.26921 0.0
O151 O 0.87608 0.81583 0.30571 0.0
H152 H 0.91781 0.92057 0.32763 0.0
H153 H 0.96312 0.87729 0.28284 0.0
H154 H 0.96525 0.95524 0.33139 0.0
H155 H 0.00957 0.91293 0.28726 0.0
H156 H 0.75698 0.86791 0.33788 0.0
H157 H 0.82497 0.93896 0.30223 0.0
H158 H 0.79754 0.84432 0.318 0.0
H159 H 0.78381 0.96095 0.32229 0.0
H160 H 0.89398 1.00535 0.28823 0.0
H161 H 0.86135 0.96967 0.238 0.0
H162 H 0.90114 0.83135 0.37448 0.0
H163 H 0.86084 0.92559 0.36851 0.0
H164 H 0.8689 0.81181 0.24225 0.0
H165 H 0.92597 0.89007 0.26092 0.0
H166 H 0.89923 0.8129 0.21426 0.0
H167 H 0.9555 0.88965 0.2327 0.0
H168 H 0.89589 0.76203 0.29119 0.0
H169 H 0.83027 0.80258 0.32848 0.0
H170 H 0.87351 0.7085 0.29764 0.0
H171 H 0.80882 0.74839 0.33418 0.0
H172 H 1.0049 0.78816 0.31165 0.0
H173 H 0.97883 0.75916 0.25907 0.0
H174 H 0.73582 0.80399 0.2721 0.0
H175 H 0.81095 0.73991 0.25546 0.0
Li176 Li 0.37955 0.62732 0.53527 0.0
Li177 Li 0.40732 0.62195 0.56366 0.0
Li178 Li 0.43094 0.65644 0.53953 0.0
Li179 Li 0.43235 0.59823 0.53735 0.0
C180 C 0.37086 0.68677 0.55469 0.0
N181 N 0.33209 0.73937 0.55945 0.0
C182 C 0.34917 0.68766 0.56863 0.0
C183 C 0.37325 0.71292 0.54338 0.0
C184 C 0.32964 0.71437 0.57075 0.0
C185 C 0.35334 0.73921 0.54595 0.0
C186 C 0.37778 0.56437 0.5589 0.0
C187 C 0.38461 0.52208 0.58002 0.0
N188 N 0.3524 0.51868 0.58098 0.0
C189 C 0.34475 0.5603 0.55996 0.0
C190 C 0.3979 0.54497 0.56888 0.0
C191 C 0.33238 0.53712 0.57125 0.0
C192 C 0.33246 0.61918 0.50841 0.0
N193 N 0.33749 0.62805 0.52537 0.0
C194 C 0.28158 0.63669 0.52956 0.0
C195 C 0.31278 0.63636 0.53598 0.0
C196 C 0.27552 0.6279 0.51205 0.0
C197 C 0.30157 0.61898 0.50145 0.0
H198 H 0.35241 0.61196 0.50033 0.0
H199 H 0.31721 0.64231 0.54955 0.0
C200 C 0.42327 0.63507 0.59871 0.0
N201 N 0.40019 0.62184 0.58851 0.0
C202 C 0.41789 0.64026 0.61661 0.0
C203 C 0.36536 0.61738 0.61332 0.0
C204 C 0.37162 0.61296 0.59544 0.0
C205 C 0.38847 0.63172 0.62409 0.0
H206 H 0.4455 0.64258 0.59282 0.0
H207 H 0.35312 0.60377 0.58699 0.0
C208 C 0.41723 0.64571 0.50368 0.0
N209 N 0.41661 0.67873 0.47228 0.0
C210 C 0.43884 0.63786 0.49039 0.0
C211 C 0.39506 0.67007 0.50093 0.0
C212 C 0.43822 0.65492 0.47463 0.0
C213 C 0.39518 0.68655 0.48499 0.0
C214 C 0.48169 0.6142 0.55918 0.0
C215 C 0.50836 0.62679 0.55064 0.0
C216 C 0.48555 0.58977 0.57148 0.0
C217 C 0.53849 0.61418 0.55427 0.0
C218 C 0.51608 0.57783 0.57475 0.0
N219 N 0.54169 0.59014 0.56613 0.0
C220 C 0.45766 0.71359 0.55034 0.0
C221 C 0.47338 0.69931 0.52149 0.0
C222 C 0.47831 0.73967 0.55018 0.0
N223 N 0.45572 0.69397 0.53618 0.0
C224 C 0.49422 0.72532 0.5207 0.0
C225 C 0.49724 0.74558 0.53531 0.0
H226 H 0.44373 0.70842 0.56196 0.0
H227 H 0.47225 0.68284 0.51062 0.0
C228 C 0.45107 0.53376 0.52886 0.0
N229 N 0.45884 0.56516 0.52776 0.0
C230 C 0.47091 0.5106 0.52133 0.0
C231 C 0.50635 0.5525 0.51175 0.0
C232 C 0.48567 0.57479 0.51925 0.0
C233 C 0.49917 0.51978 0.51265 0.0
H234 H 0.42929 0.52668 0.53538 0.0
H235 H 0.491 0.59994 0.51824 0.0
O236 O 0.39045 0.66095 0.55256 0.0
O237 O 0.39029 0.58706 0.54801 0.0
O238 O 0.41763 0.6293 0.51921 0.0
O239 O 0.45199 0.62608 0.55571 0.0
H240 H 0.34724 0.66781 0.57763 0.0
H241 H 0.39052 0.71312 0.53283 0.0
H242 H 0.31258 0.71524 0.58139 0.0
H243 H 0.35488 0.75956 0.53725 0.0
H244 H 0.3999 0.50698 0.58788 0.0
H245 H 0.32885 0.57497 0.55223 0.0
H246 H 0.4235 0.54754 0.568 0.0
H247 H 0.30687 0.5338 0.57229 0.0
H248 H 0.26247 0.64398 0.53823 0.0
H249 H 0.29814 0.61135 0.488 0.0
H250 H 0.43647 0.65113 0.62448 0.0
H251 H 0.34222 0.61084 0.61851 0.0
H252 H 0.45601 0.6189 0.49226 0.0
H253 H 0.37774 0.67597 0.51091 0.0
H254 H 0.45492 0.64923 0.46426 0.0
H255 H 0.37817 0.70549 0.48269 0.0
H256 H 0.50579 0.64589 0.54119 0.0
H257 H 0.46523 0.58027 0.57848 0.0
H258 H 0.55932 0.62351 0.54764 0.0
H259 H 0.51942 0.55882 0.58418 0.0
H260 H 0.47964 0.75491 0.56165 0.0
H261 H 0.50866 0.72883 0.50907 0.0
H262 H 0.46383 0.48582 0.52209 0.0
H263 H 0.52791 0.56095 0.50547 0.0
Li264 Li 0.66958 0.18235 0.78735 0.0
Li265 Li 0.61138 0.18094 0.78953 0.0
Li266 Li 0.64587 0.15732 0.81366 0.0
Li267 Li 0.6405 0.12955 0.78527 0.0
C268 C 0.65362 0.23168 0.80918 0.0
N269 N 0.67768 0.29169 0.81612 0.0
C270 C 0.64102 0.25836 0.80064 0.0
C271 C 0.67804 0.23555 0.82147 0.0
C272 C 0.65363 0.28849 0.80426 0.0
C273 C 0.68999 0.26608 0.82475 0.0
C274 C 0.6221 0.16722 0.75368 0.0
C275 C 0.58126 0.14518 0.73499 0.0
N276 N 0.58908 0.1666 0.72228 0.0
C277 C 0.62995 0.18883 0.74039 0.0
C278 C 0.59774 0.14506 0.75093 0.0
C279 C 0.61289 0.18821 0.72463 0.0
C280 C 0.73406 0.20107 0.77886 0.0
N281 N 0.70265 0.20884 0.77776 0.0
C282 C 0.71532 0.25635 0.76175 0.0
C283 C 0.69303 0.23566 0.76925 0.0
C284 C 0.74804 0.24917 0.76265 0.0
C285 C 0.75722 0.22091 0.77133 0.0
H286 H 0.74114 0.17929 0.78538 0.0
H287 H 0.66787 0.241 0.76824 0.0
C288 C 0.55422 0.20766 0.80034 0.0
N289 N 0.57385 0.20572 0.78618 0.0
C290 C 0.52814 0.22831 0.80018 0.0
C291 C 0.54249 0.24421 0.7707 0.0
C292 C 0.5685 0.22338 0.77148 0.0
C293 C 0.52223 0.24724 0.78531 0.0
H294 H 0.5594 0.19373 0.81196 0.0
H295 H 0.58497 0.22224 0.76062 0.0
C296 C 0.70344 0.12777 0.8089 0.0
N297 N 0.74913 0.10239 0.83098 0.0
C298 C 0.70752 0.09475 0.80996 0.0
C299 C 0.72284 0.1479 0.81888 0.0
C300 C 0.73069 0.08238 0.82125 0.0
C301 C 0.74573 0.13461 0.83002 0.0
C302 C 0.58104 0.12086 0.80469 0.0
C303 C 0.58016 0.09917 0.81863 0.0
C304 C 0.55489 0.12325 0.79338 0.0
C305 C 0.55344 0.07965 0.82075 0.0
C306 C 0.52859 0.10334 0.79595 0.0
N307 N 0.52844 0.0821 0.80945 0.0
C308 C 0.63274 0.17327 0.84871 0.0
C309 C 0.65485 0.12162 0.84544 0.0
C310 C 0.62755 0.16789 0.86661 0.0
N311 N 0.64597 0.15019 0.83851 0.0
C312 C 0.65044 0.11536 0.86332 0.0
C313 C 0.63609 0.13847 0.87409 0.0
H314 H 0.62523 0.1955 0.84282 0.0
H315 H 0.66404 0.10312 0.83698 0.0
C316 C 0.64863 0.08246 0.75841 0.0
N317 N 0.63976 0.08749 0.77537 0.0
C318 C 0.64884 0.05157 0.75145 0.0
C319 C 0.63112 0.03158 0.77956 0.0
C320 C 0.63145 0.06278 0.78598 0.0
C321 C 0.63991 0.02551 0.76205 0.0
H322 H 0.65586 0.10241 0.75033 0.0
H323 H 0.6255 0.06721 0.79955 0.0
O324 O 0.64174 0.20199 0.80571 0.0
O325 O 0.63851 0.16763 0.76921 0.0
O326 O 0.68075 0.14029 0.798 0.0
O327 O 0.60686 0.14045 0.80256 0.0
H328 H 0.62192 0.25579 0.79119 0.0
H329 H 0.68755 0.21524 0.82848 0.0
H330 H 0.64431 0.30932 0.79764 0.0
H331 H 0.709 0.26942 0.83418 0.0
H332 H 0.56232 0.12816 0.7327 0.0
H333 H 0.64891 0.206 0.74225 0.0
H334 H 0.59184 0.12774 0.76092 0.0
H335 H 0.61858 0.20491 0.71426 0.0
H336 H 0.70686 0.2779 0.75546 0.0
H337 H 0.782 0.21382 0.7721 0.0
H338 H 0.51291 0.22965 0.81165 0.0
H339 H 0.53898 0.25866 0.75907 0.0
H340 H 0.69284 0.07885 0.80223 0.0
H341 H 0.72027 0.17349 0.818 0.0
H342 H 0.73401 0.05686 0.82229 0.0
H343 H 0.76083 0.1499 0.83788 0.0
H344 H 0.6 0.09724 0.82763 0.0
H345 H 0.55469 0.14052 0.78284 0.0
H346 H 0.55257 0.06258 0.83139 0.0
H347 H 0.50824 0.10489 0.78726 0.0
H348 H 0.61668 0.18646 0.87448 0.0
H349 H 0.65697 0.09222 0.86851 0.0
H350 H 0.65646 0.04814 0.738 0.0
H351 H 0.62383 0.01247 0.78823 0.0
Li352 Li 0.08546 0.59823 0.47966 0.0
Li353 Li 0.08687 0.65644 0.47748 0.0
Li354 Li 0.11049 0.62195 0.45335 0.0
Li355 Li 0.13826 0.62732 0.48173 0.0
C356 C 0.03613 0.6142 0.45782 0.0
N357 N 0.97613 0.59014 0.45087 0.0
C358 C 0.00945 0.62679 0.46636 0.0
C359 C 0.03226 0.58978 0.44553 0.0
C360 C 0.97933 0.61418 0.46274 0.0
C361 C 1.00173 0.57783 0.44225 0.0
C362 C 0.10059 0.64571 0.51332 0.0
C363 C 0.12263 0.68655 0.53202 0.0
N364 N 0.1012 0.67873 0.54473 0.0
C365 C 0.07897 0.63786 0.52662 0.0
C366 C 0.12275 0.67007 0.51608 0.0
C367 C 0.07959 0.65492 0.54238 0.0
C368 C 0.06675 0.53376 0.48815 0.0
N369 N 0.05897 0.56516 0.48925 0.0
C370 C 0.01146 0.5525 0.50525 0.0
C371 C 0.03215 0.57479 0.49776 0.0
C372 C 0.01864 0.51978 0.50435 0.0
C373 C 0.0469 0.5106 0.49567 0.0
H374 H 0.08852 0.52668 0.48162 0.0
H375 H 0.02681 0.59994 0.49876 0.0
C376 C 0.06016 0.71359 0.46666 0.0
N377 N 0.0621 0.69397 0.48082 0.0
C378 C 0.03951 0.73967 0.46682 0.0
C379 C 0.0236 0.72532 0.4963 0.0
C380 C 0.04443 0.69931 0.49552 0.0
C381 C 0.02057 0.74558 0.4817 0.0
H382 H 0.07409 0.70842 0.45505 0.0
H383 H 0.04557 0.68284 0.50639 0.0
C384 C 0.14004 0.56437 0.45811 0.0
N385 N 0.16542 0.51868 0.43603 0.0
C386 C 0.17306 0.5603 0.45704 0.0
C387 C 0.11991 0.54497 0.44813 0.0
C388 C 0.18543 0.53712 0.44575 0.0
C389 C 0.1332 0.52208 0.43699 0.0
C390 C 0.14695 0.68677 0.46231 0.0
C391 C 0.16864 0.68766 0.44838 0.0
C392 C 0.14456 0.71292 0.47363 0.0
C393 C 0.18817 0.71437 0.44626 0.0
C394 C 0.16448 0.73921 0.47106 0.0
N395 N 0.18572 0.73937 0.45756 0.0
C396 C 0.09455 0.63507 0.41829 0.0
C397 C 0.14619 0.61296 0.42157 0.0
C398 C 0.09992 0.64026 0.4004 0.0
N399 N 0.11763 0.62184 0.4285 0.0
C400 C 0.15245 0.61738 0.40368 0.0
C401 C 0.12935 0.63172 0.39291 0.0
H402 H 0.07231 0.64258 0.42419 0.0
H403 H 0.1647 0.60377 0.43002 0.0
C404 C 0.18535 0.61918 0.50859 0.0
N405 N 0.18032 0.62805 0.49164 0.0
C406 C 0.21625 0.61898 0.51555 0.0
C407 C 0.23624 0.63669 0.48745 0.0
C408 C 0.20503 0.63636 0.48103 0.0
C409 C 0.2423 0.6279 0.50496 0.0
H410 H 0.16541 0.61196 0.51667 0.0
H411 H 0.2006 0.64231 0.46746 0.0
O412 O 0.06583 0.62608 0.46129 0.0
O413 O 0.10018 0.6293 0.49779 0.0
O414 O 0.12752 0.58706 0.469 0.0
O415 O 0.12737 0.66095 0.46444 0.0
H416 H 0.01202 0.64589 0.47582 0.0
H417 H 0.05258 0.58027 0.43853 0.0
H418 H 0.95849 0.62351 0.46936 0.0
H419 H 0.99839 0.55882 0.43282 0.0
H420 H 0.13964 0.70549 0.53432 0.0
H421 H 0.06181 0.6189 0.52475 0.0
H422 H 0.14007 0.67596 0.50609 0.0
H423 H 0.06289 0.64923 0.55275 0.0
H424 H 0.98991 0.56095 0.51154 0.0
H425 H 0.05399 0.48582 0.49491 0.0
H426 H 0.03817 0.75491 0.45536 0.0
H427 H 0.00915 0.72883 0.50794 0.0
H428 H 0.18896 0.57497 0.46478 0.0
H429 H 0.09431 0.54754 0.449 0.0
H430 H 0.21095 0.5338 0.44472 0.0
H431 H 0.11791 0.50698 0.42913 0.0
H432 H 0.17057 0.66781 0.43937 0.0
H433 H 0.1273 0.71312 0.48417 0.0
H434 H 0.20524 0.71524 0.43562 0.0
H435 H 0.16293 0.75956 0.47975 0.0
H436 H 0.08135 0.65113 0.39253 0.0
H437 H 0.17559 0.61084 0.39849 0.0
H438 H 0.21967 0.61135 0.52901 0.0
H439 H 0.25535 0.64398 0.47877 0.0
Li440 Li 0.64587 0.86049 0.70335 0.0
Li441 Li 0.6405 0.88826 0.73173 0.0
Li442 Li 0.66958 0.83546 0.72966 0.0
Li443 Li 0.61138 0.83687 0.72748 0.0
C444 C 0.70344 0.89004 0.70811 0.0
N445 N 0.74913 0.91542 0.68603 0.0
C446 C 0.70752 0.92306 0.70704 0.0
C447 C 0.72284 0.86991 0.69813 0.0
C448 C 0.73069 0.93544 0.69575 0.0
C449 C 0.74573 0.88321 0.68699 0.0
C450 C 0.58104 0.89695 0.71231 0.0
C451 C 0.52859 0.91447 0.72106 0.0
N452 N 0.52844 0.93572 0.70756 0.0
C453 C 0.58016 0.91864 0.69838 0.0
C454 C 0.55489 0.89456 0.72363 0.0
C455 C 0.55344 0.93817 0.69626 0.0
C456 C 0.63274 0.84455 0.66829 0.0
N457 N 0.64598 0.86762 0.6785 0.0
C458 C 0.65044 0.90245 0.65368 0.0
C459 C 0.65486 0.89619 0.67157 0.0
C460 C 0.63609 0.87935 0.64291 0.0
C461 C 0.62755 0.84992 0.6504 0.0
H462 H 0.62523 0.82231 0.67419 0.0
H463 H 0.66404 0.91469 0.68002 0.0
C464 C 0.64863 0.93535 0.75859 0.0
N465 N 0.63976 0.93032 0.74164 0.0
C466 C 0.64884 0.96625 0.76555 0.0
C467 C 0.63112 0.98623 0.73745 0.0
C468 C 0.63145 0.95503 0.73103 0.0
C469 C 0.63991 0.9923 0.75496 0.0
H470 H 0.65586 0.91541 0.76667 0.0
H471 H 0.6255 0.9506 0.71746 0.0
C472 C 0.65362 0.78613 0.70783 0.0
N473 N 0.67768 0.72613 0.70088 0.0
C474 C 0.64102 0.75945 0.71637 0.0
C475 C 0.67804 0.78226 0.69553 0.0
C476 C 0.65363 0.72933 0.71275 0.0
C477 C 0.68999 0.75173 0.69226 0.0
C478 C 0.62211 0.85059 0.76332 0.0
C479 C 0.62995 0.82898 0.77662 0.0
C480 C 0.59774 0.87275 0.76607 0.0
C481 C 0.61289 0.8296 0.79238 0.0
C482 C 0.58126 0.87264 0.78202 0.0
N483 N 0.58908 0.85122 0.79472 0.0
C484 C 0.73406 0.81675 0.73815 0.0
C485 C 0.69303 0.78215 0.74776 0.0
C486 C 0.75722 0.7969 0.74567 0.0
N487 N 0.70265 0.80898 0.73925 0.0
C488 C 0.71532 0.76146 0.75526 0.0
C489 C 0.74804 0.76865 0.75435 0.0
H490 H 0.74114 0.83852 0.73162 0.0
H491 H 0.66788 0.77682 0.74877 0.0
C492 C 0.55423 0.81015 0.71666 0.0
N493 N 0.57385 0.8121 0.73082 0.0
C494 C 0.52814 0.7895 0.71682 0.0
C495 C 0.54249 0.7736 0.7463 0.0
C496 C 0.5685 0.79444 0.74552 0.0
C497 C 0.52223 0.77057 0.7317 0.0
H498 H 0.5594 0.82408 0.70504 0.0
H499 H 0.58497 0.79557 0.75639 0.0
O500 O 0.68075 0.87752 0.719 0.0
O501 O 0.60686 0.87736 0.71444 0.0
O502 O 0.64174 0.81583 0.71129 0.0
O503 O 0.63851 0.85018 0.74779 0.0
H504 H 0.69284 0.93896 0.71478 0.0
H505 H 0.72027 0.84432 0.699 0.0
H506 H 0.73401 0.96095 0.69472 0.0
H507 H 0.76083 0.86791 0.67913 0.0
H508 H 0.50824 0.91292 0.72975 0.0
H509 H 0.6 0.92057 0.68937 0.0
H510 H 0.55469 0.87729 0.73417 0.0
H511 H 0.55257 0.95523 0.68561 0.0
H512 H 0.65697 0.92559 0.64849 0.0
H513 H 0.61668 0.83135 0.64253 0.0
H514 H 0.65646 0.96967 0.77901 0.0
H515 H 0.62383 1.00534 0.72877 0.0
H516 H 0.62193 0.76203 0.72582 0.0
H517 H 0.68755 0.80258 0.68853 0.0
H518 H 0.64431 0.7085 0.71937 0.0
H519 H 0.709 0.74839 0.68283 0.0
H520 H 0.64891 0.81181 0.77475 0.0
H521 H 0.59185 0.89007 0.75609 0.0
H522 H 0.61858 0.81291 0.80275 0.0
H523 H 0.56232 0.88965 0.78431 0.0
H524 H 0.782 0.80399 0.74491 0.0
H525 H 0.70686 0.73991 0.76154 0.0
H526 H 0.51291 0.78816 0.70535 0.0
H527 H 0.53898 0.75916 0.75794 0.0
Li528 Li 0.43094 0.36137 0.97748 0.0
Li529 Li 0.43235 0.41958 0.97966 0.0
Li530 Li 0.37955 0.3905 0.98173 0.0
Li531 Li 0.40732 0.39586 0.95335 0.0
C532 C 0.41723 0.3721 0.01332 0.0
N533 N 0.4166 0.33908 0.04472 0.0
C534 C 0.43884 0.37995 0.02662 0.0
C535 C 0.39506 0.34774 0.01608 0.0
C536 C 0.43822 0.36289 0.04238 0.0
C537 C 0.39518 0.33126 0.03202 0.0
C538 C 0.48169 0.40362 0.95783 0.0
C539 C 0.51608 0.43999 0.94225 0.0
N540 N 0.54169 0.42767 0.95088 0.0
C541 C 0.50836 0.39102 0.96636 0.0
C542 C 0.48555 0.42804 0.94553 0.0
C543 C 0.53849 0.40363 0.96274 0.0
C544 C 0.45766 0.30422 0.96666 0.0
N545 N 0.45572 0.32385 0.98082 0.0
C546 C 0.49421 0.29249 0.9963 0.0
C547 C 0.47338 0.3185 0.99552 0.0
C548 C 0.49724 0.27223 0.9817 0.0
C549 C 0.47831 0.27814 0.96682 0.0
H550 H 0.44373 0.3094 0.95504 0.0
H551 H 0.47224 0.33497 1.00639 0.0
C552 C 0.45107 0.48405 0.98815 0.0
N553 N 0.45884 0.45265 0.98925 0.0
C554 C 0.47091 0.50722 0.99567 0.0
C555 C 0.50635 0.46531 1.00525 0.0
C556 C 0.48567 0.44302 0.99776 0.0
C557 C 0.49917 0.49804 1.00435 0.0
H558 H 0.42929 0.49114 0.98162 0.0
H559 H 0.491 0.41787 0.99877 0.0
C560 C 0.37086 0.33104 0.96231 0.0
N561 N 0.33209 0.27844 0.95756 0.0
C562 C 0.34917 0.33015 0.94838 0.0
C563 C 0.37325 0.30489 0.97363 0.0
C564 C 0.32965 0.30344 0.94626 0.0
C565 C 0.35334 0.2786 0.97106 0.0
C566 C 0.37777 0.45344 0.95811 0.0
C567 C 0.34475 0.45752 0.95704 0.0
C568 C 0.3979 0.47284 0.94813 0.0
C569 C 0.33238 0.48069 0.94575 0.0
C570 C 0.38461 0.49573 0.93699 0.0
N571 N 0.3524 0.49913 0.93603 0.0
C572 C 0.33246 0.39863 0.00859 0.0
C573 C 0.31278 0.38145 0.98103 0.0
C574 C 0.30157 0.39884 0.01555 0.0
N575 N 0.33749 0.38976 0.99164 0.0
C576 C 0.28158 0.38112 0.98745 0.0
C577 C 0.27552 0.38991 1.00496 0.0
H578 H 0.35241 0.40586 0.01667 0.0
H579 H 0.31721 0.3755 0.96746 0.0
C580 C 0.42327 0.38274 0.91829 0.0
N581 N 0.40019 0.39597 0.9285 0.0
C582 C 0.41789 0.37755 0.9004 0.0
C583 C 0.36536 0.40043 0.90368 0.0
C584 C 0.37162 0.40485 0.92157 0.0
C585 C 0.38847 0.38609 0.89291 0.0
H586 H 0.4455 0.37523 0.92419 0.0
H587 H 0.35312 0.41404 0.93002 0.0
O588 O 0.41763 0.38851 0.99779 0.0
O589 O 0.45199 0.39173 0.96129 0.0
O590 O 0.39045 0.35686 0.96444 0.0
O591 O 0.39029 0.43075 0.969 0.0
H592 H 0.456 0.39891 0.02475 0.0
H593 H 0.37774 0.34185 1.00609 0.0
H594 H 0.45492 0.36858 0.05275 0.0
H595 H 0.37817 0.31232 0.03431 0.0
H596 H 0.51942 0.45899 0.93282 0.0
H597 H 0.50579 0.37192 0.97582 0.0
H598 H 0.46524 0.43755 0.93853 0.0
H599 H 0.55932 0.3943 0.96936 0.0
H600 H 0.50866 0.28898 1.00794 0.0
H601 H 0.47965 0.26291 0.95536 0.0
H602 H 0.46383 0.532 0.99491 0.0
H603 H 0.5279 0.45686 0.01154 0.0
H604 H 0.34724 0.35 0.93937 0.0
H605 H 0.39052 0.3047 0.98417 0.0
H606 H 0.31258 0.30257 0.93561 0.0
H607 H 0.35488 0.25825 0.97975 0.0
H608 H 0.32885 0.44284 0.96478 0.0
H609 H 0.4235 0.47027 0.949 0.0
H610 H 0.30686 0.48401 0.94472 0.0
H611 H 0.3999 0.51083 0.92913 0.0
H612 H 0.29814 0.40647 0.02901 0.0
H613 H 0.26247 0.37383 0.97877 0.0
H614 H 0.43647 0.36668 0.89253 0.0
H615 H 0.34222 0.40697 0.89849 0.0
Li616 Li 0.84824 0.18235 0.22966 0.0
Li617 Li 0.90644 0.18094 0.22748 0.0
Li618 Li 0.87195 0.15732 0.20335 0.0
Li619 Li 0.87732 0.12955 0.23173 0.0
C620 C 0.8642 0.23168 0.20783 0.0
N621 N 0.84014 0.29168 0.20088 0.0
C622 C 0.87679 0.25836 0.21637 0.0
C623 C 0.83978 0.23555 0.19553 0.0
C624 C 0.86418 0.28849 0.21274 0.0
C625 C 0.82782 0.26608 0.19226 0.0
C626 C 0.89571 0.16722 0.26332 0.0
C627 C 0.93656 0.14518 0.28202 0.0
N628 N 0.92874 0.1666 0.29472 0.0
C629 C 0.88786 0.18883 0.27662 0.0
C630 C 0.92007 0.14506 0.26607 0.0
C631 C 0.90493 0.18822 0.29238 0.0
C632 C 0.78376 0.20107 0.23815 0.0
N633 N 0.81517 0.20884 0.23925 0.0
C634 C 0.8025 0.25635 0.25525 0.0
C635 C 0.82479 0.23566 0.24776 0.0
C636 C 0.76978 0.24917 0.25435 0.0
C637 C 0.7606 0.22091 0.24567 0.0
H638 H 0.77668 0.17929 0.23162 0.0
H639 H 0.84994 0.241 0.24877 0.0
C640 C 0.96359 0.20766 0.21666 0.0
N641 N 0.94397 0.20571 0.23082 0.0
C642 C 0.98967 0.22831 0.21682 0.0
C643 C 0.97532 0.24421 0.2463 0.0
C644 C 0.94932 0.22338 0.24552 0.0
C645 C 0.99558 0.24724 0.2317 0.0
H646 H 0.95842 0.19373 0.20504 0.0
H647 H 0.93285 0.22224 0.25639 0.0
C648 C 0.81438 0.12777 0.20811 0.0
N649 N 0.76868 0.10239 0.18603 0.0
C650 C 0.8103 0.09475 0.20704 0.0
C651 C 0.79497 0.1479 0.19813 0.0
C652 C 0.78712 0.08238 0.19575 0.0
C653 C 0.77208 0.13461 0.18699 0.0
C654 C 0.93678 0.12086 0.21231 0.0
C655 C 0.93766 0.09917 0.19838 0.0
C656 C 0.96292 0.12325 0.22363 0.0
C657 C 0.96437 0.07964 0.19626 0.0
C658 C 0.98922 0.10334 0.22106 0.0
N659 N 0.98938 0.08209 0.20756 0.0
C660 C 0.88507 0.17326 0.16829 0.0
C661 C 0.86296 0.12162 0.17157 0.0
C662 C 0.89027 0.16789 0.1504 0.0
N663 N 0.87184 0.15019 0.1785 0.0
C664 C 0.86738 0.11536 0.15368 0.0
C665 C 0.88172 0.13847 0.14291 0.0
H666 H 0.89258 0.1955 0.17419 0.0
H667 H 0.85377 0.10312 0.18002 0.0
C668 C 0.86918 0.08246 0.25859 0.0
N669 N 0.87805 0.08749 0.24164 0.0
C670 C 0.86898 0.05157 0.26555 0.0
C671 C 0.88669 0.03158 0.23745 0.0
C672 C 0.88636 0.06278 0.23103 0.0
C673 C 0.8779 0.02551 0.25496 0.0
H674 H 0.86196 0.10241 0.26667 0.0
H675 H 0.89232 0.06721 0.21746 0.0
O676 O 0.87608 0.20199 0.21129 0.0
O677 O 0.87931 0.16763 0.24779 0.0
O678 O 0.83706 0.14029 0.219 0.0
O679 O 0.91095 0.14045 0.21444 0.0
H680 H 0.89589 0.25579 0.22582 0.0
H681 H 0.83027 0.21523 0.18853 0.0
H682 H 0.87351 0.30932 0.21937 0.0
H683 H 0.80882 0.26942 0.18282 0.0
H684 H 0.9555 0.12817 0.28431 0.0
H685 H 0.8689 0.206 0.27475 0.0
H686 H 0.92597 0.12774 0.25609 0.0
H687 H 0.89923 0.20491 0.30275 0.0
H688 H 0.81095 0.2779 0.26154 0.0
H689 H 0.73582 0.21382 0.24491 0.0
H690 H 1.00491 0.22965 0.20536 0.0
H691 H 0.97883 0.25866 0.25794 0.0
H692 H 0.82497 0.07885 0.21478 0.0
H693 H 0.79754 0.1735 0.199 0.0
H694 H 0.78381 0.05686 0.19472 0.0
H695 H 0.75698 0.1499 0.17913 0.0
H696 H 0.91781 0.09724 0.18937 0.0
H697 H 0.96312 0.14052 0.23417 0.0
H698 H 0.96525 0.06258 0.18561 0.0
H699 H 0.00957 0.10489 0.22975 0.0
H700 H 0.90113 0.18646 0.14253 0.0
H701 H 0.86084 0.09222 0.14849 0.0
H702 H 0.86135 0.04814 0.27901 0.0
H703 H 0.89398 0.01247 0.22877 0.0
Li704 Li 0.87955 0.62845 0.98153 0.0
Li705 Li 0.93022 0.60103 0.98009 0.0
Li706 Li 0.92894 0.65863 0.9776 0.0
Li707 Li 0.90826 0.62571 0.95371 0.0
C708 C 0.90791 0.6517 0.01186 0.0
N709 N 0.89081 0.69057 0.03962 0.0
C710 C 0.916 0.64322 0.02904 0.0
C711 C 0.89106 0.67993 0.00879 0.0
C712 C 0.90715 0.66319 0.0429 0.0
C713 C 0.88267 0.69927 0.023 0.0
C714 C 0.87621 0.56341 0.97506 0.0
C715 C 0.84484 0.51538 0.9729 0.0
N716 N 0.8481 0.51082 0.9905 0.0
C717 C 0.87928 0.55825 0.99312 0.0
C718 C 0.85888 0.54183 0.96485 0.0
C719 C 0.86489 0.53153 1.00068 0.0
C720 C 0.81282 0.63739 0.98101 0.0
N721 N 0.83745 0.62846 0.99152 0.0
C722 C 0.8015 0.6192 0.01543 0.0
C723 C 0.83237 0.61935 1.00844 0.0
C724 C 0.7755 0.62847 1.00492 0.0
C725 C 0.78158 0.63766 0.98746 0.0
H726 H 0.81746 0.64427 0.96756 0.0
H727 H 0.85224 0.61196 0.01652 0.0
C728 C 0.97291 0.57502 1.00446 0.0
N729 N 0.95637 0.56767 0.98965 0.0
C730 C 0.99315 0.55261 0.01224 0.0
C731 C 0.97943 0.51546 0.98921 0.0
C732 C 0.95911 0.53851 0.982 0.0
C733 C 0.99687 0.52229 1.0046 0.0
H734 H 0.97041 0.59843 0.01025 0.0
H735 H 0.94573 0.53321 0.9702 0.0
C736 C 0.88717 0.6883 0.95298 0.0
N737 N 0.88547 0.73727 0.92871 0.0
C738 C 0.91502 0.69769 0.94431 0.0
C739 C 0.85845 0.70383 0.9493 0.0
C740 C 0.91367 0.72249 0.93209 0.0
C741 C 0.85808 0.72854 0.93699 0.0
C742 C 0.97368 0.61007 0.95334 0.0
C743 C 1.0059 0.61847 0.95276 0.0
C744 C 0.96315 0.58289 0.94443 0.0
C745 C 0.02712 0.59951 0.94322 0.0
C746 C 0.98512 0.56455 0.93504 0.0
N747 N 0.01638 0.57316 0.93464 0.0
C748 C 0.98432 0.6892 0.98836 0.0
C749 C 0.94365 0.7258 0.98071 0.0
C750 C 1.00616 0.71402 0.99059 0.0
N751 N 0.95399 0.69539 0.98311 0.0
C752 C 0.96488 0.75132 0.98238 0.0
C753 C 0.99694 0.74565 0.98703 0.0
H754 H 0.99179 0.66477 0.99037 0.0
H755 H 0.91926 0.73023 0.97683 0.0
C756 C 0.87393 0.61619 0.92182 0.0
N757 N 0.90254 0.62532 0.92861 0.0
C758 C 0.86757 0.62004 0.90387 0.0
C759 C 0.92031 0.64225 0.90023 0.0
C760 C 0.92579 0.6376 0.91814 0.0
C761 C 0.8907 0.63392 0.89292 0.0
H762 H 0.85568 0.6069 0.93047 0.0
H763 H 0.94824 0.64499 0.92382 0.0
O764 O 0.91625 0.63211 0.99823 0.0
O765 O 0.89 0.58939 0.96728 0.0
O766 O 0.88773 0.66361 0.96473 0.0
O767 O 0.95272 0.62833 0.96273 0.0
H768 H 0.92887 0.62135 0.03165 0.0
H769 H 0.8844 0.68689 0.99564 0.0
H770 H 0.91324 0.6569 0.05627 0.0
H771 H 0.86963 0.72117 0.02082 0.0
H772 H 0.83134 0.49847 0.96515 0.0
H773 H 0.89261 0.57463 1.00126 0.0
H774 H 0.8563 0.54551 0.95084 0.0
H775 H 0.86706 0.52726 0.01464 0.0
H776 H 0.79805 0.6114 0.02885 0.0
H777 H 0.76246 0.64534 0.97889 0.0
H778 H 1.00548 0.559 0.02422 0.0
H779 H 0.98174 0.49273 0.9826 0.0
H780 H 0.93746 0.68594 0.947 0.0
H781 H 0.83666 0.69684 0.95587 0.0
H782 H 0.93505 0.72995 0.92528 0.0
H783 H 0.83602 0.74076 0.93401 0.0
H784 H 0.0144 0.63944 0.95961 0.0
H785 H 0.93832 0.57594 0.94479 0.0
H786 H 0.05214 0.60572 0.94265 0.0
H787 H 0.97732 0.54343 0.9281 0.0
H788 H 0.03017 0.70827 0.99472 0.0
H789 H 0.95639 0.77502 0.97928 0.0
H790 H 0.84439 0.61343 0.89876 0.0
H791 H 0.93894 0.65265 0.89221 0.0
Li792 Li 0.16678 0.18022 0.73009 0.0
Li793 Li 0.13936 0.12955 0.73153 0.0
Li794 Li 0.1421 0.15826 0.70371 0.0
Li795 Li 0.10918 0.17893 0.7276 0.0
C796 C 0.2044 0.1262 0.72506 0.0
N797 N 0.25699 0.0981 0.7405 0.0
C798 C 0.20956 0.12928 0.74312 0.0
C799 C 0.22599 0.10887 0.71485 0.0
C800 C 0.23628 0.11488 0.75068 0.0
C801 C 0.25243 0.09483 0.7229 0.0
C802 C 0.11611 0.15791 0.76185 0.0
C803 C 0.06854 0.13267 0.773 0.0
N804 N 0.07724 0.14081 0.78961 0.0
C805 C 0.12458 0.166 0.77904 0.0
C806 C 0.08788 0.14106 0.75879 0.0
C807 C 0.10461 0.15715 0.7929 0.0
C808 C 0.1928 0.22291 0.75446 0.0
N809 N 0.20015 0.20637 0.73965 0.0
C810 C 0.25235 0.22943 0.73921 0.0
C811 C 0.22931 0.2091 0.732 0.0
C812 C 0.24552 0.24687 0.7546 0.0
C813 C 0.2152 0.24315 0.76224 0.0
H814 H 0.16938 0.22041 0.76025 0.0
H815 H 0.23461 0.19573 0.7202 0.0
C816 C 0.13042 0.06281 0.73101 0.0
N817 N 0.13935 0.08744 0.74152 0.0
C818 C 0.13015 0.03157 0.73746 0.0
C819 C 0.14861 0.0515 0.76543 0.0
C820 C 0.14846 0.08236 0.75844 0.0
C821 C 0.13934 0.0255 0.75492 0.0
H822 H 0.12354 0.06746 0.71756 0.0
H823 H 0.15585 0.10223 0.76652 0.0
C824 C 0.15775 0.22368 0.70334 0.0
N825 N 0.19466 0.26638 0.68464 0.0
C826 C 0.14934 0.2559 0.70276 0.0
C827 C 0.18493 0.21315 0.69443 0.0
C828 C 0.16831 0.27712 0.69322 0.0
C829 C 0.20327 0.23512 0.68504 0.0
C830 C 0.07951 0.13717 0.70298 0.0
C831 C 0.07013 0.16502 0.69431 0.0
C832 C 0.06399 0.10845 0.69929 0.0
C833 C 0.04533 0.16367 0.68209 0.0
C834 C 0.03928 0.10808 0.68698 0.0
N835 N 0.03055 0.13547 0.6787 0.0
C836 C 0.15163 0.12393 0.67182 0.0
C837 C 0.13021 0.17579 0.66814 0.0
C838 C 0.14777 0.11757 0.65387 0.0
N839 N 0.1425 0.15254 0.67861 0.0
C840 C 0.12557 0.17031 0.65023 0.0
C841 C 0.1339 0.1407 0.64291 0.0
H842 H 0.16091 0.10568 0.68047 0.0
H843 H 0.12283 0.19824 0.67381 0.0
C844 C 0.07861 0.23432 0.73836 0.0
N845 N 0.07242 0.20399 0.73311 0.0
C846 C 0.05379 0.25616 0.74058 0.0
C847 C 0.01649 0.21488 0.73237 0.0
C848 C 0.04202 0.19365 0.73071 0.0
C849 C 0.02216 0.24694 0.73702 0.0
H850 H 0.10304 0.24179 0.74037 0.0
H851 H 0.03758 0.16926 0.72682 0.0
O852 O 0.17843 0.14 0.71728 0.0
O853 O 0.1357 0.16624 0.74822 0.0
O854 O 0.13949 0.20271 0.71273 0.0
O855 O 0.10421 0.13773 0.71473 0.0
H856 H 0.19318 0.14261 0.75126 0.0
H857 H 0.22231 0.1063 0.70084 0.0
H858 H 0.24055 0.11705 0.76464 0.0
H859 H 0.26934 0.08134 0.71515 0.0
H860 H 0.04664 0.11963 0.77081 0.0
H861 H 0.14645 0.17887 0.78165 0.0
H862 H 0.08092 0.13439 0.74563 0.0
H863 H 0.1109 0.16324 0.80627 0.0
H864 H 0.27508 0.23174 0.7326 0.0
H865 H 0.20882 0.25548 0.77422 0.0
H866 H 0.12247 0.01245 0.72889 0.0
H867 H 0.15641 0.04805 0.77885 0.0
H868 H 0.12838 0.2644 0.70961 0.0
H869 H 0.19187 0.18832 0.69479 0.0
H870 H 0.1621 0.30214 0.69265 0.0
H871 H 0.22439 0.22732 0.6781 0.0
H872 H 0.08187 0.18746 0.697 0.0
H873 H 0.07098 0.08666 0.70586 0.0
H874 H 0.03786 0.18505 0.67528 0.0
H875 H 0.02706 0.08602 0.684 0.0
H876 H 0.15439 0.09439 0.64876 0.0
H877 H 0.11517 0.18894 0.64221 0.0
H878 H 0.05955 0.28016 0.74472 0.0
H879 H 0.99279 0.20639 0.72928 0.0
Li880 Li 0.58759 0.41678 0.48009 0.0
Li881 Li 0.63826 0.38936 0.48153 0.0
Li882 Li 0.60955 0.3921 0.45371 0.0
Li883 Li 0.58888 0.35918 0.4776 0.0
C884 C 0.64161 0.4544 0.47506 0.0
N885 N 0.66971 0.50699 0.4905 0.0
C886 C 0.63853 0.45956 0.49312 0.0
C887 C 0.65894 0.47599 0.46485 0.0
C888 C 0.65293 0.48628 0.50068 0.0
C889 C 0.67298 0.50243 0.4729 0.0
C890 C 0.6099 0.36611 0.51185 0.0
C891 C 0.63514 0.31854 0.523 0.0
N892 N 0.627 0.32724 0.53961 0.0
C893 C 0.60181 0.37459 0.52904 0.0
C894 C 0.62675 0.33788 0.50879 0.0
C895 C 0.61066 0.35462 0.5429 0.0
C896 C 0.5449 0.4428 0.50446 0.0
N897 N 0.56144 0.45015 0.48965 0.0
C898 C 0.53839 0.50235 0.48921 0.0
C899 C 0.55871 0.47931 0.482 0.0
C900 C 0.52094 0.49553 0.5046 0.0
C901 C 0.52466 0.4652 0.51224 0.0
H902 H 0.5474 0.41938 0.51025 0.0
H903 H 0.57208 0.48461 0.4702 0.0
C904 C 0.705 0.38042 0.48101 0.0
N905 N 0.68037 0.38935 0.49152 0.0
C906 C 0.73624 0.38015 0.48746 0.0
C907 C 0.71631 0.39861 0.51543 0.0
C908 C 0.68545 0.39846 0.50844 0.0
C909 C 0.74232 0.38934 0.50492 0.0
H910 H 0.70035 0.37354 0.46756 0.0
H911 H 0.66558 0.40585 0.51652 0.0
C912 C 0.54413 0.40775 0.45334 0.0
N913 N 0.50143 0.44466 0.43464 0.0
C914 C 0.51192 0.39934 0.45276 0.0
C915 C 0.55466 0.43493 0.44443 0.0
C916 C 0.49069 0.41831 0.44322 0.0
C917 C 0.53269 0.45327 0.43504 0.0
C918 C 0.63065 0.32951 0.45298 0.0
C919 C 0.60279 0.32013 0.44431 0.0
C920 C 0.65936 0.31399 0.44929 0.0
C921 C 0.60414 0.29533 0.43208 0.0
C922 C 0.65973 0.28928 0.43698 0.0
N923 N 0.63235 0.28055 0.4287 0.0
C924 C 0.64388 0.40163 0.42182 0.0
C925 C 0.59202 0.38021 0.41814 0.0
C926 C 0.65025 0.39777 0.40387 0.0
N927 N 0.61528 0.3925 0.42861 0.0
C928 C 0.59751 0.37557 0.40023 0.0
C929 C 0.62712 0.3839 0.39291 0.0
H930 H 0.66213 0.41091 0.43047 0.0
H931 H 0.56958 0.37283 0.42381 0.0
C932 C 0.53349 0.32861 0.48836 0.0
N933 N 0.56382 0.32242 0.48311 0.0
C934 C 0.51165 0.30379 0.49058 0.0
C935 C 0.55293 0.26649 0.48237 0.0
C936 C 0.57416 0.29202 0.48071 0.0
C937 C 0.52087 0.27216 0.48702 0.0
H938 H 0.52603 0.35304 0.49036 0.0
H939 H 0.59855 0.28758 0.47682 0.0
O940 O 0.62781 0.42843 0.46728 0.0
O941 O 0.60157 0.3857 0.49822 0.0
O942 O 0.5651 0.38949 0.46273 0.0
O943 O 0.63009 0.35421 0.46473 0.0
H944 H 0.6252 0.44318 0.50126 0.0
H945 H 0.66151 0.47231 0.45084 0.0
H946 H 0.65076 0.49055 0.51464 0.0
H947 H 0.68647 0.51934 0.46515 0.0
H948 H 0.64818 0.29664 0.52081 0.0
H949 H 0.58894 0.39645 0.53165 0.0
H950 H 0.63342 0.33092 0.49563 0.0
H951 H 0.60457 0.3609 0.55627 0.0
H952 H 0.53608 0.52509 0.4826 0.0
H953 H 0.51233 0.45881 0.52422 0.0
H954 H 0.75536 0.37247 0.47889 0.0
H955 H 0.71976 0.40641 0.52885 0.0
H956 H 0.50341 0.37838 0.45961 0.0
H957 H 0.57949 0.44188 0.44479 0.0
H958 H 0.46567 0.4121 0.44265 0.0
H959 H 0.5405 0.47439 0.4281 0.0
H960 H 0.58035 0.33187 0.447 0.0
H961 H 0.68115 0.32098 0.45586 0.0
H962 H 0.58276 0.28787 0.42528 0.0
H963 H 0.6818 0.27706 0.434 0.0
H964 H 0.67342 0.40439 0.39876 0.0
H965 H 0.57888 0.36517 0.39221 0.0
H966 H 0.48765 0.30954 0.49472 0.0
H967 H 0.56143 0.24279 0.47928 0.0
Li968 Li 0.35103 0.83759 0.23009 0.0
Li969 Li 0.37845 0.88826 0.23153 0.0
Li970 Li 0.37571 0.85955 0.20371 0.0
Li971 Li 0.40863 0.83888 0.2276 0.0
C972 C 0.31342 0.89161 0.22506 0.0
N973 N 0.26083 0.91971 0.2405 0.0
C974 C 0.30825 0.88853 0.24312 0.0
C975 C 0.29183 0.90894 0.21485 0.0
C976 C 0.28153 0.90293 0.25068 0.0
C977 C 0.26538 0.92298 0.2229 0.0
C978 C 0.4017 0.8599 0.26185 0.0
C979 C 0.44927 0.88514 0.273 0.0
N980 N 0.44057 0.877 0.28962 0.0
C981 C 0.39323 0.85181 0.27904 0.0
C982 C 0.42994 0.87675 0.25879 0.0
C983 C 0.4132 0.86066 0.2929 0.0
C984 C 0.32502 0.7949 0.25446 0.0
N985 N 0.31767 0.81144 0.23965 0.0
C986 C 0.26546 0.78838 0.23921 0.0
C987 C 0.28851 0.80871 0.232 0.0
C988 C 0.27229 0.77094 0.2546 0.0
C989 C 0.30261 0.77466 0.26224 0.0
H990 H 0.34844 0.7974 0.26025 0.0
H991 H 0.28321 0.82208 0.2202 0.0
C992 C 0.3874 0.955 0.23101 0.0
N993 N 0.37846 0.93037 0.24152 0.0
C994 C 0.38766 0.98624 0.23746 0.0
C995 C 0.3692 0.96631 0.26543 0.0
C996 C 0.36935 0.93545 0.25844 0.0
C997 C 0.37848 0.99232 0.25492 0.0
H998 H 0.39428 0.95035 0.21756 0.0
H999 H 0.36196 0.91558 0.26652 0.0
C1000 C 0.36007 0.79413 0.20334 0.0
N1001 N 0.32316 0.75143 0.18464 0.0
C1002 C 0.36847 0.76191 0.20276 0.0
C1003 C 0.33289 0.80466 0.19443 0.0
C1004 C 0.3495 0.74069 0.19322 0.0
C1005 C 0.31454 0.78269 0.18504 0.0
C1006 C 0.4383 0.88064 0.20298 0.0
C1007 C 0.44769 0.85279 0.19431 0.0
C1008 C 0.45382 0.90936 0.1993 0.0
C1009 C 0.47248 0.85414 0.18209 0.0
C1010 C 0.47854 0.90973 0.18699 0.0
N1011 N 0.48727 0.88234 0.1787 0.0
C1012 C 0.36619 0.89388 0.17182 0.0
C1013 C 0.3876 0.84202 0.16814 0.0
C1014 C 0.37004 0.90024 0.15387 0.0
N1015 N 0.37531 0.86527 0.17861 0.0
C1016 C 0.39225 0.84751 0.15023 0.0
C1017 C 0.38392 0.87711 0.14292 0.0
H1018 H 0.3569 0.91213 0.18047 0.0
H1019 H 0.39498 0.81957 0.17381 0.0
C1020 C 0.4392 0.78349 0.23836 0.0
N1021 N 0.44539 0.81382 0.23311 0.0
C1022 C 0.46403 0.76165 0.24059 0.0
C1023 C 0.50132 0.80293 0.23237 0.0
C1024 C 0.4758 0.82416 0.23071 0.0
C1025 C 0.49565 0.77087 0.23702 0.0
H1026 H 0.41477 0.77603 0.24037 0.0
H1027 H 0.48024 0.84855 0.22683 0.0
O1028 O 0.33939 0.87781 0.21728 0.0
O1029 O 0.38212 0.85157 0.24822 0.0
O1030 O 0.37833 0.8151 0.21273 0.0
O1031 O 0.41361 0.88008 0.21473 0.0
H1032 H 0.32463 0.8752 0.25126 0.0
H1033 H 0.29551 0.91151 0.20084 0.0
H1034 H 0.27726 0.90076 0.26464 0.0
H1035 H 0.24848 0.93647 0.21515 0.0
H1036 H 0.47118 0.89818 0.27081 0.0
H1037 H 0.37136 0.83894 0.28165 0.0
H1038 H 0.43689 0.88342 0.24563 0.0
H1039 H 0.40691 0.85457 0.30627 0.0
H1040 H 0.24273 0.78607 0.2326 0.0
H1041 H 0.309 0.76233 0.27422 0.0
H1042 H 0.39534 1.00536 0.22889 0.0
H1043 H 0.3614 0.96976 0.27885 0.0
H1044 H 0.38944 0.75341 0.20961 0.0
H1045 H 0.32594 0.82949 0.19479 0.0
H1046 H 0.35572 0.71567 0.19265 0.0
H1047 H 0.29343 0.79049 0.1781 0.0
H1048 H 0.43594 0.83035 0.197 0.0
H1049 H 0.44684 0.93115 0.20587 0.0
H1050 H 0.47995 0.83276 0.17528 0.0
H1051 H 0.49075 0.93179 0.184 0.0
H1052 H 0.36343 0.92342 0.14876 0.0
H1053 H 0.40265 0.82888 0.14221 0.0
H1054 H 0.45827 0.73765 0.24472 0.0
H1055 H 0.52502 0.81142 0.22928 0.0
Li1056 Li 0.90826 0.3921 0.56329 0.0
Li1057 Li 0.92894 0.35918 0.5394 0.0
Li1058 Li 0.93022 0.41678 0.53691 0.0
Li1059 Li 0.87955 0.38936 0.53548 0.0
C1060 C 0.97368 0.40775 0.56366 0.0
N1061 N 0.01638 0.44466 0.58237 0.0
C1062 C 1.0059 0.39934 0.56425 0.0
C1063 C 0.96315 0.43492 0.57257 0.0
C1064 C 0.02712 0.41831 0.57379 0.0
C1065 C 0.98512 0.45327 0.58196 0.0
C1066 C 0.88717 0.32951 0.56403 0.0
C1067 C 0.85809 0.28927 0.58002 0.0
N1068 N 0.88547 0.28054 0.5883 0.0
C1069 C 0.91502 0.32013 0.57269 0.0
C1070 C 0.85845 0.31399 0.56771 0.0
C1071 C 0.91368 0.29533 0.58492 0.0
C1072 C 0.87393 0.40163 0.59518 0.0
N1073 N 0.90254 0.3925 0.5884 0.0
C1074 C 0.92031 0.37556 0.61677 0.0
C1075 C 0.92579 0.38021 0.59886 0.0
C1076 C 0.8907 0.38389 0.62409 0.0
C1077 C 0.86757 0.39777 0.61313 0.0
H1078 H 0.85568 0.41091 0.58654 0.0
H1079 H 0.94824 0.37283 0.59319 0.0
C1080 C 0.98433 0.32861 0.52864 0.0
N1081 N 0.95399 0.32242 0.5339 0.0
C1082 C 1.00616 0.30379 0.52642 0.0
C1083 C 0.96488 0.26649 0.53463 0.0
C1084 C 0.94365 0.29202 0.53629 0.0
C1085 C 0.99694 0.27216 0.52998 0.0
H1086 H 0.99179 0.35304 0.52664 0.0
H1087 H 0.91927 0.28758 0.54018 0.0
C1088 C 0.8762 0.4544 0.54195 0.0
N1089 N 0.8481 0.50699 0.52651 0.0
C1090 C 0.87928 0.45956 0.52388 0.0
C1091 C 0.85887 0.47598 0.55216 0.0
C1092 C 0.86488 0.48628 0.51632 0.0
C1093 C 0.84483 0.50243 0.54411 0.0
C1094 C 0.90791 0.36611 0.50515 0.0
C1095 C 0.916 0.37459 0.48796 0.0
C1096 C 0.89106 0.33788 0.50821 0.0
C1097 C 0.90715 0.35462 0.47411 0.0
C1098 C 0.88267 0.31854 0.49401 0.0
N1099 N 0.89082 0.32724 0.47739 0.0
C1100 C 0.97291 0.4428 0.51254 0.0
C1101 C 0.95911 0.47931 0.53501 0.0
C1102 C 0.99315 0.4652 0.50477 0.0
N1103 N 0.95637 0.45015 0.52735 0.0
C1104 C 0.97943 0.50235 0.5278 0.0
C1105 C 0.99687 0.49552 0.51241 0.0
H1106 H 0.97041 0.41938 0.50676 0.0
H1107 H 0.94573 0.48461 0.5468 0.0
C1108 C 0.81282 0.38042 0.536 0.0
N1109 N 0.83745 0.38935 0.52548 0.0
C1110 C 0.78158 0.38015 0.52955 0.0
C1111 C 0.8015 0.39861 0.50157 0.0
C1112 C 0.83237 0.39846 0.50856 0.0
C1113 C 0.7755 0.38934 0.51208 0.0
H1114 H 0.81746 0.37353 0.54945 0.0
H1115 H 0.85224 0.40585 0.50048 0.0
O1116 O 0.95272 0.38949 0.55427 0.0
O1117 O 0.88773 0.35421 0.55228 0.0
O1118 O 0.89 0.42842 0.54972 0.0
O1119 O 0.91625 0.3857 0.51878 0.0
H1120 H 0.0144 0.37838 0.55739 0.0
H1121 H 0.93832 0.44187 0.57221 0.0
H1122 H 0.05214 0.4121 0.57436 0.0
H1123 H 0.97731 0.47438 0.5889 0.0
H1124 H 0.83602 0.27706 0.583 0.0
H1125 H 0.93746 0.33187 0.57001 0.0
H1126 H 0.83666 0.32097 0.56114 0.0
H1127 H 0.93505 0.28786 0.59173 0.0
H1128 H 0.93894 0.36517 0.6248 0.0
H1129 H 0.84439 0.40438 0.61824 0.0
H1130 H 0.03017 0.30955 0.52229 0.0
H1131 H 0.95639 0.24279 0.53772 0.0
H1132 H 0.89261 0.44318 0.51575 0.0
H1133 H 0.8563 0.4723 0.56617 0.0
H1134 H 0.86706 0.49055 0.50236 0.0
H1135 H 0.83134 0.51934 0.55185 0.0
H1136 H 0.92888 0.39646 0.48535 0.0
H1137 H 0.8844 0.33092 0.52137 0.0
H1138 H 0.91324 0.36091 0.46074 0.0
H1139 H 0.86963 0.29664 0.49619 0.0
H1140 H 1.00548 0.45881 0.49278 0.0
H1141 H 0.98174 0.52508 0.5344 0.0
H1142 H 0.76246 0.37247 0.53812 0.0
H1143 H 0.79805 0.40641 0.48815 0.0
Li1144 Li 0.40863 0.17894 0.2894 0.0
Li1145 Li 0.37571 0.15826 0.31329 0.0
Li1146 Li 0.37845 0.12955 0.28548 0.0
Li1147 Li 0.35103 0.18022 0.28691 0.0
C1148 C 0.4383 0.13716 0.31403 0.0
N1149 N 0.48727 0.13546 0.3383 0.0
C1150 C 0.44769 0.16501 0.32269 0.0
C1151 C 0.45382 0.10845 0.31771 0.0
C1152 C 0.47249 0.16367 0.33492 0.0
C1153 C 0.47854 0.10808 0.33002 0.0
C1154 C 0.36007 0.22368 0.31366 0.0
C1155 C 0.31455 0.23512 0.33196 0.0
N1156 N 0.32316 0.26639 0.33236 0.0
C1157 C 0.36847 0.2559 0.31424 0.0
C1158 C 0.33289 0.21315 0.32257 0.0
C1159 C 0.34951 0.27713 0.32378 0.0
C1160 C 0.4392 0.23432 0.27864 0.0
N1161 N 0.4454 0.20399 0.2839 0.0
C1162 C 0.50132 0.21488 0.28463 0.0
C1163 C 0.4758 0.19365 0.28629 0.0
C1164 C 0.49566 0.24694 0.27998 0.0
C1165 C 0.46403 0.25616 0.27642 0.0
H1166 H 0.41477 0.24178 0.27664 0.0
H1167 H 0.48024 0.16926 0.29018 0.0
C1168 C 0.36619 0.12393 0.34518 0.0
N1169 N 0.37532 0.15254 0.3384 0.0
C1170 C 0.37004 0.11757 0.36313 0.0
C1171 C 0.39225 0.1703 0.36677 0.0
C1172 C 0.3876 0.17579 0.34886 0.0
C1173 C 0.38392 0.1407 0.37409 0.0
H1174 H 0.3569 0.10568 0.33654 0.0
H1175 H 0.39499 0.19824 0.34319 0.0
C1176 C 0.4017 0.15791 0.25515 0.0
N1177 N 0.44057 0.14081 0.22739 0.0
C1178 C 0.39323 0.166 0.23796 0.0
C1179 C 0.42994 0.14106 0.25821 0.0
C1180 C 0.4132 0.15715 0.22411 0.0
C1181 C 0.44927 0.13267 0.24401 0.0
C1182 C 0.31342 0.1262 0.29195 0.0
C1183 C 0.30825 0.12928 0.27388 0.0
C1184 C 0.29183 0.10888 0.30216 0.0
C1185 C 0.28153 0.11489 0.26632 0.0
C1186 C 0.26538 0.09484 0.29411 0.0
N1187 N 0.26083 0.0981 0.27651 0.0
C1188 C 0.3874 0.06281 0.286 0.0
C1189 C 0.36935 0.08236 0.25856 0.0
C1190 C 0.38766 0.03157 0.27955 0.0
N1191 N 0.37846 0.08744 0.27548 0.0
C1192 C 0.3692 0.0515 0.25157 0.0
C1193 C 0.37848 0.0255 0.26209 0.0
H1194 H 0.39427 0.06746 0.29945 0.0
H1195 H 0.36196 0.10223 0.25048 0.0
C1196 C 0.32502 0.22291 0.26254 0.0
N1197 N 0.31767 0.20637 0.27735 0.0
C1198 C 0.30261 0.24315 0.25477 0.0
C1199 C 0.26546 0.22943 0.2778 0.0
C1200 C 0.28851 0.20911 0.28501 0.0
C1201 C 0.27229 0.24687 0.26241 0.0
H1202 H 0.34844 0.22041 0.25675 0.0
H1203 H 0.28321 0.19574 0.2968 0.0
O1204 O 0.41361 0.13773 0.30228 0.0
O1205 O 0.37833 0.20271 0.30427 0.0
O1206 O 0.38212 0.16624 0.26878 0.0
O1207 O 0.33939 0.14 0.29972 0.0
H1208 H 0.43595 0.18746 0.32001 0.0
H1209 H 0.44684 0.08666 0.31114 0.0
H1210 H 0.47995 0.18504 0.34173 0.0
H1211 H 0.49075 0.08601 0.333 0.0
H1212 H 0.29343 0.22732 0.3389 0.0
H1213 H 0.38944 0.2644 0.30739 0.0
H1214 H 0.32594 0.18832 0.32221 0.0
H1215 H 0.35572 0.30214 0.32435 0.0
H1216 H 0.52502 0.20639 0.28772 0.0
H1217 H 0.45827 0.28016 0.27229 0.0
H1218 H 0.36343 0.09439 0.36824 0.0
H1219 H 0.40265 0.18894 0.3748 0.0
H1220 H 0.37136 0.17887 0.23535 0.0
H1221 H 0.43689 0.13439 0.27137 0.0
H1222 H 0.40691 0.16324 0.21074 0.0
H1223 H 0.47118 0.11963 0.24619 0.0
H1224 H 0.32463 0.14261 0.26575 0.0
H1225 H 0.29551 0.1063 0.31616 0.0
H1226 H 0.27726 0.11706 0.25236 0.0
H1227 H 0.24847 0.08134 0.30185 0.0
H1228 H 0.39534 0.01246 0.28812 0.0
H1229 H 0.3614 0.04805 0.23815 0.0
H1230 H 0.309 0.25548 0.24278 0.0
H1231 H 0.24273 0.23174 0.28441 0.0
Li1232 Li 0.58888 0.65863 0.0394 0.0
Li1233 Li 0.60955 0.62571 0.06329 0.0
Li1234 Li 0.63826 0.62845 0.03548 0.0
Li1235 Li 0.58759 0.60103 0.03691 0.0
C1236 C 0.63065 0.6883 0.06403 0.0
N1237 N 0.63235 0.73726 0.0883 0.0
C1238 C 0.6028 0.69768 0.07269 0.0
C1239 C 0.65936 0.70382 0.06771 0.0
C1240 C 0.60414 0.72248 0.08492 0.0
C1241 C 0.65973 0.72853 0.08002 0.0
C1242 C 0.54413 0.61006 0.06366 0.0
C1243 C 0.53269 0.56454 0.08196 0.0
N1244 N 0.50143 0.57316 0.08237 0.0
C1245 C 0.51192 0.61847 0.06425 0.0
C1246 C 0.55466 0.58289 0.07258 0.0
C1247 C 0.49069 0.5995 0.07378 0.0
C1248 C 0.53349 0.6892 0.02864 0.0
N1249 N 0.56382 0.69539 0.0339 0.0
C1250 C 0.55293 0.75132 0.03463 0.0
C1251 C 0.57416 0.72579 0.03629 0.0
C1252 C 0.52087 0.74565 0.02998 0.0
C1253 C 0.51166 0.71403 0.02642 0.0
H1254 H 0.52603 0.66477 0.02664 0.0
H1255 H 0.59855 0.73023 0.04018 0.0
C1256 C 0.64388 0.61618 0.09518 0.0
N1257 N 0.61528 0.62531 0.0884 0.0
C1258 C 0.65025 0.62004 0.11313 0.0
C1259 C 0.59751 0.64225 0.11678 0.0
C1260 C 0.59202 0.6376 0.09886 0.0
C1261 C 0.62711 0.63392 0.12409 0.0
H1262 H 0.66213 0.6069 0.08654 0.0
H1263 H 0.56957 0.64498 0.09319 0.0
C1264 C 0.6099 0.6517 1.00515 0.0
N1265 N 0.627 0.69057 0.97739 0.0
C1266 C 0.60181 0.64322 0.98797 0.0
C1267 C 0.62675 0.67993 1.00822 0.0
C1268 C 0.61066 0.66319 0.97411 0.0
C1269 C 0.63515 0.69927 0.99401 0.0
C1270 C 0.64161 0.56341 0.04195 0.0
C1271 C 0.63853 0.55825 0.02388 0.0
C1272 C 0.65894 0.54182 0.05216 0.0
C1273 C 0.65293 0.53153 0.01633 0.0
C1274 C 0.67297 0.51537 0.04411 0.0
N1275 N 0.66971 0.51082 0.02651 0.0
C1276 C 0.705 0.63739 0.036 0.0
C1277 C 0.68545 0.61935 0.00856 0.0
C1278 C 0.73624 0.63766 0.02955 0.0
N1279 N 0.68037 0.62846 0.02549 0.0
C1280 C 0.71631 0.6192 1.00158 0.0
C1281 C 0.74232 0.62847 0.01209 0.0
H1282 H 0.70035 0.64427 0.04945 0.0
H1283 H 0.66558 0.61196 1.00049 0.0
C1284 C 0.5449 0.57502 0.01254 0.0
N1285 N 0.56144 0.56767 0.02735 0.0
C1286 C 0.52466 0.55261 1.00477 0.0
C1287 C 0.53838 0.51546 0.0278 0.0
C1288 C 0.55871 0.53851 0.03501 0.0
C1289 C 0.52094 0.52229 0.01241 0.0
H1290 H 0.5474 0.59843 1.00676 0.0
H1291 H 0.57208 0.53321 0.0468 0.0
O1292 O 0.63009 0.6636 0.05228 0.0
O1293 O 0.5651 0.62833 0.05428 0.0
O1294 O 0.60157 0.63211 0.01878 0.0
O1295 O 0.62781 0.58939 0.04972 0.0
H1296 H 0.58035 0.68594 0.07001 0.0
H1297 H 0.68115 0.69684 0.06114 0.0
H1298 H 0.58277 0.72995 0.09173 0.0
H1299 H 0.6818 0.74075 0.083 0.0
H1300 H 0.54049 0.54343 0.0889 0.0
H1301 H 0.50341 0.63944 0.05739 0.0
H1302 H 0.57949 0.57594 0.07221 0.0
H1303 H 0.46567 0.60572 0.07435 0.0
H1304 H 0.56143 0.77502 0.03773 0.0
H1305 H 0.48765 0.70827 0.02229 0.0
H1306 H 0.67342 0.61343 0.11825 0.0
H1307 H 0.57888 0.65264 0.1248 0.0
H1308 H 0.58894 0.62136 0.98536 0.0
H1309 H 0.63342 0.68689 0.02137 0.0
H1310 H 0.60458 0.6569 0.96074 0.0
H1311 H 0.64818 0.72117 0.99619 0.0
H1312 H 0.6252 0.57463 0.01575 0.0
H1313 H 0.66151 0.5455 0.06617 0.0
H1314 H 0.65076 0.52726 1.00236 0.0
H1315 H 0.68647 0.49847 0.05185 0.0
H1316 H 0.75536 0.64534 0.03812 0.0
H1317 H 0.71976 0.6114 0.98815 0.0
H1318 H 0.51233 0.559 0.99278 0.0
H1319 H 0.53607 0.49273 0.03441 0.0
Li1320 Li 0.1421 0.85955 0.81329 0.0
Li1321 Li 0.10919 0.83888 0.7894 0.0
Li1322 Li 0.16678 0.83759 0.78691 0.0
Li1323 Li 0.13936 0.88826 0.78548 0.0
C1324 C 0.15775 0.79413 0.81366 0.0
N1325 N 0.19466 0.75143 0.83237 0.0
C1326 C 0.14935 0.76192 0.81425 0.0
C1327 C 0.18493 0.80466 0.82258 0.0
C1328 C 0.16832 0.74069 0.82378 0.0
C1329 C 0.20328 0.78269 0.83196 0.0
C1330 C 0.07951 0.88064 0.81403 0.0
C1331 C 0.03928 0.90972 0.83002 0.0
N1332 N 0.03055 0.88234 0.83831 0.0
C1333 C 0.07013 0.85279 0.82269 0.0
C1334 C 0.06399 0.90936 0.81771 0.0
C1335 C 0.04533 0.85413 0.83492 0.0
C1336 C 0.15163 0.89388 0.84518 0.0
N1337 N 0.1425 0.86527 0.8384 0.0
C1338 C 0.12557 0.8475 0.86678 0.0
C1339 C 0.13022 0.84202 0.84886 0.0
C1340 C 0.1339 0.87711 0.87409 0.0
C1341 C 0.14777 0.90024 0.86314 0.0
H1342 H 0.16091 0.91213 0.83654 0.0
H1343 H 0.12283 0.81957 0.84319 0.0
C1344 C 0.07861 0.78349 0.77865 0.0
N1345 N 0.07242 0.81382 0.7839 0.0
C1346 C 0.05379 0.76165 0.77642 0.0
C1347 C 0.0165 0.80293 0.78463 0.0
C1348 C 0.04202 0.82416 0.78629 0.0
C1349 C 0.02216 0.77087 0.77998 0.0
H1350 H 0.10305 0.77602 0.77664 0.0
H1351 H 0.03758 0.84855 0.79018 0.0
C1352 C 0.2044 0.89161 0.79195 0.0
N1353 N 0.25699 0.91971 0.77651 0.0
C1354 C 0.20956 0.88853 0.77388 0.0
C1355 C 0.22599 0.90894 0.80216 0.0
C1356 C 0.23628 0.90293 0.76633 0.0
C1357 C 0.25243 0.92298 0.79411 0.0
C1358 C 0.11611 0.8599 0.75515 0.0
C1359 C 0.12459 0.85181 0.73797 0.0
C1360 C 0.08788 0.87675 0.75822 0.0
C1361 C 0.10462 0.86066 0.72411 0.0
C1362 C 0.06854 0.88514 0.74401 0.0
N1363 N 0.07724 0.877 0.72739 0.0
C1364 C 0.1928 0.7949 0.76254 0.0
C1365 C 0.22931 0.80871 0.78501 0.0
C1366 C 0.2152 0.77466 0.75477 0.0
N1367 N 0.20015 0.81144 0.77735 0.0
C1368 C 0.25235 0.78839 0.7778 0.0
C1369 C 0.24553 0.77094 0.76241 0.0
H1370 H 0.16938 0.7974 0.75676 0.0
H1371 H 0.23461 0.82208 0.7968 0.0
C1372 C 0.13042 0.955 0.786 0.0
N1373 N 0.13935 0.93037 0.77549 0.0
C1374 C 0.13015 0.98624 0.77955 0.0
C1375 C 0.14861 0.96631 0.75158 0.0
C1376 C 0.14846 0.93545 0.75856 0.0
C1377 C 0.13934 0.99232 0.76209 0.0
H1378 H 0.12353 0.95035 0.79945 0.0
H1379 H 0.15585 0.91558 0.75049 0.0
O1380 O 0.13949 0.8151 0.80428 0.0
O1381 O 0.10421 0.88008 0.80228 0.0
O1382 O 0.17843 0.87781 0.79972 0.0
O1383 O 0.1357 0.85157 0.76878 0.0
H1384 H 0.12838 0.75341 0.80739 0.0
H1385 H 0.19188 0.82949 0.82221 0.0
H1386 H 0.1621 0.71567 0.82436 0.0
H1387 H 0.22439 0.7905 0.8389 0.0
H1388 H 0.02706 0.93179 0.83301 0.0
H1389 H 0.08187 0.83035 0.82001 0.0
H1390 H 0.07097 0.93115 0.81114 0.0
H1391 H 0.03787 0.83276 0.84173 0.0
H1392 H 0.11517 0.82887 0.8748 0.0
H1393 H 0.15439 0.92342 0.86825 0.0
H1394 H 0.05955 0.73765 0.77229 0.0
H1395 H 0.99279 0.81142 0.78773 0.0
H1396 H 0.19318 0.8752 0.76575 0.0
H1397 H 0.22231 0.91152 0.81617 0.0
H1398 H 0.24055 0.90076 0.75236 0.0
H1399 H 0.26934 0.93648 0.80185 0.0
H1400 H 0.14645 0.83894 0.73536 0.0
H1401 H 0.08092 0.88342 0.77137 0.0
H1402 H 0.1109 0.85457 0.71074 0.0
H1403 H 0.04664 0.89818 0.74619 0.0
H1404 H 0.20882 0.76233 0.74278 0.0
H1405 H 0.27509 0.78608 0.78441 0.0
H1406 H 0.12247 1.00536 0.78812 0.0
H1407 H 0.15641 0.96976 0.73815 0.0
Li1408 Li 0.63826 0.89049 0.53527 0.0
Li1409 Li 0.61049 0.89586 0.56366 0.0
Li1410 Li 0.58687 0.86137 0.53953 0.0
Li1411 Li 0.58546 0.91958 0.53735 0.0
C1412 C 0.64695 0.83104 0.55469 0.0
N1413 N 0.68571 0.77843 0.55944 0.0
C1414 C 0.66864 0.83015 0.56863 0.0
C1415 C 0.64455 0.80489 0.54338 0.0
C1416 C 0.68816 0.80343 0.57074 0.0
C1417 C 0.66446 0.77859 0.54595 0.0
C1418 C 0.64004 0.95343 0.5589 0.0
C1419 C 0.63321 0.99573 0.58002 0.0
N1420 N 0.66542 0.99913 0.58098 0.0
C1421 C 0.67306 0.95751 0.55996 0.0
C1422 C 0.61991 0.97284 0.56888 0.0
C1423 C 0.68544 0.98069 0.57125 0.0
C1424 C 0.68536 0.89863 0.50841 0.0
N1425 N 0.68032 0.88976 0.52537 0.0
C1426 C 0.73624 0.88112 0.52956 0.0
C1427 C 0.70503 0.88145 0.53598 0.0
C1428 C 0.7423 0.88991 0.51205 0.0
C1429 C 0.71625 0.89883 0.50145 0.0
H1430 H 0.66541 0.90585 0.50033 0.0
H1431 H 0.7006 0.8755 0.54955 0.0
C1432 C 0.59455 0.88275 0.59871 0.0
N1433 N 0.61763 0.89597 0.58851 0.0
C1434 C 0.59992 0.87755 0.61661 0.0
C1435 C 0.65246 0.90043 0.61332 0.0
C1436 C 0.6462 0.90485 0.59544 0.0
C1437 C 0.62935 0.88609 0.62409 0.0
H1438 H 0.57231 0.87524 0.59282 0.0
H1439 H 0.6647 0.91403 0.58698 0.0
C1440 C 0.60059 0.8721 0.50368 0.0
N1441 N 0.60122 0.83908 0.47228 0.0
C1442 C 0.57898 0.87995 0.49039 0.0
C1443 C 0.62275 0.84774 0.50093 0.0
C1444 C 0.5796 0.86289 0.47462 0.0
C1445 C 0.62264 0.83126 0.48499 0.0
C1446 C 0.53613 0.90361 0.55918 0.0
C1447 C 0.50945 0.89102 0.55064 0.0
C1448 C 0.53225 0.92804 0.57147 0.0
C1449 C 0.47933 0.90363 0.55426 0.0
C1450 C 0.50173 0.93999 0.57474 0.0
N1451 N 0.47612 0.92767 0.56612 0.0
C1452 C 0.56014 0.80423 0.55034 0.0
C1453 C 0.54445 0.81849 0.52148 0.0
C1454 C 0.53949 0.77815 0.55019 0.0
N1455 N 0.5621 0.82385 0.53618 0.0
C1456 C 0.52361 0.79248 0.5207 0.0
C1457 C 0.52057 0.77223 0.53531 0.0
H1458 H 0.57406 0.80941 0.56196 0.0
H1459 H 0.54559 0.83495 0.51061 0.0
C1460 C 0.56675 0.98405 0.52886 0.0
N1461 N 0.55898 0.95265 0.52776 0.0
C1462 C 0.54691 1.00722 0.52133 0.0
C1463 C 0.51147 0.96531 0.51175 0.0
C1464 C 0.53215 0.94302 0.51924 0.0
C1465 C 0.51865 0.99804 0.51265 0.0
H1466 H 0.58852 0.99114 0.53539 0.0
H1467 H 0.52682 0.91787 0.51824 0.0
O1468 O 0.62736 0.85686 0.55256 0.0
O1469 O 0.62752 0.93075 0.548 0.0
O1470 O 0.60018 0.88851 0.51921 0.0
O1471 O 0.56583 0.89173 0.55571 0.0
H1472 H 0.67057 0.84999 0.57763 0.0
H1473 H 0.62729 0.80469 0.53284 0.0
H1474 H 0.70523 0.80256 0.58139 0.0
H1475 H 0.66292 0.75824 0.53725 0.0
H1476 H 0.61791 0.01083 0.58788 0.0
H1477 H 0.68896 0.94284 0.55223 0.0
H1478 H 0.59432 0.97027 0.568 0.0
H1479 H 0.71095 0.984 0.57229 0.0
H1480 H 0.75535 0.87383 0.53823 0.0
H1481 H 0.71967 0.90646 0.488 0.0
H1482 H 0.58135 0.86669 0.62448 0.0
H1483 H 0.6756 0.90696 0.61851 0.0
H1484 H 0.56182 0.89892 0.49225 0.0
H1485 H 0.64007 0.84184 0.51092 0.0
H1486 H 0.56291 0.86859 0.46425 0.0
H1487 H 0.63965 0.81232 0.48269 0.0
H1488 H 0.51203 0.87192 0.54118 0.0
H1489 H 0.55257 0.93755 0.57848 0.0
H1490 H 0.4585 0.8943 0.54763 0.0
H1491 H 0.49838 0.95899 0.58417 0.0
H1492 H 0.53815 0.76292 0.56166 0.0
H1493 H 0.50917 0.78897 0.50906 0.0
H1494 H 0.55399 0.032 0.5221 0.0
H1495 H 0.48992 0.95686 0.50546 0.0
Li1496 Li 0.37732 0.38826 0.78527 0.0
Li1497 Li 0.37195 0.36049 0.81366 0.0
Li1498 Li 0.40644 0.33687 0.78953 0.0
Li1499 Li 0.34823 0.33546 0.78735 0.0
C1500 C 0.43678 0.39695 0.80469 0.0
N1501 N 0.48938 0.43571 0.80944 0.0
C1502 C 0.43766 0.41864 0.81863 0.0
C1503 C 0.46292 0.39456 0.79337 0.0
C1504 C 0.46438 0.43817 0.82074 0.0
C1505 C 0.48922 0.41447 0.79594 0.0
C1506 C 0.31438 0.39004 0.8089 0.0
C1507 C 0.27208 0.3832 0.83002 0.0
N1508 N 0.26868 0.41542 0.83098 0.0
C1509 C 0.3103 0.42306 0.80996 0.0
C1510 C 0.29497 0.36991 0.81888 0.0
C1511 C 0.28712 0.43543 0.82125 0.0
C1512 C 0.36918 0.43535 0.75841 0.0
N1513 N 0.37805 0.43032 0.77537 0.0
C1514 C 0.38669 0.48623 0.77956 0.0
C1515 C 0.38636 0.45503 0.78598 0.0
C1516 C 0.3779 0.4923 0.76205 0.0
C1517 C 0.36898 0.46625 0.75145 0.0
H1518 H 0.36196 0.41541 0.75033 0.0
H1519 H 0.39231 0.4506 0.79955 0.0
C1520 C 0.38507 0.34455 0.84871 0.0
N1521 N 0.37184 0.36762 0.83851 0.0
C1522 C 0.39026 0.34992 0.86661 0.0
C1523 C 0.36738 0.40245 0.86332 0.0
C1524 C 0.36297 0.3962 0.84543 0.0
C1525 C 0.38172 0.37935 0.87409 0.0
H1526 H 0.39257 0.32231 0.84282 0.0
H1527 H 0.35378 0.4147 0.83698 0.0
C1528 C 0.39571 0.35059 0.75368 0.0
N1529 N 0.42873 0.35121 0.72228 0.0
C1530 C 0.38786 0.32898 0.74039 0.0
C1531 C 0.42007 0.37275 0.75093 0.0
C1532 C 0.40492 0.32959 0.72462 0.0
C1533 C 0.43655 0.37263 0.73498 0.0
C1534 C 0.3642 0.28613 0.80918 0.0
C1535 C 0.3768 0.25945 0.80064 0.0
C1536 C 0.33978 0.28225 0.82147 0.0
C1537 C 0.36419 0.22932 0.80426 0.0
C1538 C 0.32783 0.25173 0.82475 0.0
N1539 N 0.34015 0.22612 0.81612 0.0
C1540 C 0.46358 0.31014 0.80034 0.0
C1541 C 0.44932 0.29444 0.77148 0.0
C1542 C 0.48967 0.28949 0.80018 0.0
N1543 N 0.44397 0.3121 0.78618 0.0
C1544 C 0.47533 0.27361 0.7707 0.0
C1545 C 0.49558 0.27057 0.78531 0.0
H1546 H 0.45841 0.32407 0.81196 0.0
H1547 H 0.43286 0.29558 0.76061 0.0
C1548 C 0.28376 0.31674 0.77886 0.0
N1549 N 0.31516 0.30897 0.77776 0.0
C1550 C 0.2606 0.2969 0.77133 0.0
C1551 C 0.3025 0.26146 0.76175 0.0
C1552 C 0.32479 0.28215 0.76925 0.0
C1553 C 0.26978 0.26864 0.76265 0.0
H1554 H 0.27668 0.33852 0.78538 0.0
H1555 H 0.34994 0.27681 0.76824 0.0
O1556 O 0.41095 0.37736 0.80256 0.0
O1557 O 0.33706 0.37752 0.798 0.0
O1558 O 0.37931 0.35018 0.76921 0.0
O1559 O 0.37608 0.31583 0.80571 0.0
H1560 H 0.41782 0.42057 0.82763 0.0
H1561 H 0.46312 0.37729 0.78283 0.0
H1562 H 0.46525 0.45523 0.83139 0.0
H1563 H 0.50957 0.41292 0.78725 0.0
H1564 H 0.25698 0.36791 0.83788 0.0
H1565 H 0.32497 0.43896 0.80223 0.0
H1566 H 0.29754 0.34431 0.818 0.0
H1567 H 0.28381 0.46095 0.82229 0.0
H1568 H 0.39398 0.50534 0.78823 0.0
H1569 H 0.36135 0.46967 0.738 0.0
H1570 H 0.40113 0.33135 0.87448 0.0
H1571 H 0.36085 0.4256 0.86851 0.0
H1572 H 0.3689 0.31181 0.74225 0.0
H1573 H 0.42597 0.39007 0.76091 0.0
H1574 H 0.39922 0.3129 0.71426 0.0
H1575 H 0.45549 0.38965 0.73269 0.0
H1576 H 0.3959 0.26203 0.79119 0.0
H1577 H 0.33027 0.30257 0.82848 0.0
H1578 H 0.37352 0.20849 0.79764 0.0
H1579 H 0.30882 0.24838 0.83418 0.0
H1580 H 0.50489 0.28815 0.81165 0.0
H1581 H 0.47884 0.25917 0.75906 0.0
H1582 H 0.23582 0.30399 0.77209 0.0
H1583 H 0.31095 0.23991 0.75547 0.0
Li1584 Li 0.87955 0.12732 0.03527 0.0
Li1585 Li 0.90732 0.12195 0.06366 0.0
Li1586 Li 0.93095 0.15644 0.03953 0.0
Li1587 Li 0.93235 0.09823 0.03735 0.0
C1588 C 0.87087 0.18678 0.05469 0.0
N1589 N 0.8321 0.23938 0.05945 0.0
C1590 C 0.84918 0.18766 0.06863 0.0
C1591 C 0.87326 0.21292 0.04338 0.0
C1592 C 0.82965 0.21438 0.07075 0.0
C1593 C 0.85335 0.23922 0.04595 0.0
C1594 C 0.87777 0.06438 0.0589 0.0
C1595 C 0.88461 0.02208 0.08002 0.0
N1596 N 0.85239 0.01869 0.08098 0.0
C1597 C 0.84475 0.0603 0.05996 0.0
C1598 C 0.8979 0.04498 0.06888 0.0
C1599 C 0.83238 0.03712 0.07125 0.0
C1600 C 0.83246 0.11918 1.00841 0.0
N1601 N 0.8375 0.12805 0.02537 0.0
C1602 C 0.78158 0.13669 0.02956 0.0
C1603 C 0.81278 0.13636 0.03598 0.0
C1604 C 0.77552 0.1279 0.01205 0.0
C1605 C 0.80157 0.11898 1.00145 0.0
H1606 H 0.85241 0.11196 1.00033 0.0
H1607 H 0.81721 0.14232 0.04955 0.0
C1608 C 0.92327 0.13506 0.09871 0.0
N1609 N 0.90019 0.12184 0.08851 0.0
C1610 C 0.91789 0.14026 0.11661 0.0
C1611 C 0.86536 0.11738 0.11332 0.0
C1612 C 0.87162 0.11296 0.09543 0.0
C1613 C 0.88847 0.13172 0.12409 0.0
H1614 H 0.94551 0.14257 0.09282 0.0
H1615 H 0.85312 0.10378 0.08698 0.0
C1616 C 0.91722 0.14571 1.00368 0.0
N1617 N 0.9166 0.17873 0.97228 0.0
C1618 C 0.93883 0.13786 0.99039 0.0
C1619 C 0.89506 0.17007 1.00093 0.0
C1620 C 0.93821 0.15492 0.97462 0.0
C1621 C 0.89517 0.18655 0.98499 0.0
C1622 C 0.98169 0.1142 0.05918 0.0
C1623 C 1.00836 0.12679 0.05063 0.0
C1624 C 0.98556 0.08977 0.07147 0.0
C1625 C 0.03849 0.11419 0.05426 0.0
C1626 C 0.01609 0.07782 0.07474 0.0
N1627 N 0.04169 0.09014 0.06612 0.0
C1628 C 0.95767 0.21358 0.05034 0.0
C1629 C 0.97337 0.19932 0.02148 0.0
C1630 C 0.97833 0.23966 0.05019 0.0
N1631 N 0.95572 0.19397 0.03618 0.0
C1632 C 0.99421 0.22533 0.0207 0.0
C1633 C 0.99725 0.24558 0.03531 0.0
H1634 H 0.94375 0.2084 0.06196 0.0
H1635 H 0.97223 0.18286 0.01061 0.0
C1636 C 0.95107 0.03376 0.02886 0.0
N1637 N 0.95884 0.06516 0.02776 0.0
C1638 C 0.97091 0.01059 0.02133 0.0
C1639 C 1.00635 0.0525 0.01175 0.0
C1640 C 0.98566 0.07479 0.01924 0.0
C1641 C 0.99917 0.01977 0.01265 0.0
H1642 H 0.9293 0.02668 0.03539 0.0
H1643 H 0.991 0.09994 0.01824 0.0
O1644 O 0.89045 0.16095 0.05256 0.0
O1645 O 0.89029 0.08706 0.048 0.0
O1646 O 0.91763 0.1293 0.01921 0.0
O1647 O 0.95199 0.12608 0.05571 0.0
H1648 H 0.84724 0.16782 0.07763 0.0
H1649 H 0.89053 0.21312 0.03283 0.0
H1650 H 0.81258 0.21525 0.08139 0.0
H1651 H 0.8549 0.25957 0.03725 0.0
H1652 H 0.8999 1.00699 0.08788 0.0
H1653 H 0.82885 0.07497 0.05223 0.0
H1654 H 0.9235 0.04754 0.068 0.0
H1655 H 0.80686 0.03381 0.07229 0.0
H1656 H 0.76247 0.14398 0.03823 0.0
H1657 H 0.79814 0.11135 0.988 0.0
H1658 H 0.93647 0.15112 0.12448 0.0
H1659 H 0.84222 0.11085 0.11851 0.0
H1660 H 0.956 0.1189 0.99225 0.0
H1661 H 0.87774 0.17597 0.01092 0.0
H1662 H 0.9549 0.14923 0.96425 0.0
H1663 H 0.87816 0.20549 0.98269 0.0
H1664 H 1.00578 0.14589 0.04118 0.0
H1665 H 0.96525 0.08026 0.07848 0.0
H1666 H 0.05932 0.12351 0.04763 0.0
H1667 H 0.01944 0.05882 0.08417 0.0
H1668 H 0.97967 0.25489 0.06165 0.0
H1669 H 1.00864 0.22885 0.00906 0.0
H1670 H 0.96383 0.98581 0.0221 0.0
H1671 H 0.0279 0.06095 1.00546 0.0
Li1672 Li 0.11137 0.68094 0.28953 0.0
Li1673 Li 0.16958 0.68235 0.28735 0.0
Li1674 Li 0.1405 0.62955 0.28527 0.0
Li1675 Li 0.14586 0.65732 0.31366 0.0
C1676 C 0.12211 0.66723 0.25368 0.0
N1677 N 0.08909 0.6666 0.22228 0.0
C1678 C 0.12996 0.68883 0.24039 0.0
C1679 C 0.09775 0.64506 0.25093 0.0
C1680 C 0.11289 0.68822 0.22462 0.0
C1681 C 0.08126 0.64518 0.23498 0.0
C1682 C 0.15361 0.73169 0.30918 0.0
C1683 C 0.18999 0.76609 0.32475 0.0
N1684 N 0.17767 0.79169 0.31612 0.0
C1685 C 0.14102 0.75836 0.30064 0.0
C1686 C 0.17804 0.73556 0.32147 0.0
C1687 C 0.15362 0.78849 0.30426 0.0
C1688 C 0.05423 0.70767 0.30034 0.0
N1689 N 0.07385 0.70572 0.28618 0.0
C1690 C 0.04249 0.74421 0.2707 0.0
C1691 C 0.06849 0.72337 0.27148 0.0
C1692 C 0.02223 0.74725 0.28531 0.0
C1693 C 0.02815 0.72832 0.30018 0.0
H1694 H 0.05941 0.69374 0.31196 0.0
H1695 H 0.08496 0.72223 0.26061 0.0
C1696 C 0.23406 0.70107 0.27886 0.0
N1697 N 0.20265 0.70884 0.27776 0.0
C1698 C 0.25722 0.72091 0.27133 0.0
C1699 C 0.21532 0.75635 0.26175 0.0
C1700 C 0.19303 0.73567 0.26925 0.0
C1701 C 0.24804 0.74917 0.26265 0.0
H1702 H 0.24114 0.67929 0.28538 0.0
H1703 H 0.16787 0.741 0.26824 0.0
C1704 C 0.08104 0.62086 0.30469 0.0
N1705 N 0.02843 0.5821 0.30944 0.0
C1706 C 0.08015 0.59917 0.31863 0.0
C1707 C 0.05489 0.62326 0.29338 0.0
C1708 C 0.05344 0.57965 0.32074 0.0
C1709 C 0.02859 0.60335 0.29594 0.0
C1710 C 0.20344 0.62777 0.3089 0.0
C1711 C 0.20752 0.59475 0.30997 0.0
C1712 C 0.22284 0.6479 0.31888 0.0
C1713 C 0.23069 0.58238 0.32125 0.0
C1714 C 0.24573 0.63461 0.33002 0.0
N1715 N 0.24913 0.6024 0.33098 0.0
C1716 C 0.14864 0.58246 0.25841 0.0
C1717 C 0.13145 0.56278 0.28598 0.0
C1718 C 0.14884 0.55157 0.25145 0.0
N1719 N 0.13976 0.58749 0.27537 0.0
C1720 C 0.13112 0.53158 0.27956 0.0
C1721 C 0.13991 0.52551 0.26205 0.0
H1722 H 0.15586 0.60241 0.25033 0.0
H1723 H 0.1255 0.56721 0.29955 0.0
C1724 C 0.13275 0.67327 0.34871 0.0
N1725 N 0.14597 0.65019 0.33851 0.0
C1726 C 0.12755 0.66789 0.36661 0.0
C1727 C 0.15043 0.61536 0.36332 0.0
C1728 C 0.15485 0.62162 0.34544 0.0
C1729 C 0.13609 0.63847 0.37409 0.0
H1730 H 0.12524 0.6955 0.34282 0.0
H1731 H 0.16403 0.60311 0.33698 0.0
O1732 O 0.13851 0.66763 0.26921 0.0
O1733 O 0.14173 0.70199 0.30571 0.0
O1734 O 0.10686 0.64045 0.30256 0.0
O1735 O 0.18075 0.64029 0.298 0.0
H1736 H 0.14892 0.706 0.24225 0.0
H1737 H 0.09185 0.62774 0.26091 0.0
H1738 H 0.11859 0.70491 0.21426 0.0
H1739 H 0.06232 0.62817 0.23269 0.0
H1740 H 0.20899 0.76943 0.33418 0.0
H1741 H 0.12192 0.75578 0.29119 0.0
H1742 H 0.18755 0.71524 0.32848 0.0
H1743 H 0.1443 0.80932 0.29764 0.0
H1744 H 0.03897 0.75865 0.25906 0.0
H1745 H 0.01292 0.72966 0.31165 0.0
H1746 H 0.282 0.71383 0.2721 0.0
H1747 H 0.20686 0.7779 0.25547 0.0
H1748 H 0.1 0.59724 0.32763 0.0
H1749 H 0.0547 0.64053 0.28283 0.0
H1750 H 0.05256 0.56258 0.33139 0.0
H1751 H 1.00824 0.60489 0.28725 0.0
H1752 H 0.19284 0.57885 0.30223 0.0
H1753 H 0.22027 0.6735 0.318 0.0
H1754 H 0.23401 0.55687 0.32229 0.0
H1755 H 0.26083 0.6499 0.33788 0.0
H1756 H 0.15647 0.54814 0.238 0.0
H1757 H 0.12384 0.51247 0.28823 0.0
H1758 H 0.11669 0.68647 0.37448 0.0
H1759 H 0.15696 0.59221 0.36851 0.0
Li1760 Li 0.58687 0.15644 0.97748 0.0
Li1761 Li 0.58546 0.09823 0.97966 0.0
Li1762 Li 0.63826 0.12732 0.98173 0.0
Li1763 Li 0.61049 0.12195 0.95335 0.0
C1764 C 0.60059 0.14571 0.01332 0.0
N1765 N 0.60122 0.17873 0.04473 0.0
C1766 C 0.57898 0.13786 0.02662 0.0
C1767 C 0.62275 0.17007 0.01608 0.0
C1768 C 0.5796 0.15492 0.04238 0.0
C1769 C 0.62264 0.18655 0.03202 0.0
C1770 C 0.53613 0.1142 0.95783 0.0
C1771 C 0.50173 0.07783 0.94226 0.0
N1772 N 0.47612 0.09014 0.95088 0.0
C1773 C 0.50945 0.1268 0.96637 0.0
C1774 C 0.53225 0.08977 0.94553 0.0
C1775 C 0.47933 0.11419 0.96275 0.0
C1776 C 0.56014 0.21358 0.96666 0.0
N1777 N 0.5621 0.19397 0.98082 0.0
C1778 C 0.52361 0.22533 0.9963 0.0
C1779 C 0.54444 0.19932 0.99552 0.0
C1780 C 0.52057 0.24558 0.9817 0.0
C1781 C 0.53949 0.23966 0.96682 0.0
H1782 H 0.57407 0.2084 0.95504 0.0
H1783 H 0.54559 0.18286 1.00639 0.0
C1784 C 0.56675 0.03376 0.98815 0.0
N1785 N 0.55898 0.06516 0.98925 0.0
C1786 C 0.54691 0.0106 0.99567 0.0
C1787 C 0.51147 0.0525 1.00526 0.0
C1788 C 0.53215 0.07479 0.99776 0.0
C1789 C 0.51865 0.01977 1.00435 0.0
H1790 H 0.58852 0.02668 0.98162 0.0
H1791 H 0.52682 0.09994 0.99877 0.0
C1792 C 0.64695 0.18678 0.96231 0.0
N1793 N 0.68571 0.23938 0.95756 0.0
C1794 C 0.66864 0.18766 0.94838 0.0
C1795 C 0.64456 0.21292 0.97363 0.0
C1796 C 0.68817 0.21438 0.94626 0.0
C1797 C 0.66446 0.23922 0.97106 0.0
C1798 C 0.64004 0.06438 0.95811 0.0
C1799 C 0.67306 0.0603 0.95704 0.0
C1800 C 0.61991 0.04498 0.94813 0.0
C1801 C 0.68544 0.03712 0.94575 0.0
C1802 C 0.63321 0.02208 0.93699 0.0
N1803 N 0.66542 0.01869 0.93603 0.0
C1804 C 0.68536 0.11918 0.00859 0.0
C1805 C 0.70503 0.13636 0.98103 0.0
C1806 C 0.71625 0.11898 0.01555 0.0
N1807 N 0.68032 0.12805 0.99164 0.0
C1808 C 0.73624 0.13669 0.98745 0.0
C1809 C 0.7423 0.1279 1.00496 0.0
H1810 H 0.66541 0.11196 0.01667 0.0
H1811 H 0.7006 0.14232 0.96746 0.0
C1812 C 0.59455 0.13507 0.91829 0.0
N1813 N 0.61763 0.12184 0.9285 0.0
C1814 C 0.59992 0.14026 0.9004 0.0
C1815 C 0.65246 0.11738 0.90369 0.0
C1816 C 0.6462 0.11297 0.92157 0.0
C1817 C 0.62935 0.13172 0.89291 0.0
H1818 H 0.57231 0.14257 0.92419 0.0
H1819 H 0.6647 0.10378 0.93002 0.0
O1820 O 0.60018 0.12931 0.99779 0.0
O1821 O 0.56583 0.12608 0.96129 0.0
O1822 O 0.62736 0.16095 0.96444 0.0
O1823 O 0.62752 0.08706 0.969 0.0
H1824 H 0.56182 0.1189 0.02475 0.0
H1825 H 0.64007 0.17597 1.00609 0.0
H1826 H 0.56291 0.14923 0.05275 0.0
H1827 H 0.63965 0.20549 0.03431 0.0
H1828 H 0.49838 0.05882 0.93283 0.0
H1829 H 0.51203 0.14589 0.97582 0.0
H1830 H 0.55257 0.08027 0.93853 0.0
H1831 H 0.4585 0.12351 0.96937 0.0
H1832 H 0.50917 0.22884 1.00794 0.0
H1833 H 0.53815 0.25489 0.95535 0.0
H1834 H 0.55399 0.98582 0.99491 0.0
H1835 H 0.48991 0.06095 0.01154 0.0
H1836 H 0.67057 0.16782 0.93937 0.0
H1837 H 0.62729 0.21312 0.98417 0.0
H1838 H 0.70524 0.21525 0.93562 0.0
H1839 H 0.66292 0.25957 0.97975 0.0
H1840 H 0.68896 0.07497 0.96478 0.0
H1841 H 0.59432 0.04754 0.949 0.0
H1842 H 0.71095 0.03381 0.94471 0.0
H1843 H 0.61791 1.00699 0.92913 0.0
H1844 H 0.71967 0.11135 0.02901 0.0
H1845 H 0.75535 0.14398 0.97877 0.0
H1846 H 0.58135 0.15113 0.89253 0.0
H1847 H 0.6756 0.11085 0.8985 0.0
Li1848 Li 0.14587 0.36049 0.20335 0.0
Li1849 Li 0.1405 0.38826 0.23173 0.0
Li1850 Li 0.16958 0.33546 0.22966 0.0
Li1851 Li 0.11138 0.33687 0.22748 0.0
C1852 C 0.20344 0.39004 0.20811 0.0
N1853 N 0.24913 0.41542 0.18602 0.0
C1854 C 0.20752 0.42306 0.20704 0.0
C1855 C 0.22284 0.36991 0.19813 0.0
C1856 C 0.23069 0.43543 0.19575 0.0
C1857 C 0.24573 0.3832 0.18699 0.0
C1858 C 0.08104 0.39695 0.21231 0.0
C1859 C 0.02859 0.41446 0.22106 0.0
N1860 N 0.02843 0.43571 0.20756 0.0
C1861 C 0.08015 0.41864 0.19838 0.0
C1862 C 0.05489 0.39456 0.22363 0.0
C1863 C 0.05344 0.43816 0.19626 0.0
C1864 C 0.13275 0.34455 0.16829 0.0
N1865 N 0.14597 0.36763 0.1785 0.0
C1866 C 0.15043 0.40245 0.15369 0.0
C1867 C 0.15485 0.3962 0.17157 0.0
C1868 C 0.13609 0.37935 0.14291 0.0
C1869 C 0.12755 0.34992 0.1504 0.0
H1870 H 0.12524 0.32231 0.17419 0.0
H1871 H 0.16403 0.4147 0.18002 0.0
C1872 C 0.14864 0.43535 0.25859 0.0
N1873 N 0.13976 0.43032 0.24164 0.0
C1874 C 0.14884 0.46625 0.26555 0.0
C1875 C 0.13112 0.48623 0.23745 0.0
C1876 C 0.13145 0.45503 0.23103 0.0
C1877 C 0.13991 0.4923 0.25496 0.0
H1878 H 0.15586 0.41541 0.26667 0.0
H1879 H 0.1255 0.4506 0.21746 0.0
C1880 C 0.15362 0.28613 0.20783 0.0
N1881 N 0.17767 0.22612 0.20088 0.0
C1882 C 0.14102 0.25945 0.21637 0.0
C1883 C 0.17804 0.28225 0.19553 0.0
C1884 C 0.15362 0.22933 0.21275 0.0
C1885 C 0.18999 0.25173 0.19226 0.0
C1886 C 0.12211 0.35059 0.26332 0.0
C1887 C 0.12996 0.32898 0.27662 0.0
C1888 C 0.09775 0.37275 0.26608 0.0
C1889 C 0.11289 0.3296 0.29238 0.0
C1890 C 0.08126 0.37264 0.28202 0.0
N1891 N 0.08909 0.35121 0.29473 0.0
C1892 C 0.23406 0.31674 0.23815 0.0
C1893 C 0.19303 0.28215 0.24776 0.0
C1894 C 0.25722 0.2969 0.24567 0.0
N1895 N 0.20265 0.30897 0.23925 0.0
C1896 C 0.21532 0.26146 0.25525 0.0
C1897 C 0.24804 0.26864 0.25435 0.0
H1898 H 0.24114 0.33852 0.23162 0.0
H1899 H 0.16788 0.27681 0.24877 0.0
C1900 C 0.05423 0.31014 0.21666 0.0
N1901 N 0.07385 0.3121 0.23082 0.0
C1902 C 0.02815 0.28949 0.21682 0.0
C1903 C 0.04249 0.27361 0.2463 0.0
C1904 C 0.06849 0.29444 0.24552 0.0
C1905 C 0.02224 0.27057 0.2317 0.0
H1906 H 0.05941 0.32407 0.20504 0.0
H1907 H 0.08496 0.29558 0.25639 0.0
O1908 O 0.18075 0.37752 0.219 0.0
O1909 O 0.10686 0.37736 0.21444 0.0
O1910 O 0.14174 0.31583 0.21129 0.0
O1911 O 0.13851 0.35018 0.24779 0.0
H1912 H 0.19284 0.43896 0.21478 0.0
H1913 H 0.22027 0.34432 0.199 0.0
H1914 H 0.23401 0.46095 0.19471 0.0
H1915 H 0.26083 0.36791 0.17913 0.0
H1916 H 1.00824 0.41292 0.22975 0.0
H1917 H 0.1 0.42057 0.18937 0.0
H1918 H 0.0547 0.37729 0.23417 0.0
H1919 H 0.05256 0.45523 0.18562 0.0
H1920 H 0.15696 0.4256 0.1485 0.0
H1921 H 0.11669 0.33135 0.14253 0.0
H1922 H 0.15647 0.46967 0.27901 0.0
H1923 H 0.12383 0.50534 0.22877 0.0
H1924 H 0.12192 0.26203 0.22582 0.0
H1925 H 0.18755 0.30257 0.18853 0.0
H1926 H 0.1443 0.20849 0.21937 0.0
H1927 H 0.20899 0.24838 0.18283 0.0
H1928 H 0.14892 0.31181 0.27475 0.0
H1929 H 0.09185 0.39007 0.25609 0.0
H1930 H 0.11859 0.3129 0.30275 0.0
H1931 H 0.06232 0.38965 0.28431 0.0
H1932 H 0.282 0.30399 0.24491 0.0
H1933 H 0.20686 0.23991 0.26154 0.0
H1934 H 0.01292 0.28815 0.20535 0.0
H1935 H 0.03897 0.25917 0.25794 0.0
Li1936 Li 0.93235 0.91958 0.47966 0.0
Li1937 Li 0.93095 0.86138 0.47748 0.0
Li1938 Li 0.90732 0.89587 0.45335 0.0
Li1939 Li 0.87955 0.8905 0.48173 0.0
C1940 C 0.98169 0.90362 0.45783 0.0
N1941 N 0.04169 0.92767 0.45089 0.0
C1942 C 1.00836 0.89102 0.46637 0.0
C1943 C 0.98556 0.92804 0.44553 0.0
C1944 C 0.03849 0.90363 0.46275 0.0
C1945 C 0.01609 0.93999 0.44226 0.0
C1946 C 0.91722 0.87211 0.51332 0.0
C1947 C 0.89517 0.83126 0.53202 0.0
N1948 N 0.91659 0.83908 0.54473 0.0
C1949 C 0.93883 0.87995 0.52662 0.0
C1950 C 0.89506 0.84774 0.51607 0.0
C1951 C 0.93821 0.86289 0.54238 0.0
C1952 C 0.95107 0.98406 0.48815 0.0
N1953 N 0.95884 0.95265 0.48925 0.0
C1954 C 1.00635 0.96532 0.50526 0.0
C1955 C 0.98566 0.94303 0.49776 0.0
C1956 C 0.99917 0.99804 0.50436 0.0
C1957 C 0.97091 1.00722 0.49567 0.0
H1958 H 0.9293 0.99114 0.48162 0.0
H1959 H 0.991 0.91787 0.49877 0.0
C1960 C 0.95768 0.80423 0.46666 0.0
N1961 N 0.95572 0.82385 0.48082 0.0
C1962 C 0.97833 0.77815 0.46682 0.0
C1963 C 0.99421 0.79248 0.49631 0.0
C1964 C 0.97337 0.81849 0.49552 0.0
C1965 C 0.99725 0.77223 0.4817 0.0
H1966 H 0.94375 0.80941 0.45504 0.0
H1967 H 0.97223 0.83495 0.5064 0.0
C1968 C 0.87777 0.95344 0.45811 0.0
N1969 N 0.85239 0.99913 0.43603 0.0
C1970 C 0.84475 0.95751 0.45704 0.0
C1971 C 0.8979 0.97284 0.44813 0.0
C1972 C 0.83238 0.98069 0.44575 0.0
C1973 C 0.88461 0.99573 0.43699 0.0
C1974 C 0.87087 0.83104 0.46231 0.0
C1975 C 0.84918 0.83015 0.44838 0.0
C1976 C 0.87326 0.80489 0.47363 0.0
C1977 C 0.82965 0.80344 0.44626 0.0
C1978 C 0.85335 0.77859 0.47106 0.0
N1979 N 0.83211 0.77843 0.45756 0.0
C1980 C 0.92327 0.88275 0.41829 0.0
C1981 C 0.87162 0.90485 0.42157 0.0
C1982 C 0.91789 0.87755 0.4004 0.0
N1983 N 0.90019 0.89597 0.4285 0.0
C1984 C 0.86536 0.90043 0.40369 0.0
C1985 C 0.88847 0.88609 0.39291 0.0
H1986 H 0.94551 0.87524 0.42419 0.0
H1987 H 0.85312 0.91403 0.43002 0.0
C1988 C 0.83246 0.89863 0.50859 0.0
N1989 N 0.8375 0.88976 0.49164 0.0
C1990 C 0.80157 0.89883 0.51555 0.0
C1991 C 0.78158 0.88112 0.48745 0.0
C1992 C 0.81278 0.88145 0.48103 0.0
C1993 C 0.77552 0.88991 0.50496 0.0
H1994 H 0.85241 0.90586 0.51667 0.0
H1995 H 0.81721 0.8755 0.46746 0.0
O1996 O 0.95199 0.89174 0.46129 0.0
O1997 O 0.91763 0.88851 0.49779 0.0
O1998 O 0.89029 0.93075 0.469 0.0
O1999 O 0.89045 0.85686 0.46444 0.0
H2000 H 1.00578 0.87192 0.47582 0.0
H2001 H 0.96525 0.93755 0.43853 0.0
H2002 H 0.05932 0.8943 0.46938 0.0
H2003 H 0.01944 0.959 0.43283 0.0
H2004 H 0.87816 0.81232 0.53431 0.0
H2005 H 0.956 0.89892 0.52475 0.0
H2006 H 0.87774 0.84184 0.50609 0.0
H2007 H 0.9549 0.86859 0.55275 0.0
H2008 H 0.0279 0.95686 0.51154 0.0
H2009 H 0.96383 0.032 0.49491 0.0
H2010 H 0.97967 0.76293 0.45535 0.0
H2011 H 1.00864 0.78897 0.50794 0.0
H2012 H 0.82885 0.94284 0.46478 0.0
H2013 H 0.9235 0.97027 0.449 0.0
H2014 H 0.80686 0.984 0.44472 0.0
H2015 H 0.8999 0.01083 0.42913 0.0
H2016 H 0.84724 0.85 0.43937 0.0
H2017 H 0.89053 0.80469 0.48417 0.0
H2018 H 0.81258 0.80256 0.43562 0.0
H2019 H 0.8549 0.75824 0.47975 0.0
H2020 H 0.93647 0.86669 0.39253 0.0
H2021 H 0.84222 0.90696 0.3985 0.0
H2022 H 0.79814 0.90646 0.52901 0.0
H2023 H 0.76247 0.87383 0.47877 0.0
Li2024 Li 0.34824 0.68235 0.72966 0.0
Li2025 Li 0.40644 0.68094 0.72748 0.0
Li2026 Li 0.37195 0.65732 0.70335 0.0
Li2027 Li 0.37732 0.62955 0.73173 0.0
C2028 C 0.3642 0.73169 0.70783 0.0
N2029 N 0.34015 0.79169 0.70088 0.0
C2030 C 0.3768 0.75836 0.71637 0.0
C2031 C 0.33978 0.73556 0.69553 0.0
C2032 C 0.36419 0.78849 0.71274 0.0
C2033 C 0.32783 0.76608 0.69226 0.0
C2034 C 0.39571 0.66723 0.76332 0.0
C2035 C 0.43655 0.64518 0.78202 0.0
N2036 N 0.42873 0.6666 0.79473 0.0
C2037 C 0.38786 0.68884 0.77662 0.0
C2038 C 0.42007 0.64506 0.76608 0.0
C2039 C 0.40492 0.68822 0.79238 0.0
C2040 C 0.28376 0.70107 0.73815 0.0
N2041 N 0.31516 0.70884 0.73925 0.0
C2042 C 0.3025 0.75635 0.75525 0.0
C2043 C 0.32479 0.73567 0.74776 0.0
C2044 C 0.26978 0.74917 0.75435 0.0
C2045 C 0.2606 0.72091 0.74567 0.0
H2046 H 0.27668 0.67929 0.73162 0.0
H2047 H 0.34994 0.741 0.74877 0.0
C2048 C 0.46359 0.70767 0.71666 0.0
N2049 N 0.44397 0.70571 0.73082 0.0
C2050 C 0.48967 0.72832 0.71682 0.0
C2051 C 0.47533 0.74421 0.7463 0.0
C2052 C 0.44932 0.72337 0.74552 0.0
C2053 C 0.49558 0.74725 0.7317 0.0
H2054 H 0.45841 0.69374 0.70504 0.0
H2055 H 0.43286 0.72223 0.75639 0.0
C2056 C 0.31438 0.62778 0.70811 0.0
N2057 N 0.26868 0.6024 0.68603 0.0
C2058 C 0.3103 0.59475 0.70704 0.0
C2059 C 0.29497 0.6479 0.69813 0.0
C2060 C 0.28712 0.58238 0.69575 0.0
C2061 C 0.27208 0.63461 0.68699 0.0
C2062 C 0.43678 0.62086 0.71232 0.0
C2063 C 0.43766 0.59917 0.69838 0.0
C2064 C 0.46292 0.62325 0.72363 0.0
C2065 C 0.46438 0.57965 0.69626 0.0
C2066 C 0.48922 0.60334 0.72106 0.0
N2067 N 0.48938 0.5821 0.70757 0.0
C2068 C 0.38507 0.67327 0.66829 0.0
C2069 C 0.36297 0.62162 0.67157 0.0
C2070 C 0.39026 0.66789 0.6504 0.0
N2071 N 0.37184 0.65019 0.6785 0.0
C2072 C 0.36739 0.61536 0.65369 0.0
C2073 C 0.38172 0.63847 0.64291 0.0
H2074 H 0.39257 0.6955 0.67419 0.0
H2075 H 0.35378 0.60311 0.68002 0.0
C2076 C 0.36918 0.58246 0.75859 0.0
N2077 N 0.37805 0.58749 0.74164 0.0
C2078 C 0.36898 0.55157 0.76555 0.0
C2079 C 0.38669 0.53158 0.73745 0.0
C2080 C 0.38636 0.56278 0.73103 0.0
C2081 C 0.3779 0.52551 0.75496 0.0
H2082 H 0.36196 0.60241 0.76667 0.0
H2083 H 0.39231 0.56721 0.71746 0.0
O2084 O 0.37608 0.70199 0.71129 0.0
O2085 O 0.37931 0.66763 0.74779 0.0
O2086 O 0.33706 0.64029 0.719 0.0
O2087 O 0.41095 0.64045 0.71444 0.0
H2088 H 0.3959 0.75578 0.72582 0.0
H2089 H 0.33027 0.71524 0.68853 0.0
H2090 H 0.37352 0.80932 0.71937 0.0
H2091 H 0.30882 0.76943 0.68283 0.0
H2092 H 0.45549 0.62817 0.78432 0.0
H2093 H 0.3689 0.706 0.77475 0.0
H2094 H 0.42597 0.62774 0.75609 0.0
H2095 H 0.39922 0.70492 0.80275 0.0
H2096 H 0.31095 0.77791 0.76154 0.0
H2097 H 0.23582 0.71383 0.74491 0.0
H2098 H 0.5049 0.72966 0.70535 0.0
H2099 H 0.47884 0.75865 0.75794 0.0
H2100 H 0.32497 0.57885 0.71478 0.0
H2101 H 0.29754 0.6735 0.699 0.0
H2102 H 0.28381 0.55687 0.69471 0.0
H2103 H 0.25698 0.64991 0.67913 0.0
H2104 H 0.41782 0.59724 0.68938 0.0
H2105 H 0.46312 0.64052 0.73417 0.0
H2106 H 0.46525 0.56258 0.68562 0.0
H2107 H 0.50957 0.60489 0.72976 0.0
H2108 H 0.40113 0.68647 0.64253 0.0
H2109 H 0.36085 0.59221 0.6485 0.0
H2110 H 0.36135 0.54814 0.77901 0.0
H2111 H 0.39398 0.51247 0.72877 0.0
Li2112 Li 0.37955 0.12845 0.48152 0.0
Li2113 Li 0.43023 0.10103 0.48009 0.0
Li2114 Li 0.42894 0.15863 0.4776 0.0
Li2115 Li 0.40827 0.12571 0.45371 0.0
C2116 C 0.40791 0.1517 0.51185 0.0
N2117 N 0.39081 0.19057 0.53961 0.0
C2118 C 0.416 0.14322 0.52904 0.0
C2119 C 0.39106 0.17993 0.50879 0.0
C2120 C 0.40715 0.16319 0.5429 0.0
C2121 C 0.38267 0.19927 0.523 0.0
C2122 C 0.37621 0.06341 0.47506 0.0
C2123 C 0.34485 0.01537 0.47289 0.0
N2124 N 0.34811 0.01082 0.4905 0.0
C2125 C 0.37929 0.05825 0.49312 0.0
C2126 C 0.35888 0.04182 0.46484 0.0
C2127 C 0.36489 0.03152 0.50068 0.0
C2128 C 0.31282 0.13739 0.481 0.0
N2129 N 0.33745 0.12846 0.49152 0.0
C2130 C 0.30151 0.11919 0.51543 0.0
C2131 C 0.33237 0.11935 0.50844 0.0
C2132 C 0.2755 0.12847 0.50492 0.0
C2133 C 0.28158 0.13765 0.48746 0.0
H2134 H 0.31746 0.14427 0.46756 0.0
H2135 H 0.35224 0.11195 0.51652 0.0
C2136 C 0.47291 0.07502 0.50446 0.0
N2137 N 0.45638 0.06767 0.48965 0.0
C2138 C 0.49315 0.05261 0.51224 0.0
C2139 C 0.47944 0.01546 0.48921 0.0
C2140 C 0.45911 0.03851 0.48199 0.0
C2141 C 0.49688 0.02229 0.50459 0.0
H2142 H 0.47041 0.09843 0.51025 0.0
H2143 H 0.44574 0.03321 0.4702 0.0
C2144 C 0.38717 0.1883 0.45298 0.0
N2145 N 0.38546 0.23726 0.4287 0.0
C2146 C 0.41502 0.19768 0.44431 0.0
C2147 C 0.35845 0.20382 0.4493 0.0
C2148 C 0.41367 0.22248 0.43209 0.0
C2149 C 0.35808 0.22853 0.43699 0.0
C2150 C 0.47369 0.11007 0.45334 0.0
C2151 C 0.5059 0.11847 0.45276 0.0
C2152 C 0.46316 0.08289 0.44443 0.0
C2153 C 0.52713 0.09951 0.44323 0.0
C2154 C 0.48513 0.06455 0.43504 0.0
N2155 N 0.5164 0.07316 0.43464 0.0
C2156 C 0.48432 0.1892 0.48836 0.0
C2157 C 0.44365 0.2258 0.48071 0.0
C2158 C 0.50616 0.21403 0.49059 0.0
N2159 N 0.45399 0.19539 0.48311 0.0
C2160 C 0.46488 0.25132 0.48237 0.0
C2161 C 0.49694 0.24565 0.48702 0.0
H2162 H 0.49179 0.16477 0.49037 0.0
H2163 H 0.41926 0.23023 0.47682 0.0
C2164 C 0.37394 0.11618 0.42182 0.0
N2165 N 0.40254 0.12531 0.4286 0.0
C2166 C 0.36757 0.12004 0.40387 0.0
C2167 C 0.42031 0.14225 0.40023 0.0
C2168 C 0.42579 0.1376 0.41814 0.0
C2169 C 0.3907 0.13392 0.39291 0.0
H2170 H 0.35568 0.1069 0.43047 0.0
H2171 H 0.44824 0.14498 0.42381 0.0
O2172 O 0.41625 0.13211 0.49822 0.0
O2173 O 0.39001 0.08938 0.46728 0.0
O2174 O 0.38773 0.1636 0.46473 0.0
O2175 O 0.45272 0.12833 0.46273 0.0
H2176 H 0.42887 0.12135 0.53165 0.0
H2177 H 0.3844 0.18689 0.49563 0.0
H2178 H 0.41323 0.1569 0.55627 0.0
H2179 H 0.36963 0.22117 0.52081 0.0
H2180 H 0.33135 0.99847 0.46515 0.0
H2181 H 0.39261 0.07463 0.50126 0.0
H2182 H 0.35631 0.0455 0.45084 0.0
H2183 H 0.36706 0.02725 0.51464 0.0
H2184 H 0.29805 0.11139 0.52885 0.0
H2185 H 0.26246 0.14533 0.47889 0.0
H2186 H 0.50548 0.059 0.52422 0.0
H2187 H 0.48175 0.99273 0.4826 0.0
H2188 H 0.43746 0.18594 0.447 0.0
H2189 H 0.33666 0.19683 0.45587 0.0
H2190 H 0.43504 0.22995 0.42528 0.0
H2191 H 0.33601 0.24075 0.434 0.0
H2192 H 0.5144 0.13944 0.45962 0.0
H2193 H 0.43833 0.07594 0.44479 0.0
H2194 H 0.55215 0.10572 0.44266 0.0
H2195 H 0.47734 0.04344 0.4281 0.0
H2196 H 0.53016 0.20827 0.49472 0.0
H2197 H 0.45639 0.27502 0.47928 0.0
H2198 H 0.34439 0.11343 0.39876 0.0
H2199 H 0.43894 0.15265 0.39221 0.0
Li2200 Li 0.66678 0.68022 0.23009 0.0
Li2201 Li 0.63936 0.62955 0.23153 0.0
Li2202 Li 0.6421 0.65826 0.20371 0.0
Li2203 Li 0.60919 0.67893 0.2276 0.0
C2204 C 0.7044 0.62621 0.22506 0.0
N2205 N 0.757 0.59811 0.2405 0.0
C2206 C 0.70957 0.62928 0.24312 0.0
C2207 C 0.72599 0.60888 0.21485 0.0
C2208 C 0.73629 0.61489 0.25068 0.0
C2209 C 0.75244 0.59484 0.2229 0.0
C2210 C 0.61612 0.65791 0.26186 0.0
C2211 C 0.56855 0.63267 0.273 0.0
N2212 N 0.57725 0.64081 0.28962 0.0
C2213 C 0.62459 0.666 0.27904 0.0
C2214 C 0.58788 0.64106 0.25879 0.0
C2215 C 0.60462 0.65715 0.2929 0.0
C2216 C 0.6928 0.72291 0.25447 0.0
N2217 N 0.70015 0.70637 0.23965 0.0
C2218 C 0.75235 0.72943 0.23921 0.0
C2219 C 0.72931 0.70911 0.232 0.0
C2220 C 0.74553 0.74688 0.2546 0.0
C2221 C 0.7152 0.74315 0.26224 0.0
H2222 H 0.66938 0.72041 0.26025 0.0
H2223 H 0.7346 0.69574 0.2202 0.0
C2224 C 0.63043 0.56281 0.23101 0.0
N2225 N 0.63936 0.58744 0.24152 0.0
C2226 C 0.63016 0.53157 0.23746 0.0
C2227 C 0.64862 0.5515 0.26543 0.0
C2228 C 0.64847 0.58236 0.25844 0.0
C2229 C 0.63935 0.5255 0.25492 0.0
H2230 H 0.62355 0.56746 0.21756 0.0
H2231 H 0.65586 0.60223 0.26652 0.0
C2232 C 0.65775 0.72368 0.20335 0.0
N2233 N 0.69465 0.76639 0.18464 0.0
C2234 C 0.64934 0.7559 0.20276 0.0
C2235 C 0.68492 0.71316 0.19443 0.0
C2236 C 0.66831 0.77713 0.19323 0.0
C2237 C 0.70327 0.73513 0.18505 0.0
C2238 C 0.57951 0.63716 0.20298 0.0
C2239 C 0.57013 0.66501 0.19431 0.0
C2240 C 0.56399 0.60844 0.1993 0.0
C2241 C 0.54533 0.66366 0.18209 0.0
C2242 C 0.53928 0.60807 0.18699 0.0
N2243 N 0.53055 0.63546 0.1787 0.0
C2244 C 0.65163 0.62393 0.17182 0.0
C2245 C 0.63021 0.67579 0.16814 0.0
C2246 C 0.64777 0.61757 0.15387 0.0
N2247 N 0.6425 0.65254 0.17861 0.0
C2248 C 0.62556 0.6703 0.15023 0.0
C2249 C 0.63389 0.6407 0.14292 0.0
H2250 H 0.66092 0.60568 0.18047 0.0
H2251 H 0.62283 0.69824 0.17381 0.0
C2252 C 0.57861 0.73432 0.23836 0.0
N2253 N 0.57242 0.70399 0.23311 0.0
C2254 C 0.55379 0.75616 0.24059 0.0
C2255 C 0.51649 0.71488 0.23237 0.0
C2256 C 0.54202 0.69365 0.23071 0.0
C2257 C 0.52216 0.74694 0.23702 0.0
H2258 H 0.60304 0.74178 0.24037 0.0
H2259 H 0.53758 0.66926 0.22682 0.0
O2260 O 0.67843 0.64 0.21728 0.0
O2261 O 0.6357 0.66624 0.24823 0.0
O2262 O 0.63949 0.70271 0.21273 0.0
O2263 O 0.60421 0.63772 0.21473 0.0
H2264 H 0.69318 0.64261 0.25126 0.0
H2265 H 0.72231 0.60631 0.20084 0.0
H2266 H 0.74056 0.61706 0.26464 0.0
H2267 H 0.76935 0.58135 0.21515 0.0
H2268 H 0.54664 0.61963 0.27082 0.0
H2269 H 0.64646 0.67887 0.28165 0.0
H2270 H 0.58092 0.63439 0.24563 0.0
H2271 H 0.61091 0.66323 0.30627 0.0
H2272 H 0.77508 0.73174 0.2326 0.0
H2273 H 0.70882 0.75548 0.27422 0.0
H2274 H 0.62248 0.51246 0.22889 0.0
H2275 H 0.65642 0.54805 0.27885 0.0
H2276 H 0.62837 0.7644 0.20962 0.0
H2277 H 0.69187 0.68833 0.19479 0.0
H2278 H 0.66209 0.80214 0.19266 0.0
H2279 H 0.72438 0.72733 0.1781 0.0
H2280 H 0.58187 0.68745 0.197 0.0
H2281 H 0.57098 0.58665 0.20587 0.0
H2282 H 0.53786 0.68504 0.17528 0.0
H2283 H 0.52707 0.58601 0.18401 0.0
H2284 H 0.65439 0.59439 0.14876 0.0
H2285 H 0.61517 0.68893 0.14221 0.0
H2286 H 0.55954 0.78016 0.24472 0.0
H2287 H 0.49279 0.70638 0.22928 0.0
Li2288 Li 0.08759 0.91678 0.98009 0.0
Li2289 Li 0.13827 0.88936 0.98153 0.0
Li2290 Li 0.10955 0.8921 0.95371 0.0
Li2291 Li 0.08888 0.85918 0.9776 0.0
C2292 C 0.14161 0.9544 0.97506 0.0
N2293 N 0.1697 1.00699 0.9905 0.0
C2294 C 0.13853 0.95956 0.99312 0.0
C2295 C 0.15893 0.97599 0.96485 0.0
C2296 C 0.15292 0.98629 1.00068 0.0
C2297 C 0.17297 1.00244 0.9729 0.0
C2298 C 0.10991 0.86612 0.01186 0.0
C2299 C 0.13515 0.81855 0.023 0.0
N2300 N 0.12701 0.82725 0.03962 0.0
C2301 C 0.10182 0.87459 0.02904 0.0
C2302 C 0.12675 0.83788 0.00879 0.0
C2303 C 0.11067 0.85463 0.0429 0.0
C2304 C 0.0449 0.94279 1.00447 0.0
N2305 N 0.06144 0.95014 0.98965 0.0
C2306 C 0.03838 1.00235 0.98921 0.0
C2307 C 0.0587 0.9793 0.98199 0.0
C2308 C 0.02094 0.99552 1.0046 0.0
C2309 C 0.02466 0.9652 0.01224 0.0
H2310 H 0.04741 0.91938 0.01025 0.0
H2311 H 0.07207 0.9846 0.9702 0.0
C2312 C 0.205 0.88042 0.98101 0.0
N2313 N 0.18037 0.88935 0.99152 0.0
C2314 C 0.23624 0.88016 0.98746 0.0
C2315 C 0.21631 0.89862 0.01543 0.0
C2316 C 0.18545 0.89846 1.00844 0.0
C2317 C 0.24232 0.88934 1.00492 0.0
H2318 H 0.20035 0.87354 0.96756 0.0
H2319 H 0.16558 0.90585 0.01652 0.0
C2320 C 0.04413 0.90774 0.95335 0.0
N2321 N 1.00142 0.94464 0.93464 0.0
C2322 C 0.01192 0.89933 0.95277 0.0
C2323 C 0.05466 0.93491 0.94443 0.0
C2324 C 0.99068 0.9183 0.94323 0.0
C2325 C 0.03269 0.95326 0.93504 0.0
C2326 C 0.13065 0.82951 0.95298 0.0
C2327 C 0.10281 0.82012 0.94432 0.0
C2328 C 0.15937 0.81399 0.9493 0.0
C2329 C 0.10415 0.79532 0.93209 0.0
C2330 C 0.15974 0.78927 0.93699 0.0
N2331 N 0.13236 0.78054 0.92871 0.0
C2332 C 0.14388 0.90162 0.92183 0.0
C2333 C 0.09203 0.88021 0.91815 0.0
C2334 C 0.15025 0.89777 0.90387 0.0
N2335 N 0.11528 0.8925 0.92861 0.0
C2336 C 0.09751 0.87556 0.90023 0.0
C2337 C 0.12712 0.88389 0.89292 0.0
H2338 H 0.16214 0.91091 0.93047 0.0
H2339 H 0.06958 0.87282 0.92382 0.0
C2340 C 0.03349 0.82861 0.98837 0.0
N2341 N 0.06382 0.82242 0.98311 0.0
C2342 C 0.01166 0.80378 0.99059 0.0
C2343 C 0.05294 0.76649 0.98238 0.0
C2344 C 0.07417 0.79201 0.98071 0.0
C2345 C 0.02087 0.77216 0.98702 0.0
H2346 H 0.02603 0.85304 0.99037 0.0
H2347 H 0.09855 0.78757 0.97683 0.0
O2348 O 0.12781 0.92842 0.96728 0.0
O2349 O 0.10157 0.8857 0.99823 0.0
O2350 O 0.0651 0.88948 0.96273 0.0
O2351 O 0.13009 0.85421 0.96473 0.0
H2352 H 0.1252 0.94318 1.00126 0.0
H2353 H 0.16151 0.97231 0.95084 0.0
H2354 H 0.15075 0.99056 0.01464 0.0
H2355 H 0.18646 0.01935 0.96515 0.0
H2356 H 0.14818 0.79664 0.02082 0.0
H2357 H 0.08895 0.89646 0.03165 0.0
H2358 H 0.13342 0.83092 0.99564 0.0
H2359 H 0.10458 0.86092 0.05627 0.0
H2360 H 0.03607 0.02508 0.9826 0.0
H2361 H 0.01234 0.95882 0.02422 0.0
H2362 H 0.25536 0.87248 0.97889 0.0
H2363 H 0.21977 0.90642 0.02886 0.0
H2364 H 1.00342 0.87837 0.95962 0.0
H2365 H 0.07949 0.94187 0.94479 0.0
H2366 H 0.96567 0.91208 0.94266 0.0
H2367 H 0.04048 0.97437 0.9281 0.0
H2368 H 0.08036 0.83187 0.947 0.0
H2369 H 0.18116 0.82097 0.95587 0.0
H2370 H 0.08278 0.78785 0.92528 0.0
H2371 H 0.18181 0.77706 0.93401 0.0
H2372 H 0.17343 0.90438 0.89876 0.0
H2373 H 0.07888 0.86516 0.89221 0.0
H2374 H 0.98765 0.80954 0.99472 0.0
H2375 H 0.06143 0.74279 0.97928 0.0
Li2376 Li 0.87845 0.38826 0.73153 0.0
Li2377 Li 0.85103 0.33759 0.73009 0.0
Li2378 Li 0.90863 0.33888 0.7276 0.0
Li2379 Li 0.87571 0.35955 0.70371 0.0
C2380 C 0.9017 0.3599 0.76185 0.0
N2381 N 0.94057 0.377 0.78962 0.0
C2382 C 0.89322 0.35181 0.77904 0.0
C2383 C 0.92993 0.37675 0.75879 0.0
C2384 C 0.91319 0.36067 0.7929 0.0
C2385 C 0.94927 0.38515 0.773 0.0
C2386 C 0.81341 0.3916 0.72506 0.0
C2387 C 0.76537 0.42297 0.7229 0.0
N2388 N 0.76082 0.4197 0.7405 0.0
C2389 C 0.80825 0.38853 0.74312 0.0
C2390 C 0.79182 0.40893 0.71485 0.0
C2391 C 0.78153 0.40292 0.75068 0.0
C2392 C 0.88739 0.455 0.73101 0.0
N2393 N 0.87846 0.43037 0.74152 0.0
C2394 C 0.86919 0.46631 0.76543 0.0
C2395 C 0.86935 0.43545 0.75844 0.0
C2396 C 0.87847 0.49232 0.75492 0.0
C2397 C 0.88765 0.48624 0.73746 0.0
H2398 H 0.89427 0.45035 0.71756 0.0
H2399 H 0.86196 0.41558 0.76652 0.0
C2400 C 0.82502 0.2949 0.75446 0.0
N2401 N 0.81767 0.31144 0.73965 0.0
C2402 C 0.80261 0.27466 0.76224 0.0
C2403 C 0.76546 0.28838 0.73921 0.0
C2404 C 0.78851 0.3087 0.73199 0.0
C2405 C 0.77229 0.27094 0.75459 0.0
H2406 H 0.84843 0.2974 0.76025 0.0
H2407 H 0.78321 0.32207 0.7202 0.0
C2408 C 0.9383 0.38065 0.70298 0.0
N2409 N 0.98727 0.38235 0.6787 0.0
C2410 C 0.94768 0.3528 0.69431 0.0
C2411 C 0.95382 0.40937 0.6993 0.0
C2412 C 0.97248 0.35415 0.68209 0.0
C2413 C 0.97854 0.40974 0.68699 0.0
C2414 C 0.86007 0.29413 0.70334 0.0
C2415 C 0.86848 0.26191 0.70276 0.0
C2416 C 0.83289 0.30465 0.69443 0.0
C2417 C 0.84951 0.24068 0.69323 0.0
C2418 C 0.81455 0.28268 0.68504 0.0
N2419 N 0.82316 0.25142 0.68464 0.0
C2420 C 0.9392 0.28349 0.73836 0.0
C2421 C 0.9758 0.32416 0.73071 0.0
C2422 C 0.96403 0.26166 0.74059 0.0
N2423 N 0.94539 0.31382 0.73311 0.0
C2424 C 1.00132 0.30293 0.73237 0.0
C2425 C 0.99565 0.27087 0.73702 0.0
H2426 H 0.91477 0.27603 0.74037 0.0
H2427 H 0.98024 0.34855 0.72682 0.0
C2428 C 0.86618 0.39388 0.67182 0.0
N2429 N 0.87531 0.36528 0.67861 0.0
C2430 C 0.87004 0.40025 0.65387 0.0
C2431 C 0.89225 0.34751 0.65023 0.0
C2432 C 0.8876 0.34202 0.66814 0.0
C2433 C 0.88392 0.37712 0.64291 0.0
H2434 H 0.8569 0.41213 0.68047 0.0
H2435 H 0.89498 0.31957 0.67381 0.0
O2436 O 0.88211 0.35157 0.74822 0.0
O2437 O 0.83939 0.37781 0.71728 0.0
O2438 O 0.9136 0.38009 0.71473 0.0
O2439 O 0.87833 0.3151 0.71273 0.0
H2440 H 0.87135 0.33894 0.78165 0.0
H2441 H 0.93689 0.38342 0.74563 0.0
H2442 H 0.9069 0.35458 0.80627 0.0
H2443 H 0.97117 0.39818 0.77081 0.0
H2444 H 0.74847 0.43646 0.71515 0.0
H2445 H 0.82463 0.3752 0.75126 0.0
H2446 H 0.7955 0.41151 0.70084 0.0
H2447 H 0.77725 0.40075 0.76464 0.0
H2448 H 0.86139 0.46976 0.77885 0.0
H2449 H 0.89533 0.50536 0.72889 0.0
H2450 H 0.809 0.26233 0.77422 0.0
H2451 H 0.74273 0.28607 0.7326 0.0
H2452 H 0.93594 0.33036 0.697 0.0
H2453 H 0.94684 0.43116 0.70587 0.0
H2454 H 0.97995 0.33277 0.67528 0.0
H2455 H 0.99075 0.4318 0.68401 0.0
H2456 H 0.88944 0.25341 0.70962 0.0
H2457 H 0.82594 0.32948 0.69479 0.0
H2458 H 0.85573 0.21567 0.69266 0.0
H2459 H 0.79344 0.29048 0.6781 0.0
H2460 H 0.95827 0.23765 0.74472 0.0
H2461 H 0.02502 0.31143 0.72928 0.0
H2462 H 0.86343 0.42342 0.64876 0.0
H2463 H 0.90265 0.32888 0.64221 0.0
Li2464 Li 0.40827 0.8921 0.06329 0.0
Li2465 Li 0.42894 0.85918 0.0394 0.0
Li2466 Li 0.43023 0.91678 0.03691 0.0
Li2467 Li 0.37955 0.88936 0.03548 0.0
C2468 C 0.47368 0.90775 0.06366 0.0
N2469 N 0.51639 0.94465 0.08237 0.0
C2470 C 0.5059 0.89934 0.06424 0.0
C2471 C 0.46316 0.93492 0.07258 0.0
C2472 C 0.52713 0.9183 0.07378 0.0
C2473 C 0.48513 0.95327 0.08196 0.0
C2474 C 0.38717 0.82951 0.06403 0.0
C2475 C 0.35808 0.78928 0.08002 0.0
N2476 N 0.38546 0.78055 0.0883 0.0
C2477 C 0.41502 0.82013 0.07269 0.0
C2478 C 0.35845 0.81399 0.06771 0.0
C2479 C 0.41367 0.79533 0.08492 0.0
C2480 C 0.37394 0.90163 0.09518 0.0
N2481 N 0.40254 0.8925 0.0884 0.0
C2482 C 0.42031 0.87556 0.11678 0.0
C2483 C 0.42579 0.88021 0.09886 0.0
C2484 C 0.3907 0.88389 0.12409 0.0
C2485 C 0.36757 0.89777 0.11313 0.0
H2486 H 0.35568 0.91091 0.08654 0.0
H2487 H 0.44824 0.87283 0.09319 0.0
C2488 C 0.48432 0.82861 0.02864 0.0
N2489 N 0.45399 0.82242 0.0339 0.0
C2490 C 0.50616 0.80378 0.02642 0.0
C2491 C 0.46488 0.76649 0.03463 0.0
C2492 C 0.44365 0.79202 0.03629 0.0
C2493 C 0.49694 0.77216 0.02998 0.0
H2494 H 0.49179 0.85304 0.02664 0.0
H2495 H 0.41926 0.78758 0.04018 0.0
C2496 C 0.37621 0.9544 0.04195 0.0
N2497 N 0.34811 1.00699 0.02651 0.0
C2498 C 0.37929 0.95957 0.02388 0.0
C2499 C 0.35888 0.97599 0.05216 0.0
C2500 C 0.36489 0.98629 0.01633 0.0
C2501 C 0.34485 1.00244 0.04411 0.0
C2502 C 0.40791 0.86612 1.00515 0.0
C2503 C 0.416 0.87459 0.98797 0.0
C2504 C 0.39106 0.83788 1.00822 0.0
C2505 C 0.40715 0.85462 0.97411 0.0
C2506 C 0.38267 0.81855 0.99401 0.0
N2507 N 0.39081 0.82724 0.97739 0.0
C2508 C 0.47291 0.9428 0.01254 0.0
C2509 C 0.45911 0.9793 0.03501 0.0
C2510 C 0.49315 0.9652 1.00477 0.0
N2511 N 0.45637 0.95015 0.02735 0.0
C2512 C 0.47943 1.00235 0.0278 0.0
C2513 C 0.49688 0.99552 0.01241 0.0
H2514 H 0.47041 0.91938 1.00676 0.0
H2515 H 0.44574 0.9846 0.0468 0.0
C2516 C 0.31282 0.88042 0.036 0.0
N2517 N 0.33745 0.88936 0.02549 0.0
C2518 C 0.28158 0.88016 0.02955 0.0
C2519 C 0.30151 0.89862 1.00158 0.0
C2520 C 0.33237 0.89846 0.00856 0.0
C2521 C 0.2755 0.88934 0.01209 0.0
H2522 H 0.31746 0.87354 0.04945 0.0
H2523 H 0.35224 0.90586 1.00049 0.0
O2524 O 0.45272 0.88948 0.05428 0.0
O2525 O 0.38773 0.85421 0.05228 0.0
O2526 O 0.39001 0.92843 0.04972 0.0
O2527 O 0.41625 0.8857 0.01878 0.0
H2528 H 0.5144 0.87837 0.05739 0.0
H2529 H 0.43833 0.94187 0.07221 0.0
H2530 H 0.55215 0.91209 0.07435 0.0
H2531 H 0.47733 0.97438 0.0889 0.0
H2532 H 0.33602 0.77706 0.083 0.0
H2533 H 0.43746 0.83187 0.07001 0.0
H2534 H 0.33666 0.82098 0.06114 0.0
H2535 H 0.43505 0.78786 0.09173 0.0
H2536 H 0.43894 0.86516 0.1248 0.0
H2537 H 0.34439 0.90439 0.11824 0.0
H2538 H 0.53017 0.80954 0.02229 0.0
H2539 H 0.45639 0.74279 0.03773 0.0
H2540 H 0.39261 0.94318 0.01575 0.0
H2541 H 0.35631 0.97231 0.06617 0.0
H2542 H 0.36706 0.99056 1.00236 0.0
H2543 H 0.33135 0.01934 0.05185 0.0
H2544 H 0.42887 0.89646 0.98536 0.0
H2545 H 0.3844 0.83092 0.02137 0.0
H2546 H 0.41324 0.86091 0.96074 0.0
H2547 H 0.36963 0.79664 0.99619 0.0
H2548 H 0.50548 0.95882 0.99278 0.0
H2549 H 0.48175 0.02508 0.03441 0.0
H2550 H 0.26246 0.87248 0.03812 0.0
H2551 H 0.29805 0.90642 0.98815 0.0
Li2552 Li 0.90863 0.67893 0.7894 0.0
Li2553 Li 0.87571 0.65826 0.81329 0.0
Li2554 Li 0.87845 0.62955 0.78548 0.0
Li2555 Li 0.85103 0.68022 0.78691 0.0
C2556 C 0.9383 0.63716 0.81403 0.0
N2557 N 0.98727 0.63545 0.8383 0.0
C2558 C 0.94769 0.66501 0.82269 0.0
C2559 C 0.95382 0.60844 0.81771 0.0
C2560 C 0.97249 0.66366 0.83492 0.0
C2561 C 0.97853 0.60807 0.83002 0.0
C2562 C 0.86007 0.72368 0.81366 0.0
C2563 C 0.81455 0.73513 0.83196 0.0
N2564 N 0.82317 0.7664 0.83236 0.0
C2565 C 0.86848 0.7559 0.81424 0.0
C2566 C 0.8329 0.71316 0.82258 0.0
C2567 C 0.84951 0.77713 0.82377 0.0
C2568 C 0.9392 0.73432 0.77864 0.0
N2569 N 0.9454 0.70399 0.7839 0.0
C2570 C 1.00132 0.71488 0.78463 0.0
C2571 C 0.9758 0.69365 0.78629 0.0
C2572 C 0.99566 0.74694 0.77998 0.0
C2573 C 0.96403 0.75616 0.77642 0.0
H2574 H 0.91477 0.74178 0.77664 0.0
H2575 H 0.98024 0.66926 0.79018 0.0
C2576 C 0.86619 0.62393 0.84518 0.0
N2577 N 0.87531 0.65254 0.8384 0.0
C2578 C 0.87004 0.61757 0.86313 0.0
C2579 C 0.89225 0.6703 0.86678 0.0
C2580 C 0.8876 0.67579 0.84886 0.0
C2581 C 0.88392 0.6407 0.87409 0.0
H2582 H 0.8569 0.60568 0.83654 0.0
H2583 H 0.89498 0.69824 0.84319 0.0
C2584 C 0.9017 0.65791 0.75515 0.0
N2585 N 0.94057 0.64081 0.72739 0.0
C2586 C 0.89322 0.666 0.73796 0.0
C2587 C 0.92994 0.64106 0.75822 0.0
C2588 C 0.91319 0.65714 0.72411 0.0
C2589 C 0.94927 0.63266 0.74401 0.0
C2590 C 0.81341 0.62621 0.79195 0.0
C2591 C 0.80825 0.62928 0.77388 0.0
C2592 C 0.79182 0.60888 0.80216 0.0
C2593 C 0.78153 0.61489 0.76633 0.0
C2594 C 0.76537 0.59485 0.79411 0.0
N2595 N 0.76082 0.59811 0.77651 0.0
C2596 C 0.88739 0.56281 0.786 0.0
C2597 C 0.86935 0.58236 0.75856 0.0
C2598 C 0.88765 0.53157 0.77955 0.0
N2599 N 0.87846 0.58744 0.77549 0.0
C2600 C 0.86919 0.5515 0.75158 0.0
C2601 C 0.87847 0.5255 0.76209 0.0
H2602 H 0.89427 0.56746 0.79945 0.0
H2603 H 0.86196 0.60224 0.75049 0.0
C2604 C 0.82502 0.72291 0.76254 0.0
N2605 N 0.81767 0.70637 0.77735 0.0
C2606 C 0.80261 0.74315 0.75477 0.0
C2607 C 0.76546 0.72943 0.7778 0.0
C2608 C 0.78851 0.70911 0.78501 0.0
C2609 C 0.77229 0.74688 0.76241 0.0
H2610 H 0.84843 0.72041 0.75676 0.0
H2611 H 0.78321 0.69574 0.7968 0.0
O2612 O 0.9136 0.63772 0.80228 0.0
O2613 O 0.87833 0.70271 0.80428 0.0
O2614 O 0.88211 0.66624 0.76878 0.0
O2615 O 0.83939 0.64 0.79972 0.0
H2616 H 0.93595 0.68745 0.82001 0.0
H2617 H 0.94683 0.58665 0.81114 0.0
H2618 H 0.97995 0.68503 0.84173 0.0
H2619 H 0.99075 0.586 0.833 0.0
H2620 H 0.79344 0.72734 0.8389 0.0
H2621 H 0.88944 0.7644 0.80738 0.0
H2622 H 0.82594 0.68833 0.82222 0.0
H2623 H 0.85573 0.80215 0.82434 0.0
H2624 H 0.02502 0.70638 0.78773 0.0
H2625 H 0.95827 0.78016 0.77228 0.0
H2626 H 0.86343 0.59439 0.86825 0.0
H2627 H 0.90265 0.68894 0.8748 0.0
H2628 H 0.87135 0.67887 0.73536 0.0
H2629 H 0.93689 0.63439 0.77137 0.0
H2630 H 0.9069 0.66323 0.71074 0.0
H2631 H 0.97117 0.61963 0.74619 0.0
H2632 H 0.82463 0.64261 0.76575 0.0
H2633 H 0.7955 0.60631 0.81617 0.0
H2634 H 0.77725 0.61706 0.75236 0.0
H2635 H 0.74847 0.58135 0.80185 0.0
H2636 H 0.89533 0.51245 0.78812 0.0
H2637 H 0.86139 0.54805 0.73815 0.0
H2638 H 0.809 0.75548 0.74278 0.0
H2639 H 0.74273 0.73175 0.78441 0.0
Li2640 Li 0.08888 0.15863 0.5394 0.0
Li2641 Li 0.10955 0.12571 0.56329 0.0
Li2642 Li 0.13827 0.12845 0.53548 0.0
Li2643 Li 0.08759 0.10103 0.53691 0.0
C2644 C 0.13066 0.1883 0.56402 0.0
N2645 N 0.13236 0.23727 0.5883 0.0
C2646 C 0.10281 0.19769 0.57269 0.0
C2647 C 0.15937 0.20382 0.5677 0.0
C2648 C 0.10416 0.22249 0.58492 0.0
C2649 C 0.15974 0.22854 0.58001 0.0
C2650 C 0.04413 0.11007 0.56366 0.0
C2651 C 0.03268 0.06455 0.58196 0.0
N2652 N 1.00142 0.07317 0.58236 0.0
C2653 C 0.01191 0.11848 0.56424 0.0
C2654 C 0.05465 0.0829 0.57258 0.0
C2655 C 0.99068 0.09952 0.57377 0.0
C2656 C 0.0335 0.1892 0.52864 0.0
N2657 N 0.06383 0.1954 0.5339 0.0
C2658 C 0.05294 0.25132 0.53463 0.0
C2659 C 0.07417 0.2258 0.53629 0.0
C2660 C 0.02088 0.24565 0.52998 0.0
C2661 C 0.01166 0.21403 0.52642 0.0
H2662 H 0.02603 0.16477 0.52663 0.0
H2663 H 0.09855 0.23024 0.54018 0.0
C2664 C 0.14388 0.11619 0.59518 0.0
N2665 N 0.11528 0.12532 0.5884 0.0
C2666 C 0.15025 0.12004 0.61313 0.0
C2667 C 0.09751 0.14225 0.61677 0.0
C2668 C 0.09203 0.1376 0.59886 0.0
C2669 C 0.12712 0.13392 0.62409 0.0
H2670 H 0.16213 0.1069 0.58654 0.0
H2671 H 0.06958 0.14499 0.59319 0.0
C2672 C 0.10991 0.1517 0.50515 0.0
N2673 N 0.12701 0.19057 0.47739 0.0
C2674 C 0.10182 0.14322 0.48796 0.0
C2675 C 0.12675 0.17993 0.50821 0.0
C2676 C 0.11067 0.16319 0.4741 0.0
C2677 C 0.13515 0.19927 0.494 0.0
C2678 C 0.14161 0.06341 0.54195 0.0
C2679 C 0.13853 0.05825 0.52388 0.0
C2680 C 0.15893 0.04182 0.55216 0.0
C2681 C 0.15292 0.03153 0.51633 0.0
C2682 C 0.17297 0.01537 0.54411 0.0
N2683 N 0.1697 0.01082 0.52651 0.0
C2684 C 0.205 0.13739 0.536 0.0
C2685 C 0.18545 0.11935 0.50856 0.0
C2686 C 0.23624 0.13765 0.52955 0.0
N2687 N 0.18037 0.12846 0.52548 0.0
C2688 C 0.21631 0.11919 0.50157 0.0
C2689 C 0.24232 0.12847 0.51208 0.0
H2690 H 0.20035 0.14427 0.54945 0.0
H2691 H 0.16558 0.11196 0.50048 0.0
C2692 C 0.04491 0.07502 0.51254 0.0
N2693 N 0.06144 0.06767 0.52735 0.0
C2694 C 0.02466 0.05261 0.50477 0.0
C2695 C 0.03838 0.01546 0.5278 0.0
C2696 C 0.0587 0.03851 0.53501 0.0
C2697 C 0.02094 0.02229 0.51241 0.0
H2698 H 0.04741 0.09843 0.50675 0.0
H2699 H 0.07207 0.03321 0.5468 0.0
O2700 O 0.13009 0.1636 0.55228 0.0
O2701 O 0.0651 0.12833 0.55427 0.0
O2702 O 0.10157 0.13211 0.51878 0.0
O2703 O 0.12781 0.08939 0.54972 0.0
H2704 H 0.08036 0.18595 0.57001 0.0
H2705 H 0.18116 0.19684 0.56113 0.0
H2706 H 0.08278 0.22996 0.59173 0.0
H2707 H 0.18181 0.24075 0.58299 0.0
H2708 H 0.04048 0.04344 0.5889 0.0
H2709 H 1.00342 0.13944 0.55738 0.0
H2710 H 0.07948 0.07595 0.57221 0.0
H2711 H 0.96567 0.10573 0.57434 0.0
H2712 H 0.06143 0.27502 0.53773 0.0
H2713 H 0.98765 0.20827 0.52228 0.0
H2714 H 0.17342 0.11343 0.61824 0.0
H2715 H 0.07888 0.15265 0.6248 0.0
H2716 H 0.08895 0.12135 0.48535 0.0
H2717 H 0.13342 0.18689 0.52137 0.0
H2718 H 0.10459 0.1569 0.46074 0.0
H2719 H 0.14819 0.22117 0.49619 0.0
H2720 H 0.1252 0.07463 0.51575 0.0
H2721 H 0.1615 0.0455 0.56617 0.0
H2722 H 0.15075 0.02725 0.50236 0.0
H2723 H 0.18646 0.99847 0.55185 0.0
H2724 H 0.25536 0.14533 0.53812 0.0
H2725 H 0.21977 0.11139 0.48815 0.0
H2726 H 0.01234 0.059 0.49278 0.0
H2727 H 0.03607 0.99273 0.53441 0.0
Li2728 Li 0.6421 0.35955 0.31329 0.0
Li2729 Li 0.60919 0.33888 0.2894 0.0
Li2730 Li 0.66679 0.33759 0.28691 0.0
Li2731 Li 0.63936 0.38826 0.28548 0.0
C2732 C 0.65775 0.29413 0.31366 0.0
N2733 N 0.69465 0.25142 0.33236 0.0
C2734 C 0.64934 0.26191 0.31424 0.0
C2735 C 0.68492 0.30466 0.32258 0.0
C2736 C 0.66831 0.24069 0.32378 0.0
C2737 C 0.70327 0.28269 0.33196 0.0
C2738 C 0.57951 0.38065 0.31403 0.0
C2739 C 0.53928 0.40973 0.33002 0.0
N2740 N 0.53055 0.38235 0.3383 0.0
C2741 C 0.57013 0.3528 0.32269 0.0
C2742 C 0.56399 0.40936 0.31771 0.0
C2743 C 0.54533 0.35414 0.33492 0.0
C2744 C 0.65163 0.39388 0.34518 0.0
N2745 N 0.6425 0.36528 0.3384 0.0
C2746 C 0.62556 0.34751 0.36677 0.0
C2747 C 0.63021 0.34202 0.34886 0.0
C2748 C 0.63389 0.37712 0.37409 0.0
C2749 C 0.64777 0.40025 0.36313 0.0
H2750 H 0.66092 0.41213 0.33654 0.0
H2751 H 0.62283 0.31958 0.34319 0.0
C2752 C 0.57861 0.28349 0.27864 0.0
N2753 N 0.57242 0.31382 0.2839 0.0
C2754 C 0.55379 0.26165 0.27642 0.0
C2755 C 0.5165 0.30293 0.28463 0.0
C2756 C 0.54202 0.32416 0.28629 0.0
C2757 C 0.52216 0.27087 0.27998 0.0
H2758 H 0.60305 0.27603 0.27664 0.0
H2759 H 0.53758 0.34855 0.29018 0.0
C2760 C 0.7044 0.39161 0.29195 0.0
N2761 N 0.757 0.4197 0.27651 0.0
C2762 C 0.70957 0.38853 0.27388 0.0
C2763 C 0.72599 0.40893 0.30216 0.0
C2764 C 0.73629 0.40292 0.26633 0.0
C2765 C 0.75244 0.42297 0.29411 0.0
C2766 C 0.61612 0.3599 0.25515 0.0
C2767 C 0.62459 0.35181 0.23796 0.0
C2768 C 0.58788 0.37675 0.25822 0.0
C2769 C 0.60462 0.36066 0.22411 0.0
C2770 C 0.56855 0.38515 0.24401 0.0
N2771 N 0.57725 0.377 0.22739 0.0
C2772 C 0.6928 0.2949 0.26254 0.0
C2773 C 0.72931 0.3087 0.28501 0.0
C2774 C 0.71521 0.27466 0.25477 0.0
N2775 N 0.70015 0.31144 0.27735 0.0
C2776 C 0.75235 0.28838 0.2778 0.0
C2777 C 0.74553 0.27094 0.26241 0.0
H2778 H 0.66938 0.2974 0.25676 0.0
H2779 H 0.73461 0.32207 0.2968 0.0
C2780 C 0.63042 0.455 0.286 0.0
N2781 N 0.63936 0.43037 0.27549 0.0
C2782 C 0.63016 0.48624 0.27955 0.0
C2783 C 0.64862 0.46631 0.25158 0.0
C2784 C 0.64847 0.43545 0.25856 0.0
C2785 C 0.63935 0.49232 0.26209 0.0
H2786 H 0.62354 0.45035 0.29945 0.0
H2787 H 0.65586 0.41558 0.25049 0.0
O2788 O 0.63949 0.3151 0.30428 0.0
O2789 O 0.60421 0.38009 0.30228 0.0
O2790 O 0.67843 0.37781 0.29972 0.0
O2791 O 0.6357 0.35157 0.26878 0.0
H2792 H 0.62838 0.25341 0.30739 0.0
H2793 H 0.69187 0.32949 0.32221 0.0
H2794 H 0.66209 0.21567 0.32435 0.0
H2795 H 0.72438 0.29049 0.3389 0.0
H2796 H 0.52706 0.4318 0.333 0.0
H2797 H 0.58187 0.33035 0.32001 0.0
H2798 H 0.57098 0.43115 0.31114 0.0
H2799 H 0.53786 0.33277 0.34173 0.0
H2800 H 0.61517 0.32888 0.3748 0.0
H2801 H 0.65439 0.42342 0.36824 0.0
H2802 H 0.55955 0.23765 0.27228 0.0
H2803 H 0.49279 0.31143 0.28773 0.0
H2804 H 0.69319 0.3752 0.26575 0.0
H2805 H 0.72231 0.41151 0.31617 0.0
H2806 H 0.74056 0.40075 0.25236 0.0
H2807 H 0.76935 0.43646 0.30185 0.0
H2808 H 0.64646 0.33894 0.23535 0.0
H2809 H 0.58092 0.38342 0.27137 0.0
H2810 H 0.61091 0.35458 0.21074 0.0
H2811 H 0.54664 0.39818 0.24619 0.0
H2812 H 0.70882 0.26233 0.24278 0.0
H2813 H 0.77508 0.28607 0.28441 0.0
H2814 H 0.62248 0.50536 0.28812 0.0
H2815 H 0.65642 0.46976 0.23815 0.0
loop_
_geom_bond_atom_site_label_1
_geom_bond_atom_site_label_2
_geom_bond_distance
_geom_bond_site_symmetry_2
_ccdc_geom_bond_type
Li0 N17 1.990 . S
Li0 O60 1.956 . S
Li0 O61 1.970 . S
Li0 O62 1.961 . S
Li1 N25 1.990 . S
Li1 O60 1.970 . S
Li1 O61 1.956 . S
Li1 O63 1.961 . S
Li2 N47 1.990 . S
Li2 O60 1.961 . S
Li2 O62 1.956 . S
Li2 O63 1.970 . S
Li3 N53 1.990 . S
Li3 O61 1.961 . S
Li3 O62 1.970 . S
Li3 O63 1.956 . S
C4 C6 1.348 . S
C4 C7 1.356 . S
C4 O60 1.325 . S
N5 C8 1.314 . S
N5 C9 1.279 . S
C6 C4 1.348 . S
C6 C8 1.353 . S
C6 H64 0.929 . S
C7 C4 1.356 . S
C7 C9 1.358 . S
C7 H65 0.930 . S
C8 N5 1.314 . S
C8 C6 1.353 . S
C8 H66 0.930 . S
C9 N5 1.279 . S
C9 C7 1.358 . S
C9 H67 0.930 . S
C10 C13 1.348 . S
C10 C14 1.356 . S
C10 O61 1.325 . S
C11 N12 1.279 . S
C11 C14 1.358 . S
C11 H68 0.930 . S
N12 C11 1.279 . S
N12 C15 1.314 . S
C13 C10 1.348 . S
C13 C15 1.353 . S
C13 H69 0.929 . S
C14 C10 1.356 . S
C14 C11 1.358 . S
C14 H70 0.930 . S
C15 N12 1.314 . S
C15 C13 1.353 . S
C15 H71 0.930 . S
C16 N17 1.314 1_556 S
C16 C21 1.353 . S
C16 H22 0.930 . S
N17 Li0 1.990 . S
N17 C16 1.314 1_554 S
N17 C19 1.279 . S
C18 C19 1.358 . S
C18 C20 1.356 1_554 S
C18 H72 0.930 . S
C19 N17 1.279 . S
C19 C18 1.358 . S
C19 H23 0.930 . S
C20 C18 1.356 1_556 S
C20 C21 1.348 . S
C21 C16 1.353 . S
C21 C20 1.348 . S
C21 H73 0.929 . S
H22 C16 0.930 . S
H23 C19 0.930 . S
C24 N25 1.314 . S
C24 C26 1.353 . S
C24 H30 0.930 . S
N25 Li1 1.990 . S
N25 C24 1.314 . S
N25 C28 1.279 . S
C26 C24 1.353 . S
C26 C29 1.348 . S
C26 H74 0.929 . S
C27 C28 1.358 . S
C27 C29 1.356 . S
C27 H75 0.930 . S
C28 N25 1.279 . S
C28 C27 1.358 . S
C28 H31 0.930 . S
C29 C26 1.348 . S
C29 C27 1.356 . S
H30 C24 0.930 . S
H31 C28 0.930 . S
C32 C34 1.348 . S
C32 C35 1.356 . S
C32 O62 1.325 1_556 S
N33 C36 1.314 . S
N33 C37 1.279 . S
C34 C32 1.348 . S
C34 C36 1.353 . S
C34 H76 0.929 . S
C35 C32 1.356 . S
C35 C37 1.358 . S
C35 H77 0.930 . S
C36 N33 1.314 . S
C36 C34 1.353 . S
C36 H78 0.930 . S
C37 N33 1.279 . S
C37 C35 1.358 . S
C37 H79 0.930 . S
C38 C39 1.348 . S
C38 C40 1.356 . S
C38 O63 1.325 . S
C39 C38 1.348 . S
C39 C41 1.353 1_455 S
C39 H80 0.929 . S
C40 C38 1.356 . S
C40 C42 1.358 1_455 S
C40 H81 0.930 . S
C41 C39 1.353 1_655 S
C41 N43 1.314 . S
C41 H82 0.930 . S
C42 C40 1.358 1_655 S
C42 N43 1.279 . S
C42 H83 0.930 . S
N43 C41 1.314 . S
N43 C42 1.279 . S
C44 C46 1.353 . S
C44 N47 1.314 . S
C44 H50 0.930 . S
C45 N47 1.279 . S
C45 C48 1.358 . S
C45 H51 0.925 1_554 S
C46 C44 1.353 . S
C46 C49 1.348 . S
C46 H84 0.929 . S
N47 Li2 1.990 . S
N47 C44 1.314 . S
N47 C45 1.279 . S
C48 C45 1.358 . S
C48 C49 1.356 . S
C48 H85 0.930 1_554 S
C49 C46 1.348 . S
C49 C48 1.356 . S
H50 C44 0.930 . S
H51 C45 0.925 1_556 S
C52 N53 1.314 . S
C52 C54 1.353 . S
C52 H58 0.930 . S
N53 Li3 1.990 . S
N53 C52 1.314 . S
N53 C56 1.279 . S
C54 C52 1.353 . S
C54 C57 1.348 . S
C54 H86 0.929 1_554 S
C55 C56 1.358 . S
C55 C57 1.356 . S
C55 H87 0.930 1_455 S
C56 N53 1.279 . S
C56 C55 1.358 . S
C56 H59 0.930 . S
C57 C54 1.348 . S
C57 C55 1.356 . S
H58 C52 0.930 . S
H59 C56 0.930 . S
O60 Li0 1.956 . S
O60 Li1 1.970 . S
O60 Li2 1.961 . S
O60 C4 1.325 . S
O61 Li0 1.970 . S
O61 Li1 1.956 . S
O61 Li3 1.961 . S
O61 C10 1.325 . S
O62 Li0 1.961 . S
O62 Li2 1.956 . S
O62 Li3 1.970 . S
O62 C32 1.325 1_554 S
O63 Li1 1.961 . S
O63 Li2 1.970 . S
O63 Li3 1.956 . S
O63 C38 1.325 . S
H64 C6 0.929 . S
H65 C7 0.930 . S
H66 C8 0.930 . S
H67 C9 0.930 . S
H68 C11 0.930 . S
H69 C13 0.929 . S
H70 C14 0.930 . S
H71 C15 0.930 . S
H72 C18 0.930 . S
H73 C21 0.929 . S
H74 C26 0.929 . S
H75 C27 0.930 . S
H76 C34 0.929 . S
H77 C35 0.930 . S
H78 C36 0.930 . S
H79 C37 0.930 . S
H80 C39 0.929 . S
H81 C40 0.930 . S
H82 C41 0.930 . S
H83 C42 0.930 . S
H84 C46 0.929 . S
H85 C48 0.930 1_556 S
H86 C54 0.929 1_556 S
H87 C55 0.930 1_655 S
Li88 N105 1.990 . S
Li88 O148 1.956 . S
Li88 O149 1.970 . S
Li88 O150 1.961 . S
Li89 N113 1.990 . S
Li89 O148 1.970 . S
Li89 O149 1.956 . S
Li89 O151 1.961 . S
Li90 N135 1.990 . S
Li90 O148 1.961 . S
Li90 O150 1.956 . S
Li90 O151 1.970 . S
Li91 N141 1.990 . S
Li91 O149 1.961 . S
Li91 O150 1.970 . S
Li91 O151 1.956 . S
C92 C94 1.348 . S
C92 C95 1.356 . S
C92 O148 1.325 . S
N93 C96 1.314 . S
N93 C97 1.279 . S
C94 C92 1.348 . S
C94 C96 1.353 . S
C94 H152 0.929 . S
C95 C92 1.356 . S
C95 C97 1.358 . S
C95 H153 0.930 . S
C96 N93 1.314 . S
C96 C94 1.353 . S
C96 H154 0.930 . S
C97 N93 1.279 . S
C97 C95 1.358 . S
C97 H155 0.930 . S
C98 C101 1.348 . S
C98 C102 1.356 . S
C98 O149 1.325 . S
C99 N100 1.279 . S
C99 C102 1.358 . S
C99 H156 0.930 . S
N100 C99 1.279 . S
N100 C103 1.314 . S
C101 C98 1.348 . S
C101 C103 1.353 . S
C101 H157 0.929 . S
C102 C98 1.356 . S
C102 C99 1.358 . S
C102 H158 0.930 . S
C103 N100 1.314 . S
C103 C101 1.353 . S
C103 H159 0.930 . S
C104 N105 1.314 . S
C104 C109 1.353 . S
C104 H110 0.930 . S
N105 Li88 1.990 . S
N105 C104 1.314 . S
N105 C107 1.279 . S
C106 C107 1.358 . S
C106 C108 1.356 . S
C106 H160 0.930 . S
C107 N105 1.279 . S
C107 C106 1.358 . S
C107 H111 0.930 . S
C108 C106 1.356 . S
C108 C109 1.348 . S
C109 C104 1.353 . S
C109 C108 1.348 . S
C109 H161 0.929 . S
H110 C104 0.930 . S
H111 C107 0.930 . S
C112 N113 1.314 . S
C112 C114 1.353 . S
C112 H118 0.930 . S
N113 Li89 1.990 . S
N113 C112 1.314 . S
N113 C116 1.279 . S
C114 C112 1.353 . S
C114 C117 1.348 . S
C114 H162 0.929 . S
C115 C116 1.358 . S
C115 C117 1.356 . S
C115 H163 0.930 . S
C116 N113 1.279 . S
C116 C115 1.358 . S
C116 H119 0.930 . S
C117 C114 1.348 . S
C117 C115 1.356 . S
H118 C112 0.930 . S
H119 C116 0.930 . S
C120 C122 1.348 . S
C120 C123 1.356 . S
C120 O150 1.325 . S
N121 C124 1.314 . S
N121 C125 1.279 . S
C122 C120 1.348 . S
C122 C124 1.353 . S
C122 H164 0.929 . S
C123 C120 1.356 . S
C123 C125 1.358 . S
C123 H165 0.930 . S
C124 N121 1.314 . S
C124 C122 1.353 . S
C124 H166 0.930 . S
C125 N121 1.279 . S
C125 C123 1.358 . S
C125 H167 0.930 . S
C126 C127 1.348 . S
C126 C128 1.356 . S
C126 O151 1.325 . S
C127 C126 1.348 . S
C127 C129 1.353 . S
C127 H168 0.929 . S
C128 C126 1.356 . S
C128 C130 1.358 . S
C128 H169 0.930 . S
C129 C127 1.353 . S
C129 N131 1.314 . S
C129 H170 0.930 . S
C130 C128 1.358 . S
C130 N131 1.279 . S
C130 H171 0.930 . S
N131 C129 1.314 . S
N131 C130 1.279 . S
C132 C134 1.353 . S
C132 N135 1.314 . S
C132 H138 0.930 . S
C133 N135 1.279 . S
C133 C136 1.358 . S
C133 H139 0.930 . S
C134 C132 1.353 . S
C134 C137 1.353 . S
C134 H172 0.929 1_655 S
N135 Li90 1.990 . S
N135 C132 1.314 . S
N135 C133 1.279 . S
C136 C133 1.358 . S
C136 C137 1.378 . S
C136 H173 0.930 . S
C137 C134 1.353 . S
C137 C136 1.378 . S
H138 C132 0.930 . S
H139 C133 0.930 . S
C140 N141 1.314 . S
C140 C142 1.353 . S
C140 H146 0.930 . S
N141 Li91 1.990 . S
N141 C140 1.314 . S
N141 C144 1.279 . S
C142 C140 1.353 . S
C142 C145 1.348 . S
C142 H174 0.929 . S
C143 C144 1.358 . S
C143 C145 1.356 . S
C143 H175 0.930 . S
C144 N141 1.279 . S
C144 C143 1.358 . S
C144 H147 0.930 . S
C145 C142 1.348 . S
C145 C143 1.356 . S
H146 C140 0.930 . S
H147 C144 0.930 . S
O148 Li88 1.956 . S
O148 Li89 1.970 . S
O148 Li90 1.961 . S
O148 C92 1.325 . S
O149 Li88 1.970 . S
O149 Li89 1.956 . S
O149 Li91 1.961 . S
O149 C98 1.325 . S
O150 Li88 1.961 . S
O150 Li90 1.956 . S
O150 Li91 1.970 . S
O150 C120 1.325 . S
O151 Li89 1.961 . S
O151 Li90 1.970 . S
O151 Li91 1.956 . S
O151 C126 1.325 . S
H152 C94 0.929 . S
H153 C95 0.930 . S
H154 C96 0.930 . S
H155 C97 0.930 . S
H156 C99 0.930 . S
H157 C101 0.929 . S
H158 C102 0.930 . S
H159 C103 0.930 . S
H160 C106 0.930 . S
H161 C109 0.929 . S
H162 C114 0.929 . S
H163 C115 0.930 . S
H164 C122 0.929 . S
H165 C123 0.930 . S
H166 C124 0.930 . S
H167 C125 0.930 . S
H168 C127 0.929 . S
H169 C128 0.930 . S
H170 C129 0.930 . S
H171 C130 0.930 . S
H172 C134 0.929 1_455 S
H173 C136 0.930 . S
H174 C142 0.929 . S
H175 C143 0.930 . S
Li176 N193 1.990 . S
Li176 O236 1.956 . S
Li176 O237 1.970 . S
Li176 O238 1.961 . S
Li177 N201 1.990 . S
Li177 O236 1.970 . S
Li177 O237 1.956 . S
Li177 O239 1.961 . S
Li178 N223 1.990 . S
Li178 O236 1.961 . S
Li178 O238 1.956 . S
Li178 O239 1.970 . S
Li179 N229 1.990 . S
Li179 O237 1.961 . S
Li179 O238 1.970 . S
Li179 O239 1.956 . S
C180 C182 1.348 . S
C180 C183 1.356 . S
C180 O236 1.325 . S
N181 C184 1.314 . S
N181 C185 1.279 . S
C182 C180 1.348 . S
C182 C184 1.353 . S
C182 H240 0.929 . S
C183 C180 1.356 . S
C183 C185 1.358 . S
C183 H241 0.930 . S
C184 N181 1.314 . S
C184 C182 1.353 . S
C184 H242 0.930 . S
C185 N181 1.279 . S
C185 C183 1.358 . S
C185 H243 0.930 . S
C186 C189 1.348 . S
C186 C190 1.356 . S
C186 O237 1.325 . S
C187 N188 1.279 . S
C187 C190 1.358 . S
C187 H244 0.930 . S
N188 C187 1.279 . S
N188 C191 1.314 . S
C189 C186 1.348 . S
C189 C191 1.353 . S
C189 H245 0.929 . S
C190 C186 1.356 . S
C190 C187 1.358 . S
C190 H246 0.930 . S
C191 N188 1.314 . S
C191 C189 1.353 . S
C191 H247 0.930 . S
C192 N193 1.314 . S
C192 C197 1.353 . S
C192 H198 0.930 . S
N193 Li176 1.990 . S
N193 C192 1.314 . S
N193 C195 1.279 . S
C194 C195 1.358 . S
C194 C196 1.356 . S
C194 H248 0.930 . S
C195 N193 1.279 . S
C195 C194 1.358 . S
C195 H199 0.930 . S
C196 C194 1.356 . S
C196 C197 1.348 . S
C197 C192 1.353 . S
C197 C196 1.348 . S
C197 H249 0.929 . S
H198 C192 0.930 . S
H199 C195 0.930 . S
C200 N201 1.314 . S
C200 C202 1.353 . S
C200 H206 0.930 . S
N201 Li177 1.990 . S
N201 C200 1.314 . S
N201 C204 1.279 . S
C202 C200 1.353 . S
C202 C205 1.348 . S
C202 H250 0.929 . S
C203 C204 1.358 . S
C203 C205 1.356 . S
C203 H251 0.930 . S
C204 N201 1.279 . S
C204 C203 1.358 . S
C204 H207 0.930 . S
C205 C202 1.348 . S
C205 C203 1.356 . S
H206 C200 0.930 . S
H207 C204 0.930 . S
C208 C210 1.348 . S
C208 C211 1.356 . S
C208 O238 1.325 . S
N209 C212 1.314 . S
N209 C213 1.279 . S
C210 C208 1.348 . S
C210 C212 1.353 . S
C210 H252 0.929 . S
C211 C208 1.356 . S
C211 C213 1.358 . S
C211 H253 0.930 . S
C212 N209 1.314 . S
C212 C210 1.353 . S
C212 H254 0.930 . S
C213 N209 1.279 . S
C213 C211 1.358 . S
C213 H255 0.930 . S
C214 C215 1.348 . S
C214 C216 1.356 . S
C214 O239 1.325 . S
C215 C214 1.348 . S
C215 C217 1.353 . S
C215 H256 0.929 . S
C216 C214 1.356 . S
C216 C218 1.358 . S
C216 H257 0.930 . S
C217 C215 1.353 . S
C217 N219 1.314 . S
C217 H258 0.930 . S
C218 C216 1.358 . S
C218 N219 1.279 . S
C218 H259 0.930 . S
N219 C217 1.314 . S
N219 C218 1.279 . S
C220 C222 1.353 . S
C220 N223 1.314 . S
C220 H226 0.930 . S
C221 N223 1.279 . S
C221 C224 1.358 . S
C221 H227 0.930 . S
C222 C220 1.353 . S
C222 C225 1.348 . S
C222 H260 0.929 . S
N223 Li178 1.990 . S
N223 C220 1.314 . S
N223 C221 1.279 . S
C224 C221 1.358 . S
C224 C225 1.356 . S
C224 H261 0.930 . S
C225 C222 1.348 . S
C225 C224 1.356 . S
H226 C220 0.930 . S
H227 C221 0.930 . S
C228 N229 1.314 . S
C228 C230 1.353 . S
C228 H234 0.930 . S
N229 Li179 1.990 . S
N229 C228 1.314 . S
N229 C232 1.279 . S
C230 C228 1.353 . S
C230 C233 1.348 . S
C230 H262 0.929 . S
C231 C232 1.358 . S
C231 C233 1.356 . S
C231 H263 0.930 . S
C232 N229 1.279 . S
C232 C231 1.358 . S
C232 H235 0.930 . S
C233 C230 1.348 . S
C233 C231 1.356 . S
H234 C228 0.930 . S
H235 C232 0.930 . S
O236 Li176 1.956 . S
O236 Li177 1.970 . S
O236 Li178 1.961 . S
O236 C180 1.325 . S
O237 Li176 1.970 . S
O237 Li177 1.956 . S
O237 Li179 1.961 . S
O237 C186 1.325 . S
O238 Li176 1.961 . S
O238 Li178 1.956 . S
O238 Li179 1.970 . S
O238 C208 1.325 . S
O239 Li177 1.961 . S
O239 Li178 1.970 . S
O239 Li179 1.956 . S
O239 C214 1.325 . S
H240 C182 0.929 . S
H241 C183 0.930 . S
H242 C184 0.930 . S
H243 C185 0.930 . S
H244 C187 0.930 . S
H245 C189 0.929 . S
H246 C190 0.930 . S
H247 C191 0.930 . S
H248 C194 0.930 . S
H249 C197 0.929 . S
H250 C202 0.929 . S
H251 C203 0.930 . S
H252 C210 0.929 . S
H253 C211 0.930 . S
H254 C212 0.930 . S
H255 C213 0.930 . S
H256 C215 0.929 . S
H257 C216 0.930 . S
H258 C217 0.930 . S
H259 C218 0.930 . S
H260 C222 0.929 . S
H261 C224 0.930 . S
H262 C230 0.929 . S
H263 C231 0.930 . S
Li264 N281 1.990 . S
Li264 O324 1.956 . S
Li264 O325 1.970 . S
Li264 O326 1.961 . S
Li265 N289 1.990 . S
Li265 O324 1.970 . S
Li265 O325 1.956 . S
Li265 O327 1.961 . S
Li266 N311 1.990 . S
Li266 O324 1.961 . S
Li266 O326 1.956 . S
Li266 O327 1.970 . S
Li267 N317 1.990 . S
Li267 O325 1.961 . S
Li267 O326 1.970 . S
Li267 O327 1.956 . S
C268 C270 1.348 . S
C268 C271 1.356 . S
C268 O324 1.325 . S
N269 C272 1.314 . S
N269 C273 1.279 . S
C270 C268 1.348 . S
C270 C272 1.353 . S
C270 H328 0.929 . S
C271 C268 1.356 . S
C271 C273 1.358 . S
C271 H329 0.930 . S
C272 N269 1.314 . S
C272 C270 1.353 . S
C272 H330 0.930 . S
C273 N269 1.279 . S
C273 C271 1.358 . S
C273 H331 0.930 . S
C274 C277 1.348 . S
C274 C278 1.356 . S
C274 O325 1.325 . S
C275 N276 1.279 . S
C275 C278 1.358 . S
C275 H332 0.930 . S
N276 C275 1.279 . S
N276 C279 1.314 . S
C277 C274 1.348 . S
C277 C279 1.353 . S
C277 H333 0.929 . S
C278 C274 1.356 . S
C278 C275 1.358 . S
C278 H334 0.930 . S
C279 N276 1.314 . S
C279 C277 1.353 . S
C279 H335 0.930 . S
C280 N281 1.314 . S
C280 C285 1.353 . S
C280 H286 0.930 . S
N281 Li264 1.990 . S
N281 C280 1.314 . S
N281 C283 1.279 . S
C282 C283 1.358 . S
C282 C284 1.356 . S
C282 H336 0.930 . S
C283 N281 1.279 . S
C283 C282 1.358 . S
C283 H287 0.930 . S
C284 C282 1.356 . S
C284 C285 1.348 . S
C285 C280 1.353 . S
C285 C284 1.348 . S
C285 H337 0.929 . S
H286 C280 0.930 . S
H287 C283 0.930 . S
C288 N289 1.314 . S
C288 C290 1.353 . S
C288 H294 0.930 . S
N289 Li265 1.990 . S
N289 C288 1.314 . S
N289 C292 1.279 . S
C290 C288 1.353 . S
C290 C293 1.348 . S
C290 H338 0.929 . S
C291 C292 1.358 . S
C291 C293 1.356 . S
C291 H339 0.930 . S
C292 N289 1.279 . S
C292 C291 1.358 . S
C292 H295 0.930 . S
C293 C290 1.348 . S
C293 C291 1.356 . S
H294 C288 0.930 . S
H295 C292 0.930 . S
C296 C298 1.348 . S
C296 C299 1.356 . S
C296 O326 1.325 . S
N297 C300 1.314 . S
N297 C301 1.279 . S
C298 C296 1.348 . S
C298 C300 1.353 . S
C298 H340 0.929 . S
C299 C296 1.356 . S
C299 C301 1.358 . S
C299 H341 0.930 . S
C300 N297 1.314 . S
C300 C298 1.353 . S
C300 H342 0.930 . S
C301 N297 1.279 . S
C301 C299 1.358 . S
C301 H343 0.930 . S
C302 C303 1.348 . S
C302 C304 1.356 . S
C302 O327 1.325 . S
C303 C302 1.348 . S
C303 C305 1.353 . S
C303 H344 0.929 . S
C304 C302 1.356 . S
C304 C306 1.358 . S
C304 H345 0.930 . S
C305 C303 1.353 . S
C305 N307 1.314 . S
C305 H346 0.930 . S
C306 C304 1.358 . S
C306 N307 1.279 . S
C306 H347 0.930 . S
N307 C305 1.314 . S
N307 C306 1.279 . S
C308 C310 1.353 . S
C308 N311 1.314 . S
C308 H314 0.930 . S
C309 N311 1.279 . S
C309 C312 1.358 . S
C309 H315 0.930 . S
C310 C308 1.353 . S
C310 C313 1.348 . S
C310 H348 0.929 . S
N311 Li266 1.990 . S
N311 C308 1.314 . S
N311 C309 1.279 . S
C312 C309 1.358 . S
C312 C313 1.356 . S
C312 H349 0.930 . S
C313 C310 1.348 . S
C313 C312 1.356 . S
H314 C308 0.930 . S
H315 C309 0.930 . S
C316 N317 1.314 . S
C316 C318 1.353 . S
C316 H322 0.930 . S
N317 Li267 1.990 . S
N317 C316 1.314 . S
N317 C320 1.279 . S
C318 C316 1.353 . S
C318 C321 1.348 . S
C318 H350 0.929 . S
C319 C320 1.358 . S
C319 C321 1.356 . S
C319 H351 0.930 . S
C320 N317 1.279 . S
C320 C319 1.358 . S
C320 H323 0.930 . S
C321 C318 1.348 . S
C321 C319 1.356 . S
H322 C316 0.930 . S
H323 C320 0.930 . S
O324 Li264 1.956 . S
O324 Li265 1.970 . S
O324 Li266 1.961 . S
O324 C268 1.325 . S
O325 Li264 1.970 . S
O325 Li265 1.956 . S
O325 Li267 1.961 . S
O325 C274 1.325 . S
O326 Li264 1.961 . S
O326 Li266 1.956 . S
O326 Li267 1.970 . S
O326 C296 1.325 . S
O327 Li265 1.961 . S
O327 Li266 1.970 . S
O327 Li267 1.956 . S
O327 C302 1.325 . S
H328 C270 0.929 . S
H329 C271 0.930 . S
H330 C272 0.930 . S
H331 C273 0.930 . S
H332 C275 0.930 . S
H333 C277 0.929 . S
H334 C278 0.930 . S
H335 C279 0.930 . S
H336 C282 0.930 . S
H337 C285 0.929 . S
H338 C290 0.929 . S
H339 C291 0.930 . S
H340 C298 0.929 . S
H341 C299 0.930 . S
H342 C300 0.930 . S
H343 C301 0.930 . S
H344 C303 0.929 . S
H345 C304 0.930 . S
H346 C305 0.930 . S
H347 C306 0.930 . S
H348 C310 0.929 . S
H349 C312 0.930 . S
H350 C318 0.929 . S
H351 C319 0.930 . S
Li352 N369 1.990 . S
Li352 O412 1.956 . S
Li352 O413 1.970 . S
Li352 O414 1.961 . S
Li353 N377 1.990 . S
Li353 O412 1.970 . S
Li353 O413 1.956 . S
Li353 O415 1.961 . S
Li354 N399 1.990 . S
Li354 O412 1.961 . S
Li354 O414 1.956 . S
Li354 O415 1.970 . S
Li355 N405 1.990 . S
Li355 O413 1.961 . S
Li355 O414 1.970 . S
Li355 O415 1.956 . S
C356 C358 1.348 . S
C356 C359 1.356 . S
C356 O412 1.325 . S
N357 C360 1.314 . S
N357 C361 1.279 . S
C358 C356 1.348 . S
C358 C360 1.353 1_455 S
C358 H416 0.929 . S
C359 C356 1.356 . S
C359 C361 1.358 1_455 S
C359 H417 0.930 . S
C360 N357 1.314 . S
C360 C358 1.353 1_655 S
C360 H418 0.930 . S
C361 N357 1.279 . S
C361 C359 1.358 1_655 S
C361 H419 0.930 . S
C362 C365 1.348 . S
C362 C366 1.356 . S
C362 O413 1.325 . S
C363 N364 1.279 . S
C363 C366 1.358 . S
C363 H420 0.930 . S
N364 C363 1.279 . S
N364 C367 1.314 . S
C365 C362 1.348 . S
C365 C367 1.353 . S
C365 H421 0.929 . S
C366 C362 1.356 . S
C366 C363 1.358 . S
C366 H422 0.930 . S
C367 N364 1.314 . S
C367 C365 1.353 . S
C367 H423 0.930 . S
C368 N369 1.314 . S
C368 C373 1.353 . S
C368 H374 0.930 . S
N369 Li352 1.990 . S
N369 C368 1.314 . S
N369 C371 1.279 . S
C370 C371 1.358 . S
C370 C372 1.356 . S
C370 H424 0.930 1_455 S
C371 N369 1.279 . S
C371 C370 1.358 . S
C371 H375 0.930 . S
C372 C370 1.356 . S
C372 C373 1.348 . S
C373 C368 1.353 . S
C373 C372 1.348 . S
C373 H425 0.929 . S
H374 C368 0.930 . S
H375 C371 0.930 . S
C376 N377 1.314 . S
C376 C378 1.353 . S
C376 H382 0.930 . S
N377 Li353 1.990 . S
N377 C376 1.314 . S
N377 C380 1.279 . S
C378 C376 1.353 . S
C378 C381 1.348 . S
C378 H426 0.929 . S
C379 C380 1.358 . S
C379 C381 1.356 . S
C379 H427 0.930 . S
C380 N377 1.279 . S
C380 C379 1.358 . S
C380 H383 0.930 . S
C381 C378 1.348 . S
C381 C379 1.356 . S
H382 C376 0.930 . S
H383 C380 0.930 . S
C384 C386 1.348 . S
C384 C387 1.356 . S
C384 O414 1.325 . S
N385 C388 1.314 . S
N385 C389 1.279 . S
C386 C384 1.348 . S
C386 C388 1.353 . S
C386 H428 0.929 . S
C387 C384 1.356 . S
C387 C389 1.358 . S
C387 H429 0.930 . S
C388 N385 1.314 . S
C388 C386 1.353 . S
C388 H430 0.930 . S
C389 N385 1.279 . S
C389 C387 1.358 . S
C389 H431 0.930 . S
C390 C391 1.348 . S
C390 C392 1.356 . S
C390 O415 1.325 . S
C391 C390 1.348 . S
C391 C393 1.353 . S
C391 H432 0.929 . S
C392 C390 1.356 . S
C392 C394 1.358 . S
C392 H433 0.930 . S
C393 C391 1.353 . S
C393 N395 1.314 . S
C393 H434 0.930 . S
C394 C392 1.358 . S
C394 N395 1.279 . S
C394 H435 0.930 . S
N395 C393 1.314 . S
N395 C394 1.279 . S
C396 C398 1.353 . S
C396 N399 1.314 . S
C396 H402 0.930 . S
C397 N399 1.279 . S
C397 C400 1.358 . S
C397 H403 0.930 . S
C398 C396 1.353 . S
C398 C401 1.348 . S
C398 H436 0.929 . S
N399 Li354 1.990 . S
N399 C396 1.314 . S
N399 C397 1.279 . S
C400 C397 1.358 . S
C400 C401 1.356 . S
C400 H437 0.930 . S
C401 C398 1.348 . S
C401 C400 1.356 . S
H402 C396 0.930 . S
H403 C397 0.930 . S
C404 N405 1.314 . S
C404 C406 1.353 . S
C404 H410 0.930 . S
N405 Li355 1.990 . S
N405 C404 1.314 . S
N405 C408 1.279 . S
C406 C404 1.353 . S
C406 C409 1.348 . S
C406 H438 0.929 . S
C407 C408 1.358 . S
C407 C409 1.356 . S
C407 H439 0.930 . S
C408 N405 1.279 . S
C408 C407 1.358 . S
C408 H411 0.930 . S
C409 C406 1.348 . S
C409 C407 1.356 . S
H410 C404 0.930 . S
H411 C408 0.930 . S
O412 Li352 1.956 . S
O412 Li353 1.970 . S
O412 Li354 1.961 . S
O412 C356 1.325 . S
O413 Li352 1.970 . S
O413 Li353 1.956 . S
O413 Li355 1.961 . S
O413 C362 1.325 . S
O414 Li352 1.961 . S
O414 Li354 1.956 . S
O414 Li355 1.970 . S
O414 C384 1.325 . S
O415 Li353 1.961 . S
O415 Li354 1.970 . S
O415 Li355 1.956 . S
O415 C390 1.325 . S
H416 C358 0.929 . S
H417 C359 0.930 . S
H418 C360 0.930 . S
H419 C361 0.930 . S
H420 C363 0.930 . S
H421 C365 0.929 . S
H422 C366 0.930 . S
H423 C367 0.930 . S
H424 C370 0.930 1_655 S
H425 C373 0.929 . S
H426 C378 0.929 . S
H427 C379 0.930 . S
H428 C386 0.929 . S
H429 C387 0.930 . S
H430 C388 0.930 . S
H431 C389 0.930 . S
H432 C391 0.929 . S
H433 C392 0.930 . S
H434 C393 0.930 . S
H435 C394 0.930 . S
H436 C398 0.929 . S
H437 C400 0.930 . S
H438 C406 0.929 . S
H439 C407 0.930 . S
Li440 N457 1.990 . S
Li440 O500 1.956 . S
Li440 O501 1.970 . S
Li440 O502 1.961 . S
Li441 N465 1.990 . S
Li441 O500 1.970 . S
Li441 O501 1.956 . S
Li441 O503 1.961 . S
Li442 N487 1.990 . S
Li442 O500 1.961 . S
Li442 O502 1.956 . S
Li442 O503 1.970 . S
Li443 N493 1.990 . S
Li443 O501 1.961 . S
Li443 O502 1.970 . S
Li443 O503 1.956 . S
C444 C446 1.348 . S
C444 C447 1.356 . S
C444 O500 1.325 . S
N445 C448 1.314 . S
N445 C449 1.279 . S
C446 C444 1.348 . S
C446 C448 1.353 . S
C446 H504 0.929 . S
C447 C444 1.356 . S
C447 C449 1.358 . S
C447 H505 0.930 . S
C448 N445 1.314 . S
C448 C446 1.353 . S
C448 H506 0.930 . S
C449 N445 1.279 . S
C449 C447 1.358 . S
C449 H507 0.930 . S
C450 C453 1.348 . S
C450 C454 1.356 . S
C450 O501 1.325 . S
C451 N452 1.279 . S
C451 C454 1.358 . S
C451 H508 0.930 . S
N452 C451 1.279 . S
N452 C455 1.314 . S
C453 C450 1.348 . S
C453 C455 1.353 . S
C453 H509 0.929 . S
C454 C450 1.356 . S
C454 C451 1.358 . S
C454 H510 0.930 . S
C455 N452 1.314 . S
C455 C453 1.353 . S
C455 H511 0.930 . S
C456 N457 1.314 . S
C456 C461 1.353 . S
C456 H462 0.930 . S
N457 Li440 1.990 . S
N457 C456 1.314 . S
N457 C459 1.279 . S
C458 C459 1.358 . S
C458 C460 1.356 . S
C458 H512 0.930 . S
C459 N457 1.279 . S
C459 C458 1.358 . S
C459 H463 0.930 . S
C460 C458 1.356 . S
C460 C461 1.348 . S
C461 C456 1.353 . S
C461 C460 1.348 . S
C461 H513 0.929 . S
H462 C456 0.930 . S
H463 C459 0.930 . S
C464 N465 1.314 . S
C464 C466 1.353 . S
C464 H470 0.930 . S
N465 Li441 1.990 . S
N465 C464 1.314 . S
N465 C468 1.279 . S
C466 C464 1.353 . S
C466 C469 1.348 . S
C466 H514 0.929 . S
C467 C468 1.358 . S
C467 C469 1.356 . S
C467 H515 0.930 . S
C468 N465 1.279 . S
C468 C467 1.358 . S
C468 H471 0.930 . S
C469 C466 1.348 . S
C469 C467 1.356 . S
H470 C464 0.930 . S
H471 C468 0.930 . S
C472 C474 1.348 . S
C472 C475 1.356 . S
C472 O502 1.325 . S
N473 C476 1.314 . S
N473 C477 1.279 . S
C474 C472 1.348 . S
C474 C476 1.353 . S
C474 H516 0.929 . S
C475 C472 1.356 . S
C475 C477 1.358 . S
C475 H517 0.930 . S
C476 N473 1.314 . S
C476 C474 1.353 . S
C476 H518 0.930 . S
C477 N473 1.279 . S
C477 C475 1.358 . S
C477 H519 0.930 . S
C478 C479 1.348 . S
C478 C480 1.356 . S
C478 O503 1.325 . S
C479 C478 1.348 . S
C479 C481 1.353 . S
C479 H520 0.929 . S
C480 C478 1.356 . S
C480 C482 1.358 . S
C480 H521 0.930 . S
C481 C479 1.353 . S
C481 N483 1.314 . S
C481 H522 0.930 . S
C482 C480 1.358 . S
C482 N483 1.279 . S
C482 H523 0.930 . S
N483 C481 1.314 . S
N483 C482 1.279 . S
C484 C486 1.353 . S
C484 N487 1.314 . S
C484 H490 0.930 . S
C485 N487 1.279 . S
C485 C488 1.358 . S
C485 H491 0.930 . S
C486 C484 1.353 . S
C486 C489 1.348 . S
C486 H524 0.929 . S
N487 Li442 1.990 . S
N487 C484 1.314 . S
N487 C485 1.279 . S
C488 C485 1.358 . S
C488 C489 1.356 . S
C488 H525 0.930 . S
C489 C486 1.348 . S
C489 C488 1.356 . S
H490 C484 0.930 . S
H491 C485 0.930 . S
C492 N493 1.314 . S
C492 C494 1.353 . S
C492 H498 0.930 . S
N493 Li443 1.990 . S
N493 C492 1.314 . S
N493 C496 1.279 . S
C494 C492 1.353 . S
C494 C497 1.348 . S
C494 H526 0.929 . S
C495 C496 1.358 . S
C495 C497 1.356 . S
C495 H527 0.930 . S
C496 N493 1.279 . S
C496 C495 1.358 . S
C496 H499 0.930 . S
C497 C494 1.348 . S
C497 C495 1.356 . S
H498 C492 0.930 . S
H499 C496 0.930 . S
O500 Li440 1.956 . S
O500 Li441 1.970 . S
O500 Li442 1.961 . S
O500 C444 1.325 . S
O501 Li440 1.970 . S
O501 Li441 1.956 . S
O501 Li443 1.961 . S
O501 C450 1.325 . S
O502 Li440 1.961 . S
O502 Li442 1.956 . S
O502 Li443 1.970 . S
O502 C472 1.325 . S
O503 Li441 1.961 . S
O503 Li442 1.970 . S
O503 Li443 1.956 . S
O503 C478 1.325 . S
H504 C446 0.929 . S
H505 C447 0.930 . S
H506 C448 0.930 . S
H507 C449 0.930 . S
H508 C451 0.930 . S
H509 C453 0.929 . S
H510 C454 0.930 . S
H511 C455 0.930 . S
H512 C458 0.930 . S
H513 C461 0.929 . S
H514 C466 0.929 . S
H515 C467 0.930 . S
H516 C474 0.929 . S
H517 C475 0.930 . S
H518 C476 0.930 . S
H519 C477 0.930 . S
H520 C479 0.929 . S
H521 C480 0.930 . S
H522 C481 0.930 . S
H523 C482 0.930 . S
H524 C486 0.929 . S
H525 C488 0.930 . S
H526 C494 0.929 . S
H527 C495 0.930 . S
Li528 N545 1.990 . S
Li528 O588 1.956 . S
Li528 O589 1.970 . S
Li528 O590 1.961 . S
Li529 N553 1.990 . S
Li529 O588 1.970 . S
Li529 O589 1.956 . S
Li529 O591 1.961 . S
Li530 N575 1.990 . S
Li530 O588 1.961 . S
Li530 O590 1.956 . S
Li530 O591 1.970 . S
Li531 N581 1.990 . S
Li531 O589 1.961 . S
Li531 O590 1.970 . S
Li531 O591 1.956 . S
C532 C534 1.348 . S
C532 C535 1.356 . S
C532 O588 1.325 1_554 S
N533 C536 1.314 . S
N533 C537 1.279 . S
C534 C532 1.348 . S
C534 C536 1.353 . S
C534 H592 0.929 . S
C535 C532 1.356 . S
C535 C537 1.358 . S
C535 H593 0.930 . S
C536 N533 1.314 . S
C536 C534 1.353 . S
C536 H594 0.930 . S
C537 N533 1.279 . S
C537 C535 1.358 . S
C537 H595 0.930 . S
C538 C541 1.348 . S
C538 C542 1.356 . S
C538 O589 1.325 . S
C539 N540 1.279 . S
C539 C542 1.358 . S
C539 H596 0.930 . S
N540 C539 1.279 . S
N540 C543 1.314 . S
C541 C538 1.348 . S
C541 C543 1.353 . S
C541 H597 0.929 . S
C542 C538 1.356 . S
C542 C539 1.358 . S
C542 H598 0.930 . S
C543 N540 1.314 . S
C543 C541 1.353 . S
C543 H599 0.930 . S
C544 N545 1.314 . S
C544 C549 1.353 . S
C544 H550 0.930 . S
N545 Li528 1.990 . S
N545 C544 1.314 . S
N545 C547 1.279 . S
C546 C547 1.358 . S
C546 C548 1.356 . S
C546 H600 0.930 1_556 S
C547 N545 1.279 . S
C547 C546 1.358 . S
C547 H551 0.925 1_556 S
C548 C546 1.356 . S
C548 C549 1.348 . S
C549 C544 1.353 . S
C549 C548 1.348 . S
C549 H601 0.929 . S
H550 C544 0.930 . S
H551 C547 0.925 1_554 S
C552 N553 1.314 . S
C552 C554 1.353 . S
C552 H558 0.930 . S
N553 Li529 1.990 . S
N553 C552 1.314 . S
N553 C556 1.279 . S
C554 C552 1.353 . S
C554 C557 1.348 . S
C554 H602 0.929 1_556 S
C555 C556 1.358 . S
C555 C557 1.356 . S
C555 H603 0.930 . S
C556 N553 1.279 . S
C556 C555 1.358 . S
C556 H559 0.930 . S
C557 C554 1.348 . S
C557 C555 1.356 . S
H558 C552 0.930 . S
H559 C556 0.930 . S
C560 C562 1.348 . S
C560 C563 1.356 . S
C560 O590 1.325 . S
N561 C564 1.314 . S
N561 C565 1.279 . S
C562 C560 1.348 . S
C562 C564 1.353 . S
C562 H604 0.929 . S
C563 C560 1.356 . S
C563 C565 1.358 . S
C563 H605 0.930 . S
C564 N561 1.314 . S
C564 C562 1.353 . S
C564 H606 0.930 . S
C565 N561 1.279 . S
C565 C563 1.358 . S
C565 H607 0.930 . S
C566 C567 1.348 . S
C566 C568 1.356 . S
C566 O591 1.325 . S
C567 C566 1.348 . S
C567 C569 1.353 . S
C567 H608 0.929 . S
C568 C566 1.356 . S
C568 C570 1.358 . S
C568 H609 0.930 . S
C569 C567 1.353 . S
C569 N571 1.314 . S
C569 H610 0.930 . S
C570 C568 1.358 . S
C570 N571 1.279 . S
C570 H611 0.930 . S
N571 C569 1.314 . S
N571 C570 1.279 . S
C572 C574 1.353 . S
C572 N575 1.314 1_554 S
C572 H578 0.930 . S
C573 N575 1.279 . S
C573 C576 1.358 . S
C573 H579 0.930 . S
C574 C572 1.353 . S
C574 C577 1.348 . S
C574 H612 0.929 . S
N575 Li530 1.990 . S
N575 C572 1.314 1_556 S
N575 C573 1.279 . S
C576 C573 1.358 . S
C576 C577 1.356 1_556 S
C576 H613 0.930 . S
C577 C574 1.348 . S
C577 C576 1.356 1_554 S
H578 C572 0.930 . S
H579 C573 0.930 . S
C580 N581 1.314 . S
C580 C582 1.353 . S
C580 H586 0.930 . S
N581 Li531 1.990 . S
N581 C580 1.314 . S
N581 C584 1.279 . S
C582 C580 1.353 . S
C582 C585 1.348 . S
C582 H614 0.929 . S
C583 C584 1.358 . S
C583 C585 1.356 . S
C583 H615 0.930 . S
C584 N581 1.279 . S
C584 C583 1.358 . S
C584 H587 0.930 . S
C585 C582 1.348 . S
C585 C583 1.356 . S
H586 C580 0.930 . S
H587 C584 0.930 . S
O588 Li528 1.956 . S
O588 Li529 1.970 . S
O588 Li530 1.961 . S
O588 C532 1.325 1_556 S
O589 Li528 1.970 . S
O589 Li529 1.956 . S
O589 Li531 1.961 . S
O589 C538 1.325 . S
O590 Li528 1.961 . S
O590 Li530 1.956 . S
O590 Li531 1.970 . S
O590 C560 1.325 . S
O591 Li529 1.961 . S
O591 Li530 1.970 . S
O591 Li531 1.956 . S
O591 C566 1.325 . S
H592 C534 0.929 . S
H593 C535 0.930 . S
H594 C536 0.930 . S
H595 C537 0.930 . S
H596 C539 0.930 . S
H597 C541 0.929 . S
H598 C542 0.930 . S
H599 C543 0.930 . S
H600 C546 0.930 1_554 S
H601 C549 0.929 . S
H602 C554 0.929 1_554 S
H603 C555 0.930 . S
H604 C562 0.929 . S
H605 C563 0.930 . S
H606 C564 0.930 . S
H607 C565 0.930 . S
H608 C567 0.929 . S
H609 C568 0.930 . S
H610 C569 0.930 . S
H611 C570 0.930 . S
H612 C574 0.929 . S
H613 C576 0.930 . S
H614 C582 0.929 . S
H615 C583 0.930 . S
Li616 N633 1.990 . S
Li616 O676 1.956 . S
Li616 O677 1.970 . S
Li616 O678 1.961 . S
Li617 N641 1.990 . S
Li617 O676 1.970 . S
Li617 O677 1.956 . S
Li617 O679 1.961 . S
Li618 N663 1.990 . S
Li618 O676 1.961 . S
Li618 O678 1.956 . S
Li618 O679 1.970 . S
Li619 N669 1.990 . S
Li619 O677 1.961 . S
Li619 O678 1.970 . S
Li619 O679 1.956 . S
C620 C622 1.348 . S
C620 C623 1.356 . S
C620 O676 1.325 . S
N621 C624 1.314 . S
N621 C625 1.279 . S
C622 C620 1.348 . S
C622 C624 1.353 . S
C622 H680 0.929 . S
C623 C620 1.356 . S
C623 C625 1.358 . S
C623 H681 0.930 . S
C624 N621 1.314 . S
C624 C622 1.353 . S
C624 H682 0.930 . S
C625 N621 1.279 . S
C625 C623 1.358 . S
C625 H683 0.930 . S
C626 C629 1.348 . S
C626 C630 1.356 . S
C626 O677 1.325 . S
C627 N628 1.279 . S
C627 C630 1.358 . S
C627 H684 0.930 . S
N628 C627 1.279 . S
N628 C631 1.314 . S
C629 C626 1.348 . S
C629 C631 1.353 . S
C629 H685 0.929 . S
C630 C626 1.356 . S
C630 C627 1.358 . S
C630 H686 0.930 . S
C631 N628 1.314 . S
C631 C629 1.353 . S
C631 H687 0.930 . S
C632 N633 1.314 . S
C632 C637 1.353 . S
C632 H638 0.930 . S
N633 Li616 1.990 . S
N633 C632 1.314 . S
N633 C635 1.279 . S
C634 C635 1.358 . S
C634 C636 1.356 . S
C634 H688 0.930 . S
C635 N633 1.279 . S
C635 C634 1.358 . S
C635 H639 0.930 . S
C636 C634 1.356 . S
C636 C637 1.348 . S
C637 C632 1.353 . S
C637 C636 1.348 . S
C637 H689 0.929 . S
H638 C632 0.930 . S
H639 C635 0.930 . S
C640 N641 1.314 . S
C640 C642 1.353 . S
C640 H646 0.930 . S
N641 Li617 1.990 . S
N641 C640 1.314 . S
N641 C644 1.279 . S
C642 C640 1.353 . S
C642 C645 1.353 . S
C642 H690 0.929 1_655 S
C643 C644 1.358 . S
C643 C645 1.378 . S
C643 H691 0.930 . S
C644 N641 1.279 . S
C644 C643 1.358 . S
C644 H647 0.930 . S
C645 C642 1.353 . S
C645 C643 1.378 . S
H646 C640 0.930 . S
H647 C644 0.930 . S
C648 C650 1.348 . S
C648 C651 1.356 . S
C648 O678 1.325 . S
N649 C652 1.314 . S
N649 C653 1.279 . S
C650 C648 1.348 . S
C650 C652 1.353 . S
C650 H692 0.929 . S
C651 C648 1.356 . S
C651 C653 1.358 . S
C651 H693 0.930 . S
C652 N649 1.314 . S
C652 C650 1.353 . S
C652 H694 0.930 . S
C653 N649 1.279 . S
C653 C651 1.358 . S
C653 H695 0.930 . S
C654 C655 1.348 . S
C654 C656 1.356 . S
C654 O679 1.325 . S
C655 C654 1.348 . S
C655 C657 1.353 . S
C655 H696 0.929 . S
C656 C654 1.356 . S
C656 C658 1.358 . S
C656 H697 0.930 . S
C657 C655 1.353 . S
C657 N659 1.314 . S
C657 H698 0.930 . S
C658 C656 1.358 . S
C658 N659 1.279 . S
C658 H699 0.930 . S
N659 C657 1.314 . S
N659 C658 1.279 . S
C660 C662 1.353 . S
C660 N663 1.314 . S
C660 H666 0.930 . S
C661 N663 1.279 . S
C661 C664 1.358 . S
C661 H667 0.930 . S
C662 C660 1.353 . S
C662 C665 1.348 . S
C662 H700 0.929 . S
N663 Li618 1.990 . S
N663 C660 1.314 . S
N663 C661 1.279 . S
C664 C661 1.358 . S
C664 C665 1.356 . S
C664 H701 0.930 . S
C665 C662 1.348 . S
C665 C664 1.356 . S
H666 C660 0.930 . S
H667 C661 0.930 . S
C668 N669 1.314 . S
C668 C670 1.353 . S
C668 H674 0.930 . S
N669 Li619 1.990 . S
N669 C668 1.314 . S
N669 C672 1.279 . S
C670 C668 1.353 . S
C670 C673 1.348 . S
C670 H702 0.929 . S
C671 C672 1.358 . S
C671 C673 1.356 . S
C671 H703 0.930 . S
C672 N669 1.279 . S
C672 C671 1.358 . S
C672 H675 0.930 . S
C673 C670 1.348 . S
C673 C671 1.356 . S
H674 C668 0.930 . S
H675 C672 0.930 . S
O676 Li616 1.956 . S
O676 Li617 1.970 . S
O676 Li618 1.961 . S
O676 C620 1.325 . S
O677 Li616 1.970 . S
O677 Li617 1.956 . S
O677 Li619 1.961 . S
O677 C626 1.325 . S
O678 Li616 1.961 . S
O678 Li618 1.956 . S
O678 Li619 1.970 . S
O678 C648 1.325 . S
O679 Li617 1.961 . S
O679 Li618 1.970 . S
O679 Li619 1.956 . S
O679 C654 1.325 . S
H680 C622 0.929 . S
H681 C623 0.930 . S
H682 C624 0.930 . S
H683 C625 0.930 . S
H684 C627 0.930 . S
H685 C629 0.929 . S
H686 C630 0.930 . S
H687 C631 0.930 . S
H688 C634 0.930 . S
H689 C637 0.929 . S
H690 C642 0.929 1_455 S
H691 C643 0.930 . S
H692 C650 0.929 . S
H693 C651 0.930 . S
H694 C652 0.930 . S
H695 C653 0.930 . S
H696 C655 0.929 . S
H697 C656 0.930 . S
H698 C657 0.930 . S
H699 C658 0.930 . S
H700 C662 0.929 . S
H701 C664 0.930 . S
H702 C670 0.929 . S
H703 C671 0.930 . S
Li704 N721 1.990 . S
Li704 O764 1.956 . S
Li704 O765 1.970 . S
Li704 O766 1.961 . S
Li705 N729 1.990 . S
Li705 O764 1.970 . S
Li705 O765 1.956 . S
Li705 O767 1.961 . S
Li706 N751 1.990 . S
Li706 O764 1.961 . S
Li706 O766 1.956 . S
Li706 O767 1.970 . S
Li707 N757 1.990 . S
Li707 O765 1.961 . S
Li707 O766 1.970 . S
Li707 O767 1.956 . S
C708 C710 1.348 . S
C708 C711 1.356 . S
C708 O764 1.325 1_554 S
N709 C712 1.314 . S
N709 C713 1.279 . S
C710 C708 1.348 . S
C710 C712 1.353 . S
C710 H768 0.929 . S
C711 C708 1.356 . S
C711 C713 1.358 . S
C711 H769 0.930 . S
C712 N709 1.314 . S
C712 C710 1.353 . S
C712 H770 0.930 . S
C713 N709 1.279 . S
C713 C711 1.358 . S
C713 H771 0.930 . S
C714 C717 1.348 . S
C714 C718 1.356 . S
C714 O765 1.325 . S
C715 N716 1.279 . S
C715 C718 1.358 . S
C715 H772 0.930 . S
N716 C715 1.279 . S
N716 C719 1.314 . S
C717 C714 1.348 . S
C717 C719 1.353 . S
C717 H773 0.929 . S
C718 C714 1.356 . S
C718 C715 1.358 . S
C718 H774 0.930 . S
C719 N716 1.314 . S
C719 C717 1.353 . S
C719 H775 0.930 . S
C720 N721 1.314 . S
C720 C725 1.353 . S
C720 H726 0.930 . S
N721 Li704 1.990 . S
N721 C720 1.314 . S
N721 C723 1.279 1_556 S
C722 C723 1.358 . S
C722 C724 1.356 . S
C722 H776 0.930 . S
C723 N721 1.279 1_554 S
C723 C722 1.358 . S
C723 H727 0.930 . S
C724 C722 1.356 . S
C724 C725 1.348 1_554 S
C725 C720 1.353 . S
C725 C724 1.348 1_556 S
C725 H777 0.929 . S
H726 C720 0.930 . S
H727 C723 0.930 . S
C728 N729 1.314 . S
C728 C730 1.353 . S
C728 H734 0.930 . S
N729 Li705 1.990 . S
N729 C728 1.314 . S
N729 C732 1.279 . S
C730 C728 1.353 . S
C730 C733 1.348 . S
C730 H778 0.929 1_655 S
C731 C732 1.358 . S
C731 C733 1.356 . S
C731 H779 0.930 . S
C732 N729 1.279 . S
C732 C731 1.358 . S
C732 H735 0.930 . S
C733 C730 1.348 . S
C733 C731 1.356 . S
H734 C728 0.930 . S
H735 C732 0.930 . S
C736 C738 1.348 . S
C736 C739 1.356 . S
C736 O766 1.325 . S
N737 C740 1.314 . S
N737 C741 1.279 . S
C738 C736 1.348 . S
C738 C740 1.353 . S
C738 H780 0.929 . S
C739 C736 1.356 . S
C739 C741 1.358 . S
C739 H781 0.930 . S
C740 N737 1.314 . S
C740 C738 1.353 . S
C740 H782 0.930 . S
C741 N737 1.279 . S
C741 C739 1.358 . S
C741 H783 0.930 . S
C742 C743 1.348 . S
C742 C744 1.356 . S
C742 O767 1.325 . S
C743 C742 1.348 . S
C743 C745 1.353 1_655 S
C743 H784 0.929 . S
C744 C742 1.356 . S
C744 C746 1.358 1_655 S
C744 H785 0.930 . S
C745 C743 1.353 1_455 S
C745 N747 1.314 . S
C745 H786 0.930 . S
C746 C744 1.358 1_455 S
C746 N747 1.279 . S
C746 H787 0.930 . S
N747 C745 1.314 . S
N747 C746 1.279 . S
C748 C750 1.353 . S
C748 N751 1.314 . S
C748 H754 0.930 . S
C749 N751 1.279 . S
C749 C752 1.358 . S
C749 H755 0.930 . S
C750 C748 1.353 . S
C750 C753 1.348 . S
C750 H788 0.926 1_655 S
N751 Li706 1.990 . S
N751 C748 1.314 . S
N751 C749 1.279 . S
C752 C749 1.358 . S
C752 C753 1.356 . S
C752 H789 0.930 . S
C753 C750 1.348 . S
C753 C752 1.356 . S
H754 C748 0.930 . S
H755 C749 0.930 . S
C756 N757 1.314 . S
C756 C758 1.353 . S
C756 H762 0.930 . S
N757 Li707 1.990 . S
N757 C756 1.314 . S
N757 C760 1.279 . S
C758 C756 1.353 . S
C758 C761 1.348 . S
C758 H790 0.929 . S
C759 C760 1.358 . S
C759 C761 1.356 . S
C759 H791 0.930 . S
C760 N757 1.279 . S
C760 C759 1.358 . S
C760 H763 0.930 . S
C761 C758 1.348 . S
C761 C759 1.356 . S
H762 C756 0.930 . S
H763 C760 0.930 . S
O764 Li704 1.956 . S
O764 Li705 1.970 . S
O764 Li706 1.961 . S
O764 C708 1.325 1_556 S
O765 Li704 1.970 . S
O765 Li705 1.956 . S
O765 Li707 1.961 . S
O765 C714 1.325 . S
O766 Li704 1.961 . S
O766 Li706 1.956 . S
O766 Li707 1.970 . S
O766 C736 1.325 . S
O767 Li705 1.961 . S
O767 Li706 1.970 . S
O767 Li707 1.956 . S
O767 C742 1.325 . S
H768 C710 0.929 . S
H769 C711 0.930 . S
H770 C712 0.930 . S
H771 C713 0.930 . S
H772 C715 0.930 . S
H773 C717 0.929 . S
H774 C718 0.930 . S
H775 C719 0.930 . S
H776 C722 0.930 . S
H777 C725 0.929 . S
H778 C730 0.929 1_455 S
H779 C731 0.930 . S
H780 C738 0.929 . S
H781 C739 0.930 . S
H782 C740 0.930 . S
H783 C741 0.930 . S
H784 C743 0.929 . S
H785 C744 0.930 . S
H786 C745 0.930 . S
H787 C746 0.930 . S
H788 C750 0.926 1_455 S
H789 C752 0.930 . S
H790 C758 0.929 . S
H791 C759 0.930 . S
Li792 N809 1.990 . S
Li792 O852 1.956 . S
Li792 O853 1.970 . S
Li792 O854 1.961 . S
Li793 N817 1.990 . S
Li793 O852 1.970 . S
Li793 O853 1.956 . S
Li793 O855 1.961 . S
Li794 N839 1.990 . S
Li794 O852 1.961 . S
Li794 O854 1.956 . S
Li794 O855 1.970 . S
Li795 N845 1.990 . S
Li795 O853 1.961 . S
Li795 O854 1.970 . S
Li795 O855 1.956 . S
C796 C798 1.348 . S
C796 C799 1.356 . S
C796 O852 1.325 . S
N797 C800 1.314 . S
N797 C801 1.279 . S
C798 C796 1.348 . S
C798 C800 1.353 . S
C798 H856 0.929 . S
C799 C796 1.356 . S
C799 C801 1.358 . S
C799 H857 0.930 . S
C800 N797 1.314 . S
C800 C798 1.353 . S
C800 H858 0.930 . S
C801 N797 1.279 . S
C801 C799 1.358 . S
C801 H859 0.930 . S
C802 C805 1.348 . S
C802 C806 1.356 . S
C802 O853 1.325 . S
C803 N804 1.279 . S
C803 C806 1.358 . S
C803 H860 0.930 . S
N804 C803 1.279 . S
N804 C807 1.314 . S
C805 C802 1.348 . S
C805 C807 1.353 . S
C805 H861 0.929 . S
C806 C802 1.356 . S
C806 C803 1.358 . S
C806 H862 0.930 . S
C807 N804 1.314 . S
C807 C805 1.353 . S
C807 H863 0.930 . S
C808 N809 1.314 . S
C808 C813 1.353 . S
C808 H814 0.930 . S
N809 Li792 1.990 . S
N809 C808 1.314 . S
N809 C811 1.279 . S
C810 C811 1.358 . S
C810 C812 1.356 . S
C810 H864 0.930 . S
C811 N809 1.279 . S
C811 C810 1.358 . S
C811 H815 0.930 . S
C812 C810 1.356 . S
C812 C813 1.348 . S
C813 C808 1.353 . S
C813 C812 1.348 . S
C813 H865 0.929 . S
H814 C808 0.930 . S
H815 C811 0.930 . S
C816 N817 1.314 . S
C816 C818 1.353 . S
C816 H822 0.930 . S
N817 Li793 1.990 . S
N817 C816 1.314 . S
N817 C820 1.279 . S
C818 C816 1.353 . S
C818 C821 1.348 . S
C818 H866 0.929 . S
C819 C820 1.358 . S
C819 C821 1.356 . S
C819 H867 0.930 . S
C820 N817 1.279 . S
C820 C819 1.358 . S
C820 H823 0.930 . S
C821 C818 1.348 . S
C821 C819 1.356 . S
H822 C816 0.930 . S
H823 C820 0.930 . S
C824 C826 1.348 . S
C824 C827 1.356 . S
C824 O854 1.325 . S
N825 C828 1.314 . S
N825 C829 1.279 . S
C826 C824 1.348 . S
C826 C828 1.353 . S
C826 H868 0.929 . S
C827 C824 1.356 . S
C827 C829 1.358 . S
C827 H869 0.930 . S
C828 N825 1.314 . S
C828 C826 1.353 . S
C828 H870 0.930 . S
C829 N825 1.279 . S
C829 C827 1.358 . S
C829 H871 0.930 . S
C830 C831 1.348 . S
C830 C832 1.356 . S
C830 O855 1.325 . S
C831 C830 1.348 . S
C831 C833 1.353 . S
C831 H872 0.929 . S
C832 C830 1.356 . S
C832 C834 1.358 . S
C832 H873 0.930 . S
C833 C831 1.353 . S
C833 N835 1.314 . S
C833 H874 0.930 . S
C834 C832 1.358 . S
C834 N835 1.279 . S
C834 H875 0.930 . S
N835 C833 1.314 . S
N835 C834 1.279 . S
C836 C838 1.353 . S
C836 N839 1.314 . S
C836 H842 0.930 . S
C837 N839 1.279 . S
C837 C840 1.358 . S
C837 H843 0.930 . S
C838 C836 1.353 . S
C838 C841 1.348 . S
C838 H876 0.929 . S
N839 Li794 1.990 . S
N839 C836 1.314 . S
N839 C837 1.279 . S
C840 C837 1.358 . S
C840 C841 1.356 . S
C840 H877 0.930 . S
C841 C838 1.348 . S
C841 C840 1.356 . S
H842 C836 0.930 . S
H843 C837 0.930 . S
C844 N845 1.314 . S
C844 C846 1.353 . S
C844 H850 0.930 . S
N845 Li795 1.990 . S
N845 C844 1.314 . S
N845 C848 1.279 . S
C846 C844 1.353 . S
C846 C849 1.369 . S
C846 H878 0.929 . S
C847 C848 1.375 . S
C847 C849 1.356 . S
C847 H879 0.912 1_455 S
C848 N845 1.279 . S
C848 C847 1.375 . S
C848 H851 0.930 . S
C849 C846 1.369 . S
C849 C847 1.356 . S
H850 C844 0.930 . S
H851 C848 0.930 . S
O852 Li792 1.956 . S
O852 Li793 1.970 . S
O852 Li794 1.961 . S
O852 C796 1.325 . S
O853 Li792 1.970 . S
O853 Li793 1.956 . S
O853 Li795 1.961 . S
O853 C802 1.325 . S
O854 Li792 1.961 . S
O854 Li794 1.956 . S
O854 Li795 1.970 . S
O854 C824 1.325 . S
O855 Li793 1.961 . S
O855 Li794 1.970 . S
O855 Li795 1.956 . S
O855 C830 1.325 . S
H856 C798 0.929 . S
H857 C799 0.930 . S
H858 C800 0.930 . S
H859 C801 0.930 . S
H860 C803 0.930 . S
H861 C805 0.929 . S
H862 C806 0.930 . S
H863 C807 0.930 . S
H864 C810 0.930 . S
H865 C813 0.929 . S
H866 C818 0.929 . S
H867 C819 0.930 . S
H868 C826 0.929 . S
H869 C827 0.930 . S
H870 C828 0.930 . S
H871 C829 0.930 . S
H872 C831 0.929 . S
H873 C832 0.930 . S
H874 C833 0.930 . S
H875 C834 0.930 . S
H876 C838 0.929 . S
H877 C840 0.930 . S
H878 C846 0.929 . S
H879 C847 0.912 1_655 S
Li880 N897 1.990 . S
Li880 O940 1.956 . S
Li880 O941 1.970 . S
Li880 O942 1.961 . S
Li881 N905 1.990 . S
Li881 O940 1.970 . S
Li881 O941 1.956 . S
Li881 O943 1.961 . S
Li882 N927 1.990 . S
Li882 O940 1.961 . S
Li882 O942 1.956 . S
Li882 O943 1.970 . S
Li883 N933 1.990 . S
Li883 O941 1.961 . S
Li883 O942 1.970 . S
Li883 O943 1.956 . S
C884 C886 1.348 . S
C884 C887 1.356 . S
C884 O940 1.325 . S
N885 C888 1.314 . S
N885 C889 1.279 . S
C886 C884 1.348 . S
C886 C888 1.353 . S
C886 H944 0.929 . S
C887 C884 1.356 . S
C887 C889 1.358 . S
C887 H945 0.930 . S
C888 N885 1.314 . S
C888 C886 1.353 . S
C888 H946 0.930 . S
C889 N885 1.279 . S
C889 C887 1.358 . S
C889 H947 0.930 . S
C890 C893 1.348 . S
C890 C894 1.356 . S
C890 O941 1.325 . S
C891 N892 1.279 . S
C891 C894 1.358 . S
C891 H948 0.930 . S
N892 C891 1.279 . S
N892 C895 1.314 . S
C893 C890 1.348 . S
C893 C895 1.353 . S
C893 H949 0.929 . S
C894 C890 1.356 . S
C894 C891 1.358 . S
C894 H950 0.930 . S
C895 N892 1.314 . S
C895 C893 1.353 . S
C895 H951 0.930 . S
C896 N897 1.314 . S
C896 C901 1.353 . S
C896 H902 0.930 . S
N897 Li880 1.990 . S
N897 C896 1.314 . S
N897 C899 1.279 . S
C898 C899 1.358 . S
C898 C900 1.356 . S
C898 H952 0.930 . S
C899 N897 1.279 . S
C899 C898 1.358 . S
C899 H903 0.930 . S
C900 C898 1.356 . S
C900 C901 1.348 . S
C901 C896 1.353 . S
C901 C900 1.348 . S
C901 H953 0.929 . S
H902 C896 0.930 . S
H903 C899 0.930 . S
C904 N905 1.314 . S
C904 C906 1.353 . S
C904 H910 0.930 . S
N905 Li881 1.990 . S
N905 C904 1.314 . S
N905 C908 1.279 . S
C906 C904 1.353 . S
C906 C909 1.348 . S
C906 H954 0.929 . S
C907 C908 1.358 . S
C907 C909 1.356 . S
C907 H955 0.930 . S
C908 N905 1.279 . S
C908 C907 1.358 . S
C908 H911 0.930 . S
C909 C906 1.348 . S
C909 C907 1.356 . S
H910 C904 0.930 . S
H911 C908 0.930 . S
C912 C914 1.348 . S
C912 C915 1.356 . S
C912 O942 1.325 . S
N913 C916 1.314 . S
N913 C917 1.279 . S
C914 C912 1.348 . S
C914 C916 1.353 . S
C914 H956 0.929 . S
C915 C912 1.356 . S
C915 C917 1.358 . S
C915 H957 0.930 . S
C916 N913 1.314 . S
C916 C914 1.353 . S
C916 H958 0.930 . S
C917 N913 1.279 . S
C917 C915 1.358 . S
C917 H959 0.930 . S
C918 C919 1.348 . S
C918 C920 1.356 . S
C918 O943 1.325 . S
C919 C918 1.348 . S
C919 C921 1.353 . S
C919 H960 0.929 . S
C920 C918 1.356 . S
C920 C922 1.358 . S
C920 H961 0.930 . S
C921 C919 1.353 . S
C921 N923 1.314 . S
C921 H962 0.930 . S
C922 C920 1.358 . S
C922 N923 1.279 . S
C922 H963 0.930 . S
N923 C921 1.314 . S
N923 C922 1.279 . S
C924 C926 1.353 . S
C924 N927 1.314 . S
C924 H930 0.930 . S
C925 N927 1.279 . S
C925 C928 1.358 . S
C925 H931 0.930 . S
C926 C924 1.353 . S
C926 C929 1.348 . S
C926 H964 0.929 . S
N927 Li882 1.990 . S
N927 C924 1.314 . S
N927 C925 1.279 . S
C928 C925 1.358 . S
C928 C929 1.356 . S
C928 H965 0.930 . S
C929 C926 1.348 . S
C929 C928 1.356 . S
H930 C924 0.930 . S
H931 C925 0.930 . S
C932 N933 1.314 . S
C932 C934 1.353 . S
C932 H938 0.930 . S
N933 Li883 1.990 . S
N933 C932 1.314 . S
N933 C936 1.279 . S
C934 C932 1.353 . S
C934 C937 1.348 . S
C934 H966 0.929 . S
C935 C936 1.358 . S
C935 C937 1.356 . S
C935 H967 0.930 . S
C936 N933 1.279 . S
C936 C935 1.358 . S
C936 H939 0.930 . S
C937 C934 1.348 . S
C937 C935 1.356 . S
H938 C932 0.930 . S
H939 C936 0.930 . S
O940 Li880 1.956 . S
O940 Li881 1.970 . S
O940 Li882 1.961 . S
O940 C884 1.325 . S
O941 Li880 1.970 . S
O941 Li881 1.956 . S
O941 Li883 1.961 . S
O941 C890 1.325 . S
O942 Li880 1.961 . S
O942 Li882 1.956 . S
O942 Li883 1.970 . S
O942 C912 1.325 . S
O943 Li881 1.961 . S
O943 Li882 1.970 . S
O943 Li883 1.956 . S
O943 C918 1.325 . S
H944 C886 0.929 . S
H945 C887 0.930 . S
H946 C888 0.930 . S
H947 C889 0.930 . S
H948 C891 0.930 . S
H949 C893 0.929 . S
H950 C894 0.930 . S
H951 C895 0.930 . S
H952 C898 0.930 . S
H953 C901 0.929 . S
H954 C906 0.929 . S
H955 C907 0.930 . S
H956 C914 0.929 . S
H957 C915 0.930 . S
H958 C916 0.930 . S
H959 C917 0.930 . S
H960 C919 0.929 . S
H961 C920 0.930 . S
H962 C921 0.930 . S
H963 C922 0.930 . S
H964 C926 0.929 . S
H965 C928 0.930 . S
H966 C934 0.929 . S
H967 C935 0.930 . S
Li968 N985 1.990 . S
Li968 O1028 1.956 . S
Li968 O1029 1.970 . S
Li968 O1030 1.961 . S
Li969 N993 1.990 . S
Li969 O1028 1.970 . S
Li969 O1029 1.956 . S
Li969 O1031 1.961 . S
Li970 N1015 1.990 . S
Li970 O1028 1.961 . S
Li970 O1030 1.956 . S
Li970 O1031 1.970 . S
Li971 N1021 1.990 . S
Li971 O1029 1.961 . S
Li971 O1030 1.970 . S
Li971 O1031 1.956 . S
C972 C974 1.348 . S
C972 C975 1.356 . S
C972 O1028 1.325 . S
N973 C976 1.314 . S
N973 C977 1.279 . S
C974 C972 1.348 . S
C974 C976 1.353 . S
C974 H1032 0.929 . S
C975 C972 1.356 . S
C975 C977 1.358 . S
C975 H1033 0.930 . S
C976 N973 1.314 . S
C976 C974 1.353 . S
C976 H1034 0.930 . S
C977 N973 1.279 . S
C977 C975 1.358 . S
C977 H1035 0.930 . S
C978 C981 1.348 . S
C978 C982 1.356 . S
C978 O1029 1.325 . S
C979 N980 1.279 . S
C979 C982 1.358 . S
C979 H1036 0.930 . S
N980 C979 1.279 . S
N980 C983 1.314 . S
C981 C978 1.348 . S
C981 C983 1.353 . S
C981 H1037 0.929 . S
C982 C978 1.356 . S
C982 C979 1.358 . S
C982 H1038 0.930 . S
C983 N980 1.314 . S
C983 C981 1.353 . S
C983 H1039 0.930 . S
C984 N985 1.314 . S
C984 C989 1.353 . S
C984 H990 0.930 . S
N985 Li968 1.990 . S
N985 C984 1.314 . S
N985 C987 1.279 . S
C986 C987 1.358 . S
C986 C988 1.356 . S
C986 H1040 0.930 . S
C987 N985 1.279 . S
C987 C986 1.358 . S
C987 H991 0.930 . S
C988 C986 1.356 . S
C988 C989 1.348 . S
C989 C984 1.353 . S
C989 C988 1.348 . S
C989 H1041 0.929 . S
H990 C984 0.930 . S
H991 C987 0.930 . S
C992 N993 1.314 . S
C992 C994 1.353 . S
C992 H998 0.930 . S
N993 Li969 1.990 . S
N993 C992 1.314 . S
N993 C996 1.279 . S
C994 C992 1.353 . S
C994 C997 1.348 . S
C994 H1042 0.929 . S
C995 C996 1.358 . S
C995 C997 1.356 . S
C995 H1043 0.930 . S
C996 N993 1.279 . S
C996 C995 1.358 . S
C996 H999 0.930 . S
C997 C994 1.348 . S
C997 C995 1.356 . S
H998 C992 0.930 . S
H999 C996 0.930 . S
C1000 C1002 1.348 . S
C1000 C1003 1.356 . S
C1000 O1030 1.325 . S
N1001 C1004 1.314 . S
N1001 C1005 1.279 . S
C1002 C1000 1.348 . S
C1002 C1004 1.353 . S
C1002 H1044 0.929 . S
C1003 C1000 1.356 . S
C1003 C1005 1.358 . S
C1003 H1045 0.930 . S
C1004 N1001 1.314 . S
C1004 C1002 1.353 . S
C1004 H1046 0.930 . S
C1005 N1001 1.279 . S
C1005 C1003 1.358 . S
C1005 H1047 0.930 . S
C1006 C1007 1.348 . S
C1006 C1008 1.356 . S
C1006 O1031 1.325 . S
C1007 C1006 1.348 . S
C1007 C1009 1.353 . S
C1007 H1048 0.929 . S
C1008 C1006 1.356 . S
C1008 C1010 1.358 . S
C1008 H1049 0.930 . S
C1009 C1007 1.353 . S
C1009 N1011 1.314 . S
C1009 H1050 0.930 . S
C1010 C1008 1.358 . S
C1010 N1011 1.279 . S
C1010 H1051 0.930 . S
N1011 C1009 1.314 . S
N1011 C1010 1.279 . S
C1012 C1014 1.353 . S
C1012 N1015 1.314 . S
C1012 H1018 0.930 . S
C1013 N1015 1.279 . S
C1013 C1016 1.358 . S
C1013 H1019 0.930 . S
C1014 C1012 1.353 . S
C1014 C1017 1.348 . S
C1014 H1052 0.929 . S
N1015 Li970 1.990 . S
N1015 C1012 1.314 . S
N1015 C1013 1.279 . S
C1016 C1013 1.358 . S
C1016 C1017 1.356 . S
C1016 H1053 0.930 . S
C1017 C1014 1.348 . S
C1017 C1016 1.356 . S
H1018 C1012 0.930 . S
H1019 C1013 0.930 . S
C1020 N1021 1.314 . S
C1020 C1022 1.353 . S
C1020 H1026 0.930 . S
N1021 Li971 1.990 . S
N1021 C1020 1.314 . S
N1021 C1024 1.279 . S
C1022 C1020 1.353 . S
C1022 C1025 1.348 . S
C1022 H1054 0.929 . S
C1023 C1024 1.358 . S
C1023 C1025 1.356 . S
C1023 H1055 0.930 . S
C1024 N1021 1.279 . S
C1024 C1023 1.358 . S
C1024 H1027 0.930 . S
C1025 C1022 1.348 . S
C1025 C1023 1.356 . S
H1026 C1020 0.930 . S
H1027 C1024 0.930 . S
O1028 Li968 1.956 . S
O1028 Li969 1.970 . S
O1028 Li970 1.961 . S
O1028 C972 1.325 . S
O1029 Li968 1.970 . S
O1029 Li969 1.956 . S
O1029 Li971 1.961 . S
O1029 C978 1.325 . S
O1030 Li968 1.961 . S
O1030 Li970 1.956 . S
O1030 Li971 1.970 . S
O1030 C1000 1.325 . S
O1031 Li969 1.961 . S
O1031 Li970 1.970 . S
O1031 Li971 1.956 . S
O1031 C1006 1.325 . S
H1032 C974 0.929 . S
H1033 C975 0.930 . S
H1034 C976 0.930 . S
H1035 C977 0.930 . S
H1036 C979 0.930 . S
H1037 C981 0.929 . S
H1038 C982 0.930 . S
H1039 C983 0.930 . S
H1040 C986 0.930 . S
H1041 C989 0.929 . S
H1042 C994 0.929 . S
H1043 C995 0.930 . S
H1044 C1002 0.929 . S
H1045 C1003 0.930 . S
H1046 C1004 0.930 . S
H1047 C1005 0.930 . S
H1048 C1007 0.929 . S
H1049 C1008 0.930 . S
H1050 C1009 0.930 . S
H1051 C1010 0.930 . S
H1052 C1014 0.929 . S
H1053 C1016 0.930 . S
H1054 C1022 0.929 . S
H1055 C1023 0.930 . S
Li1056 N1073 1.990 . S
Li1056 O1116 1.956 . S
Li1056 O1117 1.970 . S
Li1056 O1118 1.961 . S
Li1057 N1081 1.990 . S
Li1057 O1116 1.970 . S
Li1057 O1117 1.956 . S
Li1057 O1119 1.961 . S
Li1058 N1103 1.990 . S
Li1058 O1116 1.961 . S
Li1058 O1118 1.956 . S
Li1058 O1119 1.970 . S
Li1059 N1109 1.990 . S
Li1059 O1117 1.961 . S
Li1059 O1118 1.970 . S
Li1059 O1119 1.956 . S
C1060 C1062 1.348 . S
C1060 C1063 1.356 . S
C1060 O1116 1.325 . S
N1061 C1064 1.314 . S
N1061 C1065 1.279 . S
C1062 C1060 1.348 . S
C1062 C1064 1.353 1_655 S
C1062 H1120 0.929 . S
C1063 C1060 1.356 . S
C1063 C1065 1.358 1_655 S
C1063 H1121 0.930 . S
C1064 N1061 1.314 . S
C1064 C1062 1.353 1_455 S
C1064 H1122 0.930 . S
C1065 N1061 1.279 . S
C1065 C1063 1.358 1_455 S
C1065 H1123 0.930 . S
C1066 C1069 1.348 . S
C1066 C1070 1.356 . S
C1066 O1117 1.325 . S
C1067 N1068 1.279 . S
C1067 C1070 1.358 . S
C1067 H1124 0.930 . S
N1068 C1067 1.279 . S
N1068 C1071 1.314 . S
C1069 C1066 1.348 . S
C1069 C1071 1.353 . S
C1069 H1125 0.929 . S
C1070 C1066 1.356 . S
C1070 C1067 1.358 . S
C1070 H1126 0.930 . S
C1071 N1068 1.314 . S
C1071 C1069 1.353 . S
C1071 H1127 0.930 . S
C1072 N1073 1.314 . S
C1072 C1077 1.353 . S
C1072 H1078 0.930 . S
N1073 Li1056 1.990 . S
N1073 C1072 1.314 . S
N1073 C1075 1.279 . S
C1074 C1075 1.358 . S
C1074 C1076 1.356 . S
C1074 H1128 0.930 . S
C1075 N1073 1.279 . S
C1075 C1074 1.358 . S
C1075 H1079 0.930 . S
C1076 C1074 1.356 . S
C1076 C1077 1.348 . S
C1077 C1072 1.353 . S
C1077 C1076 1.348 . S
C1077 H1129 0.929 . S
H1078 C1072 0.930 . S
H1079 C1075 0.930 . S
C1080 N1081 1.314 . S
C1080 C1082 1.353 . S
C1080 H1086 0.930 . S
N1081 Li1057 1.990 . S
N1081 C1080 1.314 . S
N1081 C1084 1.279 . S
C1082 C1080 1.353 . S
C1082 C1085 1.348 . S
C1082 H1130 0.907 1_655 S
C1083 C1084 1.358 . S
C1083 C1085 1.356 . S
C1083 H1131 0.930 . S
C1084 N1081 1.279 . S
C1084 C1083 1.358 . S
C1084 H1087 0.930 . S
C1085 C1082 1.348 . S
C1085 C1083 1.356 . S
H1086 C1080 0.930 . S
H1087 C1084 0.930 . S
C1088 C1090 1.348 . S
C1088 C1091 1.356 . S
C1088 O1118 1.325 . S
N1089 C1092 1.314 . S
N1089 C1093 1.279 . S
C1090 C1088 1.348 . S
C1090 C1092 1.353 . S
C1090 H1132 0.929 . S
C1091 C1088 1.356 . S
C1091 C1093 1.358 . S
C1091 H1133 0.930 . S
C1092 N1089 1.314 . S
C1092 C1090 1.353 . S
C1092 H1134 0.930 . S
C1093 N1089 1.279 . S
C1093 C1091 1.358 . S
C1093 H1135 0.930 . S
C1094 C1095 1.348 . S
C1094 C1096 1.356 . S
C1094 O1119 1.325 . S
C1095 C1094 1.348 . S
C1095 C1097 1.353 . S
C1095 H1136 0.929 . S
C1096 C1094 1.356 . S
C1096 C1098 1.358 . S
C1096 H1137 0.930 . S
C1097 C1095 1.353 . S
C1097 N1099 1.314 . S
C1097 H1138 0.930 . S
C1098 C1096 1.358 . S
C1098 N1099 1.279 . S
C1098 H1139 0.930 . S
N1099 C1097 1.314 . S
N1099 C1098 1.279 . S
C1100 C1102 1.353 . S
C1100 N1103 1.314 . S
C1100 H1106 0.930 . S
C1101 N1103 1.279 . S
C1101 C1104 1.358 . S
C1101 H1107 0.930 . S
C1102 C1100 1.353 . S
C1102 C1105 1.348 . S
C1102 H1140 0.929 1_655 S
N1103 Li1058 1.990 . S
N1103 C1100 1.314 . S
N1103 C1101 1.279 . S
C1104 C1101 1.358 . S
C1104 C1105 1.356 . S
C1104 H1141 0.930 . S
C1105 C1102 1.348 . S
C1105 C1104 1.356 . S
H1106 C1100 0.930 . S
H1107 C1101 0.930 . S
C1108 N1109 1.314 . S
C1108 C1110 1.353 . S
C1108 H1114 0.930 . S
N1109 Li1059 1.990 . S
N1109 C1108 1.314 . S
N1109 C1112 1.279 . S
C1110 C1108 1.353 . S
C1110 C1113 1.348 . S
C1110 H1142 0.929 . S
C1111 C1112 1.358 . S
C1111 C1113 1.356 . S
C1111 H1143 0.930 . S
C1112 N1109 1.279 . S
C1112 C1111 1.358 . S
C1112 H1115 0.930 . S
C1113 C1110 1.348 . S
C1113 C1111 1.356 . S
H1114 C1108 0.930 . S
H1115 C1112 0.930 . S
O1116 Li1056 1.956 . S
O1116 Li1057 1.970 . S
O1116 Li1058 1.961 . S
O1116 C1060 1.325 . S
O1117 Li1056 1.970 . S
O1117 Li1057 1.956 . S
O1117 Li1059 1.961 . S
O1117 C1066 1.325 . S
O1118 Li1056 1.961 . S
O1118 Li1058 1.956 . S
O1118 Li1059 1.970 . S
O1118 C1088 1.325 . S
O1119 Li1057 1.961 . S
O1119 Li1058 1.970 . S
O1119 Li1059 1.956 . S
O1119 C1094 1.325 . S
H1120 C1062 0.929 . S
H1121 C1063 0.930 . S
H1122 C1064 0.930 . S
H1123 C1065 0.930 . S
H1124 C1067 0.930 . S
H1125 C1069 0.929 . S
H1126 C1070 0.930 . S
H1127 C1071 0.930 . S
H1128 C1074 0.930 . S
H1129 C1077 0.929 . S
H1130 C1082 0.907 1_455 S
H1131 C1083 0.930 . S
H1132 C1090 0.929 . S
H1133 C1091 0.930 . S
H1134 C1092 0.930 . S
H1135 C1093 0.930 . S
H1136 C1095 0.929 . S
H1137 C1096 0.930 . S
H1138 C1097 0.930 . S
H1139 C1098 0.930 . S
H1140 C1102 0.929 1_455 S
H1141 C1104 0.930 . S
H1142 C1110 0.929 . S
H1143 C1111 0.930 . S
Li1144 N1161 1.990 . S
Li1144 O1204 1.956 . S
Li1144 O1205 1.970 . S
Li1144 O1206 1.961 . S
Li1145 N1169 1.990 . S
Li1145 O1204 1.970 . S
Li1145 O1205 1.956 . S
Li1145 O1207 1.961 . S
Li1146 N1191 1.990 . S
Li1146 O1204 1.961 . S
Li1146 O1206 1.956 . S
Li1146 O1207 1.970 . S
Li1147 N1197 1.990 . S
Li1147 O1205 1.961 . S
Li1147 O1206 1.970 . S
Li1147 O1207 1.956 . S
C1148 C1150 1.348 . S
C1148 C1151 1.356 . S
C1148 O1204 1.325 . S
N1149 C1152 1.314 . S
N1149 C1153 1.279 . S
C1150 C1148 1.348 . S
C1150 C1152 1.353 . S
C1150 H1208 0.929 . S
C1151 C1148 1.356 . S
C1151 C1153 1.358 . S
C1151 H1209 0.930 . S
C1152 N1149 1.314 . S
C1152 C1150 1.353 . S
C1152 H1210 0.930 . S
C1153 N1149 1.279 . S
C1153 C1151 1.358 . S
C1153 H1211 0.930 . S
C1154 C1157 1.348 . S
C1154 C1158 1.356 . S
C1154 O1205 1.325 . S
C1155 N1156 1.279 . S
C1155 C1158 1.358 . S
C1155 H1212 0.930 . S
N1156 C1155 1.279 . S
N1156 C1159 1.314 . S
C1157 C1154 1.348 . S
C1157 C1159 1.353 . S
C1157 H1213 0.929 . S
C1158 C1154 1.356 . S
C1158 C1155 1.358 . S
C1158 H1214 0.930 . S
C1159 N1156 1.314 . S
C1159 C1157 1.353 . S
C1159 H1215 0.930 . S
C1160 N1161 1.314 . S
C1160 C1165 1.353 . S
C1160 H1166 0.930 . S
N1161 Li1144 1.990 . S
N1161 C1160 1.314 . S
N1161 C1163 1.279 . S
C1162 C1163 1.358 . S
C1162 C1164 1.356 . S
C1162 H1216 0.930 . S
C1163 N1161 1.279 . S
C1163 C1162 1.358 . S
C1163 H1167 0.930 . S
C1164 C1162 1.356 . S
C1164 C1165 1.348 . S
C1165 C1160 1.353 . S
C1165 C1164 1.348 . S
C1165 H1217 0.929 . S
H1166 C1160 0.930 . S
H1167 C1163 0.930 . S
C1168 N1169 1.314 . S
C1168 C1170 1.353 . S
C1168 H1174 0.930 . S
N1169 Li1145 1.990 . S
N1169 C1168 1.314 . S
N1169 C1172 1.279 . S
C1170 C1168 1.353 . S
C1170 C1173 1.348 . S
C1170 H1218 0.929 . S
C1171 C1172 1.358 . S
C1171 C1173 1.356 . S
C1171 H1219 0.930 . S
C1172 N1169 1.279 . S
C1172 C1171 1.358 . S
C1172 H1175 0.930 . S
C1173 C1170 1.348 . S
C1173 C1171 1.356 . S
H1174 C1168 0.930 . S
H1175 C1172 0.930 . S
C1176 C1178 1.348 . S
C1176 C1179 1.356 . S
C1176 O1206 1.325 . S
N1177 C1180 1.314 . S
N1177 C1181 1.279 . S
C1178 C1176 1.348 . S
C1178 C1180 1.353 . S
C1178 H1220 0.929 . S
C1179 C1176 1.356 . S
C1179 C1181 1.358 . S
C1179 H1221 0.930 . S
C1180 N1177 1.314 . S
C1180 C1178 1.353 . S
C1180 H1222 0.930 . S
C1181 N1177 1.279 . S
C1181 C1179 1.358 . S
C1181 H1223 0.930 . S
C1182 C1183 1.348 . S
C1182 C1184 1.356 . S
C1182 O1207 1.325 . S
C1183 C1182 1.348 . S
C1183 C1185 1.353 . S
C1183 H1224 0.929 . S
C1184 C1182 1.356 . S
C1184 C1186 1.358 . S
C1184 H1225 0.930 . S
C1185 C1183 1.353 . S
C1185 N1187 1.314 . S
C1185 H1226 0.930 . S
C1186 C1184 1.358 . S
C1186 N1187 1.279 . S
C1186 H1227 0.930 . S
N1187 C1185 1.314 . S
N1187 C1186 1.279 . S
C1188 C1190 1.353 . S
C1188 N1191 1.314 . S
C1188 H1194 0.930 . S
C1189 N1191 1.279 . S
C1189 C1192 1.358 . S
C1189 H1195 0.930 . S
C1190 C1188 1.353 . S
C1190 C1193 1.348 . S
C1190 H1228 0.929 . S
N1191 Li1146 1.990 . S
N1191 C1188 1.314 . S
N1191 C1189 1.279 . S
C1192 C1189 1.358 . S
C1192 C1193 1.356 . S
C1192 H1229 0.930 . S
C1193 C1190 1.348 . S
C1193 C1192 1.356 . S
H1194 C1188 0.930 . S
H1195 C1189 0.930 . S
C1196 N1197 1.314 . S
C1196 C1198 1.353 . S
C1196 H1202 0.930 . S
N1197 Li1147 1.990 . S
N1197 C1196 1.314 . S
N1197 C1200 1.279 . S
C1198 C1196 1.353 . S
C1198 C1201 1.348 . S
C1198 H1230 0.929 . S
C1199 C1200 1.358 . S
C1199 C1201 1.356 . S
C1199 H1231 0.930 . S
C1200 N1197 1.279 . S
C1200 C1199 1.358 . S
C1200 H1203 0.930 . S
C1201 C1198 1.348 . S
C1201 C1199 1.356 . S
H1202 C1196 0.930 . S
H1203 C1200 0.930 . S
O1204 Li1144 1.956 . S
O1204 Li1145 1.970 . S
O1204 Li1146 1.961 . S
O1204 C1148 1.325 . S
O1205 Li1144 1.970 . S
O1205 Li1145 1.956 . S
O1205 Li1147 1.961 . S
O1205 C1154 1.325 . S
O1206 Li1144 1.961 . S
O1206 Li1146 1.956 . S
O1206 Li1147 1.970 . S
O1206 C1176 1.325 . S
O1207 Li1145 1.961 . S
O1207 Li1146 1.970 . S
O1207 Li1147 1.956 . S
O1207 C1182 1.325 . S
H1208 C1150 0.929 . S
H1209 C1151 0.930 . S
H1210 C1152 0.930 . S
H1211 C1153 0.930 . S
H1212 C1155 0.930 . S
H1213 C1157 0.929 . S
H1214 C1158 0.930 . S
H1215 C1159 0.930 . S
H1216 C1162 0.930 . S
H1217 C1165 0.929 . S
H1218 C1170 0.929 . S
H1219 C1171 0.930 . S
H1220 C1178 0.929 . S
H1221 C1179 0.930 . S
H1222 C1180 0.930 . S
H1223 C1181 0.930 . S
H1224 C1183 0.929 . S
H1225 C1184 0.930 . S
H1226 C1185 0.930 . S
H1227 C1186 0.930 . S
H1228 C1190 0.929 . S
H1229 C1192 0.930 . S
H1230 C1198 0.929 . S
H1231 C1199 0.930 . S
Li1232 N1249 1.990 . S
Li1232 O1292 1.956 . S
Li1232 O1293 1.970 . S
Li1232 O1294 1.961 . S
Li1233 N1257 1.990 . S
Li1233 O1292 1.970 . S
Li1233 O1293 1.956 . S
Li1233 O1295 1.961 . S
Li1234 N1279 1.990 . S
Li1234 O1292 1.961 . S
Li1234 O1294 1.956 . S
Li1234 O1295 1.970 . S
Li1235 N1285 1.990 . S
Li1235 O1293 1.961 . S
Li1235 O1294 1.970 . S
Li1235 O1295 1.956 . S
C1236 C1238 1.348 . S
C1236 C1239 1.356 . S
C1236 O1292 1.325 . S
N1237 C1240 1.314 . S
N1237 C1241 1.279 . S
C1238 C1236 1.348 . S
C1238 C1240 1.353 . S
C1238 H1296 0.929 . S
C1239 C1236 1.356 . S
C1239 C1241 1.358 . S
C1239 H1297 0.930 . S
C1240 N1237 1.314 . S
C1240 C1238 1.353 . S
C1240 H1298 0.930 . S
C1241 N1237 1.279 . S
C1241 C1239 1.358 . S
C1241 H1299 0.930 . S
C1242 C1245 1.348 . S
C1242 C1246 1.356 . S
C1242 O1293 1.325 . S
C1243 N1244 1.279 . S
C1243 C1246 1.358 . S
C1243 H1300 0.930 . S
N1244 C1243 1.279 . S
N1244 C1247 1.314 . S
C1245 C1242 1.348 . S
C1245 C1247 1.353 . S
C1245 H1301 0.929 . S
C1246 C1242 1.356 . S
C1246 C1243 1.358 . S
C1246 H1302 0.930 . S
C1247 N1244 1.314 . S
C1247 C1245 1.353 . S
C1247 H1303 0.930 . S
C1248 N1249 1.314 . S
C1248 C1253 1.353 . S
C1248 H1254 0.930 . S
N1249 Li1232 1.990 . S
N1249 C1248 1.314 . S
N1249 C1251 1.279 . S
C1250 C1251 1.358 . S
C1250 C1252 1.356 . S
C1250 H1304 0.930 . S
C1251 N1249 1.279 . S
C1251 C1250 1.358 . S
C1251 H1255 0.930 . S
C1252 C1250 1.356 . S
C1252 C1253 1.348 . S
C1253 C1248 1.353 . S
C1253 C1252 1.348 . S
C1253 H1305 0.948 . S
H1254 C1248 0.930 . S
H1255 C1251 0.930 . S
C1256 N1257 1.314 . S
C1256 C1258 1.353 . S
C1256 H1262 0.930 . S
N1257 Li1233 1.990 . S
N1257 C1256 1.314 . S
N1257 C1260 1.279 . S
C1258 C1256 1.353 . S
C1258 C1261 1.348 . S
C1258 H1306 0.929 . S
C1259 C1260 1.358 . S
C1259 C1261 1.356 . S
C1259 H1307 0.930 . S
C1260 N1257 1.279 . S
C1260 C1259 1.358 . S
C1260 H1263 0.930 . S
C1261 C1258 1.348 . S
C1261 C1259 1.356 . S
H1262 C1256 0.930 . S
H1263 C1260 0.930 . S
C1264 C1266 1.348 . S
C1264 C1267 1.356 . S
C1264 O1294 1.325 1_556 S
N1265 C1268 1.314 . S
N1265 C1269 1.279 . S
C1266 C1264 1.348 . S
C1266 C1268 1.353 . S
C1266 H1308 0.929 . S
C1267 C1264 1.356 . S
C1267 C1269 1.358 . S
C1267 H1309 0.930 . S
C1268 N1265 1.314 . S
C1268 C1266 1.353 . S
C1268 H1310 0.930 . S
C1269 N1265 1.279 . S
C1269 C1267 1.358 . S
C1269 H1311 0.930 . S
C1270 C1271 1.348 . S
C1270 C1272 1.356 . S
C1270 O1295 1.325 . S
C1271 C1270 1.348 . S
C1271 C1273 1.353 . S
C1271 H1312 0.929 . S
C1272 C1270 1.356 . S
C1272 C1274 1.358 . S
C1272 H1313 0.930 . S
C1273 C1271 1.353 . S
C1273 N1275 1.314 . S
C1273 H1314 0.930 . S
C1274 C1272 1.358 . S
C1274 N1275 1.279 . S
C1274 H1315 0.930 . S
N1275 C1273 1.314 . S
N1275 C1274 1.279 . S
C1276 C1278 1.353 . S
C1276 N1279 1.314 . S
C1276 H1282 0.930 . S
C1277 N1279 1.279 1_556 S
C1277 C1280 1.358 . S
C1277 H1283 0.930 . S
C1278 C1276 1.353 . S
C1278 C1281 1.348 1_554 S
C1278 H1316 0.929 . S
N1279 Li1234 1.990 . S
N1279 C1276 1.314 . S
N1279 C1277 1.279 1_554 S
C1280 C1277 1.358 . S
C1280 C1281 1.356 . S
C1280 H1317 0.930 . S
C1281 C1278 1.348 1_556 S
C1281 C1280 1.356 . S
H1282 C1276 0.930 . S
H1283 C1277 0.930 . S
C1284 N1285 1.314 . S
C1284 C1286 1.353 . S
C1284 H1290 0.930 . S
N1285 Li1235 1.990 . S
N1285 C1284 1.314 . S
N1285 C1288 1.279 . S
C1286 C1284 1.353 . S
C1286 C1289 1.348 . S
C1286 H1318 0.929 . S
C1287 C1288 1.358 . S
C1287 C1289 1.356 . S
C1287 H1319 0.930 . S
C1288 N1285 1.279 . S
C1288 C1287 1.358 . S
C1288 H1291 0.930 . S
C1289 C1286 1.348 . S
C1289 C1287 1.356 . S
H1290 C1284 0.930 . S
H1291 C1288 0.930 . S
O1292 Li1232 1.956 . S
O1292 Li1233 1.970 . S
O1292 Li1234 1.961 . S
O1292 C1236 1.325 . S
O1293 Li1232 1.970 . S
O1293 Li1233 1.956 . S
O1293 Li1235 1.961 . S
O1293 C1242 1.325 . S
O1294 Li1232 1.961 . S
O1294 Li1234 1.956 . S
O1294 Li1235 1.970 . S
O1294 C1264 1.325 1_554 S
O1295 Li1233 1.961 . S
O1295 Li1234 1.970 . S
O1295 Li1235 1.956 . S
O1295 C1270 1.325 . S
H1296 C1238 0.929 . S
H1297 C1239 0.930 . S
H1298 C1240 0.930 . S
H1299 C1241 0.930 . S
H1300 C1243 0.930 . S
H1301 C1245 0.929 . S
H1302 C1246 0.930 . S
H1303 C1247 0.930 . S
H1304 C1250 0.930 . S
H1305 C1253 0.948 . S
H1306 C1258 0.929 . S
H1307 C1259 0.930 . S
H1308 C1266 0.929 . S
H1309 C1267 0.930 . S
H1310 C1268 0.930 . S
H1311 C1269 0.930 . S
H1312 C1271 0.929 . S
H1313 C1272 0.930 . S
H1314 C1273 0.930 . S
H1315 C1274 0.930 . S
H1316 C1278 0.929 . S
H1317 C1280 0.930 . S
H1318 C1286 0.929 . S
H1319 C1287 0.930 . S
Li1320 N1337 1.990 . S
Li1320 O1380 1.956 . S
Li1320 O1381 1.970 . S
Li1320 O1382 1.961 . S
Li1321 N1345 1.990 . S
Li1321 O1380 1.970 . S
Li1321 O1381 1.956 . S
Li1321 O1383 1.961 . S
Li1322 N1367 1.990 . S
Li1322 O1380 1.961 . S
Li1322 O1382 1.956 . S
Li1322 O1383 1.970 . S
Li1323 N1373 1.990 . S
Li1323 O1381 1.961 . S
Li1323 O1382 1.970 . S
Li1323 O1383 1.956 . S
C1324 C1326 1.348 . S
C1324 C1327 1.356 . S
C1324 O1380 1.325 . S
N1325 C1328 1.314 . S
N1325 C1329 1.279 . S
C1326 C1324 1.348 . S
C1326 C1328 1.353 . S
C1326 H1384 0.929 . S
C1327 C1324 1.356 . S
C1327 C1329 1.358 . S
C1327 H1385 0.930 . S
C1328 N1325 1.314 . S
C1328 C1326 1.353 . S
C1328 H1386 0.930 . S
C1329 N1325 1.279 . S
C1329 C1327 1.358 . S
C1329 H1387 0.930 . S
C1330 C1333 1.348 . S
C1330 C1334 1.356 . S
C1330 O1381 1.325 . S
C1331 N1332 1.279 . S
C1331 C1334 1.358 . S
C1331 H1388 0.930 . S
N1332 C1331 1.279 . S
N1332 C1335 1.314 . S
C1333 C1330 1.348 . S
C1333 C1335 1.353 . S
C1333 H1389 0.929 . S
C1334 C1330 1.356 . S
C1334 C1331 1.358 . S
C1334 H1390 0.930 . S
C1335 N1332 1.314 . S
C1335 C1333 1.353 . S
C1335 H1391 0.930 . S
C1336 N1337 1.314 . S
C1336 C1341 1.353 . S
C1336 H1342 0.930 . S
N1337 Li1320 1.990 . S
N1337 C1336 1.314 . S
N1337 C1339 1.279 . S
C1338 C1339 1.358 . S
C1338 C1340 1.356 . S
C1338 H1392 0.930 . S
C1339 N1337 1.279 . S
C1339 C1338 1.358 . S
C1339 H1343 0.930 . S
C1340 C1338 1.356 . S
C1340 C1341 1.348 . S
C1341 C1336 1.353 . S
C1341 C1340 1.348 . S
C1341 H1393 0.929 . S
H1342 C1336 0.930 . S
H1343 C1339 0.930 . S
C1344 N1345 1.314 . S
C1344 C1346 1.353 . S
C1344 H1350 0.930 . S
N1345 Li1321 1.990 . S
N1345 C1344 1.314 . S
N1345 C1348 1.279 . S
C1346 C1344 1.353 . S
C1346 C1349 1.369 . S
C1346 H1394 0.929 . S
C1347 C1348 1.375 . S
C1347 C1349 1.356 . S
C1347 H1395 0.912 1_455 S
C1348 N1345 1.279 . S
C1348 C1347 1.375 . S
C1348 H1351 0.930 . S
C1349 C1346 1.369 . S
C1349 C1347 1.356 . S
H1350 C1344 0.930 . S
H1351 C1348 0.930 . S
C1352 C1354 1.348 . S
C1352 C1355 1.356 . S
C1352 O1382 1.325 . S
N1353 C1356 1.314 . S
N1353 C1357 1.279 . S
C1354 C1352 1.348 . S
C1354 C1356 1.353 . S
C1354 H1396 0.929 . S
C1355 C1352 1.356 . S
C1355 C1357 1.358 . S
C1355 H1397 0.930 . S
C1356 N1353 1.314 . S
C1356 C1354 1.353 . S
C1356 H1398 0.930 . S
C1357 N1353 1.279 . S
C1357 C1355 1.358 . S
C1357 H1399 0.930 . S
C1358 C1359 1.348 . S
C1358 C1360 1.356 . S
C1358 O1383 1.325 . S
C1359 C1358 1.348 . S
C1359 C1361 1.353 . S
C1359 H1400 0.929 . S
C1360 C1358 1.356 . S
C1360 C1362 1.358 . S
C1360 H1401 0.930 . S
C1361 C1359 1.353 . S
C1361 N1363 1.314 . S
C1361 H1402 0.930 . S
C1362 C1360 1.358 . S
C1362 N1363 1.279 . S
C1362 H1403 0.930 . S
N1363 C1361 1.314 . S
N1363 C1362 1.279 . S
C1364 C1366 1.353 . S
C1364 N1367 1.314 . S
C1364 H1370 0.930 . S
C1365 N1367 1.279 . S
C1365 C1368 1.358 . S
C1365 H1371 0.930 . S
C1366 C1364 1.353 . S
C1366 C1369 1.348 . S
C1366 H1404 0.929 . S
N1367 Li1322 1.990 . S
N1367 C1364 1.314 . S
N1367 C1365 1.279 . S
C1368 C1365 1.358 . S
C1368 C1369 1.356 . S
C1368 H1405 0.930 . S
C1369 C1366 1.348 . S
C1369 C1368 1.356 . S
H1370 C1364 0.930 . S
H1371 C1365 0.930 . S
C1372 N1373 1.314 . S
C1372 C1374 1.353 . S
C1372 H1378 0.930 . S
N1373 Li1323 1.990 . S
N1373 C1372 1.314 . S
N1373 C1376 1.279 . S
C1374 C1372 1.353 . S
C1374 C1377 1.348 . S
C1374 H1406 0.929 . S
C1375 C1376 1.358 . S
C1375 C1377 1.356 . S
C1375 H1407 0.930 . S
C1376 N1373 1.279 . S
C1376 C1375 1.358 . S
C1376 H1379 0.930 . S
C1377 C1374 1.348 . S
C1377 C1375 1.356 . S
H1378 C1372 0.930 . S
H1379 C1376 0.930 . S
O1380 Li1320 1.956 . S
O1380 Li1321 1.970 . S
O1380 Li1322 1.961 . S
O1380 C1324 1.325 . S
O1381 Li1320 1.970 . S
O1381 Li1321 1.956 . S
O1381 Li1323 1.961 . S
O1381 C1330 1.325 . S
O1382 Li1320 1.961 . S
O1382 Li1322 1.956 . S
O1382 Li1323 1.970 . S
O1382 C1352 1.325 . S
O1383 Li1321 1.961 . S
O1383 Li1322 1.970 . S
O1383 Li1323 1.956 . S
O1383 C1358 1.325 . S
H1384 C1326 0.929 . S
H1385 C1327 0.930 . S
H1386 C1328 0.930 . S
H1387 C1329 0.930 . S
H1388 C1331 0.930 . S
H1389 C1333 0.929 . S
H1390 C1334 0.930 . S
H1391 C1335 0.930 . S
H1392 C1338 0.930 . S
H1393 C1341 0.929 . S
H1394 C1346 0.929 . S
H1395 C1347 0.912 1_655 S
H1396 C1354 0.929 . S
H1397 C1355 0.930 . S
H1398 C1356 0.930 . S
H1399 C1357 0.930 . S
H1400 C1359 0.929 . S
H1401 C1360 0.930 . S
H1402 C1361 0.930 . S
H1403 C1362 0.930 . S
H1404 C1366 0.929 . S
H1405 C1368 0.930 . S
H1406 C1374 0.929 . S
H1407 C1375 0.930 . S
Li1408 N1425 1.990 . S
Li1408 O1468 1.956 . S
Li1408 O1469 1.970 . S
Li1408 O1470 1.961 . S
Li1409 N1433 1.990 . S
Li1409 O1468 1.970 . S
Li1409 O1469 1.956 . S
Li1409 O1471 1.961 . S
Li1410 N1455 1.990 . S
Li1410 O1468 1.961 . S
Li1410 O1470 1.956 . S
Li1410 O1471 1.970 . S
Li1411 N1461 1.990 . S
Li1411 O1469 1.961 . S
Li1411 O1470 1.970 . S
Li1411 O1471 1.956 . S
C1412 C1414 1.348 . S
C1412 C1415 1.356 . S
C1412 O1468 1.325 . S
N1413 C1416 1.314 . S
N1413 C1417 1.279 . S
C1414 C1412 1.348 . S
C1414 C1416 1.353 . S
C1414 H1472 0.929 . S
C1415 C1412 1.356 . S
C1415 C1417 1.358 . S
C1415 H1473 0.930 . S
C1416 N1413 1.314 . S
C1416 C1414 1.353 . S
C1416 H1474 0.930 . S
C1417 N1413 1.279 . S
C1417 C1415 1.358 . S
C1417 H1475 0.930 . S
C1418 C1421 1.348 . S
C1418 C1422 1.356 . S
C1418 O1469 1.325 . S
C1419 N1420 1.279 . S
C1419 C1422 1.358 . S
C1419 H1476 0.930 1_565 S
N1420 C1419 1.279 . S
N1420 C1423 1.314 . S
C1421 C1418 1.348 . S
C1421 C1423 1.353 . S
C1421 H1477 0.929 . S
C1422 C1418 1.356 . S
C1422 C1419 1.358 . S
C1422 H1478 0.930 . S
C1423 N1420 1.314 . S
C1423 C1421 1.353 . S
C1423 H1479 0.930 . S
C1424 N1425 1.314 . S
C1424 C1429 1.353 . S
C1424 H1430 0.930 . S
N1425 Li1408 1.990 . S
N1425 C1424 1.314 . S
N1425 C1427 1.279 . S
C1426 C1427 1.358 . S
C1426 C1428 1.356 . S
C1426 H1480 0.930 . S
C1427 N1425 1.279 . S
C1427 C1426 1.358 . S
C1427 H1431 0.930 . S
C1428 C1426 1.356 . S
C1428 C1429 1.348 . S
C1429 C1424 1.353 . S
C1429 C1428 1.348 . S
C1429 H1481 0.929 . S
H1430 C1424 0.930 . S
H1431 C1427 0.930 . S
C1432 N1433 1.314 . S
C1432 C1434 1.353 . S
C1432 H1438 0.930 . S
N1433 Li1409 1.990 . S
N1433 C1432 1.314 . S
N1433 C1436 1.279 . S
C1434 C1432 1.353 . S
C1434 C1437 1.348 . S
C1434 H1482 0.929 . S
C1435 C1436 1.358 . S
C1435 C1437 1.356 . S
C1435 H1483 0.930 . S
C1436 N1433 1.279 . S
C1436 C1435 1.358 . S
C1436 H1439 0.930 . S
C1437 C1434 1.348 . S
C1437 C1435 1.356 . S
H1438 C1432 0.930 . S
H1439 C1436 0.930 . S
C1440 C1442 1.348 . S
C1440 C1443 1.356 . S
C1440 O1470 1.325 . S
N1441 C1444 1.314 . S
N1441 C1445 1.279 . S
C1442 C1440 1.348 . S
C1442 C1444 1.353 . S
C1442 H1484 0.929 . S
C1443 C1440 1.356 . S
C1443 C1445 1.358 . S
C1443 H1485 0.930 . S
C1444 N1441 1.314 . S
C1444 C1442 1.353 . S
C1444 H1486 0.930 . S
C1445 N1441 1.279 . S
C1445 C1443 1.358 . S
C1445 H1487 0.930 . S
C1446 C1447 1.348 . S
C1446 C1448 1.356 . S
C1446 O1471 1.325 . S
C1447 C1446 1.348 . S
C1447 C1449 1.353 . S
C1447 H1488 0.929 . S
C1448 C1446 1.356 . S
C1448 C1450 1.358 . S
C1448 H1489 0.930 . S
C1449 C1447 1.353 . S
C1449 N1451 1.314 . S
C1449 H1490 0.930 . S
C1450 C1448 1.358 . S
C1450 N1451 1.279 . S
C1450 H1491 0.930 . S
N1451 C1449 1.314 . S
N1451 C1450 1.279 . S
C1452 C1454 1.353 . S
C1452 N1455 1.314 . S
C1452 H1458 0.930 . S
C1453 N1455 1.279 . S
C1453 C1456 1.358 . S
C1453 H1459 0.930 . S
C1454 C1452 1.353 . S
C1454 C1457 1.348 . S
C1454 H1492 0.929 . S
N1455 Li1410 1.990 . S
N1455 C1452 1.314 . S
N1455 C1453 1.279 . S
C1456 C1453 1.358 . S
C1456 C1457 1.356 . S
C1456 H1493 0.930 . S
C1457 C1454 1.348 . S
C1457 C1456 1.356 . S
H1458 C1452 0.930 . S
H1459 C1453 0.930 . S
C1460 N1461 1.314 . S
C1460 C1462 1.353 . S
C1460 H1466 0.930 . S
N1461 Li1411 1.990 . S
N1461 C1460 1.314 . S
N1461 C1464 1.279 . S
C1462 C1460 1.353 . S
C1462 C1465 1.348 . S
C1462 H1494 0.929 1_565 S
C1463 C1464 1.358 . S
C1463 C1465 1.356 . S
C1463 H1495 0.930 . S
C1464 N1461 1.279 . S
C1464 C1463 1.358 . S
C1464 H1467 0.930 . S
C1465 C1462 1.348 . S
C1465 C1463 1.356 . S
H1466 C1460 0.930 . S
H1467 C1464 0.930 . S
O1468 Li1408 1.956 . S
O1468 Li1409 1.970 . S
O1468 Li1410 1.961 . S
O1468 C1412 1.325 . S
O1469 Li1408 1.970 . S
O1469 Li1409 1.956 . S
O1469 Li1411 1.961 . S
O1469 C1418 1.325 . S
O1470 Li1408 1.961 . S
O1470 Li1410 1.956 . S
O1470 Li1411 1.970 . S
O1470 C1440 1.325 . S
O1471 Li1409 1.961 . S
O1471 Li1410 1.970 . S
O1471 Li1411 1.956 . S
O1471 C1446 1.325 . S
H1472 C1414 0.929 . S
H1473 C1415 0.930 . S
H1474 C1416 0.930 . S
H1475 C1417 0.930 . S
H1476 C1419 0.930 1_545 S
H1477 C1421 0.929 . S
H1478 C1422 0.930 . S
H1479 C1423 0.930 . S
H1480 C1426 0.930 . S
H1481 C1429 0.929 . S
H1482 C1434 0.929 . S
H1483 C1435 0.930 . S
H1484 C1442 0.929 . S
H1485 C1443 0.930 . S
H1486 C1444 0.930 . S
H1487 C1445 0.930 . S
H1488 C1447 0.929 . S
H1489 C1448 0.930 . S
H1490 C1449 0.930 . S
H1491 C1450 0.930 . S
H1492 C1454 0.929 . S
H1493 C1456 0.930 . S
H1494 C1462 0.929 1_545 S
H1495 C1463 0.930 . S
Li1496 N1513 1.990 . S
Li1496 O1556 1.956 . S
Li1496 O1557 1.970 . S
Li1496 O1558 1.961 . S
Li1497 N1521 1.990 . S
Li1497 O1556 1.970 . S
Li1497 O1557 1.956 . S
Li1497 O1559 1.961 . S
Li1498 N1543 1.990 . S
Li1498 O1556 1.961 . S
Li1498 O1558 1.956 . S
Li1498 O1559 1.970 . S
Li1499 N1549 1.990 . S
Li1499 O1557 1.961 . S
Li1499 O1558 1.970 . S
Li1499 O1559 1.956 . S
C1500 C1502 1.348 . S
C1500 C1503 1.356 . S
C1500 O1556 1.325 . S
N1501 C1504 1.314 . S
N1501 C1505 1.279 . S
C1502 C1500 1.348 . S
C1502 C1504 1.353 . S
C1502 H1560 0.929 . S
C1503 C1500 1.356 . S
C1503 C1505 1.358 . S
C1503 H1561 0.930 . S
C1504 N1501 1.314 . S
C1504 C1502 1.353 . S
C1504 H1562 0.930 . S
C1505 N1501 1.279 . S
C1505 C1503 1.358 . S
C1505 H1563 0.930 . S
C1506 C1509 1.348 . S
C1506 C1510 1.356 . S
C1506 O1557 1.325 . S
C1507 N1508 1.279 . S
C1507 C1510 1.358 . S
C1507 H1564 0.930 . S
N1508 C1507 1.279 . S
N1508 C1511 1.314 . S
C1509 C1506 1.348 . S
C1509 C1511 1.353 . S
C1509 H1565 0.929 . S
C1510 C1506 1.356 . S
C1510 C1507 1.358 . S
C1510 H1566 0.930 . S
C1511 N1508 1.314 . S
C1511 C1509 1.353 . S
C1511 H1567 0.930 . S
C1512 N1513 1.314 . S
C1512 C1517 1.353 . S
C1512 H1518 0.930 . S
N1513 Li1496 1.990 . S
N1513 C1512 1.314 . S
N1513 C1515 1.279 . S
C1514 C1515 1.358 . S
C1514 C1516 1.356 . S
C1514 H1568 0.930 . S
C1515 N1513 1.279 . S
C1515 C1514 1.358 . S
C1515 H1519 0.930 . S
C1516 C1514 1.356 . S
C1516 C1517 1.348 . S
C1517 C1512 1.353 . S
C1517 C1516 1.348 . S
C1517 H1569 0.929 . S
H1518 C1512 0.930 . S
H1519 C1515 0.930 . S
C1520 N1521 1.314 . S
C1520 C1522 1.353 . S
C1520 H1526 0.930 . S
N1521 Li1497 1.990 . S
N1521 C1520 1.314 . S
N1521 C1524 1.279 . S
C1522 C1520 1.353 . S
C1522 C1525 1.348 . S
C1522 H1570 0.929 . S
C1523 C1524 1.358 . S
C1523 C1525 1.356 . S
C1523 H1571 0.930 . S
C1524 N1521 1.279 . S
C1524 C1523 1.358 . S
C1524 H1527 0.930 . S
C1525 C1522 1.348 . S
C1525 C1523 1.356 . S
H1526 C1520 0.930 . S
H1527 C1524 0.930 . S
C1528 C1530 1.348 . S
C1528 C1531 1.356 . S
C1528 O1558 1.325 . S
N1529 C1532 1.314 . S
N1529 C1533 1.279 . S
C1530 C1528 1.348 . S
C1530 C1532 1.353 . S
C1530 H1572 0.929 . S
C1531 C1528 1.356 . S
C1531 C1533 1.358 . S
C1531 H1573 0.930 . S
C1532 N1529 1.314 . S
C1532 C1530 1.353 . S
C1532 H1574 0.930 . S
C1533 N1529 1.279 . S
C1533 C1531 1.358 . S
C1533 H1575 0.930 . S
C1534 C1535 1.348 . S
C1534 C1536 1.356 . S
C1534 O1559 1.325 . S
C1535 C1534 1.348 . S
C1535 C1537 1.353 . S
C1535 H1576 0.929 . S
C1536 C1534 1.356 . S
C1536 C1538 1.358 . S
C1536 H1577 0.930 . S
C1537 C1535 1.353 . S
C1537 N1539 1.314 . S
C1537 H1578 0.930 . S
C1538 C1536 1.358 . S
C1538 N1539 1.279 . S
C1538 H1579 0.930 . S
N1539 C1537 1.314 . S
N1539 C1538 1.279 . S
C1540 C1542 1.353 . S
C1540 N1543 1.314 . S
C1540 H1546 0.930 . S
C1541 N1543 1.279 . S
C1541 C1544 1.358 . S
C1541 H1547 0.930 . S
C1542 C1540 1.353 . S
C1542 C1545 1.348 . S
C1542 H1580 0.929 . S
N1543 Li1498 1.990 . S
N1543 C1540 1.314 . S
N1543 C1541 1.279 . S
C1544 C1541 1.358 . S
C1544 C1545 1.356 . S
C1544 H1581 0.930 . S
C1545 C1542 1.348 . S
C1545 C1544 1.356 . S
H1546 C1540 0.930 . S
H1547 C1541 0.930 . S
C1548 N1549 1.314 . S
C1548 C1550 1.353 . S
C1548 H1554 0.930 . S
N1549 Li1499 1.990 . S
N1549 C1548 1.314 . S
N1549 C1552 1.279 . S
C1550 C1548 1.353 . S
C1550 C1553 1.348 . S
C1550 H1582 0.929 . S
C1551 C1552 1.358 . S
C1551 C1553 1.356 . S
C1551 H1583 0.930 . S
C1552 N1549 1.279 . S
C1552 C1551 1.358 . S
C1552 H1555 0.930 . S
C1553 C1550 1.348 . S
C1553 C1551 1.356 . S
H1554 C1548 0.930 . S
H1555 C1552 0.930 . S
O1556 Li1496 1.956 . S
O1556 Li1497 1.970 . S
O1556 Li1498 1.961 . S
O1556 C1500 1.325 . S
O1557 Li1496 1.970 . S
O1557 Li1497 1.956 . S
O1557 Li1499 1.961 . S
O1557 C1506 1.325 . S
O1558 Li1496 1.961 . S
O1558 Li1498 1.956 . S
O1558 Li1499 1.970 . S
O1558 C1528 1.325 . S
O1559 Li1497 1.961 . S
O1559 Li1498 1.970 . S
O1559 Li1499 1.956 . S
O1559 C1534 1.325 . S
H1560 C1502 0.929 . S
H1561 C1503 0.930 . S
H1562 C1504 0.930 . S
H1563 C1505 0.930 . S
H1564 C1507 0.930 . S
H1565 C1509 0.929 . S
H1566 C1510 0.930 . S
H1567 C1511 0.930 . S
H1568 C1514 0.930 . S
H1569 C1517 0.929 . S
H1570 C1522 0.929 . S
H1571 C1523 0.930 . S
H1572 C1530 0.929 . S
H1573 C1531 0.930 . S
H1574 C1532 0.930 . S
H1575 C1533 0.930 . S
H1576 C1535 0.929 . S
H1577 C1536 0.930 . S
H1578 C1537 0.930 . S
H1579 C1538 0.930 . S
H1580 C1542 0.929 . S
H1581 C1544 0.930 . S
H1582 C1550 0.929 . S
H1583 C1551 0.930 . S
Li1584 N1601 1.990 . S
Li1584 O1644 1.956 . S
Li1584 O1645 1.970 . S
Li1584 O1646 1.961 . S
Li1585 N1609 1.990 . S
Li1585 O1644 1.970 . S
Li1585 O1645 1.956 . S
Li1585 O1647 1.961 . S
Li1586 N1631 1.990 . S
Li1586 O1644 1.961 . S
Li1586 O1646 1.956 . S
Li1586 O1647 1.970 . S
Li1587 N1637 1.990 . S
Li1587 O1645 1.961 . S
Li1587 O1646 1.970 . S
Li1587 O1647 1.956 . S
C1588 C1590 1.348 . S
C1588 C1591 1.356 . S
C1588 O1644 1.325 . S
N1589 C1592 1.314 . S
N1589 C1593 1.279 . S
C1590 C1588 1.348 . S
C1590 C1592 1.353 . S
C1590 H1648 0.929 . S
C1591 C1588 1.356 . S
C1591 C1593 1.358 . S
C1591 H1649 0.930 . S
C1592 N1589 1.314 . S
C1592 C1590 1.353 . S
C1592 H1650 0.930 . S
C1593 N1589 1.279 . S
C1593 C1591 1.358 . S
C1593 H1651 0.930 . S
C1594 C1597 1.348 . S
C1594 C1598 1.356 . S
C1594 O1645 1.325 . S
C1595 N1596 1.279 . S
C1595 C1598 1.358 . S
C1595 H1652 0.930 1_545 S
N1596 C1595 1.279 . S
N1596 C1599 1.314 . S
C1597 C1594 1.348 . S
C1597 C1599 1.353 . S
C1597 H1653 0.929 . S
C1598 C1594 1.356 . S
C1598 C1595 1.358 . S
C1598 H1654 0.930 . S
C1599 N1596 1.314 . S
C1599 C1597 1.353 . S
C1599 H1655 0.930 . S
C1600 N1601 1.314 1_556 S
C1600 C1605 1.353 . S
C1600 H1606 0.930 . S
N1601 Li1584 1.990 . S
N1601 C1600 1.314 1_554 S
N1601 C1603 1.279 . S
C1602 C1603 1.358 . S
C1602 C1604 1.356 1_554 S
C1602 H1656 0.930 . S
C1603 N1601 1.279 . S
C1603 C1602 1.358 . S
C1603 H1607 0.930 . S
C1604 C1602 1.356 1_556 S
C1604 C1605 1.348 . S
C1605 C1600 1.353 . S
C1605 C1604 1.348 . S
C1605 H1657 0.929 . S
H1606 C1600 0.930 . S
H1607 C1603 0.930 . S
C1608 N1609 1.314 . S
C1608 C1610 1.353 . S
C1608 H1614 0.930 . S
N1609 Li1585 1.990 . S
N1609 C1608 1.314 . S
N1609 C1612 1.279 . S
C1610 C1608 1.353 . S
C1610 C1613 1.348 . S
C1610 H1658 0.929 . S
C1611 C1612 1.358 . S
C1611 C1613 1.356 . S
C1611 H1659 0.930 . S
C1612 N1609 1.279 . S
C1612 C1611 1.358 . S
C1612 H1615 0.930 . S
C1613 C1610 1.348 . S
C1613 C1611 1.356 . S
H1614 C1608 0.930 . S
H1615 C1612 0.930 . S
C1616 C1618 1.348 . S
C1616 C1619 1.356 . S
C1616 O1646 1.325 1_556 S
N1617 C1620 1.314 . S
N1617 C1621 1.279 . S
C1618 C1616 1.348 . S
C1618 C1620 1.353 . S
C1618 H1660 0.929 . S
C1619 C1616 1.356 . S
C1619 C1621 1.358 . S
C1619 H1661 0.930 . S
C1620 N1617 1.314 . S
C1620 C1618 1.353 . S
C1620 H1662 0.930 . S
C1621 N1617 1.279 . S
C1621 C1619 1.358 . S
C1621 H1663 0.930 . S
C1622 C1623 1.348 . S
C1622 C1624 1.356 . S
C1622 O1647 1.325 . S
C1623 C1622 1.348 . S
C1623 C1625 1.353 1_655 S
C1623 H1664 0.929 . S
C1624 C1622 1.356 . S
C1624 C1626 1.358 1_655 S
C1624 H1665 0.930 . S
C1625 C1623 1.353 1_455 S
C1625 N1627 1.314 . S
C1625 H1666 0.930 . S
C1626 C1624 1.358 1_455 S
C1626 N1627 1.279 . S
C1626 H1667 0.930 . S
N1627 C1625 1.314 . S
N1627 C1626 1.279 . S
C1628 C1630 1.353 . S
C1628 N1631 1.314 . S
C1628 H1634 0.930 . S
C1629 N1631 1.279 . S
C1629 C1632 1.358 . S
C1629 H1635 0.925 1_554 S
C1630 C1628 1.353 . S
C1630 C1633 1.348 . S
C1630 H1668 0.929 . S
N1631 Li1586 1.990 . S
N1631 C1628 1.314 . S
N1631 C1629 1.279 . S
C1632 C1629 1.358 . S
C1632 C1633 1.356 . S
C1632 H1669 0.930 1_554 S
C1633 C1630 1.348 . S
C1633 C1632 1.356 . S
H1634 C1628 0.930 . S
H1635 C1629 0.925 1_556 S
C1636 N1637 1.314 . S
C1636 C1638 1.353 . S
C1636 H1642 0.930 . S
N1637 Li1587 1.990 . S
N1637 C1636 1.314 . S
N1637 C1640 1.279 . S
C1638 C1636 1.353 . S
C1638 C1641 1.348 . S
C1638 H1670 0.929 1_544 S
C1639 C1640 1.358 . S
C1639 C1641 1.356 . S
C1639 H1671 0.930 1_655 S
C1640 N1637 1.279 . S
C1640 C1639 1.358 . S
C1640 H1643 0.930 . S
C1641 C1638 1.348 . S
C1641 C1639 1.356 . S
H1642 C1636 0.930 . S
H1643 C1640 0.930 . S
O1644 Li1584 1.956 . S
O1644 Li1585 1.970 . S
O1644 Li1586 1.961 . S
O1644 C1588 1.325 . S
O1645 Li1584 1.970 . S
O1645 Li1585 1.956 . S
O1645 Li1587 1.961 . S
O1645 C1594 1.325 . S
O1646 Li1584 1.961 . S
O1646 Li1586 1.956 . S
O1646 Li1587 1.970 . S
O1646 C1616 1.325 1_554 S
O1647 Li1585 1.961 . S
O1647 Li1586 1.970 . S
O1647 Li1587 1.956 . S
O1647 C1622 1.325 . S
H1648 C1590 0.929 . S
H1649 C1591 0.930 . S
H1650 C1592 0.930 . S
H1651 C1593 0.930 . S
H1652 C1595 0.930 1_565 S
H1653 C1597 0.929 . S
H1654 C1598 0.930 . S
H1655 C1599 0.930 . S
H1656 C1602 0.930 . S
H1657 C1605 0.929 . S
H1658 C1610 0.929 . S
H1659 C1611 0.930 . S
H1660 C1618 0.929 . S
H1661 C1619 0.930 . S
H1662 C1620 0.930 . S
H1663 C1621 0.930 . S
H1664 C1623 0.929 . S
H1665 C1624 0.930 . S
H1666 C1625 0.930 . S
H1667 C1626 0.930 . S
H1668 C1630 0.929 . S
H1669 C1632 0.930 1_556 S
H1670 C1638 0.929 1_566 S
H1671 C1639 0.930 1_455 S
Li1672 N1689 1.990 . S
Li1672 O1732 1.956 . S
Li1672 O1733 1.970 . S
Li1672 O1734 1.961 . S
Li1673 N1697 1.990 . S
Li1673 O1732 1.970 . S
Li1673 O1733 1.956 . S
Li1673 O1735 1.961 . S
Li1674 N1719 1.990 . S
Li1674 O1732 1.961 . S
Li1674 O1734 1.956 . S
Li1674 O1735 1.970 . S
Li1675 N1725 1.990 . S
Li1675 O1733 1.961 . S
Li1675 O1734 1.970 . S
Li1675 O1735 1.956 . S
C1676 C1678 1.348 . S
C1676 C1679 1.356 . S
C1676 O1732 1.325 . S
N1677 C1680 1.314 . S
N1677 C1681 1.279 . S
C1678 C1676 1.348 . S
C1678 C1680 1.353 . S
C1678 H1736 0.929 . S
C1679 C1676 1.356 . S
C1679 C1681 1.358 . S
C1679 H1737 0.930 . S
C1680 N1677 1.314 . S
C1680 C1678 1.353 . S
C1680 H1738 0.930 . S
C1681 N1677 1.279 . S
C1681 C1679 1.358 . S
C1681 H1739 0.930 . S
C1682 C1685 1.348 . S
C1682 C1686 1.356 . S
C1682 O1733 1.325 . S
C1683 N1684 1.279 . S
C1683 C1686 1.358 . S
C1683 H1740 0.930 . S
N1684 C1683 1.279 . S
N1684 C1687 1.314 . S
C1685 C1682 1.348 . S
C1685 C1687 1.353 . S
C1685 H1741 0.929 . S
C1686 C1682 1.356 . S
C1686 C1683 1.358 . S
C1686 H1742 0.930 . S
C1687 N1684 1.314 . S
C1687 C1685 1.353 . S
C1687 H1743 0.930 . S
C1688 N1689 1.314 . S
C1688 C1693 1.353 . S
C1688 H1694 0.930 . S
N1689 Li1672 1.990 . S
N1689 C1688 1.314 . S
N1689 C1691 1.279 . S
C1690 C1691 1.358 . S
C1690 C1692 1.378 . S
C1690 H1744 0.930 . S
C1691 N1689 1.279 . S
C1691 C1690 1.358 . S
C1691 H1695 0.930 . S
C1692 C1690 1.378 . S
C1692 C1693 1.353 . S
C1693 C1688 1.353 . S
C1693 C1692 1.353 . S
C1693 H1745 0.929 1_455 S
H1694 C1688 0.930 . S
H1695 C1691 0.930 . S
C1696 N1697 1.314 . S
C1696 C1698 1.353 . S
C1696 H1702 0.930 . S
N1697 Li1673 1.990 . S
N1697 C1696 1.314 . S
N1697 C1700 1.279 . S
C1698 C1696 1.353 . S
C1698 C1701 1.348 . S
C1698 H1746 0.929 . S
C1699 C1700 1.358 . S
C1699 C1701 1.356 . S
C1699 H1747 0.930 . S
C1700 N1697 1.279 . S
C1700 C1699 1.358 . S
C1700 H1703 0.930 . S
C1701 C1698 1.348 . S
C1701 C1699 1.356 . S
H1702 C1696 0.930 . S
H1703 C1700 0.930 . S
C1704 C1706 1.348 . S
C1704 C1707 1.356 . S
C1704 O1734 1.325 . S
N1705 C1708 1.314 . S
N1705 C1709 1.279 . S
C1706 C1704 1.348 . S
C1706 C1708 1.353 . S
C1706 H1748 0.929 . S
C1707 C1704 1.356 . S
C1707 C1709 1.358 . S
C1707 H1749 0.930 . S
C1708 N1705 1.314 . S
C1708 C1706 1.353 . S
C1708 H1750 0.930 . S
C1709 N1705 1.279 . S
C1709 C1707 1.358 . S
C1709 H1751 0.930 . S
C1710 C1711 1.348 . S
C1710 C1712 1.356 . S
C1710 O1735 1.325 . S
C1711 C1710 1.348 . S
C1711 C1713 1.353 . S
C1711 H1752 0.929 . S
C1712 C1710 1.356 . S
C1712 C1714 1.358 . S
C1712 H1753 0.930 . S
C1713 C1711 1.353 . S
C1713 N1715 1.314 . S
C1713 H1754 0.930 . S
C1714 C1712 1.358 . S
C1714 N1715 1.279 . S
C1714 H1755 0.930 . S
N1715 C1713 1.314 . S
N1715 C1714 1.279 . S
C1716 C1718 1.353 . S
C1716 N1719 1.314 . S
C1716 H1722 0.930 . S
C1717 N1719 1.279 . S
C1717 C1720 1.358 . S
C1717 H1723 0.930 . S
C1718 C1716 1.353 . S
C1718 C1721 1.348 . S
C1718 H1756 0.929 . S
N1719 Li1674 1.990 . S
N1719 C1716 1.314 . S
N1719 C1717 1.279 . S
C1720 C1717 1.358 . S
C1720 C1721 1.356 . S
C1720 H1757 0.930 . S
C1721 C1718 1.348 . S
C1721 C1720 1.356 . S
H1722 C1716 0.930 . S
H1723 C1717 0.930 . S
C1724 N1725 1.314 . S
C1724 C1726 1.353 . S
C1724 H1730 0.930 . S
N1725 Li1675 1.990 . S
N1725 C1724 1.314 . S
N1725 C1728 1.279 . S
C1726 C1724 1.353 . S
C1726 C1729 1.348 . S
C1726 H1758 0.929 . S
C1727 C1728 1.358 . S
C1727 C1729 1.356 . S
C1727 H1759 0.930 . S
C1728 N1725 1.279 . S
C1728 C1727 1.358 . S
C1728 H1731 0.930 . S
C1729 C1726 1.348 . S
C1729 C1727 1.356 . S
H1730 C1724 0.930 . S
H1731 C1728 0.930 . S
O1732 Li1672 1.956 . S
O1732 Li1673 1.970 . S
O1732 Li1674 1.961 . S
O1732 C1676 1.325 . S
O1733 Li1672 1.970 . S
O1733 Li1673 1.956 . S
O1733 Li1675 1.961 . S
O1733 C1682 1.325 . S
O1734 Li1672 1.961 . S
O1734 Li1674 1.956 . S
O1734 Li1675 1.970 . S
O1734 C1704 1.325 . S
O1735 Li1673 1.961 . S
O1735 Li1674 1.970 . S
O1735 Li1675 1.956 . S
O1735 C1710 1.325 . S
H1736 C1678 0.929 . S
H1737 C1679 0.930 . S
H1738 C1680 0.930 . S
H1739 C1681 0.930 . S
H1740 C1683 0.930 . S
H1741 C1685 0.929 . S
H1742 C1686 0.930 . S
H1743 C1687 0.930 . S
H1744 C1690 0.930 . S
H1745 C1693 0.929 1_655 S
H1746 C1698 0.929 . S
H1747 C1699 0.930 . S
H1748 C1706 0.929 . S
H1749 C1707 0.930 . S
H1750 C1708 0.930 . S
H1751 C1709 0.930 . S
H1752 C1711 0.929 . S
H1753 C1712 0.930 . S
H1754 C1713 0.930 . S
H1755 C1714 0.930 . S
H1756 C1718 0.929 . S
H1757 C1720 0.930 . S
H1758 C1726 0.929 . S
H1759 C1727 0.930 . S
Li1760 N1777 1.990 . S
Li1760 O1820 1.956 . S
Li1760 O1821 1.970 . S
Li1760 O1822 1.961 . S
Li1761 N1785 1.990 . S
Li1761 O1820 1.970 . S
Li1761 O1821 1.956 . S
Li1761 O1823 1.961 . S
Li1762 N1807 1.990 . S
Li1762 O1820 1.961 . S
Li1762 O1822 1.956 . S
Li1762 O1823 1.970 . S
Li1763 N1813 1.990 . S
Li1763 O1821 1.961 . S
Li1763 O1822 1.970 . S
Li1763 O1823 1.956 . S
C1764 C1766 1.348 . S
C1764 C1767 1.356 . S
C1764 O1820 1.325 1_554 S
N1765 C1768 1.314 . S
N1765 C1769 1.279 . S
C1766 C1764 1.348 . S
C1766 C1768 1.353 . S
C1766 H1824 0.929 . S
C1767 C1764 1.356 . S
C1767 C1769 1.358 . S
C1767 H1825 0.930 . S
C1768 N1765 1.314 . S
C1768 C1766 1.353 . S
C1768 H1826 0.930 . S
C1769 N1765 1.279 . S
C1769 C1767 1.358 . S
C1769 H1827 0.930 . S
C1770 C1773 1.348 . S
C1770 C1774 1.356 . S
C1770 O1821 1.325 . S
C1771 N1772 1.279 . S
C1771 C1774 1.358 . S
C1771 H1828 0.930 . S
N1772 C1771 1.279 . S
N1772 C1775 1.314 . S
C1773 C1770 1.348 . S
C1773 C1775 1.353 . S
C1773 H1829 0.929 . S
C1774 C1770 1.356 . S
C1774 C1771 1.358 . S
C1774 H1830 0.930 . S
C1775 N1772 1.314 . S
C1775 C1773 1.353 . S
C1775 H1831 0.930 . S
C1776 N1777 1.314 . S
C1776 C1781 1.353 . S
C1776 H1782 0.930 . S
N1777 Li1760 1.990 . S
N1777 C1776 1.314 . S
N1777 C1779 1.279 . S
C1778 C1779 1.358 . S
C1778 C1780 1.356 . S
C1778 H1832 0.930 1_556 S
C1779 N1777 1.279 . S
C1779 C1778 1.358 . S
C1779 H1783 0.925 1_556 S
C1780 C1778 1.356 . S
C1780 C1781 1.348 . S
C1781 C1776 1.353 . S
C1781 C1780 1.348 . S
C1781 H1833 0.929 . S
H1782 C1776 0.930 . S
H1783 C1779 0.925 1_554 S
C1784 N1785 1.314 . S
C1784 C1786 1.353 . S
C1784 H1790 0.930 . S
N1785 Li1761 1.990 . S
N1785 C1784 1.314 . S
N1785 C1788 1.279 . S
C1786 C1784 1.353 . S
C1786 C1789 1.348 . S
C1786 H1834 0.929 1_546 S
C1787 C1788 1.358 . S
C1787 C1789 1.356 . S
C1787 H1835 0.930 . S
C1788 N1785 1.279 . S
C1788 C1787 1.358 . S
C1788 H1791 0.930 . S
C1789 C1786 1.348 . S
C1789 C1787 1.356 . S
H1790 C1784 0.930 . S
H1791 C1788 0.930 . S
C1792 C1794 1.348 . S
C1792 C1795 1.356 . S
C1792 O1822 1.325 . S
N1793 C1796 1.314 . S
N1793 C1797 1.279 . S
C1794 C1792 1.348 . S
C1794 C1796 1.353 . S
C1794 H1836 0.929 . S
C1795 C1792 1.356 . S
C1795 C1797 1.358 . S
C1795 H1837 0.930 . S
C1796 N1793 1.314 . S
C1796 C1794 1.353 . S
C1796 H1838 0.930 . S
C1797 N1793 1.279 . S
C1797 C1795 1.358 . S
C1797 H1839 0.930 . S
C1798 C1799 1.348 . S
C1798 C1800 1.356 . S
C1798 O1823 1.325 . S
C1799 C1798 1.348 . S
C1799 C1801 1.353 . S
C1799 H1840 0.929 . S
C1800 C1798 1.356 . S
C1800 C1802 1.358 . S
C1800 H1841 0.930 . S
C1801 C1799 1.353 . S
C1801 N1803 1.314 . S
C1801 H1842 0.930 . S
C1802 C1800 1.358 . S
C1802 N1803 1.279 . S
C1802 H1843 0.930 1_545 S
N1803 C1801 1.314 . S
N1803 C1802 1.279 . S
C1804 C1806 1.353 . S
C1804 N1807 1.314 1_554 S
C1804 H1810 0.930 . S
C1805 N1807 1.279 . S
C1805 C1808 1.358 . S
C1805 H1811 0.930 . S
C1806 C1804 1.353 . S
C1806 C1809 1.348 . S
C1806 H1844 0.929 . S
N1807 Li1762 1.990 . S
N1807 C1804 1.314 1_556 S
N1807 C1805 1.279 . S
C1808 C1805 1.358 . S
C1808 C1809 1.356 1_556 S
C1808 H1845 0.930 . S
C1809 C1806 1.348 . S
C1809 C1808 1.356 1_554 S
H1810 C1804 0.930 . S
H1811 C1805 0.930 . S
C1812 N1813 1.314 . S
C1812 C1814 1.353 . S
C1812 H1818 0.930 . S
N1813 Li1763 1.990 . S
N1813 C1812 1.314 . S
N1813 C1816 1.279 . S
C1814 C1812 1.353 . S
C1814 C1817 1.348 . S
C1814 H1846 0.929 . S
C1815 C1816 1.358 . S
C1815 C1817 1.356 . S
C1815 H1847 0.930 . S
C1816 N1813 1.279 . S
C1816 C1815 1.358 . S
C1816 H1819 0.930 . S
C1817 C1814 1.348 . S
C1817 C1815 1.356 . S
H1818 C1812 0.930 . S
H1819 C1816 0.930 . S
O1820 Li1760 1.956 . S
O1820 Li1761 1.970 . S
O1820 Li1762 1.961 . S
O1820 C1764 1.325 1_556 S
O1821 Li1760 1.970 . S
O1821 Li1761 1.956 . S
O1821 Li1763 1.961 . S
O1821 C1770 1.325 . S
O1822 Li1760 1.961 . S
O1822 Li1762 1.956 . S
O1822 Li1763 1.970 . S
O1822 C1792 1.325 . S
O1823 Li1761 1.961 . S
O1823 Li1762 1.970 . S
O1823 Li1763 1.956 . S
O1823 C1798 1.325 . S
H1824 C1766 0.929 . S
H1825 C1767 0.930 . S
H1826 C1768 0.930 . S
H1827 C1769 0.930 . S
H1828 C1771 0.930 . S
H1829 C1773 0.929 . S
H1830 C1774 0.930 . S
H1831 C1775 0.930 . S
H1832 C1778 0.930 1_554 S
H1833 C1781 0.929 . S
H1834 C1786 0.929 1_564 S
H1835 C1787 0.930 . S
H1836 C1794 0.929 . S
H1837 C1795 0.930 . S
H1838 C1796 0.930 . S
H1839 C1797 0.930 . S
H1840 C1799 0.929 . S
H1841 C1800 0.930 . S
H1842 C1801 0.930 . S
H1843 C1802 0.930 1_565 S
H1844 C1806 0.929 . S
H1845 C1808 0.930 . S
H1846 C1814 0.929 . S
H1847 C1815 0.930 . S
Li1848 N1865 1.990 . S
Li1848 O1908 1.956 . S
Li1848 O1909 1.970 . S
Li1848 O1910 1.961 . S
Li1849 N1873 1.990 . S
Li1849 O1908 1.970 . S
Li1849 O1909 1.956 . S
Li1849 O1911 1.961 . S
Li1850 N1895 1.990 . S
Li1850 O1908 1.961 . S
Li1850 O1910 1.956 . S
Li1850 O1911 1.970 . S
Li1851 N1901 1.990 . S
Li1851 O1909 1.961 . S
Li1851 O1910 1.970 . S
Li1851 O1911 1.956 . S
C1852 C1854 1.348 . S
C1852 C1855 1.356 . S
C1852 O1908 1.325 . S
N1853 C1856 1.314 . S
N1853 C1857 1.279 . S
C1854 C1852 1.348 . S
C1854 C1856 1.353 . S
C1854 H1912 0.929 . S
C1855 C1852 1.356 . S
C1855 C1857 1.358 . S
C1855 H1913 0.930 . S
C1856 N1853 1.314 . S
C1856 C1854 1.353 . S
C1856 H1914 0.930 . S
C1857 N1853 1.279 . S
C1857 C1855 1.358 . S
C1857 H1915 0.930 . S
C1858 C1861 1.348 . S
C1858 C1862 1.356 . S
C1858 O1909 1.325 . S
C1859 N1860 1.279 . S
C1859 C1862 1.358 . S
C1859 H1916 0.930 . S
N1860 C1859 1.279 . S
N1860 C1863 1.314 . S
C1861 C1858 1.348 . S
C1861 C1863 1.353 . S
C1861 H1917 0.929 . S
C1862 C1858 1.356 . S
C1862 C1859 1.358 . S
C1862 H1918 0.930 . S
C1863 N1860 1.314 . S
C1863 C1861 1.353 . S
C1863 H1919 0.930 . S
C1864 N1865 1.314 . S
C1864 C1869 1.353 . S
C1864 H1870 0.930 . S
N1865 Li1848 1.990 . S
N1865 C1864 1.314 . S
N1865 C1867 1.279 . S
C1866 C1867 1.358 . S
C1866 C1868 1.356 . S
C1866 H1920 0.930 . S
C1867 N1865 1.279 . S
C1867 C1866 1.358 . S
C1867 H1871 0.930 . S
C1868 C1866 1.356 . S
C1868 C1869 1.348 . S
C1869 C1864 1.353 . S
C1869 C1868 1.348 . S
C1869 H1921 0.929 . S
H1870 C1864 0.930 . S
H1871 C1867 0.930 . S
C1872 N1873 1.314 . S
C1872 C1874 1.353 . S
C1872 H1878 0.930 . S
N1873 Li1849 1.990 . S
N1873 C1872 1.314 . S
N1873 C1876 1.279 . S
C1874 C1872 1.353 . S
C1874 C1877 1.348 . S
C1874 H1922 0.929 . S
C1875 C1876 1.358 . S
C1875 C1877 1.356 . S
C1875 H1923 0.930 . S
C1876 N1873 1.279 . S
C1876 C1875 1.358 . S
C1876 H1879 0.930 . S
C1877 C1874 1.348 . S
C1877 C1875 1.356 . S
H1878 C1872 0.930 . S
H1879 C1876 0.930 . S
C1880 C1882 1.348 . S
C1880 C1883 1.356 . S
C1880 O1910 1.325 . S
N1881 C1884 1.314 . S
N1881 C1885 1.279 . S
C1882 C1880 1.348 . S
C1882 C1884 1.353 . S
C1882 H1924 0.929 . S
C1883 C1880 1.356 . S
C1883 C1885 1.358 . S
C1883 H1925 0.930 . S
C1884 N1881 1.314 . S
C1884 C1882 1.353 . S
C1884 H1926 0.930 . S
C1885 N1881 1.279 . S
C1885 C1883 1.358 . S
C1885 H1927 0.930 . S
C1886 C1887 1.348 . S
C1886 C1888 1.356 . S
C1886 O1911 1.325 . S
C1887 C1886 1.348 . S
C1887 C1889 1.353 . S
C1887 H1928 0.929 . S
C1888 C1886 1.356 . S
C1888 C1890 1.358 . S
C1888 H1929 0.930 . S
C1889 C1887 1.353 . S
C1889 N1891 1.314 . S
C1889 H1930 0.930 . S
C1890 C1888 1.358 . S
C1890 N1891 1.279 . S
C1890 H1931 0.930 . S
N1891 C1889 1.314 . S
N1891 C1890 1.279 . S
C1892 C1894 1.353 . S
C1892 N1895 1.314 . S
C1892 H1898 0.930 . S
C1893 N1895 1.279 . S
C1893 C1896 1.358 . S
C1893 H1899 0.930 . S
C1894 C1892 1.353 . S
C1894 C1897 1.348 . S
C1894 H1932 0.929 . S
N1895 Li1850 1.990 . S
N1895 C1892 1.314 . S
N1895 C1893 1.279 . S
C1896 C1893 1.358 . S
C1896 C1897 1.356 . S
C1896 H1933 0.930 . S
C1897 C1894 1.348 . S
C1897 C1896 1.356 . S
H1898 C1892 0.930 . S
H1899 C1893 0.930 . S
C1900 N1901 1.314 . S
C1900 C1902 1.353 . S
C1900 H1906 0.930 . S
N1901 Li1851 1.990 . S
N1901 C1900 1.314 . S
N1901 C1904 1.279 . S
C1902 C1900 1.353 . S
C1902 C1905 1.353 . S
C1902 H1934 0.929 1_455 S
C1903 C1904 1.358 . S
C1903 C1905 1.378 . S
C1903 H1935 0.930 . S
C1904 N1901 1.279 . S
C1904 C1903 1.358 . S
C1904 H1907 0.930 . S
C1905 C1902 1.353 . S
C1905 C1903 1.378 . S
H1906 C1900 0.930 . S
H1907 C1904 0.930 . S
O1908 Li1848 1.956 . S
O1908 Li1849 1.970 . S
O1908 Li1850 1.961 . S
O1908 C1852 1.325 . S
O1909 Li1848 1.970 . S
O1909 Li1849 1.956 . S
O1909 Li1851 1.961 . S
O1909 C1858 1.325 . S
O1910 Li1848 1.961 . S
O1910 Li1850 1.956 . S
O1910 Li1851 1.970 . S
O1910 C1880 1.325 . S
O1911 Li1849 1.961 . S
O1911 Li1850 1.970 . S
O1911 Li1851 1.956 . S
O1911 C1886 1.325 . S
H1912 C1854 0.929 . S
H1913 C1855 0.930 . S
H1914 C1856 0.930 . S
H1915 C1857 0.930 . S
H1916 C1859 0.930 . S
H1917 C1861 0.929 . S
H1918 C1862 0.930 . S
H1919 C1863 0.930 . S
H1920 C1866 0.930 . S
H1921 C1869 0.929 . S
H1922 C1874 0.929 . S
H1923 C1875 0.930 . S
H1924 C1882 0.929 . S
H1925 C1883 0.930 . S
H1926 C1884 0.930 . S
H1927 C1885 0.930 . S
H1928 C1887 0.929 . S
H1929 C1888 0.930 . S
H1930 C1889 0.930 . S
H1931 C1890 0.930 . S
H1932 C1894 0.929 . S
H1933 C1896 0.930 . S
H1934 C1902 0.929 1_655 S
H1935 C1903 0.930 . S
Li1936 N1953 1.990 . S
Li1936 O1996 1.956 . S
Li1936 O1997 1.970 . S
Li1936 O1998 1.961 . S
Li1937 N1961 1.990 . S
Li1937 O1996 1.970 . S
Li1937 O1997 1.956 . S
Li1937 O1999 1.961 . S
Li1938 N1983 1.990 . S
Li1938 O1996 1.961 . S
Li1938 O1998 1.956 . S
Li1938 O1999 1.970 . S
Li1939 N1989 1.990 . S
Li1939 O1997 1.961 . S
Li1939 O1998 1.970 . S
Li1939 O1999 1.956 . S
C1940 C1942 1.348 . S
C1940 C1943 1.356 . S
C1940 O1996 1.325 . S
N1941 C1944 1.314 . S
N1941 C1945 1.279 . S
C1942 C1940 1.348 . S
C1942 C1944 1.353 1_655 S
C1942 H2000 0.929 . S
C1943 C1940 1.356 . S
C1943 C1945 1.358 1_655 S
C1943 H2001 0.930 . S
C1944 N1941 1.314 . S
C1944 C1942 1.353 1_455 S
C1944 H2002 0.930 . S
C1945 N1941 1.279 . S
C1945 C1943 1.358 1_455 S
C1945 H2003 0.930 . S
C1946 C1949 1.348 . S
C1946 C1950 1.356 . S
C1946 O1997 1.325 . S
C1947 N1948 1.279 . S
C1947 C1950 1.358 . S
C1947 H2004 0.930 . S
N1948 C1947 1.279 . S
N1948 C1951 1.314 . S
C1949 C1946 1.348 . S
C1949 C1951 1.353 . S
C1949 H2005 0.929 . S
C1950 C1946 1.356 . S
C1950 C1947 1.358 . S
C1950 H2006 0.930 . S
C1951 N1948 1.314 . S
C1951 C1949 1.353 . S
C1951 H2007 0.930 . S
C1952 N1953 1.314 . S
C1952 C1957 1.353 . S
C1952 H1958 0.930 . S
N1953 Li1936 1.990 . S
N1953 C1952 1.314 . S
N1953 C1955 1.279 . S
C1954 C1955 1.358 . S
C1954 C1956 1.356 . S
C1954 H2008 0.930 1_655 S
C1955 N1953 1.279 . S
C1955 C1954 1.358 . S
C1955 H1959 0.930 . S
C1956 C1954 1.356 . S
C1956 C1957 1.348 . S
C1957 C1952 1.353 . S
C1957 C1956 1.348 . S
C1957 H2009 0.929 1_565 S
H1958 C1952 0.930 . S
H1959 C1955 0.930 . S
C1960 N1961 1.314 . S
C1960 C1962 1.353 . S
C1960 H1966 0.930 . S
N1961 Li1937 1.990 . S
N1961 C1960 1.314 . S
N1961 C1964 1.279 . S
C1962 C1960 1.353 . S
C1962 C1965 1.348 . S
C1962 H2010 0.929 . S
C1963 C1964 1.358 . S
C1963 C1965 1.356 . S
C1963 H2011 0.930 . S
C1964 N1961 1.279 . S
C1964 C1963 1.358 . S
C1964 H1967 0.930 . S
C1965 C1962 1.348 . S
C1965 C1963 1.356 . S
H1966 C1960 0.930 . S
H1967 C1964 0.930 . S
C1968 C1970 1.348 . S
C1968 C1971 1.356 . S
C1968 O1998 1.325 . S
N1969 C1972 1.314 . S
N1969 C1973 1.279 . S
C1970 C1968 1.348 . S
C1970 C1972 1.353 . S
C1970 H2012 0.929 . S
C1971 C1968 1.356 . S
C1971 C1973 1.358 . S
C1971 H2013 0.930 . S
C1972 N1969 1.314 . S
C1972 C1970 1.353 . S
C1972 H2014 0.930 . S
C1973 N1969 1.279 . S
C1973 C1971 1.358 . S
C1973 H2015 0.930 1_565 S
C1974 C1975 1.348 . S
C1974 C1976 1.356 . S
C1974 O1999 1.325 . S
C1975 C1974 1.348 . S
C1975 C1977 1.353 . S
C1975 H2016 0.929 . S
C1976 C1974 1.356 . S
C1976 C1978 1.358 . S
C1976 H2017 0.930 . S
C1977 C1975 1.353 . S
C1977 N1979 1.314 . S
C1977 H2018 0.930 . S
C1978 C1976 1.358 . S
C1978 N1979 1.279 . S
C1978 H2019 0.930 . S
N1979 C1977 1.314 . S
N1979 C1978 1.279 . S
C1980 C1982 1.353 . S
C1980 N1983 1.314 . S
C1980 H1986 0.930 . S
C1981 N1983 1.279 . S
C1981 C1984 1.358 . S
C1981 H1987 0.930 . S
C1982 C1980 1.353 . S
C1982 C1985 1.348 . S
C1982 H2020 0.929 . S
N1983 Li1938 1.990 . S
N1983 C1980 1.314 . S
N1983 C1981 1.279 . S
C1984 C1981 1.358 . S
C1984 C1985 1.356 . S
C1984 H2021 0.930 . S
C1985 C1982 1.348 . S
C1985 C1984 1.356 . S
H1986 C1980 0.930 . S
H1987 C1981 0.930 . S
C1988 N1989 1.314 . S
C1988 C1990 1.353 . S
C1988 H1994 0.930 . S
N1989 Li1939 1.990 . S
N1989 C1988 1.314 . S
N1989 C1992 1.279 . S
C1990 C1988 1.353 . S
C1990 C1993 1.348 . S
C1990 H2022 0.929 . S
C1991 C1992 1.358 . S
C1991 C1993 1.356 . S
C1991 H2023 0.930 . S
C1992 N1989 1.279 . S
C1992 C1991 1.358 . S
C1992 H1995 0.930 . S
C1993 C1990 1.348 . S
C1993 C1991 1.356 . S
H1994 C1988 0.930 . S
H1995 C1992 0.930 . S
O1996 Li1936 1.956 . S
O1996 Li1937 1.970 . S
O1996 Li1938 1.961 . S
O1996 C1940 1.325 . S
O1997 Li1936 1.970 . S
O1997 Li1937 1.956 . S
O1997 Li1939 1.961 . S
O1997 C1946 1.325 . S
O1998 Li1936 1.961 . S
O1998 Li1938 1.956 . S
O1998 Li1939 1.970 . S
O1998 C1968 1.325 . S
O1999 Li1937 1.961 . S
O1999 Li1938 1.970 . S
O1999 Li1939 1.956 . S
O1999 C1974 1.325 . S
H2000 C1942 0.929 . S
H2001 C1943 0.930 . S
H2002 C1944 0.930 . S
H2003 C1945 0.930 . S
H2004 C1947 0.930 . S
H2005 C1949 0.929 . S
H2006 C1950 0.930 . S
H2007 C1951 0.930 . S
H2008 C1954 0.930 1_455 S
H2009 C1957 0.929 1_545 S
H2010 C1962 0.929 . S
H2011 C1963 0.930 . S
H2012 C1970 0.929 . S
H2013 C1971 0.930 . S
H2014 C1972 0.930 . S
H2015 C1973 0.930 1_545 S
H2016 C1975 0.929 . S
H2017 C1976 0.930 . S
H2018 C1977 0.930 . S
H2019 C1978 0.930 . S
H2020 C1982 0.929 . S
H2021 C1984 0.930 . S
H2022 C1990 0.929 . S
H2023 C1991 0.930 . S
Li2024 N2041 1.990 . S
Li2024 O2084 1.956 . S
Li2024 O2085 1.970 . S
Li2024 O2086 1.961 . S
Li2025 N2049 1.990 . S
Li2025 O2084 1.970 . S
Li2025 O2085 1.956 . S
Li2025 O2087 1.961 . S
Li2026 N2071 1.990 . S
Li2026 O2084 1.961 . S
Li2026 O2086 1.956 . S
Li2026 O2087 1.970 . S
Li2027 N2077 1.990 . S
Li2027 O2085 1.961 . S
Li2027 O2086 1.970 . S
Li2027 O2087 1.956 . S
C2028 C2030 1.348 . S
C2028 C2031 1.356 . S
C2028 O2084 1.325 . S
N2029 C2032 1.314 . S
N2029 C2033 1.279 . S
C2030 C2028 1.348 . S
C2030 C2032 1.353 . S
C2030 H2088 0.929 . S
C2031 C2028 1.356 . S
C2031 C2033 1.358 . S
C2031 H2089 0.930 . S
C2032 N2029 1.314 . S
C2032 C2030 1.353 . S
C2032 H2090 0.930 . S
C2033 N2029 1.279 . S
C2033 C2031 1.358 . S
C2033 H2091 0.930 . S
C2034 C2037 1.348 . S
C2034 C2038 1.356 . S
C2034 O2085 1.325 . S
C2035 N2036 1.279 . S
C2035 C2038 1.358 . S
C2035 H2092 0.930 . S
N2036 C2035 1.279 . S
N2036 C2039 1.314 . S
C2037 C2034 1.348 . S
C2037 C2039 1.353 . S
C2037 H2093 0.929 . S
C2038 C2034 1.356 . S
C2038 C2035 1.358 . S
C2038 H2094 0.930 . S
C2039 N2036 1.314 . S
C2039 C2037 1.353 . S
C2039 H2095 0.930 . S
C2040 N2041 1.314 . S
C2040 C2045 1.353 . S
C2040 H2046 0.930 . S
N2041 Li2024 1.990 . S
N2041 C2040 1.314 . S
N2041 C2043 1.279 . S
C2042 C2043 1.358 . S
C2042 C2044 1.356 . S
C2042 H2096 0.930 . S
C2043 N2041 1.279 . S
C2043 C2042 1.358 . S
C2043 H2047 0.930 . S
C2044 C2042 1.356 . S
C2044 C2045 1.348 . S
C2045 C2040 1.353 . S
C2045 C2044 1.348 . S
C2045 H2097 0.929 . S
H2046 C2040 0.930 . S
H2047 C2043 0.930 . S
C2048 N2049 1.314 . S
C2048 C2050 1.353 . S
C2048 H2054 0.930 . S
N2049 Li2025 1.990 . S
N2049 C2048 1.314 . S
N2049 C2052 1.279 . S
C2050 C2048 1.353 . S
C2050 C2053 1.348 . S
C2050 H2098 0.929 . S
C2051 C2052 1.358 . S
C2051 C2053 1.356 . S
C2051 H2099 0.930 . S
C2052 N2049 1.279 . S
C2052 C2051 1.358 . S
C2052 H2055 0.930 . S
C2053 C2050 1.348 . S
C2053 C2051 1.356 . S
H2054 C2048 0.930 . S
H2055 C2052 0.930 . S
C2056 C2058 1.348 . S
C2056 C2059 1.356 . S
C2056 O2086 1.325 . S
N2057 C2060 1.314 . S
N2057 C2061 1.279 . S
C2058 C2056 1.348 . S
C2058 C2060 1.353 . S
C2058 H2100 0.929 . S
C2059 C2056 1.356 . S
C2059 C2061 1.358 . S
C2059 H2101 0.930 . S
C2060 N2057 1.314 . S
C2060 C2058 1.353 . S
C2060 H2102 0.930 . S
C2061 N2057 1.279 . S
C2061 C2059 1.358 . S
C2061 H2103 0.930 . S
C2062 C2063 1.348 . S
C2062 C2064 1.356 . S
C2062 O2087 1.325 . S
C2063 C2062 1.348 . S
C2063 C2065 1.353 . S
C2063 H2104 0.929 . S
C2064 C2062 1.356 . S
C2064 C2066 1.358 . S
C2064 H2105 0.930 . S
C2065 C2063 1.353 . S
C2065 N2067 1.314 . S
C2065 H2106 0.930 . S
C2066 C2064 1.358 . S
C2066 N2067 1.279 . S
C2066 H2107 0.930 . S
N2067 C2065 1.314 . S
N2067 C2066 1.279 . S
C2068 C2070 1.353 . S
C2068 N2071 1.314 . S
C2068 H2074 0.930 . S
C2069 N2071 1.279 . S
C2069 C2072 1.358 . S
C2069 H2075 0.930 . S
C2070 C2068 1.353 . S
C2070 C2073 1.348 . S
C2070 H2108 0.929 . S
N2071 Li2026 1.990 . S
N2071 C2068 1.314 . S
N2071 C2069 1.279 . S
C2072 C2069 1.358 . S
C2072 C2073 1.356 . S
C2072 H2109 0.930 . S
C2073 C2070 1.348 . S
C2073 C2072 1.356 . S
H2074 C2068 0.930 . S
H2075 C2069 0.930 . S
C2076 N2077 1.314 . S
C2076 C2078 1.353 . S
C2076 H2082 0.930 . S
N2077 Li2027 1.990 . S
N2077 C2076 1.314 . S
N2077 C2080 1.279 . S
C2078 C2076 1.353 . S
C2078 C2081 1.348 . S
C2078 H2110 0.929 . S
C2079 C2080 1.358 . S
C2079 C2081 1.356 . S
C2079 H2111 0.930 . S
C2080 N2077 1.279 . S
C2080 C2079 1.358 . S
C2080 H2083 0.930 . S
C2081 C2078 1.348 . S
C2081 C2079 1.356 . S
H2082 C2076 0.930 . S
H2083 C2080 0.930 . S
O2084 Li2024 1.956 . S
O2084 Li2025 1.970 . S
O2084 Li2026 1.961 . S
O2084 C2028 1.325 . S
O2085 Li2024 1.970 . S
O2085 Li2025 1.956 . S
O2085 Li2027 1.961 . S
O2085 C2034 1.325 . S
O2086 Li2024 1.961 . S
O2086 Li2026 1.956 . S
O2086 Li2027 1.970 . S
O2086 C2056 1.325 . S
O2087 Li2025 1.961 . S
O2087 Li2026 1.970 . S
O2087 Li2027 1.956 . S
O2087 C2062 1.325 . S
H2088 C2030 0.929 . S
H2089 C2031 0.930 . S
H2090 C2032 0.930 . S
H2091 C2033 0.930 . S
H2092 C2035 0.930 . S
H2093 C2037 0.929 . S
H2094 C2038 0.930 . S
H2095 C2039 0.930 . S
H2096 C2042 0.930 . S
H2097 C2045 0.929 . S
H2098 C2050 0.929 . S
H2099 C2051 0.930 . S
H2100 C2058 0.929 . S
H2101 C2059 0.930 . S
H2102 C2060 0.930 . S
H2103 C2061 0.930 . S
H2104 C2063 0.929 . S
H2105 C2064 0.930 . S
H2106 C2065 0.930 . S
H2107 C2066 0.930 . S
H2108 C2070 0.929 . S
H2109 C2072 0.930 . S
H2110 C2078 0.929 . S
H2111 C2079 0.930 . S
Li2112 N2129 1.990 . S
Li2112 O2172 1.956 . S
Li2112 O2173 1.970 . S
Li2112 O2174 1.961 . S
Li2113 N2137 1.990 . S
Li2113 O2172 1.970 . S
Li2113 O2173 1.956 . S
Li2113 O2175 1.961 . S
Li2114 N2159 1.990 . S
Li2114 O2172 1.961 . S
Li2114 O2174 1.956 . S
Li2114 O2175 1.970 . S
Li2115 N2165 1.990 . S
Li2115 O2173 1.961 . S
Li2115 O2174 1.970 . S
Li2115 O2175 1.956 . S
C2116 C2118 1.348 . S
C2116 C2119 1.356 . S
C2116 O2172 1.325 . S
N2117 C2120 1.314 . S
N2117 C2121 1.279 . S
C2118 C2116 1.348 . S
C2118 C2120 1.353 . S
C2118 H2176 0.929 . S
C2119 C2116 1.356 . S
C2119 C2121 1.358 . S
C2119 H2177 0.930 . S
C2120 N2117 1.314 . S
C2120 C2118 1.353 . S
C2120 H2178 0.930 . S
C2121 N2117 1.279 . S
C2121 C2119 1.358 . S
C2121 H2179 0.930 . S
C2122 C2125 1.348 . S
C2122 C2126 1.356 . S
C2122 O2173 1.325 . S
C2123 N2124 1.279 . S
C2123 C2126 1.358 . S
C2123 H2180 0.930 . S
N2124 C2123 1.279 . S
N2124 C2127 1.314 . S
C2125 C2122 1.348 . S
C2125 C2127 1.353 . S
C2125 H2181 0.929 . S
C2126 C2122 1.356 . S
C2126 C2123 1.358 . S
C2126 H2182 0.930 . S
C2127 N2124 1.314 . S
C2127 C2125 1.353 . S
C2127 H2183 0.930 . S
C2128 N2129 1.314 . S
C2128 C2133 1.353 . S
C2128 H2134 0.930 . S
N2129 Li2112 1.990 . S
N2129 C2128 1.314 . S
N2129 C2131 1.279 . S
C2130 C2131 1.358 . S
C2130 C2132 1.356 . S
C2130 H2184 0.930 . S
C2131 N2129 1.279 . S
C2131 C2130 1.358 . S
C2131 H2135 0.930 . S
C2132 C2130 1.356 . S
C2132 C2133 1.348 . S
C2133 C2128 1.353 . S
C2133 C2132 1.348 . S
C2133 H2185 0.929 . S
H2134 C2128 0.930 . S
H2135 C2131 0.930 . S
C2136 N2137 1.314 . S
C2136 C2138 1.353 . S
C2136 H2142 0.930 . S
N2137 Li2113 1.990 . S
N2137 C2136 1.314 . S
N2137 C2140 1.279 . S
C2138 C2136 1.353 . S
C2138 C2141 1.348 . S
C2138 H2186 0.929 . S
C2139 C2140 1.358 . S
C2139 C2141 1.356 . S
C2139 H2187 0.930 1_545 S
C2140 N2137 1.279 . S
C2140 C2139 1.358 . S
C2140 H2143 0.930 . S
C2141 C2138 1.348 . S
C2141 C2139 1.356 . S
H2142 C2136 0.930 . S
H2143 C2140 0.930 . S
C2144 C2146 1.348 . S
C2144 C2147 1.356 . S
C2144 O2174 1.325 . S
N2145 C2148 1.314 . S
N2145 C2149 1.279 . S
C2146 C2144 1.348 . S
C2146 C2148 1.353 . S
C2146 H2188 0.929 . S
C2147 C2144 1.356 . S
C2147 C2149 1.358 . S
C2147 H2189 0.930 . S
C2148 N2145 1.314 . S
C2148 C2146 1.353 . S
C2148 H2190 0.930 . S
C2149 N2145 1.279 . S
C2149 C2147 1.358 . S
C2149 H2191 0.930 . S
C2150 C2151 1.348 . S
C2150 C2152 1.356 . S
C2150 O2175 1.325 . S
C2151 C2150 1.348 . S
C2151 C2153 1.353 . S
C2151 H2192 0.929 . S
C2152 C2150 1.356 . S
C2152 C2154 1.358 . S
C2152 H2193 0.930 . S
C2153 C2151 1.353 . S
C2153 N2155 1.314 . S
C2153 H2194 0.930 . S
C2154 C2152 1.358 . S
C2154 N2155 1.279 . S
C2154 H2195 0.930 . S
N2155 C2153 1.314 . S
N2155 C2154 1.279 . S
C2156 C2158 1.353 . S
C2156 N2159 1.314 . S
C2156 H2162 0.930 . S
C2157 N2159 1.279 . S
C2157 C2160 1.358 . S
C2157 H2163 0.930 . S
C2158 C2156 1.353 . S
C2158 C2161 1.348 . S
C2158 H2196 0.929 . S
N2159 Li2114 1.990 . S
N2159 C2156 1.314 . S
N2159 C2157 1.279 . S
C2160 C2157 1.358 . S
C2160 C2161 1.356 . S
C2160 H2197 0.930 . S
C2161 C2158 1.348 . S
C2161 C2160 1.356 . S
H2162 C2156 0.930 . S
H2163 C2157 0.930 . S
C2164 N2165 1.314 . S
C2164 C2166 1.353 . S
C2164 H2170 0.930 . S
N2165 Li2115 1.990 . S
N2165 C2164 1.314 . S
N2165 C2168 1.279 . S
C2166 C2164 1.353 . S
C2166 C2169 1.348 . S
C2166 H2198 0.929 . S
C2167 C2168 1.358 . S
C2167 C2169 1.356 . S
C2167 H2199 0.930 . S
C2168 N2165 1.279 . S
C2168 C2167 1.358 . S
C2168 H2171 0.930 . S
C2169 C2166 1.348 . S
C2169 C2167 1.356 . S
H2170 C2164 0.930 . S
H2171 C2168 0.930 . S
O2172 Li2112 1.956 . S
O2172 Li2113 1.970 . S
O2172 Li2114 1.961 . S
O2172 C2116 1.325 . S
O2173 Li2112 1.970 . S
O2173 Li2113 1.956 . S
O2173 Li2115 1.961 . S
O2173 C2122 1.325 . S
O2174 Li2112 1.961 . S
O2174 Li2114 1.956 . S
O2174 Li2115 1.970 . S
O2174 C2144 1.325 . S
O2175 Li2113 1.961 . S
O2175 Li2114 1.970 . S
O2175 Li2115 1.956 . S
O2175 C2150 1.325 . S
H2176 C2118 0.929 . S
H2177 C2119 0.930 . S
H2178 C2120 0.930 . S
H2179 C2121 0.930 . S
H2180 C2123 0.930 . S
H2181 C2125 0.929 . S
H2182 C2126 0.930 . S
H2183 C2127 0.930 . S
H2184 C2130 0.930 . S
H2185 C2133 0.929 . S
H2186 C2138 0.929 . S
H2187 C2139 0.930 1_565 S
H2188 C2146 0.929 . S
H2189 C2147 0.930 . S
H2190 C2148 0.930 . S
H2191 C2149 0.930 . S
H2192 C2151 0.929 . S
H2193 C2152 0.930 . S
H2194 C2153 0.930 . S
H2195 C2154 0.930 . S
H2196 C2158 0.929 . S
H2197 C2160 0.930 . S
H2198 C2166 0.929 . S
H2199 C2167 0.930 . S
Li2200 N2217 1.990 . S
Li2200 O2260 1.956 . S
Li2200 O2261 1.970 . S
Li2200 O2262 1.961 . S
Li2201 N2225 1.990 . S
Li2201 O2260 1.970 . S
Li2201 O2261 1.956 . S
Li2201 O2263 1.961 . S
Li2202 N2247 1.990 . S
Li2202 O2260 1.961 . S
Li2202 O2262 1.956 . S
Li2202 O2263 1.970 . S
Li2203 N2253 1.990 . S
Li2203 O2261 1.961 . S
Li2203 O2262 1.970 . S
Li2203 O2263 1.956 . S
C2204 C2206 1.348 . S
C2204 C2207 1.356 . S
C2204 O2260 1.325 . S
N2205 C2208 1.314 . S
N2205 C2209 1.279 . S
C2206 C2204 1.348 . S
C2206 C2208 1.353 . S
C2206 H2264 0.929 . S
C2207 C2204 1.356 . S
C2207 C2209 1.358 . S
C2207 H2265 0.930 . S
C2208 N2205 1.314 . S
C2208 C2206 1.353 . S
C2208 H2266 0.930 . S
C2209 N2205 1.279 . S
C2209 C2207 1.358 . S
C2209 H2267 0.930 . S
C2210 C2213 1.348 . S
C2210 C2214 1.356 . S
C2210 O2261 1.325 . S
C2211 N2212 1.279 . S
C2211 C2214 1.358 . S
C2211 H2268 0.930 . S
N2212 C2211 1.279 . S
N2212 C2215 1.314 . S
C2213 C2210 1.348 . S
C2213 C2215 1.353 . S
C2213 H2269 0.929 . S
C2214 C2210 1.356 . S
C2214 C2211 1.358 . S
C2214 H2270 0.930 . S
C2215 N2212 1.314 . S
C2215 C2213 1.353 . S
C2215 H2271 0.930 . S
C2216 N2217 1.314 . S
C2216 C2221 1.353 . S
C2216 H2222 0.930 . S
N2217 Li2200 1.990 . S
N2217 C2216 1.314 . S
N2217 C2219 1.279 . S
C2218 C2219 1.358 . S
C2218 C2220 1.356 . S
C2218 H2272 0.930 . S
C2219 N2217 1.279 . S
C2219 C2218 1.358 . S
C2219 H2223 0.930 . S
C2220 C2218 1.356 . S
C2220 C2221 1.348 . S
C2221 C2216 1.353 . S
C2221 C2220 1.348 . S
C2221 H2273 0.929 . S
H2222 C2216 0.930 . S
H2223 C2219 0.930 . S
C2224 N2225 1.314 . S
C2224 C2226 1.353 . S
C2224 H2230 0.930 . S
N2225 Li2201 1.990 . S
N2225 C2224 1.314 . S
N2225 C2228 1.279 . S
C2226 C2224 1.353 . S
C2226 C2229 1.348 . S
C2226 H2274 0.929 . S
C2227 C2228 1.358 . S
C2227 C2229 1.356 . S
C2227 H2275 0.930 . S
C2228 N2225 1.279 . S
C2228 C2227 1.358 . S
C2228 H2231 0.930 . S
C2229 C2226 1.348 . S
C2229 C2227 1.356 . S
H2230 C2224 0.930 . S
H2231 C2228 0.930 . S
C2232 C2234 1.348 . S
C2232 C2235 1.356 . S
C2232 O2262 1.325 . S
N2233 C2236 1.314 . S
N2233 C2237 1.279 . S
C2234 C2232 1.348 . S
C2234 C2236 1.353 . S
C2234 H2276 0.929 . S
C2235 C2232 1.356 . S
C2235 C2237 1.358 . S
C2235 H2277 0.930 . S
C2236 N2233 1.314 . S
C2236 C2234 1.353 . S
C2236 H2278 0.930 . S
C2237 N2233 1.279 . S
C2237 C2235 1.358 . S
C2237 H2279 0.930 . S
C2238 C2239 1.348 . S
C2238 C2240 1.356 . S
C2238 O2263 1.325 . S
C2239 C2238 1.348 . S
C2239 C2241 1.353 . S
C2239 H2280 0.929 . S
C2240 C2238 1.356 . S
C2240 C2242 1.358 . S
C2240 H2281 0.930 . S
C2241 C2239 1.353 . S
C2241 N2243 1.314 . S
C2241 H2282 0.930 . S
C2242 C2240 1.358 . S
C2242 N2243 1.279 . S
C2242 H2283 0.930 . S
N2243 C2241 1.314 . S
N2243 C2242 1.279 . S
C2244 C2246 1.353 . S
C2244 N2247 1.314 . S
C2244 H2250 0.930 . S
C2245 N2247 1.279 . S
C2245 C2248 1.358 . S
C2245 H2251 0.930 . S
C2246 C2244 1.353 . S
C2246 C2249 1.348 . S
C2246 H2284 0.929 . S
N2247 Li2202 1.990 . S
N2247 C2244 1.314 . S
N2247 C2245 1.279 . S
C2248 C2245 1.358 . S
C2248 C2249 1.356 . S
C2248 H2285 0.930 . S
C2249 C2246 1.348 . S
C2249 C2248 1.356 . S
H2250 C2244 0.930 . S
H2251 C2245 0.930 . S
C2252 N2253 1.314 . S
C2252 C2254 1.353 . S
C2252 H2258 0.930 . S
N2253 Li2203 1.990 . S
N2253 C2252 1.314 . S
N2253 C2256 1.279 . S
C2254 C2252 1.353 . S
C2254 C2257 1.348 . S
C2254 H2286 0.929 . S
C2255 C2256 1.358 . S
C2255 C2257 1.356 . S
C2255 H2287 0.930 . S
C2256 N2253 1.279 . S
C2256 C2255 1.358 . S
C2256 H2259 0.930 . S
C2257 C2254 1.348 . S
C2257 C2255 1.356 . S
H2258 C2252 0.930 . S
H2259 C2256 0.930 . S
O2260 Li2200 1.956 . S
O2260 Li2201 1.970 . S
O2260 Li2202 1.961 . S
O2260 C2204 1.325 . S
O2261 Li2200 1.970 . S
O2261 Li2201 1.956 . S
O2261 Li2203 1.961 . S
O2261 C2210 1.325 . S
O2262 Li2200 1.961 . S
O2262 Li2202 1.956 . S
O2262 Li2203 1.970 . S
O2262 C2232 1.325 . S
O2263 Li2201 1.961 . S
O2263 Li2202 1.970 . S
O2263 Li2203 1.956 . S
O2263 C2238 1.325 . S
H2264 C2206 0.929 . S
H2265 C2207 0.930 . S
H2266 C2208 0.930 . S
H2267 C2209 0.930 . S
H2268 C2211 0.930 . S
H2269 C2213 0.929 . S
H2270 C2214 0.930 . S
H2271 C2215 0.930 . S
H2272 C2218 0.930 . S
H2273 C2221 0.929 . S
H2274 C2226 0.929 . S
H2275 C2227 0.930 . S
H2276 C2234 0.929 . S
H2277 C2235 0.930 . S
H2278 C2236 0.930 . S
H2279 C2237 0.930 . S
H2280 C2239 0.929 . S
H2281 C2240 0.930 . S
H2282 C2241 0.930 . S
H2283 C2242 0.930 . S
H2284 C2246 0.929 . S
H2285 C2248 0.930 . S
H2286 C2254 0.929 . S
H2287 C2255 0.930 . S
Li2288 N2305 1.990 . S
Li2288 O2348 1.956 . S
Li2288 O2349 1.970 . S
Li2288 O2350 1.961 . S
Li2289 N2313 1.990 . S
Li2289 O2348 1.970 . S
Li2289 O2349 1.956 . S
Li2289 O2351 1.961 . S
Li2290 N2335 1.990 . S
Li2290 O2348 1.961 . S
Li2290 O2350 1.956 . S
Li2290 O2351 1.970 . S
Li2291 N2341 1.990 . S
Li2291 O2349 1.961 . S
Li2291 O2350 1.970 . S
Li2291 O2351 1.956 . S
C2292 C2294 1.348 . S
C2292 C2295 1.356 . S
C2292 O2348 1.325 . S
N2293 C2296 1.314 . S
N2293 C2297 1.279 . S
C2294 C2292 1.348 . S
C2294 C2296 1.353 . S
C2294 H2352 0.929 . S
C2295 C2292 1.356 . S
C2295 C2297 1.358 . S
C2295 H2353 0.930 . S
C2296 N2293 1.314 . S
C2296 C2294 1.353 . S
C2296 H2354 0.930 . S
C2297 N2293 1.279 . S
C2297 C2295 1.358 . S
C2297 H2355 0.930 . S
C2298 C2301 1.348 . S
C2298 C2302 1.356 . S
C2298 O2349 1.325 1_554 S
C2299 N2300 1.279 . S
C2299 C2302 1.358 . S
C2299 H2356 0.930 . S
N2300 C2299 1.279 . S
N2300 C2303 1.314 . S
C2301 C2298 1.348 . S
C2301 C2303 1.353 . S
C2301 H2357 0.929 . S
C2302 C2298 1.356 . S
C2302 C2299 1.358 . S
C2302 H2358 0.930 . S
C2303 N2300 1.314 . S
C2303 C2301 1.353 . S
C2303 H2359 0.930 . S
C2304 N2305 1.314 . S
C2304 C2309 1.353 . S
C2304 H2310 0.930 . S
N2305 Li2288 1.990 . S
N2305 C2304 1.314 . S
N2305 C2307 1.279 . S
C2306 C2307 1.358 . S
C2306 C2308 1.356 . S
C2306 H2360 0.930 1_565 S
C2307 N2305 1.279 . S
C2307 C2306 1.358 . S
C2307 H2311 0.930 . S
C2308 C2306 1.356 . S
C2308 C2309 1.348 . S
C2309 C2304 1.353 . S
C2309 C2308 1.348 . S
C2309 H2361 0.929 1_455 S
H2310 C2304 0.930 . S
H2311 C2307 0.930 . S
C2312 N2313 1.314 . S
C2312 C2314 1.353 . S
C2312 H2318 0.930 . S
N2313 Li2289 1.990 . S
N2313 C2312 1.314 . S
N2313 C2316 1.279 1_556 S
C2314 C2312 1.353 . S
C2314 C2317 1.348 1_556 S
C2314 H2362 0.929 . S
C2315 C2316 1.358 . S
C2315 C2317 1.356 . S
C2315 H2363 0.930 . S
C2316 N2313 1.279 1_554 S
C2316 C2315 1.358 . S
C2316 H2319 0.930 . S
C2317 C2314 1.348 1_554 S
C2317 C2315 1.356 . S
H2318 C2312 0.930 . S
H2319 C2316 0.930 . S
C2320 C2322 1.348 . S
C2320 C2323 1.356 . S
C2320 O2350 1.325 . S
N2321 C2324 1.314 . S
N2321 C2325 1.279 . S
C2322 C2320 1.348 . S
C2322 C2324 1.353 1_455 S
C2322 H2364 0.929 . S
C2323 C2320 1.356 . S
C2323 C2325 1.358 1_455 S
C2323 H2365 0.930 . S
C2324 N2321 1.314 . S
C2324 C2322 1.353 1_655 S
C2324 H2366 0.930 . S
C2325 N2321 1.279 . S
C2325 C2323 1.358 1_655 S
C2325 H2367 0.930 . S
C2326 C2327 1.348 . S
C2326 C2328 1.356 . S
C2326 O2351 1.325 . S
C2327 C2326 1.348 . S
C2327 C2329 1.353 . S
C2327 H2368 0.929 . S
C2328 C2326 1.356 . S
C2328 C2330 1.358 . S
C2328 H2369 0.930 . S
C2329 C2327 1.353 . S
C2329 N2331 1.314 . S
C2329 H2370 0.930 . S
C2330 C2328 1.358 . S
C2330 N2331 1.279 . S
C2330 H2371 0.930 . S
N2331 C2329 1.314 . S
N2331 C2330 1.279 . S
C2332 C2334 1.353 . S
C2332 N2335 1.314 . S
C2332 H2338 0.930 . S
C2333 N2335 1.279 . S
C2333 C2336 1.358 . S
C2333 H2339 0.930 . S
C2334 C2332 1.353 . S
C2334 C2337 1.348 . S
C2334 H2372 0.929 . S
N2335 Li2290 1.990 . S
N2335 C2332 1.314 . S
N2335 C2333 1.279 . S
C2336 C2333 1.358 . S
C2336 C2337 1.356 . S
C2336 H2373 0.930 . S
C2337 C2334 1.348 . S
C2337 C2336 1.356 . S
H2338 C2332 0.930 . S
H2339 C2333 0.930 . S
C2340 N2341 1.314 . S
C2340 C2342 1.353 . S
C2340 H2346 0.930 . S
N2341 Li2291 1.990 . S
N2341 C2340 1.314 . S
N2341 C2344 1.279 . S
C2342 C2340 1.353 . S
C2342 C2345 1.348 . S
C2342 H2374 0.926 1_455 S
C2343 C2344 1.358 . S
C2343 C2345 1.356 . S
C2343 H2375 0.930 . S
C2344 N2341 1.279 . S
C2344 C2343 1.358 . S
C2344 H2347 0.930 . S
C2345 C2342 1.348 . S
C2345 C2343 1.356 . S
H2346 C2340 0.930 . S
H2347 C2344 0.930 . S
O2348 Li2288 1.956 . S
O2348 Li2289 1.970 . S
O2348 Li2290 1.961 . S
O2348 C2292 1.325 . S
O2349 Li2288 1.970 . S
O2349 Li2289 1.956 . S
O2349 Li2291 1.961 . S
O2349 C2298 1.325 1_556 S
O2350 Li2288 1.961 . S
O2350 Li2290 1.956 . S
O2350 Li2291 1.970 . S
O2350 C2320 1.325 . S
O2351 Li2289 1.961 . S
O2351 Li2290 1.970 . S
O2351 Li2291 1.956 . S
O2351 C2326 1.325 . S
H2352 C2294 0.929 . S
H2353 C2295 0.930 . S
H2354 C2296 0.930 . S
H2355 C2297 0.930 . S
H2356 C2299 0.930 . S
H2357 C2301 0.929 . S
H2358 C2302 0.930 . S
H2359 C2303 0.930 . S
H2360 C2306 0.930 1_545 S
H2361 C2309 0.929 1_655 S
H2362 C2314 0.929 . S
H2363 C2315 0.930 . S
H2364 C2322 0.929 . S
H2365 C2323 0.930 . S
H2366 C2324 0.930 . S
H2367 C2325 0.930 . S
H2368 C2327 0.929 . S
H2369 C2328 0.930 . S
H2370 C2329 0.930 . S
H2371 C2330 0.930 . S
H2372 C2334 0.929 . S
H2373 C2336 0.930 . S
H2374 C2342 0.926 1_655 S
H2375 C2343 0.930 . S
Li2376 N2393 1.990 . S
Li2376 O2436 1.956 . S
Li2376 O2437 1.970 . S
Li2376 O2438 1.961 . S
Li2377 N2401 1.990 . S
Li2377 O2436 1.970 . S
Li2377 O2437 1.956 . S
Li2377 O2439 1.961 . S
Li2378 N2423 1.990 . S
Li2378 O2436 1.961 . S
Li2378 O2438 1.956 . S
Li2378 O2439 1.970 . S
Li2379 N2429 1.990 . S
Li2379 O2437 1.961 . S
Li2379 O2438 1.970 . S
Li2379 O2439 1.956 . S
C2380 C2382 1.348 . S
C2380 C2383 1.356 . S
C2380 O2436 1.325 . S
N2381 C2384 1.314 . S
N2381 C2385 1.279 . S
C2382 C2380 1.348 . S
C2382 C2384 1.353 . S
C2382 H2440 0.929 . S
C2383 C2380 1.356 . S
C2383 C2385 1.358 . S
C2383 H2441 0.930 . S
C2384 N2381 1.314 . S
C2384 C2382 1.353 . S
C2384 H2442 0.930 . S
C2385 N2381 1.279 . S
C2385 C2383 1.358 . S
C2385 H2443 0.930 . S
C2386 C2389 1.348 . S
C2386 C2390 1.356 . S
C2386 O2437 1.325 . S
C2387 N2388 1.279 . S
C2387 C2390 1.358 . S
C2387 H2444 0.930 . S
N2388 C2387 1.279 . S
N2388 C2391 1.314 . S
C2389 C2386 1.348 . S
C2389 C2391 1.353 . S
C2389 H2445 0.929 . S
C2390 C2386 1.356 . S
C2390 C2387 1.358 . S
C2390 H2446 0.930 . S
C2391 N2388 1.314 . S
C2391 C2389 1.353 . S
C2391 H2447 0.930 . S
C2392 N2393 1.314 . S
C2392 C2397 1.353 . S
C2392 H2398 0.930 . S
N2393 Li2376 1.990 . S
N2393 C2392 1.314 . S
N2393 C2395 1.279 . S
C2394 C2395 1.358 . S
C2394 C2396 1.356 . S
C2394 H2448 0.930 . S
C2395 N2393 1.279 . S
C2395 C2394 1.358 . S
C2395 H2399 0.930 . S
C2396 C2394 1.356 . S
C2396 C2397 1.348 . S
C2397 C2392 1.353 . S
C2397 C2396 1.348 . S
C2397 H2449 0.929 . S
H2398 C2392 0.930 . S
H2399 C2395 0.930 . S
C2400 N2401 1.314 . S
C2400 C2402 1.353 . S
C2400 H2406 0.930 . S
N2401 Li2377 1.990 . S
N2401 C2400 1.314 . S
N2401 C2404 1.279 . S
C2402 C2400 1.353 . S
C2402 C2405 1.348 . S
C2402 H2450 0.929 . S
C2403 C2404 1.358 . S
C2403 C2405 1.356 . S
C2403 H2451 0.930 . S
C2404 N2401 1.279 . S
C2404 C2403 1.358 . S
C2404 H2407 0.930 . S
C2405 C2402 1.348 . S
C2405 C2403 1.356 . S
H2406 C2400 0.930 . S
H2407 C2404 0.930 . S
C2408 C2410 1.348 . S
C2408 C2411 1.356 . S
C2408 O2438 1.325 . S
N2409 C2412 1.314 . S
N2409 C2413 1.279 . S
C2410 C2408 1.348 . S
C2410 C2412 1.353 . S
C2410 H2452 0.929 . S
C2411 C2408 1.356 . S
C2411 C2413 1.358 . S
C2411 H2453 0.930 . S
C2412 N2409 1.314 . S
C2412 C2410 1.353 . S
C2412 H2454 0.930 . S
C2413 N2409 1.279 . S
C2413 C2411 1.358 . S
C2413 H2455 0.930 . S
C2414 C2415 1.348 . S
C2414 C2416 1.356 . S
C2414 O2439 1.325 . S
C2415 C2414 1.348 . S
C2415 C2417 1.353 . S
C2415 H2456 0.929 . S
C2416 C2414 1.356 . S
C2416 C2418 1.358 . S
C2416 H2457 0.930 . S
C2417 C2415 1.353 . S
C2417 N2419 1.314 . S
C2417 H2458 0.930 . S
C2418 C2416 1.358 . S
C2418 N2419 1.279 . S
C2418 H2459 0.930 . S
N2419 C2417 1.314 . S
N2419 C2418 1.279 . S
C2420 C2422 1.353 . S
C2420 N2423 1.314 . S
C2420 H2426 0.930 . S
C2421 N2423 1.279 . S
C2421 C2424 1.375 . S
C2421 H2427 0.930 . S
C2422 C2420 1.353 . S
C2422 C2425 1.369 . S
C2422 H2460 0.929 . S
N2423 Li2378 1.990 . S
N2423 C2420 1.314 . S
N2423 C2421 1.279 . S
C2424 C2421 1.375 . S
C2424 C2425 1.356 . S
C2424 H2461 0.912 1_655 S
C2425 C2422 1.369 . S
C2425 C2424 1.356 . S
H2426 C2420 0.930 . S
H2427 C2421 0.930 . S
C2428 N2429 1.314 . S
C2428 C2430 1.353 . S
C2428 H2434 0.930 . S
N2429 Li2379 1.990 . S
N2429 C2428 1.314 . S
N2429 C2432 1.279 . S
C2430 C2428 1.353 . S
C2430 C2433 1.348 . S
C2430 H2462 0.929 . S
C2431 C2432 1.358 . S
C2431 C2433 1.356 . S
C2431 H2463 0.930 . S
C2432 N2429 1.279 . S
C2432 C2431 1.358 . S
C2432 H2435 0.930 . S
C2433 C2430 1.348 . S
C2433 C2431 1.356 . S
H2434 C2428 0.930 . S
H2435 C2432 0.930 . S
O2436 Li2376 1.956 . S
O2436 Li2377 1.970 . S
O2436 Li2378 1.961 . S
O2436 C2380 1.325 . S
O2437 Li2376 1.970 . S
O2437 Li2377 1.956 . S
O2437 Li2379 1.961 . S
O2437 C2386 1.325 . S
O2438 Li2376 1.961 . S
O2438 Li2378 1.956 . S
O2438 Li2379 1.970 . S
O2438 C2408 1.325 . S
O2439 Li2377 1.961 . S
O2439 Li2378 1.970 . S
O2439 Li2379 1.956 . S
O2439 C2414 1.325 . S
H2440 C2382 0.929 . S
H2441 C2383 0.930 . S
H2442 C2384 0.930 . S
H2443 C2385 0.930 . S
H2444 C2387 0.930 . S
H2445 C2389 0.929 . S
H2446 C2390 0.930 . S
H2447 C2391 0.930 . S
H2448 C2394 0.930 . S
H2449 C2397 0.929 . S
H2450 C2402 0.929 . S
H2451 C2403 0.930 . S
H2452 C2410 0.929 . S
H2453 C2411 0.930 . S
H2454 C2412 0.930 . S
H2455 C2413 0.930 . S
H2456 C2415 0.929 . S
H2457 C2416 0.930 . S
H2458 C2417 0.930 . S
H2459 C2418 0.930 . S
H2460 C2422 0.929 . S
H2461 C2424 0.912 1_455 S
H2462 C2430 0.929 . S
H2463 C2431 0.930 . S
Li2464 N2481 1.990 . S
Li2464 O2524 1.956 . S
Li2464 O2525 1.970 . S
Li2464 O2526 1.961 . S
Li2465 N2489 1.990 . S
Li2465 O2524 1.970 . S
Li2465 O2525 1.956 . S
Li2465 O2527 1.961 . S
Li2466 N2511 1.990 . S
Li2466 O2524 1.961 . S
Li2466 O2526 1.956 . S
Li2466 O2527 1.970 . S
Li2467 N2517 1.990 . S
Li2467 O2525 1.961 . S
Li2467 O2526 1.970 . S
Li2467 O2527 1.956 . S
C2468 C2470 1.348 . S
C2468 C2471 1.356 . S
C2468 O2524 1.325 . S
N2469 C2472 1.314 . S
N2469 C2473 1.279 . S
C2470 C2468 1.348 . S
C2470 C2472 1.353 . S
C2470 H2528 0.929 . S
C2471 C2468 1.356 . S
C2471 C2473 1.358 . S
C2471 H2529 0.930 . S
C2472 N2469 1.314 . S
C2472 C2470 1.353 . S
C2472 H2530 0.930 . S
C2473 N2469 1.279 . S
C2473 C2471 1.358 . S
C2473 H2531 0.930 . S
C2474 C2477 1.348 . S
C2474 C2478 1.356 . S
C2474 O2525 1.325 . S
C2475 N2476 1.279 . S
C2475 C2478 1.358 . S
C2475 H2532 0.930 . S
N2476 C2475 1.279 . S
N2476 C2479 1.314 . S
C2477 C2474 1.348 . S
C2477 C2479 1.353 . S
C2477 H2533 0.929 . S
C2478 C2474 1.356 . S
C2478 C2475 1.358 . S
C2478 H2534 0.930 . S
C2479 N2476 1.314 . S
C2479 C2477 1.353 . S
C2479 H2535 0.930 . S
C2480 N2481 1.314 . S
C2480 C2485 1.353 . S
C2480 H2486 0.930 . S
N2481 Li2464 1.990 . S
N2481 C2480 1.314 . S
N2481 C2483 1.279 . S
C2482 C2483 1.358 . S
C2482 C2484 1.356 . S
C2482 H2536 0.930 . S
C2483 N2481 1.279 . S
C2483 C2482 1.358 . S
C2483 H2487 0.930 . S
C2484 C2482 1.356 . S
C2484 C2485 1.348 . S
C2485 C2480 1.353 . S
C2485 C2484 1.348 . S
C2485 H2537 0.929 . S
H2486 C2480 0.930 . S
H2487 C2483 0.930 . S
C2488 N2489 1.314 . S
C2488 C2490 1.353 . S
C2488 H2494 0.930 . S
N2489 Li2465 1.990 . S
N2489 C2488 1.314 . S
N2489 C2492 1.279 . S
C2490 C2488 1.353 . S
C2490 C2493 1.348 . S
C2490 H2538 0.948 . S
C2491 C2492 1.358 . S
C2491 C2493 1.356 . S
C2491 H2539 0.930 . S
C2492 N2489 1.279 . S
C2492 C2491 1.358 . S
C2492 H2495 0.930 . S
C2493 C2490 1.348 . S
C2493 C2491 1.356 . S
H2494 C2488 0.930 . S
H2495 C2492 0.930 . S
C2496 C2498 1.348 . S
C2496 C2499 1.356 . S
C2496 O2526 1.325 . S
N2497 C2500 1.314 . S
N2497 C2501 1.279 . S
C2498 C2496 1.348 . S
C2498 C2500 1.353 . S
C2498 H2540 0.929 . S
C2499 C2496 1.356 . S
C2499 C2501 1.358 . S
C2499 H2541 0.930 . S
C2500 N2497 1.314 . S
C2500 C2498 1.353 . S
C2500 H2542 0.930 . S
C2501 N2497 1.279 . S
C2501 C2499 1.358 . S
C2501 H2543 0.930 . S
C2502 C2503 1.348 . S
C2502 C2504 1.356 . S
C2502 O2527 1.325 1_556 S
C2503 C2502 1.348 . S
C2503 C2505 1.353 . S
C2503 H2544 0.929 . S
C2504 C2502 1.356 . S
C2504 C2506 1.358 . S
C2504 H2545 0.930 . S
C2505 C2503 1.353 . S
C2505 N2507 1.314 . S
C2505 H2546 0.930 . S
C2506 C2504 1.358 . S
C2506 N2507 1.279 . S
C2506 H2547 0.930 . S
N2507 C2505 1.314 . S
N2507 C2506 1.279 . S
C2508 C2510 1.353 . S
C2508 N2511 1.314 . S
C2508 H2514 0.930 . S
C2509 N2511 1.279 . S
C2509 C2512 1.358 . S
C2509 H2515 0.930 . S
C2510 C2508 1.353 . S
C2510 C2513 1.348 . S
C2510 H2548 0.929 . S
N2511 Li2466 1.990 . S
N2511 C2508 1.314 . S
N2511 C2509 1.279 . S
C2512 C2509 1.358 . S
C2512 C2513 1.356 . S
C2512 H2549 0.930 1_565 S
C2513 C2510 1.348 . S
C2513 C2512 1.356 . S
H2514 C2508 0.930 . S
H2515 C2509 0.930 . S
C2516 N2517 1.314 . S
C2516 C2518 1.353 . S
C2516 H2522 0.930 . S
N2517 Li2467 1.990 . S
N2517 C2516 1.314 . S
N2517 C2520 1.279 1_554 S
C2518 C2516 1.353 . S
C2518 C2521 1.348 1_554 S
C2518 H2550 0.929 . S
C2519 C2520 1.358 . S
C2519 C2521 1.356 . S
C2519 H2551 0.930 . S
C2520 N2517 1.279 1_556 S
C2520 C2519 1.358 . S
C2520 H2523 0.930 . S
C2521 C2518 1.348 1_556 S
C2521 C2519 1.356 . S
H2522 C2516 0.930 . S
H2523 C2520 0.930 . S
O2524 Li2464 1.956 . S
O2524 Li2465 1.970 . S
O2524 Li2466 1.961 . S
O2524 C2468 1.325 . S
O2525 Li2464 1.970 . S
O2525 Li2465 1.956 . S
O2525 Li2467 1.961 . S
O2525 C2474 1.325 . S
O2526 Li2464 1.961 . S
O2526 Li2466 1.956 . S
O2526 Li2467 1.970 . S
O2526 C2496 1.325 . S
O2527 Li2465 1.961 . S
O2527 Li2466 1.970 . S
O2527 Li2467 1.956 . S
O2527 C2502 1.325 1_554 S
H2528 C2470 0.929 . S
H2529 C2471 0.930 . S
H2530 C2472 0.930 . S
H2531 C2473 0.930 . S
H2532 C2475 0.930 . S
H2533 C2477 0.929 . S
H2534 C2478 0.930 . S
H2535 C2479 0.930 . S
H2536 C2482 0.930 . S
H2537 C2485 0.929 . S
H2538 C2490 0.948 . S
H2539 C2491 0.930 . S
H2540 C2498 0.929 . S
H2541 C2499 0.930 . S
H2542 C2500 0.930 . S
H2543 C2501 0.930 . S
H2544 C2503 0.929 . S
H2545 C2504 0.930 . S
H2546 C2505 0.930 . S
H2547 C2506 0.930 . S
H2548 C2510 0.929 . S
H2549 C2512 0.930 1_545 S
H2550 C2518 0.929 . S
H2551 C2519 0.930 . S
Li2552 N2569 1.990 . S
Li2552 O2612 1.956 . S
Li2552 O2613 1.970 . S
Li2552 O2614 1.961 . S
Li2553 N2577 1.990 . S
Li2553 O2612 1.970 . S
Li2553 O2613 1.956 . S
Li2553 O2615 1.961 . S
Li2554 N2599 1.990 . S
Li2554 O2612 1.961 . S
Li2554 O2614 1.956 . S
Li2554 O2615 1.970 . S
Li2555 N2605 1.990 . S
Li2555 O2613 1.961 . S
Li2555 O2614 1.970 . S
Li2555 O2615 1.956 . S
C2556 C2558 1.348 . S
C2556 C2559 1.356 . S
C2556 O2612 1.325 . S
N2557 C2560 1.314 . S
N2557 C2561 1.279 . S
C2558 C2556 1.348 . S
C2558 C2560 1.353 . S
C2558 H2616 0.929 . S
C2559 C2556 1.356 . S
C2559 C2561 1.358 . S
C2559 H2617 0.930 . S
C2560 N2557 1.314 . S
C2560 C2558 1.353 . S
C2560 H2618 0.930 . S
C2561 N2557 1.279 . S
C2561 C2559 1.358 . S
C2561 H2619 0.930 . S
C2562 C2565 1.348 . S
C2562 C2566 1.356 . S
C2562 O2613 1.325 . S
C2563 N2564 1.279 . S
C2563 C2566 1.358 . S
C2563 H2620 0.930 . S
N2564 C2563 1.279 . S
N2564 C2567 1.314 . S
C2565 C2562 1.348 . S
C2565 C2567 1.353 . S
C2565 H2621 0.929 . S
C2566 C2562 1.356 . S
C2566 C2563 1.358 . S
C2566 H2622 0.930 . S
C2567 N2564 1.314 . S
C2567 C2565 1.353 . S
C2567 H2623 0.930 . S
C2568 N2569 1.314 . S
C2568 C2573 1.353 . S
C2568 H2574 0.930 . S
N2569 Li2552 1.990 . S
N2569 C2568 1.314 . S
N2569 C2571 1.279 . S
C2570 C2571 1.375 . S
C2570 C2572 1.356 . S
C2570 H2624 0.912 1_655 S
C2571 N2569 1.279 . S
C2571 C2570 1.375 . S
C2571 H2575 0.930 . S
C2572 C2570 1.356 . S
C2572 C2573 1.369 . S
C2573 C2568 1.353 . S
C2573 C2572 1.369 . S
C2573 H2625 0.929 . S
H2574 C2568 0.930 . S
H2575 C2571 0.930 . S
C2576 N2577 1.314 . S
C2576 C2578 1.353 . S
C2576 H2582 0.930 . S
N2577 Li2553 1.990 . S
N2577 C2576 1.314 . S
N2577 C2580 1.279 . S
C2578 C2576 1.353 . S
C2578 C2581 1.348 . S
C2578 H2626 0.929 . S
C2579 C2580 1.358 . S
C2579 C2581 1.356 . S
C2579 H2627 0.930 . S
C2580 N2577 1.279 . S
C2580 C2579 1.358 . S
C2580 H2583 0.930 . S
C2581 C2578 1.348 . S
C2581 C2579 1.356 . S
H2582 C2576 0.930 . S
H2583 C2580 0.930 . S
C2584 C2586 1.348 . S
C2584 C2587 1.356 . S
C2584 O2614 1.325 . S
N2585 C2588 1.314 . S
N2585 C2589 1.279 . S
C2586 C2584 1.348 . S
C2586 C2588 1.353 . S
C2586 H2628 0.929 . S
C2587 C2584 1.356 . S
C2587 C2589 1.358 . S
C2587 H2629 0.930 . S
C2588 N2585 1.314 . S
C2588 C2586 1.353 . S
C2588 H2630 0.930 . S
C2589 N2585 1.279 . S
C2589 C2587 1.358 . S
C2589 H2631 0.930 . S
C2590 C2591 1.348 . S
C2590 C2592 1.356 . S
C2590 O2615 1.325 . S
C2591 C2590 1.348 . S
C2591 C2593 1.353 . S
C2591 H2632 0.929 . S
C2592 C2590 1.356 . S
C2592 C2594 1.358 . S
C2592 H2633 0.930 . S
C2593 C2591 1.353 . S
C2593 N2595 1.314 . S
C2593 H2634 0.930 . S
C2594 C2592 1.358 . S
C2594 N2595 1.279 . S
C2594 H2635 0.930 . S
N2595 C2593 1.314 . S
N2595 C2594 1.279 . S
C2596 C2598 1.353 . S
C2596 N2599 1.314 . S
C2596 H2602 0.930 . S
C2597 N2599 1.279 . S
C2597 C2600 1.358 . S
C2597 H2603 0.930 . S
C2598 C2596 1.353 . S
C2598 C2601 1.348 . S
C2598 H2636 0.929 . S
N2599 Li2554 1.990 . S
N2599 C2596 1.314 . S
N2599 C2597 1.279 . S
C2600 C2597 1.358 . S
C2600 C2601 1.356 . S
C2600 H2637 0.930 . S
C2601 C2598 1.348 . S
C2601 C2600 1.356 . S
H2602 C2596 0.930 . S
H2603 C2597 0.930 . S
C2604 N2605 1.314 . S
C2604 C2606 1.353 . S
C2604 H2610 0.930 . S
N2605 Li2555 1.990 . S
N2605 C2604 1.314 . S
N2605 C2608 1.279 . S
C2606 C2604 1.353 . S
C2606 C2609 1.348 . S
C2606 H2638 0.929 . S
C2607 C2608 1.358 . S
C2607 C2609 1.356 . S
C2607 H2639 0.930 . S
C2608 N2605 1.279 . S
C2608 C2607 1.358 . S
C2608 H2611 0.930 . S
C2609 C2606 1.348 . S
C2609 C2607 1.356 . S
H2610 C2604 0.930 . S
H2611 C2608 0.930 . S
O2612 Li2552 1.956 . S
O2612 Li2553 1.970 . S
O2612 Li2554 1.961 . S
O2612 C2556 1.325 . S
O2613 Li2552 1.970 . S
O2613 Li2553 1.956 . S
O2613 Li2555 1.961 . S
O2613 C2562 1.325 . S
O2614 Li2552 1.961 . S
O2614 Li2554 1.956 . S
O2614 Li2555 1.970 . S
O2614 C2584 1.325 . S
O2615 Li2553 1.961 . S
O2615 Li2554 1.970 . S
O2615 Li2555 1.956 . S
O2615 C2590 1.325 . S
H2616 C2558 0.929 . S
H2617 C2559 0.930 . S
H2618 C2560 0.930 . S
H2619 C2561 0.930 . S
H2620 C2563 0.930 . S
H2621 C2565 0.929 . S
H2622 C2566 0.930 . S
H2623 C2567 0.930 . S
H2624 C2570 0.912 1_455 S
H2625 C2573 0.929 . S
H2626 C2578 0.929 . S
H2627 C2579 0.930 . S
H2628 C2586 0.929 . S
H2629 C2587 0.930 . S
H2630 C2588 0.930 . S
H2631 C2589 0.930 . S
H2632 C2591 0.929 . S
H2633 C2592 0.930 . S
H2634 C2593 0.930 . S
H2635 C2594 0.930 . S
H2636 C2598 0.929 . S
H2637 C2600 0.930 . S
H2638 C2606 0.929 . S
H2639 C2607 0.930 . S
Li2640 N2657 1.990 . S
Li2640 O2700 1.956 . S
Li2640 O2701 1.970 . S
Li2640 O2702 1.961 . S
Li2641 N2665 1.990 . S
Li2641 O2700 1.970 . S
Li2641 O2701 1.956 . S
Li2641 O2703 1.961 . S
Li2642 N2687 1.990 . S
Li2642 O2700 1.961 . S
Li2642 O2702 1.956 . S
Li2642 O2703 1.970 . S
Li2643 N2693 1.990 . S
Li2643 O2701 1.961 . S
Li2643 O2702 1.970 . S
Li2643 O2703 1.956 . S
C2644 C2646 1.348 . S
C2644 C2647 1.356 . S
C2644 O2700 1.325 . S
N2645 C2648 1.314 . S
N2645 C2649 1.279 . S
C2646 C2644 1.348 . S
C2646 C2648 1.353 . S
C2646 H2704 0.929 . S
C2647 C2644 1.356 . S
C2647 C2649 1.358 . S
C2647 H2705 0.930 . S
C2648 N2645 1.314 . S
C2648 C2646 1.353 . S
C2648 H2706 0.930 . S
C2649 N2645 1.279 . S
C2649 C2647 1.358 . S
C2649 H2707 0.930 . S
C2650 C2653 1.348 . S
C2650 C2654 1.356 . S
C2650 O2701 1.325 . S
C2651 N2652 1.279 . S
C2651 C2654 1.358 1_655 S
C2651 H2708 0.930 . S
N2652 C2651 1.279 . S
N2652 C2655 1.314 . S
C2653 C2650 1.348 . S
C2653 C2655 1.353 1_455 S
C2653 H2709 0.929 . S
C2654 C2650 1.356 . S
C2654 C2651 1.358 1_455 S
C2654 H2710 0.930 . S
C2655 N2652 1.314 . S
C2655 C2653 1.353 1_655 S
C2655 H2711 0.930 . S
C2656 N2657 1.314 . S
C2656 C2661 1.353 . S
C2656 H2662 0.930 . S
N2657 Li2640 1.990 . S
N2657 C2656 1.314 . S
N2657 C2659 1.279 . S
C2658 C2659 1.358 . S
C2658 C2660 1.356 . S
C2658 H2712 0.930 . S
C2659 N2657 1.279 . S
C2659 C2658 1.358 . S
C2659 H2663 0.930 . S
C2660 C2658 1.356 . S
C2660 C2661 1.348 . S
C2661 C2656 1.353 . S
C2661 C2660 1.348 . S
C2661 H2713 0.907 1_455 S
H2662 C2656 0.930 . S
H2663 C2659 0.930 . S
C2664 N2665 1.314 . S
C2664 C2666 1.353 . S
C2664 H2670 0.930 . S
N2665 Li2641 1.990 . S
N2665 C2664 1.314 . S
N2665 C2668 1.279 . S
C2666 C2664 1.353 . S
C2666 C2669 1.348 . S
C2666 H2714 0.929 . S
C2667 C2668 1.358 . S
C2667 C2669 1.356 . S
C2667 H2715 0.930 . S
C2668 N2665 1.279 . S
C2668 C2667 1.358 . S
C2668 H2671 0.930 . S
C2669 C2666 1.348 . S
C2669 C2667 1.356 . S
H2670 C2664 0.930 . S
H2671 C2668 0.930 . S
C2672 C2674 1.348 . S
C2672 C2675 1.356 . S
C2672 O2702 1.325 . S
N2673 C2676 1.314 . S
N2673 C2677 1.279 . S
C2674 C2672 1.348 . S
C2674 C2676 1.353 . S
C2674 H2716 0.929 . S
C2675 C2672 1.356 . S
C2675 C2677 1.358 . S
C2675 H2717 0.930 . S
C2676 N2673 1.314 . S
C2676 C2674 1.353 . S
C2676 H2718 0.930 . S
C2677 N2673 1.279 . S
C2677 C2675 1.358 . S
C2677 H2719 0.930 . S
C2678 C2679 1.348 . S
C2678 C2680 1.356 . S
C2678 O2703 1.325 . S
C2679 C2678 1.348 . S
C2679 C2681 1.353 . S
C2679 H2720 0.929 . S
C2680 C2678 1.356 . S
C2680 C2682 1.358 . S
C2680 H2721 0.930 . S
C2681 C2679 1.353 . S
C2681 N2683 1.314 . S
C2681 H2722 0.930 . S
C2682 C2680 1.358 . S
C2682 N2683 1.279 . S
C2682 H2723 0.930 . S
N2683 C2681 1.314 . S
N2683 C2682 1.279 . S
C2684 C2686 1.353 . S
C2684 N2687 1.314 . S
C2684 H2690 0.930 . S
C2685 N2687 1.279 . S
C2685 C2688 1.358 . S
C2685 H2691 0.930 . S
C2686 C2684 1.353 . S
C2686 C2689 1.348 . S
C2686 H2724 0.929 . S
N2687 Li2642 1.990 . S
N2687 C2684 1.314 . S
N2687 C2685 1.279 . S
C2688 C2685 1.358 . S
C2688 C2689 1.356 . S
C2688 H2725 0.930 . S
C2689 C2686 1.348 . S
C2689 C2688 1.356 . S
H2690 C2684 0.930 . S
H2691 C2685 0.930 . S
C2692 N2693 1.314 . S
C2692 C2694 1.353 . S
C2692 H2698 0.930 . S
N2693 Li2643 1.990 . S
N2693 C2692 1.314 . S
N2693 C2696 1.279 . S
C2694 C2692 1.353 . S
C2694 C2697 1.348 . S
C2694 H2726 0.929 1_455 S
C2695 C2696 1.358 . S
C2695 C2697 1.356 . S
C2695 H2727 0.930 1_545 S
C2696 N2693 1.279 . S
C2696 C2695 1.358 . S
C2696 H2699 0.930 . S
C2697 C2694 1.348 . S
C2697 C2695 1.356 . S
H2698 C2692 0.930 . S
H2699 C2696 0.930 . S
O2700 Li2640 1.956 . S
O2700 Li2641 1.970 . S
O2700 Li2642 1.961 . S
O2700 C2644 1.325 . S
O2701 Li2640 1.970 . S
O2701 Li2641 1.956 . S
O2701 Li2643 1.961 . S
O2701 C2650 1.325 . S
O2702 Li2640 1.961 . S
O2702 Li2642 1.956 . S
O2702 Li2643 1.970 . S
O2702 C2672 1.325 . S
O2703 Li2641 1.961 . S
O2703 Li2642 1.970 . S
O2703 Li2643 1.956 . S
O2703 C2678 1.325 . S
H2704 C2646 0.929 . S
H2705 C2647 0.930 . S
H2706 C2648 0.930 . S
H2707 C2649 0.930 . S
H2708 C2651 0.930 . S
H2709 C2653 0.929 . S
H2710 C2654 0.930 . S
H2711 C2655 0.930 . S
H2712 C2658 0.930 . S
H2713 C2661 0.907 1_655 S
H2714 C2666 0.929 . S
H2715 C2667 0.930 . S
H2716 C2674 0.929 . S
H2717 C2675 0.930 . S
H2718 C2676 0.930 . S
H2719 C2677 0.930 . S
H2720 C2679 0.929 . S
H2721 C2680 0.930 . S
H2722 C2681 0.930 . S
H2723 C2682 0.930 . S
H2724 C2686 0.929 . S
H2725 C2688 0.930 . S
H2726 C2694 0.929 1_655 S
H2727 C2695 0.930 1_565 S
Li2728 N2745 1.990 . S
Li2728 O2788 1.956 . S
Li2728 O2789 1.970 . S
Li2728 O2790 1.961 . S
Li2729 N2753 1.990 . S
Li2729 O2788 1.970 . S
Li2729 O2789 1.956 . S
Li2729 O2791 1.961 . S
Li2730 N2775 1.990 . S
Li2730 O2788 1.961 . S
Li2730 O2790 1.956 . S
Li2730 O2791 1.970 . S
Li2731 N2781 1.990 . S
Li2731 O2789 1.961 . S
Li2731 O2790 1.970 . S
Li2731 O2791 1.956 . S
C2732 C2734 1.348 . S
C2732 C2735 1.356 . S
C2732 O2788 1.325 . S
N2733 C2736 1.314 . S
N2733 C2737 1.279 . S
C2734 C2732 1.348 . S
C2734 C2736 1.353 . S
C2734 H2792 0.929 . S
C2735 C2732 1.356 . S
C2735 C2737 1.358 . S
C2735 H2793 0.930 . S
C2736 N2733 1.314 . S
C2736 C2734 1.353 . S
C2736 H2794 0.930 . S
C2737 N2733 1.279 . S
C2737 C2735 1.358 . S
C2737 H2795 0.930 . S
C2738 C2741 1.348 . S
C2738 C2742 1.356 . S
C2738 O2789 1.325 . S
C2739 N2740 1.279 . S
C2739 C2742 1.358 . S
C2739 H2796 0.930 . S
N2740 C2739 1.279 . S
N2740 C2743 1.314 . S
C2741 C2738 1.348 . S
C2741 C2743 1.353 . S
C2741 H2797 0.929 . S
C2742 C2738 1.356 . S
C2742 C2739 1.358 . S
C2742 H2798 0.930 . S
C2743 N2740 1.314 . S
C2743 C2741 1.353 . S
C2743 H2799 0.930 . S
C2744 N2745 1.314 . S
C2744 C2749 1.353 . S
C2744 H2750 0.930 . S
N2745 Li2728 1.990 . S
N2745 C2744 1.314 . S
N2745 C2747 1.279 . S
C2746 C2747 1.358 . S
C2746 C2748 1.356 . S
C2746 H2800 0.930 . S
C2747 N2745 1.279 . S
C2747 C2746 1.358 . S
C2747 H2751 0.930 . S
C2748 C2746 1.356 . S
C2748 C2749 1.348 . S
C2749 C2744 1.353 . S
C2749 C2748 1.348 . S
C2749 H2801 0.929 . S
H2750 C2744 0.930 . S
H2751 C2747 0.930 . S
C2752 N2753 1.314 . S
C2752 C2754 1.353 . S
C2752 H2758 0.930 . S
N2753 Li2729 1.990 . S
N2753 C2752 1.314 . S
N2753 C2756 1.279 . S
C2754 C2752 1.353 . S
C2754 C2757 1.348 . S
C2754 H2802 0.929 . S
C2755 C2756 1.358 . S
C2755 C2757 1.356 . S
C2755 H2803 0.930 . S
C2756 N2753 1.279 . S
C2756 C2755 1.358 . S
C2756 H2759 0.930 . S
C2757 C2754 1.348 . S
C2757 C2755 1.356 . S
H2758 C2752 0.930 . S
H2759 C2756 0.930 . S
C2760 C2762 1.348 . S
C2760 C2763 1.356 . S
C2760 O2790 1.325 . S
N2761 C2764 1.314 . S
N2761 C2765 1.279 . S
C2762 C2760 1.348 . S
C2762 C2764 1.353 . S
C2762 H2804 0.929 . S
C2763 C2760 1.356 . S
C2763 C2765 1.358 . S
C2763 H2805 0.930 . S
C2764 N2761 1.314 . S
C2764 C2762 1.353 . S
C2764 H2806 0.930 . S
C2765 N2761 1.279 . S
C2765 C2763 1.358 . S
C2765 H2807 0.930 . S
C2766 C2767 1.348 . S
C2766 C2768 1.356 . S
C2766 O2791 1.325 . S
C2767 C2766 1.348 . S
C2767 C2769 1.353 . S
C2767 H2808 0.929 . S
C2768 C2766 1.356 . S
C2768 C2770 1.358 . S
C2768 H2809 0.930 . S
C2769 C2767 1.353 . S
C2769 N2771 1.314 . S
C2769 H2810 0.930 . S
C2770 C2768 1.358 . S
C2770 N2771 1.279 . S
C2770 H2811 0.930 . S
N2771 C2769 1.314 . S
N2771 C2770 1.279 . S
C2772 C2774 1.353 . S
C2772 N2775 1.314 . S
C2772 H2778 0.930 . S
C2773 N2775 1.279 . S
C2773 C2776 1.358 . S
C2773 H2779 0.930 . S
C2774 C2772 1.353 . S
C2774 C2777 1.348 . S
C2774 H2812 0.929 . S
N2775 Li2730 1.990 . S
N2775 C2772 1.314 . S
N2775 C2773 1.279 . S
C2776 C2773 1.358 . S
C2776 C2777 1.356 . S
C2776 H2813 0.930 . S
C2777 C2774 1.348 . S
C2777 C2776 1.356 . S
H2778 C2772 0.930 . S
H2779 C2773 0.930 . S
C2780 N2781 1.314 . S
C2780 C2782 1.353 . S
C2780 H2786 0.930 . S
N2781 Li2731 1.990 . S
N2781 C2780 1.314 . S
N2781 C2784 1.279 . S
C2782 C2780 1.353 . S
C2782 C2785 1.348 . S
C2782 H2814 0.929 . S
C2783 C2784 1.358 . S
C2783 C2785 1.356 . S
C2783 H2815 0.930 . S
C2784 N2781 1.279 . S
C2784 C2783 1.358 . S
C2784 H2787 0.930 . S
C2785 C2782 1.348 . S
C2785 C2783 1.356 . S
H2786 C2780 0.930 . S
H2787 C2784 0.930 . S
O2788 Li2728 1.956 . S
O2788 Li2729 1.970 . S
O2788 Li2730 1.961 . S
O2788 C2732 1.325 . S
O2789 Li2728 1.970 . S
O2789 Li2729 1.956 . S
O2789 Li2731 1.961 . S
O2789 C2738 1.325 . S
O2790 Li2728 1.961 . S
O2790 Li2730 1.956 . S
O2790 Li2731 1.970 . S
O2790 C2760 1.325 . S
O2791 Li2729 1.961 . S
O2791 Li2730 1.970 . S
O2791 Li2731 1.956 . S
O2791 C2766 1.325 . S
H2792 C2734 0.929 . S
H2793 C2735 0.930 . S
H2794 C2736 0.930 . S
H2795 C2737 0.930 . S
H2796 C2739 0.930 . S
H2797 C2741 0.929 . S
H2798 C2742 0.930 . S
H2799 C2743 0.930 . S
H2800 C2746 0.930 . S
H2801 C2749 0.929 . S
H2802 C2754 0.929 . S
H2803 C2755 0.930 . S
H2804 C2762 0.929 . S
H2805 C2763 0.930 . S
H2806 C2764 0.930 . S
H2807 C2765 0.930 . S
H2808 C2767 0.929 . S
H2809 C2768 0.930 . S
H2810 C2769 0.930 . S
H2811 C2770 0.930 . S
H2812 C2774 0.929 . S
H2813 C2776 0.930 . S
H2814 C2782 0.929 . S
H2815 C2783 0.930 . S
C733 C57 1.964 1_656 S
C2220 C145 1.964 . S
C900 C233 1.964 . S
C2405 C284 1.964 . S
C1105 C372 1.964 1_655 S
C489 C2609 1.964 . S
C557 C1289 1.964 1_556 S
C636 C2777 1.964 . S
C1553 C812 1.964 . S
C1701 C988 1.964 . S
C1201 C1897 1.964 . S
C1369 C2044 1.964 . S
C1465 C2141 1.964 1_565 S
C2308 C1641 1.964 1_466 S
C1789 C2513 1.964 1_546 S
C2697 C1956 1.964 1_445 S
C1633 C49 1.618 1_655 S
C1692 C137 1.616 1_455 S
C225 C1457 1.618 . S
C293 C1545 1.618 . S
C1965 C381 1.618 1_655 S
C497 C2053 1.618 . S
C1780 C548 1.618 . S
C1905 C645 1.616 1_455 S
C753 C2345 1.620 1_655 S
C2425 C849 1.619 1_655 S
C937 C2161 1.620 . S
C1025 C2257 1.620 . S
C1085 C2660 1.620 1_655 S
C1164 C2757 1.620 . S
C2493 C1252 1.620 . S
C2572 C1349 1.619 1_655 S
C577 C20 1.733 1_554 S
C673 C108 1.733 1_545 S
C409 C196 1.733 . S
C321 C469 1.733 1_545 S
C1281 C724 1.745 1_556 S
C1377 C821 1.745 1_565 S
C1113 C909 1.745 . S
C1193 C997 1.745 1_545 S
C1993 C1428 1.733 . S
C2081 C1516 1.733 . S
C1604 C1809 1.733 1_556 S
C1721 C1877 1.733 . S
C2689 C2132 1.745 . S
C2785 C2229 1.745 . S
C2317 C2521 1.745 1_554 S
C2396 C2601 1.745 . S
C29 C1868 1.968 . S
C1985 C117 1.968 . S
C2073 C205 1.968 . S
C313 C1817 1.968 . S
C1729 C401 1.968 . S
C460 C1437 1.968 . S
C1525 C585 1.968 . S
C665 C1613 1.968 . S
C2581 C761 1.976 . S
C2669 C841 1.976 . S
C929 C2748 1.976 . S
C2484 C1017 1.976 . S
C2433 C1076 1.976 . S
C1173 C2169 1.976 . S
C2249 C1261 1.976 . S
C1340 C2337 1.976 . S
