# Generated by pormake.
# Topology wkj, (6)-cn, num edge types: 1
# Building blocks:
#     Node 0, Type 0, BuildingBlock: CUWYAW_clean_sbu_0, # of connection points: 6
#     Node 1, Type 0, BuildingBlock: CUWYAW_clean_sbu_0, # of connection points: 6
#     Node 2, Type 0, BuildingBlock: CUWYAW_clean_sbu_0, # of connection points: 6
#     Node 3, Type 0, BuildingBlock: CUWYAW_clean_sbu_0, # of connection points: 6
#     Node 4, Type 0, BuildingBlock: CUWYAW_clean_sbu_0, # of connection points: 6
#     Node 5, Type 0, BuildingBlock: CUWYAW_clean_sbu_0, # of connection points: 6
#     Node 6, Type 0, BuildingBlock: CUWYAW_clean_sbu_0, # of connection points: 6
#     Node 7, Type 0, BuildingBlock: CUWYAW_clean_sbu_0, # of connection points: 6
#     Node 8, Type 0, BuildingBlock: CUWYAW_clean_sbu_0, # of connection points: 6
#     Node 9, Type 0, BuildingBlock: CUWYAW_clean_sbu_0, # of connection points: 6
#     Node 10, Type 0, BuildingBlock: CUWYAW_clean_sbu_0, # of connection points: 6
#     Node 11, Type 0, BuildingBlock: CUWYAW_clean_sbu_0, # of connection points: 6
#     Edge 12, Type (0, 0), BuildingBlock: XUDNAN_clean_linker_2, # of connection points: 2
#     Edge 13, Type (0, 0), BuildingBlock: XUDNAN_clean_linker_2, # of connection points: 2
#     Edge 14, Type (0, 0), BuildingBlock: XUDNAN_clean_linker_2, # of connection points: 2
#     Edge 15, Type (0, 0), BuildingBlock: XUDNAN_clean_linker_2, # of connection points: 2
#     Edge 16, Type (0, 0), BuildingBlock: XUDNAN_clean_linker_2, # of connection points: 2
#     Edge 17, Type (0, 0), BuildingBlock: XUDNAN_clean_linker_2, # of connection points: 2
#     Edge 18, Type (0, 0), BuildingBlock: XUDNAN_clean_linker_2, # of connection points: 2
#     Edge 19, Type (0, 0), BuildingBlock: XUDNAN_clean_linker_2, # of connection points: 2
#     Edge 20, Type (0, 0), BuildingBlock: XUDNAN_clean_linker_2, # of connection points: 2
#     Edge 21, Type (0, 0), BuildingBlock: XUDNAN_clean_linker_2, # of connection points: 2
#     Edge 22, Type (0, 0), BuildingBlock: XUDNAN_clean_linker_2, # of connection points: 2
#     Edge 23, Type (0, 0), BuildingBlock: XUDNAN_clean_linker_2, # of connection points: 2
#     Edge 24, Type (0, 0), BuildingBlock: XUDNAN_clean_linker_2, # of connection points: 2
#     Edge 25, Type (0, 0), BuildingBlock: XUDNAN_clean_linker_2, # of connection points: 2
#     Edge 26, Type (0, 0), BuildingBlock: XUDNAN_clean_linker_2, # of connection points: 2
#     Edge 27, Type (0, 0), BuildingBlock: XUDNAN_clean_linker_2, # of connection points: 2
#     Edge 28, Type (0, 0), BuildingBlock: XUDNAN_clean_linker_2, # of connection points: 2
#     Edge 29, Type (0, 0), BuildingBlock: XUDNAN_clean_linker_2, # of connection points: 2
#     Edge 30, Type (0, 0), BuildingBlock: XUDNAN_clean_linker_2, # of connection points: 2
#     Edge 31, Type (0, 0), BuildingBlock: XUDNAN_clean_linker_2, # of connection points: 2
#     Edge 32, Type (0, 0), BuildingBlock: XUDNAN_clean_linker_2, # of connection points: 2
#     Edge 33, Type (0, 0), BuildingBlock: XUDNAN_clean_linker_2, # of connection points: 2
#     Edge 34, Type (0, 0), BuildingBlock: XUDNAN_clean_linker_2, # of connection points: 2
#     Edge 35, Type (0, 0), BuildingBlock: XUDNAN_clean_linker_2, # of connection points: 2
#     Edge 36, Type (0, 0), BuildingBlock: XUDNAN_clean_linker_2, # of connection points: 2
#     Edge 37, Type (0, 0), BuildingBlock: XUDNAN_clean_linker_2, # of connection points: 2
#     Edge 38, Type (0, 0), BuildingBlock: XUDNAN_clean_linker_2, # of connection points: 2
#     Edge 39, Type (0, 0), BuildingBlock: XUDNAN_clean_linker_2, # of connection points: 2
#     Edge 40, Type (0, 0), BuildingBlock: XUDNAN_clean_linker_2, # of connection points: 2
#     Edge 41, Type (0, 0), BuildingBlock: XUDNAN_clean_linker_2, # of connection points: 2
#     Edge 42, Type (0, 0), BuildingBlock: XUDNAN_clean_linker_2, # of connection points: 2
#     Edge 43, Type (0, 0), BuildingBlock: XUDNAN_clean_linker_2, # of connection points: 2
#     Edge 44, Type (0, 0), BuildingBlock: XUDNAN_clean_linker_2, # of connection points: 2
#     Edge 45, Type (0, 0), BuildingBlock: XUDNAN_clean_linker_2, # of connection points: 2
#     Edge 46, Type (0, 0), BuildingBlock: XUDNAN_clean_linker_2, # of connection points: 2
#     Edge 47, Type (0, 0), BuildingBlock: XUDNAN_clean_linker_2, # of connection points: 2
# Relax obj value: 0.798
# Max RMSD: 0.182
# Mean RMSD: 0.182
data_MOF--net-wkj--node1-CUWYAW_clean_sbu_0--edge1-XUDNAN_clean_linker_2
_symmetry_space_group_name_H-M    P1
_symmetry_Int_Tables_number       1
_symmetry_cell_setting            triclinic
loop_
_symmetry_equiv_pos_as_xyz
'x, y, z'
_cell_length_a     49.75912
_cell_length_b     49.860776
_cell_length_c     27.979627
_cell_angle_alpha  89.88713
_cell_angle_beta   90.450496
_cell_angle_gamma 120.29307
loop_
_atom_site_label
_atom_site_type_symbol
_atom_site_fract_x
_atom_site_fract_y
_atom_site_fract_z
_atom_type_partial_charge
C0 C 0.55657 0.15532 0.31997 0.0
Eu1 Eu 0.51257 0.11378 0.37309 0.0
C2 C 0.57525 0.18972 0.31708 0.0
C3 C 0.60555 0.20639 0.33638 0.0
C4 C 0.62423 0.23841 0.32822 0.0
C5 C 0.61296 0.25434 0.30061 0.0
C6 C 0.58195 0.23785 0.2841 0.0
C7 C 0.56353 0.20603 0.29179 0.0
C8 C 0.50239 0.06286 0.41734 0.0
C9 C 0.45203 0.05565 0.31163 0.0
C10 C 0.39927 0.05789 0.46871 0.0
Eu11 Eu 0.4498 0.0824 0.4177 0.0
C12 C 0.38647 0.06891 0.50639 0.0
C13 C 0.3633 0.07637 0.49598 0.0
C14 C 0.35015 0.08503 0.53265 0.0
C15 C 0.35992 0.08629 0.58033 0.0
C16 C 0.38361 0.07947 0.5902 0.0
C17 C 0.39668 0.07095 0.55386 0.0
C18 C 0.47018 0.14131 0.38261 0.0
C19 C 0.51018 0.11682 0.49073 0.0
O20 O 0.56204 0.14158 0.3556 0.0
O21 O 0.52684 0.14264 0.30985 0.0
O22 O 0.53024 0.08493 0.40612 0.0
O23 O 0.48151 0.06579 0.39541 0.0
O24 O 0.48113 0.08017 0.31017 0.0
O25 O 0.43629 0.04984 0.35226 0.0
O26 O 0.42418 0.05692 0.48025 0.0
O27 O 0.40059 0.06823 0.42533 0.0
O28 O 0.44224 0.11823 0.37697 0.0
O29 O 0.48551 0.13221 0.40629 0.0
O30 O 0.48023 0.09581 0.48587 0.0
O31 O 0.52693 0.13113 0.45187 0.0
H32 H 0.61529 0.1945 0.35601 0.0
H33 H 0.64802 0.25036 0.34133 0.0
H34 H 0.57246 0.24892 0.26183 0.0
H35 H 0.54037 0.19406 0.27621 0.0
H36 H 0.3549 0.07489 0.4597 0.0
H37 H 0.33184 0.08997 0.5239 0.0
H38 H 0.3911 0.07906 0.62651 0.0
H39 H 0.41425 0.0651 0.56342 0.0
C40 C 0.46094 0.5908 0.74379 0.0
Eu41 Eu 0.42181 0.53106 0.74673 0.0
C42 C 0.45721 0.61808 0.74885 0.0
C43 C 0.47497 0.64392 0.71993 0.0
C44 C 0.46547 0.66552 0.71166 0.0
C45 C 0.43789 0.66158 0.7322 0.0
C46 C 0.42278 0.63804 0.76661 0.0
C47 C 0.4321 0.61616 0.77434 0.0
C48 C 0.42892 0.48443 0.78138 0.0
C49 C 0.41252 0.4842 0.66008 0.0
C50 C 0.32086 0.4129 0.7524 0.0
Eu51 Eu 0.3644 0.47128 0.75336 0.0
C52 C 0.31579 0.38509 0.77791 0.0
C53 C 0.30304 0.35657 0.75361 0.0
C54 C 0.30067 0.33051 0.77653 0.0
C55 C 0.31067 0.33283 0.82404 0.0
C56 C 0.32323 0.36131 0.8483 0.0
C57 C 0.32598 0.38732 0.82533 0.0
C58 C 0.35252 0.51676 0.72622 0.0
C59 C 0.38736 0.51291 0.85128 0.0
O60 O 0.4567 0.57397 0.78183 0.0
O61 O 0.44719 0.57384 0.70612 0.0
O62 O 0.45071 0.50711 0.75702 0.0
O63 O 0.40776 0.48963 0.79008 0.0
O64 O 0.42892 0.51336 0.67501 0.0
O65 O 0.38788 0.46401 0.68541 0.0
O66 O 0.34449 0.42473 0.7235 0.0
O67 O 0.31928 0.43411 0.77754 0.0
O68 O 0.33689 0.49523 0.75684 0.0
O69 O 0.3748 0.51368 0.71081 0.0
O70 O 0.37275 0.48384 0.83429 0.0
O71 O 0.40383 0.53596 0.82091 0.0
H72 H 0.49444 0.6458 0.7 0.0
H73 H 0.47789 0.68311 0.68487 0.0
H74 H 0.40196 0.6347 0.78404 0.0
H75 H 0.4181 0.59641 0.79709 0.0
H76 H 0.29555 0.35468 0.71669 0.0
H77 H 0.29125 0.30873 0.75729 0.0
H78 H 0.33161 0.36358 0.88479 0.0
H79 H 0.33661 0.40928 0.84433 0.0
C80 C 0.86786 0.43312 1.04367 0.0
Eu81 Eu 0.88853 0.395 1.05626 0.0
C82 C 0.83707 0.42929 1.05309 0.0
C83 C 0.81074 0.39943 1.05292 0.0
C84 C 0.78101 0.39559 1.05069 0.0
C85 C 0.77692 0.4216 1.0492 0.0
C86 C 0.80336 0.45127 1.05665 0.0
C87 C 0.83327 0.45512 1.05764 0.0
C88 C 0.94416 0.40477 1.08839 0.0
C89 C 0.92574 0.38042 0.97728 0.0
C90 C 0.90398 0.29584 1.08819 0.0
Eu91 Eu 0.89043 0.33993 1.07844 0.0
C92 C 0.92588 0.29087 1.11657 0.0
C93 C 0.92407 0.26189 1.11629 0.0
C94 C 0.94468 0.25707 1.14427 0.0
C95 C 0.96751 0.28134 1.17236 0.0
C96 C 0.96948 0.31051 1.17166 0.0
C97 C 0.94873 0.31513 1.14416 0.0
C98 C 0.83174 0.32519 1.05253 0.0
C99 C 0.8756 0.37149 1.16859 0.0
O100 O 0.88442 0.43442 1.08097 0.0
O101 O 0.86808 0.41504 1.01005 0.0
O102 O 0.94184 0.42134 1.05448 0.0
O103 O 0.91822 0.38637 1.10467 0.0
O104 O 0.91519 0.39933 0.98763 0.0
O105 O 0.91861 0.35645 1.00647 0.0
O106 O 0.91657 0.31788 1.05647 0.0
O107 O 0.88196 0.29672 1.11182 0.0
O108 O 0.83927 0.31359 1.0877 0.0
O109 O 0.85631 0.34544 1.03159 0.0
O110 O 0.88849 0.35462 1.15655 0.0
O111 O 0.86951 0.38604 1.13402 0.0
H112 H 0.81319 0.37907 1.05063 0.0
H113 H 0.76174 0.37223 1.04535 0.0
H114 H 0.80126 0.47183 1.05791 0.0
H115 H 0.85338 0.47833 1.05917 0.0
H116 H 0.90649 0.24294 1.09498 0.0
H117 H 0.94258 0.23436 1.14441 0.0
H118 H -0.01375 0.32947 0.19386 0.0
H119 H 0.95007 0.33744 1.14506 0.0
C120 C 0.37763 0.83439 0.32821 0.0
Eu121 Eu 0.42796 0.86672 0.37866 0.0
C122 C 0.35196 0.80219 0.33014 0.0
C123 C 0.32989 0.79095 0.29333 0.0
C124 C 0.31036 0.75907 0.28728 0.0
C125 C 0.31289 0.73776 0.31767 0.0
C126 C 0.33266 0.74941 0.3579 0.0
C127 C 0.35207 0.78148 0.36411 0.0
C128 C 0.44859 0.91826 0.43059 0.0
C129 C 0.48928 0.91955 0.31639 0.0
C130 C 0.54101 0.90805 0.46861 0.0
Eu131 Eu 0.48916 0.88766 0.4206 0.0
C132 C 0.57026 0.93623 0.48169 0.0
C133 C 0.5909 0.95673 0.44718 0.0
C134 C 0.61995 0.98159 0.46114 0.0
C135 C 0.62874 0.98585 0.50955 0.0
C136 C 0.60754 0.96589 0.54386 0.0
C137 C 0.57867 0.94133 0.53004 0.0
C138 C 0.4646 0.83021 0.37823 0.0
C139 C 0.42821 0.85821 0.49392 0.0
O140 O 0.37955 0.8526 0.36321 0.0
O141 O 0.40462 0.83757 0.31707 0.0
O142 O 0.41919 0.89883 0.42321 0.0
O143 O 0.46499 0.9125 0.40304 0.0
O144 O 0.45867 0.89934 0.31642 0.0
O145 O 0.50591 0.92107 0.35508 0.0
O146 O 0.53735 0.89889 0.42422 0.0
O147 O 0.5154 0.90413 0.48764 0.0
O148 O 0.49284 0.85266 0.37443 0.0
O149 O 0.44975 0.83922 0.40385 0.0
O150 O 0.45911 0.8747 0.49006 0.0
O151 O 0.41101 0.84778 0.45425 0.0
H152 H 0.32942 0.80668 0.26696 0.0
H153 H 0.29575 0.75138 0.25563 0.0
H154 H 0.33501 0.73378 0.38225 0.0
H155 H 0.36884 0.78998 0.39324 0.0
H156 H 0.58482 0.95333 0.40955 0.0
H157 H 0.63575 -0.00303 0.43421 0.0
H158 H 0.61336 0.96923 0.58161 0.0
H159 H 0.5631 0.92588 0.55717 0.0
C160 C 0.59322 0.40225 0.69005 0.0
Eu161 Eu 0.58731 0.44977 0.71289 0.0
C162 C 0.61042 0.39271 0.65796 0.0
C163 C 0.63818 0.39424 0.67353 0.0
C164 C 0.65412 0.38457 0.64366 0.0
C165 C 0.64247 0.37284 0.59785 0.0
C166 C 0.61442 0.37086 0.58277 0.0
C167 C 0.59854 0.3805 0.61253 0.0
C168 C 0.53671 0.44616 0.74788 0.0
C169 C 0.57061 0.49498 0.65307 0.0
C170 C 0.6287 0.56609 0.76953 0.0
Eu171 Eu 0.60914 0.50763 0.75272 0.0
C172 C 0.61759 0.58796 0.77699 0.0
C173 C 0.6347 0.61799 0.75803 0.0
C174 C 0.62781 0.64088 0.77106 0.0
C175 C 0.60385 0.63407 0.80363 0.0
C176 C 0.58515 0.60317 0.81936 0.0
C177 C 0.59191 0.5803 0.80601 0.0
C178 C 0.65512 0.49799 0.71723 0.0
C179 C 0.59227 0.45753 0.83537 0.0
O180 O 0.60955 0.42231 0.72349 0.0
O181 O 0.57182 0.4072 0.67152 0.0
O182 O 0.53701 0.43265 0.70838 0.0
O183 O 0.56371 0.46352 0.76556 0.0
O184 O 0.57824 0.47313 0.64655 0.0
O185 O 0.57528 0.50742 0.69625 0.0
O186 O 0.62536 0.5546 0.72665 0.0
O187 O 0.62302 0.54564 0.80307 0.0
O188 O 0.65554 0.50807 0.75979 0.0
O189 O 0.6303 0.49238 0.69679 0.0
O190 O 0.60028 0.48682 0.82808 0.0
O191 O 0.58747 0.43978 0.79644 0.0
H192 H 0.64772 0.40308 0.70874 0.0
H193 H 0.67563 0.38646 0.65623 0.0
H194 H 0.60514 0.36278 0.54719 0.0
H195 H 0.57707 0.37864 0.59965 0.0
H196 H 0.65441 0.62416 0.73506 0.0
H197 H 0.64237 0.66429 0.75785 0.0
H198 H 0.56677 0.59699 0.84502 0.0
H199 H 0.57817 0.55712 0.82058 0.0
C200 C 0.15421 0.60896 1.00732 0.0
Eu201 Eu 0.10429 0.58433 1.0594 0.0
C202 C 0.18719 0.63373 1.00989 0.0
C203 C 0.19677 0.6611 0.98411 0.0
C204 C 0.22826 0.68191 0.97669 0.0
C205 C 0.25105 0.67548 0.99426 0.0
C206 C 0.24142 0.64981 1.02497 0.0
C207 C 0.20978 0.629 1.03242 0.0
C208 C 0.0799 0.52792 1.09207 0.0
C209 C 0.03716 0.55288 0.99535 0.0
C210 C 0.01281 0.5834 1.14041 0.0
Eu211 Eu 0.05626 0.57852 1.09713 0.0
C212 C 0.01182 0.60955 1.163 0.0
C213 C -0.01107 0.61662 1.14916 0.0
C214 C -0.01315 0.64043 1.17207 0.0
C215 C 0.0074 0.6573 0.20975 0.0
C216 C 0.03143 0.65122 0.2214 0.0
C217 C 0.03371 0.62779 0.19813 0.0
C218 C 0.10306 0.63948 1.07618 0.0
C219 C 0.10159 0.57797 0.17513 0.0
O220 O 0.14537 0.5842 1.03334 0.0
O221 O 0.13347 0.61766 1.00541 0.0
O222 O 0.10937 0.54725 1.08976 0.0
O223 O 0.06266 0.53791 1.07404 0.0
O224 O 0.06826 0.57003 0.99296 0.0
O225 O 0.0258 0.54769 1.03832 0.0
O226 O 0.02989 0.57371 1.16149 0.0
O227 O 0.016 0.58492 1.09413 0.0
O228 O 0.07758 0.62452 1.05156 0.0
O229 O 0.10369 0.6199 1.10253 0.0
O230 O 0.07181 0.56546 1.16545 0.0
O231 O 0.12124 0.59282 1.13946 0.0
H232 H 0.17975 0.66523 0.9666 0.0
H233 H 0.23415 0.70116 0.95281 0.0
H234 H 0.25814 0.64436 1.04028 0.0
H235 H 0.20311 0.60828 1.05326 0.0
H236 H 0.97219 0.60323 1.1214 0.0
H237 H 0.96835 0.6447 1.16164 0.0
H238 H 0.04743 0.66313 0.25065 0.0
H239 H 0.05205 0.62331 0.2089 0.0
C240 C 0.78182 0.39366 0.65333 0.0
Eu241 Eu 0.83781 0.4303 0.6203 0.0
C242 C 0.75987 0.39153 0.69052 0.0
C243 C 0.75089 0.36896 0.72635 0.0
C244 C 0.73085 0.36699 0.7626 0.0
C245 C 0.71916 0.38745 0.76368 0.0
C246 C 0.72672 0.40888 0.72624 0.0
C247 C 0.74687 0.4109 0.69 0.0
C248 C 0.87975 0.41419 0.60183 0.0
C249 C 0.89513 0.47406 0.70097 0.0
C250 C 0.93959 0.53447 0.55727 0.0
Eu251 Eu 0.89226 0.48452 0.59169 0.0
C252 C 0.94341 0.56227 0.53223 0.0
C253 C 0.95802 0.59128 0.55545 0.0
C254 C 0.96159 0.61773 0.53208 0.0
C255 C 0.9507 0.61562 0.48497 0.0
C256 C 0.93592 0.58643 0.46206 0.0
C257 C 0.93222 0.56011 0.48541 0.0
C258 C 0.84082 0.491 0.6074 0.0
C259 C 0.85706 0.43283 0.50712 0.0
O260 O 0.7882 0.41385 0.61919 0.0
O261 O 0.80626 0.39225 0.66709 0.0
O262 O 0.85032 0.39655 0.59286 0.0
O263 O 0.88616 0.43974 0.62188 0.0
O264 O 0.86418 0.45558 0.69338 0.0
O265 O 0.91299 0.48418 0.66324 0.0
O266 O 0.92528 0.50802 0.53421 0.0
O267 O 0.93105 0.53166 0.60179 0.0
O268 O 0.86769 0.50861 0.62667 0.0
O269 O 0.84241 0.47084 0.58341 0.0
O270 O 0.88266 0.45874 0.51978 0.0
O271 O 0.83459 0.41818 0.53932 0.0
H272 H 0.76006 0.35333 0.72704 0.0
H273 H 0.72597 0.35055 0.79126 0.0
H274 H 0.7178 0.42471 0.72583 0.0
H275 H 0.75268 0.42802 0.66223 0.0
H276 H 0.96685 0.59354 0.59163 0.0
H277 H 0.97321 0.63983 0.55062 0.0
H278 H 0.92816 0.58396 0.42523 0.0
H279 H 0.92092 0.53817 0.46637 0.0
C280 C 0.37445 0.8117 0.96183 0.0
Eu281 Eu 0.36354 0.85704 0.94724 0.0
C282 C 0.36476 0.78607 0.99568 0.0
C283 C 0.34751 0.7845 1.03584 0.0
C284 C 0.33481 0.75832 1.0649 0.0
C285 C 0.33944 0.73331 1.05463 0.0
C286 C 0.35786 0.73547 1.0154 0.0
C287 C 0.3702 0.76163 0.98575 0.0
C288 C 0.4007 0.9142 0.91165 0.0
C289 C 0.36695 0.90751 1.02376 0.0
C290 C 0.29904 0.91775 0.91096 0.0
Eu291 Eu 0.32755 0.88612 0.92106 0.0
C292 C 0.30255 0.94744 0.89579 0.0
C293 C 0.27881 0.95378 0.90622 0.0
C294 C 0.27951 0.98002 0.88715 0.0
C295 C 0.30404 0.0003 0.85743 0.0
C296 C 0.32871 -0.00533 0.8493 0.0
C297 C 0.32793 0.96837 0.86832 0.0
C298 C 0.29092 0.82595 0.95148 0.0
C299 C 0.35069 0.86058 0.82952 0.0
O300 O 0.35206 0.80951 0.93427 0.0
O301 O 0.39234 0.83987 0.97857 0.0
O302 O 0.40994 0.90133 0.94329 0.0
O303 O 0.37326 0.89565 0.89962 0.0
O304 O 0.36754 0.88116 1.01963 0.0
O305 O 0.35645 0.91653 0.98669 0.0
O306 O 0.31347 0.91775 0.95006 0.0
O307 O 0.30026 0.90012 0.87762 0.0
O308 O 0.28483 0.83806 0.9154 0.0
O309 O 0.3163 0.8462 0.97033 0.0
O310 O 0.33879 0.87829 0.84271 0.0
O311 O 0.36047 0.84882 0.86395 0.0
H312 H 0.3436 0.80343 1.04432 0.0
H313 H 0.32156 0.75778 1.09581 0.0
H314 H 0.36196 0.71664 1.007 0.0
H315 H 0.38332 0.76247 0.95451 0.0
H316 H 0.2591 0.93778 0.9276 0.0
H317 H 0.26029 0.98381 0.89412 0.0
H318 H 0.34769 0.00952 0.82583 0.0
H319 H 0.34636 0.96365 0.85998 0.0
C320 C 0.58989 0.43769 0.33071 0.0
Eu321 Eu 0.53583 0.41769 0.2902 0.0
C322 C 0.6156 0.43171 0.32394 0.0
C323 C 0.643 0.4488 0.35044 0.0
C324 C 0.66479 0.43907 0.35288 0.0
C325 C 0.65936 0.41181 0.32915 0.0
C326 C 0.63341 0.39678 0.2983 0.0
C327 C 0.6116 0.40662 0.29584 0.0
C328 C 0.51503 0.44558 0.2328 0.0
C329 C 0.48107 0.41622 0.36234 0.0
C330 C 0.41471 0.33728 0.23205 0.0
Eu331 Eu 0.4705 0.37585 0.26483 0.0
C332 C 0.40037 0.32278 0.18634 0.0
C333 C 0.37028 0.29684 0.18574 0.0
C334 C 0.35686 0.28159 1.14276 0.0
C335 C 0.37352 0.29199 1.09989 0.0
C336 C 0.40391 0.31778 1.10088 0.0
C337 C 0.41723 0.33307 1.14381 0.0
C338 C 0.49676 0.3483 0.31621 0.0
C339 C 0.52328 0.39638 0.17883 0.0
O340 O 0.5851 0.45276 0.29664 0.0
O341 O 0.56408 0.41408 0.34655 0.0
O342 O 0.54431 0.45432 0.23659 0.0
O343 O 0.49898 0.42677 0.2656 0.0
O344 O 0.51128 0.42626 0.35537 0.0
O345 O 0.46043 0.39786 0.32969 0.0
O346 O 0.42568 0.36713 0.23628 0.0
O347 O 0.43351 0.32876 0.2497 0.0
O348 O 0.47131 0.34773 0.32734 0.0
O349 O 0.50914 0.36635 0.28102 0.0
O350 O 0.49336 0.38388 0.19003 0.0
O351 O 0.54472 0.4072 0.21343 0.0
H352 H 0.64649 0.46832 0.37208 0.0
H353 H 0.68419 0.45118 0.37745 0.0
H354 H 0.62862 0.37591 0.2793 0.0
H355 H 0.59061 0.39337 0.27467 0.0
H356 H 0.35719 0.28838 0.21852 0.0
H357 H 0.33339 0.26183 1.14294 0.0
H358 H 0.41704 0.32677 1.06825 0.0
H359 H 0.44058 0.35294 1.14372 0.0
C360 C 0.17135 0.58426 0.65325 0.0
Eu361 Eu 0.12654 0.52779 0.63519 0.0
C362 C 0.20119 0.60152 0.67898 0.0
C363 C 0.20539 0.59277 0.72473 0.0
C364 C 0.23355 0.61066 0.7491 0.0
C365 C 0.25819 0.63742 0.72793 0.0
C366 C 0.25427 0.64524 0.68119 0.0
C367 C 0.226 0.62741 0.65696 0.0
C368 C 0.06596 0.5037 0.61599 0.0
C369 C 0.08233 0.46998 0.70603 0.0
C370 C 0.06788 0.40622 0.56643 0.0
Eu371 Eu 0.09767 0.46443 0.59173 0.0
C372 C 0.06839 0.38676 0.52753 0.0
C373 C 0.06663 0.35845 0.53839 0.0
C374 C 0.06528 0.33876 0.50179 0.0
C375 C 0.06548 0.34704 0.45367 0.0
C376 C 0.06829 0.37599 0.44312 0.0
C377 C 0.06991 0.39572 0.47965 0.0
C378 C 0.16042 0.49351 0.60498 0.0
C379 C 0.11903 0.51941 0.51426 0.0
O380 O 0.17122 0.56777 0.61706 0.0
O381 O 0.14565 0.5702 0.67812 0.0
O382 O 0.08032 0.52466 0.64899 0.0
O383 O 0.08539 0.50088 0.59161 0.0
O384 O 0.10532 0.4997 0.70539 0.0
O385 O 0.07477 0.45333 0.66607 0.0
O386 O 0.05853 0.42577 0.55559 0.0
O387 O 0.09186 0.4181 0.59543 0.0
O388 O 0.14592 0.47829 0.56678 0.0
O389 O 0.14121 0.49269 0.63523 0.0
O390 O 0.10306 0.48879 0.51996 0.0
O391 O 0.13038 0.53794 0.55269 0.0
H392 H 0.1867 0.57263 0.74214 0.0
H393 H 0.2354 0.60425 0.78546 0.0
H394 H 0.27272 0.66562 0.66391 0.0
H395 H 0.22326 0.63425 0.62128 0.0
H396 H 0.06569 0.3513 0.57523 0.0
H397 H 0.06337 0.31678 0.51114 0.0
H398 H 0.06779 0.38293 0.40658 0.0
H399 H 0.0715 0.41758 0.47035 0.0
C400 C 0.56522 0.15978 1.00189 0.0
Eu401 Eu 0.56785 0.11736 0.95152 0.0
C402 C 0.58204 0.19395 1.0056 0.0
C403 C 0.56775 0.20839 1.02837 0.0
C404 C 0.58527 0.23953 1.04219 0.0
C405 C 0.61758 0.25688 1.03374 0.0
C406 C 0.63123 0.24301 1.00702 0.0
C407 C 0.61356 0.21181 0.99304 0.0
C408 C 0.52715 0.06575 0.90768 0.0
C409 C 0.56614 0.06019 1.02081 0.0
C410 C 0.62601 0.05877 0.87148 0.0
Eu411 Eu 0.59791 0.08354 0.91583 0.0
C412 C 0.65147 0.07096 0.83661 0.0
C413 C 0.67554 0.06427 0.84131 0.0
C414 C 0.6981 0.07332 0.80573 0.0
C415 C 0.69656 0.08871 0.76438 0.0
C416 C 0.6737 0.09744 0.76198 0.0
C417 C 0.65159 0.08887 0.7978 0.0
C418 C 0.63754 0.14202 0.95048 0.0
C419 C 0.57629 0.11816 0.83571 0.0
O420 O 0.54761 0.1469 0.96413 0.0
O421 O 0.5813 0.14664 1.01441 0.0
O422 O 0.52252 0.08904 0.91327 0.0
O423 O 0.54934 0.06844 0.93378 0.0
O424 O 0.56099 0.08413 1.01732 0.0
O425 O 0.57827 0.05363 0.98351 0.0
O426 O 0.59991 0.05628 0.85673 0.0
O427 O 0.6335 0.07009 0.91461 0.0
O428 O 0.63875 0.11769 0.96231 0.0
O429 O 0.61489 0.13428 0.9228 0.0
O430 O 0.58351 0.09627 0.84401 0.0
O431 O 0.57393 0.13385 0.87255 0.0
H432 H 0.54349 0.19502 1.03847 0.0
H433 H 0.57388 0.24905 1.06327 0.0
H434 H 0.65594 0.25564 0.9996 0.0
H435 H 0.62494 0.20109 0.97514 0.0
H436 H 0.67627 0.0511 0.87165 0.0
H437 H 0.71572 0.06678 0.80943 0.0
H438 H 0.6712 0.1089 0.73081 0.0
H439 H 0.6337 0.09503 0.79382 0.0
C440 C 0.37602 0.55781 0.36421 0.0
Eu441 Eu 0.42434 0.56539 0.31723 0.0
C442 C 0.37393 0.57856 0.39931 0.0
C443 C 0.34547 0.57692 0.40858 0.0
C444 C 0.34445 0.59888 0.43862 0.0
C445 C 0.37201 0.62311 0.45889 0.0
C446 C 0.40042 0.6246 0.44915 0.0
C447 C 0.40133 0.60249 0.41992 0.0
C448 C 0.4376 0.52846 0.26748 0.0
C449 C 0.48266 0.56865 0.38449 0.0
C450 C 0.54281 0.63526 0.23957 0.0
Eu451 Eu 0.48952 0.6015 0.28191 0.0
C452 C 0.55197 0.64728 0.19085 0.0
C453 C 0.57393 0.67879 0.18431 0.0
C454 C 0.5811 0.69143 1.13841 0.0
C455 C 0.56665 0.67265 1.0981 0.0
C456 C 0.54471 0.64095 1.10501 0.0
C457 C 0.53715 0.62851 1.1509 0.0
C458 C 0.46763 0.63509 0.32897 0.0
C459 C 0.4326 0.57406 0.20066 0.0
O460 O 0.38281 0.56933 0.32119 0.0
O461 O 0.39229 0.54493 0.37708 0.0
O462 O 0.40917 0.52145 0.27678 0.0
O463 O 0.45706 0.55112 0.2932 0.0
O464 O 0.45422 0.5655 0.38303 0.0
O465 O 0.50095 0.58022 0.34665 0.0
O466 O 0.53021 0.60537 0.24603 0.0
O467 O 0.52838 0.64679 0.26275 0.0
O468 O 0.49417 0.63716 0.33802 0.0
O469 O 0.45362 0.6144 0.29783 0.0
O470 O 0.4631 0.58844 0.20925 0.0
O471 O 0.4127 0.56534 0.23701 0.0
H472 H 0.32415 0.55885 0.39234 0.0
H473 H 0.32222 0.597 0.44595 0.0
H474 H 0.42197 0.64248 0.46511 0.0
H475 H 0.42359 0.60437 0.41278 0.0
H476 H 0.58516 0.69377 0.21486 0.0
H477 H 0.59778 0.71595 1.13462 0.0
H478 H 0.53361 0.62547 1.075 0.0
H479 H 0.51957 0.60429 1.15508 0.0
H480 H 0.43448 0.1673 0.35807 0.0
H481 H 0.52964 0.19075 0.38607 0.0
H482 H 0.54771 0.24611 0.36935 0.0
H483 H 0.44917 0.22316 0.26448 0.0
H484 H 0.42049 0.23217 0.2856 0.0
H485 H 0.41557 0.19431 0.29632 0.0
H486 H 0.41124 0.2011 0.38721 0.0
H487 H 0.41614 0.23896 0.37675 0.0
H488 H 0.44191 0.23459 0.41751 0.0
H489 H 0.55533 0.29954 0.34453 0.0
H490 H 0.55078 0.3461 0.32751 0.0
H491 H 0.45031 0.28797 0.32509 0.0
C492 C 0.45916 0.18403 0.36011 0.0
C493 C 0.48076 0.17453 0.37215 0.0
C494 C 0.51274 0.19737 0.37591 0.0
C495 C 0.52322 0.2289 0.36648 0.0
C496 C 0.50136 0.23751 0.35425 0.0
C497 C 0.4699 0.21573 0.35203 0.0
C498 C 0.45089 0.2312 0.34178 0.0
C499 C 0.43298 0.21951 0.29422 0.0
C500 C 0.42874 0.22616 0.38329 0.0
C501 C 0.47645 0.26498 0.3383 0.0
C502 C 0.50551 0.26822 0.34463 0.0
C503 C 0.53263 0.29726 0.34058 0.0
C504 C 0.52989 0.32359 0.33068 0.0
C505 C 0.50026 0.32081 0.32585 0.0
C506 C 0.47333 0.29101 0.32962 0.0
H507 H 0.31034 0.53095 0.75928 0.0
H508 H 0.35156 0.52275 0.62838 0.0
H509 H 0.30899 0.5227 0.58182 0.0
H510 H 0.23605 0.47892 0.73078 0.0
H511 H 0.21791 0.49854 0.75786 0.0
H512 H 0.25479 0.50528 0.78011 0.0
H513 H 0.27987 0.56473 0.76601 0.0
H514 H 0.24231 0.55764 0.74609 0.0
H515 H 0.27577 0.57844 0.70826 0.0
H516 H 0.25752 0.51434 0.5514 0.0
H517 H 0.20282 0.50016 0.53872 0.0
H518 H 0.19417 0.51323 0.68981 0.0
C519 C 0.31121 0.53072 0.72061 0.0
C520 C 0.33454 0.52738 0.69734 0.0
C521 C 0.3344 0.52606 0.64686 0.0
C522 C 0.31004 0.52563 0.62022 0.0
C523 C 0.28639 0.52716 0.64459 0.0
C524 C 0.28714 0.53031 0.69367 0.0
C525 C 0.25741 0.52819 0.71181 0.0
C526 C 0.24056 0.50112 0.74721 0.0
C527 C 0.26429 0.55912 0.73435 0.0
C528 C 0.23912 0.52201 0.66553 0.0
C529 C 0.25654 0.5221 0.62709 0.0
C530 C 0.24394 0.51472 0.58113 0.0
C531 C 0.21273 0.50655 0.57434 0.0
C532 C 0.19418 0.50559 0.61325 0.0
C533 C 0.20784 0.5141 0.6593 0.0
H534 H 0.78488 0.27204 1.08859 0.0
H535 H 0.80806 0.33241 0.96532 0.0
H536 H 0.75785 0.29364 0.9269 0.0
H537 H 0.75868 0.20472 1.0234 0.0
H538 H 0.72898 0.18009 1.06515 0.0
H539 H 0.7631 0.21469 1.08602 0.0
H540 H 0.72885 0.23619 1.1226 0.0
H541 H 0.69565 0.19962 1.10494 0.0
H542 H 0.69863 0.23533 1.08519 0.0
H543 H 0.7042 0.24496 0.90185 0.0
H544 H 0.65784 0.19236 0.89039 0.0
H545 H 0.6762 0.16387 1.02719 0.0
C546 C 0.77941 0.27767 1.0538 0.0
C547 C 0.8005 0.30548 1.03005 0.0
C548 C 0.79223 0.31142 0.98437 0.0
C549 C 0.76376 0.28946 0.96237 0.0
C550 C 0.74414 0.26164 0.98638 0.0
C551 C 0.75195 0.25587 1.03114 0.0
C552 C 0.72943 0.22325 1.04794 0.0
C553 C 0.74605 0.20461 1.05608 0.0
C554 C 0.71219 0.22367 1.09295 0.0
C555 C 0.70756 0.21109 1.00566 0.0
C556 C 0.7157 0.23359 0.9708 0.0
C557 C 0.69791 0.22735 0.92903 0.0
C558 C 0.67158 0.19747 0.92286 0.0
C559 C 0.66365 0.17412 0.95791 0.0
C560 C 0.68188 0.18122 0.99971 0.0
H561 H 0.50684 0.69493 0.36135 0.0
H562 H 0.41121 0.63186 0.31912 0.0
H563 H 0.39855 0.67328 0.33266 0.0
H564 H 0.49183 0.73924 0.45146 0.0
H565 H 0.52519 0.7757 0.43449 0.0
H566 H 0.52564 0.74004 0.42698 0.0
H567 H 0.53826 0.75248 0.33722 0.0
H568 H 0.53779 0.7881 0.34441 0.0
H569 H 0.51297 0.76003 0.30027 0.0
H570 H 0.39694 0.72345 0.34928 0.0
H571 H 0.40768 0.77746 0.36065 0.0
H572 H 0.5051 0.80833 0.38492 0.0
C573 C 0.48311 0.68966 0.3558 0.0
C574 C 0.45985 0.65977 0.34013 0.0
C575 C 0.42932 0.65429 0.33186 0.0
C576 C 0.42191 0.67777 0.33945 0.0
C577 C 0.44544 0.7071 0.35437 0.0
C578 C 0.47552 0.71313 0.362 0.0
C579 C 0.49714 0.74717 0.37411 0.0
C580 C 0.51075 0.75074 0.42477 0.0
C581 C 0.52306 0.76286 0.33677 0.0
C582 C 0.47475 0.75947 0.37153 0.0
C583 C 0.44487 0.73596 0.36105 0.0
C584 C 0.4203 0.74197 0.35737 0.0
C585 C 0.42653 0.7727 0.36407 0.0
C586 C 0.45715 0.79724 0.37349 0.0
C587 C 0.48141 0.79023 0.37737 0.0
H588 H 0.71612 0.52002 0.74801 0.0
H589 H 0.65045 0.46679 0.63513 0.0
H590 H 0.69086 0.46033 0.59514 0.0
H591 H 0.78281 0.56076 0.67029 0.0
H592 H 0.81035 0.56044 0.71216 0.0
H593 H 0.77622 0.56028 0.73364 0.0
H594 H 0.75958 0.50933 0.78178 0.0
H595 H 0.79496 0.51141 0.76188 0.0
H596 H 0.75812 0.47688 0.75101 0.0
H597 H 0.73841 0.4607 0.5657 0.0
H598 H 0.78881 0.46382 0.55212 0.0
H599 H 0.82584 0.51831 0.68176 0.0
C600 C 0.71029 0.50694 0.71496 0.0
C601 C 0.68 0.49395 0.69466 0.0
C602 C 0.67342 0.47712 0.65125 0.0
C603 C 0.69628 0.47334 0.62821 0.0
C604 C 0.72597 0.48682 0.64856 0.0
C605 C 0.73313 0.50322 0.69102 0.0
C606 C 0.7672 0.51572 0.7045 0.0
C607 C 0.78521 0.55143 0.70518 0.0
C608 C 0.77011 0.50257 0.75271 0.0
C609 C 0.7778 0.50325 0.66352 0.0
C610 C 0.75359 0.48687 0.63155 0.0
C611 C 0.75736 0.47307 0.59086 0.0
C612 C 0.7862 0.47512 0.58332 0.0
C613 C 0.81135 0.49128 0.61576 0.0
C614 C 0.80714 0.50592 0.65615 0.0
H615 H 0.22953 0.78791 0.92392 0.0
H616 H 0.29584 0.80061 1.03562 0.0
H617 H 0.25475 0.75511 1.0784 0.0
H618 H 0.16437 0.76586 1.00544 0.0
H619 H 0.13572 0.73847 0.96413 0.0
H620 H 0.1705 0.77176 0.94199 0.0
H621 H 0.18088 0.73539 0.8927 0.0
H622 H 0.14846 0.7006 0.91656 0.0
H623 H 0.18743 0.70691 0.92105 0.0
H624 H 0.20627 0.71106 1.11148 0.0
H625 H 0.15519 0.66616 1.12954 0.0
H626 H 0.11787 0.67986 0.99686 0.0
C627 C 0.23546 0.78099 0.95734 0.0
C628 C 0.26626 0.7977 0.97621 0.0
C629 C 0.27281 0.788 1.0201 0.0
C630 C 0.24942 0.76233 1.04483 0.0
C631 C 0.2193 0.74675 1.02566 0.0
C632 C 0.21216 0.75559 0.98289 0.0
C633 C 0.17766 0.73488 0.97074 0.0
C634 C 0.16109 0.75388 0.97057 0.0
C635 C 0.17331 0.7184 0.9225 0.0
C636 C 0.16674 0.71224 1.01261 0.0
C637 C 0.1912 0.72024 1.0442 0.0
C638 C 0.18717 0.70418 1.08662 0.0
C639 C 0.15781 0.67877 1.09669 0.0
C640 C 0.1323 0.66915 1.06465 0.0
C641 C 0.13678 0.68651 1.02213 0.0
H642 H 0.67169 0.27357 1.08055 0.0
H643 H 0.60622 0.30451 1.05247 0.0
H644 H 0.62226 0.33475 1.12668 0.0
H645 H 0.66027 0.25035 1.17214 0.0
H646 H 0.69621 0.26594 0.20605 0.0
H647 H 0.6975 0.26661 1.14279 0.0
H648 H 0.73483 0.3249 1.14205 0.0
H649 H 0.73442 0.32503 0.20653 0.0
H650 H 0.72542 0.35055 1.1734 0.0
H651 H 0.62151 0.33486 0.21236 0.0
H652 H 0.60323 0.30347 0.28501 0.0
H653 H 0.67006 0.2737 0.26478 0.0
C654 C 0.66262 0.28872 1.08833 0.0
C655 C 0.6371 0.28594 1.06172 0.0
C656 C 0.62535 0.30569 1.07297 0.0
C657 C 0.63467 0.32331 1.11511 0.0
C658 C 0.65635 0.3216 1.14516 0.0
C659 C 0.67176 0.30627 1.13077 0.0
C660 C 0.68817 0.30147 1.17306 0.0
C661 C 0.68511 0.26907 1.17359 0.0
C662 C 0.72273 0.32701 1.17382 0.0
C663 C 0.67116 0.30651 0.21366 0.0
C664 C 0.65604 0.32187 0.19737 0.0
C665 C 0.63371 0.32343 0.2254 0.0
C666 C 0.62321 0.30528 0.26679 0.0
C667 C 0.63446 0.28517 0.27897 0.0
C668 C 0.66117 0.28888 0.25576 0.0
H669 H 0.33395 0.60819 0.53491 0.0
H670 H 0.41046 0.68618 0.4646 0.0
H671 H 0.42256 0.71698 0.53823 0.0
H672 H 0.3237 0.66306 0.63604 0.0
H673 H 0.31419 0.63266 0.67892 0.0
H674 H 0.2996 0.623 0.61843 0.0
H675 H 0.32339 0.5882 0.60955 0.0
H676 H 0.33679 0.59636 0.66983 0.0
H677 H 0.36416 0.6034 0.62264 0.0
H678 H 0.44028 0.72967 0.61988 0.0
H679 H 0.46224 0.72006 0.69219 0.0
H680 H 0.37571 0.63413 0.7145 0.0
C681 C 0.35178 0.63248 0.53452 0.0
C682 C 0.37144 0.64475 0.49468 0.0
C683 C 0.39523 0.67629 0.49505 0.0
C684 C 0.40204 0.69409 0.53678 0.0
C685 C 0.38461 0.68021 0.57777 0.0
C686 C 0.35901 0.65029 0.57649 0.0
C687 C 0.34901 0.63787 0.62671 0.0
C688 C 0.31991 0.63925 0.64081 0.0
C689 C 0.34317 0.60456 0.63249 0.0
C690 C 0.37708 0.66176 0.65486 0.0
C691 C 0.3957 0.68752 0.627 0.0
C692 C 0.42556 0.70993 0.64214 0.0
C693 C 0.43805 0.70415 0.68331 0.0
C694 C 0.4211 0.67564 0.70792 0.0
C695 C 0.38925 0.6561 0.69648 0.0
H696 H 0.77076 0.46331 0.99348 0.0
H697 H 0.71626 0.37153 1.05481 0.0
H698 H 0.67892 0.35662 0.98852 0.0
H699 H 0.69594 0.45939 0.92371 0.0
H700 H 0.72251 0.48215 0.87705 0.0
H701 H 0.7345 0.49038 0.93888 0.0
H702 H 0.78233 0.48513 0.92002 0.0
H703 H 0.77043 0.47653 0.85925 0.0
H704 H 0.77661 0.44949 0.89386 0.0
H705 H 0.66572 0.3448 0.90401 0.0
H706 H 0.67416 0.34047 0.81846 0.0
H707 H 0.73319 0.44009 0.81046 0.0
C708 C 0.74993 0.44078 0.99506 0.0
C709 C 0.74759 0.41814 1.02796 0.0
C710 C 0.71962 0.38898 1.02868 0.0
C711 C 0.6979 0.38038 0.99125 0.0
C712 C 0.7036 0.40174 0.95478 0.0
C713 C 0.72807 0.43213 0.95791 0.0
C714 C 0.7331 0.44883 0.91056 0.0
C715 C 0.72076 0.47151 0.91269 0.0
C716 C 0.7676 0.46585 0.89507 0.0
C717 C 0.71257 0.42155 0.87844 0.0
C718 C 0.69424 0.39493 0.90482 0.0
C719 C 0.67881 0.36567 0.88304 0.0
C720 C 0.68392 0.36333 0.83436 0.0
C721 C 0.70439 0.39008 0.80797 0.0
C722 C 0.71679 0.41951 0.82953 0.0
H723 H 0.28091 0.70193 1.08798 0.0
H724 H 0.3693 0.70577 1.09614 0.0
H725 H 0.3536 0.67624 1.17094 0.0
H726 H 0.27539 0.72403 0.17773 0.0
H727 H 0.23634 0.69874 0.19932 0.0
H728 H 0.24417 0.69955 1.13726 0.0
H729 H 0.22187 0.64091 1.13743 0.0
H730 H 0.2143 0.6394 0.20056 0.0
H731 H 0.23712 0.62351 0.17768 0.0
H732 H 0.34319 0.67443 0.2539 0.0
H733 H 0.34367 0.70521 0.32132 0.0
H734 H 0.25847 0.69879 0.27087 0.0
C735 C 0.29582 0.69451 1.10441 0.0
C736 C 0.3262 0.7062 1.08708 0.0
C737 C 0.34579 0.69685 1.10879 0.0
C738 C 0.33682 0.67981 1.15136 0.0
C739 C 0.30805 0.67193 1.17139 0.0
C740 C 0.28696 0.67762 1.14713 0.0
C741 C 0.26162 0.67456 0.18032 0.0
C742 C 0.25409 0.70087 1.17339 0.0
C743 C 0.23201 0.6427 1.17361 0.0
C744 C 0.27683 0.67587 0.22814 0.0
C745 C 0.30159 0.67065 0.22233 0.0
C746 C 0.3236 0.6779 0.25876 0.0
C747 C 0.32366 0.69551 0.29762 0.0
C748 C 0.30187 0.70574 0.29955 0.0
C749 C 0.27576 0.69178 0.26874 0.0
H750 H 0.63267 0.35079 0.34986 0.0
H751 H 0.72134 0.43603 0.35281 0.0
H752 H 0.73695 0.41767 0.42302 0.0
H753 H 0.61012 0.34726 0.44223 0.0
H754 H 0.59436 0.30798 0.46363 0.0
H755 H 0.59844 0.3152 0.40122 0.0
H756 H 0.63148 0.28944 0.39397 0.0
H757 H 0.62743 0.28147 0.45721 0.0
H758 H 0.66557 0.30195 0.43093 0.0
H759 H 0.73054 0.40793 0.50713 0.0
H760 H 0.7053 0.40608 0.58281 0.0
H761 H 0.62081 0.32522 0.53398 0.0
C762 C 0.65627 0.36439 0.36315 0.0
C763 C 0.67524 0.39526 0.34748 0.0
C764 C 0.70604 0.41256 0.3652 0.0
C765 C 0.71512 0.40212 0.40527 0.0
C766 C 0.69342 0.37403 0.4263 0.0
C767 C 0.66506 0.35428 0.40404 0.0
C768 C 0.64282 0.32974 0.43866 0.0
C769 C 0.60957 0.32495 0.43635 0.0
C770 C 0.64181 0.29884 0.4297 0.0
C771 C 0.65947 0.34405 0.4854 0.0
C772 C 0.6898 0.36779 0.47746 0.0
C773 C 0.7073 0.3888 0.51378 0.0
C774 C 0.6927 0.38776 0.55692 0.0
C775 C 0.6608 0.36606 0.56322 0.0
C776 C 0.64514 0.34223 0.52914 0.0
H777 H 0.28533 0.64833 0.97351 0.0
H778 H 0.28673 0.73535 0.95889 0.0
H779 H 0.31587 0.74564 0.88453 0.0
H780 H 0.36327 0.67772 0.88524 0.0
H781 H 0.3456 0.63789 0.86588 0.0
H782 H 0.34489 0.6468 0.92819 0.0
H783 H 0.28535 0.61111 0.92777 0.0
H784 H 0.28579 0.60253 0.86629 0.0
H785 H 0.26197 0.61827 0.88558 0.0
H786 H 0.31383 0.73234 0.80185 0.0
H787 H 0.28618 0.70073 0.73215 0.0
H788 H 0.29021 0.62298 0.79221 0.0
C789 C 0.29368 0.67057 0.95654 0.0
C790 C 0.28198 0.68999 0.97026 0.0
C791 C 0.29392 0.71916 0.94762 0.0
C792 C 0.31095 0.72539 0.9054 0.0
C793 C 0.31695 0.70281 0.88739 0.0
C794 C 0.31046 0.67669 0.91398 0.0
C795 C 0.31211 0.6526 0.88295 0.0
C796 C 0.34333 0.65385 0.89103 0.0
C797 C 0.28461 0.61925 0.89109 0.0
C798 C 0.31137 0.66516 0.83393 0.0
C799 C 0.31712 0.69543 0.83708 0.0
C800 C 0.3105 0.70923 0.79871 0.0
C801 C 0.29461 0.69096 0.75888 0.0
C802 C 0.28548 0.65914 0.75764 0.0
C803 C 0.29681 0.64723 0.79314 0.0
H804 H 0.38879 0.97219 1.0441 0.0
H805 H 0.3699 0.88658 1.11336 0.0
H806 H 0.38653 0.9141 0.19056 0.0
H807 H 0.45755 0.02429 1.10639 0.0
H808 H 0.44989 0.05537 1.11681 0.0
H809 H 0.43253 0.02982 1.06625 0.0
H810 H 0.37788 0.01544 1.09127 0.0
H811 H 0.39423 0.04206 1.14092 0.0
H812 H 0.36495 0.00214 1.15118 0.0
H813 H 0.40584 0.95086 0.26283 0.0
H814 H 0.42916 -0.00637 0.32157 0.0
H815 H 0.44171 0.05923 0.20987 0.0
C816 C 0.388 0.95912 1.07551 0.0
C817 C 0.37757 0.92643 1.07121 0.0
C818 C 0.37747 0.9111 1.11419 0.0
C819 C 0.3868 0.92671 1.15888 0.0
C820 C 0.39718 0.95856 1.16175 0.0
C821 C 0.39808 0.9748 1.12112 0.0
C822 C 0.41114 0.0093 1.13491 0.0
C823 C 0.43947 0.03095 1.10438 0.0
C824 C 0.38554 0.01774 1.12921 0.0
C825 C 0.41989 0.01029 0.18842 0.0
C826 C 0.4102 0.98028 0.20321 0.0
C827 C 0.41355 0.97434 0.25121 0.0
C828 C 0.42708 -0.00089 0.28474 0.0
C829 C 0.43836 0.03056 0.27156 0.0
C830 C 0.4344 0.03593 0.22193 0.0
H831 H 0.47348 0.40247 0.46281 0.0
H832 H 0.46312 0.45965 0.35593 0.0
H833 H 0.44428 0.48132 0.41806 0.0
H834 H 0.40352 0.38599 0.53234 0.0
H835 H 0.42098 0.38732 0.58964 0.0
H836 H 0.43348 0.37586 0.53708 0.0
H837 H 0.48973 0.41821 0.55496 0.0
H838 H 0.47807 0.43131 0.60666 0.0
H839 H 0.4993 0.458 0.55926 0.0
H840 H 0.42436 0.49635 0.49262 0.0
H841 H 0.41108 0.50743 0.57232 0.0
H842 H 0.43223 0.44074 0.63542 0.0
C843 C 0.46727 0.41958 0.45242 0.0
C844 C 0.47026 0.4293 0.4033 0.0
C845 C 0.46141 0.45163 0.39239 0.0
C846 C 0.45047 0.4641 0.42784 0.0
C847 C 0.44766 0.45406 0.47537 0.0
C848 C 0.45581 0.43223 0.48787 0.0
C849 C 0.45058 0.42576 0.54203 0.0
C850 C 0.42566 0.3917 0.55079 0.0
C851 C 0.48123 0.43377 0.5673 0.0
C852 C 0.43891 0.44771 0.55813 0.0
C853 C 0.43704 0.46342 0.51863 0.0
C854 C 0.42629 0.48439 0.5236 0.0
C855 C 0.41857 0.49053 0.56949 0.0
C856 C 0.42028 0.47525 0.6113 0.0
C857 C 0.4304 0.45307 0.60484 0.0
H858 H 0.05145 0.48886 0.77208 0.0
H859 H 0.06612 0.41224 0.7408 0.0
H860 H 0.02984 0.38156 0.80559 0.0
H861 H 0.04029 0.48084 0.89667 0.0
H862 H 0.00718 0.48591 0.89939 0.0
H863 H 0.0349 0.50374 0.85187 0.0
H864 H -0.00853 0.4742 0.7847 0.0
H865 H 0.96393 0.45995 0.83331 0.0
H866 H 0.96541 0.43343 0.79223 0.0
H867 H -0.01107 0.3579 0.877 0.0
H868 H 0.94954 0.34495 0.94008 0.0
H869 H 0.95676 0.4345 0.92007 0.0
C870 C 0.04747 0.46579 0.77901 0.0
C871 C 0.06291 0.45369 0.75089 0.0
C872 C 0.05563 0.4228 0.76161 0.0
C873 C 0.03463 0.40492 0.79857 0.0
C874 C 0.01942 0.41726 0.82473 0.0
C875 C 0.02521 0.44684 0.81449 0.0
C876 C 0.00362 0.45352 0.84439 0.0
C877 C 0.02264 0.48283 0.87475 0.0
C878 C 0.97987 0.45567 0.81171 0.0
C879 C -0.01346 0.42459 0.87577 0.0
C880 C -0.00449 0.40348 0.86327 0.0
C881 C 0.98198 0.37457 0.88637 0.0
C882 C 0.95922 0.36724 0.92246 0.0
C883 C 0.94911 0.38826 0.93598 0.0
C884 C 0.96332 0.41744 0.9114 0.0
H885 H 0.46839 0.94984 0.25129 0.0
H886 H 0.54818 0.93958 0.28169 0.0
H887 H 0.57554 0.97295 0.21229 0.0
H888 H 0.47406 0.95274 1.12076 0.0
H889 H 0.46209 0.98112 1.11617 0.0
H890 H 0.45049 0.95513 1.16677 0.0
H891 H 0.47573 0.00433 0.22399 0.0
H892 H 0.48779 0.02954 1.17256 0.0
H893 H 0.51595 0.03281 0.21615 0.0
H894 H 0.5938 0.00661 1.13308 0.0
H895 H 0.60242 0.03939 1.06191 0.0
H896 H 0.51385 0.03395 1.08509 0.0
C897 C 0.4916 0.95444 0.24341 0.0
C898 C 0.50556 0.94105 0.27293 0.0
C899 C 0.53639 0.94885 0.26062 0.0
C900 C 0.55229 0.96801 0.22069 0.0
C901 C 0.53792 0.98065 0.19253 0.0
C902 C 0.50844 0.97457 0.2041 0.0
C903 C 0.49886 -0.00774 1.16933 0.0
C904 C 0.46958 0.96905 1.14156 0.0
C905 C 0.49418 0.01611 0.197 0.0
C906 C 0.52687 0.00878 1.13572 0.0
C907 C 0.54912 0.00141 1.1496 0.0
C908 C 0.57646 0.01261 1.12293 0.0
C909 C 0.58121 0.03146 1.08197 0.0
C910 C 0.55941 0.04037 1.06692 0.0
C911 C 0.53168 0.02861 1.09513 0.0
H912 H 0.57842 0.50512 0.55062 0.0
H913 H 0.52457 0.50779 0.66976 0.0
H914 H 0.49825 0.52672 0.61627 0.0
H915 H 0.58803 0.57622 0.49244 0.0
H916 H 0.5846 0.56182 0.43233 0.0
H917 H 0.59956 0.54807 0.47937 0.0
H918 H 0.55807 0.49212 0.45867 0.0
H919 H 0.54141 0.50487 0.4127 0.0
H920 H 0.51763 0.48077 0.46085 0.0
H921 H 0.47857 0.54843 0.55057 0.0
H922 H 0.46283 0.5646 0.47713 0.0
H923 H 0.52832 0.55009 0.39599 0.0
C924 C 0.56092 0.50942 0.56545 0.0
C925 C 0.5538 0.50439 0.61559 0.0
C926 C 0.53088 0.51111 0.63236 0.0
C927 C 0.51567 0.52211 0.60192 0.0
C928 C 0.52341 0.52723 0.55351 0.0
C929 C 0.54548 0.52108 0.53509 0.0
C930 C 0.54912 0.52891 0.48124 0.0
C931 C 0.58231 0.55532 0.47072 0.0
C932 C 0.54111 0.49996 0.45151 0.0
C933 C 0.5253 0.53966 0.47234 0.0
C934 C 0.51118 0.53887 0.51502 0.0
C935 C 0.48918 0.54851 0.51692 0.0
C936 C 0.48033 0.55786 0.47455 0.0
C937 C 0.4938 0.5588 0.42955 0.0
C938 C 0.51713 0.54977 0.42916 0.0
H939 H 0.03878 0.57064 0.89528 0.0
H940 H 0.97984 0.50152 0.9993 0.0
H941 H 0.93795 0.4771 0.93968 0.0
H942 H 0.96992 0.57305 0.83966 0.0
H943 H -0.0142 0.58021 0.78028 0.0
H944 H 0.01148 0.59399 0.83158 0.0
H945 H 0.03865 0.56613 0.8007 0.0
H946 H 0.01251 0.55017 0.75028 0.0
H947 H 0.01749 0.52508 0.79099 0.0
H948 H 0.90052 0.45797 0.86768 0.0
H949 H 0.87335 0.44532 0.78915 0.0
H950 H 0.95416 0.52422 0.72701 0.0
C951 C 0.01726 0.55016 0.90543 0.0
C952 C 0.01362 0.5382 0.9533 0.0
C953 C 0.98415 0.51167 0.96394 0.0
C954 C 0.95972 0.49742 0.92992 0.0
C955 C 0.96388 0.50958 0.88382 0.0
C956 C -0.00809 0.53544 0.87127 0.0
C957 C -0.01071 0.54385 0.81899 0.0
C958 C -0.01088 0.5746 0.81755 0.0
C959 C 0.01599 0.54637 0.78843 0.0
C960 C 0.95713 0.51676 0.80307 0.0
C961 C 0.94227 0.49827 0.84198 0.0
C962 C 0.91199 0.47258 0.83717 0.0
C963 C 0.8965 0.46543 0.79202 0.0
C964 C 0.91102 0.4833 0.75071 0.0
C965 C 0.94199 0.50957 0.75716 0.0
H966 H 0.54514 0.05584 0.46624 0.0
H967 H 0.44823 0.02796 0.46453 0.0
H968 H 0.44004 -0.00098 0.53792 0.0
H969 H 0.54195 0.00471 0.44628 0.0
H970 H 0.56145 0.99025 0.48382 0.0
H971 H 0.57492 0.03103 0.48232 0.0
H972 H 0.56998 0.03454 0.57195 0.0
H973 H 0.5605 -0.00545 0.57415 0.0
H974 H 0.53568 0.00604 0.60258 0.0
H975 H 0.43216 0.95185 0.57427 0.0
H976 H 0.41369 0.916 0.50671 0.0
H977 H 0.50816 0.95175 0.46106 0.0
C978 C 0.52249 0.04399 0.4829 0.0
C979 C 0.4974 0.04494 0.46131 0.0
C980 C 0.468 0.02902 0.48224 0.0
C981 C 0.46347 0.01233 0.52424 0.0
C982 C 0.48704 0.00678 0.54029 0.0
C983 C 0.51676 0.02301 0.52019 0.0
C984 C 0.53202 0.00348 0.5236 0.0
C985 C 0.55375 0.00757 0.48135 0.0
C986 C 0.55055 0.01005 0.57087 0.0
C987 C 0.50251 0.97207 0.52599 0.0
C988 C 0.47997 0.97513 0.55117 0.0
C989 C 0.44903 0.95086 0.55125 0.0
C990 C 0.43851 0.93121 0.51178 0.0
C991 C 0.45987 0.93363 0.47704 0.0
C992 C 0.49194 0.95122 0.48705 0.0
H993 H 0.4633 0.48964 0.85879 0.0
H994 H 0.39325 0.42365 0.76309 0.0
H995 H 0.39844 0.38161 0.79853 0.0
H996 H 0.51337 0.49253 0.86101 0.0
H997 H 0.52856 0.48216 0.91203 0.0
H998 H 0.50007 0.49369 0.92026 0.0
H999 H 0.46695 0.44406 0.96653 0.0
H1000 H 0.49469 0.43146 0.95664 0.0
H1001 H 0.4545 0.4066 0.94056 0.0
H1002 H 0.43679 0.36829 0.78304 0.0
H1003 H 0.48224 0.39152 0.73153 0.0
H1004 H 0.53452 0.46022 0.83961 0.0
C1005 C 0.44889 0.46584 0.84692 0.0
C1006 C 0.43023 0.45958 0.80606 0.0
C1007 C 0.40951 0.42881 0.79236 0.0
C1008 C 0.41164 0.40473 0.81364 0.0
C1009 C 0.43576 0.41224 0.8466 0.0
C1010 C 0.45147 0.44165 0.86812 0.0
C1011 C 0.4809 0.44634 0.89172 0.0
C1012 C 0.50729 0.48073 0.8963 0.0
C1013 C 0.47378 0.43118 0.94171 0.0
C1014 C 0.48712 0.42687 0.85727 0.0
C1015 C 0.45892 0.40293 0.83874 0.0
C1016 C 0.45839 0.3874 0.79674 0.0
C1017 C 0.48407 0.40132 0.76674 0.0
C1018 C 0.51086 0.42897 0.78095 0.0
C1019 C 0.51344 0.43961 0.82813 0.0
H1020 H 0.96679 0.40343 1.17315 0.0
H1021 H 0.97744 0.3918 1.02387 0.0
H1022 H 0.02522 0.39176 1.04025 0.0
H1023 H 0.00541 0.45551 0.1957 0.0
H1024 H 0.0337 0.46412 0.24192 0.0
H1025 H -0.00197 0.42766 0.24244 0.0
H1026 H 0.02789 0.39855 0.24559 0.0
H1027 H 0.06422 0.4349 0.24552 0.0
H1028 H 0.05711 0.40563 0.20207 0.0
H1029 H 0.07387 0.43734 1.04313 0.0
H1030 H 0.08732 0.49128 1.03034 0.0
H1031 H 0.0583 0.49577 1.17282 0.0
C1032 C 0.97999 0.40097 1.14463 0.0
C1033 C 0.97031 0.40016 1.09738 0.0
C1034 C 0.9854 0.39432 1.0603 0.0
C1035 C 0.01254 0.39374 1.06999 0.0
C1036 C 0.02736 0.40572 1.11402 0.0
C1037 C 0.01007 0.40626 1.15319 0.0
C1038 C 0.03154 0.43054 0.18873 0.0
C1039 C 0.01624 0.44532 0.21882 0.0
C1040 C 0.04605 0.41661 0.22237 0.0
C1041 C 0.05536 0.4523 1.15341 0.0
C1042 C 0.05674 0.43528 1.11484 0.0
C1043 C 0.07164 0.4502 1.07244 0.0
C1044 C 0.07793 0.48035 1.06446 0.0
C1045 C 0.07079 0.49574 1.09961 0.0
C1046 C 0.06207 0.48288 1.14534 0.0
H1047 H 0.03066 0.46097 0.55005 0.0
H1048 H 0.03157 0.48781 0.69668 0.0
H1049 H 0.98545 0.43748 0.71298 0.0
H1050 H 0.96618 0.44452 0.52425 0.0
H1051 H 0.95042 0.40932 0.48907 0.0
H1052 H -0.00845 0.43425 0.49376 0.0
H1053 H -0.00275 0.38905 0.52367 0.0
H1054 H 0.95573 0.36323 0.52052 0.0
H1055 H 0.97649 0.3672 0.57553 0.0
H1056 H 0.93514 0.39522 0.71132 0.0
H1057 H 0.88908 0.39795 0.68902 0.0
H1058 H 0.90975 0.39815 0.53988 0.0
C1059 C 0.02112 0.45545 0.58573 0.0
C1060 C 0.03504 0.47712 0.62286 0.0
C1061 C 0.02166 0.47072 0.66842 0.0
C1062 C -0.0041 0.44181 0.67808 0.0
C1063 C 0.98231 0.4202 0.64094 0.0
C1064 C -0.00585 0.42728 0.59494 0.0
C1065 C 0.97 0.40673 0.5586 0.0
C1066 C 0.96948 0.42486 0.51394 0.0
C1067 C 0.97519 0.37998 0.54379 0.0
C1068 C 0.94134 0.39454 0.58964 0.0
C1069 C 0.94958 0.39721 0.63801 0.0
C1070 C 0.92873 0.39364 0.67394 0.0
C1071 C 0.9028 0.3956 0.66118 0.0
C1072 C 0.89764 0.39947 0.61295 0.0
C1073 C 0.91446 0.39531 0.57681 0.0
H1074 H 0.39509 0.95575 0.85951 0.0
H1075 H 0.44772 0.90912 0.87308 0.0
H1076 H 0.48226 0.94101 0.80914 0.0
H1077 H 0.44314 -0.00341 0.72195 0.0
H1078 H 0.43677 0.02808 0.73713 0.0
H1079 H 0.40551 0.98851 0.7419 0.0
H1080 H 0.39791 0.00087 0.82746 0.0
H1081 H 0.43033 0.03946 0.82318 0.0
H1082 H 0.42926 0.0143 0.87058 0.0
H1083 H 0.52418 -0.00927 0.80875 0.0
H1084 H 0.54603 0.02706 0.87459 0.0
H1085 H 0.48213 0.05952 0.8471 0.0
C1086 C 0.41397 0.95257 0.84769 0.0
C1087 C 0.42092 0.93254 0.87306 0.0
C1088 C 0.44388 0.92653 0.85631 0.0
C1089 C 0.46278 0.94381 0.81866 0.0
C1090 C 0.45986 0.96845 0.80055 0.0
C1091 C 0.43398 0.97112 0.81141 0.0
C1092 C 0.44026 0.00327 0.79939 0.0
C1093 C 0.43099 0.00417 0.74698 0.0
C1094 C 0.42353 0.01515 0.83232 0.0
C1095 C 0.47537 0.02029 0.80501 0.0
C1096 C 0.48647 -0.00018 0.7969 0.0
C1097 C 0.51539 0.00629 0.81525 0.0
C1098 C 0.52808 0.02718 0.85295 0.0
C1099 C 0.51556 0.04578 0.8654 0.0
C1100 C 0.49139 0.04473 0.8377 0.0
H1101 H 0.49283 0.55381 0.22199 0.0
H1102 H 0.3971 0.48121 0.21047 0.0
H1103 H 0.40981 0.45924 1.14238 0.0
H1104 H 0.50402 0.53083 1.07061 0.0
H1105 H 0.54438 0.5467 1.08612 0.0
H1106 H 0.52508 0.5682 1.09905 0.0
H1107 H 0.54298 0.57317 0.18581 0.0
H1108 H 0.56171 0.5515 1.17335 0.0
H1109 H 0.53344 0.53904 0.22065 0.0
H1110 H 0.43433 0.42984 1.13303 0.0
H1111 H 0.45952 0.41035 0.18617 0.0
H1112 H 0.54386 0.49884 0.18496 0.0
C1113 C 0.47462 0.53454 0.20273 0.0
C1114 C 0.44467 0.51853 0.22219 0.0
C1115 C 0.4207 0.49317 0.19716 0.0
C1116 C 0.4276 0.48114 1.15729 0.0
C1117 C 0.4586 0.49472 1.14281 0.0
C1118 C 0.48132 0.52325 1.16132 0.0
C1119 C 0.51322 0.5293 1.14775 0.0
C1120 C 0.52213 0.5446 1.09798 0.0
C1121 C 0.53928 0.54932 0.18426 0.0
C1122 C 0.50539 0.49588 1.1442 0.0
C1123 C 0.47374 0.47676 1.13298 0.0
C1124 C 0.45863 0.44485 1.14223 0.0
C1125 C 0.47268 0.4339 1.17374 0.0
C1126 C 0.50262 0.45412 0.19169 0.0
C1127 C 0.52038 0.48378 1.17192 0.0
H1128 H 0.35033 0.05946 0.83873 0.0
H1129 H 0.25322 -0.00609 0.80957 0.0
H1130 H 0.25382 0.02603 0.74276 0.0
H1131 H 0.34954 0.13323 0.78162 0.0
H1132 H 0.3881 0.14647 0.75925 0.0
H1133 H 0.37689 0.12771 0.81675 0.0
H1134 H 0.39261 0.08796 0.78952 0.0
H1135 H 0.40364 0.10632 0.73258 0.0
H1136 H 0.37525 0.06545 0.73599 0.0
H1137 H 0.26912 0.04947 0.66499 0.0
H1138 H 0.29695 0.06157 0.58907 0.0
H1139 H 0.38436 0.11721 0.66412 0.0
C1140 C 0.3289 0.05294 0.8196 0.0
C1141 C 0.30187 0.02428 0.82905 0.0
C1142 C 0.27415 0.01602 0.80342 0.0
C1143 C 0.27428 0.03425 0.76526 0.0
C1144 C 0.30217 0.06096 0.7536 0.0
C1145 C 0.32888 0.07092 0.78108 0.0
C1146 C 0.3572 0.09611 0.75571 0.0
C1147 C 0.36859 0.12776 0.77976 0.0
C1148 C 0.38364 0.08843 0.75326 0.0
C1149 C 0.34315 0.095 0.707 0.0
C1150 C 0.31109 0.07581 0.70718 0.0
C1151 C 0.29396 0.06553 0.66464 0.0
C1152 C 0.31003 0.07264 0.62131 0.0
C1153 C 0.34292 0.08993 0.62091 0.0
C1154 C 0.35919 0.10371 0.66376 0.0
H1155 H 0.31631 0.27943 1.0715 0.0
H1156 H 0.39738 0.27689 1.02321 0.0
H1157 H 0.37739 0.26866 0.94045 0.0
H1158 H 0.25912 0.22638 0.96907 0.0
H1159 H 0.24202 0.25077 0.9679 0.0
H1160 H 0.25532 0.2432 1.02374 0.0
H1161 H 0.28979 0.30242 1.03841 0.0
H1162 H 0.27675 0.31004 0.98318 0.0
H1163 H 0.31786 0.32614 0.99388 0.0
H1164 H 0.35913 0.27827 0.86478 0.0
H1165 H 0.34602 0.30681 0.80574 0.0
H1166 H 0.27632 0.30327 0.90067 0.0
C1167 C 0.32882 0.27523 1.04381 0.0
C1168 C 0.35818 0.27861 1.0535 0.0
C1169 C 0.37474 0.27432 1.01632 0.0
C1170 C 0.36336 0.26931 0.96929 0.0
C1171 C 0.33529 0.26838 0.96014 0.0
C1172 C 0.31791 0.27072 0.99668 0.0
C1173 C 0.2926 0.27617 0.97729 0.0
C1174 C 0.26035 0.2474 0.98495 0.0
C1175 C 0.29445 0.30543 0.99945 0.0
C1176 C 0.3009 0.28045 0.92488 0.0
C1177 C 0.3245 0.27424 0.91519 0.0
C1178 C 0.33984 0.28198 0.87134 0.0
C1179 C 0.33226 0.29812 0.83788 0.0
C1180 C 0.30986 0.30651 0.84894 0.0
C1181 C 0.29281 0.29603 0.89145 0.0
H1182 H 0.02941 0.31878 0.19001 0.0
H1183 H 0.94869 0.23277 0.234 0.0
H1184 H 0.97635 0.23257 0.307 0.0
H1185 H 0.09188 0.30604 0.26093 0.0
H1186 H 0.11314 0.34699 0.27445 0.0
H1187 H 0.09352 0.33359 0.21756 0.0
H1188 H 0.06428 0.36315 0.23288 0.0
H1189 H 0.08302 0.37624 0.28968 0.0
H1190 H 0.04109 0.35495 0.28601 0.0
H1191 H 0.00235 0.25077 0.38376 0.0
H1192 H 0.02415 0.28439 0.4541 0.0
H1193 H 0.09055 0.35897 0.36412 0.0
C1194 C 0.01834 0.29916 0.21403 0.0
C1195 C -0.01296 0.27589 0.20665 0.0
C1196 C 0.97285 0.25062 0.23868 0.0
C1197 C -0.01153 0.25034 0.28034 0.0
C1198 C 0.01841 0.27522 0.289 0.0
C1199 C 0.03363 0.29885 0.25598 0.0
C1200 C 0.06256 0.32602 0.27756 0.0
C1201 C 0.09202 0.32827 0.25637 0.0
C1202 C 0.06266 0.35685 0.27124 0.0
C1203 C 0.05876 0.31591 0.32928 0.0
C1204 C 0.03407 0.28593 0.33479 0.0
C1205 C 0.02248 0.27374 0.37984 0.0
C1206 C 0.0351 0.2931 0.41984 0.0
C1207 C 0.05899 0.32444 0.41453 0.0
C1208 C 0.07223 0.33513 0.36909 0.0
H1209 H 0.71108 0.04572 0.73436 0.0
H1210 H 0.71892 0.13303 0.69286 0.0
H1211 H 0.72123 0.12079 0.60869 0.0
H1212 H 0.75561 0.04014 0.61564 0.0
H1213 H 0.73006 -0.00135 0.61783 0.0
H1214 H 0.74536 0.02053 0.67246 0.0
H1215 H 0.68932 -0.00312 0.704 0.0
H1216 H 0.6739 0.97569 0.64995 0.0
H1217 H 0.66112 0.00181 0.66992 0.0
H1218 H 0.69679 0.09014 0.53735 0.0
H1219 H 0.65623 0.04777 0.48854 0.0
H1220 H 0.66854 0.98088 0.56959 0.0
C1221 C 0.71559 0.06331 0.70795 0.0
C1222 C 0.71349 0.08966 0.72008 0.0
C1223 C 0.71931 0.11206 0.68434 0.0
C1224 C 0.72102 0.10542 0.63624 0.0
C1225 C 0.71825 0.07692 0.62464 0.0
C1226 C 0.71741 0.05686 0.65981 0.0
C1227 C 0.70809 0.02527 0.63901 0.0
C1228 C 0.73648 0.02091 0.63603 0.0
C1229 C 0.68151 -0.00157 0.66735 0.0
C1230 C 0.69776 0.02882 0.58955 0.0
C1231 C 0.7054 0.05923 0.58082 0.0
C1232 C 0.69199 0.06663 0.54261 0.0
C1233 C 0.66886 0.04241 0.51496 0.0
C1234 C 0.65943 0.01126 0.52585 0.0
C1235 C 0.67579 0.00473 0.56085 0.0
H1236 H 0.52933 0.65665 1.01842 0.0
H1237 H 0.62461 0.71637 1.066 0.0
H1238 H 0.64125 0.72834 0.98271 0.0
H1239 H 0.54762 0.61862 0.94099 0.0
H1240 H 0.51734 0.61157 0.89831 0.0
H1241 H 0.51328 0.61878 0.95961 0.0
H1242 H 0.50438 0.66375 0.92968 0.0
H1243 H 0.51134 0.65712 0.86883 0.0
H1244 H 0.53441 0.69505 0.89543 0.0
H1245 H 0.65069 0.72022 0.90087 0.0
H1246 H 0.65237 0.68983 0.83379 0.0
H1247 H 0.5517 0.63431 0.83323 0.0
C1248 C 0.55357 0.67294 1.01126 0.0
C1249 C 0.57558 0.68533 1.0489 0.0
C1250 C 0.60704 0.70685 1.03809 0.0
C1251 C 0.61676 0.71387 0.99058 0.0
C1252 C 0.59483 0.69924 0.9541 0.0
C1253 C 0.56372 0.67928 0.96397 0.0
C1254 C 0.54625 0.6605 0.92029 0.0
C1255 C 0.53022 0.62531 0.93033 0.0
C1256 C 0.52271 0.66967 0.9025 0.0
C1257 C 0.57285 0.67078 0.88564 0.0
C1258 C 0.60049 0.69416 0.90511 0.0
C1259 C 0.62913 0.70272 0.88452 0.0
C1260 C 0.62985 0.68527 0.84598 0.0
C1261 C 0.60207 0.65938 0.82862 0.0
C1262 C 0.57323 0.65399 0.84594 0.0
H1263 H 0.95054 0.64617 0.2379 0.0
H1264 H 0.04885 0.71062 0.25853 0.0
H1265 H 0.03829 0.72412 0.33756 0.0
H1266 H 0.92452 0.69272 0.33323 0.0
H1267 H 0.892 0.6553 0.34861 0.0
H1268 H 0.90402 0.66422 0.28716 0.0
H1269 H 0.90836 0.6149 0.28263 0.0
H1270 H 0.897 0.60616 0.34333 0.0
H1271 H 0.93339 0.61 0.3245 0.0
H1272 H 0.02324 0.70885 0.41883 0.0
H1273 H 0.00482 0.67208 0.4853 0.0
H1274 H 0.91348 0.62199 0.41982 0.0
C1275 C 0.96952 0.66481 0.25756 0.0
C1276 C 0.00054 0.67636 0.24299 0.0
C1277 C 0.02489 0.70061 0.2697 0.0
C1278 C 0.019 0.70872 0.31463 0.0
C1279 C -0.01148 0.69325 0.33156 0.0
C1280 C 0.96374 0.67306 0.30256 0.0
C1281 C 0.93443 0.6545 0.3317 0.0
C1282 C 0.91246 0.66748 0.32478 0.0
C1283 C 0.91745 0.61937 0.31988 0.0
C1284 C 0.94835 0.66168 0.38161 0.0
C1285 C 0.97909 0.68568 0.38111 0.0
C1286 C -0.00109 0.69107 0.42016 0.0
C1287 C -0.01178 0.66992 0.45813 0.0
C1288 C 0.95783 0.64379 0.45697 0.0
C1289 C 0.93695 0.64167 0.42082 0.0
H1290 H 0.50158 0.07546 0.5652 0.0
H1291 H 0.55217 0.17361 0.53224 0.0
H1292 H 0.57341 0.18493 0.61513 0.0
H1293 H 0.48337 0.07977 0.68849 0.0
H1294 H 0.49087 0.04984 0.70893 0.0
H1295 H 0.4783 0.04931 0.64819 0.0
H1296 H 0.52634 0.04838 0.61783 0.0
H1297 H 0.53867 0.04823 0.67847 0.0
H1298 H 0.56471 0.07761 0.63727 0.0
H1299 H 0.58619 0.18534 0.70773 0.0
H1300 H 0.59506 0.17463 0.79134 0.0
H1301 H 0.54256 0.07594 0.76176 0.0
C1302 C 0.51719 0.0994 0.57522 0.0
C1303 C 0.52474 0.12365 0.54116 0.0
C1304 C 0.54573 0.15448 0.55667 0.0
C1305 C 0.55789 0.16114 0.60422 0.0
C1306 C 0.54984 0.13676 0.63676 0.0
C1307 C 0.53049 0.10638 0.62226 0.0
C1308 C 0.52697 0.08423 0.66304 0.0
C1309 C 0.49279 0.06463 0.67797 0.0
C1310 C 0.53999 0.06338 0.64832 0.0
C1311 C 0.54669 0.1066 0.70317 0.0
C1312 C 0.55928 0.13692 0.68761 0.0
C1313 C 0.57673 0.16158 0.71943 0.0
C1314 C 0.58165 0.15527 0.76738 0.0
C1315 C 0.57007 0.12446 0.78411 0.0
C1316 C 0.55234 0.09988 0.75073 0.0
H1317 H 0.43633 0.5575 0.90883 0.0
H1318 H 0.341 0.48177 0.91727 0.0
H1319 H 0.34163 0.49033 1.0046 0.0
H1320 H 0.46095 0.53822 1.02341 0.0
H1321 H 0.48824 0.57852 1.03575 0.0
H1322 H 0.47817 0.5651 0.97482 0.0
H1323 H 0.46142 0.60786 0.96231 0.0
H1324 H 0.47198 0.61921 1.02397 0.0
H1325 H 0.43339 0.60768 1.00261 0.0
H1326 H 0.35239 0.50853 1.09315 0.0
H1327 H 0.3731 0.53032 1.17306 0.0
H1328 H 0.46355 0.59166 1.11127 0.0
C1329 C 0.41543 0.54289 0.92893 0.0
C1330 C 0.38825 0.51915 0.90502 0.0
C1331 C 0.36196 0.50022 0.93374 0.0
C1332 C 0.36215 0.50499 0.98377 0.0
C1333 C 0.38914 0.52846 1.00607 0.0
C1334 C 0.41552 0.54677 0.97959 0.0
C1335 C 0.44205 0.56913 1.01295 0.0
C1336 C 0.46899 0.56241 1.01164 0.0
C1337 C 0.45292 0.60299 0.99967 0.0
C1338 C 0.42648 0.56113 1.06209 0.0
C1339 C 0.3958 0.53772 1.0571 0.0
C1340 C 0.37644 0.52676 1.09703 0.0
C1341 C 0.38851 0.53957 1.14274 0.0
C1342 C 0.42009 0.5632 1.14975 0.0
C1343 C 0.43925 0.5739 1.1081 0.0
H1344 H 0.8967 0.42589 0.22391 0.0
H1345 H 0.84053 0.32574 0.23338 0.0
H1346 H 0.82839 0.33048 0.31768 0.0
H1347 H 0.92983 0.43586 0.34498 0.0
H1348 H 0.93115 0.47212 0.35586 0.0
H1349 H 0.93413 0.46105 0.29572 0.0
H1350 H 0.88751 0.46717 0.26998 0.0
H1351 H 0.88431 0.47811 0.33011 0.0
H1352 H 0.85117 0.44601 0.30137 0.0
H1353 H 0.82001 0.34666 0.40232 0.0
H1354 H 0.82173 0.37143 0.4797 0.0
H1355 H 0.88787 0.46126 0.42088 0.0
C1356 C 0.88173 0.40493 0.24368 0.0
C1357 C 0.86926 0.37524 0.22093 0.0
C1358 C 0.85033 0.34866 0.2491 0.0
C1359 C 0.84322 0.35121 0.29734 0.0
C1360 C 0.85572 0.38062 0.31858 0.0
C1361 C 0.87516 0.40705 0.29281 0.0
C1362 C 0.88708 0.43576 0.32522 0.0
C1363 C 0.92266 0.45217 0.33076 0.0
C1364 C 0.87691 0.45809 0.30548 0.0
C1365 C 0.87097 0.42154 0.37284 0.0
C1366 C 0.85262 0.38967 0.36791 0.0
C1367 C 0.83463 0.37156 0.40628 0.0
C1368 C 0.83562 0.38598 0.45048 0.0
C1369 C 0.85489 0.41852 0.45761 0.0
C1370 C 0.87285 0.43636 0.41754 0.0
H1371 H 0.45238 0.8725 0.58999 0.0
H1372 H 0.36623 0.83705 0.50932 0.0
H1373 H 0.33862 0.83474 0.58318 0.0
H1374 H 0.41665 0.8239 0.69654 0.0
H1375 H 0.44162 0.85356 0.73867 0.0
H1376 H 0.45537 0.85323 0.67937 0.0
H1377 H 0.46773 0.90973 0.66642 0.0
H1378 H 0.4541 0.91008 0.72576 0.0
H1379 H 0.43752 0.91908 0.67505 0.0
H1380 H 0.31964 0.83923 0.66704 0.0
H1381 H 0.3106 0.84435 0.75267 0.0
H1382 H 0.40642 0.87182 0.78459 0.0
C1383 C 0.42762 0.86387 0.58778 0.0
C1384 C 0.41187 0.85473 0.54229 0.0
C1385 C 0.37937 0.84398 0.54249 0.0
C1386 C 0.36327 0.84273 0.58479 0.0
C1387 C 0.37931 0.85191 0.62847 0.0
C1388 C 0.41076 0.86186 0.63051 0.0
C1389 C 0.42205 0.86962 0.6828 0.0
C1390 C 0.43468 0.84884 0.70038 0.0
C1391 C 0.44683 0.90418 0.68779 0.0
C1392 C 0.39216 0.86229 0.70963 0.0
C1393 C 0.36794 0.8527 0.67718 0.0
C1394 C 0.33848 0.84625 0.69256 0.0
C1395 C 0.33347 0.84927 0.7417 0.0
C1396 C 0.3573 0.85788 0.7766 0.0
C1397 C 0.38723 0.86449 0.75965 0.0
H1398 H 0.6001 0.4861 0.9262 0.0
H1399 H 0.55863 0.39536 0.85924 0.0
H1400 H 0.53711 0.37073 0.93714 0.0
H1401 H 0.62183 0.46351 1.03846 0.0
H1402 H 0.61331 0.48776 1.07559 0.0
H1403 H 0.6251 0.49863 1.01452 0.0
H1404 H 0.57512 0.50107 0.9979 0.0
H1405 H 0.56347 0.49044 1.0591 0.0
H1406 H 0.53773 0.46778 1.01108 0.0
H1407 H 0.5166 0.35518 1.02406 0.0
H1408 H 0.50409 0.35066 1.11037 0.0
H1409 H 0.56188 0.45039 1.12557 0.0
C1410 C 0.58679 0.461 0.92785 0.0
C1411 C 0.58162 0.44294 0.88526 0.0
C1412 C 0.56361 0.41012 0.89027 0.0
C1413 C 0.55097 0.39577 0.93484 0.0
C1414 C 0.55643 0.41412 0.97569 0.0
C1415 C 0.57427 0.44612 0.97272 0.0
C1416 C 0.57715 0.46037 1.02255 0.0
C1417 C 0.61139 0.47866 1.03873 0.0
C1418 C 0.56251 0.48115 1.02264 0.0
C1419 C 0.5584 0.43155 1.05398 0.0
C1420 C 0.54617 0.40511 1.0259 0.0
C1421 C 0.52665 0.37584 1.04614 0.0
C1422 C 0.51963 0.37341 1.09563 0.0
C1423 C 0.53254 0.39984 1.12604 0.0
C1424 C 0.55226 0.42942 1.10424 0.0
H1425 H 0.08334 0.49305 0.43116 0.0
H1426 H 0.16254 0.57825 0.48353 0.0
H1427 H 0.1687 0.60187 0.40341 0.0
H1428 H 0.11444 0.49695 0.31518 0.0
H1429 H 0.07967 0.48361 0.28041 0.0
H1430 H 0.0773 0.46991 0.34084 0.0
H1431 H 0.04147 0.48888 0.37035 0.0
H1432 H 0.03837 0.49938 0.30981 0.0
H1433 H 0.05015 0.52781 0.3569 0.0
H1434 H 0.16704 0.61586 0.3124 0.0
H1435 H 0.15365 0.62006 0.22789 0.0
H1436 H 0.07219 0.52834 0.23791 0.0
C1437 C 0.10207 0.51668 0.42594 0.0
C1438 C 0.12258 0.53352 0.46456 0.0
C1439 C 0.14647 0.56455 0.45527 0.0
C1440 C 0.1502 0.57825 0.40946 0.0
C1441 C 0.1296 0.56107 0.37234 0.0
C1442 C 0.1057 0.53103 0.38053 0.0
C1443 C 0.08628 0.51764 0.33508 0.0
C1444 C 0.08952 0.49035 0.31691 0.0
C1445 C 0.05204 0.50785 0.34354 0.0
C1446 C 0.10183 0.54511 0.30068 0.0
C1447 C 0.12756 0.56965 0.32212 0.0
C1448 C 0.14662 0.59675 0.29592 0.0
C1449 C 0.13892 0.59895 0.24752 0.0
C1450 C 0.11176 0.57468 0.22536 0.0
C1451 C 0.09314 0.54746 0.25303 0.0
loop_
_geom_bond_atom_site_label_1
_geom_bond_atom_site_label_2
_geom_bond_distance
_geom_bond_site_symmetry_2
_ccdc_geom_bond_type
C0 Eu1 2.835 . S
C0 C2 1.500 . S
C0 O20 1.257 . S
C0 O21 1.260 . S
Eu1 C0 2.835 . S
Eu1 O20 2.473 . S
Eu1 O21 2.480 . S
Eu1 O22 2.430 . S
Eu1 O23 2.670 . S
Eu1 O24 2.394 . S
Eu1 O29 2.355 . S
Eu1 O31 2.374 . S
C2 C0 1.500 . S
C2 C3 1.377 . S
C2 C7 1.377 . S
C3 C2 1.377 . S
C3 C4 1.395 . S
C3 H32 0.931 . S
C4 C3 1.395 . S
C4 C5 1.383 . S
C4 H33 0.931 . S
C5 C4 1.383 . S
C5 C6 1.394 . S
C6 C5 1.394 . S
C6 C7 1.378 . S
C6 H34 0.931 . S
C7 C2 1.377 . S
C7 C6 1.378 . S
C7 H35 0.931 . S
C8 O22 1.259 . S
C8 O23 1.270 . S
C9 O24 1.251 . S
C9 O25 1.251 . S
C10 Eu11 2.835 . S
C10 C12 1.500 . S
C10 O26 1.257 . S
C10 O27 1.260 . S
Eu11 C10 2.835 . S
Eu11 O23 2.355 . S
Eu11 O25 2.374 . S
Eu11 O26 2.473 . S
Eu11 O27 2.480 . S
Eu11 O28 2.430 . S
Eu11 O29 2.670 . S
Eu11 O30 2.394 . S
C12 C10 1.500 . S
C12 C13 1.377 . S
C12 C17 1.377 . S
C13 C12 1.377 . S
C13 C14 1.395 . S
C13 H36 0.931 . S
C14 C13 1.395 . S
C14 C15 1.383 . S
C14 H37 0.931 . S
C15 C14 1.383 . S
C15 C16 1.394 . S
C16 C15 1.394 . S
C16 C17 1.378 . S
C16 H38 0.931 . S
C17 C12 1.377 . S
C17 C16 1.378 . S
C17 H39 0.931 . S
C18 O28 1.259 . S
C18 O29 1.270 . S
C19 O30 1.251 . S
C19 O31 1.251 . S
O20 C0 1.257 . S
O20 Eu1 2.473 . S
O21 C0 1.260 . S
O21 Eu1 2.480 . S
O22 Eu1 2.430 . S
O22 C8 1.259 . S
O23 Eu1 2.670 . S
O23 C8 1.270 . S
O23 Eu11 2.355 . S
O24 Eu1 2.394 . S
O24 C9 1.251 . S
O25 C9 1.251 . S
O25 Eu11 2.374 . S
O26 C10 1.257 . S
O26 Eu11 2.473 . S
O27 C10 1.260 . S
O27 Eu11 2.480 . S
O28 Eu11 2.430 . S
O28 C18 1.259 . S
O29 Eu1 2.355 . S
O29 Eu11 2.670 . S
O29 C18 1.270 . S
O30 Eu11 2.394 . S
O30 C19 1.251 . S
O31 Eu1 2.374 . S
O31 C19 1.251 . S
H32 C3 0.931 . S
H33 C4 0.931 . S
H34 C6 0.931 . S
H35 C7 0.931 . S
H36 C13 0.931 . S
H37 C14 0.931 . S
H38 C16 0.931 . S
H39 C17 0.931 . S
C40 Eu41 2.835 . S
C40 C42 1.500 . S
C40 O60 1.257 . S
C40 O61 1.260 . S
Eu41 C40 2.835 . S
Eu41 O60 2.473 . S
Eu41 O61 2.480 . S
Eu41 O62 2.430 . S
Eu41 O63 2.670 . S
Eu41 O64 2.394 . S
Eu41 O69 2.355 . S
Eu41 O71 2.374 . S
C42 C40 1.500 . S
C42 C43 1.377 . S
C42 C47 1.377 . S
C43 C42 1.377 . S
C43 C44 1.395 . S
C43 H72 0.931 . S
C44 C43 1.395 . S
C44 C45 1.383 . S
C44 H73 0.931 . S
C45 C44 1.383 . S
C45 C46 1.394 . S
C46 C45 1.394 . S
C46 C47 1.378 . S
C46 H74 0.931 . S
C47 C42 1.377 . S
C47 C46 1.378 . S
C47 H75 0.931 . S
C48 O62 1.259 . S
C48 O63 1.270 . S
C49 O64 1.251 . S
C49 O65 1.251 . S
C50 Eu51 2.835 . S
C50 C52 1.500 . S
C50 O66 1.257 . S
C50 O67 1.260 . S
Eu51 C50 2.835 . S
Eu51 O63 2.355 . S
Eu51 O65 2.374 . S
Eu51 O66 2.473 . S
Eu51 O67 2.480 . S
Eu51 O68 2.430 . S
Eu51 O69 2.670 . S
Eu51 O70 2.394 . S
C52 C50 1.500 . S
C52 C53 1.377 . S
C52 C57 1.377 . S
C53 C52 1.377 . S
C53 C54 1.395 . S
C53 H76 0.931 . S
C54 C53 1.395 . S
C54 C55 1.383 . S
C54 H77 0.931 . S
C55 C54 1.383 . S
C55 C56 1.394 . S
C56 C55 1.394 . S
C56 C57 1.378 . S
C56 H78 0.931 . S
C57 C52 1.377 . S
C57 C56 1.378 . S
C57 H79 0.931 . S
C58 O68 1.259 . S
C58 O69 1.270 . S
C59 O70 1.251 . S
C59 O71 1.251 . S
O60 C40 1.257 . S
O60 Eu41 2.473 . S
O61 C40 1.260 . S
O61 Eu41 2.480 . S
O62 Eu41 2.430 . S
O62 C48 1.259 . S
O63 Eu41 2.670 . S
O63 C48 1.270 . S
O63 Eu51 2.355 . S
O64 Eu41 2.394 . S
O64 C49 1.251 . S
O65 C49 1.251 . S
O65 Eu51 2.374 . S
O66 C50 1.257 . S
O66 Eu51 2.473 . S
O67 C50 1.260 . S
O67 Eu51 2.480 . S
O68 Eu51 2.430 . S
O68 C58 1.259 . S
O69 Eu41 2.355 . S
O69 Eu51 2.670 . S
O69 C58 1.270 . S
O70 Eu51 2.394 . S
O70 C59 1.251 . S
O71 Eu41 2.374 . S
O71 C59 1.251 . S
H72 C43 0.931 . S
H73 C44 0.931 . S
H74 C46 0.931 . S
H75 C47 0.931 . S
H76 C53 0.931 . S
H77 C54 0.931 . S
H78 C56 0.931 . S
H79 C57 0.931 . S
C80 Eu81 2.835 . S
C80 C82 1.500 . S
C80 O100 1.257 . S
C80 O101 1.260 . S
Eu81 C80 2.835 . S
Eu81 O100 2.473 . S
Eu81 O101 2.480 . S
Eu81 O102 2.430 . S
Eu81 O103 2.670 . S
Eu81 O104 2.394 . S
Eu81 O109 2.355 . S
Eu81 O111 2.374 . S
C82 C80 1.500 . S
C82 C83 1.377 . S
C82 C87 1.377 . S
C83 C82 1.377 . S
C83 C84 1.395 . S
C83 H112 0.931 . S
C84 C83 1.395 . S
C84 C85 1.383 . S
C84 H113 0.931 . S
C85 C84 1.383 . S
C85 C86 1.394 . S
C86 C85 1.394 . S
C86 C87 1.378 . S
C86 H114 0.931 . S
C87 C82 1.377 . S
C87 C86 1.378 . S
C87 H115 0.931 . S
C88 O102 1.259 . S
C88 O103 1.270 . S
C89 O104 1.251 . S
C89 O105 1.251 . S
C90 Eu91 2.835 1_554 S
C90 C92 1.500 . S
C90 O106 1.257 1_554 S
C90 O107 1.260 1_554 S
Eu91 C90 2.835 1_556 S
Eu91 O103 2.355 . S
Eu91 O105 2.374 . S
Eu91 O106 2.473 . S
Eu91 O107 2.480 . S
Eu91 O108 2.430 . S
Eu91 O109 2.670 . S
Eu91 O110 2.394 . S
C92 C90 1.500 . S
C92 C93 1.377 . S
C92 C97 1.377 . S
C93 C92 1.377 . S
C93 C94 1.395 . S
C93 H116 0.931 . S
C94 C93 1.395 . S
C94 C95 1.383 . S
C94 H117 0.931 . S
C95 C94 1.383 . S
C95 C96 1.394 . S
C96 C95 1.394 . S
C96 C97 1.378 . S
C96 H118 0.931 . S
C97 C92 1.377 . S
C97 C96 1.378 . S
C97 H119 0.931 . S
C98 O108 1.259 . S
C98 O109 1.270 . S
C99 O110 1.251 . S
C99 O111 1.251 . S
O100 C80 1.257 . S
O100 Eu81 2.473 . S
O101 C80 1.260 . S
O101 Eu81 2.480 . S
O102 Eu81 2.430 . S
O102 C88 1.259 . S
O103 Eu81 2.670 . S
O103 C88 1.270 . S
O103 Eu91 2.355 . S
O104 Eu81 2.394 . S
O104 C89 1.251 . S
O105 C89 1.251 . S
O105 Eu91 2.374 . S
O106 C90 1.257 1_556 S
O106 Eu91 2.473 . S
O107 C90 1.260 1_556 S
O107 Eu91 2.480 . S
O108 Eu91 2.430 . S
O108 C98 1.259 . S
O109 Eu81 2.355 . S
O109 Eu91 2.670 . S
O109 C98 1.270 . S
O110 Eu91 2.394 . S
O110 C99 1.251 . S
O111 Eu81 2.374 . S
O111 C99 1.251 . S
H112 C83 0.931 . S
H113 C84 0.931 . S
H114 C86 0.931 . S
H115 C87 0.931 . S
H116 C93 0.931 . S
H117 C94 0.931 . S
H118 C96 0.931 . S
H119 C97 0.931 . S
C120 Eu121 2.835 . S
C120 C122 1.500 . S
C120 O140 1.257 . S
C120 O141 1.260 . S
Eu121 C120 2.835 . S
Eu121 O140 2.473 . S
Eu121 O141 2.480 . S
Eu121 O142 2.430 . S
Eu121 O143 2.670 . S
Eu121 O144 2.394 . S
Eu121 O149 2.355 . S
Eu121 O151 2.374 . S
C122 C120 1.500 . S
C122 C123 1.377 . S
C122 C127 1.377 . S
C123 C122 1.377 . S
C123 C124 1.395 . S
C123 H152 0.931 . S
C124 C123 1.395 . S
C124 C125 1.383 . S
C124 H153 0.931 . S
C125 C124 1.383 . S
C125 C126 1.394 . S
C126 C125 1.394 . S
C126 C127 1.378 . S
C126 H154 0.931 . S
C127 C122 1.377 . S
C127 C126 1.378 . S
C127 H155 0.931 . S
C128 O142 1.259 . S
C128 O143 1.270 . S
C129 O144 1.251 . S
C129 O145 1.251 . S
C130 Eu131 2.835 . S
C130 C132 1.500 . S
C130 O146 1.257 . S
C130 O147 1.260 . S
Eu131 C130 2.835 . S
Eu131 O143 2.355 . S
Eu131 O145 2.374 . S
Eu131 O146 2.473 . S
Eu131 O147 2.480 . S
Eu131 O148 2.430 . S
Eu131 O149 2.670 . S
Eu131 O150 2.394 . S
C132 C130 1.500 . S
C132 C133 1.377 . S
C132 C137 1.377 . S
C133 C132 1.377 . S
C133 C134 1.395 . S
C133 H156 0.931 . S
C134 C133 1.395 . S
C134 C135 1.383 . S
C134 H157 0.931 . S
C135 C134 1.383 . S
C135 C136 1.394 . S
C136 C135 1.394 . S
C136 C137 1.378 . S
C136 H158 0.931 . S
C137 C132 1.377 . S
C137 C136 1.378 . S
C137 H159 0.931 . S
C138 O148 1.259 . S
C138 O149 1.270 . S
C139 O150 1.251 . S
C139 O151 1.251 . S
O140 C120 1.257 . S
O140 Eu121 2.473 . S
O141 C120 1.260 . S
O141 Eu121 2.480 . S
O142 Eu121 2.430 . S
O142 C128 1.259 . S
O143 Eu121 2.670 . S
O143 C128 1.270 . S
O143 Eu131 2.355 . S
O144 Eu121 2.394 . S
O144 C129 1.251 . S
O145 C129 1.251 . S
O145 Eu131 2.374 . S
O146 C130 1.257 . S
O146 Eu131 2.473 . S
O147 C130 1.260 . S
O147 Eu131 2.480 . S
O148 Eu131 2.430 . S
O148 C138 1.259 . S
O149 Eu121 2.355 . S
O149 Eu131 2.670 . S
O149 C138 1.270 . S
O150 Eu131 2.394 . S
O150 C139 1.251 . S
O151 Eu121 2.374 . S
O151 C139 1.251 . S
H152 C123 0.931 . S
H153 C124 0.931 . S
H154 C126 0.931 . S
H155 C127 0.931 . S
H156 C133 0.931 . S
H157 C134 0.931 . S
H158 C136 0.931 . S
H159 C137 0.931 . S
C160 Eu161 2.835 . S
C160 C162 1.500 . S
C160 O180 1.257 . S
C160 O181 1.260 . S
Eu161 C160 2.835 . S
Eu161 O180 2.473 . S
Eu161 O181 2.480 . S
Eu161 O182 2.430 . S
Eu161 O183 2.670 . S
Eu161 O184 2.394 . S
Eu161 O189 2.355 . S
Eu161 O191 2.374 . S
C162 C160 1.500 . S
C162 C163 1.377 . S
C162 C167 1.377 . S
C163 C162 1.377 . S
C163 C164 1.395 . S
C163 H192 0.931 . S
C164 C163 1.395 . S
C164 C165 1.383 . S
C164 H193 0.931 . S
C165 C164 1.383 . S
C165 C166 1.394 . S
C166 C165 1.394 . S
C166 C167 1.378 . S
C166 H194 0.931 . S
C167 C162 1.377 . S
C167 C166 1.378 . S
C167 H195 0.931 . S
C168 O182 1.259 . S
C168 O183 1.270 . S
C169 O184 1.251 . S
C169 O185 1.251 . S
C170 Eu171 2.835 . S
C170 C172 1.500 . S
C170 O186 1.257 . S
C170 O187 1.260 . S
Eu171 C170 2.835 . S
Eu171 O183 2.355 . S
Eu171 O185 2.374 . S
Eu171 O186 2.473 . S
Eu171 O187 2.480 . S
Eu171 O188 2.430 . S
Eu171 O189 2.670 . S
Eu171 O190 2.394 . S
C172 C170 1.500 . S
C172 C173 1.377 . S
C172 C177 1.377 . S
C173 C172 1.377 . S
C173 C174 1.395 . S
C173 H196 0.931 . S
C174 C173 1.395 . S
C174 C175 1.383 . S
C174 H197 0.931 . S
C175 C174 1.383 . S
C175 C176 1.394 . S
C176 C175 1.394 . S
C176 C177 1.378 . S
C176 H198 0.931 . S
C177 C172 1.377 . S
C177 C176 1.378 . S
C177 H199 0.931 . S
C178 O188 1.259 . S
C178 O189 1.270 . S
C179 O190 1.251 . S
C179 O191 1.251 . S
O180 C160 1.257 . S
O180 Eu161 2.473 . S
O181 C160 1.260 . S
O181 Eu161 2.480 . S
O182 Eu161 2.430 . S
O182 C168 1.259 . S
O183 Eu161 2.670 . S
O183 C168 1.270 . S
O183 Eu171 2.355 . S
O184 Eu161 2.394 . S
O184 C169 1.251 . S
O185 C169 1.251 . S
O185 Eu171 2.374 . S
O186 C170 1.257 . S
O186 Eu171 2.473 . S
O187 C170 1.260 . S
O187 Eu171 2.480 . S
O188 Eu171 2.430 . S
O188 C178 1.259 . S
O189 Eu161 2.355 . S
O189 Eu171 2.670 . S
O189 C178 1.270 . S
O190 Eu171 2.394 . S
O190 C179 1.251 . S
O191 Eu161 2.374 . S
O191 C179 1.251 . S
H192 C163 0.931 . S
H193 C164 0.931 . S
H194 C166 0.931 . S
H195 C167 0.931 . S
H196 C173 0.931 . S
H197 C174 0.931 . S
H198 C176 0.931 . S
H199 C177 0.931 . S
C200 Eu201 2.835 . S
C200 C202 1.500 . S
C200 O220 1.257 . S
C200 O221 1.260 . S
Eu201 C200 2.835 . S
Eu201 O220 2.473 . S
Eu201 O221 2.480 . S
Eu201 O222 2.430 . S
Eu201 O223 2.670 . S
Eu201 O224 2.394 . S
Eu201 O229 2.355 . S
Eu201 O231 2.374 . S
C202 C200 1.500 . S
C202 C203 1.377 . S
C202 C207 1.377 . S
C203 C202 1.377 . S
C203 C204 1.395 . S
C203 H232 0.931 . S
C204 C203 1.395 . S
C204 C205 1.383 . S
C204 H233 0.931 . S
C205 C204 1.383 . S
C205 C206 1.394 . S
C206 C205 1.394 . S
C206 C207 1.378 . S
C206 H234 0.931 . S
C207 C202 1.377 . S
C207 C206 1.378 . S
C207 H235 0.931 . S
C208 O222 1.259 . S
C208 O223 1.270 . S
C209 O224 1.251 . S
C209 O225 1.251 . S
C210 Eu211 2.835 1_554 S
C210 C212 1.500 . S
C210 O226 1.257 1_554 S
C210 O227 1.260 1_554 S
Eu211 C210 2.835 1_556 S
Eu211 O223 2.355 . S
Eu211 O225 2.374 . S
Eu211 O226 2.473 . S
Eu211 O227 2.480 . S
Eu211 O228 2.430 . S
Eu211 O229 2.670 . S
Eu211 O230 2.394 . S
C212 C210 1.500 . S
C212 C213 1.377 . S
C212 C217 1.377 . S
C213 C212 1.377 . S
C213 C214 1.395 . S
C213 H236 0.931 . S
C214 C213 1.395 . S
C214 C215 1.383 . S
C214 H237 0.931 . S
C215 C214 1.383 . S
C215 C216 1.394 . S
C216 C215 1.394 . S
C216 C217 1.378 . S
C216 H238 0.931 . S
C217 C212 1.377 . S
C217 C216 1.378 . S
C217 H239 0.931 . S
C218 O228 1.259 . S
C218 O229 1.270 . S
C219 O230 1.251 . S
C219 O231 1.251 . S
O220 C200 1.257 . S
O220 Eu201 2.473 . S
O221 C200 1.260 . S
O221 Eu201 2.480 . S
O222 Eu201 2.430 . S
O222 C208 1.259 . S
O223 Eu201 2.670 . S
O223 C208 1.270 . S
O223 Eu211 2.355 . S
O224 Eu201 2.394 . S
O224 C209 1.251 . S
O225 C209 1.251 . S
O225 Eu211 2.374 . S
O226 C210 1.257 1_556 S
O226 Eu211 2.473 . S
O227 C210 1.260 1_556 S
O227 Eu211 2.480 . S
O228 Eu211 2.430 . S
O228 C218 1.259 . S
O229 Eu201 2.355 . S
O229 Eu211 2.670 . S
O229 C218 1.270 . S
O230 Eu211 2.394 . S
O230 C219 1.251 . S
O231 Eu201 2.374 . S
O231 C219 1.251 . S
H232 C203 0.931 . S
H233 C204 0.931 . S
H234 C206 0.931 . S
H235 C207 0.931 . S
H236 C213 0.931 . S
H237 C214 0.931 . S
H238 C216 0.931 . S
H239 C217 0.931 . S
C240 Eu241 2.835 . S
C240 C242 1.500 . S
C240 O260 1.257 . S
C240 O261 1.260 . S
Eu241 C240 2.835 . S
Eu241 O260 2.473 . S
Eu241 O261 2.480 . S
Eu241 O262 2.430 . S
Eu241 O263 2.670 . S
Eu241 O264 2.394 . S
Eu241 O269 2.355 . S
Eu241 O271 2.374 . S
C242 C240 1.500 . S
C242 C243 1.377 . S
C242 C247 1.377 . S
C243 C242 1.377 . S
C243 C244 1.395 . S
C243 H272 0.931 . S
C244 C243 1.395 . S
C244 C245 1.383 . S
C244 H273 0.931 . S
C245 C244 1.383 . S
C245 C246 1.394 . S
C246 C245 1.394 . S
C246 C247 1.378 . S
C246 H274 0.931 . S
C247 C242 1.377 . S
C247 C246 1.378 . S
C247 H275 0.931 . S
C248 O262 1.259 . S
C248 O263 1.270 . S
C249 O264 1.251 . S
C249 O265 1.251 . S
C250 Eu251 2.835 . S
C250 C252 1.500 . S
C250 O266 1.257 . S
C250 O267 1.260 . S
Eu251 C250 2.835 . S
Eu251 O263 2.355 . S
Eu251 O265 2.374 . S
Eu251 O266 2.473 . S
Eu251 O267 2.480 . S
Eu251 O268 2.430 . S
Eu251 O269 2.670 . S
Eu251 O270 2.394 . S
C252 C250 1.500 . S
C252 C253 1.377 . S
C252 C257 1.377 . S
C253 C252 1.377 . S
C253 C254 1.395 . S
C253 H276 0.931 . S
C254 C253 1.395 . S
C254 C255 1.383 . S
C254 H277 0.931 . S
C255 C254 1.383 . S
C255 C256 1.394 . S
C256 C255 1.394 . S
C256 C257 1.378 . S
C256 H278 0.931 . S
C257 C252 1.377 . S
C257 C256 1.378 . S
C257 H279 0.931 . S
C258 O268 1.259 . S
C258 O269 1.270 . S
C259 O270 1.251 . S
C259 O271 1.251 . S
O260 C240 1.257 . S
O260 Eu241 2.473 . S
O261 C240 1.260 . S
O261 Eu241 2.480 . S
O262 Eu241 2.430 . S
O262 C248 1.259 . S
O263 Eu241 2.670 . S
O263 C248 1.270 . S
O263 Eu251 2.355 . S
O264 Eu241 2.394 . S
O264 C249 1.251 . S
O265 C249 1.251 . S
O265 Eu251 2.374 . S
O266 C250 1.257 . S
O266 Eu251 2.473 . S
O267 C250 1.260 . S
O267 Eu251 2.480 . S
O268 Eu251 2.430 . S
O268 C258 1.259 . S
O269 Eu241 2.355 . S
O269 Eu251 2.670 . S
O269 C258 1.270 . S
O270 Eu251 2.394 . S
O270 C259 1.251 . S
O271 Eu241 2.374 . S
O271 C259 1.251 . S
H272 C243 0.931 . S
H273 C244 0.931 . S
H274 C246 0.931 . S
H275 C247 0.931 . S
H276 C253 0.931 . S
H277 C254 0.931 . S
H278 C256 0.931 . S
H279 C257 0.931 . S
C280 Eu281 2.835 . S
C280 C282 1.500 . S
C280 O300 1.257 . S
C280 O301 1.260 . S
Eu281 C280 2.835 . S
Eu281 O300 2.473 . S
Eu281 O301 2.480 . S
Eu281 O302 2.430 . S
Eu281 O303 2.670 . S
Eu281 O304 2.394 . S
Eu281 O309 2.355 . S
Eu281 O311 2.374 . S
C282 C280 1.500 . S
C282 C283 1.377 . S
C282 C287 1.377 . S
C283 C282 1.377 . S
C283 C284 1.395 . S
C283 H312 0.931 . S
C284 C283 1.395 . S
C284 C285 1.383 . S
C284 H313 0.931 . S
C285 C284 1.383 . S
C285 C286 1.394 . S
C286 C285 1.394 . S
C286 C287 1.378 . S
C286 H314 0.931 . S
C287 C282 1.377 . S
C287 C286 1.378 . S
C287 H315 0.931 . S
C288 O302 1.259 . S
C288 O303 1.270 . S
C289 O304 1.251 . S
C289 O305 1.251 . S
C290 Eu291 2.835 . S
C290 C292 1.500 . S
C290 O306 1.257 . S
C290 O307 1.260 . S
Eu291 C290 2.835 . S
Eu291 O303 2.355 . S
Eu291 O305 2.374 . S
Eu291 O306 2.473 . S
Eu291 O307 2.480 . S
Eu291 O308 2.430 . S
Eu291 O309 2.670 . S
Eu291 O310 2.394 . S
C292 C290 1.500 . S
C292 C293 1.377 . S
C292 C297 1.377 . S
C293 C292 1.377 . S
C293 C294 1.395 . S
C293 H316 0.931 . S
C294 C293 1.395 . S
C294 C295 1.383 . S
C294 H317 0.931 . S
C295 C294 1.383 . S
C295 C296 1.394 . S
C296 C295 1.394 . S
C296 C297 1.378 . S
C296 H318 0.931 . S
C297 C292 1.377 . S
C297 C296 1.378 . S
C297 H319 0.931 . S
C298 O308 1.259 . S
C298 O309 1.270 . S
C299 O310 1.251 . S
C299 O311 1.251 . S
O300 C280 1.257 . S
O300 Eu281 2.473 . S
O301 C280 1.260 . S
O301 Eu281 2.480 . S
O302 Eu281 2.430 . S
O302 C288 1.259 . S
O303 Eu281 2.670 . S
O303 C288 1.270 . S
O303 Eu291 2.355 . S
O304 Eu281 2.394 . S
O304 C289 1.251 . S
O305 C289 1.251 . S
O305 Eu291 2.374 . S
O306 C290 1.257 . S
O306 Eu291 2.473 . S
O307 C290 1.260 . S
O307 Eu291 2.480 . S
O308 Eu291 2.430 . S
O308 C298 1.259 . S
O309 Eu281 2.355 . S
O309 Eu291 2.670 . S
O309 C298 1.270 . S
O310 Eu291 2.394 . S
O310 C299 1.251 . S
O311 Eu281 2.374 . S
O311 C299 1.251 . S
H312 C283 0.931 . S
H313 C284 0.931 . S
H314 C286 0.931 . S
H315 C287 0.931 . S
H316 C293 0.931 . S
H317 C294 0.931 . S
H318 C296 0.931 . S
H319 C297 0.931 . S
C320 Eu321 2.835 . S
C320 C322 1.500 . S
C320 O340 1.257 . S
C320 O341 1.260 . S
Eu321 C320 2.835 . S
Eu321 O340 2.473 . S
Eu321 O341 2.480 . S
Eu321 O342 2.430 . S
Eu321 O343 2.670 . S
Eu321 O344 2.394 . S
Eu321 O349 2.355 . S
Eu321 O351 2.374 . S
C322 C320 1.500 . S
C322 C323 1.377 . S
C322 C327 1.377 . S
C323 C322 1.377 . S
C323 C324 1.395 . S
C323 H352 0.931 . S
C324 C323 1.395 . S
C324 C325 1.383 . S
C324 H353 0.931 . S
C325 C324 1.383 . S
C325 C326 1.394 . S
C326 C325 1.394 . S
C326 C327 1.378 . S
C326 H354 0.931 . S
C327 C322 1.377 . S
C327 C326 1.378 . S
C327 H355 0.931 . S
C328 O342 1.259 . S
C328 O343 1.270 . S
C329 O344 1.251 . S
C329 O345 1.251 . S
C330 Eu331 2.835 1_556 S
C330 C332 1.500 . S
C330 O346 1.257 1_556 S
C330 O347 1.260 1_556 S
Eu331 C330 2.835 1_554 S
Eu331 O343 2.355 . S
Eu331 O345 2.374 . S
Eu331 O346 2.473 . S
Eu331 O347 2.480 . S
Eu331 O348 2.430 . S
Eu331 O349 2.670 . S
Eu331 O350 2.394 . S
C332 C330 1.500 . S
C332 C333 1.377 . S
C332 C337 1.377 . S
C333 C332 1.377 . S
C333 C334 1.395 . S
C333 H356 0.931 . S
C334 C333 1.395 . S
C334 C335 1.383 . S
C334 H357 0.931 . S
C335 C334 1.383 . S
C335 C336 1.394 . S
C336 C335 1.394 . S
C336 C337 1.378 . S
C336 H358 0.931 . S
C337 C332 1.377 . S
C337 C336 1.378 . S
C337 H359 0.931 . S
C338 O348 1.259 . S
C338 O349 1.270 . S
C339 O350 1.251 . S
C339 O351 1.251 . S
O340 C320 1.257 . S
O340 Eu321 2.473 . S
O341 C320 1.260 . S
O341 Eu321 2.480 . S
O342 Eu321 2.430 . S
O342 C328 1.259 . S
O343 Eu321 2.670 . S
O343 C328 1.270 . S
O343 Eu331 2.355 . S
O344 Eu321 2.394 . S
O344 C329 1.251 . S
O345 C329 1.251 . S
O345 Eu331 2.374 . S
O346 C330 1.257 1_554 S
O346 Eu331 2.473 . S
O347 C330 1.260 1_554 S
O347 Eu331 2.480 . S
O348 Eu331 2.430 . S
O348 C338 1.259 . S
O349 Eu321 2.355 . S
O349 Eu331 2.670 . S
O349 C338 1.270 . S
O350 Eu331 2.394 . S
O350 C339 1.251 . S
O351 Eu321 2.374 . S
O351 C339 1.251 . S
H352 C323 0.931 . S
H353 C324 0.931 . S
H354 C326 0.931 . S
H355 C327 0.931 . S
H356 C333 0.931 . S
H357 C334 0.931 . S
H358 C336 0.931 . S
H359 C337 0.931 . S
C360 Eu361 2.835 . S
C360 C362 1.500 . S
C360 O380 1.257 . S
C360 O381 1.260 . S
Eu361 C360 2.835 . S
Eu361 O380 2.473 . S
Eu361 O381 2.480 . S
Eu361 O382 2.430 . S
Eu361 O383 2.670 . S
Eu361 O384 2.394 . S
Eu361 O389 2.355 . S
Eu361 O391 2.374 . S
C362 C360 1.500 . S
C362 C363 1.377 . S
C362 C367 1.377 . S
C363 C362 1.377 . S
C363 C364 1.395 . S
C363 H392 0.931 . S
C364 C363 1.395 . S
C364 C365 1.383 . S
C364 H393 0.931 . S
C365 C364 1.383 . S
C365 C366 1.394 . S
C366 C365 1.394 . S
C366 C367 1.378 . S
C366 H394 0.931 . S
C367 C362 1.377 . S
C367 C366 1.378 . S
C367 H395 0.931 . S
C368 O382 1.259 . S
C368 O383 1.270 . S
C369 O384 1.251 . S
C369 O385 1.251 . S
C370 Eu371 2.835 . S
C370 C372 1.500 . S
C370 O386 1.257 . S
C370 O387 1.260 . S
Eu371 C370 2.835 . S
Eu371 O383 2.355 . S
Eu371 O385 2.374 . S
Eu371 O386 2.473 . S
Eu371 O387 2.480 . S
Eu371 O388 2.430 . S
Eu371 O389 2.670 . S
Eu371 O390 2.394 . S
C372 C370 1.500 . S
C372 C373 1.377 . S
C372 C377 1.377 . S
C373 C372 1.377 . S
C373 C374 1.395 . S
C373 H396 0.931 . S
C374 C373 1.395 . S
C374 C375 1.383 . S
C374 H397 0.931 . S
C375 C374 1.383 . S
C375 C376 1.394 . S
C376 C375 1.394 . S
C376 C377 1.378 . S
C376 H398 0.931 . S
C377 C372 1.377 . S
C377 C376 1.378 . S
C377 H399 0.931 . S
C378 O388 1.259 . S
C378 O389 1.270 . S
C379 O390 1.251 . S
C379 O391 1.251 . S
O380 C360 1.257 . S
O380 Eu361 2.473 . S
O381 C360 1.260 . S
O381 Eu361 2.480 . S
O382 Eu361 2.430 . S
O382 C368 1.259 . S
O383 Eu361 2.670 . S
O383 C368 1.270 . S
O383 Eu371 2.355 . S
O384 Eu361 2.394 . S
O384 C369 1.251 . S
O385 C369 1.251 . S
O385 Eu371 2.374 . S
O386 C370 1.257 . S
O386 Eu371 2.473 . S
O387 C370 1.260 . S
O387 Eu371 2.480 . S
O388 Eu371 2.430 . S
O388 C378 1.259 . S
O389 Eu361 2.355 . S
O389 Eu371 2.670 . S
O389 C378 1.270 . S
O390 Eu371 2.394 . S
O390 C379 1.251 . S
O391 Eu361 2.374 . S
O391 C379 1.251 . S
H392 C363 0.931 . S
H393 C364 0.931 . S
H394 C366 0.931 . S
H395 C367 0.931 . S
H396 C373 0.931 . S
H397 C374 0.931 . S
H398 C376 0.931 . S
H399 C377 0.931 . S
C400 Eu401 2.835 . S
C400 C402 1.500 . S
C400 O420 1.257 . S
C400 O421 1.260 . S
Eu401 C400 2.835 . S
Eu401 O420 2.473 . S
Eu401 O421 2.480 . S
Eu401 O422 2.430 . S
Eu401 O423 2.670 . S
Eu401 O424 2.394 . S
Eu401 O429 2.355 . S
Eu401 O431 2.374 . S
C402 C400 1.500 . S
C402 C403 1.377 . S
C402 C407 1.377 . S
C403 C402 1.377 . S
C403 C404 1.395 . S
C403 H432 0.931 . S
C404 C403 1.395 . S
C404 C405 1.383 . S
C404 H433 0.931 . S
C405 C404 1.383 . S
C405 C406 1.394 . S
C406 C405 1.394 . S
C406 C407 1.378 . S
C406 H434 0.931 . S
C407 C402 1.377 . S
C407 C406 1.378 . S
C407 H435 0.931 . S
C408 O422 1.259 . S
C408 O423 1.270 . S
C409 O424 1.251 . S
C409 O425 1.251 . S
C410 Eu411 2.835 . S
C410 C412 1.500 . S
C410 O426 1.257 . S
C410 O427 1.260 . S
Eu411 C410 2.835 . S
Eu411 O423 2.355 . S
Eu411 O425 2.374 . S
Eu411 O426 2.473 . S
Eu411 O427 2.480 . S
Eu411 O428 2.430 . S
Eu411 O429 2.670 . S
Eu411 O430 2.394 . S
C412 C410 1.500 . S
C412 C413 1.377 . S
C412 C417 1.377 . S
C413 C412 1.377 . S
C413 C414 1.395 . S
C413 H436 0.931 . S
C414 C413 1.395 . S
C414 C415 1.383 . S
C414 H437 0.931 . S
C415 C414 1.383 . S
C415 C416 1.394 . S
C416 C415 1.394 . S
C416 C417 1.378 . S
C416 H438 0.931 . S
C417 C412 1.377 . S
C417 C416 1.378 . S
C417 H439 0.931 . S
C418 O428 1.259 . S
C418 O429 1.270 . S
C419 O430 1.251 . S
C419 O431 1.251 . S
O420 C400 1.257 . S
O420 Eu401 2.473 . S
O421 C400 1.260 . S
O421 Eu401 2.480 . S
O422 Eu401 2.430 . S
O422 C408 1.259 . S
O423 Eu401 2.670 . S
O423 C408 1.270 . S
O423 Eu411 2.355 . S
O424 Eu401 2.394 . S
O424 C409 1.251 . S
O425 C409 1.251 . S
O425 Eu411 2.374 . S
O426 C410 1.257 . S
O426 Eu411 2.473 . S
O427 C410 1.260 . S
O427 Eu411 2.480 . S
O428 Eu411 2.430 . S
O428 C418 1.259 . S
O429 Eu401 2.355 . S
O429 Eu411 2.670 . S
O429 C418 1.270 . S
O430 Eu411 2.394 . S
O430 C419 1.251 . S
O431 Eu401 2.374 . S
O431 C419 1.251 . S
H432 C403 0.931 . S
H433 C404 0.931 . S
H434 C406 0.931 . S
H435 C407 0.931 . S
H436 C413 0.931 . S
H437 C414 0.931 . S
H438 C416 0.931 . S
H439 C417 0.931 . S
C440 Eu441 2.835 . S
C440 C442 1.500 . S
C440 O460 1.257 . S
C440 O461 1.260 . S
Eu441 C440 2.835 . S
Eu441 O460 2.473 . S
Eu441 O461 2.480 . S
Eu441 O462 2.430 . S
Eu441 O463 2.670 . S
Eu441 O464 2.394 . S
Eu441 O469 2.355 . S
Eu441 O471 2.374 . S
C442 C440 1.500 . S
C442 C443 1.377 . S
C442 C447 1.377 . S
C443 C442 1.377 . S
C443 C444 1.395 . S
C443 H472 0.931 . S
C444 C443 1.395 . S
C444 C445 1.383 . S
C444 H473 0.931 . S
C445 C444 1.383 . S
C445 C446 1.394 . S
C446 C445 1.394 . S
C446 C447 1.378 . S
C446 H474 0.931 . S
C447 C442 1.377 . S
C447 C446 1.378 . S
C447 H475 0.931 . S
C448 O462 1.259 . S
C448 O463 1.270 . S
C449 O464 1.251 . S
C449 O465 1.251 . S
C450 Eu451 2.835 1_556 S
C450 C452 1.500 . S
C450 O466 1.257 1_556 S
C450 O467 1.260 1_556 S
Eu451 C450 2.835 1_554 S
Eu451 O463 2.355 . S
Eu451 O465 2.374 . S
Eu451 O466 2.473 . S
Eu451 O467 2.480 . S
Eu451 O468 2.430 . S
Eu451 O469 2.670 . S
Eu451 O470 2.394 . S
C452 C450 1.500 . S
C452 C453 1.377 . S
C452 C457 1.377 . S
C453 C452 1.377 . S
C453 C454 1.395 . S
C453 H476 0.931 . S
C454 C453 1.395 . S
C454 C455 1.383 . S
C454 H477 0.931 . S
C455 C454 1.383 . S
C455 C456 1.394 . S
C456 C455 1.394 . S
C456 C457 1.378 . S
C456 H478 0.931 . S
C457 C452 1.377 . S
C457 C456 1.378 . S
C457 H479 0.931 . S
C458 O468 1.259 . S
C458 O469 1.270 . S
C459 O470 1.251 . S
C459 O471 1.251 . S
O460 C440 1.257 . S
O460 Eu441 2.473 . S
O461 C440 1.260 . S
O461 Eu441 2.480 . S
O462 Eu441 2.430 . S
O462 C448 1.259 . S
O463 Eu441 2.670 . S
O463 C448 1.270 . S
O463 Eu451 2.355 . S
O464 Eu441 2.394 . S
O464 C449 1.251 . S
O465 C449 1.251 . S
O465 Eu451 2.374 . S
O466 C450 1.257 1_554 S
O466 Eu451 2.473 . S
O467 C450 1.260 1_554 S
O467 Eu451 2.480 . S
O468 Eu451 2.430 . S
O468 C458 1.259 . S
O469 Eu441 2.355 . S
O469 Eu451 2.670 . S
O469 C458 1.270 . S
O470 Eu451 2.394 . S
O470 C459 1.251 . S
O471 Eu441 2.374 . S
O471 C459 1.251 . S
H472 C443 0.931 . S
H473 C444 0.931 . S
H474 C446 0.931 . S
H475 C447 0.931 . S
H476 C453 0.931 . S
H477 C454 0.931 . S
H478 C456 0.931 . S
H479 C457 0.931 . S
H480 C492 0.930 . S
H481 C494 0.930 . S
H482 C495 0.930 . S
H483 C499 0.959 . S
H484 C499 0.959 . S
H485 C499 0.961 . S
H486 C500 0.960 . S
H487 C500 0.961 . S
H488 C500 0.959 . S
H489 C503 0.929 . S
H490 C504 0.931 . S
H491 C506 0.930 . S
C492 H480 0.930 . S
C492 C493 1.399 . S
C492 C497 1.399 . S
C493 C492 1.399 . S
C493 C494 1.376 . S
C494 H481 0.930 . S
C494 C493 1.376 . S
C494 C495 1.388 . S
C495 H482 0.930 . S
C495 C494 1.388 . S
C495 C496 1.390 . S
C496 C495 1.390 . S
C496 C497 1.394 . S
C496 C502 1.465 . S
C497 C492 1.399 . S
C497 C496 1.394 . S
C497 C498 1.516 . S
C498 C497 1.516 . S
C498 C499 1.502 . S
C498 C500 1.561 . S
C498 C501 1.526 . S
C499 H483 0.959 . S
C499 H484 0.959 . S
C499 H485 0.961 . S
C499 C498 1.502 . S
C500 H486 0.960 . S
C500 H487 0.961 . S
C500 H488 0.959 . S
C500 C498 1.561 . S
C501 C498 1.526 . S
C501 C502 1.396 . S
C501 C506 1.390 . S
C502 C496 1.465 . S
C502 C501 1.396 . S
C502 C503 1.399 . S
C503 H489 0.929 . S
C503 C502 1.399 . S
C503 C504 1.385 . S
C504 H490 0.931 . S
C504 C503 1.385 . S
C504 C505 1.389 . S
C505 C504 1.389 . S
C505 C506 1.387 . S
C506 H491 0.930 . S
C506 C501 1.390 . S
C506 C505 1.387 . S
H507 C519 0.930 . S
H508 C521 0.930 . S
H509 C522 0.930 . S
H510 C526 0.959 . S
H511 C526 0.959 . S
H512 C526 0.961 . S
H513 C527 0.960 . S
H514 C527 0.961 . S
H515 C527 0.959 . S
H516 C530 0.929 . S
H517 C531 0.931 . S
H518 C533 0.930 . S
C519 H507 0.930 . S
C519 C520 1.399 . S
C519 C524 1.399 . S
C520 C519 1.399 . S
C520 C521 1.376 . S
C521 H508 0.930 . S
C521 C520 1.376 . S
C521 C522 1.388 . S
C522 H509 0.930 . S
C522 C521 1.388 . S
C522 C523 1.390 . S
C523 C522 1.390 . S
C523 C524 1.394 . S
C523 C529 1.465 . S
C524 C519 1.399 . S
C524 C523 1.394 . S
C524 C525 1.516 . S
C525 C524 1.516 . S
C525 C526 1.502 . S
C525 C527 1.561 . S
C525 C528 1.526 . S
C526 H510 0.959 . S
C526 H511 0.959 . S
C526 H512 0.961 . S
C526 C525 1.502 . S
C527 H513 0.960 . S
C527 H514 0.961 . S
C527 H515 0.959 . S
C527 C525 1.561 . S
C528 C525 1.526 . S
C528 C529 1.396 . S
C528 C533 1.390 . S
C529 C523 1.465 . S
C529 C528 1.396 . S
C529 C530 1.399 . S
C530 H516 0.929 . S
C530 C529 1.399 . S
C530 C531 1.385 . S
C531 H517 0.931 . S
C531 C530 1.385 . S
C531 C532 1.389 . S
C532 C531 1.389 . S
C532 C533 1.387 . S
C533 H518 0.930 . S
C533 C528 1.390 . S
C533 C532 1.387 . S
H534 C546 0.930 . S
H535 C548 0.930 . S
H536 C549 0.930 . S
H537 C553 0.959 . S
H538 C553 0.959 . S
H539 C553 0.961 . S
H540 C554 0.960 . S
H541 C554 0.961 . S
H542 C554 0.959 . S
H543 C557 0.929 . S
H544 C558 0.931 . S
H545 C560 0.930 . S
C546 H534 0.930 . S
C546 C547 1.399 . S
C546 C551 1.399 . S
C547 C546 1.399 . S
C547 C548 1.376 . S
C548 H535 0.930 . S
C548 C547 1.376 . S
C548 C549 1.388 . S
C549 H536 0.930 . S
C549 C548 1.388 . S
C549 C550 1.390 . S
C550 C549 1.390 . S
C550 C551 1.394 . S
C550 C556 1.465 . S
C551 C546 1.399 . S
C551 C550 1.394 . S
C551 C552 1.516 . S
C552 C551 1.516 . S
C552 C553 1.502 . S
C552 C554 1.561 . S
C552 C555 1.526 . S
C553 H537 0.959 . S
C553 H538 0.959 . S
C553 H539 0.961 . S
C553 C552 1.502 . S
C554 H540 0.960 . S
C554 H541 0.961 . S
C554 H542 0.959 . S
C554 C552 1.561 . S
C555 C552 1.526 . S
C555 C556 1.396 . S
C555 C560 1.390 . S
C556 C550 1.465 . S
C556 C555 1.396 . S
C556 C557 1.399 . S
C557 H543 0.929 . S
C557 C556 1.399 . S
C557 C558 1.385 . S
C558 H544 0.931 . S
C558 C557 1.385 . S
C558 C559 1.389 . S
C559 C558 1.389 . S
C559 C560 1.387 . S
C560 H545 0.930 . S
C560 C555 1.390 . S
C560 C559 1.387 . S
H561 C573 0.930 . S
H562 C575 0.930 . S
H563 C576 0.930 . S
H564 C580 0.959 . S
H565 C580 0.959 . S
H566 C580 0.961 . S
H567 C581 0.960 . S
H568 C581 0.961 . S
H569 C581 0.959 . S
H570 C584 0.929 . S
H571 C585 0.931 . S
H572 C587 0.930 . S
C573 H561 0.930 . S
C573 C574 1.399 . S
C573 C578 1.399 . S
C574 C573 1.399 . S
C574 C575 1.376 . S
C575 H562 0.930 . S
C575 C574 1.376 . S
C575 C576 1.388 . S
C576 H563 0.930 . S
C576 C575 1.388 . S
C576 C577 1.390 . S
C577 C576 1.390 . S
C577 C578 1.394 . S
C577 C583 1.465 . S
C578 C573 1.399 . S
C578 C577 1.394 . S
C578 C579 1.516 . S
C579 C578 1.516 . S
C579 C580 1.502 . S
C579 C581 1.561 . S
C579 C582 1.526 . S
C580 H564 0.959 . S
C580 H565 0.959 . S
C580 H566 0.961 . S
C580 C579 1.502 . S
C581 H567 0.960 . S
C581 H568 0.961 . S
C581 H569 0.959 . S
C581 C579 1.561 . S
C582 C579 1.526 . S
C582 C583 1.396 . S
C582 C587 1.390 . S
C583 C577 1.465 . S
C583 C582 1.396 . S
C583 C584 1.399 . S
C584 H570 0.929 . S
C584 C583 1.399 . S
C584 C585 1.385 . S
C585 H571 0.931 . S
C585 C584 1.385 . S
C585 C586 1.389 . S
C586 C585 1.389 . S
C586 C587 1.387 . S
C587 H572 0.930 . S
C587 C582 1.390 . S
C587 C586 1.387 . S
H588 C600 0.930 . S
H589 C602 0.930 . S
H590 C603 0.930 . S
H591 C607 0.959 . S
H592 C607 0.959 . S
H593 C607 0.961 . S
H594 C608 0.960 . S
H595 C608 0.961 . S
H596 C608 0.959 . S
H597 C611 0.929 . S
H598 C612 0.931 . S
H599 C614 0.930 . S
C600 H588 0.930 . S
C600 C601 1.399 . S
C600 C605 1.399 . S
C601 C600 1.399 . S
C601 C602 1.376 . S
C602 H589 0.930 . S
C602 C601 1.376 . S
C602 C603 1.388 . S
C603 H590 0.930 . S
C603 C602 1.388 . S
C603 C604 1.390 . S
C604 C603 1.390 . S
C604 C605 1.394 . S
C604 C610 1.465 . S
C605 C600 1.399 . S
C605 C604 1.394 . S
C605 C606 1.516 . S
C606 C605 1.516 . S
C606 C607 1.502 . S
C606 C608 1.561 . S
C606 C609 1.526 . S
C607 H591 0.959 . S
C607 H592 0.959 . S
C607 H593 0.961 . S
C607 C606 1.502 . S
C608 H594 0.960 . S
C608 H595 0.961 . S
C608 H596 0.959 . S
C608 C606 1.561 . S
C609 C606 1.526 . S
C609 C610 1.396 . S
C609 C614 1.390 . S
C610 C604 1.465 . S
C610 C609 1.396 . S
C610 C611 1.399 . S
C611 H597 0.929 . S
C611 C610 1.399 . S
C611 C612 1.385 . S
C612 H598 0.931 . S
C612 C611 1.385 . S
C612 C613 1.389 . S
C613 C612 1.389 . S
C613 C614 1.387 . S
C614 H599 0.930 . S
C614 C609 1.390 . S
C614 C613 1.387 . S
H615 C627 0.930 . S
H616 C629 0.930 . S
H617 C630 0.930 . S
H618 C634 0.959 . S
H619 C634 0.959 . S
H620 C634 0.961 . S
H621 C635 0.960 . S
H622 C635 0.961 . S
H623 C635 0.959 . S
H624 C638 0.929 . S
H625 C639 0.931 . S
H626 C641 0.930 . S
C627 H615 0.930 . S
C627 C628 1.399 . S
C627 C632 1.399 . S
C628 C627 1.399 . S
C628 C629 1.376 . S
C629 H616 0.930 . S
C629 C628 1.376 . S
C629 C630 1.388 . S
C630 H617 0.930 . S
C630 C629 1.388 . S
C630 C631 1.390 . S
C631 C630 1.390 . S
C631 C632 1.394 . S
C631 C637 1.465 . S
C632 C627 1.399 . S
C632 C631 1.394 . S
C632 C633 1.516 . S
C633 C632 1.516 . S
C633 C634 1.502 . S
C633 C635 1.561 . S
C633 C636 1.526 . S
C634 H618 0.959 . S
C634 H619 0.959 . S
C634 H620 0.961 . S
C634 C633 1.502 . S
C635 H621 0.960 . S
C635 H622 0.961 . S
C635 H623 0.959 . S
C635 C633 1.561 . S
C636 C633 1.526 . S
C636 C637 1.396 . S
C636 C641 1.390 . S
C637 C631 1.465 . S
C637 C636 1.396 . S
C637 C638 1.399 . S
C638 H624 0.929 . S
C638 C637 1.399 . S
C638 C639 1.385 . S
C639 H625 0.931 . S
C639 C638 1.385 . S
C639 C640 1.389 . S
C640 C639 1.389 . S
C640 C641 1.387 . S
C641 H626 0.930 . S
C641 C636 1.390 . S
C641 C640 1.387 . S
H642 C654 0.930 . S
H643 C656 0.930 . S
H644 C657 0.930 . S
H645 C661 0.959 . S
H646 C661 0.959 1_554 S
H647 C661 0.961 . S
H648 C662 0.960 . S
H649 C662 0.961 . S
H650 C662 0.959 . S
H651 C665 0.929 . S
H652 C666 0.931 . S
H653 C668 0.930 . S
C654 H642 0.930 . S
C654 C655 1.399 . S
C654 C659 1.399 . S
C655 C654 1.399 . S
C655 C656 1.376 . S
C656 H643 0.930 . S
C656 C655 1.376 . S
C656 C657 1.388 . S
C657 H644 0.930 . S
C657 C656 1.388 . S
C657 C658 1.390 . S
C658 C657 1.390 . S
C658 C659 1.394 . S
C658 C664 1.465 1_556 S
C659 C654 1.399 . S
C659 C658 1.394 . S
C659 C660 1.516 1_556 S
C660 C659 1.516 1_554 S
C660 C661 1.502 1_554 S
C660 C662 1.561 . S
C660 C663 1.526 . S
C661 H645 0.959 . S
C661 H646 0.959 1_556 S
C661 H647 0.961 . S
C661 C660 1.502 1_556 S
C662 H648 0.960 . S
C662 H649 0.961 . S
C662 H650 0.959 . S
C662 C660 1.561 . S
C663 C660 1.526 . S
C663 C664 1.396 . S
C663 C668 1.390 . S
C664 C658 1.465 1_554 S
C664 C663 1.396 . S
C664 C665 1.399 . S
C665 H651 0.929 . S
C665 C664 1.399 . S
C665 C666 1.385 . S
C666 H652 0.931 . S
C666 C665 1.385 . S
C666 C667 1.389 . S
C667 C666 1.389 . S
C667 C668 1.387 . S
C668 H653 0.930 . S
C668 C663 1.390 . S
C668 C667 1.387 . S
H669 C681 0.930 . S
H670 C683 0.930 . S
H671 C684 0.930 . S
H672 C688 0.959 . S
H673 C688 0.959 . S
H674 C688 0.961 . S
H675 C689 0.960 . S
H676 C689 0.961 . S
H677 C689 0.959 . S
H678 C692 0.929 . S
H679 C693 0.931 . S
H680 C695 0.930 . S
C681 H669 0.930 . S
C681 C682 1.399 . S
C681 C686 1.399 . S
C682 C681 1.399 . S
C682 C683 1.376 . S
C683 H670 0.930 . S
C683 C682 1.376 . S
C683 C684 1.388 . S
C684 H671 0.930 . S
C684 C683 1.388 . S
C684 C685 1.390 . S
C685 C684 1.390 . S
C685 C686 1.394 . S
C685 C691 1.465 . S
C686 C681 1.399 . S
C686 C685 1.394 . S
C686 C687 1.516 . S
C687 C686 1.516 . S
C687 C688 1.502 . S
C687 C689 1.561 . S
C687 C690 1.526 . S
C688 H672 0.959 . S
C688 H673 0.959 . S
C688 H674 0.961 . S
C688 C687 1.502 . S
C689 H675 0.960 . S
C689 H676 0.961 . S
C689 H677 0.959 . S
C689 C687 1.561 . S
C690 C687 1.526 . S
C690 C691 1.396 . S
C690 C695 1.390 . S
C691 C685 1.465 . S
C691 C690 1.396 . S
C691 C692 1.399 . S
C692 H678 0.929 . S
C692 C691 1.399 . S
C692 C693 1.385 . S
C693 H679 0.931 . S
C693 C692 1.385 . S
C693 C694 1.389 . S
C694 C693 1.389 . S
C694 C695 1.387 . S
C695 H680 0.930 . S
C695 C690 1.390 . S
C695 C694 1.387 . S
H696 C708 0.930 . S
H697 C710 0.930 . S
H698 C711 0.930 . S
H699 C715 0.959 . S
H700 C715 0.959 . S
H701 C715 0.961 . S
H702 C716 0.960 . S
H703 C716 0.961 . S
H704 C716 0.959 . S
H705 C719 0.929 . S
H706 C720 0.931 . S
H707 C722 0.930 . S
C708 H696 0.930 . S
C708 C709 1.399 . S
C708 C713 1.399 . S
C709 C708 1.399 . S
C709 C710 1.376 . S
C710 H697 0.930 . S
C710 C709 1.376 . S
C710 C711 1.388 . S
C711 H698 0.930 . S
C711 C710 1.388 . S
C711 C712 1.390 . S
C712 C711 1.390 . S
C712 C713 1.394 . S
C712 C718 1.465 . S
C713 C708 1.399 . S
C713 C712 1.394 . S
C713 C714 1.516 . S
C714 C713 1.516 . S
C714 C715 1.502 . S
C714 C716 1.561 . S
C714 C717 1.526 . S
C715 H699 0.959 . S
C715 H700 0.959 . S
C715 H701 0.961 . S
C715 C714 1.502 . S
C716 H702 0.960 . S
C716 H703 0.961 . S
C716 H704 0.959 . S
C716 C714 1.561 . S
C717 C714 1.526 . S
C717 C718 1.396 . S
C717 C722 1.390 . S
C718 C712 1.465 . S
C718 C717 1.396 . S
C718 C719 1.399 . S
C719 H705 0.929 . S
C719 C718 1.399 . S
C719 C720 1.385 . S
C720 H706 0.931 . S
C720 C719 1.385 . S
C720 C721 1.389 . S
C721 C720 1.389 . S
C721 C722 1.387 . S
C722 H707 0.930 . S
C722 C717 1.390 . S
C722 C721 1.387 . S
H723 C735 0.930 . S
H724 C737 0.930 . S
H725 C738 0.930 . S
H726 C742 0.959 . S
H727 C742 0.959 . S
H728 C742 0.961 . S
H729 C743 0.960 . S
H730 C743 0.961 . S
H731 C743 0.959 . S
H732 C746 0.929 1_556 S
H733 C747 0.931 . S
H734 C749 0.930 . S
C735 H723 0.930 . S
C735 C736 1.399 . S
C735 C740 1.399 . S
C736 C735 1.399 . S
C736 C737 1.376 . S
C737 H724 0.930 . S
C737 C736 1.376 . S
C737 C738 1.388 . S
C738 H725 0.930 . S
C738 C737 1.388 . S
C738 C739 1.390 . S
C739 C738 1.390 . S
C739 C740 1.394 . S
C739 C745 1.465 1_556 S
C740 C735 1.399 . S
C740 C739 1.394 . S
C740 C741 1.516 1_556 S
C741 C740 1.516 1_554 S
C741 C742 1.502 . S
C741 C743 1.561 . S
C741 C744 1.526 . S
C742 H726 0.959 . S
C742 H727 0.959 . S
C742 H728 0.961 . S
C742 C741 1.502 . S
C743 H729 0.960 . S
C743 H730 0.961 . S
C743 H731 0.959 . S
C743 C741 1.561 . S
C744 C741 1.526 . S
C744 C745 1.396 . S
C744 C749 1.390 . S
C745 C739 1.465 1_554 S
C745 C744 1.396 . S
C745 C746 1.399 . S
C746 H732 0.929 1_554 S
C746 C745 1.399 . S
C746 C747 1.385 . S
C747 H733 0.931 . S
C747 C746 1.385 . S
C747 C748 1.389 . S
C748 C747 1.389 . S
C748 C749 1.387 . S
C749 H734 0.930 . S
C749 C744 1.390 . S
C749 C748 1.387 . S
H750 C762 0.930 . S
H751 C764 0.930 . S
H752 C765 0.930 . S
H753 C769 0.959 . S
H754 C769 0.959 . S
H755 C769 0.961 . S
H756 C770 0.960 . S
H757 C770 0.961 . S
H758 C770 0.959 . S
H759 C773 0.929 . S
H760 C774 0.931 . S
H761 C776 0.930 . S
C762 H750 0.930 . S
C762 C763 1.399 . S
C762 C767 1.399 . S
C763 C762 1.399 . S
C763 C764 1.376 . S
C764 H751 0.930 . S
C764 C763 1.376 . S
C764 C765 1.388 . S
C765 H752 0.930 . S
C765 C764 1.388 . S
C765 C766 1.390 . S
C766 C765 1.390 . S
C766 C767 1.394 . S
C766 C772 1.465 . S
C767 C762 1.399 . S
C767 C766 1.394 . S
C767 C768 1.516 . S
C768 C767 1.516 . S
C768 C769 1.502 . S
C768 C770 1.561 . S
C768 C771 1.526 . S
C769 H753 0.959 . S
C769 H754 0.959 . S
C769 H755 0.961 . S
C769 C768 1.502 . S
C770 H756 0.960 . S
C770 H757 0.961 . S
C770 H758 0.959 . S
C770 C768 1.561 . S
C771 C768 1.526 . S
C771 C772 1.396 . S
C771 C776 1.390 . S
C772 C766 1.465 . S
C772 C771 1.396 . S
C772 C773 1.399 . S
C773 H759 0.929 . S
C773 C772 1.399 . S
C773 C774 1.385 . S
C774 H760 0.931 . S
C774 C773 1.385 . S
C774 C775 1.389 . S
C775 C774 1.389 . S
C775 C776 1.387 . S
C776 H761 0.930 . S
C776 C771 1.390 . S
C776 C775 1.387 . S
H777 C789 0.930 . S
H778 C791 0.930 . S
H779 C792 0.930 . S
H780 C796 0.959 . S
H781 C796 0.959 . S
H782 C796 0.961 . S
H783 C797 0.960 . S
H784 C797 0.961 . S
H785 C797 0.959 . S
H786 C800 0.929 . S
H787 C801 0.931 . S
H788 C803 0.930 . S
C789 H777 0.930 . S
C789 C790 1.399 . S
C789 C794 1.399 . S
C790 C789 1.399 . S
C790 C791 1.376 . S
C791 H778 0.930 . S
C791 C790 1.376 . S
C791 C792 1.388 . S
C792 H779 0.930 . S
C792 C791 1.388 . S
C792 C793 1.390 . S
C793 C792 1.390 . S
C793 C794 1.394 . S
C793 C799 1.465 . S
C794 C789 1.399 . S
C794 C793 1.394 . S
C794 C795 1.516 . S
C795 C794 1.516 . S
C795 C796 1.502 . S
C795 C797 1.561 . S
C795 C798 1.526 . S
C796 H780 0.959 . S
C796 H781 0.959 . S
C796 H782 0.961 . S
C796 C795 1.502 . S
C797 H783 0.960 . S
C797 H784 0.961 . S
C797 H785 0.959 . S
C797 C795 1.561 . S
C798 C795 1.526 . S
C798 C799 1.396 . S
C798 C803 1.390 . S
C799 C793 1.465 . S
C799 C798 1.396 . S
C799 C800 1.399 . S
C800 H786 0.929 . S
C800 C799 1.399 . S
C800 C801 1.385 . S
C801 H787 0.931 . S
C801 C800 1.385 . S
C801 C802 1.389 . S
C802 C801 1.389 . S
C802 C803 1.387 . S
C803 H788 0.930 . S
C803 C798 1.390 . S
C803 C802 1.387 . S
H804 C816 0.930 . S
H805 C818 0.930 . S
H806 C819 0.930 . S
H807 C823 0.959 . S
H808 C823 0.959 . S
H809 C823 0.961 . S
H810 C824 0.960 . S
H811 C824 0.961 . S
H812 C824 0.959 . S
H813 C827 0.929 . S
H814 C828 0.931 . S
H815 C830 0.930 . S
C816 H804 0.930 . S
C816 C817 1.399 . S
C816 C821 1.399 . S
C817 C816 1.399 . S
C817 C818 1.376 . S
C818 H805 0.930 . S
C818 C817 1.376 . S
C818 C819 1.388 . S
C819 H806 0.930 . S
C819 C818 1.388 . S
C819 C820 1.390 . S
C820 C819 1.390 . S
C820 C821 1.394 . S
C820 C826 1.465 1_556 S
C821 C816 1.399 . S
C821 C820 1.394 . S
C821 C822 1.516 1_565 S
C822 C821 1.516 1_545 S
C822 C823 1.502 . S
C822 C824 1.561 . S
C822 C825 1.526 1_556 S
C823 H807 0.959 . S
C823 H808 0.959 . S
C823 H809 0.961 . S
C823 C822 1.502 . S
C824 H810 0.960 . S
C824 H811 0.961 . S
C824 H812 0.959 . S
C824 C822 1.561 . S
C825 C822 1.526 1_554 S
C825 C826 1.396 1_545 S
C825 C830 1.390 . S
C826 C820 1.465 1_554 S
C826 C825 1.396 1_565 S
C826 C827 1.399 . S
C827 H813 0.929 . S
C827 C826 1.399 . S
C827 C828 1.385 1_565 S
C828 H814 0.931 . S
C828 C827 1.385 1_545 S
C828 C829 1.389 . S
C829 C828 1.389 . S
C829 C830 1.387 . S
C830 H815 0.930 . S
C830 C825 1.390 . S
C830 C829 1.387 . S
H831 C843 0.930 . S
H832 C845 0.930 . S
H833 C846 0.930 . S
H834 C850 0.959 . S
H835 C850 0.959 . S
H836 C850 0.961 . S
H837 C851 0.960 . S
H838 C851 0.961 . S
H839 C851 0.959 . S
H840 C854 0.929 . S
H841 C855 0.931 . S
H842 C857 0.930 . S
C843 H831 0.930 . S
C843 C844 1.399 . S
C843 C848 1.399 . S
C844 C843 1.399 . S
C844 C845 1.376 . S
C845 H832 0.930 . S
C845 C844 1.376 . S
C845 C846 1.388 . S
C846 H833 0.930 . S
C846 C845 1.388 . S
C846 C847 1.390 . S
C847 C846 1.390 . S
C847 C848 1.394 . S
C847 C853 1.465 . S
C848 C843 1.399 . S
C848 C847 1.394 . S
C848 C849 1.516 . S
C849 C848 1.516 . S
C849 C850 1.502 . S
C849 C851 1.561 . S
C849 C852 1.526 . S
C850 H834 0.959 . S
C850 H835 0.959 . S
C850 H836 0.961 . S
C850 C849 1.502 . S
C851 H837 0.960 . S
C851 H838 0.961 . S
C851 H839 0.959 . S
C851 C849 1.561 . S
C852 C849 1.526 . S
C852 C853 1.396 . S
C852 C857 1.390 . S
C853 C847 1.465 . S
C853 C852 1.396 . S
C853 C854 1.399 . S
C854 H840 0.929 . S
C854 C853 1.399 . S
C854 C855 1.385 . S
C855 H841 0.931 . S
C855 C854 1.385 . S
C855 C856 1.389 . S
C856 C855 1.389 . S
C856 C857 1.387 . S
C857 H842 0.930 . S
C857 C852 1.390 . S
C857 C856 1.387 . S
H858 C870 0.930 . S
H859 C872 0.930 . S
H860 C873 0.930 . S
H861 C877 0.959 . S
H862 C877 0.959 . S
H863 C877 0.961 . S
H864 C878 0.960 . S
H865 C878 0.961 . S
H866 C878 0.959 . S
H867 C881 0.929 . S
H868 C882 0.931 . S
H869 C884 0.930 . S
C870 H858 0.930 . S
C870 C871 1.399 . S
C870 C875 1.399 . S
C871 C870 1.399 . S
C871 C872 1.376 . S
C872 H859 0.930 . S
C872 C871 1.376 . S
C872 C873 1.388 1_455 S
C873 H860 0.930 . S
C873 C872 1.388 1_655 S
C873 C874 1.390 . S
C874 C873 1.390 . S
C874 C875 1.394 1_655 S
C874 C880 1.465 . S
C875 C870 1.399 . S
C875 C874 1.394 1_455 S
C875 C876 1.516 . S
C876 C875 1.516 . S
C876 C877 1.502 . S
C876 C878 1.561 . S
C876 C879 1.526 1_455 S
C877 H861 0.959 . S
C877 H862 0.959 . S
C877 H863 0.961 . S
C877 C876 1.502 . S
C878 H864 0.960 . S
C878 H865 0.961 . S
C878 H866 0.959 . S
C878 C876 1.561 . S
C879 C876 1.526 1_655 S
C879 C880 1.396 . S
C879 C884 1.390 . S
C880 C874 1.465 . S
C880 C879 1.396 . S
C880 C881 1.399 . S
C881 H867 0.929 . S
C881 C880 1.399 . S
C881 C882 1.385 . S
C882 H868 0.931 . S
C882 C881 1.385 . S
C882 C883 1.389 . S
C883 C882 1.389 . S
C883 C884 1.387 . S
C884 H869 0.930 . S
C884 C879 1.390 . S
C884 C883 1.387 . S
H885 C897 0.930 . S
H886 C899 0.930 . S
H887 C900 0.930 . S
H888 C904 0.959 . S
H889 C904 0.959 1_545 S
H890 C904 0.961 1_554 S
H891 C905 0.960 . S
H892 C905 0.961 . S
H893 C905 0.959 . S
H894 C908 0.929 . S
H895 C909 0.931 . S
H896 C911 0.930 . S
C897 H885 0.930 . S
C897 C898 1.399 . S
C897 C902 1.399 . S
C898 C897 1.399 . S
C898 C899 1.376 . S
C899 H886 0.930 . S
C899 C898 1.376 . S
C899 C900 1.388 . S
C900 H887 0.930 . S
C900 C899 1.388 . S
C900 C901 1.390 . S
C901 C900 1.390 . S
C901 C902 1.394 . S
C901 C907 1.465 1_564 S
C902 C897 1.399 . S
C902 C901 1.394 . S
C902 C903 1.516 1_565 S
C903 C902 1.516 1_545 S
C903 C904 1.502 1_544 S
C903 C905 1.561 . S
C903 C906 1.526 1_554 S
C904 H888 0.959 . S
C904 H889 0.959 1_565 S
C904 H890 0.961 1_556 S
C904 C903 1.502 1_566 S
C905 H891 0.960 . S
C905 H892 0.961 . S
C905 H893 0.959 . S
C905 C903 1.561 . S
C906 C903 1.526 1_556 S
C906 C907 1.396 . S
C906 C911 1.390 . S
C907 C901 1.465 1_546 S
C907 C906 1.396 . S
C907 C908 1.399 . S
C908 H894 0.929 . S
C908 C907 1.399 . S
C908 C909 1.385 . S
C909 H895 0.931 . S
C909 C908 1.385 . S
C909 C910 1.389 . S
C910 C909 1.389 . S
C910 C911 1.387 . S
C911 H896 0.930 . S
C911 C906 1.390 . S
C911 C910 1.387 . S
H912 C924 0.930 . S
H913 C926 0.930 . S
H914 C927 0.930 . S
H915 C931 0.959 . S
H916 C931 0.959 . S
H917 C931 0.961 . S
H918 C932 0.960 . S
H919 C932 0.961 . S
H920 C932 0.959 . S
H921 C935 0.929 . S
H922 C936 0.931 . S
H923 C938 0.930 . S
C924 H912 0.930 . S
C924 C925 1.399 . S
C924 C929 1.399 . S
C925 C924 1.399 . S
C925 C926 1.376 . S
C926 H913 0.930 . S
C926 C925 1.376 . S
C926 C927 1.388 . S
C927 H914 0.930 . S
C927 C926 1.388 . S
C927 C928 1.390 . S
C928 C927 1.390 . S
C928 C929 1.394 . S
C928 C934 1.465 . S
C929 C924 1.399 . S
C929 C928 1.394 . S
C929 C930 1.516 . S
C930 C929 1.516 . S
C930 C931 1.502 . S
C930 C932 1.561 . S
C930 C933 1.526 . S
C931 H915 0.959 . S
C931 H916 0.959 . S
C931 H917 0.961 . S
C931 C930 1.502 . S
C932 H918 0.960 . S
C932 H919 0.961 . S
C932 H920 0.959 . S
C932 C930 1.561 . S
C933 C930 1.526 . S
C933 C934 1.396 . S
C933 C938 1.390 . S
C934 C928 1.465 . S
C934 C933 1.396 . S
C934 C935 1.399 . S
C935 H921 0.929 . S
C935 C934 1.399 . S
C935 C936 1.385 . S
C936 H922 0.931 . S
C936 C935 1.385 . S
C936 C937 1.389 . S
C937 C936 1.389 . S
C937 C938 1.387 . S
C938 H923 0.930 . S
C938 C933 1.390 . S
C938 C937 1.387 . S
H939 C951 0.930 . S
H940 C953 0.930 . S
H941 C954 0.930 . S
H942 C958 0.959 . S
H943 C958 0.959 . S
H944 C958 0.961 1_455 S
H945 C959 0.960 . S
H946 C959 0.961 . S
H947 C959 0.959 . S
H948 C962 0.929 . S
H949 C963 0.931 . S
H950 C965 0.930 . S
C951 H939 0.930 . S
C951 C952 1.399 . S
C951 C956 1.399 . S
C952 C951 1.399 . S
C952 C953 1.376 . S
C953 H940 0.930 . S
C953 C952 1.376 . S
C953 C954 1.388 . S
C954 H941 0.930 . S
C954 C953 1.388 . S
C954 C955 1.390 . S
C955 C954 1.390 . S
C955 C956 1.394 . S
C955 C961 1.465 1_455 S
C956 C951 1.399 . S
C956 C955 1.394 . S
C956 C957 1.516 . S
C957 C956 1.516 . S
C957 C958 1.502 1_455 S
C957 C959 1.561 . S
C957 C960 1.526 1_455 S
C958 H942 0.959 . S
C958 H943 0.959 . S
C958 H944 0.961 1_655 S
C958 C957 1.502 1_655 S
C959 H945 0.960 . S
C959 H946 0.961 . S
C959 H947 0.959 . S
C959 C957 1.561 . S
C960 C957 1.526 1_655 S
C960 C961 1.396 . S
C960 C965 1.390 . S
C961 C955 1.465 1_655 S
C961 C960 1.396 . S
C961 C962 1.399 . S
C962 H948 0.929 . S
C962 C961 1.399 . S
C962 C963 1.385 . S
C963 H949 0.931 . S
C963 C962 1.385 . S
C963 C964 1.389 . S
C964 C963 1.389 . S
C964 C965 1.387 . S
C965 H950 0.930 . S
C965 C960 1.390 . S
C965 C964 1.387 . S
H966 C978 0.930 . S
H967 C980 0.930 . S
H968 C981 0.930 . S
H969 C985 0.959 . S
H970 C985 0.959 . S
H971 C985 0.961 . S
H972 C986 0.960 . S
H973 C986 0.961 . S
H974 C986 0.959 . S
H975 C989 0.929 . S
H976 C990 0.931 . S
H977 C992 0.930 . S
C978 H966 0.930 . S
C978 C979 1.399 . S
C978 C983 1.399 . S
C979 C978 1.399 . S
C979 C980 1.376 . S
C980 H967 0.930 . S
C980 C979 1.376 . S
C980 C981 1.388 . S
C981 H968 0.930 . S
C981 C980 1.388 . S
C981 C982 1.390 . S
C982 C981 1.390 . S
C982 C983 1.394 . S
C982 C988 1.465 1_545 S
C983 C978 1.399 . S
C983 C982 1.394 . S
C983 C984 1.516 . S
C984 C983 1.516 . S
C984 C985 1.502 1_545 S
C984 C986 1.561 . S
C984 C987 1.526 1_545 S
C985 H969 0.959 . S
C985 H970 0.959 . S
C985 H971 0.961 . S
C985 C984 1.502 1_565 S
C986 H972 0.960 . S
C986 H973 0.961 . S
C986 H974 0.959 . S
C986 C984 1.561 . S
C987 C984 1.526 1_565 S
C987 C988 1.396 . S
C987 C992 1.390 . S
C988 C982 1.465 1_565 S
C988 C987 1.396 . S
C988 C989 1.399 . S
C989 H975 0.929 . S
C989 C988 1.399 . S
C989 C990 1.385 . S
C990 H976 0.931 . S
C990 C989 1.385 . S
C990 C991 1.389 . S
C991 C990 1.389 . S
C991 C992 1.387 . S
C992 H977 0.930 . S
C992 C987 1.390 . S
C992 C991 1.387 . S
H993 C1005 0.930 . S
H994 C1007 0.930 . S
H995 C1008 0.930 . S
H996 C1012 0.959 . S
H997 C1012 0.959 . S
H998 C1012 0.961 . S
H999 C1013 0.960 . S
H1000 C1013 0.961 . S
H1001 C1013 0.959 . S
H1002 C1016 0.929 . S
H1003 C1017 0.931 . S
H1004 C1019 0.930 . S
C1005 H993 0.930 . S
C1005 C1006 1.399 . S
C1005 C1010 1.399 . S
C1006 C1005 1.399 . S
C1006 C1007 1.376 . S
C1007 H994 0.930 . S
C1007 C1006 1.376 . S
C1007 C1008 1.388 . S
C1008 H995 0.930 . S
C1008 C1007 1.388 . S
C1008 C1009 1.390 . S
C1009 C1008 1.390 . S
C1009 C1010 1.394 . S
C1009 C1015 1.465 . S
C1010 C1005 1.399 . S
C1010 C1009 1.394 . S
C1010 C1011 1.516 . S
C1011 C1010 1.516 . S
C1011 C1012 1.502 . S
C1011 C1013 1.561 . S
C1011 C1014 1.526 . S
C1012 H996 0.959 . S
C1012 H997 0.959 . S
C1012 H998 0.961 . S
C1012 C1011 1.502 . S
C1013 H999 0.960 . S
C1013 H1000 0.961 . S
C1013 H1001 0.959 . S
C1013 C1011 1.561 . S
C1014 C1011 1.526 . S
C1014 C1015 1.396 . S
C1014 C1019 1.390 . S
C1015 C1009 1.465 . S
C1015 C1014 1.396 . S
C1015 C1016 1.399 . S
C1016 H1002 0.929 . S
C1016 C1015 1.399 . S
C1016 C1017 1.385 . S
C1017 H1003 0.931 . S
C1017 C1016 1.385 . S
C1017 C1018 1.389 . S
C1018 C1017 1.389 . S
C1018 C1019 1.387 . S
C1019 H1004 0.930 . S
C1019 C1014 1.390 . S
C1019 C1018 1.387 . S
H1020 C1032 0.930 . S
H1021 C1034 0.930 . S
H1022 C1035 0.930 . S
H1023 C1039 0.959 . S
H1024 C1039 0.964 . S
H1025 C1039 0.961 . S
H1026 C1040 0.960 1_554 S
H1027 C1040 0.961 1_554 S
H1028 C1040 0.959 . S
H1029 C1043 0.929 . S
H1030 C1044 0.931 . S
H1031 C1046 0.930 . S
C1032 H1020 0.930 . S
C1032 C1033 1.399 . S
C1032 C1037 1.399 . S
C1033 C1032 1.399 . S
C1033 C1034 1.376 . S
C1034 H1021 0.930 . S
C1034 C1033 1.376 . S
C1034 C1035 1.388 . S
C1035 H1022 0.930 . S
C1035 C1034 1.388 . S
C1035 C1036 1.390 . S
C1036 C1035 1.390 . S
C1036 C1037 1.394 . S
C1036 C1042 1.465 1_655 S
C1037 C1032 1.399 . S
C1037 C1036 1.394 . S
C1037 C1038 1.516 . S
C1038 C1037 1.516 . S
C1038 C1039 1.502 . S
C1038 C1040 1.561 1_655 S
C1038 C1041 1.526 1_655 S
C1039 H1023 0.959 . S
C1039 H1024 0.964 . S
C1039 H1025 0.961 . S
C1039 C1038 1.502 . S
C1040 H1026 0.960 1_556 S
C1040 H1027 0.961 1_556 S
C1040 H1028 0.959 . S
C1040 C1038 1.561 1_455 S
C1041 C1038 1.526 1_455 S
C1041 C1042 1.396 . S
C1041 C1046 1.390 . S
C1042 C1036 1.465 1_455 S
C1042 C1041 1.396 . S
C1042 C1043 1.399 . S
C1043 H1029 0.929 . S
C1043 C1042 1.399 . S
C1043 C1044 1.385 . S
C1044 H1030 0.931 . S
C1044 C1043 1.385 . S
C1044 C1045 1.389 . S
C1045 C1044 1.389 . S
C1045 C1046 1.387 . S
C1046 H1031 0.930 . S
C1046 C1041 1.390 . S
C1046 C1045 1.387 . S
H1047 C1059 0.930 . S
H1048 C1061 0.930 . S
H1049 C1062 0.930 . S
H1050 C1066 0.959 . S
H1051 C1066 0.959 . S
H1052 C1066 0.961 . S
H1053 C1067 0.960 1_455 S
H1054 C1067 0.961 . S
H1055 C1067 0.959 . S
H1056 C1070 0.929 . S
H1057 C1071 0.931 . S
H1058 C1073 0.930 . S
C1059 H1047 0.930 . S
C1059 C1060 1.399 . S
C1059 C1064 1.399 . S
C1060 C1059 1.399 . S
C1060 C1061 1.376 . S
C1061 H1048 0.930 . S
C1061 C1060 1.376 . S
C1061 C1062 1.388 . S
C1062 H1049 0.930 . S
C1062 C1061 1.388 . S
C1062 C1063 1.390 . S
C1063 C1062 1.390 . S
C1063 C1064 1.394 . S
C1063 C1069 1.465 1_455 S
C1064 C1059 1.399 . S
C1064 C1063 1.394 . S
C1064 C1065 1.516 . S
C1065 C1064 1.516 . S
C1065 C1066 1.502 . S
C1065 C1067 1.561 1_455 S
C1065 C1068 1.526 1_455 S
C1066 H1050 0.959 . S
C1066 H1051 0.959 . S
C1066 H1052 0.961 . S
C1066 C1065 1.502 . S
C1067 H1053 0.960 1_655 S
C1067 H1054 0.961 . S
C1067 H1055 0.959 . S
C1067 C1065 1.561 1_655 S
C1068 C1065 1.526 1_655 S
C1068 C1069 1.396 . S
C1068 C1073 1.390 . S
C1069 C1063 1.465 1_655 S
C1069 C1068 1.396 . S
C1069 C1070 1.399 . S
C1070 H1056 0.929 . S
C1070 C1069 1.399 . S
C1070 C1071 1.385 . S
C1071 H1057 0.931 . S
C1071 C1070 1.385 . S
C1071 C1072 1.389 . S
C1072 C1071 1.389 . S
C1072 C1073 1.387 . S
C1073 H1058 0.930 . S
C1073 C1068 1.390 . S
C1073 C1072 1.387 . S
H1074 C1086 0.930 . S
H1075 C1088 0.930 . S
H1076 C1089 0.930 . S
H1077 C1093 0.959 . S
H1078 C1093 0.959 . S
H1079 C1093 0.961 . S
H1080 C1094 0.960 . S
H1081 C1094 0.961 1_545 S
H1082 C1094 0.959 . S
H1083 C1097 0.929 . S
H1084 C1098 0.931 . S
H1085 C1100 0.930 . S
C1086 H1074 0.930 . S
C1086 C1087 1.399 . S
C1086 C1091 1.399 . S
C1087 C1086 1.399 . S
C1087 C1088 1.376 . S
C1088 H1075 0.930 . S
C1088 C1087 1.376 . S
C1088 C1089 1.388 . S
C1089 H1076 0.930 . S
C1089 C1088 1.388 . S
C1089 C1090 1.390 . S
C1090 C1089 1.390 . S
C1090 C1091 1.394 . S
C1090 C1096 1.465 1_565 S
C1091 C1086 1.399 . S
C1091 C1090 1.394 . S
C1091 C1092 1.516 1_565 S
C1092 C1091 1.516 1_545 S
C1092 C1093 1.502 . S
C1092 C1094 1.561 1_545 S
C1092 C1095 1.526 . S
C1093 H1077 0.959 . S
C1093 H1078 0.959 . S
C1093 H1079 0.961 . S
C1093 C1092 1.502 . S
C1094 H1080 0.960 . S
C1094 H1081 0.961 1_565 S
C1094 H1082 0.959 . S
C1094 C1092 1.561 1_565 S
C1095 C1092 1.526 . S
C1095 C1096 1.396 . S
C1095 C1100 1.390 . S
C1096 C1090 1.465 1_545 S
C1096 C1095 1.396 . S
C1096 C1097 1.399 . S
C1097 H1083 0.929 . S
C1097 C1096 1.399 . S
C1097 C1098 1.385 . S
C1098 H1084 0.931 . S
C1098 C1097 1.385 . S
C1098 C1099 1.389 . S
C1099 C1098 1.389 . S
C1099 C1100 1.387 . S
C1100 H1085 0.930 . S
C1100 C1095 1.390 . S
C1100 C1099 1.387 . S
H1101 C1113 0.930 . S
H1102 C1115 0.930 . S
H1103 C1116 0.930 . S
H1104 C1120 0.959 . S
H1105 C1120 0.959 . S
H1106 C1120 0.961 . S
H1107 C1121 0.960 . S
H1108 C1121 0.961 . S
H1109 C1121 0.959 . S
H1110 C1124 0.929 . S
H1111 C1125 0.931 . S
H1112 C1127 0.930 . S
C1113 H1101 0.930 . S
C1113 C1114 1.399 . S
C1113 C1118 1.399 . S
C1114 C1113 1.399 . S
C1114 C1115 1.376 . S
C1115 H1102 0.930 . S
C1115 C1114 1.376 . S
C1115 C1116 1.388 . S
C1116 H1103 0.930 . S
C1116 C1115 1.388 . S
C1116 C1117 1.390 . S
C1117 C1116 1.390 . S
C1117 C1118 1.394 . S
C1117 C1123 1.465 . S
C1118 C1113 1.399 . S
C1118 C1117 1.394 . S
C1118 C1119 1.516 . S
C1119 C1118 1.516 . S
C1119 C1120 1.502 . S
C1119 C1121 1.561 . S
C1119 C1122 1.526 . S
C1120 H1104 0.959 . S
C1120 H1105 0.959 . S
C1120 H1106 0.961 . S
C1120 C1119 1.502 . S
C1121 H1107 0.960 . S
C1121 H1108 0.961 . S
C1121 H1109 0.959 . S
C1121 C1119 1.561 . S
C1122 C1119 1.526 . S
C1122 C1123 1.396 . S
C1122 C1127 1.390 . S
C1123 C1117 1.465 . S
C1123 C1122 1.396 . S
C1123 C1124 1.399 . S
C1124 H1110 0.929 . S
C1124 C1123 1.399 . S
C1124 C1125 1.385 . S
C1125 H1111 0.931 . S
C1125 C1124 1.385 . S
C1125 C1126 1.389 . S
C1126 C1125 1.389 . S
C1126 C1127 1.387 . S
C1127 H1112 0.930 . S
C1127 C1122 1.390 . S
C1127 C1126 1.387 . S
H1128 C1140 0.930 . S
H1129 C1142 0.930 . S
H1130 C1143 0.930 . S
H1131 C1147 0.959 . S
H1132 C1147 0.959 . S
H1133 C1147 0.961 . S
H1134 C1148 0.960 . S
H1135 C1148 0.961 . S
H1136 C1148 0.959 . S
H1137 C1151 0.929 1_565 S
H1138 C1152 0.931 . S
H1139 C1154 0.930 . S
C1140 H1128 0.930 . S
C1140 C1141 1.399 . S
C1140 C1145 1.399 . S
C1141 C1140 1.399 . S
C1141 C1142 1.376 . S
C1142 H1129 0.930 . S
C1142 C1141 1.376 . S
C1142 C1143 1.388 . S
C1143 H1130 0.930 . S
C1143 C1142 1.388 . S
C1143 C1144 1.390 . S
C1144 C1143 1.390 . S
C1144 C1145 1.394 . S
C1144 C1150 1.465 1_565 S
C1145 C1140 1.399 . S
C1145 C1144 1.394 . S
C1145 C1146 1.516 1_565 S
C1146 C1145 1.516 1_545 S
C1146 C1147 1.502 . S
C1146 C1148 1.561 . S
C1146 C1149 1.526 . S
C1147 H1131 0.959 . S
C1147 H1132 0.959 . S
C1147 H1133 0.961 . S
C1147 C1146 1.502 . S
C1148 H1134 0.960 . S
C1148 H1135 0.961 . S
C1148 H1136 0.959 . S
C1148 C1146 1.561 . S
C1149 C1146 1.526 . S
C1149 C1150 1.396 . S
C1149 C1154 1.390 . S
C1150 C1144 1.465 1_545 S
C1150 C1149 1.396 . S
C1150 C1151 1.399 . S
C1151 H1137 0.929 1_545 S
C1151 C1150 1.399 . S
C1151 C1152 1.385 . S
C1152 H1138 0.931 . S
C1152 C1151 1.385 . S
C1152 C1153 1.389 . S
C1153 C1152 1.389 . S
C1153 C1154 1.387 . S
C1154 H1139 0.930 . S
C1154 C1149 1.390 . S
C1154 C1153 1.387 . S
H1155 C1167 0.930 . S
H1156 C1169 0.930 . S
H1157 C1170 0.930 . S
H1158 C1174 0.959 . S
H1159 C1174 0.959 . S
H1160 C1174 0.961 . S
H1161 C1175 0.960 . S
H1162 C1175 0.961 . S
H1163 C1175 0.959 . S
H1164 C1178 0.929 . S
H1165 C1179 0.931 . S
H1166 C1181 0.930 . S
C1167 H1155 0.930 . S
C1167 C1168 1.399 . S
C1167 C1172 1.399 . S
C1168 C1167 1.399 . S
C1168 C1169 1.376 . S
C1169 H1156 0.930 . S
C1169 C1168 1.376 . S
C1169 C1170 1.388 . S
C1170 H1157 0.930 . S
C1170 C1169 1.388 . S
C1170 C1171 1.390 . S
C1171 C1170 1.390 . S
C1171 C1172 1.394 . S
C1171 C1177 1.465 . S
C1172 C1167 1.399 . S
C1172 C1171 1.394 . S
C1172 C1173 1.516 . S
C1173 C1172 1.516 . S
C1173 C1174 1.502 . S
C1173 C1175 1.561 . S
C1173 C1176 1.526 . S
C1174 H1158 0.959 . S
C1174 H1159 0.959 . S
C1174 H1160 0.961 . S
C1174 C1173 1.502 . S
C1175 H1161 0.960 . S
C1175 H1162 0.961 . S
C1175 H1163 0.959 . S
C1175 C1173 1.561 . S
C1176 C1173 1.526 . S
C1176 C1177 1.396 . S
C1176 C1181 1.390 . S
C1177 C1171 1.465 . S
C1177 C1176 1.396 . S
C1177 C1178 1.399 . S
C1178 H1164 0.929 . S
C1178 C1177 1.399 . S
C1178 C1179 1.385 . S
C1179 H1165 0.931 . S
C1179 C1178 1.385 . S
C1179 C1180 1.389 . S
C1180 C1179 1.389 . S
C1180 C1181 1.387 . S
C1181 H1166 0.930 . S
C1181 C1176 1.390 . S
C1181 C1180 1.387 . S
H1182 C1194 0.930 . S
H1183 C1196 0.930 . S
H1184 C1197 0.930 . S
H1185 C1201 0.959 . S
H1186 C1201 0.959 . S
H1187 C1201 0.961 . S
H1188 C1202 0.964 . S
H1189 C1202 0.961 . S
H1190 C1202 0.958 . S
H1191 C1205 0.929 1_655 S
H1192 C1206 0.931 . S
H1193 C1208 0.930 . S
C1194 H1182 0.930 . S
C1194 C1195 1.399 . S
C1194 C1199 1.399 . S
C1195 C1194 1.399 . S
C1195 C1196 1.376 . S
C1196 H1183 0.930 . S
C1196 C1195 1.376 . S
C1196 C1197 1.388 . S
C1197 H1184 0.930 . S
C1197 C1196 1.388 . S
C1197 C1198 1.390 . S
C1198 C1197 1.390 . S
C1198 C1199 1.394 . S
C1198 C1204 1.465 1_655 S
C1199 C1194 1.399 . S
C1199 C1198 1.394 . S
C1199 C1200 1.516 1_655 S
C1200 C1199 1.516 1_455 S
C1200 C1201 1.502 . S
C1200 C1202 1.561 . S
C1200 C1203 1.526 . S
C1201 H1185 0.959 . S
C1201 H1186 0.959 . S
C1201 H1187 0.961 . S
C1201 C1200 1.502 . S
C1202 H1188 0.964 . S
C1202 H1189 0.961 . S
C1202 H1190 0.958 . S
C1202 C1200 1.561 . S
C1203 C1200 1.526 . S
C1203 C1204 1.396 . S
C1203 C1208 1.390 . S
C1204 C1198 1.465 1_455 S
C1204 C1203 1.396 . S
C1204 C1205 1.399 . S
C1205 H1191 0.929 1_455 S
C1205 C1204 1.399 . S
C1205 C1206 1.385 . S
C1206 H1192 0.931 . S
C1206 C1205 1.385 . S
C1206 C1207 1.389 . S
C1207 C1206 1.389 . S
C1207 C1208 1.387 . S
C1208 H1193 0.930 . S
C1208 C1203 1.390 . S
C1208 C1207 1.387 . S
H1209 C1221 0.930 . S
H1210 C1223 0.930 . S
H1211 C1224 0.930 . S
H1212 C1228 0.959 . S
H1213 C1228 0.959 . S
H1214 C1228 0.961 . S
H1215 C1229 0.960 . S
H1216 C1229 0.961 . S
H1217 C1229 0.959 . S
H1218 C1232 0.929 1_545 S
H1219 C1233 0.931 . S
H1220 C1235 0.930 . S
C1221 H1209 0.930 . S
C1221 C1222 1.399 . S
C1221 C1226 1.399 . S
C1222 C1221 1.399 . S
C1222 C1223 1.376 . S
C1223 H1210 0.930 . S
C1223 C1222 1.376 . S
C1223 C1224 1.388 . S
C1224 H1211 0.930 . S
C1224 C1223 1.388 . S
C1224 C1225 1.390 . S
C1225 C1224 1.390 . S
C1225 C1226 1.394 . S
C1225 C1231 1.465 1_545 S
C1226 C1221 1.399 . S
C1226 C1225 1.394 . S
C1226 C1227 1.516 1_545 S
C1227 C1226 1.516 1_565 S
C1227 C1228 1.502 . S
C1227 C1229 1.561 . S
C1227 C1230 1.526 . S
C1228 H1212 0.959 . S
C1228 H1213 0.959 . S
C1228 H1214 0.961 . S
C1228 C1227 1.502 . S
C1229 H1215 0.960 . S
C1229 H1216 0.961 . S
C1229 H1217 0.959 . S
C1229 C1227 1.561 . S
C1230 C1227 1.526 . S
C1230 C1231 1.396 . S
C1230 C1235 1.390 . S
C1231 C1225 1.465 1_565 S
C1231 C1230 1.396 . S
C1231 C1232 1.399 . S
C1232 H1218 0.929 1_565 S
C1232 C1231 1.399 . S
C1232 C1233 1.385 . S
C1233 H1219 0.931 . S
C1233 C1232 1.385 . S
C1233 C1234 1.389 . S
C1234 C1233 1.389 . S
C1234 C1235 1.387 . S
C1235 H1220 0.930 . S
C1235 C1230 1.390 . S
C1235 C1234 1.387 . S
H1236 C1248 0.930 . S
H1237 C1250 0.930 . S
H1238 C1251 0.930 . S
H1239 C1255 0.959 . S
H1240 C1255 0.959 . S
H1241 C1255 0.961 . S
H1242 C1256 0.960 . S
H1243 C1256 0.961 . S
H1244 C1256 0.959 . S
H1245 C1259 0.929 . S
H1246 C1260 0.931 . S
H1247 C1262 0.930 . S
C1248 H1236 0.930 . S
C1248 C1249 1.399 . S
C1248 C1253 1.399 . S
C1249 C1248 1.399 . S
C1249 C1250 1.376 . S
C1250 H1237 0.930 . S
C1250 C1249 1.376 . S
C1250 C1251 1.388 . S
C1251 H1238 0.930 . S
C1251 C1250 1.388 . S
C1251 C1252 1.390 . S
C1252 C1251 1.390 . S
C1252 C1253 1.394 . S
C1252 C1258 1.465 . S
C1253 C1248 1.399 . S
C1253 C1252 1.394 . S
C1253 C1254 1.516 . S
C1254 C1253 1.516 . S
C1254 C1255 1.502 . S
C1254 C1256 1.561 . S
C1254 C1257 1.526 . S
C1255 H1239 0.959 . S
C1255 H1240 0.959 . S
C1255 H1241 0.961 . S
C1255 C1254 1.502 . S
C1256 H1242 0.960 . S
C1256 H1243 0.961 . S
C1256 H1244 0.959 . S
C1256 C1254 1.561 . S
C1257 C1254 1.526 . S
C1257 C1258 1.396 . S
C1257 C1262 1.390 . S
C1258 C1252 1.465 . S
C1258 C1257 1.396 . S
C1258 C1259 1.399 . S
C1259 H1245 0.929 . S
C1259 C1258 1.399 . S
C1259 C1260 1.385 . S
C1260 H1246 0.931 . S
C1260 C1259 1.385 . S
C1260 C1261 1.389 . S
C1261 C1260 1.389 . S
C1261 C1262 1.387 . S
C1262 H1247 0.930 . S
C1262 C1257 1.390 . S
C1262 C1261 1.387 . S
H1263 C1275 0.930 . S
H1264 C1277 0.930 . S
H1265 C1278 0.930 . S
H1266 C1282 0.959 . S
H1267 C1282 0.959 . S
H1268 C1282 0.961 . S
H1269 C1283 0.960 . S
H1270 C1283 0.961 . S
H1271 C1283 0.959 . S
H1272 C1286 0.929 1_455 S
H1273 C1287 0.931 . S
H1274 C1289 0.930 . S
C1275 H1263 0.930 . S
C1275 C1276 1.399 . S
C1275 C1280 1.399 . S
C1276 C1275 1.399 . S
C1276 C1277 1.376 . S
C1277 H1264 0.930 . S
C1277 C1276 1.376 . S
C1277 C1278 1.388 . S
C1278 H1265 0.930 . S
C1278 C1277 1.388 . S
C1278 C1279 1.390 . S
C1279 C1278 1.390 . S
C1279 C1280 1.394 . S
C1279 C1285 1.465 1_455 S
C1280 C1275 1.399 . S
C1280 C1279 1.394 . S
C1280 C1281 1.516 1_455 S
C1281 C1280 1.516 1_655 S
C1281 C1282 1.502 . S
C1281 C1283 1.561 . S
C1281 C1284 1.526 . S
C1282 H1266 0.959 . S
C1282 H1267 0.959 . S
C1282 H1268 0.961 . S
C1282 C1281 1.502 . S
C1283 H1269 0.960 . S
C1283 H1270 0.961 . S
C1283 H1271 0.959 . S
C1283 C1281 1.561 . S
C1284 C1281 1.526 . S
C1284 C1285 1.396 . S
C1284 C1289 1.390 . S
C1285 C1279 1.465 1_655 S
C1285 C1284 1.396 . S
C1285 C1286 1.399 . S
C1286 H1272 0.929 1_655 S
C1286 C1285 1.399 . S
C1286 C1287 1.385 . S
C1287 H1273 0.931 . S
C1287 C1286 1.385 . S
C1287 C1288 1.389 . S
C1288 C1287 1.389 . S
C1288 C1289 1.387 . S
C1289 H1274 0.930 . S
C1289 C1284 1.390 . S
C1289 C1288 1.387 . S
H1290 C1302 0.930 . S
H1291 C1304 0.930 . S
H1292 C1305 0.930 . S
H1293 C1309 0.959 . S
H1294 C1309 0.959 . S
H1295 C1309 0.961 . S
H1296 C1310 0.960 . S
H1297 C1310 0.961 . S
H1298 C1310 0.959 . S
H1299 C1313 0.929 . S
H1300 C1314 0.931 . S
H1301 C1316 0.930 . S
C1302 H1290 0.930 . S
C1302 C1303 1.399 . S
C1302 C1307 1.399 . S
C1303 C1302 1.399 . S
C1303 C1304 1.376 . S
C1304 H1291 0.930 . S
C1304 C1303 1.376 . S
C1304 C1305 1.388 . S
C1305 H1292 0.930 . S
C1305 C1304 1.388 . S
C1305 C1306 1.390 . S
C1306 C1305 1.390 . S
C1306 C1307 1.394 . S
C1306 C1312 1.465 . S
C1307 C1302 1.399 . S
C1307 C1306 1.394 . S
C1307 C1308 1.516 . S
C1308 C1307 1.516 . S
C1308 C1309 1.502 . S
C1308 C1310 1.561 . S
C1308 C1311 1.526 . S
C1309 H1293 0.959 . S
C1309 H1294 0.959 . S
C1309 H1295 0.961 . S
C1309 C1308 1.502 . S
C1310 H1296 0.960 . S
C1310 H1297 0.961 . S
C1310 H1298 0.959 . S
C1310 C1308 1.561 . S
C1311 C1308 1.526 . S
C1311 C1312 1.396 . S
C1311 C1316 1.390 . S
C1312 C1306 1.465 . S
C1312 C1311 1.396 . S
C1312 C1313 1.399 . S
C1313 H1299 0.929 . S
C1313 C1312 1.399 . S
C1313 C1314 1.385 . S
C1314 H1300 0.931 . S
C1314 C1313 1.385 . S
C1314 C1315 1.389 . S
C1315 C1314 1.389 . S
C1315 C1316 1.387 . S
C1316 H1301 0.930 . S
C1316 C1311 1.390 . S
C1316 C1315 1.387 . S
H1317 C1329 0.930 . S
H1318 C1331 0.930 . S
H1319 C1332 0.930 . S
H1320 C1336 0.959 . S
H1321 C1336 0.959 . S
H1322 C1336 0.961 . S
H1323 C1337 0.960 . S
H1324 C1337 0.961 . S
H1325 C1337 0.959 . S
H1326 C1340 0.929 . S
H1327 C1341 0.931 . S
H1328 C1343 0.930 . S
C1329 H1317 0.930 . S
C1329 C1330 1.399 . S
C1329 C1334 1.399 . S
C1330 C1329 1.399 . S
C1330 C1331 1.376 . S
C1331 H1318 0.930 . S
C1331 C1330 1.376 . S
C1331 C1332 1.388 . S
C1332 H1319 0.930 . S
C1332 C1331 1.388 . S
C1332 C1333 1.390 . S
C1333 C1332 1.390 . S
C1333 C1334 1.394 . S
C1333 C1339 1.465 . S
C1334 C1329 1.399 . S
C1334 C1333 1.394 . S
C1334 C1335 1.516 . S
C1335 C1334 1.516 . S
C1335 C1336 1.502 . S
C1335 C1337 1.561 . S
C1335 C1338 1.526 . S
C1336 H1320 0.959 . S
C1336 H1321 0.959 . S
C1336 H1322 0.961 . S
C1336 C1335 1.502 . S
C1337 H1323 0.960 . S
C1337 H1324 0.961 . S
C1337 H1325 0.959 . S
C1337 C1335 1.561 . S
C1338 C1335 1.526 . S
C1338 C1339 1.396 . S
C1338 C1343 1.390 . S
C1339 C1333 1.465 . S
C1339 C1338 1.396 . S
C1339 C1340 1.399 . S
C1340 H1326 0.929 . S
C1340 C1339 1.399 . S
C1340 C1341 1.385 . S
C1341 H1327 0.931 . S
C1341 C1340 1.385 . S
C1341 C1342 1.389 . S
C1342 C1341 1.389 . S
C1342 C1343 1.387 . S
C1343 H1328 0.930 . S
C1343 C1338 1.390 . S
C1343 C1342 1.387 . S
H1344 C1356 0.930 . S
H1345 C1358 0.930 . S
H1346 C1359 0.930 . S
H1347 C1363 0.959 . S
H1348 C1363 0.959 . S
H1349 C1363 0.961 . S
H1350 C1364 0.960 . S
H1351 C1364 0.961 . S
H1352 C1364 0.959 . S
H1353 C1367 0.929 . S
H1354 C1368 0.931 . S
H1355 C1370 0.930 . S
C1356 H1344 0.930 . S
C1356 C1357 1.399 . S
C1356 C1361 1.399 . S
C1357 C1356 1.399 . S
C1357 C1358 1.376 . S
C1358 H1345 0.930 . S
C1358 C1357 1.376 . S
C1358 C1359 1.388 . S
C1359 H1346 0.930 . S
C1359 C1358 1.388 . S
C1359 C1360 1.390 . S
C1360 C1359 1.390 . S
C1360 C1361 1.394 . S
C1360 C1366 1.465 . S
C1361 C1356 1.399 . S
C1361 C1360 1.394 . S
C1361 C1362 1.516 . S
C1362 C1361 1.516 . S
C1362 C1363 1.502 . S
C1362 C1364 1.561 . S
C1362 C1365 1.526 . S
C1363 H1347 0.959 . S
C1363 H1348 0.959 . S
C1363 H1349 0.961 . S
C1363 C1362 1.502 . S
C1364 H1350 0.960 . S
C1364 H1351 0.961 . S
C1364 H1352 0.959 . S
C1364 C1362 1.561 . S
C1365 C1362 1.526 . S
C1365 C1366 1.396 . S
C1365 C1370 1.390 . S
C1366 C1360 1.465 . S
C1366 C1365 1.396 . S
C1366 C1367 1.399 . S
C1367 H1353 0.929 . S
C1367 C1366 1.399 . S
C1367 C1368 1.385 . S
C1368 H1354 0.931 . S
C1368 C1367 1.385 . S
C1368 C1369 1.389 . S
C1369 C1368 1.389 . S
C1369 C1370 1.387 . S
C1370 H1355 0.930 . S
C1370 C1365 1.390 . S
C1370 C1369 1.387 . S
H1371 C1383 0.930 . S
H1372 C1385 0.930 . S
H1373 C1386 0.930 . S
H1374 C1390 0.959 . S
H1375 C1390 0.959 . S
H1376 C1390 0.961 . S
H1377 C1391 0.960 . S
H1378 C1391 0.961 . S
H1379 C1391 0.959 . S
H1380 C1394 0.929 . S
H1381 C1395 0.931 . S
H1382 C1397 0.930 . S
C1383 H1371 0.930 . S
C1383 C1384 1.399 . S
C1383 C1388 1.399 . S
C1384 C1383 1.399 . S
C1384 C1385 1.376 . S
C1385 H1372 0.930 . S
C1385 C1384 1.376 . S
C1385 C1386 1.388 . S
C1386 H1373 0.930 . S
C1386 C1385 1.388 . S
C1386 C1387 1.390 . S
C1387 C1386 1.390 . S
C1387 C1388 1.394 . S
C1387 C1393 1.465 . S
C1388 C1383 1.399 . S
C1388 C1387 1.394 . S
C1388 C1389 1.516 . S
C1389 C1388 1.516 . S
C1389 C1390 1.502 . S
C1389 C1391 1.561 . S
C1389 C1392 1.526 . S
C1390 H1374 0.959 . S
C1390 H1375 0.959 . S
C1390 H1376 0.961 . S
C1390 C1389 1.502 . S
C1391 H1377 0.960 . S
C1391 H1378 0.961 . S
C1391 H1379 0.959 . S
C1391 C1389 1.561 . S
C1392 C1389 1.526 . S
C1392 C1393 1.396 . S
C1392 C1397 1.390 . S
C1393 C1387 1.465 . S
C1393 C1392 1.396 . S
C1393 C1394 1.399 . S
C1394 H1380 0.929 . S
C1394 C1393 1.399 . S
C1394 C1395 1.385 . S
C1395 H1381 0.931 . S
C1395 C1394 1.385 . S
C1395 C1396 1.389 . S
C1396 C1395 1.389 . S
C1396 C1397 1.387 . S
C1397 H1382 0.930 . S
C1397 C1392 1.390 . S
C1397 C1396 1.387 . S
H1398 C1410 0.930 . S
H1399 C1412 0.930 . S
H1400 C1413 0.930 . S
H1401 C1417 0.959 . S
H1402 C1417 0.959 . S
H1403 C1417 0.961 . S
H1404 C1418 0.960 . S
H1405 C1418 0.961 . S
H1406 C1418 0.959 . S
H1407 C1421 0.929 . S
H1408 C1422 0.931 . S
H1409 C1424 0.930 . S
C1410 H1398 0.930 . S
C1410 C1411 1.399 . S
C1410 C1415 1.399 . S
C1411 C1410 1.399 . S
C1411 C1412 1.376 . S
C1412 H1399 0.930 . S
C1412 C1411 1.376 . S
C1412 C1413 1.388 . S
C1413 H1400 0.930 . S
C1413 C1412 1.388 . S
C1413 C1414 1.390 . S
C1414 C1413 1.390 . S
C1414 C1415 1.394 . S
C1414 C1420 1.465 . S
C1415 C1410 1.399 . S
C1415 C1414 1.394 . S
C1415 C1416 1.516 . S
C1416 C1415 1.516 . S
C1416 C1417 1.502 . S
C1416 C1418 1.561 . S
C1416 C1419 1.526 . S
C1417 H1401 0.959 . S
C1417 H1402 0.959 . S
C1417 H1403 0.961 . S
C1417 C1416 1.502 . S
C1418 H1404 0.960 . S
C1418 H1405 0.961 . S
C1418 H1406 0.959 . S
C1418 C1416 1.561 . S
C1419 C1416 1.526 . S
C1419 C1420 1.396 . S
C1419 C1424 1.390 . S
C1420 C1414 1.465 . S
C1420 C1419 1.396 . S
C1420 C1421 1.399 . S
C1421 H1407 0.929 . S
C1421 C1420 1.399 . S
C1421 C1422 1.385 . S
C1422 H1408 0.931 . S
C1422 C1421 1.385 . S
C1422 C1423 1.389 . S
C1423 C1422 1.389 . S
C1423 C1424 1.387 . S
C1424 H1409 0.930 . S
C1424 C1419 1.390 . S
C1424 C1423 1.387 . S
H1425 C1437 0.930 . S
H1426 C1439 0.930 . S
H1427 C1440 0.930 . S
H1428 C1444 0.959 . S
H1429 C1444 0.959 . S
H1430 C1444 0.961 . S
H1431 C1445 0.960 . S
H1432 C1445 0.961 . S
H1433 C1445 0.959 . S
H1434 C1448 0.929 . S
H1435 C1449 0.931 . S
H1436 C1451 0.930 . S
C1437 H1425 0.930 . S
C1437 C1438 1.399 . S
C1437 C1442 1.399 . S
C1438 C1437 1.399 . S
C1438 C1439 1.376 . S
C1439 H1426 0.930 . S
C1439 C1438 1.376 . S
C1439 C1440 1.388 . S
C1440 H1427 0.930 . S
C1440 C1439 1.388 . S
C1440 C1441 1.390 . S
C1441 C1440 1.390 . S
C1441 C1442 1.394 . S
C1441 C1447 1.465 . S
C1442 C1437 1.399 . S
C1442 C1441 1.394 . S
C1442 C1443 1.516 . S
C1443 C1442 1.516 . S
C1443 C1444 1.502 . S
C1443 C1445 1.561 . S
C1443 C1446 1.526 . S
C1444 H1428 0.959 . S
C1444 H1429 0.959 . S
C1444 H1430 0.961 . S
C1444 C1443 1.502 . S
C1445 H1431 0.960 . S
C1445 H1432 0.961 . S
C1445 H1433 0.959 . S
C1445 C1443 1.561 . S
C1446 C1443 1.526 . S
C1446 C1447 1.396 . S
C1446 C1451 1.390 . S
C1447 C1441 1.465 . S
C1447 C1446 1.396 . S
C1447 C1448 1.399 . S
C1448 H1434 0.929 . S
C1448 C1447 1.399 . S
C1448 C1449 1.385 . S
C1449 H1435 0.931 . S
C1449 C1448 1.385 . S
C1449 C1450 1.389 . S
C1450 C1449 1.389 . S
C1450 C1451 1.387 . S
C1451 H1436 0.930 . S
C1451 C1446 1.390 . S
C1451 C1450 1.387 . S
C493 C18 1.082 . S
C505 C338 1.008 . S
C520 C58 0.993 . S
C532 C378 1.041 . S
C547 C98 1.094 . S
C559 C418 1.021 . S
C574 C458 1.048 . S
C586 C138 1.105 . S
C601 C178 1.107 . S
C613 C258 1.060 . S
C628 C298 1.084 . S
C640 C218 1.100 . S
C655 C405 1.649 . S
C667 C5 1.642 . S
C682 C445 1.650 . S
C694 C45 1.640 . S
C709 C85 1.630 . S
C721 C245 1.588 . S
C736 C285 1.619 . S
C748 C125 1.652 . S
C763 C325 1.651 . S
C775 C165 1.639 . S
C790 C205 1.638 . S
C802 C365 1.593 . S
C817 C289 4.319 . S
C829 C9 4.307 . S
C844 C329 4.297 . S
C856 C49 4.301 . S
C871 C369 4.300 . S
C883 C89 4.318 . S
C898 C129 4.314 . S
C910 C409 4.315 . S
C925 C169 4.301 . S
C937 C449 4.319 . S
C952 C209 4.298 . S
C964 C249 4.299 . S
C979 C8 0.589 . S
C991 C128 0.645 . S
C1006 C48 0.687 . S
C1018 C168 0.463 . S
C1033 C88 0.617 . S
C1045 C208 0.506 . S
C1060 C368 0.640 . S
C1072 C248 0.487 . S
C1087 C288 0.542 . S
C1099 C408 0.675 . S
C1114 C448 0.548 . S
C1126 C328 0.672 . S
C1141 C295 0.698 . S
C1153 C15 0.595 . S
C1168 C335 0.705 . S
C1180 C55 0.594 . S
C1195 C95 0.782 . S
C1207 C375 0.649 . S
C1222 C415 0.712 . S
C1234 C135 0.593 . S
C1249 C455 0.696 . S
C1261 C175 0.781 . S
C1276 C215 0.779 . S
C1288 C255 0.641 . S
C1303 C19 4.648 . S
C1315 C419 4.646 . S
C1330 C59 4.652 . S
C1342 C459 4.650 1_556 S
C1357 C99 4.652 1_554 S
C1369 C259 4.652 . S
C1384 C139 4.651 . S
C1396 C299 4.653 . S
C1411 C179 4.646 . S
C1423 C339 4.650 1_556 S
C1438 C379 4.645 . S
C1450 C219 4.648 1_554 S
