# Generated by pormake.
# Topology afi, (4)-cn, num edge types: 1
# Building blocks:
#     Node 0, Type 0, BuildingBlock: ICAMEG_clean_sbu_1, # of connection points: 4
#     Node 1, Type 0, BuildingBlock: ICAMEG_clean_sbu_1, # of connection points: 4
#     Node 2, Type 0, BuildingBlock: ICAMEG_clean_sbu_1, # of connection points: 4
#     Node 3, Type 0, BuildingBlock: ICAMEG_clean_sbu_1, # of connection points: 4
#     Node 4, Type 0, BuildingBlock: ICAMEG_clean_sbu_1, # of connection points: 4
#     Node 5, Type 0, BuildingBlock: ICAMEG_clean_sbu_1, # of connection points: 4
#     Node 6, Type 0, BuildingBlock: ICAMEG_clean_sbu_1, # of connection points: 4
#     Node 7, Type 0, BuildingBlock: ICAMEG_clean_sbu_1, # of connection points: 4
#     Node 8, Type 0, BuildingBlock: ICAMEG_clean_sbu_1, # of connection points: 4
#     Node 9, Type 0, BuildingBlock: ICAMEG_clean_sbu_1, # of connection points: 4
#     Node 10, Type 0, BuildingBlock: ICAMEG_clean_sbu_1, # of connection points: 4
#     Node 11, Type 0, BuildingBlock: ICAMEG_clean_sbu_1, # of connection points: 4
#     Node 12, Type 0, BuildingBlock: ICAMEG_clean_sbu_1, # of connection points: 4
#     Node 13, Type 0, BuildingBlock: ICAMEG_clean_sbu_1, # of connection points: 4
#     Node 14, Type 0, BuildingBlock: ICAMEG_clean_sbu_1, # of connection points: 4
#     Node 15, Type 0, BuildingBlock: ICAMEG_clean_sbu_1, # of connection points: 4
#     Node 16, Type 0, BuildingBlock: ICAMEG_clean_sbu_1, # of connection points: 4
#     Node 17, Type 0, BuildingBlock: ICAMEG_clean_sbu_1, # of connection points: 4
#     Node 18, Type 0, BuildingBlock: ICAMEG_clean_sbu_1, # of connection points: 4
#     Node 19, Type 0, BuildingBlock: ICAMEG_clean_sbu_1, # of connection points: 4
#     Node 20, Type 0, BuildingBlock: ICAMEG_clean_sbu_1, # of connection points: 4
#     Node 21, Type 0, BuildingBlock: ICAMEG_clean_sbu_1, # of connection points: 4
#     Node 22, Type 0, BuildingBlock: ICAMEG_clean_sbu_1, # of connection points: 4
#     Node 23, Type 0, BuildingBlock: ICAMEG_clean_sbu_1, # of connection points: 4
#     Edge 24, Type (0, 0), BuildingBlock: KIFKEQ_clean_linker_1, # of connection points: 2
#     Edge 25, Type (0, 0), BuildingBlock: KIFKEQ_clean_linker_1, # of connection points: 2
#     Edge 26, Type (0, 0), BuildingBlock: KIFKEQ_clean_linker_1, # of connection points: 2
#     Edge 27, Type (0, 0), BuildingBlock: KIFKEQ_clean_linker_1, # of connection points: 2
#     Edge 28, Type (0, 0), BuildingBlock: KIFKEQ_clean_linker_1, # of connection points: 2
#     Edge 29, Type (0, 0), BuildingBlock: KIFKEQ_clean_linker_1, # of connection points: 2
#     Edge 30, Type (0, 0), BuildingBlock: KIFKEQ_clean_linker_1, # of connection points: 2
#     Edge 31, Type (0, 0), BuildingBlock: KIFKEQ_clean_linker_1, # of connection points: 2
#     Edge 32, Type (0, 0), BuildingBlock: KIFKEQ_clean_linker_1, # of connection points: 2
#     Edge 33, Type (0, 0), BuildingBlock: KIFKEQ_clean_linker_1, # of connection points: 2
#     Edge 34, Type (0, 0), BuildingBlock: KIFKEQ_clean_linker_1, # of connection points: 2
#     Edge 35, Type (0, 0), BuildingBlock: KIFKEQ_clean_linker_1, # of connection points: 2
#     Edge 36, Type (0, 0), BuildingBlock: KIFKEQ_clean_linker_1, # of connection points: 2
#     Edge 37, Type (0, 0), BuildingBlock: KIFKEQ_clean_linker_1, # of connection points: 2
#     Edge 38, Type (0, 0), BuildingBlock: KIFKEQ_clean_linker_1, # of connection points: 2
#     Edge 39, Type (0, 0), BuildingBlock: KIFKEQ_clean_linker_1, # of connection points: 2
#     Edge 40, Type (0, 0), BuildingBlock: KIFKEQ_clean_linker_1, # of connection points: 2
#     Edge 41, Type (0, 0), BuildingBlock: KIFKEQ_clean_linker_1, # of connection points: 2
#     Edge 42, Type (0, 0), BuildingBlock: KIFKEQ_clean_linker_1, # of connection points: 2
#     Edge 43, Type (0, 0), BuildingBlock: KIFKEQ_clean_linker_1, # of connection points: 2
#     Edge 44, Type (0, 0), BuildingBlock: KIFKEQ_clean_linker_1, # of connection points: 2
#     Edge 45, Type (0, 0), BuildingBlock: KIFKEQ_clean_linker_1, # of connection points: 2
#     Edge 46, Type (0, 0), BuildingBlock: KIFKEQ_clean_linker_1, # of connection points: 2
#     Edge 47, Type (0, 0), BuildingBlock: KIFKEQ_clean_linker_1, # of connection points: 2
#     Edge 48, Type (0, 0), BuildingBlock: KIFKEQ_clean_linker_1, # of connection points: 2
#     Edge 49, Type (0, 0), BuildingBlock: KIFKEQ_clean_linker_1, # of connection points: 2
#     Edge 50, Type (0, 0), BuildingBlock: KIFKEQ_clean_linker_1, # of connection points: 2
#     Edge 51, Type (0, 0), BuildingBlock: KIFKEQ_clean_linker_1, # of connection points: 2
#     Edge 52, Type (0, 0), BuildingBlock: KIFKEQ_clean_linker_1, # of connection points: 2
#     Edge 53, Type (0, 0), BuildingBlock: KIFKEQ_clean_linker_1, # of connection points: 2
#     Edge 54, Type (0, 0), BuildingBlock: KIFKEQ_clean_linker_1, # of connection points: 2
#     Edge 55, Type (0, 0), BuildingBlock: KIFKEQ_clean_linker_1, # of connection points: 2
#     Edge 56, Type (0, 0), BuildingBlock: KIFKEQ_clean_linker_1, # of connection points: 2
#     Edge 57, Type (0, 0), BuildingBlock: KIFKEQ_clean_linker_1, # of connection points: 2
#     Edge 58, Type (0, 0), BuildingBlock: KIFKEQ_clean_linker_1, # of connection points: 2
#     Edge 59, Type (0, 0), BuildingBlock: KIFKEQ_clean_linker_1, # of connection points: 2
#     Edge 60, Type (0, 0), BuildingBlock: KIFKEQ_clean_linker_1, # of connection points: 2
#     Edge 61, Type (0, 0), BuildingBlock: KIFKEQ_clean_linker_1, # of connection points: 2
#     Edge 62, Type (0, 0), BuildingBlock: KIFKEQ_clean_linker_1, # of connection points: 2
#     Edge 63, Type (0, 0), BuildingBlock: KIFKEQ_clean_linker_1, # of connection points: 2
#     Edge 64, Type (0, 0), BuildingBlock: KIFKEQ_clean_linker_1, # of connection points: 2
#     Edge 65, Type (0, 0), BuildingBlock: KIFKEQ_clean_linker_1, # of connection points: 2
#     Edge 66, Type (0, 0), BuildingBlock: KIFKEQ_clean_linker_1, # of connection points: 2
#     Edge 67, Type (0, 0), BuildingBlock: KIFKEQ_clean_linker_1, # of connection points: 2
#     Edge 68, Type (0, 0), BuildingBlock: KIFKEQ_clean_linker_1, # of connection points: 2
#     Edge 69, Type (0, 0), BuildingBlock: KIFKEQ_clean_linker_1, # of connection points: 2
#     Edge 70, Type (0, 0), BuildingBlock: KIFKEQ_clean_linker_1, # of connection points: 2
#     Edge 71, Type (0, 0), BuildingBlock: KIFKEQ_clean_linker_1, # of connection points: 2
# Relax obj value: 0.122
# Max RMSD: 0.173
# Mean RMSD: 0.173
data_MOF--net-afi--node1-ICAMEG_clean_sbu_1--edge1-KIFKEQ_clean_linker_1
_symmetry_space_group_name_H-M    P1
_symmetry_Int_Tables_number       1
_symmetry_cell_setting            triclinic
loop_
_symmetry_equiv_pos_as_xyz
'x, y, z'
_cell_length_a     71.423232
_cell_length_b     71.43131
_cell_length_c     45.171638
_cell_angle_alpha  90.026782
_cell_angle_beta   89.953829
_cell_angle_gamma 120.01436
loop_
_atom_site_label
_atom_site_type_symbol
_atom_site_fract_x
_atom_site_fract_y
_atom_site_fract_z
_atom_type_partial_charge
Co0 Co 0.47649 0.1101 0.16113 0.0
Co1 Co 0.46575 0.12865 0.22551 0.0
O2 O 0.46647 0.12808 0.18159 0.0
C3 C 0.44339 0.10971 0.1167 0.0
O4 O 0.43901 0.1225 0.13248 0.0
C5 C 0.47786 0.17509 0.2084 0.0
O6 O 0.47862 0.17187 0.17993 0.0
O7 O 0.49716 0.13827 0.22692 0.0
O8 O 0.49786 0.11557 0.19345 0.0
H9 H 0.48315 0.1132 0.32724 0.0
H10 H 0.47817 0.14856 0.13185 0.0
O11 O 0.45616 0.10354 0.12658 0.0
H12 H 0.55193 0.16013 0.12355 0.0
H13 H 0.49835 0.08132 0.07371 0.0
H14 H 0.48649 0.07664 0.18165 0.0
H15 H 0.52329 0.12758 0.14794 0.0
H16 H 0.48684 0.10463 0.09852 0.0
O17 O 0.47323 0.15991 0.22689 0.0
H18 H 0.48299 0.11256 0.27268 0.0
H19 H 0.44807 0.14629 0.27077 0.0
H20 H 0.49826 0.05322 0.15774 0.0
H21 H 0.50615 0.1811 0.10686 0.0
H22 H 0.50425 0.05545 0.10338 0.0
H23 H 0.54344 0.18717 0.10257 0.0
O24 O 0.45383 0.08379 0.18224 0.0
H25 H 0.39988 0.12923 0.18725 0.0
H26 H 0.4266 0.09475 0.25682 0.0
H27 H 0.38757 0.08196 0.25445 0.0
H28 H 0.37397 0.0993 0.21958 0.0
H29 H 0.43872 0.14133 0.19011 0.0
H30 H 0.44803 0.14745 0.32531 0.0
H31 H 0.46558 0.13074 0.35394 0.0
O32 O 0.45829 0.0976 0.22782 0.0
C33 C 0.50646 0.12901 0.21464 0.0
C34 C 0.47538 0.12047 0.31502 0.0
C35 C 0.4557 0.13972 0.31394 0.0
N36 N 0.46537 0.1292 0.2685 0.0
C37 C 0.47519 0.12011 0.28411 0.0
C38 C 0.45581 0.13904 0.28304 0.0
C39 C 0.46554 0.13033 0.32998 0.0
C40 C 0.49411 0.15072 0.12971 0.0
N41 N 0.49878 0.13577 0.14096 0.0
C42 C 0.51002 0.16936 0.11569 0.0
C43 C 0.53095 0.17278 0.11335 0.0
C44 C 0.53571 0.15764 0.12512 0.0
C45 C 0.51938 0.1392 0.13899 0.0
C46 C 0.49581 0.0802 0.09742 0.0
C47 C 0.48916 0.0778 0.15801 0.0
C48 C 0.48919 0.0933 0.1116 0.0
N49 N 0.48605 0.09208 0.14158 0.0
C50 C 0.49578 0.06446 0.14458 0.0
C51 C 0.49912 0.0657 0.11408 0.0
C52 C 0.4513 0.08151 0.21026 0.0
C53 C 0.40562 0.12164 0.20269 0.0
C54 C 0.42085 0.10241 0.24157 0.0
C55 C 0.39871 0.09509 0.24035 0.0
C56 C 0.39109 0.10483 0.22079 0.0
N57 N 0.43506 0.11907 0.22395 0.0
C58 C 0.42766 0.12854 0.20453 0.0
Co59 Co 0.36694 0.4721 0.16652 0.0
Co60 Co 0.34222 0.46157 0.23454 0.0
O61 O 0.34064 0.46076 0.19096 0.0
C62 C 0.35744 0.43859 0.12129 0.0
O63 O 0.37374 0.43741 0.13264 0.0
C64 C 0.31294 0.48013 0.2249 0.0
O65 O 0.3263 0.49336 0.20481 0.0
O66 O 0.36276 0.49342 0.23376 0.0
O67 O 0.38415 0.49519 0.19631 0.0
H68 H 0.38058 0.48357 0.33249 0.0
H69 H 0.3265 0.46637 0.14021 0.0
O70 O 0.35051 0.44973 0.13472 0.0
H71 H 0.37931 0.54404 0.1294 0.0
H72 H 0.41046 0.4975 0.07205 0.0
H73 H 0.4126 0.48536 0.17915 0.0
H74 H 0.38997 0.51945 0.15223 0.0
H75 H 0.3774 0.48334 0.10228 0.0
O76 O 0.31683 0.46647 0.23747 0.0
H77 H 0.37803 0.48183 0.27803 0.0
H78 H 0.30963 0.44337 0.28331 0.0
H79 H 0.44607 0.49961 0.14973 0.0
H80 H 0.31521 0.49034 0.11684 0.0
H81 H 0.44513 0.50575 0.09577 0.0
H82 H 0.34169 0.5295 0.11139 0.0
O83 O 0.37486 0.45208 0.18712 0.0
H84 H 0.27528 0.39306 0.2047 0.0
H85 H 0.34165 0.42415 0.26507 0.0
H86 H 0.3169 0.38471 0.26515 0.0
H87 H 0.2834 0.36892 0.23489 0.0
H88 H 0.30062 0.43243 0.20504 0.0
H89 H 0.31143 0.44486 0.33782 0.0
H90 H 0.34711 0.46501 0.36278 0.0
O91 O 0.36721 0.45618 0.23401 0.0
C92 C 0.3803 0.50341 0.21895 0.0
C93 C 0.36494 0.47471 0.32188 0.0
C94 C 0.32613 0.45301 0.32487 0.0
N95 N 0.34372 0.46246 0.27747 0.0
C96 C 0.36339 0.47363 0.29104 0.0
C97 C 0.32521 0.45229 0.29398 0.0
C98 C 0.34615 0.46431 0.33886 0.0
C99 C 0.33817 0.48336 0.13769 0.0
N100 N 0.3589 0.49147 0.14752 0.0
C101 C 0.33166 0.49687 0.12453 0.0
C102 C 0.34652 0.51884 0.12153 0.0
C103 C 0.36761 0.52701 0.13166 0.0
C104 C 0.37354 0.51302 0.14471 0.0
C105 C 0.41108 0.49489 0.09555 0.0
C106 C 0.41204 0.48797 0.15568 0.0
C107 C 0.3924 0.48687 0.1128 0.0
N108 N 0.39302 0.48344 0.1425 0.0
C109 C 0.43106 0.49606 0.13914 0.0
C110 C 0.43052 0.49951 0.10886 0.0
C111 C 0.37615 0.4499 0.21504 0.0
C112 C 0.28981 0.39975 0.21803 0.0
C113 C 0.32716 0.4174 0.25171 0.0
C114 C 0.31318 0.39506 0.25192 0.0
C115 C 0.29438 0.38621 0.23495 0.0
N116 N 0.32252 0.43058 0.23514 0.0
C117 C 0.30417 0.42202 0.21836 0.0
Co118 Co 0.90522 0.37095 0.16412 0.0
Co119 Co 0.88684 0.34007 0.22769 0.0
O120 O 0.88713 0.3427 0.18394 0.0
C121 C 0.90598 0.33863 0.11948 0.0
O122 O 0.89366 0.32149 0.13557 0.0
C123 C 0.83964 0.30831 0.21056 0.0
O124 O 0.84269 0.31388 0.18254 0.0
O125 O 0.87884 0.36304 0.23196 0.0
O126 O 0.89982 0.38637 0.19705 0.0
H127 H 0.90523 0.36982 0.33107 0.0
H128 H 0.86721 0.33464 0.13344 0.0
O129 O 0.91172 0.35754 0.12909 0.0
H130 H 0.85474 0.3964 0.12888 0.0
H131 H 0.93366 0.42258 0.07779 0.0
H132 H 0.93873 0.41419 0.18534 0.0
H133 H 0.88734 0.40015 0.15287 0.0
H134 H 0.91048 0.38746 0.10195 0.0
O135 O 0.85516 0.31736 0.22901 0.0
H136 H 0.90523 0.37191 0.27659 0.0
H137 H 0.86794 0.30343 0.27097 0.0
H138 H 0.96205 0.44966 0.16208 0.0
H139 H 0.83465 0.33027 0.10877 0.0
H140 H 0.95962 0.45403 0.10791 0.0
H141 H 0.82813 0.36128 0.10639 0.0
O142 O 0.93168 0.37458 0.18468 0.0
H143 H 0.88144 0.27291 0.18333 0.0
H144 H 0.91938 0.3313 0.25626 0.0
H145 H 0.92996 0.30355 0.25049 0.0
H146 H 0.91086 0.274 0.2139 0.0
H147 H 0.8716 0.30114 0.18958 0.0
H148 H 0.86739 0.30064 0.32539 0.0
H149 H 0.8862 0.33399 0.35583 0.0
O150 O 0.91832 0.36228 0.22985 0.0
C151 C 0.88759 0.3816 0.21966 0.0
C152 C 0.89702 0.35517 0.31804 0.0
C153 C 0.87576 0.31635 0.31486 0.0
N154 N 0.88671 0.33782 0.27056 0.0
C155 C 0.897 0.35625 0.28718 0.0
C156 C 0.87608 0.31804 0.28404 0.0
C157 C 0.88632 0.33506 0.33192 0.0
C158 C 0.86483 0.34834 0.13216 0.0
N159 N 0.87951 0.36772 0.14432 0.0
C160 C 0.84619 0.34571 0.1183 0.0
C161 C 0.84251 0.36309 0.11703 0.0
C162 C 0.85742 0.38277 0.12966 0.0
C163 C 0.87586 0.38478 0.14333 0.0
C164 C 0.93486 0.42089 0.10141 0.0
C165 C 0.93748 0.41597 0.16178 0.0
C166 C 0.92183 0.40101 0.11523 0.0
N167 N 0.92316 0.39876 0.1451 0.0
C168 C 0.95077 0.43609 0.14872 0.0
C169 C 0.94941 0.43853 0.11833 0.0
C170 C 0.93421 0.37257 0.21226 0.0
C171 C 0.88981 0.28564 0.19947 0.0
C172 C 0.91104 0.31858 0.2402 0.0
C173 C 0.91707 0.30286 0.23709 0.0
C174 C 0.90635 0.28628 0.21658 0.0
N175 N 0.89469 0.31778 0.22349 0.0
C176 C 0.88421 0.30163 0.20321 0.0
Co177 Co 0.53688 0.90091 0.15751 0.0
Co178 Co 0.54933 0.88346 0.22163 0.0
O179 O 0.54755 0.88344 0.17777 0.0
C180 C 0.57 0.9017 0.11278 0.0
O181 O 0.57497 0.88953 0.12895 0.0
C182 C 0.53507 0.83644 0.20541 0.0
O183 O 0.53116 0.8388 0.1777 0.0
O184 O 0.51798 0.87384 0.22463 0.0
O185 O 0.51585 0.89536 0.19042 0.0
H186 H 0.53442 0.90017 0.32416 0.0
H187 H 0.53568 0.86281 0.12779 0.0
O188 O 0.55685 0.90746 0.12245 0.0
H189 H 0.46118 0.84951 0.12218 0.0
H190 H 0.51315 0.92825 0.07054 0.0
H191 H 0.5264 0.93401 0.17817 0.0
H192 H 0.48976 0.88245 0.14592 0.0
H193 H 0.52553 0.90559 0.09514 0.0
O194 O 0.54207 0.8523 0.22336 0.0
H195 H 0.53316 0.90004 0.26963 0.0
H196 H 0.56842 0.86668 0.26599 0.0
H197 H 0.51377 0.95679 0.15446 0.0
H198 H 0.50778 0.82992 0.10337 0.0
H199 H 0.50708 0.95401 0.10026 0.0
H200 H 0.47012 0.82298 0.10047 0.0
O201 O 0.55954 0.92763 0.17787 0.0
H202 H 0.61374 0.8814 0.18071 0.0
H203 H 0.58946 0.91816 0.25028 0.0
H204 H 0.62836 0.93069 0.24575 0.0
H205 H 0.64073 0.91221 0.21085 0.0
H206 H 0.57501 0.86955 0.18573 0.0
H207 H 0.56989 0.8663 0.32049 0.0
H208 H 0.55289 0.88321 0.34997 0.0
O209 O 0.55675 0.91449 0.22357 0.0
C210 C 0.50811 0.88255 0.21246 0.0
C211 C 0.54195 0.89281 0.31156 0.0
C212 C 0.56184 0.87379 0.3095 0.0
N213 N 0.55085 0.88353 0.26458 0.0
C214 C 0.54134 0.89274 0.28066 0.0
C215 C 0.56091 0.87402 0.27863 0.0
C216 C 0.5523 0.88328 0.32603 0.0
C217 C 0.51956 0.86027 0.12624 0.0
N218 N 0.51463 0.87491 0.13795 0.0
C219 C 0.5037 0.84143 0.11254 0.0
C220 C 0.48257 0.83752 0.11098 0.0
C221 C 0.47755 0.85238 0.12318 0.0
C222 C 0.49384 0.87102 0.1367 0.0
C223 C 0.51599 0.9296 0.09418 0.0
C224 C 0.52342 0.93261 0.15459 0.0
C225 C 0.5231 0.91687 0.10824 0.0
N226 N 0.52663 0.9184 0.13813 0.0
C227 C 0.51631 0.94559 0.14128 0.0
C228 C 0.51258 0.94404 0.11087 0.0
C229 C 0.56288 0.93031 0.20572 0.0
C230 C 0.60854 0.88952 0.1961 0.0
C231 C 0.59469 0.91005 0.23497 0.0
C232 C 0.61676 0.91721 0.23255 0.0
C233 C 0.62368 0.90683 0.21298 0.0
N234 N 0.57992 0.89296 0.21848 0.0
C235 C 0.58661 0.88281 0.19913 0.0
Co236 Co 0.64238 0.53521 0.16174 0.0
Co237 Co 0.67414 0.54845 0.22454 0.0
O238 O 0.67068 0.54586 0.18107 0.0
C239 C 0.67427 0.5693 0.11793 0.0
O240 O 0.69112 0.57526 0.13515 0.0
C241 C 0.69786 0.52513 0.23806 0.0
O242 O 0.68117 0.51218 0.25449 0.0
O243 O 0.65101 0.51752 0.22954 0.0
O244 O 0.62749 0.51413 0.19436 0.0
H245 H 0.64738 0.53763 0.32952 0.0
H246 H 0.67941 0.5349 0.13134 0.0
O247 O 0.65539 0.5553 0.12677 0.0
H248 H 0.61888 0.46002 0.12479 0.0
H249 H 0.59009 0.51084 0.07613 0.0
H250 H 0.59905 0.52474 0.18357 0.0
H251 H 0.61408 0.48806 0.14942 0.0
H252 H 0.62547 0.52335 0.09985 0.0
O253 O 0.69718 0.53976 0.22245 0.0
H254 H 0.64374 0.5348 0.27519 0.0
H255 H 0.71207 0.56774 0.26574 0.0
H256 H 0.56334 0.512 0.1608 0.0
H257 H 0.68481 0.5075 0.10605 0.0
H258 H 0.55868 0.50498 0.10669 0.0
H259 H 0.65443 0.46968 0.10264 0.0
O260 O 0.63824 0.55744 0.18317 0.0
H261 H 0.74141 0.60903 0.179 0.0
H262 H 0.68294 0.59041 0.25131 0.0
H263 H 0.71079 0.6286 0.24411 0.0
H264 H 0.74036 0.63812 0.20781 0.0
H265 H 0.71304 0.57105 0.18663 0.0
H266 H 0.71643 0.57087 0.31997 0.0
H267 H 0.68394 0.55577 0.35226 0.0
O268 O 0.65179 0.55758 0.22806 0.0
C269 C 0.6325 0.50719 0.21722 0.0
C270 C 0.66166 0.54429 0.31569 0.0
C271 C 0.70042 0.56294 0.31033 0.0
N272 N 0.67765 0.5511 0.26728 0.0
C273 C 0.6597 0.54274 0.2849 0.0
C274 C 0.69784 0.56111 0.27963 0.0
C275 C 0.68218 0.55446 0.32843 0.0
C276 C 0.66597 0.51866 0.1296 0.0
N277 N 0.6463 0.51333 0.14144 0.0
C278 C 0.66919 0.50312 0.1154 0.0
C279 C 0.65216 0.4819 0.11355 0.0
C280 C 0.63222 0.47647 0.12597 0.0
C281 C 0.62961 0.49245 0.13999 0.0
C282 C 0.59192 0.51386 0.09973 0.0
C283 C 0.59717 0.52166 0.16003 0.0
C284 C 0.61195 0.52106 0.11327 0.0
N285 N 0.61437 0.52482 0.14309 0.0
C286 C 0.57689 0.51448 0.14725 0.0
C287 C 0.5743 0.51056 0.11688 0.0
C288 C 0.64063 0.5623 0.21071 0.0
C289 C 0.72862 0.60509 0.19491 0.0
C290 C 0.69561 0.59442 0.23526 0.0
C291 C 0.71141 0.61607 0.23139 0.0
C292 C 0.72801 0.6214 0.21105 0.0
N293 N 0.69633 0.5785 0.21938 0.0
C294 C 0.71255 0.58361 0.19938 0.0
Co295 Co 0.11282 0.64711 0.16539 0.0
Co296 Co 0.1321 0.67442 0.23052 0.0
O297 O 0.1315 0.67398 0.18705 0.0
C298 C 0.09249 0.66052 0.11884 0.0
O299 O 0.0737 0.647 0.13076 0.0
C300 C 0.17923 0.69769 0.24388 0.0
O301 O 0.17587 0.68014 0.25781 0.0
O302 O 0.13989 0.65115 0.23038 0.0
O303 O 0.11586 0.62914 0.19694 0.0
H304 H 0.11614 0.64037 0.33151 0.0
H305 H 0.15076 0.68287 0.13537 0.0
O306 O 0.10988 0.6644 0.13207 0.0
H307 H 0.16239 0.62046 0.13006 0.0
H308 H 0.08582 0.59903 0.07518 0.0
H309 H 0.07592 0.6044 0.18227 0.0
H310 H 0.12978 0.61698 0.15399 0.0
H311 H 0.10969 0.63261 0.10233 0.0
O312 O 0.16372 0.69768 0.22967 0.0
H313 H 0.11541 0.64058 0.27694 0.0
H314 H 0.15058 0.70925 0.27655 0.0
H315 H 0.05174 0.57051 0.15598 0.0
H316 H 0.18348 0.68697 0.11087 0.0
H317 H 0.05659 0.56766 0.10203 0.0
H318 H 0.18947 0.65563 0.10813 0.0
O319 O 0.08697 0.64454 0.18668 0.0
H320 H 0.13798 0.74401 0.19595 0.0
H321 H 0.09892 0.68103 0.26183 0.0
H322 H 0.08838 0.70903 0.26051 0.0
H323 H 0.10803 0.74086 0.22749 0.0
H324 H 0.14783 0.71548 0.19769 0.0
H325 H 0.15175 0.70977 0.33111 0.0
H326 H 0.13441 0.67514 0.35897 0.0
O327 O 0.10054 0.6518 0.23272 0.0
C328 C 0.12931 0.63276 0.21776 0.0
C329 C 0.12374 0.65556 0.31962 0.0
C330 C 0.14372 0.69451 0.3194 0.0
N331 N 0.1329 0.67489 0.27354 0.0
C332 C 0.12337 0.65578 0.28871 0.0
C333 C 0.14302 0.69411 0.2885 0.0
C334 C 0.134 0.67508 0.33501 0.0
C335 C 0.15317 0.66911 0.13407 0.0
N336 N 0.13827 0.64968 0.14591 0.0
C337 C 0.17177 0.67155 0.12026 0.0
C338 C 0.17513 0.65396 0.11876 0.0
C339 C 0.15995 0.63423 0.13107 0.0
C340 C 0.14154 0.63239 0.14469 0.0
C341 C 0.08353 0.60008 0.09868 0.0
C342 C 0.07814 0.60334 0.15879 0.0
C343 C 0.09698 0.61907 0.11419 0.0
N344 N 0.09417 0.62055 0.14389 0.0
C345 C 0.0644 0.58408 0.14402 0.0
C346 C 0.06713 0.58249 0.11376 0.0
C347 C 0.08452 0.64393 0.21482 0.0
C348 C 0.12933 0.73025 0.21049 0.0
C349 C 0.10748 0.69476 0.24726 0.0
C350 C 0.10147 0.7106 0.24669 0.0
C351 C 0.11251 0.72846 0.22817 0.0
N352 N 0.12408 0.69669 0.22997 0.0
C353 C 0.13489 0.71408 0.21164 0.0
Co354 Co 0.90184 0.5421 0.35286 0.0
Co355 Co 0.88772 0.55346 0.2854 0.0
O356 O 0.88674 0.55352 0.32897 0.0
C357 C 0.92518 0.57499 0.39909 0.0
O358 O 0.9429 0.57658 0.38789 0.0
C359 C 0.83979 0.53394 0.29514 0.0
O360 O 0.84025 0.52065 0.31481 0.0
O361 O 0.87691 0.52172 0.28511 0.0
O362 O 0.89639 0.51952 0.32239 0.0
H363 H 0.9051 0.53367 0.18645 0.0
H364 H 0.86664 0.54688 0.37957 0.0
O365 O 0.90729 0.56391 0.38527 0.0
H366 H 0.8427 0.4693 0.38829 0.0
H367 H 0.92001 0.51577 0.44634 0.0
H368 H 0.93472 0.5296 0.33953 0.0
H369 H 0.87797 0.49456 0.36597 0.0
H370 H 0.9009 0.52998 0.41674 0.0
O371 O 0.85722 0.548 0.28268 0.0
H372 H 0.90405 0.5345 0.24097 0.0
H373 H 0.87295 0.57191 0.2375 0.0
H374 H 0.95414 0.51531 0.36832 0.0
H375 H 0.83134 0.52223 0.40247 0.0
H376 H 0.94685 0.50832 0.42214 0.0
H377 H 0.81913 0.48311 0.40686 0.0
O378 O 0.92983 0.5627 0.33268 0.0
H379 H 0.88783 0.62079 0.3177 0.0
H380 H 0.92433 0.59172 0.25584 0.0
H381 H 0.93839 0.63104 0.25702 0.0
H382 H 0.92005 0.64581 0.28803 0.0
H383 H 0.87443 0.58156 0.3161 0.0
H384 H 0.8735 0.57133 0.18294 0.0
H385 H 0.88974 0.55217 0.15705 0.0
O386 O 0.91829 0.55939 0.28579 0.0
C387 C 0.88451 0.51163 0.29951 0.0
C388 C 0.89802 0.5421 0.19747 0.0
C389 C 0.88026 0.56322 0.1955 0.0
N390 N 0.88852 0.5533 0.24244 0.0
C391 C 0.89741 0.54267 0.22835 0.0
C392 C 0.87993 0.56343 0.22641 0.0
C393 C 0.88938 0.55247 0.18099 0.0
C394 C 0.86153 0.52991 0.38163 0.0
N395 N 0.87441 0.5222 0.37147 0.0
C396 C 0.84149 0.51602 0.39452 0.0
C397 C 0.83463 0.49407 0.39693 0.0
C398 C 0.84783 0.48631 0.38649 0.0
C399 C 0.86776 0.50068 0.37371 0.0
C400 C 0.92333 0.51875 0.42291 0.0
C401 C 0.93146 0.52662 0.36294 0.0
C402 C 0.91257 0.52681 0.40601 0.0
N403 N 0.91673 0.53071 0.3764 0.0
C404 C 0.9425 0.51851 0.37913 0.0
C405 C 0.93839 0.51459 0.40932 0.0
C406 C 0.93343 0.56543 0.30481 0.0
C407 C 0.89593 0.61455 0.30405 0.0
C408 C 0.91632 0.59802 0.26952 0.0
C409 C 0.92433 0.6203 0.27003 0.0
C410 C 0.91402 0.62858 0.28742 0.0
N411 N 0.89851 0.58436 0.28581 0.0
C412 C 0.88838 0.59235 0.303 0.0
Co413 Co 0.37113 0.90338 0.3563 0.0
Co414 Co 0.34053 0.88675 0.29305 0.0
O415 O 0.34276 0.88692 0.33667 0.0
C416 C 0.33988 0.90525 0.40169 0.0
O417 O 0.32251 0.89326 0.38582 0.0
C418 C 0.31285 0.83873 0.30347 0.0
O419 O 0.32824 0.83883 0.31949 0.0
O420 O 0.36104 0.87557 0.28944 0.0
O421 O 0.38553 0.89673 0.32311 0.0
H422 H 0.37004 0.90042 0.18935 0.0
H423 H 0.3329 0.86522 0.38404 0.0
O424 O 0.35864 0.91081 0.39158 0.0
H425 H 0.39277 0.85008 0.39226 0.0
H426 H 0.42305 0.92956 0.44239 0.0
H427 H 0.41507 0.93484 0.33478 0.0
H428 H 0.39858 0.88369 0.36903 0.0
H429 H 0.38755 0.90792 0.41845 0.0
O430 O 0.31511 0.85638 0.29329 0.0
H431 H 0.37227 0.90095 0.24382 0.0
H432 H 0.30397 0.87163 0.25012 0.0
H433 H 0.45093 0.95655 0.35782 0.0
H434 H 0.32648 0.83166 0.40783 0.0
H435 H 0.4551 0.95401 0.41201 0.0
H436 H 0.35652 0.82379 0.41211 0.0
O437 O 0.37619 0.93043 0.33575 0.0
H438 H 0.2765 0.88869 0.33535 0.0
H439 H 0.33734 0.92299 0.26501 0.0
H440 H 0.31274 0.93763 0.27054 0.0
H441 H 0.28201 0.92041 0.30586 0.0
H442 H 0.30162 0.87469 0.32929 0.0
H443 H 0.30099 0.87059 0.19571 0.0
H444 H 0.3342 0.88513 0.16492 0.0
O445 O 0.36542 0.91712 0.29016 0.0
C446 C 0.37975 0.88374 0.3012 0.0
C447 C 0.35546 0.89405 0.20252 0.0
C448 C 0.3167 0.87729 0.20609 0.0
N449 N 0.33828 0.88636 0.25019 0.0
C450 C 0.35661 0.89434 0.23339 0.0
C451 C 0.31849 0.87785 0.2369 0.0
C452 C 0.33534 0.88546 0.18883 0.0
C453 C 0.34624 0.86235 0.3863 0.0
N454 N 0.36629 0.87694 0.3758 0.0
C455 C 0.34243 0.8431 0.3996 0.0
C456 C 0.35926 0.83866 0.40191 0.0
C457 C 0.37958 0.85339 0.39078 0.0
C458 C 0.38277 0.87246 0.37762 0.0
C459 C 0.42145 0.9308 0.41875 0.0
C460 C 0.41675 0.93354 0.35835 0.0
C461 C 0.40135 0.91866 0.40507 0.0
N462 N 0.39921 0.92003 0.37517 0.0
C463 C 0.4371 0.94592 0.37129 0.0
C464 C 0.43942 0.94451 0.40169 0.0
C465 C 0.37561 0.93298 0.30782 0.0
C466 C 0.2898 0.89631 0.31986 0.0
C467 C 0.32409 0.91548 0.28056 0.0
C468 C 0.31017 0.9238 0.28352 0.0
C469 C 0.29292 0.91412 0.30332 0.0
N470 N 0.32089 0.89797 0.2968 0.0
C471 C 0.30404 0.88843 0.31629 0.0
Co472 Co 0.47244 0.36473 0.35235 0.0
Co473 Co 0.46039 0.33708 0.28672 0.0
O474 O 0.46123 0.3373 0.33045 0.0
C475 C 0.43897 0.33136 0.3954 0.0
O476 O 0.43507 0.31463 0.37896 0.0
C477 C 0.48106 0.30904 0.29081 0.0
O478 O 0.49829 0.32481 0.30346 0.0
O479 O 0.49221 0.35756 0.28538 0.0
O480 O 0.49438 0.38065 0.3206 0.0
H481 H 0.47977 0.37129 0.18585 0.0
H482 H 0.47282 0.32543 0.37567 0.0
O483 O 0.45152 0.35059 0.38629 0.0
H484 H 0.54651 0.38611 0.39176 0.0
H485 H 0.49482 0.41277 0.44261 0.0
H486 H 0.48531 0.40948 0.33426 0.0
H487 H 0.51895 0.39226 0.36858 0.0
H488 H 0.4821 0.37843 0.41588 0.0
O489 O 0.46477 0.31124 0.28516 0.0
H490 H 0.47972 0.37099 0.24041 0.0
H491 H 0.43993 0.30263 0.24059 0.0
H492 H 0.49836 0.44421 0.36013 0.0
H493 H 0.4997 0.31866 0.39935 0.0
H494 H 0.50318 0.44602 0.4147 0.0
H495 H 0.53696 0.3491 0.40763 0.0
O496 O 0.45085 0.37042 0.33194 0.0
H497 H 0.39275 0.27189 0.3231 0.0
H498 H 0.42207 0.33557 0.25754 0.0
H499 H 0.38263 0.31116 0.26048 0.0
H500 H 0.36772 0.27901 0.29338 0.0
H501 H 0.43211 0.29684 0.31966 0.0
H502 H 0.43972 0.30217 0.18602 0.0
H503 H 0.45968 0.3367 0.15827 0.0
O504 O 0.4553 0.36228 0.28564 0.0
C505 C 0.50238 0.37574 0.29869 0.0
C506 C 0.471 0.35614 0.19769 0.0
C507 C 0.44855 0.31735 0.19778 0.0
N508 N 0.45984 0.33681 0.24373 0.0
C509 C 0.47089 0.35586 0.2286 0.0
C510 C 0.44881 0.3177 0.2287 0.0
C511 C 0.45974 0.33673 0.18223 0.0
C512 C 0.48864 0.33894 0.37981 0.0
N513 N 0.4938 0.35941 0.37171 0.0
C514 C 0.50398 0.33493 0.39297 0.0
C515 C 0.52489 0.35199 0.39752 0.0
C516 C 0.53025 0.37274 0.38865 0.0
C517 C 0.51448 0.37612 0.37556 0.0
C518 C 0.4928 0.4122 0.41882 0.0
C519 C 0.48749 0.41013 0.35799 0.0
C520 C 0.4855 0.39276 0.40355 0.0
N521 N 0.48305 0.39193 0.37345 0.0
C522 C 0.49483 0.42985 0.37252 0.0
C523 C 0.49751 0.43085 0.40315 0.0
C524 C 0.44872 0.37131 0.30398 0.0
C525 C 0.39904 0.28582 0.30865 0.0
C526 C 0.41572 0.32168 0.27204 0.0
C527 C 0.39336 0.30788 0.27354 0.0
C528 C 0.38501 0.28984 0.29199 0.0
N529 N 0.42938 0.31759 0.2884 0.0
C530 C 0.42131 0.29997 0.30657 0.0
Co531 Co 0.10996 0.47417 0.35601 0.0
Co532 Co 0.1314 0.46168 0.2962 0.0
O533 O 0.12981 0.46519 0.33933 0.0
C534 C 0.11129 0.44415 0.40375 0.0
O535 O 0.12407 0.43962 0.38823 0.0
C536 C 0.17852 0.48612 0.28351 0.0
O537 O 0.17432 0.49842 0.2664 0.0
O538 O 0.13825 0.49218 0.28997 0.0
O539 O 0.11403 0.49277 0.32081 0.0
H540 H 0.11628 0.46966 0.18971 0.0
H541 H 0.14885 0.48067 0.3896 0.0
O542 O 0.10457 0.45626 0.39304 0.0
H543 H 0.15553 0.55263 0.38407 0.0
H544 H 0.07726 0.49765 0.43662 0.0
H545 H 0.07434 0.47924 0.33088 0.0
H546 H 0.12445 0.52107 0.36131 0.0
H547 H 0.10276 0.48733 0.41594 0.0
O548 O 0.16339 0.47147 0.29936 0.0
H549 H 0.11461 0.47348 0.24376 0.0
H550 H 0.15163 0.44265 0.25732 0.0
H551 H 0.04869 0.48967 0.35061 0.0
H552 H 0.17996 0.51169 0.413 0.0
H553 H 0.05002 0.49897 0.40385 0.0
H554 H 0.18351 0.54805 0.41035 0.0
O555 O 0.08499 0.4493 0.336 0.0
H556 H 0.13972 0.40345 0.34613 0.0
H557 H 0.09958 0.41876 0.27028 0.0
H558 H 0.09038 0.3811 0.27941 0.0
H559 H 0.11058 0.37324 0.3175 0.0
H560 H 0.14822 0.4409 0.3365 0.0
H561 H 0.15375 0.43857 0.20342 0.0
H562 H 0.13597 0.45211 0.16921 0.0
O563 O 0.09963 0.45136 0.29136 0.0
C564 C 0.12742 0.5007 0.29949 0.0
C565 C 0.12409 0.46369 0.20439 0.0
C566 C 0.14512 0.44624 0.21208 0.0
N567 N 0.133 0.4583 0.25371 0.0
C568 C 0.1232 0.46581 0.23502 0.0
C569 C 0.14386 0.44861 0.24259 0.0
C570 C 0.13514 0.45384 0.1929 0.0
C571 C 0.14994 0.49625 0.38878 0.0
N572 N 0.13442 0.49879 0.37476 0.0
C573 C 0.16776 0.51386 0.40189 0.0
C574 C 0.16977 0.53426 0.40034 0.0
C575 C 0.15408 0.53684 0.38561 0.0
C576 C 0.13648 0.51886 0.37278 0.0
C577 C 0.07652 0.49366 0.41337 0.0
C578 C 0.07513 0.48336 0.35404 0.0
C579 C 0.09088 0.48772 0.40154 0.0
N580 N 0.09013 0.48275 0.37216 0.0
C581 C 0.06051 0.48921 0.3651 0.0
C582 C 0.06125 0.4944 0.39498 0.0
C583 C 0.08321 0.445 0.30833 0.0
C584 C 0.13082 0.40667 0.32944 0.0
C585 C 0.10832 0.41549 0.28707 0.0
C586 C 0.1031 0.39412 0.29205 0.0
C587 C 0.11445 0.38972 0.3134 0.0
N588 N 0.12444 0.43203 0.30285 0.0
C589 C 0.1356 0.42784 0.32385 0.0
Co590 Co 0.65095 0.11253 0.34567 0.0
Co591 Co 0.67657 0.12577 0.27809 0.0
O592 O 0.67754 0.12667 0.32169 0.0
C593 C 0.65878 0.08769 0.39148 0.0
O594 O 0.64223 0.07048 0.37994 0.0
C595 C 0.70571 0.17389 0.28543 0.0
O596 O 0.69141 0.17457 0.30303 0.0
O597 O 0.65657 0.1377 0.27767 0.0
O598 O 0.6347 0.11924 0.3154 0.0
H599 H 0.63973 0.10987 0.17903 0.0
H600 H 0.69183 0.14633 0.37223 0.0
O601 O 0.66645 0.1058 0.37795 0.0
H602 H 0.64114 0.17391 0.38192 0.0
H603 H 0.60676 0.09602 0.43933 0.0
H604 H 0.60501 0.08146 0.33235 0.0
H605 H 0.62937 0.13832 0.35936 0.0
H606 H 0.64018 0.11386 0.40965 0.0
O607 O 0.70246 0.15581 0.27541 0.0
H608 H 0.64147 0.11082 0.23354 0.0
H609 H 0.70978 0.1392 0.23029 0.0
H610 H 0.57119 0.06334 0.36122 0.0
H611 H 0.70424 0.18193 0.39533 0.0
H612 H 0.57193 0.07055 0.41512 0.0
H613 H 0.67883 0.19596 0.40022 0.0
O614 O 0.64208 0.08425 0.32524 0.0
H615 H 0.74218 0.12264 0.31054 0.0
H616 H 0.67649 0.08821 0.24875 0.0
H617 H 0.70049 0.07267 0.25008 0.0
H618 H 0.73366 0.08996 0.28106 0.0
H619 H 0.71758 0.13753 0.30879 0.0
H620 H 0.7088 0.13874 0.17573 0.0
H621 H 0.67358 0.12393 0.14973 0.0
O622 O 0.65109 0.09572 0.27842 0.0
C623 C 0.63906 0.13096 0.29229 0.0
C624 C 0.65518 0.11635 0.1901 0.0
C625 C 0.69395 0.13258 0.18825 0.0
N626 N 0.6757 0.12502 0.23513 0.0
C627 C 0.65627 0.11689 0.22098 0.0
C628 C 0.69441 0.13286 0.21916 0.0
C629 C 0.67417 0.12425 0.17367 0.0
C630 C 0.68063 0.15226 0.37448 0.0
N631 N 0.65986 0.1402 0.3645 0.0
C632 C 0.68777 0.17246 0.3875 0.0
C633 C 0.67351 0.18034 0.39019 0.0
C634 C 0.65238 0.16799 0.3799 0.0
C635 C 0.64582 0.14787 0.36699 0.0
C636 C 0.60623 0.09273 0.41586 0.0
C637 C 0.60548 0.08468 0.3558 0.0
C638 C 0.62511 0.10278 0.39892 0.0
N639 N 0.6246 0.09865 0.36926 0.0
C640 C 0.58627 0.07438 0.37203 0.0
C641 C 0.5867 0.07844 0.40227 0.0
C642 C 0.64113 0.08069 0.29736 0.0
C643 C 0.7278 0.11499 0.2969 0.0
C644 C 0.69083 0.09577 0.26241 0.0
C645 C 0.70439 0.08693 0.263 0.0
C646 C 0.723 0.09664 0.28038 0.0
N647 N 0.6957 0.11382 0.2786 0.0
C648 C 0.71386 0.12338 0.29577 0.0
Co649 Co 0.54391 0.65013 0.34502 0.0
Co650 Co 0.55605 0.67528 0.27721 0.0
O651 O 0.55537 0.67646 0.32066 0.0
C652 C 0.57673 0.66102 0.39217 0.0
O653 O 0.57873 0.6448 0.38227 0.0
C654 C 0.53516 0.70298 0.28273 0.0
O655 O 0.5203 0.68875 0.30051 0.0
O656 O 0.52436 0.65393 0.27622 0.0
O657 O 0.52171 0.63267 0.31437 0.0
H658 H 0.53811 0.63744 0.17878 0.0
H659 H 0.54805 0.69032 0.37015 0.0
O660 O 0.56536 0.66706 0.37751 0.0
H661 H 0.47059 0.63612 0.37845 0.0
H662 H 0.51726 0.60675 0.43939 0.0
H663 H 0.53161 0.60462 0.333 0.0
H664 H 0.4963 0.62623 0.35743 0.0
H665 H 0.5315 0.6397 0.40893 0.0
O666 O 0.55034 0.70009 0.27327 0.0
H667 H 0.53809 0.6397 0.23325 0.0
H668 H 0.57517 0.70822 0.22893 0.0
H669 H 0.51731 0.57128 0.36267 0.0
H670 H 0.52294 0.70086 0.39171 0.0
H671 H 0.51006 0.57221 0.41627 0.0
H672 H 0.48388 0.67367 0.3959 0.0
O673 O 0.56467 0.64245 0.32583 0.0
H674 H 0.62212 0.74307 0.31118 0.0
H675 H 0.59523 0.67796 0.24889 0.0
H676 H 0.6344 0.70372 0.25134 0.0
H677 H 0.64808 0.73662 0.28258 0.0
H678 H 0.58306 0.71671 0.30833 0.0
H679 H 0.57542 0.70671 0.17442 0.0
H680 H 0.55686 0.67111 0.14898 0.0
O681 O 0.56247 0.65106 0.27876 0.0
C682 C 0.51408 0.6364 0.291 0.0
C683 C 0.54627 0.65304 0.18961 0.0
C684 C 0.56718 0.69192 0.18716 0.0
N685 N 0.55661 0.67407 0.23429 0.0
C686 C 0.54633 0.65443 0.22045 0.0
C687 C 0.5669 0.69268 0.21804 0.0
C688 C 0.55678 0.67194 0.1729 0.0
C689 C 0.53111 0.67835 0.37211 0.0
N690 N 0.52369 0.65765 0.36261 0.0
C691 C 0.51695 0.68444 0.38425 0.0
C692 C 0.49504 0.66918 0.38655 0.0
C693 C 0.48757 0.64812 0.37675 0.0
C694 C 0.5022 0.64262 0.36472 0.0
C695 C 0.52037 0.60613 0.41606 0.0
C696 C 0.52853 0.60518 0.35632 0.0
C697 C 0.52845 0.62475 0.39868 0.0
N698 N 0.53249 0.62414 0.36918 0.0
C699 C 0.52041 0.58624 0.373 0.0
C700 C 0.51634 0.58677 0.40308 0.0
C701 C 0.56793 0.64166 0.29808 0.0
C702 C 0.61636 0.72881 0.29747 0.0
C703 C 0.60105 0.69212 0.26273 0.0
C704 C 0.62325 0.70671 0.26392 0.0
C705 C 0.63092 0.72517 0.28144 0.0
N706 N 0.58686 0.69582 0.27846 0.0
C707 C 0.59426 0.71386 0.29572 0.0
Co708 Co 0.54312 0.89546 0.84404 0.0
Co709 Co 0.55466 0.88167 0.77609 0.0
O710 O 0.55385 0.8799 0.81961 0.0
C711 C 0.57608 0.91697 0.89117 0.0
O712 O 0.57853 0.93534 0.88121 0.0
C713 C 0.53339 0.83333 0.78481 0.0
O714 O 0.52165 0.83402 0.8067 0.0
O715 O 0.52332 0.87275 0.77487 0.0
O716 O 0.52099 0.89113 0.81359 0.0
H717 H 0.53899 0.90351 0.67759 0.0
H718 H 0.54647 0.85914 0.86985 0.0
O719 O 0.56454 0.89963 0.8764 0.0
H720 H 0.46938 0.83737 0.87813 0.0
H721 H 0.51749 0.91341 0.93844 0.0
H722 H 0.53189 0.92943 0.83198 0.0
H723 H 0.49552 0.87259 0.85652 0.0
H724 H 0.53094 0.89397 0.90801 0.0
O725 O 0.54717 0.85064 0.7719 0.0
H726 H 0.53858 0.90103 0.73205 0.0
H727 H 0.57218 0.86603 0.72789 0.0
H728 H 0.5184 0.94921 0.86162 0.0
H729 H 0.52093 0.82391 0.89209 0.0
H730 H 0.51113 0.94126 0.91526 0.0
H731 H 0.48205 0.81278 0.89624 0.0
O732 O 0.56424 0.92368 0.82461 0.0
H733 H 0.61847 0.87596 0.81038 0.0
H734 H 0.59485 0.91688 0.74793 0.0
H735 H 0.63359 0.92835 0.75055 0.0
H736 H 0.64563 0.90777 0.78188 0.0
H737 H 0.57987 0.86523 0.80734 0.0
H738 H 0.57279 0.86798 0.67339 0.0
H739 H 0.55618 0.88691 0.64787 0.0
O740 O 0.56263 0.91272 0.7777 0.0
C741 C 0.51335 0.88022 0.78988 0.0
C742 C 0.54632 0.89526 0.68845 0.0
C743 C 0.56526 0.8753 0.68609 0.0
N744 N 0.55542 0.88348 0.73318 0.0
C745 C 0.54617 0.89383 0.71929 0.0
C746 C 0.56481 0.87419 0.71697 0.0
C747 C 0.55595 0.88593 0.67179 0.0
C748 C 0.52962 0.85452 0.87184 0.0
N749 N 0.52254 0.86799 0.86194 0.0
C750 C 0.51521 0.8345 0.88434 0.0
C751 C 0.4934 0.82825 0.88662 0.0
C752 C 0.48627 0.84203 0.87642 0.0
C753 C 0.50115 0.86192 0.86404 0.0
C754 C 0.52062 0.91703 0.91509 0.0
C755 C 0.52881 0.92589 0.85531 0.0
C756 C 0.52826 0.90609 0.89773 0.0
N757 N 0.53233 0.91062 0.86821 0.0
C758 C 0.52114 0.93713 0.87198 0.0
C759 C 0.51706 0.93266 0.90208 0.0
C760 C 0.56794 0.92763 0.7969 0.0
C761 C 0.61343 0.88505 0.79663 0.0
C762 C 0.59996 0.90797 0.7618 0.0
C763 C 0.62192 0.91447 0.7631 0.0
C764 C 0.62866 0.90291 0.78066 0.0
N765 N 0.58511 0.89041 0.77748 0.0
C766 C 0.5916 0.87902 0.79478 0.0
Co767 Co 0.64656 0.53956 0.85304 0.0
Co768 Co 0.6762 0.5518 0.78877 0.0
O769 O 0.67444 0.5505 0.83237 0.0
C770 C 0.67939 0.57348 0.8958 0.0
O771 O 0.6961 0.57741 0.8793 0.0
C772 C 0.70252 0.52951 0.79571 0.0
O773 O 0.68611 0.51265 0.80808 0.0
O774 O 0.65481 0.52021 0.78621 0.0
O775 O 0.63135 0.51753 0.82129 0.0
H776 H 0.64537 0.53491 0.68587 0.0
H777 H 0.68532 0.53943 0.87908 0.0
O778 O 0.66016 0.56069 0.88688 0.0
H779 H 0.62437 0.46573 0.89416 0.0
H780 H 0.59676 0.51781 0.94142 0.0
H781 H 0.6022 0.52659 0.83293 0.0
H782 H 0.61873 0.49315 0.86948 0.0
H783 H 0.63162 0.53035 0.91613 0.0
O784 O 0.70113 0.54612 0.78908 0.0
H785 H 0.64382 0.53425 0.74039 0.0
H786 H 0.7123 0.57174 0.74483 0.0
H787 H 0.56697 0.51374 0.85733 0.0
H788 H 0.69158 0.51271 0.90427 0.0
H789 H 0.56408 0.50929 0.91197 0.0
H790 H 0.661 0.47544 0.91204 0.0
O791 O 0.64114 0.56092 0.83139 0.0
H792 H 0.74179 0.61729 0.82901 0.0
H793 H 0.68074 0.5914 0.7593 0.0
H794 H 0.70631 0.6305 0.76365 0.0
H795 H 0.73716 0.64369 0.79866 0.0
H796 H 0.71566 0.57831 0.82413 0.0
H797 H 0.71462 0.57262 0.69035 0.0
H798 H 0.68096 0.55418 0.66047 0.0
O799 O 0.65201 0.5582 0.78595 0.0
C800 C 0.63646 0.50995 0.7991 0.0
C801 C 0.66015 0.543 0.69864 0.0
C802 C 0.69901 0.56414 0.70116 0.0
N803 N 0.67796 0.55289 0.74584 0.0
C804 C 0.65938 0.5427 0.72954 0.0
C805 C 0.69761 0.56349 0.73202 0.0
C806 C 0.68012 0.5538 0.6844 0.0
C807 C 0.67175 0.5236 0.8829 0.0
N808 N 0.65148 0.51834 0.87361 0.0
C809 C 0.67547 0.50835 0.89697 0.0
C810 C 0.65834 0.48743 0.90124 0.0
C811 C 0.6378 0.48199 0.89123 0.0
C812 C 0.6347 0.49766 0.87726 0.0
C813 C 0.59781 0.51967 0.91759 0.0
C814 C 0.60107 0.52457 0.85669 0.0
C815 C 0.61754 0.52687 0.90313 0.0
N816 N 0.61896 0.52911 0.873 0.0
C817 C 0.58108 0.51734 0.8704 0.0
C818 C 0.57948 0.51487 0.90105 0.0
C819 C 0.64177 0.56392 0.80342 0.0
C820 C 0.72842 0.61175 0.81367 0.0
C821 C 0.69398 0.597 0.77477 0.0
C822 C 0.70848 0.61917 0.77704 0.0
C823 C 0.7258 0.62655 0.79666 0.0
N824 N 0.69665 0.58257 0.79153 0.0
C825 C 0.71359 0.5897 0.81079 0.0
Co826 Co 0.11378 0.64622 0.85138 0.0
Co827 Co 0.12845 0.67211 0.78385 0.0
O828 O 0.12911 0.67275 0.82743 0.0
C829 C 0.08977 0.65576 0.89677 0.0
O830 O 0.0722 0.63926 0.88587 0.0
C831 C 0.17641 0.69987 0.79463 0.0
O832 O 0.1755 0.68694 0.81593 0.0
O833 O 0.13829 0.65039 0.7832 0.0
O834 O 0.11982 0.62927 0.82155 0.0
H835 H 0.11018 0.6355 0.68455 0.0
H836 H 0.14828 0.68643 0.87869 0.0
O837 O 0.10773 0.66259 0.88312 0.0
H838 H 0.17303 0.63351 0.88883 0.0
H839 H 0.09496 0.60213 0.94534 0.0
H840 H 0.08144 0.60064 0.8381 0.0
H841 H 0.13801 0.62311 0.86547 0.0
H842 H 0.11409 0.63538 0.91554 0.0
O843 O 0.15927 0.69631 0.78121 0.0
H844 H 0.11112 0.63707 0.73909 0.0
H845 H 0.14447 0.70571 0.73626 0.0
H846 H 0.06199 0.56701 0.86709 0.0
H847 H 0.1833 0.69744 0.90264 0.0
H848 H 0.06868 0.56762 0.92112 0.0
H849 H 0.19592 0.67091 0.90775 0.0
O850 O 0.08584 0.63819 0.83049 0.0
H851 H 0.13109 0.74035 0.81771 0.0
H852 H 0.09323 0.67607 0.75386 0.0
H853 H 0.08064 0.70249 0.75558 0.0
H854 H 0.09968 0.73497 0.78761 0.0
H855 H 0.14297 0.71334 0.81555 0.0
H856 H 0.14404 0.70487 0.68169 0.0
H857 H 0.12673 0.66957 0.65546 0.0
O858 O 0.09761 0.64837 0.78402 0.0
C859 C 0.13118 0.63299 0.79819 0.0
C860 C 0.11774 0.65098 0.69572 0.0
C861 C 0.13677 0.68991 0.69411 0.0
N862 N 0.12778 0.67145 0.74088 0.0
C863 C 0.11829 0.65197 0.7266 0.0
C864 C 0.13702 0.69028 0.72503 0.0
C865 C 0.12704 0.6701 0.67941 0.0
C866 C 0.15356 0.67472 0.88108 0.0
N867 N 0.14104 0.65412 0.87074 0.0
C868 C 0.17345 0.68108 0.89456 0.0
C869 C 0.18054 0.6662 0.89737 0.0
C870 C 0.16772 0.64523 0.88673 0.0
C871 C 0.14793 0.63945 0.87336 0.0
C872 C 0.09189 0.60166 0.92181 0.0
C873 C 0.08443 0.60106 0.8616 0.0
C874 C 0.10267 0.62044 0.90481 0.0
N875 N 0.09884 0.62001 0.87507 0.0
C876 C 0.07338 0.58195 0.8779 0.0
C877 C 0.07715 0.5823 0.90821 0.0
C878 C 0.08242 0.63821 0.80266 0.0
C879 C 0.12267 0.72627 0.80365 0.0
C880 C 0.10147 0.69003 0.76804 0.0
C881 C 0.09434 0.70501 0.76883 0.0
C882 C 0.10504 0.72324 0.78678 0.0
N883 N 0.11881 0.69314 0.7846 0.0
C884 C 0.12935 0.71096 0.80229 0.0
Co885 Co 0.47072 0.11373 0.84778 0.0
Co886 Co 0.4589 0.12596 0.77948 0.0
O887 O 0.45926 0.12827 0.82287 0.0
C888 C 0.43809 0.09266 0.89547 0.0
O889 O 0.43583 0.07423 0.88608 0.0
C890 C 0.47909 0.17426 0.78489 0.0
O891 O 0.49353 0.17478 0.80335 0.0
O892 O 0.49062 0.13679 0.77905 0.0
O893 O 0.49282 0.1179 0.81712 0.0
H894 H 0.47817 0.10602 0.68199 0.0
H895 H 0.46696 0.15028 0.87173 0.0
O896 O 0.44947 0.10982 0.88029 0.0
H897 H 0.54433 0.1732 0.87991 0.0
H898 H 0.49758 0.09811 0.94279 0.0
H899 H 0.48268 0.08014 0.83685 0.0
H900 H 0.51838 0.13735 0.85982 0.0
H901 H 0.48337 0.11653 0.91169 0.0
O902 O 0.46416 0.15625 0.77492 0.0
H903 H 0.47779 0.10866 0.73637 0.0
H904 H 0.43971 0.13895 0.73042 0.0
H905 H 0.49696 0.0614 0.86715 0.0
H906 H 0.49231 0.18619 0.89234 0.0
H907 H 0.50448 0.07032 0.92054 0.0
H908 H 0.53133 0.19789 0.89647 0.0
O909 O 0.44971 0.08513 0.82921 0.0
H910 H 0.39166 0.12646 0.81079 0.0
H911 H 0.42047 0.08837 0.7518 0.0
H912 H 0.38112 0.07417 0.75334 0.0
H913 H 0.36648 0.0933 0.78291 0.0
H914 H 0.43092 0.14 0.80886 0.0
H915 H 0.43984 0.13681 0.67595 0.0
H916 H 0.4591 0.12017 0.65138 0.0
O917 O 0.45319 0.09558 0.78177 0.0
C918 C 0.50064 0.12928 0.7938 0.0
C919 C 0.46968 0.11327 0.69244 0.0
C920 C 0.4482 0.13058 0.68905 0.0
N921 N 0.45869 0.12388 0.73661 0.0
C922 C 0.46938 0.11477 0.72324 0.0
C923 C 0.44825 0.13181 0.71991 0.0
C924 C 0.459 0.12123 0.67527 0.0
C925 C 0.48388 0.15517 0.87367 0.0
N926 N 0.49114 0.14166 0.86466 0.0
C927 C 0.49817 0.17556 0.88527 0.0
C928 C 0.52006 0.18213 0.88754 0.0
C929 C 0.52737 0.16829 0.87823 0.0
C930 C 0.51261 0.14803 0.86673 0.0
C931 C 0.49435 0.09406 0.91956 0.0
C932 C 0.48588 0.08411 0.86007 0.0
C933 C 0.48628 0.10442 0.90183 0.0
N934 N 0.48208 0.09936 0.87246 0.0
C935 C 0.49399 0.07345 0.87711 0.0
C936 C 0.49821 0.07847 0.90706 0.0
C937 C 0.44725 0.0809 0.80145 0.0
C938 C 0.39785 0.11801 0.79777 0.0
C939 C 0.41422 0.09673 0.76485 0.0
C940 C 0.39193 0.08864 0.76556 0.0
C941 C 0.38373 0.09939 0.78215 0.0
N942 N 0.42798 0.11506 0.78014 0.0
C943 C 0.42005 0.12563 0.79654 0.0
Co944 Co 0.36933 0.47245 0.85241 0.0
Co945 Co 0.34206 0.46147 0.78622 0.0
O946 O 0.34233 0.46229 0.82978 0.0
C947 C 0.35748 0.43889 0.89911 0.0
O948 O 0.37233 0.43514 0.8881 0.0
C949 C 0.31416 0.48147 0.79902 0.0
O950 O 0.32566 0.49155 0.82244 0.0
O951 O 0.36451 0.49271 0.78488 0.0
O952 O 0.38664 0.4943 0.82121 0.0
H953 H 0.377 0.47738 0.68579 0.0
H954 H 0.33125 0.47074 0.88143 0.0
O955 O 0.35256 0.45146 0.88534 0.0
H956 H 0.38898 0.54704 0.88793 0.0
H957 H 0.41583 0.49655 0.94424 0.0
H958 H 0.41367 0.48229 0.83712 0.0
H959 H 0.3959 0.51997 0.86439 0.0
H960 H 0.3822 0.4843 0.9159 0.0
O961 O 0.31861 0.46918 0.78388 0.0
H962 H 0.37634 0.47757 0.74036 0.0
H963 H 0.30765 0.44428 0.73969 0.0
H964 H 0.44766 0.4946 0.86461 0.0
H965 H 0.32374 0.49721 0.90569 0.0
H966 H 0.44888 0.50178 0.91858 0.0
H967 H 0.3527 0.5357 0.90896 0.0
O968 O 0.37485 0.45063 0.83191 0.0
H969 H 0.27325 0.39785 0.82291 0.0
H970 H 0.33597 0.42126 0.75668 0.0
H971 H 0.30849 0.38259 0.75958 0.0
H972 H 0.27679 0.37066 0.79281 0.0
H973 H 0.30129 0.43636 0.81955 0.0
H974 H 0.3076 0.4439 0.68512 0.0
H975 H 0.34245 0.46045 0.65779 0.0
O976 O 0.36504 0.45328 0.78572 0.0
C977 C 0.38254 0.50236 0.79861 0.0
C978 C 0.36171 0.47007 0.69744 0.0
C979 C 0.32276 0.4513 0.69707 0.0
N980 N 0.34199 0.46085 0.74324 0.0
C981 C 0.36122 0.47009 0.72835 0.0
C982 C 0.3229 0.45162 0.72798 0.0
C983 C 0.34232 0.46058 0.68175 0.0
C984 C 0.34401 0.48741 0.88299 0.0
N985 N 0.36401 0.49376 0.87149 0.0
C986 C 0.33963 0.50235 0.89666 0.0
C987 C 0.35587 0.52395 0.89844 0.0
C988 C 0.37621 0.53032 0.88661 0.0
C989 C 0.38 0.51493 0.87312 0.0
C990 C 0.41549 0.49344 0.92073 0.0
C991 C 0.41404 0.48536 0.8606 0.0
C992 C 0.39648 0.48646 0.90456 0.0
N993 N 0.3959 0.48244 0.87487 0.0
C994 C 0.43335 0.49234 0.87605 0.0
C995 C 0.43403 0.49638 0.90633 0.0
C996 C 0.37458 0.44729 0.80402 0.0
C997 C 0.28698 0.40284 0.80833 0.0
C998 C 0.32234 0.41619 0.77137 0.0
C999 C 0.30677 0.39428 0.77283 0.0
C1000 C 0.28898 0.3876 0.79145 0.0
N1001 N 0.32024 0.43106 0.78792 0.0
C1002 C 0.30287 0.42463 0.80628 0.0
Co1003 Co 0.89926 0.35977 0.85145 0.0
Co1004 Co 0.88521 0.33337 0.78433 0.0
O1005 O 0.88384 0.3332 0.82778 0.0
C1006 C 0.92138 0.34896 0.89843 0.0
O1007 O 0.93962 0.36505 0.88838 0.0
C1008 C 0.83712 0.30721 0.79414 0.0
O1009 O 0.83836 0.32121 0.81402 0.0
O1010 O 0.87627 0.35574 0.78223 0.0
O1011 O 0.8944 0.37697 0.82067 0.0
H1012 H 0.90584 0.36878 0.68432 0.0
H1013 H 0.86338 0.32013 0.87815 0.0
O1014 O 0.90392 0.34302 0.88395 0.0
H1015 H 0.84083 0.3749 0.8855 0.0
H1016 H 0.91757 0.40428 0.94495 0.0
H1017 H 0.93261 0.40504 0.83826 0.0
H1018 H 0.87603 0.38416 0.86363 0.0
H1019 H 0.89824 0.37101 0.91524 0.0
O1020 O 0.85417 0.30971 0.7815 0.0
H1021 H 0.9041 0.36787 0.73886 0.0
H1022 H 0.86897 0.29921 0.73753 0.0
H1023 H 0.95227 0.43869 0.86716 0.0
H1024 H 0.82815 0.31026 0.90062 0.0
H1025 H 0.94481 0.43845 0.92092 0.0
H1026 H 0.81663 0.33773 0.90432 0.0
O1027 O 0.92738 0.36703 0.83166 0.0
H1028 H 0.88004 0.26461 0.82114 0.0
H1029 H 0.92012 0.32791 0.7562 0.0
H1030 H 0.93168 0.30074 0.7597 0.0
H1031 H 0.91152 0.26875 0.79229 0.0
H1032 H 0.86921 0.29235 0.81721 0.0
H1033 H 0.87016 0.29938 0.68298 0.0
H1034 H 0.88878 0.33435 0.656 0.0
O1035 O 0.91628 0.35656 0.78501 0.0
C1036 C 0.88358 0.37334 0.79683 0.0
C1037 C 0.89772 0.35344 0.69582 0.0
C1038 C 0.87767 0.31449 0.69507 0.0
N1039 N 0.8865 0.33352 0.7414 0.0
C1040 C 0.89671 0.35282 0.72671 0.0
C1041 C 0.87698 0.3145 0.72597 0.0
C1042 C 0.88812 0.33412 0.67995 0.0
C1043 C 0.85859 0.33225 0.87993 0.0
N1044 N 0.87183 0.35274 0.86965 0.0
C1045 C 0.83858 0.32653 0.89257 0.0
C1046 C 0.83211 0.34193 0.89459 0.0
C1047 C 0.84566 0.36278 0.88401 0.0
C1048 C 0.86555 0.36791 0.87149 0.0
C1049 C 0.92098 0.40459 0.92155 0.0
C1050 C 0.92929 0.40477 0.86165 0.0
C1051 C 0.9101 0.38579 0.9046 0.0
N1052 N 0.91435 0.38602 0.87502 0.0
C1053 C 0.94046 0.42389 0.8779 0.0
C1054 C 0.93626 0.42375 0.90805 0.0
C1055 C 0.93121 0.3668 0.80398 0.0
C1056 C 0.88895 0.27847 0.80685 0.0
C1057 C 0.9114 0.31416 0.77062 0.0
C1058 C 0.91795 0.29877 0.77241 0.0
C1059 C 0.90662 0.28081 0.79068 0.0
N1060 N 0.89402 0.31174 0.7865 0.0
C1061 C 0.88286 0.2942 0.80449 0.0
Co1062 Co 0.11616 0.47022 0.67235 0.0
Co1063 Co 0.13004 0.45869 0.73996 0.0
O1064 O 0.13158 0.45929 0.69649 0.0
C1065 C 0.09452 0.43734 0.62521 0.0
O1066 O 0.07617 0.43498 0.63513 0.0
C1067 C 0.17829 0.48004 0.73167 0.0
O1068 O 0.17773 0.49323 0.7119 0.0
O1069 O 0.13961 0.49018 0.74094 0.0
O1070 O 0.12066 0.49235 0.7029 0.0
H1071 H 0.1098 0.47574 0.83878 0.0
H1072 H 0.15243 0.46674 0.64655 0.0
O1073 O 0.11185 0.4488 0.63998 0.0
H1074 H 0.17439 0.54387 0.63826 0.0
H1075 H 0.09818 0.49605 0.57827 0.0
H1076 H 0.08233 0.48161 0.68476 0.0
H1077 H 0.13911 0.5178 0.65981 0.0
H1078 H 0.11757 0.48246 0.60846 0.0
O1079 O 0.16086 0.46543 0.74342 0.0
H1080 H 0.11179 0.47578 0.78429 0.0
H1081 H 0.14524 0.44064 0.78789 0.0
H1082 H 0.06261 0.49525 0.65537 0.0
H1083 H 0.18774 0.49223 0.62443 0.0
H1084 H 0.07046 0.50255 0.60171 0.0
H1085 H 0.19896 0.53112 0.62025 0.0
O1086 O 0.08799 0.44916 0.69191 0.0
H1087 H 0.13358 0.39367 0.70553 0.0
H1088 H 0.09447 0.41906 0.76873 0.0
H1089 H 0.08202 0.3801 0.76623 0.0
H1090 H 0.10168 0.36717 0.73451 0.0
H1091 H 0.14531 0.43252 0.70845 0.0
H1092 H 0.14378 0.44037 0.84243 0.0
H1093 H 0.12588 0.45794 0.86824 0.0
O1094 O 0.09914 0.4514 0.73884 0.0
C1095 C 0.13205 0.50017 0.72618 0.0
C1096 C 0.11762 0.468 0.8278 0.0
C1097 C 0.13671 0.44818 0.82984 0.0
N1098 N 0.12858 0.45819 0.78289 0.0
C1099 C 0.11877 0.46795 0.79693 0.0
C1100 C 0.13756 0.44845 0.79895 0.0
C1101 C 0.12666 0.45803 0.84431 0.0
C1102 C 0.1571 0.48361 0.64457 0.0
N1103 N 0.14364 0.49073 0.65439 0.0
C1104 C 0.17716 0.49798 0.63212 0.0
C1105 C 0.18346 0.5198 0.62983 0.0
C1106 C 0.16969 0.52697 0.63996 0.0
C1107 C 0.14976 0.51213 0.65229 0.0
C1108 C 0.09459 0.49292 0.60162 0.0
C1109 C 0.08584 0.48471 0.66142 0.0
C1110 C 0.10551 0.4852 0.61885 0.0
N1111 N 0.10103 0.48112 0.64838 0.0
C1112 C 0.07462 0.49246 0.64489 0.0
C1113 C 0.07904 0.49656 0.61479 0.0
C1114 C 0.08415 0.44581 0.7197 0.0
C1115 C 0.12489 0.39911 0.71945 0.0
C1116 C 0.10299 0.41357 0.7547 0.0
C1117 C 0.09593 0.39148 0.75347 0.0
C1118 C 0.10698 0.38424 0.73569 0.0
N1119 N 0.12059 0.42806 0.73874 0.0
C1120 C 0.13148 0.42108 0.72123 0.0
Co1121 Co 0.64359 0.10905 0.6606 0.0
Co1122 Co 0.67256 0.1269 0.7254 0.0
O1123 O 0.67077 0.12671 0.68208 0.0
C1124 C 0.65578 0.08765 0.61375 0.0
O1125 O 0.64141 0.06897 0.62509 0.0
C1126 C 0.6951 0.17379 0.73975 0.0
O1127 O 0.67798 0.16971 0.75546 0.0
O1128 O 0.64885 0.13394 0.7283 0.0
O1129 O 0.62644 0.11327 0.69228 0.0
H1130 H 0.64184 0.10901 0.82833 0.0
H1131 H 0.68068 0.14606 0.63102 0.0
O1132 O 0.66025 0.10514 0.62724 0.0
H1133 H 0.62092 0.16172 0.62516 0.0
H1134 H 0.5955 0.08416 0.57036 0.0
H1135 H 0.59995 0.07389 0.67753 0.0
H1136 H 0.61546 0.12828 0.64881 0.0
H1137 H 0.62947 0.10663 0.59751 0.0
O1138 O 0.6951 0.1587 0.72446 0.0
H1139 H 0.64029 0.10884 0.77379 0.0
H1140 H 0.70883 0.14577 0.76928 0.0
H1141 H 0.56563 0.05111 0.65124 0.0
H1142 H 0.68676 0.17957 0.60676 0.0
H1143 H 0.56326 0.05616 0.59725 0.0
H1144 H 0.65676 0.1876 0.60376 0.0
O1145 O 0.63937 0.08239 0.68158 0.0
H1146 H 0.7417 0.13521 0.68433 0.0
H1147 H 0.68148 0.09433 0.75381 0.0
H1148 H 0.71012 0.08485 0.74896 0.0
H1149 H 0.74058 0.10544 0.71411 0.0
H1150 H 0.71254 0.14395 0.6896 0.0
H1151 H 0.71111 0.14638 0.82378 0.0
H1152 H 0.67745 0.12788 0.85368 0.0
O1153 O 0.65065 0.09529 0.72744 0.0
C1154 C 0.63058 0.12517 0.71517 0.0
C1155 C 0.65663 0.11711 0.81555 0.0
C1156 C 0.6955 0.13809 0.81299 0.0
N1157 N 0.67444 0.12725 0.76835 0.0
C1158 C 0.65585 0.11706 0.78465 0.0
C1159 C 0.6941 0.13769 0.78214 0.0
C1160 C 0.67661 0.12771 0.82976 0.0
C1161 C 0.66749 0.14936 0.62965 0.0
N1162 N 0.6477 0.13515 0.64126 0.0
C1163 C 0.67106 0.1684 0.61595 0.0
C1164 C 0.65423 0.17291 0.61431 0.0
C1165 C 0.63412 0.1584 0.62633 0.0
C1166 C 0.63115 0.13953 0.63984 0.0
C1167 C 0.59634 0.08178 0.59388 0.0
C1168 C 0.59907 0.07618 0.65404 0.0
C1169 C 0.61555 0.09444 0.60938 0.0
N1170 N 0.61675 0.09153 0.6391 0.0
C1171 C 0.57958 0.06324 0.63927 0.0
C1172 C 0.57825 0.06608 0.60898 0.0
C1173 C 0.64067 0.07959 0.70937 0.0
C1174 C 0.72854 0.12614 0.69963 0.0
C1175 C 0.69455 0.10323 0.73841 0.0
C1176 C 0.71079 0.09786 0.73585 0.0
C1177 C 0.72788 0.10943 0.71632 0.0
N1178 N 0.69535 0.11972 0.72207 0.0
C1179 C 0.71201 0.13106 0.70277 0.0
Co1180 Co 0.54084 0.64183 0.65907 0.0
Co1181 Co 0.55549 0.67288 0.72252 0.0
O1182 O 0.55262 0.67019 0.67892 0.0
C1183 C 0.57409 0.67307 0.61367 0.0
O1184 O 0.57956 0.69048 0.62948 0.0
C1185 C 0.53334 0.69907 0.71288 0.0
O1186 O 0.51892 0.6842 0.69531 0.0
O1187 O 0.52413 0.65114 0.72765 0.0
O1188 O 0.51991 0.62743 0.69213 0.0
H1189 H 0.54369 0.64402 0.82644 0.0
H1190 H 0.54111 0.68011 0.63126 0.0
O1191 O 0.56079 0.65436 0.62383 0.0
H1192 H 0.46592 0.62052 0.62339 0.0
H1193 H 0.51498 0.59018 0.57262 0.0
H1194 H 0.52834 0.5978 0.68022 0.0
H1195 H 0.49365 0.61458 0.64654 0.0
H1196 H 0.52887 0.6256 0.59685 0.0
O1197 O 0.54884 0.6971 0.72324 0.0
H1198 H 0.54067 0.64142 0.77206 0.0
H1199 H 0.57634 0.70989 0.76496 0.0
H1200 H 0.51418 0.56204 0.6569 0.0
H1201 H 0.51406 0.68666 0.6075 0.0
H1202 H 0.50743 0.55805 0.60271 0.0
H1203 H 0.47605 0.65677 0.60341 0.0
O1204 O 0.56266 0.6364 0.6795 0.0
H1205 H 0.61819 0.73851 0.6773 0.0
H1206 H 0.59671 0.67905 0.74875 0.0
H1207 H 0.63538 0.70528 0.74133 0.0
H1208 H 0.64635 0.73534 0.70544 0.0
H1209 H 0.57967 0.71174 0.68523 0.0
H1210 H 0.57959 0.71322 0.81928 0.0
H1211 H 0.56326 0.68012 0.85042 0.0
O1212 O 0.56274 0.6493 0.72468 0.0
C1213 C 0.51336 0.63267 0.71525 0.0
C1214 C 0.5509 0.65856 0.81312 0.0
C1215 C 0.57102 0.69739 0.8091 0.0
N1216 N 0.55834 0.67548 0.7653 0.0
C1217 C 0.54926 0.6572 0.7823 0.0
C1218 C 0.56907 0.6954 0.77834 0.0
C1219 C 0.56187 0.67882 0.82656 0.0
C1220 C 0.52486 0.66683 0.62907 0.0
N1221 N 0.5193 0.64679 0.63966 0.0
C1222 C 0.50948 0.67072 0.6158 0.0
C1223 C 0.48815 0.65397 0.6136 0.0
C1224 C 0.48246 0.63365 0.62479 0.0
C1225 C 0.49829 0.63038 0.63793 0.0
C1226 C 0.51785 0.59171 0.59626 0.0
C1227 C 0.52533 0.59621 0.65665 0.0
C1228 C 0.5258 0.61176 0.6101 0.0
N1229 N 0.52935 0.6138 0.63999 0.0
C1230 C 0.51736 0.57591 0.64356 0.0
C1231 C 0.5136 0.57369 0.61315 0.0
C1232 C 0.56719 0.63813 0.7071 0.0
C1233 C 0.61362 0.7255 0.69301 0.0
C1234 C 0.60133 0.69194 0.73291 0.0
C1235 C 0.62327 0.70682 0.7289 0.0
C1236 C 0.62941 0.7237 0.70878 0.0
N1237 N 0.58594 0.69382 0.71737 0.0
C1238 C 0.59184 0.71032 0.69763 0.0
Co1239 Co 0.90001 0.53629 0.66673 0.0
Co1240 Co 0.88367 0.54664 0.73378 0.0
O1241 O 0.883 0.54594 0.69013 0.0
C1242 C 0.92175 0.57062 0.62106 0.0
O1243 O 0.94029 0.57435 0.6322 0.0
C1244 C 0.83635 0.5308 0.71873 0.0
O1245 O 0.83941 0.52913 0.69044 0.0
O1246 O 0.87616 0.51576 0.73501 0.0
O1247 O 0.89576 0.51421 0.69727 0.0
H1248 H 0.90488 0.53212 0.83351 0.0
H1249 H 0.86381 0.53814 0.63749 0.0
O1250 O 0.90415 0.55768 0.6344 0.0
H1251 H 0.84522 0.46187 0.63048 0.0
H1252 H 0.92245 0.51353 0.57363 0.0
H1253 H 0.93475 0.52658 0.68093 0.0
H1254 H 0.87911 0.48884 0.65432 0.0
H1255 H 0.90102 0.5253 0.60285 0.0
O1256 O 0.85195 0.53715 0.737 0.0
H1257 H 0.90366 0.53206 0.77896 0.0
H1258 H 0.86514 0.56202 0.78101 0.0
H1259 H 0.9565 0.51475 0.65255 0.0
H1260 H 0.82992 0.51177 0.61295 0.0
H1261 H 0.95043 0.50817 0.59848 0.0
H1262 H 0.82038 0.4733 0.60943 0.0
O1263 O 0.92728 0.55794 0.68732 0.0
H1264 H 0.87661 0.60938 0.69728 0.0
H1265 H 0.91626 0.587 0.7643 0.0
H1266 H 0.92623 0.62534 0.76219 0.0
H1267 H 0.90626 0.63676 0.7286 0.0
H1268 H 0.8674 0.57129 0.6998 0.0
H1269 H 0.86578 0.56222 0.83557 0.0
H1270 H 0.88584 0.54728 0.8622 0.0
O1271 O 0.91521 0.55623 0.73363 0.0
C1272 C 0.88439 0.50626 0.72056 0.0
C1273 C 0.89614 0.53874 0.82216 0.0
C1274 C 0.87417 0.5556 0.82332 0.0
N1275 N 0.88447 0.54715 0.77677 0.0
C1276 C 0.89544 0.53879 0.79127 0.0
C1277 C 0.87382 0.55538 0.79241 0.0
C1278 C 0.88544 0.54723 0.83824 0.0
C1279 C 0.85987 0.52147 0.63587 0.0
N1280 N 0.87344 0.51507 0.64746 0.0
C1281 C 0.84061 0.50659 0.62202 0.0
C1282 C 0.83526 0.485 0.62009 0.0
C1283 C 0.84916 0.47858 0.63194 0.0
C1284 C 0.86828 0.49391 0.64563 0.0
C1285 C 0.92527 0.51637 0.59717 0.0
C1286 C 0.93202 0.52378 0.65741 0.0
C1287 C 0.9132 0.52308 0.61384 0.0
N1288 N 0.91669 0.52675 0.64359 0.0
C1289 C 0.94437 0.51706 0.64145 0.0
C1290 C 0.94096 0.51337 0.61113 0.0
C1291 C 0.93056 0.56182 0.71507 0.0
C1292 C 0.88536 0.60459 0.71213 0.0
C1293 C 0.90754 0.59181 0.74954 0.0
C1294 C 0.91323 0.61356 0.74849 0.0
C1295 C 0.90202 0.61995 0.72966 0.0
N1296 N 0.89106 0.57678 0.73246 0.0
C1297 C 0.88012 0.58298 0.71377 0.0
Co1298 Co 0.36424 0.8969 0.66848 0.0
Co1299 Co 0.34085 0.88263 0.73713 0.0
O1300 O 0.33845 0.88135 0.69369 0.0
C1301 C 0.35188 0.91871 0.62304 0.0
O1302 O 0.36791 0.937 0.63303 0.0
C1303 C 0.3122 0.83477 0.72757 0.0
O1304 O 0.3247 0.83536 0.70584 0.0
O1305 O 0.362 0.87218 0.73541 0.0
O1306 O 0.38271 0.89241 0.69785 0.0
H1307 H 0.38126 0.90095 0.83357 0.0
H1308 H 0.32416 0.86061 0.64356 0.0
O1309 O 0.3464 0.90122 0.63723 0.0
H1310 H 0.37954 0.83926 0.63124 0.0
H1311 H 0.40615 0.91563 0.57255 0.0
H1312 H 0.4096 0.9309 0.6795 0.0
H1313 H 0.38891 0.87432 0.65368 0.0
H1314 H 0.3738 0.8959 0.60393 0.0
O1315 O 0.31626 0.85207 0.741 0.0
H1316 H 0.37759 0.89955 0.77924 0.0
H1317 H 0.3092 0.86781 0.78713 0.0
H1318 H 0.44235 0.95096 0.64891 0.0
H1319 H 0.31414 0.82552 0.62056 0.0
H1320 H 0.44075 0.94339 0.59502 0.0
H1321 H 0.34192 0.81461 0.61436 0.0
O1322 O 0.37134 0.9248 0.68867 0.0
H1323 H 0.27221 0.88162 0.70978 0.0
H1324 H 0.33956 0.91906 0.76787 0.0
H1325 H 0.31392 0.93265 0.76891 0.0
H1326 H 0.27992 0.91384 0.7398 0.0
H1327 H 0.29844 0.86869 0.70915 0.0
H1328 H 0.31213 0.86872 0.84155 0.0
H1329 H 0.34837 0.88546 0.86513 0.0
O1330 O 0.36516 0.9133 0.7357 0.0
C1331 C 0.37942 0.88028 0.72027 0.0
C1332 C 0.36538 0.89366 0.82357 0.0
C1333 C 0.32658 0.87554 0.82804 0.0
N1334 N 0.34321 0.8837 0.77999 0.0
C1335 C 0.3632 0.89285 0.7928 0.0
C1336 C 0.32503 0.87502 0.7972 0.0
C1337 C 0.34692 0.88494 0.84126 0.0
C1338 C 0.33639 0.85608 0.64069 0.0
N1339 N 0.35712 0.86957 0.64991 0.0
C1340 C 0.3306 0.83614 0.62776 0.0
C1341 C 0.34618 0.83001 0.62433 0.0
C1342 C 0.36728 0.84383 0.63383 0.0
C1343 C 0.37247 0.86363 0.64668 0.0
C1344 C 0.40705 0.91909 0.596 0.0
C1345 C 0.40875 0.92752 0.65606 0.0
C1346 C 0.38878 0.90798 0.61391 0.0
N1347 N 0.38975 0.91229 0.64356 0.0
C1348 C 0.42736 0.93892 0.63885 0.0
C1349 C 0.42646 0.93466 0.60862 0.0
C1350 C 0.37321 0.92845 0.71657 0.0
C1351 C 0.28695 0.88992 0.72261 0.0
C1352 C 0.32486 0.91085 0.75501 0.0
C1353 C 0.31037 0.91858 0.75576 0.0
C1354 C 0.29129 0.90802 0.73943 0.0
N1355 N 0.32045 0.89304 0.73854 0.0
C1356 C 0.30182 0.88264 0.72239 0.0
Co1357 Co 0.47675 0.37002 0.66159 0.0
Co1358 Co 0.4637 0.3394 0.72545 0.0
O1359 O 0.46595 0.34179 0.6817 0.0
C1360 C 0.44278 0.3378 0.61783 0.0
O1361 O 0.4366 0.32107 0.63538 0.0
C1362 C 0.47958 0.30804 0.70881 0.0
O1363 O 0.48346 0.31455 0.68119 0.0
O1364 O 0.49482 0.3619 0.7295 0.0
O1365 O 0.49771 0.38527 0.69436 0.0
H1366 H 0.47578 0.36963 0.82861 0.0
H1367 H 0.47698 0.33309 0.63072 0.0
O1368 O 0.45684 0.35671 0.62649 0.0
H1369 H 0.55229 0.39298 0.62669 0.0
H1370 H 0.50191 0.42143 0.57493 0.0
H1371 H 0.48719 0.41361 0.68222 0.0
H1372 H 0.52413 0.39794 0.65065 0.0
H1373 H 0.48908 0.38628 0.59949 0.0
O1374 O 0.47206 0.31633 0.7269 0.0
H1375 H 0.47783 0.37148 0.77411 0.0
H1376 H 0.44531 0.30292 0.76898 0.0
H1377 H 0.50022 0.4491 0.65858 0.0
H1378 H 0.50448 0.32754 0.60601 0.0
H1379 H 0.50765 0.45319 0.60454 0.0
H1380 H 0.54253 0.35759 0.60393 0.0
O1381 O 0.45441 0.37453 0.68222 0.0
H1382 H 0.40143 0.27225 0.68215 0.0
H1383 H 0.42253 0.33165 0.75361 0.0
H1384 H 0.38404 0.30426 0.74793 0.0
H1385 H 0.37326 0.27421 0.71206 0.0
H1386 H 0.43969 0.30015 0.68829 0.0
H1387 H 0.44308 0.30036 0.82342 0.0
H1388 H 0.4583 0.33388 0.85362 0.0
O1389 O 0.45509 0.36208 0.72744 0.0
C1390 C 0.50498 0.38035 0.71698 0.0
C1391 C 0.46903 0.35491 0.81569 0.0
C1392 C 0.4507 0.31604 0.81278 0.0
N1393 N 0.46159 0.33735 0.76833 0.0
C1394 C 0.4701 0.35585 0.78481 0.0
C1395 C 0.45206 0.3176 0.78195 0.0
C1396 C 0.45924 0.33485 0.82971 0.0
C1397 C 0.49332 0.34639 0.62956 0.0
N1398 N 0.49874 0.36591 0.64191 0.0
C1399 C 0.50892 0.34309 0.61568 0.0
C1400 C 0.53027 0.35993 0.61458 0.0
C1401 C 0.53576 0.37976 0.62737 0.0
C1402 C 0.51972 0.38245 0.64106 0.0
C1403 C 0.49871 0.41986 0.59848 0.0
C1404 C 0.49042 0.41524 0.6587 0.0
C1405 C 0.49133 0.39996 0.61251 0.0
N1406 N 0.48733 0.39784 0.64229 0.0
C1407 C 0.49779 0.43539 0.64544 0.0
C1408 C 0.50194 0.43767 0.61511 0.0
C1409 C 0.45002 0.37279 0.70989 0.0
C1410 C 0.40592 0.28522 0.69793 0.0
C1411 C 0.41799 0.31873 0.73782 0.0
C1412 C 0.39616 0.30321 0.73478 0.0
C1413 C 0.39012 0.28635 0.71468 0.0
N1414 N 0.43342 0.31748 0.72141 0.0
C1415 C 0.4276 0.30103 0.70159 0.0
H1416 H 0.45492 0.07112 0.26723 0.0
H1417 H 0.42351 0.04212 0.18456 0.0
H1418 H 0.43758 0.03591 0.29066 0.0
H1419 H 0.40503 0.0067 0.20844 0.0
H1420 H 0.38966 0.94322 0.25088 0.0
H1421 H 0.40812 0.97845 0.22752 0.0
H1422 H 0.40614 0.00802 0.31015 0.0
H1423 H 0.38858 0.97255 0.33393 0.0
C1424 C 0.44411 0.05719 0.25403 0.0
C1425 C 0.44065 0.05954 0.22389 0.0
C1426 C 0.43394 0.03688 0.26765 0.0
C1427 C 0.41964 0.01816 0.25176 0.0
C1428 C 0.41617 0.02053 0.22151 0.0
C1429 C 0.42668 0.04091 0.20771 0.0
C1430 C 0.39322 0.95724 0.26418 0.0
C1431 C 0.38759 0.95497 0.29438 0.0
C1432 C 0.4037 0.97757 0.25061 0.0
C1433 C 0.40862 0.99638 0.26662 0.0
C1434 C 0.40303 0.9941 0.29698 0.0
C1435 C 0.39283 0.9737 0.31072 0.0
H1436 H 0.45169 0.38567 0.24723 0.0
H1437 H 0.42341 0.38511 0.33198 0.0
H1438 H 0.43546 0.40524 0.22565 0.0
H1439 H 0.40616 0.4039 0.31001 0.0
H1440 H 0.39317 0.45436 0.27031 0.0
H1441 H 0.41116 0.43637 0.29154 0.0
H1442 H 0.40377 0.40303 0.20867 0.0
H1443 H 0.38658 0.42201 0.18701 0.0
C1444 C 0.44184 0.38959 0.26131 0.0
C1445 C 0.4389 0.38375 0.29146 0.0
C1446 C 0.43232 0.40073 0.24876 0.0
C1447 C 0.41926 0.4062 0.26582 0.0
C1448 C 0.41635 0.40038 0.29608 0.0
C1449 C 0.42617 0.38946 0.30877 0.0
C1450 C 0.39549 0.4433 0.25647 0.0
C1451 C 0.38839 0.43967 0.22686 0.0
C1452 C 0.40568 0.43275 0.26883 0.0
C1453 C 0.40886 0.41793 0.25213 0.0
C1454 C 0.40197 0.4145 0.2223 0.0
C1455 C 0.39202 0.42535 0.20977 0.0
H1456 H 0.94525 0.36862 0.26891 0.0
H1457 H 0.97358 0.40023 0.18592 0.0
H1458 H 0.9807 0.38515 0.29129 0.0
H1459 H 0.00938 0.4177 0.20894 0.0
H1460 H 0.07264 0.42969 0.25149 0.0
H1461 H 0.03726 0.41224 0.22803 0.0
H1462 H 0.00873 0.41793 0.30949 0.0
H1463 H 0.04402 0.43463 0.3333 0.0
C1464 C 0.95904 0.37914 0.2553 0.0
C1465 C 0.95638 0.38289 0.22537 0.0
C1466 C 0.97951 0.38889 0.26838 0.0
C1467 C 0.99811 0.40298 0.25216 0.0
C1468 C 0.99553 0.40675 0.22215 0.0
C1469 C 0.97495 0.39679 0.20891 0.0
C1470 C 0.05881 0.42707 0.26456 0.0
C1471 C 0.06129 0.43348 0.29448 0.0
C1472 C 0.03846 0.41722 0.25092 0.0
C1473 C 0.01994 0.4136 0.26668 0.0
C1474 C 0.02245 0.42003 0.29664 0.0
C1475 C 0.04279 0.42972 0.31036 0.0
H1476 H 0.58826 0.96956 0.1781 0.0
H1477 H 0.562 0.94131 0.26337 0.0
H1478 H 0.60689 0.00536 0.20081 0.0
H1479 H 0.57952 0.97689 0.28576 0.0
H1480 H 0.63007 0.04189 0.32445 0.0
H1481 H 0.6116 0.00588 0.30218 0.0
H1482 H 0.60342 0.03314 0.22107 0.0
H1483 H 0.62273 0.06892 0.24283 0.0
C1484 C 0.58625 0.97099 0.2016 0.0
C1485 C 0.57367 0.95246 0.2188 0.0
C1486 C 0.59684 0.9916 0.21473 0.0
C1487 C 0.59486 0.9943 0.24537 0.0
C1488 C 0.58197 0.97569 0.26235 0.0
C1489 C 0.57171 0.95515 0.24935 0.0
C1490 C 0.62417 0.0401 0.30195 0.0
C1491 C 0.628 0.05834 0.28545 0.0
C1492 C 0.61349 0.01939 0.28908 0.0
C1493 C 0.60602 0.01634 0.25951 0.0
C1494 C 0.60934 0.03465 0.24349 0.0
C1495 C 0.62029 0.05527 0.25616 0.0
H1496 H 0.57927 0.63949 0.241 0.0
H1497 H 0.57991 0.6155 0.32858 0.0
H1498 H 0.59645 0.62057 0.22116 0.0
H1499 H 0.59639 0.59533 0.3081 0.0
H1500 H 0.64581 0.57971 0.26639 0.0
H1501 H 0.62816 0.59802 0.28803 0.0
H1502 H 0.59136 0.58709 0.20759 0.0
H1503 H 0.60986 0.56972 0.18542 0.0
C1504 C 0.58298 0.63008 0.25619 0.0
C1505 C 0.57827 0.62931 0.28665 0.0
C1506 C 0.59267 0.61888 0.24456 0.0
C1507 C 0.59778 0.60612 0.26277 0.0
C1508 C 0.59299 0.60516 0.2933 0.0
C1509 C 0.58341 0.61666 0.3051 0.0
C1510 C 0.63409 0.58135 0.25312 0.0
C1511 C 0.62958 0.57346 0.22384 0.0
C1512 C 0.62372 0.59169 0.26578 0.0
C1513 C 0.60829 0.59426 0.24971 0.0
C1514 C 0.60348 0.58596 0.2206 0.0
C1515 C 0.61405 0.57585 0.20781 0.0
H1516 H 0.04532 0.63066 0.18744 0.0
H1517 H 0.07339 0.63127 0.27232 0.0
H1518 H 0.00939 0.61229 0.20979 0.0
H1519 H 0.03768 0.61204 0.29427 0.0
H1520 H 0.97156 0.59381 0.33292 0.0
H1521 H 1.00774 0.61338 0.31125 0.0
H1522 H 0.98228 0.57981 0.22841 0.0
H1523 H 0.9463 0.56127 0.24962 0.0
C1524 C 0.04384 0.62675 0.2108 0.0
C1525 C 0.06236 0.63257 0.22796 0.0
C1526 C 0.02316 0.61602 0.22369 0.0
C1527 C 0.02035 0.61047 0.25405 0.0
C1528 C 0.03896 0.61629 0.27107 0.0
C1529 C 0.05958 0.62725 0.25831 0.0
C1530 C 0.97378 0.59056 0.31016 0.0
C1531 C 0.95595 0.57602 0.29307 0.0
C1532 C 0.99459 0.60176 0.29762 0.0
C1533 C 0.99819 0.59845 0.26778 0.0
C1534 C 0.98032 0.58339 0.2511 0.0
C1535 C 0.95958 0.57251 0.26345 0.0
H1536 H 0.58128 0.94106 0.74028 0.0
H1537 H 0.57843 0.96573 0.82651 0.0
H1538 H 0.59846 0.97705 0.72009 0.0
H1539 H 0.59485 1.00222 0.80561 0.0
H1540 H 0.64423 0.06744 0.76568 0.0
H1541 H 0.62676 0.03154 0.78709 0.0
H1542 H 0.59336 1.00505 0.70448 0.0
H1543 H 0.61184 0.04106 0.68252 0.0
C1544 C 0.58426 0.95416 0.75511 0.0
C1545 C 0.57857 0.95028 0.78531 0.0
C1546 C 0.59393 0.97499 0.74324 0.0
C1547 C 0.59802 0.99281 0.76094 0.0
C1548 C 0.59227 0.98903 0.79121 0.0
C1549 C 0.58274 0.96804 0.80327 0.0
C1550 C 0.63333 0.05399 0.75185 0.0
C1551 C 0.62976 0.05728 0.72208 0.0
C1552 C 0.62302 0.03328 0.76439 0.0
C1553 C 0.60855 0.01512 0.74772 0.0
C1554 C 0.60472 0.01845 0.71802 0.0
C1555 C 0.61527 0.03919 0.70534 0.0
H1556 H 0.64278 0.57558 0.74553 0.0
H1557 H 0.61358 0.57491 0.82963 0.0
H1558 H 0.62458 0.59261 0.72247 0.0
H1559 H 0.59434 0.59116 0.80602 0.0
H1560 H 0.58237 0.64183 0.76355 0.0
H1561 H 0.59944 0.62362 0.78627 0.0
H1562 H 0.59184 0.58852 0.70503 0.0
H1563 H 0.57549 0.60776 0.68157 0.0
C1564 C 0.63239 0.57898 0.75922 0.0
C1565 C 0.62997 0.57407 0.78972 0.0
C1566 C 0.62166 0.58857 0.74575 0.0
C1567 C 0.60787 0.59337 0.76217 0.0
C1568 C 0.60512 0.58813 0.79262 0.0
C1569 C 0.61609 0.57869 0.80623 0.0
C1570 C 0.58443 0.63038 0.75024 0.0
C1571 C 0.5777 0.62655 0.72042 0.0
C1572 C 0.59405 0.61964 0.76357 0.0
C1573 C 0.59705 0.60441 0.74774 0.0
C1574 C 0.59015 0.60037 0.71793 0.0
C1575 C 0.58068 0.61135 0.70441 0.0
H1576 H 0.94344 0.57723 0.77124 0.0
H1577 H 0.96867 0.57084 0.68724 0.0
H1578 H 0.97939 0.59477 0.79212 0.0
H1579 H 1.00483 0.58744 0.70877 0.0
H1580 H 0.06973 0.63802 0.74554 0.0
H1581 H 0.03382 0.61974 0.72486 0.0
H1582 H 0.00778 0.59092 0.8101 0.0
H1583 H 0.04408 0.61048 0.83143 0.0
C1584 C 0.95666 0.57952 0.75709 0.0
C1585 C 0.95302 0.5728 0.72726 0.0
C1586 C 0.97741 0.58938 0.76934 0.0
C1587 C 0.99529 0.59261 0.75238 0.0
C1588 C 0.99165 0.58568 0.72256 0.0
C1589 C 0.97083 0.57603 0.71012 0.0
C1590 C 0.05643 0.62797 0.76015 0.0
C1591 C 0.05997 0.62608 0.79045 0.0
C1592 C 0.03566 0.61714 0.74802 0.0
C1593 C 0.01761 0.60368 0.76556 0.0
C1594 C 0.02113 0.60143 0.79583 0.0
C1595 C 0.04202 0.61257 0.80814 0.0
H1596 H 0.45179 0.06787 0.74664 0.0
H1597 H 0.42056 0.04255 0.83075 0.0
H1598 H 0.43484 0.03171 0.72635 0.0
H1599 H 0.40268 0.00599 0.80996 0.0
H1600 H 0.38884 0.94124 0.77249 0.0
H1601 H 0.40702 0.97734 0.79325 0.0
H1602 H 0.40229 1.00317 0.70886 0.0
H1603 H 0.38473 0.96682 0.68767 0.0
C1604 C 0.44116 0.05455 0.76087 0.0
C1605 C 0.43752 0.05824 0.79042 0.0
C1606 C 0.43123 0.03368 0.74903 0.0
C1607 C 0.41707 0.0157 0.7662 0.0
C1608 C 0.41364 0.01932 0.796 0.0
C1609 C 0.42385 0.04032 0.80801 0.0
C1610 C 0.39172 0.95459 0.7582 0.0
C1611 C 0.38526 0.951 0.72827 0.0
C1612 C 0.40204 0.9754 0.7703 0.0
C1613 C 0.40611 0.9934 0.753 0.0
C1614 C 0.39978 0.98985 0.72293 0.0
C1615 C 0.38962 0.96895 0.71069 0.0
H1616 H 0.37364 0.43468 0.74668 0.0
H1617 H 0.40195 0.43562 0.83156 0.0
H1618 H 0.39163 0.41718 0.72461 0.0
H1619 H 0.4211 0.41886 0.80884 0.0
H1620 H 0.43463 0.36886 0.76642 0.0
H1621 H 0.41709 0.38674 0.78909 0.0
H1622 H 0.42433 0.42151 0.70768 0.0
H1623 H 0.44107 0.40263 0.68437 0.0
C1624 C 0.38377 0.43121 0.7608 0.0
C1625 C 0.38604 0.43645 0.79119 0.0
C1626 C 0.39442 0.42134 0.74786 0.0
C1627 C 0.40805 0.41658 0.76466 0.0
C1628 C 0.41051 0.42193 0.7951 0.0
C1629 C 0.39958 0.43165 0.80822 0.0
C1630 C 0.43235 0.38014 0.75308 0.0
C1631 C 0.43909 0.38399 0.72324 0.0
C1632 C 0.42246 0.39069 0.76637 0.0
C1633 C 0.41918 0.40571 0.75046 0.0
C1634 C 0.42614 0.40978 0.72066 0.0
C1635 C 0.43586 0.399 0.7072 0.0
H1636 H 0.04597 0.43424 0.68984 0.0
H1637 H 0.07086 0.4334 0.77668 0.0
H1638 H 0.00938 0.41692 0.71037 0.0
H1639 H 0.03472 0.41516 0.79657 0.0
H1640 H 0.9686 0.39677 0.83257 0.0
H1641 H 1.00498 0.41733 0.81177 0.0
H1642 H 0.98124 0.38457 0.72803 0.0
H1643 H 0.94512 0.36525 0.7481 0.0
C1644 C 0.04368 0.43019 0.71316 0.0
C1645 C 0.06152 0.43509 0.73135 0.0
C1646 C 0.02263 0.42011 0.72502 0.0
C1647 C 0.01882 0.41443 0.75533 0.0
C1648 C 0.03676 0.4195 0.77336 0.0
C1649 C 0.05768 0.42979 0.76167 0.0
C1650 C 0.97119 0.39397 0.80974 0.0
C1651 C 0.9538 0.37909 0.79228 0.0
C1652 C 0.99213 0.40572 0.79773 0.0
C1653 C 0.99633 0.40271 0.76802 0.0
C1654 C 0.97885 0.3878 0.75072 0.0
C1655 C 0.95799 0.37636 0.76253 0.0
H1656 H 0.47425 0.20651 0.17791 0.0
H1657 H 0.48725 0.19071 0.26493 0.0
H1658 H 0.47576 0.2391 0.19813 0.0
H1659 H 0.489 0.22331 0.28492 0.0
H1660 H 0.5108 0.29601 0.30198 0.0
H1661 H 0.51149 0.26454 0.28157 0.0
H1662 H 0.4524 0.24619 0.23406 0.0
H1663 H 0.45143 0.27717 0.25468 0.0
C1664 C 0.47769 0.2101 0.20123 0.0
C1665 C 0.48058 0.19592 0.21975 0.0
C1666 C 0.47842 0.2287 0.21287 0.0
C1667 C 0.48244 0.23379 0.24319 0.0
C1668 C 0.48601 0.21997 0.26148 0.0
C1669 C 0.48491 0.20121 0.24998 0.0
C1670 C 0.49788 0.2852 0.28734 0.0
C1671 C 0.48108 0.28926 0.28003 0.0
C1672 C 0.49828 0.26716 0.27563 0.0
C1673 C 0.48211 0.25295 0.25592 0.0
C1674 C 0.46529 0.25696 0.24879 0.0
C1675 C 0.46468 0.27472 0.26084 0.0
H1676 H 0.18787 0.45403 0.29591 0.0
H1677 H 0.2162 0.51867 0.26056 0.0
H1678 H 0.22011 0.45267 0.28188 0.0
H1679 H 0.24885 0.5178 0.24768 0.0
H1680 H 0.2945 0.50153 0.19784 0.0
H1681 H 0.26273 0.50329 0.21362 0.0
H1682 H 0.25642 0.46419 0.29011 0.0
H1683 H 0.28744 0.46169 0.27359 0.0
C1684 C 0.20121 0.46818 0.28582 0.0
C1685 C 0.1994 0.48647 0.27942 0.0
C1686 C 0.21981 0.46743 0.27771 0.0
C1687 C 0.23727 0.48506 0.26328 0.0
C1688 C 0.23569 0.50366 0.25801 0.0
C1689 C 0.217 0.50429 0.26577 0.0
C1690 C 0.28628 0.49327 0.21797 0.0
C1691 C 0.29356 0.4814 0.23429 0.0
C1692 C 0.26809 0.49441 0.22724 0.0
C1693 C 0.25679 0.48392 0.25333 0.0
C1694 C 0.26426 0.47218 0.26967 0.0
C1695 C 0.28224 0.47083 0.26022 0.0
H1696 H 0.73415 0.17842 0.24157 0.0
H1697 H 0.72126 0.21555 0.30551 0.0
H1698 H 0.76509 0.21142 0.22315 0.0
H1699 H 0.75251 0.24875 0.28699 0.0
H1700 H 0.82554 0.29776 0.26768 0.0
H1701 H 0.79285 0.26609 0.28567 0.0
H1702 H 0.77351 0.24508 0.19565 0.0
H1703 H 0.80633 0.27689 0.17751 0.0
C1704 C 0.7379 0.19361 0.25181 0.0
C1705 C 0.72511 0.19422 0.27514 0.0
C1706 C 0.75561 0.21261 0.24101 0.0
C1707 C 0.76126 0.23281 0.25341 0.0
C1708 C 0.74867 0.23346 0.27698 0.0
C1709 C 0.73072 0.21442 0.28758 0.0
C1710 C 0.81426 0.28651 0.25163 0.0
C1711 C 0.81867 0.2899 0.22107 0.0
C1712 C 0.79542 0.26838 0.26201 0.0
C1713 C 0.78055 0.25294 0.24217 0.0
C1714 C 0.78472 0.25653 0.21157 0.0
C1715 C 0.80347 0.27485 0.20115 0.0
H1716 H 0.53276 0.82332 0.26278 0.0
H1717 H 0.53215 0.80246 0.17286 0.0
H1718 H 0.5313 0.79054 0.28125 0.0
H1719 H 0.53078 0.76958 0.19148 0.0
H1720 H 0.55837 0.7305 0.23776 0.0
H1721 H 0.55638 0.76129 0.21876 0.0
H1722 H 0.50731 0.75001 0.2834 0.0
H1723 H 0.50917 0.71882 0.30251 0.0
C1724 C 0.53219 0.81168 0.24689 0.0
C1725 C 0.53267 0.81563 0.21626 0.0
C1726 C 0.53121 0.79279 0.25755 0.0
C1727 C 0.53099 0.77742 0.2379 0.0
C1728 C 0.53112 0.78117 0.20724 0.0
C1729 C 0.53178 0.79997 0.19655 0.0
C1730 C 0.54711 0.73447 0.24804 0.0
C1731 C 0.53395 0.72208 0.2718 0.0
C1732 C 0.54586 0.75209 0.2369 0.0
C1733 C 0.53161 0.7581 0.24938 0.0
C1734 C 0.51853 0.74587 0.27332 0.0
C1735 C 0.51956 0.72797 0.28424 0.0
H1736 H 0.70377 0.49302 0.26085 0.0
H1737 H 0.73905 0.55795 0.22618 0.0
H1738 H 0.73766 0.49459 0.27344 0.0
H1739 H 0.773 0.55999 0.23992 0.0
H1740 H 0.83211 0.55229 0.24696 0.0
H1741 H 0.79822 0.54917 0.23099 0.0
H1742 H 0.76617 0.50934 0.30727 0.0
H1743 H 0.80008 0.51173 0.32247 0.0
C1744 C 0.7188 0.50763 0.25577 0.0
C1745 C 0.71863 0.52531 0.24236 0.0
C1746 C 0.73833 0.50865 0.26334 0.0
C1747 C 0.75832 0.52751 0.25812 0.0
C1748 C 0.7581 0.54503 0.24402 0.0
C1749 C 0.73855 0.5439 0.23609 0.0
C1750 C 0.81785 0.54286 0.2604 0.0
C1751 C 0.81892 0.53228 0.28609 0.0
C1752 C 0.79832 0.54116 0.25127 0.0
C1753 C 0.7792 0.52902 0.26773 0.0
C1754 C 0.78033 0.51851 0.29357 0.0
C1755 C 0.79987 0.52001 0.30251 0.0
H1756 H 0.18653 0.73897 0.23778 0.0
H1757 H 0.21792 0.70331 0.26382 0.0
H1758 H 0.21826 0.77251 0.25284 0.0
H1759 H 0.25023 0.73697 0.27753 0.0
H1760 H 0.28428 0.83209 0.25902 0.0
H1761 H 0.2534 0.79849 0.24289 0.0
H1762 H 0.26542 0.76443 0.31268 0.0
H1763 H 0.29724 0.79821 0.32783 0.0
C1764 C 0.20043 0.73833 0.24608 0.0
C1765 C 0.19965 0.71839 0.24946 0.0
C1766 C 0.21877 0.75767 0.25474 0.0
C1767 C 0.23707 0.75773 0.26662 0.0
C1768 C 0.23643 0.73775 0.26916 0.0
C1769 C 0.21794 0.71837 0.26093 0.0
C1770 C 0.28036 0.81748 0.27106 0.0
C1771 C 0.29331 0.81797 0.29486 0.0
C1772 C 0.26243 0.79807 0.26185 0.0
C1773 C 0.25657 0.77847 0.27641 0.0
C1774 C 0.26948 0.779 0.30044 0.0
C1775 C 0.28768 0.79845 0.30938 0.0
H1776 H 0.51366 0.71894 0.68464 0.0
H1777 H 0.54779 0.72122 0.76461 0.0
H1778 H 0.51142 0.75044 0.70192 0.0
H1779 H 0.54521 0.75214 0.7819 0.0
H1780 H 0.51796 0.79499 0.81522 0.0
H1781 H 0.51579 0.76142 0.7976 0.0
H1782 H 0.54022 0.79082 0.71236 0.0
H1783 H 0.54276 0.82432 0.72996 0.0
C1784 C 0.52054 0.72603 0.70592 0.0
C1785 C 0.53109 0.71768 0.72307 0.0
C1786 C 0.51929 0.74406 0.71579 0.0
C1787 C 0.52808 0.75372 0.74335 0.0
C1788 C 0.53812 0.74498 0.76073 0.0
C1789 C 0.53977 0.72736 0.75063 0.0
C1790 C 0.52271 0.79421 0.79268 0.0
C1791 C 0.53069 0.8124 0.77411 0.0
C1792 C 0.52153 0.77503 0.78261 0.0
C1793 C 0.52781 0.77347 0.75354 0.0
C1794 C 0.5351 0.79143 0.73474 0.0
C1795 C 0.53671 0.81069 0.74496 0.0
H1796 H 0.71413 0.49891 0.80879 0.0
H1797 H 0.7355 0.55843 0.76054 0.0
H1798 H 0.74556 0.49722 0.79005 0.0
H1799 H 0.76622 0.55635 0.7415 0.0
H1800 H 0.80425 0.53208 0.68702 0.0
H1801 H 0.77144 0.53053 0.70631 0.0
H1802 H 0.78797 0.52075 0.79456 0.0
H1803 H 0.82095 0.52267 0.77547 0.0
C1804 C 0.72547 0.51162 0.7943 0.0
C1805 C 0.72214 0.52876 0.78616 0.0
C1806 C 0.74344 0.51063 0.78356 0.0
C1807 C 0.7582 0.52651 0.76399 0.0
C1808 C 0.75496 0.54369 0.75613 0.0
C1809 C 0.73733 0.54491 0.76725 0.0
C1810 C 0.80077 0.52934 0.71047 0.0
C1811 C 0.81528 0.52758 0.72968 0.0
C1812 C 0.78204 0.52857 0.72154 0.0
C1813 C 0.77717 0.52559 0.75198 0.0
C1814 C 0.79122 0.52294 0.77101 0.0
C1815 C 0.81015 0.52413 0.76005 0.0
H1816 H 0.29144 0.826 0.78082 0.0
H1817 H 0.29039 0.79639 0.697 0.0
H1818 H 0.25996 0.79249 0.79717 0.0
H1819 H 0.25855 0.76277 0.71339 0.0
H1820 H 0.18571 0.7206 0.74144 0.0
H1821 H 0.2194 0.7519 0.72537 0.0
H1822 H 0.24852 0.75314 0.80955 0.0
H1823 H 0.21464 0.72142 0.82569 0.0
C1824 C 0.28451 0.81233 0.76585 0.0
C1825 C 0.2934 0.81395 0.73747 0.0
C1826 C 0.26655 0.79305 0.77537 0.0
C1827 C 0.25675 0.77496 0.75662 0.0
C1828 C 0.2657 0.77647 0.72831 0.0
C1829 C 0.28396 0.7957 0.71894 0.0
C1830 C 0.19927 0.72745 0.75658 0.0
C1831 C 0.1974 0.71854 0.78498 0.0
C1832 C 0.21867 0.74531 0.74722 0.0
C1833 C 0.23665 0.75501 0.76613 0.0
C1834 C 0.23489 0.74607 0.7945 0.0
C1835 C 0.21554 0.72788 0.80372 0.0
H1836 H 0.4817 0.29685 0.76596 0.0
H1837 H 0.48334 0.27768 0.67573 0.0
H1838 H 0.48316 0.26546 0.78395 0.0
H1839 H 0.48479 0.2461 0.69389 0.0
H1840 H 0.45675 0.1789 0.73909 0.0
H1841 H 0.45907 0.21188 0.7202 0.0
H1842 H 0.507 0.24906 0.7864 0.0
H1843 H 0.50476 0.21586 0.80543 0.0
C1844 C 0.48254 0.28602 0.7499 0.0
C1845 C 0.4823 0.28978 0.71932 0.0
C1846 C 0.48352 0.26807 0.76029 0.0
C1847 C 0.48402 0.2532 0.74042 0.0
C1848 C 0.48422 0.25715 0.70981 0.0
C1849 C 0.48352 0.27532 0.69938 0.0
C1850 C 0.46782 0.19406 0.74972 0.0
C1851 C 0.48052 0.19463 0.77392 0.0
C1852 C 0.46928 0.21304 0.73865 0.0
C1853 C 0.4833 0.23316 0.75163 0.0
C1854 C 0.49596 0.2338 0.77594 0.0
C1855 C 0.49471 0.21478 0.78683 0.0
H1856 H 0.21819 0.50191 0.70462 0.0
H1857 H 0.18581 0.46335 0.78162 0.0
H1858 H 0.25214 0.50455 0.72128 0.0
H1859 H 0.21955 0.46617 0.7982 0.0
H1860 H 0.28908 0.49271 0.83258 0.0
H1861 H 0.25708 0.49432 0.81649 0.0
H1862 H 0.26564 0.47776 0.72757 0.0
H1863 H 0.29726 0.47589 0.74357 0.0
C1864 C 0.21831 0.49411 0.72512 0.0
C1865 C 0.1992 0.48231 0.74163 0.0
C1866 C 0.23773 0.49558 0.73463 0.0
C1867 C 0.23856 0.48563 0.76114 0.0
C1868 C 0.21955 0.47422 0.77788 0.0
C1869 C 0.20013 0.47246 0.76818 0.0
C1870 C 0.28422 0.48961 0.80957 0.0
C1871 C 0.29565 0.48405 0.78943 0.0
C1872 C 0.26585 0.49043 0.80038 0.0
C1873 C 0.25882 0.48617 0.77072 0.0
C1874 C 0.2707 0.4813 0.75047 0.0
C1875 C 0.28875 0.48008 0.75974 0.0
H1876 H 0.79809 0.28975 0.82338 0.0
H1877 H 0.82801 0.28238 0.74455 0.0
H1878 H 0.76378 0.25824 0.80897 0.0
H1879 H 0.79382 0.25173 0.72948 0.0
H1880 H 0.73633 0.18324 0.72645 0.0
H1881 H 0.77003 0.21551 0.73954 0.0
H1882 H 0.73412 0.24396 0.77642 0.0
H1883 H 0.70036 0.21117 0.7644 0.0
C1884 C 0.79731 0.28154 0.80285 0.0
C1885 C 0.81589 0.28852 0.78531 0.0
C1886 C 0.77757 0.26352 0.79442 0.0
C1887 C 0.77586 0.25218 0.76802 0.0
C1888 C 0.79444 0.25956 0.75027 0.0
C1889 C 0.81414 0.27732 0.75888 0.0
C1890 C 0.7356 0.19648 0.737 0.0
C1891 C 0.71559 0.19458 0.74429 0.0
C1892 C 0.75502 0.21511 0.74451 0.0
C1893 C 0.75501 0.23254 0.75921 0.0
C1894 C 0.73492 0.23082 0.76569 0.0
C1895 C 0.71549 0.21206 0.75849 0.0
H1896 H 0.44307 0.07839 0.0818 0.0
H1897 H 0.42946 0.13084 0.07927 0.0
H1898 H 0.43792 0.07388 0.02862 0.0
H1899 H 0.42396 0.12609 0.02558 0.0
H1900 H 0.41554 0.0599 0.93512 0.0
H1901 H 0.41249 0.0628 0.98843 0.0
H1902 H 0.44624 0.13238 0.98122 0.0
H1903 H 0.449 0.12949 0.92771 0.0
C1904 C 0.43857 0.08875 0.06997 0.0
C1905 C 0.43671 0.10502 0.08499 0.0
C1906 C 0.43549 0.08606 0.03933 0.0
C1907 C 0.43053 0.09962 0.02255 0.0
C1908 C 0.42795 0.11547 0.03767 0.0
C1909 C 0.43089 0.11805 0.06853 0.0
C1910 C 0.42195 0.07584 0.94474 0.0
C1911 C 0.43264 0.09444 0.92693 0.0
C1912 C 0.42035 0.07751 0.97546 0.0
C1913 C 0.4294 0.09784 0.98939 0.0
C1914 C 0.43895 0.11644 0.97138 0.0
C1915 C 0.44055 0.11477 0.94058 0.0
H1916 H 0.35922 0.40815 0.93346 0.0
H1917 H 0.34165 0.45779 0.93679 0.0
H1918 H 0.3543 0.40337 0.98685 0.0
H1919 H 0.33804 0.45409 0.99021 0.0
H1920 H 0.32661 0.44114 0.08745 0.0
H1921 H 0.32176 0.4368 0.03389 0.0
H1922 H 0.37216 0.42014 0.02942 0.0
H1923 H 0.376 0.42326 0.08261 0.0
C1924 C 0.3541 0.41792 0.94556 0.0
C1925 C 0.35092 0.43339 0.93072 0.0
C1926 C 0.35152 0.41539 0.97638 0.0
C1927 C 0.34616 0.42862 0.99343 0.0
C1928 C 0.34194 0.44336 0.97823 0.0
C1929 C 0.3441 0.44557 0.94736 0.0
C1930 C 0.33625 0.43601 0.07506 0.0
C1931 C 0.3517 0.43256 0.08955 0.0
C1932 C 0.33369 0.43379 0.04415 0.0
C1933 C 0.34671 0.42832 0.02678 0.0
C1934 C 0.36149 0.42401 0.04162 0.0
C1935 C 0.36382 0.42593 0.07243 0.0
H1936 H 0.88513 0.32245 0.93127 0.0
H1937 H 0.95473 0.36028 0.93744 0.0
H1938 H 0.88284 0.31714 0.98478 0.0
H1939 H 0.95244 0.35466 0.99082 0.0
H1940 H 0.88555 0.30307 0.08277 0.0
H1941 H 0.89016 0.30194 0.02911 0.0
H1942 H 0.94093 0.36883 0.03089 0.0
H1943 H 0.93655 0.36984 0.08405 0.0
C1944 C 0.9 0.32918 0.94387 0.0
C1945 C 0.92013 0.34197 0.92989 0.0
C1946 C 0.89868 0.32609 0.97468 0.0
C1947 C 0.91743 0.3357 0.99234 0.0
C1948 C 0.93761 0.34735 0.97808 0.0
C1949 C 0.93894 0.35044 0.94733 0.0
C1950 C 0.898 0.31737 0.07176 0.0
C1951 C 0.91065 0.33654 0.08783 0.0
C1952 C 0.90051 0.3168 0.04092 0.0
C1953 C 0.91589 0.33531 0.02548 0.0
C1954 C 0.92911 0.35415 0.04188 0.0
C1955 C 0.9265 0.35477 0.0725 0.0
H1956 H 0.5692 0.93203 0.077 0.0
H1957 H 0.58487 0.88098 0.07611 0.0
H1958 H 0.57454 0.9362 0.02378 0.0
H1959 H 0.59049 0.88533 0.0224 0.0
H1960 H 0.56554 0.8805 0.92407 0.0
H1961 H 0.56801 0.87807 0.97771 0.0
H1962 H 0.60066 0.94766 0.984 0.0
H1963 H 0.59796 0.95011 0.93053 0.0
C1964 C 0.57417 0.92191 0.06552 0.0
C1965 C 0.57658 0.90615 0.08101 0.0
C1966 C 0.57736 0.92439 0.03487 0.0
C1967 C 0.58295 0.9111 0.01857 0.0
C1968 C 0.58602 0.89574 0.03413 0.0
C1969 C 0.583 0.89338 0.065 0.0
C1970 C 0.57369 0.89533 0.93677 0.0
C1971 C 0.58141 0.91552 0.9228 0.0
C1972 C 0.57513 0.89393 0.96764 0.0
C1973 C 0.58428 0.91265 0.98541 0.0
C1974 C 0.59312 0.93286 0.97119 0.0
C1975 C 0.59173 0.93427 0.94039 0.0
H1976 H 0.71206 0.59288 0.0859 0.0
H1977 H 0.64257 0.55998 0.07721 0.0
H1978 H 0.71566 0.59907 0.0324 0.0
H1979 H 0.64599 0.5648 0.02431 0.0
H1980 H 0.65307 0.58193 0.93004 0.0
H1981 H 0.65403 0.58626 0.98352 0.0
H1982 H 0.71209 0.58162 0.98731 0.0
H1983 H 0.71173 0.57875 0.93347 0.0
C1984 C 0.69755 0.5871 0.07269 0.0
C1985 C 0.67702 0.57574 0.08605 0.0
C1986 C 0.69959 0.59042 0.04185 0.0
C1987 C 0.68114 0.58236 0.02353 0.0
C1988 C 0.66069 0.57168 0.03726 0.0
C1989 C 0.65869 0.56863 0.0679 0.0
C1990 C 0.66634 0.5824 0.94228 0.0
C1991 C 0.68232 0.58002 0.92748 0.0
C1992 C 0.66677 0.58458 0.97312 0.0
C1993 C 0.68285 0.58377 0.99028 0.0
C1994 C 0.6995 0.58251 0.97519 0.0
C1995 C 0.69932 0.58083 0.94417 0.0
H1996 H 0.12356 0.68714 0.92936 0.0
H1997 H 0.05626 0.63801 0.93624 0.0
H1998 H 0.12476 0.69305 0.98272 0.0
H1999 H 0.05765 0.64306 0.98934 0.0
H2000 H 0.06012 0.65915 0.08464 0.0
H2001 H 0.05967 0.6627 0.03104 0.0
H2002 H 0.12597 0.67687 0.02682 0.0
H2003 H 0.12666 0.67444 0.08039 0.0
C2004 C 0.10892 0.67779 0.94215 0.0
C2005 C 0.08981 0.66208 0.92831 0.0
C2006 C 0.10966 0.68098 0.97293 0.0
C2007 C 0.09137 0.66841 0.99083 0.0
C2008 C 0.07205 0.65338 0.97665 0.0
C2009 C 0.07126 0.65037 0.94593 0.0
C2010 C 0.07475 0.66351 0.07231 0.0
C2011 C 0.09338 0.66643 0.08697 0.0
C2012 C 0.07445 0.66531 0.04139 0.0
C2013 C 0.09266 0.6697 0.02411 0.0
C2014 C 0.11164 0.6737 0.03904 0.0
C2015 C 0.11204 0.67224 0.06998 0.0
H2016 H 0.95446 0.60227 0.58803 0.0
H2017 H 0.88753 0.55212 0.58253 0.0
H2018 H 0.95504 0.60799 0.53481 0.0
H2019 H 0.88835 0.5568 0.52921 0.0
H2020 H 0.89122 0.57164 0.43242 0.0
H2021 H 0.88986 0.57495 0.48606 0.0
H2022 H 0.95697 0.59194 0.49186 0.0
H2023 H 0.95853 0.5898 0.4386 0.0
C2024 C 0.93978 0.59259 0.57549 0.0
C2025 C 0.921 0.57669 0.58967 0.0
C2026 C 0.94015 0.59567 0.54476 0.0
C2027 C 0.92187 0.5826 0.52714 0.0
C2028 C 0.90275 0.56742 0.54168 0.0
C2029 C 0.90228 0.56465 0.57248 0.0
C2030 C 0.90582 0.57661 0.44513 0.0
C2031 C 0.92498 0.58044 0.43099 0.0
C2032 C 0.90499 0.57826 0.47608 0.0
C2033 C 0.92323 0.58351 0.49383 0.0
C2034 C 0.9426 0.58821 0.47937 0.0
C2035 C 0.94349 0.58686 0.44852 0.0
H2036 H 0.32543 0.88259 0.58986 0.0
H2037 H 0.36259 0.95227 0.58466 0.0
H2038 H 0.3198 0.88072 0.53638 0.0
H2039 H 0.35674 0.95037 0.53135 0.0
H2040 H 0.30465 0.88462 0.43888 0.0
H2041 H 0.304 0.8886 0.49275 0.0
H2042 H 0.37097 0.93913 0.49058 0.0
H2043 H 0.37155 0.93531 0.43718 0.0
C2044 C 0.33194 0.89755 0.5775 0.0
C2045 C 0.34462 0.91759 0.59173 0.0
C2046 C 0.32868 0.89647 0.54672 0.0
C2047 C 0.33805 0.91538 0.52934 0.0
C2048 C 0.34961 0.93544 0.54387 0.0
C2049 C 0.35283 0.93653 0.57458 0.0
C2050 C 0.31908 0.89688 0.44986 0.0
C2051 C 0.33814 0.90964 0.43359 0.0
C2052 C 0.31877 0.89902 0.4808 0.0
C2053 C 0.33744 0.91416 0.49618 0.0
C2054 C 0.35619 0.92748 0.47963 0.0
C2055 C 0.35655 0.92522 0.44889 0.0
H2056 H 0.45239 0.36921 0.57651 0.0
H2057 H 0.41952 0.2998 0.5861 0.0
H2058 H 0.44781 0.36545 0.52357 0.0
H2059 H 0.41363 0.29586 0.53254 0.0
H2060 H 0.43405 0.29931 0.43354 0.0
H2061 H 0.43126 0.29926 0.48743 0.0
H2062 H 0.42618 0.35703 0.48282 0.0
H2063 H 0.43035 0.35767 0.42934 0.0
C2064 C 0.4438 0.35304 0.56739 0.0
C2065 C 0.43658 0.33483 0.58582 0.0
C2066 C 0.4409 0.35084 0.53672 0.0
C2067 C 0.43029 0.3303 0.52323 0.0
C2068 C 0.4222 0.31198 0.54181 0.0
C2069 C 0.42535 0.31422 0.57268 0.0
C2070 C 0.43188 0.31172 0.44408 0.0
C2071 C 0.43251 0.32854 0.42714 0.0
C2072 C 0.43026 0.31173 0.47511 0.0
C2073 C 0.42889 0.32839 0.48998 0.0
C2074 C 0.42793 0.34429 0.4726 0.0
C2075 C 0.43003 0.34453 0.44175 0.0
H2076 H 0.13104 0.44735 0.59282 0.0
H2077 H 0.06155 0.41623 0.58536 0.0
H2078 H 0.13386 0.44527 0.53921 0.0
H2079 H 0.06438 0.41388 0.53189 0.0
H2080 H 0.08122 0.44578 0.43932 0.0
H2081 H 0.0766 0.44024 0.49246 0.0
H2082 H 0.12668 0.42319 0.49438 0.0
H2083 H 0.13154 0.42905 0.44079 0.0
C2084 C 0.1163 0.43956 0.5799 0.0
C2085 C 0.09606 0.43211 0.59358 0.0
C2086 C 0.11793 0.43834 0.54904 0.0
C2087 C 0.09937 0.42967 0.53102 0.0
C2088 C 0.07907 0.42105 0.54492 0.0
C2089 C 0.07743 0.42224 0.57572 0.0
C2090 C 0.09111 0.44059 0.45091 0.0
C2091 C 0.10681 0.43793 0.43562 0.0
C2092 C 0.08835 0.43727 0.48151 0.0
C2093 C 0.10125 0.43125 0.49792 0.0
C2094 C 0.11657 0.42799 0.48255 0.0
C2095 C 0.11924 0.43118 0.45175 0.0
H2096 H 0.6893 0.12082 0.42597 0.0
H2097 H 0.63936 0.05369 0.42991 0.0
H2098 H 0.69323 0.1212 0.47969 0.0
H2099 H 0.64238 0.05429 0.48325 0.0
H2100 H 0.65439 0.05517 0.5797 0.0
H2101 H 0.65987 0.05531 0.52643 0.0
H2102 H 0.67591 0.1222 0.52261 0.0
H2103 H 0.67161 0.12227 0.57592 0.0
C2104 C 0.67935 0.10605 0.4382 0.0
C2105 C 0.664 0.08724 0.42341 0.0
C2106 C 0.68139 0.10632 0.46919 0.0
C2107 C 0.66797 0.08785 0.48633 0.0
C2108 C 0.65331 0.06882 0.47123 0.0
C2109 C 0.65148 0.06849 0.44034 0.0
C2110 C 0.65955 0.07003 0.56754 0.0
C2111 C 0.66249 0.08867 0.58222 0.0
C2112 C 0.66247 0.07008 0.5368 0.0
C2113 C 0.668 0.08866 0.51966 0.0
C2114 C 0.67191 0.10759 0.53469 0.0
C2115 C 0.66936 0.10763 0.56549 0.0
H2116 H 0.59869 0.6496 0.43113 0.0
H2117 H 0.56726 0.68773 0.42507 0.0
H2118 H 0.60229 0.65539 0.48446 0.0
H2119 H 0.57064 0.69329 0.4786 0.0
H2120 H 0.58915 0.70827 0.57634 0.0
H2121 H 0.59397 0.70878 0.52252 0.0
H2122 H 0.57673 0.6416 0.52501 0.0
H2123 H 0.57218 0.64117 0.57834 0.0
C2124 C 0.59286 0.65954 0.44104 0.0
C2125 C 0.58256 0.66807 0.42362 0.0
C2126 C 0.59478 0.66273 0.47176 0.0
C2127 C 0.58649 0.67456 0.48607 0.0
C2128 C 0.57735 0.68419 0.46844 0.0
C2129 C 0.57538 0.68098 0.43764 0.0
C2130 C 0.58684 0.69376 0.56544 0.0
C2131 C 0.58028 0.67469 0.58179 0.0
C2132 C 0.58939 0.69398 0.53452 0.0
C2133 C 0.58571 0.67522 0.51924 0.0
C2134 C 0.58 0.65646 0.53587 0.0
C2135 C 0.57728 0.65618 0.56659 0.0
H2136 H 0.53236 0.11504 0.19041 0.0
H2137 H 0.52869 0.15148 0.26446 0.0
H2138 H 0.56652 0.12024 0.20866 0.0
H2139 H 0.56299 0.15614 0.2832 0.0
H2140 H 0.60302 0.12484 0.32184 0.0
H2141 H 0.57328 0.12862 0.30306 0.0
H2142 H 0.60575 0.15 0.21889 0.0
H2143 H 0.63612 0.14672 0.2379 0.0
C2144 C 0.53894 0.12447 0.21037 0.0
C2145 C 0.52773 0.13301 0.22579 0.0
C2146 C 0.55864 0.12748 0.22076 0.0
C2147 C 0.56753 0.13875 0.24718 0.0
C2148 C 0.5565 0.14743 0.26267 0.0
C2149 C 0.53688 0.14476 0.25194 0.0
C2150 C 0.60421 0.13085 0.29953 0.0
C2151 C 0.6221 0.1355 0.28141 0.0
C2152 C 0.5871 0.13307 0.28884 0.0
C2153 C 0.58719 0.13961 0.25956 0.0
C2154 C 0.60528 0.14488 0.24158 0.0
C2155 C 0.62266 0.14304 0.25248 0.0
H2156 H 0.4861 0.59916 0.32 0.0
H2157 H 0.49345 0.63356 0.23814 0.0
H2158 H 0.45208 0.56943 0.30262 0.0
H2159 H 0.45915 0.60329 0.22056 0.0
H2160 H 0.41737 0.53107 0.18933 0.0
H2161 H 0.44749 0.56495 0.20642 0.0
H2162 H 0.41401 0.55878 0.2886 0.0
H2163 H 0.38337 0.52465 0.27133 0.0
C2164 C 0.48036 0.6006 0.29843 0.0
C2165 C 0.49263 0.61893 0.28053 0.0
C2166 C 0.46071 0.58349 0.28854 0.0
C2167 C 0.45284 0.58401 0.26029 0.0
C2168 C 0.46484 0.60241 0.24245 0.0
C2169 C 0.48446 0.61976 0.25254 0.0
C2170 C 0.41609 0.53701 0.21085 0.0
C2171 C 0.39779 0.52501 0.22891 0.0
C2172 C 0.43343 0.55657 0.22058 0.0
C2173 C 0.43316 0.5646 0.24882 0.0
C2174 C 0.41471 0.55294 0.26673 0.0
C2175 C 0.39714 0.53343 0.2568 0.0
H2176 H 0.8679 0.49196 0.24586 0.0
H2177 H 0.89311 0.48313 0.32842 0.0
H2178 H 0.86529 0.45859 0.22696 0.0
H2179 H 0.89 0.44981 0.30974 0.0
H2180 H 0.86711 0.38168 0.27159 0.0
H2181 H 0.86266 0.41126 0.29135 0.0
H2182 H 0.89539 0.45009 0.21484 0.0
H2183 H 0.90041 0.42128 0.1956 0.0
C2184 C 0.8725 0.48278 0.26017 0.0
C2185 C 0.88071 0.49033 0.28868 0.0
C2186 C 0.87103 0.46369 0.24933 0.0
C2187 C 0.87739 0.45157 0.26694 0.0
C2188 C 0.88471 0.45862 0.29581 0.0
C2189 C 0.88654 0.47783 0.30645 0.0
C2190 C 0.87321 0.39646 0.25891 0.0
C2191 C 0.88395 0.3989 0.23183 0.0
C2192 C 0.87066 0.41338 0.27022 0.0
C2193 C 0.87845 0.43287 0.25442 0.0
C2194 C 0.88882 0.43512 0.22722 0.0
C2195 C 0.89173 0.4185 0.21625 0.0
H2196 H 0.48046 0.89447 0.18856 0.0
H2197 H 0.48843 0.8625 0.26477 0.0
H2198 H 0.4472 0.89012 0.20939 0.0
H2199 H 0.45514 0.85875 0.28603 0.0
H2200 H 0.41837 0.89296 0.32558 0.0
H2201 H 0.44681 0.88821 0.30416 0.0
H2202 H 0.40837 0.86093 0.22552 0.0
H2203 H 0.37916 0.86504 0.24745 0.0
C2204 C 0.475 0.88617 0.20954 0.0
C2205 C 0.48718 0.87871 0.22486 0.0
C2206 C 0.45582 0.88364 0.22141 0.0
C2207 C 0.4485 0.87398 0.2492 0.0
C2208 C 0.46042 0.86622 0.26447 0.0
C2209 C 0.47947 0.86837 0.25231 0.0
C2210 C 0.41558 0.88544 0.30403 0.0
C2211 C 0.39628 0.87924 0.28838 0.0
C2212 C 0.43197 0.88269 0.29179 0.0
C2213 C 0.42977 0.8741 0.26328 0.0
C2214 C 0.41043 0.86757 0.24762 0.0
C2215 C 0.39373 0.8699 0.26019 0.0
H2216 H 0.63249 0.48763 0.27004 0.0
H2217 H 0.5935 0.47908 0.19249 0.0
H2218 H 0.60311 0.45361 0.29022 0.0
H2219 H 0.56495 0.44532 0.21215 0.0
H2220 H 0.52252 0.37699 0.246 0.0
H2221 H 0.55633 0.40705 0.22669 0.0
H2222 H 0.56445 0.44293 0.30713 0.0
H2223 H 0.53078 0.41352 0.32608 0.0
C2224 C 0.61791 0.47843 0.25709 0.0
C2225 C 0.61553 0.48615 0.22952 0.0
C2226 C 0.60113 0.45898 0.26862 0.0
C2227 C 0.58186 0.4467 0.25254 0.0
C2228 C 0.57975 0.45416 0.22477 0.0
C2229 C 0.59622 0.47367 0.21356 0.0
C2230 C 0.53167 0.39115 0.25972 0.0
C2231 C 0.52383 0.39274 0.28762 0.0
C2232 C 0.551 0.40835 0.24866 0.0
C2233 C 0.56306 0.42728 0.26551 0.0
C2234 C 0.55572 0.42844 0.29384 0.0
C2235 C 0.53628 0.41152 0.30463 0.0
H2236 H 0.15856 0.63252 0.25767 0.0
H2237 H 0.10468 0.5906 0.20139 0.0
H2238 H 0.16028 0.60085 0.27541 0.0
H2239 H 0.1064 0.55952 0.21928 0.0
H2240 H 0.09618 0.51136 0.29476 0.0
H2241 H 0.09893 0.54406 0.27413 0.0
H2242 H 0.16574 0.56747 0.25162 0.0
H2243 H 0.16296 0.53417 0.27215 0.0
C2244 C 0.14721 0.61669 0.24898 0.0
C2245 C 0.13138 0.61416 0.22827 0.0
C2246 C 0.14832 0.59864 0.25896 0.0
C2247 C 0.13345 0.57781 0.24867 0.0
C2248 C 0.118 0.5754 0.22761 0.0
C2249 C 0.11704 0.59329 0.21743 0.0
C2250 C 0.11148 0.52338 0.28533 0.0
C2251 C 0.12935 0.52016 0.28499 0.0
C2252 C 0.11302 0.54209 0.2735 0.0
C2253 C 0.13254 0.55826 0.26139 0.0
C2254 C 0.15054 0.55523 0.26101 0.0
C2255 C 0.14889 0.53616 0.27245 0.0
H2256 H 0.48574 0.88974 0.81939 0.0
H2257 H 0.49296 0.86367 0.73648 0.0
H2258 H 0.45195 0.88609 0.80227 0.0
H2259 H 0.45891 0.86037 0.71915 0.0
H2260 H 0.41686 0.89133 0.69036 0.0
H2261 H 0.44732 0.88775 0.70655 0.0
H2262 H 0.41384 0.85818 0.7879 0.0
H2263 H 0.38293 0.86147 0.77158 0.0
C2264 C 0.48003 0.88293 0.79762 0.0
C2265 C 0.49215 0.87687 0.7794 0.0
C2266 C 0.46052 0.88078 0.78788 0.0
C2267 C 0.45269 0.87283 0.75946 0.0
C2268 C 0.46459 0.86657 0.7412 0.0
C2269 C 0.48406 0.86842 0.75115 0.0
C2270 C 0.4157 0.8837 0.71151 0.0
C2271 C 0.39731 0.87665 0.72964 0.0
C2272 C 0.43321 0.88157 0.7207 0.0
C2273 C 0.43298 0.87265 0.74844 0.0
C2274 C 0.41449 0.8652 0.76641 0.0
C2275 C 0.39677 0.86704 0.75703 0.0
H2276 H 0.5989 0.48086 0.82631 0.0
H2277 H 0.63514 0.49086 0.74544 0.0
H2278 H 0.56961 0.44745 0.80676 0.0
H2279 H 0.60512 0.45727 0.72547 0.0
H2280 H 0.53245 0.41976 0.69263 0.0
H2281 H 0.56639 0.44831 0.71199 0.0
H2282 H 0.55948 0.40929 0.78859 0.0
H2283 H 0.52536 0.37999 0.76873 0.0
C2284 C 0.60088 0.47579 0.80454 0.0
C2285 C 0.61955 0.48864 0.78753 0.0
C2286 C 0.584 0.45651 0.7934 0.0
C2287 C 0.58509 0.4497 0.76468 0.0
C2288 C 0.60389 0.46217 0.74775 0.0
C2289 C 0.62107 0.48137 0.75918 0.0
C2290 C 0.53823 0.41688 0.71329 0.0
C2291 C 0.52611 0.39735 0.72896 0.0
C2292 C 0.55783 0.43333 0.72432 0.0
C2293 C 0.5657 0.43097 0.75162 0.0
C2294 C 0.55379 0.41147 0.76737 0.0
C2295 C 0.53426 0.39474 0.75602 0.0
H2296 H 0.12252 0.59617 0.82781 0.0
H2297 H 0.14883 0.62998 0.74532 0.0
H2298 H 0.12674 0.56638 0.8106 0.0
H2299 H 0.15284 0.59966 0.72794 0.0
H2300 H 0.12182 0.52745 0.6973 0.0
H2301 H 0.12573 0.56134 0.71451 0.0
H2302 H 0.1539 0.55547 0.796 0.0
H2303 H 0.15023 0.52129 0.77861 0.0
C2304 C 0.12955 0.59748 0.80614 0.0
C2305 C 0.13537 0.61562 0.78799 0.0
C2306 C 0.13206 0.58034 0.79635 0.0
C2307 C 0.14018 0.58066 0.76798 0.0
C2308 C 0.14646 0.59894 0.74993 0.0
C2309 C 0.14421 0.61632 0.7599 0.0
C2310 C 0.12922 0.53343 0.71871 0.0
C2311 C 0.13576 0.52153 0.73652 0.0
C2312 C 0.13155 0.55301 0.72849 0.0
C2313 C 0.1402 0.56115 0.75653 0.0
C2314 C 0.14712 0.54954 0.77426 0.0
C2315 C 0.14505 0.52999 0.76429 0.0
H2316 H 0.62963 0.14497 0.7671 0.0
H2317 H 0.59131 0.11265 0.68977 0.0
H2318 H 0.59988 0.14928 0.78615 0.0
H2319 H 0.56209 0.11734 0.70855 0.0
H2320 H 0.51997 0.14486 0.73965 0.0
H2321 H 0.553 0.14674 0.72069 0.0
H2322 H 0.56177 0.12265 0.80407 0.0
H2323 H 0.52885 0.12039 0.82286 0.0
C2324 C 0.61504 0.139 0.75401 0.0
C2325 C 0.61301 0.12855 0.7268 0.0
C2326 C 0.59801 0.14145 0.76494 0.0
C2327 C 0.57874 0.13381 0.74869 0.0
C2328 C 0.57687 0.12374 0.72132 0.0
C2329 C 0.59368 0.12099 0.71064 0.0
C2330 C 0.52907 0.14022 0.75406 0.0
C2331 C 0.52167 0.13248 0.7828 0.0
C2332 C 0.54795 0.14123 0.74317 0.0
C2333 C 0.55998 0.13487 0.76095 0.0
C2334 C 0.55302 0.12793 0.78999 0.0
C2335 C 0.53404 0.12658 0.80069 0.0
H2336 H 0.42151 0.5293 0.82485 0.0
H2337 H 0.38357 0.5235 0.7472 0.0
H2338 H 0.4511 0.56301 0.80592 0.0
H2339 H 0.41358 0.55729 0.72811 0.0
H2340 H 0.48381 0.59464 0.68976 0.0
H2341 H 0.45076 0.56581 0.71053 0.0
H2342 H 0.46233 0.60219 0.79137 0.0
H2343 H 0.49571 0.63186 0.77012 0.0
C2344 C 0.41928 0.53532 0.80394 0.0
C2345 C 0.40003 0.52357 0.78757 0.0
C2346 C 0.43628 0.55477 0.7932 0.0
C2347 C 0.43464 0.56283 0.76562 0.0
C2348 C 0.41529 0.55141 0.74947 0.0
C2349 C 0.39811 0.53206 0.7604 0.0
C2350 C 0.47926 0.59693 0.71172 0.0
C2351 C 0.49248 0.61582 0.7281 0.0
C2352 C 0.46017 0.58028 0.7236 0.0
C2353 C 0.45384 0.58177 0.75246 0.0
C2354 C 0.46683 0.60065 0.76898 0.0
C2355 C 0.48589 0.61764 0.7568 0.0
H2356 H 0.89233 0.41052 0.82549 0.0
H2357 H 0.86779 0.37667 0.74258 0.0
H2358 H 0.88918 0.44062 0.80689 0.0
H2359 H 0.86493 0.40734 0.72379 0.0
H2360 H 0.89639 0.47975 0.69305 0.0
H2361 H 0.89264 0.446 0.71092 0.0
H2362 H 0.86199 0.45109 0.7905 0.0
H2363 H 0.86549 0.48501 0.77251 0.0
C2364 C 0.88594 0.40929 0.80341 0.0
C2365 C 0.88022 0.391 0.7856 0.0
C2366 C 0.88407 0.42662 0.79281 0.0
C2367 C 0.87674 0.42634 0.76395 0.0
C2368 C 0.8707 0.408 0.74615 0.0
C2369 C 0.87227 0.39043 0.75693 0.0
C2370 C 0.88854 0.47363 0.71418 0.0
C2371 C 0.88119 0.48518 0.73128 0.0
C2372 C 0.8863 0.45415 0.72433 0.0
C2373 C 0.87694 0.44583 0.75203 0.0
C2374 C 0.86933 0.45716 0.76906 0.0
C2375 C 0.87131 0.47657 0.75873 0.0
loop_
_geom_bond_atom_site_label_1
_geom_bond_atom_site_label_2
_geom_bond_distance
_geom_bond_site_symmetry_2
_ccdc_geom_bond_type
Co0 O2 2.143 . S
Co0 O8 2.074 . S
Co0 O11 2.093 . S
Co0 O24 2.097 . S
Co0 N41 2.151 . S
Co0 N49 2.214 . S
Co1 O2 2.160 . S
Co1 O7 2.058 . S
Co1 O17 2.057 . S
Co1 O32 2.037 . S
Co1 N36 2.145 . S
Co1 N57 2.257 . S
O2 Co0 2.143 . S
O2 Co1 2.160 . S
C3 O4 1.278 . S
C3 O11 1.224 . S
O4 C3 1.278 . S
C5 O6 1.245 . S
C5 O17 1.232 . S
O6 C5 1.245 . S
O7 Co1 2.058 . S
O7 C33 1.269 . S
O8 Co0 2.074 . S
O8 C33 1.257 . S
H9 C34 0.930 . S
H10 C40 0.930 . S
O11 Co0 2.093 . S
O11 C3 1.224 . S
H12 C44 0.929 . S
H13 C46 0.930 . S
H14 C47 0.930 . S
H15 C45 0.929 . S
H16 C48 0.928 . S
O17 Co1 2.057 . S
O17 C5 1.232 . S
H18 C37 0.929 . S
H19 C38 0.929 . S
H20 C50 0.931 . S
H21 C42 0.929 . S
H22 C51 0.930 . S
H23 C43 0.931 . S
O24 Co0 2.097 . S
O24 C52 1.214 . S
H25 C53 0.929 . S
H26 C54 0.929 . S
H27 C55 0.930 . S
H28 C56 0.929 . S
H29 C58 0.930 . S
H30 C35 0.930 . S
H31 C39 0.930 . S
O32 Co1 2.037 . S
O32 C52 1.234 . S
C33 O7 1.269 . S
C33 O8 1.257 . S
C34 H9 0.930 . S
C34 C37 1.388 . S
C34 C39 1.418 . S
C35 H30 0.930 . S
C35 C38 1.404 . S
C35 C39 1.353 . S
N36 Co1 2.145 . S
N36 C37 1.397 . S
N36 C38 1.334 . S
C37 H18 0.929 . S
C37 C34 1.388 . S
C37 N36 1.397 . S
C38 H19 0.929 . S
C38 C35 1.404 . S
C38 N36 1.334 . S
C39 H31 0.930 . S
C39 C34 1.418 . S
C39 C35 1.353 . S
C40 H10 0.930 . S
C40 N41 1.330 . S
C40 C42 1.446 . S
N41 Co0 2.151 . S
N41 C40 1.330 . S
N41 C45 1.418 . S
C42 H21 0.929 . S
C42 C40 1.446 . S
C42 C43 1.332 . S
C43 H23 0.931 . S
C43 C42 1.332 . S
C43 C44 1.267 . S
C44 H12 0.929 . S
C44 C43 1.267 . S
C44 C45 1.251 . S
C45 H15 0.929 . S
C45 N41 1.418 . S
C45 C44 1.251 . S
C46 H13 0.930 . S
C46 C48 1.406 . S
C46 C51 1.261 . S
C47 H14 0.930 . S
C47 N49 1.325 . S
C47 C50 1.357 . S
C48 H16 0.928 . S
C48 C46 1.406 . S
C48 N49 1.261 . S
N49 Co0 2.214 . S
N49 C47 1.325 . S
N49 C48 1.261 . S
C50 H20 0.931 . S
C50 C47 1.357 . S
C50 C51 1.312 . S
C51 H22 0.930 . S
C51 C46 1.261 . S
C51 C50 1.312 . S
C52 O24 1.214 . S
C52 O32 1.234 . S
C53 H25 0.929 . S
C53 C56 1.391 . S
C53 C58 1.391 . S
C54 H26 0.929 . S
C54 C55 1.390 . S
C54 N57 1.391 . S
C55 H27 0.930 . S
C55 C54 1.390 . S
C55 C56 1.392 . S
C56 H28 0.929 . S
C56 C53 1.391 . S
C56 C55 1.392 . S
N57 Co1 2.257 . S
N57 C54 1.391 . S
N57 C58 1.388 . S
C58 H29 0.930 . S
C58 C53 1.391 . S
C58 N57 1.388 . S
Co59 O61 2.143 . S
Co59 O67 2.074 . S
Co59 O70 2.093 . S
Co59 O83 2.097 . S
Co59 N100 2.151 . S
Co59 N108 2.214 . S
Co60 O61 2.160 . S
Co60 O66 2.058 . S
Co60 O76 2.057 . S
Co60 O91 2.037 . S
Co60 N95 2.145 . S
Co60 N116 2.257 . S
O61 Co59 2.143 . S
O61 Co60 2.160 . S
C62 O63 1.278 . S
C62 O70 1.224 . S
O63 C62 1.278 . S
C64 O65 1.245 . S
C64 O76 1.232 . S
O65 C64 1.245 . S
O66 Co60 2.058 . S
O66 C92 1.269 . S
O67 Co59 2.074 . S
O67 C92 1.257 . S
H68 C93 0.930 . S
H69 C99 0.930 . S
O70 Co59 2.093 . S
O70 C62 1.224 . S
H71 C103 0.929 . S
H72 C105 0.930 . S
H73 C106 0.930 . S
H74 C104 0.929 . S
H75 C107 0.928 . S
O76 Co60 2.057 . S
O76 C64 1.232 . S
H77 C96 0.929 . S
H78 C97 0.929 . S
H79 C109 0.931 . S
H80 C101 0.929 . S
H81 C110 0.930 . S
H82 C102 0.931 . S
O83 Co59 2.097 . S
O83 C111 1.214 . S
H84 C112 0.929 . S
H85 C113 0.929 . S
H86 C114 0.930 . S
H87 C115 0.929 . S
H88 C117 0.930 . S
H89 C94 0.930 . S
H90 C98 0.930 . S
O91 Co60 2.037 . S
O91 C111 1.234 . S
C92 O66 1.269 . S
C92 O67 1.257 . S
C93 H68 0.930 . S
C93 C96 1.388 . S
C93 C98 1.418 . S
C94 H89 0.930 . S
C94 C97 1.404 . S
C94 C98 1.353 . S
N95 Co60 2.145 . S
N95 C96 1.397 . S
N95 C97 1.334 . S
C96 H77 0.929 . S
C96 C93 1.388 . S
C96 N95 1.397 . S
C97 H78 0.929 . S
C97 C94 1.404 . S
C97 N95 1.334 . S
C98 H90 0.930 . S
C98 C93 1.418 . S
C98 C94 1.353 . S
C99 H69 0.930 . S
C99 N100 1.330 . S
C99 C101 1.446 . S
N100 Co59 2.151 . S
N100 C99 1.330 . S
N100 C104 1.418 . S
C101 H80 0.929 . S
C101 C99 1.446 . S
C101 C102 1.332 . S
C102 H82 0.931 . S
C102 C101 1.332 . S
C102 C103 1.267 . S
C103 H71 0.929 . S
C103 C102 1.267 . S
C103 C104 1.251 . S
C104 H74 0.929 . S
C104 N100 1.418 . S
C104 C103 1.251 . S
C105 H72 0.930 . S
C105 C107 1.406 . S
C105 C110 1.261 . S
C106 H73 0.930 . S
C106 N108 1.325 . S
C106 C109 1.357 . S
C107 H75 0.928 . S
C107 C105 1.406 . S
C107 N108 1.261 . S
N108 Co59 2.214 . S
N108 C106 1.325 . S
N108 C107 1.261 . S
C109 H79 0.931 . S
C109 C106 1.357 . S
C109 C110 1.312 . S
C110 H81 0.930 . S
C110 C105 1.261 . S
C110 C109 1.312 . S
C111 O83 1.214 . S
C111 O91 1.234 . S
C112 H84 0.929 . S
C112 C115 1.391 . S
C112 C117 1.391 . S
C113 H85 0.929 . S
C113 C114 1.390 . S
C113 N116 1.391 . S
C114 H86 0.930 . S
C114 C113 1.390 . S
C114 C115 1.392 . S
C115 H87 0.929 . S
C115 C112 1.391 . S
C115 C114 1.392 . S
N116 Co60 2.257 . S
N116 C113 1.391 . S
N116 C117 1.388 . S
C117 H88 0.930 . S
C117 C112 1.391 . S
C117 N116 1.388 . S
Co118 O120 2.143 . S
Co118 O126 2.074 . S
Co118 O129 2.093 . S
Co118 O142 2.097 . S
Co118 N159 2.151 . S
Co118 N167 2.214 . S
Co119 O120 2.160 . S
Co119 O125 2.058 . S
Co119 O135 2.057 . S
Co119 O150 2.037 . S
Co119 N154 2.145 . S
Co119 N175 2.257 . S
O120 Co118 2.143 . S
O120 Co119 2.160 . S
C121 O122 1.278 . S
C121 O129 1.224 . S
O122 C121 1.278 . S
C123 O124 1.245 . S
C123 O135 1.232 . S
O124 C123 1.245 . S
O125 Co119 2.058 . S
O125 C151 1.269 . S
O126 Co118 2.074 . S
O126 C151 1.257 . S
H127 C152 0.930 . S
H128 C158 0.930 . S
O129 Co118 2.093 . S
O129 C121 1.224 . S
H130 C162 0.929 . S
H131 C164 0.930 . S
H132 C165 0.930 . S
H133 C163 0.929 . S
H134 C166 0.928 . S
O135 Co119 2.057 . S
O135 C123 1.232 . S
H136 C155 0.929 . S
H137 C156 0.929 . S
H138 C168 0.931 . S
H139 C160 0.929 . S
H140 C169 0.930 . S
H141 C161 0.931 . S
O142 Co118 2.097 . S
O142 C170 1.214 . S
H143 C171 0.929 . S
H144 C172 0.929 . S
H145 C173 0.930 . S
H146 C174 0.929 . S
H147 C176 0.930 . S
H148 C153 0.930 . S
H149 C157 0.930 . S
O150 Co119 2.037 . S
O150 C170 1.234 . S
C151 O125 1.269 . S
C151 O126 1.257 . S
C152 H127 0.930 . S
C152 C155 1.388 . S
C152 C157 1.418 . S
C153 H148 0.930 . S
C153 C156 1.404 . S
C153 C157 1.353 . S
N154 Co119 2.145 . S
N154 C155 1.397 . S
N154 C156 1.334 . S
C155 H136 0.929 . S
C155 C152 1.388 . S
C155 N154 1.397 . S
C156 H137 0.929 . S
C156 C153 1.404 . S
C156 N154 1.334 . S
C157 H149 0.930 . S
C157 C152 1.418 . S
C157 C153 1.353 . S
C158 H128 0.930 . S
C158 N159 1.330 . S
C158 C160 1.446 . S
N159 Co118 2.151 . S
N159 C158 1.330 . S
N159 C163 1.418 . S
C160 H139 0.929 . S
C160 C158 1.446 . S
C160 C161 1.332 . S
C161 H141 0.931 . S
C161 C160 1.332 . S
C161 C162 1.267 . S
C162 H130 0.929 . S
C162 C161 1.267 . S
C162 C163 1.251 . S
C163 H133 0.929 . S
C163 N159 1.418 . S
C163 C162 1.251 . S
C164 H131 0.930 . S
C164 C166 1.406 . S
C164 C169 1.261 . S
C165 H132 0.930 . S
C165 N167 1.325 . S
C165 C168 1.357 . S
C166 H134 0.928 . S
C166 C164 1.406 . S
C166 N167 1.261 . S
N167 Co118 2.214 . S
N167 C165 1.325 . S
N167 C166 1.261 . S
C168 H138 0.931 . S
C168 C165 1.357 . S
C168 C169 1.312 . S
C169 H140 0.930 . S
C169 C164 1.261 . S
C169 C168 1.312 . S
C170 O142 1.214 . S
C170 O150 1.234 . S
C171 H143 0.929 . S
C171 C174 1.391 . S
C171 C176 1.391 . S
C172 H144 0.929 . S
C172 C173 1.390 . S
C172 N175 1.391 . S
C173 H145 0.930 . S
C173 C172 1.390 . S
C173 C174 1.392 . S
C174 H146 0.929 . S
C174 C171 1.391 . S
C174 C173 1.392 . S
N175 Co119 2.257 . S
N175 C172 1.391 . S
N175 C176 1.388 . S
C176 H147 0.930 . S
C176 C171 1.391 . S
C176 N175 1.388 . S
Co177 O179 2.143 . S
Co177 O185 2.074 . S
Co177 O188 2.093 . S
Co177 O201 2.097 . S
Co177 N218 2.151 . S
Co177 N226 2.214 . S
Co178 O179 2.160 . S
Co178 O184 2.058 . S
Co178 O194 2.057 . S
Co178 O209 2.037 . S
Co178 N213 2.145 . S
Co178 N234 2.257 . S
O179 Co177 2.143 . S
O179 Co178 2.160 . S
C180 O181 1.278 . S
C180 O188 1.224 . S
O181 C180 1.278 . S
C182 O183 1.245 . S
C182 O194 1.232 . S
O183 C182 1.245 . S
O184 Co178 2.058 . S
O184 C210 1.269 . S
O185 Co177 2.074 . S
O185 C210 1.257 . S
H186 C211 0.930 . S
H187 C217 0.930 . S
O188 Co177 2.093 . S
O188 C180 1.224 . S
H189 C221 0.929 . S
H190 C223 0.930 . S
H191 C224 0.930 . S
H192 C222 0.929 . S
H193 C225 0.928 . S
O194 Co178 2.057 . S
O194 C182 1.232 . S
H195 C214 0.929 . S
H196 C215 0.929 . S
H197 C227 0.931 . S
H198 C219 0.929 . S
H199 C228 0.930 . S
H200 C220 0.931 . S
O201 Co177 2.097 . S
O201 C229 1.214 . S
H202 C230 0.929 . S
H203 C231 0.929 . S
H204 C232 0.930 . S
H205 C233 0.929 . S
H206 C235 0.930 . S
H207 C212 0.930 . S
H208 C216 0.930 . S
O209 Co178 2.037 . S
O209 C229 1.234 . S
C210 O184 1.269 . S
C210 O185 1.257 . S
C211 H186 0.930 . S
C211 C214 1.388 . S
C211 C216 1.418 . S
C212 H207 0.930 . S
C212 C215 1.404 . S
C212 C216 1.353 . S
N213 Co178 2.145 . S
N213 C214 1.397 . S
N213 C215 1.334 . S
C214 H195 0.929 . S
C214 C211 1.388 . S
C214 N213 1.397 . S
C215 H196 0.929 . S
C215 C212 1.404 . S
C215 N213 1.334 . S
C216 H208 0.930 . S
C216 C211 1.418 . S
C216 C212 1.353 . S
C217 H187 0.930 . S
C217 N218 1.330 . S
C217 C219 1.446 . S
N218 Co177 2.151 . S
N218 C217 1.330 . S
N218 C222 1.418 . S
C219 H198 0.929 . S
C219 C217 1.446 . S
C219 C220 1.332 . S
C220 H200 0.931 . S
C220 C219 1.332 . S
C220 C221 1.267 . S
C221 H189 0.929 . S
C221 C220 1.267 . S
C221 C222 1.251 . S
C222 H192 0.929 . S
C222 N218 1.418 . S
C222 C221 1.251 . S
C223 H190 0.930 . S
C223 C225 1.406 . S
C223 C228 1.261 . S
C224 H191 0.930 . S
C224 N226 1.325 . S
C224 C227 1.357 . S
C225 H193 0.928 . S
C225 C223 1.406 . S
C225 N226 1.261 . S
N226 Co177 2.214 . S
N226 C224 1.325 . S
N226 C225 1.261 . S
C227 H197 0.931 . S
C227 C224 1.357 . S
C227 C228 1.312 . S
C228 H199 0.930 . S
C228 C223 1.261 . S
C228 C227 1.312 . S
C229 O201 1.214 . S
C229 O209 1.234 . S
C230 H202 0.929 . S
C230 C233 1.391 . S
C230 C235 1.391 . S
C231 H203 0.929 . S
C231 C232 1.390 . S
C231 N234 1.391 . S
C232 H204 0.930 . S
C232 C231 1.390 . S
C232 C233 1.392 . S
C233 H205 0.929 . S
C233 C230 1.391 . S
C233 C232 1.392 . S
N234 Co178 2.257 . S
N234 C231 1.391 . S
N234 C235 1.388 . S
C235 H206 0.930 . S
C235 C230 1.391 . S
C235 N234 1.388 . S
Co236 O238 2.143 . S
Co236 O244 2.074 . S
Co236 O247 2.093 . S
Co236 O260 2.097 . S
Co236 N277 2.151 . S
Co236 N285 2.214 . S
Co237 O238 2.160 . S
Co237 O243 2.058 . S
Co237 O253 2.057 . S
Co237 O268 2.037 . S
Co237 N272 2.145 . S
Co237 N293 2.257 . S
O238 Co236 2.143 . S
O238 Co237 2.160 . S
C239 O240 1.278 . S
C239 O247 1.224 . S
O240 C239 1.278 . S
C241 O242 1.245 . S
C241 O253 1.232 . S
O242 C241 1.245 . S
O243 Co237 2.058 . S
O243 C269 1.269 . S
O244 Co236 2.074 . S
O244 C269 1.257 . S
H245 C270 0.930 . S
H246 C276 0.930 . S
O247 Co236 2.093 . S
O247 C239 1.224 . S
H248 C280 0.929 . S
H249 C282 0.930 . S
H250 C283 0.930 . S
H251 C281 0.929 . S
H252 C284 0.928 . S
O253 Co237 2.057 . S
O253 C241 1.232 . S
H254 C273 0.929 . S
H255 C274 0.929 . S
H256 C286 0.931 . S
H257 C278 0.929 . S
H258 C287 0.930 . S
H259 C279 0.931 . S
O260 Co236 2.097 . S
O260 C288 1.214 . S
H261 C289 0.929 . S
H262 C290 0.929 . S
H263 C291 0.930 . S
H264 C292 0.929 . S
H265 C294 0.930 . S
H266 C271 0.930 . S
H267 C275 0.930 . S
O268 Co237 2.037 . S
O268 C288 1.234 . S
C269 O243 1.269 . S
C269 O244 1.257 . S
C270 H245 0.930 . S
C270 C273 1.388 . S
C270 C275 1.418 . S
C271 H266 0.930 . S
C271 C274 1.404 . S
C271 C275 1.353 . S
N272 Co237 2.145 . S
N272 C273 1.397 . S
N272 C274 1.334 . S
C273 H254 0.929 . S
C273 C270 1.388 . S
C273 N272 1.397 . S
C274 H255 0.929 . S
C274 C271 1.404 . S
C274 N272 1.334 . S
C275 H267 0.930 . S
C275 C270 1.418 . S
C275 C271 1.353 . S
C276 H246 0.930 . S
C276 N277 1.330 . S
C276 C278 1.446 . S
N277 Co236 2.151 . S
N277 C276 1.330 . S
N277 C281 1.418 . S
C278 H257 0.929 . S
C278 C276 1.446 . S
C278 C279 1.332 . S
C279 H259 0.931 . S
C279 C278 1.332 . S
C279 C280 1.267 . S
C280 H248 0.929 . S
C280 C279 1.267 . S
C280 C281 1.251 . S
C281 H251 0.929 . S
C281 N277 1.418 . S
C281 C280 1.251 . S
C282 H249 0.930 . S
C282 C284 1.406 . S
C282 C287 1.261 . S
C283 H250 0.930 . S
C283 N285 1.325 . S
C283 C286 1.357 . S
C284 H252 0.928 . S
C284 C282 1.406 . S
C284 N285 1.261 . S
N285 Co236 2.214 . S
N285 C283 1.325 . S
N285 C284 1.261 . S
C286 H256 0.931 . S
C286 C283 1.357 . S
C286 C287 1.312 . S
C287 H258 0.930 . S
C287 C282 1.261 . S
C287 C286 1.312 . S
C288 O260 1.214 . S
C288 O268 1.234 . S
C289 H261 0.929 . S
C289 C292 1.391 . S
C289 C294 1.391 . S
C290 H262 0.929 . S
C290 C291 1.390 . S
C290 N293 1.391 . S
C291 H263 0.930 . S
C291 C290 1.390 . S
C291 C292 1.392 . S
C292 H264 0.929 . S
C292 C289 1.391 . S
C292 C291 1.392 . S
N293 Co237 2.257 . S
N293 C290 1.391 . S
N293 C294 1.388 . S
C294 H265 0.930 . S
C294 C289 1.391 . S
C294 N293 1.388 . S
Co295 O297 2.143 . S
Co295 O303 2.074 . S
Co295 O306 2.093 . S
Co295 O319 2.097 . S
Co295 N336 2.151 . S
Co295 N344 2.214 . S
Co296 O297 2.160 . S
Co296 O302 2.058 . S
Co296 O312 2.057 . S
Co296 O327 2.037 . S
Co296 N331 2.145 . S
Co296 N352 2.257 . S
O297 Co295 2.143 . S
O297 Co296 2.160 . S
C298 O299 1.278 . S
C298 O306 1.224 . S
O299 C298 1.278 . S
C300 O301 1.245 . S
C300 O312 1.232 . S
O301 C300 1.245 . S
O302 Co296 2.058 . S
O302 C328 1.269 . S
O303 Co295 2.074 . S
O303 C328 1.257 . S
H304 C329 0.930 . S
H305 C335 0.930 . S
O306 Co295 2.093 . S
O306 C298 1.224 . S
H307 C339 0.929 . S
H308 C341 0.930 . S
H309 C342 0.930 . S
H310 C340 0.929 . S
H311 C343 0.928 . S
O312 Co296 2.057 . S
O312 C300 1.232 . S
H313 C332 0.929 . S
H314 C333 0.929 . S
H315 C345 0.931 . S
H316 C337 0.929 . S
H317 C346 0.930 . S
H318 C338 0.931 . S
O319 Co295 2.097 . S
O319 C347 1.214 . S
H320 C348 0.929 . S
H321 C349 0.929 . S
H322 C350 0.930 . S
H323 C351 0.929 . S
H324 C353 0.930 . S
H325 C330 0.930 . S
H326 C334 0.930 . S
O327 Co296 2.037 . S
O327 C347 1.234 . S
C328 O302 1.269 . S
C328 O303 1.257 . S
C329 H304 0.930 . S
C329 C332 1.388 . S
C329 C334 1.418 . S
C330 H325 0.930 . S
C330 C333 1.404 . S
C330 C334 1.353 . S
N331 Co296 2.145 . S
N331 C332 1.397 . S
N331 C333 1.334 . S
C332 H313 0.929 . S
C332 C329 1.388 . S
C332 N331 1.397 . S
C333 H314 0.929 . S
C333 C330 1.404 . S
C333 N331 1.334 . S
C334 H326 0.930 . S
C334 C329 1.418 . S
C334 C330 1.353 . S
C335 H305 0.930 . S
C335 N336 1.330 . S
C335 C337 1.446 . S
N336 Co295 2.151 . S
N336 C335 1.330 . S
N336 C340 1.418 . S
C337 H316 0.929 . S
C337 C335 1.446 . S
C337 C338 1.332 . S
C338 H318 0.931 . S
C338 C337 1.332 . S
C338 C339 1.267 . S
C339 H307 0.929 . S
C339 C338 1.267 . S
C339 C340 1.251 . S
C340 H310 0.929 . S
C340 N336 1.418 . S
C340 C339 1.251 . S
C341 H308 0.930 . S
C341 C343 1.406 . S
C341 C346 1.261 . S
C342 H309 0.930 . S
C342 N344 1.325 . S
C342 C345 1.357 . S
C343 H311 0.928 . S
C343 C341 1.406 . S
C343 N344 1.261 . S
N344 Co295 2.214 . S
N344 C342 1.325 . S
N344 C343 1.261 . S
C345 H315 0.931 . S
C345 C342 1.357 . S
C345 C346 1.312 . S
C346 H317 0.930 . S
C346 C341 1.261 . S
C346 C345 1.312 . S
C347 O319 1.214 . S
C347 O327 1.234 . S
C348 H320 0.929 . S
C348 C351 1.391 . S
C348 C353 1.391 . S
C349 H321 0.929 . S
C349 C350 1.390 . S
C349 N352 1.391 . S
C350 H322 0.930 . S
C350 C349 1.390 . S
C350 C351 1.392 . S
C351 H323 0.929 . S
C351 C348 1.391 . S
C351 C350 1.392 . S
N352 Co296 2.257 . S
N352 C349 1.391 . S
N352 C353 1.388 . S
C353 H324 0.930 . S
C353 C348 1.391 . S
C353 N352 1.388 . S
Co354 O356 2.143 . S
Co354 O362 2.074 . S
Co354 O365 2.093 . S
Co354 O378 2.097 . S
Co354 N395 2.151 . S
Co354 N403 2.214 . S
Co355 O356 2.160 . S
Co355 O361 2.058 . S
Co355 O371 2.057 . S
Co355 O386 2.037 . S
Co355 N390 2.145 . S
Co355 N411 2.257 . S
O356 Co354 2.143 . S
O356 Co355 2.160 . S
C357 O358 1.278 . S
C357 O365 1.224 . S
O358 C357 1.278 . S
C359 O360 1.245 . S
C359 O371 1.232 . S
O360 C359 1.245 . S
O361 Co355 2.058 . S
O361 C387 1.269 . S
O362 Co354 2.074 . S
O362 C387 1.257 . S
H363 C388 0.930 . S
H364 C394 0.930 . S
O365 Co354 2.093 . S
O365 C357 1.224 . S
H366 C398 0.929 . S
H367 C400 0.930 . S
H368 C401 0.930 . S
H369 C399 0.929 . S
H370 C402 0.928 . S
O371 Co355 2.057 . S
O371 C359 1.232 . S
H372 C391 0.929 . S
H373 C392 0.929 . S
H374 C404 0.931 . S
H375 C396 0.929 . S
H376 C405 0.930 . S
H377 C397 0.931 . S
O378 Co354 2.097 . S
O378 C406 1.214 . S
H379 C407 0.929 . S
H380 C408 0.929 . S
H381 C409 0.930 . S
H382 C410 0.929 . S
H383 C412 0.930 . S
H384 C389 0.930 . S
H385 C393 0.930 . S
O386 Co355 2.037 . S
O386 C406 1.234 . S
C387 O361 1.269 . S
C387 O362 1.257 . S
C388 H363 0.930 . S
C388 C391 1.388 . S
C388 C393 1.418 . S
C389 H384 0.930 . S
C389 C392 1.404 . S
C389 C393 1.353 . S
N390 Co355 2.145 . S
N390 C391 1.397 . S
N390 C392 1.334 . S
C391 H372 0.929 . S
C391 C388 1.388 . S
C391 N390 1.397 . S
C392 H373 0.929 . S
C392 C389 1.404 . S
C392 N390 1.334 . S
C393 H385 0.930 . S
C393 C388 1.418 . S
C393 C389 1.353 . S
C394 H364 0.930 . S
C394 N395 1.330 . S
C394 C396 1.446 . S
N395 Co354 2.151 . S
N395 C394 1.330 . S
N395 C399 1.418 . S
C396 H375 0.929 . S
C396 C394 1.446 . S
C396 C397 1.332 . S
C397 H377 0.931 . S
C397 C396 1.332 . S
C397 C398 1.267 . S
C398 H366 0.929 . S
C398 C397 1.267 . S
C398 C399 1.251 . S
C399 H369 0.929 . S
C399 N395 1.418 . S
C399 C398 1.251 . S
C400 H367 0.930 . S
C400 C402 1.406 . S
C400 C405 1.261 . S
C401 H368 0.930 . S
C401 N403 1.325 . S
C401 C404 1.357 . S
C402 H370 0.928 . S
C402 C400 1.406 . S
C402 N403 1.261 . S
N403 Co354 2.214 . S
N403 C401 1.325 . S
N403 C402 1.261 . S
C404 H374 0.931 . S
C404 C401 1.357 . S
C404 C405 1.312 . S
C405 H376 0.930 . S
C405 C400 1.261 . S
C405 C404 1.312 . S
C406 O378 1.214 . S
C406 O386 1.234 . S
C407 H379 0.929 . S
C407 C410 1.391 . S
C407 C412 1.391 . S
C408 H380 0.929 . S
C408 C409 1.390 . S
C408 N411 1.391 . S
C409 H381 0.930 . S
C409 C408 1.390 . S
C409 C410 1.392 . S
C410 H382 0.929 . S
C410 C407 1.391 . S
C410 C409 1.392 . S
N411 Co355 2.257 . S
N411 C408 1.391 . S
N411 C412 1.388 . S
C412 H383 0.930 . S
C412 C407 1.391 . S
C412 N411 1.388 . S
Co413 O415 2.143 . S
Co413 O421 2.074 . S
Co413 O424 2.093 . S
Co413 O437 2.097 . S
Co413 N454 2.151 . S
Co413 N462 2.214 . S
Co414 O415 2.160 . S
Co414 O420 2.058 . S
Co414 O430 2.057 . S
Co414 O445 2.037 . S
Co414 N449 2.145 . S
Co414 N470 2.257 . S
O415 Co413 2.143 . S
O415 Co414 2.160 . S
C416 O417 1.278 . S
C416 O424 1.224 . S
O417 C416 1.278 . S
C418 O419 1.245 . S
C418 O430 1.232 . S
O419 C418 1.245 . S
O420 Co414 2.058 . S
O420 C446 1.269 . S
O421 Co413 2.074 . S
O421 C446 1.257 . S
H422 C447 0.930 . S
H423 C453 0.930 . S
O424 Co413 2.093 . S
O424 C416 1.224 . S
H425 C457 0.929 . S
H426 C459 0.930 . S
H427 C460 0.930 . S
H428 C458 0.929 . S
H429 C461 0.928 . S
O430 Co414 2.057 . S
O430 C418 1.232 . S
H431 C450 0.929 . S
H432 C451 0.929 . S
H433 C463 0.931 . S
H434 C455 0.929 . S
H435 C464 0.930 . S
H436 C456 0.931 . S
O437 Co413 2.097 . S
O437 C465 1.214 . S
H438 C466 0.929 . S
H439 C467 0.929 . S
H440 C468 0.930 . S
H441 C469 0.929 . S
H442 C471 0.930 . S
H443 C448 0.930 . S
H444 C452 0.930 . S
O445 Co414 2.037 . S
O445 C465 1.234 . S
C446 O420 1.269 . S
C446 O421 1.257 . S
C447 H422 0.930 . S
C447 C450 1.388 . S
C447 C452 1.418 . S
C448 H443 0.930 . S
C448 C451 1.404 . S
C448 C452 1.353 . S
N449 Co414 2.145 . S
N449 C450 1.397 . S
N449 C451 1.334 . S
C450 H431 0.929 . S
C450 C447 1.388 . S
C450 N449 1.397 . S
C451 H432 0.929 . S
C451 C448 1.404 . S
C451 N449 1.334 . S
C452 H444 0.930 . S
C452 C447 1.418 . S
C452 C448 1.353 . S
C453 H423 0.930 . S
C453 N454 1.330 . S
C453 C455 1.446 . S
N454 Co413 2.151 . S
N454 C453 1.330 . S
N454 C458 1.418 . S
C455 H434 0.929 . S
C455 C453 1.446 . S
C455 C456 1.332 . S
C456 H436 0.931 . S
C456 C455 1.332 . S
C456 C457 1.267 . S
C457 H425 0.929 . S
C457 C456 1.267 . S
C457 C458 1.251 . S
C458 H428 0.929 . S
C458 N454 1.418 . S
C458 C457 1.251 . S
C459 H426 0.930 . S
C459 C461 1.406 . S
C459 C464 1.261 . S
C460 H427 0.930 . S
C460 N462 1.325 . S
C460 C463 1.357 . S
C461 H429 0.928 . S
C461 C459 1.406 . S
C461 N462 1.261 . S
N462 Co413 2.214 . S
N462 C460 1.325 . S
N462 C461 1.261 . S
C463 H433 0.931 . S
C463 C460 1.357 . S
C463 C464 1.312 . S
C464 H435 0.930 . S
C464 C459 1.261 . S
C464 C463 1.312 . S
C465 O437 1.214 . S
C465 O445 1.234 . S
C466 H438 0.929 . S
C466 C469 1.391 . S
C466 C471 1.391 . S
C467 H439 0.929 . S
C467 C468 1.390 . S
C467 N470 1.391 . S
C468 H440 0.930 . S
C468 C467 1.390 . S
C468 C469 1.392 . S
C469 H441 0.929 . S
C469 C466 1.391 . S
C469 C468 1.392 . S
N470 Co414 2.257 . S
N470 C467 1.391 . S
N470 C471 1.388 . S
C471 H442 0.930 . S
C471 C466 1.391 . S
C471 N470 1.388 . S
Co472 O474 2.143 . S
Co472 O480 2.074 . S
Co472 O483 2.093 . S
Co472 O496 2.097 . S
Co472 N513 2.151 . S
Co472 N521 2.214 . S
Co473 O474 2.160 . S
Co473 O479 2.058 . S
Co473 O489 2.057 . S
Co473 O504 2.037 . S
Co473 N508 2.145 . S
Co473 N529 2.257 . S
O474 Co472 2.143 . S
O474 Co473 2.160 . S
C475 O476 1.278 . S
C475 O483 1.224 . S
O476 C475 1.278 . S
C477 O478 1.245 . S
C477 O489 1.232 . S
O478 C477 1.245 . S
O479 Co473 2.058 . S
O479 C505 1.269 . S
O480 Co472 2.074 . S
O480 C505 1.257 . S
H481 C506 0.930 . S
H482 C512 0.930 . S
O483 Co472 2.093 . S
O483 C475 1.224 . S
H484 C516 0.929 . S
H485 C518 0.930 . S
H486 C519 0.930 . S
H487 C517 0.929 . S
H488 C520 0.928 . S
O489 Co473 2.057 . S
O489 C477 1.232 . S
H490 C509 0.929 . S
H491 C510 0.929 . S
H492 C522 0.931 . S
H493 C514 0.929 . S
H494 C523 0.930 . S
H495 C515 0.931 . S
O496 Co472 2.097 . S
O496 C524 1.214 . S
H497 C525 0.929 . S
H498 C526 0.929 . S
H499 C527 0.930 . S
H500 C528 0.929 . S
H501 C530 0.930 . S
H502 C507 0.930 . S
H503 C511 0.930 . S
O504 Co473 2.037 . S
O504 C524 1.234 . S
C505 O479 1.269 . S
C505 O480 1.257 . S
C506 H481 0.930 . S
C506 C509 1.388 . S
C506 C511 1.418 . S
C507 H502 0.930 . S
C507 C510 1.404 . S
C507 C511 1.353 . S
N508 Co473 2.145 . S
N508 C509 1.397 . S
N508 C510 1.334 . S
C509 H490 0.929 . S
C509 C506 1.388 . S
C509 N508 1.397 . S
C510 H491 0.929 . S
C510 C507 1.404 . S
C510 N508 1.334 . S
C511 H503 0.930 . S
C511 C506 1.418 . S
C511 C507 1.353 . S
C512 H482 0.930 . S
C512 N513 1.330 . S
C512 C514 1.446 . S
N513 Co472 2.151 . S
N513 C512 1.330 . S
N513 C517 1.418 . S
C514 H493 0.929 . S
C514 C512 1.446 . S
C514 C515 1.332 . S
C515 H495 0.931 . S
C515 C514 1.332 . S
C515 C516 1.267 . S
C516 H484 0.929 . S
C516 C515 1.267 . S
C516 C517 1.251 . S
C517 H487 0.929 . S
C517 N513 1.418 . S
C517 C516 1.251 . S
C518 H485 0.930 . S
C518 C520 1.406 . S
C518 C523 1.261 . S
C519 H486 0.930 . S
C519 N521 1.325 . S
C519 C522 1.357 . S
C520 H488 0.928 . S
C520 C518 1.406 . S
C520 N521 1.261 . S
N521 Co472 2.214 . S
N521 C519 1.325 . S
N521 C520 1.261 . S
C522 H492 0.931 . S
C522 C519 1.357 . S
C522 C523 1.312 . S
C523 H494 0.930 . S
C523 C518 1.261 . S
C523 C522 1.312 . S
C524 O496 1.214 . S
C524 O504 1.234 . S
C525 H497 0.929 . S
C525 C528 1.391 . S
C525 C530 1.391 . S
C526 H498 0.929 . S
C526 C527 1.390 . S
C526 N529 1.391 . S
C527 H499 0.930 . S
C527 C526 1.390 . S
C527 C528 1.392 . S
C528 H500 0.929 . S
C528 C525 1.391 . S
C528 C527 1.392 . S
N529 Co473 2.257 . S
N529 C526 1.391 . S
N529 C530 1.388 . S
C530 H501 0.930 . S
C530 C525 1.391 . S
C530 N529 1.388 . S
Co531 O533 2.143 . S
Co531 O539 2.074 . S
Co531 O542 2.093 . S
Co531 O555 2.097 . S
Co531 N572 2.151 . S
Co531 N580 2.214 . S
Co532 O533 2.160 . S
Co532 O538 2.058 . S
Co532 O548 2.057 . S
Co532 O563 2.037 . S
Co532 N567 2.145 . S
Co532 N588 2.257 . S
O533 Co531 2.143 . S
O533 Co532 2.160 . S
C534 O535 1.278 . S
C534 O542 1.224 . S
O535 C534 1.278 . S
C536 O537 1.245 . S
C536 O548 1.232 . S
O537 C536 1.245 . S
O538 Co532 2.058 . S
O538 C564 1.269 . S
O539 Co531 2.074 . S
O539 C564 1.257 . S
H540 C565 0.930 . S
H541 C571 0.930 . S
O542 Co531 2.093 . S
O542 C534 1.224 . S
H543 C575 0.929 . S
H544 C577 0.930 . S
H545 C578 0.930 . S
H546 C576 0.929 . S
H547 C579 0.928 . S
O548 Co532 2.057 . S
O548 C536 1.232 . S
H549 C568 0.929 . S
H550 C569 0.929 . S
H551 C581 0.931 . S
H552 C573 0.929 . S
H553 C582 0.930 . S
H554 C574 0.931 . S
O555 Co531 2.097 . S
O555 C583 1.214 . S
H556 C584 0.929 . S
H557 C585 0.929 . S
H558 C586 0.930 . S
H559 C587 0.929 . S
H560 C589 0.930 . S
H561 C566 0.930 . S
H562 C570 0.930 . S
O563 Co532 2.037 . S
O563 C583 1.234 . S
C564 O538 1.269 . S
C564 O539 1.257 . S
C565 H540 0.930 . S
C565 C568 1.388 . S
C565 C570 1.418 . S
C566 H561 0.930 . S
C566 C569 1.404 . S
C566 C570 1.353 . S
N567 Co532 2.145 . S
N567 C568 1.397 . S
N567 C569 1.334 . S
C568 H549 0.929 . S
C568 C565 1.388 . S
C568 N567 1.397 . S
C569 H550 0.929 . S
C569 C566 1.404 . S
C569 N567 1.334 . S
C570 H562 0.930 . S
C570 C565 1.418 . S
C570 C566 1.353 . S
C571 H541 0.930 . S
C571 N572 1.330 . S
C571 C573 1.446 . S
N572 Co531 2.151 . S
N572 C571 1.330 . S
N572 C576 1.418 . S
C573 H552 0.929 . S
C573 C571 1.446 . S
C573 C574 1.332 . S
C574 H554 0.931 . S
C574 C573 1.332 . S
C574 C575 1.267 . S
C575 H543 0.929 . S
C575 C574 1.267 . S
C575 C576 1.251 . S
C576 H546 0.929 . S
C576 N572 1.418 . S
C576 C575 1.251 . S
C577 H544 0.930 . S
C577 C579 1.406 . S
C577 C582 1.261 . S
C578 H545 0.930 . S
C578 N580 1.325 . S
C578 C581 1.357 . S
C579 H547 0.928 . S
C579 C577 1.406 . S
C579 N580 1.261 . S
N580 Co531 2.214 . S
N580 C578 1.325 . S
N580 C579 1.261 . S
C581 H551 0.931 . S
C581 C578 1.357 . S
C581 C582 1.312 . S
C582 H553 0.930 . S
C582 C577 1.261 . S
C582 C581 1.312 . S
C583 O555 1.214 . S
C583 O563 1.234 . S
C584 H556 0.929 . S
C584 C587 1.391 . S
C584 C589 1.391 . S
C585 H557 0.929 . S
C585 C586 1.390 . S
C585 N588 1.391 . S
C586 H558 0.930 . S
C586 C585 1.390 . S
C586 C587 1.392 . S
C587 H559 0.929 . S
C587 C584 1.391 . S
C587 C586 1.392 . S
N588 Co532 2.257 . S
N588 C585 1.391 . S
N588 C589 1.388 . S
C589 H560 0.930 . S
C589 C584 1.391 . S
C589 N588 1.388 . S
Co590 O592 2.143 . S
Co590 O598 2.074 . S
Co590 O601 2.093 . S
Co590 O614 2.097 . S
Co590 N631 2.151 . S
Co590 N639 2.214 . S
Co591 O592 2.160 . S
Co591 O597 2.058 . S
Co591 O607 2.057 . S
Co591 O622 2.037 . S
Co591 N626 2.145 . S
Co591 N647 2.257 . S
O592 Co590 2.143 . S
O592 Co591 2.160 . S
C593 O594 1.278 . S
C593 O601 1.224 . S
O594 C593 1.278 . S
C595 O596 1.245 . S
C595 O607 1.232 . S
O596 C595 1.245 . S
O597 Co591 2.058 . S
O597 C623 1.269 . S
O598 Co590 2.074 . S
O598 C623 1.257 . S
H599 C624 0.930 . S
H600 C630 0.930 . S
O601 Co590 2.093 . S
O601 C593 1.224 . S
H602 C634 0.929 . S
H603 C636 0.930 . S
H604 C637 0.930 . S
H605 C635 0.929 . S
H606 C638 0.928 . S
O607 Co591 2.057 . S
O607 C595 1.232 . S
H608 C627 0.929 . S
H609 C628 0.929 . S
H610 C640 0.931 . S
H611 C632 0.929 . S
H612 C641 0.930 . S
H613 C633 0.931 . S
O614 Co590 2.097 . S
O614 C642 1.214 . S
H615 C643 0.929 . S
H616 C644 0.929 . S
H617 C645 0.930 . S
H618 C646 0.929 . S
H619 C648 0.930 . S
H620 C625 0.930 . S
H621 C629 0.930 . S
O622 Co591 2.037 . S
O622 C642 1.234 . S
C623 O597 1.269 . S
C623 O598 1.257 . S
C624 H599 0.930 . S
C624 C627 1.388 . S
C624 C629 1.418 . S
C625 H620 0.930 . S
C625 C628 1.404 . S
C625 C629 1.353 . S
N626 Co591 2.145 . S
N626 C627 1.397 . S
N626 C628 1.334 . S
C627 H608 0.929 . S
C627 C624 1.388 . S
C627 N626 1.397 . S
C628 H609 0.929 . S
C628 C625 1.404 . S
C628 N626 1.334 . S
C629 H621 0.930 . S
C629 C624 1.418 . S
C629 C625 1.353 . S
C630 H600 0.930 . S
C630 N631 1.330 . S
C630 C632 1.446 . S
N631 Co590 2.151 . S
N631 C630 1.330 . S
N631 C635 1.418 . S
C632 H611 0.929 . S
C632 C630 1.446 . S
C632 C633 1.332 . S
C633 H613 0.931 . S
C633 C632 1.332 . S
C633 C634 1.267 . S
C634 H602 0.929 . S
C634 C633 1.267 . S
C634 C635 1.251 . S
C635 H605 0.929 . S
C635 N631 1.418 . S
C635 C634 1.251 . S
C636 H603 0.930 . S
C636 C638 1.406 . S
C636 C641 1.261 . S
C637 H604 0.930 . S
C637 N639 1.325 . S
C637 C640 1.357 . S
C638 H606 0.928 . S
C638 C636 1.406 . S
C638 N639 1.261 . S
N639 Co590 2.214 . S
N639 C637 1.325 . S
N639 C638 1.261 . S
C640 H610 0.931 . S
C640 C637 1.357 . S
C640 C641 1.312 . S
C641 H612 0.930 . S
C641 C636 1.261 . S
C641 C640 1.312 . S
C642 O614 1.214 . S
C642 O622 1.234 . S
C643 H615 0.929 . S
C643 C646 1.391 . S
C643 C648 1.391 . S
C644 H616 0.929 . S
C644 C645 1.390 . S
C644 N647 1.391 . S
C645 H617 0.930 . S
C645 C644 1.390 . S
C645 C646 1.392 . S
C646 H618 0.929 . S
C646 C643 1.391 . S
C646 C645 1.392 . S
N647 Co591 2.257 . S
N647 C644 1.391 . S
N647 C648 1.388 . S
C648 H619 0.930 . S
C648 C643 1.391 . S
C648 N647 1.388 . S
Co649 O651 2.143 . S
Co649 O657 2.074 . S
Co649 O660 2.093 . S
Co649 O673 2.097 . S
Co649 N690 2.151 . S
Co649 N698 2.214 . S
Co650 O651 2.160 . S
Co650 O656 2.058 . S
Co650 O666 2.057 . S
Co650 O681 2.037 . S
Co650 N685 2.145 . S
Co650 N706 2.257 . S
O651 Co649 2.143 . S
O651 Co650 2.160 . S
C652 O653 1.278 . S
C652 O660 1.224 . S
O653 C652 1.278 . S
C654 O655 1.245 . S
C654 O666 1.232 . S
O655 C654 1.245 . S
O656 Co650 2.058 . S
O656 C682 1.269 . S
O657 Co649 2.074 . S
O657 C682 1.257 . S
H658 C683 0.930 . S
H659 C689 0.930 . S
O660 Co649 2.093 . S
O660 C652 1.224 . S
H661 C693 0.929 . S
H662 C695 0.930 . S
H663 C696 0.930 . S
H664 C694 0.929 . S
H665 C697 0.928 . S
O666 Co650 2.057 . S
O666 C654 1.232 . S
H667 C686 0.929 . S
H668 C687 0.929 . S
H669 C699 0.931 . S
H670 C691 0.929 . S
H671 C700 0.930 . S
H672 C692 0.931 . S
O673 Co649 2.097 . S
O673 C701 1.214 . S
H674 C702 0.929 . S
H675 C703 0.929 . S
H676 C704 0.930 . S
H677 C705 0.929 . S
H678 C707 0.930 . S
H679 C684 0.930 . S
H680 C688 0.930 . S
O681 Co650 2.037 . S
O681 C701 1.234 . S
C682 O656 1.269 . S
C682 O657 1.257 . S
C683 H658 0.930 . S
C683 C686 1.388 . S
C683 C688 1.418 . S
C684 H679 0.930 . S
C684 C687 1.404 . S
C684 C688 1.353 . S
N685 Co650 2.145 . S
N685 C686 1.397 . S
N685 C687 1.334 . S
C686 H667 0.929 . S
C686 C683 1.388 . S
C686 N685 1.397 . S
C687 H668 0.929 . S
C687 C684 1.404 . S
C687 N685 1.334 . S
C688 H680 0.930 . S
C688 C683 1.418 . S
C688 C684 1.353 . S
C689 H659 0.930 . S
C689 N690 1.330 . S
C689 C691 1.446 . S
N690 Co649 2.151 . S
N690 C689 1.330 . S
N690 C694 1.418 . S
C691 H670 0.929 . S
C691 C689 1.446 . S
C691 C692 1.332 . S
C692 H672 0.931 . S
C692 C691 1.332 . S
C692 C693 1.267 . S
C693 H661 0.929 . S
C693 C692 1.267 . S
C693 C694 1.251 . S
C694 H664 0.929 . S
C694 N690 1.418 . S
C694 C693 1.251 . S
C695 H662 0.930 . S
C695 C697 1.406 . S
C695 C700 1.261 . S
C696 H663 0.930 . S
C696 N698 1.325 . S
C696 C699 1.357 . S
C697 H665 0.928 . S
C697 C695 1.406 . S
C697 N698 1.261 . S
N698 Co649 2.214 . S
N698 C696 1.325 . S
N698 C697 1.261 . S
C699 H669 0.931 . S
C699 C696 1.357 . S
C699 C700 1.312 . S
C700 H671 0.930 . S
C700 C695 1.261 . S
C700 C699 1.312 . S
C701 O673 1.214 . S
C701 O681 1.234 . S
C702 H674 0.929 . S
C702 C705 1.391 . S
C702 C707 1.391 . S
C703 H675 0.929 . S
C703 C704 1.390 . S
C703 N706 1.391 . S
C704 H676 0.930 . S
C704 C703 1.390 . S
C704 C705 1.392 . S
C705 H677 0.929 . S
C705 C702 1.391 . S
C705 C704 1.392 . S
N706 Co650 2.257 . S
N706 C703 1.391 . S
N706 C707 1.388 . S
C707 H678 0.930 . S
C707 C702 1.391 . S
C707 N706 1.388 . S
Co708 O710 2.143 . S
Co708 O716 2.074 . S
Co708 O719 2.093 . S
Co708 O732 2.097 . S
Co708 N749 2.151 . S
Co708 N757 2.214 . S
Co709 O710 2.160 . S
Co709 O715 2.058 . S
Co709 O725 2.057 . S
Co709 O740 2.037 . S
Co709 N744 2.145 . S
Co709 N765 2.257 . S
O710 Co708 2.143 . S
O710 Co709 2.160 . S
C711 O712 1.278 . S
C711 O719 1.224 . S
O712 C711 1.278 . S
C713 O714 1.245 . S
C713 O725 1.232 . S
O714 C713 1.245 . S
O715 Co709 2.058 . S
O715 C741 1.269 . S
O716 Co708 2.074 . S
O716 C741 1.257 . S
H717 C742 0.930 . S
H718 C748 0.930 . S
O719 Co708 2.093 . S
O719 C711 1.224 . S
H720 C752 0.929 . S
H721 C754 0.930 . S
H722 C755 0.930 . S
H723 C753 0.929 . S
H724 C756 0.928 . S
O725 Co709 2.057 . S
O725 C713 1.232 . S
H726 C745 0.929 . S
H727 C746 0.929 . S
H728 C758 0.931 . S
H729 C750 0.929 . S
H730 C759 0.930 . S
H731 C751 0.931 . S
O732 Co708 2.097 . S
O732 C760 1.214 . S
H733 C761 0.929 . S
H734 C762 0.929 . S
H735 C763 0.930 . S
H736 C764 0.929 . S
H737 C766 0.930 . S
H738 C743 0.930 . S
H739 C747 0.930 . S
O740 Co709 2.037 . S
O740 C760 1.234 . S
C741 O715 1.269 . S
C741 O716 1.257 . S
C742 H717 0.930 . S
C742 C745 1.388 . S
C742 C747 1.418 . S
C743 H738 0.930 . S
C743 C746 1.404 . S
C743 C747 1.353 . S
N744 Co709 2.145 . S
N744 C745 1.397 . S
N744 C746 1.334 . S
C745 H726 0.929 . S
C745 C742 1.388 . S
C745 N744 1.397 . S
C746 H727 0.929 . S
C746 C743 1.404 . S
C746 N744 1.334 . S
C747 H739 0.930 . S
C747 C742 1.418 . S
C747 C743 1.353 . S
C748 H718 0.930 . S
C748 N749 1.330 . S
C748 C750 1.446 . S
N749 Co708 2.151 . S
N749 C748 1.330 . S
N749 C753 1.418 . S
C750 H729 0.929 . S
C750 C748 1.446 . S
C750 C751 1.332 . S
C751 H731 0.931 . S
C751 C750 1.332 . S
C751 C752 1.267 . S
C752 H720 0.929 . S
C752 C751 1.267 . S
C752 C753 1.251 . S
C753 H723 0.929 . S
C753 N749 1.418 . S
C753 C752 1.251 . S
C754 H721 0.930 . S
C754 C756 1.406 . S
C754 C759 1.261 . S
C755 H722 0.930 . S
C755 N757 1.325 . S
C755 C758 1.357 . S
C756 H724 0.928 . S
C756 C754 1.406 . S
C756 N757 1.261 . S
N757 Co708 2.214 . S
N757 C755 1.325 . S
N757 C756 1.261 . S
C758 H728 0.931 . S
C758 C755 1.357 . S
C758 C759 1.312 . S
C759 H730 0.930 . S
C759 C754 1.261 . S
C759 C758 1.312 . S
C760 O732 1.214 . S
C760 O740 1.234 . S
C761 H733 0.929 . S
C761 C764 1.391 . S
C761 C766 1.391 . S
C762 H734 0.929 . S
C762 C763 1.390 . S
C762 N765 1.391 . S
C763 H735 0.930 . S
C763 C762 1.390 . S
C763 C764 1.392 . S
C764 H736 0.929 . S
C764 C761 1.391 . S
C764 C763 1.392 . S
N765 Co709 2.257 . S
N765 C762 1.391 . S
N765 C766 1.388 . S
C766 H737 0.930 . S
C766 C761 1.391 . S
C766 N765 1.388 . S
Co767 O769 2.143 . S
Co767 O775 2.074 . S
Co767 O778 2.093 . S
Co767 O791 2.097 . S
Co767 N808 2.151 . S
Co767 N816 2.214 . S
Co768 O769 2.160 . S
Co768 O774 2.058 . S
Co768 O784 2.057 . S
Co768 O799 2.037 . S
Co768 N803 2.145 . S
Co768 N824 2.257 . S
O769 Co767 2.143 . S
O769 Co768 2.160 . S
C770 O771 1.278 . S
C770 O778 1.224 . S
O771 C770 1.278 . S
C772 O773 1.245 . S
C772 O784 1.232 . S
O773 C772 1.245 . S
O774 Co768 2.058 . S
O774 C800 1.269 . S
O775 Co767 2.074 . S
O775 C800 1.257 . S
H776 C801 0.930 . S
H777 C807 0.930 . S
O778 Co767 2.093 . S
O778 C770 1.224 . S
H779 C811 0.929 . S
H780 C813 0.930 . S
H781 C814 0.930 . S
H782 C812 0.929 . S
H783 C815 0.928 . S
O784 Co768 2.057 . S
O784 C772 1.232 . S
H785 C804 0.929 . S
H786 C805 0.929 . S
H787 C817 0.931 . S
H788 C809 0.929 . S
H789 C818 0.930 . S
H790 C810 0.931 . S
O791 Co767 2.097 . S
O791 C819 1.214 . S
H792 C820 0.929 . S
H793 C821 0.929 . S
H794 C822 0.930 . S
H795 C823 0.929 . S
H796 C825 0.930 . S
H797 C802 0.930 . S
H798 C806 0.930 . S
O799 Co768 2.037 . S
O799 C819 1.234 . S
C800 O774 1.269 . S
C800 O775 1.257 . S
C801 H776 0.930 . S
C801 C804 1.388 . S
C801 C806 1.418 . S
C802 H797 0.930 . S
C802 C805 1.404 . S
C802 C806 1.353 . S
N803 Co768 2.145 . S
N803 C804 1.397 . S
N803 C805 1.334 . S
C804 H785 0.929 . S
C804 C801 1.388 . S
C804 N803 1.397 . S
C805 H786 0.929 . S
C805 C802 1.404 . S
C805 N803 1.334 . S
C806 H798 0.930 . S
C806 C801 1.418 . S
C806 C802 1.353 . S
C807 H777 0.930 . S
C807 N808 1.330 . S
C807 C809 1.446 . S
N808 Co767 2.151 . S
N808 C807 1.330 . S
N808 C812 1.418 . S
C809 H788 0.929 . S
C809 C807 1.446 . S
C809 C810 1.332 . S
C810 H790 0.931 . S
C810 C809 1.332 . S
C810 C811 1.267 . S
C811 H779 0.929 . S
C811 C810 1.267 . S
C811 C812 1.251 . S
C812 H782 0.929 . S
C812 N808 1.418 . S
C812 C811 1.251 . S
C813 H780 0.930 . S
C813 C815 1.406 . S
C813 C818 1.261 . S
C814 H781 0.930 . S
C814 N816 1.325 . S
C814 C817 1.357 . S
C815 H783 0.928 . S
C815 C813 1.406 . S
C815 N816 1.261 . S
N816 Co767 2.214 . S
N816 C814 1.325 . S
N816 C815 1.261 . S
C817 H787 0.931 . S
C817 C814 1.357 . S
C817 C818 1.312 . S
C818 H789 0.930 . S
C818 C813 1.261 . S
C818 C817 1.312 . S
C819 O791 1.214 . S
C819 O799 1.234 . S
C820 H792 0.929 . S
C820 C823 1.391 . S
C820 C825 1.391 . S
C821 H793 0.929 . S
C821 C822 1.390 . S
C821 N824 1.391 . S
C822 H794 0.930 . S
C822 C821 1.390 . S
C822 C823 1.392 . S
C823 H795 0.929 . S
C823 C820 1.391 . S
C823 C822 1.392 . S
N824 Co768 2.257 . S
N824 C821 1.391 . S
N824 C825 1.388 . S
C825 H796 0.930 . S
C825 C820 1.391 . S
C825 N824 1.388 . S
Co826 O828 2.143 . S
Co826 O834 2.074 . S
Co826 O837 2.093 . S
Co826 O850 2.097 . S
Co826 N867 2.151 . S
Co826 N875 2.214 . S
Co827 O828 2.160 . S
Co827 O833 2.058 . S
Co827 O843 2.057 . S
Co827 O858 2.037 . S
Co827 N862 2.145 . S
Co827 N883 2.257 . S
O828 Co826 2.143 . S
O828 Co827 2.160 . S
C829 O830 1.278 . S
C829 O837 1.224 . S
O830 C829 1.278 . S
C831 O832 1.245 . S
C831 O843 1.232 . S
O832 C831 1.245 . S
O833 Co827 2.058 . S
O833 C859 1.269 . S
O834 Co826 2.074 . S
O834 C859 1.257 . S
H835 C860 0.930 . S
H836 C866 0.930 . S
O837 Co826 2.093 . S
O837 C829 1.224 . S
H838 C870 0.929 . S
H839 C872 0.930 . S
H840 C873 0.930 . S
H841 C871 0.929 . S
H842 C874 0.928 . S
O843 Co827 2.057 . S
O843 C831 1.232 . S
H844 C863 0.929 . S
H845 C864 0.929 . S
H846 C876 0.931 . S
H847 C868 0.929 . S
H848 C877 0.930 . S
H849 C869 0.931 . S
O850 Co826 2.097 . S
O850 C878 1.214 . S
H851 C879 0.929 . S
H852 C880 0.929 . S
H853 C881 0.930 . S
H854 C882 0.929 . S
H855 C884 0.930 . S
H856 C861 0.930 . S
H857 C865 0.930 . S
O858 Co827 2.037 . S
O858 C878 1.234 . S
C859 O833 1.269 . S
C859 O834 1.257 . S
C860 H835 0.930 . S
C860 C863 1.388 . S
C860 C865 1.418 . S
C861 H856 0.930 . S
C861 C864 1.404 . S
C861 C865 1.353 . S
N862 Co827 2.145 . S
N862 C863 1.397 . S
N862 C864 1.334 . S
C863 H844 0.929 . S
C863 C860 1.388 . S
C863 N862 1.397 . S
C864 H845 0.929 . S
C864 C861 1.404 . S
C864 N862 1.334 . S
C865 H857 0.930 . S
C865 C860 1.418 . S
C865 C861 1.353 . S
C866 H836 0.930 . S
C866 N867 1.330 . S
C866 C868 1.446 . S
N867 Co826 2.151 . S
N867 C866 1.330 . S
N867 C871 1.418 . S
C868 H847 0.929 . S
C868 C866 1.446 . S
C868 C869 1.332 . S
C869 H849 0.931 . S
C869 C868 1.332 . S
C869 C870 1.267 . S
C870 H838 0.929 . S
C870 C869 1.267 . S
C870 C871 1.251 . S
C871 H841 0.929 . S
C871 N867 1.418 . S
C871 C870 1.251 . S
C872 H839 0.930 . S
C872 C874 1.406 . S
C872 C877 1.261 . S
C873 H840 0.930 . S
C873 N875 1.325 . S
C873 C876 1.357 . S
C874 H842 0.928 . S
C874 C872 1.406 . S
C874 N875 1.261 . S
N875 Co826 2.214 . S
N875 C873 1.325 . S
N875 C874 1.261 . S
C876 H846 0.931 . S
C876 C873 1.357 . S
C876 C877 1.312 . S
C877 H848 0.930 . S
C877 C872 1.261 . S
C877 C876 1.312 . S
C878 O850 1.214 . S
C878 O858 1.234 . S
C879 H851 0.929 . S
C879 C882 1.391 . S
C879 C884 1.391 . S
C880 H852 0.929 . S
C880 C881 1.390 . S
C880 N883 1.391 . S
C881 H853 0.930 . S
C881 C880 1.390 . S
C881 C882 1.392 . S
C882 H854 0.929 . S
C882 C879 1.391 . S
C882 C881 1.392 . S
N883 Co827 2.257 . S
N883 C880 1.391 . S
N883 C884 1.388 . S
C884 H855 0.930 . S
C884 C879 1.391 . S
C884 N883 1.388 . S
Co885 O887 2.143 . S
Co885 O893 2.074 . S
Co885 O896 2.093 . S
Co885 O909 2.097 . S
Co885 N926 2.151 . S
Co885 N934 2.214 . S
Co886 O887 2.160 . S
Co886 O892 2.058 . S
Co886 O902 2.057 . S
Co886 O917 2.037 . S
Co886 N921 2.145 . S
Co886 N942 2.257 . S
O887 Co885 2.143 . S
O887 Co886 2.160 . S
C888 O889 1.278 . S
C888 O896 1.224 . S
O889 C888 1.278 . S
C890 O891 1.245 . S
C890 O902 1.232 . S
O891 C890 1.245 . S
O892 Co886 2.058 . S
O892 C918 1.269 . S
O893 Co885 2.074 . S
O893 C918 1.257 . S
H894 C919 0.930 . S
H895 C925 0.930 . S
O896 Co885 2.093 . S
O896 C888 1.224 . S
H897 C929 0.929 . S
H898 C931 0.930 . S
H899 C932 0.930 . S
H900 C930 0.929 . S
H901 C933 0.928 . S
O902 Co886 2.057 . S
O902 C890 1.232 . S
H903 C922 0.929 . S
H904 C923 0.929 . S
H905 C935 0.931 . S
H906 C927 0.929 . S
H907 C936 0.930 . S
H908 C928 0.931 . S
O909 Co885 2.097 . S
O909 C937 1.214 . S
H910 C938 0.929 . S
H911 C939 0.929 . S
H912 C940 0.930 . S
H913 C941 0.929 . S
H914 C943 0.930 . S
H915 C920 0.930 . S
H916 C924 0.930 . S
O917 Co886 2.037 . S
O917 C937 1.234 . S
C918 O892 1.269 . S
C918 O893 1.257 . S
C919 H894 0.930 . S
C919 C922 1.388 . S
C919 C924 1.418 . S
C920 H915 0.930 . S
C920 C923 1.404 . S
C920 C924 1.353 . S
N921 Co886 2.145 . S
N921 C922 1.397 . S
N921 C923 1.334 . S
C922 H903 0.929 . S
C922 C919 1.388 . S
C922 N921 1.397 . S
C923 H904 0.929 . S
C923 C920 1.404 . S
C923 N921 1.334 . S
C924 H916 0.930 . S
C924 C919 1.418 . S
C924 C920 1.353 . S
C925 H895 0.930 . S
C925 N926 1.330 . S
C925 C927 1.446 . S
N926 Co885 2.151 . S
N926 C925 1.330 . S
N926 C930 1.418 . S
C927 H906 0.929 . S
C927 C925 1.446 . S
C927 C928 1.332 . S
C928 H908 0.931 . S
C928 C927 1.332 . S
C928 C929 1.267 . S
C929 H897 0.929 . S
C929 C928 1.267 . S
C929 C930 1.251 . S
C930 H900 0.929 . S
C930 N926 1.418 . S
C930 C929 1.251 . S
C931 H898 0.930 . S
C931 C933 1.406 . S
C931 C936 1.261 . S
C932 H899 0.930 . S
C932 N934 1.325 . S
C932 C935 1.357 . S
C933 H901 0.928 . S
C933 C931 1.406 . S
C933 N934 1.261 . S
N934 Co885 2.214 . S
N934 C932 1.325 . S
N934 C933 1.261 . S
C935 H905 0.931 . S
C935 C932 1.357 . S
C935 C936 1.312 . S
C936 H907 0.930 . S
C936 C931 1.261 . S
C936 C935 1.312 . S
C937 O909 1.214 . S
C937 O917 1.234 . S
C938 H910 0.929 . S
C938 C941 1.391 . S
C938 C943 1.391 . S
C939 H911 0.929 . S
C939 C940 1.390 . S
C939 N942 1.391 . S
C940 H912 0.930 . S
C940 C939 1.390 . S
C940 C941 1.392 . S
C941 H913 0.929 . S
C941 C938 1.391 . S
C941 C940 1.392 . S
N942 Co886 2.257 . S
N942 C939 1.391 . S
N942 C943 1.388 . S
C943 H914 0.930 . S
C943 C938 1.391 . S
C943 N942 1.388 . S
Co944 O946 2.143 . S
Co944 O952 2.074 . S
Co944 O955 2.093 . S
Co944 O968 2.097 . S
Co944 N985 2.151 . S
Co944 N993 2.214 . S
Co945 O946 2.160 . S
Co945 O951 2.058 . S
Co945 O961 2.057 . S
Co945 O976 2.037 . S
Co945 N980 2.145 . S
Co945 N1001 2.257 . S
O946 Co944 2.143 . S
O946 Co945 2.160 . S
C947 O948 1.278 . S
C947 O955 1.224 . S
O948 C947 1.278 . S
C949 O950 1.245 . S
C949 O961 1.232 . S
O950 C949 1.245 . S
O951 Co945 2.058 . S
O951 C977 1.269 . S
O952 Co944 2.074 . S
O952 C977 1.257 . S
H953 C978 0.930 . S
H954 C984 0.930 . S
O955 Co944 2.093 . S
O955 C947 1.224 . S
H956 C988 0.929 . S
H957 C990 0.930 . S
H958 C991 0.930 . S
H959 C989 0.929 . S
H960 C992 0.928 . S
O961 Co945 2.057 . S
O961 C949 1.232 . S
H962 C981 0.929 . S
H963 C982 0.929 . S
H964 C994 0.931 . S
H965 C986 0.929 . S
H966 C995 0.930 . S
H967 C987 0.931 . S
O968 Co944 2.097 . S
O968 C996 1.214 . S
H969 C997 0.929 . S
H970 C998 0.929 . S
H971 C999 0.930 . S
H972 C1000 0.929 . S
H973 C1002 0.930 . S
H974 C979 0.930 . S
H975 C983 0.930 . S
O976 Co945 2.037 . S
O976 C996 1.234 . S
C977 O951 1.269 . S
C977 O952 1.257 . S
C978 H953 0.930 . S
C978 C981 1.388 . S
C978 C983 1.418 . S
C979 H974 0.930 . S
C979 C982 1.404 . S
C979 C983 1.353 . S
N980 Co945 2.145 . S
N980 C981 1.397 . S
N980 C982 1.334 . S
C981 H962 0.929 . S
C981 C978 1.388 . S
C981 N980 1.397 . S
C982 H963 0.929 . S
C982 C979 1.404 . S
C982 N980 1.334 . S
C983 H975 0.930 . S
C983 C978 1.418 . S
C983 C979 1.353 . S
C984 H954 0.930 . S
C984 N985 1.330 . S
C984 C986 1.446 . S
N985 Co944 2.151 . S
N985 C984 1.330 . S
N985 C989 1.418 . S
C986 H965 0.929 . S
C986 C984 1.446 . S
C986 C987 1.332 . S
C987 H967 0.931 . S
C987 C986 1.332 . S
C987 C988 1.267 . S
C988 H956 0.929 . S
C988 C987 1.267 . S
C988 C989 1.251 . S
C989 H959 0.929 . S
C989 N985 1.418 . S
C989 C988 1.251 . S
C990 H957 0.930 . S
C990 C992 1.406 . S
C990 C995 1.261 . S
C991 H958 0.930 . S
C991 N993 1.325 . S
C991 C994 1.357 . S
C992 H960 0.928 . S
C992 C990 1.406 . S
C992 N993 1.261 . S
N993 Co944 2.214 . S
N993 C991 1.325 . S
N993 C992 1.261 . S
C994 H964 0.931 . S
C994 C991 1.357 . S
C994 C995 1.312 . S
C995 H966 0.930 . S
C995 C990 1.261 . S
C995 C994 1.312 . S
C996 O968 1.214 . S
C996 O976 1.234 . S
C997 H969 0.929 . S
C997 C1000 1.391 . S
C997 C1002 1.391 . S
C998 H970 0.929 . S
C998 C999 1.390 . S
C998 N1001 1.391 . S
C999 H971 0.930 . S
C999 C998 1.390 . S
C999 C1000 1.392 . S
C1000 H972 0.929 . S
C1000 C997 1.391 . S
C1000 C999 1.392 . S
N1001 Co945 2.257 . S
N1001 C998 1.391 . S
N1001 C1002 1.388 . S
C1002 H973 0.930 . S
C1002 C997 1.391 . S
C1002 N1001 1.388 . S
Co1003 O1005 2.143 . S
Co1003 O1011 2.074 . S
Co1003 O1014 2.093 . S
Co1003 O1027 2.097 . S
Co1003 N1044 2.151 . S
Co1003 N1052 2.214 . S
Co1004 O1005 2.160 . S
Co1004 O1010 2.058 . S
Co1004 O1020 2.057 . S
Co1004 O1035 2.037 . S
Co1004 N1039 2.145 . S
Co1004 N1060 2.257 . S
O1005 Co1003 2.143 . S
O1005 Co1004 2.160 . S
C1006 O1007 1.278 . S
C1006 O1014 1.224 . S
O1007 C1006 1.278 . S
C1008 O1009 1.245 . S
C1008 O1020 1.232 . S
O1009 C1008 1.245 . S
O1010 Co1004 2.058 . S
O1010 C1036 1.269 . S
O1011 Co1003 2.074 . S
O1011 C1036 1.257 . S
H1012 C1037 0.930 . S
H1013 C1043 0.930 . S
O1014 Co1003 2.093 . S
O1014 C1006 1.224 . S
H1015 C1047 0.929 . S
H1016 C1049 0.930 . S
H1017 C1050 0.930 . S
H1018 C1048 0.929 . S
H1019 C1051 0.928 . S
O1020 Co1004 2.057 . S
O1020 C1008 1.232 . S
H1021 C1040 0.929 . S
H1022 C1041 0.929 . S
H1023 C1053 0.931 . S
H1024 C1045 0.929 . S
H1025 C1054 0.930 . S
H1026 C1046 0.931 . S
O1027 Co1003 2.097 . S
O1027 C1055 1.214 . S
H1028 C1056 0.929 . S
H1029 C1057 0.929 . S
H1030 C1058 0.930 . S
H1031 C1059 0.929 . S
H1032 C1061 0.930 . S
H1033 C1038 0.930 . S
H1034 C1042 0.930 . S
O1035 Co1004 2.037 . S
O1035 C1055 1.234 . S
C1036 O1010 1.269 . S
C1036 O1011 1.257 . S
C1037 H1012 0.930 . S
C1037 C1040 1.388 . S
C1037 C1042 1.418 . S
C1038 H1033 0.930 . S
C1038 C1041 1.404 . S
C1038 C1042 1.353 . S
N1039 Co1004 2.145 . S
N1039 C1040 1.397 . S
N1039 C1041 1.334 . S
C1040 H1021 0.929 . S
C1040 C1037 1.388 . S
C1040 N1039 1.397 . S
C1041 H1022 0.929 . S
C1041 C1038 1.404 . S
C1041 N1039 1.334 . S
C1042 H1034 0.930 . S
C1042 C1037 1.418 . S
C1042 C1038 1.353 . S
C1043 H1013 0.930 . S
C1043 N1044 1.330 . S
C1043 C1045 1.446 . S
N1044 Co1003 2.151 . S
N1044 C1043 1.330 . S
N1044 C1048 1.418 . S
C1045 H1024 0.929 . S
C1045 C1043 1.446 . S
C1045 C1046 1.332 . S
C1046 H1026 0.931 . S
C1046 C1045 1.332 . S
C1046 C1047 1.267 . S
C1047 H1015 0.929 . S
C1047 C1046 1.267 . S
C1047 C1048 1.251 . S
C1048 H1018 0.929 . S
C1048 N1044 1.418 . S
C1048 C1047 1.251 . S
C1049 H1016 0.930 . S
C1049 C1051 1.406 . S
C1049 C1054 1.261 . S
C1050 H1017 0.930 . S
C1050 N1052 1.325 . S
C1050 C1053 1.357 . S
C1051 H1019 0.928 . S
C1051 C1049 1.406 . S
C1051 N1052 1.261 . S
N1052 Co1003 2.214 . S
N1052 C1050 1.325 . S
N1052 C1051 1.261 . S
C1053 H1023 0.931 . S
C1053 C1050 1.357 . S
C1053 C1054 1.312 . S
C1054 H1025 0.930 . S
C1054 C1049 1.261 . S
C1054 C1053 1.312 . S
C1055 O1027 1.214 . S
C1055 O1035 1.234 . S
C1056 H1028 0.929 . S
C1056 C1059 1.391 . S
C1056 C1061 1.391 . S
C1057 H1029 0.929 . S
C1057 C1058 1.390 . S
C1057 N1060 1.391 . S
C1058 H1030 0.930 . S
C1058 C1057 1.390 . S
C1058 C1059 1.392 . S
C1059 H1031 0.929 . S
C1059 C1056 1.391 . S
C1059 C1058 1.392 . S
N1060 Co1004 2.257 . S
N1060 C1057 1.391 . S
N1060 C1061 1.388 . S
C1061 H1032 0.930 . S
C1061 C1056 1.391 . S
C1061 N1060 1.388 . S
Co1062 O1064 2.143 . S
Co1062 O1070 2.074 . S
Co1062 O1073 2.093 . S
Co1062 O1086 2.097 . S
Co1062 N1103 2.151 . S
Co1062 N1111 2.214 . S
Co1063 O1064 2.160 . S
Co1063 O1069 2.058 . S
Co1063 O1079 2.057 . S
Co1063 O1094 2.037 . S
Co1063 N1098 2.145 . S
Co1063 N1119 2.257 . S
O1064 Co1062 2.143 . S
O1064 Co1063 2.160 . S
C1065 O1066 1.278 . S
C1065 O1073 1.224 . S
O1066 C1065 1.278 . S
C1067 O1068 1.245 . S
C1067 O1079 1.232 . S
O1068 C1067 1.245 . S
O1069 Co1063 2.058 . S
O1069 C1095 1.269 . S
O1070 Co1062 2.074 . S
O1070 C1095 1.257 . S
H1071 C1096 0.930 . S
H1072 C1102 0.930 . S
O1073 Co1062 2.093 . S
O1073 C1065 1.224 . S
H1074 C1106 0.929 . S
H1075 C1108 0.930 . S
H1076 C1109 0.930 . S
H1077 C1107 0.929 . S
H1078 C1110 0.928 . S
O1079 Co1063 2.057 . S
O1079 C1067 1.232 . S
H1080 C1099 0.929 . S
H1081 C1100 0.929 . S
H1082 C1112 0.931 . S
H1083 C1104 0.929 . S
H1084 C1113 0.930 . S
H1085 C1105 0.931 . S
O1086 Co1062 2.097 . S
O1086 C1114 1.214 . S
H1087 C1115 0.929 . S
H1088 C1116 0.929 . S
H1089 C1117 0.930 . S
H1090 C1118 0.929 . S
H1091 C1120 0.930 . S
H1092 C1097 0.930 . S
H1093 C1101 0.930 . S
O1094 Co1063 2.037 . S
O1094 C1114 1.234 . S
C1095 O1069 1.269 . S
C1095 O1070 1.257 . S
C1096 H1071 0.930 . S
C1096 C1099 1.388 . S
C1096 C1101 1.418 . S
C1097 H1092 0.930 . S
C1097 C1100 1.404 . S
C1097 C1101 1.353 . S
N1098 Co1063 2.145 . S
N1098 C1099 1.397 . S
N1098 C1100 1.334 . S
C1099 H1080 0.929 . S
C1099 C1096 1.388 . S
C1099 N1098 1.397 . S
C1100 H1081 0.929 . S
C1100 C1097 1.404 . S
C1100 N1098 1.334 . S
C1101 H1093 0.930 . S
C1101 C1096 1.418 . S
C1101 C1097 1.353 . S
C1102 H1072 0.930 . S
C1102 N1103 1.330 . S
C1102 C1104 1.446 . S
N1103 Co1062 2.151 . S
N1103 C1102 1.330 . S
N1103 C1107 1.418 . S
C1104 H1083 0.929 . S
C1104 C1102 1.446 . S
C1104 C1105 1.332 . S
C1105 H1085 0.931 . S
C1105 C1104 1.332 . S
C1105 C1106 1.267 . S
C1106 H1074 0.929 . S
C1106 C1105 1.267 . S
C1106 C1107 1.251 . S
C1107 H1077 0.929 . S
C1107 N1103 1.418 . S
C1107 C1106 1.251 . S
C1108 H1075 0.930 . S
C1108 C1110 1.406 . S
C1108 C1113 1.261 . S
C1109 H1076 0.930 . S
C1109 N1111 1.325 . S
C1109 C1112 1.357 . S
C1110 H1078 0.928 . S
C1110 C1108 1.406 . S
C1110 N1111 1.261 . S
N1111 Co1062 2.214 . S
N1111 C1109 1.325 . S
N1111 C1110 1.261 . S
C1112 H1082 0.931 . S
C1112 C1109 1.357 . S
C1112 C1113 1.312 . S
C1113 H1084 0.930 . S
C1113 C1108 1.261 . S
C1113 C1112 1.312 . S
C1114 O1086 1.214 . S
C1114 O1094 1.234 . S
C1115 H1087 0.929 . S
C1115 C1118 1.391 . S
C1115 C1120 1.391 . S
C1116 H1088 0.929 . S
C1116 C1117 1.390 . S
C1116 N1119 1.391 . S
C1117 H1089 0.930 . S
C1117 C1116 1.390 . S
C1117 C1118 1.392 . S
C1118 H1090 0.929 . S
C1118 C1115 1.391 . S
C1118 C1117 1.392 . S
N1119 Co1063 2.257 . S
N1119 C1116 1.391 . S
N1119 C1120 1.388 . S
C1120 H1091 0.930 . S
C1120 C1115 1.391 . S
C1120 N1119 1.388 . S
Co1121 O1123 2.143 . S
Co1121 O1129 2.074 . S
Co1121 O1132 2.093 . S
Co1121 O1145 2.097 . S
Co1121 N1162 2.151 . S
Co1121 N1170 2.214 . S
Co1122 O1123 2.160 . S
Co1122 O1128 2.058 . S
Co1122 O1138 2.057 . S
Co1122 O1153 2.037 . S
Co1122 N1157 2.145 . S
Co1122 N1178 2.257 . S
O1123 Co1121 2.143 . S
O1123 Co1122 2.160 . S
C1124 O1125 1.278 . S
C1124 O1132 1.224 . S
O1125 C1124 1.278 . S
C1126 O1127 1.245 . S
C1126 O1138 1.232 . S
O1127 C1126 1.245 . S
O1128 Co1122 2.058 . S
O1128 C1154 1.269 . S
O1129 Co1121 2.074 . S
O1129 C1154 1.257 . S
H1130 C1155 0.930 . S
H1131 C1161 0.930 . S
O1132 Co1121 2.093 . S
O1132 C1124 1.224 . S
H1133 C1165 0.929 . S
H1134 C1167 0.930 . S
H1135 C1168 0.930 . S
H1136 C1166 0.929 . S
H1137 C1169 0.928 . S
O1138 Co1122 2.057 . S
O1138 C1126 1.232 . S
H1139 C1158 0.929 . S
H1140 C1159 0.929 . S
H1141 C1171 0.931 . S
H1142 C1163 0.929 . S
H1143 C1172 0.930 . S
H1144 C1164 0.931 . S
O1145 Co1121 2.097 . S
O1145 C1173 1.214 . S
H1146 C1174 0.929 . S
H1147 C1175 0.929 . S
H1148 C1176 0.930 . S
H1149 C1177 0.929 . S
H1150 C1179 0.930 . S
H1151 C1156 0.930 . S
H1152 C1160 0.930 . S
O1153 Co1122 2.037 . S
O1153 C1173 1.234 . S
C1154 O1128 1.269 . S
C1154 O1129 1.257 . S
C1155 H1130 0.930 . S
C1155 C1158 1.388 . S
C1155 C1160 1.418 . S
C1156 H1151 0.930 . S
C1156 C1159 1.404 . S
C1156 C1160 1.353 . S
N1157 Co1122 2.145 . S
N1157 C1158 1.397 . S
N1157 C1159 1.334 . S
C1158 H1139 0.929 . S
C1158 C1155 1.388 . S
C1158 N1157 1.397 . S
C1159 H1140 0.929 . S
C1159 C1156 1.404 . S
C1159 N1157 1.334 . S
C1160 H1152 0.930 . S
C1160 C1155 1.418 . S
C1160 C1156 1.353 . S
C1161 H1131 0.930 . S
C1161 N1162 1.330 . S
C1161 C1163 1.446 . S
N1162 Co1121 2.151 . S
N1162 C1161 1.330 . S
N1162 C1166 1.418 . S
C1163 H1142 0.929 . S
C1163 C1161 1.446 . S
C1163 C1164 1.332 . S
C1164 H1144 0.931 . S
C1164 C1163 1.332 . S
C1164 C1165 1.267 . S
C1165 H1133 0.929 . S
C1165 C1164 1.267 . S
C1165 C1166 1.251 . S
C1166 H1136 0.929 . S
C1166 N1162 1.418 . S
C1166 C1165 1.251 . S
C1167 H1134 0.930 . S
C1167 C1169 1.406 . S
C1167 C1172 1.261 . S
C1168 H1135 0.930 . S
C1168 N1170 1.325 . S
C1168 C1171 1.357 . S
C1169 H1137 0.928 . S
C1169 C1167 1.406 . S
C1169 N1170 1.261 . S
N1170 Co1121 2.214 . S
N1170 C1168 1.325 . S
N1170 C1169 1.261 . S
C1171 H1141 0.931 . S
C1171 C1168 1.357 . S
C1171 C1172 1.312 . S
C1172 H1143 0.930 . S
C1172 C1167 1.261 . S
C1172 C1171 1.312 . S
C1173 O1145 1.214 . S
C1173 O1153 1.234 . S
C1174 H1146 0.929 . S
C1174 C1177 1.391 . S
C1174 C1179 1.391 . S
C1175 H1147 0.929 . S
C1175 C1176 1.390 . S
C1175 N1178 1.391 . S
C1176 H1148 0.930 . S
C1176 C1175 1.390 . S
C1176 C1177 1.392 . S
C1177 H1149 0.929 . S
C1177 C1174 1.391 . S
C1177 C1176 1.392 . S
N1178 Co1122 2.257 . S
N1178 C1175 1.391 . S
N1178 C1179 1.388 . S
C1179 H1150 0.930 . S
C1179 C1174 1.391 . S
C1179 N1178 1.388 . S
Co1180 O1182 2.143 . S
Co1180 O1188 2.074 . S
Co1180 O1191 2.093 . S
Co1180 O1204 2.097 . S
Co1180 N1221 2.151 . S
Co1180 N1229 2.214 . S
Co1181 O1182 2.160 . S
Co1181 O1187 2.058 . S
Co1181 O1197 2.057 . S
Co1181 O1212 2.037 . S
Co1181 N1216 2.145 . S
Co1181 N1237 2.257 . S
O1182 Co1180 2.143 . S
O1182 Co1181 2.160 . S
C1183 O1184 1.278 . S
C1183 O1191 1.224 . S
O1184 C1183 1.278 . S
C1185 O1186 1.245 . S
C1185 O1197 1.232 . S
O1186 C1185 1.245 . S
O1187 Co1181 2.058 . S
O1187 C1213 1.269 . S
O1188 Co1180 2.074 . S
O1188 C1213 1.257 . S
H1189 C1214 0.930 . S
H1190 C1220 0.930 . S
O1191 Co1180 2.093 . S
O1191 C1183 1.224 . S
H1192 C1224 0.929 . S
H1193 C1226 0.930 . S
H1194 C1227 0.930 . S
H1195 C1225 0.929 . S
H1196 C1228 0.928 . S
O1197 Co1181 2.057 . S
O1197 C1185 1.232 . S
H1198 C1217 0.929 . S
H1199 C1218 0.929 . S
H1200 C1230 0.931 . S
H1201 C1222 0.929 . S
H1202 C1231 0.930 . S
H1203 C1223 0.931 . S
O1204 Co1180 2.097 . S
O1204 C1232 1.214 . S
H1205 C1233 0.929 . S
H1206 C1234 0.929 . S
H1207 C1235 0.930 . S
H1208 C1236 0.929 . S
H1209 C1238 0.930 . S
H1210 C1215 0.930 . S
H1211 C1219 0.930 . S
O1212 Co1181 2.037 . S
O1212 C1232 1.234 . S
C1213 O1187 1.269 . S
C1213 O1188 1.257 . S
C1214 H1189 0.930 . S
C1214 C1217 1.388 . S
C1214 C1219 1.418 . S
C1215 H1210 0.930 . S
C1215 C1218 1.404 . S
C1215 C1219 1.353 . S
N1216 Co1181 2.145 . S
N1216 C1217 1.397 . S
N1216 C1218 1.334 . S
C1217 H1198 0.929 . S
C1217 C1214 1.388 . S
C1217 N1216 1.397 . S
C1218 H1199 0.929 . S
C1218 C1215 1.404 . S
C1218 N1216 1.334 . S
C1219 H1211 0.930 . S
C1219 C1214 1.418 . S
C1219 C1215 1.353 . S
C1220 H1190 0.930 . S
C1220 N1221 1.330 . S
C1220 C1222 1.446 . S
N1221 Co1180 2.151 . S
N1221 C1220 1.330 . S
N1221 C1225 1.418 . S
C1222 H1201 0.929 . S
C1222 C1220 1.446 . S
C1222 C1223 1.332 . S
C1223 H1203 0.931 . S
C1223 C1222 1.332 . S
C1223 C1224 1.267 . S
C1224 H1192 0.929 . S
C1224 C1223 1.267 . S
C1224 C1225 1.251 . S
C1225 H1195 0.929 . S
C1225 N1221 1.418 . S
C1225 C1224 1.251 . S
C1226 H1193 0.930 . S
C1226 C1228 1.406 . S
C1226 C1231 1.261 . S
C1227 H1194 0.930 . S
C1227 N1229 1.325 . S
C1227 C1230 1.357 . S
C1228 H1196 0.928 . S
C1228 C1226 1.406 . S
C1228 N1229 1.261 . S
N1229 Co1180 2.214 . S
N1229 C1227 1.325 . S
N1229 C1228 1.261 . S
C1230 H1200 0.931 . S
C1230 C1227 1.357 . S
C1230 C1231 1.312 . S
C1231 H1202 0.930 . S
C1231 C1226 1.261 . S
C1231 C1230 1.312 . S
C1232 O1204 1.214 . S
C1232 O1212 1.234 . S
C1233 H1205 0.929 . S
C1233 C1236 1.391 . S
C1233 C1238 1.391 . S
C1234 H1206 0.929 . S
C1234 C1235 1.390 . S
C1234 N1237 1.391 . S
C1235 H1207 0.930 . S
C1235 C1234 1.390 . S
C1235 C1236 1.392 . S
C1236 H1208 0.929 . S
C1236 C1233 1.391 . S
C1236 C1235 1.392 . S
N1237 Co1181 2.257 . S
N1237 C1234 1.391 . S
N1237 C1238 1.388 . S
C1238 H1209 0.930 . S
C1238 C1233 1.391 . S
C1238 N1237 1.388 . S
Co1239 O1241 2.143 . S
Co1239 O1247 2.074 . S
Co1239 O1250 2.093 . S
Co1239 O1263 2.097 . S
Co1239 N1280 2.151 . S
Co1239 N1288 2.214 . S
Co1240 O1241 2.160 . S
Co1240 O1246 2.058 . S
Co1240 O1256 2.057 . S
Co1240 O1271 2.037 . S
Co1240 N1275 2.145 . S
Co1240 N1296 2.257 . S
O1241 Co1239 2.143 . S
O1241 Co1240 2.160 . S
C1242 O1243 1.278 . S
C1242 O1250 1.224 . S
O1243 C1242 1.278 . S
C1244 O1245 1.245 . S
C1244 O1256 1.232 . S
O1245 C1244 1.245 . S
O1246 Co1240 2.058 . S
O1246 C1272 1.269 . S
O1247 Co1239 2.074 . S
O1247 C1272 1.257 . S
H1248 C1273 0.930 . S
H1249 C1279 0.930 . S
O1250 Co1239 2.093 . S
O1250 C1242 1.224 . S
H1251 C1283 0.929 . S
H1252 C1285 0.930 . S
H1253 C1286 0.930 . S
H1254 C1284 0.929 . S
H1255 C1287 0.928 . S
O1256 Co1240 2.057 . S
O1256 C1244 1.232 . S
H1257 C1276 0.929 . S
H1258 C1277 0.929 . S
H1259 C1289 0.931 . S
H1260 C1281 0.929 . S
H1261 C1290 0.930 . S
H1262 C1282 0.931 . S
O1263 Co1239 2.097 . S
O1263 C1291 1.214 . S
H1264 C1292 0.929 . S
H1265 C1293 0.929 . S
H1266 C1294 0.930 . S
H1267 C1295 0.929 . S
H1268 C1297 0.930 . S
H1269 C1274 0.930 . S
H1270 C1278 0.930 . S
O1271 Co1240 2.037 . S
O1271 C1291 1.234 . S
C1272 O1246 1.269 . S
C1272 O1247 1.257 . S
C1273 H1248 0.930 . S
C1273 C1276 1.388 . S
C1273 C1278 1.418 . S
C1274 H1269 0.930 . S
C1274 C1277 1.404 . S
C1274 C1278 1.353 . S
N1275 Co1240 2.145 . S
N1275 C1276 1.397 . S
N1275 C1277 1.334 . S
C1276 H1257 0.929 . S
C1276 C1273 1.388 . S
C1276 N1275 1.397 . S
C1277 H1258 0.929 . S
C1277 C1274 1.404 . S
C1277 N1275 1.334 . S
C1278 H1270 0.930 . S
C1278 C1273 1.418 . S
C1278 C1274 1.353 . S
C1279 H1249 0.930 . S
C1279 N1280 1.330 . S
C1279 C1281 1.446 . S
N1280 Co1239 2.151 . S
N1280 C1279 1.330 . S
N1280 C1284 1.418 . S
C1281 H1260 0.929 . S
C1281 C1279 1.446 . S
C1281 C1282 1.332 . S
C1282 H1262 0.931 . S
C1282 C1281 1.332 . S
C1282 C1283 1.267 . S
C1283 H1251 0.929 . S
C1283 C1282 1.267 . S
C1283 C1284 1.251 . S
C1284 H1254 0.929 . S
C1284 N1280 1.418 . S
C1284 C1283 1.251 . S
C1285 H1252 0.930 . S
C1285 C1287 1.406 . S
C1285 C1290 1.261 . S
C1286 H1253 0.930 . S
C1286 N1288 1.325 . S
C1286 C1289 1.357 . S
C1287 H1255 0.928 . S
C1287 C1285 1.406 . S
C1287 N1288 1.261 . S
N1288 Co1239 2.214 . S
N1288 C1286 1.325 . S
N1288 C1287 1.261 . S
C1289 H1259 0.931 . S
C1289 C1286 1.357 . S
C1289 C1290 1.312 . S
C1290 H1261 0.930 . S
C1290 C1285 1.261 . S
C1290 C1289 1.312 . S
C1291 O1263 1.214 . S
C1291 O1271 1.234 . S
C1292 H1264 0.929 . S
C1292 C1295 1.391 . S
C1292 C1297 1.391 . S
C1293 H1265 0.929 . S
C1293 C1294 1.390 . S
C1293 N1296 1.391 . S
C1294 H1266 0.930 . S
C1294 C1293 1.390 . S
C1294 C1295 1.392 . S
C1295 H1267 0.929 . S
C1295 C1292 1.391 . S
C1295 C1294 1.392 . S
N1296 Co1240 2.257 . S
N1296 C1293 1.391 . S
N1296 C1297 1.388 . S
C1297 H1268 0.930 . S
C1297 C1292 1.391 . S
C1297 N1296 1.388 . S
Co1298 O1300 2.143 . S
Co1298 O1306 2.074 . S
Co1298 O1309 2.093 . S
Co1298 O1322 2.097 . S
Co1298 N1339 2.151 . S
Co1298 N1347 2.214 . S
Co1299 O1300 2.160 . S
Co1299 O1305 2.058 . S
Co1299 O1315 2.057 . S
Co1299 O1330 2.037 . S
Co1299 N1334 2.145 . S
Co1299 N1355 2.257 . S
O1300 Co1298 2.143 . S
O1300 Co1299 2.160 . S
C1301 O1302 1.278 . S
C1301 O1309 1.224 . S
O1302 C1301 1.278 . S
C1303 O1304 1.245 . S
C1303 O1315 1.232 . S
O1304 C1303 1.245 . S
O1305 Co1299 2.058 . S
O1305 C1331 1.269 . S
O1306 Co1298 2.074 . S
O1306 C1331 1.257 . S
H1307 C1332 0.930 . S
H1308 C1338 0.930 . S
O1309 Co1298 2.093 . S
O1309 C1301 1.224 . S
H1310 C1342 0.929 . S
H1311 C1344 0.930 . S
H1312 C1345 0.930 . S
H1313 C1343 0.929 . S
H1314 C1346 0.928 . S
O1315 Co1299 2.057 . S
O1315 C1303 1.232 . S
H1316 C1335 0.929 . S
H1317 C1336 0.929 . S
H1318 C1348 0.931 . S
H1319 C1340 0.929 . S
H1320 C1349 0.930 . S
H1321 C1341 0.931 . S
O1322 Co1298 2.097 . S
O1322 C1350 1.214 . S
H1323 C1351 0.929 . S
H1324 C1352 0.929 . S
H1325 C1353 0.930 . S
H1326 C1354 0.929 . S
H1327 C1356 0.930 . S
H1328 C1333 0.930 . S
H1329 C1337 0.930 . S
O1330 Co1299 2.037 . S
O1330 C1350 1.234 . S
C1331 O1305 1.269 . S
C1331 O1306 1.257 . S
C1332 H1307 0.930 . S
C1332 C1335 1.388 . S
C1332 C1337 1.418 . S
C1333 H1328 0.930 . S
C1333 C1336 1.404 . S
C1333 C1337 1.353 . S
N1334 Co1299 2.145 . S
N1334 C1335 1.397 . S
N1334 C1336 1.334 . S
C1335 H1316 0.929 . S
C1335 C1332 1.388 . S
C1335 N1334 1.397 . S
C1336 H1317 0.929 . S
C1336 C1333 1.404 . S
C1336 N1334 1.334 . S
C1337 H1329 0.930 . S
C1337 C1332 1.418 . S
C1337 C1333 1.353 . S
C1338 H1308 0.930 . S
C1338 N1339 1.330 . S
C1338 C1340 1.446 . S
N1339 Co1298 2.151 . S
N1339 C1338 1.330 . S
N1339 C1343 1.418 . S
C1340 H1319 0.929 . S
C1340 C1338 1.446 . S
C1340 C1341 1.332 . S
C1341 H1321 0.931 . S
C1341 C1340 1.332 . S
C1341 C1342 1.267 . S
C1342 H1310 0.929 . S
C1342 C1341 1.267 . S
C1342 C1343 1.251 . S
C1343 H1313 0.929 . S
C1343 N1339 1.418 . S
C1343 C1342 1.251 . S
C1344 H1311 0.930 . S
C1344 C1346 1.406 . S
C1344 C1349 1.261 . S
C1345 H1312 0.930 . S
C1345 N1347 1.325 . S
C1345 C1348 1.357 . S
C1346 H1314 0.928 . S
C1346 C1344 1.406 . S
C1346 N1347 1.261 . S
N1347 Co1298 2.214 . S
N1347 C1345 1.325 . S
N1347 C1346 1.261 . S
C1348 H1318 0.931 . S
C1348 C1345 1.357 . S
C1348 C1349 1.312 . S
C1349 H1320 0.930 . S
C1349 C1344 1.261 . S
C1349 C1348 1.312 . S
C1350 O1322 1.214 . S
C1350 O1330 1.234 . S
C1351 H1323 0.929 . S
C1351 C1354 1.391 . S
C1351 C1356 1.391 . S
C1352 H1324 0.929 . S
C1352 C1353 1.390 . S
C1352 N1355 1.391 . S
C1353 H1325 0.930 . S
C1353 C1352 1.390 . S
C1353 C1354 1.392 . S
C1354 H1326 0.929 . S
C1354 C1351 1.391 . S
C1354 C1353 1.392 . S
N1355 Co1299 2.257 . S
N1355 C1352 1.391 . S
N1355 C1356 1.388 . S
C1356 H1327 0.930 . S
C1356 C1351 1.391 . S
C1356 N1355 1.388 . S
Co1357 O1359 2.143 . S
Co1357 O1365 2.074 . S
Co1357 O1368 2.093 . S
Co1357 O1381 2.097 . S
Co1357 N1398 2.151 . S
Co1357 N1406 2.214 . S
Co1358 O1359 2.160 . S
Co1358 O1364 2.058 . S
Co1358 O1374 2.057 . S
Co1358 O1389 2.037 . S
Co1358 N1393 2.145 . S
Co1358 N1414 2.257 . S
O1359 Co1357 2.143 . S
O1359 Co1358 2.160 . S
C1360 O1361 1.278 . S
C1360 O1368 1.224 . S
O1361 C1360 1.278 . S
C1362 O1363 1.245 . S
C1362 O1374 1.232 . S
O1363 C1362 1.245 . S
O1364 Co1358 2.058 . S
O1364 C1390 1.269 . S
O1365 Co1357 2.074 . S
O1365 C1390 1.257 . S
H1366 C1391 0.930 . S
H1367 C1397 0.930 . S
O1368 Co1357 2.093 . S
O1368 C1360 1.224 . S
H1369 C1401 0.929 . S
H1370 C1403 0.930 . S
H1371 C1404 0.930 . S
H1372 C1402 0.929 . S
H1373 C1405 0.928 . S
O1374 Co1358 2.057 . S
O1374 C1362 1.232 . S
H1375 C1394 0.929 . S
H1376 C1395 0.929 . S
H1377 C1407 0.931 . S
H1378 C1399 0.929 . S
H1379 C1408 0.930 . S
H1380 C1400 0.931 . S
O1381 Co1357 2.097 . S
O1381 C1409 1.214 . S
H1382 C1410 0.929 . S
H1383 C1411 0.929 . S
H1384 C1412 0.930 . S
H1385 C1413 0.929 . S
H1386 C1415 0.930 . S
H1387 C1392 0.930 . S
H1388 C1396 0.930 . S
O1389 Co1358 2.037 . S
O1389 C1409 1.234 . S
C1390 O1364 1.269 . S
C1390 O1365 1.257 . S
C1391 H1366 0.930 . S
C1391 C1394 1.388 . S
C1391 C1396 1.418 . S
C1392 H1387 0.930 . S
C1392 C1395 1.404 . S
C1392 C1396 1.353 . S
N1393 Co1358 2.145 . S
N1393 C1394 1.397 . S
N1393 C1395 1.334 . S
C1394 H1375 0.929 . S
C1394 C1391 1.388 . S
C1394 N1393 1.397 . S
C1395 H1376 0.929 . S
C1395 C1392 1.404 . S
C1395 N1393 1.334 . S
C1396 H1388 0.930 . S
C1396 C1391 1.418 . S
C1396 C1392 1.353 . S
C1397 H1367 0.930 . S
C1397 N1398 1.330 . S
C1397 C1399 1.446 . S
N1398 Co1357 2.151 . S
N1398 C1397 1.330 . S
N1398 C1402 1.418 . S
C1399 H1378 0.929 . S
C1399 C1397 1.446 . S
C1399 C1400 1.332 . S
C1400 H1380 0.931 . S
C1400 C1399 1.332 . S
C1400 C1401 1.267 . S
C1401 H1369 0.929 . S
C1401 C1400 1.267 . S
C1401 C1402 1.251 . S
C1402 H1372 0.929 . S
C1402 N1398 1.418 . S
C1402 C1401 1.251 . S
C1403 H1370 0.930 . S
C1403 C1405 1.406 . S
C1403 C1408 1.261 . S
C1404 H1371 0.930 . S
C1404 N1406 1.325 . S
C1404 C1407 1.357 . S
C1405 H1373 0.928 . S
C1405 C1403 1.406 . S
C1405 N1406 1.261 . S
N1406 Co1357 2.214 . S
N1406 C1404 1.325 . S
N1406 C1405 1.261 . S
C1407 H1377 0.931 . S
C1407 C1404 1.357 . S
C1407 C1408 1.312 . S
C1408 H1379 0.930 . S
C1408 C1403 1.261 . S
C1408 C1407 1.312 . S
C1409 O1381 1.214 . S
C1409 O1389 1.234 . S
C1410 H1382 0.929 . S
C1410 C1413 1.391 . S
C1410 C1415 1.391 . S
C1411 H1383 0.929 . S
C1411 C1412 1.390 . S
C1411 N1414 1.391 . S
C1412 H1384 0.930 . S
C1412 C1411 1.390 . S
C1412 C1413 1.392 . S
C1413 H1385 0.929 . S
C1413 C1410 1.391 . S
C1413 C1412 1.392 . S
N1414 Co1358 2.257 . S
N1414 C1411 1.391 . S
N1414 C1415 1.388 . S
C1415 H1386 0.930 . S
C1415 C1410 1.391 . S
C1415 N1414 1.388 . S
H1416 C1424 0.950 . S
H1417 C1429 0.950 . S
H1418 C1426 0.950 . S
H1419 C1428 0.950 . S
H1420 C1430 0.950 . S
H1421 C1432 0.950 . S
H1422 C1434 0.950 . S
H1423 C1435 0.950 . S
C1424 H1416 0.950 . S
C1424 C1425 1.386 . S
C1424 C1426 1.391 . S
C1425 C1424 1.386 . S
C1425 C1429 1.393 . S
C1426 H1418 0.950 . S
C1426 C1424 1.391 . S
C1426 C1427 1.400 . S
C1427 C1426 1.400 . S
C1427 C1428 1.398 . S
C1427 C1433 1.491 1_545 S
C1428 H1419 0.950 . S
C1428 C1427 1.398 . S
C1428 C1429 1.391 . S
C1429 H1417 0.950 . S
C1429 C1425 1.393 . S
C1429 C1428 1.391 . S
C1430 H1420 0.950 . S
C1430 C1431 1.386 . S
C1430 C1432 1.391 . S
C1431 C1430 1.386 . S
C1431 C1435 1.393 . S
C1432 H1421 0.950 . S
C1432 C1430 1.391 . S
C1432 C1433 1.400 . S
C1433 C1427 1.491 1_565 S
C1433 C1432 1.400 . S
C1433 C1434 1.398 . S
C1434 H1422 0.950 . S
C1434 C1433 1.398 . S
C1434 C1435 1.391 . S
C1435 H1423 0.950 . S
C1435 C1431 1.393 . S
C1435 C1434 1.391 . S
H1436 C1444 0.950 . S
H1437 C1449 0.950 . S
H1438 C1446 0.950 . S
H1439 C1448 0.950 . S
H1440 C1450 0.950 . S
H1441 C1452 0.950 . S
H1442 C1454 0.950 . S
H1443 C1455 0.950 . S
C1444 H1436 0.950 . S
C1444 C1445 1.386 . S
C1444 C1446 1.391 . S
C1445 C1444 1.386 . S
C1445 C1449 1.393 . S
C1446 H1438 0.950 . S
C1446 C1444 1.391 . S
C1446 C1447 1.400 . S
C1447 C1446 1.400 . S
C1447 C1448 1.398 . S
C1447 C1453 1.491 . S
C1448 H1439 0.950 . S
C1448 C1447 1.398 . S
C1448 C1449 1.391 . S
C1449 H1437 0.950 . S
C1449 C1445 1.393 . S
C1449 C1448 1.391 . S
C1450 H1440 0.950 . S
C1450 C1451 1.386 . S
C1450 C1452 1.391 . S
C1451 C1450 1.386 . S
C1451 C1455 1.393 . S
C1452 H1441 0.950 . S
C1452 C1450 1.391 . S
C1452 C1453 1.400 . S
C1453 C1447 1.491 . S
C1453 C1452 1.400 . S
C1453 C1454 1.398 . S
C1454 H1442 0.950 . S
C1454 C1453 1.398 . S
C1454 C1455 1.391 . S
C1455 H1443 0.950 . S
C1455 C1451 1.393 . S
C1455 C1454 1.391 . S
H1456 C1464 0.950 . S
H1457 C1469 0.950 . S
H1458 C1466 0.950 . S
H1459 C1468 0.916 1_455 S
H1460 C1470 0.950 . S
H1461 C1472 0.950 . S
H1462 C1474 0.916 1_655 S
H1463 C1475 0.950 . S
C1464 H1456 0.950 . S
C1464 C1465 1.386 . S
C1464 C1466 1.391 . S
C1465 C1464 1.386 . S
C1465 C1469 1.393 . S
C1466 H1458 0.950 . S
C1466 C1464 1.391 . S
C1466 C1467 1.400 . S
C1467 C1466 1.400 . S
C1467 C1468 1.398 . S
C1467 C1473 1.491 1_655 S
C1468 H1459 0.916 1_655 S
C1468 C1467 1.398 . S
C1468 C1469 1.391 . S
C1469 H1457 0.950 . S
C1469 C1465 1.393 . S
C1469 C1468 1.391 . S
C1470 H1460 0.950 . S
C1470 C1471 1.386 . S
C1470 C1472 1.391 . S
C1471 C1470 1.386 . S
C1471 C1475 1.393 . S
C1472 H1461 0.950 . S
C1472 C1470 1.391 . S
C1472 C1473 1.400 . S
C1473 C1467 1.491 1_455 S
C1473 C1472 1.400 . S
C1473 C1474 1.398 . S
C1474 H1462 0.916 1_455 S
C1474 C1473 1.398 . S
C1474 C1475 1.391 . S
C1475 H1463 0.950 . S
C1475 C1471 1.393 . S
C1475 C1474 1.391 . S
H1476 C1484 0.950 . S
H1477 C1489 0.950 . S
H1478 C1486 0.950 . S
H1479 C1488 0.950 . S
H1480 C1490 0.950 . S
H1481 C1492 0.950 . S
H1482 C1494 0.950 . S
H1483 C1495 0.950 . S
C1484 H1476 0.950 . S
C1484 C1485 1.386 . S
C1484 C1486 1.391 . S
C1485 C1484 1.386 . S
C1485 C1489 1.393 . S
C1486 H1478 0.950 . S
C1486 C1484 1.391 . S
C1486 C1487 1.400 . S
C1487 C1486 1.400 . S
C1487 C1488 1.398 . S
C1487 C1493 1.491 1_565 S
C1488 H1479 0.950 . S
C1488 C1487 1.398 . S
C1488 C1489 1.391 . S
C1489 H1477 0.950 . S
C1489 C1485 1.393 . S
C1489 C1488 1.391 . S
C1490 H1480 0.950 . S
C1490 C1491 1.386 . S
C1490 C1492 1.391 . S
C1491 C1490 1.386 . S
C1491 C1495 1.393 . S
C1492 H1481 0.950 . S
C1492 C1490 1.391 . S
C1492 C1493 1.400 . S
C1493 C1487 1.491 1_545 S
C1493 C1492 1.400 . S
C1493 C1494 1.398 . S
C1494 H1482 0.950 . S
C1494 C1493 1.398 . S
C1494 C1495 1.391 . S
C1495 H1483 0.950 . S
C1495 C1491 1.393 . S
C1495 C1494 1.391 . S
H1496 C1504 0.950 . S
H1497 C1509 0.950 . S
H1498 C1506 0.950 . S
H1499 C1508 0.950 . S
H1500 C1510 0.950 . S
H1501 C1512 0.950 . S
H1502 C1514 0.950 . S
H1503 C1515 0.950 . S
C1504 H1496 0.950 . S
C1504 C1505 1.386 . S
C1504 C1506 1.391 . S
C1505 C1504 1.386 . S
C1505 C1509 1.393 . S
C1506 H1498 0.950 . S
C1506 C1504 1.391 . S
C1506 C1507 1.400 . S
C1507 C1506 1.400 . S
C1507 C1508 1.398 . S
C1507 C1513 1.491 . S
C1508 H1499 0.950 . S
C1508 C1507 1.398 . S
C1508 C1509 1.391 . S
C1509 H1497 0.950 . S
C1509 C1505 1.393 . S
C1509 C1508 1.391 . S
C1510 H1500 0.950 . S
C1510 C1511 1.386 . S
C1510 C1512 1.391 . S
C1511 C1510 1.386 . S
C1511 C1515 1.393 . S
C1512 H1501 0.950 . S
C1512 C1510 1.391 . S
C1512 C1513 1.400 . S
C1513 C1507 1.491 . S
C1513 C1512 1.400 . S
C1513 C1514 1.398 . S
C1514 H1502 0.950 . S
C1514 C1513 1.398 . S
C1514 C1515 1.391 . S
C1515 H1503 0.950 . S
C1515 C1511 1.393 . S
C1515 C1514 1.391 . S
H1516 C1524 0.950 . S
H1517 C1529 0.950 . S
H1518 C1526 0.950 . S
H1519 C1528 0.950 . S
H1520 C1530 0.950 . S
H1521 C1532 0.950 . S
H1522 C1534 0.950 . S
H1523 C1535 0.950 . S
C1524 H1516 0.950 . S
C1524 C1525 1.386 . S
C1524 C1526 1.391 . S
C1525 C1524 1.386 . S
C1525 C1529 1.393 . S
C1526 H1518 0.950 . S
C1526 C1524 1.391 . S
C1526 C1527 1.400 . S
C1527 C1526 1.400 . S
C1527 C1528 1.398 . S
C1527 C1533 1.491 1_455 S
C1528 H1519 0.950 . S
C1528 C1527 1.398 . S
C1528 C1529 1.391 . S
C1529 H1517 0.950 . S
C1529 C1525 1.393 . S
C1529 C1528 1.391 . S
C1530 H1520 0.950 . S
C1530 C1531 1.386 . S
C1530 C1532 1.391 . S
C1531 C1530 1.386 . S
C1531 C1535 1.393 . S
C1532 H1521 0.950 . S
C1532 C1530 1.391 . S
C1532 C1533 1.400 . S
C1533 C1527 1.491 1_655 S
C1533 C1532 1.400 . S
C1533 C1534 1.398 . S
C1534 H1522 0.950 . S
C1534 C1533 1.398 . S
C1534 C1535 1.391 . S
C1535 H1523 0.950 . S
C1535 C1531 1.393 . S
C1535 C1534 1.391 . S
H1536 C1544 0.950 . S
H1537 C1549 0.950 . S
H1538 C1546 0.950 . S
H1539 C1548 0.923 1_545 S
H1540 C1550 0.950 . S
H1541 C1552 0.950 . S
H1542 C1554 0.923 1_565 S
H1543 C1555 0.950 . S
C1544 H1536 0.950 . S
C1544 C1545 1.386 . S
C1544 C1546 1.391 . S
C1545 C1544 1.386 . S
C1545 C1549 1.393 . S
C1546 H1538 0.950 . S
C1546 C1544 1.391 . S
C1546 C1547 1.400 . S
C1547 C1546 1.400 . S
C1547 C1548 1.398 . S
C1547 C1553 1.491 1_565 S
C1548 H1539 0.923 1_565 S
C1548 C1547 1.398 . S
C1548 C1549 1.391 . S
C1549 H1537 0.950 . S
C1549 C1545 1.393 . S
C1549 C1548 1.391 . S
C1550 H1540 0.950 . S
C1550 C1551 1.386 . S
C1550 C1552 1.391 . S
C1551 C1550 1.386 . S
C1551 C1555 1.393 . S
C1552 H1541 0.950 . S
C1552 C1550 1.391 . S
C1552 C1553 1.400 . S
C1553 C1547 1.491 1_545 S
C1553 C1552 1.400 . S
C1553 C1554 1.398 . S
C1554 H1542 0.923 1_545 S
C1554 C1553 1.398 . S
C1554 C1555 1.391 . S
C1555 H1543 0.950 . S
C1555 C1551 1.393 . S
C1555 C1554 1.391 . S
H1556 C1564 0.950 . S
H1557 C1569 0.950 . S
H1558 C1566 0.950 . S
H1559 C1568 0.950 . S
H1560 C1570 0.950 . S
H1561 C1572 0.950 . S
H1562 C1574 0.950 . S
H1563 C1575 0.950 . S
C1564 H1556 0.950 . S
C1564 C1565 1.386 . S
C1564 C1566 1.391 . S
C1565 C1564 1.386 . S
C1565 C1569 1.393 . S
C1566 H1558 0.950 . S
C1566 C1564 1.391 . S
C1566 C1567 1.400 . S
C1567 C1566 1.400 . S
C1567 C1568 1.398 . S
C1567 C1573 1.491 . S
C1568 H1559 0.950 . S
C1568 C1567 1.398 . S
C1568 C1569 1.391 . S
C1569 H1557 0.950 . S
C1569 C1565 1.393 . S
C1569 C1568 1.391 . S
C1570 H1560 0.950 . S
C1570 C1571 1.386 . S
C1570 C1572 1.391 . S
C1571 C1570 1.386 . S
C1571 C1575 1.393 . S
C1572 H1561 0.950 . S
C1572 C1570 1.391 . S
C1572 C1573 1.400 . S
C1573 C1567 1.491 . S
C1573 C1572 1.400 . S
C1573 C1574 1.398 . S
C1574 H1562 0.950 . S
C1574 C1573 1.398 . S
C1574 C1575 1.391 . S
C1575 H1563 0.950 . S
C1575 C1571 1.393 . S
C1575 C1574 1.391 . S
H1576 C1584 0.950 . S
H1577 C1589 0.950 . S
H1578 C1586 0.950 . S
H1579 C1588 0.905 1_455 S
H1580 C1590 0.950 . S
H1581 C1592 0.950 . S
H1582 C1594 0.905 1_655 S
H1583 C1595 0.950 . S
C1584 H1576 0.950 . S
C1584 C1585 1.386 . S
C1584 C1586 1.391 . S
C1585 C1584 1.386 . S
C1585 C1589 1.393 . S
C1586 H1578 0.950 . S
C1586 C1584 1.391 . S
C1586 C1587 1.400 . S
C1587 C1586 1.400 . S
C1587 C1588 1.398 . S
C1587 C1593 1.491 1_655 S
C1588 H1579 0.905 1_655 S
C1588 C1587 1.398 . S
C1588 C1589 1.391 . S
C1589 H1577 0.950 . S
C1589 C1585 1.393 . S
C1589 C1588 1.391 . S
C1590 H1580 0.950 . S
C1590 C1591 1.386 . S
C1590 C1592 1.391 . S
C1591 C1590 1.386 . S
C1591 C1595 1.393 . S
C1592 H1581 0.950 . S
C1592 C1590 1.391 . S
C1592 C1593 1.400 . S
C1593 C1587 1.491 1_455 S
C1593 C1592 1.400 . S
C1593 C1594 1.398 . S
C1594 H1582 0.905 1_455 S
C1594 C1593 1.398 . S
C1594 C1595 1.391 . S
C1595 H1583 0.950 . S
C1595 C1591 1.393 . S
C1595 C1594 1.391 . S
H1596 C1604 0.950 . S
H1597 C1609 0.950 . S
H1598 C1606 0.950 . S
H1599 C1608 0.950 . S
H1600 C1610 0.950 . S
H1601 C1612 0.950 . S
H1602 C1614 0.950 . S
H1603 C1615 0.950 . S
C1604 H1596 0.950 . S
C1604 C1605 1.386 . S
C1604 C1606 1.391 . S
C1605 C1604 1.386 . S
C1605 C1609 1.393 . S
C1606 H1598 0.950 . S
C1606 C1604 1.391 . S
C1606 C1607 1.400 . S
C1607 C1606 1.400 . S
C1607 C1608 1.398 . S
C1607 C1613 1.491 1_545 S
C1608 H1599 0.950 . S
C1608 C1607 1.398 . S
C1608 C1609 1.391 . S
C1609 H1597 0.950 . S
C1609 C1605 1.393 . S
C1609 C1608 1.391 . S
C1610 H1600 0.950 . S
C1610 C1611 1.386 . S
C1610 C1612 1.391 . S
C1611 C1610 1.386 . S
C1611 C1615 1.393 . S
C1612 H1601 0.950 . S
C1612 C1610 1.391 . S
C1612 C1613 1.400 . S
C1613 C1607 1.491 1_565 S
C1613 C1612 1.400 . S
C1613 C1614 1.398 . S
C1614 H1602 0.950 . S
C1614 C1613 1.398 . S
C1614 C1615 1.391 . S
C1615 H1603 0.950 . S
C1615 C1611 1.393 . S
C1615 C1614 1.391 . S
H1616 C1624 0.950 . S
H1617 C1629 0.950 . S
H1618 C1626 0.950 . S
H1619 C1628 0.950 . S
H1620 C1630 0.950 . S
H1621 C1632 0.950 . S
H1622 C1634 0.950 . S
H1623 C1635 0.950 . S
C1624 H1616 0.950 . S
C1624 C1625 1.386 . S
C1624 C1626 1.391 . S
C1625 C1624 1.386 . S
C1625 C1629 1.393 . S
C1626 H1618 0.950 . S
C1626 C1624 1.391 . S
C1626 C1627 1.400 . S
C1627 C1626 1.400 . S
C1627 C1628 1.398 . S
C1627 C1633 1.491 . S
C1628 H1619 0.950 . S
C1628 C1627 1.398 . S
C1628 C1629 1.391 . S
C1629 H1617 0.950 . S
C1629 C1625 1.393 . S
C1629 C1628 1.391 . S
C1630 H1620 0.950 . S
C1630 C1631 1.386 . S
C1630 C1632 1.391 . S
C1631 C1630 1.386 . S
C1631 C1635 1.393 . S
C1632 H1621 0.950 . S
C1632 C1630 1.391 . S
C1632 C1633 1.400 . S
C1633 C1627 1.491 . S
C1633 C1632 1.400 . S
C1633 C1634 1.398 . S
C1634 H1622 0.950 . S
C1634 C1633 1.398 . S
C1634 C1635 1.391 . S
C1635 H1623 0.950 . S
C1635 C1631 1.393 . S
C1635 C1634 1.391 . S
H1636 C1644 0.950 . S
H1637 C1649 0.950 . S
H1638 C1646 0.930 1_655 S
H1639 C1648 0.950 . S
H1640 C1650 0.950 . S
H1641 C1652 0.930 1_455 S
H1642 C1654 0.950 . S
H1643 C1655 0.950 . S
C1644 H1636 0.950 . S
C1644 C1645 1.386 . S
C1644 C1646 1.391 . S
C1645 C1644 1.386 . S
C1645 C1649 1.393 . S
C1646 H1638 0.930 1_455 S
C1646 C1644 1.391 . S
C1646 C1647 1.400 . S
C1647 C1646 1.400 . S
C1647 C1648 1.398 . S
C1647 C1653 1.491 1_455 S
C1648 H1639 0.950 . S
C1648 C1647 1.398 . S
C1648 C1649 1.391 . S
C1649 H1637 0.950 . S
C1649 C1645 1.393 . S
C1649 C1648 1.391 . S
C1650 H1640 0.950 . S
C1650 C1651 1.386 . S
C1650 C1652 1.391 . S
C1651 C1650 1.386 . S
C1651 C1655 1.393 . S
C1652 H1641 0.930 1_655 S
C1652 C1650 1.391 . S
C1652 C1653 1.400 . S
C1653 C1647 1.491 1_655 S
C1653 C1652 1.400 . S
C1653 C1654 1.398 . S
C1654 H1642 0.950 . S
C1654 C1653 1.398 . S
C1654 C1655 1.391 . S
C1655 H1643 0.950 . S
C1655 C1651 1.393 . S
C1655 C1654 1.391 . S
H1656 C1664 0.950 . S
H1657 C1669 0.950 . S
H1658 C1666 0.950 . S
H1659 C1668 0.950 . S
H1660 C1670 0.950 . S
H1661 C1672 0.950 . S
H1662 C1674 0.950 . S
H1663 C1675 0.950 . S
C1664 H1656 0.950 . S
C1664 C1665 1.386 . S
C1664 C1666 1.391 . S
C1665 C1664 1.386 . S
C1665 C1669 1.393 . S
C1666 H1658 0.950 . S
C1666 C1664 1.391 . S
C1666 C1667 1.400 . S
C1667 C1666 1.400 . S
C1667 C1668 1.398 . S
C1667 C1673 1.491 . S
C1668 H1659 0.950 . S
C1668 C1667 1.398 . S
C1668 C1669 1.391 . S
C1669 H1657 0.950 . S
C1669 C1665 1.393 . S
C1669 C1668 1.391 . S
C1670 H1660 0.950 . S
C1670 C1671 1.386 . S
C1670 C1672 1.391 . S
C1671 C1670 1.386 . S
C1671 C1675 1.393 . S
C1672 H1661 0.950 . S
C1672 C1670 1.391 . S
C1672 C1673 1.400 . S
C1673 C1667 1.491 . S
C1673 C1672 1.400 . S
C1673 C1674 1.398 . S
C1674 H1662 0.950 . S
C1674 C1673 1.398 . S
C1674 C1675 1.391 . S
C1675 H1663 0.950 . S
C1675 C1671 1.393 . S
C1675 C1674 1.391 . S
H1676 C1684 0.950 . S
H1677 C1689 0.950 . S
H1678 C1686 0.950 . S
H1679 C1688 0.950 . S
H1680 C1690 0.950 . S
H1681 C1692 0.950 . S
H1682 C1694 0.950 . S
H1683 C1695 0.950 . S
C1684 H1676 0.950 . S
C1684 C1685 1.386 . S
C1684 C1686 1.391 . S
C1685 C1684 1.386 . S
C1685 C1689 1.393 . S
C1686 H1678 0.950 . S
C1686 C1684 1.391 . S
C1686 C1687 1.400 . S
C1687 C1686 1.400 . S
C1687 C1688 1.398 . S
C1687 C1693 1.491 . S
C1688 H1679 0.950 . S
C1688 C1687 1.398 . S
C1688 C1689 1.391 . S
C1689 H1677 0.950 . S
C1689 C1685 1.393 . S
C1689 C1688 1.391 . S
C1690 H1680 0.950 . S
C1690 C1691 1.386 . S
C1690 C1692 1.391 . S
C1691 C1690 1.386 . S
C1691 C1695 1.393 . S
C1692 H1681 0.950 . S
C1692 C1690 1.391 . S
C1692 C1693 1.400 . S
C1693 C1687 1.491 . S
C1693 C1692 1.400 . S
C1693 C1694 1.398 . S
C1694 H1682 0.950 . S
C1694 C1693 1.398 . S
C1694 C1695 1.391 . S
C1695 H1683 0.950 . S
C1695 C1691 1.393 . S
C1695 C1694 1.391 . S
H1696 C1704 0.950 . S
H1697 C1709 0.950 . S
H1698 C1706 0.950 . S
H1699 C1708 0.950 . S
H1700 C1710 0.950 . S
H1701 C1712 0.950 . S
H1702 C1714 0.950 . S
H1703 C1715 0.950 . S
C1704 H1696 0.950 . S
C1704 C1705 1.386 . S
C1704 C1706 1.391 . S
C1705 C1704 1.386 . S
C1705 C1709 1.393 . S
C1706 H1698 0.950 . S
C1706 C1704 1.391 . S
C1706 C1707 1.400 . S
C1707 C1706 1.400 . S
C1707 C1708 1.398 . S
C1707 C1713 1.491 . S
C1708 H1699 0.950 . S
C1708 C1707 1.398 . S
C1708 C1709 1.391 . S
C1709 H1697 0.950 . S
C1709 C1705 1.393 . S
C1709 C1708 1.391 . S
C1710 H1700 0.950 . S
C1710 C1711 1.386 . S
C1710 C1712 1.391 . S
C1711 C1710 1.386 . S
C1711 C1715 1.393 . S
C1712 H1701 0.950 . S
C1712 C1710 1.391 . S
C1712 C1713 1.400 . S
C1713 C1707 1.491 . S
C1713 C1712 1.400 . S
C1713 C1714 1.398 . S
C1714 H1702 0.950 . S
C1714 C1713 1.398 . S
C1714 C1715 1.391 . S
C1715 H1703 0.950 . S
C1715 C1711 1.393 . S
C1715 C1714 1.391 . S
H1716 C1724 0.950 . S
H1717 C1729 0.950 . S
H1718 C1726 0.950 . S
H1719 C1728 0.950 . S
H1720 C1730 0.950 . S
H1721 C1732 0.950 . S
H1722 C1734 0.950 . S
H1723 C1735 0.950 . S
C1724 H1716 0.950 . S
C1724 C1725 1.386 . S
C1724 C1726 1.391 . S
C1725 C1724 1.386 . S
C1725 C1729 1.393 . S
C1726 H1718 0.950 . S
C1726 C1724 1.391 . S
C1726 C1727 1.400 . S
C1727 C1726 1.400 . S
C1727 C1728 1.398 . S
C1727 C1733 1.491 . S
C1728 H1719 0.950 . S
C1728 C1727 1.398 . S
C1728 C1729 1.391 . S
C1729 H1717 0.950 . S
C1729 C1725 1.393 . S
C1729 C1728 1.391 . S
C1730 H1720 0.950 . S
C1730 C1731 1.386 . S
C1730 C1732 1.391 . S
C1731 C1730 1.386 . S
C1731 C1735 1.393 . S
C1732 H1721 0.950 . S
C1732 C1730 1.391 . S
C1732 C1733 1.400 . S
C1733 C1727 1.491 . S
C1733 C1732 1.400 . S
C1733 C1734 1.398 . S
C1734 H1722 0.950 . S
C1734 C1733 1.398 . S
C1734 C1735 1.391 . S
C1735 H1723 0.950 . S
C1735 C1731 1.393 . S
C1735 C1734 1.391 . S
H1736 C1744 0.950 . S
H1737 C1749 0.950 . S
H1738 C1746 0.950 . S
H1739 C1748 0.950 . S
H1740 C1750 0.950 . S
H1741 C1752 0.950 . S
H1742 C1754 0.950 . S
H1743 C1755 0.950 . S
C1744 H1736 0.950 . S
C1744 C1745 1.386 . S
C1744 C1746 1.391 . S
C1745 C1744 1.386 . S
C1745 C1749 1.393 . S
C1746 H1738 0.950 . S
C1746 C1744 1.391 . S
C1746 C1747 1.400 . S
C1747 C1746 1.400 . S
C1747 C1748 1.398 . S
C1747 C1753 1.491 . S
C1748 H1739 0.950 . S
C1748 C1747 1.398 . S
C1748 C1749 1.391 . S
C1749 H1737 0.950 . S
C1749 C1745 1.393 . S
C1749 C1748 1.391 . S
C1750 H1740 0.950 . S
C1750 C1751 1.386 . S
C1750 C1752 1.391 . S
C1751 C1750 1.386 . S
C1751 C1755 1.393 . S
C1752 H1741 0.950 . S
C1752 C1750 1.391 . S
C1752 C1753 1.400 . S
C1753 C1747 1.491 . S
C1753 C1752 1.400 . S
C1753 C1754 1.398 . S
C1754 H1742 0.950 . S
C1754 C1753 1.398 . S
C1754 C1755 1.391 . S
C1755 H1743 0.950 . S
C1755 C1751 1.393 . S
C1755 C1754 1.391 . S
H1756 C1764 0.950 . S
H1757 C1769 0.950 . S
H1758 C1766 0.950 . S
H1759 C1768 0.950 . S
H1760 C1770 0.950 . S
H1761 C1772 0.950 . S
H1762 C1774 0.950 . S
H1763 C1775 0.950 . S
C1764 H1756 0.950 . S
C1764 C1765 1.386 . S
C1764 C1766 1.391 . S
C1765 C1764 1.386 . S
C1765 C1769 1.393 . S
C1766 H1758 0.950 . S
C1766 C1764 1.391 . S
C1766 C1767 1.400 . S
C1767 C1766 1.400 . S
C1767 C1768 1.398 . S
C1767 C1773 1.491 . S
C1768 H1759 0.950 . S
C1768 C1767 1.398 . S
C1768 C1769 1.391 . S
C1769 H1757 0.950 . S
C1769 C1765 1.393 . S
C1769 C1768 1.391 . S
C1770 H1760 0.950 . S
C1770 C1771 1.386 . S
C1770 C1772 1.391 . S
C1771 C1770 1.386 . S
C1771 C1775 1.393 . S
C1772 H1761 0.950 . S
C1772 C1770 1.391 . S
C1772 C1773 1.400 . S
C1773 C1767 1.491 . S
C1773 C1772 1.400 . S
C1773 C1774 1.398 . S
C1774 H1762 0.950 . S
C1774 C1773 1.398 . S
C1774 C1775 1.391 . S
C1775 H1763 0.950 . S
C1775 C1771 1.393 . S
C1775 C1774 1.391 . S
H1776 C1784 0.950 . S
H1777 C1789 0.950 . S
H1778 C1786 0.950 . S
H1779 C1788 0.950 . S
H1780 C1790 0.950 . S
H1781 C1792 0.950 . S
H1782 C1794 0.950 . S
H1783 C1795 0.950 . S
C1784 H1776 0.950 . S
C1784 C1785 1.386 . S
C1784 C1786 1.391 . S
C1785 C1784 1.386 . S
C1785 C1789 1.393 . S
C1786 H1778 0.950 . S
C1786 C1784 1.391 . S
C1786 C1787 1.400 . S
C1787 C1786 1.400 . S
C1787 C1788 1.398 . S
C1787 C1793 1.491 . S
C1788 H1779 0.950 . S
C1788 C1787 1.398 . S
C1788 C1789 1.391 . S
C1789 H1777 0.950 . S
C1789 C1785 1.393 . S
C1789 C1788 1.391 . S
C1790 H1780 0.950 . S
C1790 C1791 1.386 . S
C1790 C1792 1.391 . S
C1791 C1790 1.386 . S
C1791 C1795 1.393 . S
C1792 H1781 0.950 . S
C1792 C1790 1.391 . S
C1792 C1793 1.400 . S
C1793 C1787 1.491 . S
C1793 C1792 1.400 . S
C1793 C1794 1.398 . S
C1794 H1782 0.950 . S
C1794 C1793 1.398 . S
C1794 C1795 1.391 . S
C1795 H1783 0.950 . S
C1795 C1791 1.393 . S
C1795 C1794 1.391 . S
H1796 C1804 0.950 . S
H1797 C1809 0.950 . S
H1798 C1806 0.950 . S
H1799 C1808 0.950 . S
H1800 C1810 0.950 . S
H1801 C1812 0.950 . S
H1802 C1814 0.950 . S
H1803 C1815 0.950 . S
C1804 H1796 0.950 . S
C1804 C1805 1.386 . S
C1804 C1806 1.391 . S
C1805 C1804 1.386 . S
C1805 C1809 1.393 . S
C1806 H1798 0.950 . S
C1806 C1804 1.391 . S
C1806 C1807 1.400 . S
C1807 C1806 1.400 . S
C1807 C1808 1.398 . S
C1807 C1813 1.491 . S
C1808 H1799 0.950 . S
C1808 C1807 1.398 . S
C1808 C1809 1.391 . S
C1809 H1797 0.950 . S
C1809 C1805 1.393 . S
C1809 C1808 1.391 . S
C1810 H1800 0.950 . S
C1810 C1811 1.386 . S
C1810 C1812 1.391 . S
C1811 C1810 1.386 . S
C1811 C1815 1.393 . S
C1812 H1801 0.950 . S
C1812 C1810 1.391 . S
C1812 C1813 1.400 . S
C1813 C1807 1.491 . S
C1813 C1812 1.400 . S
C1813 C1814 1.398 . S
C1814 H1802 0.950 . S
C1814 C1813 1.398 . S
C1814 C1815 1.391 . S
C1815 H1803 0.950 . S
C1815 C1811 1.393 . S
C1815 C1814 1.391 . S
H1816 C1824 0.950 . S
H1817 C1829 0.950 . S
H1818 C1826 0.950 . S
H1819 C1828 0.950 . S
H1820 C1830 0.950 . S
H1821 C1832 0.950 . S
H1822 C1834 0.950 . S
H1823 C1835 0.950 . S
C1824 H1816 0.950 . S
C1824 C1825 1.386 . S
C1824 C1826 1.391 . S
C1825 C1824 1.386 . S
C1825 C1829 1.393 . S
C1826 H1818 0.950 . S
C1826 C1824 1.391 . S
C1826 C1827 1.400 . S
C1827 C1826 1.400 . S
C1827 C1828 1.398 . S
C1827 C1833 1.491 . S
C1828 H1819 0.950 . S
C1828 C1827 1.398 . S
C1828 C1829 1.391 . S
C1829 H1817 0.950 . S
C1829 C1825 1.393 . S
C1829 C1828 1.391 . S
C1830 H1820 0.950 . S
C1830 C1831 1.386 . S
C1830 C1832 1.391 . S
C1831 C1830 1.386 . S
C1831 C1835 1.393 . S
C1832 H1821 0.950 . S
C1832 C1830 1.391 . S
C1832 C1833 1.400 . S
C1833 C1827 1.491 . S
C1833 C1832 1.400 . S
C1833 C1834 1.398 . S
C1834 H1822 0.950 . S
C1834 C1833 1.398 . S
C1834 C1835 1.391 . S
C1835 H1823 0.950 . S
C1835 C1831 1.393 . S
C1835 C1834 1.391 . S
H1836 C1844 0.950 . S
H1837 C1849 0.950 . S
H1838 C1846 0.950 . S
H1839 C1848 0.950 . S
H1840 C1850 0.950 . S
H1841 C1852 0.950 . S
H1842 C1854 0.950 . S
H1843 C1855 0.950 . S
C1844 H1836 0.950 . S
C1844 C1845 1.386 . S
C1844 C1846 1.391 . S
C1845 C1844 1.386 . S
C1845 C1849 1.393 . S
C1846 H1838 0.950 . S
C1846 C1844 1.391 . S
C1846 C1847 1.400 . S
C1847 C1846 1.400 . S
C1847 C1848 1.398 . S
C1847 C1853 1.491 . S
C1848 H1839 0.950 . S
C1848 C1847 1.398 . S
C1848 C1849 1.391 . S
C1849 H1837 0.950 . S
C1849 C1845 1.393 . S
C1849 C1848 1.391 . S
C1850 H1840 0.950 . S
C1850 C1851 1.386 . S
C1850 C1852 1.391 . S
C1851 C1850 1.386 . S
C1851 C1855 1.393 . S
C1852 H1841 0.950 . S
C1852 C1850 1.391 . S
C1852 C1853 1.400 . S
C1853 C1847 1.491 . S
C1853 C1852 1.400 . S
C1853 C1854 1.398 . S
C1854 H1842 0.950 . S
C1854 C1853 1.398 . S
C1854 C1855 1.391 . S
C1855 H1843 0.950 . S
C1855 C1851 1.393 . S
C1855 C1854 1.391 . S
H1856 C1864 0.950 . S
H1857 C1869 0.950 . S
H1858 C1866 0.950 . S
H1859 C1868 0.950 . S
H1860 C1870 0.950 . S
H1861 C1872 0.950 . S
H1862 C1874 0.950 . S
H1863 C1875 0.950 . S
C1864 H1856 0.950 . S
C1864 C1865 1.386 . S
C1864 C1866 1.391 . S
C1865 C1864 1.386 . S
C1865 C1869 1.393 . S
C1866 H1858 0.950 . S
C1866 C1864 1.391 . S
C1866 C1867 1.400 . S
C1867 C1866 1.400 . S
C1867 C1868 1.398 . S
C1867 C1873 1.491 . S
C1868 H1859 0.950 . S
C1868 C1867 1.398 . S
C1868 C1869 1.391 . S
C1869 H1857 0.950 . S
C1869 C1865 1.393 . S
C1869 C1868 1.391 . S
C1870 H1860 0.950 . S
C1870 C1871 1.386 . S
C1870 C1872 1.391 . S
C1871 C1870 1.386 . S
C1871 C1875 1.393 . S
C1872 H1861 0.950 . S
C1872 C1870 1.391 . S
C1872 C1873 1.400 . S
C1873 C1867 1.491 . S
C1873 C1872 1.400 . S
C1873 C1874 1.398 . S
C1874 H1862 0.950 . S
C1874 C1873 1.398 . S
C1874 C1875 1.391 . S
C1875 H1863 0.950 . S
C1875 C1871 1.393 . S
C1875 C1874 1.391 . S
H1876 C1884 0.950 . S
H1877 C1889 0.950 . S
H1878 C1886 0.950 . S
H1879 C1888 0.950 . S
H1880 C1890 0.950 . S
H1881 C1892 0.950 . S
H1882 C1894 0.950 . S
H1883 C1895 0.950 . S
C1884 H1876 0.950 . S
C1884 C1885 1.386 . S
C1884 C1886 1.391 . S
C1885 C1884 1.386 . S
C1885 C1889 1.393 . S
C1886 H1878 0.950 . S
C1886 C1884 1.391 . S
C1886 C1887 1.400 . S
C1887 C1886 1.400 . S
C1887 C1888 1.398 . S
C1887 C1893 1.491 . S
C1888 H1879 0.950 . S
C1888 C1887 1.398 . S
C1888 C1889 1.391 . S
C1889 H1877 0.950 . S
C1889 C1885 1.393 . S
C1889 C1888 1.391 . S
C1890 H1880 0.950 . S
C1890 C1891 1.386 . S
C1890 C1892 1.391 . S
C1891 C1890 1.386 . S
C1891 C1895 1.393 . S
C1892 H1881 0.950 . S
C1892 C1890 1.391 . S
C1892 C1893 1.400 . S
C1893 C1887 1.491 . S
C1893 C1892 1.400 . S
C1893 C1894 1.398 . S
C1894 H1882 0.950 . S
C1894 C1893 1.398 . S
C1894 C1895 1.391 . S
C1895 H1883 0.950 . S
C1895 C1891 1.393 . S
C1895 C1894 1.391 . S
H1896 C1904 0.950 . S
H1897 C1909 0.950 . S
H1898 C1906 0.950 . S
H1899 C1908 0.950 . S
H1900 C1910 0.950 . S
H1901 C1912 0.950 . S
H1902 C1914 0.950 . S
H1903 C1915 0.950 . S
C1904 H1896 0.950 . S
C1904 C1905 1.386 . S
C1904 C1906 1.391 . S
C1905 C1904 1.386 . S
C1905 C1909 1.393 . S
C1906 H1898 0.950 . S
C1906 C1904 1.391 . S
C1906 C1907 1.400 . S
C1907 C1906 1.400 . S
C1907 C1908 1.398 . S
C1907 C1913 1.491 1_554 S
C1908 H1899 0.950 . S
C1908 C1907 1.398 . S
C1908 C1909 1.391 . S
C1909 H1897 0.950 . S
C1909 C1905 1.393 . S
C1909 C1908 1.391 . S
C1910 H1900 0.950 . S
C1910 C1911 1.386 . S
C1910 C1912 1.391 . S
C1911 C1910 1.386 . S
C1911 C1915 1.393 . S
C1912 H1901 0.950 . S
C1912 C1910 1.391 . S
C1912 C1913 1.400 . S
C1913 C1907 1.491 1_556 S
C1913 C1912 1.400 . S
C1913 C1914 1.398 . S
C1914 H1902 0.950 . S
C1914 C1913 1.398 . S
C1914 C1915 1.391 . S
C1915 H1903 0.950 . S
C1915 C1911 1.393 . S
C1915 C1914 1.391 . S
H1916 C1924 0.950 . S
H1917 C1929 0.950 . S
H1918 C1926 0.950 . S
H1919 C1928 0.950 . S
H1920 C1930 0.950 . S
H1921 C1932 0.950 . S
H1922 C1934 0.950 . S
H1923 C1935 0.950 . S
C1924 H1916 0.950 . S
C1924 C1925 1.386 . S
C1924 C1926 1.391 . S
C1925 C1924 1.386 . S
C1925 C1929 1.393 . S
C1926 H1918 0.950 . S
C1926 C1924 1.391 . S
C1926 C1927 1.400 . S
C1927 C1926 1.400 . S
C1927 C1928 1.398 . S
C1927 C1933 1.491 1_556 S
C1928 H1919 0.950 . S
C1928 C1927 1.398 . S
C1928 C1929 1.391 . S
C1929 H1917 0.950 . S
C1929 C1925 1.393 . S
C1929 C1928 1.391 . S
C1930 H1920 0.950 . S
C1930 C1931 1.386 . S
C1930 C1932 1.391 . S
C1931 C1930 1.386 . S
C1931 C1935 1.393 . S
C1932 H1921 0.950 . S
C1932 C1930 1.391 . S
C1932 C1933 1.400 . S
C1933 C1927 1.491 1_554 S
C1933 C1932 1.400 . S
C1933 C1934 1.398 . S
C1934 H1922 0.950 . S
C1934 C1933 1.398 . S
C1934 C1935 1.391 . S
C1935 H1923 0.950 . S
C1935 C1931 1.393 . S
C1935 C1934 1.391 . S
H1936 C1944 0.950 . S
H1937 C1949 0.950 . S
H1938 C1946 0.950 . S
H1939 C1948 0.950 . S
H1940 C1950 0.950 . S
H1941 C1952 0.950 . S
H1942 C1954 0.950 . S
H1943 C1955 0.950 . S
C1944 H1936 0.950 . S
C1944 C1945 1.386 . S
C1944 C1946 1.391 . S
C1945 C1944 1.386 . S
C1945 C1949 1.393 . S
C1946 H1938 0.950 . S
C1946 C1944 1.391 . S
C1946 C1947 1.400 . S
C1947 C1946 1.400 . S
C1947 C1948 1.398 . S
C1947 C1953 1.491 1_556 S
C1948 H1939 0.950 . S
C1948 C1947 1.398 . S
C1948 C1949 1.391 . S
C1949 H1937 0.950 . S
C1949 C1945 1.393 . S
C1949 C1948 1.391 . S
C1950 H1940 0.950 . S
C1950 C1951 1.386 . S
C1950 C1952 1.391 . S
C1951 C1950 1.386 . S
C1951 C1955 1.393 . S
C1952 H1941 0.950 . S
C1952 C1950 1.391 . S
C1952 C1953 1.400 . S
C1953 C1947 1.491 1_554 S
C1953 C1952 1.400 . S
C1953 C1954 1.398 . S
C1954 H1942 0.950 . S
C1954 C1953 1.398 . S
C1954 C1955 1.391 . S
C1955 H1943 0.950 . S
C1955 C1951 1.393 . S
C1955 C1954 1.391 . S
H1956 C1964 0.950 . S
H1957 C1969 0.950 . S
H1958 C1966 0.950 . S
H1959 C1968 0.950 . S
H1960 C1970 0.950 . S
H1961 C1972 0.950 . S
H1962 C1974 0.950 . S
H1963 C1975 0.950 . S
C1964 H1956 0.950 . S
C1964 C1965 1.386 . S
C1964 C1966 1.391 . S
C1965 C1964 1.386 . S
C1965 C1969 1.393 . S
C1966 H1958 0.950 . S
C1966 C1964 1.391 . S
C1966 C1967 1.400 . S
C1967 C1966 1.400 . S
C1967 C1968 1.398 . S
C1967 C1973 1.491 1_554 S
C1968 H1959 0.950 . S
C1968 C1967 1.398 . S
C1968 C1969 1.391 . S
C1969 H1957 0.950 . S
C1969 C1965 1.393 . S
C1969 C1968 1.391 . S
C1970 H1960 0.950 . S
C1970 C1971 1.386 . S
C1970 C1972 1.391 . S
C1971 C1970 1.386 . S
C1971 C1975 1.393 . S
C1972 H1961 0.950 . S
C1972 C1970 1.391 . S
C1972 C1973 1.400 . S
C1973 C1967 1.491 1_556 S
C1973 C1972 1.400 . S
C1973 C1974 1.398 . S
C1974 H1962 0.950 . S
C1974 C1973 1.398 . S
C1974 C1975 1.391 . S
C1975 H1963 0.950 . S
C1975 C1971 1.393 . S
C1975 C1974 1.391 . S
H1976 C1984 0.950 . S
H1977 C1989 0.950 . S
H1978 C1986 0.950 . S
H1979 C1988 0.950 . S
H1980 C1990 0.950 . S
H1981 C1992 0.950 . S
H1982 C1994 0.950 . S
H1983 C1995 0.950 . S
C1984 H1976 0.950 . S
C1984 C1985 1.386 . S
C1984 C1986 1.391 . S
C1985 C1984 1.386 . S
C1985 C1989 1.393 . S
C1986 H1978 0.950 . S
C1986 C1984 1.391 . S
C1986 C1987 1.400 . S
C1987 C1986 1.400 . S
C1987 C1988 1.398 . S
C1987 C1993 1.491 1_554 S
C1988 H1979 0.950 . S
C1988 C1987 1.398 . S
C1988 C1989 1.391 . S
C1989 H1977 0.950 . S
C1989 C1985 1.393 . S
C1989 C1988 1.391 . S
C1990 H1980 0.950 . S
C1990 C1991 1.386 . S
C1990 C1992 1.391 . S
C1991 C1990 1.386 . S
C1991 C1995 1.393 . S
C1992 H1981 0.950 . S
C1992 C1990 1.391 . S
C1992 C1993 1.400 . S
C1993 C1987 1.491 1_556 S
C1993 C1992 1.400 . S
C1993 C1994 1.398 . S
C1994 H1982 0.950 . S
C1994 C1993 1.398 . S
C1994 C1995 1.391 . S
C1995 H1983 0.950 . S
C1995 C1991 1.393 . S
C1995 C1994 1.391 . S
H1996 C2004 0.950 . S
H1997 C2009 0.950 . S
H1998 C2006 0.950 . S
H1999 C2008 0.950 . S
H2000 C2010 0.950 . S
H2001 C2012 0.950 . S
H2002 C2014 0.950 . S
H2003 C2015 0.950 . S
C2004 H1996 0.950 . S
C2004 C2005 1.386 . S
C2004 C2006 1.391 . S
C2005 C2004 1.386 . S
C2005 C2009 1.393 . S
C2006 H1998 0.950 . S
C2006 C2004 1.391 . S
C2006 C2007 1.400 . S
C2007 C2006 1.400 . S
C2007 C2008 1.398 . S
C2007 C2013 1.491 1_556 S
C2008 H1999 0.950 . S
C2008 C2007 1.398 . S
C2008 C2009 1.391 . S
C2009 H1997 0.950 . S
C2009 C2005 1.393 . S
C2009 C2008 1.391 . S
C2010 H2000 0.950 . S
C2010 C2011 1.386 . S
C2010 C2012 1.391 . S
C2011 C2010 1.386 . S
C2011 C2015 1.393 . S
C2012 H2001 0.950 . S
C2012 C2010 1.391 . S
C2012 C2013 1.400 . S
C2013 C2007 1.491 1_554 S
C2013 C2012 1.400 . S
C2013 C2014 1.398 . S
C2014 H2002 0.950 . S
C2014 C2013 1.398 . S
C2014 C2015 1.391 . S
C2015 H2003 0.950 . S
C2015 C2011 1.393 . S
C2015 C2014 1.391 . S
H2016 C2024 0.950 . S
H2017 C2029 0.950 . S
H2018 C2026 0.950 . S
H2019 C2028 0.950 . S
H2020 C2030 0.950 . S
H2021 C2032 0.950 . S
H2022 C2034 0.950 . S
H2023 C2035 0.950 . S
C2024 H2016 0.950 . S
C2024 C2025 1.386 . S
C2024 C2026 1.391 . S
C2025 C2024 1.386 . S
C2025 C2029 1.393 . S
C2026 H2018 0.950 . S
C2026 C2024 1.391 . S
C2026 C2027 1.400 . S
C2027 C2026 1.400 . S
C2027 C2028 1.398 . S
C2027 C2033 1.491 . S
C2028 H2019 0.950 . S
C2028 C2027 1.398 . S
C2028 C2029 1.391 . S
C2029 H2017 0.950 . S
C2029 C2025 1.393 . S
C2029 C2028 1.391 . S
C2030 H2020 0.950 . S
C2030 C2031 1.386 . S
C2030 C2032 1.391 . S
C2031 C2030 1.386 . S
C2031 C2035 1.393 . S
C2032 H2021 0.950 . S
C2032 C2030 1.391 . S
C2032 C2033 1.400 . S
C2033 C2027 1.491 . S
C2033 C2032 1.400 . S
C2033 C2034 1.398 . S
C2034 H2022 0.950 . S
C2034 C2033 1.398 . S
C2034 C2035 1.391 . S
C2035 H2023 0.950 . S
C2035 C2031 1.393 . S
C2035 C2034 1.391 . S
H2036 C2044 0.950 . S
H2037 C2049 0.950 . S
H2038 C2046 0.950 . S
H2039 C2048 0.950 . S
H2040 C2050 0.950 . S
H2041 C2052 0.950 . S
H2042 C2054 0.950 . S
H2043 C2055 0.950 . S
C2044 H2036 0.950 . S
C2044 C2045 1.386 . S
C2044 C2046 1.391 . S
C2045 C2044 1.386 . S
C2045 C2049 1.393 . S
C2046 H2038 0.950 . S
C2046 C2044 1.391 . S
C2046 C2047 1.400 . S
C2047 C2046 1.400 . S
C2047 C2048 1.398 . S
C2047 C2053 1.491 . S
C2048 H2039 0.950 . S
C2048 C2047 1.398 . S
C2048 C2049 1.391 . S
C2049 H2037 0.950 . S
C2049 C2045 1.393 . S
C2049 C2048 1.391 . S
C2050 H2040 0.950 . S
C2050 C2051 1.386 . S
C2050 C2052 1.391 . S
C2051 C2050 1.386 . S
C2051 C2055 1.393 . S
C2052 H2041 0.950 . S
C2052 C2050 1.391 . S
C2052 C2053 1.400 . S
C2053 C2047 1.491 . S
C2053 C2052 1.400 . S
C2053 C2054 1.398 . S
C2054 H2042 0.950 . S
C2054 C2053 1.398 . S
C2054 C2055 1.391 . S
C2055 H2043 0.950 . S
C2055 C2051 1.393 . S
C2055 C2054 1.391 . S
H2056 C2064 0.950 . S
H2057 C2069 0.950 . S
H2058 C2066 0.950 . S
H2059 C2068 0.950 . S
H2060 C2070 0.950 . S
H2061 C2072 0.950 . S
H2062 C2074 0.950 . S
H2063 C2075 0.950 . S
C2064 H2056 0.950 . S
C2064 C2065 1.386 . S
C2064 C2066 1.391 . S
C2065 C2064 1.386 . S
C2065 C2069 1.393 . S
C2066 H2058 0.950 . S
C2066 C2064 1.391 . S
C2066 C2067 1.400 . S
C2067 C2066 1.400 . S
C2067 C2068 1.398 . S
C2067 C2073 1.491 . S
C2068 H2059 0.950 . S
C2068 C2067 1.398 . S
C2068 C2069 1.391 . S
C2069 H2057 0.950 . S
C2069 C2065 1.393 . S
C2069 C2068 1.391 . S
C2070 H2060 0.950 . S
C2070 C2071 1.386 . S
C2070 C2072 1.391 . S
C2071 C2070 1.386 . S
C2071 C2075 1.393 . S
C2072 H2061 0.950 . S
C2072 C2070 1.391 . S
C2072 C2073 1.400 . S
C2073 C2067 1.491 . S
C2073 C2072 1.400 . S
C2073 C2074 1.398 . S
C2074 H2062 0.950 . S
C2074 C2073 1.398 . S
C2074 C2075 1.391 . S
C2075 H2063 0.950 . S
C2075 C2071 1.393 . S
C2075 C2074 1.391 . S
H2076 C2084 0.950 . S
H2077 C2089 0.950 . S
H2078 C2086 0.950 . S
H2079 C2088 0.950 . S
H2080 C2090 0.950 . S
H2081 C2092 0.950 . S
H2082 C2094 0.950 . S
H2083 C2095 0.950 . S
C2084 H2076 0.950 . S
C2084 C2085 1.386 . S
C2084 C2086 1.391 . S
C2085 C2084 1.386 . S
C2085 C2089 1.393 . S
C2086 H2078 0.950 . S
C2086 C2084 1.391 . S
C2086 C2087 1.400 . S
C2087 C2086 1.400 . S
C2087 C2088 1.398 . S
C2087 C2093 1.491 . S
C2088 H2079 0.950 . S
C2088 C2087 1.398 . S
C2088 C2089 1.391 . S
C2089 H2077 0.950 . S
C2089 C2085 1.393 . S
C2089 C2088 1.391 . S
C2090 H2080 0.950 . S
C2090 C2091 1.386 . S
C2090 C2092 1.391 . S
C2091 C2090 1.386 . S
C2091 C2095 1.393 . S
C2092 H2081 0.950 . S
C2092 C2090 1.391 . S
C2092 C2093 1.400 . S
C2093 C2087 1.491 . S
C2093 C2092 1.400 . S
C2093 C2094 1.398 . S
C2094 H2082 0.950 . S
C2094 C2093 1.398 . S
C2094 C2095 1.391 . S
C2095 H2083 0.950 . S
C2095 C2091 1.393 . S
C2095 C2094 1.391 . S
H2096 C2104 0.950 . S
H2097 C2109 0.950 . S
H2098 C2106 0.950 . S
H2099 C2108 0.950 . S
H2100 C2110 0.950 . S
H2101 C2112 0.950 . S
H2102 C2114 0.950 . S
H2103 C2115 0.950 . S
C2104 H2096 0.950 . S
C2104 C2105 1.386 . S
C2104 C2106 1.391 . S
C2105 C2104 1.386 . S
C2105 C2109 1.393 . S
C2106 H2098 0.950 . S
C2106 C2104 1.391 . S
C2106 C2107 1.400 . S
C2107 C2106 1.400 . S
C2107 C2108 1.398 . S
C2107 C2113 1.491 . S
C2108 H2099 0.950 . S
C2108 C2107 1.398 . S
C2108 C2109 1.391 . S
C2109 H2097 0.950 . S
C2109 C2105 1.393 . S
C2109 C2108 1.391 . S
C2110 H2100 0.950 . S
C2110 C2111 1.386 . S
C2110 C2112 1.391 . S
C2111 C2110 1.386 . S
C2111 C2115 1.393 . S
C2112 H2101 0.950 . S
C2112 C2110 1.391 . S
C2112 C2113 1.400 . S
C2113 C2107 1.491 . S
C2113 C2112 1.400 . S
C2113 C2114 1.398 . S
C2114 H2102 0.950 . S
C2114 C2113 1.398 . S
C2114 C2115 1.391 . S
C2115 H2103 0.950 . S
C2115 C2111 1.393 . S
C2115 C2114 1.391 . S
H2116 C2124 0.950 . S
H2117 C2129 0.950 . S
H2118 C2126 0.950 . S
H2119 C2128 0.950 . S
H2120 C2130 0.950 . S
H2121 C2132 0.950 . S
H2122 C2134 0.950 . S
H2123 C2135 0.950 . S
C2124 H2116 0.950 . S
C2124 C2125 1.386 . S
C2124 C2126 1.391 . S
C2125 C2124 1.386 . S
C2125 C2129 1.393 . S
C2126 H2118 0.950 . S
C2126 C2124 1.391 . S
C2126 C2127 1.400 . S
C2127 C2126 1.400 . S
C2127 C2128 1.398 . S
C2127 C2133 1.491 . S
C2128 H2119 0.950 . S
C2128 C2127 1.398 . S
C2128 C2129 1.391 . S
C2129 H2117 0.950 . S
C2129 C2125 1.393 . S
C2129 C2128 1.391 . S
C2130 H2120 0.950 . S
C2130 C2131 1.386 . S
C2130 C2132 1.391 . S
C2131 C2130 1.386 . S
C2131 C2135 1.393 . S
C2132 H2121 0.950 . S
C2132 C2130 1.391 . S
C2132 C2133 1.400 . S
C2133 C2127 1.491 . S
C2133 C2132 1.400 . S
C2133 C2134 1.398 . S
C2134 H2122 0.950 . S
C2134 C2133 1.398 . S
C2134 C2135 1.391 . S
C2135 H2123 0.950 . S
C2135 C2131 1.393 . S
C2135 C2134 1.391 . S
H2136 C2144 0.950 . S
H2137 C2149 0.950 . S
H2138 C2146 0.950 . S
H2139 C2148 0.950 . S
H2140 C2150 0.950 . S
H2141 C2152 0.950 . S
H2142 C2154 0.950 . S
H2143 C2155 0.950 . S
C2144 H2136 0.950 . S
C2144 C2145 1.386 . S
C2144 C2146 1.391 . S
C2145 C2144 1.386 . S
C2145 C2149 1.393 . S
C2146 H2138 0.950 . S
C2146 C2144 1.391 . S
C2146 C2147 1.400 . S
C2147 C2146 1.400 . S
C2147 C2148 1.398 . S
C2147 C2153 1.491 . S
C2148 H2139 0.950 . S
C2148 C2147 1.398 . S
C2148 C2149 1.391 . S
C2149 H2137 0.950 . S
C2149 C2145 1.393 . S
C2149 C2148 1.391 . S
C2150 H2140 0.950 . S
C2150 C2151 1.386 . S
C2150 C2152 1.391 . S
C2151 C2150 1.386 . S
C2151 C2155 1.393 . S
C2152 H2141 0.950 . S
C2152 C2150 1.391 . S
C2152 C2153 1.400 . S
C2153 C2147 1.491 . S
C2153 C2152 1.400 . S
C2153 C2154 1.398 . S
C2154 H2142 0.950 . S
C2154 C2153 1.398 . S
C2154 C2155 1.391 . S
C2155 H2143 0.950 . S
C2155 C2151 1.393 . S
C2155 C2154 1.391 . S
H2156 C2164 0.950 . S
H2157 C2169 0.950 . S
H2158 C2166 0.950 . S
H2159 C2168 0.950 . S
H2160 C2170 0.950 . S
H2161 C2172 0.950 . S
H2162 C2174 0.950 . S
H2163 C2175 0.950 . S
C2164 H2156 0.950 . S
C2164 C2165 1.386 . S
C2164 C2166 1.391 . S
C2165 C2164 1.386 . S
C2165 C2169 1.393 . S
C2166 H2158 0.950 . S
C2166 C2164 1.391 . S
C2166 C2167 1.400 . S
C2167 C2166 1.400 . S
C2167 C2168 1.398 . S
C2167 C2173 1.491 . S
C2168 H2159 0.950 . S
C2168 C2167 1.398 . S
C2168 C2169 1.391 . S
C2169 H2157 0.950 . S
C2169 C2165 1.393 . S
C2169 C2168 1.391 . S
C2170 H2160 0.950 . S
C2170 C2171 1.386 . S
C2170 C2172 1.391 . S
C2171 C2170 1.386 . S
C2171 C2175 1.393 . S
C2172 H2161 0.950 . S
C2172 C2170 1.391 . S
C2172 C2173 1.400 . S
C2173 C2167 1.491 . S
C2173 C2172 1.400 . S
C2173 C2174 1.398 . S
C2174 H2162 0.950 . S
C2174 C2173 1.398 . S
C2174 C2175 1.391 . S
C2175 H2163 0.950 . S
C2175 C2171 1.393 . S
C2175 C2174 1.391 . S
H2176 C2184 0.950 . S
H2177 C2189 0.950 . S
H2178 C2186 0.950 . S
H2179 C2188 0.950 . S
H2180 C2190 0.950 . S
H2181 C2192 0.950 . S
H2182 C2194 0.950 . S
H2183 C2195 0.950 . S
C2184 H2176 0.950 . S
C2184 C2185 1.386 . S
C2184 C2186 1.391 . S
C2185 C2184 1.386 . S
C2185 C2189 1.393 . S
C2186 H2178 0.950 . S
C2186 C2184 1.391 . S
C2186 C2187 1.400 . S
C2187 C2186 1.400 . S
C2187 C2188 1.398 . S
C2187 C2193 1.491 . S
C2188 H2179 0.950 . S
C2188 C2187 1.398 . S
C2188 C2189 1.391 . S
C2189 H2177 0.950 . S
C2189 C2185 1.393 . S
C2189 C2188 1.391 . S
C2190 H2180 0.950 . S
C2190 C2191 1.386 . S
C2190 C2192 1.391 . S
C2191 C2190 1.386 . S
C2191 C2195 1.393 . S
C2192 H2181 0.950 . S
C2192 C2190 1.391 . S
C2192 C2193 1.400 . S
C2193 C2187 1.491 . S
C2193 C2192 1.400 . S
C2193 C2194 1.398 . S
C2194 H2182 0.950 . S
C2194 C2193 1.398 . S
C2194 C2195 1.391 . S
C2195 H2183 0.950 . S
C2195 C2191 1.393 . S
C2195 C2194 1.391 . S
H2196 C2204 0.950 . S
H2197 C2209 0.950 . S
H2198 C2206 0.950 . S
H2199 C2208 0.950 . S
H2200 C2210 0.950 . S
H2201 C2212 0.950 . S
H2202 C2214 0.950 . S
H2203 C2215 0.950 . S
C2204 H2196 0.950 . S
C2204 C2205 1.386 . S
C2204 C2206 1.391 . S
C2205 C2204 1.386 . S
C2205 C2209 1.393 . S
C2206 H2198 0.950 . S
C2206 C2204 1.391 . S
C2206 C2207 1.400 . S
C2207 C2206 1.400 . S
C2207 C2208 1.398 . S
C2207 C2213 1.491 . S
C2208 H2199 0.950 . S
C2208 C2207 1.398 . S
C2208 C2209 1.391 . S
C2209 H2197 0.950 . S
C2209 C2205 1.393 . S
C2209 C2208 1.391 . S
C2210 H2200 0.950 . S
C2210 C2211 1.386 . S
C2210 C2212 1.391 . S
C2211 C2210 1.386 . S
C2211 C2215 1.393 . S
C2212 H2201 0.950 . S
C2212 C2210 1.391 . S
C2212 C2213 1.400 . S
C2213 C2207 1.491 . S
C2213 C2212 1.400 . S
C2213 C2214 1.398 . S
C2214 H2202 0.950 . S
C2214 C2213 1.398 . S
C2214 C2215 1.391 . S
C2215 H2203 0.950 . S
C2215 C2211 1.393 . S
C2215 C2214 1.391 . S
H2216 C2224 0.950 . S
H2217 C2229 0.950 . S
H2218 C2226 0.950 . S
H2219 C2228 0.950 . S
H2220 C2230 0.950 . S
H2221 C2232 0.950 . S
H2222 C2234 0.950 . S
H2223 C2235 0.950 . S
C2224 H2216 0.950 . S
C2224 C2225 1.386 . S
C2224 C2226 1.391 . S
C2225 C2224 1.386 . S
C2225 C2229 1.393 . S
C2226 H2218 0.950 . S
C2226 C2224 1.391 . S
C2226 C2227 1.400 . S
C2227 C2226 1.400 . S
C2227 C2228 1.398 . S
C2227 C2233 1.491 . S
C2228 H2219 0.950 . S
C2228 C2227 1.398 . S
C2228 C2229 1.391 . S
C2229 H2217 0.950 . S
C2229 C2225 1.393 . S
C2229 C2228 1.391 . S
C2230 H2220 0.950 . S
C2230 C2231 1.386 . S
C2230 C2232 1.391 . S
C2231 C2230 1.386 . S
C2231 C2235 1.393 . S
C2232 H2221 0.950 . S
C2232 C2230 1.391 . S
C2232 C2233 1.400 . S
C2233 C2227 1.491 . S
C2233 C2232 1.400 . S
C2233 C2234 1.398 . S
C2234 H2222 0.950 . S
C2234 C2233 1.398 . S
C2234 C2235 1.391 . S
C2235 H2223 0.950 . S
C2235 C2231 1.393 . S
C2235 C2234 1.391 . S
H2236 C2244 0.950 . S
H2237 C2249 0.950 . S
H2238 C2246 0.950 . S
H2239 C2248 0.950 . S
H2240 C2250 0.950 . S
H2241 C2252 0.950 . S
H2242 C2254 0.950 . S
H2243 C2255 0.950 . S
C2244 H2236 0.950 . S
C2244 C2245 1.386 . S
C2244 C2246 1.391 . S
C2245 C2244 1.386 . S
C2245 C2249 1.393 . S
C2246 H2238 0.950 . S
C2246 C2244 1.391 . S
C2246 C2247 1.400 . S
C2247 C2246 1.400 . S
C2247 C2248 1.398 . S
C2247 C2253 1.491 . S
C2248 H2239 0.950 . S
C2248 C2247 1.398 . S
C2248 C2249 1.391 . S
C2249 H2237 0.950 . S
C2249 C2245 1.393 . S
C2249 C2248 1.391 . S
C2250 H2240 0.950 . S
C2250 C2251 1.386 . S
C2250 C2252 1.391 . S
C2251 C2250 1.386 . S
C2251 C2255 1.393 . S
C2252 H2241 0.950 . S
C2252 C2250 1.391 . S
C2252 C2253 1.400 . S
C2253 C2247 1.491 . S
C2253 C2252 1.400 . S
C2253 C2254 1.398 . S
C2254 H2242 0.950 . S
C2254 C2253 1.398 . S
C2254 C2255 1.391 . S
C2255 H2243 0.950 . S
C2255 C2251 1.393 . S
C2255 C2254 1.391 . S
H2256 C2264 0.950 . S
H2257 C2269 0.950 . S
H2258 C2266 0.950 . S
H2259 C2268 0.950 . S
H2260 C2270 0.950 . S
H2261 C2272 0.950 . S
H2262 C2274 0.950 . S
H2263 C2275 0.950 . S
C2264 H2256 0.950 . S
C2264 C2265 1.386 . S
C2264 C2266 1.391 . S
C2265 C2264 1.386 . S
C2265 C2269 1.393 . S
C2266 H2258 0.950 . S
C2266 C2264 1.391 . S
C2266 C2267 1.400 . S
C2267 C2266 1.400 . S
C2267 C2268 1.398 . S
C2267 C2273 1.491 . S
C2268 H2259 0.950 . S
C2268 C2267 1.398 . S
C2268 C2269 1.391 . S
C2269 H2257 0.950 . S
C2269 C2265 1.393 . S
C2269 C2268 1.391 . S
C2270 H2260 0.950 . S
C2270 C2271 1.386 . S
C2270 C2272 1.391 . S
C2271 C2270 1.386 . S
C2271 C2275 1.393 . S
C2272 H2261 0.950 . S
C2272 C2270 1.391 . S
C2272 C2273 1.400 . S
C2273 C2267 1.491 . S
C2273 C2272 1.400 . S
C2273 C2274 1.398 . S
C2274 H2262 0.950 . S
C2274 C2273 1.398 . S
C2274 C2275 1.391 . S
C2275 H2263 0.950 . S
C2275 C2271 1.393 . S
C2275 C2274 1.391 . S
H2276 C2284 0.950 . S
H2277 C2289 0.950 . S
H2278 C2286 0.950 . S
H2279 C2288 0.950 . S
H2280 C2290 0.950 . S
H2281 C2292 0.950 . S
H2282 C2294 0.950 . S
H2283 C2295 0.950 . S
C2284 H2276 0.950 . S
C2284 C2285 1.386 . S
C2284 C2286 1.391 . S
C2285 C2284 1.386 . S
C2285 C2289 1.393 . S
C2286 H2278 0.950 . S
C2286 C2284 1.391 . S
C2286 C2287 1.400 . S
C2287 C2286 1.400 . S
C2287 C2288 1.398 . S
C2287 C2293 1.491 . S
C2288 H2279 0.950 . S
C2288 C2287 1.398 . S
C2288 C2289 1.391 . S
C2289 H2277 0.950 . S
C2289 C2285 1.393 . S
C2289 C2288 1.391 . S
C2290 H2280 0.950 . S
C2290 C2291 1.386 . S
C2290 C2292 1.391 . S
C2291 C2290 1.386 . S
C2291 C2295 1.393 . S
C2292 H2281 0.950 . S
C2292 C2290 1.391 . S
C2292 C2293 1.400 . S
C2293 C2287 1.491 . S
C2293 C2292 1.400 . S
C2293 C2294 1.398 . S
C2294 H2282 0.950 . S
C2294 C2293 1.398 . S
C2294 C2295 1.391 . S
C2295 H2283 0.950 . S
C2295 C2291 1.393 . S
C2295 C2294 1.391 . S
H2296 C2304 0.950 . S
H2297 C2309 0.950 . S
H2298 C2306 0.950 . S
H2299 C2308 0.950 . S
H2300 C2310 0.950 . S
H2301 C2312 0.950 . S
H2302 C2314 0.950 . S
H2303 C2315 0.950 . S
C2304 H2296 0.950 . S
C2304 C2305 1.386 . S
C2304 C2306 1.391 . S
C2305 C2304 1.386 . S
C2305 C2309 1.393 . S
C2306 H2298 0.950 . S
C2306 C2304 1.391 . S
C2306 C2307 1.400 . S
C2307 C2306 1.400 . S
C2307 C2308 1.398 . S
C2307 C2313 1.491 . S
C2308 H2299 0.950 . S
C2308 C2307 1.398 . S
C2308 C2309 1.391 . S
C2309 H2297 0.950 . S
C2309 C2305 1.393 . S
C2309 C2308 1.391 . S
C2310 H2300 0.950 . S
C2310 C2311 1.386 . S
C2310 C2312 1.391 . S
C2311 C2310 1.386 . S
C2311 C2315 1.393 . S
C2312 H2301 0.950 . S
C2312 C2310 1.391 . S
C2312 C2313 1.400 . S
C2313 C2307 1.491 . S
C2313 C2312 1.400 . S
C2313 C2314 1.398 . S
C2314 H2302 0.950 . S
C2314 C2313 1.398 . S
C2314 C2315 1.391 . S
C2315 H2303 0.950 . S
C2315 C2311 1.393 . S
C2315 C2314 1.391 . S
H2316 C2324 0.950 . S
H2317 C2329 0.950 . S
H2318 C2326 0.950 . S
H2319 C2328 0.950 . S
H2320 C2330 0.950 . S
H2321 C2332 0.950 . S
H2322 C2334 0.950 . S
H2323 C2335 0.950 . S
C2324 H2316 0.950 . S
C2324 C2325 1.386 . S
C2324 C2326 1.391 . S
C2325 C2324 1.386 . S
C2325 C2329 1.393 . S
C2326 H2318 0.950 . S
C2326 C2324 1.391 . S
C2326 C2327 1.400 . S
C2327 C2326 1.400 . S
C2327 C2328 1.398 . S
C2327 C2333 1.491 . S
C2328 H2319 0.950 . S
C2328 C2327 1.398 . S
C2328 C2329 1.391 . S
C2329 H2317 0.950 . S
C2329 C2325 1.393 . S
C2329 C2328 1.391 . S
C2330 H2320 0.950 . S
C2330 C2331 1.386 . S
C2330 C2332 1.391 . S
C2331 C2330 1.386 . S
C2331 C2335 1.393 . S
C2332 H2321 0.950 . S
C2332 C2330 1.391 . S
C2332 C2333 1.400 . S
C2333 C2327 1.491 . S
C2333 C2332 1.400 . S
C2333 C2334 1.398 . S
C2334 H2322 0.950 . S
C2334 C2333 1.398 . S
C2334 C2335 1.391 . S
C2335 H2323 0.950 . S
C2335 C2331 1.393 . S
C2335 C2334 1.391 . S
H2336 C2344 0.950 . S
H2337 C2349 0.950 . S
H2338 C2346 0.950 . S
H2339 C2348 0.950 . S
H2340 C2350 0.950 . S
H2341 C2352 0.950 . S
H2342 C2354 0.950 . S
H2343 C2355 0.950 . S
C2344 H2336 0.950 . S
C2344 C2345 1.386 . S
C2344 C2346 1.391 . S
C2345 C2344 1.386 . S
C2345 C2349 1.393 . S
C2346 H2338 0.950 . S
C2346 C2344 1.391 . S
C2346 C2347 1.400 . S
C2347 C2346 1.400 . S
C2347 C2348 1.398 . S
C2347 C2353 1.491 . S
C2348 H2339 0.950 . S
C2348 C2347 1.398 . S
C2348 C2349 1.391 . S
C2349 H2337 0.950 . S
C2349 C2345 1.393 . S
C2349 C2348 1.391 . S
C2350 H2340 0.950 . S
C2350 C2351 1.386 . S
C2350 C2352 1.391 . S
C2351 C2350 1.386 . S
C2351 C2355 1.393 . S
C2352 H2341 0.950 . S
C2352 C2350 1.391 . S
C2352 C2353 1.400 . S
C2353 C2347 1.491 . S
C2353 C2352 1.400 . S
C2353 C2354 1.398 . S
C2354 H2342 0.950 . S
C2354 C2353 1.398 . S
C2354 C2355 1.391 . S
C2355 H2343 0.950 . S
C2355 C2351 1.393 . S
C2355 C2354 1.391 . S
H2356 C2364 0.950 . S
H2357 C2369 0.950 . S
H2358 C2366 0.950 . S
H2359 C2368 0.950 . S
H2360 C2370 0.950 . S
H2361 C2372 0.950 . S
H2362 C2374 0.950 . S
H2363 C2375 0.950 . S
C2364 H2356 0.950 . S
C2364 C2365 1.386 . S
C2364 C2366 1.391 . S
C2365 C2364 1.386 . S
C2365 C2369 1.393 . S
C2366 H2358 0.950 . S
C2366 C2364 1.391 . S
C2366 C2367 1.400 . S
C2367 C2366 1.400 . S
C2367 C2368 1.398 . S
C2367 C2373 1.491 . S
C2368 H2359 0.950 . S
C2368 C2367 1.398 . S
C2368 C2369 1.391 . S
C2369 H2357 0.950 . S
C2369 C2365 1.393 . S
C2369 C2368 1.391 . S
C2370 H2360 0.950 . S
C2370 C2371 1.386 . S
C2370 C2372 1.391 . S
C2371 C2370 1.386 . S
C2371 C2375 1.393 . S
C2372 H2361 0.950 . S
C2372 C2370 1.391 . S
C2372 C2373 1.400 . S
C2373 C2367 1.491 . S
C2373 C2372 1.400 . S
C2373 C2374 1.398 . S
C2374 H2362 0.950 . S
C2374 C2373 1.398 . S
C2374 C2375 1.391 . S
C2375 H2363 0.950 . S
C2375 C2371 1.393 . S
C2375 C2374 1.391 . S
C1425 C52 1.782 . S
C1431 C465 1.782 . S
C1445 C524 1.788 . S
C1451 C111 1.789 . S
C1465 C170 1.786 . S
C1471 C583 1.786 . S
C1485 C229 1.782 . S
C1491 C642 1.781 . S
C1505 C701 1.784 . S
C1511 C288 1.785 . S
C1525 C347 1.787 . S
C1531 C406 1.787 . S
C1545 C760 1.787 . S
C1551 C1173 1.786 . S
C1565 C819 1.787 . S
C1571 C1232 1.787 . S
C1585 C1291 1.785 . S
C1591 C878 1.784 . S
C1605 C937 1.782 . S
C1611 C1350 1.782 . S
C1625 C996 1.785 . S
C1631 C1409 1.785 . S
C1645 C1114 1.785 . S
C1651 C1055 1.786 . S
C1665 C5 1.569 . S
C1671 C477 1.569 . S
C1685 C536 1.569 . S
C1691 C64 1.569 . S
C1705 C595 1.571 . S
C1711 C123 1.572 . S
C1725 C182 1.576 . S
C1731 C654 1.577 . S
C1745 C241 1.577 . S
C1751 C359 1.576 . S
C1765 C300 1.569 . S
C1771 C418 1.570 . S
C1785 C1185 1.572 . S
C1791 C713 1.573 . S
C1805 C772 1.570 . S
C1811 C1244 1.571 . S
C1825 C1303 1.573 . S
C1831 C831 1.572 . S
C1845 C1362 1.574 . S
C1851 C890 1.573 . S
C1865 C1067 1.570 . S
C1871 C949 1.571 . S
C1885 C1008 1.569 . S
C1891 C1126 1.569 . S
C1905 C3 1.636 . S
C1911 C888 1.645 . S
C1925 C947 1.634 . S
C1931 C62 1.646 . S
C1945 C1006 1.647 . S
C1951 C121 1.634 . S
C1965 C180 1.647 . S
C1971 C711 1.633 . S
C1985 C239 1.634 . S
C1991 C770 1.646 . S
C2005 C829 1.647 . S
C2011 C298 1.633 . S
C2025 C1242 1.633 . S
C2031 C357 1.647 . S
C2045 C1301 1.645 . S
C2051 C416 1.635 . S
C2065 C1360 1.644 . S
C2071 C475 1.637 . S
C2085 C1065 1.647 . S
C2091 C534 1.633 . S
C2105 C593 1.633 . S
C2111 C1124 1.647 . S
C2125 C652 1.647 . S
C2131 C1183 1.633 . S
C2145 C33 1.465 . S
C2151 C623 1.461 . S
C2165 C682 1.450 . S
C2171 C92 1.448 . S
C2185 C387 1.459 . S
C2191 C151 1.463 . S
C2205 C210 1.459 . S
C2211 C446 1.455 . S
C2225 C269 1.462 . S
C2231 C505 1.465 . S
C2245 C328 1.461 . S
C2251 C564 1.456 . S
C2265 C741 1.449 . S
C2271 C1331 1.452 . S
C2285 C800 1.455 . S
C2291 C1390 1.460 . S
C2305 C859 1.466 . S
C2311 C1095 1.466 . S
C2325 C1154 1.449 . S
C2331 C918 1.448 . S
C2345 C977 1.466 . S
C2351 C1213 1.466 . S
C2365 C1036 1.458 . S
C2371 C1272 1.462 . S
