# Generated by pormake.
# Topology bcu-j, (5)-cn, num edge types: 1
# Building blocks:
#     Node 0, Type 0, BuildingBlock: XOMCOT_clean_sbu_1, # of connection points: 5
#     Node 1, Type 0, BuildingBlock: XOMCOT_clean_sbu_1, # of connection points: 5
#     Node 2, Type 0, BuildingBlock: XOMCOT_clean_sbu_1, # of connection points: 5
#     Node 3, Type 0, BuildingBlock: XOMCOT_clean_sbu_1, # of connection points: 5
#     Node 4, Type 0, BuildingBlock: XOMCOT_clean_sbu_1, # of connection points: 5
#     Node 5, Type 0, BuildingBlock: XOMCOT_clean_sbu_1, # of connection points: 5
#     Node 6, Type 0, BuildingBlock: XOMCOT_clean_sbu_1, # of connection points: 5
#     Node 7, Type 0, BuildingBlock: XOMCOT_clean_sbu_1, # of connection points: 5
#     Node 8, Type 0, BuildingBlock: XOMCOT_clean_sbu_1, # of connection points: 5
#     Node 9, Type 0, BuildingBlock: XOMCOT_clean_sbu_1, # of connection points: 5
#     Node 10, Type 0, BuildingBlock: XOMCOT_clean_sbu_1, # of connection points: 5
#     Node 11, Type 0, BuildingBlock: XOMCOT_clean_sbu_1, # of connection points: 5
#     Node 12, Type 0, BuildingBlock: XOMCOT_clean_sbu_1, # of connection points: 5
#     Node 13, Type 0, BuildingBlock: XOMCOT_clean_sbu_1, # of connection points: 5
#     Node 14, Type 0, BuildingBlock: XOMCOT_clean_sbu_1, # of connection points: 5
#     Node 15, Type 0, BuildingBlock: XOMCOT_clean_sbu_1, # of connection points: 5
#     Edge 16, Type (0, 0), BuildingBlock: XUDNAN_clean_linker_2, # of connection points: 2
#     Edge 17, Type (0, 0), BuildingBlock: XUDNAN_clean_linker_2, # of connection points: 2
#     Edge 18, Type (0, 0), BuildingBlock: XUDNAN_clean_linker_2, # of connection points: 2
#     Edge 19, Type (0, 0), BuildingBlock: XUDNAN_clean_linker_2, # of connection points: 2
#     Edge 20, Type (0, 0), BuildingBlock: XUDNAN_clean_linker_2, # of connection points: 2
#     Edge 21, Type (0, 0), BuildingBlock: XUDNAN_clean_linker_2, # of connection points: 2
#     Edge 22, Type (0, 0), BuildingBlock: XUDNAN_clean_linker_2, # of connection points: 2
#     Edge 23, Type (0, 0), BuildingBlock: XUDNAN_clean_linker_2, # of connection points: 2
#     Edge 24, Type (0, 0), BuildingBlock: XUDNAN_clean_linker_2, # of connection points: 2
#     Edge 25, Type (0, 0), BuildingBlock: XUDNAN_clean_linker_2, # of connection points: 2
#     Edge 26, Type (0, 0), BuildingBlock: XUDNAN_clean_linker_2, # of connection points: 2
#     Edge 27, Type (0, 0), BuildingBlock: XUDNAN_clean_linker_2, # of connection points: 2
#     Edge 28, Type (0, 0), BuildingBlock: XUDNAN_clean_linker_2, # of connection points: 2
#     Edge 29, Type (0, 0), BuildingBlock: XUDNAN_clean_linker_2, # of connection points: 2
#     Edge 30, Type (0, 0), BuildingBlock: XUDNAN_clean_linker_2, # of connection points: 2
#     Edge 31, Type (0, 0), BuildingBlock: XUDNAN_clean_linker_2, # of connection points: 2
#     Edge 32, Type (0, 0), BuildingBlock: XUDNAN_clean_linker_2, # of connection points: 2
#     Edge 33, Type (0, 0), BuildingBlock: XUDNAN_clean_linker_2, # of connection points: 2
#     Edge 34, Type (0, 0), BuildingBlock: XUDNAN_clean_linker_2, # of connection points: 2
#     Edge 35, Type (0, 0), BuildingBlock: XUDNAN_clean_linker_2, # of connection points: 2
#     Edge 36, Type (0, 0), BuildingBlock: XUDNAN_clean_linker_2, # of connection points: 2
#     Edge 37, Type (0, 0), BuildingBlock: XUDNAN_clean_linker_2, # of connection points: 2
#     Edge 38, Type (0, 0), BuildingBlock: XUDNAN_clean_linker_2, # of connection points: 2
#     Edge 39, Type (0, 0), BuildingBlock: XUDNAN_clean_linker_2, # of connection points: 2
#     Edge 40, Type (0, 0), BuildingBlock: XUDNAN_clean_linker_2, # of connection points: 2
#     Edge 41, Type (0, 0), BuildingBlock: XUDNAN_clean_linker_2, # of connection points: 2
#     Edge 42, Type (0, 0), BuildingBlock: XUDNAN_clean_linker_2, # of connection points: 2
#     Edge 43, Type (0, 0), BuildingBlock: XUDNAN_clean_linker_2, # of connection points: 2
#     Edge 44, Type (0, 0), BuildingBlock: XUDNAN_clean_linker_2, # of connection points: 2
#     Edge 45, Type (0, 0), BuildingBlock: XUDNAN_clean_linker_2, # of connection points: 2
#     Edge 46, Type (0, 0), BuildingBlock: XUDNAN_clean_linker_2, # of connection points: 2
#     Edge 47, Type (0, 0), BuildingBlock: XUDNAN_clean_linker_2, # of connection points: 2
#     Edge 48, Type (0, 0), BuildingBlock: XUDNAN_clean_linker_2, # of connection points: 2
#     Edge 49, Type (0, 0), BuildingBlock: XUDNAN_clean_linker_2, # of connection points: 2
#     Edge 50, Type (0, 0), BuildingBlock: XUDNAN_clean_linker_2, # of connection points: 2
#     Edge 51, Type (0, 0), BuildingBlock: XUDNAN_clean_linker_2, # of connection points: 2
#     Edge 52, Type (0, 0), BuildingBlock: XUDNAN_clean_linker_2, # of connection points: 2
#     Edge 53, Type (0, 0), BuildingBlock: XUDNAN_clean_linker_2, # of connection points: 2
#     Edge 54, Type (0, 0), BuildingBlock: XUDNAN_clean_linker_2, # of connection points: 2
#     Edge 55, Type (0, 0), BuildingBlock: XUDNAN_clean_linker_2, # of connection points: 2
# Relax obj value: 0.637
# Max RMSD: 0.289
# Mean RMSD: 0.289
data_MOF--net-bcu-j--node1-XOMCOT_clean_sbu_1--edge1-XUDNAN_clean_linker_2
_symmetry_space_group_name_H-M    P1
_symmetry_Int_Tables_number       1
_symmetry_cell_setting            triclinic
loop_
_symmetry_equiv_pos_as_xyz
'x, y, z'
_cell_length_a     44.091901
_cell_length_b     44.129983
_cell_length_c     45.912077
_cell_angle_alpha  89.966436
_cell_angle_beta   89.973833
_cell_angle_gamma 90.001746
loop_
_atom_site_label
_atom_site_type_symbol
_atom_site_fract_x
_atom_site_fract_y
_atom_site_fract_z
_atom_type_partial_charge
C0 C 0.06232 0.15709 0.59044 0.0
C1 C 0.09138 0.14581 0.5897 0.0
N2 N 0.09703 0.13227 0.61543 0.0
N3 N 0.04971 0.15044 0.6164 0.0
C4 C 0.07151 0.13555 0.63129 0.0
H5 H 0.05072 0.16858 0.57287 0.0
Co6 Co 0.00963 0.15822 0.62572 0.0
C7 C 0.99534 0.11853 0.67594 0.0
O8 O 0.96772 0.11473 0.6659 0.0
N9 N 0.96862 0.167 0.63464 0.0
C10 C 0.91804 0.1706 0.63724 0.0
C11 C 0.9421 0.15721 0.62293 0.0
C12 C 0.95986 0.18625 0.65584 0.0
N13 N 0.92957 0.18908 0.65757 0.0
O14 O 0.02261 0.19424 0.64459 0.0
H15 H 0.9399 0.14099 0.6055 0.0
H16 H 0.97529 0.19775 0.67043 0.0
O17 O 0.01388 0.13559 0.66218 0.0
C18 C 0.02259 0.21659 0.6271 0.0
O19 O 0.01126 0.21262 0.6009 0.0
N20 N -0.00101 0.12399 0.60456 0.0
C21 C 0.00399 0.08178 0.56004 0.0
C22 C 0.01085 0.07365 0.58879 0.0
C23 C 0.00865 0.09528 0.61078 0.0
C24 C 0.99048 0.13164 0.57701 0.0
C25 C 0.9924 0.11073 0.55443 0.0
H26 H 0.01808 0.08964 0.63172 0.0
H27 H 0.98463 0.1549 0.57212 0.0
H28 H 0.06841 0.12597 0.65276 0.0
H29 H 0.10698 0.14707 0.57152 0.0
H30 H 0.89414 0.16729 0.63292 0.0
H31 H 0.02064 0.05175 0.59382 0.0
H32 H 0.98684 0.11782 0.53248 0.0
C33 C 0.35002 0.04859 0.59123 0.0
C34 C 0.3615 0.0774 0.58838 0.0
N35 N 0.37259 0.08609 0.61441 0.0
N36 N 0.35394 0.03915 0.61887 0.0
C37 C 0.36763 0.06252 0.63255 0.0
H38 H 0.33992 0.03509 0.57414 0.0
Co39 Co 0.34364 0.00079 0.63167 0.0
C40 C 0.37387 0.99281 0.68911 0.0
O41 O 0.37619 0.96353 0.68465 0.0
N42 N 0.33226 0.96128 0.64383 0.0
C43 C 0.32721 0.91138 0.65092 0.0
C44 C 0.34319 0.93357 0.63645 0.0
C45 C 0.3096 0.955 0.66272 0.0
N46 N 0.30593 0.92506 0.66711 0.0
O47 O 0.3058 0.01645 0.64442 0.0
H48 H 0.36198 0.92923 0.62203 0.0
H49 H 0.29639 0.97205 0.67391 0.0
O50 O 0.36095 0.00954 0.67007 0.0
C51 C 0.28463 0.01603 0.62566 0.0
O52 O 0.28995 0.00376 0.60008 0.0
N53 N 0.3805 0.9869 0.61694 0.0
C54 C 0.43252 0.97323 0.58529 0.0
C55 C 0.43465 0.98684 0.61275 0.0
C56 C 0.40835 0.99408 0.62798 0.0
C57 C 0.378 0.97425 0.58999 0.0
C58 C 0.40375 0.96671 0.57395 0.0
H59 H 0.41073 0.00725 0.64757 0.0
H60 H 0.35574 0.97043 0.58077 0.0
H61 H 0.37477 0.06201 0.65507 0.0
H62 H 0.36168 0.09088 0.56867 0.0
H63 H 0.33086 0.88716 0.64961 0.0
H64 H 0.45638 0.99358 0.62163 0.0
H65 H 0.40114 0.9566 0.55261 0.0
C66 C 0.44851 0.35883 0.58192 0.0
C67 C 0.41944 0.37016 0.58221 0.0
N68 N 0.40849 0.36775 0.60953 0.0
N69 N 0.45597 0.34993 0.60908 0.0
C70 C 0.43078 0.35463 0.62512 0.0
H71 H 0.46386 0.35887 0.56355 0.0
Co72 Co 0.49433 0.33956 0.62227 0.0
C73 C 0.49985 0.37221 0.67924 0.0
O74 O 0.52877 0.37773 0.67476 0.0
N75 N 0.53303 0.32812 0.63542 0.0
C76 C 0.58171 0.31568 0.64144 0.0
C77 C 0.56073 0.32815 0.62265 0.0
C78 C 0.53777 0.31479 0.66143 0.0
N79 N 0.56708 0.30773 0.66593 0.0
O80 O 0.47882 0.30171 0.63503 0.0
H81 H 0.56577 0.33606 0.60099 0.0
H82 H 0.51981 0.31006 0.67688 0.0
O83 O 0.48465 0.35717 0.66043 0.0
C84 C 0.47804 0.28062 0.61623 0.0
O85 O 0.48873 0.28599 0.59 0.0
N86 N 0.50875 0.37683 0.6081 0.0
C87 C 0.52171 0.42989 0.57768 0.0
C88 C 0.50577 0.43095 0.60397 0.0
C89 C 0.4988 0.40415 0.61842 0.0
C90 C 0.52394 0.37541 0.58228 0.0
C91 C 0.53109 0.40172 0.56687 0.0
H92 H 0.48321 0.40562 0.6364 0.0
H93 H 0.52866 0.35364 0.57252 0.0
H94 H 0.42935 0.35013 0.64818 0.0
H95 H 0.40781 0.38065 0.56406 0.0
H96 H 0.60574 0.31278 0.63748 0.0
H97 H 0.49665 0.45209 0.61217 0.0
H98 H 0.54258 0.39994 0.54609 0.0
C99 C 0.17076 0.43463 0.59682 0.0
C100 C 0.16139 0.40489 0.59587 0.0
N101 N 0.14758 0.39839 0.62128 0.0
N102 N 0.16242 0.44679 0.62252 0.0
C103 C 0.14872 0.42402 0.63711 0.0
H104 H 0.18173 0.44704 0.57944 0.0
Co105 Co 0.16591 0.48734 0.63212 0.0
C106 C 0.11902 0.49791 0.67716 0.0
O107 O 0.1132 0.52456 0.66565 0.0
N108 N 0.17025 0.52864 0.6418 0.0
C109 C 0.17559 0.57889 0.64293 0.0
C110 C 0.16829 0.55433 0.62579 0.0
C111 C 0.17886 0.5383 0.66841 0.0
N112 N 0.182 0.56864 0.66979 0.0
O113 O 0.20087 0.47756 0.6545 0.0
H114 H 0.16272 0.55562 0.60298 0.0
H115 H 0.18369 0.52309 0.68632 0.0
O116 O 0.13981 0.48128 0.66613 0.0
C117 C 0.22494 0.48262 0.64001 0.0
O118 O 0.22252 0.49722 0.61514 0.0
N119 N 0.13309 0.49522 0.60758 0.0
C120 C 0.09273 0.49445 0.561 0.0
C121 C 0.08365 0.48426 0.58854 0.0
C122 C 0.1044 0.48413 0.61141 0.0
C123 C 0.14223 0.50504 0.58085 0.0
C124 C 0.12229 0.50541 0.55737 0.0
H125 H 0.09792 0.47265 0.63115 0.0
H126 H 0.16578 0.51085 0.5773 0.0
H127 H 0.1381 0.42647 0.6582 0.0
H128 H 0.16369 0.38952 0.57763 0.0
H129 H 0.17665 0.60232 0.63603 0.0
H130 H 0.06142 0.47438 0.59187 0.0
H131 H 0.13032 0.513 0.5363 0.0
C132 C 0.05609 0.3492 0.90114 0.0
C133 C 0.08492 0.36104 0.90201 0.0
N134 N 0.0927 0.36943 0.8748 0.0
N135 N 0.0457 0.35041 0.87358 0.0
C136 C 0.06865 0.36255 0.85793 0.0
H137 H 0.04313 0.34097 0.91952 0.0
Co138 Co 0.00678 0.33948 0.86284 0.0
C139 C 0.99441 0.37456 0.80888 0.0
O140 O 0.96629 0.37886 0.81747 0.0
N141 N 0.9673 0.32731 0.8525 0.0
C142 C 0.91863 0.31351 0.85074 0.0
C143 C 0.94106 0.32606 0.86779 0.0
C144 C 0.96028 0.31466 0.82663 0.0
N145 N 0.93085 0.30675 0.82476 0.0
O146 O 0.02218 0.30262 0.84784 0.0
H147 H 0.93802 0.33298 0.89009 0.0
H148 H 0.97673 0.3109 0.8095 0.0
O149 O 0.01241 0.35883 0.82468 0.0
C150 C 0.02273 0.28169 0.86684 0.0
O151 O 0.0114 0.2873 0.89278 0.0
N152 N 0.99274 0.37539 0.87971 0.0
C153 C 0.97697 0.42602 0.91236 0.0
C154 C 0.99156 0.42934 0.88549 0.0
C155 C 0.0001 0.40372 0.86993 0.0
C156 C 0.98012 0.37181 0.90658 0.0
C157 C 0.97146 0.39683 0.92309 0.0
H158 H 0.01419 0.40695 0.85102 0.0
H159 H 0.9779 0.34936 0.91576 0.0
H160 H 0.06741 0.36749 0.83491 0.0
H161 H 0.09891 0.36367 0.92121 0.0
H162 H 0.89527 0.30959 0.85696 0.0
H163 H 0.99792 0.45151 0.87738 0.0
H164 H 0.9613 0.3934 0.94432 0.0
C165 C 0.15482 0.05353 0.90184 0.0
C166 C 0.14633 0.08351 0.90311 0.0
N167 N 0.13411 0.09112 0.87724 0.0
N168 N 0.14761 0.04236 0.87543 0.0
C169 C 0.13535 0.06588 0.86082 0.0
H170 H 0.16478 0.04041 0.9193 0.0
Co171 Co 0.15184 0.0023 0.86442 0.0
C172 C 0.10812 0.99353 0.81625 0.0
O173 O 0.10144 0.96658 0.82664 0.0
N174 N 0.1571 0.96166 0.85339 0.0
C175 C 0.16445 0.91178 0.85017 0.0
C176 C 0.15517 0.93514 0.86807 0.0
C177 C 0.16753 0.95375 0.82687 0.0
N178 N 0.17196 0.9237 0.8242 0.0
O179 O 0.18799 0.01309 0.84449 0.0
H180 H 0.14846 0.93261 0.89052 0.0
H181 H 0.17296 0.97008 0.81006 0.0
O182 O 0.12799 0.0098 0.82913 0.0
C183 C 0.21079 0.01009 0.86118 0.0
O184 O 0.20673 0.99688 0.88656 0.0
N185 N 0.11757 0.99333 0.8867 0.0
C186 C 0.07696 -0.0007 0.93269 0.0
C187 C 0.06859 0.00803 0.90451 0.0
C188 C 0.08948 0.0055 0.88188 0.0
C189 C 0.12538 0.98329 0.91374 0.0
C190 C 0.10529 0.98575 0.93703 0.0
H191 H 0.08398 0.01668 0.86173 0.0
H192 H 0.14848 0.97634 0.91798 0.0
H193 H 0.12618 0.06436 0.83904 0.0
H194 H 0.1485 0.09839 0.92173 0.0
H195 H 0.16621 0.88808 0.85602 0.0
H196 H 0.04729 0.01956 0.90054 0.0
H197 H 0.11268 0.9791 0.95861 0.0
C198 C 0.42477 0.15851 0.90769 0.0
C199 C 0.39583 0.14681 0.90746 0.0
N200 N 0.38985 0.13685 0.88034 0.0
N201 N 0.437 0.15546 0.88094 0.0
C202 C 0.41499 0.14263 0.86465 0.0
H203 H 0.43667 0.16742 0.92641 0.0
Co204 Co 0.47703 0.16349 0.87139 0.0
C205 C 0.49077 0.1218 0.82265 0.0
O206 O 0.51828 0.11777 0.83289 0.0
N207 N 0.51803 0.17233 0.86176 0.0
C208 C 0.56855 0.17521 0.85766 0.0
C209 C 0.5448 0.16223 0.87271 0.0
C210 C 0.52642 0.19136 0.84018 0.0
N211 N 0.5567 0.19375 0.83753 0.0
O212 O 0.46365 0.19918 0.8522 0.0
H213 H 0.54744 0.14579 0.8899 0.0
H214 H 0.5107 0.20278 0.82582 0.0
O215 O 0.4727 0.13998 0.83557 0.0
C216 C 0.46461 0.22111 0.87015 0.0
O217 O 0.47665 0.21625 0.89593 0.0
N218 N 0.48817 0.12984 0.89322 0.0
C219 C 0.48812 0.08823 0.93866 0.0
C220 C 0.47838 0.07966 0.91078 0.0
C221 C 0.47815 0.10099 0.88836 0.0
C222 C 0.49849 0.13821 0.91998 0.0
C223 C 0.49928 0.11761 0.94286 0.0
H224 H 0.46707 0.09495 0.86826 0.0
H225 H 0.50442 0.16163 0.924 0.0
H226 H 0.41775 0.13598 0.84215 0.0
H227 H 0.3807 0.14495 0.92595 0.0
H228 H 0.59252 0.17138 0.86119 0.0
H229 H 0.46872 0.05746 0.90689 0.0
H230 H 0.50706 0.12511 0.96404 0.0
C231 C 0.34314 0.45404 0.90944 0.0
C232 C 0.35144 0.42406 0.91203 0.0
N233 N 0.35612 0.41288 0.88507 0.0
N234 N 0.34306 0.4617 0.88102 0.0
C235 C 0.35048 0.43603 0.86676 0.0
H236 H 0.33877 0.46962 0.92713 0.0
Co237 Co 0.33782 0.50007 0.86513 0.0
C238 C 0.3601 0.48443 0.80595 0.0
O239 O 0.33308 0.4873 0.79425 0.0
N240 N 0.33278 0.53843 0.84903 0.0
C241 C 0.34047 0.58016 0.82319 0.0
C242 C 0.35424 0.55612 0.8369 0.0
C243 C 0.30643 0.55261 0.8433 0.0
N244 N 0.31015 0.57775 0.82678 0.0
O245 O 0.30265 0.48536 0.8454 0.0
H246 H 0.37818 0.55076 0.83635 0.0
H247 H 0.28479 0.54347 0.84971 0.0
O248 O 0.36395 0.48934 0.83303 0.0
C249 C 0.28047 0.48454 0.86314 0.0
O250 O 0.28447 0.49586 0.88936 0.0
N251 N 0.37062 0.51375 0.88666 0.0
C252 C 0.41054 0.52109 0.93269 0.0
C253 C 0.41914 0.50442 0.90806 0.0
C254 C 0.39866 0.50075 0.88527 0.0
C255 C 0.3629 0.53226 0.90918 0.0
C256 C 0.38264 0.53631 0.93255 0.0
H257 H 0.40422 0.48487 0.86825 0.0
H258 H 0.34027 0.54168 0.91022 0.0
H259 H 0.35331 0.43465 0.84342 0.0
H260 H 0.35459 0.41172 0.93218 0.0
H261 H 0.35201 0.59651 0.80959 0.0
H262 H 0.44024 0.49184 0.9076 0.0
H263 H 0.3753 0.54945 0.95118 0.0
C264 C 0.96378 0.85729 0.41381 0.0
C265 C 0.93481 0.86879 0.41547 0.0
N266 N 0.9224 0.86754 0.38871 0.0
N267 N 0.96976 0.84953 0.38597 0.0
C268 C 0.94378 0.85524 0.37142 0.0
H269 H 0.97974 0.85575 0.43159 0.0
Co270 Co 0.0066 0.83726 0.37029 0.0
C271 C 0.00912 0.86665 0.31092 0.0
O272 O 0.03865 0.86406 0.30816 0.0
N273 N 0.04418 0.82426 0.35468 0.0
C274 C 0.09316 0.81733 0.34391 0.0
C275 C 0.07292 0.83309 0.36097 0.0
C276 C 0.04785 0.80306 0.33377 0.0
N277 N 0.0772 0.79829 0.32711 0.0
O278 O 0.98686 0.80185 0.35643 0.0
H279 H 0.07931 0.85026 0.37648 0.0
H280 H 0.0293 0.79212 0.32251 0.0
O281 O 0.99586 0.85717 0.33389 0.0
C282 C 0.99003 0.77549 0.36713 0.0
O283 O 0.0104 0.77079 0.38752 0.0
N284 N 0.02453 0.87213 0.38547 0.0
C285 C 0.04194 0.92172 0.41871 0.0
C286 C 0.02971 0.92583 0.39086 0.0
C287 C 0.02072 0.90074 0.3747 0.0
C288 C 0.03745 0.8677 0.4121 0.0
C289 C 0.04653 0.89222 0.42907 0.0
H290 H 0.00881 0.90487 0.35465 0.0
H291 H 0.03939 0.84494 0.42068 0.0
H292 H 0.94094 0.8516 0.34831 0.0
H293 H 0.92399 0.87803 0.43468 0.0
H294 H 0.11759 0.81973 0.34376 0.0
H295 H 0.02492 0.94829 0.38251 0.0
H296 H 0.05573 0.88819 0.4506 0.0
C297 C 0.67263 0.92918 0.41354 0.0
C298 C 0.66442 0.89907 0.4132 0.0
N299 N 0.65883 0.89113 0.38542 0.0
N300 N 0.67126 0.94024 0.38618 0.0
C301 C 0.6635 0.91629 0.3695 0.0
H302 H 0.67725 0.94262 0.43271 0.0
Co303 Co 0.6735 0.98079 0.37543 0.0
C304 C 0.62815 0.98748 0.32778 0.0
O305 O 0.61967 0.01405 0.33782 0.0
N306 N 0.67639 0.02182 0.36439 0.0
C307 C 0.67735 0.07221 0.36047 0.0
C308 C 0.67209 0.04815 0.37895 0.0
C309 C 0.68459 0.03064 0.33738 0.0
N310 N 0.68488 0.06099 0.33424 0.0
O311 O 0.70928 0.97168 0.35419 0.0
H312 H 0.66574 0.05029 0.40152 0.0
H313 H 0.69056 0.01486 0.32028 0.0
O314 O 0.64894 0.97257 0.34088 0.0
C315 C 0.73342 0.97727 0.36832 0.0
O316 O 0.73118 0.99211 0.39304 0.0
N317 N 0.63955 0.98827 0.39859 0.0
C318 C 0.59775 0.98671 0.44394 0.0
C319 C 0.59012 0.97527 0.41646 0.0
C320 C 0.6116 0.97563 0.3942 0.0
C321 C 0.64713 -0.0003 0.42516 0.0
C322 C 0.62642 -0.00039 0.44804 0.0
H323 H 0.60645 0.96325 0.37461 0.0
H324 H 0.67018 0.00693 0.42921 0.0
H325 H 0.65907 0.91762 0.34644 0.0
H326 H 0.66107 0.88461 0.43199 0.0
H327 H 0.67579 0.09602 0.36591 0.0
H328 H 0.56861 0.96403 0.41283 0.0
H329 H 0.63329 0.00825 0.4691 0.0
C330 C 0.56394 0.6631 0.40045 0.0
C331 C 0.59341 0.65281 0.4016 0.0
N332 N 0.6007 0.6416 0.37522 0.0
N333 N 0.55273 0.6579 0.37362 0.0
C334 C 0.57582 0.64529 0.35862 0.0
H335 H 0.55106 0.67253 0.41833 0.0
Co336 Co 0.51289 0.66346 0.36212 0.0
C337 C 0.50264 0.61475 0.31884 0.0
O338 O 0.47581 0.60959 0.33033 0.0
N339 N 0.4725 0.66999 0.35028 0.0
C340 C 0.42356 0.68237 0.34671 0.0
C341 C 0.44691 0.67575 0.36563 0.0
C342 C 0.46409 0.67379 0.32225 0.0
N343 N 0.4345 0.68054 0.31949 0.0
O344 O 0.52572 0.6971 0.33948 0.0
H345 H 0.44518 0.6767 0.38901 0.0
H346 H 0.47976 0.673 0.30409 0.0
O347 O 0.51923 0.63599 0.32907 0.0
C348 C 0.52307 0.72118 0.35448 0.0
O349 O 0.50774 0.7197 0.37901 0.0
N350 N 0.50187 0.63166 0.38704 0.0
C351 C 0.4994 0.5922 0.43442 0.0
C352 C 0.51179 0.58277 0.40785 0.0
C353 C 0.51348 0.60302 0.38469 0.0
C354 C 0.4898 0.64115 0.4128 0.0
C355 C 0.48775 0.62163 0.4366 0.0
H356 H 0.5269 0.59633 0.36617 0.0
H357 H 0.48445 0.66479 0.4159 0.0
H358 H 0.57407 0.63736 0.33641 0.0
H359 H 0.60802 0.65278 0.42054 0.0
H360 H 0.40068 0.68898 0.35245 0.0
H361 H 0.52246 0.56077 0.40568 0.0
H362 H 0.47871 0.63007 0.45698 0.0
C363 C 0.83303 0.56445 0.39334 0.0
C364 C 0.84121 0.59453 0.39285 0.0
N365 N 0.86313 0.59794 0.37276 0.0
N366 N 0.84946 0.54925 0.37332 0.0
C367 C 0.86787 0.5703 0.3613 0.0
H368 H 0.8156 0.55444 0.40683 0.0
Co369 Co 0.84312 0.50915 0.36336 0.0
C370 C 0.87991 0.49917 0.30998 0.0
O371 O 0.8862 0.47151 0.31874 0.0
N372 N 0.83538 0.4685 0.35353 0.0
C373 C 0.82613 0.4188 0.35232 0.0
C374 C 0.83714 0.4424 0.36894 0.0
C375 C 0.8228 0.46015 0.328 0.0
N376 N 0.81745 0.43016 0.32648 0.0
O377 O 0.80534 0.52058 0.34679 0.0
H378 H 0.84496 0.44032 0.39109 0.0
H379 H 0.81693 0.47608 0.31097 0.0
O380 O 0.86289 0.51606 0.32563 0.0
C381 C 0.78247 0.51694 0.36327 0.0
O382 O 0.78624 0.50294 0.38829 0.0
N383 N 0.8797 0.49906 0.38171 0.0
C384 C 0.93029 0.48743 0.41619 0.0
C385 C 0.93356 0.50054 0.38862 0.0
C386 C 0.90797 0.50683 0.37201 0.0
C387 C 0.87603 0.48778 0.40911 0.0
C388 C 0.90106 0.48127 0.4266 0.0
H389 H 0.91124 0.51929 0.35213 0.0
H390 H 0.85342 0.48431 0.41762 0.0
H391 H 0.88365 0.56591 0.34377 0.0
H392 H 0.83173 0.61255 0.40601 0.0
H393 H 0.82429 0.3953 0.35884 0.0
H394 H 0.95564 0.50719 0.38047 0.0
H395 H 0.89754 0.47187 0.44813 0.0
C396 C 0.9209 0.67069 0.08838 0.0
C397 C 0.89186 0.6592 0.08822 0.0
N398 N 0.88794 0.64282 0.11271 0.0
N399 N 0.93516 0.66134 0.11272 0.0
C400 C 0.9144 0.64466 0.12723 0.0
H401 H 0.9314 0.68402 0.07136 0.0
Co402 Co 0.97583 0.66738 0.1207 0.0
C403 C 0.99027 0.62363 0.16751 0.0
O404 O 0.0164 0.61815 0.15475 0.0
N405 N 0.01713 0.67425 0.12873 0.0
C406 C 0.0673 0.68083 0.12911 0.0
C407 C 0.04263 0.67279 0.11234 0.0
C408 C 0.02694 0.68362 0.15501 0.0
N409 N 0.05722 0.68724 0.15603 0.0
O410 O 0.9653 0.70321 0.14114 0.0
H411 H 0.04371 0.66658 0.08967 0.0
H412 H 0.0119 0.68798 0.17318 0.0
O413 O 0.9722 0.64317 0.15646 0.0
C414 C 0.96858 0.72591 0.12433 0.0
O415 O 0.98151 0.72158 0.09886 0.0
N416 N 0.98448 0.6337 0.09781 0.0
C417 C 0.98315 0.5917 0.05275 0.0
C418 C 0.97459 0.58326 0.08099 0.0
C419 C 0.97478 0.6048 0.10315 0.0
C420 C 0.99297 0.64212 0.07046 0.0
C421 C 0.99307 0.62136 0.04771 0.0
H422 H 0.96449 0.59867 0.12359 0.0
H423 H 0.99769 0.66569 0.06586 0.0
H424 H 0.91896 0.63254 0.14722 0.0
H425 H 0.8752 0.66208 0.07113 0.0
H426 H 0.09072 0.68183 0.1221 0.0
H427 H 0.96562 0.56088 0.08547 0.0
H428 H -0.00051 0.62885 0.0261 0.0
C429 C 0.85652 0.96318 0.08341 0.0
C430 C 0.86514 0.93343 0.07936 0.0
N431 N 0.86421 0.91928 0.10537 0.0
N432 N 0.85081 0.96779 0.11194 0.0
C433 C 0.85496 0.94044 0.12447 0.0
H434 H 0.85553 0.98043 0.06673 0.0
Co435 Co 0.84254 0.00351 0.13222 0.0
C436 C 0.86319 0.97963 0.19029 0.0
O437 O 0.83678 0.98245 0.20325 0.0
N438 N 0.83459 0.0388 0.15267 0.0
C439 C 0.8381 0.07743 0.18332 0.0
C440 C 0.85393 0.05503 0.1692 0.0
C441 C 0.8074 0.0521 0.15655 0.0
N442 N 0.80865 0.07538 0.17564 0.0
O443 O 0.80678 0.98488 0.14766 0.0
H444 H 0.87764 0.04978 0.17232 0.0
H445 H 0.78675 0.04376 0.14677 0.0
O446 O 0.86648 0.98811 0.16398 0.0
C447 C 0.78554 0.98368 0.12892 0.0
O448 O 0.78998 0.99649 0.10341 0.0
N449 N 0.87642 0.02183 0.11532 0.0
C450 C 0.9239 0.04117 0.08022 0.0
C451 C 0.92961 0.02946 0.10804 0.0
C452 C 0.90552 0.0199 0.12531 0.0
C453 C 0.87026 0.03584 0.08957 0.0
C454 C 0.89376 0.04544 0.07142 0.0
H455 H 0.91075 0.01016 0.14617 0.0
H456 H 0.84701 0.03762 0.08224 0.0
H457 H 0.85268 0.93637 0.14757 0.0
H458 H 0.87227 0.92325 0.05904 0.0
H459 H 0.8472 0.09219 0.19998 0.0
H460 H 0.95255 0.02577 0.1157 0.0
H461 H 0.88846 0.05476 0.05019 0.0
C462 C 0.56071 0.84569 0.09018 0.0
C463 C 0.58975 0.85709 0.0887 0.0
N464 N 0.59769 0.86687 0.11544 0.0
N465 N 0.55038 0.84831 0.11768 0.0
C466 C 0.57348 0.86121 0.13254 0.0
H467 H 0.54761 0.83678 0.07221 0.0
Co468 Co 0.51124 0.83863 0.12983 0.0
C469 C 0.5287 0.8489 0.19161 0.0
O470 O 0.53756 0.8208 0.19555 0.0
N471 N 0.47175 0.82926 0.14218 0.0
C472 C 0.42616 0.83348 0.16262 0.0
C473 C 0.45056 0.8491 0.15162 0.0
C474 C 0.45947 0.80177 0.14746 0.0
N475 N 0.43193 0.80364 0.1602 0.0
O476 O 0.5259 0.80061 0.1434 0.0
H477 H 0.45335 0.87343 0.15222 0.0
H478 H 0.47146 0.78068 0.14446 0.0
O479 O 0.51814 0.85737 0.16712 0.0
C480 C 0.52808 0.78043 0.12376 0.0
O481 O 0.51837 0.78681 0.0974 0.0
N482 N 0.49777 0.87494 0.11432 0.0
C483 C 0.48095 0.92618 0.08336 0.0
C484 C 0.49744 0.92887 0.1093 0.0
C485 C 0.50598 0.90287 0.12437 0.0
C486 C 0.48127 0.87189 0.08945 0.0
C487 C 0.4725 0.89732 0.07359 0.0
H488 H 0.52019 0.90531 0.14336 0.0
H489 H 0.47563 0.84949 0.08157 0.0
H490 H 0.5723 0.86776 0.15514 0.0
H491 H 0.60375 0.85838 0.06938 0.0
H492 H 0.40666 0.84334 0.17336 0.0
H493 H 0.50502 0.95077 0.11708 0.0
H494 H 0.45985 0.89443 0.05355 0.0
C495 C 0.64247 0.54306 0.09001 0.0
C496 C 0.63215 0.57237 0.08811 0.0
N497 N 0.62431 0.58164 0.11504 0.0
N498 N 0.64102 0.53388 0.11795 0.0
C499 C 0.63004 0.55792 0.13277 0.0
H500 H 0.65016 0.52909 0.07213 0.0
Co501 Co 0.65131 0.49525 0.12992 0.0
C502 C 0.62222 0.48617 0.18755 0.0
O503 O 0.61887 0.45723 0.18178 0.0
N504 N 0.66282 0.45567 0.14127 0.0
C505 C 0.6688 0.40584 0.14815 0.0
C506 C 0.65289 0.42782 0.13319 0.0
C507 C 0.68483 0.44978 0.16089 0.0
N508 N 0.68906 0.41994 0.1652 0.0
O509 O 0.68963 0.5105 0.14174 0.0
H510 H 0.63486 0.42327 0.11796 0.0
H511 H 0.69705 0.46705 0.17278 0.0
O512 O 0.6353 0.50341 0.169 0.0
C513 C 0.70994 0.51206 0.12216 0.0
O514 O 0.70386 0.50149 0.09605 0.0
N515 N 0.61367 0.48202 0.11619 0.0
C516 C 0.56085 0.47696 0.08332 0.0
C517 C 0.55996 0.48888 0.11156 0.0
C518 C 0.58665 0.49173 0.12743 0.0
C519 C 0.61485 0.46967 0.08902 0.0
C520 C 0.58861 0.46642 0.07237 0.0
H521 H 0.58556 0.50455 0.14732 0.0
H522 H 0.6366 0.46393 0.0796 0.0
H523 H 0.62545 0.55783 0.15589 0.0
H524 H 0.63055 0.58578 0.06843 0.0
H525 H 0.6658 0.38155 0.1466 0.0
H526 H 0.5393 0.49845 0.12041 0.0
H527 H 0.59033 0.45725 0.05056 0.0
H528 H 0.04973 0.12133 0.70565 0.0
H529 H 0.9669 0.06862 0.69785 0.0
H530 H 0.98754 0.03072 0.73176 0.0
H531 H 0.10092 0.05966 0.70859 0.0
H532 H 0.12564 0.07585 0.73571 0.0
H533 H 0.10436 0.10021 0.71183 0.0
H534 H 0.08014 0.12777 0.75571 0.0
H535 H 0.10209 0.10417 0.77976 0.0
H536 H 0.06146 0.10586 0.78361 0.0
H537 H 0.01794 0.99681 0.76352 0.0
H538 H 0.054 0.97174 0.79657 0.0
H539 H 0.11677 0.04684 0.78595 0.0
C540 C 0.03583 0.10197 0.71132 0.0
C541 C 0.00671 0.09793 0.69895 0.0
C542 C 0.9892 0.07234 0.70704 0.0
C543 C 0.00078 0.05055 0.72619 0.0
C544 C 0.02977 0.05481 0.73741 0.0
C545 C 0.0469 0.0801 0.73077 0.0
C546 C 0.07729 0.07917 0.74625 0.0
C547 C 0.10361 0.07866 0.72427 0.0
C548 C 0.08039 0.10583 0.7676 0.0
C549 C 0.07462 0.04923 0.76228 0.0
C550 C 0.0471 0.0355 0.75662 0.0
C551 C 0.03948 0.00743 0.76836 0.0
C552 C 0.06024 0.99329 0.78698 0.0
C553 C 0.08819 0.00734 0.79397 0.0
C554 C 0.09554 0.03557 0.78114 0.0
H555 H 0.36849 0.04983 0.71338 0.0
H556 H 0.42365 0.96829 0.71489 0.0
H557 H 0.46004 0.99342 0.74747 0.0
H558 H 0.42783 0.10323 0.71362 0.0
H559 H 0.41061 0.12972 0.73853 0.0
H560 H 0.3871 0.10583 0.71623 0.0
H561 H 0.35949 0.08414 0.7611 0.0
H562 H 0.38163 0.1091 0.78366 0.0
H563 H 0.38139 0.06895 0.79088 0.0
H564 H 0.4924 0.02794 0.77652 0.0
H565 H 0.51529 0.0675 0.80716 0.0
H566 H 0.4382 0.12624 0.79025 0.0
C567 C 0.38804 0.0372 0.72091 0.0
C568 C 0.39322 0.00708 0.71157 0.0
C569 C 0.41902 0.99126 0.7219 0.0
C570 C 0.44 0.00541 0.74026 0.0
C571 C 0.43462 0.03524 0.74856 0.0
C572 C 0.40896 0.05079 0.73987 0.0
C573 C 0.40842 0.08243 0.75285 0.0
C574 C 0.40854 0.10674 0.72886 0.0
C575 C 0.38111 0.08635 0.77335 0.0
C576 C 0.43804 0.0823 0.76967 0.0
C577 C 0.45286 0.05492 0.76656 0.0
C578 C 0.4809 0.04939 0.7794 0.0
C579 C 0.49382 0.07215 0.7966 0.0
C580 C 0.47853 0.09997 0.8012 0.0
C581 C 0.4504 0.10518 0.78723 0.0
H582 H 0.35768 0.45234 0.7546 0.0
H583 H 0.42032 0.48768 0.81912 0.0
H584 H 0.46262 0.46176 0.79451 0.0
H585 H 0.39114 0.38008 0.74772 0.0
H586 H 0.38604 0.37678 0.70892 0.0
H587 H 0.36012 0.39936 0.73007 0.0
H588 H 0.37073 0.44591 0.69784 0.0
H589 H 0.39659 0.42403 0.67596 0.0
H590 H 0.4092 0.4587 0.69268 0.0
H591 H 0.49801 0.43066 0.76399 0.0
H592 H 0.52439 0.39882 0.72762 0.0
H593 H 0.43886 0.38418 0.68311 0.0
C594 C 0.38036 0.45503 0.76327 0.0
C595 C 0.38565 0.47183 0.78896 0.0
C596 C 0.41564 0.47455 0.79974 0.0
C597 C 0.43986 0.45999 0.78587 0.0
C598 C 0.43379 0.44289 0.76111 0.0
C599 C 0.40486 0.4406 0.74966 0.0
C600 C 0.40452 0.42046 0.72295 0.0
C601 C 0.38425 0.39252 0.72772 0.0
C602 C 0.39468 0.43835 0.69576 0.0
C603 C 0.43771 0.41169 0.72141 0.0
C604 C 0.45421 0.42487 0.74357 0.0
C605 C 0.48534 0.42024 0.74647 0.0
C606 C 0.50011 0.40208 0.72578 0.0
C607 C 0.4837 0.3887 0.70262 0.0
C608 C 0.45205 0.39344 0.70074 0.0
H609 H 0.05076 0.37111 0.78308 0.0
H610 H 0.96696 0.42287 0.78273 0.0
H611 H 0.99027 0.46026 0.74983 0.0
H612 H 0.10077 0.43298 0.78435 0.0
H613 H 0.12857 0.4169 0.76003 0.0
H614 H 0.105 0.39245 0.78177 0.0
H615 H 0.08608 0.36425 0.73595 0.0
H616 H 0.11044 0.38793 0.7142 0.0
H617 H 0.07052 0.38575 0.70607 0.0
H618 H 0.02362 0.49431 0.7207 0.0
H619 H 0.06292 0.51954 0.69129 0.0
H620 H 0.12499 0.44536 0.70909 0.0
C621 C 0.03718 0.39007 0.77577 0.0
C622 C 0.00706 0.3941 0.78566 0.0
C623 C 0.99002 0.41918 0.77544 0.0
C624 C 0.00311 0.44069 0.75686 0.0
C625 C 0.03314 0.43662 0.74837 0.0
C626 C 0.04981 0.41166 0.75695 0.0
C627 C 0.0817 0.41288 0.74465 0.0
C628 C 0.10542 0.41391 0.76917 0.0
C629 C 0.08749 0.3861 0.72398 0.0
C630 C 0.08044 0.44263 0.72821 0.0
C631 C 0.05226 0.45601 0.73084 0.0
C632 C 0.0457 0.48392 0.7182 0.0
C633 C 0.0683 0.49818 0.7017 0.0
C634 C 0.09703 0.48439 0.69775 0.0
C635 C 0.10322 0.45641 0.71156 0.0
H636 H 0.95197 0.89092 0.31634 0.0
H637 H 0.02632 0.88024 0.25518 0.0
H638 H 0.99695 0.90823 0.21808 0.0
H639 H 0.89106 0.88169 0.26192 0.0
H640 H 0.86721 0.90818 0.28117 0.0
H641 H 0.89481 0.88592 0.30069 0.0
H642 H 0.91596 0.93669 0.32159 0.0
H643 H 0.88977 0.95837 0.29993 0.0
H644 H 0.92997 0.96506 0.29667 0.0
H645 H 0.95929 0.93557 0.18746 0.0
H646 H 0.91675 0.96265 0.16524 0.0
H647 H 0.86688 0.9577 0.24677 0.0
C648 C 0.96196 0.89402 0.29505 0.0
C649 C 0.99137 0.88306 0.28857 0.0
C650 C 0.00385 0.88838 0.26063 0.0
C651 C 0.98732 0.90419 0.23942 0.0
C652 C 0.95839 0.91458 0.24654 0.0
C653 C 0.94577 0.90974 0.27365 0.0
C654 C 0.91421 0.92331 0.27565 0.0
C655 C 0.89037 0.89831 0.28011 0.0
C656 C 0.9124 0.9473 0.29989 0.0
C657 C 0.91141 0.93737 0.24564 0.0
C658 C 0.93701 0.93156 0.22915 0.0
C659 C 0.93937 0.94076 0.20031 0.0
C660 C 0.91504 0.95648 0.18796 0.0
C661 C 0.8887 0.96339 0.20448 0.0
C662 C 0.88688 0.95343 0.23372 0.0
H663 H 0.63836 0.93204 0.30272 0.0
H664 H 0.5771 0.00901 0.30055 0.0
H665 H 0.54423 0.98158 0.26588 0.0
H666 H 0.63007 0.90976 0.22715 0.0
H667 H 0.63163 0.86989 0.23549 0.0
H668 H 0.65127 0.89667 0.25829 0.0
H669 H 0.62231 0.87655 0.30344 0.0
H670 H 0.60281 0.84946 0.28086 0.0
H671 H 0.58148 0.87543 0.30322 0.0
H672 H 0.51764 0.94509 0.23201 0.0
H673 H 0.50008 0.9028 0.20088 0.0
H674 H 0.57704 0.84882 0.22863 0.0
C675 C 0.61809 0.94323 0.29504 0.0
C676 C 0.61019 0.97257 0.30466 0.0
C677 C 0.58365 0.98652 0.29354 0.0
C678 C 0.56477 0.97109 0.27391 0.0
C679 C 0.57275 0.94175 0.2657 0.0
C680 C 0.59887 0.92805 0.2758 0.0
C681 C 0.60195 0.89607 0.26437 0.0
C682 C 0.63041 0.89293 0.24519 0.0
C683 C 0.6021 0.87298 0.28946 0.0
C684 C 0.5733 0.89372 0.2465 0.0
C685 C 0.55689 0.92041 0.24726 0.0
C686 C 0.53019 0.92403 0.23142 0.0
C687 C 0.52035 0.89991 0.21394 0.0
C688 C 0.53695 0.87247 0.21284 0.0
C689 C 0.5635 0.86926 0.22966 0.0
H690 H 0.55394 0.62024 0.28494 0.0
H691 H 0.48239 0.55733 0.309 0.0
H692 H 0.50749 0.51714 0.28073 0.0
H693 H 0.56262 0.59283 0.21081 0.0
H694 H 0.60312 0.59826 0.21072 0.0
H695 H 0.57947 0.62202 0.23303 0.0
H696 H 0.61157 0.60677 0.27789 0.0
H697 H 0.63475 0.5823 0.25576 0.0
H698 H 0.61555 0.56731 0.2873 0.0
H699 H 0.54089 0.48326 0.25202 0.0
H700 H 0.57666 0.45919 0.21812 0.0
H701 H 0.62574 0.54416 0.20997 0.0
C702 C 0.54348 0.59805 0.28409 0.0
C703 C 0.51623 0.59192 0.29925 0.0
C704 C 0.50316 0.56266 0.29747 0.0
C705 C 0.51737 0.53957 0.28167 0.0
C706 C 0.54448 0.54616 0.26749 0.0
C707 C 0.55717 0.57477 0.26803 0.0
C708 C 0.58587 0.57595 0.24984 0.0
C709 C 0.58252 0.59861 0.2246 0.0
C710 C 0.61357 0.58351 0.26884 0.0
C711 C 0.58715 0.54355 0.23887 0.0
C712 C 0.56332 0.52671 0.24982 0.0
C713 C 0.55957 0.49621 0.24313 0.0
C714 C 0.58017 0.4827 0.22394 0.0
C715 C 0.60397 0.49979 0.21123 0.0
C716 C 0.60775 0.53052 0.21925 0.0
H717 H 0.8756 0.5568 0.28685 0.0
H718 H 0.92582 0.47239 0.27963 0.0
H719 H 0.96032 0.49617 0.2443 0.0
H720 H 0.88168 0.578 0.21014 0.0
H721 H 0.88566 0.61777 0.21821 0.0
H722 H 0.86454 0.59362 0.24248 0.0
H723 H 0.89907 0.61123 0.28513 0.0
H724 H 0.92064 0.63471 0.26058 0.0
H725 H 0.93954 0.6064 0.28227 0.0
H726 H 0.99119 0.52918 0.21244 0.0
H727 H 0.01289 0.56777 0.17992 0.0
H728 H 0.94179 0.63073 0.20505 0.0
C729 C 0.89365 0.54323 0.27759 0.0
C730 C 0.89804 0.51271 0.28616 0.0
C731 C 0.92192 0.49576 0.27348 0.0
C732 C 0.94179 0.50911 0.25348 0.0
C733 C 0.93735 0.53937 0.24613 0.0
C734 C 0.91362 0.55615 0.25731 0.0
C735 C 0.91386 0.58818 0.24525 0.0
C736 C 0.8847 0.59476 0.22799 0.0
C737 C 0.91855 0.61149 0.26976 0.0
C738 C 0.94133 0.5866 0.22537 0.0
C739 C 0.95476 0.55834 0.22671 0.0
C740 C 0.98078 0.55134 0.21097 0.0
C741 C 0.99304 0.57353 0.19268 0.0
C742 C 0.97901 0.60226 0.18986 0.0
C743 C 0.95297 0.60895 0.20672 0.0
H744 H 0.02194 0.92635 0.47451 0.0
H745 H 0.0676 0.97675 0.40619 0.0
H746 H 0.06457 0.02323 0.43615 0.0
H747 H 0.96981 0.9813 0.49206 0.0
H748 H 0.96967 0.97444 0.53077 0.0
H749 H 0.97907 0.94425 0.50605 0.0
H750 H 0.03047 0.93601 0.53228 0.0
H751 H 0.02097 0.96579 0.55754 0.0
H752 H 0.05587 0.96762 0.53715 0.0
H753 H 0.05192 0.06465 0.47108 0.0
H754 H 0.03374 0.09811 0.51038 0.0
H755 H 0.99561 0.02043 0.55543 0.0
C756 C 0.03233 0.9469 0.46631 0.0
C757 C 0.04531 0.94802 0.43823 0.0
C758 C 0.05767 0.97554 0.42774 0.0
C759 C 0.05607 0.00195 0.44457 0.0
C760 C 0.04213 0.00027 0.47176 0.0
C761 C 0.03083 0.97339 0.48274 0.0
C762 C 0.01509 0.97806 0.51167 0.0
C763 C 0.98142 0.96898 0.51001 0.0
C764 C 0.03159 0.96086 0.5361 0.0
C765 C 0.01872 0.01191 0.51495 0.0
C766 C 0.03449 0.02426 0.49178 0.0
C767 C 0.03974 0.05524 0.48945 0.0
C768 C 0.02898 0.07407 0.51167 0.0
C769 C 0.01304 0.06181 0.53576 0.0
C770 C 0.00784 0.03034 0.53732 0.0
H771 H 0.53661 0.99702 0.44585 0.0
H772 H 0.61244 0.96553 0.49795 0.0
H773 H 0.57777 0.95579 0.53914 0.0
H774 H 0.49767 0.03514 0.5034 0.0
H775 H 0.46045 0.02482 0.49055 0.0
H776 H 0.49129 0.02862 0.46512 0.0
H777 H 0.48154 0.97388 0.44685 0.0
H778 H 0.45085 0.96981 0.47248 0.0
H779 H 0.48168 0.94298 0.47256 0.0
H780 H 0.53514 0.94992 0.5746 0.0
H781 H 0.48755 0.9512 0.60305 0.0
H782 H 0.43992 0.98678 0.5277 0.0
C783 C 0.54584 0.98798 0.46592 0.0
C784 C 0.57713 0.98217 0.46887 0.0
C785 C 0.58854 0.97058 0.49548 0.0
C786 C 0.56903 0.96469 0.51885 0.0
C787 C 0.53825 0.9705 0.51517 0.0
C788 C 0.52673 0.98206 0.48947 0.0
C789 C 0.49291 0.98721 0.49149 0.0
C790 C 0.48514 0.02095 0.48741 0.0
C791 C 0.47574 0.96727 0.46954 0.0
C792 C 0.48728 0.97695 0.52244 0.0
C793 C 0.51367 0.96716 0.53565 0.0
C794 C 0.51428 0.95744 0.5645 0.0
C795 C 0.48723 0.95831 0.58047 0.0
C796 C 0.4601 0.96894 0.56751 0.0
C797 C 0.46016 0.97794 0.538 0.0
H798 H 0.50806 0.43595 0.52016 0.0
H799 H 0.53937 0.48639 0.59545 0.0
H800 H 0.53632 0.53399 0.56707 0.0
H801 H 0.54735 0.48117 0.46495 0.0
H802 H 0.51639 0.47812 0.4395 0.0
H803 H 0.52326 0.44816 0.46533 0.0
H804 H 0.46785 0.45301 0.48368 0.0
H805 H 0.46097 0.48336 0.45832 0.0
H806 H 0.45436 0.48913 0.49667 0.0
H807 H 0.52753 0.57598 0.53115 0.0
H808 H 0.51702 0.60929 0.48918 0.0
H809 H 0.49005 0.53101 0.43811 0.0
C810 C 0.51511 0.45689 0.53042 0.0
C811 C 0.52426 0.45759 0.55984 0.0
C812 C 0.53239 0.48552 0.57285 0.0
C813 C 0.53069 0.51257 0.55695 0.0
C814 C 0.52076 0.51117 0.52819 0.0
C815 C 0.51339 0.48403 0.51497 0.0
C816 C 0.50239 0.48875 0.48412 0.0
C817 C 0.52362 0.47313 0.46218 0.0
C818 C 0.46944 0.47792 0.48051 0.0
C819 C 0.50462 0.52283 0.48208 0.0
C820 C 0.51522 0.53536 0.5077 0.0
C821 C 0.5192 0.56646 0.51097 0.0
C822 C 0.51282 0.58521 0.48712 0.0
C823 C 0.50252 0.57272 0.46046 0.0
C824 C 0.49801 0.54117 0.45817 0.0
H825 H 0.93689 0.50154 0.47382 0.0
H826 H 0.98473 0.46325 0.39985 0.0
H827 H 0.0315 0.46005 0.4293 0.0
H828 H 0.99619 0.54742 0.49892 0.0
H829 H 0.9886 0.54157 0.5371 0.0
H830 H 0.95825 0.53882 0.51103 0.0
H831 H 0.94571 0.4846 0.52917 0.0
H832 H 0.97581 0.48731 0.55557 0.0
H833 H 0.97521 0.45632 0.53001 0.0
H834 H 0.07339 0.46383 0.4656 0.0
H835 H 0.10752 0.47199 0.50745 0.0
H836 H 0.03221 0.50787 0.55767 0.0
C837 C 0.95701 0.4918 0.46404 0.0
C838 C 0.95727 0.48255 0.43463 0.0
C839 C 0.98421 0.47062 0.42234 0.0
C840 C 0.01078 0.46863 0.43888 0.0
C841 C 0.00992 0.47857 0.46764 0.0
C842 C 0.9837 0.48967 0.48022 0.0
C843 C 0.98915 0.49988 0.51122 0.0
C844 C 0.98267 0.53394 0.51475 0.0
C845 C 0.97036 0.48088 0.53276 0.0
C846 C 0.02263 0.49313 0.51396 0.0
C847 C 0.03415 0.48082 0.4886 0.0
C848 C 0.06465 0.47335 0.48563 0.0
C849 C 0.08388 0.47834 0.50939 0.0
C850 C 0.07247 0.49073 0.53567 0.0
C851 C 0.04145 0.4982 0.53788 0.0
H852 H 0.99096 0.43399 0.9696 0.0
H853 H 0.95053 0.479 0.89509 0.0
H854 H 0.94598 0.52622 0.92376 0.0
H855 H 0.94582 0.47257 0.02612 0.0
H856 H 0.97753 0.47455 0.05082 0.0
H857 H 0.97474 0.4437 0.02525 0.0
H858 H 0.02821 0.4569 0.00544 0.0
H859 H 0.03101 0.488 0.03062 0.0
H860 H 0.03562 0.49462 0.99213 0.0
H861 H 0.9492 0.56894 0.95913 0.0
H862 H 0.95815 0.60441 -0.00027 0.0
H863 H 0.99741 0.5314 0.05072 0.0
C864 C 0.98034 0.45354 0.95961 0.0
C865 C 0.97081 0.45296 0.93031 0.0
C866 C 0.9579 0.47917 0.91759 0.0
C867 C 0.95518 0.50596 0.93368 0.0
C868 C 0.96547 0.50598 0.96234 0.0
C869 C 0.97759 0.48042 0.97528 0.0
C870 C 0.98855 0.48691 0.00584 0.0
C871 C 0.97058 0.46833 0.02833 0.0
C872 C 0.02288 0.48128 0.00865 0.0
C873 C 0.98112 0.52024 0.0079 0.0
C874 C 0.96771 0.53076 0.98264 0.0
C875 C 0.95956 0.56098 0.97908 0.0
C876 C 0.96504 0.58098 0.00211 0.0
C877 C 0.97867 0.57061 0.02822 0.0
C878 C 0.98677 0.53985 0.03107 0.0
H879 H 0.01557 0.99287 0.93946 0.0
H880 H 0.09621 0.02784 0.98191 0.0
H881 H 0.06479 0.04726 0.0223 0.0
H882 H 0.96523 0.05434 0.95956 0.0
H883 H 0.93313 0.02982 0.96558 0.0
H884 H 0.96178 0.01946 0.9394 0.0
H885 H 0.9701 0.96818 0.96588 0.0
H886 H 0.94112 0.97817 0.99175 0.0
H887 H 0.9785 0.96806 0.00431 0.0
H888 H 0.02496 0.06198 0.05832 0.0
H889 H 0.97985 0.06637 0.09002 0.0
H890 H 0.92548 0.02162 0.02406 0.0
C891 C 0.02653 0.00464 0.95728 0.0
C892 C 0.05824 0.0087 0.95776 0.0
C893 C 0.07194 0.02404 0.98145 0.0
C894 C 0.05428 0.0355 0.00426 0.0
C895 C 0.02302 0.03143 0.00297 0.0
C896 C 0.00928 0.0161 0.98028 0.0
C897 C 0.97544 0.01344 0.98491 0.0
C898 C 0.95787 0.03027 0.96093 0.0
C899 C 0.96573 0.97998 0.98684 0.0
C900 C 0.97239 0.02929 0.01395 0.0
C901 C 2e-05 0.03987 0.02382 0.0
C902 C 0.00314 0.05397 0.05079 0.0
C903 C 0.97746 0.05636 0.06861 0.0
C904 C 0.94921 0.04452 0.05938 0.0
C905 C 0.94659 0.03158 0.03138 0.0
H906 H 0.49869 0.02704 0.94138 0.0
H907 H 0.46664 0.10333 0.99256 0.0
H908 H 0.45827 0.06945 0.03447 0.0
H909 H 0.44517 0.972 0.97053 0.0
H910 H 0.47238 0.94152 0.97025 0.0
H911 H 0.47522 0.97167 0.94389 0.0
H912 H 0.53048 0.98235 0.96028 0.0
H913 H 0.52787 0.95213 0.98648 0.0
H914 H 0.53818 0.98973 -0.00182 0.0
H915 H 0.45534 0.02794 0.07131 0.0
H916 H 0.45913 0.98124 0.10094 0.0
H917 H 0.49155 0.93209 0.02527 0.0
C918 C 0.48969 0.03655 0.96133 0.0
C919 C 0.48362 0.06782 0.96382 0.0
C920 C 0.47208 0.07951 0.99037 0.0
C921 C 0.46691 0.06043 0.01419 0.0
C922 C 0.47314 0.02972 0.011 0.0
C923 C 0.48426 0.01783 0.98528 0.0
C924 C 0.4899 0.98416 0.98786 0.0
C925 C 0.46944 0.96629 0.96688 0.0
C926 C 0.52361 0.97667 0.98292 0.0
C927 C 0.4807 0.97912 0.01921 0.0
C928 C 0.47092 0.00564 0.03213 0.0
C929 C 0.46267 0.00694 0.0614 0.0
C930 C 0.46495 0.98043 0.07803 0.0
C931 C 0.47532 0.95317 0.06524 0.0
C932 C 0.48286 0.95249 0.03539 0.0
H933 H 0.47222 0.52491 0.9395 0.0
H934 H 0.38854 0.50858 0.98679 0.0
H935 H 0.41792 0.49492 0.03055 0.0
H936 H 0.51296 0.46366 0.96818 0.0
H937 H 0.54874 0.48324 0.9707 0.0
H938 H 0.52138 0.49447 0.94367 0.0
H939 H 0.52191 0.54954 0.96333 0.0
H940 H 0.54981 0.53864 0.99 0.0
H941 H 0.51492 0.55625 0.00148 0.0
H942 H 0.45621 0.47869 0.06761 0.0
H943 H 0.50122 0.46687 0.09758 0.0
H944 H 0.55967 0.49471 0.02625 0.0
C945 C 0.46014 0.519 0.95925 0.0
C946 C 0.42817 0.51805 0.95989 0.0
C947 C 0.41305 0.51006 0.98603 0.0
C948 C 0.42952 0.50194 0.01089 0.0
C949 C 0.46102 0.50214 0.00924 0.0
C950 C 0.4762 0.51098 0.98429 0.0
C951 C 0.51018 0.50875 0.98812 0.0
C952 C 0.52412 0.48618 0.96637 0.0
C953 C 0.52508 0.54016 0.9856 0.0
C954 C 0.51168 0.49677 0.01895 0.0
C955 C 0.4831 0.49302 0.03071 0.0
C956 C 0.47875 0.48185 0.05878 0.0
C957 C 0.5044 0.47516 0.07559 0.0
C958 C 0.53394 0.4798 0.06426 0.0
C959 C 0.53745 0.49036 0.0354 0.0
H960 H 0.94187 0.24716 0.66743 0.0
H961 H 0.88424 0.17307 0.69413 0.0
H962 H 0.86822 0.20238 0.7376 0.0
H963 H 0.97235 0.26006 0.73056 0.0
H964 H 0.97498 0.30078 0.72871 0.0
H965 H 0.97396 0.27905 0.6958 0.0
H966 H 0.92714 0.30926 0.67788 0.0
H967 H 0.92828 0.33165 0.71072 0.0
H968 H 0.89398 0.31202 0.70071 0.0
H969 H 0.86955 0.23351 0.78325 0.0
H970 H 0.88687 0.26368 0.82555 0.0
H971 H 0.94344 0.31764 0.76853 0.0
C972 C 0.92471 0.23794 0.6818 0.0
C973 C 0.91397 0.20827 0.67768 0.0
C974 C 0.89214 0.19612 0.69692 0.0
C975 C 0.88304 0.21261 0.72158 0.0
C976 C 0.89561 0.24129 0.7261 0.0
C977 C 0.91554 0.25411 0.70629 0.0
C978 C 0.92987 0.28268 0.71804 0.0
C979 C 0.96482 0.28046 0.71831 0.0
C980 C 0.91916 0.31055 0.70081 0.0
C981 C 0.9169 0.28265 0.74845 0.0
C982 C 0.8965 0.2592 0.75255 0.0
C983 C 0.88472 0.2525 0.78005 0.0
C984 C 0.89467 0.26968 0.80395 0.0
C985 C 0.91652 0.29281 0.80012 0.0
C986 C 0.92674 0.30001 0.77191 0.0
H987 H 0.2483 0.94267 0.67475 0.0
H988 H 0.31531 0.87764 0.70347 0.0
H989 H 0.28077 0.86092 0.74291 0.0
H990 H 0.2294 0.96862 0.73978 0.0
H991 H 0.18943 0.97386 0.73326 0.0
H992 H 0.21549 0.97462 0.7033 0.0
H993 H 0.18536 0.93178 0.67773 0.0
H994 H 0.15897 0.93094 0.70775 0.0
H995 H 0.17818 0.89675 0.69675 0.0
H996 H 0.24477 0.86047 0.78515 0.0
H997 H 0.2111 0.87614 0.82549 0.0
H998 H 0.16632 0.93977 0.76802 0.0
C999 C 0.25515 0.9242 0.68881 0.0
C1000 C 0.28424 0.91136 0.6863 0.0
C1001 C 0.29285 0.8874 0.70499 0.0
C1002 C 0.27336 0.87779 0.72735 0.0
C1003 C 0.24518 0.89194 0.73013 0.0
C1004 C 0.2359 0.9143 0.71094 0.0
C1005 C 0.20668 0.92899 0.72069 0.0
C1006 C 0.21052 0.96353 0.7245 0.0
C1007 C 0.18076 0.92166 0.69947 0.0
C1008 C 0.20217 0.91313 0.74952 0.0
C1009 C 0.22409 0.89128 0.75435 0.0
C1010 C 0.22692 0.8768 0.78126 0.0
C1011 C 0.20766 0.88576 0.80406 0.0
C1012 C 0.18621 0.90919 0.79977 0.0
C1013 C 0.18254 0.92178 0.77178 0.0
H1014 H 0.54282 0.25074 0.82333 0.0
H1015 H 0.60395 0.17704 0.80343 0.0
H1016 H 0.62222 0.2049 0.75985 0.0
H1017 H 0.51718 0.26139 0.75673 0.0
H1018 H 0.51391 0.30209 0.75779 0.0
H1019 H 0.51219 0.28076 0.79098 0.0
H1020 H 0.55676 0.31204 0.81222 0.0
H1021 H 0.55843 0.33383 0.77902 0.0
H1022 H 0.59188 0.31481 0.79226 0.0
H1023 H 0.62452 0.23517 0.71332 0.0
H1024 H 0.61125 0.265 0.66933 0.0
H1025 H 0.54918 0.31904 0.72062 0.0
C1026 C 0.56092 0.24115 0.81032 0.0
C1027 C 0.57216 0.21203 0.81647 0.0
C1028 C 0.5955 0.19963 0.79908 0.0
C1029 C 0.60593 0.2153 0.77438 0.0
C1030 C 0.59316 0.2435 0.76798 0.0
C1031 C 0.57152 0.25654 0.78588 0.0
C1032 C 0.55805 0.28473 0.77247 0.0
C1033 C 0.52331 0.28204 0.7693 0.0
C1034 C 0.56682 0.31303 0.79004 0.0
C1035 C 0.57376 0.28432 0.74328 0.0
C1036 C 0.59453 0.26093 0.74122 0.0
C1037 C 0.60899 0.25408 0.71496 0.0
C1038 C 0.60137 0.27106 0.69011 0.0
C1039 C 0.57918 0.29412 0.6918 0.0
C1040 C 0.56621 0.30146 0.7189 0.0
H1041 H 0.17366 0.5557 0.72645 0.0
H1042 H 0.21845 0.61817 0.66786 0.0
H1043 H 0.24823 0.63853 0.7089 0.0
H1044 H 0.17933 0.60494 0.79618 0.0
H1045 H 0.18673 0.57141 0.81747 0.0
H1046 H 0.16179 0.56948 0.78639 0.0
H1047 H 0.19456 0.52617 0.76477 0.0
H1048 H 0.21935 0.528 0.79554 0.0
H1049 H 0.2346 0.5323 0.75934 0.0
H1050 H 0.28196 0.64206 0.75204 0.0
H1051 H 0.31663 0.62751 0.79142 0.0
H1052 H 0.25028 0.56197 0.82201 0.0
C1053 C 0.18894 0.57445 0.72258 0.0
C1054 C 0.19387 0.58533 0.69412 0.0
C1055 C 0.21406 0.6098 0.68961 0.0
C1056 C 0.23104 0.62152 0.71286 0.0
C1057 C 0.22713 0.60885 0.74047 0.0
C1058 C 0.20612 0.58611 0.74548 0.0
C1059 C 0.21 0.5723 0.77539 0.0
C1060 C 0.18285 0.58001 0.79502 0.0
C1061 C 0.21496 0.53769 0.77362 0.0
C1062 C 0.23825 0.58873 0.78531 0.0
C1063 C 0.24715 0.61053 0.76545 0.0
C1064 C 0.27486 0.62547 0.76802 0.0
C1065 C 0.29465 0.61673 0.79043 0.0
C1066 C 0.28698 0.59267 0.8096 0.0
C1067 C 0.25748 0.58016 0.80795 0.0
H1068 H 0.04482 0.67528 0.21214 0.0
H1069 H 0.1068 0.72367 0.15568 0.0
H1070 H 0.12821 0.75016 0.19845 0.0
H1071 H 0.02305 0.73435 0.25027 0.0
H1072 H 0.01929 0.71604 0.28521 0.0
H1073 H 0.01592 0.69417 0.25252 0.0
H1074 H 0.05885 0.65843 0.27004 0.0
H1075 H 0.06215 0.68023 0.3031 0.0
H1076 H 0.09502 0.67407 0.2805 0.0
H1077 H 0.13378 0.77968 0.24447 0.0
H1078 H 0.12245 0.80959 0.28875 0.0
H1079 H 0.05569 0.743 0.31469 0.0
C1080 C 0.06359 0.69074 0.20898 0.0
C1081 C 0.07414 0.69762 0.18077 0.0
C1082 C 0.0987 0.71789 0.17723 0.0
C1083 C 0.11096 0.73298 0.20142 0.0
C1084 C 0.09868 0.72708 0.22887 0.0
C1085 C 0.07575 0.70604 0.23277 0.0
C1086 C 0.06273 0.70736 0.26321 0.0
C1087 C 0.02824 0.71337 0.26273 0.0
C1088 C 0.07015 0.67829 0.28022 0.0
C1089 C 0.08012 0.73409 0.27508 0.0
C1090 C 0.10154 0.74453 0.25544 0.0
C1091 C 0.11775 0.7712 0.26035 0.0
C1092 C 0.11121 0.78806 0.28548 0.0
C1093 C 0.08825 0.77839 0.30487 0.0
C1094 C 0.07344 0.7506 0.30011 0.0
H1095 H 0.75249 0.05129 0.18223 0.0
H1096 H 0.80833 0.12812 0.20628 0.0
H1097 H 0.77175 0.14132 0.24477 0.0
H1098 H 0.67494 0.08686 0.20589 0.0
H1099 H 0.66281 0.05005 0.21833 0.0
H1100 H 0.68675 0.0533 0.18661 0.0
H1101 H 0.72509 0.01645 0.21033 0.0
H1102 H 0.70195 0.01354 0.2422 0.0
H1103 H 0.74088 0.02556 0.24551 0.0
H1104 H 0.73965 0.13645 0.28862 0.0
H1105 H 0.71408 0.1151 0.33182 0.0
H1106 H 0.67739 0.04283 0.27875 0.0
C1107 C 0.75628 0.07191 0.19436 0.0
C1108 C 0.78355 0.08841 0.19141 0.0
C1109 C 0.78782 0.11483 0.2084 0.0
C1110 C 0.76696 0.1227 0.23016 0.0
C1111 C 0.74156 0.10434 0.23418 0.0
C1112 C 0.73571 0.07988 0.21616 0.0
C1113 C 0.71026 0.06043 0.22799 0.0
C1114 C 0.68201 0.06283 0.20855 0.0
C1115 C 0.72019 0.02708 0.23175 0.0
C1116 C 0.70507 0.0758 0.25697 0.0
C1117 C 0.72246 0.10174 0.25976 0.0
C1118 C 0.72507 0.11687 0.28634 0.0
C1119 C 0.71051 0.10458 0.31082 0.0
C1120 C 0.69397 0.07723 0.30855 0.0
C1121 C 0.69002 0.06371 0.28101 0.0
H1122 H 0.40455 0.73233 0.30953 0.0
H1123 H 0.43473 0.64915 0.26947 0.0
H1124 H 0.42137 0.66932 0.22094 0.0
H1125 H 0.3445 0.75492 0.25045 0.0
H1126 H 0.35573 0.79403 0.25386 0.0
H1127 H 0.35621 0.76954 0.28533 0.0
H1128 H 0.41266 0.78307 0.29413 0.0
H1129 H 0.41235 0.80734 0.26291 0.0
H1130 H 0.43977 0.77712 0.26525 0.0
H1131 H 0.41879 0.70195 0.17801 0.0
H1132 H 0.42986 0.74449 0.14485 0.0
H1133 H 0.40317 0.80794 0.21202 0.0
C1134 C 0.4065 0.71793 0.29055 0.0
C1135 C 0.41993 0.68913 0.29291 0.0
C1136 C 0.42392 0.67112 0.2678 0.0
C1137 C 0.41623 0.68237 0.24027 0.0
C1138 C 0.40466 0.71172 0.23829 0.0
C1139 C 0.39956 0.72925 0.26287 0.0
C1140 C 0.39355 0.76197 0.25479 0.0
C1141 C 0.36053 0.77062 0.2615 0.0
C1142 C 0.41593 0.7836 0.27015 0.0
C1143 C 0.399 0.76068 0.22226 0.0
C1144 C 0.40404 0.73129 0.21298 0.0
C1145 C 0.41402 0.72494 0.1848 0.0
C1146 C 0.42045 0.74922 0.16615 0.0
C1147 C 0.41734 0.77946 0.17588 0.0
C1148 C 0.40495 0.78509 0.20372 0.0
H1149 H 0.74635 0.43777 0.17308 0.0
H1150 H 0.6786 0.37444 0.20352 0.0
H1151 H 0.71144 0.36115 0.24548 0.0
H1152 H 0.81609 0.3951 0.20177 0.0
H1153 H 0.834 0.43053 0.21101 0.0
H1154 H 0.80933 0.42827 0.17977 0.0
H1155 H 0.77716 0.47246 0.20045 0.0
H1156 H 0.80133 0.47466 0.23175 0.0
H1157 H 0.76113 0.46909 0.23645 0.0
H1158 H 0.7456 0.36442 0.28922 0.0
H1159 H 0.77779 0.38314 0.32956 0.0
H1160 H 0.82361 0.44364 0.26975 0.0
C1161 C 0.73913 0.42021 0.18803 0.0
C1162 C 0.71025 0.40698 0.18529 0.0
C1163 C 0.70097 0.38439 0.20522 0.0
C1164 C 0.71947 0.37679 0.22903 0.0
C1165 C 0.74731 0.39157 0.23204 0.0
C1166 C 0.75733 0.41243 0.21166 0.0
C1167 C 0.78567 0.42855 0.22168 0.0
C1168 C 0.81289 0.42009 0.20241 0.0
C1169 C 0.781 0.4632 0.22265 0.0
C1170 C 0.78882 0.41524 0.25181 0.0
C1171 C 0.76706 0.39337 0.25724 0.0
C1172 C 0.76331 0.3808 0.28493 0.0
C1173 C 0.78167 0.39152 0.30772 0.0
C1174 C 0.80305 0.41483 0.30263 0.0
C1175 C 0.80739 0.42579 0.27412 0.0
H1176 H 0.24038 0.02907 0.58621 0.0
H1177 H 0.26333 0.03823 0.6777 0.0
H1178 H 0.2161 0.06739 0.68576 0.0
H1179 H 0.21266 0.10262 0.57671 0.0
H1180 H 0.18274 0.09203 0.552 0.0
H1181 H 0.21666 0.06947 0.5541 0.0
H1182 H 0.18453 0.02169 0.56549 0.0
H1183 H 0.15044 0.04405 0.56315 0.0
H1184 H 0.15823 0.02235 0.59556 0.0
H1185 H 0.16746 0.0981 0.68289 0.0
H1186 H 0.12193 0.12779 0.66912 0.0
H1187 H 0.13213 0.09854 0.57962 0.0
C1188 C 0.2353 0.03675 0.60807 0.0
C1189 C 0.25546 0.03134 0.63135 0.0
C1190 C 0.24815 0.04215 0.65954 0.0
C1191 C 0.22138 0.05867 0.66433 0.0
C1192 C 0.2023 0.06414 0.64069 0.0
C1193 C 0.20893 0.05339 0.61314 0.0
C1194 C 0.18565 0.06359 0.59105 0.0
C1195 C 0.20031 0.08309 0.56706 0.0
C1196 C 0.16871 0.03629 0.57806 0.0
C1197 C 0.16513 0.08226 0.61031 0.0
C1198 C 0.17484 0.08209 0.63894 0.0
C1199 C 0.15957 0.09819 0.66057 0.0
C1200 C 0.13374 0.11485 0.65264 0.0
C1201 C 0.12361 0.11537 0.62339 0.0
C1202 C 0.13958 0.09882 0.60207 0.0
H1203 H 0.40583 0.12065 0.57739 0.0
H1204 H 0.37353 0.11514 0.66639 0.0
H1205 H 0.39966 0.16332 0.67785 0.0
H1206 H 0.47921 0.15313 0.59337 0.0
H1207 H 0.47903 0.17716 0.56161 0.0
H1208 H 0.45901 0.14158 0.5611 0.0
H1209 H 0.40944 0.16944 0.54671 0.0
H1210 H 0.42932 0.20505 0.54708 0.0
H1211 H 0.39584 0.2001 0.56912 0.0
H1212 H 0.42749 0.21359 0.67855 0.0
H1213 H 0.45458 0.26158 0.66856 0.0
H1214 H 0.46797 0.23357 0.57884 0.0
C1215 C 0.40413 0.12961 0.59926 0.0
C1216 C 0.38778 0.1141 0.6211 0.0
C1217 C 0.38643 0.12642 0.64955 0.0
C1218 C 0.40103 0.15383 0.65616 0.0
C1219 C 0.4169 0.16857 0.63405 0.0
C1220 C 0.41854 0.15684 0.60618 0.0
C1221 C 0.4364 0.17733 0.58611 0.0
C1222 C 0.46512 0.16134 0.5749 0.0
C1223 C 0.41656 0.18865 0.56077 0.0
C1224 C 0.4442 0.20271 0.60689 0.0
C1225 C 0.43291 0.19724 0.63448 0.0
C1226 C 0.43659 0.21802 0.65707 0.0
C1227 C 0.45198 0.2452 0.65119 0.0
C1228 C 0.46344 0.25129 0.62294 0.0
C1229 C 0.45967 0.22955 0.6007 0.0
H1230 H 0.3841 0.42078 0.59187 0.0
H1231 H 0.37317 0.34769 0.65401 0.0
H1232 H 0.32768 0.37322 0.67427 0.0
H1233 H 0.3591 0.48167 0.6408 0.0
H1234 H 0.34057 0.50203 0.61177 0.0
H1235 H 0.37348 0.47914 0.60412 0.0
H1236 H 0.34324 0.44895 0.5653 0.0
H1237 H 0.3105 0.47201 0.57245 0.0
H1238 H 0.30786 0.43136 0.57541 0.0
H1239 H 0.28022 0.40475 0.68392 0.0
H1240 H 0.23501 0.4379 0.68083 0.0
H1241 H 0.27931 0.49078 0.61345 0.0
C1242 C 0.37206 0.41005 0.60964 0.0
C1243 C 0.38179 0.38207 0.62112 0.0
C1244 C 0.3659 0.3691 0.64486 0.0
C1245 C 0.34019 0.3835 0.65655 0.0
C1246 C 0.3311 0.41109 0.64455 0.0
C1247 C 0.34675 0.42424 0.6217 0.0
C1248 C 0.33184 0.45321 0.61166 0.0
C1249 C 0.35248 0.48064 0.61745 0.0
C1250 C 0.32282 0.45124 0.57931 0.0
C1251 C 0.30441 0.45359 0.63137 0.0
C1252 C 0.30453 0.42948 0.6506 0.0
C1253 C 0.28016 0.42399 0.66929 0.0
C1254 C 0.25461 0.44299 0.66747 0.0
C1255 C 0.25368 0.46696 0.64694 0.0
C1256 C 0.2794 0.47282 0.62953 0.0
H1257 H 0.11256 0.36564 0.5848 0.0
H1258 H 0.14398 0.3712 0.67395 0.0
H1259 H 0.1126 0.32644 0.68682 0.0
H1260 H 0.03577 0.34398 0.60174 0.0
H1261 H 0.03248 0.31903 0.57084 0.0
H1262 H 0.05724 0.35145 0.56909 0.0
H1263 H 0.10256 0.3166 0.55578 0.0
H1264 H 0.07787 0.28416 0.55715 0.0
H1265 H 0.11172 0.28505 0.57914 0.0
H1266 H 0.079 0.27942 0.68883 0.0
H1267 H 0.04666 0.23444 0.67974 0.0
H1268 H 0.03655 0.26208 0.58952 0.0
C1269 C 0.11306 0.35719 0.60693 0.0
C1270 C 0.1307 0.37158 0.62843 0.0
C1271 C 0.13038 0.36039 0.65732 0.0
C1272 C 0.1127 0.33506 0.66475 0.0
C1273 C 0.09529 0.32151 0.64302 0.0
C1274 C 0.09533 0.33228 0.61472 0.0
C1275 C 0.07478 0.31383 0.59532 0.0
C1276 C 0.04851 0.33323 0.58357 0.0
C1277 C 0.09281 0.29903 0.57039 0.0
C1278 C 0.0636 0.29054 0.61693 0.0
C1279 C 0.07552 0.29528 0.64437 0.0
C1280 C 0.06934 0.27565 0.66747 0.0
C1281 C 0.05096 0.25021 0.66214 0.0
C1282 C 0.039 0.24485 0.63398 0.0
C1283 C 0.04503 0.26567 0.61138 0.0
H1284 H 0.23114 0.47974 0.89811 0.0
H1285 H 0.26511 0.45331 0.81312 0.0
H1286 H 0.21869 0.42257 0.80522 0.0
H1287 H 0.20278 0.40943 0.91774 0.0
H1288 H 0.17021 0.424 0.93689 0.0
H1289 H 0.20408 0.44653 0.93412 0.0
H1290 H 0.17338 0.49045 0.91089 0.0
H1291 H 0.13926 0.46821 0.91392 0.0
H1292 H 0.15059 0.48323 0.87905 0.0
H1293 H 0.16969 0.39136 0.809 0.0
H1294 H 0.12317 0.36362 0.82379 0.0
H1295 H 0.12332 0.41096 0.90636 0.0
C1296 C 0.22873 0.46796 0.87756 0.0
C1297 C 0.25172 0.46894 0.85619 0.0
C1298 C 0.24767 0.45297 0.82973 0.0
C1299 C 0.22142 0.43545 0.8251 0.0
C1300 C 0.19956 0.43433 0.84711 0.0
C1301 C 0.20298 0.4504 0.87272 0.0
C1302 C 0.17742 0.44427 0.89383 0.0
C1303 C 0.18935 0.43022 0.92231 0.0
C1304 C 0.15907 0.47327 0.89976 0.0
C1305 C 0.15925 0.42168 0.87645 0.0
C1306 C 0.17206 0.41637 0.84943 0.0
C1307 C 0.15939 0.39564 0.82999 0.0
C1308 C 0.13298 0.38009 0.83847 0.0
C1309 C 0.11973 0.38527 0.86612 0.0
C1310 C 0.13312 0.40636 0.8852 0.0
H1311 H 0.10229 0.12774 0.91321 0.0
H1312 H 0.13255 0.11743 0.82397 0.0
H1313 H 0.1054 0.16453 0.8104 0.0
H1314 H 0.02801 0.15595 0.89643 0.0
H1315 H 0.02724 0.18188 0.92674 0.0
H1316 H 0.04904 0.14746 0.9291 0.0
H1317 H 0.09734 0.17853 0.94122 0.0
H1318 H 0.07565 0.21301 0.93914 0.0
H1319 H 0.1091 0.20848 0.91699 0.0
H1320 H 0.07591 0.21389 0.8074 0.0
H1321 H 0.04649 0.26104 0.81512 0.0
H1322 H 0.03519 0.23734 0.90627 0.0
C1323 C 0.1035 0.13561 0.89091 0.0
C1324 C 0.11954 0.11913 0.86961 0.0
C1325 C 0.12011 0.12973 0.84049 0.0
C1326 C 0.10487 0.15643 0.83265 0.0
C1327 C 0.08906 0.17207 0.85422 0.0
C1328 C 0.08827 0.16198 0.88273 0.0
C1329 C 0.0696 0.18269 0.90181 0.0
C1330 C 0.04183 0.16599 0.91424 0.0
C1331 C 0.08909 0.1965 0.92622 0.0
C1332 C 0.06035 0.20631 0.87971 0.0
C1333 C 0.0717 0.19986 0.85235 0.0
C1334 C 0.06675 0.21908 0.82869 0.0
C1335 C 0.05003 0.24575 0.83327 0.0
C1336 C 0.03846 0.25277 0.86125 0.0
C1337 C 0.04349 0.23253 0.88456 0.0
H1338 H 0.35956 0.09493 0.91177 0.0
H1339 H 0.36254 0.13914 0.82759 0.0
H1340 H 0.31898 0.10798 0.81106 0.0
H1341 H 0.3401 0.02014 0.88482 0.0
H1342 H 0.31583 0.01177 0.91539 0.0
H1343 H 0.34769 0.03689 0.91987 0.0
H1344 H 0.31198 0.07885 0.93962 0.0
H1345 H 0.28013 0.05375 0.93553 0.0
H1346 H 0.27972 0.09042 0.9182 0.0
H1347 H 0.27252 0.07407 0.80549 0.0
H1348 H 0.2277 0.04071 0.8114 0.0
H1349 H 0.25786 0.0177 0.89863 0.0
C1350 C 0.35088 0.09817 0.88994 0.0
C1351 C 0.3641 0.11949 0.87096 0.0
C1352 C 0.35262 0.12276 0.84234 0.0
C1353 C 0.32798 0.10519 0.83282 0.0
C1354 C 0.31546 0.08423 0.85213 0.0
C1355 C 0.32668 0.08061 0.88005 0.0
C1356 C 0.30911 0.05699 0.89682 0.0
C1357 C 0.3294 0.02984 0.90467 0.0
C1358 C 0.29436 0.07084 0.92414 0.0
C1359 C 0.28566 0.04841 0.8743 0.0
C1360 C 0.28966 0.06419 0.84859 0.0
C1361 C 0.26941 0.06129 0.8254 0.0
C1362 C 0.24408 0.04228 0.82891 0.0
C1363 C 0.2394 0.02644 0.85538 0.0
C1364 C 0.26095 0.02911 0.87796 0.0
H1365 H 0.39548 0.37943 0.91701 0.0
H1366 H 0.34664 0.38145 0.83508 0.0
H1367 H 0.37157 0.33363 0.82032 0.0
H1368 H 0.46533 0.35037 0.88828 0.0
H1369 H 0.47308 0.32719 0.91974 0.0
H1370 H 0.45144 0.36157 0.92361 0.0
H1371 H 0.40735 0.33146 0.94736 0.0
H1372 H 0.42902 0.2971 0.94392 0.0
H1373 H 0.39152 0.29935 0.92845 0.0
H1374 H 0.40143 0.2845 0.81532 0.0
H1375 H 0.43209 0.23783 0.82144 0.0
H1376 H 0.46147 0.26975 0.90628 0.0
C1377 C 0.38968 0.36963 0.89615 0.0
C1378 C 0.36901 0.38405 0.87726 0.0
C1379 C 0.36256 0.37081 0.84982 0.0
C1380 C 0.37659 0.34369 0.84126 0.0
C1381 C 0.39716 0.33024 0.86033 0.0
C1382 C 0.4036 0.34279 0.88722 0.0
C1383 C 0.42638 0.32396 0.90382 0.0
C1384 C 0.4558 0.34185 0.90916 0.0
C1385 C 0.41274 0.31227 0.93258 0.0
C1386 C 0.43136 0.29853 0.88234 0.0
C1387 C 0.41451 0.30252 0.85727 0.0
C1388 C 0.41485 0.28123 0.8348 0.0
C1389 C 0.43236 0.25487 0.83841 0.0
C1390 C 0.44917 0.25017 0.8643 0.0
C1391 C 0.449 0.27266 0.88615 0.0
H1392 H 0.89728 0.9193 0.40882 0.0
H1393 H 0.88433 0.84607 0.3473 0.0
H1394 H 0.83656 0.86994 0.33038 0.0
H1395 H 0.82123 0.92688 0.43009 0.0
H1396 H 0.82263 0.96757 0.43325 0.0
H1397 H 0.85653 0.94559 0.4384 0.0
H1398 H 0.88338 0.97717 0.3983 0.0
H1399 H 0.84932 -0.00103 0.39265 0.0
H1400 H 0.86682 0.97952 0.36248 0.0
H1401 H 0.78855 0.90053 0.32268 0.0
H1402 H 0.74294 0.93278 0.32742 0.0
H1403 H 0.78851 0.98607 0.39367 0.0
C1404 C 0.88432 0.90826 0.39185 0.0
C1405 C 0.89428 0.88083 0.37939 0.0
C1406 C 0.87699 0.86719 0.35699 0.0
C1407 C 0.84997 0.88064 0.34722 0.0
C1408 C 0.8409 0.9079 0.35983 0.0
C1409 C 0.85759 0.9215 0.38171 0.0
C1410 C 0.84229 0.94987 0.3928 0.0
C1411 C 0.83524 0.9473 0.42556 0.0
C1412 C 0.86161 0.97805 0.38615 0.0
C1413 C 0.81372 0.94949 0.37463 0.0
C1414 C 0.81352 0.92548 0.35532 0.0
C1415 C 0.78861 0.9196 0.33749 0.0
C1416 C 0.76285 0.93811 0.34024 0.0
C1417 C 0.7622 0.96195 0.3609 0.0
C1418 C 0.78837 0.96816 0.37755 0.0
H1419 H 0.60715 0.86899 0.4079 0.0
H1420 H 0.67379 0.85513 0.34006 0.0
H1421 H 0.64381 0.81166 0.32106 0.0
H1422 H 0.59017 0.79154 0.42207 0.0
H1423 H 0.55033 0.79839 0.42791 0.0
H1424 H 0.57745 0.82783 0.43532 0.0
H1425 H 0.54821 0.86378 0.40051 0.0
H1426 H 0.52131 0.83419 0.39253 0.0
H1427 H 0.5417 0.85241 0.36332 0.0
H1428 H 0.60658 0.76844 0.31108 0.0
H1429 H 0.56748 0.72814 0.31263 0.0
H1430 H 0.52432 0.77357 0.3855 0.0
C1431 C 0.61551 0.85648 0.38927 0.0
C1432 C 0.64285 0.86476 0.37561 0.0
C1433 C 0.65296 0.8486 0.35087 0.0
C1434 C 0.63602 0.82413 0.33992 0.0
C1435 C 0.60875 0.81678 0.35365 0.0
C1436 C 0.59862 0.83256 0.3778 0.0
C1437 C 0.56882 0.82026 0.38885 0.0
C1438 C 0.57189 0.80882 0.42039 0.0
C1439 C 0.54352 0.84408 0.38613 0.0
C1440 C 0.56407 0.79446 0.36771 0.0
C1441 C 0.58711 0.79287 0.34736 0.0
C1442 C 0.58827 0.76968 0.32673 0.0
C1443 C 0.56588 0.74698 0.32766 0.0
C1444 C 0.54277 0.74774 0.34911 0.0
C1445 C 0.54148 0.77239 0.36866 0.0
H1446 H 0.73675 0.52821 0.4016 0.0
H1447 H 0.7644 0.54368 0.31209 0.0
H1448 H 0.71936 0.57631 0.30466 0.0
H1449 H 0.65452 0.52841 0.38938 0.0
H1450 H 0.64726 0.54796 0.42313 0.0
H1451 H 0.67961 0.52324 0.41998 0.0
H1452 H 0.71473 0.56735 0.43591 0.0
H1453 H 0.6826 0.59233 0.43865 0.0
H1454 H 0.71422 0.60238 0.4157 0.0
H1455 H 0.67251 0.6095 0.30818 0.0
H1456 H 0.62801 0.64043 0.3224 0.0
H1457 H 0.63325 0.60437 0.41006 0.0
C1458 C 0.73303 0.53785 0.38021 0.0
C1459 C 0.7539 0.53321 0.35732 0.0
C1460 C 0.74854 0.54682 0.32985 0.0
C1461 C 0.72307 0.56537 0.32546 0.0
C1462 C 0.70339 0.57014 0.3488 0.0
C1463 C 0.70808 0.55666 0.3756 0.0
C1464 C 0.68483 0.56687 0.39774 0.0
C1465 C 0.6654 0.54002 0.40816 0.0
C1466 C 0.70001 0.5832 0.42351 0.0
C1467 C 0.66653 0.58858 0.37938 0.0
C1468 C 0.6773 0.58995 0.35112 0.0
C1469 C 0.66388 0.60854 0.33023 0.0
C1470 C 0.63869 0.62598 0.33846 0.0
C1471 C 0.62745 0.62491 0.36735 0.0
C1472 C 0.64171 0.60604 0.38799 0.0
H1473 H 0.92322 0.60854 0.37095 0.0
H1474 H 0.83535 0.6496 0.35704 0.0
H1475 H 0.86004 0.69872 0.34599 0.0
H1476 H 0.95285 0.66777 0.41023 0.0
H1477 H 0.99103 0.66516 0.3964 0.0
H1478 H 0.96724 0.6321 0.39697 0.0
H1479 H 0.97559 0.62486 0.3415 0.0
H1480 H -0.0005 0.65802 0.34071 0.0
H1481 H 0.96712 0.65554 0.31689 0.0
H1482 H 0.89347 0.74367 0.34077 0.0
H1483 H 0.93241 0.7831 0.34754 0.0
H1484 H 0.9986 0.71398 0.36942 0.0
C1485 C 0.90946 0.62781 0.36476 0.0
C1486 C 0.87759 0.62562 0.36439 0.0
C1487 C 0.85986 0.65118 0.35719 0.0
C1488 C 0.87369 0.67894 0.35068 0.0
C1489 C 0.90524 0.68066 0.35179 0.0
C1490 C 0.92294 0.65585 0.35889 0.0
C1491 C 0.9559 0.66476 0.36261 0.0
C1492 C 0.96741 0.657 0.39338 0.0
C1493 C 0.9757 0.64991 0.33902 0.0
C1494 C 0.95368 0.69867 0.35798 0.0
C1495 C 0.92446 0.70714 0.35066 0.0
C1496 C 0.91649 0.73732 0.34624 0.0
C1497 C 0.93876 0.75954 0.35012 0.0
C1498 C 0.96841 0.75149 0.3591 0.0
C1499 C 0.97607 0.72065 0.36256 0.0
H1500 H 0.85102 0.61274 0.0755 0.0
H1501 H 0.86773 0.62993 0.16703 0.0
H1502 H 0.82526 0.59584 0.18015 0.0
H1503 H 0.77012 0.61085 0.07942 0.0
H1504 H 0.7665 0.58086 0.05301 0.0
H1505 H 0.79838 0.60626 0.05137 0.0
H1506 H 0.83504 0.56035 0.05358 0.0
H1507 H 0.80324 0.53481 0.05551 0.0
H1508 H 0.83207 0.53381 0.08331 0.0
H1509 H 0.77943 0.56122 0.18279 0.0
H1510 H 0.73419 0.52902 0.17474 0.0
H1511 H 0.74919 0.53388 0.08141 0.0
C1512 C 0.84553 0.60959 0.09828 0.0
C1513 C 0.86248 0.62405 0.12029 0.0
C1514 C 0.85504 0.61887 0.14989 0.0
C1515 C 0.83098 0.59962 0.15751 0.0
C1516 C 0.8148 0.58556 0.13522 0.0
C1517 C 0.82184 0.59029 0.10622 0.0
C1518 C 0.80105 0.57256 0.08638 0.0
C1519 C 0.78294 0.59391 0.06638 0.0
C1520 C 0.81892 0.54899 0.06866 0.0
C1521 C 0.78083 0.55751 0.1087 0.0
C1522 C 0.7891 0.56519 0.13677 0.0
C1523 C 0.77288 0.55489 0.16091 0.0
C1524 C 0.74725 0.53666 0.15614 0.0
C1525 C 0.73831 0.52888 0.12747 0.0
C1526 C 0.75567 0.53911 0.1036 0.0
H1527 H 0.97328 0.77763 0.09248 0.0
H1528 H 0.92873 0.73973 0.16855 0.0
H1529 H 0.89738 0.78611 0.17265 0.0
H1530 H 0.97294 0.8572 0.11659 0.0
H1531 H 0.96603 0.87085 0.08019 0.0
H1532 H 0.98697 0.83627 0.08568 0.0
H1533 H 0.94899 0.80803 0.05221 0.0
H1534 H 0.92756 0.84231 0.04712 0.0
H1535 H 0.90911 0.80877 0.06086 0.0
H1536 H 0.86791 0.83483 0.16544 0.0
H1537 H 0.84525 0.8834 0.14982 0.0
H1538 H 0.9092 0.88829 0.07815 0.0
C1539 C 0.95739 0.77925 0.1104 0.0
C1540 C 0.95345 0.7551 0.13024 0.0
C1541 C 0.93227 0.75809 0.15325 0.0
C1542 C 0.91429 0.78426 0.15565 0.0
C1543 C 0.91798 0.80714 0.13496 0.0
C1544 C 0.93932 0.80502 0.11302 0.0
C1545 C 0.93801 0.83198 0.09272 0.0
C1546 C 0.96775 0.85015 0.09388 0.0
C1547 C 0.93046 0.82217 0.06138 0.0
C1548 C 0.91211 0.84941 0.10623 0.0
C1549 C 0.90095 0.83485 0.13067 0.0
C1550 C 0.8767 0.84655 0.14652 0.0
C1551 C 0.86397 0.87411 0.13746 0.0
C1552 C 0.87545 0.88963 0.11274 0.0
C1553 C 0.89963 0.87681 0.09685 0.0
H1554 H 0.74134 0.97093 0.08952 0.0
H1555 H 0.76607 0.95706 0.18004 0.0
H1556 H 0.71967 0.92609 0.18709 0.0
H1557 H 0.6602 0.97604 0.10023 0.0
H1558 H 0.65188 0.95626 0.06683 0.0
H1559 H 0.68601 0.97845 0.06985 0.0
H1560 H 0.71797 0.93142 0.05556 0.0
H1561 H 0.68399 0.90902 0.05272 0.0
H1562 H 0.71427 0.89699 0.07641 0.0
H1563 H 0.67062 0.89535 0.18324 0.0
H1564 H 0.62414 0.86769 0.16902 0.0
H1565 H 0.63329 0.9018 0.08081 0.0
C1566 C 0.73696 0.96168 0.11097 0.0
C1567 C 0.75728 0.96648 0.13428 0.0
C1568 C 0.75077 0.95369 0.16189 0.0
C1569 C 0.72449 0.9361 0.16607 0.0
C1570 C 0.70515 0.93151 0.14239 0.0
C1571 C 0.71115 0.94402 0.11541 0.0
C1572 C 0.68751 0.93512 0.09316 0.0
C1573 C 0.67039 0.96313 0.08186 0.0
C1574 C 0.7018 0.91706 0.06799 0.0
C1575 C 0.66728 0.91533 0.11168 0.0
C1576 C 0.6776 0.91363 0.14007 0.0
C1577 C 0.66236 0.89662 0.16108 0.0
C1578 C 0.63594 0.88105 0.1528 0.0
C1579 C 0.62512 0.88243 0.12372 0.0
C1580 C 0.64117 0.89984 0.10305 0.0
H1581 H 0.58896 0.61725 0.08104 0.0
H1582 H 0.62999 0.61114 0.16659 0.0
H1583 H 0.60693 0.66038 0.17998 0.0
H1584 H 0.60172 0.69594 0.07105 0.0
H1585 H 0.56655 0.7022 0.05198 0.0
H1586 H 0.58469 0.66572 0.05031 0.0
H1587 H 0.53549 0.64028 0.06934 0.0
H1588 H 0.51722 0.67674 0.07119 0.0
H1589 H 0.51899 0.65302 0.10311 0.0
H1590 H 0.5808 0.71177 0.18279 0.0
H1591 H 0.55499 0.76086 0.17448 0.0
H1592 H 0.53262 0.73264 0.08652 0.0
C1593 C 0.59322 0.62628 0.10255 0.0
C1594 C 0.61107 0.61029 0.12289 0.0
C1595 C 0.61583 0.62277 0.15094 0.0
C1596 C 0.60299 0.65077 0.15863 0.0
C1597 C 0.58552 0.66596 0.13795 0.0
C1598 C 0.5807 0.65411 0.11048 0.0
C1599 C 0.56197 0.67518 0.09182 0.0
C1600 C 0.57981 0.68536 0.0647 0.0
C1601 C 0.53161 0.66042 0.08338 0.0
C1602 C 0.55734 0.70104 0.11289 0.0
C1603 C 0.57084 0.69531 0.13948 0.0
C1604 C 0.57003 0.71641 0.16208 0.0
C1605 C 0.55532 0.7442 0.15718 0.0
C1606 C 0.54181 0.75057 0.12986 0.0
C1607 C 0.54266 0.72849 0.10767 0.0
loop_
_geom_bond_atom_site_label_1
_geom_bond_atom_site_label_2
_geom_bond_distance
_geom_bond_site_symmetry_2
_ccdc_geom_bond_type
C0 C1 1.351 . S
C0 N3 1.368 . S
C0 H5 0.931 . S
C1 C0 1.351 . S
C1 N2 1.373 . S
C1 H29 0.930 . S
N2 C1 1.373 . S
N2 C4 1.340 . S
N3 C0 1.368 . S
N3 C4 1.321 . S
N3 Co6 2.135 . S
C4 N2 1.340 . S
C4 N3 1.321 . S
C4 H28 0.930 . S
H5 C0 0.931 . S
Co6 N3 2.135 . S
Co6 N9 2.121 1_455 S
Co6 O14 2.055 . S
Co6 O17 2.039 . S
Co6 N20 2.140 1_455 S
C7 O8 1.227 . S
C7 O17 1.265 . S
O8 C7 1.227 . S
N9 Co6 2.121 1_655 S
N9 C11 1.375 . S
N9 C12 1.313 . S
C10 C11 1.338 . S
C10 N13 1.377 . S
C10 H30 0.930 . S
C11 N9 1.375 . S
C11 C10 1.338 . S
C11 H15 0.931 . S
C12 N9 1.313 . S
C12 N13 1.344 . S
C12 H16 0.930 . S
N13 C10 1.377 . S
N13 C12 1.344 . S
O14 Co6 2.055 . S
O14 C18 1.253 . S
H15 C11 0.931 . S
H16 C12 0.930 . S
O17 Co6 2.039 . S
O17 C7 1.265 . S
C18 O14 1.253 . S
C18 O19 1.227 . S
O19 C18 1.227 . S
N20 Co6 2.140 1_655 S
N20 C23 1.338 1_655 S
N20 C24 1.345 . S
C21 C22 1.387 . S
C21 C25 1.391 . S
C22 C21 1.387 . S
C22 C23 1.350 1_655 S
C22 H31 0.929 . S
C23 N20 1.338 1_455 S
C23 C22 1.350 1_455 S
C23 H26 0.959 . S
C24 N20 1.345 . S
C24 C25 1.371 . S
C24 H27 0.931 . S
C25 C21 1.391 . S
C25 C24 1.371 . S
C25 H32 0.930 . S
H26 C23 0.959 . S
H27 C24 0.931 . S
H28 C4 0.930 . S
H29 C1 0.930 . S
H30 C10 0.930 . S
H31 C22 0.929 . S
H32 C25 0.930 . S
C33 C34 1.351 . S
C33 N36 1.368 . S
C33 H38 0.931 . S
C34 C33 1.351 . S
C34 N35 1.373 . S
C34 H62 0.930 . S
N35 C34 1.373 . S
N35 C37 1.340 . S
N36 C33 1.368 . S
N36 C37 1.321 . S
N36 Co39 2.135 . S
C37 N35 1.340 . S
C37 N36 1.321 . S
C37 H61 0.930 . S
H38 C33 0.931 . S
Co39 N36 2.135 . S
Co39 N42 2.121 1_545 S
Co39 O47 2.055 . S
Co39 O50 2.039 . S
Co39 N53 2.140 1_545 S
C40 O41 1.227 . S
C40 O50 1.265 . S
O41 C40 1.227 . S
N42 Co39 2.121 1_565 S
N42 C44 1.375 . S
N42 C45 1.313 . S
C43 C44 1.338 . S
C43 N46 1.377 . S
C43 H63 0.930 . S
C44 N42 1.375 . S
C44 C43 1.338 . S
C44 H48 0.931 . S
C45 N42 1.313 . S
C45 N46 1.344 . S
C45 H49 0.930 . S
N46 C43 1.377 . S
N46 C45 1.344 . S
O47 Co39 2.055 . S
O47 C51 1.253 . S
H48 C44 0.931 . S
H49 C45 0.930 . S
O50 Co39 2.039 . S
O50 C40 1.265 . S
C51 O47 1.253 . S
C51 O52 1.227 . S
O52 C51 1.227 . S
N53 Co39 2.140 1_565 S
N53 C56 1.338 1_565 S
N53 C57 1.345 . S
C54 C55 1.387 . S
C54 C58 1.391 . S
C55 C54 1.387 . S
C55 C56 1.350 1_565 S
C55 H64 0.929 . S
C56 N53 1.338 1_545 S
C56 C55 1.350 1_545 S
C56 H59 0.959 . S
C57 N53 1.345 . S
C57 C58 1.371 . S
C57 H60 0.931 . S
C58 C54 1.391 . S
C58 C57 1.371 . S
C58 H65 0.930 . S
H59 C56 0.959 . S
H60 C57 0.931 . S
H61 C37 0.930 . S
H62 C34 0.930 . S
H63 C43 0.930 . S
H64 C55 0.929 . S
H65 C58 0.930 . S
C66 C67 1.351 . S
C66 N69 1.368 . S
C66 H71 0.931 . S
C67 C66 1.351 . S
C67 N68 1.373 . S
C67 H95 0.930 . S
N68 C67 1.373 . S
N68 C70 1.340 . S
N69 C66 1.368 . S
N69 C70 1.321 . S
N69 Co72 2.135 . S
C70 N68 1.340 . S
C70 N69 1.321 . S
C70 H94 0.930 . S
H71 C66 0.931 . S
Co72 N69 2.135 . S
Co72 N75 2.121 . S
Co72 O80 2.055 . S
Co72 O83 2.039 . S
Co72 N86 2.140 . S
C73 O74 1.227 . S
C73 O83 1.265 . S
O74 C73 1.227 . S
N75 Co72 2.121 . S
N75 C77 1.375 . S
N75 C78 1.313 . S
C76 C77 1.338 . S
C76 N79 1.377 . S
C76 H96 0.930 . S
C77 N75 1.375 . S
C77 C76 1.338 . S
C77 H81 0.931 . S
C78 N75 1.313 . S
C78 N79 1.344 . S
C78 H82 0.930 . S
N79 C76 1.377 . S
N79 C78 1.344 . S
O80 Co72 2.055 . S
O80 C84 1.253 . S
H81 C77 0.931 . S
H82 C78 0.930 . S
O83 Co72 2.039 . S
O83 C73 1.265 . S
C84 O80 1.253 . S
C84 O85 1.227 . S
O85 C84 1.227 . S
N86 Co72 2.140 . S
N86 C89 1.346 . S
N86 C90 1.345 . S
C87 C88 1.387 . S
C87 C91 1.391 . S
C88 C87 1.387 . S
C88 C89 1.369 . S
C88 H97 0.929 . S
C89 N86 1.346 . S
C89 C88 1.369 . S
C89 H92 0.928 . S
C90 N86 1.345 . S
C90 C91 1.371 . S
C90 H93 0.931 . S
C91 C87 1.391 . S
C91 C90 1.371 . S
C91 H98 0.930 . S
H92 C89 0.928 . S
H93 C90 0.931 . S
H94 C70 0.930 . S
H95 C67 0.930 . S
H96 C76 0.930 . S
H97 C88 0.929 . S
H98 C91 0.930 . S
C99 C100 1.351 . S
C99 N102 1.368 . S
C99 H104 0.931 . S
C100 C99 1.351 . S
C100 N101 1.373 . S
C100 H128 0.930 . S
N101 C100 1.373 . S
N101 C103 1.340 . S
N102 C99 1.368 . S
N102 C103 1.321 . S
N102 Co105 2.135 . S
C103 N101 1.340 . S
C103 N102 1.321 . S
C103 H127 0.930 . S
H104 C99 0.931 . S
Co105 N102 2.135 . S
Co105 N108 2.121 . S
Co105 O113 2.055 . S
Co105 O116 2.039 . S
Co105 N119 2.140 . S
C106 O107 1.227 . S
C106 O116 1.265 . S
O107 C106 1.227 . S
N108 Co105 2.121 . S
N108 C110 1.375 . S
N108 C111 1.313 . S
C109 C110 1.338 . S
C109 N112 1.377 . S
C109 H129 0.930 . S
C110 N108 1.375 . S
C110 C109 1.338 . S
C110 H114 0.931 . S
C111 N108 1.313 . S
C111 N112 1.344 . S
C111 H115 0.930 . S
N112 C109 1.377 . S
N112 C111 1.344 . S
O113 Co105 2.055 . S
O113 C117 1.253 . S
H114 C110 0.931 . S
H115 C111 0.930 . S
O116 Co105 2.039 . S
O116 C106 1.265 . S
C117 O113 1.253 . S
C117 O118 1.227 . S
O118 C117 1.227 . S
N119 Co105 2.140 . S
N119 C122 1.346 . S
N119 C123 1.345 . S
C120 C121 1.387 . S
C120 C124 1.391 . S
C121 C120 1.387 . S
C121 C122 1.369 . S
C121 H130 0.929 . S
C122 N119 1.346 . S
C122 C121 1.369 . S
C122 H125 0.928 . S
C123 N119 1.345 . S
C123 C124 1.371 . S
C123 H126 0.931 . S
C124 C120 1.391 . S
C124 C123 1.371 . S
C124 H131 0.930 . S
H125 C122 0.928 . S
H126 C123 0.931 . S
H127 C103 0.930 . S
H128 C100 0.930 . S
H129 C109 0.930 . S
H130 C121 0.929 . S
H131 C124 0.930 . S
C132 C133 1.351 . S
C132 N135 1.368 . S
C132 H137 0.931 . S
C133 C132 1.351 . S
C133 N134 1.373 . S
C133 H161 0.930 . S
N134 C133 1.373 . S
N134 C136 1.340 . S
N135 C132 1.368 . S
N135 C136 1.321 . S
N135 Co138 2.135 . S
C136 N134 1.340 . S
C136 N135 1.321 . S
C136 H160 0.930 . S
H137 C132 0.931 . S
Co138 N135 2.135 . S
Co138 N141 2.121 1_455 S
Co138 O146 2.055 . S
Co138 O149 2.039 . S
Co138 N152 2.140 1_455 S
C139 O140 1.227 . S
C139 O149 1.265 . S
O140 C139 1.227 . S
N141 Co138 2.121 1_655 S
N141 C143 1.375 . S
N141 C144 1.313 . S
C142 C143 1.338 . S
C142 N145 1.377 . S
C142 H162 0.930 . S
C143 N141 1.375 . S
C143 C142 1.338 . S
C143 H147 0.931 . S
C144 N141 1.313 . S
C144 N145 1.344 . S
C144 H148 0.930 . S
N145 C142 1.377 . S
N145 C144 1.344 . S
O146 Co138 2.055 . S
O146 C150 1.253 . S
H147 C143 0.931 . S
H148 C144 0.930 . S
O149 Co138 2.039 . S
O149 C139 1.265 . S
C150 O146 1.253 . S
C150 O151 1.227 . S
O151 C150 1.227 . S
N152 Co138 2.140 1_655 S
N152 C155 1.338 1_655 S
N152 C156 1.345 . S
C153 C154 1.387 . S
C153 C157 1.391 . S
C154 C153 1.387 . S
C154 C155 1.350 1_655 S
C154 H163 0.929 . S
C155 N152 1.338 1_455 S
C155 C154 1.350 1_455 S
C155 H158 0.959 . S
C156 N152 1.345 . S
C156 C157 1.371 . S
C156 H159 0.931 . S
C157 C153 1.391 . S
C157 C156 1.371 . S
C157 H164 0.930 . S
H158 C155 0.959 . S
H159 C156 0.931 . S
H160 C136 0.930 . S
H161 C133 0.930 . S
H162 C142 0.930 . S
H163 C154 0.929 . S
H164 C157 0.930 . S
C165 C166 1.351 . S
C165 N168 1.368 . S
C165 H170 0.931 . S
C166 C165 1.351 . S
C166 N167 1.373 . S
C166 H194 0.930 . S
N167 C166 1.373 . S
N167 C169 1.340 . S
N168 C165 1.368 . S
N168 C169 1.321 . S
N168 Co171 2.135 . S
C169 N167 1.340 . S
C169 N168 1.321 . S
C169 H193 0.930 . S
H170 C165 0.931 . S
Co171 N168 2.135 . S
Co171 N174 2.121 1_545 S
Co171 O179 2.055 . S
Co171 O182 2.039 . S
Co171 N185 2.140 1_545 S
C172 O173 1.227 . S
C172 O182 1.265 . S
O173 C172 1.227 . S
N174 Co171 2.121 1_565 S
N174 C176 1.375 . S
N174 C177 1.313 . S
C175 C176 1.338 . S
C175 N178 1.377 . S
C175 H195 0.930 . S
C176 N174 1.375 . S
C176 C175 1.338 . S
C176 H180 0.931 . S
C177 N174 1.313 . S
C177 N178 1.344 . S
C177 H181 0.930 . S
N178 C175 1.377 . S
N178 C177 1.344 . S
O179 Co171 2.055 . S
O179 C183 1.253 . S
H180 C176 0.931 . S
H181 C177 0.930 . S
O182 Co171 2.039 . S
O182 C172 1.265 . S
C183 O179 1.253 . S
C183 O184 1.227 . S
O184 C183 1.227 . S
N185 Co171 2.140 1_565 S
N185 C188 1.338 1_565 S
N185 C189 1.345 . S
C186 C187 1.387 . S
C186 C190 1.391 . S
C187 C186 1.387 . S
C187 C188 1.350 1_565 S
C187 H196 0.929 . S
C188 N185 1.338 1_545 S
C188 C187 1.350 1_545 S
C188 H191 0.959 . S
C189 N185 1.345 . S
C189 C190 1.371 . S
C189 H192 0.931 . S
C190 C186 1.391 . S
C190 C189 1.371 . S
C190 H197 0.930 . S
H191 C188 0.959 . S
H192 C189 0.931 . S
H193 C169 0.930 . S
H194 C166 0.930 . S
H195 C175 0.930 . S
H196 C187 0.929 . S
H197 C190 0.930 . S
C198 C199 1.351 . S
C198 N201 1.368 . S
C198 H203 0.931 . S
C199 C198 1.351 . S
C199 N200 1.373 . S
C199 H227 0.930 . S
N200 C199 1.373 . S
N200 C202 1.340 . S
N201 C198 1.368 . S
N201 C202 1.321 . S
N201 Co204 2.135 . S
C202 N200 1.340 . S
C202 N201 1.321 . S
C202 H226 0.930 . S
H203 C198 0.931 . S
Co204 N201 2.135 . S
Co204 N207 2.121 . S
Co204 O212 2.055 . S
Co204 O215 2.039 . S
Co204 N218 2.140 . S
C205 O206 1.227 . S
C205 O215 1.265 . S
O206 C205 1.227 . S
N207 Co204 2.121 . S
N207 C209 1.375 . S
N207 C210 1.313 . S
C208 C209 1.338 . S
C208 N211 1.377 . S
C208 H228 0.930 . S
C209 N207 1.375 . S
C209 C208 1.338 . S
C209 H213 0.931 . S
C210 N207 1.313 . S
C210 N211 1.344 . S
C210 H214 0.930 . S
N211 C208 1.377 . S
N211 C210 1.344 . S
O212 Co204 2.055 . S
O212 C216 1.253 . S
H213 C209 0.931 . S
H214 C210 0.930 . S
O215 Co204 2.039 . S
O215 C205 1.265 . S
C216 O212 1.253 . S
C216 O217 1.227 . S
O217 C216 1.227 . S
N218 Co204 2.140 . S
N218 C221 1.346 . S
N218 C222 1.345 . S
C219 C220 1.387 . S
C219 C223 1.391 . S
C220 C219 1.387 . S
C220 C221 1.369 . S
C220 H229 0.929 . S
C221 N218 1.346 . S
C221 C220 1.369 . S
C221 H224 0.928 . S
C222 N218 1.345 . S
C222 C223 1.371 . S
C222 H225 0.931 . S
C223 C219 1.391 . S
C223 C222 1.371 . S
C223 H230 0.930 . S
H224 C221 0.928 . S
H225 C222 0.931 . S
H226 C202 0.930 . S
H227 C199 0.930 . S
H228 C208 0.930 . S
H229 C220 0.929 . S
H230 C223 0.930 . S
C231 C232 1.351 . S
C231 N234 1.368 . S
C231 H236 0.931 . S
C232 C231 1.351 . S
C232 N233 1.373 . S
C232 H260 0.930 . S
N233 C232 1.373 . S
N233 C235 1.340 . S
N234 C231 1.368 . S
N234 C235 1.321 . S
N234 Co237 2.135 . S
C235 N233 1.340 . S
C235 N234 1.321 . S
C235 H259 0.930 . S
H236 C231 0.931 . S
Co237 N234 2.135 . S
Co237 N240 2.121 . S
Co237 O245 2.055 . S
Co237 O248 2.039 . S
Co237 N251 2.140 . S
C238 O239 1.227 . S
C238 O248 1.265 . S
O239 C238 1.227 . S
N240 Co237 2.121 . S
N240 C242 1.375 . S
N240 C243 1.313 . S
C241 C242 1.338 . S
C241 N244 1.377 . S
C241 H261 0.930 . S
C242 N240 1.375 . S
C242 C241 1.338 . S
C242 H246 0.931 . S
C243 N240 1.313 . S
C243 N244 1.344 . S
C243 H247 0.930 . S
N244 C241 1.377 . S
N244 C243 1.344 . S
O245 Co237 2.055 . S
O245 C249 1.253 . S
H246 C242 0.931 . S
H247 C243 0.930 . S
O248 Co237 2.039 . S
O248 C238 1.265 . S
C249 O245 1.253 . S
C249 O250 1.227 . S
O250 C249 1.227 . S
N251 Co237 2.140 . S
N251 C254 1.346 . S
N251 C255 1.345 . S
C252 C253 1.387 . S
C252 C256 1.391 . S
C253 C252 1.387 . S
C253 C254 1.369 . S
C253 H262 0.929 . S
C254 N251 1.346 . S
C254 C253 1.369 . S
C254 H257 0.928 . S
C255 N251 1.345 . S
C255 C256 1.371 . S
C255 H258 0.931 . S
C256 C252 1.391 . S
C256 C255 1.371 . S
C256 H263 0.930 . S
H257 C254 0.928 . S
H258 C255 0.931 . S
H259 C235 0.930 . S
H260 C232 0.930 . S
H261 C241 0.930 . S
H262 C253 0.929 . S
H263 C256 0.930 . S
C264 C265 1.351 . S
C264 N267 1.368 . S
C264 H269 0.931 . S
C265 C264 1.351 . S
C265 N266 1.373 . S
C265 H293 0.930 . S
N266 C265 1.373 . S
N266 C268 1.340 . S
N267 C264 1.368 . S
N267 C268 1.321 . S
N267 Co270 2.135 . S
C268 N266 1.340 . S
C268 N267 1.321 . S
C268 H292 0.930 . S
H269 C264 0.931 . S
Co270 N267 2.135 . S
Co270 N273 2.121 1_655 S
Co270 O278 2.055 . S
Co270 O281 2.039 . S
Co270 N284 2.140 1_655 S
C271 O272 1.227 . S
C271 O281 1.265 . S
O272 C271 1.227 . S
N273 Co270 2.121 1_455 S
N273 C275 1.375 . S
N273 C276 1.313 . S
C274 C275 1.338 . S
C274 N277 1.377 . S
C274 H294 0.930 . S
C275 N273 1.375 . S
C275 C274 1.338 . S
C275 H279 0.931 . S
C276 N273 1.313 . S
C276 N277 1.344 . S
C276 H280 0.930 . S
N277 C274 1.377 . S
N277 C276 1.344 . S
O278 Co270 2.055 . S
O278 C282 1.253 . S
H279 C275 0.931 . S
H280 C276 0.930 . S
O281 Co270 2.039 . S
O281 C271 1.265 . S
C282 O278 1.253 . S
C282 O283 1.227 . S
O283 C282 1.227 . S
N284 Co270 2.140 1_455 S
N284 C287 1.338 1_455 S
N284 C288 1.345 . S
C285 C286 1.387 . S
C285 C289 1.391 . S
C286 C285 1.387 . S
C286 C287 1.350 1_455 S
C286 H295 0.929 . S
C287 N284 1.338 1_655 S
C287 C286 1.350 1_655 S
C287 H290 0.959 . S
C288 N284 1.345 . S
C288 C289 1.371 . S
C288 H291 0.931 . S
C289 C285 1.391 . S
C289 C288 1.371 . S
C289 H296 0.930 . S
H290 C287 0.959 . S
H291 C288 0.931 . S
H292 C268 0.930 . S
H293 C265 0.930 . S
H294 C274 0.930 . S
H295 C286 0.929 . S
H296 C289 0.930 . S
C297 C298 1.351 . S
C297 N300 1.368 . S
C297 H302 0.931 . S
C298 C297 1.351 . S
C298 N299 1.373 . S
C298 H326 0.930 . S
N299 C298 1.373 . S
N299 C301 1.340 . S
N300 C297 1.368 . S
N300 C301 1.321 . S
N300 Co303 2.135 . S
C301 N299 1.340 . S
C301 N300 1.321 . S
C301 H325 0.930 . S
H302 C297 0.931 . S
Co303 N300 2.135 . S
Co303 N306 2.121 1_565 S
Co303 O311 2.055 . S
Co303 O314 2.039 . S
Co303 N317 2.140 1_565 S
C304 O305 1.227 . S
C304 O314 1.265 . S
O305 C304 1.227 . S
N306 Co303 2.121 1_545 S
N306 C308 1.375 . S
N306 C309 1.313 . S
C307 C308 1.338 . S
C307 N310 1.377 . S
C307 H327 0.930 . S
C308 N306 1.375 . S
C308 C307 1.338 . S
C308 H312 0.931 . S
C309 N306 1.313 . S
C309 N310 1.344 . S
C309 H313 0.930 . S
N310 C307 1.377 . S
N310 C309 1.344 . S
O311 Co303 2.055 . S
O311 C315 1.253 . S
H312 C308 0.931 . S
H313 C309 0.930 . S
O314 Co303 2.039 . S
O314 C304 1.265 . S
C315 O311 1.253 . S
C315 O316 1.227 . S
O316 C315 1.227 . S
N317 Co303 2.140 1_545 S
N317 C320 1.338 1_545 S
N317 C321 1.345 . S
C318 C319 1.387 . S
C318 C322 1.391 . S
C319 C318 1.387 . S
C319 C320 1.350 1_545 S
C319 H328 0.929 . S
C320 N317 1.338 1_565 S
C320 C319 1.350 1_565 S
C320 H323 0.959 . S
C321 N317 1.345 . S
C321 C322 1.371 . S
C321 H324 0.931 . S
C322 C318 1.391 . S
C322 C321 1.371 . S
C322 H329 0.930 . S
H323 C320 0.959 . S
H324 C321 0.931 . S
H325 C301 0.930 . S
H326 C298 0.930 . S
H327 C307 0.930 . S
H328 C319 0.929 . S
H329 C322 0.930 . S
C330 C331 1.351 . S
C330 N333 1.368 . S
C330 H335 0.931 . S
C331 C330 1.351 . S
C331 N332 1.373 . S
C331 H359 0.930 . S
N332 C331 1.373 . S
N332 C334 1.340 . S
N333 C330 1.368 . S
N333 C334 1.321 . S
N333 Co336 2.135 . S
C334 N332 1.340 . S
C334 N333 1.321 . S
C334 H358 0.930 . S
H335 C330 0.931 . S
Co336 N333 2.135 . S
Co336 N339 2.121 . S
Co336 O344 2.055 . S
Co336 O347 2.039 . S
Co336 N350 2.140 . S
C337 O338 1.227 . S
C337 O347 1.265 . S
O338 C337 1.227 . S
N339 Co336 2.121 . S
N339 C341 1.375 . S
N339 C342 1.313 . S
C340 C341 1.338 . S
C340 N343 1.377 . S
C340 H360 0.930 . S
C341 N339 1.375 . S
C341 C340 1.338 . S
C341 H345 0.931 . S
C342 N339 1.313 . S
C342 N343 1.344 . S
C342 H346 0.930 . S
N343 C340 1.377 . S
N343 C342 1.344 . S
O344 Co336 2.055 . S
O344 C348 1.253 . S
H345 C341 0.931 . S
H346 C342 0.930 . S
O347 Co336 2.039 . S
O347 C337 1.265 . S
C348 O344 1.253 . S
C348 O349 1.227 . S
O349 C348 1.227 . S
N350 Co336 2.140 . S
N350 C353 1.346 . S
N350 C354 1.345 . S
C351 C352 1.387 . S
C351 C355 1.391 . S
C352 C351 1.387 . S
C352 C353 1.369 . S
C352 H361 0.929 . S
C353 N350 1.346 . S
C353 C352 1.369 . S
C353 H356 0.928 . S
C354 N350 1.345 . S
C354 C355 1.371 . S
C354 H357 0.931 . S
C355 C351 1.391 . S
C355 C354 1.371 . S
C355 H362 0.930 . S
H356 C353 0.928 . S
H357 C354 0.931 . S
H358 C334 0.930 . S
H359 C331 0.930 . S
H360 C340 0.930 . S
H361 C352 0.929 . S
H362 C355 0.930 . S
C363 C364 1.351 . S
C363 N366 1.368 . S
C363 H368 0.931 . S
C364 C363 1.351 . S
C364 N365 1.373 . S
C364 H392 0.930 . S
N365 C364 1.373 . S
N365 C367 1.340 . S
N366 C363 1.368 . S
N366 C367 1.321 . S
N366 Co369 2.135 . S
C367 N365 1.340 . S
C367 N366 1.321 . S
C367 H391 0.930 . S
H368 C363 0.931 . S
Co369 N366 2.135 . S
Co369 N372 2.121 . S
Co369 O377 2.055 . S
Co369 O380 2.039 . S
Co369 N383 2.140 . S
C370 O371 1.227 . S
C370 O380 1.265 . S
O371 C370 1.227 . S
N372 Co369 2.121 . S
N372 C374 1.375 . S
N372 C375 1.313 . S
C373 C374 1.338 . S
C373 N376 1.377 . S
C373 H393 0.930 . S
C374 N372 1.375 . S
C374 C373 1.338 . S
C374 H378 0.931 . S
C375 N372 1.313 . S
C375 N376 1.344 . S
C375 H379 0.930 . S
N376 C373 1.377 . S
N376 C375 1.344 . S
O377 Co369 2.055 . S
O377 C381 1.253 . S
H378 C374 0.931 . S
H379 C375 0.930 . S
O380 Co369 2.039 . S
O380 C370 1.265 . S
C381 O377 1.253 . S
C381 O382 1.227 . S
O382 C381 1.227 . S
N383 Co369 2.140 . S
N383 C386 1.346 . S
N383 C387 1.345 . S
C384 C385 1.387 . S
C384 C388 1.391 . S
C385 C384 1.387 . S
C385 C386 1.369 . S
C385 H394 0.929 . S
C386 N383 1.346 . S
C386 C385 1.369 . S
C386 H389 0.928 . S
C387 N383 1.345 . S
C387 C388 1.371 . S
C387 H390 0.931 . S
C388 C384 1.391 . S
C388 C387 1.371 . S
C388 H395 0.930 . S
H389 C386 0.928 . S
H390 C387 0.931 . S
H391 C367 0.930 . S
H392 C364 0.930 . S
H393 C373 0.930 . S
H394 C385 0.929 . S
H395 C388 0.930 . S
C396 C397 1.351 . S
C396 N399 1.368 . S
C396 H401 0.931 . S
C397 C396 1.351 . S
C397 N398 1.373 . S
C397 H425 0.930 . S
N398 C397 1.373 . S
N398 C400 1.340 . S
N399 C396 1.368 . S
N399 C400 1.321 . S
N399 Co402 2.135 . S
C400 N398 1.340 . S
C400 N399 1.321 . S
C400 H424 0.930 . S
H401 C396 0.931 . S
Co402 N399 2.135 . S
Co402 N405 2.121 1_655 S
Co402 O410 2.055 . S
Co402 O413 2.039 . S
Co402 N416 2.140 1_655 S
C403 O404 1.227 . S
C403 O413 1.265 . S
O404 C403 1.227 . S
N405 Co402 2.121 1_455 S
N405 C407 1.375 . S
N405 C408 1.313 . S
C406 C407 1.338 . S
C406 N409 1.377 . S
C406 H426 0.930 . S
C407 N405 1.375 . S
C407 C406 1.338 . S
C407 H411 0.931 . S
C408 N405 1.313 . S
C408 N409 1.344 . S
C408 H412 0.930 . S
N409 C406 1.377 . S
N409 C408 1.344 . S
O410 Co402 2.055 . S
O410 C414 1.253 . S
H411 C407 0.931 . S
H412 C408 0.930 . S
O413 Co402 2.039 . S
O413 C403 1.265 . S
C414 O410 1.253 . S
C414 O415 1.227 . S
O415 C414 1.227 . S
N416 Co402 2.140 1_455 S
N416 C419 1.338 1_455 S
N416 C420 1.345 . S
C417 C418 1.387 . S
C417 C421 1.391 . S
C418 C417 1.387 . S
C418 C419 1.350 1_455 S
C418 H427 0.929 . S
C419 N416 1.338 1_655 S
C419 C418 1.350 1_655 S
C419 H422 0.959 . S
C420 N416 1.345 . S
C420 C421 1.371 . S
C420 H423 0.931 . S
C421 C417 1.391 . S
C421 C420 1.371 . S
C421 H428 0.930 . S
H422 C419 0.959 . S
H423 C420 0.931 . S
H424 C400 0.930 . S
H425 C397 0.930 . S
H426 C406 0.930 . S
H427 C418 0.929 . S
H428 C421 0.930 . S
C429 C430 1.351 . S
C429 N432 1.368 . S
C429 H434 0.931 . S
C430 C429 1.351 . S
C430 N431 1.373 . S
C430 H458 0.930 . S
N431 C430 1.373 . S
N431 C433 1.340 . S
N432 C429 1.368 . S
N432 C433 1.321 . S
N432 Co435 2.135 . S
C433 N431 1.340 . S
C433 N432 1.321 . S
C433 H457 0.930 . S
H434 C429 0.931 . S
Co435 N432 2.135 . S
Co435 N438 2.121 1_565 S
Co435 O443 2.055 . S
Co435 O446 2.039 . S
Co435 N449 2.140 1_565 S
C436 O437 1.227 . S
C436 O446 1.265 . S
O437 C436 1.227 . S
N438 Co435 2.121 1_545 S
N438 C440 1.375 . S
N438 C441 1.313 . S
C439 C440 1.338 . S
C439 N442 1.377 . S
C439 H459 0.930 . S
C440 N438 1.375 . S
C440 C439 1.338 . S
C440 H444 0.931 . S
C441 N438 1.313 . S
C441 N442 1.344 . S
C441 H445 0.930 . S
N442 C439 1.377 . S
N442 C441 1.344 . S
O443 Co435 2.055 . S
O443 C447 1.253 . S
H444 C440 0.931 . S
H445 C441 0.930 . S
O446 Co435 2.039 . S
O446 C436 1.265 . S
C447 O443 1.253 . S
C447 O448 1.227 . S
O448 C447 1.227 . S
N449 Co435 2.140 1_545 S
N449 C452 1.338 1_545 S
N449 C453 1.345 . S
C450 C451 1.387 . S
C450 C454 1.391 . S
C451 C450 1.387 . S
C451 C452 1.350 1_545 S
C451 H460 0.929 . S
C452 N449 1.338 1_565 S
C452 C451 1.350 1_565 S
C452 H455 0.959 . S
C453 N449 1.345 . S
C453 C454 1.371 . S
C453 H456 0.931 . S
C454 C450 1.391 . S
C454 C453 1.371 . S
C454 H461 0.930 . S
H455 C452 0.959 . S
H456 C453 0.931 . S
H457 C433 0.930 . S
H458 C430 0.930 . S
H459 C439 0.930 . S
H460 C451 0.929 . S
H461 C454 0.930 . S
C462 C463 1.351 . S
C462 N465 1.368 . S
C462 H467 0.931 . S
C463 C462 1.351 . S
C463 N464 1.373 . S
C463 H491 0.930 . S
N464 C463 1.373 . S
N464 C466 1.340 . S
N465 C462 1.368 . S
N465 C466 1.321 . S
N465 Co468 2.135 . S
C466 N464 1.340 . S
C466 N465 1.321 . S
C466 H490 0.930 . S
H467 C462 0.931 . S
Co468 N465 2.135 . S
Co468 N471 2.121 . S
Co468 O476 2.055 . S
Co468 O479 2.039 . S
Co468 N482 2.140 . S
C469 O470 1.227 . S
C469 O479 1.265 . S
O470 C469 1.227 . S
N471 Co468 2.121 . S
N471 C473 1.375 . S
N471 C474 1.313 . S
C472 C473 1.338 . S
C472 N475 1.377 . S
C472 H492 0.930 . S
C473 N471 1.375 . S
C473 C472 1.338 . S
C473 H477 0.931 . S
C474 N471 1.313 . S
C474 N475 1.344 . S
C474 H478 0.930 . S
N475 C472 1.377 . S
N475 C474 1.344 . S
O476 Co468 2.055 . S
O476 C480 1.253 . S
H477 C473 0.931 . S
H478 C474 0.930 . S
O479 Co468 2.039 . S
O479 C469 1.265 . S
C480 O476 1.253 . S
C480 O481 1.227 . S
O481 C480 1.227 . S
N482 Co468 2.140 . S
N482 C485 1.346 . S
N482 C486 1.345 . S
C483 C484 1.387 . S
C483 C487 1.391 . S
C484 C483 1.387 . S
C484 C485 1.369 . S
C484 H493 0.929 . S
C485 N482 1.346 . S
C485 C484 1.369 . S
C485 H488 0.928 . S
C486 N482 1.345 . S
C486 C487 1.371 . S
C486 H489 0.931 . S
C487 C483 1.391 . S
C487 C486 1.371 . S
C487 H494 0.930 . S
H488 C485 0.928 . S
H489 C486 0.931 . S
H490 C466 0.930 . S
H491 C463 0.930 . S
H492 C472 0.930 . S
H493 C484 0.929 . S
H494 C487 0.930 . S
C495 C496 1.351 . S
C495 N498 1.368 . S
C495 H500 0.931 . S
C496 C495 1.351 . S
C496 N497 1.373 . S
C496 H524 0.930 . S
N497 C496 1.373 . S
N497 C499 1.340 . S
N498 C495 1.368 . S
N498 C499 1.321 . S
N498 Co501 2.135 . S
C499 N497 1.340 . S
C499 N498 1.321 . S
C499 H523 0.930 . S
H500 C495 0.931 . S
Co501 N498 2.135 . S
Co501 N504 2.121 . S
Co501 O509 2.055 . S
Co501 O512 2.039 . S
Co501 N515 2.140 . S
C502 O503 1.227 . S
C502 O512 1.265 . S
O503 C502 1.227 . S
N504 Co501 2.121 . S
N504 C506 1.375 . S
N504 C507 1.313 . S
C505 C506 1.338 . S
C505 N508 1.377 . S
C505 H525 0.930 . S
C506 N504 1.375 . S
C506 C505 1.338 . S
C506 H510 0.931 . S
C507 N504 1.313 . S
C507 N508 1.344 . S
C507 H511 0.930 . S
N508 C505 1.377 . S
N508 C507 1.344 . S
O509 Co501 2.055 . S
O509 C513 1.253 . S
H510 C506 0.931 . S
H511 C507 0.930 . S
O512 Co501 2.039 . S
O512 C502 1.265 . S
C513 O509 1.253 . S
C513 O514 1.227 . S
O514 C513 1.227 . S
N515 Co501 2.140 . S
N515 C518 1.346 . S
N515 C519 1.345 . S
C516 C517 1.387 . S
C516 C520 1.391 . S
C517 C516 1.387 . S
C517 C518 1.369 . S
C517 H526 0.929 . S
C518 N515 1.346 . S
C518 C517 1.369 . S
C518 H521 0.928 . S
C519 N515 1.345 . S
C519 C520 1.371 . S
C519 H522 0.931 . S
C520 C516 1.391 . S
C520 C519 1.371 . S
C520 H527 0.930 . S
H521 C518 0.928 . S
H522 C519 0.931 . S
H523 C499 0.930 . S
H524 C496 0.930 . S
H525 C505 0.930 . S
H526 C517 0.929 . S
H527 C520 0.930 . S
H528 C540 0.930 . S
H529 C542 0.930 1_655 S
H530 C543 0.930 . S
H531 C547 0.959 . S
H532 C547 0.959 . S
H533 C547 0.961 . S
H534 C548 0.960 . S
H535 C548 0.961 . S
H536 C548 0.959 . S
H537 C551 0.929 1_565 S
H538 C552 0.963 . S
H539 C554 0.930 . S
C540 H528 0.930 . S
C540 C541 1.399 . S
C540 C545 1.399 . S
C541 C540 1.399 . S
C541 C542 1.376 . S
C542 H529 0.930 1_455 S
C542 C541 1.376 . S
C542 C543 1.388 . S
C543 H530 0.930 . S
C543 C542 1.388 . S
C543 C544 1.390 . S
C544 C543 1.390 . S
C544 C545 1.394 . S
C544 C550 1.465 . S
C545 C540 1.399 . S
C545 C544 1.394 . S
C545 C546 1.516 . S
C546 C545 1.516 . S
C546 C547 1.502 . S
C546 C548 1.561 . S
C546 C549 1.526 . S
C547 H531 0.959 . S
C547 H532 0.959 . S
C547 H533 0.961 . S
C547 C546 1.502 . S
C548 H534 0.960 . S
C548 H535 0.961 . S
C548 H536 0.959 . S
C548 C546 1.561 . S
C549 C546 1.526 . S
C549 C550 1.396 . S
C549 C554 1.390 . S
C550 C544 1.465 . S
C550 C549 1.396 . S
C550 C551 1.399 . S
C551 H537 0.929 1_545 S
C551 C550 1.399 . S
C551 C552 1.377 1_545 S
C552 H538 0.963 . S
C552 C551 1.377 1_565 S
C552 C553 1.367 1_565 S
C553 C552 1.367 1_545 S
C553 C554 1.387 . S
C554 H539 0.930 . S
C554 C549 1.390 . S
C554 C553 1.387 . S
H555 C567 0.930 . S
H556 C569 0.930 . S
H557 C570 0.930 1_565 S
H558 C574 0.959 . S
H559 C574 0.959 . S
H560 C574 0.961 . S
H561 C575 0.960 . S
H562 C575 0.961 . S
H563 C575 0.959 . S
H564 C578 0.929 . S
H565 C579 0.931 . S
H566 C581 0.930 . S
C567 H555 0.930 . S
C567 C568 1.399 . S
C567 C572 1.399 . S
C568 C567 1.399 . S
C568 C569 1.376 1_545 S
C569 H556 0.930 . S
C569 C568 1.376 1_565 S
C569 C570 1.388 1_565 S
C570 H557 0.930 1_545 S
C570 C569 1.388 1_545 S
C570 C571 1.390 . S
C571 C570 1.390 . S
C571 C572 1.394 . S
C571 C577 1.465 . S
C572 C567 1.399 . S
C572 C571 1.394 . S
C572 C573 1.516 . S
C573 C572 1.516 . S
C573 C574 1.502 . S
C573 C575 1.561 . S
C573 C576 1.526 . S
C574 H558 0.959 . S
C574 H559 0.959 . S
C574 H560 0.961 . S
C574 C573 1.502 . S
C575 H561 0.960 . S
C575 H562 0.961 . S
C575 H563 0.959 . S
C575 C573 1.561 . S
C576 C573 1.526 . S
C576 C577 1.396 . S
C576 C581 1.390 . S
C577 C571 1.465 . S
C577 C576 1.396 . S
C577 C578 1.399 . S
C578 H564 0.929 . S
C578 C577 1.399 . S
C578 C579 1.385 . S
C579 H565 0.931 . S
C579 C578 1.385 . S
C579 C580 1.389 . S
C580 C579 1.389 . S
C580 C581 1.387 . S
C581 H566 0.930 . S
C581 C576 1.390 . S
C581 C580 1.387 . S
H582 C594 0.930 . S
H583 C596 0.930 . S
H584 C597 0.930 . S
H585 C601 0.959 . S
H586 C601 0.959 . S
H587 C601 0.961 . S
H588 C602 0.960 . S
H589 C602 0.961 . S
H590 C602 0.959 . S
H591 C605 0.929 . S
H592 C606 0.931 . S
H593 C608 0.930 . S
C594 H582 0.930 . S
C594 C595 1.399 . S
C594 C599 1.399 . S
C595 C594 1.399 . S
C595 C596 1.376 . S
C596 H583 0.930 . S
C596 C595 1.376 . S
C596 C597 1.388 . S
C597 H584 0.930 . S
C597 C596 1.388 . S
C597 C598 1.390 . S
C598 C597 1.390 . S
C598 C599 1.394 . S
C598 C604 1.465 . S
C599 C594 1.399 . S
C599 C598 1.394 . S
C599 C600 1.516 . S
C600 C599 1.516 . S
C600 C601 1.502 . S
C600 C602 1.561 . S
C600 C603 1.526 . S
C601 H585 0.959 . S
C601 H586 0.959 . S
C601 H587 0.961 . S
C601 C600 1.502 . S
C602 H588 0.960 . S
C602 H589 0.961 . S
C602 H590 0.959 . S
C602 C600 1.561 . S
C603 C600 1.526 . S
C603 C604 1.396 . S
C603 C608 1.390 . S
C604 C598 1.465 . S
C604 C603 1.396 . S
C604 C605 1.399 . S
C605 H591 0.929 . S
C605 C604 1.399 . S
C605 C606 1.385 . S
C606 H592 0.931 . S
C606 C605 1.385 . S
C606 C607 1.389 . S
C607 C606 1.389 . S
C607 C608 1.387 . S
C608 H593 0.930 . S
C608 C603 1.390 . S
C608 C607 1.387 . S
H609 C621 0.930 . S
H610 C623 0.930 1_655 S
H611 C624 0.930 . S
H612 C628 0.959 . S
H613 C628 0.959 . S
H614 C628 0.961 . S
H615 C629 0.960 . S
H616 C629 0.961 . S
H617 C629 0.959 . S
H618 C632 0.929 . S
H619 C633 0.931 . S
H620 C635 0.930 . S
C621 H609 0.930 . S
C621 C622 1.399 . S
C621 C626 1.399 . S
C622 C621 1.399 . S
C622 C623 1.376 . S
C623 H610 0.930 1_455 S
C623 C622 1.376 . S
C623 C624 1.388 . S
C624 H611 0.930 . S
C624 C623 1.388 . S
C624 C625 1.390 . S
C625 C624 1.390 . S
C625 C626 1.394 . S
C625 C631 1.465 . S
C626 C621 1.399 . S
C626 C625 1.394 . S
C626 C627 1.516 . S
C627 C626 1.516 . S
C627 C628 1.502 . S
C627 C629 1.561 . S
C627 C630 1.526 . S
C628 H612 0.959 . S
C628 H613 0.959 . S
C628 H614 0.961 . S
C628 C627 1.502 . S
C629 H615 0.960 . S
C629 H616 0.961 . S
C629 H617 0.959 . S
C629 C627 1.561 . S
C630 C627 1.526 . S
C630 C631 1.396 . S
C630 C635 1.390 . S
C631 C625 1.465 . S
C631 C630 1.396 . S
C631 C632 1.399 . S
C632 H618 0.929 . S
C632 C631 1.399 . S
C632 C633 1.385 . S
C633 H619 0.931 . S
C633 C632 1.385 . S
C633 C634 1.389 . S
C634 C633 1.389 . S
C634 C635 1.387 . S
C635 H620 0.930 . S
C635 C630 1.390 . S
C635 C634 1.387 . S
H636 C648 0.930 . S
H637 C650 0.934 . S
H638 C651 0.930 . S
H639 C655 0.959 . S
H640 C655 0.959 . S
H641 C655 0.961 . S
H642 C656 0.960 . S
H643 C656 0.961 . S
H644 C656 0.959 . S
H645 C659 0.929 . S
H646 C660 0.931 . S
H647 C662 0.930 1_545 S
C648 H636 0.930 . S
C648 C649 1.399 . S
C648 C653 1.399 . S
C649 C648 1.399 . S
C649 C650 1.376 . S
C650 H637 0.934 . S
C650 C649 1.376 . S
C650 C651 1.388 . S
C651 H638 0.930 . S
C651 C650 1.388 . S
C651 C652 1.390 . S
C652 C651 1.390 . S
C652 C653 1.394 . S
C652 C658 1.465 . S
C653 C648 1.399 . S
C653 C652 1.394 . S
C653 C654 1.516 . S
C654 C653 1.516 . S
C654 C655 1.502 . S
C654 C656 1.561 1_565 S
C654 C657 1.526 . S
C655 H639 0.959 . S
C655 H640 0.959 . S
C655 H641 0.961 . S
C655 C654 1.502 . S
C656 H642 0.960 . S
C656 H643 0.961 . S
C656 H644 0.959 . S
C656 C654 1.561 1_545 S
C657 C654 1.526 . S
C657 C658 1.396 . S
C657 C662 1.390 . S
C658 C652 1.465 . S
C658 C657 1.396 . S
C658 C659 1.399 . S
C659 H645 0.929 . S
C659 C658 1.399 . S
C659 C660 1.385 . S
C660 H646 0.931 . S
C660 C659 1.385 . S
C660 C661 1.389 . S
C661 C660 1.389 . S
C661 C662 1.387 . S
C662 H647 0.930 1_565 S
C662 C657 1.390 . S
C662 C661 1.387 . S
H663 C675 0.930 . S
H664 C677 0.915 1_545 S
H665 C678 0.930 1_545 S
H666 C682 0.959 . S
H667 C682 0.959 . S
H668 C682 0.961 . S
H669 C683 0.960 . S
H670 C683 0.961 . S
H671 C683 0.959 . S
H672 C686 0.929 . S
H673 C687 0.931 . S
H674 C689 0.930 . S
C675 H663 0.930 . S
C675 C676 1.399 . S
C675 C680 1.399 . S
C676 C675 1.399 . S
C676 C677 1.387 . S
C677 H664 0.915 1_565 S
C677 C676 1.387 . S
C677 C678 1.393 . S
C678 H665 0.930 1_565 S
C678 C677 1.393 . S
C678 C679 1.390 . S
C679 C678 1.390 . S
C679 C680 1.394 . S
C679 C685 1.465 . S
C680 C675 1.399 . S
C680 C679 1.394 . S
C680 C681 1.516 . S
C681 C680 1.516 . S
C681 C682 1.502 . S
C681 C683 1.561 . S
C681 C684 1.526 . S
C682 H666 0.959 . S
C682 H667 0.959 . S
C682 H668 0.961 . S
C682 C681 1.502 . S
C683 H669 0.960 . S
C683 H670 0.961 . S
C683 H671 0.959 . S
C683 C681 1.561 . S
C684 C681 1.526 . S
C684 C685 1.396 . S
C684 C689 1.390 . S
C685 C679 1.465 . S
C685 C684 1.396 . S
C685 C686 1.399 . S
C686 H672 0.929 . S
C686 C685 1.399 . S
C686 C687 1.385 . S
C687 H673 0.931 . S
C687 C686 1.385 . S
C687 C688 1.389 . S
C688 C687 1.389 . S
C688 C689 1.387 . S
C689 H674 0.930 . S
C689 C684 1.390 . S
C689 C688 1.387 . S
H690 C702 0.930 . S
H691 C704 0.930 . S
H692 C705 0.930 . S
H693 C709 0.959 . S
H694 C709 0.959 . S
H695 C709 0.961 . S
H696 C710 0.960 . S
H697 C710 0.961 . S
H698 C710 0.959 . S
H699 C713 0.929 . S
H700 C714 0.931 . S
H701 C716 0.930 . S
C702 H690 0.930 . S
C702 C703 1.399 . S
C702 C707 1.399 . S
C703 C702 1.399 . S
C703 C704 1.376 . S
C704 H691 0.930 . S
C704 C703 1.376 . S
C704 C705 1.388 . S
C705 H692 0.930 . S
C705 C704 1.388 . S
C705 C706 1.390 . S
C706 C705 1.390 . S
C706 C707 1.394 . S
C706 C712 1.465 . S
C707 C702 1.399 . S
C707 C706 1.394 . S
C707 C708 1.516 . S
C708 C707 1.516 . S
C708 C709 1.502 . S
C708 C710 1.561 . S
C708 C711 1.526 . S
C709 H693 0.959 . S
C709 H694 0.959 . S
C709 H695 0.961 . S
C709 C708 1.502 . S
C710 H696 0.960 . S
C710 H697 0.961 . S
C710 H698 0.959 . S
C710 C708 1.561 . S
C711 C708 1.526 . S
C711 C712 1.396 . S
C711 C716 1.390 . S
C712 C706 1.465 . S
C712 C711 1.396 . S
C712 C713 1.399 . S
C713 H699 0.929 . S
C713 C712 1.399 . S
C713 C714 1.385 . S
C714 H700 0.931 . S
C714 C713 1.385 . S
C714 C715 1.389 . S
C715 C714 1.389 . S
C715 C716 1.387 . S
C716 H701 0.930 . S
C716 C711 1.390 . S
C716 C715 1.387 . S
H717 C729 0.930 . S
H718 C731 0.930 . S
H719 C732 0.930 . S
H720 C736 0.959 . S
H721 C736 0.959 . S
H722 C736 0.961 . S
H723 C737 0.960 . S
H724 C737 0.961 . S
H725 C737 0.959 . S
H726 C740 0.929 . S
H727 C741 0.931 . S
H728 C743 0.930 . S
C729 H717 0.930 . S
C729 C730 1.399 . S
C729 C734 1.399 . S
C730 C729 1.399 . S
C730 C731 1.376 . S
C731 H718 0.930 . S
C731 C730 1.376 . S
C731 C732 1.388 . S
C732 H719 0.930 . S
C732 C731 1.388 . S
C732 C733 1.390 . S
C733 C732 1.390 . S
C733 C734 1.394 . S
C733 C739 1.465 . S
C734 C729 1.399 . S
C734 C733 1.394 . S
C734 C735 1.516 . S
C735 C734 1.516 . S
C735 C736 1.502 . S
C735 C737 1.561 . S
C735 C738 1.526 . S
C736 H720 0.959 . S
C736 H721 0.959 . S
C736 H722 0.961 . S
C736 C735 1.502 . S
C737 H723 0.960 . S
C737 H724 0.961 . S
C737 H725 0.959 . S
C737 C735 1.561 . S
C738 C735 1.526 . S
C738 C739 1.396 . S
C738 C743 1.390 . S
C739 C733 1.465 . S
C739 C738 1.396 . S
C739 C740 1.399 . S
C740 H726 0.929 . S
C740 C739 1.399 . S
C740 C741 1.385 . S
C741 H727 0.931 . S
C741 C740 1.385 . S
C741 C742 1.389 . S
C742 C741 1.389 . S
C742 C743 1.387 . S
C743 H728 0.930 . S
C743 C738 1.390 . S
C743 C742 1.387 . S
H744 C756 0.930 . S
H745 C758 0.930 . S
H746 C759 0.930 . S
H747 C763 0.959 . S
H748 C763 0.959 . S
H749 C763 0.961 . S
H750 C764 0.960 . S
H751 C764 0.961 1_655 S
H752 C764 0.959 . S
H753 C767 0.929 . S
H754 C768 0.931 . S
H755 C770 0.930 . S
C756 H744 0.930 . S
C756 C757 1.399 . S
C756 C761 1.399 . S
C757 C756 1.399 . S
C757 C758 1.376 . S
C758 H745 0.930 . S
C758 C757 1.376 . S
C758 C759 1.388 1_565 S
C759 H746 0.930 . S
C759 C758 1.388 1_545 S
C759 C760 1.389 1_545 S
C760 C759 1.389 1_565 S
C760 C761 1.410 . S
C760 C766 1.453 1_565 S
C761 C756 1.399 . S
C761 C760 1.410 . S
C761 C762 1.516 1_455 S
C762 C761 1.516 1_655 S
C762 C763 1.502 . S
C762 C764 1.561 1_655 S
C762 C765 1.526 1_565 S
C763 H747 0.959 . S
C763 H748 0.959 . S
C763 H749 0.961 . S
C763 C762 1.502 . S
C764 H750 0.960 . S
C764 H751 0.961 1_455 S
C764 H752 0.959 . S
C764 C762 1.561 1_455 S
C765 C762 1.526 1_545 S
C765 C766 1.396 1_655 S
C765 C770 1.390 . S
C766 C760 1.453 1_545 S
C766 C765 1.396 1_455 S
C766 C767 1.399 . S
C767 H753 0.929 . S
C767 C766 1.399 . S
C767 C768 1.385 1_455 S
C768 H754 0.931 . S
C768 C767 1.385 1_655 S
C768 C769 1.389 . S
C769 C768 1.389 . S
C769 C770 1.387 . S
C770 H755 0.930 . S
C770 C765 1.390 . S
C770 C769 1.387 . S
H771 C783 0.930 . S
H772 C785 0.930 . S
H773 C786 0.930 . S
H774 C790 0.941 1_545 S
H775 C790 0.973 . S
H776 C790 0.956 1_545 S
H777 C791 0.960 . S
H778 C791 0.961 . S
H779 C791 0.959 . S
H780 C794 0.935 . S
H781 C795 0.931 . S
H782 C797 0.930 . S
C783 H771 0.930 . S
C783 C784 1.399 . S
C783 C788 1.399 . S
C784 C783 1.399 . S
C784 C785 1.376 . S
C785 H772 0.930 . S
C785 C784 1.376 . S
C785 C786 1.388 . S
C786 H773 0.930 . S
C786 C785 1.388 . S
C786 C787 1.390 . S
C787 C786 1.390 . S
C787 C788 1.394 . S
C787 C793 1.465 1_545 S
C788 C783 1.399 . S
C788 C787 1.394 . S
C788 C789 1.516 1_545 S
C789 C788 1.516 1_565 S
C789 C790 1.510 . S
C789 C791 1.561 . S
C789 C792 1.526 . S
C790 H774 0.941 1_565 S
C790 H775 0.973 . S
C790 H776 0.956 1_565 S
C790 C789 1.510 . S
C791 H777 0.960 . S
C791 H778 0.961 . S
C791 H779 0.959 . S
C791 C789 1.561 . S
C792 C789 1.526 . S
C792 C793 1.396 . S
C792 C797 1.390 . S
C793 C787 1.465 1_565 S
C793 C792 1.396 . S
C793 C794 1.399 . S
C794 H780 0.935 . S
C794 C793 1.399 . S
C794 C795 1.385 . S
C795 H781 0.931 . S
C795 C794 1.385 . S
C795 C796 1.389 . S
C796 C795 1.389 . S
C796 C797 1.387 . S
C797 H782 0.930 . S
C797 C792 1.390 . S
C797 C796 1.387 . S
H798 C810 0.930 . S
H799 C812 0.930 . S
H800 C813 0.930 . S
H801 C817 0.959 . S
H802 C817 0.959 . S
H803 C817 0.961 . S
H804 C818 0.960 . S
H805 C818 0.961 . S
H806 C818 0.959 . S
H807 C821 0.929 . S
H808 C822 0.931 . S
H809 C824 0.930 . S
C810 H798 0.930 . S
C810 C811 1.399 . S
C810 C815 1.399 . S
C811 C810 1.399 . S
C811 C812 1.376 . S
C812 H799 0.930 . S
C812 C811 1.376 . S
C812 C813 1.388 . S
C813 H800 0.930 . S
C813 C812 1.388 . S
C813 C814 1.390 . S
C814 C813 1.390 . S
C814 C815 1.394 . S
C814 C820 1.465 . S
C815 C810 1.399 . S
C815 C814 1.394 . S
C815 C816 1.516 . S
C816 C815 1.516 . S
C816 C817 1.502 . S
C816 C818 1.561 . S
C816 C819 1.526 . S
C817 H801 0.959 . S
C817 H802 0.959 . S
C817 H803 0.961 . S
C817 C816 1.502 . S
C818 H804 0.960 . S
C818 H805 0.961 . S
C818 H806 0.959 . S
C818 C816 1.561 . S
C819 C816 1.526 . S
C819 C820 1.396 . S
C819 C824 1.390 . S
C820 C814 1.465 . S
C820 C819 1.396 . S
C820 C821 1.399 . S
C821 H807 0.929 . S
C821 C820 1.399 . S
C821 C822 1.385 . S
C822 H808 0.931 . S
C822 C821 1.385 . S
C822 C823 1.389 . S
C823 C822 1.389 . S
C823 C824 1.387 . S
C824 H809 0.930 . S
C824 C819 1.390 . S
C824 C823 1.387 . S
H825 C837 0.930 . S
H826 C839 0.930 . S
H827 C840 0.930 . S
H828 C844 0.959 . S
H829 C844 0.959 . S
H830 C844 0.961 . S
H831 C845 0.960 . S
H832 C845 0.961 . S
H833 C845 0.959 . S
H834 C848 0.929 . S
H835 C849 0.931 . S
H836 C851 0.930 . S
C837 H825 0.930 . S
C837 C838 1.399 . S
C837 C842 1.399 . S
C838 C837 1.399 . S
C838 C839 1.376 . S
C839 H826 0.930 . S
C839 C838 1.376 . S
C839 C840 1.388 1_655 S
C840 H827 0.930 . S
C840 C839 1.388 1_455 S
C840 C841 1.389 1_455 S
C841 C840 1.389 1_655 S
C841 C842 1.403 . S
C841 C847 1.458 1_655 S
C842 C837 1.399 . S
C842 C841 1.403 . S
C842 C843 1.516 . S
C843 C842 1.516 . S
C843 C844 1.502 . S
C843 C845 1.561 . S
C843 C846 1.526 1_655 S
C844 H828 0.959 . S
C844 H829 0.959 . S
C844 H830 0.961 . S
C844 C843 1.502 . S
C845 H831 0.960 . S
C845 H832 0.961 . S
C845 H833 0.959 . S
C845 C843 1.561 . S
C846 C843 1.526 1_455 S
C846 C847 1.396 . S
C846 C851 1.390 . S
C847 C841 1.458 1_455 S
C847 C846 1.396 . S
C847 C848 1.399 . S
C848 H834 0.929 . S
C848 C847 1.399 . S
C848 C849 1.385 . S
C849 H835 0.931 . S
C849 C848 1.385 . S
C849 C850 1.389 . S
C850 C849 1.389 . S
C850 C851 1.387 . S
C851 H836 0.930 . S
C851 C846 1.390 . S
C851 C850 1.387 . S
H852 C864 0.927 1_554 S
H853 C866 0.930 . S
H854 C867 0.930 1_455 S
H855 C871 0.959 . S
H856 C871 0.959 . S
H857 C871 0.961 . S
H858 C872 0.960 . S
H859 C872 0.961 . S
H860 C872 0.959 . S
H861 C875 0.929 . S
H862 C876 0.931 . S
H863 C878 0.930 . S
C864 H852 0.927 1_556 S
C864 C865 1.399 . S
C864 C869 1.399 . S
C865 C864 1.399 . S
C865 C866 1.376 . S
C866 H853 0.930 . S
C866 C865 1.376 . S
C866 C867 1.388 . S
C867 H854 0.930 1_655 S
C867 C866 1.388 . S
C867 C868 1.390 . S
C868 C867 1.390 . S
C868 C869 1.394 . S
C868 C874 1.465 1_655 S
C869 C864 1.399 . S
C869 C868 1.394 . S
C869 C870 1.516 1_556 S
C870 C869 1.516 1_554 S
C870 C871 1.502 . S
C870 C872 1.561 1_655 S
C870 C873 1.526 1_655 S
C871 H855 0.959 . S
C871 H856 0.959 . S
C871 H857 0.961 . S
C871 C870 1.502 . S
C872 H858 0.960 . S
C872 H859 0.961 . S
C872 H860 0.959 . S
C872 C870 1.561 1_455 S
C873 C870 1.526 1_455 S
C873 C874 1.396 1_554 S
C873 C878 1.390 . S
C874 C868 1.465 1_455 S
C874 C873 1.396 1_556 S
C874 C875 1.399 . S
C875 H861 0.929 . S
C875 C874 1.399 . S
C875 C876 1.385 1_556 S
C876 H862 0.931 . S
C876 C875 1.385 1_554 S
C876 C877 1.389 . S
C877 C876 1.389 . S
C877 C878 1.387 . S
C878 H863 0.930 . S
C878 C873 1.390 . S
C878 C877 1.387 . S
H879 C891 0.930 . S
H880 C893 0.930 . S
H881 C894 0.930 . S
H882 C898 0.959 1_455 S
H883 C898 0.959 . S
H884 C898 0.961 . S
H885 C899 0.960 . S
H886 C899 0.961 1_545 S
H887 C899 0.959 . S
H888 C902 0.942 . S
H889 C903 0.931 . S
H890 C905 0.940 . S
C891 H879 0.930 . S
C891 C892 1.399 . S
C891 C896 1.399 . S
C892 C891 1.399 . S
C892 C893 1.376 . S
C893 H880 0.930 . S
C893 C892 1.376 . S
C893 C894 1.388 1_556 S
C894 H881 0.930 . S
C894 C893 1.388 1_554 S
C894 C895 1.390 . S
C895 C894 1.390 . S
C895 C896 1.394 1_554 S
C895 C901 1.479 1_455 S
C896 C891 1.399 . S
C896 C895 1.394 1_556 S
C896 C897 1.516 1_465 S
C897 C896 1.516 1_645 S
C897 C898 1.502 . S
C897 C899 1.561 1_545 S
C897 C900 1.526 1_556 S
C898 H882 0.959 1_655 S
C898 H883 0.959 . S
C898 H884 0.961 . S
C898 C897 1.502 . S
C899 H885 0.960 . S
C899 H886 0.961 1_565 S
C899 H887 0.959 . S
C899 C897 1.561 1_565 S
C900 C897 1.526 1_554 S
C900 C901 1.381 1_545 S
C900 C905 1.390 . S
C901 C895 1.479 1_655 S
C901 C900 1.381 1_565 S
C901 C902 1.399 . S
C902 H888 0.942 . S
C902 C901 1.399 . S
C902 C903 1.372 1_565 S
C903 H889 0.931 . S
C903 C902 1.372 1_545 S
C903 C904 1.389 . S
C904 C903 1.389 . S
C904 C905 1.387 . S
C905 H890 0.940 . S
C905 C900 1.390 . S
C905 C904 1.387 . S
H906 C918 0.930 . S
H907 C920 0.930 . S
H908 C921 0.930 . S
H909 C925 0.959 . S
H910 C925 0.959 . S
H911 C925 0.961 . S
H912 C926 0.960 . S
H913 C926 0.961 . S
H914 C926 0.959 . S
H915 C929 0.929 1_545 S
H916 C930 0.931 . S
H917 C932 0.936 . S
C918 H906 0.930 . S
C918 C919 1.399 . S
C918 C923 1.399 . S
C919 C918 1.399 . S
C919 C920 1.376 . S
C920 H907 0.930 . S
C920 C919 1.376 . S
C920 C921 1.388 1_556 S
C921 H908 0.930 . S
C921 C920 1.388 1_554 S
C921 C922 1.390 . S
C922 C921 1.390 . S
C922 C923 1.394 1_554 S
C922 C928 1.465 1_545 S
C923 C918 1.399 . S
C923 C922 1.394 1_556 S
C923 C924 1.516 1_545 S
C924 C923 1.516 1_565 S
C924 C925 1.502 . S
C924 C926 1.561 . S
C924 C927 1.526 1_556 S
C925 H909 0.959 . S
C925 H910 0.959 . S
C925 H911 0.961 . S
C925 C924 1.502 . S
C926 H912 0.960 . S
C926 H913 0.961 . S
C926 H914 0.959 . S
C926 C924 1.561 . S
C927 C924 1.526 1_554 S
C927 C928 1.396 . S
C927 C932 1.390 . S
C928 C922 1.465 1_565 S
C928 C927 1.396 . S
C928 C929 1.399 . S
C929 H915 0.929 1_565 S
C929 C928 1.399 . S
C929 C930 1.385 . S
C930 H916 0.931 . S
C930 C929 1.385 . S
C930 C931 1.389 . S
C931 C930 1.389 . S
C931 C932 1.387 . S
C932 H917 0.936 . S
C932 C927 1.390 . S
C932 C931 1.387 . S
H933 C945 0.930 . S
H934 C947 0.930 . S
H935 C948 0.930 . S
H936 C952 0.959 . S
H937 C952 0.959 . S
H938 C952 0.961 . S
H939 C953 0.960 . S
H940 C953 0.961 . S
H941 C953 0.959 . S
H942 C956 0.929 . S
H943 C957 0.931 . S
H944 C959 0.954 . S
C945 H933 0.930 . S
C945 C946 1.399 . S
C945 C950 1.399 . S
C946 C945 1.399 . S
C946 C947 1.376 . S
C947 H934 0.930 . S
C947 C946 1.376 . S
C947 C948 1.388 1_556 S
C948 H935 0.930 . S
C948 C947 1.388 1_554 S
C948 C949 1.390 . S
C949 C948 1.390 . S
C949 C950 1.394 1_554 S
C949 C955 1.465 . S
C950 C945 1.399 . S
C950 C949 1.394 1_556 S
C950 C951 1.516 . S
C951 C950 1.516 . S
C951 C952 1.502 . S
C951 C953 1.561 . S
C951 C954 1.526 1_556 S
C952 H936 0.959 . S
C952 H937 0.959 . S
C952 H938 0.961 . S
C952 C951 1.502 . S
C953 H939 0.960 . S
C953 H940 0.961 . S
C953 H941 0.959 . S
C953 C951 1.561 . S
C954 C951 1.526 1_554 S
C954 C955 1.396 . S
C954 C959 1.390 . S
C955 C949 1.465 . S
C955 C954 1.396 . S
C955 C956 1.399 . S
C956 H942 0.929 . S
C956 C955 1.399 . S
C956 C957 1.385 . S
C957 H943 0.931 . S
C957 C956 1.385 . S
C957 C958 1.389 . S
C958 C957 1.389 . S
C958 C959 1.387 . S
C959 H944 0.954 . S
C959 C954 1.390 . S
C959 C958 1.387 . S
H960 C972 0.930 . S
H961 C974 0.930 . S
H962 C975 0.930 . S
H963 C979 0.959 . S
H964 C979 0.959 . S
H965 C979 0.961 . S
H966 C980 0.960 . S
H967 C980 0.961 . S
H968 C980 0.959 . S
H969 C983 0.929 . S
H970 C984 0.931 . S
H971 C986 0.930 . S
C972 H960 0.930 . S
C972 C973 1.399 . S
C972 C977 1.399 . S
C973 C972 1.399 . S
C973 C974 1.376 . S
C974 H961 0.930 . S
C974 C973 1.376 . S
C974 C975 1.388 . S
C975 H962 0.930 . S
C975 C974 1.388 . S
C975 C976 1.390 . S
C976 C975 1.390 . S
C976 C977 1.394 . S
C976 C982 1.465 . S
C977 C972 1.399 . S
C977 C976 1.394 . S
C977 C978 1.516 . S
C978 C977 1.516 . S
C978 C979 1.502 . S
C978 C980 1.561 . S
C978 C981 1.526 . S
C979 H963 0.959 . S
C979 H964 0.959 . S
C979 H965 0.961 . S
C979 C978 1.502 . S
C980 H966 0.960 . S
C980 H967 0.961 . S
C980 H968 0.959 . S
C980 C978 1.561 . S
C981 C978 1.526 . S
C981 C982 1.396 . S
C981 C986 1.390 . S
C982 C976 1.465 . S
C982 C981 1.396 . S
C982 C983 1.399 . S
C983 H969 0.929 . S
C983 C982 1.399 . S
C983 C984 1.385 . S
C984 H970 0.931 . S
C984 C983 1.385 . S
C984 C985 1.389 . S
C985 C984 1.389 . S
C985 C986 1.387 . S
C986 H971 0.930 . S
C986 C981 1.390 . S
C986 C985 1.387 . S
H987 C999 0.930 . S
H988 C1001 0.930 . S
H989 C1002 0.930 . S
H990 C1006 0.959 . S
H991 C1006 0.959 1_545 S
H992 C1006 0.961 1_545 S
H993 C1007 0.960 . S
H994 C1007 0.961 . S
H995 C1007 0.959 . S
H996 C1010 0.929 . S
H997 C1011 0.931 . S
H998 C1013 0.930 . S
C999 H987 0.930 . S
C999 C1000 1.399 . S
C999 C1004 1.399 . S
C1000 C999 1.399 . S
C1000 C1001 1.376 . S
C1001 H988 0.930 . S
C1001 C1000 1.376 . S
C1001 C1002 1.388 . S
C1002 H989 0.930 . S
C1002 C1001 1.388 . S
C1002 C1003 1.390 . S
C1003 C1002 1.390 . S
C1003 C1004 1.394 . S
C1003 C1009 1.465 . S
C1004 C999 1.399 . S
C1004 C1003 1.394 . S
C1004 C1005 1.516 . S
C1005 C1004 1.516 . S
C1005 C1006 1.502 . S
C1005 C1007 1.561 . S
C1005 C1008 1.526 . S
C1006 H990 0.959 . S
C1006 H991 0.959 1_565 S
C1006 H992 0.961 1_565 S
C1006 C1005 1.502 . S
C1007 H993 0.960 . S
C1007 H994 0.961 . S
C1007 H995 0.959 . S
C1007 C1005 1.561 . S
C1008 C1005 1.526 . S
C1008 C1009 1.396 . S
C1008 C1013 1.390 . S
C1009 C1003 1.465 . S
C1009 C1008 1.396 . S
C1009 C1010 1.399 . S
C1010 H996 0.929 . S
C1010 C1009 1.399 . S
C1010 C1011 1.385 . S
C1011 H997 0.931 . S
C1011 C1010 1.385 . S
C1011 C1012 1.389 . S
C1012 C1011 1.389 . S
C1012 C1013 1.387 . S
C1013 H998 0.930 . S
C1013 C1008 1.390 . S
C1013 C1012 1.387 . S
H1014 C1026 0.930 . S
H1015 C1028 0.930 . S
H1016 C1029 0.930 . S
H1017 C1033 0.959 . S
H1018 C1033 0.959 . S
H1019 C1033 0.961 . S
H1020 C1034 0.960 . S
H1021 C1034 0.961 . S
H1022 C1034 0.959 . S
H1023 C1037 0.929 . S
H1024 C1038 0.931 . S
H1025 C1040 0.930 . S
C1026 H1014 0.930 . S
C1026 C1027 1.399 . S
C1026 C1031 1.399 . S
C1027 C1026 1.399 . S
C1027 C1028 1.376 . S
C1028 H1015 0.930 . S
C1028 C1027 1.376 . S
C1028 C1029 1.388 . S
C1029 H1016 0.930 . S
C1029 C1028 1.388 . S
C1029 C1030 1.390 . S
C1030 C1029 1.390 . S
C1030 C1031 1.394 . S
C1030 C1036 1.465 . S
C1031 C1026 1.399 . S
C1031 C1030 1.394 . S
C1031 C1032 1.516 . S
C1032 C1031 1.516 . S
C1032 C1033 1.502 . S
C1032 C1034 1.561 . S
C1032 C1035 1.526 . S
C1033 H1017 0.959 . S
C1033 H1018 0.959 . S
C1033 H1019 0.961 . S
C1033 C1032 1.502 . S
C1034 H1020 0.960 . S
C1034 H1021 0.961 . S
C1034 H1022 0.959 . S
C1034 C1032 1.561 . S
C1035 C1032 1.526 . S
C1035 C1036 1.396 . S
C1035 C1040 1.390 . S
C1036 C1030 1.465 . S
C1036 C1035 1.396 . S
C1036 C1037 1.399 . S
C1037 H1023 0.929 . S
C1037 C1036 1.399 . S
C1037 C1038 1.385 . S
C1038 H1024 0.931 . S
C1038 C1037 1.385 . S
C1038 C1039 1.389 . S
C1039 C1038 1.389 . S
C1039 C1040 1.387 . S
C1040 H1025 0.930 . S
C1040 C1035 1.390 . S
C1040 C1039 1.387 . S
H1041 C1053 0.930 . S
H1042 C1055 0.930 . S
H1043 C1056 0.930 . S
H1044 C1060 0.959 . S
H1045 C1060 0.959 . S
H1046 C1060 0.961 . S
H1047 C1061 0.960 . S
H1048 C1061 0.961 . S
H1049 C1061 0.959 . S
H1050 C1064 0.929 . S
H1051 C1065 0.931 . S
H1052 C1067 0.930 . S
C1053 H1041 0.930 . S
C1053 C1054 1.399 . S
C1053 C1058 1.399 . S
C1054 C1053 1.399 . S
C1054 C1055 1.376 . S
C1055 H1042 0.930 . S
C1055 C1054 1.376 . S
C1055 C1056 1.388 . S
C1056 H1043 0.930 . S
C1056 C1055 1.388 . S
C1056 C1057 1.390 . S
C1057 C1056 1.390 . S
C1057 C1058 1.394 . S
C1057 C1063 1.465 . S
C1058 C1053 1.399 . S
C1058 C1057 1.394 . S
C1058 C1059 1.516 . S
C1059 C1058 1.516 . S
C1059 C1060 1.502 . S
C1059 C1061 1.561 . S
C1059 C1062 1.526 . S
C1060 H1044 0.959 . S
C1060 H1045 0.959 . S
C1060 H1046 0.961 . S
C1060 C1059 1.502 . S
C1061 H1047 0.960 . S
C1061 H1048 0.961 . S
C1061 H1049 0.959 . S
C1061 C1059 1.561 . S
C1062 C1059 1.526 . S
C1062 C1063 1.396 . S
C1062 C1067 1.390 . S
C1063 C1057 1.465 . S
C1063 C1062 1.396 . S
C1063 C1064 1.399 . S
C1064 H1050 0.929 . S
C1064 C1063 1.399 . S
C1064 C1065 1.385 . S
C1065 H1051 0.931 . S
C1065 C1064 1.385 . S
C1065 C1066 1.389 . S
C1066 C1065 1.389 . S
C1066 C1067 1.387 . S
C1067 H1052 0.930 . S
C1067 C1062 1.390 . S
C1067 C1066 1.387 . S
H1068 C1080 0.930 . S
H1069 C1082 0.930 . S
H1070 C1083 0.930 . S
H1071 C1087 0.959 . S
H1072 C1087 0.959 . S
H1073 C1087 0.961 . S
H1074 C1088 0.960 . S
H1075 C1088 0.961 . S
H1076 C1088 0.959 . S
H1077 C1091 0.929 . S
H1078 C1092 0.931 . S
H1079 C1094 0.930 . S
C1080 H1068 0.930 . S
C1080 C1081 1.399 . S
C1080 C1085 1.399 . S
C1081 C1080 1.399 . S
C1081 C1082 1.376 . S
C1082 H1069 0.930 . S
C1082 C1081 1.376 . S
C1082 C1083 1.388 . S
C1083 H1070 0.930 . S
C1083 C1082 1.388 . S
C1083 C1084 1.390 . S
C1084 C1083 1.390 . S
C1084 C1085 1.394 . S
C1084 C1090 1.465 . S
C1085 C1080 1.399 . S
C1085 C1084 1.394 . S
C1085 C1086 1.516 . S
C1086 C1085 1.516 . S
C1086 C1087 1.502 . S
C1086 C1088 1.561 . S
C1086 C1089 1.526 . S
C1087 H1071 0.959 . S
C1087 H1072 0.959 . S
C1087 H1073 0.961 . S
C1087 C1086 1.502 . S
C1088 H1074 0.960 . S
C1088 H1075 0.961 . S
C1088 H1076 0.959 . S
C1088 C1086 1.561 . S
C1089 C1086 1.526 . S
C1089 C1090 1.396 . S
C1089 C1094 1.390 . S
C1090 C1084 1.465 . S
C1090 C1089 1.396 . S
C1090 C1091 1.399 . S
C1091 H1077 0.929 . S
C1091 C1090 1.399 . S
C1091 C1092 1.385 . S
C1092 H1078 0.931 . S
C1092 C1091 1.385 . S
C1092 C1093 1.389 . S
C1093 C1092 1.389 . S
C1093 C1094 1.387 . S
C1094 H1079 0.930 . S
C1094 C1089 1.390 . S
C1094 C1093 1.387 . S
H1095 C1107 0.930 . S
H1096 C1109 0.930 . S
H1097 C1110 0.930 . S
H1098 C1114 0.959 . S
H1099 C1114 0.959 . S
H1100 C1114 0.961 . S
H1101 C1115 0.960 . S
H1102 C1115 0.961 . S
H1103 C1115 0.959 . S
H1104 C1118 0.929 . S
H1105 C1119 0.931 . S
H1106 C1121 0.930 . S
C1107 H1095 0.930 . S
C1107 C1108 1.399 . S
C1107 C1112 1.399 . S
C1108 C1107 1.399 . S
C1108 C1109 1.376 . S
C1109 H1096 0.930 . S
C1109 C1108 1.376 . S
C1109 C1110 1.388 . S
C1110 H1097 0.930 . S
C1110 C1109 1.388 . S
C1110 C1111 1.390 . S
C1111 C1110 1.390 . S
C1111 C1112 1.394 . S
C1111 C1117 1.465 . S
C1112 C1107 1.399 . S
C1112 C1111 1.394 . S
C1112 C1113 1.516 . S
C1113 C1112 1.516 . S
C1113 C1114 1.502 . S
C1113 C1115 1.561 . S
C1113 C1116 1.526 . S
C1114 H1098 0.959 . S
C1114 H1099 0.959 . S
C1114 H1100 0.961 . S
C1114 C1113 1.502 . S
C1115 H1101 0.960 . S
C1115 H1102 0.961 . S
C1115 H1103 0.959 . S
C1115 C1113 1.561 . S
C1116 C1113 1.526 . S
C1116 C1117 1.396 . S
C1116 C1121 1.390 . S
C1117 C1111 1.465 . S
C1117 C1116 1.396 . S
C1117 C1118 1.399 . S
C1118 H1104 0.929 . S
C1118 C1117 1.399 . S
C1118 C1119 1.385 . S
C1119 H1105 0.931 . S
C1119 C1118 1.385 . S
C1119 C1120 1.389 . S
C1120 C1119 1.389 . S
C1120 C1121 1.387 . S
C1121 H1106 0.930 . S
C1121 C1116 1.390 . S
C1121 C1120 1.387 . S
H1122 C1134 0.930 . S
H1123 C1136 0.930 . S
H1124 C1137 0.930 . S
H1125 C1141 0.959 . S
H1126 C1141 0.959 . S
H1127 C1141 0.961 . S
H1128 C1142 0.960 . S
H1129 C1142 0.961 . S
H1130 C1142 0.959 . S
H1131 C1145 0.929 . S
H1132 C1146 0.931 . S
H1133 C1148 0.930 . S
C1134 H1122 0.930 . S
C1134 C1135 1.399 . S
C1134 C1139 1.399 . S
C1135 C1134 1.399 . S
C1135 C1136 1.376 . S
C1136 H1123 0.930 . S
C1136 C1135 1.376 . S
C1136 C1137 1.388 . S
C1137 H1124 0.930 . S
C1137 C1136 1.388 . S
C1137 C1138 1.390 . S
C1138 C1137 1.390 . S
C1138 C1139 1.394 . S
C1138 C1144 1.465 . S
C1139 C1134 1.399 . S
C1139 C1138 1.394 . S
C1139 C1140 1.516 . S
C1140 C1139 1.516 . S
C1140 C1141 1.502 . S
C1140 C1142 1.561 . S
C1140 C1143 1.526 . S
C1141 H1125 0.959 . S
C1141 H1126 0.959 . S
C1141 H1127 0.961 . S
C1141 C1140 1.502 . S
C1142 H1128 0.960 . S
C1142 H1129 0.961 . S
C1142 H1130 0.959 . S
C1142 C1140 1.561 . S
C1143 C1140 1.526 . S
C1143 C1144 1.396 . S
C1143 C1148 1.390 . S
C1144 C1138 1.465 . S
C1144 C1143 1.396 . S
C1144 C1145 1.399 . S
C1145 H1131 0.929 . S
C1145 C1144 1.399 . S
C1145 C1146 1.385 . S
C1146 H1132 0.931 . S
C1146 C1145 1.385 . S
C1146 C1147 1.389 . S
C1147 C1146 1.389 . S
C1147 C1148 1.387 . S
C1148 H1133 0.930 . S
C1148 C1143 1.390 . S
C1148 C1147 1.387 . S
H1149 C1161 0.930 . S
H1150 C1163 0.930 . S
H1151 C1164 0.930 . S
H1152 C1168 0.959 . S
H1153 C1168 0.959 . S
H1154 C1168 0.961 . S
H1155 C1169 0.960 . S
H1156 C1169 0.961 . S
H1157 C1169 0.959 . S
H1158 C1172 0.929 . S
H1159 C1173 0.931 . S
H1160 C1175 0.930 . S
C1161 H1149 0.930 . S
C1161 C1162 1.399 . S
C1161 C1166 1.399 . S
C1162 C1161 1.399 . S
C1162 C1163 1.376 . S
C1163 H1150 0.930 . S
C1163 C1162 1.376 . S
C1163 C1164 1.388 . S
C1164 H1151 0.930 . S
C1164 C1163 1.388 . S
C1164 C1165 1.390 . S
C1165 C1164 1.390 . S
C1165 C1166 1.394 . S
C1165 C1171 1.465 . S
C1166 C1161 1.399 . S
C1166 C1165 1.394 . S
C1166 C1167 1.516 . S
C1167 C1166 1.516 . S
C1167 C1168 1.502 . S
C1167 C1169 1.561 . S
C1167 C1170 1.526 . S
C1168 H1152 0.959 . S
C1168 H1153 0.959 . S
C1168 H1154 0.961 . S
C1168 C1167 1.502 . S
C1169 H1155 0.960 . S
C1169 H1156 0.961 . S
C1169 H1157 0.959 . S
C1169 C1167 1.561 . S
C1170 C1167 1.526 . S
C1170 C1171 1.396 . S
C1170 C1175 1.390 . S
C1171 C1165 1.465 . S
C1171 C1170 1.396 . S
C1171 C1172 1.399 . S
C1172 H1158 0.929 . S
C1172 C1171 1.399 . S
C1172 C1173 1.385 . S
C1173 H1159 0.931 . S
C1173 C1172 1.385 . S
C1173 C1174 1.389 . S
C1174 C1173 1.389 . S
C1174 C1175 1.387 . S
C1175 H1160 0.930 . S
C1175 C1170 1.390 . S
C1175 C1174 1.387 . S
H1176 C1188 0.930 . S
H1177 C1190 0.930 . S
H1178 C1191 0.930 . S
H1179 C1195 0.959 . S
H1180 C1195 0.959 . S
H1181 C1195 0.961 . S
H1182 C1196 0.959 1_565 S
H1183 C1196 0.961 . S
H1184 C1196 0.954 1_565 S
H1185 C1199 0.929 . S
H1186 C1200 0.931 . S
H1187 C1202 0.930 . S
C1188 H1176 0.930 . S
C1188 C1189 1.399 . S
C1188 C1193 1.399 . S
C1189 C1188 1.399 . S
C1189 C1190 1.376 . S
C1190 H1177 0.930 . S
C1190 C1189 1.376 . S
C1190 C1191 1.388 . S
C1191 H1178 0.930 . S
C1191 C1190 1.388 . S
C1191 C1192 1.390 . S
C1192 C1191 1.390 . S
C1192 C1193 1.394 . S
C1192 C1198 1.465 . S
C1193 C1188 1.399 . S
C1193 C1192 1.394 . S
C1193 C1194 1.516 . S
C1194 C1193 1.516 . S
C1194 C1195 1.502 . S
C1194 C1196 1.561 . S
C1194 C1197 1.526 . S
C1195 H1179 0.959 . S
C1195 H1180 0.959 . S
C1195 H1181 0.961 . S
C1195 C1194 1.502 . S
C1196 H1182 0.959 1_545 S
C1196 H1183 0.961 . S
C1196 H1184 0.954 1_545 S
C1196 C1194 1.561 . S
C1197 C1194 1.526 . S
C1197 C1198 1.396 . S
C1197 C1202 1.390 . S
C1198 C1192 1.465 . S
C1198 C1197 1.396 . S
C1198 C1199 1.399 . S
C1199 H1185 0.929 . S
C1199 C1198 1.399 . S
C1199 C1200 1.385 . S
C1200 H1186 0.931 . S
C1200 C1199 1.385 . S
C1200 C1201 1.389 . S
C1201 C1200 1.389 . S
C1201 C1202 1.387 . S
C1202 H1187 0.930 . S
C1202 C1197 1.390 . S
C1202 C1201 1.387 . S
H1203 C1215 0.930 . S
H1204 C1217 0.930 . S
H1205 C1218 0.930 . S
H1206 C1222 0.959 . S
H1207 C1222 0.959 . S
H1208 C1222 0.961 . S
H1209 C1223 0.960 . S
H1210 C1223 0.961 . S
H1211 C1223 0.959 . S
H1212 C1226 0.929 . S
H1213 C1227 0.931 . S
H1214 C1229 0.930 . S
C1215 H1203 0.930 . S
C1215 C1216 1.399 . S
C1215 C1220 1.399 . S
C1216 C1215 1.399 . S
C1216 C1217 1.376 . S
C1217 H1204 0.930 . S
C1217 C1216 1.376 . S
C1217 C1218 1.388 . S
C1218 H1205 0.930 . S
C1218 C1217 1.388 . S
C1218 C1219 1.390 . S
C1219 C1218 1.390 . S
C1219 C1220 1.394 . S
C1219 C1225 1.465 . S
C1220 C1215 1.399 . S
C1220 C1219 1.394 . S
C1220 C1221 1.516 . S
C1221 C1220 1.516 . S
C1221 C1222 1.502 . S
C1221 C1223 1.561 . S
C1221 C1224 1.526 . S
C1222 H1206 0.959 . S
C1222 H1207 0.959 . S
C1222 H1208 0.961 . S
C1222 C1221 1.502 . S
C1223 H1209 0.960 . S
C1223 H1210 0.961 . S
C1223 H1211 0.959 . S
C1223 C1221 1.561 . S
C1224 C1221 1.526 . S
C1224 C1225 1.396 . S
C1224 C1229 1.390 . S
C1225 C1219 1.465 . S
C1225 C1224 1.396 . S
C1225 C1226 1.399 . S
C1226 H1212 0.929 . S
C1226 C1225 1.399 . S
C1226 C1227 1.385 . S
C1227 H1213 0.931 . S
C1227 C1226 1.385 . S
C1227 C1228 1.389 . S
C1228 C1227 1.389 . S
C1228 C1229 1.387 . S
C1229 H1214 0.930 . S
C1229 C1224 1.390 . S
C1229 C1228 1.387 . S
H1230 C1242 0.930 . S
H1231 C1244 0.930 . S
H1232 C1245 0.930 . S
H1233 C1249 0.959 . S
H1234 C1249 0.959 . S
H1235 C1249 0.961 . S
H1236 C1250 0.960 . S
H1237 C1250 0.961 . S
H1238 C1250 0.959 . S
H1239 C1253 0.929 . S
H1240 C1254 0.931 . S
H1241 C1256 0.930 . S
C1242 H1230 0.930 . S
C1242 C1243 1.399 . S
C1242 C1247 1.399 . S
C1243 C1242 1.399 . S
C1243 C1244 1.376 . S
C1244 H1231 0.930 . S
C1244 C1243 1.376 . S
C1244 C1245 1.388 . S
C1245 H1232 0.930 . S
C1245 C1244 1.388 . S
C1245 C1246 1.390 . S
C1246 C1245 1.390 . S
C1246 C1247 1.394 . S
C1246 C1252 1.465 . S
C1247 C1242 1.399 . S
C1247 C1246 1.394 . S
C1247 C1248 1.516 . S
C1248 C1247 1.516 . S
C1248 C1249 1.502 . S
C1248 C1250 1.561 . S
C1248 C1251 1.526 . S
C1249 H1233 0.959 . S
C1249 H1234 0.959 . S
C1249 H1235 0.961 . S
C1249 C1248 1.502 . S
C1250 H1236 0.960 . S
C1250 H1237 0.961 . S
C1250 H1238 0.959 . S
C1250 C1248 1.561 . S
C1251 C1248 1.526 . S
C1251 C1252 1.396 . S
C1251 C1256 1.390 . S
C1252 C1246 1.465 . S
C1252 C1251 1.396 . S
C1252 C1253 1.399 . S
C1253 H1239 0.929 . S
C1253 C1252 1.399 . S
C1253 C1254 1.385 . S
C1254 H1240 0.931 . S
C1254 C1253 1.385 . S
C1254 C1255 1.389 . S
C1255 C1254 1.389 . S
C1255 C1256 1.387 . S
C1256 H1241 0.930 . S
C1256 C1251 1.390 . S
C1256 C1255 1.387 . S
H1257 C1269 0.930 . S
H1258 C1271 0.930 . S
H1259 C1272 0.930 . S
H1260 C1276 0.959 . S
H1261 C1276 0.959 . S
H1262 C1276 0.961 . S
H1263 C1277 0.960 . S
H1264 C1277 0.961 . S
H1265 C1277 0.959 . S
H1266 C1280 0.929 . S
H1267 C1281 0.931 . S
H1268 C1283 0.930 . S
C1269 H1257 0.930 . S
C1269 C1270 1.399 . S
C1269 C1274 1.399 . S
C1270 C1269 1.399 . S
C1270 C1271 1.376 . S
C1271 H1258 0.930 . S
C1271 C1270 1.376 . S
C1271 C1272 1.388 . S
C1272 H1259 0.930 . S
C1272 C1271 1.388 . S
C1272 C1273 1.390 . S
C1273 C1272 1.390 . S
C1273 C1274 1.394 . S
C1273 C1279 1.465 . S
C1274 C1269 1.399 . S
C1274 C1273 1.394 . S
C1274 C1275 1.516 . S
C1275 C1274 1.516 . S
C1275 C1276 1.502 . S
C1275 C1277 1.561 . S
C1275 C1278 1.526 . S
C1276 H1260 0.959 . S
C1276 H1261 0.959 . S
C1276 H1262 0.961 . S
C1276 C1275 1.502 . S
C1277 H1263 0.960 . S
C1277 H1264 0.961 . S
C1277 H1265 0.959 . S
C1277 C1275 1.561 . S
C1278 C1275 1.526 . S
C1278 C1279 1.396 . S
C1278 C1283 1.390 . S
C1279 C1273 1.465 . S
C1279 C1278 1.396 . S
C1279 C1280 1.399 . S
C1280 H1266 0.929 . S
C1280 C1279 1.399 . S
C1280 C1281 1.385 . S
C1281 H1267 0.931 . S
C1281 C1280 1.385 . S
C1281 C1282 1.389 . S
C1282 C1281 1.389 . S
C1282 C1283 1.387 . S
C1283 H1268 0.930 . S
C1283 C1278 1.390 . S
C1283 C1282 1.387 . S
H1284 C1296 0.930 . S
H1285 C1298 0.930 . S
H1286 C1299 0.930 . S
H1287 C1303 0.959 . S
H1288 C1303 0.959 . S
H1289 C1303 0.961 . S
H1290 C1304 0.960 . S
H1291 C1304 0.961 . S
H1292 C1304 0.959 . S
H1293 C1307 0.929 . S
H1294 C1308 0.931 . S
H1295 C1310 0.930 . S
C1296 H1284 0.930 . S
C1296 C1297 1.399 . S
C1296 C1301 1.399 . S
C1297 C1296 1.399 . S
C1297 C1298 1.376 . S
C1298 H1285 0.930 . S
C1298 C1297 1.376 . S
C1298 C1299 1.388 . S
C1299 H1286 0.930 . S
C1299 C1298 1.388 . S
C1299 C1300 1.390 . S
C1300 C1299 1.390 . S
C1300 C1301 1.394 . S
C1300 C1306 1.465 . S
C1301 C1296 1.399 . S
C1301 C1300 1.394 . S
C1301 C1302 1.516 . S
C1302 C1301 1.516 . S
C1302 C1303 1.502 . S
C1302 C1304 1.561 . S
C1302 C1305 1.526 . S
C1303 H1287 0.959 . S
C1303 H1288 0.959 . S
C1303 H1289 0.961 . S
C1303 C1302 1.502 . S
C1304 H1290 0.960 . S
C1304 H1291 0.961 . S
C1304 H1292 0.959 . S
C1304 C1302 1.561 . S
C1305 C1302 1.526 . S
C1305 C1306 1.396 . S
C1305 C1310 1.390 . S
C1306 C1300 1.465 . S
C1306 C1305 1.396 . S
C1306 C1307 1.399 . S
C1307 H1293 0.929 . S
C1307 C1306 1.399 . S
C1307 C1308 1.385 . S
C1308 H1294 0.931 . S
C1308 C1307 1.385 . S
C1308 C1309 1.389 . S
C1309 C1308 1.389 . S
C1309 C1310 1.387 . S
C1310 H1295 0.930 . S
C1310 C1305 1.390 . S
C1310 C1309 1.387 . S
H1311 C1323 0.930 . S
H1312 C1325 0.930 . S
H1313 C1326 0.930 . S
H1314 C1330 0.959 . S
H1315 C1330 0.959 . S
H1316 C1330 0.961 . S
H1317 C1331 0.960 . S
H1318 C1331 0.961 . S
H1319 C1331 0.959 . S
H1320 C1334 0.929 . S
H1321 C1335 0.931 . S
H1322 C1337 0.930 . S
C1323 H1311 0.930 . S
C1323 C1324 1.399 . S
C1323 C1328 1.399 . S
C1324 C1323 1.399 . S
C1324 C1325 1.376 . S
C1325 H1312 0.930 . S
C1325 C1324 1.376 . S
C1325 C1326 1.388 . S
C1326 H1313 0.930 . S
C1326 C1325 1.388 . S
C1326 C1327 1.390 . S
C1327 C1326 1.390 . S
C1327 C1328 1.394 . S
C1327 C1333 1.465 . S
C1328 C1323 1.399 . S
C1328 C1327 1.394 . S
C1328 C1329 1.516 . S
C1329 C1328 1.516 . S
C1329 C1330 1.502 1_455 S
C1329 C1331 1.561 . S
C1329 C1332 1.526 . S
C1330 H1314 0.959 . S
C1330 H1315 0.959 . S
C1330 H1316 0.961 . S
C1330 C1329 1.502 1_655 S
C1331 H1317 0.960 . S
C1331 H1318 0.961 . S
C1331 H1319 0.959 . S
C1331 C1329 1.561 . S
C1332 C1329 1.526 . S
C1332 C1333 1.396 . S
C1332 C1337 1.390 . S
C1333 C1327 1.465 . S
C1333 C1332 1.396 . S
C1333 C1334 1.399 . S
C1334 H1320 0.929 . S
C1334 C1333 1.399 . S
C1334 C1335 1.385 . S
C1335 H1321 0.931 . S
C1335 C1334 1.385 . S
C1335 C1336 1.389 . S
C1336 C1335 1.389 . S
C1336 C1337 1.387 . S
C1337 H1322 0.930 . S
C1337 C1332 1.390 . S
C1337 C1336 1.387 . S
H1338 C1350 0.930 . S
H1339 C1352 0.930 . S
H1340 C1353 0.930 . S
H1341 C1357 0.959 . S
H1342 C1357 0.959 . S
H1343 C1357 0.961 . S
H1344 C1358 0.960 . S
H1345 C1358 0.961 . S
H1346 C1358 0.959 . S
H1347 C1361 0.929 . S
H1348 C1362 0.931 . S
H1349 C1364 0.930 . S
C1350 H1338 0.930 . S
C1350 C1351 1.399 . S
C1350 C1355 1.399 . S
C1351 C1350 1.399 . S
C1351 C1352 1.376 . S
C1352 H1339 0.930 . S
C1352 C1351 1.376 . S
C1352 C1353 1.388 . S
C1353 H1340 0.930 . S
C1353 C1352 1.388 . S
C1353 C1354 1.390 . S
C1354 C1353 1.390 . S
C1354 C1355 1.394 . S
C1354 C1360 1.465 . S
C1355 C1350 1.399 . S
C1355 C1354 1.394 . S
C1355 C1356 1.516 . S
C1356 C1355 1.516 . S
C1356 C1357 1.502 . S
C1356 C1358 1.561 . S
C1356 C1359 1.526 . S
C1357 H1341 0.959 . S
C1357 H1342 0.959 . S
C1357 H1343 0.961 . S
C1357 C1356 1.502 . S
C1358 H1344 0.960 . S
C1358 H1345 0.961 . S
C1358 H1346 0.959 . S
C1358 C1356 1.561 . S
C1359 C1356 1.526 . S
C1359 C1360 1.396 . S
C1359 C1364 1.390 . S
C1360 C1354 1.465 . S
C1360 C1359 1.396 . S
C1360 C1361 1.399 . S
C1361 H1347 0.929 . S
C1361 C1360 1.399 . S
C1361 C1362 1.385 . S
C1362 H1348 0.931 . S
C1362 C1361 1.385 . S
C1362 C1363 1.389 . S
C1363 C1362 1.389 . S
C1363 C1364 1.387 . S
C1364 H1349 0.930 . S
C1364 C1359 1.390 . S
C1364 C1363 1.387 . S
H1365 C1377 0.930 . S
H1366 C1379 0.930 . S
H1367 C1380 0.930 . S
H1368 C1384 0.959 . S
H1369 C1384 0.959 . S
H1370 C1384 0.961 . S
H1371 C1385 0.960 . S
H1372 C1385 0.961 . S
H1373 C1385 0.959 . S
H1374 C1388 0.929 . S
H1375 C1389 0.931 . S
H1376 C1391 0.930 . S
C1377 H1365 0.930 . S
C1377 C1378 1.399 . S
C1377 C1382 1.399 . S
C1378 C1377 1.399 . S
C1378 C1379 1.376 . S
C1379 H1366 0.930 . S
C1379 C1378 1.376 . S
C1379 C1380 1.388 . S
C1380 H1367 0.930 . S
C1380 C1379 1.388 . S
C1380 C1381 1.390 . S
C1381 C1380 1.390 . S
C1381 C1382 1.394 . S
C1381 C1387 1.465 . S
C1382 C1377 1.399 . S
C1382 C1381 1.394 . S
C1382 C1383 1.516 . S
C1383 C1382 1.516 . S
C1383 C1384 1.502 . S
C1383 C1385 1.561 . S
C1383 C1386 1.526 . S
C1384 H1368 0.959 . S
C1384 H1369 0.959 . S
C1384 H1370 0.961 . S
C1384 C1383 1.502 . S
C1385 H1371 0.960 . S
C1385 H1372 0.961 . S
C1385 H1373 0.959 . S
C1385 C1383 1.561 . S
C1386 C1383 1.526 . S
C1386 C1387 1.396 . S
C1386 C1391 1.390 . S
C1387 C1381 1.465 . S
C1387 C1386 1.396 . S
C1387 C1388 1.399 . S
C1388 H1374 0.929 . S
C1388 C1387 1.399 . S
C1388 C1389 1.385 . S
C1389 H1375 0.931 . S
C1389 C1388 1.385 . S
C1389 C1390 1.389 . S
C1390 C1389 1.389 . S
C1390 C1391 1.387 . S
C1391 H1376 0.930 . S
C1391 C1386 1.390 . S
C1391 C1390 1.387 . S
H1392 C1404 0.930 . S
H1393 C1406 0.930 . S
H1394 C1407 0.930 . S
H1395 C1411 0.959 1_565 S
H1396 C1411 0.959 . S
H1397 C1411 0.961 . S
H1398 C1412 0.960 . S
H1399 C1412 0.961 1_545 S
H1400 C1412 0.959 . S
H1401 C1415 0.929 . S
H1402 C1416 0.931 . S
H1403 C1418 0.930 . S
C1404 H1392 0.930 . S
C1404 C1405 1.399 . S
C1404 C1409 1.399 . S
C1405 C1404 1.399 . S
C1405 C1406 1.376 . S
C1406 H1393 0.930 . S
C1406 C1405 1.376 . S
C1406 C1407 1.388 . S
C1407 H1394 0.930 . S
C1407 C1406 1.388 . S
C1407 C1408 1.390 . S
C1408 C1407 1.390 . S
C1408 C1409 1.394 . S
C1408 C1414 1.465 . S
C1409 C1404 1.399 . S
C1409 C1408 1.394 . S
C1409 C1410 1.516 . S
C1410 C1409 1.516 . S
C1410 C1411 1.502 1_565 S
C1410 C1412 1.561 . S
C1410 C1413 1.526 . S
C1411 H1395 0.959 1_545 S
C1411 H1396 0.959 . S
C1411 H1397 0.961 . S
C1411 C1410 1.502 1_545 S
C1412 H1398 0.960 . S
C1412 H1399 0.961 1_565 S
C1412 H1400 0.959 . S
C1412 C1410 1.561 . S
C1413 C1410 1.526 . S
C1413 C1414 1.396 . S
C1413 C1418 1.390 . S
C1414 C1408 1.465 . S
C1414 C1413 1.396 . S
C1414 C1415 1.399 . S
C1415 H1401 0.929 . S
C1415 C1414 1.399 . S
C1415 C1416 1.385 . S
C1416 H1402 0.931 . S
C1416 C1415 1.385 . S
C1416 C1417 1.389 . S
C1417 C1416 1.389 . S
C1417 C1418 1.387 . S
C1418 H1403 0.930 . S
C1418 C1413 1.390 . S
C1418 C1417 1.387 . S
H1419 C1431 0.930 . S
H1420 C1433 0.930 . S
H1421 C1434 0.930 . S
H1422 C1438 0.959 . S
H1423 C1438 0.959 . S
H1424 C1438 0.961 . S
H1425 C1439 0.960 . S
H1426 C1439 0.961 . S
H1427 C1439 0.959 . S
H1428 C1442 0.929 . S
H1429 C1443 0.931 . S
H1430 C1445 0.930 . S
C1431 H1419 0.930 . S
C1431 C1432 1.399 . S
C1431 C1436 1.399 . S
C1432 C1431 1.399 . S
C1432 C1433 1.376 . S
C1433 H1420 0.930 . S
C1433 C1432 1.376 . S
C1433 C1434 1.388 . S
C1434 H1421 0.930 . S
C1434 C1433 1.388 . S
C1434 C1435 1.390 . S
C1435 C1434 1.390 . S
C1435 C1436 1.394 . S
C1435 C1441 1.465 . S
C1436 C1431 1.399 . S
C1436 C1435 1.394 . S
C1436 C1437 1.516 . S
C1437 C1436 1.516 . S
C1437 C1438 1.502 . S
C1437 C1439 1.561 . S
C1437 C1440 1.526 . S
C1438 H1422 0.959 . S
C1438 H1423 0.959 . S
C1438 H1424 0.961 . S
C1438 C1437 1.502 . S
C1439 H1425 0.960 . S
C1439 H1426 0.961 . S
C1439 H1427 0.959 . S
C1439 C1437 1.561 . S
C1440 C1437 1.526 . S
C1440 C1441 1.396 . S
C1440 C1445 1.390 . S
C1441 C1435 1.465 . S
C1441 C1440 1.396 . S
C1441 C1442 1.399 . S
C1442 H1428 0.929 . S
C1442 C1441 1.399 . S
C1442 C1443 1.385 . S
C1443 H1429 0.931 . S
C1443 C1442 1.385 . S
C1443 C1444 1.389 . S
C1444 C1443 1.389 . S
C1444 C1445 1.387 . S
C1445 H1430 0.930 . S
C1445 C1440 1.390 . S
C1445 C1444 1.387 . S
H1446 C1458 0.930 . S
H1447 C1460 0.930 . S
H1448 C1461 0.930 . S
H1449 C1465 0.959 . S
H1450 C1465 0.959 . S
H1451 C1465 0.961 . S
H1452 C1466 0.960 . S
H1453 C1466 0.961 . S
H1454 C1466 0.959 . S
H1455 C1469 0.929 . S
H1456 C1470 0.931 . S
H1457 C1472 0.930 . S
C1458 H1446 0.930 . S
C1458 C1459 1.399 . S
C1458 C1463 1.399 . S
C1459 C1458 1.399 . S
C1459 C1460 1.376 . S
C1460 H1447 0.930 . S
C1460 C1459 1.376 . S
C1460 C1461 1.388 . S
C1461 H1448 0.930 . S
C1461 C1460 1.388 . S
C1461 C1462 1.390 . S
C1462 C1461 1.390 . S
C1462 C1463 1.394 . S
C1462 C1468 1.465 . S
C1463 C1458 1.399 . S
C1463 C1462 1.394 . S
C1463 C1464 1.516 . S
C1464 C1463 1.516 . S
C1464 C1465 1.502 . S
C1464 C1466 1.561 . S
C1464 C1467 1.526 . S
C1465 H1449 0.959 . S
C1465 H1450 0.959 . S
C1465 H1451 0.961 . S
C1465 C1464 1.502 . S
C1466 H1452 0.960 . S
C1466 H1453 0.961 . S
C1466 H1454 0.959 . S
C1466 C1464 1.561 . S
C1467 C1464 1.526 . S
C1467 C1468 1.396 . S
C1467 C1472 1.390 . S
C1468 C1462 1.465 . S
C1468 C1467 1.396 . S
C1468 C1469 1.399 . S
C1469 H1455 0.929 . S
C1469 C1468 1.399 . S
C1469 C1470 1.385 . S
C1470 H1456 0.931 . S
C1470 C1469 1.385 . S
C1470 C1471 1.389 . S
C1471 C1470 1.389 . S
C1471 C1472 1.387 . S
C1472 H1457 0.930 . S
C1472 C1467 1.390 . S
C1472 C1471 1.387 . S
H1473 C1485 0.930 . S
H1474 C1487 0.930 . S
H1475 C1488 0.930 . S
H1476 C1492 0.959 . S
H1477 C1492 0.959 . S
H1478 C1492 0.961 . S
H1479 C1493 0.960 . S
H1480 C1493 0.961 . S
H1481 C1493 0.959 . S
H1482 C1496 0.929 . S
H1483 C1497 0.931 . S
H1484 C1499 0.930 . S
C1485 H1473 0.930 . S
C1485 C1486 1.399 . S
C1485 C1490 1.399 . S
C1486 C1485 1.399 . S
C1486 C1487 1.376 . S
C1487 H1474 0.930 . S
C1487 C1486 1.376 . S
C1487 C1488 1.388 . S
C1488 H1475 0.930 . S
C1488 C1487 1.388 . S
C1488 C1489 1.390 . S
C1489 C1488 1.390 . S
C1489 C1490 1.394 . S
C1489 C1495 1.465 . S
C1490 C1485 1.399 . S
C1490 C1489 1.394 . S
C1490 C1491 1.516 . S
C1491 C1490 1.516 . S
C1491 C1492 1.502 1_655 S
C1491 C1493 1.561 . S
C1491 C1494 1.526 . S
C1492 H1476 0.959 . S
C1492 H1477 0.959 . S
C1492 H1478 0.961 . S
C1492 C1491 1.502 1_455 S
C1493 H1479 0.960 . S
C1493 H1480 0.961 . S
C1493 H1481 0.959 . S
C1493 C1491 1.561 . S
C1494 C1491 1.526 . S
C1494 C1495 1.396 . S
C1494 C1499 1.390 . S
C1495 C1489 1.465 . S
C1495 C1494 1.396 . S
C1495 C1496 1.399 . S
C1496 H1482 0.929 . S
C1496 C1495 1.399 . S
C1496 C1497 1.385 . S
C1497 H1483 0.931 . S
C1497 C1496 1.385 . S
C1497 C1498 1.389 . S
C1498 C1497 1.389 . S
C1498 C1499 1.387 . S
C1499 H1484 0.930 . S
C1499 C1494 1.390 . S
C1499 C1498 1.387 . S
H1500 C1512 0.930 . S
H1501 C1514 0.930 . S
H1502 C1515 0.930 . S
H1503 C1519 0.959 . S
H1504 C1519 0.959 . S
H1505 C1519 0.961 . S
H1506 C1520 0.960 . S
H1507 C1520 0.961 . S
H1508 C1520 0.959 . S
H1509 C1523 0.929 . S
H1510 C1524 0.931 . S
H1511 C1526 0.930 . S
C1512 H1500 0.930 . S
C1512 C1513 1.399 . S
C1512 C1517 1.399 . S
C1513 C1512 1.399 . S
C1513 C1514 1.376 . S
C1514 H1501 0.930 . S
C1514 C1513 1.376 . S
C1514 C1515 1.388 . S
C1515 H1502 0.930 . S
C1515 C1514 1.388 . S
C1515 C1516 1.390 . S
C1516 C1515 1.390 . S
C1516 C1517 1.394 . S
C1516 C1522 1.465 . S
C1517 C1512 1.399 . S
C1517 C1516 1.394 . S
C1517 C1518 1.516 . S
C1518 C1517 1.516 . S
C1518 C1519 1.502 . S
C1518 C1520 1.561 . S
C1518 C1521 1.526 . S
C1519 H1503 0.959 . S
C1519 H1504 0.959 . S
C1519 H1505 0.961 . S
C1519 C1518 1.502 . S
C1520 H1506 0.960 . S
C1520 H1507 0.961 . S
C1520 H1508 0.959 . S
C1520 C1518 1.561 . S
C1521 C1518 1.526 . S
C1521 C1522 1.396 . S
C1521 C1526 1.390 . S
C1522 C1516 1.465 . S
C1522 C1521 1.396 . S
C1522 C1523 1.399 . S
C1523 H1509 0.929 . S
C1523 C1522 1.399 . S
C1523 C1524 1.385 . S
C1524 H1510 0.931 . S
C1524 C1523 1.385 . S
C1524 C1525 1.389 . S
C1525 C1524 1.389 . S
C1525 C1526 1.387 . S
C1526 H1511 0.930 . S
C1526 C1521 1.390 . S
C1526 C1525 1.387 . S
H1527 C1539 0.930 . S
H1528 C1541 0.930 . S
H1529 C1542 0.930 . S
H1530 C1546 0.954 1_455 S
H1531 C1546 0.959 . S
H1532 C1546 0.961 1_455 S
H1533 C1547 0.960 . S
H1534 C1547 0.961 . S
H1535 C1547 0.959 . S
H1536 C1550 0.929 . S
H1537 C1551 0.931 . S
H1538 C1553 0.930 . S
C1539 H1527 0.930 . S
C1539 C1540 1.399 . S
C1539 C1544 1.399 . S
C1540 C1539 1.399 . S
C1540 C1541 1.376 . S
C1541 H1528 0.930 . S
C1541 C1540 1.376 . S
C1541 C1542 1.388 . S
C1542 H1529 0.930 . S
C1542 C1541 1.388 . S
C1542 C1543 1.390 . S
C1543 C1542 1.390 . S
C1543 C1544 1.394 . S
C1543 C1549 1.465 . S
C1544 C1539 1.399 . S
C1544 C1543 1.394 . S
C1544 C1545 1.516 . S
C1545 C1544 1.516 . S
C1545 C1546 1.502 . S
C1545 C1547 1.561 . S
C1545 C1548 1.526 . S
C1546 H1530 0.954 1_655 S
C1546 H1531 0.959 . S
C1546 H1532 0.961 1_655 S
C1546 C1545 1.502 . S
C1547 H1533 0.960 . S
C1547 H1534 0.961 . S
C1547 H1535 0.959 . S
C1547 C1545 1.561 . S
C1548 C1545 1.526 . S
C1548 C1549 1.396 . S
C1548 C1553 1.390 . S
C1549 C1543 1.465 . S
C1549 C1548 1.396 . S
C1549 C1550 1.399 . S
C1550 H1536 0.929 . S
C1550 C1549 1.399 . S
C1550 C1551 1.385 . S
C1551 H1537 0.931 . S
C1551 C1550 1.385 . S
C1551 C1552 1.389 . S
C1552 C1551 1.389 . S
C1552 C1553 1.387 . S
C1553 H1538 0.930 . S
C1553 C1548 1.390 . S
C1553 C1552 1.387 . S
H1554 C1566 0.930 . S
H1555 C1568 0.930 . S
H1556 C1569 0.930 . S
H1557 C1573 0.959 1_545 S
H1558 C1573 0.959 1_545 S
H1559 C1573 0.961 1_545 S
H1560 C1574 0.960 . S
H1561 C1574 0.961 . S
H1562 C1574 0.959 . S
H1563 C1577 0.929 . S
H1564 C1578 0.931 . S
H1565 C1580 0.930 . S
C1566 H1554 0.930 . S
C1566 C1567 1.399 . S
C1566 C1571 1.399 . S
C1567 C1566 1.399 . S
C1567 C1568 1.376 . S
C1568 H1555 0.930 . S
C1568 C1567 1.376 . S
C1568 C1569 1.388 . S
C1569 H1556 0.930 . S
C1569 C1568 1.388 . S
C1569 C1570 1.390 . S
C1570 C1569 1.390 . S
C1570 C1571 1.394 . S
C1570 C1576 1.465 . S
C1571 C1566 1.399 . S
C1571 C1570 1.394 . S
C1571 C1572 1.516 . S
C1572 C1571 1.516 . S
C1572 C1573 1.502 . S
C1572 C1574 1.561 . S
C1572 C1575 1.526 . S
C1573 H1557 0.959 1_565 S
C1573 H1558 0.959 1_565 S
C1573 H1559 0.961 1_565 S
C1573 C1572 1.502 . S
C1574 H1560 0.960 . S
C1574 H1561 0.961 . S
C1574 H1562 0.959 . S
C1574 C1572 1.561 . S
C1575 C1572 1.526 . S
C1575 C1576 1.396 . S
C1575 C1580 1.390 . S
C1576 C1570 1.465 . S
C1576 C1575 1.396 . S
C1576 C1577 1.399 . S
C1577 H1563 0.929 . S
C1577 C1576 1.399 . S
C1577 C1578 1.385 . S
C1578 H1564 0.931 . S
C1578 C1577 1.385 . S
C1578 C1579 1.389 . S
C1579 C1578 1.389 . S
C1579 C1580 1.387 . S
C1580 H1565 0.930 . S
C1580 C1575 1.390 . S
C1580 C1579 1.387 . S
H1581 C1593 0.930 . S
H1582 C1595 0.930 . S
H1583 C1596 0.930 . S
H1584 C1600 0.959 . S
H1585 C1600 0.959 . S
H1586 C1600 0.961 . S
H1587 C1601 0.960 . S
H1588 C1601 0.961 . S
H1589 C1601 0.959 . S
H1590 C1604 0.929 . S
H1591 C1605 0.931 . S
H1592 C1607 0.930 . S
C1593 H1581 0.930 . S
C1593 C1594 1.399 . S
C1593 C1598 1.399 . S
C1594 C1593 1.399 . S
C1594 C1595 1.376 . S
C1595 H1582 0.930 . S
C1595 C1594 1.376 . S
C1595 C1596 1.388 . S
C1596 H1583 0.930 . S
C1596 C1595 1.388 . S
C1596 C1597 1.390 . S
C1597 C1596 1.390 . S
C1597 C1598 1.394 . S
C1597 C1603 1.465 . S
C1598 C1593 1.399 . S
C1598 C1597 1.394 . S
C1598 C1599 1.516 . S
C1599 C1598 1.516 . S
C1599 C1600 1.502 . S
C1599 C1601 1.561 . S
C1599 C1602 1.526 . S
C1600 H1584 0.959 . S
C1600 H1585 0.959 . S
C1600 H1586 0.961 . S
C1600 C1599 1.502 . S
C1601 H1587 0.960 . S
C1601 H1588 0.961 . S
C1601 H1589 0.959 . S
C1601 C1599 1.561 . S
C1602 C1599 1.526 . S
C1602 C1603 1.396 . S
C1602 C1607 1.390 . S
C1603 C1597 1.465 . S
C1603 C1602 1.396 . S
C1603 C1604 1.399 . S
C1604 H1590 0.929 . S
C1604 C1603 1.399 . S
C1604 C1605 1.385 . S
C1605 H1591 0.931 . S
C1605 C1604 1.385 . S
C1605 C1606 1.389 . S
C1606 C1605 1.389 . S
C1606 C1607 1.387 . S
C1607 H1592 0.930 . S
C1607 C1602 1.390 . S
C1607 C1606 1.387 . S
C541 C7 0.474 . S
C553 C172 0.469 . S
C568 C40 0.491 . S
C580 C205 0.386 . S
C595 C238 0.343 . S
C607 C73 0.470 . S
C622 C139 0.470 . S
C634 C106 0.473 . S
C649 C271 0.485 . S
C661 C436 0.323 . S
C676 C304 0.448 . S
C688 C469 0.455 . S
C703 C337 0.323 . S
C715 C502 0.484 . S
C730 C370 0.483 . S
C742 C403 0.408 . S
C757 C285 1.619 . S
C769 C21 1.561 . S
C784 C318 1.594 . S
C796 C54 1.553 . S
C811 C87 1.521 . S
C823 C351 1.634 . S
C838 C384 1.613 . S
C850 C120 1.569 . S
C865 C153 1.526 . S
C877 C417 1.625 . S
C892 C186 1.639 . S
C904 C450 1.534 . S
C919 C219 1.636 . S
C931 C483 1.540 . S
C946 C252 1.630 . S
C958 C516 1.548 . S
C973 N13 1.517 . S
C985 N145 1.571 . S
C1000 N46 1.565 . S
C1012 N178 1.565 . S
C1027 N211 1.526 . S
C1039 N79 1.574 . S
C1054 N112 1.576 . S
C1066 N244 1.531 . S
C1081 N409 1.569 . S
C1093 N277 1.476 . S
C1108 N442 1.533 . S
C1120 N310 1.567 . S
C1135 N343 1.453 . S
C1147 N475 1.520 . S
C1162 N508 1.521 . S
C1174 N376 1.572 . S
C1189 C51 1.424 . S
C1201 N2 1.334 . S
C1216 N35 1.302 . S
C1228 C84 1.434 . S
C1243 N68 1.316 . S
C1255 C117 1.429 . S
C1270 N101 1.311 . S
C1282 C18 1.430 . S
C1297 C249 1.420 . S
C1309 N134 1.374 . S
C1324 N167 1.300 . S
C1336 C150 1.438 . S
C1351 N200 1.305 . S
C1363 C183 1.432 . S
C1378 N233 1.313 . S
C1390 C216 1.429 . S
C1405 N266 1.301 . S
C1417 C315 1.440 . S
C1432 N299 1.368 . S
C1444 C348 1.424 . S
C1459 C381 1.439 . S
C1471 N332 1.305 . S
C1486 N365 1.303 . S
C1498 C282 1.442 . S
C1513 N398 1.361 . S
C1525 C513 1.425 . S
C1540 C414 1.436 . S
C1552 N431 1.311 . S
C1567 C447 1.439 . S
C1579 N464 1.305 . S
C1594 N497 1.396 . S
C1606 C480 1.421 . S
