# Generated by pormake.
# Topology wla, (5)-cn, num edge types: 1
# Building blocks:
#     Node 0, Type 0, BuildingBlock: XOMCOT_clean_sbu_0, # of connection points: 5
#     Node 1, Type 0, BuildingBlock: XOMCOT_clean_sbu_0, # of connection points: 5
#     Node 2, Type 0, BuildingBlock: XOMCOT_clean_sbu_0, # of connection points: 5
#     Node 3, Type 0, BuildingBlock: XOMCOT_clean_sbu_0, # of connection points: 5
#     Node 4, Type 0, BuildingBlock: XOMCOT_clean_sbu_0, # of connection points: 5
#     Node 5, Type 0, BuildingBlock: XOMCOT_clean_sbu_0, # of connection points: 5
#     Node 6, Type 0, BuildingBlock: XOMCOT_clean_sbu_0, # of connection points: 5
#     Node 7, Type 0, BuildingBlock: XOMCOT_clean_sbu_0, # of connection points: 5
#     Node 8, Type 0, BuildingBlock: XOMCOT_clean_sbu_0, # of connection points: 5
#     Node 9, Type 0, BuildingBlock: XOMCOT_clean_sbu_0, # of connection points: 5
#     Node 10, Type 0, BuildingBlock: XOMCOT_clean_sbu_0, # of connection points: 5
#     Node 11, Type 0, BuildingBlock: XOMCOT_clean_sbu_0, # of connection points: 5
#     Node 12, Type 0, BuildingBlock: XOMCOT_clean_sbu_0, # of connection points: 5
#     Node 13, Type 0, BuildingBlock: XOMCOT_clean_sbu_0, # of connection points: 5
#     Node 14, Type 0, BuildingBlock: XOMCOT_clean_sbu_0, # of connection points: 5
#     Node 15, Type 0, BuildingBlock: XOMCOT_clean_sbu_0, # of connection points: 5
#     Node 16, Type 0, BuildingBlock: XOMCOT_clean_sbu_0, # of connection points: 5
#     Node 17, Type 0, BuildingBlock: XOMCOT_clean_sbu_0, # of connection points: 5
#     Edge 18, Type (0, 0), BuildingBlock: XUDNAN_clean_linker_2, # of connection points: 2
#     Edge 19, Type (0, 0), BuildingBlock: XUDNAN_clean_linker_2, # of connection points: 2
#     Edge 20, Type (0, 0), BuildingBlock: XUDNAN_clean_linker_2, # of connection points: 2
#     Edge 21, Type (0, 0), BuildingBlock: XUDNAN_clean_linker_2, # of connection points: 2
#     Edge 22, Type (0, 0), BuildingBlock: XUDNAN_clean_linker_2, # of connection points: 2
#     Edge 23, Type (0, 0), BuildingBlock: XUDNAN_clean_linker_2, # of connection points: 2
#     Edge 24, Type (0, 0), BuildingBlock: XUDNAN_clean_linker_2, # of connection points: 2
#     Edge 25, Type (0, 0), BuildingBlock: XUDNAN_clean_linker_2, # of connection points: 2
#     Edge 26, Type (0, 0), BuildingBlock: XUDNAN_clean_linker_2, # of connection points: 2
#     Edge 27, Type (0, 0), BuildingBlock: XUDNAN_clean_linker_2, # of connection points: 2
#     Edge 28, Type (0, 0), BuildingBlock: XUDNAN_clean_linker_2, # of connection points: 2
#     Edge 29, Type (0, 0), BuildingBlock: XUDNAN_clean_linker_2, # of connection points: 2
#     Edge 30, Type (0, 0), BuildingBlock: XUDNAN_clean_linker_2, # of connection points: 2
#     Edge 31, Type (0, 0), BuildingBlock: XUDNAN_clean_linker_2, # of connection points: 2
#     Edge 32, Type (0, 0), BuildingBlock: XUDNAN_clean_linker_2, # of connection points: 2
#     Edge 33, Type (0, 0), BuildingBlock: XUDNAN_clean_linker_2, # of connection points: 2
#     Edge 34, Type (0, 0), BuildingBlock: XUDNAN_clean_linker_2, # of connection points: 2
#     Edge 35, Type (0, 0), BuildingBlock: XUDNAN_clean_linker_2, # of connection points: 2
#     Edge 36, Type (0, 0), BuildingBlock: XUDNAN_clean_linker_2, # of connection points: 2
#     Edge 37, Type (0, 0), BuildingBlock: XUDNAN_clean_linker_2, # of connection points: 2
#     Edge 38, Type (0, 0), BuildingBlock: XUDNAN_clean_linker_2, # of connection points: 2
#     Edge 39, Type (0, 0), BuildingBlock: XUDNAN_clean_linker_2, # of connection points: 2
#     Edge 40, Type (0, 0), BuildingBlock: XUDNAN_clean_linker_2, # of connection points: 2
#     Edge 41, Type (0, 0), BuildingBlock: XUDNAN_clean_linker_2, # of connection points: 2
#     Edge 42, Type (0, 0), BuildingBlock: XUDNAN_clean_linker_2, # of connection points: 2
#     Edge 43, Type (0, 0), BuildingBlock: XUDNAN_clean_linker_2, # of connection points: 2
#     Edge 44, Type (0, 0), BuildingBlock: XUDNAN_clean_linker_2, # of connection points: 2
#     Edge 45, Type (0, 0), BuildingBlock: XUDNAN_clean_linker_2, # of connection points: 2
#     Edge 46, Type (0, 0), BuildingBlock: XUDNAN_clean_linker_2, # of connection points: 2
#     Edge 47, Type (0, 0), BuildingBlock: XUDNAN_clean_linker_2, # of connection points: 2
#     Edge 48, Type (0, 0), BuildingBlock: XUDNAN_clean_linker_2, # of connection points: 2
#     Edge 49, Type (0, 0), BuildingBlock: XUDNAN_clean_linker_2, # of connection points: 2
#     Edge 50, Type (0, 0), BuildingBlock: XUDNAN_clean_linker_2, # of connection points: 2
#     Edge 51, Type (0, 0), BuildingBlock: XUDNAN_clean_linker_2, # of connection points: 2
#     Edge 52, Type (0, 0), BuildingBlock: XUDNAN_clean_linker_2, # of connection points: 2
#     Edge 53, Type (0, 0), BuildingBlock: XUDNAN_clean_linker_2, # of connection points: 2
#     Edge 54, Type (0, 0), BuildingBlock: XUDNAN_clean_linker_2, # of connection points: 2
#     Edge 55, Type (0, 0), BuildingBlock: XUDNAN_clean_linker_2, # of connection points: 2
#     Edge 56, Type (0, 0), BuildingBlock: XUDNAN_clean_linker_2, # of connection points: 2
#     Edge 57, Type (0, 0), BuildingBlock: XUDNAN_clean_linker_2, # of connection points: 2
#     Edge 58, Type (0, 0), BuildingBlock: XUDNAN_clean_linker_2, # of connection points: 2
#     Edge 59, Type (0, 0), BuildingBlock: XUDNAN_clean_linker_2, # of connection points: 2
#     Edge 60, Type (0, 0), BuildingBlock: XUDNAN_clean_linker_2, # of connection points: 2
#     Edge 61, Type (0, 0), BuildingBlock: XUDNAN_clean_linker_2, # of connection points: 2
#     Edge 62, Type (0, 0), BuildingBlock: XUDNAN_clean_linker_2, # of connection points: 2
# Relax obj value: 0.271
# Max RMSD: 0.259
# Mean RMSD: 0.259
data_MOF--net-wla--node1-XOMCOT_clean_sbu_0--edge1-XUDNAN_clean_linker_2
_symmetry_space_group_name_H-M    P1
_symmetry_Int_Tables_number       1
_symmetry_cell_setting            triclinic
loop_
_symmetry_equiv_pos_as_xyz
'x, y, z'
_cell_length_a     58.963618
_cell_length_b     59.018964
_cell_length_c     31.548061
_cell_angle_alpha  90.003526
_cell_angle_beta   89.975131
_cell_angle_gamma 120.05629
loop_
_atom_site_label
_atom_site_type_symbol
_atom_site_fract_x
_atom_site_fract_y
_atom_site_fract_z
_atom_type_partial_charge
Co0 Co 0.17318 0.04501 0.24036 0.0
C1 C 0.22648 0.08958 0.2209 0.0
C2 C 0.19581 0.09476 0.19494 0.0
C3 C 0.21938 0.11438 0.17969 0.0
N4 N 0.2002 0.07929 0.22118 0.0
N5 N 0.23859 0.11103 0.19605 0.0
H6 H 0.23655 0.08052 0.2352 0.0
H7 H 0.17662 0.09107 0.18551 0.0
C8 C 0.15549 0.08181 0.27221 0.0
O9 O 0.17977 0.09974 0.28082 0.0
N10 N 0.14577 0.01082 0.25799 0.0
C11 C 0.14732 0.99365 0.28436 0.0
C12 C 0.12244 0.97258 0.2903 0.0
C13 C 0.12027 0.99987 0.2476 0.0
N14 N 0.10566 0.97662 0.26699 0.0
C15 C 0.21059 0.04813 0.30243 0.0
C16 C 0.18229 0.04824 0.37215 0.0
C17 C 0.2044 0.04578 0.3784 0.0
C18 C 0.2191 0.04641 0.34315 0.0
C19 C 0.17459 0.05007 0.33125 0.0
N20 N 0.18866 0.05014 0.29673 0.0
H21 H 0.2205 0.04573 0.27559 0.0
H22 H 0.15592 0.04899 0.32783 0.0
H23 H 0.16514 0.99628 0.29864 0.0
H24 H 0.1125 0.00891 0.22676 0.0
O25 O 0.19098 0.02929 0.21096 0.0
O26 O 0.16073 0.03676 0.18328 0.0
O27 O 0.15011 0.0595 0.2576 0.0
C28 C 0.17679 0.02796 0.17832 0.0
H29 H 0.2221 0.12923 0.15686 0.0
H30 H 0.11712 0.95546 0.30958 0.0
H31 H 0.17014 0.04726 0.39867 0.0
H32 H 0.23588 0.04374 0.34684 0.0
Co33 Co 0.96364 0.13791 0.18169 0.0
C34 C 0.9165 0.14359 0.18441 0.0
C35 C 0.91344 0.11654 0.13624 0.0
C36 C 0.89218 0.12011 0.13287 0.0
N37 N 0.92856 0.13102 0.16895 0.0
N38 N 0.89417 0.13699 0.16329 0.0
H39 H 0.92456 0.15845 0.2088 0.0
H40 H 0.91784 0.10461 0.1156 0.0
C41 C 0.92755 0.08144 0.20979 0.0
O42 O 0.90644 0.08322 0.20436 0.0
N43 N 0.9991 0.14525 0.19357 0.0
C44 C 0.02175 0.16363 0.17581 0.0
C45 C 0.04201 0.16086 0.19138 0.0
C46 C 0.00611 0.13198 0.22036 0.0
N47 N 0.03215 0.14082 0.21924 0.0
C48 C 0.98248 0.1764 0.24653 0.0
C49 C 0.94635 0.14666 0.308 0.0
C50 C 0.96746 0.17126 0.31917 0.0
C51 C 0.9853 0.18646 0.28741 0.0
C52 C 0.94456 0.13715 0.26692 0.0
N53 N 0.96289 0.15172 0.23711 0.0
H54 H 0.9968 0.188 0.2227 0.0
H55 H 0.92845 0.1181 0.25939 0.0
H56 H 0.02367 0.17787 0.15246 0.0
H57 H 0.99243 0.11608 0.24023 0.0
O58 O 0.97677 0.16958 0.14811 0.0
O59 O 0.96772 0.13053 0.12403 0.0
O60 O 0.95038 0.10134 0.20456 0.0
C61 C 0.97574 0.15503 0.11623 0.0
H62 H 0.87671 0.11138 0.10948 0.0
H63 H 0.06225 0.17207 0.1814 0.0
H64 H 0.9316 0.13452 0.33101 0.0
H65 H 0.00207 0.20544 0.29435 0.0
Co66 Co 0.86324 0.82442 0.24466 0.0
C67 C 0.84611 0.76884 0.23204 0.0
C68 C 0.88495 0.7937 0.20782 0.0
C69 C 0.87761 0.76807 0.19895 0.0
N70 N 0.86517 0.79404 0.22853 0.0
N71 N 0.85319 0.75252 0.21421 0.0
H72 H 0.82708 0.76272 0.24579 0.0
H73 H 0.90313 0.8109 0.19882 0.0
C74 C 0.91585 0.86027 0.2856 0.0
O75 O 0.90524 0.86629 0.31709 0.0
N76 N 0.86151 0.8554 0.25998 0.0
C77 C 0.8419 0.85701 0.27915 0.0
C78 C 0.84813 0.88277 0.28025 0.0
C79 C 0.879 0.88021 0.24858 0.0
N80 N 0.87147 0.89735 0.26106 0.0
C81 C 0.82665 0.79997 0.31261 0.0
C82 C 0.86152 0.79994 0.37099 0.0
C83 C 0.83633 0.79349 0.38443 0.0
C84 C 0.81849 0.79259 0.35435 0.0
C85 C 0.86898 0.80766 0.32893 0.0
N86 N 0.8522 0.80962 0.30127 0.0
H87 H 0.81253 0.79882 0.28971 0.0
H88 H 0.88837 0.81239 0.31905 0.0
H89 H 0.82374 0.84088 0.29031 0.0
H90 H 0.8965 0.88547 0.23034 0.0
O91 O 0.82936 0.80984 0.21635 0.0
O92 O 0.86812 0.83562 0.18682 0.0
O93 O 0.90162 0.84286 0.25853 0.0
C94 C 0.84285 0.82223 0.18287 0.0
H95 H 0.88923 0.76143 0.18218 0.0
H96 H 0.83619 0.8901 0.29385 0.0
H97 H 0.87563 0.80008 0.39312 0.0
H98 H 0.79854 0.78672 0.36324 0.0
Co99 Co 0.04032 0.17677 0.75406 0.0
C100 C 0.07904 0.23348 0.75359 0.0
C101 C 0.09636 0.21091 0.77352 0.0
C102 C 0.11483 0.23708 0.77713 0.0
N103 N 0.07405 0.20866 0.75782 0.0
N104 N 0.10384 0.25126 0.76461 0.0
H105 H 0.06437 0.23855 0.74588 0.0
H106 H 0.09875 0.19467 0.7833 0.0
C107 C 0.07722 0.16312 0.70972 0.0
O108 O 0.0883 0.18565 0.68962 0.0
N109 N 0.00671 0.14522 0.7512 0.0
C110 C 0.98348 0.14375 0.74463 0.0
C111 C 0.96425 0.11781 0.74435 0.0
C112 C 0.00144 0.12033 0.75488 0.0
N113 N 0.97554 0.10302 0.75067 0.0
C114 C 0.02732 0.20358 0.69074 0.0
C115 C 0.02507 0.1725 0.62363 0.0
C116 C 0.01858 0.19201 0.61652 0.0
C117 C 0.01987 0.20776 0.65072 0.0
C118 C 0.03207 0.16882 0.66404 0.0
N119 N 0.03422 0.1849 0.69682 0.0
H120 H 0.02606 0.21445 0.71719 0.0
H121 H 0.03438 0.15205 0.66899 0.0
H122 H 0.98073 0.1604 0.74037 0.0
H123 H 0.01635 0.11512 0.76018 0.0
O124 O 0.02467 0.19325 0.78718 0.0
O125 O 0.0425 0.17076 0.81294 0.0
O126 O 0.05761 0.15673 0.73396 0.0
C127 C 0.03049 0.18375 0.82005 0.0
H128 H 0.13453 0.24492 0.78919 0.0
H129 H 0.94353 0.11061 0.74034 0.0
H130 H 0.02417 0.15964 0.59839 0.0
H131 H 0.01406 0.22239 0.6471 0.0
Co132 Co 0.8336 0.86229 0.81602 0.0
C133 C 0.77882 0.85204 0.81489 0.0
C134 C 0.80639 0.8906 0.83695 0.0
C135 C 0.78156 0.88627 0.84406 0.0
N136 N 0.8048 0.86928 0.81829 0.0
N137 N 0.76429 0.86205 0.83032 0.0
H138 H 0.77071 0.83182 0.80557 0.0
H139 H 0.82437 0.90735 0.84783 0.0
C140 C 0.85457 0.91482 0.77202 0.0
O141 O 0.83168 0.90792 0.75498 0.0
N142 N 0.86277 0.85563 0.81467 0.0
C143 C 0.86657 0.83896 0.83902 0.0
C144 C 0.89127 0.84282 0.83128 0.0
C145 C 0.88507 0.86894 0.79187 0.0
N146 N 0.90262 0.8615 0.80151 0.0
C147 C 0.80437 0.8211 0.75594 0.0
C148 C 0.83244 0.84776 0.68487 0.0
C149 C 0.81322 0.82145 0.6809 0.0
C150 C 0.79902 0.80798 0.71696 0.0
C151 C 0.83764 0.85987 0.72435 0.0
N152 N 0.82349 0.84681 0.75947 0.0
H153 H 0.79373 0.81021 0.78359 0.0
H154 H 0.85414 0.8793 0.72619 0.0
H155 H 0.85285 0.82538 0.86186 0.0
H156 H 0.88905 0.88455 0.76992 0.0
O157 O 0.81319 0.83151 0.85151 0.0
O158 O 0.84028 0.87159 0.87476 0.0
O159 O 0.85788 0.89862 0.79418 0.0
C160 C 0.82375 0.8473 0.88362 0.0
H161 H 0.77654 0.8992 0.86076 0.0
H162 H 0.90038 0.83304 0.84677 0.0
H163 H 0.84444 0.85859 0.65798 0.0
H164 H 0.78425 0.78745 0.71516 0.0
Co165 Co 0.14085 0.97867 0.81058 0.0
C166 C 0.15444 0.93681 0.80601 0.0
C167 C 0.11511 0.92195 0.82775 0.0
C168 C 0.12096 0.90206 0.82972 0.0
N169 N 0.13605 0.94366 0.81222 0.0
N170 N 0.14574 0.91154 0.81593 0.0
H171 H 0.17445 0.95036 0.79762 0.0
H172 H 0.09719 0.92092 0.8385 0.0
C173 C 0.09169 0.94535 0.76123 0.0
O174 O 0.1038 0.93532 0.74012 0.0
N175 N 0.14625 0.01393 0.8094 0.0
C176 C 0.16949 0.03578 0.81664 0.0
C177 C 0.16814 0.05717 0.80318 0.0
C178 C 0.13098 0.02248 0.79172 0.0
N179 N 0.14406 0.04879 0.78728 0.0
C180 C 0.18216 0.99098 0.74976 0.0
C181 C 0.15593 0.99535 0.68064 0.0
C182 C 0.18103 0.99891 0.67466 0.0
C183 C 0.19448 0.99724 0.71004 0.0
C184 C 0.1445 0.98926 0.72065 0.0
N185 N 0.15686 0.98556 0.75432 0.0
H186 H 0.19332 0.99123 0.777 0.0
H187 H 0.12596 0.98843 0.72434 0.0
H188 H 0.187 0.03625 0.82798 0.0
H189 H 0.11157 0.00978 0.77912 0.0
O190 O 0.17168 0.99052 0.84649 0.0
O191 O 0.13102 0.97527 0.86912 0.0
O192 O 0.10412 0.96387 0.78783 0.0
C193 C 0.15558 0.98466 0.87832 0.0
H194 H 0.10823 0.88244 0.84147 0.0
H195 H 0.18408 0.07726 0.80306 0.0
H196 H 0.1454 0.99801 0.65478 0.0
H197 H 0.21431 0.00082 0.70715 0.0
Co198 Co 0.83896 0.35954 0.55118 0.0
C199 C 0.89429 0.40336 0.54486 0.0
C200 C 0.86726 0.41166 0.51274 0.0
C201 C 0.89225 0.43206 0.50567 0.0
N202 N 0.86847 0.39379 0.53781 0.0
N203 N 0.90925 0.42679 0.52582 0.0
H204 H 0.90225 0.39299 0.5615 0.0
H205 H 0.84939 0.40971 0.49975 0.0
C206 C 0.82405 0.39789 0.58753 0.0
O207 O 0.84849 0.41539 0.596 0.0
N208 N 0.8094 0.32551 0.56356 0.0
C209 C 0.80984 0.30439 0.57858 0.0
C210 C 0.78454 0.28539 0.58836 0.0
C211 C 0.78404 0.31908 0.56384 0.0
N212 N 0.76835 0.29475 0.57934 0.0
C213 C 0.87195 0.35351 0.61251 0.0
C214 C 0.8444 0.3544 0.68271 0.0
C215 C 0.86411 0.34812 0.68814 0.0
C216 C 0.87848 0.34828 0.65268 0.0
C217 C 0.83864 0.35962 0.64243 0.0
N218 N 0.85241 0.35941 0.60768 0.0
H219 H 0.88161 0.35131 0.58506 0.0
H220 H 0.82161 0.36169 0.63951 0.0
H221 H 0.82738 0.30326 0.58364 0.0
H222 H 0.77734 0.33219 0.55349 0.0
O223 O 0.85493 0.34334 0.51781 0.0
O224 O 0.82763 0.35594 0.49367 0.0
O225 O 0.81802 0.37569 0.57177 0.0
C226 C 0.84184 0.3453 0.48603 0.0
H227 H 0.89745 0.44925 0.48666 0.0
H228 H 0.77877 0.26661 0.60267 0.0
H229 H 0.8326 0.35409 0.70932 0.0
H230 H 0.89347 0.3429 0.65561 0.0
Co231 Co 0.63175 0.46103 0.52885 0.0
C232 C 0.59175 0.4752 0.50713 0.0
C233 C 0.57414 0.43374 0.51387 0.0
C234 C 0.55524 0.43928 0.50008 0.0
N235 N 0.59696 0.4564 0.51976 0.0
N236 N 0.56659 0.46537 0.49559 0.0
H237 H 0.60635 0.49559 0.50341 0.0
H238 H 0.57163 0.41436 0.51628 0.0
C239 C 0.59855 0.41503 0.58431 0.0
O240 O 0.58945 0.42909 0.60184 0.0
N241 N 0.66643 0.46597 0.53629 0.0
C242 C 0.68842 0.48919 0.54207 0.0
C243 C 0.7087 0.48478 0.55084 0.0
C244 C 0.67357 0.44772 0.5413 0.0
N245 N 0.69937 0.4587 0.55056 0.0
C246 C 0.63325 0.49938 0.58833 0.0
C247 C 0.6485 0.48111 0.657 0.0
C248 C 0.64555 0.50303 0.66224 0.0
C249 C 0.63767 0.51213 0.62746 0.0
C250 C 0.64354 0.4688 0.61774 0.0
N251 N 0.63541 0.4775 0.58405 0.0
H252 H 0.62909 0.50781 0.56142 0.0
H253 H 0.64671 0.45239 0.6143 0.0
H254 H 0.68936 0.50797 0.54174 0.0
H255 H 0.66005 0.4269 0.53907 0.0
O256 O 0.64643 0.49172 0.49273 0.0
O257 O 0.63168 0.4509 0.47097 0.0
O258 O 0.61584 0.42494 0.55506 0.0
C259 C 0.64188 0.47556 0.46147 0.0
H260 H 0.53532 0.42524 0.49111 0.0
H261 H 0.72852 0.49965 0.5587 0.0
H262 H 0.65467 0.47352 0.68309 0.0
H263 H 0.63582 0.52943 0.63011 0.0
Co264 Co 0.52699 0.15946 0.56648 0.0
C265 C 0.52317 0.10699 0.5711 0.0
C266 C 0.55451 0.13395 0.5311 0.0
C267 C 0.55236 0.10971 0.5272 0.0
N268 N 0.53608 0.13227 0.55845 0.0
N269 N 0.53277 0.09298 0.55258 0.0
H270 H 0.5062 0.0983 0.59133 0.0
H271 H 0.56786 0.15138 0.51365 0.0
C272 C 0.57964 0.17953 0.60696 0.0
O273 O 0.57269 0.15576 0.61981 0.0
N274 N 0.51783 0.18641 0.5734 0.0
C275 C 0.49356 0.18218 0.58122 0.0
C276 C 0.49511 0.2058 0.5893 0.0
C277 C 0.53385 0.21258 0.57638 0.0
N278 N 0.52043 0.22486 0.58643 0.0
C279 C 0.48885 0.12562 0.62769 0.0
C280 C 0.51338 0.15672 0.69728 0.0
C281 C 0.48881 0.13431 0.70254 0.0
C282 C 0.4766 0.11842 0.66733 0.0
C283 C 0.52505 0.16298 0.65741 0.0
N284 N 0.51315 0.14724 0.62319 0.0
H285 H 0.47837 0.11417 0.60033 0.0
H286 H 0.54293 0.18144 0.65406 0.0
H287 H 0.47605 0.16312 0.58236 0.0
H288 H 0.55492 0.22233 0.57304 0.0
O289 O 0.49556 0.1389 0.53271 0.0
O290 O 0.53451 0.1685 0.50796 0.0
O291 O 0.56335 0.1842 0.58781 0.0
C292 C 0.51029 0.1511 0.50018 0.0
H293 H 0.56373 0.10455 0.50649 0.0
H294 H 0.47887 0.20868 0.59728 0.0
H295 H 0.52327 0.16972 0.72368 0.0
H296 H 0.45728 0.10128 0.67001 0.0
Co297 Co 0.69393 0.49833 0.09243 0.0
C298 C 0.73208 0.55039 0.12806 0.0
C299 C 0.74953 0.53769 0.08102 0.0
C300 C 0.7681 0.5622 0.09479 0.0
N301 N 0.72698 0.53018 0.10213 0.0
N302 N 0.75708 0.57015 0.12437 0.0
H303 H 0.71764 0.5512 0.14809 0.0
H304 H 0.75222 0.52653 0.05638 0.0
C305 C 0.70832 0.45902 0.05639 0.0
O306 O 0.68489 0.4437 0.04068 0.0
N307 N 0.66066 0.46684 0.0827 0.0
C308 C 0.64118 0.4638 0.05673 0.0
C309 C 0.6212 0.43817 0.0588 0.0
C310 C 0.65181 0.4434 0.10158 0.0
N311 N 0.6281 0.42533 0.0866 0.0
C312 C 0.68661 0.53124 0.03394 0.0
C313 C 0.6934 0.50967 0.96072 0.0
C314 C 0.68649 0.5291 0.95722 0.0
C315 C 0.6833 0.54014 0.99451 0.0
C316 C 0.69639 0.50133 0.00046 0.0
N317 N 0.69248 0.51162 0.03658 0.0
H318 H 0.68399 0.5398 0.06245 0.0
H319 H 0.70124 0.48616 0.00136 0.0
H320 H 0.64152 0.47891 0.03694 0.0
H321 H 0.66311 0.4394 0.12429 0.0
O322 O 0.67528 0.51155 0.12608 0.0
O323 O 0.69272 0.48841 0.15049 0.0
O324 O 0.71454 0.48133 0.07239 0.0
C325 C 0.67957 0.50018 0.15808 0.0
H326 H 0.78809 0.57332 0.08355 0.0
H327 H 0.60355 0.42943 0.0398 0.0
H328 H 0.69561 0.50018 0.93291 0.0
H329 H 0.67815 0.55535 0.99326 0.0
Co330 Co 0.4923 0.1812 0.13642 0.0
C331 C 0.44062 0.17919 0.14166 0.0
C332 C 0.46778 0.20425 0.18881 0.0
C333 C 0.44402 0.20275 0.19592 0.0
N334 N 0.46564 0.18926 0.15497 0.0
N335 N 0.42714 0.1871 0.16609 0.0
H336 H 0.43186 0.16567 0.11577 0.0
H337 H 0.48525 0.215 0.20782 0.0
C338 C 0.51058 0.23607 0.10703 0.0
O339 O 0.48632 0.22983 0.09859 0.0
N340 N 0.51873 0.17303 0.11877 0.0
C341 C 0.51424 0.14959 0.10474 0.0
C342 C 0.53748 0.1522 0.09049 0.0
C343 C 0.54464 0.18954 0.11336 0.0
N344 N 0.55654 0.17734 0.09574 0.0
C345 C 0.45558 0.14653 0.07434 0.0
C346 C 0.48284 0.17584 0.00464 0.0
C347 C 0.46069 0.15119 0.99807 0.0
C348 C 0.44685 0.1365 0.03363 0.0
C349 C 0.49084 0.18507 0.04561 0.0
N350 N 0.47703 0.17079 0.08006 0.0
H351 H 0.44543 0.13446 0.1014 0.0
H352 H 0.5093 0.20291 0.04909 0.0
H353 H 0.49523 0.13201 0.10369 0.0
H354 H 0.55442 0.2102 0.12056 0.0
O355 O 0.47359 0.14786 0.16627 0.0
O356 O 0.50488 0.18533 0.19319 0.0
O357 O 0.51588 0.2187 0.1196 0.0
C358 C 0.48819 0.16066 0.19858 0.0
H359 H 0.43938 0.21215 0.22124 0.0
H360 H 0.54007 0.13682 0.07682 0.0
H361 H 0.49498 0.18738 0.97839 0.0
H362 H 0.42983 0.1172 0.03012 0.0
Co363 Co 0.79522 0.29184 0.11855 0.0
C364 C 0.80093 0.24475 0.12955 0.0
C365 C 0.76391 0.23873 0.15142 0.0
C366 C 0.76605 0.21743 0.16315 0.0
N367 N 0.78574 0.25587 0.13015 0.0
N368 N 0.78925 0.2213 0.14909 0.0
H369 H 0.82093 0.25425 0.11879 0.0
H370 H 0.74825 0.2423 0.16026 0.0
C371 C 0.74601 0.25886 0.07147 0.0
O372 O 0.75757 0.24642 0.05652 0.0
N373 N 0.80464 0.32768 0.10846 0.0
C374 C 0.82901 0.34725 0.09977 0.0
C375 C 0.8281 0.36974 0.09292 0.0
C376 C 0.78915 0.3384 0.10689 0.0
N377 N 0.80306 0.36422 0.09742 0.0
C378 C 0.83252 0.29202 0.05838 0.0
C379 C 0.80995 0.30044 0.98789 0.0
C380 C 0.83278 0.29901 0.98258 0.0
C381 C 0.84432 0.29508 0.01858 0.0
C382 C 0.79901 0.29748 0.02798 0.0
N383 N 0.80941 0.29196 0.06251 0.0
H384 H 0.84279 0.29115 0.086 0.0
H385 H 0.78273 0.30085 0.03131 0.0
H386 H 0.84618 0.34516 0.09779 0.0
H387 H 0.76825 0.32758 0.11265 0.0
O388 O 0.82653 0.30375 0.15288 0.0
O389 O 0.78758 0.29505 0.17665 0.0
O390 O 0.75871 0.27883 0.09542 0.0
C391 C 0.8119 0.30237 0.18488 0.0
H392 H 0.75229 0.201 0.18224 0.0
H393 H 0.84456 0.38855 0.08424 0.0
H394 H 0.80117 0.305 0.96149 0.0
H395 H 0.86253 0.29485 0.01618 0.0
Co396 Co 0.50418 0.6925 0.87029 0.0
C397 C 0.55756 0.73992 0.86767 0.0
C398 C 0.53363 0.73914 0.81601 0.0
C399 C 0.5587 0.75978 0.80993 0.0
N400 N 0.53291 0.72641 0.85207 0.0
N401 N 0.57357 0.76016 0.84255 0.0
H402 H 0.56428 0.73479 0.89583 0.0
H403 H 0.51731 0.73332 0.79461 0.0
C404 C 0.4892 0.73221 0.89795 0.0
O405 O 0.51395 0.7505 0.90038 0.0
N406 N 0.47611 0.65861 0.88771 0.0
C407 C 0.47913 0.63871 0.90165 0.0
C408 C 0.45515 0.61857 0.91433 0.0
C409 C 0.4503 0.65026 0.89157 0.0
N410 N 0.43707 0.62587 0.90815 0.0
C411 C 0.5392 0.69001 0.93089 0.0
C412 C 0.51651 0.69783 0.0019 0.0
C413 C 0.5366 0.69209 0.00696 0.0
C414 C 0.54819 0.68828 0.97111 0.0
C415 C 0.50808 0.69933 0.96132 0.0
N416 N 0.51964 0.69589 0.92621 0.0
H417 H 0.54775 0.68627 0.90342 0.0
H418 H 0.49123 0.70175 0.9589 0.0
H419 H 0.49759 0.63899 0.90316 0.0
H420 H 0.4415 0.66196 0.88352 0.0
O421 O 0.52049 0.67587 0.83926 0.0
O422 O 0.49105 0.68513 0.81354 0.0
O423 O 0.48271 0.70865 0.8888 0.0
C424 C 0.50632 0.67551 0.8073 0.0
H425 H 0.56559 0.77318 0.78334 0.0
H426 H 0.45133 0.59996 0.92709 0.0
H427 H 0.50669 0.70011 0.02923 0.0
H428 H 0.56347 0.68329 0.9742 0.0
Co429 Co 0.30873 0.81559 0.89789 0.0
C430 C 0.26954 0.83233 0.88585 0.0
C431 C 0.25056 0.79141 0.89986 0.0
C432 C 0.23162 0.79787 0.89084 0.0
N433 N 0.27447 0.81318 0.8976 0.0
N434 N 0.2437 0.82355 0.88169 0.0
H435 H 0.28454 0.85212 0.87832 0.0
H436 H 0.24677 0.77172 0.90429 0.0
C437 C 0.27964 0.76582 0.95149 0.0
O438 O 0.27365 0.77711 0.9819 0.0
N439 N 0.34264 0.81802 0.89707 0.0
C440 C 0.36591 0.83982 0.90349 0.0
C441 C 0.38507 0.83302 0.90489 0.0
C442 C 0.34789 0.79832 0.89414 0.0
N443 N 0.37372 0.80687 0.89922 0.0
C444 C 0.31515 0.85264 0.96316 0.0
C445 C 0.33312 0.83204 0.02455 0.0
C446 C 0.3314 0.8543 0.03439 0.0
C447 C 0.32228 0.86463 0.00301 0.0
C448 C 0.32593 0.8208 0.98444 0.0
N449 N 0.3164 0.83062 0.95459 0.0
H450 H 0.30936 0.86155 0.93892 0.0
H451 H 0.32825 0.80417 0.97728 0.0
H452 H 0.36858 0.85914 0.90855 0.0
H453 H 0.333 0.77812 0.88912 0.0
O454 O 0.32318 0.84726 0.86354 0.0
O455 O 0.30438 0.80654 0.83924 0.0
O456 O 0.29277 0.77864 0.91915 0.0
C457 C 0.31587 0.83142 0.83107 0.0
H458 H 0.21078 0.78439 0.88804 0.0
H459 H 0.4056 0.84624 0.91141 0.0
H460 H 0.33986 0.82318 0.04769 0.0
H461 H 0.32124 0.88217 0.0088 0.0
Co462 Co 0.20104 0.51052 0.85318 0.0
C463 C 0.183 0.45423 0.84022 0.0
C464 C 0.22478 0.47686 0.84401 0.0
C465 C 0.21782 0.45148 0.83403 0.0
N466 N 0.20289 0.47851 0.84935 0.0
N467 N 0.19156 0.43742 0.83135 0.0
H468 H 0.16281 0.44922 0.83679 0.0
H469 H 0.24457 0.49326 0.844 0.0
C470 C 0.24616 0.522 0.91044 0.0
O471 O 0.23106 0.4997 0.92993 0.0
N472 N 0.19932 0.54254 0.85561 0.0
C473 C 0.17895 0.54551 0.84372 0.0
C474 C 0.18454 0.57051 0.85355 0.0
C475 C 0.21695 0.56582 0.87268 0.0
N476 N 0.20825 0.58301 0.87208 0.0
C477 C 0.15945 0.47862 0.91254 0.0
C478 C 0.18096 0.51207 0.98076 0.0
C479 C 0.15686 0.48909 0.98607 0.0
C480 C 0.14607 0.47215 0.9514 0.0
C481 C 0.19373 0.51758 0.94179 0.0
N482 N 0.18344 0.50067 0.90834 0.0
H483 H 0.14999 0.46627 0.88566 0.0
H484 H 0.21198 0.53571 0.93885 0.0
H485 H 0.16082 0.53039 0.83016 0.0
H486 H 0.23543 0.57004 0.88655 0.0
O487 O 0.17082 0.49485 0.81576 0.0
O488 O 0.21224 0.51784 0.79495 0.0
O489 O 0.23703 0.52928 0.87992 0.0
C490 C 0.18759 0.5045 0.78468 0.0
H491 H 0.23104 0.44442 0.82597 0.0
H492 H 0.17168 0.57851 0.84934 0.0
H493 H 0.19003 0.52576 0.00666 0.0
H494 H 0.12714 0.4545 0.95393 0.0
Co495 Co 0.37136 0.84411 0.4687 0.0
C496 C 0.41958 0.89434 0.48948 0.0
C497 C 0.42002 0.861 0.51541 0.0
C498 C 0.44103 0.88325 0.5316 0.0
N499 N 0.40662 0.86788 0.48869 0.0
N500 N 0.44066 0.90414 0.51526 0.0
H501 H 0.41262 0.90625 0.47497 0.0
H502 H 0.4139 0.84111 0.5247 0.0
C503 C 0.40378 0.82142 0.43715 0.0
O504 O 0.4227 0.84506 0.42738 0.0
N505 N 0.33615 0.82035 0.45002 0.0
C506 C 0.31875 0.8268 0.43508 0.0
C507 C 0.2963 0.8042 0.42348 0.0
C508 C 0.32419 0.79407 0.44749 0.0
N509 N 0.29983 0.78368 0.43116 0.0
C510 C 0.37908 0.88346 0.40719 0.0
C511 C 0.37697 0.85445 0.33704 0.0
C512 C 0.37753 0.8782 0.33085 0.0
C513 C 0.37883 0.89294 0.36656 0.0
C514 C 0.37689 0.84559 0.37793 0.0
N515 N 0.37847 0.86018 0.41264 0.0
H516 H 0.37793 0.89406 0.43416 0.0
H517 H 0.37341 0.82594 0.38113 0.0
H518 H 0.3223 0.84658 0.43219 0.0
H519 H 0.33306 0.78277 0.45762 0.0
O520 O 0.35924 0.86504 0.49837 0.0
O521 O 0.36147 0.83148 0.52534 0.0
O522 O 0.38202 0.81787 0.45157 0.0
C523 C 0.35575 0.84984 0.53066 0.0
H524 H 0.45471 0.88403 0.55523 0.0
H525 H 0.27898 0.80304 0.40951 0.0
H526 H 0.37466 0.84178 0.31055 0.0
H527 H 0.37864 0.9111 0.36322 0.0
Co528 Co 0.16532 0.54 0.41864 0.0
C529 C 0.11487 0.5274 0.45948 0.0
C530 C 0.12746 0.55864 0.41451 0.0
C531 C 0.10286 0.55215 0.42879 0.0
N532 N 0.1351 0.54319 0.43388 0.0
N533 N 0.09498 0.53246 0.457 0.0
H534 H 0.11377 0.5113 0.47744 0.0
H535 H 0.13823 0.57257 0.38972 0.0
C536 C 0.20626 0.59455 0.38645 0.0
O537 O 0.22213 0.58678 0.37219 0.0
N538 N 0.19457 0.53538 0.40303 0.0
C539 C 0.19252 0.51591 0.37793 0.0
C540 C 0.21608 0.5166 0.37709 0.0
C541 C 0.21923 0.54695 0.41872 0.0
N542 N 0.23287 0.53622 0.40238 0.0
C543 C 0.12737 0.50425 0.35876 0.0
C544 C 0.15391 0.53168 0.28707 0.0
C545 C 0.13124 0.50725 0.28202 0.0
C546 C 0.11769 0.49353 0.31856 0.0
C547 C 0.16292 0.54149 0.32741 0.0
N548 N 0.15001 0.52774 0.36274 0.0
H549 H 0.11719 0.49335 0.38678 0.0
H550 H 0.1811 0.55953 0.32969 0.0
H551 H 0.17491 0.5017 0.36183 0.0
H552 H 0.22706 0.56294 0.44125 0.0
O553 O 0.15103 0.50704 0.44972 0.0
O554 O 0.17745 0.54658 0.47605 0.0
O555 O 0.18356 0.57819 0.40095 0.0
C556 C 0.16419 0.52148 0.48207 0.0
H557 H 0.0913 0.56064 0.41808 0.0
H558 H 0.22067 0.50388 0.35882 0.0
H559 H 0.16551 0.54272 0.26002 0.0
H560 H 0.10007 0.47457 0.31614 0.0
Co561 Co 0.47265 0.62998 0.43714 0.0
C562 C 0.4873 0.58923 0.43588 0.0
C563 C 0.44666 0.57317 0.45151 0.0
C564 C 0.45242 0.55324 0.45194 0.0
N565 N 0.46856 0.59561 0.44128 0.0
N566 N 0.47798 0.56341 0.44201 0.0
H567 H 0.5075 0.60336 0.42878 0.0
H568 H 0.42792 0.57146 0.45858 0.0
C569 C 0.4234 0.62124 0.39108 0.0
O570 O 0.43519 0.64425 0.37254 0.0
N571 N 0.47683 0.6647 0.43365 0.0
C572 C 0.4975 0.68673 0.41846 0.0
C573 C 0.49197 0.7067 0.42032 0.0
C574 C 0.45952 0.67197 0.44636 0.0
N575 N 0.46795 0.69738 0.43744 0.0
C576 C 0.5157 0.64757 0.3791 0.0
C577 C 0.48647 0.62909 0.3059 0.0
C578 C 0.51376 0.64515 0.30247 0.0
C579 C 0.52845 0.65347 0.33996 0.0
C580 C 0.47457 0.62332 0.34575 0.0
N581 N 0.48898 0.63412 0.38161 0.0
H582 H 0.52745 0.65483 0.4074 0.0
H583 H 0.45376 0.61028 0.34709 0.0
H584 H 0.51541 0.68852 0.40644 0.0
H585 H 0.44077 0.6586 0.46052 0.0
O586 O 0.50335 0.64371 0.47352 0.0
O587 O 0.46241 0.62789 0.49527 0.0
O588 O 0.43609 0.61338 0.41362 0.0
C589 C 0.48702 0.63809 0.50489 0.0
H590 H 0.43883 0.53286 0.45892 0.0
H591 H 0.50438 0.72633 0.40836 0.0
H592 H 0.47413 0.6217 0.27811 0.0
H593 H 0.54964 0.66495 0.33919 0.0
H594 H 0.15774 0.12914 0.26512 0.0
H595 H 0.10441 0.04665 0.28876 0.0
H596 H 0.06703 0.05444 0.28765 0.0
H597 H 0.11992 0.155 0.32414 0.0
H598 H 0.12744 0.17992 0.28477 0.0
H599 H 0.15042 0.16891 0.29538 0.0
H600 H 0.15014 0.1579 0.21581 0.0
H601 H 0.12708 0.16865 0.205 0.0
H602 H 0.11942 0.13605 0.19032 0.0
H603 H 0.03531 0.06969 0.27475 0.0
H604 H 0.01127 0.09096 0.24914 0.0
H605 H 0.08481 0.16384 0.23311 0.0
C606 C 0.13827 0.11295 0.27154 0.0
C607 C 0.13392 0.08738 0.27755 0.0
C608 C 0.10812 0.06643 0.28435 0.0
C609 C 0.08679 0.07068 0.28397 0.0
C610 C 0.09159 0.09598 0.27666 0.0
C611 C 0.11669 0.11681 0.27068 0.0
C612 C 0.11616 0.14138 0.25846 0.0
C613 C 0.12926 0.16255 0.29274 0.0
C614 C 0.12895 0.15157 0.21481 0.0
C615 C 0.08686 0.13083 0.25695 0.0
C616 C 0.07309 0.10475 0.26835 0.0
C617 C 0.04585 0.09026 0.26653 0.0
C618 C 0.03232 0.10262 0.25198 0.0
C619 C 0.04601 0.12921 0.239 0.0
C620 C 0.07366 0.14352 0.24254 0.0
H621 H 0.84959 0.92818 0.25432 0.0
H622 H 0.924 0.92987 0.25229 0.0
H623 H 0.947 0.9778 0.24126 0.0
H624 H 0.86474 0.97591 0.17416 0.0
H625 H 0.84734 0.99009 0.19945 0.0
H626 H 0.83707 0.95613 0.20794 0.0
H627 H 0.84149 0.96392 0.28914 0.0
H628 H 0.85185 0.99795 0.28091 0.0
H629 H 0.87218 0.98897 0.31085 0.0
H630 H 0.96162 0.02568 0.22967 0.0
H631 H 0.96656 0.0691 0.21592 0.0
H632 H 0.88234 0.03553 0.22714 0.0
C633 C 0.87074 0.93859 0.25209 0.0
C634 C 0.88499 0.92524 0.25432 0.0
C635 C 0.91264 0.93963 0.25027 0.0
C636 C 0.92588 0.96687 0.24432 0.0
C637 C 0.91116 0.97939 0.24249 0.0
C638 C 0.88419 0.96567 0.24616 0.0
C639 C 0.8728 0.98354 0.24215 0.0
C640 C 0.85441 0.97597 0.20363 0.0
C641 C 0.85876 0.98359 0.28321 0.0
C642 C 0.89757 0.0095 0.23539 0.0
C643 C 0.91952 0.00677 0.23589 0.0
C644 C 0.94457 0.02805 0.22946 0.0
C645 C 0.94718 0.05268 0.22186 0.0
C646 C 0.92487 0.05582 0.22075 0.0
C647 C 0.89982 0.03389 0.22798 0.0
H648 H 0.95739 0.88601 0.34138 0.0
H649 H 0.93785 0.87172 0.20769 0.0
H650 H 0.98421 0.90011 0.189 0.0
H651 H 0.00839 0.95334 0.33199 0.0
H652 H 0.02951 0.9511 0.371 0.0
H653 H 0.99453 0.92994 0.3746 0.0
H654 H 0.00048 0.88932 0.37478 0.0
H655 H 0.03549 0.91037 0.37128 0.0
H656 H 0.01849 0.885 0.33238 0.0
H657 H 0.03177 0.93167 0.1839 0.0
H658 H 0.0794 0.96161 0.1934 0.0
H659 H 0.06981 0.95311 0.32962 0.0
C660 C 0.96298 0.88888 0.30827 0.0
C661 C 0.94405 0.87665 0.27601 0.0
C662 C 0.95205 0.88069 0.23297 0.0
C663 C 0.97833 0.8969 0.22195 0.0
C664 C 0.99653 0.90866 0.25431 0.0
C665 C 0.9894 0.90462 0.29661 0.0
C666 C 0.01328 0.91906 0.3249 0.0
C667 C 0.0113 0.93958 0.35223 0.0
C668 C 0.01716 0.89978 0.35246 0.0
C669 C 0.03474 0.93195 0.29181 0.0
C670 C 0.02451 0.92591 0.25132 0.0
C671 C 0.04012 0.93634 0.21541 0.0
C672 C 0.06702 0.95333 0.22101 0.0
C673 C 0.07803 0.95929 0.26208 0.0
C674 C 0.06173 0.94841 0.29792 0.0
H675 H 0.09764 0.0476 0.79369 0.0
H676 H 0.17277 0.08608 0.7299 0.0
H677 H 0.16122 0.11648 0.69528 0.0
H678 H 0.05884 0.05608 0.70734 0.0
H679 H 0.03958 0.0625 0.74467 0.0
H680 H 0.05198 0.04117 0.75912 0.0
H681 H 0.07443 0.0699 0.82515 0.0
H682 H 0.06212 0.09123 0.81078 0.0
H683 H 0.0968 0.10447 0.81839 0.0
H684 H 0.14373 0.14551 0.67374 0.0
H685 H 0.1221 0.17204 0.66886 0.0
H686 H 0.05852 0.11524 0.74754 0.0
C687 C 0.11123 0.062 0.77151 0.0
C688 C 0.136 0.06456 0.76422 0.0
C689 C 0.15373 0.084 0.73592 0.0
C690 C 0.14727 0.10118 0.71591 0.0
C691 C 0.12296 0.09867 0.72453 0.0
C692 C 0.10516 0.07956 0.75162 0.0
C693 C 0.08156 0.08285 0.75884 0.0
C694 C 0.05651 0.05924 0.74144 0.0
C695 C 0.07858 0.08739 0.80608 0.0
C696 C 0.08932 0.10722 0.73274 0.0
C697 C 0.11303 0.11578 0.71259 0.0
C698 C 0.12495 0.13881 0.68885 0.0
C699 C 0.11253 0.15378 0.68627 0.0
C700 C 0.08859 0.14575 0.70768 0.0
C701 C 0.07668 0.12186 0.73045 0.0
H702 H 0.92555 0.06782 0.72566 0.0
H703 H 0.99572 0.07338 0.78105 0.0
H704 H 0.97327 0.0255 0.78631 0.0
H705 H 0.88082 0.01753 0.79295 0.0
H706 H 0.85616 0.00134 0.7527 0.0
H707 H 0.87853 0.03603 0.74935 0.0
H708 H 0.89256 0.0301 0.67418 0.0
H709 H 0.87025 0.99533 0.67735 0.0
H710 H 0.90446 0.0076 0.66639 0.0
H711 H 0.94262 0.9774 0.79009 0.0
H712 H 0.9055 0.93235 0.79382 0.0
H713 H 0.85467 0.95781 0.7378 0.0
C714 C 0.93637 0.05919 0.73892 0.0
C715 C 0.96262 0.07478 0.7528 0.0
C716 C 0.97583 0.06222 0.76956 0.0
C717 C 0.96319 0.03489 0.77282 0.0
C718 C 0.93732 0.0203 0.75925 0.0
C719 C 0.92402 0.03197 0.74269 0.0
C720 C 0.89583 0.01188 0.73258 0.0
C721 C 0.87671 0.017 0.75845 0.0
C722 C 0.89047 0.01119 0.68478 0.0
C723 C 0.89521 0.9871 0.74692 0.0
C724 C 0.91945 0.99242 0.76176 0.0
C725 C 0.9236 0.97294 0.77826 0.0
C726 C 0.90232 0.94739 0.78028 0.0
C727 C 0.87712 0.9415 0.766 0.0
C728 C 0.8737 0.96162 0.74855 0.0
H729 H 0.05724 0.93862 0.82386 0.0
H730 H 0.06172 0.92478 0.69 0.0
H731 H 0.0133 0.90322 0.68479 0.0
H732 H 0.00143 0.87669 0.84413 0.0
H733 H 0.98763 0.88872 0.88302 0.0
H734 H 0.02255 0.90533 0.87505 0.0
H735 H 0.02294 0.94875 0.86049 0.0
H736 H 0.98802 0.93231 0.86863 0.0
H737 H 0.00194 0.94975 0.8199 0.0
H738 H 0.96412 0.88355 0.6948 0.0
H739 H 0.91819 0.86358 0.72064 0.0
H740 H 0.94632 0.88642 0.84886 0.0
C741 C 0.04803 0.93147 0.7933 0.0
C742 C 0.06309 0.93371 0.7571 0.0
C743 C 0.05041 0.92339 0.71794 0.0
C744 C 0.023 0.9112 0.71473 0.0
C745 C 0.00864 0.90908 0.75118 0.0
C746 C 0.02075 0.91867 0.78982 0.0
C747 C 0.00091 0.91216 0.82492 0.0
C748 C 0.00328 0.89468 0.85877 0.0
C749 C 0.00362 0.93724 0.84463 0.0
C750 C 0.97569 0.89735 0.80011 0.0
C751 C 0.98051 0.89618 0.75747 0.0
C752 C 0.96015 0.88415 0.72815 0.0
C753 C 0.93425 0.87291 0.74292 0.0
C754 C 0.92908 0.87327 0.78657 0.0
C755 C 0.95001 0.88564 0.81542 0.0
H756 H 0.7522 0.47888 0.54639 0.0
H757 H 0.67932 0.40864 0.57915 0.0
H758 H 0.70405 0.3866 0.59792 0.0
H759 H 0.78351 0.44739 0.50003 0.0
H760 H 0.81556 0.47032 0.52029 0.0
H761 H 0.79209 0.48075 0.51084 0.0
H762 H 0.79689 0.49644 0.58876 0.0
H763 H 0.82026 0.48585 0.59855 0.0
H764 H 0.7914 0.47379 0.63119 0.0
H765 H 0.73638 0.37148 0.60956 0.0
H766 H 0.77401 0.36402 0.61128 0.0
H767 H 0.82603 0.44469 0.57447 0.0
C768 C 0.74137 0.45901 0.55809 0.0
C769 C 0.71371 0.44558 0.56123 0.0
C770 C 0.70041 0.41933 0.57585 0.0
C771 C 0.71433 0.4067 0.58705 0.0
C772 C 0.74155 0.42062 0.58381 0.0
C773 C 0.75494 0.44619 0.56969 0.0
C774 C 0.78418 0.45648 0.56763 0.0
C775 C 0.79442 0.46417 0.52199 0.0
C776 C 0.79905 0.4795 0.59837 0.0
C777 C 0.78512 0.43253 0.58216 0.0
C778 C 0.7603 0.41209 0.59151 0.0
C779 C 0.75592 0.38742 0.60288 0.0
C780 C 0.77737 0.38336 0.60374 0.0
C781 C 0.80284 0.40388 0.59348 0.0
C782 C 0.80684 0.42891 0.58353 0.0
H783 H 0.60851 0.37831 0.54832 0.0
H784 H 0.56128 0.38798 0.64449 0.0
H785 H 0.53839 0.34056 0.65856 0.0
H786 H 0.55838 0.3197 0.50585 0.0
H787 H 0.57839 0.30505 0.49645 0.0
H788 H 0.59307 0.34012 0.49657 0.0
H789 H 0.62586 0.34373 0.55448 0.0
H790 H 0.61137 0.30862 0.55437 0.0
H791 H 0.61364 0.32556 0.60313 0.0
H792 H 0.51791 0.29208 0.65798 0.0
H793 H 0.50195 0.24535 0.64433 0.0
H794 H 0.56231 0.26638 0.54906 0.0
C795 C 0.59367 0.37053 0.57286 0.0
C796 C 0.58671 0.38694 0.59532 0.0
C797 C 0.567 0.37589 0.62687 0.0
C798 C 0.55389 0.34895 0.63517 0.0
C799 C 0.56081 0.33328 0.61189 0.0
C800 C 0.58037 0.34362 0.58162 0.0
C801 C 0.58306 0.32218 0.5597 0.0
C802 C 0.57791 0.32174 0.51181 0.0
C803 C 0.61009 0.32521 0.56845 0.0
C804 C 0.56146 0.29814 0.5816 0.0
C805 C 0.54903 0.30508 0.61177 0.0
C806 C 0.52763 0.2864 0.63473 0.0
C807 C 0.51857 0.25991 0.62651 0.0
C808 C 0.53083 0.25224 0.59558 0.0
C809 C 0.55279 0.27169 0.57326 0.0
H810 H 0.62364 0.17515 0.6106 0.0
H811 H 0.5974 0.23195 0.61052 0.0
H812 H 0.64339 0.26788 0.60811 0.0
H813 H 0.68427 0.21412 0.6732 0.0
H814 H 0.70255 0.20325 0.64175 0.0
H815 H 0.66778 0.18216 0.64899 0.0
H816 H 0.66152 0.17823 0.56749 0.0
H817 H 0.69618 0.19946 0.55999 0.0
H818 H 0.67337 0.20753 0.53605 0.0
H819 H 0.69172 0.29734 0.60044 0.0
H820 H 0.73912 0.31855 0.58806 0.0
H821 H 0.734 0.24249 0.58943 0.0
C822 C 0.62764 0.19517 0.6113 0.0
C823 C 0.60704 0.20084 0.61119 0.0
C824 C 0.61295 0.22723 0.61077 0.0
C825 C 0.63899 0.24775 0.6095 0.0
C826 C 0.65885 0.24152 0.60847 0.0
C827 C 0.65353 0.21589 0.60946 0.0
C828 C 0.67838 0.2145 0.60462 0.0
C829 C 0.68355 0.20282 0.64452 0.0
C830 C 0.67728 0.19902 0.56466 0.0
C831 C 0.69841 0.2433 0.60001 0.0
C832 C 0.68675 0.25853 0.60279 0.0
C833 C 0.70109 0.28561 0.59835 0.0
C834 C 0.72808 0.29748 0.59087 0.0
C835 C 0.74054 0.28229 0.58746 0.0
C836 C 0.72532 0.2548 0.59232 0.0
H837 H 0.75362 0.35272 0.07533 0.0
H838 H 0.83087 0.4169 0.10771 0.0
H839 H 0.81557 0.44824 0.09587 0.0
H840 H 0.73915 0.38617 0.99351 0.0
H841 H 0.7051 0.37194 0.00782 0.0
H842 H 0.7221 0.35423 0.01778 0.0
H843 H 0.70944 0.3501 0.09719 0.0
H844 H 0.69221 0.36759 0.08744 0.0
H845 H 0.71756 0.37921 0.12715 0.0
H846 H 0.79206 0.47264 0.08237 0.0
H847 H 0.76099 0.48848 0.07098 0.0
H848 H 0.69874 0.40873 0.04761 0.0
C849 C 0.76727 0.37332 0.08022 0.0
C850 C 0.79357 0.3823 0.09208 0.0
C851 C 0.81081 0.40952 0.09783 0.0
C852 C 0.80228 0.42751 0.09134 0.0
C853 C 0.77641 0.41804 0.07917 0.0
C854 C 0.75907 0.39161 0.0739 0.0
C855 C 0.7321 0.38666 0.06168 0.0
C856 C 0.72416 0.374 0.01757 0.0
C857 C 0.71163 0.3699 0.09538 0.0
C858 C 0.73703 0.41446 0.0612 0.0
C859 C 0.76276 0.43223 0.07122 0.0
C860 C 0.77188 0.45896 0.07425 0.0
C861 C 0.75409 0.46777 0.06766 0.0
C862 C 0.7275 0.44989 0.05805 0.0
C863 C 0.71903 0.42294 0.05417 0.0
H864 H 0.57577 0.39103 0.08114 0.0
H865 H 0.65068 0.39633 0.10618 0.0
H866 H 0.62859 0.34839 0.11334 0.0
H867 H 0.53744 0.33776 0.15358 0.0
H868 H 0.50934 0.3225 0.11907 0.0
H869 H 0.53101 0.35741 0.11716 0.0
H870 H 0.53778 0.35437 0.03662 0.0
H871 H 0.51629 0.31943 0.03835 0.0
H872 H 0.54913 0.33288 0.01804 0.0
H873 H 0.59885 0.30011 0.11583 0.0
H874 H 0.56298 0.2544 0.11709 0.0
H875 H 0.50705 0.27992 0.08945 0.0
C876 C 0.5875 0.38209 0.0882 0.0
C877 C 0.61493 0.39748 0.09341 0.0
C878 C 0.62959 0.38506 0.1029 0.0
C879 C 0.61725 0.35779 0.10663 0.0
C880 C 0.59024 0.34323 0.10083 0.0
C881 C 0.57548 0.35489 0.09209 0.0
C882 C 0.54673 0.33464 0.08724 0.0
C883 C 0.53016 0.3383 0.1213 0.0
C884 C 0.53691 0.33538 0.04239 0.0
C885 C 0.54768 0.30977 0.09449 0.0
C886 C 0.573 0.31522 0.10217 0.0
C887 C 0.57892 0.29557 0.10994 0.0
C888 C 0.55835 0.26961 0.11049 0.0
C889 C 0.53213 0.26349 0.10332 0.0
C890 C 0.52686 0.28391 0.09484 0.0
H891 H 0.71112 0.26795 0.11588 0.0
H892 H 0.71701 0.22482 0.00903 0.0
H893 H 0.66909 0.20214 0.00014 0.0
H894 H 0.65568 0.21603 0.16031 0.0
H895 H 0.64061 0.23456 0.17744 0.0
H896 H 0.67565 0.25044 0.17202 0.0
H897 H 0.67516 0.28449 0.12078 0.0
H898 H 0.64006 0.26884 0.12631 0.0
H899 H 0.65454 0.27341 0.07443 0.0
H900 H 0.62087 0.18061 0.00741 0.0
H901 H 0.57483 0.16232 0.02911 0.0
H902 H 0.59927 0.21864 0.1318 0.0
C903 C 0.70236 0.25428 0.08989 0.0
C904 C 0.7178 0.24823 0.06299 0.0
C905 C 0.70558 0.22978 0.02997 0.0
C906 C 0.67837 0.21684 0.02458 0.0
C907 C 0.66361 0.22261 0.05237 0.0
C908 C 0.67511 0.24103 0.08418 0.0
C909 C 0.65447 0.24198 0.11168 0.0
C910 C 0.65675 0.23535 0.1581 0.0
C911 C 0.65616 0.26877 0.10807 0.0
C912 C 0.62966 0.22061 0.09117 0.0
C913 C 0.63546 0.20994 0.05675 0.0
C914 C 0.61604 0.18898 0.03402 0.0
C915 C 0.58995 0.17855 0.04686 0.0
C916 C 0.58344 0.18896 0.08223 0.0
C917 C 0.60362 0.2105 0.10431 0.0
H918 H 0.42574 0.82367 0.8888 0.0
H919 H 0.35059 0.75447 0.91531 0.0
H920 H 0.37225 0.72816 0.92003 0.0
H921 H 0.45218 0.79252 0.82553 0.0
H922 H 0.48495 0.81182 0.84611 0.0
H923 H 0.46345 0.82523 0.84474 0.0
H924 H 0.47019 0.83447 0.92542 0.0
H925 H 0.49165 0.82098 0.92708 0.0
H926 H 0.46342 0.80807 0.96137 0.0
H927 H 0.40196 0.70909 0.92054 0.0
H928 H 0.43757 0.69871 0.91619 0.0
H929 H 0.49357 0.78063 0.8925 0.0
C930 C 0.41376 0.80306 0.896 0.0
C931 C 0.38632 0.79128 0.90149 0.0
C932 C 0.37151 0.76406 0.91023 0.0
C933 C 0.38369 0.74891 0.91338 0.0
C934 C 0.41074 0.76124 0.90801 0.0
C935 C 0.4256 0.7877 0.89958 0.0
C936 C 0.45434 0.79615 0.89483 0.0
C937 C 0.46431 0.80706 0.85015 0.0
C938 C 0.47087 0.81609 0.92923 0.0
C939 C 0.45329 0.77025 0.90158 0.0
C940 C 0.42794 0.75036 0.90915 0.0
C941 C 0.42191 0.72453 0.91488 0.0
C942 C 0.44226 0.71882 0.91227 0.0
C943 C 0.46836 0.73887 0.90416 0.0
C944 C 0.47389 0.76495 0.89932 0.0
H945 H 0.25842 0.73462 0.88335 0.0
H946 H 0.27519 0.73281 0.01662 0.0
H947 H 0.25923 0.68509 0.01089 0.0
H948 H 0.19822 0.67197 0.88207 0.0
H949 H 0.20391 0.66434 0.8292 0.0
H950 H 0.21667 0.69794 0.8447 0.0
H951 H 0.26333 0.70837 0.82294 0.0
H952 H 0.2508 0.67476 0.80781 0.0
H953 H 0.27695 0.68985 0.846 0.0
H954 H 0.24447 0.63803 0.98772 0.0
H955 H 0.22655 0.5948 0.95222 0.0
H956 H 0.2164 0.62784 0.83627 0.0
C957 C 0.2586 0.72414 0.91142 0.0
C958 C 0.26814 0.73721 0.95039 0.0
C959 C 0.26783 0.72295 0.98658 0.0
C960 C 0.25897 0.69597 0.98348 0.0
C961 C 0.25006 0.68373 0.94419 0.0
C962 C 0.24933 0.69734 0.90908 0.0
C963 C 0.23823 0.67979 0.87075 0.0
C964 C 0.21274 0.67843 0.85582 0.0
C965 C 0.25854 0.68873 0.83476 0.0
C966 C 0.23303 0.65408 0.88945 0.0
C967 C 0.24031 0.65673 0.93167 0.0
C968 C 0.23842 0.63572 0.95488 0.0
C969 C 0.22844 0.61139 0.93453 0.0
C970 C 0.22011 0.60827 0.8918 0.0
C971 C 0.22247 0.62986 0.8691 0.0
H972 H 0.28442 0.56565 0.86964 0.0
H973 H 0.27187 0.51308 0.97472 0.0
H974 H 0.31942 0.53647 0.98871 0.0
H975 H 0.34141 0.56855 0.83116 0.0
H976 H 0.35761 0.60264 0.81645 0.0
H977 H 0.32239 0.5837 0.81734 0.0
H978 H 0.32094 0.61709 0.86899 0.0
H979 H 0.35622 0.63624 0.86814 0.0
H980 H 0.33914 0.62497 0.9179 0.0
H981 H 0.36825 0.56285 0.98764 0.0
H982 H 0.41531 0.59094 0.97218 0.0
H983 H 0.39656 0.6264 0.86757 0.0
C984 C 0.29159 0.55933 0.89609 0.0
C985 C 0.27436 0.53752 0.92116 0.0
C986 C 0.28463 0.52972 0.95512 0.0
C987 C 0.31162 0.54293 0.96338 0.0
C988 C 0.32809 0.56398 0.93756 0.0
C989 C 0.31849 0.57227 0.90475 0.0
C990 C 0.34058 0.59448 0.88024 0.0
C991 C 0.34048 0.58687 0.83354 0.0
C992 C 0.33913 0.61969 0.88406 0.0
C993 C 0.36412 0.59691 0.90372 0.0
C994 C 0.35641 0.57927 0.93689 0.0
C995 C 0.37452 0.57689 0.96198 0.0
C996 C 0.40121 0.59278 0.95273 0.0
C997 C 0.40962 0.61081 0.91859 0.0
C998 C 0.39075 0.61309 0.8942 0.0
H999 H 0.48791 0.7501 0.43997 0.0
H1000 H 0.41479 0.67585 0.44006 0.0
H1001 H 0.3902 0.6995 0.43909 0.0
H1002 H 0.46663 0.78586 0.50524 0.0
H1003 H 0.48477 0.81575 0.47546 0.0
H1004 H 0.49638 0.79279 0.47823 0.0
H1005 H 0.49681 0.79093 0.39614 0.0
H1006 H 0.48497 0.81371 0.39312 0.0
H1007 H 0.46726 0.78238 0.36709 0.0
H1008 H 0.37361 0.7316 0.43689 0.0
H1009 H 0.36649 0.76942 0.43565 0.0
H1010 H 0.45061 0.82232 0.43334 0.0
C1011 C 0.46674 0.7387 0.43972 0.0
C1012 C 0.45339 0.71103 0.44016 0.0
C1013 C 0.42559 0.69702 0.44041 0.0
C1014 C 0.4114 0.7103 0.43947 0.0
C1015 C 0.42528 0.73757 0.43817 0.0
C1016 C 0.45233 0.75159 0.43842 0.0
C1017 C 0.46264 0.78077 0.43623 0.0
C1018 C 0.47854 0.7946 0.47617 0.0
C1019 C 0.47888 0.79263 0.39573 0.0
C1020 C 0.43715 0.78104 0.4347 0.0
C1021 C 0.4158 0.75594 0.43596 0.0
C1022 C 0.3902 0.75131 0.43584 0.0
C1023 C 0.38636 0.77293 0.43511 0.0
C1024 C 0.40801 0.79881 0.43421 0.0
C1025 C 0.43368 0.80279 0.43347 0.0
H1026 H 0.31167 0.74585 0.41192 0.0
H1027 H 0.24679 0.75977 0.43121 0.0
H1028 H 0.21556 0.71309 0.41712 0.0
H1029 H 0.2818 0.6983 0.32719 0.0
H1030 H 0.29527 0.6785 0.34521 0.0
H1031 H 0.31258 0.71323 0.35522 0.0
H1032 H 0.31311 0.70462 0.43559 0.0
H1033 H 0.29596 0.66991 0.42583 0.0
H1034 H 0.28267 0.68364 0.46258 0.0
H1035 H 0.19147 0.66459 0.40509 0.0
H1036 H 0.17615 0.6176 0.39551 0.0
H1037 H 0.25674 0.63541 0.38258 0.0
C1038 C 0.29091 0.73908 0.41333 0.0
C1039 C 0.28166 0.75647 0.42269 0.0
C1040 C 0.25431 0.74687 0.42364 0.0
C1041 C 0.23644 0.72039 0.4158 0.0
C1042 C 0.24622 0.70379 0.40673 0.0
C1043 C 0.27281 0.71275 0.40532 0.0
C1044 C 0.2782 0.69074 0.39564 0.0
C1045 C 0.29282 0.69548 0.35329 0.0
C1046 C 0.29337 0.68701 0.43209 0.0
C1047 C 0.25045 0.6679 0.39256 0.0
C1048 C 0.2323 0.67587 0.39894 0.0
C1049 C 0.20547 0.65813 0.39959 0.0
C1050 C 0.19695 0.63148 0.39413 0.0
C1051 C 0.21521 0.62284 0.38786 0.0
C1052 C 0.24227 0.64142 0.3865 0.0
H1053 H 0.3861 0.63606 0.38469 0.0
H1054 H 0.39619 0.56827 0.39467 0.0
H1055 H 0.34844 0.53962 0.40179 0.0
H1056 H 0.3353 0.61499 0.46179 0.0
H1057 H 0.31702 0.6274 0.43416 0.0
H1058 H 0.35198 0.64287 0.4271 0.0
H1059 H 0.34586 0.63623 0.34588 0.0
H1060 H 0.31093 0.62117 0.35272 0.0
H1061 H 0.32447 0.60392 0.32504 0.0
H1062 H 0.30045 0.5184 0.40949 0.0
H1063 H 0.25356 0.50513 0.4127 0.0
H1064 H 0.27361 0.58619 0.40031 0.0
C1065 C 0.37812 0.61512 0.3874 0.0
C1066 C 0.39473 0.60428 0.38882 0.0
C1067 C 0.38374 0.5769 0.39343 0.0
C1068 C 0.35668 0.56049 0.39764 0.0
C1069 C 0.34088 0.57179 0.39748 0.0
C1070 C 0.35104 0.5984 0.39214 0.0
C1071 C 0.32951 0.60536 0.39406 0.0
C1072 C 0.33371 0.62374 0.43151 0.0
C1073 C 0.32758 0.61737 0.35191 0.0
C1074 C 0.30576 0.57846 0.40112 0.0
C1075 C 0.3129 0.55947 0.40304 0.0
C1076 C 0.29456 0.53305 0.40812 0.0
C1077 C 0.26806 0.5257 0.41002 0.0
C1078 C 0.26016 0.54466 0.4071 0.0
C1079 C 0.27928 0.57144 0.40349 0.0
H1080 H 0.39172 0.17021 0.22986 0.0
H1081 H 0.40087 0.18424 0.09458 0.0
H1082 H 0.3533 0.16821 0.08798 0.0
H1083 H 0.33127 0.10999 0.22281 0.0
H1084 H 0.31762 0.1151 0.27055 0.0
H1085 H 0.35258 0.12974 0.26508 0.0
H1086 H 0.35831 0.17552 0.27975 0.0
H1087 H 0.32334 0.16101 0.28535 0.0
H1088 H 0.34084 0.18703 0.24765 0.0
H1089 H 0.30491 0.15051 0.09638 0.0
H1090 H 0.25836 0.12893 0.11788 0.0
H1091 H 0.28021 0.12367 0.24711 0.0
C1092 C 0.38365 0.17026 0.19907 0.0
C1093 C 0.39978 0.17874 0.16273 0.0
C1094 C 0.38865 0.17789 0.12265 0.0
C1095 C 0.36178 0.16893 0.11871 0.0
C1096 C 0.34631 0.16053 0.15514 0.0
C1097 C 0.35677 0.16084 0.19449 0.0
C1098 C 0.33559 0.14903 0.22809 0.0
C1099 C 0.33419 0.12451 0.24778 0.0
C1100 C 0.33977 0.16937 0.26222 0.0
C1101 C 0.31158 0.14202 0.2015 0.0
C1102 C 0.31825 0.14916 0.15963 0.0
C1103 C 0.29945 0.14485 0.12907 0.0
C1104 C 0.27311 0.13273 0.14159 0.0
C1105 C 0.2658 0.12473 0.18412 0.0
C1106 C 0.28534 0.12951 0.21437 0.0
H1107 H 0.81279 0.20459 0.09445 0.0
H1108 H 0.79339 0.20466 0.22673 0.0
H1109 H 0.81774 0.18184 0.2453 0.0
H1110 H 0.8061 0.13923 0.09631 0.0
H1111 H 0.83257 0.14827 0.05928 0.0
H1112 H 0.8131 0.16397 0.05682 0.0
H1113 H 0.85522 0.20933 0.06353 0.0
H1114 H 0.87479 0.19379 0.06625 0.0
H1115 H 0.87688 0.21568 0.10788 0.0
H1116 H 0.84775 0.16294 0.24953 0.0
H1117 H 0.87704 0.14457 0.23832 0.0
H1118 H 0.87365 0.15368 0.10269 0.0
C1119 C 0.81353 0.19946 0.12717 0.0
C1120 C 0.80137 0.20618 0.15929 0.0
C1121 C 0.80249 0.19931 0.20185 0.0
C1122 C 0.81633 0.18652 0.2126 0.0
C1123 C 0.82839 0.18036 0.18018 0.0
C1124 C 0.82669 0.18615 0.13823 0.0
C1125 C 0.84113 0.17715 0.10938 0.0
C1126 C 0.82208 0.15589 0.07864 0.0
C1127 C 0.86332 0.20037 0.08536 0.0
C1128 C 0.8518 0.16599 0.14173 0.0
C1129 C 0.84442 0.1682 0.18243 0.0
C1130 C 0.85327 0.16068 0.21777 0.0
C1131 C 0.86993 0.15044 0.21121 0.0
C1132 C 0.87715 0.14748 0.16971 0.0
C1133 C 0.86789 0.15528 0.13464 0.0
H1134 H 0.79817 0.6162 0.09688 0.0
H1135 H 0.74295 0.58088 0.2006 0.0
H1136 H 0.76228 0.62388 0.23596 0.0
H1137 H 0.85367 0.66099 0.16128 0.0
H1138 H 0.86561 0.6868 0.12236 0.0
H1139 H 0.84767 0.65309 0.10572 0.0
H1140 H 0.81461 0.6621 0.06565 0.0
H1141 H 0.83241 0.6958 0.0822 0.0
H1142 H 0.79795 0.67608 0.09389 0.0
H1143 H 0.78685 0.67117 0.25888 0.0
H1144 H 0.81528 0.71898 0.26796 0.0
H1145 H 0.85471 0.72278 0.14984 0.0
C1146 C 0.79035 0.61732 0.12731 0.0
C1147 C 0.76896 0.59506 0.14584 0.0
C1148 C 0.75906 0.59766 0.18541 0.0
C1149 C 0.77003 0.62198 0.20591 0.0
C1150 C 0.79096 0.64351 0.18655 0.0
C1151 C 0.80108 0.64139 0.14821 0.0
C1152 C 0.82333 0.66759 0.13367 0.0
C1153 C 0.84909 0.66707 0.1306 0.0
C1154 C 0.81666 0.67587 0.09136 0.0
C1155 C 0.82407 0.68484 0.16974 0.0
C1156 C 0.80526 0.67061 0.19993 0.0
C1157 C 0.80174 0.68248 0.23554 0.0
C1158 C 0.81785 0.70964 0.24032 0.0
C1159 C 0.83726 0.72457 0.20971 0.0
C1160 C 0.84039 0.71186 0.17414 0.0
H1161 H 0.14569 0.28636 0.81199 0.0
H1162 H 0.08752 0.28033 0.72118 0.0
H1163 H 0.10404 0.32754 0.72828 0.0
H1164 H 0.14366 0.33283 0.87983 0.0
H1165 H 0.17841 0.35082 0.88994 0.0
H1166 H 0.16255 0.31651 0.87714 0.0
H1167 H 0.19471 0.32652 0.8146 0.0
H1168 H 0.21082 0.36088 0.82737 0.0
H1169 H 0.19806 0.34993 0.77479 0.0
H1170 H 0.12489 0.37476 0.74828 0.0
H1171 H 0.15119 0.41979 0.77612 0.0
H1172 H 0.19742 0.39595 0.85064 0.0
C1173 C 0.13662 0.29491 0.79303 0.0
C1174 C 0.11497 0.27932 0.76643 0.0
C1175 C 0.10368 0.29155 0.74255 0.0
C1176 C 0.11305 0.31846 0.74611 0.0
C1177 C 0.134 0.33305 0.77322 0.0
C1178 C 0.1459 0.32183 0.79585 0.0
C1179 C 0.1681 0.34199 0.82289 0.0
C1180 C 0.16285 0.33512 0.87025 0.0
C1181 C 0.19449 0.34501 0.80907 0.0
C1182 C 0.16655 0.36622 0.81228 0.0
C1183 C 0.14665 0.36057 0.78372 0.0
C1184 C 0.14068 0.37948 0.7704 0.0
C1185 C 0.15554 0.4049 0.78658 0.0
C1186 C 0.17623 0.41119 0.81547 0.0
C1187 C 0.18185 0.3916 0.82825 0.0
H1188 H 0.61135 0.77492 0.78247 0.0
H1189 H 0.59829 0.78267 0.91548 0.0
H1190 H 0.64615 0.81012 0.92655 0.0
H1191 H 0.66825 0.76865 0.79848 0.0
H1192 H 0.68494 0.78661 0.75143 0.0
H1193 H 0.64966 0.76889 0.75329 0.0
H1194 H 0.64895 0.81127 0.73461 0.0
H1195 H 0.68422 0.8291 0.73246 0.0
H1196 H 0.66723 0.84009 0.7668 0.0
H1197 H 0.69494 0.83703 0.92291 0.0
H1198 H 0.74222 0.86009 0.90582 0.0
H1199 H 0.72439 0.83262 0.77618 0.0
C1200 C 0.61868 0.78277 0.8137 0.0
C1201 C 0.6013 0.77706 0.84814 0.0
C1202 C 0.61143 0.78699 0.88884 0.0
C1203 C 0.63849 0.80257 0.89533 0.0
C1204 C 0.65516 0.80768 0.86085 0.0
C1205 C 0.64572 0.79794 0.82088 0.0
C1206 C 0.668 0.8054 0.78975 0.0
C1207 C 0.66769 0.78093 0.77221 0.0
C1208 C 0.66704 0.82248 0.75378 0.0
C1209 C 0.69143 0.82099 0.81841 0.0
C1210 C 0.68349 0.82223 0.85919 0.0
C1211 C 0.7014 0.83611 0.89117 0.0
C1212 C 0.72813 0.84918 0.8812 0.0
C1213 C 0.73675 0.84801 0.8398 0.0
C1214 C 0.71817 0.83353 0.80812 0.0
H1215 H 0.19781 0.81983 0.90594 0.0
H1216 H 0.26289 0.85924 0.81852 0.0
H1217 H 0.2429 0.88388 0.78884 0.0
H1218 H 0.14663 0.81497 0.83483 0.0
H1219 H 0.12954 0.82154 0.87605 0.0
H1220 H 0.14806 0.80573 0.88881 0.0
H1221 H 0.17478 0.84174 0.94434 0.0
H1222 H 0.15626 0.85756 0.93191 0.0
H1223 H 0.19151 0.87562 0.92833 0.0
H1224 H 0.21657 0.90467 0.76957 0.0
H1225 H 0.1871 0.92286 0.76506 0.0
H1226 H 0.13968 0.87144 0.86692 0.0
C1227 C 0.20762 0.83348 0.88027 0.0
C1228 C 0.23186 0.83772 0.86449 0.0
C1229 C 0.24445 0.85598 0.83133 0.0
C1230 C 0.23314 0.86986 0.81405 0.0
C1231 C 0.2093 0.86535 0.83044 0.0
C1232 C 0.19673 0.84777 0.863 0.0
C1233 C 0.17204 0.84779 0.8764 0.0
C1234 C 0.14762 0.8209 0.86854 0.0
C1235 C 0.17376 0.85619 0.923 0.0
C1236 C 0.17286 0.86831 0.84654 0.0
C1237 C 0.19436 0.87791 0.82 0.0
C1238 C 0.19969 0.89736 0.79025 0.0
C1239 C 0.18291 0.90768 0.78811 0.0
C1240 C 0.16118 0.89879 0.81587 0.0
C1241 C 0.15591 0.87849 0.84495 0.0
H1242 H 0.93971 0.46087 0.46422 0.0
H1243 H 0.94314 0.42712 0.5846 0.0
H1244 H 0.99148 0.45189 0.58136 0.0
H1245 H 0.99315 0.45946 0.41577 0.0
H1246 H 0.00497 0.49012 0.38828 0.0
H1247 H 0.9707 0.47044 0.40093 0.0
H1248 H 0.97233 0.5097 0.44054 0.0
H1249 H 0.00664 0.52953 0.42801 0.0
H1250 H 0.99591 0.52559 0.48239 0.0
H1251 H 0.03959 0.47926 0.56353 0.0
H1252 H 0.08359 0.50714 0.53254 0.0
H1253 H 0.04839 0.5233 0.42456 0.0
C1254 C 0.95054 0.45896 0.49029 0.0
C1255 C 0.93751 0.44198 0.52471 0.0
C1256 C 0.9526 0.43972 0.55767 0.0
C1257 C 0.98009 0.45386 0.55625 0.0
C1258 C 0.99224 0.47027 0.52173 0.0
C1259 C 0.97794 0.47292 0.4894 0.0
C1260 C 0.99571 0.49127 0.45525 0.0
C1261 C 0.99084 0.47696 0.41254 0.0
C1262 C 0.99245 0.51546 0.45134 0.0
C1263 C 0.02226 0.49843 0.47327 0.0
C1264 C 0.01987 0.48614 0.51166 0.0
C1265 C 0.04169 0.48908 0.53361 0.0
C1266 C 0.06658 0.50485 0.51569 0.0
C1267 C 0.06947 0.51752 0.47625 0.0
C1268 C 0.04692 0.51434 0.4551 0.0
H1269 H 0.46766 0.51888 0.48392 0.0
H1270 H 0.52184 0.57745 0.39563 0.0
H1271 H 0.54881 0.55633 0.39584 0.0
H1272 H 0.51451 0.51473 0.54586 0.0
H1273 H 0.49552 0.47988 0.55444 0.0
H1274 H 0.47921 0.49825 0.54477 0.0
H1275 H 0.45425 0.4679 0.48154 0.0
H1276 H 0.47045 0.44935 0.49109 0.0
H1277 H 0.47243 0.46345 0.43958 0.0
H1278 H 0.57185 0.5315 0.4103 0.0
H1279 H 0.58907 0.50372 0.43722 0.0
H1280 H 0.51937 0.46012 0.5139 0.0
C1281 C 0.48486 0.52694 0.4639 0.0
C1282 C 0.49266 0.54993 0.43989 0.0
C1283 C 0.51565 0.56012 0.41478 0.0
C1284 C 0.53098 0.54812 0.41439 0.0
C1285 C 0.52296 0.52578 0.43895 0.0
C1286 C 0.50035 0.51514 0.46301 0.0
C1287 C 0.49686 0.49175 0.48823 0.0
C1288 C 0.49652 0.49645 0.53615 0.0
C1289 C 0.47202 0.46662 0.47426 0.0
C1290 C 0.52138 0.4913 0.47533 0.0
C1291 C 0.53607 0.51105 0.4467 0.0
C1292 C 0.56037 0.51575 0.43225 0.0
C1293 C 0.57005 0.50003 0.44783 0.0
C1294 C 0.55542 0.47984 0.47739 0.0
C1295 C 0.5306 0.47515 0.49072 0.0
H1296 H 0.46016 0.94721 0.46538 0.0
H1297 H 0.45609 0.92148 0.59518 0.0
H1298 H 0.4809 0.96758 0.6189 0.0
H1299 H 0.52676 0.00321 0.4727 0.0
H1300 H 0.51983 0.02351 0.43862 0.0
H1301 H 0.50221 0.98848 0.43188 0.0
H1302 H 0.45819 0.98789 0.44012 0.0
H1303 H 0.47565 0.02288 0.44693 0.0
H1304 H 0.45261 0.00215 0.48668 0.0
H1305 H 0.50255 0.01631 0.62904 0.0
H1306 H 0.52332 0.06464 0.62388 0.0
H1307 H 0.51651 0.05887 0.48726 0.0
C1308 C 0.4647 0.95142 0.4987 0.0
C1309 C 0.45634 0.93093 0.52852 0.0
C1310 C 0.46264 0.93697 0.57188 0.0
C1311 C 0.47658 0.96305 0.58562 0.0
C1312 C 0.48444 0.98284 0.55546 0.0
C1313 C 0.47907 0.97736 0.51282 0.0
C1314 C 0.48988 0.00226 0.48693 0.0
C1315 C 0.51093 0.00449 0.45569 0.0
C1316 C 0.46776 0.00388 0.46382 0.0
C1317 C 0.50176 0.02258 0.52175 0.0
C1318 C 0.4982 0.01096 0.56111 0.0
C1319 C 0.50589 0.02566 0.59836 0.0
C1320 C 0.51757 0.05296 0.59525 0.0
C1321 C 0.52183 0.06518 0.55523 0.0
C1322 C 0.51399 0.04983 0.51807 0.0
H1323 H 0.17083 0.00502 0.42689 0.0
H1324 H 0.24928 0.07219 0.42609 0.0
H1325 H 0.25469 0.06383 0.50164 0.0
H1326 H 0.15259 0.01569 0.52384 0.0
H1327 H 0.13352 0.98177 0.53908 0.0
H1328 H 0.13783 0.99054 0.48395 0.0
H1329 H 0.15679 0.95991 0.47046 0.0
H1330 H 0.1524 0.95088 0.5257 0.0
H1331 H 0.1842 0.96382 0.50147 0.0
H1332 H 0.24833 0.05155 0.58014 0.0
H1333 H 0.23126 0.03659 0.65269 0.0
H1334 H 0.15748 0.97677 0.59979 0.0
C1335 C 0.18937 0.01758 0.44244 0.0
C1336 C 0.20965 0.03923 0.42111 0.0
C1337 C 0.23363 0.0554 0.44213 0.0
C1338 C 0.23682 0.05076 0.48489 0.0
C1339 C 0.216 0.02962 0.50555 0.0
C1340 C 0.19287 0.0131 0.48466 0.0
C1341 C 0.17258 0.99313 0.51428 0.0
C1342 C 0.14768 0.99545 0.51535 0.0
C1343 C 0.16612 0.96529 0.50226 0.0
C1344 C 0.18735 0.00167 0.55566 0.0
C1345 C 0.2125 0.02246 0.55014 0.0
C1346 C 0.22888 0.03493 0.58466 0.0
C1347 C 0.21907 0.02626 0.62574 0.0
C1348 C 0.19305 0.00552 0.63181 0.0
C1349 C 0.17743 0.9927 0.59614 0.0
H1350 H 0.98673 0.15271 0.56223 0.0
H1351 H 0.02941 0.23733 0.57467 0.0
H1352 H 0.01621 0.24128 0.50182 0.0
H1353 H 0.00733 0.15148 0.45946 0.0
H1354 H 0.97691 0.12344 0.44311 0.0
H1355 H 0.9864 0.12749 0.49795 0.0
H1356 H 0.94247 0.12462 0.51877 0.0
H1357 H 0.9329 0.12071 0.46381 0.0
H1358 H 0.93343 0.14667 0.49467 0.0
H1359 H 0.00147 0.23572 0.42497 0.0
H1360 H 0.9882 0.22144 0.35103 0.0
H1361 H 0.95845 0.14074 0.38945 0.0
C1362 C 0.9933 0.17213 0.54984 0.0
C1363 C 0.00924 0.19472 0.57414 0.0
C1364 C 0.01696 0.21972 0.55682 0.0
C1365 C 0.00959 0.22215 0.51546 0.0
C1366 C 0.99443 0.1994 0.49203 0.0
C1367 C 0.9864 0.17488 0.50873 0.0
C1368 C 0.97226 0.15356 0.47622 0.0
C1369 C 0.98659 0.1381 0.46875 0.0
C1370 C 0.94356 0.13532 0.48915 0.0
C1371 C 0.9742 0.1699 0.43811 0.0
C1372 C 0.9866 0.19625 0.44789 0.0
C1373 C 0.9916 0.21511 0.41706 0.0
C1374 C 0.98417 0.20681 0.37507 0.0
C1375 C 0.97223 0.17992 0.36419 0.0
C1376 C 0.96689 0.16135 0.39653 0.0
H1377 H 0.80395 0.83608 0.60392 0.0
H1378 H 0.81717 0.77804 0.66526 0.0
H1379 H 0.82081 0.76137 0.59496 0.0
H1380 H 0.766 0.79428 0.51158 0.0
H1381 H 0.78045 0.82188 0.47599 0.0
H1382 H 0.7754 0.82655 0.53092 0.0
H1383 H 0.82465 0.86124 0.53785 0.0
H1384 H 0.82994 0.85646 0.48325 0.0
H1385 H 0.84895 0.85246 0.5242 0.0
H1386 H 0.83038 0.75633 0.5181 0.0
H1387 H 0.84002 0.76005 0.44097 0.0
H1388 H 0.81804 0.81973 0.43049 0.0
C1389 C 0.8068 0.81933 0.60241 0.0
C1390 C 0.81008 0.80815 0.63976 0.0
C1391 C 0.81418 0.78654 0.63687 0.0
C1392 C 0.81641 0.77707 0.59712 0.0
C1393 C 0.81399 0.78915 0.56075 0.0
C1394 C 0.80868 0.80945 0.56311 0.0
C1395 C 0.80836 0.82008 0.51962 0.0
C1396 C 0.78092 0.8154 0.5089 0.0
C1397 C 0.82922 0.84928 0.51605 0.0
C1398 C 0.81528 0.80329 0.49246 0.0
C1399 C 0.81847 0.78554 0.51663 0.0
C1400 C 0.82727 0.76968 0.49875 0.0
C1401 C 0.83283 0.77198 0.45509 0.0
C1402 C 0.82928 0.78981 0.42993 0.0
C1403 C 0.8202 0.80543 0.44891 0.0
H1404 H 0.80801 0.27955 0.90728 0.0
H1405 H 0.88486 0.3298 0.96142 0.0
H1406 H 0.90336 0.34309 0.88926 0.0
H1407 H 0.8299 0.26119 0.80815 0.0
H1408 H 0.80479 0.26248 0.77747 0.0
H1409 H 0.79907 0.25303 0.8325 0.0
H1410 H 0.78801 0.28966 0.84708 0.0
H1411 H 0.79382 0.2993 0.79237 0.0
H1412 H 0.81155 0.323 0.83326 0.0
H1413 H 0.91181 0.35598 0.81117 0.0
H1414 H 0.90894 0.36721 0.73617 0.0
H1415 H 0.82629 0.30924 0.73512 0.0
C1416 C 0.82887 0.29288 0.90395 0.0
C1417 C 0.845 0.30358 0.93992 0.0
C1418 C 0.87219 0.32102 0.93428 0.0
C1419 C 0.88285 0.32874 0.89339 0.0
C1420 C 0.8661 0.31861 0.85856 0.0
C1421 C 0.83969 0.30083 0.8636 0.0
C1422 C 0.82513 0.29499 0.822 0.0
C1423 C 0.81408 0.26621 0.80928 0.0
C1424 C 0.80337 0.30218 0.82381 0.0
C1425 C 0.84718 0.31311 0.79294 0.0
C1426 C 0.87082 0.32624 0.81419 0.0
C1427 C 0.89349 0.34545 0.79411 0.0
C1428 C 0.89174 0.35169 0.75161 0.0
C1429 C 0.86741 0.33905 0.73019 0.0
C1430 C 0.84514 0.31911 0.75089 0.0
H1431 H 0.71421 0.53601 0.88435 0.0
H1432 H 0.64586 0.53657 0.93369 0.0
H1433 H 0.63193 0.53857 0.86057 0.0
H1434 H 0.72345 0.57597 0.78522 0.0
H1435 H 0.73233 0.55558 0.7552 0.0
H1436 H 0.7404 0.56138 0.81074 0.0
H1437 H 0.71611 0.5113 0.82395 0.0
H1438 H 0.70778 0.50535 0.7688 0.0
H1439 H 0.68227 0.49171 0.80832 0.0
H1440 H 0.62115 0.53178 0.78254 0.0
H1441 H 0.61452 0.51646 0.70801 0.0
H1442 H 0.68892 0.51839 0.71073 0.0
C1443 C 0.6967 0.53733 0.87982 0.0
C1444 C 0.68113 0.53615 0.91469 0.0
C1445 C 0.65833 0.53787 0.90749 0.0
C1446 C 0.65023 0.53894 0.86601 0.0
C1447 C 0.6653 0.53854 0.8322 0.0
C1448 C 0.68826 0.53807 0.83879 0.0
C1449 C 0.69899 0.53391 0.79782 0.0
C1450 C 0.72535 0.55816 0.78658 0.0
C1451 C 0.7014 0.5091 0.79988 0.0
C1452 C 0.67774 0.53057 0.76744 0.0
C1453 C 0.65881 0.53401 0.78746 0.0
C1454 C 0.63614 0.52961 0.76636 0.0
C1455 C 0.63252 0.52094 0.7241 0.0
C1456 C 0.65124 0.5163 0.70389 0.0
C1457 C 0.67438 0.5219 0.72554 0.0
H1458 H 0.48188 0.16797 0.75215 0.0
H1459 H 0.46691 0.08828 0.74717 0.0
H1460 H 0.45038 0.08118 0.82108 0.0
H1461 H 0.50738 0.18221 0.85146 0.0
H1462 H 0.49331 0.20196 0.86682 0.0
H1463 H 0.49923 0.19898 0.81182 0.0
H1464 H 0.45039 0.18247 0.79473 0.0
H1465 H 0.4443 0.18545 0.84989 0.0
H1466 H 0.42517 0.15465 0.8229 0.0
H1467 H 0.44303 0.08567 0.89878 0.0
H1468 H 0.44521 0.10099 0.97228 0.0
H1469 H 0.46283 0.17713 0.925 0.0
C1470 C 0.47456 0.14885 0.76638 0.0
C1471 C 0.47567 0.12866 0.74429 0.0
C1472 C 0.46599 0.10389 0.76367 0.0
C1473 C 0.45656 0.09972 0.80552 0.0
C1474 C 0.45649 0.12037 0.82699 0.0
C1475 C 0.46491 0.14435 0.80776 0.0
C1476 C 0.46524 0.16415 0.83851 0.0
C1477 C 0.49293 0.18822 0.84238 0.0
C1478 C 0.44507 0.17214 0.82574 0.0
C1479 C 0.4571 0.14807 0.87872 0.0
C1480 C 0.45169 0.12274 0.87144 0.0
C1481 C 0.44652 0.10523 0.90469 0.0
C1482 C 0.44769 0.11408 0.9464 0.0
C1483 C 0.45413 0.14027 0.95445 0.0
C1484 C 0.45787 0.15701 0.91993 0.0
H1485 H 0.49996 0.61886 0.22597 0.0
H1486 H 0.55568 0.69335 0.28282 0.0
H1487 H 0.57304 0.71107 0.21214 0.0
H1488 H 0.54115 0.62129 0.13402 0.0
H1489 H 0.51332 0.60729 0.09885 0.0
H1490 H 0.50901 0.59855 0.15423 0.0
H1491 H 0.47413 0.61287 0.16046 0.0
H1492 H 0.47833 0.62161 0.1053 0.0
H1493 H 0.48255 0.64554 0.14471 0.0
H1494 H 0.57961 0.72315 0.13546 0.0
H1495 H 0.57394 0.72838 0.05884 0.0
H1496 H 0.51301 0.64705 0.05181 0.0
C1497 C 0.51609 0.63877 0.22378 0.0
C1498 C 0.52649 0.65455 0.26031 0.0
C1499 C 0.54769 0.68053 0.25567 0.0
C1500 C 0.55767 0.69087 0.2155 0.0
C1501 C 0.54634 0.67505 0.18014 0.0
C1502 C 0.52606 0.64951 0.1839 0.0
C1503 C 0.51514 0.63764 0.14093 0.0
C1504 C 0.51995 0.61484 0.13146 0.0
C1505 C 0.48582 0.62892 0.13768 0.0
C1506 C 0.53165 0.66087 0.11258 0.0
C1507 C 0.54994 0.68212 0.13568 0.0
C1508 C 0.56583 0.70649 0.11687 0.0
C1509 C 0.56255 0.70933 0.07351 0.0
C1510 C 0.54349 0.68794 0.04985 0.0
C1511 C 0.52822 0.66338 0.06935 0.0
H1512 H 0.37253 0.86044 0.08336 0.0
H1513 H 0.30727 0.87491 0.08282 0.0
H1514 H 0.31733 0.89045 0.15684 0.0
H1515 H 0.36036 0.83253 0.18206 0.0
H1516 H 0.3942 0.8458 0.1969 0.0
H1517 H 0.38508 0.84084 0.14192 0.0
H1518 H 0.41818 0.88971 0.12654 0.0
H1519 H 0.42737 0.89485 0.18171 0.0
H1520 H 0.41616 0.91477 0.15614 0.0
H1521 H 0.33046 0.89816 0.23383 0.0
H1522 H 0.34411 0.89548 0.3068 0.0
H1523 H 0.40034 0.87537 0.25706 0.0
C1524 C 0.36053 0.86719 0.09854 0.0
C1525 C 0.33909 0.86642 0.07718 0.0
C1526 C 0.32403 0.87565 0.09823 0.0
C1527 C 0.3296 0.8845 0.14033 0.0
C1528 C 0.35042 0.88423 0.16083 0.0
C1529 C 0.36571 0.87591 0.14048 0.0
C1530 C 0.38507 0.87473 0.17059 0.0
C1531 C 0.3809 0.84683 0.17301 0.0
C1532 C 0.41337 0.89471 0.15799 0.0
C1533 C 0.37746 0.88249 0.21157 0.0
C1534 C 0.35785 0.88848 0.20522 0.0
C1535 C 0.34618 0.89404 0.23904 0.0
C1536 C 0.35417 0.89262 0.28041 0.0
C1537 C 0.37341 0.88537 0.28757 0.0
C1538 C 0.38571 0.88112 0.25252 0.0
H1539 H 0.13186 0.53247 0.20895 0.0
H1540 H 0.11501 0.45676 0.25694 0.0
H1541 H 0.11212 0.441 0.18344 0.0
H1542 H 0.093 0.50911 0.10754 0.0
H1543 H 0.11785 0.53701 0.07905 0.0
H1544 H 0.1121 0.53999 0.13437 0.0
H1545 H 0.16116 0.55704 0.15023 0.0
H1546 H 0.16702 0.55388 0.09528 0.0
H1547 H 0.17546 0.53745 0.1351 0.0
H1548 H 0.11903 0.43624 0.10528 0.0
H1549 H 0.13513 0.44315 0.03118 0.0
H1550 H 0.14914 0.52254 0.03552 0.0
C1551 C 0.12682 0.51232 0.20402 0.0
C1552 C 0.12361 0.49584 0.23874 0.0
C1553 C 0.11711 0.46963 0.23091 0.0
C1554 C 0.11554 0.46054 0.18919 0.0
C1555 C 0.12028 0.47782 0.15569 0.0
C1556 C 0.1255 0.50312 0.16277 0.0
C1557 C 0.13328 0.51899 0.12228 0.0
C1558 C 0.11283 0.52672 0.11009 0.0
C1559 C 0.16086 0.54325 0.12597 0.0
C1560 C 0.13293 0.49915 0.09159 0.0
C1561 C 0.1248 0.4753 0.11106 0.0
C1562 C 0.12491 0.45466 0.08956 0.0
C1563 C 0.13404 0.45873 0.0475 0.0
C1564 C 0.14336 0.48336 0.02773 0.0
C1565 C 0.1421 0.50349 0.04987 0.0
H1566 H 0.13795 0.00404 0.12125 0.0
H1567 H 0.22003 0.02984 0.14127 0.0
H1568 H 0.22361 0.0186 0.0665 0.0
H1569 H 0.12392 0.94932 0.0488 0.0
H1570 H 0.10163 0.95513 0.01789 0.0
H1571 H 0.10554 0.96255 0.07372 0.0
H1572 H 0.11708 0.01018 0.05701 0.0
H1573 H 0.11352 0.00303 0.00123 0.0
H1574 H 0.14376 0.02969 0.02135 0.0
H1575 H 0.21861 0.00947 0.98596 0.0
H1576 H 0.20487 0.0004 0.91051 0.0
H1577 H 0.12585 0.97961 0.94704 0.0
C1578 C 0.15657 0.00682 0.11015 0.0
C1579 C 0.17872 0.01773 0.13673 0.0
C1580 C 0.20278 0.02118 0.12129 0.0
C1581 C 0.20497 0.01497 0.07891 0.0
C1582 C 0.18278 0.00492 0.05301 0.0
C1583 C 0.15894 0.00046 0.0685 0.0
C1584 C 0.13822 0.99069 0.03443 0.0
C1585 C 0.11602 0.96276 0.0443 0.0
C1586 C 0.12754 0.00953 0.02815 0.0
C1587 C 0.15419 0.99106 0.99681 0.0
C1588 C 0.17984 0.99922 0.00782 0.0
C1589 C 0.19845 0.00263 0.97724 0.0
C1590 C 0.19053 0.99754 0.9345 0.0
C1591 C 0.16428 0.98914 0.92299 0.0
C1592 C 0.146 0.98569 0.95478 0.0
H1593 H 0.99376 0.1355 0.05634 0.0
H1594 H 0.97734 0.19824 0.07981 0.0
H1595 H 0.99019 0.21375 0.00565 0.0
H1596 H 0.05086 0.17309 0.99132 0.0
H1597 H 0.04358 0.14564 0.95753 0.0
H1598 H 0.03325 0.14024 0.01211 0.0
H1599 H 0.98527 0.10917 0.98834 0.0
H1600 H 0.99542 0.11453 0.93373 0.0
H1601 H 0.97008 0.12087 0.95152 0.0
H1602 H 0.00244 0.21998 0.92601 0.0
H1603 H 0.01613 0.21839 0.85195 0.0
H1604 H 0.02624 0.15278 0.8858 0.0
C1605 C 0.99287 0.15254 0.04595 0.0
C1606 C 0.9844 0.1656 0.07337 0.0
C1607 C 0.98384 0.18803 0.05898 0.0
C1608 C 0.99102 0.19688 0.01702 0.0
C1609 C 0.99905 0.18326 0.99051 0.0
C1610 C 1.00031 0.16177 0.00483 0.0
C1611 C 0.00981 0.15052 0.97096 0.0
C1612 C 0.03593 0.15251 0.98375 0.0
C1613 C 0.98889 0.1221 0.96053 0.0
C1614 C 0.01342 0.16875 0.9349 0.0
C1615 C 0.007 0.18746 0.94631 0.0
C1616 C 0.00782 0.2056 0.91698 0.0
C1617 C 0.01551 0.20454 0.87509 0.0
C1618 C 0.02251 0.18568 0.86347 0.0
C1619 C 0.02145 0.16773 0.89391 0.0
H1620 H 0.84954 0.87584 0.95258 0.0
H1621 H 0.78743 0.79876 0.91532 0.0
H1622 H 0.7816 0.78462 0.99068 0.0
H1623 H 0.87866 0.85443 0.02577 0.0
H1624 H 0.88783 0.88132 0.06188 0.0
H1625 H 0.8845 0.88562 0.00628 0.0
H1626 H 0.85103 0.90067 0.02343 0.0
H1627 H 0.85418 0.89629 0.07921 0.0
H1628 H 0.82235 0.87979 0.05449 0.0
H1629 H 0.78488 0.77885 0.0713 0.0
H1630 H 0.79941 0.78103 0.14599 0.0
H1631 H 0.86025 0.86156 0.12644 0.0
C1632 C 0.83437 0.85607 0.96015 0.0
C1633 C 0.81879 0.83843 0.92819 0.0
C1634 C 0.7995 0.81261 0.93946 0.0
C1635 C 0.796 0.80449 0.98214 0.0
C1636 C 0.81197 0.82246 0.01291 0.0
C1637 C 0.83084 0.8477 0.00213 0.0
C1638 C 0.84711 0.86281 0.03986 0.0
C1639 C 0.87623 0.87153 0.03303 0.0
C1640 C 0.84343 0.88627 0.04983 0.0
C1641 C 0.83493 0.84204 0.07366 0.0
C1642 C 0.81435 0.81899 0.05805 0.0
C1643 C 0.80083 0.79688 0.0838 0.0
C1644 C 0.80907 0.7983 0.12613 0.0
C1645 C 0.83086 0.82147 0.14163 0.0
C1646 C 0.84348 0.84363 0.11526 0.0
H1647 H 0.78623 0.30561 0.2539 0.0
H1648 H 0.85982 0.31204 0.2152 0.0
H1649 H 0.87522 0.32089 0.28983 0.0
H1650 H 0.81286 0.35733 0.32796 0.0
H1651 H 0.78575 0.34127 0.3643 0.0
H1652 H 0.78065 0.33416 0.30854 0.0
H1653 H 0.76124 0.28473 0.32459 0.0
H1654 H 0.76647 0.29173 0.38045 0.0
H1655 H 0.78025 0.27413 0.35462 0.0
H1656 H 0.88227 0.32974 0.3705 0.0
H1657 H 0.88125 0.34083 0.44637 0.0
H1658 H 0.80321 0.32908 0.42835 0.0
C1659 C 0.80556 0.30874 0.26099 0.0
C1660 C 0.82182 0.30809 0.22883 0.0
C1661 C 0.84706 0.3125 0.23946 0.0
C1662 C 0.8559 0.3174 0.28175 0.0
C1663 C 0.83923 0.31783 0.31279 0.0
C1664 C 0.81463 0.31374 0.30263 0.0
C1665 C 0.8007 0.31624 0.3409 0.0
C1666 C 0.79466 0.33858 0.33506 0.0
C1667 C 0.77569 0.29015 0.35071 0.0
C1668 C 0.82139 0.32281 0.37429 0.0
C1669 C 0.84339 0.32332 0.35797 0.0
C1670 C 0.86508 0.32933 0.38351 0.0
C1671 C 0.86433 0.33547 0.4265 0.0
C1672 C 0.84221 0.33589 0.44293 0.0
C1673 C 0.82046 0.32906 0.41653 0.0
H1674 H 0.66813 0.46365 0.21837 0.0
H1675 H 0.67169 0.5378 0.19577 0.0
H1676 H 0.66166 0.53977 0.2718 0.0
H1677 H 0.61426 0.4383 0.29433 0.0
H1678 H 0.62779 0.42221 0.32527 0.0
H1679 H 0.63388 0.42659 0.26908 0.0
H1680 H 0.68389 0.45024 0.28334 0.0
H1681 H 0.67799 0.44624 0.33954 0.0
H1682 H 0.69853 0.47844 0.31768 0.0
H1683 H 0.65489 0.53468 0.35248 0.0
H1684 H 0.64789 0.5212 0.42805 0.0
H1685 H 0.64734 0.44965 0.39469 0.0
C1686 C 0.66652 0.48019 0.22931 0.0
C1687 C 0.67072 0.50063 0.20153 0.0
C1688 C 0.66832 0.52188 0.21673 0.0
C1689 C 0.66278 0.52318 0.2598 0.0
C1690 C 0.65932 0.50286 0.28667 0.0
C1691 C 0.66069 0.48157 0.27168 0.0
C1692 C 0.65646 0.46231 0.30654 0.0
C1693 C 0.63162 0.43579 0.29831 0.0
C1694 C 0.68066 0.45914 0.31209 0.0
C1695 C 0.65295 0.47622 0.3439 0.0
C1696 C 0.65476 0.49964 0.33209 0.0
C1697 C 0.65317 0.51626 0.3619 0.0
C1698 C 0.64938 0.50855 0.40471 0.0
C1699 C 0.64703 0.48438 0.41701 0.0
C1700 C 0.64884 0.46813 0.38612 0.0
H1701 H 0.52739 0.17402 0.25379 0.0
H1702 H 0.44391 0.12216 0.23818 0.0
H1703 H 0.44023 0.11024 0.31453 0.0
H1704 H 0.53828 0.13443 0.33484 0.0
H1705 H 0.56223 0.16365 0.36173 0.0
H1706 H 0.55822 0.16401 0.30516 0.0
H1707 H 0.55052 0.20337 0.3134 0.0
H1708 H 0.55396 0.20285 0.3699 0.0
H1709 H 0.52464 0.20033 0.34763 0.0
H1710 H 0.44569 0.10953 0.39568 0.0
H1711 H 0.46002 0.11798 0.47095 0.0
H1712 H 0.53972 0.1707 0.42959 0.0
C1713 C 0.50844 0.15954 0.26617 0.0
C1714 C 0.48595 0.14887 0.24046 0.0
C1715 C 0.46141 0.1302 0.25753 0.0
C1716 C 0.45917 0.12347 0.3008 0.0
C1717 C 0.48174 0.13533 0.32588 0.0
C1718 C 0.50598 0.15263 0.30874 0.0
C1719 C 0.52702 0.16448 0.34216 0.0
C1720 C 0.54765 0.15613 0.33558 0.0
C1721 C 0.53976 0.19452 0.34332 0.0
C1722 C 0.5108 0.15202 0.38121 0.0
C1723 C 0.48479 0.13502 0.37157 0.0
C1724 C 0.4661 0.12249 0.40341 0.0
C1725 C 0.47435 0.12749 0.446 0.0
C1726 C 0.50094 0.14505 0.45603 0.0
C1727 C 0.51924 0.15717 0.42306 0.0
H1728 H 0.46837 0.65641 0.748 0.0
H1729 H 0.54819 0.67447 0.77074 0.0
H1730 H 0.55206 0.66493 0.69517 0.0
H1731 H 0.45116 0.60312 0.67166 0.0
H1732 H 0.43129 0.61233 0.6409 0.0
H1733 H 0.43466 0.61817 0.69721 0.0
H1734 H 0.45073 0.66728 0.68377 0.0
H1735 H 0.44779 0.66171 0.6275 0.0
H1736 H 0.47865 0.68595 0.64987 0.0
H1737 H 0.54798 0.65805 0.61429 0.0
H1738 H 0.53515 0.65069 0.53836 0.0
H1739 H 0.45776 0.6364 0.57221 0.0
C1740 C 0.48652 0.65788 0.7373 0.0
C1741 C 0.50799 0.66611 0.7649 0.0
C1742 C 0.53144 0.66788 0.74993 0.0
C1743 C 0.53382 0.66265 0.70712 0.0
C1744 C 0.5124 0.65532 0.68029 0.0
C1745 C 0.48906 0.6525 0.69518 0.0
C1746 C 0.46916 0.64534 0.66025 0.0
C1747 C 0.44515 0.61812 0.66797 0.0
C1748 C 0.46113 0.66633 0.65506 0.0
C1749 C 0.48504 0.64514 0.62295 0.0
C1750 C 0.50995 0.65092 0.6348 0.0
C1751 C 0.5284 0.65313 0.60485 0.0
C1752 C 0.52102 0.64907 0.56186 0.0
C1753 C 0.49544 0.64283 0.54956 0.0
C1754 C 0.47737 0.64084 0.58065 0.0
H1755 H 0.30576 0.80124 0.76143 0.0
H1756 H 0.33698 0.88197 0.80031 0.0
H1757 H 0.3463 0.89587 0.72489 0.0
H1758 H 0.35321 0.81338 0.68604 0.0
H1759 H 0.33111 0.78812 0.65028 0.0
H1760 H 0.32435 0.78498 0.70617 0.0
H1761 H 0.27863 0.77967 0.6916 0.0
H1762 H 0.28531 0.78292 0.63551 0.0
H1763 H 0.27624 0.8044 0.66162 0.0
H1764 H 0.35479 0.90046 0.64396 0.0
H1765 H 0.36414 0.89545 0.5687 0.0
H1766 H 0.3279 0.81167 0.58699 0.0
C1767 C 0.31418 0.82186 0.75427 0.0
C1768 C 0.32055 0.84054 0.78666 0.0
C1769 C 0.33189 0.86734 0.77585 0.0
C1770 C 0.33712 0.87535 0.73314 0.0
C1771 C 0.33081 0.85628 0.70195 0.0
C1772 C 0.31961 0.83008 0.71232 0.0
C1773 C 0.31652 0.81339 0.67416 0.0
C1774 C 0.33224 0.79916 0.67949 0.0
C1775 C 0.28744 0.79396 0.6652 0.0
C1776 C 0.32824 0.83426 0.64049 0.0
C1777 C 0.33604 0.85889 0.6566 0.0
C1778 C 0.34849 0.88121 0.63106 0.0
C1779 C 0.3536 0.87822 0.5884 0.0
C1780 C 0.34663 0.85318 0.57235 0.0
C1781 C 0.33334 0.83103 0.59854 0.0
H1782 H 0.20259 0.54246 0.54088 0.0
H1783 H 0.12431 0.47724 0.51957 0.0
H1784 H 0.12197 0.4641 0.59503 0.0
H1785 H 0.22352 0.50848 0.61554 0.0
H1786 H 0.24247 0.53772 0.64649 0.0
H1787 H 0.23824 0.54016 0.59044 0.0
H1788 H 0.21972 0.57096 0.60578 0.0
H1789 H 0.22357 0.56837 0.66181 0.0
H1790 H 0.19194 0.56009 0.64066 0.0
H1791 H 0.12701 0.46165 0.6756 0.0
H1792 H 0.14038 0.46744 0.75119 0.0
H1793 H 0.21605 0.53327 0.71696 0.0
C1794 C 0.18512 0.52511 0.5519 0.0
C1795 C 0.16362 0.51081 0.52461 0.0
C1796 C 0.14108 0.48826 0.54002 0.0
C1797 C 0.13956 0.48079 0.58282 0.0
C1798 C 0.16095 0.49583 0.60928 0.0
C1799 C 0.18348 0.51724 0.59404 0.0
C1800 C 0.20357 0.53067 0.62868 0.0
C1801 C 0.22841 0.52915 0.61975 0.0
C1802 C 0.21006 0.5592 0.63457 0.0
C1803 C 0.18867 0.51394 0.66625 0.0
C1804 C 0.16409 0.49395 0.65467 0.0
C1805 C 0.14635 0.477 0.68479 0.0
C1806 C 0.15404 0.48051 0.72763 0.0
C1807 C 0.17929 0.5007 0.7398 0.0
C1808 C 0.19675 0.51745 0.70855 0.0
loop_
_geom_bond_atom_site_label_1
_geom_bond_atom_site_label_2
_geom_bond_distance
_geom_bond_site_symmetry_2
_ccdc_geom_bond_type
Co0 N4 2.148 . S
Co0 N10 2.128 1_545 S
Co0 N20 2.194 1_545 S
Co0 O25 2.351 1_545 S
Co0 O26 2.155 1_545 S
Co0 O27 2.096 . S
C1 N4 1.301 . S
C1 N5 1.328 . S
C1 H6 0.930 . S
C2 C3 1.333 . S
C2 N4 1.317 . S
C2 H7 0.930 . S
C3 C2 1.333 . S
C3 N5 1.350 . S
C3 H29 0.931 . S
N4 Co0 2.148 . S
N4 C1 1.301 . S
N4 C2 1.317 . S
N5 C1 1.328 . S
N5 C3 1.350 . S
H6 C1 0.930 . S
H7 C2 0.930 . S
C8 O9 1.224 . S
C8 O27 1.247 . S
O9 C8 1.224 . S
N10 Co0 2.128 1_565 S
N10 C11 1.355 . S
N10 C13 1.311 . S
C11 N10 1.355 . S
C11 C12 1.363 . S
C11 H23 0.929 . S
C12 C11 1.363 . S
C12 N14 1.375 . S
C12 H30 0.931 . S
C13 N10 1.311 . S
C13 N14 1.347 . S
C13 H24 0.929 . S
N14 C12 1.375 . S
N14 C13 1.347 . S
C15 C18 1.365 . S
C15 N20 1.328 . S
C15 H21 0.929 . S
C16 C17 1.362 . S
C16 C19 1.378 1_565 S
C16 H31 0.927 1_565 S
C17 C16 1.362 . S
C17 C18 1.366 . S
C18 C15 1.365 . S
C18 C17 1.366 . S
C18 H32 0.930 . S
C19 C16 1.378 1_545 S
C19 N20 1.315 1_545 S
C19 H22 0.930 . S
N20 Co0 2.194 1_565 S
N20 C15 1.328 . S
N20 C19 1.315 1_565 S
H21 C15 0.929 . S
H22 C19 0.930 . S
H23 C11 0.929 . S
H24 C13 0.929 . S
O25 Co0 2.351 1_565 S
O25 C28 1.244 . S
O26 Co0 2.155 1_565 S
O26 C28 1.240 . S
O27 Co0 2.096 . S
O27 C8 1.247 . S
C28 O25 1.244 . S
C28 O26 1.240 . S
H29 C3 0.931 . S
H30 C12 0.931 . S
H31 C16 0.927 1_545 S
H32 C18 0.930 . S
Co33 N37 2.148 . S
Co33 N43 2.128 1_655 S
Co33 N53 2.194 1_655 S
Co33 O58 2.351 1_655 S
Co33 O59 2.155 1_655 S
Co33 O60 2.096 . S
C34 N37 1.301 . S
C34 N38 1.328 . S
C34 H39 0.930 . S
C35 C36 1.333 . S
C35 N37 1.317 . S
C35 H40 0.930 . S
C36 C35 1.333 . S
C36 N38 1.350 . S
C36 H62 0.931 . S
N37 Co33 2.148 . S
N37 C34 1.301 . S
N37 C35 1.317 . S
N38 C34 1.328 . S
N38 C36 1.350 . S
H39 C34 0.930 . S
H40 C35 0.930 . S
C41 O42 1.224 . S
C41 O60 1.247 . S
O42 C41 1.224 . S
N43 Co33 2.128 1_455 S
N43 C44 1.355 . S
N43 C46 1.311 . S
C44 N43 1.355 . S
C44 C45 1.363 . S
C44 H56 0.929 . S
C45 C44 1.363 . S
C45 N47 1.375 . S
C45 H63 0.931 . S
C46 N43 1.311 . S
C46 N47 1.347 . S
C46 H57 0.929 . S
N47 C45 1.375 . S
N47 C46 1.347 . S
C48 C51 1.365 . S
C48 N53 1.328 . S
C48 H54 0.929 . S
C49 C50 1.362 . S
C49 C52 1.375 1_455 S
C49 H64 0.931 . S
C50 C49 1.362 . S
C50 C51 1.366 . S
C51 C48 1.365 . S
C51 C50 1.366 . S
C51 H65 0.930 . S
C52 C49 1.375 1_655 S
C52 N53 1.314 1_655 S
C52 H55 0.935 . S
N53 Co33 2.194 1_455 S
N53 C48 1.328 . S
N53 C52 1.314 1_455 S
H54 C48 0.929 . S
H55 C52 0.935 . S
H56 C44 0.929 . S
H57 C46 0.929 . S
O58 Co33 2.351 1_455 S
O58 C61 1.244 . S
O59 Co33 2.155 1_455 S
O59 C61 1.240 . S
O60 Co33 2.096 . S
O60 C41 1.247 . S
C61 O58 1.244 . S
C61 O59 1.240 . S
H62 C36 0.931 . S
H63 C45 0.931 . S
H64 C49 0.931 . S
H65 C51 0.930 . S
Co66 N70 2.148 . S
Co66 N76 2.128 . S
Co66 N86 2.194 . S
Co66 O91 2.351 . S
Co66 O92 2.155 . S
Co66 O93 2.096 . S
C67 N70 1.301 . S
C67 N71 1.328 . S
C67 H72 0.930 . S
C68 C69 1.333 . S
C68 N70 1.317 . S
C68 H73 0.930 . S
C69 C68 1.333 . S
C69 N71 1.350 . S
C69 H95 0.931 . S
N70 Co66 2.148 . S
N70 C67 1.301 . S
N70 C68 1.317 . S
N71 C67 1.328 . S
N71 C69 1.350 . S
H72 C67 0.930 . S
H73 C68 0.930 . S
C74 O75 1.224 . S
C74 O93 1.247 . S
O75 C74 1.224 . S
N76 Co66 2.128 . S
N76 C77 1.355 . S
N76 C79 1.311 . S
C77 N76 1.355 . S
C77 C78 1.363 . S
C77 H89 0.929 . S
C78 C77 1.363 . S
C78 N80 1.375 . S
C78 H96 0.931 . S
C79 N76 1.311 . S
C79 N80 1.347 . S
C79 H90 0.929 . S
N80 C78 1.375 . S
N80 C79 1.347 . S
C81 C84 1.365 . S
C81 N86 1.328 . S
C81 H87 0.929 . S
C82 C83 1.362 . S
C82 C85 1.378 . S
C82 H97 0.929 . S
C83 C82 1.362 . S
C83 C84 1.366 . S
C84 C81 1.365 . S
C84 C83 1.366 . S
C84 H98 0.930 . S
C85 C82 1.378 . S
C85 N86 1.315 . S
C85 H88 0.930 . S
N86 Co66 2.194 . S
N86 C81 1.328 . S
N86 C85 1.315 . S
H87 C81 0.929 . S
H88 C85 0.930 . S
H89 C77 0.929 . S
H90 C79 0.929 . S
O91 Co66 2.351 . S
O91 C94 1.244 . S
O92 Co66 2.155 . S
O92 C94 1.240 . S
O93 Co66 2.096 . S
O93 C74 1.247 . S
C94 O91 1.244 . S
C94 O92 1.240 . S
H95 C69 0.931 . S
H96 C78 0.931 . S
H97 C82 0.929 . S
H98 C84 0.930 . S
Co99 N103 2.148 . S
Co99 N109 2.128 1_455 S
Co99 N119 2.194 1_455 S
Co99 O124 2.351 1_455 S
Co99 O125 2.155 1_455 S
Co99 O126 2.096 . S
C100 N103 1.301 . S
C100 N104 1.328 . S
C100 H105 0.930 . S
C101 C102 1.333 . S
C101 N103 1.317 . S
C101 H106 0.930 . S
C102 C101 1.333 . S
C102 N104 1.350 . S
C102 H128 0.931 . S
N103 Co99 2.148 . S
N103 C100 1.301 . S
N103 C101 1.317 . S
N104 C100 1.328 . S
N104 C102 1.350 . S
H105 C100 0.930 . S
H106 C101 0.930 . S
C107 O108 1.224 . S
C107 O126 1.247 . S
O108 C107 1.224 . S
N109 Co99 2.128 1_655 S
N109 C110 1.355 . S
N109 C112 1.311 . S
C110 N109 1.355 . S
C110 C111 1.363 . S
C110 H122 0.929 . S
C111 C110 1.363 . S
C111 N113 1.375 . S
C111 H129 0.931 . S
C112 N109 1.311 . S
C112 N113 1.347 . S
C112 H123 0.929 . S
N113 C111 1.375 . S
N113 C112 1.347 . S
C114 C117 1.365 . S
C114 N119 1.328 . S
C114 H120 0.929 . S
C115 C116 1.362 . S
C115 C118 1.378 1_655 S
C115 H130 0.927 1_655 S
C116 C115 1.362 . S
C116 C117 1.366 . S
C117 C114 1.365 . S
C117 C116 1.366 . S
C117 H131 0.930 . S
C118 C115 1.378 1_455 S
C118 N119 1.315 1_455 S
C118 H121 0.930 . S
N119 Co99 2.194 1_655 S
N119 C114 1.328 . S
N119 C118 1.315 1_655 S
H120 C114 0.929 . S
H121 C118 0.930 . S
H122 C110 0.929 . S
H123 C112 0.929 . S
O124 Co99 2.351 1_655 S
O124 C127 1.244 . S
O125 Co99 2.155 1_655 S
O125 C127 1.240 . S
O126 Co99 2.096 . S
O126 C107 1.247 . S
C127 O124 1.244 . S
C127 O125 1.240 . S
H128 C102 0.931 . S
H129 C111 0.931 . S
H130 C115 0.927 1_455 S
H131 C117 0.930 . S
Co132 N136 2.148 . S
Co132 N142 2.128 . S
Co132 N152 2.194 . S
Co132 O157 2.351 . S
Co132 O158 2.155 . S
Co132 O159 2.096 . S
C133 N136 1.301 . S
C133 N137 1.328 . S
C133 H138 0.930 . S
C134 C135 1.333 . S
C134 N136 1.317 . S
C134 H139 0.930 . S
C135 C134 1.333 . S
C135 N137 1.350 . S
C135 H161 0.931 . S
N136 Co132 2.148 . S
N136 C133 1.301 . S
N136 C134 1.317 . S
N137 C133 1.328 . S
N137 C135 1.350 . S
H138 C133 0.930 . S
H139 C134 0.930 . S
C140 O141 1.224 . S
C140 O159 1.247 . S
O141 C140 1.224 . S
N142 Co132 2.128 . S
N142 C143 1.355 . S
N142 C145 1.311 . S
C143 N142 1.355 . S
C143 C144 1.363 . S
C143 H155 0.929 . S
C144 C143 1.363 . S
C144 N146 1.375 . S
C144 H162 0.931 . S
C145 N142 1.311 . S
C145 N146 1.347 . S
C145 H156 0.929 . S
N146 C144 1.375 . S
N146 C145 1.347 . S
C147 C150 1.365 . S
C147 N152 1.328 . S
C147 H153 0.929 . S
C148 C149 1.362 . S
C148 C151 1.378 . S
C148 H163 0.929 . S
C149 C148 1.362 . S
C149 C150 1.366 . S
C150 C147 1.365 . S
C150 C149 1.366 . S
C150 H164 0.930 . S
C151 C148 1.378 . S
C151 N152 1.315 . S
C151 H154 0.930 . S
N152 Co132 2.194 . S
N152 C147 1.328 . S
N152 C151 1.315 . S
H153 C147 0.929 . S
H154 C151 0.930 . S
H155 C143 0.929 . S
H156 C145 0.929 . S
O157 Co132 2.351 . S
O157 C160 1.244 . S
O158 Co132 2.155 . S
O158 C160 1.240 . S
O159 Co132 2.096 . S
O159 C140 1.247 . S
C160 O157 1.244 . S
C160 O158 1.240 . S
H161 C135 0.931 . S
H162 C144 0.931 . S
H163 C148 0.929 . S
H164 C150 0.930 . S
Co165 N169 2.148 . S
Co165 N175 2.128 1_565 S
Co165 N185 2.194 1_565 S
Co165 O190 2.351 1_565 S
Co165 O191 2.155 1_565 S
Co165 O192 2.096 . S
C166 N169 1.301 . S
C166 N170 1.328 . S
C166 H171 0.930 . S
C167 C168 1.333 . S
C167 N169 1.317 . S
C167 H172 0.930 . S
C168 C167 1.333 . S
C168 N170 1.350 . S
C168 H194 0.931 . S
N169 Co165 2.148 . S
N169 C166 1.301 . S
N169 C167 1.317 . S
N170 C166 1.328 . S
N170 C168 1.350 . S
H171 C166 0.930 . S
H172 C167 0.930 . S
C173 O174 1.224 . S
C173 O192 1.247 . S
O174 C173 1.224 . S
N175 Co165 2.128 1_545 S
N175 C176 1.355 . S
N175 C178 1.311 . S
C176 N175 1.355 . S
C176 C177 1.363 . S
C176 H188 0.929 . S
C177 C176 1.363 . S
C177 N179 1.375 . S
C177 H195 0.931 . S
C178 N175 1.311 . S
C178 N179 1.347 . S
C178 H189 0.929 . S
N179 C177 1.375 . S
N179 C178 1.347 . S
C180 C183 1.365 . S
C180 N185 1.328 . S
C180 H186 0.929 . S
C181 C182 1.362 . S
C181 C184 1.375 1_545 S
C181 H196 0.931 . S
C182 C181 1.362 . S
C182 C183 1.366 . S
C183 C180 1.365 . S
C183 C182 1.366 . S
C183 H197 0.930 . S
C184 C181 1.375 1_565 S
C184 N185 1.314 1_565 S
C184 H187 0.935 . S
N185 Co165 2.194 1_545 S
N185 C180 1.328 . S
N185 C184 1.314 1_545 S
H186 C180 0.929 . S
H187 C184 0.935 . S
H188 C176 0.929 . S
H189 C178 0.929 . S
O190 Co165 2.351 1_545 S
O190 C193 1.244 . S
O191 Co165 2.155 1_545 S
O191 C193 1.240 . S
O192 Co165 2.096 . S
O192 C173 1.247 . S
C193 O190 1.244 . S
C193 O191 1.240 . S
H194 C168 0.931 . S
H195 C177 0.931 . S
H196 C181 0.931 . S
H197 C183 0.930 . S
Co198 N202 2.148 . S
Co198 N208 2.128 . S
Co198 N218 2.194 . S
Co198 O223 2.351 . S
Co198 O224 2.155 . S
Co198 O225 2.096 . S
C199 N202 1.301 . S
C199 N203 1.328 . S
C199 H204 0.930 . S
C200 C201 1.333 . S
C200 N202 1.317 . S
C200 H205 0.930 . S
C201 C200 1.333 . S
C201 N203 1.350 . S
C201 H227 0.931 . S
N202 Co198 2.148 . S
N202 C199 1.301 . S
N202 C200 1.317 . S
N203 C199 1.328 . S
N203 C201 1.350 . S
H204 C199 0.930 . S
H205 C200 0.930 . S
C206 O207 1.224 . S
C206 O225 1.247 . S
O207 C206 1.224 . S
N208 Co198 2.128 . S
N208 C209 1.355 . S
N208 C211 1.311 . S
C209 N208 1.355 . S
C209 C210 1.363 . S
C209 H221 0.929 . S
C210 C209 1.363 . S
C210 N212 1.375 . S
C210 H228 0.931 . S
C211 N208 1.311 . S
C211 N212 1.347 . S
C211 H222 0.929 . S
N212 C210 1.375 . S
N212 C211 1.347 . S
C213 C216 1.365 . S
C213 N218 1.328 . S
C213 H219 0.929 . S
C214 C215 1.362 . S
C214 C217 1.378 . S
C214 H229 0.929 . S
C215 C214 1.362 . S
C215 C216 1.366 . S
C216 C213 1.365 . S
C216 C215 1.366 . S
C216 H230 0.930 . S
C217 C214 1.378 . S
C217 N218 1.315 . S
C217 H220 0.930 . S
N218 Co198 2.194 . S
N218 C213 1.328 . S
N218 C217 1.315 . S
H219 C213 0.929 . S
H220 C217 0.930 . S
H221 C209 0.929 . S
H222 C211 0.929 . S
O223 Co198 2.351 . S
O223 C226 1.244 . S
O224 Co198 2.155 . S
O224 C226 1.240 . S
O225 Co198 2.096 . S
O225 C206 1.247 . S
C226 O223 1.244 . S
C226 O224 1.240 . S
H227 C201 0.931 . S
H228 C210 0.931 . S
H229 C214 0.929 . S
H230 C216 0.930 . S
Co231 N235 2.148 . S
Co231 N241 2.128 . S
Co231 N251 2.194 . S
Co231 O256 2.351 . S
Co231 O257 2.155 . S
Co231 O258 2.096 . S
C232 N235 1.301 . S
C232 N236 1.328 . S
C232 H237 0.930 . S
C233 C234 1.333 . S
C233 N235 1.317 . S
C233 H238 0.930 . S
C234 C233 1.333 . S
C234 N236 1.350 . S
C234 H260 0.931 . S
N235 Co231 2.148 . S
N235 C232 1.301 . S
N235 C233 1.317 . S
N236 C232 1.328 . S
N236 C234 1.350 . S
H237 C232 0.930 . S
H238 C233 0.930 . S
C239 O240 1.224 . S
C239 O258 1.247 . S
O240 C239 1.224 . S
N241 Co231 2.128 . S
N241 C242 1.355 . S
N241 C244 1.311 . S
C242 N241 1.355 . S
C242 C243 1.363 . S
C242 H254 0.929 . S
C243 C242 1.363 . S
C243 N245 1.375 . S
C243 H261 0.931 . S
C244 N241 1.311 . S
C244 N245 1.347 . S
C244 H255 0.929 . S
N245 C243 1.375 . S
N245 C244 1.347 . S
C246 C249 1.365 . S
C246 N251 1.328 . S
C246 H252 0.929 . S
C247 C248 1.362 . S
C247 C250 1.378 . S
C247 H262 0.929 . S
C248 C247 1.362 . S
C248 C249 1.366 . S
C249 C246 1.365 . S
C249 C248 1.366 . S
C249 H263 0.930 . S
C250 C247 1.378 . S
C250 N251 1.315 . S
C250 H253 0.930 . S
N251 Co231 2.194 . S
N251 C246 1.328 . S
N251 C250 1.315 . S
H252 C246 0.929 . S
H253 C250 0.930 . S
H254 C242 0.929 . S
H255 C244 0.929 . S
O256 Co231 2.351 . S
O256 C259 1.244 . S
O257 Co231 2.155 . S
O257 C259 1.240 . S
O258 Co231 2.096 . S
O258 C239 1.247 . S
C259 O256 1.244 . S
C259 O257 1.240 . S
H260 C234 0.931 . S
H261 C243 0.931 . S
H262 C247 0.929 . S
H263 C249 0.930 . S
Co264 N268 2.148 . S
Co264 N274 2.128 . S
Co264 N284 2.194 . S
Co264 O289 2.351 . S
Co264 O290 2.155 . S
Co264 O291 2.096 . S
C265 N268 1.301 . S
C265 N269 1.328 . S
C265 H270 0.930 . S
C266 C267 1.333 . S
C266 N268 1.317 . S
C266 H271 0.930 . S
C267 C266 1.333 . S
C267 N269 1.350 . S
C267 H293 0.931 . S
N268 Co264 2.148 . S
N268 C265 1.301 . S
N268 C266 1.317 . S
N269 C265 1.328 . S
N269 C267 1.350 . S
H270 C265 0.930 . S
H271 C266 0.930 . S
C272 O273 1.224 . S
C272 O291 1.247 . S
O273 C272 1.224 . S
N274 Co264 2.128 . S
N274 C275 1.355 . S
N274 C277 1.311 . S
C275 N274 1.355 . S
C275 C276 1.363 . S
C275 H287 0.929 . S
C276 C275 1.363 . S
C276 N278 1.375 . S
C276 H294 0.931 . S
C277 N274 1.311 . S
C277 N278 1.347 . S
C277 H288 0.929 . S
N278 C276 1.375 . S
N278 C277 1.347 . S
C279 C282 1.365 . S
C279 N284 1.328 . S
C279 H285 0.929 . S
C280 C281 1.362 . S
C280 C283 1.378 . S
C280 H295 0.929 . S
C281 C280 1.362 . S
C281 C282 1.366 . S
C282 C279 1.365 . S
C282 C281 1.366 . S
C282 H296 0.930 . S
C283 C280 1.378 . S
C283 N284 1.315 . S
C283 H286 0.930 . S
N284 Co264 2.194 . S
N284 C279 1.328 . S
N284 C283 1.315 . S
H285 C279 0.929 . S
H286 C283 0.930 . S
H287 C275 0.929 . S
H288 C277 0.929 . S
O289 Co264 2.351 . S
O289 C292 1.244 . S
O290 Co264 2.155 . S
O290 C292 1.240 . S
O291 Co264 2.096 . S
O291 C272 1.247 . S
C292 O289 1.244 . S
C292 O290 1.240 . S
H293 C267 0.931 . S
H294 C276 0.931 . S
H295 C280 0.929 . S
H296 C282 0.930 . S
Co297 N301 2.148 . S
Co297 N307 2.128 . S
Co297 N317 2.194 . S
Co297 O322 2.351 . S
Co297 O323 2.155 . S
Co297 O324 2.096 . S
C298 N301 1.301 . S
C298 N302 1.328 . S
C298 H303 0.930 . S
C299 C300 1.333 . S
C299 N301 1.317 . S
C299 H304 0.930 . S
C300 C299 1.333 . S
C300 N302 1.350 . S
C300 H326 0.931 . S
N301 Co297 2.148 . S
N301 C298 1.301 . S
N301 C299 1.317 . S
N302 C298 1.328 . S
N302 C300 1.350 . S
H303 C298 0.930 . S
H304 C299 0.930 . S
C305 O306 1.224 . S
C305 O324 1.247 . S
O306 C305 1.224 . S
N307 Co297 2.128 . S
N307 C308 1.355 . S
N307 C310 1.311 . S
C308 N307 1.355 . S
C308 C309 1.363 . S
C308 H320 0.929 . S
C309 C308 1.363 . S
C309 N311 1.375 . S
C309 H327 0.931 . S
C310 N307 1.311 . S
C310 N311 1.347 . S
C310 H321 0.929 . S
N311 C309 1.375 . S
N311 C310 1.347 . S
C312 C315 1.365 . S
C312 N317 1.328 . S
C312 H318 0.929 . S
C313 C314 1.362 . S
C313 C316 1.378 1_556 S
C313 H328 0.929 . S
C314 C313 1.362 . S
C314 C315 1.366 1_556 S
C315 C312 1.365 . S
C315 C314 1.366 1_554 S
C315 H329 0.930 . S
C316 C313 1.378 1_554 S
C316 N317 1.315 . S
C316 H319 0.930 . S
N317 Co297 2.194 . S
N317 C312 1.328 . S
N317 C316 1.315 . S
H318 C312 0.929 . S
H319 C316 0.930 . S
H320 C308 0.929 . S
H321 C310 0.929 . S
O322 Co297 2.351 . S
O322 C325 1.244 . S
O323 Co297 2.155 . S
O323 C325 1.240 . S
O324 Co297 2.096 . S
O324 C305 1.247 . S
C325 O322 1.244 . S
C325 O323 1.240 . S
H326 C300 0.931 . S
H327 C309 0.931 . S
H328 C313 0.929 . S
H329 C315 0.930 . S
Co330 N334 2.148 . S
Co330 N340 2.128 . S
Co330 N350 2.194 . S
Co330 O355 2.351 . S
Co330 O356 2.155 . S
Co330 O357 2.096 . S
C331 N334 1.301 . S
C331 N335 1.328 . S
C331 H336 0.930 . S
C332 C333 1.333 . S
C332 N334 1.317 . S
C332 H337 0.930 . S
C333 C332 1.333 . S
C333 N335 1.350 . S
C333 H359 0.931 . S
N334 Co330 2.148 . S
N334 C331 1.301 . S
N334 C332 1.317 . S
N335 C331 1.328 . S
N335 C333 1.350 . S
H336 C331 0.930 . S
H337 C332 0.930 . S
C338 O339 1.224 . S
C338 O357 1.247 . S
O339 C338 1.224 . S
N340 Co330 2.128 . S
N340 C341 1.355 . S
N340 C343 1.311 . S
C341 N340 1.355 . S
C341 C342 1.363 . S
C341 H353 0.929 . S
C342 C341 1.363 . S
C342 N344 1.375 . S
C342 H360 0.931 . S
C343 N340 1.311 . S
C343 N344 1.347 . S
C343 H354 0.929 . S
N344 C342 1.375 . S
N344 C343 1.347 . S
C345 C348 1.365 . S
C345 N350 1.328 . S
C345 H351 0.929 . S
C346 C347 1.362 . S
C346 C349 1.378 1_556 S
C346 H361 0.929 . S
C347 C346 1.362 . S
C347 C348 1.366 1_556 S
C348 C345 1.365 . S
C348 C347 1.366 1_554 S
C348 H362 0.930 . S
C349 C346 1.378 1_554 S
C349 N350 1.315 . S
C349 H352 0.930 . S
N350 Co330 2.194 . S
N350 C345 1.328 . S
N350 C349 1.315 . S
H351 C345 0.929 . S
H352 C349 0.930 . S
H353 C341 0.929 . S
H354 C343 0.929 . S
O355 Co330 2.351 . S
O355 C358 1.244 . S
O356 Co330 2.155 . S
O356 C358 1.240 . S
O357 Co330 2.096 . S
O357 C338 1.247 . S
C358 O355 1.244 . S
C358 O356 1.240 . S
H359 C333 0.931 . S
H360 C342 0.931 . S
H361 C346 0.929 . S
H362 C348 0.930 . S
Co363 N367 2.148 . S
Co363 N373 2.128 . S
Co363 N383 2.194 . S
Co363 O388 2.351 . S
Co363 O389 2.155 . S
Co363 O390 2.096 . S
C364 N367 1.301 . S
C364 N368 1.328 . S
C364 H369 0.930 . S
C365 C366 1.333 . S
C365 N367 1.317 . S
C365 H370 0.930 . S
C366 C365 1.333 . S
C366 N368 1.350 . S
C366 H392 0.931 . S
N367 Co363 2.148 . S
N367 C364 1.301 . S
N367 C365 1.317 . S
N368 C364 1.328 . S
N368 C366 1.350 . S
H369 C364 0.930 . S
H370 C365 0.930 . S
C371 O372 1.224 . S
C371 O390 1.247 . S
O372 C371 1.224 . S
N373 Co363 2.128 . S
N373 C374 1.355 . S
N373 C376 1.311 . S
C374 N373 1.355 . S
C374 C375 1.363 . S
C374 H386 0.929 . S
C375 C374 1.363 . S
C375 N377 1.375 . S
C375 H393 0.931 . S
C376 N373 1.311 . S
C376 N377 1.347 . S
C376 H387 0.929 . S
N377 C375 1.375 . S
N377 C376 1.347 . S
C378 C381 1.365 . S
C378 N383 1.328 . S
C378 H384 0.929 . S
C379 C380 1.362 . S
C379 C382 1.378 1_556 S
C379 H394 0.929 . S
C380 C379 1.362 . S
C380 C381 1.366 1_556 S
C381 C378 1.365 . S
C381 C380 1.366 1_554 S
C381 H395 0.930 . S
C382 C379 1.378 1_554 S
C382 N383 1.315 . S
C382 H385 0.930 . S
N383 Co363 2.194 . S
N383 C378 1.328 . S
N383 C382 1.315 . S
H384 C378 0.929 . S
H385 C382 0.930 . S
H386 C374 0.929 . S
H387 C376 0.929 . S
O388 Co363 2.351 . S
O388 C391 1.244 . S
O389 Co363 2.155 . S
O389 C391 1.240 . S
O390 Co363 2.096 . S
O390 C371 1.247 . S
C391 O388 1.244 . S
C391 O389 1.240 . S
H392 C366 0.931 . S
H393 C375 0.931 . S
H394 C379 0.929 . S
H395 C381 0.930 . S
Co396 N400 2.148 . S
Co396 N406 2.128 . S
Co396 N416 2.194 . S
Co396 O421 2.351 . S
Co396 O422 2.155 . S
Co396 O423 2.096 . S
C397 N400 1.301 . S
C397 N401 1.328 . S
C397 H402 0.930 . S
C398 C399 1.333 . S
C398 N400 1.317 . S
C398 H403 0.930 . S
C399 C398 1.333 . S
C399 N401 1.350 . S
C399 H425 0.931 . S
N400 Co396 2.148 . S
N400 C397 1.301 . S
N400 C398 1.317 . S
N401 C397 1.328 . S
N401 C399 1.350 . S
H402 C397 0.930 . S
H403 C398 0.930 . S
C404 O405 1.224 . S
C404 O423 1.247 . S
O405 C404 1.224 . S
N406 Co396 2.128 . S
N406 C407 1.355 . S
N406 C409 1.311 . S
C407 N406 1.355 . S
C407 C408 1.363 . S
C407 H419 0.929 . S
C408 C407 1.363 . S
C408 N410 1.375 . S
C408 H426 0.931 . S
C409 N406 1.311 . S
C409 N410 1.347 . S
C409 H420 0.929 . S
N410 C408 1.375 . S
N410 C409 1.347 . S
C411 C414 1.365 . S
C411 N416 1.328 . S
C411 H417 0.929 . S
C412 C413 1.362 . S
C412 C415 1.378 1_554 S
C412 H427 0.929 . S
C413 C412 1.362 . S
C413 C414 1.366 1_554 S
C414 C411 1.365 . S
C414 C413 1.366 1_556 S
C414 H428 0.930 . S
C415 C412 1.378 1_556 S
C415 N416 1.315 . S
C415 H418 0.930 . S
N416 Co396 2.194 . S
N416 C411 1.328 . S
N416 C415 1.315 . S
H417 C411 0.929 . S
H418 C415 0.930 . S
H419 C407 0.929 . S
H420 C409 0.929 . S
O421 Co396 2.351 . S
O421 C424 1.244 . S
O422 Co396 2.155 . S
O422 C424 1.240 . S
O423 Co396 2.096 . S
O423 C404 1.247 . S
C424 O421 1.244 . S
C424 O422 1.240 . S
H425 C399 0.931 . S
H426 C408 0.931 . S
H427 C412 0.929 . S
H428 C414 0.930 . S
Co429 N433 2.148 . S
Co429 N439 2.128 . S
Co429 N449 2.194 . S
Co429 O454 2.351 . S
Co429 O455 2.155 . S
Co429 O456 2.096 . S
C430 N433 1.301 . S
C430 N434 1.328 . S
C430 H435 0.930 . S
C431 C432 1.333 . S
C431 N433 1.317 . S
C431 H436 0.930 . S
C432 C431 1.333 . S
C432 N434 1.350 . S
C432 H458 0.931 . S
N433 Co429 2.148 . S
N433 C430 1.301 . S
N433 C431 1.317 . S
N434 C430 1.328 . S
N434 C432 1.350 . S
H435 C430 0.930 . S
H436 C431 0.930 . S
C437 O438 1.224 . S
C437 O456 1.247 . S
O438 C437 1.224 . S
N439 Co429 2.128 . S
N439 C440 1.355 . S
N439 C442 1.311 . S
C440 N439 1.355 . S
C440 C441 1.363 . S
C440 H452 0.929 . S
C441 C440 1.363 . S
C441 N443 1.375 . S
C441 H459 0.931 . S
C442 N439 1.311 . S
C442 N443 1.347 . S
C442 H453 0.929 . S
N443 C441 1.375 . S
N443 C442 1.347 . S
C444 C447 1.365 . S
C444 N449 1.328 . S
C444 H450 0.929 . S
C445 C446 1.362 . S
C445 C448 1.378 1_554 S
C445 H460 0.929 . S
C446 C445 1.362 . S
C446 C447 1.366 1_554 S
C447 C444 1.365 . S
C447 C446 1.366 1_556 S
C447 H461 0.930 . S
C448 C445 1.378 1_556 S
C448 N449 1.315 . S
C448 H451 0.930 . S
N449 Co429 2.194 . S
N449 C444 1.328 . S
N449 C448 1.315 . S
H450 C444 0.929 . S
H451 C448 0.930 . S
H452 C440 0.929 . S
H453 C442 0.929 . S
O454 Co429 2.351 . S
O454 C457 1.244 . S
O455 Co429 2.155 . S
O455 C457 1.240 . S
O456 Co429 2.096 . S
O456 C437 1.247 . S
C457 O454 1.244 . S
C457 O455 1.240 . S
H458 C432 0.931 . S
H459 C441 0.931 . S
H460 C445 0.929 . S
H461 C447 0.930 . S
Co462 N466 2.148 . S
Co462 N472 2.128 . S
Co462 N482 2.194 . S
Co462 O487 2.351 . S
Co462 O488 2.155 . S
Co462 O489 2.096 . S
C463 N466 1.301 . S
C463 N467 1.328 . S
C463 H468 0.930 . S
C464 C465 1.333 . S
C464 N466 1.317 . S
C464 H469 0.930 . S
C465 C464 1.333 . S
C465 N467 1.350 . S
C465 H491 0.931 . S
N466 Co462 2.148 . S
N466 C463 1.301 . S
N466 C464 1.317 . S
N467 C463 1.328 . S
N467 C465 1.350 . S
H468 C463 0.930 . S
H469 C464 0.930 . S
C470 O471 1.224 . S
C470 O489 1.247 . S
O471 C470 1.224 . S
N472 Co462 2.128 . S
N472 C473 1.355 . S
N472 C475 1.311 . S
C473 N472 1.355 . S
C473 C474 1.363 . S
C473 H485 0.929 . S
C474 C473 1.363 . S
C474 N476 1.375 . S
C474 H492 0.931 . S
C475 N472 1.311 . S
C475 N476 1.347 . S
C475 H486 0.929 . S
N476 C474 1.375 . S
N476 C475 1.347 . S
C477 C480 1.365 . S
C477 N482 1.328 . S
C477 H483 0.929 . S
C478 C479 1.362 . S
C478 C481 1.378 1_554 S
C478 H493 0.929 . S
C479 C478 1.362 . S
C479 C480 1.366 1_554 S
C480 C477 1.365 . S
C480 C479 1.366 1_556 S
C480 H494 0.930 . S
C481 C478 1.378 1_556 S
C481 N482 1.315 . S
C481 H484 0.930 . S
N482 Co462 2.194 . S
N482 C477 1.328 . S
N482 C481 1.315 . S
H483 C477 0.929 . S
H484 C481 0.930 . S
H485 C473 0.929 . S
H486 C475 0.929 . S
O487 Co462 2.351 . S
O487 C490 1.244 . S
O488 Co462 2.155 . S
O488 C490 1.240 . S
O489 Co462 2.096 . S
O489 C470 1.247 . S
C490 O487 1.244 . S
C490 O488 1.240 . S
H491 C465 0.931 . S
H492 C474 0.931 . S
H493 C478 0.929 . S
H494 C480 0.930 . S
Co495 N499 2.148 . S
Co495 N505 2.128 . S
Co495 N515 2.194 . S
Co495 O520 2.351 . S
Co495 O521 2.155 . S
Co495 O522 2.096 . S
C496 N499 1.301 . S
C496 N500 1.328 . S
C496 H501 0.930 . S
C497 C498 1.333 . S
C497 N499 1.317 . S
C497 H502 0.930 . S
C498 C497 1.333 . S
C498 N500 1.350 . S
C498 H524 0.931 . S
N499 Co495 2.148 . S
N499 C496 1.301 . S
N499 C497 1.317 . S
N500 C496 1.328 . S
N500 C498 1.350 . S
H501 C496 0.930 . S
H502 C497 0.930 . S
C503 O504 1.224 . S
C503 O522 1.247 . S
O504 C503 1.224 . S
N505 Co495 2.128 . S
N505 C506 1.355 . S
N505 C508 1.311 . S
C506 N505 1.355 . S
C506 C507 1.363 . S
C506 H518 0.929 . S
C507 C506 1.363 . S
C507 N509 1.375 . S
C507 H525 0.931 . S
C508 N505 1.311 . S
C508 N509 1.347 . S
C508 H519 0.929 . S
N509 C507 1.375 . S
N509 C508 1.347 . S
C510 C513 1.365 . S
C510 N515 1.328 . S
C510 H516 0.929 . S
C511 C512 1.362 . S
C511 C514 1.378 . S
C511 H526 0.929 . S
C512 C511 1.362 . S
C512 C513 1.366 . S
C513 C510 1.365 . S
C513 C512 1.366 . S
C513 H527 0.930 . S
C514 C511 1.378 . S
C514 N515 1.315 . S
C514 H517 0.930 . S
N515 Co495 2.194 . S
N515 C510 1.328 . S
N515 C514 1.315 . S
H516 C510 0.929 . S
H517 C514 0.930 . S
H518 C506 0.929 . S
H519 C508 0.929 . S
O520 Co495 2.351 . S
O520 C523 1.244 . S
O521 Co495 2.155 . S
O521 C523 1.240 . S
O522 Co495 2.096 . S
O522 C503 1.247 . S
C523 O520 1.244 . S
C523 O521 1.240 . S
H524 C498 0.931 . S
H525 C507 0.931 . S
H526 C511 0.929 . S
H527 C513 0.930 . S
Co528 N532 2.148 . S
Co528 N538 2.128 . S
Co528 N548 2.194 . S
Co528 O553 2.351 . S
Co528 O554 2.155 . S
Co528 O555 2.096 . S
C529 N532 1.301 . S
C529 N533 1.328 . S
C529 H534 0.930 . S
C530 C531 1.333 . S
C530 N532 1.317 . S
C530 H535 0.930 . S
C531 C530 1.333 . S
C531 N533 1.350 . S
C531 H557 0.931 . S
N532 Co528 2.148 . S
N532 C529 1.301 . S
N532 C530 1.317 . S
N533 C529 1.328 . S
N533 C531 1.350 . S
H534 C529 0.930 . S
H535 C530 0.930 . S
C536 O537 1.224 . S
C536 O555 1.247 . S
O537 C536 1.224 . S
N538 Co528 2.128 . S
N538 C539 1.355 . S
N538 C541 1.311 . S
C539 N538 1.355 . S
C539 C540 1.363 . S
C539 H551 0.929 . S
C540 C539 1.363 . S
C540 N542 1.375 . S
C540 H558 0.931 . S
C541 N538 1.311 . S
C541 N542 1.347 . S
C541 H552 0.929 . S
N542 C540 1.375 . S
N542 C541 1.347 . S
C543 C546 1.365 . S
C543 N548 1.328 . S
C543 H549 0.929 . S
C544 C545 1.362 . S
C544 C547 1.378 . S
C544 H559 0.929 . S
C545 C544 1.362 . S
C545 C546 1.366 . S
C546 C543 1.365 . S
C546 C545 1.366 . S
C546 H560 0.930 . S
C547 C544 1.378 . S
C547 N548 1.315 . S
C547 H550 0.930 . S
N548 Co528 2.194 . S
N548 C543 1.328 . S
N548 C547 1.315 . S
H549 C543 0.929 . S
H550 C547 0.930 . S
H551 C539 0.929 . S
H552 C541 0.929 . S
O553 Co528 2.351 . S
O553 C556 1.244 . S
O554 Co528 2.155 . S
O554 C556 1.240 . S
O555 Co528 2.096 . S
O555 C536 1.247 . S
C556 O553 1.244 . S
C556 O554 1.240 . S
H557 C531 0.931 . S
H558 C540 0.931 . S
H559 C544 0.929 . S
H560 C546 0.930 . S
Co561 N565 2.148 . S
Co561 N571 2.128 . S
Co561 N581 2.194 . S
Co561 O586 2.351 . S
Co561 O587 2.155 . S
Co561 O588 2.096 . S
C562 N565 1.301 . S
C562 N566 1.328 . S
C562 H567 0.930 . S
C563 C564 1.333 . S
C563 N565 1.317 . S
C563 H568 0.930 . S
C564 C563 1.333 . S
C564 N566 1.350 . S
C564 H590 0.931 . S
N565 Co561 2.148 . S
N565 C562 1.301 . S
N565 C563 1.317 . S
N566 C562 1.328 . S
N566 C564 1.350 . S
H567 C562 0.930 . S
H568 C563 0.930 . S
C569 O570 1.224 . S
C569 O588 1.247 . S
O570 C569 1.224 . S
N571 Co561 2.128 . S
N571 C572 1.355 . S
N571 C574 1.311 . S
C572 N571 1.355 . S
C572 C573 1.363 . S
C572 H584 0.929 . S
C573 C572 1.363 . S
C573 N575 1.375 . S
C573 H591 0.931 . S
C574 N571 1.311 . S
C574 N575 1.347 . S
C574 H585 0.929 . S
N575 C573 1.375 . S
N575 C574 1.347 . S
C576 C579 1.365 . S
C576 N581 1.328 . S
C576 H582 0.929 . S
C577 C578 1.362 . S
C577 C580 1.378 . S
C577 H592 0.929 . S
C578 C577 1.362 . S
C578 C579 1.366 . S
C579 C576 1.365 . S
C579 C578 1.366 . S
C579 H593 0.930 . S
C580 C577 1.378 . S
C580 N581 1.315 . S
C580 H583 0.930 . S
N581 Co561 2.194 . S
N581 C576 1.328 . S
N581 C580 1.315 . S
H582 C576 0.929 . S
H583 C580 0.930 . S
H584 C572 0.929 . S
H585 C574 0.929 . S
O586 Co561 2.351 . S
O586 C589 1.244 . S
O587 Co561 2.155 . S
O587 C589 1.240 . S
O588 Co561 2.096 . S
O588 C569 1.247 . S
C589 O586 1.244 . S
C589 O587 1.240 . S
H590 C564 0.931 . S
H591 C573 0.931 . S
H592 C577 0.929 . S
H593 C579 0.930 . S
H594 C606 0.930 . S
H595 C608 0.930 . S
H596 C609 0.930 . S
H597 C613 0.959 . S
H598 C613 0.959 . S
H599 C613 0.961 . S
H600 C614 0.960 . S
H601 C614 0.961 . S
H602 C614 0.959 . S
H603 C617 0.929 . S
H604 C618 0.931 . S
H605 C620 0.930 . S
C606 H594 0.930 . S
C606 C607 1.399 . S
C606 C611 1.399 . S
C607 C606 1.399 . S
C607 C608 1.376 . S
C608 H595 0.930 . S
C608 C607 1.376 . S
C608 C609 1.388 . S
C609 H596 0.930 . S
C609 C608 1.388 . S
C609 C610 1.390 . S
C610 C609 1.390 . S
C610 C611 1.394 . S
C610 C616 1.465 . S
C611 C606 1.399 . S
C611 C610 1.394 . S
C611 C612 1.516 . S
C612 C611 1.516 . S
C612 C613 1.502 . S
C612 C614 1.561 . S
C612 C615 1.526 . S
C613 H597 0.959 . S
C613 H598 0.959 . S
C613 H599 0.961 . S
C613 C612 1.502 . S
C614 H600 0.960 . S
C614 H601 0.961 . S
C614 H602 0.959 . S
C614 C612 1.561 . S
C615 C612 1.526 . S
C615 C616 1.396 . S
C615 C620 1.390 . S
C616 C610 1.465 . S
C616 C615 1.396 . S
C616 C617 1.399 . S
C617 H603 0.929 . S
C617 C616 1.399 . S
C617 C618 1.385 . S
C618 H604 0.931 . S
C618 C617 1.385 . S
C618 C619 1.389 . S
C619 C618 1.389 . S
C619 C620 1.387 . S
C620 H605 0.930 . S
C620 C615 1.390 . S
C620 C619 1.387 . S
H621 C633 0.930 . S
H622 C635 0.930 . S
H623 C636 0.930 . S
H624 C640 0.959 . S
H625 C640 0.959 . S
H626 C640 0.961 1_565 S
H627 C641 0.929 1_565 S
H628 C641 0.961 . S
H629 C641 0.959 . S
H630 C644 0.929 . S
H631 C645 0.931 . S
H632 C647 0.930 . S
C633 H621 0.930 . S
C633 C634 1.399 . S
C633 C638 1.399 . S
C634 C633 1.399 . S
C634 C635 1.376 . S
C635 H622 0.930 . S
C635 C634 1.376 . S
C635 C636 1.388 . S
C636 H623 0.930 . S
C636 C635 1.388 . S
C636 C637 1.390 . S
C637 C636 1.390 . S
C637 C638 1.394 . S
C637 C643 1.465 1_565 S
C638 C633 1.399 . S
C638 C637 1.394 . S
C638 C639 1.516 1_565 S
C639 C638 1.516 1_545 S
C639 C640 1.502 . S
C639 C641 1.561 . S
C639 C642 1.526 . S
C640 H624 0.959 . S
C640 H625 0.959 . S
C640 H626 0.961 1_545 S
C640 C639 1.502 . S
C641 H627 0.929 1_545 S
C641 H628 0.961 . S
C641 H629 0.959 . S
C641 C639 1.561 . S
C642 C639 1.526 . S
C642 C643 1.396 . S
C642 C647 1.390 . S
C643 C637 1.465 1_545 S
C643 C642 1.396 . S
C643 C644 1.399 . S
C644 H630 0.929 . S
C644 C643 1.399 . S
C644 C645 1.385 . S
C645 H631 0.931 . S
C645 C644 1.385 . S
C645 C646 1.389 . S
C646 C645 1.389 . S
C646 C647 1.387 . S
C647 H632 0.930 . S
C647 C642 1.390 . S
C647 C646 1.387 . S
H648 C660 0.930 . S
H649 C662 0.930 . S
H650 C663 0.930 . S
H651 C667 0.959 . S
H652 C667 0.959 1_455 S
H653 C667 0.961 . S
H654 C668 0.960 . S
H655 C668 0.961 1_455 S
H656 C668 0.959 . S
H657 C671 0.929 . S
H658 C672 0.931 . S
H659 C674 0.930 . S
C660 H648 0.930 . S
C660 C661 1.399 . S
C660 C665 1.399 . S
C661 C660 1.399 . S
C661 C662 1.376 . S
C662 H649 0.930 . S
C662 C661 1.376 . S
C662 C663 1.388 . S
C663 H650 0.930 . S
C663 C662 1.388 . S
C663 C664 1.390 . S
C664 C663 1.390 . S
C664 C665 1.394 . S
C664 C670 1.465 1_655 S
C665 C660 1.399 . S
C665 C664 1.394 . S
C665 C666 1.516 . S
C666 C665 1.516 . S
C666 C667 1.502 . S
C666 C668 1.561 . S
C666 C669 1.526 1_655 S
C667 H651 0.959 . S
C667 H652 0.959 1_655 S
C667 H653 0.961 . S
C667 C666 1.502 . S
C668 H654 0.960 . S
C668 H655 0.961 1_655 S
C668 H656 0.959 . S
C668 C666 1.561 . S
C669 C666 1.526 1_455 S
C669 C670 1.396 . S
C669 C674 1.390 . S
C670 C664 1.465 1_455 S
C670 C669 1.396 . S
C670 C671 1.399 . S
C671 H657 0.929 . S
C671 C670 1.399 . S
C671 C672 1.385 . S
C672 H658 0.931 . S
C672 C671 1.385 . S
C672 C673 1.389 . S
C673 C672 1.389 . S
C673 C674 1.387 . S
C674 H659 0.930 . S
C674 C669 1.390 . S
C674 C673 1.387 . S
H675 C687 0.930 . S
H676 C689 0.930 . S
H677 C690 0.930 . S
H678 C694 0.959 . S
H679 C694 0.959 . S
H680 C694 0.961 . S
H681 C695 0.960 . S
H682 C695 0.961 . S
H683 C695 0.959 . S
H684 C698 0.929 . S
H685 C699 0.931 . S
H686 C701 0.930 . S
C687 H675 0.930 . S
C687 C688 1.399 . S
C687 C692 1.399 . S
C688 C687 1.399 . S
C688 C689 1.376 . S
C689 H676 0.930 . S
C689 C688 1.376 . S
C689 C690 1.388 . S
C690 H677 0.930 . S
C690 C689 1.388 . S
C690 C691 1.390 . S
C691 C690 1.390 . S
C691 C692 1.394 . S
C691 C697 1.465 . S
C692 C687 1.399 . S
C692 C691 1.394 . S
C692 C693 1.516 . S
C693 C692 1.516 . S
C693 C694 1.502 . S
C693 C695 1.561 . S
C693 C696 1.526 . S
C694 H678 0.959 . S
C694 H679 0.959 . S
C694 H680 0.961 . S
C694 C693 1.502 . S
C695 H681 0.960 . S
C695 H682 0.961 . S
C695 H683 0.959 . S
C695 C693 1.561 . S
C696 C693 1.526 . S
C696 C697 1.396 . S
C696 C701 1.390 . S
C697 C691 1.465 . S
C697 C696 1.396 . S
C697 C698 1.399 . S
C698 H684 0.929 . S
C698 C697 1.399 . S
C698 C699 1.385 . S
C699 H685 0.931 . S
C699 C698 1.385 . S
C699 C700 1.389 . S
C700 C699 1.389 . S
C700 C701 1.387 . S
C701 H686 0.930 . S
C701 C696 1.390 . S
C701 C700 1.387 . S
H702 C714 0.930 . S
H703 C716 0.930 . S
H704 C717 0.930 . S
H705 C721 0.959 . S
H706 C721 0.959 . S
H707 C721 0.961 1_545 S
H708 C722 0.960 1_545 S
H709 C722 0.961 . S
H710 C722 0.959 . S
H711 C725 0.929 . S
H712 C726 0.931 . S
H713 C728 0.930 . S
C714 H702 0.930 . S
C714 C715 1.399 . S
C714 C719 1.399 . S
C715 C714 1.399 . S
C715 C716 1.376 . S
C716 H703 0.930 . S
C716 C715 1.376 . S
C716 C717 1.388 . S
C717 H704 0.930 . S
C717 C716 1.388 . S
C717 C718 1.390 . S
C718 C717 1.390 . S
C718 C719 1.394 . S
C718 C724 1.465 1_545 S
C719 C714 1.399 . S
C719 C718 1.394 . S
C719 C720 1.516 1_545 S
C720 C719 1.516 1_565 S
C720 C721 1.502 . S
C720 C722 1.561 . S
C720 C723 1.526 . S
C721 H705 0.959 . S
C721 H706 0.959 . S
C721 H707 0.961 1_565 S
C721 C720 1.502 . S
C722 H708 0.960 1_565 S
C722 H709 0.961 . S
C722 H710 0.959 . S
C722 C720 1.561 . S
C723 C720 1.526 . S
C723 C724 1.396 . S
C723 C728 1.390 . S
C724 C718 1.465 1_565 S
C724 C723 1.396 . S
C724 C725 1.399 . S
C725 H711 0.929 . S
C725 C724 1.399 . S
C725 C726 1.385 . S
C726 H712 0.931 . S
C726 C725 1.385 . S
C726 C727 1.389 . S
C727 C726 1.389 . S
C727 C728 1.387 . S
C728 H713 0.930 . S
C728 C723 1.390 . S
C728 C727 1.387 . S
H729 C741 0.930 . S
H730 C743 0.930 . S
H731 C744 0.930 . S
H732 C748 0.959 . S
H733 C748 0.959 1_655 S
H734 C748 0.961 . S
H735 C749 0.960 . S
H736 C749 0.961 1_655 S
H737 C749 0.959 . S
H738 C752 0.929 . S
H739 C753 0.931 . S
H740 C755 0.930 . S
C741 H729 0.930 . S
C741 C742 1.399 . S
C741 C746 1.399 . S
C742 C741 1.399 . S
C742 C743 1.376 . S
C743 H730 0.930 . S
C743 C742 1.376 . S
C743 C744 1.388 . S
C744 H731 0.930 . S
C744 C743 1.388 . S
C744 C745 1.390 . S
C745 C744 1.390 . S
C745 C746 1.394 . S
C745 C751 1.432 1_455 S
C746 C741 1.399 . S
C746 C745 1.394 . S
C746 C747 1.516 . S
C747 C746 1.516 . S
C747 C748 1.502 . S
C747 C749 1.561 . S
C747 C750 1.526 1_455 S
C748 H732 0.959 . S
C748 H733 0.959 1_455 S
C748 H734 0.961 . S
C748 C747 1.502 . S
C749 H735 0.960 . S
C749 H736 0.961 1_455 S
C749 H737 0.959 . S
C749 C747 1.561 . S
C750 C747 1.526 1_655 S
C750 C751 1.402 . S
C750 C755 1.390 . S
C751 C745 1.432 1_655 S
C751 C750 1.402 . S
C751 C752 1.425 . S
C752 H738 0.929 . S
C752 C751 1.425 . S
C752 C753 1.385 . S
C753 H739 0.931 . S
C753 C752 1.385 . S
C753 C754 1.389 . S
C754 C753 1.389 . S
C754 C755 1.387 . S
C755 H740 0.930 . S
C755 C750 1.390 . S
C755 C754 1.387 . S
H756 C768 0.930 . S
H757 C770 0.930 . S
H758 C771 0.930 . S
H759 C775 0.959 . S
H760 C775 0.959 . S
H761 C775 0.961 . S
H762 C776 0.960 . S
H763 C776 0.961 . S
H764 C776 0.959 . S
H765 C779 0.929 . S
H766 C780 0.931 . S
H767 C782 0.930 . S
C768 H756 0.930 . S
C768 C769 1.399 . S
C768 C773 1.399 . S
C769 C768 1.399 . S
C769 C770 1.376 . S
C770 H757 0.930 . S
C770 C769 1.376 . S
C770 C771 1.388 . S
C771 H758 0.930 . S
C771 C770 1.388 . S
C771 C772 1.390 . S
C772 C771 1.390 . S
C772 C773 1.394 . S
C772 C778 1.465 . S
C773 C768 1.399 . S
C773 C772 1.394 . S
C773 C774 1.516 . S
C774 C773 1.516 . S
C774 C775 1.502 . S
C774 C776 1.561 . S
C774 C777 1.526 . S
C775 H759 0.959 . S
C775 H760 0.959 . S
C775 H761 0.961 . S
C775 C774 1.502 . S
C776 H762 0.960 . S
C776 H763 0.961 . S
C776 H764 0.959 . S
C776 C774 1.561 . S
C777 C774 1.526 . S
C777 C778 1.396 . S
C777 C782 1.390 . S
C778 C772 1.465 . S
C778 C777 1.396 . S
C778 C779 1.399 . S
C779 H765 0.929 . S
C779 C778 1.399 . S
C779 C780 1.385 . S
C780 H766 0.931 . S
C780 C779 1.385 . S
C780 C781 1.389 . S
C781 C780 1.389 . S
C781 C782 1.387 . S
C782 H767 0.930 . S
C782 C777 1.390 . S
C782 C781 1.387 . S
H783 C795 0.930 . S
H784 C797 0.930 . S
H785 C798 0.930 . S
H786 C802 0.959 . S
H787 C802 0.959 . S
H788 C802 0.961 . S
H789 C803 0.960 . S
H790 C803 0.961 . S
H791 C803 0.959 . S
H792 C806 0.929 . S
H793 C807 0.931 . S
H794 C809 0.930 . S
C795 H783 0.930 . S
C795 C796 1.399 . S
C795 C800 1.399 . S
C796 C795 1.399 . S
C796 C797 1.376 . S
C797 H784 0.930 . S
C797 C796 1.376 . S
C797 C798 1.388 . S
C798 H785 0.930 . S
C798 C797 1.388 . S
C798 C799 1.390 . S
C799 C798 1.390 . S
C799 C800 1.394 . S
C799 C805 1.465 . S
C800 C795 1.399 . S
C800 C799 1.394 . S
C800 C801 1.516 . S
C801 C800 1.516 . S
C801 C802 1.502 . S
C801 C803 1.561 . S
C801 C804 1.526 . S
C802 H786 0.959 . S
C802 H787 0.959 . S
C802 H788 0.961 . S
C802 C801 1.502 . S
C803 H789 0.960 . S
C803 H790 0.961 . S
C803 H791 0.959 . S
C803 C801 1.561 . S
C804 C801 1.526 . S
C804 C805 1.396 . S
C804 C809 1.390 . S
C805 C799 1.465 . S
C805 C804 1.396 . S
C805 C806 1.399 . S
C806 H792 0.929 . S
C806 C805 1.399 . S
C806 C807 1.385 . S
C807 H793 0.931 . S
C807 C806 1.385 . S
C807 C808 1.389 . S
C808 C807 1.389 . S
C808 C809 1.387 . S
C809 H794 0.930 . S
C809 C804 1.390 . S
C809 C808 1.387 . S
H810 C822 0.930 . S
H811 C824 0.930 . S
H812 C825 0.930 . S
H813 C829 0.959 . S
H814 C829 0.959 . S
H815 C829 0.961 . S
H816 C830 0.960 . S
H817 C830 0.961 . S
H818 C830 0.959 . S
H819 C833 0.929 . S
H820 C834 0.931 . S
H821 C836 0.930 . S
C822 H810 0.930 . S
C822 C823 1.399 . S
C822 C827 1.399 . S
C823 C822 1.399 . S
C823 C824 1.376 . S
C824 H811 0.930 . S
C824 C823 1.376 . S
C824 C825 1.388 . S
C825 H812 0.930 . S
C825 C824 1.388 . S
C825 C826 1.390 . S
C826 C825 1.390 . S
C826 C827 1.394 . S
C826 C832 1.465 . S
C827 C822 1.399 . S
C827 C826 1.394 . S
C827 C828 1.516 . S
C828 C827 1.516 . S
C828 C829 1.502 . S
C828 C830 1.561 . S
C828 C831 1.526 . S
C829 H813 0.959 . S
C829 H814 0.959 . S
C829 H815 0.961 . S
C829 C828 1.502 . S
C830 H816 0.960 . S
C830 H817 0.961 . S
C830 H818 0.959 . S
C830 C828 1.561 . S
C831 C828 1.526 . S
C831 C832 1.396 . S
C831 C836 1.390 . S
C832 C826 1.465 . S
C832 C831 1.396 . S
C832 C833 1.399 . S
C833 H819 0.929 . S
C833 C832 1.399 . S
C833 C834 1.385 . S
C834 H820 0.931 . S
C834 C833 1.385 . S
C834 C835 1.389 . S
C835 C834 1.389 . S
C835 C836 1.387 . S
C836 H821 0.930 . S
C836 C831 1.390 . S
C836 C835 1.387 . S
H837 C849 0.930 . S
H838 C851 0.930 . S
H839 C852 0.930 . S
H840 C856 0.959 . S
H841 C856 0.959 . S
H842 C856 0.961 . S
H843 C857 0.960 . S
H844 C857 0.961 . S
H845 C857 0.959 . S
H846 C860 0.929 . S
H847 C861 0.931 . S
H848 C863 0.930 . S
C849 H837 0.930 . S
C849 C850 1.399 . S
C849 C854 1.399 . S
C850 C849 1.399 . S
C850 C851 1.376 . S
C851 H838 0.930 . S
C851 C850 1.376 . S
C851 C852 1.388 . S
C852 H839 0.930 . S
C852 C851 1.388 . S
C852 C853 1.390 . S
C853 C852 1.390 . S
C853 C854 1.394 . S
C853 C859 1.465 . S
C854 C849 1.399 . S
C854 C853 1.394 . S
C854 C855 1.516 . S
C855 C854 1.516 . S
C855 C856 1.502 . S
C855 C857 1.561 . S
C855 C858 1.526 . S
C856 H840 0.959 . S
C856 H841 0.959 . S
C856 H842 0.961 . S
C856 C855 1.502 . S
C857 H843 0.960 . S
C857 H844 0.961 . S
C857 H845 0.959 . S
C857 C855 1.561 . S
C858 C855 1.526 . S
C858 C859 1.396 . S
C858 C863 1.390 . S
C859 C853 1.465 . S
C859 C858 1.396 . S
C859 C860 1.399 . S
C860 H846 0.929 . S
C860 C859 1.399 . S
C860 C861 1.385 . S
C861 H847 0.931 . S
C861 C860 1.385 . S
C861 C862 1.389 . S
C862 C861 1.389 . S
C862 C863 1.387 . S
C863 H848 0.930 . S
C863 C858 1.390 . S
C863 C862 1.387 . S
H864 C876 0.930 . S
H865 C878 0.930 . S
H866 C879 0.930 . S
H867 C883 0.959 . S
H868 C883 0.959 . S
H869 C883 0.961 . S
H870 C884 0.960 . S
H871 C884 0.961 . S
H872 C884 0.959 . S
H873 C887 0.929 . S
H874 C888 0.931 . S
H875 C890 0.930 . S
C876 H864 0.930 . S
C876 C877 1.399 . S
C876 C881 1.399 . S
C877 C876 1.399 . S
C877 C878 1.376 . S
C878 H865 0.930 . S
C878 C877 1.376 . S
C878 C879 1.388 . S
C879 H866 0.930 . S
C879 C878 1.388 . S
C879 C880 1.390 . S
C880 C879 1.390 . S
C880 C881 1.394 . S
C880 C886 1.465 . S
C881 C876 1.399 . S
C881 C880 1.394 . S
C881 C882 1.516 . S
C882 C881 1.516 . S
C882 C883 1.502 . S
C882 C884 1.561 . S
C882 C885 1.526 . S
C883 H867 0.959 . S
C883 H868 0.959 . S
C883 H869 0.961 . S
C883 C882 1.502 . S
C884 H870 0.960 . S
C884 H871 0.961 . S
C884 H872 0.959 . S
C884 C882 1.561 . S
C885 C882 1.526 . S
C885 C886 1.396 . S
C885 C890 1.390 . S
C886 C880 1.465 . S
C886 C885 1.396 . S
C886 C887 1.399 . S
C887 H873 0.929 . S
C887 C886 1.399 . S
C887 C888 1.385 . S
C888 H874 0.931 . S
C888 C887 1.385 . S
C888 C889 1.389 . S
C889 C888 1.389 . S
C889 C890 1.387 . S
C890 H875 0.930 . S
C890 C885 1.390 . S
C890 C889 1.387 . S
H891 C903 0.930 . S
H892 C905 0.930 . S
H893 C906 0.930 . S
H894 C910 0.959 . S
H895 C910 0.959 . S
H896 C910 0.961 . S
H897 C911 0.960 . S
H898 C911 0.961 . S
H899 C911 0.959 . S
H900 C914 0.929 . S
H901 C915 0.931 . S
H902 C917 0.930 . S
C903 H891 0.930 . S
C903 C904 1.399 . S
C903 C908 1.399 . S
C904 C903 1.399 . S
C904 C905 1.376 . S
C905 H892 0.930 . S
C905 C904 1.376 . S
C905 C906 1.388 . S
C906 H893 0.930 . S
C906 C905 1.388 . S
C906 C907 1.390 . S
C907 C906 1.390 . S
C907 C908 1.394 . S
C907 C913 1.465 . S
C908 C903 1.399 . S
C908 C907 1.394 . S
C908 C909 1.516 . S
C909 C908 1.516 . S
C909 C910 1.502 . S
C909 C911 1.561 . S
C909 C912 1.526 . S
C910 H894 0.959 . S
C910 H895 0.959 . S
C910 H896 0.961 . S
C910 C909 1.502 . S
C911 H897 0.960 . S
C911 H898 0.961 . S
C911 H899 0.959 . S
C911 C909 1.561 . S
C912 C909 1.526 . S
C912 C913 1.396 . S
C912 C917 1.390 . S
C913 C907 1.465 . S
C913 C912 1.396 . S
C913 C914 1.399 . S
C914 H900 0.929 . S
C914 C913 1.399 . S
C914 C915 1.385 . S
C915 H901 0.931 . S
C915 C914 1.385 . S
C915 C916 1.389 . S
C916 C915 1.389 . S
C916 C917 1.387 . S
C917 H902 0.930 . S
C917 C912 1.390 . S
C917 C916 1.387 . S
H918 C930 0.930 . S
H919 C932 0.930 . S
H920 C933 0.930 . S
H921 C937 0.959 . S
H922 C937 0.959 . S
H923 C937 0.961 . S
H924 C938 0.960 . S
H925 C938 0.961 . S
H926 C938 0.959 . S
H927 C941 0.929 . S
H928 C942 0.931 . S
H929 C944 0.930 . S
C930 H918 0.930 . S
C930 C931 1.399 . S
C930 C935 1.399 . S
C931 C930 1.399 . S
C931 C932 1.376 . S
C932 H919 0.930 . S
C932 C931 1.376 . S
C932 C933 1.388 . S
C933 H920 0.930 . S
C933 C932 1.388 . S
C933 C934 1.390 . S
C934 C933 1.390 . S
C934 C935 1.394 . S
C934 C940 1.465 . S
C935 C930 1.399 . S
C935 C934 1.394 . S
C935 C936 1.516 . S
C936 C935 1.516 . S
C936 C937 1.502 . S
C936 C938 1.561 . S
C936 C939 1.526 . S
C937 H921 0.959 . S
C937 H922 0.959 . S
C937 H923 0.961 . S
C937 C936 1.502 . S
C938 H924 0.960 . S
C938 H925 0.961 . S
C938 H926 0.959 . S
C938 C936 1.561 . S
C939 C936 1.526 . S
C939 C940 1.396 . S
C939 C944 1.390 . S
C940 C934 1.465 . S
C940 C939 1.396 . S
C940 C941 1.399 . S
C941 H927 0.929 . S
C941 C940 1.399 . S
C941 C942 1.385 . S
C942 H928 0.931 . S
C942 C941 1.385 . S
C942 C943 1.389 . S
C943 C942 1.389 . S
C943 C944 1.387 . S
C944 H929 0.930 . S
C944 C939 1.390 . S
C944 C943 1.387 . S
H945 C957 0.930 . S
H946 C959 0.930 . S
H947 C960 0.930 . S
H948 C964 0.959 . S
H949 C964 0.959 . S
H950 C964 0.961 . S
H951 C965 0.960 . S
H952 C965 0.961 . S
H953 C965 0.959 . S
H954 C968 0.929 . S
H955 C969 0.931 . S
H956 C971 0.930 . S
C957 H945 0.930 . S
C957 C958 1.399 . S
C957 C962 1.399 . S
C958 C957 1.399 . S
C958 C959 1.376 . S
C959 H946 0.930 . S
C959 C958 1.376 . S
C959 C960 1.388 . S
C960 H947 0.930 . S
C960 C959 1.388 . S
C960 C961 1.390 . S
C961 C960 1.390 . S
C961 C962 1.394 . S
C961 C967 1.465 . S
C962 C957 1.399 . S
C962 C961 1.394 . S
C962 C963 1.516 . S
C963 C962 1.516 . S
C963 C964 1.502 . S
C963 C965 1.561 . S
C963 C966 1.526 . S
C964 H948 0.959 . S
C964 H949 0.959 . S
C964 H950 0.961 . S
C964 C963 1.502 . S
C965 H951 0.960 . S
C965 H952 0.961 . S
C965 H953 0.959 . S
C965 C963 1.561 . S
C966 C963 1.526 . S
C966 C967 1.396 . S
C966 C971 1.390 . S
C967 C961 1.465 . S
C967 C966 1.396 . S
C967 C968 1.399 . S
C968 H954 0.929 . S
C968 C967 1.399 . S
C968 C969 1.385 . S
C969 H955 0.931 . S
C969 C968 1.385 . S
C969 C970 1.389 . S
C970 C969 1.389 . S
C970 C971 1.387 . S
C971 H956 0.930 . S
C971 C966 1.390 . S
C971 C970 1.387 . S
H972 C984 0.930 . S
H973 C986 0.930 . S
H974 C987 0.930 . S
H975 C991 0.959 . S
H976 C991 0.959 . S
H977 C991 0.961 . S
H978 C992 0.960 . S
H979 C992 0.961 . S
H980 C992 0.959 . S
H981 C995 0.929 . S
H982 C996 0.931 . S
H983 C998 0.930 . S
C984 H972 0.930 . S
C984 C985 1.399 . S
C984 C989 1.399 . S
C985 C984 1.399 . S
C985 C986 1.376 . S
C986 H973 0.930 . S
C986 C985 1.376 . S
C986 C987 1.388 . S
C987 H974 0.930 . S
C987 C986 1.388 . S
C987 C988 1.390 . S
C988 C987 1.390 . S
C988 C989 1.394 . S
C988 C994 1.465 . S
C989 C984 1.399 . S
C989 C988 1.394 . S
C989 C990 1.516 . S
C990 C989 1.516 . S
C990 C991 1.502 . S
C990 C992 1.561 . S
C990 C993 1.526 . S
C991 H975 0.959 . S
C991 H976 0.959 . S
C991 H977 0.961 . S
C991 C990 1.502 . S
C992 H978 0.960 . S
C992 H979 0.961 . S
C992 H980 0.959 . S
C992 C990 1.561 . S
C993 C990 1.526 . S
C993 C994 1.396 . S
C993 C998 1.390 . S
C994 C988 1.465 . S
C994 C993 1.396 . S
C994 C995 1.399 . S
C995 H981 0.929 . S
C995 C994 1.399 . S
C995 C996 1.385 . S
C996 H982 0.931 . S
C996 C995 1.385 . S
C996 C997 1.389 . S
C997 C996 1.389 . S
C997 C998 1.387 . S
C998 H983 0.930 . S
C998 C993 1.390 . S
C998 C997 1.387 . S
H999 C1011 0.930 . S
H1000 C1013 0.930 . S
H1001 C1014 0.930 . S
H1002 C1018 0.959 . S
H1003 C1018 0.959 . S
H1004 C1018 0.961 . S
H1005 C1019 0.960 . S
H1006 C1019 0.961 . S
H1007 C1019 0.959 . S
H1008 C1022 0.929 . S
H1009 C1023 0.931 . S
H1010 C1025 0.930 . S
C1011 H999 0.930 . S
C1011 C1012 1.399 . S
C1011 C1016 1.399 . S
C1012 C1011 1.399 . S
C1012 C1013 1.376 . S
C1013 H1000 0.930 . S
C1013 C1012 1.376 . S
C1013 C1014 1.388 . S
C1014 H1001 0.930 . S
C1014 C1013 1.388 . S
C1014 C1015 1.390 . S
C1015 C1014 1.390 . S
C1015 C1016 1.394 . S
C1015 C1021 1.465 . S
C1016 C1011 1.399 . S
C1016 C1015 1.394 . S
C1016 C1017 1.516 . S
C1017 C1016 1.516 . S
C1017 C1018 1.502 . S
C1017 C1019 1.561 . S
C1017 C1020 1.526 . S
C1018 H1002 0.959 . S
C1018 H1003 0.959 . S
C1018 H1004 0.961 . S
C1018 C1017 1.502 . S
C1019 H1005 0.960 . S
C1019 H1006 0.961 . S
C1019 H1007 0.959 . S
C1019 C1017 1.561 . S
C1020 C1017 1.526 . S
C1020 C1021 1.396 . S
C1020 C1025 1.390 . S
C1021 C1015 1.465 . S
C1021 C1020 1.396 . S
C1021 C1022 1.399 . S
C1022 H1008 0.929 . S
C1022 C1021 1.399 . S
C1022 C1023 1.385 . S
C1023 H1009 0.931 . S
C1023 C1022 1.385 . S
C1023 C1024 1.389 . S
C1024 C1023 1.389 . S
C1024 C1025 1.387 . S
C1025 H1010 0.930 . S
C1025 C1020 1.390 . S
C1025 C1024 1.387 . S
H1026 C1038 0.930 . S
H1027 C1040 0.930 . S
H1028 C1041 0.930 . S
H1029 C1045 0.959 . S
H1030 C1045 0.959 . S
H1031 C1045 0.961 . S
H1032 C1046 0.960 . S
H1033 C1046 0.961 . S
H1034 C1046 0.959 . S
H1035 C1049 0.929 . S
H1036 C1050 0.931 . S
H1037 C1052 0.930 . S
C1038 H1026 0.930 . S
C1038 C1039 1.399 . S
C1038 C1043 1.399 . S
C1039 C1038 1.399 . S
C1039 C1040 1.376 . S
C1040 H1027 0.930 . S
C1040 C1039 1.376 . S
C1040 C1041 1.388 . S
C1041 H1028 0.930 . S
C1041 C1040 1.388 . S
C1041 C1042 1.390 . S
C1042 C1041 1.390 . S
C1042 C1043 1.394 . S
C1042 C1048 1.465 . S
C1043 C1038 1.399 . S
C1043 C1042 1.394 . S
C1043 C1044 1.516 . S
C1044 C1043 1.516 . S
C1044 C1045 1.502 . S
C1044 C1046 1.561 . S
C1044 C1047 1.526 . S
C1045 H1029 0.959 . S
C1045 H1030 0.959 . S
C1045 H1031 0.961 . S
C1045 C1044 1.502 . S
C1046 H1032 0.960 . S
C1046 H1033 0.961 . S
C1046 H1034 0.959 . S
C1046 C1044 1.561 . S
C1047 C1044 1.526 . S
C1047 C1048 1.396 . S
C1047 C1052 1.390 . S
C1048 C1042 1.465 . S
C1048 C1047 1.396 . S
C1048 C1049 1.399 . S
C1049 H1035 0.929 . S
C1049 C1048 1.399 . S
C1049 C1050 1.385 . S
C1050 H1036 0.931 . S
C1050 C1049 1.385 . S
C1050 C1051 1.389 . S
C1051 C1050 1.389 . S
C1051 C1052 1.387 . S
C1052 H1037 0.930 . S
C1052 C1047 1.390 . S
C1052 C1051 1.387 . S
H1053 C1065 0.930 . S
H1054 C1067 0.930 . S
H1055 C1068 0.930 . S
H1056 C1072 0.959 . S
H1057 C1072 0.959 . S
H1058 C1072 0.961 . S
H1059 C1073 0.960 . S
H1060 C1073 0.961 . S
H1061 C1073 0.959 . S
H1062 C1076 0.929 . S
H1063 C1077 0.931 . S
H1064 C1079 0.930 . S
C1065 H1053 0.930 . S
C1065 C1066 1.399 . S
C1065 C1070 1.399 . S
C1066 C1065 1.399 . S
C1066 C1067 1.376 . S
C1067 H1054 0.930 . S
C1067 C1066 1.376 . S
C1067 C1068 1.388 . S
C1068 H1055 0.930 . S
C1068 C1067 1.388 . S
C1068 C1069 1.390 . S
C1069 C1068 1.390 . S
C1069 C1070 1.394 . S
C1069 C1075 1.465 . S
C1070 C1065 1.399 . S
C1070 C1069 1.394 . S
C1070 C1071 1.516 . S
C1071 C1070 1.516 . S
C1071 C1072 1.502 . S
C1071 C1073 1.561 . S
C1071 C1074 1.526 . S
C1072 H1056 0.959 . S
C1072 H1057 0.959 . S
C1072 H1058 0.961 . S
C1072 C1071 1.502 . S
C1073 H1059 0.960 . S
C1073 H1060 0.961 . S
C1073 H1061 0.959 . S
C1073 C1071 1.561 . S
C1074 C1071 1.526 . S
C1074 C1075 1.396 . S
C1074 C1079 1.390 . S
C1075 C1069 1.465 . S
C1075 C1074 1.396 . S
C1075 C1076 1.399 . S
C1076 H1062 0.929 . S
C1076 C1075 1.399 . S
C1076 C1077 1.385 . S
C1077 H1063 0.931 . S
C1077 C1076 1.385 . S
C1077 C1078 1.389 . S
C1078 C1077 1.389 . S
C1078 C1079 1.387 . S
C1079 H1064 0.930 . S
C1079 C1074 1.390 . S
C1079 C1078 1.387 . S
H1080 C1092 0.930 . S
H1081 C1094 0.930 . S
H1082 C1095 0.930 . S
H1083 C1099 0.959 . S
H1084 C1099 0.959 . S
H1085 C1099 0.961 . S
H1086 C1100 0.960 . S
H1087 C1100 0.961 . S
H1088 C1100 0.959 . S
H1089 C1103 0.929 . S
H1090 C1104 0.931 . S
H1091 C1106 0.930 . S
C1092 H1080 0.930 . S
C1092 C1093 1.399 . S
C1092 C1097 1.399 . S
C1093 C1092 1.399 . S
C1093 C1094 1.376 . S
C1094 H1081 0.930 . S
C1094 C1093 1.376 . S
C1094 C1095 1.388 . S
C1095 H1082 0.930 . S
C1095 C1094 1.388 . S
C1095 C1096 1.390 . S
C1096 C1095 1.390 . S
C1096 C1097 1.394 . S
C1096 C1102 1.465 . S
C1097 C1092 1.399 . S
C1097 C1096 1.394 . S
C1097 C1098 1.516 . S
C1098 C1097 1.516 . S
C1098 C1099 1.502 . S
C1098 C1100 1.561 . S
C1098 C1101 1.526 . S
C1099 H1083 0.959 . S
C1099 H1084 0.959 . S
C1099 H1085 0.961 . S
C1099 C1098 1.502 . S
C1100 H1086 0.960 . S
C1100 H1087 0.961 . S
C1100 H1088 0.959 . S
C1100 C1098 1.561 . S
C1101 C1098 1.526 . S
C1101 C1102 1.396 . S
C1101 C1106 1.390 . S
C1102 C1096 1.465 . S
C1102 C1101 1.396 . S
C1102 C1103 1.399 . S
C1103 H1089 0.929 . S
C1103 C1102 1.399 . S
C1103 C1104 1.385 . S
C1104 H1090 0.931 . S
C1104 C1103 1.385 . S
C1104 C1105 1.389 . S
C1105 C1104 1.389 . S
C1105 C1106 1.387 . S
C1106 H1091 0.930 . S
C1106 C1101 1.390 . S
C1106 C1105 1.387 . S
H1107 C1119 0.930 . S
H1108 C1121 0.930 . S
H1109 C1122 0.930 . S
H1110 C1126 0.959 . S
H1111 C1126 0.959 . S
H1112 C1126 0.961 . S
H1113 C1127 0.960 . S
H1114 C1127 0.961 . S
H1115 C1127 0.959 . S
H1116 C1130 0.929 . S
H1117 C1131 0.931 . S
H1118 C1133 0.930 . S
C1119 H1107 0.930 . S
C1119 C1120 1.399 . S
C1119 C1124 1.399 . S
C1120 C1119 1.399 . S
C1120 C1121 1.376 . S
C1121 H1108 0.930 . S
C1121 C1120 1.376 . S
C1121 C1122 1.388 . S
C1122 H1109 0.930 . S
C1122 C1121 1.388 . S
C1122 C1123 1.390 . S
C1123 C1122 1.390 . S
C1123 C1124 1.394 . S
C1123 C1129 1.465 . S
C1124 C1119 1.399 . S
C1124 C1123 1.394 . S
C1124 C1125 1.516 . S
C1125 C1124 1.516 . S
C1125 C1126 1.502 . S
C1125 C1127 1.561 . S
C1125 C1128 1.526 . S
C1126 H1110 0.959 . S
C1126 H1111 0.959 . S
C1126 H1112 0.961 . S
C1126 C1125 1.502 . S
C1127 H1113 0.960 . S
C1127 H1114 0.961 . S
C1127 H1115 0.959 . S
C1127 C1125 1.561 . S
C1128 C1125 1.526 . S
C1128 C1129 1.396 . S
C1128 C1133 1.390 . S
C1129 C1123 1.465 . S
C1129 C1128 1.396 . S
C1129 C1130 1.399 . S
C1130 H1116 0.929 . S
C1130 C1129 1.399 . S
C1130 C1131 1.385 . S
C1131 H1117 0.931 . S
C1131 C1130 1.385 . S
C1131 C1132 1.389 . S
C1132 C1131 1.389 . S
C1132 C1133 1.387 . S
C1133 H1118 0.930 . S
C1133 C1128 1.390 . S
C1133 C1132 1.387 . S
H1134 C1146 0.930 . S
H1135 C1148 0.930 . S
H1136 C1149 0.930 . S
H1137 C1153 0.959 . S
H1138 C1153 0.959 . S
H1139 C1153 0.961 . S
H1140 C1154 0.960 . S
H1141 C1154 0.961 . S
H1142 C1154 0.959 . S
H1143 C1157 0.929 . S
H1144 C1158 0.931 . S
H1145 C1160 0.930 . S
C1146 H1134 0.930 . S
C1146 C1147 1.399 . S
C1146 C1151 1.399 . S
C1147 C1146 1.399 . S
C1147 C1148 1.376 . S
C1148 H1135 0.930 . S
C1148 C1147 1.376 . S
C1148 C1149 1.388 . S
C1149 H1136 0.930 . S
C1149 C1148 1.388 . S
C1149 C1150 1.390 . S
C1150 C1149 1.390 . S
C1150 C1151 1.394 . S
C1150 C1156 1.465 . S
C1151 C1146 1.399 . S
C1151 C1150 1.394 . S
C1151 C1152 1.516 . S
C1152 C1151 1.516 . S
C1152 C1153 1.502 . S
C1152 C1154 1.561 . S
C1152 C1155 1.526 . S
C1153 H1137 0.959 . S
C1153 H1138 0.959 . S
C1153 H1139 0.961 . S
C1153 C1152 1.502 . S
C1154 H1140 0.960 . S
C1154 H1141 0.961 . S
C1154 H1142 0.959 . S
C1154 C1152 1.561 . S
C1155 C1152 1.526 . S
C1155 C1156 1.396 . S
C1155 C1160 1.390 . S
C1156 C1150 1.465 . S
C1156 C1155 1.396 . S
C1156 C1157 1.399 . S
C1157 H1143 0.929 . S
C1157 C1156 1.399 . S
C1157 C1158 1.385 . S
C1158 H1144 0.931 . S
C1158 C1157 1.385 . S
C1158 C1159 1.389 . S
C1159 C1158 1.389 . S
C1159 C1160 1.387 . S
C1160 H1145 0.930 . S
C1160 C1155 1.390 . S
C1160 C1159 1.387 . S
H1161 C1173 0.930 . S
H1162 C1175 0.930 . S
H1163 C1176 0.930 . S
H1164 C1180 0.959 . S
H1165 C1180 0.959 . S
H1166 C1180 0.961 . S
H1167 C1181 0.960 . S
H1168 C1181 0.961 . S
H1169 C1181 0.959 . S
H1170 C1184 0.929 . S
H1171 C1185 0.931 . S
H1172 C1187 0.930 . S
C1173 H1161 0.930 . S
C1173 C1174 1.399 . S
C1173 C1178 1.399 . S
C1174 C1173 1.399 . S
C1174 C1175 1.376 . S
C1175 H1162 0.930 . S
C1175 C1174 1.376 . S
C1175 C1176 1.388 . S
C1176 H1163 0.930 . S
C1176 C1175 1.388 . S
C1176 C1177 1.390 . S
C1177 C1176 1.390 . S
C1177 C1178 1.394 . S
C1177 C1183 1.465 . S
C1178 C1173 1.399 . S
C1178 C1177 1.394 . S
C1178 C1179 1.516 . S
C1179 C1178 1.516 . S
C1179 C1180 1.502 . S
C1179 C1181 1.561 . S
C1179 C1182 1.526 . S
C1180 H1164 0.959 . S
C1180 H1165 0.959 . S
C1180 H1166 0.961 . S
C1180 C1179 1.502 . S
C1181 H1167 0.960 . S
C1181 H1168 0.961 . S
C1181 H1169 0.959 . S
C1181 C1179 1.561 . S
C1182 C1179 1.526 . S
C1182 C1183 1.396 . S
C1182 C1187 1.390 . S
C1183 C1177 1.465 . S
C1183 C1182 1.396 . S
C1183 C1184 1.399 . S
C1184 H1170 0.929 . S
C1184 C1183 1.399 . S
C1184 C1185 1.385 . S
C1185 H1171 0.931 . S
C1185 C1184 1.385 . S
C1185 C1186 1.389 . S
C1186 C1185 1.389 . S
C1186 C1187 1.387 . S
C1187 H1172 0.930 . S
C1187 C1182 1.390 . S
C1187 C1186 1.387 . S
H1188 C1200 0.930 . S
H1189 C1202 0.930 . S
H1190 C1203 0.930 . S
H1191 C1207 0.959 . S
H1192 C1207 0.959 . S
H1193 C1207 0.961 . S
H1194 C1208 0.960 . S
H1195 C1208 0.961 . S
H1196 C1208 0.959 . S
H1197 C1211 0.929 . S
H1198 C1212 0.931 . S
H1199 C1214 0.930 . S
C1200 H1188 0.930 . S
C1200 C1201 1.399 . S
C1200 C1205 1.399 . S
C1201 C1200 1.399 . S
C1201 C1202 1.376 . S
C1202 H1189 0.930 . S
C1202 C1201 1.376 . S
C1202 C1203 1.388 . S
C1203 H1190 0.930 . S
C1203 C1202 1.388 . S
C1203 C1204 1.390 . S
C1204 C1203 1.390 . S
C1204 C1205 1.394 . S
C1204 C1210 1.465 . S
C1205 C1200 1.399 . S
C1205 C1204 1.394 . S
C1205 C1206 1.516 . S
C1206 C1205 1.516 . S
C1206 C1207 1.502 . S
C1206 C1208 1.561 . S
C1206 C1209 1.526 . S
C1207 H1191 0.959 . S
C1207 H1192 0.959 . S
C1207 H1193 0.961 . S
C1207 C1206 1.502 . S
C1208 H1194 0.960 . S
C1208 H1195 0.961 . S
C1208 H1196 0.959 . S
C1208 C1206 1.561 . S
C1209 C1206 1.526 . S
C1209 C1210 1.396 . S
C1209 C1214 1.390 . S
C1210 C1204 1.465 . S
C1210 C1209 1.396 . S
C1210 C1211 1.399 . S
C1211 H1197 0.929 . S
C1211 C1210 1.399 . S
C1211 C1212 1.385 . S
C1212 H1198 0.931 . S
C1212 C1211 1.385 . S
C1212 C1213 1.389 . S
C1213 C1212 1.389 . S
C1213 C1214 1.387 . S
C1214 H1199 0.930 . S
C1214 C1209 1.390 . S
C1214 C1213 1.387 . S
H1215 C1227 0.930 . S
H1216 C1229 0.930 . S
H1217 C1230 0.930 . S
H1218 C1234 0.959 . S
H1219 C1234 0.959 . S
H1220 C1234 0.961 . S
H1221 C1235 0.960 . S
H1222 C1235 0.961 . S
H1223 C1235 0.959 . S
H1224 C1238 0.929 . S
H1225 C1239 0.931 . S
H1226 C1241 0.930 . S
C1227 H1215 0.930 . S
C1227 C1228 1.399 . S
C1227 C1232 1.399 . S
C1228 C1227 1.399 . S
C1228 C1229 1.376 . S
C1229 H1216 0.930 . S
C1229 C1228 1.376 . S
C1229 C1230 1.388 . S
C1230 H1217 0.930 . S
C1230 C1229 1.388 . S
C1230 C1231 1.390 . S
C1231 C1230 1.390 . S
C1231 C1232 1.394 . S
C1231 C1237 1.465 . S
C1232 C1227 1.399 . S
C1232 C1231 1.394 . S
C1232 C1233 1.516 . S
C1233 C1232 1.516 . S
C1233 C1234 1.502 . S
C1233 C1235 1.561 . S
C1233 C1236 1.526 . S
C1234 H1218 0.959 . S
C1234 H1219 0.959 . S
C1234 H1220 0.961 . S
C1234 C1233 1.502 . S
C1235 H1221 0.960 . S
C1235 H1222 0.961 . S
C1235 H1223 0.959 . S
C1235 C1233 1.561 . S
C1236 C1233 1.526 . S
C1236 C1237 1.396 . S
C1236 C1241 1.390 . S
C1237 C1231 1.465 . S
C1237 C1236 1.396 . S
C1237 C1238 1.399 . S
C1238 H1224 0.929 . S
C1238 C1237 1.399 . S
C1238 C1239 1.385 . S
C1239 H1225 0.931 . S
C1239 C1238 1.385 . S
C1239 C1240 1.389 . S
C1240 C1239 1.389 . S
C1240 C1241 1.387 . S
C1241 H1226 0.930 . S
C1241 C1236 1.390 . S
C1241 C1240 1.387 . S
H1242 C1254 0.930 . S
H1243 C1256 0.930 . S
H1244 C1257 0.930 . S
H1245 C1261 0.959 . S
H1246 C1261 0.959 1_455 S
H1247 C1261 0.961 . S
H1248 C1262 0.960 . S
H1249 C1262 0.961 1_455 S
H1250 C1262 0.959 . S
H1251 C1265 0.929 . S
H1252 C1266 0.931 . S
H1253 C1268 0.930 . S
C1254 H1242 0.930 . S
C1254 C1255 1.399 . S
C1254 C1259 1.399 . S
C1255 C1254 1.399 . S
C1255 C1256 1.376 . S
C1256 H1243 0.930 . S
C1256 C1255 1.376 . S
C1256 C1257 1.388 . S
C1257 H1244 0.930 . S
C1257 C1256 1.388 . S
C1257 C1258 1.390 . S
C1258 C1257 1.390 . S
C1258 C1259 1.394 . S
C1258 C1264 1.465 1_655 S
C1259 C1254 1.399 . S
C1259 C1258 1.394 . S
C1259 C1260 1.516 . S
C1260 C1259 1.516 . S
C1260 C1261 1.502 . S
C1260 C1262 1.561 . S
C1260 C1263 1.526 1_655 S
C1261 H1245 0.959 . S
C1261 H1246 0.959 1_655 S
C1261 H1247 0.961 . S
C1261 C1260 1.502 . S
C1262 H1248 0.960 . S
C1262 H1249 0.961 1_655 S
C1262 H1250 0.959 . S
C1262 C1260 1.561 . S
C1263 C1260 1.526 1_455 S
C1263 C1264 1.396 . S
C1263 C1268 1.390 . S
C1264 C1258 1.465 1_455 S
C1264 C1263 1.396 . S
C1264 C1265 1.399 . S
C1265 H1251 0.929 . S
C1265 C1264 1.399 . S
C1265 C1266 1.385 . S
C1266 H1252 0.931 . S
C1266 C1265 1.385 . S
C1266 C1267 1.389 . S
C1267 C1266 1.389 . S
C1267 C1268 1.387 . S
C1268 H1253 0.930 . S
C1268 C1263 1.390 . S
C1268 C1267 1.387 . S
H1269 C1281 0.930 . S
H1270 C1283 0.930 . S
H1271 C1284 0.930 . S
H1272 C1288 0.959 . S
H1273 C1288 0.959 . S
H1274 C1288 0.961 . S
H1275 C1289 0.960 . S
H1276 C1289 0.961 . S
H1277 C1289 0.959 . S
H1278 C1292 0.929 . S
H1279 C1293 0.931 . S
H1280 C1295 0.930 . S
C1281 H1269 0.930 . S
C1281 C1282 1.399 . S
C1281 C1286 1.399 . S
C1282 C1281 1.399 . S
C1282 C1283 1.376 . S
C1283 H1270 0.930 . S
C1283 C1282 1.376 . S
C1283 C1284 1.388 . S
C1284 H1271 0.930 . S
C1284 C1283 1.388 . S
C1284 C1285 1.390 . S
C1285 C1284 1.390 . S
C1285 C1286 1.394 . S
C1285 C1291 1.465 . S
C1286 C1281 1.399 . S
C1286 C1285 1.394 . S
C1286 C1287 1.516 . S
C1287 C1286 1.516 . S
C1287 C1288 1.502 . S
C1287 C1289 1.561 . S
C1287 C1290 1.526 . S
C1288 H1272 0.959 . S
C1288 H1273 0.959 . S
C1288 H1274 0.961 . S
C1288 C1287 1.502 . S
C1289 H1275 0.960 . S
C1289 H1276 0.961 . S
C1289 H1277 0.959 . S
C1289 C1287 1.561 . S
C1290 C1287 1.526 . S
C1290 C1291 1.396 . S
C1290 C1295 1.390 . S
C1291 C1285 1.465 . S
C1291 C1290 1.396 . S
C1291 C1292 1.399 . S
C1292 H1278 0.929 . S
C1292 C1291 1.399 . S
C1292 C1293 1.385 . S
C1293 H1279 0.931 . S
C1293 C1292 1.385 . S
C1293 C1294 1.389 . S
C1294 C1293 1.389 . S
C1294 C1295 1.387 . S
C1295 H1280 0.930 . S
C1295 C1290 1.390 . S
C1295 C1294 1.387 . S
H1296 C1308 0.930 . S
H1297 C1310 0.930 . S
H1298 C1311 0.930 . S
H1299 C1315 0.959 . S
H1300 C1315 0.959 . S
H1301 C1315 0.961 1_565 S
H1302 C1316 0.960 1_565 S
H1303 C1316 0.961 . S
H1304 C1316 0.959 . S
H1305 C1319 0.929 . S
H1306 C1320 0.931 . S
H1307 C1322 0.930 . S
C1308 H1296 0.930 . S
C1308 C1309 1.399 . S
C1308 C1313 1.399 . S
C1309 C1308 1.399 . S
C1309 C1310 1.376 . S
C1310 H1297 0.930 . S
C1310 C1309 1.376 . S
C1310 C1311 1.388 . S
C1311 H1298 0.930 . S
C1311 C1310 1.388 . S
C1311 C1312 1.390 . S
C1312 C1311 1.390 . S
C1312 C1313 1.394 . S
C1312 C1318 1.465 1_565 S
C1313 C1308 1.399 . S
C1313 C1312 1.394 . S
C1313 C1314 1.516 1_565 S
C1314 C1313 1.516 1_545 S
C1314 C1315 1.502 . S
C1314 C1316 1.561 . S
C1314 C1317 1.526 . S
C1315 H1299 0.959 . S
C1315 H1300 0.959 . S
C1315 H1301 0.961 1_545 S
C1315 C1314 1.502 . S
C1316 H1302 0.960 1_545 S
C1316 H1303 0.961 . S
C1316 H1304 0.959 . S
C1316 C1314 1.561 . S
C1317 C1314 1.526 . S
C1317 C1318 1.396 . S
C1317 C1322 1.390 . S
C1318 C1312 1.465 1_545 S
C1318 C1317 1.396 . S
C1318 C1319 1.399 . S
C1319 H1305 0.929 . S
C1319 C1318 1.399 . S
C1319 C1320 1.385 . S
C1320 H1306 0.931 . S
C1320 C1319 1.385 . S
C1320 C1321 1.389 . S
C1321 C1320 1.389 . S
C1321 C1322 1.387 . S
C1322 H1307 0.930 . S
C1322 C1317 1.390 . S
C1322 C1321 1.387 . S
H1323 C1335 0.930 . S
H1324 C1337 0.930 . S
H1325 C1338 0.930 . S
H1326 C1342 0.959 . S
H1327 C1342 0.959 . S
H1328 C1342 0.961 . S
H1329 C1343 0.960 . S
H1330 C1343 0.961 . S
H1331 C1343 0.959 . S
H1332 C1346 0.929 . S
H1333 C1347 0.931 . S
H1334 C1349 0.930 . S
C1335 H1323 0.930 . S
C1335 C1336 1.399 . S
C1335 C1340 1.399 . S
C1336 C1335 1.399 . S
C1336 C1337 1.376 1_565 S
C1337 H1324 0.930 . S
C1337 C1336 1.376 1_545 S
C1337 C1338 1.388 . S
C1338 H1325 0.930 . S
C1338 C1337 1.388 . S
C1338 C1339 1.390 . S
C1339 C1338 1.390 . S
C1339 C1340 1.394 1_545 S
C1339 C1345 1.465 . S
C1340 C1335 1.399 . S
C1340 C1339 1.394 1_565 S
C1340 C1341 1.516 . S
C1341 C1340 1.516 . S
C1341 C1342 1.502 . S
C1341 C1343 1.561 . S
C1341 C1344 1.526 . S
C1342 H1326 0.959 . S
C1342 H1327 0.959 . S
C1342 H1328 0.961 . S
C1342 C1341 1.502 . S
C1343 H1329 0.960 . S
C1343 H1330 0.961 . S
C1343 H1331 0.959 . S
C1343 C1341 1.561 . S
C1344 C1341 1.526 . S
C1344 C1345 1.396 1_565 S
C1344 C1349 1.390 . S
C1345 C1339 1.465 . S
C1345 C1344 1.396 1_545 S
C1345 C1346 1.399 . S
C1346 H1332 0.929 . S
C1346 C1345 1.399 . S
C1346 C1347 1.385 . S
C1347 H1333 0.931 . S
C1347 C1346 1.385 . S
C1347 C1348 1.389 . S
C1348 C1347 1.389 . S
C1348 C1349 1.386 1_545 S
C1349 H1334 0.930 . S
C1349 C1344 1.390 . S
C1349 C1348 1.386 1_565 S
H1350 C1362 0.930 . S
H1351 C1364 0.930 . S
H1352 C1365 0.930 . S
H1353 C1369 0.959 . S
H1354 C1369 0.959 . S
H1355 C1369 0.961 . S
H1356 C1370 0.960 . S
H1357 C1370 0.961 . S
H1358 C1370 0.959 . S
H1359 C1373 0.929 . S
H1360 C1374 0.931 . S
H1361 C1376 0.930 . S
C1362 H1350 0.930 . S
C1362 C1363 1.399 . S
C1362 C1367 1.399 . S
C1363 C1362 1.399 . S
C1363 C1364 1.376 . S
C1364 H1351 0.930 . S
C1364 C1363 1.376 . S
C1364 C1365 1.388 . S
C1365 H1352 0.930 . S
C1365 C1364 1.388 . S
C1365 C1366 1.390 . S
C1366 C1365 1.390 . S
C1366 C1367 1.394 . S
C1366 C1372 1.465 1_655 S
C1367 C1362 1.399 . S
C1367 C1366 1.394 . S
C1367 C1368 1.516 . S
C1368 C1367 1.516 . S
C1368 C1369 1.502 1_655 S
C1368 C1370 1.561 . S
C1368 C1371 1.526 1_655 S
C1369 H1353 0.959 . S
C1369 H1354 0.959 . S
C1369 H1355 0.961 . S
C1369 C1368 1.502 1_455 S
C1370 H1356 0.960 . S
C1370 H1357 0.961 . S
C1370 H1358 0.959 . S
C1370 C1368 1.561 . S
C1371 C1368 1.526 1_455 S
C1371 C1372 1.396 . S
C1371 C1376 1.390 . S
C1372 C1366 1.465 1_455 S
C1372 C1371 1.396 . S
C1372 C1373 1.399 . S
C1373 H1359 0.929 . S
C1373 C1372 1.399 . S
C1373 C1374 1.385 . S
C1374 H1360 0.931 . S
C1374 C1373 1.385 . S
C1374 C1375 1.389 . S
C1375 C1374 1.389 . S
C1375 C1376 1.387 . S
C1376 H1361 0.930 . S
C1376 C1371 1.390 . S
C1376 C1375 1.387 . S
H1377 C1389 0.930 . S
H1378 C1391 0.930 . S
H1379 C1392 0.930 . S
H1380 C1396 0.959 . S
H1381 C1396 0.959 . S
H1382 C1396 0.961 . S
H1383 C1397 0.960 . S
H1384 C1397 0.961 . S
H1385 C1397 0.959 . S
H1386 C1400 0.929 . S
H1387 C1401 0.931 . S
H1388 C1403 0.930 . S
C1389 H1377 0.930 . S
C1389 C1390 1.399 . S
C1389 C1394 1.399 . S
C1390 C1389 1.399 . S
C1390 C1391 1.376 . S
C1391 H1378 0.930 . S
C1391 C1390 1.376 . S
C1391 C1392 1.388 . S
C1392 H1379 0.930 . S
C1392 C1391 1.388 . S
C1392 C1393 1.390 . S
C1393 C1392 1.390 . S
C1393 C1394 1.394 . S
C1393 C1399 1.465 . S
C1394 C1389 1.399 . S
C1394 C1393 1.394 . S
C1394 C1395 1.516 . S
C1395 C1394 1.516 . S
C1395 C1396 1.502 . S
C1395 C1397 1.561 . S
C1395 C1398 1.526 . S
C1396 H1380 0.959 . S
C1396 H1381 0.959 . S
C1396 H1382 0.961 . S
C1396 C1395 1.502 . S
C1397 H1383 0.960 . S
C1397 H1384 0.961 . S
C1397 H1385 0.959 . S
C1397 C1395 1.561 . S
C1398 C1395 1.526 . S
C1398 C1399 1.396 . S
C1398 C1403 1.390 . S
C1399 C1393 1.465 . S
C1399 C1398 1.396 . S
C1399 C1400 1.399 . S
C1400 H1386 0.929 . S
C1400 C1399 1.399 . S
C1400 C1401 1.385 . S
C1401 H1387 0.931 . S
C1401 C1400 1.385 . S
C1401 C1402 1.389 . S
C1402 C1401 1.389 . S
C1402 C1403 1.387 . S
C1403 H1388 0.930 . S
C1403 C1398 1.390 . S
C1403 C1402 1.387 . S
H1404 C1416 0.930 . S
H1405 C1418 0.930 . S
H1406 C1419 0.930 . S
H1407 C1423 0.959 . S
H1408 C1423 0.959 . S
H1409 C1423 0.961 . S
H1410 C1424 0.960 . S
H1411 C1424 0.961 . S
H1412 C1424 0.959 . S
H1413 C1427 0.929 . S
H1414 C1428 0.931 . S
H1415 C1430 0.930 . S
C1416 H1404 0.930 . S
C1416 C1417 1.399 . S
C1416 C1421 1.399 . S
C1417 C1416 1.399 . S
C1417 C1418 1.376 . S
C1418 H1405 0.930 . S
C1418 C1417 1.376 . S
C1418 C1419 1.388 . S
C1419 H1406 0.930 . S
C1419 C1418 1.388 . S
C1419 C1420 1.390 . S
C1420 C1419 1.390 . S
C1420 C1421 1.394 . S
C1420 C1426 1.465 . S
C1421 C1416 1.399 . S
C1421 C1420 1.394 . S
C1421 C1422 1.516 . S
C1422 C1421 1.516 . S
C1422 C1423 1.502 . S
C1422 C1424 1.561 . S
C1422 C1425 1.526 . S
C1423 H1407 0.959 . S
C1423 H1408 0.959 . S
C1423 H1409 0.961 . S
C1423 C1422 1.502 . S
C1424 H1410 0.960 . S
C1424 H1411 0.961 . S
C1424 H1412 0.959 . S
C1424 C1422 1.561 . S
C1425 C1422 1.526 . S
C1425 C1426 1.396 . S
C1425 C1430 1.390 . S
C1426 C1420 1.465 . S
C1426 C1425 1.396 . S
C1426 C1427 1.399 . S
C1427 H1413 0.929 . S
C1427 C1426 1.399 . S
C1427 C1428 1.385 . S
C1428 H1414 0.931 . S
C1428 C1427 1.385 . S
C1428 C1429 1.389 . S
C1429 C1428 1.389 . S
C1429 C1430 1.387 . S
C1430 H1415 0.930 . S
C1430 C1425 1.390 . S
C1430 C1429 1.387 . S
H1431 C1443 0.930 . S
H1432 C1445 0.930 . S
H1433 C1446 0.930 . S
H1434 C1450 0.959 . S
H1435 C1450 0.959 . S
H1436 C1450 0.961 . S
H1437 C1451 0.960 . S
H1438 C1451 0.961 . S
H1439 C1451 0.959 . S
H1440 C1454 0.929 . S
H1441 C1455 0.931 . S
H1442 C1457 0.930 . S
C1443 H1431 0.930 . S
C1443 C1444 1.399 . S
C1443 C1448 1.399 . S
C1444 C1443 1.399 . S
C1444 C1445 1.376 . S
C1445 H1432 0.930 . S
C1445 C1444 1.376 . S
C1445 C1446 1.388 . S
C1446 H1433 0.930 . S
C1446 C1445 1.388 . S
C1446 C1447 1.390 . S
C1447 C1446 1.390 . S
C1447 C1448 1.394 . S
C1447 C1453 1.465 . S
C1448 C1443 1.399 . S
C1448 C1447 1.394 . S
C1448 C1449 1.516 . S
C1449 C1448 1.516 . S
C1449 C1450 1.502 . S
C1449 C1451 1.561 . S
C1449 C1452 1.526 . S
C1450 H1434 0.959 . S
C1450 H1435 0.959 . S
C1450 H1436 0.961 . S
C1450 C1449 1.502 . S
C1451 H1437 0.960 . S
C1451 H1438 0.961 . S
C1451 H1439 0.959 . S
C1451 C1449 1.561 . S
C1452 C1449 1.526 . S
C1452 C1453 1.396 . S
C1452 C1457 1.390 . S
C1453 C1447 1.465 . S
C1453 C1452 1.396 . S
C1453 C1454 1.399 . S
C1454 H1440 0.929 . S
C1454 C1453 1.399 . S
C1454 C1455 1.385 . S
C1455 H1441 0.931 . S
C1455 C1454 1.385 . S
C1455 C1456 1.389 . S
C1456 C1455 1.389 . S
C1456 C1457 1.387 . S
C1457 H1442 0.930 . S
C1457 C1452 1.390 . S
C1457 C1456 1.387 . S
H1458 C1470 0.930 . S
H1459 C1472 0.930 . S
H1460 C1473 0.930 . S
H1461 C1477 0.959 . S
H1462 C1477 0.959 . S
H1463 C1477 0.961 . S
H1464 C1478 0.960 . S
H1465 C1478 0.961 . S
H1466 C1478 0.959 . S
H1467 C1481 0.929 . S
H1468 C1482 0.931 . S
H1469 C1484 0.930 . S
C1470 H1458 0.930 . S
C1470 C1471 1.399 . S
C1470 C1475 1.399 . S
C1471 C1470 1.399 . S
C1471 C1472 1.376 . S
C1472 H1459 0.930 . S
C1472 C1471 1.376 . S
C1472 C1473 1.388 . S
C1473 H1460 0.930 . S
C1473 C1472 1.388 . S
C1473 C1474 1.390 . S
C1474 C1473 1.390 . S
C1474 C1475 1.394 . S
C1474 C1480 1.465 . S
C1475 C1470 1.399 . S
C1475 C1474 1.394 . S
C1475 C1476 1.516 . S
C1476 C1475 1.516 . S
C1476 C1477 1.502 . S
C1476 C1478 1.561 . S
C1476 C1479 1.526 . S
C1477 H1461 0.959 . S
C1477 H1462 0.959 . S
C1477 H1463 0.961 . S
C1477 C1476 1.502 . S
C1478 H1464 0.960 . S
C1478 H1465 0.961 . S
C1478 H1466 0.959 . S
C1478 C1476 1.561 . S
C1479 C1476 1.526 . S
C1479 C1480 1.396 . S
C1479 C1484 1.390 . S
C1480 C1474 1.465 . S
C1480 C1479 1.396 . S
C1480 C1481 1.399 . S
C1481 H1467 0.929 . S
C1481 C1480 1.399 . S
C1481 C1482 1.385 . S
C1482 H1468 0.931 . S
C1482 C1481 1.385 . S
C1482 C1483 1.389 . S
C1483 C1482 1.389 . S
C1483 C1484 1.387 . S
C1484 H1469 0.930 . S
C1484 C1479 1.390 . S
C1484 C1483 1.387 . S
H1485 C1497 0.930 . S
H1486 C1499 0.930 . S
H1487 C1500 0.930 . S
H1488 C1504 0.959 . S
H1489 C1504 0.959 . S
H1490 C1504 0.961 . S
H1491 C1505 0.960 . S
H1492 C1505 0.961 . S
H1493 C1505 0.959 . S
H1494 C1508 0.929 . S
H1495 C1509 0.931 . S
H1496 C1511 0.930 . S
C1497 H1485 0.930 . S
C1497 C1498 1.399 . S
C1497 C1502 1.399 . S
C1498 C1497 1.399 . S
C1498 C1499 1.376 . S
C1499 H1486 0.930 . S
C1499 C1498 1.376 . S
C1499 C1500 1.388 . S
C1500 H1487 0.930 . S
C1500 C1499 1.388 . S
C1500 C1501 1.390 . S
C1501 C1500 1.390 . S
C1501 C1502 1.394 . S
C1501 C1507 1.465 . S
C1502 C1497 1.399 . S
C1502 C1501 1.394 . S
C1502 C1503 1.516 . S
C1503 C1502 1.516 . S
C1503 C1504 1.502 . S
C1503 C1505 1.561 . S
C1503 C1506 1.526 . S
C1504 H1488 0.959 . S
C1504 H1489 0.959 . S
C1504 H1490 0.961 . S
C1504 C1503 1.502 . S
C1505 H1491 0.960 . S
C1505 H1492 0.961 . S
C1505 H1493 0.959 . S
C1505 C1503 1.561 . S
C1506 C1503 1.526 . S
C1506 C1507 1.396 . S
C1506 C1511 1.390 . S
C1507 C1501 1.465 . S
C1507 C1506 1.396 . S
C1507 C1508 1.399 . S
C1508 H1494 0.929 . S
C1508 C1507 1.399 . S
C1508 C1509 1.385 . S
C1509 H1495 0.931 . S
C1509 C1508 1.385 . S
C1509 C1510 1.389 . S
C1510 C1509 1.389 . S
C1510 C1511 1.387 . S
C1511 H1496 0.930 . S
C1511 C1506 1.390 . S
C1511 C1510 1.387 . S
H1512 C1524 0.930 . S
H1513 C1526 0.930 . S
H1514 C1527 0.930 . S
H1515 C1531 0.959 . S
H1516 C1531 0.959 . S
H1517 C1531 0.961 . S
H1518 C1532 0.960 . S
H1519 C1532 0.961 . S
H1520 C1532 0.959 . S
H1521 C1535 0.929 . S
H1522 C1536 0.931 . S
H1523 C1538 0.930 . S
C1524 H1512 0.930 . S
C1524 C1525 1.399 . S
C1524 C1529 1.399 . S
C1525 C1524 1.399 . S
C1525 C1526 1.376 . S
C1526 H1513 0.930 . S
C1526 C1525 1.376 . S
C1526 C1527 1.388 . S
C1527 H1514 0.930 . S
C1527 C1526 1.388 . S
C1527 C1528 1.390 . S
C1528 C1527 1.390 . S
C1528 C1529 1.394 . S
C1528 C1534 1.465 . S
C1529 C1524 1.399 . S
C1529 C1528 1.394 . S
C1529 C1530 1.516 . S
C1530 C1529 1.516 . S
C1530 C1531 1.502 . S
C1530 C1532 1.561 . S
C1530 C1533 1.526 . S
C1531 H1515 0.959 . S
C1531 H1516 0.959 . S
C1531 H1517 0.961 . S
C1531 C1530 1.502 . S
C1532 H1518 0.960 . S
C1532 H1519 0.961 . S
C1532 H1520 0.959 . S
C1532 C1530 1.561 . S
C1533 C1530 1.526 . S
C1533 C1534 1.396 . S
C1533 C1538 1.390 . S
C1534 C1528 1.465 . S
C1534 C1533 1.396 . S
C1534 C1535 1.399 . S
C1535 H1521 0.929 . S
C1535 C1534 1.399 . S
C1535 C1536 1.385 . S
C1536 H1522 0.931 . S
C1536 C1535 1.385 . S
C1536 C1537 1.389 . S
C1537 C1536 1.389 . S
C1537 C1538 1.387 . S
C1538 H1523 0.930 . S
C1538 C1533 1.390 . S
C1538 C1537 1.387 . S
H1539 C1551 0.930 . S
H1540 C1553 0.930 . S
H1541 C1554 0.930 . S
H1542 C1558 0.959 . S
H1543 C1558 0.959 . S
H1544 C1558 0.961 . S
H1545 C1559 0.960 . S
H1546 C1559 0.961 . S
H1547 C1559 0.959 . S
H1548 C1562 0.929 . S
H1549 C1563 0.931 . S
H1550 C1565 0.930 . S
C1551 H1539 0.930 . S
C1551 C1552 1.399 . S
C1551 C1556 1.399 . S
C1552 C1551 1.399 . S
C1552 C1553 1.376 . S
C1553 H1540 0.930 . S
C1553 C1552 1.376 . S
C1553 C1554 1.388 . S
C1554 H1541 0.930 . S
C1554 C1553 1.388 . S
C1554 C1555 1.390 . S
C1555 C1554 1.390 . S
C1555 C1556 1.394 . S
C1555 C1561 1.465 . S
C1556 C1551 1.399 . S
C1556 C1555 1.394 . S
C1556 C1557 1.516 . S
C1557 C1556 1.516 . S
C1557 C1558 1.502 . S
C1557 C1559 1.561 . S
C1557 C1560 1.526 . S
C1558 H1542 0.959 . S
C1558 H1543 0.959 . S
C1558 H1544 0.961 . S
C1558 C1557 1.502 . S
C1559 H1545 0.960 . S
C1559 H1546 0.961 . S
C1559 H1547 0.959 . S
C1559 C1557 1.561 . S
C1560 C1557 1.526 . S
C1560 C1561 1.396 . S
C1560 C1565 1.390 . S
C1561 C1555 1.465 . S
C1561 C1560 1.396 . S
C1561 C1562 1.399 . S
C1562 H1548 0.929 . S
C1562 C1561 1.399 . S
C1562 C1563 1.385 . S
C1563 H1549 0.931 . S
C1563 C1562 1.385 . S
C1563 C1564 1.389 . S
C1564 C1563 1.389 . S
C1564 C1565 1.387 . S
C1565 H1550 0.930 . S
C1565 C1560 1.390 . S
C1565 C1564 1.387 . S
H1566 C1578 0.952 . S
H1567 C1580 0.930 . S
H1568 C1581 0.930 . S
H1569 C1585 0.959 . S
H1570 C1585 0.959 . S
H1571 C1585 0.961 . S
H1572 C1586 0.960 . S
H1573 C1586 0.961 . S
H1574 C1586 0.959 . S
H1575 C1589 0.929 . S
H1576 C1590 0.931 . S
H1577 C1592 0.930 . S
C1578 H1566 0.952 . S
C1578 C1579 1.375 1_545 S
C1578 C1583 1.401 . S
C1579 C1578 1.375 1_565 S
C1579 C1580 1.376 . S
C1580 H1567 0.930 . S
C1580 C1579 1.376 . S
C1580 C1581 1.388 . S
C1581 H1568 0.930 . S
C1581 C1580 1.388 . S
C1581 C1582 1.390 . S
C1582 C1581 1.390 . S
C1582 C1583 1.394 1_565 S
C1582 C1588 1.465 1_554 S
C1583 C1578 1.401 . S
C1583 C1582 1.394 1_545 S
C1583 C1584 1.516 . S
C1584 C1583 1.516 . S
C1584 C1585 1.502 . S
C1584 C1586 1.561 . S
C1584 C1587 1.526 1_554 S
C1585 H1569 0.959 . S
C1585 H1570 0.959 . S
C1585 H1571 0.961 . S
C1585 C1584 1.502 . S
C1586 H1572 0.960 . S
C1586 H1573 0.961 . S
C1586 H1574 0.959 . S
C1586 C1584 1.561 . S
C1587 C1584 1.526 1_556 S
C1587 C1588 1.396 1_545 S
C1587 C1592 1.390 . S
C1588 C1582 1.465 1_556 S
C1588 C1587 1.396 1_565 S
C1588 C1589 1.399 . S
C1589 H1575 0.929 . S
C1589 C1588 1.399 . S
C1589 C1590 1.385 . S
C1590 H1576 0.931 . S
C1590 C1589 1.385 . S
C1590 C1591 1.389 1_565 S
C1591 C1590 1.389 1_545 S
C1591 C1592 1.387 . S
C1592 H1577 0.930 . S
C1592 C1587 1.390 . S
C1592 C1591 1.387 . S
H1593 C1605 0.930 . S
H1594 C1607 0.930 . S
H1595 C1608 0.930 . S
H1596 C1612 0.959 . S
H1597 C1612 0.959 . S
H1598 C1612 0.961 1_554 S
H1599 C1613 0.960 . S
H1600 C1613 0.961 1_556 S
H1601 C1613 0.959 . S
H1602 C1616 0.929 . S
H1603 C1617 0.931 . S
H1604 C1619 0.930 . S
C1605 H1593 0.930 . S
C1605 C1606 1.399 . S
C1605 C1610 1.399 . S
C1606 C1605 1.399 . S
C1606 C1607 1.376 . S
C1607 H1594 0.930 . S
C1607 C1606 1.376 . S
C1607 C1608 1.388 . S
C1608 H1595 0.930 . S
C1608 C1607 1.388 . S
C1608 C1609 1.390 . S
C1609 C1608 1.390 . S
C1609 C1610 1.394 . S
C1609 C1615 1.465 1_454 S
C1610 C1605 1.399 . S
C1610 C1609 1.394 . S
C1610 C1611 1.516 1_455 S
C1611 C1610 1.516 1_655 S
C1611 C1612 1.502 1_654 S
C1611 C1613 1.561 . S
C1611 C1614 1.526 1_554 S
C1612 H1596 0.959 . S
C1612 H1597 0.959 . S
C1612 H1598 0.961 1_556 S
C1612 C1611 1.502 1_456 S
C1613 H1599 0.960 . S
C1613 H1600 0.961 1_554 S
C1613 H1601 0.959 . S
C1613 C1611 1.561 . S
C1614 C1611 1.526 1_556 S
C1614 C1615 1.396 . S
C1614 C1619 1.390 . S
C1615 C1609 1.465 1_656 S
C1615 C1614 1.396 . S
C1615 C1616 1.399 . S
C1616 H1602 0.929 . S
C1616 C1615 1.399 . S
C1616 C1617 1.385 . S
C1617 H1603 0.931 . S
C1617 C1616 1.385 . S
C1617 C1618 1.389 . S
C1618 C1617 1.389 . S
C1618 C1619 1.387 . S
C1619 H1604 0.930 . S
C1619 C1614 1.390 . S
C1619 C1618 1.387 . S
H1620 C1632 0.930 . S
H1621 C1634 0.930 . S
H1622 C1635 0.930 . S
H1623 C1639 0.959 . S
H1624 C1639 0.959 . S
H1625 C1639 0.961 1_556 S
H1626 C1640 0.960 . S
H1627 C1640 0.961 1_554 S
H1628 C1640 0.959 . S
H1629 C1643 0.929 . S
H1630 C1644 0.931 . S
H1631 C1646 0.930 . S
C1632 H1620 0.930 . S
C1632 C1633 1.399 . S
C1632 C1637 1.399 . S
C1633 C1632 1.399 . S
C1633 C1634 1.376 . S
C1634 H1621 0.930 . S
C1634 C1633 1.376 . S
C1634 C1635 1.388 . S
C1635 H1622 0.930 . S
C1635 C1634 1.388 . S
C1635 C1636 1.390 . S
C1636 C1635 1.390 . S
C1636 C1637 1.394 . S
C1636 C1642 1.465 1_556 S
C1637 C1632 1.399 . S
C1637 C1636 1.394 . S
C1637 C1638 1.516 . S
C1638 C1637 1.516 . S
C1638 C1639 1.502 1_556 S
C1638 C1640 1.561 . S
C1638 C1641 1.526 1_556 S
C1639 H1623 0.959 . S
C1639 H1624 0.959 . S
C1639 H1625 0.961 1_554 S
C1639 C1638 1.502 1_554 S
C1640 H1626 0.960 . S
C1640 H1627 0.961 1_556 S
C1640 H1628 0.959 . S
C1640 C1638 1.561 . S
C1641 C1638 1.526 1_554 S
C1641 C1642 1.396 . S
C1641 C1646 1.390 . S
C1642 C1636 1.465 1_554 S
C1642 C1641 1.396 . S
C1642 C1643 1.399 . S
C1643 H1629 0.929 . S
C1643 C1642 1.399 . S
C1643 C1644 1.385 . S
C1644 H1630 0.931 . S
C1644 C1643 1.385 . S
C1644 C1645 1.389 . S
C1645 C1644 1.389 . S
C1645 C1646 1.387 . S
C1646 H1631 0.930 . S
C1646 C1641 1.390 . S
C1646 C1645 1.387 . S
H1647 C1659 0.930 . S
H1648 C1661 0.930 . S
H1649 C1662 0.930 . S
H1650 C1666 0.959 . S
H1651 C1666 0.959 . S
H1652 C1666 0.961 . S
H1653 C1667 0.960 . S
H1654 C1667 0.961 . S
H1655 C1667 0.959 . S
H1656 C1670 0.929 . S
H1657 C1671 0.931 . S
H1658 C1673 0.930 . S
C1659 H1647 0.930 . S
C1659 C1660 1.399 . S
C1659 C1664 1.399 . S
C1660 C1659 1.399 . S
C1660 C1661 1.376 . S
C1661 H1648 0.930 . S
C1661 C1660 1.376 . S
C1661 C1662 1.388 . S
C1662 H1649 0.930 . S
C1662 C1661 1.388 . S
C1662 C1663 1.390 . S
C1663 C1662 1.390 . S
C1663 C1664 1.394 . S
C1663 C1669 1.465 . S
C1664 C1659 1.399 . S
C1664 C1663 1.394 . S
C1664 C1665 1.516 . S
C1665 C1664 1.516 . S
C1665 C1666 1.502 . S
C1665 C1667 1.561 . S
C1665 C1668 1.526 . S
C1666 H1650 0.959 . S
C1666 H1651 0.959 . S
C1666 H1652 0.961 . S
C1666 C1665 1.502 . S
C1667 H1653 0.960 . S
C1667 H1654 0.961 . S
C1667 H1655 0.959 . S
C1667 C1665 1.561 . S
C1668 C1665 1.526 . S
C1668 C1669 1.396 . S
C1668 C1673 1.390 . S
C1669 C1663 1.465 . S
C1669 C1668 1.396 . S
C1669 C1670 1.399 . S
C1670 H1656 0.929 . S
C1670 C1669 1.399 . S
C1670 C1671 1.385 . S
C1671 H1657 0.931 . S
C1671 C1670 1.385 . S
C1671 C1672 1.389 . S
C1672 C1671 1.389 . S
C1672 C1673 1.387 . S
C1673 H1658 0.930 . S
C1673 C1668 1.390 . S
C1673 C1672 1.387 . S
H1674 C1686 0.930 . S
H1675 C1688 0.930 . S
H1676 C1689 0.930 . S
H1677 C1693 0.959 . S
H1678 C1693 0.959 . S
H1679 C1693 0.961 . S
H1680 C1694 0.960 . S
H1681 C1694 0.961 . S
H1682 C1694 0.959 . S
H1683 C1697 0.929 . S
H1684 C1698 0.931 . S
H1685 C1700 0.930 . S
C1686 H1674 0.930 . S
C1686 C1687 1.399 . S
C1686 C1691 1.399 . S
C1687 C1686 1.399 . S
C1687 C1688 1.376 . S
C1688 H1675 0.930 . S
C1688 C1687 1.376 . S
C1688 C1689 1.388 . S
C1689 H1676 0.930 . S
C1689 C1688 1.388 . S
C1689 C1690 1.390 . S
C1690 C1689 1.390 . S
C1690 C1691 1.394 . S
C1690 C1696 1.465 . S
C1691 C1686 1.399 . S
C1691 C1690 1.394 . S
C1691 C1692 1.516 . S
C1692 C1691 1.516 . S
C1692 C1693 1.502 . S
C1692 C1694 1.561 . S
C1692 C1695 1.526 . S
C1693 H1677 0.959 . S
C1693 H1678 0.959 . S
C1693 H1679 0.961 . S
C1693 C1692 1.502 . S
C1694 H1680 0.960 . S
C1694 H1681 0.961 . S
C1694 H1682 0.959 . S
C1694 C1692 1.561 . S
C1695 C1692 1.526 . S
C1695 C1696 1.396 . S
C1695 C1700 1.390 . S
C1696 C1690 1.465 . S
C1696 C1695 1.396 . S
C1696 C1697 1.399 . S
C1697 H1683 0.929 . S
C1697 C1696 1.399 . S
C1697 C1698 1.385 . S
C1698 H1684 0.931 . S
C1698 C1697 1.385 . S
C1698 C1699 1.389 . S
C1699 C1698 1.389 . S
C1699 C1700 1.387 . S
C1700 H1685 0.930 . S
C1700 C1695 1.390 . S
C1700 C1699 1.387 . S
H1701 C1713 0.930 . S
H1702 C1715 0.930 . S
H1703 C1716 0.930 . S
H1704 C1720 0.959 . S
H1705 C1720 0.959 . S
H1706 C1720 0.961 . S
H1707 C1721 0.960 . S
H1708 C1721 0.961 . S
H1709 C1721 0.959 . S
H1710 C1724 0.929 . S
H1711 C1725 0.931 . S
H1712 C1727 0.930 . S
C1713 H1701 0.930 . S
C1713 C1714 1.399 . S
C1713 C1718 1.399 . S
C1714 C1713 1.399 . S
C1714 C1715 1.376 . S
C1715 H1702 0.930 . S
C1715 C1714 1.376 . S
C1715 C1716 1.388 . S
C1716 H1703 0.930 . S
C1716 C1715 1.388 . S
C1716 C1717 1.390 . S
C1717 C1716 1.390 . S
C1717 C1718 1.394 . S
C1717 C1723 1.465 . S
C1718 C1713 1.399 . S
C1718 C1717 1.394 . S
C1718 C1719 1.516 . S
C1719 C1718 1.516 . S
C1719 C1720 1.502 . S
C1719 C1721 1.561 . S
C1719 C1722 1.526 . S
C1720 H1704 0.959 . S
C1720 H1705 0.959 . S
C1720 H1706 0.961 . S
C1720 C1719 1.502 . S
C1721 H1707 0.960 . S
C1721 H1708 0.961 . S
C1721 H1709 0.959 . S
C1721 C1719 1.561 . S
C1722 C1719 1.526 . S
C1722 C1723 1.396 . S
C1722 C1727 1.390 . S
C1723 C1717 1.465 . S
C1723 C1722 1.396 . S
C1723 C1724 1.399 . S
C1724 H1710 0.929 . S
C1724 C1723 1.399 . S
C1724 C1725 1.385 . S
C1725 H1711 0.931 . S
C1725 C1724 1.385 . S
C1725 C1726 1.389 . S
C1726 C1725 1.389 . S
C1726 C1727 1.387 . S
C1727 H1712 0.930 . S
C1727 C1722 1.390 . S
C1727 C1726 1.387 . S
H1728 C1740 0.930 . S
H1729 C1742 0.930 . S
H1730 C1743 0.930 . S
H1731 C1747 0.959 . S
H1732 C1747 0.959 . S
H1733 C1747 0.961 . S
H1734 C1748 0.960 . S
H1735 C1748 0.961 . S
H1736 C1748 0.959 . S
H1737 C1751 0.929 . S
H1738 C1752 0.931 . S
H1739 C1754 0.930 . S
C1740 H1728 0.930 . S
C1740 C1741 1.399 . S
C1740 C1745 1.399 . S
C1741 C1740 1.399 . S
C1741 C1742 1.376 . S
C1742 H1729 0.930 . S
C1742 C1741 1.376 . S
C1742 C1743 1.388 . S
C1743 H1730 0.930 . S
C1743 C1742 1.388 . S
C1743 C1744 1.390 . S
C1744 C1743 1.390 . S
C1744 C1745 1.394 . S
C1744 C1750 1.465 . S
C1745 C1740 1.399 . S
C1745 C1744 1.394 . S
C1745 C1746 1.516 . S
C1746 C1745 1.516 . S
C1746 C1747 1.502 . S
C1746 C1748 1.561 . S
C1746 C1749 1.526 . S
C1747 H1731 0.959 . S
C1747 H1732 0.959 . S
C1747 H1733 0.961 . S
C1747 C1746 1.502 . S
C1748 H1734 0.960 . S
C1748 H1735 0.961 . S
C1748 H1736 0.959 . S
C1748 C1746 1.561 . S
C1749 C1746 1.526 . S
C1749 C1750 1.396 . S
C1749 C1754 1.390 . S
C1750 C1744 1.465 . S
C1750 C1749 1.396 . S
C1750 C1751 1.399 . S
C1751 H1737 0.929 . S
C1751 C1750 1.399 . S
C1751 C1752 1.385 . S
C1752 H1738 0.931 . S
C1752 C1751 1.385 . S
C1752 C1753 1.389 . S
C1753 C1752 1.389 . S
C1753 C1754 1.387 . S
C1754 H1739 0.930 . S
C1754 C1749 1.390 . S
C1754 C1753 1.387 . S
H1755 C1767 0.930 . S
H1756 C1769 0.930 . S
H1757 C1770 0.930 . S
H1758 C1774 0.959 . S
H1759 C1774 0.959 . S
H1760 C1774 0.961 . S
H1761 C1775 0.960 . S
H1762 C1775 0.961 . S
H1763 C1775 0.959 . S
H1764 C1778 0.929 . S
H1765 C1779 0.931 . S
H1766 C1781 0.930 . S
C1767 H1755 0.930 . S
C1767 C1768 1.399 . S
C1767 C1772 1.399 . S
C1768 C1767 1.399 . S
C1768 C1769 1.376 . S
C1769 H1756 0.930 . S
C1769 C1768 1.376 . S
C1769 C1770 1.388 . S
C1770 H1757 0.930 . S
C1770 C1769 1.388 . S
C1770 C1771 1.390 . S
C1771 C1770 1.390 . S
C1771 C1772 1.394 . S
C1771 C1777 1.465 . S
C1772 C1767 1.399 . S
C1772 C1771 1.394 . S
C1772 C1773 1.516 . S
C1773 C1772 1.516 . S
C1773 C1774 1.502 . S
C1773 C1775 1.561 . S
C1773 C1776 1.526 . S
C1774 H1758 0.959 . S
C1774 H1759 0.959 . S
C1774 H1760 0.961 . S
C1774 C1773 1.502 . S
C1775 H1761 0.960 . S
C1775 H1762 0.961 . S
C1775 H1763 0.959 . S
C1775 C1773 1.561 . S
C1776 C1773 1.526 . S
C1776 C1777 1.396 . S
C1776 C1781 1.390 . S
C1777 C1771 1.465 . S
C1777 C1776 1.396 . S
C1777 C1778 1.399 . S
C1778 H1764 0.929 . S
C1778 C1777 1.399 . S
C1778 C1779 1.385 . S
C1779 H1765 0.931 . S
C1779 C1778 1.385 . S
C1779 C1780 1.389 . S
C1780 C1779 1.389 . S
C1780 C1781 1.387 . S
C1781 H1766 0.930 . S
C1781 C1776 1.390 . S
C1781 C1780 1.387 . S
H1782 C1794 0.930 . S
H1783 C1796 0.930 . S
H1784 C1797 0.930 . S
H1785 C1801 0.959 . S
H1786 C1801 0.959 . S
H1787 C1801 0.961 . S
H1788 C1802 0.960 . S
H1789 C1802 0.961 . S
H1790 C1802 0.959 . S
H1791 C1805 0.929 . S
H1792 C1806 0.931 . S
H1793 C1808 0.930 . S
C1794 H1782 0.930 . S
C1794 C1795 1.399 . S
C1794 C1799 1.399 . S
C1795 C1794 1.399 . S
C1795 C1796 1.376 . S
C1796 H1783 0.930 . S
C1796 C1795 1.376 . S
C1796 C1797 1.388 . S
C1797 H1784 0.930 . S
C1797 C1796 1.388 . S
C1797 C1798 1.390 . S
C1798 C1797 1.390 . S
C1798 C1799 1.394 . S
C1798 C1804 1.465 . S
C1799 C1794 1.399 . S
C1799 C1798 1.394 . S
C1799 C1800 1.516 . S
C1800 C1799 1.516 . S
C1800 C1801 1.502 . S
C1800 C1802 1.561 . S
C1800 C1803 1.526 . S
C1801 H1785 0.959 . S
C1801 H1786 0.959 . S
C1801 H1787 0.961 . S
C1801 C1800 1.502 . S
C1802 H1788 0.960 . S
C1802 H1789 0.961 . S
C1802 H1790 0.959 . S
C1802 C1800 1.561 . S
C1803 C1800 1.526 . S
C1803 C1804 1.396 . S
C1803 C1808 1.390 . S
C1804 C1798 1.465 . S
C1804 C1803 1.396 . S
C1804 C1805 1.399 . S
C1805 H1791 0.929 . S
C1805 C1804 1.399 . S
C1805 C1806 1.385 . S
C1806 H1792 0.931 . S
C1806 C1805 1.385 . S
C1806 C1807 1.389 . S
C1807 C1806 1.389 . S
C1807 C1808 1.387 . S
C1808 H1793 0.930 . S
C1808 C1803 1.390 . S
C1808 C1807 1.387 . S
C607 C8 1.218 . S
C619 N47 1.172 . S
C634 N80 1.204 . S
C646 C41 1.197 . S
C661 C74 1.211 . S
C673 N14 1.185 . S
C688 N179 1.184 . S
C700 C107 1.193 . S
C715 N113 1.212 . S
C727 C140 1.190 . S
C742 C173 1.175 . S
C754 N146 1.209 . S
C769 N245 1.210 . S
C781 C206 1.192 . S
C796 C239 1.180 . S
C808 N278 1.200 . S
C823 C272 1.174 . S
C835 N212 1.212 . S
C850 N377 1.179 . S
C862 C305 1.196 . S
C877 N311 1.210 . S
C889 C338 1.192 . S
C904 C371 1.176 . S
C916 N344 1.209 . S
C931 N443 1.194 . S
C943 C404 1.185 . S
C958 C437 1.175 . S
C970 N476 1.210 . S
C985 C470 1.180 . S
C997 N410 1.201 . S
C1012 N575 1.218 . S
C1024 C503 1.183 . S
C1039 N509 1.172 . S
C1051 C536 1.201 . S
C1066 C569 1.212 . S
C1078 N542 1.163 . S
C1093 N335 1.348 . S
C1105 N5 1.342 . S
C1120 N368 1.373 . S
C1132 N38 1.378 . S
C1147 N302 1.371 . S
C1159 N71 1.378 . S
C1174 N104 1.350 . S
C1186 N467 1.344 . S
C1201 N401 1.347 . S
C1213 N137 1.342 . S
C1228 N434 1.361 . S
C1240 N170 1.369 . S
C1255 N203 1.350 . S
C1267 N533 1.344 . S
C1282 N566 1.368 . S
C1294 N236 1.359 . S
C1309 N500 1.368 . S
C1321 N269 1.376 . S
C1336 C17 1.667 . S
C1348 C182 1.730 . S
C1363 C116 1.715 . S
C1375 C50 1.705 . S
C1390 C149 1.730 . S
C1402 C83 1.661 . S
C1417 C380 1.702 . S
C1429 C215 1.644 . S
C1444 C314 1.731 . S
C1456 C248 1.668 . S
C1471 C281 1.688 . S
C1483 C347 1.725 . S
C1498 C578 1.712 . S
C1510 C413 1.644 . S
C1525 C446 1.642 . S
C1537 C512 1.701 . S
C1552 C545 1.729 . S
C1564 C479 1.658 . S
C1579 C28 1.206 . S
C1591 C193 1.114 . S
C1606 C61 1.164 . S
C1618 C127 1.180 . S
C1633 C160 1.164 . S
C1645 C94 1.180 . S
C1660 C391 1.206 . S
C1672 C226 1.115 . S
C1687 C325 1.189 . S
C1699 C259 1.067 . S
C1714 C358 1.166 . S
C1726 C292 1.178 . S
C1741 C424 1.207 . S
C1753 C589 1.110 . S
C1768 C457 1.096 . S
C1780 C523 1.107 . S
C1795 C556 1.147 . S
C1807 C490 1.070 . S
