# Generated by pormake.
# Topology vby, (6)-cn, num edge types: 1
# Building blocks:
#     Node 0, Type 0, BuildingBlock: CUKXOW_clean_sbu_0, # of connection points: 6
#     Node 1, Type 0, BuildingBlock: CUKXOW_clean_sbu_0, # of connection points: 6
#     Node 2, Type 0, BuildingBlock: CUKXOW_clean_sbu_0, # of connection points: 6
#     Node 3, Type 0, BuildingBlock: CUKXOW_clean_sbu_0, # of connection points: 6
#     Node 4, Type 0, BuildingBlock: CUKXOW_clean_sbu_0, # of connection points: 6
#     Node 5, Type 0, BuildingBlock: CUKXOW_clean_sbu_0, # of connection points: 6
#     Node 6, Type 0, BuildingBlock: CUKXOW_clean_sbu_0, # of connection points: 6
#     Node 7, Type 0, BuildingBlock: CUKXOW_clean_sbu_0, # of connection points: 6
#     Edge 8, Type (0, 0), BuildingBlock: XIVTED_clean_linker_0, # of connection points: 2
#     Edge 9, Type (0, 0), BuildingBlock: XIVTED_clean_linker_0, # of connection points: 2
#     Edge 10, Type (0, 0), BuildingBlock: XIVTED_clean_linker_0, # of connection points: 2
#     Edge 11, Type (0, 0), BuildingBlock: XIVTED_clean_linker_0, # of connection points: 2
#     Edge 12, Type (0, 0), BuildingBlock: XIVTED_clean_linker_0, # of connection points: 2
#     Edge 13, Type (0, 0), BuildingBlock: XIVTED_clean_linker_0, # of connection points: 2
#     Edge 14, Type (0, 0), BuildingBlock: XIVTED_clean_linker_0, # of connection points: 2
#     Edge 15, Type (0, 0), BuildingBlock: XIVTED_clean_linker_0, # of connection points: 2
#     Edge 16, Type (0, 0), BuildingBlock: XIVTED_clean_linker_0, # of connection points: 2
#     Edge 17, Type (0, 0), BuildingBlock: XIVTED_clean_linker_0, # of connection points: 2
#     Edge 18, Type (0, 0), BuildingBlock: XIVTED_clean_linker_0, # of connection points: 2
#     Edge 19, Type (0, 0), BuildingBlock: XIVTED_clean_linker_0, # of connection points: 2
#     Edge 20, Type (0, 0), BuildingBlock: XIVTED_clean_linker_0, # of connection points: 2
#     Edge 21, Type (0, 0), BuildingBlock: XIVTED_clean_linker_0, # of connection points: 2
#     Edge 22, Type (0, 0), BuildingBlock: XIVTED_clean_linker_0, # of connection points: 2
#     Edge 23, Type (0, 0), BuildingBlock: XIVTED_clean_linker_0, # of connection points: 2
#     Edge 24, Type (0, 0), BuildingBlock: XIVTED_clean_linker_0, # of connection points: 2
#     Edge 25, Type (0, 0), BuildingBlock: XIVTED_clean_linker_0, # of connection points: 2
#     Edge 26, Type (0, 0), BuildingBlock: XIVTED_clean_linker_0, # of connection points: 2
#     Edge 27, Type (0, 0), BuildingBlock: XIVTED_clean_linker_0, # of connection points: 2
#     Edge 28, Type (0, 0), BuildingBlock: XIVTED_clean_linker_0, # of connection points: 2
#     Edge 29, Type (0, 0), BuildingBlock: XIVTED_clean_linker_0, # of connection points: 2
#     Edge 30, Type (0, 0), BuildingBlock: XIVTED_clean_linker_0, # of connection points: 2
#     Edge 31, Type (0, 0), BuildingBlock: XIVTED_clean_linker_0, # of connection points: 2
# Relax obj value: 0.105
# Max RMSD: 0.176
# Mean RMSD: 0.176
data_MOF--net-vby--node1-CUKXOW_clean_sbu_0--edge1-XIVTED_clean_linker_0
_symmetry_space_group_name_H-M    P1
_symmetry_Int_Tables_number       1
_symmetry_cell_setting            triclinic
loop_
_symmetry_equiv_pos_as_xyz
'x, y, z'
_cell_length_a     18.324765
_cell_length_b     53.446151
_cell_length_c     30.298289
_cell_angle_alpha  105.71474
_cell_angle_beta   90.111247
_cell_angle_gamma 90.048697
loop_
_atom_site_label
_atom_site_type_symbol
_atom_site_fract_x
_atom_site_fract_y
_atom_site_fract_z
_atom_type_partial_charge
Tb0 Tb 0.97853 0.37327 0.99594 0.0
C1 C 0.05856 0.38794 0.08727 0.0
Tb2 Tb 0.1452 0.38227 0.9943 0.0
O3 O 1.00112 0.33738 0.01706 0.0
O4 O 0.07385 0.35034 0.97622 0.0
O5 O 0.99862 0.39224 0.0665 0.0
C6 C 0.28848 0.37346 0.99394 0.0
O7 O 0.11921 0.37907 0.06407 0.0
C8 C 0.08006 0.42735 0.00823 0.0
C9 C 0.05083 0.37864 0.90469 0.0
O10 O 0.24955 0.38393 0.0298 0.0
O11 O 0.24672 0.36778 0.95794 0.0
O12 O 0.15035 0.4243 0.00616 0.0
O13 O 0.05062 0.40532 0.0031 0.0
O14 O 0.11787 0.37826 0.92186 0.0
O15 O 0.99049 0.37898 0.92875 0.0
C16 C 0.8334 0.37209 0.9916 0.0
O17 O 0.87652 0.35599 0.96378 0.0
O18 O 0.87198 0.38886 0.02157 0.0
C19 C 0.06442 0.33346 0.99732 0.0
Tb20 Tb 0.8505 0.64486 0.99846 0.0
C21 C 0.93007 0.65214 0.09596 0.0
Tb22 Tb 0.01103 0.65555 0.00892 0.0
O23 O 0.86753 0.60442 0.96263 0.0
O24 O 0.94214 0.62363 0.01245 0.0
O25 O 0.86724 0.65369 0.07432 0.0
C26 C 0.15723 0.65476 0.00548 0.0
O27 O 0.99323 0.64896 0.07443 0.0
C28 C 0.92376 0.69646 0.02095 0.0
C29 C 0.94313 0.6432 0.9103 0.0
O30 O 0.11754 0.67507 0.02311 0.0
O31 O 0.11463 0.63497 0.9897 0.0
O32 O 0.98363 0.69667 0.04394 0.0
O33 O 0.9187 0.67493 0.9919 0.0
O34 O 0.00231 0.64258 0.93494 0.0
O35 O 0.87734 0.64798 0.92939 0.0
C36 C 0.70478 0.64883 0.00196 0.0
O37 O 0.74145 0.62768 0.98523 0.0
O38 O 0.75019 0.66791 0.01701 0.0
C39 C 0.9291 0.60238 0.98259 0.0
Tb40 Tb 0.97559 0.66989 0.51601 0.0
C41 C 0.04777 0.66127 0.42058 0.0
Tb42 Tb 0.14067 0.65441 0.50448 0.0
O43 O 0.99249 0.71205 0.51898 0.0
O44 O 0.07635 0.68684 0.5135 0.0
O45 O 0.98801 0.6583 0.4429 0.0
C46 C 0.28599 0.65516 0.51102 0.0
O47 O 0.114 0.66394 0.43981 0.0
C48 C 0.04925 0.61482 0.48655 0.0
C49 C 0.06234 0.66466 0.60282 0.0
O50 O 0.24826 0.63944 0.47896 0.0
O51 O 0.24198 0.67038 0.53948 0.0
O52 O 0.11305 0.61484 0.46798 0.0
O53 O 0.04139 0.63635 0.51663 0.0
O54 O 0.12355 0.65828 0.57839 0.0
O55 O 0.99912 0.66896 0.58498 0.0
C56 C 0.83114 0.66567 0.51697 0.0
O57 O 0.86913 0.6837 0.5451 0.0
O58 O 0.87451 0.6501 0.4884 0.0
C59 C 0.06319 0.71002 0.51575 0.0
Tb60 Tb 0.85863 0.39529 0.50085 0.0
C61 C 0.94885 0.38301 0.4072 0.0
Tb62 Tb 0.02112 0.38617 0.50255 0.0
O63 O 0.8716 0.43539 0.54094 0.0
O64 O 0.95314 0.41762 0.49545 0.0
O65 O 0.88326 0.38744 0.42696 0.0
C66 C 0.16677 0.38723 0.49767 0.0
O67 O 0.00964 0.38217 0.43034 0.0
C68 C 0.93621 0.34679 0.50724 0.0
C69 C 0.94105 0.40038 0.59438 0.0
O70 O 0.12617 0.36675 0.48269 0.0
O71 O 0.12536 0.40709 0.51539 0.0
O72 O 0.99852 0.35185 0.52826 0.0
O73 O 0.92675 0.36264 0.48392 0.0
O74 O 1.00109 0.40461 0.57369 0.0
O75 O 0.87976 0.3924 0.57113 0.0
C76 C 0.7136 0.39091 0.49168 0.0
O77 O 0.75305 0.40901 0.48237 0.0
O78 O 0.75585 0.3752 0.50582 0.0
C79 C 0.93562 0.43849 0.52495 0.0
Tb80 Tb 0.48695 0.87777 0.00276 0.0
C81 C 0.56842 0.89366 0.09301 0.0
Tb82 Tb 0.65314 0.88435 0.99799 0.0
O83 O 0.5082 0.84354 0.02925 0.0
O84 O 0.57921 0.85319 0.98363 0.0
O85 O 0.50916 0.89844 0.07217 0.0
C86 C 0.79599 0.87478 0.9985 0.0
O87 O 0.62797 0.88367 0.06949 0.0
C88 C 0.59398 0.9301 0.00753 0.0
C89 C 0.55759 0.87934 0.90847 0.0
O90 O 0.7591 0.88946 0.03201 0.0
O91 O 0.75227 0.86511 0.96429 0.0
O92 O 0.66353 0.92557 0.00394 0.0
O93 O 0.56114 0.9089 0.00546 0.0
O94 O 0.62497 0.87912 0.92528 0.0
O95 O 0.49781 0.88061 0.93344 0.0
C96 C 0.3416 0.87704 0.99894 0.0
O97 O 0.38414 0.85955 0.97364 0.0
O98 O 0.38088 0.89497 0.02614 0.0
C99 C 0.56952 0.83777 0.00764 0.0
Tb100 Tb 0.35811 0.15555 0.03347 0.0
C101 C 0.45774 0.15939 0.12111 0.0
Tb102 Tb 0.5251 0.16135 0.02759 0.0
O103 O 0.34604 0.11372 0.02065 0.0
O104 O 0.44886 0.13033 0.02151 0.0
O105 O 0.39112 0.16312 0.1061 0.0
C106 C 0.67062 0.16218 0.031 0.0
O107 O 0.51558 0.15471 0.09418 0.0
C108 C 0.44336 0.20279 0.02941 0.0
C109 C 0.44088 0.14837 0.938 0.0
O110 O 0.62777 0.17714 0.06078 0.0
O111 O 0.63157 0.14658 0.99945 0.0
O112 O 0.50454 0.19773 0.00742 0.0
O113 O 0.43394 0.18597 0.05055 0.0
O114 O 0.5007 0.14278 0.95746 0.0
O115 O 0.38154 0.15764 0.96249 0.0
C116 C 0.21583 0.16691 0.03778 0.0
O117 O 0.25717 0.16467 0.00226 0.0
O118 O 0.25482 0.16314 0.07118 0.0
C119 C 0.41549 0.109 0.01697 0.0
Tb120 Tb 0.48477 0.17035 0.53329 0.0
C121 C 0.56633 0.15452 0.44255 0.0
Tb122 Tb 0.6512 0.1635 0.53783 0.0
O123 O 0.50622 0.20651 0.51288 0.0
O124 O 0.57756 0.19456 0.55565 0.0
O125 O 0.50628 0.15043 0.46338 0.0
C126 C 0.79376 0.17463 0.5426 0.0
O127 O 0.62719 0.1635 0.46581 0.0
C128 C 0.59197 0.11728 0.52149 0.0
C129 C 0.55309 0.16727 0.62586 0.0
O130 O 0.75017 0.17649 0.50984 0.0
O131 O 0.75689 0.16684 0.5729 0.0
O132 O 0.66171 0.12163 0.52403 0.0
O133 O 0.55913 0.13874 0.52644 0.0
O134 O 0.61948 0.17097 0.61061 0.0
O135 O 0.49465 0.16307 0.59931 0.0
C136 C 0.33918 0.17217 0.5378 0.0
O137 O 0.38341 0.18506 0.56932 0.0
O138 O 0.37687 0.1581 0.50388 0.0
C139 C 0.56809 0.21128 0.53425 0.0
Tb140 Tb 0.35667 0.89317 0.50243 0.0
C141 C 0.4539 0.88991 0.41419 0.0
Tb142 Tb 0.52365 0.88615 0.50577 0.0
O143 O 0.34702 0.93519 0.51797 0.0
O144 O 0.449 0.91778 0.51454 0.0
O145 O 0.38789 0.88575 0.42952 0.0
C146 C 0.66898 0.88492 0.50103 0.0
O147 O 0.51225 0.89461 0.44081 0.0
C148 C 0.44053 0.84471 0.50191 0.0
C149 C 0.44233 0.89868 0.59652 0.0
O150 O 0.62502 0.87184 0.46955 0.0
O151 O 0.63117 0.89887 0.53502 0.0
O152 O 0.50328 0.84872 0.52242 0.0
O153 O 0.43065 0.86236 0.48266 0.0
O154 O 0.50202 0.90391 0.57657 0.0
O155 O 0.38162 0.8902 0.5727 0.0
C156 C 0.21377 0.88293 0.49809 0.0
O157 O 0.25665 0.88186 0.53165 0.0
O158 O 0.25152 0.88938 0.46669 0.0
C159 C 0.41678 0.9394 0.52054 0.0
H160 H 0.37988 0.39064 0.06632 0.0
H161 H 0.74515 0.34128 0.9261 0.0
H162 H 0.37801 0.35055 0.92213 0.0
H163 H 0.74003 0.40035 0.05529 0.0
H164 H 0.61117 0.33975 0.92645 0.0
H165 H 0.51301 0.38912 0.06576 0.0
C166 C 0.40766 0.38135 0.03458 0.0
C167 C 0.36829 0.37083 0.99413 0.0
C168 C 0.6395 0.35304 0.95464 0.0
C169 C 0.5204 0.36906 0.99318 0.0
C170 C 0.71571 0.3539 0.95448 0.0
C171 C 0.75325 0.37101 0.99067 0.0
C172 C 0.60108 0.36919 0.99156 0.0
C173 C 0.71296 0.38695 0.02666 0.0
C174 C 0.48358 0.3806 0.03423 0.0
C175 C 0.40672 0.35898 0.95396 0.0
N176 N 0.63901 0.38559 0.02628 0.0
N177 N 0.48093 0.35842 0.95444 0.0
H178 H 0.24441 0.6129 0.97027 0.0
H179 H 0.61981 0.692 0.03543 0.0
H180 H 0.25285 0.69495 0.03806 0.0
H181 H 0.60723 0.60964 0.97068 0.0
H182 H 0.48589 0.69398 0.03618 0.0
H183 H 0.37775 0.61172 0.9693 0.0
C184 C 0.27448 0.63069 0.98491 0.0
C185 C 0.23775 0.65405 0.00428 0.0
C186 C 0.51245 0.67548 0.02183 0.0
C187 C 0.3905 0.65291 0.00341 0.0
C188 C 0.58878 0.67436 0.02143 0.0
C189 C 0.62439 0.65062 0.00303 0.0
C190 C 0.47168 0.65269 0.00364 0.0
C191 C 0.58184 0.62834 0.98523 0.0
C192 C 0.35063 0.63002 0.98439 0.0
C193 C 0.27926 0.67654 0.02279 0.0
N194 N 0.50784 0.62992 0.98598 0.0
N195 N 0.35348 0.67542 0.02193 0.0
H196 H 0.7469 0.62928 0.45871 0.0
H197 H 0.37009 0.68904 0.57419 0.0
H198 H 0.73407 0.69678 0.57498 0.0
H199 H 0.38343 0.62391 0.45386 0.0
H200 H 0.50351 0.69128 0.57696 0.0
H201 H 0.61379 0.62603 0.45813 0.0
C202 C 0.7159 0.64339 0.48416 0.0
C203 C 0.75116 0.66335 0.51689 0.0
C204 C 0.47733 0.67646 0.55 0.0
C205 C 0.59913 0.65981 0.51651 0.0
C206 C 0.40128 0.67516 0.54846 0.0
C207 C 0.36609 0.65627 0.51374 0.0
C208 C 0.51829 0.6587 0.51655 0.0
C209 C 0.4087 0.63877 0.48117 0.0
C210 C 0.63998 0.64155 0.48383 0.0
C211 C 0.70872 0.68113 0.54914 0.0
N212 N 0.48266 0.64042 0.48334 0.0
N213 N 0.6348 0.67895 0.54812 0.0
H214 H 0.62684 0.35022 0.49666 0.0
H215 H 0.25541 0.42983 0.51496 0.0
H216 H 0.61801 0.42829 0.48248 0.0
H217 H 0.26057 0.34604 0.47503 0.0
H218 H 0.38904 0.43046 0.51131 0.0
H219 H 0.49293 0.34888 0.4964 0.0
C220 C 0.5966 0.36703 0.49335 0.0
C221 C 0.63322 0.38939 0.48954 0.0
C222 C 0.3609 0.41194 0.50319 0.0
C223 C 0.48062 0.38816 0.48988 0.0
C224 C 0.28478 0.41157 0.50542 0.0
C225 C 0.24716 0.38784 0.49524 0.0
C226 C 0.39966 0.3884 0.4914 0.0
C227 C 0.28767 0.36474 0.48304 0.0
C228 C 0.52034 0.36624 0.49311 0.0
C229 C 0.59169 0.41065 0.48533 0.0
N230 N 0.36184 0.36558 0.48176 0.0
N231 N 0.51755 0.40961 0.486 0.0
H232 H 0.88397 0.84561 0.93057 0.0
H233 H 0.24895 0.90948 0.05738 0.0
H234 H 0.88947 0.89872 0.06606 0.0
H235 H 0.25233 0.8426 0.93963 0.0
H236 H 0.11585 0.90742 0.05764 0.0
H237 H 0.01822 0.84512 0.93015 0.0
C238 C 0.91349 0.85697 0.96028 0.0
C239 C 0.87597 0.87228 0.99833 0.0
C240 C 0.14556 0.89313 0.03175 0.0
C241 C 0.02839 0.87211 0.99795 0.0
C242 C 0.22148 0.89439 0.0315 0.0
C243 C 0.26134 0.87618 0.99846 0.0
C244 C 0.10915 0.87365 0.99844 0.0
C245 C 0.22328 0.85698 0.96571 0.0
C246 C 0.98987 0.85672 0.96004 0.0
C247 C 0.91641 0.88669 0.03599 0.0
N248 N 0.14908 0.85624 0.9664 0.0
N249 N 0.99037 0.88639 0.03471 0.0
H250 H 0.12491 0.17844 0.1118 0.0
H251 H 0.76484 0.1393 0.9625 0.0
H252 H 0.12545 0.16073 0.96423 0.0
H253 H 0.75831 0.18823 0.10137 0.0
H254 H 0.89832 0.14257 0.96409 0.0
H255 H 0.99093 0.17858 0.11055 0.0
C256 C 0.0967 0.1748 0.07922 0.0
C257 C 0.13588 0.16955 0.03806 0.0
C258 C 0.86762 0.15265 0.99415 0.0
C259 C 0.98353 0.16913 0.03628 0.0
C260 C 0.79165 0.15066 0.99335 0.0
C261 C 0.75089 0.16351 0.03188 0.0
C262 C 0.90293 0.16724 0.03404 0.0
C263 C 0.78802 0.17806 0.07096 0.0
C264 C 0.02048 0.17488 0.07851 0.0
C265 C 0.09706 0.16493 0.99671 0.0
N266 N 0.86213 0.1794 0.07119 0.0
N267 N 0.02291 0.16452 0.99681 0.0
H268 H 0.25379 0.19245 0.61256 0.0
H269 H 0.88095 0.17758 0.47133 0.0
H270 H 0.24273 0.15609 0.46711 0.0
H271 H 0.88788 0.17803 0.61382 0.0
H272 H 0.01487 0.17825 0.47027 0.0
H273 H 0.12002 0.19529 0.61466 0.0
C274 C 0.2231 0.18513 0.5811 0.0
C275 C 0.25895 0.17392 0.53964 0.0
C276 C 0.98695 0.17835 0.50179 0.0
C277 C 0.10684 0.1775 0.54163 0.0
C278 C 0.91074 0.17814 0.5025 0.0
C279 C 0.87368 0.17765 0.54268 0.0
C280 C 0.02609 0.17853 0.54177 0.0
C281 C 0.91464 0.1783 0.58212 0.0
C282 C 0.14701 0.18672 0.58233 0.0
C283 C 0.21692 0.16473 0.4998 0.0
N284 N 0.98879 0.17876 0.58074 0.0
N285 N 0.14298 0.16686 0.50171 0.0
H286 H 0.75465 0.86421 0.42661 0.0
H287 H 0.12594 0.88099 0.56951 0.0
H288 H 0.76484 0.9017 0.5717 0.0
H289 H 0.12064 0.87842 0.42604 0.0
H290 H 0.99214 0.8801 0.56997 0.0
H291 H 0.88842 0.86141 0.42491 0.0
C292 C 0.78516 0.87181 0.45806 0.0
C293 C 0.74912 0.88331 0.49932 0.0
C294 C 0.02038 0.87961 0.53837 0.0
C295 C 0.90109 0.87979 0.49778 0.0
C296 C 0.09651 0.87996 0.53802 0.0
C297 C 0.13395 0.87993 0.49773 0.0
C298 C 0.98172 0.8788 0.49795 0.0
C299 C 0.09352 0.8786 0.45784 0.0
C300 C 0.86123 0.87024 0.45706 0.0
C301 C 0.79084 0.89284 0.53917 0.0
N302 N 0.01938 0.87806 0.4589 0.0
N303 N 0.86473 0.89074 0.53749 0.0
H304 H 0.03393 0.59183 0.03994 0.0
H305 H 0.94988 0.43829 0.97124 0.0
H306 H 0.87871 0.55461 0.93545 0.0
H307 H 0.13475 0.47402 0.05233 0.0
H308 H 0.91092 0.48161 0.96616 0.0
H309 H 0.06321 0.54925 0.05136 0.0
C310 C 0.00658 0.57469 0.01914 0.0
C311 C 0.954 0.57676 0.98667 0.0
C312 C 0.95949 0.47994 0.98556 0.0
C313 C 0.98596 0.52806 1.00008 0.0
C314 C 0.98101 0.45531 0.98891 0.0
C315 C 0.04542 0.45273 0.01224 0.0
C316 C 0.00254 0.50192 0.00605 0.0
C317 C 0.08476 0.47526 0.03391 0.0
C318 C 0.02286 0.5504 0.02583 0.0
C319 C 0.91975 0.5539 0.96084 0.0
N320 N 0.06295 0.49884 0.03015 0.0
N321 N 0.93604 0.53054 0.96822 0.0
H322 H 0.02986 0.45097 0.46383 0.0
H323 H 0.96526 0.60502 0.55572 0.0
H324 H 0.89281 0.48549 0.57986 0.0
H325 H 0.06841 0.56742 0.42707 0.0
H326 H 0.93955 0.562 0.56708 0.0
H327 H 0.0516 0.49426 0.45352 0.0
C328 C 0.00529 0.46771 0.48757 0.0
C329 C 0.95934 0.46463 0.52267 0.0
C330 C 0.96711 0.5632 0.53614 0.0
C331 C 0.98291 0.51426 0.5107 0.0
C332 C 0.98103 0.58774 0.52944 0.0
C333 C 0.01906 0.58977 0.49039 0.0
C334 C 0.99186 0.54065 0.5037 0.0
C335 C 0.03911 0.56674 0.45773 0.0
C336 C 0.01704 0.49242 0.48142 0.0
C337 C 0.92852 0.48701 0.55227 0.0
N338 N 0.02593 0.54323 0.46529 0.0
N339 N 0.94061 0.51085 0.54555 0.0
H340 H 0.44982 0.94482 0.00107 0.0
H341 H 0.55908 0.09403 0.02312 0.0
H342 H 0.66998 0.97452 0.01996 0.0
H343 H 0.33924 0.06431 0.0008 0.0
H344 H 0.60149 0.05003 0.02124 0.0
H345 H 0.40709 0.98866 0.00161 0.0
C346 C 0.48887 0.96055 0.00562 0.0
C347 C 0.56335 0.95607 0.01042 0.0
C348 C 0.54396 0.05317 0.01656 0.0
C349 C 0.51567 1.00595 0.01073 0.0
C350 C 0.52005 0.07824 0.0174 0.0
C351 C 0.44575 0.08277 0.01215 0.0
C352 C 0.49304 0.03266 0.01048 0.0
C353 C 0.39713 0.06167 0.00513 0.0
C354 C 0.46477 0.98551 0.00573 0.0
C355 C 0.61196 0.97708 0.016 0.0
N356 N 0.42149 0.03763 0.00465 0.0
N357 N 0.58739 1.001 0.01594 0.0
H358 H 0.45065 0.10338 0.53717 0.0
H359 H 0.55794 0.95303 0.50376 0.0
H360 H 0.66484 0.0719 0.4978 0.0
H361 H 0.34493 0.98492 0.54546 0.0
H362 H 0.59934 0.99666 0.50213 0.0
H363 H 0.40947 0.05973 0.53872 0.0
C364 C 0.48853 0.08725 0.52827 0.0
C365 C 0.56107 0.0912 0.51739 0.0
C366 C 0.54362 0.99408 0.5119 0.0
C367 C 0.51535 0.04152 0.51974 0.0
C368 C 0.5204 0.96924 0.51318 0.0
C369 C 0.4481 0.96542 0.52474 0.0
C370 C 0.49402 1.01506 0.52224 0.0
C371 C 0.40121 0.98701 0.5362 0.0
C372 C 0.46542 0.0624 0.52949 0.0
C373 C 0.60837 0.06971 0.50654 0.0
N374 N 0.42479 1.0108 0.5345 0.0
N375 N 0.58486 0.0459 0.50814 0.0
H376 H 0.19136 0.32132 0.94974 0.0
H377 H 0.31521 0.21417 0.0759 0.0
H378 H 0.06322 0.30104 0.05406 0.0
H379 H 0.44525 0.2357 0.97356 0.0
H380 H 0.22216 0.24548 0.06801 0.0
H381 H 0.28452 0.29014 0.95785 0.0
C382 C 0.18307 0.31039 0.9746 0.0
C383 C 0.11976 0.31397 0.00157 0.0
C384 C 0.27099 0.24345 0.04729 0.0
C385 C 0.22594 0.27777 0.01063 0.0
C386 C 0.32415 0.22552 0.05172 0.0
C387 C 0.38802 0.22229 0.02526 0.0
C388 C 0.28166 0.25844 0.01622 0.0
C389 C 0.39691 0.23762 0.99469 0.0
C390 C 0.23616 0.29245 0.97905 0.0
C391 C 0.11121 0.29889 0.03258 0.0
N392 N 0.34436 0.25501 0.99099 0.0
N393 N 0.16368 0.28147 0.03629 0.0
H394 H 0.67206 0.8147 0.94566 0.0
H395 H 0.88939 0.73836 0.09411 0.0
H396 H 0.58903 0.81543 0.07903 0.0
H397 H 0.84511 0.70465 0.95046 0.0
H398 H 0.80188 0.77359 0.0937 0.0
H399 H 0.76019 0.78122 0.95118 0.0
C400 C 0.67255 0.80783 0.9762 0.0
C401 C 0.62265 0.81759 0.0117 0.0
C402 C 0.81174 0.75843 0.06241 0.0
C403 C 0.72462 0.77975 0.01867 0.0
C404 C 0.86183 0.73852 0.06254 0.0
C405 C 0.87452 0.71865 0.02224 0.0
C406 C 0.77623 0.75876 0.02138 0.0
C407 C 0.83691 0.71957 0.98229 0.0
C408 C 0.72274 0.78874 0.97926 0.0
C409 C 0.62599 0.80811 0.05064 0.0
N410 N 0.79026 0.73939 0.98274 0.0
N411 N 0.67657 0.78979 0.05329 0.0
H412 H 0.03815 0.7611 0.51799 0.0
H413 H 0.45373 0.80487 0.54281 0.0
H414 H 0.21059 0.70502 0.50515 0.0
H415 H 0.30367 0.8383 0.46505 0.0
H416 H 0.36082 0.77205 0.54596 0.0
H417 H 0.13013 0.79425 0.51453 0.0
C418 C 0.09531 0.75579 0.51487 0.0
C419 C 0.11703 0.73033 0.51293 0.0
C420 C 0.34831 0.78673 0.5285 0.0
C421 C 0.22207 0.7681 0.50991 0.0
C422 C 0.40115 0.80542 0.52672 0.0
C423 C 0.38597 0.82454 0.50416 0.0
C424 C 0.27935 0.78758 0.50852 0.0
C425 C 0.317 0.82426 0.48365 0.0
C426 C 0.1476 0.77466 0.51287 0.0
C427 C 0.19175 0.72449 0.50841 0.0
N428 N 0.26594 0.80629 0.48673 0.0
N429 N 0.24165 0.74322 0.5076 0.0
H430 H 0.81586 0.33058 0.45412 0.0
H431 H 0.696 0.22353 0.58157 0.0
H432 H 0.93617 0.31616 0.5671 0.0
H433 H 0.56458 0.24431 0.47881 0.0
H434 H 0.7869 0.25591 0.57479 0.0
H435 H 0.72596 0.29796 0.46078 0.0
C436 C 0.82322 0.32058 0.48049 0.0
C437 C 0.88321 0.32631 0.51044 0.0
C438 C 0.73819 0.25347 0.55376 0.0
C439 C 0.78076 0.28847 0.51784 0.0
C440 C 0.68628 0.23494 0.55755 0.0
C441 C 0.62261 0.23121 0.53067 0.0
C442 C 0.72656 0.26847 0.52279 0.0
C443 C 0.61279 0.24659 0.50025 0.0
C444 C 0.7719 0.30187 0.48418 0.0
C445 C 0.89065 0.31239 0.54337 0.0
N446 N 0.66417 0.2645 0.49709 0.0
N447 N 0.84004 0.29414 0.54622 0.0
H448 H 0.96459 0.41858 0.14704 0.0
H449 H 0.05306 0.35545 0.35141 0.0
H450 H 0.13319 0.36123 0.13914 0.0
H451 H 0.86875 0.40562 0.35144 0.0
H452 H 0.08436 0.35763 0.27443 0.0
H453 H 0.93402 0.41595 0.22377 0.0
C454 C 0.99598 0.40566 0.1618 0.0
C455 C 0.05143 0.39 0.13661 0.0
C456 C 0.0367 0.36799 0.29097 0.0
C457 C 0.01566 0.3866 0.22443 0.0
C458 C 0.01848 0.36667 0.33486 0.0
C459 C 0.95823 0.38046 0.35785 0.0
C460 C 0.9948 0.38342 0.2699 0.0
C461 C 0.91528 0.39456 0.33478 0.0
C462 C 0.97801 0.40404 0.20552 0.0
C463 C 0.09046 0.37377 0.15751 0.0
N464 N 0.93487 0.3959 0.29215 0.0
N465 N 0.07142 0.37233 0.20019 0.0
H466 H 0.85366 0.68142 0.17079 0.0
H467 H 0.13393 0.64225 0.34462 0.0
H468 H 0.01753 0.62173 0.13026 0.0
H469 H 0.93353 0.68351 0.38955 0.0
H470 H 0.09967 0.63946 0.26491 0.0
H471 H 0.88489 0.68552 0.25171 0.0
C472 C 0.89476 0.66882 0.17898 0.0
C473 C 0.93334 0.65135 0.14408 0.0
C474 C 0.06346 0.64925 0.29235 0.0
C475 C 0.97098 0.65646 0.23542 0.0
C476 C 0.08353 0.65108 0.33769 0.0
C477 C 0.03621 0.66288 0.37336 0.0
C478 C 0.99614 0.65957 0.28304 0.0
C479 C 0.9711 0.67392 0.36275 0.0
C480 C 0.91332 0.67136 0.22493 0.0
C481 C 0.98703 0.63568 0.15628 0.0
N482 N 0.95281 0.67194 0.31856 0.0
N483 N 0.00479 0.63879 0.20081 0.0
H484 H 0.85929 0.66542 0.85626 0.0
H485 H 0.13914 0.63368 0.64584 0.0
H486 H 0.05608 0.62101 0.85564 0.0
H487 H 0.97407 0.69331 0.6684 0.0
H488 H 0.10817 0.62644 0.72042 0.0
H489 H 0.89415 0.6715 0.7819 0.0
C490 C 0.90899 0.65651 0.84003 0.0
C491 C 0.95503 0.64283 0.8621 0.0
C492 C 0.07947 0.64131 0.70913 0.0
C493 C 0.99612 0.65012 0.77783 0.0
C494 C 0.09784 0.64566 0.66697 0.0
C495 C 0.05882 0.66399 0.651 0.0
C496 C 0.02158 0.65532 0.73488 0.0
C497 C 0.00498 0.67877 0.67931 0.0
C498 C 0.92947 0.66027 0.79794 0.0
C499 C 0.01934 0.6319 0.83982 0.0
N500 N 0.98742 0.67392 0.71957 0.0
N501 N 0.03822 0.63587 0.79897 0.0
H502 H 0.04265 0.42663 0.65488 0.0
H503 H 0.93745 0.35807 0.84951 0.0
H504 H 0.85959 0.37444 0.64417 0.0
H505 H 0.13601 0.40186 0.85197 0.0
H506 H 0.90606 0.36506 0.77573 0.0
H507 H 0.07218 0.4205 0.72968 0.0
C508 C 0.00788 0.41416 0.66863 0.0
C509 C 0.94862 0.40092 0.64315 0.0
C510 C 0.95675 0.37302 0.79208 0.0
C511 C 0.98309 0.39353 0.72865 0.0
C512 C 0.97496 0.36896 0.83418 0.0
C513 C 0.03946 0.37948 0.85692 0.0
C514 C 0.00301 0.38791 0.7725 0.0
C515 C 0.0861 0.39327 0.83539 0.0
C516 C 0.02523 0.41054 0.71122 0.0
C517 C 0.90539 0.38516 0.66276 0.0
N518 N 0.0666 0.3973 0.79444 0.0
N519 N 0.92387 0.38173 0.70427 0.0
H520 H 0.65347 0.87157 0.1478 0.0
H521 H 0.36008 0.90219 0.35168 0.0
H522 H 0.46316 0.91957 0.1506 0.0
H523 H 0.57806 0.87491 0.36617 0.0
H524 H 0.39144 0.9041 0.27366 0.0
H525 H 0.62399 0.86954 0.22586 0.0
C526 C 0.60642 0.88204 0.16503 0.0
C527 C 0.56072 0.89567 0.14252 0.0
C528 C 0.43221 0.89763 0.29402 0.0
C529 C 0.52545 0.89282 0.23095 0.0
C530 C 0.41402 0.89633 0.33826 0.0
C531 C 0.46662 0.88861 0.36546 0.0
C532 C 0.50307 0.89081 0.27691 0.0
C533 C 0.53602 0.88131 0.34654 0.0
C534 C 0.58914 0.88067 0.20936 0.0
C535 C 0.49976 0.90862 0.16637 0.0
N536 N 0.55221 0.8826 0.30355 0.0
N537 N 0.48358 0.90667 0.20897 0.0
H538 H 0.58123 0.17607 0.16928 0.0
H539 H 0.46379 0.12689 0.38449 0.0
H540 H 0.36735 0.14535 0.18327 0.0
H541 H 0.64993 0.1769 0.38756 0.0
H542 H 0.43563 0.12915 0.3072 0.0
H543 H 0.61227 0.17362 0.24624 0.0
C544 C 0.54047 0.16895 0.18877 0.0
C545 C 0.47153 0.16079 0.1698 0.0
C546 C 0.48283 0.13954 0.32458 0.0
C547 C 0.50747 0.1576 0.25791 0.0
C548 C 0.49948 0.13813 0.36868 0.0
C549 C 0.55922 0.15191 0.3928 0.0
C550 C 0.52639 0.1547 0.30396 0.0
C551 C 0.60363 0.16589 0.37024 0.0
C552 C 0.5584 0.16757 0.23272 0.0
C553 C 0.42086 0.15195 0.1967 0.0
N554 N 0.58606 0.16705 0.32708 0.0
N555 N 0.44014 0.15033 0.23932 0.0
H556 H 0.53874 0.12107 0.87632 0.0
H557 H 0.43381 0.18556 0.67676 0.0
H558 H 0.36193 0.17586 0.88905 0.0
H559 H 0.64134 0.14886 0.6839 0.0
H560 H 0.40175 0.18001 0.75164 0.0
H561 H 0.56881 0.12727 0.8018 0.0
C562 C 0.50539 0.13416 0.86312 0.0
C563 C 0.44777 0.14807 0.88918 0.0
C564 C 0.45457 0.17338 0.73716 0.0
C565 C 0.48289 0.15547 0.80368 0.0
C566 C 0.47311 0.17659 0.69447 0.0
C567 C 0.54044 0.16763 0.67414 0.0
C568 C 0.50317 0.16072 0.75957 0.0
C569 C 0.58921 0.15622 0.69855 0.0
C570 C 0.52317 0.13784 0.82067 0.0
C571 C 0.4064 0.1646 0.87006 0.0
N572 N 0.56925 0.15281 0.73986 0.0
N573 N 0.42505 0.16796 0.82849 0.0
H574 H 0.5415 0.92587 0.65773 0.0
H575 H 0.44254 0.8584 0.85478 0.0
H576 H 0.3641 0.87127 0.64579 0.0
H577 H 0.64218 0.90093 0.85305 0.0
H578 H 0.40984 0.86423 0.78019 0.0
H579 H 0.57245 0.91981 0.73229 0.0
C580 C 0.50823 0.91285 0.67112 0.0
C581 C 0.45014 0.89895 0.64529 0.0
C582 C 0.46109 0.87211 0.7958 0.0
C583 C 0.48633 0.89167 0.73081 0.0
C584 C 0.48004 0.86873 0.83835 0.0
C585 C 0.54526 0.87925 0.86019 0.0
C586 C 0.5072 0.88641 0.77491 0.0
C587 C 0.59174 0.89234 0.83727 0.0
C588 C 0.52647 0.90926 0.71361 0.0
C589 C 0.40892 0.8825 0.66461 0.0
N590 N 0.57143 0.89579 0.79601 0.0
N591 N 0.42814 0.87917 0.70615 0.0
loop_
_geom_bond_atom_site_label_1
_geom_bond_atom_site_label_2
_geom_bond_distance
_geom_bond_site_symmetry_2
_ccdc_geom_bond_type
Tb0 O3 2.453 1_655 S
Tb0 O4 2.596 1_656 S
Tb0 O5 2.374 1_656 S
Tb0 O13 2.343 1_656 S
Tb0 O15 2.353 1_655 S
Tb0 O17 2.427 . S
Tb0 O18 2.513 1_556 S
C1 O5 1.251 . S
C1 O7 1.263 . S
Tb2 O4 2.343 . S
Tb2 O7 2.353 . S
Tb2 O10 2.427 . S
Tb2 O11 2.513 1_554 S
Tb2 O12 2.453 . S
Tb2 O13 2.596 . S
Tb2 O14 2.374 1_554 S
O3 Tb0 2.453 1_455 S
O3 C19 1.243 1_556 S
O4 Tb0 2.596 1_454 S
O4 Tb2 2.343 . S
O4 C19 1.258 . S
O5 Tb0 2.374 1_454 S
O5 C1 1.251 . S
C6 O10 1.275 . S
C6 O11 1.246 1_554 S
O7 C1 1.263 . S
O7 Tb2 2.353 . S
C8 O12 1.245 . S
C8 O13 1.259 . S
C9 O14 1.250 . S
C9 O15 1.263 . S
O10 Tb2 2.427 . S
O10 C6 1.275 . S
O11 Tb2 2.513 1_556 S
O11 C6 1.246 1_556 S
O12 Tb2 2.453 . S
O12 C8 1.245 . S
O13 Tb0 2.343 1_454 S
O13 Tb2 2.596 . S
O13 C8 1.259 . S
O14 Tb2 2.374 1_556 S
O14 C9 1.250 . S
O15 Tb0 2.353 1_455 S
O15 C9 1.263 . S
C16 O17 1.275 1_554 S
C16 O18 1.246 . S
O17 Tb0 2.427 . S
O17 C16 1.275 1_556 S
O18 Tb0 2.513 1_554 S
O18 C16 1.246 . S
C19 O3 1.243 1_554 S
C19 O4 1.258 . S
Tb20 O23 2.453 1_554 S
Tb20 O24 2.596 . S
Tb20 O25 2.374 . S
Tb20 O33 2.343 . S
Tb20 O35 2.353 1_554 S
Tb20 O37 2.427 1_554 S
Tb20 O38 2.513 . S
C21 O25 1.251 . S
C21 O27 1.263 . S
Tb22 O24 2.343 1_455 S
Tb22 O27 2.353 1_455 S
Tb22 O30 2.427 . S
Tb22 O31 2.513 1_554 S
Tb22 O32 2.453 1_455 S
Tb22 O33 2.596 1_455 S
Tb22 O34 2.374 1_454 S
O23 Tb20 2.453 1_556 S
O23 C39 1.245 1_556 S
O24 Tb20 2.596 . S
O24 Tb22 2.343 1_655 S
O24 C39 1.259 . S
O25 Tb20 2.374 . S
O25 C21 1.251 . S
C26 O30 1.275 . S
C26 O31 1.246 1_554 S
O27 C21 1.263 . S
O27 Tb22 2.353 1_655 S
C28 O32 1.245 . S
C28 O33 1.259 . S
C29 O34 1.250 . S
C29 O35 1.263 . S
O30 Tb22 2.427 . S
O30 C26 1.275 . S
O31 Tb22 2.513 1_556 S
O31 C26 1.246 1_556 S
O32 Tb22 2.453 1_655 S
O32 C28 1.245 . S
O33 Tb20 2.343 . S
O33 Tb22 2.596 1_655 S
O33 C28 1.259 . S
O34 Tb22 2.374 1_656 S
O34 C29 1.250 . S
O35 Tb20 2.353 1_556 S
O35 C29 1.263 . S
C36 O37 1.275 1_554 S
C36 O38 1.246 . S
O37 Tb20 2.427 1_556 S
O37 C36 1.275 1_556 S
O38 Tb20 2.513 . S
O38 C36 1.246 . S
C39 O23 1.245 1_554 S
C39 O24 1.259 . S
Tb40 O43 2.453 1_655 S
Tb40 O44 2.596 1_655 S
Tb40 O45 2.374 1_655 S
Tb40 O53 2.343 1_655 S
Tb40 O55 2.353 1_655 S
Tb40 O57 2.427 . S
Tb40 O58 2.513 . S
C41 O45 1.251 . S
C41 O47 1.263 . S
Tb42 O44 2.343 . S
Tb42 O47 2.353 . S
Tb42 O50 2.427 . S
Tb42 O51 2.513 . S
Tb42 O52 2.453 . S
Tb42 O53 2.596 . S
Tb42 O54 2.374 . S
O43 Tb40 2.453 1_455 S
O43 C59 1.245 . S
O44 Tb40 2.596 1_455 S
O44 Tb42 2.343 . S
O44 C59 1.259 . S
O45 Tb40 2.374 1_455 S
O45 C41 1.251 . S
C46 O50 1.275 . S
C46 O51 1.246 . S
O47 C41 1.263 . S
O47 Tb42 2.353 . S
C48 O52 1.245 . S
C48 O53 1.259 . S
C49 O54 1.250 . S
C49 O55 1.263 . S
O50 Tb42 2.427 . S
O50 C46 1.275 . S
O51 Tb42 2.513 . S
O51 C46 1.246 . S
O52 Tb42 2.453 . S
O52 C48 1.245 . S
O53 Tb40 2.343 1_455 S
O53 Tb42 2.596 . S
O53 C48 1.259 . S
O54 Tb42 2.374 . S
O54 C49 1.250 . S
O55 Tb40 2.353 1_455 S
O55 C49 1.263 . S
C56 O57 1.275 . S
C56 O58 1.246 . S
O57 Tb40 2.427 . S
O57 C56 1.275 . S
O58 Tb40 2.513 . S
O58 C56 1.246 . S
C59 O43 1.245 . S
C59 O44 1.259 . S
Tb60 O63 2.453 . S
Tb60 O64 2.596 . S
Tb60 O65 2.374 . S
Tb60 O73 2.343 . S
Tb60 O75 2.353 . S
Tb60 O77 2.427 . S
Tb60 O78 2.513 . S
C61 O65 1.251 . S
C61 O67 1.263 . S
Tb62 O64 2.343 1_455 S
Tb62 O67 2.353 1_455 S
Tb62 O70 2.427 . S
Tb62 O71 2.513 . S
Tb62 O72 2.453 1_455 S
Tb62 O73 2.596 1_455 S
Tb62 O74 2.374 1_455 S
O63 Tb60 2.453 . S
O63 C79 1.245 . S
O64 Tb60 2.596 . S
O64 Tb62 2.343 1_655 S
O64 C79 1.259 . S
O65 Tb60 2.374 . S
O65 C61 1.251 . S
C66 O70 1.275 . S
C66 O71 1.246 . S
O67 C61 1.263 . S
O67 Tb62 2.353 1_655 S
C68 O72 1.245 . S
C68 O73 1.259 . S
C69 O74 1.250 . S
C69 O75 1.263 . S
O70 Tb62 2.427 . S
O70 C66 1.275 . S
O71 Tb62 2.513 . S
O71 C66 1.246 . S
O72 Tb62 2.453 1_655 S
O72 C68 1.245 . S
O73 Tb60 2.343 . S
O73 Tb62 2.596 1_655 S
O73 C68 1.259 . S
O74 Tb62 2.374 1_655 S
O74 C69 1.250 . S
O75 Tb60 2.353 . S
O75 C69 1.263 . S
C76 O77 1.275 . S
C76 O78 1.246 . S
O77 Tb60 2.427 . S
O77 C76 1.275 . S
O78 Tb60 2.513 . S
O78 C76 1.246 . S
C79 O63 1.245 . S
C79 O64 1.259 . S
Tb80 O83 2.453 . S
Tb80 O84 2.596 1_556 S
Tb80 O85 2.374 1_556 S
Tb80 O93 2.343 1_556 S
Tb80 O95 2.353 . S
Tb80 O97 2.427 . S
Tb80 O98 2.513 1_556 S
C81 O85 1.251 . S
C81 O87 1.263 . S
Tb82 O84 2.343 . S
Tb82 O87 2.353 . S
Tb82 O90 2.427 . S
Tb82 O91 2.513 1_554 S
Tb82 O92 2.453 . S
Tb82 O93 2.596 . S
Tb82 O94 2.374 1_554 S
O83 Tb80 2.453 . S
O83 C99 1.243 1_556 S
O84 Tb80 2.596 1_554 S
O84 Tb82 2.343 . S
O84 C99 1.258 . S
O85 Tb80 2.374 1_554 S
O85 C81 1.251 . S
C86 O90 1.275 . S
C86 O91 1.246 1_554 S
O87 C81 1.263 . S
O87 Tb82 2.353 . S
C88 O92 1.245 . S
C88 O93 1.259 . S
C89 O94 1.250 . S
C89 O95 1.263 . S
O90 Tb82 2.427 . S
O90 C86 1.275 . S
O91 Tb82 2.513 1_556 S
O91 C86 1.246 1_556 S
O92 Tb82 2.453 . S
O92 C88 1.245 . S
O93 Tb80 2.343 1_554 S
O93 Tb82 2.596 . S
O93 C88 1.259 . S
O94 Tb82 2.374 1_556 S
O94 C89 1.250 . S
O95 Tb80 2.353 . S
O95 C89 1.263 . S
C96 O97 1.275 1_554 S
C96 O98 1.246 . S
O97 Tb80 2.427 . S
O97 C96 1.275 1_556 S
O98 Tb80 2.513 1_554 S
O98 C96 1.246 . S
C99 O83 1.243 1_554 S
C99 O84 1.258 . S
Tb100 O103 2.453 1_554 S
Tb100 O104 2.596 . S
Tb100 O105 2.374 . S
Tb100 O113 2.343 . S
Tb100 O115 2.353 1_554 S
Tb100 O117 2.427 1_554 S
Tb100 O118 2.513 . S
C101 O105 1.251 . S
C101 O107 1.263 . S
Tb102 O104 2.343 . S
Tb102 O107 2.353 . S
Tb102 O110 2.427 . S
Tb102 O111 2.513 1_554 S
Tb102 O112 2.453 . S
Tb102 O113 2.596 . S
Tb102 O114 2.374 1_554 S
O103 Tb100 2.453 1_556 S
O103 C119 1.245 1_556 S
O104 Tb100 2.596 . S
O104 Tb102 2.343 . S
O104 C119 1.259 . S
O105 Tb100 2.374 . S
O105 C101 1.251 . S
C106 O110 1.275 . S
C106 O111 1.246 1_554 S
O107 C101 1.263 . S
O107 Tb102 2.353 . S
C108 O112 1.245 . S
C108 O113 1.259 . S
C109 O114 1.250 . S
C109 O115 1.263 . S
O110 Tb102 2.427 . S
O110 C106 1.275 . S
O111 Tb102 2.513 1_556 S
O111 C106 1.246 1_556 S
O112 Tb102 2.453 . S
O112 C108 1.245 . S
O113 Tb100 2.343 . S
O113 Tb102 2.596 . S
O113 C108 1.259 . S
O114 Tb102 2.374 1_556 S
O114 C109 1.250 . S
O115 Tb100 2.353 1_556 S
O115 C109 1.263 . S
C116 O117 1.275 1_554 S
C116 O118 1.246 . S
O117 Tb100 2.427 1_556 S
O117 C116 1.275 1_556 S
O118 Tb100 2.513 . S
O118 C116 1.246 . S
C119 O103 1.245 1_554 S
C119 O104 1.259 . S
Tb120 O123 2.453 . S
Tb120 O124 2.596 . S
Tb120 O125 2.374 . S
Tb120 O133 2.343 . S
Tb120 O135 2.353 . S
Tb120 O137 2.427 . S
Tb120 O138 2.513 . S
C121 O125 1.251 . S
C121 O127 1.263 . S
Tb122 O124 2.343 . S
Tb122 O127 2.353 . S
Tb122 O130 2.427 . S
Tb122 O131 2.513 . S
Tb122 O132 2.453 . S
Tb122 O133 2.596 . S
Tb122 O134 2.374 . S
O123 Tb120 2.453 . S
O123 C139 1.245 . S
O124 Tb120 2.596 . S
O124 Tb122 2.343 . S
O124 C139 1.259 . S
O125 Tb120 2.374 . S
O125 C121 1.251 . S
C126 O130 1.275 . S
C126 O131 1.246 . S
O127 C121 1.263 . S
O127 Tb122 2.353 . S
C128 O132 1.245 . S
C128 O133 1.259 . S
C129 O134 1.250 . S
C129 O135 1.263 . S
O130 Tb122 2.427 . S
O130 C126 1.275 . S
O131 Tb122 2.513 . S
O131 C126 1.246 . S
O132 Tb122 2.453 . S
O132 C128 1.245 . S
O133 Tb120 2.343 . S
O133 Tb122 2.596 . S
O133 C128 1.259 . S
O134 Tb122 2.374 . S
O134 C129 1.250 . S
O135 Tb120 2.353 . S
O135 C129 1.263 . S
C136 O137 1.275 . S
C136 O138 1.246 . S
O137 Tb120 2.427 . S
O137 C136 1.275 . S
O138 Tb120 2.513 . S
O138 C136 1.246 . S
C139 O123 1.245 . S
C139 O124 1.259 . S
Tb140 O143 2.453 . S
Tb140 O144 2.596 . S
Tb140 O145 2.374 . S
Tb140 O153 2.343 . S
Tb140 O155 2.353 . S
Tb140 O157 2.427 . S
Tb140 O158 2.513 . S
C141 O145 1.251 . S
C141 O147 1.263 . S
Tb142 O144 2.343 . S
Tb142 O147 2.353 . S
Tb142 O150 2.427 . S
Tb142 O151 2.513 . S
Tb142 O152 2.453 . S
Tb142 O153 2.596 . S
Tb142 O154 2.374 . S
O143 Tb140 2.453 . S
O143 C159 1.245 . S
O144 Tb140 2.596 . S
O144 Tb142 2.343 . S
O144 C159 1.259 . S
O145 Tb140 2.374 . S
O145 C141 1.251 . S
C146 O150 1.275 . S
C146 O151 1.246 . S
O147 C141 1.263 . S
O147 Tb142 2.353 . S
C148 O152 1.245 . S
C148 O153 1.259 . S
C149 O154 1.250 . S
C149 O155 1.263 . S
O150 Tb142 2.427 . S
O150 C146 1.275 . S
O151 Tb142 2.513 . S
O151 C146 1.246 . S
O152 Tb142 2.453 . S
O152 C148 1.245 . S
O153 Tb140 2.343 . S
O153 Tb142 2.596 . S
O153 C148 1.259 . S
O154 Tb142 2.374 . S
O154 C149 1.250 . S
O155 Tb140 2.353 . S
O155 C149 1.263 . S
C156 O157 1.275 . S
C156 O158 1.246 . S
O157 Tb140 2.427 . S
O157 C156 1.275 . S
O158 Tb140 2.513 . S
O158 C156 1.246 . S
C159 O143 1.245 . S
C159 O144 1.259 . S
H160 C166 0.930 . S
H161 C170 0.930 . S
H162 C175 0.929 . S
H163 C173 0.929 . S
H164 C168 0.929 . S
H165 C174 0.929 . S
C166 H160 0.930 . S
C166 C167 1.367 . S
C166 C174 1.378 . S
C167 C166 1.367 . S
C167 C175 1.433 1_554 S
C168 H164 0.929 . S
C168 C170 1.378 . S
C168 C172 1.350 1_556 S
C169 C172 1.463 . S
C169 C174 1.350 . S
C169 N177 1.427 1_554 S
C170 H161 0.930 . S
C170 C168 1.378 . S
C170 C171 1.367 1_556 S
C171 C170 1.367 1_554 S
C171 C173 1.433 . S
C172 C168 1.350 1_554 S
C172 C169 1.463 . S
C172 N176 1.427 . S
C173 H163 0.929 . S
C173 C171 1.433 . S
C173 N176 1.384 . S
C174 H165 0.929 . S
C174 C166 1.378 . S
C174 C169 1.350 . S
C175 H162 0.929 . S
C175 C167 1.433 1_556 S
C175 N177 1.384 . S
N176 C172 1.427 . S
N176 C173 1.384 . S
N177 C169 1.427 1_556 S
N177 C175 1.384 . S
H178 C184 0.930 . S
H179 C188 0.930 . S
H180 C193 0.929 . S
H181 C191 0.929 . S
H182 C186 0.929 . S
H183 C192 0.929 . S
C184 H178 0.930 . S
C184 C185 1.367 1_556 S
C184 C192 1.378 . S
C185 C184 1.367 1_554 S
C185 C193 1.433 . S
C186 H182 0.929 . S
C186 C188 1.378 . S
C186 C190 1.350 . S
C187 C190 1.463 . S
C187 C192 1.350 1_554 S
C187 N195 1.427 . S
C188 H179 0.930 . S
C188 C186 1.378 . S
C188 C189 1.367 . S
C189 C188 1.367 . S
C189 C191 1.433 1_554 S
C190 C186 1.350 . S
C190 C187 1.463 . S
C190 N194 1.427 1_554 S
C191 H181 0.929 . S
C191 C189 1.433 1_556 S
C191 N194 1.384 . S
C192 H183 0.929 . S
C192 C184 1.378 . S
C192 C187 1.350 1_556 S
C193 H180 0.929 . S
C193 C185 1.433 . S
C193 N195 1.384 . S
N194 C190 1.427 1_556 S
N194 C191 1.384 . S
N195 C187 1.427 . S
N195 C193 1.384 . S
H196 C202 0.930 . S
H197 C206 0.930 . S
H198 C211 0.929 . S
H199 C209 0.929 . S
H200 C204 0.929 . S
H201 C210 0.929 . S
C202 H196 0.930 . S
C202 C203 1.367 . S
C202 C210 1.378 . S
C203 C202 1.367 . S
C203 C211 1.433 . S
C204 H200 0.929 . S
C204 C206 1.378 . S
C204 C208 1.350 . S
C205 C208 1.463 . S
C205 C210 1.350 . S
C205 N213 1.427 . S
C206 H197 0.930 . S
C206 C204 1.378 . S
C206 C207 1.367 . S
C207 C206 1.367 . S
C207 C209 1.433 . S
C208 C204 1.350 . S
C208 C205 1.463 . S
C208 N212 1.427 . S
C209 H199 0.929 . S
C209 C207 1.433 . S
C209 N212 1.384 . S
C210 H201 0.929 . S
C210 C202 1.378 . S
C210 C205 1.350 . S
C211 H198 0.929 . S
C211 C203 1.433 . S
C211 N213 1.384 . S
N212 C208 1.427 . S
N212 C209 1.384 . S
N213 C205 1.427 . S
N213 C211 1.384 . S
H214 C220 0.930 . S
H215 C224 0.930 . S
H216 C229 0.929 . S
H217 C227 0.929 . S
H218 C222 0.929 . S
H219 C228 0.929 . S
C220 H214 0.930 . S
C220 C221 1.367 . S
C220 C228 1.378 . S
C221 C220 1.367 . S
C221 C229 1.433 . S
C222 H218 0.929 . S
C222 C224 1.378 . S
C222 C226 1.350 . S
C223 C226 1.463 . S
C223 C228 1.350 . S
C223 N231 1.427 . S
C224 H215 0.930 . S
C224 C222 1.378 . S
C224 C225 1.367 . S
C225 C224 1.367 . S
C225 C227 1.433 . S
C226 C222 1.350 . S
C226 C223 1.463 . S
C226 N230 1.427 . S
C227 H217 0.929 . S
C227 C225 1.433 . S
C227 N230 1.384 . S
C228 H219 0.929 . S
C228 C220 1.378 . S
C228 C223 1.350 . S
C229 H216 0.929 . S
C229 C221 1.433 . S
C229 N231 1.384 . S
N230 C226 1.427 . S
N230 C227 1.384 . S
N231 C223 1.427 . S
N231 C229 1.384 . S
H232 C238 0.930 . S
H233 C242 0.930 . S
H234 C247 0.929 . S
H235 C245 0.929 . S
H236 C240 0.929 . S
H237 C246 0.929 1_455 S
C238 H232 0.930 . S
C238 C239 1.367 1_556 S
C238 C246 1.378 . S
C239 C238 1.367 1_554 S
C239 C247 1.433 . S
C240 H236 0.929 . S
C240 C242 1.378 . S
C240 C244 1.350 . S
C241 C244 1.463 . S
C241 C246 1.350 1_454 S
C241 N249 1.427 1_455 S
C242 H233 0.930 . S
C242 C240 1.378 . S
C242 C243 1.367 . S
C243 C242 1.367 . S
C243 C245 1.433 1_554 S
C244 C240 1.350 . S
C244 C241 1.463 . S
C244 N248 1.427 1_554 S
C245 H235 0.929 . S
C245 C243 1.433 1_556 S
C245 N248 1.384 . S
C246 H237 0.929 1_655 S
C246 C238 1.378 . S
C246 C241 1.350 1_656 S
C247 H234 0.929 . S
C247 C239 1.433 . S
C247 N249 1.384 . S
N248 C244 1.427 1_556 S
N248 C245 1.384 . S
N249 C241 1.427 1_655 S
N249 C247 1.384 . S
H250 C256 0.930 . S
H251 C260 0.930 . S
H252 C265 0.929 . S
H253 C263 0.929 . S
H254 C258 0.929 . S
H255 C264 0.929 1_655 S
C256 H250 0.930 . S
C256 C257 1.367 . S
C256 C264 1.378 . S
C257 C256 1.367 . S
C257 C265 1.433 1_554 S
C258 H254 0.929 . S
C258 C260 1.378 . S
C258 C262 1.350 1_556 S
C259 C262 1.463 . S
C259 C264 1.350 1_655 S
C259 N267 1.427 1_654 S
C260 H251 0.930 . S
C260 C258 1.378 . S
C260 C261 1.367 1_556 S
C261 C260 1.367 1_554 S
C261 C263 1.433 . S
C262 C258 1.350 1_554 S
C262 C259 1.463 . S
C262 N266 1.427 . S
C263 H253 0.929 . S
C263 C261 1.433 . S
C263 N266 1.384 . S
C264 H255 0.929 1_455 S
C264 C256 1.378 . S
C264 C259 1.350 1_455 S
C265 H252 0.929 . S
C265 C257 1.433 1_556 S
C265 N267 1.384 . S
N266 C262 1.427 . S
N266 C263 1.384 . S
N267 C259 1.427 1_456 S
N267 C265 1.384 . S
H268 C274 0.930 . S
H269 C278 0.930 . S
H270 C283 0.929 . S
H271 C281 0.929 . S
H272 C276 0.929 1_455 S
H273 C282 0.929 . S
C274 H268 0.930 . S
C274 C275 1.367 . S
C274 C282 1.378 . S
C275 C274 1.367 . S
C275 C283 1.433 . S
C276 H272 0.929 1_655 S
C276 C278 1.378 . S
C276 C280 1.350 1_655 S
C277 C280 1.463 . S
C277 C282 1.350 . S
C277 N285 1.427 . S
C278 H269 0.930 . S
C278 C276 1.378 . S
C278 C279 1.367 . S
C279 C278 1.367 . S
C279 C281 1.433 . S
C280 C276 1.350 1_455 S
C280 C277 1.463 . S
C280 N284 1.427 1_455 S
C281 H271 0.929 . S
C281 C279 1.433 . S
C281 N284 1.384 . S
C282 H273 0.929 . S
C282 C274 1.378 . S
C282 C277 1.350 . S
C283 H270 0.929 . S
C283 C275 1.433 . S
C283 N285 1.384 . S
N284 C280 1.427 1_655 S
N284 C281 1.384 . S
N285 C277 1.427 . S
N285 C283 1.384 . S
H286 C292 0.930 . S
H287 C296 0.930 . S
H288 C301 0.929 . S
H289 C299 0.929 . S
H290 C294 0.929 1_655 S
H291 C300 0.929 . S
C292 H286 0.930 . S
C292 C293 1.367 . S
C292 C300 1.378 . S
C293 C292 1.367 . S
C293 C301 1.433 . S
C294 H290 0.929 1_455 S
C294 C296 1.378 . S
C294 C298 1.350 1_455 S
C295 C298 1.463 . S
C295 C300 1.350 . S
C295 N303 1.427 . S
C296 H287 0.930 . S
C296 C294 1.378 . S
C296 C297 1.367 . S
C297 C296 1.367 . S
C297 C299 1.433 . S
C298 C294 1.350 1_655 S
C298 C295 1.463 . S
C298 N302 1.427 1_655 S
C299 H289 0.929 . S
C299 C297 1.433 . S
C299 N302 1.384 . S
C300 H291 0.929 . S
C300 C292 1.378 . S
C300 C295 1.350 . S
C301 H288 0.929 . S
C301 C293 1.433 . S
C301 N303 1.384 . S
N302 C298 1.427 1_455 S
N302 C299 1.384 . S
N303 C295 1.427 . S
N303 C301 1.384 . S
H304 C310 0.930 . S
H305 C314 0.930 . S
H306 C319 0.929 . S
H307 C317 0.929 . S
H308 C312 0.929 . S
H309 C318 0.929 . S
C310 H304 0.930 . S
C310 C311 1.367 1_655 S
C310 C318 1.378 . S
C311 C310 1.367 1_455 S
C311 C319 1.433 1_554 S
C312 H308 0.929 . S
C312 C314 1.378 . S
C312 C316 1.350 1_456 S
C313 C316 1.463 1_455 S
C313 C318 1.350 1_455 S
C313 N321 1.427 1_554 S
C314 H305 0.930 . S
C314 C312 1.378 . S
C314 C315 1.367 1_456 S
C315 C314 1.367 1_654 S
C315 C317 1.433 . S
C316 C312 1.350 1_654 S
C316 C313 1.463 1_655 S
C316 N320 1.427 . S
C317 H307 0.929 . S
C317 C315 1.433 . S
C317 N320 1.384 . S
C318 H309 0.929 . S
C318 C310 1.378 . S
C318 C313 1.350 1_655 S
C319 H306 0.929 . S
C319 C311 1.433 1_556 S
C319 N321 1.384 . S
N320 C316 1.427 . S
N320 C317 1.384 . S
N321 C313 1.427 1_556 S
N321 C319 1.384 . S
H322 C328 0.930 . S
H323 C332 0.930 . S
H324 C337 0.929 . S
H325 C335 0.929 . S
H326 C330 0.929 . S
H327 C336 0.929 . S
C328 H322 0.930 . S
C328 C329 1.367 1_655 S
C328 C336 1.378 . S
C329 C328 1.367 1_455 S
C329 C337 1.433 . S
C330 H326 0.929 . S
C330 C332 1.378 . S
C330 C334 1.343 1_455 S
C331 C334 1.462 1_455 S
C331 C336 1.343 1_455 S
C331 N339 1.435 . S
C332 H323 0.930 . S
C332 C330 1.378 . S
C332 C333 1.367 1_455 S
C333 C332 1.367 1_655 S
C333 C335 1.433 . S
C334 C330 1.343 1_655 S
C334 C331 1.462 1_655 S
C334 N338 1.435 . S
C335 H325 0.929 . S
C335 C333 1.433 . S
C335 N338 1.384 . S
C336 H327 0.929 . S
C336 C328 1.378 . S
C336 C331 1.343 1_655 S
C337 H324 0.929 . S
C337 C329 1.433 . S
C337 N339 1.384 . S
N338 C334 1.435 . S
N338 C335 1.384 . S
N339 C331 1.435 . S
N339 C337 1.384 . S
H340 C346 0.930 . S
H341 C350 0.930 . S
H342 C355 0.929 . S
H343 C353 0.929 . S
H344 C348 0.929 . S
H345 C354 0.929 . S
C346 H340 0.930 . S
C346 C347 1.367 1_556 S
C346 C354 1.378 . S
C347 C346 1.367 1_554 S
C347 C355 1.433 . S
C348 H344 0.929 . S
C348 C350 1.378 . S
C348 C352 1.350 . S
C349 C352 1.463 1_565 S
C349 C354 1.350 1_554 S
C349 N357 1.427 . S
C350 H341 0.930 . S
C350 C348 1.378 . S
C350 C351 1.367 . S
C351 C350 1.367 . S
C351 C353 1.433 1_554 S
C352 C348 1.350 . S
C352 C349 1.463 1_545 S
C352 N356 1.427 1_554 S
C353 H343 0.929 . S
C353 C351 1.433 1_556 S
C353 N356 1.384 . S
C354 H345 0.929 . S
C354 C346 1.378 . S
C354 C349 1.350 1_556 S
C355 H342 0.929 . S
C355 C347 1.433 . S
C355 N357 1.384 . S
N356 C352 1.427 1_556 S
N356 C353 1.384 . S
N357 C349 1.427 . S
N357 C355 1.384 . S
H358 C364 0.930 . S
H359 C368 0.930 . S
H360 C373 0.929 . S
H361 C371 0.929 . S
H362 C366 0.929 . S
H363 C372 0.929 . S
C364 H358 0.930 . S
C364 C365 1.367 . S
C364 C372 1.378 . S
C365 C364 1.367 . S
C365 C373 1.433 . S
C366 H362 0.929 . S
C366 C368 1.378 . S
C366 C370 1.350 . S
C367 C370 1.463 1_545 S
C367 C372 1.350 . S
C367 N375 1.427 . S
C368 H359 0.930 . S
C368 C366 1.378 . S
C368 C369 1.367 . S
C369 C368 1.367 . S
C369 C371 1.433 . S
C370 C366 1.350 . S
C370 C367 1.463 1_565 S
C370 N374 1.427 . S
C371 H361 0.929 . S
C371 C369 1.433 . S
C371 N374 1.384 . S
C372 H363 0.929 . S
C372 C364 1.378 . S
C372 C367 1.350 . S
C373 H360 0.929 . S
C373 C365 1.433 . S
C373 N375 1.384 . S
N374 C370 1.427 . S
N374 C371 1.384 . S
N375 C367 1.427 . S
N375 C373 1.384 . S
H376 C382 0.930 . S
H377 C386 0.930 . S
H378 C391 0.929 . S
H379 C389 0.929 . S
H380 C384 0.929 . S
H381 C390 0.929 . S
C382 H376 0.930 . S
C382 C383 1.367 . S
C382 C390 1.378 . S
C383 C382 1.367 . S
C383 C391 1.433 1_554 S
C384 H380 0.929 . S
C384 C386 1.378 . S
C384 C388 1.350 1_556 S
C385 C388 1.463 . S
C385 C390 1.350 . S
C385 N393 1.427 1_554 S
C386 H377 0.930 . S
C386 C384 1.378 . S
C386 C387 1.367 1_556 S
C387 C386 1.367 1_554 S
C387 C389 1.433 . S
C388 C384 1.350 1_554 S
C388 C385 1.463 . S
C388 N392 1.427 . S
C389 H379 0.929 . S
C389 C387 1.433 . S
C389 N392 1.384 . S
C390 H381 0.929 . S
C390 C382 1.378 . S
C390 C385 1.350 . S
C391 H378 0.929 . S
C391 C383 1.433 1_556 S
C391 N393 1.384 . S
N392 C388 1.427 . S
N392 C389 1.384 . S
N393 C385 1.427 1_556 S
N393 C391 1.384 . S
H394 C400 0.930 . S
H395 C404 0.930 . S
H396 C409 0.929 . S
H397 C407 0.929 . S
H398 C402 0.929 . S
H399 C408 0.929 . S
C400 H394 0.930 . S
C400 C401 1.367 1_556 S
C400 C408 1.378 . S
C401 C400 1.367 1_554 S
C401 C409 1.433 . S
C402 H398 0.929 . S
C402 C404 1.378 . S
C402 C406 1.350 . S
C403 C406 1.463 . S
C403 C408 1.350 1_554 S
C403 N411 1.427 . S
C404 H395 0.930 . S
C404 C402 1.378 . S
C404 C405 1.367 . S
C405 C404 1.367 . S
C405 C407 1.433 1_554 S
C406 C402 1.350 . S
C406 C403 1.463 . S
C406 N410 1.427 1_554 S
C407 H397 0.929 . S
C407 C405 1.433 1_556 S
C407 N410 1.384 . S
C408 H399 0.929 . S
C408 C400 1.378 . S
C408 C403 1.350 1_556 S
C409 H396 0.929 . S
C409 C401 1.433 . S
C409 N411 1.384 . S
N410 C406 1.427 1_556 S
N410 C407 1.384 . S
N411 C403 1.427 . S
N411 C409 1.384 . S
H412 C418 0.930 . S
H413 C422 0.930 . S
H414 C427 0.929 . S
H415 C425 0.929 . S
H416 C420 0.929 . S
H417 C426 0.929 . S
C418 H412 0.930 . S
C418 C419 1.367 . S
C418 C426 1.378 . S
C419 C418 1.367 . S
C419 C427 1.433 . S
C420 H416 0.929 . S
C420 C422 1.378 . S
C420 C424 1.350 . S
C421 C424 1.463 . S
C421 C426 1.350 . S
C421 N429 1.427 . S
C422 H413 0.930 . S
C422 C420 1.378 . S
C422 C423 1.367 . S
C423 C422 1.367 . S
C423 C425 1.433 . S
C424 C420 1.350 . S
C424 C421 1.463 . S
C424 N428 1.427 . S
C425 H415 0.929 . S
C425 C423 1.433 . S
C425 N428 1.384 . S
C426 H417 0.929 . S
C426 C418 1.378 . S
C426 C421 1.350 . S
C427 H414 0.929 . S
C427 C419 1.433 . S
C427 N429 1.384 . S
N428 C424 1.427 . S
N428 C425 1.384 . S
N429 C421 1.427 . S
N429 C427 1.384 . S
H430 C436 0.930 . S
H431 C440 0.930 . S
H432 C445 0.929 . S
H433 C443 0.929 . S
H434 C438 0.929 . S
H435 C444 0.929 . S
C436 H430 0.930 . S
C436 C437 1.367 . S
C436 C444 1.378 . S
C437 C436 1.367 . S
C437 C445 1.433 . S
C438 H434 0.929 . S
C438 C440 1.378 . S
C438 C442 1.350 . S
C439 C442 1.463 . S
C439 C444 1.350 . S
C439 N447 1.427 . S
C440 H431 0.930 . S
C440 C438 1.378 . S
C440 C441 1.367 . S
C441 C440 1.367 . S
C441 C443 1.433 . S
C442 C438 1.350 . S
C442 C439 1.463 . S
C442 N446 1.427 . S
C443 H433 0.929 . S
C443 C441 1.433 . S
C443 N446 1.384 . S
C444 H435 0.929 . S
C444 C436 1.378 . S
C444 C439 1.350 . S
C445 H432 0.929 . S
C445 C437 1.433 . S
C445 N447 1.384 . S
N446 C442 1.427 . S
N446 C443 1.384 . S
N447 C439 1.427 . S
N447 C445 1.384 . S
H448 C454 0.930 . S
H449 C458 0.930 1_455 S
H450 C463 0.929 . S
H451 C461 0.929 . S
H452 C456 0.929 . S
H453 C462 0.929 . S
C454 H448 0.930 . S
C454 C455 1.367 . S
C454 C462 1.378 1_455 S
C455 C454 1.367 . S
C455 C463 1.433 . S
C456 H452 0.929 . S
C456 C458 1.378 1_455 S
C456 C460 1.350 1_455 S
C457 C460 1.463 1_455 S
C457 C462 1.350 1_455 S
C457 N465 1.427 . S
C458 H449 0.930 1_655 S
C458 C456 1.378 1_655 S
C458 C459 1.367 . S
C459 C458 1.367 . S
C459 C461 1.433 . S
C460 C456 1.350 1_655 S
C460 C457 1.463 1_655 S
C460 N464 1.427 . S
C461 H451 0.929 . S
C461 C459 1.433 . S
C461 N464 1.384 . S
C462 H453 0.929 . S
C462 C454 1.378 1_655 S
C462 C457 1.350 1_655 S
C463 H450 0.929 . S
C463 C455 1.433 . S
C463 N465 1.384 . S
N464 C460 1.427 . S
N464 C461 1.384 . S
N465 C457 1.427 . S
N465 C463 1.384 . S
H466 C472 0.930 . S
H467 C476 0.930 . S
H468 C481 0.929 . S
H469 C479 0.929 . S
H470 C474 0.929 . S
H471 C480 0.929 . S
C472 H466 0.930 . S
C472 C473 1.367 . S
C472 C480 1.378 . S
C473 C472 1.367 . S
C473 C481 1.433 1_655 S
C474 H470 0.929 . S
C474 C476 1.378 . S
C474 C478 1.350 . S
C475 C478 1.463 1_655 S
C475 C480 1.350 . S
C475 N483 1.427 1_655 S
C476 H467 0.930 . S
C476 C474 1.378 . S
C476 C477 1.367 . S
C477 C476 1.367 . S
C477 C479 1.433 1_455 S
C478 C474 1.350 . S
C478 C475 1.463 1_455 S
C478 N482 1.427 1_455 S
C479 H469 0.929 . S
C479 C477 1.433 1_655 S
C479 N482 1.384 . S
C480 H471 0.929 . S
C480 C472 1.378 . S
C480 C475 1.350 . S
C481 H468 0.929 . S
C481 C473 1.433 1_455 S
C481 N483 1.384 . S
N482 C478 1.427 1_655 S
N482 C479 1.384 . S
N483 C475 1.427 1_455 S
N483 C481 1.384 . S
H484 C490 0.930 . S
H485 C494 0.930 . S
H486 C499 0.929 . S
H487 C497 0.929 . S
H488 C492 0.929 . S
H489 C498 0.929 . S
C490 H484 0.930 . S
C490 C491 1.367 . S
C490 C498 1.378 . S
C491 C490 1.367 . S
C491 C499 1.433 1_655 S
C492 H488 0.929 . S
C492 C494 1.378 . S
C492 C496 1.350 . S
C493 C496 1.463 1_655 S
C493 C498 1.350 . S
C493 N501 1.427 1_655 S
C494 H485 0.930 . S
C494 C492 1.378 . S
C494 C495 1.367 . S
C495 C494 1.367 . S
C495 C497 1.433 1_455 S
C496 C492 1.350 . S
C496 C493 1.463 1_455 S
C496 N500 1.427 1_455 S
C497 H487 0.929 . S
C497 C495 1.433 1_655 S
C497 N500 1.384 . S
C498 H489 0.929 . S
C498 C490 1.378 . S
C498 C493 1.350 . S
C499 H486 0.929 . S
C499 C491 1.433 1_455 S
C499 N501 1.384 . S
N500 C496 1.427 1_655 S
N500 C497 1.384 . S
N501 C493 1.427 1_455 S
N501 C499 1.384 . S
H502 C508 0.930 1_455 S
H503 C512 0.930 . S
H504 C517 0.929 . S
H505 C515 0.929 . S
H506 C510 0.929 . S
H507 C516 0.929 . S
C508 H502 0.930 1_655 S
C508 C509 1.367 . S
C508 C516 1.378 1_655 S
C509 C508 1.367 . S
C509 C517 1.433 . S
C510 H506 0.929 . S
C510 C512 1.378 . S
C510 C514 1.350 1_655 S
C511 C514 1.463 1_655 S
C511 C516 1.350 1_655 S
C511 N519 1.427 . S
C512 H503 0.930 . S
C512 C510 1.378 . S
C512 C513 1.367 1_655 S
C513 C512 1.367 1_455 S
C513 C515 1.433 . S
C514 C510 1.350 1_455 S
C514 C511 1.463 1_455 S
C514 N518 1.427 . S
C515 H505 0.929 . S
C515 C513 1.433 . S
C515 N518 1.384 . S
C516 H507 0.929 . S
C516 C508 1.378 1_455 S
C516 C511 1.350 1_455 S
C517 H504 0.929 . S
C517 C509 1.433 . S
C517 N519 1.384 . S
N518 C514 1.427 . S
N518 C515 1.384 . S
N519 C511 1.427 . S
N519 C517 1.384 . S
H520 C526 0.930 . S
H521 C530 0.930 . S
H522 C535 0.929 . S
H523 C533 0.929 . S
H524 C528 0.929 . S
H525 C534 0.929 . S
C526 H520 0.930 . S
C526 C527 1.367 . S
C526 C534 1.378 . S
C527 C526 1.367 . S
C527 C535 1.433 . S
C528 H524 0.929 . S
C528 C530 1.378 . S
C528 C532 1.350 . S
C529 C532 1.463 . S
C529 C534 1.350 . S
C529 N537 1.427 . S
C530 H521 0.930 . S
C530 C528 1.378 . S
C530 C531 1.367 . S
C531 C530 1.367 . S
C531 C533 1.433 . S
C532 C528 1.350 . S
C532 C529 1.463 . S
C532 N536 1.427 . S
C533 H523 0.929 . S
C533 C531 1.433 . S
C533 N536 1.384 . S
C534 H525 0.929 . S
C534 C526 1.378 . S
C534 C529 1.350 . S
C535 H522 0.929 . S
C535 C527 1.433 . S
C535 N537 1.384 . S
N536 C532 1.427 . S
N536 C533 1.384 . S
N537 C529 1.427 . S
N537 C535 1.384 . S
H538 C544 0.930 . S
H539 C548 0.930 . S
H540 C553 0.929 . S
H541 C551 0.929 . S
H542 C546 0.929 . S
H543 C552 0.929 . S
C544 H538 0.930 . S
C544 C545 1.367 . S
C544 C552 1.378 . S
C545 C544 1.367 . S
C545 C553 1.433 . S
C546 H542 0.929 . S
C546 C548 1.378 . S
C546 C550 1.350 . S
C547 C550 1.463 . S
C547 C552 1.350 . S
C547 N555 1.427 . S
C548 H539 0.930 . S
C548 C546 1.378 . S
C548 C549 1.367 . S
C549 C548 1.367 . S
C549 C551 1.433 . S
C550 C546 1.350 . S
C550 C547 1.463 . S
C550 N554 1.427 . S
C551 H541 0.929 . S
C551 C549 1.433 . S
C551 N554 1.384 . S
C552 H543 0.929 . S
C552 C544 1.378 . S
C552 C547 1.350 . S
C553 H540 0.929 . S
C553 C545 1.433 . S
C553 N555 1.384 . S
N554 C550 1.427 . S
N554 C551 1.384 . S
N555 C547 1.427 . S
N555 C553 1.384 . S
H556 C562 0.930 . S
H557 C566 0.930 . S
H558 C571 0.929 . S
H559 C569 0.929 . S
H560 C564 0.929 . S
H561 C570 0.929 . S
C562 H556 0.930 . S
C562 C563 1.367 . S
C562 C570 1.378 . S
C563 C562 1.367 . S
C563 C571 1.433 . S
C564 H560 0.929 . S
C564 C566 1.378 . S
C564 C568 1.350 . S
C565 C568 1.463 . S
C565 C570 1.350 . S
C565 N573 1.427 . S
C566 H557 0.930 . S
C566 C564 1.378 . S
C566 C567 1.367 . S
C567 C566 1.367 . S
C567 C569 1.433 . S
C568 C564 1.350 . S
C568 C565 1.463 . S
C568 N572 1.427 . S
C569 H559 0.929 . S
C569 C567 1.433 . S
C569 N572 1.384 . S
C570 H561 0.929 . S
C570 C562 1.378 . S
C570 C565 1.350 . S
C571 H558 0.929 . S
C571 C563 1.433 . S
C571 N573 1.384 . S
N572 C568 1.427 . S
N572 C569 1.384 . S
N573 C565 1.427 . S
N573 C571 1.384 . S
H574 C580 0.930 . S
H575 C584 0.930 . S
H576 C589 0.929 . S
H577 C587 0.929 . S
H578 C582 0.929 . S
H579 C588 0.929 . S
C580 H574 0.930 . S
C580 C581 1.367 . S
C580 C588 1.378 . S
C581 C580 1.367 . S
C581 C589 1.433 . S
C582 H578 0.929 . S
C582 C584 1.378 . S
C582 C586 1.350 . S
C583 C586 1.463 . S
C583 C588 1.350 . S
C583 N591 1.427 . S
C584 H575 0.930 . S
C584 C582 1.378 . S
C584 C585 1.367 . S
C585 C584 1.367 . S
C585 C587 1.433 . S
C586 C582 1.350 . S
C586 C583 1.463 . S
C586 N590 1.427 . S
C587 H577 0.929 . S
C587 C585 1.433 . S
C587 N590 1.384 . S
C588 H579 0.929 . S
C588 C580 1.378 . S
C588 C583 1.350 . S
C589 H576 0.929 . S
C589 C581 1.433 . S
C589 N591 1.384 . S
N590 C586 1.427 . S
N590 C587 1.384 . S
N591 C583 1.427 . S
N591 C589 1.384 . S
C167 C6 1.644 . S
C171 C16 1.644 . S
C185 C26 1.645 . S
C189 C36 1.645 . S
C203 C56 1.638 . S
C207 C46 1.638 . S
C221 C76 1.645 . S
C225 C66 1.645 . S
C239 C86 1.646 . S
C243 C96 1.646 . S
C257 C116 1.644 . S
C261 C106 1.644 . S
C275 C136 1.638 . S
C279 C126 1.638 . S
C293 C146 1.641 . S
C297 C156 1.641 . S
C311 C39 1.584 1_455 S
C315 C8 1.584 1_655 S
C329 C79 1.577 1_455 S
C333 C48 1.577 1_655 S
C347 C88 1.596 . S
C351 C119 1.596 . S
C365 C128 1.596 . S
C369 C159 1.596 . S
C383 C19 1.542 . S
C387 C108 1.539 . S
C401 C99 1.531 . S
C405 C28 1.528 . S
C419 C59 1.527 . S
C423 C148 1.527 . S
C437 C68 1.539 . S
C441 C139 1.539 . S
C455 C1 1.573 . S
C459 C61 1.614 . S
C473 C21 1.611 . S
C477 C41 1.577 . S
C491 C29 1.579 . S
C495 C49 1.613 . S
C509 C69 1.568 . S
C513 C9 1.609 . S
C527 C81 1.580 . S
C531 C141 1.614 . S
C545 C101 1.609 . S
C549 C121 1.569 . S
C563 C109 1.570 . S
C567 C129 1.612 . S
C581 C149 1.568 . S
C585 C89 1.609 . S
