# Generated by pormake.
# Topology bsn, (6)-cn, num edge types: 1
# Building blocks:
#     Node 0, Type 0, BuildingBlock: BETDEL_clean_sbu_0, # of connection points: 6
#     Node 1, Type 0, BuildingBlock: BETDEL_clean_sbu_0, # of connection points: 6
#     Node 2, Type 0, BuildingBlock: BETDEL_clean_sbu_0, # of connection points: 6
#     Node 3, Type 0, BuildingBlock: BETDEL_clean_sbu_0, # of connection points: 6
#     Edge 4, Type (0, 0), BuildingBlock: CIFDUS_clean_linker_0, # of connection points: 2
#     Edge 5, Type (0, 0), BuildingBlock: CIFDUS_clean_linker_0, # of connection points: 2
#     Edge 6, Type (0, 0), BuildingBlock: CIFDUS_clean_linker_0, # of connection points: 2
#     Edge 7, Type (0, 0), BuildingBlock: CIFDUS_clean_linker_0, # of connection points: 2
#     Edge 8, Type (0, 0), BuildingBlock: CIFDUS_clean_linker_0, # of connection points: 2
#     Edge 9, Type (0, 0), BuildingBlock: CIFDUS_clean_linker_0, # of connection points: 2
#     Edge 10, Type (0, 0), BuildingBlock: CIFDUS_clean_linker_0, # of connection points: 2
#     Edge 11, Type (0, 0), BuildingBlock: CIFDUS_clean_linker_0, # of connection points: 2
#     Edge 12, Type (0, 0), BuildingBlock: CIFDUS_clean_linker_0, # of connection points: 2
#     Edge 13, Type (0, 0), BuildingBlock: CIFDUS_clean_linker_0, # of connection points: 2
#     Edge 14, Type (0, 0), BuildingBlock: CIFDUS_clean_linker_0, # of connection points: 2
#     Edge 15, Type (0, 0), BuildingBlock: CIFDUS_clean_linker_0, # of connection points: 2
# Relax obj value: 0.363
# Max RMSD: 0.266
# Mean RMSD: 0.266
data_MOF--net-bsn--node1-BETDEL_clean_sbu_0--edge1-CIFDUS_clean_linker_0
_symmetry_space_group_name_H-M    P1
_symmetry_Int_Tables_number       1
_symmetry_cell_setting            triclinic
loop_
_symmetry_equiv_pos_as_xyz
'x, y, z'
_cell_length_a     29.086981
_cell_length_b     28.928389
_cell_length_c     12.499756
_cell_angle_alpha  93.675423
_cell_angle_beta   91.424161
_cell_angle_gamma 90.052156
loop_
_atom_site_label
_atom_site_type_symbol
_atom_site_fract_x
_atom_site_fract_y
_atom_site_fract_z
_atom_type_partial_charge
Dy0 Dy 0.06808 0.26483 0.348 0.0
C1 C 0.86849 0.26479 0.36892 0.0
C2 C 0.15451 0.27558 0.27291 0.0
Dy3 Dy 0.96208 0.26589 0.3587 0.0
O4 O 0.14449 0.25438 0.35801 0.0
O5 O 0.1172 0.29106 0.22853 0.0
O6 O 0.07675 0.23979 0.51287 0.0
O7 O 0.01879 0.27903 0.47219 0.0
C8 C 0.03627 0.25443 0.54159 0.0
C9 C 0.99765 0.2707 0.164 0.0
O10 O 0.97836 0.33651 0.43193 0.0
O11 O 0.0527 0.34229 0.37134 0.0
O12 O 0.89327 0.29911 0.34193 0.0
O13 O 0.89509 0.23096 0.39542 0.0
O14 O 0.95971 0.29039 0.19209 0.0
O15 O 1.01211 0.24671 0.23695 0.0
O16 O 0.05115 0.18885 0.31901 0.0
O17 O 0.97734 0.19179 0.38754 0.0
C18 C 1.0151 0.36172 0.41343 0.0
C19 C 1.01439 0.16823 0.35648 0.0
Dy20 Dy 1.013 0.82068 0.59683 0.0
C21 C 0.04576 0.62742 0.6144 0.0
C22 C 0.99747 0.90774 0.52906 0.0
Dy23 Dy 0.02412 0.71942 0.61089 0.0
O24 O 0.97942 0.89096 0.61233 0.0
O25 O 0.02353 0.87672 0.48185 0.0
O26 O 0.04255 0.83831 0.76052 0.0
O27 O 1.00638 0.7754 0.73058 0.0
C28 C 0.03069 0.79945 0.79887 0.0
C29 C 1.00336 0.74575 0.41221 0.0
O30 O 0.95278 0.72544 0.66701 0.0
O31 O 0.93887 0.79451 0.58899 0.0
O32 O 0.07092 0.65876 0.57462 0.0
O33 O 1.00965 0.64682 0.65679 0.0
O34 O 0.98704 0.70929 0.4519 0.0
O35 O 0.03121 0.76562 0.47881 0.0
O36 O 0.09023 0.81595 0.60224 0.0
O37 O 0.09332 0.74362 0.67047 0.0
C38 C 0.92389 0.75737 0.63554 0.0
C39 C 0.1134 0.78263 0.64777 0.0
Dy40 Dy 0.56856 0.75805 0.83271 0.0
C41 C 0.37134 0.78165 0.87513 0.0
C42 C 0.65462 0.75829 0.74955 0.0
Dy43 Dy 0.46448 0.77491 0.85442 0.0
O44 O 0.64368 0.7395 0.83722 0.0
O45 O 0.61835 0.77638 0.70636 0.0
O46 O 0.57745 0.73791 0.00191 0.0
O47 O 0.52455 0.78356 0.9605 0.0
C48 C 0.54017 0.75921 0.03269 0.0
C49 C 0.49614 0.76905 0.65467 0.0
O50 O 0.49077 0.84444 0.91442 0.0
O51 O 0.56303 0.83691 0.84099 0.0
O52 O 0.39654 0.74834 0.90977 0.0
O53 O 0.39743 0.81186 0.83422 0.0
O54 O 0.46235 0.79521 0.68451 0.0
O55 O 0.50872 0.7449 0.72937 0.0
O56 O 0.54218 0.68453 0.82122 0.0
O57 O 0.47119 0.70135 0.8966 0.0
C58 C 0.52995 0.86293 0.88553 0.0
C59 C 0.50397 0.67156 0.86794 0.0
Dy60 Dy 0.51428 0.32039 0.08557 0.0
C61 C 0.53229 0.12552 0.11221 0.0
C62 C 0.50904 0.40499 -0.00017 0.0
Dy63 Dy 0.51794 0.21844 0.10279 0.0
O64 O 0.49332 0.39571 0.0926 0.0
O65 O 0.52678 0.36801 0.95384 0.0
O66 O 0.54462 0.3368 0.24954 0.0
O67 O 0.50429 0.27646 0.22024 0.0
C68 C 0.52998 0.29896 0.28857 0.0
C69 C 0.49969 0.24533 0.90337 0.0
O70 O 0.44661 0.22965 0.15489 0.0
O71 O 0.43804 0.30165 0.08576 0.0
O72 O 0.55501 0.15273 0.0542 0.0
O73 O 0.50255 0.14944 0.16845 0.0
O74 O 0.48005 0.21067 0.94398 0.0
O75 O 0.52878 0.26316 0.97012 0.0
O76 O 0.59075 0.31004 0.09237 0.0
O77 O 0.58902 0.23749 0.15956 0.0
C78 C 0.42052 0.2649 0.1295 0.0
C79 C 0.61161 0.27509 0.13696 0.0
H80 H 0.08619 0.42499 0.421 0.0
H81 H 0.94408 0.40886 0.50525 0.0
H82 H 0.94309 0.48729 0.58554 0.0
H83 H 0.98086 0.56169 0.62749 0.0
H84 H 0.12107 0.58145 0.53646 0.0
H85 H 0.12478 0.50052 0.46571 0.0
C86 C 0.05501 0.43872 0.45654 0.0
C87 C 1.01534 0.41077 0.45651 0.0
C88 C 0.05439 0.48449 0.50282 0.0
C89 C 0.97526 0.42926 0.50354 0.0
C90 C 0.97456 0.47426 0.55015 0.0
C91 C 1.0125 0.54804 0.59393 0.0
C92 C 0.05073 0.57724 0.58796 0.0
C93 C 1.0138 0.50219 0.55018 0.0
C94 C 0.09127 0.55938 0.54263 0.0
C95 C 0.09327 0.51325 0.5014 0.0
H96 H 0.73029 0.71624 0.82502 0.0
H97 H 0.68475 0.80794 0.58575 0.0
H98 H 0.76417 0.81663 0.5283 0.0
H99 H 0.84749 0.79907 0.5497 0.0
H100 H 0.89045 0.70511 0.78778 0.0
H101 H 0.81155 0.69659 0.84169 0.0
C102 C 0.73773 0.73795 0.75993 0.0
C103 C 0.70189 0.76151 0.70994 0.0
C104 C 0.78322 0.74254 0.72721 0.0
C105 C 0.71191 0.7894 0.62543 0.0
C106 C 0.75732 0.79448 0.5928 0.0
C107 C 0.83945 0.77675 0.61318 0.0
C108 C 0.87499 0.75277 0.66421 0.0
C109 C 0.79342 0.77144 0.64368 0.0
C110 C 0.86392 0.72375 0.74613 0.0
C111 C 0.8187 0.71886 0.77756 0.0
H112 H 0.46502 0.48248 0.07453 0.0
H113 H 0.55667 0.43113 0.82883 0.0
H114 H 0.56355 0.50896 0.76458 0.0
H115 H 0.54523 0.59269 0.7824 0.0
H116 H 0.45063 0.6421 0.02461 0.0
H117 H 0.4432 0.5644 0.08536 0.0
C118 C 0.48626 0.48836 0.00656 0.0
C119 C 0.51048 0.45134 0.95691 0.0
C120 C 0.48965 0.53301 0.96938 0.0
C121 C 0.53768 0.45923 0.86844 0.0
C122 C 0.54173 0.50374 0.83182 0.0
C123 C 0.52288 0.5863 0.84805 0.0
C124 C 0.49857 0.62324 0.89858 0.0
C125 C 0.51819 0.54107 0.8823 0.0
C126 C 0.4695 0.61434 -0.01666 0.0
C127 C 0.4653 0.56986 0.01874 0.0
H128 H 0.81604 0.32747 0.27372 0.0
H129 H 0.80976 0.19423 0.4091 0.0
H130 H 0.72921 0.1856 0.34805 0.0
H131 H 0.66224 0.21466 0.24933 0.0
H132 H 0.67025 0.34703 0.10895 0.0
H133 H 0.74915 0.35687 0.17754 0.0
C134 C 0.79689 0.29676 0.29114 0.0
C135 C 0.81859 0.26157 0.34624 0.0
C136 C 0.75133 0.29157 0.25328 0.0
C137 C 0.79357 0.22185 0.36742 0.0
C138 C 0.74773 0.21681 0.33182 0.0
C139 C 0.68122 0.24562 0.23314 0.0
C140 C 0.66031 0.27995 0.17332 0.0
C141 C 0.72654 0.25115 0.27315 0.0
C142 C 0.68546 0.31993 0.15407 0.0
C143 C 0.73053 0.32571 0.19373 0.0
H144 H 0.34416 0.30936 0.04973 0.0
H145 H 0.38953 0.2203 0.29591 0.0
H146 H 0.3122 0.21691 0.36226 0.0
H147 H 0.23144 0.23746 0.35068 0.0
H148 H 0.18247 0.32376 0.10383 0.0
H149 H 0.26093 0.32998 0.03767 0.0
C150 C 0.33694 0.28936 0.11784 0.0
C151 C 0.37261 0.2648 0.16684 0.0
C152 C 0.29167 0.28691 0.15562 0.0
C153 C 0.36274 0.23897 0.25522 0.0
C154 C 0.31845 0.23709 0.2939 0.0
C155 C 0.23792 0.25773 0.28251 0.0
C156 C 0.20143 0.28017 0.23236 0.0
C157 C 0.28266 0.2606 0.24451 0.0
C158 C 0.21022 0.30617 0.14381 0.0
C159 C 0.25503 0.30972 0.10602 0.0
H160 H 0.31877 0.84065 0.76619 0.0
H161 H 0.31164 0.71715 0.94108 0.0
H162 H 0.23068 0.707 0.88632 0.0
H163 H 0.16392 0.73047 0.77985 0.0
H164 H 0.17125 0.85316 0.60145 0.0
H165 H 0.25061 0.86615 0.66579 0.0
C166 C 0.29926 0.81193 0.79375 0.0
C167 C 0.32101 0.77968 0.85771 0.0
C168 C 0.25317 0.80575 0.75978 0.0
C169 C 0.29552 0.74249 0.89227 0.0
C170 C 0.24939 0.73652 0.86027 0.0
C171 C 0.18281 0.76002 0.75445 0.0
C172 C 0.16175 0.7905 0.68464 0.0
C173 C 0.22822 0.76737 0.79217 0.0
C174 C 0.18667 0.82897 0.65432 0.0
C175 C 0.232 0.83649 0.6914 0.0
H176 H 0.48824 0.91357 0.04381 0.0
H177 H 0.59332 0.92165 0.80789 0.0
H178 H 0.60659 1.00332 0.86533 0.0
H179 H 0.58472 0.07327 0.97552 0.0
H180 H 0.47943 0.06415 0.21046 0.0
H181 H 0.47039 0.98139 0.1617 0.0
C182 C 0.51399 0.93316 0.00448 0.0
C183 C 0.53923 0.91188 0.92031 0.0
C184 C 0.5216 0.97965 0.03848 0.0
C185 C 0.57321 0.93743 0.87221 0.0
C186 C 0.58082 0.98403 0.90514 0.0
C187 C 0.56035 0.05294 0.0172 0.0
C188 C 0.53262 0.07464 0.09618 0.0
C189 C 0.55483 1.0056 -0.0126 0.0
C190 C 0.50116 0.04809 0.14956 0.0
C191 C 0.49577 1.00091 0.12117 0.0
H192 H 0.04872 0.95325 0.38956 0.0
H193 H 0.93467 0.97065 0.60231 0.0
H194 H 0.92818 0.05201 0.56225 0.0
H195 H 0.95706 0.11889 0.47406 0.0
H196 H 0.0739 0.10351 0.26867 0.0
H197 H 0.07715 0.02074 0.29839 0.0
C198 C 0.02222 0.97484 0.42625 0.0
C199 C 0.99212 0.95603 0.49861 0.0
C200 C 0.01936 0.02196 0.40461 0.0
C201 C 0.95821 0.98438 0.54641 0.0
C202 C 0.95453 0.0309 0.52362 0.0
C203 C 0.98302 0.09746 0.43474 0.0
C204 C 1.01512 0.11751 0.36889 0.0
C205 C 0.98523 0.05018 0.45386 0.0
C206 C 0.0488 0.0891 0.31985 0.0
C207 C 0.05067 0.04173 0.33683 0.0
H208 H 0.9518 0.29772 -0.00942 0.0
H209 H 0.07456 0.22717 0.09121 0.0
H210 H 0.09657 0.21338 0.90435 0.0
H211 H 0.08089 0.22254 0.71323 0.0
H212 H 0.95637 0.29067 0.61414 0.0
H213 H 0.93416 0.3032 0.80045 0.0
C214 C 0.98346 0.27953 0.97143 0.0
C215 C 1.01199 0.26408 0.05334 0.0
C216 C 0.9951 0.27075 0.86468 0.0
C217 C 0.05256 0.23995 0.0285 0.0
C218 C 0.06492 0.23176 0.92208 0.0
C219 C 0.04873 0.23969 0.73274 0.0
C220 C 0.02052 0.25622 0.6514 0.0
C221 C 0.03639 0.24703 0.83965 0.0
C222 C 0.97876 0.27811 0.67643 0.0
C223 C 0.96613 0.28543 0.78258 0.0
H224 H 0.97907 0.74076 0.90849 0.0
H225 H 0.08575 0.84445 0.94927 0.0
H226 H 0.08585 0.83862 0.14351 0.0
H227 H 0.05512 0.80439 0.30247 0.0
H228 H 0.94797 0.70116 0.26145 0.0
H229 H 0.94803 0.70692 0.06738 0.0
C230 C 1.00254 0.76176 0.96001 0.0
C231 C 0.03239 0.79292 0.91497 0.0
C232 C 1.00197 0.7587 0.07177 0.0
C233 C 0.0624 0.82024 -0.01756 0.0
C234 C 0.0624 0.81703 0.09345 0.0
C235 C 0.03163 0.78343 0.25094 0.0
C236 C 1.00164 0.75239 0.29602 0.0
C237 C 0.03212 0.78661 0.13917 0.0
C238 C 0.97144 0.7253 0.22847 0.0
C239 C 0.97154 0.72843 0.11746 0.0
H240 H 0.57689 0.71748 0.20157 0.0
H241 H 0.46942 0.81102 0.11004 0.0
H242 H 0.44695 0.82284 0.29632 0.0
H243 H 0.45896 0.80799 0.48451 0.0
H244 H 0.56464 0.71298 0.57785 0.0
H245 H 0.5873 0.70057 0.39085 0.0
C246 C 0.54848 0.74027 0.22274 0.0
C247 C 0.52505 0.7637 0.14332 0.0
C248 C 0.53579 0.74688 0.32975 0.0
C249 C 0.48809 0.79291 0.17058 0.0
C250 C 0.47528 0.79973 0.27681 0.0
C251 C 0.48699 0.78463 0.46379 0.0
C252 C 0.51046 0.7617 0.5438 0.0
C253 C 0.49916 0.77722 0.35692 0.0
C254 C 0.54645 0.73122 0.51677 0.0
C255 C 0.55924 0.72402 0.41023 0.0
H256 H 0.47503 0.2431 0.39873 0.0
H257 H 0.58704 0.34086 0.43997 0.0
H258 H 0.58704 0.33432 0.63405 0.0
H259 H 0.55503 0.30088 0.79294 0.0
H260 H 0.44212 0.20413 0.7517 0.0
H261 H 0.44235 0.21049 0.55776 0.0
C262 C 0.49961 0.26269 0.45026 0.0
C263 C 0.53106 0.29233 0.40511 0.0
C264 C 0.499 0.25924 0.56214 0.0
C265 C 0.56246 0.31782 0.47291 0.0
C266 C 0.56243 0.31418 0.58394 0.0
C267 C 0.53027 0.28151 0.7415 0.0
C268 C 0.49858 0.25212 0.78676 0.0
C269 C 0.53071 0.28518 0.62965 0.0
C270 C 0.4669 0.227 0.71892 0.0
C271 C 0.46707 0.2305 0.60787 0.0
loop_
_geom_bond_atom_site_label_1
_geom_bond_atom_site_label_2
_geom_bond_distance
_geom_bond_site_symmetry_2
_ccdc_geom_bond_type
Dy0 O4 2.398 . S
Dy0 O5 2.491 . S
Dy0 O6 2.403 . S
Dy0 O7 2.664 1_455 S
Dy0 O11 2.326 . S
Dy0 O15 2.310 . S
Dy0 O16 2.351 . S
C1 O12 1.185 . S
C1 O13 1.355 . S
C2 O4 1.185 . S
C2 O5 1.355 . S
Dy3 O7 2.310 . S
Dy3 O10 2.351 . S
Dy3 O12 2.398 . S
Dy3 O13 2.491 . S
Dy3 O14 2.403 . S
Dy3 O15 2.664 1_655 S
Dy3 O17 2.326 . S
O4 Dy0 2.398 . S
O4 C2 1.185 . S
O5 Dy0 2.491 . S
O5 C2 1.355 . S
O6 Dy0 2.403 . S
O6 C8 1.254 . S
O7 Dy0 2.664 1_655 S
O7 Dy3 2.310 . S
O7 C8 1.268 1_655 S
C8 O6 1.254 . S
C8 O7 1.268 1_455 S
C9 O14 1.254 . S
C9 O15 1.268 1_655 S
O10 Dy3 2.351 . S
O10 C18 1.249 1_655 S
O11 Dy0 2.326 . S
O11 C18 1.267 . S
O12 C1 1.185 . S
O12 Dy3 2.398 . S
O13 C1 1.355 . S
O13 Dy3 2.491 . S
O14 Dy3 2.403 . S
O14 C9 1.254 . S
O15 Dy0 2.310 . S
O15 Dy3 2.664 1_455 S
O15 C9 1.268 1_455 S
O16 Dy0 2.351 . S
O16 C19 1.249 1_455 S
O17 Dy3 2.326 . S
O17 C19 1.267 . S
C18 O10 1.249 1_455 S
C18 O11 1.267 . S
C19 O16 1.249 1_655 S
C19 O17 1.267 . S
Dy20 O24 2.398 1_455 S
Dy20 O25 2.491 1_455 S
Dy20 O26 2.403 . S
Dy20 O27 2.664 . S
Dy20 O31 2.326 1_455 S
Dy20 O35 2.310 1_455 S
Dy20 O36 2.351 . S
C21 O32 1.185 . S
C21 O33 1.355 . S
C22 O24 1.185 . S
C22 O25 1.355 . S
Dy23 O27 2.310 1_655 S
Dy23 O30 2.351 . S
Dy23 O32 2.398 1_655 S
Dy23 O33 2.491 1_655 S
Dy23 O34 2.403 . S
Dy23 O35 2.664 . S
Dy23 O37 2.326 1_655 S
O24 Dy20 2.398 1_655 S
O24 C22 1.185 . S
O25 Dy20 2.491 1_655 S
O25 C22 1.355 . S
O26 Dy20 2.403 . S
O26 C28 1.254 . S
O27 Dy20 2.664 . S
O27 Dy23 2.310 1_455 S
O27 C28 1.268 . S
C28 O26 1.254 . S
C28 O27 1.268 . S
C29 O34 1.254 . S
C29 O35 1.268 . S
O30 Dy23 2.351 . S
O30 C38 1.249 . S
O31 Dy20 2.326 1_655 S
O31 C38 1.267 . S
O32 C21 1.185 . S
O32 Dy23 2.398 1_455 S
O33 C21 1.355 . S
O33 Dy23 2.491 1_455 S
O34 Dy23 2.403 . S
O34 C29 1.254 . S
O35 Dy20 2.310 1_655 S
O35 Dy23 2.664 . S
O35 C29 1.268 . S
O36 Dy20 2.351 . S
O36 C39 1.249 . S
O37 Dy23 2.326 1_455 S
O37 C39 1.267 . S
C38 O30 1.249 . S
C38 O31 1.267 . S
C39 O36 1.249 . S
C39 O37 1.267 . S
Dy40 O44 2.398 . S
Dy40 O45 2.491 . S
Dy40 O46 2.403 1_556 S
Dy40 O47 2.664 . S
Dy40 O51 2.326 . S
Dy40 O55 2.310 . S
Dy40 O56 2.351 . S
C41 O52 1.185 . S
C41 O53 1.355 . S
C42 O44 1.185 . S
C42 O45 1.355 . S
Dy43 O47 2.310 . S
Dy43 O50 2.351 . S
Dy43 O52 2.398 . S
Dy43 O53 2.491 . S
Dy43 O54 2.403 . S
Dy43 O55 2.664 . S
Dy43 O57 2.326 . S
O44 Dy40 2.398 . S
O44 C42 1.185 . S
O45 Dy40 2.491 . S
O45 C42 1.355 . S
O46 Dy40 2.403 1_554 S
O46 C48 1.254 . S
O47 Dy40 2.664 . S
O47 Dy43 2.310 . S
O47 C48 1.268 1_556 S
C48 O46 1.254 . S
C48 O47 1.268 1_554 S
C49 O54 1.254 . S
C49 O55 1.268 . S
O50 Dy43 2.351 . S
O50 C58 1.249 . S
O51 Dy40 2.326 . S
O51 C58 1.267 . S
O52 C41 1.185 . S
O52 Dy43 2.398 . S
O53 C41 1.355 . S
O53 Dy43 2.491 . S
O54 Dy43 2.403 . S
O54 C49 1.254 . S
O55 Dy40 2.310 . S
O55 Dy43 2.664 . S
O55 C49 1.268 . S
O56 Dy40 2.351 . S
O56 C59 1.249 . S
O57 Dy43 2.326 . S
O57 C59 1.267 . S
C58 O50 1.249 . S
C58 O51 1.267 . S
C59 O56 1.249 . S
C59 O57 1.267 . S
Dy60 O64 2.398 . S
Dy60 O65 2.491 . S
Dy60 O66 2.403 . S
Dy60 O67 2.664 . S
Dy60 O71 2.326 . S
Dy60 O75 2.310 . S
Dy60 O76 2.351 . S
C61 O72 1.185 . S
C61 O73 1.355 . S
C62 O64 1.185 . S
C62 O65 1.355 . S
Dy63 O67 2.310 . S
Dy63 O70 2.351 . S
Dy63 O72 2.398 . S
Dy63 O73 2.491 . S
Dy63 O74 2.403 1_554 S
Dy63 O75 2.664 . S
Dy63 O77 2.326 . S
O64 Dy60 2.398 . S
O64 C62 1.185 . S
O65 Dy60 2.491 . S
O65 C62 1.355 . S
O66 Dy60 2.403 . S
O66 C68 1.254 . S
O67 Dy60 2.664 . S
O67 Dy63 2.310 . S
O67 C68 1.268 . S
C68 O66 1.254 . S
C68 O67 1.268 . S
C69 O74 1.254 . S
C69 O75 1.268 1_556 S
O70 Dy63 2.351 . S
O70 C78 1.249 . S
O71 Dy60 2.326 . S
O71 C78 1.267 . S
O72 C61 1.185 . S
O72 Dy63 2.398 . S
O73 C61 1.355 . S
O73 Dy63 2.491 . S
O74 Dy63 2.403 1_556 S
O74 C69 1.254 . S
O75 Dy60 2.310 . S
O75 Dy63 2.664 . S
O75 C69 1.268 1_554 S
O76 Dy60 2.351 . S
O76 C79 1.249 . S
O77 Dy63 2.326 . S
O77 C79 1.267 . S
C78 O70 1.249 . S
C78 O71 1.267 . S
C79 O76 1.249 . S
C79 O77 1.267 . S
H80 C86 0.930 . S
H81 C89 0.930 . S
H82 C90 0.930 . S
H83 C91 0.930 . S
H84 C94 0.930 . S
H85 C95 0.930 . S
C86 H80 0.930 . S
C86 C87 1.355 . S
C86 C88 1.415 . S
C87 C86 1.355 . S
C87 C89 1.419 . S
C88 C86 1.415 . S
C88 C93 1.425 . S
C88 C95 1.409 . S
C89 H81 0.930 . S
C89 C87 1.419 . S
C89 C90 1.362 . S
C90 H82 0.930 . S
C90 C89 1.362 . S
C90 C93 1.409 . S
C91 H83 0.930 . S
C91 C92 1.355 . S
C91 C93 1.415 . S
C92 C91 1.355 . S
C92 C94 1.419 . S
C93 C88 1.425 . S
C93 C90 1.409 . S
C93 C91 1.415 . S
C94 H84 0.930 . S
C94 C92 1.419 . S
C94 C95 1.362 . S
C95 H85 0.930 . S
C95 C88 1.409 . S
C95 C94 1.362 . S
H96 C102 0.930 . S
H97 C105 0.930 . S
H98 C106 0.930 . S
H99 C107 0.930 . S
H100 C110 0.930 . S
H101 C111 0.930 . S
C102 H96 0.930 . S
C102 C103 1.355 . S
C102 C104 1.415 . S
C103 C102 1.355 . S
C103 C105 1.419 . S
C104 C102 1.415 . S
C104 C109 1.425 . S
C104 C111 1.409 . S
C105 H97 0.930 . S
C105 C103 1.419 . S
C105 C106 1.362 . S
C106 H98 0.930 . S
C106 C105 1.362 . S
C106 C109 1.409 . S
C107 H99 0.930 . S
C107 C108 1.355 . S
C107 C109 1.415 . S
C108 C107 1.355 . S
C108 C110 1.419 . S
C109 C104 1.425 . S
C109 C106 1.409 . S
C109 C107 1.415 . S
C110 H100 0.930 . S
C110 C108 1.419 . S
C110 C111 1.362 . S
C111 H101 0.930 . S
C111 C104 1.409 . S
C111 C110 1.362 . S
H112 C118 0.930 . S
H113 C121 0.930 . S
H114 C122 0.930 . S
H115 C123 0.930 . S
H116 C126 0.930 . S
H117 C127 0.930 . S
C118 H112 0.930 . S
C118 C119 1.355 . S
C118 C120 1.415 . S
C119 C118 1.355 . S
C119 C121 1.419 1_554 S
C120 C118 1.415 . S
C120 C125 1.425 1_554 S
C120 C127 1.409 . S
C121 H113 0.930 . S
C121 C119 1.419 1_556 S
C121 C122 1.362 . S
C122 H114 0.930 . S
C122 C121 1.362 . S
C122 C125 1.409 . S
C123 H115 0.930 . S
C123 C124 1.355 . S
C123 C125 1.415 . S
C124 C123 1.355 . S
C124 C126 1.419 1_556 S
C125 C120 1.425 1_556 S
C125 C122 1.409 . S
C125 C123 1.415 . S
C126 H116 0.930 . S
C126 C124 1.419 1_554 S
C126 C127 1.362 . S
C127 H117 0.930 . S
C127 C120 1.409 . S
C127 C126 1.362 . S
H128 C134 0.930 . S
H129 C137 0.930 . S
H130 C138 0.930 . S
H131 C139 0.930 . S
H132 C142 0.930 . S
H133 C143 0.930 . S
C134 H128 0.930 . S
C134 C135 1.355 . S
C134 C136 1.415 . S
C135 C134 1.355 . S
C135 C137 1.419 . S
C136 C134 1.415 . S
C136 C141 1.425 . S
C136 C143 1.409 . S
C137 H129 0.930 . S
C137 C135 1.419 . S
C137 C138 1.362 . S
C138 H130 0.930 . S
C138 C137 1.362 . S
C138 C141 1.409 . S
C139 H131 0.930 . S
C139 C140 1.355 . S
C139 C141 1.415 . S
C140 C139 1.355 . S
C140 C142 1.419 . S
C141 C136 1.425 . S
C141 C138 1.409 . S
C141 C139 1.415 . S
C142 H132 0.930 . S
C142 C140 1.419 . S
C142 C143 1.362 . S
C143 H133 0.930 . S
C143 C136 1.409 . S
C143 C142 1.362 . S
H144 C150 0.930 . S
H145 C153 0.930 . S
H146 C154 0.930 . S
H147 C155 0.930 . S
H148 C158 0.930 . S
H149 C159 0.930 . S
C150 H144 0.930 . S
C150 C151 1.355 . S
C150 C152 1.415 . S
C151 C150 1.355 . S
C151 C153 1.419 . S
C152 C150 1.415 . S
C152 C157 1.425 . S
C152 C159 1.409 . S
C153 H145 0.930 . S
C153 C151 1.419 . S
C153 C154 1.362 . S
C154 H146 0.930 . S
C154 C153 1.362 . S
C154 C157 1.409 . S
C155 H147 0.930 . S
C155 C156 1.355 . S
C155 C157 1.415 . S
C156 C155 1.355 . S
C156 C158 1.419 . S
C157 C152 1.425 . S
C157 C154 1.409 . S
C157 C155 1.415 . S
C158 H148 0.930 . S
C158 C156 1.419 . S
C158 C159 1.362 . S
C159 H149 0.930 . S
C159 C152 1.409 . S
C159 C158 1.362 . S
H160 C166 0.930 . S
H161 C169 0.930 . S
H162 C170 0.930 . S
H163 C171 0.930 . S
H164 C174 0.930 . S
H165 C175 0.930 . S
C166 H160 0.930 . S
C166 C167 1.355 . S
C166 C168 1.415 . S
C167 C166 1.355 . S
C167 C169 1.419 . S
C168 C166 1.415 . S
C168 C173 1.425 . S
C168 C175 1.409 . S
C169 H161 0.930 . S
C169 C167 1.419 . S
C169 C170 1.362 . S
C170 H162 0.930 . S
C170 C169 1.362 . S
C170 C173 1.409 . S
C171 H163 0.930 . S
C171 C172 1.355 . S
C171 C173 1.415 . S
C172 C171 1.355 . S
C172 C174 1.419 . S
C173 C168 1.425 . S
C173 C170 1.409 . S
C173 C171 1.415 . S
C174 H164 0.930 . S
C174 C172 1.419 . S
C174 C175 1.362 . S
C175 H165 0.930 . S
C175 C168 1.409 . S
C175 C174 1.362 . S
H176 C182 0.930 1_554 S
H177 C185 0.930 . S
H178 C186 0.930 . S
H179 C187 0.930 1_556 S
H180 C190 0.930 . S
H181 C191 0.930 . S
C182 H176 0.930 1_556 S
C182 C183 1.355 . S
C182 C184 1.415 1_556 S
C183 C182 1.355 . S
C183 C185 1.419 . S
C184 C182 1.415 1_554 S
C184 C189 1.425 1_554 S
C184 C191 1.409 . S
C185 H177 0.930 . S
C185 C183 1.419 . S
C185 C186 1.362 . S
C186 H178 0.930 . S
C186 C185 1.362 . S
C186 C189 1.409 . S
C187 H179 0.930 1_554 S
C187 C188 1.355 . S
C187 C189 1.415 1_544 S
C188 C187 1.355 . S
C188 C190 1.419 . S
C189 C184 1.425 1_556 S
C189 C186 1.409 . S
C189 C187 1.415 1_566 S
C190 H180 0.930 . S
C190 C188 1.419 . S
C190 C191 1.362 1_545 S
C191 H181 0.930 . S
C191 C184 1.409 . S
C191 C190 1.362 1_565 S
H192 C198 0.930 . S
H193 C201 0.922 1_455 S
H194 C202 0.930 . S
H195 C203 0.930 1_455 S
H196 C206 0.930 . S
H197 C207 0.930 . S
C198 H192 0.930 . S
C198 C199 1.355 . S
C198 C200 1.415 1_565 S
C199 C198 1.355 . S
C199 C201 1.430 . S
C200 C198 1.415 1_545 S
C200 C205 1.425 . S
C200 C207 1.409 . S
C201 H193 0.922 1_655 S
C201 C199 1.430 . S
C201 C202 1.359 1_665 S
C202 H194 0.930 . S
C202 C201 1.359 1_445 S
C202 C205 1.409 1_455 S
C203 H195 0.930 1_655 S
C203 C204 1.355 . S
C203 C205 1.415 . S
C204 C203 1.355 . S
C204 C206 1.419 . S
C205 C200 1.425 . S
C205 C202 1.409 1_655 S
C205 C203 1.415 . S
C206 H196 0.930 . S
C206 C204 1.419 . S
C206 C207 1.362 . S
C207 H197 0.930 . S
C207 C200 1.409 . S
C207 C206 1.362 . S
H208 C214 0.930 . S
H209 C217 0.930 . S
H210 C218 0.930 . S
H211 C219 0.930 . S
H212 C222 0.930 . S
H213 C223 0.930 . S
C214 H208 0.930 . S
C214 C215 1.355 1_655 S
C214 C216 1.415 1_554 S
C215 C214 1.355 1_455 S
C215 C217 1.419 . S
C216 C214 1.415 1_556 S
C216 C221 1.425 1_655 S
C216 C223 1.409 . S
C217 H209 0.930 . S
C217 C215 1.419 . S
C217 C218 1.362 1_554 S
C218 H210 0.930 . S
C218 C217 1.362 1_556 S
C218 C221 1.409 . S
C219 H211 0.930 . S
C219 C220 1.349 1_455 S
C219 C221 1.415 . S
C220 C219 1.349 1_655 S
C220 C222 1.426 . S
C221 C216 1.425 1_455 S
C221 C218 1.409 . S
C221 C219 1.415 . S
C222 H212 0.930 . S
C222 C220 1.426 . S
C222 C223 1.362 . S
C223 H213 0.930 . S
C223 C216 1.409 . S
C223 C222 1.362 . S
H224 C230 0.930 . S
H225 C233 0.930 . S
H226 C234 0.930 . S
H227 C235 0.930 . S
H228 C238 0.930 . S
H229 C239 0.930 . S
C230 H224 0.930 . S
C230 C231 1.355 1_655 S
C230 C232 1.415 1_556 S
C231 C230 1.355 1_455 S
C231 C233 1.419 . S
C232 C230 1.415 1_554 S
C232 C237 1.425 1_655 S
C232 C239 1.409 . S
C233 H225 0.930 . S
C233 C231 1.419 . S
C233 C234 1.362 1_556 S
C234 H226 0.930 . S
C234 C233 1.362 1_554 S
C234 C237 1.409 . S
C235 H227 0.930 . S
C235 C236 1.355 1_455 S
C235 C237 1.415 . S
C236 C235 1.355 1_655 S
C236 C238 1.419 . S
C237 C232 1.425 1_455 S
C237 C234 1.409 . S
C237 C235 1.415 . S
C238 H228 0.930 . S
C238 C236 1.419 . S
C238 C239 1.362 . S
C239 H229 0.930 . S
C239 C232 1.409 . S
C239 C238 1.362 . S
H240 C246 0.930 . S
H241 C249 0.930 . S
H242 C250 0.930 . S
H243 C251 0.930 . S
H244 C254 0.930 . S
H245 C255 0.930 . S
C246 H240 0.930 . S
C246 C247 1.355 . S
C246 C248 1.415 . S
C247 C246 1.355 . S
C247 C249 1.419 . S
C248 C246 1.415 . S
C248 C253 1.425 . S
C248 C255 1.409 . S
C249 H241 0.930 . S
C249 C247 1.419 . S
C249 C250 1.362 . S
C250 H242 0.930 . S
C250 C249 1.362 . S
C250 C253 1.409 . S
C251 H243 0.930 . S
C251 C252 1.355 . S
C251 C253 1.415 . S
C252 C251 1.355 . S
C252 C254 1.419 . S
C253 C248 1.425 . S
C253 C250 1.409 . S
C253 C251 1.415 . S
C254 H244 0.930 . S
C254 C252 1.419 . S
C254 C255 1.362 . S
C255 H245 0.930 . S
C255 C248 1.409 . S
C255 C254 1.362 . S
H256 C262 0.930 . S
H257 C265 0.930 . S
H258 C266 0.930 . S
H259 C267 0.930 . S
H260 C270 0.930 . S
H261 C271 0.930 . S
C262 H256 0.930 . S
C262 C263 1.355 . S
C262 C264 1.415 . S
C263 C262 1.355 . S
C263 C265 1.419 . S
C264 C262 1.415 . S
C264 C269 1.425 . S
C264 C271 1.409 . S
C265 H257 0.930 . S
C265 C263 1.419 . S
C265 C266 1.362 . S
C266 H258 0.930 . S
C266 C265 1.362 . S
C266 C269 1.409 . S
C267 H259 0.930 . S
C267 C268 1.355 . S
C267 C269 1.415 . S
C268 C267 1.355 . S
C268 C270 1.419 . S
C269 C264 1.425 . S
C269 C266 1.409 . S
C269 C267 1.415 . S
C270 H260 0.930 . S
C270 C268 1.419 . S
C270 C271 1.362 . S
C271 H261 0.930 . S
C271 C264 1.409 . S
C271 C270 1.362 . S
C87 C18 1.733 . S
C92 C21 1.680 . S
C103 C42 1.807 . S
C108 C38 1.758 . S
C119 C62 1.856 . S
C124 C59 1.927 . S
C135 C1 1.809 . S
C140 C79 1.902 . S
C151 C78 1.771 . S
C156 C2 1.785 . S
C167 C41 1.769 . S
C172 C39 1.888 . S
C183 C58 1.792 . S
C188 C61 1.729 . S
C199 C22 1.832 . S
C204 C19 1.957 . S
C215 C9 0.978 1_455 S
C220 C8 0.969 1_655 S
C231 C28 0.950 . S
C236 C29 0.950 . S
C247 C48 1.012 . S
C252 C49 1.012 . S
C263 C68 0.963 . S
C268 C69 0.963 . S
