# Generated by pormake.
# Topology ukt, (4)-cn, num edge types: 1
# Building blocks:
#     Node 0, Type 0, BuildingBlock: AZAVOO_clean_sbu_0, # of connection points: 4
#     Node 1, Type 0, BuildingBlock: AZAVOO_clean_sbu_0, # of connection points: 4
#     Node 2, Type 0, BuildingBlock: AZAVOO_clean_sbu_0, # of connection points: 4
#     Node 3, Type 0, BuildingBlock: AZAVOO_clean_sbu_0, # of connection points: 4
#     Node 4, Type 0, BuildingBlock: AZAVOO_clean_sbu_0, # of connection points: 4
#     Node 5, Type 0, BuildingBlock: AZAVOO_clean_sbu_0, # of connection points: 4
#     Node 6, Type 0, BuildingBlock: AZAVOO_clean_sbu_0, # of connection points: 4
#     Node 7, Type 0, BuildingBlock: AZAVOO_clean_sbu_0, # of connection points: 4
#     Node 8, Type 0, BuildingBlock: AZAVOO_clean_sbu_0, # of connection points: 4
#     Node 9, Type 0, BuildingBlock: AZAVOO_clean_sbu_0, # of connection points: 4
#     Node 10, Type 0, BuildingBlock: AZAVOO_clean_sbu_0, # of connection points: 4
#     Node 11, Type 0, BuildingBlock: AZAVOO_clean_sbu_0, # of connection points: 4
#     Node 12, Type 0, BuildingBlock: AZAVOO_clean_sbu_0, # of connection points: 4
#     Node 13, Type 0, BuildingBlock: AZAVOO_clean_sbu_0, # of connection points: 4
#     Node 14, Type 0, BuildingBlock: AZAVOO_clean_sbu_0, # of connection points: 4
#     Node 15, Type 0, BuildingBlock: AZAVOO_clean_sbu_0, # of connection points: 4
#     Edge 16, Type (0, 0), BuildingBlock: TEMPAE_clean_linker_10, # of connection points: 2
#     Edge 17, Type (0, 0), BuildingBlock: TEMPAE_clean_linker_10, # of connection points: 2
#     Edge 18, Type (0, 0), BuildingBlock: TEMPAE_clean_linker_10, # of connection points: 2
#     Edge 19, Type (0, 0), BuildingBlock: TEMPAE_clean_linker_10, # of connection points: 2
#     Edge 20, Type (0, 0), BuildingBlock: TEMPAE_clean_linker_10, # of connection points: 2
#     Edge 21, Type (0, 0), BuildingBlock: TEMPAE_clean_linker_10, # of connection points: 2
#     Edge 22, Type (0, 0), BuildingBlock: TEMPAE_clean_linker_10, # of connection points: 2
#     Edge 23, Type (0, 0), BuildingBlock: TEMPAE_clean_linker_10, # of connection points: 2
#     Edge 24, Type (0, 0), BuildingBlock: TEMPAE_clean_linker_10, # of connection points: 2
#     Edge 25, Type (0, 0), BuildingBlock: TEMPAE_clean_linker_10, # of connection points: 2
#     Edge 26, Type (0, 0), BuildingBlock: TEMPAE_clean_linker_10, # of connection points: 2
#     Edge 27, Type (0, 0), BuildingBlock: TEMPAE_clean_linker_10, # of connection points: 2
#     Edge 28, Type (0, 0), BuildingBlock: TEMPAE_clean_linker_10, # of connection points: 2
#     Edge 29, Type (0, 0), BuildingBlock: TEMPAE_clean_linker_10, # of connection points: 2
#     Edge 30, Type (0, 0), BuildingBlock: TEMPAE_clean_linker_10, # of connection points: 2
#     Edge 31, Type (0, 0), BuildingBlock: TEMPAE_clean_linker_10, # of connection points: 2
#     Edge 32, Type (0, 0), BuildingBlock: TEMPAE_clean_linker_10, # of connection points: 2
#     Edge 33, Type (0, 0), BuildingBlock: TEMPAE_clean_linker_10, # of connection points: 2
#     Edge 34, Type (0, 0), BuildingBlock: TEMPAE_clean_linker_10, # of connection points: 2
#     Edge 35, Type (0, 0), BuildingBlock: TEMPAE_clean_linker_10, # of connection points: 2
#     Edge 36, Type (0, 0), BuildingBlock: TEMPAE_clean_linker_10, # of connection points: 2
#     Edge 37, Type (0, 0), BuildingBlock: TEMPAE_clean_linker_10, # of connection points: 2
#     Edge 38, Type (0, 0), BuildingBlock: TEMPAE_clean_linker_10, # of connection points: 2
#     Edge 39, Type (0, 0), BuildingBlock: TEMPAE_clean_linker_10, # of connection points: 2
#     Edge 40, Type (0, 0), BuildingBlock: TEMPAE_clean_linker_10, # of connection points: 2
#     Edge 41, Type (0, 0), BuildingBlock: TEMPAE_clean_linker_10, # of connection points: 2
#     Edge 42, Type (0, 0), BuildingBlock: TEMPAE_clean_linker_10, # of connection points: 2
#     Edge 43, Type (0, 0), BuildingBlock: TEMPAE_clean_linker_10, # of connection points: 2
#     Edge 44, Type (0, 0), BuildingBlock: TEMPAE_clean_linker_10, # of connection points: 2
#     Edge 45, Type (0, 0), BuildingBlock: TEMPAE_clean_linker_10, # of connection points: 2
#     Edge 46, Type (0, 0), BuildingBlock: TEMPAE_clean_linker_10, # of connection points: 2
#     Edge 47, Type (0, 0), BuildingBlock: TEMPAE_clean_linker_10, # of connection points: 2
# Relax obj value: 0.298
# Max RMSD: 0.207
# Mean RMSD: 0.196
data_MOF--net-ukt--node1-AZAVOO_clean_sbu_0--edge1-TEMPAE_clean_linker_10
_symmetry_space_group_name_H-M    P1
_symmetry_Int_Tables_number       1
_symmetry_cell_setting            triclinic
loop_
_symmetry_equiv_pos_as_xyz
'x, y, z'
_cell_length_a     42.251459
_cell_length_b     42.319489
_cell_length_c     39.338402
_cell_angle_alpha  90.115186
_cell_angle_beta   90.251201
_cell_angle_gamma 89.71533
loop_
_atom_site_label
_atom_site_type_symbol
_atom_site_fract_x
_atom_site_fract_y
_atom_site_fract_z
_atom_type_partial_charge
Mg0 Mg 0.56119 0.13403 0.08415 0.0
O1 O 0.61326 0.12921 0.06493 0.0
O2 O 0.63166 0.17736 0.05156 0.0
Mg3 Mg 0.60245 0.20915 0.08608 0.0
C4 C 0.63364 0.14721 0.05078 0.0
C5 C 0.53051 0.07205 0.07334 0.0
O6 O 0.50882 0.09399 0.06854 0.0
O7 O 0.57307 0.13893 0.14152 0.0
O8 O 0.61019 0.16786 0.12097 0.0
O9 O 0.54795 0.14639 0.03086 0.0
O10 O 0.5598 0.18249 0.06978 0.0
C11 C 0.59253 0.16139 0.14581 0.0
C12 C 0.55247 0.17568 0.03886 0.0
O13 O 0.55749 0.08051 0.08427 0.0
Mg14 Mg 0.32993 0.54828 0.06772 0.0
O15 O 0.3509 0.598 0.06447 0.0
O16 O 0.3126 0.63303 0.07595 0.0
Mg17 Mg 0.26692 0.60631 0.08526 0.0
C18 C 0.34114 0.62636 0.06823 0.0
C19 C 0.38416 0.51223 0.03798 0.0
O20 O 0.35913 0.50403 0.02019 0.0
O21 O 0.32758 0.54879 0.12638 0.0
O22 O 0.2876 0.58319 0.13235 0.0
O23 O 0.31735 0.55228 0.01279 0.0
O24 O 0.28539 0.567 0.05422 0.0
C25 C 0.3081 0.56432 0.14489 0.0
C26 C 0.29114 0.56539 0.02212 0.0
O27 O 0.38027 0.52856 0.06481 0.0
Mg28 Mg 0.9409 0.32459 0.06703 0.0
O29 O 0.88794 0.33003 0.05298 0.0
O30 O 0.86211 0.28373 0.04984 0.0
Mg31 Mg 0.89463 0.24593 0.07292 0.0
C32 C 0.8632 0.31379 0.04607 0.0
C33 C 0.9623 0.38675 0.03656 0.0
O34 O 0.97684 0.36492 0.01863 0.0
O35 O 0.93126 0.32672 0.12622 0.0
O36 O 0.9122 0.28629 0.10149 0.0
O37 O 0.94852 0.30762 0.01363 0.0
O38 O 0.93604 0.27435 0.05441 0.0
C39 C 0.91698 0.30061 0.12895 0.0
C40 C 0.94117 0.27932 0.02271 0.0
O41 O 0.94618 0.37824 0.06217 0.0
Mg42 Mg 0.14465 0.93994 0.06107 0.0
O43 O 0.10436 0.90458 0.05611 0.0
O44 O 0.12958 0.86634 0.08224 0.0
Mg45 Mg 0.17783 0.86156 0.05662 0.0
C46 C 0.10538 0.87608 0.06611 0.0
C47 C 0.08537 0.98809 0.07498 0.0
O48 O 0.07268 0.01127 0.09256 0.0
O49 O 0.16117 0.92527 0.11512 0.0
O50 O 0.19684 0.88739 0.1028 0.0
O51 O 0.14476 0.94316 0.00328 0.0
O52 O 0.17171 0.90862 0.03344 0.0
C53 C 0.18551 0.90843 0.12268 0.0
C54 C 0.16349 0.91882 0.00406 0.0
O55 O 0.11274 0.97816 0.08322 0.0
Mg56 Mg 0.55614 0.33455 0.4019 0.0
O57 O 0.60846 0.3445 0.41753 0.0
O58 O 0.63778 0.3 0.41671 0.0
Mg59 Mg 0.60867 0.26857 0.3823 0.0
C60 C 0.63403 0.32924 0.42392 0.0
C61 C 0.52652 0.40673 0.40534 0.0
O62 O 0.50376 0.39949 0.38389 0.0
O63 O 0.56188 0.33933 0.34303 0.0
O64 O 0.60496 0.3158 0.3571 0.0
O65 O 0.55124 0.31422 0.45317 0.0
O66 O 0.56472 0.28487 0.40882 0.0
C67 C 0.5849 0.3218 0.33424 0.0
C68 C 0.56063 0.28728 0.44121 0.0
O69 O 0.54763 0.38643 0.41268 0.0
Mg70 Mg 0.14086 0.56035 0.39227 0.0
O71 O 0.13389 0.61399 0.40379 0.0
O72 O 0.18053 0.63896 0.40132 0.0
Mg73 Mg 0.20921 0.60672 0.36711 0.0
C74 C 0.15123 0.63828 0.4093 0.0
C75 C 0.07971 0.52722 0.41343 0.0
O76 O 0.10091 0.50453 0.41614 0.0
O77 O 0.13569 0.56233 0.33378 0.0
O78 O 0.16261 0.60481 0.33968 0.0
O79 O 0.16213 0.55618 0.44369 0.0
O80 O 0.19073 0.56638 0.39795 0.0
C81 C 0.15504 0.58175 0.32103 0.0
C82 C 0.18919 0.5633 0.43052 0.0
O83 O 0.08821 0.55367 0.40149 0.0
Mg84 Mg 0.91645 0.14435 0.40841 0.0
O85 O 0.86629 0.13905 0.42862 0.0
O86 O 0.8459 0.18663 0.43977 0.0
Mg87 Mg 0.88108 0.22336 0.42141 0.0
C88 C 0.84417 0.15656 0.44014 0.0
C89 C 0.94354 0.07796 0.40853 0.0
O90 O 0.96831 0.09643 0.41156 0.0
O91 O 0.89869 0.1571 0.35422 0.0
O92 O 0.87958 0.20487 0.36766 0.0
O93 O 0.93215 0.14982 0.46287 0.0
O94 O 0.91962 0.18955 0.42908 0.0
C95 C 0.8854 0.18331 0.34587 0.0
C96 C 0.92694 0.17974 0.45886 0.0
O97 O 0.91694 0.09066 0.40175 0.0
Mg98 Mg 0.33806 0.9352 0.40991 0.0
O99 O 0.37516 0.89451 0.41508 0.0
O100 O 0.33168 0.86769 0.41632 0.0
Mg101 Mg 0.27951 0.86676 0.41284 0.0
C102 C 0.36143 0.86809 0.41833 0.0
C103 C 0.40169 0.97908 0.40128 0.0
O104 O 0.41683 0.0005 0.38365 0.0
O105 O 0.324 0.92276 0.35487 0.0
O106 O 0.28599 0.88606 0.35966 0.0
O107 O 0.33409 0.93843 0.46745 0.0
O108 O 0.3032 0.90886 0.43561 0.0
C109 C 0.30282 0.90476 0.34199 0.0
C110 C 0.31115 0.91829 0.46547 0.0
O111 O 0.37523 0.96924 0.39029 0.0
Mg112 Mg 0.41171 0.86738 0.88355 0.0
O113 O 0.40112 0.82793 0.92181 0.0
O114 O 0.3714 0.84742 0.96403 0.0
Mg115 Mg 0.36824 0.90053 0.95611 0.0
C116 C 0.38562 0.82459 0.94932 0.0
C117 C 0.44936 0.83966 0.82358 0.0
O118 O 0.443 0.86833 0.81265 0.0
O119 O 0.45189 0.88414 0.91877 0.0
O120 O 0.42202 0.90235 0.96157 0.0
O121 O 0.36381 0.86116 0.85905 0.0
O122 O 0.37364 0.89411 0.90121 0.0
C123 C 0.44896 0.89641 0.94837 0.0
C124 C 0.35336 0.88142 0.88102 0.0
O125 O 0.44229 0.83262 0.85399 0.0
Mg126 Mg 0.61581 0.42422 0.88601 0.0
O127 O 0.6578 0.41799 0.92465 0.0
O128 O 0.63911 0.40414 0.97589 0.0
Mg129 Mg 0.58766 0.41792 0.97373 0.0
C130 C 0.66202 0.40852 0.95536 0.0
C131 C 0.66153 0.46412 0.83523 0.0
O132 O 0.65165 0.48988 0.85064 0.0
O133 O 0.60246 0.47596 0.89999 0.0
O134 O 0.61139 0.46034 0.95092 0.0
O135 O 0.61379 0.37186 0.88204 0.0
O136 O 0.58677 0.39887 0.92059 0.0
C137 C 0.59687 0.47917 0.93148 0.0
C138 C 0.59554 0.37197 0.90836 0.0
O139 O 0.65085 0.4374 0.84427 0.0
Mg140 Mg 0.03661 0.62526 0.88689 0.0
O141 O 0.04735 0.6677 0.92304 0.0
O142 O 0.08008 0.65203 0.96493 0.0
Mg143 Mg 0.06809 0.59997 0.96855 0.0
C144 C 0.06586 0.67375 0.94813 0.0
C145 C 0.02154 0.65582 0.81998 0.0
O146 O 0.04053 0.63199 0.81308 0.0
O147 O -0.0087 0.60919 0.91536 0.0
O148 O 0.01927 0.62046 0.95984 0.0
O149 O 0.08716 0.62759 0.87027 0.0
O150 O 0.07089 0.59739 0.91244 0.0
C151 C -0.00368 0.60543 0.94704 0.0
C152 C 0.09391 0.60839 0.89484 0.0
O153 O 0.01174 0.65902 0.85033 0.0
Mg154 Mg 0.87431 0.03553 0.87662 0.0
O155 O 0.83643 0.0515 0.9171 0.0
O156 O 0.85988 0.08384 0.9548 0.0
Mg157 Mg 0.91056 0.06666 0.95281 0.0
C158 C 0.83506 0.07182 0.9414 0.0
C159 C 0.83718 0.0167 0.81429 0.0
O160 O 0.86202 0.03196 0.803 0.0
O161 O 0.89236 0.98995 0.90435 0.0
O162 O 0.88455 0.02075 0.947 0.0
O163 O 0.87143 0.08526 0.85853 0.0
O164 O 0.9069 0.06903 0.89645 0.0
C165 C 0.89792 -0.00366 0.93537 0.0
C166 C 0.89385 0.09186 0.87986 0.0
O167 O 0.83542 0.01118 0.846 0.0
Mg168 Mg 0.43861 0.61919 0.59306 0.0
O169 O 0.43557 0.65992 0.55292 0.0
O170 O 0.41873 0.64081 0.50264 0.0
Mg171 Mg 0.43152 0.58934 0.50699 0.0
C172 C 0.4258 0.66386 0.52227 0.0
C173 C 0.43589 0.67656 0.64047 0.0
O174 O 0.40869 0.67766 0.62419 0.0
O175 O 0.48912 0.602 0.57959 0.0
O176 O 0.47443 0.61399 0.52879 0.0
O177 O 0.38614 0.62131 0.59513 0.0
O178 O 0.41202 0.5899 0.55971 0.0
C179 C 0.49359 0.59947 0.5478 0.0
C180 C 0.38549 0.60159 0.56995 0.0
O181 O 0.45547 0.65469 0.6331 0.0
Mg182 Mg 0.87251 0.41699 0.60902 0.0
O183 O 0.8351 0.40632 0.56818 0.0
O184 O 0.85705 0.37569 0.5281 0.0
Mg185 Mg 0.91001 0.37378 0.53877 0.0
C186 C 0.8333 0.38995 0.54099 0.0
C187 C 0.84013 0.44889 0.66867 0.0
O188 O 0.86589 0.43631 0.68185 0.0
O189 O 0.89185 0.45725 0.57602 0.0
O190 O 0.91208 0.42754 0.53407 0.0
O191 O 0.86339 0.36904 0.63098 0.0
O192 O 0.90041 0.37909 0.59297 0.0
C193 C 0.90565 0.45438 0.54729 0.0
C194 C 0.88513 0.35883 0.61064 0.0
O195 O 0.8363 0.4476 0.63663 0.0
Mg196 Mg 0.06161 0.87583 0.60026 0.0
O197 O 0.07108 0.83652 0.56077 0.0
O198 O 0.09183 0.85921 0.51467 0.0
Mg199 Mg 0.09637 0.91196 0.52425 0.0
C200 C 0.08205 0.83494 0.53058 0.0
C201 C 0.04366 0.84029 0.66358 0.0
O202 O 0.06523 0.86076 0.67317 0.0
O203 O 0.01774 0.89272 0.56981 0.0
O204 O 0.04259 0.91446 0.52546 0.0
O205 O 0.11134 0.87004 0.61976 0.0
O206 O 0.09746 0.90325 0.57918 0.0
C207 C 0.01737 0.90717 0.54125 0.0
C208 C 0.11961 0.89032 0.59696 0.0
O209 O 0.03405 0.84093 0.63289 0.0
Mg210 Mg 0.60198 0.04063 0.60353 0.0
O211 O 0.64149 0.05071 0.5629 0.0
O212 O 0.61925 0.07654 0.51887 0.0
Mg213 Mg 0.56853 0.06119 0.52178 0.0
C214 C 0.64358 0.06703 0.53545 0.0
C215 C 0.64474 0.0342 0.66557 0.0
O216 O 0.62721 0.05927 0.67173 0.0
O217 O 0.58363 -0.00776 0.58224 0.0
O218 O 0.59431 0.01664 0.53603 0.0
O219 O 0.60612 0.09208 0.61357 0.0
O220 O 0.57129 0.07245 0.57701 0.0
C221 C 0.57994 -0.00567 0.55027 0.0
C222 C 0.58542 0.09669 0.58974 0.0
O223 O 0.63949 0.01849 0.63852 0.0
C224 C 0.53127 0.22358 0.01087 0.0
C225 C 0.5546 0.20016 0.01286 0.0
C226 C 0.53565 0.2503 0.99044 0.0
C227 C 0.56475 0.25419 0.97324 0.0
C228 C 0.58799 0.22997 0.9745 0.0
C229 C 0.58221 0.20278 -0.0063 0.0
C230 C 0.50976 0.27496 0.98852 0.0
C231 C 0.61984 0.23376 0.95774 0.0
C232 C 0.57554 0.31694 0.90555 0.0
C233 C 0.58692 0.34223 0.92497 0.0
C234 C 0.56722 0.28834 0.92105 0.0
C235 C 0.57198 0.28465 0.95646 0.0
C236 C 0.58404 0.31005 0.97602 0.0
C237 C 0.59057 0.33885 0.96011 0.0
C238 C 0.55307 0.26226 0.89969 0.0
C239 C 0.59066 0.30665 0.01363 0.0
H240 H 0.50996 0.22135 0.02593 0.0
H241 H 0.60004 0.18439 -0.00468 0.0
H242 H 0.51678 0.29611 0.00338 0.0
H243 H 0.50597 0.28258 0.96182 0.0
H244 H 0.48702 0.26611 -0.00121 0.0
H245 H 0.63457 0.21201 0.95958 0.0
H246 H 0.61693 0.23996 0.93055 0.0
H247 H 0.63282 0.25345 0.97011 0.0
H248 H 0.5725 0.31982 0.87834 0.0
H249 H 0.59949 0.35837 0.97504 0.0
H250 H 0.52995 0.25508 0.91044 0.0
H251 H 0.56872 0.24116 0.90015 0.0
H252 H 0.54943 0.26952 0.87283 0.0
H253 H 0.56829 0.30233 0.02745 0.0
H254 H 0.60203 0.328 0.0246 0.0
H255 H 0.60638 0.28599 0.0182 0.0
C256 C 0.1518 0.62147 0.8947 0.0
C257 C 0.12682 0.60249 0.90592 0.0
C258 C 0.18239 0.61782 0.90841 0.0
C259 C 0.18783 0.59473 0.93379 0.0
C260 C 0.16298 0.57458 0.94391 0.0
C261 C 0.13284 0.57869 0.92981 0.0
C262 C 0.20843 0.63956 0.89692 0.0
C263 C 0.16781 0.54953 0.97083 0.0
C264 C 0.26666 0.56335 0.9645 0.0
C265 C 0.26834 0.57739 -0.00325 0.0
C266 C 0.24179 0.57074 0.9421 0.0
C267 C 0.21845 0.59288 0.95223 0.0
C268 C 0.22185 0.60929 0.9834 0.0
C269 C 0.2467 0.60117 0.00539 0.0
C270 C 0.2391 0.5529 0.90897 0.0
C271 C 0.19782 0.63358 -0.00515 0.0
H272 H 0.14725 0.63987 0.87616 0.0
H273 H 0.11372 0.56365 0.93822 0.0
H274 H 0.21389 0.65672 0.91746 0.0
H275 H 0.23043 0.626 0.89174 0.0
H276 H 0.20168 0.65296 0.87372 0.0
H277 H 0.14652 0.53459 0.97427 0.0
H278 H 0.18807 0.53401 0.96407 0.0
H279 H 0.17351 0.56093 -0.00448 0.0
H280 H 0.28361 0.54515 0.95758 0.0
H281 H 0.2485 0.61286 0.02973 0.0
H282 H 0.23174 0.56889 0.88804 0.0
H283 H 0.2207 0.53443 0.91138 0.0
H284 H 0.26176 0.54121 0.90197 0.0
H285 H 0.19201 0.65015 0.9739 0.0
H286 H 0.20633 0.64743 0.01707 0.0
H287 H 0.17561 0.62148 0.0021 0.0
C288 C 0.87461 0.14391 0.90058 0.0
C289 C 0.89983 0.12444 0.89073 0.0
C290 C 0.88024 0.17206 0.9185 0.0
C291 C 0.91183 0.18109 0.92567 0.0
C292 C 0.93732 0.16266 0.91317 0.0
C293 C 0.93097 0.13418 0.89639 0.0
C294 C 0.85242 0.19054 0.93224 0.0
C295 C 0.97131 0.17179 0.91975 0.0
C296 C 0.93063 0.26183 0.96286 0.0
C297 C 0.93422 0.25448 -0.00258 0.0
C298 C 0.92275 0.2383 0.93909 0.0
C299 C 0.91839 0.20686 0.95027 0.0
C300 C 0.92186 0.19942 0.98515 0.0
C301 C 0.92998 0.22326 0.00821 0.0
C302 C 0.91927 0.24698 0.90207 0.0
C303 C 0.91726 0.16616 -0.00186 0.0
H304 H 0.85051 0.13594 0.89666 0.0
H305 H 0.95037 0.11889 0.88877 0.0
H306 H 0.85059 0.18648 0.96003 0.0
H307 H 0.85573 0.21626 0.92834 0.0
H308 H 0.82976 0.18329 0.92018 0.0
H309 H 0.98809 0.15757 0.90425 0.0
H310 H 0.97497 0.19718 0.91413 0.0
H311 H 0.97709 0.16806 0.947 0.0
H312 H 0.93373 0.28598 0.95443 0.0
H313 H 0.93315 0.21734 0.0348 0.0
H314 H 0.89544 0.24024 0.89267 0.0
H315 H 0.93684 0.23365 0.88675 0.0
H316 H 0.92268 0.27265 0.89763 0.0
H317 H 0.89367 0.15722 0.99034 0.0
H318 H 0.91919 0.16471 0.02627 0.0
H319 H 0.93529 0.15019 0.98687 0.0
C320 C 0.30976 0.91095 0.90891 0.0
C321 C 0.31914 0.88701 0.88644 0.0
C322 C 0.27837 0.91373 0.91955 0.0
C323 C 0.25533 0.89275 0.90636 0.0
C324 C 0.26399 0.87057 0.88097 0.0
C325 C 0.29601 0.86764 0.87159 0.0
C326 C 0.27054 0.93765 0.94694 0.0
C327 C 0.24008 0.84871 0.86496 0.0
C328 C 0.19834 0.87889 0.97685 0.0
C329 C 0.17868 0.9055 0.97337 0.0
C330 C 0.22138 0.87179 0.9526 0.0
C331 C 0.22415 0.8913 0.92363 0.0
C332 C 0.20078 0.91467 0.91714 0.0
C333 C 0.17845 0.92193 0.94246 0.0
C334 C 0.24536 0.84618 0.96043 0.0
C335 C 0.20139 0.93413 0.88512 0.0
H336 H 0.32729 0.9268 0.91951 0.0
H337 H 0.30298 0.84944 0.85365 0.0
H338 H 0.25135 0.95366 0.9382 0.0
H339 H 0.26202 0.92531 0.97001 0.0
H340 H 0.29126 0.95228 0.9542 0.0
H341 H 0.2462 0.8439 0.838 0.0
H342 H 0.24044 0.82575 0.87851 0.0
H343 H 0.21571 0.85856 0.86604 0.0
H344 H 0.1979 0.86527 5e-05 0.0
H345 H 0.16267 0.94197 0.93909 0.0
H346 H 0.26852 0.85712 0.96666 0.0
H347 H 0.24886 0.83068 0.93803 0.0
H348 H 0.23813 0.83129 0.98227 0.0
H349 H 0.21819 0.95398 0.88838 0.0
H350 H 0.17767 0.94425 0.87931 0.0
H351 H 0.20943 0.91968 0.86317 0.0
C352 C 0.57692 0.23117 0.45118 0.0
C353 C 0.56828 0.2608 0.46428 0.0
C354 C 0.58252 0.20545 0.47286 0.0
C355 C 0.57925 0.20951 0.50841 0.0
C356 C 0.5718 0.23966 0.52184 0.0
C357 C 0.56638 0.26496 0.49959 0.0
C358 C 0.59078 0.17368 0.45765 0.0
C359 C 0.56836 0.24492 0.55962 0.0
C360 C 0.55475 0.13661 0.55715 0.0
C361 C 0.58333 0.12726 0.57218 0.0
C362 C 0.553 0.16391 0.53714 0.0
C363 C 0.58076 0.18166 0.53125 0.0
C364 C 0.60974 0.17238 0.54653 0.0
C365 C 0.61058 0.14542 0.56727 0.0
C366 C 0.52156 0.17337 0.52171 0.0
C367 C 0.64 0.19017 0.53999 0.0
H368 H 0.57862 0.22784 0.42393 0.0
H369 H 0.56006 0.28789 0.50992 0.0
H370 H 0.612 0.16356 0.47039 0.0
H371 H 0.57099 0.15701 0.46174 0.0
H372 H 0.59541 0.17517 0.42992 0.0
H373 H 0.56492 0.27026 0.5661 0.0
H374 H 0.54773 0.23146 0.56909 0.0
H375 H 0.5896 0.23601 0.5733 0.0
H376 H 0.53378 0.12237 0.56085 0.0
H377 H 0.63287 0.13771 0.5783 0.0
H378 H 0.523 0.17232 0.49358 0.0
H379 H 0.51568 0.19811 0.52877 0.0
H380 H 0.50197 0.15784 0.5301 0.0
H381 H 0.64613 0.18849 0.51265 0.0
H382 H 0.6602 0.18078 0.55514 0.0
H383 H 0.63681 0.21559 0.54605 0.0
C384 C 0.35472 0.57106 0.52681 0.0
C385 C 0.35573 0.59496 0.55151 0.0
C386 C 0.32694 0.56511 0.50833 0.0
C387 C 0.29964 0.58374 0.51448 0.0
C388 C 0.30038 0.60767 0.53965 0.0
C389 C 0.3284 0.61289 0.55802 0.0
C390 C 0.32693 0.53919 0.48187 0.0
C391 C 0.27181 0.62826 0.54657 0.0
C392 C 0.24088 0.58966 0.44179 0.0
C393 C 0.21702 0.56909 0.45234 0.0
C394 C 0.26753 0.59521 0.46219 0.0
C395 C 0.27078 0.57908 0.49348 0.0
C396 C 0.2468 0.55817 0.50428 0.0
C397 C 0.21994 0.55375 0.48374 0.0
C398 C 0.29224 0.61828 0.45019 0.0
C399 C 0.2498 0.54008 0.53719 0.0
H400 H 0.37571 0.557 0.52183 0.0
H401 H 0.32906 0.63145 0.57703 0.0
H402 H 0.30731 0.52249 0.48675 0.0
H403 H 0.32288 0.54949 0.4563 0.0
H404 H 0.34957 0.52574 0.48149 0.0
H405 H 0.276 0.64524 0.56767 0.0
H406 H 0.26546 0.64176 0.52335 0.0
H407 H 0.25115 0.61341 0.55306 0.0
H408 H 0.23863 0.60182 0.4178 0.0
H409 H 0.20157 0.53767 0.49185 0.0
H410 H 0.31515 0.60587 0.44652 0.0
H411 H 0.29607 0.63684 0.46972 0.0
H412 H 0.28545 0.62989 0.4259 0.0
H413 H 0.27137 0.52503 0.53661 0.0
H414 H 0.229 0.52478 0.54196 0.0
H415 H 0.25246 0.55671 0.55882 0.0
C416 C 0.86256 0.30975 0.58644 0.0
C417 C 0.88812 0.32537 0.60159 0.0
C418 C 0.86743 0.28183 0.56777 0.0
C419 C 0.89848 0.26925 0.56499 0.0
C420 C 0.92372 0.28348 0.58306 0.0
C421 C 0.91829 0.31172 0.60072 0.0
C422 C 0.84002 0.26798 0.5481 0.0
C423 C 0.95711 0.27077 0.58081 0.0
C424 C 0.91428 0.19106 0.51993 0.0
C425 C 0.92285 0.20171 0.48759 0.0
C426 C 0.90586 0.21272 0.54555 0.0
C427 C 0.90593 0.24552 0.53836 0.0
C428 C 0.91484 0.25623 0.50575 0.0
C429 C 0.92362 0.23423 0.48103 0.0
C430 C 0.89648 0.20063 0.58008 0.0
C431 C 0.91484 0.29097 0.49675 0.0
H432 H 0.83937 0.32087 0.58651 0.0
H433 H 0.93805 0.32419 0.61212 0.0
H434 H 0.84138 0.27578 0.52123 0.0
H435 H 0.84093 0.24179 0.54827 0.0
H436 H 0.81689 0.27591 0.55848 0.0
H437 H 0.97276 0.28113 0.60062 0.0
H438 H 0.95739 0.24467 0.58345 0.0
H439 H 0.96707 0.27652 0.55552 0.0
H440 H 0.91321 0.16589 0.52486 0.0
H441 H 0.93039 0.24255 0.45605 0.0
H442 H 0.87201 0.20841 0.58604 0.0
H443 H 0.91227 0.21076 0.59986 0.0
H444 H 0.89766 0.17444 0.58161 0.0
H445 H 0.8912 0.30152 0.50168 0.0
H446 H 0.92092 0.29513 0.46968 0.0
H447 H 0.93219 0.30371 0.51291 0.0
C448 C 0.1773 0.87611 0.60155 0.0
C449 C 0.1532 0.89544 0.58819 0.0
C450 C 0.20855 0.87848 0.58967 0.0
C451 C 0.2155 0.90019 0.56344 0.0
C452 C 0.19164 0.92107 0.55153 0.0
C453 C 0.16096 0.91872 0.56443 0.0
C454 C 0.23358 0.85657 0.60385 0.0
C455 C 0.19784 0.94443 0.52333 0.0
C456 C 0.29348 0.92527 0.52582 0.0
C457 C 0.29304 0.90784 0.4955 0.0
C458 C 0.27022 0.92042 0.55074 0.0
C459 C 0.24579 0.89831 0.54453 0.0
C460 C 0.24752 0.87827 0.51579 0.0
C461 C 0.27157 0.88288 0.4921 0.0
C462 C 0.27023 0.9409 0.58213 0.0
C463 C 0.22198 0.85441 0.50787 0.0
H464 H 0.17159 0.85836 0.62035 0.0
H465 H 0.14272 0.93443 0.5548 0.0
H466 H 0.23667 0.83609 0.58652 0.0
H467 H 0.25675 0.86868 0.60599 0.0
H468 H 0.22687 0.84738 0.62924 0.0
H469 H 0.17711 0.95997 0.51817 0.0
H470 H 0.21836 0.95953 0.52986 0.0
H471 H 0.20374 0.93149 0.49959 0.0
H472 H 0.31054 0.94409 0.52911 0.0
H473 H 0.27208 0.86814 0.46978 0.0
H474 H 0.26193 0.92749 0.60457 0.0
H475 H 0.25387 0.96117 0.57827 0.0
H476 H 0.29419 0.95041 0.58757 0.0
H477 H 0.217 0.83959 0.53038 0.0
H478 H 0.22848 0.83865 0.48635 0.0
H479 H 0.19974 0.86703 0.50107 0.0
C480 C 0.41323 0.78014 0.97821 0.0
C481 C 0.38515 0.79355 0.96572 0.0
C482 C 0.41268 0.75187 -0.00313 0.0
C483 C 0.38345 0.73644 0.00207 0.0
C484 C 0.3552 0.74952 0.98831 0.0
C485 C 0.35635 0.77831 0.97086 0.0
C486 C 0.44306 0.73931 0.01214 0.0
C487 C 0.32365 0.73334 -0.00763 0.0
C488 C 0.37435 0.6501 0.0236 0.0
C489 C 0.36097 0.65239 0.05604 0.0
C490 C 0.38425 0.67725 0.00634 0.0
C491 C 0.38166 0.70705 0.02254 0.0
C492 C 0.37189 0.70879 0.0569 0.0
C493 C 0.36089 0.68146 0.07302 0.0
C494 C 0.39393 0.67432 0.96957 0.0
C495 C 0.37034 0.73992 0.07562 0.0
H496 H 0.43541 0.79242 0.9745 0.0
H497 H 0.33473 0.78895 0.96112 0.0
H498 H 0.44205 0.74161 0.04022 0.0
H499 H 0.4461 0.71384 0.00628 0.0
H500 H 0.46413 0.75227 0.00289 0.0
H501 H 0.3045 0.74525 0.9777 0.0
H502 H 0.32534 0.70838 0.98382 0.0
H503 H 0.31686 0.73317 0.01958 0.0
H504 H 0.37409 0.6276 0.01035 0.0
H505 H 0.35064 0.68311 0.0982 0.0
H506 H 0.41454 0.68952 0.96396 0.0
H507 H 0.37404 0.68232 0.95313 0.0
H508 H 0.39992 0.64954 0.96262 0.0
H509 H 0.39151 0.75442 0.07011 0.0
H510 H 0.36862 0.73649 0.10355 0.0
H511 H 0.34921 0.7534 0.06701 0.0
C512 C 0.70008 0.39839 0.00267 0.0
C513 C 0.69428 0.40087 0.96761 0.0
C514 C 0.72919 0.38735 0.01506 0.0
C515 C 0.75303 0.37832 -0.00817 0.0
C516 C 0.74802 0.38237 0.95647 0.0
C517 C 0.71866 0.39375 0.94474 0.0
C518 C 0.73377 0.38381 0.05297 0.0
C519 C 0.77301 0.37308 0.93098 0.0
C520 C 0.83534 0.36337 0.02757 0.0
C521 C 0.8351 0.33044 0.03205 0.0
C522 C 0.80902 0.37932 0.01393 0.0
C523 C 0.78185 0.36192 0.00454 0.0
C524 C 0.78151 0.3287 0.00875 0.0
C525 C 0.8081 0.31338 0.02247 0.0
C526 C 0.81013 0.41478 0.00996 0.0
C527 C 0.75288 0.30935 -0.00091 0.0
H528 H 0.68152 0.40433 0.02054 0.0
H529 H 0.71435 0.39568 0.91763 0.0
H530 H 0.73506 0.35835 0.05958 0.0
H531 H 0.7564 0.3947 0.06112 0.0
H532 H 0.71418 0.3948 0.06765 0.0
H533 H 0.7668 0.38081 0.9048 0.0
H534 H 0.7962 0.38339 0.93812 0.0
H535 H 0.77591 0.347 0.93093 0.0
H536 H 0.85609 0.37681 0.0348 0.0
H537 H 0.80766 0.28796 0.02568 0.0
H538 H 0.79178 0.42597 0.02617 0.0
H539 H 0.80474 0.42143 0.98328 0.0
H540 H 0.83356 0.42466 0.01708 0.0
H541 H 0.73227 0.31678 0.01462 0.0
H542 H 0.75683 0.28362 0.00286 0.0
H543 H 0.74657 0.3135 0.97205 0.0
C544 C 0.09554 0.71558 0.97937 0.0
C545 C 0.06912 0.70676 0.95998 0.0
C546 C 0.09767 0.74585 -0.00634 0.0
C547 C 0.07246 0.76764 0.98903 0.0
C548 C 0.04611 0.75922 0.96868 0.0
C549 C 0.04488 0.72891 0.95411 0.0
C550 C 0.12662 0.75421 0.01445 0.0
C551 C 0.01867 0.7817 0.9635 0.0
C552 C 0.07293 0.82758 0.06034 0.0
C553 C 0.08898 0.85257 0.04511 0.0
C554 C 0.06443 0.80084 0.04127 0.0
C555 C 0.07361 0.79867 0.00671 0.0
C556 C 0.08812 0.82481 0.9908 0.0
C557 C 0.09521 0.8517 0.01016 0.0
C558 C 0.0479 0.77391 0.0588 0.0
C559 C 0.0991 0.82326 0.95436 0.0
H560 H 0.11448 0.69866 0.98369 0.0
H561 H 0.0243 0.72213 0.9393 0.0
H562 H 0.13698 0.77664 0.0052 0.0
H563 H 0.11985 0.75789 0.04139 0.0
H564 H 0.14511 0.73547 0.01345 0.0
H565 H 0.00129 0.77263 0.94462 0.0
H566 H 0.00635 0.78544 0.98805 0.0
H567 H 0.02719 0.80509 0.95489 0.0
H568 H 0.06838 0.82831 0.08744 0.0
H569 H 0.1082 0.8709 -0.0014 0.0
H570 H 0.06506 0.75447 0.06352 0.0
H571 H 0.0287 0.76438 0.04246 0.0
H572 H 0.03766 0.78131 0.08355 0.0
H573 H 0.12035 0.80781 0.95279 0.0
H574 H 0.10541 0.84695 0.9444 0.0
H575 H 0.08065 0.81284 0.93772 0.0
C576 C 0.679 0.10938 0.04848 0.0
C577 C 0.66054 0.13275 0.03278 0.0
C578 C 0.70638 0.09756 0.03266 0.0
C579 C 0.7147 0.10868 -6e-05 0.0
C580 C 0.69502 0.13104 0.9833 0.0
C581 C 0.6685 0.14327 0.00023 0.0
C582 C 0.72715 0.07435 0.0516 0.0
C583 C 0.70248 0.14277 0.94802 0.0
C584 C 0.8015 0.10856 0.97572 0.0
C585 C 0.80387 0.08145 0.95526 0.0
C586 C 0.77263 0.1176 0.9903 0.0
C587 C 0.74533 0.0991 0.98435 0.0
C588 C 0.7474 0.07189 0.96343 0.0
C589 C 0.77666 0.06342 0.94903 0.0
C590 C 0.77142 0.1469 0.01229 0.0
C591 C 0.71875 0.05168 0.95642 0.0
H592 H 0.6728 0.1014 0.07376 0.0
H593 H 0.65394 0.16111 0.98801 0.0
H594 H 0.73195 0.05326 0.03562 0.0
H595 H 0.7503 0.08547 0.05739 0.0
H596 H 0.71635 0.06655 0.07585 0.0
H597 H 0.68308 0.15758 0.93733 0.0
H598 H 0.72443 0.15702 0.94871 0.0
H599 H 0.70676 0.12252 0.93063 0.0
H600 H 0.8223 0.12286 0.9804 0.0
H601 H 0.7783 0.0424 0.93334 0.0
H602 H 0.76302 0.14073 0.03811 0.0
H603 H 0.75432 0.16418 0.00147 0.0
H604 H 0.79485 0.15853 0.01462 0.0
H605 H 0.70958 0.04194 0.98059 0.0
H606 H 0.72413 0.03171 0.93897 0.0
H607 H 0.69957 0.06626 0.94505 0.0
C608 C 0.42968 0.7008 0.47358 0.0
C609 C 0.42374 0.69601 0.50821 0.0
C610 C 0.42556 0.73058 0.4588 0.0
C611 C 0.41446 0.75595 0.479 0.0
C612 C 0.40976 0.75161 0.51434 0.0
C613 C 0.41487 0.72164 0.52867 0.0
C614 C 0.43108 0.73435 0.42112 0.0
C615 C 0.39708 0.77791 0.53648 0.0
C616 C 0.40889 0.83892 0.44188 0.0
C617 C 0.37748 0.83912 0.43027 0.0
C618 C 0.4217 0.81178 0.45755 0.0
C619 C 0.40235 0.78484 0.46207 0.0
C620 C 0.37089 0.78493 0.44981 0.0
C621 C 0.35912 0.81176 0.43364 0.0
C622 C 0.4556 0.81201 0.46977 0.0
C623 C 0.34921 0.75692 0.45439 0.0
H624 H 0.43709 0.68106 0.45785 0.0
H625 H 0.41032 0.71789 0.55546 0.0
H626 H 0.40799 0.73642 0.40774 0.0
H627 H 0.44453 0.75626 0.41597 0.0
H628 H 0.44418 0.71393 0.41018 0.0
H629 H 0.3983 0.77191 0.56393 0.0
H630 H 0.41041 0.80003 0.53214 0.0
H631 H 0.37198 0.78267 0.52966 0.0
H632 H 0.42308 0.86005 0.4395 0.0
H633 H 0.33483 0.81155 0.42462 0.0
H634 H 0.46876 0.7918 0.45855 0.0
H635 H 0.45638 0.80908 0.49777 0.0
H636 H 0.46792 0.83426 0.46308 0.0
H637 H 0.35913 0.73591 0.44126 0.0
H638 H 0.32502 0.76138 0.44423 0.0
H639 H 0.34725 0.75103 0.48177 0.0
C640 C 0.78985 0.35528 0.52201 0.0
C641 C 0.80227 0.38568 0.52491 0.0
C642 C 0.76048 0.35029 0.50637 0.0
C643 C 0.74383 0.37627 0.49213 0.0
C644 C 0.75636 0.40715 0.49507 0.0
C645 C 0.78535 0.41157 0.51204 0.0
C646 C 0.74753 0.3171 0.50464 0.0
C647 C 0.73987 0.43523 0.47918 0.0
C648 C 0.68958 0.34724 0.42252 0.0
C649 C 0.66063 0.34601 0.43951 0.0
C650 C 0.71638 0.35991 0.43845 0.0
C651 C 0.71429 0.37031 0.47261 0.0
C652 C 0.68459 0.37059 0.48922 0.0
C653 C 0.65787 0.35877 0.47218 0.0
C654 C 0.7473 0.36045 0.41937 0.0
C655 C 0.68145 0.38102 0.52577 0.0
H656 H 0.80306 0.33541 0.53228 0.0
H657 H 0.79532 0.43505 0.51426 0.0
H658 H 0.72292 0.31667 0.51437 0.0
H659 H 0.74683 0.30896 0.47783 0.0
H660 H 0.76206 0.30009 0.51957 0.0
H661 H 0.75115 0.45793 0.48646 0.0
H662 H 0.74055 0.43293 0.45109 0.0
H663 H 0.7146 0.43603 0.48665 0.0
H664 H 0.69136 0.33767 0.397 0.0
H665 H 0.63528 0.35774 0.4851 0.0
H666 H 0.76317 0.34159 0.42924 0.0
H667 H 0.75946 0.38336 0.42322 0.0
H668 H 0.74384 0.35655 0.39166 0.0
H669 H 0.69225 0.36284 0.54255 0.0
H670 H 0.65631 0.38429 0.53323 0.0
H671 H 0.69426 0.40344 0.53031 0.0
C672 C 0.15646 0.69187 0.43554 0.0
C673 C 0.13724 0.66619 0.42664 0.0
C674 C 0.1441 0.71805 0.45294 0.0
C675 C 0.11161 0.71876 0.46154 0.0
C676 C 0.09192 0.69312 0.45244 0.0
C677 C 0.10498 0.66706 0.43517 0.0
C678 C 0.16593 0.74494 0.46222 0.0
C679 C 0.0571 0.69323 0.46089 0.0
C680 C 0.09215 0.7767 0.53224 0.0
C681 C 0.08484 0.80394 0.51355 0.0
C682 C 0.0994 0.74814 0.51566 0.0
C683 C 0.09859 0.74678 0.47967 0.0
C684 C 0.08891 0.77366 0.46089 0.0
C685 C 0.08256 0.80203 0.47804 0.0
C686 C 0.10994 0.72009 0.53655 0.0
C687 C 0.08695 0.77297 0.42255 0.0
H688 H 0.1814 0.69149 0.42919 0.0
H689 H 0.08989 0.64736 0.42842 0.0
H690 H 0.15764 0.76707 0.44992 0.0
H691 H 0.16557 0.74894 0.4901 0.0
H692 H 0.19076 0.74039 0.45434 0.0
H693 H 0.04492 0.67163 0.45164 0.0
H694 H 0.0539 0.695 0.4888 0.0
H695 H 0.04541 0.71421 0.44942 0.0
H696 H 0.09397 0.77815 0.5597 0.0
H697 H 0.07643 0.82299 0.46357 0.0
H698 H 0.13555 0.71573 0.53239 0.0
H699 H 0.09717 0.69849 0.52847 0.0
H700 H 0.10601 0.72385 0.56418 0.0
H701 H 0.11117 0.77174 0.41183 0.0
H702 H 0.0749 0.79428 0.41217 0.0
H703 H 0.07406 0.75168 0.41374 0.0
C704 C 0.67782 0.08763 0.48923 0.0
C705 C 0.67505 0.07621 0.52254 0.0
C706 C 0.70671 0.09875 0.47696 0.0
C707 C 0.73353 0.0987 0.49858 0.0
C708 C 0.7312 0.08652 0.53198 0.0
C709 C 0.70194 0.07526 0.54356 0.0
C710 C 0.7083 0.11132 0.44107 0.0
C711 C 0.75934 0.08632 0.55577 0.0
C712 C 0.81204 0.10865 0.45371 0.0
C713 C 0.81641 0.14145 0.45606 0.0
C714 C 0.78576 0.09414 0.46861 0.0
C715 C 0.76344 0.11286 0.48638 0.0
C716 C 0.76827 0.14578 0.48984 0.0
C717 C 0.79464 0.15969 0.47455 0.0
C718 C 0.78131 0.05896 0.46432 0.0
C719 C 0.74509 0.16649 0.50888 0.0
H720 H 0.65724 0.08824 0.47269 0.0
H721 H 0.69992 0.06661 0.56938 0.0
H722 H 0.71405 0.13687 0.44162 0.0
H723 H 0.72741 0.09915 0.42682 0.0
H724 H 0.68567 0.10821 0.427 0.0
H725 H 0.75412 0.07433 0.5802 0.0
H726 H 0.77977 0.07429 0.54362 0.0
H727 H 0.76663 0.11096 0.56129 0.0
H728 H 0.82889 0.0943 0.43976 0.0
H729 H 0.79809 0.18496 0.47704 0.0
H730 H 0.76043 0.05451 0.44782 0.0
H731 H 0.77661 0.04772 0.48923 0.0
H732 H 0.80229 0.04734 0.4527 0.0
H733 H 0.72208 0.16699 0.49518 0.0
H734 H 0.75363 0.19115 0.51166 0.0
H735 H 0.74067 0.1567 0.53456 0.0
C736 C 0.47744 0.90508 0.0025 0.0
C737 C 0.47661 0.90846 0.96707 0.0
C738 C 0.49445 0.92631 0.02284 0.0
C739 C 0.51031 0.95177 0.00724 0.0
C740 C 0.51335 0.95236 0.97135 0.0
C741 C 0.49646 0.93044 0.95154 0.0
C742 C 0.49157 0.92406 0.06098 0.0
C743 C 0.53056 0.97875 0.95369 0.0
C744 C 0.49542 0.03208 0.04655 0.0
C745 C 0.525 0.03961 0.06048 0.0
C746 C 0.49045 0.00338 0.02972 0.0
C747 C 0.51563 0.98126 0.02705 0.0
C748 C 0.54517 0.98793 0.04254 0.0
C749 C 0.5496 0.0172 0.05893 0.0
C750 C 0.45838 -0.00277 0.01385 0.0
C751 C 0.57239 0.9648 0.04078 0.0
H752 H 0.46227 0.88778 0.01446 0.0
H753 H 0.49581 0.93304 0.92413 0.0
H754 H 0.51387 0.93125 0.07374 0.0
H755 H 0.4725 0.94025 0.06971 0.0
H756 H 0.48549 0.89971 0.06908 0.0
H757 H 0.53635 0.97248 0.92698 0.0
H758 H 0.5153 0.00018 0.95346 0.0
H759 H 0.55274 0.98474 0.96737 0.0
H760 H 0.47621 0.04911 0.0478 0.0
H761 H 0.57257 0.02285 0.06964 0.0
H762 H 0.44813 0.97528 0.02442 0.0
H763 H 0.46088 -0.00618 0.98601 0.0
H764 H 0.44139 0.01691 0.0183 0.0
H765 H 0.56419 0.94027 0.04506 0.0
H766 H 0.59113 0.97042 0.05972 0.0
H767 H 0.58305 0.96566 0.01508 0.0
C768 C 0.44271 0.50272 0.04165 0.0
C769 C 0.41564 0.50935 0.02229 0.0
C770 C 0.47243 0.4996 0.02595 0.0
C771 C 0.47506 0.50449 0.99039 0.0
C772 C 0.44787 0.51246 0.97111 0.0
C773 C 0.41844 0.51423 0.9872 0.0
C774 C 0.50078 0.49013 0.04714 0.0
C775 C 0.44979 0.51885 0.9334 0.0
C776 C 0.5577 0.51746 0.95496 0.0
C777 C 0.56441 0.4876 0.94142 0.0
C778 C 0.52823 0.52373 0.97013 0.0
C779 C 0.50572 0.49914 0.97284 0.0
C780 C 0.51234 0.46915 0.95851 0.0
C781 C 0.54135 0.46402 0.94233 0.0
C782 C 0.52147 0.55637 0.9839 0.0
C783 C 0.48934 0.44206 0.96142 0.0
H784 H 0.44047 0.49908 0.06881 0.0
H785 H 0.39754 0.52001 0.97231 0.0
H786 H 0.5105 0.46735 0.0377 0.0
H787 H 0.51974 0.50799 0.04472 0.0
H788 H 0.49484 0.48751 0.07447 0.0
H789 H 0.42699 0.52763 0.92278 0.0
H790 H 0.46842 0.53657 0.92823 0.0
H791 H 0.45645 0.49688 0.91972 0.0
H792 H 0.57573 0.53559 0.95441 0.0
H793 H 0.54651 0.44104 0.93163 0.0
H794 H 0.51994 0.5555 0.01202 0.0
H795 H 0.49831 0.5651 0.97425 0.0
H796 H 0.5401 0.57356 0.97682 0.0
H797 H 0.48418 0.43742 0.98859 0.0
H798 H 0.4986 0.41995 0.94975 0.0
H799 H 0.46661 0.44825 0.94885 0.0
C800 C 0.00475 0.56207 0.98908 0.0
C801 C 0.98579 0.57592 0.96371 0.0
C802 C -0.00226 0.53227 0.00233 0.0
C803 C 0.97009 0.51651 -0.00864 0.0
C804 C 0.94943 0.5314 0.96777 0.0
C805 C 0.95788 0.5607 0.95363 0.0
C806 C 0.02101 0.51689 0.02655 0.0
C807 C 0.91901 0.51591 0.95663 0.0
C808 C 0.97698 0.42739 -0.00619 0.0
C809 C 0.96298 0.42007 0.02508 0.0
C810 C 0.97814 0.45853 0.98196 0.0
C811 C 0.96503 0.48316 0.00186 0.0
C812 C 0.95007 0.47596 0.03305 0.0
C813 C 0.94921 0.44443 0.04434 0.0
C814 C -0.00557 0.46514 0.94861 0.0
C815 C 0.93563 0.50161 0.05482 0.0
H816 H 0.026 0.57381 -0.00233 0.0
H817 H 0.94281 0.57156 0.93453 0.0
H818 H 0.00889 0.50953 0.05016 0.0
H819 H 0.03106 0.49527 0.01465 0.0
H820 H 0.04086 0.53281 0.03349 0.0
H821 H 0.90344 0.53245 0.94228 0.0
H822 H 0.92442 0.49534 0.9401 0.0
H823 H 0.9059 0.50696 0.97898 0.0
H824 H 0.98731 0.40873 0.97849 0.0
H825 H 0.93809 0.43893 0.06837 0.0
H826 H 0.01559 0.48002 0.95319 0.0
H827 H 0.9784 0.4785 0.93141 0.0
H828 H 0.00205 0.44316 0.93543 0.0
H829 H 0.95462 0.51671 0.06551 0.0
H830 H 0.92169 0.49183 0.0762 0.0
H831 H 0.92003 0.51704 0.03923 0.0
C832 C 0.0663 -0.00772 0.01579 0.0
C833 C 0.06758 0.97511 0.04607 0.0
C834 C 0.04158 0.98762 -0.00759 0.0
C835 C 0.01752 0.96551 -0.0001 0.0
C836 C 0.02117 0.94529 0.02834 0.0
C837 C 0.04598 0.9507 0.05149 0.0
C838 C 0.03902 0.00932 0.96213 0.0
C839 C -0.00319 0.92057 0.03657 0.0
C840 C 0.93528 -0.002 0.98424 0.0
C841 C 0.9271 0.98479 0.95267 0.0
C842 C 0.96427 -0.00874 -0.0001 0.0
C843 C 0.98558 0.96985 0.98427 0.0
C844 C 0.97677 0.95474 0.95346 0.0
C845 C 0.94771 0.9627 0.93772 0.0
C846 C 0.97251 0.00821 0.03266 0.0
C847 C -0.00166 0.93107 0.93646 0.0
H848 H 0.083 0.0113 0.01185 0.0
H849 H 0.04692 0.93758 0.07513 0.0
H850 H 0.03115 -0.00386 0.93925 0.0
H851 H 0.02109 0.02794 0.96741 0.0
H852 H 0.06191 0.02098 0.95652 0.0
H853 H 0.0067 0.90211 0.0537 0.0
H854 H 0.97645 0.93195 0.04955 0.0
H855 H 0.98779 0.90913 0.01306 0.0
H856 H 0.9194 0.01471 -0.00362 0.0
H857 H 0.9415 0.95211 0.91351 0.0
H858 H -0.00577 0.02246 0.02916 0.0
H859 H 0.9774 -0.00918 0.05308 0.0
H860 H 0.95326 0.02423 0.04135 0.0
H861 H 0.01631 0.94382 0.92135 0.0
H862 H 0.985 0.91534 0.91895 0.0
H863 H 0.01106 0.91632 0.95546 0.0
C864 C 0.52922 0.57027 0.50933 0.0
C865 C 0.50571 0.56956 0.53421 0.0
C866 C 0.53513 0.5438 0.48876 0.0
C867 C 0.51636 0.51642 0.49267 0.0
C868 C 0.49333 0.51526 0.5187 0.0
C869 C 0.4884 0.54188 0.53935 0.0
C870 C 0.56024 0.54574 0.46167 0.0
C871 C 0.47264 0.48663 0.52345 0.0
C872 C 0.50446 0.46088 0.41755 0.0
C873 C 0.52531 0.43618 0.42577 0.0
C874 C 0.50185 0.4876 0.4387 0.0
C875 C 0.52016 0.48931 0.46895 0.0
C876 C 0.54156 0.4647 0.47705 0.0
C877 C 0.54407 0.43862 0.45527 0.0
C878 C 0.47908 0.51373 0.42906 0.0
C879 C 0.56122 0.46547 0.50922 0.0
H880 H 0.54195 0.59206 0.50491 0.0
H881 H 0.46947 0.54185 0.55789 0.0
H882 H 0.57634 0.525 0.46318 0.0
H883 H 0.5489 0.54533 0.43619 0.0
H884 H 0.57456 0.56759 0.46393 0.0
H885 H 0.45727 0.48876 0.5462 0.0
H886 H 0.45732 0.48346 0.50073 0.0
H887 H 0.48742 0.46501 0.52598 0.0
H888 H 0.48999 0.45921 0.3948 0.0
H889 H 0.56017 0.41962 0.46205 0.0
H890 H 0.49168 0.53664 0.42804 0.0
H891 H 0.46042 0.51599 0.44869 0.0
H892 H 0.46755 0.50944 0.40405 0.0
H893 H 0.57527 0.48752 0.51036 0.0
H894 H 0.57763 0.44495 0.51118 0.0
H895 H 0.54543 0.46542 0.5317 0.0
C896 C 0.03826 0.49344 0.43942 0.0
C897 C 0.04801 0.52339 0.42878 0.0
C898 C 0.01033 0.48959 0.45796 0.0
C899 C -0.00843 0.5164 0.46616 0.0
C900 C 0.00045 0.54656 0.45415 0.0
C901 C 0.02864 0.54972 0.43558 0.0
C902 C 0.00154 0.45683 0.4698 0.0
C903 C 0.98098 0.57564 0.46202 0.0
C904 C 0.91303 0.48607 0.49542 0.0
C905 C 0.91931 0.48184 0.5301 0.0
C906 C 0.93472 0.50166 0.47451 0.0
C907 C 0.96366 0.51223 0.48864 0.0
C908 C 0.96808 0.51161 0.52438 0.0
C909 C 0.94558 0.49654 0.54483 0.0
C910 C 0.92845 0.503 0.43676 0.0
C911 C -0.00152 0.52281 0.54056 0.0
H912 H 0.05293 0.47297 0.434 0.0
H913 H 0.03604 0.573 0.42748 0.0
H914 H 0.00108 0.45614 0.498 0.0
H915 H 0.97749 0.45069 0.46057 0.0
H916 H 0.01837 0.43846 0.46069 0.0
H917 H 0.98757 0.59592 0.44566 0.0
H918 H 0.95535 0.57087 0.45872 0.0
H919 H 0.98485 0.58256 0.48892 0.0
H920 H 0.89266 0.47456 0.48408 0.0
H921 H 0.95055 0.49292 0.57162 0.0
H922 H 0.94087 0.48304 0.42413 0.0
H923 H 0.93751 0.52528 0.42571 0.0
H924 H 0.90277 0.50107 0.43097 0.0
H925 H 0.01739 0.50503 0.53592 0.0
H926 H -0.004 0.52604 0.56846 0.0
H927 H 0.00622 0.54542 0.52918 0.0
C928 C 0.97935 0.91076 0.49369 0.0
C929 C 0.98789 0.91988 0.52673 0.0
C930 C 0.96249 0.93148 0.47235 0.0
C931 C 0.95517 0.96227 0.48413 0.0
C932 C 0.95977 0.96968 0.51898 0.0
C933 C 0.97599 0.94818 0.54002 0.0
C934 C 0.9564 0.92191 0.43598 0.0
C935 C 0.95181 0.00199 0.53288 0.0
C936 C 0.97536 0.03167 0.42785 0.0
C937 C 0.94556 0.04499 0.42122 0.0
C938 C 0.97851 0.00381 0.44678 0.0
C939 C 0.95111 0.98855 0.45923 0.0
C940 C 0.92079 0.00035 0.4502 0.0
C941 C 0.91835 0.02857 0.43139 0.0
C942 C 0.01142 -0.0081 0.45526 0.0
C943 C 0.89093 0.98446 0.46202 0.0
H944 H 0.98867 0.88883 0.48339 0.0
H945 H 0.98288 0.95532 0.56548 0.0
H946 H 0.93379 0.93212 0.42651 0.0
H947 H 0.97574 0.93091 0.41971 0.0
H948 H 0.95563 0.89579 0.43322 0.0
H949 H 0.95195 0.00234 0.56112 0.0
H950 H 0.96956 0.01924 0.52376 0.0
H951 H 0.92824 0.00993 0.52371 0.0
H952 H -0.00353 0.04394 0.41971 0.0
H953 H 0.89515 0.0386 0.42631 0.0
H954 H 0.0141 0.9669 0.44726 0.0
H955 H 0.01532 -0.00708 0.48316 0.0
H956 H 0.03017 0.00596 0.44273 0.0
H957 H 0.8939 0.95842 0.46337 0.0
H958 H 0.87066 0.99004 0.44494 0.0
H959 H 0.88494 -0.00686 0.48783 0.0
C960 C 0.52918 0.96255 0.54982 0.0
C961 C 0.5514 0.98145 0.53303 0.0
C962 C 0.50055 0.95398 0.53366 0.0
C963 C 0.49402 0.965 0.50032 0.0
C964 C 0.51704 0.98296 0.48296 0.0
C965 C 0.54547 -0.00961 0.49926 0.0
C966 C 0.47725 0.9335 0.55228 0.0
C967 C 0.51119 -0.00429 0.44754 0.0
C968 C 0.43591 0.94145 0.43265 0.0
C969 C 0.41591 0.96789 0.43317 0.0
C970 C 0.45916 0.93728 0.45794 0.0
C971 C 0.4626 0.96049 0.4837 0.0
C972 C 0.43962 0.98487 0.4866 0.0
C973 C 0.41663 0.9884 0.46104 0.0
C974 C 0.48251 0.9104 0.45461 0.0
C975 C 0.44203 0.00996 0.5138 0.0
H976 H 0.53382 0.95506 0.5757 0.0
H977 H 0.56266 0.00446 0.48572 0.0
H978 H 0.45324 0.94421 0.55162 0.0
H979 H 0.47569 0.91021 0.53941 0.0
H980 H 0.48429 0.9296 0.5792 0.0
H981 H 0.53153 0.00948 0.4378 0.0
H982 H 0.50655 0.97601 0.4296 0.0
H983 H 0.48999 0.0113 0.4475 0.0
H984 H 0.43545 0.92577 0.41081 0.0
H985 H 0.40121 0.00897 0.46117 0.0
H986 H 0.48702 0.89941 0.47976 0.0
H987 H 0.5054 0.91953 0.44512 0.0
H988 H 0.47402 0.89199 0.43663 0.0
H989 H 0.44854 -0.00057 0.53867 0.0
H990 H 0.41946 0.02327 0.51666 0.0
H991 H 0.46086 0.02693 0.50682 0.0
C992 C 0.55685 0.30095 0.28197 0.0
C993 C 0.58224 0.29971 0.30505 0.0
C994 C 0.55456 0.27888 0.25519 0.0
C995 C 0.57795 0.25492 0.25188 0.0
C996 C 0.6034 0.25355 0.27527 0.0
C997 C 0.60545 0.27614 0.30111 0.0
C998 C 0.52746 0.28139 0.23023 0.0
C999 C 0.62881 0.22836 0.27285 0.0
C1000 C 0.56763 0.17944 0.20055 0.0
C1001 C 0.58668 0.18572 0.17227 0.0
C1002 C 0.56311 0.20237 0.22606 0.0
C1003 C 0.57758 0.23237 0.22284 0.0
C1004 C 0.59563 0.23923 0.19362 0.0
C1005 C 0.60035 0.21574 0.16904 0.0
C1006 C 0.54418 0.19401 0.25718 0.0
C1007 C 0.61122 0.27099 0.18897 0.0
H1008 H 0.5389 0.31914 0.28476 0.0
H1009 H 0.62539 0.27508 0.31849 0.0
H1010 H 0.53679 0.28545 0.20428 0.0
H1011 H 0.51412 0.25889 0.22949 0.0
H1012 H 0.51087 0.30091 0.2367 0.0
H1013 H 0.64575 0.22928 0.2945 0.0
H1014 H 0.61792 0.20456 0.27219 0.0
H1015 H 0.64227 0.23128 0.24893 0.0
H1016 H 0.55699 0.15633 0.20322 0.0
H1017 H 0.61514 0.22096 0.14738 0.0
H1018 H 0.52633 0.21264 0.26255 0.0
H1019 H 0.56019 0.19264 0.27958 0.0
H1020 H 0.5319 0.171 0.25435 0.0
H1021 H 0.59411 0.29039 0.19406 0.0
H1022 H 0.6208 0.27399 0.16293 0.0
H1023 H 0.631 0.27347 0.20741 0.0
C1024 C 0.17949 0.57761 0.26405 0.0
C1025 C 0.17964 0.56915 0.29831 0.0
C1026 C 0.20551 0.57062 0.24322 0.0
C1027 C 0.23258 0.55544 0.25734 0.0
C1028 C 0.23223 0.54571 0.29173 0.0
C1029 C 0.2056 0.55255 0.31177 0.0
C1030 C 0.20458 0.58087 0.20647 0.0
C1031 C 0.26057 0.52995 0.30802 0.0
C1032 C 0.2867 0.52782 0.18717 0.0
C1033 C 0.30295 0.55593 0.18062 0.0
C1034 C 0.26573 0.52579 0.2147 0.0
C1035 C 0.26171 0.55226 0.23636 0.0
C1036 C 0.282 0.57859 0.23291 0.0
C1037 C 0.30213 0.58031 0.2047 0.0
C1038 C 0.24487 0.4971 0.21761 0.0
C1039 C 0.27954 0.60676 0.25636 0.0
H1040 H 0.15946 0.59067 0.25384 0.0
H1041 H 0.20568 0.54611 0.33838 0.0
H1042 H 0.22201 0.60001 0.20239 0.0
H1043 H 0.21124 0.56088 0.18961 0.0
H1044 H 0.18083 0.5897 0.19871 0.0
H1045 H 0.25427 0.51806 0.3322 0.0
H1046 H 0.27145 0.51233 0.29067 0.0
H1047 H 0.27873 0.54808 0.3137 0.0
H1048 H 0.28701 0.50911 0.16829 0.0
H1049 H 0.31452 0.60214 0.19948 0.0
H1050 H 0.22143 0.50246 0.20607 0.0
H1051 H 0.24093 0.49074 0.24459 0.0
H1052 H 0.25517 0.4764 0.20414 0.0
H1053 H 0.25837 0.62099 0.24936 0.0
H1054 H 0.30069 0.62215 0.25459 0.0
H1055 H 0.27672 0.59908 0.28312 0.0
C1056 C 0.92381 0.293 0.19189 0.0
C1057 C 0.90807 0.2858 0.16147 0.0
C1058 C 0.91836 0.27508 0.22141 0.0
C1059 C 0.89663 0.2496 0.22022 0.0
C1060 C 0.87973 0.2433 0.18993 0.0
C1061 C 0.88566 0.26145 0.161 0.0
C1062 C 0.93647 0.28281 0.2535 0.0
C1063 C 0.85604 0.21674 0.18776 0.0
C1064 C 0.9056 0.1844 0.28623 0.0
C1065 C 0.88266 0.19339 0.31001 0.0
C1066 C 0.91003 0.20215 0.25641 0.0
C1067 C 0.89122 0.22949 0.25058 0.0
C1068 C 0.86674 0.23737 0.27346 0.0
C1069 C 0.86231 0.2188 0.30242 0.0
C1070 C 0.93592 0.19268 0.23207 0.0
C1071 C 0.8465 0.26657 0.26854 0.0
H1072 H 0.94123 0.31172 0.19228 0.0
H1073 H 0.87317 0.25602 0.13759 0.0
H1074 H 0.91992 0.28596 0.27508 0.0
H1075 H 0.95252 0.26287 0.26003 0.0
H1076 H 0.95084 0.30457 0.25088 0.0
H1077 H 0.84415 0.21559 0.16255 0.0
H1078 H 0.86815 0.19384 0.19254 0.0
H1079 H 0.83767 0.21965 0.20759 0.0
H1080 H 0.92159 0.16502 0.29206 0.0
H1081 H 0.8444 0.22577 0.32067 0.0
H1082 H 0.95405 0.21153 0.23103 0.0
H1083 H 0.92607 0.18996 0.20604 0.0
H1084 H 0.94768 0.1702 0.23957 0.0
H1085 H 0.8617 0.28788 0.2687 0.0
H1086 H 0.82836 0.26929 0.2887 0.0
H1087 H 0.83437 0.26574 0.2435 0.0
C1088 C 0.28404 0.93869 0.29491 0.0
C1089 C 0.29339 0.90877 0.30635 0.0
C1090 C 0.26707 0.94209 0.26439 0.0
C1091 C 0.26013 0.91496 0.24467 0.0
C1092 C 0.27148 0.88494 0.25509 0.0
C1093 C 0.28754 0.88213 0.28619 0.0
C1094 C 0.25499 0.97438 0.25436 0.0
C1095 C 0.26536 0.85558 0.23422 0.0
C1096 C 0.1886 0.91209 0.18594 0.0
C1097 C 0.20312 0.91458 0.15422 0.0
C1098 C 0.20683 0.91318 0.2159 0.0
C1099 C 0.24004 0.91754 0.21374 0.0
C1100 C 0.25435 0.92195 0.1817 0.0
C1101 C 0.23573 0.91998 0.15228 0.0
C1102 C 0.19083 0.90809 0.24967 0.0
C1103 C 0.28953 0.92719 0.17838 0.0
H1104 H 0.28798 0.95913 0.31102 0.0
H1105 H 0.29456 0.85898 0.29538 0.0
H1106 H 0.26103 0.97954 0.22753 0.0
H1107 H 0.2288 0.97494 0.25635 0.0
H1108 H 0.2648 -0.00663 0.2708 0.0
H1109 H 0.27783 0.83451 0.24462 0.0
H1110 H 0.2396 0.85066 0.23355 0.0
H1111 H 0.27312 0.85919 0.2076 0.0
H1112 H 0.16338 0.90765 0.18722 0.0
H1113 H 0.24679 0.92203 0.12755 0.0
H1114 H 0.1974 0.92711 0.26778 0.0
H1115 H 0.19902 0.88539 0.2608 0.0
H1116 H 0.16464 0.90744 0.24724 0.0
H1117 H 0.29745 0.94616 0.19592 0.0
H1118 H 0.29632 0.93368 0.15205 0.0
H1119 H 0.30244 0.90529 0.18556 0.0
C1120 C 0.45288 0.78254 0.80735 0.0
C1121 C 0.45741 0.8144 0.79889 0.0
C1122 C 0.45376 0.75886 0.78231 0.0
C1123 C 0.45973 0.76721 0.7481 0.0
C1124 C 0.46695 0.79893 0.73995 0.0
C1125 C 0.46554 0.82218 0.76541 0.0
C1126 C 0.44576 0.72536 0.79207 0.0
C1127 C 0.47394 0.80873 0.70388 0.0
C1128 C 0.47279 0.70195 0.68265 0.0
C1129 C 0.44262 0.69978 0.66778 0.0
C1130 C 0.47891 0.72391 0.70875 0.0
C1131 C 0.45419 0.74383 0.72041 0.0
C1132 C 0.42369 0.74158 0.70557 0.0
C1133 C 0.41836 0.71976 0.67935 0.0
C1134 C 0.51177 0.7259 0.72375 0.0
C1135 C 0.39655 0.76213 0.71748 0.0
H1136 H 0.44665 0.77625 0.83316 0.0
H1137 H 0.46939 0.8467 0.75872 0.0
H1138 H 0.42183 0.71947 0.78227 0.0
H1139 H 0.4627 0.70843 0.78049 0.0
H1140 H 0.44591 0.72194 0.82007 0.0
H1141 H 0.48359 0.83307 0.70256 0.0
H1142 H 0.4911 0.79219 0.69202 0.0
H1143 H 0.45184 0.8079 0.68858 0.0
H1144 H 0.49166 0.68663 0.67378 0.0
H1145 H 0.39493 0.71817 0.66816 0.0
H1146 H 0.51099 0.72111 0.75145 0.0
H1147 H 0.52117 0.75014 0.72055 0.0
H1148 H 0.52844 0.70888 0.71174 0.0
H1149 H 0.39256 0.7585 0.74506 0.0
H1150 H 0.37415 0.75704 0.70367 0.0
H1151 H 0.40242 0.78741 0.71382 0.0
C1152 C 0.7832 0.46331 0.67839 0.0
C1153 C 0.81394 0.45894 0.69127 0.0
C1154 C 0.75737 0.46767 0.70034 0.0
C1155 C 0.76246 0.46781 0.73596 0.0
C1156 C 0.79366 0.46528 0.74897 0.0
C1157 C 0.81899 0.46085 0.72648 0.0
C1158 C 0.72446 0.47027 0.68548 0.0
C1159 C 0.80016 0.46544 0.78676 0.0
C1160 C 0.6984 0.49462 0.79762 0.0
C1161 C 0.68615 0.46558 0.80846 0.0
C1162 C 0.72271 0.49585 0.77334 0.0
C1163 C 0.73514 0.46739 0.75975 0.0
C1164 C 0.72242 0.43808 0.7701 0.0
C1165 C 0.69811 0.43754 0.79422 0.0
C1166 C 0.73557 0.52753 0.76274 0.0
C1167 C 0.73502 0.40715 0.7563 0.0
H1168 H 0.77906 0.46185 0.65122 0.0
H1169 H 0.84268 0.45771 0.73666 0.0
H1170 H 0.71104 0.44848 0.69129 0.0
H1171 H 0.71146 0.49039 0.69708 0.0
H1172 H 0.7248 0.47346 0.65746 0.0
H1173 H 0.82588 0.46627 0.79264 0.0
H1174 H 0.78843 0.48602 0.79896 0.0
H1175 H 0.7902 0.4438 0.79836 0.0
H1176 H 0.68924 0.5164 0.80836 0.0
H1177 H 0.68882 0.41496 0.80232 0.0
H1178 H 0.73473 0.52982 0.73466 0.0
H1179 H 0.76074 0.52943 0.77058 0.0
H1180 H 0.72217 0.54752 0.77417 0.0
H1181 H 0.73374 0.40706 0.72813 0.0
H1182 H 0.72174 0.38646 0.76598 0.0
H1183 H 0.76029 0.40431 0.76352 0.0
C1184 C 0.05149 0.80975 0.71709 0.0
C1185 C 0.03414 0.81473 0.68707 0.0
C1186 C 0.0453 0.78391 0.73822 0.0
C1187 C 0.02071 0.76274 0.72952 0.0
C1188 C 0.00211 0.76839 0.70009 0.0
C1189 C 0.00925 0.79419 0.67898 0.0
C1190 C 0.06608 0.77851 0.76906 0.0
C1191 C 0.97532 0.74668 0.69037 0.0
C1192 C 0.03359 0.6801 0.7638 0.0
C1193 C 0.01682 0.68122 0.79451 0.0
C1194 C 0.03381 0.70598 0.74162 0.0
C1195 C 0.01639 0.73354 0.75001 0.0
C1196 C -0.00229 0.73407 0.77982 0.0
C1197 C -0.00168 0.70796 0.80188 0.0
C1198 C 0.05439 0.70452 0.71033 0.0
C1199 C 0.97838 0.76282 0.7893 0.0
H1200 H 0.07082 0.82542 0.72356 0.0
H1201 H -0.00437 0.79799 0.65592 0.0
H1202 H 0.05138 0.77643 0.79223 0.0
H1203 H 0.07932 0.75595 0.76614 0.0
H1204 H 0.0834 0.79785 0.77301 0.0
H1205 H 0.96095 0.75622 0.66898 0.0
H1206 H 0.98499 0.72332 0.68271 0.0
H1207 H 0.95961 0.74273 0.71248 0.0
H1208 H 0.0479 0.65953 0.75776 0.0
H1209 H 0.98514 0.70896 0.82545 0.0
H1210 H 0.07421 0.72147 0.71308 0.0
H1211 H 0.04064 0.71152 0.68746 0.0
H1212 H 0.06449 0.68056 0.70604 0.0
H1213 H -0.00558 0.78217 0.7973 0.0
H1214 H 0.9618 0.75792 0.81046 0.0
H1215 H 0.96462 0.77142 0.76705 0.0
C1216 C 0.68186 0.04898 0.71233 0.0
C1217 C 0.67179 0.02658 0.68831 0.0
C1218 C 0.7086 0.04356 0.73275 0.0
C1219 C 0.72551 0.01476 0.72957 0.0
C1220 C 0.71497 -0.00841 0.70612 0.0
C1221 C 0.68837 -0.00211 0.68551 0.0
C1222 C 0.71928 0.06915 0.75701 0.0
C1223 C 0.73213 0.96042 0.70241 0.0
C1224 C 0.81128 0.02085 0.75728 0.0
C1225 C 0.8098 0.01112 0.79132 0.0
C1226 C 0.78433 0.02059 0.73634 0.0
C1227 C 0.75516 0.01002 0.74962 0.0
C1228 C 0.75393 -0.00175 0.78328 0.0
C1229 C 0.78126 -0.00095 0.8038 0.0
C1230 C 0.78668 0.03356 0.70069 0.0
C1231 C 0.72336 0.98644 0.79822 0.0
H1232 H 0.66933 0.07129 0.71461 0.0
H1233 H 0.68064 0.98043 0.6671 0.0
H1234 H 0.72078 0.05973 0.78326 0.0
H1235 H 0.74331 0.07725 0.74995 0.0
H1236 H 0.70308 0.08991 0.75698 0.0
H1237 H 0.71962 0.94401 0.68491 0.0
H1238 H 0.7563 0.96449 0.69249 0.0
H1239 H 0.73475 0.9489 0.72759 0.0
H1240 H 0.83324 0.03005 0.74728 0.0
H1241 H 0.77991 -0.00866 0.83001 0.0
H1242 H 0.77325 0.05612 0.69901 0.0
H1243 H 0.77597 0.01695 0.68214 0.0
H1244 H 0.81155 0.03807 0.69315 0.0
H1245 H 0.70705 0.00668 0.80246 0.0
H1246 H 0.72718 0.9742 0.82286 0.0
H1247 H 0.71148 0.96998 0.78033 0.0
loop_
_geom_bond_atom_site_label_1
_geom_bond_atom_site_label_2
_geom_bond_distance
_geom_bond_site_symmetry_2
_ccdc_geom_bond_type
Mg0 O1 2.028 . S
Mg0 O7 1.986 . S
Mg0 O9 2.114 . S
Mg0 O10 2.251 . S
Mg0 O13 2.010 . S
O1 Mg0 2.028 . S
O1 C4 1.250 . S
O2 Mg3 2.028 . S
O2 C4 1.248 . S
Mg3 O2 2.028 . S
Mg3 O8 2.032 . S
Mg3 O10 2.079 . S
C4 O1 1.250 . S
C4 O2 1.248 . S
C5 O6 1.264 . S
C5 O13 1.249 . S
O6 C5 1.264 . S
O7 Mg0 1.986 . S
O7 C11 1.246 . S
O8 Mg3 2.032 . S
O8 C11 1.259 . S
O9 Mg0 2.114 . S
O9 C12 1.252 . S
O10 Mg0 2.251 . S
O10 Mg3 2.079 . S
O10 C12 1.273 . S
C11 O7 1.246 . S
C11 O8 1.259 . S
C12 O9 1.252 . S
C12 O10 1.273 . S
O13 Mg0 2.010 . S
O13 C5 1.249 . S
Mg14 O15 2.028 . S
Mg14 O21 1.986 . S
Mg14 O23 2.114 . S
Mg14 O24 2.251 . S
Mg14 O27 2.010 . S
O15 Mg14 2.028 . S
O15 C18 1.250 . S
O16 Mg17 2.028 . S
O16 C18 1.248 . S
Mg17 O16 2.028 . S
Mg17 O22 2.032 . S
Mg17 O24 2.079 . S
C18 O15 1.250 . S
C18 O16 1.248 . S
C19 O20 1.264 . S
C19 O27 1.249 . S
O20 C19 1.264 . S
O21 Mg14 1.986 . S
O21 C25 1.246 . S
O22 Mg17 2.032 . S
O22 C25 1.259 . S
O23 Mg14 2.114 . S
O23 C26 1.252 . S
O24 Mg14 2.251 . S
O24 Mg17 2.079 . S
O24 C26 1.273 . S
C25 O21 1.246 . S
C25 O22 1.259 . S
C26 O23 1.252 . S
C26 O24 1.273 . S
O27 Mg14 2.010 . S
O27 C19 1.249 . S
Mg28 O29 2.028 . S
Mg28 O35 1.986 . S
Mg28 O37 2.114 . S
Mg28 O38 2.251 . S
Mg28 O41 2.010 . S
O29 Mg28 2.028 . S
O29 C32 1.250 . S
O30 Mg31 2.028 . S
O30 C32 1.248 . S
Mg31 O30 2.028 . S
Mg31 O36 2.032 . S
Mg31 O38 2.079 . S
C32 O29 1.250 . S
C32 O30 1.248 . S
C33 O34 1.292 . S
C33 O41 1.249 . S
O34 C33 1.292 . S
O35 Mg28 1.986 . S
O35 C39 1.246 . S
O36 Mg31 2.032 . S
O36 C39 1.259 . S
O37 Mg28 2.114 . S
O37 C40 1.252 . S
O38 Mg28 2.251 . S
O38 Mg31 2.079 . S
O38 C40 1.273 . S
C39 O35 1.246 . S
C39 O36 1.259 . S
C40 O37 1.252 . S
C40 O38 1.273 . S
O41 Mg28 2.010 . S
O41 C33 1.249 . S
Mg42 O43 2.028 . S
Mg42 O49 1.986 . S
Mg42 O51 2.114 . S
Mg42 O52 2.251 . S
Mg42 O55 2.010 . S
O43 Mg42 2.028 . S
O43 C46 1.250 . S
O44 Mg45 2.028 . S
O44 C46 1.248 . S
Mg45 O44 2.028 . S
Mg45 O50 2.032 . S
Mg45 O52 2.079 . S
C46 O43 1.250 . S
C46 O44 1.248 . S
C47 O48 1.292 . S
C47 O55 1.249 . S
O48 C47 1.292 . S
O49 Mg42 1.986 . S
O49 C53 1.246 . S
O50 Mg45 2.032 . S
O50 C53 1.259 . S
O51 Mg42 2.114 . S
O51 C54 1.252 . S
O52 Mg42 2.251 . S
O52 Mg45 2.079 . S
O52 C54 1.273 . S
C53 O49 1.246 . S
C53 O50 1.259 . S
C54 O51 1.252 . S
C54 O52 1.273 . S
O55 Mg42 2.010 . S
O55 C47 1.249 . S
Mg56 O57 2.028 . S
Mg56 O63 1.986 . S
Mg56 O65 2.114 . S
Mg56 O66 2.251 . S
Mg56 O69 2.010 . S
O57 Mg56 2.028 . S
O57 C60 1.250 . S
O58 Mg59 2.028 . S
O58 C60 1.248 . S
Mg59 O58 2.028 . S
Mg59 O64 2.032 . S
Mg59 O66 2.079 . S
C60 O57 1.250 . S
C60 O58 1.248 . S
C61 O62 1.264 . S
C61 O69 1.249 . S
O62 C61 1.264 . S
O63 Mg56 1.986 . S
O63 C67 1.246 . S
O64 Mg59 2.032 . S
O64 C67 1.259 . S
O65 Mg56 2.114 . S
O65 C68 1.252 . S
O66 Mg56 2.251 . S
O66 Mg59 2.079 . S
O66 C68 1.273 . S
C67 O63 1.246 . S
C67 O64 1.259 . S
C68 O65 1.252 . S
C68 O66 1.273 . S
O69 Mg56 2.010 . S
O69 C61 1.249 . S
Mg70 O71 2.028 . S
Mg70 O77 1.986 . S
Mg70 O79 2.114 . S
Mg70 O80 2.251 . S
Mg70 O83 2.010 . S
O71 Mg70 2.028 . S
O71 C74 1.250 . S
O72 Mg73 2.028 . S
O72 C74 1.248 . S
Mg73 O72 2.028 . S
Mg73 O78 2.032 . S
Mg73 O80 2.079 . S
C74 O71 1.250 . S
C74 O72 1.248 . S
C75 O76 1.264 . S
C75 O83 1.249 . S
O76 C75 1.264 . S
O77 Mg70 1.986 . S
O77 C81 1.246 . S
O78 Mg73 2.032 . S
O78 C81 1.259 . S
O79 Mg70 2.114 . S
O79 C82 1.252 . S
O80 Mg70 2.251 . S
O80 Mg73 2.079 . S
O80 C82 1.273 . S
C81 O77 1.246 . S
C81 O78 1.259 . S
C82 O79 1.252 . S
C82 O80 1.273 . S
O83 Mg70 2.010 . S
O83 C75 1.249 . S
Mg84 O85 2.028 . S
Mg84 O91 1.986 . S
Mg84 O93 2.114 . S
Mg84 O94 2.251 . S
Mg84 O97 2.010 . S
O85 Mg84 2.028 . S
O85 C88 1.250 . S
O86 Mg87 2.028 . S
O86 C88 1.248 . S
Mg87 O86 2.028 . S
Mg87 O92 2.032 . S
Mg87 O94 2.079 . S
C88 O85 1.250 . S
C88 O86 1.248 . S
C89 O90 1.292 . S
C89 O97 1.249 . S
O90 C89 1.292 . S
O91 Mg84 1.986 . S
O91 C95 1.246 . S
O92 Mg87 2.032 . S
O92 C95 1.259 . S
O93 Mg84 2.114 . S
O93 C96 1.252 . S
O94 Mg84 2.251 . S
O94 Mg87 2.079 . S
O94 C96 1.273 . S
C95 O91 1.246 . S
C95 O92 1.259 . S
C96 O93 1.252 . S
C96 O94 1.273 . S
O97 Mg84 2.010 . S
O97 C89 1.249 . S
Mg98 O99 2.028 . S
Mg98 O105 1.986 . S
Mg98 O107 2.114 . S
Mg98 O108 2.251 . S
Mg98 O111 2.010 . S
O99 Mg98 2.028 . S
O99 C102 1.250 . S
O100 Mg101 2.028 . S
O100 C102 1.248 . S
Mg101 O100 2.028 . S
Mg101 O106 2.032 . S
Mg101 O108 2.079 . S
C102 O99 1.250 . S
C102 O100 1.248 . S
C103 O104 1.292 . S
C103 O111 1.249 . S
O104 C103 1.292 . S
O105 Mg98 1.986 . S
O105 C109 1.246 . S
O106 Mg101 2.032 . S
O106 C109 1.259 . S
O107 Mg98 2.114 . S
O107 C110 1.252 . S
O108 Mg98 2.251 . S
O108 Mg101 2.079 . S
O108 C110 1.273 . S
C109 O105 1.246 . S
C109 O106 1.259 . S
C110 O107 1.252 . S
C110 O108 1.273 . S
O111 Mg98 2.010 . S
O111 C103 1.249 . S
Mg112 O113 2.028 . S
Mg112 O119 1.986 . S
Mg112 O121 2.114 . S
Mg112 O122 2.251 . S
Mg112 O125 2.010 . S
O113 Mg112 2.028 . S
O113 C116 1.250 . S
O114 Mg115 2.028 1_556 S
O114 C116 1.248 . S
Mg115 O114 2.028 1_554 S
Mg115 O120 2.032 1_554 S
Mg115 O122 2.079 1_554 S
C116 O113 1.250 . S
C116 O114 1.248 . S
C117 O118 1.264 . S
C117 O125 1.249 . S
O118 C117 1.264 . S
O119 Mg112 1.986 . S
O119 C123 1.246 . S
O120 Mg115 2.032 1_556 S
O120 C123 1.259 . S
O121 Mg112 2.114 . S
O121 C124 1.252 . S
O122 Mg112 2.251 . S
O122 Mg115 2.079 1_556 S
O122 C124 1.273 . S
C123 O119 1.246 . S
C123 O120 1.259 . S
C124 O121 1.252 . S
C124 O122 1.273 . S
O125 Mg112 2.010 . S
O125 C117 1.249 . S
Mg126 O127 2.028 . S
Mg126 O133 1.986 . S
Mg126 O135 2.114 . S
Mg126 O136 2.251 . S
Mg126 O139 2.010 . S
O127 Mg126 2.028 . S
O127 C130 1.250 . S
O128 Mg129 2.028 1_556 S
O128 C130 1.248 . S
Mg129 O128 2.028 1_554 S
Mg129 O134 2.032 1_554 S
Mg129 O136 2.079 1_554 S
C130 O127 1.250 . S
C130 O128 1.248 . S
C131 O132 1.264 . S
C131 O139 1.249 . S
O132 C131 1.264 . S
O133 Mg126 1.986 . S
O133 C137 1.246 . S
O134 Mg129 2.032 1_556 S
O134 C137 1.259 . S
O135 Mg126 2.114 . S
O135 C138 1.252 . S
O136 Mg126 2.251 . S
O136 Mg129 2.079 1_556 S
O136 C138 1.273 . S
C137 O133 1.246 . S
C137 O134 1.259 . S
C138 O135 1.252 . S
C138 O136 1.273 . S
O139 Mg126 2.010 . S
O139 C131 1.249 . S
Mg140 O141 2.028 . S
Mg140 O147 1.986 . S
Mg140 O149 2.114 . S
Mg140 O150 2.251 . S
Mg140 O153 2.010 . S
O141 Mg140 2.028 . S
O141 C144 1.250 . S
O142 Mg143 2.028 1_556 S
O142 C144 1.248 . S
Mg143 O142 2.028 1_554 S
Mg143 O148 2.032 1_554 S
Mg143 O150 2.079 1_554 S
C144 O141 1.250 . S
C144 O142 1.248 . S
C145 O146 1.264 . S
C145 O153 1.249 . S
O146 C145 1.264 . S
O147 Mg140 1.986 . S
O147 C151 1.246 . S
O148 Mg143 2.032 1_556 S
O148 C151 1.259 . S
O149 Mg140 2.114 . S
O149 C152 1.252 . S
O150 Mg140 2.251 . S
O150 Mg143 2.079 1_556 S
O150 C152 1.273 . S
C151 O147 1.246 . S
C151 O148 1.259 . S
C152 O149 1.252 . S
C152 O150 1.273 . S
O153 Mg140 2.010 . S
O153 C145 1.249 . S
Mg154 O155 2.028 . S
Mg154 O161 1.986 . S
Mg154 O163 2.114 . S
Mg154 O164 2.251 . S
Mg154 O167 2.010 . S
O155 Mg154 2.028 . S
O155 C158 1.250 . S
O156 Mg157 2.028 1_556 S
O156 C158 1.248 . S
Mg157 O156 2.028 1_554 S
Mg157 O162 2.032 1_554 S
Mg157 O164 2.079 1_554 S
C158 O155 1.250 . S
C158 O156 1.248 . S
C159 O160 1.264 . S
C159 O167 1.249 . S
O160 C159 1.264 . S
O161 Mg154 1.986 . S
O161 C165 1.246 . S
O162 Mg157 2.032 1_556 S
O162 C165 1.259 . S
O163 Mg154 2.114 . S
O163 C166 1.252 . S
O164 Mg154 2.251 . S
O164 Mg157 2.079 1_556 S
O164 C166 1.273 . S
C165 O161 1.246 . S
C165 O162 1.259 . S
C166 O163 1.252 . S
C166 O164 1.273 . S
O167 Mg154 2.010 . S
O167 C159 1.249 . S
Mg168 O169 2.028 . S
Mg168 O175 1.986 . S
Mg168 O177 2.114 . S
Mg168 O178 2.251 . S
Mg168 O181 2.010 . S
O169 Mg168 2.028 . S
O169 C172 1.250 . S
O170 Mg171 2.028 . S
O170 C172 1.248 . S
Mg171 O170 2.028 . S
Mg171 O176 2.032 . S
Mg171 O178 2.079 . S
C172 O169 1.250 . S
C172 O170 1.248 . S
C173 O174 1.264 . S
C173 O181 1.249 . S
O174 C173 1.264 . S
O175 Mg168 1.986 . S
O175 C179 1.246 . S
O176 Mg171 2.032 . S
O176 C179 1.259 . S
O177 Mg168 2.114 . S
O177 C180 1.252 . S
O178 Mg168 2.251 . S
O178 Mg171 2.079 . S
O178 C180 1.273 . S
C179 O175 1.246 . S
C179 O176 1.259 . S
C180 O177 1.252 . S
C180 O178 1.273 . S
O181 Mg168 2.010 . S
O181 C173 1.249 . S
Mg182 O183 2.028 . S
Mg182 O189 1.986 . S
Mg182 O191 2.114 . S
Mg182 O192 2.251 . S
Mg182 O195 2.010 . S
O183 Mg182 2.028 . S
O183 C186 1.250 . S
O184 Mg185 2.028 . S
O184 C186 1.248 . S
Mg185 O184 2.028 . S
Mg185 O190 2.032 . S
Mg185 O192 2.079 . S
C186 O183 1.250 . S
C186 O184 1.248 . S
C187 O188 1.264 . S
C187 O195 1.249 . S
O188 C187 1.264 . S
O189 Mg182 1.986 . S
O189 C193 1.246 . S
O190 Mg185 2.032 . S
O190 C193 1.259 . S
O191 Mg182 2.114 . S
O191 C194 1.252 . S
O192 Mg182 2.251 . S
O192 Mg185 2.079 . S
O192 C194 1.273 . S
C193 O189 1.246 . S
C193 O190 1.259 . S
C194 O191 1.252 . S
C194 O192 1.273 . S
O195 Mg182 2.010 . S
O195 C187 1.249 . S
Mg196 O197 2.028 . S
Mg196 O203 1.986 . S
Mg196 O205 2.114 . S
Mg196 O206 2.251 . S
Mg196 O209 2.010 . S
O197 Mg196 2.028 . S
O197 C200 1.250 . S
O198 Mg199 2.028 . S
O198 C200 1.248 . S
Mg199 O198 2.028 . S
Mg199 O204 2.032 . S
Mg199 O206 2.079 . S
C200 O197 1.250 . S
C200 O198 1.248 . S
C201 O202 1.264 . S
C201 O209 1.249 . S
O202 C201 1.264 . S
O203 Mg196 1.986 . S
O203 C207 1.246 . S
O204 Mg199 2.032 . S
O204 C207 1.259 . S
O205 Mg196 2.114 . S
O205 C208 1.252 . S
O206 Mg196 2.251 . S
O206 Mg199 2.079 . S
O206 C208 1.273 . S
C207 O203 1.246 . S
C207 O204 1.259 . S
C208 O205 1.252 . S
C208 O206 1.273 . S
O209 Mg196 2.010 . S
O209 C201 1.249 . S
Mg210 O211 2.028 . S
Mg210 O217 1.986 . S
Mg210 O219 2.114 . S
Mg210 O220 2.251 . S
Mg210 O223 2.010 . S
O211 Mg210 2.028 . S
O211 C214 1.250 . S
O212 Mg213 2.028 . S
O212 C214 1.248 . S
Mg213 O212 2.028 . S
Mg213 O218 2.032 . S
Mg213 O220 2.079 . S
C214 O211 1.250 . S
C214 O212 1.248 . S
C215 O216 1.264 . S
C215 O223 1.249 . S
O216 C215 1.264 . S
O217 Mg210 1.986 . S
O217 C221 1.246 . S
O218 Mg213 2.032 . S
O218 C221 1.259 . S
O219 Mg210 2.114 . S
O219 C222 1.252 . S
O220 Mg210 2.251 . S
O220 Mg213 2.079 . S
O220 C222 1.273 . S
C221 O217 1.246 . S
C221 O218 1.259 . S
C222 O219 1.252 . S
C222 O220 1.273 . S
O223 Mg210 2.010 . S
O223 C215 1.249 . S
C224 C225 1.391 . S
C224 C226 1.394 . S
C224 H240 0.931 . S
C225 C224 1.391 . S
C225 C229 1.376 . S
C226 C224 1.394 . S
C226 C227 1.369 . S
C226 C230 1.531 . S
C227 C226 1.369 . S
C227 C228 1.410 . S
C227 C235 1.503 1_554 S
C228 C227 1.410 . S
C228 C229 1.392 . S
C228 C231 1.511 1_554 S
C229 C225 1.376 . S
C229 C228 1.392 . S
C229 H241 0.929 . S
C230 C226 1.531 . S
C230 H242 0.960 . S
C230 H243 0.962 . S
C230 H244 0.960 . S
C231 C228 1.511 1_556 S
C231 H245 0.961 . S
C231 H246 0.961 . S
C231 H247 0.961 1_556 S
C232 C233 1.370 . S
C232 C234 1.363 . S
C232 H248 0.931 . S
C233 C232 1.370 . S
C233 C237 1.408 . S
C234 C232 1.363 . S
C234 C235 1.370 . S
C234 C238 1.524 . S
C235 C227 1.503 1_556 S
C235 C234 1.370 . S
C235 C236 1.403 . S
C236 C235 1.403 . S
C236 C237 1.404 . S
C236 C239 1.539 1_556 S
C237 C233 1.408 . S
C237 C236 1.404 . S
C237 H249 0.930 . S
C238 C234 1.524 . S
C238 H250 0.956 . S
C238 H251 0.961 . S
C238 H252 0.961 . S
C239 C236 1.539 1_554 S
C239 H253 0.958 . S
C239 H254 0.961 . S
C239 H255 0.960 . S
H240 C224 0.931 . S
H241 C229 0.929 . S
H242 C230 0.960 . S
H243 C230 0.962 . S
H244 C230 0.960 . S
H245 C231 0.961 . S
H246 C231 0.961 . S
H247 C231 0.961 1_554 S
H248 C232 0.931 . S
H249 C237 0.930 . S
H250 C238 0.956 . S
H251 C238 0.961 . S
H252 C238 0.961 . S
H253 C239 0.958 . S
H254 C239 0.961 . S
H255 C239 0.960 . S
C256 C257 1.391 . S
C256 C258 1.394 . S
C256 H272 0.931 . S
C257 C256 1.391 . S
C257 C261 1.376 . S
C258 C256 1.394 . S
C258 C259 1.369 . S
C258 C262 1.531 . S
C259 C258 1.369 . S
C259 C260 1.410 . S
C259 C267 1.487 1_556 S
C260 C259 1.410 . S
C260 C261 1.392 . S
C260 C263 1.511 1_556 S
C261 C257 1.376 . S
C261 C260 1.392 . S
C261 H273 0.929 . S
C262 C258 1.531 . S
C262 H274 0.960 . S
C262 H275 0.962 . S
C262 H276 0.960 . S
C263 C260 1.511 1_554 S
C263 H277 0.961 . S
C263 H278 0.961 . S
C263 H279 0.961 . S
C264 C265 1.370 . S
C264 C266 1.380 . S
C264 H280 0.931 . S
C265 C264 1.370 . S
C265 C269 1.408 . S
C266 C264 1.380 . S
C266 C267 1.370 . S
C266 C270 1.508 1_554 S
C267 C259 1.487 1_554 S
C267 C266 1.370 . S
C267 C268 1.419 . S
C268 C267 1.419 . S
C268 C269 1.404 . S
C268 C271 1.539 . S
C269 C265 1.408 . S
C269 C268 1.404 . S
C269 H281 0.930 . S
C270 C266 1.508 1_556 S
C270 H282 0.956 . S
C270 H283 0.961 . S
C270 H284 0.961 . S
C271 C268 1.539 . S
C271 H285 0.958 . S
C271 H286 0.961 . S
C271 H287 0.960 . S
H272 C256 0.931 . S
H273 C261 0.929 . S
H274 C262 0.960 . S
H275 C262 0.962 . S
H276 C262 0.960 . S
H277 C263 0.961 . S
H278 C263 0.961 . S
H279 C263 0.961 . S
H280 C264 0.931 . S
H281 C269 0.930 . S
H282 C270 0.956 . S
H283 C270 0.961 . S
H284 C270 0.961 . S
H285 C271 0.958 . S
H286 C271 0.961 . S
H287 C271 0.960 . S
C288 C289 1.391 . S
C288 C290 1.394 . S
C288 H304 0.931 . S
C289 C288 1.391 . S
C289 C293 1.376 . S
C290 C288 1.394 . S
C290 C291 1.369 . S
C290 C294 1.531 1_556 S
C291 C290 1.369 . S
C291 C292 1.410 . S
C291 C299 1.503 1_556 S
C292 C291 1.410 . S
C292 C293 1.392 . S
C292 C295 1.511 . S
C293 C289 1.376 . S
C293 C292 1.392 . S
C293 H305 0.929 . S
C294 C290 1.531 1_554 S
C294 H306 0.960 . S
C294 H307 0.962 . S
C294 H308 0.960 . S
C295 C292 1.511 . S
C295 H309 0.961 . S
C295 H310 0.961 . S
C295 H311 0.961 . S
C296 C297 1.370 . S
C296 C298 1.363 1_554 S
C296 H312 0.931 . S
C297 C296 1.370 . S
C297 C301 1.408 . S
C298 C296 1.363 1_556 S
C298 C299 1.370 1_556 S
C298 C302 1.524 . S
C299 C291 1.503 1_554 S
C299 C298 1.370 1_554 S
C299 C300 1.403 . S
C300 C299 1.403 . S
C300 C301 1.404 . S
C300 C303 1.539 . S
C301 C297 1.408 . S
C301 C300 1.404 . S
C301 H313 0.930 . S
C302 C298 1.524 . S
C302 H314 0.956 . S
C302 H315 0.961 . S
C302 H316 0.961 . S
C303 C300 1.539 . S
C303 H317 0.958 . S
C303 H318 0.961 . S
C303 H319 0.960 . S
H304 C288 0.931 . S
H305 C293 0.929 . S
H306 C294 0.960 . S
H307 C294 0.962 . S
H308 C294 0.960 . S
H309 C295 0.961 . S
H310 C295 0.961 . S
H311 C295 0.961 . S
H312 C296 0.931 . S
H313 C301 0.930 . S
H314 C302 0.956 . S
H315 C302 0.961 . S
H316 C302 0.961 . S
H317 C303 0.958 . S
H318 C303 0.961 . S
H319 C303 0.960 . S
C320 C321 1.391 . S
C320 C322 1.394 . S
C320 H336 0.931 . S
C321 C320 1.391 . S
C321 C325 1.376 . S
C322 C320 1.394 . S
C322 C323 1.369 . S
C322 C326 1.531 . S
C323 C322 1.369 . S
C323 C324 1.410 . S
C323 C331 1.503 . S
C324 C323 1.410 . S
C324 C325 1.392 . S
C324 C327 1.511 . S
C325 C321 1.376 . S
C325 C324 1.392 . S
C325 H337 0.929 . S
C326 C322 1.531 . S
C326 H338 0.960 . S
C326 H339 0.962 1_556 S
C326 H340 0.960 . S
C327 C324 1.511 . S
C327 H341 0.961 . S
C327 H342 0.961 . S
C327 H343 0.961 . S
C328 C329 1.370 . S
C328 C330 1.363 . S
C328 H344 0.931 . S
C329 C328 1.370 . S
C329 C333 1.406 . S
C330 C328 1.363 . S
C330 C331 1.370 1_554 S
C330 C334 1.524 . S
C331 C323 1.503 . S
C331 C330 1.370 1_556 S
C331 C332 1.403 . S
C332 C331 1.403 . S
C332 C333 1.405 1_556 S
C332 C335 1.539 . S
C333 C329 1.406 . S
C333 C332 1.405 1_554 S
C333 H345 0.931 1_554 S
C334 C330 1.524 . S
C334 H346 0.956 . S
C334 H347 0.961 . S
C334 H348 0.961 . S
C335 C332 1.539 . S
C335 H349 0.958 . S
C335 H350 0.961 . S
C335 H351 0.960 . S
H336 C320 0.931 . S
H337 C325 0.929 . S
H338 C326 0.960 . S
H339 C326 0.962 1_554 S
H340 C326 0.960 . S
H341 C327 0.961 . S
H342 C327 0.961 . S
H343 C327 0.961 . S
H344 C328 0.931 . S
H345 C333 0.931 1_556 S
H346 C334 0.956 . S
H347 C334 0.961 . S
H348 C334 0.961 . S
H349 C335 0.958 . S
H350 C335 0.961 . S
H351 C335 0.960 . S
C352 C353 1.391 . S
C352 C354 1.394 . S
C352 H368 0.931 . S
C353 C352 1.391 . S
C353 C357 1.376 . S
C354 C352 1.394 . S
C354 C355 1.369 . S
C354 C358 1.531 . S
C355 C354 1.369 . S
C355 C356 1.410 . S
C355 C363 1.503 . S
C356 C355 1.410 . S
C356 C357 1.392 . S
C356 C359 1.511 . S
C357 C353 1.376 . S
C357 C356 1.392 . S
C357 H369 0.929 . S
C358 C354 1.531 . S
C358 H370 0.960 . S
C358 H371 0.962 . S
C358 H372 0.960 . S
C359 C356 1.511 . S
C359 H373 0.961 . S
C359 H374 0.961 . S
C359 H375 0.961 . S
C360 C361 1.370 . S
C360 C362 1.363 . S
C360 H376 0.931 . S
C361 C360 1.370 . S
C361 C365 1.408 . S
C362 C360 1.363 . S
C362 C363 1.370 . S
C362 C366 1.524 . S
C363 C355 1.503 . S
C363 C362 1.370 . S
C363 C364 1.403 . S
C364 C363 1.403 . S
C364 C365 1.404 . S
C364 C367 1.539 . S
C365 C361 1.408 . S
C365 C364 1.404 . S
C365 H377 0.930 . S
C366 C362 1.524 . S
C366 H378 0.956 . S
C366 H379 0.961 . S
C366 H380 0.961 . S
C367 C364 1.539 . S
C367 H381 0.958 . S
C367 H382 0.961 . S
C367 H383 0.960 . S
H368 C352 0.931 . S
H369 C357 0.929 . S
H370 C358 0.960 . S
H371 C358 0.962 . S
H372 C358 0.960 . S
H373 C359 0.961 . S
H374 C359 0.961 . S
H375 C359 0.961 . S
H376 C360 0.931 . S
H377 C365 0.930 . S
H378 C366 0.956 . S
H379 C366 0.961 . S
H380 C366 0.961 . S
H381 C367 0.958 . S
H382 C367 0.961 . S
H383 C367 0.960 . S
C384 C385 1.391 . S
C384 C386 1.394 . S
C384 H400 0.931 . S
C385 C384 1.391 . S
C385 C389 1.376 . S
C386 C384 1.394 . S
C386 C387 1.369 . S
C386 C390 1.531 . S
C387 C386 1.369 . S
C387 C388 1.410 . S
C387 C395 1.503 . S
C388 C387 1.410 . S
C388 C389 1.392 . S
C388 C391 1.511 . S
C389 C385 1.376 . S
C389 C388 1.392 . S
C389 H401 0.929 . S
C390 C386 1.531 . S
C390 H402 0.960 . S
C390 H403 0.962 . S
C390 H404 0.960 . S
C391 C388 1.511 . S
C391 H405 0.961 . S
C391 H406 0.961 . S
C391 H407 0.961 . S
C392 C393 1.370 . S
C392 C394 1.363 . S
C392 H408 0.931 . S
C393 C392 1.370 . S
C393 C397 1.408 . S
C394 C392 1.363 . S
C394 C395 1.370 . S
C394 C398 1.524 . S
C395 C387 1.503 . S
C395 C394 1.370 . S
C395 C396 1.403 . S
C396 C395 1.403 . S
C396 C397 1.404 . S
C396 C399 1.539 . S
C397 C393 1.408 . S
C397 C396 1.404 . S
C397 H409 0.930 . S
C398 C394 1.524 . S
C398 H410 0.956 . S
C398 H411 0.961 . S
C398 H412 0.961 . S
C399 C396 1.539 . S
C399 H413 0.958 . S
C399 H414 0.961 . S
C399 H415 0.960 . S
H400 C384 0.931 . S
H401 C389 0.929 . S
H402 C390 0.960 . S
H403 C390 0.962 . S
H404 C390 0.960 . S
H405 C391 0.961 . S
H406 C391 0.961 . S
H407 C391 0.961 . S
H408 C392 0.931 . S
H409 C397 0.930 . S
H410 C398 0.956 . S
H411 C398 0.961 . S
H412 C398 0.961 . S
H413 C399 0.958 . S
H414 C399 0.961 . S
H415 C399 0.960 . S
C416 C417 1.391 . S
C416 C418 1.394 . S
C416 H432 0.931 . S
C417 C416 1.391 . S
C417 C421 1.376 . S
C418 C416 1.394 . S
C418 C419 1.369 . S
C418 C422 1.531 . S
C419 C418 1.369 . S
C419 C420 1.410 . S
C419 C427 1.503 . S
C420 C419 1.410 . S
C420 C421 1.392 . S
C420 C423 1.511 . S
C421 C417 1.376 . S
C421 C420 1.392 . S
C421 H433 0.929 . S
C422 C418 1.531 . S
C422 H434 0.960 . S
C422 H435 0.962 . S
C422 H436 0.960 . S
C423 C420 1.511 . S
C423 H437 0.961 . S
C423 H438 0.961 . S
C423 H439 0.961 . S
C424 C425 1.370 . S
C424 C426 1.363 . S
C424 H440 0.931 . S
C425 C424 1.370 . S
C425 C429 1.408 . S
C426 C424 1.363 . S
C426 C427 1.370 . S
C426 C430 1.524 . S
C427 C419 1.503 . S
C427 C426 1.370 . S
C427 C428 1.403 . S
C428 C427 1.403 . S
C428 C429 1.404 . S
C428 C431 1.539 . S
C429 C425 1.408 . S
C429 C428 1.404 . S
C429 H441 0.930 . S
C430 C426 1.524 . S
C430 H442 0.956 . S
C430 H443 0.961 . S
C430 H444 0.961 . S
C431 C428 1.539 . S
C431 H445 0.958 . S
C431 H446 0.961 . S
C431 H447 0.960 . S
H432 C416 0.931 . S
H433 C421 0.929 . S
H434 C422 0.960 . S
H435 C422 0.962 . S
H436 C422 0.960 . S
H437 C423 0.961 . S
H438 C423 0.961 . S
H439 C423 0.961 . S
H440 C424 0.931 . S
H441 C429 0.930 . S
H442 C430 0.956 . S
H443 C430 0.961 . S
H444 C430 0.961 . S
H445 C431 0.958 . S
H446 C431 0.961 . S
H447 C431 0.960 . S
C448 C449 1.391 . S
C448 C450 1.394 . S
C448 H464 0.931 . S
C449 C448 1.391 . S
C449 C453 1.376 . S
C450 C448 1.394 . S
C450 C451 1.369 . S
C450 C454 1.531 . S
C451 C450 1.369 . S
C451 C452 1.410 . S
C451 C459 1.503 . S
C452 C451 1.410 . S
C452 C453 1.392 . S
C452 C455 1.511 . S
C453 C449 1.376 . S
C453 C452 1.392 . S
C453 H465 0.929 . S
C454 C450 1.531 . S
C454 H466 0.960 . S
C454 H467 0.962 . S
C454 H468 0.960 . S
C455 C452 1.511 . S
C455 H469 0.961 . S
C455 H470 0.961 . S
C455 H471 0.961 . S
C456 C457 1.370 . S
C456 C458 1.363 . S
C456 H472 0.931 . S
C457 C456 1.370 . S
C457 C461 1.408 . S
C458 C456 1.363 . S
C458 C459 1.370 . S
C458 C462 1.524 . S
C459 C451 1.503 . S
C459 C458 1.370 . S
C459 C460 1.403 . S
C460 C459 1.403 . S
C460 C461 1.404 . S
C460 C463 1.539 . S
C461 C457 1.408 . S
C461 C460 1.404 . S
C461 H473 0.930 . S
C462 C458 1.524 . S
C462 H474 0.956 . S
C462 H475 0.961 . S
C462 H476 0.961 . S
C463 C460 1.539 . S
C463 H477 0.958 . S
C463 H478 0.961 . S
C463 H479 0.960 . S
H464 C448 0.931 . S
H465 C453 0.929 . S
H466 C454 0.960 . S
H467 C454 0.962 . S
H468 C454 0.960 . S
H469 C455 0.961 . S
H470 C455 0.961 . S
H471 C455 0.961 . S
H472 C456 0.931 . S
H473 C461 0.930 . S
H474 C462 0.956 . S
H475 C462 0.961 . S
H476 C462 0.961 . S
H477 C463 0.958 . S
H478 C463 0.961 . S
H479 C463 0.960 . S
C480 C481 1.391 . S
C480 C482 1.394 1_556 S
C480 H496 0.931 . S
C481 C480 1.391 . S
C481 C485 1.376 . S
C482 C480 1.394 1_554 S
C482 C483 1.369 . S
C482 C486 1.531 . S
C483 C482 1.369 . S
C483 C484 1.410 1_554 S
C483 C491 1.503 . S
C484 C483 1.410 1_556 S
C484 C485 1.392 . S
C484 C487 1.511 1_556 S
C485 C481 1.376 . S
C485 C484 1.392 . S
C485 H497 0.929 . S
C486 C482 1.531 . S
C486 H498 0.960 . S
C486 H499 0.962 . S
C486 H500 0.960 . S
C487 C484 1.511 1_554 S
C487 H501 0.961 1_554 S
C487 H502 0.961 . S
C487 H503 0.961 . S
C488 C489 1.370 . S
C488 C490 1.363 . S
C488 H504 0.931 . S
C489 C488 1.370 . S
C489 C493 1.408 . S
C490 C488 1.363 . S
C490 C491 1.370 . S
C490 C494 1.524 1_554 S
C491 C483 1.503 . S
C491 C490 1.370 . S
C491 C492 1.403 . S
C492 C491 1.403 . S
C492 C493 1.404 . S
C492 C495 1.539 . S
C493 C489 1.408 . S
C493 C492 1.404 . S
C493 H505 0.930 . S
C494 C490 1.524 1_556 S
C494 H506 0.956 . S
C494 H507 0.961 . S
C494 H508 0.961 . S
C495 C492 1.539 . S
C495 H509 0.958 . S
C495 H510 0.961 . S
C495 H511 0.960 . S
H496 C480 0.931 . S
H497 C485 0.929 . S
H498 C486 0.960 . S
H499 C486 0.962 . S
H500 C486 0.960 . S
H501 C487 0.961 1_556 S
H502 C487 0.961 . S
H503 C487 0.961 . S
H504 C488 0.931 . S
H505 C493 0.930 . S
H506 C494 0.956 . S
H507 C494 0.961 . S
H508 C494 0.961 . S
H509 C495 0.958 . S
H510 C495 0.961 . S
H511 C495 0.960 . S
C512 C513 1.412 . S
C512 C514 1.382 1_556 S
C512 H528 0.922 1_556 S
C513 C512 1.412 . S
C513 C517 1.376 . S
C514 C512 1.382 1_554 S
C514 C515 1.369 . S
C514 C518 1.531 . S
C515 C514 1.369 . S
C515 C516 1.410 1_554 S
C515 C523 1.503 . S
C516 C515 1.410 1_556 S
C516 C517 1.392 . S
C516 C519 1.511 . S
C517 C513 1.376 . S
C517 C516 1.392 . S
C517 H529 0.929 . S
C518 C514 1.531 . S
C518 H530 0.960 . S
C518 H531 0.962 . S
C518 H532 0.960 . S
C519 C516 1.511 . S
C519 H533 0.961 . S
C519 H534 0.961 . S
C519 H535 0.961 . S
C520 C521 1.370 . S
C520 C522 1.363 . S
C520 H536 0.931 . S
C521 C520 1.370 . S
C521 C525 1.408 . S
C522 C520 1.363 . S
C522 C523 1.370 . S
C522 C526 1.524 . S
C523 C515 1.503 . S
C523 C522 1.370 . S
C523 C524 1.403 . S
C524 C523 1.403 . S
C524 C525 1.404 . S
C524 C527 1.539 . S
C525 C521 1.408 . S
C525 C524 1.404 . S
C525 H537 0.930 . S
C526 C522 1.524 . S
C526 H538 0.956 . S
C526 H539 0.961 . S
C526 H540 0.961 . S
C527 C524 1.539 . S
C527 H541 0.958 . S
C527 H542 0.961 . S
C527 H543 0.960 1_554 S
H528 C512 0.922 1_554 S
H529 C517 0.929 . S
H530 C518 0.960 . S
H531 C518 0.962 . S
H532 C518 0.960 . S
H533 C519 0.961 . S
H534 C519 0.961 . S
H535 C519 0.961 . S
H536 C520 0.931 . S
H537 C525 0.930 . S
H538 C526 0.956 . S
H539 C526 0.961 . S
H540 C526 0.961 . S
H541 C527 0.958 . S
H542 C527 0.961 . S
H543 C527 0.960 1_556 S
C544 C545 1.391 . S
C544 C546 1.394 1_556 S
C544 H560 0.937 . S
C545 C544 1.391 . S
C545 C549 1.376 . S
C546 C544 1.394 1_554 S
C546 C547 1.378 . S
C546 C550 1.531 . S
C547 C546 1.378 . S
C547 C548 1.384 1_554 S
C547 C555 1.521 . S
C548 C547 1.384 1_556 S
C548 C549 1.392 . S
C548 C551 1.511 . S
C549 C545 1.376 . S
C549 C548 1.392 . S
C549 H561 0.929 . S
C550 C546 1.531 . S
C550 H562 0.960 . S
C550 H563 0.962 . S
C550 H564 0.960 . S
C551 C548 1.511 . S
C551 H565 0.961 . S
C551 H566 0.961 . S
C551 H567 0.961 . S
C552 C553 1.370 . S
C552 C554 1.363 . S
C552 H568 0.931 . S
C553 C552 1.370 . S
C553 C557 1.408 . S
C554 C552 1.363 . S
C554 C555 1.370 . S
C554 C558 1.524 . S
C555 C547 1.521 . S
C555 C554 1.370 . S
C555 C556 1.403 . S
C556 C555 1.403 . S
C556 C557 1.404 . S
C556 C559 1.539 1_554 S
C557 C553 1.408 . S
C557 C556 1.404 . S
C557 H569 0.930 . S
C558 C554 1.524 . S
C558 H570 0.956 . S
C558 H571 0.961 . S
C558 H572 0.961 . S
C559 C556 1.539 1_556 S
C559 H573 0.959 . S
C559 H574 0.961 . S
C559 H575 0.960 . S
H560 C544 0.937 . S
H561 C549 0.929 . S
H562 C550 0.960 . S
H563 C550 0.962 . S
H564 C550 0.960 . S
H565 C551 0.961 . S
H566 C551 0.961 . S
H567 C551 0.961 . S
H568 C552 0.931 . S
H569 C557 0.930 . S
H570 C558 0.956 . S
H571 C558 0.961 . S
H572 C558 0.961 . S
H573 C559 0.959 . S
H574 C559 0.961 . S
H575 C559 0.960 . S
C576 C577 1.391 . S
C576 C578 1.394 . S
C576 H592 0.931 . S
C577 C576 1.391 . S
C577 C581 1.376 . S
C578 C576 1.394 . S
C578 C579 1.369 . S
C578 C582 1.531 . S
C579 C578 1.369 . S
C579 C580 1.410 . S
C579 C587 1.503 . S
C580 C579 1.410 . S
C580 C581 1.392 . S
C580 C583 1.511 1_554 S
C581 C577 1.376 . S
C581 C580 1.392 . S
C581 H593 0.929 . S
C582 C578 1.531 . S
C582 H594 0.960 . S
C582 H595 0.962 . S
C582 H596 0.960 . S
C583 C580 1.511 1_556 S
C583 H597 0.961 . S
C583 H598 0.961 . S
C583 H599 0.961 . S
C584 C585 1.370 . S
C584 C586 1.363 . S
C584 H600 0.931 . S
C585 C584 1.370 . S
C585 C589 1.408 . S
C586 C584 1.363 . S
C586 C587 1.370 1_556 S
C586 C590 1.524 1_556 S
C587 C579 1.503 . S
C587 C586 1.370 1_554 S
C587 C588 1.403 1_554 S
C588 C587 1.403 1_556 S
C588 C589 1.404 . S
C588 C591 1.539 1_556 S
C589 C585 1.408 . S
C589 C588 1.404 . S
C589 H601 0.930 . S
C590 C586 1.524 1_554 S
C590 H602 0.956 . S
C590 H603 0.961 1_554 S
C590 H604 0.961 1_554 S
C591 C588 1.539 1_554 S
C591 H605 0.958 . S
C591 H606 0.961 1_554 S
C591 H607 0.960 . S
H592 C576 0.931 . S
H593 C581 0.929 . S
H594 C582 0.960 . S
H595 C582 0.962 . S
H596 C582 0.960 . S
H597 C583 0.961 . S
H598 C583 0.961 . S
H599 C583 0.961 . S
H600 C584 0.931 . S
H601 C589 0.930 . S
H602 C590 0.956 . S
H603 C590 0.961 1_556 S
H604 C590 0.961 1_556 S
H605 C591 0.958 . S
H606 C591 0.961 1_556 S
H607 C591 0.960 . S
C608 C609 1.391 . S
C608 C610 1.394 . S
C608 H624 0.931 . S
C609 C608 1.391 . S
C609 C613 1.376 . S
C610 C608 1.394 . S
C610 C611 1.369 . S
C610 C614 1.531 . S
C611 C610 1.369 . S
C611 C612 1.410 . S
C611 C619 1.503 . S
C612 C611 1.410 . S
C612 C613 1.392 . S
C612 C615 1.511 . S
C613 C609 1.376 . S
C613 C612 1.392 . S
C613 H625 0.929 . S
C614 C610 1.531 . S
C614 H626 0.960 . S
C614 H627 0.962 . S
C614 H628 0.960 . S
C615 C612 1.511 . S
C615 H629 0.961 . S
C615 H630 0.961 . S
C615 H631 0.961 . S
C616 C617 1.370 . S
C616 C618 1.363 . S
C616 H632 0.931 . S
C617 C616 1.370 . S
C617 C621 1.408 . S
C618 C616 1.363 . S
C618 C619 1.370 . S
C618 C622 1.524 . S
C619 C611 1.503 . S
C619 C618 1.370 . S
C619 C620 1.403 . S
C620 C619 1.403 . S
C620 C621 1.404 . S
C620 C623 1.539 . S
C621 C617 1.408 . S
C621 C620 1.404 . S
C621 H633 0.930 . S
C622 C618 1.524 . S
C622 H634 0.956 . S
C622 H635 0.961 . S
C622 H636 0.961 . S
C623 C620 1.539 . S
C623 H637 0.958 . S
C623 H638 0.961 . S
C623 H639 0.960 . S
H624 C608 0.931 . S
H625 C613 0.929 . S
H626 C614 0.960 . S
H627 C614 0.962 . S
H628 C614 0.960 . S
H629 C615 0.961 . S
H630 C615 0.961 . S
H631 C615 0.961 . S
H632 C616 0.931 . S
H633 C621 0.930 . S
H634 C622 0.956 . S
H635 C622 0.961 . S
H636 C622 0.961 . S
H637 C623 0.958 . S
H638 C623 0.961 . S
H639 C623 0.960 . S
C640 C641 1.391 . S
C640 C642 1.394 . S
C640 H656 0.931 . S
C641 C640 1.391 . S
C641 C645 1.376 . S
C642 C640 1.394 . S
C642 C643 1.369 . S
C642 C646 1.531 . S
C643 C642 1.369 . S
C643 C644 1.410 . S
C643 C651 1.503 . S
C644 C643 1.410 . S
C644 C645 1.392 . S
C644 C647 1.511 . S
C645 C641 1.376 . S
C645 C644 1.392 . S
C645 H657 0.929 . S
C646 C642 1.531 . S
C646 H658 0.960 . S
C646 H659 0.962 . S
C646 H660 0.960 . S
C647 C644 1.511 . S
C647 H661 0.961 . S
C647 H662 0.961 . S
C647 H663 0.961 . S
C648 C649 1.370 . S
C648 C650 1.363 . S
C648 H664 0.931 . S
C649 C648 1.370 . S
C649 C653 1.408 . S
C650 C648 1.363 . S
C650 C651 1.370 . S
C650 C654 1.524 . S
C651 C643 1.503 . S
C651 C650 1.370 . S
C651 C652 1.403 . S
C652 C651 1.403 . S
C652 C653 1.404 . S
C652 C655 1.539 . S
C653 C649 1.408 . S
C653 C652 1.404 . S
C653 H665 0.930 . S
C654 C650 1.524 . S
C654 H666 0.956 . S
C654 H667 0.961 . S
C654 H668 0.961 . S
C655 C652 1.539 . S
C655 H669 0.958 . S
C655 H670 0.961 . S
C655 H671 0.960 . S
H656 C640 0.931 . S
H657 C645 0.929 . S
H658 C646 0.960 . S
H659 C646 0.962 . S
H660 C646 0.960 . S
H661 C647 0.961 . S
H662 C647 0.961 . S
H663 C647 0.961 . S
H664 C648 0.931 . S
H665 C653 0.930 . S
H666 C654 0.956 . S
H667 C654 0.961 . S
H668 C654 0.961 . S
H669 C655 0.958 . S
H670 C655 0.961 . S
H671 C655 0.960 . S
C672 C673 1.391 . S
C672 C674 1.394 . S
C672 H688 0.931 . S
C673 C672 1.391 . S
C673 C677 1.376 . S
C674 C672 1.394 . S
C674 C675 1.369 . S
C674 C678 1.531 . S
C675 C674 1.369 . S
C675 C676 1.410 . S
C675 C683 1.503 . S
C676 C675 1.410 . S
C676 C677 1.392 . S
C676 C679 1.511 . S
C677 C673 1.376 . S
C677 C676 1.392 . S
C677 H689 0.929 . S
C678 C674 1.531 . S
C678 H690 0.960 . S
C678 H691 0.962 . S
C678 H692 0.960 . S
C679 C676 1.511 . S
C679 H693 0.961 . S
C679 H694 0.961 . S
C679 H695 0.961 . S
C680 C681 1.370 . S
C680 C682 1.363 . S
C680 H696 0.931 . S
C681 C680 1.370 . S
C681 C685 1.408 . S
C682 C680 1.363 . S
C682 C683 1.370 . S
C682 C686 1.524 . S
C683 C675 1.503 . S
C683 C682 1.370 . S
C683 C684 1.403 . S
C684 C683 1.403 . S
C684 C685 1.404 . S
C684 C687 1.539 . S
C685 C681 1.408 . S
C685 C684 1.404 . S
C685 H697 0.930 . S
C686 C682 1.524 . S
C686 H698 0.956 . S
C686 H699 0.961 . S
C686 H700 0.961 . S
C687 C684 1.539 . S
C687 H701 0.958 . S
C687 H702 0.961 . S
C687 H703 0.960 . S
H688 C672 0.931 . S
H689 C677 0.929 . S
H690 C678 0.960 . S
H691 C678 0.962 . S
H692 C678 0.960 . S
H693 C679 0.961 . S
H694 C679 0.961 . S
H695 C679 0.961 . S
H696 C680 0.931 . S
H697 C685 0.930 . S
H698 C686 0.956 . S
H699 C686 0.961 . S
H700 C686 0.961 . S
H701 C687 0.958 . S
H702 C687 0.961 . S
H703 C687 0.960 . S
C704 C705 1.391 . S
C704 C706 1.394 . S
C704 H720 0.931 . S
C705 C704 1.391 . S
C705 C709 1.376 . S
C706 C704 1.394 . S
C706 C707 1.369 . S
C706 C710 1.531 . S
C707 C706 1.369 . S
C707 C708 1.410 . S
C707 C715 1.503 . S
C708 C707 1.410 . S
C708 C709 1.392 . S
C708 C711 1.511 . S
C709 C705 1.376 . S
C709 C708 1.392 . S
C709 H721 0.929 . S
C710 C706 1.531 . S
C710 H722 0.960 . S
C710 H723 0.962 . S
C710 H724 0.960 . S
C711 C708 1.511 . S
C711 H725 0.961 . S
C711 H726 0.961 . S
C711 H727 0.961 . S
C712 C713 1.370 . S
C712 C714 1.363 . S
C712 H728 0.931 . S
C713 C712 1.370 . S
C713 C717 1.408 . S
C714 C712 1.363 . S
C714 C715 1.370 . S
C714 C718 1.524 . S
C715 C707 1.503 . S
C715 C714 1.370 . S
C715 C716 1.403 . S
C716 C715 1.403 . S
C716 C717 1.404 . S
C716 C719 1.539 . S
C717 C713 1.408 . S
C717 C716 1.404 . S
C717 H729 0.930 . S
C718 C714 1.524 . S
C718 H730 0.956 . S
C718 H731 0.961 . S
C718 H732 0.961 . S
C719 C716 1.539 . S
C719 H733 0.958 . S
C719 H734 0.961 . S
C719 H735 0.960 . S
H720 C704 0.931 . S
H721 C709 0.929 . S
H722 C710 0.960 . S
H723 C710 0.962 . S
H724 C710 0.960 . S
H725 C711 0.961 . S
H726 C711 0.961 . S
H727 C711 0.961 . S
H728 C712 0.931 . S
H729 C717 0.930 . S
H730 C718 0.956 . S
H731 C718 0.961 . S
H732 C718 0.961 . S
H733 C719 0.958 . S
H734 C719 0.961 . S
H735 C719 0.960 . S
C736 C737 1.391 . S
C736 C738 1.394 1_556 S
C736 H752 0.931 . S
C737 C736 1.391 . S
C737 C741 1.376 . S
C738 C736 1.394 1_554 S
C738 C739 1.369 1_554 S
C738 C742 1.531 . S
C739 C738 1.369 1_556 S
C739 C740 1.409 . S
C739 C747 1.504 1_566 S
C740 C739 1.409 . S
C740 C741 1.392 . S
C740 C743 1.511 . S
C741 C737 1.376 . S
C741 C740 1.392 . S
C741 H753 0.929 . S
C742 C738 1.531 . S
C742 H754 0.960 . S
C742 H755 0.962 . S
C742 H756 0.960 . S
C743 C740 1.511 . S
C743 H757 0.961 . S
C743 H758 0.978 . S
C743 H759 0.961 . S
C744 C745 1.370 . S
C744 C746 1.363 . S
C744 H760 0.931 . S
C745 C744 1.370 . S
C745 C749 1.408 . S
C746 C744 1.363 . S
C746 C747 1.370 . S
C746 C750 1.524 1_554 S
C747 C739 1.504 1_544 S
C747 C746 1.370 . S
C747 C748 1.403 . S
C748 C747 1.403 . S
C748 C749 1.404 . S
C748 C751 1.539 1_545 S
C749 C745 1.408 . S
C749 C748 1.404 . S
C749 H761 0.930 . S
C750 C746 1.524 1_556 S
C750 H762 0.956 . S
C750 H763 0.961 . S
C750 H764 0.961 . S
C751 C748 1.539 1_565 S
C751 H765 0.958 . S
C751 H766 0.961 . S
C751 H767 0.960 . S
H752 C736 0.931 . S
H753 C741 0.929 . S
H754 C742 0.960 . S
H755 C742 0.962 . S
H756 C742 0.960 . S
H757 C743 0.961 . S
H758 C743 0.978 . S
H759 C743 0.961 . S
H760 C744 0.931 . S
H761 C749 0.930 . S
H762 C750 0.956 . S
H763 C750 0.961 . S
H764 C750 0.961 . S
H765 C751 0.958 . S
H766 C751 0.961 . S
H767 C751 0.960 . S
C768 C769 1.391 . S
C768 C770 1.394 . S
C768 H784 0.931 . S
C769 C768 1.391 . S
C769 C773 1.376 . S
C770 C768 1.394 . S
C770 C771 1.369 . S
C770 C774 1.531 . S
C771 C770 1.369 . S
C771 C772 1.410 1_554 S
C771 C779 1.503 1_554 S
C772 C771 1.410 1_556 S
C772 C773 1.392 1_556 S
C772 C775 1.511 . S
C773 C769 1.376 . S
C773 C772 1.392 1_554 S
C773 H785 0.929 . S
C774 C770 1.531 . S
C774 H786 0.960 . S
C774 H787 0.962 . S
C774 H788 0.960 . S
C775 C772 1.511 . S
C775 H789 0.961 . S
C775 H790 0.961 . S
C775 H791 0.961 . S
C776 C777 1.370 . S
C776 C778 1.363 . S
C776 H792 0.931 . S
C777 C776 1.370 . S
C777 C781 1.408 . S
C778 C776 1.363 . S
C778 C779 1.370 . S
C778 C782 1.524 . S
C779 C771 1.503 1_556 S
C779 C778 1.370 . S
C779 C780 1.403 . S
C780 C779 1.403 . S
C780 C781 1.404 . S
C780 C783 1.533 1_556 S
C781 C777 1.408 . S
C781 C780 1.404 . S
C781 H793 0.930 . S
C782 C778 1.524 . S
C782 H794 0.956 1_556 S
C782 H795 0.961 . S
C782 H796 0.961 . S
C783 C780 1.533 1_554 S
C783 H797 0.981 . S
C783 H798 0.945 1_554 S
C783 H799 0.961 . S
H784 C768 0.931 . S
H785 C773 0.929 . S
H786 C774 0.960 . S
H787 C774 0.962 . S
H788 C774 0.960 . S
H789 C775 0.961 . S
H790 C775 0.961 . S
H791 C775 0.961 . S
H792 C776 0.931 . S
H793 C781 0.930 . S
H794 C782 0.956 1_554 S
H795 C782 0.961 . S
H796 C782 0.961 . S
H797 C783 0.981 . S
H798 C783 0.945 1_556 S
H799 C783 0.961 . S
C800 C801 1.391 . S
C800 C802 1.394 1_556 S
C800 H816 0.931 . S
C801 C800 1.391 . S
C801 C805 1.376 1_455 S
C802 C800 1.394 1_554 S
C802 C803 1.372 1_455 S
C802 C806 1.531 . S
C803 C802 1.372 1_655 S
C803 C804 1.391 1_554 S
C803 C811 1.517 . S
C804 C803 1.391 1_556 S
C804 C805 1.392 . S
C804 C807 1.511 . S
C805 C801 1.376 1_655 S
C805 C804 1.392 . S
C805 H817 0.929 . S
C806 C802 1.531 . S
C806 H818 0.960 . S
C806 H819 0.962 . S
C806 H820 0.960 . S
C807 C804 1.511 . S
C807 H821 0.961 . S
C807 H822 0.961 . S
C807 H823 0.961 . S
C808 C809 1.370 . S
C808 C810 1.363 . S
C808 H824 0.931 . S
C809 C808 1.370 . S
C809 C813 1.408 . S
C810 C808 1.363 . S
C810 C811 1.370 . S
C810 C814 1.524 1_654 S
C811 C803 1.517 . S
C811 C810 1.370 . S
C811 C812 1.403 . S
C812 C811 1.403 . S
C812 C813 1.404 . S
C812 C815 1.539 . S
C813 C809 1.408 . S
C813 C812 1.404 . S
C813 H825 0.930 . S
C814 C810 1.524 1_456 S
C814 H826 0.956 . S
C814 H827 0.961 1_455 S
C814 H828 0.961 . S
C815 C812 1.539 . S
C815 H829 0.958 . S
C815 H830 0.961 . S
C815 H831 0.960 . S
H816 C800 0.931 . S
H817 C805 0.929 . S
H818 C806 0.960 . S
H819 C806 0.962 . S
H820 C806 0.960 . S
H821 C807 0.961 . S
H822 C807 0.961 . S
H823 C807 0.961 . S
H824 C808 0.931 . S
H825 C813 0.930 . S
H826 C814 0.956 . S
H827 C814 0.961 1_655 S
H828 C814 0.961 . S
H829 C815 0.958 . S
H830 C815 0.961 . S
H831 C815 0.960 . S
C832 C833 1.391 . S
C832 C834 1.394 1_554 S
C832 H848 0.931 . S
C833 C832 1.391 . S
C833 C837 1.376 . S
C834 C832 1.394 1_556 S
C834 C835 1.369 1_556 S
C834 C838 1.531 1_565 S
C835 C834 1.369 1_554 S
C835 C836 1.410 . S
C835 C843 1.503 1_454 S
C836 C835 1.410 . S
C836 C837 1.392 . S
C836 C839 1.511 1_455 S
C837 C833 1.376 . S
C837 C836 1.392 . S
C837 H849 0.929 . S
C838 C834 1.531 1_545 S
C838 H850 0.960 . S
C838 H851 0.962 . S
C838 H852 0.960 . S
C839 C836 1.511 1_655 S
C839 H853 0.961 . S
C839 H854 0.961 . S
C839 H855 0.961 . S
C840 C841 1.370 . S
C840 C842 1.363 1_556 S
C840 H856 0.931 . S
C841 C840 1.370 . S
C841 C845 1.408 1_545 S
C842 C840 1.363 1_554 S
C842 C843 1.370 1_544 S
C842 C846 1.524 . S
C843 C835 1.503 1_656 S
C843 C842 1.370 1_566 S
C843 C844 1.403 . S
C844 C843 1.403 . S
C844 C845 1.404 . S
C844 C847 1.539 . S
C845 C841 1.408 1_565 S
C845 C844 1.404 . S
C845 H857 0.930 . S
C846 C842 1.524 . S
C846 H858 0.938 1_655 S
C846 H859 0.961 . S
C846 H860 0.961 . S
C847 C844 1.539 . S
C847 H861 0.958 . S
C847 H862 0.961 . S
C847 H863 0.960 . S
H848 C832 0.931 . S
H849 C837 0.929 . S
H850 C838 0.960 . S
H851 C838 0.962 . S
H852 C838 0.960 . S
H853 C839 0.961 . S
H854 C839 0.961 . S
H855 C839 0.961 . S
H856 C840 0.931 . S
H857 C845 0.930 . S
H858 C846 0.938 1_455 S
H859 C846 0.961 . S
H860 C846 0.961 . S
H861 C847 0.958 . S
H862 C847 0.961 . S
H863 C847 0.960 . S
C864 C865 1.391 . S
C864 C866 1.394 . S
C864 H880 0.931 . S
C865 C864 1.391 . S
C865 C869 1.376 . S
C866 C864 1.394 . S
C866 C867 1.369 . S
C866 C870 1.531 . S
C867 C866 1.369 . S
C867 C868 1.410 . S
C867 C875 1.503 . S
C868 C867 1.410 . S
C868 C869 1.392 . S
C868 C871 1.511 . S
C869 C865 1.376 . S
C869 C868 1.392 . S
C869 H881 0.929 . S
C870 C866 1.531 . S
C870 H882 0.960 . S
C870 H883 0.962 . S
C870 H884 0.960 . S
C871 C868 1.511 . S
C871 H885 0.961 . S
C871 H886 0.961 . S
C871 H887 0.961 . S
C872 C873 1.370 . S
C872 C874 1.363 . S
C872 H888 0.931 . S
C873 C872 1.370 . S
C873 C877 1.408 . S
C874 C872 1.363 . S
C874 C875 1.370 . S
C874 C878 1.524 . S
C875 C867 1.503 . S
C875 C874 1.370 . S
C875 C876 1.403 . S
C876 C875 1.403 . S
C876 C877 1.404 . S
C876 C879 1.539 . S
C877 C873 1.408 . S
C877 C876 1.404 . S
C877 H889 0.930 . S
C878 C874 1.524 . S
C878 H890 0.956 . S
C878 H891 0.961 . S
C878 H892 0.961 . S
C879 C876 1.539 . S
C879 H893 0.958 . S
C879 H894 0.961 . S
C879 H895 0.960 . S
H880 C864 0.931 . S
H881 C869 0.929 . S
H882 C870 0.960 . S
H883 C870 0.962 . S
H884 C870 0.960 . S
H885 C871 0.961 . S
H886 C871 0.961 . S
H887 C871 0.961 . S
H888 C872 0.931 . S
H889 C877 0.930 . S
H890 C878 0.956 . S
H891 C878 0.961 . S
H892 C878 0.961 . S
H893 C879 0.958 . S
H894 C879 0.961 . S
H895 C879 0.960 . S
C896 C897 1.391 . S
C896 C898 1.394 . S
C896 H912 0.931 . S
C897 C896 1.391 . S
C897 C901 1.376 . S
C898 C896 1.394 . S
C898 C899 1.369 . S
C898 C902 1.531 1_455 S
C899 C898 1.369 . S
C899 C900 1.410 . S
C899 C907 1.503 1_455 S
C900 C899 1.410 . S
C900 C901 1.392 . S
C900 C903 1.511 . S
C901 C897 1.376 . S
C901 C900 1.392 . S
C901 H913 0.929 . S
C902 C898 1.531 1_655 S
C902 H914 0.960 . S
C902 H915 0.962 . S
C902 H916 0.960 1_655 S
C903 C900 1.511 . S
C903 H917 0.961 . S
C903 H918 0.961 . S
C903 H919 0.961 . S
C904 C905 1.370 . S
C904 C906 1.363 . S
C904 H920 0.931 . S
C905 C904 1.370 . S
C905 C909 1.408 . S
C906 C904 1.363 . S
C906 C907 1.370 . S
C906 C910 1.524 . S
C907 C899 1.503 1_655 S
C907 C906 1.370 . S
C907 C908 1.403 . S
C908 C907 1.403 . S
C908 C909 1.404 . S
C908 C911 1.539 1_655 S
C909 C905 1.408 . S
C909 C908 1.404 . S
C909 H921 0.930 . S
C910 C906 1.524 . S
C910 H922 0.956 . S
C910 H923 0.961 . S
C910 H924 0.961 . S
C911 C908 1.539 1_455 S
C911 H925 0.958 . S
C911 H926 0.961 . S
C911 H927 0.960 . S
H912 C896 0.931 . S
H913 C901 0.929 . S
H914 C902 0.960 . S
H915 C902 0.962 . S
H916 C902 0.960 1_455 S
H917 C903 0.961 . S
H918 C903 0.961 . S
H919 C903 0.961 . S
H920 C904 0.931 . S
H921 C909 0.930 . S
H922 C910 0.956 . S
H923 C910 0.961 . S
H924 C910 0.961 . S
H925 C911 0.958 . S
H926 C911 0.961 . S
H927 C911 0.960 . S
C928 C929 1.405 . S
C928 C930 1.383 1_455 S
C928 H944 0.928 1_455 S
C929 C928 1.405 . S
C929 C933 1.376 . S
C930 C928 1.383 1_655 S
C930 C931 1.369 . S
C930 C934 1.531 . S
C931 C930 1.369 . S
C931 C932 1.410 1_655 S
C931 C939 1.503 1_565 S
C932 C931 1.410 1_455 S
C932 C933 1.392 . S
C932 C935 1.511 1_565 S
C933 C929 1.376 . S
C933 C932 1.392 . S
C933 H945 0.929 . S
C934 C930 1.531 . S
C934 H946 0.960 . S
C934 H947 0.962 . S
C934 H948 0.960 . S
C935 C932 1.511 1_545 S
C935 H949 0.961 . S
C935 H950 0.961 . S
C935 H951 0.961 1_455 S
C936 C937 1.370 . S
C936 C938 1.363 1_655 S
C936 H952 0.931 1_655 S
C937 C936 1.370 . S
C937 C941 1.408 . S
C938 C936 1.363 1_455 S
C938 C939 1.370 1_455 S
C938 C942 1.524 . S
C939 C931 1.503 1_545 S
C939 C938 1.370 1_655 S
C939 C940 1.403 . S
C940 C939 1.403 . S
C940 C941 1.404 . S
C940 C943 1.539 . S
C941 C937 1.408 . S
C941 C940 1.404 . S
C941 H953 0.930 . S
C942 C938 1.524 . S
C942 H954 0.956 1_545 S
C942 H955 0.961 . S
C942 H956 0.961 . S
C943 C940 1.539 . S
C943 H957 0.958 1_545 S
C943 H958 0.961 . S
C943 H959 0.960 1_545 S
H944 C928 0.928 1_655 S
H945 C933 0.929 . S
H946 C934 0.960 . S
H947 C934 0.962 . S
H948 C934 0.960 . S
H949 C935 0.961 . S
H950 C935 0.961 . S
H951 C935 0.961 1_655 S
H952 C936 0.931 1_455 S
H953 C941 0.930 . S
H954 C942 0.956 1_565 S
H955 C942 0.961 . S
H956 C942 0.961 . S
H957 C943 0.958 1_565 S
H958 C943 0.961 . S
H959 C943 0.960 1_565 S
C960 C961 1.391 1_565 S
C960 C962 1.394 . S
C960 H976 0.931 . S
C961 C960 1.391 1_545 S
C961 C965 1.376 . S
C962 C960 1.394 . S
C962 C963 1.369 1_565 S
C962 C966 1.531 . S
C963 C962 1.369 1_545 S
C963 C964 1.410 . S
C963 C971 1.503 1_545 S
C964 C963 1.410 . S
C964 C965 1.392 . S
C964 C967 1.511 . S
C965 C961 1.376 . S
C965 C964 1.392 . S
C965 H977 0.929 . S
C966 C962 1.531 . S
C966 H978 0.960 . S
C966 H979 0.962 . S
C966 H980 0.960 . S
C967 C964 1.511 . S
C967 H981 0.961 . S
C967 H982 0.961 . S
C967 H983 0.961 . S
C968 C969 1.370 . S
C968 C970 1.363 . S
C968 H984 0.931 . S
C969 C968 1.370 . S
C969 C973 1.408 . S
C970 C968 1.363 . S
C970 C971 1.370 . S
C970 C974 1.524 . S
C971 C963 1.503 1_565 S
C971 C970 1.370 . S
C971 C972 1.403 . S
C972 C971 1.403 . S
C972 C973 1.404 . S
C972 C975 1.539 1_565 S
C973 C969 1.408 . S
C973 C972 1.404 . S
C973 H985 0.930 . S
C974 C970 1.524 . S
C974 H986 0.956 . S
C974 H987 0.961 . S
C974 H988 0.961 . S
C975 C972 1.539 1_545 S
C975 H989 0.958 . S
C975 H990 0.961 . S
C975 H991 0.960 . S
H976 C960 0.931 . S
H977 C965 0.929 . S
H978 C966 0.960 . S
H979 C966 0.962 . S
H980 C966 0.960 . S
H981 C967 0.961 . S
H982 C967 0.961 . S
H983 C967 0.961 . S
H984 C968 0.931 . S
H985 C973 0.930 . S
H986 C974 0.956 . S
H987 C974 0.961 . S
H988 C974 0.961 . S
H989 C975 0.958 . S
H990 C975 0.961 . S
H991 C975 0.960 . S
C992 C993 1.391 . S
C992 C994 1.394 . S
C992 H1008 0.931 . S
C993 C992 1.391 . S
C993 C997 1.376 . S
C994 C992 1.394 . S
C994 C995 1.369 . S
C994 C998 1.531 . S
C995 C994 1.369 . S
C995 C996 1.410 . S
C995 C1003 1.503 . S
C996 C995 1.410 . S
C996 C997 1.392 . S
C996 C999 1.511 . S
C997 C993 1.376 . S
C997 C996 1.392 . S
C997 H1009 0.929 . S
C998 C994 1.531 . S
C998 H1010 0.960 . S
C998 H1011 0.962 . S
C998 H1012 0.960 . S
C999 C996 1.511 . S
C999 H1013 0.961 . S
C999 H1014 0.961 . S
C999 H1015 0.961 . S
C1000 C1001 1.370 . S
C1000 C1002 1.363 . S
C1000 H1016 0.931 . S
C1001 C1000 1.370 . S
C1001 C1005 1.408 . S
C1002 C1000 1.363 . S
C1002 C1003 1.370 . S
C1002 C1006 1.524 . S
C1003 C995 1.503 . S
C1003 C1002 1.370 . S
C1003 C1004 1.403 . S
C1004 C1003 1.403 . S
C1004 C1005 1.404 . S
C1004 C1007 1.539 . S
C1005 C1001 1.408 . S
C1005 C1004 1.404 . S
C1005 H1017 0.930 . S
C1006 C1002 1.524 . S
C1006 H1018 0.956 . S
C1006 H1019 0.961 . S
C1006 H1020 0.961 . S
C1007 C1004 1.539 . S
C1007 H1021 0.958 . S
C1007 H1022 0.961 . S
C1007 H1023 0.960 . S
H1008 C992 0.931 . S
H1009 C997 0.929 . S
H1010 C998 0.960 . S
H1011 C998 0.962 . S
H1012 C998 0.960 . S
H1013 C999 0.961 . S
H1014 C999 0.961 . S
H1015 C999 0.961 . S
H1016 C1000 0.931 . S
H1017 C1005 0.930 . S
H1018 C1006 0.956 . S
H1019 C1006 0.961 . S
H1020 C1006 0.961 . S
H1021 C1007 0.958 . S
H1022 C1007 0.961 . S
H1023 C1007 0.960 . S
C1024 C1025 1.391 . S
C1024 C1026 1.394 . S
C1024 H1040 0.931 . S
C1025 C1024 1.391 . S
C1025 C1029 1.376 . S
C1026 C1024 1.394 . S
C1026 C1027 1.369 . S
C1026 C1030 1.531 . S
C1027 C1026 1.369 . S
C1027 C1028 1.410 . S
C1027 C1035 1.503 . S
C1028 C1027 1.410 . S
C1028 C1029 1.392 . S
C1028 C1031 1.511 . S
C1029 C1025 1.376 . S
C1029 C1028 1.392 . S
C1029 H1041 0.929 . S
C1030 C1026 1.531 . S
C1030 H1042 0.960 . S
C1030 H1043 0.962 . S
C1030 H1044 0.960 . S
C1031 C1028 1.511 . S
C1031 H1045 0.961 . S
C1031 H1046 0.961 . S
C1031 H1047 0.961 . S
C1032 C1033 1.370 . S
C1032 C1034 1.363 . S
C1032 H1048 0.931 . S
C1033 C1032 1.370 . S
C1033 C1037 1.408 . S
C1034 C1032 1.363 . S
C1034 C1035 1.370 . S
C1034 C1038 1.524 . S
C1035 C1027 1.503 . S
C1035 C1034 1.370 . S
C1035 C1036 1.403 . S
C1036 C1035 1.403 . S
C1036 C1037 1.404 . S
C1036 C1039 1.539 . S
C1037 C1033 1.408 . S
C1037 C1036 1.404 . S
C1037 H1049 0.930 . S
C1038 C1034 1.524 . S
C1038 H1050 0.956 . S
C1038 H1051 0.961 . S
C1038 H1052 0.961 . S
C1039 C1036 1.539 . S
C1039 H1053 0.958 . S
C1039 H1054 0.961 . S
C1039 H1055 0.960 . S
H1040 C1024 0.931 . S
H1041 C1029 0.929 . S
H1042 C1030 0.960 . S
H1043 C1030 0.962 . S
H1044 C1030 0.960 . S
H1045 C1031 0.961 . S
H1046 C1031 0.961 . S
H1047 C1031 0.961 . S
H1048 C1032 0.931 . S
H1049 C1037 0.930 . S
H1050 C1038 0.956 . S
H1051 C1038 0.961 . S
H1052 C1038 0.961 . S
H1053 C1039 0.958 . S
H1054 C1039 0.961 . S
H1055 C1039 0.960 . S
C1056 C1057 1.391 . S
C1056 C1058 1.394 . S
C1056 H1072 0.931 . S
C1057 C1056 1.391 . S
C1057 C1061 1.376 . S
C1058 C1056 1.394 . S
C1058 C1059 1.369 . S
C1058 C1062 1.531 . S
C1059 C1058 1.369 . S
C1059 C1060 1.410 . S
C1059 C1067 1.503 . S
C1060 C1059 1.410 . S
C1060 C1061 1.392 . S
C1060 C1063 1.511 . S
C1061 C1057 1.376 . S
C1061 C1060 1.392 . S
C1061 H1073 0.929 . S
C1062 C1058 1.531 . S
C1062 H1074 0.960 . S
C1062 H1075 0.962 . S
C1062 H1076 0.960 . S
C1063 C1060 1.511 . S
C1063 H1077 0.961 . S
C1063 H1078 0.961 . S
C1063 H1079 0.961 . S
C1064 C1065 1.370 . S
C1064 C1066 1.363 . S
C1064 H1080 0.931 . S
C1065 C1064 1.370 . S
C1065 C1069 1.408 . S
C1066 C1064 1.363 . S
C1066 C1067 1.370 . S
C1066 C1070 1.524 . S
C1067 C1059 1.503 . S
C1067 C1066 1.370 . S
C1067 C1068 1.403 . S
C1068 C1067 1.403 . S
C1068 C1069 1.404 . S
C1068 C1071 1.539 . S
C1069 C1065 1.408 . S
C1069 C1068 1.404 . S
C1069 H1081 0.930 . S
C1070 C1066 1.524 . S
C1070 H1082 0.956 . S
C1070 H1083 0.961 . S
C1070 H1084 0.961 . S
C1071 C1068 1.539 . S
C1071 H1085 0.958 . S
C1071 H1086 0.961 . S
C1071 H1087 0.960 . S
H1072 C1056 0.931 . S
H1073 C1061 0.929 . S
H1074 C1062 0.960 . S
H1075 C1062 0.962 . S
H1076 C1062 0.960 . S
H1077 C1063 0.961 . S
H1078 C1063 0.961 . S
H1079 C1063 0.961 . S
H1080 C1064 0.931 . S
H1081 C1069 0.930 . S
H1082 C1070 0.956 . S
H1083 C1070 0.961 . S
H1084 C1070 0.961 . S
H1085 C1071 0.958 . S
H1086 C1071 0.961 . S
H1087 C1071 0.960 . S
C1088 C1089 1.391 . S
C1088 C1090 1.394 . S
C1088 H1104 0.931 . S
C1089 C1088 1.391 . S
C1089 C1093 1.376 . S
C1090 C1088 1.394 . S
C1090 C1091 1.369 . S
C1090 C1094 1.531 . S
C1091 C1090 1.369 . S
C1091 C1092 1.410 . S
C1091 C1099 1.503 . S
C1092 C1091 1.410 . S
C1092 C1093 1.392 . S
C1092 C1095 1.511 . S
C1093 C1089 1.376 . S
C1093 C1092 1.392 . S
C1093 H1105 0.929 . S
C1094 C1090 1.531 . S
C1094 H1106 0.960 . S
C1094 H1107 0.962 . S
C1094 H1108 0.960 . S
C1095 C1092 1.511 . S
C1095 H1109 0.961 . S
C1095 H1110 0.961 . S
C1095 H1111 0.961 . S
C1096 C1097 1.370 . S
C1096 C1098 1.363 . S
C1096 H1112 0.931 . S
C1097 C1096 1.370 . S
C1097 C1101 1.408 . S
C1098 C1096 1.363 . S
C1098 C1099 1.370 . S
C1098 C1102 1.524 . S
C1099 C1091 1.503 . S
C1099 C1098 1.370 . S
C1099 C1100 1.403 . S
C1100 C1099 1.403 . S
C1100 C1101 1.404 . S
C1100 C1103 1.539 . S
C1101 C1097 1.408 . S
C1101 C1100 1.404 . S
C1101 H1113 0.930 . S
C1102 C1098 1.524 . S
C1102 H1114 0.956 . S
C1102 H1115 0.961 . S
C1102 H1116 0.961 . S
C1103 C1100 1.539 . S
C1103 H1117 0.958 . S
C1103 H1118 0.961 . S
C1103 H1119 0.960 . S
H1104 C1088 0.931 . S
H1105 C1093 0.929 . S
H1106 C1094 0.960 . S
H1107 C1094 0.962 . S
H1108 C1094 0.960 . S
H1109 C1095 0.961 . S
H1110 C1095 0.961 . S
H1111 C1095 0.961 . S
H1112 C1096 0.931 . S
H1113 C1101 0.930 . S
H1114 C1102 0.956 . S
H1115 C1102 0.961 . S
H1116 C1102 0.961 . S
H1117 C1103 0.958 . S
H1118 C1103 0.961 . S
H1119 C1103 0.960 . S
C1120 C1121 1.391 . S
C1120 C1122 1.394 . S
C1120 H1136 0.931 . S
C1121 C1120 1.391 . S
C1121 C1125 1.376 . S
C1122 C1120 1.394 . S
C1122 C1123 1.369 . S
C1122 C1126 1.531 . S
C1123 C1122 1.369 . S
C1123 C1124 1.410 . S
C1123 C1131 1.503 . S
C1124 C1123 1.410 . S
C1124 C1125 1.392 . S
C1124 C1127 1.511 . S
C1125 C1121 1.376 . S
C1125 C1124 1.392 . S
C1125 H1137 0.929 . S
C1126 C1122 1.531 . S
C1126 H1138 0.960 . S
C1126 H1139 0.962 . S
C1126 H1140 0.960 . S
C1127 C1124 1.511 . S
C1127 H1141 0.961 . S
C1127 H1142 0.961 . S
C1127 H1143 0.961 . S
C1128 C1129 1.370 . S
C1128 C1130 1.363 . S
C1128 H1144 0.931 . S
C1129 C1128 1.370 . S
C1129 C1133 1.408 . S
C1130 C1128 1.363 . S
C1130 C1131 1.370 . S
C1130 C1134 1.524 . S
C1131 C1123 1.503 . S
C1131 C1130 1.370 . S
C1131 C1132 1.403 . S
C1132 C1131 1.403 . S
C1132 C1133 1.404 . S
C1132 C1135 1.539 . S
C1133 C1129 1.408 . S
C1133 C1132 1.404 . S
C1133 H1145 0.930 . S
C1134 C1130 1.524 . S
C1134 H1146 0.956 . S
C1134 H1147 0.961 . S
C1134 H1148 0.961 . S
C1135 C1132 1.539 . S
C1135 H1149 0.958 . S
C1135 H1150 0.961 . S
C1135 H1151 0.960 . S
H1136 C1120 0.931 . S
H1137 C1125 0.929 . S
H1138 C1126 0.960 . S
H1139 C1126 0.962 . S
H1140 C1126 0.960 . S
H1141 C1127 0.961 . S
H1142 C1127 0.961 . S
H1143 C1127 0.961 . S
H1144 C1128 0.931 . S
H1145 C1133 0.930 . S
H1146 C1134 0.956 . S
H1147 C1134 0.961 . S
H1148 C1134 0.961 . S
H1149 C1135 0.958 . S
H1150 C1135 0.961 . S
H1151 C1135 0.960 . S
C1152 C1153 1.391 . S
C1152 C1154 1.394 . S
C1152 H1168 0.931 . S
C1153 C1152 1.391 . S
C1153 C1157 1.376 . S
C1154 C1152 1.394 . S
C1154 C1155 1.369 . S
C1154 C1158 1.531 . S
C1155 C1154 1.369 . S
C1155 C1156 1.410 . S
C1155 C1163 1.503 . S
C1156 C1155 1.410 . S
C1156 C1157 1.392 . S
C1156 C1159 1.511 . S
C1157 C1153 1.376 . S
C1157 C1156 1.392 . S
C1157 H1169 0.929 . S
C1158 C1154 1.531 . S
C1158 H1170 0.960 . S
C1158 H1171 0.962 . S
C1158 H1172 0.960 . S
C1159 C1156 1.511 . S
C1159 H1173 0.961 . S
C1159 H1174 0.961 . S
C1159 H1175 0.961 . S
C1160 C1161 1.370 . S
C1160 C1162 1.363 . S
C1160 H1176 0.931 . S
C1161 C1160 1.370 . S
C1161 C1165 1.408 . S
C1162 C1160 1.363 . S
C1162 C1163 1.370 . S
C1162 C1166 1.524 . S
C1163 C1155 1.503 . S
C1163 C1162 1.370 . S
C1163 C1164 1.403 . S
C1164 C1163 1.403 . S
C1164 C1165 1.404 . S
C1164 C1167 1.539 . S
C1165 C1161 1.408 . S
C1165 C1164 1.404 . S
C1165 H1177 0.930 . S
C1166 C1162 1.524 . S
C1166 H1178 0.956 . S
C1166 H1179 0.961 . S
C1166 H1180 0.961 . S
C1167 C1164 1.539 . S
C1167 H1181 0.958 . S
C1167 H1182 0.961 . S
C1167 H1183 0.960 . S
H1168 C1152 0.931 . S
H1169 C1157 0.929 . S
H1170 C1158 0.960 . S
H1171 C1158 0.962 . S
H1172 C1158 0.960 . S
H1173 C1159 0.961 . S
H1174 C1159 0.961 . S
H1175 C1159 0.961 . S
H1176 C1160 0.931 . S
H1177 C1165 0.930 . S
H1178 C1166 0.956 . S
H1179 C1166 0.961 . S
H1180 C1166 0.961 . S
H1181 C1167 0.958 . S
H1182 C1167 0.961 . S
H1183 C1167 0.960 . S
C1184 C1185 1.391 . S
C1184 C1186 1.394 . S
C1184 H1200 0.931 . S
C1185 C1184 1.391 . S
C1185 C1189 1.376 . S
C1186 C1184 1.394 . S
C1186 C1187 1.369 . S
C1186 C1190 1.531 . S
C1187 C1186 1.369 . S
C1187 C1188 1.410 . S
C1187 C1195 1.503 . S
C1188 C1187 1.410 . S
C1188 C1189 1.392 . S
C1188 C1191 1.511 . S
C1189 C1185 1.376 . S
C1189 C1188 1.392 . S
C1189 H1201 0.929 . S
C1190 C1186 1.531 . S
C1190 H1202 0.960 . S
C1190 H1203 0.962 . S
C1190 H1204 0.960 . S
C1191 C1188 1.511 . S
C1191 H1205 0.961 . S
C1191 H1206 0.961 . S
C1191 H1207 0.961 . S
C1192 C1193 1.370 . S
C1192 C1194 1.363 . S
C1192 H1208 0.931 . S
C1193 C1192 1.370 . S
C1193 C1197 1.408 . S
C1194 C1192 1.363 . S
C1194 C1195 1.370 . S
C1194 C1198 1.524 . S
C1195 C1187 1.503 . S
C1195 C1194 1.370 . S
C1195 C1196 1.403 . S
C1196 C1195 1.403 . S
C1196 C1197 1.404 . S
C1196 C1199 1.539 . S
C1197 C1193 1.408 . S
C1197 C1196 1.404 . S
C1197 H1209 0.930 . S
C1198 C1194 1.524 . S
C1198 H1210 0.956 . S
C1198 H1211 0.961 . S
C1198 H1212 0.961 . S
C1199 C1196 1.539 . S
C1199 H1213 0.958 . S
C1199 H1214 0.961 . S
C1199 H1215 0.960 . S
H1200 C1184 0.931 . S
H1201 C1189 0.929 . S
H1202 C1190 0.960 . S
H1203 C1190 0.962 . S
H1204 C1190 0.960 . S
H1205 C1191 0.961 . S
H1206 C1191 0.961 . S
H1207 C1191 0.961 . S
H1208 C1192 0.931 . S
H1209 C1197 0.930 . S
H1210 C1198 0.956 . S
H1211 C1198 0.961 . S
H1212 C1198 0.961 . S
H1213 C1199 0.958 . S
H1214 C1199 0.961 . S
H1215 C1199 0.960 . S
C1216 C1217 1.391 . S
C1216 C1218 1.394 . S
C1216 H1232 0.931 . S
C1217 C1216 1.391 . S
C1217 C1221 1.376 . S
C1218 C1216 1.394 . S
C1218 C1219 1.369 . S
C1218 C1222 1.531 . S
C1219 C1218 1.369 . S
C1219 C1220 1.410 . S
C1219 C1227 1.503 . S
C1220 C1219 1.410 . S
C1220 C1221 1.392 . S
C1220 C1223 1.511 . S
C1221 C1217 1.376 . S
C1221 C1220 1.392 . S
C1221 H1233 0.929 . S
C1222 C1218 1.531 . S
C1222 H1234 0.960 . S
C1222 H1235 0.962 . S
C1222 H1236 0.960 . S
C1223 C1220 1.511 . S
C1223 H1237 0.961 . S
C1223 H1238 0.961 . S
C1223 H1239 0.961 . S
C1224 C1225 1.370 . S
C1224 C1226 1.363 . S
C1224 H1240 0.931 . S
C1225 C1224 1.370 . S
C1225 C1229 1.408 . S
C1226 C1224 1.363 . S
C1226 C1227 1.370 . S
C1226 C1230 1.524 . S
C1227 C1219 1.503 . S
C1227 C1226 1.370 . S
C1227 C1228 1.403 . S
C1228 C1227 1.403 . S
C1228 C1229 1.404 . S
C1228 C1231 1.539 . S
C1229 C1225 1.408 . S
C1229 C1228 1.404 . S
C1229 H1241 0.930 . S
C1230 C1226 1.524 . S
C1230 H1242 0.956 . S
C1230 H1243 0.961 . S
C1230 H1244 0.961 . S
C1231 C1228 1.539 . S
C1231 H1245 0.958 . S
C1231 H1246 0.961 . S
C1231 H1247 0.960 . S
H1232 C1216 0.931 . S
H1233 C1221 0.929 . S
H1234 C1222 0.960 . S
H1235 C1222 0.962 . S
H1236 C1222 0.960 . S
H1237 C1223 0.961 . S
H1238 C1223 0.961 . S
H1239 C1223 0.961 . S
H1240 C1224 0.931 . S
H1241 C1229 0.930 . S
H1242 C1230 0.956 . S
H1243 C1230 0.961 . S
H1244 C1230 0.961 . S
H1245 C1231 0.958 . S
H1246 C1231 0.961 . S
H1247 C1231 0.960 . S
C225 C12 0.512 . S
C233 C138 0.517 . S
C257 C152 0.509 . S
C265 C26 0.517 . S
C289 C166 0.532 . S
C297 C40 0.548 . S
C321 C124 0.582 . S
C329 C54 0.540 . S
C353 C68 0.503 . S
C361 C222 0.518 . S
C385 C180 0.562 . S
C393 C82 0.551 . S
C417 C194 0.533 . S
C425 C96 0.548 . S
C449 C208 0.494 . S
C457 C110 0.530 . S
C481 C116 0.661 . S
C489 C18 0.716 . S
C513 C130 0.667 . S
C521 C32 0.687 . S
C545 C144 0.702 . S
C553 C46 0.690 . S
C577 C4 0.777 . S
C585 C158 0.743 . S
C609 C172 0.645 . S
C617 C102 0.691 . S
C641 C186 0.775 . S
C649 C60 0.714 . S
C673 C74 0.769 . S
C681 C200 0.720 . S
C705 C214 0.682 . S
C713 C88 0.687 . S
C737 C123 1.349 . S
C745 C5 1.362 . S
C769 C19 1.296 . S
C777 C137 1.340 . S
C801 C151 1.338 . S
C809 C33 1.359 . S
C833 C47 1.376 . S
C841 C165 1.371 . S
C865 C179 1.380 . S
C873 C61 1.340 . S
C897 C75 1.301 . S
C905 C193 1.352 . S
C929 C207 1.393 . S
C937 C89 1.359 . S
C961 C221 1.352 . S
C969 C103 1.329 . S
C993 C67 1.706 . S
C1001 C11 1.673 . S
C1025 C81 1.650 . S
C1033 C25 1.695 . S
C1057 C39 1.709 . S
C1065 C95 1.672 . S
C1089 C109 1.724 . S
C1097 C53 1.676 . S
C1121 C117 1.546 . S
C1129 C173 1.590 . S
C1153 C187 1.557 . S
C1161 C131 1.583 . S
C1185 C201 1.552 . S
C1193 C145 1.598 . S
C1217 C215 1.541 . S
C1225 C159 1.597 . S
