# Generated by pormake.
# Topology irl, (4)-cn, num edge types: 1
# Building blocks:
#     Node 0, Type 0, BuildingBlock: QUQFOY_clean_sbu_3, # of connection points: 4
#     Node 1, Type 0, BuildingBlock: QUQFOY_clean_sbu_3, # of connection points: 4
#     Node 2, Type 0, BuildingBlock: QUQFOY_clean_sbu_3, # of connection points: 4
#     Node 3, Type 0, BuildingBlock: QUQFOY_clean_sbu_3, # of connection points: 4
#     Node 4, Type 0, BuildingBlock: QUQFOY_clean_sbu_3, # of connection points: 4
#     Node 5, Type 0, BuildingBlock: QUQFOY_clean_sbu_3, # of connection points: 4
#     Node 6, Type 0, BuildingBlock: QUQFOY_clean_sbu_3, # of connection points: 4
#     Node 7, Type 0, BuildingBlock: QUQFOY_clean_sbu_3, # of connection points: 4
#     Edge 8, Type (0, 0), BuildingBlock: MIFKUJ_clean_linker_0, # of connection points: 2
#     Edge 9, Type (0, 0), BuildingBlock: MIFKUJ_clean_linker_0, # of connection points: 2
#     Edge 10, Type (0, 0), BuildingBlock: MIFKUJ_clean_linker_0, # of connection points: 2
#     Edge 11, Type (0, 0), BuildingBlock: MIFKUJ_clean_linker_0, # of connection points: 2
#     Edge 12, Type (0, 0), BuildingBlock: MIFKUJ_clean_linker_0, # of connection points: 2
#     Edge 13, Type (0, 0), BuildingBlock: MIFKUJ_clean_linker_0, # of connection points: 2
#     Edge 14, Type (0, 0), BuildingBlock: MIFKUJ_clean_linker_0, # of connection points: 2
#     Edge 15, Type (0, 0), BuildingBlock: MIFKUJ_clean_linker_0, # of connection points: 2
#     Edge 16, Type (0, 0), BuildingBlock: MIFKUJ_clean_linker_0, # of connection points: 2
#     Edge 17, Type (0, 0), BuildingBlock: MIFKUJ_clean_linker_0, # of connection points: 2
#     Edge 18, Type (0, 0), BuildingBlock: MIFKUJ_clean_linker_0, # of connection points: 2
#     Edge 19, Type (0, 0), BuildingBlock: MIFKUJ_clean_linker_0, # of connection points: 2
#     Edge 20, Type (0, 0), BuildingBlock: MIFKUJ_clean_linker_0, # of connection points: 2
#     Edge 21, Type (0, 0), BuildingBlock: MIFKUJ_clean_linker_0, # of connection points: 2
#     Edge 22, Type (0, 0), BuildingBlock: MIFKUJ_clean_linker_0, # of connection points: 2
#     Edge 23, Type (0, 0), BuildingBlock: MIFKUJ_clean_linker_0, # of connection points: 2
# Relax obj value: 0.063
# Max RMSD: 0.124
# Mean RMSD: 0.124
data_MOF--net-irl--node1-QUQFOY_clean_sbu_3--edge1-MIFKUJ_clean_linker_0
_symmetry_space_group_name_H-M    P1
_symmetry_Int_Tables_number       1
_symmetry_cell_setting            triclinic
loop_
_symmetry_equiv_pos_as_xyz
'x, y, z'
_cell_length_a     44.828277
_cell_length_b     58.208819
_cell_length_c     36.998039
_cell_angle_alpha  89.797126
_cell_angle_beta   89.987404
_cell_angle_gamma 89.989408
loop_
_atom_site_label
_atom_site_type_symbol
_atom_site_fract_x
_atom_site_fract_y
_atom_site_fract_z
_atom_type_partial_charge
C0 C -0.00048 0.18248 0.95206 0.0
O1 O 0.97644 0.1783 0.97083 0.0
Cd2 Cd 0.98287 0.16148 0.02995 0.0
O3 O 0.02535 0.17777 0.96405 0.0
Cd4 Cd 0.05332 0.16297 0.0153 0.0
C5 C 0.01914 0.1112 0.00727 0.0
O6 O 0.02226 0.1825 0.05938 0.0
O7 O 0.05709 0.16026 0.08025 0.0
O8 O 0.08403 0.1948 -0.00295 0.0
C9 C 0.03657 0.17473 0.08637 0.0
O10 O 0.99575 0.12159 0.01793 0.0
C11 C 0.10886 0.18452 -0.00064 0.0
O12 O 0.04354 0.1221 0.00267 0.0
O13 O 0.10818 0.16343 0.00856 0.0
C14 C 0.00121 0.79291 0.93288 0.0
O15 O 0.02257 0.79629 0.95474 0.0
Cd16 Cd 0.01236 0.81486 0.01166 0.0
O17 O 0.97495 0.79964 0.94027 0.0
Cd18 Cd 0.94264 0.81789 0.98453 0.0
C19 C 0.98373 0.86705 0.9822 0.0
O20 O 0.96679 0.79849 0.03426 0.0
O21 O 0.93196 0.82242 0.04851 0.0
O22 O 0.91014 0.78829 0.96228 0.0
C23 C 0.9516 0.80815 0.05878 0.0
O24 O 0.00454 0.85525 -0.00339 0.0
C25 C 0.88694 0.80062 0.95957 0.0
O26 O 0.95898 0.85776 0.97346 0.0
O27 O 0.88949 0.82169 0.96813 0.0
C28 C 0.00714 0.81857 0.56302 0.0
O29 O 0.98435 0.81946 0.54272 0.0
Cd30 Cd 0.98882 0.83674 0.48375 0.0
O31 O 0.03249 0.82495 0.55131 0.0
Cd32 Cd 0.05946 0.83804 0.49779 0.0
C33 C 0.02341 0.88874 0.50304 0.0
O34 O 0.02927 0.81825 0.45304 0.0
O35 O 0.06118 0.84323 0.4332 0.0
O36 O 0.0907 0.8057 0.51171 0.0
C37 C 0.04177 0.82802 0.4263 0.0
O38 O 0.00048 0.87719 0.49394 0.0
C39 C 0.11538 0.81629 0.51103 0.0
O40 O 0.04856 0.87892 0.50789 0.0
O41 O 0.11439 0.83781 0.5048 0.0
C42 C 0.0041 0.19149 0.5726 0.0
O43 O 0.02522 0.19478 0.55028 0.0
Cd44 Cd 0.01552 0.18798 0.48684 0.0
O45 O 0.97784 0.18719 0.56163 0.0
Cd46 Cd 0.94387 0.18293 0.51123 0.0
C47 C 0.9824 0.13382 0.49435 0.0
O48 O 0.97105 0.20898 0.47332 0.0
O49 O 0.93441 0.19126 0.44782 0.0
O50 O 0.91403 0.20953 0.54524 0.0
C51 C 0.95582 0.20541 0.44505 0.0
O52 O 0.00434 0.14671 0.48582 0.0
C53 C 0.88975 0.19849 0.54262 0.0
O54 O 0.95776 0.14238 0.50521 0.0
O55 O 0.89061 0.17942 0.52588 0.0
C56 C 0.48808 0.70179 0.95867 0.0
O57 O 0.46831 0.69936 0.98294 0.0
Cd58 Cd 0.48193 0.68036 0.03841 0.0
O59 O 0.51456 0.69474 0.96401 0.0
Cd60 Cd 0.54839 0.67728 0.00778 0.0
C61 C 0.50768 0.62827 0.00614 0.0
O62 O 0.52774 0.69777 0.05872 0.0
O63 O 0.55947 0.6709 0.07136 0.0
O64 O 0.58203 0.70689 0.98747 0.0
C65 C 0.54335 0.68741 0.08224 0.0
O66 O 0.48765 0.63977 0.02251 0.0
C67 C 0.60404 0.69386 0.98108 0.0
O68 O 0.53195 0.63779 -0.0038 0.0
O69 O 0.6003 0.67249 0.98679 0.0
C70 C 0.48076 0.31026 0.92248 0.0
O71 O 0.50631 0.31383 0.93612 0.0
Cd72 Cd 0.51055 0.33355 -0.00681 0.0
O73 O 0.45738 0.31636 0.93929 0.0
Cd74 Cd 0.43983 0.33302 -0.00416 0.0
C75 C 0.47252 0.3843 0.97822 0.0
O76 O 0.47706 0.31588 0.03584 0.0
O77 O 0.44741 0.34135 0.05887 0.0
O78 O 0.40644 0.30078 -0.00228 0.0
C79 C 0.46817 0.32681 0.06349 0.0
O80 O 0.49706 0.37368 0.98309 0.0
C81 C 0.38235 0.31216 -0.00289 0.0
O82 O 0.44771 0.37359 0.97957 0.0
O83 O 0.38464 0.33395 -0.00371 0.0
C84 C 0.49322 0.29434 0.55473 0.0
O85 O 0.47345 0.29673 0.53046 0.0
Cd86 Cd 0.4863 0.3175 0.47581 0.0
O87 O 0.51941 0.30206 0.54972 0.0
Cd88 Cd 0.55296 0.3209 0.50735 0.0
C89 C 0.51074 0.36917 0.51095 0.0
O90 O 0.53305 0.30286 0.45331 0.0
O91 O 0.56616 0.32954 0.44555 0.0
O92 O 0.58716 0.29119 0.52552 0.0
C93 C 0.54929 0.31444 0.43178 0.0
O94 O 0.49101 0.3577 0.494 0.0
C95 C 0.60839 0.30441 0.53436 0.0
O96 O 0.53522 0.35983 0.52061 0.0
O97 O 0.60395 0.32589 0.53086 0.0
C98 C 0.4825 0.68545 0.58981 0.0
O99 O 0.50849 0.68314 0.57677 0.0
Cd100 Cd 0.51377 0.66488 0.51877 0.0
O101 O 0.45985 0.67931 0.57167 0.0
Cd102 Cd 0.44441 0.66474 0.5131 0.0
C103 C 0.47642 0.61349 0.52997 0.0
O104 O 0.48184 0.68411 0.4759 0.0
O105 O 0.45465 0.65806 0.45019 0.0
O106 O 0.41171 0.69727 0.51451 0.0
C107 C 0.47389 0.67394 0.44716 0.0
O108 O 0.50089 0.62437 0.52638 0.0
C109 C 0.38745 0.68639 0.51078 0.0
O110 O 0.45153 0.62402 0.52809 0.0
O111 O 0.38926 0.66465 0.50784 0.0
H112 H 0.03651 0.89027 0.9823 0.0
H113 H 0.04417 0.93171 0.98048 0.0
H114 H 0.94924 0.94217 0.97066 0.0
H115 H 0.94142 0.9005 0.97142 0.0
H116 H 0.97842 0.97231 0.92964 0.0
H117 H 0.98505 0.94677 0.05248 0.0
H118 H 0.00343 0.92301 0.10302 0.0
H119 H 0.09224 0.94838 0.08584 0.0
H120 H 0.07448 0.97202 0.03469 0.0
H121 H 0.96895 0.08514 0.00055 0.0
H122 H 0.96548 0.0439 0.99016 0.0
H123 H 0.06143 0.03912 0.98723 0.0
H124 H 0.06521 0.08066 -0.00247 0.0
H125 H 0.03402 0.00637 0.03233 0.0
H126 H 0.02469 0.0343 0.91077 0.0
H127 H 0.00397 0.05852 0.86208 0.0
H128 H 0.91717 0.0294 0.87984 0.0
H129 H 0.93729 0.00523 0.92902 0.0
C130 C 0.01723 0.90134 0.97942 0.0
C131 C 0.9883 0.89208 0.9774 0.0
C132 C 0.02166 0.92506 0.97851 0.0
C133 C 0.99724 0.94009 0.97628 0.0
C134 C 0.96841 0.93091 0.97259 0.0
C135 C 0.96397 0.90709 0.97306 0.0
C136 C 0.00177 0.9653 0.97935 0.0
C137 C 0.99032 0.97977 0.95227 0.0
C138 C 0.01776 0.97504 0.00858 0.0
C139 C 0.02849 0.96098 0.0395 0.0
C140 C 0.00854 0.94716 0.05929 0.0
C141 C 0.01884 0.93372 0.08808 0.0
C142 C 0.04899 0.93413 0.09761 0.0
C143 C 0.0689 0.94804 0.07839 0.0
C144 C 0.05873 0.96147 0.0495 0.0
C145 C 0.98939 0.0754 -0.00241 0.0
C146 C 0.0174 0.08622 -5e-05 0.0
C147 C 0.98732 0.05182 -0.00856 0.0
C148 C 0.01317 0.03851 0.98762 0.0
C149 C 0.04121 0.04916 0.98997 0.0
C150 C 0.04333 0.07287 -0.00423 0.0
C151 C 0.01068 0.01332 0.98266 0.0
C152 C 0.02239 0.99887 0.00952 0.0
C153 C 0.99461 0.00366 0.95351 0.0
C154 C 0.98247 0.01809 0.9238 0.0
C155 C 0.00114 0.03319 0.9045 0.0
C156 C 0.98951 0.04688 0.87676 0.0
C157 C 0.95926 0.04553 0.86792 0.0
C158 C 0.9406 0.03044 0.88673 0.0
C159 C 0.95211 0.01672 0.91451 0.0
H160 H 0.9503 0.05615 0.84644 0.0
H161 H 0.0569 0.92372 0.11992 0.0
H162 H 0.0677 0.92125 0.50019 0.0
H163 H 0.06159 0.96306 0.49959 0.0
H164 H 0.96656 0.95493 0.51338 0.0
H165 H 0.97241 0.91332 0.51276 0.0
H166 H 0.97617 0.98444 0.46257 0.0
H167 H 0.01435 0.97405 0.58276 0.0
H168 H 0.04979 0.96067 0.62926 0.0
H169 H 0.1194 0.00093 0.58062 0.0
H170 H 0.08445 0.01433 0.53353 0.0
H171 H 0.9407 0.10035 0.50795 0.0
H172 H 0.94855 0.05875 0.50966 0.0
H173 H 0.04096 0.06845 0.48103 0.0
H174 H 0.03341 0.10997 0.47919 0.0
H175 H 0.03361 0.03864 0.53875 0.0
H176 H 0.99396 0.04936 0.41912 0.0
H177 H 0.9575 0.06302 0.37403 0.0
H178 H 0.88915 0.0221 0.42389 0.0
H179 H 0.92512 0.00843 0.46963 0.0
C180 C 0.04557 0.92841 0.50353 0.0
C181 C 0.02054 0.91398 0.5064 0.0
C182 C 0.04209 0.95232 0.50327 0.0
C183 C 0.0136 0.96221 0.50663 0.0
C184 C 0.98874 0.94776 0.51052 0.0
C185 C 0.99214 0.92394 0.51028 0.0
C186 C 0.00931 0.98751 0.50453 0.0
C187 C 0.98846 0.99623 0.47964 0.0
C188 C 0.02581 0.00302 0.52612 0.0
C189 C 0.04686 0.99501 0.55441 0.0
C190 C 0.03727 0.97991 0.58182 0.0
C191 C 0.05726 0.97235 0.60831 0.0
C192 C 0.08685 0.97989 0.60783 0.0
C193 C 0.09649 0.99507 0.58092 0.0
C194 C 0.07659 0.00267 0.55434 0.0
C195 C 0.96265 0.09365 0.50178 0.0
C196 C 0.98641 0.10854 0.49345 0.0
C197 C 0.96709 0.06987 0.50273 0.0
C198 C 0.99533 0.06054 0.4954 0.0
C199 C 0.01902 0.07532 0.48688 0.0
C200 C 0.01458 0.09905 0.48569 0.0
C201 C 0.00033 0.03539 0.49712 0.0
C202 C 0.02134 0.02676 0.5218 0.0
C203 C 0.98381 0.01993 0.47559 0.0
C204 C 0.96218 0.02805 0.44801 0.0
C205 C 0.9711 0.04342 0.42066 0.0
C206 C 0.95053 0.05114 0.39494 0.0
C207 C 0.92101 0.04348 0.39615 0.0
C208 C 0.91201 0.02804 0.42302 0.0
C209 C 0.93249 0.02029 0.44883 0.0
H210 H 0.90511 0.04947 0.37621 0.0
H211 H 0.10229 0.97402 0.62837 0.0
H212 H 0.45583 0.60416 0.01449 0.0
H213 H 0.44746 0.5633 0.00439 0.0
H214 H 0.53932 0.55522 0.97205 0.0
H215 H 0.54774 0.59634 0.98125 0.0
H216 H 0.50399 0.5309 0.92908 0.0
H217 H 0.51518 0.53957 0.05716 0.0
H218 H 0.50466 0.55565 0.1174 0.0
H219 H 0.41402 0.53224 0.11046 0.0
H220 H 0.42391 0.51627 0.04993 0.0
H221 H 0.52066 0.41109 0.96196 0.0
H222 H 0.52322 0.45294 0.96063 0.0
H223 H 0.42892 0.45685 0.98283 0.0
H224 H 0.4261 0.41479 0.98425 0.0
H225 H 0.46277 0.4834 0.02888 0.0
H226 H 0.45409 0.47202 0.90123 0.0
H227 H 0.46679 0.45512 0.84219 0.0
H228 H 0.55541 0.48266 0.84977 0.0
H229 H 0.54337 0.49946 0.90913 0.0
C230 C 0.47429 0.59374 0.00517 0.0
C231 C 0.50255 0.60352 -0.00103 0.0
C232 C 0.46947 0.57033 -0.00051 0.0
C233 C 0.49288 0.55608 0.98804 0.0
C234 C 0.52093 0.56587 0.98098 0.0
C235 C 0.52573 0.58937 0.98637 0.0
C236 C 0.48818 0.53094 0.98407 0.0
C237 C 0.49527 0.52047 0.95102 0.0
C238 C 0.47621 0.51738 0.01245 0.0
C239 C 0.4702 0.52695 0.04885 0.0
C240 C 0.49294 0.53801 0.06835 0.0
C241 C 0.48711 0.54708 0.10257 0.0
C242 C 0.45867 0.54503 0.1177 0.0
C243 C 0.43602 0.53385 0.09868 0.0
C244 C 0.44174 0.52478 0.06443 0.0
C245 C 0.50033 0.4208 0.96611 0.0
C246 C 0.47317 0.40958 0.97334 0.0
C247 C 0.50184 0.44475 0.96516 0.0
C248 C 0.47625 0.45801 0.97148 0.0
C249 C 0.44892 0.44691 0.97782 0.0
C250 C 0.44733 0.42289 0.97847 0.0
C251 C 0.47862 0.48337 0.97395 0.0
C252 C 0.47121 0.49387 0.00681 0.0
C253 C 0.49059 0.49687 0.94555 0.0
C254 C 0.49788 0.48685 0.90979 0.0
C255 C 0.47636 0.47432 0.89045 0.0
C256 C 0.48343 0.46479 0.8569 0.0
C257 C 0.51191 0.46777 0.84227 0.0
C258 C 0.53336 0.48035 0.86114 0.0
C259 C 0.52641 0.48991 0.89473 0.0
H260 H 0.51734 0.46038 0.81629 0.0
H261 H 0.45419 0.55205 0.14421 0.0
H262 H 0.55039 0.40133 0.53582 0.0
H263 H 0.54158 0.44238 0.54464 0.0
H264 H 0.44971 0.43368 0.51272 0.0
H265 H 0.4585 0.39282 0.50299 0.0
H266 H 0.47254 0.469 0.47908 0.0
H267 H 0.47025 0.44352 0.60202 0.0
H268 H 0.48856 0.42373 0.65671 0.0
H269 H 0.56604 0.46707 0.65796 0.0
H270 H 0.5484 0.48692 0.60295 0.0
H271 H 0.43002 0.58287 0.52513 0.0
H272 H 0.43289 0.54086 0.52767 0.0
H273 H 0.52751 0.54497 0.54764 0.0
H274 H 0.52491 0.58681 0.54526 0.0
H275 H 0.50011 0.51185 0.58982 0.0
H276 H 0.50356 0.53512 0.46442 0.0
H277 H 0.48508 0.5548 0.4097 0.0
H278 H 0.4044 0.51512 0.41391 0.0
H279 H 0.42226 0.49542 0.46899 0.0
C280 C 0.52825 0.40811 0.53097 0.0
C281 C 0.50519 0.39378 0.5186 0.0
C282 C 0.52319 0.43158 0.53619 0.0
C283 C 0.49488 0.44111 0.52967 0.0
C284 C 0.47173 0.42675 0.51789 0.0
C285 C 0.47682 0.40336 0.51238 0.0
C286 C 0.48972 0.46621 0.53335 0.0
C287 C 0.47807 0.47826 0.50358 0.0
C288 C 0.49747 0.47844 0.56502 0.0
C289 C 0.50812 0.46658 0.59816 0.0
C290 C 0.4913 0.44872 0.61379 0.0
C291 C 0.50154 0.43751 0.64488 0.0
C292 C 0.52848 0.4441 0.66075 0.0
C293 C 0.54519 0.46197 0.64561 0.0
C294 C 0.53507 0.47322 0.6145 0.0
C295 C 0.45137 0.57485 0.53048 0.0
C296 C 0.47727 0.58821 0.5347 0.0
C297 C 0.45298 0.55085 0.53181 0.0
C298 C 0.48048 0.53983 0.53749 0.0
C299 C 0.50609 0.55313 0.54321 0.0
C300 C 0.50455 0.57706 0.54166 0.0
C301 C 0.48301 0.51447 0.5356 0.0
C302 C 0.49428 0.50244 0.56557 0.0
C303 C 0.47482 0.50221 0.50419 0.0
C304 C 0.46409 0.514 0.47105 0.0
C305 C 0.48177 0.53074 0.45386 0.0
C306 C 0.47143 0.54187 0.42274 0.0
C307 C 0.44354 0.53627 0.4084 0.0
C308 C 0.42597 0.51948 0.42509 0.0
C309 C 0.4362 0.50832 0.45625 0.0
H310 H 0.43558 0.5449 0.38431 0.0
H311 H 0.53636 0.43541 0.68483 0.0
H312 H 0.98579 0.19421 0.11236 0.0
H313 H 0.97675 0.20801 0.17368 0.0
H314 H 0.06713 0.19031 0.20318 0.0
H315 H 0.07563 0.17533 0.14248 0.0
H316 H 0.03296 0.17572 0.25185 0.0
H317 H 0.04146 0.24814 0.193 0.0
H318 H 0.03183 0.27795 0.14694 0.0
H319 H 0.93959 0.28017 0.17799 0.0
H320 H 0.94854 0.25015 0.22391 0.0
H321 H 0.01144 0.21963 0.42551 0.0
H322 H 0.02973 0.2248 0.36366 0.0
H323 H 0.94057 0.21505 0.32273 0.0
H324 H 0.9222 0.20941 0.38436 0.0
H325 H 0.98082 0.24843 0.28203 0.0
H326 H 0.97346 0.16962 0.33092 0.0
H327 H 0.9842 0.14115 0.37876 0.0
H328 H 0.07812 0.15339 0.3664 0.0
H329 H 0.06784 0.18225 0.31889 0.0
C330 C 0.0037 0.19337 0.13198 0.0
C331 C 0.0313 0.1836 0.12292 0.0
C332 C -0.00134 0.20149 0.16687 0.0
C333 C 0.02145 0.20061 0.19292 0.0
C334 C 0.04923 0.19121 0.18356 0.0
C335 C 0.05404 0.18259 0.14895 0.0
C336 C 0.01552 0.20765 0.23066 0.0
C337 C 0.02226 0.19192 0.25833 0.0
C338 C 0.00118 0.22864 0.23932 0.0
C339 C 0.99566 0.24676 0.21177 0.0
C340 C 0.01907 0.25487 0.18985 0.0
C341 C 0.01374 0.27182 0.16379 0.0
C342 C 0.98511 0.28092 0.15951 0.0
C343 C 0.96176 0.27311 0.18134 0.0
C344 C 0.96696 0.25614 0.20743 0.0
C345 C 0.99561 0.21932 0.40341 0.0
C346 C 0.96554 0.2137 0.40945 0.0
C347 C 0.00606 0.22238 0.3682 0.0
C348 C 0.98644 0.22017 0.33891 0.0
C349 C 0.95592 0.21691 0.34516 0.0
C350 C 0.94555 0.21347 0.38026 0.0
C351 C 0.9982 0.21647 0.30231 0.0
C352 C 0.9923 0.23263 0.27514 0.0
C353 C 0.01367 0.19604 0.29397 0.0
C354 C 0.01988 0.17823 0.32171 0.0
C355 C 0.99638 0.16633 0.3386 0.0
C356 C 0.00238 0.15013 0.36562 0.0
C357 C 0.03182 0.14551 0.3757 0.0
C358 C 0.05533 0.15702 0.35863 0.0
C359 C 0.04943 0.17329 0.33166 0.0
H360 H 0.03642 0.13299 0.39667 0.0
H361 H 0.98103 0.29405 0.13931 0.0
H362 H 0.99706 0.79976 0.40307 0.0
H363 H 0.98217 0.79245 0.3405 0.0
H364 H 0.05333 0.83629 0.30264 0.0
H365 H 0.06797 0.84399 0.36489 0.0
H366 H 0.00239 0.84714 0.27126 0.0
H367 H 0.05766 0.77814 0.29433 0.0
H368 H 0.07105 0.7427 0.32723 0.0
H369 H 0.98336 0.71556 0.30851 0.0
H370 H 0.96931 0.75099 0.27591 0.0
H371 H -0.00038 0.78614 0.08817 0.0
H372 H 0.01433 0.78556 0.15185 0.0
H373 H 0.93397 0.82222 0.17991 0.0
H374 H 0.91943 0.82331 0.11632 0.0
H375 H 0.99109 0.77021 0.21548 0.0
H376 H 0.95151 0.86307 0.24057 0.0
H377 H 0.94187 0.89872 0.20623 0.0
H378 H 0.00615 0.87853 0.12634 0.0
H379 H 0.01642 0.84289 0.16045 0.0
C380 C 0.00962 0.8077 0.38137 0.0
C381 C 0.03356 0.82254 0.3888 0.0
C382 C 0.0012 0.80342 0.34569 0.0
C383 C 0.01677 0.81375 0.31703 0.0
C384 C 0.041 0.82821 0.32444 0.0
C385 C 0.04933 0.83258 0.36 0.0
C386 C 0.00689 0.81061 0.27931 0.0
C387 C -7e-05 0.83031 0.2591 0.0
C388 C 0.00395 0.78865 0.26344 0.0
C389 C 0.01235 0.76732 0.28299 0.0
C390 C 0.04115 0.7647 0.29749 0.0
C391 C 0.04888 0.74459 0.31603 0.0
C392 C 0.02804 0.72691 0.32004 0.0
C393 C -0.00054 0.72928 0.30543 0.0
C394 C 0.99161 0.74936 0.28689 0.0
C395 C 0.98491 0.7938 0.108 0.0
C396 C 0.95862 0.80509 0.09733 0.0
C397 C 0.99328 0.79337 0.14432 0.0
C398 C 0.97545 0.80417 0.17036 0.0
C399 C 0.94825 0.81413 0.16004 0.0
C400 C 0.93999 0.81474 0.12376 0.0
C401 C 0.98643 0.80673 0.20771 0.0
C402 C 0.99351 0.78699 0.22781 0.0
C403 C 0.99009 0.82868 0.22337 0.0
C404 C 0.98448 0.85022 0.20288 0.0
C405 C 0.96366 0.86629 0.21575 0.0
C406 C 0.95807 0.88648 0.19632 0.0
C407 C 0.97329 0.89084 0.16407 0.0
C408 C 0.99427 0.87508 0.15125 0.0
C409 C -4e-05 0.85487 0.1706 0.0
H410 H 0.96884 0.90645 0.14906 0.0
H411 H 0.03407 0.71136 0.3344 0.0
H412 H 0.04926 0.82117 0.61554 0.0
H413 H 0.04693 0.80593 0.6766 0.0
H414 H 0.9586 0.77955 0.65612 0.0
H415 H 0.96043 0.79543 0.59461 0.0
H416 H 0.96091 0.80086 0.71904 0.0
H417 H 0.01887 0.74233 0.66375 0.0
H418 H 0.05879 0.7268 0.62501 0.0
H419 H 0.12495 0.75814 0.69274 0.0
H420 H 0.08547 0.77398 0.73169 0.0
H421 H 0.96412 0.76454 0.89665 0.0
H422 H 0.96571 0.75612 0.83205 0.0
H423 H 0.05032 0.79109 0.82365 0.0
H424 H 0.04933 0.79879 0.88871 0.0
H425 H 0.04453 0.75644 0.77287 0.0
H426 H 0.98644 0.82148 0.81789 0.0
H427 H 0.94735 0.83826 0.85666 0.0
H428 H 0.88159 0.79504 0.8069 0.0
H429 H 0.92044 0.77779 0.76818 0.0
C430 C 0.02932 0.81205 0.62383 0.0
C431 C 0.00503 0.80945 0.60019 0.0
C432 C 0.02816 0.80314 0.65871 0.0
C433 C 0.00292 0.79107 0.67059 0.0
C434 C 0.97843 0.78859 0.64726 0.0
C435 C 0.97946 0.79772 0.61226 0.0
C436 C 0.00174 0.78257 0.70828 0.0
C437 C 0.97873 0.79057 0.73057 0.0
C438 C 0.02526 0.76942 0.72342 0.0
C439 C 0.04917 0.75939 0.70061 0.0
C440 C 0.04194 0.74594 0.67034 0.0
C441 C 0.0645 0.73706 0.64834 0.0
C442 C 0.0944 0.74146 0.65639 0.0
C443 C 0.10181 0.75466 0.68655 0.0
C444 C 0.07934 0.76354 0.70868 0.0
C445 C 0.98356 0.76968 0.8812 0.0
C446 C 0.00637 0.78266 0.89725 0.0
C447 C 0.98444 0.76485 0.84439 0.0
C448 C 0.0077 0.77355 0.82304 0.0
C449 C 0.03209 0.78434 0.83973 0.0
C450 C 0.0315 0.78878 0.87682 0.0
C451 C 0.00413 0.77521 0.78344 0.0
C452 C 0.02626 0.76605 0.76096 0.0
C453 C 0.97982 0.78732 0.76801 0.0
C454 C 0.95635 0.7982 0.79045 0.0
C455 C 0.96365 0.81552 0.81532 0.0
C456 C 0.94156 0.8251 0.83729 0.0
C457 C 0.91202 0.81767 0.83432 0.0
C458 C 0.90449 0.80074 0.80922 0.0
C459 C 0.92653 0.79107 0.78725 0.0
H460 H 0.89495 0.82506 0.85141 0.0
H461 H 0.1118 0.73463 0.63923 0.0
H462 H 0.03849 0.21052 0.91758 0.0
H463 H 0.04091 0.21806 0.85255 0.0
H464 H 0.95885 0.18064 0.83751 0.0
H465 H 0.9559 0.17347 0.90282 0.0
H466 H 0.01463 0.16346 0.80207 0.0
H467 H 0.95418 0.23138 0.81773 0.0
H468 H 0.94151 0.26906 0.84376 0.0
H469 H 0.02345 0.29723 0.80303 0.0
H470 H 0.03684 0.25958 0.7772 0.0
H471 H 0.97077 0.17091 0.62397 0.0
H472 H 0.97581 0.1738 0.68908 0.0
H473 H 0.05317 0.21712 0.67601 0.0
H474 H 0.04832 0.21422 0.60977 0.0
H475 H 0.00818 0.23376 0.7262 0.0
H476 H 0.06706 0.16757 0.70579 0.0
H477 H 0.08073 0.13016 0.67955 0.0
H478 H 0.00454 0.09886 0.72992 0.0
H479 H 0.9901 0.13617 0.75602 0.0
C480 C 0.0205 0.20451 0.90049 0.0
C481 C 0.99711 0.19126 0.91494 0.0
C482 C 0.02188 0.2089 0.86349 0.0
C483 C 0.00014 0.1998 0.84053 0.0
C484 C 0.97574 0.18783 0.8551 0.0
C485 C 0.97402 0.18382 0.89227 0.0
C486 C 0.00528 0.19973 0.80129 0.0
C487 C 0.01294 0.17876 0.78534 0.0
C488 C 0.00461 0.21999 0.7802 0.0
C489 C 0.9967 0.24257 0.79596 0.0
C490 C 0.96968 0.24552 0.81471 0.0
C491 C 0.96232 0.2669 0.82933 0.0
C492 C 0.98172 0.28551 0.82518 0.0
C493 C 0.00848 0.28279 0.80631 0.0
C494 C 0.01596 0.26144 0.79165 0.0
C495 C 0.98899 0.181 0.63478 0.0
C496 C 0.00914 0.19242 0.61185 0.0
C497 C 0.99188 0.18255 0.67201 0.0
C498 C 0.01491 0.19556 0.68716 0.0
C499 C 0.0353 0.20696 0.66456 0.0
C500 C 0.03262 0.20519 0.62694 0.0
C501 C 0.01653 0.1973 0.7268 0.0
C502 C 0.01033 0.21853 0.74299 0.0
C503 C 0.01888 0.1773 0.74834 0.0
C504 C 0.0274 0.15474 0.7327 0.0
C505 C 0.05306 0.15276 0.71104 0.0
C506 C 0.06098 0.13156 0.69622 0.0
C507 C 0.04349 0.11216 0.70301 0.0
C508 C 0.01806 0.11391 0.72468 0.0
C509 C 0.01003 0.13508 0.73953 0.0
H510 H 0.04967 0.09575 0.69153 0.0
H511 H 0.97596 0.30205 0.83648 0.0
H512 H 0.51772 0.7255 0.1116 0.0
H513 H 0.51233 0.73457 0.17576 0.0
H514 H 0.55878 0.67196 0.20353 0.0
H515 H 0.56515 0.66328 0.13963 0.0
H516 H 0.48182 0.71297 0.22246 0.0
H517 H 0.59225 0.67398 0.28238 0.0
H518 H 0.64577 0.67318 0.26718 0.0
H519 H 0.63553 0.73431 0.20309 0.0
H520 H 0.58203 0.73571 0.21833 0.0
H521 H 0.45963 0.65545 0.38212 0.0
H522 H 0.47559 0.66836 0.32256 0.0
H523 H 0.5284 0.72196 0.37116 0.0
H524 H 0.51268 0.70893 0.43137 0.0
H525 H 0.55837 0.7004 0.31734 0.0
H526 H 0.466 0.73745 0.33043 0.0
H527 H 0.41295 0.74198 0.34649 0.0
H528 H 0.38859 0.69273 0.2656 0.0
H529 H 0.44152 0.68761 0.24941 0.0
C530 C 0.52714 0.71386 0.13145 0.0
C531 C 0.5417 0.69362 0.12072 0.0
C532 C 0.52411 0.71909 0.16805 0.0
C533 C 0.53544 0.7041 0.19448 0.0
C534 C 0.55053 0.68411 0.18368 0.0
C535 C 0.55389 0.67903 0.14713 0.0
C536 C 0.52863 0.70776 0.23319 0.0
C537 C 0.49865 0.71057 0.24318 0.0
C538 C 0.55071 0.70549 0.26033 0.0
C539 C 0.58303 0.70489 0.25142 0.0
C540 C 0.60142 0.68736 0.26527 0.0
C541 C 0.63177 0.68678 0.25658 0.0
C542 C 0.64403 0.70366 0.23414 0.0
C543 C 0.62599 0.7212 0.2204 0.0
C544 C 0.59564 0.72188 0.22901 0.0
C545 C 0.47468 0.66996 0.38025 0.0
C546 C 0.48479 0.68125 0.41138 0.0
C547 C 0.48363 0.67741 0.34618 0.0
C548 C 0.50268 0.69638 0.34253 0.0
C549 C 0.51348 0.7074 0.37352 0.0
C550 C 0.50449 0.69993 0.40779 0.0
C551 C 0.51152 0.70407 0.30602 0.0
C552 C 0.54178 0.70344 0.29654 0.0
C553 C 0.48983 0.70904 0.27939 0.0
C554 C 0.45782 0.7121 0.28877 0.0
C555 C 0.44936 0.72748 0.31619 0.0
C556 C 0.4193 0.73016 0.32531 0.0
C557 C 0.39742 0.71764 0.30709 0.0
C558 C 0.40556 0.70243 0.27967 0.0
C559 C 0.4356 0.69966 0.27046 0.0
H560 H 0.37416 0.71974 0.31421 0.0
H561 H 0.66753 0.70317 0.22743 0.0
H562 H 0.50708 0.29118 0.39338 0.0
H563 H 0.50221 0.28928 0.3277 0.0
H564 H 0.58363 0.32815 0.31562 0.0
H565 H 0.58807 0.33074 0.38125 0.0
H566 H 0.54308 0.34639 0.27646 0.0
H567 H 0.57909 0.2705 0.29091 0.0
H568 H 0.58255 0.23147 0.31664 0.0
H569 H 0.49335 0.21695 0.28118 0.0
H570 H 0.48917 0.25602 0.25567 0.0
H571 H 0.51582 0.29957 0.08126 0.0
H572 H 0.53806 0.29435 0.14132 0.0
H573 H 0.47184 0.33966 0.18675 0.0
H574 H 0.44996 0.34528 0.12713 0.0
H575 H 0.51643 0.27765 0.2044 0.0
H576 H 0.50201 0.37275 0.2496 0.0
H577 H 0.50265 0.41142 0.22215 0.0
H578 H 0.55786 0.38669 0.13578 0.0
H579 H 0.55793 0.34796 0.16297 0.0
C580 C 0.52413 0.29905 0.37669 0.0
C581 C 0.5478 0.31128 0.39235 0.0
C582 C 0.52146 0.29781 0.33916 0.0
C583 C 0.54271 0.30841 0.31672 0.0
C584 C 0.56697 0.31988 0.33241 0.0
C585 C 0.56945 0.32137 0.36989 0.0
C586 C 0.53794 0.30955 0.27715 0.0
C587 C 0.53757 0.3313 0.26068 0.0
C588 C 0.53139 0.28983 0.25631 0.0
C589 C 0.53377 0.26627 0.27155 0.0
C590 C 0.56013 0.25905 0.28881 0.0
C591 C 0.56223 0.2369 0.30333 0.0
C592 C 0.53817 0.22175 0.30059 0.0
C593 C 0.51197 0.22871 0.28328 0.0
C594 C 0.50974 0.25084 0.26873 0.0
C595 C 0.50606 0.30841 0.1041 0.0
C596 C 0.48132 0.32298 0.0995 0.0
C597 C 0.51872 0.30536 0.13832 0.0
C598 C 0.50685 0.3169 0.16828 0.0
C599 C 0.4817 0.33097 0.16382 0.0
C600 C 0.46917 0.3341 0.12974 0.0
C601 C 0.52054 0.31451 0.20442 0.0
C602 C 0.52251 0.29261 0.22017 0.0
C603 C 0.52929 0.33402 0.22446 0.0
C604 C 0.52981 0.3574 0.20824 0.0
C605 C 0.51444 0.37559 0.22488 0.0
C606 C 0.51465 0.39752 0.20933 0.0
C607 C 0.53023 0.4015 0.1772 0.0
C608 C 0.54573 0.38357 0.16061 0.0
C609 C 0.54562 0.36162 0.17606 0.0
H610 H 0.53033 0.41848 0.16519 0.0
H611 H 0.53985 0.20461 0.31185 0.0
H612 H 0.42921 0.29749 0.88905 0.0
H613 H 0.42327 0.28252 0.82804 0.0
H614 H 0.51877 0.28345 0.81362 0.0
H615 H 0.52501 0.29824 0.87493 0.0
H616 H 0.43891 0.30582 0.76902 0.0
H617 H 0.53942 0.24338 0.75279 0.0
H618 H 0.56647 0.21452 0.78909 0.0
H619 H 0.48861 0.20373 0.85457 0.0
H620 H 0.46093 0.23227 0.81837 0.0
H621 H 0.53234 0.28208 0.60732 0.0
H622 H 0.52113 0.27274 0.66974 0.0
H623 H 0.42693 0.27316 0.6456 0.0
H624 H 0.43804 0.28338 0.58262 0.0
H625 H 0.49402 0.24208 0.71054 0.0
H626 H 0.3917 0.30006 0.71474 0.0
H627 H 0.36779 0.33129 0.67986 0.0
H628 H 0.45354 0.35357 0.64161 0.0
H629 H 0.4779 0.32261 0.67654 0.0
C630 C 0.44904 0.29425 0.87312 0.0
C631 C 0.47762 0.29931 0.8867 0.0
C632 C 0.44555 0.2856 0.8383 0.0
C633 C 0.47054 0.28172 0.81643 0.0
C634 C 0.49919 0.28594 0.83032 0.0
C635 C 0.50272 0.29458 0.86524 0.0
C636 C 0.46661 0.27605 0.77779 0.0
C637 C 0.45025 0.29147 0.75637 0.0
C638 C 0.48177 0.25754 0.76129 0.0
C639 C 0.49813 0.24008 0.78292 0.0
C640 C 0.52799 0.23475 0.77478 0.0
C641 C 0.54346 0.21847 0.79538 0.0
C642 C 0.52928 0.20733 0.82416 0.0
C643 C 0.49959 0.21242 0.83234 0.0
C644 C 0.48401 0.22868 0.81182 0.0
C645 C 0.50919 0.27987 0.615 0.0
C646 C 0.48601 0.28409 0.59025 0.0
C647 C 0.50284 0.27427 0.65074 0.0
C648 C 0.4732 0.27269 0.6625 0.0
C649 C 0.44998 0.27469 0.63713 0.0
C650 C 0.45634 0.2805 0.60119 0.0
C651 C 0.46728 0.27235 0.70187 0.0
C652 C 0.4818 0.25589 0.72344 0.0
C653 C 0.45083 0.29012 0.71865 0.0
C654 C 0.4365 0.30887 0.69779 0.0
C655 C 0.40539 0.31166 0.69888 0.0
C656 C 0.39179 0.3293 0.67913 0.0
C657 C 0.40913 0.34434 0.65841 0.0
C658 C 0.44013 0.34185 0.65755 0.0
C659 C 0.45384 0.32426 0.67729 0.0
H660 H 0.39855 0.35797 0.64312 0.0
H661 H 0.54131 0.19475 0.84009 0.0
H662 H 0.43255 0.70861 0.92912 0.0
H663 H 0.42165 0.71761 0.86568 0.0
H664 H 0.51581 0.72526 0.84453 0.0
H665 H 0.52677 0.71686 0.90746 0.0
H666 H 0.48414 0.75373 0.80208 0.0
H667 H 0.48255 0.67291 0.83797 0.0
H668 H 0.46398 0.63989 0.87343 0.0
H669 H 0.37549 0.65149 0.83282 0.0
H670 H 0.39354 0.68477 0.79746 0.0
H671 H 0.52485 0.70026 0.63793 0.0
H672 H 0.51648 0.71396 0.69956 0.0
H673 H 0.42147 0.70672 0.6851 0.0
H674 H 0.4295 0.69295 0.6238 0.0
H675 H 0.44154 0.68433 0.7442 0.0
H676 H 0.45004 0.75939 0.69419 0.0
H677 H 0.47238 0.79043 0.65766 0.0
H678 H 0.55138 0.78824 0.72318 0.0
H679 H 0.52971 0.75695 0.7598 0.0
C680 C 0.45081 0.71285 0.91112 0.0
C681 C 0.48054 0.71147 0.92297 0.0
C682 C 0.44456 0.71799 0.87495 0.0
C683 C 0.46799 0.72166 0.85036 0.0
C684 C 0.49741 0.72242 0.86302 0.0
C685 C 0.50365 0.71735 0.89897 0.0
C686 C 0.46292 0.72099 0.81094 0.0
C687 C 0.47462 0.73868 0.78929 0.0
C688 C 0.45012 0.70146 0.79439 0.0
C689 C 0.43928 0.68147 0.81553 0.0
C690 C 0.4591 0.66849 0.83684 0.0
C691 C 0.44868 0.64974 0.85688 0.0
C692 C 0.41855 0.64365 0.85548 0.0
C693 C 0.3988 0.65627 0.83396 0.0
C694 C 0.4091 0.67508 0.81393 0.0
C695 C 0.50218 0.70184 0.64773 0.0
C696 C 0.4779 0.69527 0.62612 0.0
C697 C 0.49741 0.70986 0.6828 0.0
C698 C 0.46832 0.71151 0.69666 0.0
C699 C 0.44405 0.70564 0.67478 0.0
C700 C 0.44876 0.69768 0.6398 0.0
C701 C 0.46352 0.71678 0.73522 0.0
C702 C 0.45007 0.69983 0.75673 0.0
C703 C 0.47514 0.73681 0.75149 0.0
C704 C 0.48827 0.75572 0.72965 0.0
C705 C 0.47226 0.76541 0.70067 0.0
C706 C 0.4848 0.78308 0.67997 0.0
C707 C 0.51329 0.79129 0.68807 0.0
C708 C 0.5293 0.78187 0.71694 0.0
C709 C 0.51687 0.76419 0.73773 0.0
H710 H 0.52296 0.80496 0.67201 0.0
H711 H 0.41053 0.62911 0.871 0.0
H712 H 0.32672 0.3305 0.9854 0.0
H713 H 0.27927 0.30962 0.98201 0.0
H714 H 0.32526 0.24605 0.00474 0.0
H715 H 0.37251 0.26658 0.00728 0.0
H716 H 0.28742 0.24017 0.9512 0.0
H717 H 0.2837 0.27454 0.06965 0.0
H718 H 0.2851 0.30648 0.11324 0.0
H719 H 0.21011 0.33801 0.06059 0.0
H720 H 0.2085 0.30637 0.0164 0.0
H721 H 0.1662 0.16873 0.00718 0.0
H722 H 0.21225 0.19125 0.00247 0.0
H723 H 0.16099 0.25136 0.97388 0.0
H724 H 0.11507 0.22914 0.97873 0.0
H725 H 0.20018 0.26036 0.02719 0.0
H726 H 0.20219 0.22454 0.91088 0.0
H727 H 0.20064 0.19226 0.86795 0.0
H728 H 0.27877 0.16308 0.9171 0.0
H729 H 0.28054 0.19504 0.96068 0.0
C730 C 0.32662 0.3121 0.98983 0.0
C731 C 0.35331 0.30019 -0.00337 0.0
C732 C 0.29953 0.30019 0.98795 0.0
C733 C 0.29872 0.27628 -0.00667 0.0
C734 C 0.32536 0.26447 0.00033 0.0
C735 C 0.35235 0.27627 0.00192 0.0
C736 C 0.27029 0.26332 -0.00845 0.0
C737 C 0.26844 0.24445 0.96808 0.0
C738 C 0.24528 0.26923 0.01291 0.0
C739 C 0.24619 0.28823 0.0395 0.0
C740 C 0.26766 0.28838 0.06721 0.0
C741 C 0.26846 0.30641 0.09205 0.0
C742 C 0.24777 0.3243 0.08962 0.0
C743 C 0.22616 0.32416 0.0624 0.0
C744 C 0.22527 0.30618 0.03747 0.0
C745 C 0.16481 0.18667 -0.00052 0.0
C746 C 0.13702 0.19717 -0.00654 0.0
C747 C 0.1911 0.1995 -0.00327 0.0
C748 C 0.18999 0.22297 0.98776 0.0
C749 C 0.16232 0.23331 0.98095 0.0
C750 C 0.13611 0.22053 0.98364 0.0
C751 C 0.21747 0.23707 0.98717 0.0
C752 C 0.21911 0.25616 0.01017 0.0
C753 C 0.2423 0.23131 0.96547 0.0
C754 C 0.24133 0.21208 0.93927 0.0
C755 C 0.21889 0.21114 0.91274 0.0
C756 C 0.218 0.19292 0.88825 0.0
C757 C 0.23955 0.1756 0.88986 0.0
C758 C 0.26207 0.1765 0.91592 0.0
C759 C 0.26305 0.19467 0.94049 0.0
H760 H 0.23882 0.16151 0.87087 0.0
H761 H 0.24842 0.33824 0.10888 0.0
H762 H 0.65441 0.67075 0.95985 0.0
H763 H 0.70293 0.68746 0.94414 0.0
H764 H 0.66722 0.75546 0.96083 0.0
H765 H 0.61873 0.73902 0.97528 0.0
H766 H 0.70352 0.75619 0.90526 0.0
H767 H 0.70723 0.72628 0.02734 0.0
H768 H 0.70303 0.69632 0.0744 0.0
H769 H 0.77026 0.6563 0.021 0.0
H770 H 0.77459 0.68592 0.97338 0.0
H771 H 0.83141 0.82035 0.96119 0.0
H772 H 0.78348 0.80089 0.95271 0.0
H773 H 0.82955 0.73797 0.92693 0.0
H774 H 0.87736 0.75716 0.93558 0.0
H775 H 0.78967 0.73198 0.98038 0.0
H776 H 0.79047 0.76611 0.86268 0.0
H777 H 0.79492 0.79764 0.81834 0.0
H778 H 0.71948 0.8315 0.86589 0.0
H779 H 0.71485 0.80035 0.91091 0.0
C780 C 0.65689 0.68926 0.95978 0.0
C781 C 0.63286 0.70356 0.96914 0.0
C782 C 0.6846 0.69879 0.95088 0.0
C783 C 0.68882 0.72271 0.95186 0.0
C784 C 0.66452 0.73698 0.95986 0.0
C785 C 0.63682 0.72751 0.96832 0.0
C786 C 0.71881 0.73301 0.94688 0.0
C787 C 0.72236 0.75098 0.92177 0.0
C788 C 0.74352 0.72595 0.96797 0.0
C789 C 0.74097 0.70817 -0.0034 0.0
C790 C 0.72096 0.71101 0.02551 0.0
C791 C 0.71858 0.69411 0.0523 0.0
C792 C 0.7363 0.67439 0.05063 0.0
C793 C 0.7565 0.67156 0.02222 0.0
C794 C 0.75894 0.6884 -0.00467 0.0
C795 C 0.83129 0.8025 0.95304 0.0
C796 C 0.85811 0.79022 0.94944 0.0
C797 C 0.80392 0.79142 0.94807 0.0
C798 C 0.80301 0.76798 0.93919 0.0
C799 C 0.82979 0.75603 0.93389 0.0
C800 C 0.85707 0.76705 0.93886 0.0
C801 C 0.77434 0.75534 0.93906 0.0
C802 C 0.77102 0.73697 0.96338 0.0
C803 C 0.74985 0.76224 0.91754 0.0
C804 C 0.75246 0.78096 0.89036 0.0
C805 C 0.77496 0.78036 0.86388 0.0
C806 C 0.7775 0.79816 0.83858 0.0
C807 C 0.75753 0.81658 0.83934 0.0
C808 C 0.73494 0.81722 0.86535 0.0
C809 C 0.73233 0.79949 0.89074 0.0
H810 H 0.75953 0.83034 0.81973 0.0
H811 H 0.73443 0.66132 0.0714 0.0
H812 H 0.12216 0.77038 0.52186 0.0
H813 H 0.16832 0.74848 0.52409 0.0
H814 H 0.21905 0.81111 0.51288 0.0
H815 H 0.17255 0.83325 0.50965 0.0
H816 H 0.23904 0.77972 0.46787 0.0
H817 H 0.21544 0.78049 0.59403 0.0
H818 H 0.18554 0.77497 0.64935 0.0
H819 H 0.17759 0.70298 0.62641 0.0
H820 H 0.20706 0.70811 0.57066 0.0
H821 H 0.37952 0.73261 0.51088 0.0
H822 H 0.33279 0.75386 0.51171 0.0
H823 H 0.28355 0.69021 0.51073 0.0
H824 H 0.33065 0.66858 0.51007 0.0
H825 H 0.26285 0.72153 0.56185 0.0
H826 H 0.28696 0.72118 0.43565 0.0
H827 H 0.3196 0.72666 0.38266 0.0
H828 H 0.32791 0.79839 0.4074 0.0
H829 H 0.29567 0.79327 0.46088 0.0
C830 C 0.14311 0.77959 0.52021 0.0
C831 C 0.1437 0.80358 0.51551 0.0
C832 C 0.16953 0.76701 0.52172 0.0
C833 C 0.19719 0.77814 0.51907 0.0
C834 C 0.19792 0.80217 0.51504 0.0
C835 C 0.17139 0.81481 0.51332 0.0
C836 C 0.22513 0.76449 0.51833 0.0
C837 C 0.24445 0.76727 0.48875 0.0
C838 C 0.23177 0.74772 0.54499 0.0
C839 C 0.21329 0.74473 0.57799 0.0
C840 C 0.20704 0.76353 0.60055 0.0
C841 C 0.19024 0.76045 0.63204 0.0
C842 C 0.17973 0.73863 0.64139 0.0
C843 C 0.18579 0.71987 0.61915 0.0
C844 C 0.20255 0.72285 0.58761 0.0
C845 C 0.3588 0.72305 0.51071 0.0
C846 C 0.35876 0.69888 0.51032 0.0
C847 C 0.3321 0.73526 0.51106 0.0
C848 C 0.30476 0.72361 0.5109 0.0
C849 C 0.3045 0.69948 0.51074 0.0
C850 C 0.33135 0.68717 0.51023 0.0
C851 C 0.27659 0.73686 0.51156 0.0
C852 C 0.25729 0.73398 0.54103 0.0
C853 C 0.27001 0.7536 0.48492 0.0
C854 C 0.28909 0.7568 0.45247 0.0
C855 C 0.29591 0.73809 0.42994 0.0
C856 C 0.31432 0.74114 0.3998 0.0
C857 C 0.32588 0.76284 0.39172 0.0
C858 C 0.31896 0.78157 0.41371 0.0
C859 C 0.30059 0.77862 0.44392 0.0
H860 H 0.34015 0.76516 0.36839 0.0
H861 H 0.16701 0.73622 0.66595 0.0
H862 H 0.65763 0.32775 0.55859 0.0
H863 H 0.70637 0.31143 0.57434 0.0
H864 H 0.67287 0.24338 0.55244 0.0
H865 H 0.62419 0.25939 0.53785 0.0
H866 H 0.7087 0.24184 0.60866 0.0
H867 H 0.71204 0.27501 0.48845 0.0
H868 H 0.70739 0.30617 0.44344 0.0
H869 H 0.77361 0.34547 0.49986 0.0
H870 H 0.77838 0.31463 0.54547 0.0
H871 H 0.83363 0.17994 0.53964 0.0
H872 H 0.78655 0.19944 0.55318 0.0
H873 H 0.83508 0.2594 0.58797 0.0
H874 H 0.88211 0.24008 0.57471 0.0
H875 H 0.79422 0.26859 0.53456 0.0
H876 H 0.7965 0.23049 0.64875 0.0
H877 H 0.80136 0.19765 0.69058 0.0
H878 H 0.72484 0.16566 0.64243 0.0
H879 H 0.71976 0.19816 0.59992 0.0
C880 C 0.66062 0.3093 0.55757 0.0
C881 C 0.63721 0.29488 0.5466 0.0
C882 C 0.68845 0.3 0.56651 0.0
C883 C 0.69336 0.2762 0.56405 0.0
C884 C 0.66961 0.26177 0.55458 0.0
C885 C 0.64181 0.27099 0.54601 0.0
C886 C 0.72358 0.26627 0.56862 0.0
C887 C 0.72741 0.24764 0.59243 0.0
C888 C 0.74813 0.27413 0.54796 0.0
C889 C 0.74528 0.29267 0.52059 0.0
C890 C 0.72543 0.29038 0.4914 0.0
C891 C 0.7228 0.30796 0.46576 0.0
C892 C 0.74011 0.32782 0.46886 0.0
C893 C 0.76016 0.3301 0.49755 0.0
C894 C 0.76284 0.31258 0.52329 0.0
C895 C 0.83427 0.19708 0.55088 0.0
C896 C 0.86154 0.20855 0.55576 0.0
C897 C 0.80739 0.20817 0.55875 0.0
C898 C 0.80742 0.23085 0.57157 0.0
C899 C 0.83464 0.2419 0.5781 0.0
C900 C 0.86147 0.2308 0.57048 0.0
C901 C 0.77919 0.24389 0.57405 0.0
C902 C 0.77572 0.26307 0.55141 0.0
C903 C 0.75496 0.23631 0.5954 0.0
C904 C 0.75789 0.21671 0.62095 0.0
C905 C 0.78085 0.21637 0.64686 0.0
C906 C 0.78361 0.19783 0.67074 0.0
C907 C 0.76345 0.17956 0.66912 0.0
C908 C 0.74045 0.17982 0.64365 0.0
C909 C 0.73759 0.19832 0.61968 0.0
H910 H 0.76563 0.16522 0.68764 0.0
H911 H 0.73806 0.34141 0.44897 0.0
loop_
_geom_bond_atom_site_label_1
_geom_bond_atom_site_label_2
_geom_bond_distance
_geom_bond_site_symmetry_2
_ccdc_geom_bond_type
C0 O1 1.336 . S
C0 O3 1.160 . S
O1 C0 1.336 . S
O1 Cd2 2.213 1_456 S
Cd2 O1 2.213 1_654 S
Cd2 O6 2.273 1_655 S
Cd2 O10 2.277 1_655 S
O3 C0 1.160 . S
O3 Cd4 2.203 1_556 S
Cd4 O3 2.203 1_554 S
Cd4 O6 2.411 . S
Cd4 O7 2.333 . S
Cd4 O8 2.352 . S
Cd4 O12 2.277 . S
Cd4 O13 2.356 . S
C5 O10 1.209 . S
C5 O12 1.226 . S
O6 Cd2 2.273 1_455 S
O6 Cd4 2.411 . S
O6 C9 1.320 . S
O7 Cd4 2.333 . S
O7 C9 1.214 . S
O8 Cd4 2.352 . S
O8 C11 1.258 . S
C9 O6 1.320 . S
C9 O7 1.214 . S
O10 Cd2 2.277 1_455 S
O10 C5 1.209 . S
C11 O8 1.258 . S
C11 O13 1.282 . S
O12 Cd4 2.277 . S
O12 C5 1.226 . S
O13 Cd4 2.356 . S
O13 C11 1.282 . S
C14 O15 1.336 . S
C14 O17 1.160 . S
O15 C14 1.336 . S
O15 Cd16 2.213 1_656 S
Cd16 O15 2.213 1_454 S
Cd16 O20 2.273 1_455 S
Cd16 O24 2.277 1_455 S
O17 C14 1.160 . S
O17 Cd18 2.203 1_556 S
Cd18 O17 2.203 1_554 S
Cd18 O20 2.411 . S
Cd18 O21 2.333 . S
Cd18 O22 2.352 . S
Cd18 O26 2.277 . S
Cd18 O27 2.356 . S
C19 O24 1.209 . S
C19 O26 1.226 . S
O20 Cd16 2.273 1_655 S
O20 Cd18 2.411 . S
O20 C23 1.320 . S
O21 Cd18 2.333 . S
O21 C23 1.214 . S
O22 Cd18 2.352 . S
O22 C25 1.258 . S
C23 O20 1.320 . S
C23 O21 1.214 . S
O24 Cd16 2.277 1_655 S
O24 C19 1.209 . S
C25 O22 1.258 . S
C25 O27 1.282 . S
O26 Cd18 2.277 . S
O26 C19 1.226 . S
O27 Cd18 2.356 . S
O27 C25 1.282 . S
C28 O29 1.337 . S
C28 O31 1.160 . S
O29 C28 1.337 . S
O29 Cd30 2.213 1_455 S
Cd30 O29 2.213 1_655 S
Cd30 O34 2.273 1_655 S
Cd30 O38 2.277 1_655 S
O31 C28 1.160 . S
O31 Cd32 2.203 . S
Cd32 O31 2.203 . S
Cd32 O34 2.411 . S
Cd32 O35 2.333 . S
Cd32 O36 2.352 . S
Cd32 O40 2.277 . S
Cd32 O41 2.356 . S
C33 O38 1.209 . S
C33 O40 1.226 . S
O34 Cd30 2.273 1_455 S
O34 Cd32 2.411 . S
O34 C37 1.320 . S
O35 Cd32 2.333 . S
O35 C37 1.214 . S
O36 Cd32 2.352 . S
O36 C39 1.258 . S
C37 O34 1.320 . S
C37 O35 1.214 . S
O38 Cd30 2.277 1_455 S
O38 C33 1.209 . S
C39 O36 1.258 . S
C39 O41 1.282 . S
O40 Cd32 2.277 . S
O40 C33 1.226 . S
O41 Cd32 2.356 . S
O41 C39 1.282 . S
C42 O43 1.337 . S
C42 O45 1.160 . S
O43 C42 1.337 . S
O43 Cd44 2.213 1_655 S
Cd44 O43 2.213 1_455 S
Cd44 O48 2.273 1_455 S
Cd44 O52 2.277 1_455 S
O45 C42 1.160 . S
O45 Cd46 2.203 . S
Cd46 O45 2.203 . S
Cd46 O48 2.411 . S
Cd46 O49 2.333 . S
Cd46 O50 2.352 . S
Cd46 O54 2.277 . S
Cd46 O55 2.356 . S
C47 O52 1.209 . S
C47 O54 1.226 . S
O48 Cd44 2.273 1_655 S
O48 Cd46 2.411 . S
O48 C51 1.320 . S
O49 Cd46 2.333 . S
O49 C51 1.214 . S
O50 Cd46 2.352 . S
O50 C53 1.258 . S
C51 O48 1.320 . S
C51 O49 1.214 . S
O52 Cd44 2.277 1_655 S
O52 C47 1.209 . S
C53 O50 1.258 . S
C53 O55 1.282 . S
O54 Cd46 2.277 . S
O54 C47 1.226 . S
O55 Cd46 2.356 . S
O55 C53 1.282 . S
C56 O57 1.306 . S
C56 O59 1.160 . S
O57 C56 1.306 . S
O57 Cd58 2.228 1_556 S
Cd58 O57 2.228 1_554 S
Cd58 O62 2.273 . S
Cd58 O66 2.277 . S
O59 C56 1.160 . S
O59 Cd60 2.203 1_556 S
Cd60 O59 2.203 1_554 S
Cd60 O62 2.411 . S
Cd60 O63 2.333 . S
Cd60 O64 2.352 . S
Cd60 O68 2.277 . S
Cd60 O69 2.356 . S
C61 O66 1.209 . S
C61 O68 1.226 . S
O62 Cd58 2.273 . S
O62 Cd60 2.411 . S
O62 C65 1.320 . S
O63 Cd60 2.333 . S
O63 C65 1.214 . S
O64 Cd60 2.352 . S
O64 C67 1.258 . S
C65 O62 1.320 . S
C65 O63 1.214 . S
O66 Cd58 2.277 . S
O66 C61 1.209 . S
C67 O64 1.258 . S
C67 O69 1.282 . S
O68 Cd60 2.277 . S
O68 C61 1.226 . S
O69 Cd60 2.356 . S
O69 C67 1.282 . S
C70 O71 1.306 . S
C70 O73 1.160 . S
O71 C70 1.306 . S
O71 Cd72 2.228 1_556 S
Cd72 O71 2.228 1_554 S
Cd72 O76 2.273 . S
Cd72 O80 2.277 . S
O73 C70 1.160 . S
O73 Cd74 2.203 1_556 S
Cd74 O73 2.203 1_554 S
Cd74 O76 2.411 . S
Cd74 O77 2.333 . S
Cd74 O78 2.352 . S
Cd74 O82 2.277 . S
Cd74 O83 2.356 . S
C75 O80 1.209 . S
C75 O82 1.226 . S
O76 Cd72 2.273 . S
O76 Cd74 2.411 . S
O76 C79 1.320 . S
O77 Cd74 2.333 . S
O77 C79 1.214 . S
O78 Cd74 2.352 . S
O78 C81 1.258 . S
C79 O76 1.320 . S
C79 O77 1.214 . S
O80 Cd72 2.277 . S
O80 C75 1.209 . S
C81 O78 1.258 . S
C81 O83 1.282 . S
O82 Cd74 2.277 . S
O82 C75 1.226 . S
O83 Cd74 2.356 . S
O83 C81 1.282 . S
C84 O85 1.306 . S
C84 O87 1.160 . S
O85 C84 1.306 . S
O85 Cd86 2.228 . S
Cd86 O85 2.228 . S
Cd86 O90 2.273 . S
Cd86 O94 2.277 . S
O87 C84 1.160 . S
O87 Cd88 2.203 . S
Cd88 O87 2.203 . S
Cd88 O90 2.411 . S
Cd88 O91 2.333 . S
Cd88 O92 2.352 . S
Cd88 O96 2.277 . S
Cd88 O97 2.356 . S
C89 O94 1.209 . S
C89 O96 1.226 . S
O90 Cd86 2.273 . S
O90 Cd88 2.411 . S
O90 C93 1.320 . S
O91 Cd88 2.333 . S
O91 C93 1.214 . S
O92 Cd88 2.352 . S
O92 C95 1.258 . S
C93 O90 1.320 . S
C93 O91 1.214 . S
O94 Cd86 2.277 . S
O94 C89 1.209 . S
C95 O92 1.258 . S
C95 O97 1.282 . S
O96 Cd88 2.277 . S
O96 C89 1.226 . S
O97 Cd88 2.356 . S
O97 C95 1.282 . S
C98 O99 1.306 . S
C98 O101 1.160 . S
O99 C98 1.306 . S
O99 Cd100 2.228 . S
Cd100 O99 2.228 . S
Cd100 O104 2.273 . S
Cd100 O108 2.277 . S
O101 C98 1.160 . S
O101 Cd102 2.203 . S
Cd102 O101 2.203 . S
Cd102 O104 2.411 . S
Cd102 O105 2.333 . S
Cd102 O106 2.352 . S
Cd102 O110 2.277 . S
Cd102 O111 2.356 . S
C103 O108 1.209 . S
C103 O110 1.226 . S
O104 Cd100 2.273 . S
O104 Cd102 2.411 . S
O104 C107 1.320 . S
O105 Cd102 2.333 . S
O105 C107 1.214 . S
O106 Cd102 2.352 . S
O106 C109 1.258 . S
C107 O104 1.320 . S
C107 O105 1.214 . S
O108 Cd100 2.277 . S
O108 C103 1.209 . S
C109 O106 1.258 . S
C109 O111 1.282 . S
O110 Cd102 2.277 . S
O110 C103 1.226 . S
O111 Cd102 2.356 . S
O111 C109 1.282 . S
H112 C130 0.951 1_456 S
H113 C132 0.951 1_556 S
H114 C134 0.950 . S
H115 C135 0.950 . S
H116 C137 0.950 . S
H117 C140 0.950 . S
H118 C141 0.950 . S
H119 C143 0.950 . S
H120 C144 0.950 . S
H121 C145 0.951 1_655 S
H122 C147 0.951 . S
H123 C149 0.950 1_556 S
H124 C150 0.950 1_556 S
H125 C152 0.950 . S
H126 C155 0.950 . S
H127 C156 0.950 . S
H128 C158 0.950 . S
H129 C159 0.950 . S
C130 H112 0.951 1_654 S
C130 C131 1.366 . S
C130 C132 1.388 1_655 S
C131 C130 1.366 . S
C131 C135 1.385 . S
C132 H113 0.951 1_554 S
C132 C130 1.388 1_455 S
C132 C133 1.366 1_455 S
C133 C132 1.366 1_655 S
C133 C134 1.414 . S
C133 C136 1.499 . S
C134 H114 0.950 . S
C134 C133 1.414 . S
C134 C135 1.374 . S
C135 H115 0.950 . S
C135 C131 1.385 . S
C135 C134 1.374 . S
C136 C133 1.499 . S
C136 C137 1.373 1_554 S
C136 C138 1.389 1_655 S
C137 H116 0.950 . S
C137 C136 1.373 1_556 S
C137 C153 1.377 1_565 S
C138 C136 1.389 1_455 S
C138 C139 1.524 . S
C138 C152 1.377 1_565 S
C139 C138 1.524 . S
C139 C140 1.397 . S
C139 C144 1.363 . S
C140 H117 0.950 . S
C140 C139 1.397 . S
C140 C141 1.334 . S
C141 H118 0.950 . S
C141 C140 1.334 . S
C141 C142 1.287 . S
C142 C141 1.287 . S
C142 C143 1.524 . S
C142 H161 0.913 . S
C143 H119 0.950 . S
C143 C142 1.524 . S
C143 C144 1.415 . S
C144 H120 0.950 . S
C144 C139 1.363 . S
C144 C143 1.415 . S
C145 H121 0.951 1_455 S
C145 C146 1.366 . S
C145 C147 1.388 1_455 S
C146 C145 1.366 . S
C146 C150 1.385 . S
C147 H122 0.951 . S
C147 C145 1.388 1_655 S
C147 C148 1.366 1_655 S
C148 C147 1.366 1_455 S
C148 C149 1.414 . S
C148 C151 1.499 . S
C149 H123 0.950 1_554 S
C149 C148 1.414 . S
C149 C150 1.374 . S
C150 H124 0.950 1_554 S
C150 C146 1.385 . S
C150 C149 1.374 . S
C151 C148 1.499 . S
C151 C152 1.373 . S
C151 C153 1.389 1_454 S
C152 H125 0.950 . S
C152 C138 1.377 1_545 S
C152 C151 1.373 . S
C153 C137 1.377 1_545 S
C153 C151 1.389 1_656 S
C153 C154 1.524 . S
C154 C153 1.524 . S
C154 C155 1.397 . S
C154 C159 1.363 . S
C155 H126 0.950 . S
C155 C154 1.397 . S
C155 C156 1.334 . S
C156 H127 0.950 . S
C156 C155 1.334 . S
C156 C157 1.287 . S
C157 C156 1.287 . S
C157 C158 1.524 . S
C157 H160 0.999 . S
C158 H128 0.950 . S
C158 C157 1.524 . S
C158 C159 1.415 . S
C159 H129 0.950 . S
C159 C154 1.363 . S
C159 C158 1.415 . S
H160 C157 0.999 . S
H161 C142 0.913 . S
H162 C180 0.951 . S
H163 C182 0.951 . S
H164 C184 0.950 1_655 S
H165 C185 0.950 . S
H166 C187 0.950 . S
H167 C190 0.950 . S
H168 C191 0.950 . S
H169 C193 0.950 1_545 S
H170 C194 0.950 1_545 S
H171 C195 0.951 . S
H172 C197 0.951 . S
H173 C199 0.950 1_455 S
H174 C200 0.950 . S
H175 C202 0.950 . S
H176 C205 0.950 . S
H177 C206 0.950 . S
H178 C208 0.950 1_565 S
H179 C209 0.950 1_565 S
C180 H162 0.951 . S
C180 C181 1.366 . S
C180 C182 1.388 . S
C181 C180 1.366 . S
C181 C185 1.385 . S
C182 H163 0.951 . S
C182 C180 1.388 . S
C182 C183 1.366 . S
C183 C182 1.366 . S
C183 C184 1.414 . S
C183 C186 1.499 . S
C184 H164 0.950 1_455 S
C184 C183 1.414 . S
C184 C185 1.374 . S
C185 H165 0.950 . S
C185 C181 1.385 . S
C185 C184 1.374 . S
C186 C183 1.499 . S
C186 C187 1.373 1_455 S
C186 C188 1.389 . S
C187 H166 0.950 . S
C187 C186 1.373 1_655 S
C187 C203 1.377 1_565 S
C188 C186 1.389 . S
C188 C189 1.524 . S
C188 C202 1.377 1_565 S
C189 C188 1.524 . S
C189 C190 1.397 . S
C189 C194 1.363 . S
C190 H167 0.950 . S
C190 C189 1.397 . S
C190 C191 1.334 . S
C191 H168 0.950 . S
C191 C190 1.334 . S
C191 C192 1.287 . S
C192 C191 1.287 . S
C192 C193 1.524 . S
C192 H211 0.913 . S
C193 H169 0.950 1_565 S
C193 C192 1.524 . S
C193 C194 1.415 . S
C194 H170 0.950 1_565 S
C194 C189 1.363 . S
C194 C193 1.415 . S
C195 H171 0.951 . S
C195 C196 1.366 . S
C195 C197 1.388 . S
C196 C195 1.366 . S
C196 C200 1.385 . S
C197 H172 0.951 . S
C197 C195 1.388 . S
C197 C198 1.366 . S
C198 C197 1.366 . S
C198 C199 1.414 . S
C198 C201 1.499 . S
C199 H173 0.950 1_655 S
C199 C198 1.414 . S
C199 C200 1.374 . S
C200 H174 0.950 . S
C200 C196 1.385 . S
C200 C199 1.374 . S
C201 C198 1.499 . S
C201 C202 1.373 1_655 S
C201 C203 1.389 . S
C202 H175 0.950 . S
C202 C188 1.377 1_545 S
C202 C201 1.373 1_455 S
C203 C187 1.377 1_545 S
C203 C201 1.389 . S
C203 C204 1.524 . S
C204 C203 1.524 . S
C204 C205 1.397 . S
C204 C209 1.363 . S
C205 H176 0.950 . S
C205 C204 1.397 . S
C205 C206 1.334 . S
C206 H177 0.950 . S
C206 C205 1.334 . S
C206 C207 1.287 . S
C207 C206 1.287 . S
C207 C208 1.524 . S
C207 H210 0.999 . S
C208 H178 0.950 1_545 S
C208 C207 1.524 . S
C208 C209 1.415 . S
C209 H179 0.950 1_545 S
C209 C204 1.363 . S
C209 C208 1.415 . S
H210 C207 0.999 . S
H211 C192 0.913 . S
H212 C230 0.951 . S
H213 C232 0.951 . S
H214 C234 0.950 . S
H215 C235 0.950 . S
H216 C237 0.950 . S
H217 C240 0.950 . S
H218 C241 0.950 . S
H219 C243 0.950 . S
H220 C244 0.950 . S
H221 C245 0.951 . S
H222 C247 0.951 . S
H223 C249 0.950 . S
H224 C250 0.950 . S
H225 C252 0.950 . S
H226 C255 0.950 . S
H227 C256 0.950 . S
H228 C258 0.950 . S
H229 C259 0.950 . S
C230 H212 0.951 . S
C230 C231 1.366 . S
C230 C232 1.388 . S
C231 C230 1.366 . S
C231 C235 1.385 1_554 S
C232 H213 0.951 . S
C232 C230 1.388 . S
C232 C233 1.366 . S
C233 C232 1.366 . S
C233 C234 1.414 1_554 S
C233 C236 1.499 . S
C234 H214 0.950 . S
C234 C233 1.414 1_556 S
C234 C235 1.374 . S
C235 H215 0.950 . S
C235 C231 1.385 1_556 S
C235 C234 1.374 . S
C236 C233 1.499 . S
C236 C237 1.373 1_554 S
C236 C238 1.389 . S
C237 H216 0.950 . S
C237 C236 1.373 1_556 S
C237 C253 1.377 . S
C238 C236 1.389 . S
C238 C239 1.524 . S
C238 C252 1.377 . S
C239 C238 1.524 . S
C239 C240 1.397 . S
C239 C244 1.363 . S
C240 H217 0.950 . S
C240 C239 1.397 . S
C240 C241 1.334 . S
C241 H218 0.950 . S
C241 C240 1.334 . S
C241 C242 1.287 . S
C242 C241 1.287 . S
C242 C243 1.524 . S
C242 H261 0.913 . S
C243 H219 0.950 . S
C243 C242 1.524 . S
C243 C244 1.415 . S
C244 H220 0.950 . S
C244 C239 1.363 . S
C244 C243 1.415 . S
C245 H221 0.951 . S
C245 C246 1.366 1_556 S
C245 C247 1.388 . S
C246 C245 1.366 1_554 S
C246 C250 1.385 . S
C247 H222 0.951 . S
C247 C245 1.388 . S
C247 C248 1.366 1_556 S
C248 C247 1.366 1_554 S
C248 C249 1.414 . S
C248 C251 1.499 . S
C249 H223 0.950 . S
C249 C248 1.414 . S
C249 C250 1.374 . S
C250 H224 0.950 . S
C250 C246 1.385 . S
C250 C249 1.374 . S
C251 C248 1.499 . S
C251 C252 1.373 . S
C251 C253 1.389 1_554 S
C252 H225 0.950 . S
C252 C238 1.377 . S
C252 C251 1.373 . S
C253 C237 1.377 . S
C253 C251 1.389 1_556 S
C253 C254 1.524 . S
C254 C253 1.524 . S
C254 C255 1.397 . S
C254 C259 1.363 . S
C255 H226 0.950 . S
C255 C254 1.397 . S
C255 C256 1.334 . S
C256 H227 0.950 . S
C256 C255 1.334 . S
C256 C257 1.287 . S
C257 C256 1.287 . S
C257 C258 1.524 . S
C257 H260 0.999 . S
C258 H228 0.950 . S
C258 C257 1.524 . S
C258 C259 1.415 . S
C259 H229 0.950 . S
C259 C254 1.363 . S
C259 C258 1.415 . S
H260 C257 0.999 . S
H261 C242 0.913 . S
H262 C280 0.951 . S
H263 C282 0.951 . S
H264 C284 0.950 . S
H265 C285 0.950 . S
H266 C287 0.950 . S
H267 C290 0.950 . S
H268 C291 0.950 . S
H269 C293 0.950 . S
H270 C294 0.950 . S
H271 C295 0.951 . S
H272 C297 0.951 . S
H273 C299 0.950 . S
H274 C300 0.950 . S
H275 C302 0.950 . S
H276 C305 0.950 . S
H277 C306 0.950 . S
H278 C308 0.950 . S
H279 C309 0.950 . S
C280 H262 0.951 . S
C280 C281 1.366 . S
C280 C282 1.388 . S
C281 C280 1.366 . S
C281 C285 1.385 . S
C282 H263 0.951 . S
C282 C280 1.388 . S
C282 C283 1.366 . S
C283 C282 1.366 . S
C283 C284 1.414 . S
C283 C286 1.499 . S
C284 H264 0.950 . S
C284 C283 1.414 . S
C284 C285 1.374 . S
C285 H265 0.950 . S
C285 C281 1.385 . S
C285 C284 1.374 . S
C286 C283 1.499 . S
C286 C287 1.373 . S
C286 C288 1.389 . S
C287 H266 0.950 . S
C287 C286 1.373 . S
C287 C303 1.377 . S
C288 C286 1.389 . S
C288 C289 1.524 . S
C288 C302 1.377 . S
C289 C288 1.524 . S
C289 C290 1.397 . S
C289 C294 1.363 . S
C290 H267 0.950 . S
C290 C289 1.397 . S
C290 C291 1.334 . S
C291 H268 0.950 . S
C291 C290 1.334 . S
C291 C292 1.287 . S
C292 C291 1.287 . S
C292 C293 1.524 . S
C292 H311 0.913 . S
C293 H269 0.950 . S
C293 C292 1.524 . S
C293 C294 1.415 . S
C294 H270 0.950 . S
C294 C289 1.363 . S
C294 C293 1.415 . S
C295 H271 0.951 . S
C295 C296 1.366 . S
C295 C297 1.388 . S
C296 C295 1.366 . S
C296 C300 1.385 . S
C297 H272 0.951 . S
C297 C295 1.388 . S
C297 C298 1.366 . S
C298 C297 1.366 . S
C298 C299 1.414 . S
C298 C301 1.499 . S
C299 H273 0.950 . S
C299 C298 1.414 . S
C299 C300 1.374 . S
C300 H274 0.950 . S
C300 C296 1.385 . S
C300 C299 1.374 . S
C301 C298 1.499 . S
C301 C302 1.373 . S
C301 C303 1.389 . S
C302 H275 0.950 . S
C302 C288 1.377 . S
C302 C301 1.373 . S
C303 C287 1.377 . S
C303 C301 1.389 . S
C303 C304 1.524 . S
C304 C303 1.524 . S
C304 C305 1.397 . S
C304 C309 1.363 . S
C305 H276 0.950 . S
C305 C304 1.397 . S
C305 C306 1.334 . S
C306 H277 0.950 . S
C306 C305 1.334 . S
C306 C307 1.287 . S
C307 C306 1.287 . S
C307 C308 1.524 . S
C307 H310 0.999 . S
C308 H278 0.950 . S
C308 C307 1.524 . S
C308 C309 1.415 . S
C309 H279 0.950 . S
C309 C304 1.363 . S
C309 C308 1.415 . S
H310 C307 0.999 . S
H311 C292 0.913 . S
H312 C330 0.951 . S
H313 C332 0.951 . S
H314 C334 0.950 . S
H315 C335 0.950 . S
H316 C337 0.950 . S
H317 C340 0.950 . S
H318 C341 0.950 . S
H319 C343 0.950 . S
H320 C344 0.950 . S
H321 C345 0.951 . S
H322 C347 0.951 . S
H323 C349 0.950 . S
H324 C350 0.950 . S
H325 C352 0.950 . S
H326 C355 0.950 . S
H327 C356 0.950 . S
H328 C358 0.950 . S
H329 C359 0.950 . S
C330 H312 0.951 . S
C330 C331 1.366 1_655 S
C330 C332 1.388 . S
C331 C330 1.366 1_455 S
C331 C335 1.385 . S
C332 H313 0.951 . S
C332 C330 1.388 . S
C332 C333 1.366 1_655 S
C333 C332 1.366 1_455 S
C333 C334 1.414 . S
C333 C336 1.499 . S
C334 H314 0.950 . S
C334 C333 1.414 . S
C334 C335 1.374 . S
C335 H315 0.950 . S
C335 C331 1.385 . S
C335 C334 1.374 . S
C336 C333 1.499 . S
C336 C337 1.373 . S
C336 C338 1.389 1_455 S
C337 H316 0.950 . S
C337 C336 1.373 . S
C337 C353 1.377 . S
C338 C336 1.389 1_655 S
C338 C339 1.524 . S
C338 C352 1.377 . S
C339 C338 1.524 . S
C339 C340 1.397 1_655 S
C339 C344 1.363 . S
C340 H317 0.950 . S
C340 C339 1.397 1_455 S
C340 C341 1.334 . S
C341 H318 0.950 . S
C341 C340 1.334 . S
C341 C342 1.287 1_455 S
C342 C341 1.287 1_655 S
C342 C343 1.524 . S
C342 H361 0.913 . S
C343 H319 0.950 . S
C343 C342 1.524 . S
C343 C344 1.415 . S
C344 H320 0.950 . S
C344 C339 1.363 . S
C344 C343 1.415 . S
C345 H321 0.951 . S
C345 C346 1.366 1_455 S
C345 C347 1.388 . S
C346 C345 1.366 1_655 S
C346 C350 1.385 . S
C347 H322 0.951 . S
C347 C345 1.388 . S
C347 C348 1.366 1_455 S
C348 C347 1.366 1_655 S
C348 C349 1.414 . S
C348 C351 1.499 . S
C349 H323 0.950 . S
C349 C348 1.414 . S
C349 C350 1.374 . S
C350 H324 0.950 . S
C350 C346 1.385 . S
C350 C349 1.374 . S
C351 C348 1.499 . S
C351 C352 1.373 . S
C351 C353 1.389 1_655 S
C352 H325 0.950 . S
C352 C338 1.377 . S
C352 C351 1.373 . S
C353 C337 1.377 . S
C353 C351 1.389 1_455 S
C353 C354 1.524 . S
C354 C353 1.524 . S
C354 C355 1.397 1_455 S
C354 C359 1.363 . S
C355 H326 0.950 . S
C355 C354 1.397 1_655 S
C355 C356 1.334 . S
C356 H327 0.950 . S
C356 C355 1.334 . S
C356 C357 1.287 1_655 S
C357 C356 1.287 1_455 S
C357 C358 1.524 . S
C357 H360 0.999 . S
C358 H328 0.950 . S
C358 C357 1.524 . S
C358 C359 1.415 . S
C359 H329 0.950 . S
C359 C354 1.363 . S
C359 C358 1.415 . S
H360 C357 0.999 . S
H361 C342 0.913 . S
H362 C380 0.951 1_655 S
H363 C382 0.951 1_655 S
H364 C384 0.950 . S
H365 C385 0.950 . S
H366 C387 0.950 . S
H367 C390 0.950 . S
H368 C391 0.950 . S
H369 C393 0.950 . S
H370 C394 0.950 1_655 S
H371 C395 0.951 1_455 S
H372 C397 0.951 1_455 S
H373 C399 0.950 . S
H374 C400 0.950 . S
H375 C402 0.950 . S
H376 C405 0.950 . S
H377 C406 0.950 . S
H378 C408 0.950 . S
H379 C409 0.950 1_455 S
C380 H362 0.951 1_455 S
C380 C381 1.366 . S
C380 C382 1.388 . S
C381 C380 1.366 . S
C381 C385 1.385 . S
C382 H363 0.951 1_455 S
C382 C380 1.388 . S
C382 C383 1.366 . S
C383 C382 1.366 . S
C383 C384 1.414 . S
C383 C386 1.499 . S
C384 H364 0.950 . S
C384 C383 1.414 . S
C384 C385 1.374 . S
C385 H365 0.950 . S
C385 C381 1.385 . S
C385 C384 1.374 . S
C386 C383 1.499 . S
C386 C387 1.373 1_455 S
C386 C388 1.389 . S
C387 H366 0.950 . S
C387 C386 1.373 1_655 S
C387 C403 1.377 . S
C388 C386 1.389 . S
C388 C389 1.524 . S
C388 C402 1.377 . S
C389 C388 1.524 . S
C389 C390 1.397 . S
C389 C394 1.363 . S
C390 H367 0.950 . S
C390 C389 1.397 . S
C390 C391 1.334 . S
C391 H368 0.950 . S
C391 C390 1.334 . S
C391 C392 1.287 . S
C392 C391 1.287 . S
C392 C393 1.524 . S
C392 H411 0.913 . S
C393 H369 0.950 . S
C393 C392 1.524 . S
C393 C394 1.415 . S
C394 H370 0.950 1_455 S
C394 C389 1.363 . S
C394 C393 1.415 . S
C395 H371 0.951 1_655 S
C395 C396 1.366 . S
C395 C397 1.388 . S
C396 C395 1.366 . S
C396 C400 1.385 . S
C397 H372 0.951 1_655 S
C397 C395 1.388 . S
C397 C398 1.366 . S
C398 C397 1.366 . S
C398 C399 1.414 . S
C398 C401 1.499 . S
C399 H373 0.950 . S
C399 C398 1.414 . S
C399 C400 1.374 . S
C400 H374 0.950 . S
C400 C396 1.385 . S
C400 C399 1.374 . S
C401 C398 1.499 . S
C401 C402 1.373 1_655 S
C401 C403 1.389 . S
C402 H375 0.950 . S
C402 C388 1.377 . S
C402 C401 1.373 1_455 S
C403 C387 1.377 . S
C403 C401 1.389 . S
C403 C404 1.524 . S
C404 C403 1.524 . S
C404 C405 1.397 . S
C404 C409 1.363 . S
C405 H376 0.950 . S
C405 C404 1.397 . S
C405 C406 1.334 . S
C406 H377 0.950 . S
C406 C405 1.334 . S
C406 C407 1.287 . S
C407 C406 1.287 . S
C407 C408 1.524 . S
C407 H410 0.999 . S
C408 H378 0.950 . S
C408 C407 1.524 . S
C408 C409 1.415 . S
C409 H379 0.950 1_655 S
C409 C404 1.363 . S
C409 C408 1.415 . S
H410 C407 0.999 . S
H411 C392 0.913 . S
H412 C430 0.951 . S
H413 C432 0.951 . S
H414 C434 0.950 . S
H415 C435 0.950 . S
H416 C437 0.950 . S
H417 C440 0.950 . S
H418 C441 0.950 . S
H419 C443 0.950 . S
H420 C444 0.950 . S
H421 C445 0.951 . S
H422 C447 0.951 . S
H423 C449 0.950 . S
H424 C450 0.950 . S
H425 C452 0.950 . S
H426 C455 0.950 . S
H427 C456 0.950 . S
H428 C458 0.950 . S
H429 C459 0.950 . S
C430 H412 0.951 . S
C430 C431 1.366 . S
C430 C432 1.388 . S
C431 C430 1.366 . S
C431 C435 1.385 1_455 S
C432 H413 0.951 . S
C432 C430 1.388 . S
C432 C433 1.366 . S
C433 C432 1.366 . S
C433 C434 1.414 1_455 S
C433 C436 1.499 . S
C434 H414 0.950 . S
C434 C433 1.414 1_655 S
C434 C435 1.374 . S
C435 H415 0.950 . S
C435 C431 1.385 1_655 S
C435 C434 1.374 . S
C436 C433 1.499 . S
C436 C437 1.373 1_455 S
C436 C438 1.389 . S
C437 H416 0.950 . S
C437 C436 1.373 1_655 S
C437 C453 1.377 . S
C438 C436 1.389 . S
C438 C439 1.524 . S
C438 C452 1.377 . S
C439 C438 1.524 . S
C439 C440 1.397 . S
C439 C444 1.363 . S
C440 H417 0.950 . S
C440 C439 1.397 . S
C440 C441 1.334 . S
C441 H418 0.950 . S
C441 C440 1.334 . S
C441 C442 1.287 . S
C442 C441 1.287 . S
C442 C443 1.524 . S
C442 H461 0.913 . S
C443 H419 0.950 . S
C443 C442 1.524 . S
C443 C444 1.415 . S
C444 H420 0.950 . S
C444 C439 1.363 . S
C444 C443 1.415 . S
C445 H421 0.951 . S
C445 C446 1.366 . S
C445 C447 1.388 . S
C446 C445 1.366 . S
C446 C450 1.385 1_655 S
C447 H422 0.951 . S
C447 C445 1.388 . S
C447 C448 1.366 . S
C448 C447 1.366 . S
C448 C449 1.414 1_655 S
C448 C451 1.499 . S
C449 H423 0.950 . S
C449 C448 1.414 1_455 S
C449 C450 1.374 . S
C450 H424 0.950 . S
C450 C446 1.385 1_455 S
C450 C449 1.374 . S
C451 C448 1.499 . S
C451 C452 1.373 1_655 S
C451 C453 1.389 . S
C452 H425 0.950 . S
C452 C438 1.377 . S
C452 C451 1.373 1_455 S
C453 C437 1.377 . S
C453 C451 1.389 . S
C453 C454 1.524 . S
C454 C453 1.524 . S
C454 C455 1.397 . S
C454 C459 1.363 . S
C455 H426 0.950 . S
C455 C454 1.397 . S
C455 C456 1.334 . S
C456 H427 0.950 . S
C456 C455 1.334 . S
C456 C457 1.287 . S
C457 C456 1.287 . S
C457 C458 1.524 . S
C457 H460 0.999 . S
C458 H428 0.950 . S
C458 C457 1.524 . S
C458 C459 1.415 . S
C459 H429 0.950 . S
C459 C454 1.363 . S
C459 C458 1.415 . S
H460 C457 0.999 . S
H461 C442 0.913 . S
H462 C480 0.951 . S
H463 C482 0.951 . S
H464 C484 0.950 . S
H465 C485 0.950 . S
H466 C487 0.950 . S
H467 C490 0.950 . S
H468 C491 0.950 . S
H469 C493 0.950 . S
H470 C494 0.950 . S
H471 C495 0.951 . S
H472 C497 0.951 . S
H473 C499 0.950 . S
H474 C500 0.950 . S
H475 C502 0.950 . S
H476 C505 0.950 . S
H477 C506 0.950 . S
H478 C508 0.950 . S
H479 C509 0.950 . S
C480 H462 0.951 . S
C480 C481 1.366 . S
C480 C482 1.388 . S
C481 C480 1.366 . S
C481 C485 1.385 . S
C482 H463 0.951 . S
C482 C480 1.388 . S
C482 C483 1.366 . S
C483 C482 1.366 . S
C483 C484 1.414 . S
C483 C486 1.499 . S
C484 H464 0.950 . S
C484 C483 1.414 . S
C484 C485 1.374 . S
C485 H465 0.950 . S
C485 C481 1.385 . S
C485 C484 1.374 . S
C486 C483 1.499 . S
C486 C487 1.373 . S
C486 C488 1.389 1_455 S
C487 H466 0.950 . S
C487 C486 1.373 . S
C487 C503 1.377 . S
C488 C486 1.389 1_655 S
C488 C489 1.524 . S
C488 C502 1.377 . S
C489 C488 1.524 . S
C489 C490 1.397 . S
C489 C494 1.363 . S
C490 H467 0.950 . S
C490 C489 1.397 . S
C490 C491 1.334 . S
C491 H468 0.950 . S
C491 C490 1.334 . S
C491 C492 1.287 . S
C492 C491 1.287 . S
C492 C493 1.524 . S
C492 H511 0.913 . S
C493 H469 0.950 . S
C493 C492 1.524 . S
C493 C494 1.415 . S
C494 H470 0.950 . S
C494 C489 1.363 . S
C494 C493 1.415 . S
C495 H471 0.951 . S
C495 C496 1.366 . S
C495 C497 1.388 . S
C496 C495 1.366 . S
C496 C500 1.385 . S
C497 H472 0.951 . S
C497 C495 1.388 . S
C497 C498 1.366 . S
C498 C497 1.366 . S
C498 C499 1.414 . S
C498 C501 1.499 . S
C499 H473 0.950 . S
C499 C498 1.414 . S
C499 C500 1.374 . S
C500 H474 0.950 . S
C500 C496 1.385 . S
C500 C499 1.374 . S
C501 C498 1.499 . S
C501 C502 1.373 . S
C501 C503 1.389 1_655 S
C502 H475 0.950 . S
C502 C488 1.377 . S
C502 C501 1.373 . S
C503 C487 1.377 . S
C503 C501 1.389 1_455 S
C503 C504 1.524 . S
C504 C503 1.524 . S
C504 C505 1.397 . S
C504 C509 1.363 . S
C505 H476 0.950 . S
C505 C504 1.397 . S
C505 C506 1.334 . S
C506 H477 0.950 . S
C506 C505 1.334 . S
C506 C507 1.287 . S
C507 C506 1.287 . S
C507 C508 1.524 . S
C507 H510 0.999 . S
C508 H478 0.950 . S
C508 C507 1.524 . S
C508 C509 1.415 . S
C509 H479 0.950 . S
C509 C504 1.363 . S
C509 C508 1.415 . S
H510 C507 0.999 . S
H511 C492 0.913 . S
H512 C530 0.951 . S
H513 C532 0.951 . S
H514 C534 0.950 . S
H515 C535 0.950 . S
H516 C537 0.950 . S
H517 C540 0.950 . S
H518 C541 0.950 . S
H519 C543 0.950 . S
H520 C544 0.950 . S
H521 C545 0.951 . S
H522 C547 0.951 . S
H523 C549 0.950 . S
H524 C550 0.950 . S
H525 C552 0.950 . S
H526 C555 0.950 . S
H527 C556 0.950 . S
H528 C558 0.950 . S
H529 C559 0.950 . S
C530 H512 0.951 . S
C530 C531 1.366 . S
C530 C532 1.388 . S
C531 C530 1.366 . S
C531 C535 1.385 . S
C532 H513 0.951 . S
C532 C530 1.388 . S
C532 C533 1.366 . S
C533 C532 1.366 . S
C533 C534 1.414 . S
C533 C536 1.499 . S
C534 H514 0.950 . S
C534 C533 1.414 . S
C534 C535 1.374 . S
C535 H515 0.950 . S
C535 C531 1.385 . S
C535 C534 1.374 . S
C536 C533 1.499 . S
C536 C537 1.373 . S
C536 C538 1.389 . S
C537 H516 0.950 . S
C537 C536 1.373 . S
C537 C553 1.377 . S
C538 C536 1.389 . S
C538 C539 1.524 . S
C538 C552 1.377 . S
C539 C538 1.524 . S
C539 C540 1.397 . S
C539 C544 1.363 . S
C540 H517 0.950 . S
C540 C539 1.397 . S
C540 C541 1.334 . S
C541 H518 0.950 . S
C541 C540 1.334 . S
C541 C542 1.287 . S
C542 C541 1.287 . S
C542 C543 1.524 . S
C542 H561 0.913 . S
C543 H519 0.950 . S
C543 C542 1.524 . S
C543 C544 1.415 . S
C544 H520 0.950 . S
C544 C539 1.363 . S
C544 C543 1.415 . S
C545 H521 0.951 . S
C545 C546 1.366 . S
C545 C547 1.388 . S
C546 C545 1.366 . S
C546 C550 1.385 . S
C547 H522 0.951 . S
C547 C545 1.388 . S
C547 C548 1.366 . S
C548 C547 1.366 . S
C548 C549 1.414 . S
C548 C551 1.499 . S
C549 H523 0.950 . S
C549 C548 1.414 . S
C549 C550 1.374 . S
C550 H524 0.950 . S
C550 C546 1.385 . S
C550 C549 1.374 . S
C551 C548 1.499 . S
C551 C552 1.373 . S
C551 C553 1.389 . S
C552 H525 0.950 . S
C552 C538 1.377 . S
C552 C551 1.373 . S
C553 C537 1.377 . S
C553 C551 1.389 . S
C553 C554 1.524 . S
C554 C553 1.524 . S
C554 C555 1.397 . S
C554 C559 1.363 . S
C555 H526 0.950 . S
C555 C554 1.397 . S
C555 C556 1.334 . S
C556 H527 0.950 . S
C556 C555 1.334 . S
C556 C557 1.287 . S
C557 C556 1.287 . S
C557 C558 1.524 . S
C557 H560 0.999 . S
C558 H528 0.950 . S
C558 C557 1.524 . S
C558 C559 1.415 . S
C559 H529 0.950 . S
C559 C554 1.363 . S
C559 C558 1.415 . S
H560 C557 0.999 . S
H561 C542 0.913 . S
H562 C580 0.951 . S
H563 C582 0.951 . S
H564 C584 0.950 . S
H565 C585 0.950 . S
H566 C587 0.950 . S
H567 C590 0.950 . S
H568 C591 0.950 . S
H569 C593 0.950 . S
H570 C594 0.950 . S
H571 C595 0.951 . S
H572 C597 0.951 . S
H573 C599 0.950 . S
H574 C600 0.950 . S
H575 C602 0.950 . S
H576 C605 0.950 . S
H577 C606 0.950 . S
H578 C608 0.950 . S
H579 C609 0.950 . S
C580 H562 0.951 . S
C580 C581 1.366 . S
C580 C582 1.388 . S
C581 C580 1.366 . S
C581 C585 1.385 . S
C582 H563 0.951 . S
C582 C580 1.388 . S
C582 C583 1.366 . S
C583 C582 1.366 . S
C583 C584 1.414 . S
C583 C586 1.499 . S
C584 H564 0.950 . S
C584 C583 1.414 . S
C584 C585 1.374 . S
C585 H565 0.950 . S
C585 C581 1.385 . S
C585 C584 1.374 . S
C586 C583 1.499 . S
C586 C587 1.373 . S
C586 C588 1.389 . S
C587 H566 0.950 . S
C587 C586 1.373 . S
C587 C603 1.377 . S
C588 C586 1.389 . S
C588 C589 1.524 . S
C588 C602 1.377 . S
C589 C588 1.524 . S
C589 C590 1.397 . S
C589 C594 1.363 . S
C590 H567 0.950 . S
C590 C589 1.397 . S
C590 C591 1.334 . S
C591 H568 0.950 . S
C591 C590 1.334 . S
C591 C592 1.287 . S
C592 C591 1.287 . S
C592 C593 1.524 . S
C592 H611 0.913 . S
C593 H569 0.950 . S
C593 C592 1.524 . S
C593 C594 1.415 . S
C594 H570 0.950 . S
C594 C589 1.363 . S
C594 C593 1.415 . S
C595 H571 0.951 . S
C595 C596 1.366 . S
C595 C597 1.388 . S
C596 C595 1.366 . S
C596 C600 1.385 . S
C597 H572 0.951 . S
C597 C595 1.388 . S
C597 C598 1.366 . S
C598 C597 1.366 . S
C598 C599 1.414 . S
C598 C601 1.499 . S
C599 H573 0.950 . S
C599 C598 1.414 . S
C599 C600 1.374 . S
C600 H574 0.950 . S
C600 C596 1.385 . S
C600 C599 1.374 . S
C601 C598 1.499 . S
C601 C602 1.373 . S
C601 C603 1.389 . S
C602 H575 0.950 . S
C602 C588 1.377 . S
C602 C601 1.373 . S
C603 C587 1.377 . S
C603 C601 1.389 . S
C603 C604 1.524 . S
C604 C603 1.524 . S
C604 C605 1.397 . S
C604 C609 1.363 . S
C605 H576 0.950 . S
C605 C604 1.397 . S
C605 C606 1.334 . S
C606 H577 0.950 . S
C606 C605 1.334 . S
C606 C607 1.287 . S
C607 C606 1.287 . S
C607 C608 1.524 . S
C607 H610 0.999 . S
C608 H578 0.950 . S
C608 C607 1.524 . S
C608 C609 1.415 . S
C609 H579 0.950 . S
C609 C604 1.363 . S
C609 C608 1.415 . S
H610 C607 0.999 . S
H611 C592 0.913 . S
H612 C630 0.951 . S
H613 C632 0.951 . S
H614 C634 0.950 . S
H615 C635 0.950 . S
H616 C637 0.950 . S
H617 C640 0.950 . S
H618 C641 0.950 . S
H619 C643 0.950 . S
H620 C644 0.950 . S
H621 C645 0.951 . S
H622 C647 0.951 . S
H623 C649 0.950 . S
H624 C650 0.950 . S
H625 C652 0.950 . S
H626 C655 0.950 . S
H627 C656 0.950 . S
H628 C658 0.950 . S
H629 C659 0.950 . S
C630 H612 0.951 . S
C630 C631 1.366 . S
C630 C632 1.388 . S
C631 C630 1.366 . S
C631 C635 1.385 . S
C632 H613 0.951 . S
C632 C630 1.388 . S
C632 C633 1.366 . S
C633 C632 1.366 . S
C633 C634 1.414 . S
C633 C636 1.499 . S
C634 H614 0.950 . S
C634 C633 1.414 . S
C634 C635 1.374 . S
C635 H615 0.950 . S
C635 C631 1.385 . S
C635 C634 1.374 . S
C636 C633 1.499 . S
C636 C637 1.373 . S
C636 C638 1.389 . S
C637 H616 0.950 . S
C637 C636 1.373 . S
C637 C653 1.377 . S
C638 C636 1.389 . S
C638 C639 1.524 . S
C638 C652 1.377 . S
C639 C638 1.524 . S
C639 C640 1.397 . S
C639 C644 1.363 . S
C640 H617 0.950 . S
C640 C639 1.397 . S
C640 C641 1.334 . S
C641 H618 0.950 . S
C641 C640 1.334 . S
C641 C642 1.287 . S
C642 C641 1.287 . S
C642 C643 1.524 . S
C642 H661 0.913 . S
C643 H619 0.950 . S
C643 C642 1.524 . S
C643 C644 1.415 . S
C644 H620 0.950 . S
C644 C639 1.363 . S
C644 C643 1.415 . S
C645 H621 0.951 . S
C645 C646 1.366 . S
C645 C647 1.388 . S
C646 C645 1.366 . S
C646 C650 1.385 . S
C647 H622 0.951 . S
C647 C645 1.388 . S
C647 C648 1.366 . S
C648 C647 1.366 . S
C648 C649 1.414 . S
C648 C651 1.499 . S
C649 H623 0.950 . S
C649 C648 1.414 . S
C649 C650 1.374 . S
C650 H624 0.950 . S
C650 C646 1.385 . S
C650 C649 1.374 . S
C651 C648 1.499 . S
C651 C652 1.373 . S
C651 C653 1.389 . S
C652 H625 0.950 . S
C652 C638 1.377 . S
C652 C651 1.373 . S
C653 C637 1.377 . S
C653 C651 1.389 . S
C653 C654 1.524 . S
C654 C653 1.524 . S
C654 C655 1.397 . S
C654 C659 1.363 . S
C655 H626 0.950 . S
C655 C654 1.397 . S
C655 C656 1.334 . S
C656 H627 0.950 . S
C656 C655 1.334 . S
C656 C657 1.287 . S
C657 C656 1.287 . S
C657 C658 1.524 . S
C657 H660 0.999 . S
C658 H628 0.950 . S
C658 C657 1.524 . S
C658 C659 1.415 . S
C659 H629 0.950 . S
C659 C654 1.363 . S
C659 C658 1.415 . S
H660 C657 0.999 . S
H661 C642 0.913 . S
H662 C680 0.951 . S
H663 C682 0.951 . S
H664 C684 0.950 . S
H665 C685 0.950 . S
H666 C687 0.950 . S
H667 C690 0.950 . S
H668 C691 0.950 . S
H669 C693 0.950 . S
H670 C694 0.950 . S
H671 C695 0.951 . S
H672 C697 0.951 . S
H673 C699 0.950 . S
H674 C700 0.950 . S
H675 C702 0.950 . S
H676 C705 0.950 . S
H677 C706 0.950 . S
H678 C708 0.950 . S
H679 C709 0.950 . S
C680 H662 0.951 . S
C680 C681 1.366 . S
C680 C682 1.388 . S
C681 C680 1.366 . S
C681 C685 1.385 . S
C682 H663 0.951 . S
C682 C680 1.388 . S
C682 C683 1.366 . S
C683 C682 1.366 . S
C683 C684 1.414 . S
C683 C686 1.499 . S
C684 H664 0.950 . S
C684 C683 1.414 . S
C684 C685 1.374 . S
C685 H665 0.950 . S
C685 C681 1.385 . S
C685 C684 1.374 . S
C686 C683 1.499 . S
C686 C687 1.373 . S
C686 C688 1.389 . S
C687 H666 0.950 . S
C687 C686 1.373 . S
C687 C703 1.377 . S
C688 C686 1.389 . S
C688 C689 1.524 . S
C688 C702 1.377 . S
C689 C688 1.524 . S
C689 C690 1.397 . S
C689 C694 1.363 . S
C690 H667 0.950 . S
C690 C689 1.397 . S
C690 C691 1.334 . S
C691 H668 0.950 . S
C691 C690 1.334 . S
C691 C692 1.287 . S
C692 C691 1.287 . S
C692 C693 1.524 . S
C692 H711 0.913 . S
C693 H669 0.950 . S
C693 C692 1.524 . S
C693 C694 1.415 . S
C694 H670 0.950 . S
C694 C689 1.363 . S
C694 C693 1.415 . S
C695 H671 0.951 . S
C695 C696 1.366 . S
C695 C697 1.388 . S
C696 C695 1.366 . S
C696 C700 1.385 . S
C697 H672 0.951 . S
C697 C695 1.388 . S
C697 C698 1.366 . S
C698 C697 1.366 . S
C698 C699 1.414 . S
C698 C701 1.499 . S
C699 H673 0.950 . S
C699 C698 1.414 . S
C699 C700 1.374 . S
C700 H674 0.950 . S
C700 C696 1.385 . S
C700 C699 1.374 . S
C701 C698 1.499 . S
C701 C702 1.373 . S
C701 C703 1.389 . S
C702 H675 0.950 . S
C702 C688 1.377 . S
C702 C701 1.373 . S
C703 C687 1.377 . S
C703 C701 1.389 . S
C703 C704 1.524 . S
C704 C703 1.524 . S
C704 C705 1.397 . S
C704 C709 1.363 . S
C705 H676 0.950 . S
C705 C704 1.397 . S
C705 C706 1.334 . S
C706 H677 0.950 . S
C706 C705 1.334 . S
C706 C707 1.287 . S
C707 C706 1.287 . S
C707 C708 1.524 . S
C707 H710 0.999 . S
C708 H678 0.950 . S
C708 C707 1.524 . S
C708 C709 1.415 . S
C709 H679 0.950 . S
C709 C704 1.363 . S
C709 C708 1.415 . S
H710 C707 0.999 . S
H711 C692 0.913 . S
H712 C730 0.951 . S
H713 C732 0.951 . S
H714 C734 0.950 . S
H715 C735 0.950 . S
H716 C737 0.950 . S
H717 C740 0.950 . S
H718 C741 0.950 . S
H719 C743 0.950 . S
H720 C744 0.950 1_556 S
H721 C745 0.951 . S
H722 C747 0.951 . S
H723 C749 0.950 . S
H724 C750 0.950 . S
H725 C752 0.950 . S
H726 C755 0.950 . S
H727 C756 0.950 . S
H728 C758 0.950 . S
H729 C759 0.950 . S
C730 H712 0.951 . S
C730 C731 1.366 1_556 S
C730 C732 1.388 . S
C731 C730 1.366 1_554 S
C731 C735 1.385 . S
C732 H713 0.951 . S
C732 C730 1.388 . S
C732 C733 1.366 1_556 S
C733 C732 1.366 1_554 S
C733 C734 1.414 . S
C733 C736 1.499 . S
C734 H714 0.950 . S
C734 C733 1.414 . S
C734 C735 1.374 . S
C735 H715 0.950 . S
C735 C731 1.385 . S
C735 C734 1.374 . S
C736 C733 1.499 . S
C736 C737 1.373 . S
C736 C738 1.389 . S
C737 H716 0.950 . S
C737 C736 1.373 . S
C737 C753 1.377 . S
C738 C736 1.389 . S
C738 C739 1.524 . S
C738 C752 1.377 . S
C739 C738 1.524 . S
C739 C740 1.397 . S
C739 C744 1.363 . S
C740 H717 0.950 . S
C740 C739 1.397 . S
C740 C741 1.334 . S
C741 H718 0.950 . S
C741 C740 1.334 . S
C741 C742 1.287 . S
C742 C741 1.287 . S
C742 C743 1.524 . S
C742 H761 0.913 . S
C743 H719 0.950 . S
C743 C742 1.524 . S
C743 C744 1.415 . S
C744 H720 0.950 1_554 S
C744 C739 1.363 . S
C744 C743 1.415 . S
C745 H721 0.951 . S
C745 C746 1.366 . S
C745 C747 1.388 . S
C746 C745 1.366 . S
C746 C750 1.385 1_554 S
C747 H722 0.951 . S
C747 C745 1.388 . S
C747 C748 1.366 . S
C748 C747 1.366 . S
C748 C749 1.414 1_554 S
C748 C751 1.499 . S
C749 H723 0.950 . S
C749 C748 1.414 1_556 S
C749 C750 1.374 . S
C750 H724 0.950 . S
C750 C746 1.385 1_556 S
C750 C749 1.374 . S
C751 C748 1.499 . S
C751 C752 1.373 . S
C751 C753 1.389 . S
C752 H725 0.950 . S
C752 C738 1.377 . S
C752 C751 1.373 . S
C753 C737 1.377 . S
C753 C751 1.389 . S
C753 C754 1.524 1_554 S
C754 C753 1.524 1_556 S
C754 C755 1.397 . S
C754 C759 1.363 1_556 S
C755 H726 0.950 . S
C755 C754 1.397 . S
C755 C756 1.334 . S
C756 H727 0.950 . S
C756 C755 1.334 . S
C756 C757 1.287 . S
C757 C756 1.287 . S
C757 C758 1.524 1_556 S
C757 H760 0.999 . S
C758 H728 0.950 . S
C758 C757 1.524 1_554 S
C758 C759 1.415 . S
C759 H729 0.950 . S
C759 C754 1.363 1_554 S
C759 C758 1.415 . S
H760 C757 0.999 . S
H761 C742 0.913 . S
H762 C780 0.951 . S
H763 C782 0.951 . S
H764 C784 0.950 . S
H765 C785 0.950 . S
H766 C787 0.950 . S
H767 C790 0.950 . S
H768 C791 0.950 . S
H769 C793 0.950 . S
H770 C794 0.950 . S
H771 C795 0.951 . S
H772 C797 0.951 . S
H773 C799 0.950 . S
H774 C800 0.950 . S
H775 C802 0.950 . S
H776 C805 0.950 . S
H777 C806 0.950 . S
H778 C808 0.950 . S
H779 C809 0.950 . S
C780 H762 0.951 . S
C780 C781 1.366 1_556 S
C780 C782 1.388 . S
C781 C780 1.366 1_554 S
C781 C785 1.385 . S
C782 H763 0.951 . S
C782 C780 1.388 . S
C782 C783 1.366 1_556 S
C783 C782 1.366 1_554 S
C783 C784 1.414 . S
C783 C786 1.499 . S
C784 H764 0.950 . S
C784 C783 1.414 . S
C784 C785 1.374 . S
C785 H765 0.950 . S
C785 C781 1.385 . S
C785 C784 1.374 . S
C786 C783 1.499 . S
C786 C787 1.373 . S
C786 C788 1.389 . S
C787 H766 0.950 . S
C787 C786 1.373 . S
C787 C803 1.377 . S
C788 C786 1.389 . S
C788 C789 1.524 . S
C788 C802 1.377 . S
C789 C788 1.524 . S
C789 C790 1.397 . S
C789 C794 1.363 1_554 S
C790 H767 0.950 . S
C790 C789 1.397 . S
C790 C791 1.334 . S
C791 H768 0.950 . S
C791 C790 1.334 . S
C791 C792 1.287 . S
C792 C791 1.287 . S
C792 C793 1.524 1_554 S
C792 H811 0.913 . S
C793 H769 0.950 . S
C793 C792 1.524 1_556 S
C793 C794 1.415 . S
C794 H770 0.950 . S
C794 C789 1.363 1_556 S
C794 C793 1.415 . S
C795 H771 0.951 . S
C795 C796 1.366 . S
C795 C797 1.388 . S
C796 C795 1.366 . S
C796 C800 1.385 1_554 S
C797 H772 0.951 . S
C797 C795 1.388 . S
C797 C798 1.366 . S
C798 C797 1.366 . S
C798 C799 1.414 1_554 S
C798 C801 1.499 . S
C799 H773 0.950 . S
C799 C798 1.414 1_556 S
C799 C800 1.374 . S
C800 H774 0.950 . S
C800 C796 1.385 1_556 S
C800 C799 1.374 . S
C801 C798 1.499 . S
C801 C802 1.373 . S
C801 C803 1.389 . S
C802 H775 0.950 . S
C802 C788 1.377 . S
C802 C801 1.373 . S
C803 C787 1.377 . S
C803 C801 1.389 . S
C803 C804 1.524 . S
C804 C803 1.524 . S
C804 C805 1.397 1_554 S
C804 C809 1.363 . S
C805 H776 0.950 . S
C805 C804 1.397 1_556 S
C805 C806 1.334 . S
C806 H777 0.950 . S
C806 C805 1.334 . S
C806 C807 1.287 1_556 S
C807 C806 1.287 1_554 S
C807 C808 1.524 . S
C807 H810 0.999 . S
C808 H778 0.950 . S
C808 C807 1.524 . S
C808 C809 1.415 . S
C809 H779 0.950 . S
C809 C804 1.363 . S
C809 C808 1.415 . S
H810 C807 0.999 . S
H811 C792 0.913 . S
H812 C830 0.951 . S
H813 C832 0.951 . S
H814 C834 0.950 . S
H815 C835 0.950 . S
H816 C837 0.950 . S
H817 C840 0.950 . S
H818 C841 0.950 . S
H819 C843 0.950 . S
H820 C844 0.950 . S
H821 C845 0.951 . S
H822 C847 0.951 . S
H823 C849 0.950 . S
H824 C850 0.950 . S
H825 C852 0.950 . S
H826 C855 0.950 . S
H827 C856 0.950 . S
H828 C858 0.950 . S
H829 C859 0.950 . S
C830 H812 0.951 . S
C830 C831 1.366 . S
C830 C832 1.388 . S
C831 C830 1.366 . S
C831 C835 1.385 . S
C832 H813 0.951 . S
C832 C830 1.388 . S
C832 C833 1.366 . S
C833 C832 1.366 . S
C833 C834 1.414 . S
C833 C836 1.499 . S
C834 H814 0.950 . S
C834 C833 1.414 . S
C834 C835 1.374 . S
C835 H815 0.950 . S
C835 C831 1.385 . S
C835 C834 1.374 . S
C836 C833 1.499 . S
C836 C837 1.373 . S
C836 C838 1.389 . S
C837 H816 0.950 . S
C837 C836 1.373 . S
C837 C853 1.377 . S
C838 C836 1.389 . S
C838 C839 1.524 . S
C838 C852 1.377 . S
C839 C838 1.524 . S
C839 C840 1.397 . S
C839 C844 1.363 . S
C840 H817 0.950 . S
C840 C839 1.397 . S
C840 C841 1.334 . S
C841 H818 0.950 . S
C841 C840 1.334 . S
C841 C842 1.287 . S
C842 C841 1.287 . S
C842 C843 1.524 . S
C842 H861 0.913 . S
C843 H819 0.950 . S
C843 C842 1.524 . S
C843 C844 1.415 . S
C844 H820 0.950 . S
C844 C839 1.363 . S
C844 C843 1.415 . S
C845 H821 0.951 . S
C845 C846 1.366 . S
C845 C847 1.388 . S
C846 C845 1.366 . S
C846 C850 1.385 . S
C847 H822 0.951 . S
C847 C845 1.388 . S
C847 C848 1.366 . S
C848 C847 1.366 . S
C848 C849 1.414 . S
C848 C851 1.499 . S
C849 H823 0.950 . S
C849 C848 1.414 . S
C849 C850 1.374 . S
C850 H824 0.950 . S
C850 C846 1.385 . S
C850 C849 1.374 . S
C851 C848 1.499 . S
C851 C852 1.373 . S
C851 C853 1.389 . S
C852 H825 0.950 . S
C852 C838 1.377 . S
C852 C851 1.373 . S
C853 C837 1.377 . S
C853 C851 1.389 . S
C853 C854 1.524 . S
C854 C853 1.524 . S
C854 C855 1.397 . S
C854 C859 1.363 . S
C855 H826 0.950 . S
C855 C854 1.397 . S
C855 C856 1.334 . S
C856 H827 0.950 . S
C856 C855 1.334 . S
C856 C857 1.287 . S
C857 C856 1.287 . S
C857 C858 1.524 . S
C857 H860 0.999 . S
C858 H828 0.950 . S
C858 C857 1.524 . S
C858 C859 1.415 . S
C859 H829 0.950 . S
C859 C854 1.363 . S
C859 C858 1.415 . S
H860 C857 0.999 . S
H861 C842 0.913 . S
H862 C880 0.951 . S
H863 C882 0.951 . S
H864 C884 0.950 . S
H865 C885 0.950 . S
H866 C887 0.950 . S
H867 C890 0.950 . S
H868 C891 0.950 . S
H869 C893 0.950 . S
H870 C894 0.950 . S
H871 C895 0.951 . S
H872 C897 0.951 . S
H873 C899 0.950 . S
H874 C900 0.950 . S
H875 C902 0.950 . S
H876 C905 0.950 . S
H877 C906 0.950 . S
H878 C908 0.950 . S
H879 C909 0.950 . S
C880 H862 0.951 . S
C880 C881 1.366 . S
C880 C882 1.388 . S
C881 C880 1.366 . S
C881 C885 1.385 . S
C882 H863 0.951 . S
C882 C880 1.388 . S
C882 C883 1.366 . S
C883 C882 1.366 . S
C883 C884 1.414 . S
C883 C886 1.499 . S
C884 H864 0.950 . S
C884 C883 1.414 . S
C884 C885 1.374 . S
C885 H865 0.950 . S
C885 C881 1.385 . S
C885 C884 1.374 . S
C886 C883 1.499 . S
C886 C887 1.373 . S
C886 C888 1.389 . S
C887 H866 0.950 . S
C887 C886 1.373 . S
C887 C903 1.377 . S
C888 C886 1.389 . S
C888 C889 1.524 . S
C888 C902 1.377 . S
C889 C888 1.524 . S
C889 C890 1.397 . S
C889 C894 1.363 . S
C890 H867 0.950 . S
C890 C889 1.397 . S
C890 C891 1.334 . S
C891 H868 0.950 . S
C891 C890 1.334 . S
C891 C892 1.287 . S
C892 C891 1.287 . S
C892 C893 1.524 . S
C892 H911 0.913 . S
C893 H869 0.950 . S
C893 C892 1.524 . S
C893 C894 1.415 . S
C894 H870 0.950 . S
C894 C889 1.363 . S
C894 C893 1.415 . S
C895 H871 0.951 . S
C895 C896 1.366 . S
C895 C897 1.388 . S
C896 C895 1.366 . S
C896 C900 1.385 . S
C897 H872 0.951 . S
C897 C895 1.388 . S
C897 C898 1.366 . S
C898 C897 1.366 . S
C898 C899 1.414 . S
C898 C901 1.499 . S
C899 H873 0.950 . S
C899 C898 1.414 . S
C899 C900 1.374 . S
C900 H874 0.950 . S
C900 C896 1.385 . S
C900 C899 1.374 . S
C901 C898 1.499 . S
C901 C902 1.373 . S
C901 C903 1.389 . S
C902 H875 0.950 . S
C902 C888 1.377 . S
C902 C901 1.373 . S
C903 C887 1.377 . S
C903 C901 1.389 . S
C903 C904 1.524 . S
C904 C903 1.524 . S
C904 C905 1.397 . S
C904 C909 1.363 . S
C905 H876 0.950 . S
C905 C904 1.397 . S
C905 C906 1.334 . S
C906 H877 0.950 . S
C906 C905 1.334 . S
C906 C907 1.287 . S
C907 C906 1.287 . S
C907 C908 1.524 . S
C907 H910 0.999 . S
C908 H878 0.950 . S
C908 C907 1.524 . S
C908 C909 1.415 . S
C909 H879 0.950 . S
C909 C904 1.363 . S
C909 C908 1.415 . S
H910 C907 0.999 . S
H911 C892 0.913 . S
C131 C19 1.504 . S
C146 C5 1.504 . S
C181 C33 1.504 . S
C196 C47 1.504 . S
C231 C61 1.504 . S
C246 C75 1.504 . S
C281 C89 1.504 . S
C296 C103 1.504 . S
C331 C9 1.148 . S
C346 C51 1.148 . S
C381 C37 1.148 . S
C396 C23 1.149 . S
C431 C28 1.178 . S
C446 C14 1.179 . S
C481 C0 1.178 . S
C496 C42 1.178 . S
C531 C65 1.148 . S
C546 C107 1.148 . S
C581 C93 1.148 . S
C596 C79 1.148 . S
C631 C70 1.178 . S
C646 C84 1.178 . S
C681 C56 1.179 . S
C696 C98 1.178 . S
C731 C81 1.510 . S
C746 C11 1.510 . S
C781 C67 1.510 . S
C796 C25 1.510 . S
C831 C39 1.510 . S
C846 C109 1.510 . S
C881 C95 1.510 . S
C896 C53 1.510 . S
