# Generated by pormake.
# Topology smk, (6)-cn, num edge types: 1
# Building blocks:
#     Node 0, Type 0, BuildingBlock: FUNLAD_clean_sbu_0, # of connection points: 6
#     Node 1, Type 0, BuildingBlock: FUNLAD_clean_sbu_0, # of connection points: 6
#     Node 2, Type 0, BuildingBlock: FUNLAD_clean_sbu_0, # of connection points: 6
#     Node 3, Type 0, BuildingBlock: FUNLAD_clean_sbu_0, # of connection points: 6
#     Node 4, Type 0, BuildingBlock: FUNLAD_clean_sbu_0, # of connection points: 6
#     Node 5, Type 0, BuildingBlock: FUNLAD_clean_sbu_0, # of connection points: 6
#     Edge 6, Type (0, 0), BuildingBlock: KIFKEQ_clean_linker_1, # of connection points: 2
#     Edge 7, Type (0, 0), BuildingBlock: KIFKEQ_clean_linker_1, # of connection points: 2
#     Edge 8, Type (0, 0), BuildingBlock: KIFKEQ_clean_linker_1, # of connection points: 2
#     Edge 9, Type (0, 0), BuildingBlock: KIFKEQ_clean_linker_1, # of connection points: 2
#     Edge 10, Type (0, 0), BuildingBlock: KIFKEQ_clean_linker_1, # of connection points: 2
#     Edge 11, Type (0, 0), BuildingBlock: KIFKEQ_clean_linker_1, # of connection points: 2
#     Edge 12, Type (0, 0), BuildingBlock: KIFKEQ_clean_linker_1, # of connection points: 2
#     Edge 13, Type (0, 0), BuildingBlock: KIFKEQ_clean_linker_1, # of connection points: 2
#     Edge 14, Type (0, 0), BuildingBlock: KIFKEQ_clean_linker_1, # of connection points: 2
#     Edge 15, Type (0, 0), BuildingBlock: KIFKEQ_clean_linker_1, # of connection points: 2
#     Edge 16, Type (0, 0), BuildingBlock: KIFKEQ_clean_linker_1, # of connection points: 2
#     Edge 17, Type (0, 0), BuildingBlock: KIFKEQ_clean_linker_1, # of connection points: 2
#     Edge 18, Type (0, 0), BuildingBlock: KIFKEQ_clean_linker_1, # of connection points: 2
#     Edge 19, Type (0, 0), BuildingBlock: KIFKEQ_clean_linker_1, # of connection points: 2
#     Edge 20, Type (0, 0), BuildingBlock: KIFKEQ_clean_linker_1, # of connection points: 2
#     Edge 21, Type (0, 0), BuildingBlock: KIFKEQ_clean_linker_1, # of connection points: 2
#     Edge 22, Type (0, 0), BuildingBlock: KIFKEQ_clean_linker_1, # of connection points: 2
#     Edge 23, Type (0, 0), BuildingBlock: KIFKEQ_clean_linker_1, # of connection points: 2
# Relax obj value: 0.409
# Max RMSD: 0.247
# Mean RMSD: 0.247
data_MOF--net-smk--node1-FUNLAD_clean_sbu_0--edge1-KIFKEQ_clean_linker_1
_symmetry_space_group_name_H-M    P1
_symmetry_Int_Tables_number       1
_symmetry_cell_setting            triclinic
loop_
_symmetry_equiv_pos_as_xyz
'x, y, z'
_cell_length_a     48.734129
_cell_length_b     48.63849
_cell_length_c     15.435257
_cell_angle_alpha  89.791481
_cell_angle_beta   89.892898
_cell_angle_gamma 119.98982
loop_
_atom_site_label
_atom_site_type_symbol
_atom_site_fract_x
_atom_site_fract_y
_atom_site_fract_z
_atom_type_partial_charge
C0 C 0.48358 0.2882 0.40967 0.0
N1 N 0.5462 0.35656 0.57521 0.0
C2 C 0.56938 0.35629 0.5264 0.0
C3 C 0.59696 0.38429 0.50583 0.0
C4 C 0.60094 0.41341 0.53364 0.0
C5 C 0.5768 0.41347 0.58357 0.0
C6 C 0.54948 0.38449 0.60439 0.0
Zn7 Zn 0.5051 0.31281 0.58497 0.0
C8 C 0.44632 0.31785 0.5858 0.0
N9 N 0.42176 0.2198 0.58226 0.0
C10 C 0.42449 0.20082 0.52224 0.0
C11 C 0.39523 0.20869 0.6325 0.0
C12 C 0.37015 0.17734 0.62246 0.0
C13 C 0.37256 0.15787 0.55946 0.0
C14 C 0.40008 0.16992 0.50931 0.0
Zn15 Zn 0.46085 0.26494 0.58709 0.0
O16 O 0.50549 0.31124 0.45017 0.0
C17 C 0.52008 0.26052 0.59728 0.0
O18 O 0.46146 0.2655 0.45147 0.0
H19 H 0.39352 0.22401 0.68019 0.0
H20 H 0.56615 0.33438 0.49976 0.0
H21 H 0.4458 0.20957 0.48374 0.0
O22 O 0.5326 0.29043 0.59316 0.0
O23 O 0.49013 0.24342 0.5932 0.0
H24 H 0.53061 0.38443 0.64154 0.0
O25 O 0.46118 0.26587 0.7215 0.0
O26 O 0.50392 0.31361 0.72024 0.0
O27 O 0.43243 0.28757 0.58632 0.0
O28 O 0.47645 0.33393 0.58151 0.0
C29 C 0.48241 0.28988 0.76177 0.0
H30 H 0.61459 0.3832 0.46536 0.0
H31 H 0.57897 0.43557 0.6057 0.0
H32 H 0.34915 0.16853 0.66262 0.0
H33 H 0.40281 0.15537 0.46089 0.0
C34 C 0.30371 0.48165 0.86095 0.0
N35 N 0.37416 0.54202 0.69501 0.0
C36 C 0.37415 0.56516 0.74451 0.0
C37 C 0.40216 0.59271 0.76376 0.0
C38 C 0.43105 0.59667 0.7341 0.0
C39 C 0.43095 0.5725 0.68419 0.0
C40 C 0.40191 0.54519 0.66457 0.0
Zn41 Zn 0.32989 0.5017 0.68516 0.0
C42 C 0.33236 0.44142 0.69132 0.0
N43 N 0.23558 0.42033 0.68945 0.0
C44 C 0.21583 0.42625 0.73835 0.0
C45 C 0.22487 0.39143 0.65169 0.0
C46 C 0.19299 0.36744 0.66188 0.0
C47 C 0.17224 0.37369 0.71023 0.0
C48 C 0.18417 0.40343 0.74903 0.0
Zn49 Zn 0.28136 0.45847 0.68417 0.0
O50 O 0.32805 0.50154 0.8195 0.0
C51 C 0.27996 0.51947 0.66541 0.0
O52 O 0.27983 0.46095 0.82005 0.0
H53 H 0.24094 0.38698 0.61381 0.0
H54 H 0.35242 0.562 0.77228 0.0
H55 H 0.2246 0.44888 0.76992 0.0
O56 O 0.30943 0.53094 0.67602 0.0
O57 O 0.26202 0.48954 0.66721 0.0
H58 H 0.40164 0.52633 0.62701 0.0
O59 O 0.28412 0.4569 0.5497 0.0
O60 O 0.33091 0.50086 0.55014 0.0
O61 O 0.30222 0.42851 0.69462 0.0
O62 O 0.34932 0.47157 0.68925 0.0
C63 C 0.30794 0.47859 0.50902 0.0
H64 H 0.4013 0.61044 0.80416 0.0
H65 H 0.45295 0.57472 0.66087 0.0
H66 H 0.18453 0.34462 0.63122 0.0
H67 H 0.16906 0.40899 0.78795 0.0
C68 C 0.81283 0.23517 0.7251 0.0
N69 N 0.74078 0.22253 0.88782 0.0
C70 C 0.74057 0.24536 0.83689 0.0
C71 C 0.71231 0.24241 0.80775 0.0
C72 C 0.6835 0.21557 0.83007 0.0
C73 C 0.68384 0.19295 0.88644 0.0
C74 C 0.71307 0.19681 0.91431 0.0
Zn75 Zn 0.78539 0.22758 0.9005 0.0
C76 C 0.78454 0.16584 0.89381 0.0
N77 N 0.88061 0.24298 0.89888 0.0
C78 C 0.9001 0.26827 0.84801 0.0
C79 C 0.89166 0.22549 0.93941 0.0
C80 C 0.92364 0.2337 0.92999 0.0
C81 C 0.94413 0.26032 0.87951 0.0
C82 C 0.93185 0.27743 0.83798 0.0
Zn83 Zn 0.83455 0.23452 0.90233 0.0
O84 O 0.78891 0.23206 0.76584 0.0
C85 C 0.83426 0.29587 0.92064 0.0
O86 O 0.83587 0.23663 0.76669 0.0
H87 H 0.87578 0.20524 -0.0212 0.0
H88 H 0.76247 0.26527 0.814 0.0
H89 H 0.89105 0.28154 0.81422 0.0
O90 O 0.80472 0.27684 0.91533 0.0
O91 O 0.85306 0.28503 0.91345 0.0
H92 H 0.71359 0.17861 0.95356 0.0
O93 O 0.83211 0.23197 0.03622 0.0
O94 O 0.78295 0.22316 0.03616 0.0
O95 O 0.81456 0.1838 0.89784 0.0
O96 O 0.76692 0.17823 0.88996 0.0
C97 C 0.80729 0.22691 0.07713 0.0
H98 H 0.71308 0.26062 0.76544 0.0
H99 H 0.66199 0.17191 0.90516 0.0
H100 H 0.93234 0.21987 -0.03723 0.0
H101 H 0.94673 0.29775 0.79727 0.0
C102 C 0.62563 0.86252 0.20192 0.0
N103 N 0.56411 0.87059 0.03618 0.0
C104 C 0.54101 0.84644 0.08383 0.0
C105 C 0.51261 0.84546 0.10183 0.0
C106 C 0.50765 0.86987 0.07258 0.0
C107 C 0.53183 0.89499 0.02463 0.0
C108 C 0.56005 0.89476 0.0064 0.0
Zn109 Zn 0.60544 0.86833 0.02652 0.0
C110 C 0.66457 0.93087 0.02955 0.0
N111 N 0.68739 0.85665 0.02867 0.0
C112 C 0.68553 0.83528 0.08905 0.0
C113 C 0.71372 0.87282 -0.02197 0.0
C114 C 0.73956 0.86779 -0.01187 0.0
C115 C 0.73823 0.84652 0.05205 0.0
C116 C 0.71082 0.83014 0.10246 0.0
Zn117 Zn 0.64821 0.86234 0.02462 0.0
O118 O 0.60423 0.86458 0.16125 0.0
C119 C 0.5891 0.80008 0.00946 0.0
O120 O 0.64753 0.8616 0.16025 0.0
H121 H 0.71474 0.88963 0.93021 0.0
H122 H 0.54477 0.82808 0.11075 0.0
H123 H 0.66433 0.82212 0.12772 0.0
O124 O 0.57777 0.81852 0.01301 0.0
O125 O 0.61879 0.81168 0.01754 0.0
H126 H 0.57884 0.91412 -0.02982 0.0
O127 O 0.64803 0.86365 0.89043 0.0
O128 O 0.60744 0.87207 0.89108 0.0
O129 O 0.67685 0.91308 0.02588 0.0
O130 O 0.63455 0.91827 0.03501 0.0
C131 C 0.62804 0.86837 0.84981 0.0
H132 H 0.49494 0.82607 0.14079 0.0
H133 H 0.52889 0.91441 0.00151 0.0
H134 H 0.76039 0.8806 0.94761 0.0
H135 H 0.70882 0.81316 0.15128 0.0
C136 C 0.86281 0.61514 0.05699 0.0
N137 N 0.87294 0.55506 0.2236 0.0
C138 C 0.84911 0.5314 0.17735 0.0
C139 C 0.84933 0.5036 0.159 0.0
C140 C 0.87467 0.49993 0.18625 0.0
C141 C 0.89935 0.52461 0.23311 0.0
C142 C 0.89787 0.55214 0.2519 0.0
Zn143 Zn 0.8698 0.59588 0.2322 0.0
C144 C 0.93197 0.65532 0.22326 0.0
N145 N 0.85759 0.67763 0.22918 0.0
C146 C 0.83503 0.67497 0.17247 0.0
C147 C 0.87531 0.70493 0.27436 0.0
C148 C 0.87079 0.73104 0.26193 0.0
C149 C 0.84837 0.72894 0.20126 0.0
C150 C 0.83027 0.70046 0.15688 0.0
Zn151 Zn 0.86355 0.63857 0.23431 0.0
O152 O 0.86683 0.59495 0.09824 0.0
C153 C 0.80169 0.57875 0.25394 0.0
O154 O 0.86023 0.63623 0.09806 0.0
H155 H 0.89313 0.7066 0.31911 0.0
H156 H 0.83019 0.53433 0.15132 0.0
H157 H 0.82083 0.65308 0.13783 0.0
O158 O 0.8202 0.56767 0.24546 0.0
O159 O 0.81306 0.60859 0.24926 0.0
H160 H 0.91696 0.57139 0.28695 0.0
O161 O 0.86735 0.64 0.36873 0.0
O162 O 0.87286 0.59755 0.36726 0.0
O163 O 0.91428 0.66773 0.22528 0.0
O164 O 0.91935 0.62523 0.22294 0.0
C165 C 0.87092 0.6191 0.40888 0.0
H166 H 0.83023 0.48548 0.12087 0.0
H167 H 0.91945 0.52265 0.25458 0.0
H168 H 0.885 0.75274 0.29768 0.0
H169 H 0.81245 0.69791 0.11061 0.0
C170 C 0.23539 0.80023 0.50728 0.0
N171 N 0.22439 0.72957 0.34056 0.0
C172 C 0.20421 0.70964 0.40239 0.0
C173 C 0.20525 0.68258 0.42753 0.0
C174 C 0.22718 0.67568 0.38853 0.0
C175 C 0.24596 0.69533 0.32001 0.0
C176 C 0.24429 0.72234 0.29722 0.0
Zn177 Zn 0.22974 0.7743 0.33244 0.0
C178 C 0.16772 0.77256 0.33441 0.0
N179 N 0.24272 0.86854 0.33378 0.0
C180 C 0.26752 0.89306 0.29182 0.0
C181 C 0.2245 0.87394 0.39042 0.0
C182 C 0.23189 0.90489 0.41019 0.0
C183 C 0.2586 0.93079 0.37233 0.0
C184 C 0.27595 0.92447 0.31035 0.0
Zn185 Zn 0.23634 0.82333 0.32981 0.0
O186 O 0.23111 0.77585 0.46672 0.0
C187 C 0.29805 0.82392 0.31843 0.0
O188 O 0.23887 0.82425 0.46555 0.0
H189 H 0.2051 0.85425 0.42398 0.0
H190 H 0.18875 0.71586 0.43681 0.0
H191 H 0.28186 0.88839 0.24735 0.0
O192 O 0.27935 0.79425 0.32691 0.0
O193 O 0.28675 0.84252 0.32 0.0
H194 H 0.2602 0.73847 0.24839 0.0
O195 O 0.23382 0.82161 0.19537 0.0
O196 O 0.22867 0.77382 0.19713 0.0
O197 O 0.1856 0.80262 0.33442 0.0
O198 O 0.18017 0.75499 0.33526 0.0
C199 C 0.23084 0.79745 0.15532 0.0
H200 H 0.19048 0.6685 0.48111 0.0
H201 H 0.26276 0.69065 0.28666 0.0
H202 H 0.21736 0.90843 0.45689 0.0
H203 H 0.29688 0.94352 0.2798 0.0
H204 H 0.43405 0.25183 0.30418 0.0
H205 H 0.53298 0.3245 0.30221 0.0
H206 H 0.43348 0.25293 0.14669 0.0
H207 H 0.53281 0.32465 0.14454 0.0
H208 H 0.51227 0.34084 0.8683 0.0
H209 H 0.51211 0.34047 0.02612 0.0
H210 H 0.45354 0.23813 0.02555 0.0
H211 H 0.45262 0.23869 0.86819 0.0
C212 C 0.45574 0.26778 0.2699 0.0
C213 C 0.48354 0.28812 0.31492 0.0
C214 C 0.45547 0.26831 0.17984 0.0
C215 C 0.48311 0.28887 0.13343 0.0
C216 C 0.51101 0.30897 0.17868 0.0
C217 C 0.51117 0.30874 0.26877 0.0
C218 C 0.49934 0.31833 0.90215 0.0
C219 C 0.48239 0.28982 0.85652 0.0
C220 C 0.49939 0.31808 -0.0077 0.0
C221 C 0.48284 0.28926 0.03802 0.0
C222 C 0.46604 0.26075 -0.00793 0.0
C223 C 0.46563 0.26105 0.90206 0.0
H224 H 0.27202 0.42918 0.40213 0.0
H225 H 0.34397 0.5285 0.40268 0.0
H226 H 0.271 0.43007 0.24444 0.0
H227 H 0.34202 0.52977 0.24548 0.0
H228 H 0.35499 0.51215 -0.03514 0.0
H229 H 0.35627 0.51068 0.12184 0.0
H230 H 0.25426 0.45107 0.12836 0.0
H231 H 0.25315 0.45144 -0.02959 0.0
C232 C 0.28751 0.4512 0.36841 0.0
C233 C 0.30815 0.47874 0.41419 0.0
C234 C 0.28675 0.45178 0.27832 0.0
C235 C 0.30633 0.48002 0.23273 0.0
C236 C 0.32701 0.50753 0.27879 0.0
C237 C 0.32808 0.50683 0.36874 0.0
C238 C 0.33282 0.49882 -0.00016 0.0
C239 C 0.30396 0.48187 0.9558 0.0
C240 C 0.33355 0.4981 0.08976 0.0
C241 C 0.30537 0.48079 0.13734 0.0
C242 C 0.27641 0.46419 0.09324 0.0
C243 C 0.27573 0.46456 0.00304 0.0
H244 H 0.75671 0.20411 0.18757 0.0
H245 H 0.859 0.2509 0.18016 0.0
H246 H 0.75821 0.206 0.34556 0.0
H247 H 0.86061 0.25404 0.3369 0.0
H248 H 0.77463 0.24565 0.6185 0.0
H249 H 0.77324 0.2436 0.4609 0.0
H250 H 0.84873 0.22122 0.46133 0.0
H251 H 0.85101 0.22466 0.61849 0.0
C252 C 0.77945 0.21488 0.21978 0.0
C253 C 0.8077 0.2272 0.17201 0.0
C254 C 0.78036 0.21618 0.30998 0.0
C255 C 0.80955 0.2302 0.3535 0.0
C256 C 0.83774 0.24256 0.30534 0.0
C257 C 0.83681 0.24086 0.21552 0.0
C258 C 0.79104 0.24051 0.58465 0.0
C259 C 0.81299 0.23539 0.63026 0.0
C260 C 0.79006 0.23906 0.49461 0.0
C261 C 0.81075 0.23209 0.44886 0.0
C262 C 0.8328 0.22712 0.49474 0.0
C263 C 0.83407 0.22901 0.58467 0.0
H264 H 0.67466 0.87396 0.30759 0.0
H265 H 0.57679 0.85122 0.30937 0.0
H266 H 0.67566 0.87661 0.46487 0.0
H267 H 0.57735 0.85253 0.46705 0.0
H268 H 0.59979 0.89101 0.74125 0.0
H269 H 0.59954 0.88986 0.58333 0.0
H270 H 0.65485 0.84268 0.58807 0.0
H271 H 0.6562 0.84505 0.74511 0.0
C272 C 0.65326 0.86914 0.3418 0.0
C273 C 0.62567 0.86243 0.29671 0.0
C274 C 0.65379 0.87054 0.43177 0.0
C275 C 0.62658 0.8648 0.47815 0.0
C276 C 0.59883 0.85763 0.4329 0.0
C277 C 0.59844 0.85664 0.34282 0.0
C278 C 0.61197 0.88054 0.70825 0.0
C279 C 0.62811 0.86824 0.75499 0.0
C280 C 0.61167 0.87968 0.61808 0.0
C281 C 0.62715 0.86614 0.5735 0.0
C282 C 0.64319 0.85378 0.62058 0.0
C283 C 0.64385 0.85502 0.71049 0.0
H284 H 0.85801 0.56932 0.51454 0.0
H285 H 0.88353 0.66818 0.51626 0.0
H286 H 0.8545 0.56774 0.67173 0.0
H287 H 0.88147 0.66707 0.67397 0.0
H288 H 0.84228 0.64524 0.94795 0.0
H289 H 0.84399 0.6458 0.79 0.0
H290 H 0.88701 0.58662 0.79583 0.0
H291 H 0.88392 0.58488 0.95276 0.0
C292 C 0.86337 0.59084 0.54878 0.0
C293 C 0.87105 0.61887 0.50368 0.0
C294 C 0.86144 0.58997 0.63874 0.0
C295 C 0.86768 0.61728 0.68516 0.0
C296 C 0.87593 0.64549 0.63987 0.0
C297 C 0.87738 0.64621 0.54977 0.0
C298 C 0.85189 0.63223 0.91513 0.0
C299 C 0.86286 0.61494 -0.03785 0.0
C300 C 0.8531 0.63273 0.82493 0.0
C301 C 0.86572 0.61632 0.78059 0.0
C302 C 0.87664 0.59904 0.82801 0.0
C303 C 0.875 0.59815 0.91791 0.0
H304 H 0.24334 0.76047 0.04978 0.0
H305 H 0.21864 0.83437 0.04791 0.0
H306 H 0.24568 0.76192 0.89229 0.0
H307 H 0.21961 0.83489 0.89027 0.0
H308 H 0.25694 0.85114 0.61456 0.0
H309 H 0.25638 0.85045 0.77244 0.0
H310 H 0.21159 0.748 0.77033 0.0
H311 H 0.21345 0.74886 0.6131 0.0
C312 C 0.23802 0.77671 0.0155 0.0
C313 C 0.23082 0.79731 0.06056 0.0
C314 C 0.23925 0.77748 0.92544 0.0
C315 C 0.23284 0.79853 0.87905 0.0
C316 C 0.22524 0.81884 0.92435 0.0
C317 C 0.22445 0.81839 0.01444 0.0
C318 C 0.24712 0.82855 0.64811 0.0
C319 C 0.23534 0.80008 0.60206 0.0
C320 C 0.2466 0.82811 0.7383 0.0
C321 C 0.2339 0.79916 0.78362 0.0
C322 C 0.22204 0.77071 0.73722 0.0
C323 C 0.22296 0.77119 0.64724 0.0
H324 H 0.3319 0.13529 0.42435 0.0
H325 H 0.35871 0.10612 0.65793 0.0
H326 H 0.29897 0.0798 0.38192 0.0
H327 H 0.32696 0.0506 0.61472 0.0
H328 H 0.28613 0.98593 0.27581 0.0
H329 H 0.30863 0.04012 0.3273 0.0
H330 H 0.27727 1.00509 0.58737 0.0
H331 H 0.2566 0.95105 0.53689 0.0
C332 C 0.33002 0.1168 0.46752 0.0
C333 C 0.34735 0.12474 0.54484 0.0
C334 C 0.31159 0.08505 0.44276 0.0
C335 C 0.31057 0.06056 0.49411 0.0
C336 C 0.32677 0.06864 0.57384 0.0
C337 C 0.34494 0.10043 0.59895 0.0
C338 C 0.28411 0.98973 0.34404 0.0
C339 C 0.26961 0.96392 0.40196 0.0
C340 C 0.29663 0.0209 0.37355 0.0
C341 C 0.29483 0.02718 0.46179 0.0
C342 C 0.27948 1.00131 0.51923 0.0
C343 C 0.26716 0.97017 0.48984 0.0
H344 H 0.46964 0.37838 0.64044 0.0
H345 H 0.3823 0.29546 0.5647 0.0
H346 H 0.44133 0.40616 0.67168 0.0
H347 H 0.35372 0.32419 0.59123 0.0
H348 H 0.30761 0.37708 0.71882 0.0
H349 H 0.33403 0.34613 0.69416 0.0
H350 H 0.41783 0.43131 0.60632 0.0
H351 H 0.39236 0.46195 0.63559 0.0
C352 C 0.44435 0.36623 0.6287 0.0
C353 C 0.42833 0.33477 0.59897 0.0
C354 C 0.428 0.38231 0.64634 0.0
C355 C 0.39511 0.36779 0.63295 0.0
C356 C 0.37895 0.33618 0.60321 0.0
C357 C 0.39536 0.31976 0.58708 0.0
C358 C 0.33183 0.38911 0.69535 0.0
C359 C 0.34799 0.42208 0.68054 0.0
C360 C 0.34692 0.37133 0.68027 0.0
C361 C 0.37833 0.38609 0.6488 0.0
C362 C 0.39407 0.41902 0.63298 0.0
C363 C 0.37931 0.43672 0.64948 0.0
H364 H 0.99282 0.31886 0.91407 0.0
H365 H 0.97248 0.22734 0.81865 0.0
H366 H 0.04782 0.34167 0.86838 0.0
H367 H 0.02818 0.2504 0.77216 0.0
H368 H 0.14423 0.31355 0.78057 0.0
H369 H 0.08849 0.28136 0.82739 0.0
H370 H 0.06832 0.3504 0.7128 0.0
H371 H 0.12338 0.38217 0.6669 0.0
C372 C 1.00036 0.3035 0.88473 0.0
C373 C 0.97839 0.27145 0.86914 0.0
C374 C 0.03177 0.31658 0.85801 0.0
C375 C 0.04209 0.29797 0.81482 0.0
C376 C 1.02079 0.26529 0.80492 0.0
C377 C 0.98905 0.2521 0.83181 0.0
C378 C 0.12753 0.3212 0.76344 0.0
C379 C 0.13803 0.3504 0.72078 0.0
C380 C 0.09577 0.30293 0.79052 0.0
C381 C 0.07431 0.31379 0.77547 0.0
C382 C 0.08449 0.34179 0.72708 0.0
C383 C 0.11592 0.35986 0.70021 0.0
H384 H 0.72688 0.96483 -0.02115 0.0
H385 H 0.64736 0.97593 0.05186 0.0
H386 H 0.75727 0.02111 0.94098 0.0
H387 H 0.67796 0.03221 0.01693 0.0
H388 H 0.72355 0.1213 0.85761 0.0
H389 H 0.69642 0.06497 0.89201 0.0
H390 H 0.78367 0.07482 -0.00816 0.0
H391 H 0.81114 0.1313 0.95449 0.0
C392 C 0.71608 0.97939 -0.01158 0.0
C393 C 0.68459 0.96578 0.01802 0.0
C394 C 0.73354 1.01172 -0.0333 0.0
C395 C 0.71999 0.03126 -0.02554 0.0
C396 C 0.68896 0.01782 0.00771 0.0
C397 C 0.67146 0.98553 0.02874 0.0
C398 C 0.7371 0.1114 0.8858 0.0
C399 C 0.76952 0.13087 0.90349 0.0
C400 C 0.72143 0.07909 0.90654 0.0
C401 C 0.73761 0.0653 0.94653 0.0
C402 C 0.7704 0.08451 -0.03908 0.0
C403 C 0.7862 0.11692 0.93939 0.0
H404 H 0.82359 0.75476 0.31026 0.0
H405 H 0.85923 0.76177 0.05069 0.0
H406 H 0.8036 0.79013 0.271 0.0
H407 H 0.84096 0.79864 0.01157 0.0
H408 H 0.75886 0.81688 0.94312 0.0
H409 H 0.79251 0.79473 -0.01975 0.0
H410 H 0.81001 0.83924 0.2319 0.0
H411 H 0.7748 0.85973 0.19534 0.0
C412 C 0.82812 0.7649 0.24562 0.0
C413 C 0.84287 0.75568 0.18346 0.0
C414 C 0.81675 0.78528 0.22281 0.0
C415 C 0.82027 0.79717 0.13747 0.0
C416 C 0.83707 0.78946 0.07718 0.0
C417 C 0.84791 0.76867 0.09969 0.0
C418 C 0.77066 0.82254 0.00533 0.0
C419 C 0.76441 0.83997 0.06634 0.0
C420 C 0.79004 0.80991 0.02693 0.0
C421 C 0.80387 0.81479 0.10981 0.0
C422 C 0.79925 0.83426 0.16838 0.0
C423 C 0.77944 0.84639 0.14719 0.0
H424 H 0.97611 0.63804 0.18888 0.0
H425 H 0.96689 0.71744 0.27483 0.0
H426 H 0.03271 0.66802 0.21629 0.0
H427 H 1.02363 0.74725 0.30552 0.0
H428 H 0.1232 0.71094 0.36596 0.0
H429 H 0.06674 0.6847 0.337 0.0
H430 H 0.0767 0.77377 0.24946 0.0
H431 H 0.13335 0.80033 0.28169 0.0
C432 C 0.98622 0.66201 0.21333 0.0
C433 C 0.96692 0.67527 0.22994 0.0
C434 C 1.0187 0.67914 0.23001 0.0
C435 C 0.03282 0.70992 0.26494 0.0
C436 C 1.01371 0.7237 0.27839 0.0
C437 C 0.98113 0.7066 0.26079 0.0
C438 C 0.11333 0.72504 0.34139 0.0
C439 C 0.13284 0.75772 0.3258 0.0
C440 C 0.08092 0.70991 0.32383 0.0
C441 C 0.06709 0.72691 0.28907 0.0
C442 C 0.08642 0.75988 0.27641 0.0
C443 C 0.11893 0.77514 0.29488 0.0
H444 H 0.60521 0.46603 0.45369 0.0
H445 H 0.66183 0.4269 0.54844 0.0
H446 H 0.65217 0.50882 0.38044 0.0
H447 H 0.7083 0.46921 0.47607 0.0
H448 H 0.76923 0.51444 0.24407 0.0
H449 H 0.71982 0.47791 0.31634 0.0
H450 H 0.70955 0.55662 0.40257 0.0
H451 H 0.75948 0.59367 0.3293 0.0
C452 C 0.62783 0.4671 0.46078 0.0
C453 C 0.62986 0.44299 0.50589 0.0
C454 C 0.65461 0.49143 0.41855 0.0
C455 C 0.68368 0.49186 0.42074 0.0
C456 C 0.68603 0.46903 0.47125 0.0
C457 C 0.65949 0.44494 0.51322 0.0
C458 C 0.75626 0.52407 0.27704 0.0
C459 C 0.76852 0.55702 0.28168 0.0
C460 C 0.72803 0.50311 0.31909 0.0
C461 C 0.71124 0.51445 0.367 0.0
C462 C 0.72212 0.54724 0.36655 0.0
C463 C 0.75062 0.5684 0.3243 0.0
H464 H 0.22419 0.50384 0.58335 0.0
H465 H 0.30909 0.58358 0.68492 0.0
H466 H 0.2098 0.5403 0.5153 0.0
H467 H 0.29431 0.61989 0.61973 0.0
H468 H 0.2836 0.67678 0.40653 0.0
H469 H 0.29352 0.63804 0.47728 0.0
H470 H 0.19356 0.57928 0.53202 0.0
H471 H 0.18331 0.61735 0.45633 0.0
C472 C 0.23935 0.52911 0.59306 0.0
C473 C 0.2679 0.54082 0.63899 0.0
C474 C 0.23114 0.55006 0.5539 0.0
C475 C 0.25122 0.58314 0.56038 0.0
C476 C 0.27874 0.59464 0.61103 0.0
C477 C 0.28705 0.57378 0.64937 0.0
C478 C 0.26355 0.6553 0.43169 0.0
C479 C 0.23261 0.65034 0.42536 0.0
C480 C 0.26934 0.63328 0.47399 0.0
C481 C 0.24443 0.60571 0.51201 0.0
C482 C 0.21334 0.6002 0.5036 0.0
C483 C 0.2075 0.62222 0.46075 0.0
H484 H 0.62775 0.2029 0.90953 0.0
H485 H 0.67315 0.21952 0.65933 0.0
H486 H 0.5842 0.20726 0.8435 0.0
H487 H 0.63001 0.22383 0.59376 0.0
H488 H 0.58284 0.28625 0.56286 0.0
H489 H 0.61824 0.26796 0.61383 0.0
H490 H 0.53904 0.18567 0.73059 0.0
H491 H 0.50326 0.20398 0.67849 0.0
C492 C 0.62796 0.2066 0.84024 0.0
C493 C 0.65403 0.21143 0.78978 0.0
C494 C 0.60309 0.20909 0.8024 0.0
C495 C 0.60401 0.21643 0.71367 0.0
C496 C 0.62893 0.21876 0.66249 0.0
C497 C 0.65359 0.21625 0.70005 0.0
C498 C 0.57284 0.26392 0.59788 0.0
C499 C 0.54028 0.24652 0.61643 0.0
C500 C 0.59311 0.25338 0.62695 0.0
C501 C 0.58142 0.22536 0.67633 0.0
C502 C 0.5487 0.2074 0.69298 0.0
C503 C 0.52823 0.21773 0.66248 0.0
H504 H 0.52475 0.76747 0.00742 0.0
H505 H 0.60601 0.75749 0.94784 0.0
H506 H 0.49043 0.7175 0.93551 0.0
H507 H 0.57121 0.707 0.87503 0.0
H508 H 0.48184 0.60169 0.8242 0.0
H509 H 0.52297 0.64959 0.8969 0.0
H510 H 0.48622 0.70474 0.77642 0.0
H511 H 0.44547 0.65727 0.70494 0.0
C512 C 0.53527 0.75435 -0.01977 0.0
C513 C 0.56819 0.76669 -0.0174 0.0
C514 C 0.51559 0.7258 0.93834 0.0
C515 C 0.52825 0.70876 0.89768 0.0
C516 C 0.56086 0.71977 0.90533 0.0
C517 C 0.58072 0.74858 0.94732 0.0
C518 C 0.48334 0.62431 0.81138 0.0
C519 C 0.46047 0.62586 0.75945 0.0
C520 C 0.50667 0.65162 0.85332 0.0
C521 C 0.50725 0.6807 0.84401 0.0
C522 C 0.48586 0.68251 0.78659 0.0
C523 C 0.46275 0.65544 0.74496 0.0
H524 H 0.92105 0.49464 0.09947 0.0
H525 H 0.82814 0.43927 0.21375 0.0
H526 H 0.9152 0.44657 0.0299 0.0
H527 H 0.82235 0.39161 0.14542 0.0
H528 H 0.80097 0.32699 0.91979 0.0
H529 H 0.81502 0.37708 -0.01109 0.0
H530 H 0.90688 0.3902 0.05435 0.0
H531 H 0.89283 0.33964 -0.0159 0.0
C532 C 0.89984 0.47206 0.11171 0.0
C533 C 0.87491 0.47063 0.16128 0.0
C534 C 0.89641 0.44464 0.0716 0.0
C535 C 0.86798 0.41551 0.08045 0.0
C536 C 0.84418 0.41386 0.13545 0.0
C537 C 0.84758 0.44106 0.17521 0.0
C538 C 0.82438 0.34069 0.94762 0.0
C539 C 0.84564 0.32911 0.9472 0.0
C540 C 0.83234 0.36931 -0.01209 0.0
C541 C 0.86175 0.38718 0.02902 0.0
C542 C 0.88397 0.37682 0.02364 0.0
C543 C 0.87595 0.34795 -0.01684 0.0
H544 H 0.49893 0.91529 0.15307 0.0
H545 H 0.44823 0.82084 0.04704 0.0
H546 H 0.44941 0.90763 0.21787 0.0
H547 H 0.39913 0.81327 0.11039 0.0
H548 H 0.32977 0.79116 0.32531 0.0
H549 H 0.38102 0.80601 0.26193 0.0
H550 H 0.39369 0.89749 0.18968 0.0
H551 H 0.34208 0.88269 0.25447 0.0
C552 C 0.47707 0.89328 0.14172 0.0
C553 C 0.47741 0.86854 0.09575 0.0
C554 C 0.4488 0.88882 0.17912 0.0
C555 C 0.42051 0.85954 0.17113 0.0
C556 C 0.42066 0.83576 0.11994 0.0
C557 C 0.44871 0.84018 0.08294 0.0
C558 C 0.34361 0.81466 0.29724 0.0
C559 C 0.33164 0.83561 0.29444 0.0
C560 C 0.37291 0.82307 0.26011 0.0
C561 C 0.39111 0.85265 0.21883 0.0
C562 C 0.38017 0.87449 0.22066 0.0
C563 C 0.35065 0.86602 0.25802 0.0
loop_
_geom_bond_atom_site_label_1
_geom_bond_atom_site_label_2
_geom_bond_distance
_geom_bond_site_symmetry_2
_ccdc_geom_bond_type
C0 O16 1.251 . S
C0 O18 1.254 . S
N1 C2 1.333 . S
N1 C6 1.307 . S
N1 Zn7 2.020 . S
C2 N1 1.333 . S
C2 C3 1.379 . S
C2 H20 0.952 . S
C3 C2 1.379 . S
C3 C4 1.390 . S
C3 H30 0.949 . S
C4 C3 1.390 . S
C4 C5 1.357 . S
C5 C4 1.357 . S
C5 C6 1.370 . S
C5 H31 0.950 . S
C6 N1 1.307 . S
C6 C5 1.370 . S
C6 H24 0.948 . S
Zn7 N1 2.020 . S
Zn7 O16 2.039 . S
Zn7 O22 2.034 . S
Zn7 O26 2.025 . S
Zn7 O28 2.024 . S
C8 O27 1.246 . S
C8 O28 1.249 . S
N9 C10 1.307 . S
N9 C11 1.333 . S
N9 Zn15 2.020 . S
C10 N9 1.307 . S
C10 C14 1.370 . S
C10 H21 0.948 . S
C11 N9 1.333 . S
C11 C12 1.379 . S
C11 H19 0.952 . S
C12 C11 1.379 . S
C12 C13 1.390 . S
C12 H32 0.949 . S
C13 C12 1.390 . S
C13 C14 1.357 . S
C14 C10 1.370 . S
C14 C13 1.357 . S
C14 H33 0.950 . S
Zn15 N9 2.020 . S
Zn15 O18 2.025 . S
Zn15 O23 2.024 . S
Zn15 O25 2.039 . S
Zn15 O27 2.034 . S
O16 C0 1.251 . S
O16 Zn7 2.039 . S
C17 O22 1.246 . S
C17 O23 1.249 . S
O18 C0 1.254 . S
O18 Zn15 2.025 . S
H19 C11 0.952 . S
H20 C2 0.952 . S
H21 C10 0.948 . S
O22 Zn7 2.034 . S
O22 C17 1.246 . S
O23 Zn15 2.024 . S
O23 C17 1.249 . S
H24 C6 0.948 . S
O25 Zn15 2.039 . S
O25 C29 1.251 . S
O26 Zn7 2.025 . S
O26 C29 1.254 . S
O27 C8 1.246 . S
O27 Zn15 2.034 . S
O28 Zn7 2.024 . S
O28 C8 1.249 . S
C29 O25 1.251 . S
C29 O26 1.254 . S
H30 C3 0.949 . S
H31 C5 0.950 . S
H32 C12 0.949 . S
H33 C14 0.950 . S
C34 O50 1.251 . S
C34 O52 1.254 . S
N35 C36 1.333 . S
N35 C40 1.307 . S
N35 Zn41 2.020 . S
C36 N35 1.333 . S
C36 C37 1.379 . S
C36 H54 0.952 . S
C37 C36 1.379 . S
C37 C38 1.390 . S
C37 H64 0.949 . S
C38 C37 1.390 . S
C38 C39 1.357 . S
C39 C38 1.357 . S
C39 C40 1.370 . S
C39 H65 0.950 . S
C40 N35 1.307 . S
C40 C39 1.370 . S
C40 H58 0.948 . S
Zn41 N35 2.020 . S
Zn41 O50 2.039 . S
Zn41 O56 2.034 . S
Zn41 O60 2.025 . S
Zn41 O62 2.024 . S
C42 O61 1.246 . S
C42 O62 1.249 . S
N43 C44 1.307 . S
N43 C45 1.333 . S
N43 Zn49 2.020 . S
C44 N43 1.307 . S
C44 C48 1.370 . S
C44 H55 0.948 . S
C45 N43 1.333 . S
C45 C46 1.379 . S
C45 H53 0.952 . S
C46 C45 1.379 . S
C46 C47 1.390 . S
C46 H66 0.949 . S
C47 C46 1.390 . S
C47 C48 1.357 . S
C48 C44 1.370 . S
C48 C47 1.357 . S
C48 H67 0.950 . S
Zn49 N43 2.020 . S
Zn49 O52 2.025 . S
Zn49 O57 2.024 . S
Zn49 O59 2.039 . S
Zn49 O61 2.034 . S
O50 C34 1.251 . S
O50 Zn41 2.039 . S
C51 O56 1.246 . S
C51 O57 1.249 . S
O52 C34 1.254 . S
O52 Zn49 2.025 . S
H53 C45 0.952 . S
H54 C36 0.952 . S
H55 C44 0.948 . S
O56 Zn41 2.034 . S
O56 C51 1.246 . S
O57 Zn49 2.024 . S
O57 C51 1.249 . S
H58 C40 0.948 . S
O59 Zn49 2.039 . S
O59 C63 1.251 . S
O60 Zn41 2.025 . S
O60 C63 1.254 . S
O61 C42 1.246 . S
O61 Zn49 2.034 . S
O62 Zn41 2.024 . S
O62 C42 1.249 . S
C63 O59 1.251 . S
C63 O60 1.254 . S
H64 C37 0.949 . S
H65 C39 0.950 . S
H66 C46 0.949 . S
H67 C48 0.950 . S
C68 O84 1.251 . S
C68 O86 1.254 . S
N69 C70 1.333 . S
N69 C74 1.307 . S
N69 Zn75 2.020 . S
C70 N69 1.333 . S
C70 C71 1.379 . S
C70 H88 0.952 . S
C71 C70 1.379 . S
C71 C72 1.390 . S
C71 H98 0.949 . S
C72 C71 1.390 . S
C72 C73 1.357 . S
C73 C72 1.357 . S
C73 C74 1.370 . S
C73 H99 0.950 1_556 S
C74 N69 1.307 . S
C74 C73 1.370 . S
C74 H92 0.948 1_556 S
Zn75 N69 2.020 . S
Zn75 O84 2.039 . S
Zn75 O90 2.034 . S
Zn75 O94 2.025 1_556 S
Zn75 O96 2.024 . S
C76 O95 1.246 . S
C76 O96 1.249 . S
N77 C78 1.307 . S
N77 C79 1.333 1_556 S
N77 Zn83 2.020 . S
C78 N77 1.307 . S
C78 C82 1.370 . S
C78 H89 0.948 . S
C79 N77 1.333 1_554 S
C79 C80 1.379 . S
C79 H87 0.952 . S
C80 C79 1.379 . S
C80 C81 1.390 1_554 S
C80 H100 0.949 . S
C81 C80 1.390 1_556 S
C81 C82 1.357 . S
C82 C78 1.370 . S
C82 C81 1.357 . S
C82 H101 0.950 . S
Zn83 N77 2.020 . S
Zn83 O86 2.025 . S
Zn83 O91 2.024 . S
Zn83 O93 2.039 1_556 S
Zn83 O95 2.034 . S
O84 C68 1.251 . S
O84 Zn75 2.039 . S
C85 O90 1.246 . S
C85 O91 1.249 . S
O86 C68 1.254 . S
O86 Zn83 2.025 . S
H87 C79 0.952 . S
H88 C70 0.952 . S
H89 C78 0.948 . S
O90 Zn75 2.034 . S
O90 C85 1.246 . S
O91 Zn83 2.024 . S
O91 C85 1.249 . S
H92 C74 0.948 1_554 S
O93 Zn83 2.039 1_554 S
O93 C97 1.251 . S
O94 Zn75 2.025 1_554 S
O94 C97 1.254 . S
O95 C76 1.246 . S
O95 Zn83 2.034 . S
O96 Zn75 2.024 . S
O96 C76 1.249 . S
C97 O93 1.251 . S
C97 O94 1.254 . S
H98 C71 0.949 . S
H99 C73 0.950 1_554 S
H100 C80 0.949 . S
H101 C82 0.950 . S
C102 O118 1.251 . S
C102 O120 1.254 . S
N103 C104 1.333 . S
N103 C108 1.307 . S
N103 Zn109 2.020 . S
C104 N103 1.333 . S
C104 C105 1.379 . S
C104 H122 0.952 . S
C105 C104 1.379 . S
C105 C106 1.390 . S
C105 H132 0.949 . S
C106 C105 1.390 . S
C106 C107 1.357 . S
C107 C106 1.357 . S
C107 C108 1.370 . S
C107 H133 0.950 1_554 S
C108 N103 1.307 . S
C108 C107 1.370 . S
C108 H126 0.948 1_554 S
Zn109 N103 2.020 . S
Zn109 O118 2.039 . S
Zn109 O124 2.034 . S
Zn109 O128 2.025 1_554 S
Zn109 O130 2.024 . S
C110 O129 1.246 . S
C110 O130 1.249 . S
N111 C112 1.307 . S
N111 C113 1.333 1_554 S
N111 Zn117 2.020 . S
C112 N111 1.307 . S
C112 C116 1.370 . S
C112 H123 0.948 . S
C113 N111 1.333 1_556 S
C113 C114 1.379 . S
C113 H121 0.952 . S
C114 C113 1.379 . S
C114 C115 1.390 1_556 S
C114 H134 0.949 . S
C115 C114 1.390 1_554 S
C115 C116 1.357 . S
C116 C112 1.370 . S
C116 C115 1.357 . S
C116 H135 0.950 . S
Zn117 N111 2.020 . S
Zn117 O120 2.025 . S
Zn117 O125 2.024 . S
Zn117 O127 2.039 1_554 S
Zn117 O129 2.034 . S
O118 C102 1.251 . S
O118 Zn109 2.039 . S
C119 O124 1.246 . S
C119 O125 1.249 . S
O120 C102 1.254 . S
O120 Zn117 2.025 . S
H121 C113 0.952 . S
H122 C104 0.952 . S
H123 C112 0.948 . S
O124 Zn109 2.034 . S
O124 C119 1.246 . S
O125 Zn117 2.024 . S
O125 C119 1.249 . S
H126 C108 0.948 1_556 S
O127 Zn117 2.039 1_556 S
O127 C131 1.251 . S
O128 Zn109 2.025 1_556 S
O128 C131 1.254 . S
O129 C110 1.246 . S
O129 Zn117 2.034 . S
O130 Zn109 2.024 . S
O130 C110 1.249 . S
C131 O127 1.251 . S
C131 O128 1.254 . S
H132 C105 0.949 . S
H133 C107 0.950 1_556 S
H134 C114 0.949 . S
H135 C116 0.950 . S
C136 O152 1.251 . S
C136 O154 1.254 . S
N137 C138 1.333 . S
N137 C142 1.307 . S
N137 Zn143 2.020 . S
C138 N137 1.333 . S
C138 C139 1.379 . S
C138 H156 0.952 . S
C139 C138 1.379 . S
C139 C140 1.390 . S
C139 H166 0.949 . S
C140 C139 1.390 . S
C140 C141 1.357 . S
C141 C140 1.357 . S
C141 C142 1.370 . S
C141 H167 0.950 . S
C142 N137 1.307 . S
C142 C141 1.370 . S
C142 H160 0.948 . S
Zn143 N137 2.020 . S
Zn143 O152 2.039 . S
Zn143 O158 2.034 . S
Zn143 O162 2.025 . S
Zn143 O164 2.024 . S
C144 O163 1.246 . S
C144 O164 1.249 . S
N145 C146 1.307 . S
N145 C147 1.333 . S
N145 Zn151 2.020 . S
C146 N145 1.307 . S
C146 C150 1.370 . S
C146 H157 0.948 . S
C147 N145 1.333 . S
C147 C148 1.379 . S
C147 H155 0.952 . S
C148 C147 1.379 . S
C148 C149 1.390 . S
C148 H168 0.949 . S
C149 C148 1.390 . S
C149 C150 1.357 . S
C150 C146 1.370 . S
C150 C149 1.357 . S
C150 H169 0.950 . S
Zn151 N145 2.020 . S
Zn151 O154 2.025 . S
Zn151 O159 2.024 . S
Zn151 O161 2.039 . S
Zn151 O163 2.034 . S
O152 C136 1.251 . S
O152 Zn143 2.039 . S
C153 O158 1.246 . S
C153 O159 1.249 . S
O154 C136 1.254 . S
O154 Zn151 2.025 . S
H155 C147 0.952 . S
H156 C138 0.952 . S
H157 C146 0.948 . S
O158 Zn143 2.034 . S
O158 C153 1.246 . S
O159 Zn151 2.024 . S
O159 C153 1.249 . S
H160 C142 0.948 . S
O161 Zn151 2.039 . S
O161 C165 1.251 . S
O162 Zn143 2.025 . S
O162 C165 1.254 . S
O163 C144 1.246 . S
O163 Zn151 2.034 . S
O164 Zn143 2.024 . S
O164 C144 1.249 . S
C165 O161 1.251 . S
C165 O162 1.254 . S
H166 C139 0.949 . S
H167 C141 0.950 . S
H168 C148 0.949 . S
H169 C150 0.950 . S
C170 O186 1.251 . S
C170 O188 1.254 . S
N171 C172 1.333 . S
N171 C176 1.307 . S
N171 Zn177 2.020 . S
C172 N171 1.333 . S
C172 C173 1.379 . S
C172 H190 0.952 . S
C173 C172 1.379 . S
C173 C174 1.390 . S
C173 H200 0.949 . S
C174 C173 1.390 . S
C174 C175 1.357 . S
C175 C174 1.357 . S
C175 C176 1.370 . S
C175 H201 0.950 . S
C176 N171 1.307 . S
C176 C175 1.370 . S
C176 H194 0.948 . S
Zn177 N171 2.020 . S
Zn177 O186 2.039 . S
Zn177 O192 2.034 . S
Zn177 O196 2.025 . S
Zn177 O198 2.024 . S
C178 O197 1.246 . S
C178 O198 1.249 . S
N179 C180 1.307 . S
N179 C181 1.333 . S
N179 Zn185 2.020 . S
C180 N179 1.307 . S
C180 C184 1.370 . S
C180 H191 0.948 . S
C181 N179 1.333 . S
C181 C182 1.379 . S
C181 H189 0.952 . S
C182 C181 1.379 . S
C182 C183 1.390 . S
C182 H202 0.949 . S
C183 C182 1.390 . S
C183 C184 1.357 . S
C184 C180 1.370 . S
C184 C183 1.357 . S
C184 H203 0.950 . S
Zn185 N179 2.020 . S
Zn185 O188 2.025 . S
Zn185 O193 2.024 . S
Zn185 O195 2.039 . S
Zn185 O197 2.034 . S
O186 C170 1.251 . S
O186 Zn177 2.039 . S
C187 O192 1.246 . S
C187 O193 1.249 . S
O188 C170 1.254 . S
O188 Zn185 2.025 . S
H189 C181 0.952 . S
H190 C172 0.952 . S
H191 C180 0.948 . S
O192 Zn177 2.034 . S
O192 C187 1.246 . S
O193 Zn185 2.024 . S
O193 C187 1.249 . S
H194 C176 0.948 . S
O195 Zn185 2.039 . S
O195 C199 1.251 . S
O196 Zn177 2.025 . S
O196 C199 1.254 . S
O197 C178 1.246 . S
O197 Zn185 2.034 . S
O198 Zn177 2.024 . S
O198 C178 1.249 . S
C199 O195 1.251 . S
C199 O196 1.254 . S
H200 C173 0.949 . S
H201 C175 0.950 . S
H202 C182 0.949 . S
H203 C184 0.950 . S
H204 C212 0.950 . S
H205 C217 0.950 . S
H206 C214 0.950 . S
H207 C216 0.950 . S
H208 C218 0.950 . S
H209 C220 0.946 1_554 S
H210 C222 0.948 1_554 S
H211 C223 0.950 . S
C212 H204 0.950 . S
C212 C213 1.386 . S
C212 C214 1.391 . S
C213 C212 1.386 . S
C213 C217 1.393 . S
C214 H206 0.950 . S
C214 C212 1.391 . S
C214 C215 1.400 . S
C215 C214 1.400 . S
C215 C216 1.398 . S
C215 C221 1.491 . S
C216 H207 0.950 . S
C216 C215 1.398 . S
C216 C217 1.391 . S
C217 H205 0.950 . S
C217 C213 1.393 . S
C217 C216 1.391 . S
C218 H208 0.950 . S
C218 C219 1.386 . S
C218 C220 1.398 . S
C219 C218 1.386 . S
C219 C223 1.393 . S
C220 H209 0.946 1_556 S
C220 C218 1.398 . S
C220 C221 1.397 1_556 S
C221 C215 1.491 . S
C221 C220 1.397 1_554 S
C221 C222 1.396 1_554 S
C222 H210 0.948 1_556 S
C222 C221 1.396 1_556 S
C222 C223 1.395 . S
C223 H211 0.950 . S
C223 C219 1.393 . S
C223 C222 1.395 . S
H224 C232 0.950 . S
H225 C237 0.950 . S
H226 C234 0.950 . S
H227 C236 0.950 . S
H228 C238 0.950 1_556 S
H229 C240 0.950 . S
H230 C242 0.950 . S
H231 C243 0.950 1_556 S
C232 H224 0.950 . S
C232 C233 1.386 . S
C232 C234 1.391 . S
C233 C232 1.386 . S
C233 C237 1.393 . S
C234 H226 0.950 . S
C234 C232 1.391 . S
C234 C235 1.400 . S
C235 C234 1.400 . S
C235 C236 1.398 . S
C235 C241 1.491 . S
C236 H227 0.950 . S
C236 C235 1.398 . S
C236 C237 1.391 . S
C237 H225 0.950 . S
C237 C233 1.393 . S
C237 C236 1.391 . S
C238 H228 0.950 1_554 S
C238 C239 1.386 1_554 S
C238 C240 1.391 . S
C239 C238 1.386 1_556 S
C239 C243 1.393 1_556 S
C240 H229 0.950 . S
C240 C238 1.391 . S
C240 C241 1.400 . S
C241 C235 1.491 . S
C241 C240 1.400 . S
C241 C242 1.398 . S
C242 H230 0.950 . S
C242 C241 1.398 . S
C242 C243 1.391 . S
C243 H231 0.950 1_554 S
C243 C239 1.393 1_554 S
C243 C242 1.391 . S
H244 C252 0.950 . S
H245 C257 0.950 . S
H246 C254 0.950 . S
H247 C256 0.950 . S
H248 C258 0.950 . S
H249 C260 0.950 . S
H250 C262 0.950 . S
H251 C263 0.950 . S
C252 H244 0.950 . S
C252 C253 1.386 . S
C252 C254 1.391 . S
C253 C252 1.386 . S
C253 C257 1.393 . S
C254 H246 0.950 . S
C254 C252 1.391 . S
C254 C255 1.400 . S
C255 C254 1.400 . S
C255 C256 1.398 . S
C255 C261 1.491 . S
C256 H247 0.950 . S
C256 C255 1.398 . S
C256 C257 1.391 . S
C257 H245 0.950 . S
C257 C253 1.393 . S
C257 C256 1.391 . S
C258 H248 0.950 . S
C258 C259 1.386 . S
C258 C260 1.391 . S
C259 C258 1.386 . S
C259 C263 1.393 . S
C260 H249 0.950 . S
C260 C258 1.391 . S
C260 C261 1.400 . S
C261 C255 1.491 . S
C261 C260 1.400 . S
C261 C262 1.398 . S
C262 H250 0.950 . S
C262 C261 1.398 . S
C262 C263 1.391 . S
C263 H251 0.950 . S
C263 C259 1.393 . S
C263 C262 1.391 . S
H264 C272 0.950 . S
H265 C277 0.950 . S
H266 C274 0.950 . S
H267 C276 0.950 . S
H268 C278 0.950 . S
H269 C280 0.950 . S
H270 C282 0.950 . S
H271 C283 0.950 . S
C272 H264 0.950 . S
C272 C273 1.386 . S
C272 C274 1.391 . S
C273 C272 1.386 . S
C273 C277 1.393 . S
C274 H266 0.950 . S
C274 C272 1.391 . S
C274 C275 1.400 . S
C275 C274 1.400 . S
C275 C276 1.398 . S
C275 C281 1.491 . S
C276 H267 0.950 . S
C276 C275 1.398 . S
C276 C277 1.391 . S
C277 H265 0.950 . S
C277 C273 1.393 . S
C277 C276 1.391 . S
C278 H268 0.950 . S
C278 C279 1.386 . S
C278 C280 1.391 . S
C279 C278 1.386 . S
C279 C283 1.393 . S
C280 H269 0.950 . S
C280 C278 1.391 . S
C280 C281 1.400 . S
C281 C275 1.491 . S
C281 C280 1.400 . S
C281 C282 1.398 . S
C282 H270 0.950 . S
C282 C281 1.398 . S
C282 C283 1.391 . S
C283 H271 0.950 . S
C283 C279 1.393 . S
C283 C282 1.391 . S
H284 C292 0.950 . S
H285 C297 0.950 . S
H286 C294 0.950 . S
H287 C296 0.950 . S
H288 C298 0.950 1_554 S
H289 C300 0.950 . S
H290 C302 0.950 . S
H291 C303 0.950 1_554 S
C292 H284 0.950 . S
C292 C293 1.386 . S
C292 C294 1.391 . S
C293 C292 1.386 . S
C293 C297 1.393 . S
C294 H286 0.950 . S
C294 C292 1.391 . S
C294 C295 1.400 . S
C295 C294 1.400 . S
C295 C296 1.398 . S
C295 C301 1.491 . S
C296 H287 0.950 . S
C296 C295 1.398 . S
C296 C297 1.391 . S
C297 H285 0.950 . S
C297 C293 1.393 . S
C297 C296 1.391 . S
C298 H288 0.950 1_556 S
C298 C299 1.386 1_556 S
C298 C300 1.391 . S
C299 C298 1.386 1_554 S
C299 C303 1.393 1_554 S
C300 H289 0.950 . S
C300 C298 1.391 . S
C300 C301 1.400 . S
C301 C295 1.491 . S
C301 C300 1.400 . S
C301 C302 1.398 . S
C302 H290 0.950 . S
C302 C301 1.398 . S
C302 C303 1.391 . S
C303 H291 0.950 1_556 S
C303 C299 1.393 1_556 S
C303 C302 1.391 . S
H304 C312 0.950 . S
H305 C317 0.950 . S
H306 C314 0.945 1_556 S
H307 C316 0.949 1_556 S
H308 C318 0.950 . S
H309 C320 0.950 . S
H310 C322 0.950 . S
H311 C323 0.950 . S
C312 H304 0.950 . S
C312 C313 1.386 . S
C312 C314 1.401 . S
C313 C312 1.386 . S
C313 C317 1.393 . S
C314 H306 0.945 1_554 S
C314 C312 1.401 . S
C314 C315 1.395 1_554 S
C315 C314 1.395 1_556 S
C315 C316 1.397 1_556 S
C315 C321 1.491 . S
C316 H307 0.949 1_554 S
C316 C315 1.397 1_554 S
C316 C317 1.393 . S
C317 H305 0.950 . S
C317 C313 1.393 . S
C317 C316 1.393 . S
C318 H308 0.950 . S
C318 C319 1.386 . S
C318 C320 1.391 . S
C319 C318 1.386 . S
C319 C323 1.393 . S
C320 H309 0.950 . S
C320 C318 1.391 . S
C320 C321 1.400 . S
C321 C315 1.491 . S
C321 C320 1.400 . S
C321 C322 1.398 . S
C322 H310 0.950 . S
C322 C321 1.398 . S
C322 C323 1.391 . S
C323 H311 0.950 . S
C323 C319 1.393 . S
C323 C322 1.391 . S
H324 C332 0.950 . S
H325 C337 0.950 . S
H326 C334 0.950 . S
H327 C336 0.950 . S
H328 C338 0.950 . S
H329 C340 0.950 . S
H330 C342 0.950 . S
H331 C343 0.950 . S
C332 H324 0.950 . S
C332 C333 1.386 . S
C332 C334 1.391 . S
C333 C332 1.386 . S
C333 C337 1.393 . S
C334 H326 0.950 . S
C334 C332 1.391 . S
C334 C335 1.400 . S
C335 C334 1.400 . S
C335 C336 1.398 . S
C335 C341 1.491 . S
C336 H327 0.950 . S
C336 C335 1.398 . S
C336 C337 1.391 . S
C337 H325 0.950 . S
C337 C333 1.393 . S
C337 C336 1.391 . S
C338 H328 0.950 . S
C338 C339 1.386 . S
C338 C340 1.391 1_565 S
C339 C338 1.386 . S
C339 C343 1.393 . S
C340 H329 0.950 . S
C340 C338 1.391 1_545 S
C340 C341 1.400 . S
C341 C335 1.491 . S
C341 C340 1.400 . S
C341 C342 1.398 1_545 S
C342 H330 0.950 . S
C342 C341 1.398 1_565 S
C342 C343 1.391 . S
C343 H331 0.950 . S
C343 C339 1.393 . S
C343 C342 1.391 . S
H344 C352 0.950 . S
H345 C357 0.950 . S
H346 C354 0.950 . S
H347 C356 0.950 . S
H348 C358 0.950 . S
H349 C360 0.950 . S
H350 C362 0.950 . S
H351 C363 0.950 . S
C352 H344 0.950 . S
C352 C353 1.386 . S
C352 C354 1.391 . S
C353 C352 1.386 . S
C353 C357 1.393 . S
C354 H346 0.950 . S
C354 C352 1.391 . S
C354 C355 1.400 . S
C355 C354 1.400 . S
C355 C356 1.398 . S
C355 C361 1.491 . S
C356 H347 0.950 . S
C356 C355 1.398 . S
C356 C357 1.391 . S
C357 H345 0.950 . S
C357 C353 1.393 . S
C357 C356 1.391 . S
C358 H348 0.950 . S
C358 C359 1.386 . S
C358 C360 1.391 . S
C359 C358 1.386 . S
C359 C363 1.393 . S
C360 H349 0.950 . S
C360 C358 1.391 . S
C360 C361 1.400 . S
C361 C355 1.491 . S
C361 C360 1.400 . S
C361 C362 1.398 . S
C362 H350 0.950 . S
C362 C361 1.398 . S
C362 C363 1.391 . S
C363 H351 0.950 . S
C363 C359 1.393 . S
C363 C362 1.391 . S
H364 C372 0.950 1_554 S
H365 C377 0.950 . S
H366 C374 0.950 . S
H367 C376 0.962 . S
H368 C378 0.950 . S
H369 C380 0.950 . S
H370 C382 0.950 . S
H371 C383 0.950 . S
C372 H364 0.950 1_556 S
C372 C373 1.386 . S
C372 C374 1.391 1_655 S
C373 C372 1.386 . S
C373 C377 1.393 . S
C374 H366 0.950 . S
C374 C372 1.391 1_455 S
C374 C375 1.400 . S
C375 C374 1.400 . S
C375 C376 1.398 1_455 S
C375 C381 1.491 . S
C376 H367 0.962 . S
C376 C375 1.398 1_655 S
C376 C377 1.391 . S
C377 H365 0.950 . S
C377 C373 1.393 . S
C377 C376 1.391 . S
C378 H368 0.950 . S
C378 C379 1.386 . S
C378 C380 1.391 . S
C379 C378 1.386 . S
C379 C383 1.393 . S
C380 H369 0.950 . S
C380 C378 1.391 . S
C380 C381 1.400 . S
C381 C375 1.491 . S
C381 C380 1.400 . S
C381 C382 1.398 . S
C382 H370 0.950 . S
C382 C381 1.398 . S
C382 C383 1.391 . S
C383 H371 0.950 . S
C383 C379 1.393 . S
C383 C382 1.391 . S
H384 C392 0.950 . S
H385 C397 0.950 . S
H386 C394 0.949 1_545 S
H387 C396 0.950 1_545 S
H388 C398 0.950 . S
H389 C400 0.950 . S
H390 C402 0.950 . S
H391 C403 0.950 . S
C392 H384 0.950 . S
C392 C393 1.386 . S
C392 C394 1.394 . S
C393 C392 1.386 . S
C393 C397 1.393 . S
C394 H386 0.949 1_565 S
C394 C392 1.394 . S
C394 C395 1.398 1_565 S
C395 C394 1.398 1_545 S
C395 C396 1.398 1_544 S
C395 C401 1.491 1_554 S
C396 H387 0.950 1_565 S
C396 C395 1.398 1_566 S
C396 C397 1.391 1_556 S
C397 H385 0.950 . S
C397 C393 1.393 . S
C397 C396 1.391 1_554 S
C398 H388 0.950 . S
C398 C399 1.386 . S
C398 C400 1.391 . S
C399 C398 1.386 . S
C399 C403 1.393 . S
C400 H389 0.950 . S
C400 C398 1.391 . S
C400 C401 1.400 . S
C401 C395 1.491 1_556 S
C401 C400 1.400 . S
C401 C402 1.398 1_556 S
C402 H390 0.950 . S
C402 C401 1.398 1_554 S
C402 C403 1.391 1_554 S
C403 H391 0.950 . S
C403 C399 1.393 . S
C403 C402 1.391 1_556 S
H404 C412 0.950 . S
H405 C417 0.950 . S
H406 C414 0.950 . S
H407 C416 0.950 . S
H408 C418 0.950 1_556 S
H409 C420 0.950 . S
H410 C422 0.950 . S
H411 C423 0.950 . S
C412 H404 0.950 . S
C412 C413 1.386 . S
C412 C414 1.391 . S
C413 C412 1.386 . S
C413 C417 1.393 . S
C414 H406 0.950 . S
C414 C412 1.391 . S
C414 C415 1.400 . S
C415 C414 1.400 . S
C415 C416 1.398 . S
C415 C421 1.491 . S
C416 H407 0.950 . S
C416 C415 1.398 . S
C416 C417 1.391 . S
C417 H405 0.950 . S
C417 C413 1.393 . S
C417 C416 1.391 . S
C418 H408 0.950 1_554 S
C418 C419 1.386 . S
C418 C420 1.391 . S
C419 C418 1.386 . S
C419 C423 1.393 . S
C420 H409 0.950 . S
C420 C418 1.391 . S
C420 C421 1.400 . S
C421 C415 1.491 . S
C421 C420 1.400 . S
C421 C422 1.398 . S
C422 H410 0.950 . S
C422 C421 1.398 . S
C422 C423 1.391 . S
C423 H411 0.950 . S
C423 C419 1.393 . S
C423 C422 1.391 . S
H424 C432 0.950 . S
H425 C437 0.950 . S
H426 C434 0.950 . S
H427 C436 0.950 . S
H428 C438 0.950 . S
H429 C440 0.950 . S
H430 C442 0.950 . S
H431 C443 0.950 . S
C432 H424 0.950 . S
C432 C433 1.386 . S
C432 C434 1.391 1_655 S
C433 C432 1.386 . S
C433 C437 1.393 . S
C434 H426 0.950 . S
C434 C432 1.391 1_455 S
C434 C435 1.400 . S
C435 C434 1.400 . S
C435 C436 1.398 1_455 S
C435 C441 1.491 . S
C436 H427 0.950 . S
C436 C435 1.398 1_655 S
C436 C437 1.391 . S
C437 H425 0.950 . S
C437 C433 1.393 . S
C437 C436 1.391 . S
C438 H428 0.950 . S
C438 C439 1.386 . S
C438 C440 1.391 . S
C439 C438 1.386 . S
C439 C443 1.393 . S
C440 H429 0.950 . S
C440 C438 1.391 . S
C440 C441 1.400 . S
C441 C435 1.491 . S
C441 C440 1.400 . S
C441 C442 1.398 . S
C442 H430 0.950 . S
C442 C441 1.398 . S
C442 C443 1.391 . S
C443 H431 0.950 . S
C443 C439 1.393 . S
C443 C442 1.391 . S
H444 C452 0.950 . S
H445 C457 0.950 . S
H446 C454 0.950 . S
H447 C456 0.950 . S
H448 C458 0.950 . S
H449 C460 0.950 . S
H450 C462 0.950 . S
H451 C463 0.950 . S
C452 H444 0.950 . S
C452 C453 1.386 . S
C452 C454 1.391 . S
C453 C452 1.386 . S
C453 C457 1.393 . S
C454 H446 0.950 . S
C454 C452 1.391 . S
C454 C455 1.400 . S
C455 C454 1.400 . S
C455 C456 1.398 . S
C455 C461 1.491 . S
C456 H447 0.950 . S
C456 C455 1.398 . S
C456 C457 1.391 . S
C457 H445 0.950 . S
C457 C453 1.393 . S
C457 C456 1.391 . S
C458 H448 0.950 . S
C458 C459 1.386 . S
C458 C460 1.391 . S
C459 C458 1.386 . S
C459 C463 1.393 . S
C460 H449 0.950 . S
C460 C458 1.391 . S
C460 C461 1.400 . S
C461 C455 1.491 . S
C461 C460 1.400 . S
C461 C462 1.398 . S
C462 H450 0.950 . S
C462 C461 1.398 . S
C462 C463 1.391 . S
C463 H451 0.950 . S
C463 C459 1.393 . S
C463 C462 1.391 . S
H464 C472 0.950 . S
H465 C477 0.950 . S
H466 C474 0.950 . S
H467 C476 0.950 . S
H468 C478 0.950 . S
H469 C480 0.950 . S
H470 C482 0.950 . S
H471 C483 0.950 . S
C472 H464 0.950 . S
C472 C473 1.386 . S
C472 C474 1.391 . S
C473 C472 1.386 . S
C473 C477 1.393 . S
C474 H466 0.950 . S
C474 C472 1.391 . S
C474 C475 1.400 . S
C475 C474 1.400 . S
C475 C476 1.398 . S
C475 C481 1.491 . S
C476 H467 0.950 . S
C476 C475 1.398 . S
C476 C477 1.391 . S
C477 H465 0.950 . S
C477 C473 1.393 . S
C477 C476 1.391 . S
C478 H468 0.950 . S
C478 C479 1.386 . S
C478 C480 1.391 . S
C479 C478 1.386 . S
C479 C483 1.393 . S
C480 H469 0.950 . S
C480 C478 1.391 . S
C480 C481 1.400 . S
C481 C475 1.491 . S
C481 C480 1.400 . S
C481 C482 1.398 . S
C482 H470 0.950 . S
C482 C481 1.398 . S
C482 C483 1.391 . S
C483 H471 0.950 . S
C483 C479 1.393 . S
C483 C482 1.391 . S
H484 C492 0.950 . S
H485 C497 0.950 . S
H486 C494 0.950 . S
H487 C496 0.950 . S
H488 C498 0.950 . S
H489 C500 0.950 . S
H490 C502 0.950 . S
H491 C503 0.950 . S
C492 H484 0.950 . S
C492 C493 1.386 . S
C492 C494 1.391 . S
C493 C492 1.386 . S
C493 C497 1.393 . S
C494 H486 0.950 . S
C494 C492 1.391 . S
C494 C495 1.400 . S
C495 C494 1.400 . S
C495 C496 1.398 . S
C495 C501 1.491 . S
C496 H487 0.950 . S
C496 C495 1.398 . S
C496 C497 1.391 . S
C497 H485 0.950 . S
C497 C493 1.393 . S
C497 C496 1.391 . S
C498 H488 0.950 . S
C498 C499 1.386 . S
C498 C500 1.391 . S
C499 C498 1.386 . S
C499 C503 1.393 . S
C500 H489 0.950 . S
C500 C498 1.391 . S
C500 C501 1.400 . S
C501 C495 1.491 . S
C501 C500 1.400 . S
C501 C502 1.398 . S
C502 H490 0.950 . S
C502 C501 1.398 . S
C502 C503 1.391 . S
C503 H491 0.950 . S
C503 C499 1.393 . S
C503 C502 1.391 . S
H504 C512 0.950 1_554 S
H505 C517 0.950 . S
H506 C514 0.950 . S
H507 C516 0.950 . S
H508 C518 0.950 . S
H509 C520 0.950 . S
H510 C522 0.950 . S
H511 C523 0.950 . S
C512 H504 0.950 1_556 S
C512 C513 1.386 1_556 S
C512 C514 1.391 . S
C513 C512 1.386 1_554 S
C513 C517 1.393 1_554 S
C514 H506 0.950 . S
C514 C512 1.391 . S
C514 C515 1.400 . S
C515 C514 1.400 . S
C515 C516 1.398 . S
C515 C521 1.491 . S
C516 H507 0.950 . S
C516 C515 1.398 . S
C516 C517 1.391 . S
C517 H505 0.950 . S
C517 C513 1.393 1_556 S
C517 C516 1.391 . S
C518 H508 0.950 . S
C518 C519 1.386 . S
C518 C520 1.391 . S
C519 C518 1.386 . S
C519 C523 1.393 . S
C520 H509 0.950 . S
C520 C518 1.391 . S
C520 C521 1.400 . S
C521 C515 1.491 . S
C521 C520 1.400 . S
C521 C522 1.398 . S
C522 H510 0.950 . S
C522 C521 1.398 . S
C522 C523 1.391 . S
C523 H511 0.950 . S
C523 C519 1.393 . S
C523 C522 1.391 . S
H524 C532 0.950 . S
H525 C537 0.950 . S
H526 C534 0.950 . S
H527 C536 0.950 . S
H528 C538 0.950 . S
H529 C540 0.950 . S
H530 C542 0.950 1_556 S
H531 C543 0.950 . S
C532 H524 0.950 . S
C532 C533 1.386 . S
C532 C534 1.391 . S
C533 C532 1.386 . S
C533 C537 1.393 . S
C534 H526 0.950 . S
C534 C532 1.391 . S
C534 C535 1.400 . S
C535 C534 1.400 . S
C535 C536 1.398 . S
C535 C541 1.491 . S
C536 H527 0.950 . S
C536 C535 1.398 . S
C536 C537 1.391 . S
C537 H525 0.950 . S
C537 C533 1.393 . S
C537 C536 1.391 . S
C538 H528 0.950 . S
C538 C539 1.386 1_554 S
C538 C540 1.391 . S
C539 C538 1.386 1_556 S
C539 C543 1.393 . S
C540 H529 0.950 . S
C540 C538 1.391 . S
C540 C541 1.400 . S
C541 C535 1.491 . S
C541 C540 1.400 . S
C541 C542 1.398 . S
C542 H530 0.950 1_554 S
C542 C541 1.398 . S
C542 C543 1.391 1_554 S
C543 H531 0.950 . S
C543 C539 1.393 . S
C543 C542 1.391 1_556 S
H544 C552 0.950 . S
H545 C557 0.950 . S
H546 C554 0.950 . S
H547 C556 0.950 . S
H548 C558 0.950 . S
H549 C560 0.950 . S
H550 C562 0.950 . S
H551 C563 0.950 . S
C552 H544 0.950 . S
C552 C553 1.386 . S
C552 C554 1.391 . S
C553 C552 1.386 . S
C553 C557 1.393 . S
C554 H546 0.950 . S
C554 C552 1.391 . S
C554 C555 1.400 . S
C555 C554 1.400 . S
C555 C556 1.398 . S
C555 C561 1.491 . S
C556 H547 0.950 . S
C556 C555 1.398 . S
C556 C557 1.391 . S
C557 H545 0.950 . S
C557 C553 1.393 . S
C557 C556 1.391 . S
C558 H548 0.950 . S
C558 C559 1.386 . S
C558 C560 1.391 . S
C559 C558 1.386 . S
C559 C563 1.393 . S
C560 H549 0.950 . S
C560 C558 1.391 . S
C560 C561 1.400 . S
C561 C555 1.491 . S
C561 C560 1.400 . S
C561 C562 1.398 . S
C562 H550 0.950 . S
C562 C561 1.398 . S
C562 C563 1.391 . S
C563 H551 0.950 . S
C563 C559 1.393 . S
C563 C562 1.391 . S
C213 C0 0.963 . S
C219 C29 0.963 . S
C233 C63 0.964 . S
C239 C34 0.964 . S
C253 C97 0.963 . S
C259 C68 0.963 . S
C273 C102 0.964 . S
C279 C131 0.964 . S
C293 C165 0.962 . S
C299 C136 0.962 . S
C313 C199 0.962 . S
C319 C170 0.962 . S
C333 C13 1.722 . S
C339 C183 1.716 . S
C353 C8 1.807 . S
C359 C42 1.798 . S
C373 C81 1.743 . S
C379 C47 1.734 . S
C393 C110 1.791 . S
C399 C76 1.788 . S
C413 C149 1.728 . S
C419 C115 1.717 . S
C433 C144 1.801 . S
C439 C178 1.791 . S
C453 C4 1.950 . S
C459 C153 2.022 . S
C473 C51 2.022 . S
C479 C174 1.959 . S
C493 C72 1.941 . S
C499 C17 2.018 . S
C513 C119 2.015 . S
C519 C38 1.944 . S
C533 C140 1.955 . S
C539 C85 2.023 . S
C553 C106 1.942 . S
C559 C187 2.019 . S
