# Generated by pormake.
# Topology yfc, (5)-cn, num edge types: 1
# Building blocks:
#     Node 0, Type 0, BuildingBlock: XOMCOT_clean_sbu_1, # of connection points: 5
#     Node 1, Type 0, BuildingBlock: XOMCOT_clean_sbu_1, # of connection points: 5
#     Node 2, Type 0, BuildingBlock: XOMCOT_clean_sbu_1, # of connection points: 5
#     Node 3, Type 0, BuildingBlock: XOMCOT_clean_sbu_1, # of connection points: 5
#     Node 4, Type 0, BuildingBlock: XOMCOT_clean_sbu_1, # of connection points: 5
#     Node 5, Type 0, BuildingBlock: XOMCOT_clean_sbu_1, # of connection points: 5
#     Node 6, Type 0, BuildingBlock: XOMCOT_clean_sbu_1, # of connection points: 5
#     Node 7, Type 0, BuildingBlock: XOMCOT_clean_sbu_1, # of connection points: 5
#     Node 8, Type 0, BuildingBlock: XOMCOT_clean_sbu_1, # of connection points: 5
#     Node 9, Type 0, BuildingBlock: XOMCOT_clean_sbu_1, # of connection points: 5
#     Node 10, Type 0, BuildingBlock: XOMCOT_clean_sbu_1, # of connection points: 5
#     Node 11, Type 0, BuildingBlock: XOMCOT_clean_sbu_1, # of connection points: 5
#     Node 12, Type 0, BuildingBlock: XOMCOT_clean_sbu_1, # of connection points: 5
#     Node 13, Type 0, BuildingBlock: XOMCOT_clean_sbu_1, # of connection points: 5
#     Node 14, Type 0, BuildingBlock: XOMCOT_clean_sbu_1, # of connection points: 5
#     Node 15, Type 0, BuildingBlock: XOMCOT_clean_sbu_1, # of connection points: 5
#     Edge 16, Type (0, 0), None
#     Edge 17, Type (0, 0), None
#     Edge 18, Type (0, 0), None
#     Edge 19, Type (0, 0), None
#     Edge 20, Type (0, 0), None
#     Edge 21, Type (0, 0), None
#     Edge 22, Type (0, 0), None
#     Edge 23, Type (0, 0), None
#     Edge 24, Type (0, 0), None
#     Edge 25, Type (0, 0), None
#     Edge 26, Type (0, 0), None
#     Edge 27, Type (0, 0), None
#     Edge 28, Type (0, 0), None
#     Edge 29, Type (0, 0), None
#     Edge 30, Type (0, 0), None
#     Edge 31, Type (0, 0), None
#     Edge 32, Type (0, 0), None
#     Edge 33, Type (0, 0), None
#     Edge 34, Type (0, 0), None
#     Edge 35, Type (0, 0), None
#     Edge 36, Type (0, 0), None
#     Edge 37, Type (0, 0), None
#     Edge 38, Type (0, 0), None
#     Edge 39, Type (0, 0), None
#     Edge 40, Type (0, 0), None
#     Edge 41, Type (0, 0), None
#     Edge 42, Type (0, 0), None
#     Edge 43, Type (0, 0), None
#     Edge 44, Type (0, 0), None
#     Edge 45, Type (0, 0), None
#     Edge 46, Type (0, 0), None
#     Edge 47, Type (0, 0), None
#     Edge 48, Type (0, 0), None
#     Edge 49, Type (0, 0), None
#     Edge 50, Type (0, 0), None
#     Edge 51, Type (0, 0), None
#     Edge 52, Type (0, 0), None
#     Edge 53, Type (0, 0), None
#     Edge 54, Type (0, 0), None
#     Edge 55, Type (0, 0), None
# Relax obj value: 0.668
# Max RMSD: 0.270
# Mean RMSD: 0.270
data_MOF--net-yfc--node1-XOMCOT_clean_sbu_1--edge1-none
_symmetry_space_group_name_H-M    P1
_symmetry_Int_Tables_number       1
_symmetry_cell_setting            triclinic
loop_
_symmetry_equiv_pos_as_xyz
'x, y, z'
_cell_length_a     22.372116
_cell_length_b     22.373076
_cell_length_c     18.411392
_cell_angle_alpha  90.004939
_cell_angle_beta   89.997496
_cell_angle_gamma 89.999354
loop_
_atom_site_label
_atom_site_type_symbol
_atom_site_fract_x
_atom_site_fract_y
_atom_site_fract_z
_atom_type_partial_charge
C0 C 0.76531 0.9183 0.34956 0.0
C1 C 0.7412 0.86472 0.37187 0.0
N2 N 0.68254 0.86672 0.35872 0.0
N3 N 0.72177 0.95501 0.32332 0.0
C4 C 0.67185 0.92014 0.32757 0.0
H5 H 0.81209 0.92911 0.35422 0.0
Co6 Co 0.72554 0.04095 0.30238 0.0
C7 C 0.61476 0.04101 0.3614 0.0
O8 O 0.64771 0.02082 0.41528 0.0
N9 N 0.72698 0.12769 0.28372 0.0
C10 C 0.68757 0.21983 0.29034 0.0
C11 C 0.68396 0.162 0.31335 0.0
C12 C 0.76046 0.16933 0.24716 0.0
N13 N 0.73695 0.22606 0.25042 0.0
O14 O 0.73219 0.02643 0.19618 0.0
H15 H 0.65753 0.14859 0.35859 0.0
H16 H 0.8031 0.15929 0.22233 0.0
O17 O 0.63913 0.04411 0.29838 0.0
C18 C 0.75287 0.98198 0.16005 0.0
O19 O 0.77243 0.93426 0.19376 0.0
N20 N 0.80808 0.04053 0.3157 0.0
C21 C 0.9237 0.06608 0.35943 0.0
C22 C 0.88116 0.04806 0.41079 0.0
C23 C 0.82248 0.03901 0.38771 0.0
C24 C 0.85156 0.0466 0.2644 0.0
C25 C 0.91039 0.0578 0.28538 0.0
H26 H 0.78739 0.03381 0.42767 0.0
H27 H 0.84072 0.049 0.20747 0.0
H28 H 0.62774 0.93365 0.31038 0.0
H29 H 0.76407 0.82872 0.39939 0.0
H30 H 0.66078 0.2563 0.31019 0.0
H31 H 0.8898 0.05239 0.46844 0.0
H32 H 0.94256 0.06928 0.24366 0.0
C33 C 0.58837 0.7653 0.84957 0.0
C34 C 0.64195 0.74119 0.87189 0.0
N35 N 0.63995 0.68253 0.85873 0.0
N36 N 0.55166 0.72177 0.82332 0.0
C37 C 0.58652 0.67185 0.82757 0.0
H38 H 0.57757 0.81208 0.85423 0.0
Co39 Co 0.46571 0.72554 0.80237 0.0
C40 C 0.46565 0.61476 0.86137 0.0
O41 O 0.48584 0.64771 0.91526 0.0
N42 N 0.37897 0.72698 0.78371 0.0
C43 C 0.28683 0.68757 0.79033 0.0
C44 C 0.34466 0.68397 0.81335 0.0
C45 C 0.33734 0.76045 0.74715 0.0
N46 N 0.2806 0.73695 0.75042 0.0
O47 O 0.48024 0.73219 0.69617 0.0
H48 H 0.35808 0.65754 0.85859 0.0
H49 H 0.34737 0.80308 0.72231 0.0
O50 O 0.46256 0.63913 0.79836 0.0
C51 C 0.52469 0.75286 0.66005 0.0
O52 O 0.57241 0.77242 0.69377 0.0
N53 N 0.46614 0.80808 0.81571 0.0
C54 C 0.4406 0.92369 0.85945 0.0
C55 C 0.45861 0.88116 0.9108 0.0
C56 C 0.46765 0.82248 0.88772 0.0
C57 C 0.46007 0.85155 0.76442 0.0
C58 C 0.44888 0.91038 0.7854 0.0
H59 H 0.47286 0.78739 0.92768 0.0
H60 H 0.45767 0.84071 0.70748 0.0
H61 H 0.57301 0.62773 0.81038 0.0
H62 H 0.67795 0.76405 0.89942 0.0
H63 H 0.25036 0.66078 0.81018 0.0
H64 H 0.45428 0.8898 0.96846 0.0
H65 H 0.4374 0.94255 0.74368 0.0
C66 C 0.74133 0.58835 0.34962 0.0
C67 C 0.76544 0.64193 0.37194 0.0
N68 N 0.82411 0.63992 0.35877 0.0
N69 N 0.78485 0.55163 0.32336 0.0
C70 C 0.83478 0.58649 0.32761 0.0
H71 H 0.69454 0.57755 0.35429 0.0
Co72 Co 0.78106 0.46569 0.30241 0.0
C73 C 0.89184 0.46561 0.36142 0.0
O74 O 0.85889 0.48579 0.4153 0.0
N75 N 0.77959 0.37895 0.28375 0.0
C76 C 0.81894 0.28676 0.29039 0.0
C77 C 0.82261 0.34461 0.31335 0.0
C78 C 0.74606 0.33734 0.24721 0.0
N79 N 0.7695 0.2806 0.25059 0.0
O80 O 0.77441 0.48021 0.19621 0.0
H81 H 0.8491 0.35803 0.35855 0.0
H82 H 0.70343 0.3474 0.22238 0.0
O83 O 0.86747 0.46251 0.29839 0.0
C84 C 0.75375 0.52467 0.16009 0.0
O85 O 0.73422 0.5724 0.19381 0.0
N86 N 0.69852 0.46614 0.31575 0.0
C87 C 0.58291 0.44059 0.3595 0.0
C88 C 0.62546 0.45859 0.41085 0.0
C89 C 0.68413 0.46763 0.38777 0.0
C90 C 0.65504 0.46009 0.26446 0.0
C91 C 0.5962 0.44889 0.28545 0.0
H92 H 0.71922 0.47283 0.42772 0.0
H93 H 0.66587 0.45771 0.20752 0.0
H94 H 0.87889 0.57297 0.31041 0.0
H95 H 0.74259 0.67794 0.39946 0.0
H96 H 0.84573 0.25027 0.31018 0.0
H97 H 0.61682 0.45424 0.46851 0.0
H98 H 0.56403 0.43743 0.24373 0.0
C99 C 0.91829 0.74134 0.84961 0.0
C100 C 0.86471 0.76546 0.87191 0.0
N101 N 0.86672 0.82412 0.85874 0.0
N102 N 0.95501 0.78486 0.82334 0.0
C103 C 0.92016 0.83479 0.82758 0.0
H104 H 0.9291 0.69455 0.85428 0.0
Co105 Co 0.04096 0.78107 0.80239 0.0
C106 C 0.04104 0.89183 0.86142 0.0
O107 O 0.02084 0.85888 0.9153 0.0
N108 N 0.1277 0.77959 0.78373 0.0
C109 C 0.2199 0.81894 0.79037 0.0
C110 C 0.16204 0.82261 0.81332 0.0
C111 C 0.16931 0.74605 0.7472 0.0
N112 N 0.22605 0.76949 0.75058 0.0
O113 O 0.02644 0.77441 0.69619 0.0
H114 H 0.14863 0.8491 0.85852 0.0
H115 H 0.15925 0.70342 0.72237 0.0
O116 O 0.04414 0.86747 0.79839 0.0
C117 C 0.98197 0.75375 0.66007 0.0
O118 O 0.93424 0.73422 0.69379 0.0
N119 N 0.04051 0.69853 0.81572 0.0
C120 C 0.06608 0.58293 0.85946 0.0
C121 C 0.04807 0.62547 0.91081 0.0
C122 C 0.03902 0.68414 0.88773 0.0
C123 C 0.04656 0.65504 0.76443 0.0
C124 C 0.05777 0.59621 0.78541 0.0
H125 H 0.03382 0.71923 0.92769 0.0
H126 H 0.04894 0.66587 0.70749 0.0
H127 H 0.93368 0.87889 0.81038 0.0
H128 H 0.8287 0.74261 0.89944 0.0
H129 H 0.25639 0.84572 0.81017 0.0
H130 H 0.05242 0.61684 0.96847 0.0
H131 H 0.06924 0.56404 0.74369 0.0
C132 C 0.76531 0.58835 0.89071 0.0
C133 C 0.74125 0.64192 0.86827 0.0
N134 N 0.68254 0.63987 0.88112 0.0
N135 N 0.72172 0.55163 0.91679 0.0
C136 C 0.67179 0.58647 0.91231 0.0
H137 H 0.81212 0.57757 0.88628 0.0
Co138 Co 0.72549 0.46569 0.93776 0.0
C139 C 0.61475 0.46557 0.8787 0.0
O140 O 0.64775 0.48566 0.82481 0.0
N141 N 0.72694 0.37895 0.95644 0.0
C142 C 0.68755 0.28679 0.94983 0.0
C143 C 0.68393 0.34462 0.92681 0.0
C144 C 0.76042 0.33732 0.993 0.0
N145 N 0.73694 0.28058 0.98974 0.0
O146 O 0.73212 0.48022 1.04397 0.0
H147 H 0.65749 0.35802 0.88157 0.0
H148 H 0.80306 0.34737 1.01783 0.0
O149 O 0.63908 0.46253 0.94175 0.0
C150 C 0.75272 0.52469 1.08012 0.0
O151 O 0.7722 0.57245 1.04644 0.0
N152 N 0.80803 0.46612 0.92447 0.0
C153 C 0.92366 0.44061 0.88078 0.0
C154 C 0.88114 0.45863 0.82941 0.0
C155 C 0.82245 0.46767 0.85246 0.0
C156 C 0.85149 0.46007 0.97578 0.0
C157 C 0.91033 0.44889 0.95482 0.0
H158 H 0.78738 0.47288 0.81249 0.0
H159 H 0.84063 0.45767 1.03271 0.0
H160 H 0.62764 0.57297 0.92938 0.0
H161 H 0.76418 0.67794 0.84088 0.0
H162 H 0.66077 0.25032 0.92998 0.0
H163 H 0.8898 0.45432 0.77176 0.0
H164 H 0.94249 0.43741 0.99655 0.0
C165 C 0.91829 0.76529 0.39068 0.0
C166 C 0.86472 0.74121 0.36825 0.0
N167 N 0.86677 0.68251 0.38114 0.0
N168 N 0.95501 0.72171 0.41678 0.0
C169 C 0.92017 0.67178 0.41233 0.0
H170 H 0.92907 0.81209 0.38622 0.0
Co171 Co 0.04096 0.72548 0.43775 0.0
C172 C 0.04108 0.61475 0.37866 0.0
O173 O 0.02096 0.64774 0.32479 0.0
N174 N 0.12771 0.72694 0.45643 0.0
C175 C 0.21987 0.68755 0.44982 0.0
C176 C 0.16203 0.68393 0.4268 0.0
C177 C 0.16933 0.76042 0.49299 0.0
N178 N 0.22607 0.73694 0.48973 0.0
O179 O 0.02643 0.73211 0.54395 0.0
H180 H 0.14863 0.65749 0.38156 0.0
H181 H 0.15928 0.80306 0.51781 0.0
O182 O 0.04413 0.63908 0.44171 0.0
C183 C 0.98196 0.75272 0.5801 0.0
O184 O 0.93419 0.77221 0.54642 0.0
N185 N 0.04052 0.80802 0.42446 0.0
C186 C 0.06605 0.92364 0.38078 0.0
C187 C 0.04802 0.88112 0.32941 0.0
C188 C 0.03898 0.82244 0.35246 0.0
C189 C 0.04658 0.85148 0.47578 0.0
C190 C 0.05777 0.91032 0.45483 0.0
H191 H 0.03376 0.78737 0.31248 0.0
H192 H 0.04898 0.84062 0.53271 0.0
H193 H 0.93367 0.62764 0.42941 0.0
H194 H 0.82869 0.76413 0.34085 0.0
H195 H 0.25634 0.66077 0.42997 0.0
H196 H 0.05234 0.88978 0.27176 0.0
H197 H 0.06926 0.94247 0.49656 0.0
C198 C 0.74134 0.91829 0.89065 0.0
C199 C 0.76542 0.86472 0.86822 0.0
N200 N 0.82412 0.86678 0.8811 0.0
N201 N 0.78492 0.95502 0.91675 0.0
C202 C 0.83485 0.92019 0.91229 0.0
H203 H 0.69453 0.92906 0.8862 0.0
Co204 Co 0.78112 0.04096 0.93773 0.0
C205 C 0.89185 0.0411 0.87865 0.0
O206 O 0.85885 0.02099 0.82477 0.0
N207 N 0.77964 0.1277 0.95642 0.0
C208 C 0.81896 0.21991 0.9498 0.0
C209 C 0.82266 0.16206 0.92684 0.0
C210 C 0.74608 0.1693 0.99295 0.0
N211 N 0.7695 0.22605 0.98958 0.0
O212 O 0.77449 0.02643 1.04393 0.0
H213 H 0.84915 0.14867 0.88164 0.0
H214 H 0.70344 0.15923 1.01776 0.0
O215 O 0.86753 0.04415 0.94171 0.0
C216 C 0.7539 0.98196 1.08008 0.0
O217 O 0.73444 0.93418 1.0464 0.0
N218 N 0.69858 0.0405 0.92444 0.0
C219 C 0.58296 0.06604 0.88075 0.0
C220 C 0.62549 0.04802 0.82938 0.0
C221 C 0.68417 0.03897 0.85243 0.0
C222 C 0.65511 0.04654 0.97575 0.0
C223 C 0.59627 0.05773 0.95479 0.0
H224 H 0.71925 0.03377 0.81246 0.0
H225 H 0.66596 0.04892 1.03268 0.0
H226 H 0.87899 0.9337 0.92936 0.0
H227 H 0.7425 0.82869 0.84083 0.0
H228 H 0.84573 0.25641 0.93 0.0
H229 H 0.61684 0.05235 0.77172 0.0
H230 H 0.56411 0.06921 0.99652 0.0
C231 C 0.58839 0.74133 0.39065 0.0
C232 C 0.64195 0.76541 0.36821 0.0
N233 N 0.63989 0.82411 0.38109 0.0
N234 N 0.55165 0.78491 0.41675 0.0
C235 C 0.58648 0.83484 0.41229 0.0
H236 H 0.57761 0.69452 0.38619 0.0
Co237 Co 0.46571 0.78111 0.43773 0.0
C238 C 0.46556 0.89184 0.37867 0.0
O239 O 0.48566 0.85883 0.32478 0.0
N240 N 0.37896 0.77963 0.45641 0.0
C241 C 0.28675 0.81895 0.44978 0.0
C242 C 0.3446 0.82264 0.42682 0.0
C243 C 0.33736 0.74608 0.49294 0.0
N244 N 0.28061 0.7695 0.48957 0.0
O245 O 0.48024 0.77448 0.54393 0.0
H246 H 0.358 0.84914 0.38163 0.0
H247 H 0.34744 0.70345 0.51775 0.0
O248 O 0.46252 0.86751 0.44172 0.0
C249 C 0.52471 0.75389 0.58008 0.0
O250 O 0.57249 0.73444 0.5464 0.0
N251 N 0.46617 0.69857 0.42443 0.0
C252 C 0.44065 0.58295 0.38072 0.0
C253 C 0.45866 0.62548 0.32935 0.0
C254 C 0.4677 0.68416 0.35241 0.0
C255 C 0.46014 0.65511 0.47573 0.0
C256 C 0.44895 0.59627 0.45476 0.0
H257 H 0.4729 0.71923 0.31245 0.0
H258 H 0.45776 0.66596 0.53267 0.0
H259 H 0.57297 0.87898 0.42937 0.0
H260 H 0.67798 0.74249 0.34081 0.0
H261 H 0.25025 0.84572 0.42999 0.0
H262 H 0.45432 0.61682 0.2717 0.0
H263 H 0.43748 0.5641 0.49649 0.0
C264 C 0.24133 0.08834 0.89059 0.0
C265 C 0.26543 0.14192 0.86827 0.0
N266 N 0.3241 0.13992 0.88144 0.0
N267 N 0.28486 0.05163 0.91684 0.0
C268 C 0.33478 0.0865 0.9126 0.0
H269 H 0.19454 0.07753 0.88592 0.0
Co270 Co 0.2811 0.96568 0.93777 0.0
C271 C 0.39188 0.96566 0.87874 0.0
O272 O 0.359 0.98589 0.82483 0.0
N273 N 0.27965 0.87894 0.95641 0.0
C274 C 0.31907 0.7868 0.94976 0.0
C275 C 0.32266 0.84464 0.92676 0.0
C276 C 0.24619 0.8373 0.99298 0.0
N277 N 0.26969 0.78057 0.98969 0.0
O278 O 0.27445 0.9802 1.04397 0.0
H279 H 0.34909 0.85806 0.88152 0.0
H280 H 0.20355 0.84733 1.01782 0.0
O281 O 0.36751 0.96253 0.94176 0.0
C282 C 0.25377 0.02465 1.08011 0.0
O283 O 0.23419 0.07236 1.0464 0.0
N284 N 0.19855 0.96611 0.92445 0.0
C285 C 0.08296 0.94059 0.88072 0.0
C286 C 0.12548 0.95859 0.82935 0.0
C287 C 0.18416 0.96763 0.85243 0.0
C288 C 0.15508 0.96003 0.97575 0.0
C289 C 0.09624 0.94883 0.95477 0.0
H290 H 0.21925 0.97284 0.81248 0.0
H291 H 0.16592 0.95762 1.03268 0.0
H292 H 0.3789 0.073 0.9298 0.0
H293 H 0.24257 0.17792 0.84075 0.0
H294 H 0.34586 0.75035 0.9299 0.0
H295 H 0.11684 0.95426 0.77169 0.0
H296 H 0.06407 0.93733 0.99648 0.0
C297 C 0.41826 0.24132 0.39058 0.0
C298 C 0.36469 0.26543 0.36825 0.0
N299 N 0.36668 0.32409 0.38142 0.0
N300 N 0.45497 0.28485 0.41684 0.0
C301 C 0.42011 0.33477 0.4126 0.0
H302 H 0.42907 0.19454 0.38591 0.0
Co303 Co 0.54093 0.28108 0.43777 0.0
C304 C 0.54095 0.39187 0.37877 0.0
O305 O 0.52073 0.35898 0.32485 0.0
N306 N 0.62767 0.27964 0.45642 0.0
C307 C 0.71981 0.31905 0.44977 0.0
C308 C 0.66197 0.32264 0.42676 0.0
C309 C 0.66931 0.24618 0.49299 0.0
N310 N 0.72604 0.26968 0.4897 0.0
O311 O 0.52641 0.27443 0.54398 0.0
H312 H 0.64855 0.34907 0.38152 0.0
H313 H 0.65928 0.20355 0.51783 0.0
O314 O 0.54408 0.36749 0.44178 0.0
C315 C 0.48196 0.25376 0.58011 0.0
O316 O 0.43424 0.23419 0.54639 0.0
N317 N 0.5405 0.19854 0.42444 0.0
C318 C 0.56601 0.08294 0.3807 0.0
C319 C 0.54802 0.12547 0.32934 0.0
C320 C 0.53898 0.18414 0.35242 0.0
C321 C 0.54658 0.15507 0.47574 0.0
C322 C 0.55777 0.09623 0.45476 0.0
H323 H 0.53377 0.21923 0.31247 0.0
H324 H 0.54899 0.16592 0.53267 0.0
H325 H 0.43361 0.37888 0.4298 0.0
H326 H 0.32869 0.24257 0.34072 0.0
H327 H 0.75627 0.34584 0.42991 0.0
H328 H 0.55235 0.11682 0.27168 0.0
H329 H 0.56927 0.06406 0.49647 0.0
C330 C 0.26533 0.41827 0.89052 0.0
C331 C 0.24121 0.36469 0.86821 0.0
N332 N 0.18255 0.3667 0.88139 0.0
N333 N 0.22181 0.45498 0.91679 0.0
C334 C 0.17188 0.42013 0.91256 0.0
H335 H 0.31212 0.42907 0.88585 0.0
Co336 Co 0.22559 0.54093 0.93773 0.0
C337 C 0.11481 0.54098 0.87873 0.0
O338 O 0.1477 0.52075 0.82481 0.0
N339 N 0.22706 0.62767 0.95639 0.0
C340 C 0.18771 0.71986 0.94971 0.0
C341 C 0.18405 0.66201 0.92676 0.0
C342 C 0.26059 0.66928 0.99292 0.0
N343 N 0.23715 0.72602 0.98953 0.0
O344 O 0.23224 0.52642 1.04394 0.0
H345 H 0.15757 0.64858 0.88156 0.0
H346 H 0.30322 0.65923 1.01777 0.0
O347 O 0.13918 0.54411 0.94175 0.0
C348 C 0.2529 0.48196 1.08007 0.0
O349 O 0.27245 0.43424 1.04635 0.0
N350 N 0.30814 0.54048 0.9244 0.0
C351 C 0.42373 0.566 0.88065 0.0
C352 C 0.3812 0.54802 0.82928 0.0
C353 C 0.32252 0.53898 0.85238 0.0
C354 C 0.35162 0.54654 0.97569 0.0
C355 C 0.41046 0.55773 0.9547 0.0
H356 H 0.28743 0.53379 0.81243 0.0
H357 H 0.34078 0.54893 1.03263 0.0
H358 H 0.12777 0.43364 0.92977 0.0
H359 H 0.26407 0.32869 0.84068 0.0
H360 H 0.16093 0.75635 0.92991 0.0
H361 H 0.38983 0.55237 0.77163 0.0
H362 H 0.44263 0.56922 0.99641 0.0
C363 C 0.08836 0.2653 0.39054 0.0
C364 C 0.14194 0.24118 0.36823 0.0
N365 N 0.13993 0.18252 0.38142 0.0
N366 N 0.05165 0.22178 0.41682 0.0
C367 C 0.08651 0.17186 0.41259 0.0
H368 H 0.07756 0.31208 0.38586 0.0
Co369 Co 0.96569 0.22557 0.43775 0.0
C370 C 0.96565 0.1148 0.37873 0.0
O371 O 0.98589 0.14769 0.32482 0.0
N372 N 0.87895 0.22705 0.45641 0.0
C373 C 0.78675 0.1877 0.44973 0.0
C374 C 0.84461 0.18403 0.42679 0.0
C375 C 0.83734 0.26058 0.49294 0.0
N376 N 0.7806 0.23714 0.48954 0.0
O377 O 0.98021 0.23222 0.54396 0.0
H378 H 0.85804 0.15755 0.38159 0.0
H379 H 0.84739 0.30321 0.51778 0.0
O380 O 0.96252 0.13917 0.44175 0.0
C381 C 0.02467 0.25288 0.58009 0.0
O382 O 0.07239 0.27243 0.54637 0.0
N383 N 0.96614 0.30811 0.42443 0.0
C384 C 0.9406 0.4237 0.38069 0.0
C385 C 0.95859 0.38117 0.32932 0.0
C386 C 0.96764 0.3225 0.35241 0.0
C387 C 0.96008 0.3516 0.47572 0.0
C388 C 0.94888 0.41043 0.45474 0.0
H389 H 0.97284 0.2874 0.31246 0.0
H390 H 0.95769 0.34076 0.53266 0.0
H391 H 0.07299 0.12775 0.4298 0.0
H392 H 0.17794 0.26403 0.3407 0.0
H393 H 0.75027 0.16092 0.42992 0.0
H394 H 0.95425 0.3898 0.27167 0.0
H395 H 0.93739 0.4426 0.49645 0.0
C396 C 0.24132 0.41827 0.34945 0.0
C397 C 0.26539 0.3647 0.3719 0.0
N398 N 0.32409 0.36674 0.35903 0.0
N399 N 0.28491 0.45498 0.32336 0.0
C400 C 0.33484 0.42014 0.32783 0.0
H401 H 0.19452 0.42905 0.35389 0.0
Co402 Co 0.28115 0.54093 0.3024 0.0
C403 C 0.3919 0.54102 0.36147 0.0
O404 O 0.35896 0.52088 0.41539 0.0
N405 N 0.2797 0.62768 0.28374 0.0
C406 C 0.31908 0.71983 0.29038 0.0
C407 C 0.3227 0.662 0.31339 0.0
C408 C 0.24622 0.6693 0.24717 0.0
N409 N 0.26971 0.72604 0.25045 0.0
O410 O 0.27453 0.52641 0.19619 0.0
H411 H 0.34913 0.64859 0.35864 0.0
H412 H 0.20359 0.65926 0.22234 0.0
O413 O 0.36756 0.54409 0.29842 0.0
C414 C 0.25391 0.48195 0.16003 0.0
O415 O 0.23443 0.43418 0.19371 0.0
N416 N 0.19861 0.54049 0.31569 0.0
C417 C 0.08299 0.56598 0.35938 0.0
C418 C 0.1255 0.54798 0.41076 0.0
C419 C 0.18418 0.53895 0.3877 0.0
C420 C 0.15514 0.54656 0.26438 0.0
C421 C 0.0963 0.55774 0.28533 0.0
H422 H 0.21926 0.53374 0.42767 0.0
H423 H 0.16601 0.54897 0.20745 0.0
H424 H 0.37899 0.43363 0.31076 0.0
H425 H 0.24246 0.32869 0.3993 0.0
H426 H 0.34586 0.7563 0.31024 0.0
H427 H 0.11683 0.5523 0.46842 0.0
H428 H 0.06414 0.56924 0.24361 0.0
C429 C 0.08837 0.24133 0.84949 0.0
C430 C 0.14193 0.2654 0.87192 0.0
N431 N 0.13989 0.3241 0.85902 0.0
N432 N 0.05165 0.28491 0.82338 0.0
C433 C 0.08649 0.33483 0.82782 0.0
H434 H 0.07758 0.19453 0.85395 0.0
Co435 Co 0.96569 0.28114 0.80242 0.0
C436 C 0.96561 0.39188 0.8615 0.0
O437 O 0.98577 0.35895 0.91541 0.0
N438 N 0.87895 0.27968 0.78375 0.0
C439 C 0.78679 0.31907 0.79039 0.0
C440 C 0.84463 0.32268 0.8134 0.0
C441 C 0.83731 0.2462 0.74719 0.0
N442 N 0.78057 0.26969 0.75047 0.0
O443 O 0.98022 0.27451 0.69621 0.0
H444 H 0.85803 0.34911 0.85865 0.0
H445 H 0.84736 0.20356 0.72235 0.0
O446 O 0.96253 0.36754 0.79846 0.0
C447 C 0.02468 0.2539 0.66005 0.0
O448 O 0.07244 0.2344 0.69373 0.0
N449 N 0.96614 0.1986 0.8157 0.0
C450 C 0.94063 0.08299 0.85938 0.0
C451 C 0.95865 0.1255 0.91076 0.0
C452 C 0.96768 0.18418 0.88771 0.0
C453 C 0.96006 0.15514 0.76438 0.0
C454 C 0.94888 0.0963 0.78533 0.0
H455 H 0.97289 0.21926 0.92768 0.0
H456 H 0.95765 0.166 0.70745 0.0
H457 H 0.07299 0.37897 0.81073 0.0
H458 H 0.17796 0.24249 0.89932 0.0
H459 H 0.75032 0.34584 0.81026 0.0
H460 H 0.95433 0.11684 0.96842 0.0
H461 H 0.93737 0.06414 0.7436 0.0
C462 C 0.26532 0.08835 0.34951 0.0
C463 C 0.24124 0.14191 0.37195 0.0
N464 N 0.18254 0.13986 0.35906 0.0
N465 N 0.22174 0.05162 0.32341 0.0
C466 C 0.17181 0.08646 0.32786 0.0
H467 H 0.31213 0.07757 0.35397 0.0
Co468 Co 0.22553 0.96568 0.30244 0.0
C469 C 0.1148 0.96557 0.36152 0.0
O470 O 0.14774 0.98572 0.41543 0.0
N471 N 0.22702 0.87893 0.28376 0.0
C472 C 0.1877 0.78672 0.29041 0.0
C473 C 0.18401 0.84458 0.31336 0.0
C474 C 0.26057 0.83733 0.24723 0.0
N475 N 0.23715 0.78058 0.25061 0.0
O476 O 0.23216 0.9802 0.19623 0.0
H477 H 0.15752 0.85798 0.35856 0.0
H478 H 0.3032 0.8474 0.22241 0.0
O479 O 0.13913 0.96249 0.29847 0.0
C480 C 0.25275 0.02467 0.16007 0.0
O481 O 0.27222 0.07244 0.19375 0.0
N482 N 0.30808 0.96614 0.31572 0.0
C483 C 0.42368 0.94063 0.35942 0.0
C484 C 0.38117 0.95863 0.4108 0.0
C485 C 0.32248 0.96767 0.38774 0.0
C486 C 0.35155 0.96009 0.26441 0.0
C487 C 0.41039 0.9489 0.28537 0.0
H488 H 0.2874 0.97287 0.4277 0.0
H489 H 0.34069 0.9577 0.20748 0.0
H490 H 0.12767 0.07295 0.31077 0.0
H491 H 0.26416 0.17794 0.39935 0.0
H492 H 0.16093 0.75023 0.31022 0.0
H493 H 0.38982 0.95429 0.46845 0.0
H494 H 0.44255 0.93741 0.24365 0.0
C495 C 0.41825 0.26531 0.84952 0.0
C496 C 0.36469 0.24123 0.87196 0.0
N497 N 0.36674 0.18253 0.85906 0.0
N498 N 0.45498 0.22173 0.8234 0.0
C499 C 0.42015 0.1718 0.82785 0.0
H500 H 0.42903 0.31212 0.85398 0.0
Co501 Co 0.54093 0.22553 0.80244 0.0
C502 C 0.54104 0.11479 0.86149 0.0
O503 O 0.5209 0.14774 0.91542 0.0
N504 N 0.62768 0.22701 0.78377 0.0
C505 C 0.71989 0.18769 0.79043 0.0
C506 C 0.66203 0.184 0.81338 0.0
C507 C 0.66928 0.26055 0.74724 0.0
N508 N 0.72603 0.23713 0.75063 0.0
O509 O 0.52641 0.23215 0.69623 0.0
H510 H 0.64863 0.15752 0.85858 0.0
H511 H 0.65921 0.30318 0.72241 0.0
O512 O 0.54412 0.13913 0.79845 0.0
C513 C 0.48194 0.25274 0.66007 0.0
O514 O 0.43416 0.27221 0.69375 0.0
N515 N 0.54046 0.30807 0.81574 0.0
C516 C 0.56597 0.42367 0.85944 0.0
C517 C 0.54797 0.38116 0.91082 0.0
C518 C 0.53893 0.32248 0.88775 0.0
C519 C 0.54651 0.35153 0.76443 0.0
C520 C 0.5577 0.41037 0.78539 0.0
H521 H 0.53374 0.2874 0.92771 0.0
H522 H 0.5489 0.34068 0.7075 0.0
H523 H 0.43365 0.12766 0.81076 0.0
H524 H 0.32866 0.26414 0.89936 0.0
H525 H 0.75639 0.16092 0.81024 0.0
H526 H 0.55231 0.38981 0.96848 0.0
H527 H 0.56918 0.44254 0.74367 0.0
loop_
_geom_bond_atom_site_label_1
_geom_bond_atom_site_label_2
_geom_bond_distance
_geom_bond_site_symmetry_2
_ccdc_geom_bond_type
C0 C1 1.351 . S
C0 N3 1.368 . S
C0 H5 0.931 . S
C1 C0 1.351 . S
C1 N2 1.373 . S
C1 H29 0.930 . S
N2 C1 1.373 . S
N2 C4 1.340 . S
N3 C0 1.368 . S
N3 C4 1.321 . S
N3 Co6 2.135 1_565 S
C4 N2 1.340 . S
C4 N3 1.321 . S
C4 H28 0.930 . S
H5 C0 0.931 . S
Co6 N3 2.135 1_545 S
Co6 N9 2.121 . S
Co6 O14 2.055 . S
Co6 O17 2.039 . S
Co6 N20 2.140 . S
C7 O8 1.227 . S
C7 O17 1.265 . S
O8 C7 1.227 . S
N9 Co6 2.121 . S
N9 C11 1.375 . S
N9 C12 1.313 . S
C10 C11 1.338 . S
C10 N13 1.377 . S
C10 H30 0.930 . S
C11 N9 1.375 . S
C11 C10 1.338 . S
C11 H15 0.931 . S
C12 N9 1.313 . S
C12 N13 1.344 . S
C12 H16 0.930 . S
N13 C10 1.377 . S
N13 C12 1.344 . S
O14 Co6 2.055 . S
O14 C18 1.253 . S
H15 C11 0.931 . S
H16 C12 0.930 . S
O17 Co6 2.039 . S
O17 C7 1.265 . S
C18 O14 1.253 . S
C18 O19 1.227 . S
O19 C18 1.227 . S
N20 Co6 2.140 . S
N20 C23 1.346 . S
N20 C24 1.345 . S
C21 C22 1.387 . S
C21 C25 1.391 . S
C22 C21 1.387 . S
C22 C23 1.369 . S
C22 H31 0.926 1_545 S
C23 N20 1.346 . S
C23 C22 1.369 . S
C23 H26 0.928 . S
C24 N20 1.345 . S
C24 C25 1.371 . S
C24 H27 0.931 . S
C25 C21 1.391 . S
C25 C24 1.371 . S
C25 H32 0.930 . S
H26 C23 0.928 . S
H27 C24 0.931 . S
H28 C4 0.930 . S
H29 C1 0.930 . S
H30 C10 0.930 . S
H31 C22 0.926 1_565 S
H32 C25 0.930 . S
C33 C34 1.351 . S
C33 N36 1.368 . S
C33 H38 0.931 . S
C34 C33 1.351 . S
C34 N35 1.373 . S
C34 H62 0.930 . S
N35 C34 1.373 . S
N35 C37 1.340 . S
N36 C33 1.368 . S
N36 C37 1.321 . S
N36 Co39 2.135 . S
C37 N35 1.340 . S
C37 N36 1.321 . S
C37 H61 0.930 . S
H38 C33 0.931 . S
Co39 N36 2.135 . S
Co39 N42 2.121 . S
Co39 O47 2.055 . S
Co39 O50 2.039 . S
Co39 N53 2.140 . S
C40 O41 1.227 . S
C40 O50 1.265 . S
O41 C40 1.227 . S
N42 Co39 2.121 . S
N42 C44 1.375 . S
N42 C45 1.313 . S
C43 C44 1.338 . S
C43 N46 1.377 . S
C43 H63 0.930 . S
C44 N42 1.375 . S
C44 C43 1.338 . S
C44 H48 0.931 . S
C45 N42 1.313 . S
C45 N46 1.344 . S
C45 H49 0.930 . S
N46 C43 1.377 . S
N46 C45 1.344 . S
O47 Co39 2.055 . S
O47 C51 1.253 . S
H48 C44 0.931 . S
H49 C45 0.930 . S
O50 Co39 2.039 . S
O50 C40 1.265 . S
C51 O47 1.253 . S
C51 O52 1.227 . S
O52 C51 1.227 . S
N53 Co39 2.140 . S
N53 C56 1.346 . S
N53 C57 1.345 . S
C54 C55 1.387 . S
C54 C58 1.391 . S
C55 C54 1.387 . S
C55 C56 1.369 . S
C55 H64 0.929 . S
C56 N53 1.346 . S
C56 C55 1.369 . S
C56 H59 0.928 . S
C57 N53 1.345 . S
C57 C58 1.371 . S
C57 H60 0.931 . S
C58 C54 1.391 . S
C58 C57 1.371 . S
C58 H65 0.930 . S
H59 C56 0.928 . S
H60 C57 0.931 . S
H61 C37 0.930 . S
H62 C34 0.930 . S
H63 C43 0.930 . S
H64 C55 0.929 . S
H65 C58 0.930 . S
C66 C67 1.351 . S
C66 N69 1.368 . S
C66 H71 0.931 . S
C67 C66 1.351 . S
C67 N68 1.373 . S
C67 H95 0.930 . S
N68 C67 1.373 . S
N68 C70 1.340 . S
N69 C66 1.368 . S
N69 C70 1.321 . S
N69 Co72 2.135 . S
C70 N68 1.340 . S
C70 N69 1.321 . S
C70 H94 0.930 . S
H71 C66 0.931 . S
Co72 N69 2.135 . S
Co72 N75 2.121 . S
Co72 O80 2.055 . S
Co72 O83 2.039 . S
Co72 N86 2.140 . S
C73 O74 1.227 . S
C73 O83 1.265 . S
O74 C73 1.227 . S
N75 Co72 2.121 . S
N75 C77 1.375 . S
N75 C78 1.313 . S
C76 C77 1.338 . S
C76 N79 1.377 . S
C76 H96 0.930 . S
C77 N75 1.375 . S
C77 C76 1.338 . S
C77 H81 0.931 . S
C78 N75 1.313 . S
C78 N79 1.344 . S
C78 H82 0.930 . S
N79 C76 1.377 . S
N79 C78 1.344 . S
O80 Co72 2.055 . S
O80 C84 1.253 . S
H81 C77 0.931 . S
H82 C78 0.930 . S
O83 Co72 2.039 . S
O83 C73 1.265 . S
C84 O80 1.253 . S
C84 O85 1.227 . S
O85 C84 1.227 . S
N86 Co72 2.140 . S
N86 C89 1.346 . S
N86 C90 1.345 . S
C87 C88 1.387 . S
C87 C91 1.391 . S
C88 C87 1.387 . S
C88 C89 1.369 . S
C88 H97 0.929 . S
C89 N86 1.346 . S
C89 C88 1.369 . S
C89 H92 0.928 . S
C90 N86 1.345 . S
C90 C91 1.371 . S
C90 H93 0.931 . S
C91 C87 1.391 . S
C91 C90 1.371 . S
C91 H98 0.930 . S
H92 C89 0.928 . S
H93 C90 0.931 . S
H94 C70 0.930 . S
H95 C67 0.930 . S
H96 C76 0.930 . S
H97 C88 0.929 . S
H98 C91 0.930 . S
C99 C100 1.351 . S
C99 N102 1.368 . S
C99 H104 0.931 . S
C100 C99 1.351 . S
C100 N101 1.373 . S
C100 H128 0.930 . S
N101 C100 1.373 . S
N101 C103 1.340 . S
N102 C99 1.368 . S
N102 C103 1.321 . S
N102 Co105 2.135 1_655 S
C103 N101 1.340 . S
C103 N102 1.321 . S
C103 H127 0.930 . S
H104 C99 0.931 . S
Co105 N102 2.135 1_455 S
Co105 N108 2.121 . S
Co105 O113 2.055 . S
Co105 O116 2.039 . S
Co105 N119 2.140 . S
C106 O107 1.227 . S
C106 O116 1.265 . S
O107 C106 1.227 . S
N108 Co105 2.121 . S
N108 C110 1.375 . S
N108 C111 1.313 . S
C109 C110 1.338 . S
C109 N112 1.377 . S
C109 H129 0.930 . S
C110 N108 1.375 . S
C110 C109 1.338 . S
C110 H114 0.931 . S
C111 N108 1.313 . S
C111 N112 1.344 . S
C111 H115 0.930 . S
N112 C109 1.377 . S
N112 C111 1.344 . S
O113 Co105 2.055 . S
O113 C117 1.253 . S
H114 C110 0.931 . S
H115 C111 0.930 . S
O116 Co105 2.039 . S
O116 C106 1.265 . S
C117 O113 1.253 . S
C117 O118 1.227 . S
O118 C117 1.227 . S
N119 Co105 2.140 . S
N119 C122 1.346 . S
N119 C123 1.345 . S
C120 C121 1.387 . S
C120 C124 1.391 . S
C121 C120 1.387 . S
C121 C122 1.369 . S
C121 H130 0.926 1_455 S
C122 N119 1.346 . S
C122 C121 1.369 . S
C122 H125 0.928 . S
C123 N119 1.345 . S
C123 C124 1.371 . S
C123 H126 0.931 . S
C124 C120 1.391 . S
C124 C123 1.371 . S
C124 H131 0.930 . S
H125 C122 0.928 . S
H126 C123 0.931 . S
H127 C103 0.930 . S
H128 C100 0.930 . S
H129 C109 0.930 . S
H130 C121 0.926 1_655 S
H131 C124 0.930 . S
C132 C133 1.351 . S
C132 N135 1.368 . S
C132 H137 0.931 . S
C133 C132 1.351 . S
C133 N134 1.373 . S
C133 H161 0.930 . S
N134 C133 1.373 . S
N134 C136 1.340 . S
N135 C132 1.368 . S
N135 C136 1.321 . S
N135 Co138 2.135 . S
C136 N134 1.340 . S
C136 N135 1.321 . S
C136 H160 0.930 . S
H137 C132 0.931 . S
Co138 N135 2.135 . S
Co138 N141 2.121 . S
Co138 O146 2.055 . S
Co138 O149 2.039 . S
Co138 N152 2.140 . S
C139 O140 1.227 . S
C139 O149 1.265 . S
O140 C139 1.227 . S
N141 Co138 2.121 . S
N141 C143 1.375 . S
N141 C144 1.313 . S
C142 C143 1.338 . S
C142 N145 1.377 . S
C142 H162 0.930 . S
C143 N141 1.375 . S
C143 C142 1.338 . S
C143 H147 0.931 . S
C144 N141 1.313 . S
C144 N145 1.344 . S
C144 H148 0.930 . S
N145 C142 1.377 . S
N145 C144 1.344 . S
O146 Co138 2.055 . S
O146 C150 1.253 . S
H147 C143 0.931 . S
H148 C144 0.930 . S
O149 Co138 2.039 . S
O149 C139 1.265 . S
C150 O146 1.253 . S
C150 O151 1.227 . S
O151 C150 1.227 . S
N152 Co138 2.140 . S
N152 C155 1.346 . S
N152 C156 1.345 . S
C153 C154 1.387 . S
C153 C157 1.391 . S
C154 C153 1.387 . S
C154 C155 1.369 . S
C154 H163 0.929 . S
C155 N152 1.346 . S
C155 C154 1.369 . S
C155 H158 0.928 . S
C156 N152 1.345 . S
C156 C157 1.371 . S
C156 H159 0.931 . S
C157 C153 1.391 . S
C157 C156 1.371 . S
C157 H164 0.930 . S
H158 C155 0.928 . S
H159 C156 0.931 . S
H160 C136 0.930 . S
H161 C133 0.930 . S
H162 C142 0.930 . S
H163 C154 0.929 . S
H164 C157 0.930 . S
C165 C166 1.351 . S
C165 N168 1.368 . S
C165 H170 0.931 . S
C166 C165 1.351 . S
C166 N167 1.373 . S
C166 H194 0.930 . S
N167 C166 1.373 . S
N167 C169 1.340 . S
N168 C165 1.368 . S
N168 C169 1.321 . S
N168 Co171 2.135 1_655 S
C169 N167 1.340 . S
C169 N168 1.321 . S
C169 H193 0.930 . S
H170 C165 0.931 . S
Co171 N168 2.135 1_455 S
Co171 N174 2.121 . S
Co171 O179 2.055 . S
Co171 O182 2.039 . S
Co171 N185 2.140 . S
C172 O173 1.227 . S
C172 O182 1.265 . S
O173 C172 1.227 . S
N174 Co171 2.121 . S
N174 C176 1.375 . S
N174 C177 1.313 . S
C175 C176 1.338 . S
C175 N178 1.377 . S
C175 H195 0.930 . S
C176 N174 1.375 . S
C176 C175 1.338 . S
C176 H180 0.931 . S
C177 N174 1.313 . S
C177 N178 1.344 . S
C177 H181 0.930 . S
N178 C175 1.377 . S
N178 C177 1.344 . S
O179 Co171 2.055 . S
O179 C183 1.253 . S
H180 C176 0.931 . S
H181 C177 0.930 . S
O182 Co171 2.039 . S
O182 C172 1.265 . S
C183 O179 1.253 . S
C183 O184 1.227 . S
O184 C183 1.227 . S
N185 Co171 2.140 . S
N185 C188 1.346 . S
N185 C189 1.345 . S
C186 C187 1.387 . S
C186 C190 1.391 . S
C187 C186 1.387 . S
C187 C188 1.369 . S
C187 H196 0.926 1_455 S
C188 N185 1.346 . S
C188 C187 1.369 . S
C188 H191 0.928 . S
C189 N185 1.345 . S
C189 C190 1.371 . S
C189 H192 0.931 . S
C190 C186 1.391 . S
C190 C189 1.371 . S
C190 H197 0.930 . S
H191 C188 0.928 . S
H192 C189 0.931 . S
H193 C169 0.930 . S
H194 C166 0.930 . S
H195 C175 0.930 . S
H196 C187 0.926 1_655 S
H197 C190 0.930 . S
C198 C199 1.351 . S
C198 N201 1.368 . S
C198 H203 0.931 . S
C199 C198 1.351 . S
C199 N200 1.373 . S
C199 H227 0.930 . S
N200 C199 1.373 . S
N200 C202 1.340 . S
N201 C198 1.368 . S
N201 C202 1.321 . S
N201 Co204 2.135 1_565 S
C202 N200 1.340 . S
C202 N201 1.321 . S
C202 H226 0.930 . S
H203 C198 0.931 . S
Co204 N201 2.135 1_545 S
Co204 N207 2.121 . S
Co204 O212 2.055 . S
Co204 O215 2.039 . S
Co204 N218 2.140 . S
C205 O206 1.227 . S
C205 O215 1.265 . S
O206 C205 1.227 . S
N207 Co204 2.121 . S
N207 C209 1.375 . S
N207 C210 1.313 . S
C208 C209 1.338 . S
C208 N211 1.377 . S
C208 H228 0.930 . S
C209 N207 1.375 . S
C209 C208 1.338 . S
C209 H213 0.931 . S
C210 N207 1.313 . S
C210 N211 1.344 . S
C210 H214 0.930 . S
N211 C208 1.377 . S
N211 C210 1.344 . S
O212 Co204 2.055 . S
O212 C216 1.253 . S
H213 C209 0.931 . S
H214 C210 0.930 . S
O215 Co204 2.039 . S
O215 C205 1.265 . S
C216 O212 1.253 . S
C216 O217 1.227 . S
O217 C216 1.227 . S
N218 Co204 2.140 . S
N218 C221 1.346 . S
N218 C222 1.345 . S
C219 C220 1.387 . S
C219 C223 1.391 . S
C220 C219 1.387 . S
C220 C221 1.369 . S
C220 H229 0.926 1_545 S
C221 N218 1.346 . S
C221 C220 1.369 . S
C221 H224 0.928 . S
C222 N218 1.345 . S
C222 C223 1.371 . S
C222 H225 0.931 . S
C223 C219 1.391 . S
C223 C222 1.371 . S
C223 H230 0.930 . S
H224 C221 0.928 . S
H225 C222 0.931 . S
H226 C202 0.930 . S
H227 C199 0.930 . S
H228 C208 0.930 . S
H229 C220 0.926 1_565 S
H230 C223 0.930 . S
C231 C232 1.351 . S
C231 N234 1.368 . S
C231 H236 0.931 . S
C232 C231 1.351 . S
C232 N233 1.373 . S
C232 H260 0.930 . S
N233 C232 1.373 . S
N233 C235 1.340 . S
N234 C231 1.368 . S
N234 C235 1.321 . S
N234 Co237 2.135 . S
C235 N233 1.340 . S
C235 N234 1.321 . S
C235 H259 0.930 . S
H236 C231 0.931 . S
Co237 N234 2.135 . S
Co237 N240 2.121 . S
Co237 O245 2.055 . S
Co237 O248 2.039 . S
Co237 N251 2.140 . S
C238 O239 1.227 . S
C238 O248 1.265 . S
O239 C238 1.227 . S
N240 Co237 2.121 . S
N240 C242 1.375 . S
N240 C243 1.313 . S
C241 C242 1.338 . S
C241 N244 1.377 . S
C241 H261 0.930 . S
C242 N240 1.375 . S
C242 C241 1.338 . S
C242 H246 0.931 . S
C243 N240 1.313 . S
C243 N244 1.344 . S
C243 H247 0.930 . S
N244 C241 1.377 . S
N244 C243 1.344 . S
O245 Co237 2.055 . S
O245 C249 1.253 . S
H246 C242 0.931 . S
H247 C243 0.930 . S
O248 Co237 2.039 . S
O248 C238 1.265 . S
C249 O245 1.253 . S
C249 O250 1.227 . S
O250 C249 1.227 . S
N251 Co237 2.140 . S
N251 C254 1.346 . S
N251 C255 1.345 . S
C252 C253 1.387 . S
C252 C256 1.391 . S
C253 C252 1.387 . S
C253 C254 1.369 . S
C253 H262 0.929 . S
C254 N251 1.346 . S
C254 C253 1.369 . S
C254 H257 0.928 . S
C255 N251 1.345 . S
C255 C256 1.371 . S
C255 H258 0.931 . S
C256 C252 1.391 . S
C256 C255 1.371 . S
C256 H263 0.930 . S
H257 C254 0.928 . S
H258 C255 0.931 . S
H259 C235 0.930 . S
H260 C232 0.930 . S
H261 C241 0.930 . S
H262 C253 0.929 . S
H263 C256 0.930 . S
C264 C265 1.351 . S
C264 N267 1.368 . S
C264 H269 0.931 . S
C265 C264 1.351 . S
C265 N266 1.373 . S
C265 H293 0.930 . S
N266 C265 1.373 . S
N266 C268 1.340 . S
N267 C264 1.368 . S
N267 C268 1.321 . S
N267 Co270 2.135 1_545 S
C268 N266 1.340 . S
C268 N267 1.321 . S
C268 H292 0.930 . S
H269 C264 0.931 . S
Co270 N267 2.135 1_565 S
Co270 N273 2.121 . S
Co270 O278 2.055 . S
Co270 O281 2.039 . S
Co270 N284 2.140 . S
C271 O272 1.227 . S
C271 O281 1.265 . S
O272 C271 1.227 . S
N273 Co270 2.121 . S
N273 C275 1.375 . S
N273 C276 1.313 . S
C274 C275 1.338 . S
C274 N277 1.377 . S
C274 H294 0.930 . S
C275 N273 1.375 . S
C275 C274 1.338 . S
C275 H279 0.931 . S
C276 N273 1.313 . S
C276 N277 1.344 . S
C276 H280 0.930 . S
N277 C274 1.377 . S
N277 C276 1.344 . S
O278 Co270 2.055 . S
O278 C282 1.253 . S
H279 C275 0.931 . S
H280 C276 0.930 . S
O281 Co270 2.039 . S
O281 C271 1.265 . S
C282 O278 1.253 . S
C282 O283 1.227 . S
O283 C282 1.227 . S
N284 Co270 2.140 . S
N284 C287 1.346 . S
N284 C288 1.345 . S
C285 C286 1.387 . S
C285 C289 1.391 . S
C286 C285 1.387 . S
C286 C287 1.369 . S
C286 H295 0.926 1_565 S
C287 N284 1.346 . S
C287 C286 1.369 . S
C287 H290 0.928 . S
C288 N284 1.345 . S
C288 C289 1.371 . S
C288 H291 0.931 . S
C289 C285 1.391 . S
C289 C288 1.371 . S
C289 H296 0.930 . S
H290 C287 0.928 . S
H291 C288 0.931 . S
H292 C268 0.930 . S
H293 C265 0.930 . S
H294 C274 0.930 . S
H295 C286 0.926 1_545 S
H296 C289 0.930 . S
C297 C298 1.351 . S
C297 N300 1.368 . S
C297 H302 0.931 . S
C298 C297 1.351 . S
C298 N299 1.373 . S
C298 H326 0.930 . S
N299 C298 1.373 . S
N299 C301 1.340 . S
N300 C297 1.368 . S
N300 C301 1.321 . S
N300 Co303 2.135 . S
C301 N299 1.340 . S
C301 N300 1.321 . S
C301 H325 0.930 . S
H302 C297 0.931 . S
Co303 N300 2.135 . S
Co303 N306 2.121 . S
Co303 O311 2.055 . S
Co303 O314 2.039 . S
Co303 N317 2.140 . S
C304 O305 1.227 . S
C304 O314 1.265 . S
O305 C304 1.227 . S
N306 Co303 2.121 . S
N306 C308 1.375 . S
N306 C309 1.313 . S
C307 C308 1.338 . S
C307 N310 1.377 . S
C307 H327 0.930 . S
C308 N306 1.375 . S
C308 C307 1.338 . S
C308 H312 0.931 . S
C309 N306 1.313 . S
C309 N310 1.344 . S
C309 H313 0.930 . S
N310 C307 1.377 . S
N310 C309 1.344 . S
O311 Co303 2.055 . S
O311 C315 1.253 . S
H312 C308 0.931 . S
H313 C309 0.930 . S
O314 Co303 2.039 . S
O314 C304 1.265 . S
C315 O311 1.253 . S
C315 O316 1.227 . S
O316 C315 1.227 . S
N317 Co303 2.140 . S
N317 C320 1.346 . S
N317 C321 1.345 . S
C318 C319 1.387 . S
C318 C322 1.391 . S
C319 C318 1.387 . S
C319 C320 1.369 . S
C319 H328 0.929 . S
C320 N317 1.346 . S
C320 C319 1.369 . S
C320 H323 0.928 . S
C321 N317 1.345 . S
C321 C322 1.371 . S
C321 H324 0.931 . S
C322 C318 1.391 . S
C322 C321 1.371 . S
C322 H329 0.930 . S
H323 C320 0.928 . S
H324 C321 0.931 . S
H325 C301 0.930 . S
H326 C298 0.930 . S
H327 C307 0.930 . S
H328 C319 0.929 . S
H329 C322 0.930 . S
C330 C331 1.351 . S
C330 N333 1.368 . S
C330 H335 0.931 . S
C331 C330 1.351 . S
C331 N332 1.373 . S
C331 H359 0.930 . S
N332 C331 1.373 . S
N332 C334 1.340 . S
N333 C330 1.368 . S
N333 C334 1.321 . S
N333 Co336 2.135 . S
C334 N332 1.340 . S
C334 N333 1.321 . S
C334 H358 0.930 . S
H335 C330 0.931 . S
Co336 N333 2.135 . S
Co336 N339 2.121 . S
Co336 O344 2.055 . S
Co336 O347 2.039 . S
Co336 N350 2.140 . S
C337 O338 1.227 . S
C337 O347 1.265 . S
O338 C337 1.227 . S
N339 Co336 2.121 . S
N339 C341 1.375 . S
N339 C342 1.313 . S
C340 C341 1.338 . S
C340 N343 1.377 . S
C340 H360 0.930 . S
C341 N339 1.375 . S
C341 C340 1.338 . S
C341 H345 0.931 . S
C342 N339 1.313 . S
C342 N343 1.344 . S
C342 H346 0.930 . S
N343 C340 1.377 . S
N343 C342 1.344 . S
O344 Co336 2.055 . S
O344 C348 1.253 . S
H345 C341 0.931 . S
H346 C342 0.930 . S
O347 Co336 2.039 . S
O347 C337 1.265 . S
C348 O344 1.253 . S
C348 O349 1.227 . S
O349 C348 1.227 . S
N350 Co336 2.140 . S
N350 C353 1.346 . S
N350 C354 1.345 . S
C351 C352 1.387 . S
C351 C355 1.391 . S
C352 C351 1.387 . S
C352 C353 1.369 . S
C352 H361 0.929 . S
C353 N350 1.346 . S
C353 C352 1.369 . S
C353 H356 0.928 . S
C354 N350 1.345 . S
C354 C355 1.371 . S
C354 H357 0.931 . S
C355 C351 1.391 . S
C355 C354 1.371 . S
C355 H362 0.930 . S
H356 C353 0.928 . S
H357 C354 0.931 . S
H358 C334 0.930 . S
H359 C331 0.930 . S
H360 C340 0.930 . S
H361 C352 0.929 . S
H362 C355 0.930 . S
C363 C364 1.351 . S
C363 N366 1.368 . S
C363 H368 0.931 . S
C364 C363 1.351 . S
C364 N365 1.373 . S
C364 H392 0.930 . S
N365 C364 1.373 . S
N365 C367 1.340 . S
N366 C363 1.368 . S
N366 C367 1.321 . S
N366 Co369 2.135 1_455 S
C367 N365 1.340 . S
C367 N366 1.321 . S
C367 H391 0.930 . S
H368 C363 0.931 . S
Co369 N366 2.135 1_655 S
Co369 N372 2.121 . S
Co369 O377 2.055 . S
Co369 O380 2.039 . S
Co369 N383 2.140 . S
C370 O371 1.227 . S
C370 O380 1.265 . S
O371 C370 1.227 . S
N372 Co369 2.121 . S
N372 C374 1.375 . S
N372 C375 1.313 . S
C373 C374 1.338 . S
C373 N376 1.377 . S
C373 H393 0.930 . S
C374 N372 1.375 . S
C374 C373 1.338 . S
C374 H378 0.931 . S
C375 N372 1.313 . S
C375 N376 1.344 . S
C375 H379 0.930 . S
N376 C373 1.377 . S
N376 C375 1.344 . S
O377 Co369 2.055 . S
O377 C381 1.253 . S
H378 C374 0.931 . S
H379 C375 0.930 . S
O380 Co369 2.039 . S
O380 C370 1.265 . S
C381 O377 1.253 . S
C381 O382 1.227 . S
O382 C381 1.227 . S
N383 Co369 2.140 . S
N383 C386 1.346 . S
N383 C387 1.345 . S
C384 C385 1.387 . S
C384 C388 1.391 . S
C385 C384 1.387 . S
C385 C386 1.369 . S
C385 H394 0.926 1_655 S
C386 N383 1.346 . S
C386 C385 1.369 . S
C386 H389 0.928 . S
C387 N383 1.345 . S
C387 C388 1.371 . S
C387 H390 0.931 . S
C388 C384 1.391 . S
C388 C387 1.371 . S
C388 H395 0.930 . S
H389 C386 0.928 . S
H390 C387 0.931 . S
H391 C367 0.930 . S
H392 C364 0.930 . S
H393 C373 0.930 . S
H394 C385 0.926 1_455 S
H395 C388 0.930 . S
C396 C397 1.351 . S
C396 N399 1.368 . S
C396 H401 0.931 . S
C397 C396 1.351 . S
C397 N398 1.373 . S
C397 H425 0.930 . S
N398 C397 1.373 . S
N398 C400 1.340 . S
N399 C396 1.368 . S
N399 C400 1.321 . S
N399 Co402 2.135 . S
C400 N398 1.340 . S
C400 N399 1.321 . S
C400 H424 0.930 . S
H401 C396 0.931 . S
Co402 N399 2.135 . S
Co402 N405 2.121 . S
Co402 O410 2.055 . S
Co402 O413 2.039 . S
Co402 N416 2.140 . S
C403 O404 1.227 . S
C403 O413 1.265 . S
O404 C403 1.227 . S
N405 Co402 2.121 . S
N405 C407 1.375 . S
N405 C408 1.313 . S
C406 C407 1.338 . S
C406 N409 1.377 . S
C406 H426 0.930 . S
C407 N405 1.375 . S
C407 C406 1.338 . S
C407 H411 0.931 . S
C408 N405 1.313 . S
C408 N409 1.344 . S
C408 H412 0.930 . S
N409 C406 1.377 . S
N409 C408 1.344 . S
O410 Co402 2.055 . S
O410 C414 1.253 . S
H411 C407 0.931 . S
H412 C408 0.930 . S
O413 Co402 2.039 . S
O413 C403 1.265 . S
C414 O410 1.253 . S
C414 O415 1.227 . S
O415 C414 1.227 . S
N416 Co402 2.140 . S
N416 C419 1.346 . S
N416 C420 1.345 . S
C417 C418 1.387 . S
C417 C421 1.391 . S
C418 C417 1.387 . S
C418 C419 1.369 . S
C418 H427 0.929 . S
C419 N416 1.346 . S
C419 C418 1.369 . S
C419 H422 0.928 . S
C420 N416 1.345 . S
C420 C421 1.371 . S
C420 H423 0.931 . S
C421 C417 1.391 . S
C421 C420 1.371 . S
C421 H428 0.930 . S
H422 C419 0.928 . S
H423 C420 0.931 . S
H424 C400 0.930 . S
H425 C397 0.930 . S
H426 C406 0.930 . S
H427 C418 0.929 . S
H428 C421 0.930 . S
C429 C430 1.351 . S
C429 N432 1.368 . S
C429 H434 0.931 . S
C430 C429 1.351 . S
C430 N431 1.373 . S
C430 H458 0.930 . S
N431 C430 1.373 . S
N431 C433 1.340 . S
N432 C429 1.368 . S
N432 C433 1.321 . S
N432 Co435 2.135 1_455 S
C433 N431 1.340 . S
C433 N432 1.321 . S
C433 H457 0.930 . S
H434 C429 0.931 . S
Co435 N432 2.135 1_655 S
Co435 N438 2.121 . S
Co435 O443 2.055 . S
Co435 O446 2.039 . S
Co435 N449 2.140 . S
C436 O437 1.227 . S
C436 O446 1.265 . S
O437 C436 1.227 . S
N438 Co435 2.121 . S
N438 C440 1.375 . S
N438 C441 1.313 . S
C439 C440 1.338 . S
C439 N442 1.377 . S
C439 H459 0.930 . S
C440 N438 1.375 . S
C440 C439 1.338 . S
C440 H444 0.931 . S
C441 N438 1.313 . S
C441 N442 1.344 . S
C441 H445 0.930 . S
N442 C439 1.377 . S
N442 C441 1.344 . S
O443 Co435 2.055 . S
O443 C447 1.253 . S
H444 C440 0.931 . S
H445 C441 0.930 . S
O446 Co435 2.039 . S
O446 C436 1.265 . S
C447 O443 1.253 . S
C447 O448 1.227 . S
O448 C447 1.227 . S
N449 Co435 2.140 . S
N449 C452 1.346 . S
N449 C453 1.345 . S
C450 C451 1.387 . S
C450 C454 1.391 . S
C451 C450 1.387 . S
C451 C452 1.369 . S
C451 H460 0.926 1_655 S
C452 N449 1.346 . S
C452 C451 1.369 . S
C452 H455 0.928 . S
C453 N449 1.345 . S
C453 C454 1.371 . S
C453 H456 0.931 . S
C454 C450 1.391 . S
C454 C453 1.371 . S
C454 H461 0.930 . S
H455 C452 0.928 . S
H456 C453 0.931 . S
H457 C433 0.930 . S
H458 C430 0.930 . S
H459 C439 0.930 . S
H460 C451 0.926 1_455 S
H461 C454 0.930 . S
C462 C463 1.351 . S
C462 N465 1.368 . S
C462 H467 0.931 . S
C463 C462 1.351 . S
C463 N464 1.373 . S
C463 H491 0.930 . S
N464 C463 1.373 . S
N464 C466 1.340 . S
N465 C462 1.368 . S
N465 C466 1.321 . S
N465 Co468 2.135 1_545 S
C466 N464 1.340 . S
C466 N465 1.321 . S
C466 H490 0.930 . S
H467 C462 0.931 . S
Co468 N465 2.135 1_565 S
Co468 N471 2.121 . S
Co468 O476 2.055 . S
Co468 O479 2.039 . S
Co468 N482 2.140 . S
C469 O470 1.227 . S
C469 O479 1.265 . S
O470 C469 1.227 . S
N471 Co468 2.121 . S
N471 C473 1.375 . S
N471 C474 1.313 . S
C472 C473 1.338 . S
C472 N475 1.377 . S
C472 H492 0.930 . S
C473 N471 1.375 . S
C473 C472 1.338 . S
C473 H477 0.931 . S
C474 N471 1.313 . S
C474 N475 1.344 . S
C474 H478 0.930 . S
N475 C472 1.377 . S
N475 C474 1.344 . S
O476 Co468 2.055 . S
O476 C480 1.253 . S
H477 C473 0.931 . S
H478 C474 0.930 . S
O479 Co468 2.039 . S
O479 C469 1.265 . S
C480 O476 1.253 . S
C480 O481 1.227 . S
O481 C480 1.227 . S
N482 Co468 2.140 . S
N482 C485 1.346 . S
N482 C486 1.345 . S
C483 C484 1.387 . S
C483 C487 1.391 . S
C484 C483 1.387 . S
C484 C485 1.369 . S
C484 H493 0.926 1_565 S
C485 N482 1.346 . S
C485 C484 1.369 . S
C485 H488 0.928 . S
C486 N482 1.345 . S
C486 C487 1.371 . S
C486 H489 0.931 . S
C487 C483 1.391 . S
C487 C486 1.371 . S
C487 H494 0.930 . S
H488 C485 0.928 . S
H489 C486 0.931 . S
H490 C466 0.930 . S
H491 C463 0.930 . S
H492 C472 0.930 . S
H493 C484 0.926 1_545 S
H494 C487 0.930 . S
C495 C496 1.351 . S
C495 N498 1.368 . S
C495 H500 0.931 . S
C496 C495 1.351 . S
C496 N497 1.373 . S
C496 H524 0.930 . S
N497 C496 1.373 . S
N497 C499 1.340 . S
N498 C495 1.368 . S
N498 C499 1.321 . S
N498 Co501 2.135 . S
C499 N497 1.340 . S
C499 N498 1.321 . S
C499 H523 0.930 . S
H500 C495 0.931 . S
Co501 N498 2.135 . S
Co501 N504 2.121 . S
Co501 O509 2.055 . S
Co501 O512 2.039 . S
Co501 N515 2.140 . S
C502 O503 1.227 . S
C502 O512 1.265 . S
O503 C502 1.227 . S
N504 Co501 2.121 . S
N504 C506 1.375 . S
N504 C507 1.313 . S
C505 C506 1.338 . S
C505 N508 1.377 . S
C505 H525 0.930 . S
C506 N504 1.375 . S
C506 C505 1.338 . S
C506 H510 0.931 . S
C507 N504 1.313 . S
C507 N508 1.344 . S
C507 H511 0.930 . S
N508 C505 1.377 . S
N508 C507 1.344 . S
O509 Co501 2.055 . S
O509 C513 1.253 . S
H510 C506 0.931 . S
H511 C507 0.930 . S
O512 Co501 2.039 . S
O512 C502 1.265 . S
C513 O509 1.253 . S
C513 O514 1.227 . S
O514 C513 1.227 . S
N515 Co501 2.140 . S
N515 C518 1.346 . S
N515 C519 1.345 . S
C516 C517 1.387 . S
C516 C520 1.391 . S
C517 C516 1.387 . S
C517 C518 1.369 . S
C517 H526 0.929 . S
C518 N515 1.346 . S
C518 C517 1.369 . S
C518 H521 0.928 . S
C519 N515 1.345 . S
C519 C520 1.371 . S
C519 H522 0.931 . S
C520 C516 1.391 . S
C520 C519 1.371 . S
C520 H527 0.930 . S
H521 C518 0.928 . S
H522 C519 0.931 . S
H523 C499 0.930 . S
H524 C496 0.930 . S
H525 C505 0.930 . S
H526 C517 0.929 . S
H527 C520 0.930 . S
N2 N233 2.744 . S
N134 N35 2.744 . S
N167 N68 2.744 . S
N101 N200 2.744 . S
N266 N497 2.744 . S
N299 N398 2.744 . S
N431 N332 2.744 . S
N365 N464 2.744 . S
C7 C318 1.899 . S
C351 C40 1.899 . S
C384 C73 1.899 . S
C285 C106 1.899 . S
C516 C139 1.899 . S
C417 C172 1.899 . S
C450 C205 1.899 . S
C483 C238 1.899 . S
C54 C271 1.899 . S
C87 C304 1.899 . S
C120 C337 1.899 . S
C370 C21 1.899 . S
C252 C403 1.899 . S
C153 C436 1.899 . S
C186 C469 1.899 . S
C219 C502 1.899 . S
N79 N13 0.928 . S
N46 N112 0.928 . S
N211 N145 0.928 . S
N244 N178 0.928 . S
N343 N277 0.928 . S
N376 N310 0.928 . S
N409 N475 0.928 . S
N508 N442 0.928 . S
C216 C18 1.525 1_556 S
C249 C51 1.525 . S
C84 C150 1.525 1_554 S
C183 C117 1.525 . S
C480 C282 1.525 1_554 S
C513 C315 1.525 . S
C414 C348 1.525 1_554 S
C381 C447 1.525 . S
