# Generated by pormake.
# Topology wnn, (7)-cn, num edge types: 1
# Building blocks:
#     Node 0, Type 0, BuildingBlock: HICVOG_clean_sbu_0, # of connection points: 7
#     Node 1, Type 0, BuildingBlock: HICVOG_clean_sbu_0, # of connection points: 7
#     Node 2, Type 0, BuildingBlock: HICVOG_clean_sbu_0, # of connection points: 7
#     Node 3, Type 0, BuildingBlock: HICVOG_clean_sbu_0, # of connection points: 7
#     Node 4, Type 0, BuildingBlock: HICVOG_clean_sbu_0, # of connection points: 7
#     Node 5, Type 0, BuildingBlock: HICVOG_clean_sbu_0, # of connection points: 7
#     Node 6, Type 0, BuildingBlock: HICVOG_clean_sbu_0, # of connection points: 7
#     Node 7, Type 0, BuildingBlock: HICVOG_clean_sbu_0, # of connection points: 7
#     Node 8, Type 0, BuildingBlock: HICVOG_clean_sbu_0, # of connection points: 7
#     Node 9, Type 0, BuildingBlock: HICVOG_clean_sbu_0, # of connection points: 7
#     Node 10, Type 0, BuildingBlock: HICVOG_clean_sbu_0, # of connection points: 7
#     Node 11, Type 0, BuildingBlock: HICVOG_clean_sbu_0, # of connection points: 7
#     Node 12, Type 0, BuildingBlock: HICVOG_clean_sbu_0, # of connection points: 7
#     Node 13, Type 0, BuildingBlock: HICVOG_clean_sbu_0, # of connection points: 7
#     Node 14, Type 0, BuildingBlock: HICVOG_clean_sbu_0, # of connection points: 7
#     Node 15, Type 0, BuildingBlock: HICVOG_clean_sbu_0, # of connection points: 7
#     Node 16, Type 0, BuildingBlock: HICVOG_clean_sbu_0, # of connection points: 7
#     Node 17, Type 0, BuildingBlock: HICVOG_clean_sbu_0, # of connection points: 7
#     Edge 18, Type (0, 0), None
#     Edge 19, Type (0, 0), None
#     Edge 20, Type (0, 0), None
#     Edge 21, Type (0, 0), None
#     Edge 22, Type (0, 0), None
#     Edge 23, Type (0, 0), None
#     Edge 24, Type (0, 0), None
#     Edge 25, Type (0, 0), None
#     Edge 26, Type (0, 0), None
#     Edge 27, Type (0, 0), None
#     Edge 28, Type (0, 0), None
#     Edge 29, Type (0, 0), None
#     Edge 30, Type (0, 0), None
#     Edge 31, Type (0, 0), None
#     Edge 32, Type (0, 0), None
#     Edge 33, Type (0, 0), None
#     Edge 34, Type (0, 0), None
#     Edge 35, Type (0, 0), None
#     Edge 36, Type (0, 0), None
#     Edge 37, Type (0, 0), None
#     Edge 38, Type (0, 0), None
#     Edge 39, Type (0, 0), None
#     Edge 40, Type (0, 0), None
#     Edge 41, Type (0, 0), None
#     Edge 42, Type (0, 0), None
#     Edge 43, Type (0, 0), None
#     Edge 44, Type (0, 0), None
#     Edge 45, Type (0, 0), None
#     Edge 46, Type (0, 0), None
#     Edge 47, Type (0, 0), None
#     Edge 48, Type (0, 0), None
#     Edge 49, Type (0, 0), None
#     Edge 50, Type (0, 0), None
#     Edge 51, Type (0, 0), None
#     Edge 52, Type (0, 0), None
#     Edge 53, Type (0, 0), None
#     Edge 54, Type (0, 0), None
#     Edge 55, Type (0, 0), None
#     Edge 56, Type (0, 0), None
#     Edge 57, Type (0, 0), None
#     Edge 58, Type (0, 0), None
#     Edge 59, Type (0, 0), None
#     Edge 60, Type (0, 0), None
#     Edge 61, Type (0, 0), None
#     Edge 62, Type (0, 0), None
#     Edge 63, Type (0, 0), None
#     Edge 64, Type (0, 0), None
#     Edge 65, Type (0, 0), None
#     Edge 66, Type (0, 0), None
#     Edge 67, Type (0, 0), None
#     Edge 68, Type (0, 0), None
#     Edge 69, Type (0, 0), None
#     Edge 70, Type (0, 0), None
#     Edge 71, Type (0, 0), None
#     Edge 72, Type (0, 0), None
#     Edge 73, Type (0, 0), None
#     Edge 74, Type (0, 0), None
#     Edge 75, Type (0, 0), None
#     Edge 76, Type (0, 0), None
#     Edge 77, Type (0, 0), None
#     Edge 78, Type (0, 0), None
#     Edge 79, Type (0, 0), None
#     Edge 80, Type (0, 0), None
# Relax obj value: 0.337
# Max RMSD: 0.255
# Mean RMSD: 0.255
data_MOF--net-wnn--node1-HICVOG_clean_sbu_0--edge1-none
_symmetry_space_group_name_H-M    P1
_symmetry_Int_Tables_number       1
_symmetry_cell_setting            triclinic
loop_
_symmetry_equiv_pos_as_xyz
'x, y, z'
_cell_length_a     31.10597
_cell_length_b     31.106162
_cell_length_c     10.7389
_cell_angle_alpha  90.003279
_cell_angle_beta   89.992014
_cell_angle_gamma 120.00268
loop_
_atom_site_label
_atom_site_type_symbol
_atom_site_fract_x
_atom_site_fract_y
_atom_site_fract_z
_atom_type_partial_charge
Zn0 Zn 0.26091 0.29858 0.26141 0.0
C1 C 0.25296 0.19365 0.51231 0.0
N2 N 0.20571 0.18272 0.53221 0.0
C3 C 0.2002 0.21794 0.47186 0.0
N4 N 0.24355 0.25018 0.41048 0.0
N5 N 0.27632 0.23628 0.44396 0.0
C6 C 0.35918 0.23682 0.16023 0.0
O7 O 0.37988 0.28366 0.12781 0.0
O8 O 0.25668 0.35964 0.2801 0.0
Zn9 Zn 0.34599 0.27007 0.39675 0.0
N10 N 0.22893 0.26689 0.11076 0.0
C11 C 0.22532 0.21417 0.94643 0.0
C12 C 0.23048 0.22609 0.07291 0.0
C13 C 0.22267 0.29641 0.02805 0.0
N14 N 0.22068 0.24448 0.86341 0.0
C15 C 0.21949 0.28563 0.90089 0.0
O16 O 0.3744 0.33861 0.34193 0.0
C17 C 0.369 0.36217 0.25532 0.0
O18 O 0.33071 0.34008 0.18869 0.0
H19 H 0.23768 0.20449 0.13972 0.0
H20 H 0.22381 0.32994 0.06 0.0
C21 C 0.43862 0.32277 0.51044 0.0
C22 C 0.47016 0.35831 0.59736 0.0
C23 C 0.40022 0.33781 0.72643 0.0
C24 C 0.36916 0.30242 0.64043 0.0
N25 N 0.38898 0.29474 0.53566 0.0
N26 N 0.44965 0.36465 0.70307 0.0
H27 H 0.45293 0.31816 0.42262 0.0
C28 C 0.29154 0.39617 0.33711 0.0
O29 O 0.31453 0.38815 0.4289 0.0
O30 O 0.35246 0.22521 0.27474 0.0
H31 H 0.32939 0.28317 0.65376 0.0
H32 H 0.22524 0.18146 0.91378 0.0
H33 H 0.38515 0.3445 0.81024 0.0
Zn34 Zn 0.92199 1.00653 0.26136 0.0
C35 C 1.02689 0.10349 0.51234 0.0
N36 N 1.03782 1.06718 0.53222 0.0
C37 C 1.0026 1.02644 0.47184 0.0
N38 N 0.97037 1.03756 0.41046 0.0
N39 N 0.98427 1.08423 0.44398 0.0
C40 C 0.9837 0.16655 0.16031 0.0
O41 O 0.93687 0.1404 0.1279 0.0
O42 O 0.86097 0.9412 0.28 0.0
Zn43 Zn 0.95047 0.1201 0.39682 0.0
N44 N 0.95369 1.00628 0.11067 0.0
C45 C 1.00641 1.05538 0.94633 0.0
C46 C 0.9945 1.04862 0.07282 0.0
C47 C 0.92416 0.9705 0.02796 0.0
N48 N 0.97609 1.02043 0.86331 0.0
C49 C 0.93493 0.9781 0.9008 0.0
O50 O 0.88194 1.07995 0.34205 0.0
C51 C 0.85837 1.05099 0.25544 0.0
O52 O 0.88045 1.03479 0.18876 0.0
H53 H 1.01611 1.07742 0.13963 0.0
H54 H 0.89062 0.93812 0.05991 0.0
C55 C 0.89777 0.16002 0.5105 0.0
C56 C 0.86222 0.15602 0.59741 0.0
C57 C 0.88271 0.1066 0.72651 0.0
C58 C 0.91811 0.11093 0.64051 0.0
N59 N 0.9258 0.13842 0.53574 0.0
N60 N 0.85587 0.12918 0.70313 0.0
H61 H 0.90238 0.17893 0.42267 0.0
C62 C 0.82443 0.93953 0.337 0.0
O63 O 0.83244 0.97053 0.42883 0.0
O64 O 0.99533 0.17144 0.27481 0.0
H65 H 0.93736 0.09041 0.65385 0.0
H66 H 1.03914 1.088 0.91368 0.0
H67 H 0.87602 1.08484 0.81033 0.0
Zn68 Zn 0.21403 0.95964 0.26138 0.0
C69 C 1.11705 0.96759 0.5123 0.0
N70 N 0.15336 1.01483 0.53218 0.0
C71 C 0.1941 1.02035 0.47181 0.0
N72 N 0.18298 0.977 0.41045 0.0
N73 N 0.13631 0.94422 0.44395 0.0
C74 C 1.05401 0.86137 0.16024 0.0
O75 O 1.08016 0.84068 0.12781 0.0
O76 O 0.27933 0.96389 0.28005 0.0
Zn77 Zn 1.10043 0.87456 0.39677 0.0
N78 N 0.2143 0.9916 0.11072 0.0
C79 C 0.1652 0.99522 0.94643 0.0
C80 C 0.17195 0.99006 0.07291 0.0
C81 C 0.25008 0.99785 0.02798 0.0
N82 N 0.20014 0.99985 0.86338 0.0
C83 C 0.24248 1.00103 0.90083 0.0
O84 O 0.14056 0.84615 0.34198 0.0
C85 C 0.16954 0.85155 0.25536 0.0
O86 O 0.18574 0.88983 0.18871 0.0
H87 H 0.14316 0.98287 0.13974 0.0
H88 H 0.28246 0.9967 0.0599 0.0
C89 C 1.0605 0.78193 0.51052 0.0
C90 C 1.0645 0.75041 0.59747 0.0
C91 C 1.11391 0.82035 0.72652 0.0
C92 C 1.10959 0.8514 0.64048 0.0
N93 N 1.0821 0.83157 0.53571 0.0
N94 N 1.09133 0.77092 0.70319 0.0
H95 H 1.0416 0.76762 0.4227 0.0
C96 C 0.28098 0.92902 0.33708 0.0
O97 O 0.24996 0.90604 0.42889 0.0
O98 O 1.0491 0.86808 0.27475 0.0
H99 H 1.1301 0.89117 0.65379 0.0
H100 H 0.13257 0.99531 0.91381 0.0
H101 H 0.13566 0.83543 0.81033 0.0
Zn102 Zn 1.00368 0.8779 0.70759 0.0
C103 C 1.01168 0.98286 0.45688 0.0
N104 N 1.05893 0.99383 0.43698 0.0
C105 C 1.06442 0.95859 0.49734 0.0
N106 N 1.02103 0.92629 0.55853 0.0
N107 N 0.98826 0.94019 0.52503 0.0
C108 C 0.9054 0.93967 0.80868 0.0
O109 O 0.88471 0.89284 0.84117 0.0
O110 O 1.00794 0.81686 0.68896 0.0
Zn111 Zn 0.9186 0.90642 0.57219 0.0
N112 N 1.03566 0.90961 0.85823 0.0
C113 C 1.03928 0.96234 0.02253 0.0
C114 C 1.03412 0.95042 0.89605 0.0
C115 C 1.04192 0.88009 0.94095 0.0
N116 N 1.04392 0.93204 0.10557 0.0
C117 C 1.0451 0.89088 0.0681 0.0
O118 O 0.89019 0.83789 0.62704 0.0
C119 C 0.8956 0.81433 0.71367 0.0
O120 O 0.93388 0.83642 0.7803 0.0
H121 H 1.02692 0.97201 0.82923 0.0
H122 H 1.04077 0.84656 0.90903 0.0
C123 C 0.826 0.8537 0.45842 0.0
C124 C 0.79448 0.81818 0.37146 0.0
C125 C 0.86443 0.83871 0.24243 0.0
C126 C 0.89548 0.87409 0.32848 0.0
N127 N 0.87564 0.88175 0.43324 0.0
N128 N 0.815 0.81186 0.26575 0.0
H129 H 0.81168 0.8583 0.54624 0.0
C130 C 0.97307 0.78032 0.63199 0.0
O131 O 0.95007 0.78832 0.54019 0.0
O132 O 0.91213 0.95129 0.69418 0.0
H133 H 0.93525 0.89334 0.31518 0.0
H134 H 1.03938 0.99506 0.05516 0.0
H135 H 0.87952 0.83204 0.15862 0.0
Zn136 Zn 0.34263 0.16997 0.70757 0.0
C137 C 0.23768 1.07301 0.45686 0.0
N138 N 0.22671 0.10929 0.43697 0.0
C139 C 0.26196 0.15003 0.49734 0.0
N140 N 0.29425 0.13894 0.55851 0.0
N141 N 0.28035 0.09226 0.525 0.0
C142 C 0.2809 1.00993 0.80867 0.0
O143 O 0.32773 1.03607 0.84112 0.0
O144 O 0.40366 0.23529 0.68895 0.0
Zn145 Zn 0.31412 1.05639 0.57214 0.0
N146 N 0.31092 0.17023 0.85823 0.0
C147 C 0.25818 0.12113 0.02253 0.0
C148 C 0.27011 0.12788 0.89605 0.0
C149 C 0.34045 0.20601 0.94095 0.0
N150 N 0.28849 0.15607 0.10557 0.0
C151 C 0.32966 0.1984 0.0681 0.0
O152 O 0.38266 0.09652 0.62691 0.0
C153 C 0.40621 0.12548 0.71355 0.0
O154 O 0.38412 0.14166 0.78022 0.0
H155 H 0.2485 0.09909 0.82923 0.0
H156 H 0.37398 0.23839 0.90902 0.0
C157 C 0.36681 1.01647 0.4584 0.0
C158 C 0.40234 1.02047 0.37144 0.0
C159 C 0.38181 1.06987 0.24237 0.0
C160 C 0.34643 1.06555 0.32841 0.0
N161 N 0.33877 1.03806 0.43319 0.0
N162 N 0.40866 1.04729 0.26571 0.0
H163 H 0.36221 0.99757 0.54623 0.0
C164 C 0.44021 0.23696 0.63197 0.0
O165 O 0.4322 0.20595 0.54016 0.0
O166 O 0.26927 1.00505 0.69418 0.0
H167 H 0.32718 1.08606 0.3151 0.0
H168 H 0.22545 0.0885 0.05517 0.0
H169 H 0.38849 0.09161 0.15854 0.0
Zn170 Zn 1.05056 0.21686 0.7076 0.0
C171 C 0.14754 0.20886 0.45691 0.0
N172 N 1.11125 0.16161 0.43702 0.0
C173 C 1.07052 0.15612 0.49738 0.0
N174 N 1.0816 0.1995 0.55855 0.0
N175 N 1.12828 0.23228 0.52506 0.0
C176 C 0.21058 0.31515 0.80877 0.0
O177 O 0.1844 0.3358 0.84124 0.0
O178 O 0.98524 0.21257 0.68898 0.0
Zn179 Zn 0.16416 0.30193 0.57221 0.0
N180 N 1.0503 0.18491 0.85826 0.0
C181 C 1.09941 0.18129 0.02253 0.0
C182 C 1.09265 0.18646 0.89605 0.0
C183 C 1.01452 0.17865 0.941 0.0
N184 N 1.06447 0.17665 0.10558 0.0
C185 C 1.02213 0.17546 0.06815 0.0
O186 O 1.12403 0.33034 0.62694 0.0
C187 C 1.09505 0.32495 0.71354 0.0
O188 O 1.07884 0.28667 0.78021 0.0
H189 H 1.12145 0.19365 0.82921 0.0
H190 H 0.98213 0.17979 0.9091 0.0
C191 C 0.20408 0.39453 0.45843 0.0
C192 C 0.20009 0.42605 0.37146 0.0
C193 C 0.1507 0.3561 0.24241 0.0
C194 C 0.15502 0.32505 0.32847 0.0
N195 N 0.1825 0.34489 0.43325 0.0
N196 N 0.17327 0.40553 0.26573 0.0
H197 H 0.22298 0.40884 0.54626 0.0
C198 C 0.98357 0.24744 0.63197 0.0
O199 O 1.01459 0.27042 0.54016 0.0
O200 O 0.21548 0.30842 0.69427 0.0
H201 H 0.13451 0.28528 0.31517 0.0
H202 H 1.13204 0.18119 0.05514 0.0
H203 H 1.12896 0.34102 0.15858 0.0
Zn204 Zn 0.92755 0.6319 0.59477 0.0
C205 C 0.91962 0.52699 0.84568 0.0
N206 N 0.87238 0.51605 0.86561 0.0
C207 C 0.86686 0.55127 0.80526 0.0
N208 N 0.91021 0.58351 0.74386 0.0
N209 N 0.94298 0.56961 0.77733 0.0
C210 C 1.02584 0.57018 0.49357 0.0
O211 O 1.04651 0.61701 0.46114 0.0
O212 O 0.92324 0.69292 0.61339 0.0
Zn213 Zn 1.01265 0.60341 0.73013 0.0
N214 N 0.89559 0.60019 0.44411 0.0
C215 C 0.89204 0.54752 0.27975 0.0
C216 C 0.89718 0.55942 0.40624 0.0
C217 C 0.88929 0.6297 0.36143 0.0
N218 N 0.88737 0.57782 0.19675 0.0
C219 C 0.88614 0.61894 0.23426 0.0
O220 O 1.04105 0.67195 0.67534 0.0
C221 C 1.03563 0.69551 0.58875 0.0
O222 O 0.99735 0.67344 0.52211 0.0
H223 H 0.9044 0.53783 0.47304 0.0
H224 H 0.8904 0.6632 0.3934 0.0
C225 C 1.10529 0.65611 0.84382 0.0
C226 C 0.13682 0.69164 0.93076 0.0
C227 C 1.06688 0.67113 0.05983 0.0
C228 C 1.03582 0.63574 0.97381 0.0
N229 N 1.05565 0.62807 0.86904 0.0
N230 N 1.11631 0.69797 0.03647 0.0
H231 H 1.11959 0.6515 0.75599 0.0
C232 C 0.95812 0.72946 0.67034 0.0
O233 O 0.98111 0.72146 0.76215 0.0
O234 O 1.01913 0.55856 0.60808 0.0
H235 H 0.99606 0.6165 -0.01286 0.0
H236 H 0.89199 0.51482 0.24707 0.0
H237 H 1.05181 0.67781 0.14365 0.0
Zn238 Zn 0.58864 0.33983 0.59473 0.0
C239 C 0.69353 0.43682 0.84567 0.0
N240 N 0.70446 0.40051 0.8656 0.0
C241 C 0.66924 0.35977 0.80523 0.0
N242 N 0.63702 0.37088 0.74381 0.0
N243 N 0.65092 0.41756 0.77729 0.0
C244 C 0.65043 0.49989 0.49358 0.0
O245 O 0.6036 0.47374 0.46114 0.0
O246 O 0.5276 0.27451 0.61339 0.0
Zn247 Zn 0.61714 0.45344 0.73006 0.0
N248 N 0.62034 0.33955 0.44408 0.0
C249 C 0.67301 0.38868 0.2797 0.0
C250 C 0.66112 0.38192 0.4062 0.0
C251 C 0.59082 0.30375 0.3614 0.0
N252 N 0.6427 0.35372 0.19671 0.0
C253 C 0.60157 0.31136 0.23423 0.0
O254 O 0.54862 0.41332 0.67517 0.0
C255 C 0.52505 0.38432 0.58861 0.0
O256 O 0.54711 0.36808 0.52201 0.0
H257 H 0.68272 0.41073 0.47299 0.0
H258 H 0.55731 0.27136 0.39337 0.0
C259 C 0.56441 0.49336 0.84371 0.0
C260 C 0.52884 0.48934 0.93059 0.0
C261 C 0.54929 0.43987 0.05963 0.0
C262 C 0.58471 0.44422 0.97367 0.0
N263 N 0.59243 0.47175 0.86895 0.0
N264 N 0.52247 0.46247 0.03626 0.0
H265 H 0.56905 0.5123 0.75592 0.0
C266 C 0.49106 0.27286 0.67033 0.0
O267 O 0.49907 0.30388 0.76211 0.0
O268 O 0.66204 0.50479 0.60809 0.0
H269 H 0.60395 0.4237 -0.013 0.0
H270 H 0.70571 0.42132 0.24702 0.0
H271 H 0.54258 0.41809 0.14341 0.0
Zn272 Zn 0.88071 0.29299 0.59465 0.0
C273 C 0.78371 0.30092 0.84557 0.0
N274 N 0.82002 0.34816 0.86548 0.0
C275 C 0.86077 0.35368 0.80511 0.0
N276 N 0.84965 0.31033 0.74372 0.0
N277 N 0.80297 0.27756 0.7772 0.0
C278 C 0.72067 0.19474 0.49349 0.0
O279 O 0.74684 0.17407 0.46103 0.0
O280 O 0.94602 0.29727 0.61331 0.0
Zn281 Zn 0.76709 0.20789 0.73002 0.0
N282 N 0.88097 0.32494 0.44397 0.0
C283 C 0.83187 0.32855 0.27966 0.0
C284 C 0.83862 0.32339 0.40615 0.0
C285 C 0.91675 0.33118 0.36124 0.0
N286 N 0.86681 0.33317 0.19662 0.0
C287 C 0.90915 0.33435 0.23408 0.0
O288 O 0.80721 0.17948 0.67519 0.0
C289 C 0.83621 0.1849 0.58863 0.0
O290 O 0.85245 0.22319 0.522 0.0
H291 H 0.80983 0.31621 0.47297 0.0
H292 H 0.94913 0.33003 0.39317 0.0
C293 C 0.72718 0.11526 0.84379 0.0
C294 C 0.73119 1.08374 0.93075 0.0
C295 C 0.78061 0.1537 0.05974 0.0
C296 C 0.77627 0.18474 0.9737 0.0
N297 N 0.74877 0.1649 0.86896 0.0
N298 N 0.75803 0.10427 0.03644 0.0
H299 H 0.70826 0.10094 0.75599 0.0
C300 C 0.94767 0.2624 0.6703 0.0
O301 O 0.91665 0.2394 0.76209 0.0
O302 O 0.71575 0.20143 0.60801 0.0
H303 H 0.79678 0.22451 -0.01302 0.0
H304 H 0.79924 0.32865 0.24703 0.0
H305 H 0.80237 0.16879 0.14353 0.0
Zn306 Zn 0.58527 0.23973 0.90553 0.0
C307 C 0.73108 0.29192 0.83063 0.0
N308 N 0.7256 0.32719 0.77038 0.0
C309 C 0.67835 0.3162 0.79026 0.0
N310 N 0.65492 0.27351 0.85832 0.0
N311 N 0.68768 0.25956 0.89166 0.0
C312 C 0.63979 0.11367 0.96538 0.0
O313 O 0.61682 0.12167 0.87353 0.0
O314 O 0.5788 0.28456 0.02763 0.0
Zn315 Zn 0.67036 0.21125 0.0409 0.0
N316 N 0.54225 0.21507 0.7667 0.0
C317 C 0.53108 0.17202 0.57593 0.0
C318 C 0.56211 0.2074 0.66199 0.0
C319 C 0.49261 0.18703 0.79183 0.0
N320 N 0.48164 0.14517 0.59919 0.0
C321 C 0.46111 0.1515 0.70486 0.0
O322 O 0.60055 0.16972 0.11355 0.0
C323 C 0.56229 0.14762 0.04685 0.0
O324 O 0.55688 0.17119 0.96024 0.0
H325 H 0.60188 0.22665 0.64874 0.0
H326 H 0.47828 0.19162 0.87963 0.0
C327 C 0.70856 0.21347 0.27422 0.0
C328 C 0.71176 0.22426 0.40138 0.0
C329 C 0.706 0.29576 0.35584 0.0
C330 C 0.70082 0.28383 0.22936 0.0
N331 N 0.70233 0.24301 0.19151 0.0
N332 N 0.71061 0.26543 0.43886 0.0
H333 H 0.70739 0.17993 0.2423 0.0
C334 C 0.57205 0.27292 0.14213 0.0
O335 O 0.55138 0.22609 0.17458 0.0
O336 O 0.67465 0.15021 0.02238 0.0
H337 H 0.69365 0.30545 0.16255 0.0
H338 H 0.54618 0.16534 0.49215 0.0
H339 H 0.70613 0.32849 0.38848 0.0
Zn340 Zn 1.0093 0.5033 0.04091 0.0
C341 C 0.90435 0.40635 0.79017 0.0
N342 N 0.89338 0.44263 0.77031 0.0
C343 C 0.92862 0.48336 0.83069 0.0
N344 N 0.96091 0.47227 0.89185 0.0
N345 N 0.94702 0.4256 0.85832 0.0
C346 C 0.94757 0.34325 0.14194 0.0
O347 O 0.9944 0.36939 0.1744 0.0
O348 O 1.07034 0.56862 0.02229 0.0
Zn349 Zn 0.9808 0.38972 0.90545 0.0
N350 N 0.9776 0.50357 0.19158 0.0
C351 C 0.92488 0.45445 0.3559 0.0
C352 C 0.9368 0.46121 0.22942 0.0
C353 C 1.00712 0.53935 0.27429 0.0
N354 N 0.95519 0.4894 0.43893 0.0
C355 C 0.99634 0.53175 0.40145 0.0
O356 O 1.04933 0.42986 0.96025 0.0
C357 C 1.07289 0.45881 0.0469 0.0
O358 O 1.05079 0.47499 0.11356 0.0
H359 H 0.9152 0.43241 0.1626 0.0
H360 H 1.04064 0.57174 0.24235 0.0
C361 C 1.0335 0.34982 0.79171 0.0
C362 C 1.06903 0.35382 0.70477 0.0
C363 C 1.04853 0.40324 0.5757 0.0
C364 C 1.01314 0.39891 0.66174 0.0
N365 N 1.00546 0.37142 0.7665 0.0
N366 N 1.07537 0.38065 0.59905 0.0
H367 H 1.02889 0.33091 0.87954 0.0
C368 C 1.10688 0.57029 0.96531 0.0
O369 O 1.09888 0.53929 0.8735 0.0
O370 O 0.93594 0.33837 0.02744 0.0
H371 H 0.99389 0.41943 0.64842 0.0
H372 H 0.89216 0.42182 0.38855 0.0
H373 H 1.05521 0.42499 0.49189 0.0
Zn374 Zn 0.8308 0.63525 0.90558 0.0
C375 C 0.73717 0.48945 0.8307 0.0
N376 N 0.77792 0.49492 0.77045 0.0
C377 C 0.81419 0.54218 0.79031 0.0
N378 N 0.79492 0.5656 0.85836 0.0
N379 N 0.74822 0.53285 0.89171 0.0
C380 C 0.6502 0.5807 0.96543 0.0
O381 O 0.6812 0.60367 0.87359 0.0
O382 O 0.8821 0.64172 0.02767 0.0
Zn383 Zn 0.71721 0.55017 0.04094 0.0
N384 N 0.84917 0.67829 0.76676 0.0
C385 C 0.81727 0.68947 0.57605 0.0
C386 C 0.82163 0.65844 0.66208 0.0
C387 C 0.87076 0.72793 0.79191 0.0
N388 N 0.83986 0.73891 0.59933 0.0
C389 C 0.86673 0.75944 0.70498 0.0
O390 O 0.74545 0.61997 0.11354 0.0
C391 C 0.76166 0.65824 0.04685 0.0
O392 O 0.79066 0.66364 0.96031 0.0
H393 H 0.80111 0.61867 0.64882 0.0
H394 H 0.8897 0.74226 0.8797 0.0
C395 C 0.68126 0.51199 0.2743 0.0
C396 C 0.68886 0.5088 0.40145 0.0
C397 C 0.76612 0.51457 0.35585 0.0
C398 C 0.75937 0.51974 0.22937 0.0
N399 N 0.71703 0.51822 0.19155 0.0
N400 N 0.73119 0.50995 0.4389 0.0
H401 H 0.64889 0.51315 0.2424 0.0
C402 C 0.87719 0.64844 0.14217 0.0
O403 O 0.851 0.66907 0.17464 0.0
O404 O 0.65186 0.54583 0.02243 0.0
H405 H 0.78816 0.52691 0.16253 0.0
H406 H 0.79548 0.67438 0.4923 0.0
H407 H 0.79874 0.51445 0.38846 0.0
Zn408 Zn 0.59423 0.96523 0.92814 0.0
C409 C 0.5863 0.86033 0.17907 0.0
N410 N 0.53906 0.84939 0.199 0.0
C411 C 0.53353 0.88461 0.13864 0.0
N412 N 0.57688 0.91684 0.07723 0.0
N413 N 0.60966 0.90295 0.1107 0.0
C414 C 0.69254 0.90351 0.82698 0.0
O415 O 0.71323 0.95035 0.79455 0.0
O416 O 0.58996 1.02627 0.94677 0.0
Zn417 Zn 0.67932 0.93675 0.06351 0.0
N418 N 0.56226 0.93353 0.77749 0.0
C419 C 0.55872 0.88086 0.61313 0.0
C420 C 0.56386 0.89276 0.73962 0.0
C421 C 0.55597 0.96304 0.69481 0.0
N422 N 0.55405 0.91115 0.53013 0.0
C423 C 0.55281 0.95228 0.56764 0.0
O424 O 0.70774 1.00529 0.0087 0.0
C425 C 0.70232 1.02884 0.92208 0.0
O426 O 0.66403 1.00676 0.85544 0.0
H427 H 0.57108 0.87117 0.80642 0.0
H428 H 0.55707 0.99655 0.72677 0.0
C429 C 0.77195 0.98945 0.17723 0.0
C430 C 0.80347 1.02496 0.2642 0.0
C431 C 0.73353 1.00443 0.39328 0.0
C432 C 0.70248 0.96906 0.30722 0.0
N433 N 0.72231 0.9614 0.20244 0.0
N434 N 0.78297 1.03127 0.36994 0.0
H435 H 0.78626 0.98486 0.08939 0.0
C436 C 0.62484 1.06281 0.00374 0.0
O437 O 0.64783 1.05481 0.09556 0.0
O438 O 0.68581 0.8919 0.94149 0.0
H439 H 0.66271 0.94981 0.32054 0.0
H440 H 0.55867 0.84817 0.58046 0.0
H441 H 0.71846 1.01109 0.47711 0.0
Zn442 Zn 0.25531 0.67316 0.9281 0.0
C443 C 0.3602 0.77015 0.17905 0.0
N444 N 0.37113 0.73384 0.19898 0.0
C445 C 0.33592 0.6931 0.13861 0.0
N446 N 0.30369 0.70421 0.07719 0.0
N447 N 0.31759 0.75089 0.11066 0.0
C448 C 0.31709 0.83322 0.82696 0.0
O449 O 0.27026 0.80706 0.79452 0.0
O450 O 0.19428 0.60784 0.94675 0.0
Zn451 Zn 0.28381 0.78677 0.06344 0.0
N452 N 0.28702 0.67289 0.77745 0.0
C453 C 0.33967 0.72203 0.61306 0.0
C454 C 0.32778 0.71527 0.73956 0.0
C455 C 0.2575 0.63708 0.69478 0.0
N456 N 0.30937 0.68706 0.53007 0.0
C457 C 0.26825 0.64469 0.5676 0.0
O458 O 0.21528 0.74665 0.00858 0.0
C459 C 0.19172 0.71765 0.92202 0.0
O460 O 0.21378 0.70141 0.85541 0.0
H461 H 0.34938 0.74408 0.80635 0.0
H462 H 0.224 0.60468 0.72676 0.0
C463 C 0.23109 0.82668 0.17716 0.0
C464 C 0.19556 0.82268 0.2641 0.0
C465 C 0.21605 0.77324 0.39313 0.0
C466 C 0.25144 0.77757 0.30711 0.0
N467 N 0.25913 0.80508 0.20236 0.0
N468 N 0.18921 0.79583 0.3698 0.0
H469 H 0.2357 0.8456 0.08934 0.0
C470 C 0.15774 0.60619 0.00368 0.0
O471 O 0.16574 0.6372 0.09548 0.0
O472 O 0.3287 0.83812 0.94147 0.0
H473 H 0.27069 0.75705 0.32042 0.0
H474 H 0.37236 0.75468 0.58036 0.0
H475 H 0.20935 0.75147 0.47693 0.0
Zn476 Zn 0.54738 0.62632 0.92807 0.0
C477 C 0.45038 0.63425 0.17898 0.0
N478 N 0.48669 0.68149 0.1989 0.0
C479 C 0.52744 0.68701 0.13854 0.0
N480 N 0.51633 0.64367 0.07714 0.0
N481 N 0.46964 0.61089 0.11061 0.0
C482 C 0.3873 0.52808 0.82693 0.0
O483 O 0.41343 0.50738 0.79447 0.0
O484 O 0.61267 0.63055 0.94677 0.0
Zn485 Zn 0.43375 0.54123 0.06338 0.0
N486 N 0.54768 0.65831 0.77744 0.0
C487 C 0.49856 0.66189 0.61312 0.0
C488 C 0.50532 0.65675 0.73961 0.0
C489 C 0.58346 0.66457 0.69472 0.0
N490 N 0.53351 0.66653 0.53009 0.0
C491 C 0.57586 0.66773 0.56756 0.0
O492 O 0.47384 0.51281 0.00843 0.0
C493 C 0.50285 0.51823 0.92186 0.0
O494 O 0.5191 0.55654 0.85529 0.0
H495 H 0.47652 0.64955 0.80643 0.0
H496 H 0.61585 0.66343 0.72665 0.0
C497 C 0.39385 0.44859 0.17711 0.0
C498 C 0.39787 0.41707 0.26403 0.0
C499 C 0.44732 0.48701 0.39302 0.0
C500 C 0.44297 0.51806 0.30702 0.0
N501 N 0.41545 0.49823 0.2023 0.0
N502 N 0.42473 0.43758 0.3697 0.0
H503 H 0.37493 0.43428 0.08931 0.0
C504 C 0.6143 0.59566 0.00375 0.0
O505 O 0.58326 0.57266 0.09551 0.0
O506 O 0.3824 0.53479 0.94145 0.0
H507 H 0.46349 0.55783 0.32033 0.0
H508 H 0.46593 0.66197 0.58048 0.0
H509 H 0.46909 0.5021 0.4768 0.0
Zn510 Zn 0.25194 0.57305 0.23891 0.0
C511 C 0.39775 0.62525 0.16404 0.0
N512 N 0.39228 0.66052 0.10378 0.0
C513 C 0.34502 0.64953 0.12365 0.0
N514 N 0.32159 0.60684 0.19171 0.0
N515 N 0.35435 0.59289 0.22506 0.0
C516 C 0.3065 0.44703 0.29878 0.0
O517 O 0.28354 0.45504 0.20692 0.0
O518 O 0.24546 0.61788 0.36101 0.0
Zn519 Zn 0.33703 0.54458 0.3743 0.0
N520 N 0.20892 0.5484 0.10007 0.0
C521 C 0.19775 0.50535 0.9093 0.0
C522 C 0.22878 0.54073 -0.00463 0.0
C523 C 0.15928 0.52036 0.12519 0.0
N524 N 0.14831 0.4785 0.93256 0.0
C525 C 1.12778 0.48483 0.03822 0.0
O526 O 0.26722 0.503 0.44689 0.0
C527 C 0.22896 0.48094 0.38017 0.0
O528 O 0.22354 0.50451 0.29361 0.0
H529 H 0.26856 0.55998 0.98212 0.0
H530 H 0.14494 0.52495 0.21299 0.0
C531 C 0.37519 0.5468 0.60767 0.0
C532 C 0.3784 0.5576 0.73482 0.0
C533 C 0.37269 0.62913 0.68923 0.0
C534 C 0.3675 0.61719 0.56275 0.0
N535 N 0.36898 0.57635 0.52493 0.0
N536 N 0.37728 0.5988 0.77227 0.0
H537 H 0.374 0.51325 0.57577 0.0
C538 C 0.23874 0.60625 0.47551 0.0
O539 O 0.21809 0.55942 0.50796 0.0
O540 O 0.34136 0.48357 0.35579 0.0
H541 H 0.36035 0.63882 0.49592 0.0
H542 H 0.21286 0.49867 0.82553 0.0
H543 H 0.37284 0.66188 0.72184 0.0
Zn544 Zn 0.676 0.83665 0.37429 0.0
C545 C 0.57102 0.73968 0.12361 0.0
N546 N 0.56005 0.77596 0.10373 0.0
C547 C 0.5953 0.8167 0.16409 0.0
N548 N 0.6276 0.80561 0.22525 0.0
N549 N 0.61369 0.75893 0.19174 0.0
C550 C 0.61428 0.67663 0.47541 0.0
O551 O 0.66111 0.70279 0.50785 0.0
O552 O 0.73703 0.90197 0.35564 0.0
Zn553 Zn 0.64748 0.72306 0.23886 0.0
N554 N 0.64431 0.83691 0.52498 0.0
C555 C 0.59156 0.7878 0.68928 0.0
C556 C 0.60349 0.79456 0.5628 0.0
C557 C 0.67383 0.87269 0.6077 0.0
N558 N 0.62187 0.82274 0.77232 0.0
C559 C 0.66303 0.86509 0.73485 0.0
O560 O 0.71603 0.76319 0.29356 0.0
C561 C 0.73959 0.79216 0.38018 0.0
O562 O 0.71752 0.80836 0.44688 0.0
H563 H 0.58189 0.76576 0.49598 0.0
H564 H 0.70736 0.90507 0.57577 0.0
C565 C 0.70013 0.68313 0.12507 0.0
C566 C 0.73564 0.68711 0.0381 0.0
C567 C 0.71512 0.73652 0.90904 0.0
C568 C 0.67975 0.73221 -0.00489 0.0
N569 N 0.67209 0.70472 0.09989 0.0
N570 N 0.74197 0.71393 0.93237 0.0
H571 H 0.69554 0.66423 0.21292 0.0
C572 C 0.77357 0.90364 0.29864 0.0
O573 O 0.76556 0.87264 0.20682 0.0
O574 O 0.60264 0.67173 0.36092 0.0
H575 H 0.6605 0.75273 0.98181 0.0
H576 H 0.55884 0.75518 0.72192 0.0
H577 H 0.72179 0.75826 0.82521 0.0
Zn578 Zn 0.49748 0.96858 0.23894 0.0
C579 C 0.40384 0.82278 0.16408 0.0
N580 N 0.44459 0.82825 0.10384 0.0
C581 C 0.48087 0.87551 0.12369 0.0
N582 N 0.4616 0.89893 0.19174 0.0
N583 N 0.41489 0.86619 0.22509 0.0
C584 C 0.31688 0.91405 0.29877 0.0
O585 O 0.34788 0.93702 0.20691 0.0
O586 O 0.54878 0.97505 0.36105 0.0
Zn587 Zn 0.38388 0.88351 0.3743 0.0
N588 N 0.51585 1.01159 0.10009 0.0
C589 C 0.48398 1.02276 0.9093 0.0
C590 C 0.48833 0.99173 -0.00461 0.0
C591 C 0.53745 1.06124 0.12519 0.0
N592 N 0.50657 1.07219 0.93254 0.0
C593 C 0.53342 0.09273 0.0382 0.0
O594 O 0.41212 0.95332 0.44689 0.0
C595 C 0.42834 0.99158 0.38018 0.0
O596 O 0.45735 0.997 0.29364 0.0
H597 H 0.46781 0.95196 0.98215 0.0
H598 H 0.55636 1.07557 0.21299 0.0
C599 C 0.34793 0.84533 0.60767 0.0
C600 C 0.35553 0.84214 0.73482 0.0
C601 C 0.4328 0.84792 0.68922 0.0
C602 C 0.42604 0.8531 0.56274 0.0
N603 N 0.3837 0.85157 0.52493 0.0
N604 N 0.39786 0.8433 0.77227 0.0
H605 H 0.31555 0.84649 0.57577 0.0
C606 C 0.54387 0.98178 0.47554 0.0
O607 O 0.51767 1.00241 0.50801 0.0
O608 O 0.31854 0.87919 0.35579 0.0
H609 H 0.45483 0.86027 0.49591 0.0
H610 H 0.46221 1.00765 0.82553 0.0
H611 H 0.46541 0.84781 0.72184 0.0
loop_
_geom_bond_atom_site_label_1
_geom_bond_atom_site_label_2
_geom_bond_distance
_geom_bond_site_symmetry_2
_ccdc_geom_bond_type
Zn0 N4 2.020 . S
Zn0 O8 2.019 . S
Zn0 N10 2.119 . S
Zn0 O18 1.975 . S
C1 N2 1.334 . S
C1 N5 1.336 . S
N2 C1 1.334 . S
N2 C3 1.334 . S
C3 N2 1.334 . S
C3 N4 1.336 . S
N4 Zn0 2.020 . S
N4 C3 1.336 . S
N4 N5 1.354 . S
N5 C1 1.336 . S
N5 N4 1.354 . S
N5 Zn9 2.020 . S
C6 O7 1.244 . S
C6 O30 1.257 . S
O7 C6 1.244 . S
O8 Zn0 2.019 . S
O8 C28 1.257 . S
Zn9 N5 2.020 . S
Zn9 O16 1.975 . S
Zn9 N25 2.119 . S
Zn9 O30 2.019 . S
N10 Zn0 2.119 . S
N10 C12 1.334 . S
N10 C13 1.328 . S
C11 C12 1.391 1_556 S
C11 N14 1.329 . S
C11 H32 0.930 . S
C12 N10 1.334 . S
C12 C11 1.391 1_554 S
C12 H19 0.930 . S
C13 N10 1.328 . S
C13 C15 1.392 1_554 S
C13 H20 0.930 . S
N14 C11 1.329 . S
N14 C15 1.331 . S
C15 C13 1.392 1_556 S
C15 N14 1.331 . S
O16 Zn9 1.975 . S
O16 C17 1.252 . S
C17 O16 1.252 . S
C17 O18 1.252 . S
O18 Zn0 1.975 . S
O18 C17 1.252 . S
H19 C12 0.930 . S
H20 C13 0.930 . S
C21 C22 1.392 . S
C21 N25 1.328 . S
C21 H27 0.930 . S
C22 C21 1.392 . S
C22 N26 1.331 . S
C23 C24 1.391 . S
C23 N26 1.329 . S
C23 H33 0.930 . S
C24 C23 1.391 . S
C24 N25 1.334 . S
C24 H31 0.930 . S
N25 Zn9 2.119 . S
N25 C21 1.328 . S
N25 C24 1.334 . S
N26 C22 1.331 . S
N26 C23 1.329 . S
H27 C21 0.930 . S
C28 O8 1.257 . S
C28 O29 1.244 . S
O29 C28 1.244 . S
O30 C6 1.257 . S
O30 Zn9 2.019 . S
H31 C24 0.930 . S
H32 C11 0.930 . S
H33 C23 0.930 . S
Zn34 N38 2.020 . S
Zn34 O42 2.019 . S
Zn34 N44 2.119 . S
Zn34 O52 1.975 . S
C35 N36 1.334 1_545 S
C35 N39 1.336 1_545 S
N36 C35 1.334 1_565 S
N36 C37 1.334 . S
C37 N36 1.334 . S
C37 N38 1.336 . S
N38 Zn34 2.020 . S
N38 C37 1.336 . S
N38 N39 1.354 . S
N39 C35 1.336 1_565 S
N39 N38 1.354 . S
N39 Zn43 2.020 1_565 S
C40 O41 1.244 . S
C40 O64 1.257 . S
O41 C40 1.244 . S
O42 Zn34 2.019 . S
O42 C62 1.257 . S
Zn43 N39 2.020 1_545 S
Zn43 O50 1.975 1_545 S
Zn43 N59 2.119 . S
Zn43 O64 2.019 . S
N44 Zn34 2.119 . S
N44 C46 1.334 . S
N44 C47 1.328 . S
C45 C46 1.391 1_556 S
C45 N48 1.329 . S
C45 H66 0.930 . S
C46 N44 1.334 . S
C46 C45 1.391 1_554 S
C46 H53 0.930 . S
C47 N44 1.328 . S
C47 C49 1.392 1_554 S
C47 H54 0.930 . S
N48 C45 1.329 . S
N48 C49 1.331 . S
C49 C47 1.392 1_556 S
C49 N48 1.331 . S
O50 Zn43 1.975 1_565 S
O50 C51 1.252 . S
C51 O50 1.252 . S
C51 O52 1.252 . S
O52 Zn34 1.975 . S
O52 C51 1.252 . S
H53 C46 0.930 . S
H54 C47 0.930 . S
C55 C56 1.392 . S
C55 N59 1.328 . S
C55 H61 0.930 . S
C56 C55 1.392 . S
C56 N60 1.331 . S
C57 C58 1.391 1_545 S
C57 N60 1.329 . S
C57 H67 0.930 1_545 S
C58 C57 1.391 1_565 S
C58 N59 1.334 1_565 S
C58 H65 0.930 . S
N59 Zn43 2.119 . S
N59 C55 1.328 . S
N59 C58 1.334 1_545 S
N60 C56 1.331 . S
N60 C57 1.329 . S
H61 C55 0.930 . S
C62 O42 1.257 . S
C62 O63 1.244 . S
O63 C62 1.244 . S
O64 C40 1.257 . S
O64 Zn43 2.019 . S
H65 C58 0.930 . S
H66 C45 0.930 . S
H67 C57 0.930 1_565 S
Zn68 N72 2.020 . S
Zn68 O76 2.019 . S
Zn68 N78 2.119 . S
Zn68 O86 1.975 . S
C69 N70 1.334 1_655 S
C69 N73 1.336 1_655 S
N70 C69 1.334 1_455 S
N70 C71 1.334 . S
C71 N70 1.334 . S
C71 N72 1.336 . S
N72 Zn68 2.020 . S
N72 C71 1.336 . S
N72 N73 1.354 . S
N73 C69 1.336 1_455 S
N73 N72 1.354 . S
N73 Zn77 2.020 1_455 S
C74 O75 1.244 . S
C74 O98 1.257 . S
O75 C74 1.244 . S
O76 Zn68 2.019 . S
O76 C96 1.257 . S
Zn77 N73 2.020 1_655 S
Zn77 O84 1.975 1_655 S
Zn77 N93 2.119 . S
Zn77 O98 2.019 . S
N78 Zn68 2.119 . S
N78 C80 1.334 . S
N78 C81 1.328 . S
C79 C80 1.391 1_556 S
C79 N82 1.329 . S
C79 H100 0.930 . S
C80 N78 1.334 . S
C80 C79 1.391 1_554 S
C80 H87 0.930 . S
C81 N78 1.328 . S
C81 C83 1.392 1_554 S
C81 H88 0.930 . S
N82 C79 1.329 . S
N82 C83 1.331 . S
C83 C81 1.392 1_556 S
C83 N82 1.331 . S
O84 Zn77 1.975 1_455 S
O84 C85 1.252 . S
C85 O84 1.252 . S
C85 O86 1.252 . S
O86 Zn68 1.975 . S
O86 C85 1.252 . S
H87 C80 0.930 . S
H88 C81 0.930 . S
C89 C90 1.392 . S
C89 N93 1.328 . S
C89 H95 0.930 . S
C90 C89 1.392 . S
C90 N94 1.331 . S
C91 C92 1.391 1_655 S
C91 N94 1.329 . S
C91 H101 0.930 1_655 S
C92 C91 1.391 1_455 S
C92 N93 1.334 1_455 S
C92 H99 0.930 . S
N93 Zn77 2.119 . S
N93 C89 1.328 . S
N93 C92 1.334 1_655 S
N94 C90 1.331 . S
N94 C91 1.329 . S
H95 C89 0.930 . S
C96 O76 1.257 . S
C96 O97 1.244 . S
O97 C96 1.244 . S
O98 C74 1.257 . S
O98 Zn77 2.019 . S
H99 C92 0.930 . S
H100 C79 0.930 . S
H101 C91 0.930 1_455 S
Zn102 N106 2.020 . S
Zn102 O110 2.019 . S
Zn102 N112 2.119 . S
Zn102 O120 1.975 . S
C103 N104 1.334 . S
C103 N107 1.336 . S
N104 C103 1.334 . S
N104 C105 1.334 . S
C105 N104 1.334 . S
C105 N106 1.336 . S
N106 Zn102 2.020 . S
N106 C105 1.336 . S
N106 N107 1.354 . S
N107 C103 1.336 . S
N107 N106 1.354 . S
N107 Zn111 2.020 . S
C108 O109 1.244 . S
C108 O132 1.257 . S
O109 C108 1.244 . S
O110 Zn102 2.019 . S
O110 C130 1.257 . S
Zn111 N107 2.020 . S
Zn111 O118 1.975 . S
Zn111 N127 2.119 . S
Zn111 O132 2.019 . S
N112 Zn102 2.119 . S
N112 C114 1.334 . S
N112 C115 1.328 . S
C113 C114 1.391 1_554 S
C113 N116 1.329 . S
C113 H134 0.930 . S
C114 N112 1.334 . S
C114 C113 1.391 1_556 S
C114 H121 0.930 . S
C115 N112 1.328 . S
C115 C117 1.392 1_556 S
C115 H122 0.930 . S
N116 C113 1.329 . S
N116 C117 1.331 . S
C117 C115 1.392 1_554 S
C117 N116 1.331 . S
O118 Zn111 1.975 . S
O118 C119 1.252 . S
C119 O118 1.252 . S
C119 O120 1.252 . S
O120 Zn102 1.975 . S
O120 C119 1.252 . S
H121 C114 0.930 . S
H122 C115 0.930 . S
C123 C124 1.392 . S
C123 N127 1.328 . S
C123 H129 0.930 . S
C124 C123 1.392 . S
C124 N128 1.331 . S
C125 C126 1.391 . S
C125 N128 1.329 . S
C125 H135 0.930 . S
C126 C125 1.391 . S
C126 N127 1.334 . S
C126 H133 0.930 . S
N127 Zn111 2.119 . S
N127 C123 1.328 . S
N127 C126 1.334 . S
N128 C124 1.331 . S
N128 C125 1.329 . S
H129 C123 0.930 . S
C130 O110 1.257 . S
C130 O131 1.244 . S
O131 C130 1.244 . S
O132 C108 1.257 . S
O132 Zn111 2.019 . S
H133 C126 0.930 . S
H134 C113 0.930 . S
H135 C125 0.930 . S
Zn136 N140 2.020 . S
Zn136 O144 2.019 . S
Zn136 N146 2.119 . S
Zn136 O154 1.975 . S
C137 N138 1.334 1_565 S
C137 N141 1.336 1_565 S
N138 C137 1.334 1_545 S
N138 C139 1.334 . S
C139 N138 1.334 . S
C139 N140 1.336 . S
N140 Zn136 2.020 . S
N140 C139 1.336 . S
N140 N141 1.354 . S
N141 C137 1.336 1_545 S
N141 N140 1.354 . S
N141 Zn145 2.020 1_545 S
C142 O143 1.244 . S
C142 O166 1.257 . S
O143 C142 1.244 . S
O144 Zn136 2.019 . S
O144 C164 1.257 . S
Zn145 N141 2.020 1_565 S
Zn145 O152 1.975 1_565 S
Zn145 N161 2.119 . S
Zn145 O166 2.019 . S
N146 Zn136 2.119 . S
N146 C148 1.334 . S
N146 C149 1.328 . S
C147 C148 1.391 1_554 S
C147 N150 1.329 . S
C147 H168 0.930 . S
C148 N146 1.334 . S
C148 C147 1.391 1_556 S
C148 H155 0.930 . S
C149 N146 1.328 . S
C149 C151 1.392 1_556 S
C149 H156 0.930 . S
N150 C147 1.329 . S
N150 C151 1.331 . S
C151 C149 1.392 1_554 S
C151 N150 1.331 . S
O152 Zn145 1.975 1_545 S
O152 C153 1.252 . S
C153 O152 1.252 . S
C153 O154 1.252 . S
O154 Zn136 1.975 . S
O154 C153 1.252 . S
H155 C148 0.930 . S
H156 C149 0.930 . S
C157 C158 1.392 . S
C157 N161 1.328 . S
C157 H163 0.930 . S
C158 C157 1.392 . S
C158 N162 1.331 . S
C159 C160 1.391 1_565 S
C159 N162 1.329 . S
C159 H169 0.930 1_565 S
C160 C159 1.391 1_545 S
C160 N161 1.334 1_545 S
C160 H167 0.930 . S
N161 Zn145 2.119 . S
N161 C157 1.328 . S
N161 C160 1.334 1_565 S
N162 C158 1.331 . S
N162 C159 1.329 . S
H163 C157 0.930 . S
C164 O144 1.257 . S
C164 O165 1.244 . S
O165 C164 1.244 . S
O166 C142 1.257 . S
O166 Zn145 2.019 . S
H167 C160 0.930 . S
H168 C147 0.930 . S
H169 C159 0.930 1_545 S
Zn170 N174 2.020 . S
Zn170 O178 2.019 . S
Zn170 N180 2.119 . S
Zn170 O188 1.975 . S
C171 N172 1.334 1_455 S
C171 N175 1.336 1_455 S
N172 C171 1.334 1_655 S
N172 C173 1.334 . S
C173 N172 1.334 . S
C173 N174 1.336 . S
N174 Zn170 2.020 . S
N174 C173 1.336 . S
N174 N175 1.354 . S
N175 C171 1.336 1_655 S
N175 N174 1.354 . S
N175 Zn179 2.020 1_655 S
C176 O177 1.244 . S
C176 O200 1.257 . S
O177 C176 1.244 . S
O178 Zn170 2.019 . S
O178 C198 1.257 . S
Zn179 N175 2.020 1_455 S
Zn179 O186 1.975 1_455 S
Zn179 N195 2.119 . S
Zn179 O200 2.019 . S
N180 Zn170 2.119 . S
N180 C182 1.334 . S
N180 C183 1.328 . S
C181 C182 1.391 1_554 S
C181 N184 1.329 . S
C181 H202 0.930 . S
C182 N180 1.334 . S
C182 C181 1.391 1_556 S
C182 H189 0.930 . S
C183 N180 1.328 . S
C183 C185 1.392 1_556 S
C183 H190 0.930 . S
N184 C181 1.329 . S
N184 C185 1.331 . S
C185 C183 1.392 1_554 S
C185 N184 1.331 . S
O186 Zn179 1.975 1_655 S
O186 C187 1.252 . S
C187 O186 1.252 . S
C187 O188 1.252 . S
O188 Zn170 1.975 . S
O188 C187 1.252 . S
H189 C182 0.930 . S
H190 C183 0.930 . S
C191 C192 1.392 . S
C191 N195 1.328 . S
C191 H197 0.930 . S
C192 C191 1.392 . S
C192 N196 1.331 . S
C193 C194 1.391 1_455 S
C193 N196 1.329 . S
C193 H203 0.930 1_455 S
C194 C193 1.391 1_655 S
C194 N195 1.334 1_655 S
C194 H201 0.930 . S
N195 Zn179 2.119 . S
N195 C191 1.328 . S
N195 C194 1.334 1_455 S
N196 C192 1.331 . S
N196 C193 1.329 . S
H197 C191 0.930 . S
C198 O178 1.257 . S
C198 O199 1.244 . S
O199 C198 1.244 . S
O200 C176 1.257 . S
O200 Zn179 2.019 . S
H201 C194 0.930 . S
H202 C181 0.930 . S
H203 C193 0.930 1_655 S
Zn204 N208 2.020 . S
Zn204 O212 2.019 . S
Zn204 N214 2.119 . S
Zn204 O222 1.975 . S
C205 N206 1.334 . S
C205 N209 1.336 . S
N206 C205 1.334 . S
N206 C207 1.334 . S
C207 N206 1.334 . S
C207 N208 1.336 . S
N208 Zn204 2.020 . S
N208 C207 1.336 . S
N208 N209 1.354 . S
N209 C205 1.336 . S
N209 N208 1.354 . S
N209 Zn213 2.020 . S
C210 O211 1.244 . S
C210 O234 1.257 . S
O211 C210 1.244 . S
O212 Zn204 2.019 . S
O212 C232 1.257 . S
Zn213 N209 2.020 . S
Zn213 O220 1.975 . S
Zn213 N229 2.119 . S
Zn213 O234 2.019 . S
N214 Zn204 2.119 . S
N214 C216 1.334 . S
N214 C217 1.328 . S
C215 C216 1.391 . S
C215 N218 1.329 . S
C215 H236 0.930 . S
C216 N214 1.334 . S
C216 C215 1.391 . S
C216 H223 0.930 . S
C217 N214 1.328 . S
C217 C219 1.392 . S
C217 H224 0.930 . S
N218 C215 1.329 . S
N218 C219 1.331 . S
C219 C217 1.392 . S
C219 N218 1.331 . S
O220 Zn213 1.975 . S
O220 C221 1.252 . S
C221 O220 1.252 . S
C221 O222 1.252 . S
O222 Zn204 1.975 . S
O222 C221 1.252 . S
H223 C216 0.930 . S
H224 C217 0.930 . S
C225 C226 1.392 1_655 S
C225 N229 1.328 . S
C225 H231 0.930 . S
C226 C225 1.392 1_455 S
C226 N230 1.331 . S
C227 C228 1.391 . S
C227 N230 1.329 1_655 S
C227 H237 0.930 . S
C228 C227 1.391 . S
C228 N229 1.334 . S
C228 H235 0.930 . S
N229 Zn213 2.119 . S
N229 C225 1.328 . S
N229 C228 1.334 . S
N230 C226 1.331 . S
N230 C227 1.329 1_455 S
H231 C225 0.930 . S
C232 O212 1.257 . S
C232 O233 1.244 . S
O233 C232 1.244 . S
O234 C210 1.257 . S
O234 Zn213 2.019 . S
H235 C228 0.930 . S
H236 C215 0.930 . S
H237 C227 0.930 . S
Zn238 N242 2.020 . S
Zn238 O246 2.019 . S
Zn238 N248 2.119 . S
Zn238 O256 1.975 . S
C239 N240 1.334 . S
C239 N243 1.336 . S
N240 C239 1.334 . S
N240 C241 1.334 . S
C241 N240 1.334 . S
C241 N242 1.336 . S
N242 Zn238 2.020 . S
N242 C241 1.336 . S
N242 N243 1.354 . S
N243 C239 1.336 . S
N243 N242 1.354 . S
N243 Zn247 2.020 . S
C244 O245 1.244 . S
C244 O268 1.257 . S
O245 C244 1.244 . S
O246 Zn238 2.019 . S
O246 C266 1.257 . S
Zn247 N243 2.020 . S
Zn247 O254 1.975 . S
Zn247 N263 2.119 . S
Zn247 O268 2.019 . S
N248 Zn238 2.119 . S
N248 C250 1.334 . S
N248 C251 1.328 . S
C249 C250 1.391 . S
C249 N252 1.329 . S
C249 H270 0.930 . S
C250 N248 1.334 . S
C250 C249 1.391 . S
C250 H257 0.930 . S
C251 N248 1.328 . S
C251 C253 1.392 . S
C251 H258 0.930 . S
N252 C249 1.329 . S
N252 C253 1.331 . S
C253 C251 1.392 . S
C253 N252 1.331 . S
O254 Zn247 1.975 . S
O254 C255 1.252 . S
C255 O254 1.252 . S
C255 O256 1.252 . S
O256 Zn238 1.975 . S
O256 C255 1.252 . S
H257 C250 0.930 . S
H258 C251 0.930 . S
C259 C260 1.392 . S
C259 N263 1.328 . S
C259 H265 0.930 . S
C260 C259 1.392 . S
C260 N264 1.331 . S
C261 C262 1.391 . S
C261 N264 1.329 . S
C261 H271 0.930 . S
C262 C261 1.391 . S
C262 N263 1.334 . S
C262 H269 0.930 . S
N263 Zn247 2.119 . S
N263 C259 1.328 . S
N263 C262 1.334 . S
N264 C260 1.331 . S
N264 C261 1.329 . S
H265 C259 0.930 . S
C266 O246 1.257 . S
C266 O267 1.244 . S
O267 C266 1.244 . S
O268 C244 1.257 . S
O268 Zn247 2.019 . S
H269 C262 0.930 . S
H270 C249 0.930 . S
H271 C261 0.930 . S
Zn272 N276 2.020 . S
Zn272 O280 2.019 . S
Zn272 N282 2.119 . S
Zn272 O290 1.975 . S
C273 N274 1.334 . S
C273 N277 1.336 . S
N274 C273 1.334 . S
N274 C275 1.334 . S
C275 N274 1.334 . S
C275 N276 1.336 . S
N276 Zn272 2.020 . S
N276 C275 1.336 . S
N276 N277 1.354 . S
N277 C273 1.336 . S
N277 N276 1.354 . S
N277 Zn281 2.020 . S
C278 O279 1.244 . S
C278 O302 1.257 . S
O279 C278 1.244 . S
O280 Zn272 2.019 . S
O280 C300 1.257 . S
Zn281 N277 2.020 . S
Zn281 O288 1.975 . S
Zn281 N297 2.119 . S
Zn281 O302 2.019 . S
N282 Zn272 2.119 . S
N282 C284 1.334 . S
N282 C285 1.328 . S
C283 C284 1.391 . S
C283 N286 1.329 . S
C283 H304 0.930 . S
C284 N282 1.334 . S
C284 C283 1.391 . S
C284 H291 0.930 . S
C285 N282 1.328 . S
C285 C287 1.392 . S
C285 H292 0.930 . S
N286 C283 1.329 . S
N286 C287 1.331 . S
C287 C285 1.392 . S
C287 N286 1.331 . S
O288 Zn281 1.975 . S
O288 C289 1.252 . S
C289 O288 1.252 . S
C289 O290 1.252 . S
O290 Zn272 1.975 . S
O290 C289 1.252 . S
H291 C284 0.930 . S
H292 C285 0.930 . S
C293 C294 1.392 1_545 S
C293 N297 1.328 . S
C293 H299 0.930 . S
C294 C293 1.392 1_565 S
C294 N298 1.331 . S
C295 C296 1.391 . S
C295 N298 1.329 1_545 S
C295 H305 0.930 . S
C296 C295 1.391 . S
C296 N297 1.334 . S
C296 H303 0.930 . S
N297 Zn281 2.119 . S
N297 C293 1.328 . S
N297 C296 1.334 . S
N298 C294 1.331 . S
N298 C295 1.329 1_565 S
H299 C293 0.930 . S
C300 O280 1.257 . S
C300 O301 1.244 . S
O301 C300 1.244 . S
O302 C278 1.257 . S
O302 Zn281 2.019 . S
H303 C296 0.930 . S
H304 C283 0.930 . S
H305 C295 0.930 . S
Zn306 N310 2.020 1_554 S
Zn306 O314 2.019 . S
Zn306 N316 2.119 1_554 S
Zn306 O324 1.975 . S
C307 N308 1.334 . S
C307 N311 1.336 . S
N308 C307 1.334 . S
N308 C309 1.334 . S
C309 N308 1.334 . S
C309 N310 1.336 . S
N310 Zn306 2.020 1_556 S
N310 C309 1.336 . S
N310 N311 1.354 . S
N311 C307 1.336 . S
N311 N310 1.354 . S
N311 Zn315 2.020 1_556 S
C312 O313 1.244 . S
C312 O336 1.257 1_556 S
O313 C312 1.244 . S
O314 Zn306 2.019 . S
O314 C334 1.257 . S
Zn315 N311 2.020 1_554 S
Zn315 O322 1.975 . S
Zn315 N331 2.119 . S
Zn315 O336 2.019 . S
N316 Zn306 2.119 1_556 S
N316 C318 1.334 . S
N316 C319 1.328 . S
C317 C318 1.391 . S
C317 N320 1.329 . S
C317 H338 0.930 . S
C318 N316 1.334 . S
C318 C317 1.391 . S
C318 H325 0.930 . S
C319 N316 1.328 . S
C319 C321 1.392 . S
C319 H326 0.930 . S
N320 C317 1.329 . S
N320 C321 1.331 . S
C321 C319 1.392 . S
C321 N320 1.331 . S
O322 Zn315 1.975 . S
O322 C323 1.252 . S
C323 O322 1.252 . S
C323 O324 1.252 . S
O324 Zn306 1.975 . S
O324 C323 1.252 . S
H325 C318 0.930 . S
H326 C319 0.930 . S
C327 C328 1.392 . S
C327 N331 1.328 . S
C327 H333 0.930 . S
C328 C327 1.392 . S
C328 N332 1.331 . S
C329 C330 1.391 . S
C329 N332 1.329 . S
C329 H339 0.930 . S
C330 C329 1.391 . S
C330 N331 1.334 . S
C330 H337 0.930 . S
N331 Zn315 2.119 . S
N331 C327 1.328 . S
N331 C330 1.334 . S
N332 C328 1.331 . S
N332 C329 1.329 . S
H333 C327 0.930 . S
C334 O314 1.257 . S
C334 O335 1.244 . S
O335 C334 1.244 . S
O336 C312 1.257 1_554 S
O336 Zn315 2.019 . S
H337 C330 0.930 . S
H338 C317 0.930 . S
H339 C329 0.930 . S
Zn340 N344 2.020 1_554 S
Zn340 O348 2.019 . S
Zn340 N350 2.119 . S
Zn340 O358 1.975 . S
C341 N342 1.334 . S
C341 N345 1.336 . S
N342 C341 1.334 . S
N342 C343 1.334 . S
C343 N342 1.334 . S
C343 N344 1.336 . S
N344 Zn340 2.020 1_556 S
N344 C343 1.336 . S
N344 N345 1.354 . S
N345 C341 1.336 . S
N345 N344 1.354 . S
N345 Zn349 2.020 1_556 S
C346 O347 1.244 . S
C346 O370 1.257 . S
O347 C346 1.244 . S
O348 Zn340 2.019 . S
O348 C368 1.257 1_554 S
Zn349 N345 2.020 1_554 S
Zn349 O356 1.975 . S
Zn349 N365 2.119 1_554 S
Zn349 O370 2.019 . S
N350 Zn340 2.119 . S
N350 C352 1.334 . S
N350 C353 1.328 . S
C351 C352 1.391 . S
C351 N354 1.329 . S
C351 H372 0.930 . S
C352 N350 1.334 . S
C352 C351 1.391 . S
C352 H359 0.930 . S
C353 N350 1.328 . S
C353 C355 1.392 . S
C353 H360 0.930 . S
N354 C351 1.329 . S
N354 C355 1.331 . S
C355 C353 1.392 . S
C355 N354 1.331 . S
O356 Zn349 1.975 . S
O356 C357 1.252 . S
C357 O356 1.252 . S
C357 O358 1.252 . S
O358 Zn340 1.975 . S
O358 C357 1.252 . S
H359 C352 0.930 . S
H360 C353 0.930 . S
C361 C362 1.392 . S
C361 N365 1.328 . S
C361 H367 0.930 . S
C362 C361 1.392 . S
C362 N366 1.331 . S
C363 C364 1.391 . S
C363 N366 1.329 . S
C363 H373 0.930 . S
C364 C363 1.391 . S
C364 N365 1.334 . S
C364 H371 0.930 . S
N365 Zn349 2.119 1_556 S
N365 C361 1.328 . S
N365 C364 1.334 . S
N366 C362 1.331 . S
N366 C363 1.329 . S
H367 C361 0.930 . S
C368 O348 1.257 1_556 S
C368 O369 1.244 . S
O369 C368 1.244 . S
O370 C346 1.257 . S
O370 Zn349 2.019 . S
H371 C364 0.930 . S
H372 C351 0.930 . S
H373 C363 0.930 . S
Zn374 N378 2.020 1_554 S
Zn374 O382 2.019 . S
Zn374 N384 2.119 1_554 S
Zn374 O392 1.975 . S
C375 N376 1.334 . S
C375 N379 1.336 . S
N376 C375 1.334 . S
N376 C377 1.334 . S
C377 N376 1.334 . S
C377 N378 1.336 . S
N378 Zn374 2.020 1_556 S
N378 C377 1.336 . S
N378 N379 1.354 . S
N379 C375 1.336 . S
N379 N378 1.354 . S
N379 Zn383 2.020 1_556 S
C380 O381 1.244 . S
C380 O404 1.257 1_556 S
O381 C380 1.244 . S
O382 Zn374 2.019 . S
O382 C402 1.257 . S
Zn383 N379 2.020 1_554 S
Zn383 O390 1.975 . S
Zn383 N399 2.119 . S
Zn383 O404 2.019 . S
N384 Zn374 2.119 1_556 S
N384 C386 1.334 . S
N384 C387 1.328 . S
C385 C386 1.391 . S
C385 N388 1.329 . S
C385 H406 0.930 . S
C386 N384 1.334 . S
C386 C385 1.391 . S
C386 H393 0.930 . S
C387 N384 1.328 . S
C387 C389 1.392 . S
C387 H394 0.930 . S
N388 C385 1.329 . S
N388 C389 1.331 . S
C389 C387 1.392 . S
C389 N388 1.331 . S
O390 Zn383 1.975 . S
O390 C391 1.252 . S
C391 O390 1.252 . S
C391 O392 1.252 . S
O392 Zn374 1.975 . S
O392 C391 1.252 . S
H393 C386 0.930 . S
H394 C387 0.930 . S
C395 C396 1.392 . S
C395 N399 1.328 . S
C395 H401 0.930 . S
C396 C395 1.392 . S
C396 N400 1.331 . S
C397 C398 1.391 . S
C397 N400 1.329 . S
C397 H407 0.930 . S
C398 C397 1.391 . S
C398 N399 1.334 . S
C398 H405 0.930 . S
N399 Zn383 2.119 . S
N399 C395 1.328 . S
N399 C398 1.334 . S
N400 C396 1.331 . S
N400 C397 1.329 . S
H401 C395 0.930 . S
C402 O382 1.257 . S
C402 O403 1.244 . S
O403 C402 1.244 . S
O404 C380 1.257 1_554 S
O404 Zn383 2.019 . S
H405 C398 0.930 . S
H406 C385 0.930 . S
H407 C397 0.930 . S
Zn408 N412 2.020 1_556 S
Zn408 O416 2.019 . S
Zn408 N418 2.119 . S
Zn408 O426 1.975 . S
C409 N410 1.334 . S
C409 N413 1.336 . S
N410 C409 1.334 . S
N410 C411 1.334 . S
C411 N410 1.334 . S
C411 N412 1.336 . S
N412 Zn408 2.020 1_554 S
N412 C411 1.336 . S
N412 N413 1.354 . S
N413 C409 1.336 . S
N413 N412 1.354 . S
N413 Zn417 2.020 1_554 S
C414 O415 1.244 . S
C414 O438 1.257 . S
O415 C414 1.244 . S
O416 Zn408 2.019 . S
O416 C436 1.257 1_556 S
Zn417 N413 2.020 1_556 S
Zn417 O424 1.975 . S
Zn417 N433 2.119 1_556 S
Zn417 O438 2.019 . S
N418 Zn408 2.119 . S
N418 C420 1.334 . S
N418 C421 1.328 . S
C419 C420 1.391 . S
C419 N422 1.329 . S
C419 H440 0.930 . S
C420 N418 1.334 . S
C420 C419 1.391 . S
C420 H427 0.930 . S
C421 N418 1.328 . S
C421 C423 1.392 . S
C421 H428 0.930 . S
N422 C419 1.329 . S
N422 C423 1.331 . S
C423 C421 1.392 . S
C423 N422 1.331 . S
O424 Zn417 1.975 . S
O424 C425 1.252 . S
C425 O424 1.252 . S
C425 O426 1.252 . S
O426 Zn408 1.975 . S
O426 C425 1.252 . S
H427 C420 0.930 . S
H428 C421 0.930 . S
C429 C430 1.392 . S
C429 N433 1.328 . S
C429 H435 0.930 . S
C430 C429 1.392 . S
C430 N434 1.331 . S
C431 C432 1.391 . S
C431 N434 1.329 . S
C431 H441 0.930 . S
C432 C431 1.391 . S
C432 N433 1.334 . S
C432 H439 0.930 . S
N433 Zn417 2.119 1_554 S
N433 C429 1.328 . S
N433 C432 1.334 . S
N434 C430 1.331 . S
N434 C431 1.329 . S
H435 C429 0.930 . S
C436 O416 1.257 1_554 S
C436 O437 1.244 . S
O437 C436 1.244 . S
O438 C414 1.257 . S
O438 Zn417 2.019 . S
H439 C432 0.930 . S
H440 C419 0.930 . S
H441 C431 0.930 . S
Zn442 N446 2.020 1_556 S
Zn442 O450 2.019 . S
Zn442 N452 2.119 . S
Zn442 O460 1.975 . S
C443 N444 1.334 . S
C443 N447 1.336 . S
N444 C443 1.334 . S
N444 C445 1.334 . S
C445 N444 1.334 . S
C445 N446 1.336 . S
N446 Zn442 2.020 1_554 S
N446 C445 1.336 . S
N446 N447 1.354 . S
N447 C443 1.336 . S
N447 N446 1.354 . S
N447 Zn451 2.020 1_554 S
C448 O449 1.244 . S
C448 O472 1.257 . S
O449 C448 1.244 . S
O450 Zn442 2.019 . S
O450 C470 1.257 1_556 S
Zn451 N447 2.020 1_556 S
Zn451 O458 1.975 . S
Zn451 N467 2.119 1_556 S
Zn451 O472 2.019 . S
N452 Zn442 2.119 . S
N452 C454 1.334 . S
N452 C455 1.328 . S
C453 C454 1.391 . S
C453 N456 1.329 . S
C453 H474 0.930 . S
C454 N452 1.334 . S
C454 C453 1.391 . S
C454 H461 0.930 . S
C455 N452 1.328 . S
C455 C457 1.392 . S
C455 H462 0.930 . S
N456 C453 1.329 . S
N456 C457 1.331 . S
C457 C455 1.392 . S
C457 N456 1.331 . S
O458 Zn451 1.975 . S
O458 C459 1.252 . S
C459 O458 1.252 . S
C459 O460 1.252 . S
O460 Zn442 1.975 . S
O460 C459 1.252 . S
H461 C454 0.930 . S
H462 C455 0.930 . S
C463 C464 1.392 . S
C463 N467 1.328 . S
C463 H469 0.930 . S
C464 C463 1.392 . S
C464 N468 1.331 . S
C465 C466 1.391 . S
C465 N468 1.329 . S
C465 H475 0.930 . S
C466 C465 1.391 . S
C466 N467 1.334 . S
C466 H473 0.930 . S
N467 Zn451 2.119 1_554 S
N467 C463 1.328 . S
N467 C466 1.334 . S
N468 C464 1.331 . S
N468 C465 1.329 . S
H469 C463 0.930 . S
C470 O450 1.257 1_554 S
C470 O471 1.244 . S
O471 C470 1.244 . S
O472 C448 1.257 . S
O472 Zn451 2.019 . S
H473 C466 0.930 . S
H474 C453 0.930 . S
H475 C465 0.930 . S
Zn476 N480 2.020 1_556 S
Zn476 O484 2.019 . S
Zn476 N486 2.119 . S
Zn476 O494 1.975 . S
C477 N478 1.334 . S
C477 N481 1.336 . S
N478 C477 1.334 . S
N478 C479 1.334 . S
C479 N478 1.334 . S
C479 N480 1.336 . S
N480 Zn476 2.020 1_554 S
N480 C479 1.336 . S
N480 N481 1.354 . S
N481 C477 1.336 . S
N481 N480 1.354 . S
N481 Zn485 2.020 1_554 S
C482 O483 1.244 . S
C482 O506 1.257 . S
O483 C482 1.244 . S
O484 Zn476 2.019 . S
O484 C504 1.257 1_556 S
Zn485 N481 2.020 1_556 S
Zn485 O492 1.975 . S
Zn485 N501 2.119 1_556 S
Zn485 O506 2.019 . S
N486 Zn476 2.119 . S
N486 C488 1.334 . S
N486 C489 1.328 . S
C487 C488 1.391 . S
C487 N490 1.329 . S
C487 H508 0.930 . S
C488 N486 1.334 . S
C488 C487 1.391 . S
C488 H495 0.930 . S
C489 N486 1.328 . S
C489 C491 1.392 . S
C489 H496 0.930 . S
N490 C487 1.329 . S
N490 C491 1.331 . S
C491 C489 1.392 . S
C491 N490 1.331 . S
O492 Zn485 1.975 . S
O492 C493 1.252 . S
C493 O492 1.252 . S
C493 O494 1.252 . S
O494 Zn476 1.975 . S
O494 C493 1.252 . S
H495 C488 0.930 . S
H496 C489 0.930 . S
C497 C498 1.392 . S
C497 N501 1.328 . S
C497 H503 0.930 . S
C498 C497 1.392 . S
C498 N502 1.331 . S
C499 C500 1.391 . S
C499 N502 1.329 . S
C499 H509 0.930 . S
C500 C499 1.391 . S
C500 N501 1.334 . S
C500 H507 0.930 . S
N501 Zn485 2.119 1_554 S
N501 C497 1.328 . S
N501 C500 1.334 . S
N502 C498 1.331 . S
N502 C499 1.329 . S
H503 C497 0.930 . S
C504 O484 1.257 1_554 S
C504 O505 1.244 . S
O505 C504 1.244 . S
O506 C482 1.257 . S
O506 Zn485 2.019 . S
H507 C500 0.930 . S
H508 C487 0.930 . S
H509 C499 0.930 . S
Zn510 N514 2.020 . S
Zn510 O518 2.019 . S
Zn510 N520 2.119 . S
Zn510 O528 1.975 . S
C511 N512 1.334 . S
C511 N515 1.336 . S
N512 C511 1.334 . S
N512 C513 1.334 . S
C513 N512 1.334 . S
C513 N514 1.336 . S
N514 Zn510 2.020 . S
N514 C513 1.336 . S
N514 N515 1.354 . S
N515 C511 1.336 . S
N515 N514 1.354 . S
N515 Zn519 2.020 . S
C516 O517 1.244 . S
C516 O540 1.257 . S
O517 C516 1.244 . S
O518 Zn510 2.019 . S
O518 C538 1.257 . S
Zn519 N515 2.020 . S
Zn519 O526 1.975 . S
Zn519 N535 2.119 . S
Zn519 O540 2.019 . S
N520 Zn510 2.119 . S
N520 C522 1.334 . S
N520 C523 1.328 . S
C521 C522 1.391 . S
C521 N524 1.329 1_455 S
C521 H542 0.930 . S
C522 N520 1.334 . S
C522 C521 1.391 . S
C522 H529 0.930 . S
C523 N520 1.328 . S
C523 C525 1.392 1_455 S
C523 H530 0.930 . S
N524 C521 1.329 1_655 S
N524 C525 1.331 . S
C525 C523 1.392 1_655 S
C525 N524 1.331 . S
O526 Zn519 1.975 . S
O526 C527 1.252 . S
C527 O526 1.252 . S
C527 O528 1.252 . S
O528 Zn510 1.975 . S
O528 C527 1.252 . S
H529 C522 0.930 . S
H530 C523 0.930 . S
C531 C532 1.392 . S
C531 N535 1.328 . S
C531 H537 0.930 . S
C532 C531 1.392 . S
C532 N536 1.331 . S
C533 C534 1.391 . S
C533 N536 1.329 . S
C533 H543 0.930 . S
C534 C533 1.391 . S
C534 N535 1.334 . S
C534 H541 0.930 . S
N535 Zn519 2.119 . S
N535 C531 1.328 . S
N535 C534 1.334 . S
N536 C532 1.331 . S
N536 C533 1.329 . S
H537 C531 0.930 . S
C538 O518 1.257 . S
C538 O539 1.244 . S
O539 C538 1.244 . S
O540 C516 1.257 . S
O540 Zn519 2.019 . S
H541 C534 0.930 . S
H542 C521 0.930 . S
H543 C533 0.930 . S
Zn544 N548 2.020 . S
Zn544 O552 2.019 . S
Zn544 N554 2.119 . S
Zn544 O562 1.975 . S
C545 N546 1.334 . S
C545 N549 1.336 . S
N546 C545 1.334 . S
N546 C547 1.334 . S
C547 N546 1.334 . S
C547 N548 1.336 . S
N548 Zn544 2.020 . S
N548 C547 1.336 . S
N548 N549 1.354 . S
N549 C545 1.336 . S
N549 N548 1.354 . S
N549 Zn553 2.020 . S
C550 O551 1.244 . S
C550 O574 1.257 . S
O551 C550 1.244 . S
O552 Zn544 2.019 . S
O552 C572 1.257 . S
Zn553 N549 2.020 . S
Zn553 O560 1.975 . S
Zn553 N569 2.119 . S
Zn553 O574 2.019 . S
N554 Zn544 2.119 . S
N554 C556 1.334 . S
N554 C557 1.328 . S
C555 C556 1.391 . S
C555 N558 1.329 . S
C555 H576 0.930 . S
C556 N554 1.334 . S
C556 C555 1.391 . S
C556 H563 0.930 . S
C557 N554 1.328 . S
C557 C559 1.392 . S
C557 H564 0.930 . S
N558 C555 1.329 . S
N558 C559 1.331 . S
C559 C557 1.392 . S
C559 N558 1.331 . S
O560 Zn553 1.975 . S
O560 C561 1.252 . S
C561 O560 1.252 . S
C561 O562 1.252 . S
O562 Zn544 1.975 . S
O562 C561 1.252 . S
H563 C556 0.930 . S
H564 C557 0.930 . S
C565 C566 1.392 . S
C565 N569 1.328 . S
C565 H571 0.930 . S
C566 C565 1.392 . S
C566 N570 1.331 . S
C567 C568 1.391 . S
C567 N570 1.329 . S
C567 H577 0.930 . S
C568 C567 1.391 . S
C568 N569 1.334 . S
C568 H575 0.930 . S
N569 Zn553 2.119 . S
N569 C565 1.328 . S
N569 C568 1.334 . S
N570 C566 1.331 . S
N570 C567 1.329 . S
H571 C565 0.930 . S
C572 O552 1.257 . S
C572 O573 1.244 . S
O573 C572 1.244 . S
O574 C550 1.257 . S
O574 Zn553 2.019 . S
H575 C568 0.930 . S
H576 C555 0.930 . S
H577 C567 0.930 . S
Zn578 N582 2.020 . S
Zn578 O586 2.019 . S
Zn578 N588 2.119 . S
Zn578 O596 1.975 . S
C579 N580 1.334 . S
C579 N583 1.336 . S
N580 C579 1.334 . S
N580 C581 1.334 . S
C581 N580 1.334 . S
C581 N582 1.336 . S
N582 Zn578 2.020 . S
N582 C581 1.336 . S
N582 N583 1.354 . S
N583 C579 1.336 . S
N583 N582 1.354 . S
N583 Zn587 2.020 . S
C584 O585 1.244 . S
C584 O608 1.257 . S
O585 C584 1.244 . S
O586 Zn578 2.019 . S
O586 C606 1.257 . S
Zn587 N583 2.020 . S
Zn587 O594 1.975 . S
Zn587 N603 2.119 . S
Zn587 O608 2.019 . S
N588 Zn578 2.119 . S
N588 C590 1.334 . S
N588 C591 1.328 . S
C589 C590 1.391 . S
C589 N592 1.329 1_565 S
C589 H610 0.930 . S
C590 N588 1.334 . S
C590 C589 1.391 . S
C590 H597 0.930 . S
C591 N588 1.328 . S
C591 C593 1.392 1_565 S
C591 H598 0.930 . S
N592 C589 1.329 1_545 S
N592 C593 1.331 . S
C593 C591 1.392 1_545 S
C593 N592 1.331 . S
O594 Zn587 1.975 . S
O594 C595 1.252 . S
C595 O594 1.252 . S
C595 O596 1.252 . S
O596 Zn578 1.975 . S
O596 C595 1.252 . S
H597 C590 0.930 . S
H598 C591 0.930 . S
C599 C600 1.392 . S
C599 N603 1.328 . S
C599 H605 0.930 . S
C600 C599 1.392 . S
C600 N604 1.331 . S
C601 C602 1.391 . S
C601 N604 1.329 . S
C601 H611 0.930 . S
C602 C601 1.391 . S
C602 N603 1.334 . S
C602 H609 0.930 . S
N603 Zn587 2.119 . S
N603 C599 1.328 . S
N603 C602 1.334 . S
N604 C600 1.331 . S
N604 C601 1.329 . S
H605 C599 0.930 . S
C606 O586 1.257 . S
C606 O607 1.244 . S
O607 C606 1.244 . S
O608 C584 1.257 . S
O608 Zn587 2.019 . S
H609 C602 0.930 . S
H610 C589 0.930 . S
H611 C601 0.930 . S
C139 C1 4.014 . S
C173 C35 4.014 . S
C69 C105 4.014 . S
C37 C103 4.014 . S
C137 C71 4.014 . S
C3 C171 4.014 . S
C343 C205 4.014 . S
C375 C239 4.014 . S
C273 C307 4.014 . S
C309 C241 4.014 . S
C341 C275 4.014 . S
C207 C377 4.014 . S
C547 C409 4.014 . S
C579 C443 4.014 . S
C511 C477 4.014 . S
C513 C445 4.014 . S
C479 C545 4.014 . S
C581 C411 4.014 . S
C28 C516 1.820 . S
C62 C572 1.820 . S
C96 C584 1.820 . S
C232 C130 1.820 . S
C164 C266 1.820 . S
C198 C300 1.820 . S
C436 C312 1.820 1_564 S
C368 C470 1.820 1_656 S
C380 C504 1.821 1_556 S
C151 C6 1.454 . S
C185 C40 1.454 . S
C74 C117 1.454 . S
C49 C108 1.454 . S
C83 C142 1.454 . S
C15 C176 1.454 . S
C355 C210 1.454 . S
C396 C244 1.454 . S
C328 C278 1.454 . S
C253 C334 1.454 . S
C346 C287 1.454 . S
C219 C402 1.454 . S
C414 C559 1.454 . S
C600 C448 1.454 . S
C482 C532 1.454 . S
C538 C457 1.454 . S
C550 C491 1.454 . S
C423 C606 1.454 . S
C498 C17 1.450 . S
C51 C430 1.450 . S
C85 C464 1.450 . S
C119 C389 1.450 . S
C153 C321 1.450 . S
C362 C187 1.450 . S
C221 C90 1.450 . S
C255 C22 1.450 . S
C56 C289 1.451 . S
C593 C323 1.450 . S
C525 C357 1.450 . S
C391 C566 1.450 . S
C425 C294 1.450 . S
C226 C459 1.450 . S
C260 C493 1.450 . S
C527 C192 1.450 . S
C124 C561 1.450 . S
C595 C158 1.451 . S
