# Generated by pormake.
# Topology smt, (6)-cn, num edge types: 1
# Building blocks:
#     Node 0, Type 0, BuildingBlock: VOLQOD_clean_sbu_1, # of connection points: 6
#     Node 1, Type 0, BuildingBlock: VOLQOD_clean_sbu_1, # of connection points: 6
#     Node 2, Type 0, BuildingBlock: VOLQOD_clean_sbu_1, # of connection points: 6
#     Node 3, Type 0, BuildingBlock: VOLQOD_clean_sbu_1, # of connection points: 6
#     Node 4, Type 0, BuildingBlock: VOLQOD_clean_sbu_1, # of connection points: 6
#     Node 5, Type 0, BuildingBlock: VOLQOD_clean_sbu_1, # of connection points: 6
#     Edge 6, Type (0, 0), BuildingBlock: ZUJKAS_clean_linker_0, # of connection points: 2
#     Edge 7, Type (0, 0), BuildingBlock: ZUJKAS_clean_linker_0, # of connection points: 2
#     Edge 8, Type (0, 0), BuildingBlock: ZUJKAS_clean_linker_0, # of connection points: 2
#     Edge 9, Type (0, 0), BuildingBlock: ZUJKAS_clean_linker_0, # of connection points: 2
#     Edge 10, Type (0, 0), BuildingBlock: ZUJKAS_clean_linker_0, # of connection points: 2
#     Edge 11, Type (0, 0), BuildingBlock: ZUJKAS_clean_linker_0, # of connection points: 2
#     Edge 12, Type (0, 0), BuildingBlock: ZUJKAS_clean_linker_0, # of connection points: 2
#     Edge 13, Type (0, 0), BuildingBlock: ZUJKAS_clean_linker_0, # of connection points: 2
#     Edge 14, Type (0, 0), BuildingBlock: ZUJKAS_clean_linker_0, # of connection points: 2
#     Edge 15, Type (0, 0), BuildingBlock: ZUJKAS_clean_linker_0, # of connection points: 2
#     Edge 16, Type (0, 0), BuildingBlock: ZUJKAS_clean_linker_0, # of connection points: 2
#     Edge 17, Type (0, 0), BuildingBlock: ZUJKAS_clean_linker_0, # of connection points: 2
#     Edge 18, Type (0, 0), BuildingBlock: ZUJKAS_clean_linker_0, # of connection points: 2
#     Edge 19, Type (0, 0), BuildingBlock: ZUJKAS_clean_linker_0, # of connection points: 2
#     Edge 20, Type (0, 0), BuildingBlock: ZUJKAS_clean_linker_0, # of connection points: 2
#     Edge 21, Type (0, 0), BuildingBlock: ZUJKAS_clean_linker_0, # of connection points: 2
#     Edge 22, Type (0, 0), BuildingBlock: ZUJKAS_clean_linker_0, # of connection points: 2
#     Edge 23, Type (0, 0), BuildingBlock: ZUJKAS_clean_linker_0, # of connection points: 2
# Relax obj value: 0.336
# Max RMSD: 0.251
# Mean RMSD: 0.251
data_MOF--net-smt--node1-VOLQOD_clean_sbu_1--edge1-ZUJKAS_clean_linker_0
_symmetry_space_group_name_H-M    P1
_symmetry_Int_Tables_number       1
_symmetry_cell_setting            triclinic
loop_
_symmetry_equiv_pos_as_xyz
'x, y, z'
_cell_length_a     46.179953
_cell_length_b     46.267712
_cell_length_c     34.259267
_cell_angle_alpha  90.232306
_cell_angle_beta   90.002967
_cell_angle_gamma 120.0431
loop_
_atom_site_label
_atom_site_type_symbol
_atom_site_fract_x
_atom_site_fract_y
_atom_site_fract_z
_atom_type_partial_charge
O0 O 0.45207 0.03926 0.0391 0.0
Zn1 Zn 0.46618 0.07708 0.00128 0.0
O2 O 0.43613 0.09511 0.00252 0.0
Zn3 Zn 0.41385 0.08809 0.95212 0.0
Zn4 Zn 0.40331 0.0724 0.04272 0.0
Zn5 Zn 0.46074 0.14241 0.01537 0.0
O6 O 0.42529 0.13193 0.92724 0.0
O7 O 0.46332 0.16887 0.96826 0.0
O8 O 0.47055 0.06268 0.94713 0.0
O9 O 0.43212 0.06821 0.91448 0.0
O10 O 0.36387 0.05619 0.95584 0.0
O11 O 0.35889 0.04359 0.01889 0.0
O12 O 0.39756 0.10393 0.0769 0.0
O13 O 0.51153 0.11156 0.02011 0.0
O14 O 0.43698 0.15371 0.05677 0.0
O15 O 0.50766 0.15659 0.03323 0.0
C16 C 0.4329 0.03082 0.06869 0.0
C17 C 0.44705 0.16182 0.93631 0.0
C18 C 0.34617 0.04005 0.9851 0.0
C19 C 0.4548 0.06029 0.91567 0.0
C20 C 0.4122 0.13557 0.0787 0.0
C21 C 0.52431 0.14142 0.03259 0.0
O22 O 0.41437 0.04342 0.0751 0.0
O23 O 0.40185 0.45875 0.2212 0.0
Zn24 Zn 0.37797 0.46965 0.17982 0.0
O25 O 0.3302 0.43823 0.18013 0.0
Zn26 Zn 0.31629 0.41564 0.12967 0.0
Zn27 Zn 0.3206 0.40583 0.22066 0.0
Zn28 Zn 0.30597 0.46152 0.19177 0.0
O29 O 0.2838 0.42618 0.10301 0.0
O30 O 0.28263 0.4634 0.14342 0.0
O31 O 0.39839 0.47232 0.12727 0.0
O32 O 0.35536 0.43376 0.09328 0.0
O33 O 0.299 0.36597 0.13426 0.0
O34 O 0.30792 0.36189 0.19721 0.0
O35 O 0.28126 0.39792 0.2524 0.0
O36 O 0.38679 0.51518 0.1943 0.0
O37 O 0.27008 0.43663 0.23175 0.0
O38 O 0.3373 0.5087 0.21036 0.0
C39 C 0.39117 0.43959 0.25073 0.0
C40 C 0.27459 0.44726 0.11129 0.0
C41 C 0.29875 0.34888 0.1635 0.0
C42 C 0.38601 0.45625 0.09566 0.0
C43 C 0.26339 0.41168 0.25327 0.0
C44 C 0.36898 0.52687 0.20755 0.0
O45 O 0.36011 0.41921 0.25544 0.0
O46 O 0.93372 0.40876 0.37944 0.0
Zn47 Zn 0.89801 0.38412 0.33889 0.0
O48 O 0.881 0.33635 0.34094 0.0
Zn49 Zn 0.88803 0.3205 0.29096 0.0
Zn50 Zn 0.90443 0.32752 0.38147 0.0
Zn51 Zn 0.83378 0.31321 0.35406 0.0
O52 O 0.84393 0.28836 0.26569 0.0
O53 O 0.80699 0.28936 0.30663 0.0
O54 O 0.91513 0.40271 0.28557 0.0
O55 O 0.90938 0.35843 0.25332 0.0
O56 O 0.91926 0.30175 0.29592 0.0
O57 O 0.93436 0.31308 0.35821 0.0
O58 O 0.87344 0.28935 0.41457 0.0
O59 O 0.86203 0.39414 0.35332 0.0
O60 O 0.82315 0.27778 0.39447 0.0
O61 O 0.81949 0.34567 0.3728 0.0
C62 C 0.9426 0.39865 0.40919 0.0
C63 C 0.81399 0.28019 0.27459 0.0
C64 C 0.93669 0.30213 0.32499 0.0
C65 C 0.91816 0.38923 0.25454 0.0
C66 C 0.8418 0.27148 0.41595 0.0
C67 C 0.83311 0.37717 0.36835 0.0
O68 O 0.93174 0.36772 0.41477 0.0
O69 O 0.52611 0.95025 0.53809 0.0
Zn70 Zn 0.51115 0.91199 0.50016 0.0
O71 O 0.54017 0.89281 0.50223 0.0
Zn72 Zn 0.56094 0.89622 0.45165 0.0
Zn73 Zn 0.57443 0.91671 0.54075 0.0
Zn74 Zn 0.51461 0.84646 0.51795 0.0
O75 O 0.54762 0.8506 0.42998 0.0
O76 O 0.50879 0.81704 0.47216 0.0
O77 O 0.50767 0.92599 0.44563 0.0
O78 O 0.54288 0.91537 0.41297 0.0
O79 O 0.61127 0.92708 0.45338 0.0
O80 O 0.61808 0.94423 0.51512 0.0
O81 O 0.58145 0.88601 0.57445 0.0
O82 O 0.46513 0.87871 0.51855 0.0
O83 O 0.53931 0.83597 0.55872 0.0
O84 O 0.46912 0.83506 0.53775 0.0
C85 C 0.54578 0.95904 0.56736 0.0
C86 C 0.52464 0.82164 0.44026 0.0
C87 C 0.62984 0.94506 0.48136 0.0
C88 C 0.52195 0.92562 0.41397 0.0
C89 C 0.56584 0.85449 0.57812 0.0
C90 C 0.45246 0.85006 0.53431 0.0
O91 O 0.56441 0.94649 0.57335 0.0
O92 O 0.57538 0.52433 0.72108 0.0
Zn93 Zn 0.59873 0.51288 0.6792 0.0
O94 O 0.64663 0.5432 0.67951 0.0
Zn95 Zn 0.6619 0.5658 0.62961 0.0
Zn96 Zn 0.65625 0.57581 0.71957 0.0
Zn97 Zn 0.67018 0.51958 0.69181 0.0
O98 O 0.6953 0.55555 0.60426 0.0
O99 O 0.69306 0.51651 0.64384 0.0
O100 O 0.57888 0.51056 0.62619 0.0
O101 O 0.62319 0.54724 0.59253 0.0
O102 O 0.67842 0.61544 0.63418 0.0
O103 O 0.66521 0.61821 0.69584 0.0
O104 O 0.69774 0.58647 0.74809 0.0
O105 O 0.58917 0.46728 0.69394 0.0
O106 O 0.70702 0.54555 0.73092 0.0
O107 O 0.63832 0.47271 0.71007 0.0
C108 C 0.58694 0.54223 0.75173 0.0
C109 C 0.70287 0.53326 0.6124 0.0
C110 C 0.67556 0.63167 0.66269 0.0
C111 C 0.59216 0.52577 0.59451 0.0
C112 C 0.71525 0.57236 0.74982 0.0
C113 C 0.60657 0.45516 0.70719 0.0
O114 O 0.61822 0.56154 0.75652 0.0
O115 O 0.04463 0.57476 0.87935 0.0
Zn116 Zn 0.08144 0.5994 0.84002 0.0
O117 O 0.10003 0.64746 0.84305 0.0
Zn118 Zn 0.09371 0.66475 0.79401 0.0
Zn119 Zn 0.0769 0.65636 0.88379 0.0
Zn120 Zn 0.14738 0.66966 0.85593 0.0
O121 O 0.1378 0.69873 0.7709 0.0
O122 O 0.17449 0.69508 0.80954 0.0
O123 O 0.06554 0.58221 0.78563 0.0
O124 O 0.07356 0.62771 0.7546 0.0
O125 O 0.06215 0.68296 0.79958 0.0
O126 O 0.04643 0.67032 0.86126 0.0
O127 O 0.10837 0.69404 0.9174 0.0
O128 O 0.11622 0.58801 0.85556 0.0
O129 O 0.15844 0.704 0.89846 0.0
O130 O 0.16112 0.63623 0.87181 0.0
C131 C 0.03694 0.5853 0.90981 0.0
C132 C 0.1677 0.70625 0.77906 0.0
C133 C 0.04407 0.6816 0.82841 0.0
C134 C 0.06404 0.5967 0.75478 0.0
C135 C 0.14005 0.71083 0.91986 0.0
C136 C 0.14594 0.6045 0.86874 0.0
O137 O 0.04943 0.61636 0.91642 0.0
H138 H 0.3176 0.00298 0.91942 0.0
H139 H 0.26761 0.94772 0.91805 0.0
H140 H 0.24667 0.96022 0.0377 0.0
H141 H 0.29686 0.01529 0.03943 0.0
H142 H 0.25931 0.90927 0.02774 0.0
H143 H 0.16574 0.8982 0.91906 0.0
H144 H 0.20735 0.91941 0.89957 0.0
H145 H 0.1968 0.93789 0.93943 0.0
C146 C 0.30152 -0.0054 0.94483 0.0
C147 C 0.31137 0.01304 0.97974 0.0
C148 C 0.27286 0.96302 0.944 0.0
C149 C 0.25356 0.94988 0.97788 0.0
C150 C 0.2613 0.96994 0.01133 0.0
H151 H 0.10799 0.7367 0.96194 0.0
H152 H 0.13222 0.79382 0.98622 0.0
C153 C 0.29 0.00134 0.01226 0.0
C154 C 0.2305 0.91356 0.98081 0.0
H155 H 0.16737 0.84751 0.93269 0.0
C156 C 0.23861 0.89578 0.00763 0.0
C157 C 0.20346 0.89605 0.95479 0.0
C158 C 0.1926 0.91393 0.92686 0.0
C159 C 0.22193 0.86086 0.00715 0.0
C160 C 0.19679 0.84347 0.97896 0.0
C161 C 0.18695 0.86107 0.95408 0.0
C162 C 0.18303 0.80753 0.97167 0.0
C163 C 0.23219 0.8429 0.03574 0.0
C164 C 0.20388 0.79619 0.95672 0.0
C165 C 0.19019 0.76361 0.9426 0.0
C166 C 0.15539 0.74199 0.94308 0.0
C167 C 0.1349 0.75275 0.96091 0.0
C168 C 0.14862 0.78539 0.97476 0.0
H169 H 0.24423 0.85842 0.0621 0.0
H170 H 0.21032 0.81888 0.04492 0.0
H171 H 0.25054 0.83742 0.0216 0.0
H172 H 0.23052 0.81315 0.95373 0.0
H173 H 0.20665 0.75613 0.92914 0.0
H174 H 0.30397 0.31966 0.09646 0.0
H175 H 0.3084 0.26934 0.09258 0.0
H176 H 0.28317 0.25021 0.21461 0.0
H177 H 0.27924 0.30079 0.21887 0.0
H178 H 0.34402 0.25885 0.19886 0.0
H179 H 0.25267 0.16831 0.0937 0.0
H180 H 0.27384 0.20968 0.07392 0.0
H181 H 0.24747 0.20086 0.1161 0.0
C182 C 0.29807 0.30404 0.12206 0.0
C183 C 0.29186 0.3144 0.1581 0.0
C184 C 0.30045 0.27516 0.11978 0.0
C185 C 0.29611 0.25606 0.15335 0.0
C186 C 0.28662 0.26464 0.18842 0.0
H187 H 0.35411 0.1042 0.12049 0.0
H188 H 0.32352 0.12968 0.14844 0.0
C189 C 0.28449 0.29358 0.19079 0.0
C190 C 0.30788 0.2317 0.15353 0.0
H191 H 0.30466 0.16739 0.10125 0.0
C192 C 0.33483 0.23828 0.1782 0.0
C193 C 0.2957 0.20473 0.12692 0.0
C194 C 0.26558 0.19527 0.10147 0.0
C195 C 0.35155 0.22018 0.17486 0.0
C196 C 0.34125 0.19523 0.14583 0.0
C197 C 0.31271 0.18687 0.12323 0.0
C198 C 0.36181 0.18025 0.13527 0.0
C199 C 0.38086 0.22874 0.20138 0.0
C200 C 0.39381 0.20045 0.11956 0.0
C201 C 0.41137 0.18606 0.10342 0.0
C202 C 0.39707 0.15119 0.10258 0.0
C203 C 0.36585 0.13116 0.12058 0.0
C204 C 0.34825 0.1456 0.13651 0.0
H205 H 0.379 0.24025 0.2291 0.0
H206 H 0.38262 0.20623 0.20831 0.0
H207 H 0.40431 0.24703 0.18658 0.0
H208 H 0.40446 0.22726 0.11786 0.0
H209 H 0.43533 0.20218 0.08984 0.0
H210 H 0.97196 0.30735 0.25892 0.0
H211 H 0.02577 0.30934 0.25656 0.0
H212 H 0.01517 0.27999 0.37748 0.0
H213 H 0.96174 0.27874 0.38024 0.0
H214 H 0.06875 0.3397 0.36613 0.0
H215 H 0.06915 0.25222 0.25646 0.0
H216 H 0.05078 0.27518 0.23674 0.0
H217 H 0.0309 0.24727 0.27707 0.0
C218 C 0.98046 0.29999 0.2845 0.0
C219 C 0.96309 0.29347 0.31992 0.0
C220 C 0.01116 0.30096 0.2831 0.0
C221 C 0.02446 0.29481 0.31689 0.0
C222 C 0.00535 0.28484 0.35112 0.0
H223 H 0.23521 0.35167 0.2909 0.0
H224 H 0.1782 0.31998 0.31603 0.0
C225 C 0.97491 0.28423 0.35265 0.0
C226 C 0.06044 0.30558 0.31859 0.0
H227 H 0.12251 0.30351 0.26718 0.0
C228 C 0.08043 0.33111 0.34517 0.0
C229 C 0.07567 0.2942 0.29161 0.0
C230 C 0.0554 0.26544 0.26417 0.0
C231 C 0.11535 0.34737 0.34335 0.0
C232 C 0.13053 0.33812 0.31392 0.0
C233 C 0.11068 0.31081 0.28944 0.0
C234 C 0.16639 0.35888 0.30486 0.0
C235 C 0.1357 0.37523 0.37186 0.0
C236 C 0.17869 0.3915 0.29115 0.0
C237 C 0.21115 0.40967 0.27662 0.0
C238 C 0.23178 0.39542 0.27545 0.0
C239 C 0.21998 0.36342 0.29138 0.0
C240 C 0.1874 0.34519 0.30567 0.0
H241 H 0.12164 0.37224 0.39929 0.0
H242 H 0.15966 0.37629 0.37909 0.0
H243 H 0.14152 0.3994 0.35862 0.0
H244 H 0.1626 0.40227 0.2898 0.0
H245 H 0.21946 0.43421 0.2646 0.0
H246 H 0.77547 0.2268 0.4275 0.0
H247 H 0.75163 0.16951 0.45054 0.0
H248 H 0.85052 0.18659 0.47548 0.0
H249 H 0.87473 0.24401 0.45275 0.0
H250 H 0.81111 0.13239 0.42249 0.0
H251 H 0.74299 0.12527 0.55849 0.0
H252 H 0.73545 0.14674 0.51974 0.0
H253 H 0.77682 0.16409 0.53997 0.0
C254 C 0.79213 0.21873 0.43891 0.0
C255 C 0.82698 0.23988 0.43793 0.0
C256 C 0.77847 0.18601 0.45215 0.0
C257 C 0.79942 0.174 0.46464 0.0
C258 C 0.83405 0.19556 0.46598 0.0
H259 H 0.68106 0.9678 0.53309 0.0
H260 H 0.73313 0.02122 0.52963 0.0
C261 C 0.84775 0.22838 0.45307 0.0
C262 C 0.78514 0.13802 0.47164 0.0
H263 H 0.72399 0.07385 0.52312 0.0
C264 C 0.79261 0.1195 0.44506 0.0
C265 C 0.76149 0.1215 0.50138 0.0
C266 C 0.75391 0.14044 0.53179 0.0
C267 C 0.77499 0.0845 0.44566 0.0
C268 C 0.74923 0.06792 0.47329 0.0
C269 C 0.74368 0.08658 0.50174 0.0
C270 C 0.72473 0.03187 0.47063 0.0
C271 C 0.78331 0.06564 0.41594 0.0
C272 C 0.70384 0.01927 0.43768 0.0
C273 C 0.67417 0.98856 0.43946 0.0
C274 C 0.66491 0.97054 0.47446 0.0
C275 C 0.68757 0.98149 0.50589 0.0
C276 C 0.71732 0.01194 0.50395 0.0
H277 H 0.80995 0.08031 0.40696 0.0
H278 H 0.77831 0.04117 0.42745 0.0
H279 H 0.76768 0.06111 0.38951 0.0
H280 H 0.70879 0.0345 0.41189 0.0
H281 H 0.65702 0.9807 0.41494 0.0
H282 H 0.53667 0.79177 0.60886 0.0
H283 H 0.56557 0.76252 0.63048 0.0
H284 H 0.66076 0.85213 0.61316 0.0
H285 H 0.63212 0.88185 0.59379 0.0
H286 H 0.60234 0.75158 0.58211 0.0
H287 H 0.68133 0.8189 0.70985 0.0
H288 H 0.6486 0.82607 0.69244 0.0
H289 H 0.68889 0.84586 0.66902 0.0
C290 C 0.56371 0.80548 0.61107 0.0
C291 C 0.58213 0.83897 0.59952 0.0
C292 C 0.58021 0.78878 0.62326 0.0
C293 C 0.61535 0.80515 0.62342 0.0
C294 C 0.63371 0.83916 0.61416 0.0
H295 H 0.69507 0.66971 0.5959 0.0
H296 H 0.69051 0.71948 0.58385 0.0
C297 C 0.61721 0.85608 0.60288 0.0
C298 C 0.63242 0.78552 0.62779 0.0
H299 H 0.69293 0.77975 0.67835 0.0
C300 C 0.62203 0.75764 0.60334 0.0
C301 C 0.65841 0.7938 0.65509 0.0
C302 C 0.66975 0.82261 0.68332 0.0
C303 C 0.63581 0.73686 0.60647 0.0
C304 C 0.66198 0.74517 0.63361 0.0
C305 C 0.67328 0.7738 0.65711 0.0
C306 C 0.67384 0.72156 0.64236 0.0
C307 C 0.62073 0.70526 0.5822 0.0
C308 C 0.66906 0.70836 0.68005 0.0
C309 C 0.67246 0.68068 0.68723 0.0
C310 C 0.68022 0.66531 0.65667 0.0
C311 C 0.68836 0.68058 0.61982 0.0
C312 C 0.68557 0.70886 0.61285 0.0
H313 H 0.5963 0.69932 0.56922 0.0
H314 H 0.63791 0.70837 0.55789 0.0
H315 H 0.61683 0.68363 0.60005 0.0
H316 H 0.66035 0.71796 0.7034 0.0
H317 H 0.66666 0.67002 0.71622 0.0
H318 H 0.03099 0.70877 0.7642 0.0
H319 H 0.97982 0.71079 0.7519 0.0
H320 H 0.94447 0.67201 0.86733 0.0
H321 H -0.00434 0.67181 0.88047 0.0
H322 H 0.92471 0.65812 0.74531 0.0
H323 H 0.90415 0.72855 0.8599 0.0
H324 H 0.94487 0.73303 0.85213 0.0
H325 H 0.9149 0.70105 0.88414 0.0
C326 C 0.01276 0.70183 0.78737 0.0
C327 C 0.01711 0.68956 0.82302 0.0
C328 C 0.98357 0.70307 0.78037 0.0
C329 C 0.95824 0.69174 0.80874 0.0
C330 C 0.96382 0.68185 0.84529 0.0
H331 H 0.75708 0.54868 0.76889 0.0
H332 H 0.81659 0.58227 0.78464 0.0
C333 C -0.00689 0.68123 0.85255 0.0
C334 C 0.92379 0.68332 0.79811 0.0
H335 H 0.85294 0.67637 0.83815 0.0
C336 C 0.90932 0.66301 0.7651 0.0
C337 C 0.90352 0.69007 0.82322 0.0
C338 C 0.91794 0.71473 0.85651 0.0
C339 C 0.87484 0.64693 0.75852 0.0
C340 C 0.85413 0.6501 0.78659 0.0
C341 C 0.86876 0.67284 0.81756 0.0
C342 C 0.81733 0.62947 0.7843 0.0
C343 C 0.86097 0.62617 0.7219 0.0
C344 C 0.79766 0.64462 0.78242 0.0
C345 C 0.76352 0.6254 0.77453 0.0
C346 C 0.74867 0.59077 0.76797 0.0
C347 C 0.76792 0.57533 0.77321 0.0
C348 C 0.80194 0.59454 0.7818 0.0
H349 H 0.87987 0.6354 0.69816 0.0
H350 H 0.85417 0.6 0.7281 0.0
H351 H 0.83835 0.62638 0.71131 0.0
H352 H 0.809 0.67149 0.78487 0.0
H353 H 0.74935 0.63808 0.77087 0.0
H354 H 0.4738 0.0038 0.06894 0.0
H355 H 0.48502 0.97743 0.124 0.0
H356 H 0.40965 0.98378 0.19171 0.0
H357 H 0.39783 0.0096 0.13683 0.0
H358 H 0.50867 0.01211 0.19294 0.0
H359 H 0.39318 0.89137 0.21976 0.0
H360 H 0.40123 0.91336 0.17402 0.0
H361 H 0.38566 0.92568 0.2152 0.0
C362 C 0.45895 -0.00123 0.09515 0.0
C363 C 0.43519 0.00916 0.09865 0.0
C364 C 0.46542 0.9837 0.12656 0.0
C365 C 0.44805 0.97855 0.16178 0.0
C366 C 0.4229 0.98698 0.16454 0.0
H367 H 0.47484 0.94426 0.40247 0.0
H368 H 0.45758 0.95685 0.34025 0.0
C369 C 0.41637 0.00199 0.13318 0.0
C370 C 0.45936 0.96894 0.19718 0.0
H371 H 0.43265 0.91363 0.27255 0.0
C372 C 0.49222 0.9903 0.21008 0.0
C373 C 0.43768 0.9407 0.21957 0.0
C374 C 0.40256 0.91628 0.20627 0.0
C375 C 0.50374 0.98473 0.24547 0.0
C376 C 0.4819 0.95681 0.26816 0.0
C377 C 0.44919 0.93513 0.25505 0.0
C378 C 0.49268 0.94969 0.30563 0.0
C379 C 0.53882 0.00931 0.25887 0.0
C380 C 0.5181 0.94158 0.30649 0.0
C381 C 0.52812 0.93454 0.34185 0.0
C382 C 0.51272 0.9353 0.37699 0.0
C383 C 0.48732 0.94362 0.37599 0.0
C384 C 0.47731 0.95065 0.34051 0.0
H385 H 0.54951 0.03326 0.24273 0.0
H386 H 0.5393 0.01461 0.29059 0.0
H387 H 0.55518 -0.00153 0.25377 0.0
H388 H 0.52992 0.94031 0.27973 0.0
H389 H 0.54764 0.92806 0.3415 0.0
H390 H 0.45852 0.48366 0.25387 0.0
H391 H 0.49562 0.49552 0.30989 0.0
H392 H 0.41444 0.41725 0.3749 0.0
H393 H 0.37727 0.40483 0.31904 0.0
H394 H 0.48339 0.5163 0.38099 0.0
H395 H 0.49234 0.40195 0.39929 0.0
H396 H 0.47824 0.41143 0.35449 0.0
H397 H 0.45017 0.3939 0.39513 0.0
C398 C 0.44871 0.46845 0.27975 0.0
C399 C 0.41485 0.44344 0.28206 0.0
C400 C 0.46995 0.4753 0.31172 0.0
C401 C 0.45778 0.45711 0.34634 0.0
C402 C 0.42445 0.43116 0.34817 0.0
H403 H 0.52633 0.47782 0.58484 0.0
H404 H 0.49394 0.46196 0.52411 0.0
C405 C 0.40319 0.42426 0.31625 0.0
C406 C 0.47874 0.46759 0.38186 0.0
H407 H 0.51046 0.44003 0.45317 0.0
C408 C 0.48965 0.49978 0.39659 0.0
C409 C 0.48653 0.44582 0.40217 0.0
C410 C 0.47649 0.41145 0.38681 0.0
C411 C 0.50756 0.51058 0.43168 0.0
C412 C 0.51507 0.48871 0.45218 0.0
C413 C 0.50443 0.45661 0.43735 0.0
C414 C 0.53435 0.49889 0.48892 0.0
C415 C 0.51756 0.54497 0.44704 0.0
C416 C 0.56769 0.52484 0.48899 0.0
C417 C 0.58621 0.53403 0.52351 0.0
C418 C 0.57174 0.51726 0.55858 0.0
C419 C 0.53818 0.49134 0.5584 0.0
C420 C 0.51969 0.48215 0.52376 0.0
H421 H 0.50308 0.55535 0.43296 0.0
H422 H 0.51389 0.54449 0.47912 0.0
H423 H 0.54447 0.56209 0.44091 0.0
H424 H 0.57954 0.53769 0.4622 0.0
H425 H 0.61203 0.554 0.52252 0.0
H426 H 0.04688 0.53162 0.74144 0.0
H427 H 0.03089 0.50145 0.67923 0.0
H428 H 0.03984 0.58847 0.62223 0.0
H429 H 0.05558 0.61884 0.68419 0.0
H430 H 0.98046 0.52771 0.6045 0.0
H431 H 0.09448 0.51743 0.58627 0.0
H432 H 0.07387 0.5032 0.6325 0.0
H433 H 0.09247 0.54654 0.6199 0.0
C434 C 0.04537 0.54435 0.71573 0.0
C435 C 0.05265 0.57769 0.71777 0.0
C436 C 0.0365 0.52715 0.68019 0.0
C437 C 0.03484 0.54302 0.64617 0.0
C438 C 0.04131 0.57597 0.6482 0.0
H439 H 0.96727 0.46624 0.4103 0.0
H440 H -0.00646 0.50433 0.46546 0.0
C441 C 0.05025 0.59322 0.68366 0.0
C442 C 0.0255 0.52494 0.60857 0.0
H443 H 0.04939 0.48554 0.54254 0.0
C444 C -0.00438 0.51873 0.59068 0.0
C445 C 0.04551 0.51343 0.59079 0.0
C446 C 0.07854 0.52069 0.6081 0.0
C447 C 0.9845 0.50016 0.556 0.0
C448 C 0.00424 0.48816 0.53851 0.0
C449 C 0.03445 0.49491 0.55604 0.0
C450 C -0.00728 0.46667 0.50343 0.0
C451 C 0.95114 0.49247 0.53922 0.0
C452 C 0.98527 0.43343 0.506 0.0
C453 C 0.97055 0.41168 0.47453 0.0
C454 C 0.96301 0.42285 0.43992 0.0
C455 C 0.97245 0.45676 0.43664 0.0
C456 C 0.98728 0.47852 0.46817 0.0
H457 H 0.936 0.49741 0.56056 0.0
H458 H 0.95533 0.50841 0.51332 0.0
H459 H 0.93649 0.46597 0.52971 0.0
H460 H -0.01046 0.42395 0.53296 0.0
H461 H 0.96384 0.3858 0.47797 0.0
H462 H 0.50331 0.98419 0.56985 0.0
H463 H 0.49193 0.00941 0.62623 0.0
H464 H 0.57081 0.00671 0.69055 0.0
H465 H 0.58273 0.98196 0.63434 0.0
H466 H 0.47121 0.97337 0.69521 0.0
H467 H 0.58303 0.0977 0.72124 0.0
H468 H 0.57471 0.07621 0.67486 0.0
H469 H 0.59247 0.06479 0.71445 0.0
C470 C 0.51891 0.98984 0.59556 0.0
C471 C 0.54366 0.98065 0.59776 0.0
C472 C 0.51234 0.00423 0.62774 0.0
C473 C 0.53059 0.00997 0.66243 0.0
C474 C 0.5568 0.00298 0.66383 0.0
H475 H 0.50506 0.04591 0.90439 0.0
H476 H 0.52293 0.03336 0.8424 0.0
C477 C 0.56341 0.98859 0.6317 0.0
C478 C 0.51915 0.01847 0.69866 0.0
H479 H 0.5443 0.0743 0.77405 0.0
C480 C 0.48702 -0.00435 0.71224 0.0
C481 C 0.54005 0.0473 0.72092 0.0
C482 C 0.57439 0.07308 0.70701 0.0
C483 C 0.47541 0.0005 0.74802 0.0
C484 C 0.49636 0.02923 0.77042 0.0
C485 C 0.52842 0.05222 0.75676 0.0
C486 C 0.48513 0.03605 0.80787 0.0
C487 C 0.44119 0.97441 0.76204 0.0
C488 C 0.45799 0.04162 0.80875 0.0
C489 C 0.44762 0.04859 0.84397 0.0
C490 C 0.46439 0.05037 0.87899 0.0
C491 C 0.4915 0.04455 0.87801 0.0
C492 C 0.50185 0.03756 0.84265 0.0
H493 H 0.43198 0.95024 0.74649 0.0
H494 H 0.44146 0.97013 0.79388 0.0
H495 H 0.42318 0.98319 0.75656 0.0
H496 H 0.44512 0.04104 0.78207 0.0
H497 H 0.42677 0.05313 0.84358 0.0
H498 H 0.45113 0.50602 0.08732 0.0
H499 H 0.48414 0.5231 0.02733 0.0
H500 H 0.40156 0.44401 0.96403 0.0
H501 H 0.36819 0.42692 0.02358 0.0
H502 H 0.5018 0.4854 0.97866 0.0
H503 H 0.42457 0.52759 0.89972 0.0
H504 H 0.42135 0.52038 0.95171 0.0
H505 H 0.40158 0.48578 0.91826 0.0
C506 C 0.44 0.49218 0.06069 0.0
C507 C 0.40695 0.46523 0.06021 0.0
C508 C 0.45886 0.50203 0.02646 0.0
C509 C 0.44496 0.48522 0.99123 0.0
C510 C 0.41238 0.45777 0.99081 0.0
H511 H 0.5203 0.49604 0.75807 0.0
H512 H 0.4852 0.48417 0.81599 0.0
C513 C 0.39348 0.44791 0.02496 0.0
C514 C 0.46487 0.4959 0.95504 0.0
H515 H 0.46687 0.5249 0.86303 0.0
C516 C 0.49433 0.49425 0.95345 0.0
C517 C 0.45486 0.5073 0.92227 0.0
C518 C 0.42402 0.51069 0.92302 0.0
C519 C 0.51384 0.50315 0.91958 0.0
C520 C 0.50384 0.51452 0.8868 0.0
C521 C 0.47439 0.51621 0.88834 0.0
C522 C 0.5236 0.52431 0.85053 0.0
C523 C 0.5446 0.49958 0.91881 0.0
C524 C 0.55627 0.5516 0.85051 0.0
C525 C 0.57639 0.55843 0.81761 0.0
C526 C 0.56407 0.53814 0.7841 0.0
C527 C 0.53058 0.51207 0.78344 0.0
C528 C 0.5105 0.50522 0.81647 0.0
H529 H 0.54454 0.4835 0.94285 0.0
H530 H 0.54655 0.48882 0.89056 0.0
H531 H 0.5672 0.52459 0.92219 0.0
H532 H 0.56652 0.56696 0.8764 0.0
H533 H 0.60194 0.57894 0.81894 0.0
H534 H 0.01586 0.5185 0.91422 0.0
H535 H -0.00971 0.48221 0.97061 0.0
H536 H 0.98585 0.56192 0.03081 0.0
H537 H 0.01145 0.59841 0.9749 0.0
H538 H 0.02206 0.5351 0.06966 0.0
H539 H 0.8956 0.43633 0.0212 0.0
H540 H 0.92968 0.44497 0.98888 0.0
H541 H 0.91831 0.47632 -0.00277 0.0
C542 C 0.00867 0.52805 0.93905 0.0
C543 C 0.01602 0.56145 0.94026 0.0
C544 C -0.00602 0.50725 0.97117 0.0
C545 C 0.9862 0.51948 0.00469 0.0
C546 C -0.00829 0.55212 0.00509 0.0
H547 H 0.93339 0.45386 0.24321 0.0
H548 H 0.95021 0.48532 0.18232 0.0
C549 C 0.00637 0.57291 0.97312 0.0
C550 C 0.9762 0.49985 0.04097 0.0
H551 H 0.91427 0.42912 0.0829 0.0
C552 C -0.00157 0.51199 0.07269 0.0
C553 C 0.94556 0.46963 0.04444 0.0
C554 C 0.9207 0.45602 0.01128 0.0
C555 C -0.00909 0.49454 0.10794 0.0
C556 C 0.96004 0.46455 0.11169 0.0
C557 C 0.93789 0.45222 0.07985 0.0
C558 C 0.95023 0.44568 0.14857 0.0
C559 C 0.01635 0.50803 0.14057 0.0
C560 C 0.94426 0.41287 0.1495 0.0
C561 C 0.9345 0.39477 0.18416 0.0
C562 C 0.9304 0.40915 0.21847 0.0
C563 C 0.93658 0.44214 0.21742 0.0
C564 C 0.94625 0.46018 0.18269 0.0
H565 H 0.04179 0.52591 0.12963 0.0
H566 H 0.0092 0.52143 0.16194 0.0
H567 H 0.01734 0.48751 0.15608 0.0
H568 H 0.94717 0.4013 0.12338 0.0
H569 H 0.92987 0.36938 0.1839 0.0
H570 H 0.44585 0.15624 0.85703 0.0
H571 H 0.47226 0.20205 0.81015 0.0
H572 H 0.49573 0.27329 0.9036 0.0
H573 H 0.47087 0.22773 0.95072 0.0
H574 H 0.46456 0.25183 0.78622 0.0
H575 H 0.58694 0.30419 0.8603 0.0
H576 H 0.55186 0.26412 0.87304 0.0
H577 H 0.5558 0.30197 0.89329 0.0
C578 C 0.45621 0.18168 0.86742 0.0
C579 C 0.45674 0.18858 0.90748 0.0
C580 C 0.47141 0.2078 0.84066 0.0
C581 C 0.48696 0.24108 0.85361 0.0
C582 C 0.48502 0.24782 0.89321 0.0
H583 H 0.54194 0.41968 0.73078 0.0
H584 H 0.51367 0.36479 0.7606 0.0
C585 C 0.47051 0.22181 0.92003 0.0
C586 C 0.50607 0.26884 0.82613 0.0
H587 H 0.58079 0.34072 0.81575 0.0
C588 C 0.49012 0.27108 0.79237 0.0
C589 C 0.53985 0.29329 0.83335 0.0
C590 C 0.5597 0.29056 0.86672 0.0
C591 C 0.50642 0.29819 0.76686 0.0
C592 C 0.53905 0.32429 0.77624 0.0
C593 C 0.5556 0.32103 0.80879 0.0
C594 C 0.55555 0.35631 0.75474 0.0
C595 C 0.48844 0.29845 0.7302 0.0
C596 C 0.58897 0.37044 0.7425 0.0
C597 C 0.60563 0.40246 0.72642 0.0
C598 C 0.58896 0.42063 0.72193 0.0
C599 C 0.55532 0.4061 0.73334 0.0
C600 C 0.53896 0.37449 0.75006 0.0
H601 H 0.47128 0.27262 0.71966 0.0
H602 H 0.47298 0.31007 0.73666 0.0
H603 H 0.50622 0.31267 0.70645 0.0
H604 H 0.60237 0.35697 0.74611 0.0
H605 H 0.63155 0.41306 0.71782 0.0
H606 H 0.21265 0.62727 0.88039 0.0
H607 H 0.23764 0.59722 0.91127 0.0
H608 H 0.1394 0.51086 0.92507 0.0
H609 H 0.11467 0.53995 0.89261 0.0
H610 H 0.23029 0.5776 0.98181 0.0
H611 H 0.18763 0.465 0.8908 0.0
H612 H 0.18379 0.50006 0.87491 0.0
H613 H 0.1523 0.46837 0.90573 0.0
C614 C 0.19655 0.60162 0.88927 0.0
C615 C 0.16176 0.58592 0.88396 0.0
C616 C 0.21081 0.58446 0.90688 0.0
C617 C 0.19048 0.55151 0.91991 0.0
C618 C 0.15578 0.53575 0.91407 0.0
H619 H 0.23214 0.47119 0.12312 0.0
H620 H 0.21119 0.49446 0.07412 0.0
C621 C 0.14162 0.55259 0.89579 0.0
C622 C 0.20484 0.53493 0.94358 0.0
H623 H 0.20137 0.4603 0.95815 0.0
C624 C 0.22442 0.55214 0.97616 0.0
C625 C 0.19772 0.50188 0.93602 0.0
C626 C 0.17953 0.48298 0.89968 0.0
C627 C 0.23582 0.53682 0.00227 0.0
C628 C 0.22617 0.50284 -0.0034 0.0
C629 C 0.20798 0.48607 0.96304 0.0
C630 C 0.23478 0.48448 0.02532 0.0
C631 C 0.25828 0.5574 0.03551 0.0
C632 C 0.25275 0.46883 0.01374 0.0
C633 C 0.26389 0.4546 0.0416 0.0
C634 C 0.25751 0.4562 0.08143 0.0
C635 C 0.23778 0.47005 0.09265 0.0
C636 C 0.22609 0.48362 0.06474 0.0
H637 H 0.27197 0.58443 0.02834 0.0
H638 H 0.24281 0.5541 0.06171 0.0
H639 H 0.27686 0.5497 0.04284 0.0
H640 H 0.25939 0.46889 0.9834 0.0
H641 H 0.27912 0.44414 0.03217 0.0
H642 H 0.56788 0.2083 0.04262 0.0
H643 H 0.62267 0.23437 0.07473 0.0
H644 H 0.61078 0.13698 0.09493 0.0
H645 H 0.55715 0.11108 0.06131 0.0
H646 H 0.6353 0.22974 0.14637 0.0
H647 H 0.70484 0.1839 0.05979 0.0
H648 H 0.66576 0.1795 0.04316 0.0
H649 H 0.66615 0.14934 0.07605 0.0
C650 C 0.57733 0.19257 0.05328 0.0
C651 C 0.55835 0.1577 0.0493 0.0
C652 C 0.60861 0.20745 0.07159 0.0
C653 C 0.62121 0.1877 0.08663 0.0
C654 C 0.60228 0.15288 0.08239 0.0
H655 H 0.74765 0.23939 0.28881 0.0
H656 H 0.70215 0.21649 0.24105 0.0
C657 C 0.5714 0.13806 0.06343 0.0
C658 C 0.65237 0.20301 0.1102 0.0
H659 H 0.72435 0.20108 0.12616 0.0
C660 C 0.65501 0.22387 0.1415 0.0
C661 C 0.67844 0.19589 0.1036 0.0
C662 C 0.6788 0.17624 0.06852 0.0
C663 C 0.68225 0.23671 0.16723 0.0
C664 C 0.70685 0.22725 0.16256 0.0
C665 C 0.70505 0.20762 0.1303 0.0
C666 C 0.73456 0.23757 0.19092 0.0
C667 C 0.68441 0.2605 0.19891 0.0
C668 C 0.76795 0.25487 0.17836 0.0
C669 C 0.79404 0.26711 0.20556 0.0
C670 C 0.78705 0.26253 0.24571 0.0
C671 C 0.75368 0.24367 0.25805 0.0
C672 C 0.72769 0.23086 0.23083 0.0
H673 H 0.67065 0.27355 0.19061 0.0
H674 H 0.6728 0.24625 0.22595 0.0
H675 H 0.71078 0.27958 0.20539 0.0
H676 H 0.77381 0.26001 0.14766 0.0
H677 H 0.81956 0.28164 0.19527 0.0
H678 H 0.48361 0.75563 0.45634 0.0
H679 H 0.46183 0.70878 0.41063 0.0
H680 H 0.5195 0.77552 0.31779 0.0
H681 H 0.54152 0.82282 0.36336 0.0
H682 H 0.44866 0.7315 0.30182 0.0
H683 H 0.5113 0.66435 0.35846 0.0
H684 H 0.49116 0.67602 0.39509 0.0
H685 H 0.52631 0.7079 0.3689 0.0
C686 C 0.49203 0.76038 0.42633 0.0
C687 C 0.51431 0.79298 0.41348 0.0
C688 C 0.47963 0.73354 0.40031 0.0
C689 C 0.48927 0.73877 0.36102 0.0
C690 C 0.51193 0.77109 0.34812 0.0
H691 H 0.43518 0.57343 0.20139 0.0
H692 H 0.46505 0.62762 0.23385 0.0
C693 C 0.52457 0.79801 0.37422 0.0
C694 C 0.4742 0.71056 0.33322 0.0
H695 H 0.46562 0.63423 0.31476 0.0
C696 C 0.4526 0.71035 0.30426 0.0
C697 C 0.47964 0.68323 0.33648 0.0
C698 C 0.50359 0.68287 0.36617 0.0
C699 C 0.43534 0.68284 0.27917 0.0
C700 C 0.43972 0.65491 0.28356 0.0
C701 C 0.46218 0.65565 0.31168 0.0
C702 C 0.42082 0.62422 0.25995 0.0
C703 C 0.41255 0.68381 0.24832 0.0
C704 C 0.38593 0.60465 0.26338 0.0
C705 C 0.36866 0.57354 0.24482 0.0
C706 C 0.38613 0.56147 0.22285 0.0
C707 C 0.42094 0.58184 0.21827 0.0
C708 C 0.4381 0.61286 0.23676 0.0
H709 H 0.41853 0.70978 0.24215 0.0
H710 H 0.41433 0.67211 0.22073 0.0
H711 H 0.3863 0.66961 0.25867 0.0
H712 H 0.37224 0.61279 0.28172 0.0
H713 H 0.34189 0.55844 0.24904 0.0
H714 H 0.85238 0.44293 0.35862 0.0
H715 H 0.83083 0.47468 0.39263 0.0
H716 H 0.75615 0.38477 0.44868 0.0
H717 H 0.77728 0.35255 0.4145 0.0
H718 H 0.73321 0.42918 0.42275 0.0
H719 H 0.85012 0.49291 0.51109 0.0
H720 H 0.85556 0.4958 0.45904 0.0
H721 H 0.83888 0.45595 0.48242 0.0
C722 C 0.83107 0.42974 0.37777 0.0
C723 C 0.81683 0.39524 0.38428 0.0
C724 C 0.81889 0.44799 0.39723 0.0
C725 C 0.7924 0.43213 0.42365 0.0
C726 C 0.77678 0.39742 0.42849 0.0
H727 H 0.73058 0.49405 0.62402 0.0
H728 H 0.75429 0.47355 0.57507 0.0
C729 C 0.78889 0.37907 0.40894 0.0
C730 C 0.7824 0.45194 0.44823 0.0
H731 H 0.80939 0.50817 0.52336 0.0
C732 C 0.74989 0.4467 0.44453 0.0
C733 C 0.80428 0.47449 0.47677 0.0
C734 C 0.83909 0.48005 0.48295 0.0
C735 C 0.73842 0.46314 0.46914 0.0
C736 C 0.76025 0.48558 0.49778 0.0
C737 C 0.79294 0.49122 0.50102 0.0
C738 C 0.74853 0.5007 0.52731 0.0
C739 C 0.70266 0.45538 0.46546 0.0
C740 C 0.7384 0.52357 0.51675 0.0
C741 C 0.72483 0.53546 0.54476 0.0
C742 C 0.72117 0.52453 0.58366 0.0
C743 C 0.73279 0.50277 0.59429 0.0
C744 C 0.7464 0.49106 0.56638 0.0
H745 H 0.68759 0.43347 0.44621 0.0
H746 H 0.69059 0.45037 0.49459 0.0
H747 H 0.70227 0.47726 0.45291 0.0
H748 H 0.74036 0.53166 0.48675 0.0
H749 H 0.71616 0.55224 0.53565 0.0
H750 H 0.4171 0.78996 0.57139 0.0
H751 H 0.36392 0.76849 0.60565 0.0
H752 H 0.35812 0.85491 0.5708 0.0
H753 H 0.41142 0.87682 0.53667 0.0
H754 H 0.35053 0.84262 0.65077 0.0
H755 H 0.26731 0.72822 0.56605 0.0
H756 H 0.30608 0.73093 0.58 0.0
H757 H 0.3064 0.76122 0.547 0.0
C758 C 0.4043 0.80419 0.57045 0.0
C759 C 0.4186 0.83517 0.55139 0.0
C760 C 0.37381 0.79177 0.58986 0.0
C761 C 0.357 0.80998 0.59035 0.0
C762 C 0.37069 0.84044 0.57052 0.0
H763 H 0.16221 0.72639 0.70567 0.0
H764 H 0.2071 0.7558 0.65814 0.0
C765 C 0.40114 0.85287 0.55104 0.0
C766 C 0.32672 0.79859 0.61443 0.0
H767 H 0.24896 0.732 0.63044 0.0
C768 C 0.3281 0.81865 0.64602 0.0
C769 C 0.29742 0.76755 0.60782 0.0
C770 C 0.29399 0.74586 0.57314 0.0
C771 C 0.30151 0.80769 0.67241 0.0
C772 C 0.27308 0.77573 0.66719 0.0
C773 C 0.27097 0.75641 0.63448 0.0
C774 C 0.2464 0.76081 0.6968 0.0
C775 C 0.30426 0.83013 0.70599 0.0
C776 C 0.2538 0.7541 0.73421 0.0
C777 C 0.22832 0.73729 0.76135 0.0
C778 C 0.19491 0.72675 0.7515 0.0
C779 C 0.18769 0.73426 0.71424 0.0
C780 C 0.21324 0.75099 0.68702 0.0
H781 H 0.32236 0.85675 0.69958 0.0
H782 H 0.2796 0.8276 0.71288 0.0
H783 H 0.31327 0.82302 0.73227 0.0
H784 H 0.27919 0.76097 0.74203 0.0
H785 H 0.23477 0.73191 0.78974 0.0
loop_
_geom_bond_atom_site_label_1
_geom_bond_atom_site_label_2
_geom_bond_distance
_geom_bond_site_symmetry_2
_ccdc_geom_bond_type
O0 Zn1 1.953 . S
O0 C16 1.225 . S
Zn1 O0 1.953 . S
Zn1 O2 1.949 . S
Zn1 O8 1.919 1_554 S
Zn1 O13 1.924 . S
O2 Zn1 1.949 . S
O2 Zn3 1.923 1_554 S
O2 Zn4 1.950 . S
O2 Zn5 1.945 . S
Zn3 O2 1.923 1_556 S
Zn3 O6 1.933 . S
Zn3 O9 1.941 . S
Zn3 O10 1.965 . S
Zn4 O2 1.950 . S
Zn4 O11 1.938 . S
Zn4 O12 1.906 . S
Zn4 O22 1.953 . S
Zn5 O2 1.945 . S
Zn5 O7 1.932 1_554 S
Zn5 O14 1.977 . S
Zn5 O15 1.910 . S
O6 Zn3 1.933 . S
O6 C17 1.226 . S
O7 Zn5 1.932 1_556 S
O7 C17 1.307 . S
O8 Zn1 1.919 1_556 S
O8 C19 1.253 . S
O9 Zn3 1.941 . S
O9 C19 1.283 . S
O10 Zn3 1.965 . S
O10 C18 1.303 . S
O11 Zn4 1.938 . S
O11 C18 1.247 1_554 S
O12 Zn4 1.906 . S
O12 C20 1.304 . S
O13 Zn1 1.924 . S
O13 C21 1.311 . S
O14 Zn5 1.977 . S
O14 C20 1.272 . S
O15 Zn5 1.910 . S
O15 C21 1.231 . S
C16 O0 1.225 . S
C16 O22 1.298 . S
C17 O6 1.226 . S
C17 O7 1.307 . S
C18 O10 1.303 . S
C18 O11 1.247 1_556 S
C19 O8 1.253 . S
C19 O9 1.283 . S
C20 O12 1.304 . S
C20 O14 1.272 . S
C21 O13 1.311 . S
C21 O15 1.231 . S
O22 Zn4 1.953 . S
O22 C16 1.298 . S
O23 Zn24 1.953 . S
O23 C39 1.225 . S
Zn24 O23 1.953 . S
Zn24 O25 1.949 . S
Zn24 O31 1.919 . S
Zn24 O36 1.924 . S
O25 Zn24 1.949 . S
O25 Zn26 1.923 . S
O25 Zn27 1.950 . S
O25 Zn28 1.945 . S
Zn26 O25 1.923 . S
Zn26 O29 1.933 . S
Zn26 O32 1.941 . S
Zn26 O33 1.965 . S
Zn27 O25 1.950 . S
Zn27 O34 1.938 . S
Zn27 O35 1.906 . S
Zn27 O45 1.953 . S
Zn28 O25 1.945 . S
Zn28 O30 1.932 . S
Zn28 O37 1.977 . S
Zn28 O38 1.910 . S
O29 Zn26 1.933 . S
O29 C40 1.226 . S
O30 Zn28 1.932 . S
O30 C40 1.307 . S
O31 Zn24 1.919 . S
O31 C42 1.253 . S
O32 Zn26 1.941 . S
O32 C42 1.283 . S
O33 Zn26 1.965 . S
O33 C41 1.303 . S
O34 Zn27 1.938 . S
O34 C41 1.247 . S
O35 Zn27 1.906 . S
O35 C43 1.304 . S
O36 Zn24 1.924 . S
O36 C44 1.311 . S
O37 Zn28 1.977 . S
O37 C43 1.272 . S
O38 Zn28 1.910 . S
O38 C44 1.231 . S
C39 O23 1.225 . S
C39 O45 1.298 . S
C40 O29 1.226 . S
C40 O30 1.307 . S
C41 O33 1.303 . S
C41 O34 1.247 . S
C42 O31 1.253 . S
C42 O32 1.283 . S
C43 O35 1.304 . S
C43 O37 1.272 . S
C44 O36 1.311 . S
C44 O38 1.231 . S
O45 Zn27 1.953 . S
O45 C39 1.298 . S
O46 Zn47 1.953 . S
O46 C62 1.225 . S
Zn47 O46 1.953 . S
Zn47 O48 1.949 . S
Zn47 O54 1.919 . S
Zn47 O59 1.924 . S
O48 Zn47 1.949 . S
O48 Zn49 1.923 . S
O48 Zn50 1.950 . S
O48 Zn51 1.945 . S
Zn49 O48 1.923 . S
Zn49 O52 1.933 . S
Zn49 O55 1.941 . S
Zn49 O56 1.965 . S
Zn50 O48 1.950 . S
Zn50 O57 1.938 . S
Zn50 O58 1.906 . S
Zn50 O68 1.953 . S
Zn51 O48 1.945 . S
Zn51 O53 1.932 . S
Zn51 O60 1.977 . S
Zn51 O61 1.910 . S
O52 Zn49 1.933 . S
O52 C63 1.226 . S
O53 Zn51 1.932 . S
O53 C63 1.307 . S
O54 Zn47 1.919 . S
O54 C65 1.253 . S
O55 Zn49 1.941 . S
O55 C65 1.283 . S
O56 Zn49 1.965 . S
O56 C64 1.303 . S
O57 Zn50 1.938 . S
O57 C64 1.247 . S
O58 Zn50 1.906 . S
O58 C66 1.304 . S
O59 Zn47 1.924 . S
O59 C67 1.311 . S
O60 Zn51 1.977 . S
O60 C66 1.272 . S
O61 Zn51 1.910 . S
O61 C67 1.231 . S
C62 O46 1.225 . S
C62 O68 1.298 . S
C63 O52 1.226 . S
C63 O53 1.307 . S
C64 O56 1.303 . S
C64 O57 1.247 . S
C65 O54 1.253 . S
C65 O55 1.283 . S
C66 O58 1.304 . S
C66 O60 1.272 . S
C67 O59 1.311 . S
C67 O61 1.231 . S
O68 Zn50 1.953 . S
O68 C62 1.298 . S
O69 Zn70 1.953 . S
O69 C85 1.225 . S
Zn70 O69 1.953 . S
Zn70 O71 1.949 . S
Zn70 O77 1.919 . S
Zn70 O82 1.924 . S
O71 Zn70 1.949 . S
O71 Zn72 1.923 . S
O71 Zn73 1.950 . S
O71 Zn74 1.945 . S
Zn72 O71 1.923 . S
Zn72 O75 1.933 . S
Zn72 O78 1.941 . S
Zn72 O79 1.965 . S
Zn73 O71 1.950 . S
Zn73 O80 1.938 . S
Zn73 O81 1.906 . S
Zn73 O91 1.953 . S
Zn74 O71 1.945 . S
Zn74 O76 1.932 . S
Zn74 O83 1.977 . S
Zn74 O84 1.910 . S
O75 Zn72 1.933 . S
O75 C86 1.226 . S
O76 Zn74 1.932 . S
O76 C86 1.307 . S
O77 Zn70 1.919 . S
O77 C88 1.253 . S
O78 Zn72 1.941 . S
O78 C88 1.283 . S
O79 Zn72 1.965 . S
O79 C87 1.303 . S
O80 Zn73 1.938 . S
O80 C87 1.247 . S
O81 Zn73 1.906 . S
O81 C89 1.304 . S
O82 Zn70 1.924 . S
O82 C90 1.311 . S
O83 Zn74 1.977 . S
O83 C89 1.272 . S
O84 Zn74 1.910 . S
O84 C90 1.231 . S
C85 O69 1.225 . S
C85 O91 1.298 . S
C86 O75 1.226 . S
C86 O76 1.307 . S
C87 O79 1.303 . S
C87 O80 1.247 . S
C88 O77 1.253 . S
C88 O78 1.283 . S
C89 O81 1.304 . S
C89 O83 1.272 . S
C90 O82 1.311 . S
C90 O84 1.231 . S
O91 Zn73 1.953 . S
O91 C85 1.298 . S
O92 Zn93 1.953 . S
O92 C108 1.225 . S
Zn93 O92 1.953 . S
Zn93 O94 1.949 . S
Zn93 O100 1.919 . S
Zn93 O105 1.924 . S
O94 Zn93 1.949 . S
O94 Zn95 1.923 . S
O94 Zn96 1.950 . S
O94 Zn97 1.945 . S
Zn95 O94 1.923 . S
Zn95 O98 1.933 . S
Zn95 O101 1.941 . S
Zn95 O102 1.965 . S
Zn96 O94 1.950 . S
Zn96 O103 1.938 . S
Zn96 O104 1.906 . S
Zn96 O114 1.953 . S
Zn97 O94 1.945 . S
Zn97 O99 1.932 . S
Zn97 O106 1.977 . S
Zn97 O107 1.910 . S
O98 Zn95 1.933 . S
O98 C109 1.226 . S
O99 Zn97 1.932 . S
O99 C109 1.307 . S
O100 Zn93 1.919 . S
O100 C111 1.253 . S
O101 Zn95 1.941 . S
O101 C111 1.283 . S
O102 Zn95 1.965 . S
O102 C110 1.303 . S
O103 Zn96 1.938 . S
O103 C110 1.247 . S
O104 Zn96 1.906 . S
O104 C112 1.304 . S
O105 Zn93 1.924 . S
O105 C113 1.311 . S
O106 Zn97 1.977 . S
O106 C112 1.272 . S
O107 Zn97 1.910 . S
O107 C113 1.231 . S
C108 O92 1.225 . S
C108 O114 1.298 . S
C109 O98 1.226 . S
C109 O99 1.307 . S
C110 O102 1.303 . S
C110 O103 1.247 . S
C111 O100 1.253 . S
C111 O101 1.283 . S
C112 O104 1.304 . S
C112 O106 1.272 . S
C113 O105 1.311 . S
C113 O107 1.231 . S
O114 Zn96 1.953 . S
O114 C108 1.298 . S
O115 Zn116 1.953 . S
O115 C131 1.225 . S
Zn116 O115 1.953 . S
Zn116 O117 1.949 . S
Zn116 O123 1.919 . S
Zn116 O128 1.924 . S
O117 Zn116 1.949 . S
O117 Zn118 1.923 . S
O117 Zn119 1.950 . S
O117 Zn120 1.945 . S
Zn118 O117 1.923 . S
Zn118 O121 1.933 . S
Zn118 O124 1.941 . S
Zn118 O125 1.965 . S
Zn119 O117 1.950 . S
Zn119 O126 1.938 . S
Zn119 O127 1.906 . S
Zn119 O137 1.953 . S
Zn120 O117 1.945 . S
Zn120 O122 1.932 . S
Zn120 O129 1.977 . S
Zn120 O130 1.910 . S
O121 Zn118 1.933 . S
O121 C132 1.226 . S
O122 Zn120 1.932 . S
O122 C132 1.307 . S
O123 Zn116 1.919 . S
O123 C134 1.253 . S
O124 Zn118 1.941 . S
O124 C134 1.283 . S
O125 Zn118 1.965 . S
O125 C133 1.303 . S
O126 Zn119 1.938 . S
O126 C133 1.247 . S
O127 Zn119 1.906 . S
O127 C135 1.304 . S
O128 Zn116 1.924 . S
O128 C136 1.311 . S
O129 Zn120 1.977 . S
O129 C135 1.272 . S
O130 Zn120 1.910 . S
O130 C136 1.231 . S
C131 O115 1.225 . S
C131 O137 1.298 . S
C132 O121 1.226 . S
C132 O122 1.307 . S
C133 O125 1.303 . S
C133 O126 1.247 . S
C134 O123 1.253 . S
C134 O124 1.283 . S
C135 O127 1.304 . S
C135 O129 1.272 . S
C136 O128 1.311 . S
C136 O130 1.231 . S
O137 Zn119 1.953 . S
O137 C131 1.298 . S
H138 C146 0.929 . S
H139 C148 0.930 . S
H140 C150 0.930 . S
H141 C153 0.929 . S
H142 C156 0.930 . S
H143 C158 0.960 . S
H144 C158 0.960 . S
H145 C158 0.960 . S
C146 H138 0.929 . S
C146 C147 1.377 . S
C146 C148 1.384 1_545 S
C147 C146 1.377 . S
C147 C153 1.390 . S
C148 H139 0.930 . S
C148 C146 1.384 1_565 S
C148 C149 1.372 . S
C149 C148 1.372 . S
C149 C150 1.400 . S
C149 C154 1.490 . S
C150 H140 0.930 . S
C150 C149 1.400 . S
C150 C153 1.386 1_565 S
H151 C167 0.930 . S
H152 C168 0.931 . S
C153 H141 0.929 . S
C153 C147 1.390 . S
C153 C150 1.386 1_545 S
C154 C149 1.490 . S
C154 C156 1.395 . S
C154 C157 1.403 . S
H155 C161 0.930 . S
C156 H142 0.930 . S
C156 C154 1.395 . S
C156 C159 1.403 . S
C157 C154 1.403 . S
C157 C158 1.524 . S
C157 C161 1.400 . S
C158 H143 0.960 . S
C158 H144 0.960 . S
C158 H145 0.960 . S
C158 C157 1.524 . S
C159 C156 1.403 . S
C159 C160 1.392 . S
C159 C163 1.495 . S
C160 C159 1.392 . S
C160 C161 1.385 . S
C160 C162 1.478 . S
C161 H155 0.930 . S
C161 C157 1.400 . S
C161 C160 1.385 . S
C162 C160 1.478 . S
C162 C164 1.381 . S
C162 C168 1.383 . S
C163 C159 1.495 . S
C163 H169 0.959 1_556 S
C163 H170 0.961 1_556 S
C163 H171 0.960 . S
C164 C162 1.381 . S
C164 C165 1.394 . S
C164 H172 0.930 . S
C165 C164 1.394 . S
C165 C166 1.383 . S
C165 H173 0.929 . S
C166 C165 1.383 . S
C166 C167 1.377 . S
C167 H151 0.930 . S
C167 C166 1.377 . S
C167 C168 1.379 . S
C168 H152 0.931 . S
C168 C162 1.383 . S
C168 C167 1.379 . S
H169 C163 0.959 1_554 S
H170 C163 0.961 1_554 S
H171 C163 0.960 . S
H172 C164 0.930 . S
H173 C165 0.929 . S
H174 C182 0.929 . S
H175 C184 0.930 . S
H176 C186 0.930 . S
H177 C189 0.929 . S
H178 C192 0.930 . S
H179 C194 0.960 . S
H180 C194 0.960 . S
H181 C194 0.960 . S
C182 H174 0.929 . S
C182 C183 1.377 . S
C182 C184 1.384 . S
C183 C182 1.377 . S
C183 C189 1.390 . S
C184 H175 0.930 . S
C184 C182 1.384 . S
C184 C185 1.372 . S
C185 C184 1.372 . S
C185 C186 1.400 . S
C185 C190 1.490 . S
C186 H176 0.930 . S
C186 C185 1.400 . S
C186 C189 1.386 . S
H187 C203 0.930 . S
H188 C204 0.931 . S
C189 H177 0.929 . S
C189 C183 1.390 . S
C189 C186 1.386 . S
C190 C185 1.490 . S
C190 C192 1.395 . S
C190 C193 1.403 . S
H191 C197 0.930 . S
C192 H178 0.930 . S
C192 C190 1.395 . S
C192 C195 1.403 . S
C193 C190 1.403 . S
C193 C194 1.524 . S
C193 C197 1.400 . S
C194 H179 0.960 . S
C194 H180 0.960 . S
C194 H181 0.960 . S
C194 C193 1.524 . S
C195 C192 1.403 . S
C195 C196 1.392 . S
C195 C199 1.495 . S
C196 C195 1.392 . S
C196 C197 1.385 . S
C196 C198 1.478 . S
C197 H191 0.930 . S
C197 C193 1.400 . S
C197 C196 1.385 . S
C198 C196 1.478 . S
C198 C200 1.381 . S
C198 C204 1.383 . S
C199 C195 1.495 . S
C199 H205 0.959 . S
C199 H206 0.961 . S
C199 H207 0.960 . S
C200 C198 1.381 . S
C200 C201 1.394 . S
C200 H208 0.930 . S
C201 C200 1.394 . S
C201 C202 1.383 . S
C201 H209 0.929 . S
C202 C201 1.383 . S
C202 C203 1.377 . S
C203 H187 0.930 . S
C203 C202 1.377 . S
C203 C204 1.379 . S
C204 H188 0.931 . S
C204 C198 1.383 . S
C204 C203 1.379 . S
H205 C199 0.959 . S
H206 C199 0.961 . S
H207 C199 0.960 . S
H208 C200 0.930 . S
H209 C201 0.929 . S
H210 C218 0.929 . S
H211 C220 0.930 . S
H212 C222 0.930 . S
H213 C225 0.929 . S
H214 C228 0.930 . S
H215 C230 0.960 . S
H216 C230 0.960 . S
H217 C230 0.960 . S
C218 H210 0.929 . S
C218 C219 1.377 . S
C218 C220 1.384 1_655 S
C219 C218 1.377 . S
C219 C225 1.390 . S
C220 H211 0.930 . S
C220 C218 1.384 1_455 S
C220 C221 1.372 . S
C221 C220 1.372 . S
C221 C222 1.400 . S
C221 C226 1.490 . S
C222 H212 0.930 . S
C222 C221 1.400 . S
C222 C225 1.386 1_455 S
H223 C239 0.930 . S
H224 C240 0.931 . S
C225 H213 0.929 . S
C225 C219 1.390 . S
C225 C222 1.386 1_655 S
C226 C221 1.490 . S
C226 C228 1.395 . S
C226 C229 1.403 . S
H227 C233 0.930 . S
C228 H214 0.930 . S
C228 C226 1.395 . S
C228 C231 1.403 . S
C229 C226 1.403 . S
C229 C230 1.524 . S
C229 C233 1.400 . S
C230 H215 0.960 . S
C230 H216 0.960 . S
C230 H217 0.960 . S
C230 C229 1.524 . S
C231 C228 1.403 . S
C231 C232 1.392 . S
C231 C235 1.495 . S
C232 C231 1.392 . S
C232 C233 1.385 . S
C232 C234 1.478 . S
C233 H227 0.930 . S
C233 C229 1.400 . S
C233 C232 1.385 . S
C234 C232 1.478 . S
C234 C236 1.381 . S
C234 C240 1.383 . S
C235 C231 1.495 . S
C235 H241 0.959 . S
C235 H242 0.961 . S
C235 H243 0.960 . S
C236 C234 1.381 . S
C236 C237 1.394 . S
C236 H244 0.930 . S
C237 C236 1.394 . S
C237 C238 1.383 . S
C237 H245 0.929 . S
C238 C237 1.383 . S
C238 C239 1.377 . S
C239 H223 0.930 . S
C239 C238 1.377 . S
C239 C240 1.379 . S
C240 H224 0.931 . S
C240 C234 1.383 . S
C240 C239 1.379 . S
H241 C235 0.959 . S
H242 C235 0.961 . S
H243 C235 0.960 . S
H244 C236 0.930 . S
H245 C237 0.929 . S
H246 C254 0.929 . S
H247 C256 0.930 . S
H248 C258 0.930 . S
H249 C261 0.929 . S
H250 C264 0.930 . S
H251 C266 0.960 . S
H252 C266 0.960 . S
H253 C266 0.960 . S
C254 H246 0.929 . S
C254 C255 1.377 . S
C254 C256 1.384 . S
C255 C254 1.377 . S
C255 C261 1.390 . S
C256 H247 0.930 . S
C256 C254 1.384 . S
C256 C257 1.372 . S
C257 C256 1.372 . S
C257 C258 1.400 . S
C257 C262 1.490 . S
C258 H248 0.930 . S
C258 C257 1.400 . S
C258 C261 1.386 . S
H259 C275 0.930 . S
H260 C276 0.931 . S
C261 H249 0.929 . S
C261 C255 1.390 . S
C261 C258 1.386 . S
C262 C257 1.490 . S
C262 C264 1.395 . S
C262 C265 1.403 . S
H263 C269 0.930 . S
C264 H250 0.930 . S
C264 C262 1.395 . S
C264 C267 1.403 . S
C265 C262 1.403 . S
C265 C266 1.524 . S
C265 C269 1.400 . S
C266 H251 0.960 . S
C266 H252 0.960 . S
C266 H253 0.960 . S
C266 C265 1.524 . S
C267 C264 1.403 . S
C267 C268 1.392 . S
C267 C271 1.495 . S
C268 C267 1.392 . S
C268 C269 1.385 . S
C268 C270 1.478 . S
C269 H263 0.930 . S
C269 C265 1.400 . S
C269 C268 1.385 . S
C270 C268 1.478 . S
C270 C272 1.381 . S
C270 C276 1.383 . S
C271 C267 1.495 . S
C271 H277 0.959 . S
C271 H278 0.961 . S
C271 H279 0.960 . S
C272 C270 1.381 . S
C272 C273 1.394 1_545 S
C272 H280 0.930 . S
C273 C272 1.394 1_565 S
C273 C274 1.383 . S
C273 H281 0.929 . S
C274 C273 1.383 . S
C274 C275 1.377 . S
C275 H259 0.930 . S
C275 C274 1.377 . S
C275 C276 1.379 1_565 S
C276 H260 0.931 . S
C276 C270 1.383 . S
C276 C275 1.379 1_545 S
H277 C271 0.959 . S
H278 C271 0.961 . S
H279 C271 0.960 . S
H280 C272 0.930 . S
H281 C273 0.929 . S
H282 C290 0.929 . S
H283 C292 0.930 . S
H284 C294 0.930 . S
H285 C297 0.929 . S
H286 C300 0.930 . S
H287 C302 0.960 . S
H288 C302 0.960 . S
H289 C302 0.960 . S
C290 H282 0.929 . S
C290 C291 1.377 . S
C290 C292 1.384 . S
C291 C290 1.377 . S
C291 C297 1.390 . S
C292 H283 0.930 . S
C292 C290 1.384 . S
C292 C293 1.372 . S
C293 C292 1.372 . S
C293 C294 1.400 . S
C293 C298 1.490 . S
C294 H284 0.930 . S
C294 C293 1.400 . S
C294 C297 1.386 . S
H295 C311 0.930 . S
H296 C312 0.931 . S
C297 H285 0.929 . S
C297 C291 1.390 . S
C297 C294 1.386 . S
C298 C293 1.490 . S
C298 C300 1.395 . S
C298 C301 1.403 . S
H299 C305 0.930 . S
C300 H286 0.930 . S
C300 C298 1.395 . S
C300 C303 1.403 . S
C301 C298 1.403 . S
C301 C302 1.524 . S
C301 C305 1.400 . S
C302 H287 0.960 . S
C302 H288 0.960 . S
C302 H289 0.960 . S
C302 C301 1.524 . S
C303 C300 1.403 . S
C303 C304 1.392 . S
C303 C307 1.495 . S
C304 C303 1.392 . S
C304 C305 1.385 . S
C304 C306 1.478 . S
C305 H299 0.930 . S
C305 C301 1.400 . S
C305 C304 1.385 . S
C306 C304 1.478 . S
C306 C308 1.381 . S
C306 C312 1.383 . S
C307 C303 1.495 . S
C307 H313 0.959 . S
C307 H314 0.961 . S
C307 H315 0.960 . S
C308 C306 1.381 . S
C308 C309 1.394 . S
C308 H316 0.930 . S
C309 C308 1.394 . S
C309 C310 1.383 . S
C309 H317 0.929 . S
C310 C309 1.383 . S
C310 C311 1.377 . S
C311 H295 0.930 . S
C311 C310 1.377 . S
C311 C312 1.379 . S
C312 H296 0.931 . S
C312 C306 1.383 . S
C312 C311 1.379 . S
H313 C307 0.959 . S
H314 C307 0.961 . S
H315 C307 0.960 . S
H316 C308 0.930 . S
H317 C309 0.929 . S
H318 C326 0.929 . S
H319 C328 0.930 . S
H320 C330 0.930 . S
H321 C333 0.929 . S
H322 C336 0.930 . S
H323 C338 0.960 . S
H324 C338 0.960 . S
H325 C338 0.960 . S
C326 H318 0.929 . S
C326 C327 1.377 . S
C326 C328 1.384 1_455 S
C327 C326 1.377 . S
C327 C333 1.390 . S
C328 H319 0.930 . S
C328 C326 1.384 1_655 S
C328 C329 1.372 . S
C329 C328 1.372 . S
C329 C330 1.400 . S
C329 C334 1.490 . S
C330 H320 0.930 . S
C330 C329 1.400 . S
C330 C333 1.386 1_655 S
H331 C347 0.930 . S
H332 C348 0.931 . S
C333 H321 0.929 . S
C333 C327 1.390 . S
C333 C330 1.386 1_455 S
C334 C329 1.490 . S
C334 C336 1.395 . S
C334 C337 1.403 . S
H335 C341 0.930 . S
C336 H322 0.930 . S
C336 C334 1.395 . S
C336 C339 1.403 . S
C337 C334 1.403 . S
C337 C338 1.524 . S
C337 C341 1.400 . S
C338 H323 0.960 . S
C338 H324 0.960 . S
C338 H325 0.960 . S
C338 C337 1.524 . S
C339 C336 1.403 . S
C339 C340 1.392 . S
C339 C343 1.495 . S
C340 C339 1.392 . S
C340 C341 1.385 . S
C340 C342 1.478 . S
C341 H335 0.930 . S
C341 C337 1.400 . S
C341 C340 1.385 . S
C342 C340 1.478 . S
C342 C344 1.381 . S
C342 C348 1.383 . S
C343 C339 1.495 . S
C343 H349 0.959 . S
C343 H350 0.961 . S
C343 H351 0.960 . S
C344 C342 1.381 . S
C344 C345 1.394 . S
C344 H352 0.930 . S
C345 C344 1.394 . S
C345 C346 1.383 . S
C345 H353 0.929 . S
C346 C345 1.383 . S
C346 C347 1.377 . S
C347 H331 0.930 . S
C347 C346 1.377 . S
C347 C348 1.379 . S
C348 H332 0.931 . S
C348 C342 1.383 . S
C348 C347 1.379 . S
H349 C343 0.959 . S
H350 C343 0.961 . S
H351 C343 0.960 . S
H352 C344 0.930 . S
H353 C345 0.929 . S
H354 C362 0.929 . S
H355 C364 0.930 1_565 S
H356 C366 0.930 . S
H357 C369 0.929 . S
H358 C372 0.930 . S
H359 C374 0.960 . S
H360 C374 0.960 . S
H361 C374 0.960 . S
C362 H354 0.929 . S
C362 C363 1.377 . S
C362 C364 1.384 . S
C363 C362 1.377 . S
C363 C369 1.390 . S
C364 H355 0.930 1_545 S
C364 C362 1.384 . S
C364 C365 1.372 . S
C365 C364 1.372 . S
C365 C366 1.400 . S
C365 C370 1.490 1_545 S
C366 H356 0.930 . S
C366 C365 1.400 . S
C366 C369 1.386 . S
H367 C383 0.930 . S
H368 C384 0.931 . S
C369 H357 0.929 . S
C369 C363 1.390 . S
C369 C366 1.386 . S
C370 C365 1.490 1_565 S
C370 C372 1.395 1_565 S
C370 C373 1.403 . S
H371 C377 0.930 . S
C372 H358 0.930 . S
C372 C370 1.395 1_545 S
C372 C375 1.406 . S
C373 C370 1.403 . S
C373 C374 1.524 . S
C373 C377 1.400 . S
C374 H359 0.960 . S
C374 H360 0.960 . S
C374 H361 0.960 . S
C374 C373 1.524 . S
C375 C372 1.406 . S
C375 C376 1.390 1_545 S
C375 C379 1.495 . S
C376 C375 1.390 1_565 S
C376 C377 1.385 . S
C376 C378 1.478 . S
C377 H371 0.930 . S
C377 C373 1.400 . S
C377 C376 1.385 . S
C378 C376 1.478 . S
C378 C380 1.381 . S
C378 C384 1.383 . S
C379 C375 1.495 . S
C379 H385 0.959 . S
C379 H386 0.961 . S
C379 H387 0.960 . S
C380 C378 1.381 . S
C380 C381 1.394 . S
C380 H388 0.930 . S
C381 C380 1.394 . S
C381 C382 1.383 . S
C381 H389 0.929 . S
C382 C381 1.383 . S
C382 C383 1.377 . S
C383 H367 0.930 . S
C383 C382 1.377 . S
C383 C384 1.379 . S
C384 H368 0.931 . S
C384 C378 1.383 . S
C384 C383 1.379 . S
H385 C379 0.959 . S
H386 C379 0.961 . S
H387 C379 0.960 . S
H388 C380 0.930 . S
H389 C381 0.929 . S
H390 C398 0.929 . S
H391 C400 0.930 . S
H392 C402 0.930 . S
H393 C405 0.929 . S
H394 C408 0.930 . S
H395 C410 0.960 . S
H396 C410 0.960 . S
H397 C410 0.960 . S
C398 H390 0.929 . S
C398 C399 1.377 . S
C398 C400 1.384 . S
C399 C398 1.377 . S
C399 C405 1.390 . S
C400 H391 0.930 . S
C400 C398 1.384 . S
C400 C401 1.372 . S
C401 C400 1.372 . S
C401 C402 1.400 . S
C401 C406 1.490 . S
C402 H392 0.930 . S
C402 C401 1.400 . S
C402 C405 1.386 . S
H403 C419 0.930 . S
H404 C420 0.931 . S
C405 H393 0.929 . S
C405 C399 1.390 . S
C405 C402 1.386 . S
C406 C401 1.490 . S
C406 C408 1.395 . S
C406 C409 1.403 . S
H407 C413 0.930 . S
C408 H394 0.930 . S
C408 C406 1.395 . S
C408 C411 1.403 . S
C409 C406 1.403 . S
C409 C410 1.524 . S
C409 C413 1.400 . S
C410 H395 0.960 . S
C410 H396 0.960 . S
C410 H397 0.960 . S
C410 C409 1.524 . S
C411 C408 1.403 . S
C411 C412 1.392 . S
C411 C415 1.495 . S
C412 C411 1.392 . S
C412 C413 1.385 . S
C412 C414 1.478 . S
C413 H407 0.930 . S
C413 C409 1.400 . S
C413 C412 1.385 . S
C414 C412 1.478 . S
C414 C416 1.381 . S
C414 C420 1.383 . S
C415 C411 1.495 . S
C415 H421 0.959 . S
C415 H422 0.961 . S
C415 H423 0.960 . S
C416 C414 1.381 . S
C416 C417 1.394 . S
C416 H424 0.930 . S
C417 C416 1.394 . S
C417 C418 1.383 . S
C417 H425 0.929 . S
C418 C417 1.383 . S
C418 C419 1.377 . S
C419 H403 0.930 . S
C419 C418 1.377 . S
C419 C420 1.379 . S
C420 H404 0.931 . S
C420 C414 1.383 . S
C420 C419 1.379 . S
H421 C415 0.959 . S
H422 C415 0.961 . S
H423 C415 0.960 . S
H424 C416 0.930 . S
H425 C417 0.929 . S
H426 C434 0.929 . S
H427 C436 0.930 1_655 S
H428 C438 0.930 . S
H429 C441 0.929 . S
H430 C444 0.903 1_655 S
H431 C446 0.960 . S
H432 C446 0.960 . S
H433 C446 0.960 . S
C434 H426 0.929 . S
C434 C435 1.377 . S
C434 C436 1.384 . S
C435 C434 1.377 . S
C435 C441 1.390 . S
C436 H427 0.930 1_455 S
C436 C434 1.384 . S
C436 C437 1.372 . S
C437 C436 1.372 . S
C437 C438 1.400 . S
C437 C442 1.490 . S
C438 H428 0.930 . S
C438 C437 1.400 . S
C438 C441 1.386 . S
H439 C455 0.930 1_455 S
H440 C456 0.931 . S
C441 H429 0.929 . S
C441 C435 1.390 . S
C441 C438 1.386 . S
C442 C437 1.490 . S
C442 C444 1.428 . S
C442 C445 1.403 . S
H443 C449 0.930 . S
C444 H430 0.903 1_455 S
C444 C442 1.428 . S
C444 C447 1.397 1_455 S
C445 C442 1.403 . S
C445 C446 1.524 . S
C445 C449 1.400 . S
C446 H431 0.960 . S
C446 H432 0.960 . S
C446 H433 0.960 . S
C446 C445 1.524 . S
C447 C444 1.397 1_655 S
C447 C448 1.413 . S
C447 C451 1.495 . S
C448 C447 1.413 . S
C448 C449 1.360 1_655 S
C448 C450 1.481 . S
C449 H443 0.930 . S
C449 C445 1.400 . S
C449 C448 1.360 1_455 S
C450 C448 1.481 . S
C450 C452 1.381 . S
C450 C456 1.383 1_655 S
C451 C447 1.495 . S
C451 H457 0.959 . S
C451 H458 0.961 . S
C451 H459 0.960 . S
C452 C450 1.381 . S
C452 C453 1.394 . S
C452 H460 0.930 . S
C453 C452 1.394 . S
C453 C454 1.383 . S
C453 H461 0.929 . S
C454 C453 1.383 . S
C454 C455 1.377 . S
C455 H439 0.930 1_655 S
C455 C454 1.377 . S
C455 C456 1.379 1_655 S
C456 H440 0.931 . S
C456 C450 1.383 1_455 S
C456 C455 1.379 1_455 S
H457 C451 0.959 . S
H458 C451 0.961 . S
H459 C451 0.960 . S
H460 C452 0.930 . S
H461 C453 0.929 . S
H462 C470 0.929 . S
H463 C472 0.930 . S
H464 C474 0.930 . S
H465 C477 0.929 . S
H466 C480 0.930 . S
H467 C482 0.960 . S
H468 C482 0.960 . S
H469 C482 0.960 . S
C470 H462 0.929 . S
C470 C471 1.377 . S
C470 C472 1.384 . S
C471 C470 1.377 . S
C471 C477 1.390 . S
C472 H463 0.930 . S
C472 C470 1.384 . S
C472 C473 1.372 . S
C473 C472 1.372 . S
C473 C474 1.400 . S
C473 C478 1.490 1_565 S
C474 H464 0.930 . S
C474 C473 1.400 . S
C474 C477 1.386 . S
H475 C491 0.930 . S
H476 C492 0.931 . S
C477 H465 0.929 . S
C477 C471 1.390 . S
C477 C474 1.386 . S
C478 C473 1.490 1_545 S
C478 C480 1.395 1_545 S
C478 C481 1.403 . S
H479 C485 0.930 . S
C480 H466 0.930 . S
C480 C478 1.395 1_565 S
C480 C483 1.403 . S
C481 C478 1.403 . S
C481 C482 1.524 . S
C481 C485 1.400 . S
C482 H467 0.960 . S
C482 H468 0.960 . S
C482 H469 0.960 . S
C482 C481 1.524 . S
C483 C480 1.403 . S
C483 C484 1.392 1_565 S
C483 C487 1.495 . S
C484 C483 1.392 1_545 S
C484 C485 1.385 . S
C484 C486 1.478 . S
C485 H479 0.930 . S
C485 C481 1.400 . S
C485 C484 1.385 . S
C486 C484 1.478 . S
C486 C488 1.381 . S
C486 C492 1.383 . S
C487 C483 1.495 . S
C487 H493 0.959 . S
C487 H494 0.961 . S
C487 H495 0.960 . S
C488 C486 1.381 . S
C488 C489 1.394 . S
C488 H496 0.930 . S
C489 C488 1.394 . S
C489 C490 1.383 . S
C489 H497 0.929 . S
C490 C489 1.383 . S
C490 C491 1.377 . S
C491 H475 0.930 . S
C491 C490 1.377 . S
C491 C492 1.379 . S
C492 H476 0.931 . S
C492 C486 1.383 . S
C492 C491 1.379 . S
H493 C487 0.959 . S
H494 C487 0.961 . S
H495 C487 0.960 . S
H496 C488 0.930 . S
H497 C489 0.929 . S
H498 C506 0.929 . S
H499 C508 0.930 . S
H500 C510 0.933 . S
H501 C513 0.929 . S
H502 C516 0.930 . S
H503 C518 0.960 . S
H504 C518 0.960 . S
H505 C518 0.960 . S
C506 H498 0.929 . S
C506 C507 1.377 . S
C506 C508 1.384 . S
C507 C506 1.377 . S
C507 C513 1.390 . S
C508 H499 0.930 . S
C508 C506 1.384 . S
C508 C509 1.372 . S
C509 C508 1.372 . S
C509 C510 1.400 . S
C509 C514 1.490 1_554 S
C510 H500 0.933 . S
C510 C509 1.400 . S
C510 C513 1.386 . S
H511 C527 0.930 . S
H512 C528 0.931 . S
C513 H501 0.929 . S
C513 C507 1.390 . S
C513 C510 1.386 . S
C514 C509 1.490 1_556 S
C514 C516 1.395 . S
C514 C517 1.403 . S
H515 C521 0.930 . S
C516 H502 0.930 . S
C516 C514 1.395 . S
C516 C519 1.403 . S
C517 C514 1.403 . S
C517 C518 1.524 . S
C517 C521 1.400 . S
C518 H503 0.960 . S
C518 H504 0.960 . S
C518 H505 0.960 . S
C518 C517 1.524 . S
C519 C516 1.403 . S
C519 C520 1.392 . S
C519 C523 1.495 . S
C520 C519 1.392 . S
C520 C521 1.385 . S
C520 C522 1.478 . S
C521 H515 0.930 . S
C521 C517 1.400 . S
C521 C520 1.385 . S
C522 C520 1.478 . S
C522 C524 1.381 . S
C522 C528 1.383 . S
C523 C519 1.495 . S
C523 H529 0.959 . S
C523 H530 0.961 . S
C523 H531 0.960 . S
C524 C522 1.381 . S
C524 C525 1.394 . S
C524 H532 0.930 . S
C525 C524 1.394 . S
C525 C526 1.383 . S
C525 H533 0.929 . S
C526 C525 1.383 . S
C526 C527 1.377 . S
C527 H511 0.930 . S
C527 C526 1.377 . S
C527 C528 1.379 . S
C528 H512 0.931 . S
C528 C522 1.383 . S
C528 C527 1.379 . S
H529 C523 0.959 . S
H530 C523 0.961 . S
H531 C523 0.960 . S
H532 C524 0.930 . S
H533 C525 0.929 . S
H534 C542 0.929 . S
H535 C544 0.932 . S
H536 C546 0.930 1_655 S
H537 C549 0.929 . S
H538 C552 0.930 . S
H539 C554 0.960 . S
H540 C554 0.960 . S
H541 C554 0.960 . S
C542 H534 0.929 . S
C542 C543 1.377 . S
C542 C544 1.373 1_556 S
C543 C542 1.377 . S
C543 C549 1.390 . S
C544 H535 0.932 . S
C544 C542 1.373 1_554 S
C544 C545 1.381 . S
C545 C544 1.381 . S
C545 C546 1.400 . S
C545 C550 1.490 1_455 S
C546 H536 0.930 1_455 S
C546 C545 1.400 . S
C546 C549 1.386 1_554 S
H547 C563 0.930 . S
H548 C564 0.931 . S
C549 H537 0.929 . S
C549 C543 1.390 . S
C549 C546 1.386 1_556 S
C550 C545 1.490 1_655 S
C550 C552 1.395 1_655 S
C550 C553 1.403 . S
H551 C557 0.930 . S
C552 H538 0.930 . S
C552 C550 1.395 1_455 S
C552 C555 1.403 . S
C553 C550 1.403 . S
C553 C554 1.524 . S
C553 C557 1.400 . S
C554 H539 0.960 . S
C554 H540 0.960 . S
C554 H541 0.960 . S
C554 C553 1.524 . S
C555 C552 1.403 . S
C555 C556 1.392 1_455 S
C555 C559 1.495 . S
C556 C555 1.392 1_655 S
C556 C557 1.385 . S
C556 C558 1.478 . S
C557 H551 0.930 . S
C557 C553 1.400 . S
C557 C556 1.385 . S
C558 C556 1.478 . S
C558 C560 1.381 . S
C558 C564 1.383 . S
C559 C555 1.495 . S
C559 H565 0.959 . S
C559 H566 0.961 . S
C559 H567 0.960 . S
C560 C558 1.381 . S
C560 C561 1.394 . S
C560 H568 0.930 . S
C561 C560 1.394 . S
C561 C562 1.383 . S
C561 H569 0.929 . S
C562 C561 1.383 . S
C562 C563 1.377 . S
C563 H547 0.930 . S
C563 C562 1.377 . S
C563 C564 1.379 . S
C564 H548 0.931 . S
C564 C558 1.383 . S
C564 C563 1.379 . S
H565 C559 0.959 . S
H566 C559 0.961 . S
H567 C559 0.960 . S
H568 C560 0.930 . S
H569 C561 0.929 . S
H570 C578 0.929 . S
H571 C580 0.930 . S
H572 C582 0.930 . S
H573 C585 0.929 . S
H574 C588 0.930 . S
H575 C590 0.960 . S
H576 C590 0.960 . S
H577 C590 0.960 . S
C578 H570 0.929 . S
C578 C579 1.377 . S
C578 C580 1.384 . S
C579 C578 1.377 . S
C579 C585 1.390 . S
C580 H571 0.930 . S
C580 C578 1.384 . S
C580 C581 1.372 . S
C581 C580 1.372 . S
C581 C582 1.400 . S
C581 C586 1.490 . S
C582 H572 0.930 . S
C582 C581 1.400 . S
C582 C585 1.386 . S
H583 C599 0.930 . S
H584 C600 0.931 . S
C585 H573 0.929 . S
C585 C579 1.390 . S
C585 C582 1.386 . S
C586 C581 1.490 . S
C586 C588 1.395 . S
C586 C589 1.403 . S
H587 C593 0.930 . S
C588 H574 0.930 . S
C588 C586 1.395 . S
C588 C591 1.403 . S
C589 C586 1.403 . S
C589 C590 1.524 . S
C589 C593 1.400 . S
C590 H575 0.960 . S
C590 H576 0.960 . S
C590 H577 0.960 . S
C590 C589 1.524 . S
C591 C588 1.403 . S
C591 C592 1.392 . S
C591 C595 1.495 . S
C592 C591 1.392 . S
C592 C593 1.385 . S
C592 C594 1.478 . S
C593 H587 0.930 . S
C593 C589 1.400 . S
C593 C592 1.385 . S
C594 C592 1.478 . S
C594 C596 1.381 . S
C594 C600 1.383 . S
C595 C591 1.495 . S
C595 H601 0.959 . S
C595 H602 0.961 . S
C595 H603 0.960 . S
C596 C594 1.381 . S
C596 C597 1.394 . S
C596 H604 0.930 . S
C597 C596 1.394 . S
C597 C598 1.383 . S
C597 H605 0.929 . S
C598 C597 1.383 . S
C598 C599 1.377 . S
C599 H583 0.930 . S
C599 C598 1.377 . S
C599 C600 1.379 . S
C600 H584 0.931 . S
C600 C594 1.383 . S
C600 C599 1.379 . S
H601 C595 0.959 . S
H602 C595 0.961 . S
H603 C595 0.960 . S
H604 C596 0.930 . S
H605 C597 0.929 . S
H606 C614 0.929 . S
H607 C616 0.930 . S
H608 C618 0.930 . S
H609 C621 0.929 . S
H610 C624 0.933 . S
H611 C626 0.960 . S
H612 C626 0.960 . S
H613 C626 0.960 . S
C614 H606 0.929 . S
C614 C615 1.377 . S
C614 C616 1.384 . S
C615 C614 1.377 . S
C615 C621 1.390 . S
C616 H607 0.930 . S
C616 C614 1.384 . S
C616 C617 1.372 . S
C617 C616 1.372 . S
C617 C618 1.400 . S
C617 C622 1.490 . S
C618 H608 0.930 . S
C618 C617 1.400 . S
C618 C621 1.386 . S
H619 C635 0.930 . S
H620 C636 0.931 . S
C621 H609 0.929 . S
C621 C615 1.390 . S
C621 C618 1.386 . S
C622 C617 1.490 . S
C622 C624 1.379 1_556 S
C622 C625 1.403 . S
H623 C629 0.930 . S
C624 H610 0.933 . S
C624 C622 1.379 1_554 S
C624 C627 1.417 . S
C625 C622 1.403 . S
C625 C626 1.524 . S
C625 C629 1.400 . S
C626 H611 0.960 . S
C626 H612 0.960 . S
C626 H613 0.960 . S
C626 C625 1.524 . S
C627 C624 1.417 . S
C627 C628 1.392 . S
C627 C631 1.495 . S
C628 C627 1.392 . S
C628 C629 1.385 1_554 S
C628 C630 1.478 . S
C629 H623 0.930 . S
C629 C625 1.400 . S
C629 C628 1.385 1_556 S
C630 C628 1.478 . S
C630 C632 1.381 . S
C630 C636 1.383 . S
C631 C627 1.495 . S
C631 H637 0.959 . S
C631 H638 0.961 . S
C631 H639 0.960 . S
C632 C630 1.381 . S
C632 C633 1.394 . S
C632 H640 0.930 . S
C633 C632 1.394 . S
C633 C634 1.383 . S
C633 H641 0.929 . S
C634 C633 1.383 . S
C634 C635 1.377 . S
C635 H619 0.930 . S
C635 C634 1.377 . S
C635 C636 1.379 . S
C636 H620 0.931 . S
C636 C630 1.383 . S
C636 C635 1.379 . S
H637 C631 0.959 . S
H638 C631 0.961 . S
H639 C631 0.960 . S
H640 C632 0.930 . S
H641 C633 0.929 . S
H642 C650 0.929 . S
H643 C652 0.930 . S
H644 C654 0.930 . S
H645 C657 0.929 . S
H646 C660 0.930 . S
H647 C662 0.960 . S
H648 C662 0.960 . S
H649 C662 0.960 . S
C650 H642 0.929 . S
C650 C651 1.377 . S
C650 C652 1.384 . S
C651 C650 1.377 . S
C651 C657 1.390 . S
C652 H643 0.930 . S
C652 C650 1.384 . S
C652 C653 1.372 . S
C653 C652 1.372 . S
C653 C654 1.400 . S
C653 C658 1.490 . S
C654 H644 0.930 . S
C654 C653 1.400 . S
C654 C657 1.386 . S
H655 C671 0.930 . S
H656 C672 0.931 . S
C657 H645 0.929 . S
C657 C651 1.390 . S
C657 C654 1.386 . S
C658 C653 1.490 . S
C658 C660 1.395 . S
C658 C661 1.403 . S
H659 C665 0.930 . S
C660 H646 0.930 . S
C660 C658 1.395 . S
C660 C663 1.403 . S
C661 C658 1.403 . S
C661 C662 1.524 . S
C661 C665 1.400 . S
C662 H647 0.960 . S
C662 H648 0.960 . S
C662 H649 0.960 . S
C662 C661 1.524 . S
C663 C660 1.403 . S
C663 C664 1.392 . S
C663 C667 1.495 . S
C664 C663 1.392 . S
C664 C665 1.385 . S
C664 C666 1.478 . S
C665 H659 0.930 . S
C665 C661 1.400 . S
C665 C664 1.385 . S
C666 C664 1.478 . S
C666 C668 1.381 . S
C666 C672 1.383 . S
C667 C663 1.495 . S
C667 H673 0.959 . S
C667 H674 0.961 . S
C667 H675 0.960 . S
C668 C666 1.381 . S
C668 C669 1.394 . S
C668 H676 0.930 . S
C669 C668 1.394 . S
C669 C670 1.383 . S
C669 H677 0.929 . S
C670 C669 1.383 . S
C670 C671 1.377 . S
C671 H655 0.930 . S
C671 C670 1.377 . S
C671 C672 1.379 . S
C672 H656 0.931 . S
C672 C666 1.383 . S
C672 C671 1.379 . S
H673 C667 0.959 . S
H674 C667 0.961 . S
H675 C667 0.960 . S
H676 C668 0.930 . S
H677 C669 0.929 . S
H678 C686 0.929 . S
H679 C688 0.930 . S
H680 C690 0.930 . S
H681 C693 0.929 . S
H682 C696 0.930 . S
H683 C698 0.960 . S
H684 C698 0.960 . S
H685 C698 0.960 . S
C686 H678 0.929 . S
C686 C687 1.377 . S
C686 C688 1.384 . S
C687 C686 1.377 . S
C687 C693 1.390 . S
C688 H679 0.930 . S
C688 C686 1.384 . S
C688 C689 1.372 . S
C689 C688 1.372 . S
C689 C690 1.400 . S
C689 C694 1.490 . S
C690 H680 0.930 . S
C690 C689 1.400 . S
C690 C693 1.386 . S
H691 C707 0.930 . S
H692 C708 0.931 . S
C693 H681 0.929 . S
C693 C687 1.390 . S
C693 C690 1.386 . S
C694 C689 1.490 . S
C694 C696 1.395 . S
C694 C697 1.403 . S
H695 C701 0.930 . S
C696 H682 0.930 . S
C696 C694 1.395 . S
C696 C699 1.403 . S
C697 C694 1.403 . S
C697 C698 1.524 . S
C697 C701 1.400 . S
C698 H683 0.960 . S
C698 H684 0.960 . S
C698 H685 0.960 . S
C698 C697 1.524 . S
C699 C696 1.403 . S
C699 C700 1.392 . S
C699 C703 1.495 . S
C700 C699 1.392 . S
C700 C701 1.385 . S
C700 C702 1.478 . S
C701 H695 0.930 . S
C701 C697 1.400 . S
C701 C700 1.385 . S
C702 C700 1.478 . S
C702 C704 1.381 . S
C702 C708 1.383 . S
C703 C699 1.495 . S
C703 H709 0.959 . S
C703 H710 0.961 . S
C703 H711 0.960 . S
C704 C702 1.381 . S
C704 C705 1.394 . S
C704 H712 0.930 . S
C705 C704 1.394 . S
C705 C706 1.383 . S
C705 H713 0.929 . S
C706 C705 1.383 . S
C706 C707 1.377 . S
C707 H691 0.930 . S
C707 C706 1.377 . S
C707 C708 1.379 . S
C708 H692 0.931 . S
C708 C702 1.383 . S
C708 C707 1.379 . S
H709 C703 0.959 . S
H710 C703 0.961 . S
H711 C703 0.960 . S
H712 C704 0.930 . S
H713 C705 0.929 . S
H714 C722 0.929 . S
H715 C724 0.930 . S
H716 C726 0.930 . S
H717 C729 0.929 . S
H718 C732 0.930 . S
H719 C734 0.960 . S
H720 C734 0.960 . S
H721 C734 0.960 . S
C722 H714 0.929 . S
C722 C723 1.377 . S
C722 C724 1.384 . S
C723 C722 1.377 . S
C723 C729 1.390 . S
C724 H715 0.930 . S
C724 C722 1.384 . S
C724 C725 1.372 . S
C725 C724 1.372 . S
C725 C726 1.400 . S
C725 C730 1.490 . S
C726 H716 0.930 . S
C726 C725 1.400 . S
C726 C729 1.386 . S
H727 C743 0.930 . S
H728 C744 0.931 . S
C729 H717 0.929 . S
C729 C723 1.390 . S
C729 C726 1.386 . S
C730 C725 1.490 . S
C730 C732 1.395 . S
C730 C733 1.403 . S
H731 C737 0.930 . S
C732 H718 0.930 . S
C732 C730 1.395 . S
C732 C735 1.403 . S
C733 C730 1.403 . S
C733 C734 1.524 . S
C733 C737 1.400 . S
C734 H719 0.960 . S
C734 H720 0.960 . S
C734 H721 0.960 . S
C734 C733 1.524 . S
C735 C732 1.403 . S
C735 C736 1.392 . S
C735 C739 1.495 . S
C736 C735 1.392 . S
C736 C737 1.385 . S
C736 C738 1.478 . S
C737 H731 0.930 . S
C737 C733 1.400 . S
C737 C736 1.385 . S
C738 C736 1.478 . S
C738 C740 1.381 . S
C738 C744 1.383 . S
C739 C735 1.495 . S
C739 H745 0.959 . S
C739 H746 0.961 . S
C739 H747 0.960 . S
C740 C738 1.381 . S
C740 C741 1.394 . S
C740 H748 0.930 . S
C741 C740 1.394 . S
C741 C742 1.383 . S
C741 H749 0.929 . S
C742 C741 1.383 . S
C742 C743 1.377 . S
C743 H727 0.930 . S
C743 C742 1.377 . S
C743 C744 1.379 . S
C744 H728 0.931 . S
C744 C738 1.383 . S
C744 C743 1.379 . S
H745 C739 0.959 . S
H746 C739 0.961 . S
H747 C739 0.960 . S
H748 C740 0.930 . S
H749 C741 0.929 . S
H750 C758 0.929 . S
H751 C760 0.930 . S
H752 C762 0.930 . S
H753 C765 0.929 . S
H754 C768 0.930 . S
H755 C770 0.960 . S
H756 C770 0.960 . S
H757 C770 0.960 . S
C758 H750 0.929 . S
C758 C759 1.377 . S
C758 C760 1.384 . S
C759 C758 1.377 . S
C759 C765 1.390 . S
C760 H751 0.930 . S
C760 C758 1.384 . S
C760 C761 1.372 . S
C761 C760 1.372 . S
C761 C762 1.400 . S
C761 C766 1.490 . S
C762 H752 0.930 . S
C762 C761 1.400 . S
C762 C765 1.386 . S
H763 C779 0.930 . S
H764 C780 0.931 . S
C765 H753 0.929 . S
C765 C759 1.390 . S
C765 C762 1.386 . S
C766 C761 1.490 . S
C766 C768 1.395 . S
C766 C769 1.403 . S
H767 C773 0.930 . S
C768 H754 0.930 . S
C768 C766 1.395 . S
C768 C771 1.403 . S
C769 C766 1.403 . S
C769 C770 1.524 . S
C769 C773 1.400 . S
C770 H755 0.960 . S
C770 H756 0.960 . S
C770 H757 0.960 . S
C770 C769 1.524 . S
C771 C768 1.403 . S
C771 C772 1.392 . S
C771 C775 1.495 . S
C772 C771 1.392 . S
C772 C773 1.385 . S
C772 C774 1.478 . S
C773 H767 0.930 . S
C773 C769 1.400 . S
C773 C772 1.385 . S
C774 C772 1.478 . S
C774 C776 1.381 . S
C774 C780 1.383 . S
C775 C771 1.495 . S
C775 H781 0.959 . S
C775 H782 0.961 . S
C775 H783 0.960 . S
C776 C774 1.381 . S
C776 C777 1.394 . S
C776 H784 0.930 . S
C777 C776 1.394 . S
C777 C778 1.383 . S
C777 H785 0.929 . S
C778 C777 1.383 . S
C778 C779 1.377 . S
C779 H763 0.930 . S
C779 C778 1.377 . S
C779 C780 1.379 . S
C780 H764 0.931 . S
C780 C774 1.383 . S
C780 C779 1.379 . S
H781 C775 0.959 . S
H782 C775 0.961 . S
H783 C775 0.960 . S
H784 C776 0.930 . S
H785 C777 0.929 . S
C147 C18 0.867 . S
C166 C135 0.852 . S
C183 C41 0.868 . S
C202 C20 0.847 . S
C219 C64 0.868 . S
C238 C43 0.847 . S
C255 C66 0.865 . S
C274 C87 0.874 . S
C291 C89 0.867 . S
C310 C110 0.861 . S
C327 C133 0.870 . S
C346 C112 0.874 . S
C363 C16 1.529 . S
C382 C88 1.498 . S
C399 C39 1.530 . S
C418 C111 1.500 . S
C435 C134 1.521 . S
C454 C62 1.507 . S
C471 C85 1.527 . S
C490 C19 1.499 . S
C507 C42 1.524 . S
C526 C108 1.524 . S
C543 C131 1.527 . S
C562 C65 1.501 . S
C579 C17 1.183 . S
C598 C113 1.179 . S
C615 C136 1.194 . S
C634 C40 1.161 . S
C651 C21 1.194 . S
C670 C63 1.166 . S
C687 C86 1.184 . S
C706 C44 1.202 . S
C723 C67 1.194 . S
C742 C109 1.177 . S
C759 C90 1.195 . S
C778 C132 1.160 . S
