# Generated by pormake.
# Topology wne, (6)-cn, num edge types: 1
# Building blocks:
#     Node 0, Type 0, BuildingBlock: IZENUY_clean_sbu_0, # of connection points: 6
#     Node 1, Type 0, BuildingBlock: IZENUY_clean_sbu_0, # of connection points: 6
#     Node 2, Type 0, BuildingBlock: IZENUY_clean_sbu_0, # of connection points: 6
#     Node 3, Type 0, BuildingBlock: IZENUY_clean_sbu_0, # of connection points: 6
#     Node 4, Type 0, BuildingBlock: IZENUY_clean_sbu_0, # of connection points: 6
#     Node 5, Type 0, BuildingBlock: IZENUY_clean_sbu_0, # of connection points: 6
#     Node 6, Type 0, BuildingBlock: IZENUY_clean_sbu_0, # of connection points: 6
#     Node 7, Type 0, BuildingBlock: IZENUY_clean_sbu_0, # of connection points: 6
#     Node 8, Type 0, BuildingBlock: IZENUY_clean_sbu_0, # of connection points: 6
#     Node 9, Type 0, BuildingBlock: IZENUY_clean_sbu_0, # of connection points: 6
#     Node 10, Type 0, BuildingBlock: IZENUY_clean_sbu_0, # of connection points: 6
#     Node 11, Type 0, BuildingBlock: IZENUY_clean_sbu_0, # of connection points: 6
#     Node 12, Type 0, BuildingBlock: IZENUY_clean_sbu_0, # of connection points: 6
#     Node 13, Type 0, BuildingBlock: IZENUY_clean_sbu_0, # of connection points: 6
#     Node 14, Type 0, BuildingBlock: IZENUY_clean_sbu_0, # of connection points: 6
#     Node 15, Type 0, BuildingBlock: IZENUY_clean_sbu_0, # of connection points: 6
#     Node 16, Type 0, BuildingBlock: IZENUY_clean_sbu_0, # of connection points: 6
#     Node 17, Type 0, BuildingBlock: IZENUY_clean_sbu_0, # of connection points: 6
#     Node 18, Type 0, BuildingBlock: IZENUY_clean_sbu_0, # of connection points: 6
#     Node 19, Type 0, BuildingBlock: IZENUY_clean_sbu_0, # of connection points: 6
#     Node 20, Type 0, BuildingBlock: IZENUY_clean_sbu_0, # of connection points: 6
#     Node 21, Type 0, BuildingBlock: IZENUY_clean_sbu_0, # of connection points: 6
#     Node 22, Type 0, BuildingBlock: IZENUY_clean_sbu_0, # of connection points: 6
#     Node 23, Type 0, BuildingBlock: IZENUY_clean_sbu_0, # of connection points: 6
#     Node 24, Type 0, BuildingBlock: IZENUY_clean_sbu_0, # of connection points: 6
#     Node 25, Type 0, BuildingBlock: IZENUY_clean_sbu_0, # of connection points: 6
#     Node 26, Type 0, BuildingBlock: IZENUY_clean_sbu_0, # of connection points: 6
#     Node 27, Type 0, BuildingBlock: IZENUY_clean_sbu_0, # of connection points: 6
#     Node 28, Type 0, BuildingBlock: IZENUY_clean_sbu_0, # of connection points: 6
#     Node 29, Type 0, BuildingBlock: IZENUY_clean_sbu_0, # of connection points: 6
#     Node 30, Type 0, BuildingBlock: IZENUY_clean_sbu_0, # of connection points: 6
#     Node 31, Type 0, BuildingBlock: IZENUY_clean_sbu_0, # of connection points: 6
#     Node 32, Type 0, BuildingBlock: IZENUY_clean_sbu_0, # of connection points: 6
#     Node 33, Type 0, BuildingBlock: IZENUY_clean_sbu_0, # of connection points: 6
#     Node 34, Type 0, BuildingBlock: IZENUY_clean_sbu_0, # of connection points: 6
#     Node 35, Type 0, BuildingBlock: IZENUY_clean_sbu_0, # of connection points: 6
#     Edge 36, Type (0, 0), BuildingBlock: CIFDUS_clean_linker_0, # of connection points: 2
#     Edge 37, Type (0, 0), BuildingBlock: CIFDUS_clean_linker_0, # of connection points: 2
#     Edge 38, Type (0, 0), BuildingBlock: CIFDUS_clean_linker_0, # of connection points: 2
#     Edge 39, Type (0, 0), BuildingBlock: CIFDUS_clean_linker_0, # of connection points: 2
#     Edge 40, Type (0, 0), BuildingBlock: CIFDUS_clean_linker_0, # of connection points: 2
#     Edge 41, Type (0, 0), BuildingBlock: CIFDUS_clean_linker_0, # of connection points: 2
#     Edge 42, Type (0, 0), BuildingBlock: CIFDUS_clean_linker_0, # of connection points: 2
#     Edge 43, Type (0, 0), BuildingBlock: CIFDUS_clean_linker_0, # of connection points: 2
#     Edge 44, Type (0, 0), BuildingBlock: CIFDUS_clean_linker_0, # of connection points: 2
#     Edge 45, Type (0, 0), BuildingBlock: CIFDUS_clean_linker_0, # of connection points: 2
#     Edge 46, Type (0, 0), BuildingBlock: CIFDUS_clean_linker_0, # of connection points: 2
#     Edge 47, Type (0, 0), BuildingBlock: CIFDUS_clean_linker_0, # of connection points: 2
#     Edge 48, Type (0, 0), BuildingBlock: CIFDUS_clean_linker_0, # of connection points: 2
#     Edge 49, Type (0, 0), BuildingBlock: CIFDUS_clean_linker_0, # of connection points: 2
#     Edge 50, Type (0, 0), BuildingBlock: CIFDUS_clean_linker_0, # of connection points: 2
#     Edge 51, Type (0, 0), BuildingBlock: CIFDUS_clean_linker_0, # of connection points: 2
#     Edge 52, Type (0, 0), BuildingBlock: CIFDUS_clean_linker_0, # of connection points: 2
#     Edge 53, Type (0, 0), BuildingBlock: CIFDUS_clean_linker_0, # of connection points: 2
#     Edge 54, Type (0, 0), BuildingBlock: CIFDUS_clean_linker_0, # of connection points: 2
#     Edge 55, Type (0, 0), BuildingBlock: CIFDUS_clean_linker_0, # of connection points: 2
#     Edge 56, Type (0, 0), BuildingBlock: CIFDUS_clean_linker_0, # of connection points: 2
#     Edge 57, Type (0, 0), BuildingBlock: CIFDUS_clean_linker_0, # of connection points: 2
#     Edge 58, Type (0, 0), BuildingBlock: CIFDUS_clean_linker_0, # of connection points: 2
#     Edge 59, Type (0, 0), BuildingBlock: CIFDUS_clean_linker_0, # of connection points: 2
#     Edge 60, Type (0, 0), BuildingBlock: CIFDUS_clean_linker_0, # of connection points: 2
#     Edge 61, Type (0, 0), BuildingBlock: CIFDUS_clean_linker_0, # of connection points: 2
#     Edge 62, Type (0, 0), BuildingBlock: CIFDUS_clean_linker_0, # of connection points: 2
#     Edge 63, Type (0, 0), BuildingBlock: CIFDUS_clean_linker_0, # of connection points: 2
#     Edge 64, Type (0, 0), BuildingBlock: CIFDUS_clean_linker_0, # of connection points: 2
#     Edge 65, Type (0, 0), BuildingBlock: CIFDUS_clean_linker_0, # of connection points: 2
#     Edge 66, Type (0, 0), BuildingBlock: CIFDUS_clean_linker_0, # of connection points: 2
#     Edge 67, Type (0, 0), BuildingBlock: CIFDUS_clean_linker_0, # of connection points: 2
#     Edge 68, Type (0, 0), BuildingBlock: CIFDUS_clean_linker_0, # of connection points: 2
#     Edge 69, Type (0, 0), BuildingBlock: CIFDUS_clean_linker_0, # of connection points: 2
#     Edge 70, Type (0, 0), BuildingBlock: CIFDUS_clean_linker_0, # of connection points: 2
#     Edge 71, Type (0, 0), BuildingBlock: CIFDUS_clean_linker_0, # of connection points: 2
#     Edge 72, Type (0, 0), BuildingBlock: CIFDUS_clean_linker_0, # of connection points: 2
#     Edge 73, Type (0, 0), BuildingBlock: CIFDUS_clean_linker_0, # of connection points: 2
#     Edge 74, Type (0, 0), BuildingBlock: CIFDUS_clean_linker_0, # of connection points: 2
#     Edge 75, Type (0, 0), BuildingBlock: CIFDUS_clean_linker_0, # of connection points: 2
#     Edge 76, Type (0, 0), BuildingBlock: CIFDUS_clean_linker_0, # of connection points: 2
#     Edge 77, Type (0, 0), BuildingBlock: CIFDUS_clean_linker_0, # of connection points: 2
#     Edge 78, Type (0, 0), BuildingBlock: CIFDUS_clean_linker_0, # of connection points: 2
#     Edge 79, Type (0, 0), BuildingBlock: CIFDUS_clean_linker_0, # of connection points: 2
#     Edge 80, Type (0, 0), BuildingBlock: CIFDUS_clean_linker_0, # of connection points: 2
#     Edge 81, Type (0, 0), BuildingBlock: CIFDUS_clean_linker_0, # of connection points: 2
#     Edge 82, Type (0, 0), BuildingBlock: CIFDUS_clean_linker_0, # of connection points: 2
#     Edge 83, Type (0, 0), BuildingBlock: CIFDUS_clean_linker_0, # of connection points: 2
#     Edge 84, Type (0, 0), BuildingBlock: CIFDUS_clean_linker_0, # of connection points: 2
#     Edge 85, Type (0, 0), BuildingBlock: CIFDUS_clean_linker_0, # of connection points: 2
#     Edge 86, Type (0, 0), BuildingBlock: CIFDUS_clean_linker_0, # of connection points: 2
#     Edge 87, Type (0, 0), BuildingBlock: CIFDUS_clean_linker_0, # of connection points: 2
#     Edge 88, Type (0, 0), BuildingBlock: CIFDUS_clean_linker_0, # of connection points: 2
#     Edge 89, Type (0, 0), BuildingBlock: CIFDUS_clean_linker_0, # of connection points: 2
#     Edge 90, Type (0, 0), BuildingBlock: CIFDUS_clean_linker_0, # of connection points: 2
#     Edge 91, Type (0, 0), BuildingBlock: CIFDUS_clean_linker_0, # of connection points: 2
#     Edge 92, Type (0, 0), BuildingBlock: CIFDUS_clean_linker_0, # of connection points: 2
#     Edge 93, Type (0, 0), BuildingBlock: CIFDUS_clean_linker_0, # of connection points: 2
#     Edge 94, Type (0, 0), BuildingBlock: CIFDUS_clean_linker_0, # of connection points: 2
#     Edge 95, Type (0, 0), BuildingBlock: CIFDUS_clean_linker_0, # of connection points: 2
#     Edge 96, Type (0, 0), BuildingBlock: CIFDUS_clean_linker_0, # of connection points: 2
#     Edge 97, Type (0, 0), BuildingBlock: CIFDUS_clean_linker_0, # of connection points: 2
#     Edge 98, Type (0, 0), BuildingBlock: CIFDUS_clean_linker_0, # of connection points: 2
#     Edge 99, Type (0, 0), BuildingBlock: CIFDUS_clean_linker_0, # of connection points: 2
#     Edge 100, Type (0, 0), BuildingBlock: CIFDUS_clean_linker_0, # of connection points: 2
#     Edge 101, Type (0, 0), BuildingBlock: CIFDUS_clean_linker_0, # of connection points: 2
#     Edge 102, Type (0, 0), BuildingBlock: CIFDUS_clean_linker_0, # of connection points: 2
#     Edge 103, Type (0, 0), BuildingBlock: CIFDUS_clean_linker_0, # of connection points: 2
#     Edge 104, Type (0, 0), BuildingBlock: CIFDUS_clean_linker_0, # of connection points: 2
#     Edge 105, Type (0, 0), BuildingBlock: CIFDUS_clean_linker_0, # of connection points: 2
#     Edge 106, Type (0, 0), BuildingBlock: CIFDUS_clean_linker_0, # of connection points: 2
#     Edge 107, Type (0, 0), BuildingBlock: CIFDUS_clean_linker_0, # of connection points: 2
#     Edge 108, Type (0, 0), BuildingBlock: CIFDUS_clean_linker_0, # of connection points: 2
#     Edge 109, Type (0, 0), BuildingBlock: CIFDUS_clean_linker_0, # of connection points: 2
#     Edge 110, Type (0, 0), BuildingBlock: CIFDUS_clean_linker_0, # of connection points: 2
#     Edge 111, Type (0, 0), BuildingBlock: CIFDUS_clean_linker_0, # of connection points: 2
#     Edge 112, Type (0, 0), BuildingBlock: CIFDUS_clean_linker_0, # of connection points: 2
#     Edge 113, Type (0, 0), BuildingBlock: CIFDUS_clean_linker_0, # of connection points: 2
#     Edge 114, Type (0, 0), BuildingBlock: CIFDUS_clean_linker_0, # of connection points: 2
#     Edge 115, Type (0, 0), BuildingBlock: CIFDUS_clean_linker_0, # of connection points: 2
#     Edge 116, Type (0, 0), BuildingBlock: CIFDUS_clean_linker_0, # of connection points: 2
#     Edge 117, Type (0, 0), BuildingBlock: CIFDUS_clean_linker_0, # of connection points: 2
#     Edge 118, Type (0, 0), BuildingBlock: CIFDUS_clean_linker_0, # of connection points: 2
#     Edge 119, Type (0, 0), BuildingBlock: CIFDUS_clean_linker_0, # of connection points: 2
#     Edge 120, Type (0, 0), BuildingBlock: CIFDUS_clean_linker_0, # of connection points: 2
#     Edge 121, Type (0, 0), BuildingBlock: CIFDUS_clean_linker_0, # of connection points: 2
#     Edge 122, Type (0, 0), BuildingBlock: CIFDUS_clean_linker_0, # of connection points: 2
#     Edge 123, Type (0, 0), BuildingBlock: CIFDUS_clean_linker_0, # of connection points: 2
#     Edge 124, Type (0, 0), BuildingBlock: CIFDUS_clean_linker_0, # of connection points: 2
#     Edge 125, Type (0, 0), BuildingBlock: CIFDUS_clean_linker_0, # of connection points: 2
#     Edge 126, Type (0, 0), BuildingBlock: CIFDUS_clean_linker_0, # of connection points: 2
#     Edge 127, Type (0, 0), BuildingBlock: CIFDUS_clean_linker_0, # of connection points: 2
#     Edge 128, Type (0, 0), BuildingBlock: CIFDUS_clean_linker_0, # of connection points: 2
#     Edge 129, Type (0, 0), BuildingBlock: CIFDUS_clean_linker_0, # of connection points: 2
#     Edge 130, Type (0, 0), BuildingBlock: CIFDUS_clean_linker_0, # of connection points: 2
#     Edge 131, Type (0, 0), BuildingBlock: CIFDUS_clean_linker_0, # of connection points: 2
#     Edge 132, Type (0, 0), BuildingBlock: CIFDUS_clean_linker_0, # of connection points: 2
#     Edge 133, Type (0, 0), BuildingBlock: CIFDUS_clean_linker_0, # of connection points: 2
#     Edge 134, Type (0, 0), BuildingBlock: CIFDUS_clean_linker_0, # of connection points: 2
#     Edge 135, Type (0, 0), BuildingBlock: CIFDUS_clean_linker_0, # of connection points: 2
#     Edge 136, Type (0, 0), BuildingBlock: CIFDUS_clean_linker_0, # of connection points: 2
#     Edge 137, Type (0, 0), BuildingBlock: CIFDUS_clean_linker_0, # of connection points: 2
#     Edge 138, Type (0, 0), BuildingBlock: CIFDUS_clean_linker_0, # of connection points: 2
#     Edge 139, Type (0, 0), BuildingBlock: CIFDUS_clean_linker_0, # of connection points: 2
#     Edge 140, Type (0, 0), BuildingBlock: CIFDUS_clean_linker_0, # of connection points: 2
#     Edge 141, Type (0, 0), BuildingBlock: CIFDUS_clean_linker_0, # of connection points: 2
#     Edge 142, Type (0, 0), BuildingBlock: CIFDUS_clean_linker_0, # of connection points: 2
#     Edge 143, Type (0, 0), BuildingBlock: CIFDUS_clean_linker_0, # of connection points: 2
# Relax obj value: 0.280
# Max RMSD: 0.272
# Mean RMSD: 0.272
data_MOF--net-wne--node1-IZENUY_clean_sbu_0--edge1-CIFDUS_clean_linker_0
_symmetry_space_group_name_H-M    P1
_symmetry_Int_Tables_number       1
_symmetry_cell_setting            triclinic
loop_
_symmetry_equiv_pos_as_xyz
'x, y, z'
_cell_length_a     55.359829
_cell_length_b     55.274035
_cell_length_c     35.321022
_cell_angle_alpha  89.943294
_cell_angle_beta   90.032184
_cell_angle_gamma 119.93626
loop_
_atom_site_label
_atom_site_type_symbol
_atom_site_fract_x
_atom_site_fract_y
_atom_site_fract_z
_atom_type_partial_charge
Fe0 Fe 0.26021 0.2205 0.01966 0.0
Fe1 Fe 0.30081 0.23779 0.08616 0.0
O2 O 0.2692 0.21331 0.06466 0.0
Fe3 Fe 0.2462 0.182 0.0883 0.0
O4 O 0.24855 0.16139 0.05063 0.0
O5 O 0.23987 0.18305 0.00501 0.0
O6 O 0.29015 0.22163 0.9982 0.0
C7 C 0.31477 0.23886 0.00774 0.0
C8 C 0.21031 0.19954 0.05486 0.0
O9 O 0.32006 0.24993 0.04058 0.0
C10 C 0.26207 0.21797 0.14726 0.0
O11 O 0.27866 0.25911 0.02608 0.0
O12 O 0.29056 0.26386 0.08584 0.0
O13 O 0.21376 0.17991 0.06799 0.0
O14 O 0.23007 0.22022 0.0389 0.0
C15 C 0.30106 0.19129 0.10844 0.0
O16 O 0.28704 0.23011 0.13525 0.0
O17 O 0.24234 0.20062 0.12708 0.0
C18 C 0.28507 0.27311 0.05665 0.0
O19 O 0.31292 0.21305 0.08858 0.0
O20 O 0.27466 0.17911 0.11349 0.0
C21 C 0.24048 0.1617 0.01741 0.0
Fe22 Fe 0.82819 0.05046 0.02106 0.0
Fe23 Fe 0.8116 0.07426 0.08781 0.0
O24 O 0.83624 0.06777 0.06522 0.0
Fe25 Fe 0.86882 0.07808 0.08675 0.0
O26 O 0.88721 0.10083 0.04742 0.0
O27 O 0.86493 0.06891 0.00373 0.0
O28 O 0.82489 0.07784 0.99916 0.0
C29 C 0.80795 0.08538 0.00946 0.0
C30 C 0.85247 0.02431 0.05578 0.0
O31 O 0.79783 0.08027 0.04284 0.0
C32 C 0.83439 0.05721 0.14756 0.0
O33 O 0.79 0.02921 0.02964 0.0
O34 O 0.7862 0.03769 0.0891 0.0
O35 O 0.87194 0.04827 0.06652 0.0
O36 O 0.83078 0.0219 0.04097 0.0
C37 C 0.85772 0.12237 0.10732 0.0
O38 O 0.82105 0.06909 0.13627 0.0
O39 O 0.85233 0.05609 0.12694 0.0
C40 C 0.77651 0.02233 0.06059 0.0
O41 O 0.83534 0.11137 0.08885 0.0
O42 O 0.87099 0.10913 0.11169 0.0
C43 C 0.88515 0.09248 0.01377 0.0
Fe44 Fe 0.99857 0.78906 0.02147 0.0
Fe45 Fe 0.97436 0.74781 0.0872 0.0
O46 O 0.98096 0.77928 0.06537 0.0
Fe47 Fe 0.97064 0.80137 0.08766 0.0
O48 O 0.94842 0.79835 0.04836 0.0
O49 O 0.98028 0.80767 0.00458 0.0
O50 O 0.9714 0.75865 0.99875 0.0
C51 C 0.96386 0.73406 0.0087 0.0
C52 C 1.02433 0.83906 0.05732 0.0
O53 O 0.96892 0.72876 0.04191 0.0
C54 C 0.99072 0.78644 0.14801 0.0
O55 O 1.01978 0.77194 0.0298 0.0
O56 O 1.01087 0.7589 0.089 0.0
O57 O 1.00046 0.83445 0.06841 0.0
O58 O 1.02689 0.81995 0.04209 0.0
C59 C 0.92626 0.7457 0.10648 0.0
O60 O 0.97886 0.76147 0.13602 0.0
O61 O 0.99228 0.80595 0.12787 0.0
C62 C 1.0264 0.76484 0.06062 0.0
O63 O 0.93734 0.73461 0.0875 0.0
O64 O 0.93943 0.77212 0.11167 0.0
C65 C 0.95725 0.80549 0.01503 0.0
Fe66 Fe 0.19236 0.23626 0.40753 0.0
Fe67 Fe 0.22912 0.24952 0.47835 0.0
O68 O 0.22241 0.25939 0.43377 0.0
Fe69 Fe 0.24625 0.29242 0.41488 0.0
O70 O 0.22001 0.30249 0.4139 0.0
O71 O 0.18891 0.265 0.38406 0.0
O72 O 0.16932 0.23548 0.44456 0.0
C73 C 0.17024 0.22894 0.4786 0.0
C74 C 0.23182 0.2569 0.35189 0.0
O75 O 0.19168 0.2289 0.49176 0.0
C76 C 0.28247 0.27723 0.44275 0.0
O77 O 0.19074 0.2037 0.42619 0.0
O78 O 0.22977 0.21994 0.45822 0.0
O79 O 0.24016 0.281 0.36532 0.0
O80 O 0.21374 0.23548 0.3692 0.0
C81 C 0.24517 0.3036 0.49295 0.0
O82 O 0.2678 0.26874 0.47277 0.0
O83 O 0.27362 0.28402 0.4143 0.0
C84 C 0.20987 0.20027 0.44091 0.0
O85 O 0.22904 0.27848 0.50141 0.0
O86 O 0.2572 0.31007 0.46103 0.0
C87 C 0.19928 0.29089 0.39224 0.0
Fe88 Fe 0.79789 0.98817 0.4748 0.0
Fe89 Fe 0.75529 0.9617 0.41126 0.0
O90 O 0.78814 0.97096 0.43072 0.0
Fe91 Fe 0.81134 0.96347 0.40554 0.0
O92 O 0.81147 0.94145 0.44349 0.0
O93 O 0.81831 0.97135 0.48945 0.0
O94 O 0.76892 0.95972 0.49837 0.0
C95 C 0.74387 0.95058 0.48964 0.0
C96 C 0.84701 1.0172 0.43722 0.0
O97 O 0.73732 0.95532 0.45721 0.0
C98 C 0.7915 0.98227 0.34874 0.0
O99 O 0.77887 1.00774 0.46801 0.0
O100 O 0.76352 0.99744 0.40971 0.0
O101 O 0.84374 0.99432 0.42404 0.0
O102 O 0.82737 1.01785 0.45395 0.0
C103 C 0.75704 0.91602 0.39021 0.0
O104 O 0.76723 0.96675 0.36183 0.0
O105 O 0.81264 0.98536 0.36651 0.0
C106 C 0.77041 1.01352 0.43765 0.0
O107 O 0.74534 0.92539 0.41125 0.0
O108 O 0.78288 0.93135 0.38219 0.0
C109 C 0.81785 0.94939 0.47739 0.0
Fe110 Fe 0.06222 0.82232 0.47609 0.0
Fe111 Fe 0.08688 0.80425 0.4122 0.0
O112 O 0.07769 0.82816 0.43084 0.0
Fe113 Fe 0.08353 0.85744 0.40362 0.0
O114 O 0.10639 0.88128 0.43913 0.0
O115 O 0.07887 0.86043 0.488 0.0
O116 O 0.09189 0.8232 0.4982 0.0
C117 C 0.10065 0.80684 0.49 0.0
C118 C 0.03074 0.83993 0.43898 0.0
O119 O 0.09469 0.79428 0.45844 0.0
C120 C 0.06407 0.81712 0.34949 0.0
O121 O 0.04289 0.78329 0.47169 0.0
O122 O 0.05139 0.77673 0.41306 0.0
O123 O 0.05273 0.85901 0.42303 0.0
O124 O 0.03141 0.82073 0.45698 0.0
C125 C 0.13138 0.85107 0.38742 0.0
O126 O 0.08036 0.80926 0.36251 0.0
O127 O 0.0607 0.83514 0.36677 0.0
C128 C 0.03615 0.76827 0.44183 0.0
O129 O 0.12295 0.83079 0.40982 0.0
O130 O 0.11537 0.86087 0.37915 0.0
C131 C 0.09944 0.8819 0.47299 0.0
Fe132 Fe 0.80981 0.86057 0.91216 0.0
Fe133 Fe 0.79641 0.81724 0.97481 0.0
O134 O 0.7869 0.82761 0.9327 0.0
Fe135 Fe 0.75489 0.80492 0.91044 0.0
O136 O 0.74355 0.83017 0.91429 0.0
O137 O 0.78132 0.86456 0.88952 0.0
O138 O 0.80738 0.87866 0.95302 0.0
C139 C 0.81408 0.87541 0.98596 0.0
C140 C 0.79373 0.82756 0.84977 0.0
O141 O 0.81522 0.85354 0.99481 0.0
C142 C 0.7717 0.76785 0.92964 0.0
O143 O 0.84249 0.86239 0.93046 0.0
O144 O 0.82703 0.82024 0.95274 0.0
O145 O 0.76868 0.81578 0.86164 0.0
O146 O 0.81365 0.84424 0.87044 0.0
C147 C 0.7415 0.79752 0.98965 0.0
O148 O 0.7791 0.77929 0.96212 0.0
O149 O 0.76428 0.77865 0.90442 0.0
C150 C 0.84664 0.84248 0.93972 0.0
O151 O 0.76634 0.81322 0.99958 0.0
O152 O 0.73563 0.78946 0.9554 0.0
C153 C 0.75514 0.8526 0.89591 0.0
Fe154 Fe 0.18864 0.96269 0.9125 0.0
Fe155 Fe 0.22977 0.99015 0.97818 0.0
O156 O 0.22081 0.97184 0.93473 0.0
Fe157 Fe 0.24429 0.96312 0.91331 0.0
O158 O 0.21902 0.92648 0.91475 0.0
O159 O 0.18462 0.93016 0.89018 0.0
O160 O 0.16901 0.94185 0.95244 0.0
C161 C 0.17149 0.95109 0.98561 0.0
C162 C 0.2231 0.97986 0.85174 0.0
O163 O 0.19318 0.97355 0.99573 0.0
C164 C 0.28129 1.01538 0.93757 0.0
O165 O 0.18757 0.99408 0.92985 0.0
O166 O 0.22851 1.019 0.95698 0.0
O167 O 0.23516 0.9671 0.86429 0.0
O168 O 0.20602 0.98297 0.87152 0.0
C169 C 0.24784 0.95361 0.99197 0.0
O170 O 0.26802 1.0099 0.96874 0.0
O171 O 0.27098 0.99915 0.90996 0.0
C172 C 0.20785 1.01755 0.94021 0.0
O173 O 0.23181 0.96245 1.00173 0.0
O174 O 0.25785 0.95782 0.95866 0.0
C175 C 0.19663 0.91593 0.89634 0.0
Fe176 Fe 0.07813 0.2965 0.91995 0.0
Fe177 Fe 0.08195 0.24322 0.90783 0.0
O178 O 0.07247 0.26361 0.9361 0.0
Fe179 Fe 0.05635 0.2511 0.98085 0.0
O180 O 0.07041 0.28579 1.00175 0.0
O181 O 0.10078 0.31409 0.96021 0.0
O182 O 0.1091 0.30532 0.89227 0.0
C183 C 0.12588 0.2962 0.89153 0.0
C184 C 1.02488 0.27181 0.9502 0.0
O185 O 0.11843 0.27174 0.90343 0.0
C186 C 0.0319 0.20215 0.93803 0.0
O187 O 0.05604 0.28087 0.87895 0.0
O188 O 0.07248 0.25319 0.86316 0.0
O189 O 1.02457 0.25058 0.96418 0.0
O190 O 0.04774 0.29376 0.94403 0.0
C191 C 0.09807 0.23777 0.98308 0.0
O192 O 0.04614 0.21323 0.90859 0.0
O193 O 0.03955 0.21416 0.96948 0.0
C194 C 0.05801 0.26458 0.85575 0.0
O195 O 0.09292 0.22992 0.94868 0.0
O196 O 0.08703 0.25058 0.99871 0.0
C197 C 0.09273 0.30808 0.99415 0.0
Fe198 Fe 0.86474 0.79879 0.59494 0.0
Fe199 Fe 0.8266 0.78673 0.52616 0.0
O200 O 0.83375 0.77623 0.57001 0.0
Fe201 Fe 0.80962 0.7436 0.58972 0.0
O202 O 0.8351 0.73239 0.59037 0.0
O203 O 0.86719 0.76978 0.61909 0.0
O204 O 0.88599 0.79736 0.55697 0.0
C205 C 0.88479 0.80418 0.52313 0.0
C206 C 0.8261 0.78058 0.6517 0.0
O207 O 0.86393 0.80593 0.51121 0.0
C208 C 0.7742 0.76083 0.56396 0.0
O209 O 0.86793 0.83189 0.5756 0.0
O210 O 0.82782 0.8169 0.54732 0.0
O211 O 0.8168 0.756 0.63911 0.0
O212 O 0.84471 0.80135 0.63379 0.0
C213 C 0.80812 0.73217 0.51062 0.0
O214 O 0.78817 0.7691 0.53339 0.0
O215 O 0.7829 0.75279 0.5912 0.0
C216 C 0.84901 0.83633 0.56265 0.0
O217 O 0.82451 0.75719 0.50205 0.0
O218 O 0.79764 0.72558 0.5436 0.0
C219 C 0.85607 0.74374 0.61167 0.0
Fe220 Fe 0.2479 0.07601 0.59646 0.0
Fe221 Fe 0.25926 0.04629 0.53123 0.0
O222 O 0.27035 0.06661 0.57299 0.0
Fe223 Fe 0.30358 0.07707 0.59247 0.0
O224 O 0.31383 0.11347 0.58856 0.0
O225 O 0.27701 0.10883 0.61788 0.0
O226 O 0.2483 0.09643 0.55631 0.0
C227 C 0.24168 0.08704 0.52302 0.0
C228 C 0.26777 0.05915 0.65515 0.0
O229 O 0.24037 0.06413 0.51313 0.0
C230 C 0.2853 0.02234 0.57473 0.0
O231 O 0.21457 0.04499 0.58005 0.0
O232 O 0.22923 1.01873 0.5543 0.0
O233 O 0.292 0.07461 0.64184 0.0
O234 O 0.24651 0.05561 0.63722 0.0
C235 C 0.31363 0.08197 0.51322 0.0
O236 O 0.27643 0.02537 0.54277 0.0
O237 O 0.29529 0.04178 0.5984 0.0
C238 C 0.21014 0.02111 0.56945 0.0
O239 O 0.28845 0.07187 0.50465 0.0
O240 O 0.32092 0.08053 0.54675 0.0
C241 C 0.30285 0.12372 0.60943 0.0
Fe242 Fe 0.99809 0.22033 0.52436 0.0
Fe243 Fe 0.97326 0.23657 0.59013 0.0
O244 O 0.98046 0.21221 0.56819 0.0
Fe245 Fe 0.97065 0.17992 0.5904 0.0
O246 O 0.94811 0.16083 0.55129 0.0
O247 O 0.97989 0.18355 0.50735 0.0
O248 O 0.9708 0.22337 0.50177 0.0
C249 C 0.96277 0.24001 0.51169 0.0
C250 C 1.02415 0.19596 0.55861 0.0
O251 O 0.96755 0.25024 0.54495 0.0
C252 C 0.99132 0.21543 0.6503 0.0
O253 O 1.01906 0.25853 0.53301 0.0
O254 O 1.00956 0.26232 0.59206 0.0
O255 O 1.00037 0.17674 0.57015 0.0
O256 O 1.02661 0.21796 0.54474 0.0
C257 C 0.92573 0.19034 0.60976 0.0
O258 O 0.97807 0.22734 0.63885 0.0
O259 O 0.99284 0.19743 0.63016 0.0
C260 C 1.02548 0.27187 0.56407 0.0
O261 O 0.93636 0.21227 0.59029 0.0
O262 O 0.93945 0.17764 0.61524 0.0
C263 C 0.95672 0.16287 0.51772 0.0
Fe264 Fe 0.92895 0.55436 0.35981 0.0
Fe265 Fe 0.97245 0.57209 0.42296 0.0
O266 O 0.93943 0.54807 0.40428 0.0
Fe267 Fe 0.91661 0.51816 0.43083 0.0
O268 O 0.9163 0.49529 0.39432 0.0
O269 O 0.90794 0.51633 0.34717 0.0
O270 O 0.95778 0.55453 0.33609 0.0
C271 C 0.98293 0.57087 0.34416 0.0
C272 C 0.88019 0.53515 0.39815 0.0
O273 O 0.98983 0.58251 0.3764 0.0
C274 C 0.93666 0.55769 0.48597 0.0
O275 O 0.94804 0.59327 0.365 0.0
O276 O 0.96405 0.5994 0.42309 0.0
O277 O 0.88384 0.51599 0.41228 0.0
O278 O 0.89962 0.55508 0.38058 0.0
C279 C 0.97109 0.52529 0.44658 0.0
O280 O 0.96094 0.5665 0.47279 0.0
O281 O 0.91555 0.53955 0.46843 0.0
C282 C 0.95674 0.60804 0.39499 0.0
O283 O 0.98277 0.54595 0.42474 0.0
O284 O 0.94528 0.51506 0.45463 0.0
C285 C 0.90798 0.49493 0.36096 0.0
Fe286 Fe 0.49549 0.38475 0.36038 0.0
Fe287 Fe 0.47936 0.41127 0.42409 0.0
O288 O 0.50301 0.40208 0.40444 0.0
Fe289 Fe 0.53373 0.40952 0.42951 0.0
O290 O 0.55582 0.43137 0.39154 0.0
O291 O 0.53267 0.40146 0.34568 0.0
O292 O 0.49479 0.41313 0.33667 0.0
C293 C 0.47869 0.42211 0.34533 0.0
C294 C 0.51555 0.35565 0.3983 0.0
O295 O 0.46779 0.41777 0.37803 0.0
C296 C 0.49532 0.39066 0.4865 0.0
O297 O 0.45698 0.36523 0.36715 0.0
O298 O 0.45196 0.3755 0.42545 0.0
O299 O 0.53522 0.37855 0.41121 0.0
O300 O 0.49537 0.35507 0.38134 0.0
C301 C 0.52679 0.45704 0.44517 0.0
O302 O 0.48622 0.40599 0.47358 0.0
O303 O 0.51337 0.38774 0.46851 0.0
C304 C 0.44277 0.35945 0.39749 0.0
O305 O 0.5055 0.44766 0.42453 0.0
O306 O 0.53744 0.44171 0.45277 0.0
C307 C 0.5543 0.42322 0.35778 0.0
Fe308 Fe 0.66353 0.12047 0.35746 0.0
Fe309 Fe 0.63861 0.07786 0.4218 0.0
O310 O 0.64731 0.11078 0.40245 0.0
Fe311 Fe 0.64063 0.13415 0.42874 0.0
O312 O 0.61843 0.13523 0.39188 0.0
O313 O 0.64664 0.14108 0.34416 0.0
O314 O 0.63453 0.0913 0.33482 0.0
C315 C 0.62598 0.06626 0.34341 0.0
C316 C 0.69402 0.1694 0.39596 0.0
O317 O 0.63126 0.05986 0.37566 0.0
C318 C 0.65991 0.11388 0.4845 0.0
O319 O 0.68316 0.10139 0.36278 0.0
O320 O 0.67441 0.08648 0.42142 0.0
O321 O 0.67173 0.1665 0.41069 0.0
O322 O 0.69379 0.15014 0.37695 0.0
C323 C 0.59327 0.07959 0.4451 0.0
O324 O 0.64463 0.08959 0.47137 0.0
O325 O 0.66272 0.13494 0.46689 0.0
C326 C 0.68977 0.09325 0.39275 0.0
O327 O 0.60225 0.06742 0.42418 0.0
O328 O 0.60853 0.10567 0.45211 0.0
C329 C 0.62558 0.14159 0.35776 0.0
Fe330 Fe 0.89714 0.58167 0.81271 0.0
Fe331 Fe 0.91144 0.62277 0.74723 0.0
O332 O 0.88793 0.59098 0.76948 0.0
Fe333 Fe 0.85537 0.56814 0.74817 0.0
O334 O 0.83664 0.57092 0.78816 0.0
O335 O 0.86067 0.56271 0.8311 0.0
O336 O 0.90018 0.61183 0.83599 0.0
C337 C 0.91621 0.63657 0.82577 0.0
C338 C 0.87298 0.53132 0.77791 0.0
O339 O 0.92564 0.64213 0.79213 0.0
C340 C 0.88957 0.58378 0.68703 0.0
O341 O 0.93524 0.59936 0.8025 0.0
O342 O 0.93775 0.61298 0.74374 0.0
O343 O 0.85328 0.53547 0.76746 0.0
O344 O 0.89488 0.55095 0.79175 0.0
C345 C 0.86428 0.62309 0.72994 0.0
O346 O 0.90162 0.60885 0.69869 0.0
O347 O 0.87226 0.56398 0.70737 0.0
C348 C 0.94818 0.60696 0.77109 0.0
O349 O 0.88655 0.63469 0.74858 0.0
O350 O 0.85195 0.59673 0.72438 0.0
C351 C 0.83937 0.56445 0.82148 0.0
Fe352 Fe 0.47988 0.29503 0.74821 0.0
Fe353 Fe 0.46709 0.32589 0.81003 0.0
O354 O 0.45743 0.30595 0.76797 0.0
Fe355 Fe 0.42582 0.29734 0.74506 0.0
O356 O 0.41369 0.26055 0.74869 0.0
O357 O 0.45116 0.26311 0.72443 0.0
O358 O 0.4758 0.27389 0.78917 0.0
C359 C 0.48199 0.2835 0.82232 0.0
C360 C 0.46547 0.31335 0.68563 0.0
O361 O 0.48455 0.30721 0.83077 0.0
C362 C 0.44392 0.35168 0.76405 0.0
O363 O 0.51285 0.32516 0.76764 0.0
O364 O 0.49832 0.35293 0.78836 0.0
O365 O 0.44024 0.30037 0.69681 0.0
O366 O 0.48497 0.31575 0.7066 0.0
C367 C 0.41182 0.29129 0.82375 0.0
O368 O 0.45102 0.34759 0.79672 0.0
O369 O 0.43587 0.33315 0.73919 0.0
C370 C 0.51774 0.34957 0.77654 0.0
O371 O 0.43652 0.30052 0.83433 0.0
O372 O 0.40624 0.2936 0.78944 0.0
C373 C 0.42483 0.24942 0.73004 0.0
Fe374 Fe 0.7253 0.15436 0.81235 0.0
Fe375 Fe 0.75057 0.13838 0.74683 0.0
O376 O 0.74308 0.16268 0.76847 0.0
Fe377 Fe 0.75279 0.19494 0.74604 0.0
O378 O 0.77446 0.21444 0.78564 0.0
O379 O 0.7429 0.19103 0.82948 0.0
O380 O 0.75273 0.15163 0.8352 0.0
C381 C 0.76055 0.13479 0.82548 0.0
C382 C 0.69856 0.17758 0.77616 0.0
O383 O 0.75587 0.12464 0.79219 0.0
C384 C 0.73385 0.15996 0.68557 0.0
O385 O 0.70465 0.11611 0.80348 0.0
O386 O 0.71429 0.11263 0.74439 0.0
O387 O 0.72212 0.19715 0.76449 0.0
O388 O 0.69668 0.15641 0.79204 0.0
C389 C 0.79829 0.18492 0.72821 0.0
O390 O 0.74631 0.14749 0.69785 0.0
O391 O 0.73167 0.17761 0.70549 0.0
C392 C 0.69835 0.10283 0.77233 0.0
O393 O 0.78744 0.16274 0.7472 0.0
O394 O 0.7847 0.19776 0.7227 0.0
C395 C 0.76565 0.21222 0.81909 0.0
Fe396 Fe 0.42124 0.13555 0.2487 0.0
Fe397 Fe 0.47512 0.19238 0.24978 0.0
O398 O 0.45269 0.15971 0.27107 0.0
Fe399 Fe 0.46212 0.1511 0.31464 0.0
O400 O 0.43178 0.14792 0.33715 0.0
O401 O 0.40181 0.12144 0.29363 0.0
O402 O 0.40849 0.15987 0.24883 0.0
C403 C 0.41996 0.18221 0.23018 0.0
C404 C 0.43796 0.09977 0.27408 0.0
O405 O 0.44637 0.19507 0.22534 0.0
C406 C 0.51251 0.1758 0.28063 0.0
O407 O 0.43546 0.14533 0.20033 0.0
O408 O 0.48001 0.17571 0.20934 0.0
O409 O 0.44496 0.11296 0.30526 0.0
O410 O 0.43179 0.10967 0.24622 0.0
C411 C 0.47807 0.20846 0.32281 0.0
O412 O 0.50793 0.1952 0.26978 0.0
O413 O 0.49303 0.15364 0.29413 0.0
C414 C 0.46057 0.15806 0.1889 0.0
O415 O 0.47142 0.21083 0.28946 0.0
O416 O 0.48066 0.18768 0.33254 0.0
C417 C 0.40718 0.13132 0.32706 0.0
Fe418 Fe 0.9128 0.29782 0.24805 0.0
Fe419 Fe 0.85721 0.2972 0.24433 0.0
O420 O 0.88848 0.3058 0.26843 0.0
Fe421 Fe 0.8957 0.32287 0.31282 0.0
O422 O 0.8967 0.29439 0.33569 0.0
O423 O 0.92466 0.29137 0.29412 0.0
O424 O 0.88782 0.26102 0.24685 0.0
C425 C 0.86615 0.25094 0.22688 0.0
C426 C 0.94864 0.34933 0.27578 0.0
O427 O 0.85407 0.26519 0.22094 0.0
C428 C 0.87516 0.35148 0.27498 0.0
O429 O 0.90538 0.30307 0.19865 0.0
O430 O 0.87588 0.31858 0.20484 0.0
O431 O 0.93438 0.34278 0.30621 0.0
O432 O 0.93925 0.33401 0.24717 0.0
C433 C 0.83698 0.28389 0.31577 0.0
O434 O 0.85549 0.32828 0.26243 0.0
O435 O 0.8954 0.35247 0.29237 0.0
C436 C 0.89343 0.31583 0.18571 0.0
O437 O 0.83636 0.27519 0.28268 0.0
O438 O 0.85829 0.30611 0.32752 0.0
C439 C 0.91344 0.28623 0.32676 0.0
Fe440 Fe 0.72531 0.58359 0.30867 0.0
Fe441 Fe 0.75533 0.62545 0.24468 0.0
O442 O 0.74523 0.59317 0.26684 0.0
Fe443 Fe 0.75451 0.56978 0.24585 0.0
O444 O 0.77604 0.57286 0.2859 0.0
O445 O 0.74361 0.56552 0.32861 0.0
O446 O 0.75095 0.61366 0.33352 0.0
C447 C 0.76118 0.63864 0.32351 0.0
C448 C 0.70048 0.53288 0.2753 0.0
O449 O 0.75992 0.64497 0.28925 0.0
C450 C 0.73514 0.58589 0.1862 0.0
O451 O 0.70437 0.60049 0.29554 0.0
O452 O 0.7202 0.61746 0.23898 0.0
O453 O 0.72452 0.53722 0.266 0.0
O454 O 0.69778 0.55278 0.28673 0.0
C455 C 0.80144 0.62397 0.2281 0.0
O456 O 0.75138 0.61102 0.19627 0.0
O457 O 0.73261 0.56573 0.20588 0.0
C458 C 0.70125 0.6089 0.26323 0.0
O459 O 0.79153 0.63548 0.2484 0.0
O460 O 0.78643 0.59788 0.22116 0.0
C461 C 0.76684 0.56723 0.31941 0.0
Fe462 Fe 0.4967 0.12101 0.86169 0.0
Fe463 Fe 0.47619 0.07761 0.92517 0.0
O464 O 0.5012 0.11054 0.90723 0.0
Fe465 Fe 0.53013 0.13308 0.93534 0.0
O466 O 0.55421 0.13372 0.90057 0.0
O467 O 0.53499 0.14214 0.85138 0.0
O468 O 0.49746 0.09196 0.83979 0.0
C469 C 0.48031 0.06689 0.8475 0.0
C470 C 0.51417 0.16969 0.90006 0.0
O471 O 0.46703 0.06047 0.87854 0.0
C472 C 0.48904 0.11285 0.9883 0.0
O473 O 0.45769 0.10191 0.86416 0.0
O474 O 0.44957 0.08696 0.92284 0.0
O475 O 0.53272 0.16603 0.9163 0.0
O476 O 0.49531 0.15047 0.8808 0.0
C477 C 0.52187 0.07799 0.95166 0.0
O478 O 0.48035 0.08865 0.97498 0.0
O479 O 0.50771 0.134 0.97146 0.0
C480 C 0.44197 0.09388 0.89331 0.0
O481 O 0.50161 0.06654 0.92918 0.0
O482 O 0.53233 0.10391 0.95971 0.0
C483 C 0.5559 0.14239 0.8671 0.0
Fe484 Fe 0.9152 0.4108 0.92986 0.0
Fe485 Fe 0.92709 0.38046 0.86619 0.0
O486 O 0.93795 0.40142 0.90722 0.0
Fe487 Fe 0.97119 0.41252 0.92691 0.0
O488 O 0.98079 0.44862 0.92141 0.0
O489 O 0.94395 0.44391 0.95068 0.0
O490 O 0.91536 0.43056 0.88914 0.0
C491 C 0.9086 0.42048 0.85619 0.0
C492 C 0.93544 0.39513 0.98938 0.0
O493 O 0.90781 0.39766 0.84709 0.0
C494 C 0.95382 0.35772 0.91089 0.0
O495 O 0.88219 0.3797 0.91343 0.0
O496 O 0.89727 0.35314 0.89017 0.0
O497 O 0.95956 0.41086 0.97599 0.0
O498 O 0.91399 0.39092 0.97125 0.0
C499 C 0.98138 0.41671 0.84803 0.0
O500 O 0.94472 0.36014 0.87876 0.0
O501 O 0.9634 0.37744 0.93417 0.0
C502 C 0.8778 0.35574 0.90361 0.0
O503 O 0.95615 0.40592 0.83916 0.0
O504 O 0.98862 0.41542 0.88159 0.0
C505 C 0.9696 0.45898 0.94163 0.0
Fe506 Fe 0.66769 0.55486 0.86494 0.0
Fe507 Fe 0.63808 0.56756 0.9284 0.0
O508 O 0.64823 0.5451 0.90724 0.0
Fe509 Fe 0.63956 0.51302 0.92969 0.0
O510 O 0.61836 0.4932 0.89005 0.0
O511 O 0.65017 0.5181 0.84661 0.0
O512 O 0.64125 0.55801 0.83985 0.0
C513 C 0.63125 0.57308 0.84935 0.0
C514 C 0.69384 0.53087 0.90061 0.0
O515 O 0.63325 0.5816 0.8832 0.0
C516 C 0.65818 0.54937 0.98844 0.0
O517 O 0.68798 0.5931 0.8763 0.0
O518 O 0.67328 0.59488 0.93334 0.0
O519 O 0.67013 0.51104 0.91082 0.0
O520 O 0.69588 0.55276 0.88709 0.0
C521 C 0.59212 0.51994 0.94588 0.0
O522 O 0.64205 0.55809 0.97738 0.0
O523 O 0.66114 0.53178 0.96946 0.0
C524 C 0.69154 0.60531 0.90815 0.0
O525 O 0.60192 0.54125 0.9253 0.0
O526 O 0.60726 0.50905 0.9534 0.0
C527 C 0.62765 0.4961 0.85665 0.0
Fe528 Fe 0.59547 0.89045 0.68792 0.0
Fe529 Fe 0.63774 0.90762 0.75221 0.0
O530 O 0.6049 0.88382 0.73286 0.0
Fe531 Fe 0.58139 0.85384 0.75902 0.0
O532 O 0.5811 0.83071 0.7226 0.0
O533 O 0.57494 0.85291 0.67476 0.0
O534 O 0.62446 0.89022 0.66563 0.0
C535 C 0.6495 0.9062 0.67432 0.0
C536 C 0.5461 0.87151 0.72439 0.0
O537 O 0.65595 0.91819 0.70629 0.0
C538 C 0.60135 0.89345 0.81436 0.0
O539 O 0.6146 0.92914 0.6932 0.0
O540 O 0.62963 0.93518 0.75177 0.0
O541 O 0.54918 0.85221 0.7393 0.0
O542 O 0.56593 0.89133 0.70729 0.0
C543 C 0.63554 0.86057 0.77629 0.0
O544 O 0.62562 0.90187 0.80155 0.0
O545 O 0.58019 0.87539 0.79666 0.0
C546 C 0.6226 0.94373 0.72326 0.0
O547 O 0.64751 0.88113 0.75435 0.0
O548 O 0.60962 0.85036 0.7837 0.0
C549 C 0.57489 0.83152 0.6884 0.0
Fe550 Fe 0.1616 0.71893 0.68862 0.0
Fe551 Fe 0.14184 0.74235 0.75236 0.0
O552 O 0.16659 0.73424 0.73394 0.0
Fe553 Fe 0.19596 0.74095 0.7614 0.0
O554 O 0.21941 0.76467 0.72614 0.0
O555 O 0.19973 0.73668 0.67737 0.0
O556 O 0.16165 0.74821 0.66646 0.0
C557 C 0.14506 0.75671 0.67463 0.0
C558 C 0.1806 0.68878 0.72612 0.0
O559 O 0.13224 0.75041 0.70601 0.0
C560 C 0.15521 0.71972 0.81499 0.0
O561 O 0.12272 0.69864 0.6921 0.0
O562 O 0.11502 0.7065 0.7505 0.0
O563 O 0.19907 0.71121 0.7417 0.0
O564 O 0.16098 0.68845 0.70792 0.0
C565 C 0.18774 0.78741 0.77848 0.0
O566 O 0.14652 0.73535 0.80195 0.0
O567 O 0.17392 0.71734 0.79793 0.0
C568 C 0.10737 0.69138 0.72156 0.0
O569 O 0.16749 0.7788 0.75602 0.0
O570 O 0.19807 0.77186 0.78632 0.0
C571 C 0.22043 0.75803 0.69223 0.0
Fe572 Fe 0.33366 0.45117 0.69135 0.0
Fe573 Fe 0.31071 0.40695 0.75366 0.0
O574 O 0.31753 0.43999 0.73635 0.0
Fe575 Fe 0.30911 0.46173 0.76355 0.0
O576 O 0.29831 0.4745 0.72193 0.0
O577 O 0.30349 0.45244 0.67291 0.0
O578 O 0.31853 0.41601 0.67198 0.0
C579 C 0.29554 0.39462 0.67996 0.0
C580 C 0.35981 0.50105 0.73202 0.0
O581 O 0.28764 0.38921 0.71395 0.0
C582 C 0.33193 0.43983 0.81664 0.0
O583 O 0.36491 0.45085 0.70869 0.0
O584 O 0.34065 0.40813 0.73012 0.0
O585 O 0.34536 0.49114 0.76167 0.0
O586 O 0.35158 0.48836 0.70111 0.0
C587 C 0.26412 0.40957 0.78166 0.0
O588 O 0.33285 0.42255 0.79424 0.0
O589 O 0.31862 0.45235 0.80866 0.0
C590 C 0.36391 0.42958 0.72374 0.0
O591 O 0.28024 0.3997 0.78111 0.0
O592 O 0.27222 0.43405 0.76921 0.0
C593 C 0.29285 0.46587 0.68785 0.0
Fe594 Fe 0.56435 0.91527 0.14722 0.0
Fe595 Fe 0.57998 0.95643 0.08157 0.0
O596 O 0.55611 0.92433 0.10294 0.0
Fe597 Fe 0.52439 0.90122 0.07994 0.0
O598 O 0.504 0.90229 0.11904 0.0
O599 O 0.52759 0.89517 0.16369 0.0
O600 O 0.56564 0.94502 0.16952 0.0
C601 C 0.58186 0.96984 0.15977 0.0
C602 C 0.54346 0.8657 0.11013 0.0
O603 O 0.59286 0.97545 0.12701 0.0
C604 C 0.55947 0.91854 0.01974 0.0
O605 O 0.60272 0.93393 0.13913 0.0
O606 O 0.60648 0.94674 0.07978 0.0
O607 O 0.5234 0.86876 0.09799 0.0
O608 O 0.5637 0.88512 0.12727 0.0
C609 C 0.53259 0.9562 0.06299 0.0
O610 O 0.57152 0.94332 0.03241 0.0
O611 O 0.54244 0.89839 0.03965 0.0
C612 C 0.61635 0.94112 0.10823 0.0
O613 O 0.5549 0.96803 0.08157 0.0
O614 O 0.52055 0.92987 0.05697 0.0
C615 C 0.50606 0.89585 0.15259 0.0
Fe616 Fe 0.13229 0.65751 0.14549 0.0
Fe617 Fe 0.09074 0.63225 0.08039 0.0
O618 O 0.12278 0.64008 0.1014 0.0
Fe619 Fe 0.14549 0.63092 0.07823 0.0
O620 O 0.14413 0.60922 0.11738 0.0
O621 O 0.15212 0.64041 0.16168 0.0
O622 O 0.10258 0.62944 0.16832 0.0
C623 C 0.07775 0.621 0.15885 0.0
C624 C 0.18144 0.68519 0.10751 0.0
O625 O 0.07198 0.62621 0.12604 0.0
C626 C 0.12845 0.64943 0.01837 0.0
O627 O 0.11395 0.67766 0.13772 0.0
O628 O 0.10054 0.6685 0.07865 0.0
O629 O 0.17804 0.6618 0.09618 0.0
O630 O 0.16241 0.68661 0.12489 0.0
C631 C 0.09052 0.58504 0.06098 0.0
O632 O 0.10372 0.63698 0.03115 0.0
O633 O 0.14853 0.65203 0.03801 0.0
C634 C 0.10648 0.68407 0.10702 0.0
O635 O 0.07899 0.59551 0.08028 0.0
O636 O 0.11677 0.59896 0.0551 0.0
C637 C 0.15096 0.61791 0.15081 0.0
Fe638 Fe 0.41901 0.52467 0.07995 0.0
Fe639 Fe 0.39125 0.48403 0.14599 0.0
O640 O 0.40946 0.49251 0.10251 0.0
Fe641 Fe 0.41764 0.46856 0.08136 0.0
O642 O 0.45436 0.49336 0.08248 0.0
O643 O 0.45122 0.52789 0.0572 0.0
O644 O 0.44022 0.54428 0.11972 0.0
C645 C 0.43105 0.54194 0.15295 0.0
C646 C 0.40084 0.48963 0.01968 0.0
O647 O 0.40823 0.5207 0.16299 0.0
C648 C 0.36524 0.43252 0.10599 0.0
O649 O 0.38798 0.52647 0.09754 0.0
O650 O 0.3626 0.48558 0.12479 0.0
O651 O 0.41367 0.4776 0.03219 0.0
O652 O 0.39826 0.50707 0.03944 0.0
C653 C 0.42745 0.46563 0.15997 0.0
O654 O 0.37114 0.44577 0.13715 0.0
O655 O 0.38152 0.44236 0.07837 0.0
C656 C 0.36437 0.50648 0.10821 0.0
O657 O 0.41877 0.48184 0.16945 0.0
O658 O 0.42283 0.45509 0.12695 0.0
C659 C 0.46509 0.51544 0.06335 0.0
Fe660 Fe 0.13011 0.48352 0.65037 0.0
Fe661 Fe 0.08832 0.46698 0.58559 0.0
O662 O 0.12101 0.4906 0.60549 0.0
Fe663 Fe 0.14462 0.52086 0.57994 0.0
O664 O 0.14459 0.54353 0.61681 0.0
O665 O 0.15038 0.52089 0.6644 0.0
O666 O 0.10081 0.48333 0.67241 0.0
C667 C 0.0759 0.46708 0.6634 0.0
C668 C 0.17981 0.50288 0.61442 0.0
O669 O 0.06983 0.45556 0.63115 0.0
C670 C 0.12495 0.4818 0.52388 0.0
O671 O 0.11118 0.44493 0.64414 0.0
O672 O 0.09667 0.43956 0.58532 0.0
O673 O 0.17679 0.52229 0.59969 0.0
O674 O 0.15991 0.48297 0.6313 0.0
C675 C 0.0905 0.51439 0.56299 0.0
O676 O 0.10066 0.47351 0.53644 0.0
O677 O 0.14606 0.49973 0.54181 0.0
C678 C 0.10347 0.43069 0.61374 0.0
O679 O 0.07838 0.49338 0.5842 0.0
O680 O 0.11644 0.5246 0.5555 0.0
C681 C 0.15032 0.54231 0.65111 0.0
Fe682 Fe 0.52707 0.63214 0.58036 0.0
Fe683 Fe 0.56337 0.65558 0.65121 0.0
O684 O 0.55766 0.64019 0.6059 0.0
Fe685 Fe 0.58269 0.63332 0.5855 0.0
O686 O 0.55796 0.59654 0.58238 0.0
O687 O 0.52593 0.60216 0.55393 0.0
O688 O 0.50575 0.60742 0.61635 0.0
C689 C 0.50589 0.61334 0.65091 0.0
C690 C 0.56664 0.65576 0.52553 0.0
O691 O 0.52562 0.63601 0.66464 0.0
C692 C 0.6166 0.68474 0.61549 0.0
O693 O 0.52263 0.6606 0.60188 0.0
O694 O 0.56181 0.68509 0.63267 0.0
O695 O 0.57601 0.64015 0.53648 0.0
O696 O 0.54749 0.65677 0.54351 0.0
C697 C 0.58305 0.62013 0.66366 0.0
O698 O 0.60197 0.67734 0.64561 0.0
O699 O 0.60859 0.66949 0.58671 0.0
C700 C 0.54111 0.68362 0.61612 0.0
O701 O 0.56568 0.6274 0.67274 0.0
O702 O 0.59432 0.6259 0.63109 0.0
C703 C 0.53709 0.58722 0.56094 0.0
Fe704 Fe 0.41469 0.91058 0.57495 0.0
Fe705 Fe 0.39078 0.92014 0.64806 0.0
O706 O 0.40622 0.93185 0.60281 0.0
Fe707 Fe 0.41199 0.96458 0.58601 0.0
O708 O 0.44284 0.97282 0.55861 0.0
O709 O 0.45134 0.9385 0.56905 0.0
O710 O 0.4261 0.89789 0.61623 0.0
C711 C 0.43254 0.90721 0.64996 0.0
C712 C 0.39127 0.93217 0.5224 0.0
O713 O 0.42194 0.92049 0.66535 0.0
C714 C 0.35877 0.93984 0.61655 0.0
O715 O 0.37836 0.88119 0.57712 0.0
O716 O 0.37444 0.88296 0.63823 0.0
O717 O 0.38985 0.94892 0.54525 0.0
O718 O 0.40496 0.92003 0.53017 0.0
C719 C 0.42727 0.97691 0.65972 0.0
O720 O 0.35869 0.91895 0.63146 0.0
O721 O 0.38154 0.96191 0.61003 0.0
C722 C 0.3651 0.8705 0.60739 0.0
O723 O 0.40463 0.95512 0.66772 0.0
O724 O 0.43495 0.98253 0.62571 0.0
C725 C 0.45924 0.96323 0.55783 0.0
Fe726 Fe 0.20176 0.46867 0.26054 0.0
Fe727 Fe 0.16261 0.45602 0.19319 0.0
O728 O 0.16992 0.44645 0.23759 0.0
Fe729 Fe 0.14518 0.41488 0.259 0.0
O730 O 0.16923 0.40195 0.25985 0.0
O731 O 0.20406 0.43958 0.28462 0.0
O732 O 0.22142 0.46583 0.22191 0.0
C733 C 0.22108 0.47447 0.18905 0.0
C734 C 0.16653 0.45325 0.32031 0.0
O735 O 0.19996 0.4759 0.17767 0.0
C736 C 0.10999 0.43115 0.23108 0.0
O737 O 0.20452 0.50161 0.24109 0.0
O738 O 0.16393 0.48651 0.21338 0.0
O739 O 0.15373 0.42832 0.30806 0.0
O740 O 0.18415 0.47293 0.30024 0.0
C741 C 0.14359 0.40121 0.18078 0.0
O742 O 0.12399 0.43803 0.20041 0.0
O743 O 0.11963 0.42584 0.26002 0.0
C744 C 0.1852 0.50587 0.22897 0.0
O745 O 0.16072 0.42587 0.17112 0.0
O746 O 0.13228 0.39603 0.21341 0.0
C747 C 0.19138 0.41324 0.27879 0.0
Fe748 Fe 0.5809 0.74033 0.2612 0.0
Fe749 Fe 0.59254 0.71199 0.19486 0.0
O750 O 0.60341 0.73133 0.23732 0.0
Fe751 Fe 0.63622 0.74093 0.25717 0.0
O752 O 0.64672 0.77737 0.25474 0.0
O753 O 0.60974 0.77234 0.28403 0.0
O754 O 0.58203 0.7618 0.22207 0.0
C755 C 0.57389 0.75229 0.18914 0.0
C756 C 0.5993 0.72154 0.31919 0.0
O757 O 0.57279 0.72959 0.17846 0.0
C758 C 0.61864 0.68709 0.23636 0.0
O759 O 0.54785 0.71009 0.24333 0.0
O760 O 0.56273 0.68392 0.21795 0.0
O761 O 0.62396 0.73711 0.30698 0.0
O762 O 0.57856 0.71864 0.30075 0.0
C763 C 0.64698 0.74779 0.1773 0.0
O764 O 0.61029 0.6913 0.20465 0.0
O765 O 0.6276 0.70544 0.26151 0.0
C766 C 0.54345 0.68626 0.23274 0.0
O767 O 0.6218 0.73839 0.16877 0.0
O768 O 0.65393 0.7455 0.21091 0.0
C769 C 0.63548 0.78738 0.27548 0.0
Fe770 Fe 0.3332 0.88705 0.18905 0.0
Fe771 Fe 0.30929 0.9052 0.25391 0.0
O772 O 0.31615 0.88022 0.2333 0.0
Fe773 Fe 0.30666 0.84871 0.25722 0.0
O774 O 0.2841 0.82848 0.21898 0.0
O775 O 0.31556 0.84955 0.17448 0.0
O776 O 0.30528 0.88904 0.16614 0.0
C777 C 0.29755 0.90612 0.17536 0.0
C778 C 0.36013 0.86455 0.22617 0.0
O779 O 0.30322 0.9175 0.20793 0.0
C780 C 0.32723 0.8853 0.3157 0.0
O781 O 0.35386 0.92566 0.19544 0.0
O782 O 0.34571 0.93078 0.25463 0.0
O783 O 0.33653 0.84544 0.23828 0.0
O784 O 0.36219 0.88573 0.20994 0.0
C785 C 0.26167 0.85922 0.2746 0.0
O786 O 0.31434 0.89732 0.3033 0.0
O787 O 0.32885 0.86713 0.29628 0.0
C788 C 0.3609 0.93987 0.22586 0.0
O789 O 0.27236 0.88112 0.25507 0.0
O790 O 0.27547 0.84678 0.2811 0.0
C791 C 0.29301 0.82861 0.18614 0.0
H792 H 0.25224 0.14481 0.95032 0.0
H793 H 0.19431 0.11685 0.04345 0.0
H794 H 0.17399 0.06853 0.02231 0.0
H795 H 0.1786 0.03369 0.98447 0.0
H796 H 0.23843 0.06105 0.89388 0.0
H797 H 0.25155 0.1097 0.90588 0.0
C798 C 0.23459 0.12817 0.96511 0.0
C799 C 0.22479 0.13428 0.9984 0.0
C800 C 0.22342 0.10016 0.95328 0.0
C801 C 0.20218 0.11254 0.01775 0.0
C802 C 0.19061 0.08489 0.00576 0.0
C803 C 0.19349 0.05025 0.96625 0.0
C804 C 0.20713 0.04383 0.93787 0.0
C805 C 0.20179 0.07829 0.97449 0.0
C806 C 0.22721 0.06552 0.91533 0.0
C807 C 0.23502 0.09339 0.92258 0.0
H808 H 0.98043 0.19443 0.92717 0.0
H809 H 1.02448 0.15069 0.95311 0.0
H810 H 0.98103 0.11012 0.97475 0.0
H811 H 0.93205 0.09047 0.99624 0.0
H812 H 0.88903 0.13579 0.97364 0.0
H813 H 0.93008 0.17212 0.94059 0.0
C814 C 0.98018 0.17548 0.93594 0.0
C815 C 1.00545 0.1752 0.93758 0.0
C816 C 0.95528 0.15272 0.94977 0.0
C817 C 1.00514 0.15103 0.95053 0.0
C818 C 0.98035 0.12801 0.96346 0.0
C819 C 0.93149 0.10789 0.98295 0.0
C820 C 0.90753 0.1104 0.9869 0.0
C821 C 0.95549 0.12904 0.96466 0.0
C822 C 0.90716 0.13333 0.97046 0.0
C823 C 0.93069 0.15417 0.95177 0.0
H824 H 0.86433 0.80761 0.91614 0.0
H825 H 0.89088 0.884 0.97772 0.0
H826 H 0.93009 0.88074 0.00446 0.0
H827 H 0.95193 0.85175 0.01814 0.0
H828 H 0.92558 0.77583 0.95544 0.0
H829 H 0.89129 0.78322 0.92109 0.0
C830 C 0.87939 0.82411 0.93426 0.0
C831 C 0.87486 0.84613 0.94476 0.0
C832 C 0.90155 0.82179 0.9499 0.0
C833 C 0.89422 0.86717 0.96866 0.0
C834 C 0.91638 0.86503 0.98442 0.0
C835 C 0.93914 0.83729 0.9962 0.0
C836 C 0.94114 0.81324 0.98923 0.0
C837 C 0.91954 0.84181 0.97646 0.0
C838 C 0.92446 0.79453 0.96099 0.0
C839 C 0.90479 0.7987 0.94153 0.0
H840 H 0.07715 0.22614 0.58405 0.0
H841 H 1.02427 0.15695 0.51189 0.0
H842 H 0.06542 0.16 0.48115 0.0
H843 H 0.11647 0.18702 0.46879 0.0
H844 H 0.1693 0.25446 0.54357 0.0
H845 H 0.12839 0.24751 0.57939 0.0
C846 C 0.07471 0.21098 0.5627 0.0
C847 C 0.04768 0.19106 0.55065 0.0
C848 C 0.09852 0.21305 0.54501 0.0
C849 C 0.04479 0.17197 0.52233 0.0
C850 C 0.06836 0.17406 0.5043 0.0
C851 C 0.11897 0.19978 0.49341 0.0
C852 C 0.14582 0.22141 0.50339 0.0
C853 C 0.09532 0.19521 0.51442 0.0
C854 C 0.14887 0.23769 0.53544 0.0
C855 C 0.12546 0.23376 0.55583 0.0
H856 H 0.86178 0.93996 0.4743 0.0
H857 H 0.78786 0.92004 0.53815 0.0
H858 H 0.79335 0.88555 0.57514 0.0
H859 H 0.81573 0.85681 0.58323 0.0
H860 H 0.8909 0.87793 0.52191 0.0
H861 H 0.88903 0.91668 0.49085 0.0
C862 C 0.84728 0.92844 0.4969 0.0
C863 C 0.82432 0.93232 0.50341 0.0
C864 C 0.8509 0.90896 0.51856 0.0
C865 C 0.80569 0.91741 0.53276 0.0
C866 C 0.80879 0.89764 0.55381 0.0
C867 C 0.83232 0.87067 0.56425 0.0
C868 C 0.85363 0.86474 0.55524 0.0
C869 C 0.83089 0.89271 0.54629 0.0
C870 C 0.87469 0.88246 0.52999 0.0
C871 C 0.87331 0.90432 0.51174 0.0
H872 H 0.11961 0.89608 0.54639 0.0
H873 H 0.11087 0.93081 0.44136 0.0
H874 H 0.13984 0.97792 0.4657 0.0
H875 H 0.17359 1.00941 0.51258 0.0
H876 H 0.18607 0.97575 0.61572 0.0
H877 H 0.14963 0.92871 0.59725 0.0
C878 C 0.12353 0.91399 0.5293 0.0
C879 C 0.11317 0.9098 0.49192 0.0
C880 C 0.14105 0.94146 0.54325 0.0
C881 C 0.11875 0.93334 0.47003 0.0
C882 C 0.13535 0.96039 0.48395 0.0
C883 C 0.16732 0.99195 0.5318 0.0
C884 C 0.1819 0.99625 0.56604 0.0
C885 C 0.14738 0.96477 0.52 0.0
C886 C 0.17451 0.97317 0.58983 0.0
C887 C 0.15399 0.94614 0.57889 0.0
H888 H 0.81774 0.97228 0.08163 0.0
H889 H 0.89364 0.02037 0.01855 0.0
H890 H 0.89031 0.97718 0.99439 0.0
H891 H 0.86118 0.92613 0.98285 0.0
H892 H 0.78562 0.87826 0.04671 0.0
H893 H 0.79345 0.92073 0.07936 0.0
C894 C 0.83415 0.97323 0.0638 0.0
C895 C 0.85607 0.99951 0.05215 0.0
C896 C 0.83182 0.94828 0.04969 0.0
C897 C 0.87692 1.00048 0.02853 0.0
C898 C 0.87474 0.97573 0.01428 0.0
C899 C 0.84701 0.92494 0.00492 0.0
C900 C 0.82293 0.89907 0.01264 0.0
C901 C 0.85167 0.94957 0.02344 0.0
C902 C 0.80446 0.89781 0.04076 0.0
C903 C 0.80884 0.92216 0.05914 0.0
H904 H 0.12005 0.94564 0.98163 0.0
H905 H 0.1697 0.92059 0.04672 0.0
H906 H 0.12789 0.88572 0.08017 0.0
H907 H 0.07652 0.85754 0.083 0.0
H908 H 1.02674 0.8831 0.01923 0.0
H909 H 0.06916 0.92308 0.99386 0.0
C910 C 0.12172 0.93311 0.00403 0.0
C911 C 0.14783 0.93561 0.01187 0.0
C912 C 0.09754 0.91316 0.02318 0.0
C913 C 0.14985 0.91918 0.04059 0.0
C914 C 0.12591 0.89912 0.05947 0.0
C915 C 0.07505 0.87257 0.06477 0.0
C916 C 0.04857 0.86755 0.05319 0.0
C917 C 0.09954 0.89526 0.05002 0.0
C918 C 0.04685 0.88684 0.02908 0.0
C919 C 0.07113 0.90945 0.01414 0.0
H920 H 0.1948 0.23651 0.07639 0.0
H921 H 0.165 0.15835 0.01806 0.0
H922 H 0.12644 0.1627 0.9911 0.0
H923 H 0.10495 0.19206 0.97782 0.0
H924 H 0.13411 0.26937 0.0386 0.0
H925 H 0.16909 0.26212 0.07087 0.0
C926 C 0.1792 0.21991 0.05893 0.0
C927 C 0.18251 0.19693 0.04965 0.0
C928 C 0.15738 0.22281 0.04321 0.0
C929 C 0.16253 0.17585 0.02638 0.0
C930 C 0.14076 0.17863 0.01044 0.0
C931 C 0.11879 0.20715 0.99844 0.0
C932 C 0.11717 0.23148 0.00534 0.0
C933 C 0.13858 0.20253 0.01757 0.0
C934 C 0.13494 0.25057 0.03263 0.0
C935 C 0.15498 0.24643 0.05109 0.0
H936 H 0.97809 0.79801 0.42996 0.0
H937 H 1.02548 0.88456 0.46199 0.0
H938 H 0.98324 0.88203 0.4886 0.0
H939 H 0.93401 0.85286 0.51092 0.0
H940 H 0.88756 0.76627 0.47847 0.0
H941 H 0.92798 0.77101 0.44382 0.0
C942 C 0.97896 0.81659 0.44161 0.0
C943 C 1.00486 0.84151 0.44371 0.0
C944 C 0.95475 0.81473 0.45746 0.0
C945 C 1.00576 0.86531 0.45933 0.0
C946 C 0.98164 0.8637 0.47509 0.0
C947 C 0.93267 0.8353 0.49544 0.0
C948 C 0.90785 0.80921 0.49709 0.0
C949 C 0.9562 0.83822 0.47556 0.0
C950 C 0.90637 0.78652 0.47734 0.0
C951 C 0.92952 0.78922 0.45766 0.0
H952 H 0.19399 0.08958 0.51328 0.0
H953 H 0.27828 0.12402 0.47312 0.0
H954 H 0.27451 0.16055 0.43893 0.0
H955 H 0.24964 0.18655 0.42843 0.0
H956 H 0.16501 0.15218 0.46707 0.0
H957 H 0.16608 0.11148 0.49299 0.0
C958 C 0.21114 0.10458 0.49597 0.0
C959 C 0.23634 0.10403 0.49539 0.0
C960 C 0.20877 0.12564 0.47635 0.0
C961 C 0.25861 0.12383 0.4735 0.0
C962 C 0.25651 0.14484 0.4542 0.0
C963 C 0.2311 0.16964 0.44136 0.0
C964 C 0.20722 0.17231 0.44565 0.0
C965 C 0.23203 0.14649 0.45644 0.0
C966 C 0.18346 0.15042 0.46283 0.0
C967 C 0.18424 0.12733 0.47813 0.0
H968 H 0.95586 0.11353 0.50861 0.0
H969 H 0.91864 0.16112 0.46868 0.0
H970 H 0.88345 0.12045 0.43381 0.0
H971 H 0.85938 0.06985 0.42292 0.0
H972 H 0.89568 0.02147 0.46296 0.0
H973 H 0.93559 0.06392 0.48858 0.0
C974 C 0.94044 0.11505 0.49137 0.0
C975 C 0.93969 0.14015 0.49101 0.0
C976 C 0.92014 0.09143 0.47156 0.0
C977 C 0.91959 0.14201 0.46904 0.0
C978 C 0.89944 0.11874 0.44929 0.0
C979 C 0.87656 0.06881 0.43607 0.0
C980 C 0.87469 0.04264 0.44097 0.0
C981 C 0.89898 0.09313 0.45138 0.0
C982 C 0.89688 0.04143 0.45833 0.0
C983 C 0.91947 0.06566 0.47349 0.0
H984 H 0.91605 0.47861 0.29023 0.0
H985 H 0.86622 0.44819 0.39137 0.0
H986 H 0.84664 0.40019 0.36953 0.0
H987 H 0.84939 0.36647 0.327 0.0
H988 H 0.90114 0.3959 0.22779 0.0
H989 H 0.91366 0.44409 0.24267 0.0
C990 C 0.90032 0.46148 0.30683 0.0
C991 C 0.89269 0.46701 0.34248 0.0
C992 C 0.88951 0.43353 0.29441 0.0
C993 C 0.87255 0.44451 0.36394 0.0
C994 C 0.86135 0.41698 0.3515 0.0
C995 C 0.86231 0.38333 0.30772 0.0
C996 C 0.87366 0.37752 0.27575 0.0
C997 C 0.87037 0.41113 0.31746 0.0
C998 C 0.89144 0.39973 0.25192 0.0
C999 C 0.89898 0.42739 0.26082 0.0
H1000 H 0.6476 0.51051 0.24988 0.0
H1001 H 0.69988 0.49392 0.32306 0.0
H1002 H 0.65849 0.45665 0.35452 0.0
H1003 H 0.60759 0.43381 0.3673 0.0
H1004 H 0.55532 0.44885 0.29186 0.0
H1005 H 0.59632 0.48159 0.25508 0.0
C1006 C 0.64983 0.4979 0.27165 0.0
C1007 C 0.67676 0.50473 0.28384 0.0
C1008 C 0.6259 0.4767 0.2898 0.0
C1009 C 0.67943 0.48865 0.31259 0.0
C1010 C 0.65573 0.46766 0.33102 0.0
C1011 C 0.60523 0.44388 0.34233 0.0
C1012 C 0.57856 0.4392 0.33242 0.0
C1013 C 0.62891 0.46227 0.32086 0.0
C1014 C 0.57563 0.45215 0.29993 0.0
C1015 C 0.59909 0.47092 0.279 0.0
H1016 H 0.53535 0.14592 0.25379 0.0
H1017 H 0.55153 0.21413 0.32798 0.0
H1018 H 0.58964 0.21063 0.35797 0.0
H1019 H 0.61369 0.1834 0.36904 0.0
H1020 H 0.59926 0.117 0.29225 0.0
H1021 H 0.5653 0.12448 0.25719 0.0
C1022 C 0.54804 0.16078 0.27542 0.0
C1023 C 0.54089 0.18054 0.28828 0.0
C1024 C 0.5698 0.15846 0.29266 0.0
C1025 C 0.55705 0.19924 0.31695 0.0
C1026 C 0.57855 0.19689 0.33454 0.0
C1027 C 0.60348 0.17099 0.34415 0.0
C1028 C 0.60873 0.14949 0.33338 0.0
C1029 C 0.58439 0.17587 0.32361 0.0
C1030 C 0.59556 0.13367 0.30099 0.0
C1031 C 0.57608 0.1379 0.28104 0.0
H1032 H 0.78809 0.5179 0.82282 0.0
H1033 H 0.83894 0.59655 0.8789 0.0
H1034 H 0.79814 0.59092 0.91372 0.0
H1035 H 0.74699 0.56701 0.92051 0.0
H1036 H 0.69592 0.48787 0.86568 0.0
H1037 H 0.7377 0.48974 0.83886 0.0
C1038 C 0.79027 0.53332 0.84356 0.0
C1039 C 0.81641 0.55759 0.84849 0.0
C1040 C 0.76664 0.52986 0.86351 0.0
C1041 C 0.81907 0.57762 0.87504 0.0
C1042 C 0.7957 0.57447 0.8947 0.0
C1043 C 0.74514 0.54969 0.90382 0.0
C1044 C 0.71843 0.52726 0.89519 0.0
C1045 C 0.76924 0.55114 0.8882 0.0
C1046 C 0.71624 0.5051 0.87323 0.0
C1047 C 0.74013 0.5064 0.85744 0.0
H1048 H 0.47272 0.18125 0.91042 0.0
H1049 H 0.55944 0.21984 0.87999 0.0
H1050 H 0.55835 0.26132 0.85725 0.0
H1051 H 0.53031 0.28308 0.83674 0.0
H1052 H 0.44367 0.2439 0.86795 0.0
H1053 H 0.44709 0.20647 0.90009 0.0
C1054 C 0.49163 0.19916 0.89998 0.0
C1055 C 0.51617 0.1975 0.89703 0.0
C1056 C 0.49069 0.22275 0.88669 0.0
C1057 C 0.54043 0.22074 0.88311 0.0
C1058 C 0.53967 0.24432 0.86967 0.0
C1059 C 0.51254 0.26689 0.85189 0.0
C1060 C 0.48683 0.26645 0.85051 0.0
C1061 C 0.51464 0.24515 0.87003 0.0
C1062 C 0.46374 0.24497 0.8693 0.0
C1063 C 0.46565 0.2234 0.88733 0.0
H1064 H 0.7724 0.26448 0.81991 0.0
H1065 H 0.7967 0.21122 0.87745 0.0
H1066 H 0.83131 0.25107 0.91432 0.0
H1067 H 0.85906 0.30207 0.92304 0.0
H1068 H 0.83427 0.3555 0.86705 0.0
H1069 H 0.7949 0.31467 0.83761 0.0
C1070 C 0.78484 0.2616 0.84125 0.0
C1071 C 0.7822 0.23508 0.84601 0.0
C1072 C 0.80454 0.28464 0.86258 0.0
C1073 C 0.79837 0.23145 0.87355 0.0
C1074 C 0.81821 0.25425 0.89447 0.0
C1075 C 0.84435 0.30462 0.90557 0.0
C1076 C 0.84944 0.33173 0.89739 0.0
C1077 C 0.82206 0.28108 0.88838 0.0
C1078 C 0.8305 0.33484 0.87433 0.0
C1079 C 0.80826 0.3115 0.857 0.0
H1080 H 0.52694 0.25717 0.33177 0.0
H1081 H 0.44224 0.2112 0.37177 0.0
H1082 H 0.44818 0.25266 0.40508 0.0
H1083 H 0.475 0.30347 0.41401 0.0
H1084 H 0.55955 0.35024 0.3737 0.0
H1085 H 0.55663 0.30705 0.35024 0.0
C1086 C 0.51017 0.25615 0.34882 0.0
C1087 C 0.48421 0.23126 0.34964 0.0
C1088 C 0.51372 0.28025 0.36759 0.0
C1089 C 0.46241 0.2301 0.37119 0.0
C1090 C 0.46578 0.25384 0.38999 0.0
C1091 C 0.4931 0.30401 0.40127 0.0
C1092 C 0.51747 0.32993 0.39562 0.0
C1093 C 0.49099 0.27924 0.38725 0.0
C1094 C 0.54073 0.3305 0.37884 0.0
C1095 C 0.53889 0.30583 0.36495 0.0
H1096 H 0.70963 0.21587 0.35364 0.0
H1097 H 0.73919 0.18048 0.43773 0.0
H1098 H 0.78747 0.21623 0.4244 0.0
H1099 H 0.82149 0.25253 0.38078 0.0
H1100 H 0.79139 0.28578 0.29423 0.0
H1101 H 0.74358 0.25659 0.31659 0.0
C1102 C 0.72662 0.21685 0.37018 0.0
C1103 C 0.72086 0.19599 0.39723 0.0
C1104 C 0.75444 0.23689 0.36126 0.0
C1105 C 0.74312 0.19676 0.41744 0.0
C1106 C 0.77077 0.21699 0.40942 0.0
C1107 C 0.80452 0.254 0.36779 0.0
C1108 C 0.80994 0.2714 0.33606 0.0
C1109 C 0.77679 0.23648 0.38026 0.0
C1110 C 0.7877 0.27267 0.31886 0.0
C1111 C 0.76031 0.25584 0.3315 0.0
H1112 H 0.76903 0.5194 0.32885 0.0
H1113 H 0.80361 0.6036 0.36985 0.0
H1114 H 0.84029 0.59965 0.40322 0.0
H1115 H 0.86649 0.57479 0.41221 0.0
H1116 H 0.83201 0.4903 0.3724 0.0
H1117 H 0.79104 0.49138 0.3479 0.0
C1118 C 0.78406 0.53646 0.34624 0.0
C1119 C 0.78353 0.5617 0.34727 0.0
C1120 C 0.80523 0.53401 0.36524 0.0
C1121 C 0.80338 0.58389 0.36919 0.0
C1122 C 0.8245 0.58168 0.38797 0.0
C1123 C 0.8495 0.55628 0.39935 0.0
C1124 C 0.85221 0.53244 0.39426 0.0
C1125 C 0.82619 0.55722 0.38508 0.0
C1126 C 0.83023 0.50871 0.37721 0.0
C1127 C 0.80697 0.50949 0.36274 0.0
H1128 H 0.68446 0.19866 0.83494 0.0
H1129 H 0.65512 0.15901 0.72686 0.0
H1130 H 0.60732 0.14684 0.74348 0.0
H1131 H 0.57275 0.14076 0.79355 0.0
H1132 H 0.60336 0.17788 0.90314 0.0
H1133 H 0.65123 0.19777 0.88138 0.0
C1134 C 0.66778 0.18856 0.81437 0.0
C1135 C 0.67347 0.18052 0.77929 0.0
C1136 C 0.6402 0.1804 0.82499 0.0
C1137 C 0.65143 0.16627 0.75354 0.0
C1138 C 0.62397 0.15884 0.76339 0.0
C1139 C 0.58994 0.15372 0.81226 0.0
C1140 C 0.58437 0.1575 0.85012 0.0
C1141 C 0.61786 0.16474 0.79973 0.0
C1142 C 0.60697 0.17425 0.87408 0.0
C1143 C 0.63445 0.18574 0.86164 0.0
H1144 H 0.9075 0.51287 0.75502 0.0
H1145 H 0.83133 0.48751 0.81633 0.0
H1146 H 0.83389 0.44799 0.84352 0.0
H1147 H 0.8623 0.42567 0.85787 0.0
H1148 H 0.93779 0.45047 0.79512 0.0
H1149 H 0.93099 0.48494 0.76011 0.0
C1150 C 0.89089 0.498 0.77316 0.0
C1151 C 0.86914 0.50298 0.78345 0.0
C1152 C 0.89271 0.47552 0.78892 0.0
C1153 C 0.84796 0.48385 0.80742 0.0
C1154 C 0.84968 0.46148 0.82341 0.0
C1155 C 0.87671 0.43804 0.83562 0.0
C1156 C 0.90048 0.43554 0.82889 0.0
C1157 C 0.87257 0.4578 0.81556 0.0
C1158 C 0.91921 0.45182 0.80039 0.0
C1159 C 0.91542 0.47168 0.78062 0.0
H1160 H 0.61926 0.44341 0.86372 0.0
H1161 H 0.60123 0.49515 0.7913 0.0
H1162 H 0.56811 0.45388 0.75518 0.0
H1163 H 0.53934 0.40243 0.75067 0.0
H1164 H 0.55838 0.35068 0.82145 0.0
H1165 H 0.59655 0.39243 0.85102 0.0
C1166 C 0.60859 0.44566 0.83936 0.0
C1167 C 0.61259 0.47227 0.83018 0.0
C1168 C 0.58977 0.42178 0.81849 0.0
C1169 C 0.59864 0.47495 0.79869 0.0
C1170 C 0.57959 0.45131 0.77821 0.0
C1171 C 0.55265 0.40036 0.77143 0.0
C1172 C 0.54621 0.37344 0.78353 0.0
C1173 C 0.57434 0.42453 0.78859 0.0
C1174 C 0.56325 0.37106 0.81101 0.0
C1175 C 0.5848 0.39499 0.82838 0.0
H1176 H 0.5323 0.77841 0.69897 0.0
H1177 H 0.60076 0.82926 0.62448 0.0
H1178 H 0.59368 0.78741 0.59086 0.0
H1179 H 0.57199 0.73596 0.58867 0.0
H1180 H 0.50205 0.68511 0.66087 0.0
H1181 H 0.50507 0.72715 0.68874 0.0
C1182 C 0.54522 0.78026 0.67482 0.0
C1183 C 0.56716 0.80678 0.6643 0.0
C1184 C 0.54066 0.75609 0.65521 0.0
C1185 C 0.58372 0.80906 0.63294 0.0
C1186 C 0.57973 0.78512 0.61385 0.0
C1187 C 0.55669 0.73416 0.60936 0.0
C1188 C 0.53654 0.7075 0.62233 0.0
C1189 C 0.55876 0.75848 0.6254 0.0
C1190 C 0.51726 0.70537 0.6498 0.0
C1191 C 0.51931 0.72944 0.66616 0.0
H1192 H 0.23666 0.78442 0.62235 0.0
H1193 H 0.26737 0.76371 0.72233 0.0
H1194 H 0.31519 0.7932 0.70107 0.0
H1195 H 0.34843 0.82982 0.65938 0.0
H1196 H 0.31973 0.85337 0.56028 0.0
H1197 H 0.27138 0.81767 0.57508 0.0
C1198 C 0.25386 0.7859 0.63885 0.0
C1199 C 0.24844 0.77198 0.67407 0.0
C1200 C 0.28176 0.80361 0.6267 0.0
C1201 C 0.27097 0.77432 0.69534 0.0
C1202 C 0.29837 0.79123 0.68322 0.0
C1203 C 0.33167 0.82657 0.64035 0.0
C1204 C 0.33771 0.84416 0.60871 0.0
C1205 C 0.30405 0.80668 0.64969 0.0
C1206 C 0.31574 0.83982 0.58447 0.0
C1207 C 0.28801 0.81965 0.59331 0.0
H1208 H 0.194 0.46424 0.59614 0.0
H1209 H 0.22621 0.54498 0.64809 0.0
H1210 H 0.26516 0.54124 0.67491 0.0
H1211 H 0.28661 0.51209 0.68996 0.0
H1212 H 0.25532 0.43232 0.635 0.0
H1213 H 0.21958 0.43852 0.60297 0.0
C1214 C 0.21015 0.48146 0.61219 0.0
C1215 C 0.20742 0.50502 0.61973 0.0
C1216 C 0.2323 0.47899 0.62771 0.0
C1217 C 0.22818 0.52695 0.64115 0.0
C1218 C 0.2502 0.52456 0.657 0.0
C1219 C 0.27215 0.49624 0.67062 0.0
C1220 C 0.27341 0.47155 0.66533 0.0
C1221 C 0.25193 0.50024 0.65155 0.0
C1222 C 0.2548 0.45143 0.63969 0.0
C1223 C 0.23431 0.45496 0.6214 0.0
H1224 H 0.41295 0.89896 0.24912 0.0
H1225 H 0.36156 0.82179 0.19007 0.0
H1226 H 0.40331 0.82302 0.16431 0.0
H1227 H 0.45406 0.85041 0.15054 0.0
H1228 H 0.50536 0.92672 0.21148 0.0
H1229 H 0.46423 0.9215 0.24493 0.0
C1230 C 0.41101 0.88187 0.23181 0.0
C1231 C 0.38427 0.8602 0.22167 0.0
C1232 C 0.43511 0.8829 0.21694 0.0
C1233 C 0.38191 0.83837 0.19879 0.0
C1234 C 0.4058 0.83933 0.18364 0.0
C1235 C 0.45623 0.86537 0.17202 0.0
C1236 C 0.4826 0.88892 0.17867 0.0
C1237 C 0.43244 0.86208 0.1913 0.0
C1238 C 0.48528 0.90834 0.20625 0.0
C1239 C 0.46174 0.90544 0.22514 0.0
H1240 H 0.19661 0.61154 0.14858 0.0
H1241 H 0.12071 0.58673 0.21033 0.0
H1242 H 0.12705 0.55199 0.24538 0.0
H1243 H 0.15059 0.52421 0.25127 0.0
H1244 H 0.22726 0.54965 0.19125 0.0
H1245 H 0.22485 0.5891 0.16349 0.0
C1246 C 0.18193 0.59899 0.17047 0.0
C1247 C 0.15818 0.60154 0.17694 0.0
C1248 C 0.1859 0.57921 0.19074 0.0
C1249 C 0.13919 0.58518 0.20515 0.0
C1250 C 0.14276 0.56525 0.22501 0.0
C1251 C 0.16734 0.53911 0.23332 0.0
C1252 C 0.18921 0.53421 0.22357 0.0
C1253 C 0.16557 0.56149 0.21719 0.0
C1254 C 0.21055 0.55331 0.19977 0.0
C1255 C 0.2089 0.57561 0.18343 0.0
H1256 H 0.52524 0.63308 0.25379 0.0
H1257 H 0.49934 0.68543 0.19726 0.0
H1258 H 0.45939 0.64408 0.16975 0.0
H1259 H 0.43684 0.5937 0.15344 0.0
H1260 H 0.46238 0.54153 0.21128 0.0
H1261 H 0.49735 0.58194 0.24692 0.0
C1262 C 0.51017 0.63528 0.23664 0.0
C1263 C 0.51508 0.66218 0.22765 0.0
C1264 C 0.48755 0.61144 0.2206 0.0
C1265 C 0.4957 0.66491 0.20507 0.0
C1266 C 0.47311 0.64127 0.18888 0.0
C1267 C 0.44958 0.59118 0.17468 0.0
C1268 C 0.44723 0.56484 0.17986 0.0
C1269 C 0.46955 0.61455 0.19516 0.0
C1270 C 0.46382 0.56164 0.20715 0.0
C1271 C 0.48388 0.58475 0.22732 0.0
H1272 H 0.14495 0.63538 0.74628 0.0
H1273 H 0.2234 0.6873 0.69055 0.0
H1274 H 0.22222 0.64575 0.66385 0.0
H1275 H 0.19519 0.59499 0.64919 0.0
H1276 H 0.11793 0.54309 0.70771 0.0
H1277 H 0.12226 0.58404 0.74078 0.0
C1278 C 0.16228 0.63745 0.72946 0.0
C1279 C 0.18438 0.66431 0.72069 0.0
C1280 C 0.16135 0.61345 0.71419 0.0
C1281 C 0.20648 0.66683 0.69832 0.0
C1282 C 0.20558 0.64307 0.68262 0.0
C1283 C 0.17974 0.59268 0.66993 0.0
C1284 C 0.15622 0.56616 0.67605 0.0
C1285 C 0.18262 0.61634 0.68925 0.0
C1286 C 0.13625 0.5633 0.70281 0.0
C1287 C 0.13867 0.58673 0.72154 0.0
H1288 H 0.46456 0.6169 0.69034 0.0
H1289 H 0.4961 0.56161 0.66412 0.0
H1290 H 0.45532 0.52266 0.69343 0.0
H1291 H 0.40813 0.50291 0.71845 0.0
H1292 H 0.37375 0.55605 0.74155 0.0
H1293 H 0.41804 0.5972 0.72255 0.0
C1294 C 0.46272 0.59646 0.69205 0.0
C1295 C 0.48341 0.59212 0.67526 0.0
C1296 C 0.43856 0.57373 0.70822 0.0
C1297 C 0.48054 0.56544 0.67697 0.0
C1298 C 0.45716 0.54313 0.69362 0.0
C1299 C 0.41062 0.52362 0.72045 0.0
C1300 C 0.38784 0.52648 0.73189 0.0
C1301 C 0.43568 0.54682 0.70826 0.0
C1302 C 0.39117 0.55337 0.73366 0.0
C1303 C 0.41641 0.57684 0.72226 0.0
H1304 H 0.53186 0.91015 0.74173 0.0
H1305 H 0.49977 0.82893 0.69132 0.0
H1306 H 0.46074 0.8323 0.66402 0.0
H1307 H 0.43914 0.86119 0.64821 0.0
H1308 H 0.47053 0.94154 0.70156 0.0
H1309 H 0.50637 0.93576 0.73393 0.0
C1310 C 0.51572 0.89276 0.72591 0.0
C1311 C 0.51848 0.86917 0.71892 0.0
C1312 C 0.49359 0.89504 0.71006 0.0
C1313 C 0.49775 0.847 0.69782 0.0
C1314 C 0.4757 0.84917 0.68168 0.0
C1315 C 0.45369 0.87729 0.66721 0.0
C1316 C 0.45243 0.90199 0.67199 0.0
C1317 C 0.47396 0.87353 0.68652 0.0
C1318 C 0.4711 0.92242 0.69723 0.0
C1319 C 0.49163 0.91913 0.71576 0.0
H1320 H 0.23748 0.46347 0.12069 0.0
H1321 H 0.26655 0.51971 0.21576 0.0
H1322 H 0.31463 0.53969 0.1941 0.0
H1323 H 0.34894 0.53528 0.15475 0.0
H1324 H 0.32054 0.47742 0.06172 0.0
H1325 H 0.27217 0.46457 0.07496 0.0
C1326 C 0.25431 0.4807 0.13583 0.0
C1327 C 0.2485 0.49009 0.1698 0.0
C1328 C 0.28223 0.49175 0.12359 0.0
C1329 C 0.27055 0.51215 0.18954 0.0
C1330 C 0.29809 0.52353 0.17724 0.0
C1331 C 0.33224 0.52093 0.13629 0.0
C1332 C 0.33835 0.5078 0.10677 0.0
C1333 C 0.30433 0.51277 0.14515 0.0
C1334 C 0.3164 0.48833 0.08399 0.0
C1335 C 0.28866 0.48064 0.09197 0.0
H1336 H 0.58939 0.78387 0.12425 0.0
H1337 H 0.52543 0.74862 0.20959 0.0
H1338 H 0.50599 0.77725 0.18739 0.0
H1339 H 0.51236 0.81835 0.15123 0.0
H1340 H 0.57749 0.8551 0.06776 0.0
H1341 H 0.59078 0.81982 0.0807 0.0
C1342 C 0.57062 0.78179 0.13697 0.0
C1343 C 0.55876 0.76405 0.16838 0.0
C1344 C 0.55984 0.7989 0.12448 0.0
C1345 C 0.53479 0.76201 0.18519 0.0
C1346 C 0.52375 0.77852 0.17265 0.0
C1347 C 0.52853 0.81773 0.13465 0.0
C1348 C 0.54353 0.83896 0.10801 0.0
C1349 C 0.53673 0.79787 0.14329 0.0
C1350 C 0.56521 0.83858 0.08777 0.0
C1351 C 0.5731 0.81862 0.09558 0.0
H1352 H 0.26478 0.81217 0.11877 0.0
H1353 H 0.29363 0.78336 0.21241 0.0
H1354 H 0.2655 0.73516 0.19092 0.0
H1355 H 0.22629 0.70073 0.15248 0.0
H1356 H 0.19496 0.72895 0.06131 0.0
H1357 H 0.23059 0.77743 0.07383 0.0
C1358 C 0.26551 0.79536 0.1336 0.0
C1359 C 0.28114 0.80119 0.16711 0.0
C1360 C 0.24861 0.76743 0.12155 0.0
C1361 C 0.28166 0.77926 0.18654 0.0
C1362 C 0.26551 0.75167 0.17434 0.0
C1363 C 0.22824 0.71743 0.13427 0.0
C1364 C 0.20849 0.71132 0.10554 0.0
C1365 C 0.24803 0.74537 0.1428 0.0
C1366 C 0.21043 0.73319 0.083 0.0
C1367 C 0.23054 0.76096 0.09056 0.0
H1368 H 0.35808 0.21982 0.11253 0.0
H1369 H 0.28575 0.14805 0.15933 0.0
H1370 H 0.31595 0.14008 0.20217 0.0
H1371 H 0.36278 0.15369 0.22679 0.0
H1372 H 0.43496 0.22567 0.18005 0.0
H1373 H 0.40473 0.23362 0.1374 0.0
C1374 C 0.34874 0.20221 0.13182 0.0
C1375 C 0.31939 0.18441 0.13221 0.0
C1376 C 0.36624 0.19806 0.1569 0.0
C1377 C 0.30808 0.16197 0.1579 0.0
C1378 C 0.3254 0.15753 0.18266 0.0
C1379 C 0.37205 0.17134 0.20757 0.0
C1380 C 0.40141 0.18917 0.20706 0.0
C1381 C 0.35449 0.17556 0.18262 0.0
C1382 C 0.41265 0.21171 0.18154 0.0
C1383 C 0.3953 0.21615 0.15688 0.0
H1384 H 0.82891 0.15079 0.11039 0.0
H1385 H 0.90109 0.1511 0.15738 0.0
H1386 H 0.90884 0.18948 0.19953 0.0
H1387 H 0.89486 0.22247 0.22373 0.0
H1388 H 0.82287 0.22242 0.17653 0.0
H1389 H 0.81505 0.18397 0.13442 0.0
C1390 C 0.84656 0.15931 0.12957 0.0
C1391 C 0.86451 0.14788 0.13029 0.0
C1392 C 0.85065 0.18118 0.15421 0.0
C1393 C 0.88705 0.15938 0.15574 0.0
C1394 C 0.89136 0.18127 0.18011 0.0
C1395 C 0.87723 0.21398 0.20454 0.0
C1396 C 0.85932 0.22546 0.20379 0.0
C1397 C 0.87316 0.19217 0.17984 0.0
C1398 C 0.83686 0.21407 0.17822 0.0
C1399 C 0.8325 0.19215 0.15387 0.0
H1400 H 0.82995 0.68104 0.22679 0.0
H1401 H 0.82827 0.60975 0.1741 0.0
H1402 H 0.86532 0.64103 0.13062 0.0
H1403 H 0.89769 0.68848 0.10711 0.0
H1404 H 0.89879 0.75955 0.15962 0.0
H1405 H 0.86179 0.72824 0.20293 0.0
C1406 C 0.83773 0.67215 0.20607 0.0
C1407 C 0.82622 0.64279 0.20416 0.0
C1408 C 0.8586 0.69024 0.1806 0.0
C1409 C 0.83671 0.63207 0.17667 0.0
C1410 C 0.85779 0.65 0.15156 0.0
C1411 C 0.88974 0.69727 0.12774 0.0
C1412 C 0.90118 0.72662 0.12973 0.0
C1413 C 0.86872 0.67911 0.15305 0.0
C1414 C 0.89044 0.73726 0.15698 0.0
C1415 C 0.86939 0.7193 0.18204 0.0
H1416 H 0.16494 0.3562 0.27599 0.0
H1417 H 0.23239 0.42704 0.33239 0.0
H1418 H 0.23937 0.39535 0.3735 0.0
H1419 H 0.22579 0.34785 0.39429 0.0
H1420 H 0.15867 0.27686 0.33769 0.0
H1421 H 0.15167 0.30852 0.29641 0.0
C1422 C 0.1814 0.36487 0.29703 0.0
C1423 C 0.19821 0.39424 0.3008 0.0
C1424 C 0.18499 0.34649 0.32101 0.0
C1425 C 0.21928 0.40474 0.32845 0.0
C1426 C 0.22311 0.38656 0.35222 0.0
C1427 C 0.20939 0.3391 0.37318 0.0
C1428 C 0.19261 0.30972 0.3695 0.0
C1429 C 0.2059 0.35743 0.34902 0.0
C1430 C 0.17174 0.29917 0.34157 0.0
C1431 C 0.16789 0.31733 0.31774 0.0
H1432 H 0.69236 0.81817 0.27217 0.0
H1433 H 0.62152 0.81346 0.3304 0.0
H1434 H 0.65303 0.85137 0.37234 0.0
H1435 H 0.70033 0.88503 0.3932 0.0
H1436 H 0.77135 0.89022 0.33493 0.0
H1437 H 0.73988 0.85217 0.29294 0.0
C1438 C 0.68366 0.82553 0.29377 0.0
C1439 C 0.65437 0.81285 0.29785 0.0
C1440 C 0.70193 0.84702 0.31828 0.0
C1441 C 0.64379 0.82279 0.32626 0.0
C1442 C 0.66185 0.84435 0.3505 0.0
C1443 C 0.70913 0.8778 0.37157 0.0
C1444 C 0.73842 0.89059 0.36753 0.0
C1445 C 0.69092 0.85638 0.34701 0.0
C1446 C 0.74907 0.88078 0.33905 0.0
C1447 C 0.73103 0.85915 0.31479 0.0
H1448 H 0.23057 0.88518 0.27067 0.0
H1449 H 0.23499 0.81877 0.329 0.0
H1450 H 0.1964 0.81184 0.36991 0.0
H1451 H 0.16234 0.82518 0.39009 0.0
H1452 H 0.15703 0.89101 0.33156 0.0
H1453 H 0.19567 0.89805 0.29032 0.0
C1454 C 0.22302 0.86896 0.29209 0.0
C1455 C 0.23587 0.85244 0.29649 0.0
C1456 C 0.201 0.86534 0.31593 0.0
C1457 C 0.22559 0.83166 0.3246 0.0
C1458 C 0.20361 0.82785 0.34825 0.0
C1459 C 0.16962 0.84129 0.36854 0.0
C1460 C 0.15667 0.85772 0.36433 0.0
C1461 C 0.1914 0.84477 0.34444 0.0
C1462 C 0.16656 0.87822 0.33585 0.0
C1463 C 0.18857 0.8821 0.31206 0.0
H1464 H 0.69814 0.82614 0.8968 0.0
H1465 H 0.77002 0.89443 0.84327 0.0
H1466 H 0.73931 0.90158 0.80058 0.0
H1467 H 0.69243 0.8877 0.77725 0.0
H1468 H 0.62035 0.81968 0.83079 0.0
H1469 H 0.65101 0.81275 0.87407 0.0
C1470 C 0.70723 0.84285 0.8761 0.0
C1471 C 0.73661 0.8598 0.87354 0.0
C1472 C 0.68942 0.84651 0.85112 0.0
C1473 C 0.74768 0.88119 0.84628 0.0
C1474 C 0.73007 0.88512 0.82158 0.0
C1475 C 0.68323 0.87113 0.79812 0.0
C1476 C 0.65386 0.85405 0.80033 0.0
C1477 C 0.70096 0.86767 0.82342 0.0
C1478 C 0.6427 0.83297 0.82802 0.0
C1479 C 0.66028 0.82915 0.853 0.0
H1480 H 0.16041 0.81712 0.77917 0.0
H1481 H 0.22855 0.81314 0.83258 0.0
H1482 H 0.23567 0.85094 0.87543 0.0
H1483 H 0.22257 0.88491 0.8977 0.0
H1484 H 0.1545 0.88898 0.84419 0.0
H1485 H 0.14686 0.85064 0.80208 0.0
C1486 C 0.17704 0.82458 0.79993 0.0
C1487 C 0.1941 0.81225 0.80227 0.0
C1488 C 0.18068 0.84599 0.82493 0.0
C1489 C 0.21526 0.82223 0.82978 0.0
C1490 C 0.2192 0.84375 0.85449 0.0
C1491 C 0.20581 0.87732 0.87713 0.0
C1492 C 0.18906 0.88998 0.87437 0.0
C1493 C 0.20192 0.85566 0.85246 0.0
C1494 C 0.16758 0.87967 0.84731 0.0
C1495 C 0.16338 0.85787 0.82296 0.0
H1496 H 0.14569 0.34858 0.86237 0.0
H1497 H 0.16839 0.28493 0.87794 0.0
H1498 H 0.2124 0.31432 0.8447 0.0
H1499 H 0.24393 0.35746 0.81106 0.0
H1500 H 0.22174 0.42147 0.79535 0.0
H1501 H 0.17758 0.39212 0.82866 0.0
C1502 C 0.16021 0.34099 0.85869 0.0
C1503 C 0.1535 0.31431 0.87289 0.0
C1504 C 0.18541 0.35798 0.83932 0.0
C1505 C 0.17281 0.30518 0.8676 0.0
C1506 C 0.19798 0.32202 0.84844 0.0
C1507 C 0.22955 0.36523 0.81471 0.0
C1508 C 0.23642 0.39193 0.80045 0.0
C1509 C 0.2044 0.34835 0.83409 0.0
C1510 C 0.2172 0.40119 0.80574 0.0
C1511 C 0.19196 0.38438 0.82493 0.0
H1512 H 0.82799 0.68651 0.61301 0.0
H1513 H 0.89788 0.75824 0.66417 0.0
H1514 H 0.90517 0.72735 0.70649 0.0
H1515 H 0.89159 0.6802 0.72935 0.0
H1516 H 0.82179 0.60838 0.67824 0.0
H1517 H 0.81423 0.63927 0.63619 0.0
C1518 C 0.84504 0.69554 0.63314 0.0
C1519 C 0.86251 0.72494 0.63497 0.0
C1520 C 0.84883 0.67762 0.6579 0.0
C1521 C 0.88423 0.73589 0.6617 0.0
C1522 C 0.88828 0.71817 0.68614 0.0
C1523 C 0.87449 0.67113 0.7093 0.0
C1524 C 0.85718 0.64172 0.70734 0.0
C1525 C 0.87059 0.68903 0.68469 0.0
C1526 C 0.83532 0.63074 0.68082 0.0
C1527 C 0.83113 0.64846 0.6565 0.0
H1528 H 0.36006 0.15172 0.61081 0.0
H1529 H 0.28926 0.15188 0.66179 0.0
H1530 H 0.32056 0.18921 0.70472 0.0
H1531 H 0.36777 0.22126 0.72851 0.0
H1532 H 0.43869 0.22125 0.67771 0.0
H1533 H 0.40741 0.18387 0.63471 0.0
C1534 C 0.35133 0.16004 0.63098 0.0
C1535 C 0.32205 0.14888 0.6326 0.0
C1536 C 0.36949 0.18121 0.65618 0.0
C1537 C 0.3115 0.16 0.65944 0.0
C1538 C 0.32945 0.18127 0.68426 0.0
C1539 C 0.37656 0.21301 0.70832 0.0
C1540 C 0.40584 0.22422 0.70678 0.0
C1541 C 0.35844 0.19184 0.68315 0.0
C1542 C 0.41644 0.21309 0.68003 0.0
C1543 C 0.3985 0.1918 0.65515 0.0
H1544 H 0.89755 0.21937 0.61135 0.0
H1545 H 0.89744 0.14812 0.66183 0.0
H1546 H 0.85949 0.14151 0.70404 0.0
H1547 H 0.82678 0.15619 0.72713 0.0
H1548 H 0.82686 0.2274 0.67659 0.0
H1549 H 0.86494 0.23413 0.63457 0.0
C1550 C 0.88918 0.20216 0.63131 0.0
C1551 C 0.9005 0.18412 0.63296 0.0
C1552 C 0.86763 0.19879 0.65601 0.0
C1553 C 0.88921 0.16219 0.65944 0.0
C1554 C 0.86758 0.15855 0.68384 0.0
C1555 C 0.83519 0.17342 0.70722 0.0
C1556 C 0.82379 0.19141 0.70546 0.0
C1557 C 0.85679 0.17685 0.6826 0.0
C1558 C 0.83514 0.21338 0.67906 0.0
C1559 C 0.85683 0.21708 0.65475 0.0
H1560 H 1.02803 0.55041 0.44438 0.0
H1561 H 0.95607 0.48518 0.50188 0.0
H1562 H 0.98674 0.47754 0.54403 0.0
H1563 H 0.03372 0.48971 0.56516 0.0
H1564 H 0.10583 0.55471 0.50763 0.0
H1565 H 0.07519 0.56254 0.46551 0.0
C1566 C 1.01889 0.53429 0.46587 0.0
C1567 C 0.98951 0.51827 0.46961 0.0
C1568 C 0.03672 0.53032 0.49048 0.0
C1569 C 0.9784 0.49769 0.49797 0.0
C1570 C 0.996 0.49346 0.52231 0.0
C1571 C 0.04294 0.50582 0.54365 0.0
C1572 C 0.07232 0.52172 0.53992 0.0
C1573 C 1.02517 0.50982 0.51905 0.0
C1574 C 0.08349 0.5423 0.51156 0.0
C1575 C 0.06591 0.54662 0.48723 0.0
H1576 H 0.56338 0.55644 0.56189 0.0
H1577 H 0.49668 0.56176 0.50626 0.0
H1578 H 0.48915 0.52343 0.46422 0.0
H1579 H 0.50156 0.48873 0.44305 0.0
H1580 H 0.56801 0.48307 0.49887 0.0
H1581 H 0.57599 0.52183 0.54043 0.0
C1582 C 0.547 0.54918 0.54079 0.0
C1583 C 0.5305 0.56209 0.53757 0.0
C1584 C 0.54305 0.52736 0.51631 0.0
C1585 C 0.50957 0.55227 0.50974 0.0
C1586 C 0.50539 0.53042 0.48548 0.0
C1587 C 0.51803 0.49603 0.46403 0.0
C1588 C 0.53426 0.48284 0.46753 0.0
C1589 C 0.52211 0.51795 0.48835 0.0
C1590 C 0.55532 0.49276 0.49518 0.0
C1591 C 0.55973 0.51483 0.51919 0.0
H1592 H 0.56902 0.02357 0.45833 0.0
H1593 H 0.56023 0.09511 0.48428 0.0
H1594 H 0.51927 0.06554 0.52327 0.0
H1595 H 0.48564 1.01945 0.54888 0.0
H1596 H 0.49481 0.94798 0.52434 0.0
H1597 H 0.53654 0.97774 0.48654 0.0
C1598 C 0.55808 0.03278 0.47222 0.0
C1599 C 0.56758 0.06165 0.46773 0.0
C1600 C 0.53488 1.01572 0.49524 0.0
C1601 C 0.55335 0.07307 0.48681 0.0
C1602 C 0.52998 0.05614 0.50924 0.0
C1603 C 0.49681 1.01028 0.5355 0.0
C1604 C 0.48687 0.9813 0.53939 0.0
C1605 C 0.52056 0.02747 0.51359 0.0
C1606 C 0.50194 0.97008 0.52212 0.0
C1607 C 0.52567 0.9871 0.5002 0.0
H1608 H 0.55743 1.01307 0.06698 0.0
H1609 H 0.49119 0.94187 0.00956 0.0
H1610 H 0.48315 0.97333 0.96936 0.0
H1611 H 0.49574 0.0209 0.94934 0.0
H1612 H 0.56207 0.09206 0.00672 0.0
H1613 H 0.56964 0.06058 0.04751 0.0
C1614 C 0.541 1.00423 0.04593 0.0
C1615 C 0.52486 0.97484 0.04161 0.0
C1616 C 0.53685 0.0225 0.02241 0.0
C1617 C 0.5038 0.96418 0.01394 0.0
C1618 C 0.49936 0.98225 0.99068 0.0
C1619 C 0.51206 0.02972 0.97055 0.0
C1620 C 0.52848 0.05912 0.97455 0.0
C1621 C 0.51599 1.01143 0.99435 0.0
C1622 C 0.54926 0.06975 0.00259 0.0
C1623 C 0.55346 0.05167 0.02614 0.0
H1624 H 1.02665 0.48778 0.94178 0.0
H1625 H 0.95552 0.48679 0.99368 0.0
H1626 H 0.98664 0.52418 0.03658 0.0
H1627 H 0.03365 0.55628 0.0602 0.0
H1628 H 0.10495 0.55756 0.00844 0.0
H1629 H 0.07387 0.52017 0.96534 0.0
C1630 C 1.01782 0.49588 0.96214 0.0
C1631 C 0.98854 0.48438 0.96417 0.0
C1632 C 0.03583 0.517 0.98731 0.0
C1633 C 0.9778 0.49521 0.99112 0.0
C1634 C 0.99563 0.51647 0.01592 0.0
C1635 C 0.04257 0.54831 0.03978 0.0
C1636 C 0.07184 0.55982 0.03792 0.0
C1637 C 1.02462 0.52726 0.01456 0.0
C1638 C 0.08266 0.5491 0.01093 0.0
C1639 C 0.06486 0.52785 0.98601 0.0
H1640 H 0.49508 0.48831 0.06534 0.0
H1641 H 0.49205 0.55615 0.00906 0.0
H1642 H 0.52962 0.56205 0.96668 0.0
H1643 H 0.56243 0.54733 0.94466 0.0
H1644 H 0.56577 0.47969 1.00104 0.0
H1645 H 0.52828 0.47386 0.04364 0.0
C1646 C 0.50272 0.50464 0.04408 0.0
C1647 C 0.49057 0.52189 0.04075 0.0
C1648 C 0.52401 0.50755 0.01929 0.0
C1649 C 0.50095 0.54274 0.01273 0.0
C1650 C 0.52232 0.54594 0.98821 0.0
C1651 C 0.55491 0.53107 0.96601 0.0
C1652 C 0.56703 0.51379 0.96922 0.0
C1653 C 0.53376 0.52825 0.99095 0.0
C1654 C 0.55686 0.4931 0.99745 0.0
C1655 C 0.53554 0.48994 0.02207 0.0
H1656 H 0.3068 0.23364 0.93155 0.0
H1657 H 0.37144 0.26847 0.01658 0.0
H1658 H 0.40691 0.2874 0.96683 0.0
H1659 H 0.41934 0.29453 0.89979 0.0
H1660 H 0.35489 0.2614 0.8144 0.0
H1661 H 0.31932 0.24135 0.86411 0.0
C1662 C 0.32866 0.2452 0.93931 0.0
C1663 C 0.33648 0.24949 0.97787 0.0
C1664 C 0.34886 0.25643 0.91059 0.0
C1665 C 0.36487 0.26485 0.98724 0.0
C1666 C 0.38513 0.27568 0.9588 0.0
C1667 C 0.39752 0.28289 0.89184 0.0
C1668 C 0.38981 0.27943 0.85325 0.0
C1669 C 0.37732 0.27169 0.92045 0.0
C1670 C 0.36141 0.26446 0.84376 0.0
C1671 C 0.3411 0.25294 0.87219 0.0
H1672 H 0.81296 0.08264 0.93365 0.0
H1673 H 0.77914 0.11353 0.01871 0.0
H1674 H 0.76219 0.13221 0.96881 0.0
H1675 H 0.75688 0.13927 0.90144 0.0
H1676 H 0.78902 0.10646 0.81664 0.0
H1677 H 0.80695 0.0889 0.86657 0.0
C1678 C 0.80199 0.09357 0.94147 0.0
C1679 C 0.79745 0.09685 0.97997 0.0
C1680 C 0.79206 0.10381 0.91278 0.0
C1681 C 0.78288 0.11073 0.98937 0.0
C1682 C 0.77325 0.12141 0.96086 0.0
C1683 C 0.76793 0.12839 0.89375 0.0
C1684 C 0.77176 0.12429 0.85527 0.0
C1685 C 0.77773 0.11803 0.92252 0.0
C1686 C 0.7858 0.10986 0.84596 0.0
C1687 C 0.79604 0.09986 0.87448 0.0
H1688 H 0.91189 0.62892 0.90173 0.0
H1689 H 0.94339 0.69336 0.81611 0.0
H1690 H 0.96009 0.72911 0.86561 0.0
H1691 H 0.96612 0.74176 0.93273 0.0
H1692 H 0.9364 0.67731 0.01826 0.0
H1693 H 0.91843 0.64156 0.96877 0.0
C1694 C 0.9223 0.65078 0.89374 0.0
C1695 C 0.92631 0.65849 0.85519 0.0
C1696 C 0.93213 0.67108 0.92223 0.0
C1697 C 0.9401 0.6869 0.84551 0.0
C1698 C 0.9496 0.7073 0.87378 0.0
C1699 C 0.95559 0.71989 0.94068 0.0
C1700 C 0.95249 0.71217 0.97921 0.0
C1701 C 0.94576 0.69958 0.91217 0.0
C1702 C 0.93907 0.68377 0.98887 0.0
C1703 C 0.9288 0.66337 0.9606 0.0
H1704 H 0.2288 0.29533 0.5667 0.0
H1705 H 0.28065 0.35972 0.4867 0.0
H1706 H 0.29904 0.3939 0.53778 0.0
H1707 H 0.30328 0.40452 0.60512 0.0
H1708 H 0.25295 0.34025 0.68594 0.0
H1709 H 0.23078 0.30685 0.63415 0.0
C1710 C 0.24394 0.31689 0.56031 0.0
C1711 C 0.25366 0.32488 0.52297 0.0
C1712 C 0.25481 0.33632 0.58988 0.0
C1713 C 0.27304 0.35296 0.51521 0.0
C1714 C 0.2836 0.3725 0.54439 0.0
C1715 C 0.28743 0.3832 0.61152 0.0
C1716 C 0.28014 0.37469 0.64934 0.0
C1717 C 0.27514 0.36422 0.58185 0.0
C1718 C 0.25911 0.34721 0.65707 0.0
C1719 C 0.24649 0.32815 0.6275 0.0
H1720 H 0.64059 0.89721 0.59902 0.0
H1721 H 0.70613 0.93282 0.68276 0.0
H1722 H 0.74116 0.94793 0.63258 0.0
H1723 H 0.75289 0.95306 0.56523 0.0
H1724 H 0.6873 0.92003 0.48145 0.0
H1725 H 0.6523 0.90163 0.53178 0.0
C1726 C 0.66253 0.90808 0.60643 0.0
C1727 C 0.67079 0.91396 0.64458 0.0
C1728 C 0.68243 0.91721 0.57752 0.0
C1729 C 0.69929 0.92819 0.6536 0.0
C1730 C 0.71928 0.9368 0.62495 0.0
C1731 C 0.73094 0.94163 0.55789 0.0
C1732 C 0.72265 0.93794 0.51966 0.0
C1733 C 0.71105 0.93173 0.58685 0.0
C1734 C 0.69416 0.92325 0.51067 0.0
C1735 C 0.67419 0.91274 0.5394 0.0
H1736 H 0.0986 0.81387 0.56553 0.0
H1737 H 0.13178 0.78141 0.4818 0.0
H1738 H 0.15039 0.7649 0.53211 0.0
H1739 H 0.15457 0.75726 0.59938 0.0
H1740 H 0.11861 0.78692 0.68303 0.0
H1741 H 0.10375 0.80719 0.6329 0.0
C1742 C 0.11018 0.80347 0.55822 0.0
C1743 C 0.11381 0.79881 0.52001 0.0
C1744 C 0.12011 0.79343 0.58717 0.0
C1745 C 0.12863 0.78509 0.51102 0.0
C1746 C 0.13924 0.77567 0.53973 0.0
C1747 C 0.14372 0.7684 0.60675 0.0
C1748 C 0.13762 0.77055 0.64486 0.0
C1749 C 0.13469 0.77935 0.57785 0.0
C1750 C 0.12338 0.78486 0.65388 0.0
C1751 C 0.11491 0.79644 0.62526 0.0
H1752 H 0.63775 0.74397 0.10097 0.0
H1753 H 0.70387 0.77759 0.18395 0.0
H1754 H 0.73848 0.79622 0.13319 0.0
H1755 H 0.74998 0.80258 0.06574 0.0
H1756 H 0.6843 0.76774 0.9822 0.0
H1757 H 0.64942 0.74993 0.03294 0.0
C1758 C 0.65973 0.75545 0.10806 0.0
C1759 C 0.66813 0.75941 0.14645 0.0
C1760 C 0.67956 0.76583 0.07866 0.0
C1761 C 0.69675 0.77416 0.15485 0.0
C1762 C 0.71656 0.78485 0.12578 0.0
C1763 C 0.72804 0.79116 0.05839 0.0
C1764 C 0.71985 0.78662 0.01995 0.0
C1765 C 0.7082 0.78075 0.08765 0.0
C1766 C 0.69127 0.77156 0.01136 0.0
C1767 C 0.67132 0.76139 0.04042 0.0
H1768 H 0.24298 0.95656 0.06793 0.0
H1769 H 0.27502 0.92403 0.98264 0.0
H1770 H 0.29217 0.90546 0.03225 0.0
H1771 H 0.29898 0.89962 0.09946 0.0
H1772 H 0.26895 0.93422 0.1846 0.0
H1773 H 0.24993 0.95089 0.13503 0.0
C1774 C 0.25357 0.94527 0.06006 0.0
C1775 C 0.25768 0.94162 0.02157 0.0
C1776 C 0.26375 0.93513 0.08862 0.0
C1777 C 0.27167 0.92717 0.01201 0.0
C1778 C 0.28144 0.91655 0.04035 0.0
C1779 C 0.28812 0.91065 0.10728 0.0
C1780 C 0.28531 0.91562 0.14572 0.0
C1781 C 0.27772 0.92057 0.0787 0.0
C1782 C 0.27145 0.9302 0.15525 0.0
C1783 C 0.26056 0.9397 0.12694 0.0
H1784 H 0.16103 0.40712 0.10772 0.0
H1785 H 0.10304 0.34621 0.18694 0.0
H1786 H 0.08323 0.31177 0.13609 0.0
H1787 H 0.08058 0.3 0.06896 0.0
H1788 H 0.1376 0.36123 0.98931 0.0
H1789 H 0.15967 0.39468 0.04094 0.0
C1790 C 0.14416 0.38627 0.11407 0.0
C1791 C 0.13337 0.37936 0.15115 0.0
C1792 C 0.13259 0.36677 0.08464 0.0
C1793 C 0.11168 0.35215 0.15872 0.0
C1794 C 0.10028 0.33248 0.12962 0.0
C1795 C 0.09786 0.32065 0.06275 0.0
C1796 C 0.1072 0.32821 0.02516 0.0
C1797 C 0.11026 0.33975 0.09242 0.0
C1798 C 0.12986 0.35494 0.01787 0.0
C1799 C 0.14248 0.37405 0.04738 0.0
H1800 H 0.81522 0.74175 0.43483 0.0
H1801 H 0.77941 0.67527 0.51745 0.0
H1802 H 0.7625 0.64075 0.46649 0.0
H1803 H 0.75709 0.62967 0.39917 0.0
H1804 H 0.79115 0.69584 0.31601 0.0
H1805 H 0.80962 0.73053 0.36697 0.0
C1806 C 0.80385 0.7197 0.44181 0.0
C1807 C 0.79863 0.71109 0.48002 0.0
C1808 C 0.79382 0.70004 0.41239 0.0
C1809 C 0.78367 0.68245 0.48839 0.0
C1810 C 0.774 0.66274 0.45926 0.0
C1811 C 0.76863 0.65167 0.39195 0.0
C1812 C 0.77275 0.66013 0.35366 0.0
C1813 C 0.77883 0.67134 0.42124 0.0
C1814 C 0.78761 0.68876 0.34513 0.0
C1815 C 0.79819 0.70856 0.37427 0.0
H1816 H 0.30401 0.07606 0.43751 0.0
H1817 H 0.37008 0.11443 0.52026 0.0
H1818 H 0.40449 0.13385 0.46941 0.0
H1819 H 0.41567 0.1392 0.40238 0.0
H1820 H 0.35029 0.09948 0.31898 0.0
H1821 H 0.31542 0.08127 0.36972 0.0
C1822 C 0.32594 0.08875 0.44449 0.0
C1823 C 0.33452 0.09382 0.48266 0.0
C1824 C 0.34558 0.09953 0.41518 0.0
C1825 C 0.36298 0.11013 0.49116 0.0
C1826 C 0.38263 0.12127 0.46213 0.0
C1827 C 0.39379 0.12667 0.39504 0.0
C1828 C 0.38556 0.12074 0.35684 0.0
C1829 C 0.37412 0.116 0.42415 0.0
C1830 C 0.35714 0.1043 0.34811 0.0
C1831 C 0.33726 0.09391 0.37709 0.0
H1832 H 0.96417 0.23324 0.43609 0.0
H1833 H 0.93488 0.26914 0.52039 0.0
H1834 H 0.91592 0.28552 0.47018 0.0
H1835 H 0.90867 0.29028 0.40262 0.0
H1836 H 0.94016 0.25625 0.31869 0.0
H1837 H 0.95731 0.23826 0.369 0.0
C1838 C 0.95353 0.24454 0.44369 0.0
C1839 C 0.95086 0.2499 0.48204 0.0
C1840 C 0.94315 0.25417 0.41483 0.0
C1841 C 0.93725 0.2648 0.49115 0.0
C1842 C 0.9264 0.27411 0.46247 0.0
C1843 C 0.91911 0.27875 0.39526 0.0
C1844 C 0.92304 0.27447 0.35691 0.0
C1845 C 0.92935 0.26898 0.42425 0.0
C1846 C 0.93692 0.25982 0.34793 0.0
C1847 C 0.9467 0.24955 0.37666 0.0
H1848 H 0.08599 0.61962 0.23421 0.0
H1849 H 1.02086 0.59406 0.15047 0.0
H1850 H 0.98564 0.57469 0.20063 0.0
H1851 H 0.9737 0.56674 0.26827 0.0
H1852 H 0.03931 0.59488 0.35167 0.0
H1853 H 0.0742 0.61152 0.30124 0.0
C1854 C 0.06409 0.60969 0.22672 0.0
C1855 C 0.05607 0.60831 0.18854 0.0
C1856 C 0.04413 0.59914 0.25561 0.0
C1857 C 1.0276 0.59549 0.17959 0.0
C1858 C 1.00748 0.58441 0.20825 0.0
C1859 C 0.99563 0.57628 0.27544 0.0
C1860 C 1.00394 0.57953 0.3137 0.0
C1861 C 1.01556 0.58635 0.24636 0.0
C1862 C 0.03242 0.59222 0.32249 0.0
C1863 C 0.05234 0.60172 0.29368 0.0
H1864 H 0.48297 0.41722 0.26956 0.0
H1865 H 0.45316 0.45324 0.35294 0.0
H1866 H 0.43578 0.47081 0.30242 0.0
H1867 H 0.42777 0.47446 0.23534 0.0
H1868 H 0.45525 0.43645 0.15172 0.0
H1869 H 0.47498 0.42101 0.20202 0.0
C1870 C 0.47287 0.42912 0.27674 0.0
C1871 C 0.46939 0.43399 0.31499 0.0
C1872 C 0.46244 0.43859 0.24766 0.0
C1873 C 0.45601 0.44917 0.32377 0.0
C1874 C 0.44609 0.45919 0.29492 0.0
C1875 C 0.43817 0.4629 0.22791 0.0
C1876 C 0.44003 0.45659 0.18974 0.0
C1877 C 0.44898 0.45378 0.25686 0.0
C1878 C 0.45345 0.44146 0.18085 0.0
C1879 C 0.46474 0.43269 0.20957 0.0
H1880 H 0.63032 0.07486 0.26742 0.0
H1881 H 0.59451 1.00979 0.35194 0.0
H1882 H 0.57657 0.9744 0.3021 0.0
H1883 H 0.57277 0.96207 0.23525 0.0
H1884 H 0.61081 0.02674 0.15046 0.0
H1885 H 0.62625 0.06239 0.20002 0.0
C1886 C 0.61836 0.05293 0.27497 0.0
C1887 C 0.61368 0.04492 0.31336 0.0
C1888 C 0.60871 0.03274 0.24623 0.0
C1889 C 0.59843 1.01645 0.32264 0.0
C1890 C 0.5882 0.99625 0.29417 0.0
C1891 C 0.58432 0.98396 0.22741 0.0
C1892 C 0.59066 0.99174 0.18912 0.0
C1893 C 0.59349 1.00418 0.25597 0.0
C1894 C 0.60577 0.0202 0.17969 0.0
C1895 C 0.61455 0.04055 0.208 0.0
H1896 H 0.42036 0.96668 0.73462 0.0
H1897 H 0.46941 0.03143 0.65369 0.0
H1898 H 0.49243 0.06452 0.70552 0.0
H1899 H 0.49566 0.07566 0.7733 0.0
H1900 H 0.4453 1.01073 0.85349 0.0
H1901 H 0.42591 0.97689 0.80213 0.0
C1902 C 0.4361 0.98804 0.72821 0.0
C1903 C 0.44279 0.99677 0.69037 0.0
C1904 C 0.44898 1.00684 0.75794 0.0
C1905 C 0.46369 0.0243 0.6826 0.0
C1906 C 0.47682 0.0432 0.71219 0.0
C1907 C 0.4807 0.05404 0.77965 0.0
C1908 C 0.47167 0.04581 0.81717 0.0
C1909 C 0.46922 0.03479 0.74992 0.0
C1910 C 0.4524 1.01768 0.82486 0.0
C1911 C 0.44125 0.99833 0.79551 0.0
H1912 H 0.08449 0.47532 0.73882 0.0
H1913 H 1.01927 0.43807 0.65482 0.0
H1914 H 0.98412 0.42009 0.70498 0.0
H1915 H 0.97234 0.41331 0.77233 0.0
H1916 H 0.03784 0.44872 0.85618 0.0
H1917 H 0.07271 0.46911 0.80599 0.0
C1918 C 0.06258 0.46348 0.73136 0.0
C1919 C 0.05445 0.45798 0.69315 0.0
C1920 C 0.04266 0.45273 0.76022 0.0
C1921 C 1.02601 0.44247 0.68405 0.0
C1922 C 1.00595 0.43218 0.71267 0.0
C1923 C 0.99423 0.42557 0.77971 0.0
C1924 C 1.00252 0.4294 0.81794 0.0
C1925 C 1.0141 0.43689 0.75082 0.0
C1926 C 0.03096 0.44529 0.82697 0.0
C1927 C 0.05087 0.45701 0.79833 0.0
H1928 H 0.5751 0.62062 0.73934 0.0
H1929 H 0.61356 0.59375 0.65563 0.0
H1930 H 0.63109 0.57613 0.70602 0.0
H1931 H 0.63627 0.56946 0.77346 0.0
H1932 H 0.59961 0.59828 0.85724 0.0
H1933 H 0.5805 0.61419 0.80677 0.0
C1934 C 0.58715 0.61074 0.73196 0.0
C1935 C 0.59293 0.6084 0.69365 0.0
C1936 C 0.59755 0.60118 0.76101 0.0
C1937 C 0.60884 0.59582 0.6848 0.0
C1938 C 0.61885 0.58577 0.7136 0.0
C1939 C 0.62401 0.57911 0.78083 0.0
C1940 C 0.61933 0.58263 0.81919 0.0
C1941 C 0.61346 0.58851 0.75176 0.0
C1942 C 0.60359 0.5954 0.82804 0.0
C1943 C 0.59263 0.60444 0.79919 0.0
H1944 H 0.21241 0.21006 0.30936 0.0
H1945 H 0.27443 0.29763 0.31035 0.0
H1946 H 0.2909 0.29316 0.24802 0.0
H1947 H 0.28641 0.26447 0.1918 0.0
H1948 H 0.22285 0.17747 0.19105 0.0
H1949 H 0.20853 0.18158 0.25471 0.0
C1950 C 0.22957 0.22818 0.29604 0.0
C1951 C 0.24198 0.25413 0.31436 0.0
C1952 C 0.23875 0.22556 0.26016 0.0
C1953 C 0.26427 0.2774 0.29667 0.0
C1954 C 0.2738 0.27487 0.26107 0.0
C1955 C 0.26968 0.24645 0.20589 0.0
C1956 C 0.25564 0.22079 0.18686 0.0
C1957 C 0.26105 0.24907 0.24237 0.0
C1958 C 0.23379 0.19754 0.20511 0.0
C1959 C 0.22558 0.19983 0.2415 0.0
H1960 H 0.78749 0.03441 0.191 0.0
H1961 H 0.87371 0.05523 0.19079 0.0
H1962 H 0.86816 0.03436 0.25321 0.0
H1963 H 0.83871 1.00891 0.30684 0.0
H1964 H 0.75191 0.98612 0.30701 0.0
H1965 H 0.75776 1.00888 0.24567 0.0
C1966 C 0.80506 0.0346 0.20492 0.0
C1967 C 0.83093 0.04632 0.18644 0.0
C1968 C 0.80159 0.02198 0.2406 0.0
C1969 C 0.85352 0.04617 0.20443 0.0
C1970 C 0.85039 0.03425 0.24011 0.0
C1971 C 0.82104 1.0089 0.29352 0.0
C1972 C 0.79491 0.99569 0.31139 0.0
C1973 C 0.82447 0.02181 0.25824 0.0
C1974 C 0.77224 0.99592 0.29369 0.0
C1975 C 0.77557 1.00904 0.25868 0.0
H1976 H 1.01406 0.76241 0.1906 0.0
H1977 H 0.99013 0.8257 0.19273 0.0
H1978 H 1.00991 0.84004 0.2558 0.0
H1979 H 0.03567 0.83621 0.30885 0.0
H1980 H 0.06188 0.7746 0.30701 0.0
H1981 H 0.03962 0.75804 0.24527 0.0
C1982 C 1.01294 0.77908 0.20521 0.0
C1983 C 1.00075 0.79302 0.18722 0.0
C1984 C 1.02498 0.78771 0.24124 0.0
C1985 C 0.99963 0.81482 0.20604 0.0
C1986 C 1.01091 0.82304 0.24206 0.0
C1987 C 0.03651 0.8191 0.29507 0.0
C1988 C 0.05057 0.8068 0.31237 0.0
C1989 C 1.02398 0.80992 0.25965 0.0
C1990 C 0.05139 0.78462 0.29409 0.0
C1991 C 0.03859 0.77507 0.25887 0.0
H1992 H 0.8457 0.829 0.69112 0.0
H1993 H 0.7829 0.74173 0.69463 0.0
H1994 H 0.76552 0.74891 0.7547 0.0
H1995 H 0.76924 0.77989 0.80769 0.0
H1996 H 0.83363 0.86649 0.80462 0.0
H1997 H 0.84892 0.85977 0.74278 0.0
C1998 C 0.82821 0.81151 0.70496 0.0
C1999 C 0.81584 0.78484 0.68847 0.0
C2000 C 0.81841 0.81572 0.73955 0.0
C2001 C 0.79308 0.76246 0.70685 0.0
C2002 C 0.783 0.76656 0.74115 0.0
C2003 C 0.78631 0.79729 0.7931 0.0
C2004 C 0.80024 0.82363 0.81054 0.0
C2005 C 0.79559 0.79309 0.75791 0.0
C2006 C 0.82262 0.84599 0.79172 0.0
C2007 C 0.83144 0.84216 0.75643 0.0
H2008 H 0.27163 1.00747 0.81299 0.0
H2009 H 0.18296 0.97457 0.80379 0.0
H2010 H 0.189 0.99591 0.74149 0.0
H2011 H 0.21944 0.02595 0.69171 0.0
H2012 H 0.30853 0.061 0.70105 0.0
H2013 H 0.30243 0.03702 0.76145 0.0
C2014 C 0.25372 1.00466 0.79687 0.0
C2015 C 0.22695 0.98954 0.81251 0.0
C2016 C 0.25743 1.01773 0.76158 0.0
C2017 C 0.20377 0.98624 0.79201 0.0
C2018 C 0.2072 0.99849 0.75657 0.0
C2019 C 0.23758 0.02846 0.70694 0.0
C2020 C 0.26438 0.04549 0.69215 0.0
C2021 C 0.23396 1.01474 0.74148 0.0
C2022 C 0.28764 0.04825 0.71209 0.0
C2023 C 0.28418 0.03443 0.74651 0.0
H2024 H 0.99495 0.25412 0.70183 0.0
H2025 H 1.01654 0.1898 0.68448 0.0
H2026 H 0.03883 0.19953 0.74607 0.0
H2027 H 0.05262 0.22612 0.80439 0.0
H2028 H 0.03193 0.29081 0.82335 0.0
H2029 H 1.00876 0.28096 0.76165 0.0
C2030 C 1.00442 0.24217 0.71163 0.0
C2031 C 1.00398 0.22124 0.68846 0.0
C2032 C 1.01742 0.24792 0.7473 0.0
C2033 C 1.01649 0.20603 0.70157 0.0
C2034 C 0.02931 0.21157 0.73686 0.0
C2035 C 0.04317 0.23822 0.79509 0.0
C2036 C 0.0441 0.25921 0.81845 0.0
C2037 C 0.03 0.2325 0.75982 0.0
C2038 C 0.03149 0.27447 0.80596 0.0
C2039 C 1.01826 0.26887 0.77066 0.0
H2040 H 0.93701 0.61 0.64518 0.0
H2041 H 0.85161 0.54282 0.6423 0.0
H2042 H 0.85872 0.52937 0.57948 0.0
H2043 H 0.8892 0.53545 0.52674 0.0
H2044 H 0.97535 0.60105 0.52911 0.0
H2045 H 0.96801 0.6163 0.59101 0.0
C2046 C 0.91997 0.59265 0.63046 0.0
C2047 C 0.89385 0.57743 0.6481 0.0
C2048 C 0.92438 0.58458 0.59461 0.0
C2049 C 0.87194 0.55473 0.62922 0.0
C2050 C 0.87597 0.54702 0.59337 0.0
C2051 C 0.90644 0.55314 0.54066 0.0
C2052 C 0.93279 0.56702 0.52344 0.0
C2053 C 0.90215 0.56158 0.57605 0.0
C2054 C 0.95488 0.58986 0.54196 0.0
C2055 C 0.95068 0.59865 0.57724 0.0
H2056 H 0.5171 0.36464 0.52734 0.0
H2057 H 0.45161 0.38546 0.52905 0.0
H2058 H 0.43516 0.36154 0.58986 0.0
H2059 H 0.44008 0.33534 0.64327 0.0
H2060 H 0.50715 0.31686 0.64176 0.0
H2061 H 0.522 0.33886 0.57981 0.0
C2062 C 0.49921 0.36399 0.54093 0.0
C2063 C 0.4857 0.37694 0.52375 0.0
C2064 C 0.49 0.3504 0.57581 0.0
C2065 C 0.46256 0.37587 0.54185 0.0
C2066 C 0.45304 0.36207 0.57652 0.0
C2067 C 0.45771 0.33589 0.62905 0.0
C2068 C 0.47245 0.32445 0.64684 0.0
C2069 C 0.46664 0.34928 0.5938 0.0
C2070 C 0.49553 0.3256 0.62855 0.0
C2071 C 0.50406 0.3382 0.5932 0.0
H2072 H 0.68724 0.16179 0.52452 0.0
H2073 H 0.66312 0.07452 0.5282 0.0
H2074 H 0.68571 0.08136 0.58993 0.0
H2075 H 0.7112 0.11216 0.64395 0.0
H2076 H 0.73303 0.19877 0.63998 0.0
H2077 H 0.71272 0.1922 0.57704 0.0
C2078 C 0.6869 0.14421 0.53871 0.0
C2079 C 0.67336 0.11767 0.52187 0.0
C2080 C 0.69966 0.14821 0.57412 0.0
C2081 C 0.6732 0.09516 0.54072 0.0
C2082 C 0.6862 0.09906 0.57594 0.0
C2083 C 0.71175 0.12957 0.62896 0.0
C2084 C 0.72356 0.15588 0.64639 0.0
C2085 C 0.69939 0.1255 0.59302 0.0
C2086 C 0.72389 0.17828 0.6271 0.0
C2087 C 0.71229 0.17456 0.59117 0.0
H2088 H 0.4351 0.11086 0.14655 0.0
H2089 H 0.50151 0.19675 0.14483 0.0
H2090 H 0.51546 0.19033 0.082 0.0
H2091 H 0.51013 0.16025 0.02909 0.0
H2092 H 0.44537 0.07364 0.0304 0.0
H2093 H 0.42943 0.08037 0.0921 0.0
C2094 C 0.4524 0.12816 0.13209 0.0
C2095 C 0.46729 0.15419 0.15005 0.0
C2096 C 0.46074 0.12416 0.09625 0.0
C2097 C 0.48988 0.17646 0.1315 0.0
C2098 C 0.49787 0.17283 0.09564 0.0
C2099 C 0.49247 0.14279 0.04272 0.0
C2100 C 0.47904 0.11648 0.02533 0.0
C2101 C 0.48368 0.14672 0.07802 0.0
C2102 C 0.45619 0.09409 0.04343 0.0
C2103 C 0.44703 0.09794 0.07859 0.0
H2104 H 0.94206 0.34652 0.14829 0.0
H2105 H 0.85277 0.30633 0.13627 0.0
H2106 H 0.8579 0.32711 0.07372 0.0
H2107 H 0.88755 0.35882 0.0246 0.0
H2108 H 0.97707 0.40094 0.03681 0.0
H2109 H 0.97212 0.37753 0.09732 0.0
C2110 C 0.92387 0.34201 0.13147 0.0
C2111 C 0.89715 0.32503 0.14635 0.0
C2112 C 0.92699 0.35474 0.09606 0.0
C2113 C 0.87355 0.31948 0.125 0.0
C2114 C 0.87645 0.33141 0.08945 0.0
C2115 C 0.906 0.36301 0.04052 0.0
C2116 C 0.93256 0.38184 0.0265 0.0
C2117 C 0.90305 0.34955 0.07511 0.0
C2118 C 0.9563 0.38673 0.04724 0.0
C2119 C 0.95353 0.37326 0.08174 0.0
H2120 H 0.7509 0.60157 0.11359 0.0
H2121 H 0.67929 0.55609 0.18555 0.0
H2122 H 0.64819 0.54316 0.13077 0.0
H2123 H 0.64168 0.54219 0.06162 0.0
H2124 H 0.71371 0.58213 0.98919 0.0
H2125 H 0.74442 0.60011 0.04439 0.0
C2126 C 0.72848 0.58907 0.11701 0.0
C2127 C 0.71717 0.57978 0.15307 0.0
C2128 C 0.71089 0.58074 0.08526 0.0
C2129 C 0.68821 0.56327 0.15766 0.0
C2130 C 0.67049 0.55593 0.12648 0.0
C2131 C 0.66407 0.55515 0.05824 0.0
C2132 C 0.67563 0.56141 0.02191 0.0
C2133 C 0.6816 0.56416 0.09005 0.0
C2134 C 0.7046 0.57755 0.01728 0.0
C2135 C 0.7221 0.58768 0.04871 0.0
H2136 H 0.55429 0.87191 0.85644 0.0
H2137 H 0.64077 0.93669 0.85647 0.0
H2138 H 0.63514 0.95177 0.91929 0.0
H2139 H 0.60583 0.94513 0.97554 0.0
H2140 H 0.52007 0.8787 0.9753 0.0
H2141 H 0.52519 0.86589 0.91113 0.0
C2142 C 0.57192 0.8894 0.87006 0.0
C2143 C 0.59792 0.903 0.85194 0.0
C2144 C 0.56864 0.89771 0.90618 0.0
C2145 C 0.62054 0.92566 0.87002 0.0
C2146 C 0.61734 0.93436 0.90588 0.0
C2147 C 0.58828 0.92811 0.96113 0.0
C2148 C 0.56269 0.91284 0.97998 0.0
C2149 C 0.59152 0.92037 0.9244 0.0
C2150 C 0.54007 0.8906 0.96135 0.0
C2151 C 0.54294 0.88326 0.92469 0.0
H2152 H 0.10274 0.67087 0.97536 0.0
H2153 H 0.16736 0.64887 0.97305 0.0
H2154 H 0.18042 0.66755 0.90923 0.0
H2155 H 0.17532 0.69218 0.85567 0.0
H2156 H 0.11239 0.71654 0.85765 0.0
H2157 H 0.09685 0.69494 0.91997 0.0
C2158 C 0.11941 0.66992 0.96055 0.0
C2159 C 0.13413 0.65865 0.97873 0.0
C2160 C 0.12731 0.68134 0.92405 0.0
C2161 C 0.1559 0.65771 0.95962 0.0
C2162 C 0.16339 0.66836 0.92316 0.0
C2163 C 0.15814 0.69272 0.86959 0.0
C2164 C 0.14521 0.70614 0.85218 0.0
C2165 C 0.14956 0.68062 0.90539 0.0
C2166 C 0.1229 0.70655 0.87064 0.0
C2167 C 0.11394 0.69415 0.90621 0.0
H2168 H 0.39066 0.44641 0.97259 0.0
H2169 H 0.3862 0.52215 0.97963 0.0
H2170 H 0.36482 0.51332 0.91748 0.0
H2171 H 0.34604 0.48379 0.8622 0.0
H2172 H 0.34971 0.40782 0.85353 0.0
H2173 H 0.37284 0.41712 0.91521 0.0
C2174 C 0.38524 0.46106 0.96028 0.0
C2175 C 0.38989 0.48478 0.98077 0.0
C2176 C 0.37265 0.45578 0.92442 0.0
C2177 C 0.38265 0.50357 0.96461 0.0
C2178 C 0.37041 0.49859 0.92904 0.0
C2179 C 0.35178 0.46917 0.87383 0.0
C2180 C 0.34599 0.44509 0.85357 0.0
C2181 C 0.365 0.47464 0.90897 0.0
C2182 C 0.35394 0.42655 0.86871 0.0
C2183 C 0.36714 0.43184 0.90393 0.0
H2184 H 0.17215 0.5024 0.48211 0.0
H2185 H 0.08529 0.43858 0.48219 0.0
H2186 H 0.09077 0.42254 0.42007 0.0
H2187 H 0.12004 0.42795 0.36435 0.0
H2188 H 0.20627 0.49328 0.36428 0.0
H2189 H 0.20128 0.50719 0.42783 0.0
C2190 C 0.15442 0.48493 0.46863 0.0
C2191 C 0.12835 0.47188 0.48659 0.0
C2192 C 0.15761 0.47601 0.43287 0.0
C2193 C 0.10558 0.44922 0.46874 0.0
C2194 C 0.10868 0.43994 0.43328 0.0
C2195 C 0.13772 0.44498 0.37856 0.0
C2196 C 0.1634 0.45962 0.35978 0.0
C2197 C 0.13457 0.45334 0.41491 0.0
C2198 C 0.18619 0.48186 0.37816 0.0
C2199 C 0.18339 0.48983 0.41448 0.0
H2200 H 0.61718 0.74146 0.39034 0.0
H2201 H 0.56878 0.66593 0.3264 0.0
H2202 H 0.55587 0.63824 0.38459 0.0
H2203 H 0.55607 0.63577 0.45418 0.0
H2204 H 0.60032 0.71149 0.51893 0.0
H2205 H 0.61719 0.73895 0.46043 0.0
C2206 C 0.60414 0.71892 0.38939 0.0
C2207 C 0.59412 0.70556 0.35445 0.0
C2208 C 0.59587 0.70327 0.42315 0.0
C2209 C 0.57677 0.67646 0.35322 0.0
C2210 C 0.56934 0.66068 0.3864 0.0
C2211 C 0.56953 0.65827 0.45522 0.0
C2212 C 0.5771 0.67177 0.49034 0.0
C2213 C 0.57838 0.67387 0.42158 0.0
C2214 C 0.59431 0.70087 0.49187 0.0
C2215 C 0.60393 0.7165 0.45853 0.0
H2216 H 0.38394 0.89251 0.47221 0.0
H2217 H 0.36791 0.96061 0.48876 0.0
H2218 H 0.34586 0.95183 0.42632 0.0
H2219 H 0.332 0.92505 0.36632 0.0
H2220 H 0.34917 0.85739 0.35181 0.0
H2221 H 0.36996 0.86596 0.41415 0.0
C2222 C 0.37574 0.90557 0.46223 0.0
C2223 C 0.3777 0.92723 0.48502 0.0
C2224 C 0.36328 0.90051 0.42659 0.0
C2225 C 0.36666 0.94373 0.47173 0.0
C2226 C 0.35409 0.93876 0.43603 0.0
C2227 C 0.34019 0.91216 0.37693 0.0
C2228 C 0.33901 0.89067 0.35429 0.0
C2229 C 0.35237 0.91722 0.41311 0.0
C2230 C 0.34981 0.87416 0.36843 0.0
C2231 C 0.36175 0.87899 0.40417 0.0
H2232 H 0.288 0.30303 0.11867 0.0
H2233 H 0.29861 0.3099 0.99734 0.0
H2234 H 0.32082 0.3608 1.00208 0.0
H2235 H 0.34365 0.40293 0.04151 0.0
H2236 H 0.33576 0.39587 0.16321 0.0
H2237 H 0.3056 0.34527 0.15747 0.0
C2238 C 0.29474 0.31562 0.09313 0.0
C2239 C 0.29215 0.30274 0.05771 0.0
C2240 C 0.30823 0.34478 0.09625 0.0
C2241 C 0.30046 0.31927 0.02489 0.0
C2242 C 0.31336 0.34838 0.02767 0.0
C2243 C 0.33502 0.39039 0.06684 0.0
C2244 C 0.34245 0.40311 0.10287 0.0
C2245 C 0.31839 0.36132 0.06333 0.0
C2246 C 0.33058 0.38664 0.13524 0.0
C2247 C 0.31347 0.35769 0.13194 0.0
H2248 H 0.64686 0.94789 0.04502 0.0
H2249 H 0.65294 0.95202 0.16695 0.0
H2250 H 0.70372 0.97404 0.16244 0.0
H2251 H 0.74619 0.99814 0.12386 0.0
H2252 H 0.74007 0.99611 1.00192 0.0
H2253 H 0.68937 0.96677 0.00646 0.0
C2254 C 0.65924 0.9532 0.0707 0.0
C2255 C 0.64612 0.94877 0.10633 0.0
C2256 C 0.68839 0.96643 0.06783 0.0
C2257 C 0.66244 0.9553 0.13923 0.0
C2258 C 0.69151 0.96807 0.13662 0.0
C2259 C 0.73383 0.99092 0.09819 0.0
C2260 C 0.74691 0.99976 0.06254 0.0
C2261 C 0.7047 0.97468 0.10107 0.0
C2262 C 0.73061 0.98977 0.02965 0.0
C2263 C 0.70158 0.97315 0.03227 0.0
H2264 H 0.05035 0.75796 0.1237 0.0
H2265 H 0.0523 0.75442 1.00171 0.0
H2266 H 0.08114 0.7324 0.00584 0.0
H2267 H 0.09969 0.70816 0.04404 0.0
H2268 H 0.09586 0.70979 0.16602 0.0
H2269 H 0.07416 0.73896 0.16193 0.0
C2270 C 0.05746 0.7528 0.09793 0.0
C2271 C 0.04875 0.75742 0.06238 0.0
C2272 C 0.07345 0.73956 0.10057 0.0
C2273 C 0.05856 0.75104 0.02937 0.0
C2274 C 0.07489 0.73825 0.03176 0.0
C2275 C 0.09452 0.71525 0.06982 0.0
C2276 C 0.09896 0.70637 0.10535 0.0
C2277 C 0.08152 0.73147 0.06719 0.0
C2278 C 0.09259 0.71618 0.13838 0.0
C2279 C 0.08 0.73271 0.13601 0.0
H2280 H 0.4121 0.33617 0.46069 0.0
H2281 H 0.40689 0.33205 0.33868 0.0
H2282 H 0.35623 0.30194 0.34279 0.0
H2283 H 0.31343 0.28294 0.38069 0.0
H2284 H 0.3185 0.28922 0.50255 0.0
H2285 H 0.36942 0.31198 0.49888 0.0
C2286 C 0.39995 0.32837 0.43492 0.0
C2287 C 0.41323 0.3368 0.39933 0.0
C2288 C 0.37086 0.31165 0.43754 0.0
C2289 C 0.39724 0.32604 0.36634 0.0
C2290 C 0.36825 0.30897 0.36872 0.0
C2291 C 0.32564 0.28886 0.40656 0.0
C2292 C 0.31222 0.28483 0.44189 0.0
C2293 C 0.35482 0.30256 0.40411 0.0
C2294 C 0.32827 0.29213 0.47508 0.0
C2295 C 0.3574 0.30536 0.47292 0.0
H2296 H 0.76264 0.03658 0.37448 0.0
H2297 H 0.76187 0.04088 0.49649 0.0
H2298 H 0.74056 0.07041 0.49243 0.0
H2299 H 0.71584 0.08852 0.45462 0.0
H2300 H 0.71408 0.08176 0.33279 0.0
H2301 H 0.74324 0.06001 0.33633 0.0
C2302 C 0.75821 0.04431 0.40026 0.0
C2303 C 0.76332 0.03606 0.43584 0.0
C2304 C 0.74533 0.06061 0.39767 0.0
C2305 C 0.75801 0.04675 0.46884 0.0
C2306 C 0.74565 0.06348 0.46648 0.0
C2307 C 0.72221 0.08271 0.42873 0.0
C2308 C 0.71236 0.08627 0.39346 0.0
C2309 C 0.73824 0.06955 0.43111 0.0
C2310 C 0.72125 0.07916 0.36022 0.0
C2311 C 0.73773 0.06652 0.36231 0.0
H2312 H 1.01044 0.73781 0.37962 0.0
H2313 H 1.01142 0.73178 0.50141 0.0
H2314 H 0.9824 0.68084 0.49699 0.0
H2315 H 0.96335 0.63837 0.45819 0.0
H2316 H 0.96565 0.64447 0.33623 0.0
H2317 H 0.98654 0.69529 0.34104 0.0
C2318 C 1.00396 0.72542 0.40534 0.0
C2319 C 1.01353 0.73859 0.44088 0.0
C2320 C 0.98815 0.69622 0.40242 0.0
C2321 C 1.00447 0.72226 0.47382 0.0
C2322 C 0.98808 0.69311 0.4712 0.0
C2323 C 0.96803 0.65074 0.43254 0.0
C2324 C 0.96339 0.63762 0.39676 0.0
C2325 C 0.98081 0.6799 0.4356 0.0
C2326 C 0.96906 0.65394 0.36399 0.0
C2327 C 0.9812 0.68302 0.36681 0.0
H2328 H 0.72297 0.64885 0.85901 0.0
H2329 H 0.71223 0.62624 0.97722 0.0
H2330 H 0.7402 0.67481 0.99538 0.0
H2331 H 0.76029 0.72441 0.97829 0.0
H2332 H 0.77217 0.74741 0.86022 0.0
H2333 H 0.75193 0.69873 0.84185 0.0
C2334 C 0.72753 0.6545 0.8886 0.0
C2335 C 0.71496 0.63383 0.91656 0.0
C2336 C 0.74353 0.68289 0.89919 0.0
C2337 C 0.72126 0.64167 0.95493 0.0
C2338 C 0.73721 0.66959 0.96553 0.0
C2339 C 0.75927 0.71884 0.94866 0.0
C2340 C 0.76701 0.73951 0.92081 0.0
C2341 C 0.74733 0.69054 0.93801 0.0
C2342 C 0.7657 0.73184 0.8824 0.0
C2343 C 0.75405 0.70391 0.87171 0.0
H2344 H 0.31241 0.03456 0.87335 0.0
H2345 H 0.31742 0.04596 0.99464 0.0
H2346 H 0.36804 0.07565 0.99 0.0
H2347 H 0.4109 0.09247 0.95289 0.0
H2348 H 0.40633 0.07878 0.83224 0.0
H2349 H 0.35534 0.05635 0.8351 0.0
C2350 C 0.32448 0.04383 0.89881 0.0
C2351 C 0.31107 0.03755 0.93449 0.0
C2352 C 0.35364 0.06035 0.89599 0.0
C2353 C 0.32709 0.05021 0.96695 0.0
C2354 C 0.35608 0.0671 0.96429 0.0
C2355 C 0.39878 0.08505 0.92702 0.0
C2356 C 0.41238 0.08694 0.8924 0.0
C2357 C 0.36959 0.07143 0.92917 0.0
C2358 C 0.39645 0.07763 0.85915 0.0
C2359 C 0.36727 0.06454 0.86092 0.0
H2360 H 0.96128 0.32024 0.86697 0.0
H2361 H 0.95045 0.33919 0.98212 0.0
H2362 H 0.96627 0.30834 0.00605 0.0
H2363 H 0.99291 0.28448 0.99446 0.0
H2364 H 1.00191 0.26281 0.88057 0.0
H2365 H 0.97679 0.28546 0.8561 0.0
C2366 C 0.96153 0.31687 0.89718 0.0
C2367 C 0.95567 0.33284 0.92261 0.0
C2368 C 0.97072 0.29881 0.91115 0.0
C2369 C 0.95572 0.32787 0.9618 0.0
C2370 C 0.96475 0.31015 0.97569 0.0
C2371 C 0.98802 0.28342 0.96454 0.0
C2372 C 0.99944 0.27231 0.93931 0.0
C2373 C 0.97372 0.29669 0.95071 0.0
C2374 C 0.99342 0.27147 0.90049 0.0
C2375 C 0.97926 0.28467 0.88644 0.0
H2376 H 0.74577 0.75503 0.62868 0.0
H2377 H 0.73767 0.75509 0.50709 0.0
H2378 H 0.68738 0.73645 0.51386 0.0
H2379 H 0.64554 0.71266 0.55353 0.0
H2380 H 0.65343 0.70855 0.67461 0.0
H2381 H 0.70424 0.73698 0.66897 0.0
C2382 C 0.73309 0.75137 0.60358 0.0
C2383 C 0.74536 0.75582 0.56729 0.0
C2384 C 0.70421 0.73979 0.6077 0.0
C2385 C 0.72876 0.75164 0.53523 0.0
C2386 C 0.7 0.74082 0.53914 0.0
C2387 C 0.65835 0.71847 0.57884 0.0
C2388 C 0.64578 0.70805 0.61444 0.0
C2389 C 0.68743 0.73367 0.57512 0.0
C2390 C 0.66255 0.71621 0.64697 0.0
C2391 C 0.6916 0.73219 0.64364 0.0
H2392 H 0.3243 0.9501 0.65939 0.0
H2393 H 0.3373 0.93096 0.54592 0.0
H2394 H 0.31161 0.95259 0.52032 0.0
H2395 H 0.29463 0.98625 0.53062 0.0
H2396 H 0.27868 1.00169 0.6451 0.0
H2397 H 0.29518 0.97154 0.66972 0.0
C2398 C 0.3202 0.94935 0.62925 0.0
C2399 C 0.33315 0.93957 0.60451 0.0
C2400 C 0.30525 0.96175 0.61477 0.0
C2401 C 0.32795 0.93894 0.56545 0.0
C2402 C 0.31334 0.95145 0.55075 0.0
C2403 C 0.29379 0.98214 0.56075 0.0
C2404 C 0.28643 0.99704 0.58598 0.0
C2405 C 0.30332 0.96447 0.57509 0.0
C2406 C 0.2851 0.99115 0.62505 0.0
C2407 C 0.29456 0.97389 0.63931 0.0
H2408 H 0.09995 0.40134 0.55097 0.0
H2409 H 0.09248 0.39409 0.67264 0.0
H2410 H 0.07168 0.34334 0.66753 0.0
H2411 H 0.04877 0.30125 0.62808 0.0
H2412 H 0.05329 0.30861 0.50623 0.0
H2413 H 0.08265 0.35932 0.51183 0.0
C2414 C 0.09419 0.3887 0.57648 0.0
C2415 C 0.09718 0.40136 0.61215 0.0
C2416 C 0.08151 0.35962 0.57319 0.0
C2417 C 0.09024 0.38484 0.64491 0.0
C2418 C 0.07816 0.35583 0.64193 0.0
C2419 C 0.05656 0.31389 0.60267 0.0
C2420 C 0.04835 0.30123 0.56671 0.0
C2421 C 0.07262 0.34299 0.60615 0.0
C2422 C 0.05911 0.31781 0.53417 0.0
C2423 C 0.07573 0.34682 0.5374 0.0
H2424 H 0.97796 0.6172 0.70605 0.0
H2425 H 0.9854 0.61403 0.82745 0.0
H2426 H 0.03605 0.63591 0.82124 0.0
H2427 H 0.07802 0.66231 0.78255 0.0
H2428 H 0.07089 0.66849 0.66173 0.0
H2429 H 1.02012 0.63846 0.66638 0.0
C2430 C 0.99058 0.62088 0.73121 0.0
C2431 C 0.97787 0.61445 0.76735 0.0
C2432 C 1.01971 0.63416 0.72747 0.0
C2433 C 0.99455 0.61889 0.79942 0.0
C2434 C 1.02355 0.63156 0.79586 0.0
C2435 C 0.06541 0.65667 0.75706 0.0
C2436 C 0.07815 0.66799 0.72185 0.0
C2437 C 0.03634 0.64026 0.76021 0.0
C2438 C 0.06163 0.6601 0.68908 0.0
C2439 C 0.03259 0.64317 0.69186 0.0
H2440 H 0.43016 0.384 0.80927 0.0
H2441 H 0.45116 0.3745 0.69474 0.0
H2442 H 0.43213 0.40278 0.67103 0.0
H2443 H 0.40038 0.42138 0.68153 0.0
H2444 H 0.38272 0.43483 0.79563 0.0
H2445 H 0.40958 0.41441 0.82066 0.0
C2446 C 0.43153 0.38903 0.77938 0.0
C2447 C 0.44122 0.37633 0.75379 0.0
C2448 C 0.42052 0.4056 0.7656 0.0
C2449 C 0.44308 0.38336 0.71506 0.0
C2450 C 0.43212 0.39953 0.70131 0.0
C2451 C 0.40353 0.42102 0.71179 0.0
C2452 C 0.389 0.42894 0.73667 0.0
C2453 C 0.41939 0.40947 0.72606 0.0
C2454 C 0.3931 0.42818 0.77587 0.0
C2455 C 0.40852 0.41646 0.79027 0.0
H2456 H 0.67588 0.07311 0.70822 0.0
H2457 H 0.67063 0.06595 0.83007 0.0
H2458 H 0.64203 1.01517 0.82456 0.0
H2459 H 0.62551 0.97314 0.78565 0.0
H2460 H 0.63364 0.98016 0.66404 0.0
H2461 H 0.65382 0.03088 0.66887 0.0
C2462 C 0.6681 0.0605 0.73364 0.0
C2463 C 0.67588 0.07328 0.76961 0.0
C2464 C 0.65247 0.03135 0.73023 0.0
C2465 C 0.66513 0.05669 0.80214 0.0
C2466 C 0.64895 0.02764 0.79896 0.0
C2467 C 0.63129 0.98572 0.76009 0.0
C2468 C 0.62864 0.97301 0.72452 0.0
C2469 C 0.64358 1.01477 0.76324 0.0
C2470 C 0.63561 0.98944 0.69169 0.0
C2471 C 0.64733 1.01844 0.69452 0.0
H2472 H 0.43025 0.06983 0.20983 0.0
H2473 H 0.4308 0.06334 0.33163 0.0
H2474 H 0.41098 1.01279 0.32641 0.0
H2475 H 0.38714 0.97029 0.28792 0.0
H2476 H 0.38408 0.9765 0.16639 0.0
H2477 H 0.41184 0.02748 0.17078 0.0
C2478 C 0.42644 0.05743 0.23529 0.0
C2479 C 0.43151 0.07033 0.27119 0.0
C2480 C 0.41445 0.02835 0.23207 0.0
C2481 C 0.42695 0.05401 0.30374 0.0
C2482 C 0.41547 0.02506 0.30074 0.0
C2483 C 0.39298 0.98276 0.26226 0.0
C2484 C 0.38314 0.96962 0.22687 0.0
C2485 C 0.40816 1.01197 0.26515 0.0
C2486 C 0.39129 0.98603 0.19392 0.0
C2487 C 0.40695 1.0152 0.1965 0.0
H2488 H 0.97994 0.37324 0.21309 0.0
H2489 H 0.98476 0.37511 0.33513 0.0
H2490 H 0.03557 0.4044 0.33146 0.0
H2491 H 0.07855 0.42379 0.29366 0.0
H2492 H 0.07372 0.41981 0.17163 0.0
H2493 H 1.02284 0.39734 0.17525 0.0
C2494 C 0.99203 0.38036 0.23899 0.0
C2495 C 0.9785 0.37156 0.27443 0.0
C2496 C 1.02123 0.39662 0.2366 0.0
C2497 C 0.99452 0.38143 0.30757 0.0
C2498 C 1.02361 0.39803 0.30542 0.0
C2499 C 0.06644 0.41841 0.26774 0.0
C2500 C 0.08002 0.42314 0.23234 0.0
C2501 C 0.0372 0.40489 0.27011 0.0
C2502 C 0.06394 0.41641 0.19917 0.0
C2503 C 0.03481 0.40336 0.20128 0.0
H2504 H 0.63202 0.65653 0.18782 0.0
H2505 H 0.61381 0.66339 0.30467 0.0
H2506 H 0.63424 0.63541 0.3245 0.0
H2507 H 0.66606 0.61741 0.30977 0.0
H2508 H 0.68252 0.60887 0.19263 0.0
H2509 H 0.6538 0.62819 0.1722 0.0
C2510 C 0.63157 0.65098 0.21738 0.0
C2511 C 0.62211 0.66268 0.24469 0.0
C2512 C 0.64369 0.63494 0.2289 0.0
C2513 C 0.62153 0.65511 0.28301 0.0
C2514 C 0.63338 0.63919 0.29455 0.0
C2515 C 0.66259 0.61892 0.27985 0.0
C2516 C 0.67722 0.61256 0.25298 0.0
C2517 C 0.64595 0.63029 0.26796 0.0
C2518 C 0.67213 0.61433 0.21415 0.0
C2519 C 0.65569 0.62547 0.20225 0.0
loop_
_geom_bond_atom_site_label_1
_geom_bond_atom_site_label_2
_geom_bond_distance
_geom_bond_site_symmetry_2
_ccdc_geom_bond_type
Fe0 O2 1.918 . S
Fe0 O5 1.997 . S
Fe0 O6 2.002 1_554 S
Fe0 O11 1.976 . S
Fe0 O14 1.996 . S
Fe1 O2 1.918 . S
Fe1 O9 1.997 . S
Fe1 O12 1.996 . S
Fe1 O16 1.976 . S
Fe1 O19 2.002 . S
O2 Fe0 1.918 . S
O2 Fe1 1.918 . S
O2 Fe3 1.918 . S
Fe3 O2 1.918 . S
Fe3 O4 2.002 . S
Fe3 O13 1.976 . S
Fe3 O17 1.996 . S
Fe3 O20 1.997 . S
O4 Fe3 2.002 . S
O4 C21 1.295 . S
O5 Fe0 1.997 . S
O5 C21 1.235 . S
O6 Fe0 2.002 1_556 S
O6 C7 1.295 1_556 S
C7 O6 1.295 1_554 S
C7 O9 1.235 . S
C8 O13 1.287 . S
C8 O14 1.255 . S
O9 Fe1 1.997 . S
O9 C7 1.235 . S
C10 O16 1.287 . S
C10 O17 1.255 . S
O11 Fe0 1.976 . S
O11 C18 1.287 . S
O12 Fe1 1.996 . S
O12 C18 1.255 . S
O13 Fe3 1.976 . S
O13 C8 1.287 . S
O14 Fe0 1.996 . S
O14 C8 1.255 . S
C15 O19 1.295 . S
C15 O20 1.235 . S
O16 Fe1 1.976 . S
O16 C10 1.287 . S
O17 Fe3 1.996 . S
O17 C10 1.255 . S
C18 O11 1.287 . S
C18 O12 1.255 . S
O19 Fe1 2.002 . S
O19 C15 1.295 . S
O20 Fe3 1.997 . S
O20 C15 1.235 . S
C21 O4 1.295 . S
C21 O5 1.235 . S
Fe22 O24 1.918 . S
Fe22 O27 1.997 . S
Fe22 O28 2.002 1_554 S
Fe22 O33 1.976 . S
Fe22 O36 1.996 . S
Fe23 O24 1.918 . S
Fe23 O31 1.997 . S
Fe23 O34 1.996 . S
Fe23 O38 1.976 . S
Fe23 O41 2.002 . S
O24 Fe22 1.918 . S
O24 Fe23 1.918 . S
O24 Fe25 1.918 . S
Fe25 O24 1.918 . S
Fe25 O26 2.002 . S
Fe25 O35 1.976 . S
Fe25 O39 1.996 . S
Fe25 O42 1.997 . S
O26 Fe25 2.002 . S
O26 C43 1.295 . S
O27 Fe22 1.997 . S
O27 C43 1.235 . S
O28 Fe22 2.002 1_556 S
O28 C29 1.295 1_556 S
C29 O28 1.295 1_554 S
C29 O31 1.235 . S
C30 O35 1.287 1_565 S
C30 O36 1.255 1_565 S
O31 Fe23 1.997 . S
O31 C29 1.235 . S
C32 O38 1.287 . S
C32 O39 1.255 . S
O33 Fe22 1.976 . S
O33 C40 1.287 . S
O34 Fe23 1.996 . S
O34 C40 1.255 . S
O35 Fe25 1.976 . S
O35 C30 1.287 1_545 S
O36 Fe22 1.996 . S
O36 C30 1.255 1_545 S
C37 O41 1.295 . S
C37 O42 1.235 . S
O38 Fe23 1.976 . S
O38 C32 1.287 . S
O39 Fe25 1.996 . S
O39 C32 1.255 . S
C40 O33 1.287 . S
C40 O34 1.255 . S
O41 Fe23 2.002 . S
O41 C37 1.295 . S
O42 Fe25 1.997 . S
O42 C37 1.235 . S
C43 O26 1.295 . S
C43 O27 1.235 . S
Fe44 O46 1.918 . S
Fe44 O49 1.997 . S
Fe44 O50 2.002 1_554 S
Fe44 O55 1.976 . S
Fe44 O58 1.996 . S
Fe45 O46 1.918 . S
Fe45 O53 1.997 . S
Fe45 O56 1.996 . S
Fe45 O60 1.976 . S
Fe45 O63 2.002 . S
O46 Fe44 1.918 . S
O46 Fe45 1.918 . S
O46 Fe47 1.918 . S
Fe47 O46 1.918 . S
Fe47 O48 2.002 . S
Fe47 O57 1.976 . S
Fe47 O61 1.996 . S
Fe47 O64 1.997 . S
O48 Fe47 2.002 . S
O48 C65 1.295 . S
O49 Fe44 1.997 . S
O49 C65 1.235 . S
O50 Fe44 2.002 1_556 S
O50 C51 1.295 1_556 S
C51 O50 1.295 1_554 S
C51 O53 1.235 . S
C52 O57 1.287 1_455 S
C52 O58 1.255 1_455 S
O53 Fe45 1.997 . S
O53 C51 1.235 . S
C54 O60 1.287 . S
C54 O61 1.255 . S
O55 Fe44 1.976 . S
O55 C62 1.287 . S
O56 Fe45 1.996 . S
O56 C62 1.255 . S
O57 Fe47 1.976 . S
O57 C52 1.287 1_655 S
O58 Fe44 1.996 . S
O58 C52 1.255 1_655 S
C59 O63 1.295 . S
C59 O64 1.235 . S
O60 Fe45 1.976 . S
O60 C54 1.287 . S
O61 Fe47 1.996 . S
O61 C54 1.255 . S
C62 O55 1.287 . S
C62 O56 1.255 . S
O63 Fe45 2.002 . S
O63 C59 1.295 . S
O64 Fe47 1.997 . S
O64 C59 1.235 . S
C65 O48 1.295 . S
C65 O49 1.235 . S
Fe66 O68 1.918 . S
Fe66 O71 1.997 . S
Fe66 O72 2.002 . S
Fe66 O77 1.976 . S
Fe66 O80 1.996 . S
Fe67 O68 1.918 . S
Fe67 O75 1.997 . S
Fe67 O78 1.996 . S
Fe67 O82 1.976 . S
Fe67 O85 2.002 . S
O68 Fe66 1.918 . S
O68 Fe67 1.918 . S
O68 Fe69 1.918 . S
Fe69 O68 1.918 . S
Fe69 O70 2.002 . S
Fe69 O79 1.976 . S
Fe69 O83 1.996 . S
Fe69 O86 1.997 . S
O70 Fe69 2.002 . S
O70 C87 1.295 . S
O71 Fe66 1.997 . S
O71 C87 1.235 . S
O72 Fe66 2.002 . S
O72 C73 1.295 . S
C73 O72 1.295 . S
C73 O75 1.235 . S
C74 O79 1.287 . S
C74 O80 1.255 . S
O75 Fe67 1.997 . S
O75 C73 1.235 . S
C76 O82 1.287 . S
C76 O83 1.255 . S
O77 Fe66 1.976 . S
O77 C84 1.287 . S
O78 Fe67 1.996 . S
O78 C84 1.255 . S
O79 Fe69 1.976 . S
O79 C74 1.287 . S
O80 Fe66 1.996 . S
O80 C74 1.255 . S
C81 O85 1.295 . S
C81 O86 1.235 . S
O82 Fe67 1.976 . S
O82 C76 1.287 . S
O83 Fe69 1.996 . S
O83 C76 1.255 . S
C84 O77 1.287 . S
C84 O78 1.255 . S
O85 Fe67 2.002 . S
O85 C81 1.295 . S
O86 Fe69 1.997 . S
O86 C81 1.235 . S
C87 O70 1.295 . S
C87 O71 1.235 . S
Fe88 O90 1.918 . S
Fe88 O93 1.997 . S
Fe88 O94 2.002 . S
Fe88 O99 1.976 . S
Fe88 O102 1.996 . S
Fe89 O90 1.918 . S
Fe89 O97 1.997 . S
Fe89 O100 1.996 . S
Fe89 O104 1.976 . S
Fe89 O107 2.002 . S
O90 Fe88 1.918 . S
O90 Fe89 1.918 . S
O90 Fe91 1.918 . S
Fe91 O90 1.918 . S
Fe91 O92 2.002 . S
Fe91 O101 1.976 . S
Fe91 O105 1.996 . S
Fe91 O108 1.997 . S
O92 Fe91 2.002 . S
O92 C109 1.295 . S
O93 Fe88 1.997 . S
O93 C109 1.235 . S
O94 Fe88 2.002 . S
O94 C95 1.295 . S
C95 O94 1.295 . S
C95 O97 1.235 . S
C96 O101 1.287 1_545 S
C96 O102 1.255 1_545 S
O97 Fe89 1.997 . S
O97 C95 1.235 . S
C98 O104 1.287 . S
C98 O105 1.255 . S
O99 Fe88 1.976 . S
O99 C106 1.287 . S
O100 Fe89 1.996 . S
O100 C106 1.255 . S
O101 Fe91 1.976 . S
O101 C96 1.287 1_565 S
O102 Fe88 1.996 . S
O102 C96 1.255 1_565 S
C103 O107 1.295 . S
C103 O108 1.235 . S
O104 Fe89 1.976 . S
O104 C98 1.287 . S
O105 Fe91 1.996 . S
O105 C98 1.255 . S
C106 O99 1.287 . S
C106 O100 1.255 . S
O107 Fe89 2.002 . S
O107 C103 1.295 . S
O108 Fe91 1.997 . S
O108 C103 1.235 . S
C109 O92 1.295 . S
C109 O93 1.235 . S
Fe110 O112 1.918 . S
Fe110 O115 1.997 . S
Fe110 O116 2.002 . S
Fe110 O121 1.976 . S
Fe110 O124 1.996 . S
Fe111 O112 1.918 . S
Fe111 O119 1.997 . S
Fe111 O122 1.996 . S
Fe111 O126 1.976 . S
Fe111 O129 2.002 . S
O112 Fe110 1.918 . S
O112 Fe111 1.918 . S
O112 Fe113 1.918 . S
Fe113 O112 1.918 . S
Fe113 O114 2.002 . S
Fe113 O123 1.976 . S
Fe113 O127 1.996 . S
Fe113 O130 1.997 . S
O114 Fe113 2.002 . S
O114 C131 1.295 . S
O115 Fe110 1.997 . S
O115 C131 1.235 . S
O116 Fe110 2.002 . S
O116 C117 1.295 . S
C117 O116 1.295 . S
C117 O119 1.235 . S
C118 O123 1.287 1_655 S
C118 O124 1.255 1_655 S
O119 Fe111 1.997 . S
O119 C117 1.235 . S
C120 O126 1.287 . S
C120 O127 1.255 . S
O121 Fe110 1.976 . S
O121 C128 1.287 . S
O122 Fe111 1.996 . S
O122 C128 1.255 . S
O123 Fe113 1.976 . S
O123 C118 1.287 1_455 S
O124 Fe110 1.996 . S
O124 C118 1.255 1_455 S
C125 O129 1.295 . S
C125 O130 1.235 . S
O126 Fe111 1.976 . S
O126 C120 1.287 . S
O127 Fe113 1.996 . S
O127 C120 1.255 . S
C128 O121 1.287 . S
C128 O122 1.255 . S
O129 Fe111 2.002 . S
O129 C125 1.295 . S
O130 Fe113 1.997 . S
O130 C125 1.235 . S
C131 O114 1.295 . S
C131 O115 1.235 . S
Fe132 O134 1.918 . S
Fe132 O137 1.997 . S
Fe132 O138 2.002 . S
Fe132 O143 1.976 . S
Fe132 O146 1.996 . S
Fe133 O134 1.918 . S
Fe133 O141 1.997 . S
Fe133 O144 1.996 . S
Fe133 O148 1.976 . S
Fe133 O151 2.002 1_556 S
O134 Fe132 1.918 . S
O134 Fe133 1.918 . S
O134 Fe135 1.918 . S
Fe135 O134 1.918 . S
Fe135 O136 2.002 . S
Fe135 O145 1.976 . S
Fe135 O149 1.996 . S
Fe135 O152 1.997 . S
O136 Fe135 2.002 . S
O136 C153 1.295 . S
O137 Fe132 1.997 . S
O137 C153 1.235 . S
O138 Fe132 2.002 . S
O138 C139 1.295 . S
C139 O138 1.295 . S
C139 O141 1.235 . S
C140 O145 1.287 . S
C140 O146 1.255 . S
O141 Fe133 1.997 . S
O141 C139 1.235 . S
C142 O148 1.287 . S
C142 O149 1.255 . S
O143 Fe132 1.976 . S
O143 C150 1.287 . S
O144 Fe133 1.996 . S
O144 C150 1.255 . S
O145 Fe135 1.976 . S
O145 C140 1.287 . S
O146 Fe132 1.996 . S
O146 C140 1.255 . S
C147 O151 1.295 1_556 S
C147 O152 1.235 . S
O148 Fe133 1.976 . S
O148 C142 1.287 . S
O149 Fe135 1.996 . S
O149 C142 1.255 . S
C150 O143 1.287 . S
C150 O144 1.255 . S
O151 Fe133 2.002 1_554 S
O151 C147 1.295 1_554 S
O152 Fe135 1.997 . S
O152 C147 1.235 . S
C153 O136 1.295 . S
C153 O137 1.235 . S
Fe154 O156 1.918 . S
Fe154 O159 1.997 . S
Fe154 O160 2.002 . S
Fe154 O165 1.976 . S
Fe154 O168 1.996 . S
Fe155 O156 1.918 . S
Fe155 O163 1.997 . S
Fe155 O166 1.996 . S
Fe155 O170 1.976 . S
Fe155 O173 2.002 1_556 S
O156 Fe154 1.918 . S
O156 Fe155 1.918 . S
O156 Fe157 1.918 . S
Fe157 O156 1.918 . S
Fe157 O158 2.002 . S
Fe157 O167 1.976 . S
Fe157 O171 1.996 . S
Fe157 O174 1.997 . S
O158 Fe157 2.002 . S
O158 C175 1.295 . S
O159 Fe154 1.997 . S
O159 C175 1.235 . S
O160 Fe154 2.002 . S
O160 C161 1.295 . S
C161 O160 1.295 . S
C161 O163 1.235 . S
C162 O167 1.287 . S
C162 O168 1.255 . S
O163 Fe155 1.997 . S
O163 C161 1.235 . S
C164 O170 1.287 . S
C164 O171 1.255 . S
O165 Fe154 1.976 . S
O165 C172 1.287 1_565 S
O166 Fe155 1.996 . S
O166 C172 1.255 1_565 S
O167 Fe157 1.976 . S
O167 C162 1.287 . S
O168 Fe154 1.996 . S
O168 C162 1.255 . S
C169 O173 1.295 1_556 S
C169 O174 1.235 . S
O170 Fe155 1.976 . S
O170 C164 1.287 . S
O171 Fe157 1.996 . S
O171 C164 1.255 . S
C172 O165 1.287 1_545 S
C172 O166 1.255 1_545 S
O173 Fe155 2.002 1_554 S
O173 C169 1.295 1_554 S
O174 Fe157 1.997 . S
O174 C169 1.235 . S
C175 O158 1.295 . S
C175 O159 1.235 . S
Fe176 O178 1.918 . S
Fe176 O181 1.997 . S
Fe176 O182 2.002 . S
Fe176 O187 1.976 . S
Fe176 O190 1.996 . S
Fe177 O178 1.918 . S
Fe177 O185 1.997 . S
Fe177 O188 1.996 . S
Fe177 O192 1.976 . S
Fe177 O195 2.002 . S
O178 Fe176 1.918 . S
O178 Fe177 1.918 . S
O178 Fe179 1.918 . S
Fe179 O178 1.918 . S
Fe179 O180 2.002 1_556 S
Fe179 O189 1.976 . S
Fe179 O193 1.996 . S
Fe179 O196 1.997 . S
O180 Fe179 2.002 1_554 S
O180 C197 1.295 1_554 S
O181 Fe176 1.997 . S
O181 C197 1.235 . S
O182 Fe176 2.002 . S
O182 C183 1.295 . S
C183 O182 1.295 . S
C183 O185 1.235 . S
C184 O189 1.287 . S
C184 O190 1.255 . S
O185 Fe177 1.997 . S
O185 C183 1.235 . S
C186 O192 1.287 1_655 S
C186 O193 1.255 1_655 S
O187 Fe176 1.976 . S
O187 C194 1.287 . S
O188 Fe177 1.996 . S
O188 C194 1.255 . S
O189 Fe179 1.976 . S
O189 C184 1.287 . S
O190 Fe176 1.996 . S
O190 C184 1.255 . S
C191 O195 1.295 . S
C191 O196 1.235 . S
O192 Fe177 1.976 . S
O192 C186 1.287 1_455 S
O193 Fe179 1.996 . S
O193 C186 1.255 1_455 S
C194 O187 1.287 . S
C194 O188 1.255 . S
O195 Fe177 2.002 . S
O195 C191 1.295 . S
O196 Fe179 1.997 . S
O196 C191 1.235 . S
C197 O180 1.295 1_556 S
C197 O181 1.235 . S
Fe198 O200 1.918 . S
Fe198 O203 1.997 . S
Fe198 O204 2.002 . S
Fe198 O209 1.976 . S
Fe198 O212 1.996 . S
Fe199 O200 1.918 . S
Fe199 O207 1.997 . S
Fe199 O210 1.996 . S
Fe199 O214 1.976 . S
Fe199 O217 2.002 . S
O200 Fe198 1.918 . S
O200 Fe199 1.918 . S
O200 Fe201 1.918 . S
Fe201 O200 1.918 . S
Fe201 O202 2.002 . S
Fe201 O211 1.976 . S
Fe201 O215 1.996 . S
Fe201 O218 1.997 . S
O202 Fe201 2.002 . S
O202 C219 1.295 . S
O203 Fe198 1.997 . S
O203 C219 1.235 . S
O204 Fe198 2.002 . S
O204 C205 1.295 . S
C205 O204 1.295 . S
C205 O207 1.235 . S
C206 O211 1.287 . S
C206 O212 1.255 . S
O207 Fe199 1.997 . S
O207 C205 1.235 . S
C208 O214 1.287 . S
C208 O215 1.255 . S
O209 Fe198 1.976 . S
O209 C216 1.287 . S
O210 Fe199 1.996 . S
O210 C216 1.255 . S
O211 Fe201 1.976 . S
O211 C206 1.287 . S
O212 Fe198 1.996 . S
O212 C206 1.255 . S
C213 O217 1.295 . S
C213 O218 1.235 . S
O214 Fe199 1.976 . S
O214 C208 1.287 . S
O215 Fe201 1.996 . S
O215 C208 1.255 . S
C216 O209 1.287 . S
C216 O210 1.255 . S
O217 Fe199 2.002 . S
O217 C213 1.295 . S
O218 Fe201 1.997 . S
O218 C213 1.235 . S
C219 O202 1.295 . S
C219 O203 1.235 . S
Fe220 O222 1.918 . S
Fe220 O225 1.997 . S
Fe220 O226 2.002 . S
Fe220 O231 1.976 . S
Fe220 O234 1.996 . S
Fe221 O222 1.918 . S
Fe221 O229 1.997 . S
Fe221 O232 1.996 . S
Fe221 O236 1.976 . S
Fe221 O239 2.002 . S
O222 Fe220 1.918 . S
O222 Fe221 1.918 . S
O222 Fe223 1.918 . S
Fe223 O222 1.918 . S
Fe223 O224 2.002 . S
Fe223 O233 1.976 . S
Fe223 O237 1.996 . S
Fe223 O240 1.997 . S
O224 Fe223 2.002 . S
O224 C241 1.295 . S
O225 Fe220 1.997 . S
O225 C241 1.235 . S
O226 Fe220 2.002 . S
O226 C227 1.295 . S
C227 O226 1.295 . S
C227 O229 1.235 . S
C228 O233 1.287 . S
C228 O234 1.255 . S
O229 Fe221 1.997 . S
O229 C227 1.235 . S
C230 O236 1.287 . S
C230 O237 1.255 . S
O231 Fe220 1.976 . S
O231 C238 1.287 1_545 S
O232 Fe221 1.996 . S
O232 C238 1.255 1_545 S
O233 Fe223 1.976 . S
O233 C228 1.287 . S
O234 Fe220 1.996 . S
O234 C228 1.255 . S
C235 O239 1.295 . S
C235 O240 1.235 . S
O236 Fe221 1.976 . S
O236 C230 1.287 . S
O237 Fe223 1.996 . S
O237 C230 1.255 . S
C238 O231 1.287 1_565 S
C238 O232 1.255 1_565 S
O239 Fe221 2.002 . S
O239 C235 1.295 . S
O240 Fe223 1.997 . S
O240 C235 1.235 . S
C241 O224 1.295 . S
C241 O225 1.235 . S
Fe242 O244 1.918 . S
Fe242 O247 1.997 . S
Fe242 O248 2.002 . S
Fe242 O253 1.976 . S
Fe242 O256 1.996 . S
Fe243 O244 1.918 . S
Fe243 O251 1.997 . S
Fe243 O254 1.996 . S
Fe243 O258 1.976 . S
Fe243 O261 2.002 . S
O244 Fe242 1.918 . S
O244 Fe243 1.918 . S
O244 Fe245 1.918 . S
Fe245 O244 1.918 . S
Fe245 O246 2.002 . S
Fe245 O255 1.976 . S
Fe245 O259 1.996 . S
Fe245 O262 1.997 . S
O246 Fe245 2.002 . S
O246 C263 1.295 . S
O247 Fe242 1.997 . S
O247 C263 1.235 . S
O248 Fe242 2.002 . S
O248 C249 1.295 . S
C249 O248 1.295 . S
C249 O251 1.235 . S
C250 O255 1.287 1_455 S
C250 O256 1.255 1_455 S
O251 Fe243 1.997 . S
O251 C249 1.235 . S
C252 O258 1.287 . S
C252 O259 1.255 . S
O253 Fe242 1.976 . S
O253 C260 1.287 . S
O254 Fe243 1.996 . S
O254 C260 1.255 . S
O255 Fe245 1.976 . S
O255 C250 1.287 1_655 S
O256 Fe242 1.996 . S
O256 C250 1.255 1_655 S
C257 O261 1.295 . S
C257 O262 1.235 . S
O258 Fe243 1.976 . S
O258 C252 1.287 . S
O259 Fe245 1.996 . S
O259 C252 1.255 . S
C260 O253 1.287 . S
C260 O254 1.255 . S
O261 Fe243 2.002 . S
O261 C257 1.295 . S
O262 Fe245 1.997 . S
O262 C257 1.235 . S
C263 O246 1.295 . S
C263 O247 1.235 . S
Fe264 O266 1.918 . S
Fe264 O269 1.997 . S
Fe264 O270 2.002 . S
Fe264 O275 1.976 . S
Fe264 O278 1.996 . S
Fe265 O266 1.918 . S
Fe265 O273 1.997 . S
Fe265 O276 1.996 . S
Fe265 O280 1.976 . S
Fe265 O283 2.002 . S
O266 Fe264 1.918 . S
O266 Fe265 1.918 . S
O266 Fe267 1.918 . S
Fe267 O266 1.918 . S
Fe267 O268 2.002 . S
Fe267 O277 1.976 . S
Fe267 O281 1.996 . S
Fe267 O284 1.997 . S
O268 Fe267 2.002 . S
O268 C285 1.295 . S
O269 Fe264 1.997 . S
O269 C285 1.235 . S
O270 Fe264 2.002 . S
O270 C271 1.295 . S
C271 O270 1.295 . S
C271 O273 1.235 . S
C272 O277 1.287 . S
C272 O278 1.255 . S
O273 Fe265 1.997 . S
O273 C271 1.235 . S
C274 O280 1.287 . S
C274 O281 1.255 . S
O275 Fe264 1.976 . S
O275 C282 1.287 . S
O276 Fe265 1.996 . S
O276 C282 1.255 . S
O277 Fe267 1.976 . S
O277 C272 1.287 . S
O278 Fe264 1.996 . S
O278 C272 1.255 . S
C279 O283 1.295 . S
C279 O284 1.235 . S
O280 Fe265 1.976 . S
O280 C274 1.287 . S
O281 Fe267 1.996 . S
O281 C274 1.255 . S
C282 O275 1.287 . S
C282 O276 1.255 . S
O283 Fe265 2.002 . S
O283 C279 1.295 . S
O284 Fe267 1.997 . S
O284 C279 1.235 . S
C285 O268 1.295 . S
C285 O269 1.235 . S
Fe286 O288 1.918 . S
Fe286 O291 1.997 . S
Fe286 O292 2.002 . S
Fe286 O297 1.976 . S
Fe286 O300 1.996 . S
Fe287 O288 1.918 . S
Fe287 O295 1.997 . S
Fe287 O298 1.996 . S
Fe287 O302 1.976 . S
Fe287 O305 2.002 . S
O288 Fe286 1.918 . S
O288 Fe287 1.918 . S
O288 Fe289 1.918 . S
Fe289 O288 1.918 . S
Fe289 O290 2.002 . S
Fe289 O299 1.976 . S
Fe289 O303 1.996 . S
Fe289 O306 1.997 . S
O290 Fe289 2.002 . S
O290 C307 1.295 . S
O291 Fe286 1.997 . S
O291 C307 1.235 . S
O292 Fe286 2.002 . S
O292 C293 1.295 . S
C293 O292 1.295 . S
C293 O295 1.235 . S
C294 O299 1.287 . S
C294 O300 1.255 . S
O295 Fe287 1.997 . S
O295 C293 1.235 . S
C296 O302 1.287 . S
C296 O303 1.255 . S
O297 Fe286 1.976 . S
O297 C304 1.287 . S
O298 Fe287 1.996 . S
O298 C304 1.255 . S
O299 Fe289 1.976 . S
O299 C294 1.287 . S
O300 Fe286 1.996 . S
O300 C294 1.255 . S
C301 O305 1.295 . S
C301 O306 1.235 . S
O302 Fe287 1.976 . S
O302 C296 1.287 . S
O303 Fe289 1.996 . S
O303 C296 1.255 . S
C304 O297 1.287 . S
C304 O298 1.255 . S
O305 Fe287 2.002 . S
O305 C301 1.295 . S
O306 Fe289 1.997 . S
O306 C301 1.235 . S
C307 O290 1.295 . S
C307 O291 1.235 . S
Fe308 O310 1.918 . S
Fe308 O313 1.997 . S
Fe308 O314 2.002 . S
Fe308 O319 1.976 . S
Fe308 O322 1.996 . S
Fe309 O310 1.918 . S
Fe309 O317 1.997 . S
Fe309 O320 1.996 . S
Fe309 O324 1.976 . S
Fe309 O327 2.002 . S
O310 Fe308 1.918 . S
O310 Fe309 1.918 . S
O310 Fe311 1.918 . S
Fe311 O310 1.918 . S
Fe311 O312 2.002 . S
Fe311 O321 1.976 . S
Fe311 O325 1.996 . S
Fe311 O328 1.997 . S
O312 Fe311 2.002 . S
O312 C329 1.295 . S
O313 Fe308 1.997 . S
O313 C329 1.235 . S
O314 Fe308 2.002 . S
O314 C315 1.295 . S
C315 O314 1.295 . S
C315 O317 1.235 . S
C316 O321 1.287 . S
C316 O322 1.255 . S
O317 Fe309 1.997 . S
O317 C315 1.235 . S
C318 O324 1.287 . S
C318 O325 1.255 . S
O319 Fe308 1.976 . S
O319 C326 1.287 . S
O320 Fe309 1.996 . S
O320 C326 1.255 . S
O321 Fe311 1.976 . S
O321 C316 1.287 . S
O322 Fe308 1.996 . S
O322 C316 1.255 . S
C323 O327 1.295 . S
C323 O328 1.235 . S
O324 Fe309 1.976 . S
O324 C318 1.287 . S
O325 Fe311 1.996 . S
O325 C318 1.255 . S
C326 O319 1.287 . S
C326 O320 1.255 . S
O327 Fe309 2.002 . S
O327 C323 1.295 . S
O328 Fe311 1.997 . S
O328 C323 1.235 . S
C329 O312 1.295 . S
C329 O313 1.235 . S
Fe330 O332 1.918 . S
Fe330 O335 1.997 . S
Fe330 O336 2.002 . S
Fe330 O341 1.976 . S
Fe330 O344 1.996 . S
Fe331 O332 1.918 . S
Fe331 O339 1.997 . S
Fe331 O342 1.996 . S
Fe331 O346 1.976 . S
Fe331 O349 2.002 . S
O332 Fe330 1.918 . S
O332 Fe331 1.918 . S
O332 Fe333 1.918 . S
Fe333 O332 1.918 . S
Fe333 O334 2.002 . S
Fe333 O343 1.976 . S
Fe333 O347 1.996 . S
Fe333 O350 1.997 . S
O334 Fe333 2.002 . S
O334 C351 1.295 . S
O335 Fe330 1.997 . S
O335 C351 1.235 . S
O336 Fe330 2.002 . S
O336 C337 1.295 . S
C337 O336 1.295 . S
C337 O339 1.235 . S
C338 O343 1.287 . S
C338 O344 1.255 . S
O339 Fe331 1.997 . S
O339 C337 1.235 . S
C340 O346 1.287 . S
C340 O347 1.255 . S
O341 Fe330 1.976 . S
O341 C348 1.287 . S
O342 Fe331 1.996 . S
O342 C348 1.255 . S
O343 Fe333 1.976 . S
O343 C338 1.287 . S
O344 Fe330 1.996 . S
O344 C338 1.255 . S
C345 O349 1.295 . S
C345 O350 1.235 . S
O346 Fe331 1.976 . S
O346 C340 1.287 . S
O347 Fe333 1.996 . S
O347 C340 1.255 . S
C348 O341 1.287 . S
C348 O342 1.255 . S
O349 Fe331 2.002 . S
O349 C345 1.295 . S
O350 Fe333 1.997 . S
O350 C345 1.235 . S
C351 O334 1.295 . S
C351 O335 1.235 . S
Fe352 O354 1.918 . S
Fe352 O357 1.997 . S
Fe352 O358 2.002 . S
Fe352 O363 1.976 . S
Fe352 O366 1.996 . S
Fe353 O354 1.918 . S
Fe353 O361 1.997 . S
Fe353 O364 1.996 . S
Fe353 O368 1.976 . S
Fe353 O371 2.002 . S
O354 Fe352 1.918 . S
O354 Fe353 1.918 . S
O354 Fe355 1.918 . S
Fe355 O354 1.918 . S
Fe355 O356 2.002 . S
Fe355 O365 1.976 . S
Fe355 O369 1.996 . S
Fe355 O372 1.997 . S
O356 Fe355 2.002 . S
O356 C373 1.295 . S
O357 Fe352 1.997 . S
O357 C373 1.235 . S
O358 Fe352 2.002 . S
O358 C359 1.295 . S
C359 O358 1.295 . S
C359 O361 1.235 . S
C360 O365 1.287 . S
C360 O366 1.255 . S
O361 Fe353 1.997 . S
O361 C359 1.235 . S
C362 O368 1.287 . S
C362 O369 1.255 . S
O363 Fe352 1.976 . S
O363 C370 1.287 . S
O364 Fe353 1.996 . S
O364 C370 1.255 . S
O365 Fe355 1.976 . S
O365 C360 1.287 . S
O366 Fe352 1.996 . S
O366 C360 1.255 . S
C367 O371 1.295 . S
C367 O372 1.235 . S
O368 Fe353 1.976 . S
O368 C362 1.287 . S
O369 Fe355 1.996 . S
O369 C362 1.255 . S
C370 O363 1.287 . S
C370 O364 1.255 . S
O371 Fe353 2.002 . S
O371 C367 1.295 . S
O372 Fe355 1.997 . S
O372 C367 1.235 . S
C373 O356 1.295 . S
C373 O357 1.235 . S
Fe374 O376 1.918 . S
Fe374 O379 1.997 . S
Fe374 O380 2.002 . S
Fe374 O385 1.976 . S
Fe374 O388 1.996 . S
Fe375 O376 1.918 . S
Fe375 O383 1.997 . S
Fe375 O386 1.996 . S
Fe375 O390 1.976 . S
Fe375 O393 2.002 . S
O376 Fe374 1.918 . S
O376 Fe375 1.918 . S
O376 Fe377 1.918 . S
Fe377 O376 1.918 . S
Fe377 O378 2.002 . S
Fe377 O387 1.976 . S
Fe377 O391 1.996 . S
Fe377 O394 1.997 . S
O378 Fe377 2.002 . S
O378 C395 1.295 . S
O379 Fe374 1.997 . S
O379 C395 1.235 . S
O380 Fe374 2.002 . S
O380 C381 1.295 . S
C381 O380 1.295 . S
C381 O383 1.235 . S
C382 O387 1.287 . S
C382 O388 1.255 . S
O383 Fe375 1.997 . S
O383 C381 1.235 . S
C384 O390 1.287 . S
C384 O391 1.255 . S
O385 Fe374 1.976 . S
O385 C392 1.287 . S
O386 Fe375 1.996 . S
O386 C392 1.255 . S
O387 Fe377 1.976 . S
O387 C382 1.287 . S
O388 Fe374 1.996 . S
O388 C382 1.255 . S
C389 O393 1.295 . S
C389 O394 1.235 . S
O390 Fe375 1.976 . S
O390 C384 1.287 . S
O391 Fe377 1.996 . S
O391 C384 1.255 . S
C392 O385 1.287 . S
C392 O386 1.255 . S
O393 Fe375 2.002 . S
O393 C389 1.295 . S
O394 Fe377 1.997 . S
O394 C389 1.235 . S
C395 O378 1.295 . S
C395 O379 1.235 . S
Fe396 O398 1.918 . S
Fe396 O401 1.997 . S
Fe396 O402 2.002 . S
Fe396 O407 1.976 . S
Fe396 O410 1.996 . S
Fe397 O398 1.918 . S
Fe397 O405 1.997 . S
Fe397 O408 1.996 . S
Fe397 O412 1.976 . S
Fe397 O415 2.002 . S
O398 Fe396 1.918 . S
O398 Fe397 1.918 . S
O398 Fe399 1.918 . S
Fe399 O398 1.918 . S
Fe399 O400 2.002 . S
Fe399 O409 1.976 . S
Fe399 O413 1.996 . S
Fe399 O416 1.997 . S
O400 Fe399 2.002 . S
O400 C417 1.295 . S
O401 Fe396 1.997 . S
O401 C417 1.235 . S
O402 Fe396 2.002 . S
O402 C403 1.295 . S
C403 O402 1.295 . S
C403 O405 1.235 . S
C404 O409 1.287 . S
C404 O410 1.255 . S
O405 Fe397 1.997 . S
O405 C403 1.235 . S
C406 O412 1.287 . S
C406 O413 1.255 . S
O407 Fe396 1.976 . S
O407 C414 1.287 . S
O408 Fe397 1.996 . S
O408 C414 1.255 . S
O409 Fe399 1.976 . S
O409 C404 1.287 . S
O410 Fe396 1.996 . S
O410 C404 1.255 . S
C411 O415 1.295 . S
C411 O416 1.235 . S
O412 Fe397 1.976 . S
O412 C406 1.287 . S
O413 Fe399 1.996 . S
O413 C406 1.255 . S
C414 O407 1.287 . S
C414 O408 1.255 . S
O415 Fe397 2.002 . S
O415 C411 1.295 . S
O416 Fe399 1.997 . S
O416 C411 1.235 . S
C417 O400 1.295 . S
C417 O401 1.235 . S
Fe418 O420 1.918 . S
Fe418 O423 1.997 . S
Fe418 O424 2.002 . S
Fe418 O429 1.976 . S
Fe418 O432 1.996 . S
Fe419 O420 1.918 . S
Fe419 O427 1.997 . S
Fe419 O430 1.996 . S
Fe419 O434 1.976 . S
Fe419 O437 2.002 . S
O420 Fe418 1.918 . S
O420 Fe419 1.918 . S
O420 Fe421 1.918 . S
Fe421 O420 1.918 . S
Fe421 O422 2.002 . S
Fe421 O431 1.976 . S
Fe421 O435 1.996 . S
Fe421 O438 1.997 . S
O422 Fe421 2.002 . S
O422 C439 1.295 . S
O423 Fe418 1.997 . S
O423 C439 1.235 . S
O424 Fe418 2.002 . S
O424 C425 1.295 . S
C425 O424 1.295 . S
C425 O427 1.235 . S
C426 O431 1.287 . S
C426 O432 1.255 . S
O427 Fe419 1.997 . S
O427 C425 1.235 . S
C428 O434 1.287 . S
C428 O435 1.255 . S
O429 Fe418 1.976 . S
O429 C436 1.287 . S
O430 Fe419 1.996 . S
O430 C436 1.255 . S
O431 Fe421 1.976 . S
O431 C426 1.287 . S
O432 Fe418 1.996 . S
O432 C426 1.255 . S
C433 O437 1.295 . S
C433 O438 1.235 . S
O434 Fe419 1.976 . S
O434 C428 1.287 . S
O435 Fe421 1.996 . S
O435 C428 1.255 . S
C436 O429 1.287 . S
C436 O430 1.255 . S
O437 Fe419 2.002 . S
O437 C433 1.295 . S
O438 Fe421 1.997 . S
O438 C433 1.235 . S
C439 O422 1.295 . S
C439 O423 1.235 . S
Fe440 O442 1.918 . S
Fe440 O445 1.997 . S
Fe440 O446 2.002 . S
Fe440 O451 1.976 . S
Fe440 O454 1.996 . S
Fe441 O442 1.918 . S
Fe441 O449 1.997 . S
Fe441 O452 1.996 . S
Fe441 O456 1.976 . S
Fe441 O459 2.002 . S
O442 Fe440 1.918 . S
O442 Fe441 1.918 . S
O442 Fe443 1.918 . S
Fe443 O442 1.918 . S
Fe443 O444 2.002 . S
Fe443 O453 1.976 . S
Fe443 O457 1.996 . S
Fe443 O460 1.997 . S
O444 Fe443 2.002 . S
O444 C461 1.295 . S
O445 Fe440 1.997 . S
O445 C461 1.235 . S
O446 Fe440 2.002 . S
O446 C447 1.295 . S
C447 O446 1.295 . S
C447 O449 1.235 . S
C448 O453 1.287 . S
C448 O454 1.255 . S
O449 Fe441 1.997 . S
O449 C447 1.235 . S
C450 O456 1.287 . S
C450 O457 1.255 . S
O451 Fe440 1.976 . S
O451 C458 1.287 . S
O452 Fe441 1.996 . S
O452 C458 1.255 . S
O453 Fe443 1.976 . S
O453 C448 1.287 . S
O454 Fe440 1.996 . S
O454 C448 1.255 . S
C455 O459 1.295 . S
C455 O460 1.235 . S
O456 Fe441 1.976 . S
O456 C450 1.287 . S
O457 Fe443 1.996 . S
O457 C450 1.255 . S
C458 O451 1.287 . S
C458 O452 1.255 . S
O459 Fe441 2.002 . S
O459 C455 1.295 . S
O460 Fe443 1.997 . S
O460 C455 1.235 . S
C461 O444 1.295 . S
C461 O445 1.235 . S
Fe462 O464 1.918 . S
Fe462 O467 1.997 . S
Fe462 O468 2.002 . S
Fe462 O473 1.976 . S
Fe462 O476 1.996 . S
Fe463 O464 1.918 . S
Fe463 O471 1.997 . S
Fe463 O474 1.996 . S
Fe463 O478 1.976 . S
Fe463 O481 2.002 . S
O464 Fe462 1.918 . S
O464 Fe463 1.918 . S
O464 Fe465 1.918 . S
Fe465 O464 1.918 . S
Fe465 O466 2.002 . S
Fe465 O475 1.976 . S
Fe465 O479 1.996 . S
Fe465 O482 1.997 . S
O466 Fe465 2.002 . S
O466 C483 1.295 . S
O467 Fe462 1.997 . S
O467 C483 1.235 . S
O468 Fe462 2.002 . S
O468 C469 1.295 . S
C469 O468 1.295 . S
C469 O471 1.235 . S
C470 O475 1.287 . S
C470 O476 1.255 . S
O471 Fe463 1.997 . S
O471 C469 1.235 . S
C472 O478 1.287 . S
C472 O479 1.255 . S
O473 Fe462 1.976 . S
O473 C480 1.287 . S
O474 Fe463 1.996 . S
O474 C480 1.255 . S
O475 Fe465 1.976 . S
O475 C470 1.287 . S
O476 Fe462 1.996 . S
O476 C470 1.255 . S
C477 O481 1.295 . S
C477 O482 1.235 . S
O478 Fe463 1.976 . S
O478 C472 1.287 . S
O479 Fe465 1.996 . S
O479 C472 1.255 . S
C480 O473 1.287 . S
C480 O474 1.255 . S
O481 Fe463 2.002 . S
O481 C477 1.295 . S
O482 Fe465 1.997 . S
O482 C477 1.235 . S
C483 O466 1.295 . S
C483 O467 1.235 . S
Fe484 O486 1.918 . S
Fe484 O489 1.997 . S
Fe484 O490 2.002 . S
Fe484 O495 1.976 . S
Fe484 O498 1.996 . S
Fe485 O486 1.918 . S
Fe485 O493 1.997 . S
Fe485 O496 1.996 . S
Fe485 O500 1.976 . S
Fe485 O503 2.002 . S
O486 Fe484 1.918 . S
O486 Fe485 1.918 . S
O486 Fe487 1.918 . S
Fe487 O486 1.918 . S
Fe487 O488 2.002 . S
Fe487 O497 1.976 . S
Fe487 O501 1.996 . S
Fe487 O504 1.997 . S
O488 Fe487 2.002 . S
O488 C505 1.295 . S
O489 Fe484 1.997 . S
O489 C505 1.235 . S
O490 Fe484 2.002 . S
O490 C491 1.295 . S
C491 O490 1.295 . S
C491 O493 1.235 . S
C492 O497 1.287 . S
C492 O498 1.255 . S
O493 Fe485 1.997 . S
O493 C491 1.235 . S
C494 O500 1.287 . S
C494 O501 1.255 . S
O495 Fe484 1.976 . S
O495 C502 1.287 . S
O496 Fe485 1.996 . S
O496 C502 1.255 . S
O497 Fe487 1.976 . S
O497 C492 1.287 . S
O498 Fe484 1.996 . S
O498 C492 1.255 . S
C499 O503 1.295 . S
C499 O504 1.235 . S
O500 Fe485 1.976 . S
O500 C494 1.287 . S
O501 Fe487 1.996 . S
O501 C494 1.255 . S
C502 O495 1.287 . S
C502 O496 1.255 . S
O503 Fe485 2.002 . S
O503 C499 1.295 . S
O504 Fe487 1.997 . S
O504 C499 1.235 . S
C505 O488 1.295 . S
C505 O489 1.235 . S
Fe506 O508 1.918 . S
Fe506 O511 1.997 . S
Fe506 O512 2.002 . S
Fe506 O517 1.976 . S
Fe506 O520 1.996 . S
Fe507 O508 1.918 . S
Fe507 O515 1.997 . S
Fe507 O518 1.996 . S
Fe507 O522 1.976 . S
Fe507 O525 2.002 . S
O508 Fe506 1.918 . S
O508 Fe507 1.918 . S
O508 Fe509 1.918 . S
Fe509 O508 1.918 . S
Fe509 O510 2.002 . S
Fe509 O519 1.976 . S
Fe509 O523 1.996 . S
Fe509 O526 1.997 . S
O510 Fe509 2.002 . S
O510 C527 1.295 . S
O511 Fe506 1.997 . S
O511 C527 1.235 . S
O512 Fe506 2.002 . S
O512 C513 1.295 . S
C513 O512 1.295 . S
C513 O515 1.235 . S
C514 O519 1.287 . S
C514 O520 1.255 . S
O515 Fe507 1.997 . S
O515 C513 1.235 . S
C516 O522 1.287 . S
C516 O523 1.255 . S
O517 Fe506 1.976 . S
O517 C524 1.287 . S
O518 Fe507 1.996 . S
O518 C524 1.255 . S
O519 Fe509 1.976 . S
O519 C514 1.287 . S
O520 Fe506 1.996 . S
O520 C514 1.255 . S
C521 O525 1.295 . S
C521 O526 1.235 . S
O522 Fe507 1.976 . S
O522 C516 1.287 . S
O523 Fe509 1.996 . S
O523 C516 1.255 . S
C524 O517 1.287 . S
C524 O518 1.255 . S
O525 Fe507 2.002 . S
O525 C521 1.295 . S
O526 Fe509 1.997 . S
O526 C521 1.235 . S
C527 O510 1.295 . S
C527 O511 1.235 . S
Fe528 O530 1.918 . S
Fe528 O533 1.997 . S
Fe528 O534 2.002 . S
Fe528 O539 1.976 . S
Fe528 O542 1.996 . S
Fe529 O530 1.918 . S
Fe529 O537 1.997 . S
Fe529 O540 1.996 . S
Fe529 O544 1.976 . S
Fe529 O547 2.002 . S
O530 Fe528 1.918 . S
O530 Fe529 1.918 . S
O530 Fe531 1.918 . S
Fe531 O530 1.918 . S
Fe531 O532 2.002 . S
Fe531 O541 1.976 . S
Fe531 O545 1.996 . S
Fe531 O548 1.997 . S
O532 Fe531 2.002 . S
O532 C549 1.295 . S
O533 Fe528 1.997 . S
O533 C549 1.235 . S
O534 Fe528 2.002 . S
O534 C535 1.295 . S
C535 O534 1.295 . S
C535 O537 1.235 . S
C536 O541 1.287 . S
C536 O542 1.255 . S
O537 Fe529 1.997 . S
O537 C535 1.235 . S
C538 O544 1.287 . S
C538 O545 1.255 . S
O539 Fe528 1.976 . S
O539 C546 1.287 . S
O540 Fe529 1.996 . S
O540 C546 1.255 . S
O541 Fe531 1.976 . S
O541 C536 1.287 . S
O542 Fe528 1.996 . S
O542 C536 1.255 . S
C543 O547 1.295 . S
C543 O548 1.235 . S
O544 Fe529 1.976 . S
O544 C538 1.287 . S
O545 Fe531 1.996 . S
O545 C538 1.255 . S
C546 O539 1.287 . S
C546 O540 1.255 . S
O547 Fe529 2.002 . S
O547 C543 1.295 . S
O548 Fe531 1.997 . S
O548 C543 1.235 . S
C549 O532 1.295 . S
C549 O533 1.235 . S
Fe550 O552 1.918 . S
Fe550 O555 1.997 . S
Fe550 O556 2.002 . S
Fe550 O561 1.976 . S
Fe550 O564 1.996 . S
Fe551 O552 1.918 . S
Fe551 O559 1.997 . S
Fe551 O562 1.996 . S
Fe551 O566 1.976 . S
Fe551 O569 2.002 . S
O552 Fe550 1.918 . S
O552 Fe551 1.918 . S
O552 Fe553 1.918 . S
Fe553 O552 1.918 . S
Fe553 O554 2.002 . S
Fe553 O563 1.976 . S
Fe553 O567 1.996 . S
Fe553 O570 1.997 . S
O554 Fe553 2.002 . S
O554 C571 1.295 . S
O555 Fe550 1.997 . S
O555 C571 1.235 . S
O556 Fe550 2.002 . S
O556 C557 1.295 . S
C557 O556 1.295 . S
C557 O559 1.235 . S
C558 O563 1.287 . S
C558 O564 1.255 . S
O559 Fe551 1.997 . S
O559 C557 1.235 . S
C560 O566 1.287 . S
C560 O567 1.255 . S
O561 Fe550 1.976 . S
O561 C568 1.287 . S
O562 Fe551 1.996 . S
O562 C568 1.255 . S
O563 Fe553 1.976 . S
O563 C558 1.287 . S
O564 Fe550 1.996 . S
O564 C558 1.255 . S
C565 O569 1.295 . S
C565 O570 1.235 . S
O566 Fe551 1.976 . S
O566 C560 1.287 . S
O567 Fe553 1.996 . S
O567 C560 1.255 . S
C568 O561 1.287 . S
C568 O562 1.255 . S
O569 Fe551 2.002 . S
O569 C565 1.295 . S
O570 Fe553 1.997 . S
O570 C565 1.235 . S
C571 O554 1.295 . S
C571 O555 1.235 . S
Fe572 O574 1.918 . S
Fe572 O577 1.997 . S
Fe572 O578 2.002 . S
Fe572 O583 1.976 . S
Fe572 O586 1.996 . S
Fe573 O574 1.918 . S
Fe573 O581 1.997 . S
Fe573 O584 1.996 . S
Fe573 O588 1.976 . S
Fe573 O591 2.002 . S
O574 Fe572 1.918 . S
O574 Fe573 1.918 . S
O574 Fe575 1.918 . S
Fe575 O574 1.918 . S
Fe575 O576 2.002 . S
Fe575 O585 1.976 . S
Fe575 O589 1.996 . S
Fe575 O592 1.997 . S
O576 Fe575 2.002 . S
O576 C593 1.295 . S
O577 Fe572 1.997 . S
O577 C593 1.235 . S
O578 Fe572 2.002 . S
O578 C579 1.295 . S
C579 O578 1.295 . S
C579 O581 1.235 . S
C580 O585 1.287 . S
C580 O586 1.255 . S
O581 Fe573 1.997 . S
O581 C579 1.235 . S
C582 O588 1.287 . S
C582 O589 1.255 . S
O583 Fe572 1.976 . S
O583 C590 1.287 . S
O584 Fe573 1.996 . S
O584 C590 1.255 . S
O585 Fe575 1.976 . S
O585 C580 1.287 . S
O586 Fe572 1.996 . S
O586 C580 1.255 . S
C587 O591 1.295 . S
C587 O592 1.235 . S
O588 Fe573 1.976 . S
O588 C582 1.287 . S
O589 Fe575 1.996 . S
O589 C582 1.255 . S
C590 O583 1.287 . S
C590 O584 1.255 . S
O591 Fe573 2.002 . S
O591 C587 1.295 . S
O592 Fe575 1.997 . S
O592 C587 1.235 . S
C593 O576 1.295 . S
C593 O577 1.235 . S
Fe594 O596 1.918 . S
Fe594 O599 1.997 . S
Fe594 O600 2.002 . S
Fe594 O605 1.976 . S
Fe594 O608 1.996 . S
Fe595 O596 1.918 . S
Fe595 O603 1.997 . S
Fe595 O606 1.996 . S
Fe595 O610 1.976 . S
Fe595 O613 2.002 . S
O596 Fe594 1.918 . S
O596 Fe595 1.918 . S
O596 Fe597 1.918 . S
Fe597 O596 1.918 . S
Fe597 O598 2.002 . S
Fe597 O607 1.976 . S
Fe597 O611 1.996 . S
Fe597 O614 1.997 . S
O598 Fe597 2.002 . S
O598 C615 1.295 . S
O599 Fe594 1.997 . S
O599 C615 1.235 . S
O600 Fe594 2.002 . S
O600 C601 1.295 . S
C601 O600 1.295 . S
C601 O603 1.235 . S
C602 O607 1.287 . S
C602 O608 1.255 . S
O603 Fe595 1.997 . S
O603 C601 1.235 . S
C604 O610 1.287 . S
C604 O611 1.255 . S
O605 Fe594 1.976 . S
O605 C612 1.287 . S
O606 Fe595 1.996 . S
O606 C612 1.255 . S
O607 Fe597 1.976 . S
O607 C602 1.287 . S
O608 Fe594 1.996 . S
O608 C602 1.255 . S
C609 O613 1.295 . S
C609 O614 1.235 . S
O610 Fe595 1.976 . S
O610 C604 1.287 . S
O611 Fe597 1.996 . S
O611 C604 1.255 . S
C612 O605 1.287 . S
C612 O606 1.255 . S
O613 Fe595 2.002 . S
O613 C609 1.295 . S
O614 Fe597 1.997 . S
O614 C609 1.235 . S
C615 O598 1.295 . S
C615 O599 1.235 . S
Fe616 O618 1.918 . S
Fe616 O621 1.997 . S
Fe616 O622 2.002 . S
Fe616 O627 1.976 . S
Fe616 O630 1.996 . S
Fe617 O618 1.918 . S
Fe617 O625 1.997 . S
Fe617 O628 1.996 . S
Fe617 O632 1.976 . S
Fe617 O635 2.002 . S
O618 Fe616 1.918 . S
O618 Fe617 1.918 . S
O618 Fe619 1.918 . S
Fe619 O618 1.918 . S
Fe619 O620 2.002 . S
Fe619 O629 1.976 . S
Fe619 O633 1.996 . S
Fe619 O636 1.997 . S
O620 Fe619 2.002 . S
O620 C637 1.295 . S
O621 Fe616 1.997 . S
O621 C637 1.235 . S
O622 Fe616 2.002 . S
O622 C623 1.295 . S
C623 O622 1.295 . S
C623 O625 1.235 . S
C624 O629 1.287 . S
C624 O630 1.255 . S
O625 Fe617 1.997 . S
O625 C623 1.235 . S
C626 O632 1.287 . S
C626 O633 1.255 . S
O627 Fe616 1.976 . S
O627 C634 1.287 . S
O628 Fe617 1.996 . S
O628 C634 1.255 . S
O629 Fe619 1.976 . S
O629 C624 1.287 . S
O630 Fe616 1.996 . S
O630 C624 1.255 . S
C631 O635 1.295 . S
C631 O636 1.235 . S
O632 Fe617 1.976 . S
O632 C626 1.287 . S
O633 Fe619 1.996 . S
O633 C626 1.255 . S
C634 O627 1.287 . S
C634 O628 1.255 . S
O635 Fe617 2.002 . S
O635 C631 1.295 . S
O636 Fe619 1.997 . S
O636 C631 1.235 . S
C637 O620 1.295 . S
C637 O621 1.235 . S
Fe638 O640 1.918 . S
Fe638 O643 1.997 . S
Fe638 O644 2.002 . S
Fe638 O649 1.976 . S
Fe638 O652 1.996 . S
Fe639 O640 1.918 . S
Fe639 O647 1.997 . S
Fe639 O650 1.996 . S
Fe639 O654 1.976 . S
Fe639 O657 2.002 . S
O640 Fe638 1.918 . S
O640 Fe639 1.918 . S
O640 Fe641 1.918 . S
Fe641 O640 1.918 . S
Fe641 O642 2.002 . S
Fe641 O651 1.976 . S
Fe641 O655 1.996 . S
Fe641 O658 1.997 . S
O642 Fe641 2.002 . S
O642 C659 1.295 . S
O643 Fe638 1.997 . S
O643 C659 1.235 . S
O644 Fe638 2.002 . S
O644 C645 1.295 . S
C645 O644 1.295 . S
C645 O647 1.235 . S
C646 O651 1.287 . S
C646 O652 1.255 . S
O647 Fe639 1.997 . S
O647 C645 1.235 . S
C648 O654 1.287 . S
C648 O655 1.255 . S
O649 Fe638 1.976 . S
O649 C656 1.287 . S
O650 Fe639 1.996 . S
O650 C656 1.255 . S
O651 Fe641 1.976 . S
O651 C646 1.287 . S
O652 Fe638 1.996 . S
O652 C646 1.255 . S
C653 O657 1.295 . S
C653 O658 1.235 . S
O654 Fe639 1.976 . S
O654 C648 1.287 . S
O655 Fe641 1.996 . S
O655 C648 1.255 . S
C656 O649 1.287 . S
C656 O650 1.255 . S
O657 Fe639 2.002 . S
O657 C653 1.295 . S
O658 Fe641 1.997 . S
O658 C653 1.235 . S
C659 O642 1.295 . S
C659 O643 1.235 . S
Fe660 O662 1.918 . S
Fe660 O665 1.997 . S
Fe660 O666 2.002 . S
Fe660 O671 1.976 . S
Fe660 O674 1.996 . S
Fe661 O662 1.918 . S
Fe661 O669 1.997 . S
Fe661 O672 1.996 . S
Fe661 O676 1.976 . S
Fe661 O679 2.002 . S
O662 Fe660 1.918 . S
O662 Fe661 1.918 . S
O662 Fe663 1.918 . S
Fe663 O662 1.918 . S
Fe663 O664 2.002 . S
Fe663 O673 1.976 . S
Fe663 O677 1.996 . S
Fe663 O680 1.997 . S
O664 Fe663 2.002 . S
O664 C681 1.295 . S
O665 Fe660 1.997 . S
O665 C681 1.235 . S
O666 Fe660 2.002 . S
O666 C667 1.295 . S
C667 O666 1.295 . S
C667 O669 1.235 . S
C668 O673 1.287 . S
C668 O674 1.255 . S
O669 Fe661 1.997 . S
O669 C667 1.235 . S
C670 O676 1.287 . S
C670 O677 1.255 . S
O671 Fe660 1.976 . S
O671 C678 1.287 . S
O672 Fe661 1.996 . S
O672 C678 1.255 . S
O673 Fe663 1.976 . S
O673 C668 1.287 . S
O674 Fe660 1.996 . S
O674 C668 1.255 . S
C675 O679 1.295 . S
C675 O680 1.235 . S
O676 Fe661 1.976 . S
O676 C670 1.287 . S
O677 Fe663 1.996 . S
O677 C670 1.255 . S
C678 O671 1.287 . S
C678 O672 1.255 . S
O679 Fe661 2.002 . S
O679 C675 1.295 . S
O680 Fe663 1.997 . S
O680 C675 1.235 . S
C681 O664 1.295 . S
C681 O665 1.235 . S
Fe682 O684 1.918 . S
Fe682 O687 1.997 . S
Fe682 O688 2.002 . S
Fe682 O693 1.976 . S
Fe682 O696 1.996 . S
Fe683 O684 1.918 . S
Fe683 O691 1.997 . S
Fe683 O694 1.996 . S
Fe683 O698 1.976 . S
Fe683 O701 2.002 . S
O684 Fe682 1.918 . S
O684 Fe683 1.918 . S
O684 Fe685 1.918 . S
Fe685 O684 1.918 . S
Fe685 O686 2.002 . S
Fe685 O695 1.976 . S
Fe685 O699 1.996 . S
Fe685 O702 1.997 . S
O686 Fe685 2.002 . S
O686 C703 1.295 . S
O687 Fe682 1.997 . S
O687 C703 1.235 . S
O688 Fe682 2.002 . S
O688 C689 1.295 . S
C689 O688 1.295 . S
C689 O691 1.235 . S
C690 O695 1.287 . S
C690 O696 1.255 . S
O691 Fe683 1.997 . S
O691 C689 1.235 . S
C692 O698 1.287 . S
C692 O699 1.255 . S
O693 Fe682 1.976 . S
O693 C700 1.287 . S
O694 Fe683 1.996 . S
O694 C700 1.255 . S
O695 Fe685 1.976 . S
O695 C690 1.287 . S
O696 Fe682 1.996 . S
O696 C690 1.255 . S
C697 O701 1.295 . S
C697 O702 1.235 . S
O698 Fe683 1.976 . S
O698 C692 1.287 . S
O699 Fe685 1.996 . S
O699 C692 1.255 . S
C700 O693 1.287 . S
C700 O694 1.255 . S
O701 Fe683 2.002 . S
O701 C697 1.295 . S
O702 Fe685 1.997 . S
O702 C697 1.235 . S
C703 O686 1.295 . S
C703 O687 1.235 . S
Fe704 O706 1.918 . S
Fe704 O709 1.997 . S
Fe704 O710 2.002 . S
Fe704 O715 1.976 . S
Fe704 O718 1.996 . S
Fe705 O706 1.918 . S
Fe705 O713 1.997 . S
Fe705 O716 1.996 . S
Fe705 O720 1.976 . S
Fe705 O723 2.002 . S
O706 Fe704 1.918 . S
O706 Fe705 1.918 . S
O706 Fe707 1.918 . S
Fe707 O706 1.918 . S
Fe707 O708 2.002 . S
Fe707 O717 1.976 . S
Fe707 O721 1.996 . S
Fe707 O724 1.997 . S
O708 Fe707 2.002 . S
O708 C725 1.295 . S
O709 Fe704 1.997 . S
O709 C725 1.235 . S
O710 Fe704 2.002 . S
O710 C711 1.295 . S
C711 O710 1.295 . S
C711 O713 1.235 . S
C712 O717 1.287 . S
C712 O718 1.255 . S
O713 Fe705 1.997 . S
O713 C711 1.235 . S
C714 O720 1.287 . S
C714 O721 1.255 . S
O715 Fe704 1.976 . S
O715 C722 1.287 . S
O716 Fe705 1.996 . S
O716 C722 1.255 . S
O717 Fe707 1.976 . S
O717 C712 1.287 . S
O718 Fe704 1.996 . S
O718 C712 1.255 . S
C719 O723 1.295 . S
C719 O724 1.235 . S
O720 Fe705 1.976 . S
O720 C714 1.287 . S
O721 Fe707 1.996 . S
O721 C714 1.255 . S
C722 O715 1.287 . S
C722 O716 1.255 . S
O723 Fe705 2.002 . S
O723 C719 1.295 . S
O724 Fe707 1.997 . S
O724 C719 1.235 . S
C725 O708 1.295 . S
C725 O709 1.235 . S
Fe726 O728 1.918 . S
Fe726 O731 1.997 . S
Fe726 O732 2.002 . S
Fe726 O737 1.976 . S
Fe726 O740 1.996 . S
Fe727 O728 1.918 . S
Fe727 O735 1.997 . S
Fe727 O738 1.996 . S
Fe727 O742 1.976 . S
Fe727 O745 2.002 . S
O728 Fe726 1.918 . S
O728 Fe727 1.918 . S
O728 Fe729 1.918 . S
Fe729 O728 1.918 . S
Fe729 O730 2.002 . S
Fe729 O739 1.976 . S
Fe729 O743 1.996 . S
Fe729 O746 1.997 . S
O730 Fe729 2.002 . S
O730 C747 1.295 . S
O731 Fe726 1.997 . S
O731 C747 1.235 . S
O732 Fe726 2.002 . S
O732 C733 1.295 . S
C733 O732 1.295 . S
C733 O735 1.235 . S
C734 O739 1.287 . S
C734 O740 1.255 . S
O735 Fe727 1.997 . S
O735 C733 1.235 . S
C736 O742 1.287 . S
C736 O743 1.255 . S
O737 Fe726 1.976 . S
O737 C744 1.287 . S
O738 Fe727 1.996 . S
O738 C744 1.255 . S
O739 Fe729 1.976 . S
O739 C734 1.287 . S
O740 Fe726 1.996 . S
O740 C734 1.255 . S
C741 O745 1.295 . S
C741 O746 1.235 . S
O742 Fe727 1.976 . S
O742 C736 1.287 . S
O743 Fe729 1.996 . S
O743 C736 1.255 . S
C744 O737 1.287 . S
C744 O738 1.255 . S
O745 Fe727 2.002 . S
O745 C741 1.295 . S
O746 Fe729 1.997 . S
O746 C741 1.235 . S
C747 O730 1.295 . S
C747 O731 1.235 . S
Fe748 O750 1.918 . S
Fe748 O753 1.997 . S
Fe748 O754 2.002 . S
Fe748 O759 1.976 . S
Fe748 O762 1.996 . S
Fe749 O750 1.918 . S
Fe749 O757 1.997 . S
Fe749 O760 1.996 . S
Fe749 O764 1.976 . S
Fe749 O767 2.002 . S
O750 Fe748 1.918 . S
O750 Fe749 1.918 . S
O750 Fe751 1.918 . S
Fe751 O750 1.918 . S
Fe751 O752 2.002 . S
Fe751 O761 1.976 . S
Fe751 O765 1.996 . S
Fe751 O768 1.997 . S
O752 Fe751 2.002 . S
O752 C769 1.295 . S
O753 Fe748 1.997 . S
O753 C769 1.235 . S
O754 Fe748 2.002 . S
O754 C755 1.295 . S
C755 O754 1.295 . S
C755 O757 1.235 . S
C756 O761 1.287 . S
C756 O762 1.255 . S
O757 Fe749 1.997 . S
O757 C755 1.235 . S
C758 O764 1.287 . S
C758 O765 1.255 . S
O759 Fe748 1.976 . S
O759 C766 1.287 . S
O760 Fe749 1.996 . S
O760 C766 1.255 . S
O761 Fe751 1.976 . S
O761 C756 1.287 . S
O762 Fe748 1.996 . S
O762 C756 1.255 . S
C763 O767 1.295 . S
C763 O768 1.235 . S
O764 Fe749 1.976 . S
O764 C758 1.287 . S
O765 Fe751 1.996 . S
O765 C758 1.255 . S
C766 O759 1.287 . S
C766 O760 1.255 . S
O767 Fe749 2.002 . S
O767 C763 1.295 . S
O768 Fe751 1.997 . S
O768 C763 1.235 . S
C769 O752 1.295 . S
C769 O753 1.235 . S
Fe770 O772 1.918 . S
Fe770 O775 1.997 . S
Fe770 O776 2.002 . S
Fe770 O781 1.976 . S
Fe770 O784 1.996 . S
Fe771 O772 1.918 . S
Fe771 O779 1.997 . S
Fe771 O782 1.996 . S
Fe771 O786 1.976 . S
Fe771 O789 2.002 . S
O772 Fe770 1.918 . S
O772 Fe771 1.918 . S
O772 Fe773 1.918 . S
Fe773 O772 1.918 . S
Fe773 O774 2.002 . S
Fe773 O783 1.976 . S
Fe773 O787 1.996 . S
Fe773 O790 1.997 . S
O774 Fe773 2.002 . S
O774 C791 1.295 . S
O775 Fe770 1.997 . S
O775 C791 1.235 . S
O776 Fe770 2.002 . S
O776 C777 1.295 . S
C777 O776 1.295 . S
C777 O779 1.235 . S
C778 O783 1.287 . S
C778 O784 1.255 . S
O779 Fe771 1.997 . S
O779 C777 1.235 . S
C780 O786 1.287 . S
C780 O787 1.255 . S
O781 Fe770 1.976 . S
O781 C788 1.287 . S
O782 Fe771 1.996 . S
O782 C788 1.255 . S
O783 Fe773 1.976 . S
O783 C778 1.287 . S
O784 Fe770 1.996 . S
O784 C778 1.255 . S
C785 O789 1.295 . S
C785 O790 1.235 . S
O786 Fe771 1.976 . S
O786 C780 1.287 . S
O787 Fe773 1.996 . S
O787 C780 1.255 . S
C788 O781 1.287 . S
C788 O782 1.255 . S
O789 Fe771 2.002 . S
O789 C785 1.295 . S
O790 Fe773 1.997 . S
O790 C785 1.235 . S
C791 O774 1.295 . S
C791 O775 1.235 . S
H792 C798 0.930 . S
H793 C801 0.930 . S
H794 C802 0.930 . S
H795 C803 0.930 . S
H796 C806 0.930 . S
H797 C807 0.930 1_554 S
C798 H792 0.930 . S
C798 C799 1.353 1_554 S
C798 C800 1.415 1_554 S
C799 C798 1.353 1_556 S
C799 C801 1.433 . S
C800 C798 1.415 1_556 S
C800 C805 1.425 . S
C800 C807 1.409 . S
C801 H793 0.930 . S
C801 C799 1.433 . S
C801 C802 1.362 . S
C802 H794 0.930 . S
C802 C801 1.362 . S
C802 C805 1.409 . S
C803 H795 0.930 . S
C803 C804 1.355 . S
C803 C805 1.415 . S
C804 C803 1.355 . S
C804 C806 1.419 . S
C805 C800 1.425 . S
C805 C802 1.409 . S
C805 C803 1.415 . S
C806 H796 0.930 . S
C806 C804 1.419 . S
C806 C807 1.362 . S
C807 H797 0.930 1_556 S
C807 C800 1.409 . S
C807 C806 1.362 . S
H808 C814 0.930 . S
H809 C817 0.930 . S
H810 C818 0.930 . S
H811 C819 0.930 . S
H812 C822 0.930 . S
H813 C823 0.930 . S
C814 H808 0.930 . S
C814 C815 1.355 . S
C814 C816 1.415 . S
C815 C814 1.355 . S
C815 C817 1.419 . S
C816 C814 1.415 . S
C816 C821 1.425 . S
C816 C823 1.409 1_556 S
C817 H809 0.930 . S
C817 C815 1.419 . S
C817 C818 1.362 . S
C818 H810 0.930 . S
C818 C817 1.362 . S
C818 C821 1.409 . S
C819 H811 0.930 . S
C819 C820 1.355 1_556 S
C819 C821 1.415 . S
C820 C819 1.355 1_554 S
C820 C822 1.419 . S
C821 C816 1.425 . S
C821 C818 1.409 . S
C821 C819 1.415 . S
C822 H812 0.930 . S
C822 C820 1.419 . S
C822 C823 1.362 . S
C823 H813 0.930 . S
C823 C816 1.409 1_554 S
C823 C822 1.362 . S
H824 C830 0.930 . S
H825 C833 0.930 1_554 S
H826 C834 0.930 . S
H827 C835 0.930 . S
H828 C838 0.930 . S
H829 C839 0.930 . S
C830 H824 0.930 . S
C830 C831 1.355 . S
C830 C832 1.415 . S
C831 C830 1.355 . S
C831 C833 1.419 . S
C832 C830 1.415 . S
C832 C837 1.425 . S
C832 C839 1.409 . S
C833 H825 0.930 1_556 S
C833 C831 1.419 . S
C833 C834 1.362 1_556 S
C834 H826 0.930 . S
C834 C833 1.362 1_554 S
C834 C837 1.409 1_554 S
C835 H827 0.930 . S
C835 C836 1.355 1_554 S
C835 C837 1.415 1_554 S
C836 C835 1.355 1_556 S
C836 C838 1.419 . S
C837 C832 1.425 . S
C837 C834 1.409 1_556 S
C837 C835 1.415 1_556 S
C838 H828 0.930 . S
C838 C836 1.419 . S
C838 C839 1.362 . S
C839 H829 0.930 . S
C839 C832 1.409 . S
C839 C838 1.362 . S
H840 C846 0.930 . S
H841 C849 0.930 . S
H842 C850 0.930 . S
H843 C851 0.930 . S
H844 C854 0.930 . S
H845 C855 0.930 . S
C846 H840 0.930 . S
C846 C847 1.355 . S
C846 C848 1.415 . S
C847 C846 1.355 . S
C847 C849 1.419 . S
C848 C846 1.415 . S
C848 C853 1.425 . S
C848 C855 1.409 . S
C849 H841 0.930 . S
C849 C847 1.419 . S
C849 C850 1.362 . S
C850 H842 0.930 . S
C850 C849 1.362 . S
C850 C853 1.409 . S
C851 H843 0.930 . S
C851 C852 1.355 . S
C851 C853 1.415 . S
C852 C851 1.355 . S
C852 C854 1.419 . S
C853 C848 1.425 . S
C853 C850 1.409 . S
C853 C851 1.415 . S
C854 H844 0.930 . S
C854 C852 1.419 . S
C854 C855 1.362 . S
C855 H845 0.930 . S
C855 C848 1.409 . S
C855 C854 1.362 . S
H856 C862 0.930 . S
H857 C865 0.930 . S
H858 C866 0.930 . S
H859 C867 0.930 . S
H860 C870 0.930 . S
H861 C871 0.930 . S
C862 H856 0.930 . S
C862 C863 1.355 . S
C862 C864 1.415 . S
C863 C862 1.355 . S
C863 C865 1.419 . S
C864 C862 1.415 . S
C864 C869 1.425 . S
C864 C871 1.409 . S
C865 H857 0.930 . S
C865 C863 1.419 . S
C865 C866 1.362 . S
C866 H858 0.930 . S
C866 C865 1.362 . S
C866 C869 1.409 . S
C867 H859 0.930 . S
C867 C868 1.355 . S
C867 C869 1.415 . S
C868 C867 1.355 . S
C868 C870 1.419 . S
C869 C864 1.425 . S
C869 C866 1.409 . S
C869 C867 1.415 . S
C870 H860 0.930 . S
C870 C868 1.419 . S
C870 C871 1.362 . S
C871 H861 0.930 . S
C871 C864 1.409 . S
C871 C870 1.362 . S
H872 C878 0.930 . S
H873 C881 0.930 . S
H874 C882 0.930 . S
H875 C883 0.930 . S
H876 C886 0.930 . S
H877 C887 0.930 . S
C878 H872 0.930 . S
C878 C879 1.355 . S
C878 C880 1.415 . S
C879 C878 1.355 . S
C879 C881 1.419 . S
C880 C878 1.415 . S
C880 C885 1.425 . S
C880 C887 1.409 . S
C881 H873 0.930 . S
C881 C879 1.419 . S
C881 C882 1.362 . S
C882 H874 0.930 . S
C882 C881 1.362 . S
C882 C885 1.409 . S
C883 H875 0.930 . S
C883 C884 1.355 . S
C883 C885 1.415 . S
C884 C883 1.355 . S
C884 C886 1.419 . S
C885 C880 1.425 . S
C885 C882 1.409 . S
C885 C883 1.415 . S
C886 H876 0.930 . S
C886 C884 1.419 . S
C886 C887 1.362 . S
C887 H877 0.930 . S
C887 C880 1.409 . S
C887 C886 1.362 . S
H888 C894 0.930 . S
H889 C897 0.930 . S
H890 C898 0.930 . S
H891 C899 0.931 . S
H892 C902 0.930 . S
H893 C903 0.930 . S
C894 H888 0.930 . S
C894 C895 1.355 . S
C894 C896 1.415 . S
C895 C894 1.355 . S
C895 C897 1.419 . S
C896 C894 1.415 . S
C896 C901 1.425 . S
C896 C903 1.409 . S
C897 H889 0.930 . S
C897 C895 1.419 . S
C897 C898 1.362 . S
C898 H890 0.930 . S
C898 C897 1.362 . S
C898 C901 1.409 . S
C899 H891 0.931 . S
C899 C900 1.355 . S
C899 C901 1.413 1_556 S
C900 C899 1.355 . S
C900 C902 1.419 1_556 S
C901 C896 1.425 . S
C901 C898 1.409 . S
C901 C899 1.413 1_554 S
C902 H892 0.930 . S
C902 C900 1.419 1_554 S
C902 C903 1.362 . S
C903 H893 0.930 . S
C903 C896 1.409 . S
C903 C902 1.362 . S
H904 C910 0.930 . S
H905 C913 0.930 . S
H906 C914 0.930 . S
H907 C915 0.930 . S
H908 C918 0.930 1_556 S
H909 C919 0.930 . S
C910 H904 0.930 . S
C910 C911 1.355 1_556 S
C910 C912 1.415 1_556 S
C911 C910 1.355 1_554 S
C911 C913 1.419 . S
C912 C910 1.415 1_554 S
C912 C917 1.425 . S
C912 C919 1.409 1_554 S
C913 H905 0.930 . S
C913 C911 1.419 . S
C913 C914 1.362 . S
C914 H906 0.930 . S
C914 C913 1.362 . S
C914 C917 1.409 . S
C915 H907 0.930 . S
C915 C916 1.355 . S
C915 C917 1.415 . S
C916 C915 1.355 . S
C916 C918 1.419 . S
C917 C912 1.425 . S
C917 C914 1.409 . S
C917 C915 1.415 . S
C918 H908 0.930 1_554 S
C918 C916 1.419 . S
C918 C919 1.362 1_554 S
C919 H909 0.930 . S
C919 C912 1.409 1_556 S
C919 C918 1.362 1_556 S
H920 C926 0.934 . S
H921 C929 0.930 . S
H922 C930 0.930 . S
H923 C931 0.930 . S
H924 C934 0.930 . S
H925 C935 0.930 . S
C926 H920 0.934 . S
C926 C927 1.355 . S
C926 C928 1.415 . S
C927 C926 1.355 . S
C927 C929 1.419 . S
C928 C926 1.415 . S
C928 C933 1.425 . S
C928 C935 1.409 1_554 S
C929 H921 0.930 . S
C929 C927 1.419 . S
C929 C930 1.362 . S
C930 H922 0.930 . S
C930 C929 1.362 . S
C930 C933 1.409 . S
C931 H923 0.930 . S
C931 C932 1.355 1_554 S
C931 C933 1.415 . S
C932 C931 1.355 1_556 S
C932 C934 1.419 . S
C933 C928 1.425 . S
C933 C930 1.409 . S
C933 C931 1.415 . S
C934 H924 0.930 . S
C934 C932 1.419 . S
C934 C935 1.362 . S
C935 H925 0.930 . S
C935 C928 1.409 1_556 S
C935 C934 1.362 . S
H936 C942 0.930 . S
H937 C945 0.930 . S
H938 C946 0.930 . S
H939 C947 0.930 . S
H940 C950 0.930 . S
H941 C951 0.930 . S
C942 H936 0.930 . S
C942 C943 1.355 . S
C942 C944 1.415 . S
C943 C942 1.355 . S
C943 C945 1.419 . S
C944 C942 1.415 . S
C944 C949 1.425 . S
C944 C951 1.409 . S
C945 H937 0.930 . S
C945 C943 1.419 . S
C945 C946 1.362 . S
C946 H938 0.930 . S
C946 C945 1.362 . S
C946 C949 1.409 . S
C947 H939 0.930 . S
C947 C948 1.355 . S
C947 C949 1.415 . S
C948 C947 1.355 . S
C948 C950 1.419 . S
C949 C944 1.425 . S
C949 C946 1.409 . S
C949 C947 1.415 . S
C950 H940 0.930 . S
C950 C948 1.419 . S
C950 C951 1.362 . S
C951 H941 0.930 . S
C951 C944 1.409 . S
C951 C950 1.362 . S
H952 C958 0.930 . S
H953 C961 0.930 . S
H954 C962 0.930 . S
H955 C963 0.930 . S
H956 C966 0.930 . S
H957 C967 0.930 . S
C958 H952 0.930 . S
C958 C959 1.355 . S
C958 C960 1.415 . S
C959 C958 1.355 . S
C959 C961 1.419 . S
C960 C958 1.415 . S
C960 C965 1.425 . S
C960 C967 1.409 . S
C961 H953 0.930 . S
C961 C959 1.419 . S
C961 C962 1.362 . S
C962 H954 0.930 . S
C962 C961 1.362 . S
C962 C965 1.409 . S
C963 H955 0.930 . S
C963 C964 1.355 . S
C963 C965 1.415 . S
C964 C963 1.355 . S
C964 C966 1.419 . S
C965 C960 1.425 . S
C965 C962 1.409 . S
C965 C963 1.415 . S
C966 H956 0.930 . S
C966 C964 1.419 . S
C966 C967 1.362 . S
C967 H957 0.930 . S
C967 C960 1.409 . S
C967 C966 1.362 . S
H968 C974 0.930 . S
H969 C977 0.930 . S
H970 C978 0.930 . S
H971 C979 0.930 . S
H972 C982 0.930 . S
H973 C983 0.930 . S
C974 H968 0.930 . S
C974 C975 1.355 . S
C974 C976 1.415 . S
C975 C974 1.355 . S
C975 C977 1.419 . S
C976 C974 1.415 . S
C976 C981 1.425 . S
C976 C983 1.409 . S
C977 H969 0.930 . S
C977 C975 1.419 . S
C977 C978 1.362 . S
C978 H970 0.930 . S
C978 C977 1.362 . S
C978 C981 1.409 . S
C979 H971 0.930 . S
C979 C980 1.355 . S
C979 C981 1.415 . S
C980 C979 1.355 . S
C980 C982 1.419 . S
C981 C976 1.425 . S
C981 C978 1.409 . S
C981 C979 1.415 . S
C982 H972 0.930 . S
C982 C980 1.419 . S
C982 C983 1.362 . S
C983 H973 0.930 . S
C983 C976 1.409 . S
C983 C982 1.362 . S
H984 C990 0.930 . S
H985 C993 0.930 . S
H986 C994 0.930 . S
H987 C995 0.930 . S
H988 C998 0.930 . S
H989 C999 0.930 . S
C990 H984 0.930 . S
C990 C991 1.355 . S
C990 C992 1.415 . S
C991 C990 1.355 . S
C991 C993 1.419 . S
C992 C990 1.415 . S
C992 C997 1.425 . S
C992 C999 1.409 . S
C993 H985 0.930 . S
C993 C991 1.419 . S
C993 C994 1.362 . S
C994 H986 0.930 . S
C994 C993 1.362 . S
C994 C997 1.409 . S
C995 H987 0.930 . S
C995 C996 1.355 . S
C995 C997 1.415 . S
C996 C995 1.355 . S
C996 C998 1.419 . S
C997 C992 1.425 . S
C997 C994 1.409 . S
C997 C995 1.415 . S
C998 H988 0.930 . S
C998 C996 1.419 . S
C998 C999 1.362 . S
C999 H989 0.930 . S
C999 C992 1.409 . S
C999 C998 1.362 . S
H1000 C1006 0.930 . S
H1001 C1009 0.930 . S
H1002 C1010 0.930 . S
H1003 C1011 0.930 . S
H1004 C1014 0.930 . S
H1005 C1015 0.930 . S
C1006 H1000 0.930 . S
C1006 C1007 1.355 . S
C1006 C1008 1.415 . S
C1007 C1006 1.355 . S
C1007 C1009 1.419 . S
C1008 C1006 1.415 . S
C1008 C1013 1.425 . S
C1008 C1015 1.409 . S
C1009 H1001 0.930 . S
C1009 C1007 1.419 . S
C1009 C1010 1.362 . S
C1010 H1002 0.930 . S
C1010 C1009 1.362 . S
C1010 C1013 1.409 . S
C1011 H1003 0.930 . S
C1011 C1012 1.355 . S
C1011 C1013 1.415 . S
C1012 C1011 1.355 . S
C1012 C1014 1.419 . S
C1013 C1008 1.425 . S
C1013 C1010 1.409 . S
C1013 C1011 1.415 . S
C1014 H1004 0.930 . S
C1014 C1012 1.419 . S
C1014 C1015 1.362 . S
C1015 H1005 0.930 . S
C1015 C1008 1.409 . S
C1015 C1014 1.362 . S
H1016 C1022 0.930 . S
H1017 C1025 0.930 . S
H1018 C1026 0.930 . S
H1019 C1027 0.930 . S
H1020 C1030 0.930 . S
H1021 C1031 0.930 . S
C1022 H1016 0.930 . S
C1022 C1023 1.355 . S
C1022 C1024 1.415 . S
C1023 C1022 1.355 . S
C1023 C1025 1.419 . S
C1024 C1022 1.415 . S
C1024 C1029 1.425 . S
C1024 C1031 1.409 . S
C1025 H1017 0.930 . S
C1025 C1023 1.419 . S
C1025 C1026 1.362 . S
C1026 H1018 0.930 . S
C1026 C1025 1.362 . S
C1026 C1029 1.409 . S
C1027 H1019 0.930 . S
C1027 C1028 1.355 . S
C1027 C1029 1.415 . S
C1028 C1027 1.355 . S
C1028 C1030 1.419 . S
C1029 C1024 1.425 . S
C1029 C1026 1.409 . S
C1029 C1027 1.415 . S
C1030 H1020 0.930 . S
C1030 C1028 1.419 . S
C1030 C1031 1.362 . S
C1031 H1021 0.930 . S
C1031 C1024 1.409 . S
C1031 C1030 1.362 . S
H1032 C1038 0.930 . S
H1033 C1041 0.930 . S
H1034 C1042 0.930 . S
H1035 C1043 0.930 . S
H1036 C1046 0.930 . S
H1037 C1047 0.930 . S
C1038 H1032 0.930 . S
C1038 C1039 1.355 . S
C1038 C1040 1.415 . S
C1039 C1038 1.355 . S
C1039 C1041 1.419 . S
C1040 C1038 1.415 . S
C1040 C1045 1.425 . S
C1040 C1047 1.409 . S
C1041 H1033 0.930 . S
C1041 C1039 1.419 . S
C1041 C1042 1.362 . S
C1042 H1034 0.930 . S
C1042 C1041 1.362 . S
C1042 C1045 1.409 . S
C1043 H1035 0.930 . S
C1043 C1044 1.355 . S
C1043 C1045 1.415 . S
C1044 C1043 1.355 . S
C1044 C1046 1.419 . S
C1045 C1040 1.425 . S
C1045 C1042 1.409 . S
C1045 C1043 1.415 . S
C1046 H1036 0.930 . S
C1046 C1044 1.419 . S
C1046 C1047 1.362 . S
C1047 H1037 0.930 . S
C1047 C1040 1.409 . S
C1047 C1046 1.362 . S
H1048 C1054 0.930 . S
H1049 C1057 0.930 . S
H1050 C1058 0.930 . S
H1051 C1059 0.930 . S
H1052 C1062 0.930 . S
H1053 C1063 0.930 . S
C1054 H1048 0.930 . S
C1054 C1055 1.355 . S
C1054 C1056 1.415 . S
C1055 C1054 1.355 . S
C1055 C1057 1.419 . S
C1056 C1054 1.415 . S
C1056 C1061 1.425 . S
C1056 C1063 1.409 . S
C1057 H1049 0.930 . S
C1057 C1055 1.419 . S
C1057 C1058 1.362 . S
C1058 H1050 0.930 . S
C1058 C1057 1.362 . S
C1058 C1061 1.409 . S
C1059 H1051 0.930 . S
C1059 C1060 1.355 . S
C1059 C1061 1.415 . S
C1060 C1059 1.355 . S
C1060 C1062 1.419 . S
C1061 C1056 1.425 . S
C1061 C1058 1.409 . S
C1061 C1059 1.415 . S
C1062 H1052 0.930 . S
C1062 C1060 1.419 . S
C1062 C1063 1.362 . S
C1063 H1053 0.930 . S
C1063 C1056 1.409 . S
C1063 C1062 1.362 . S
H1064 C1070 0.930 . S
H1065 C1073 0.930 . S
H1066 C1074 0.930 . S
H1067 C1075 0.930 . S
H1068 C1078 0.930 . S
H1069 C1079 0.930 . S
C1070 H1064 0.930 . S
C1070 C1071 1.355 . S
C1070 C1072 1.415 . S
C1071 C1070 1.355 . S
C1071 C1073 1.419 . S
C1072 C1070 1.415 . S
C1072 C1077 1.425 . S
C1072 C1079 1.409 . S
C1073 H1065 0.930 . S
C1073 C1071 1.419 . S
C1073 C1074 1.362 . S
C1074 H1066 0.930 . S
C1074 C1073 1.362 . S
C1074 C1077 1.409 . S
C1075 H1067 0.930 . S
C1075 C1076 1.355 . S
C1075 C1077 1.415 . S
C1076 C1075 1.355 . S
C1076 C1078 1.419 . S
C1077 C1072 1.425 . S
C1077 C1074 1.409 . S
C1077 C1075 1.415 . S
C1078 H1068 0.930 . S
C1078 C1076 1.419 . S
C1078 C1079 1.362 . S
C1079 H1069 0.930 . S
C1079 C1072 1.409 . S
C1079 C1078 1.362 . S
H1080 C1086 0.930 . S
H1081 C1089 0.930 . S
H1082 C1090 0.930 . S
H1083 C1091 0.930 . S
H1084 C1094 0.930 . S
H1085 C1095 0.930 . S
C1086 H1080 0.930 . S
C1086 C1087 1.355 . S
C1086 C1088 1.415 . S
C1087 C1086 1.355 . S
C1087 C1089 1.419 . S
C1088 C1086 1.415 . S
C1088 C1093 1.425 . S
C1088 C1095 1.409 . S
C1089 H1081 0.930 . S
C1089 C1087 1.419 . S
C1089 C1090 1.362 . S
C1090 H1082 0.930 . S
C1090 C1089 1.362 . S
C1090 C1093 1.409 . S
C1091 H1083 0.930 . S
C1091 C1092 1.355 . S
C1091 C1093 1.415 . S
C1092 C1091 1.355 . S
C1092 C1094 1.419 . S
C1093 C1088 1.425 . S
C1093 C1090 1.409 . S
C1093 C1091 1.415 . S
C1094 H1084 0.930 . S
C1094 C1092 1.419 . S
C1094 C1095 1.362 . S
C1095 H1085 0.930 . S
C1095 C1088 1.409 . S
C1095 C1094 1.362 . S
H1096 C1102 0.930 . S
H1097 C1105 0.930 . S
H1098 C1106 0.930 . S
H1099 C1107 0.930 . S
H1100 C1110 0.930 . S
H1101 C1111 0.930 . S
C1102 H1096 0.930 . S
C1102 C1103 1.355 . S
C1102 C1104 1.415 . S
C1103 C1102 1.355 . S
C1103 C1105 1.419 . S
C1104 C1102 1.415 . S
C1104 C1109 1.425 . S
C1104 C1111 1.409 . S
C1105 H1097 0.930 . S
C1105 C1103 1.419 . S
C1105 C1106 1.362 . S
C1106 H1098 0.930 . S
C1106 C1105 1.362 . S
C1106 C1109 1.409 . S
C1107 H1099 0.930 . S
C1107 C1108 1.355 . S
C1107 C1109 1.415 . S
C1108 C1107 1.355 . S
C1108 C1110 1.419 . S
C1109 C1104 1.425 . S
C1109 C1106 1.409 . S
C1109 C1107 1.415 . S
C1110 H1100 0.930 . S
C1110 C1108 1.419 . S
C1110 C1111 1.362 . S
C1111 H1101 0.930 . S
C1111 C1104 1.409 . S
C1111 C1110 1.362 . S
H1112 C1118 0.930 . S
H1113 C1121 0.930 . S
H1114 C1122 0.930 . S
H1115 C1123 0.930 . S
H1116 C1126 0.930 . S
H1117 C1127 0.930 . S
C1118 H1112 0.930 . S
C1118 C1119 1.355 . S
C1118 C1120 1.415 . S
C1119 C1118 1.355 . S
C1119 C1121 1.419 . S
C1120 C1118 1.415 . S
C1120 C1125 1.425 . S
C1120 C1127 1.409 . S
C1121 H1113 0.930 . S
C1121 C1119 1.419 . S
C1121 C1122 1.362 . S
C1122 H1114 0.930 . S
C1122 C1121 1.362 . S
C1122 C1125 1.409 . S
C1123 H1115 0.930 . S
C1123 C1124 1.355 . S
C1123 C1125 1.415 . S
C1124 C1123 1.355 . S
C1124 C1126 1.419 . S
C1125 C1120 1.425 . S
C1125 C1122 1.409 . S
C1125 C1123 1.415 . S
C1126 H1116 0.930 . S
C1126 C1124 1.419 . S
C1126 C1127 1.362 . S
C1127 H1117 0.930 . S
C1127 C1120 1.409 . S
C1127 C1126 1.362 . S
H1128 C1134 0.930 . S
H1129 C1137 0.930 . S
H1130 C1138 0.930 . S
H1131 C1139 0.930 . S
H1132 C1142 0.930 . S
H1133 C1143 0.930 . S
C1134 H1128 0.930 . S
C1134 C1135 1.355 . S
C1134 C1136 1.415 . S
C1135 C1134 1.355 . S
C1135 C1137 1.419 . S
C1136 C1134 1.415 . S
C1136 C1141 1.425 . S
C1136 C1143 1.409 . S
C1137 H1129 0.930 . S
C1137 C1135 1.419 . S
C1137 C1138 1.362 . S
C1138 H1130 0.930 . S
C1138 C1137 1.362 . S
C1138 C1141 1.409 . S
C1139 H1131 0.930 . S
C1139 C1140 1.355 . S
C1139 C1141 1.415 . S
C1140 C1139 1.355 . S
C1140 C1142 1.419 . S
C1141 C1136 1.425 . S
C1141 C1138 1.409 . S
C1141 C1139 1.415 . S
C1142 H1132 0.930 . S
C1142 C1140 1.419 . S
C1142 C1143 1.362 . S
C1143 H1133 0.930 . S
C1143 C1136 1.409 . S
C1143 C1142 1.362 . S
H1144 C1150 0.930 . S
H1145 C1153 0.930 . S
H1146 C1154 0.930 . S
H1147 C1155 0.930 . S
H1148 C1158 0.930 . S
H1149 C1159 0.930 . S
C1150 H1144 0.930 . S
C1150 C1151 1.355 . S
C1150 C1152 1.415 . S
C1151 C1150 1.355 . S
C1151 C1153 1.419 . S
C1152 C1150 1.415 . S
C1152 C1157 1.425 . S
C1152 C1159 1.409 . S
C1153 H1145 0.930 . S
C1153 C1151 1.419 . S
C1153 C1154 1.362 . S
C1154 H1146 0.930 . S
C1154 C1153 1.362 . S
C1154 C1157 1.409 . S
C1155 H1147 0.930 . S
C1155 C1156 1.355 . S
C1155 C1157 1.415 . S
C1156 C1155 1.355 . S
C1156 C1158 1.419 . S
C1157 C1152 1.425 . S
C1157 C1154 1.409 . S
C1157 C1155 1.415 . S
C1158 H1148 0.930 . S
C1158 C1156 1.419 . S
C1158 C1159 1.362 . S
C1159 H1149 0.930 . S
C1159 C1152 1.409 . S
C1159 C1158 1.362 . S
H1160 C1166 0.930 . S
H1161 C1169 0.930 . S
H1162 C1170 0.930 . S
H1163 C1171 0.930 . S
H1164 C1174 0.930 . S
H1165 C1175 0.930 . S
C1166 H1160 0.930 . S
C1166 C1167 1.355 . S
C1166 C1168 1.415 . S
C1167 C1166 1.355 . S
C1167 C1169 1.419 . S
C1168 C1166 1.415 . S
C1168 C1173 1.425 . S
C1168 C1175 1.409 . S
C1169 H1161 0.930 . S
C1169 C1167 1.419 . S
C1169 C1170 1.362 . S
C1170 H1162 0.930 . S
C1170 C1169 1.362 . S
C1170 C1173 1.409 . S
C1171 H1163 0.930 . S
C1171 C1172 1.355 . S
C1171 C1173 1.415 . S
C1172 C1171 1.355 . S
C1172 C1174 1.419 . S
C1173 C1168 1.425 . S
C1173 C1170 1.409 . S
C1173 C1171 1.415 . S
C1174 H1164 0.930 . S
C1174 C1172 1.419 . S
C1174 C1175 1.362 . S
C1175 H1165 0.930 . S
C1175 C1168 1.409 . S
C1175 C1174 1.362 . S
H1176 C1182 0.930 . S
H1177 C1185 0.930 . S
H1178 C1186 0.930 . S
H1179 C1187 0.930 . S
H1180 C1190 0.930 . S
H1181 C1191 0.930 . S
C1182 H1176 0.930 . S
C1182 C1183 1.355 . S
C1182 C1184 1.415 . S
C1183 C1182 1.355 . S
C1183 C1185 1.419 . S
C1184 C1182 1.415 . S
C1184 C1189 1.425 . S
C1184 C1191 1.409 . S
C1185 H1177 0.930 . S
C1185 C1183 1.419 . S
C1185 C1186 1.362 . S
C1186 H1178 0.930 . S
C1186 C1185 1.362 . S
C1186 C1189 1.409 . S
C1187 H1179 0.930 . S
C1187 C1188 1.355 . S
C1187 C1189 1.415 . S
C1188 C1187 1.355 . S
C1188 C1190 1.419 . S
C1189 C1184 1.425 . S
C1189 C1186 1.409 . S
C1189 C1187 1.415 . S
C1190 H1180 0.930 . S
C1190 C1188 1.419 . S
C1190 C1191 1.362 . S
C1191 H1181 0.930 . S
C1191 C1184 1.409 . S
C1191 C1190 1.362 . S
H1192 C1198 0.930 . S
H1193 C1201 0.930 . S
H1194 C1202 0.930 . S
H1195 C1203 0.930 . S
H1196 C1206 0.930 . S
H1197 C1207 0.930 . S
C1198 H1192 0.930 . S
C1198 C1199 1.355 . S
C1198 C1200 1.415 . S
C1199 C1198 1.355 . S
C1199 C1201 1.419 . S
C1200 C1198 1.415 . S
C1200 C1205 1.425 . S
C1200 C1207 1.409 . S
C1201 H1193 0.930 . S
C1201 C1199 1.419 . S
C1201 C1202 1.362 . S
C1202 H1194 0.930 . S
C1202 C1201 1.362 . S
C1202 C1205 1.409 . S
C1203 H1195 0.930 . S
C1203 C1204 1.355 . S
C1203 C1205 1.415 . S
C1204 C1203 1.355 . S
C1204 C1206 1.419 . S
C1205 C1200 1.425 . S
C1205 C1202 1.409 . S
C1205 C1203 1.415 . S
C1206 H1196 0.930 . S
C1206 C1204 1.419 . S
C1206 C1207 1.362 . S
C1207 H1197 0.930 . S
C1207 C1200 1.409 . S
C1207 C1206 1.362 . S
H1208 C1214 0.930 . S
H1209 C1217 0.930 . S
H1210 C1218 0.930 . S
H1211 C1219 0.930 . S
H1212 C1222 0.930 . S
H1213 C1223 0.930 . S
C1214 H1208 0.930 . S
C1214 C1215 1.355 . S
C1214 C1216 1.415 . S
C1215 C1214 1.355 . S
C1215 C1217 1.419 . S
C1216 C1214 1.415 . S
C1216 C1221 1.425 . S
C1216 C1223 1.409 . S
C1217 H1209 0.930 . S
C1217 C1215 1.419 . S
C1217 C1218 1.362 . S
C1218 H1210 0.930 . S
C1218 C1217 1.362 . S
C1218 C1221 1.409 . S
C1219 H1211 0.930 . S
C1219 C1220 1.355 . S
C1219 C1221 1.415 . S
C1220 C1219 1.355 . S
C1220 C1222 1.419 . S
C1221 C1216 1.425 . S
C1221 C1218 1.409 . S
C1221 C1219 1.415 . S
C1222 H1212 0.930 . S
C1222 C1220 1.419 . S
C1222 C1223 1.362 . S
C1223 H1213 0.930 . S
C1223 C1216 1.409 . S
C1223 C1222 1.362 . S
H1224 C1230 0.930 . S
H1225 C1233 0.930 . S
H1226 C1234 0.930 . S
H1227 C1235 0.930 . S
H1228 C1238 0.930 . S
H1229 C1239 0.930 . S
C1230 H1224 0.930 . S
C1230 C1231 1.355 . S
C1230 C1232 1.415 . S
C1231 C1230 1.355 . S
C1231 C1233 1.419 . S
C1232 C1230 1.415 . S
C1232 C1237 1.425 . S
C1232 C1239 1.409 . S
C1233 H1225 0.930 . S
C1233 C1231 1.419 . S
C1233 C1234 1.362 . S
C1234 H1226 0.930 . S
C1234 C1233 1.362 . S
C1234 C1237 1.409 . S
C1235 H1227 0.930 . S
C1235 C1236 1.355 . S
C1235 C1237 1.415 . S
C1236 C1235 1.355 . S
C1236 C1238 1.419 . S
C1237 C1232 1.425 . S
C1237 C1234 1.409 . S
C1237 C1235 1.415 . S
C1238 H1228 0.930 . S
C1238 C1236 1.419 . S
C1238 C1239 1.362 . S
C1239 H1229 0.930 . S
C1239 C1232 1.409 . S
C1239 C1238 1.362 . S
H1240 C1246 0.930 . S
H1241 C1249 0.930 . S
H1242 C1250 0.930 . S
H1243 C1251 0.930 . S
H1244 C1254 0.930 . S
H1245 C1255 0.930 . S
C1246 H1240 0.930 . S
C1246 C1247 1.355 . S
C1246 C1248 1.415 . S
C1247 C1246 1.355 . S
C1247 C1249 1.419 . S
C1248 C1246 1.415 . S
C1248 C1253 1.425 . S
C1248 C1255 1.409 . S
C1249 H1241 0.930 . S
C1249 C1247 1.419 . S
C1249 C1250 1.362 . S
C1250 H1242 0.930 . S
C1250 C1249 1.362 . S
C1250 C1253 1.409 . S
C1251 H1243 0.930 . S
C1251 C1252 1.355 . S
C1251 C1253 1.415 . S
C1252 C1251 1.355 . S
C1252 C1254 1.419 . S
C1253 C1248 1.425 . S
C1253 C1250 1.409 . S
C1253 C1251 1.415 . S
C1254 H1244 0.930 . S
C1254 C1252 1.419 . S
C1254 C1255 1.362 . S
C1255 H1245 0.930 . S
C1255 C1248 1.409 . S
C1255 C1254 1.362 . S
H1256 C1262 0.930 . S
H1257 C1265 0.930 . S
H1258 C1266 0.930 . S
H1259 C1267 0.930 . S
H1260 C1270 0.930 . S
H1261 C1271 0.930 . S
C1262 H1256 0.930 . S
C1262 C1263 1.355 . S
C1262 C1264 1.415 . S
C1263 C1262 1.355 . S
C1263 C1265 1.419 . S
C1264 C1262 1.415 . S
C1264 C1269 1.425 . S
C1264 C1271 1.409 . S
C1265 H1257 0.930 . S
C1265 C1263 1.419 . S
C1265 C1266 1.362 . S
C1266 H1258 0.930 . S
C1266 C1265 1.362 . S
C1266 C1269 1.409 . S
C1267 H1259 0.930 . S
C1267 C1268 1.355 . S
C1267 C1269 1.415 . S
C1268 C1267 1.355 . S
C1268 C1270 1.419 . S
C1269 C1264 1.425 . S
C1269 C1266 1.409 . S
C1269 C1267 1.415 . S
C1270 H1260 0.930 . S
C1270 C1268 1.419 . S
C1270 C1271 1.362 . S
C1271 H1261 0.930 . S
C1271 C1264 1.409 . S
C1271 C1270 1.362 . S
H1272 C1278 0.930 . S
H1273 C1281 0.930 . S
H1274 C1282 0.930 . S
H1275 C1283 0.930 . S
H1276 C1286 0.930 . S
H1277 C1287 0.930 . S
C1278 H1272 0.930 . S
C1278 C1279 1.355 . S
C1278 C1280 1.415 . S
C1279 C1278 1.355 . S
C1279 C1281 1.419 . S
C1280 C1278 1.415 . S
C1280 C1285 1.425 . S
C1280 C1287 1.409 . S
C1281 H1273 0.930 . S
C1281 C1279 1.419 . S
C1281 C1282 1.362 . S
C1282 H1274 0.930 . S
C1282 C1281 1.362 . S
C1282 C1285 1.409 . S
C1283 H1275 0.930 . S
C1283 C1284 1.355 . S
C1283 C1285 1.415 . S
C1284 C1283 1.355 . S
C1284 C1286 1.419 . S
C1285 C1280 1.425 . S
C1285 C1282 1.409 . S
C1285 C1283 1.415 . S
C1286 H1276 0.930 . S
C1286 C1284 1.419 . S
C1286 C1287 1.362 . S
C1287 H1277 0.930 . S
C1287 C1280 1.409 . S
C1287 C1286 1.362 . S
H1288 C1294 0.930 . S
H1289 C1297 0.930 . S
H1290 C1298 0.930 . S
H1291 C1299 0.930 . S
H1292 C1302 0.930 . S
H1293 C1303 0.930 . S
C1294 H1288 0.930 . S
C1294 C1295 1.355 . S
C1294 C1296 1.415 . S
C1295 C1294 1.355 . S
C1295 C1297 1.419 . S
C1296 C1294 1.415 . S
C1296 C1301 1.425 . S
C1296 C1303 1.409 . S
C1297 H1289 0.930 . S
C1297 C1295 1.419 . S
C1297 C1298 1.362 . S
C1298 H1290 0.930 . S
C1298 C1297 1.362 . S
C1298 C1301 1.409 . S
C1299 H1291 0.930 . S
C1299 C1300 1.355 . S
C1299 C1301 1.415 . S
C1300 C1299 1.355 . S
C1300 C1302 1.419 . S
C1301 C1296 1.425 . S
C1301 C1298 1.409 . S
C1301 C1299 1.415 . S
C1302 H1292 0.930 . S
C1302 C1300 1.419 . S
C1302 C1303 1.362 . S
C1303 H1293 0.930 . S
C1303 C1296 1.409 . S
C1303 C1302 1.362 . S
H1304 C1310 0.930 . S
H1305 C1313 0.930 . S
H1306 C1314 0.930 . S
H1307 C1315 0.930 . S
H1308 C1318 0.930 . S
H1309 C1319 0.930 . S
C1310 H1304 0.930 . S
C1310 C1311 1.355 . S
C1310 C1312 1.415 . S
C1311 C1310 1.355 . S
C1311 C1313 1.419 . S
C1312 C1310 1.415 . S
C1312 C1317 1.425 . S
C1312 C1319 1.409 . S
C1313 H1305 0.930 . S
C1313 C1311 1.419 . S
C1313 C1314 1.362 . S
C1314 H1306 0.930 . S
C1314 C1313 1.362 . S
C1314 C1317 1.409 . S
C1315 H1307 0.930 . S
C1315 C1316 1.355 . S
C1315 C1317 1.415 . S
C1316 C1315 1.355 . S
C1316 C1318 1.419 . S
C1317 C1312 1.425 . S
C1317 C1314 1.409 . S
C1317 C1315 1.415 . S
C1318 H1308 0.930 . S
C1318 C1316 1.419 . S
C1318 C1319 1.362 . S
C1319 H1309 0.930 . S
C1319 C1312 1.409 . S
C1319 C1318 1.362 . S
H1320 C1326 0.930 . S
H1321 C1329 0.930 . S
H1322 C1330 0.930 . S
H1323 C1331 0.930 . S
H1324 C1334 0.930 . S
H1325 C1335 0.930 . S
C1326 H1320 0.930 . S
C1326 C1327 1.355 . S
C1326 C1328 1.415 . S
C1327 C1326 1.355 . S
C1327 C1329 1.419 . S
C1328 C1326 1.415 . S
C1328 C1333 1.425 . S
C1328 C1335 1.409 . S
C1329 H1321 0.930 . S
C1329 C1327 1.419 . S
C1329 C1330 1.362 . S
C1330 H1322 0.930 . S
C1330 C1329 1.362 . S
C1330 C1333 1.409 . S
C1331 H1323 0.930 . S
C1331 C1332 1.355 . S
C1331 C1333 1.415 . S
C1332 C1331 1.355 . S
C1332 C1334 1.419 . S
C1333 C1328 1.425 . S
C1333 C1330 1.409 . S
C1333 C1331 1.415 . S
C1334 H1324 0.930 . S
C1334 C1332 1.419 . S
C1334 C1335 1.362 . S
C1335 H1325 0.930 . S
C1335 C1328 1.409 . S
C1335 C1334 1.362 . S
H1336 C1342 0.930 . S
H1337 C1345 0.930 . S
H1338 C1346 0.930 . S
H1339 C1347 0.930 . S
H1340 C1350 0.930 . S
H1341 C1351 0.930 . S
C1342 H1336 0.930 . S
C1342 C1343 1.355 . S
C1342 C1344 1.415 . S
C1343 C1342 1.355 . S
C1343 C1345 1.419 . S
C1344 C1342 1.415 . S
C1344 C1349 1.425 . S
C1344 C1351 1.409 . S
C1345 H1337 0.930 . S
C1345 C1343 1.419 . S
C1345 C1346 1.362 . S
C1346 H1338 0.930 . S
C1346 C1345 1.362 . S
C1346 C1349 1.409 . S
C1347 H1339 0.930 . S
C1347 C1348 1.355 . S
C1347 C1349 1.415 . S
C1348 C1347 1.355 . S
C1348 C1350 1.419 . S
C1349 C1344 1.425 . S
C1349 C1346 1.409 . S
C1349 C1347 1.415 . S
C1350 H1340 0.930 . S
C1350 C1348 1.419 . S
C1350 C1351 1.362 . S
C1351 H1341 0.930 . S
C1351 C1344 1.409 . S
C1351 C1350 1.362 . S
H1352 C1358 0.930 . S
H1353 C1361 0.930 . S
H1354 C1362 0.930 . S
H1355 C1363 0.930 . S
H1356 C1366 0.930 . S
H1357 C1367 0.930 . S
C1358 H1352 0.930 . S
C1358 C1359 1.355 . S
C1358 C1360 1.415 . S
C1359 C1358 1.355 . S
C1359 C1361 1.419 . S
C1360 C1358 1.415 . S
C1360 C1365 1.425 . S
C1360 C1367 1.409 . S
C1361 H1353 0.930 . S
C1361 C1359 1.419 . S
C1361 C1362 1.362 . S
C1362 H1354 0.930 . S
C1362 C1361 1.362 . S
C1362 C1365 1.409 . S
C1363 H1355 0.930 . S
C1363 C1364 1.355 . S
C1363 C1365 1.415 . S
C1364 C1363 1.355 . S
C1364 C1366 1.419 . S
C1365 C1360 1.425 . S
C1365 C1362 1.409 . S
C1365 C1363 1.415 . S
C1366 H1356 0.930 . S
C1366 C1364 1.419 . S
C1366 C1367 1.362 . S
C1367 H1357 0.930 . S
C1367 C1360 1.409 . S
C1367 C1366 1.362 . S
H1368 C1374 0.930 . S
H1369 C1377 0.930 . S
H1370 C1378 0.930 . S
H1371 C1379 0.930 . S
H1372 C1382 0.930 . S
H1373 C1383 0.930 . S
C1374 H1368 0.930 . S
C1374 C1375 1.355 . S
C1374 C1376 1.415 . S
C1375 C1374 1.355 . S
C1375 C1377 1.419 . S
C1376 C1374 1.415 . S
C1376 C1381 1.425 . S
C1376 C1383 1.409 . S
C1377 H1369 0.930 . S
C1377 C1375 1.419 . S
C1377 C1378 1.362 . S
C1378 H1370 0.930 . S
C1378 C1377 1.362 . S
C1378 C1381 1.409 . S
C1379 H1371 0.930 . S
C1379 C1380 1.355 . S
C1379 C1381 1.415 . S
C1380 C1379 1.355 . S
C1380 C1382 1.419 . S
C1381 C1376 1.425 . S
C1381 C1378 1.409 . S
C1381 C1379 1.415 . S
C1382 H1372 0.930 . S
C1382 C1380 1.419 . S
C1382 C1383 1.362 . S
C1383 H1373 0.930 . S
C1383 C1376 1.409 . S
C1383 C1382 1.362 . S
H1384 C1390 0.930 . S
H1385 C1393 0.930 . S
H1386 C1394 0.930 . S
H1387 C1395 0.930 . S
H1388 C1398 0.930 . S
H1389 C1399 0.930 . S
C1390 H1384 0.930 . S
C1390 C1391 1.355 . S
C1390 C1392 1.415 . S
C1391 C1390 1.355 . S
C1391 C1393 1.419 . S
C1392 C1390 1.415 . S
C1392 C1397 1.425 . S
C1392 C1399 1.409 . S
C1393 H1385 0.930 . S
C1393 C1391 1.419 . S
C1393 C1394 1.362 . S
C1394 H1386 0.930 . S
C1394 C1393 1.362 . S
C1394 C1397 1.409 . S
C1395 H1387 0.930 . S
C1395 C1396 1.355 . S
C1395 C1397 1.415 . S
C1396 C1395 1.355 . S
C1396 C1398 1.419 . S
C1397 C1392 1.425 . S
C1397 C1394 1.409 . S
C1397 C1395 1.415 . S
C1398 H1388 0.930 . S
C1398 C1396 1.419 . S
C1398 C1399 1.362 . S
C1399 H1389 0.930 . S
C1399 C1392 1.409 . S
C1399 C1398 1.362 . S
H1400 C1406 0.930 . S
H1401 C1409 0.930 . S
H1402 C1410 0.930 . S
H1403 C1411 0.930 . S
H1404 C1414 0.930 . S
H1405 C1415 0.930 . S
C1406 H1400 0.930 . S
C1406 C1407 1.355 . S
C1406 C1408 1.415 . S
C1407 C1406 1.355 . S
C1407 C1409 1.419 . S
C1408 C1406 1.415 . S
C1408 C1413 1.425 . S
C1408 C1415 1.409 . S
C1409 H1401 0.930 . S
C1409 C1407 1.419 . S
C1409 C1410 1.362 . S
C1410 H1402 0.930 . S
C1410 C1409 1.362 . S
C1410 C1413 1.409 . S
C1411 H1403 0.930 . S
C1411 C1412 1.355 . S
C1411 C1413 1.415 . S
C1412 C1411 1.355 . S
C1412 C1414 1.419 . S
C1413 C1408 1.425 . S
C1413 C1410 1.409 . S
C1413 C1411 1.415 . S
C1414 H1404 0.930 . S
C1414 C1412 1.419 . S
C1414 C1415 1.362 . S
C1415 H1405 0.930 . S
C1415 C1408 1.409 . S
C1415 C1414 1.362 . S
H1416 C1422 0.930 . S
H1417 C1425 0.930 . S
H1418 C1426 0.930 . S
H1419 C1427 0.930 . S
H1420 C1430 0.930 . S
H1421 C1431 0.930 . S
C1422 H1416 0.930 . S
C1422 C1423 1.355 . S
C1422 C1424 1.415 . S
C1423 C1422 1.355 . S
C1423 C1425 1.419 . S
C1424 C1422 1.415 . S
C1424 C1429 1.425 . S
C1424 C1431 1.409 . S
C1425 H1417 0.930 . S
C1425 C1423 1.419 . S
C1425 C1426 1.362 . S
C1426 H1418 0.930 . S
C1426 C1425 1.362 . S
C1426 C1429 1.409 . S
C1427 H1419 0.930 . S
C1427 C1428 1.355 . S
C1427 C1429 1.415 . S
C1428 C1427 1.355 . S
C1428 C1430 1.419 . S
C1429 C1424 1.425 . S
C1429 C1426 1.409 . S
C1429 C1427 1.415 . S
C1430 H1420 0.930 . S
C1430 C1428 1.419 . S
C1430 C1431 1.362 . S
C1431 H1421 0.930 . S
C1431 C1424 1.409 . S
C1431 C1430 1.362 . S
H1432 C1438 0.930 . S
H1433 C1441 0.930 . S
H1434 C1442 0.930 . S
H1435 C1443 0.930 . S
H1436 C1446 0.930 . S
H1437 C1447 0.930 . S
C1438 H1432 0.930 . S
C1438 C1439 1.355 . S
C1438 C1440 1.415 . S
C1439 C1438 1.355 . S
C1439 C1441 1.419 . S
C1440 C1438 1.415 . S
C1440 C1445 1.425 . S
C1440 C1447 1.409 . S
C1441 H1433 0.930 . S
C1441 C1439 1.419 . S
C1441 C1442 1.362 . S
C1442 H1434 0.930 . S
C1442 C1441 1.362 . S
C1442 C1445 1.409 . S
C1443 H1435 0.930 . S
C1443 C1444 1.355 . S
C1443 C1445 1.415 . S
C1444 C1443 1.355 . S
C1444 C1446 1.419 . S
C1445 C1440 1.425 . S
C1445 C1442 1.409 . S
C1445 C1443 1.415 . S
C1446 H1436 0.930 . S
C1446 C1444 1.419 . S
C1446 C1447 1.362 . S
C1447 H1437 0.930 . S
C1447 C1440 1.409 . S
C1447 C1446 1.362 . S
H1448 C1454 0.930 . S
H1449 C1457 0.930 . S
H1450 C1458 0.930 . S
H1451 C1459 0.930 . S
H1452 C1462 0.930 . S
H1453 C1463 0.930 . S
C1454 H1448 0.930 . S
C1454 C1455 1.355 . S
C1454 C1456 1.415 . S
C1455 C1454 1.355 . S
C1455 C1457 1.419 . S
C1456 C1454 1.415 . S
C1456 C1461 1.425 . S
C1456 C1463 1.409 . S
C1457 H1449 0.930 . S
C1457 C1455 1.419 . S
C1457 C1458 1.362 . S
C1458 H1450 0.930 . S
C1458 C1457 1.362 . S
C1458 C1461 1.409 . S
C1459 H1451 0.930 . S
C1459 C1460 1.355 . S
C1459 C1461 1.415 . S
C1460 C1459 1.355 . S
C1460 C1462 1.419 . S
C1461 C1456 1.425 . S
C1461 C1458 1.409 . S
C1461 C1459 1.415 . S
C1462 H1452 0.930 . S
C1462 C1460 1.419 . S
C1462 C1463 1.362 . S
C1463 H1453 0.930 . S
C1463 C1456 1.409 . S
C1463 C1462 1.362 . S
H1464 C1470 0.930 . S
H1465 C1473 0.930 . S
H1466 C1474 0.930 . S
H1467 C1475 0.930 . S
H1468 C1478 0.930 . S
H1469 C1479 0.930 . S
C1470 H1464 0.930 . S
C1470 C1471 1.355 . S
C1470 C1472 1.415 . S
C1471 C1470 1.355 . S
C1471 C1473 1.419 . S
C1472 C1470 1.415 . S
C1472 C1477 1.425 . S
C1472 C1479 1.409 . S
C1473 H1465 0.930 . S
C1473 C1471 1.419 . S
C1473 C1474 1.362 . S
C1474 H1466 0.930 . S
C1474 C1473 1.362 . S
C1474 C1477 1.409 . S
C1475 H1467 0.930 . S
C1475 C1476 1.355 . S
C1475 C1477 1.415 . S
C1476 C1475 1.355 . S
C1476 C1478 1.419 . S
C1477 C1472 1.425 . S
C1477 C1474 1.409 . S
C1477 C1475 1.415 . S
C1478 H1468 0.930 . S
C1478 C1476 1.419 . S
C1478 C1479 1.362 . S
C1479 H1469 0.930 . S
C1479 C1472 1.409 . S
C1479 C1478 1.362 . S
H1480 C1486 0.930 . S
H1481 C1489 0.930 . S
H1482 C1490 0.930 . S
H1483 C1491 0.930 . S
H1484 C1494 0.930 . S
H1485 C1495 0.930 . S
C1486 H1480 0.930 . S
C1486 C1487 1.355 . S
C1486 C1488 1.415 . S
C1487 C1486 1.355 . S
C1487 C1489 1.419 . S
C1488 C1486 1.415 . S
C1488 C1493 1.425 . S
C1488 C1495 1.409 . S
C1489 H1481 0.930 . S
C1489 C1487 1.419 . S
C1489 C1490 1.362 . S
C1490 H1482 0.930 . S
C1490 C1489 1.362 . S
C1490 C1493 1.409 . S
C1491 H1483 0.930 . S
C1491 C1492 1.355 . S
C1491 C1493 1.415 . S
C1492 C1491 1.355 . S
C1492 C1494 1.419 . S
C1493 C1488 1.425 . S
C1493 C1490 1.409 . S
C1493 C1491 1.415 . S
C1494 H1484 0.930 . S
C1494 C1492 1.419 . S
C1494 C1495 1.362 . S
C1495 H1485 0.930 . S
C1495 C1488 1.409 . S
C1495 C1494 1.362 . S
H1496 C1502 0.930 . S
H1497 C1505 0.930 . S
H1498 C1506 0.930 . S
H1499 C1507 0.930 . S
H1500 C1510 0.930 . S
H1501 C1511 0.930 . S
C1502 H1496 0.930 . S
C1502 C1503 1.355 . S
C1502 C1504 1.415 . S
C1503 C1502 1.355 . S
C1503 C1505 1.419 . S
C1504 C1502 1.415 . S
C1504 C1509 1.425 . S
C1504 C1511 1.409 . S
C1505 H1497 0.930 . S
C1505 C1503 1.419 . S
C1505 C1506 1.362 . S
C1506 H1498 0.930 . S
C1506 C1505 1.362 . S
C1506 C1509 1.409 . S
C1507 H1499 0.930 . S
C1507 C1508 1.355 . S
C1507 C1509 1.415 . S
C1508 C1507 1.355 . S
C1508 C1510 1.419 . S
C1509 C1504 1.425 . S
C1509 C1506 1.409 . S
C1509 C1507 1.415 . S
C1510 H1500 0.930 . S
C1510 C1508 1.419 . S
C1510 C1511 1.362 . S
C1511 H1501 0.930 . S
C1511 C1504 1.409 . S
C1511 C1510 1.362 . S
H1512 C1518 0.930 . S
H1513 C1521 0.930 . S
H1514 C1522 0.930 . S
H1515 C1523 0.930 . S
H1516 C1526 0.930 . S
H1517 C1527 0.930 . S
C1518 H1512 0.930 . S
C1518 C1519 1.355 . S
C1518 C1520 1.415 . S
C1519 C1518 1.355 . S
C1519 C1521 1.419 . S
C1520 C1518 1.415 . S
C1520 C1525 1.425 . S
C1520 C1527 1.409 . S
C1521 H1513 0.930 . S
C1521 C1519 1.419 . S
C1521 C1522 1.362 . S
C1522 H1514 0.930 . S
C1522 C1521 1.362 . S
C1522 C1525 1.409 . S
C1523 H1515 0.930 . S
C1523 C1524 1.355 . S
C1523 C1525 1.415 . S
C1524 C1523 1.355 . S
C1524 C1526 1.419 . S
C1525 C1520 1.425 . S
C1525 C1522 1.409 . S
C1525 C1523 1.415 . S
C1526 H1516 0.930 . S
C1526 C1524 1.419 . S
C1526 C1527 1.362 . S
C1527 H1517 0.930 . S
C1527 C1520 1.409 . S
C1527 C1526 1.362 . S
H1528 C1534 0.930 . S
H1529 C1537 0.930 . S
H1530 C1538 0.930 . S
H1531 C1539 0.930 . S
H1532 C1542 0.930 . S
H1533 C1543 0.930 . S
C1534 H1528 0.930 . S
C1534 C1535 1.355 . S
C1534 C1536 1.415 . S
C1535 C1534 1.355 . S
C1535 C1537 1.419 . S
C1536 C1534 1.415 . S
C1536 C1541 1.425 . S
C1536 C1543 1.409 . S
C1537 H1529 0.930 . S
C1537 C1535 1.419 . S
C1537 C1538 1.362 . S
C1538 H1530 0.930 . S
C1538 C1537 1.362 . S
C1538 C1541 1.409 . S
C1539 H1531 0.930 . S
C1539 C1540 1.355 . S
C1539 C1541 1.415 . S
C1540 C1539 1.355 . S
C1540 C1542 1.419 . S
C1541 C1536 1.425 . S
C1541 C1538 1.409 . S
C1541 C1539 1.415 . S
C1542 H1532 0.930 . S
C1542 C1540 1.419 . S
C1542 C1543 1.362 . S
C1543 H1533 0.930 . S
C1543 C1536 1.409 . S
C1543 C1542 1.362 . S
H1544 C1550 0.930 . S
H1545 C1553 0.930 . S
H1546 C1554 0.930 . S
H1547 C1555 0.930 . S
H1548 C1558 0.930 . S
H1549 C1559 0.930 . S
C1550 H1544 0.930 . S
C1550 C1551 1.355 . S
C1550 C1552 1.415 . S
C1551 C1550 1.355 . S
C1551 C1553 1.419 . S
C1552 C1550 1.415 . S
C1552 C1557 1.425 . S
C1552 C1559 1.409 . S
C1553 H1545 0.930 . S
C1553 C1551 1.419 . S
C1553 C1554 1.362 . S
C1554 H1546 0.930 . S
C1554 C1553 1.362 . S
C1554 C1557 1.409 . S
C1555 H1547 0.930 . S
C1555 C1556 1.355 . S
C1555 C1557 1.415 . S
C1556 C1555 1.355 . S
C1556 C1558 1.419 . S
C1557 C1552 1.425 . S
C1557 C1554 1.409 . S
C1557 C1555 1.415 . S
C1558 H1548 0.930 . S
C1558 C1556 1.419 . S
C1558 C1559 1.362 . S
C1559 H1549 0.930 . S
C1559 C1552 1.409 . S
C1559 C1558 1.362 . S
H1560 C1566 0.930 . S
H1561 C1569 0.930 . S
H1562 C1570 0.930 . S
H1563 C1571 0.930 . S
H1564 C1574 0.930 . S
H1565 C1575 0.930 . S
C1566 H1560 0.930 . S
C1566 C1567 1.355 . S
C1566 C1568 1.415 1_655 S
C1567 C1566 1.355 . S
C1567 C1569 1.419 . S
C1568 C1566 1.415 1_455 S
C1568 C1573 1.425 1_455 S
C1568 C1575 1.409 . S
C1569 H1561 0.930 . S
C1569 C1567 1.419 . S
C1569 C1570 1.362 . S
C1570 H1562 0.930 . S
C1570 C1569 1.362 . S
C1570 C1573 1.409 . S
C1571 H1563 0.930 . S
C1571 C1572 1.355 . S
C1571 C1573 1.415 1_455 S
C1572 C1571 1.355 . S
C1572 C1574 1.419 . S
C1573 C1568 1.425 1_655 S
C1573 C1570 1.409 . S
C1573 C1571 1.415 1_655 S
C1574 H1564 0.930 . S
C1574 C1572 1.419 . S
C1574 C1575 1.362 . S
C1575 H1565 0.930 . S
C1575 C1568 1.409 . S
C1575 C1574 1.362 . S
H1576 C1582 0.930 . S
H1577 C1585 0.930 . S
H1578 C1586 0.930 . S
H1579 C1587 0.930 . S
H1580 C1590 0.930 . S
H1581 C1591 0.930 . S
C1582 H1576 0.930 . S
C1582 C1583 1.355 . S
C1582 C1584 1.415 . S
C1583 C1582 1.355 . S
C1583 C1585 1.419 . S
C1584 C1582 1.415 . S
C1584 C1589 1.425 . S
C1584 C1591 1.409 . S
C1585 H1577 0.930 . S
C1585 C1583 1.419 . S
C1585 C1586 1.362 . S
C1586 H1578 0.930 . S
C1586 C1585 1.362 . S
C1586 C1589 1.409 . S
C1587 H1579 0.930 . S
C1587 C1588 1.355 . S
C1587 C1589 1.415 . S
C1588 C1587 1.355 . S
C1588 C1590 1.419 . S
C1589 C1584 1.425 . S
C1589 C1586 1.409 . S
C1589 C1587 1.415 . S
C1590 H1580 0.930 . S
C1590 C1588 1.419 . S
C1590 C1591 1.362 . S
C1591 H1581 0.930 . S
C1591 C1584 1.409 . S
C1591 C1590 1.362 . S
H1592 C1598 0.930 . S
H1593 C1601 0.930 . S
H1594 C1602 0.930 . S
H1595 C1603 0.930 . S
H1596 C1606 0.930 . S
H1597 C1607 0.930 . S
C1598 H1592 0.930 . S
C1598 C1599 1.355 . S
C1598 C1600 1.415 . S
C1599 C1598 1.355 . S
C1599 C1601 1.419 . S
C1600 C1598 1.415 . S
C1600 C1605 1.425 1_545 S
C1600 C1607 1.409 . S
C1601 H1593 0.930 . S
C1601 C1599 1.419 . S
C1601 C1602 1.362 1_545 S
C1602 H1594 0.930 . S
C1602 C1601 1.362 1_565 S
C1602 C1605 1.409 . S
C1603 H1595 0.930 . S
C1603 C1604 1.355 . S
C1603 C1605 1.415 . S
C1604 C1603 1.355 . S
C1604 C1606 1.419 . S
C1605 C1600 1.425 1_565 S
C1605 C1602 1.409 . S
C1605 C1603 1.415 . S
C1606 H1596 0.930 . S
C1606 C1604 1.419 . S
C1606 C1607 1.362 1_565 S
C1607 H1597 0.930 . S
C1607 C1600 1.409 . S
C1607 C1606 1.362 1_545 S
H1608 C1614 0.930 . S
H1609 C1617 0.935 . S
H1610 C1618 0.930 . S
H1611 C1619 0.930 . S
H1612 C1622 0.935 . S
H1613 C1623 0.930 . S
C1614 H1608 0.930 . S
C1614 C1615 1.355 . S
C1614 C1616 1.415 1_565 S
C1615 C1614 1.355 . S
C1615 C1617 1.403 1_554 S
C1616 C1614 1.415 1_545 S
C1616 C1621 1.425 1_544 S
C1616 C1623 1.409 . S
C1617 H1609 0.935 . S
C1617 C1615 1.403 1_556 S
C1617 C1618 1.374 . S
C1618 H1610 0.930 . S
C1618 C1617 1.374 . S
C1618 C1621 1.409 . S
C1619 H1611 0.930 . S
C1619 C1620 1.355 . S
C1619 C1621 1.415 1_545 S
C1620 C1619 1.355 . S
C1620 C1622 1.403 1_556 S
C1621 C1616 1.425 1_566 S
C1621 C1618 1.409 . S
C1621 C1619 1.415 1_565 S
C1622 H1612 0.935 . S
C1622 C1620 1.403 1_554 S
C1622 C1623 1.374 . S
C1623 H1613 0.930 . S
C1623 C1616 1.409 . S
C1623 C1622 1.374 . S
H1624 C1630 0.930 . S
H1625 C1633 0.930 . S
H1626 C1634 0.930 . S
H1627 C1635 0.930 . S
H1628 C1638 0.930 . S
H1629 C1639 0.930 . S
C1630 H1624 0.930 . S
C1630 C1631 1.355 . S
C1630 C1632 1.426 . S
C1631 C1630 1.355 . S
C1631 C1633 1.419 1_556 S
C1632 C1630 1.426 . S
C1632 C1637 1.421 1_656 S
C1632 C1639 1.400 1_655 S
C1633 H1625 0.930 . S
C1633 C1631 1.419 1_554 S
C1633 C1634 1.362 . S
C1634 H1626 0.930 . S
C1634 C1633 1.362 . S
C1634 C1637 1.400 1_655 S
C1635 H1627 0.930 . S
C1635 C1636 1.355 . S
C1635 C1637 1.426 . S
C1636 C1635 1.355 . S
C1636 C1638 1.419 1_554 S
C1637 C1632 1.421 1_454 S
C1637 C1634 1.400 1_455 S
C1637 C1635 1.426 . S
C1638 H1628 0.930 . S
C1638 C1636 1.419 1_556 S
C1638 C1639 1.362 . S
C1639 H1629 0.930 . S
C1639 C1632 1.400 1_455 S
C1639 C1638 1.362 . S
H1640 C1646 0.930 . S
H1641 C1649 0.930 . S
H1642 C1650 0.930 . S
H1643 C1651 0.930 . S
H1644 C1654 0.930 . S
H1645 C1655 0.930 . S
C1646 H1640 0.930 . S
C1646 C1647 1.355 . S
C1646 C1648 1.415 . S
C1647 C1646 1.355 . S
C1647 C1649 1.419 . S
C1648 C1646 1.415 . S
C1648 C1653 1.425 1_554 S
C1648 C1655 1.409 . S
C1649 H1641 0.930 . S
C1649 C1647 1.419 . S
C1649 C1650 1.362 1_554 S
C1650 H1642 0.930 . S
C1650 C1649 1.362 1_556 S
C1650 C1653 1.409 . S
C1651 H1643 0.930 . S
C1651 C1652 1.355 . S
C1651 C1653 1.415 . S
C1652 C1651 1.355 . S
C1652 C1654 1.419 . S
C1653 C1648 1.425 1_556 S
C1653 C1650 1.409 . S
C1653 C1651 1.415 . S
C1654 H1644 0.930 . S
C1654 C1652 1.419 . S
C1654 C1655 1.362 1_556 S
C1655 H1645 0.930 . S
C1655 C1648 1.409 . S
C1655 C1654 1.362 1_554 S
H1656 C1662 0.930 . S
H1657 C1665 0.930 1_554 S
H1658 C1666 0.930 . S
H1659 C1667 0.930 . S
H1660 C1670 0.930 . S
H1661 C1671 0.930 . S
C1662 H1656 0.930 . S
C1662 C1663 1.355 . S
C1662 C1664 1.415 . S
C1663 C1662 1.355 . S
C1663 C1665 1.419 . S
C1664 C1662 1.415 . S
C1664 C1669 1.425 . S
C1664 C1671 1.409 . S
C1665 H1657 0.930 1_556 S
C1665 C1663 1.419 . S
C1665 C1666 1.362 . S
C1666 H1658 0.930 . S
C1666 C1665 1.362 . S
C1666 C1669 1.409 . S
C1667 H1659 0.930 . S
C1667 C1668 1.355 . S
C1667 C1669 1.415 . S
C1668 C1667 1.355 . S
C1668 C1670 1.419 . S
C1669 C1664 1.425 . S
C1669 C1666 1.409 . S
C1669 C1667 1.415 . S
C1670 H1660 0.930 . S
C1670 C1668 1.419 . S
C1670 C1671 1.362 . S
C1671 H1661 0.930 . S
C1671 C1664 1.409 . S
C1671 C1670 1.362 . S
H1672 C1678 0.930 . S
H1673 C1681 0.930 . S
H1674 C1682 0.930 . S
H1675 C1683 0.930 . S
H1676 C1686 0.930 . S
H1677 C1687 0.930 . S
C1678 H1672 0.930 . S
C1678 C1679 1.355 . S
C1678 C1680 1.415 . S
C1679 C1678 1.355 . S
C1679 C1681 1.419 . S
C1680 C1678 1.415 . S
C1680 C1685 1.425 . S
C1680 C1687 1.409 . S
C1681 H1673 0.930 . S
C1681 C1679 1.419 . S
C1681 C1682 1.362 . S
C1682 H1674 0.930 . S
C1682 C1681 1.362 . S
C1682 C1685 1.409 . S
C1683 H1675 0.930 . S
C1683 C1684 1.355 . S
C1683 C1685 1.415 . S
C1684 C1683 1.355 . S
C1684 C1686 1.419 . S
C1685 C1680 1.425 . S
C1685 C1682 1.409 . S
C1685 C1683 1.415 . S
C1686 H1676 0.930 . S
C1686 C1684 1.419 . S
C1686 C1687 1.362 . S
C1687 H1677 0.930 . S
C1687 C1680 1.409 . S
C1687 C1686 1.362 . S
H1688 C1694 0.930 . S
H1689 C1697 0.930 . S
H1690 C1698 0.930 . S
H1691 C1699 0.930 . S
H1692 C1702 0.930 . S
H1693 C1703 0.930 . S
C1694 H1688 0.930 . S
C1694 C1695 1.355 . S
C1694 C1696 1.415 . S
C1695 C1694 1.355 . S
C1695 C1697 1.419 . S
C1696 C1694 1.415 . S
C1696 C1701 1.425 . S
C1696 C1703 1.409 . S
C1697 H1689 0.930 . S
C1697 C1695 1.419 . S
C1697 C1698 1.362 . S
C1698 H1690 0.930 . S
C1698 C1697 1.362 . S
C1698 C1701 1.409 . S
C1699 H1691 0.930 . S
C1699 C1700 1.355 . S
C1699 C1701 1.415 . S
C1700 C1699 1.355 . S
C1700 C1702 1.419 . S
C1701 C1696 1.425 . S
C1701 C1698 1.409 . S
C1701 C1699 1.415 . S
C1702 H1692 0.930 . S
C1702 C1700 1.419 . S
C1702 C1703 1.362 . S
C1703 H1693 0.930 . S
C1703 C1696 1.409 . S
C1703 C1702 1.362 . S
H1704 C1710 0.930 . S
H1705 C1713 0.930 . S
H1706 C1714 0.930 . S
H1707 C1715 0.930 . S
H1708 C1718 0.930 . S
H1709 C1719 0.930 . S
C1710 H1704 0.930 . S
C1710 C1711 1.355 . S
C1710 C1712 1.415 . S
C1711 C1710 1.355 . S
C1711 C1713 1.419 . S
C1712 C1710 1.415 . S
C1712 C1717 1.425 . S
C1712 C1719 1.409 . S
C1713 H1705 0.930 . S
C1713 C1711 1.419 . S
C1713 C1714 1.362 . S
C1714 H1706 0.930 . S
C1714 C1713 1.362 . S
C1714 C1717 1.409 . S
C1715 H1707 0.930 . S
C1715 C1716 1.355 . S
C1715 C1717 1.415 . S
C1716 C1715 1.355 . S
C1716 C1718 1.419 . S
C1717 C1712 1.425 . S
C1717 C1714 1.409 . S
C1717 C1715 1.415 . S
C1718 H1708 0.930 . S
C1718 C1716 1.419 . S
C1718 C1719 1.362 . S
C1719 H1709 0.930 . S
C1719 C1712 1.409 . S
C1719 C1718 1.362 . S
H1720 C1726 0.930 . S
H1721 C1729 0.930 . S
H1722 C1730 0.930 . S
H1723 C1731 0.930 . S
H1724 C1734 0.930 . S
H1725 C1735 0.930 . S
C1726 H1720 0.930 . S
C1726 C1727 1.355 . S
C1726 C1728 1.415 . S
C1727 C1726 1.355 . S
C1727 C1729 1.419 . S
C1728 C1726 1.415 . S
C1728 C1733 1.425 . S
C1728 C1735 1.409 . S
C1729 H1721 0.930 . S
C1729 C1727 1.419 . S
C1729 C1730 1.362 . S
C1730 H1722 0.930 . S
C1730 C1729 1.362 . S
C1730 C1733 1.409 . S
C1731 H1723 0.930 . S
C1731 C1732 1.355 . S
C1731 C1733 1.415 . S
C1732 C1731 1.355 . S
C1732 C1734 1.419 . S
C1733 C1728 1.425 . S
C1733 C1730 1.409 . S
C1733 C1731 1.415 . S
C1734 H1724 0.930 . S
C1734 C1732 1.419 . S
C1734 C1735 1.362 . S
C1735 H1725 0.930 . S
C1735 C1728 1.409 . S
C1735 C1734 1.362 . S
H1736 C1742 0.930 . S
H1737 C1745 0.930 . S
H1738 C1746 0.930 . S
H1739 C1747 0.930 . S
H1740 C1750 0.930 . S
H1741 C1751 0.930 . S
C1742 H1736 0.930 . S
C1742 C1743 1.355 . S
C1742 C1744 1.415 . S
C1743 C1742 1.355 . S
C1743 C1745 1.419 . S
C1744 C1742 1.415 . S
C1744 C1749 1.425 . S
C1744 C1751 1.409 . S
C1745 H1737 0.930 . S
C1745 C1743 1.419 . S
C1745 C1746 1.362 . S
C1746 H1738 0.930 . S
C1746 C1745 1.362 . S
C1746 C1749 1.409 . S
C1747 H1739 0.930 . S
C1747 C1748 1.355 . S
C1747 C1749 1.415 . S
C1748 C1747 1.355 . S
C1748 C1750 1.419 . S
C1749 C1744 1.425 . S
C1749 C1746 1.409 . S
C1749 C1747 1.415 . S
C1750 H1740 0.930 . S
C1750 C1748 1.419 . S
C1750 C1751 1.362 . S
C1751 H1741 0.930 . S
C1751 C1744 1.409 . S
C1751 C1750 1.362 . S
H1752 C1758 0.930 . S
H1753 C1761 0.930 . S
H1754 C1762 0.930 . S
H1755 C1763 0.930 . S
H1756 C1766 0.930 1_556 S
H1757 C1767 0.930 . S
C1758 H1752 0.930 . S
C1758 C1759 1.355 . S
C1758 C1760 1.415 . S
C1759 C1758 1.355 . S
C1759 C1761 1.419 . S
C1760 C1758 1.415 . S
C1760 C1765 1.425 . S
C1760 C1767 1.409 . S
C1761 H1753 0.930 . S
C1761 C1759 1.419 . S
C1761 C1762 1.362 . S
C1762 H1754 0.930 . S
C1762 C1761 1.362 . S
C1762 C1765 1.409 . S
C1763 H1755 0.930 . S
C1763 C1764 1.355 . S
C1763 C1765 1.415 . S
C1764 C1763 1.355 . S
C1764 C1766 1.419 . S
C1765 C1760 1.425 . S
C1765 C1762 1.409 . S
C1765 C1763 1.415 . S
C1766 H1756 0.930 1_554 S
C1766 C1764 1.419 . S
C1766 C1767 1.362 . S
C1767 H1757 0.930 . S
C1767 C1760 1.409 . S
C1767 C1766 1.362 . S
H1768 C1774 0.930 . S
H1769 C1777 0.930 . S
H1770 C1778 0.930 . S
H1771 C1779 0.930 . S
H1772 C1782 0.930 . S
H1773 C1783 0.930 . S
C1774 H1768 0.930 . S
C1774 C1775 1.355 . S
C1774 C1776 1.415 . S
C1775 C1774 1.355 . S
C1775 C1777 1.419 . S
C1776 C1774 1.415 . S
C1776 C1781 1.425 . S
C1776 C1783 1.409 . S
C1777 H1769 0.930 . S
C1777 C1775 1.419 . S
C1777 C1778 1.362 . S
C1778 H1770 0.930 . S
C1778 C1777 1.362 . S
C1778 C1781 1.409 . S
C1779 H1771 0.930 . S
C1779 C1780 1.355 . S
C1779 C1781 1.415 . S
C1780 C1779 1.355 . S
C1780 C1782 1.419 . S
C1781 C1776 1.425 . S
C1781 C1778 1.409 . S
C1781 C1779 1.415 . S
C1782 H1772 0.930 . S
C1782 C1780 1.419 . S
C1782 C1783 1.362 . S
C1783 H1773 0.930 . S
C1783 C1776 1.409 . S
C1783 C1782 1.362 . S
H1784 C1790 0.930 . S
H1785 C1793 0.930 . S
H1786 C1794 0.930 . S
H1787 C1795 0.930 . S
H1788 C1798 0.930 . S
H1789 C1799 0.930 . S
C1790 H1784 0.930 . S
C1790 C1791 1.355 . S
C1790 C1792 1.415 . S
C1791 C1790 1.355 . S
C1791 C1793 1.419 . S
C1792 C1790 1.415 . S
C1792 C1797 1.425 . S
C1792 C1799 1.409 . S
C1793 H1785 0.930 . S
C1793 C1791 1.419 . S
C1793 C1794 1.362 . S
C1794 H1786 0.930 . S
C1794 C1793 1.362 . S
C1794 C1797 1.409 . S
C1795 H1787 0.930 . S
C1795 C1796 1.355 . S
C1795 C1797 1.415 . S
C1796 C1795 1.355 . S
C1796 C1798 1.419 . S
C1797 C1792 1.425 . S
C1797 C1794 1.409 . S
C1797 C1795 1.415 . S
C1798 H1788 0.930 . S
C1798 C1796 1.419 . S
C1798 C1799 1.362 . S
C1799 H1789 0.930 . S
C1799 C1792 1.409 . S
C1799 C1798 1.362 . S
H1800 C1806 0.930 . S
H1801 C1809 0.930 . S
H1802 C1810 0.930 . S
H1803 C1811 0.930 . S
H1804 C1814 0.930 . S
H1805 C1815 0.930 . S
C1806 H1800 0.930 . S
C1806 C1807 1.355 . S
C1806 C1808 1.415 . S
C1807 C1806 1.355 . S
C1807 C1809 1.419 . S
C1808 C1806 1.415 . S
C1808 C1813 1.425 . S
C1808 C1815 1.409 . S
C1809 H1801 0.930 . S
C1809 C1807 1.419 . S
C1809 C1810 1.362 . S
C1810 H1802 0.930 . S
C1810 C1809 1.362 . S
C1810 C1813 1.409 . S
C1811 H1803 0.930 . S
C1811 C1812 1.355 . S
C1811 C1813 1.415 . S
C1812 C1811 1.355 . S
C1812 C1814 1.419 . S
C1813 C1808 1.425 . S
C1813 C1810 1.409 . S
C1813 C1811 1.415 . S
C1814 H1804 0.930 . S
C1814 C1812 1.419 . S
C1814 C1815 1.362 . S
C1815 H1805 0.930 . S
C1815 C1808 1.409 . S
C1815 C1814 1.362 . S
H1816 C1822 0.930 . S
H1817 C1825 0.930 . S
H1818 C1826 0.930 . S
H1819 C1827 0.930 . S
H1820 C1830 0.930 . S
H1821 C1831 0.930 . S
C1822 H1816 0.930 . S
C1822 C1823 1.355 . S
C1822 C1824 1.415 . S
C1823 C1822 1.355 . S
C1823 C1825 1.419 . S
C1824 C1822 1.415 . S
C1824 C1829 1.425 . S
C1824 C1831 1.409 . S
C1825 H1817 0.930 . S
C1825 C1823 1.419 . S
C1825 C1826 1.362 . S
C1826 H1818 0.930 . S
C1826 C1825 1.362 . S
C1826 C1829 1.409 . S
C1827 H1819 0.930 . S
C1827 C1828 1.355 . S
C1827 C1829 1.415 . S
C1828 C1827 1.355 . S
C1828 C1830 1.419 . S
C1829 C1824 1.425 . S
C1829 C1826 1.409 . S
C1829 C1827 1.415 . S
C1830 H1820 0.930 . S
C1830 C1828 1.419 . S
C1830 C1831 1.362 . S
C1831 H1821 0.930 . S
C1831 C1824 1.409 . S
C1831 C1830 1.362 . S
H1832 C1838 0.930 . S
H1833 C1841 0.930 . S
H1834 C1842 0.930 . S
H1835 C1843 0.930 . S
H1836 C1846 0.930 . S
H1837 C1847 0.930 . S
C1838 H1832 0.930 . S
C1838 C1839 1.355 . S
C1838 C1840 1.415 . S
C1839 C1838 1.355 . S
C1839 C1841 1.419 . S
C1840 C1838 1.415 . S
C1840 C1845 1.425 . S
C1840 C1847 1.409 . S
C1841 H1833 0.930 . S
C1841 C1839 1.419 . S
C1841 C1842 1.362 . S
C1842 H1834 0.930 . S
C1842 C1841 1.362 . S
C1842 C1845 1.409 . S
C1843 H1835 0.930 . S
C1843 C1844 1.355 . S
C1843 C1845 1.415 . S
C1844 C1843 1.355 . S
C1844 C1846 1.419 . S
C1845 C1840 1.425 . S
C1845 C1842 1.409 . S
C1845 C1843 1.415 . S
C1846 H1836 0.930 . S
C1846 C1844 1.419 . S
C1846 C1847 1.362 . S
C1847 H1837 0.930 . S
C1847 C1840 1.409 . S
C1847 C1846 1.362 . S
H1848 C1854 0.930 . S
H1849 C1857 0.930 . S
H1850 C1858 0.930 . S
H1851 C1859 0.930 . S
H1852 C1862 0.930 . S
H1853 C1863 0.930 . S
C1854 H1848 0.930 . S
C1854 C1855 1.355 . S
C1854 C1856 1.415 . S
C1855 C1854 1.355 . S
C1855 C1857 1.419 . S
C1856 C1854 1.415 . S
C1856 C1861 1.425 1_455 S
C1856 C1863 1.409 . S
C1857 H1849 0.930 . S
C1857 C1855 1.419 . S
C1857 C1858 1.362 1_455 S
C1858 H1850 0.930 . S
C1858 C1857 1.362 1_655 S
C1858 C1861 1.409 . S
C1859 H1851 0.930 . S
C1859 C1860 1.355 . S
C1859 C1861 1.415 . S
C1860 C1859 1.355 . S
C1860 C1862 1.419 . S
C1861 C1856 1.425 1_655 S
C1861 C1858 1.409 . S
C1861 C1859 1.415 . S
C1862 H1852 0.930 . S
C1862 C1860 1.419 . S
C1862 C1863 1.362 1_655 S
C1863 H1853 0.930 . S
C1863 C1856 1.409 . S
C1863 C1862 1.362 1_455 S
H1864 C1870 0.930 . S
H1865 C1873 0.930 . S
H1866 C1874 0.930 . S
H1867 C1875 0.930 . S
H1868 C1878 0.930 . S
H1869 C1879 0.930 . S
C1870 H1864 0.930 . S
C1870 C1871 1.355 . S
C1870 C1872 1.415 . S
C1871 C1870 1.355 . S
C1871 C1873 1.419 . S
C1872 C1870 1.415 . S
C1872 C1877 1.425 . S
C1872 C1879 1.409 . S
C1873 H1865 0.930 . S
C1873 C1871 1.419 . S
C1873 C1874 1.362 . S
C1874 H1866 0.930 . S
C1874 C1873 1.362 . S
C1874 C1877 1.409 . S
C1875 H1867 0.930 . S
C1875 C1876 1.355 . S
C1875 C1877 1.415 . S
C1876 C1875 1.355 . S
C1876 C1878 1.419 . S
C1877 C1872 1.425 . S
C1877 C1874 1.409 . S
C1877 C1875 1.415 . S
C1878 H1868 0.930 . S
C1878 C1876 1.419 . S
C1878 C1879 1.362 . S
C1879 H1869 0.930 . S
C1879 C1872 1.409 . S
C1879 C1878 1.362 . S
H1880 C1886 0.924 1_565 S
H1881 C1889 0.930 . S
H1882 C1890 0.930 . S
H1883 C1891 0.924 1_545 S
H1884 C1894 0.930 . S
H1885 C1895 0.930 . S
C1886 H1880 0.924 1_545 S
C1886 C1887 1.365 . S
C1886 C1888 1.409 1_545 S
C1887 C1886 1.365 . S
C1887 C1889 1.419 . S
C1888 C1886 1.409 1_565 S
C1888 C1893 1.425 1_565 S
C1888 C1895 1.409 . S
C1889 H1881 0.930 . S
C1889 C1887 1.419 . S
C1889 C1890 1.362 . S
C1890 H1882 0.930 . S
C1890 C1889 1.362 . S
C1890 C1893 1.409 . S
C1891 H1883 0.924 1_565 S
C1891 C1892 1.366 . S
C1891 C1893 1.409 1_565 S
C1892 C1891 1.366 . S
C1892 C1894 1.419 . S
C1893 C1888 1.425 1_545 S
C1893 C1890 1.409 . S
C1893 C1891 1.409 1_545 S
C1894 H1884 0.930 . S
C1894 C1892 1.419 . S
C1894 C1895 1.362 . S
C1895 H1885 0.930 . S
C1895 C1888 1.409 . S
C1895 C1894 1.362 . S
H1896 C1902 0.930 . S
H1897 C1905 0.930 . S
H1898 C1906 0.930 . S
H1899 C1907 0.930 . S
H1900 C1910 0.930 . S
H1901 C1911 0.930 . S
C1902 H1896 0.930 . S
C1902 C1903 1.355 1_545 S
C1902 C1904 1.415 . S
C1903 C1902 1.355 1_565 S
C1903 C1905 1.419 . S
C1904 C1902 1.415 . S
C1904 C1909 1.425 1_545 S
C1904 C1911 1.409 . S
C1905 H1897 0.930 . S
C1905 C1903 1.419 . S
C1905 C1906 1.362 . S
C1906 H1898 0.930 . S
C1906 C1905 1.362 . S
C1906 C1909 1.409 . S
C1907 H1899 0.930 . S
C1907 C1908 1.355 1_565 S
C1907 C1909 1.415 . S
C1908 C1907 1.355 1_545 S
C1908 C1910 1.419 . S
C1909 C1904 1.425 1_565 S
C1909 C1906 1.409 . S
C1909 C1907 1.415 . S
C1910 H1900 0.930 . S
C1910 C1908 1.419 . S
C1910 C1911 1.362 . S
C1911 H1901 0.930 . S
C1911 C1904 1.409 . S
C1911 C1910 1.362 . S
H1912 C1918 0.939 . S
H1913 C1921 0.930 . S
H1914 C1922 0.930 . S
H1915 C1923 0.939 . S
H1916 C1926 0.930 . S
H1917 C1927 0.930 . S
C1918 H1912 0.939 . S
C1918 C1919 1.343 1_655 S
C1918 C1920 1.418 . S
C1919 C1918 1.343 1_455 S
C1919 C1921 1.419 . S
C1920 C1918 1.418 . S
C1920 C1925 1.425 1_655 S
C1920 C1927 1.409 . S
C1921 H1913 0.930 . S
C1921 C1919 1.419 . S
C1921 C1922 1.362 . S
C1922 H1914 0.930 . S
C1922 C1921 1.362 . S
C1922 C1925 1.409 . S
C1923 H1915 0.939 . S
C1923 C1924 1.343 1_455 S
C1923 C1925 1.418 . S
C1924 C1923 1.343 1_655 S
C1924 C1926 1.419 . S
C1925 C1920 1.425 1_455 S
C1925 C1922 1.409 . S
C1925 C1923 1.418 . S
C1926 H1916 0.930 . S
C1926 C1924 1.419 . S
C1926 C1927 1.362 . S
C1927 H1917 0.930 . S
C1927 C1920 1.409 . S
C1927 C1926 1.362 . S
H1928 C1934 0.930 . S
H1929 C1937 0.930 . S
H1930 C1938 0.930 . S
H1931 C1939 0.930 . S
H1932 C1942 0.930 . S
H1933 C1943 0.930 . S
C1934 H1928 0.930 . S
C1934 C1935 1.355 . S
C1934 C1936 1.415 . S
C1935 C1934 1.355 . S
C1935 C1937 1.419 . S
C1936 C1934 1.415 . S
C1936 C1941 1.425 . S
C1936 C1943 1.409 . S
C1937 H1929 0.930 . S
C1937 C1935 1.419 . S
C1937 C1938 1.362 . S
C1938 H1930 0.930 . S
C1938 C1937 1.362 . S
C1938 C1941 1.409 . S
C1939 H1931 0.930 . S
C1939 C1940 1.355 . S
C1939 C1941 1.415 . S
C1940 C1939 1.355 . S
C1940 C1942 1.419 . S
C1941 C1936 1.425 . S
C1941 C1938 1.409 . S
C1941 C1939 1.415 . S
C1942 H1932 0.930 . S
C1942 C1940 1.419 . S
C1942 C1943 1.362 . S
C1943 H1933 0.930 . S
C1943 C1936 1.409 . S
C1943 C1942 1.362 . S
H1944 C1950 0.930 . S
H1945 C1953 0.930 . S
H1946 C1954 0.930 . S
H1947 C1955 0.930 . S
H1948 C1958 0.930 . S
H1949 C1959 0.930 . S
C1950 H1944 0.930 . S
C1950 C1951 1.355 . S
C1950 C1952 1.415 . S
C1951 C1950 1.355 . S
C1951 C1953 1.419 . S
C1952 C1950 1.415 . S
C1952 C1957 1.425 . S
C1952 C1959 1.409 . S
C1953 H1945 0.930 . S
C1953 C1951 1.419 . S
C1953 C1954 1.362 . S
C1954 H1946 0.930 . S
C1954 C1953 1.362 . S
C1954 C1957 1.409 . S
C1955 H1947 0.930 . S
C1955 C1956 1.355 . S
C1955 C1957 1.415 . S
C1956 C1955 1.355 . S
C1956 C1958 1.419 . S
C1957 C1952 1.425 . S
C1957 C1954 1.409 . S
C1957 C1955 1.415 . S
C1958 H1948 0.930 . S
C1958 C1956 1.419 . S
C1958 C1959 1.362 . S
C1959 H1949 0.930 . S
C1959 C1952 1.409 . S
C1959 C1958 1.362 . S
H1960 C1966 0.930 . S
H1961 C1969 0.930 . S
H1962 C1970 0.930 . S
H1963 C1971 0.930 . S
H1964 C1974 0.930 . S
H1965 C1975 0.930 . S
C1966 H1960 0.930 . S
C1966 C1967 1.355 1_565 S
C1966 C1968 1.415 . S
C1967 C1966 1.355 1_545 S
C1967 C1969 1.419 . S
C1968 C1966 1.415 . S
C1968 C1973 1.425 1_565 S
C1968 C1975 1.409 . S
C1969 H1961 0.930 . S
C1969 C1967 1.419 . S
C1969 C1970 1.362 . S
C1970 H1962 0.930 . S
C1970 C1969 1.362 . S
C1970 C1973 1.409 . S
C1971 H1963 0.930 . S
C1971 C1972 1.355 1_545 S
C1971 C1973 1.415 . S
C1972 C1971 1.355 1_565 S
C1972 C1974 1.419 . S
C1973 C1968 1.425 1_545 S
C1973 C1970 1.409 . S
C1973 C1971 1.415 . S
C1974 H1964 0.930 . S
C1974 C1972 1.419 . S
C1974 C1975 1.362 . S
C1975 H1965 0.930 . S
C1975 C1968 1.409 . S
C1975 C1974 1.362 . S
H1976 C1982 0.930 . S
H1977 C1985 0.930 . S
H1978 C1986 0.930 . S
H1979 C1987 0.930 . S
H1980 C1990 0.930 . S
H1981 C1991 0.930 . S
C1982 H1976 0.930 . S
C1982 C1983 1.355 . S
C1982 C1984 1.415 1_655 S
C1983 C1982 1.355 . S
C1983 C1985 1.419 . S
C1984 C1982 1.415 1_455 S
C1984 C1989 1.425 1_455 S
C1984 C1991 1.409 . S
C1985 H1977 0.930 . S
C1985 C1983 1.419 . S
C1985 C1986 1.362 . S
C1986 H1978 0.930 . S
C1986 C1985 1.362 . S
C1986 C1989 1.409 . S
C1987 H1979 0.930 . S
C1987 C1988 1.355 . S
C1987 C1989 1.415 1_455 S
C1988 C1987 1.355 . S
C1988 C1990 1.419 . S
C1989 C1984 1.425 1_655 S
C1989 C1986 1.409 . S
C1989 C1987 1.415 1_655 S
C1990 H1980 0.930 . S
C1990 C1988 1.419 . S
C1990 C1991 1.362 . S
C1991 H1981 0.930 . S
C1991 C1984 1.409 . S
C1991 C1990 1.362 . S
H1992 C1998 0.930 . S
H1993 C2001 0.930 . S
H1994 C2002 0.930 . S
H1995 C2003 0.930 . S
H1996 C2006 0.930 . S
H1997 C2007 0.930 . S
C1998 H1992 0.930 . S
C1998 C1999 1.355 . S
C1998 C2000 1.415 . S
C1999 C1998 1.355 . S
C1999 C2001 1.419 . S
C2000 C1998 1.415 . S
C2000 C2005 1.425 . S
C2000 C2007 1.409 . S
C2001 H1993 0.930 . S
C2001 C1999 1.419 . S
C2001 C2002 1.362 . S
C2002 H1994 0.930 . S
C2002 C2001 1.362 . S
C2002 C2005 1.409 . S
C2003 H1995 0.930 . S
C2003 C2004 1.355 . S
C2003 C2005 1.415 . S
C2004 C2003 1.355 . S
C2004 C2006 1.419 . S
C2005 C2000 1.425 . S
C2005 C2002 1.409 . S
C2005 C2003 1.415 . S
C2006 H1996 0.930 . S
C2006 C2004 1.419 . S
C2006 C2007 1.362 . S
C2007 H1997 0.930 . S
C2007 C2000 1.409 . S
C2007 C2006 1.362 . S
H2008 C2014 0.930 . S
H2009 C2017 0.930 . S
H2010 C2018 0.930 . S
H2011 C2019 0.930 . S
H2012 C2022 0.930 . S
H2013 C2023 0.930 . S
C2014 H2008 0.930 . S
C2014 C2015 1.355 . S
C2014 C2016 1.415 1_565 S
C2015 C2014 1.355 . S
C2015 C2017 1.419 . S
C2016 C2014 1.415 1_545 S
C2016 C2021 1.425 1_545 S
C2016 C2023 1.409 . S
C2017 H2009 0.930 . S
C2017 C2015 1.419 . S
C2017 C2018 1.362 . S
C2018 H2010 0.930 . S
C2018 C2017 1.362 . S
C2018 C2021 1.409 . S
C2019 H2011 0.930 . S
C2019 C2020 1.355 . S
C2019 C2021 1.415 1_545 S
C2020 C2019 1.355 . S
C2020 C2022 1.419 . S
C2021 C2016 1.425 1_565 S
C2021 C2018 1.409 . S
C2021 C2019 1.415 1_565 S
C2022 H2012 0.930 . S
C2022 C2020 1.419 . S
C2022 C2023 1.362 . S
C2023 H2013 0.930 . S
C2023 C2016 1.409 . S
C2023 C2022 1.362 . S
H2024 C2030 0.930 . S
H2025 C2033 0.930 . S
H2026 C2034 0.930 . S
H2027 C2035 0.930 . S
H2028 C2038 0.930 . S
H2029 C2039 0.930 . S
C2030 H2024 0.930 . S
C2030 C2031 1.355 . S
C2030 C2032 1.415 . S
C2031 C2030 1.355 . S
C2031 C2033 1.419 1_655 S
C2032 C2030 1.415 . S
C2032 C2037 1.425 1_655 S
C2032 C2039 1.409 . S
C2033 H2025 0.930 . S
C2033 C2031 1.419 1_455 S
C2033 C2034 1.362 . S
C2034 H2026 0.930 . S
C2034 C2033 1.362 . S
C2034 C2037 1.409 . S
C2035 H2027 0.930 . S
C2035 C2036 1.355 . S
C2035 C2037 1.415 . S
C2036 C2035 1.355 . S
C2036 C2038 1.419 1_455 S
C2037 C2032 1.425 1_455 S
C2037 C2034 1.409 . S
C2037 C2035 1.415 . S
C2038 H2028 0.930 . S
C2038 C2036 1.419 1_655 S
C2038 C2039 1.362 . S
C2039 H2029 0.930 . S
C2039 C2032 1.409 . S
C2039 C2038 1.362 . S
H2040 C2046 0.930 . S
H2041 C2049 0.930 . S
H2042 C2050 0.930 . S
H2043 C2051 0.930 . S
H2044 C2054 0.930 . S
H2045 C2055 0.930 . S
C2046 H2040 0.930 . S
C2046 C2047 1.355 . S
C2046 C2048 1.415 . S
C2047 C2046 1.355 . S
C2047 C2049 1.419 . S
C2048 C2046 1.415 . S
C2048 C2053 1.425 . S
C2048 C2055 1.409 . S
C2049 H2041 0.930 . S
C2049 C2047 1.419 . S
C2049 C2050 1.362 . S
C2050 H2042 0.930 . S
C2050 C2049 1.362 . S
C2050 C2053 1.409 . S
C2051 H2043 0.930 . S
C2051 C2052 1.355 . S
C2051 C2053 1.415 . S
C2052 C2051 1.355 . S
C2052 C2054 1.419 . S
C2053 C2048 1.425 . S
C2053 C2050 1.409 . S
C2053 C2051 1.415 . S
C2054 H2044 0.930 . S
C2054 C2052 1.419 . S
C2054 C2055 1.362 . S
C2055 H2045 0.930 . S
C2055 C2048 1.409 . S
C2055 C2054 1.362 . S
H2056 C2062 0.930 . S
H2057 C2065 0.930 . S
H2058 C2066 0.930 . S
H2059 C2067 0.930 . S
H2060 C2070 0.930 . S
H2061 C2071 0.930 . S
C2062 H2056 0.930 . S
C2062 C2063 1.355 . S
C2062 C2064 1.415 . S
C2063 C2062 1.355 . S
C2063 C2065 1.419 . S
C2064 C2062 1.415 . S
C2064 C2069 1.425 . S
C2064 C2071 1.409 . S
C2065 H2057 0.930 . S
C2065 C2063 1.419 . S
C2065 C2066 1.362 . S
C2066 H2058 0.930 . S
C2066 C2065 1.362 . S
C2066 C2069 1.409 . S
C2067 H2059 0.930 . S
C2067 C2068 1.355 . S
C2067 C2069 1.415 . S
C2068 C2067 1.355 . S
C2068 C2070 1.419 . S
C2069 C2064 1.425 . S
C2069 C2066 1.409 . S
C2069 C2067 1.415 . S
C2070 H2060 0.930 . S
C2070 C2068 1.419 . S
C2070 C2071 1.362 . S
C2071 H2061 0.930 . S
C2071 C2064 1.409 . S
C2071 C2070 1.362 . S
H2072 C2078 0.930 . S
H2073 C2081 0.930 . S
H2074 C2082 0.930 . S
H2075 C2083 0.930 . S
H2076 C2086 0.930 . S
H2077 C2087 0.930 . S
C2078 H2072 0.930 . S
C2078 C2079 1.355 . S
C2078 C2080 1.415 . S
C2079 C2078 1.355 . S
C2079 C2081 1.419 . S
C2080 C2078 1.415 . S
C2080 C2085 1.425 . S
C2080 C2087 1.409 . S
C2081 H2073 0.930 . S
C2081 C2079 1.419 . S
C2081 C2082 1.362 . S
C2082 H2074 0.930 . S
C2082 C2081 1.362 . S
C2082 C2085 1.409 . S
C2083 H2075 0.930 . S
C2083 C2084 1.355 . S
C2083 C2085 1.415 . S
C2084 C2083 1.355 . S
C2084 C2086 1.419 . S
C2085 C2080 1.425 . S
C2085 C2082 1.409 . S
C2085 C2083 1.415 . S
C2086 H2076 0.930 . S
C2086 C2084 1.419 . S
C2086 C2087 1.362 . S
C2087 H2077 0.930 . S
C2087 C2080 1.409 . S
C2087 C2086 1.362 . S
H2088 C2094 0.930 . S
H2089 C2097 0.930 . S
H2090 C2098 0.930 . S
H2091 C2099 0.930 . S
H2092 C2102 0.930 . S
H2093 C2103 0.930 . S
C2094 H2088 0.930 . S
C2094 C2095 1.355 . S
C2094 C2096 1.415 . S
C2095 C2094 1.355 . S
C2095 C2097 1.419 . S
C2096 C2094 1.415 . S
C2096 C2101 1.425 . S
C2096 C2103 1.409 . S
C2097 H2089 0.930 . S
C2097 C2095 1.419 . S
C2097 C2098 1.362 . S
C2098 H2090 0.930 . S
C2098 C2097 1.362 . S
C2098 C2101 1.409 . S
C2099 H2091 0.930 . S
C2099 C2100 1.355 . S
C2099 C2101 1.415 . S
C2100 C2099 1.355 . S
C2100 C2102 1.419 . S
C2101 C2096 1.425 . S
C2101 C2098 1.409 . S
C2101 C2099 1.415 . S
C2102 H2092 0.930 . S
C2102 C2100 1.419 . S
C2102 C2103 1.362 . S
C2103 H2093 0.930 . S
C2103 C2096 1.409 . S
C2103 C2102 1.362 . S
H2104 C2110 0.930 . S
H2105 C2113 0.930 . S
H2106 C2114 0.930 . S
H2107 C2115 0.930 . S
H2108 C2118 0.930 . S
H2109 C2119 0.930 . S
C2110 H2104 0.930 . S
C2110 C2111 1.355 . S
C2110 C2112 1.415 . S
C2111 C2110 1.355 . S
C2111 C2113 1.419 . S
C2112 C2110 1.415 . S
C2112 C2117 1.425 . S
C2112 C2119 1.409 . S
C2113 H2105 0.930 . S
C2113 C2111 1.419 . S
C2113 C2114 1.362 . S
C2114 H2106 0.930 . S
C2114 C2113 1.362 . S
C2114 C2117 1.409 . S
C2115 H2107 0.930 . S
C2115 C2116 1.355 . S
C2115 C2117 1.415 . S
C2116 C2115 1.355 . S
C2116 C2118 1.419 . S
C2117 C2112 1.425 . S
C2117 C2114 1.409 . S
C2117 C2115 1.415 . S
C2118 H2108 0.930 . S
C2118 C2116 1.419 . S
C2118 C2119 1.362 . S
C2119 H2109 0.930 . S
C2119 C2112 1.409 . S
C2119 C2118 1.362 . S
H2120 C2126 0.930 . S
H2121 C2129 0.930 . S
H2122 C2130 0.930 . S
H2123 C2131 0.930 . S
H2124 C2134 0.930 1_556 S
H2125 C2135 0.930 . S
C2126 H2120 0.930 . S
C2126 C2127 1.355 . S
C2126 C2128 1.415 . S
C2127 C2126 1.355 . S
C2127 C2129 1.419 . S
C2128 C2126 1.415 . S
C2128 C2133 1.425 . S
C2128 C2135 1.409 . S
C2129 H2121 0.930 . S
C2129 C2127 1.419 . S
C2129 C2130 1.362 . S
C2130 H2122 0.930 . S
C2130 C2129 1.362 . S
C2130 C2133 1.409 . S
C2131 H2123 0.930 . S
C2131 C2132 1.355 . S
C2131 C2133 1.415 . S
C2132 C2131 1.355 . S
C2132 C2134 1.419 . S
C2133 C2128 1.425 . S
C2133 C2130 1.409 . S
C2133 C2131 1.415 . S
C2134 H2124 0.930 1_554 S
C2134 C2132 1.419 . S
C2134 C2135 1.362 . S
C2135 H2125 0.930 . S
C2135 C2128 1.409 . S
C2135 C2134 1.362 . S
H2136 C2142 0.930 . S
H2137 C2145 0.930 . S
H2138 C2146 0.930 . S
H2139 C2147 0.930 . S
H2140 C2150 0.930 . S
H2141 C2151 0.930 . S
C2142 H2136 0.930 . S
C2142 C2143 1.355 . S
C2142 C2144 1.415 . S
C2143 C2142 1.355 . S
C2143 C2145 1.419 . S
C2144 C2142 1.415 . S
C2144 C2149 1.425 . S
C2144 C2151 1.409 . S
C2145 H2137 0.930 . S
C2145 C2143 1.419 . S
C2145 C2146 1.362 . S
C2146 H2138 0.930 . S
C2146 C2145 1.362 . S
C2146 C2149 1.409 . S
C2147 H2139 0.930 . S
C2147 C2148 1.355 . S
C2147 C2149 1.415 . S
C2148 C2147 1.355 . S
C2148 C2150 1.419 . S
C2149 C2144 1.425 . S
C2149 C2146 1.409 . S
C2149 C2147 1.415 . S
C2150 H2140 0.930 . S
C2150 C2148 1.419 . S
C2150 C2151 1.362 . S
C2151 H2141 0.930 . S
C2151 C2144 1.409 . S
C2151 C2150 1.362 . S
H2152 C2158 0.930 . S
H2153 C2161 0.930 . S
H2154 C2162 0.930 . S
H2155 C2163 0.930 . S
H2156 C2166 0.930 . S
H2157 C2167 0.930 . S
C2158 H2152 0.930 . S
C2158 C2159 1.355 . S
C2158 C2160 1.415 . S
C2159 C2158 1.355 . S
C2159 C2161 1.419 . S
C2160 C2158 1.415 . S
C2160 C2165 1.425 . S
C2160 C2167 1.409 . S
C2161 H2153 0.930 . S
C2161 C2159 1.419 . S
C2161 C2162 1.362 . S
C2162 H2154 0.930 . S
C2162 C2161 1.362 . S
C2162 C2165 1.409 . S
C2163 H2155 0.930 . S
C2163 C2164 1.355 . S
C2163 C2165 1.415 . S
C2164 C2163 1.355 . S
C2164 C2166 1.419 . S
C2165 C2160 1.425 . S
C2165 C2162 1.409 . S
C2165 C2163 1.415 . S
C2166 H2156 0.930 . S
C2166 C2164 1.419 . S
C2166 C2167 1.362 . S
C2167 H2157 0.930 . S
C2167 C2160 1.409 . S
C2167 C2166 1.362 . S
H2168 C2174 0.930 . S
H2169 C2177 0.930 . S
H2170 C2178 0.930 . S
H2171 C2179 0.930 . S
H2172 C2182 0.930 . S
H2173 C2183 0.930 . S
C2174 H2168 0.930 . S
C2174 C2175 1.355 . S
C2174 C2176 1.415 . S
C2175 C2174 1.355 . S
C2175 C2177 1.419 . S
C2176 C2174 1.415 . S
C2176 C2181 1.425 . S
C2176 C2183 1.409 . S
C2177 H2169 0.930 . S
C2177 C2175 1.419 . S
C2177 C2178 1.362 . S
C2178 H2170 0.930 . S
C2178 C2177 1.362 . S
C2178 C2181 1.409 . S
C2179 H2171 0.930 . S
C2179 C2180 1.355 . S
C2179 C2181 1.415 . S
C2180 C2179 1.355 . S
C2180 C2182 1.419 . S
C2181 C2176 1.425 . S
C2181 C2178 1.409 . S
C2181 C2179 1.415 . S
C2182 H2172 0.930 . S
C2182 C2180 1.419 . S
C2182 C2183 1.362 . S
C2183 H2173 0.930 . S
C2183 C2176 1.409 . S
C2183 C2182 1.362 . S
H2184 C2190 0.930 . S
H2185 C2193 0.930 . S
H2186 C2194 0.930 . S
H2187 C2195 0.930 . S
H2188 C2198 0.930 . S
H2189 C2199 0.930 . S
C2190 H2184 0.930 . S
C2190 C2191 1.355 . S
C2190 C2192 1.415 . S
C2191 C2190 1.355 . S
C2191 C2193 1.419 . S
C2192 C2190 1.415 . S
C2192 C2197 1.425 . S
C2192 C2199 1.409 . S
C2193 H2185 0.930 . S
C2193 C2191 1.419 . S
C2193 C2194 1.362 . S
C2194 H2186 0.930 . S
C2194 C2193 1.362 . S
C2194 C2197 1.409 . S
C2195 H2187 0.930 . S
C2195 C2196 1.355 . S
C2195 C2197 1.415 . S
C2196 C2195 1.355 . S
C2196 C2198 1.419 . S
C2197 C2192 1.425 . S
C2197 C2194 1.409 . S
C2197 C2195 1.415 . S
C2198 H2188 0.930 . S
C2198 C2196 1.419 . S
C2198 C2199 1.362 . S
C2199 H2189 0.930 . S
C2199 C2192 1.409 . S
C2199 C2198 1.362 . S
H2200 C2206 0.930 . S
H2201 C2209 0.930 . S
H2202 C2210 0.930 . S
H2203 C2211 0.930 . S
H2204 C2214 0.930 . S
H2205 C2215 0.930 . S
C2206 H2200 0.930 . S
C2206 C2207 1.355 . S
C2206 C2208 1.415 . S
C2207 C2206 1.355 . S
C2207 C2209 1.419 . S
C2208 C2206 1.415 . S
C2208 C2213 1.425 . S
C2208 C2215 1.409 . S
C2209 H2201 0.930 . S
C2209 C2207 1.419 . S
C2209 C2210 1.362 . S
C2210 H2202 0.930 . S
C2210 C2209 1.362 . S
C2210 C2213 1.409 . S
C2211 H2203 0.930 . S
C2211 C2212 1.355 . S
C2211 C2213 1.415 . S
C2212 C2211 1.355 . S
C2212 C2214 1.419 . S
C2213 C2208 1.425 . S
C2213 C2210 1.409 . S
C2213 C2211 1.415 . S
C2214 H2204 0.930 . S
C2214 C2212 1.419 . S
C2214 C2215 1.362 . S
C2215 H2205 0.930 . S
C2215 C2208 1.409 . S
C2215 C2214 1.362 . S
H2216 C2222 0.930 . S
H2217 C2225 0.930 . S
H2218 C2226 0.930 . S
H2219 C2227 0.930 . S
H2220 C2230 0.930 . S
H2221 C2231 0.930 . S
C2222 H2216 0.930 . S
C2222 C2223 1.355 . S
C2222 C2224 1.415 . S
C2223 C2222 1.355 . S
C2223 C2225 1.419 . S
C2224 C2222 1.415 . S
C2224 C2229 1.425 . S
C2224 C2231 1.409 . S
C2225 H2217 0.930 . S
C2225 C2223 1.419 . S
C2225 C2226 1.362 . S
C2226 H2218 0.930 . S
C2226 C2225 1.362 . S
C2226 C2229 1.409 . S
C2227 H2219 0.930 . S
C2227 C2228 1.355 . S
C2227 C2229 1.415 . S
C2228 C2227 1.355 . S
C2228 C2230 1.419 . S
C2229 C2224 1.425 . S
C2229 C2226 1.409 . S
C2229 C2227 1.415 . S
C2230 H2220 0.930 . S
C2230 C2228 1.419 . S
C2230 C2231 1.362 . S
C2231 H2221 0.930 . S
C2231 C2224 1.409 . S
C2231 C2230 1.362 . S
H2232 C2238 0.930 . S
H2233 C2241 0.930 . S
H2234 C2242 0.930 . S
H2235 C2243 0.930 . S
H2236 C2246 0.930 . S
H2237 C2247 0.930 . S
C2238 H2232 0.930 . S
C2238 C2239 1.355 . S
C2238 C2240 1.415 . S
C2239 C2238 1.355 . S
C2239 C2241 1.419 . S
C2240 C2238 1.415 . S
C2240 C2245 1.425 . S
C2240 C2247 1.409 . S
C2241 H2233 0.930 . S
C2241 C2239 1.419 . S
C2241 C2242 1.362 . S
C2242 H2234 0.930 . S
C2242 C2241 1.362 . S
C2242 C2245 1.409 . S
C2243 H2235 0.930 . S
C2243 C2244 1.355 . S
C2243 C2245 1.415 . S
C2244 C2243 1.355 . S
C2244 C2246 1.419 . S
C2245 C2240 1.425 . S
C2245 C2242 1.409 . S
C2245 C2243 1.415 . S
C2246 H2236 0.930 . S
C2246 C2244 1.419 . S
C2246 C2247 1.362 . S
C2247 H2237 0.930 . S
C2247 C2240 1.409 . S
C2247 C2246 1.362 . S
H2248 C2254 0.930 . S
H2249 C2257 0.930 . S
H2250 C2258 0.930 . S
H2251 C2259 0.930 . S
H2252 C2262 0.930 . S
H2253 C2263 0.930 . S
C2254 H2248 0.930 . S
C2254 C2255 1.355 . S
C2254 C2256 1.415 . S
C2255 C2254 1.355 . S
C2255 C2257 1.419 . S
C2256 C2254 1.415 . S
C2256 C2261 1.425 . S
C2256 C2263 1.409 . S
C2257 H2249 0.930 . S
C2257 C2255 1.419 . S
C2257 C2258 1.362 . S
C2258 H2250 0.930 . S
C2258 C2257 1.362 . S
C2258 C2261 1.409 . S
C2259 H2251 0.930 . S
C2259 C2260 1.355 . S
C2259 C2261 1.415 . S
C2260 C2259 1.355 . S
C2260 C2262 1.419 . S
C2261 C2256 1.425 . S
C2261 C2258 1.409 . S
C2261 C2259 1.415 . S
C2262 H2252 0.930 . S
C2262 C2260 1.419 . S
C2262 C2263 1.362 . S
C2263 H2253 0.930 . S
C2263 C2256 1.409 . S
C2263 C2262 1.362 . S
H2264 C2270 0.930 1_655 S
H2265 C2273 0.930 . S
H2266 C2274 0.930 . S
H2267 C2275 0.930 . S
H2268 C2278 0.930 . S
H2269 C2279 0.938 . S
C2270 H2264 0.930 1_455 S
C2270 C2271 1.355 . S
C2270 C2272 1.415 . S
C2271 C2270 1.355 . S
C2271 C2273 1.419 . S
C2272 C2270 1.415 . S
C2272 C2277 1.425 . S
C2272 C2279 1.409 . S
C2273 H2265 0.930 . S
C2273 C2271 1.419 . S
C2273 C2274 1.362 . S
C2274 H2266 0.930 . S
C2274 C2273 1.362 . S
C2274 C2277 1.409 . S
C2275 H2267 0.930 . S
C2275 C2276 1.355 . S
C2275 C2277 1.415 . S
C2276 C2275 1.355 . S
C2276 C2278 1.419 . S
C2277 C2272 1.425 . S
C2277 C2274 1.409 . S
C2277 C2275 1.415 . S
C2278 H2268 0.930 . S
C2278 C2276 1.419 . S
C2278 C2279 1.362 . S
C2279 H2269 0.938 . S
C2279 C2272 1.409 . S
C2279 C2278 1.362 . S
H2280 C2286 0.930 . S
H2281 C2289 0.930 . S
H2282 C2290 0.930 . S
H2283 C2291 0.930 . S
H2284 C2294 0.930 . S
H2285 C2295 0.930 . S
C2286 H2280 0.930 . S
C2286 C2287 1.355 . S
C2286 C2288 1.415 . S
C2287 C2286 1.355 . S
C2287 C2289 1.419 . S
C2288 C2286 1.415 . S
C2288 C2293 1.425 . S
C2288 C2295 1.409 . S
C2289 H2281 0.930 . S
C2289 C2287 1.419 . S
C2289 C2290 1.362 . S
C2290 H2282 0.930 . S
C2290 C2289 1.362 . S
C2290 C2293 1.409 . S
C2291 H2283 0.930 . S
C2291 C2292 1.355 . S
C2291 C2293 1.415 . S
C2292 C2291 1.355 . S
C2292 C2294 1.419 . S
C2293 C2288 1.425 . S
C2293 C2290 1.409 . S
C2293 C2291 1.415 . S
C2294 H2284 0.930 . S
C2294 C2292 1.419 . S
C2294 C2295 1.362 . S
C2295 H2285 0.930 . S
C2295 C2288 1.409 . S
C2295 C2294 1.362 . S
H2296 C2302 0.931 1_565 S
H2297 C2305 0.930 . S
H2298 C2306 0.930 . S
H2299 C2307 0.930 . S
H2300 C2310 0.930 . S
H2301 C2311 0.930 . S
C2302 H2296 0.931 1_545 S
C2302 C2303 1.355 . S
C2302 C2304 1.415 . S
C2303 C2302 1.355 . S
C2303 C2305 1.419 . S
C2304 C2302 1.415 . S
C2304 C2309 1.425 . S
C2304 C2311 1.409 . S
C2305 H2297 0.930 . S
C2305 C2303 1.419 . S
C2305 C2306 1.362 . S
C2306 H2298 0.930 . S
C2306 C2305 1.362 . S
C2306 C2309 1.409 . S
C2307 H2299 0.930 . S
C2307 C2308 1.355 . S
C2307 C2309 1.415 . S
C2308 C2307 1.355 . S
C2308 C2310 1.419 . S
C2309 C2304 1.425 . S
C2309 C2306 1.409 . S
C2309 C2307 1.415 . S
C2310 H2300 0.930 . S
C2310 C2308 1.419 . S
C2310 C2311 1.362 . S
C2311 H2301 0.930 . S
C2311 C2304 1.409 . S
C2311 C2310 1.362 . S
H2312 C2318 0.930 1_455 S
H2313 C2321 0.930 . S
H2314 C2322 0.930 . S
H2315 C2323 0.930 . S
H2316 C2326 0.930 . S
H2317 C2327 0.930 . S
C2318 H2312 0.930 1_655 S
C2318 C2319 1.355 . S
C2318 C2320 1.415 . S
C2319 C2318 1.355 . S
C2319 C2321 1.419 . S
C2320 C2318 1.415 . S
C2320 C2325 1.425 . S
C2320 C2327 1.409 . S
C2321 H2313 0.930 . S
C2321 C2319 1.419 . S
C2321 C2322 1.362 . S
C2322 H2314 0.930 . S
C2322 C2321 1.362 . S
C2322 C2325 1.409 . S
C2323 H2315 0.930 . S
C2323 C2324 1.355 . S
C2323 C2325 1.415 . S
C2324 C2323 1.355 . S
C2324 C2326 1.419 . S
C2325 C2320 1.425 . S
C2325 C2322 1.409 . S
C2325 C2323 1.415 . S
C2326 H2316 0.930 . S
C2326 C2324 1.419 . S
C2326 C2327 1.362 . S
C2327 H2317 0.930 . S
C2327 C2320 1.409 . S
C2327 C2326 1.362 . S
H2328 C2334 0.930 . S
H2329 C2337 0.930 . S
H2330 C2338 0.930 . S
H2331 C2339 0.930 . S
H2332 C2342 0.930 . S
H2333 C2343 0.930 . S
C2334 H2328 0.930 . S
C2334 C2335 1.355 . S
C2334 C2336 1.415 . S
C2335 C2334 1.355 . S
C2335 C2337 1.419 . S
C2336 C2334 1.415 . S
C2336 C2341 1.425 . S
C2336 C2343 1.409 . S
C2337 H2329 0.930 . S
C2337 C2335 1.419 . S
C2337 C2338 1.362 . S
C2338 H2330 0.930 . S
C2338 C2337 1.362 . S
C2338 C2341 1.409 . S
C2339 H2331 0.930 . S
C2339 C2340 1.355 . S
C2339 C2341 1.415 . S
C2340 C2339 1.355 . S
C2340 C2342 1.419 . S
C2341 C2336 1.425 . S
C2341 C2338 1.409 . S
C2341 C2339 1.415 . S
C2342 H2332 0.930 . S
C2342 C2340 1.419 . S
C2342 C2343 1.362 . S
C2343 H2333 0.930 . S
C2343 C2336 1.409 . S
C2343 C2342 1.362 . S
H2344 C2350 0.930 1_565 S
H2345 C2353 0.930 . S
H2346 C2354 0.930 . S
H2347 C2355 0.930 . S
H2348 C2358 0.930 . S
H2349 C2359 0.930 . S
C2350 H2344 0.930 1_545 S
C2350 C2351 1.355 . S
C2350 C2352 1.415 . S
C2351 C2350 1.355 . S
C2351 C2353 1.419 . S
C2352 C2350 1.415 . S
C2352 C2357 1.425 . S
C2352 C2359 1.409 . S
C2353 H2345 0.930 . S
C2353 C2351 1.419 . S
C2353 C2354 1.362 . S
C2354 H2346 0.930 . S
C2354 C2353 1.362 . S
C2354 C2357 1.409 . S
C2355 H2347 0.930 . S
C2355 C2356 1.355 . S
C2355 C2357 1.415 . S
C2356 C2355 1.355 . S
C2356 C2358 1.419 . S
C2357 C2352 1.425 . S
C2357 C2354 1.409 . S
C2357 C2355 1.415 . S
C2358 H2348 0.930 . S
C2358 C2356 1.419 . S
C2358 C2359 1.362 . S
C2359 H2349 0.930 . S
C2359 C2352 1.409 . S
C2359 C2358 1.362 . S
H2360 C2366 0.930 . S
H2361 C2369 0.930 . S
H2362 C2370 0.930 . S
H2363 C2371 0.930 . S
H2364 C2374 0.930 . S
H2365 C2375 0.930 . S
C2366 H2360 0.930 . S
C2366 C2367 1.355 . S
C2366 C2368 1.415 . S
C2367 C2366 1.355 . S
C2367 C2369 1.419 . S
C2368 C2366 1.415 . S
C2368 C2373 1.425 . S
C2368 C2375 1.409 . S
C2369 H2361 0.930 . S
C2369 C2367 1.419 . S
C2369 C2370 1.362 . S
C2370 H2362 0.930 . S
C2370 C2369 1.362 . S
C2370 C2373 1.409 . S
C2371 H2363 0.930 . S
C2371 C2372 1.355 . S
C2371 C2373 1.415 . S
C2372 C2371 1.355 . S
C2372 C2374 1.419 . S
C2373 C2368 1.425 . S
C2373 C2370 1.409 . S
C2373 C2371 1.415 . S
C2374 H2364 0.930 . S
C2374 C2372 1.419 . S
C2374 C2375 1.362 . S
C2375 H2365 0.930 . S
C2375 C2368 1.409 . S
C2375 C2374 1.362 . S
H2376 C2382 0.930 . S
H2377 C2385 0.930 . S
H2378 C2386 0.930 . S
H2379 C2387 0.930 . S
H2380 C2390 0.930 . S
H2381 C2391 0.930 . S
C2382 H2376 0.930 . S
C2382 C2383 1.355 . S
C2382 C2384 1.415 . S
C2383 C2382 1.355 . S
C2383 C2385 1.419 . S
C2384 C2382 1.415 . S
C2384 C2389 1.425 . S
C2384 C2391 1.409 . S
C2385 H2377 0.930 . S
C2385 C2383 1.419 . S
C2385 C2386 1.362 . S
C2386 H2378 0.930 . S
C2386 C2385 1.362 . S
C2386 C2389 1.409 . S
C2387 H2379 0.930 . S
C2387 C2388 1.355 . S
C2387 C2389 1.415 . S
C2388 C2387 1.355 . S
C2388 C2390 1.419 . S
C2389 C2384 1.425 . S
C2389 C2386 1.409 . S
C2389 C2387 1.415 . S
C2390 H2380 0.930 . S
C2390 C2388 1.419 . S
C2390 C2391 1.362 . S
C2391 H2381 0.930 . S
C2391 C2384 1.409 . S
C2391 C2390 1.362 . S
H2392 C2398 0.930 . S
H2393 C2401 0.930 . S
H2394 C2402 0.930 . S
H2395 C2403 0.930 . S
H2396 C2406 0.930 . S
H2397 C2407 0.930 . S
C2398 H2392 0.930 . S
C2398 C2399 1.355 . S
C2398 C2400 1.415 . S
C2399 C2398 1.355 . S
C2399 C2401 1.419 . S
C2400 C2398 1.415 . S
C2400 C2405 1.425 . S
C2400 C2407 1.409 . S
C2401 H2393 0.930 . S
C2401 C2399 1.419 . S
C2401 C2402 1.362 . S
C2402 H2394 0.930 . S
C2402 C2401 1.362 . S
C2402 C2405 1.409 . S
C2403 H2395 0.930 . S
C2403 C2404 1.355 . S
C2403 C2405 1.415 . S
C2404 C2403 1.355 . S
C2404 C2406 1.419 . S
C2405 C2400 1.425 . S
C2405 C2402 1.409 . S
C2405 C2403 1.415 . S
C2406 H2396 0.930 . S
C2406 C2404 1.419 . S
C2406 C2407 1.362 . S
C2407 H2397 0.930 . S
C2407 C2400 1.409 . S
C2407 C2406 1.362 . S
H2408 C2414 0.930 . S
H2409 C2417 0.930 . S
H2410 C2418 0.930 . S
H2411 C2419 0.930 1_655 S
H2412 C2422 0.930 . S
H2413 C2423 0.930 . S
C2414 H2408 0.930 . S
C2414 C2415 1.355 . S
C2414 C2416 1.415 . S
C2415 C2414 1.355 . S
C2415 C2417 1.419 . S
C2416 C2414 1.415 . S
C2416 C2421 1.425 . S
C2416 C2423 1.409 . S
C2417 H2409 0.930 . S
C2417 C2415 1.419 . S
C2417 C2418 1.362 . S
C2418 H2410 0.930 . S
C2418 C2417 1.362 . S
C2418 C2421 1.409 . S
C2419 H2411 0.930 1_455 S
C2419 C2420 1.355 . S
C2419 C2421 1.415 . S
C2420 C2419 1.355 . S
C2420 C2422 1.419 . S
C2421 C2416 1.425 . S
C2421 C2418 1.409 . S
C2421 C2419 1.415 . S
C2422 H2412 0.930 . S
C2422 C2420 1.419 . S
C2422 C2423 1.362 . S
C2423 H2413 0.930 . S
C2423 C2416 1.409 . S
C2423 C2422 1.362 . S
H2424 C2430 0.930 . S
H2425 C2433 0.930 . S
H2426 C2434 0.930 1_455 S
H2427 C2435 0.930 . S
H2428 C2438 0.930 . S
H2429 C2439 0.930 1_655 S
C2430 H2424 0.930 . S
C2430 C2431 1.355 . S
C2430 C2432 1.415 . S
C2431 C2430 1.355 . S
C2431 C2433 1.419 . S
C2432 C2430 1.415 . S
C2432 C2437 1.425 1_655 S
C2432 C2439 1.409 1_655 S
C2433 H2425 0.930 . S
C2433 C2431 1.419 . S
C2433 C2434 1.362 . S
C2434 H2426 0.930 1_655 S
C2434 C2433 1.362 . S
C2434 C2437 1.409 1_655 S
C2435 H2427 0.930 . S
C2435 C2436 1.355 . S
C2435 C2437 1.415 . S
C2436 C2435 1.355 . S
C2436 C2438 1.419 . S
C2437 C2432 1.425 1_455 S
C2437 C2434 1.409 1_455 S
C2437 C2435 1.415 . S
C2438 H2428 0.930 . S
C2438 C2436 1.419 . S
C2438 C2439 1.362 . S
C2439 H2429 0.930 1_455 S
C2439 C2432 1.409 1_455 S
C2439 C2438 1.362 . S
H2440 C2446 0.930 . S
H2441 C2449 0.930 . S
H2442 C2450 0.930 . S
H2443 C2451 0.930 . S
H2444 C2454 0.930 . S
H2445 C2455 0.930 . S
C2446 H2440 0.930 . S
C2446 C2447 1.355 . S
C2446 C2448 1.415 . S
C2447 C2446 1.355 . S
C2447 C2449 1.419 . S
C2448 C2446 1.415 . S
C2448 C2453 1.425 . S
C2448 C2455 1.409 . S
C2449 H2441 0.930 . S
C2449 C2447 1.419 . S
C2449 C2450 1.362 . S
C2450 H2442 0.930 . S
C2450 C2449 1.362 . S
C2450 C2453 1.409 . S
C2451 H2443 0.930 . S
C2451 C2452 1.355 . S
C2451 C2453 1.415 . S
C2452 C2451 1.355 . S
C2452 C2454 1.419 . S
C2453 C2448 1.425 . S
C2453 C2450 1.409 . S
C2453 C2451 1.415 . S
C2454 H2444 0.930 . S
C2454 C2452 1.419 . S
C2454 C2455 1.362 . S
C2455 H2445 0.930 . S
C2455 C2448 1.409 . S
C2455 C2454 1.362 . S
H2456 C2462 0.930 . S
H2457 C2465 0.930 . S
H2458 C2466 0.930 1_565 S
H2459 C2467 0.930 . S
H2460 C2470 0.930 . S
H2461 C2471 0.930 1_545 S
C2462 H2456 0.930 . S
C2462 C2463 1.355 . S
C2462 C2464 1.415 . S
C2463 C2462 1.355 . S
C2463 C2465 1.419 . S
C2464 C2462 1.415 . S
C2464 C2469 1.425 1_545 S
C2464 C2471 1.409 1_545 S
C2465 H2457 0.930 . S
C2465 C2463 1.419 . S
C2465 C2466 1.362 . S
C2466 H2458 0.930 1_545 S
C2466 C2465 1.362 . S
C2466 C2469 1.409 1_545 S
C2467 H2459 0.930 . S
C2467 C2468 1.355 . S
C2467 C2469 1.415 . S
C2468 C2467 1.355 . S
C2468 C2470 1.419 . S
C2469 C2464 1.425 1_565 S
C2469 C2466 1.409 1_565 S
C2469 C2467 1.415 . S
C2470 H2460 0.930 . S
C2470 C2468 1.419 . S
C2470 C2471 1.362 . S
C2471 H2461 0.930 1_565 S
C2471 C2464 1.409 1_565 S
C2471 C2470 1.362 . S
H2472 C2478 0.930 . S
H2473 C2481 0.930 . S
H2474 C2482 0.930 . S
H2475 C2483 0.930 . S
H2476 C2486 0.930 . S
H2477 C2487 0.930 . S
C2478 H2472 0.930 . S
C2478 C2479 1.355 . S
C2478 C2480 1.415 . S
C2479 C2478 1.355 . S
C2479 C2481 1.419 . S
C2480 C2478 1.415 . S
C2480 C2485 1.425 1_545 S
C2480 C2487 1.409 1_545 S
C2481 H2473 0.930 . S
C2481 C2479 1.419 . S
C2481 C2482 1.362 . S
C2482 H2474 0.930 . S
C2482 C2481 1.362 . S
C2482 C2485 1.409 1_545 S
C2483 H2475 0.930 . S
C2483 C2484 1.355 . S
C2483 C2485 1.415 . S
C2484 C2483 1.355 . S
C2484 C2486 1.419 . S
C2485 C2480 1.425 1_565 S
C2485 C2482 1.409 1_565 S
C2485 C2483 1.415 . S
C2486 H2476 0.930 . S
C2486 C2484 1.419 . S
C2486 C2487 1.362 . S
C2487 H2477 0.930 . S
C2487 C2480 1.409 1_565 S
C2487 C2486 1.362 . S
H2488 C2494 0.930 . S
H2489 C2497 0.930 . S
H2490 C2498 0.930 1_455 S
H2491 C2499 0.930 . S
H2492 C2502 0.930 . S
H2493 C2503 0.930 1_655 S
C2494 H2488 0.930 . S
C2494 C2495 1.355 . S
C2494 C2496 1.415 . S
C2495 C2494 1.355 . S
C2495 C2497 1.419 . S
C2496 C2494 1.415 . S
C2496 C2501 1.425 1_655 S
C2496 C2503 1.409 1_655 S
C2497 H2489 0.930 . S
C2497 C2495 1.419 . S
C2497 C2498 1.362 . S
C2498 H2490 0.930 1_655 S
C2498 C2497 1.362 . S
C2498 C2501 1.409 1_655 S
C2499 H2491 0.930 . S
C2499 C2500 1.355 . S
C2499 C2501 1.415 . S
C2500 C2499 1.355 . S
C2500 C2502 1.419 . S
C2501 C2496 1.425 1_455 S
C2501 C2498 1.409 1_455 S
C2501 C2499 1.415 . S
C2502 H2492 0.930 . S
C2502 C2500 1.419 . S
C2502 C2503 1.362 . S
C2503 H2493 0.930 1_455 S
C2503 C2496 1.409 1_455 S
C2503 C2502 1.362 . S
H2504 C2510 0.930 . S
H2505 C2513 0.930 . S
H2506 C2514 0.930 . S
H2507 C2515 0.930 . S
H2508 C2518 0.930 . S
H2509 C2519 0.930 . S
C2510 H2504 0.930 . S
C2510 C2511 1.355 . S
C2510 C2512 1.415 . S
C2511 C2510 1.355 . S
C2511 C2513 1.419 . S
C2512 C2510 1.415 . S
C2512 C2517 1.425 . S
C2512 C2519 1.409 . S
C2513 H2505 0.930 . S
C2513 C2511 1.419 . S
C2513 C2514 1.362 . S
C2514 H2506 0.930 . S
C2514 C2513 1.362 . S
C2514 C2517 1.409 . S
C2515 H2507 0.930 . S
C2515 C2516 1.355 . S
C2515 C2517 1.415 . S
C2516 C2515 1.355 . S
C2516 C2518 1.419 . S
C2517 C2512 1.425 . S
C2517 C2514 1.409 . S
C2517 C2515 1.415 . S
C2518 H2508 0.930 . S
C2518 C2516 1.419 . S
C2518 C2519 1.362 . S
C2519 H2509 0.930 . S
C2519 C2512 1.409 . S
C2519 C2518 1.362 . S
C799 C21 1.371 1_556 S
C804 C172 1.318 . S
C815 C186 1.384 . S
C820 C43 1.371 . S
C831 C150 1.319 . S
C836 C65 1.388 1_556 S
C847 C250 1.374 . S
C852 C73 1.383 . S
C863 C109 1.392 . S
C868 C216 1.358 . S
C879 C131 1.374 . S
C884 C238 1.320 . S
C895 C30 1.382 . S
C900 C139 1.376 . S
C911 C161 1.395 1_554 S
C916 C52 1.342 . S
C927 C8 1.374 . S
C932 C191 1.356 . S
C943 C118 1.357 . S
C948 C205 1.392 . S
C959 C227 1.377 . S
C964 C84 1.380 . S
C975 C263 1.386 . S
C980 C96 1.317 . S
C991 C285 1.368 . S
C996 C428 1.325 . S
C1007 C448 1.318 . S
C1012 C307 1.386 . S
C1023 C406 1.322 . S
C1028 C329 1.391 . S
C1039 C351 1.393 . S
C1044 C514 1.325 . S
C1055 C470 1.320 . S
C1060 C359 1.390 . S
C1071 C395 1.358 . S
C1076 C502 1.380 . S
C1087 C411 1.375 . S
C1092 C294 1.382 . S
C1103 C316 1.318 . S
C1108 C433 1.388 . S
C1119 C461 1.394 . S
C1124 C272 1.330 . S
C1135 C382 1.341 . S
C1140 C483 1.359 . S
C1151 C338 1.385 . S
C1156 C491 1.368 . S
C1167 C527 1.392 . S
C1172 C370 1.357 . S
C1183 C549 1.394 . S
C1188 C700 1.347 . S
C1199 C571 1.363 . S
C1204 C722 1.332 . S
C1215 C668 1.332 . S
C1220 C593 1.395 . S
C1231 C778 1.327 . S
C1236 C615 1.394 . S
C1247 C637 1.386 . S
C1252 C744 1.371 . S
C1263 C766 1.326 . S
C1268 C645 1.393 . S
C1279 C558 1.328 . S
C1284 C681 1.394 . S
C1295 C689 1.382 . S
C1300 C580 1.376 . S
C1311 C536 1.379 . S
C1316 C711 1.358 . S
C1327 C733 1.370 . S
C1332 C656 1.323 . S
C1343 C755 1.357 . S
C1348 C602 1.377 . S
C1359 C791 1.357 . S
C1364 C624 1.346 . S
C1375 C15 1.792 . S
C1380 C403 1.792 . S
C1391 C37 1.802 . S
C1396 C425 1.802 . S
C1407 C455 1.860 . S
C1412 C59 1.860 . S
C1423 C747 1.858 . S
C1428 C87 1.858 . S
C1439 C769 1.855 . S
C1444 C103 1.855 . S
C1455 C785 1.821 . S
C1460 C125 1.821 . S
C1471 C153 1.843 . S
C1476 C543 1.843 . S
C1487 C565 1.855 . S
C1492 C175 1.855 . S
C1503 C183 1.802 . S
C1508 C587 1.802 . S
C1519 C219 1.791 . S
C1524 C345 1.791 . S
C1535 C241 1.855 . S
C1540 C373 1.855 . S
C1551 C257 1.799 . S
C1556 C389 1.799 . S
C1567 C279 1.851 . S
C1572 C675 1.851 . S
C1583 C703 1.860 . S
C1588 C301 1.860 . S
C1599 C323 1.792 . S
C1604 C725 1.792 . S
C1615 C609 1.859 . S
C1620 C477 1.859 . S
C1631 C505 1.810 . S
C1636 C631 1.810 . S
C1647 C659 1.797 . S
C1652 C521 1.797 . S
C1663 C7 1.697 1_556 S
C1668 C367 1.699 . S
C1679 C29 1.676 1_556 S
C1684 C381 1.641 . S
C1695 C337 1.674 . S
C1700 C51 1.703 1_556 S
C1711 C81 1.668 . S
C1716 C579 1.701 . S
C1727 C535 1.690 . S
C1732 C95 1.703 . S
C1743 C117 1.660 . S
C1748 C557 1.697 . S
C1759 C763 1.698 . S
C1764 C147 1.699 1_554 S
C1775 C169 1.637 1_554 S
C1780 C777 1.661 . S
C1791 C741 1.638 . S
C1796 C197 1.650 1_554 S
C1807 C213 1.688 . S
C1812 C447 1.704 . S
C1823 C235 1.688 . S
C1828 C417 1.704 . S
C1839 C249 1.704 . S
C1844 C439 1.689 . S
C1855 C623 1.697 . S
C1860 C271 1.659 . S
C1871 C293 1.684 . S
C1876 C653 1.704 . S
C1887 C315 1.638 . S
C1892 C601 1.668 . S
C1903 C719 1.657 . S
C1908 C469 1.637 . S
C1919 C667 1.643 . S
C1924 C499 1.643 . S
C1935 C697 1.671 . S
C1940 C513 1.639 . S
C1951 C74 1.028 . S
C1956 C10 1.017 . S
C1967 C32 1.019 . S
C1972 C98 1.022 . S
C1983 C54 1.016 . S
C1988 C120 1.025 . S
C1999 C206 1.028 . S
C2004 C140 1.018 . S
C2015 C162 1.016 . S
C2020 C228 1.028 . S
C2031 C252 1.026 . S
C2036 C194 1.022 . S
C2047 C340 1.021 . S
C2052 C274 1.020 . S
C2063 C296 1.028 . S
C2068 C360 1.017 . S
C2079 C318 1.024 . S
C2084 C384 1.024 . S
C2095 C414 1.019 . S
C2100 C472 1.027 1_554 S
C2111 C436 1.018 . S
C2116 C492 1.028 1_554 S
C2127 C450 1.025 . S
C2132 C516 1.023 1_554 S
C2143 C538 1.028 . S
C2148 C604 1.016 1_556 S
C2159 C626 1.018 1_556 S
C2164 C560 1.023 . S
C2175 C646 1.016 1_556 S
C2180 C582 1.028 . S
C2191 C670 1.028 . S
C2196 C734 1.016 . S
C2207 C756 1.024 . S
C2212 C690 1.023 . S
C2223 C712 1.026 . S
C2228 C780 1.021 . S
C2239 C18 1.527 . S
C2244 C648 1.483 . S
C2255 C612 1.539 . S
C2260 C40 1.505 1_565 S
C2271 C62 1.530 1_455 S
C2276 C634 1.487 . S
C2287 C304 1.515 . S
C2292 C76 1.472 . S
C2303 C106 1.487 1_545 S
C2308 C326 1.462 . S
C2319 C128 1.506 1_655 S
C2324 C282 1.466 . S
C2335 C524 1.496 . S
C2340 C142 1.463 . S
C2351 C164 1.526 1_545 S
C2356 C480 1.482 . S
C2367 C494 1.474 . S
C2372 C184 1.465 1_655 S
C2383 C208 1.540 . S
C2388 C692 1.517 . S
C2399 C714 1.465 . S
C2404 C230 1.474 1_565 S
C2415 C678 1.462 . S
C2420 C260 1.490 1_455 S
C2431 C348 1.532 . S
C2436 C568 1.491 . S
C2447 C362 1.483 . S
C2452 C590 1.462 . S
C2463 C392 1.510 . S
C2468 C546 1.540 . S
C2479 C404 1.531 . S
C2484 C788 1.489 . S
C2495 C426 1.506 . S
C2500 C736 1.539 . S
C2511 C758 1.481 . S
C2516 C458 1.462 . S
