# Generated by pormake.
# Topology srs, (3)-cn, num edge types: 1
# Building blocks:
#     Node 0, Type 0, BuildingBlock: WUSLED_clean_sbu_0, # of connection points: 3
#     Node 1, Type 0, BuildingBlock: WUSLED_clean_sbu_0, # of connection points: 3
#     Node 2, Type 0, BuildingBlock: WUSLED_clean_sbu_0, # of connection points: 3
#     Node 3, Type 0, BuildingBlock: WUSLED_clean_sbu_0, # of connection points: 3
#     Node 4, Type 0, BuildingBlock: WUSLED_clean_sbu_0, # of connection points: 3
#     Node 5, Type 0, BuildingBlock: WUSLED_clean_sbu_0, # of connection points: 3
#     Node 6, Type 0, BuildingBlock: WUSLED_clean_sbu_0, # of connection points: 3
#     Node 7, Type 0, BuildingBlock: WUSLED_clean_sbu_0, # of connection points: 3
#     Edge 8, Type (0, 0), BuildingBlock: UVAHIK_clean_linker_0, # of connection points: 2
#     Edge 9, Type (0, 0), BuildingBlock: UVAHIK_clean_linker_0, # of connection points: 2
#     Edge 10, Type (0, 0), BuildingBlock: UVAHIK_clean_linker_0, # of connection points: 2
#     Edge 11, Type (0, 0), BuildingBlock: UVAHIK_clean_linker_0, # of connection points: 2
#     Edge 12, Type (0, 0), BuildingBlock: UVAHIK_clean_linker_0, # of connection points: 2
#     Edge 13, Type (0, 0), BuildingBlock: UVAHIK_clean_linker_0, # of connection points: 2
#     Edge 14, Type (0, 0), BuildingBlock: UVAHIK_clean_linker_0, # of connection points: 2
#     Edge 15, Type (0, 0), BuildingBlock: UVAHIK_clean_linker_0, # of connection points: 2
#     Edge 16, Type (0, 0), BuildingBlock: UVAHIK_clean_linker_0, # of connection points: 2
#     Edge 17, Type (0, 0), BuildingBlock: UVAHIK_clean_linker_0, # of connection points: 2
#     Edge 18, Type (0, 0), BuildingBlock: UVAHIK_clean_linker_0, # of connection points: 2
#     Edge 19, Type (0, 0), BuildingBlock: UVAHIK_clean_linker_0, # of connection points: 2
# Relax obj value: 0.000
# Max RMSD: 0.008
# Mean RMSD: 0.008
data_MOF--net-srs--node1-WUSLED_clean_sbu_0--edge1-UVAHIK_clean_linker_0
_symmetry_space_group_name_H-M    P1
_symmetry_Int_Tables_number       1
_symmetry_cell_setting            triclinic
loop_
_symmetry_equiv_pos_as_xyz
'x, y, z'
_cell_length_a     76.892359
_cell_length_b     77.225848
_cell_length_c     77.148503
_cell_angle_alpha  90.0184
_cell_angle_beta   89.991727
_cell_angle_gamma 90.020082
loop_
_atom_site_label
_atom_site_type_symbol
_atom_site_fract_x
_atom_site_fract_y
_atom_site_fract_z
_atom_type_partial_charge
C0 C 0.12829 0.11685 0.18438 0.0
C1 C 0.13902 0.10271 0.18032 0.0
C2 C 0.13234 0.08936 0.20822 0.0
C3 C 0.14098 0.08905 0.19212 0.0
C4 C 0.1217 0.10365 0.2122 0.0
C5 C 0.11971 0.11723 0.20039 0.0
U6 U 0.14113 0.14296 0.14403 0.0
O7 O 0.12457 0.15493 0.12413 0.0
O8 O 0.1415 0.17122 0.1402 0.0
C9 C 0.12912 0.17076 0.12847 0.0
C10 C 0.12582 0.13128 0.17216 0.0
C11 C 0.11475 0.1831 0.131 0.0
C12 C 0.0872 0.19129 0.14416 0.0
C13 C 0.10087 0.17944 0.14224 0.0
C14 C 0.10127 0.21062 0.1238 0.0
C15 C 0.08718 0.20701 0.13489 0.0
C16 C 0.11488 0.19878 0.12188 0.0
C17 C 0.18051 0.12921 0.11681 0.0
C18 C 0.19161 0.14609 0.09262 0.0
C19 C 0.20458 0.11836 0.09954 0.0
C20 C 0.19288 0.11637 0.11328 0.0
C21 C 0.20415 0.13327 0.08905 0.0
C22 C 0.17988 0.14406 0.10637 0.0
C23 C 0.16855 0.12693 0.13154 0.0
O24 O 0.13795 0.14327 0.1724 0.0
O25 O 0.12097 0.12697 0.1564 0.0
O26 O 0.15251 0.12263 0.12752 0.0
O27 O 0.16943 0.13886 0.14366 0.0
H28 H 0.14583 0.10224 0.16804 0.0
H29 H 0.14941 0.07835 0.18871 0.0
H30 H 0.11467 0.10421 0.22435 0.0
H31 H 0.11136 0.12803 0.20374 0.0
H32 H 0.07651 0.188 0.15268 0.0
H33 H 0.10057 0.16739 0.14941 0.0
H34 H 0.10188 0.2227 0.1167 0.0
H35 H 0.12554 0.20186 0.11322 0.0
H36 H 0.19077 0.15764 0.08469 0.0
H37 H 0.21419 0.10835 0.09735 0.0
H38 H 0.19358 0.10484 0.12124 0.0
H39 H 0.17035 0.15409 0.10889 0.0
C40 C 0.12799 0.91966 0.35374 0.0
C41 C 0.14032 0.93267 0.35694 0.0
C42 C 0.13213 0.94729 0.33009 0.0
C43 C 0.14235 0.9464 0.34523 0.0
C44 C 0.11987 0.93411 0.32698 0.0
C45 C 0.11783 0.92045 0.3387 0.0
U46 U 0.14088 0.89335 0.39391 0.0
O47 O 0.12427 0.88162 0.41396 0.0
O48 O 0.14091 0.86512 0.39781 0.0
C49 C 0.12861 0.86573 0.40963 0.0
C50 C 0.12545 0.90522 0.36593 0.0
C51 C 0.11406 0.85361 0.40712 0.0
C52 C 0.08862 0.8438 0.39117 0.0
C53 C 0.10235 0.85554 0.39331 0.0
C54 C 0.09818 0.82813 0.41664 0.0
C55 C 0.08635 0.82994 0.40283 0.0
C56 C 0.11188 0.83986 0.41875 0.0
C57 C 0.18064 0.90662 0.42079 0.0
C58 C 0.19118 0.88993 0.44536 0.0
C59 C 0.20537 0.91683 0.43752 0.0
C60 C 0.19364 0.91896 0.42384 0.0
C61 C 0.20433 0.90227 0.44846 0.0
C62 C 0.17942 0.8921 0.43166 0.0
C63 C 0.16861 0.90905 0.40616 0.0
O64 O 0.13743 0.8931 0.36558 0.0
O65 O 0.1208 0.90958 0.38174 0.0
O66 O 0.15266 0.91354 0.4103 0.0
O67 O 0.16924 0.8971 0.39404 0.0
H68 H 0.14833 0.93222 0.36848 0.0
H69 H 0.15203 0.95622 0.34794 0.0
H70 H 0.11161 0.9345 0.31562 0.0
H71 H 0.10822 0.91053 0.33605 0.0
H72 H 0.07966 0.84569 0.3805 0.0
H73 H 0.10383 0.86613 0.38422 0.0
H74 H 0.09702 0.81749 0.4257 0.0
H75 H 0.12083 0.83814 0.42946 0.0
H76 H 0.18988 0.87868 0.45363 0.0
H77 H 0.21545 0.92645 0.43934 0.0
H78 H 0.19479 0.93022 0.41554 0.0
H79 H 0.16941 0.88246 0.42952 0.0
C80 C 0.37824 0.9333 0.66924 0.0
C81 C 0.39043 0.93029 0.68244 0.0
C82 C 0.382 0.95726 0.69669 0.0
C83 C 0.39227 0.94215 0.69608 0.0
C84 C 0.36986 0.96015 0.68335 0.0
C85 C 0.36801 0.94829 0.66979 0.0
U86 U 0.39196 0.89338 0.64293 0.0
O87 O 0.37582 0.87309 0.63103 0.0
O88 O 0.39221 0.88961 0.61464 0.0
C89 C 0.38013 0.87757 0.61516 0.0
C90 C 0.37598 0.92103 0.65481 0.0
C91 C 0.3656 0.87981 0.60293 0.0
C92 C 0.33795 0.89277 0.59482 0.0
C93 C 0.3517 0.891 0.60661 0.0
C94 C 0.35198 0.87234 0.57553 0.0
C95 C 0.33788 0.8834 0.57913 0.0
C96 C 0.36567 0.87056 0.58732 0.0
C97 C 0.43224 0.86731 0.65625 0.0
C98 C 0.44114 0.84065 0.64198 0.0
C99 C 0.45941 0.85335 0.66418 0.0
C100 C 0.44742 0.8668 0.66627 0.0
C101 C 0.45645 0.84011 0.652 0.0
C102 C 0.42916 0.85417 0.64406 0.0
C103 C 0.4199 0.88167 0.65866 0.0
O104 O 0.38798 0.92161 0.6427 0.0
O105 O 0.37163 0.90515 0.65918 0.0
O106 O 0.40401 0.87722 0.66311 0.0
O107 O 0.42033 0.8938 0.64673 0.0
H108 H 0.3985 0.9188 0.68219 0.0
H109 H 0.40186 0.93961 0.70603 0.0
H110 H 0.36157 0.97149 0.68352 0.0
H111 H 0.35851 0.95079 0.65972 0.0
H112 H 0.32725 0.90127 0.59811 0.0
H113 H 0.35144 0.89827 0.61862 0.0
H114 H 0.35255 0.86517 0.56347 0.0
H115 H 0.37635 0.86195 0.58422 0.0
H116 H 0.43854 0.83077 0.63236 0.0
H117 H 0.47091 0.85323 0.67228 0.0
H118 H 0.44999 0.87682 0.67577 0.0
H119 H 0.41752 0.8544 0.63615 0.0
C120 C 0.37864 0.1022 0.86713 0.0
C121 C 0.38942 0.10642 0.85307 0.0
C122 C 0.38254 0.07884 0.83919 0.0
C123 C 0.39132 0.09486 0.83919 0.0
C124 C 0.37187 0.07468 0.85341 0.0
C125 C 0.36994 0.08625 0.86722 0.0
U126 U 0.3915 0.14222 0.8937 0.0
O127 O 0.37497 0.16194 0.90598 0.0
O128 O 0.39199 0.14575 0.92203 0.0
C129 C 0.37961 0.15747 0.92175 0.0
C130 C 0.3762 0.11421 0.88176 0.0
C131 C 0.36532 0.15488 0.93421 0.0
C132 C 0.33739 0.14241 0.94221 0.0
C133 C 0.35101 0.14429 0.93028 0.0
C134 C 0.3524 0.16145 0.96218 0.0
C135 C 0.33786 0.15106 0.95829 0.0
C136 C 0.36595 0.16334 0.95025 0.0
C137 C 0.43071 0.16969 0.88001 0.0
C138 C 0.44191 0.19364 0.89718 0.0
C139 C 0.45455 0.18726 0.86914 0.0
C140 C 0.4429 0.17351 0.86707 0.0
C141 C 0.45426 0.19749 0.88424 0.0
C142 C 0.43022 0.17987 0.89507 0.0
C143 C 0.4188 0.15495 0.87763 0.0
O144 O 0.3884 0.11387 0.89369 0.0
O145 O 0.37127 0.12998 0.87768 0.0
O146 O 0.40272 0.15895 0.87347 0.0
O147 O 0.41978 0.14273 0.88944 0.0
H148 H 0.39632 0.11865 0.85283 0.0
H149 H 0.39979 0.09839 0.82854 0.0
H150 H 0.36474 0.06259 0.85374 0.0
H151 H 0.36155 0.08279 0.87796 0.0
H152 H 0.32635 0.13443 0.93871 0.0
H153 H 0.35031 0.13762 0.91794 0.0
H154 H 0.35339 0.16805 0.97453 0.0
H155 H 0.37695 0.17149 0.95355 0.0
H156 H 0.44118 0.20136 0.90888 0.0
H157 H 0.46401 0.18967 0.85902 0.0
H158 H 0.44348 0.16575 0.85537 0.0
H159 H 0.42084 0.17714 0.90519 0.0
C160 C 0.62664 0.42042 0.85425 0.0
C161 C 0.64207 0.43012 0.85357 0.0
C162 C 0.62947 0.44895 0.83147 0.0
C163 C 0.64349 0.44424 0.84224 0.0
C164 C 0.61406 0.43914 0.83228 0.0
C165 C 0.61268 0.42503 0.84354 0.0
U166 U 0.64125 0.39285 0.893 0.0
O167 O 0.6255 0.38018 0.91313 0.0
O168 O 0.64177 0.36447 0.89585 0.0
C169 C 0.62988 0.36451 0.90808 0.0
C170 C 0.62478 0.40549 0.86598 0.0
C171 C 0.61543 0.3522 0.90573 0.0
C172 C 0.58721 0.34447 0.89375 0.0
C173 C 0.60091 0.35632 0.89551 0.0
C174 C 0.60253 0.32422 0.91223 0.0
C175 C 0.58781 0.32828 0.90217 0.0
C176 C 0.61617 0.33607 0.91399 0.0
C177 C 0.68156 0.406 0.91927 0.0
C178 C 0.68959 0.39337 0.94703 0.0
C179 C 0.70951 0.41273 0.93232 0.0
C180 C 0.69757 0.41463 0.91878 0.0
C181 C 0.70564 0.40217 0.94669 0.0
C182 C 0.67766 0.39526 0.93342 0.0
C183 C 0.66909 0.40855 0.905 0.0
O184 O 0.63695 0.39359 0.86483 0.0
O185 O 0.62053 0.4092 0.88205 0.0
O186 O 0.65317 0.41271 0.90962 0.0
O187 O 0.66961 0.39696 0.89254 0.0
H188 H 0.65297 0.4268 0.86182 0.0
H189 H 0.65547 0.45162 0.84208 0.0
H190 H 0.6031 0.44222 0.82402 0.0
H191 H 0.60069 0.41766 0.84387 0.0
H192 H 0.57603 0.3481 0.88604 0.0
H193 H 0.60013 0.36872 0.889 0.0
H194 H 0.60362 0.31179 0.91863 0.0
H195 H 0.62733 0.33263 0.92185 0.0
H196 H 0.6861 0.38527 0.95794 0.0
H197 H 0.72184 0.41945 0.93144 0.0
H198 H 0.70085 0.42289 0.90791 0.0
H199 H 0.66534 0.38846 0.93401 0.0
C200 C 0.878 0.43297 0.17008 0.0
C201 C 0.88883 0.42902 0.18418 0.0
C202 C 0.88225 0.45699 0.1974 0.0
C203 C 0.8909 0.44092 0.19775 0.0
C204 C 0.87153 0.46087 0.18313 0.0
C205 C 0.86943 0.44897 0.16963 0.0
U206 U 0.89041 0.39233 0.14422 0.0
O207 O 0.87352 0.37238 0.13269 0.0
O208 O 0.89041 0.3881 0.11602 0.0
C209 C 0.87794 0.37647 0.11675 0.0
C210 C 0.87534 0.4206 0.15579 0.0
C211 C 0.86343 0.37903 0.10457 0.0
C212 C 0.83942 0.39618 0.09335 0.0
C213 C 0.85305 0.39395 0.10521 0.0
C214 C 0.84638 0.36854 0.08023 0.0
C215 C 0.83593 0.38349 0.08069 0.0
C216 C 0.85999 0.36635 0.09205 0.0
C217 C 0.9299 0.36521 0.15777 0.0
C218 C 0.94042 0.34055 0.1412 0.0
C219 C 0.95447 0.3484 0.16819 0.0
C220 C 0.94279 0.36214 0.17022 0.0
C221 C 0.95348 0.33745 0.15363 0.0
C222 C 0.92871 0.35431 0.14327 0.0
C223 C 0.918 0.37996 0.16006 0.0
O224 O 0.88732 0.42068 0.14364 0.0
O225 O 0.87049 0.40492 0.16034 0.0
O226 O 0.902 0.37603 0.16459 0.0
O227 O 0.91876 0.39193 0.14797 0.0
H228 H 0.89564 0.41675 0.1847 0.0
H229 H 0.8994 0.4376 0.20844 0.0
H230 H 0.8645 0.473 0.18253 0.0
H231 H 0.861 0.45222 0.15886 0.0
H232 H 0.83152 0.40776 0.09421 0.0
H233 H 0.85549 0.40386 0.11485 0.0
H234 H 0.84426 0.35863 0.07052 0.0
H235 H 0.86791 0.35477 0.09135 0.0
H236 H 0.93915 0.33227 0.12994 0.0
H237 H 0.96449 0.34658 0.17788 0.0
H238 H 0.94393 0.37046 0.18147 0.0
H239 H 0.91878 0.35647 0.13354 0.0
C240 C 0.87783 0.60316 0.36666 0.0
C241 C 0.89015 0.60632 0.35362 0.0
C242 C 0.882 0.57942 0.33909 0.0
C243 C 0.89219 0.59457 0.33992 0.0
C244 C 0.86975 0.57634 0.3523 0.0
C245 C 0.86769 0.5881 0.36593 0.0
U246 U 0.89098 0.64317 0.39305 0.0
O247 O 0.87455 0.66343 0.40464 0.0
O248 O 0.89085 0.64713 0.42129 0.0
C249 C 0.87871 0.65907 0.42057 0.0
C250 C 0.87528 0.6154 0.38107 0.0
C251 C 0.86402 0.65672 0.43259 0.0
C252 C 0.83844 0.64093 0.44228 0.0
C253 C 0.85224 0.64299 0.43059 0.0
C254 C 0.84808 0.66633 0.45801 0.0
C255 C 0.83619 0.65258 0.45616 0.0
C256 C 0.86184 0.66836 0.44634 0.0
C257 C 0.93139 0.66928 0.37997 0.0
C258 C 0.94033 0.6959 0.39429 0.0
C259 C 0.95855 0.68325 0.37201 0.0
C260 C 0.94654 0.66981 0.36991 0.0
C261 C 0.95563 0.69646 0.38424 0.0
C262 C 0.92833 0.68239 0.39219 0.0
C263 C 0.91906 0.6549 0.37756 0.0
O264 O 0.88713 0.61492 0.39334 0.0
O265 O 0.87089 0.63124 0.37663 0.0
O266 O 0.90321 0.65929 0.37293 0.0
O267 O 0.91939 0.64285 0.38958 0.0
H268 H 0.89815 0.61787 0.35403 0.0
H269 H 0.90187 0.59725 0.33008 0.0
H270 H 0.86151 0.56497 0.35195 0.0
H271 H 0.8581 0.58548 0.37587 0.0
H272 H 0.82945 0.63031 0.44035 0.0
H273 H 0.85372 0.63389 0.42 0.0
H274 H 0.84694 0.67539 0.46868 0.0
H275 H 0.87086 0.679 0.44811 0.0
H276 H 0.93776 0.70575 0.40394 0.0
H277 H 0.97003 0.68339 0.36388 0.0
H278 H 0.94909 0.65981 0.36038 0.0
H279 H 0.91671 0.68214 0.40013 0.0
C280 C 0.62785 0.61731 0.68398 0.0
C281 C 0.63663 0.60197 0.67963 0.0
C282 C 0.63061 0.59008 0.70834 0.0
C283 C 0.63798 0.58847 0.6917 0.0
C284 C 0.62213 0.60565 0.71267 0.0
C285 C 0.62075 0.61908 0.70061 0.0
U286 U 0.64127 0.64304 0.64341 0.0
O287 O 0.62481 0.65452 0.6231 0.0
O288 O 0.64128 0.67122 0.63921 0.0
C289 C 0.62906 0.67046 0.62732 0.0
C290 C 0.62562 0.63149 0.6714 0.0
C291 C 0.61445 0.68254 0.62965 0.0
C292 C 0.58901 0.69247 0.64553 0.0
C293 C 0.60275 0.68072 0.64349 0.0
C294 C 0.59855 0.7079 0.6199 0.0
C295 C 0.58674 0.70623 0.63375 0.0
C296 C 0.61225 0.69617 0.61789 0.0
C297 C 0.68147 0.62968 0.61717 0.0
C298 C 0.69036 0.64401 0.59053 0.0
C299 C 0.70851 0.62164 0.60304 0.0
C300 C 0.69656 0.61956 0.61654 0.0
C301 C 0.70561 0.63392 0.58988 0.0
C302 C 0.6784 0.64194 0.60409 0.0
C303 C 0.66922 0.62736 0.63165 0.0
O304 O 0.63758 0.64365 0.67173 0.0
O305 O 0.62113 0.62691 0.6556 0.0
O306 O 0.65333 0.62276 0.62738 0.0
O307 O 0.66966 0.63945 0.64364 0.0
H308 H 0.64226 0.60036 0.66685 0.0
H309 H 0.64448 0.57663 0.68785 0.0
H310 H 0.6166 0.60752 0.72545 0.0
H311 H 0.61403 0.63087 0.70425 0.0
H312 H 0.58008 0.69067 0.65623 0.0
H313 H 0.60425 0.67023 0.65269 0.0
H314 H 0.59738 0.71846 0.61075 0.0
H315 H 0.6212 0.6978 0.60716 0.0
H316 H 0.6878 0.6537 0.58071 0.0
H317 H 0.71996 0.61348 0.60283 0.0
H318 H 0.69911 0.61001 0.62651 0.0
H319 H 0.66683 0.64993 0.60442 0.0
C320 C 0.13335 0.95907 0.29969 0.0
C321 C 0.13402 0.96197 0.31768 0.0
C322 C 0.13443 0.9729 0.28803 0.0
C323 C 0.12739 0.02013 0.28519 0.0
H324 H 0.15327 1.01601 0.24225 0.0
C325 C 0.13574 0.07809 0.23864 0.0
C326 C 0.13417 0.0748 0.22077 0.0
C327 C 0.13674 0.06445 0.25052 0.0
C328 C 0.14584 1.01732 0.2541 0.0
H329 H 0.13647 0.98177 0.33747 0.0
H330 H 0.13859 1.00587 0.31712 0.0
H331 H 0.15326 0.99206 0.26287 0.0
H332 H 0.13252 0.05449 0.20143 0.0
H333 H 0.13419 0.03069 0.22215 0.0
H334 H 0.11981 0.04528 0.27638 0.0
C335 C 0.13707 0.99289 0.31203 0.0
C336 C 0.14585 1.00358 0.26594 0.0
C337 C 0.13605 0.97904 0.3237 0.0
C338 C 0.13393 0.0575 0.21507 0.0
C339 C 0.1349 0.04385 0.22697 0.0
C340 C 0.12736 0.03384 0.27335 0.0
C341 C 0.13615 0.99001 0.29405 0.0
C342 C 0.13657 1.00479 0.28162 0.0
C343 C 0.13618 0.04714 0.24487 0.0
C344 C 0.13654 0.03261 0.25762 0.0
H345 H 0.132 0.94607 0.29459 0.0
H346 H 0.13352 0.9702 0.27428 0.0
H347 H 0.11987 0.02141 0.29699 0.0
H348 H 0.13627 0.09126 0.24346 0.0
H349 H 0.13805 0.0675 0.26416 0.0
C350 C 0.22418 0.88355 0.46644 0.0
C351 C 0.21706 0.89994 0.46285 0.0
C352 C 0.23661 0.8815 0.47954 0.0
C353 C 0.25476 0.90274 0.51881 0.0
H354 H 0.29431 0.87288 0.50999 0.0
C355 C 0.31556 0.90133 0.56326 0.0
C356 C 0.32326 0.88513 0.56654 0.0
C357 C 0.30215 0.90295 0.55108 0.0
C358 C 0.28325 0.88111 0.51276 0.0
H359 H 0.21717 0.92694 0.47061 0.0
H360 H 0.23904 0.92343 0.49318 0.0
H361 H 0.27175 0.87593 0.48804 0.0
H362 H 0.3224 0.85783 0.5599 0.0
H363 H 0.29913 0.86069 0.53867 0.0
H364 H 0.26637 0.908 0.5435 0.0
C365 C 0.23493 0.91211 0.48597 0.0
C366 C 0.27029 0.88285 0.50017 0.0
C367 C 0.22252 0.91416 0.47287 0.0
C368 C 0.31703 0.87057 0.55748 0.0
C369 C 0.30366 0.8722 0.54529 0.0
C370 C 0.26775 0.90101 0.53141 0.0
C371 C 0.24223 0.89577 0.48941 0.0
C372 C 0.25588 0.8937 0.503 0.0
C373 C 0.29611 0.88842 0.54186 0.0
C374 C 0.28217 0.89018 0.52854 0.0
H375 H 0.22041 0.87233 0.4589 0.0
H376 H 0.24179 0.86869 0.48196 0.0
H377 H 0.24373 0.91101 0.52155 0.0
H378 H 0.32016 0.91285 0.56981 0.0
H379 H 0.29679 0.91568 0.54861 0.0
C380 C 0.38569 0.96422 0.72839 0.0
C381 C 0.38378 0.96991 0.71118 0.0
C382 C 0.38664 0.97614 0.74205 0.0
C383 C 0.37528 0.02146 0.75314 0.0
H384 H 0.40593 1.01385 0.7923 0.0
C385 C 0.38405 0.07267 0.80716 0.0
C386 C 0.38425 0.06659 0.82434 0.0
C387 C 0.3849 0.06108 0.79322 0.0
C388 C 0.39718 1.01609 0.78153 0.0
H389 H 0.38201 0.99268 0.69483 0.0
H390 H 0.38374 1.01342 0.71856 0.0
H391 H 0.4058 0.99326 0.76829 0.0
H392 H 0.38602 0.04354 0.84029 0.0
H393 H 0.38727 0.02334 0.81602 0.0
H394 H 0.36661 0.04424 0.76639 0.0
C395 C 0.38414 0.99973 0.72158 0.0
C396 C 0.3971 1.00427 0.76776 0.0
C397 C 0.38316 0.98782 0.70795 0.0
C398 C 0.38563 0.04866 0.82723 0.0
C399 C 0.38654 0.03708 0.8133 0.0
C400 C 0.37538 0.03328 0.76689 0.0
C401 C 0.38573 0.99406 0.73883 0.0
C402 C 0.3861 1.00677 0.7534 0.0
C403 C 0.38604 0.04312 0.79611 0.0
C404 C 0.38629 0.03073 0.78129 0.0
H405 H 0.386 0.95052 0.73138 0.0
H406 H 0.38764 0.97128 0.75517 0.0
H407 H 0.36641 0.02366 0.74246 0.0
H408 H 0.38286 0.08637 0.80445 0.0
H409 H 0.38468 0.06621 0.78016 0.0
C410 C 0.22478 0.15163 0.07156 0.0
C411 C 0.21691 0.13548 0.07466 0.0
C412 C 0.23727 0.15353 0.05849 0.0
C413 C 0.25434 0.13281 1.01848 0.0
H414 H 0.29524 0.16055 0.02818 0.0
C415 C 0.31495 0.13339 0.97365 0.0
C416 C 0.32329 0.14939 0.97097 0.0
C417 C 0.30156 0.13182 0.98587 0.0
C418 C 0.28381 0.15292 0.02516 0.0
H419 H 0.21572 0.10877 0.06603 0.0
H420 H 0.23768 0.112 0.04348 0.0
H421 H 0.27262 0.15771 0.05011 0.0
H422 H 0.32361 0.1764 0.9787 0.0
H423 H 0.30039 0.17364 0.99999 0.0
H424 H 0.26563 0.12794 0.99355 0.0
C425 C 0.23412 0.12325 0.05108 0.0
C426 C 0.27081 0.1513 0.03775 0.0
C427 C 0.22166 0.12135 0.06416 0.0
C428 C 0.31774 0.1638 0.98066 0.0
C429 C 0.3044 0.16222 0.99288 0.0
C430 C 0.26737 0.13441 1.00589 0.0
C431 C 0.24219 0.13934 0.04815 0.0
C432 C 0.2559 0.14122 0.03459 0.0
C433 C 0.2962 0.1462 0.99572 0.0
C434 C 0.28227 0.14449 1.00907 0.0
H435 H 0.22157 0.16276 0.07948 0.0
H436 H 0.24304 0.16616 0.05646 0.0
H437 H 0.24294 0.12514 1.0155 0.0
H438 H 0.31901 0.12197 0.96659 0.0
H439 H 0.29568 0.11924 0.98787 0.0
C440 C 0.9716 0.31307 0.16563 0.0
C441 C 0.96621 0.32305 0.15136 0.0
C442 C 0.98404 0.3 0.16364 0.0
C443 C 0.01959 0.28589 0.13451 0.0
H444 H 1.01567 0.24258 0.15962 0.0
C445 C 0.06637 0.22871 0.12214 0.0
C446 C 0.07258 0.21961 0.13667 0.0
C447 C 0.05301 0.24088 0.12381 0.0
C448 C 1.01705 0.25467 0.15265 0.0
H449 H 0.96969 0.32696 0.12374 0.0
H450 H 0.99112 0.30396 0.1202 0.0
H451 H 0.99298 0.26446 0.1626 0.0
H452 H 0.06945 0.21625 0.16441 0.0
H453 H 0.04609 0.23743 0.16731 0.0
H454 H 0.04366 0.27613 0.12458 0.0
C455 C 0.98587 0.30638 0.133 0.0
C456 C 1.00403 0.26723 0.15435 0.0
C457 C 0.97341 0.31945 0.13499 0.0
C458 C 0.06487 0.22284 0.1529 0.0
C459 C 0.05147 0.235 0.15456 0.0
C460 C 0.03258 0.27333 0.13279 0.0
C461 C 0.99144 0.29656 0.14732 0.0
C462 C 1.00514 0.28302 0.14532 0.0
C463 C 0.04544 0.24426 0.14005 0.0
C464 C 0.0315 0.25756 0.14185 0.0
H465 H 0.96619 0.31534 0.17839 0.0
H466 H 0.98811 0.29281 0.17499 0.0
H467 H 0.02105 0.29801 0.1276 0.0
H468 H 0.07174 0.22633 0.10938 0.0
H469 H 0.04849 0.24753 0.1123 0.0
C470 C 0.47148 0.22265 0.87251 0.0
C471 C 0.46698 0.2119 0.88653 0.0
C472 C 0.4839 0.23575 0.87447 0.0
C473 C 0.52091 0.24877 0.90225 0.0
H474 H 0.51522 0.29328 0.87969 0.0
C475 C 0.5679 0.30575 0.91493 0.0
C476 C 0.5732 0.31566 0.90056 0.0
C477 C 0.55454 0.29354 0.91338 0.0
C478 C 0.51709 0.28086 0.88594 0.0
H479 H 0.47203 0.20665 0.91368 0.0
H480 H 0.49343 0.22969 0.91719 0.0
H481 H 0.49257 0.27131 0.87686 0.0
H482 H 0.56845 0.32044 0.87327 0.0
H483 H 0.5451 0.29919 0.87059 0.0
H484 H 0.54544 0.25829 0.91129 0.0
C485 C 0.48749 0.22786 0.9046 0.0
C486 C 0.5041 0.26825 0.88432 0.0
C487 C 0.47505 0.21476 0.90264 0.0
C488 C 0.56458 0.31321 0.88466 0.0
C489 C 0.55118 0.301 0.88312 0.0
C490 C 0.53388 0.26138 0.90389 0.0
C491 C 0.49217 0.23845 0.89051 0.0
C492 C 0.50585 0.25203 0.89244 0.0
C493 C 0.54608 0.29093 0.89744 0.0
C494 C 0.53216 0.27758 0.89574 0.0
H495 H 0.46538 0.22096 0.85997 0.0
H496 H 0.48726 0.24355 0.8633 0.0
H497 H 0.52287 0.23633 0.90842 0.0
H498 H 0.57398 0.30751 0.92747 0.0
H499 H 0.55074 0.28625 0.92476 0.0
C500 C 0.06277 0.81087 0.41505 0.0
C501 C 0.07186 0.81728 0.40058 0.0
C502 C 0.04962 0.79851 0.41304 0.0
C503 C 0.03398 0.7649 0.38263 0.0
H504 H 0.99245 0.7662 0.41113 0.0
C505 C 0.98649 0.70713 0.38612 0.0
C506 C 0.96855 0.71069 0.38647 0.0
C507 C 0.99868 0.72047 0.38776 0.0
C508 C 1.0039 0.76571 0.40296 0.0
H509 H 0.07406 0.81573 0.3726 0.0
H510 H 0.0509 0.79444 0.36906 0.0
H511 H 1.01402 0.78923 0.41367 0.0
H512 H 0.94942 0.73118 0.38881 0.0
H513 H 0.9707 0.75448 0.39163 0.0
H514 H 0.02375 0.74154 0.37172 0.0
C515 C 0.0541 0.79882 0.38201 0.0
C516 C 1.01637 0.77883 0.40456 0.0
C517 C 0.06726 0.8112 0.38402 0.0
C518 C 0.96313 0.72794 0.38869 0.0
C519 C 0.97534 0.74131 0.39031 0.0
C520 C 0.02152 0.75179 0.38104 0.0
C521 C 0.04519 0.79222 0.39651 0.0
C522 C 0.03162 0.77855 0.39447 0.0
C523 C 0.99328 0.73775 0.38977 0.0
C524 C 1.00635 0.75196 0.39125 0.0
H525 H 0.06581 0.81541 0.42798 0.0
H526 H 0.04316 0.79362 0.42452 0.0
H527 H 0.04563 0.76414 0.37478 0.0
H528 H 0.99114 0.69396 0.38475 0.0
H529 H 1.01237 0.71718 0.38764 0.0
C530 C 0.56318 0.72527 0.62146 0.0
C531 C 0.57229 0.71893 0.63595 0.0
C532 C 0.55008 0.73768 0.62342 0.0
C533 C 0.53464 0.77153 0.65367 0.0
H534 H 0.49303 0.77018 0.6253 0.0
C535 C 0.48728 0.82938 0.65009 0.0
C536 C 0.46934 0.82585 0.6498 0.0
C537 C 0.49944 0.81602 0.64846 0.0
C538 C 0.5045 0.77069 0.63343 0.0
H539 H 0.57456 0.72067 0.66391 0.0
H540 H 0.55148 0.74204 0.66737 0.0
H541 H 0.51452 0.74708 0.62281 0.0
H542 H 0.45016 0.80539 0.64758 0.0
H543 H 0.47137 0.78204 0.64478 0.0
H544 H 0.52451 0.79497 0.66449 0.0
C545 C 0.55464 0.73757 0.65444 0.0
C546 C 0.51693 0.75753 0.63186 0.0
C547 C 0.56774 0.72514 0.65248 0.0
C548 C 0.46387 0.8086 0.64765 0.0
C549 C 0.47604 0.79521 0.64605 0.0
C550 C 0.52222 0.78468 0.65523 0.0
C551 C 0.54571 0.7441 0.63992 0.0
C552 C 0.5322 0.75782 0.64191 0.0
C553 C 0.49399 0.79873 0.64652 0.0
C554 C 0.50703 0.78449 0.64507 0.0
H555 H 0.56617 0.72063 0.60855 0.0
H556 H 0.54361 0.74251 0.61193 0.0
H557 H 0.54631 0.7723 0.66149 0.0
H558 H 0.49197 0.84255 0.6514 0.0
H559 H 0.51314 0.81928 0.64854 0.0
C560 C 0.64652 0.56538 0.72278 0.0
C561 C 0.63144 0.57557 0.72109 0.0
C562 C 0.64724 0.55192 0.73494 0.0
C563 C 0.62624 0.53641 0.77533 0.0
H564 H 0.64685 0.49223 0.76319 0.0
C565 C 0.61667 0.47537 0.81734 0.0
C566 C 0.6308 0.464 0.81945 0.0
C567 C 0.61765 0.48924 0.80574 0.0
C568 C 0.64126 0.50456 0.76688 0.0
H569 H 0.60512 0.57915 0.73058 0.0
H570 H 0.60642 0.55583 0.75173 0.0
H571 H 0.6469 0.51581 0.74212 0.0
H572 H 0.65709 0.45841 0.81098 0.0
H573 H 0.6589 0.4828 0.79088 0.0
H574 H 0.6205 0.52519 0.80003 0.0
C575 C 0.61782 0.55844 0.74391 0.0
C576 C 0.64128 0.51809 0.75478 0.0
C577 C 0.61708 0.57184 0.73176 0.0
C578 C 0.64602 0.46699 0.80977 0.0
C579 C 0.64698 0.48086 0.79811 0.0
C580 C 0.62622 0.52292 0.78741 0.0
C581 C 0.63292 0.54834 0.74572 0.0
C582 C 0.63361 0.53413 0.7588 0.0
C583 C 0.63278 0.49214 0.79591 0.0
C584 C 0.63357 0.50675 0.78329 0.0
H585 H 0.6579 0.568 0.71494 0.0
H586 H 0.65914 0.54451 0.73611 0.0
H587 H 0.62052 0.5487 0.77899 0.0
H588 H 0.60482 0.47359 0.82472 0.0
H589 H 0.60639 0.49753 0.80426 0.0
C590 C 0.81859 0.40208 0.06016 0.0
C591 C 0.82161 0.38585 0.06786 0.0
C592 C 0.80557 0.40412 0.04764 0.0
C593 C 0.76551 0.38358 0.03017 0.0
H594 H 0.7755 0.41167 0.98973 0.0
C595 C 0.72106 0.38442 0.96944 0.0
C596 C 0.71832 0.40046 0.96124 0.0
C597 C 0.73324 0.38282 0.98285 0.0
C598 C 0.7724 0.40395 1.00103 0.0
H599 H 0.81288 0.35915 0.06873 0.0
H600 H 0.79043 0.36263 0.04672 0.0
H601 H 0.79734 0.40868 1.0124 0.0
H602 H 0.72594 0.42752 0.9612 0.0
H603 H 0.74717 0.42469 0.98445 0.0
H604 H 0.7406 0.37875 0.01869 0.0
C605 C 0.79805 0.37383 0.05043 0.0
C606 C 0.78494 0.40224 1.01406 0.0
C607 C 0.81108 0.37179 0.06292 0.0
C608 C 0.72794 0.41489 0.96695 0.0
C609 C 0.74012 0.41327 0.98031 0.0
C610 C 0.75298 0.38526 1.01711 0.0
C611 C 0.79519 0.39 0.04253 0.0
C612 C 0.78168 0.39202 0.0288 0.0
C613 C 0.743 0.39721 0.98838 0.0
C614 C 0.75627 0.39546 1.00237 0.0
H615 H 0.82653 0.41316 0.06353 0.0
H616 H 0.8036 0.41681 0.042 0.0
H617 H 0.76244 0.37581 0.04144 0.0
H618 H 0.71407 0.37298 0.96525 0.0
H619 H 0.73527 0.3702 0.98862 0.0
C620 C 0.88565 0.48745 0.20851 0.0
C621 C 0.88415 0.46962 0.2119 0.0
C622 C 0.88667 0.4994 0.22211 0.0
C623 C 0.89589 0.50326 0.26925 0.0
H624 H 0.86975 0.54598 0.26504 0.0
C625 C 0.8833 0.549 0.32741 0.0
C626 C 0.8839 0.56697 0.32444 0.0
C627 C 0.8844 0.5373 0.3136 0.0
C628 C 0.87732 0.53423 0.26635 0.0
H629 H 0.88262 0.45041 0.23233 0.0
H630 H 0.88432 0.47124 0.25604 0.0
H631 H 0.86972 0.52528 0.24122 0.0
H632 H 0.88627 0.58666 0.30454 0.0
H633 H 0.88843 0.56624 0.28049 0.0
H634 H 0.90332 0.51218 0.29449 0.0
C635 C 0.88497 0.47598 0.24285 0.0
C636 C 0.87731 0.52234 0.25267 0.0
C637 C 0.88399 0.46402 0.22924 0.0
C638 C 0.88589 0.57292 0.30732 0.0
C639 C 0.88694 0.56121 0.29351 0.0
C640 C 0.89588 0.51516 0.28296 0.0
C641 C 0.88619 0.49385 0.23947 0.0
C642 C 0.88655 0.50666 0.25395 0.0
C643 C 0.88609 0.54325 0.29646 0.0
C644 C 0.88654 0.53077 0.2817 0.0
H645 H 0.88612 0.4922 0.19531 0.0
H646 H 0.88793 0.51302 0.21899 0.0
H647 H 0.90337 0.49146 0.2706 0.0
H648 H 0.88198 0.54396 0.34044 0.0
H649 H 0.88355 0.52357 0.31635 0.0
C650 C 0.81265 0.66483 0.47528 0.0
C651 C 0.82169 0.65036 0.46882 0.0
C652 C 0.7995 0.66284 0.48766 0.0
C653 C 0.78382 0.6324 0.52123 0.0
H654 H 0.74239 0.66099 0.52011 0.0
C655 C 0.73645 0.63575 0.57915 0.0
C656 C 0.71851 0.63616 0.57562 0.0
C657 C 0.74862 0.63743 0.56578 0.0
C658 C 0.7538 0.6528 0.52055 0.0
H659 H 0.82378 0.62239 0.47028 0.0
H660 H 0.80062 0.61889 0.4916 0.0
H661 H 0.76392 0.66356 0.49704 0.0
H662 H 0.69934 0.63865 0.55516 0.0
H663 H 0.72059 0.64154 0.5318 0.0
H664 H 0.7736 0.62144 0.54458 0.0
C665 C 0.80387 0.63182 0.48725 0.0
C666 C 0.76626 0.65441 0.50741 0.0
C667 C 0.81702 0.63381 0.47486 0.0
C668 C 0.71305 0.63848 0.55837 0.0
C669 C 0.72524 0.64014 0.54497 0.0
C670 C 0.77138 0.6308 0.53436 0.0
C671 C 0.79502 0.64632 0.49391 0.0
C672 C 0.78147 0.64428 0.50761 0.0
C673 C 0.74319 0.63954 0.5485 0.0
C674 C 0.75624 0.64103 0.53426 0.0
H675 H 0.81573 0.67775 0.47077 0.0
H676 H 0.79309 0.67431 0.49259 0.0
H677 H 0.79544 0.62452 0.52193 0.0
H678 H 0.74112 0.63431 0.59231 0.0
H679 H 0.76231 0.63726 0.56904 0.0
loop_
_geom_bond_atom_site_label_1
_geom_bond_atom_site_label_2
_geom_bond_distance
_geom_bond_site_symmetry_2
_ccdc_geom_bond_type
C0 C1 1.264 . S
C0 C5 1.479 . S
C0 C10 1.465 . S
C1 C0 1.264 . S
C1 C3 1.339 . S
C1 H28 0.931 . S
C2 C3 1.395 . S
C2 C4 1.320 . S
C3 C1 1.339 . S
C3 C2 1.395 . S
C3 H29 0.929 . S
C4 C2 1.320 . S
C4 C5 1.405 . S
C4 H30 0.930 . S
C5 C0 1.479 . S
C5 C4 1.405 . S
C5 H31 0.931 . S
U6 O7 2.454 . S
U6 O8 2.458 . S
U6 C9 2.984 . S
U6 C10 2.847 . S
U6 C23 2.882 . S
U6 O24 2.441 . S
U6 O25 2.420 . S
U6 O26 2.455 . S
U6 O27 2.449 . S
O7 U6 2.454 . S
O7 C9 1.353 . S
O8 U6 2.458 . S
O8 C9 1.286 . S
C9 U6 2.984 . S
C9 O7 1.353 . S
C9 O8 1.286 . S
C9 C11 1.363 . S
C10 C0 1.465 . S
C10 U6 2.847 . S
C10 O24 1.249 . S
C10 O25 1.202 . S
C11 C9 1.363 . S
C11 C13 1.408 . S
C11 C16 1.342 . S
C12 C13 1.310 . S
C12 C15 1.461 . S
C12 H32 0.932 . S
C13 C11 1.408 . S
C13 C12 1.310 . S
C13 H33 0.930 . S
C14 C15 1.474 . S
C14 C16 1.285 . S
C14 H34 0.929 . S
C15 C12 1.461 . S
C15 C14 1.474 . S
C16 C11 1.342 . S
C16 C14 1.285 . S
C16 H35 0.930 . S
C17 C20 1.424 . S
C17 C22 1.245 . S
C17 C23 1.428 . S
C18 C21 1.260 . S
C18 C22 1.477 . S
C18 H36 0.932 . S
C19 C20 1.384 . S
C19 C21 1.479 . S
C19 H37 0.929 . S
C20 C17 1.424 . S
C20 C19 1.384 . S
C20 H38 0.928 . S
C21 C18 1.260 . S
C21 C19 1.479 . S
C22 C17 1.245 . S
C22 C18 1.477 . S
C22 H39 0.932 . S
C23 U6 2.882 . S
C23 C17 1.428 . S
C23 O26 1.301 . S
C23 O27 1.282 . S
O24 U6 2.441 . S
O24 C10 1.249 . S
O25 U6 2.420 . S
O25 C10 1.202 . S
O26 U6 2.455 . S
O26 C23 1.301 . S
O27 U6 2.449 . S
O27 C23 1.282 . S
H28 C1 0.931 . S
H29 C3 0.929 . S
H30 C4 0.930 . S
H31 C5 0.931 . S
H32 C12 0.932 . S
H33 C13 0.930 . S
H34 C14 0.929 . S
H35 C16 0.930 . S
H36 C18 0.932 . S
H37 C19 0.929 . S
H38 C20 0.928 . S
H39 C22 0.932 . S
C40 C41 1.264 . S
C40 C45 1.479 . S
C40 C50 1.465 . S
C41 C40 1.264 . S
C41 C43 1.339 . S
C41 H68 0.931 . S
C42 C43 1.395 . S
C42 C44 1.320 . S
C43 C41 1.339 . S
C43 C42 1.395 . S
C43 H69 0.929 . S
C44 C42 1.320 . S
C44 C45 1.405 . S
C44 H70 0.930 . S
C45 C40 1.479 . S
C45 C44 1.405 . S
C45 H71 0.931 . S
U46 O47 2.454 . S
U46 O48 2.458 . S
U46 C49 2.984 . S
U46 C50 2.847 . S
U46 C63 2.882 . S
U46 O64 2.441 . S
U46 O65 2.420 . S
U46 O66 2.455 . S
U46 O67 2.449 . S
O47 U46 2.454 . S
O47 C49 1.353 . S
O48 U46 2.458 . S
O48 C49 1.286 . S
C49 U46 2.984 . S
C49 O47 1.353 . S
C49 O48 1.286 . S
C49 C51 1.363 . S
C50 C40 1.465 . S
C50 U46 2.847 . S
C50 O64 1.249 . S
C50 O65 1.202 . S
C51 C49 1.363 . S
C51 C53 1.408 . S
C51 C56 1.342 . S
C52 C53 1.310 . S
C52 C55 1.461 . S
C52 H72 0.932 . S
C53 C51 1.408 . S
C53 C52 1.310 . S
C53 H73 0.930 . S
C54 C55 1.474 . S
C54 C56 1.285 . S
C54 H74 0.929 . S
C55 C52 1.461 . S
C55 C54 1.474 . S
C56 C51 1.342 . S
C56 C54 1.285 . S
C56 H75 0.930 . S
C57 C60 1.424 . S
C57 C62 1.245 . S
C57 C63 1.428 . S
C58 C61 1.260 . S
C58 C62 1.477 . S
C58 H76 0.932 . S
C59 C60 1.384 . S
C59 C61 1.479 . S
C59 H77 0.929 . S
C60 C57 1.424 . S
C60 C59 1.384 . S
C60 H78 0.928 . S
C61 C58 1.260 . S
C61 C59 1.479 . S
C62 C57 1.245 . S
C62 C58 1.477 . S
C62 H79 0.932 . S
C63 U46 2.882 . S
C63 C57 1.428 . S
C63 O66 1.301 . S
C63 O67 1.282 . S
O64 U46 2.441 . S
O64 C50 1.249 . S
O65 U46 2.420 . S
O65 C50 1.202 . S
O66 U46 2.455 . S
O66 C63 1.301 . S
O67 U46 2.449 . S
O67 C63 1.282 . S
H68 C41 0.931 . S
H69 C43 0.929 . S
H70 C44 0.930 . S
H71 C45 0.931 . S
H72 C52 0.932 . S
H73 C53 0.930 . S
H74 C54 0.929 . S
H75 C56 0.930 . S
H76 C58 0.932 . S
H77 C59 0.929 . S
H78 C60 0.928 . S
H79 C62 0.932 . S
C80 C81 1.264 . S
C80 C85 1.479 . S
C80 C90 1.465 . S
C81 C80 1.264 . S
C81 C83 1.339 . S
C81 H108 0.931 . S
C82 C83 1.395 . S
C82 C84 1.320 . S
C83 C81 1.339 . S
C83 C82 1.395 . S
C83 H109 0.929 . S
C84 C82 1.320 . S
C84 C85 1.405 . S
C84 H110 0.930 . S
C85 C80 1.479 . S
C85 C84 1.405 . S
C85 H111 0.931 . S
U86 O87 2.454 . S
U86 O88 2.458 . S
U86 C89 2.984 . S
U86 C90 2.847 . S
U86 C103 2.882 . S
U86 O104 2.441 . S
U86 O105 2.420 . S
U86 O106 2.455 . S
U86 O107 2.449 . S
O87 U86 2.454 . S
O87 C89 1.353 . S
O88 U86 2.458 . S
O88 C89 1.286 . S
C89 U86 2.984 . S
C89 O87 1.353 . S
C89 O88 1.286 . S
C89 C91 1.363 . S
C90 C80 1.465 . S
C90 U86 2.847 . S
C90 O104 1.249 . S
C90 O105 1.202 . S
C91 C89 1.363 . S
C91 C93 1.408 . S
C91 C96 1.342 . S
C92 C93 1.310 . S
C92 C95 1.461 . S
C92 H112 0.932 . S
C93 C91 1.408 . S
C93 C92 1.310 . S
C93 H113 0.930 . S
C94 C95 1.474 . S
C94 C96 1.285 . S
C94 H114 0.929 . S
C95 C92 1.461 . S
C95 C94 1.474 . S
C96 C91 1.342 . S
C96 C94 1.285 . S
C96 H115 0.930 . S
C97 C100 1.424 . S
C97 C102 1.245 . S
C97 C103 1.428 . S
C98 C101 1.260 . S
C98 C102 1.477 . S
C98 H116 0.932 . S
C99 C100 1.384 . S
C99 C101 1.479 . S
C99 H117 0.929 . S
C100 C97 1.424 . S
C100 C99 1.384 . S
C100 H118 0.928 . S
C101 C98 1.260 . S
C101 C99 1.479 . S
C102 C97 1.245 . S
C102 C98 1.477 . S
C102 H119 0.932 . S
C103 U86 2.882 . S
C103 C97 1.428 . S
C103 O106 1.301 . S
C103 O107 1.282 . S
O104 U86 2.441 . S
O104 C90 1.249 . S
O105 U86 2.420 . S
O105 C90 1.202 . S
O106 U86 2.455 . S
O106 C103 1.301 . S
O107 U86 2.449 . S
O107 C103 1.282 . S
H108 C81 0.931 . S
H109 C83 0.929 . S
H110 C84 0.930 . S
H111 C85 0.931 . S
H112 C92 0.932 . S
H113 C93 0.930 . S
H114 C94 0.929 . S
H115 C96 0.930 . S
H116 C98 0.932 . S
H117 C99 0.929 . S
H118 C100 0.928 . S
H119 C102 0.932 . S
C120 C121 1.264 . S
C120 C125 1.479 . S
C120 C130 1.465 . S
C121 C120 1.264 . S
C121 C123 1.339 . S
C121 H148 0.931 . S
C122 C123 1.395 . S
C122 C124 1.320 . S
C123 C121 1.339 . S
C123 C122 1.395 . S
C123 H149 0.929 . S
C124 C122 1.320 . S
C124 C125 1.405 . S
C124 H150 0.930 . S
C125 C120 1.479 . S
C125 C124 1.405 . S
C125 H151 0.931 . S
U126 O127 2.454 . S
U126 O128 2.458 . S
U126 C129 2.984 . S
U126 C130 2.847 . S
U126 C143 2.882 . S
U126 O144 2.441 . S
U126 O145 2.420 . S
U126 O146 2.455 . S
U126 O147 2.449 . S
O127 U126 2.454 . S
O127 C129 1.353 . S
O128 U126 2.458 . S
O128 C129 1.286 . S
C129 U126 2.984 . S
C129 O127 1.353 . S
C129 O128 1.286 . S
C129 C131 1.363 . S
C130 C120 1.465 . S
C130 U126 2.847 . S
C130 O144 1.249 . S
C130 O145 1.202 . S
C131 C129 1.363 . S
C131 C133 1.408 . S
C131 C136 1.342 . S
C132 C133 1.310 . S
C132 C135 1.461 . S
C132 H152 0.932 . S
C133 C131 1.408 . S
C133 C132 1.310 . S
C133 H153 0.930 . S
C134 C135 1.474 . S
C134 C136 1.285 . S
C134 H154 0.929 . S
C135 C132 1.461 . S
C135 C134 1.474 . S
C136 C131 1.342 . S
C136 C134 1.285 . S
C136 H155 0.930 . S
C137 C140 1.424 . S
C137 C142 1.245 . S
C137 C143 1.428 . S
C138 C141 1.260 . S
C138 C142 1.477 . S
C138 H156 0.932 . S
C139 C140 1.384 . S
C139 C141 1.479 . S
C139 H157 0.929 . S
C140 C137 1.424 . S
C140 C139 1.384 . S
C140 H158 0.928 . S
C141 C138 1.260 . S
C141 C139 1.479 . S
C142 C137 1.245 . S
C142 C138 1.477 . S
C142 H159 0.932 . S
C143 U126 2.882 . S
C143 C137 1.428 . S
C143 O146 1.301 . S
C143 O147 1.282 . S
O144 U126 2.441 . S
O144 C130 1.249 . S
O145 U126 2.420 . S
O145 C130 1.202 . S
O146 U126 2.455 . S
O146 C143 1.301 . S
O147 U126 2.449 . S
O147 C143 1.282 . S
H148 C121 0.931 . S
H149 C123 0.929 . S
H150 C124 0.930 . S
H151 C125 0.931 . S
H152 C132 0.932 . S
H153 C133 0.930 . S
H154 C134 0.929 . S
H155 C136 0.930 . S
H156 C138 0.932 . S
H157 C139 0.929 . S
H158 C140 0.928 . S
H159 C142 0.932 . S
C160 C161 1.264 . S
C160 C165 1.479 . S
C160 C170 1.465 . S
C161 C160 1.264 . S
C161 C163 1.339 . S
C161 H188 0.931 . S
C162 C163 1.395 . S
C162 C164 1.320 . S
C163 C161 1.339 . S
C163 C162 1.395 . S
C163 H189 0.929 . S
C164 C162 1.320 . S
C164 C165 1.405 . S
C164 H190 0.930 . S
C165 C160 1.479 . S
C165 C164 1.405 . S
C165 H191 0.931 . S
U166 O167 2.454 . S
U166 O168 2.458 . S
U166 C169 2.984 . S
U166 C170 2.847 . S
U166 C183 2.882 . S
U166 O184 2.441 . S
U166 O185 2.420 . S
U166 O186 2.455 . S
U166 O187 2.449 . S
O167 U166 2.454 . S
O167 C169 1.353 . S
O168 U166 2.458 . S
O168 C169 1.286 . S
C169 U166 2.984 . S
C169 O167 1.353 . S
C169 O168 1.286 . S
C169 C171 1.363 . S
C170 C160 1.465 . S
C170 U166 2.847 . S
C170 O184 1.249 . S
C170 O185 1.202 . S
C171 C169 1.363 . S
C171 C173 1.408 . S
C171 C176 1.342 . S
C172 C173 1.310 . S
C172 C175 1.461 . S
C172 H192 0.932 . S
C173 C171 1.408 . S
C173 C172 1.310 . S
C173 H193 0.930 . S
C174 C175 1.474 . S
C174 C176 1.285 . S
C174 H194 0.929 . S
C175 C172 1.461 . S
C175 C174 1.474 . S
C176 C171 1.342 . S
C176 C174 1.285 . S
C176 H195 0.930 . S
C177 C180 1.424 . S
C177 C182 1.245 . S
C177 C183 1.428 . S
C178 C181 1.260 . S
C178 C182 1.477 . S
C178 H196 0.932 . S
C179 C180 1.384 . S
C179 C181 1.479 . S
C179 H197 0.929 . S
C180 C177 1.424 . S
C180 C179 1.384 . S
C180 H198 0.928 . S
C181 C178 1.260 . S
C181 C179 1.479 . S
C182 C177 1.245 . S
C182 C178 1.477 . S
C182 H199 0.932 . S
C183 U166 2.882 . S
C183 C177 1.428 . S
C183 O186 1.301 . S
C183 O187 1.282 . S
O184 U166 2.441 . S
O184 C170 1.249 . S
O185 U166 2.420 . S
O185 C170 1.202 . S
O186 U166 2.455 . S
O186 C183 1.301 . S
O187 U166 2.449 . S
O187 C183 1.282 . S
H188 C161 0.931 . S
H189 C163 0.929 . S
H190 C164 0.930 . S
H191 C165 0.931 . S
H192 C172 0.932 . S
H193 C173 0.930 . S
H194 C174 0.929 . S
H195 C176 0.930 . S
H196 C178 0.932 . S
H197 C179 0.929 . S
H198 C180 0.928 . S
H199 C182 0.932 . S
C200 C201 1.264 . S
C200 C205 1.479 . S
C200 C210 1.465 . S
C201 C200 1.264 . S
C201 C203 1.339 . S
C201 H228 0.931 . S
C202 C203 1.395 . S
C202 C204 1.320 . S
C203 C201 1.339 . S
C203 C202 1.395 . S
C203 H229 0.929 . S
C204 C202 1.320 . S
C204 C205 1.405 . S
C204 H230 0.930 . S
C205 C200 1.479 . S
C205 C204 1.405 . S
C205 H231 0.931 . S
U206 O207 2.454 . S
U206 O208 2.458 . S
U206 C209 2.984 . S
U206 C210 2.847 . S
U206 C223 2.882 . S
U206 O224 2.441 . S
U206 O225 2.420 . S
U206 O226 2.455 . S
U206 O227 2.449 . S
O207 U206 2.454 . S
O207 C209 1.353 . S
O208 U206 2.458 . S
O208 C209 1.286 . S
C209 U206 2.984 . S
C209 O207 1.353 . S
C209 O208 1.286 . S
C209 C211 1.363 . S
C210 C200 1.465 . S
C210 U206 2.847 . S
C210 O224 1.249 . S
C210 O225 1.202 . S
C211 C209 1.363 . S
C211 C213 1.408 . S
C211 C216 1.342 . S
C212 C213 1.310 . S
C212 C215 1.461 . S
C212 H232 0.932 . S
C213 C211 1.408 . S
C213 C212 1.310 . S
C213 H233 0.930 . S
C214 C215 1.474 . S
C214 C216 1.285 . S
C214 H234 0.929 . S
C215 C212 1.461 . S
C215 C214 1.474 . S
C216 C211 1.342 . S
C216 C214 1.285 . S
C216 H235 0.930 . S
C217 C220 1.424 . S
C217 C222 1.245 . S
C217 C223 1.428 . S
C218 C221 1.260 . S
C218 C222 1.477 . S
C218 H236 0.932 . S
C219 C220 1.384 . S
C219 C221 1.479 . S
C219 H237 0.929 . S
C220 C217 1.424 . S
C220 C219 1.384 . S
C220 H238 0.928 . S
C221 C218 1.260 . S
C221 C219 1.479 . S
C222 C217 1.245 . S
C222 C218 1.477 . S
C222 H239 0.932 . S
C223 U206 2.882 . S
C223 C217 1.428 . S
C223 O226 1.301 . S
C223 O227 1.282 . S
O224 U206 2.441 . S
O224 C210 1.249 . S
O225 U206 2.420 . S
O225 C210 1.202 . S
O226 U206 2.455 . S
O226 C223 1.301 . S
O227 U206 2.449 . S
O227 C223 1.282 . S
H228 C201 0.931 . S
H229 C203 0.929 . S
H230 C204 0.930 . S
H231 C205 0.931 . S
H232 C212 0.932 . S
H233 C213 0.930 . S
H234 C214 0.929 . S
H235 C216 0.930 . S
H236 C218 0.932 . S
H237 C219 0.929 . S
H238 C220 0.928 . S
H239 C222 0.932 . S
C240 C241 1.264 . S
C240 C245 1.479 . S
C240 C250 1.465 . S
C241 C240 1.264 . S
C241 C243 1.339 . S
C241 H268 0.931 . S
C242 C243 1.395 . S
C242 C244 1.320 . S
C243 C241 1.339 . S
C243 C242 1.395 . S
C243 H269 0.929 . S
C244 C242 1.320 . S
C244 C245 1.405 . S
C244 H270 0.930 . S
C245 C240 1.479 . S
C245 C244 1.405 . S
C245 H271 0.931 . S
U246 O247 2.454 . S
U246 O248 2.458 . S
U246 C249 2.984 . S
U246 C250 2.847 . S
U246 C263 2.882 . S
U246 O264 2.441 . S
U246 O265 2.420 . S
U246 O266 2.455 . S
U246 O267 2.449 . S
O247 U246 2.454 . S
O247 C249 1.353 . S
O248 U246 2.458 . S
O248 C249 1.286 . S
C249 U246 2.984 . S
C249 O247 1.353 . S
C249 O248 1.286 . S
C249 C251 1.363 . S
C250 C240 1.465 . S
C250 U246 2.847 . S
C250 O264 1.249 . S
C250 O265 1.202 . S
C251 C249 1.363 . S
C251 C253 1.408 . S
C251 C256 1.342 . S
C252 C253 1.310 . S
C252 C255 1.461 . S
C252 H272 0.932 . S
C253 C251 1.408 . S
C253 C252 1.310 . S
C253 H273 0.930 . S
C254 C255 1.474 . S
C254 C256 1.285 . S
C254 H274 0.929 . S
C255 C252 1.461 . S
C255 C254 1.474 . S
C256 C251 1.342 . S
C256 C254 1.285 . S
C256 H275 0.930 . S
C257 C260 1.424 . S
C257 C262 1.245 . S
C257 C263 1.428 . S
C258 C261 1.260 . S
C258 C262 1.477 . S
C258 H276 0.932 . S
C259 C260 1.384 . S
C259 C261 1.479 . S
C259 H277 0.929 . S
C260 C257 1.424 . S
C260 C259 1.384 . S
C260 H278 0.928 . S
C261 C258 1.260 . S
C261 C259 1.479 . S
C262 C257 1.245 . S
C262 C258 1.477 . S
C262 H279 0.932 . S
C263 U246 2.882 . S
C263 C257 1.428 . S
C263 O266 1.301 . S
C263 O267 1.282 . S
O264 U246 2.441 . S
O264 C250 1.249 . S
O265 U246 2.420 . S
O265 C250 1.202 . S
O266 U246 2.455 . S
O266 C263 1.301 . S
O267 U246 2.449 . S
O267 C263 1.282 . S
H268 C241 0.931 . S
H269 C243 0.929 . S
H270 C244 0.930 . S
H271 C245 0.931 . S
H272 C252 0.932 . S
H273 C253 0.930 . S
H274 C254 0.929 . S
H275 C256 0.930 . S
H276 C258 0.932 . S
H277 C259 0.929 . S
H278 C260 0.928 . S
H279 C262 0.932 . S
C280 C281 1.264 . S
C280 C285 1.479 . S
C280 C290 1.465 . S
C281 C280 1.264 . S
C281 C283 1.339 . S
C281 H308 0.931 . S
C282 C283 1.395 . S
C282 C284 1.320 . S
C283 C281 1.339 . S
C283 C282 1.395 . S
C283 H309 0.929 . S
C284 C282 1.320 . S
C284 C285 1.405 . S
C284 H310 0.930 . S
C285 C280 1.479 . S
C285 C284 1.405 . S
C285 H311 0.931 . S
U286 O287 2.454 . S
U286 O288 2.458 . S
U286 C289 2.984 . S
U286 C290 2.847 . S
U286 C303 2.882 . S
U286 O304 2.441 . S
U286 O305 2.420 . S
U286 O306 2.455 . S
U286 O307 2.449 . S
O287 U286 2.454 . S
O287 C289 1.353 . S
O288 U286 2.458 . S
O288 C289 1.286 . S
C289 U286 2.984 . S
C289 O287 1.353 . S
C289 O288 1.286 . S
C289 C291 1.363 . S
C290 C280 1.465 . S
C290 U286 2.847 . S
C290 O304 1.249 . S
C290 O305 1.202 . S
C291 C289 1.363 . S
C291 C293 1.408 . S
C291 C296 1.342 . S
C292 C293 1.310 . S
C292 C295 1.461 . S
C292 H312 0.932 . S
C293 C291 1.408 . S
C293 C292 1.310 . S
C293 H313 0.930 . S
C294 C295 1.474 . S
C294 C296 1.285 . S
C294 H314 0.929 . S
C295 C292 1.461 . S
C295 C294 1.474 . S
C296 C291 1.342 . S
C296 C294 1.285 . S
C296 H315 0.930 . S
C297 C300 1.424 . S
C297 C302 1.245 . S
C297 C303 1.428 . S
C298 C301 1.260 . S
C298 C302 1.477 . S
C298 H316 0.932 . S
C299 C300 1.384 . S
C299 C301 1.479 . S
C299 H317 0.929 . S
C300 C297 1.424 . S
C300 C299 1.384 . S
C300 H318 0.928 . S
C301 C298 1.260 . S
C301 C299 1.479 . S
C302 C297 1.245 . S
C302 C298 1.477 . S
C302 H319 0.932 . S
C303 U286 2.882 . S
C303 C297 1.428 . S
C303 O306 1.301 . S
C303 O307 1.282 . S
O304 U286 2.441 . S
O304 C290 1.249 . S
O305 U286 2.420 . S
O305 C290 1.202 . S
O306 U286 2.455 . S
O306 C303 1.301 . S
O307 U286 2.449 . S
O307 C303 1.282 . S
H308 C281 0.931 . S
H309 C283 0.929 . S
H310 C284 0.930 . S
H311 C285 0.931 . S
H312 C292 0.932 . S
H313 C293 0.930 . S
H314 C294 0.929 . S
H315 C296 0.930 . S
H316 C298 0.932 . S
H317 C299 0.929 . S
H318 C300 0.928 . S
H319 C302 0.932 . S
C320 C321 1.349 . S
C320 C322 1.327 . S
C320 H345 0.950 . S
C321 C320 1.349 . S
C321 C337 1.349 . S
C322 C320 1.327 . S
C322 C341 1.429 . S
C322 H346 0.950 . S
C323 C340 1.574 . S
C323 C342 1.368 1_545 S
C323 H347 0.949 . S
H324 C328 0.949 . S
C325 C326 1.349 . S
C325 C327 1.327 . S
C325 H348 0.950 . S
C326 C325 1.349 . S
C326 C338 1.349 . S
C327 C325 1.327 . S
C327 C343 1.429 . S
C327 H349 0.950 . S
C328 H324 0.949 . S
C328 C336 1.574 . S
C328 C344 1.368 1_565 S
H329 C337 0.950 . S
H330 C335 0.950 . S
H331 C336 0.949 . S
H332 C338 0.950 . S
H333 C339 0.950 . S
H334 C340 0.949 . S
C335 H330 0.950 . S
C335 C337 1.327 . S
C335 C341 1.429 . S
C336 C328 1.574 . S
C336 H331 0.949 . S
C336 C342 1.368 . S
C337 C321 1.349 . S
C337 H329 0.950 . S
C337 C335 1.327 . S
C338 C326 1.349 . S
C338 H332 0.950 . S
C338 C339 1.327 . S
C339 H333 0.950 . S
C339 C338 1.327 . S
C339 C343 1.429 . S
C340 C323 1.574 . S
C340 H334 0.949 . S
C340 C344 1.368 . S
C341 C322 1.429 . S
C341 C335 1.429 . S
C341 C342 1.523 . S
C342 C323 1.368 1_565 S
C342 C336 1.368 . S
C342 C341 1.523 . S
C343 C327 1.429 . S
C343 C339 1.429 . S
C343 C344 1.523 . S
C344 C328 1.368 1_545 S
C344 C340 1.368 . S
C344 C343 1.523 . S
H345 C320 0.950 . S
H346 C322 0.950 . S
H347 C323 0.949 . S
H348 C325 0.950 . S
H349 C327 0.950 . S
C350 C351 1.349 . S
C350 C352 1.327 . S
C350 H375 0.950 . S
C351 C350 1.349 . S
C351 C367 1.349 . S
C352 C350 1.327 . S
C352 C371 1.429 . S
C352 H376 0.950 . S
C353 C370 1.574 . S
C353 C372 1.368 . S
C353 H377 0.949 . S
H354 C358 0.949 . S
C355 C356 1.349 . S
C355 C357 1.327 . S
C355 H378 0.950 . S
C356 C355 1.349 . S
C356 C368 1.349 . S
C357 C355 1.327 . S
C357 C373 1.429 . S
C357 H379 0.950 . S
C358 H354 0.949 . S
C358 C366 1.574 . S
C358 C374 1.368 . S
H359 C367 0.950 . S
H360 C365 0.950 . S
H361 C366 0.949 . S
H362 C368 0.950 . S
H363 C369 0.950 . S
H364 C370 0.949 . S
C365 H360 0.950 . S
C365 C367 1.327 . S
C365 C371 1.429 . S
C366 C358 1.574 . S
C366 H361 0.949 . S
C366 C372 1.368 . S
C367 C351 1.349 . S
C367 H359 0.950 . S
C367 C365 1.327 . S
C368 C356 1.349 . S
C368 H362 0.950 . S
C368 C369 1.327 . S
C369 H363 0.950 . S
C369 C368 1.327 . S
C369 C373 1.429 . S
C370 C353 1.574 . S
C370 H364 0.949 . S
C370 C374 1.368 . S
C371 C352 1.429 . S
C371 C365 1.429 . S
C371 C372 1.523 . S
C372 C353 1.368 . S
C372 C366 1.368 . S
C372 C371 1.523 . S
C373 C357 1.429 . S
C373 C369 1.429 . S
C373 C374 1.523 . S
C374 C358 1.368 . S
C374 C370 1.368 . S
C374 C373 1.523 . S
H375 C350 0.950 . S
H376 C352 0.950 . S
H377 C353 0.949 . S
H378 C355 0.950 . S
H379 C357 0.950 . S
C380 C381 1.349 . S
C380 C382 1.327 . S
C380 H405 0.950 . S
C381 C380 1.349 . S
C381 C397 1.349 . S
C382 C380 1.327 . S
C382 C401 1.429 . S
C382 H406 0.950 . S
C383 C400 1.574 . S
C383 C402 1.368 1_545 S
C383 H407 0.949 . S
H384 C388 0.949 . S
C385 C386 1.349 . S
C385 C387 1.327 . S
C385 H408 0.950 . S
C386 C385 1.349 . S
C386 C398 1.349 . S
C387 C385 1.327 . S
C387 C403 1.429 . S
C387 H409 0.950 . S
C388 H384 0.949 . S
C388 C396 1.574 . S
C388 C404 1.368 1_565 S
H389 C397 0.950 . S
H390 C395 0.950 . S
H391 C396 0.949 . S
H392 C398 0.950 . S
H393 C399 0.950 . S
H394 C400 0.949 . S
C395 H390 0.950 . S
C395 C397 1.327 . S
C395 C401 1.429 . S
C396 C388 1.574 . S
C396 H391 0.949 . S
C396 C402 1.368 . S
C397 C381 1.349 . S
C397 H389 0.950 . S
C397 C395 1.327 . S
C398 C386 1.349 . S
C398 H392 0.950 . S
C398 C399 1.327 . S
C399 H393 0.950 . S
C399 C398 1.327 . S
C399 C403 1.429 . S
C400 C383 1.574 . S
C400 H394 0.949 . S
C400 C404 1.368 . S
C401 C382 1.429 . S
C401 C395 1.429 . S
C401 C402 1.523 . S
C402 C383 1.368 1_565 S
C402 C396 1.368 . S
C402 C401 1.523 . S
C403 C387 1.429 . S
C403 C399 1.429 . S
C403 C404 1.523 . S
C404 C388 1.368 1_545 S
C404 C400 1.368 . S
C404 C403 1.523 . S
H405 C380 0.950 . S
H406 C382 0.950 . S
H407 C383 0.949 . S
H408 C385 0.950 . S
H409 C387 0.950 . S
C410 C411 1.349 . S
C410 C412 1.327 . S
C410 H435 0.950 . S
C411 C410 1.349 . S
C411 C427 1.349 . S
C412 C410 1.327 . S
C412 C431 1.429 . S
C412 H436 0.950 . S
C413 C430 1.574 1_554 S
C413 C432 1.368 . S
C413 H437 0.949 . S
H414 C418 0.949 . S
C415 C416 1.349 . S
C415 C417 1.327 . S
C415 H438 0.950 . S
C416 C415 1.349 . S
C416 C428 1.349 . S
C417 C415 1.327 . S
C417 C433 1.429 . S
C417 H439 0.950 . S
C418 H414 0.949 . S
C418 C426 1.574 . S
C418 C434 1.368 1_554 S
H419 C427 0.950 . S
H420 C425 0.950 . S
H421 C426 0.949 . S
H422 C428 0.950 . S
H423 C429 0.950 . S
H424 C430 0.949 . S
C425 H420 0.950 . S
C425 C427 1.327 . S
C425 C431 1.429 . S
C426 C418 1.574 . S
C426 H421 0.949 . S
C426 C432 1.368 . S
C427 C411 1.349 . S
C427 H419 0.950 . S
C427 C425 1.327 . S
C428 C416 1.349 . S
C428 H422 0.950 . S
C428 C429 1.327 . S
C429 H423 0.950 . S
C429 C428 1.327 . S
C429 C433 1.429 . S
C430 C413 1.574 1_556 S
C430 H424 0.949 . S
C430 C434 1.368 . S
C431 C412 1.429 . S
C431 C425 1.429 . S
C431 C432 1.523 . S
C432 C413 1.368 . S
C432 C426 1.368 . S
C432 C431 1.523 . S
C433 C417 1.429 . S
C433 C429 1.429 . S
C433 C434 1.523 . S
C434 C418 1.368 1_556 S
C434 C430 1.368 . S
C434 C433 1.523 . S
H435 C410 0.950 . S
H436 C412 0.950 . S
H437 C413 0.949 . S
H438 C415 0.950 . S
H439 C417 0.950 . S
C440 C441 1.349 . S
C440 C442 1.327 . S
C440 H465 0.950 . S
C441 C440 1.349 . S
C441 C457 1.349 . S
C442 C440 1.327 . S
C442 C461 1.429 . S
C442 H466 0.950 . S
C443 C460 1.574 1_655 S
C443 C462 1.368 . S
C443 H467 0.949 . S
H444 C448 0.949 . S
C445 C446 1.349 . S
C445 C447 1.327 . S
C445 H468 0.950 . S
C446 C445 1.349 . S
C446 C458 1.349 . S
C447 C445 1.327 . S
C447 C463 1.429 . S
C447 H469 0.950 . S
C448 H444 0.949 . S
C448 C456 1.574 1_455 S
C448 C464 1.368 . S
H449 C457 0.950 . S
H450 C455 0.950 . S
H451 C456 0.949 . S
H452 C458 0.950 . S
H453 C459 0.950 . S
H454 C460 0.949 . S
C455 H450 0.950 . S
C455 C457 1.327 . S
C455 C461 1.429 . S
C456 C448 1.574 1_655 S
C456 H451 0.949 . S
C456 C462 1.368 . S
C457 C441 1.349 . S
C457 H449 0.950 . S
C457 C455 1.327 . S
C458 C446 1.349 . S
C458 H452 0.950 . S
C458 C459 1.327 . S
C459 H453 0.950 . S
C459 C458 1.327 . S
C459 C463 1.429 . S
C460 C443 1.574 1_455 S
C460 H454 0.949 . S
C460 C464 1.368 . S
C461 C442 1.429 . S
C461 C455 1.429 . S
C461 C462 1.523 . S
C462 C443 1.368 . S
C462 C456 1.368 . S
C462 C461 1.523 . S
C463 C447 1.429 . S
C463 C459 1.429 . S
C463 C464 1.523 . S
C464 C448 1.368 . S
C464 C460 1.368 . S
C464 C463 1.523 . S
H465 C440 0.950 . S
H466 C442 0.950 . S
H467 C443 0.949 . S
H468 C445 0.950 . S
H469 C447 0.950 . S
C470 C471 1.349 . S
C470 C472 1.327 . S
C470 H495 0.950 . S
C471 C470 1.349 . S
C471 C487 1.349 . S
C472 C470 1.327 . S
C472 C491 1.429 . S
C472 H496 0.950 . S
C473 C490 1.574 . S
C473 C492 1.368 . S
C473 H497 0.949 . S
H474 C478 0.949 . S
C475 C476 1.349 . S
C475 C477 1.327 . S
C475 H498 0.950 . S
C476 C475 1.349 . S
C476 C488 1.349 . S
C477 C475 1.327 . S
C477 C493 1.429 . S
C477 H499 0.950 . S
C478 H474 0.949 . S
C478 C486 1.574 . S
C478 C494 1.368 . S
H479 C487 0.950 . S
H480 C485 0.950 . S
H481 C486 0.949 . S
H482 C488 0.950 . S
H483 C489 0.950 . S
H484 C490 0.949 . S
C485 H480 0.950 . S
C485 C487 1.327 . S
C485 C491 1.429 . S
C486 C478 1.574 . S
C486 H481 0.949 . S
C486 C492 1.368 . S
C487 C471 1.349 . S
C487 H479 0.950 . S
C487 C485 1.327 . S
C488 C476 1.349 . S
C488 H482 0.950 . S
C488 C489 1.327 . S
C489 H483 0.950 . S
C489 C488 1.327 . S
C489 C493 1.429 . S
C490 C473 1.574 . S
C490 H484 0.949 . S
C490 C494 1.368 . S
C491 C472 1.429 . S
C491 C485 1.429 . S
C491 C492 1.523 . S
C492 C473 1.368 . S
C492 C486 1.368 . S
C492 C491 1.523 . S
C493 C477 1.429 . S
C493 C489 1.429 . S
C493 C494 1.523 . S
C494 C478 1.368 . S
C494 C490 1.368 . S
C494 C493 1.523 . S
H495 C470 0.950 . S
H496 C472 0.950 . S
H497 C473 0.949 . S
H498 C475 0.950 . S
H499 C477 0.950 . S
C500 C501 1.349 . S
C500 C502 1.327 . S
C500 H525 0.950 . S
C501 C500 1.349 . S
C501 C517 1.349 . S
C502 C500 1.327 . S
C502 C521 1.429 . S
C502 H526 0.950 . S
C503 C520 1.548 1_455 S
C503 C522 1.368 . S
C503 H527 0.949 . S
H504 C508 0.949 . S
C505 C506 1.349 . S
C505 C507 1.327 . S
C505 H528 0.950 . S
C506 C505 1.349 . S
C506 C518 1.349 . S
C507 C505 1.327 . S
C507 C523 1.429 . S
C507 H529 0.950 . S
C508 H504 0.949 . S
C508 C516 1.586 . S
C508 C524 1.368 . S
H509 C517 0.950 . S
H510 C515 0.950 . S
H511 C516 0.949 1_455 S
H512 C518 0.950 . S
H513 C519 0.950 . S
H514 C520 0.949 . S
C515 H510 0.950 . S
C515 C517 1.327 . S
C515 C521 1.429 . S
C516 C508 1.586 . S
C516 H511 0.949 1_655 S
C516 C522 1.356 1_655 S
C517 C501 1.349 . S
C517 H509 0.950 . S
C517 C515 1.327 . S
C518 C506 1.349 . S
C518 H512 0.950 . S
C518 C519 1.327 . S
C519 H513 0.950 . S
C519 C518 1.327 . S
C519 C523 1.429 . S
C520 C503 1.548 1_655 S
C520 H514 0.949 . S
C520 C524 1.393 . S
C521 C502 1.429 . S
C521 C515 1.429 . S
C521 C522 1.523 . S
C522 C503 1.368 . S
C522 C516 1.356 1_455 S
C522 C521 1.523 . S
C523 C507 1.429 . S
C523 C519 1.429 . S
C523 C524 1.523 . S
C524 C508 1.368 . S
C524 C520 1.393 . S
C524 C523 1.523 . S
H525 C500 0.950 . S
H526 C502 0.950 . S
H527 C503 0.949 . S
H528 C505 0.950 . S
H529 C507 0.950 . S
C530 C531 1.349 . S
C530 C532 1.327 . S
C530 H555 0.950 . S
C531 C530 1.349 . S
C531 C547 1.349 . S
C532 C530 1.327 . S
C532 C551 1.429 . S
C532 H556 0.950 . S
C533 C550 1.574 . S
C533 C552 1.368 . S
C533 H557 0.949 . S
H534 C538 0.949 . S
C535 C536 1.349 . S
C535 C537 1.327 . S
C535 H558 0.950 . S
C536 C535 1.349 . S
C536 C548 1.349 . S
C537 C535 1.327 . S
C537 C553 1.429 . S
C537 H559 0.950 . S
C538 H534 0.949 . S
C538 C546 1.574 . S
C538 C554 1.368 . S
H539 C547 0.950 . S
H540 C545 0.950 . S
H541 C546 0.949 . S
H542 C548 0.950 . S
H543 C549 0.950 . S
H544 C550 0.949 . S
C545 H540 0.950 . S
C545 C547 1.327 . S
C545 C551 1.429 . S
C546 C538 1.574 . S
C546 H541 0.949 . S
C546 C552 1.368 . S
C547 C531 1.349 . S
C547 H539 0.950 . S
C547 C545 1.327 . S
C548 C536 1.349 . S
C548 H542 0.950 . S
C548 C549 1.327 . S
C549 H543 0.950 . S
C549 C548 1.327 . S
C549 C553 1.429 . S
C550 C533 1.574 . S
C550 H544 0.949 . S
C550 C554 1.368 . S
C551 C532 1.429 . S
C551 C545 1.429 . S
C551 C552 1.523 . S
C552 C533 1.368 . S
C552 C546 1.368 . S
C552 C551 1.523 . S
C553 C537 1.429 . S
C553 C549 1.429 . S
C553 C554 1.523 . S
C554 C538 1.368 . S
C554 C550 1.368 . S
C554 C553 1.523 . S
H555 C530 0.950 . S
H556 C532 0.950 . S
H557 C533 0.949 . S
H558 C535 0.950 . S
H559 C537 0.950 . S
C560 C561 1.349 . S
C560 C562 1.327 . S
C560 H585 0.950 . S
C561 C560 1.349 . S
C561 C577 1.349 . S
C562 C560 1.327 . S
C562 C581 1.429 . S
C562 H586 0.950 . S
C563 C580 1.574 . S
C563 C582 1.368 . S
C563 H587 0.949 . S
H564 C568 0.949 . S
C565 C566 1.349 . S
C565 C567 1.327 . S
C565 H588 0.950 . S
C566 C565 1.349 . S
C566 C578 1.349 . S
C567 C565 1.327 . S
C567 C583 1.429 . S
C567 H589 0.950 . S
C568 H564 0.949 . S
C568 C576 1.574 . S
C568 C584 1.368 . S
H569 C577 0.950 . S
H570 C575 0.950 . S
H571 C576 0.949 . S
H572 C578 0.950 . S
H573 C579 0.950 . S
H574 C580 0.949 . S
C575 H570 0.950 . S
C575 C577 1.327 . S
C575 C581 1.429 . S
C576 C568 1.574 . S
C576 H571 0.949 . S
C576 C582 1.368 . S
C577 C561 1.349 . S
C577 H569 0.950 . S
C577 C575 1.327 . S
C578 C566 1.349 . S
C578 H572 0.950 . S
C578 C579 1.327 . S
C579 H573 0.950 . S
C579 C578 1.327 . S
C579 C583 1.429 . S
C580 C563 1.574 . S
C580 H574 0.949 . S
C580 C584 1.368 . S
C581 C562 1.429 . S
C581 C575 1.429 . S
C581 C582 1.523 . S
C582 C563 1.368 . S
C582 C576 1.368 . S
C582 C581 1.523 . S
C583 C567 1.429 . S
C583 C579 1.429 . S
C583 C584 1.523 . S
C584 C568 1.368 . S
C584 C580 1.368 . S
C584 C583 1.523 . S
H585 C560 0.950 . S
H586 C562 0.950 . S
H587 C563 0.949 . S
H588 C565 0.950 . S
H589 C567 0.950 . S
C590 C591 1.349 . S
C590 C592 1.327 . S
C590 H615 0.950 . S
C591 C590 1.349 . S
C591 C607 1.349 . S
C592 C590 1.327 . S
C592 C611 1.429 . S
C592 H616 0.950 . S
C593 C610 1.574 1_554 S
C593 C612 1.368 . S
C593 H617 0.949 . S
H594 C598 0.949 . S
C595 C596 1.349 . S
C595 C597 1.327 . S
C595 H618 0.950 . S
C596 C595 1.349 . S
C596 C608 1.349 . S
C597 C595 1.327 . S
C597 C613 1.429 . S
C597 H619 0.950 . S
C598 H594 0.949 . S
C598 C606 1.574 . S
C598 C614 1.368 . S
H599 C607 0.950 . S
H600 C605 0.950 . S
H601 C606 0.949 . S
H602 C608 0.950 . S
H603 C609 0.950 . S
H604 C610 0.949 . S
C605 H600 0.950 . S
C605 C607 1.327 . S
C605 C611 1.429 . S
C606 C598 1.574 . S
C606 H601 0.949 . S
C606 C612 1.368 1_556 S
C607 C591 1.349 . S
C607 H599 0.950 . S
C607 C605 1.327 . S
C608 C596 1.349 . S
C608 H602 0.950 . S
C608 C609 1.327 . S
C609 H603 0.950 . S
C609 C608 1.327 . S
C609 C613 1.429 . S
C610 C593 1.574 1_556 S
C610 H604 0.949 . S
C610 C614 1.368 . S
C611 C592 1.429 . S
C611 C605 1.429 . S
C611 C612 1.523 . S
C612 C593 1.368 . S
C612 C606 1.368 1_554 S
C612 C611 1.523 . S
C613 C597 1.429 . S
C613 C609 1.429 . S
C613 C614 1.523 . S
C614 C598 1.368 . S
C614 C610 1.368 . S
C614 C613 1.523 . S
H615 C590 0.950 . S
H616 C592 0.950 . S
H617 C593 0.949 . S
H618 C595 0.950 . S
H619 C597 0.950 . S
C620 C621 1.349 . S
C620 C622 1.327 . S
C620 H645 0.950 . S
C621 C620 1.349 . S
C621 C637 1.349 . S
C622 C620 1.327 . S
C622 C641 1.429 . S
C622 H646 0.950 . S
C623 C640 1.574 . S
C623 C642 1.368 . S
C623 H647 0.949 . S
H624 C628 0.949 . S
C625 C626 1.349 . S
C625 C627 1.327 . S
C625 H648 0.950 . S
C626 C625 1.349 . S
C626 C638 1.349 . S
C627 C625 1.327 . S
C627 C643 1.429 . S
C627 H649 0.950 . S
C628 H624 0.949 . S
C628 C636 1.574 . S
C628 C644 1.368 . S
H629 C637 0.950 . S
H630 C635 0.950 . S
H631 C636 0.949 . S
H632 C638 0.950 . S
H633 C639 0.950 . S
H634 C640 0.949 . S
C635 H630 0.950 . S
C635 C637 1.327 . S
C635 C641 1.429 . S
C636 C628 1.574 . S
C636 H631 0.949 . S
C636 C642 1.368 . S
C637 C621 1.349 . S
C637 H629 0.950 . S
C637 C635 1.327 . S
C638 C626 1.349 . S
C638 H632 0.950 . S
C638 C639 1.327 . S
C639 H633 0.950 . S
C639 C638 1.327 . S
C639 C643 1.429 . S
C640 C623 1.574 . S
C640 H634 0.949 . S
C640 C644 1.368 . S
C641 C622 1.429 . S
C641 C635 1.429 . S
C641 C642 1.523 . S
C642 C623 1.368 . S
C642 C636 1.368 . S
C642 C641 1.523 . S
C643 C627 1.429 . S
C643 C639 1.429 . S
C643 C644 1.523 . S
C644 C628 1.368 . S
C644 C640 1.368 . S
C644 C643 1.523 . S
H645 C620 0.950 . S
H646 C622 0.950 . S
H647 C623 0.949 . S
H648 C625 0.950 . S
H649 C627 0.950 . S
C650 C651 1.349 . S
C650 C652 1.327 . S
C650 H675 0.950 . S
C651 C650 1.349 . S
C651 C667 1.349 . S
C652 C650 1.327 . S
C652 C671 1.429 . S
C652 H676 0.950 . S
C653 C670 1.574 . S
C653 C672 1.368 . S
C653 H677 0.949 . S
H654 C658 0.949 . S
C655 C656 1.349 . S
C655 C657 1.327 . S
C655 H678 0.950 . S
C656 C655 1.349 . S
C656 C668 1.349 . S
C657 C655 1.327 . S
C657 C673 1.429 . S
C657 H679 0.950 . S
C658 H654 0.949 . S
C658 C666 1.574 . S
C658 C674 1.368 . S
H659 C667 0.950 . S
H660 C665 0.950 . S
H661 C666 0.949 . S
H662 C668 0.950 . S
H663 C669 0.950 . S
H664 C670 0.949 . S
C665 H660 0.950 . S
C665 C667 1.327 . S
C665 C671 1.429 . S
C666 C658 1.574 . S
C666 H661 0.949 . S
C666 C672 1.368 . S
C667 C651 1.349 . S
C667 H659 0.950 . S
C667 C665 1.327 . S
C668 C656 1.349 . S
C668 H662 0.950 . S
C668 C669 1.327 . S
C669 H663 0.950 . S
C669 C668 1.327 . S
C669 C673 1.429 . S
C670 C653 1.574 . S
C670 H664 0.949 . S
C670 C674 1.368 . S
C671 C652 1.429 . S
C671 C665 1.429 . S
C671 C672 1.523 . S
C672 C653 1.368 . S
C672 C666 1.368 . S
C672 C671 1.523 . S
C673 C657 1.429 . S
C673 C669 1.429 . S
C673 C674 1.523 . S
C674 C658 1.368 . S
C674 C670 1.368 . S
C674 C673 1.523 . S
H675 C650 0.950 . S
H676 C652 0.950 . S
H677 C653 0.949 . S
H678 C655 0.950 . S
H679 C657 0.950 . S
C321 C42 1.488 . S
C326 C2 1.488 . S
C351 C61 1.489 . S
C356 C95 1.502 . S
C381 C82 1.488 . S
C386 C122 1.488 . S
C411 C21 1.489 . S
C416 C135 1.502 . S
C441 C221 1.489 . S
C446 C15 1.502 . S
C471 C141 1.489 . S
C476 C175 1.502 . S
C501 C55 1.502 . S
C506 C261 1.489 . S
C531 C295 1.502 . S
C536 C101 1.489 . S
C561 C282 1.488 . S
C566 C162 1.488 . S
C591 C215 1.502 . S
C596 C181 1.489 . S
C621 C202 1.488 . S
C626 C242 1.488 . S
C651 C255 1.502 . S
C656 C301 1.489 . S
