# Generated by pormake.
# Topology gan, (5)-cn, num edge types: 1
# Building blocks:
#     Node 0, Type 0, BuildingBlock: BEQFEK_clean_sbu_0, # of connection points: 5
#     Node 1, Type 0, BuildingBlock: BEQFEK_clean_sbu_0, # of connection points: 5
#     Node 2, Type 0, BuildingBlock: BEQFEK_clean_sbu_0, # of connection points: 5
#     Node 3, Type 0, BuildingBlock: BEQFEK_clean_sbu_0, # of connection points: 5
#     Node 4, Type 0, BuildingBlock: BEQFEK_clean_sbu_0, # of connection points: 5
#     Node 5, Type 0, BuildingBlock: BEQFEK_clean_sbu_0, # of connection points: 5
#     Node 6, Type 0, BuildingBlock: BEQFEK_clean_sbu_0, # of connection points: 5
#     Node 7, Type 0, BuildingBlock: BEQFEK_clean_sbu_0, # of connection points: 5
#     Node 8, Type 0, BuildingBlock: BEQFEK_clean_sbu_0, # of connection points: 5
#     Node 9, Type 0, BuildingBlock: BEQFEK_clean_sbu_0, # of connection points: 5
#     Node 10, Type 0, BuildingBlock: BEQFEK_clean_sbu_0, # of connection points: 5
#     Node 11, Type 0, BuildingBlock: BEQFEK_clean_sbu_0, # of connection points: 5
#     Node 12, Type 0, BuildingBlock: BEQFEK_clean_sbu_0, # of connection points: 5
#     Node 13, Type 0, BuildingBlock: BEQFEK_clean_sbu_0, # of connection points: 5
#     Node 14, Type 0, BuildingBlock: BEQFEK_clean_sbu_0, # of connection points: 5
#     Node 15, Type 0, BuildingBlock: BEQFEK_clean_sbu_0, # of connection points: 5
#     Edge 16, Type (0, 0), None
#     Edge 17, Type (0, 0), None
#     Edge 18, Type (0, 0), None
#     Edge 19, Type (0, 0), None
#     Edge 20, Type (0, 0), None
#     Edge 21, Type (0, 0), None
#     Edge 22, Type (0, 0), None
#     Edge 23, Type (0, 0), None
#     Edge 24, Type (0, 0), None
#     Edge 25, Type (0, 0), None
#     Edge 26, Type (0, 0), None
#     Edge 27, Type (0, 0), None
#     Edge 28, Type (0, 0), None
#     Edge 29, Type (0, 0), None
#     Edge 30, Type (0, 0), None
#     Edge 31, Type (0, 0), None
#     Edge 32, Type (0, 0), None
#     Edge 33, Type (0, 0), None
#     Edge 34, Type (0, 0), None
#     Edge 35, Type (0, 0), None
#     Edge 36, Type (0, 0), None
#     Edge 37, Type (0, 0), None
#     Edge 38, Type (0, 0), None
#     Edge 39, Type (0, 0), None
#     Edge 40, Type (0, 0), None
#     Edge 41, Type (0, 0), None
#     Edge 42, Type (0, 0), None
#     Edge 43, Type (0, 0), None
#     Edge 44, Type (0, 0), None
#     Edge 45, Type (0, 0), None
#     Edge 46, Type (0, 0), None
#     Edge 47, Type (0, 0), None
#     Edge 48, Type (0, 0), None
#     Edge 49, Type (0, 0), None
#     Edge 50, Type (0, 0), None
#     Edge 51, Type (0, 0), None
#     Edge 52, Type (0, 0), None
#     Edge 53, Type (0, 0), None
#     Edge 54, Type (0, 0), None
#     Edge 55, Type (0, 0), None
# Relax obj value: 0.208
# Max RMSD: 0.217
# Mean RMSD: 0.185
data_MOF--net-gan--node1-BEQFEK_clean_sbu_0--edge1-none
_symmetry_space_group_name_H-M    P1
_symmetry_Int_Tables_number       1
_symmetry_cell_setting            triclinic
loop_
_symmetry_equiv_pos_as_xyz
'x, y, z'
_cell_length_a     22.10216
_cell_length_b     21.993811
_cell_length_c     20.96225
_cell_angle_alpha  93.173076
_cell_angle_beta   94.546806
_cell_angle_gamma 96.852478
loop_
_atom_site_label
_atom_site_type_symbol
_atom_site_fract_x
_atom_site_fract_y
_atom_site_fract_z
_atom_type_partial_charge
Co0 Co 0.16566 0.18725 0.11959 0.0
Co1 Co 0.25569 0.25939 0.19675 0.0
C2 C 0.22077 0.14787 0.25218 0.0
O3 O 0.19411 0.13568 0.19572 0.0
O4 O 0.24878 0.20118 0.26673 0.0
C5 C 1.06107 0.13285 0.15199 0.0
O6 O 0.08272 0.16442 0.20558 0.0
C7 C 0.37467 0.30039 0.23033 0.0
C8 C 0.38009 0.40044 0.23692 0.0
C9 C 0.41087 0.3519 0.25644 0.0
N10 N 0.31993 0.31702 0.21377 0.0
N11 N 0.3242 0.37694 0.21141 0.0
C12 C 0.38494 0.23568 0.24388 0.0
H13 H 0.35856 0.20178 0.20839 0.0
H14 H 0.36956 0.22472 0.29143 0.0
H15 H 0.43436 0.2306 0.24438 0.0
C16 C 0.08891 0.29183 0.14724 0.0
N17 N 0.14209 0.26673 0.146 0.0
N18 N 0.18263 0.29741 0.18777 0.0
C19 C 0.1562 0.34051 0.22065 0.0
C20 C 0.09484 0.33953 0.19575 0.0
C21 C 1.0333 0.27057 0.10251 0.0
H22 H 1.04643 0.24773 1.05802 0.0
H23 H 1.00221 0.23699 0.12571 0.0
H24 H 1.00825 0.30984 0.09049 0.0
O25 O 0.22405 0.18828 1.04585 0.0
O26 O 0.29357 0.22905 0.11972 0.0
H27 H 0.20991 0.41713 0.27302 0.0
H28 H 0.15104 0.37788 0.31694 0.0
C29 C 0.18569 0.37181 0.28237 0.0
H30 H 0.22038 0.34445 0.30361 0.0
H31 H 0.28882 0.4013 0.19552 0.0
O32 O 0.08836 0.13937 0.10084 0.0
C33 C 0.28031 0.20617 1.06334 0.0
Co34 Co 0.16712 1.01211 0.46453 0.0
Co35 Co 0.23432 0.93799 0.39147 0.0
C36 C 0.29659 0.98505 0.51774 0.0
O37 O 0.2444 1.00261 0.52555 0.0
O38 O 0.30464 0.95751 0.46399 0.0
C39 C 0.15649 0.10493 0.55646 0.0
O40 O 0.21606 0.10874 0.56819 0.0
C41 C 0.26826 0.83806 0.3163 0.0
C42 C 0.21196 0.84666 0.22543 0.0
C43 C 0.24725 0.80865 0.2574 0.0
N44 N 0.2461 0.89168 0.31917 0.0
N45 N 0.21136 0.896 0.26554 0.0
C46 C 0.3038 0.81391 0.37108 0.0
H47 H 0.30781 0.84598 0.41432 0.0
H48 H 0.35027 0.80759 0.35744 0.0
H49 H 0.28078 0.76855 0.3822 0.0
C50 C 0.18271 0.10105 0.3568 0.0
N51 N 0.18775 1.0484 0.38672 0.0
N52 N 0.22071 1.01465 0.35416 0.0
C53 C 0.23938 1.04534 0.30308 0.0
C54 C 0.21501 0.10089 0.30183 0.0
C55 C 0.14846 0.15097 0.38105 0.0
H56 H 0.10282 0.13078 0.39356 0.0
H57 H 0.17364 0.17388 0.42553 0.0
H58 H 0.14316 0.18554 0.34503 0.0
O59 O 0.09999 0.93664 0.4511 0.0
O60 O 0.16182 0.87528 0.41564 0.0
H61 H 0.26035 1.005 0.2136 0.0
H62 H 0.31635 1.06594 0.24791 0.0
C63 C 0.28484 1.02559 0.25941 0.0
H64 H 0.31169 0.99162 0.28173 0.0
H65 H 0.18324 0.9302 0.25792 0.0
O66 O 0.12915 0.07109 0.50976 0.0
C67 C 0.10934 0.88233 0.43378 0.0
Co68 Co 0.46614 1.03225 0.63712 0.0
Co69 Co 0.39505 0.96542 0.70962 0.0
C70 C 0.4489 0.08317 0.77349 0.0
O71 O 0.46163 0.0916 0.71615 0.0
O72 O 0.41894 1.03185 0.78456 0.0
C73 C 0.58276 0.082 0.64949 0.0
O74 O 0.58461 0.06681 0.70922 0.0
C75 C 0.31547 0.87638 0.77127 0.0
C76 C 0.29556 0.80983 0.68589 0.0
C77 C 0.28405 0.82059 0.74861 0.0
N78 N 0.3453 0.89781 0.72314 0.0
N79 N 0.33312 0.85849 0.67237 0.0
C80 C 0.31617 0.90978 0.83549 0.0
H81 H 0.31155 0.95883 0.82916 0.0
H82 H 0.36094 0.90801 0.86285 0.0
H83 H 0.27882 0.88931 0.86298 0.0
C84 C 0.54338 0.92571 0.63594 0.0
N85 N 0.49705 0.95705 0.65205 0.0
N86 N 0.46656 0.9275 0.69346 0.0
C87 C 0.49432 0.87767 0.70841 0.0
C88 C 0.54466 0.8752 0.67246 0.0
C89 C 0.58227 0.9393 0.58222 0.0
H90 H 0.56057 0.96945 0.54901 0.0
H91 H 0.62823 0.9609 0.60227 0.0
H92 H 0.58868 0.89598 0.55524 0.0
O93 O 0.40132 1.01927 0.56165 0.0
O94 O 0.338 0.9837 0.62912 0.0
H95 H 0.43709 0.79802 0.73066 0.0
H96 H 0.51109 0.8093 0.77521 0.0
C97 C 0.47283 0.83301 0.75541 0.0
H98 H 0.4524 0.85711 0.79471 0.0
H99 H 0.35132 0.86472 0.62842 0.0
O100 O 0.53388 0.07293 0.61265 0.0
C101 C 0.34761 0.99692 0.5719 0.0
Co102 Co 0.44352 0.26177 0.87372 0.0
Co103 Co 0.50599 0.19296 0.95641 0.0
C104 C 0.46714 0.13479 0.82545 0.0
O105 O 0.46252 0.19005 0.81272 0.0
O106 O 0.48562 0.12472 0.88258 0.0
C107 C 0.34144 0.2386 0.80597 0.0
O108 O 0.34905 0.18492 0.82753 0.0
C109 C 0.55006 0.10711 1.04249 0.0
C110 C 0.6194 0.16906 0.10542 0.0
C111 C 0.59354 0.10889 0.09359 0.0
N112 N 0.55033 0.16426 1.02424 0.0
N113 N 0.59135 0.20122 1.06207 0.0
C114 C 0.51036 1.05223 1.01023 0.0
H115 H 0.47397 1.06617 0.97692 0.0
H116 H 0.48817 1.02419 1.04624 0.0
H117 H 0.53892 1.02326 0.98349 0.0
C118 C 0.34144 0.24333 0.96785 0.0
N119 N 0.39811 0.23909 0.94764 0.0
N120 N 0.42705 0.20556 0.98616 0.0
C121 C 0.38898 0.18544 1.0307 0.0
C122 C 0.33186 0.20699 1.01955 0.0
C123 C 0.29973 0.28763 0.94484 0.0
H124 H 0.32397 0.32167 0.91592 0.0
H125 H 0.25914 0.26218 0.91658 0.0
H126 H 0.28289 0.31208 0.98637 0.0
O127 O 0.5101 0.33446 0.89459 0.0
O128 O 0.56706 0.27373 0.9437 0.0
H129 H 0.45119 0.16229 0.10663 0.0
H130 H 0.37098 0.13933 0.11703 0.0
C131 C 0.40584 0.14428 0.08187 0.0
H132 H 0.40893 0.09815 1.05941 0.0
H133 H 0.60052 0.24844 1.0582 0.0
O134 O 0.38205 0.28441 0.81884 0.0
C135 C 0.56118 0.32691 0.92357 0.0
Co136 Co 0.67133 0.5054 0.97913 0.0
Co137 Co 0.74526 0.43647 0.91007 0.0
C138 C 0.79487 0.47147 1.04473 0.0
O139 O 0.74215 0.48967 1.04735 0.0
O140 O 0.80865 0.449 0.99063 0.0
C141 C 0.66217 0.60018 1.06791 0.0
O142 O 0.72175 0.60317 0.079 0.0
C143 C 0.77879 0.33611 0.83612 0.0
C144 C 0.72773 0.35003 0.74365 0.0
C145 C 0.75657 0.30802 0.77688 0.0
N146 N 0.76314 0.39286 0.83806 0.0
N147 N 0.73202 0.40054 0.78302 0.0
C148 C 0.80551 0.30698 0.89294 0.0
H149 H 0.80763 0.33769 0.93702 0.0
H150 H 0.85245 0.29729 0.88441 0.0
H151 H 0.77763 0.2627 0.8996 0.0
C152 C 0.69012 0.59808 0.8749 0.0
N153 N 0.69805 0.54631 0.90557 0.0
N154 N 0.73567 0.51601 0.87563 0.0
C155 C 0.7551 0.54879 0.8261 0.0
C156 C 0.72604 0.6017 0.82262 0.0
C157 C 0.64716 0.64207 0.89393 0.0
H158 H 0.60227 0.61625 0.90143 0.0
H159 H 0.66556 0.66694 0.94021 0.0
H160 H 0.64108 0.6758 0.85719 0.0
O161 O 0.60282 0.43336 0.9555 0.0
O162 O 0.66738 0.37403 0.9218 0.0
H163 H 0.78119 0.51475 0.736 0.0
H164 H 0.83506 0.57386 0.77708 0.0
C165 C 0.8031 0.53226 0.78402 0.0
H166 H 0.82906 0.49706 0.80524 0.0
H167 H 0.70693 0.43691 0.77466 0.0
O168 O 0.63342 0.56391 1.02385 0.0
C169 C 0.61298 0.38036 0.9348 0.0
Co170 Co 0.88356 0.45129 0.24311 0.0
Co171 Co 0.9543 0.53093 0.18257 0.0
C172 C 0.84089 0.48007 0.10434 0.0
O173 O 0.82574 0.4641 0.15948 0.0
O174 O 0.89531 0.50579 0.10111 0.0
C175 C 0.81472 0.34444 0.25058 0.0
O176 O 0.81936 0.34562 0.1886 0.0
C177 C 1.0589 0.55779 0.12986 0.0
C178 C 0.10395 0.64133 0.18803 0.0
C179 C 0.1136 0.59427 0.1452 0.0
N180 N 1.01859 0.5811 0.1639 0.0
N181 N 1.04479 0.63065 0.19895 0.0
C182 C 1.0447 0.49942 0.08676 0.0
H183 H 0.99827 0.47622 0.0915 0.0
H184 H 0.07837 0.4671 0.0978 0.0
H185 H 1.04794 0.50941 1.03584 0.0
C186 C 0.98333 0.36293 0.21881 0.0
N187 N 0.95447 0.41425 0.22159 0.0
N188 N 0.99427 0.46197 0.2171 0.0
C189 C 1.05098 0.44369 0.2183 0.0
C190 C 1.04628 0.37957 0.21431 0.0
C191 C 0.95352 0.30018 0.22992 0.0
H192 H 0.92851 0.30233 0.27363 0.0
H193 H 0.91993 0.28347 0.18872 0.0
H194 H 0.98773 0.26746 0.23626 0.0
O195 O 0.9188 0.5241 0.31308 0.0
O196 O 0.9242 0.59055 0.2413 0.0
H197 H 0.09808 0.53288 0.25025 0.0
H198 H 0.12705 0.47167 0.28678 0.0
C199 C 0.1081 0.48549 0.24021 0.0
H200 H 0.14284 0.48284 0.20508 0.0
H201 H 1.02369 0.65541 0.23272 0.0
O202 O 0.8382 0.38982 0.28765 0.0
C203 C 0.93202 0.57972 0.29929 0.0
Co204 Co 0.9374 0.76261 0.39101 0.0
Co205 Co 1.0065 0.69533 0.47145 0.0
C206 C 0.95531 0.63264 0.34761 0.0
O207 O 0.94828 0.68699 0.33331 0.0
O208 O 0.98289 0.62527 0.40158 0.0
C209 C 0.83077 0.74197 0.32898 0.0
O210 O 0.83606 0.68771 0.35029 0.0
C211 C 1.05095 0.6093 0.55597 0.0
C212 C 0.12244 0.66939 0.61802 0.0
C213 C 0.0945 0.6098 0.60666 0.0
N214 N 1.05271 0.66664 0.53783 0.0
N215 N 0.09517 0.70253 0.57495 0.0
C216 C 1.00952 0.55524 0.52416 0.0
H217 H 0.97151 0.56997 0.49394 0.0
H218 H 0.98896 0.52611 0.56023 0.0
H219 H 1.03625 0.52699 0.49426 0.0
C220 C 0.84134 0.74277 0.48717 0.0
N221 N 0.89852 0.74212 0.4677 0.0
N222 N 0.92827 0.7069 0.50348 0.0
C223 C 0.88972 0.68173 0.5452 0.0
C224 C 0.8319 0.70128 0.53418 0.0
C225 C 0.79855 0.78758 0.46785 0.0
H226 H 0.82131 0.82339 0.43973 0.0
H227 H 0.75727 0.76282 0.44012 0.0
H228 H 0.78289 0.81 0.51129 0.0
O229 O 1.00534 0.83422 0.40387 0.0
O230 O 0.0658 0.7765 0.45291 0.0
H231 H 0.95358 0.65117 0.61536 0.0
H232 H 0.87404 0.63488 0.63137 0.0
C233 C 0.90625 0.63761 0.59348 0.0
H234 H 0.90278 0.59117 0.5693 0.0
H235 H 0.10569 0.74957 0.57074 0.0
O236 O 0.87356 0.78589 0.34026 0.0
C237 C 1.05794 0.82839 0.43017 0.0
Co238 Co 0.87717 0.87099 0.93745 0.0
Co239 Co 0.94377 0.94865 1.02562 0.0
C240 C 0.91715 1.00175 0.89908 0.0
O241 O 0.87778 0.95436 0.89287 0.0
O242 O 0.95508 1.00653 0.94868 0.0
C243 C 0.91896 0.8499 0.82892 0.0
O244 O 0.96655 0.88319 0.85987 0.0
C245 C 0.98065 1.05541 0.10327 0.0
C246 C 1.03932 1.02661 0.18276 0.0
C247 C 1.02001 0.07758 0.15497 0.0
N248 N 0.97973 0.9947 0.09736 0.0
N249 N 1.01183 0.97682 0.1471 0.0
C250 C 0.94844 0.09291 1.05706 0.0
H251 H 0.90571 1.06606 1.03438 0.0
H252 H 0.97895 0.10698 1.01951 0.0
H253 H 0.93722 0.13531 0.08231 0.0
C254 C 0.97703 0.78541 0.96017 0.0
N255 N 0.94969 0.83657 0.97389 0.0
N256 N 0.98631 0.87454 1.01353 0.0
C257 C 1.03928 0.84878 1.02581 0.0
C258 C 1.03553 0.79042 0.99239 0.0
C259 C 0.95167 0.73627 0.90952 0.0
H260 H 0.96618 0.75061 0.86279 0.0
H261 H 0.97036 0.69245 0.91612 0.0
H262 H 0.90103 0.72896 0.90786 0.0
O263 O 0.80321 0.85922 0.99038 0.0
O264 O 0.85458 0.93231 1.05551 0.0
H265 H 0.08881 0.86692 0.11764 0.0
H266 H 0.13652 0.86401 1.05284 0.0
C267 C 0.0935 0.87955 1.06761 0.0
H268 H 0.09586 0.93016 1.06642 0.0
H269 H 1.01745 0.93134 0.15479 0.0
O270 O 0.87234 0.83026 0.85826 0.0
C271 C 0.80505 0.89621 1.03986 0.0
Co272 Co 0.86816 0.19279 0.73585 0.0
Co273 Co 0.9603 0.13351 0.67425 0.0
C274 C 0.84764 0.14619 0.59115 0.0
O275 O 0.83231 0.17167 0.64251 0.0
O276 O 0.89666 0.12062 0.59404 0.0
C277 C 0.76755 0.24922 0.74979 0.0
O278 O 0.75931 0.23957 0.68732 0.0
C279 C 1.05653 0.11669 0.59935 0.0
C280 C 0.13409 0.11265 0.67174 0.0
C281 C 0.11896 0.11777 0.60732 0.0
N282 N 1.0349 0.11078 0.6565 0.0
N283 N 0.0815 0.11042 0.7001 0.0
C284 C 1.01921 0.13041 0.54019 0.0
H285 H 0.99332 0.16923 0.55162 0.0
H286 H 0.98601 0.08962 0.52369 0.0
H287 H 1.04807 0.14328 0.50093 0.0
C288 C 0.88296 0.09666 0.83739 0.0
N289 N 0.89549 0.12439 0.78235 0.0
N290 N 0.93691 0.09695 0.75483 0.0
C291 C 0.95275 1.05137 0.79229 0.0
C292 C 0.91925 1.04889 0.84708 0.0
C293 C 0.83673 0.11567 0.8803 0.0
H294 H 0.84863 0.16496 0.89605 0.0
H295 H 0.79114 0.11051 0.8529 0.0
H296 H 0.83456 0.08792 0.9229 0.0
O297 O 0.93071 0.27099 0.73817 0.0
O298 O 0.99195 0.2223 0.68374 0.0
H299 H 1.04411 1.02922 0.80479 0.0
H300 H 0.98775 0.96454 0.79079 0.0
C301 C 1.00032 1.01136 0.77678 0.0
H302 H 1.0066 1.00987 0.7248 0.0
H303 H 0.07818 0.11339 0.74946 0.0
O304 O 0.80461 0.22079 0.78168 0.0
C305 C 0.97843 0.27233 0.70788 0.0
Co306 Co 0.66831 0.10159 0.49386 0.0
Co307 Co 0.73313 0.17383 0.40979 0.0
C308 C 0.80136 0.13856 0.53296 0.0
O309 O 0.75077 0.10768 0.53991 0.0
O310 O 0.80527 0.17122 0.48397 0.0
C311 C 0.63637 0.09112 0.61651 0.0
O312 O 0.68059 0.13485 0.63606 0.0
C313 C 0.78997 0.2735 0.33961 0.0
C314 C 0.75425 0.24039 0.24031 0.0
C315 C 0.7877 0.28896 0.27647 0.0
N316 N 0.75809 0.21803 0.34081 0.0
N317 N 0.73701 0.19848 0.28141 0.0
C318 C 0.82091 0.31041 0.39776 0.0
H319 H 0.80963 0.28776 0.44207 0.0
H320 H 0.80672 0.35713 0.39968 0.0
H321 H 0.87115 0.31536 0.39474 0.0
C322 C 0.58759 0.20847 0.49982 0.0
N323 N 0.63477 0.17947 0.48007 0.0
N324 N 0.66484 0.21441 0.44169 0.0
C325 C 0.63724 0.26677 0.43612 0.0
C326 C 0.58726 0.2655 0.47403 0.0
C327 C 0.542 0.18257 0.54254 0.0
H328 H 0.56479 0.18403 0.59155 0.0
H329 H 0.50303 0.20966 0.54548 0.0
H330 H 0.5245 0.13515 0.52386 0.0
O331 O 0.65005 1.03466 0.42186 0.0
O332 O 0.7039 0.0901 0.35829 0.0
H333 H 0.6647 0.29482 0.34542 0.0
H334 H 0.61912 0.34622 0.38515 0.0
C335 C 0.6554 0.31582 0.39238 0.0
H336 H 0.69776 0.34396 0.41391 0.0
H337 H 0.70901 0.15737 0.26866 0.0
O338 O 0.6276 0.07083 0.55854 0.0
C339 C 0.67091 1.04029 0.36758 0.0
Co340 Co 0.6013 0.94818 0.17671 0.0
Co341 Co 0.65956 0.86604 0.25026 0.0
C342 C 0.65544 0.99018 0.31431 0.0
O343 O 0.62504 1.0003 0.2626 0.0
O344 O 0.67377 0.93783 0.31924 0.0
C345 C 0.60951 1.05817 0.12917 0.0
O346 O 0.66053 1.06402 0.16678 0.0
C347 C 0.75563 0.8133 0.30047 0.0
C348 C 0.71939 0.71424 0.29701 0.0
C349 C 0.77167 0.75581 0.308 0.0
N350 N 0.69639 0.80598 0.2831 0.0
N351 N 0.67407 0.74742 0.28134 0.0
C352 C 0.79484 0.8745 0.30579 0.0
H353 H 0.77168 0.90886 0.27973 0.0
H354 H 0.83951 0.87157 0.28609 0.0
H355 H 0.80352 0.89113 0.35697 0.0
C356 C 0.70522 0.93291 0.08485 0.0
N357 N 0.67265 0.92156 0.13671 0.0
N358 N 0.69681 0.8797 0.1687 0.0
C359 C 0.74338 0.86086 0.13627 0.0
C360 C 0.75212 0.8951 0.08276 0.0
C361 C 0.69178 0.97849 1.03699 0.0
H362 H 0.64165 0.97745 1.02686 0.0
H363 H 0.71107 1.02515 1.05699 0.0
H364 H 0.71278 0.96884 0.99169 0.0
O365 O 0.52666 0.87904 0.17769 0.0
O366 O 0.57603 0.82361 0.24193 0.0
H367 H 0.74555 0.77161 0.17263 0.0
H368 H 0.79168 0.78609 0.1068 0.0
C369 C 0.77614 0.80693 0.15114 0.0
H370 H 0.81741 0.82199 0.18418 0.0
H371 H 0.62877 0.73004 0.26715 0.0
O372 O 0.57436 1.00807 0.12365 0.0
C373 C 0.52693 0.83202 0.21093 0.0
Co374 Co 0.36773 0.69712 0.22708 0.0
Co375 Co 0.46368 0.63815 0.17461 0.0
C376 C 0.35423 0.64205 0.08537 0.0
O377 O 0.33709 0.6714 0.13333 0.0
O378 O 0.40349 0.61735 0.09281 0.0
C379 C 0.26748 0.7547 0.22879 0.0
O380 O 0.27186 0.75233 0.16676 0.0
C381 C 0.56375 0.62116 0.10672 0.0
C382 C 0.63826 0.61527 0.18196 0.0
C383 C 0.62559 0.61964 0.11694 0.0
N384 N 0.5399 0.61676 0.16277 0.0
N385 N 0.58477 0.61588 0.20826 0.0
C386 C 0.52886 0.63348 1.04548 0.0
H387 H 0.50056 0.67089 1.05466 0.0
H388 H 0.49807 0.59151 1.02724 0.0
H389 H 0.5599 0.64743 1.00838 0.0
C390 C 0.37953 0.60465 0.33357 0.0
N391 N 0.39409 0.63145 0.27862 0.0
N392 N 0.437 0.6039 0.25406 0.0
C393 C 0.45116 0.55875 0.29262 0.0
C394 C 0.41564 0.55717 0.34564 0.0
C395 C 0.33087 0.62345 0.37334 0.0
H396 H 0.28634 0.61689 0.34383 0.0
H397 H 0.32736 0.59653 0.41646 0.0
H398 H 0.34129 0.67306 0.38817 0.0
O399 O 0.42868 0.77646 0.23111 0.0
O400 O 0.49329 0.72794 0.18152 0.0
H401 H 0.54112 0.53381 0.30987 0.0
H402 H 0.48319 0.47086 0.29179 0.0
C403 C 0.49833 0.51763 0.2793 0.0
H404 H 0.50728 0.51654 0.228 0.0
H405 H 0.57961 0.6192 0.25727 0.0
O406 O 0.29937 0.72405 0.2644 0.0
C407 C 0.47801 0.77804 0.20357 0.0
Co408 Co 0.17615 0.58103 0.99402 0.0
Co409 Co 0.22853 0.66092 0.91999 0.0
C410 C 0.31063 0.63088 1.02535 0.0
O411 O 0.2669 0.58822 1.02515 0.0
O412 O 0.30476 0.67215 0.98572 0.0
C413 C 0.16716 0.58878 0.11371 0.0
O414 O 0.20388 0.63936 0.10863 0.0
C415 C 0.27571 0.75219 0.83931 0.0
C416 C 0.19868 0.74025 0.76273 0.0
C417 C 0.25298 0.77537 0.78416 0.0
N418 N 0.23471 0.70631 0.85178 0.0
N419 N 0.18896 0.69892 0.80631 0.0
C420 C 0.33635 0.76921 0.87703 0.0
H421 H 0.3543 0.72733 0.89371 0.0
H422 H 0.33039 0.79911 0.91989 0.0
H423 H 0.37011 0.7936 0.848 0.0
C424 C 0.07927 0.68339 1.00408 0.0
N425 N 0.1299 0.65653 0.98858 0.0
N426 N 0.16294 0.69649 0.95806 0.0
C427 C 0.13773 0.75032 0.95722 0.0
C428 C 0.0832 0.74481 0.98724 0.0
C429 C 1.02512 0.6519 1.03199 0.0
H430 H 1.02934 0.66507 0.08365 0.0
H431 H 0.98199 0.66831 1.01438 0.0
H432 H 1.02104 0.60201 1.02086 0.0
O433 O 0.15165 0.5154 0.92459 0.0
O434 O 0.20591 0.57645 0.8663 0.0
H435 H 0.1499 0.79727 0.87196 0.0
H436 H 0.14392 0.84707 0.9409 0.0
C437 C 0.16285 0.80513 0.92415 0.0
H438 H 0.21343 0.8122 0.93244 0.0
H439 H 0.15063 0.66615 0.80576 0.0
O440 O 0.1598 0.54717 1.06904 0.0
C441 C 0.17425 0.52476 0.87196 0.0
Co442 Co 0.10071 0.44385 0.68032 0.0
Co443 Co 0.1614 0.35707 0.74429 0.0
C444 C 0.15954 0.4783 0.81578 0.0
O445 O 0.12632 0.49068 0.76719 0.0
O446 O 0.17903 0.42618 0.816 0.0
C447 C 0.10926 0.55796 0.64122 0.0
O448 O 0.16076 0.56195 0.67785 0.0
C449 C 0.26238 0.30651 0.78149 0.0
C450 C 0.22943 0.20697 0.7813 0.0
C451 C 0.28101 0.24983 0.78659 0.0
N452 N 0.2022 0.29759 0.77123 0.0
N453 N 0.18184 0.23869 0.77112 0.0
C454 C 0.29999 0.36844 0.78287 0.0
H455 H 0.27319 0.40263 0.7612 0.0
H456 H 0.34149 0.36604 0.75686 0.0
H457 H 0.31481 0.38511 0.83315 0.0
C458 C 0.202 0.43462 0.5835 0.0
N459 N 0.17005 0.41954 0.6349 0.0
N460 N 0.19272 0.37361 0.66089 0.0
C461 C 0.23664 0.35526 0.6243 0.0
C462 C 0.2461 0.39447 0.57493 0.0
C463 C 0.19051 0.48585 0.54195 0.0
H464 H 0.14062 0.48704 0.53245 0.0
H465 H 0.2111 0.53006 0.56709 0.0
H466 H 0.21134 0.48053 0.49578 0.0
O467 O 1.02643 0.37404 0.68294 0.0
O468 O 0.07852 0.31485 0.74041 0.0
H469 H 0.23567 0.26295 0.65379 0.0
H470 H 0.27476 0.27817 0.58319 0.0
C471 C 0.26586 0.29769 0.63104 0.0
H472 H 0.31069 0.30805 0.65943 0.0
H473 H 0.13604 0.22033 0.76241 0.0
O474 O 0.07379 0.50796 0.63352 0.0
C475 C 1.02813 0.32544 0.71375 0.0
Co476 Co 0.66915 0.67095 0.63358 0.0
Co477 Co 0.75345 0.75783 0.70553 0.0
C478 C 0.72592 0.64562 0.76944 0.0
O479 O 0.6997 0.62752 0.71404 0.0
O480 O 0.74924 0.70139 0.77936 0.0
C481 C 0.56339 0.61768 0.66563 0.0
O482 O 0.58309 0.65121 0.71858 0.0
C483 C 0.87223 0.80014 0.73488 0.0
C484 C 0.87836 0.90018 0.74104 0.0
C485 C 0.90889 0.8515 0.76046 0.0
N486 N 0.81735 0.81701 0.71924 0.0
N487 N 0.82221 0.87689 0.71601 0.0
C488 C 0.88274 0.73537 0.74825 0.0
H489 H 0.85569 0.70109 0.71389 0.0
H490 H 0.86832 0.72453 0.79609 0.0
H491 H 0.93201 0.73013 0.74739 0.0
C492 C 0.58848 0.77528 0.63739 0.0
N493 N 0.64154 0.75101 0.64946 0.0
N494 N 0.67869 0.7898 0.68808 0.0
C495 C 0.64972 0.83858 0.70444 0.0
C496 C 0.59118 0.831 0.67289 0.0
C497 C 0.5358 0.74657 0.59256 0.0
H498 H 0.54958 0.70957 0.56085 0.0
H499 H 0.49865 0.72799 0.62121 0.0
H500 H 0.51777 0.78186 0.56302 0.0
O501 O 0.72733 0.66801 0.56142 0.0
O502 O 0.78959 0.72765 0.62946 0.0
H503 H 0.68921 0.93135 0.72709 0.0
H504 H 0.63977 0.90083 0.78427 0.0
C505 C 0.67539 0.88967 0.75255 0.0
H506 H 0.7155 0.877 0.78181 0.0
H507 H 0.78738 0.90152 0.69937 0.0
O508 O 0.59402 0.61982 0.61654 0.0
C509 C 0.78047 0.69663 0.57692 0.0
Co510 Co 0.37432 0.3755 0.43138 0.0
Co511 Co 0.43677 0.45666 0.52234 0.0
C512 C 0.41231 0.51065 0.39775 0.0
O513 O 0.37965 0.45886 0.38667 0.0
O514 O 0.44429 0.52005 0.45153 0.0
C515 C 0.42037 0.35048 0.32486 0.0
O516 O 0.46691 0.38546 0.35567 0.0
C517 C 0.4752 0.55275 0.61447 0.0
C518 C 0.53304 0.51112 0.68563 0.0
C519 C 0.51653 0.56686 0.66699 0.0
N520 N 0.47188 0.49303 0.59909 0.0
N521 N 0.50328 0.46711 0.64385 0.0
C522 C 0.44562 0.59683 0.57415 0.0
H523 H 0.40272 0.57368 0.54795 0.0
H524 H 0.47724 0.6144 0.53898 0.0
H525 H 0.43483 0.63607 0.60488 0.0
C526 C 0.47611 0.29591 0.45642 0.0
N527 N 0.44617 0.34495 0.47046 0.0
N528 N 0.48331 0.38735 0.50396 0.0
C529 C 0.53988 0.36767 0.51003 0.0
C530 C 0.53776 0.30849 0.47934 0.0
C531 C 0.44798 0.23993 0.41587 0.0
H532 H 0.39737 0.23714 0.41149 0.0
H533 H 0.46548 0.24152 0.36778 0.0
H534 H 0.46146 0.19776 0.43645 0.0
O535 O 0.29914 0.36286 0.48243 0.0
O536 O 0.34772 0.43572 0.5498 0.0
H537 H 0.6052 0.38806 0.59105 0.0
H538 H 0.63584 0.39977 0.51538 0.0
C539 C 0.59566 0.40505 0.54285 0.0
H540 H 0.58868 0.45417 0.54829 0.0
H541 H 0.50794 0.42043 0.64321 0.0
O542 O 0.37273 0.33235 0.35339 0.0
C543 C 0.29926 0.39873 0.53249 0.0
loop_
_geom_bond_atom_site_label_1
_geom_bond_atom_site_label_2
_geom_bond_distance
_geom_bond_site_symmetry_2
_ccdc_geom_bond_type
Co0 O3 1.970 . S
Co0 N17 1.989 . S
Co0 O25 1.967 . S
Co0 O32 1.920 . S
Co1 O4 1.966 . S
Co1 N10 2.022 . S
Co1 N18 1.993 . S
Co1 O26 1.941 . S
C2 O3 1.258 . S
C2 O4 1.263 . S
O3 Co0 1.970 . S
O3 C2 1.258 . S
O4 Co1 1.966 . S
O4 C2 1.263 . S
C5 O6 1.235 1_455 S
C5 O32 1.289 . S
O6 C5 1.235 1_655 S
C7 C9 1.400 . S
C7 N10 1.351 . S
C7 C12 1.501 . S
C8 C9 1.387 . S
C8 N11 1.341 . S
C9 C7 1.400 . S
C9 C8 1.387 . S
N10 Co1 2.022 . S
N10 C7 1.351 . S
N10 N11 1.365 . S
N11 C8 1.341 . S
N11 N10 1.365 . S
N11 H31 0.862 . S
C12 C7 1.501 . S
C12 H13 0.961 . S
C12 H14 0.961 . S
C12 H15 0.960 . S
H13 C12 0.961 . S
H14 C12 0.961 . S
H15 C12 0.960 . S
C16 N17 1.342 . S
C16 C20 1.401 . S
C16 C21 1.499 1_455 S
N17 Co0 1.989 . S
N17 C16 1.342 . S
N17 N18 1.388 . S
N18 Co1 1.993 . S
N18 N17 1.388 . S
N18 C19 1.346 . S
C19 N18 1.346 . S
C19 C20 1.396 . S
C19 C29 1.510 . S
C20 C16 1.401 . S
C20 C19 1.396 . S
C21 C16 1.499 1_655 S
C21 H22 0.960 . S
C21 H23 0.960 . S
C21 H24 0.961 . S
H22 C21 0.960 . S
H23 C21 0.960 . S
H24 C21 0.961 . S
O25 Co0 1.967 . S
O25 C33 1.258 . S
O26 Co1 1.941 . S
O26 C33 1.266 . S
H27 C29 0.959 . S
H28 C29 0.961 . S
C29 C19 1.510 . S
C29 H27 0.959 . S
C29 H28 0.961 . S
C29 H30 0.960 . S
H30 C29 0.960 . S
H31 N11 0.862 . S
O32 Co0 1.920 . S
O32 C5 1.289 . S
C33 O25 1.258 . S
C33 O26 1.266 . S
Co34 O37 1.970 . S
Co34 N51 1.989 . S
Co34 O59 1.967 . S
Co34 O66 1.920 . S
Co35 O38 1.966 . S
Co35 N44 2.022 . S
Co35 N52 1.993 . S
Co35 O60 1.941 . S
C36 O37 1.258 . S
C36 O38 1.263 . S
O37 Co34 1.970 . S
O37 C36 1.258 . S
O38 Co35 1.966 . S
O38 C36 1.263 . S
C39 O40 1.235 1_565 S
C39 O66 1.289 . S
O40 C39 1.235 1_545 S
C41 C43 1.400 . S
C41 N44 1.351 . S
C41 C46 1.501 . S
C42 C43 1.387 . S
C42 N45 1.341 . S
C43 C41 1.400 . S
C43 C42 1.387 . S
N44 Co35 2.022 . S
N44 C41 1.351 . S
N44 N45 1.365 . S
N45 C42 1.341 . S
N45 N44 1.365 . S
N45 H65 0.862 . S
C46 C41 1.501 . S
C46 H47 0.961 . S
C46 H48 0.961 . S
C46 H49 0.960 . S
H47 C46 0.961 . S
H48 C46 0.961 . S
H49 C46 0.960 . S
C50 N51 1.342 . S
C50 C54 1.401 . S
C50 C55 1.499 1_565 S
N51 Co34 1.989 . S
N51 C50 1.342 . S
N51 N52 1.388 . S
N52 Co35 1.993 . S
N52 N51 1.388 . S
N52 C53 1.346 . S
C53 N52 1.346 . S
C53 C54 1.396 . S
C53 C63 1.510 . S
C54 C50 1.401 . S
C54 C53 1.396 . S
C55 C50 1.499 1_545 S
C55 H56 0.959 . S
C55 H57 0.960 . S
C55 H58 0.961 . S
H56 C55 0.959 . S
H57 C55 0.960 . S
H58 C55 0.961 . S
O59 Co34 1.967 . S
O59 C67 1.258 . S
O60 Co35 1.941 . S
O60 C67 1.266 . S
H61 C63 0.959 . S
H62 C63 0.961 . S
C63 C53 1.510 . S
C63 H61 0.959 . S
C63 H62 0.961 . S
C63 H64 0.960 . S
H64 C63 0.960 . S
H65 N45 0.862 . S
O66 Co34 1.920 . S
O66 C39 1.289 . S
C67 O59 1.258 . S
C67 O60 1.266 . S
Co68 O71 1.970 . S
Co68 N85 1.989 . S
Co68 O93 1.967 . S
Co68 O100 1.920 . S
Co69 O72 1.966 . S
Co69 N78 2.022 . S
Co69 N86 1.993 . S
Co69 O94 1.941 . S
C70 O71 1.258 . S
C70 O72 1.263 . S
O71 Co68 1.970 . S
O71 C70 1.258 . S
O72 Co69 1.966 . S
O72 C70 1.263 . S
C73 O74 1.235 . S
C73 O100 1.289 1_545 S
O74 C73 1.235 . S
C75 C77 1.400 . S
C75 N78 1.351 . S
C75 C80 1.501 . S
C76 C77 1.387 . S
C76 N79 1.341 . S
C77 C75 1.400 . S
C77 C76 1.387 . S
N78 Co69 2.022 . S
N78 C75 1.351 . S
N78 N79 1.365 . S
N79 C76 1.341 . S
N79 N78 1.365 . S
N79 H99 0.862 . S
C80 C75 1.501 . S
C80 H81 0.961 . S
C80 H82 0.961 . S
C80 H83 0.960 . S
H81 C80 0.961 . S
H82 C80 0.961 . S
H83 C80 0.960 . S
C84 N85 1.342 . S
C84 C88 1.401 . S
C84 C89 1.499 . S
N85 Co68 1.989 . S
N85 C84 1.342 . S
N85 N86 1.388 . S
N86 Co69 1.993 . S
N86 N85 1.388 . S
N86 C87 1.346 . S
C87 N86 1.346 . S
C87 C88 1.396 . S
C87 C97 1.510 . S
C88 C84 1.401 . S
C88 C87 1.396 . S
C89 C84 1.499 . S
C89 H90 0.959 . S
C89 H91 0.960 . S
C89 H92 0.961 . S
H90 C89 0.959 . S
H91 C89 0.960 . S
H92 C89 0.961 . S
O93 Co68 1.967 . S
O93 C101 1.258 . S
O94 Co69 1.941 . S
O94 C101 1.266 . S
H95 C97 0.959 . S
H96 C97 0.961 . S
C97 C87 1.510 . S
C97 H95 0.959 . S
C97 H96 0.961 . S
C97 H98 0.960 . S
H98 C97 0.960 . S
H99 N79 0.862 . S
O100 Co68 1.920 . S
O100 C73 1.289 1_565 S
C101 O93 1.258 . S
C101 O94 1.266 . S
Co102 O105 1.970 . S
Co102 N119 1.989 . S
Co102 O127 1.967 . S
Co102 O134 1.920 . S
Co103 O106 1.966 . S
Co103 N112 2.022 . S
Co103 N120 1.993 . S
Co103 O128 1.941 . S
C104 O105 1.258 . S
C104 O106 1.263 . S
O105 Co102 1.970 . S
O105 C104 1.258 . S
O106 Co103 1.966 . S
O106 C104 1.263 . S
C107 O108 1.235 . S
C107 O134 1.289 . S
O108 C107 1.235 . S
C109 C111 1.400 1_546 S
C109 N112 1.351 . S
C109 C114 1.501 1_545 S
C110 C111 1.387 1_545 S
C110 N113 1.341 . S
C111 C109 1.400 1_564 S
C111 C110 1.387 1_565 S
N112 Co103 2.022 . S
N112 C109 1.351 . S
N112 N113 1.365 1_556 S
N113 C110 1.341 . S
N113 N112 1.365 1_554 S
N113 H133 0.862 . S
C114 C109 1.501 1_565 S
C114 H115 0.961 . S
C114 H116 0.961 . S
C114 H117 0.960 . S
H115 C114 0.961 . S
H116 C114 0.961 . S
H117 C114 0.960 . S
C118 N119 1.342 . S
C118 C122 1.401 . S
C118 C123 1.499 . S
N119 Co102 1.989 . S
N119 C118 1.342 . S
N119 N120 1.388 . S
N120 Co103 1.993 . S
N120 N119 1.388 . S
N120 C121 1.346 . S
C121 N120 1.346 . S
C121 C122 1.396 . S
C121 C131 1.510 1_556 S
C122 C118 1.401 . S
C122 C121 1.396 . S
C123 C118 1.499 . S
C123 H124 0.959 . S
C123 H125 0.960 . S
C123 H126 0.961 . S
H124 C123 0.959 . S
H125 C123 0.960 . S
H126 C123 0.961 . S
O127 Co102 1.967 . S
O127 C135 1.258 . S
O128 Co103 1.941 . S
O128 C135 1.266 . S
H129 C131 0.959 . S
H130 C131 0.961 . S
C131 C121 1.510 1_554 S
C131 H129 0.959 . S
C131 H130 0.961 . S
C131 H132 0.960 . S
H132 C131 0.960 . S
H133 N113 0.862 . S
O134 Co102 1.920 . S
O134 C107 1.289 . S
C135 O127 1.258 . S
C135 O128 1.266 . S
Co136 O139 1.970 . S
Co136 N153 1.989 . S
Co136 O161 1.967 . S
Co136 O168 1.920 . S
Co137 O140 1.966 . S
Co137 N146 2.022 . S
Co137 N154 1.993 . S
Co137 O162 1.941 . S
C138 O139 1.258 . S
C138 O140 1.263 . S
O139 Co136 1.970 . S
O139 C138 1.258 . S
O140 Co137 1.966 . S
O140 C138 1.263 . S
C141 O142 1.235 . S
C141 O168 1.289 . S
O142 C141 1.235 . S
C143 C145 1.400 . S
C143 N146 1.351 . S
C143 C148 1.501 . S
C144 C145 1.387 . S
C144 N147 1.341 . S
C145 C143 1.400 . S
C145 C144 1.387 . S
N146 Co137 2.022 . S
N146 C143 1.351 . S
N146 N147 1.365 . S
N147 C144 1.341 . S
N147 N146 1.365 . S
N147 H167 0.862 . S
C148 C143 1.501 . S
C148 H149 0.961 . S
C148 H150 0.961 . S
C148 H151 0.960 . S
H149 C148 0.961 . S
H150 C148 0.961 . S
H151 C148 0.960 . S
C152 N153 1.342 . S
C152 C156 1.401 . S
C152 C157 1.499 . S
N153 Co136 1.989 . S
N153 C152 1.342 . S
N153 N154 1.388 . S
N154 Co137 1.993 . S
N154 N153 1.388 . S
N154 C155 1.346 . S
C155 N154 1.346 . S
C155 C156 1.396 . S
C155 C165 1.510 . S
C156 C152 1.401 . S
C156 C155 1.396 . S
C157 C152 1.499 . S
C157 H158 0.959 . S
C157 H159 0.960 . S
C157 H160 0.961 . S
H158 C157 0.959 . S
H159 C157 0.960 . S
H160 C157 0.961 . S
O161 Co136 1.967 . S
O161 C169 1.258 . S
O162 Co137 1.941 . S
O162 C169 1.266 . S
H163 C165 0.959 . S
H164 C165 0.961 . S
C165 C155 1.510 . S
C165 H163 0.959 . S
C165 H164 0.961 . S
C165 H166 0.960 . S
H166 C165 0.960 . S
H167 N147 0.862 . S
O168 Co136 1.920 . S
O168 C141 1.289 . S
C169 O161 1.258 . S
C169 O162 1.266 . S
Co170 O173 1.970 . S
Co170 N187 1.989 . S
Co170 O195 1.967 . S
Co170 O202 1.920 . S
Co171 O174 1.966 . S
Co171 N180 2.022 . S
Co171 N188 1.993 . S
Co171 O196 1.941 . S
C172 O173 1.258 . S
C172 O174 1.263 . S
O173 Co170 1.970 . S
O173 C172 1.258 . S
O174 Co171 1.966 . S
O174 C172 1.263 . S
C175 O176 1.235 . S
C175 O202 1.289 . S
O176 C175 1.235 . S
C177 C179 1.394 1_654 S
C177 N180 1.372 . S
C177 C182 1.489 1_554 S
C178 C179 1.387 1_554 S
C178 N181 1.341 1_455 S
C179 C177 1.394 1_456 S
C179 C178 1.387 1_556 S
N180 Co171 2.022 . S
N180 C177 1.372 . S
N180 N181 1.365 . S
N181 C178 1.341 1_655 S
N181 N180 1.365 . S
N181 H201 0.862 1_655 S
C182 C177 1.489 1_556 S
C182 H183 0.961 . S
C182 H184 0.961 . S
C182 H185 0.960 . S
H183 C182 0.961 . S
H184 C182 0.961 . S
H185 C182 0.960 . S
C186 N187 1.342 . S
C186 C190 1.401 . S
C186 C191 1.499 . S
N187 Co170 1.989 . S
N187 C186 1.342 . S
N187 N188 1.388 . S
N188 Co171 1.993 . S
N188 N187 1.388 . S
N188 C189 1.346 . S
C189 N188 1.346 . S
C189 C190 1.396 . S
C189 C199 1.510 1_655 S
C190 C186 1.401 . S
C190 C189 1.396 . S
C191 C186 1.499 . S
C191 H192 0.959 . S
C191 H193 0.960 . S
C191 H194 0.961 . S
H192 C191 0.959 . S
H193 C191 0.960 . S
H194 C191 0.961 . S
O195 Co170 1.967 . S
O195 C203 1.258 . S
O196 Co171 1.941 . S
O196 C203 1.266 . S
H197 C199 0.959 . S
H198 C199 0.961 . S
C199 C189 1.510 1_455 S
C199 H197 0.959 . S
C199 H198 0.961 . S
C199 H200 0.960 . S
H200 C199 0.960 . S
H201 N181 0.862 1_455 S
O202 Co170 1.920 . S
O202 C175 1.289 . S
C203 O195 1.258 . S
C203 O196 1.266 . S
Co204 O207 1.970 . S
Co204 N221 1.989 . S
Co204 O229 1.967 . S
Co204 O236 1.920 . S
Co205 O208 1.966 . S
Co205 N214 2.022 . S
Co205 N222 1.993 . S
Co205 O230 1.941 . S
C206 O207 1.258 . S
C206 O208 1.263 . S
O207 Co204 1.970 . S
O207 C206 1.258 . S
O208 Co205 1.966 . S
O208 C206 1.263 . S
C209 O210 1.235 . S
C209 O236 1.289 . S
O210 C209 1.235 . S
C211 C213 1.400 . S
C211 N214 1.351 . S
C211 C216 1.501 . S
C212 C213 1.387 . S
C212 N215 1.341 . S
C213 C211 1.400 . S
C213 C212 1.387 . S
N214 Co205 2.022 . S
N214 C211 1.351 . S
N214 N215 1.365 . S
N215 C212 1.341 . S
N215 N214 1.365 . S
N215 H235 0.862 . S
C216 C211 1.501 . S
C216 H217 0.961 . S
C216 H218 0.961 . S
C216 H219 0.960 . S
H217 C216 0.961 . S
H218 C216 0.961 . S
H219 C216 0.960 . S
C220 N221 1.342 . S
C220 C224 1.401 . S
C220 C225 1.499 . S
N221 Co204 1.989 . S
N221 C220 1.342 . S
N221 N222 1.388 . S
N222 Co205 1.993 . S
N222 N221 1.388 . S
N222 C223 1.346 . S
C223 N222 1.346 . S
C223 C224 1.396 . S
C223 C233 1.510 . S
C224 C220 1.401 . S
C224 C223 1.396 . S
C225 C220 1.499 . S
C225 H226 0.959 . S
C225 H227 0.960 . S
C225 H228 0.961 . S
H226 C225 0.959 . S
H227 C225 0.960 . S
H228 C225 0.961 . S
O229 Co204 1.967 . S
O229 C237 1.258 . S
O230 Co205 1.941 . S
O230 C237 1.266 . S
H231 C233 0.959 . S
H232 C233 0.961 . S
C233 C223 1.510 . S
C233 H231 0.959 . S
C233 H232 0.961 . S
C233 H234 0.960 . S
H234 C233 0.960 . S
H235 N215 0.862 . S
O236 Co204 1.920 . S
O236 C209 1.289 . S
C237 O229 1.258 . S
C237 O230 1.266 . S
Co238 O241 1.970 . S
Co238 N255 1.989 . S
Co238 O263 1.967 . S
Co238 O270 1.920 . S
Co239 O242 1.966 . S
Co239 N248 2.022 . S
Co239 N256 1.993 . S
Co239 O264 1.941 . S
C240 O241 1.258 . S
C240 O242 1.263 . S
O241 Co238 1.970 . S
O241 C240 1.258 . S
O242 Co239 1.966 . S
O242 C240 1.263 . S
C243 O244 1.235 . S
C243 O270 1.289 . S
O244 C243 1.235 . S
C245 C247 1.400 1_656 S
C245 N248 1.351 1_545 S
C245 C250 1.501 . S
C246 C247 1.387 1_565 S
C246 N249 1.341 1_455 S
C247 C245 1.400 1_454 S
C247 C246 1.387 1_545 S
N248 Co239 2.022 . S
N248 C245 1.351 1_565 S
N248 N249 1.365 1_556 S
N249 C246 1.341 1_655 S
N249 N248 1.365 1_554 S
N249 H269 0.862 . S
C250 C245 1.501 . S
C250 H251 0.961 . S
C250 H252 0.961 1_655 S
C250 H253 0.960 . S
H251 C250 0.961 . S
H252 C250 0.961 1_455 S
H253 C250 0.960 . S
C254 N255 1.342 . S
C254 C258 1.401 . S
C254 C259 1.499 . S
N255 Co238 1.989 . S
N255 C254 1.342 . S
N255 N256 1.388 . S
N256 Co239 1.993 . S
N256 N255 1.388 . S
N256 C257 1.346 . S
C257 N256 1.346 . S
C257 C258 1.396 . S
C257 C267 1.510 1_655 S
C258 C254 1.401 . S
C258 C257 1.396 . S
C259 C254 1.499 . S
C259 H260 0.959 . S
C259 H261 0.960 . S
C259 H262 0.961 . S
H260 C259 0.959 . S
H261 C259 0.960 . S
H262 C259 0.961 . S
O263 Co238 1.967 . S
O263 C271 1.258 . S
O264 Co239 1.941 . S
O264 C271 1.266 . S
H265 C267 0.959 . S
H266 C267 0.961 . S
C267 C257 1.510 1_455 S
C267 H265 0.959 . S
C267 H266 0.961 . S
C267 H268 0.960 . S
H268 C267 0.960 . S
H269 N249 0.862 . S
O270 Co238 1.920 . S
O270 C243 1.289 . S
C271 O263 1.258 . S
C271 O264 1.266 . S
Co272 O275 1.970 . S
Co272 N289 1.989 . S
Co272 O297 1.967 . S
Co272 O304 1.920 . S
Co273 O276 1.966 . S
Co273 N282 2.022 . S
Co273 N290 1.993 . S
Co273 O298 1.941 . S
C274 O275 1.258 . S
C274 O276 1.263 . S
O275 Co272 1.970 . S
O275 C274 1.258 . S
O276 Co273 1.966 . S
O276 C274 1.263 . S
C277 O278 1.235 . S
C277 O304 1.289 . S
O278 C277 1.235 . S
C279 C281 1.400 1_545 S
C279 N282 1.351 . S
C279 C284 1.501 . S
C280 C281 1.387 1_455 S
C280 N283 1.341 1_565 S
C281 C279 1.400 1_565 S
C281 C280 1.387 1_655 S
N282 Co273 2.022 . S
N282 C279 1.351 . S
N282 N283 1.365 1_655 S
N283 C280 1.341 1_545 S
N283 N282 1.365 1_455 S
N283 H303 0.862 . S
C284 C279 1.501 . S
C284 H285 0.961 . S
C284 H286 0.961 1_545 S
C284 H287 0.960 . S
H285 C284 0.961 . S
H286 C284 0.961 1_565 S
H287 C284 0.960 . S
C288 N289 1.342 . S
C288 C292 1.401 . S
C288 C293 1.499 . S
N289 Co272 1.989 . S
N289 C288 1.342 . S
N289 N290 1.388 . S
N290 Co273 1.993 . S
N290 N289 1.388 . S
N290 C291 1.346 . S
C291 N290 1.346 . S
C291 C292 1.396 . S
C291 C301 1.510 1_545 S
C292 C288 1.401 . S
C292 C291 1.396 . S
C293 C288 1.499 . S
C293 H294 0.959 . S
C293 H295 0.960 . S
C293 H296 0.961 . S
H294 C293 0.959 . S
H295 C293 0.960 . S
H296 C293 0.961 . S
O297 Co272 1.967 . S
O297 C305 1.258 . S
O298 Co273 1.941 . S
O298 C305 1.266 . S
H299 C301 0.959 . S
H300 C301 0.961 . S
C301 C291 1.510 1_565 S
C301 H299 0.959 . S
C301 H300 0.961 . S
C301 H302 0.960 . S
H302 C301 0.960 . S
H303 N283 0.862 . S
O304 Co272 1.920 . S
O304 C277 1.289 . S
C305 O297 1.258 . S
C305 O298 1.266 . S
Co306 O309 1.970 . S
Co306 N323 1.989 . S
Co306 O331 1.967 . S
Co306 O338 1.920 . S
Co307 O310 1.966 . S
Co307 N316 2.022 . S
Co307 N324 1.993 . S
Co307 O332 1.941 . S
C308 O309 1.258 . S
C308 O310 1.263 . S
O309 Co306 1.970 . S
O309 C308 1.258 . S
O310 Co307 1.966 . S
O310 C308 1.263 . S
C311 O312 1.235 . S
C311 O338 1.289 . S
O312 C311 1.235 . S
C313 C315 1.400 . S
C313 N316 1.351 . S
C313 C318 1.501 . S
C314 C315 1.387 . S
C314 N317 1.341 . S
C315 C313 1.400 . S
C315 C314 1.387 . S
N316 Co307 2.022 . S
N316 C313 1.351 . S
N316 N317 1.365 . S
N317 C314 1.341 . S
N317 N316 1.365 . S
N317 H337 0.862 . S
C318 C313 1.501 . S
C318 H319 0.961 . S
C318 H320 0.961 . S
C318 H321 0.960 . S
H319 C318 0.961 . S
H320 C318 0.961 . S
H321 C318 0.960 . S
C322 N323 1.342 . S
C322 C326 1.401 . S
C322 C327 1.499 . S
N323 Co306 1.989 . S
N323 C322 1.342 . S
N323 N324 1.388 . S
N324 Co307 1.993 . S
N324 N323 1.388 . S
N324 C325 1.346 . S
C325 N324 1.346 . S
C325 C326 1.396 . S
C325 C335 1.510 . S
C326 C322 1.401 . S
C326 C325 1.396 . S
C327 C322 1.499 . S
C327 H328 0.959 . S
C327 H329 0.960 . S
C327 H330 0.961 . S
H328 C327 0.959 . S
H329 C327 0.960 . S
H330 C327 0.961 . S
O331 Co306 1.967 . S
O331 C339 1.258 . S
O332 Co307 1.941 . S
O332 C339 1.266 . S
H333 C335 0.959 . S
H334 C335 0.961 . S
C335 C325 1.510 . S
C335 H333 0.959 . S
C335 H334 0.961 . S
C335 H336 0.960 . S
H336 C335 0.960 . S
H337 N317 0.862 . S
O338 Co306 1.920 . S
O338 C311 1.289 . S
C339 O331 1.258 . S
C339 O332 1.266 . S
Co340 O343 1.970 . S
Co340 N357 1.989 . S
Co340 O365 1.967 . S
Co340 O372 1.920 . S
Co341 O344 1.966 . S
Co341 N350 2.022 . S
Co341 N358 1.993 . S
Co341 O366 1.941 . S
C342 O343 1.258 . S
C342 O344 1.263 . S
O343 Co340 1.970 . S
O343 C342 1.258 . S
O344 Co341 1.966 . S
O344 C342 1.263 . S
C345 O346 1.235 1_565 S
C345 O372 1.289 . S
O346 C345 1.235 1_545 S
C347 C349 1.400 . S
C347 N350 1.351 . S
C347 C352 1.501 . S
C348 C349 1.387 . S
C348 N351 1.341 . S
C349 C347 1.400 . S
C349 C348 1.387 . S
N350 Co341 2.022 . S
N350 C347 1.351 . S
N350 N351 1.365 . S
N351 C348 1.341 . S
N351 N350 1.365 . S
N351 H371 0.862 . S
C352 C347 1.501 . S
C352 H353 0.961 . S
C352 H354 0.961 . S
C352 H355 0.960 . S
H353 C352 0.961 . S
H354 C352 0.961 . S
H355 C352 0.960 . S
C356 N357 1.342 . S
C356 C360 1.401 . S
C356 C361 1.499 1_554 S
N357 Co340 1.989 . S
N357 C356 1.342 . S
N357 N358 1.388 . S
N358 Co341 1.993 . S
N358 N357 1.388 . S
N358 C359 1.346 . S
C359 N358 1.346 . S
C359 C360 1.396 . S
C359 C369 1.510 . S
C360 C356 1.401 . S
C360 C359 1.396 . S
C361 C356 1.499 1_556 S
C361 H362 0.959 . S
C361 H363 0.960 . S
C361 H364 0.961 . S
H362 C361 0.959 . S
H363 C361 0.960 . S
H364 C361 0.961 . S
O365 Co340 1.967 . S
O365 C373 1.258 . S
O366 Co341 1.941 . S
O366 C373 1.266 . S
H367 C369 0.959 . S
H368 C369 0.961 . S
C369 C359 1.510 . S
C369 H367 0.959 . S
C369 H368 0.961 . S
C369 H370 0.960 . S
H370 C369 0.960 . S
H371 N351 0.862 . S
O372 Co340 1.920 . S
O372 C345 1.289 . S
C373 O365 1.258 . S
C373 O366 1.266 . S
Co374 O377 1.970 . S
Co374 N391 1.989 . S
Co374 O399 1.967 . S
Co374 O406 1.920 . S
Co375 O378 1.966 . S
Co375 N384 2.022 . S
Co375 N392 1.993 . S
Co375 O400 1.941 . S
C376 O377 1.258 . S
C376 O378 1.263 . S
O377 Co374 1.970 . S
O377 C376 1.258 . S
O378 Co375 1.966 . S
O378 C376 1.263 . S
C379 O380 1.235 . S
C379 O406 1.289 . S
O380 C379 1.235 . S
C381 C383 1.400 . S
C381 N384 1.351 1_556 S
C381 C386 1.501 . S
C382 C383 1.387 1_554 S
C382 N385 1.341 . S
C383 C381 1.400 . S
C383 C382 1.387 1_556 S
N384 Co375 2.022 . S
N384 C381 1.351 1_554 S
N384 N385 1.365 . S
N385 C382 1.341 . S
N385 N384 1.365 . S
N385 H405 0.862 . S
C386 C381 1.501 . S
C386 H387 0.961 . S
C386 H388 0.961 . S
C386 H389 0.960 . S
H387 C386 0.961 . S
H388 C386 0.961 . S
H389 C386 0.960 . S
C390 N391 1.342 . S
C390 C394 1.401 . S
C390 C395 1.499 . S
N391 Co374 1.989 . S
N391 C390 1.342 . S
N391 N392 1.388 . S
N392 Co375 1.993 . S
N392 N391 1.388 . S
N392 C393 1.346 . S
C393 N392 1.346 . S
C393 C394 1.396 . S
C393 C403 1.510 . S
C394 C390 1.401 . S
C394 C393 1.396 . S
C395 C390 1.499 . S
C395 H396 0.959 . S
C395 H397 0.960 . S
C395 H398 0.961 . S
H396 C395 0.959 . S
H397 C395 0.960 . S
H398 C395 0.961 . S
O399 Co374 1.967 . S
O399 C407 1.258 . S
O400 Co375 1.941 . S
O400 C407 1.266 . S
H401 C403 0.959 . S
H402 C403 0.961 . S
C403 C393 1.510 . S
C403 H401 0.959 . S
C403 H402 0.961 . S
C403 H404 0.960 . S
H404 C403 0.960 . S
H405 N385 0.862 . S
O406 Co374 1.920 . S
O406 C379 1.289 . S
C407 O399 1.258 . S
C407 O400 1.266 . S
Co408 O411 1.970 . S
Co408 N425 1.989 . S
Co408 O433 1.967 . S
Co408 O440 1.920 . S
Co409 O412 1.966 . S
Co409 N418 2.022 . S
Co409 N426 1.993 . S
Co409 O434 1.941 . S
C410 O411 1.258 . S
C410 O412 1.263 . S
O411 Co408 1.970 . S
O411 C410 1.258 . S
O412 Co409 1.966 . S
O412 C410 1.263 . S
C413 O414 1.235 . S
C413 O440 1.289 1_554 S
O414 C413 1.235 . S
C415 C417 1.400 . S
C415 N418 1.351 . S
C415 C420 1.501 . S
C416 C417 1.387 . S
C416 N419 1.341 . S
C417 C415 1.400 . S
C417 C416 1.387 . S
N418 Co409 2.022 . S
N418 C415 1.351 . S
N418 N419 1.365 . S
N419 C416 1.341 . S
N419 N418 1.365 . S
N419 H439 0.862 . S
C420 C415 1.501 . S
C420 H421 0.961 . S
C420 H422 0.961 . S
C420 H423 0.960 . S
H421 C420 0.961 . S
H422 C420 0.961 . S
H423 C420 0.960 . S
C424 N425 1.342 . S
C424 C428 1.401 . S
C424 C429 1.499 1_455 S
N425 Co408 1.989 . S
N425 C424 1.342 . S
N425 N426 1.388 . S
N426 Co409 1.993 . S
N426 N425 1.388 . S
N426 C427 1.346 . S
C427 N426 1.346 . S
C427 C428 1.396 . S
C427 C437 1.510 . S
C428 C424 1.401 . S
C428 C427 1.396 . S
C429 C424 1.499 1_655 S
C429 H430 0.959 . S
C429 H431 0.960 . S
C429 H432 0.961 . S
H430 C429 0.959 . S
H431 C429 0.960 . S
H432 C429 0.961 . S
O433 Co408 1.967 . S
O433 C441 1.258 . S
O434 Co409 1.941 . S
O434 C441 1.266 . S
H435 C437 0.959 . S
H436 C437 0.961 . S
C437 C427 1.510 . S
C437 H435 0.959 . S
C437 H436 0.961 . S
C437 H438 0.960 . S
H438 C437 0.960 . S
H439 N419 0.862 . S
O440 Co408 1.920 . S
O440 C413 1.289 1_556 S
C441 O433 1.258 . S
C441 O434 1.266 . S
Co442 O445 1.970 . S
Co442 N459 1.989 . S
Co442 O467 1.967 . S
Co442 O474 1.920 . S
Co443 O446 1.966 . S
Co443 N452 2.022 . S
Co443 N460 1.993 . S
Co443 O468 1.941 . S
C444 O445 1.258 . S
C444 O446 1.263 . S
O445 Co442 1.970 . S
O445 C444 1.258 . S
O446 Co443 1.966 . S
O446 C444 1.263 . S
C447 O448 1.235 . S
C447 O474 1.289 . S
O448 C447 1.235 . S
C449 C451 1.400 . S
C449 N452 1.351 . S
C449 C454 1.501 . S
C450 C451 1.387 . S
C450 N453 1.341 . S
C451 C449 1.400 . S
C451 C450 1.387 . S
N452 Co443 2.022 . S
N452 C449 1.351 . S
N452 N453 1.365 . S
N453 C450 1.341 . S
N453 N452 1.365 . S
N453 H473 0.862 . S
C454 C449 1.501 . S
C454 H455 0.961 . S
C454 H456 0.961 . S
C454 H457 0.960 . S
H455 C454 0.961 . S
H456 C454 0.961 . S
H457 C454 0.960 . S
C458 N459 1.342 . S
C458 C462 1.401 . S
C458 C463 1.499 . S
N459 Co442 1.989 . S
N459 C458 1.342 . S
N459 N460 1.388 . S
N460 Co443 1.993 . S
N460 N459 1.388 . S
N460 C461 1.346 . S
C461 N460 1.346 . S
C461 C462 1.396 . S
C461 C471 1.510 . S
C462 C458 1.401 . S
C462 C461 1.396 . S
C463 C458 1.499 . S
C463 H464 0.959 . S
C463 H465 0.960 . S
C463 H466 0.961 . S
H464 C463 0.959 . S
H465 C463 0.960 . S
H466 C463 0.961 . S
O467 Co442 1.967 . S
O467 C475 1.258 . S
O468 Co443 1.941 . S
O468 C475 1.266 . S
H469 C471 0.959 . S
H470 C471 0.961 . S
C471 C461 1.510 . S
C471 H469 0.959 . S
C471 H470 0.961 . S
C471 H472 0.960 . S
H472 C471 0.960 . S
H473 N453 0.862 . S
O474 Co442 1.920 . S
O474 C447 1.289 . S
C475 O467 1.258 . S
C475 O468 1.266 . S
Co476 O479 1.970 . S
Co476 N493 1.989 . S
Co476 O501 1.967 . S
Co476 O508 1.920 . S
Co477 O480 1.966 . S
Co477 N486 2.022 . S
Co477 N494 1.993 . S
Co477 O502 1.941 . S
C478 O479 1.258 . S
C478 O480 1.263 . S
O479 Co476 1.970 . S
O479 C478 1.258 . S
O480 Co477 1.966 . S
O480 C478 1.263 . S
C481 O482 1.235 . S
C481 O508 1.289 . S
O482 C481 1.235 . S
C483 C485 1.400 . S
C483 N486 1.351 . S
C483 C488 1.501 . S
C484 C485 1.387 . S
C484 N487 1.341 . S
C485 C483 1.400 . S
C485 C484 1.387 . S
N486 Co477 2.022 . S
N486 C483 1.351 . S
N486 N487 1.365 . S
N487 C484 1.341 . S
N487 N486 1.365 . S
N487 H507 0.862 . S
C488 C483 1.501 . S
C488 H489 0.961 . S
C488 H490 0.961 . S
C488 H491 0.960 . S
H489 C488 0.961 . S
H490 C488 0.961 . S
H491 C488 0.960 . S
C492 N493 1.342 . S
C492 C496 1.401 . S
C492 C497 1.499 . S
N493 Co476 1.989 . S
N493 C492 1.342 . S
N493 N494 1.388 . S
N494 Co477 1.993 . S
N494 N493 1.388 . S
N494 C495 1.346 . S
C495 N494 1.346 . S
C495 C496 1.396 . S
C495 C505 1.510 . S
C496 C492 1.401 . S
C496 C495 1.396 . S
C497 C492 1.499 . S
C497 H498 0.959 . S
C497 H499 0.960 . S
C497 H500 0.961 . S
H498 C497 0.959 . S
H499 C497 0.960 . S
H500 C497 0.961 . S
O501 Co476 1.967 . S
O501 C509 1.258 . S
O502 Co477 1.941 . S
O502 C509 1.266 . S
H503 C505 0.959 . S
H504 C505 0.961 . S
C505 C495 1.510 . S
C505 H503 0.959 . S
C505 H504 0.961 . S
C505 H506 0.960 . S
H506 C505 0.960 . S
H507 N487 0.862 . S
O508 Co476 1.920 . S
O508 C481 1.289 . S
C509 O501 1.258 . S
C509 O502 1.266 . S
Co510 O513 1.970 . S
Co510 N527 1.989 . S
Co510 O535 1.967 . S
Co510 O542 1.920 . S
Co511 O514 1.966 . S
Co511 N520 2.022 . S
Co511 N528 1.993 . S
Co511 O536 1.941 . S
C512 O513 1.258 . S
C512 O514 1.263 . S
O513 Co510 1.970 . S
O513 C512 1.258 . S
O514 Co511 1.966 . S
O514 C512 1.263 . S
C515 O516 1.235 . S
C515 O542 1.289 . S
O516 C515 1.235 . S
C517 C519 1.400 . S
C517 N520 1.351 . S
C517 C522 1.501 . S
C518 C519 1.387 . S
C518 N521 1.341 . S
C519 C517 1.400 . S
C519 C518 1.387 . S
N520 Co511 2.022 . S
N520 C517 1.351 . S
N520 N521 1.365 . S
N521 C518 1.341 . S
N521 N520 1.365 . S
N521 H541 0.862 . S
C522 C517 1.501 . S
C522 H523 0.961 . S
C522 H524 0.961 . S
C522 H525 0.960 . S
H523 C522 0.961 . S
H524 C522 0.961 . S
H525 C522 0.960 . S
C526 N527 1.342 . S
C526 C530 1.401 . S
C526 C531 1.499 . S
N527 Co510 1.989 . S
N527 C526 1.342 . S
N527 N528 1.388 . S
N528 Co511 1.993 . S
N528 N527 1.388 . S
N528 C529 1.346 . S
C529 N528 1.346 . S
C529 C530 1.396 . S
C529 C539 1.510 . S
C530 C526 1.401 . S
C530 C529 1.396 . S
C531 C526 1.499 . S
C531 H532 0.959 . S
C531 H533 0.960 . S
C531 H534 0.961 . S
H532 C531 0.959 . S
H533 C531 0.960 . S
H534 C531 0.961 . S
O535 Co510 1.967 . S
O535 C543 1.258 . S
O536 Co511 1.941 . S
O536 C543 1.266 . S
H537 C539 0.959 . S
H538 C539 0.961 . S
C539 C529 1.510 . S
C539 H537 0.959 . S
C539 H538 0.961 . S
C539 H540 0.960 . S
H540 C539 0.960 . S
H541 N521 0.862 . S
O542 Co510 1.920 . S
O542 C515 1.289 . S
C543 O535 1.258 . S
C543 O536 1.266 . S
C9 C515 0.862 . S
C281 C39 1.830 1_655 S
C417 C77 0.316 . S
C111 C345 1.196 . S
C379 C43 1.643 . S
C73 C311 0.928 . S
C107 C451 1.295 . S
C5 C247 0.890 . S
C277 C145 1.590 . S
C413 C179 1.011 1_554 S
C209 C349 1.400 . S
C213 C447 1.167 1_655 S
C141 C383 1.705 . S
C485 C243 0.848 . S
C315 C175 1.371 . S
C519 C481 0.825 . S
C2 C54 2.860 1_545 S
C36 C101 3.450 . S
C70 C104 3.388 1_565 S
C122 C33 2.403 1_556 S
C20 C190 2.613 1_455 S
C169 C135 2.641 . S
C237 C67 2.874 1_655 S
C496 C88 2.450 . S
C292 C240 3.083 1_545 S
C274 C308 3.506 . S
C339 C342 3.286 1_545 S
C360 C271 2.633 1_554 S
C428 C258 2.468 1_455 S
C407 C373 2.521 . S
C305 C475 2.509 1_655 S
C530 C326 2.427 . S
C156 C478 3.052 . S
C138 C172 3.693 1_556 S
C203 C206 3.094 . S
C509 C224 2.238 . S
C394 C512 3.057 . S
C410 C376 3.440 1_556 S
C441 C444 3.229 . S
C543 C462 2.613 . S
