# Generated by pormake.
# Topology wjg, (4)-cn, num edge types: 1
# Building blocks:
#     Node 0, Type 0, BuildingBlock: CEKHIL_clean_sbu_0, # of connection points: 4
#     Node 1, Type 0, BuildingBlock: CEKHIL_clean_sbu_0, # of connection points: 4
#     Node 2, Type 0, BuildingBlock: CEKHIL_clean_sbu_0, # of connection points: 4
#     Node 3, Type 0, BuildingBlock: CEKHIL_clean_sbu_0, # of connection points: 4
#     Node 4, Type 0, BuildingBlock: CEKHIL_clean_sbu_0, # of connection points: 4
#     Node 5, Type 0, BuildingBlock: CEKHIL_clean_sbu_0, # of connection points: 4
#     Node 6, Type 0, BuildingBlock: CEKHIL_clean_sbu_0, # of connection points: 4
#     Node 7, Type 0, BuildingBlock: CEKHIL_clean_sbu_0, # of connection points: 4
#     Node 8, Type 0, BuildingBlock: CEKHIL_clean_sbu_0, # of connection points: 4
#     Node 9, Type 0, BuildingBlock: CEKHIL_clean_sbu_0, # of connection points: 4
#     Node 10, Type 0, BuildingBlock: CEKHIL_clean_sbu_0, # of connection points: 4
#     Node 11, Type 0, BuildingBlock: CEKHIL_clean_sbu_0, # of connection points: 4
#     Edge 12, Type (0, 0), BuildingBlock: EZIPEK_clean_linker_0, # of connection points: 2
#     Edge 13, Type (0, 0), BuildingBlock: EZIPEK_clean_linker_0, # of connection points: 2
#     Edge 14, Type (0, 0), BuildingBlock: EZIPEK_clean_linker_0, # of connection points: 2
#     Edge 15, Type (0, 0), BuildingBlock: EZIPEK_clean_linker_0, # of connection points: 2
#     Edge 16, Type (0, 0), BuildingBlock: EZIPEK_clean_linker_0, # of connection points: 2
#     Edge 17, Type (0, 0), BuildingBlock: EZIPEK_clean_linker_0, # of connection points: 2
#     Edge 18, Type (0, 0), BuildingBlock: EZIPEK_clean_linker_0, # of connection points: 2
#     Edge 19, Type (0, 0), BuildingBlock: EZIPEK_clean_linker_0, # of connection points: 2
#     Edge 20, Type (0, 0), BuildingBlock: EZIPEK_clean_linker_0, # of connection points: 2
#     Edge 21, Type (0, 0), BuildingBlock: EZIPEK_clean_linker_0, # of connection points: 2
#     Edge 22, Type (0, 0), BuildingBlock: EZIPEK_clean_linker_0, # of connection points: 2
#     Edge 23, Type (0, 0), BuildingBlock: EZIPEK_clean_linker_0, # of connection points: 2
#     Edge 24, Type (0, 0), BuildingBlock: EZIPEK_clean_linker_0, # of connection points: 2
#     Edge 25, Type (0, 0), BuildingBlock: EZIPEK_clean_linker_0, # of connection points: 2
#     Edge 26, Type (0, 0), BuildingBlock: EZIPEK_clean_linker_0, # of connection points: 2
#     Edge 27, Type (0, 0), BuildingBlock: EZIPEK_clean_linker_0, # of connection points: 2
#     Edge 28, Type (0, 0), BuildingBlock: EZIPEK_clean_linker_0, # of connection points: 2
#     Edge 29, Type (0, 0), BuildingBlock: EZIPEK_clean_linker_0, # of connection points: 2
#     Edge 30, Type (0, 0), BuildingBlock: EZIPEK_clean_linker_0, # of connection points: 2
#     Edge 31, Type (0, 0), BuildingBlock: EZIPEK_clean_linker_0, # of connection points: 2
#     Edge 32, Type (0, 0), BuildingBlock: EZIPEK_clean_linker_0, # of connection points: 2
#     Edge 33, Type (0, 0), BuildingBlock: EZIPEK_clean_linker_0, # of connection points: 2
#     Edge 34, Type (0, 0), BuildingBlock: EZIPEK_clean_linker_0, # of connection points: 2
#     Edge 35, Type (0, 0), BuildingBlock: EZIPEK_clean_linker_0, # of connection points: 2
# Relax obj value: 0.324
# Max RMSD: 0.122
# Mean RMSD: 0.112
data_MOF--net-wjg--node1-CEKHIL_clean_sbu_0--edge1-EZIPEK_clean_linker_0
_symmetry_space_group_name_H-M    P1
_symmetry_Int_Tables_number       1
_symmetry_cell_setting            triclinic
loop_
_symmetry_equiv_pos_as_xyz
'x, y, z'
_cell_length_a     22.418196
_cell_length_b     22.293516
_cell_length_c     29.797531
_cell_angle_alpha  90.102447
_cell_angle_beta   89.909884
_cell_angle_gamma 120.14992
loop_
_atom_site_label
_atom_site_type_symbol
_atom_site_fract_x
_atom_site_fract_y
_atom_site_fract_z
_atom_type_partial_charge
Co0 Co 0.18039 0.40755 0.29764 0.0
O1 O 0.16405 0.4054 0.23387 0.0
O2 O 0.08945 0.397 0.28511 0.0
C3 C 0.28812 0.49866 0.30243 0.0
O4 O 0.18923 0.40823 0.3675 0.0
Co5 Co 0.28936 0.36399 0.31628 0.0
O6 O 0.27242 0.38037 0.37929 0.0
C7 C 0.15117 0.25766 0.29343 0.0
C8 C 0.10369 0.39622 0.24261 0.0
C9 C 0.23081 0.39929 0.39388 0.0
O10 O 0.13351 0.30345 0.29912 0.0
O11 O 0.21449 0.27381 0.291 0.0
O12 O 0.23657 0.50896 0.29718 0.0
O13 O 0.2736 0.43591 0.29308 0.0
Co14 Co 0.70769 0.1591 0.64606 0.0
O15 O 0.69677 0.13325 0.58334 0.0
O16 O 0.69863 0.06694 0.63717 0.0
C17 C 0.62955 0.19426 0.64245 0.0
O18 O 0.72214 0.17728 0.71519 0.0
Co19 Co 0.7556 0.31304 0.67117 0.0
O20 O 0.70437 0.26529 0.72667 0.0
C21 C 0.85749 0.26555 0.65538 0.0
C22 C 0.69299 0.07571 0.59434 0.0
C23 C 0.71885 0.22137 0.7423 0.0
O24 O 0.81062 0.20512 0.64212 0.0
O25 O 0.84577 0.31413 0.66701 0.0
O26 O 0.60911 0.12944 0.6497 0.0
O27 O 0.69463 0.23403 0.63556 0.0
Co28 Co 0.59738 0.71734 0.98743 0.0
O29 O 0.58987 0.70332 0.92282 0.0
O30 O 0.64536 0.66819 0.9659 0.0
C31 C 0.48429 0.68252 0.99743 0.0
O32 O 0.61321 0.7276 0.05721 0.0
Co33 Co 0.55966 0.82801 0.02278 0.0
O34 O 0.57482 0.79882 0.08196 0.0
C35 C 0.69844 0.87132 0.98505 0.0
C36 C 0.62604 0.67335 0.92539 0.0
C37 C 0.60147 0.76092 0.08906 0.0
O38 O 0.68492 0.8087 0.97966 0.0
O39 O 0.65445 0.88822 0.9983 0.0
O40 O 0.50382 0.63675 0.99578 0.0
O41 O 0.53143 0.74505 0.9889 0.0
Co42 Co 0.81228 0.58598 0.29207 0.0
O43 O 0.83359 0.59403 0.22888 0.0
O44 O 0.90545 0.60033 0.28129 0.0
C45 C 0.70588 0.49045 0.28774 0.0
O46 O 0.79754 0.57761 0.36183 0.0
Co47 Co 0.69435 0.6167 0.31107 0.0
O48 O 0.7077 0.5956 0.37362 0.0
C49 C 0.83331 0.73255 0.29615 0.0
C50 C 0.89325 0.60259 0.23858 0.0
C51 C 0.7526 0.58121 0.38821 0.0
O52 O 0.85464 0.68915 0.2971 0.0
O53 O 0.76911 0.71348 0.29539 0.0
O54 O 0.76121 0.48599 0.2877 0.0
O55 O 0.71825 0.55347 0.2827 0.0
Co56 Co 0.27985 0.84175 0.63957 0.0
O57 O 0.28366 0.86321 0.57661 0.0
O58 O 0.29808 0.9371 0.63045 0.0
C59 C 0.34944 0.79599 0.63486 0.0
O60 O 0.27766 0.83006 0.709 0.0
Co61 Co 0.21153 0.68176 0.65803 0.0
O62 O 0.22106 0.71444 0.72075 0.0
C63 C 0.12406 0.74487 0.64779 0.0
C64 C 0.29624 0.92435 0.58748 0.0
C65 C 0.25017 0.77649 0.73564 0.0
O66 O 0.17701 0.80542 0.64163 0.0
O67 O 0.12701 0.68934 0.65173 0.0
O68 O 0.37621 0.86256 0.63809 0.0
O69 O 0.28382 0.76157 0.62862 0.0
Co70 Co 0.39787 0.27025 0.98077 0.0
O71 O 0.3898 0.27445 0.91633 0.0
O72 O 0.35373 0.32465 0.96391 0.0
C73 C 0.50982 0.29472 0.978 0.0
O74 O 0.40143 0.27316 0.05094 0.0
Co75 Co 0.42834 0.15438 0.01347 0.0
O76 O 0.4293 0.19313 0.07348 0.0
C77 C 0.2903 0.11821 0.98297 0.0
C78 C 0.36167 0.31199 0.92213 0.0
C79 C 0.41413 0.23999 0.08218 0.0
O80 O 0.30535 0.18198 0.9843 0.0
O81 O 0.33552 0.09936 0.98505 0.0
O82 O 0.49578 0.34458 0.97789 0.0
O83 O 0.45579 0.23429 0.97658 0.0
Co84 Co 0.63363 0.82307 0.38161 0.0
O85 O 0.63702 0.83922 0.44566 0.0
O86 O 0.65233 0.91767 0.39527 0.0
C87 C 0.53525 0.71773 0.38263 0.0
O88 O 0.63113 0.81699 0.31146 0.0
Co89 Co 0.65444 0.70006 0.35617 0.0
O90 O 0.63443 0.7194 0.29484 0.0
C91 C 0.77236 0.82993 0.3847 0.0
C92 C 0.64952 0.90121 0.43761 0.0
C93 C 0.62983 0.77183 0.28286 0.0
O94 O 0.7358 0.85893 0.38021 0.0
O95 O 0.74566 0.76395 0.38481 0.0
O96 O 0.53313 0.77485 0.38228 0.0
O97 O 0.59655 0.72708 0.38779 0.0
Co98 Co 0.69411 0.5384 0.68505 0.0
O99 O 0.68412 0.53326 0.74983 0.0
O100 O 0.67387 0.60941 0.70953 0.0
C101 C 0.62599 0.42287 0.67529 0.0
O102 O 0.705 0.55378 0.61509 0.0
Co103 Co 0.76404 0.4573 0.64625 0.0
O104 O 0.73925 0.48053 0.5879 0.0
C105 C 0.849 0.60203 0.67912 0.0
C106 C 0.67267 0.58422 0.74938 0.0
C107 C 0.72279 0.52701 0.58206 0.0
O108 O 0.7956 0.60551 0.6904 0.0
O109 O 0.84713 0.54743 0.66382 0.0
O110 O 0.59836 0.46169 0.67819 0.0
O111 O 0.69137 0.45362 0.68229 0.0
Co112 Co 0.15694 0.72369 0.02698 0.0
O113 O 0.13716 0.70872 0.09033 0.0
O114 O 0.05655 0.67338 0.03874 0.0
C115 C 0.23714 0.69052 0.02651 0.0
O116 O 0.16636 0.73473 0.95721 0.0
Co117 Co 0.30843 0.8404 0.00581 0.0
O118 O 0.27997 0.80885 0.94341 0.0
C119 C 0.20186 0.87745 0.0257 0.0
C120 C 0.07227 0.67849 0.08137 0.0
C121 C 0.21825 0.76948 0.92995 0.0
O122 O 0.15599 0.81332 0.02976 0.0
O123 O 0.266 0.89916 0.01933 0.0
O124 O 0.17213 0.64436 0.02424 0.0
O125 O 0.25037 0.75283 0.03477 0.0
Co126 Co 0.36537 0.17574 0.37437 0.0
O127 O 0.35843 0.15882 0.43813 0.0
O128 O 0.34461 0.08062 0.38761 0.0
C129 C 0.46456 0.27928 0.37662 0.0
O130 O 0.37223 0.18374 0.30432 0.0
Co131 Co 0.34858 0.30113 0.34836 0.0
O132 O 0.37309 0.28359 0.28773 0.0
C133 C 0.22795 0.17133 0.37515 0.0
C134 C 0.34585 0.09682 0.42992 0.0
C135 C 0.3777 0.23102 0.27604 0.0
O136 O 0.26377 0.14153 0.37103 0.0
O137 O 0.25528 0.23737 0.37481 0.0
O138 O 0.46508 0.22135 0.37744 0.0
O139 O 0.40371 0.27161 0.38077 0.0
Co140 Co 0.28978 0.45595 0.6885 0.0
O141 O 0.30107 0.46108 0.75301 0.0
O142 O 0.30718 0.38295 0.71153 0.0
C143 C 0.35972 0.57066 0.67802 0.0
O144 O 0.27752 0.43892 0.61926 0.0
Co145 Co 0.22525 0.54183 0.64827 0.0
O146 O 0.2469 0.51381 0.5904 0.0
C147 C 0.1364 0.39917 0.68364 0.0
C148 C 0.31026 0.40856 0.75155 0.0
C149 C 0.26092 0.46536 0.58575 0.0
O150 O 0.18793 0.39229 0.69461 0.0
O151 O 0.14103 0.45475 0.66796 0.0
O152 O 0.38629 0.53081 0.68071 0.0
O153 O 0.29463 0.54141 0.68537 0.0
Co154 Co 0.83789 0.26965 0.03051 0.0
O155 O 0.85704 0.27292 0.09394 0.0
O156 O 0.93813 0.32143 0.04297 0.0
C157 C 0.75323 0.29697 0.04004 0.0
O158 O 0.83024 0.27385 0.96096 0.0
Co159 Co 0.68649 0.15782 1.00292 0.0
O160 O 0.71674 0.20537 0.94396 0.0
C161 C 0.78816 0.11605 0.02179 0.0
C162 C 0.92208 0.30926 0.08549 0.0
C163 C 0.77917 0.24691 0.93251 0.0
O164 O 0.83809 0.17948 0.02213 0.0
O165 O 0.72464 0.09901 0.02504 0.0
O166 O 0.81743 0.34585 0.03803 0.0
O167 O 0.74533 0.2359 0.03952 0.0
C168 C 0.41639 0.55689 0.31777 0.0
C169 C 0.35104 0.54948 0.32796 0.0
C170 C 0.40667 0.64121 0.3854 0.0
C171 C 0.47152 0.64946 0.37357 0.0
N172 N 0.52992 0.591 0.34682 0.0
N173 N 0.2829 0.57112 0.38289 0.0
C174 C 0.47401 0.59964 0.34551 0.0
C175 C 0.34561 0.58796 0.3649 0.0
N176 N 0.42468 0.52603 0.28056 0.0
N177 N 0.40336 0.68376 0.41719 0.0
H178 H 0.23575 0.53241 0.37102 0.0
H179 H 0.27712 0.59094 0.41319 0.0
H180 H 0.44461 0.71437 0.43848 0.0
H181 H 0.3605 0.6896 0.42193 0.0
H182 H 0.47306 0.5372 0.26913 0.0
H183 H 0.38511 0.49682 0.25795 0.0
H184 H 0.53638 0.55723 0.32602 0.0
H185 H 0.564 0.60943 0.37378 0.0
C186 C 0.58586 0.26664 0.6106 0.0
C187 C 0.58514 0.22515 0.64667 0.0
C188 C 0.57316 0.30053 0.70051 0.0
C189 C 0.58677 0.34814 0.66526 0.0
N190 N 0.5775 0.36659 0.58706 0.0
N191 N 0.54795 0.18471 0.72172 0.0
C192 C 0.58236 0.32711 0.62014 0.0
C193 C 0.56702 0.23544 0.69022 0.0
N194 N 0.59532 0.25053 0.56795 0.0
N195 N 0.5711 0.31988 0.74372 0.0
H196 H 0.54339 0.13693 0.71396 0.0
H197 H 0.53107 0.18756 0.75379 0.0
H198 H 0.57313 0.36663 0.75133 0.0
H199 H 0.56915 0.29095 0.77164 0.0
H200 H 0.60339 0.28203 0.54021 0.0
H201 H 0.59634 0.20512 0.56093 0.0
H202 H 0.57148 0.35331 0.5532 0.0
H203 H 0.57333 0.40999 0.59474 0.0
C204 C 0.3937 0.67221 0.05078 0.0
C205 C 0.41265 0.66548 0.00658 0.0
C206 C 0.30378 0.65112 0.97872 0.0
C207 C 0.29252 0.67315 0.02106 0.0
N208 N 0.32473 0.70167 0.09873 0.0
N209 N 0.38655 0.64792 0.92768 0.0
C210 C 0.33683 0.6826 0.05761 0.0
C211 C 0.36752 0.65397 0.97031 0.0
N212 N 0.42895 0.6663 0.08608 0.0
N213 N 0.25336 0.62646 0.9469 0.0
H214 H 0.43124 0.64605 0.92075 0.0
H215 H 0.36 0.64836 0.89914 0.0
H216 H 0.20529 0.62116 0.95283 0.0
H217 H 0.25629 0.6041 0.91687 0.0
H218 H 0.41524 0.66566 0.11955 0.0
H219 H 0.46735 0.65381 0.08104 0.0
H220 H 0.35965 0.71725 0.12522 0.0
H221 H 0.28076 0.70476 0.10582 0.0
C222 C 0.59047 0.34382 0.36387 0.0
C223 C 0.52769 0.34388 0.3617 0.0
C224 C 0.57782 0.43525 0.30438 0.0
C225 C 0.63946 0.43213 0.3055 0.0
N226 N 0.68494 0.35551 0.31977 0.0
N227 N 0.47122 0.40758 0.34253 0.0
C228 C 0.64075 0.37868 0.33059 0.0
C229 C 0.52356 0.39443 0.33524 0.0
N230 N 0.60269 0.31144 0.39851 0.0
N231 N 0.56912 0.47266 0.27153 0.0
H232 H 0.44135 0.39067 0.37159 0.0
H233 H 0.46303 0.44179 0.32359 0.0
H234 H 0.60605 0.49881 0.24669 0.0
H235 H 0.52199 0.46926 0.26503 0.0
H236 H 0.65031 0.31466 0.40328 0.0
H237 H 0.56819 0.28934 0.42522 0.0
H238 H 0.68431 0.31389 0.33615 0.0
H239 H 0.71251 0.36852 0.28975 0.0
C240 C 0.39267 0.71892 0.60878 0.0
C241 C 0.38827 0.76001 0.64348 0.0
C242 C 0.40734 0.6926 0.70015 0.0
C243 C 0.39857 0.64458 0.6662 0.0
N244 N 0.40945 0.62229 0.589 0.0
N245 N 0.41456 0.80208 0.71952 0.0
C246 C 0.40132 0.66207 0.62051 0.0
C247 C 0.40467 0.75292 0.68836 0.0
N248 N 0.38502 0.73268 0.56518 0.0
N249 N 0.41331 0.67721 0.74368 0.0
H250 H 0.41341 0.84688 0.71127 0.0
H251 H 0.42862 0.80141 0.75267 0.0
H252 H 0.41747 0.63392 0.75193 0.0
H253 H 0.4138 0.70606 0.77128 0.0
H254 H 0.38159 0.70154 0.53813 0.0
H255 H 0.3816 0.77615 0.55628 0.0
H256 H 0.41376 0.63227 0.55471 0.0
H257 H 0.41716 0.5816 0.59834 0.0
C258 C 0.62789 0.24496 0.02941 0.0
C259 C 0.69231 0.30639 0.03287 0.0
C260 C 0.63922 0.36865 0.99777 0.0
C261 C 0.57912 0.30326 0.98839 0.0
N262 N 0.54088 0.18195 0.97487 0.0
N263 N 0.75744 0.43115 0.02581 0.0
C264 C 0.58081 0.24211 0.99781 0.0
C265 C 0.69768 0.37002 0.01875 0.0
N266 N 0.61102 0.18916 0.05623 0.0
N267 N 0.64146 0.42877 0.98571 0.0
H268 H 0.79511 0.43555 0.04814 0.0
H269 H 0.76884 0.47786 0.01085 0.0
H270 H 0.60724 0.43011 0.96273 0.0
H271 H 0.67847 0.47758 0.99722 0.0
H272 H 0.6419 0.19187 0.08324 0.0
H273 H 0.56262 0.14423 0.05469 0.0
H274 H 0.54393 0.13737 0.98064 0.0
H275 H 0.51321 0.18007 0.94624 0.0
C276 C 0.08076 0.18063 0.35225 0.0
C277 C 0.10058 0.1856 0.30682 0.0
C278 C 0.13754 0.10255 0.32158 0.0
C279 C 0.1532 0.13065 0.36545 0.0
N280 N 0.114 0.16887 0.42808 0.0
N281 N 0.10564 0.11889 0.24594 0.0
C282 C 0.11282 0.15736 0.38316 0.0
C283 C 0.1127 0.13338 0.29059 0.0
N284 N 0.03843 0.20468 0.36529 0.0
N285 N 0.15306 0.05306 0.3095 0.0
H286 H 0.08931 0.14465 0.2243 0.0
H287 H 0.11441 0.0817 0.23114 0.0
H288 H 0.17133 0.03167 0.33319 0.0
H289 H 0.14466 0.03144 0.27752 0.0
H290 H 0.02088 0.201 0.39812 0.0
H291 H 0.01749 0.22348 0.34165 0.0
H292 H 0.09123 0.19482 0.4429 0.0
H293 H 0.13989 0.1529 0.4498 0.0
C294 C 0.97091 0.27554 0.63289 0.0
C295 C 0.92657 0.27672 0.66627 0.0
C296 C 0.0221 0.33289 0.71935 0.0
C297 C 0.06702 0.33849 0.6846 0.0
N298 N 0.08407 0.29102 0.61666 0.0
N299 N 0.90434 0.27666 0.74543 0.0
C300 C 0.04105 0.30084 0.64419 0.0
C301 C 0.95047 0.29558 0.71108 0.0
N302 N 0.94762 0.25503 0.59015 0.0
N303 N 0.04823 0.36599 0.75922 0.0
H304 H 0.85183 0.24492 0.7398 0.0
H305 H 0.91827 0.28492 0.77918 0.0
H306 H 0.10093 0.39081 0.76638 0.0
H307 H 0.01824 0.37079 0.78414 0.0
H308 H 0.97988 0.26026 0.56341 0.0
H309 H 0.8964 0.2362 0.58093 0.0
H310 H 0.06729 0.25979 0.58813 0.0
H311 H 0.13573 0.30981 0.62491 0.0
C312 C 0.82518 0.02656 0.02922 0.0
C313 C 0.8 0.0617 1.00248 0.0
C314 C 0.76968 0.97406 0.94428 0.0
C315 C 0.76851 0.92919 0.97715 0.0
N316 N 0.82126 0.91633 0.04282 0.0
N317 N 0.74328 0.06445 0.93373 0.0
C318 C 0.80768 0.95787 0.01644 0.0
C319 C 0.77326 0.03579 0.95883 0.0
N320 N 0.86151 0.05705 0.06727 0.0
N321 N 0.75584 0.9521 0.90095 0.0
H322 H 0.71526 0.04146 0.9046 0.0
H323 H 0.74326 0.10921 0.9433 0.0
H324 H 0.74816 0.90355 0.89175 0.0
H325 H 0.75825 0.98419 0.87472 0.0
H326 H 0.88163 0.03456 0.08843 0.0
H327 H 0.87461 0.10743 0.07596 0.0
H328 H 0.84608 0.93106 0.07372 0.0
H329 H 0.80648 0.86582 0.03269 0.0
C330 C 0.88657 0.84205 0.38755 0.0
C331 C 0.84648 0.87076 0.37298 0.0
C332 C 0.86926 0.85696 0.29556 0.0
C333 C 0.88198 0.80456 0.31063 0.0
N334 N 0.94858 0.78316 0.36467 0.0
N335 N 0.84788 0.94989 0.31819 0.0
C336 C 0.90827 0.81088 0.35462 0.0
C337 C 0.85724 0.89581 0.32852 0.0
N338 N 0.8936 0.83567 0.43234 0.0
N339 N 0.86306 0.86421 0.2508 0.0
H340 H 0.83636 0.97531 0.3433 0.0
H341 H 0.85593 0.97138 0.2862 0.0
H342 H 0.87085 0.83357 0.2276 0.0
H343 H 0.85127 0.89999 0.23733 0.0
H344 H 0.91628 0.8088 0.44575 0.0
H345 H 0.87446 0.857 0.45559 0.0
H346 H 0.97063 0.78763 0.39613 0.0
H347 H 0.9641 0.76089 0.33973 0.0
C348 C 0.01038 0.73319 0.62623 0.0
C349 C 0.05728 0.73858 0.65971 0.0
C350 C 0.96364 0.67822 0.71363 0.0
C351 C 0.9166 0.66585 0.67873 0.0
N352 N 0.89357 0.70699 0.61011 0.0
N353 N 0.08219 0.74506 0.73853 0.0
C354 C 0.93963 0.70266 0.63779 0.0
C355 C 0.03489 0.72104 0.70478 0.0
N356 N 0.03251 0.75264 0.58323 0.0
N357 N 0.94025 0.64643 0.75415 0.0
H358 H 0.13387 0.78009 0.73193 0.0
H359 H 0.06938 0.73724 0.77247 0.0
H360 H 0.88766 0.61719 0.76154 0.0
H361 H 0.97261 0.64725 0.77949 0.0
H362 H -0.00086 0.74302 0.55638 0.0
H363 H 0.08447 0.7756 0.5744 0.0
H364 H 0.90806 0.73716 0.58113 0.0
H365 H 0.84149 0.68461 0.61858 0.0
C366 C 0.20773 0.04599 0.03863 0.0
C367 C 0.21956 0.06245 0.9926 0.0
C368 C 0.16334 0.93931 0.97554 0.0
C369 C 0.1792 0.92859 0.01974 0.0
N370 N 0.20333 0.967 0.09633 0.0
N371 N 0.19219 0.0249 0.91655 0.0
C372 C 0.19531 0.97998 0.05273 0.0
C373 C 0.18904 0.00853 0.96083 0.0
N374 N 0.21547 0.09591 0.06822 0.0
N375 N 0.1273 0.88407 0.94768 0.0
H376 H 0.21153 0.07623 0.90642 0.0
H377 H 0.17793 0.98879 0.89068 0.0
H378 H 0.10884 0.83322 0.95845 0.0
H379 H 0.11135 0.88849 0.91566 0.0
H380 H 0.20584 0.0871 0.1025 0.0
H381 H 0.22539 0.14428 0.05671 0.0
H382 H 0.22162 0.00481 0.12133 0.0
H383 H 0.19317 0.91804 0.1067 0.0
C384 C 0.0258 0.40363 0.12905 0.0
C385 C 0.97283 0.33308 0.12402 0.0
C386 C -0.00345 0.30938 0.20119 0.0
C387 C 0.05298 0.37813 0.20487 0.0
N388 N 0.1262 0.48936 0.17053 0.0
N389 N 0.9197 0.21584 0.15202 0.0
C390 C 0.06909 0.42468 0.16811 0.0
C391 C 0.96138 0.28537 0.15937 0.0
N392 N 0.03297 0.45144 0.09769 0.0
N393 N 0.97657 0.26616 0.23752 0.0
H394 H 0.89535 0.19571 0.12149 0.0
H395 H 0.91528 0.17772 0.17416 0.0
H396 H 0.00222 0.27994 0.26818 0.0
H397 H 0.93086 0.21856 0.23857 0.0
H398 H 0.06534 0.50466 0.10166 0.0
H399 H 0.00275 0.43877 0.06891 0.0
H400 H 0.1466 0.52259 0.14315 0.0
H401 H 0.15542 0.50872 0.19973 0.0
C402 C 0.61332 0.97915 0.54213 0.0
C403 C 0.68134 0.02396 0.5582 0.0
C404 C 0.72838 0.99617 0.49128 0.0
C405 C 0.6603 0.94904 0.47623 0.0
N406 N 0.53785 0.88839 0.49011 0.0
N407 N 0.80333 0.06886 0.55171 0.0
C408 C 0.60278 0.93844 0.50258 0.0
C409 C 0.73878 0.03049 0.53374 0.0
N410 N 0.55871 0.97715 0.56406 0.0
N411 N 0.7831 0.00856 0.46461 0.0
H412 H 0.81212 0.09395 0.58264 0.0
H413 H 0.84743 0.07165 0.53815 0.0
H414 H 0.77724 0.98377 0.43386 0.0
H415 H 0.83386 0.04656 0.4711 0.0
H416 H 0.50866 0.95269 0.55143 0.0
H417 H 0.56408 0.00317 0.59425 0.0
H418 H 0.49446 0.8717 0.51034 0.0
H419 H 0.52765 0.86059 0.46017 0.0
C420 C 0.61042 0.5793 0.87044 0.0
C421 C 0.64543 0.65037 0.88272 0.0
C422 C 0.70011 0.67984 0.80728 0.0
C423 C 0.65912 0.60955 0.79338 0.0
N424 N 0.56616 0.49421 0.81025 0.0
N425 N 0.72084 0.7695 0.86181 0.0
C426 C 0.61206 0.55978 0.82475 0.0
C427 C 0.68923 0.70086 0.85066 0.0
N428 N 0.57557 0.53018 0.90252 0.0
N429 N 0.7523 0.72599 0.78022 0.0
H430 H 0.71965 0.78637 0.89428 0.0
H431 H 0.74563 0.80947 0.83862 0.0
H432 H 0.76241 0.71297 0.74865 0.0
H433 H 0.7892 0.77572 0.79039 0.0
H434 H 0.55519 0.47725 0.89717 0.0
H435 H 0.57228 0.54279 0.9358 0.0
H436 H 0.52682 0.45696 0.83015 0.0
H437 H 0.5625 0.47912 0.77675 0.0
C438 C 0.96773 0.58813 0.12552 0.0
C439 C 0.02174 0.65777 0.11961 0.0
C440 C 0.00063 0.68603 0.19622 0.0
C441 C 0.94388 0.6178 0.20122 0.0
N442 N 0.86909 0.50476 0.16946 0.0
N443 N 0.07764 0.77643 0.14504 0.0
C444 C 0.92619 0.5692 0.16537 0.0
C445 C 0.03502 0.7075 0.15396 0.0
N446 N 0.95757 0.53954 0.09382 0.0
N447 N 0.02145 0.73094 0.23174 0.0
H448 H 0.10035 0.79453 0.11372 0.0
H449 H 0.08432 0.81611 0.16664 0.0
H450 H -0.00359 0.71826 0.26268 0.0
H451 H 0.06704 0.77866 0.23187 0.0
H452 H 0.92392 0.48659 0.09778 0.0
H453 H 0.98598 0.55166 0.06416 0.0
H454 H 0.8475 0.46976 0.14303 0.0
H455 H 0.84127 0.48708 0.19933 0.0
C456 C 0.26639 0.99617 0.47942 0.0
C457 C 0.33438 0.04918 0.46849 0.0
C458 C 0.37717 0.02598 0.53907 0.0
C459 C 0.30866 0.97529 0.55092 0.0
N460 N 0.18695 0.91976 0.5366 0.0
N461 N 0.45387 0.11984 0.48941 0.0
C462 C 0.253 0.96254 0.52212 0.0
C463 C 0.38951 0.06567 0.49891 0.0
N464 N 0.2146 0.97792 0.44887 0.0
N465 N 0.43074 0.03415 0.56535 0.0
H466 H 0.46625 0.14654 0.45899 0.0
H467 H 0.49444 0.1404 0.5122 0.0
H468 H 0.4234 0.00807 0.59569 0.0
H469 H 0.48243 0.06393 0.55631 0.0
H470 H 0.16526 0.9353 0.4525 0.0
H471 H 0.22225 0.00257 0.41794 0.0
H472 H 0.14323 0.9121 0.51952 0.0
H473 H 0.17596 0.89657 0.56822 0.0
C474 C 0.37642 0.40887 0.87041 0.0
C475 C 0.34063 0.33733 0.88159 0.0
C476 C 0.28173 0.31132 0.80775 0.0
C477 C 0.32381 0.38173 0.79457 0.0
N478 N 0.41968 0.49553 0.81137 0.0
N479 N 0.26116 0.21921 0.85992 0.0
C480 C 0.37312 0.43001 0.82557 0.0
C481 C 0.29406 0.2883 0.8498 0.0
N482 N 0.41402 0.45691 0.90254 0.0
N483 N 0.22729 0.26707 0.78143 0.0
H484 H 0.26311 0.20079 0.89171 0.0
H485 H 0.23435 0.18014 0.83639 0.0
H486 H 0.21578 0.28173 0.75094 0.0
H487 H 0.18992 0.21746 0.79144 0.0
H488 H 0.43463 0.51006 0.89816 0.0
H489 H 0.41973 0.44354 0.93508 0.0
H490 H 0.46047 0.53162 0.83091 0.0
H491 H 0.42225 0.51175 0.77826 0.0
C492 C 0.30298 0.44824 0.46481 0.0
C493 C 0.23634 0.41462 0.44371 0.0
C494 C 0.18491 0.40896 0.51777 0.0
C495 C 0.25079 0.4366 0.53895 0.0
N496 N 0.36929 0.466 0.53283 0.0
N497 N 0.11303 0.34683 0.45402 0.0
C498 C 0.30855 0.45027 0.51254 0.0
C499 C 0.17699 0.3904 0.47129 0.0
N500 N 0.3617 0.48217 0.43958 0.0
N501 N 0.12961 0.40155 0.54175 0.0
H502 H 0.10493 0.33001 0.4208 0.0
H503 H 0.06882 0.32161 0.47382 0.0
H504 H 0.13166 0.41146 0.57605 0.0
H505 H 0.08288 0.38978 0.52693 0.0
H506 H 0.41038 0.51383 0.45342 0.0
H507 H 0.36176 0.48568 0.40485 0.0
H508 H 0.41139 0.46983 0.51537 0.0
H509 H 0.37499 0.46768 0.56758 0.0
C510 C 0.77674 0.30425 0.86031 0.0
C511 C 0.79005 0.25685 0.88287 0.0
C512 C 0.75954 0.18566 0.81431 0.0
C513 C 0.74692 0.23386 0.79045 0.0
N514 N 0.78523 0.35912 0.79113 0.0
N515 N 0.82495 0.17166 0.8727 0.0
C516 C 0.7672 0.29884 0.81311 0.0
C517 C 0.79179 0.20428 0.85718 0.0
N518 N 0.77733 0.35755 0.8832 0.0
N519 N 0.74114 0.12177 0.79743 0.0
H520 H 0.85323 0.186 0.90254 0.0
H521 H 0.85323 0.186 0.90254 0.0
H522 H 0.70993 0.10028 0.76942 0.0
H523 H 0.75158 0.0873 0.81466 0.0
H524 H 0.7668 0.39305 0.86745 0.0
H525 H 0.78748 0.36505 0.91758 0.0
H526 H 0.79433 0.36675 0.75674 0.0
H527 H 0.79433 0.36675 0.75674 0.0
C528 C 0.56946 0.71545 0.21108 0.0
C529 C 0.62108 0.77606 0.23297 0.0
C530 C 0.66805 0.82504 0.1583 0.0
C531 C 0.62062 0.76062 0.13736 0.0
N532 N 0.5394 0.63934 0.14666 0.0
N533 N 0.72405 0.88775 0.2269 0.0
C534 C 0.57573 0.70418 0.16472 0.0
C535 C 0.67178 0.83085 0.20639 0.0
N536 N 0.51185 0.67014 0.23425 0.0
N537 N 0.70872 0.88108 0.13193 0.0
H538 H 0.72712 0.89422 0.26161 0.0
H539 H 0.76606 0.92695 0.20983 0.0
H540 H 0.71017 0.8774 0.0971 0.0
H541 H 0.73836 0.93143 0.14413 0.0
H542 H 0.46903 0.62929 0.21873 0.0
H543 H 0.50385 0.67963 0.26737 0.0
H544 H 0.50932 0.59522 0.16596 0.0
H545 H 0.54616 0.6293 0.11339 0.0
C546 C 0.68137 0.52932 0.45891 0.0
C547 C 0.74804 0.5669 0.43829 0.0
C548 C 0.79893 0.58302 0.51373 0.0
C549 C 0.73225 0.55299 0.53435 0.0
N550 N 0.61157 0.51268 0.5252 0.0
N551 N 0.87005 0.64419 0.44948 0.0
C552 C 0.6741 0.53155 0.50645 0.0
C553 C 0.80685 0.598 0.46666 0.0
N554 N 0.62483 0.488 0.43331 0.0
N555 N 0.85502 0.59548 0.53872 0.0
H556 H 0.87815 0.65782 0.4157 0.0
H557 H 0.91302 0.674 0.46961 0.0
H558 H 0.8526 0.58675 0.57317 0.0
H559 H 0.90289 0.60973 0.52459 0.0
H560 H 0.57629 0.45473 0.44686 0.0
H561 H 0.62826 0.48056 0.39913 0.0
H562 H 0.5682 0.50181 0.50627 0.0
H563 H 0.60541 0.51582 0.55966 0.0
C564 C 0.23111 0.83221 0.85648 0.0
C565 C 0.21013 0.76883 0.87991 0.0
C566 C 0.23614 0.72403 0.81272 0.0
C567 C 0.24605 0.78193 0.78633 0.0
N568 N 0.23689 0.88632 0.78509 0.0
N569 N 0.16884 0.64709 0.87278 0.0
C570 C 0.23899 0.83492 0.80862 0.0
C571 C 0.20445 0.71225 0.85548 0.0
N572 N 0.24498 0.89051 0.87987 0.0
N573 N 0.26021 0.68192 0.79831 0.0
H574 H 0.14023 0.63688 0.90227 0.0
H575 H 0.16077 0.60342 0.85479 0.0
H576 H 0.29128 0.69312 0.7699 0.0
H577 H 0.25719 0.64183 0.81802 0.0
H578 H 0.26776 0.93958 0.86526 0.0
H579 H 0.23831 0.89043 0.91449 0.0
H580 H 0.22446 0.92095 0.80005 0.0
H581 H 0.24065 0.89103 0.75041 0.0
C582 C 0.33196 0.21408 0.19746 0.0
C583 C 0.38738 0.22668 0.22644 0.0
C584 C 0.46483 0.26245 0.16053 0.0
C585 C 0.40936 0.25167 0.13173 0.0
N586 N 0.29539 0.2363 0.12585 0.0
N587 N 0.50934 0.27426 0.2366 0.0
C588 C 0.34456 0.23339 0.15116 0.0
C589 C 0.45469 0.254 0.20818 0.0
N590 N 0.26639 0.18197 0.2142 0.0
N591 N 0.52753 0.28068 0.14203 0.0
H592 H 0.50324 0.26571 0.27115 0.0
H593 H 0.56068 0.30258 0.22649 0.0
H594 H 0.53876 0.29408 0.10825 0.0
H595 H 0.56757 0.28063 0.15964 0.0
H596 H 0.22289 0.16433 0.19402 0.0
H597 H 0.25531 0.16671 0.24769 0.0
H598 H 0.24963 0.23017 0.13906 0.0
H599 H 0.3034 0.25249 0.09257 0.0
loop_
_geom_bond_atom_site_label_1
_geom_bond_atom_site_label_2
_geom_bond_distance
_geom_bond_site_symmetry_2
_ccdc_geom_bond_type
Co0 O1 2.216 . S
Co0 O2 2.091 . S
Co0 O4 2.004 . S
Co0 O10 2.021 . S
Co0 O12 2.137 . S
Co0 O13 2.244 . S
O1 Co0 2.216 . S
O1 C8 1.247 . S
O2 Co0 2.091 . S
O2 C8 1.261 . S
C3 O12 1.247 . S
C3 O13 1.272 . S
O4 Co0 2.004 . S
O4 C9 1.259 . S
Co5 O6 2.061 . S
Co5 O11 2.052 . S
Co5 O13 2.135 . S
O6 Co5 2.061 . S
O6 C9 1.235 . S
C7 O10 1.238 . S
C7 O11 1.241 . S
C8 O1 1.247 . S
C8 O2 1.261 . S
C9 O4 1.259 . S
C9 O6 1.235 . S
O10 Co0 2.021 . S
O10 C7 1.238 . S
O11 Co5 2.052 . S
O11 C7 1.241 . S
O12 Co0 2.137 . S
O12 C3 1.247 . S
O13 Co0 2.244 . S
O13 C3 1.272 . S
O13 Co5 2.135 . S
Co14 O15 2.216 . S
Co14 O16 2.091 . S
Co14 O18 2.004 . S
Co14 O24 2.021 . S
Co14 O26 2.137 . S
Co14 O27 2.244 . S
O15 Co14 2.216 . S
O15 C22 1.247 . S
O16 Co14 2.091 . S
O16 C22 1.261 . S
C17 O26 1.247 . S
C17 O27 1.272 . S
O18 Co14 2.004 . S
O18 C23 1.259 . S
Co19 O20 2.061 . S
Co19 O25 2.052 . S
Co19 O27 2.135 . S
O20 Co19 2.061 . S
O20 C23 1.235 . S
C21 O24 1.238 . S
C21 O25 1.241 . S
C22 O15 1.247 . S
C22 O16 1.261 . S
C23 O18 1.259 . S
C23 O20 1.235 . S
O24 Co14 2.021 . S
O24 C21 1.238 . S
O25 Co19 2.052 . S
O25 C21 1.241 . S
O26 Co14 2.137 . S
O26 C17 1.247 . S
O27 Co14 2.244 . S
O27 C17 1.272 . S
O27 Co19 2.135 . S
Co28 O29 2.216 . S
Co28 O30 2.091 . S
Co28 O32 2.004 1_556 S
Co28 O38 2.021 . S
Co28 O40 2.137 . S
Co28 O41 2.244 1_556 S
O29 Co28 2.216 . S
O29 C36 1.247 . S
O30 Co28 2.091 . S
O30 C36 1.261 . S
C31 O40 1.247 . S
C31 O41 1.272 1_556 S
O32 Co28 2.004 1_554 S
O32 C37 1.259 . S
Co33 O34 2.061 . S
Co33 O39 2.052 . S
Co33 O41 2.133 . S
O34 Co33 2.061 . S
O34 C37 1.235 . S
C35 O38 1.238 . S
C35 O39 1.241 1_556 S
C36 O29 1.247 . S
C36 O30 1.261 . S
C37 O32 1.259 . S
C37 O34 1.235 . S
O38 Co28 2.021 . S
O38 C35 1.238 . S
O39 Co33 2.052 . S
O39 C35 1.241 1_554 S
O40 Co28 2.137 . S
O40 C31 1.247 . S
O41 Co28 2.244 1_554 S
O41 C31 1.272 1_554 S
O41 Co33 2.133 . S
Co42 O43 2.216 . S
Co42 O44 2.091 . S
Co42 O46 2.004 . S
Co42 O52 2.021 . S
Co42 O54 2.137 . S
Co42 O55 2.244 . S
O43 Co42 2.216 . S
O43 C50 1.247 . S
O44 Co42 2.091 . S
O44 C50 1.261 . S
C45 O54 1.247 . S
C45 O55 1.272 . S
O46 Co42 2.004 . S
O46 C51 1.259 . S
Co47 O48 2.061 . S
Co47 O53 2.052 . S
Co47 O55 2.135 . S
O48 Co47 2.061 . S
O48 C51 1.235 . S
C49 O52 1.238 . S
C49 O53 1.241 . S
C50 O43 1.247 . S
C50 O44 1.261 . S
C51 O46 1.259 . S
C51 O48 1.235 . S
O52 Co42 2.021 . S
O52 C49 1.238 . S
O53 Co47 2.052 . S
O53 C49 1.241 . S
O54 Co42 2.137 . S
O54 C45 1.247 . S
O55 Co42 2.244 . S
O55 C45 1.272 . S
O55 Co47 2.135 . S
Co56 O57 2.216 . S
Co56 O58 2.091 . S
Co56 O60 2.004 . S
Co56 O66 2.021 . S
Co56 O68 2.137 . S
Co56 O69 2.244 . S
O57 Co56 2.216 . S
O57 C64 1.247 . S
O58 Co56 2.091 . S
O58 C64 1.261 . S
C59 O68 1.247 . S
C59 O69 1.272 . S
O60 Co56 2.004 . S
O60 C65 1.259 . S
Co61 O62 2.061 . S
Co61 O67 2.052 . S
Co61 O69 2.135 . S
O62 Co61 2.061 . S
O62 C65 1.235 . S
C63 O66 1.238 . S
C63 O67 1.241 . S
C64 O57 1.247 . S
C64 O58 1.261 . S
C65 O60 1.259 . S
C65 O62 1.235 . S
O66 Co56 2.021 . S
O66 C63 1.238 . S
O67 Co61 2.052 . S
O67 C63 1.241 . S
O68 Co56 2.137 . S
O68 C59 1.247 . S
O69 Co56 2.244 . S
O69 C59 1.272 . S
O69 Co61 2.135 . S
Co70 O71 2.216 . S
Co70 O72 2.091 . S
Co70 O74 2.004 1_556 S
Co70 O80 2.021 . S
Co70 O82 2.137 . S
Co70 O83 2.244 1_556 S
O71 Co70 2.216 . S
O71 C78 1.247 . S
O72 Co70 2.091 . S
O72 C78 1.261 . S
C73 O82 1.247 . S
C73 O83 1.272 1_556 S
O74 Co70 2.004 1_554 S
O74 C79 1.259 . S
Co75 O76 2.061 . S
Co75 O81 2.052 . S
Co75 O83 2.133 . S
O76 Co75 2.061 . S
O76 C79 1.235 . S
C77 O80 1.238 . S
C77 O81 1.241 1_556 S
C78 O71 1.247 . S
C78 O72 1.261 . S
C79 O74 1.259 . S
C79 O76 1.235 . S
O80 Co70 2.021 . S
O80 C77 1.238 . S
O81 Co75 2.052 . S
O81 C77 1.241 1_554 S
O82 Co70 2.137 . S
O82 C73 1.247 . S
O83 Co70 2.244 1_554 S
O83 C73 1.272 1_554 S
O83 Co75 2.133 . S
Co84 O85 2.216 . S
Co84 O86 2.091 . S
Co84 O88 2.004 . S
Co84 O94 2.021 . S
Co84 O96 2.137 . S
Co84 O97 2.244 . S
O85 Co84 2.216 . S
O85 C92 1.247 . S
O86 Co84 2.091 . S
O86 C92 1.261 . S
C87 O96 1.247 . S
C87 O97 1.272 . S
O88 Co84 2.004 . S
O88 C93 1.259 . S
Co89 O90 2.061 . S
Co89 O95 2.052 . S
Co89 O97 2.135 . S
O90 Co89 2.061 . S
O90 C93 1.235 . S
C91 O94 1.238 . S
C91 O95 1.241 . S
C92 O85 1.247 . S
C92 O86 1.261 . S
C93 O88 1.259 . S
C93 O90 1.235 . S
O94 Co84 2.021 . S
O94 C91 1.238 . S
O95 Co89 2.052 . S
O95 C91 1.241 . S
O96 Co84 2.137 . S
O96 C87 1.247 . S
O97 Co84 2.244 . S
O97 C87 1.272 . S
O97 Co89 2.135 . S
Co98 O99 2.216 . S
Co98 O100 2.091 . S
Co98 O102 2.004 . S
Co98 O108 2.021 . S
Co98 O110 2.137 . S
Co98 O111 2.244 . S
O99 Co98 2.216 . S
O99 C106 1.247 . S
O100 Co98 2.091 . S
O100 C106 1.261 . S
C101 O110 1.247 . S
C101 O111 1.272 . S
O102 Co98 2.004 . S
O102 C107 1.259 . S
Co103 O104 2.061 . S
Co103 O109 2.052 . S
Co103 O111 2.135 . S
O104 Co103 2.061 . S
O104 C107 1.235 . S
C105 O108 1.238 . S
C105 O109 1.241 . S
C106 O99 1.247 . S
C106 O100 1.261 . S
C107 O102 1.259 . S
C107 O104 1.235 . S
O108 Co98 2.021 . S
O108 C105 1.238 . S
O109 Co103 2.052 . S
O109 C105 1.241 . S
O110 Co98 2.137 . S
O110 C101 1.247 . S
O111 Co98 2.244 . S
O111 C101 1.272 . S
O111 Co103 2.135 . S
Co112 O113 2.216 . S
Co112 O114 2.091 . S
Co112 O116 2.004 1_554 S
Co112 O122 2.021 . S
Co112 O124 2.137 . S
Co112 O125 2.244 1_554 S
O113 Co112 2.216 . S
O113 C120 1.247 . S
O114 Co112 2.091 . S
O114 C120 1.261 . S
C115 O124 1.247 . S
C115 O125 1.272 1_554 S
O116 Co112 2.004 1_556 S
O116 C121 1.259 . S
Co117 O118 2.061 . S
Co117 O123 2.052 . S
Co117 O125 2.133 . S
O118 Co117 2.061 . S
O118 C121 1.235 . S
C119 O122 1.238 . S
C119 O123 1.241 1_554 S
C120 O113 1.247 . S
C120 O114 1.261 . S
C121 O116 1.259 . S
C121 O118 1.235 . S
O122 Co112 2.021 . S
O122 C119 1.238 . S
O123 Co117 2.052 . S
O123 C119 1.241 1_556 S
O124 Co112 2.137 . S
O124 C115 1.247 . S
O125 Co112 2.244 1_556 S
O125 C115 1.272 1_556 S
O125 Co117 2.133 . S
Co126 O127 2.216 . S
Co126 O128 2.091 . S
Co126 O130 2.004 . S
Co126 O136 2.021 . S
Co126 O138 2.137 . S
Co126 O139 2.244 . S
O127 Co126 2.216 . S
O127 C134 1.247 . S
O128 Co126 2.091 . S
O128 C134 1.261 . S
C129 O138 1.247 . S
C129 O139 1.272 . S
O130 Co126 2.004 . S
O130 C135 1.259 . S
Co131 O132 2.061 . S
Co131 O137 2.052 . S
Co131 O139 2.135 . S
O132 Co131 2.061 . S
O132 C135 1.235 . S
C133 O136 1.238 . S
C133 O137 1.241 . S
C134 O127 1.247 . S
C134 O128 1.261 . S
C135 O130 1.259 . S
C135 O132 1.235 . S
O136 Co126 2.021 . S
O136 C133 1.238 . S
O137 Co131 2.052 . S
O137 C133 1.241 . S
O138 Co126 2.137 . S
O138 C129 1.247 . S
O139 Co126 2.244 . S
O139 C129 1.272 . S
O139 Co131 2.135 . S
Co140 O141 2.216 . S
Co140 O142 2.091 . S
Co140 O144 2.004 . S
Co140 O150 2.021 . S
Co140 O152 2.137 . S
Co140 O153 2.244 . S
O141 Co140 2.216 . S
O141 C148 1.247 . S
O142 Co140 2.091 . S
O142 C148 1.261 . S
C143 O152 1.247 . S
C143 O153 1.272 . S
O144 Co140 2.004 . S
O144 C149 1.259 . S
Co145 O146 2.061 . S
Co145 O151 2.052 . S
Co145 O153 2.135 . S
O146 Co145 2.061 . S
O146 C149 1.235 . S
C147 O150 1.238 . S
C147 O151 1.241 . S
C148 O141 1.247 . S
C148 O142 1.261 . S
C149 O144 1.259 . S
C149 O146 1.235 . S
O150 Co140 2.021 . S
O150 C147 1.238 . S
O151 Co145 2.052 . S
O151 C147 1.241 . S
O152 Co140 2.137 . S
O152 C143 1.247 . S
O153 Co140 2.244 . S
O153 C143 1.272 . S
O153 Co145 2.135 . S
Co154 O155 2.216 . S
Co154 O156 2.091 . S
Co154 O158 2.004 1_554 S
Co154 O164 2.021 . S
Co154 O166 2.137 . S
Co154 O167 2.244 1_554 S
O155 Co154 2.216 . S
O155 C162 1.247 . S
O156 Co154 2.091 . S
O156 C162 1.261 . S
C157 O166 1.247 . S
C157 O167 1.272 1_554 S
O158 Co154 2.004 1_556 S
O158 C163 1.259 . S
Co159 O160 2.061 . S
Co159 O165 2.052 . S
Co159 O167 2.133 . S
O160 Co159 2.061 . S
O160 C163 1.235 . S
C161 O164 1.238 . S
C161 O165 1.241 1_554 S
C162 O155 1.247 . S
C162 O156 1.261 . S
C163 O158 1.259 . S
C163 O160 1.235 . S
O164 Co154 2.021 . S
O164 C161 1.238 . S
O165 Co159 2.052 . S
O165 C161 1.241 1_556 S
O166 Co154 2.137 . S
O166 C157 1.247 . S
O167 Co154 2.244 1_556 S
O167 C157 1.272 1_556 S
O167 Co159 2.133 . S
C168 C169 1.363 . S
C168 C174 1.379 . S
C168 N176 1.356 . S
C169 C168 1.363 . S
C169 C175 1.363 . S
C170 C171 1.363 . S
C170 C175 1.379 . S
C170 N177 1.356 . S
C171 C170 1.363 . S
C171 C174 1.363 . S
N172 C174 1.356 . S
N172 H184 0.984 . S
N172 H185 0.985 . S
N173 C175 1.356 . S
N173 H178 0.984 . S
N173 H179 0.985 . S
C174 C168 1.379 . S
C174 C171 1.363 . S
C174 N172 1.356 . S
C175 C169 1.363 . S
C175 C170 1.379 . S
C175 N173 1.356 . S
N176 C168 1.356 . S
N176 H182 0.984 . S
N176 H183 0.984 . S
N177 C170 1.356 . S
N177 H180 0.984 . S
N177 H181 0.985 . S
H178 N173 0.984 . S
H179 N173 0.985 . S
H180 N177 0.984 . S
H181 N177 0.985 . S
H182 N176 0.984 . S
H183 N176 0.984 . S
H184 N172 0.984 . S
H185 N172 0.985 . S
C186 C187 1.363 . S
C186 C192 1.379 . S
C186 N194 1.356 . S
C187 C186 1.363 . S
C187 C193 1.363 . S
C188 C189 1.363 . S
C188 C193 1.379 . S
C188 N195 1.356 . S
C189 C188 1.363 . S
C189 C192 1.363 . S
N190 C192 1.356 . S
N190 H202 0.984 . S
N190 H203 0.985 . S
N191 C193 1.356 . S
N191 H196 0.984 . S
N191 H197 0.985 . S
C192 C186 1.379 . S
C192 C189 1.363 . S
C192 N190 1.356 . S
C193 C187 1.363 . S
C193 C188 1.379 . S
C193 N191 1.356 . S
N194 C186 1.356 . S
N194 H200 0.984 . S
N194 H201 0.984 . S
N195 C188 1.356 . S
N195 H198 0.984 . S
N195 H199 0.985 . S
H196 N191 0.984 . S
H197 N191 0.985 . S
H198 N195 0.984 . S
H199 N195 0.985 . S
H200 N194 0.984 . S
H201 N194 0.984 . S
H202 N190 0.984 . S
H203 N190 0.985 . S
C204 C205 1.363 1_554 S
C204 C210 1.379 . S
C204 N212 1.356 . S
C205 C204 1.363 1_556 S
C205 C211 1.363 . S
C206 C207 1.363 1_556 S
C206 C211 1.379 . S
C206 N213 1.356 . S
C207 C206 1.363 1_554 S
C207 C210 1.363 . S
N208 C210 1.356 . S
N208 H220 0.984 . S
N208 H221 0.985 . S
N209 C211 1.356 . S
N209 H214 0.984 . S
N209 H215 0.985 . S
C210 C204 1.379 . S
C210 C207 1.363 . S
C210 N208 1.356 . S
C211 C205 1.363 . S
C211 C206 1.379 . S
C211 N209 1.356 . S
N212 C204 1.356 . S
N212 H218 0.984 . S
N212 H219 0.984 . S
N213 C206 1.356 . S
N213 H216 0.984 . S
N213 H217 0.985 . S
H214 N209 0.984 . S
H215 N209 0.985 . S
H216 N213 0.984 . S
H217 N213 0.985 . S
H218 N212 0.984 . S
H219 N212 0.984 . S
H220 N208 0.984 . S
H221 N208 0.985 . S
C222 C223 1.363 . S
C222 C228 1.379 . S
C222 N230 1.356 . S
C223 C222 1.363 . S
C223 C229 1.363 . S
C224 C225 1.363 . S
C224 C229 1.379 . S
C224 N231 1.356 . S
C225 C224 1.363 . S
C225 C228 1.363 . S
N226 C228 1.356 . S
N226 H238 0.984 . S
N226 H239 0.985 . S
N227 C229 1.356 . S
N227 H232 0.984 . S
N227 H233 0.985 . S
C228 C222 1.379 . S
C228 C225 1.363 . S
C228 N226 1.356 . S
C229 C223 1.363 . S
C229 C224 1.379 . S
C229 N227 1.356 . S
N230 C222 1.356 . S
N230 H236 0.984 . S
N230 H237 0.984 . S
N231 C224 1.356 . S
N231 H234 0.984 . S
N231 H235 0.985 . S
H232 N227 0.984 . S
H233 N227 0.985 . S
H234 N231 0.984 . S
H235 N231 0.985 . S
H236 N230 0.984 . S
H237 N230 0.984 . S
H238 N226 0.984 . S
H239 N226 0.985 . S
C240 C241 1.363 . S
C240 C246 1.379 . S
C240 N248 1.356 . S
C241 C240 1.363 . S
C241 C247 1.363 . S
C242 C243 1.363 . S
C242 C247 1.379 . S
C242 N249 1.356 . S
C243 C242 1.363 . S
C243 C246 1.363 . S
N244 C246 1.356 . S
N244 H256 0.984 . S
N244 H257 0.985 . S
N245 C247 1.356 . S
N245 H250 0.984 . S
N245 H251 0.985 . S
C246 C240 1.379 . S
C246 C243 1.363 . S
C246 N244 1.356 . S
C247 C241 1.363 . S
C247 C242 1.379 . S
C247 N245 1.356 . S
N248 C240 1.356 . S
N248 H254 0.984 . S
N248 H255 0.984 . S
N249 C242 1.356 . S
N249 H252 0.984 . S
N249 H253 0.985 . S
H250 N245 0.984 . S
H251 N245 0.985 . S
H252 N249 0.984 . S
H253 N249 0.985 . S
H254 N248 0.984 . S
H255 N248 0.984 . S
H256 N244 0.984 . S
H257 N244 0.985 . S
C258 C259 1.363 1_556 S
C258 C264 1.379 . S
C258 N266 1.356 . S
C259 C258 1.363 1_554 S
C259 C265 1.363 . S
C260 C261 1.363 1_554 S
C260 C265 1.379 . S
C260 N267 1.356 . S
C261 C260 1.363 1_556 S
C261 C264 1.363 . S
N262 C264 1.356 . S
N262 H274 0.984 . S
N262 H275 0.985 . S
N263 C265 1.356 . S
N263 H268 0.984 . S
N263 H269 0.985 . S
C264 C258 1.379 . S
C264 C261 1.363 . S
C264 N262 1.356 . S
C265 C259 1.363 . S
C265 C260 1.379 . S
C265 N263 1.356 . S
N266 C258 1.356 . S
N266 H272 0.984 . S
N266 H273 0.984 . S
N267 C260 1.356 . S
N267 H270 0.984 . S
N267 H271 0.985 . S
H268 N263 0.984 . S
H269 N263 0.985 . S
H270 N267 0.984 . S
H271 N267 0.985 . S
H272 N266 0.984 . S
H273 N266 0.984 . S
H274 N262 0.984 . S
H275 N262 0.985 . S
C276 C277 1.363 . S
C276 C282 1.379 . S
C276 N284 1.356 . S
C277 C276 1.363 . S
C277 C283 1.363 . S
C278 C279 1.363 . S
C278 C283 1.379 . S
C278 N285 1.356 . S
C279 C278 1.363 . S
C279 C282 1.363 . S
N280 C282 1.356 . S
N280 H292 0.984 . S
N280 H293 0.985 . S
N281 C283 1.356 . S
N281 H286 0.984 . S
N281 H287 0.985 . S
C282 C276 1.379 . S
C282 C279 1.363 . S
C282 N280 1.356 . S
C283 C277 1.363 . S
C283 C278 1.379 . S
C283 N281 1.356 . S
N284 C276 1.356 . S
N284 H290 0.984 . S
N284 H291 0.984 . S
N285 C278 1.356 . S
N285 H288 0.984 . S
N285 H289 0.985 . S
H286 N281 0.984 . S
H287 N281 0.985 . S
H288 N285 0.984 . S
H289 N285 0.985 . S
H290 N284 0.984 . S
H291 N284 0.984 . S
H292 N280 0.984 . S
H293 N280 0.985 . S
C294 C295 1.363 . S
C294 C300 1.379 1_655 S
C294 N302 1.356 . S
C295 C294 1.363 . S
C295 C301 1.363 . S
C296 C297 1.363 . S
C296 C301 1.379 1_455 S
C296 N303 1.356 . S
C297 C296 1.363 . S
C297 C300 1.363 . S
N298 C300 1.356 . S
N298 H310 0.984 . S
N298 H311 0.985 . S
N299 C301 1.356 . S
N299 H304 0.984 . S
N299 H305 0.985 . S
C300 C294 1.379 1_455 S
C300 C297 1.363 . S
C300 N298 1.356 . S
C301 C295 1.363 . S
C301 C296 1.379 1_655 S
C301 N299 1.356 . S
N302 C294 1.356 . S
N302 H308 0.984 . S
N302 H309 0.984 . S
N303 C296 1.356 . S
N303 H306 0.984 . S
N303 H307 0.985 . S
H304 N299 0.984 . S
H305 N299 0.985 . S
H306 N303 0.984 . S
H307 N303 0.985 . S
H308 N302 0.984 . S
H309 N302 0.984 . S
H310 N298 0.984 . S
H311 N298 0.985 . S
C312 C313 1.363 . S
C312 C318 1.379 1_545 S
C312 N320 1.356 . S
C313 C312 1.363 . S
C313 C319 1.363 1_554 S
C314 C315 1.363 . S
C314 C319 1.379 1_565 S
C314 N321 1.356 . S
C315 C314 1.363 . S
C315 C318 1.363 1_556 S
N316 C318 1.356 . S
N316 H328 0.984 . S
N316 H329 0.985 . S
N317 C319 1.356 . S
N317 H322 0.984 . S
N317 H323 0.985 . S
C318 C312 1.379 1_565 S
C318 C315 1.363 1_554 S
C318 N316 1.356 . S
C319 C313 1.363 1_556 S
C319 C314 1.379 1_545 S
C319 N317 1.356 . S
N320 C312 1.356 . S
N320 H326 0.984 . S
N320 H327 0.984 . S
N321 C314 1.356 . S
N321 H324 0.984 . S
N321 H325 0.985 . S
H322 N317 0.984 . S
H323 N317 0.985 . S
H324 N321 0.984 . S
H325 N321 0.985 . S
H326 N320 0.984 . S
H327 N320 0.984 . S
H328 N316 0.984 . S
H329 N316 0.985 . S
C330 C331 1.363 . S
C330 C336 1.379 . S
C330 N338 1.356 . S
C331 C330 1.363 . S
C331 C337 1.363 . S
C332 C333 1.363 . S
C332 C337 1.379 . S
C332 N339 1.356 . S
C333 C332 1.363 . S
C333 C336 1.363 . S
N334 C336 1.356 . S
N334 H346 0.984 . S
N334 H347 0.985 . S
N335 C337 1.356 . S
N335 H340 0.984 . S
N335 H341 0.985 . S
C336 C330 1.379 . S
C336 C333 1.363 . S
C336 N334 1.356 . S
C337 C331 1.363 . S
C337 C332 1.379 . S
C337 N335 1.356 . S
N338 C330 1.356 . S
N338 H344 0.984 . S
N338 H345 0.984 . S
N339 C332 1.356 . S
N339 H342 0.984 . S
N339 H343 0.985 . S
H340 N335 0.984 . S
H341 N335 0.985 . S
H342 N339 0.984 . S
H343 N339 0.985 . S
H344 N338 0.984 . S
H345 N338 0.984 . S
H346 N334 0.984 . S
H347 N334 0.985 . S
C348 C349 1.363 . S
C348 C354 1.379 1_455 S
C348 N356 1.356 . S
C349 C348 1.363 . S
C349 C355 1.363 . S
C350 C351 1.363 . S
C350 C355 1.379 1_655 S
C350 N357 1.356 . S
C351 C350 1.363 . S
C351 C354 1.363 . S
N352 C354 1.356 . S
N352 H364 0.984 . S
N352 H365 0.985 . S
N353 C355 1.356 . S
N353 H358 0.984 . S
N353 H359 0.985 . S
C354 C348 1.379 1_655 S
C354 C351 1.363 . S
C354 N352 1.356 . S
C355 C349 1.363 . S
C355 C350 1.379 1_455 S
C355 N353 1.356 . S
N356 C348 1.356 . S
N356 H362 0.984 . S
N356 H363 0.984 . S
N357 C350 1.356 . S
N357 H360 0.984 . S
N357 H361 0.985 . S
H358 N353 0.984 . S
H359 N353 0.985 . S
H360 N357 0.984 . S
H361 N357 0.985 . S
H362 N356 0.984 . S
H363 N356 0.984 . S
H364 N352 0.984 . S
H365 N352 0.985 . S
C366 C367 1.363 1_554 S
C366 C372 1.379 1_545 S
C366 N374 1.356 . S
C367 C366 1.363 1_556 S
C367 C373 1.363 . S
C368 C369 1.363 1_556 S
C368 C373 1.379 1_565 S
C368 N375 1.356 . S
C369 C368 1.363 1_554 S
C369 C372 1.363 . S
N370 C372 1.356 . S
N370 H382 0.984 . S
N370 H383 0.985 . S
N371 C373 1.356 . S
N371 H376 0.984 . S
N371 H377 0.985 . S
C372 C366 1.379 1_565 S
C372 C369 1.363 . S
C372 N370 1.356 . S
C373 C367 1.363 . S
C373 C368 1.379 1_545 S
C373 N371 1.356 . S
N374 C366 1.356 . S
N374 H380 0.984 . S
N374 H381 0.984 . S
N375 C368 1.356 . S
N375 H378 0.984 . S
N375 H379 0.985 . S
H376 N371 0.984 . S
H377 N371 0.985 . S
H378 N375 0.984 . S
H379 N375 0.985 . S
H380 N374 0.984 . S
H381 N374 0.984 . S
H382 N370 0.984 . S
H383 N370 0.985 . S
C384 C385 1.363 1_455 S
C384 C390 1.379 . S
C384 N392 1.356 . S
C385 C384 1.363 1_655 S
C385 C391 1.363 . S
C386 C387 1.363 1_655 S
C386 C391 1.379 . S
C386 N393 1.356 . S
C387 C386 1.363 1_455 S
C387 C390 1.363 . S
N388 C390 1.356 . S
N388 H400 0.984 . S
N388 H401 0.985 . S
N389 C391 1.356 . S
N389 H394 0.984 . S
N389 H395 0.985 . S
C390 C384 1.379 . S
C390 C387 1.363 . S
C390 N388 1.356 . S
C391 C385 1.363 . S
C391 C386 1.379 . S
C391 N389 1.356 . S
N392 C384 1.356 . S
N392 H398 0.984 . S
N392 H399 0.984 . S
N393 C386 1.356 . S
N393 H396 0.984 . S
N393 H397 0.985 . S
H394 N389 0.984 . S
H395 N389 0.985 . S
H396 N393 0.984 . S
H397 N393 0.985 . S
H398 N392 0.984 . S
H399 N392 0.984 . S
H400 N388 0.984 . S
H401 N388 0.985 . S
C402 C403 1.363 . S
C402 C408 1.379 . S
C402 N410 1.356 . S
C403 C402 1.363 . S
C403 C409 1.363 1_545 S
C404 C405 1.363 . S
C404 C409 1.379 . S
C404 N411 1.356 . S
C405 C404 1.363 . S
C405 C408 1.363 1_565 S
N406 C408 1.356 . S
N406 H418 0.984 . S
N406 H419 0.985 . S
N407 C409 1.356 . S
N407 H412 0.984 . S
N407 H413 0.985 . S
C408 C402 1.379 . S
C408 C405 1.363 1_545 S
C408 N406 1.356 . S
C409 C403 1.363 1_565 S
C409 C404 1.379 . S
C409 N407 1.356 . S
N410 C402 1.356 . S
N410 H416 0.984 . S
N410 H417 0.984 . S
N411 C404 1.356 . S
N411 H414 0.984 . S
N411 H415 0.985 . S
H412 N407 0.984 . S
H413 N407 0.985 . S
H414 N411 0.984 . S
H415 N411 0.985 . S
H416 N410 0.984 . S
H417 N410 0.984 . S
H418 N406 0.984 . S
H419 N406 0.985 . S
C420 C421 1.363 . S
C420 C426 1.379 . S
C420 N428 1.356 . S
C421 C420 1.363 . S
C421 C427 1.363 . S
C422 C423 1.363 . S
C422 C427 1.379 . S
C422 N429 1.356 . S
C423 C422 1.363 . S
C423 C426 1.363 . S
N424 C426 1.356 . S
N424 H436 0.984 . S
N424 H437 0.985 . S
N425 C427 1.356 . S
N425 H430 0.984 . S
N425 H431 0.985 . S
C426 C420 1.379 . S
C426 C423 1.363 . S
C426 N424 1.356 . S
C427 C421 1.363 . S
C427 C422 1.379 . S
C427 N425 1.356 . S
N428 C420 1.356 . S
N428 H434 0.984 . S
N428 H435 0.984 . S
N429 C422 1.356 . S
N429 H432 0.984 . S
N429 H433 0.985 . S
H430 N425 0.984 . S
H431 N425 0.985 . S
H432 N429 0.984 . S
H433 N429 0.985 . S
H434 N428 0.984 . S
H435 N428 0.984 . S
H436 N424 0.984 . S
H437 N424 0.985 . S
C438 C439 1.363 1_655 S
C438 C444 1.379 . S
C438 N446 1.356 . S
C439 C438 1.363 1_455 S
C439 C445 1.363 . S
C440 C441 1.363 1_455 S
C440 C445 1.379 . S
C440 N447 1.356 . S
C441 C440 1.363 1_655 S
C441 C444 1.363 . S
N442 C444 1.356 . S
N442 H454 0.984 . S
N442 H455 0.985 . S
N443 C445 1.356 . S
N443 H448 0.984 . S
N443 H449 0.985 . S
C444 C438 1.379 . S
C444 C441 1.363 . S
C444 N442 1.356 . S
C445 C439 1.363 . S
C445 C440 1.379 . S
C445 N443 1.356 . S
N446 C438 1.356 . S
N446 H452 0.984 . S
N446 H453 0.984 . S
N447 C440 1.356 . S
N447 H450 0.984 . S
N447 H451 0.985 . S
H448 N443 0.984 . S
H449 N443 0.985 . S
H450 N447 0.984 . S
H451 N447 0.985 . S
H452 N446 0.984 . S
H453 N446 0.984 . S
H454 N442 0.984 . S
H455 N442 0.985 . S
C456 C457 1.363 1_565 S
C456 C462 1.379 . S
C456 N464 1.356 . S
C457 C456 1.363 1_545 S
C457 C463 1.363 . S
C458 C459 1.363 1_545 S
C458 C463 1.379 . S
C458 N465 1.356 . S
C459 C458 1.363 1_565 S
C459 C462 1.363 . S
N460 C462 1.356 . S
N460 H472 0.984 . S
N460 H473 0.985 . S
N461 C463 1.356 . S
N461 H466 0.984 . S
N461 H467 0.985 . S
C462 C456 1.379 . S
C462 C459 1.363 . S
C462 N460 1.356 . S
C463 C457 1.363 . S
C463 C458 1.379 . S
C463 N461 1.356 . S
N464 C456 1.356 . S
N464 H470 0.984 . S
N464 H471 0.984 . S
N465 C458 1.356 . S
N465 H468 0.984 . S
N465 H469 0.985 . S
H466 N461 0.984 . S
H467 N461 0.985 . S
H468 N465 0.984 . S
H469 N465 0.985 . S
H470 N464 0.984 . S
H471 N464 0.984 . S
H472 N460 0.984 . S
H473 N460 0.985 . S
C474 C475 1.363 . S
C474 C480 1.379 . S
C474 N482 1.356 . S
C475 C474 1.363 . S
C475 C481 1.363 . S
C476 C477 1.363 . S
C476 C481 1.379 . S
C476 N483 1.356 . S
C477 C476 1.363 . S
C477 C480 1.363 . S
N478 C480 1.356 . S
N478 H490 0.984 . S
N478 H491 0.985 . S
N479 C481 1.356 . S
N479 H484 0.984 . S
N479 H485 0.985 . S
C480 C474 1.379 . S
C480 C477 1.363 . S
C480 N478 1.356 . S
C481 C475 1.363 . S
C481 C476 1.379 . S
C481 N479 1.356 . S
N482 C474 1.356 . S
N482 H488 0.984 . S
N482 H489 0.984 . S
N483 C476 1.356 . S
N483 H486 0.984 . S
N483 H487 0.985 . S
H484 N479 0.984 . S
H485 N479 0.985 . S
H486 N483 0.984 . S
H487 N483 0.985 . S
H488 N482 0.984 . S
H489 N482 0.984 . S
H490 N478 0.984 . S
H491 N478 0.985 . S
C492 C493 1.363 . S
C492 C498 1.379 . S
C492 N500 1.356 . S
C493 C492 1.363 . S
C493 C499 1.363 . S
C494 C495 1.363 . S
C494 C499 1.379 . S
C494 N501 1.356 . S
C495 C494 1.363 . S
C495 C498 1.363 . S
N496 C498 1.356 . S
N496 H508 0.984 . S
N496 H509 0.985 . S
N497 C499 1.356 . S
N497 H502 0.984 . S
N497 H503 0.985 . S
C498 C492 1.379 . S
C498 C495 1.363 . S
C498 N496 1.356 . S
C499 C493 1.363 . S
C499 C494 1.379 . S
C499 N497 1.356 . S
N500 C492 1.356 . S
N500 H506 0.984 . S
N500 H507 0.984 . S
N501 C494 1.356 . S
N501 H504 0.984 . S
N501 H505 0.985 . S
H502 N497 0.984 . S
H503 N497 0.985 . S
H504 N501 0.984 . S
H505 N501 0.985 . S
H506 N500 0.984 . S
H507 N500 0.984 . S
H508 N496 0.984 . S
H509 N496 0.985 . S
C510 C511 1.363 . S
C510 C516 1.379 . S
C510 N518 1.356 . S
C511 C510 1.363 . S
C511 C517 1.363 . S
C512 C513 1.363 . S
C512 C517 1.379 . S
C512 N519 1.356 . S
C513 C512 1.363 . S
C513 C516 1.363 . S
N514 C516 1.356 . S
N514 H526 0.984 . S
N514 H527 0.985 . S
N515 C517 1.356 . S
N515 H520 0.984 . S
N515 H521 0.985 . S
C516 C510 1.379 . S
C516 C513 1.363 . S
C516 N514 1.356 . S
C517 C511 1.363 . S
C517 C512 1.379 . S
C517 N515 1.356 . S
N518 C510 1.356 . S
N518 H524 0.984 . S
N518 H525 0.984 . S
N519 C512 1.356 . S
N519 H522 0.984 . S
N519 H523 0.985 . S
H520 N515 0.984 . S
H521 N515 0.985 . S
H522 N519 0.984 . S
H523 N519 0.985 . S
H524 N518 0.984 . S
H525 N518 0.984 . S
H526 N514 0.984 . S
H527 N514 0.985 . S
C528 C529 1.363 . S
C528 C534 1.379 . S
C528 N536 1.356 . S
C529 C528 1.363 . S
C529 C535 1.363 . S
C530 C531 1.363 . S
C530 C535 1.379 . S
C530 N537 1.356 . S
C531 C530 1.363 . S
C531 C534 1.363 . S
N532 C534 1.356 . S
N532 H544 0.984 . S
N532 H545 0.985 . S
N533 C535 1.356 . S
N533 H538 0.984 . S
N533 H539 0.985 . S
C534 C528 1.379 . S
C534 C531 1.363 . S
C534 N532 1.356 . S
C535 C529 1.363 . S
C535 C530 1.379 . S
C535 N533 1.356 . S
N536 C528 1.356 . S
N536 H542 0.984 . S
N536 H543 0.984 . S
N537 C530 1.356 . S
N537 H540 0.984 . S
N537 H541 0.985 . S
H538 N533 0.984 . S
H539 N533 0.985 . S
H540 N537 0.984 . S
H541 N537 0.985 . S
H542 N536 0.984 . S
H543 N536 0.984 . S
H544 N532 0.984 . S
H545 N532 0.985 . S
C546 C547 1.363 . S
C546 C552 1.379 . S
C546 N554 1.356 . S
C547 C546 1.363 . S
C547 C553 1.363 . S
C548 C549 1.363 . S
C548 C553 1.379 . S
C548 N555 1.356 . S
C549 C548 1.363 . S
C549 C552 1.363 . S
N550 C552 1.356 . S
N550 H562 0.984 . S
N550 H563 0.985 . S
N551 C553 1.356 . S
N551 H556 0.984 . S
N551 H557 0.985 . S
C552 C546 1.379 . S
C552 C549 1.363 . S
C552 N550 1.356 . S
C553 C547 1.363 . S
C553 C548 1.379 . S
C553 N551 1.356 . S
N554 C546 1.356 . S
N554 H560 0.984 . S
N554 H561 0.984 . S
N555 C548 1.356 . S
N555 H558 0.984 . S
N555 H559 0.985 . S
H556 N551 0.984 . S
H557 N551 0.985 . S
H558 N555 0.984 . S
H559 N555 0.985 . S
H560 N554 0.984 . S
H561 N554 0.984 . S
H562 N550 0.984 . S
H563 N550 0.985 . S
C564 C565 1.363 . S
C564 C570 1.379 . S
C564 N572 1.356 . S
C565 C564 1.363 . S
C565 C571 1.363 . S
C566 C567 1.363 . S
C566 C571 1.379 . S
C566 N573 1.356 . S
C567 C566 1.363 . S
C567 C570 1.363 . S
N568 C570 1.356 . S
N568 H580 0.984 . S
N568 H581 0.985 . S
N569 C571 1.356 . S
N569 H574 0.984 . S
N569 H575 0.985 . S
C570 C564 1.379 . S
C570 C567 1.363 . S
C570 N568 1.356 . S
C571 C565 1.363 . S
C571 C566 1.379 . S
C571 N569 1.356 . S
N572 C564 1.356 . S
N572 H578 0.984 . S
N572 H579 0.984 . S
N573 C566 1.356 . S
N573 H576 0.984 . S
N573 H577 0.985 . S
H574 N569 0.984 . S
H575 N569 0.985 . S
H576 N573 0.984 . S
H577 N573 0.985 . S
H578 N572 0.984 . S
H579 N572 0.984 . S
H580 N568 0.984 . S
H581 N568 0.985 . S
C582 C583 1.363 . S
C582 C588 1.379 . S
C582 N590 1.356 . S
C583 C582 1.363 . S
C583 C589 1.363 . S
C584 C585 1.363 . S
C584 C589 1.379 . S
C584 N591 1.356 . S
C585 C584 1.363 . S
C585 C588 1.363 . S
N586 C588 1.356 . S
N586 H598 0.984 . S
N586 H599 0.985 . S
N587 C589 1.356 . S
N587 H592 0.984 . S
N587 H593 0.985 . S
C588 C582 1.379 . S
C588 C585 1.363 . S
C588 N586 1.356 . S
C589 C583 1.363 . S
C589 C584 1.379 . S
C589 N587 1.356 . S
N590 C582 1.356 . S
N590 H596 0.984 . S
N590 H597 0.984 . S
N591 C584 1.356 . S
N591 H594 0.984 . S
N591 H595 0.985 . S
H592 N587 0.984 . S
H593 N587 0.985 . S
H594 N591 0.984 . S
H595 N591 0.985 . S
H596 N590 0.984 . S
H597 N590 0.984 . S
H598 N586 0.984 . S
H599 N586 0.985 . S
C169 C3 1.616 . S
C171 C87 1.622 . S
C187 C17 1.621 . S
C189 C101 1.616 . S
C205 C31 1.563 . S
C207 C115 1.563 . S
C223 C129 1.622 . S
C225 C45 1.616 . S
C241 C59 1.621 . S
C243 C143 1.616 . S
C259 C157 1.563 . S
C261 C73 1.563 . S
C277 C7 1.178 . S
C279 C133 1.184 . S
C295 C21 1.184 . S
C297 C147 1.178 . S
C313 C161 1.146 . S
C315 C35 1.145 . S
C331 C91 1.184 . S
C333 C49 1.178 . S
C349 C63 1.184 . S
C351 C105 1.178 . S
C367 C77 1.146 . S
C369 C119 1.145 . S
C385 C162 1.719 . S
C387 C8 1.710 . S
C403 C22 1.847 . S
C405 C92 1.847 . S
C421 C36 1.719 . S
C423 C106 1.710 . S
C439 C120 1.719 . S
C441 C50 1.710 . S
C457 C134 1.847 . S
C459 C64 1.847 . S
C475 C78 1.719 . S
C477 C148 1.710 . S
C493 C9 1.216 . S
C495 C149 1.216 . S
C511 C163 1.304 . S
C513 C23 1.310 . S
C529 C93 1.307 . S
C531 C37 1.306 . S
C547 C51 1.216 . S
C549 C107 1.216 . S
C565 C121 1.304 . S
C567 C65 1.310 . S
C583 C135 1.307 . S
C585 C79 1.306 . S
