# Generated by pormake.
# Topology wjh, (4)-cn, num edge types: 1
# Building blocks:
#     Node 0, Type 0, BuildingBlock: GALJAG_clean_sbu_0, # of connection points: 4
#     Node 1, Type 0, BuildingBlock: GALJAG_clean_sbu_0, # of connection points: 4
#     Node 2, Type 0, BuildingBlock: GALJAG_clean_sbu_0, # of connection points: 4
#     Node 3, Type 0, BuildingBlock: GALJAG_clean_sbu_0, # of connection points: 4
#     Node 4, Type 0, BuildingBlock: GALJAG_clean_sbu_0, # of connection points: 4
#     Node 5, Type 0, BuildingBlock: GALJAG_clean_sbu_0, # of connection points: 4
#     Node 6, Type 0, BuildingBlock: GALJAG_clean_sbu_0, # of connection points: 4
#     Node 7, Type 0, BuildingBlock: GALJAG_clean_sbu_0, # of connection points: 4
#     Node 8, Type 0, BuildingBlock: GALJAG_clean_sbu_0, # of connection points: 4
#     Node 9, Type 0, BuildingBlock: GALJAG_clean_sbu_0, # of connection points: 4
#     Node 10, Type 0, BuildingBlock: GALJAG_clean_sbu_0, # of connection points: 4
#     Node 11, Type 0, BuildingBlock: GALJAG_clean_sbu_0, # of connection points: 4
#     Edge 12, Type (0, 0), BuildingBlock: UVAHIK_clean_linker_0, # of connection points: 2
#     Edge 13, Type (0, 0), BuildingBlock: UVAHIK_clean_linker_0, # of connection points: 2
#     Edge 14, Type (0, 0), BuildingBlock: UVAHIK_clean_linker_0, # of connection points: 2
#     Edge 15, Type (0, 0), BuildingBlock: UVAHIK_clean_linker_0, # of connection points: 2
#     Edge 16, Type (0, 0), BuildingBlock: UVAHIK_clean_linker_0, # of connection points: 2
#     Edge 17, Type (0, 0), BuildingBlock: UVAHIK_clean_linker_0, # of connection points: 2
#     Edge 18, Type (0, 0), BuildingBlock: UVAHIK_clean_linker_0, # of connection points: 2
#     Edge 19, Type (0, 0), BuildingBlock: UVAHIK_clean_linker_0, # of connection points: 2
#     Edge 20, Type (0, 0), BuildingBlock: UVAHIK_clean_linker_0, # of connection points: 2
#     Edge 21, Type (0, 0), BuildingBlock: UVAHIK_clean_linker_0, # of connection points: 2
#     Edge 22, Type (0, 0), BuildingBlock: UVAHIK_clean_linker_0, # of connection points: 2
#     Edge 23, Type (0, 0), BuildingBlock: UVAHIK_clean_linker_0, # of connection points: 2
#     Edge 24, Type (0, 0), BuildingBlock: UVAHIK_clean_linker_0, # of connection points: 2
#     Edge 25, Type (0, 0), BuildingBlock: UVAHIK_clean_linker_0, # of connection points: 2
#     Edge 26, Type (0, 0), BuildingBlock: UVAHIK_clean_linker_0, # of connection points: 2
#     Edge 27, Type (0, 0), BuildingBlock: UVAHIK_clean_linker_0, # of connection points: 2
#     Edge 28, Type (0, 0), BuildingBlock: UVAHIK_clean_linker_0, # of connection points: 2
#     Edge 29, Type (0, 0), BuildingBlock: UVAHIK_clean_linker_0, # of connection points: 2
#     Edge 30, Type (0, 0), BuildingBlock: UVAHIK_clean_linker_0, # of connection points: 2
#     Edge 31, Type (0, 0), BuildingBlock: UVAHIK_clean_linker_0, # of connection points: 2
#     Edge 32, Type (0, 0), BuildingBlock: UVAHIK_clean_linker_0, # of connection points: 2
#     Edge 33, Type (0, 0), BuildingBlock: UVAHIK_clean_linker_0, # of connection points: 2
#     Edge 34, Type (0, 0), BuildingBlock: UVAHIK_clean_linker_0, # of connection points: 2
#     Edge 35, Type (0, 0), BuildingBlock: UVAHIK_clean_linker_0, # of connection points: 2
# Relax obj value: 0.053
# Max RMSD: 0.092
# Mean RMSD: 0.092
data_MOF--net-wjh--node1-GALJAG_clean_sbu_0--edge1-UVAHIK_clean_linker_0
_symmetry_space_group_name_H-M    P1
_symmetry_Int_Tables_number       1
_symmetry_cell_setting            triclinic
loop_
_symmetry_equiv_pos_as_xyz
'x, y, z'
_cell_length_a     77.759937
_cell_length_b     77.79587
_cell_length_c     36.104409
_cell_angle_alpha  90.04811
_cell_angle_beta   89.953711
_cell_angle_gamma 120.02448
loop_
_atom_site_label
_atom_site_type_symbol
_atom_site_fract_x
_atom_site_fract_y
_atom_site_fract_z
_atom_type_partial_charge
In0 In 0.51244 0.13857 0.03927 0.0
O1 O 0.53972 0.14785 0.00295 0.0
O2 O 0.51277 0.14177 0.97663 0.0
C3 C 0.52745 0.14037 0.10745 0.0
C4 C 0.48705 0.09934 0.03243 0.0
C5 C 0.50481 0.16849 0.04556 0.0
O6 O 0.53742 0.14272 0.07837 0.0
O7 O 0.51005 0.13707 0.102 0.0
O8 O 0.4911 0.15055 0.04465 0.0
O9 O 0.52216 0.1712 0.04255 0.0
C10 C 0.53084 0.14682 0.97302 0.0
O11 O 0.48108 0.11172 0.03445 0.0
O12 O 0.50563 0.10681 0.03377 0.0
In13 In 0.36588 0.51325 0.20878 0.0
O14 O 0.38484 0.53896 0.1695 0.0
O15 O 0.3657 0.51056 0.14606 0.0
C16 C 0.37572 0.53158 0.27522 0.0
C17 C 0.38056 0.48857 0.21598 0.0
C18 C 0.32764 0.50387 0.20792 0.0
O19 O 0.38486 0.54018 0.24589 0.0
O20 O 0.36176 0.51401 0.2708 0.0
O21 O 0.33278 0.49101 0.21305 0.0
O22 O 0.34178 0.52129 0.20241 0.0
C23 C 0.37838 0.52856 0.14051 0.0
O24 O 0.36251 0.4823 0.20867 0.0
O25 O 0.39108 0.50716 0.21903 0.0
In26 In 0.8489 0.36952 0.37785 0.0
O27 O 0.8406 0.38749 0.33935 0.0
O28 O 0.851 0.36952 0.31491 0.0
C29 C 0.84145 0.38045 0.44413 0.0
C30 C 0.88837 0.3844 0.38368 0.0
C31 C 0.8203 0.33116 0.37915 0.0
O32 O 0.84185 0.38925 0.41447 0.0
O33 O 0.84462 0.36618 0.44015 0.0
O34 O 0.83841 0.33654 0.38351 0.0
O35 O 0.81678 0.3451 0.37325 0.0
C36 C 0.84476 0.38151 0.31 0.0
O37 O 0.87661 0.36636 0.3763 0.0
O38 O 0.88023 0.39482 0.38729 0.0
In39 In 0.46649 0.84898 0.53924 0.0
O40 O 0.44076 0.84113 0.49966 0.0
O41 O 0.46678 0.84242 0.47781 0.0
C42 C 0.45027 0.84857 0.60545 0.0
C43 C 0.49209 0.88805 0.53111 0.0
C44 C 0.47386 0.81958 0.5549 0.0
O45 O 0.44011 0.84326 0.57602 0.0
O46 O 0.46845 0.85437 0.60114 0.0
O47 O 0.48767 0.83704 0.54821 0.0
O48 O 0.45653 0.81694 0.55202 0.0
C49 C 0.44957 0.83955 0.4716 0.0
O50 O 0.49795 0.87565 0.5346 0.0
O51 O 0.4735 0.88067 0.53141 0.0
In52 In 0.61363 0.47272 0.71036 0.0
O53 O 0.59583 0.44496 0.67502 0.0
O54 O 0.61739 0.47142 0.64823 0.0
C55 C 0.5998 0.45941 0.77914 0.0
C56 C 0.60012 0.49807 0.69924 0.0
C57 C 0.65089 0.47986 0.71923 0.0
O58 O 0.5924 0.4487 0.75074 0.0
O59 O 0.61392 0.47666 0.77267 0.0
O60 O 0.64703 0.49376 0.71596 0.0
O61 O 0.63604 0.46258 0.71724 0.0
C62 C 0.60422 0.45338 0.64505 0.0
O63 O 0.61841 0.50402 0.70278 0.0
O64 O 0.58889 0.47953 0.7013 0.0
In65 In 0.1348 0.61353 0.87046 0.0
O66 O 0.14325 0.59574 0.83156 0.0
O67 O 0.14637 0.62287 0.81171 0.0
C68 C 0.12944 0.59407 0.93505 0.0
C69 C 0.09708 0.60243 0.85302 0.0
C70 C 0.16278 0.64952 0.89437 0.0
O71 O 0.14052 0.59376 0.90973 0.0
O72 O 0.12088 0.60372 0.9273 0.0
O73 O 0.14644 0.6465 0.88131 0.0
O74 O 0.16515 0.63463 0.894 0.0
C75 C 0.14797 0.60781 0.80497 0.0
O76 O 0.10944 0.61996 0.86283 0.0
O77 O 0.1039 0.59074 0.85151 0.0
In78 In 0.84838 0.47067 0.87725 0.0
O79 O 0.87513 0.50212 0.88141 0.0
O80 O 0.88037 0.47808 0.87275 0.0
C81 C 0.81836 0.47795 0.86856 0.0
C82 C 0.84286 0.45416 0.94507 0.0
C83 C 0.84414 0.45409 0.80992 0.0
O84 O 0.83619 0.49178 0.87136 0.0
O85 O 0.81576 0.46066 0.87189 0.0
O86 O 0.84085 0.44412 0.83938 0.0
O87 O 0.84963 0.47217 0.81472 0.0
C88 C 0.88768 0.49656 0.87628 0.0
O89 O 0.84329 0.44535 0.91601 0.0
O90 O 0.84507 0.47118 0.93985 0.0
In91 In 0.36618 0.84831 0.04144 0.0
O92 O 0.36287 0.87584 0.04669 0.0
O93 O 0.39161 0.87992 0.03679 0.0
C94 C 0.32796 0.8194 0.03991 0.0
C95 C 0.37812 0.84209 0.10766 0.0
C96 C 0.37681 0.84315 0.973 0.0
O97 O 0.33306 0.83753 0.03735 0.0
O98 O 0.34211 0.816 0.04392 0.0
O99 O 0.38571 0.84249 0.00175 0.0
O100 O 0.36262 0.84625 0.97894 0.0
C101 C 0.38109 0.88788 0.0414 0.0
O102 O 0.38448 0.83923 0.07742 0.0
O103 O 0.36583 0.84808 0.1044 0.0
In104 In 0.51495 0.37429 0.21517 0.0
O105 O 0.48328 0.36848 0.22261 0.0
O106 O 0.50724 0.39809 0.22837 0.0
C107 C 0.50825 0.33802 0.19677 0.0
C108 C 0.53313 0.38091 0.28146 0.0
C109 C 0.52926 0.39127 0.14873 0.0
O110 O 0.4943 0.34113 0.20554 0.0
O111 O 0.52544 0.35301 0.19875 0.0
O112 O 0.54008 0.39624 0.17731 0.0
O113 O 0.51138 0.3782 0.15405 0.0
C114 C 0.48871 0.38646 0.22886 0.0
O115 O 0.54142 0.39178 0.25362 0.0
O116 O 0.51586 0.36658 0.27561 0.0
In117 In 0.13585 0.51954 0.37527 0.0
O118 O 0.11065 0.488 0.38591 0.0
O119 O 0.10494 0.51184 0.39352 0.0
C120 C 0.16386 0.51123 0.3527 0.0
C121 C 0.14913 0.53977 0.43946 0.0
C122 C 0.13016 0.53229 0.3094 0.0
O123 O 0.14741 0.49805 0.36567 0.0
O124 O 0.16634 0.52853 0.35261 0.0
O125 O 0.14095 0.54418 0.33438 0.0
O126 O 0.122 0.5142 0.3181 0.0
C127 C 0.09826 0.49335 0.39437 0.0
O128 O 0.14508 0.54686 0.41154 0.0
O129 O 0.14687 0.5227 0.4347 0.0
In130 In 0.6129 0.13861 0.5422 0.0
O131 O 0.59515 0.14722 0.58079 0.0
O132 O 0.61864 0.14427 0.60404 0.0
C133 C 0.59843 0.13966 0.47502 0.0
C134 C 0.59829 0.09923 0.54777 0.0
C135 C 0.6502 0.16738 0.52783 0.0
O136 O 0.59271 0.14437 0.50416 0.0
O137 O 0.61113 0.13435 0.48008 0.0
O138 O 0.646 0.1498 0.53505 0.0
O139 O 0.63577 0.17048 0.52962 0.0
C140 C 0.6048 0.14799 0.60944 0.0
O141 O 0.61673 0.11142 0.54813 0.0
O142 O 0.58747 0.10699 0.54554 0.0
In143 In 0.46683 0.61483 0.70646 0.0
O144 O 0.49808 0.61901 0.70935 0.0
O145 O 0.47384 0.59006 0.69903 0.0
C146 C 0.47563 0.65287 0.70375 0.0
C147 C 0.45084 0.60242 0.77437 0.0
C148 C 0.44875 0.6038 0.6399 0.0
O149 O 0.48877 0.64794 0.70079 0.0
O150 O 0.45822 0.63865 0.70899 0.0
O151 O 0.43944 0.59686 0.66989 0.0
O152 O 0.46699 0.61614 0.64367 0.0
C153 C 0.49233 0.60097 0.70304 0.0
O154 O 0.44154 0.59418 0.74501 0.0
O155 O 0.46809 0.61694 0.76941 0.0
C156 C 0.5246 0.14161 0.17614 0.0
C157 C 0.53532 0.14131 0.14504 0.0
C158 C 0.53177 0.14221 0.21184 0.0
C159 C 0.56363 0.12908 0.2644 0.0
H160 H 0.56366 0.16525 0.33844 0.0
C161 C 0.60047 0.13797 0.40639 0.0
C162 C 0.59118 0.14045 0.43766 0.0
C163 C 0.59378 0.13858 0.37085 0.0
C164 C 0.5635 0.15486 0.31827 0.0
H165 H 0.56197 0.14149 0.12679 0.0
H166 H 0.57443 0.14229 0.18938 0.0
H167 H 0.55191 0.16551 0.27587 0.0
H168 H 0.56761 0.14553 0.45636 0.0
H169 H 0.5555 0.14607 0.39414 0.0
H170 H 0.57476 0.11806 0.30668 0.0
C171 C 0.56047 0.14207 0.18604 0.0
C172 C 0.55684 0.15508 0.28241 0.0
C173 C 0.5534 0.1417 0.15028 0.0
C174 C 0.57507 0.14362 0.43271 0.0
C175 C 0.56823 0.14405 0.39705 0.0
C176 C 0.57009 0.12871 0.30029 0.0
C177 C 0.5497 0.1423 0.21716 0.0
C178 C 0.55692 0.14224 0.2551 0.0
C179 C 0.57749 0.14147 0.36568 0.0
C180 C 0.57021 0.14166 0.32766 0.0
H181 H 0.51063 0.14136 0.17293 0.0
H182 H 0.52308 0.1422 0.23531 0.0
H183 H 0.56354 0.11879 0.24405 0.0
H184 H 0.61305 0.13569 0.40932 0.0
H185 H 0.60155 0.13696 0.3474 0.0
C186 C 0.39912 0.55875 0.31775 0.0
C187 C 0.38127 0.54085 0.31225 0.0
C188 C 0.40491 0.56657 0.35344 0.0
C189 C 0.39634 0.55075 0.45152 0.0
H190 H 0.42473 0.60735 0.47109 0.0
C191 C 0.4196 0.58231 0.59937 0.0
C192 C 0.43934 0.59776 0.60307 0.0
C193 C 0.41114 0.57611 0.56423 0.0
C194 C 0.41688 0.5915 0.46598 0.0
H195 H 0.35509 0.51753 0.33941 0.0
H196 H 0.36492 0.53135 0.40136 0.0
H197 H 0.41239 0.59531 0.40875 0.0
H198 H 0.46555 0.61916 0.57304 0.0
H199 H 0.45082 0.60835 0.51186 0.0
H200 H 0.40091 0.54695 0.50866 0.0
C201 C 0.37473 0.53913 0.3784 0.0
C202 C 0.40986 0.58461 0.43027 0.0
C203 C 0.36903 0.53127 0.34285 0.0
C204 C 0.4503 0.60719 0.57107 0.0
C205 C 0.44182 0.60109 0.53601 0.0
C206 C 0.40326 0.55764 0.48721 0.0
C207 C 0.39291 0.55669 0.38427 0.0
C208 C 0.39965 0.56414 0.42252 0.0
C209 C 0.42223 0.58535 0.53217 0.0
C210 C 0.41377 0.57809 0.49477 0.0
H211 H 0.40886 0.56643 0.29465 0.0
H212 H 0.4191 0.58002 0.35696 0.0
H213 H 0.38887 0.53491 0.44647 0.0
H214 H 0.41078 0.57482 0.62358 0.0
H215 H 0.39594 0.56406 0.56213 0.0
C216 C 0.83797 0.42603 0.76743 0.0
C217 C 0.84182 0.44554 0.77251 0.0
C218 C 0.83634 0.41837 0.73168 0.0
C219 C 0.85042 0.43481 0.63462 0.0
H220 H 0.8121 0.38006 0.61121 0.0
C221 C 0.83858 0.4048 0.48532 0.0
C222 C 0.8385 0.38682 0.48095 0.0
C223 C 0.83733 0.41147 0.52065 0.0
C224 C 0.82292 0.39536 0.61743 0.0
H225 H 0.84646 0.47215 0.74434 0.0
H226 H 0.84322 0.45873 0.68231 0.0
H227 H 0.81324 0.39261 0.67376 0.0
H228 H 0.83636 0.36139 0.50986 0.0
H229 H 0.83409 0.373 0.57145 0.0
H230 H 0.86007 0.43758 0.57834 0.0
C231 C 0.84192 0.44945 0.70571 0.0
C232 C 0.82364 0.40253 0.65326 0.0
C233 C 0.84366 0.45711 0.74131 0.0
C234 C 0.8365 0.37534 0.5124 0.0
C235 C 0.83508 0.38192 0.54765 0.0
C236 C 0.84962 0.42769 0.59881 0.0
C237 C 0.83844 0.43007 0.70039 0.0
C238 C 0.83744 0.42234 0.6623 0.0
C239 C 0.8358 0.40019 0.5522 0.0
C240 C 0.83592 0.40788 0.58986 0.0
H241 H 0.8365 0.41679 0.79101 0.0
H242 H 0.83386 0.40345 0.72858 0.0
H243 H 0.8615 0.45004 0.64075 0.0
H244 H 0.84008 0.41393 0.46155 0.0
H245 H 0.8377 0.42552 0.52332 0.0
C246 C 0.42177 0.84269 0.64643 0.0
C247 C 0.4416 0.84733 0.64242 0.0
C248 C 0.41365 0.84109 0.68174 0.0
C249 C 0.41997 0.8314 0.77889 0.0
H250 H 0.39099 0.85866 0.80157 0.0
C251 C 0.40089 0.84171 0.92884 0.0
C252 C 0.38286 0.84124 0.93516 0.0
C253 C 0.40708 0.84113 0.89271 0.0
C254 C 0.39875 0.85066 0.79561 0.0
H255 H 0.46849 0.85391 0.67204 0.0
H256 H 0.45429 0.851 0.73347 0.0
H257 H 0.40329 0.86002 0.73889 0.0
H258 H 0.3568 0.83911 0.90886 0.0
H259 H 0.36728 0.83754 0.84599 0.0
H260 H 0.41536 0.82189 0.83539 0.0
C261 C 0.445 0.84853 0.70944 0.0
C262 C 0.40583 0.8515 0.75969 0.0
C263 C 0.45315 0.85034 0.67426 0.0
C264 C 0.37087 0.83966 0.9048 0.0
C265 C 0.37695 0.8389 0.86874 0.0
C266 C 0.41274 0.8304 0.81473 0.0
C267 C 0.42517 0.84386 0.71357 0.0
C268 C 0.4167 0.84207 0.75109 0.0
C269 C 0.39525 0.83989 0.86218 0.0
C270 C 0.40221 0.84019 0.82365 0.0
H271 H 0.41253 0.84027 0.62235 0.0
H272 H 0.39829 0.83739 0.68417 0.0
H273 H 0.42808 0.82376 0.77287 0.0
H274 H 0.41047 0.84301 0.95175 0.0
H275 H 0.42138 0.84219 0.88872 0.0
C276 C 0.55622 0.41529 0.10644 0.0
C277 C 0.53689 0.39924 0.11145 0.0
C278 C 0.56342 0.42222 0.07078 0.0
C279 C 0.55652 0.40611 0.97393 0.0
H280 H 0.58207 0.46217 0.95042 0.0
C281 C 0.57513 0.43444 0.82338 0.0
C282 C 0.59277 0.45242 0.81714 0.0
C283 C 0.56853 0.42807 0.85952 0.0
C284 C 0.57525 0.44649 0.95659 0.0
H285 H 0.50993 0.37789 0.08322 0.0
H286 H 0.52257 0.38985 0.02116 0.0
H287 H 0.57069 0.45105 0.01349 0.0
H288 H 0.61753 0.47769 0.84367 0.0
H289 H 0.60641 0.46635 0.90654 0.0
H290 H 0.56133 0.40145 0.91742 0.0
C291 C 0.53215 0.39706 0.0447 0.0
C292 C 0.56869 0.44015 0.99272 0.0
C293 C 0.52489 0.39031 0.08025 0.0
C294 C 0.60378 0.46382 0.84764 0.0
C295 C 0.59732 0.45737 0.88371 0.0
C296 C 0.56327 0.41245 0.93791 0.0
C297 C 0.55149 0.41302 0.03957 0.0
C298 C 0.55913 0.41989 0.00165 0.0
C299 C 0.57956 0.43945 0.89017 0.0
C300 C 0.57261 0.43271 0.92868 0.0
H301 H 0.56578 0.42243 0.13002 0.0
H302 H 0.57843 0.43451 0.06754 0.0
H303 H 0.54941 0.39041 0.98021 0.0
H304 H 0.56631 0.4254 0.80036 0.0
H305 H 0.55464 0.41435 0.86337 0.0
C306 C 0.14033 0.55853 0.26069 0.0
C307 C 0.12825 0.53873 0.27193 0.0
C308 C 0.13963 0.56411 0.22414 0.0
C309 C 0.10861 0.54876 0.13997 0.0
H310 H 0.15853 0.58186 0.08928 0.0
C311 C 0.11396 0.5849 0.99773 0.0
C312 C 0.12765 0.58518 0.97197 0.0
C313 C 0.11329 0.57815 0.03379 0.0
C314 C 0.14448 0.57247 0.10298 0.0
H315 H 0.10562 0.50936 0.25415 0.0
H316 H 0.10435 0.51911 0.19053 0.0
H317 H 0.15869 0.57286 0.154 0.0
H318 H 0.15105 0.57816 0.96342 0.0
H319 H 0.14987 0.5663 0.02666 0.0
H320 H 0.0944 0.54827 0.08888 0.0
C321 C 0.1143 0.53034 0.20988 0.0
C322 C 0.14457 0.56754 0.14015 0.0
C323 C 0.11509 0.52475 0.24629 0.0
C324 C 0.14034 0.5781 0.9827 0.0
C325 C 0.13976 0.57146 0.01893 0.0
C326 C 0.10852 0.5538 0.10287 0.0
C327 C 0.12675 0.55001 0.19827 0.0
C328 C 0.12663 0.55562 0.15904 0.0
C329 C 0.12638 0.57163 0.04495 0.0
C330 C 0.12646 0.56571 0.08397 0.0
H331 H 0.15063 0.56961 0.27987 0.0
H332 H 0.14923 0.57943 0.21608 0.0
H333 H 0.09455 0.53964 0.15385 0.0
H334 H 0.104 0.59029 0.99026 0.0
H335 H 0.10294 0.57863 0.05327 0.0
C336 C 0.48547 0.30252 0.17888 0.0
C337 C 0.50477 0.31895 0.1816 0.0
C338 C 0.48222 0.28517 0.16101 0.0
C339 C 0.50444 0.2685 0.09045 0.0
H340 H 0.47523 0.21661 0.13634 0.0
C341 C 0.51706 0.20463 0.05187 0.0
C342 C 0.50114 0.18504 0.05267 0.0
C343 C 0.51431 0.22029 0.06256 0.0
C344 C 0.48305 0.23092 0.12275 0.0
H345 H 0.53582 0.32996 0.16875 0.0
H346 H 0.53013 0.29981 0.13766 0.0
H347 H 0.4764 0.24531 0.1666 0.0
H348 H 0.46967 0.16647 0.06383 0.0
H349 H 0.46481 0.19401 0.08251 0.0
H350 H 0.51146 0.25435 0.04702 0.0
C351 C 0.51751 0.30037 0.14896 0.0
C352 C 0.48377 0.24733 0.14015 0.0
C353 C 0.52078 0.31756 0.16704 0.0
C354 C 0.4822 0.18145 0.06299 0.0
C355 C 0.47945 0.19717 0.07388 0.0
C356 C 0.50363 0.25214 0.07297 0.0
C357 C 0.4982 0.28414 0.14526 0.0
C358 C 0.49502 0.26635 0.12471 0.0
C359 C 0.49557 0.21672 0.07434 0.0
C360 C 0.49349 0.23329 0.08954 0.0
H361 H 0.47286 0.30322 0.18983 0.0
H362 H 0.46719 0.27281 0.15856 0.0
H363 H 0.51288 0.28297 0.0776 0.0
H364 H 0.53183 0.20784 0.04403 0.0
H365 H 0.52711 0.23512 0.0631 0.0
C366 C 0.29215 0.48083 0.22501 0.0
C367 C 0.30696 0.49943 0.21199 0.0
C368 C 0.27331 0.47769 0.23406 0.0
C369 C 0.2406 0.49965 0.22568 0.0
H370 H 0.22303 0.47808 0.32425 0.0
C371 C 0.19471 0.52159 0.31644 0.0
C372 C 0.17839 0.5067 0.33581 0.0
C373 C 0.20773 0.51722 0.29779 0.0
C374 C 0.22753 0.4838 0.29643 0.0
H375 H 0.31339 0.52893 0.1961 0.0
H376 H 0.28072 0.52358 0.21207 0.0
H377 H 0.25028 0.476 0.29518 0.0
H378 H 0.16307 0.47563 0.35151 0.0
H379 H 0.18627 0.46805 0.31926 0.0
H380 H 0.21848 0.50831 0.22776 0.0
C381 C 0.28349 0.51132 0.21508 0.0
C382 C 0.24308 0.48255 0.27969 0.0
C383 C 0.30228 0.51445 0.20616 0.0
C384 C 0.17557 0.4874 0.33684 0.0
C385 C 0.18879 0.48305 0.31841 0.0
C386 C 0.22516 0.50098 0.24248 0.0
C387 C 0.26896 0.49309 0.23004 0.0
C388 C 0.2502 0.49106 0.24464 0.0
C389 C 0.20482 0.4979 0.29831 0.0
C390 C 0.21893 0.49365 0.27847 0.0
H391 H 0.29536 0.46895 0.22965 0.0
H392 H 0.26234 0.46342 0.24514 0.0
H393 H 0.2455 0.50598 0.19835 0.0
H394 H 0.19725 0.5366 0.31512 0.0
H395 H 0.2202 0.52903 0.2831 0.0
C396 C 0.67197 0.20004 0.49811 0.0
C397 C 0.66976 0.18251 0.51361 0.0
C398 C 0.68948 0.21331 0.48008 0.0
C399 C 0.74205 0.23186 0.4735 0.0
H400 H 0.73607 0.24915 0.37597 0.0
C401 C 0.80836 0.296 0.39788 0.0
C402 C 0.80423 0.31052 0.38462 0.0
C403 C 0.79288 0.27727 0.40821 0.0
C404 C 0.73801 0.24447 0.40314 0.0
H405 H 0.68442 0.16548 0.52388 0.0
H406 H 0.71553 0.18923 0.49299 0.0
H407 H 0.70719 0.22261 0.40733 0.0
H408 H 0.78077 0.31658 0.36976 0.0
H409 H 0.75388 0.28419 0.38801 0.0
H410 H 0.77263 0.25449 0.47034 0.0
C411 C 0.70348 0.19241 0.4945 0.0
C412 C 0.7215 0.22928 0.42101 0.0
C413 C 0.68576 0.17891 0.51217 0.0
C414 C 0.7844 0.30568 0.37994 0.0
C415 C 0.76897 0.28703 0.39018 0.0
C416 C 0.75857 0.24724 0.45577 0.0
C417 C 0.70525 0.20946 0.47756 0.0
C418 C 0.72327 0.2233 0.45678 0.0
C419 C 0.77302 0.27277 0.40528 0.0
C420 C 0.75656 0.25415 0.42091 0.0
H421 H 0.6599 0.20322 0.49876 0.0
H422 H 0.69066 0.22655 0.46775 0.0
H423 H 0.74372 0.22746 0.50113 0.0
H424 H 0.82355 0.29934 0.40168 0.0
H425 H 0.79645 0.26651 0.41936 0.0
C426 C 0.46153 0.78633 0.58315 0.0
C427 C 0.47751 0.80399 0.56942 0.0
C428 C 0.46489 0.77249 0.60123 0.0
C429 C 0.4984 0.75331 0.61078 0.0
H430 H 0.47136 0.73362 0.70478 0.0
C431 C 0.49882 0.68831 0.68661 0.0
C432 C 0.47986 0.67336 0.69782 0.0
C433 C 0.502 0.70701 0.67627 0.0
C434 C 0.479 0.73895 0.67858 0.0
H435 H 0.5095 0.82071 0.56242 0.0
H436 H 0.51534 0.79602 0.59348 0.0
H437 H 0.47014 0.76083 0.67382 0.0
H438 H 0.44964 0.66645 0.70877 0.0
H439 H 0.45507 0.6988 0.69045 0.0
H440 H 0.5064 0.73075 0.6145 0.0
C441 C 0.50026 0.79314 0.59051 0.0
C442 C 0.47833 0.75452 0.66094 0.0
C443 C 0.49691 0.80718 0.57274 0.0
C444 C 0.46441 0.67769 0.70024 0.0
C445 C 0.46759 0.69631 0.68996 0.0
C446 C 0.49893 0.73756 0.62829 0.0
C447 C 0.48428 0.77591 0.60563 0.0
C448 C 0.48751 0.76143 0.62639 0.0
C449 C 0.48629 0.71105 0.67709 0.0
C450 C 0.4887 0.72982 0.66182 0.0
H451 H 0.44641 0.78344 0.581 0.0
H452 H 0.4523 0.75913 0.61209 0.0
H453 H 0.50557 0.7584 0.58411 0.0
H454 H 0.51101 0.68538 0.68458 0.0
H455 H 0.51663 0.71814 0.66688 0.0
C456 C 0.6866 0.50241 0.73601 0.0
C457 C 0.67091 0.48331 0.72758 0.0
C458 C 0.70494 0.5051 0.74769 0.0
C459 C 0.73456 0.47973 0.75169 0.0
H460 H 0.7571 0.51074 0.84102 0.0
C461 C 0.78356 0.46514 0.84791 0.0
C462 C 0.80218 0.48141 0.85692 0.0
C463 C 0.76912 0.46807 0.83113 0.0
C464 C 0.75109 0.50227 0.8158 0.0
H465 H 0.66225 0.4522 0.72343 0.0
H466 H 0.69398 0.45681 0.74395 0.0
H467 H 0.7294 0.51138 0.81008 0.0
H468 H 0.81993 0.51356 0.85745 0.0
H469 H 0.79426 0.51868 0.8286 0.0
H470 H 0.75561 0.46992 0.75836 0.0
C471 C 0.69233 0.46978 0.74124 0.0
C472 C 0.73534 0.50268 0.79799 0.0
C473 C 0.67407 0.4671 0.72971 0.0
C474 C 0.80568 0.50075 0.85076 0.0
C475 C 0.79107 0.50369 0.83427 0.0
C476 C 0.75011 0.47918 0.76963 0.0
C477 C 0.70789 0.48875 0.75088 0.0
C478 C 0.72654 0.49094 0.76635 0.0
C479 C 0.77292 0.48733 0.82333 0.0
C480 C 0.75813 0.48998 0.80239 0.0
H481 H 0.68453 0.51517 0.73459 0.0
H482 H 0.71672 0.51991 0.75465 0.0
H483 H 0.7284 0.47089 0.72689 0.0
H484 H 0.7804 0.45006 0.8524 0.0
H485 H 0.75508 0.45523 0.8235 0.0
C486 C 0.19369 0.66965 0.93063 0.0
C487 C 0.17741 0.66845 0.91157 0.0
C488 C 0.2069 0.68695 0.9493 0.0
C489 C 0.22718 0.74027 0.95115 0.0
H490 H 0.24566 0.73558 0.04838 0.0
C491 C 0.29251 0.80729 0.02295 0.0
C492 C 0.30729 0.80326 0.03513 0.0
C493 C 0.27361 0.79174 0.01372 0.0
C494 C 0.24061 0.73715 0.0213 0.0
H495 H 0.1623 0.68449 0.89649 0.0
H496 H 0.18581 0.71511 0.92883 0.0
H497 H 0.21824 0.70645 0.01927 0.0
H498 H 0.31366 0.77992 0.04916 0.0
H499 H 0.28088 0.75289 0.03298 0.0
H500 H 0.25016 0.77075 0.95239 0.0
C501 C 0.18817 0.70252 0.9294 0.0
C502 C 0.22494 0.7205 0.00467 0.0
C503 C 0.17478 0.68506 0.91093 0.0
C504 C 0.30257 0.78347 0.03977 0.0
C505 C 0.28372 0.76797 0.03074 0.0
C506 C 0.24294 0.75695 0.96774 0.0
C507 C 0.2042 0.7035 0.94914 0.0
C508 C 0.21854 0.72176 0.96894 0.0
C509 C 0.26917 0.77192 0.0168 0.0
C510 C 0.25024 0.75538 0.00246 0.0
H511 H 0.1961 0.65709 0.93163 0.0
H512 H 0.21936 0.68744 0.9637 0.0
H513 H 0.22255 0.74162 0.92353 0.0
H514 H 0.29576 0.82244 0.0192 0.0
H515 H 0.26263 0.79521 0.00335 0.0
C516 C 0.58234 0.15287 0.65242 0.0
C517 C 0.5997 0.1519 0.64672 0.0
C518 C 0.57676 0.15506 0.68815 0.0
C519 C 0.58421 0.14646 0.78588 0.0
H520 H 0.55769 0.17648 0.80569 0.0
C521 C 0.56009 0.15407 0.93328 0.0
C522 C 0.54059 0.15055 0.93646 0.0
C523 C 0.56888 0.1565 0.89844 0.0
C524 C 0.56501 0.16798 0.80052 0.0
H525 H 0.62526 0.15325 0.67367 0.0
H526 H 0.61577 0.1575 0.7359 0.0
H527 H 0.57049 0.17696 0.74369 0.0
H528 H 0.51516 0.14733 0.90583 0.0
H529 H 0.53047 0.15155 0.84504 0.0
H530 H 0.57862 0.13737 0.84261 0.0
C531 C 0.6062 0.15612 0.71294 0.0
C532 C 0.57231 0.16822 0.765 0.0
C533 C 0.61171 0.1538 0.67726 0.0
C534 C 0.53021 0.15001 0.90424 0.0
C535 C 0.53903 0.15255 0.86944 0.0
C536 C 0.57702 0.14631 0.82139 0.0
C537 C 0.58849 0.15644 0.71891 0.0
C538 C 0.5818 0.15727 0.75715 0.0
C539 C 0.55836 0.15559 0.86613 0.0
C540 C 0.56714 0.15688 0.829 0.0
H541 H 0.57277 0.15139 0.6294 0.0
H542 H 0.56291 0.15501 0.69173 0.0
H543 H 0.59112 0.13757 0.78072 0.0
H544 H 0.56847 0.15463 0.95766 0.0
H545 H 0.58388 0.15903 0.89676 0.0
C546 C 0.45254 0.60643 0.84321 0.0
C547 C 0.44243 0.59542 0.81167 0.0
C548 C 0.44491 0.59957 0.8786 0.0
C549 C 0.41272 0.55389 0.92965 0.0
H550 H 0.41181 0.58933 0.00424 0.0
C551 C 0.37573 0.52493 0.0717 0.0
C552 C 0.38513 0.53666 0.10295 0.0
C553 C 0.38221 0.53237 0.03609 0.0
C554 C 0.41218 0.57929 0.9839 0.0
H555 H 0.41633 0.56873 0.79235 0.0
H556 H 0.40307 0.55666 0.85429 0.0
H557 H 0.42404 0.60188 0.94213 0.0
H558 H 0.40864 0.56538 0.12152 0.0
H559 H 0.42031 0.57825 0.05934 0.0
H560 H 0.4013 0.5314 0.97137 0.0
C561 C 0.41692 0.57056 0.85159 0.0
C562 C 0.41913 0.58648 0.94829 0.0
C563 C 0.42446 0.57751 0.81617 0.0
C564 C 0.40108 0.55603 0.09791 0.0
C565 C 0.40767 0.56343 0.06225 0.0
C566 C 0.40593 0.54675 0.9653 0.0
C567 C 0.42711 0.58149 0.88317 0.0
C568 C 0.41945 0.57384 0.92081 0.0
C569 C 0.39835 0.55167 0.03088 0.0
C570 C 0.40555 0.55934 0.99289 0.0
H571 H 0.46643 0.6203 0.84058 0.0
H572 H 0.45318 0.60822 0.90244 0.0
H573 H 0.41308 0.54389 0.90919 0.0
H574 H 0.36331 0.50999 0.07472 0.0
H575 H 0.37443 0.52301 0.01263 0.0
C576 C 0.83798 0.45498 0.01333 0.0
C577 C 0.84059 0.44556 0.98242 0.0
C578 C 0.83667 0.44735 0.04889 0.0
C579 C 0.82834 0.4022 0.0996 0.0
H580 H 0.85547 0.43972 0.1791 0.0
C581 C 0.84583 0.37968 0.24097 0.0
C582 C 0.84266 0.38813 0.2728 0.0
C583 C 0.84417 0.38612 0.20575 0.0
C584 C 0.84763 0.42906 0.15728 0.0
H585 H 0.84367 0.42067 0.96433 0.0
H586 H 0.8419 0.4076 0.02644 0.0
H587 H 0.85515 0.45193 0.11718 0.0
H588 H 0.83511 0.40982 0.29278 0.0
H589 H 0.83233 0.42118 0.23115 0.0
H590 H 0.82129 0.37935 0.13977 0.0
C591 C 0.84045 0.42065 0.02327 0.0
C592 C 0.84739 0.43605 0.12177 0.0
C593 C 0.84158 0.4282 0.98766 0.0
C594 C 0.83768 0.40306 0.26873 0.0
C595 C 0.83616 0.40962 0.23349 0.0
C596 C 0.82872 0.39523 0.13509 0.0
C597 C 0.83812 0.43022 0.05438 0.0
C598 C 0.83781 0.42271 0.09242 0.0
C599 C 0.83945 0.40125 0.20164 0.0
C600 C 0.83844 0.40859 0.16425 0.0
H601 H 0.83701 0.46831 0.01009 0.0
H602 H 0.8345 0.4549 0.07209 0.0
H603 H 0.82053 0.3915 0.07785 0.0
H604 H 0.84969 0.36813 0.24326 0.0
H605 H 0.84698 0.37955 0.18172 0.0
C606 C 0.42291 0.83541 0.4277 0.0
C607 C 0.44091 0.8358 0.43404 0.0
C608 C 0.41548 0.83339 0.39177 0.0
C609 C 0.43208 0.8414 0.29431 0.0
H610 H 0.3755 0.81296 0.27417 0.0
C611 C 0.40013 0.8346 0.14687 0.0
C612 C 0.38462 0.83886 0.14412 0.0
C613 C 0.40659 0.83214 0.18158 0.0
C614 C 0.39134 0.82101 0.27943 0.0
H615 H 0.46491 0.83366 0.408 0.0
H616 H 0.45173 0.82972 0.34532 0.0
H617 H 0.3874 0.81189 0.33617 0.0
H618 H 0.36348 0.84354 0.17537 0.0
H619 H 0.37471 0.8392 0.23585 0.0
H620 H 0.43596 0.85058 0.23756 0.0
C621 C 0.44355 0.8314 0.36798 0.0
C622 C 0.39816 0.82044 0.31495 0.0
C623 C 0.45104 0.83353 0.40391 0.0
C624 C 0.37548 0.84028 0.17663 0.0
C625 C 0.38182 0.83766 0.21126 0.0
C626 C 0.42525 0.84185 0.25874 0.0
C627 C 0.42583 0.8316 0.3614 0.0
C628 C 0.4186 0.83088 0.32298 0.0
C629 C 0.39753 0.8337 0.21413 0.0
C630 C 0.4048 0.83191 0.25108 0.0
H631 H 0.41481 0.8372 0.45039 0.0
H632 H 0.40194 0.83389 0.38773 0.0
H633 H 0.44789 0.84986 0.29959 0.0
H634 H 0.40742 0.83338 0.12225 0.0
H635 H 0.41863 0.82895 0.18296 0.0
C636 C 0.60871 0.45334 0.57656 0.0
C637 C 0.59859 0.44324 0.6088 0.0
C638 C 0.60271 0.44427 0.54191 0.0
C639 C 0.5587 0.40591 0.49378 0.0
H640 H 0.59638 0.41333 0.41629 0.0
C641 C 0.53239 0.37261 0.34851 0.0
C642 C 0.5423 0.38531 0.31862 0.0
C643 C 0.54016 0.37758 0.3843 0.0
C644 C 0.58568 0.41122 0.43758 0.0
H645 H 0.5746 0.41554 0.63023 0.0
H646 H 0.56411 0.39964 0.5696 0.0
H647 H 0.60836 0.42579 0.47859 0.0
H648 H 0.5684 0.41285 0.30249 0.0
H649 H 0.58184 0.42171 0.36504 0.0
H650 H 0.53606 0.39181 0.45275 0.0
C651 C 0.57658 0.41465 0.57112 0.0
C652 C 0.59254 0.41834 0.47326 0.0
C653 C 0.58264 0.42371 0.60582 0.0
C654 C 0.56045 0.40276 0.325 0.0
C655 C 0.5682 0.40777 0.36083 0.0
C656 C 0.55185 0.39884 0.45813 0.0
C657 C 0.58642 0.42492 0.53874 0.0
C658 C 0.57914 0.41598 0.50163 0.0
C659 C 0.55797 0.3954 0.39101 0.0
C660 C 0.56527 0.40163 0.42947 0.0
H661 H 0.62107 0.46841 0.57798 0.0
H662 H 0.61046 0.45267 0.5175 0.0
H663 H 0.54801 0.40411 0.51487 0.0
H664 H 0.51842 0.35898 0.34439 0.0
H665 H 0.53208 0.36756 0.40682 0.0
C666 C 0.15611 0.54017 0.50711 0.0
C667 C 0.15455 0.54995 0.47571 0.0
C668 C 0.15921 0.5489 0.54211 0.0
C669 C 0.1513 0.58555 0.59251 0.0
H670 H 0.18147 0.5779 0.66973 0.0
C671 C 0.15723 0.61731 0.73877 0.0
C672 C 0.1535 0.60397 0.76799 0.0
C673 C 0.16057 0.61283 0.70294 0.0
C674 C 0.17295 0.5801 0.64845 0.0
H675 H 0.15599 0.57695 0.45599 0.0
H676 H 0.16181 0.59241 0.517 0.0
H677 H 0.18191 0.56657 0.60677 0.0
H678 H 0.1511 0.57587 0.78296 0.0
H679 H 0.15683 0.56799 0.72029 0.0
H680 H 0.14211 0.59881 0.63417 0.0
C681 C 0.16019 0.57779 0.51474 0.0
C682 C 0.17317 0.5736 0.61241 0.0
C683 C 0.15699 0.56899 0.47975 0.0
C684 C 0.15393 0.58643 0.76097 0.0
C685 C 0.15732 0.58197 0.72511 0.0
C686 C 0.15115 0.59212 0.62844 0.0
C687 C 0.16092 0.56767 0.54646 0.0
C688 C 0.16213 0.57601 0.5841 0.0
C689 C 0.16028 0.59495 0.69557 0.0
C690 C 0.16177 0.58925 0.65693 0.0
H691 H 0.15426 0.52545 0.50486 0.0
H692 H 0.15945 0.54057 0.56592 0.0
H693 H 0.14232 0.58733 0.57164 0.0
H694 H 0.1571 0.631 0.74337 0.0
H695 H 0.16309 0.62326 0.68086 0.0
C696 C 0.48138 0.06525 0.02262 0.0
C697 C 0.47353 0.07776 0.02923 0.0
C698 C 0.46891 0.04477 0.02049 0.0
C699 C 0.42112 0.00451 0.05195 0.0
H700 H 0.43125 0.97441 0.9781 0.0
C701 C 0.37754 0.91817 0.04422 0.0
C702 C 0.38952 0.90955 0.03926 0.0
C703 C 0.38568 0.93872 0.04075 0.0
C704 C 0.42828 0.98261 0.99895 0.0
H705 H 0.44649 0.07872 0.03864 0.0
H706 H 0.42454 0.04263 0.03518 0.0
H707 H 0.44917 0.01055 0.97513 0.0
H708 H 0.41939 0.91561 0.02728 0.0
H709 H 0.43354 0.95129 0.02151 0.0
H710 H 0.40059 0.97649 0.07635 0.0
C711 C 0.44038 0.04879 0.03164 0.0
C712 C 0.43851 0.00327 0.99721 0.0
C713 C 0.45291 0.06939 0.03346 0.0
C714 C 0.40976 0.92181 0.03113 0.0
C715 C 0.41784 0.94224 0.02753 0.0
C716 C 0.41087 0.98377 0.05372 0.0
C717 C 0.4483 0.03631 0.02511 0.0
C718 C 0.43543 0.01445 0.02424 0.0
C719 C 0.40588 0.95091 0.032 0.0
C720 C 0.41477 0.97266 0.0278 0.0
H721 H 0.49722 0.07128 0.01928 0.0
H722 H 0.47547 0.03551 0.01601 0.0
H723 H 0.41855 0.01278 0.07327 0.0
H724 H 0.36187 0.90904 0.05048 0.0
H725 H 0.37612 0.94502 0.04427 0.0
C726 C 0.45414 0.38107 0.22948 0.0
C727 C 0.47463 0.39366 0.23483 0.0
C728 C 0.44111 0.38849 0.23271 0.0
C729 C 0.4373 0.4308 0.26987 0.0
H730 H 0.40095 0.42024 0.18819 0.0
C731 C 0.40871 0.48335 0.23223 0.0
C732 C 0.38881 0.47533 0.22145 0.0
C733 C 0.41668 0.47102 0.23794 0.0
C734 C 0.41075 0.42305 0.21155 0.0
H735 H 0.49752 0.42362 0.24882 0.0
H736 H 0.47489 0.43652 0.25435 0.0
H737 H 0.41933 0.40243 0.19201 0.0
H738 H 0.36158 0.44816 0.20822 0.0
H739 H 0.37563 0.4265 0.21806 0.0
H740 H 0.42922 0.45186 0.28879 0.0
C741 C 0.4688 0.42093 0.24796 0.0
C742 C 0.42125 0.41284 0.21376 0.0
C743 C 0.48179 0.41357 0.24451 0.0
C744 C 0.37699 0.45472 0.21645 0.0
C745 C 0.38502 0.44235 0.222 0.0
C746 C 0.42683 0.44099 0.26766 0.0
C747 C 0.44836 0.40854 0.24167 0.0
C748 C 0.43505 0.41704 0.24237 0.0
C749 C 0.40494 0.4504 0.23292 0.0
C750 C 0.41388 0.43763 0.23791 0.0
H751 H 0.44823 0.36564 0.22202 0.0
H752 H 0.4254 0.37859 0.22793 0.0
H753 H 0.44757 0.43407 0.29261 0.0
H754 H 0.41818 0.49918 0.23627 0.0
H755 H 0.43217 0.47771 0.24567 0.0
C756 C 0.06445 0.48607 0.41316 0.0
C757 C 0.07722 0.47911 0.40226 0.0
C758 C 0.04417 0.47291 0.41739 0.0
C759 C 0.0049 0.42544 0.3824 0.0
H760 H 0.97353 0.43283 0.45757 0.0
C761 C 0.91875 0.38097 0.38389 0.0
C762 C 0.90988 0.39271 0.38906 0.0
C763 C 0.93914 0.38901 0.38971 0.0
C764 C 0.9821 0.43059 0.43641 0.0
H765 H 0.07897 0.45289 0.38853 0.0
H766 H 0.04335 0.4298 0.39589 0.0
H767 H 0.00968 0.45127 0.4618 0.0
H768 H 0.91529 0.42197 0.40444 0.0
H769 H 0.95074 0.43597 0.4143 0.0
H770 H 0.9773 0.40523 0.35638 0.0
C771 C 0.04907 0.44546 0.40093 0.0
C772 C 0.00277 0.44112 0.43885 0.0
C773 C 0.06943 0.45865 0.39689 0.0
C774 C 0.9217 0.41255 0.40023 0.0
C775 C 0.94198 0.42053 0.40622 0.0
C776 C 0.9842 0.41488 0.37996 0.0
C777 C 0.03621 0.45252 0.41069 0.0
C778 C 0.0144 0.43909 0.4113 0.0
C779 C 0.95093 0.40886 0.40108 0.0
C780 C 0.97263 0.41781 0.40637 0.0
H781 H 0.07004 0.50177 0.41753 0.0
H782 H 0.03462 0.47886 0.42445 0.0
H783 H 0.01347 0.4237 0.36056 0.0
H784 H 0.90995 0.3656 0.37537 0.0
H785 H 0.94565 0.37967 0.38565 0.0
C786 C 0.52634 0.91785 0.53243 0.0
C787 C 0.50573 0.90962 0.52816 0.0
C788 C 0.53894 0.93845 0.53147 0.0
C789 C 0.54074 0.9847 0.50108 0.0
H790 H 0.57942 0.00993 0.57969 0.0
C791 C 0.56931 0.0651 0.54244 0.0
C792 C 0.58986 0.07753 0.54704 0.0
C793 C 0.56123 0.04469 0.53845 0.0
C794 C 0.56889 0.00306 0.55728 0.0
H795 H 0.48217 0.91637 0.51894 0.0
H796 H 0.50402 0.95211 0.51743 0.0
H797 H 0.56141 0.9737 0.57402 0.0
H798 H 0.61804 0.07835 0.55231 0.0
H799 H 0.60373 0.04234 0.54573 0.0
H800 H 0.54768 0.01392 0.48508 0.0
C801 C 0.51054 0.94276 0.52112 0.0
C802 C 0.55863 0.98236 0.55396 0.0
C803 C 0.498 0.92227 0.52224 0.0
C804 C 0.60214 0.06908 0.54877 0.0
C805 C 0.59398 0.04853 0.54505 0.0
C806 C 0.5509 0.00529 0.50449 0.0
C807 C 0.53113 0.9511 0.52591 0.0
C808 C 0.54405 0.97298 0.52643 0.0
C809 C 0.57349 0.03624 0.53915 0.0
C810 C 0.56466 0.01463 0.53321 0.0
H811 H 0.53267 0.9084 0.53706 0.0
H812 H 0.55476 0.94449 0.53505 0.0
H813 H 0.52991 0.9779 0.47909 0.0
H814 H 0.55946 0.07117 0.54113 0.0
H815 H 0.54533 0.0355 0.53464 0.0
C816 C 0.60439 0.53222 0.69775 0.0
C817 C 0.5922 0.51158 0.69376 0.0
C818 C 0.59637 0.54472 0.69424 0.0
C819 C 0.55309 0.5464 0.65677 0.0
H820 H 0.56265 0.58376 0.73619 0.0
C821 C 0.49863 0.57318 0.69014 0.0
C822 C 0.50607 0.59318 0.69947 0.0
C823 C 0.51145 0.56568 0.68588 0.0
C824 C 0.56011 0.57367 0.71345 0.0
H825 H 0.56225 0.48785 0.68218 0.0
H826 H 0.54832 0.50956 0.67602 0.0
H827 H 0.58147 0.56632 0.73404 0.0
H828 H 0.53273 0.62107 0.71182 0.0
H829 H 0.55527 0.60785 0.70448 0.0
H830 H 0.53137 0.55328 0.63672 0.0
C831 C 0.56406 0.51615 0.68161 0.0
C832 C 0.57089 0.56371 0.7122 0.0
C833 C 0.57201 0.5037 0.68541 0.0
C834 C 0.5266 0.60556 0.70467 0.0
C835 C 0.53948 0.59801 0.70054 0.0
C836 C 0.54236 0.55635 0.65799 0.0
C837 C 0.57609 0.53676 0.68625 0.0
C838 C 0.56704 0.54955 0.68446 0.0
C839 C 0.53201 0.578 0.6909 0.0
C840 C 0.54533 0.56963 0.68695 0.0
H841 H 0.62002 0.53866 0.7042 0.0
H842 H 0.60597 0.56057 0.69783 0.0
H843 H 0.55009 0.53584 0.63468 0.0
H844 H 0.48286 0.56327 0.68603 0.0
H845 H 0.5052 0.5501 0.67915 0.0
C846 C 0.06798 0.6079 0.85479 0.0
C847 C 0.0759 0.59558 0.84668 0.0
C848 C 0.0475 0.6005 0.8526 0.0
C849 C 0.00072 0.5584 0.81611 0.0
H850 H 0.97657 0.56704 0.90293 0.0
C851 C 0.92166 0.50325 0.86107 0.0
C852 C 0.90914 0.51049 0.87202 0.0
C853 C 0.94176 0.51626 0.85459 0.0
C854 C 0.98311 0.56478 0.87822 0.0
H855 H 0.06881 0.5662 0.82841 0.0
H856 H 0.03324 0.55328 0.82479 0.0
H857 H 0.01265 0.58572 0.89563 0.0
H858 H 0.90783 0.53698 0.88548 0.0
H859 H 0.94333 0.55987 0.87467 0.0
H860 H 0.97126 0.53685 0.79953 0.0
C861 C 0.04274 0.56868 0.83253 0.0
C862 C 0.00374 0.5755 0.87396 0.0
C863 C 0.06313 0.57604 0.83485 0.0
C864 C 0.91718 0.53102 0.87709 0.0
C865 C 0.93743 0.54408 0.87092 0.0
C866 C 0.98015 0.54766 0.82045 0.0
C867 C 0.03465 0.5807 0.84201 0.0
C868 C 0.01278 0.57195 0.84342 0.0
C869 C 0.94982 0.5368 0.85914 0.0
C870 C 0.97121 0.55031 0.85209 0.0
H871 H 0.07751 0.62305 0.86394 0.0
H872 H 0.04169 0.61015 0.85977 0.0
H873 H 0.00723 0.55565 0.7919 0.0
H874 H 0.9159 0.4875 0.85696 0.0
H875 H 0.95105 0.51021 0.84623 0.0
loop_
_geom_bond_atom_site_label_1
_geom_bond_atom_site_label_2
_geom_bond_distance
_geom_bond_site_symmetry_2
_ccdc_geom_bond_type
In0 O1 2.294 . S
In0 O2 2.326 1_554 S
In0 O6 2.266 . S
In0 O7 2.326 . S
In0 O8 2.266 . S
In0 O9 2.326 . S
In0 O11 2.294 . S
In0 O12 2.326 . S
O1 In0 2.294 . S
O1 C10 1.240 1_554 S
O2 In0 2.326 1_556 S
O2 C10 1.252 . S
C3 O6 1.252 . S
C3 O7 1.260 . S
C4 O11 1.240 . S
C4 O12 1.252 . S
C5 O8 1.252 . S
C5 O9 1.260 . S
O6 In0 2.266 . S
O6 C3 1.252 . S
O7 In0 2.326 . S
O7 C3 1.260 . S
O8 In0 2.266 . S
O8 C5 1.252 . S
O9 In0 2.326 . S
O9 C5 1.260 . S
C10 O1 1.240 1_556 S
C10 O2 1.252 . S
O11 In0 2.294 . S
O11 C4 1.240 . S
O12 In0 2.326 . S
O12 C4 1.252 . S
In13 O14 2.294 . S
In13 O15 2.326 . S
In13 O19 2.266 . S
In13 O20 2.326 . S
In13 O21 2.266 . S
In13 O22 2.326 . S
In13 O24 2.294 . S
In13 O25 2.326 . S
O14 In13 2.294 . S
O14 C23 1.240 . S
O15 In13 2.326 . S
O15 C23 1.252 . S
C16 O19 1.252 . S
C16 O20 1.260 . S
C17 O24 1.240 . S
C17 O25 1.252 . S
C18 O21 1.252 . S
C18 O22 1.260 . S
O19 In13 2.266 . S
O19 C16 1.252 . S
O20 In13 2.326 . S
O20 C16 1.260 . S
O21 In13 2.266 . S
O21 C18 1.252 . S
O22 In13 2.326 . S
O22 C18 1.260 . S
C23 O14 1.240 . S
C23 O15 1.252 . S
O24 In13 2.294 . S
O24 C17 1.240 . S
O25 In13 2.326 . S
O25 C17 1.252 . S
In26 O27 2.294 . S
In26 O28 2.326 . S
In26 O32 2.266 . S
In26 O33 2.326 . S
In26 O34 2.266 . S
In26 O35 2.326 . S
In26 O37 2.294 . S
In26 O38 2.326 . S
O27 In26 2.294 . S
O27 C36 1.240 . S
O28 In26 2.326 . S
O28 C36 1.252 . S
C29 O32 1.252 . S
C29 O33 1.260 . S
C30 O37 1.240 . S
C30 O38 1.252 . S
C31 O34 1.252 . S
C31 O35 1.260 . S
O32 In26 2.266 . S
O32 C29 1.252 . S
O33 In26 2.326 . S
O33 C29 1.260 . S
O34 In26 2.266 . S
O34 C31 1.252 . S
O35 In26 2.326 . S
O35 C31 1.260 . S
C36 O27 1.240 . S
C36 O28 1.252 . S
O37 In26 2.294 . S
O37 C30 1.240 . S
O38 In26 2.326 . S
O38 C30 1.252 . S
In39 O40 2.294 . S
In39 O41 2.326 . S
In39 O45 2.266 . S
In39 O46 2.326 . S
In39 O47 2.266 . S
In39 O48 2.326 . S
In39 O50 2.294 . S
In39 O51 2.326 . S
O40 In39 2.294 . S
O40 C49 1.240 . S
O41 In39 2.326 . S
O41 C49 1.252 . S
C42 O45 1.252 . S
C42 O46 1.260 . S
C43 O50 1.240 . S
C43 O51 1.252 . S
C44 O47 1.252 . S
C44 O48 1.260 . S
O45 In39 2.266 . S
O45 C42 1.252 . S
O46 In39 2.326 . S
O46 C42 1.260 . S
O47 In39 2.266 . S
O47 C44 1.252 . S
O48 In39 2.326 . S
O48 C44 1.260 . S
C49 O40 1.240 . S
C49 O41 1.252 . S
O50 In39 2.294 . S
O50 C43 1.240 . S
O51 In39 2.326 . S
O51 C43 1.252 . S
In52 O53 2.294 . S
In52 O54 2.326 . S
In52 O58 2.266 . S
In52 O59 2.326 . S
In52 O60 2.266 . S
In52 O61 2.326 . S
In52 O63 2.294 . S
In52 O64 2.326 . S
O53 In52 2.294 . S
O53 C62 1.240 . S
O54 In52 2.326 . S
O54 C62 1.252 . S
C55 O58 1.252 . S
C55 O59 1.260 . S
C56 O63 1.240 . S
C56 O64 1.252 . S
C57 O60 1.252 . S
C57 O61 1.260 . S
O58 In52 2.266 . S
O58 C55 1.252 . S
O59 In52 2.326 . S
O59 C55 1.260 . S
O60 In52 2.266 . S
O60 C57 1.252 . S
O61 In52 2.326 . S
O61 C57 1.260 . S
C62 O53 1.240 . S
C62 O54 1.252 . S
O63 In52 2.294 . S
O63 C56 1.240 . S
O64 In52 2.326 . S
O64 C56 1.252 . S
In65 O66 2.294 . S
In65 O67 2.326 . S
In65 O71 2.266 . S
In65 O72 2.326 . S
In65 O73 2.266 . S
In65 O74 2.326 . S
In65 O76 2.294 . S
In65 O77 2.326 . S
O66 In65 2.294 . S
O66 C75 1.240 . S
O67 In65 2.326 . S
O67 C75 1.252 . S
C68 O71 1.252 . S
C68 O72 1.260 . S
C69 O76 1.240 . S
C69 O77 1.252 . S
C70 O73 1.252 . S
C70 O74 1.260 . S
O71 In65 2.266 . S
O71 C68 1.252 . S
O72 In65 2.326 . S
O72 C68 1.260 . S
O73 In65 2.266 . S
O73 C70 1.252 . S
O74 In65 2.326 . S
O74 C70 1.260 . S
C75 O66 1.240 . S
C75 O67 1.252 . S
O76 In65 2.294 . S
O76 C69 1.240 . S
O77 In65 2.326 . S
O77 C69 1.252 . S
In78 O79 2.294 . S
In78 O80 2.326 . S
In78 O84 2.266 . S
In78 O85 2.326 . S
In78 O86 2.266 . S
In78 O87 2.326 . S
In78 O89 2.294 . S
In78 O90 2.326 . S
O79 In78 2.294 . S
O79 C88 1.240 . S
O80 In78 2.326 . S
O80 C88 1.252 . S
C81 O84 1.252 . S
C81 O85 1.260 . S
C82 O89 1.240 . S
C82 O90 1.252 . S
C83 O86 1.252 . S
C83 O87 1.260 . S
O84 In78 2.266 . S
O84 C81 1.252 . S
O85 In78 2.326 . S
O85 C81 1.260 . S
O86 In78 2.266 . S
O86 C83 1.252 . S
O87 In78 2.326 . S
O87 C83 1.260 . S
C88 O79 1.240 . S
C88 O80 1.252 . S
O89 In78 2.294 . S
O89 C82 1.240 . S
O90 In78 2.326 . S
O90 C82 1.252 . S
In91 O92 2.294 . S
In91 O93 2.326 . S
In91 O97 2.266 . S
In91 O98 2.326 . S
In91 O99 2.266 1_554 S
In91 O100 2.326 1_554 S
In91 O102 2.294 . S
In91 O103 2.326 . S
O92 In91 2.294 . S
O92 C101 1.240 . S
O93 In91 2.326 . S
O93 C101 1.252 . S
C94 O97 1.252 . S
C94 O98 1.260 . S
C95 O102 1.240 . S
C95 O103 1.252 . S
C96 O99 1.252 . S
C96 O100 1.260 . S
O97 In91 2.266 . S
O97 C94 1.252 . S
O98 In91 2.326 . S
O98 C94 1.260 . S
O99 In91 2.266 1_556 S
O99 C96 1.252 . S
O100 In91 2.326 1_556 S
O100 C96 1.260 . S
C101 O92 1.240 . S
C101 O93 1.252 . S
O102 In91 2.294 . S
O102 C95 1.240 . S
O103 In91 2.326 . S
O103 C95 1.252 . S
In104 O105 2.294 . S
In104 O106 2.326 . S
In104 O110 2.266 . S
In104 O111 2.326 . S
In104 O112 2.266 . S
In104 O113 2.326 . S
In104 O115 2.294 . S
In104 O116 2.326 . S
O105 In104 2.294 . S
O105 C114 1.240 . S
O106 In104 2.326 . S
O106 C114 1.252 . S
C107 O110 1.252 . S
C107 O111 1.260 . S
C108 O115 1.240 . S
C108 O116 1.252 . S
C109 O112 1.252 . S
C109 O113 1.260 . S
O110 In104 2.266 . S
O110 C107 1.252 . S
O111 In104 2.326 . S
O111 C107 1.260 . S
O112 In104 2.266 . S
O112 C109 1.252 . S
O113 In104 2.326 . S
O113 C109 1.260 . S
C114 O105 1.240 . S
C114 O106 1.252 . S
O115 In104 2.294 . S
O115 C108 1.240 . S
O116 In104 2.326 . S
O116 C108 1.252 . S
In117 O118 2.294 . S
In117 O119 2.326 . S
In117 O123 2.266 . S
In117 O124 2.326 . S
In117 O125 2.266 . S
In117 O126 2.326 . S
In117 O128 2.294 . S
In117 O129 2.326 . S
O118 In117 2.294 . S
O118 C127 1.240 . S
O119 In117 2.326 . S
O119 C127 1.252 . S
C120 O123 1.252 . S
C120 O124 1.260 . S
C121 O128 1.240 . S
C121 O129 1.252 . S
C122 O125 1.252 . S
C122 O126 1.260 . S
O123 In117 2.266 . S
O123 C120 1.252 . S
O124 In117 2.326 . S
O124 C120 1.260 . S
O125 In117 2.266 . S
O125 C122 1.252 . S
O126 In117 2.326 . S
O126 C122 1.260 . S
C127 O118 1.240 . S
C127 O119 1.252 . S
O128 In117 2.294 . S
O128 C121 1.240 . S
O129 In117 2.326 . S
O129 C121 1.252 . S
In130 O131 2.294 . S
In130 O132 2.326 . S
In130 O136 2.266 . S
In130 O137 2.326 . S
In130 O138 2.266 . S
In130 O139 2.326 . S
In130 O141 2.294 . S
In130 O142 2.326 . S
O131 In130 2.294 . S
O131 C140 1.240 . S
O132 In130 2.326 . S
O132 C140 1.252 . S
C133 O136 1.252 . S
C133 O137 1.260 . S
C134 O141 1.240 . S
C134 O142 1.252 . S
C135 O138 1.252 . S
C135 O139 1.260 . S
O136 In130 2.266 . S
O136 C133 1.252 . S
O137 In130 2.326 . S
O137 C133 1.260 . S
O138 In130 2.266 . S
O138 C135 1.252 . S
O139 In130 2.326 . S
O139 C135 1.260 . S
C140 O131 1.240 . S
C140 O132 1.252 . S
O141 In130 2.294 . S
O141 C134 1.240 . S
O142 In130 2.326 . S
O142 C134 1.252 . S
In143 O144 2.294 . S
In143 O145 2.326 . S
In143 O149 2.266 . S
In143 O150 2.326 . S
In143 O151 2.266 . S
In143 O152 2.326 . S
In143 O154 2.294 . S
In143 O155 2.326 . S
O144 In143 2.294 . S
O144 C153 1.240 . S
O145 In143 2.326 . S
O145 C153 1.252 . S
C146 O149 1.252 . S
C146 O150 1.260 . S
C147 O154 1.240 . S
C147 O155 1.252 . S
C148 O151 1.252 . S
C148 O152 1.260 . S
O149 In143 2.266 . S
O149 C146 1.252 . S
O150 In143 2.326 . S
O150 C146 1.260 . S
O151 In143 2.266 . S
O151 C148 1.252 . S
O152 In143 2.326 . S
O152 C148 1.260 . S
C153 O144 1.240 . S
C153 O145 1.252 . S
O154 In143 2.294 . S
O154 C147 1.240 . S
O155 In143 2.326 . S
O155 C147 1.252 . S
C156 C157 1.349 . S
C156 C158 1.327 . S
C156 H181 0.950 . S
C157 C156 1.349 . S
C157 C173 1.349 . S
C158 C156 1.327 . S
C158 C177 1.429 . S
C158 H182 0.950 . S
C159 C176 1.574 . S
C159 C178 1.368 . S
C159 H183 0.949 . S
H160 C164 0.949 . S
C161 C162 1.349 . S
C161 C163 1.327 . S
C161 H184 0.950 . S
C162 C161 1.349 . S
C162 C174 1.349 . S
C163 C161 1.327 . S
C163 C179 1.429 . S
C163 H185 0.950 . S
C164 H160 0.949 . S
C164 C172 1.574 . S
C164 C180 1.368 . S
H165 C173 0.950 . S
H166 C171 0.950 . S
H167 C172 0.949 . S
H168 C174 0.950 . S
H169 C175 0.950 . S
H170 C176 0.949 . S
C171 H166 0.950 . S
C171 C173 1.327 . S
C171 C177 1.429 . S
C172 C164 1.574 . S
C172 H167 0.949 . S
C172 C178 1.368 . S
C173 C157 1.349 . S
C173 H165 0.950 . S
C173 C171 1.327 . S
C174 C162 1.349 . S
C174 H168 0.950 . S
C174 C175 1.327 . S
C175 H169 0.950 . S
C175 C174 1.327 . S
C175 C179 1.429 . S
C176 C159 1.574 . S
C176 H170 0.949 . S
C176 C180 1.368 . S
C177 C158 1.429 . S
C177 C171 1.429 . S
C177 C178 1.523 . S
C178 C159 1.368 . S
C178 C172 1.368 . S
C178 C177 1.523 . S
C179 C163 1.429 . S
C179 C175 1.429 . S
C179 C180 1.523 . S
C180 C164 1.368 . S
C180 C176 1.368 . S
C180 C179 1.523 . S
H181 C156 0.950 . S
H182 C158 0.950 . S
H183 C159 0.949 . S
H184 C161 0.950 . S
H185 C163 0.950 . S
C186 C187 1.349 . S
C186 C188 1.327 . S
C186 H211 0.950 . S
C187 C186 1.349 . S
C187 C203 1.349 . S
C188 C186 1.327 . S
C188 C207 1.429 . S
C188 H212 0.950 . S
C189 C206 1.574 . S
C189 C208 1.368 . S
C189 H213 0.949 . S
H190 C194 0.949 . S
C191 C192 1.349 . S
C191 C193 1.327 . S
C191 H214 0.950 . S
C192 C191 1.349 . S
C192 C204 1.349 . S
C193 C191 1.327 . S
C193 C209 1.429 . S
C193 H215 0.950 . S
C194 H190 0.949 . S
C194 C202 1.574 . S
C194 C210 1.368 . S
H195 C203 0.950 . S
H196 C201 0.950 . S
H197 C202 0.949 . S
H198 C204 0.950 . S
H199 C205 0.950 . S
H200 C206 0.949 . S
C201 H196 0.950 . S
C201 C203 1.327 . S
C201 C207 1.429 . S
C202 C194 1.574 . S
C202 H197 0.949 . S
C202 C208 1.368 . S
C203 C187 1.349 . S
C203 H195 0.950 . S
C203 C201 1.327 . S
C204 C192 1.349 . S
C204 H198 0.950 . S
C204 C205 1.327 . S
C205 H199 0.950 . S
C205 C204 1.327 . S
C205 C209 1.429 . S
C206 C189 1.574 . S
C206 H200 0.949 . S
C206 C210 1.368 . S
C207 C188 1.429 . S
C207 C201 1.429 . S
C207 C208 1.523 . S
C208 C189 1.368 . S
C208 C202 1.368 . S
C208 C207 1.523 . S
C209 C193 1.429 . S
C209 C205 1.429 . S
C209 C210 1.523 . S
C210 C194 1.368 . S
C210 C206 1.368 . S
C210 C209 1.523 . S
H211 C186 0.950 . S
H212 C188 0.950 . S
H213 C189 0.949 . S
H214 C191 0.950 . S
H215 C193 0.950 . S
C216 C217 1.349 . S
C216 C218 1.327 . S
C216 H241 0.950 . S
C217 C216 1.349 . S
C217 C233 1.349 . S
C218 C216 1.327 . S
C218 C237 1.429 . S
C218 H242 0.950 . S
C219 C236 1.574 . S
C219 C238 1.368 . S
C219 H243 0.949 . S
H220 C224 0.949 . S
C221 C222 1.349 . S
C221 C223 1.327 . S
C221 H244 0.950 . S
C222 C221 1.349 . S
C222 C234 1.349 . S
C223 C221 1.327 . S
C223 C239 1.429 . S
C223 H245 0.950 . S
C224 H220 0.949 . S
C224 C232 1.574 . S
C224 C240 1.368 . S
H225 C233 0.950 . S
H226 C231 0.950 . S
H227 C232 0.949 . S
H228 C234 0.950 . S
H229 C235 0.950 . S
H230 C236 0.949 . S
C231 H226 0.950 . S
C231 C233 1.327 . S
C231 C237 1.429 . S
C232 C224 1.574 . S
C232 H227 0.949 . S
C232 C238 1.368 . S
C233 C217 1.349 . S
C233 H225 0.950 . S
C233 C231 1.327 . S
C234 C222 1.349 . S
C234 H228 0.950 . S
C234 C235 1.327 . S
C235 H229 0.950 . S
C235 C234 1.327 . S
C235 C239 1.429 . S
C236 C219 1.574 . S
C236 H230 0.949 . S
C236 C240 1.368 . S
C237 C218 1.429 . S
C237 C231 1.429 . S
C237 C238 1.523 . S
C238 C219 1.368 . S
C238 C232 1.368 . S
C238 C237 1.523 . S
C239 C223 1.429 . S
C239 C235 1.429 . S
C239 C240 1.523 . S
C240 C224 1.368 . S
C240 C236 1.368 . S
C240 C239 1.523 . S
H241 C216 0.950 . S
H242 C218 0.950 . S
H243 C219 0.949 . S
H244 C221 0.950 . S
H245 C223 0.950 . S
C246 C247 1.349 . S
C246 C248 1.327 . S
C246 H271 0.950 . S
C247 C246 1.349 . S
C247 C263 1.349 . S
C248 C246 1.327 . S
C248 C267 1.429 . S
C248 H272 0.950 . S
C249 C266 1.574 . S
C249 C268 1.368 . S
C249 H273 0.949 . S
H250 C254 0.949 . S
C251 C252 1.349 . S
C251 C253 1.327 . S
C251 H274 0.950 . S
C252 C251 1.349 . S
C252 C264 1.349 . S
C253 C251 1.327 . S
C253 C269 1.429 . S
C253 H275 0.950 . S
C254 H250 0.949 . S
C254 C262 1.574 . S
C254 C270 1.368 . S
H255 C263 0.950 . S
H256 C261 0.950 . S
H257 C262 0.949 . S
H258 C264 0.950 . S
H259 C265 0.950 . S
H260 C266 0.949 . S
C261 H256 0.950 . S
C261 C263 1.327 . S
C261 C267 1.429 . S
C262 C254 1.574 . S
C262 H257 0.949 . S
C262 C268 1.368 . S
C263 C247 1.349 . S
C263 H255 0.950 . S
C263 C261 1.327 . S
C264 C252 1.349 . S
C264 H258 0.950 . S
C264 C265 1.327 . S
C265 H259 0.950 . S
C265 C264 1.327 . S
C265 C269 1.429 . S
C266 C249 1.574 . S
C266 H260 0.949 . S
C266 C270 1.368 . S
C267 C248 1.429 . S
C267 C261 1.429 . S
C267 C268 1.523 . S
C268 C249 1.368 . S
C268 C262 1.368 . S
C268 C267 1.523 . S
C269 C253 1.429 . S
C269 C265 1.429 . S
C269 C270 1.523 . S
C270 C254 1.368 . S
C270 C266 1.368 . S
C270 C269 1.523 . S
H271 C246 0.950 . S
H272 C248 0.950 . S
H273 C249 0.949 . S
H274 C251 0.950 . S
H275 C253 0.950 . S
C276 C277 1.349 . S
C276 C278 1.327 . S
C276 H301 0.950 . S
C277 C276 1.349 . S
C277 C293 1.349 . S
C278 C276 1.327 . S
C278 C297 1.429 . S
C278 H302 0.950 . S
C279 C296 1.574 . S
C279 C298 1.368 . S
C279 H303 0.949 . S
H280 C284 0.949 . S
C281 C282 1.349 . S
C281 C283 1.327 . S
C281 H304 0.950 . S
C282 C281 1.349 . S
C282 C294 1.349 . S
C283 C281 1.327 . S
C283 C299 1.429 . S
C283 H305 0.950 . S
C284 H280 0.949 . S
C284 C292 1.574 . S
C284 C300 1.368 . S
H285 C293 0.950 . S
H286 C291 0.950 . S
H287 C292 0.949 1_554 S
H288 C294 0.950 . S
H289 C295 0.950 . S
H290 C296 0.949 . S
C291 H286 0.950 . S
C291 C293 1.327 . S
C291 C297 1.429 . S
C292 C284 1.574 . S
C292 H287 0.949 1_556 S
C292 C298 1.368 . S
C293 C277 1.349 . S
C293 H285 0.950 . S
C293 C291 1.327 . S
C294 C282 1.349 . S
C294 H288 0.950 . S
C294 C295 1.327 . S
C295 H289 0.950 . S
C295 C294 1.327 . S
C295 C299 1.429 . S
C296 C279 1.574 . S
C296 H290 0.949 . S
C296 C300 1.368 . S
C297 C278 1.429 . S
C297 C291 1.429 . S
C297 C298 1.523 1_554 S
C298 C279 1.368 . S
C298 C292 1.368 . S
C298 C297 1.523 1_556 S
C299 C283 1.429 . S
C299 C295 1.429 . S
C299 C300 1.523 . S
C300 C284 1.368 . S
C300 C296 1.368 . S
C300 C299 1.523 . S
H301 C276 0.950 . S
H302 C278 0.950 . S
H303 C279 0.949 . S
H304 C281 0.950 . S
H305 C283 0.950 . S
C306 C307 1.349 . S
C306 C308 1.327 . S
C306 H331 0.950 . S
C307 C306 1.349 . S
C307 C323 1.349 . S
C308 C306 1.327 . S
C308 C327 1.429 . S
C308 H332 0.950 . S
C309 C326 1.574 . S
C309 C328 1.368 . S
C309 H333 0.949 . S
H310 C314 0.949 . S
C311 C312 1.349 . S
C311 C313 1.327 1_556 S
C311 H334 0.950 . S
C312 C311 1.349 . S
C312 C324 1.349 . S
C313 C311 1.327 1_554 S
C313 C329 1.429 . S
C313 H335 0.950 . S
C314 H310 0.949 . S
C314 C322 1.574 . S
C314 C330 1.368 . S
H315 C323 0.950 . S
H316 C321 0.950 . S
H317 C322 0.949 . S
H318 C324 0.950 . S
H319 C325 0.950 . S
H320 C326 0.949 . S
C321 H316 0.950 . S
C321 C323 1.327 . S
C321 C327 1.429 . S
C322 C314 1.574 . S
C322 H317 0.949 . S
C322 C328 1.368 . S
C323 C307 1.349 . S
C323 H315 0.950 . S
C323 C321 1.327 . S
C324 C312 1.349 . S
C324 H318 0.950 . S
C324 C325 1.327 1_556 S
C325 H319 0.950 . S
C325 C324 1.327 1_554 S
C325 C329 1.429 . S
C326 C309 1.574 . S
C326 H320 0.949 . S
C326 C330 1.368 . S
C327 C308 1.429 . S
C327 C321 1.429 . S
C327 C328 1.523 . S
C328 C309 1.368 . S
C328 C322 1.368 . S
C328 C327 1.523 . S
C329 C313 1.429 . S
C329 C325 1.429 . S
C329 C330 1.523 . S
C330 C314 1.368 . S
C330 C326 1.368 . S
C330 C329 1.523 . S
H331 C306 0.950 . S
H332 C308 0.950 . S
H333 C309 0.949 . S
H334 C311 0.950 . S
H335 C313 0.950 . S
C336 C337 1.349 . S
C336 C338 1.327 . S
C336 H361 0.950 . S
C337 C336 1.349 . S
C337 C353 1.349 . S
C338 C336 1.327 . S
C338 C357 1.429 . S
C338 H362 0.950 . S
C339 C356 1.574 . S
C339 C358 1.368 . S
C339 H363 0.949 . S
H340 C344 0.949 . S
C341 C342 1.349 . S
C341 C343 1.327 . S
C341 H364 0.950 . S
C342 C341 1.349 . S
C342 C354 1.349 . S
C343 C341 1.327 . S
C343 C359 1.429 . S
C343 H365 0.950 . S
C344 H340 0.949 . S
C344 C352 1.574 . S
C344 C360 1.368 . S
H345 C353 0.950 . S
H346 C351 0.950 . S
H347 C352 0.949 . S
H348 C354 0.950 . S
H349 C355 0.950 . S
H350 C356 0.949 . S
C351 H346 0.950 . S
C351 C353 1.327 . S
C351 C357 1.429 . S
C352 C344 1.574 . S
C352 H347 0.949 . S
C352 C358 1.368 . S
C353 C337 1.349 . S
C353 H345 0.950 . S
C353 C351 1.327 . S
C354 C342 1.349 . S
C354 H348 0.950 . S
C354 C355 1.327 . S
C355 H349 0.950 . S
C355 C354 1.327 . S
C355 C359 1.429 . S
C356 C339 1.574 . S
C356 H350 0.949 . S
C356 C360 1.368 . S
C357 C338 1.429 . S
C357 C351 1.429 . S
C357 C358 1.523 . S
C358 C339 1.368 . S
C358 C352 1.368 . S
C358 C357 1.523 . S
C359 C343 1.429 . S
C359 C355 1.429 . S
C359 C360 1.523 . S
C360 C344 1.368 . S
C360 C356 1.368 . S
C360 C359 1.523 . S
H361 C336 0.950 . S
H362 C338 0.950 . S
H363 C339 0.949 . S
H364 C341 0.950 . S
H365 C343 0.950 . S
C366 C367 1.349 . S
C366 C368 1.327 . S
C366 H391 0.950 . S
C367 C366 1.349 . S
C367 C383 1.349 . S
C368 C366 1.327 . S
C368 C387 1.429 . S
C368 H392 0.950 . S
C369 C386 1.574 . S
C369 C388 1.368 . S
C369 H393 0.949 . S
H370 C374 0.949 . S
C371 C372 1.349 . S
C371 C373 1.327 . S
C371 H394 0.950 . S
C372 C371 1.349 . S
C372 C384 1.349 . S
C373 C371 1.327 . S
C373 C389 1.429 . S
C373 H395 0.950 . S
C374 H370 0.949 . S
C374 C382 1.574 . S
C374 C390 1.368 . S
H375 C383 0.950 . S
H376 C381 0.950 . S
H377 C382 0.949 . S
H378 C384 0.950 . S
H379 C385 0.950 . S
H380 C386 0.949 . S
C381 H376 0.950 . S
C381 C383 1.327 . S
C381 C387 1.429 . S
C382 C374 1.574 . S
C382 H377 0.949 . S
C382 C388 1.368 . S
C383 C367 1.349 . S
C383 H375 0.950 . S
C383 C381 1.327 . S
C384 C372 1.349 . S
C384 H378 0.950 . S
C384 C385 1.327 . S
C385 H379 0.950 . S
C385 C384 1.327 . S
C385 C389 1.429 . S
C386 C369 1.574 . S
C386 H380 0.949 . S
C386 C390 1.368 . S
C387 C368 1.429 . S
C387 C381 1.429 . S
C387 C388 1.523 . S
C388 C369 1.368 . S
C388 C382 1.368 . S
C388 C387 1.523 . S
C389 C373 1.429 . S
C389 C385 1.429 . S
C389 C390 1.523 . S
C390 C374 1.368 . S
C390 C386 1.368 . S
C390 C389 1.523 . S
H391 C366 0.950 . S
H392 C368 0.950 . S
H393 C369 0.949 . S
H394 C371 0.950 . S
H395 C373 0.950 . S
C396 C397 1.349 . S
C396 C398 1.327 . S
C396 H421 0.950 . S
C397 C396 1.349 . S
C397 C413 1.349 . S
C398 C396 1.327 . S
C398 C417 1.429 . S
C398 H422 0.950 . S
C399 C416 1.574 . S
C399 C418 1.368 . S
C399 H423 0.949 . S
H400 C404 0.949 . S
C401 C402 1.349 . S
C401 C403 1.327 . S
C401 H424 0.950 . S
C402 C401 1.349 . S
C402 C414 1.349 . S
C403 C401 1.327 . S
C403 C419 1.429 . S
C403 H425 0.950 . S
C404 H400 0.949 . S
C404 C412 1.574 . S
C404 C420 1.368 . S
H405 C413 0.950 . S
H406 C411 0.950 . S
H407 C412 0.949 . S
H408 C414 0.950 . S
H409 C415 0.950 . S
H410 C416 0.949 . S
C411 H406 0.950 . S
C411 C413 1.327 . S
C411 C417 1.429 . S
C412 C404 1.574 . S
C412 H407 0.949 . S
C412 C418 1.368 . S
C413 C397 1.349 . S
C413 H405 0.950 . S
C413 C411 1.327 . S
C414 C402 1.349 . S
C414 H408 0.950 . S
C414 C415 1.327 . S
C415 H409 0.950 . S
C415 C414 1.327 . S
C415 C419 1.429 . S
C416 C399 1.574 . S
C416 H410 0.949 . S
C416 C420 1.368 . S
C417 C398 1.429 . S
C417 C411 1.429 . S
C417 C418 1.523 . S
C418 C399 1.368 . S
C418 C412 1.368 . S
C418 C417 1.523 . S
C419 C403 1.429 . S
C419 C415 1.429 . S
C419 C420 1.523 . S
C420 C404 1.368 . S
C420 C416 1.368 . S
C420 C419 1.523 . S
H421 C396 0.950 . S
H422 C398 0.950 . S
H423 C399 0.949 . S
H424 C401 0.950 . S
H425 C403 0.950 . S
C426 C427 1.349 . S
C426 C428 1.327 . S
C426 H451 0.950 . S
C427 C426 1.349 . S
C427 C443 1.349 . S
C428 C426 1.327 . S
C428 C447 1.429 . S
C428 H452 0.950 . S
C429 C446 1.574 . S
C429 C448 1.368 . S
C429 H453 0.949 . S
H430 C434 0.949 . S
C431 C432 1.349 . S
C431 C433 1.327 . S
C431 H454 0.950 . S
C432 C431 1.349 . S
C432 C444 1.349 . S
C433 C431 1.327 . S
C433 C449 1.429 . S
C433 H455 0.950 . S
C434 H430 0.949 . S
C434 C442 1.574 . S
C434 C450 1.368 . S
H435 C443 0.950 . S
H436 C441 0.950 . S
H437 C442 0.949 . S
H438 C444 0.950 . S
H439 C445 0.950 . S
H440 C446 0.949 . S
C441 H436 0.950 . S
C441 C443 1.327 . S
C441 C447 1.429 . S
C442 C434 1.574 . S
C442 H437 0.949 . S
C442 C448 1.368 . S
C443 C427 1.349 . S
C443 H435 0.950 . S
C443 C441 1.327 . S
C444 C432 1.349 . S
C444 H438 0.950 . S
C444 C445 1.327 . S
C445 H439 0.950 . S
C445 C444 1.327 . S
C445 C449 1.429 . S
C446 C429 1.574 . S
C446 H440 0.949 . S
C446 C450 1.368 . S
C447 C428 1.429 . S
C447 C441 1.429 . S
C447 C448 1.523 . S
C448 C429 1.368 . S
C448 C442 1.368 . S
C448 C447 1.523 . S
C449 C433 1.429 . S
C449 C445 1.429 . S
C449 C450 1.523 . S
C450 C434 1.368 . S
C450 C446 1.368 . S
C450 C449 1.523 . S
H451 C426 0.950 . S
H452 C428 0.950 . S
H453 C429 0.949 . S
H454 C431 0.950 . S
H455 C433 0.950 . S
C456 C457 1.349 . S
C456 C458 1.327 . S
C456 H481 0.950 . S
C457 C456 1.349 . S
C457 C473 1.349 . S
C458 C456 1.327 . S
C458 C477 1.429 . S
C458 H482 0.950 . S
C459 C476 1.574 . S
C459 C478 1.368 . S
C459 H483 0.949 . S
H460 C464 0.949 . S
C461 C462 1.349 . S
C461 C463 1.327 . S
C461 H484 0.950 . S
C462 C461 1.349 . S
C462 C474 1.349 . S
C463 C461 1.327 . S
C463 C479 1.429 . S
C463 H485 0.950 . S
C464 H460 0.949 . S
C464 C472 1.574 . S
C464 C480 1.368 . S
H465 C473 0.950 . S
H466 C471 0.950 . S
H467 C472 0.949 . S
H468 C474 0.950 . S
H469 C475 0.950 . S
H470 C476 0.949 . S
C471 H466 0.950 . S
C471 C473 1.327 . S
C471 C477 1.429 . S
C472 C464 1.574 . S
C472 H467 0.949 . S
C472 C478 1.368 . S
C473 C457 1.349 . S
C473 H465 0.950 . S
C473 C471 1.327 . S
C474 C462 1.349 . S
C474 H468 0.950 . S
C474 C475 1.327 . S
C475 H469 0.950 . S
C475 C474 1.327 . S
C475 C479 1.429 . S
C476 C459 1.574 . S
C476 H470 0.949 . S
C476 C480 1.368 . S
C477 C458 1.429 . S
C477 C471 1.429 . S
C477 C478 1.523 . S
C478 C459 1.368 . S
C478 C472 1.368 . S
C478 C477 1.523 . S
C479 C463 1.429 . S
C479 C475 1.429 . S
C479 C480 1.523 . S
C480 C464 1.368 . S
C480 C476 1.368 . S
C480 C479 1.523 . S
H481 C456 0.950 . S
H482 C458 0.950 . S
H483 C459 0.949 . S
H484 C461 0.950 . S
H485 C463 0.950 . S
C486 C487 1.349 . S
C486 C488 1.327 . S
C486 H511 0.950 . S
C487 C486 1.349 . S
C487 C503 1.349 . S
C488 C486 1.327 . S
C488 C507 1.429 . S
C488 H512 0.950 . S
C489 C506 1.574 . S
C489 C508 1.368 . S
C489 H513 0.949 . S
H490 C494 0.949 1_554 S
C491 C492 1.349 1_556 S
C491 C493 1.327 . S
C491 H514 0.950 . S
C492 C491 1.349 1_554 S
C492 C504 1.349 . S
C493 C491 1.327 . S
C493 C509 1.429 . S
C493 H515 0.950 . S
C494 H490 0.949 1_556 S
C494 C502 1.574 . S
C494 C510 1.368 . S
H495 C503 0.950 . S
H496 C501 0.950 . S
H497 C502 0.949 . S
H498 C504 0.950 . S
H499 C505 0.950 . S
H500 C506 0.949 . S
C501 H496 0.950 . S
C501 C503 1.327 . S
C501 C507 1.429 . S
C502 C494 1.574 . S
C502 H497 0.949 . S
C502 C508 1.368 . S
C503 C487 1.349 . S
C503 H495 0.950 . S
C503 C501 1.327 . S
C504 C492 1.349 . S
C504 H498 0.950 . S
C504 C505 1.327 . S
C505 H499 0.950 . S
C505 C504 1.327 . S
C505 C509 1.429 1_554 S
C506 C489 1.574 . S
C506 H500 0.949 . S
C506 C510 1.368 . S
C507 C488 1.429 . S
C507 C501 1.429 . S
C507 C508 1.523 . S
C508 C489 1.368 . S
C508 C502 1.368 . S
C508 C507 1.523 . S
C509 C493 1.429 . S
C509 C505 1.429 1_556 S
C509 C510 1.523 . S
C510 C494 1.368 . S
C510 C506 1.368 . S
C510 C509 1.523 . S
H511 C486 0.950 . S
H512 C488 0.950 . S
H513 C489 0.949 . S
H514 C491 0.950 . S
H515 C493 0.950 . S
C516 C517 1.349 . S
C516 C518 1.327 . S
C516 H541 0.950 . S
C517 C516 1.349 . S
C517 C533 1.349 . S
C518 C516 1.327 . S
C518 C537 1.429 . S
C518 H542 0.950 . S
C519 C536 1.574 . S
C519 C538 1.368 . S
C519 H543 0.949 . S
H520 C524 0.949 . S
C521 C522 1.349 . S
C521 C523 1.327 . S
C521 H544 0.950 . S
C522 C521 1.349 . S
C522 C534 1.349 . S
C523 C521 1.327 . S
C523 C539 1.429 . S
C523 H545 0.950 . S
C524 H520 0.949 . S
C524 C532 1.574 . S
C524 C540 1.368 . S
H525 C533 0.950 . S
H526 C531 0.950 . S
H527 C532 0.949 . S
H528 C534 0.950 . S
H529 C535 0.950 . S
H530 C536 0.949 . S
C531 H526 0.950 . S
C531 C533 1.327 . S
C531 C537 1.429 . S
C532 C524 1.574 . S
C532 H527 0.949 . S
C532 C538 1.368 . S
C533 C517 1.349 . S
C533 H525 0.950 . S
C533 C531 1.327 . S
C534 C522 1.349 . S
C534 H528 0.950 . S
C534 C535 1.327 . S
C535 H529 0.950 . S
C535 C534 1.327 . S
C535 C539 1.429 . S
C536 C519 1.574 . S
C536 H530 0.949 . S
C536 C540 1.368 . S
C537 C518 1.429 . S
C537 C531 1.429 . S
C537 C538 1.523 . S
C538 C519 1.368 . S
C538 C532 1.368 . S
C538 C537 1.523 . S
C539 C523 1.429 . S
C539 C535 1.429 . S
C539 C540 1.523 . S
C540 C524 1.368 . S
C540 C536 1.368 . S
C540 C539 1.523 . S
H541 C516 0.950 . S
H542 C518 0.950 . S
H543 C519 0.949 . S
H544 C521 0.950 . S
H545 C523 0.950 . S
C546 C547 1.349 . S
C546 C548 1.327 . S
C546 H571 0.950 . S
C547 C546 1.349 . S
C547 C563 1.349 . S
C548 C546 1.327 . S
C548 C567 1.429 . S
C548 H572 0.950 . S
C549 C566 1.574 . S
C549 C568 1.368 . S
C549 H573 0.949 . S
H550 C554 0.949 1_554 S
C551 C552 1.349 . S
C551 C553 1.327 . S
C551 H574 0.950 . S
C552 C551 1.349 . S
C552 C564 1.349 . S
C553 C551 1.327 . S
C553 C569 1.429 . S
C553 H575 0.950 . S
C554 H550 0.949 1_556 S
C554 C562 1.574 . S
C554 C570 1.368 . S
H555 C563 0.950 . S
H556 C561 0.950 . S
H557 C562 0.949 . S
H558 C564 0.950 . S
H559 C565 0.950 . S
H560 C566 0.949 . S
C561 H556 0.950 . S
C561 C563 1.327 . S
C561 C567 1.429 . S
C562 C554 1.574 . S
C562 H557 0.949 . S
C562 C568 1.368 . S
C563 C547 1.349 . S
C563 H555 0.950 . S
C563 C561 1.327 . S
C564 C552 1.349 . S
C564 H558 0.950 . S
C564 C565 1.327 . S
C565 H559 0.950 . S
C565 C564 1.327 . S
C565 C569 1.429 . S
C566 C549 1.574 . S
C566 H560 0.949 . S
C566 C570 1.368 . S
C567 C548 1.429 . S
C567 C561 1.429 . S
C567 C568 1.523 . S
C568 C549 1.368 . S
C568 C562 1.368 . S
C568 C567 1.523 . S
C569 C553 1.429 . S
C569 C565 1.429 . S
C569 C570 1.523 1_554 S
C570 C554 1.368 . S
C570 C566 1.368 . S
C570 C569 1.523 1_556 S
H571 C546 0.950 . S
H572 C548 0.950 . S
H573 C549 0.949 . S
H574 C551 0.950 . S
H575 C553 0.950 . S
C576 C577 1.349 1_554 S
C576 C578 1.327 . S
C576 H601 0.950 . S
C577 C576 1.349 1_556 S
C577 C593 1.349 . S
C578 C576 1.327 . S
C578 C597 1.429 . S
C578 H602 0.950 . S
C579 C596 1.574 . S
C579 C598 1.368 . S
C579 H603 0.949 . S
H580 C584 0.949 . S
C581 C582 1.349 . S
C581 C583 1.327 . S
C581 H604 0.950 . S
C582 C581 1.349 . S
C582 C594 1.349 . S
C583 C581 1.327 . S
C583 C599 1.429 . S
C583 H605 0.950 . S
C584 H580 0.949 . S
C584 C592 1.574 . S
C584 C600 1.368 . S
H585 C593 0.950 . S
H586 C591 0.950 . S
H587 C592 0.949 . S
H588 C594 0.950 . S
H589 C595 0.950 . S
H590 C596 0.949 . S
C591 H586 0.950 . S
C591 C593 1.327 1_554 S
C591 C597 1.429 . S
C592 C584 1.574 . S
C592 H587 0.949 . S
C592 C598 1.368 . S
C593 C577 1.349 . S
C593 H585 0.950 . S
C593 C591 1.327 1_556 S
C594 C582 1.349 . S
C594 H588 0.950 . S
C594 C595 1.327 . S
C595 H589 0.950 . S
C595 C594 1.327 . S
C595 C599 1.429 . S
C596 C579 1.574 . S
C596 H590 0.949 . S
C596 C600 1.368 . S
C597 C578 1.429 . S
C597 C591 1.429 . S
C597 C598 1.523 . S
C598 C579 1.368 . S
C598 C592 1.368 . S
C598 C597 1.523 . S
C599 C583 1.429 . S
C599 C595 1.429 . S
C599 C600 1.523 . S
C600 C584 1.368 . S
C600 C596 1.368 . S
C600 C599 1.523 . S
H601 C576 0.950 . S
H602 C578 0.950 . S
H603 C579 0.949 . S
H604 C581 0.950 . S
H605 C583 0.950 . S
C606 C607 1.349 . S
C606 C608 1.327 . S
C606 H631 0.950 . S
C607 C606 1.349 . S
C607 C623 1.349 . S
C608 C606 1.327 . S
C608 C627 1.429 . S
C608 H632 0.950 . S
C609 C626 1.574 . S
C609 C628 1.368 . S
C609 H633 0.949 . S
H610 C614 0.949 . S
C611 C612 1.349 . S
C611 C613 1.327 . S
C611 H634 0.950 . S
C612 C611 1.349 . S
C612 C624 1.349 . S
C613 C611 1.327 . S
C613 C629 1.429 . S
C613 H635 0.950 . S
C614 H610 0.949 . S
C614 C622 1.574 . S
C614 C630 1.368 . S
H615 C623 0.950 . S
H616 C621 0.950 . S
H617 C622 0.949 . S
H618 C624 0.950 . S
H619 C625 0.950 . S
H620 C626 0.949 . S
C621 H616 0.950 . S
C621 C623 1.327 . S
C621 C627 1.429 . S
C622 C614 1.574 . S
C622 H617 0.949 . S
C622 C628 1.368 . S
C623 C607 1.349 . S
C623 H615 0.950 . S
C623 C621 1.327 . S
C624 C612 1.349 . S
C624 H618 0.950 . S
C624 C625 1.327 . S
C625 H619 0.950 . S
C625 C624 1.327 . S
C625 C629 1.429 . S
C626 C609 1.574 . S
C626 H620 0.949 . S
C626 C630 1.368 . S
C627 C608 1.429 . S
C627 C621 1.429 . S
C627 C628 1.523 . S
C628 C609 1.368 . S
C628 C622 1.368 . S
C628 C627 1.523 . S
C629 C613 1.429 . S
C629 C625 1.429 . S
C629 C630 1.523 . S
C630 C614 1.368 . S
C630 C626 1.368 . S
C630 C629 1.523 . S
H631 C606 0.950 . S
H632 C608 0.950 . S
H633 C609 0.949 . S
H634 C611 0.950 . S
H635 C613 0.950 . S
C636 C637 1.349 . S
C636 C638 1.327 . S
C636 H661 0.950 . S
C637 C636 1.349 . S
C637 C653 1.349 . S
C638 C636 1.327 . S
C638 C657 1.429 . S
C638 H662 0.950 . S
C639 C656 1.574 . S
C639 C658 1.368 . S
C639 H663 0.949 . S
H640 C644 0.949 . S
C641 C642 1.349 . S
C641 C643 1.327 . S
C641 H664 0.950 . S
C642 C641 1.349 . S
C642 C654 1.349 . S
C643 C641 1.327 . S
C643 C659 1.429 . S
C643 H665 0.950 . S
C644 H640 0.949 . S
C644 C652 1.574 . S
C644 C660 1.368 . S
H645 C653 0.950 . S
H646 C651 0.950 . S
H647 C652 0.949 . S
H648 C654 0.950 . S
H649 C655 0.950 . S
H650 C656 0.949 . S
C651 H646 0.950 . S
C651 C653 1.327 . S
C651 C657 1.429 . S
C652 C644 1.574 . S
C652 H647 0.949 . S
C652 C658 1.368 . S
C653 C637 1.349 . S
C653 H645 0.950 . S
C653 C651 1.327 . S
C654 C642 1.349 . S
C654 H648 0.950 . S
C654 C655 1.327 . S
C655 H649 0.950 . S
C655 C654 1.327 . S
C655 C659 1.429 . S
C656 C639 1.574 . S
C656 H650 0.949 . S
C656 C660 1.368 . S
C657 C638 1.429 . S
C657 C651 1.429 . S
C657 C658 1.523 . S
C658 C639 1.368 . S
C658 C652 1.368 . S
C658 C657 1.523 . S
C659 C643 1.429 . S
C659 C655 1.429 . S
C659 C660 1.523 . S
C660 C644 1.368 . S
C660 C656 1.368 . S
C660 C659 1.523 . S
H661 C636 0.950 . S
H662 C638 0.950 . S
H663 C639 0.949 . S
H664 C641 0.950 . S
H665 C643 0.950 . S
C666 C667 1.349 . S
C666 C668 1.327 . S
C666 H691 0.950 . S
C667 C666 1.349 . S
C667 C683 1.349 . S
C668 C666 1.327 . S
C668 C687 1.429 . S
C668 H692 0.950 . S
C669 C686 1.574 . S
C669 C688 1.368 . S
C669 H693 0.949 . S
H670 C674 0.949 . S
C671 C672 1.349 . S
C671 C673 1.327 . S
C671 H694 0.950 . S
C672 C671 1.349 . S
C672 C684 1.349 . S
C673 C671 1.327 . S
C673 C689 1.429 . S
C673 H695 0.950 . S
C674 H670 0.949 . S
C674 C682 1.574 . S
C674 C690 1.368 . S
H675 C683 0.950 . S
H676 C681 0.950 . S
H677 C682 0.949 . S
H678 C684 0.950 . S
H679 C685 0.950 . S
H680 C686 0.949 . S
C681 H676 0.950 . S
C681 C683 1.327 . S
C681 C687 1.429 . S
C682 C674 1.574 . S
C682 H677 0.949 . S
C682 C688 1.368 . S
C683 C667 1.349 . S
C683 H675 0.950 . S
C683 C681 1.327 . S
C684 C672 1.349 . S
C684 H678 0.950 . S
C684 C685 1.327 . S
C685 H679 0.950 . S
C685 C684 1.327 . S
C685 C689 1.429 . S
C686 C669 1.574 . S
C686 H680 0.949 . S
C686 C690 1.368 . S
C687 C668 1.429 . S
C687 C681 1.429 . S
C687 C688 1.523 . S
C688 C669 1.368 . S
C688 C682 1.368 . S
C688 C687 1.523 . S
C689 C673 1.429 . S
C689 C685 1.429 . S
C689 C690 1.523 . S
C690 C674 1.368 . S
C690 C686 1.368 . S
C690 C689 1.523 . S
H691 C666 0.950 . S
H692 C668 0.950 . S
H693 C669 0.949 . S
H694 C671 0.950 . S
H695 C673 0.950 . S
C696 C697 1.349 . S
C696 C698 1.327 . S
C696 H721 0.950 1_554 S
C697 C696 1.349 . S
C697 C713 1.349 . S
C698 C696 1.327 . S
C698 C717 1.429 . S
C698 H722 0.950 1_554 S
C699 C716 1.574 1_545 S
C699 C718 1.368 . S
C699 H723 0.949 . S
H700 C704 0.949 1_556 S
C701 C702 1.349 . S
C701 C703 1.327 . S
C701 H724 0.950 . S
C702 C701 1.349 . S
C702 C714 1.349 . S
C703 C701 1.327 . S
C703 C719 1.429 . S
C703 H725 0.950 . S
C704 H700 0.949 1_554 S
C704 C712 1.574 1_565 S
C704 C720 1.368 . S
H705 C713 0.950 . S
H706 C711 0.950 . S
H707 C712 0.949 1_556 S
H708 C714 0.950 1_556 S
H709 C715 0.950 1_556 S
H710 C716 0.949 . S
C711 H706 0.950 . S
C711 C713 1.327 . S
C711 C717 1.429 . S
C712 C704 1.574 1_545 S
C712 H707 0.949 1_554 S
C712 C718 1.368 . S
C713 C697 1.349 . S
C713 H705 0.950 . S
C713 C711 1.327 . S
C714 C702 1.349 . S
C714 H708 0.950 1_554 S
C714 C715 1.327 . S
C715 H709 0.950 1_554 S
C715 C714 1.327 . S
C715 C719 1.429 . S
C716 C699 1.574 1_565 S
C716 H710 0.949 . S
C716 C720 1.368 . S
C717 C698 1.429 . S
C717 C711 1.429 . S
C717 C718 1.523 . S
C718 C699 1.368 . S
C718 C712 1.368 . S
C718 C717 1.523 . S
C719 C703 1.429 . S
C719 C715 1.429 . S
C719 C720 1.523 . S
C720 C704 1.368 . S
C720 C716 1.368 . S
C720 C719 1.523 . S
H721 C696 0.950 1_556 S
H722 C698 0.950 1_556 S
H723 C699 0.949 . S
H724 C701 0.950 . S
H725 C703 0.950 . S
C726 C727 1.349 . S
C726 C728 1.327 . S
C726 H751 0.950 . S
C727 C726 1.349 . S
C727 C743 1.349 . S
C728 C726 1.327 . S
C728 C747 1.429 . S
C728 H752 0.950 . S
C729 C746 1.574 . S
C729 C748 1.368 . S
C729 H753 0.949 . S
H730 C734 0.949 . S
C731 C732 1.349 . S
C731 C733 1.327 . S
C731 H754 0.950 . S
C732 C731 1.349 . S
C732 C744 1.349 . S
C733 C731 1.327 . S
C733 C749 1.429 . S
C733 H755 0.950 . S
C734 H730 0.949 . S
C734 C742 1.574 . S
C734 C750 1.368 . S
H735 C743 0.950 . S
H736 C741 0.950 . S
H737 C742 0.949 . S
H738 C744 0.950 . S
H739 C745 0.950 . S
H740 C746 0.949 . S
C741 H736 0.950 . S
C741 C743 1.327 . S
C741 C747 1.429 . S
C742 C734 1.574 . S
C742 H737 0.949 . S
C742 C748 1.368 . S
C743 C727 1.349 . S
C743 H735 0.950 . S
C743 C741 1.327 . S
C744 C732 1.349 . S
C744 H738 0.950 . S
C744 C745 1.327 . S
C745 H739 0.950 . S
C745 C744 1.327 . S
C745 C749 1.429 . S
C746 C729 1.574 . S
C746 H740 0.949 . S
C746 C750 1.368 . S
C747 C728 1.429 . S
C747 C741 1.429 . S
C747 C748 1.523 . S
C748 C729 1.368 . S
C748 C742 1.368 . S
C748 C747 1.523 . S
C749 C733 1.429 . S
C749 C745 1.429 . S
C749 C750 1.523 . S
C750 C734 1.368 . S
C750 C746 1.368 . S
C750 C749 1.523 . S
H751 C726 0.950 . S
H752 C728 0.950 . S
H753 C729 0.949 . S
H754 C731 0.950 . S
H755 C733 0.950 . S
C756 C757 1.349 . S
C756 C758 1.327 . S
C756 H781 0.950 . S
C757 C756 1.349 . S
C757 C773 1.349 . S
C758 C756 1.327 . S
C758 C777 1.429 . S
C758 H782 0.950 . S
C759 C776 1.574 1_455 S
C759 C778 1.368 . S
C759 H783 0.949 . S
H760 C764 0.949 . S
C761 C762 1.349 . S
C761 C763 1.327 . S
C761 H784 0.950 . S
C762 C761 1.349 . S
C762 C774 1.349 . S
C763 C761 1.327 . S
C763 C779 1.429 . S
C763 H785 0.950 . S
C764 H760 0.949 . S
C764 C772 1.574 1_655 S
C764 C780 1.368 . S
H765 C773 0.950 . S
H766 C771 0.950 . S
H767 C772 0.949 . S
H768 C774 0.950 . S
H769 C775 0.950 . S
H770 C776 0.949 . S
C771 H766 0.950 . S
C771 C773 1.327 . S
C771 C777 1.429 . S
C772 C764 1.574 1_455 S
C772 H767 0.949 . S
C772 C778 1.368 . S
C773 C757 1.349 . S
C773 H765 0.950 . S
C773 C771 1.327 . S
C774 C762 1.349 . S
C774 H768 0.950 . S
C774 C775 1.327 . S
C775 H769 0.950 . S
C775 C774 1.327 . S
C775 C779 1.429 . S
C776 C759 1.574 1_655 S
C776 H770 0.949 . S
C776 C780 1.368 . S
C777 C758 1.429 . S
C777 C771 1.429 . S
C777 C778 1.523 . S
C778 C759 1.368 . S
C778 C772 1.368 . S
C778 C777 1.523 . S
C779 C763 1.429 . S
C779 C775 1.429 . S
C779 C780 1.523 . S
C780 C764 1.368 . S
C780 C776 1.368 . S
C780 C779 1.523 . S
H781 C756 0.950 . S
H782 C758 0.950 . S
H783 C759 0.949 . S
H784 C761 0.950 . S
H785 C763 0.950 . S
C786 C787 1.349 . S
C786 C788 1.327 . S
C786 H811 0.950 . S
C787 C786 1.349 . S
C787 C803 1.349 . S
C788 C786 1.327 . S
C788 C807 1.429 . S
C788 H812 0.950 . S
C789 C806 1.574 1_565 S
C789 C808 1.368 . S
C789 H813 0.949 . S
H790 C794 0.949 . S
C791 C792 1.349 . S
C791 C793 1.327 . S
C791 H814 0.950 . S
C792 C791 1.349 . S
C792 C804 1.349 . S
C793 C791 1.327 . S
C793 C809 1.429 . S
C793 H815 0.950 . S
C794 H790 0.949 . S
C794 C802 1.574 1_545 S
C794 C810 1.368 . S
H795 C803 0.950 . S
H796 C801 0.950 . S
H797 C802 0.949 . S
H798 C804 0.950 . S
H799 C805 0.950 . S
H800 C806 0.949 . S
C801 H796 0.950 . S
C801 C803 1.327 . S
C801 C807 1.429 . S
C802 C794 1.574 1_565 S
C802 H797 0.949 . S
C802 C808 1.368 . S
C803 C787 1.349 . S
C803 H795 0.950 . S
C803 C801 1.327 . S
C804 C792 1.349 . S
C804 H798 0.950 . S
C804 C805 1.327 . S
C805 H799 0.950 . S
C805 C804 1.327 . S
C805 C809 1.429 . S
C806 C789 1.574 1_545 S
C806 H800 0.949 . S
C806 C810 1.368 . S
C807 C788 1.429 . S
C807 C801 1.429 . S
C807 C808 1.523 . S
C808 C789 1.368 . S
C808 C802 1.368 . S
C808 C807 1.523 . S
C809 C793 1.429 . S
C809 C805 1.429 . S
C809 C810 1.523 . S
C810 C794 1.368 . S
C810 C806 1.368 . S
C810 C809 1.523 . S
H811 C786 0.950 . S
H812 C788 0.950 . S
H813 C789 0.949 . S
H814 C791 0.950 . S
H815 C793 0.950 . S
C816 C817 1.349 . S
C816 C818 1.327 . S
C816 H841 0.950 . S
C817 C816 1.349 . S
C817 C833 1.349 . S
C818 C816 1.327 . S
C818 C837 1.429 . S
C818 H842 0.950 . S
C819 C836 1.574 . S
C819 C838 1.368 . S
C819 H843 0.949 . S
H820 C824 0.949 . S
C821 C822 1.349 . S
C821 C823 1.327 . S
C821 H844 0.950 . S
C822 C821 1.349 . S
C822 C834 1.349 . S
C823 C821 1.327 . S
C823 C839 1.429 . S
C823 H845 0.950 . S
C824 H820 0.949 . S
C824 C832 1.574 . S
C824 C840 1.368 . S
H825 C833 0.950 . S
H826 C831 0.950 . S
H827 C832 0.949 . S
H828 C834 0.950 . S
H829 C835 0.950 . S
H830 C836 0.949 . S
C831 H826 0.950 . S
C831 C833 1.327 . S
C831 C837 1.429 . S
C832 C824 1.574 . S
C832 H827 0.949 . S
C832 C838 1.368 . S
C833 C817 1.349 . S
C833 H825 0.950 . S
C833 C831 1.327 . S
C834 C822 1.349 . S
C834 H828 0.950 . S
C834 C835 1.327 . S
C835 H829 0.950 . S
C835 C834 1.327 . S
C835 C839 1.429 . S
C836 C819 1.574 . S
C836 H830 0.949 . S
C836 C840 1.368 . S
C837 C818 1.429 . S
C837 C831 1.429 . S
C837 C838 1.523 . S
C838 C819 1.368 . S
C838 C832 1.368 . S
C838 C837 1.523 . S
C839 C823 1.429 . S
C839 C835 1.429 . S
C839 C840 1.523 . S
C840 C824 1.368 . S
C840 C836 1.368 . S
C840 C839 1.523 . S
H841 C816 0.950 . S
H842 C818 0.950 . S
H843 C819 0.949 . S
H844 C821 0.950 . S
H845 C823 0.950 . S
C846 C847 1.349 . S
C846 C848 1.327 . S
C846 H871 0.950 . S
C847 C846 1.349 . S
C847 C863 1.349 . S
C848 C846 1.327 . S
C848 C867 1.429 . S
C848 H872 0.950 . S
C849 C866 1.574 1_455 S
C849 C868 1.368 . S
C849 H873 0.949 . S
H850 C854 0.949 . S
C851 C852 1.349 . S
C851 C853 1.327 . S
C851 H874 0.950 . S
C852 C851 1.349 . S
C852 C864 1.349 . S
C853 C851 1.327 . S
C853 C869 1.429 . S
C853 H875 0.950 . S
C854 H850 0.949 . S
C854 C862 1.574 1_655 S
C854 C870 1.368 . S
H855 C863 0.950 . S
H856 C861 0.950 . S
H857 C862 0.949 . S
H858 C864 0.950 . S
H859 C865 0.950 . S
H860 C866 0.949 . S
C861 H856 0.950 . S
C861 C863 1.327 . S
C861 C867 1.429 . S
C862 C854 1.574 1_455 S
C862 H857 0.949 . S
C862 C868 1.368 . S
C863 C847 1.349 . S
C863 H855 0.950 . S
C863 C861 1.327 . S
C864 C852 1.349 . S
C864 H858 0.950 . S
C864 C865 1.327 . S
C865 H859 0.950 . S
C865 C864 1.327 . S
C865 C869 1.429 . S
C866 C849 1.574 1_655 S
C866 H860 0.949 . S
C866 C870 1.368 . S
C867 C848 1.429 . S
C867 C861 1.429 . S
C867 C868 1.523 . S
C868 C849 1.368 . S
C868 C862 1.368 . S
C868 C867 1.523 . S
C869 C853 1.429 . S
C869 C865 1.429 . S
C869 C870 1.523 . S
C870 C854 1.368 . S
C870 C866 1.368 . S
C870 C869 1.523 . S
H871 C846 0.950 . S
H872 C848 0.950 . S
H873 C849 0.949 . S
H874 C851 0.950 . S
H875 C853 0.950 . S
C157 C3 1.021 . S
C162 C133 1.021 . S
C187 C16 1.021 . S
C192 C148 1.021 . S
C217 C83 1.021 . S
C222 C29 1.021 . S
C247 C42 1.021 . S
C252 C96 1.021 . S
C277 C109 1.021 . S
C282 C55 1.021 . S
C307 C122 1.021 . S
C312 C68 1.021 . S
C337 C107 1.293 . S
C342 C5 1.293 . S
C367 C18 1.293 . S
C372 C120 1.293 . S
C397 C135 1.293 . S
C402 C31 1.293 . S
C427 C44 1.293 . S
C432 C146 1.293 . S
C457 C57 1.293 . S
C462 C81 1.293 . S
C487 C70 1.293 . S
C492 C94 1.293 . S
C517 C140 1.769 . S
C522 C10 1.769 . S
C547 C147 1.769 . S
C552 C23 1.769 . S
C577 C82 1.769 . S
C582 C36 1.769 . S
C607 C49 1.769 . S
C612 C95 1.769 . S
C637 C62 1.769 . S
C642 C108 1.769 . S
C667 C121 1.769 . S
C672 C75 1.769 . S
C697 C4 1.384 . S
C702 C101 1.384 . S
C727 C114 1.384 . S
C732 C17 1.384 . S
C757 C127 1.383 . S
C762 C30 1.384 . S
C787 C43 1.383 . S
C792 C134 1.384 . S
C817 C56 1.384 . S
C822 C153 1.384 . S
C847 C69 1.383 . S
C852 C88 1.383 . S
