# Generated by pormake.
# Topology lon, (4)-cn, num edge types: 1
# Building blocks:
#     Node 0, Type 0, BuildingBlock: AZAVOO_clean_sbu_0, # of connection points: 4
#     Node 1, Type 0, BuildingBlock: AZAVOO_clean_sbu_0, # of connection points: 4
#     Node 2, Type 0, BuildingBlock: AZAVOO_clean_sbu_0, # of connection points: 4
#     Node 3, Type 0, BuildingBlock: AZAVOO_clean_sbu_0, # of connection points: 4
#     Edge 4, Type (0, 0), BuildingBlock: TEMPAE_clean_linker_10, # of connection points: 2
#     Edge 5, Type (0, 0), BuildingBlock: TEMPAE_clean_linker_10, # of connection points: 2
#     Edge 6, Type (0, 0), BuildingBlock: TEMPAE_clean_linker_10, # of connection points: 2
#     Edge 7, Type (0, 0), BuildingBlock: TEMPAE_clean_linker_10, # of connection points: 2
#     Edge 8, Type (0, 0), BuildingBlock: TEMPAE_clean_linker_10, # of connection points: 2
#     Edge 9, Type (0, 0), BuildingBlock: TEMPAE_clean_linker_10, # of connection points: 2
#     Edge 10, Type (0, 0), BuildingBlock: TEMPAE_clean_linker_10, # of connection points: 2
#     Edge 11, Type (0, 0), BuildingBlock: TEMPAE_clean_linker_10, # of connection points: 2
# Relax obj value: 0.020
# Max RMSD: 0.071
# Mean RMSD: 0.063
data_MOF--net-lon--node1-AZAVOO_clean_sbu_0--edge1-TEMPAE_clean_linker_10
_symmetry_space_group_name_H-M    P1
_symmetry_Int_Tables_number       1
_symmetry_cell_setting            triclinic
loop_
_symmetry_equiv_pos_as_xyz
'x, y, z'
_cell_length_a     24.708273
_cell_length_b     24.090218
_cell_length_c     43.247455
_cell_angle_alpha  96.452013
_cell_angle_beta   89.764209
_cell_angle_gamma 120.74104
loop_
_atom_site_label
_atom_site_type_symbol
_atom_site_fract_x
_atom_site_fract_y
_atom_site_fract_z
_atom_type_partial_charge
Mg0 Mg 0.47711 0.69286 0.06775 0.0
O1 O 0.37268 0.64982 0.05081 0.0
O2 O 0.33988 0.71163 0.07696 0.0
Mg3 Mg 0.42006 0.79222 0.11018 0.0
C4 C 0.32982 0.66366 0.05691 0.0
C5 C 0.54241 0.6528 0.01476 0.0
O6 O 0.58358 0.71554 0.02042 0.0
O7 O 0.50721 0.77727 0.03885 0.0
O8 O 0.47506 0.83643 0.06811 0.0
O9 O 0.44765 0.63374 0.10793 0.0
O10 O 0.46303 0.7326 0.10987 0.0
C11 C 0.50273 0.82802 0.04458 0.0
C12 C 0.44665 0.68224 0.12358 0.0
O13 O 0.49155 0.62914 0.02895 0.0
Mg14 Mg 0.64142 0.38673 0.56063 0.0
O15 O 0.58244 0.27744 0.54137 0.0
O16 O 0.50395 0.23223 0.57317 0.0
Mg17 Mg 0.51515 0.30923 0.61316 0.0
C18 C 0.53238 0.22803 0.54906 0.0
C19 C 0.72423 0.38641 0.50592 0.0
O20 O 0.71605 0.33493 0.51775 0.0
O21 O 0.56398 0.40154 0.54289 0.0
O22 O 0.4916 0.36068 0.57813 0.0
O23 O 0.70338 0.37066 0.59091 0.0
O24 O 0.61602 0.36704 0.60553 0.0
C25 C 0.5118 0.39009 0.55404 0.0
C26 C 0.66384 0.36187 0.61226 0.0
O27 O 0.69472 0.41406 0.51663 0.0
Mg28 Mg 0.27141 0.63931 0.39687 0.0
O29 O 0.318 0.74778 0.41631 0.0
O30 O 0.27984 0.79071 0.38601 0.0
Mg31 Mg 0.21582 0.71272 0.34584 0.0
C32 C 0.31437 0.79606 0.40941 0.0
C33 C 0.27897 0.55428 0.43986 0.0
O34 O 0.23827 0.5146 0.41684 0.0
O35 O 0.17772 0.61896 0.41546 0.0
O36 O 0.14107 0.65455 0.37996 0.0
O37 O 0.34972 0.6593 0.36596 0.0
O38 O 0.2633 0.65833 0.35211 0.0
C39 C 0.13406 0.62552 0.40399 0.0
C40 C 0.31721 0.6662 0.34492 0.0
O41 O 0.30133 0.61507 0.44047 0.0
Mg42 Mg 0.79535 0.32621 0.88765 0.0
O43 O 0.73727 0.37319 0.90529 0.0
O44 O 0.64337 0.31634 0.87861 0.0
Mg45 Mg 0.63906 0.2327 0.84567 0.0
C46 C 0.68213 0.36302 0.89884 0.0
C47 C 0.92392 0.43361 0.92103 0.0
O48 O 0.92874 0.4514 0.89306 0.0
O49 O 0.73895 0.24144 0.91579 0.0
O50 O 0.64726 0.18548 0.88719 0.0
O51 O 0.82684 0.38626 0.84767 0.0
O52 O 0.7417 0.28887 0.84554 0.0
C53 C 0.68315 0.192 0.91024 0.0
C54 C 0.77688 0.33912 0.832 0.0
O55 O 0.87243 0.38457 0.92731 0.0
C56 C 0.39661 0.62225 0.1691 0.0
C57 C 0.42639 0.6805 0.15583 0.0
C58 C 0.37846 0.62128 0.19997 0.0
C59 C 0.39109 0.68007 0.21793 0.0
C60 C 0.42119 0.73893 0.20461 0.0
C61 C 0.43831 0.73839 0.17373 0.0
C62 C 0.34597 0.55749 0.2134 0.0
C63 C 0.43599 0.80266 0.22311 0.0
C64 C 0.29713 0.67001 0.28889 0.0
C65 C 0.3386 0.67671 0.31302 0.0
C66 C 0.31376 0.6714 0.25781 0.0
C67 C 0.37346 0.68027 0.25079 0.0
C68 C 0.41636 0.68928 0.27515 0.0
C69 C 0.39831 0.68717 0.30599 0.0
C70 C 0.2668 0.66164 0.23242 0.0
C71 C 0.48081 0.69978 0.26858 0.0
H72 H 0.3873 0.57743 0.15536 0.0
H73 H 0.46208 0.7838 0.16377 0.0
H74 H 0.37456 0.5605 0.23392 0.0
H75 H 0.29956 0.54745 0.22159 0.0
H76 H 0.33843 0.51594 0.19618 0.0
H77 H 0.45917 0.84409 0.20919 0.0
H78 H 0.39203 0.79912 0.23159 0.0
H79 H 0.46752 0.81346 0.24392 0.0
H80 H 0.25075 0.66149 0.29412 0.0
H81 H 0.43058 0.69238 0.32454 0.0
H82 H 0.25422 0.61715 0.21616 0.0
H83 H 0.28805 0.70326 0.21862 0.0
H84 H 0.22288 0.65674 0.24184 0.0
H85 H 0.47582 0.65659 0.2537 0.0
H86 H 0.50941 0.70828 0.29025 0.0
H87 H 0.50691 0.74218 0.25553 0.0
C88 C 0.64142 0.35775 0.66853 0.0
C89 C 0.67585 0.35148 0.64392 0.0
C90 C 0.65712 0.35578 0.69935 0.0
C91 C 0.70798 0.34659 0.70562 0.0
C92 C 0.74168 0.33824 0.68077 0.0
C93 C 0.7254 0.34112 0.6502 0.0
C94 C 0.62026 0.36509 0.72528 0.0
C95 C 0.79556 0.32728 0.68654 0.0
C96 C 0.78834 0.40108 0.78716 0.0
C97 C 0.75925 0.34224 0.79992 0.0
C98 C 0.77174 0.40339 0.75649 0.0
C99 C 0.7257 0.34533 0.73819 0.0
C100 C 0.6965 0.28583 0.75096 0.0
C101 C 0.71343 0.28508 0.7817 0.0
C102 C 0.80337 0.46786 0.74367 0.0
C103 C 0.64775 0.22281 0.73207 0.0
H104 H 0.60339 0.36629 0.66387 0.0
H105 H 0.75217 0.33625 0.63127 0.0
H106 H 0.59948 0.32268 0.73856 0.0
H107 H 0.65233 0.40874 0.74186 0.0
H108 H 0.58166 0.37114 0.71645 0.0
H109 H 0.81568 0.31966 0.66456 0.0
H110 H 0.83362 0.36984 0.70163 0.0
H111 H 0.77928 0.28415 0.69905 0.0
H112 H 0.82373 0.44534 0.80117 0.0
H113 H 0.6913 0.23924 0.79129 0.0
H114 H 0.7673 0.47872 0.73606 0.0
H115 H 0.82881 0.46535 0.72286 0.0
H116 H 0.83744 0.50867 0.76107 0.0
H117 H 0.60733 0.22681 0.72423 0.0
H118 H 0.62968 0.18062 0.74547 0.0
H119 H 0.66842 0.21292 0.71085 0.0
C120 C 0.52825 0.54279 -0.00197 0.0
C121 C 0.55895 0.60949 -0.00479 0.0
C122 C 0.54789 0.50258 -0.01792 0.0
C123 C 0.5987 0.52937 0.96234 0.0
C124 C 0.62848 0.5962 0.9586 0.0
C125 C 0.60866 0.63554 0.97529 0.0
C126 C 0.51534 0.43176 -0.013 0.0
C127 C 0.68185 0.62637 0.93726 0.0
C128 C 0.69059 0.44308 0.944 0.0
C129 C 0.66204 0.40672 0.91499 0.0
C130 C 0.67024 0.48291 0.95974 0.0
C131 C 0.62106 0.48759 0.94586 0.0
C132 C 0.59293 0.45195 0.91632 0.0
C133 C 0.61329 0.41154 0.90142 0.0
C134 C 0.70078 0.51931 -0.00856 0.0
C135 C 0.54133 0.45658 0.9004 0.0
H136 H 0.49013 0.52234 0.01355 0.0
H137 H 0.63246 0.68697 0.97288 0.0
H138 H 0.49585 0.40023 0.96436 0.0
H139 H 0.54999 0.42121 -0.00308 0.0
H140 H 0.47635 0.41831 0.00295 0.0
H141 H 0.69796 0.67825 0.93574 0.0
H142 H 0.72247 0.62341 0.94577 0.0
H143 H 0.66682 0.599 0.91347 0.0
H144 H 0.72803 0.43939 0.95471 0.0
H145 H 0.59133 0.38412 0.87886 0.0
H146 H 0.66452 0.50478 0.00894 0.0
H147 H 0.72226 0.57242 -0.00901 0.0
H148 H 0.73791 0.51 -0.00082 0.0
H149 H 0.49998 0.43933 0.91492 0.0
H150 H 0.52571 0.42734 0.87701 0.0
H151 H 0.55806 0.5081 0.89777 0.0
C152 C 0.06668 0.58168 0.44866 0.0
C153 C 0.07179 0.59439 0.41762 0.0
C154 C 1.00751 0.54853 0.46125 0.0
C155 C 0.95206 0.52618 0.4421 0.0
C156 C 0.95692 0.53916 0.41079 0.0
C157 C 1.01679 0.5738 0.39902 0.0
C158 C 1.00432 0.53694 0.49499 0.0
C159 C 0.89888 0.515 0.3895 0.0
C160 C 0.8046 0.38693 0.4704 0.0
C161 C 0.77672 0.41975 0.48551 0.0
C162 C 0.86014 0.42049 0.4548 0.0
C163 C 0.88911 0.48869 0.45494 0.0
C164 C 0.85981 0.5216 0.4691 0.0
C165 C 0.80359 0.48661 0.48392 0.0
C166 C 0.88914 0.38341 0.43924 0.0
C167 C 0.88965 0.5944 0.47014 0.0
H168 H 0.10905 0.59772 0.46316 0.0
H169 H 1.02042 0.58283 0.37488 0.0
H170 H 0.97703 0.55638 0.50755 0.0
H171 H 0.97933 0.48389 0.49649 0.0
H172 H 0.05185 0.56014 0.5071 0.0
H173 H 0.91077 0.52997 0.36585 0.0
H174 H 0.8701 0.46105 0.38723 0.0
H175 H 0.86908 0.53376 0.39959 0.0
H176 H 0.78385 0.33522 0.4714 0.0
H177 H 0.78255 0.51246 0.49569 0.0
H178 H 0.93411 0.39812 0.45216 0.0
H179 H 0.90032 0.39521 0.4151 0.0
H180 H 0.85753 0.32988 0.43841 0.0
H181 H 0.93494 0.61949 0.48447 0.0
H182 H 0.85883 0.61196 0.48023 0.0
H183 H 0.90056 0.6088 0.4464 0.0
C184 C 0.59914 0.08315 0.92309 0.0
C185 C 0.65942 0.13867 0.93005 0.0
C186 C 0.57591 0.03128 0.94086 0.0
C187 C 0.61369 0.03485 0.96635 0.0
C188 C 0.67473 0.09033 0.97345 0.0
C189 C 0.69692 0.14165 0.95519 0.0
C190 C 0.51043 0.97306 0.93264 0.0
C191 C 0.71615 0.09583 0.00059 0.0
C192 C 0.52529 0.93523 0.03049 0.0
C193 C 0.53145 0.88028 0.02415 0.0
C194 C 0.55275 0.98617 0.01216 0.0
C195 C 0.58729 0.98232 -0.01327 0.0
C196 C 0.59406 0.9273 -0.01986 0.0
C197 C 0.566 0.8768 -0.00105 0.0
C198 C 0.54418 0.04388 0.01987 0.0
C199 C 0.63048 0.92161 0.95309 0.0
H200 H 0.56972 0.08 0.90367 0.0
H201 H 0.74361 0.1841 0.96069 0.0
H202 H 0.51218 0.92768 0.92913 0.0
H203 H 0.47975 0.96873 0.95215 0.0
H204 H 0.48827 0.97649 0.9112 0.0
H205 H 0.76353 0.14069 0.00211 0.0
H206 H 0.69333 0.09623 0.0227 0.0
H207 H 0.72205 0.05292 -0.00149 0.0
H208 H 0.4988 0.93869 0.04988 0.0
H209 H 0.57123 0.83474 -0.00608 0.0
H210 H 0.51848 0.04773 2e-05 0.0
H211 H 0.59081 0.08959 0.02362 0.0
H212 H 0.51751 0.04026 0.04104 0.0
H213 H 0.60785 0.92129 0.93092 0.0
H214 H 0.63305 0.87669 0.95166 0.0
H215 H 0.67917 0.96445 0.95525 0.0
C216 C 0.4905 0.43785 0.51043 0.0
C217 C 0.47417 0.41301 0.53905 0.0
C218 C 0.45606 0.46079 0.49626 0.0
C219 C 0.40427 0.45931 0.51114 0.0
C220 C 0.38755 0.43451 0.54003 0.0
C221 C 0.42254 0.41141 0.55359 0.0
C222 C 0.47497 0.48638 0.46525 0.0
C223 C 0.3328 0.4325 0.55663 0.0
C224 C 0.3546 0.5718 0.48356 0.0
C225 C 0.30537 0.52913 0.46136 0.0
C226 C 0.3856 0.54922 0.50098 0.0
C227 C 0.36701 0.48256 0.49594 0.0
C228 C 0.31537 0.43879 0.47469 0.0
C229 C 0.28504 0.46256 0.45775 0.0
C230 C 0.44004 0.5972 0.52373 0.0
C231 C 0.2941 0.36733 0.4687 0.0
H232 H 0.53016 0.43919 0.49896 0.0
H233 H 0.4097 0.39265 0.57579 0.0
H234 H 0.43506 0.45753 0.44749 0.0
H235 H 0.48633 0.53759 0.46723 0.0
H236 H 0.51653 0.48435 0.45681 0.0
H237 H 0.32646 0.41257 0.57919 0.0
H238 H 0.34018 0.48223 0.56111 0.0
H239 H 0.28857 0.40206 0.54167 0.0
H240 H 0.3704 0.62324 0.4866 0.0
H241 H 0.24681 0.42913 0.44078 0.0
H242 H 0.48465 0.60273 0.51505 0.0
H243 H 0.434 0.57894 0.54668 0.0
H244 H 0.44476 0.64593 0.52711 0.0
H245 H 0.33177 0.36151 0.45759 0.0
H246 H 0.25026 0.33895 0.45323 0.0
H247 H 0.2857 0.34625 0.49098 0.0
C248 C 0.2545 0.57452 0.01559 0.0
C249 C 0.26697 0.62476 0.03952 0.0
C250 C 0.19654 0.54055 -0.00217 0.0
C251 C 0.14986 0.55717 0.00409 0.0
C252 C 0.1614 0.60644 0.02877 0.0
C253 C 0.21961 0.63952 0.04615 0.0
C254 C 0.18595 0.48812 0.97177 0.0
C255 C 0.11297 0.6257 0.03623 0.0
C256 C 0.0341 0.52407 0.93703 0.0
C257 C 0.9799 0.46688 0.94356 0.0
C258 C 0.08931 0.55407 0.95668 0.0
C259 C 0.09074 0.52615 -0.01645 0.0
C260 C 0.03592 0.469 -0.00939 0.0
C261 C 0.98104 0.44015 0.97059 0.0
C262 C 0.14645 0.61536 0.94845 0.0
C263 C 0.0356 0.43776 0.01903 0.0
H264 H 0.29048 0.56247 0.01028 0.0
H265 H 0.22833 0.67793 0.06466 0.0
H266 H 0.14116 0.44235 0.97429 0.0
H267 H 0.18159 0.50324 0.94905 0.0
H268 H 0.22506 0.47797 0.9712 0.0
H269 H 0.12754 0.66207 0.05738 0.0
H270 H 0.10546 0.64673 0.01628 0.0
H271 H 0.06698 0.58224 0.03982 0.0
H272 H 0.03368 0.54529 0.91628 0.0
H273 H 0.9395 0.39584 0.97577 0.0
H274 H 0.18638 0.60708 0.94482 0.0
H275 H 0.16151 0.65531 0.96797 0.0
H276 H 0.13729 0.63154 0.92704 0.0
H277 H 0.07144 0.42299 0.01749 0.0
H278 H 0.98886 0.39418 0.02161 0.0
H279 H 0.0486 0.4733 0.04035 0.0
C280 C 0.53509 0.15608 0.50276 0.0
C281 C 0.50485 0.16413 0.52898 0.0
C282 C 0.50779 0.09649 0.48305 0.0
C283 C 0.44868 0.04372 0.48957 0.0
C284 C 0.41844 0.05121 0.51622 0.0
C285 C 0.44687 0.11106 0.53558 0.0
C286 C 0.54175 0.09032 0.45498 0.0
C287 C 0.3553 0.99631 0.52399 0.0
C288 C 0.34286 0.91218 0.42402 0.0
C289 C 0.35072 0.86016 0.4293 0.0
C290 C 0.37532 0.9724 0.44308 0.0
C291 C 0.41706 0.98127 0.46803 0.0
C292 C 0.42622 0.92951 0.47316 0.0
C293 C 0.39286 0.8696 0.45383 0.0
C294 C 0.36392 0.02618 0.43689 0.0
C295 C 0.47056 0.93711 0.49939 0.0
H296 H 0.57993 0.19653 0.49744 0.0
H297 H 0.42291 0.11643 0.55572 0.0
H298 H 0.54831 0.04814 0.45538 0.0
H299 H 0.51287 0.08107 0.43334 0.0
H300 H 0.58866 0.13479 0.45392 0.0
H301 H 0.33877 1.00935 0.54602 0.0
H302 H 0.31942 0.98297 0.50482 0.0
H303 H 0.35822 0.95246 0.52618 0.0
H304 H 0.31056 0.90569 0.40518 0.0
H305 H 0.39964 0.83001 0.45809 0.0
H306 H 0.40927 0.07068 0.43357 0.0
H307 H 0.34316 0.03882 0.4573 0.0
H308 H 0.33162 0.01231 0.41594 0.0
H309 H 0.51813 0.98002 0.49762 0.0
H310 H 0.47488 0.89341 0.49936 0.0
H311 H 0.45345 0.94592 0.52212 0.0
loop_
_geom_bond_atom_site_label_1
_geom_bond_atom_site_label_2
_geom_bond_distance
_geom_bond_site_symmetry_2
_ccdc_geom_bond_type
Mg0 O1 2.028 . S
Mg0 O7 1.986 . S
Mg0 O9 2.114 . S
Mg0 O10 2.251 . S
Mg0 O13 2.010 . S
O1 Mg0 2.028 . S
O1 C4 1.250 . S
O2 Mg3 2.028 . S
O2 C4 1.248 . S
Mg3 O2 2.028 . S
Mg3 O8 2.032 . S
Mg3 O10 2.079 . S
C4 O1 1.250 . S
C4 O2 1.248 . S
C5 O6 1.264 . S
C5 O13 1.249 . S
O6 C5 1.264 . S
O7 Mg0 1.986 . S
O7 C11 1.246 . S
O8 Mg3 2.032 . S
O8 C11 1.259 . S
O9 Mg0 2.114 . S
O9 C12 1.252 . S
O10 Mg0 2.251 . S
O10 Mg3 2.079 . S
O10 C12 1.273 . S
C11 O7 1.246 . S
C11 O8 1.259 . S
C12 O9 1.252 . S
C12 O10 1.273 . S
O13 Mg0 2.010 . S
O13 C5 1.249 . S
Mg14 O15 2.028 . S
Mg14 O21 1.986 . S
Mg14 O23 2.114 . S
Mg14 O24 2.251 . S
Mg14 O27 2.010 . S
O15 Mg14 2.028 . S
O15 C18 1.250 . S
O16 Mg17 2.028 . S
O16 C18 1.248 . S
Mg17 O16 2.028 . S
Mg17 O22 2.032 . S
Mg17 O24 2.079 . S
C18 O15 1.250 . S
C18 O16 1.248 . S
C19 O20 1.264 . S
C19 O27 1.249 . S
O20 C19 1.264 . S
O21 Mg14 1.986 . S
O21 C25 1.246 . S
O22 Mg17 2.032 . S
O22 C25 1.259 . S
O23 Mg14 2.114 . S
O23 C26 1.252 . S
O24 Mg14 2.251 . S
O24 Mg17 2.079 . S
O24 C26 1.273 . S
C25 O21 1.246 . S
C25 O22 1.259 . S
C26 O23 1.252 . S
C26 O24 1.273 . S
O27 Mg14 2.010 . S
O27 C19 1.249 . S
Mg28 O29 2.028 . S
Mg28 O35 1.986 . S
Mg28 O37 2.114 . S
Mg28 O38 2.251 . S
Mg28 O41 2.010 . S
O29 Mg28 2.028 . S
O29 C32 1.250 . S
O30 Mg31 2.028 . S
O30 C32 1.248 . S
Mg31 O30 2.028 . S
Mg31 O36 2.032 . S
Mg31 O38 2.079 . S
C32 O29 1.250 . S
C32 O30 1.248 . S
C33 O34 1.264 . S
C33 O41 1.249 . S
O34 C33 1.264 . S
O35 Mg28 1.986 . S
O35 C39 1.246 . S
O36 Mg31 2.032 . S
O36 C39 1.259 . S
O37 Mg28 2.114 . S
O37 C40 1.252 . S
O38 Mg28 2.251 . S
O38 Mg31 2.079 . S
O38 C40 1.273 . S
C39 O35 1.246 . S
C39 O36 1.259 . S
C40 O37 1.252 . S
C40 O38 1.273 . S
O41 Mg28 2.010 . S
O41 C33 1.249 . S
Mg42 O43 2.028 . S
Mg42 O49 1.986 . S
Mg42 O51 2.114 . S
Mg42 O52 2.251 . S
Mg42 O55 2.010 . S
O43 Mg42 2.028 . S
O43 C46 1.250 . S
O44 Mg45 2.028 . S
O44 C46 1.248 . S
Mg45 O44 2.028 . S
Mg45 O50 2.032 . S
Mg45 O52 2.079 . S
C46 O43 1.250 . S
C46 O44 1.248 . S
C47 O48 1.264 . S
C47 O55 1.249 . S
O48 C47 1.264 . S
O49 Mg42 1.986 . S
O49 C53 1.246 . S
O50 Mg45 2.032 . S
O50 C53 1.259 . S
O51 Mg42 2.114 . S
O51 C54 1.252 . S
O52 Mg42 2.251 . S
O52 Mg45 2.079 . S
O52 C54 1.273 . S
C53 O49 1.246 . S
C53 O50 1.259 . S
C54 O51 1.252 . S
C54 O52 1.273 . S
O55 Mg42 2.010 . S
O55 C47 1.249 . S
C56 C57 1.391 . S
C56 C58 1.394 . S
C56 H72 0.931 . S
C57 C56 1.391 . S
C57 C61 1.376 . S
C58 C56 1.394 . S
C58 C59 1.369 . S
C58 C62 1.531 . S
C59 C58 1.369 . S
C59 C60 1.410 . S
C59 C67 1.503 . S
C60 C59 1.410 . S
C60 C61 1.392 . S
C60 C63 1.511 . S
C61 C57 1.376 . S
C61 C60 1.392 . S
C61 H73 0.929 . S
C62 C58 1.531 . S
C62 H74 0.960 . S
C62 H75 0.962 . S
C62 H76 0.960 . S
C63 C60 1.511 . S
C63 H77 0.961 . S
C63 H78 0.961 . S
C63 H79 0.961 . S
C64 C65 1.370 . S
C64 C66 1.363 . S
C64 H80 0.931 . S
C65 C64 1.370 . S
C65 C69 1.408 . S
C66 C64 1.363 . S
C66 C67 1.370 . S
C66 C70 1.524 . S
C67 C59 1.503 . S
C67 C66 1.370 . S
C67 C68 1.403 . S
C68 C67 1.403 . S
C68 C69 1.404 . S
C68 C71 1.539 . S
C69 C65 1.408 . S
C69 C68 1.404 . S
C69 H81 0.930 . S
C70 C66 1.524 . S
C70 H82 0.956 . S
C70 H83 0.961 . S
C70 H84 0.961 . S
C71 C68 1.539 . S
C71 H85 0.958 . S
C71 H86 0.961 . S
C71 H87 0.960 . S
H72 C56 0.931 . S
H73 C61 0.929 . S
H74 C62 0.960 . S
H75 C62 0.962 . S
H76 C62 0.960 . S
H77 C63 0.961 . S
H78 C63 0.961 . S
H79 C63 0.961 . S
H80 C64 0.931 . S
H81 C69 0.930 . S
H82 C70 0.956 . S
H83 C70 0.961 . S
H84 C70 0.961 . S
H85 C71 0.958 . S
H86 C71 0.961 . S
H87 C71 0.960 . S
C88 C89 1.391 . S
C88 C90 1.394 . S
C88 H104 0.931 . S
C89 C88 1.391 . S
C89 C93 1.376 . S
C90 C88 1.394 . S
C90 C91 1.369 . S
C90 C94 1.531 . S
C91 C90 1.369 . S
C91 C92 1.410 . S
C91 C99 1.503 . S
C92 C91 1.410 . S
C92 C93 1.392 . S
C92 C95 1.511 . S
C93 C89 1.376 . S
C93 C92 1.392 . S
C93 H105 0.929 . S
C94 C90 1.531 . S
C94 H106 0.960 . S
C94 H107 0.962 . S
C94 H108 0.960 . S
C95 C92 1.511 . S
C95 H109 0.961 . S
C95 H110 0.961 . S
C95 H111 0.961 . S
C96 C97 1.370 . S
C96 C98 1.363 . S
C96 H112 0.931 . S
C97 C96 1.370 . S
C97 C101 1.408 . S
C98 C96 1.363 . S
C98 C99 1.370 . S
C98 C102 1.524 . S
C99 C91 1.503 . S
C99 C98 1.370 . S
C99 C100 1.403 . S
C100 C99 1.403 . S
C100 C101 1.404 . S
C100 C103 1.539 . S
C101 C97 1.408 . S
C101 C100 1.404 . S
C101 H113 0.930 . S
C102 C98 1.524 . S
C102 H114 0.956 . S
C102 H115 0.961 . S
C102 H116 0.961 . S
C103 C100 1.539 . S
C103 H117 0.958 . S
C103 H118 0.961 . S
C103 H119 0.960 . S
H104 C88 0.931 . S
H105 C93 0.929 . S
H106 C94 0.960 . S
H107 C94 0.962 . S
H108 C94 0.960 . S
H109 C95 0.961 . S
H110 C95 0.961 . S
H111 C95 0.961 . S
H112 C96 0.931 . S
H113 C101 0.930 . S
H114 C102 0.956 . S
H115 C102 0.961 . S
H116 C102 0.961 . S
H117 C103 0.958 . S
H118 C103 0.961 . S
H119 C103 0.960 . S
C120 C121 1.391 . S
C120 C122 1.394 . S
C120 H136 0.931 . S
C121 C120 1.391 . S
C121 C125 1.376 . S
C122 C120 1.394 . S
C122 C123 1.369 1_554 S
C122 C126 1.531 . S
C123 C122 1.369 1_556 S
C123 C124 1.410 . S
C123 C131 1.503 . S
C124 C123 1.410 . S
C124 C125 1.392 1_556 S
C124 C127 1.511 . S
C125 C121 1.376 . S
C125 C124 1.392 1_554 S
C125 H137 0.929 . S
C126 C122 1.531 . S
C126 H138 0.960 1_554 S
C126 H139 0.962 . S
C126 H140 0.960 . S
C127 C124 1.511 . S
C127 H141 0.961 . S
C127 H142 0.961 . S
C127 H143 0.961 . S
C128 C129 1.370 . S
C128 C130 1.363 1_556 S
C128 H144 0.931 1_556 S
C129 C128 1.370 . S
C129 C133 1.408 . S
C130 C128 1.363 1_554 S
C130 C131 1.370 1_554 S
C130 C134 1.524 . S
C131 C123 1.503 . S
C131 C130 1.370 1_556 S
C131 C132 1.403 . S
C132 C131 1.403 . S
C132 C133 1.404 . S
C132 C135 1.539 . S
C133 C129 1.408 . S
C133 C132 1.404 . S
C133 H145 0.930 . S
C134 C130 1.524 . S
C134 H146 0.956 . S
C134 H147 0.961 . S
C134 H148 0.961 . S
C135 C132 1.539 . S
C135 H149 0.958 . S
C135 H150 0.961 . S
C135 H151 0.960 . S
H136 C120 0.931 . S
H137 C125 0.929 . S
H138 C126 0.960 1_556 S
H139 C126 0.962 . S
H140 C126 0.960 . S
H141 C127 0.961 . S
H142 C127 0.961 . S
H143 C127 0.961 . S
H144 C128 0.931 1_554 S
H145 C133 0.930 . S
H146 C134 0.956 . S
H147 C134 0.961 . S
H148 C134 0.961 . S
H149 C135 0.958 . S
H150 C135 0.961 . S
H151 C135 0.960 . S
C152 C153 1.391 . S
C152 C154 1.394 . S
C152 H168 0.931 . S
C153 C152 1.391 . S
C153 C157 1.376 . S
C154 C152 1.394 . S
C154 C155 1.369 . S
C154 C158 1.531 . S
C155 C154 1.369 . S
C155 C156 1.410 . S
C155 C163 1.503 1_455 S
C156 C155 1.410 . S
C156 C157 1.392 . S
C156 C159 1.511 1_455 S
C157 C153 1.376 . S
C157 C156 1.392 . S
C157 H169 0.929 . S
C158 C154 1.531 . S
C158 H170 0.960 . S
C158 H171 0.962 . S
C158 H172 0.960 . S
C159 C156 1.511 1_655 S
C159 H173 0.961 1_655 S
C159 H174 0.961 . S
C159 H175 0.961 . S
C160 C161 1.370 . S
C160 C162 1.363 . S
C160 H176 0.931 . S
C161 C160 1.370 . S
C161 C165 1.408 . S
C162 C160 1.363 . S
C162 C163 1.370 . S
C162 C166 1.524 . S
C163 C155 1.503 1_655 S
C163 C162 1.370 . S
C163 C164 1.403 . S
C164 C163 1.403 . S
C164 C165 1.404 . S
C164 C167 1.539 . S
C165 C161 1.408 . S
C165 C164 1.404 . S
C165 H177 0.930 . S
C166 C162 1.524 . S
C166 H178 0.956 1_655 S
C166 H179 0.961 1_655 S
C166 H180 0.961 . S
C167 C164 1.539 . S
C167 H181 0.958 . S
C167 H182 0.961 . S
C167 H183 0.960 . S
H168 C152 0.931 . S
H169 C157 0.929 . S
H170 C158 0.960 . S
H171 C158 0.962 . S
H172 C158 0.960 . S
H173 C159 0.961 1_455 S
H174 C159 0.961 . S
H175 C159 0.961 . S
H176 C160 0.931 . S
H177 C165 0.930 . S
H178 C166 0.956 1_455 S
H179 C166 0.961 1_455 S
H180 C166 0.961 . S
H181 C167 0.958 . S
H182 C167 0.961 . S
H183 C167 0.960 . S
C184 C185 1.391 . S
C184 C186 1.394 . S
C184 H200 0.931 . S
C185 C184 1.391 . S
C185 C189 1.376 . S
C186 C184 1.394 . S
C186 C187 1.369 . S
C186 C190 1.531 . S
C187 C186 1.369 . S
C187 C188 1.410 . S
C187 C195 1.503 1_546 S
C188 C187 1.410 . S
C188 C189 1.392 . S
C188 C191 1.511 . S
C189 C185 1.376 . S
C189 C188 1.392 . S
C189 H201 0.929 . S
C190 C186 1.531 . S
C190 H202 0.960 1_545 S
C190 H203 0.962 1_556 S
C190 H204 0.960 . S
C191 C188 1.511 . S
C191 H205 0.961 . S
C191 H206 0.961 1_545 S
C191 H207 0.961 1_545 S
C192 C193 1.370 . S
C192 C194 1.363 . S
C192 H208 0.931 . S
C193 C192 1.370 . S
C193 C197 1.408 1_554 S
C194 C192 1.363 . S
C194 C195 1.370 . S
C194 C198 1.524 1_565 S
C195 C187 1.503 1_564 S
C195 C194 1.370 . S
C195 C196 1.403 1_554 S
C196 C195 1.403 1_556 S
C196 C197 1.404 . S
C196 C199 1.539 . S
C197 C193 1.408 1_556 S
C197 C196 1.404 . S
C197 H209 0.930 . S
C198 C194 1.524 1_545 S
C198 H210 0.956 . S
C198 H211 0.961 . S
C198 H212 0.961 . S
C199 C196 1.539 . S
C199 H213 0.958 . S
C199 H214 0.961 . S
C199 H215 0.960 . S
H200 C184 0.931 . S
H201 C189 0.929 . S
H202 C190 0.960 1_565 S
H203 C190 0.962 1_554 S
H204 C190 0.960 . S
H205 C191 0.961 . S
H206 C191 0.961 1_565 S
H207 C191 0.961 1_565 S
H208 C192 0.931 . S
H209 C197 0.930 . S
H210 C198 0.956 . S
H211 C198 0.961 . S
H212 C198 0.961 . S
H213 C199 0.958 . S
H214 C199 0.961 . S
H215 C199 0.960 . S
C216 C217 1.391 . S
C216 C218 1.394 . S
C216 H232 0.931 . S
C217 C216 1.391 . S
C217 C221 1.376 . S
C218 C216 1.394 . S
C218 C219 1.369 . S
C218 C222 1.531 . S
C219 C218 1.369 . S
C219 C220 1.410 . S
C219 C227 1.503 . S
C220 C219 1.410 . S
C220 C221 1.392 . S
C220 C223 1.511 . S
C221 C217 1.376 . S
C221 C220 1.392 . S
C221 H233 0.929 . S
C222 C218 1.531 . S
C222 H234 0.960 . S
C222 H235 0.962 . S
C222 H236 0.960 . S
C223 C220 1.511 . S
C223 H237 0.961 . S
C223 H238 0.961 . S
C223 H239 0.961 . S
C224 C225 1.370 . S
C224 C226 1.363 . S
C224 H240 0.931 . S
C225 C224 1.370 . S
C225 C229 1.408 . S
C226 C224 1.363 . S
C226 C227 1.370 . S
C226 C230 1.524 . S
C227 C219 1.503 . S
C227 C226 1.370 . S
C227 C228 1.403 . S
C228 C227 1.403 . S
C228 C229 1.404 . S
C228 C231 1.539 . S
C229 C225 1.408 . S
C229 C228 1.404 . S
C229 H241 0.930 . S
C230 C226 1.524 . S
C230 H242 0.956 . S
C230 H243 0.961 . S
C230 H244 0.961 . S
C231 C228 1.539 . S
C231 H245 0.958 . S
C231 H246 0.961 . S
C231 H247 0.960 . S
H232 C216 0.931 . S
H233 C221 0.929 . S
H234 C222 0.960 . S
H235 C222 0.962 . S
H236 C222 0.960 . S
H237 C223 0.961 . S
H238 C223 0.961 . S
H239 C223 0.961 . S
H240 C224 0.931 . S
H241 C229 0.930 . S
H242 C230 0.956 . S
H243 C230 0.961 . S
H244 C230 0.961 . S
H245 C231 0.958 . S
H246 C231 0.961 . S
H247 C231 0.960 . S
C248 C249 1.391 . S
C248 C250 1.397 . S
C248 H264 0.921 1_554 S
C249 C248 1.391 . S
C249 C253 1.376 . S
C250 C248 1.397 . S
C250 C251 1.376 . S
C250 C254 1.520 1_554 S
C251 C250 1.376 . S
C251 C252 1.410 . S
C251 C259 1.503 1_455 S
C252 C251 1.410 . S
C252 C253 1.392 . S
C252 C255 1.511 . S
C253 C249 1.376 . S
C253 C252 1.392 . S
C253 H265 0.929 . S
C254 C250 1.520 1_556 S
C254 H266 0.960 . S
C254 H267 0.962 . S
C254 H268 0.960 . S
C255 C252 1.511 . S
C255 H269 0.961 . S
C255 H270 0.961 . S
C255 H271 0.961 . S
C256 C257 1.370 . S
C256 C258 1.363 . S
C256 H272 0.931 . S
C257 C256 1.370 . S
C257 C261 1.408 1_556 S
C258 C256 1.363 . S
C258 C259 1.370 1_556 S
C258 C262 1.524 1_655 S
C259 C251 1.503 1_655 S
C259 C258 1.370 1_554 S
C259 C260 1.403 . S
C260 C259 1.403 . S
C260 C261 1.404 . S
C260 C263 1.539 . S
C261 C257 1.408 1_554 S
C261 C260 1.404 . S
C261 H273 0.930 . S
C262 C258 1.524 1_455 S
C262 H274 0.956 . S
C262 H275 0.961 . S
C262 H276 0.961 . S
C263 C260 1.539 . S
C263 H277 0.958 . S
C263 H278 0.961 . S
C263 H279 0.960 . S
H264 C248 0.921 1_556 S
H265 C253 0.929 . S
H266 C254 0.960 . S
H267 C254 0.962 . S
H268 C254 0.960 . S
H269 C255 0.961 . S
H270 C255 0.961 . S
H271 C255 0.961 . S
H272 C256 0.931 . S
H273 C261 0.930 . S
H274 C262 0.956 . S
H275 C262 0.961 . S
H276 C262 0.961 . S
H277 C263 0.958 . S
H278 C263 0.961 . S
H279 C263 0.960 . S
C280 C281 1.391 . S
C280 C282 1.394 . S
C280 H296 0.931 . S
C281 C280 1.391 . S
C281 C285 1.376 . S
C282 C280 1.394 . S
C282 C283 1.369 . S
C282 C286 1.531 . S
C283 C282 1.369 . S
C283 C284 1.410 . S
C283 C291 1.503 1_545 S
C284 C283 1.410 . S
C284 C285 1.392 . S
C284 C287 1.511 . S
C285 C281 1.376 . S
C285 C284 1.392 . S
C285 H297 0.929 . S
C286 C282 1.531 . S
C286 H298 0.960 1_545 S
C286 H299 0.962 . S
C286 H300 0.960 . S
C287 C284 1.511 . S
C287 H301 0.961 . S
C287 H302 0.961 . S
C287 H303 0.961 . S
C288 C289 1.370 . S
C288 C290 1.363 . S
C288 H304 0.931 . S
C289 C288 1.370 . S
C289 C293 1.408 . S
C290 C288 1.363 . S
C290 C291 1.370 . S
C290 C294 1.524 1_565 S
C291 C283 1.503 1_565 S
C291 C290 1.370 . S
C291 C292 1.403 . S
C292 C291 1.403 . S
C292 C293 1.404 . S
C292 C295 1.539 . S
C293 C289 1.408 . S
C293 C292 1.404 . S
C293 H305 0.930 . S
C294 C290 1.524 1_545 S
C294 H306 0.956 . S
C294 H307 0.961 . S
C294 H308 0.961 1_545 S
C295 C292 1.539 . S
C295 H309 0.958 . S
C295 H310 0.961 . S
C295 H311 0.960 . S
H296 C280 0.931 . S
H297 C285 0.929 . S
H298 C286 0.960 1_565 S
H299 C286 0.962 . S
H300 C286 0.960 . S
H301 C287 0.961 . S
H302 C287 0.961 . S
H303 C287 0.961 . S
H304 C288 0.931 . S
H305 C293 0.930 . S
H306 C294 0.956 . S
H307 C294 0.961 . S
H308 C294 0.961 1_565 S
H309 C295 0.958 . S
H310 C295 0.961 . S
H311 C295 0.960 . S
C57 C12 1.497 . S
C65 C40 1.504 . S
C89 C26 1.501 . S
C97 C54 1.501 . S
C121 C5 1.348 . S
C129 C46 1.553 . S
C153 C39 1.375 . S
C161 C19 1.128 . S
C185 C53 1.273 . S
C193 C11 1.290 . S
C217 C25 1.397 . S
C225 C33 1.112 . S
C249 C4 1.563 . S
C257 C47 1.301 . S
C281 C18 1.648 . S
C289 C32 1.670 . S
