# Generated by pormake.
# Topology smw, (6)-cn, num edge types: 1
# Building blocks:
#     Node 0, Type 0, BuildingBlock: OJICUG_clean_sbu_0, # of connection points: 6
#     Node 1, Type 0, BuildingBlock: OJICUG_clean_sbu_0, # of connection points: 6
#     Node 2, Type 0, BuildingBlock: OJICUG_clean_sbu_0, # of connection points: 6
#     Node 3, Type 0, BuildingBlock: OJICUG_clean_sbu_0, # of connection points: 6
#     Node 4, Type 0, BuildingBlock: OJICUG_clean_sbu_0, # of connection points: 6
#     Node 5, Type 0, BuildingBlock: OJICUG_clean_sbu_0, # of connection points: 6
#     Node 6, Type 0, BuildingBlock: OJICUG_clean_sbu_0, # of connection points: 6
#     Node 7, Type 0, BuildingBlock: OJICUG_clean_sbu_0, # of connection points: 6
#     Node 8, Type 0, BuildingBlock: OJICUG_clean_sbu_0, # of connection points: 6
#     Node 9, Type 0, BuildingBlock: OJICUG_clean_sbu_0, # of connection points: 6
#     Node 10, Type 0, BuildingBlock: OJICUG_clean_sbu_0, # of connection points: 6
#     Node 11, Type 0, BuildingBlock: OJICUG_clean_sbu_0, # of connection points: 6
#     Edge 12, Type (0, 0), BuildingBlock: XIVTED_clean_linker_0, # of connection points: 2
#     Edge 13, Type (0, 0), BuildingBlock: XIVTED_clean_linker_0, # of connection points: 2
#     Edge 14, Type (0, 0), BuildingBlock: XIVTED_clean_linker_0, # of connection points: 2
#     Edge 15, Type (0, 0), BuildingBlock: XIVTED_clean_linker_0, # of connection points: 2
#     Edge 16, Type (0, 0), BuildingBlock: XIVTED_clean_linker_0, # of connection points: 2
#     Edge 17, Type (0, 0), BuildingBlock: XIVTED_clean_linker_0, # of connection points: 2
#     Edge 18, Type (0, 0), BuildingBlock: XIVTED_clean_linker_0, # of connection points: 2
#     Edge 19, Type (0, 0), BuildingBlock: XIVTED_clean_linker_0, # of connection points: 2
#     Edge 20, Type (0, 0), BuildingBlock: XIVTED_clean_linker_0, # of connection points: 2
#     Edge 21, Type (0, 0), BuildingBlock: XIVTED_clean_linker_0, # of connection points: 2
#     Edge 22, Type (0, 0), BuildingBlock: XIVTED_clean_linker_0, # of connection points: 2
#     Edge 23, Type (0, 0), BuildingBlock: XIVTED_clean_linker_0, # of connection points: 2
#     Edge 24, Type (0, 0), BuildingBlock: XIVTED_clean_linker_0, # of connection points: 2
#     Edge 25, Type (0, 0), BuildingBlock: XIVTED_clean_linker_0, # of connection points: 2
#     Edge 26, Type (0, 0), BuildingBlock: XIVTED_clean_linker_0, # of connection points: 2
#     Edge 27, Type (0, 0), BuildingBlock: XIVTED_clean_linker_0, # of connection points: 2
#     Edge 28, Type (0, 0), BuildingBlock: XIVTED_clean_linker_0, # of connection points: 2
#     Edge 29, Type (0, 0), BuildingBlock: XIVTED_clean_linker_0, # of connection points: 2
#     Edge 30, Type (0, 0), BuildingBlock: XIVTED_clean_linker_0, # of connection points: 2
#     Edge 31, Type (0, 0), BuildingBlock: XIVTED_clean_linker_0, # of connection points: 2
#     Edge 32, Type (0, 0), BuildingBlock: XIVTED_clean_linker_0, # of connection points: 2
#     Edge 33, Type (0, 0), BuildingBlock: XIVTED_clean_linker_0, # of connection points: 2
#     Edge 34, Type (0, 0), BuildingBlock: XIVTED_clean_linker_0, # of connection points: 2
#     Edge 35, Type (0, 0), BuildingBlock: XIVTED_clean_linker_0, # of connection points: 2
#     Edge 36, Type (0, 0), BuildingBlock: XIVTED_clean_linker_0, # of connection points: 2
#     Edge 37, Type (0, 0), BuildingBlock: XIVTED_clean_linker_0, # of connection points: 2
#     Edge 38, Type (0, 0), BuildingBlock: XIVTED_clean_linker_0, # of connection points: 2
#     Edge 39, Type (0, 0), BuildingBlock: XIVTED_clean_linker_0, # of connection points: 2
#     Edge 40, Type (0, 0), BuildingBlock: XIVTED_clean_linker_0, # of connection points: 2
#     Edge 41, Type (0, 0), BuildingBlock: XIVTED_clean_linker_0, # of connection points: 2
#     Edge 42, Type (0, 0), BuildingBlock: XIVTED_clean_linker_0, # of connection points: 2
#     Edge 43, Type (0, 0), BuildingBlock: XIVTED_clean_linker_0, # of connection points: 2
#     Edge 44, Type (0, 0), BuildingBlock: XIVTED_clean_linker_0, # of connection points: 2
#     Edge 45, Type (0, 0), BuildingBlock: XIVTED_clean_linker_0, # of connection points: 2
#     Edge 46, Type (0, 0), BuildingBlock: XIVTED_clean_linker_0, # of connection points: 2
#     Edge 47, Type (0, 0), BuildingBlock: XIVTED_clean_linker_0, # of connection points: 2
# Relax obj value: 0.103
# Max RMSD: 0.108
# Mean RMSD: 0.108
data_MOF--net-smw--node1-OJICUG_clean_sbu_0--edge1-XIVTED_clean_linker_0
_symmetry_space_group_name_H-M    P1
_symmetry_Int_Tables_number       1
_symmetry_cell_setting            triclinic
loop_
_symmetry_equiv_pos_as_xyz
'x, y, z'
_cell_length_a     55.223534
_cell_length_b     55.121216
_cell_length_c     22.560692
_cell_angle_alpha  89.828511
_cell_angle_beta   90.696858
_cell_angle_gamma 119.89959
loop_
_atom_site_label
_atom_site_type_symbol
_atom_site_fract_x
_atom_site_fract_y
_atom_site_fract_z
_atom_type_partial_charge
Sc0 Sc 0.46539 0.1373 -0.00791 0.0
Sc1 Sc 0.39154 0.10065 -0.00853 0.0
Sc2 Sc 0.42906 0.06539 0.96803 0.0
O3 O 0.42854 0.10114 0.98406 0.0
C4 C 0.48076 0.10894 0.89069 0.0
C5 C 0.42826 0.15799 0.9236 0.0
C6 C 0.38258 0.06207 0.87949 0.0
C7 C 0.42918 0.14163 0.09561 0.0
C8 C 0.47742 0.09351 0.06202 0.0
C9 C 0.37526 0.04264 0.0497 0.0
O10 O 0.48199 0.13089 0.91151 0.0
O11 O 0.40492 0.13679 0.93612 0.0
O12 O 0.40283 0.05806 0.89203 0.0
O13 O 0.45235 0.14701 0.07325 0.0
O14 O 0.4559 0.07135 0.04361 0.0
O15 O 0.37315 0.06449 0.04787 0.0
O16 O 0.48384 0.11778 0.04348 0.0
O17 O 0.40566 0.12614 0.07034 0.0
O18 O 0.39366 0.04023 0.02156 0.0
O19 O 0.45144 0.16108 0.94189 0.0
O20 O 0.46428 0.08474 0.9107 0.0
O21 O 0.37437 0.07506 0.91283 0.0
Sc22 Sc 0.32037 0.47515 -0.00841 0.0
Sc23 Sc 0.29126 0.40162 0.98041 0.0
Sc24 Sc 0.36406 0.44673 0.97647 0.0
O25 O 0.32513 0.44109 0.98315 0.0
C26 C 0.37007 0.4987 0.90135 0.0
C27 C 0.27021 0.43634 0.90399 0.0
C28 C 0.33017 0.40076 0.87851 0.0
C29 C 0.27473 0.43132 0.07977 0.0
C30 C 0.37288 0.49028 0.07681 0.0
C31 C 0.33397 0.39026 0.05206 0.0
O32 O 0.34842 0.49819 0.92106 0.0
O33 O 0.26943 0.4137 0.91862 0.0
O34 O 0.35226 0.42188 0.898 0.0
O35 O 0.29161 0.45595 0.06221 0.0
O36 O 0.37865 0.47266 0.05434 0.0
O37 O 0.3091 0.38469 0.04167 0.0
O38 O 0.35334 0.49408 0.05708 0.0
O39 O 0.27186 0.40946 0.05444 0.0
O40 O 0.35511 0.4113 0.03035 0.0
O41 O 0.28715 0.45988 0.9271 0.0
O42 O 0.37844 0.48238 0.91995 0.0
O43 O 0.30693 0.38968 0.90522 0.0
Sc44 Sc 0.83974 0.33898 -0.01274 0.0
Sc45 Sc 0.87253 0.29793 0.9778 0.0
Sc46 Sc 0.91229 0.3701 0.00681 0.0
O47 O 0.87481 0.33561 -0.00957 0.0
C48 C 0.88442 0.39395 0.91852 0.0
C49 C 0.82971 0.29709 0.8807 0.0
C50 C 0.92958 0.33755 0.91505 0.0
C51 C 0.81802 0.2809 0.05339 0.0
C52 C 0.87292 0.38098 0.09207 0.0
C53 C 0.91496 0.32388 0.08634 0.0
O54 O 0.85978 0.37622 0.93439 0.0
O55 O 0.846 0.28902 0.90147 0.0
O56 O 0.93392 0.35891 0.94456 0.0
O57 O 0.81612 0.30226 0.03981 0.0
O58 O 0.89641 0.38609 0.07255 0.0
O59 O 0.89906 0.30326 0.05328 0.0
O60 O 0.84994 0.36329 0.06785 0.0
O61 O 0.83733 0.27686 0.03479 0.0
O62 O 0.92079 0.34893 0.07661 0.0
O63 O 0.82529 0.31497 0.90648 0.0
O64 O 0.90606 0.39383 0.93816 0.0
O65 O 0.90742 0.31406 0.91923 0.0
Sc66 Sc 0.53074 0.85864 0.9825 0.0
Sc67 Sc 0.6044 0.89357 0.98197 0.0
Sc68 Sc 0.56899 0.93126 0.00399 0.0
O69 O 0.56812 0.89452 -0.01053 0.0
C70 C 0.51852 0.9023 0.91305 0.0
C71 C 0.5657 0.85169 0.88008 0.0
C72 C 0.62036 0.95046 0.91677 0.0
C73 C 0.56706 0.83752 0.0531 0.0
C74 C 0.51843 0.88905 0.08626 0.0
C75 C 0.61756 0.93589 0.08857 0.0
O76 O 0.51264 0.87794 0.92958 0.0
O77 O 0.58929 0.86721 0.90487 0.0
O78 O 0.60237 0.95415 0.9435 0.0
O79 O 0.54407 0.83486 0.03464 0.0
O80 O 0.53601 0.91329 0.06778 0.0
O81 O 0.62313 0.9199 0.05845 0.0
O82 O 0.51501 0.86675 0.06218 0.0
O83 O 0.59061 0.85811 0.03948 0.0
O84 O 0.59823 0.9412 0.07561 0.0
O85 O 0.54272 0.84706 0.90209 0.0
O86 O 0.53965 0.92442 0.93274 0.0
O87 O 0.62273 0.92888 0.92353 0.0
Sc88 Sc 0.66924 0.51653 0.98096 0.0
Sc89 Sc 0.69624 0.58949 -0.00583 0.0
Sc90 Sc 0.62404 0.54282 0.00023 0.0
O91 O 0.66329 0.54966 -0.00847 0.0
C92 C 0.61658 0.50195 0.89563 0.0
C93 C 0.71378 0.56156 0.893 0.0
C94 C 0.65248 0.60044 0.92816 0.0
C95 C 0.71924 0.556 0.06861 0.0
C96 C 0.61877 0.48936 0.06816 0.0
C97 C 0.65724 0.58778 0.09919 0.0
O98 O 0.63574 0.49759 0.91588 0.0
O99 O 0.71638 0.58297 0.91982 0.0
O100 O 0.63202 0.57972 0.95254 0.0
O101 O 0.70305 0.53236 0.04475 0.0
O102 O 0.60943 0.50494 0.04992 0.0
O103 O 0.67964 0.60024 0.06948 0.0
O104 O 0.64197 0.49243 0.05163 0.0
O105 O 0.7188 0.57816 0.05523 0.0
O106 O 0.63561 0.56545 0.08204 0.0
O107 O 0.69727 0.53667 0.90958 0.0
O108 O 0.61075 0.51945 0.91875 0.0
O109 O 0.67741 0.60542 0.93344 0.0
Sc110 Sc 0.15301 0.6622 -0.0123 0.0
Sc111 Sc 0.12086 0.70384 -0.00337 0.0
Sc112 Sc 0.08055 0.63169 0.96704 0.0
O113 O 0.11817 0.66597 0.98392 0.0
C114 C 0.11993 0.62073 0.88189 0.0
C115 C 0.17536 0.72038 0.92144 0.0
C116 C 0.07801 0.67825 0.88846 0.0
C117 C 0.16339 0.7042 0.09413 0.0
C118 C 0.10789 0.60721 0.05544 0.0
C119 C 0.06378 0.66435 0.05973 0.0
O120 O 0.14282 0.638 0.90704 0.0
O121 O 0.15609 0.72466 0.9394 0.0
O122 O 0.07201 0.65314 0.89787 0.0
O123 O 0.16744 0.68602 0.0686 0.0
O124 O 0.08642 0.60746 0.03509 0.0
O125 O 0.08599 0.6878 0.05535 0.0
O126 O 0.13264 0.62495 0.04034 0.0
O127 O 0.14744 0.71263 0.07305 0.0
O128 O 0.05921 0.64295 0.03001 0.0
O129 O 0.177 0.69893 0.93557 0.0
O130 O 0.09638 0.61586 0.90064 0.0
O131 O 0.09425 0.6988 0.92135 0.0
Sc132 Sc 0.92802 0.56497 0.49003 0.0
Sc133 Sc 0.89412 0.60481 0.4909 0.0
Sc134 Sc 0.85559 0.53119 0.50241 0.0
O135 O 0.89254 0.56705 0.49489 0.0
C136 C 0.886 0.50977 0.41779 0.0
C137 C 0.93693 0.60933 0.39226 0.0
C138 C 0.84131 0.56592 0.40937 0.0
C139 C 0.9486 0.62158 0.56458 0.0
C140 C 0.89586 0.52225 0.59256 0.0
C141 C 0.8464 0.57227 0.58551 0.0
O142 O 0.91014 0.52757 0.43677 0.0
O143 O 0.92407 0.61948 0.41996 0.0
O144 O 0.8362 0.54328 0.43476 0.0
O145 O 0.95186 0.60256 0.54086 0.0
O146 O 0.87203 0.516 0.57085 0.0
O147 O 0.86424 0.59477 0.56069 0.0
O148 O 0.9188 0.5408 0.57035 0.0
O149 O 0.92691 0.62365 0.55666 0.0
O150 O 0.84205 0.54833 0.56997 0.0
O151 O 0.93854 0.58825 0.40963 0.0
O152 O 0.86408 0.50943 0.43479 0.0
O153 O 0.86163 0.58972 0.42424 0.0
Sc154 Sc 0.37401 0.91953 0.47861 0.0
Sc155 Sc 0.30107 0.87911 0.49167 0.0
Sc156 Sc 0.34267 0.84704 0.49987 0.0
O157 O 0.33919 0.88186 0.49013 0.0
C158 C 0.39016 0.87982 0.40661 0.0
C159 C 0.33143 0.91975 0.3835 0.0
C160 C 0.28764 0.82366 0.42054 0.0
C161 C 0.33687 0.93765 0.55387 0.0
C162 C 0.39288 0.8931 0.58073 0.0
C163 C 0.29647 0.83775 0.59476 0.0
O164 O 0.39414 0.90338 0.42397 0.0
O165 O 0.30967 0.90447 0.41346 0.0
O166 O 0.30881 0.8224 0.43907 0.0
O167 O 0.35946 0.94217 0.53031 0.0
O168 O 0.37666 0.86826 0.56222 0.0
O169 O 0.28924 0.8539 0.56986 0.0
O170 O 0.3939 0.9146 0.55707 0.0
O171 O 0.31413 0.91481 0.54783 0.0
O172 O 0.31504 0.83303 0.57418 0.0
O173 O 0.35606 0.92607 0.39969 0.0
O174 O 0.37084 0.85687 0.42686 0.0
O175 O 0.28264 0.84283 0.43594 0.0
Sc176 Sc 0.45132 0.36372 0.46375 0.0
Sc177 Sc 0.40713 0.29177 0.48847 0.0
Sc178 Sc 0.48078 0.32137 0.49296 0.0
O179 O 0.44637 0.32554 0.48185 0.0
C180 C 0.49952 0.364 0.38628 0.0
C181 C 0.40169 0.32378 0.37648 0.0
C182 C 0.43932 0.26529 0.42328 0.0
C183 C 0.39817 0.33868 0.54744 0.0
C184 C 0.49912 0.3792 0.56007 0.0
C185 C 0.44025 0.28272 0.59482 0.0
O186 O 0.48369 0.37334 0.40166 0.0
O187 O 0.39249 0.30192 0.40819 0.0
O188 O 0.46353 0.2838 0.44068 0.0
O189 O 0.41884 0.3587 0.5219 0.0
O190 O 0.50204 0.35839 0.54701 0.0
O191 O 0.41782 0.27831 0.56903 0.0
O192 O 0.48078 0.38358 0.53562 0.0
O193 O 0.39183 0.31332 0.54156 0.0
O194 O 0.46436 0.29785 0.57295 0.0
O195 O 0.42278 0.34714 0.39044 0.0
O196 O 0.50082 0.34453 0.41374 0.0
O197 O 0.4173 0.2658 0.43635 0.0
Sc198 Sc 0.06555 0.4375 0.48393 0.0
Sc199 Sc 0.09803 0.3964 0.48278 0.0
Sc200 Sc 0.13793 0.47003 0.47288 0.0
O201 O 0.10055 0.43458 0.47942 0.0
C202 C 0.0985 0.48001 0.38201 0.0
C203 C 0.04362 0.38051 0.41017 0.0
C204 C 0.14577 0.42851 0.38813 0.0
C205 C 0.05604 0.39315 0.5821 0.0
C206 C 0.10812 0.49232 0.55664 0.0
C207 C 0.15116 0.434 0.56443 0.0
O208 O 0.07532 0.46144 0.40329 0.0
O209 O 0.06511 0.37809 0.41749 0.0
O210 O 0.1509 0.4526 0.4047 0.0
O211 O 0.05486 0.41447 0.56463 0.0
O212 O 0.12986 0.49191 0.54112 0.0
O213 O 0.13055 0.41057 0.5488 0.0
O214 O 0.08404 0.47512 0.53639 0.0
O215 O 0.06831 0.38242 0.55415 0.0
O216 O 0.15676 0.45702 0.54017 0.0
O217 O 0.04089 0.39984 0.43389 0.0
O218 O 0.12212 0.48607 0.4047 0.0
O219 O 0.12755 0.40605 0.41249 0.0
Sc220 Sc 0.62389 0.07625 0.49165 0.0
Sc221 Sc 0.69694 0.11894 0.48187 0.0
Sc222 Sc 0.6539 0.14925 0.47696 0.0
O223 O 0.65823 0.11479 0.4837 0.0
C224 C 0.60328 0.10486 0.39626 0.0
C225 C 0.66146 0.06183 0.41064 0.0
C226 C 0.70062 0.16082 0.38145 0.0
C227 C 0.66771 0.07372 0.58178 0.0
C228 C 0.60803 0.11348 0.57288 0.0
C229 C 0.70876 0.17323 0.55586 0.0
O230 O 0.60127 0.08324 0.42123 0.0
O231 O 0.6844 0.0829 0.42654 0.0
O232 O 0.68267 0.16575 0.40481 0.0
O233 O 0.64318 0.06485 0.56111 0.0
O234 O 0.62448 0.13652 0.54794 0.0
O235 O 0.71518 0.15558 0.53673 0.0
O236 O 0.60587 0.09032 0.55748 0.0
O237 O 0.68952 0.0942 0.56041 0.0
O238 O 0.68641 0.17294 0.54075 0.0
O239 O 0.63786 0.05743 0.42808 0.0
O240 O 0.62116 0.1296 0.41202 0.0
O241 O 0.70741 0.14372 0.40313 0.0
Sc242 Sc 0.53929 0.62763 0.5062 0.0
Sc243 Sc 0.58358 0.69973 0.48796 0.0
Sc244 Sc 0.51003 0.67012 0.47991 0.0
O245 O 0.54435 0.66598 0.49127 0.0
C246 C 0.49501 0.61473 0.40501 0.0
C247 C 0.59519 0.65467 0.43074 0.0
C248 C 0.55196 0.71089 0.38192 0.0
C249 C 0.58546 0.66557 0.60052 0.0
C250 C 0.48685 0.62278 0.5755 0.0
C251 C 0.55036 0.72493 0.55396 0.0
O252 O 0.51401 0.61086 0.42773 0.0
O253 O 0.59998 0.67961 0.43355 0.0
O254 O 0.52763 0.69535 0.40242 0.0
O255 O 0.5639 0.64269 0.58549 0.0
O256 O 0.48848 0.64519 0.55629 0.0
O257 O 0.57249 0.72465 0.54091 0.0
O258 O 0.50284 0.61401 0.5581 0.0
O259 O 0.5964 0.68739 0.56823 0.0
O260 O 0.52621 0.70659 0.53577 0.0
O261 O 0.5749 0.63458 0.45677 0.0
O262 O 0.49024 0.63393 0.42237 0.0
O263 O 0.57414 0.71481 0.40816 0.0
H264 H 0.47447 0.17268 0.1677 0.0
H265 H 0.39147 0.22185 0.37585 0.0
H266 H 0.38553 0.14101 0.15364 0.0
H267 H 0.48108 0.257 0.38186 0.0
H268 H 0.38796 0.18713 0.30457 0.0
H269 H 0.47613 0.19851 0.25633 0.0
C270 C 0.45523 0.171 0.18339 0.0
C271 C 0.42988 0.15504 0.15251 0.0
C272 C 0.40836 0.2023 0.32187 0.0
C273 C 0.43172 0.18464 0.25399 0.0
C274 C 0.41041 0.22218 0.36255 0.0
C275 C 0.43668 0.24268 0.38421 0.0
C276 C 0.43273 0.20297 0.30258 0.0
C277 C 0.46042 0.24183 0.36585 0.0
C278 C 0.45621 0.18574 0.23412 0.0
C279 C 0.40559 0.15332 0.17558 0.0
N280 N 0.4579 0.22245 0.32564 0.0
N281 N 0.40717 0.16822 0.22465 0.0
H282 H 0.18474 0.47203 0.32402 0.0
H283 H 0.22907 0.38351 0.1213 0.0
H284 H 0.14662 0.38235 0.34371 0.0
H285 H 0.279 0.47264 0.15217 0.0
H286 H 0.1965 0.38113 0.19725 0.0
H287 H 0.21625 0.4711 0.25196 0.0
C288 C 0.18289 0.45204 0.31312 0.0
C289 C 0.16313 0.42723 0.34052 0.0
C290 C 0.21475 0.40108 0.18746 0.0
C291 C 0.19953 0.42613 0.25769 0.0
C292 C 0.23335 0.40248 0.14436 0.0
C293 C 0.25657 0.42839 0.12976 0.0
C294 C 0.21947 0.42578 0.21547 0.0
C295 C 0.26118 0.45227 0.16114 0.0
C296 C 0.20107 0.45158 0.27204 0.0
C297 C 0.16165 0.40198 0.32383 0.0
N298 N 0.24267 0.45038 0.20207 0.0
N299 N 0.17974 0.40205 0.28336 0.0
H300 H 0.8141 0.23193 0.09158 0.0
H301 H 0.69445 0.20127 0.32377 0.0
H302 H 0.77508 0.28276 0.10874 0.0
H303 H 0.73845 0.15488 0.31498 0.0
H304 H 0.7198 0.22789 0.23707 0.0
H305 H 0.78234 0.19998 0.16527 0.0
C306 C 0.79876 0.23632 0.11056 0.0
C307 C 0.79749 0.26028 0.09446 0.0
C308 C 0.72378 0.21178 0.254 0.0
C309 C 0.76112 0.22377 0.179 0.0
C310 C 0.70934 0.19657 0.30353 0.0
C311 C 0.71459 0.17604 0.32718 0.0
C312 C 0.74359 0.2064 0.228 0.0
C313 C 0.73394 0.17072 0.29874 0.0
C314 C 0.78062 0.21804 0.15266 0.0
C315 C 0.77698 0.26469 0.12017 0.0
N316 N 0.74786 0.18595 0.25083 0.0
N317 N 0.75972 0.2467 0.16157 0.0
H318 H 0.51011 0.70458 0.30628 0.0
H319 H 0.61081 0.83692 0.1108 0.0
H320 H 0.5998 0.75145 0.3301 0.0
H321 H 0.52109 0.78918 0.08824 0.0
H322 H 0.60793 0.80291 0.18403 0.0
H323 H 0.5145 0.73241 0.21893 0.0
C324 C 0.53076 0.72063 0.29302 0.0
C325 C 0.55459 0.72596 0.32612 0.0
C326 C 0.58892 0.7998 0.16265 0.0
C327 C 0.55974 0.75797 0.22614 0.0
C328 C 0.59054 0.81921 0.12085 0.0
C329 C 0.56612 0.81611 0.09388 0.0
C330 C 0.5627 0.77722 0.17758 0.0
C331 C 0.54045 0.79264 0.10837 0.0
C332 C 0.53325 0.7365 0.24301 0.0
C333 C 0.58082 0.74677 0.30626 0.0
N334 N 0.53941 0.77423 0.14956 0.0
N335 N 0.58267 0.76223 0.25783 0.0
H336 H 0.76068 0.60316 0.12216 0.0
H337 H 0.79884 0.51882 0.35759 0.0
H338 H 0.72226 0.51301 0.12304 0.0
H339 H 0.84282 0.60908 0.34563 0.0
H340 H 0.77013 0.51633 0.27259 0.0
H341 H 0.79086 0.6057 0.20421 0.0
C342 C 0.75864 0.58388 0.1394 0.0
C343 C 0.73879 0.5578 0.11578 0.0
C344 C 0.78607 0.53667 0.28854 0.0
C345 C 0.77327 0.56063 0.21001 0.0
C346 C 0.80243 0.53815 0.33728 0.0
C347 C 0.82327 0.56424 0.35896 0.0
C348 C 0.79048 0.56144 0.26134 0.0
C349 C 0.827 0.58852 0.33053 0.0
C350 C 0.77592 0.58537 0.1863 0.0
C351 C 0.73724 0.53357 0.13982 0.0
N352 N 0.81071 0.58652 0.28319 0.0
N353 N 0.75418 0.53557 0.18588 0.0
H354 H 0.29366 0.78377 0.35969 0.0
H355 H 0.15283 0.73479 0.17372 0.0
H356 H 0.2362 0.81438 0.38672 0.0
H357 H 0.20904 0.70321 0.14086 0.0
H358 H 0.18104 0.76008 0.25956 0.0
H359 H 0.26104 0.75041 0.28641 0.0
C360 C 0.27415 0.78336 0.35058 0.0
C361 C 0.26782 0.80215 0.37883 0.0
C362 C 0.18717 0.7475 0.23389 0.0
C363 C 0.23055 0.76413 0.2955 0.0
C364 C 0.17106 0.73306 0.18474 0.0
C365 C 0.17881 0.71718 0.14956 0.0
C366 C 0.21141 0.74632 0.24782 0.0
C367 C 0.20241 0.71536 0.16658 0.0
C368 C 0.25557 0.76433 0.3088 0.0
C369 C 0.2422 0.80061 0.36551 0.0
N370 N 0.2181 0.73006 0.21423 0.0
N371 N 0.22463 0.78207 0.32464 0.0
H372 H 0.59675 0.77565 0.57306 0.0
H373 H 0.60971 0.8539 0.82115 0.0
H374 H 0.51021 0.72586 0.62242 0.0
H375 H 0.51993 0.81693 0.81196 0.0
H376 H 0.60773 0.82705 0.73481 0.0
H377 H 0.6023 0.81151 0.64288 0.0
C378 C 0.57895 0.77219 0.59911 0.0
C379 C 0.55313 0.74749 0.59298 0.0
C380 C 0.58847 0.82529 0.75026 0.0
C381 C 0.55959 0.78803 0.67491 0.0
C382 C 0.58958 0.84048 0.8003 0.0
C383 C 0.56493 0.83751 0.82423 0.0
C384 C 0.56249 0.8071 0.72358 0.0
C385 C 0.53947 0.81975 0.79531 0.0
C386 C 0.5822 0.79262 0.63947 0.0
C387 C 0.53056 0.74447 0.62635 0.0
N388 N 0.53889 0.80499 0.7468 0.0
N389 N 0.53441 0.76442 0.66647 0.0
H390 H 0.70738 0.52214 0.81259 0.0
H391 H 0.8468 0.61839 0.63433 0.0
H392 H 0.76079 0.60948 0.85696 0.0
H393 H 0.80419 0.528 0.64175 0.0
H394 H 0.81332 0.6178 0.70599 0.0
H395 H 0.73966 0.52661 0.73587 0.0
C396 C 0.72589 0.54234 0.80606 0.0
C397 C 0.73167 0.56535 0.84196 0.0
C398 C 0.81153 0.59822 0.69174 0.0
C399 C 0.76891 0.57054 0.75421 0.0
C400 C 0.8306 0.59851 0.65112 0.0
C401 C 0.82826 0.57321 0.63178 0.0
C402 C 0.78999 0.57247 0.71225 0.0
C403 C 0.80688 0.54807 0.65499 0.0
C404 C 0.74436 0.54486 0.76228 0.0
C405 C 0.7557 0.59116 0.83052 0.0
N406 N 0.78856 0.54838 0.69363 0.0
N407 N 0.7737 0.59304 0.78777 0.0
H408 H 0.30296 0.79893 0.65857 0.0
H409 H 0.17889 0.76851 0.87831 0.0
H410 H 0.25732 0.84382 0.65587 0.0
H411 H 0.21958 0.7189 0.87161 0.0
H412 H 0.21159 0.80011 0.80532 0.0
H413 H 0.2766 0.77319 0.74517 0.0
C414 C 0.28752 0.8035 0.6763 0.0
C415 C 0.28208 0.82331 0.64938 0.0
C416 C 0.21345 0.78239 0.8201 0.0
C417 C 0.25191 0.79393 0.7484 0.0
C418 C 0.19478 0.76432 0.8618 0.0
C419 C 0.19626 0.7408 0.88061 0.0
C420 C 0.2337 0.77688 0.79696 0.0
C421 C 0.21747 0.73661 0.85799 0.0
C422 C 0.27249 0.78879 0.72576 0.0
C423 C 0.262 0.82851 0.67466 0.0
N424 N 0.23525 0.75438 0.81698 0.0
N425 N 0.24751 0.81375 0.72255 0.0
H426 H 0.48277 0.29008 0.66972 0.0
H427 H 0.38395 0.15832 0.86791 0.0
H428 H 0.3929 0.24312 0.6497 0.0
H429 H 0.47369 0.20701 0.88931 0.0
H430 H 0.3861 0.1924 0.79578 0.0
H431 H 0.47912 0.26317 0.75823 0.0
C432 C 0.46224 0.27423 0.68409 0.0
C433 C 0.43814 0.26854 0.65163 0.0
C434 C 0.40527 0.19572 0.81671 0.0
C435 C 0.43384 0.23758 0.75288 0.0
C436 C 0.40407 0.17627 0.85787 0.0
C437 C 0.42872 0.17957 0.88406 0.0
C438 C 0.4313 0.21854 0.80156 0.0
C439 C 0.45416 0.20336 0.8697 0.0
C440 C 0.46017 0.2589 0.73476 0.0
C441 C 0.41208 0.24804 0.67295 0.0
N442 N 0.4548 0.22179 0.82901 0.0
N443 N 0.41064 0.23306 0.72191 0.0
H444 H 0.19414 0.4799 0.61864 0.0
H445 H 0.22894 0.39018 0.84672 0.0
H446 H 0.14858 0.38948 0.62429 0.0
H447 H 0.26853 0.48042 0.85206 0.0
H448 H 0.19964 0.38946 0.76434 0.0
H449 H 0.22239 0.48041 0.70284 0.0
C450 C 0.19011 0.46014 0.6374 0.0
C451 C 0.16895 0.4346 0.61426 0.0
C452 C 0.21467 0.4094 0.78372 0.0
C453 C 0.20117 0.43509 0.71085 0.0
C454 C 0.23142 0.40984 0.83079 0.0
C455 C 0.2513 0.43542 0.85628 0.0
C456 C 0.21792 0.43469 0.76184 0.0
C457 C 0.25351 0.46021 0.83383 0.0
C458 C 0.2062 0.46047 0.68565 0.0
C459 C 0.16464 0.40967 0.64063 0.0
N460 N 0.23708 0.45922 0.7877 0.0
N461 N 0.18065 0.41055 0.68753 0.0
H462 H 0.78364 0.29733 0.83404 0.0
H463 H 0.7617 0.18543 0.5851 0.0
H464 H 0.84059 0.26661 0.80155 0.0
H465 H 0.70073 0.2107 0.62093 0.0
H466 H 0.79326 0.21968 0.6567 0.0
H467 H 0.75564 0.27058 0.74815 0.0
C468 C 0.79044 0.28525 0.80849 0.0
C469 C 0.81425 0.28385 0.82549 0.0
C470 C 0.77303 0.21786 0.64885 0.0
C471 C 0.78238 0.25328 0.7277 0.0
C472 C 0.75491 0.1982 0.60801 0.0
C473 C 0.72834 0.19491 0.59751 0.0
C474 C 0.76455 0.23432 0.67989 0.0
C475 C 0.72094 0.2124 0.62797 0.0
C476 C 0.77441 0.26994 0.75965 0.0
C477 C 0.82215 0.26796 0.79071 0.0
N478 N 0.73891 0.23124 0.66827 0.0
N479 N 0.80613 0.25316 0.74377 0.0
H480 H 0.35433 0.91864 0.27952 0.0
H481 H 0.34689 0.04389 0.14791 0.0
H482 H 0.30168 0.9461 0.36016 0.0
H483 H 0.36218 0.98839 0.04018 0.0
H484 H 0.32594 0.00709 0.22305 0.0
H485 H 0.35435 0.94247 0.18839 0.0
C486 C 0.34248 0.92947 0.27746 0.0
C487 C 0.32825 0.93083 0.32694 0.0
C488 C 0.33323 0.0028 0.18219 0.0
C489 C 0.32855 0.95853 0.22384 0.0
C490 C 0.34521 0.02377 0.13944 0.0
C491 C 0.35708 0.01941 0.08886 0.0
C492 C 0.33348 0.97767 0.17398 0.0
C493 C 0.3541 0.99291 0.07958 0.0
C494 C 0.3423 0.94289 0.22549 0.0
C495 C 0.31296 0.94481 0.32249 0.0
N496 N 0.3431 0.97322 0.12233 0.0
N497 N 0.31404 0.95881 0.272 0.0
H498 H 0.42601 0.34054 0.2703 0.0
H499 H 0.30004 0.35434 0.13829 0.0
H500 H 0.34624 0.30515 0.35606 0.0
H501 H 0.3795 0.38378 0.05346 0.0
H502 H 0.31251 0.32847 0.20952 0.0
H503 H 0.40536 0.34787 0.18106 0.0
C504 C 0.40393 0.33387 0.26965 0.0
C505 C 0.38776 0.32257 0.3202 0.0
C506 C 0.32698 0.34026 0.17468 0.0
C507 C 0.3641 0.33174 0.21935 0.0
C508 C 0.31989 0.35503 0.13418 0.0
C509 C 0.3391 0.37177 0.09101 0.0
C510 C 0.35333 0.34229 0.17146 0.0
C511 C 0.36439 0.37175 0.08708 0.0
C512 C 0.3921 0.33808 0.21885 0.0
C513 C 0.35926 0.31402 0.31756 0.0
N514 N 0.37085 0.3575 0.12715 0.0
N515 N 0.34836 0.31938 0.26815 0.0
H516 H 0.98857 0.36189 0.42406 0.0
H517 H 0.95132 0.30407 0.0943 0.0
H518 H 0.04626 0.35332 0.31076 0.0
H519 H 0.90625 0.33358 0.19846 0.0
H520 H 0.97894 0.30666 0.18307 0.0
H521 H 0.95115 0.33537 0.35271 0.0
C522 C 0.99324 0.35413 0.38425 0.0
C523 C 0.02059 0.36045 0.37215 0.0
C524 C 0.96248 0.31182 0.1867 0.0
C525 C 0.97804 0.33051 0.29001 0.0
C526 C 0.94675 0.31023 0.13639 0.0
C527 C 0.92693 0.31893 0.13977 0.0
C528 C 0.95796 0.32195 0.24008 0.0
C529 C 0.92165 0.32697 0.19453 0.0
C530 C 0.97189 0.33892 0.34368 0.0
C531 C 0.02545 0.34923 0.32098 0.0
N532 N 0.93729 0.32854 0.24253 0.0
N533 N 0.00443 0.33529 0.28081 0.0
H534 H 0.60486 0.91646 0.20012 0.0
H535 H 0.7012 0.06973 0.32935 0.0
H536 H 0.66562 0.98548 0.09708 0.0
H537 H 0.62349 0.00641 0.40395 0.0
H538 H 0.69906 0.03494 0.25861 0.0
H539 H 0.62363 0.94481 0.29014 0.0
C540 C 0.62286 0.9373 0.19706 0.0
C541 C 0.63383 0.94895 0.14198 0.0
C542 C 0.68278 0.02867 0.29119 0.0
C543 C 0.65459 0.98159 0.24321 0.0
C544 C 0.68392 0.04845 0.33127 0.0
C545 C 0.66209 0.041 0.37126 0.0
C546 C 0.65985 0.00134 0.29199 0.0
C547 C 0.64034 0.01316 0.37263 0.0
C548 C 0.63341 0.95351 0.24808 0.0
C549 C 0.65681 0.97602 0.13934 0.0
N550 N 0.63966 0.99438 0.33317 0.0
N551 N 0.6662 0.99176 0.18941 0.0
H552 H 0.68434 0.64297 0.13237 0.0
H553 H 0.59868 0.60715 0.43227 0.0
H554 H 0.62727 0.55976 0.19518 0.0
H555 H 0.63196 0.6871 0.34461 0.0
H556 H 0.62189 0.59312 0.36051 0.0
H557 H 0.67707 0.66229 0.22409 0.0
C558 C 0.67066 0.62881 0.16588 0.0
C559 C 0.65592 0.59982 0.15608 0.0
C560 C 0.62438 0.61386 0.35738 0.0
C561 C 0.64791 0.62156 0.26029 0.0
C562 C 0.61109 0.62188 0.3982 0.0
C563 C 0.61277 0.64804 0.39331 0.0
C564 C 0.63927 0.63201 0.31106 0.0
C565 C 0.62977 0.66654 0.3493 0.0
C566 C 0.66652 0.63982 0.21792 0.0
C567 C 0.63855 0.58229 0.20066 0.0
N568 N 0.64204 0.65797 0.30901 0.0
N569 N 0.63489 0.59346 0.25072 0.0
H570 H 0.92695 0.58269 0.28783 0.0
H571 H 0.06861 0.699 0.15214 0.0
H572 H 0.97658 0.66349 0.37029 0.0
H573 H 0.00943 0.62307 0.06115 0.0
H574 H 0.03309 0.69007 0.22632 0.0
H575 H 0.95396 0.60055 0.19777 0.0
C576 C 0.94338 0.60441 0.28626 0.0
C577 C 0.94993 0.62169 0.33597 0.0
C578 C 0.02782 0.67565 0.18955 0.0
C579 C 0.9815 0.64214 0.23429 0.0
C580 C 0.04808 0.68067 0.14737 0.0
C581 C 0.04215 0.66135 0.10136 0.0
C582 C 0.00163 0.65117 0.18537 0.0
C583 C 0.01517 0.63814 0.09678 0.0
C584 C 0.9588 0.61465 0.23501 0.0
C585 C 0.97114 0.64967 0.33236 0.0
N586 N 0.99604 0.63357 0.13863 0.0
N587 N 0.98671 0.65898 0.28249 0.0
H588 H 0.65036 0.0187 0.58252 0.0
H589 H 0.63835 0.00626 0.91935 0.0
H590 H 0.69178 0.09314 0.69053 0.0
H591 H 0.64248 0.94271 0.81588 0.0
H592 H 0.66062 0.0395 0.83869 0.0
H593 H 0.64951 0.99077 0.66758 0.0
C594 C 0.65962 0.0291 0.62424 0.0
C595 C 0.67082 0.05798 0.63044 0.0
C596 C 0.65728 0.01848 0.83425 0.0
C597 C 0.66953 0.02642 0.72755 0.0
C598 C 0.64439 -0.00052 0.87995 0.0
C599 C 0.63809 0.97164 0.87346 0.0
C600 C 0.66316 0.00928 0.78135 0.0
C601 C 0.64673 0.96395 0.82219 0.0
C602 C 0.65936 0.01328 0.67248 0.0
C603 C 0.68283 0.07078 0.68472 0.0
N604 N 0.65824 0.98254 0.77726 0.0
N605 N 0.68126 0.05475 0.732 0.0
H606 H 0.60658 0.60644 0.93189 0.0
H607 H 0.64121 0.69086 0.62861 0.0
H608 H 0.68472 0.63664 0.84077 0.0
H609 H 0.55901 0.64107 0.70192 0.0
H610 H 0.66146 0.68342 0.71986 0.0
H611 H 0.59353 0.63183 0.86231 0.0
C612 C 0.62109 0.61858 0.89737 0.0
C613 C 0.64643 0.61882 0.89098 0.0
C614 C 0.63905 0.67464 0.71624 0.0
C615 C 0.63152 0.64782 0.811 0.0
C616 C 0.62755 0.67895 0.66451 0.0
C617 C 0.59847 0.66607 0.6578 0.0
C618 C 0.62121 0.65768 0.7612 0.0
C619 C 0.58155 0.65087 0.7052 0.0
C620 C 0.61367 0.63316 0.85782 0.0
C621 C 0.66477 0.63556 0.84656 0.0
N622 N 0.59316 0.64689 0.75472 0.0
N623 N 0.65672 0.64904 0.80736 0.0
H624 H 0.00393 0.64193 0.55071 0.0
H625 H 0.03918 0.69495 0.88412 0.0
H626 H 0.9448 0.64683 0.66611 0.0
H627 H 0.08776 0.67157 0.77492 0.0
H628 H 0.01077 0.692 0.79655 0.0
H629 H 0.04091 0.66808 0.62319 0.0
C630 C -0.00115 0.64884 0.59123 0.0
C631 C 0.97126 0.64164 0.60343 0.0
C632 C 0.02813 0.68829 0.79154 0.0
C633 C 0.01331 0.67111 0.68699 0.0
C634 C 0.04434 0.6901 0.84121 0.0
C635 C 0.0655 0.68331 0.83599 0.0
C636 C 0.03346 0.67974 0.73695 0.0
C637 C 0.07142 0.6768 0.78022 0.0
C638 C 0.01995 0.66382 0.6325 0.0
C639 C 0.96583 0.65169 0.65568 0.0
N640 N 0.05529 0.67493 0.73286 0.0
N641 N 0.98664 0.66544 0.69644 0.0
H642 H 0.37395 0.99343 0.54808 0.0
H643 H 0.3283 0.02227 0.85888 0.0
H644 H 0.30058 0.93287 0.64107 0.0
H645 H 0.40599 0.07663 0.77221 0.0
H646 H 0.31024 0.99551 0.76621 0.0
H647 H 0.37812 0.02962 0.61573 0.0
C648 C 0.35862 0.98779 0.58267 0.0
C649 C 0.33739 0.96001 0.59024 0.0
C650 C 0.33093 0.0138 0.76701 0.0
C651 C 0.34216 0.00127 0.66813 0.0
C652 C 0.34108 0.02909 0.81959 0.0
C653 C 0.36864 0.05124 0.82255 0.0
C654 C 0.34865 0.02094 0.71793 0.0
C655 C 0.38468 0.05937 0.77125 0.0
C656 C 0.36089 0.0085 0.62105 0.0
C657 C 0.31758 0.954 0.63452 0.0
N658 N 0.37458 0.04396 0.72113 0.0
N659 N 0.32078 0.97441 0.67276 0.0
H660 H 0.30457 0.34579 0.8432 0.0
H661 H 0.39746 0.38765 0.55249 0.0
H662 H 0.36004 0.43012 0.78437 0.0
H663 H 0.3598 0.30516 0.63 0.0
H664 H 0.37302 0.40056 0.62334 0.0
H665 H 0.31427 0.32802 0.75178 0.0
C666 C 0.31834 0.36047 0.81051 0.0
C667 C 0.33202 0.38934 0.82137 0.0
C668 C 0.36991 0.37955 0.62462 0.0
C669 C 0.34291 0.36948 0.71781 0.0
C670 C 0.38395 0.37219 0.58432 0.0
C671 C 0.3812 0.34552 0.58636 0.0
C672 C 0.35322 0.36023 0.66776 0.0
C673 C 0.36283 0.32611 0.62755 0.0
C674 C 0.32392 0.35039 0.7587 0.0
C675 C 0.34958 0.40765 0.77798 0.0
N676 N 0.34981 0.33401 0.66742 0.0
N677 N 0.35467 0.3974 0.72829 0.0
H678 H 0.92523 0.30299 0.8229 0.0
H679 H 0.06437 0.42093 0.68463 0.0
H680 H 0.98385 0.37899 0.91445 0.0
H681 H 0.01847 0.33856 0.60696 0.0
H682 H 0.03777 0.40311 0.7751 0.0
H683 H 0.96094 0.31231 0.74892 0.0
C684 C 0.94568 0.3214 0.82785 0.0
C685 C 0.95138 0.34067 0.87386 0.0
C686 C 0.03368 0.38868 0.73885 0.0
C687 C 0.9921 0.35129 0.79012 0.0
C688 C 0.04883 0.39891 0.6873 0.0
C689 C 0.04316 0.38114 0.63873 0.0
C690 C 0.01212 0.36066 0.74104 0.0
C691 C 0.02316 0.35278 0.64391 0.0
C692 C 0.96606 0.32664 0.78581 0.0
C693 C 0.97828 0.36398 0.87875 0.0
N694 N 0.00779 0.34343 0.69401 0.0
N695 N -0.0025 0.36879 0.83697 0.0
H696 H 0.46752 0.0496 0.13662 0.0
H697 H 0.6083 0.14517 0.31947 0.0
H698 H 0.53002 0.13402 0.09106 0.0
H699 H 0.55611 0.05707 0.35669 0.0
H700 H 0.57826 0.14036 0.23621 0.0
H701 H 0.49847 0.05044 0.2171 0.0
C702 C 0.48775 0.06814 0.14314 0.0
C703 C 0.49602 0.0919 0.10756 0.0
C704 C 0.57327 0.12196 0.2623 0.0
C705 C 0.53119 0.09302 0.19898 0.0
C706 C 0.59043 0.12474 0.31027 0.0
C707 C 0.58469 0.10152 0.34547 0.0
C708 C 0.54993 0.09579 0.24915 0.0
C709 C 0.56129 0.07554 0.33072 0.0
C710 C 0.50533 0.06863 0.18903 0.0
C711 C 0.52246 0.11535 0.11783 0.0
N712 N 0.54461 0.07337 0.28369 0.0
N713 N 0.53892 0.11532 0.16262 0.0
H714 H 0.36763 0.53053 0.13653 0.0
H715 H 0.49847 0.57172 0.3523 0.0
H716 H 0.41734 0.48993 0.1319 0.0
H717 H 0.45098 0.61469 0.34794 0.0
H718 H 0.46831 0.54058 0.27368 0.0
H719 H 0.39713 0.56032 0.21685 0.0
C720 C 0.3847 0.52779 0.15244 0.0
C721 C 0.39004 0.50771 0.12714 0.0
C722 C 0.46453 0.55684 0.28999 0.0
C723 C 0.42401 0.54193 0.21929 0.0
C724 C 0.48175 0.57465 0.33487 0.0
C725 C 0.47729 0.5959 0.35686 0.0
C726 C 0.44269 0.56027 0.26703 0.0
C727 C 0.45528 0.59866 0.33247 0.0
C728 C 0.40159 0.54488 0.19834 0.0
C729 C 0.41246 0.50516 0.14989 0.0
N730 N 0.43881 0.58104 0.28895 0.0
N731 N 0.42866 0.52213 0.19463 0.0
H732 H 0.92743 0.50144 0.37502 0.0
H733 H 0.82876 0.38372 0.14071 0.0
H734 H 0.83869 0.47047 0.35939 0.0
H735 H 0.9173 0.41495 0.163 0.0
H736 H 0.83092 0.41331 0.22382 0.0
H737 H 0.92314 0.46798 0.29986 0.0
C738 C 0.907 0.48757 0.35591 0.0
C739 C 0.88341 0.4889 0.37346 0.0
C740 C 0.8498 0.41352 0.21054 0.0
C741 C 0.87834 0.45041 0.28699 0.0
C742 C 0.84857 0.39661 0.16321 0.0
C743 C 0.87292 0.39704 0.14442 0.0
C744 C 0.87553 0.43087 0.2391 0.0
C745 C 0.89801 0.41411 0.17534 0.0
C746 C 0.90455 0.46839 0.31295 0.0
C747 C 0.85747 0.47024 0.34717 0.0
N748 N 0.89866 0.43038 0.22085 0.0
N749 N 0.85564 0.45183 0.30501 0.0
H750 H 0.38828 0.83454 0.3502 0.0
H751 H 0.52225 0.93165 0.15459 0.0
H752 H 0.43563 0.92485 0.35955 0.0
H753 H 0.47434 0.84179 0.13367 0.0
H754 H 0.49175 0.92853 0.23434 0.0
H755 H 0.42043 0.83581 0.27458 0.0
C756 C 0.40538 0.85458 0.33652 0.0
C757 C 0.40915 0.87962 0.36121 0.0
C758 C 0.48787 0.90944 0.21249 0.0
C759 C 0.44592 0.88117 0.27515 0.0
C760 C 0.50534 0.9112 0.1668 0.0
C761 C 0.50077 0.88696 0.13695 0.0
C762 C 0.46553 0.88325 0.22864 0.0
C763 C 0.4786 0.86105 0.15529 0.0
C764 C 0.42371 0.85528 0.29341 0.0
C765 C 0.43172 0.90498 0.34179 0.0
N766 N 0.46168 0.85988 0.19985 0.0
N767 N 0.44915 0.90506 0.30002 0.0
H768 H 0.63446 0.4597 0.14289 0.0
H769 H 0.48317 0.38006 0.28811 0.0
H770 H 0.56332 0.46719 0.08766 0.0
H771 H 0.55318 0.37566 0.3626 0.0
H772 H 0.51158 0.40605 0.20461 0.0
H773 H 0.60472 0.42397 0.21513 0.0
C774 C 0.61261 0.4537 0.14562 0.0
C775 C 0.60143 0.46671 0.10978 0.0
C776 C 0.52087 0.39936 0.23883 0.0
C777 C 0.56749 0.42593 0.19139 0.0
C778 C 0.50461 0.38449 0.28655 0.0
C779 C 0.51606 0.37618 0.33261 0.0
C780 C 0.54905 0.40647 0.23735 0.0
C781 C 0.54373 0.38192 0.32792 0.0
C782 C 0.5957 0.43336 0.18677 0.0
C783 C 0.57301 0.45811 0.11494 0.0
N784 N 0.55955 0.39719 0.28138 0.0
N785 N 0.55714 0.4384 0.15501 0.0
H786 H 0.14257 0.51297 0.31157 0.0
H787 H 0.06001 0.5689 0.11256 0.0
H788 H 0.05443 0.4831 0.33154 0.0
H789 H 0.14793 0.5964 0.0981 0.0
H790 H 0.05611 0.53515 0.18827 0.0
H791 H 0.14343 0.54132 0.2284 0.0
C792 C 0.12332 0.51233 0.29843 0.0
C793 C 0.09844 0.49582 0.32908 0.0
C794 C 0.07618 0.54852 0.16818 0.0
C795 C 0.09931 0.52851 0.23338 0.0
C796 C 0.07843 0.56777 0.12498 0.0
C797 C 0.10439 0.58571 0.09921 0.0
C798 C 0.10004 0.54724 0.18545 0.0
C799 C 0.12752 0.58326 0.11697 0.0
C800 C 0.12383 0.52854 0.2507 0.0
C801 C 0.0741 0.4956 0.30931 0.0
N802 N 0.12479 0.56451 0.15901 0.0
N803 N 0.07519 0.51192 0.26288 0.0
H804 H 0.52761 0.94708 0.84212 0.0
H805 H 0.38604 0.85311 0.66001 0.0
H806 H 0.46614 0.86162 0.88275 0.0
H807 H 0.44005 0.9407 0.62114 0.0
H808 H 0.41562 0.85748 0.74387 0.0
H809 H 0.49624 0.94702 0.76355 0.0
C810 C 0.50751 0.92846 0.83493 0.0
C811 C 0.49966 0.9042 0.86856 0.0
C812 C 0.42113 0.87588 0.71733 0.0
C813 C 0.46394 0.90401 0.77933 0.0
C814 C 0.40422 0.87334 0.66905 0.0
C815 C 0.4107 0.89651 0.63302 0.0
C816 C 0.445 0.90174 0.72991 0.0
C817 C 0.43435 0.92228 0.64773 0.0
C818 C 0.48968 0.92843 0.79012 0.0
C819 C 0.47337 0.88068 0.85747 0.0
N820 N 0.45086 0.92419 0.69493 0.0
N821 N 0.45664 0.88118 0.81381 0.0
H822 H 0.57377 0.50442 0.83769 0.0
H823 H 0.54349 0.37939 0.61568 0.0
H824 H 0.62173 0.46198 0.83431 0.0
H825 H 0.49713 0.4235 0.6109 0.0
H826 H 0.57287 0.4104 0.6946 0.0
H827 H 0.54604 0.47592 0.7535 0.0
C828 C 0.57855 0.48919 0.81925 0.0
C829 C 0.60008 0.48554 0.84346 0.0
C830 C 0.55634 0.41339 0.67623 0.0
C831 C 0.56836 0.45285 0.74708 0.0
C832 C 0.53948 0.39564 0.63108 0.0
C833 C 0.51767 0.39873 0.60661 0.0
C834 C 0.55139 0.43441 0.69749 0.0
C835 C 0.51366 0.4203 0.62841 0.0
C836 C 0.56269 0.47294 0.77113 0.0
C837 C 0.60531 0.46552 0.81745 0.0
N838 N 0.5303 0.43726 0.67282 0.0
N839 N 0.58951 0.4499 0.77088 0.0
H840 H 0.06709 0.50215 0.59549 0.0
H841 H 0.16418 0.61761 0.83514 0.0
H842 H 0.15504 0.53045 0.61814 0.0
H843 H 0.07607 0.58755 0.80885 0.0
H844 H 0.16249 0.5883 0.75195 0.0
H845 H 0.07118 0.53567 0.67022 0.0
C846 C 0.08732 0.51545 0.61607 0.0
C847 C 0.11073 0.51333 0.60064 0.0
C848 C 0.1436 0.58829 0.76435 0.0
C849 C 0.11555 0.55189 0.68669 0.0
C850 C 0.14456 0.60504 0.81173 0.0
C851 C 0.12018 0.60485 0.82944 0.0
C852 C 0.11811 0.57134 0.7346 0.0
C853 C 0.09535 0.58819 0.79736 0.0
C854 C 0.08965 0.53466 0.65879 0.0
C855 C 0.13641 0.5313 0.62873 0.0
N856 N 0.09496 0.57206 0.75179 0.0
N857 N 0.13811 0.54976 0.67066 0.0
H858 H 0.56906 0.06846 0.63472 0.0
H859 H 0.522 0.15639 0.83671 0.0
H860 H 0.60569 0.15816 0.62039 0.0
H861 H 0.48233 0.06614 0.83425 0.0
H862 H 0.55372 0.15835 0.75925 0.0
H863 H 0.53832 0.06814 0.71104 0.0
C864 C 0.57073 0.08814 0.64766 0.0
C865 C 0.58999 0.11337 0.62085 0.0
C866 C 0.53799 0.13818 0.77576 0.0
C867 C 0.5546 0.11312 0.70853 0.0
C868 C 0.51987 0.13704 0.81985 0.0
C869 C 0.49952 0.11108 0.84227 0.0
C870 C 0.53569 0.1132 0.75425 0.0
C871 C 0.49772 0.08667 0.81873 0.0
C872 C 0.55306 0.08793 0.69128 0.0
C873 C 0.59112 0.1382 0.63974 0.0
N874 N 0.51558 0.08837 0.77625 0.0
N875 N 0.57362 0.13746 0.68246 0.0
H876 H 0.45934 0.63787 0.65684 0.0
H877 H 0.4061 0.49446 0.82758 0.0
H878 H 0.46579 0.5675 0.59322 0.0
H879 H 0.3694 0.54612 0.86321 0.0
H880 H 0.43162 0.52485 0.74646 0.0
H881 H 0.42823 0.60774 0.73596 0.0
C882 C 0.45398 0.61612 0.65908 0.0
C883 C 0.46561 0.6053 0.61929 0.0
C884 C 0.41794 0.52962 0.7717 0.0
C885 C 0.4306 0.57122 0.70873 0.0
C886 C 0.40348 0.51233 0.81851 0.0
C887 C 0.38564 0.51779 0.85245 0.0
C888 C 0.41489 0.55285 0.75852 0.0
C889 C 0.38294 0.54118 0.83796 0.0
C890 C 0.43634 0.59904 0.70407 0.0
C891 C 0.45792 0.57699 0.62375 0.0
N892 N 0.39761 0.55808 0.79206 0.0
N893 N 0.44117 0.56111 0.66785 0.0
H894 H 0.94059 0.51993 0.64185 0.0
H895 H 0.84429 0.40536 0.8794 0.0
H896 H 0.85232 0.48884 0.66376 0.0
H897 H 0.93161 0.43154 0.8584 0.0
H898 H 0.84861 0.43904 0.80507 0.0
H899 H 0.93943 0.49094 0.72571 0.0
C900 C 0.92105 0.50721 0.66447 0.0
C901 C 0.89645 0.5066 0.64533 0.0
C902 C 0.86691 0.43755 0.81665 0.0
C903 C 0.89503 0.47354 0.74088 0.0
C904 C 0.86445 0.41821 0.85918 0.0
C905 C 0.88758 0.41539 0.87492 0.0
C906 C 0.89266 0.45424 0.78908 0.0
C907 C 0.91321 0.43293 0.84747 0.0
C908 C 0.92041 0.49065 0.71218 0.0
C909 C 0.87175 0.48977 0.67633 0.0
N910 N 0.91503 0.45154 0.8055 0.0
N911 N 0.87169 0.47389 0.72227 0.0
loop_
_geom_bond_atom_site_label_1
_geom_bond_atom_site_label_2
_geom_bond_distance
_geom_bond_site_symmetry_2
_ccdc_geom_bond_type
Sc0 O3 2.025 . S
Sc0 O10 2.105 1_554 S
Sc0 O13 2.105 . S
Sc0 O16 2.105 . S
Sc0 O19 2.105 1_554 S
Sc1 O3 2.025 . S
Sc1 O11 2.105 1_554 S
Sc1 O15 2.105 . S
Sc1 O17 2.105 . S
Sc1 O21 2.105 1_554 S
Sc2 O3 2.025 . S
Sc2 O12 2.105 1_554 S
Sc2 O14 2.105 . S
Sc2 O18 2.105 . S
Sc2 O20 2.105 1_554 S
O3 Sc0 2.025 . S
O3 Sc1 2.025 . S
O3 Sc2 2.025 . S
C4 O10 1.268 . S
C4 O20 1.268 . S
C5 O11 1.268 . S
C5 O19 1.268 . S
C6 O12 1.268 . S
C6 O21 1.268 . S
C7 O13 1.268 . S
C7 O17 1.268 . S
C8 O14 1.268 . S
C8 O16 1.268 . S
C9 O15 1.268 . S
C9 O18 1.268 . S
O10 Sc0 2.105 1_556 S
O10 C4 1.268 . S
O11 Sc1 2.105 1_556 S
O11 C5 1.268 . S
O12 Sc2 2.105 1_556 S
O12 C6 1.268 . S
O13 Sc0 2.105 . S
O13 C7 1.268 . S
O14 Sc2 2.105 . S
O14 C8 1.268 . S
O15 Sc1 2.105 . S
O15 C9 1.268 . S
O16 Sc0 2.105 . S
O16 C8 1.268 . S
O17 Sc1 2.105 . S
O17 C7 1.268 . S
O18 Sc2 2.105 . S
O18 C9 1.268 . S
O19 Sc0 2.105 1_556 S
O19 C5 1.268 . S
O20 Sc2 2.105 1_556 S
O20 C4 1.268 . S
O21 Sc1 2.105 1_556 S
O21 C6 1.268 . S
Sc22 O25 2.025 . S
Sc22 O32 2.105 1_554 S
Sc22 O35 2.105 . S
Sc22 O38 2.105 . S
Sc22 O41 2.105 1_554 S
Sc23 O25 2.025 . S
Sc23 O33 2.105 1_554 S
Sc23 O37 2.105 . S
Sc23 O39 2.105 . S
Sc23 O43 2.105 1_554 S
Sc24 O25 2.025 . S
Sc24 O34 2.105 1_554 S
Sc24 O36 2.105 . S
Sc24 O40 2.105 . S
Sc24 O42 2.105 1_554 S
O25 Sc22 2.025 . S
O25 Sc23 2.025 . S
O25 Sc24 2.025 . S
C26 O32 1.268 . S
C26 O42 1.268 . S
C27 O33 1.268 . S
C27 O41 1.268 . S
C28 O34 1.268 . S
C28 O43 1.268 . S
C29 O35 1.268 . S
C29 O39 1.268 . S
C30 O36 1.268 . S
C30 O38 1.268 . S
C31 O37 1.268 . S
C31 O40 1.268 . S
O32 Sc22 2.105 1_556 S
O32 C26 1.268 . S
O33 Sc23 2.105 1_556 S
O33 C27 1.268 . S
O34 Sc24 2.105 1_556 S
O34 C28 1.268 . S
O35 Sc22 2.105 . S
O35 C29 1.268 . S
O36 Sc24 2.105 . S
O36 C30 1.268 . S
O37 Sc23 2.105 . S
O37 C31 1.268 . S
O38 Sc22 2.105 . S
O38 C30 1.268 . S
O39 Sc23 2.105 . S
O39 C29 1.268 . S
O40 Sc24 2.105 . S
O40 C31 1.268 . S
O41 Sc22 2.105 1_556 S
O41 C27 1.268 . S
O42 Sc24 2.105 1_556 S
O42 C26 1.268 . S
O43 Sc23 2.105 1_556 S
O43 C28 1.268 . S
Sc44 O47 2.025 . S
Sc44 O54 2.105 1_554 S
Sc44 O57 2.105 . S
Sc44 O60 2.105 . S
Sc44 O63 2.105 1_554 S
Sc45 O47 2.025 . S
Sc45 O55 2.105 1_554 S
Sc45 O59 2.105 . S
Sc45 O61 2.105 . S
Sc45 O65 2.105 1_554 S
Sc46 O47 2.025 . S
Sc46 O56 2.105 1_554 S
Sc46 O58 2.105 . S
Sc46 O62 2.105 . S
Sc46 O64 2.105 1_554 S
O47 Sc44 2.025 . S
O47 Sc45 2.025 . S
O47 Sc46 2.025 . S
C48 O54 1.268 . S
C48 O64 1.268 . S
C49 O55 1.268 . S
C49 O63 1.268 . S
C50 O56 1.268 . S
C50 O65 1.268 . S
C51 O57 1.268 . S
C51 O61 1.268 . S
C52 O58 1.268 . S
C52 O60 1.268 . S
C53 O59 1.268 . S
C53 O62 1.268 . S
O54 Sc44 2.105 1_556 S
O54 C48 1.268 . S
O55 Sc45 2.105 1_556 S
O55 C49 1.268 . S
O56 Sc46 2.105 1_556 S
O56 C50 1.268 . S
O57 Sc44 2.105 . S
O57 C51 1.268 . S
O58 Sc46 2.105 . S
O58 C52 1.268 . S
O59 Sc45 2.105 . S
O59 C53 1.268 . S
O60 Sc44 2.105 . S
O60 C52 1.268 . S
O61 Sc45 2.105 . S
O61 C51 1.268 . S
O62 Sc46 2.105 . S
O62 C53 1.268 . S
O63 Sc44 2.105 1_556 S
O63 C49 1.268 . S
O64 Sc46 2.105 1_556 S
O64 C48 1.268 . S
O65 Sc45 2.105 1_556 S
O65 C50 1.268 . S
Sc66 O69 2.025 . S
Sc66 O76 2.105 1_554 S
Sc66 O79 2.105 . S
Sc66 O82 2.105 . S
Sc66 O85 2.105 1_554 S
Sc67 O69 2.025 . S
Sc67 O77 2.105 1_554 S
Sc67 O81 2.105 . S
Sc67 O83 2.105 . S
Sc67 O87 2.105 1_554 S
Sc68 O69 2.025 . S
Sc68 O78 2.105 1_554 S
Sc68 O80 2.105 . S
Sc68 O84 2.105 . S
Sc68 O86 2.105 1_554 S
O69 Sc66 2.025 . S
O69 Sc67 2.025 . S
O69 Sc68 2.025 . S
C70 O76 1.268 . S
C70 O86 1.268 . S
C71 O77 1.268 . S
C71 O85 1.268 . S
C72 O78 1.268 . S
C72 O87 1.268 . S
C73 O79 1.268 . S
C73 O83 1.268 . S
C74 O80 1.268 . S
C74 O82 1.268 . S
C75 O81 1.268 . S
C75 O84 1.268 . S
O76 Sc66 2.105 1_556 S
O76 C70 1.268 . S
O77 Sc67 2.105 1_556 S
O77 C71 1.268 . S
O78 Sc68 2.105 1_556 S
O78 C72 1.268 . S
O79 Sc66 2.105 . S
O79 C73 1.268 . S
O80 Sc68 2.105 . S
O80 C74 1.268 . S
O81 Sc67 2.105 . S
O81 C75 1.268 . S
O82 Sc66 2.105 . S
O82 C74 1.268 . S
O83 Sc67 2.105 . S
O83 C73 1.268 . S
O84 Sc68 2.105 . S
O84 C75 1.268 . S
O85 Sc66 2.105 1_556 S
O85 C71 1.268 . S
O86 Sc68 2.105 1_556 S
O86 C70 1.268 . S
O87 Sc67 2.105 1_556 S
O87 C72 1.268 . S
Sc88 O91 2.025 . S
Sc88 O98 2.105 1_554 S
Sc88 O101 2.105 . S
Sc88 O104 2.105 . S
Sc88 O107 2.105 1_554 S
Sc89 O91 2.025 . S
Sc89 O99 2.105 1_554 S
Sc89 O103 2.105 . S
Sc89 O105 2.105 . S
Sc89 O109 2.105 1_554 S
Sc90 O91 2.025 . S
Sc90 O100 2.105 1_554 S
Sc90 O102 2.105 . S
Sc90 O106 2.105 . S
Sc90 O108 2.105 1_554 S
O91 Sc88 2.025 . S
O91 Sc89 2.025 . S
O91 Sc90 2.025 . S
C92 O98 1.268 . S
C92 O108 1.268 . S
C93 O99 1.268 . S
C93 O107 1.268 . S
C94 O100 1.268 . S
C94 O109 1.268 . S
C95 O101 1.268 . S
C95 O105 1.268 . S
C96 O102 1.268 . S
C96 O104 1.268 . S
C97 O103 1.268 . S
C97 O106 1.268 . S
O98 Sc88 2.105 1_556 S
O98 C92 1.268 . S
O99 Sc89 2.105 1_556 S
O99 C93 1.268 . S
O100 Sc90 2.105 1_556 S
O100 C94 1.268 . S
O101 Sc88 2.105 . S
O101 C95 1.268 . S
O102 Sc90 2.105 . S
O102 C96 1.268 . S
O103 Sc89 2.105 . S
O103 C97 1.268 . S
O104 Sc88 2.105 . S
O104 C96 1.268 . S
O105 Sc89 2.105 . S
O105 C95 1.268 . S
O106 Sc90 2.105 . S
O106 C97 1.268 . S
O107 Sc88 2.105 1_556 S
O107 C93 1.268 . S
O108 Sc90 2.105 1_556 S
O108 C92 1.268 . S
O109 Sc89 2.105 1_556 S
O109 C94 1.268 . S
Sc110 O113 2.025 . S
Sc110 O120 2.105 1_554 S
Sc110 O123 2.105 . S
Sc110 O126 2.105 . S
Sc110 O129 2.105 1_554 S
Sc111 O113 2.025 . S
Sc111 O121 2.105 1_554 S
Sc111 O125 2.105 . S
Sc111 O127 2.105 . S
Sc111 O131 2.105 1_554 S
Sc112 O113 2.025 . S
Sc112 O122 2.105 1_554 S
Sc112 O124 2.105 . S
Sc112 O128 2.105 . S
Sc112 O130 2.105 1_554 S
O113 Sc110 2.025 . S
O113 Sc111 2.025 . S
O113 Sc112 2.025 . S
C114 O120 1.268 . S
C114 O130 1.268 . S
C115 O121 1.268 . S
C115 O129 1.268 . S
C116 O122 1.268 . S
C116 O131 1.268 . S
C117 O123 1.268 . S
C117 O127 1.268 . S
C118 O124 1.268 . S
C118 O126 1.268 . S
C119 O125 1.268 . S
C119 O128 1.268 . S
O120 Sc110 2.105 1_556 S
O120 C114 1.268 . S
O121 Sc111 2.105 1_556 S
O121 C115 1.268 . S
O122 Sc112 2.105 1_556 S
O122 C116 1.268 . S
O123 Sc110 2.105 . S
O123 C117 1.268 . S
O124 Sc112 2.105 . S
O124 C118 1.268 . S
O125 Sc111 2.105 . S
O125 C119 1.268 . S
O126 Sc110 2.105 . S
O126 C118 1.268 . S
O127 Sc111 2.105 . S
O127 C117 1.268 . S
O128 Sc112 2.105 . S
O128 C119 1.268 . S
O129 Sc110 2.105 1_556 S
O129 C115 1.268 . S
O130 Sc112 2.105 1_556 S
O130 C114 1.268 . S
O131 Sc111 2.105 1_556 S
O131 C116 1.268 . S
Sc132 O135 2.025 . S
Sc132 O142 2.105 . S
Sc132 O145 2.105 . S
Sc132 O148 2.105 . S
Sc132 O151 2.105 . S
Sc133 O135 2.025 . S
Sc133 O143 2.105 . S
Sc133 O147 2.105 . S
Sc133 O149 2.105 . S
Sc133 O153 2.105 . S
Sc134 O135 2.025 . S
Sc134 O144 2.105 . S
Sc134 O146 2.105 . S
Sc134 O150 2.105 . S
Sc134 O152 2.105 . S
O135 Sc132 2.025 . S
O135 Sc133 2.025 . S
O135 Sc134 2.025 . S
C136 O142 1.268 . S
C136 O152 1.268 . S
C137 O143 1.268 . S
C137 O151 1.268 . S
C138 O144 1.268 . S
C138 O153 1.268 . S
C139 O145 1.268 . S
C139 O149 1.268 . S
C140 O146 1.268 . S
C140 O148 1.268 . S
C141 O147 1.268 . S
C141 O150 1.268 . S
O142 Sc132 2.105 . S
O142 C136 1.268 . S
O143 Sc133 2.105 . S
O143 C137 1.268 . S
O144 Sc134 2.105 . S
O144 C138 1.268 . S
O145 Sc132 2.105 . S
O145 C139 1.268 . S
O146 Sc134 2.105 . S
O146 C140 1.268 . S
O147 Sc133 2.105 . S
O147 C141 1.268 . S
O148 Sc132 2.105 . S
O148 C140 1.268 . S
O149 Sc133 2.105 . S
O149 C139 1.268 . S
O150 Sc134 2.105 . S
O150 C141 1.268 . S
O151 Sc132 2.105 . S
O151 C137 1.268 . S
O152 Sc134 2.105 . S
O152 C136 1.268 . S
O153 Sc133 2.105 . S
O153 C138 1.268 . S
Sc154 O157 2.025 . S
Sc154 O164 2.105 . S
Sc154 O167 2.105 . S
Sc154 O170 2.105 . S
Sc154 O173 2.105 . S
Sc155 O157 2.025 . S
Sc155 O165 2.105 . S
Sc155 O169 2.105 . S
Sc155 O171 2.105 . S
Sc155 O175 2.105 . S
Sc156 O157 2.025 . S
Sc156 O166 2.105 . S
Sc156 O168 2.105 . S
Sc156 O172 2.105 . S
Sc156 O174 2.105 . S
O157 Sc154 2.025 . S
O157 Sc155 2.025 . S
O157 Sc156 2.025 . S
C158 O164 1.268 . S
C158 O174 1.268 . S
C159 O165 1.268 . S
C159 O173 1.268 . S
C160 O166 1.268 . S
C160 O175 1.268 . S
C161 O167 1.268 . S
C161 O171 1.268 . S
C162 O168 1.268 . S
C162 O170 1.268 . S
C163 O169 1.268 . S
C163 O172 1.268 . S
O164 Sc154 2.105 . S
O164 C158 1.268 . S
O165 Sc155 2.105 . S
O165 C159 1.268 . S
O166 Sc156 2.105 . S
O166 C160 1.268 . S
O167 Sc154 2.105 . S
O167 C161 1.268 . S
O168 Sc156 2.105 . S
O168 C162 1.268 . S
O169 Sc155 2.105 . S
O169 C163 1.268 . S
O170 Sc154 2.105 . S
O170 C162 1.268 . S
O171 Sc155 2.105 . S
O171 C161 1.268 . S
O172 Sc156 2.105 . S
O172 C163 1.268 . S
O173 Sc154 2.105 . S
O173 C159 1.268 . S
O174 Sc156 2.105 . S
O174 C158 1.268 . S
O175 Sc155 2.105 . S
O175 C160 1.268 . S
Sc176 O179 2.025 . S
Sc176 O186 2.105 . S
Sc176 O189 2.105 . S
Sc176 O192 2.105 . S
Sc176 O195 2.105 . S
Sc177 O179 2.025 . S
Sc177 O187 2.105 . S
Sc177 O191 2.105 . S
Sc177 O193 2.105 . S
Sc177 O197 2.105 . S
Sc178 O179 2.025 . S
Sc178 O188 2.105 . S
Sc178 O190 2.105 . S
Sc178 O194 2.105 . S
Sc178 O196 2.105 . S
O179 Sc176 2.025 . S
O179 Sc177 2.025 . S
O179 Sc178 2.025 . S
C180 O186 1.268 . S
C180 O196 1.268 . S
C181 O187 1.268 . S
C181 O195 1.268 . S
C182 O188 1.268 . S
C182 O197 1.268 . S
C183 O189 1.268 . S
C183 O193 1.268 . S
C184 O190 1.268 . S
C184 O192 1.268 . S
C185 O191 1.268 . S
C185 O194 1.268 . S
O186 Sc176 2.105 . S
O186 C180 1.268 . S
O187 Sc177 2.105 . S
O187 C181 1.268 . S
O188 Sc178 2.105 . S
O188 C182 1.268 . S
O189 Sc176 2.105 . S
O189 C183 1.268 . S
O190 Sc178 2.105 . S
O190 C184 1.268 . S
O191 Sc177 2.105 . S
O191 C185 1.268 . S
O192 Sc176 2.105 . S
O192 C184 1.268 . S
O193 Sc177 2.105 . S
O193 C183 1.268 . S
O194 Sc178 2.105 . S
O194 C185 1.268 . S
O195 Sc176 2.105 . S
O195 C181 1.268 . S
O196 Sc178 2.105 . S
O196 C180 1.268 . S
O197 Sc177 2.105 . S
O197 C182 1.268 . S
Sc198 O201 2.025 . S
Sc198 O208 2.105 . S
Sc198 O211 2.105 . S
Sc198 O214 2.105 . S
Sc198 O217 2.105 . S
Sc199 O201 2.025 . S
Sc199 O209 2.105 . S
Sc199 O213 2.105 . S
Sc199 O215 2.105 . S
Sc199 O219 2.105 . S
Sc200 O201 2.025 . S
Sc200 O210 2.105 . S
Sc200 O212 2.105 . S
Sc200 O216 2.105 . S
Sc200 O218 2.105 . S
O201 Sc198 2.025 . S
O201 Sc199 2.025 . S
O201 Sc200 2.025 . S
C202 O208 1.268 . S
C202 O218 1.268 . S
C203 O209 1.268 . S
C203 O217 1.268 . S
C204 O210 1.268 . S
C204 O219 1.268 . S
C205 O211 1.268 . S
C205 O215 1.268 . S
C206 O212 1.268 . S
C206 O214 1.268 . S
C207 O213 1.268 . S
C207 O216 1.268 . S
O208 Sc198 2.105 . S
O208 C202 1.268 . S
O209 Sc199 2.105 . S
O209 C203 1.268 . S
O210 Sc200 2.105 . S
O210 C204 1.268 . S
O211 Sc198 2.105 . S
O211 C205 1.268 . S
O212 Sc200 2.105 . S
O212 C206 1.268 . S
O213 Sc199 2.105 . S
O213 C207 1.268 . S
O214 Sc198 2.105 . S
O214 C206 1.268 . S
O215 Sc199 2.105 . S
O215 C205 1.268 . S
O216 Sc200 2.105 . S
O216 C207 1.268 . S
O217 Sc198 2.105 . S
O217 C203 1.268 . S
O218 Sc200 2.105 . S
O218 C202 1.268 . S
O219 Sc199 2.105 . S
O219 C204 1.268 . S
Sc220 O223 2.025 . S
Sc220 O230 2.105 . S
Sc220 O233 2.105 . S
Sc220 O236 2.105 . S
Sc220 O239 2.105 . S
Sc221 O223 2.025 . S
Sc221 O231 2.105 . S
Sc221 O235 2.105 . S
Sc221 O237 2.105 . S
Sc221 O241 2.105 . S
Sc222 O223 2.025 . S
Sc222 O232 2.105 . S
Sc222 O234 2.105 . S
Sc222 O238 2.105 . S
Sc222 O240 2.105 . S
O223 Sc220 2.025 . S
O223 Sc221 2.025 . S
O223 Sc222 2.025 . S
C224 O230 1.268 . S
C224 O240 1.268 . S
C225 O231 1.268 . S
C225 O239 1.268 . S
C226 O232 1.268 . S
C226 O241 1.268 . S
C227 O233 1.268 . S
C227 O237 1.268 . S
C228 O234 1.268 . S
C228 O236 1.268 . S
C229 O235 1.268 . S
C229 O238 1.268 . S
O230 Sc220 2.105 . S
O230 C224 1.268 . S
O231 Sc221 2.105 . S
O231 C225 1.268 . S
O232 Sc222 2.105 . S
O232 C226 1.268 . S
O233 Sc220 2.105 . S
O233 C227 1.268 . S
O234 Sc222 2.105 . S
O234 C228 1.268 . S
O235 Sc221 2.105 . S
O235 C229 1.268 . S
O236 Sc220 2.105 . S
O236 C228 1.268 . S
O237 Sc221 2.105 . S
O237 C227 1.268 . S
O238 Sc222 2.105 . S
O238 C229 1.268 . S
O239 Sc220 2.105 . S
O239 C225 1.268 . S
O240 Sc222 2.105 . S
O240 C224 1.268 . S
O241 Sc221 2.105 . S
O241 C226 1.268 . S
Sc242 O245 2.025 . S
Sc242 O252 2.105 . S
Sc242 O255 2.105 . S
Sc242 O258 2.105 . S
Sc242 O261 2.105 . S
Sc243 O245 2.025 . S
Sc243 O253 2.105 . S
Sc243 O257 2.105 . S
Sc243 O259 2.105 . S
Sc243 O263 2.105 . S
Sc244 O245 2.025 . S
Sc244 O254 2.105 . S
Sc244 O256 2.105 . S
Sc244 O260 2.105 . S
Sc244 O262 2.105 . S
O245 Sc242 2.025 . S
O245 Sc243 2.025 . S
O245 Sc244 2.025 . S
C246 O252 1.268 . S
C246 O262 1.268 . S
C247 O253 1.268 . S
C247 O261 1.268 . S
C248 O254 1.268 . S
C248 O263 1.268 . S
C249 O255 1.268 . S
C249 O259 1.268 . S
C250 O256 1.268 . S
C250 O258 1.268 . S
C251 O257 1.268 . S
C251 O260 1.268 . S
O252 Sc242 2.105 . S
O252 C246 1.268 . S
O253 Sc243 2.105 . S
O253 C247 1.268 . S
O254 Sc244 2.105 . S
O254 C248 1.268 . S
O255 Sc242 2.105 . S
O255 C249 1.268 . S
O256 Sc244 2.105 . S
O256 C250 1.268 . S
O257 Sc243 2.105 . S
O257 C251 1.268 . S
O258 Sc242 2.105 . S
O258 C250 1.268 . S
O259 Sc243 2.105 . S
O259 C249 1.268 . S
O260 Sc244 2.105 . S
O260 C251 1.268 . S
O261 Sc242 2.105 . S
O261 C247 1.268 . S
O262 Sc244 2.105 . S
O262 C246 1.268 . S
O263 Sc243 2.105 . S
O263 C248 1.268 . S
H264 C270 0.930 . S
H265 C274 0.930 . S
H266 C279 0.929 . S
H267 C277 0.929 . S
H268 C272 0.929 . S
H269 C278 0.929 . S
C270 H264 0.930 . S
C270 C271 1.367 . S
C270 C278 1.378 . S
C271 C270 1.367 . S
C271 C279 1.433 . S
C272 H268 0.929 . S
C272 C274 1.378 . S
C272 C276 1.350 . S
C273 C276 1.463 . S
C273 C278 1.350 . S
C273 N281 1.427 . S
C274 H265 0.930 . S
C274 C272 1.378 . S
C274 C275 1.367 . S
C275 C274 1.367 . S
C275 C277 1.433 . S
C276 C272 1.350 . S
C276 C273 1.463 . S
C276 N280 1.427 . S
C277 H267 0.929 . S
C277 C275 1.433 . S
C277 N280 1.384 . S
C278 H269 0.929 . S
C278 C270 1.378 . S
C278 C273 1.350 . S
C279 H266 0.929 . S
C279 C271 1.433 . S
C279 N281 1.384 . S
N280 C276 1.427 . S
N280 C277 1.384 . S
N281 C273 1.427 . S
N281 C279 1.384 . S
H282 C288 0.930 . S
H283 C292 0.930 . S
H284 C297 0.929 . S
H285 C295 0.929 . S
H286 C290 0.929 . S
H287 C296 0.929 . S
C288 H282 0.930 . S
C288 C289 1.367 . S
C288 C296 1.378 . S
C289 C288 1.367 . S
C289 C297 1.433 . S
C290 H286 0.929 . S
C290 C292 1.378 . S
C290 C294 1.350 . S
C291 C294 1.463 . S
C291 C296 1.350 . S
C291 N299 1.427 . S
C292 H283 0.930 . S
C292 C290 1.378 . S
C292 C293 1.367 . S
C293 C292 1.367 . S
C293 C295 1.433 . S
C294 C290 1.350 . S
C294 C291 1.463 . S
C294 N298 1.427 . S
C295 H285 0.929 . S
C295 C293 1.433 . S
C295 N298 1.384 . S
C296 H287 0.929 . S
C296 C288 1.378 . S
C296 C291 1.350 . S
C297 H284 0.929 . S
C297 C289 1.433 . S
C297 N299 1.384 . S
N298 C294 1.427 . S
N298 C295 1.384 . S
N299 C291 1.427 . S
N299 C297 1.384 . S
H300 C306 0.930 . S
H301 C310 0.930 . S
H302 C315 0.929 . S
H303 C313 0.929 . S
H304 C308 0.929 . S
H305 C314 0.929 . S
C306 H300 0.930 . S
C306 C307 1.367 . S
C306 C314 1.378 . S
C307 C306 1.367 . S
C307 C315 1.433 . S
C308 H304 0.929 . S
C308 C310 1.378 . S
C308 C312 1.350 . S
C309 C312 1.463 . S
C309 C314 1.350 . S
C309 N317 1.427 . S
C310 H301 0.930 . S
C310 C308 1.378 . S
C310 C311 1.367 . S
C311 C310 1.367 . S
C311 C313 1.433 . S
C312 C308 1.350 . S
C312 C309 1.463 . S
C312 N316 1.427 . S
C313 H303 0.929 . S
C313 C311 1.433 . S
C313 N316 1.384 . S
C314 H305 0.929 . S
C314 C306 1.378 . S
C314 C309 1.350 . S
C315 H302 0.929 . S
C315 C307 1.433 . S
C315 N317 1.384 . S
N316 C312 1.427 . S
N316 C313 1.384 . S
N317 C309 1.427 . S
N317 C315 1.384 . S
H318 C324 0.930 . S
H319 C328 0.930 . S
H320 C333 0.929 . S
H321 C331 0.929 . S
H322 C326 0.929 . S
H323 C332 0.929 . S
C324 H318 0.930 . S
C324 C325 1.367 . S
C324 C332 1.378 . S
C325 C324 1.367 . S
C325 C333 1.433 . S
C326 H322 0.929 . S
C326 C328 1.378 . S
C326 C330 1.350 . S
C327 C330 1.463 . S
C327 C332 1.350 . S
C327 N335 1.427 . S
C328 H319 0.930 . S
C328 C326 1.378 . S
C328 C329 1.367 . S
C329 C328 1.367 . S
C329 C331 1.433 . S
C330 C326 1.350 . S
C330 C327 1.463 . S
C330 N334 1.427 . S
C331 H321 0.929 . S
C331 C329 1.433 . S
C331 N334 1.384 . S
C332 H323 0.929 . S
C332 C324 1.378 . S
C332 C327 1.350 . S
C333 H320 0.929 . S
C333 C325 1.433 . S
C333 N335 1.384 . S
N334 C330 1.427 . S
N334 C331 1.384 . S
N335 C327 1.427 . S
N335 C333 1.384 . S
H336 C342 0.930 . S
H337 C346 0.930 . S
H338 C351 0.929 . S
H339 C349 0.929 . S
H340 C344 0.929 . S
H341 C350 0.929 . S
C342 H336 0.930 . S
C342 C343 1.367 . S
C342 C350 1.378 . S
C343 C342 1.367 . S
C343 C351 1.433 . S
C344 H340 0.929 . S
C344 C346 1.378 . S
C344 C348 1.350 . S
C345 C348 1.463 . S
C345 C350 1.350 . S
C345 N353 1.427 . S
C346 H337 0.930 . S
C346 C344 1.378 . S
C346 C347 1.367 . S
C347 C346 1.367 . S
C347 C349 1.433 . S
C348 C344 1.350 . S
C348 C345 1.463 . S
C348 N352 1.427 . S
C349 H339 0.929 . S
C349 C347 1.433 . S
C349 N352 1.384 . S
C350 H341 0.929 . S
C350 C342 1.378 . S
C350 C345 1.350 . S
C351 H338 0.929 . S
C351 C343 1.433 . S
C351 N353 1.384 . S
N352 C348 1.427 . S
N352 C349 1.384 . S
N353 C345 1.427 . S
N353 C351 1.384 . S
H354 C360 0.930 . S
H355 C364 0.930 . S
H356 C369 0.929 . S
H357 C367 0.929 . S
H358 C362 0.929 . S
H359 C368 0.929 . S
C360 H354 0.930 . S
C360 C361 1.367 . S
C360 C368 1.378 . S
C361 C360 1.367 . S
C361 C369 1.433 . S
C362 H358 0.929 . S
C362 C364 1.378 . S
C362 C366 1.350 . S
C363 C366 1.463 . S
C363 C368 1.350 . S
C363 N371 1.427 . S
C364 H355 0.930 . S
C364 C362 1.378 . S
C364 C365 1.367 . S
C365 C364 1.367 . S
C365 C367 1.433 . S
C366 C362 1.350 . S
C366 C363 1.463 . S
C366 N370 1.427 . S
C367 H357 0.929 . S
C367 C365 1.433 . S
C367 N370 1.384 . S
C368 H359 0.929 . S
C368 C360 1.378 . S
C368 C363 1.350 . S
C369 H356 0.929 . S
C369 C361 1.433 . S
C369 N371 1.384 . S
N370 C366 1.427 . S
N370 C367 1.384 . S
N371 C363 1.427 . S
N371 C369 1.384 . S
H372 C378 0.930 . S
H373 C382 0.930 . S
H374 C387 0.929 . S
H375 C385 0.929 . S
H376 C380 0.929 . S
H377 C386 0.929 . S
C378 H372 0.930 . S
C378 C379 1.367 . S
C378 C386 1.378 . S
C379 C378 1.367 . S
C379 C387 1.433 . S
C380 H376 0.929 . S
C380 C382 1.378 . S
C380 C384 1.350 . S
C381 C384 1.463 . S
C381 C386 1.350 . S
C381 N389 1.427 . S
C382 H373 0.930 . S
C382 C380 1.378 . S
C382 C383 1.367 . S
C383 C382 1.367 . S
C383 C385 1.433 . S
C384 C380 1.350 . S
C384 C381 1.463 . S
C384 N388 1.427 . S
C385 H375 0.929 . S
C385 C383 1.433 . S
C385 N388 1.384 . S
C386 H377 0.929 . S
C386 C378 1.378 . S
C386 C381 1.350 . S
C387 H374 0.929 . S
C387 C379 1.433 . S
C387 N389 1.384 . S
N388 C384 1.427 . S
N388 C385 1.384 . S
N389 C381 1.427 . S
N389 C387 1.384 . S
H390 C396 0.930 . S
H391 C400 0.930 . S
H392 C405 0.929 . S
H393 C403 0.929 . S
H394 C398 0.929 . S
H395 C404 0.929 . S
C396 H390 0.930 . S
C396 C397 1.367 . S
C396 C404 1.378 . S
C397 C396 1.367 . S
C397 C405 1.433 . S
C398 H394 0.929 . S
C398 C400 1.378 . S
C398 C402 1.350 . S
C399 C402 1.463 . S
C399 C404 1.350 . S
C399 N407 1.427 . S
C400 H391 0.930 . S
C400 C398 1.378 . S
C400 C401 1.367 . S
C401 C400 1.367 . S
C401 C403 1.433 . S
C402 C398 1.350 . S
C402 C399 1.463 . S
C402 N406 1.427 . S
C403 H393 0.929 . S
C403 C401 1.433 . S
C403 N406 1.384 . S
C404 H395 0.929 . S
C404 C396 1.378 . S
C404 C399 1.350 . S
C405 H392 0.929 . S
C405 C397 1.433 . S
C405 N407 1.384 . S
N406 C402 1.427 . S
N406 C403 1.384 . S
N407 C399 1.427 . S
N407 C405 1.384 . S
H408 C414 0.930 . S
H409 C418 0.930 . S
H410 C423 0.929 . S
H411 C421 0.929 . S
H412 C416 0.929 . S
H413 C422 0.929 . S
C414 H408 0.930 . S
C414 C415 1.367 . S
C414 C422 1.378 . S
C415 C414 1.367 . S
C415 C423 1.433 . S
C416 H412 0.929 . S
C416 C418 1.378 . S
C416 C420 1.350 . S
C417 C420 1.463 . S
C417 C422 1.350 . S
C417 N425 1.427 . S
C418 H409 0.930 . S
C418 C416 1.378 . S
C418 C419 1.367 . S
C419 C418 1.367 . S
C419 C421 1.433 . S
C420 C416 1.350 . S
C420 C417 1.463 . S
C420 N424 1.427 . S
C421 H411 0.929 . S
C421 C419 1.433 . S
C421 N424 1.384 . S
C422 H413 0.929 . S
C422 C414 1.378 . S
C422 C417 1.350 . S
C423 H410 0.929 . S
C423 C415 1.433 . S
C423 N425 1.384 . S
N424 C420 1.427 . S
N424 C421 1.384 . S
N425 C417 1.427 . S
N425 C423 1.384 . S
H426 C432 0.930 . S
H427 C436 0.930 . S
H428 C441 0.929 . S
H429 C439 0.929 . S
H430 C434 0.929 . S
H431 C440 0.929 . S
C432 H426 0.930 . S
C432 C433 1.367 . S
C432 C440 1.378 . S
C433 C432 1.367 . S
C433 C441 1.433 . S
C434 H430 0.929 . S
C434 C436 1.378 . S
C434 C438 1.350 . S
C435 C438 1.463 . S
C435 C440 1.350 . S
C435 N443 1.427 . S
C436 H427 0.930 . S
C436 C434 1.378 . S
C436 C437 1.367 . S
C437 C436 1.367 . S
C437 C439 1.433 . S
C438 C434 1.350 . S
C438 C435 1.463 . S
C438 N442 1.427 . S
C439 H429 0.929 . S
C439 C437 1.433 . S
C439 N442 1.384 . S
C440 H431 0.929 . S
C440 C432 1.378 . S
C440 C435 1.350 . S
C441 H428 0.929 . S
C441 C433 1.433 . S
C441 N443 1.384 . S
N442 C438 1.427 . S
N442 C439 1.384 . S
N443 C435 1.427 . S
N443 C441 1.384 . S
H444 C450 0.930 . S
H445 C454 0.930 . S
H446 C459 0.929 . S
H447 C457 0.929 . S
H448 C452 0.929 . S
H449 C458 0.929 . S
C450 H444 0.930 . S
C450 C451 1.367 . S
C450 C458 1.378 . S
C451 C450 1.367 . S
C451 C459 1.433 . S
C452 H448 0.929 . S
C452 C454 1.378 . S
C452 C456 1.350 . S
C453 C456 1.463 . S
C453 C458 1.350 . S
C453 N461 1.427 . S
C454 H445 0.930 . S
C454 C452 1.378 . S
C454 C455 1.367 . S
C455 C454 1.367 . S
C455 C457 1.433 . S
C456 C452 1.350 . S
C456 C453 1.463 . S
C456 N460 1.427 . S
C457 H447 0.929 . S
C457 C455 1.433 . S
C457 N460 1.384 . S
C458 H449 0.929 . S
C458 C450 1.378 . S
C458 C453 1.350 . S
C459 H446 0.929 . S
C459 C451 1.433 . S
C459 N461 1.384 . S
N460 C456 1.427 . S
N460 C457 1.384 . S
N461 C453 1.427 . S
N461 C459 1.384 . S
H462 C468 0.930 . S
H463 C472 0.930 . S
H464 C477 0.929 . S
H465 C475 0.929 . S
H466 C470 0.929 . S
H467 C476 0.929 . S
C468 H462 0.930 . S
C468 C469 1.367 . S
C468 C476 1.378 . S
C469 C468 1.367 . S
C469 C477 1.433 . S
C470 H466 0.929 . S
C470 C472 1.378 . S
C470 C474 1.350 . S
C471 C474 1.463 . S
C471 C476 1.350 . S
C471 N479 1.427 . S
C472 H463 0.930 . S
C472 C470 1.378 . S
C472 C473 1.367 . S
C473 C472 1.367 . S
C473 C475 1.433 . S
C474 C470 1.350 . S
C474 C471 1.463 . S
C474 N478 1.427 . S
C475 H465 0.929 . S
C475 C473 1.433 . S
C475 N478 1.384 . S
C476 H467 0.929 . S
C476 C468 1.378 . S
C476 C471 1.350 . S
C477 H464 0.929 . S
C477 C469 1.433 . S
C477 N479 1.384 . S
N478 C474 1.427 . S
N478 C475 1.384 . S
N479 C471 1.427 . S
N479 C477 1.384 . S
H480 C486 0.930 . S
H481 C490 0.930 . S
H482 C495 0.929 . S
H483 C493 0.929 . S
H484 C488 0.929 . S
H485 C494 0.929 . S
C486 H480 0.930 . S
C486 C487 1.367 . S
C486 C494 1.378 . S
C487 C486 1.367 . S
C487 C495 1.433 . S
C488 H484 0.929 . S
C488 C490 1.378 . S
C488 C492 1.350 . S
C489 C492 1.463 1_565 S
C489 C494 1.350 . S
C489 N497 1.427 . S
C490 H481 0.930 . S
C490 C488 1.378 . S
C490 C491 1.367 . S
C491 C490 1.367 . S
C491 C493 1.433 . S
C492 C488 1.350 . S
C492 C489 1.463 1_545 S
C492 N496 1.427 . S
C493 H483 0.929 . S
C493 C491 1.433 . S
C493 N496 1.384 . S
C494 H485 0.929 . S
C494 C486 1.378 . S
C494 C489 1.350 . S
C495 H482 0.929 . S
C495 C487 1.433 . S
C495 N497 1.384 . S
N496 C492 1.427 . S
N496 C493 1.384 . S
N497 C489 1.427 . S
N497 C495 1.384 . S
H498 C504 0.930 . S
H499 C508 0.930 . S
H500 C513 0.929 . S
H501 C511 0.929 . S
H502 C506 0.929 . S
H503 C512 0.929 . S
C504 H498 0.930 . S
C504 C505 1.367 . S
C504 C512 1.378 . S
C505 C504 1.367 . S
C505 C513 1.433 . S
C506 H502 0.929 . S
C506 C508 1.378 . S
C506 C510 1.350 . S
C507 C510 1.463 . S
C507 C512 1.350 . S
C507 N515 1.427 . S
C508 H499 0.930 . S
C508 C506 1.378 . S
C508 C509 1.367 . S
C509 C508 1.367 . S
C509 C511 1.433 . S
C510 C506 1.350 . S
C510 C507 1.463 . S
C510 N514 1.427 . S
C511 H501 0.929 . S
C511 C509 1.433 . S
C511 N514 1.384 . S
C512 H503 0.929 . S
C512 C504 1.378 . S
C512 C507 1.350 . S
C513 H500 0.929 . S
C513 C505 1.433 . S
C513 N515 1.384 . S
N514 C510 1.427 . S
N514 C511 1.384 . S
N515 C507 1.427 . S
N515 C513 1.384 . S
H516 C522 0.930 . S
H517 C526 0.930 . S
H518 C531 0.929 . S
H519 C529 0.929 . S
H520 C524 0.895 1_455 S
H521 C530 0.895 1_655 S
C522 H516 0.930 . S
C522 C523 1.367 . S
C522 C530 1.378 . S
C523 C522 1.367 . S
C523 C531 1.433 . S
C524 H520 0.895 1_655 S
C524 C526 1.378 . S
C524 C528 1.350 . S
C525 C528 1.463 1_455 S
C525 C530 1.350 . S
C525 N533 1.427 . S
C526 H517 0.930 . S
C526 C524 1.378 . S
C526 C527 1.367 . S
C527 C526 1.367 . S
C527 C529 1.433 . S
C528 C524 1.350 . S
C528 C525 1.463 1_655 S
C528 N532 1.427 . S
C529 H519 0.929 . S
C529 C527 1.433 . S
C529 N532 1.384 . S
C530 H521 0.895 1_455 S
C530 C522 1.378 . S
C530 C525 1.350 . S
C531 H518 0.929 . S
C531 C523 1.433 . S
C531 N533 1.384 . S
N532 C528 1.427 . S
N532 C529 1.384 . S
N533 C525 1.427 . S
N533 C531 1.384 . S
H534 C540 0.930 . S
H535 C544 0.930 . S
H536 C549 0.929 . S
H537 C547 0.929 . S
H538 C542 0.929 . S
H539 C548 0.929 . S
C540 H534 0.930 . S
C540 C541 1.367 . S
C540 C548 1.378 . S
C541 C540 1.367 . S
C541 C549 1.433 . S
C542 H538 0.929 . S
C542 C544 1.378 . S
C542 C546 1.350 . S
C543 C546 1.463 1_565 S
C543 C548 1.350 . S
C543 N551 1.427 . S
C544 H535 0.930 . S
C544 C542 1.378 . S
C544 C545 1.367 . S
C545 C544 1.367 . S
C545 C547 1.433 . S
C546 C542 1.350 . S
C546 C543 1.463 1_545 S
C546 N550 1.427 . S
C547 H537 0.929 . S
C547 C545 1.433 . S
C547 N550 1.384 . S
C548 H539 0.929 . S
C548 C540 1.378 . S
C548 C543 1.350 . S
C549 H536 0.929 . S
C549 C541 1.433 . S
C549 N551 1.384 . S
N550 C546 1.427 . S
N550 C547 1.384 . S
N551 C543 1.427 . S
N551 C549 1.384 . S
H552 C558 0.930 . S
H553 C562 0.930 . S
H554 C567 0.929 . S
H555 C565 0.929 . S
H556 C560 0.929 . S
H557 C566 0.929 . S
C558 H552 0.930 . S
C558 C559 1.367 . S
C558 C566 1.378 . S
C559 C558 1.367 . S
C559 C567 1.433 . S
C560 H556 0.929 . S
C560 C562 1.378 . S
C560 C564 1.350 . S
C561 C564 1.463 . S
C561 C566 1.350 . S
C561 N569 1.427 . S
C562 H553 0.930 . S
C562 C560 1.378 . S
C562 C563 1.367 . S
C563 C562 1.367 . S
C563 C565 1.433 . S
C564 C560 1.350 . S
C564 C561 1.463 . S
C564 N568 1.427 . S
C565 H555 0.929 . S
C565 C563 1.433 . S
C565 N568 1.384 . S
C566 H557 0.929 . S
C566 C558 1.378 . S
C566 C561 1.350 . S
C567 H554 0.929 . S
C567 C559 1.433 . S
C567 N569 1.384 . S
N568 C564 1.427 . S
N568 C565 1.384 . S
N569 C561 1.427 . S
N569 C567 1.384 . S
H570 C576 0.930 . S
H571 C580 0.930 . S
H572 C585 0.929 . S
H573 C583 0.929 . S
H574 C578 0.929 . S
H575 C584 0.929 . S
C576 H570 0.930 . S
C576 C577 1.367 . S
C576 C584 1.378 . S
C577 C576 1.367 . S
C577 C585 1.433 . S
C578 H574 0.929 . S
C578 C580 1.378 . S
C578 C582 1.350 . S
C579 C582 1.463 1_655 S
C579 C584 1.350 . S
C579 N587 1.427 . S
C580 H571 0.930 . S
C580 C578 1.378 . S
C580 C581 1.367 . S
C581 C580 1.367 . S
C581 C583 1.433 . S
C582 C578 1.350 . S
C582 C579 1.463 1_455 S
C582 N586 1.427 . S
C583 H573 0.929 . S
C583 C581 1.433 . S
C583 N586 1.384 . S
C584 H575 0.929 . S
C584 C576 1.378 . S
C584 C579 1.350 . S
C585 H572 0.929 . S
C585 C577 1.433 . S
C585 N587 1.384 . S
N586 C582 1.427 . S
N586 C583 1.384 . S
N587 C579 1.427 . S
N587 C585 1.384 . S
H588 C594 0.930 . S
H589 C598 0.930 . S
H590 C603 0.929 . S
H591 C601 0.929 . S
H592 C596 0.929 1_545 S
H593 C602 0.929 1_565 S
C594 H588 0.930 . S
C594 C595 1.367 . S
C594 C602 1.378 . S
C595 C594 1.367 . S
C595 C603 1.433 . S
C596 H592 0.929 1_565 S
C596 C598 1.378 . S
C596 C600 1.350 . S
C597 C600 1.463 1_545 S
C597 C602 1.350 . S
C597 N605 1.427 . S
C598 H589 0.930 . S
C598 C596 1.378 . S
C598 C599 1.367 . S
C599 C598 1.367 . S
C599 C601 1.433 . S
C600 C596 1.350 . S
C600 C597 1.463 1_565 S
C600 N604 1.427 . S
C601 H591 0.929 . S
C601 C599 1.433 . S
C601 N604 1.384 . S
C602 H593 0.929 1_545 S
C602 C594 1.378 . S
C602 C597 1.350 . S
C603 H590 0.929 . S
C603 C595 1.433 . S
C603 N605 1.384 . S
N604 C600 1.427 . S
N604 C601 1.384 . S
N605 C597 1.427 . S
N605 C603 1.384 . S
H606 C612 0.930 . S
H607 C616 0.930 . S
H608 C621 0.929 . S
H609 C619 0.929 . S
H610 C614 0.929 . S
H611 C620 0.929 . S
C612 H606 0.930 . S
C612 C613 1.367 . S
C612 C620 1.378 . S
C613 C612 1.367 . S
C613 C621 1.433 . S
C614 H610 0.929 . S
C614 C616 1.378 . S
C614 C618 1.350 . S
C615 C618 1.463 . S
C615 C620 1.350 . S
C615 N623 1.427 . S
C616 H607 0.930 . S
C616 C614 1.378 . S
C616 C617 1.367 . S
C617 C616 1.367 . S
C617 C619 1.433 . S
C618 C614 1.350 . S
C618 C615 1.463 . S
C618 N622 1.427 . S
C619 H609 0.929 . S
C619 C617 1.433 . S
C619 N622 1.384 . S
C620 H611 0.929 . S
C620 C612 1.378 . S
C620 C615 1.350 . S
C621 H608 0.929 . S
C621 C613 1.433 . S
C621 N623 1.384 . S
N622 C618 1.427 . S
N622 C619 1.384 . S
N623 C615 1.427 . S
N623 C621 1.384 . S
H624 C630 0.930 . S
H625 C634 0.930 . S
H626 C639 0.929 . S
H627 C637 0.929 . S
H628 C632 0.929 1_655 S
H629 C638 0.929 1_455 S
C630 H624 0.930 . S
C630 C631 1.367 . S
C630 C638 1.378 . S
C631 C630 1.367 . S
C631 C639 1.433 . S
C632 H628 0.929 1_455 S
C632 C634 1.378 . S
C632 C636 1.350 . S
C633 C636 1.463 1_655 S
C633 C638 1.350 . S
C633 N641 1.427 . S
C634 H625 0.930 . S
C634 C632 1.378 . S
C634 C635 1.367 . S
C635 C634 1.367 . S
C635 C637 1.433 . S
C636 C632 1.350 . S
C636 C633 1.463 1_455 S
C636 N640 1.427 . S
C637 H627 0.929 . S
C637 C635 1.433 . S
C637 N640 1.384 . S
C638 H629 0.929 1_655 S
C638 C630 1.378 . S
C638 C633 1.350 . S
C639 H626 0.929 . S
C639 C631 1.433 . S
C639 N641 1.384 . S
N640 C636 1.427 . S
N640 C637 1.384 . S
N641 C633 1.427 . S
N641 C639 1.384 . S
H642 C648 0.930 . S
H643 C652 0.930 . S
H644 C657 0.929 . S
H645 C655 0.929 . S
H646 C650 0.929 1_565 S
H647 C656 0.929 1_545 S
C648 H642 0.930 . S
C648 C649 1.367 . S
C648 C656 1.378 . S
C649 C648 1.367 . S
C649 C657 1.433 . S
C650 H646 0.929 1_545 S
C650 C652 1.378 . S
C650 C654 1.350 . S
C651 C654 1.463 1_565 S
C651 C656 1.350 . S
C651 N659 1.427 . S
C652 H643 0.930 . S
C652 C650 1.378 . S
C652 C653 1.367 . S
C653 C652 1.367 . S
C653 C655 1.433 . S
C654 C650 1.350 . S
C654 C651 1.463 1_545 S
C654 N658 1.427 . S
C655 H645 0.929 . S
C655 C653 1.433 . S
C655 N658 1.384 . S
C656 H647 0.929 1_565 S
C656 C648 1.378 . S
C656 C651 1.350 . S
C657 H644 0.929 . S
C657 C649 1.433 . S
C657 N659 1.384 . S
N658 C654 1.427 . S
N658 C655 1.384 . S
N659 C651 1.427 . S
N659 C657 1.384 . S
H660 C666 0.930 . S
H661 C670 0.930 . S
H662 C675 0.929 . S
H663 C673 0.929 . S
H664 C668 0.929 . S
H665 C674 0.929 . S
C666 H660 0.930 . S
C666 C667 1.367 . S
C666 C674 1.378 . S
C667 C666 1.367 . S
C667 C675 1.433 . S
C668 H664 0.929 . S
C668 C670 1.378 . S
C668 C672 1.350 . S
C669 C672 1.463 . S
C669 C674 1.350 . S
C669 N677 1.427 . S
C670 H661 0.930 . S
C670 C668 1.378 . S
C670 C671 1.367 . S
C671 C670 1.367 . S
C671 C673 1.433 . S
C672 C668 1.350 . S
C672 C669 1.463 . S
C672 N676 1.427 . S
C673 H663 0.929 . S
C673 C671 1.433 . S
C673 N676 1.384 . S
C674 H665 0.929 . S
C674 C666 1.378 . S
C674 C669 1.350 . S
C675 H662 0.929 . S
C675 C667 1.433 . S
C675 N677 1.384 . S
N676 C672 1.427 . S
N676 C673 1.384 . S
N677 C669 1.427 . S
N677 C675 1.384 . S
H678 C684 0.930 . S
H679 C688 0.930 . S
H680 C693 0.929 . S
H681 C691 0.929 . S
H682 C686 0.929 . S
H683 C692 0.929 . S
C684 H678 0.930 . S
C684 C685 1.367 . S
C684 C692 1.378 . S
C685 C684 1.367 . S
C685 C693 1.433 . S
C686 H682 0.929 . S
C686 C688 1.378 . S
C686 C690 1.350 . S
C687 C690 1.463 1_655 S
C687 C692 1.350 . S
C687 N695 1.427 . S
C688 H679 0.930 . S
C688 C686 1.378 . S
C688 C689 1.367 . S
C689 C688 1.367 . S
C689 C691 1.433 . S
C690 C686 1.350 . S
C690 C687 1.463 1_455 S
C690 N694 1.427 . S
C691 H681 0.929 . S
C691 C689 1.433 . S
C691 N694 1.384 . S
C692 H683 0.929 . S
C692 C684 1.378 . S
C692 C687 1.350 . S
C693 H680 0.929 . S
C693 C685 1.433 . S
C693 N695 1.384 . S
N694 C690 1.427 . S
N694 C691 1.384 . S
N695 C687 1.427 . S
N695 C693 1.384 . S
H696 C702 0.930 . S
H697 C706 0.930 . S
H698 C711 0.929 . S
H699 C709 0.929 . S
H700 C704 0.929 . S
H701 C710 0.929 . S
C702 H696 0.930 . S
C702 C703 1.367 . S
C702 C710 1.378 . S
C703 C702 1.367 . S
C703 C711 1.433 . S
C704 H700 0.929 . S
C704 C706 1.378 . S
C704 C708 1.350 . S
C705 C708 1.463 . S
C705 C710 1.350 . S
C705 N713 1.427 . S
C706 H697 0.930 . S
C706 C704 1.378 . S
C706 C707 1.367 . S
C707 C706 1.367 . S
C707 C709 1.433 . S
C708 C704 1.350 . S
C708 C705 1.463 . S
C708 N712 1.427 . S
C709 H699 0.929 . S
C709 C707 1.433 . S
C709 N712 1.384 . S
C710 H701 0.929 . S
C710 C702 1.378 . S
C710 C705 1.350 . S
C711 H698 0.929 . S
C711 C703 1.433 . S
C711 N713 1.384 . S
N712 C708 1.427 . S
N712 C709 1.384 . S
N713 C705 1.427 . S
N713 C711 1.384 . S
H714 C720 0.930 . S
H715 C724 0.930 . S
H716 C729 0.929 . S
H717 C727 0.929 . S
H718 C722 0.929 . S
H719 C728 0.929 . S
C720 H714 0.930 . S
C720 C721 1.367 . S
C720 C728 1.378 . S
C721 C720 1.367 . S
C721 C729 1.433 . S
C722 H718 0.929 . S
C722 C724 1.378 . S
C722 C726 1.350 . S
C723 C726 1.463 . S
C723 C728 1.350 . S
C723 N731 1.427 . S
C724 H715 0.930 . S
C724 C722 1.378 . S
C724 C725 1.367 . S
C725 C724 1.367 . S
C725 C727 1.433 . S
C726 C722 1.350 . S
C726 C723 1.463 . S
C726 N730 1.427 . S
C727 H717 0.929 . S
C727 C725 1.433 . S
C727 N730 1.384 . S
C728 H719 0.929 . S
C728 C720 1.378 . S
C728 C723 1.350 . S
C729 H716 0.929 . S
C729 C721 1.433 . S
C729 N731 1.384 . S
N730 C726 1.427 . S
N730 C727 1.384 . S
N731 C723 1.427 . S
N731 C729 1.384 . S
H732 C738 0.930 . S
H733 C742 0.930 . S
H734 C747 0.929 . S
H735 C745 0.929 . S
H736 C740 0.929 . S
H737 C746 0.929 . S
C738 H732 0.930 . S
C738 C739 1.367 . S
C738 C746 1.378 . S
C739 C738 1.367 . S
C739 C747 1.433 . S
C740 H736 0.929 . S
C740 C742 1.378 . S
C740 C744 1.350 . S
C741 C744 1.463 . S
C741 C746 1.350 . S
C741 N749 1.427 . S
C742 H733 0.930 . S
C742 C740 1.378 . S
C742 C743 1.367 . S
C743 C742 1.367 . S
C743 C745 1.433 . S
C744 C740 1.350 . S
C744 C741 1.463 . S
C744 N748 1.427 . S
C745 H735 0.929 . S
C745 C743 1.433 . S
C745 N748 1.384 . S
C746 H737 0.929 . S
C746 C738 1.378 . S
C746 C741 1.350 . S
C747 H734 0.929 . S
C747 C739 1.433 . S
C747 N749 1.384 . S
N748 C744 1.427 . S
N748 C745 1.384 . S
N749 C741 1.427 . S
N749 C747 1.384 . S
H750 C756 0.930 . S
H751 C760 0.930 . S
H752 C765 0.929 . S
H753 C763 0.929 . S
H754 C758 0.929 . S
H755 C764 0.929 . S
C756 H750 0.930 . S
C756 C757 1.367 . S
C756 C764 1.378 . S
C757 C756 1.367 . S
C757 C765 1.433 . S
C758 H754 0.929 . S
C758 C760 1.378 . S
C758 C762 1.350 . S
C759 C762 1.463 . S
C759 C764 1.350 . S
C759 N767 1.427 . S
C760 H751 0.930 . S
C760 C758 1.378 . S
C760 C761 1.367 . S
C761 C760 1.367 . S
C761 C763 1.433 . S
C762 C758 1.350 . S
C762 C759 1.463 . S
C762 N766 1.427 . S
C763 H753 0.929 . S
C763 C761 1.433 . S
C763 N766 1.384 . S
C764 H755 0.929 . S
C764 C756 1.378 . S
C764 C759 1.350 . S
C765 H752 0.929 . S
C765 C757 1.433 . S
C765 N767 1.384 . S
N766 C762 1.427 . S
N766 C763 1.384 . S
N767 C759 1.427 . S
N767 C765 1.384 . S
H768 C774 0.930 . S
H769 C778 0.930 . S
H770 C783 0.929 . S
H771 C781 0.929 . S
H772 C776 0.929 . S
H773 C782 0.929 . S
C774 H768 0.930 . S
C774 C775 1.367 . S
C774 C782 1.378 . S
C775 C774 1.367 . S
C775 C783 1.433 . S
C776 H772 0.929 . S
C776 C778 1.378 . S
C776 C780 1.350 . S
C777 C780 1.463 . S
C777 C782 1.350 . S
C777 N785 1.427 . S
C778 H769 0.930 . S
C778 C776 1.378 . S
C778 C779 1.367 . S
C779 C778 1.367 . S
C779 C781 1.433 . S
C780 C776 1.350 . S
C780 C777 1.463 . S
C780 N784 1.427 . S
C781 H771 0.929 . S
C781 C779 1.433 . S
C781 N784 1.384 . S
C782 H773 0.929 . S
C782 C774 1.378 . S
C782 C777 1.350 . S
C783 H770 0.929 . S
C783 C775 1.433 . S
C783 N785 1.384 . S
N784 C780 1.427 . S
N784 C781 1.384 . S
N785 C777 1.427 . S
N785 C783 1.384 . S
H786 C792 0.930 . S
H787 C796 0.930 . S
H788 C801 0.929 . S
H789 C799 0.929 . S
H790 C794 0.929 . S
H791 C800 0.929 . S
C792 H786 0.930 . S
C792 C793 1.367 . S
C792 C800 1.378 . S
C793 C792 1.367 . S
C793 C801 1.433 . S
C794 H790 0.929 . S
C794 C796 1.378 . S
C794 C798 1.350 . S
C795 C798 1.463 . S
C795 C800 1.350 . S
C795 N803 1.427 . S
C796 H787 0.930 . S
C796 C794 1.378 . S
C796 C797 1.367 . S
C797 C796 1.367 . S
C797 C799 1.433 . S
C798 C794 1.350 . S
C798 C795 1.463 . S
C798 N802 1.427 . S
C799 H789 0.929 . S
C799 C797 1.433 . S
C799 N802 1.384 . S
C800 H791 0.929 . S
C800 C792 1.378 . S
C800 C795 1.350 . S
C801 H788 0.929 . S
C801 C793 1.433 . S
C801 N803 1.384 . S
N802 C798 1.427 . S
N802 C799 1.384 . S
N803 C795 1.427 . S
N803 C801 1.384 . S
H804 C810 0.930 . S
H805 C814 0.930 . S
H806 C819 0.929 . S
H807 C817 0.929 . S
H808 C812 0.929 . S
H809 C818 0.929 . S
C810 H804 0.930 . S
C810 C811 1.367 . S
C810 C818 1.378 . S
C811 C810 1.367 . S
C811 C819 1.433 . S
C812 H808 0.929 . S
C812 C814 1.378 . S
C812 C816 1.350 . S
C813 C816 1.463 . S
C813 C818 1.350 . S
C813 N821 1.427 . S
C814 H805 0.930 . S
C814 C812 1.378 . S
C814 C815 1.367 . S
C815 C814 1.367 . S
C815 C817 1.433 . S
C816 C812 1.350 . S
C816 C813 1.463 . S
C816 N820 1.427 . S
C817 H807 0.929 . S
C817 C815 1.433 . S
C817 N820 1.384 . S
C818 H809 0.929 . S
C818 C810 1.378 . S
C818 C813 1.350 . S
C819 H806 0.929 . S
C819 C811 1.433 . S
C819 N821 1.384 . S
N820 C816 1.427 . S
N820 C817 1.384 . S
N821 C813 1.427 . S
N821 C819 1.384 . S
H822 C828 0.930 . S
H823 C832 0.930 . S
H824 C837 0.929 . S
H825 C835 0.929 . S
H826 C830 0.929 . S
H827 C836 0.929 . S
C828 H822 0.930 . S
C828 C829 1.367 . S
C828 C836 1.378 . S
C829 C828 1.367 . S
C829 C837 1.433 . S
C830 H826 0.929 . S
C830 C832 1.378 . S
C830 C834 1.350 . S
C831 C834 1.463 . S
C831 C836 1.350 . S
C831 N839 1.427 . S
C832 H823 0.930 . S
C832 C830 1.378 . S
C832 C833 1.367 . S
C833 C832 1.367 . S
C833 C835 1.433 . S
C834 C830 1.350 . S
C834 C831 1.463 . S
C834 N838 1.427 . S
C835 H825 0.929 . S
C835 C833 1.433 . S
C835 N838 1.384 . S
C836 H827 0.929 . S
C836 C828 1.378 . S
C836 C831 1.350 . S
C837 H824 0.929 . S
C837 C829 1.433 . S
C837 N839 1.384 . S
N838 C834 1.427 . S
N838 C835 1.384 . S
N839 C831 1.427 . S
N839 C837 1.384 . S
H840 C846 0.930 . S
H841 C850 0.930 . S
H842 C855 0.929 . S
H843 C853 0.929 . S
H844 C848 0.929 . S
H845 C854 0.929 . S
C846 H840 0.930 . S
C846 C847 1.367 . S
C846 C854 1.378 . S
C847 C846 1.367 . S
C847 C855 1.433 . S
C848 H844 0.929 . S
C848 C850 1.378 . S
C848 C852 1.350 . S
C849 C852 1.463 . S
C849 C854 1.350 . S
C849 N857 1.427 . S
C850 H841 0.930 . S
C850 C848 1.378 . S
C850 C851 1.367 . S
C851 C850 1.367 . S
C851 C853 1.433 . S
C852 C848 1.350 . S
C852 C849 1.463 . S
C852 N856 1.427 . S
C853 H843 0.929 . S
C853 C851 1.433 . S
C853 N856 1.384 . S
C854 H845 0.929 . S
C854 C846 1.378 . S
C854 C849 1.350 . S
C855 H842 0.929 . S
C855 C847 1.433 . S
C855 N857 1.384 . S
N856 C852 1.427 . S
N856 C853 1.384 . S
N857 C849 1.427 . S
N857 C855 1.384 . S
H858 C864 0.930 . S
H859 C868 0.930 . S
H860 C873 0.929 . S
H861 C871 0.929 . S
H862 C866 0.929 . S
H863 C872 0.929 . S
C864 H858 0.930 . S
C864 C865 1.367 . S
C864 C872 1.378 . S
C865 C864 1.367 . S
C865 C873 1.433 . S
C866 H862 0.929 . S
C866 C868 1.378 . S
C866 C870 1.350 . S
C867 C870 1.463 . S
C867 C872 1.350 . S
C867 N875 1.427 . S
C868 H859 0.930 . S
C868 C866 1.378 . S
C868 C869 1.367 . S
C869 C868 1.367 . S
C869 C871 1.433 . S
C870 C866 1.350 . S
C870 C867 1.463 . S
C870 N874 1.427 . S
C871 H861 0.929 . S
C871 C869 1.433 . S
C871 N874 1.384 . S
C872 H863 0.929 . S
C872 C864 1.378 . S
C872 C867 1.350 . S
C873 H860 0.929 . S
C873 C865 1.433 . S
C873 N875 1.384 . S
N874 C870 1.427 . S
N874 C871 1.384 . S
N875 C867 1.427 . S
N875 C873 1.384 . S
H876 C882 0.930 . S
H877 C886 0.930 . S
H878 C891 0.929 . S
H879 C889 0.929 . S
H880 C884 0.929 . S
H881 C890 0.929 . S
C882 H876 0.930 . S
C882 C883 1.367 . S
C882 C890 1.378 . S
C883 C882 1.367 . S
C883 C891 1.433 . S
C884 H880 0.929 . S
C884 C886 1.378 . S
C884 C888 1.350 . S
C885 C888 1.463 . S
C885 C890 1.350 . S
C885 N893 1.427 . S
C886 H877 0.930 . S
C886 C884 1.378 . S
C886 C887 1.367 . S
C887 C886 1.367 . S
C887 C889 1.433 . S
C888 C884 1.350 . S
C888 C885 1.463 . S
C888 N892 1.427 . S
C889 H879 0.929 . S
C889 C887 1.433 . S
C889 N892 1.384 . S
C890 H881 0.929 . S
C890 C882 1.378 . S
C890 C885 1.350 . S
C891 H878 0.929 . S
C891 C883 1.433 . S
C891 N893 1.384 . S
N892 C888 1.427 . S
N892 C889 1.384 . S
N893 C885 1.427 . S
N893 C891 1.384 . S
H894 C900 0.930 . S
H895 C904 0.930 . S
H896 C909 0.929 . S
H897 C907 0.929 . S
H898 C902 0.929 . S
H899 C908 0.929 . S
C900 H894 0.930 . S
C900 C901 1.367 . S
C900 C908 1.378 . S
C901 C900 1.367 . S
C901 C909 1.433 . S
C902 H898 0.929 . S
C902 C904 1.378 . S
C902 C906 1.350 . S
C903 C906 1.463 . S
C903 C908 1.350 . S
C903 N911 1.427 . S
C904 H895 0.930 . S
C904 C902 1.378 . S
C904 C905 1.367 . S
C905 C904 1.367 . S
C905 C907 1.433 . S
C906 C902 1.350 . S
C906 C903 1.463 . S
C906 N910 1.427 . S
C907 H897 0.929 . S
C907 C905 1.433 . S
C907 N910 1.384 . S
C908 H899 0.929 . S
C908 C900 1.378 . S
C908 C903 1.350 . S
C909 H896 0.929 . S
C909 C901 1.433 . S
C909 N911 1.384 . S
N910 C906 1.427 . S
N910 C907 1.384 . S
N911 C903 1.427 . S
N911 C909 1.384 . S
C271 C7 1.246 . S
C275 C182 1.246 . S
C289 C204 1.240 . S
C293 C29 1.241 . S
C307 C51 1.241 . S
C311 C226 1.237 . S
C325 C248 1.245 . S
C329 C73 1.246 . S
C343 C95 1.247 . S
C347 C138 1.244 . S
C361 C160 1.245 . S
C365 C117 1.246 . S
C379 C251 1.239 . S
C383 C71 1.241 . S
C397 C93 1.245 . S
C401 C141 1.249 . S
C415 C163 1.241 . S
C419 C115 1.245 . S
C433 C185 1.243 . S
C437 C5 1.248 . S
C451 C207 1.242 . S
C455 C27 1.246 . S
C469 C49 1.239 . S
C473 C229 1.241 . S
C487 C159 1.311 . S
C491 C9 1.308 . S
C505 C181 1.305 . S
C509 C31 1.308 . S
C523 C203 1.301 . S
C527 C53 1.304 . S
C541 C75 1.311 . S
C545 C225 1.306 . S
C559 C97 1.304 . S
C563 C247 1.299 . S
C577 C137 1.309 . S
C581 C119 1.310 . S
C595 C227 1.306 . S
C599 C72 1.303 . S
C613 C94 1.303 . S
C617 C249 1.310 . S
C631 C139 1.301 . S
C635 C116 1.306 . S
C649 C161 1.301 . S
C653 C6 1.304 . S
C667 C28 1.305 . S
C671 C183 1.302 . S
C685 C50 1.312 . S
C689 C205 1.310 . S
C703 C8 1.551 . S
C707 C224 1.551 . S
C721 C30 1.549 . S
C725 C246 1.546 . S
C739 C136 1.555 . S
C743 C52 1.554 . S
C757 C158 1.548 . S
C761 C74 1.545 . S
C775 C96 1.556 . S
C779 C180 1.553 . S
C793 C202 1.547 . S
C797 C118 1.545 . S
C811 C70 1.551 . S
C815 C162 1.555 . S
C829 C92 1.553 . S
C833 C184 1.557 . S
C847 C206 1.547 . S
C851 C114 1.549 . S
C865 C228 1.547 . S
C869 C4 1.549 . S
C883 C250 1.555 . S
C887 C26 1.555 . S
C901 C140 1.547 . S
C905 C48 1.548 . S
