# Generated by pormake.
# Topology fcu, (12)-cn, num edge types: 1
# Building blocks:
#     Node 0, Type 0, BuildingBlock: ZALLEG_clean_sbu_0, # of connection points: 12
#     Node 1, Type 0, BuildingBlock: ZALLEG_clean_sbu_0, # of connection points: 12
#     Node 2, Type 0, BuildingBlock: ZALLEG_clean_sbu_0, # of connection points: 12
#     Node 3, Type 0, BuildingBlock: ZALLEG_clean_sbu_0, # of connection points: 12
#     Edge 4, Type (0, 0), BuildingBlock: XIVTED_clean_linker_0, # of connection points: 2
#     Edge 5, Type (0, 0), BuildingBlock: XIVTED_clean_linker_0, # of connection points: 2
#     Edge 6, Type (0, 0), BuildingBlock: XIVTED_clean_linker_0, # of connection points: 2
#     Edge 7, Type (0, 0), BuildingBlock: XIVTED_clean_linker_0, # of connection points: 2
#     Edge 8, Type (0, 0), BuildingBlock: XIVTED_clean_linker_0, # of connection points: 2
#     Edge 9, Type (0, 0), BuildingBlock: XIVTED_clean_linker_0, # of connection points: 2
#     Edge 10, Type (0, 0), BuildingBlock: XIVTED_clean_linker_0, # of connection points: 2
#     Edge 11, Type (0, 0), BuildingBlock: XIVTED_clean_linker_0, # of connection points: 2
#     Edge 12, Type (0, 0), BuildingBlock: XIVTED_clean_linker_0, # of connection points: 2
#     Edge 13, Type (0, 0), BuildingBlock: XIVTED_clean_linker_0, # of connection points: 2
#     Edge 14, Type (0, 0), BuildingBlock: XIVTED_clean_linker_0, # of connection points: 2
#     Edge 15, Type (0, 0), BuildingBlock: XIVTED_clean_linker_0, # of connection points: 2
#     Edge 16, Type (0, 0), BuildingBlock: XIVTED_clean_linker_0, # of connection points: 2
#     Edge 17, Type (0, 0), BuildingBlock: XIVTED_clean_linker_0, # of connection points: 2
#     Edge 18, Type (0, 0), BuildingBlock: XIVTED_clean_linker_0, # of connection points: 2
#     Edge 19, Type (0, 0), BuildingBlock: XIVTED_clean_linker_0, # of connection points: 2
#     Edge 20, Type (0, 0), BuildingBlock: XIVTED_clean_linker_0, # of connection points: 2
#     Edge 21, Type (0, 0), BuildingBlock: XIVTED_clean_linker_0, # of connection points: 2
#     Edge 22, Type (0, 0), BuildingBlock: XIVTED_clean_linker_0, # of connection points: 2
#     Edge 23, Type (0, 0), BuildingBlock: XIVTED_clean_linker_0, # of connection points: 2
#     Edge 24, Type (0, 0), BuildingBlock: XIVTED_clean_linker_0, # of connection points: 2
#     Edge 25, Type (0, 0), BuildingBlock: XIVTED_clean_linker_0, # of connection points: 2
#     Edge 26, Type (0, 0), BuildingBlock: XIVTED_clean_linker_0, # of connection points: 2
#     Edge 27, Type (0, 0), BuildingBlock: XIVTED_clean_linker_0, # of connection points: 2
# Relax obj value: 0.000
# Max RMSD: 0.000
# Mean RMSD: 0.000
data_MOF--net-fcu--node1-ZALLEG_clean_sbu_0--edge1-XIVTED_clean_linker_0
_symmetry_space_group_name_H-M    P1
_symmetry_Int_Tables_number       1
_symmetry_cell_setting            triclinic
loop_
_symmetry_equiv_pos_as_xyz
'x, y, z'
_cell_length_a     26.826517
_cell_length_b     26.832852
_cell_length_c     26.829771
_cell_angle_alpha  89.999573
_cell_angle_beta   90.000012
_cell_angle_gamma 90.001538
loop_
_atom_site_label
_atom_site_type_symbol
_atom_site_fract_x
_atom_site_fract_y
_atom_site_fract_z
_atom_type_partial_charge
H0 H 0.94072 0.94088 0.94085 0.0
O1 O 0.96205 0.96206 0.96209 0.0
Tb2 Tb 0.91827 0.0083 1.00761 0.0
Tb3 Tb 1.00746 0.91799 0.00819 0.0
Tb4 Tb 0.00829 1.00746 0.91814 0.0
O5 O 0.9618 0.96233 0.05372 0.0
O6 O 0.96262 0.05372 0.96184 0.0
O7 O 0.96238 0.05393 0.05348 0.0
O8 O 0.05349 0.96176 0.05393 0.0
O9 O 0.05415 0.05323 0.96206 0.0
O10 O 0.05366 0.96148 0.96229 0.0
H11 H 0.9404 0.94124 0.07498 0.0
H12 H 0.94151 0.07501 0.9405 0.0
Tb13 Tb 1.00785 0.00793 0.09763 0.0
Tb14 Tb 0.00852 0.09758 1.00772 0.0
H15 H 0.94119 0.07532 0.07466 0.0
H16 H 0.07462 0.94047 0.07526 0.0
Tb17 Tb 0.09767 1.00724 0.00803 0.0
H18 H 0.07557 0.07431 0.94079 0.0
H19 H 0.07486 0.94009 0.94113 0.0
O20 O 0.05397 0.05343 0.05369 0.0
H21 H 0.07531 0.0746 0.07493 0.0
O22 O 0.87495 0.93873 1.00779 0.0
O23 O 0.14098 0.07682 0.00792 0.0
O24 O 0.14016 0.93711 0.00825 0.0
O25 O 0.8758 0.07842 1.00743 0.0
O26 O 1.00736 0.87489 0.93855 0.0
O27 O 0.00859 0.14047 0.07777 0.0
O28 O 0.0088 0.14019 0.93759 0.0
O29 O 1.00714 0.87534 0.07824 0.0
O30 O 0.93866 1.00764 0.87503 0.0
O31 O 0.07789 1.00766 0.14055 0.0
O32 O 0.93774 0.00831 0.14029 0.0
O33 O 0.07831 1.00706 0.87544 0.0
O34 O 0.9373 0.87556 0.00809 0.0
O35 O 0.07865 0.14 1.00777 0.0
O36 O 0.93891 0.14082 1.00749 0.0
O37 O 0.07704 0.87472 0.00838 0.0
O38 O 0.87521 0.00872 0.07728 0.0
O39 O 0.1408 1.00692 0.93845 0.0
O40 O 0.14054 1.00729 0.07769 0.0
O41 O 0.87563 0.00839 0.93753 0.0
O42 O 1.00746 0.93834 0.14073 0.0
O43 O 0.00865 0.07716 0.87508 0.0
O44 O 0.00799 0.93737 0.87552 0.0
O45 O 0.00812 0.07762 0.14044 0.0
C46 C 0.88971 0.89095 0.00795 0.0
C47 C 0.12623 0.12459 1.00783 0.0
C48 C 0.12481 0.88952 0.00835 0.0
C49 C 0.89115 0.12601 1.00742 0.0
C50 C 1.00761 0.88975 0.89082 0.0
C51 C 0.0084 0.12529 0.12547 0.0
C52 C 0.00878 0.1249 0.88995 0.0
C53 C 1.00723 0.89063 0.12586 0.0
C54 C 0.89093 0.00804 0.8899 0.0
C55 C 0.12558 1.00748 0.12536 0.0
C56 C 0.89009 0.00862 0.12501 0.0
C57 C 0.12593 1.00692 0.89073 0.0
H58 H 0.94115 0.44061 0.44052 0.0
O59 O 0.96228 0.46191 0.46184 0.0
Tb60 Tb 0.91813 0.50787 0.50726 0.0
Tb61 Tb 1.00774 0.41807 0.50806 0.0
Tb62 Tb 0.00843 0.50765 0.41817 0.0
O63 O 0.96175 0.46221 0.55351 0.0
O64 O 0.96223 0.55358 0.46154 0.0
O65 O 0.96169 0.55388 0.55322 0.0
O66 O 0.05332 0.46224 0.554 0.0
O67 O 0.05394 0.5536 0.46219 0.0
O68 O 0.05393 0.46193 0.46249 0.0
H69 H 0.94037 0.44103 0.57471 0.0
H70 H 0.94108 0.57475 0.4401 0.0
Tb71 Tb 1.00729 0.50824 0.59754 0.0
Tb72 Tb 1.0077 0.59766 0.50747 0.0
H73 H 0.9403 0.57517 0.57429 0.0
H74 H 0.07446 0.44107 0.57545 0.0
Tb75 Tb 0.09765 0.50791 0.50841 0.0
H76 H 0.07529 0.5748 0.44097 0.0
H77 H 0.0753 0.44065 0.44139 0.0
O78 O 0.05334 0.5539 0.55371 0.0
H79 H 0.07446 0.57521 0.57503 0.0
O80 O 0.87515 0.43824 0.50719 0.0
O81 O 0.14038 0.57803 0.50842 0.0
O82 O 0.1404 0.4378 0.50877 0.0
O83 O 0.87511 0.57747 0.50686 0.0
O84 O 0.00815 0.37512 0.43805 0.0
O85 O 1.00737 0.6408 0.57708 0.0
O86 O 0.00807 0.64026 0.43741 0.0
O87 O 1.00746 0.37551 0.57822 0.0
O88 O 0.93889 0.50745 0.3748 0.0
O89 O 0.07686 0.50841 0.64087 0.0
O90 O 0.93716 0.50831 0.63999 0.0
O91 O 0.07859 0.50754 0.37574 0.0
O92 O 0.93771 0.3753 0.50788 0.0
O93 O 0.07741 0.6406 0.50775 0.0
O94 O 0.93767 0.64042 0.50705 0.0
O95 O 0.07746 0.37518 0.50856 0.0
O96 O 0.87481 0.50799 0.57683 0.0
O97 O 0.14098 0.50778 0.43887 0.0
O98 O 0.14006 0.50808 0.57856 0.0
O99 O 0.8757 0.50768 0.43713 0.0
O100 O 1.00713 0.43859 0.64067 0.0
O101 O 0.00859 0.5772 0.37498 0.0
O102 O 0.00867 0.43795 0.37537 0.0
O103 O 1.00705 0.57834 0.64013 0.0
C104 C 0.89007 0.39055 0.50751 0.0
C105 C 0.12513 0.62569 0.50812 0.0
C106 C 0.12517 0.39013 0.50877 0.0
C107 C 0.89002 0.62517 0.50686 0.0
C108 C 0.00849 0.39029 0.39035 0.0
C109 C 1.00715 0.62595 0.62482 0.0
C110 C 0.00839 0.62493 0.3898 0.0
C111 C 1.00726 0.39084 0.62584 0.0
C112 C 0.89111 0.50751 0.38955 0.0
C113 C 0.12465 0.50829 0.62613 0.0
C114 C 0.88957 0.50816 0.6246 0.0
C115 C 0.12619 0.50764 0.3911 0.0
H116 H 0.44117 0.94089 0.44073 0.0
O117 O 0.46238 0.96215 0.46202 0.0
Tb118 Tb 0.41826 0.0079 0.50774 0.0
Tb119 Tb 0.50813 0.91814 0.50792 0.0
Tb120 Tb 0.50818 0.00807 0.41811 0.0
O121 O 0.46211 0.9621 0.55362 0.0
O122 O 0.46228 0.05377 0.46202 0.0
O123 O 0.46202 0.05379 0.55363 0.0
O124 O 0.55364 0.96213 0.55397 0.0
O125 O 0.55398 0.05374 0.46222 0.0
O126 O 0.5539 0.96219 0.46221 0.0
H127 H 0.44081 0.94084 0.57482 0.0
H128 H 0.44106 0.07503 0.44074 0.0
Tb129 Tb 0.50764 0.00804 0.59772 0.0
Tb130 Tb 0.50811 0.09761 0.50793 0.0
H131 H 0.44071 0.07504 0.57482 0.0
H132 H 0.57487 0.94091 0.57527 0.0
Tb133 Tb 0.59766 0.00791 0.50828 0.0
H134 H 0.5753 0.07501 0.44105 0.0
H135 H 0.57523 0.94096 0.44102 0.0
O136 O 0.5537 0.05377 0.55397 0.0
H137 H 0.5749 0.07504 0.57526 0.0
O138 O 0.3755 0.93779 0.50764 0.0
O139 O 0.64069 0.07749 0.50842 0.0
O140 O 0.64067 0.93831 0.50835 0.0
O141 O 0.37547 0.07798 0.50767 0.0
O142 O 0.50828 0.87541 0.43779 0.0
O143 O 0.50788 0.1406 0.57754 0.0
O144 O 0.50824 0.1406 0.43831 0.0
O145 O 0.50795 0.87538 0.57803 0.0
O146 O 0.43814 0.00804 0.37519 0.0
O147 O 0.57724 0.00812 0.64088 0.0
O148 O 0.43756 0.00797 0.64034 0.0
O149 O 0.57832 0.00811 0.37553 0.0
O150 O 0.43844 0.87519 0.50774 0.0
O151 O 0.57812 0.14041 0.50806 0.0
O152 O 0.43841 0.14056 0.50777 0.0
O153 O 0.57813 0.87536 0.50803 0.0
O154 O 0.3751 0.00783 0.5773 0.0
O155 O 0.64078 0.00786 0.43862 0.0
O156 O 0.64028 0.00785 0.57839 0.0
O157 O 0.37545 0.00779 0.43804 0.0
O158 O 0.50763 0.93832 0.64064 0.0
O159 O 0.50823 0.07808 0.37535 0.0
O160 O 0.50827 0.93835 0.37518 0.0
O161 O 0.50753 0.07806 0.6405 0.0
C162 C 0.39073 0.89013 0.50766 0.0
C163 C 0.62578 0.12518 0.50827 0.0
C164 C 0.62577 0.89061 0.50819 0.0
C165 C 0.3907 0.12565 0.50771 0.0
C166 C 0.5083 0.89064 0.39012 0.0
C167 C 0.50766 0.1257 0.62524 0.0
C168 C 0.50824 0.12571 0.39061 0.0
C169 C 0.50778 0.89061 0.6257 0.0
C170 C 0.39044 0.00788 0.39037 0.0
C171 C 0.62498 0.00799 0.62601 0.0
C172 C 0.38994 0.00787 0.62502 0.0
C173 C 0.62595 0.00798 0.39087 0.0
H174 H 0.44077 0.44098 0.94051 0.0
O175 O 0.46203 0.46213 0.96184 0.0
Tb176 Tb 0.41817 0.50825 1.00743 0.0
Tb177 Tb 0.50742 0.41805 0.00789 0.0
Tb178 Tb 0.50837 0.5076 0.91814 0.0
O179 O 0.46159 0.46215 0.05348 0.0
O180 O 0.46262 0.55376 0.96185 0.0
O181 O 0.46216 0.55377 0.05348 0.0
O182 O 0.55331 0.46164 0.05393 0.0
O183 O 0.55419 0.55325 0.96229 0.0
O184 O 0.55376 0.46163 0.96229 0.0
H185 H 0.44015 0.44099 0.07464 0.0
H186 H 0.44155 0.5751 0.9405 0.0
Tb187 Tb 0.50747 0.50762 0.09763 0.0
Tb188 Tb 0.50844 0.59752 0.00789 0.0
H189 H 0.44092 0.57511 0.07465 0.0
H190 H 0.57436 0.44028 0.07526 0.0
Tb191 Tb 0.59769 0.50724 0.00832 0.0
H192 H 0.57563 0.5744 0.94112 0.0
H193 H 0.575 0.44027 0.94113 0.0
O194 O 0.55375 0.55326 0.05392 0.0
H195 H 0.57503 0.5744 0.07526 0.0
O196 O 0.37489 0.43867 1.00731 0.0
O197 O 0.64095 0.57684 0.0084 0.0
O198 O 0.64018 0.43713 0.00844 0.0
O199 O 0.37572 0.57839 1.00731 0.0
O200 O 0.50754 0.37505 0.93829 0.0
O201 O 0.50834 0.64027 0.078 0.0
O202 O 0.5089 0.64025 0.93778 0.0
O203 O 0.50695 0.37507 0.07751 0.0
O204 O 0.43874 0.50792 0.87491 0.0
O205 O 0.57709 0.50736 0.14084 0.0
O206 O 0.43736 0.50799 0.14014 0.0
O207 O 0.57847 0.50732 0.87561 0.0
O208 O 0.43731 0.37557 1.00759 0.0
O209 O 0.57857 0.63998 0.00821 0.0
O210 O 0.43885 0.64077 1.00761 0.0
O211 O 0.57703 0.37477 0.00819 0.0
O212 O 0.37493 0.50839 0.07704 0.0
O213 O 0.6409 0.5071 0.9387 0.0
O214 O 0.6402 0.50705 0.07842 0.0
O215 O 0.37564 0.50848 0.93733 0.0
O216 O 0.50703 0.43763 0.14044 0.0
O217 O 0.50879 0.5773 0.87519 0.0
O218 O 0.50819 0.43759 0.87535 0.0
O219 O 0.50768 0.57732 0.14058 0.0
C220 C 0.3897 0.39091 1.00742 0.0
C221 C 0.62616 0.62461 0.00834 0.0
C222 C 0.6248 0.38954 0.00836 0.0
C223 C 0.39109 0.62598 1.00742 0.0
C224 C 0.50786 0.38996 0.8906 0.0
C225 C 0.50803 0.62503 0.12567 0.0
C226 C 0.50893 0.62501 0.89011 0.0
C227 C 0.50689 0.38998 0.12521 0.0
C228 C 0.39097 0.50827 0.88973 0.0
C229 C 0.62485 0.50716 0.12602 0.0
C230 C 0.38975 0.50825 0.1248 0.0
C231 C 0.62607 0.50718 0.89095 0.0
H232 H 0.00866 0.11196 0.22689 0.0
H233 H 0.00834 0.40361 0.28893 0.0
H234 H 0.00835 0.22718 0.11434 0.0
H235 H 0.00886 0.28839 0.40149 0.0
H236 H 0.00838 0.33952 0.22465 0.0
H237 H 0.00876 0.17606 0.29118 0.0
C238 C 0.00861 0.1507 0.21554 0.0
C239 C 0.0085 0.16403 0.16488 0.0
C240 C 0.00849 0.32824 0.2634 0.0
C241 C 0.00861 0.23782 0.23876 0.0
C242 C 0.00848 0.36488 0.30029 0.0
C243 C 0.0086 0.35154 0.35094 0.0
C244 C 0.00863 0.27775 0.27707 0.0
C245 C 0.00875 0.3006 0.36304 0.0
C246 C 0.00867 0.18733 0.25242 0.0
C247 C 0.00845 0.21497 0.15279 0.0
N248 N 0.00876 0.26562 0.32638 0.0
N249 N 0.0085 0.24995 0.18944 0.0
H250 H 0.78865 0.01278 0.11203 0.0
H251 H 0.72741 1.00389 0.40391 0.0
H252 H 0.90143 1.00464 0.22676 0.0
H253 H 0.61469 0.0121 0.28913 0.0
H254 H 0.79155 1.00412 0.33956 0.0
H255 H 0.72455 0.0126 0.17641 0.0
C256 C 0.80007 0.01093 0.15071 0.0
C257 C 0.85073 0.00871 0.16383 0.0
C258 C 0.75278 1.00588 0.32845 0.0
C259 C 0.77713 0.0085 0.23792 0.0
C260 C 0.716 1.00578 0.36524 0.0
C261 C 0.66535 0.008 0.35209 0.0
C262 C 0.73899 0.00826 0.27803 0.0
C263 C 0.65314 0.01028 0.30121 0.0
C264 C 0.76332 0.01085 0.1875 0.0
C265 C 0.86297 1.00646 0.2147 0.0
N266 N 0.68967 0.01037 0.2661 0.0
N267 N 0.82645 1.00639 0.24983 0.0
H268 H 1.00784 0.90373 0.22734 0.0
H269 H 1.0078 0.61178 0.28832 0.0
H270 H 1.00675 0.78886 0.11443 0.0
H271 H 0.00885 0.72669 0.40118 0.0
H272 H 1.00747 0.67612 0.22421 0.0
H273 H 0.00819 0.83936 0.29141 0.0
C274 C 1.00765 0.86503 0.21588 0.0
C275 C 1.00726 0.85185 0.1652 0.0
C276 C 1.00778 0.68726 0.26301 0.0
C277 C 1.00768 0.77779 0.23875 0.0
C278 C 0.00798 0.65048 0.29976 0.0
C279 C 0.00835 0.66368 0.35044 0.0
C280 C 0.00794 0.73771 0.27686 0.0
C281 C 0.00855 0.71458 0.36271 0.0
C282 C 1.00787 0.82824 0.25262 0.0
C283 C 1.00705 0.80095 0.15291 0.0
N284 N 0.00834 0.74968 0.32619 0.0
N285 N 1.00727 0.76584 0.18941 0.0
H286 H 0.2891 1.00361 0.40362 0.0
H287 H 0.22693 0.01159 0.11209 0.0
H288 H 0.40153 0.01178 0.28855 0.0
H289 H 0.11451 1.00358 0.22718 0.0
H290 H 0.29122 0.01165 0.17619 0.0
H291 H 0.22481 1.0035 0.33952 0.0
C292 C 0.30042 1.00543 0.36492 0.0
C293 C 0.35104 1.00773 0.35163 0.0
C294 C 0.2525 0.00986 0.18743 0.0
C295 C 0.27717 1.0076 0.27782 0.0
C296 C 0.21561 0.00979 0.15079 0.0
C297 C 0.16499 1.00755 0.1641 0.0
C298 C 0.23887 1.00763 0.23789 0.0
C299 C 0.15293 1.00541 0.21501 0.0
C300 C 0.26354 1.00534 0.32828 0.0
C301 C 0.36311 0.00991 0.30072 0.0
N302 N 0.18958 1.00548 0.24999 0.0
N303 N 0.32646 0.00981 0.26573 0.0
H304 H 1.00679 0.78825 0.90385 0.0
H305 H 1.00781 0.72746 0.61177 0.0
H306 H 0.00812 0.90122 0.78903 0.0
H307 H 1.00642 0.61451 0.7266 0.0
H308 H 1.00788 0.79151 0.67619 0.0
H309 H 1.0066 0.72422 0.83942 0.0
C310 C 1.00704 0.79973 0.86515 0.0
C311 C 1.00747 0.85042 0.85201 0.0
C312 C 1.00755 0.75271 0.68729 0.0
C313 C 1.00726 0.7769 0.77787 0.0
C314 C 1.0075 0.71599 0.65047 0.0
C315 C 1.0071 0.6653 0.66362 0.0
C316 C 1.00719 0.73883 0.73774 0.0
C317 C 1.00674 0.653 0.71452 0.0
C318 C 1.00693 0.76301 0.82833 0.0
C319 C 1.00778 0.86273 0.80111 0.0
N320 N 1.00679 0.68948 0.74966 0.0
N321 N 1.00767 0.82625 0.76596 0.0
H322 H 0.22742 1.00772 0.90385 0.0
H323 H 0.28845 1.00697 0.61188 0.0
H324 H 0.11452 1.00618 0.78895 0.0
H325 H 0.40133 0.00844 0.72681 0.0
H326 H 0.22434 1.00667 0.67623 0.0
H327 H 0.29152 0.00795 0.8395 0.0
C328 C 0.21597 1.0074 0.86514 0.0
C329 C 0.16529 1.00692 0.85196 0.0
C330 C 0.26314 1.00706 0.68737 0.0
C331 C 0.23887 1.0072 0.77791 0.0
C332 C 0.2999 1.00724 0.65059 0.0
C333 C 0.35058 1.00773 0.66379 0.0
C334 C 0.27699 1.00738 0.73783 0.0
C335 C 0.36285 0.00805 0.7147 0.0
C336 C 0.25272 1.00755 0.82836 0.0
C337 C 0.15301 1.00656 0.80105 0.0
N338 N 0.32633 0.00787 0.7498 0.0
N339 N 0.18952 1.00671 0.76594 0.0
H340 H 1.00655 0.4039 0.72738 0.0
H341 H 0.00943 0.11187 0.78841 0.0
H342 H 0.00821 0.28903 0.6145 0.0
H343 H 0.00794 0.22671 0.90133 0.0
H344 H 0.009 0.17626 0.72433 0.0
H345 H 1.00699 0.33953 0.79149 0.0
C346 C 1.007 0.3652 0.71593 0.0
C347 C 1.00734 0.35204 0.66523 0.0
C348 C 0.00878 0.18737 0.76313 0.0
C349 C 1.00787 0.27795 0.73885 0.0
C350 C 0.00903 0.15057 0.79988 0.0
C351 C 0.00873 0.16371 0.85058 0.0
C352 C 0.00821 0.23783 0.77698 0.0
C353 C 0.00821 0.21462 0.86285 0.0
C354 C 1.00725 0.32841 0.75269 0.0
C355 C 0.00791 0.30113 0.65298 0.0
N356 N 0.00796 0.24975 0.82634 0.0
N357 N 0.00816 0.26601 0.6895 0.0
H358 H 0.612 0.01252 0.72742 0.0
H359 H 0.9039 1.00343 0.78849 0.0
H360 H 0.72669 1.00362 0.61466 0.0
H361 H 0.78922 0.01261 0.90125 0.0
H362 H 0.83949 1.00343 0.72442 0.0
H363 H 0.6764 0.01255 0.7915 0.0
C364 C 0.65067 0.01053 0.716 0.0
C365 C 0.66378 0.00805 0.66536 0.0
C366 C 0.82842 1.00546 0.76318 0.0
C367 C 0.73789 0.00809 0.73891 0.0
C368 C 0.86523 1.00549 0.79992 0.0
C369 C 0.85213 0.00804 0.85056 0.0
C370 C 0.77801 0.00803 0.77701 0.0
C371 C 0.80126 0.01053 0.8628 0.0
C372 C 0.68748 0.01058 0.75274 0.0
C373 C 0.71465 1.00564 0.65311 0.0
N374 N 0.76612 0.01048 0.82631 0.0
N375 N 0.74978 1.00571 0.6896 0.0
H376 H 0.28816 0.4038 0.00959 0.0
H377 H 0.22778 0.11163 1.00576 0.0
H378 H 0.40129 0.28921 1.00532 0.0
H379 H 0.11472 0.22629 0.00977 0.0
H380 H 0.29178 0.17615 1.00565 0.0
H381 H 0.22421 0.33925 0.00971 0.0
C382 C 0.29969 0.36513 0.00864 0.0
C383 C 0.35039 0.35208 1.00743 0.0
C384 C 0.25296 0.18718 1.00656 0.0
C385 C 0.27701 0.27781 1.00758 0.0
C386 C 0.21628 0.15031 1.00664 0.0
C387 C 0.16558 0.16338 1.00778 0.0
C388 C 0.23901 0.23761 1.00764 0.0
C389 C 0.15322 0.21426 0.00883 0.0
C390 C 0.26303 0.32823 0.00873 0.0
C391 C 0.36278 0.30121 1.00631 0.0
N392 N 0.18965 0.24945 0.00875 0.0
N393 N 0.32637 0.266 1.00641 0.0
H394 H 0.40406 0.72751 1.00705 0.0
H395 H 0.11184 0.78798 0.0088 0.0
H396 H 0.28932 0.61445 0.00788 0.0
H397 H 0.22657 0.90105 1.00778 0.0
H398 H 0.17635 0.724 0.00853 0.0
H399 H 0.33955 0.7915 1.00732 0.0
C400 C 0.36536 0.716 1.00728 0.0
C401 C 0.35227 0.66531 1.00745 0.0
C402 C 0.18741 0.76281 0.00836 0.0
C403 C 0.27804 0.73874 1.00777 0.0
C404 C 0.15053 0.79949 0.00853 0.0
C405 C 0.16362 0.85019 0.00831 0.0
C406 C 0.23785 0.77676 0.00798 0.0
C407 C 0.21453 0.86255 0.00796 0.0
C408 C 0.32849 0.75269 1.00744 0.0
C409 C 0.30137 0.65295 1.00774 0.0
N410 N 0.24972 0.82612 1.0078 0.0
N411 N 0.26618 0.68938 0.0079 0.0
H412 H 0.61184 0.288 0.0097 0.0
H413 H 0.90407 0.22755 1.00595 0.0
H414 H 0.72656 0.40105 1.00693 0.0
H415 H 0.78939 0.11447 0.00899 0.0
H416 H 0.83953 0.29152 1.00623 0.0
H417 H 0.67636 0.22401 0.00943 0.0
C418 C 0.65053 0.29951 0.00903 0.0
C419 C 0.66362 0.3502 0.00834 0.0
C420 C 0.8285 0.2527 1.00683 0.0
C421 C 0.73785 0.27677 0.00801 0.0
C422 C 0.86538 0.21603 1.00668 0.0
C423 C 0.85231 0.16533 1.00745 0.0
C424 C 0.77805 0.23875 1.00778 0.0
C425 C 0.80142 0.15297 0.00834 0.0
C426 C 0.68741 0.26282 0.00888 0.0
C427 C 0.71452 0.36256 1.00752 0.0
N428 N 0.76622 0.18939 0.00849 0.0
N429 N 0.74971 0.32612 1.00737 0.0
H430 H 0.78823 0.90382 0.01253 0.0
H431 H 0.72764 0.61176 1.00377 0.0
H432 H 0.90116 0.78931 1.00357 0.0
H433 H 0.6147 0.72625 0.01278 0.0
H434 H 0.79162 0.6763 1.00366 0.0
H435 H 0.72424 0.83928 0.01263 0.0
C436 C 0.79971 0.86517 0.01053 0.0
C437 C 0.85037 0.85214 0.00803 0.0
C438 C 0.75284 0.6873 1.00569 0.0
C439 C 0.77694 0.77789 0.00816 0.0
C440 C 0.71616 0.65041 1.00579 0.0
C441 C 0.6655 0.66343 0.00831 0.0
C442 C 0.73892 0.73769 0.00817 0.0
C443 C 0.65317 0.71427 0.01072 0.0
C444 C 0.76302 0.82829 0.01063 0.0
C445 C 0.86269 0.8013 1.00563 0.0
N446 N 0.68959 0.74947 0.01061 0.0
N447 N 0.82626 0.7661 1.00574 0.0
H448 H 0.72763 0.50875 0.90385 0.0
H449 H 0.78801 0.5066 0.61163 0.0
H450 H 0.61449 0.50582 0.78921 0.0
H451 H 0.90109 0.50953 0.72633 0.0
H452 H 0.72402 0.50633 0.67616 0.0
H453 H 0.79158 0.50903 0.8393 0.0
C454 C 0.7161 0.50813 0.86517 0.0
C455 C 0.66539 0.50725 0.85211 0.0
C456 C 0.76283 0.50704 0.6872 0.0
C457 C 0.73878 0.50759 0.77784 0.0
C458 C 0.79952 0.50721 0.65032 0.0
C459 C 0.85022 0.50809 0.6634 0.0
C460 C 0.77679 0.50777 0.73764 0.0
C461 C 0.86259 0.50882 0.7143 0.0
C462 C 0.75276 0.50832 0.82828 0.0
C463 C 0.653 0.50653 0.80123 0.0
N464 N 0.82615 0.50864 0.74948 0.0
N465 N 0.68941 0.50672 0.76602 0.0
H466 H 0.11166 0.51068 0.72767 0.0
H467 H 0.40387 0.50599 0.7882 0.0
H468 H 0.22639 0.50607 0.61468 0.0
H469 H 0.28923 0.5107 0.90126 0.0
H470 H 0.33933 0.50603 0.72423 0.0
H471 H 0.17617 0.51072 0.79169 0.0
C472 C 0.15035 0.50966 0.71619 0.0
C473 C 0.16344 0.50837 0.6655 0.0
C474 C 0.3283 0.50707 0.76304 0.0
C475 C 0.23767 0.50842 0.73896 0.0
C476 C 0.36519 0.50706 0.79971 0.0
C477 C 0.35214 0.50835 0.85041 0.0
C478 C 0.27787 0.50839 0.77699 0.0
C479 C 0.30124 0.50965 0.86277 0.0
C480 C 0.18722 0.5097 0.75289 0.0
C481 C 0.21434 0.50713 0.65317 0.0
N482 N 0.26604 0.50964 0.82634 0.0
N483 N 0.24952 0.50718 0.68961 0.0
H484 H 0.22773 0.50994 0.40405 0.0
H485 H 0.28821 0.506 0.11187 0.0
H486 H 0.11468 0.50546 0.28938 0.0
H487 H 0.40128 0.51043 0.22652 0.0
H488 H 0.22423 0.50583 0.1764 0.0
H489 H 0.29173 0.51013 0.33953 0.0
C490 C 0.21623 0.50897 0.36537 0.0
C491 C 0.16553 0.50768 0.35229 0.0
C492 C 0.26304 0.50685 0.18743 0.0
C493 C 0.23897 0.50791 0.27806 0.0
C494 C 0.29972 0.50698 0.15055 0.0
C495 C 0.35042 0.50824 0.16362 0.0
C496 C 0.27699 0.50802 0.23786 0.0
C497 C 0.36278 0.50939 0.2145 0.0
C498 C 0.25291 0.50909 0.32849 0.0
C499 C 0.15318 0.50651 0.30141 0.0
N500 N 0.32635 0.50926 0.2497 0.0
N501 N 0.18961 0.50665 0.26622 0.0
H502 H 0.61192 0.50916 0.22754 0.0
H503 H 0.90412 0.50551 0.28802 0.0
H504 H 0.72659 0.50516 0.11447 0.0
H505 H 0.78938 0.50924 0.40103 0.0
H506 H 0.83961 0.50538 0.22401 0.0
H507 H 0.67645 0.50921 0.29151 0.0
C508 C 0.65061 0.50826 0.21603 0.0
C509 C 0.66368 0.50714 0.16533 0.0
C510 C 0.82856 0.50623 0.26282 0.0
C511 C 0.73792 0.50722 0.23874 0.0
C512 C 0.86542 0.50632 0.29951 0.0
C513 C 0.85232 0.50739 0.3502 0.0
C514 C 0.77811 0.50725 0.27676 0.0
C515 C 0.80142 0.50837 0.36254 0.0
C516 C 0.68749 0.50831 0.2527 0.0
C517 C 0.71457 0.50607 0.15296 0.0
N518 N 0.76625 0.50828 0.3261 0.0
N519 N 0.74977 0.50613 0.18939 0.0
H520 H 0.40387 0.78866 0.50708 0.0
H521 H 0.11195 0.72716 0.50876 0.0
H522 H 0.28885 0.9014 0.50824 0.0
H523 H 0.22701 0.61445 0.50747 0.0
H524 H 0.1762 0.79134 0.50861 0.0
H525 H 0.3396 0.72449 0.50722 0.0
C526 C 0.36515 0.80007 0.50737 0.0
C527 C 0.35192 0.85075 0.50765 0.0
C528 C 0.1874 0.75257 0.50836 0.0
C529 C 0.27793 0.77703 0.50782 0.0
C530 C 0.15067 0.71575 0.50844 0.0
C531 C 0.16392 0.66508 0.50812 0.0
C532 C 0.23789 0.73882 0.50795 0.0
C533 C 0.21485 0.65291 0.50774 0.0
C534 C 0.32842 0.76327 0.50744 0.0
C535 C 0.30099 0.86294 0.508 0.0
N536 N 0.24992 0.68949 0.50766 0.0
N537 N 0.26591 0.82637 0.50808 0.0
H538 H 0.112 0.28866 0.50978 0.0
H539 H 0.4039 0.22711 0.50685 0.0
H540 H 0.22705 0.40138 0.50785 0.0
H541 H 0.28882 0.11441 0.50878 0.0
H542 H 0.33965 0.2913 0.50722 0.0
H543 H 0.17625 0.22448 0.50951 0.0
C544 C 0.15072 0.30007 0.50931 0.0
C545 C 0.16396 0.35074 0.50883 0.0
C546 C 0.32845 0.25253 0.50757 0.0
C547 C 0.23793 0.27701 0.5085 0.0
C548 C 0.36517 0.21571 0.50736 0.0
C549 C 0.35192 0.16504 0.50779 0.0
C550 C 0.27796 0.23879 0.50823 0.0
C551 C 0.30098 0.15287 0.50841 0.0
C552 C 0.18745 0.26325 0.50915 0.0
C553 C 0.2149 0.36292 0.50825 0.0
N554 N 0.26593 0.18946 0.50862 0.0
N555 N 0.24996 0.32634 0.50809 0.0
H556 H 0.78856 0.612 0.5053 0.0
H557 H 0.72724 0.9038 0.50956 0.0
H558 H 0.90135 0.72696 0.50842 0.0
H559 H 0.61445 0.78883 0.50653 0.0
H560 H 0.7914 0.83954 0.50912 0.0
H561 H 0.72441 0.67626 0.50564 0.0
C562 C 0.79998 0.6507 0.50605 0.0
C563 C 0.85066 0.66393 0.50684 0.0
C564 C 0.75261 0.82837 0.50855 0.0
C565 C 0.77699 0.73789 0.50724 0.0
C566 C 0.71582 0.86509 0.5088 0.0
C567 C 0.66514 0.85186 0.50808 0.0
C568 C 0.73882 0.77791 0.50756 0.0
C569 C 0.65292 0.80096 0.50713 0.0
C570 C 0.76319 0.68743 0.50624 0.0
C571 C 0.86288 0.71483 0.50776 0.0
N572 N 0.68948 0.76589 0.5069 0.0
N573 N 0.82632 0.7499 0.50795 0.0
H574 H 0.72718 0.11203 0.51169 0.0
H575 H 0.78866 0.40372 0.50406 0.0
H576 H 0.61448 0.22692 0.50485 0.0
H577 H 0.90133 0.28881 0.51096 0.0
H578 H 0.72448 0.33948 0.50429 0.0
H579 H 0.79135 0.17628 0.51147 0.0
C580 C 0.71578 0.15072 0.51012 0.0
C581 C 0.66513 0.16393 0.50828 0.0
C582 C 0.76324 0.32831 0.50577 0.0
C583 C 0.73882 0.23787 0.50801 0.0
C584 C 0.80005 0.36503 0.50565 0.0
C585 C 0.85069 0.35181 0.50751 0.0
C586 C 0.777 0.27788 0.50778 0.0
C587 C 0.86288 0.30092 0.50944 0.0
C588 C 0.75258 0.18744 0.51001 0.0
C589 C 0.65294 0.21482 0.50636 0.0
N590 N 0.82631 0.26587 0.50954 0.0
N591 N 0.6895 0.24987 0.50627 0.0
H592 H 0.50919 0.28854 0.90382 0.0
H593 H 0.50603 0.22711 0.61202 0.0
H594 H 0.50647 0.40126 0.78879 0.0
H595 H 0.50914 0.1144 0.72705 0.0
H596 H 0.50608 0.29128 0.67626 0.0
H597 H 0.50909 0.22437 0.83958 0.0
C598 C 0.50856 0.29994 0.8651 0.0
C599 C 0.50783 0.3506 0.85185 0.0
C600 C 0.50675 0.25251 0.68745 0.0
C601 C 0.50772 0.27692 0.77792 0.0
C602 C 0.50674 0.21571 0.65074 0.0
C603 C 0.5076 0.16506 0.66399 0.0
C604 C 0.50764 0.23874 0.73792 0.0
C605 C 0.50844 0.15286 0.7149 0.0
C606 C 0.50851 0.26314 0.82839 0.0
C607 C 0.50707 0.3628 0.80093 0.0
N608 N 0.50845 0.18942 0.74996 0.0
N609 N 0.50703 0.32623 0.76588 0.0
H610 H 0.50926 0.90374 0.72718 0.0
H611 H 0.5075 0.61186 0.78863 0.0
H612 H 0.50657 0.78877 0.61442 0.0
H613 H 0.51023 0.72685 0.90137 0.0
H614 H 0.50718 0.67613 0.72446 0.0
H615 H 0.50959 0.83947 0.79134 0.0
C616 C 0.50871 0.86503 0.71576 0.0
C617 C 0.50788 0.85182 0.66509 0.0
C618 C 0.50787 0.68731 0.76323 0.0
C619 C 0.50829 0.77782 0.7388 0.0
C620 C 0.50807 0.65057 0.80004 0.0
C621 C 0.50891 0.66379 0.85072 0.0
C622 C 0.50852 0.73778 0.777 0.0
C623 C 0.50957 0.71471 0.86291 0.0
C624 C 0.50892 0.82829 0.75257 0.0
C625 C 0.50724 0.8009 0.65289 0.0
N626 N 0.50936 0.74978 0.82633 0.0
N627 N 0.50746 0.76582 0.68946 0.0
H628 H 0.50952 0.61189 0.22715 0.0
H629 H 0.50685 0.90376 0.28863 0.0
H630 H 0.50675 0.72688 0.11441 0.0
H631 H 0.50971 0.78879 0.40139 0.0
H632 H 0.50681 0.8395 0.22446 0.0
H633 H 0.50961 0.67615 0.29133 0.0
C634 C 0.50891 0.6506 0.21574 0.0
C635 C 0.50812 0.66382 0.16506 0.0
C636 C 0.50746 0.82832 0.26324 0.0
C637 C 0.50823 0.7378 0.23879 0.0
C638 C 0.50749 0.86506 0.30005 0.0
C639 C 0.50829 0.85185 0.35073 0.0
C640 C 0.50825 0.77785 0.27701 0.0
C641 C 0.50906 0.80092 0.36292 0.0
C642 C 0.50898 0.68733 0.25256 0.0
C643 C 0.5074 0.71474 0.15288 0.0
N644 N 0.50902 0.76585 0.32635 0.0
N645 N 0.50747 0.74981 0.18946 0.0
H646 H 0.50936 0.22715 0.40383 0.0
H647 H 0.5057 0.28855 0.11202 0.0
H648 H 0.50689 0.11443 0.2888 0.0
H649 H 0.50815 0.4013 0.22702 0.0
H650 H 0.50607 0.2244 0.17627 0.0
H651 H 0.50895 0.29132 0.33959 0.0
C652 C 0.50873 0.21574 0.36512 0.0
C653 C 0.50815 0.16508 0.35186 0.0
C654 C 0.50652 0.26317 0.18745 0.0
C655 C 0.50767 0.23878 0.27793 0.0
C656 C 0.5063 0.29997 0.15073 0.0
C657 C 0.50689 0.35063 0.16397 0.0
C658 C 0.50734 0.27695 0.23792 0.0
C659 C 0.50765 0.36284 0.21489 0.0
C660 C 0.5085 0.25255 0.3284 0.0
C661 C 0.50737 0.15289 0.30095 0.0
N662 N 0.50786 0.32628 0.24995 0.0
N663 N 0.50714 0.18945 0.2659 0.0
loop_
_geom_bond_atom_site_label_1
_geom_bond_atom_site_label_2
_geom_bond_distance
_geom_bond_site_symmetry_2
_ccdc_geom_bond_type
H0 O1 0.850 . S
O1 H0 0.850 . S
O1 Tb2 2.341 1_566 S
O1 Tb3 2.341 1_656 S
O1 Tb4 2.341 1_665 S
Tb2 O1 2.341 1_544 S
Tb2 O5 2.341 1_545 S
Tb2 O6 2.341 1_554 S
Tb2 O7 2.341 . S
Tb2 O22 2.344 1_545 S
Tb2 O25 2.344 . S
Tb2 O38 2.344 . S
Tb2 O41 2.344 1_554 S
Tb3 O1 2.341 1_454 S
Tb3 O5 2.341 1_455 S
Tb3 O8 2.341 . S
Tb3 O10 2.341 1_554 S
Tb3 O26 2.344 1_554 S
Tb3 O29 2.344 . S
Tb3 O34 2.344 1_455 S
Tb3 O37 2.344 . S
Tb4 O1 2.341 1_445 S
Tb4 O6 2.341 1_455 S
Tb4 O9 2.341 . S
Tb4 O10 2.341 1_545 S
Tb4 O30 2.344 1_455 S
Tb4 O33 2.344 . S
Tb4 O43 2.344 . S
Tb4 O44 2.344 1_545 S
O5 Tb2 2.341 1_565 S
O5 Tb3 2.341 1_655 S
O5 H11 0.850 . S
O5 Tb13 2.341 1_665 S
O6 Tb2 2.341 1_556 S
O6 Tb4 2.341 1_655 S
O6 H12 0.850 . S
O6 Tb14 2.341 1_656 S
O7 Tb2 2.341 . S
O7 Tb13 2.341 1_655 S
O7 Tb14 2.341 1_655 S
O7 H15 0.850 . S
O8 Tb3 2.341 . S
O8 Tb13 2.341 1_565 S
O8 H16 0.850 . S
O8 Tb17 2.341 1_565 S
O9 Tb4 2.341 . S
O9 Tb14 2.341 1_556 S
O9 Tb17 2.341 1_556 S
O9 H18 0.850 . S
O10 Tb3 2.341 1_556 S
O10 Tb4 2.341 1_565 S
O10 Tb17 2.341 1_566 S
O10 H19 0.850 . S
H11 O5 0.850 . S
H12 O6 0.850 . S
Tb13 O5 2.341 1_445 S
Tb13 O7 2.341 1_455 S
Tb13 O8 2.341 1_545 S
Tb13 O20 2.341 . S
Tb13 O31 2.344 . S
Tb13 O32 2.344 1_455 S
Tb13 O42 2.344 1_545 S
Tb13 O45 2.344 . S
Tb14 O6 2.341 1_454 S
Tb14 O7 2.341 1_455 S
Tb14 O9 2.341 1_554 S
Tb14 O20 2.341 . S
Tb14 O27 2.344 . S
Tb14 O28 2.344 1_554 S
Tb14 O35 2.344 . S
Tb14 O36 2.344 1_455 S
H15 O7 0.850 . S
H16 O8 0.850 . S
Tb17 O8 2.341 1_545 S
Tb17 O9 2.341 1_554 S
Tb17 O10 2.341 1_544 S
Tb17 O20 2.341 . S
Tb17 O23 2.344 . S
Tb17 O24 2.344 1_545 S
Tb17 O39 2.344 1_554 S
Tb17 O40 2.344 . S
H18 O9 0.850 . S
H19 O10 0.850 . S
O20 Tb13 2.341 . S
O20 Tb14 2.341 . S
O20 Tb17 2.341 . S
O20 H21 0.850 . S
H21 O20 0.850 . S
O22 Tb2 2.344 1_565 S
O22 C46 1.272 . S
O23 Tb17 2.344 . S
O23 C47 1.272 . S
O24 Tb17 2.344 1_565 S
O24 C48 1.272 . S
O25 Tb2 2.344 . S
O25 C49 1.272 . S
O26 Tb3 2.344 1_556 S
O26 C50 1.272 . S
O27 Tb14 2.344 . S
O27 C51 1.272 . S
O28 Tb14 2.344 1_556 S
O28 C52 1.272 . S
O29 Tb3 2.344 . S
O29 C53 1.272 . S
O30 Tb4 2.344 1_655 S
O30 C54 1.272 . S
O31 Tb13 2.344 . S
O31 C55 1.272 . S
O32 Tb13 2.344 1_655 S
O32 C56 1.272 . S
O33 Tb4 2.344 . S
O33 C57 1.272 . S
O34 Tb3 2.344 1_655 S
O34 C46 1.272 . S
O35 Tb14 2.344 . S
O35 C47 1.272 . S
O36 Tb14 2.344 1_655 S
O36 C49 1.272 . S
O37 Tb3 2.344 . S
O37 C48 1.272 . S
O38 Tb2 2.344 . S
O38 C56 1.272 . S
O39 Tb17 2.344 1_556 S
O39 C57 1.272 . S
O40 Tb17 2.344 . S
O40 C55 1.272 . S
O41 Tb2 2.344 1_556 S
O41 C54 1.272 . S
O42 Tb13 2.344 1_565 S
O42 C53 1.272 . S
O43 Tb4 2.344 . S
O43 C52 1.272 . S
O44 Tb4 2.344 1_565 S
O44 C50 1.272 . S
O45 Tb13 2.344 . S
O45 C51 1.272 . S
C46 O22 1.272 . S
C46 O34 1.272 . S
C47 O23 1.272 . S
C47 O35 1.272 . S
C48 O24 1.272 . S
C48 O37 1.272 . S
C49 O25 1.272 . S
C49 O36 1.272 . S
C50 O26 1.272 . S
C50 O44 1.272 . S
C51 O27 1.272 . S
C51 O45 1.272 . S
C52 O28 1.272 . S
C52 O43 1.272 . S
C53 O29 1.272 . S
C53 O42 1.272 . S
C54 O30 1.272 . S
C54 O41 1.272 . S
C55 O31 1.272 . S
C55 O40 1.272 . S
C56 O32 1.272 . S
C56 O38 1.272 . S
C57 O33 1.272 . S
C57 O39 1.272 . S
H58 O59 0.850 . S
O59 H58 0.850 . S
O59 Tb60 2.341 . S
O59 Tb61 2.341 1_655 S
O59 Tb62 2.341 1_655 S
Tb60 O59 2.341 . S
Tb60 O63 2.341 . S
Tb60 O64 2.341 . S
Tb60 O65 2.341 . S
Tb60 O80 2.344 . S
Tb60 O83 2.344 . S
Tb60 O96 2.344 . S
Tb60 O99 2.344 . S
Tb61 O59 2.341 1_455 S
Tb61 O63 2.341 1_455 S
Tb61 O66 2.341 . S
Tb61 O68 2.341 . S
Tb61 O84 2.344 . S
Tb61 O87 2.344 . S
Tb61 O92 2.344 1_455 S
Tb61 O95 2.344 . S
Tb62 O59 2.341 1_455 S
Tb62 O64 2.341 1_455 S
Tb62 O67 2.341 . S
Tb62 O68 2.341 . S
Tb62 O88 2.344 1_455 S
Tb62 O91 2.344 . S
Tb62 O101 2.344 . S
Tb62 O102 2.344 . S
O63 Tb60 2.341 . S
O63 Tb61 2.341 1_655 S
O63 H69 0.850 . S
O63 Tb71 2.341 1_655 S
O64 Tb60 2.341 . S
O64 Tb62 2.341 1_655 S
O64 H70 0.850 . S
O64 Tb72 2.341 1_655 S
O65 Tb60 2.341 . S
O65 Tb71 2.341 1_655 S
O65 Tb72 2.341 1_655 S
O65 H73 0.850 . S
O66 Tb61 2.341 . S
O66 Tb71 2.341 . S
O66 H74 0.850 . S
O66 Tb75 2.341 . S
O67 Tb62 2.341 . S
O67 Tb72 2.341 . S
O67 Tb75 2.341 . S
O67 H76 0.850 . S
O68 Tb61 2.341 . S
O68 Tb62 2.341 . S
O68 Tb75 2.341 . S
O68 H77 0.850 . S
H69 O63 0.850 . S
H70 O64 0.850 . S
Tb71 O63 2.341 1_455 S
Tb71 O65 2.341 1_455 S
Tb71 O66 2.341 . S
Tb71 O78 2.341 . S
Tb71 O89 2.344 . S
Tb71 O90 2.344 1_455 S
Tb71 O100 2.344 . S
Tb71 O103 2.344 . S
Tb72 O64 2.341 1_455 S
Tb72 O65 2.341 1_455 S
Tb72 O67 2.341 . S
Tb72 O78 2.341 . S
Tb72 O85 2.344 . S
Tb72 O86 2.344 . S
Tb72 O93 2.344 . S
Tb72 O94 2.344 1_455 S
H73 O65 0.850 . S
H74 O66 0.850 . S
Tb75 O66 2.341 . S
Tb75 O67 2.341 . S
Tb75 O68 2.341 . S
Tb75 O78 2.341 . S
Tb75 O81 2.344 . S
Tb75 O82 2.344 . S
Tb75 O97 2.344 . S
Tb75 O98 2.344 . S
H76 O67 0.850 . S
H77 O68 0.850 . S
O78 Tb71 2.341 . S
O78 Tb72 2.341 . S
O78 Tb75 2.341 . S
O78 H79 0.850 . S
H79 O78 0.850 . S
O80 Tb60 2.344 . S
O80 C104 1.272 . S
O81 Tb75 2.344 . S
O81 C105 1.272 . S
O82 Tb75 2.344 . S
O82 C106 1.272 . S
O83 Tb60 2.344 . S
O83 C107 1.272 . S
O84 Tb61 2.344 . S
O84 C108 1.272 . S
O85 Tb72 2.344 . S
O85 C109 1.272 . S
O86 Tb72 2.344 . S
O86 C110 1.272 . S
O87 Tb61 2.344 . S
O87 C111 1.272 . S
O88 Tb62 2.344 1_655 S
O88 C112 1.272 . S
O89 Tb71 2.344 . S
O89 C113 1.272 . S
O90 Tb71 2.344 1_655 S
O90 C114 1.272 . S
O91 Tb62 2.344 . S
O91 C115 1.272 . S
O92 Tb61 2.344 1_655 S
O92 C104 1.272 . S
O93 Tb72 2.344 . S
O93 C105 1.272 . S
O94 Tb72 2.344 1_655 S
O94 C107 1.272 . S
O95 Tb61 2.344 . S
O95 C106 1.272 . S
O96 Tb60 2.344 . S
O96 C114 1.272 . S
O97 Tb75 2.344 . S
O97 C115 1.272 . S
O98 Tb75 2.344 . S
O98 C113 1.272 . S
O99 Tb60 2.344 . S
O99 C112 1.272 . S
O100 Tb71 2.344 . S
O100 C111 1.272 . S
O101 Tb62 2.344 . S
O101 C110 1.272 . S
O102 Tb62 2.344 . S
O102 C108 1.272 . S
O103 Tb71 2.344 . S
O103 C109 1.272 . S
C104 O80 1.272 . S
C104 O92 1.272 . S
C105 O81 1.272 . S
C105 O93 1.272 . S
C106 O82 1.272 . S
C106 O95 1.272 . S
C107 O83 1.272 . S
C107 O94 1.272 . S
C108 O84 1.272 . S
C108 O102 1.272 . S
C109 O85 1.272 . S
C109 O103 1.272 . S
C110 O86 1.272 . S
C110 O101 1.272 . S
C111 O87 1.272 . S
C111 O100 1.272 . S
C112 O88 1.272 . S
C112 O99 1.272 . S
C113 O89 1.272 . S
C113 O98 1.272 . S
C114 O90 1.272 . S
C114 O96 1.272 . S
C115 O91 1.272 . S
C115 O97 1.272 . S
H116 O117 0.850 . S
O117 H116 0.850 . S
O117 Tb118 2.341 1_565 S
O117 Tb119 2.341 . S
O117 Tb120 2.341 1_565 S
Tb118 O117 2.341 1_545 S
Tb118 O121 2.341 1_545 S
Tb118 O122 2.341 . S
Tb118 O123 2.341 . S
Tb118 O138 2.344 1_545 S
Tb118 O141 2.344 . S
Tb118 O154 2.344 . S
Tb118 O157 2.344 . S
Tb119 O117 2.341 . S
Tb119 O121 2.341 . S
Tb119 O124 2.341 . S
Tb119 O126 2.341 . S
Tb119 O142 2.344 . S
Tb119 O145 2.344 . S
Tb119 O150 2.344 . S
Tb119 O153 2.344 . S
Tb120 O117 2.341 1_545 S
Tb120 O122 2.341 . S
Tb120 O125 2.341 . S
Tb120 O126 2.341 1_545 S
Tb120 O146 2.344 . S
Tb120 O149 2.344 . S
Tb120 O159 2.344 . S
Tb120 O160 2.344 1_545 S
O121 Tb118 2.341 1_565 S
O121 Tb119 2.341 . S
O121 H127 0.850 . S
O121 Tb129 2.341 1_565 S
O122 Tb118 2.341 . S
O122 Tb120 2.341 . S
O122 H128 0.850 . S
O122 Tb130 2.341 . S
O123 Tb118 2.341 . S
O123 Tb129 2.341 . S
O123 Tb130 2.341 . S
O123 H131 0.850 . S
O124 Tb119 2.341 . S
O124 Tb129 2.341 1_565 S
O124 H132 0.850 . S
O124 Tb133 2.341 1_565 S
O125 Tb120 2.341 . S
O125 Tb130 2.341 . S
O125 Tb133 2.341 . S
O125 H134 0.850 . S
O126 Tb119 2.341 . S
O126 Tb120 2.341 1_565 S
O126 Tb133 2.341 1_565 S
O126 H135 0.850 . S
H127 O121 0.850 . S
H128 O122 0.850 . S
Tb129 O121 2.341 1_545 S
Tb129 O123 2.341 . S
Tb129 O124 2.341 1_545 S
Tb129 O136 2.341 . S
Tb129 O147 2.344 . S
Tb129 O148 2.344 . S
Tb129 O158 2.344 1_545 S
Tb129 O161 2.344 . S
Tb130 O122 2.341 . S
Tb130 O123 2.341 . S
Tb130 O125 2.341 . S
Tb130 O136 2.341 . S
Tb130 O143 2.344 . S
Tb130 O144 2.344 . S
Tb130 O151 2.344 . S
Tb130 O152 2.344 . S
H131 O123 0.850 . S
H132 O124 0.850 . S
Tb133 O124 2.341 1_545 S
Tb133 O125 2.341 . S
Tb133 O126 2.341 1_545 S
Tb133 O136 2.341 . S
Tb133 O139 2.344 . S
Tb133 O140 2.344 1_545 S
Tb133 O155 2.344 . S
Tb133 O156 2.344 . S
H134 O125 0.850 . S
H135 O126 0.850 . S
O136 Tb129 2.341 . S
O136 Tb130 2.341 . S
O136 Tb133 2.341 . S
O136 H137 0.850 . S
H137 O136 0.850 . S
O138 Tb118 2.344 1_565 S
O138 C162 1.272 . S
O139 Tb133 2.344 . S
O139 C163 1.272 . S
O140 Tb133 2.344 1_565 S
O140 C164 1.272 . S
O141 Tb118 2.344 . S
O141 C165 1.272 . S
O142 Tb119 2.344 . S
O142 C166 1.272 . S
O143 Tb130 2.344 . S
O143 C167 1.272 . S
O144 Tb130 2.344 . S
O144 C168 1.272 . S
O145 Tb119 2.344 . S
O145 C169 1.272 . S
O146 Tb120 2.344 . S
O146 C170 1.272 . S
O147 Tb129 2.344 . S
O147 C171 1.272 . S
O148 Tb129 2.344 . S
O148 C172 1.272 . S
O149 Tb120 2.344 . S
O149 C173 1.272 . S
O150 Tb119 2.344 . S
O150 C162 1.272 . S
O151 Tb130 2.344 . S
O151 C163 1.272 . S
O152 Tb130 2.344 . S
O152 C165 1.272 . S
O153 Tb119 2.344 . S
O153 C164 1.272 . S
O154 Tb118 2.344 . S
O154 C172 1.272 . S
O155 Tb133 2.344 . S
O155 C173 1.272 . S
O156 Tb133 2.344 . S
O156 C171 1.272 . S
O157 Tb118 2.344 . S
O157 C170 1.272 . S
O158 Tb129 2.344 1_565 S
O158 C169 1.272 . S
O159 Tb120 2.344 . S
O159 C168 1.272 . S
O160 Tb120 2.344 1_565 S
O160 C166 1.272 . S
O161 Tb129 2.344 . S
O161 C167 1.272 . S
C162 O138 1.272 . S
C162 O150 1.272 . S
C163 O139 1.272 . S
C163 O151 1.272 . S
C164 O140 1.272 . S
C164 O153 1.272 . S
C165 O141 1.272 . S
C165 O152 1.272 . S
C166 O142 1.272 . S
C166 O160 1.272 . S
C167 O143 1.272 . S
C167 O161 1.272 . S
C168 O144 1.272 . S
C168 O159 1.272 . S
C169 O145 1.272 . S
C169 O158 1.272 . S
C170 O146 1.272 . S
C170 O157 1.272 . S
C171 O147 1.272 . S
C171 O156 1.272 . S
C172 O148 1.272 . S
C172 O154 1.272 . S
C173 O149 1.272 . S
C173 O155 1.272 . S
H174 O175 0.850 . S
O175 H174 0.850 . S
O175 Tb176 2.341 1_556 S
O175 Tb177 2.341 1_556 S
O175 Tb178 2.341 . S
Tb176 O175 2.341 1_554 S
Tb176 O179 2.341 . S
Tb176 O180 2.341 1_554 S
Tb176 O181 2.341 . S
Tb176 O196 2.344 . S
Tb176 O199 2.344 . S
Tb176 O212 2.344 . S
Tb176 O215 2.344 1_554 S
Tb177 O175 2.341 1_554 S
Tb177 O179 2.341 . S
Tb177 O182 2.341 . S
Tb177 O184 2.341 1_554 S
Tb177 O200 2.344 1_554 S
Tb177 O203 2.344 . S
Tb177 O208 2.344 . S
Tb177 O211 2.344 . S
Tb178 O175 2.341 . S
Tb178 O180 2.341 . S
Tb178 O183 2.341 . S
Tb178 O184 2.341 . S
Tb178 O204 2.344 . S
Tb178 O207 2.344 . S
Tb178 O217 2.344 . S
Tb178 O218 2.344 . S
O179 Tb176 2.341 . S
O179 Tb177 2.341 . S
O179 H185 0.850 . S
O179 Tb187 2.341 . S
O180 Tb176 2.341 1_556 S
O180 Tb178 2.341 . S
O180 H186 0.850 . S
O180 Tb188 2.341 1_556 S
O181 Tb176 2.341 . S
O181 Tb187 2.341 . S
O181 Tb188 2.341 . S
O181 H189 0.850 . S
O182 Tb177 2.341 . S
O182 Tb187 2.341 . S
O182 H190 0.850 . S
O182 Tb191 2.341 . S
O183 Tb178 2.341 . S
O183 Tb188 2.341 1_556 S
O183 Tb191 2.341 1_556 S
O183 H192 0.850 . S
O184 Tb177 2.341 1_556 S
O184 Tb178 2.341 . S
O184 Tb191 2.341 1_556 S
O184 H193 0.850 . S
H185 O179 0.850 . S
H186 O180 0.850 . S
Tb187 O179 2.341 . S
Tb187 O181 2.341 . S
Tb187 O182 2.341 . S
Tb187 O194 2.341 . S
Tb187 O205 2.344 . S
Tb187 O206 2.344 . S
Tb187 O216 2.344 . S
Tb187 O219 2.344 . S
Tb188 O180 2.341 1_554 S
Tb188 O181 2.341 . S
Tb188 O183 2.341 1_554 S
Tb188 O194 2.341 . S
Tb188 O201 2.344 . S
Tb188 O202 2.344 1_554 S
Tb188 O209 2.344 . S
Tb188 O210 2.344 . S
H189 O181 0.850 . S
H190 O182 0.850 . S
Tb191 O182 2.341 . S
Tb191 O183 2.341 1_554 S
Tb191 O184 2.341 1_554 S
Tb191 O194 2.341 . S
Tb191 O197 2.344 . S
Tb191 O198 2.344 . S
Tb191 O213 2.344 1_554 S
Tb191 O214 2.344 . S
H192 O183 0.850 . S
H193 O184 0.850 . S
O194 Tb187 2.341 . S
O194 Tb188 2.341 . S
O194 Tb191 2.341 . S
O194 H195 0.850 . S
H195 O194 0.850 . S
O196 Tb176 2.344 . S
O196 C220 1.272 . S
O197 Tb191 2.344 . S
O197 C221 1.272 . S
O198 Tb191 2.344 . S
O198 C222 1.272 . S
O199 Tb176 2.344 . S
O199 C223 1.272 . S
O200 Tb177 2.344 1_556 S
O200 C224 1.272 . S
O201 Tb188 2.344 . S
O201 C225 1.272 . S
O202 Tb188 2.344 1_556 S
O202 C226 1.272 . S
O203 Tb177 2.344 . S
O203 C227 1.272 . S
O204 Tb178 2.344 . S
O204 C228 1.272 . S
O205 Tb187 2.344 . S
O205 C229 1.272 . S
O206 Tb187 2.344 . S
O206 C230 1.272 . S
O207 Tb178 2.344 . S
O207 C231 1.272 . S
O208 Tb177 2.344 . S
O208 C220 1.272 . S
O209 Tb188 2.344 . S
O209 C221 1.272 . S
O210 Tb188 2.344 . S
O210 C223 1.272 . S
O211 Tb177 2.344 . S
O211 C222 1.272 . S
O212 Tb176 2.344 . S
O212 C230 1.272 . S
O213 Tb191 2.344 1_556 S
O213 C231 1.272 . S
O214 Tb191 2.344 . S
O214 C229 1.272 . S
O215 Tb176 2.344 1_556 S
O215 C228 1.272 . S
O216 Tb187 2.344 . S
O216 C227 1.272 . S
O217 Tb178 2.344 . S
O217 C226 1.272 . S
O218 Tb178 2.344 . S
O218 C224 1.272 . S
O219 Tb187 2.344 . S
O219 C225 1.272 . S
C220 O196 1.272 . S
C220 O208 1.272 . S
C221 O197 1.272 . S
C221 O209 1.272 . S
C222 O198 1.272 . S
C222 O211 1.272 . S
C223 O199 1.272 . S
C223 O210 1.272 . S
C224 O200 1.272 . S
C224 O218 1.272 . S
C225 O201 1.272 . S
C225 O219 1.272 . S
C226 O202 1.272 . S
C226 O217 1.272 . S
C227 O203 1.272 . S
C227 O216 1.272 . S
C228 O204 1.272 . S
C228 O215 1.272 . S
C229 O205 1.272 . S
C229 O214 1.272 . S
C230 O206 1.272 . S
C230 O212 1.272 . S
C231 O207 1.272 . S
C231 O213 1.272 . S
H232 C238 0.930 . S
H233 C242 0.930 . S
H234 C247 0.929 . S
H235 C245 0.929 . S
H236 C240 0.929 . S
H237 C246 0.929 . S
C238 H232 0.930 . S
C238 C239 1.368 . S
C238 C246 1.378 . S
C239 C238 1.368 . S
C239 C247 1.432 1_455 S
C240 H236 0.929 . S
C240 C242 1.378 . S
C240 C244 1.351 . S
C241 C244 1.462 1_455 S
C241 C246 1.352 . S
C241 N249 1.425 1_455 S
C242 H233 0.930 . S
C242 C240 1.378 . S
C242 C243 1.367 . S
C243 C242 1.367 . S
C243 C245 1.433 1_655 S
C244 C240 1.351 . S
C244 C241 1.462 1_655 S
C244 N248 1.426 1_655 S
C245 H235 0.929 . S
C245 C243 1.433 1_455 S
C245 N248 1.384 . S
C246 H237 0.929 . S
C246 C238 1.378 . S
C246 C241 1.352 . S
C247 H234 0.929 . S
C247 C239 1.432 1_655 S
C247 N249 1.384 . S
N248 C244 1.426 1_455 S
N248 C245 1.384 . S
N249 C241 1.425 1_655 S
N249 C247 1.384 . S
H250 C256 0.930 . S
H251 C260 0.930 . S
H252 C265 0.929 . S
H253 C263 0.929 . S
H254 C258 0.929 . S
H255 C264 0.929 . S
C256 H250 0.930 . S
C256 C257 1.367 . S
C256 C264 1.378 . S
C257 C256 1.367 . S
C257 C265 1.433 1_545 S
C258 H254 0.929 . S
C258 C260 1.378 . S
C258 C262 1.350 . S
C259 C262 1.463 1_545 S
C259 C264 1.350 . S
C259 N267 1.427 1_545 S
C260 H251 0.930 . S
C260 C258 1.378 . S
C260 C261 1.386 . S
C261 C260 1.386 . S
C261 C263 1.413 1_565 S
C262 C258 1.350 . S
C262 C259 1.463 1_565 S
C262 N266 1.427 1_565 S
C263 H253 0.929 . S
C263 C261 1.413 1_545 S
C263 N266 1.384 . S
C264 H255 0.929 . S
C264 C256 1.378 . S
C264 C259 1.350 . S
C265 H252 0.929 . S
C265 C257 1.433 1_565 S
C265 N267 1.384 . S
N266 C262 1.427 1_545 S
N266 C263 1.384 . S
N267 C259 1.427 1_565 S
N267 C265 1.384 . S
H268 C274 0.930 . S
H269 C278 0.930 . S
H270 C283 0.929 . S
H271 C281 0.929 . S
H272 C276 0.929 . S
H273 C282 0.929 . S
C274 H268 0.930 . S
C274 C275 1.370 . S
C274 C282 1.378 . S
C275 C274 1.370 . S
C275 C283 1.430 1_455 S
C276 H272 0.929 . S
C276 C278 1.378 . S
C276 C280 1.353 . S
C277 C280 1.462 1_455 S
C277 C282 1.355 . S
C277 N285 1.422 1_455 S
C278 H269 0.930 . S
C278 C276 1.378 . S
C278 C279 1.368 . S
C279 C278 1.368 . S
C279 C281 1.432 1_655 S
C280 C276 1.353 . S
C280 C277 1.462 1_655 S
C280 N284 1.424 1_655 S
C281 H271 0.929 . S
C281 C279 1.432 1_455 S
C281 N284 1.384 . S
C282 H273 0.929 . S
C282 C274 1.378 . S
C282 C277 1.355 . S
C283 H270 0.929 . S
C283 C275 1.430 1_655 S
C283 N285 1.384 . S
N284 C280 1.424 1_455 S
N284 C281 1.384 . S
N285 C277 1.422 1_655 S
N285 C283 1.384 . S
H286 C292 0.930 . S
H287 C296 0.930 . S
H288 C301 0.929 . S
H289 C299 0.929 . S
H290 C294 0.929 . S
H291 C300 0.929 . S
C292 H286 0.930 . S
C292 C293 1.386 . S
C292 C300 1.378 . S
C293 C292 1.386 . S
C293 C301 1.413 1_565 S
C294 H290 0.929 . S
C294 C296 1.378 . S
C294 C298 1.350 . S
C295 C298 1.463 1_565 S
C295 C300 1.350 . S
C295 N303 1.427 1_565 S
C296 H287 0.930 . S
C296 C294 1.378 . S
C296 C297 1.367 . S
C297 C296 1.367 . S
C297 C299 1.433 1_545 S
C298 C294 1.350 . S
C298 C295 1.463 1_545 S
C298 N302 1.427 1_545 S
C299 H289 0.929 . S
C299 C297 1.433 1_565 S
C299 N302 1.384 . S
C300 H291 0.929 . S
C300 C292 1.378 . S
C300 C295 1.350 . S
C301 H288 0.929 . S
C301 C293 1.413 1_545 S
C301 N303 1.384 . S
N302 C298 1.427 1_565 S
N302 C299 1.384 . S
N303 C295 1.427 1_545 S
N303 C301 1.384 . S
H304 C310 0.930 . S
H305 C314 0.930 . S
H306 C319 0.929 . S
H307 C317 0.929 . S
H308 C312 0.929 . S
H309 C318 0.929 . S
C310 H304 0.930 . S
C310 C311 1.367 . S
C310 C318 1.378 . S
C311 C310 1.367 . S
C311 C319 1.433 1_655 S
C312 H308 0.929 . S
C312 C314 1.378 . S
C312 C316 1.352 . S
C313 C316 1.462 1_655 S
C313 C318 1.351 . S
C313 N321 1.427 1_655 S
C314 H305 0.930 . S
C314 C312 1.378 . S
C314 C315 1.368 . S
C315 C314 1.368 . S
C315 C317 1.432 1_455 S
C316 C312 1.352 . S
C316 C313 1.462 1_455 S
C316 N320 1.425 1_455 S
C317 H307 0.929 . S
C317 C315 1.432 1_655 S
C317 N320 1.384 . S
C318 H309 0.929 . S
C318 C310 1.378 . S
C318 C313 1.351 . S
C319 H306 0.929 . S
C319 C311 1.433 1_455 S
C319 N321 1.384 . S
N320 C316 1.425 1_655 S
N320 C317 1.384 . S
N321 C313 1.427 1_455 S
N321 C319 1.384 . S
H322 C328 0.930 . S
H323 C332 0.930 . S
H324 C337 0.929 . S
H325 C335 0.929 . S
H326 C330 0.929 . S
H327 C336 0.929 . S
C328 H322 0.930 . S
C328 C329 1.372 . S
C328 C336 1.378 . S
C329 C328 1.372 . S
C329 C337 1.428 1_545 S
C330 H326 0.929 . S
C330 C332 1.378 . S
C330 C334 1.355 . S
C331 C334 1.462 1_545 S
C331 C336 1.357 . S
C331 N339 1.420 1_545 S
C332 H323 0.930 . S
C332 C330 1.378 . S
C332 C333 1.370 . S
C333 C332 1.370 . S
C333 C335 1.430 1_565 S
C334 C330 1.355 . S
C334 C331 1.462 1_565 S
C334 N338 1.422 1_565 S
C335 H325 0.929 . S
C335 C333 1.430 1_545 S
C335 N338 1.384 . S
C336 H327 0.929 . S
C336 C328 1.378 . S
C336 C331 1.357 . S
C337 H324 0.929 . S
C337 C329 1.428 1_565 S
C337 N339 1.384 . S
N338 C334 1.422 1_545 S
N338 C335 1.384 . S
N339 C331 1.420 1_565 S
N339 C337 1.384 . S
H340 C346 0.930 . S
H341 C350 0.930 . S
H342 C355 0.929 . S
H343 C353 0.929 . S
H344 C348 0.929 . S
H345 C354 0.929 . S
C346 H340 0.930 . S
C346 C347 1.368 . S
C346 C354 1.378 . S
C347 C346 1.368 . S
C347 C355 1.432 1_655 S
C348 H344 0.929 . S
C348 C350 1.378 . S
C348 C352 1.354 . S
C349 C352 1.462 1_655 S
C349 C354 1.352 . S
C349 N357 1.425 1_655 S
C350 H341 0.930 . S
C350 C348 1.378 . S
C350 C351 1.369 . S
C351 C350 1.369 . S
C351 C353 1.431 1_455 S
C352 C348 1.354 . S
C352 C349 1.462 1_455 S
C352 N356 1.424 1_455 S
C353 H343 0.929 . S
C353 C351 1.431 1_655 S
C353 N356 1.384 . S
C354 H345 0.929 . S
C354 C346 1.378 . S
C354 C349 1.352 . S
C355 H342 0.929 . S
C355 C347 1.432 1_455 S
C355 N357 1.384 . S
N356 C352 1.424 1_655 S
N356 C353 1.384 . S
N357 C349 1.425 1_455 S
N357 C355 1.384 . S
H358 C364 0.930 . S
H359 C368 0.930 . S
H360 C373 0.929 . S
H361 C371 0.929 . S
H362 C366 0.929 . S
H363 C372 0.929 . S
C364 H358 0.930 . S
C364 C365 1.367 . S
C364 C372 1.378 . S
C365 C364 1.367 . S
C365 C373 1.433 1_545 S
C366 H362 0.929 . S
C366 C368 1.378 . S
C366 C370 1.350 . S
C367 C370 1.463 1_545 S
C367 C372 1.350 . S
C367 N375 1.427 1_545 S
C368 H359 0.930 . S
C368 C366 1.378 . S
C368 C369 1.386 . S
C369 C368 1.386 . S
C369 C371 1.413 1_565 S
C370 C366 1.350 . S
C370 C367 1.463 1_565 S
C370 N374 1.427 1_565 S
C371 H361 0.929 . S
C371 C369 1.413 1_545 S
C371 N374 1.384 . S
C372 H363 0.929 . S
C372 C364 1.378 . S
C372 C367 1.350 . S
C373 H360 0.929 . S
C373 C365 1.433 1_565 S
C373 N375 1.384 . S
N374 C370 1.427 1_545 S
N374 C371 1.384 . S
N375 C367 1.427 1_565 S
N375 C373 1.384 . S
H376 C382 0.930 . S
H377 C386 0.930 . S
H378 C391 0.929 . S
H379 C389 0.929 . S
H380 C384 0.929 . S
H381 C390 0.929 . S
C382 H376 0.930 . S
C382 C383 1.367 . S
C382 C390 1.378 . S
C383 C382 1.367 . S
C383 C391 1.433 1_554 S
C384 H380 0.929 . S
C384 C386 1.378 . S
C384 C388 1.350 . S
C385 C388 1.463 1_554 S
C385 C390 1.350 . S
C385 N393 1.427 1_554 S
C386 H377 0.930 . S
C386 C384 1.378 . S
C386 C387 1.384 . S
C387 C386 1.384 . S
C387 C389 1.416 1_556 S
C388 C384 1.350 . S
C388 C385 1.463 1_556 S
C388 N392 1.427 1_556 S
C389 H379 0.929 . S
C389 C387 1.416 1_554 S
C389 N392 1.384 . S
C390 H381 0.929 . S
C390 C382 1.378 . S
C390 C385 1.350 . S
C391 H378 0.929 . S
C391 C383 1.433 1_556 S
C391 N393 1.384 . S
N392 C388 1.427 1_554 S
N392 C389 1.384 . S
N393 C385 1.427 1_556 S
N393 C391 1.384 . S
H394 C400 0.930 . S
H395 C404 0.930 . S
H396 C409 0.929 . S
H397 C407 0.929 . S
H398 C402 0.929 . S
H399 C408 0.929 . S
C400 H394 0.930 . S
C400 C401 1.368 . S
C400 C408 1.378 . S
C401 C400 1.368 . S
C401 C409 1.432 1_556 S
C402 H398 0.929 . S
C402 C404 1.378 . S
C402 C406 1.355 . S
C403 C406 1.462 1_556 S
C403 C408 1.353 . S
C403 N411 1.424 1_556 S
C404 H395 0.930 . S
C404 C402 1.378 . S
C404 C405 1.370 . S
C405 C404 1.370 . S
C405 C407 1.430 1_554 S
C406 C402 1.355 . S
C406 C403 1.462 1_554 S
C406 N410 1.423 1_554 S
C407 H397 0.929 . S
C407 C405 1.430 1_556 S
C407 N410 1.384 . S
C408 H399 0.929 . S
C408 C400 1.378 . S
C408 C403 1.353 . S
C409 H396 0.929 . S
C409 C401 1.432 1_554 S
C409 N411 1.384 . S
N410 C406 1.423 1_556 S
N410 C407 1.384 . S
N411 C403 1.424 1_554 S
N411 C409 1.384 . S
H412 C418 0.930 . S
H413 C422 0.930 . S
H414 C427 0.929 . S
H415 C425 0.929 . S
H416 C420 0.929 . S
H417 C426 0.929 . S
C418 H412 0.930 . S
C418 C419 1.382 . S
C418 C426 1.378 . S
C419 C418 1.382 . S
C419 C427 1.418 1_554 S
C420 H416 0.929 . S
C420 C422 1.378 . S
C420 C424 1.350 . S
C421 C424 1.463 1_554 S
C421 C426 1.350 . S
C421 N429 1.427 1_554 S
C422 H413 0.930 . S
C422 C420 1.378 . S
C422 C423 1.379 . S
C423 C422 1.379 . S
C423 C425 1.421 1_556 S
C424 C420 1.350 . S
C424 C421 1.463 1_556 S
C424 N428 1.427 1_556 S
C425 H415 0.929 . S
C425 C423 1.421 1_554 S
C425 N428 1.384 . S
C426 H417 0.929 . S
C426 C418 1.378 . S
C426 C421 1.350 . S
C427 H414 0.929 . S
C427 C419 1.418 1_556 S
C427 N429 1.384 . S
N428 C424 1.427 1_554 S
N428 C425 1.384 . S
N429 C421 1.427 1_556 S
N429 C427 1.384 . S
H430 C436 0.930 . S
H431 C440 0.930 . S
H432 C445 0.929 . S
H433 C443 0.929 . S
H434 C438 0.929 . S
H435 C444 0.929 . S
C436 H430 0.930 . S
C436 C437 1.367 . S
C436 C444 1.378 . S
C437 C436 1.367 . S
C437 C445 1.433 1_554 S
C438 H434 0.929 . S
C438 C440 1.378 . S
C438 C442 1.350 . S
C439 C442 1.463 1_554 S
C439 C444 1.350 . S
C439 N447 1.427 1_554 S
C440 H431 0.930 . S
C440 C438 1.378 . S
C440 C441 1.386 . S
C441 C440 1.386 . S
C441 C443 1.413 1_556 S
C442 C438 1.350 . S
C442 C439 1.463 1_556 S
C442 N446 1.427 1_556 S
C443 H433 0.929 . S
C443 C441 1.413 1_554 S
C443 N446 1.384 . S
C444 H435 0.929 . S
C444 C436 1.378 . S
C444 C439 1.350 . S
C445 H432 0.929 . S
C445 C437 1.433 1_556 S
C445 N447 1.384 . S
N446 C442 1.427 1_554 S
N446 C443 1.384 . S
N447 C439 1.427 1_556 S
N447 C445 1.384 . S
H448 C454 0.930 . S
H449 C458 0.930 . S
H450 C463 0.929 . S
H451 C461 0.929 . S
H452 C456 0.929 . S
H453 C462 0.929 . S
C454 H448 0.930 . S
C454 C455 1.367 . S
C454 C462 1.378 . S
C455 C454 1.367 . S
C455 C463 1.433 . S
C456 H452 0.929 . S
C456 C458 1.378 . S
C456 C460 1.350 . S
C457 C460 1.463 . S
C457 C462 1.350 . S
C457 N465 1.427 . S
C458 H449 0.930 . S
C458 C456 1.378 . S
C458 C459 1.367 . S
C459 C458 1.367 . S
C459 C461 1.433 . S
C460 C456 1.350 . S
C460 C457 1.463 . S
C460 N464 1.427 . S
C461 H451 0.929 . S
C461 C459 1.433 . S
C461 N464 1.384 . S
C462 H453 0.929 . S
C462 C454 1.378 . S
C462 C457 1.350 . S
C463 H450 0.929 . S
C463 C455 1.433 . S
C463 N465 1.384 . S
N464 C460 1.427 . S
N464 C461 1.384 . S
N465 C457 1.427 . S
N465 C463 1.384 . S
H466 C472 0.930 . S
H467 C476 0.930 . S
H468 C481 0.929 . S
H469 C479 0.929 . S
H470 C474 0.929 . S
H471 C480 0.929 . S
C472 H466 0.930 . S
C472 C473 1.367 . S
C472 C480 1.378 . S
C473 C472 1.367 . S
C473 C481 1.433 . S
C474 H470 0.929 . S
C474 C476 1.378 . S
C474 C478 1.350 . S
C475 C478 1.463 . S
C475 C480 1.350 . S
C475 N483 1.427 . S
C476 H467 0.930 . S
C476 C474 1.378 . S
C476 C477 1.367 . S
C477 C476 1.367 . S
C477 C479 1.433 . S
C478 C474 1.350 . S
C478 C475 1.463 . S
C478 N482 1.427 . S
C479 H469 0.929 . S
C479 C477 1.433 . S
C479 N482 1.384 . S
C480 H471 0.929 . S
C480 C472 1.378 . S
C480 C475 1.350 . S
C481 H468 0.929 . S
C481 C473 1.433 . S
C481 N483 1.384 . S
N482 C478 1.427 . S
N482 C479 1.384 . S
N483 C475 1.427 . S
N483 C481 1.384 . S
H484 C490 0.930 . S
H485 C494 0.930 . S
H486 C499 0.929 . S
H487 C497 0.929 . S
H488 C492 0.929 . S
H489 C498 0.929 . S
C490 H484 0.930 . S
C490 C491 1.367 . S
C490 C498 1.378 . S
C491 C490 1.367 . S
C491 C499 1.433 . S
C492 H488 0.929 . S
C492 C494 1.378 . S
C492 C496 1.350 . S
C493 C496 1.463 . S
C493 C498 1.350 . S
C493 N501 1.427 . S
C494 H485 0.930 . S
C494 C492 1.378 . S
C494 C495 1.367 . S
C495 C494 1.367 . S
C495 C497 1.433 . S
C496 C492 1.350 . S
C496 C493 1.463 . S
C496 N500 1.427 . S
C497 H487 0.929 . S
C497 C495 1.433 . S
C497 N500 1.384 . S
C498 H489 0.929 . S
C498 C490 1.378 . S
C498 C493 1.350 . S
C499 H486 0.929 . S
C499 C491 1.433 . S
C499 N501 1.384 . S
N500 C496 1.427 . S
N500 C497 1.384 . S
N501 C493 1.427 . S
N501 C499 1.384 . S
H502 C508 0.930 . S
H503 C512 0.930 . S
H504 C517 0.929 . S
H505 C515 0.929 . S
H506 C510 0.929 . S
H507 C516 0.929 . S
C508 H502 0.930 . S
C508 C509 1.367 . S
C508 C516 1.378 . S
C509 C508 1.367 . S
C509 C517 1.433 . S
C510 H506 0.929 . S
C510 C512 1.378 . S
C510 C514 1.350 . S
C511 C514 1.463 . S
C511 C516 1.350 . S
C511 N519 1.427 . S
C512 H503 0.930 . S
C512 C510 1.378 . S
C512 C513 1.367 . S
C513 C512 1.367 . S
C513 C515 1.433 . S
C514 C510 1.350 . S
C514 C511 1.463 . S
C514 N518 1.427 . S
C515 H505 0.929 . S
C515 C513 1.433 . S
C515 N518 1.384 . S
C516 H507 0.929 . S
C516 C508 1.378 . S
C516 C511 1.350 . S
C517 H504 0.929 . S
C517 C509 1.433 . S
C517 N519 1.384 . S
N518 C514 1.427 . S
N518 C515 1.384 . S
N519 C511 1.427 . S
N519 C517 1.384 . S
H520 C526 0.930 . S
H521 C530 0.930 . S
H522 C535 0.929 . S
H523 C533 0.929 . S
H524 C528 0.929 . S
H525 C534 0.929 . S
C526 H520 0.930 . S
C526 C527 1.367 . S
C526 C534 1.378 . S
C527 C526 1.367 . S
C527 C535 1.433 . S
C528 H524 0.929 . S
C528 C530 1.378 . S
C528 C532 1.350 . S
C529 C532 1.463 . S
C529 C534 1.350 . S
C529 N537 1.427 . S
C530 H521 0.930 . S
C530 C528 1.378 . S
C530 C531 1.367 . S
C531 C530 1.367 . S
C531 C533 1.433 . S
C532 C528 1.350 . S
C532 C529 1.463 . S
C532 N536 1.427 . S
C533 H523 0.929 . S
C533 C531 1.433 . S
C533 N536 1.384 . S
C534 H525 0.929 . S
C534 C526 1.378 . S
C534 C529 1.350 . S
C535 H522 0.929 . S
C535 C527 1.433 . S
C535 N537 1.384 . S
N536 C532 1.427 . S
N536 C533 1.384 . S
N537 C529 1.427 . S
N537 C535 1.384 . S
H538 C544 0.930 . S
H539 C548 0.930 . S
H540 C553 0.929 . S
H541 C551 0.929 . S
H542 C546 0.929 . S
H543 C552 0.929 . S
C544 H538 0.930 . S
C544 C545 1.367 . S
C544 C552 1.378 . S
C545 C544 1.367 . S
C545 C553 1.433 . S
C546 H542 0.929 . S
C546 C548 1.378 . S
C546 C550 1.350 . S
C547 C550 1.463 . S
C547 C552 1.350 . S
C547 N555 1.427 . S
C548 H539 0.930 . S
C548 C546 1.378 . S
C548 C549 1.367 . S
C549 C548 1.367 . S
C549 C551 1.433 . S
C550 C546 1.350 . S
C550 C547 1.463 . S
C550 N554 1.427 . S
C551 H541 0.929 . S
C551 C549 1.433 . S
C551 N554 1.384 . S
C552 H543 0.929 . S
C552 C544 1.378 . S
C552 C547 1.350 . S
C553 H540 0.929 . S
C553 C545 1.433 . S
C553 N555 1.384 . S
N554 C550 1.427 . S
N554 C551 1.384 . S
N555 C547 1.427 . S
N555 C553 1.384 . S
H556 C562 0.930 . S
H557 C566 0.930 . S
H558 C571 0.929 . S
H559 C569 0.929 . S
H560 C564 0.929 . S
H561 C570 0.929 . S
C562 H556 0.930 . S
C562 C563 1.367 . S
C562 C570 1.378 . S
C563 C562 1.367 . S
C563 C571 1.433 . S
C564 H560 0.929 . S
C564 C566 1.378 . S
C564 C568 1.350 . S
C565 C568 1.463 . S
C565 C570 1.350 . S
C565 N573 1.427 . S
C566 H557 0.930 . S
C566 C564 1.378 . S
C566 C567 1.367 . S
C567 C566 1.367 . S
C567 C569 1.433 . S
C568 C564 1.350 . S
C568 C565 1.463 . S
C568 N572 1.427 . S
C569 H559 0.929 . S
C569 C567 1.433 . S
C569 N572 1.384 . S
C570 H561 0.929 . S
C570 C562 1.378 . S
C570 C565 1.350 . S
C571 H558 0.929 . S
C571 C563 1.433 . S
C571 N573 1.384 . S
N572 C568 1.427 . S
N572 C569 1.384 . S
N573 C565 1.427 . S
N573 C571 1.384 . S
H574 C580 0.930 . S
H575 C584 0.930 . S
H576 C589 0.929 . S
H577 C587 0.929 . S
H578 C582 0.929 . S
H579 C588 0.929 . S
C580 H574 0.930 . S
C580 C581 1.367 . S
C580 C588 1.378 . S
C581 C580 1.367 . S
C581 C589 1.433 . S
C582 H578 0.929 . S
C582 C584 1.378 . S
C582 C586 1.350 . S
C583 C586 1.463 . S
C583 C588 1.350 . S
C583 N591 1.427 . S
C584 H575 0.930 . S
C584 C582 1.378 . S
C584 C585 1.367 . S
C585 C584 1.367 . S
C585 C587 1.433 . S
C586 C582 1.350 . S
C586 C583 1.463 . S
C586 N590 1.427 . S
C587 H577 0.929 . S
C587 C585 1.433 . S
C587 N590 1.384 . S
C588 H579 0.929 . S
C588 C580 1.378 . S
C588 C583 1.350 . S
C589 H576 0.929 . S
C589 C581 1.433 . S
C589 N591 1.384 . S
N590 C586 1.427 . S
N590 C587 1.384 . S
N591 C583 1.427 . S
N591 C589 1.384 . S
H592 C598 0.930 . S
H593 C602 0.930 . S
H594 C607 0.929 . S
H595 C605 0.929 . S
H596 C600 0.929 . S
H597 C606 0.929 . S
C598 H592 0.930 . S
C598 C599 1.367 . S
C598 C606 1.378 . S
C599 C598 1.367 . S
C599 C607 1.433 . S
C600 H596 0.929 . S
C600 C602 1.378 . S
C600 C604 1.350 . S
C601 C604 1.463 . S
C601 C606 1.350 . S
C601 N609 1.427 . S
C602 H593 0.930 . S
C602 C600 1.378 . S
C602 C603 1.367 . S
C603 C602 1.367 . S
C603 C605 1.433 . S
C604 C600 1.350 . S
C604 C601 1.463 . S
C604 N608 1.427 . S
C605 H595 0.929 . S
C605 C603 1.433 . S
C605 N608 1.384 . S
C606 H597 0.929 . S
C606 C598 1.378 . S
C606 C601 1.350 . S
C607 H594 0.929 . S
C607 C599 1.433 . S
C607 N609 1.384 . S
N608 C604 1.427 . S
N608 C605 1.384 . S
N609 C601 1.427 . S
N609 C607 1.384 . S
H610 C616 0.930 . S
H611 C620 0.930 . S
H612 C625 0.929 . S
H613 C623 0.929 . S
H614 C618 0.929 . S
H615 C624 0.929 . S
C616 H610 0.930 . S
C616 C617 1.367 . S
C616 C624 1.378 . S
C617 C616 1.367 . S
C617 C625 1.433 . S
C618 H614 0.929 . S
C618 C620 1.378 . S
C618 C622 1.350 . S
C619 C622 1.463 . S
C619 C624 1.350 . S
C619 N627 1.427 . S
C620 H611 0.930 . S
C620 C618 1.378 . S
C620 C621 1.367 . S
C621 C620 1.367 . S
C621 C623 1.433 . S
C622 C618 1.350 . S
C622 C619 1.463 . S
C622 N626 1.427 . S
C623 H613 0.929 . S
C623 C621 1.433 . S
C623 N626 1.384 . S
C624 H615 0.929 . S
C624 C616 1.378 . S
C624 C619 1.350 . S
C625 H612 0.929 . S
C625 C617 1.433 . S
C625 N627 1.384 . S
N626 C622 1.427 . S
N626 C623 1.384 . S
N627 C619 1.427 . S
N627 C625 1.384 . S
H628 C634 0.930 . S
H629 C638 0.930 . S
H630 C643 0.929 . S
H631 C641 0.929 . S
H632 C636 0.929 . S
H633 C642 0.929 . S
C634 H628 0.930 . S
C634 C635 1.367 . S
C634 C642 1.378 . S
C635 C634 1.367 . S
C635 C643 1.433 . S
C636 H632 0.929 . S
C636 C638 1.378 . S
C636 C640 1.350 . S
C637 C640 1.463 . S
C637 C642 1.350 . S
C637 N645 1.427 . S
C638 H629 0.930 . S
C638 C636 1.378 . S
C638 C639 1.367 . S
C639 C638 1.367 . S
C639 C641 1.433 . S
C640 C636 1.350 . S
C640 C637 1.463 . S
C640 N644 1.427 . S
C641 H631 0.929 . S
C641 C639 1.433 . S
C641 N644 1.384 . S
C642 H633 0.929 . S
C642 C634 1.378 . S
C642 C637 1.350 . S
C643 H630 0.929 . S
C643 C635 1.433 . S
C643 N645 1.384 . S
N644 C640 1.427 . S
N644 C641 1.384 . S
N645 C637 1.427 . S
N645 C643 1.384 . S
H646 C652 0.930 . S
H647 C656 0.930 . S
H648 C661 0.929 . S
H649 C659 0.929 . S
H650 C654 0.929 . S
H651 C660 0.929 . S
C652 H646 0.930 . S
C652 C653 1.367 . S
C652 C660 1.378 . S
C653 C652 1.367 . S
C653 C661 1.433 . S
C654 H650 0.929 . S
C654 C656 1.378 . S
C654 C658 1.350 . S
C655 C658 1.463 . S
C655 C660 1.350 . S
C655 N663 1.427 . S
C656 H647 0.930 . S
C656 C654 1.378 . S
C656 C657 1.367 . S
C657 C656 1.367 . S
C657 C659 1.433 . S
C658 C654 1.350 . S
C658 C655 1.463 . S
C658 N662 1.427 . S
C659 H649 0.929 . S
C659 C657 1.433 . S
C659 N662 1.384 . S
C660 H651 0.929 . S
C660 C652 1.378 . S
C660 C655 1.350 . S
C661 H648 0.929 . S
C661 C653 1.433 . S
C661 N663 1.384 . S
N662 C658 1.427 . S
N662 C659 1.384 . S
N663 C655 1.427 . S
N663 C661 1.384 . S
C239 C51 1.500 . S
C243 C108 1.496 1_655 S
C257 C56 1.500 . S
C261 C173 1.499 1_565 S
C275 C53 1.500 . S
C279 C110 1.500 1_655 S
C293 C170 1.499 1_565 S
C297 C55 1.496 . S
C311 C50 1.500 1_655 S
C315 C109 1.504 . S
C329 C57 1.500 . S
C333 C172 1.500 1_565 S
C347 C111 1.500 1_655 S
C351 C52 1.500 . S
C365 C171 1.500 . S
C369 C54 1.503 1_565 S
C383 C220 1.500 . S
C387 C47 1.496 1_556 S
C401 C223 1.500 1_556 S
C405 C48 1.500 . S
C419 C222 1.500 . S
C423 C49 1.500 1_556 S
C437 C46 1.500 . S
C441 C221 1.503 1_556 S
C455 C231 1.500 . S
C459 C114 1.504 . S
C473 C113 1.500 . S
C477 C228 1.500 . S
C491 C115 1.500 . S
C495 C230 1.496 . S
C509 C229 1.500 . S
C513 C112 1.500 . S
C527 C162 1.500 . S
C531 C105 1.500 . S
C545 C106 1.500 . S
C549 C165 1.496 . S
C563 C107 1.500 . S
C567 C164 1.504 . S
C581 C163 1.500 . S
C585 C104 1.500 . S
C599 C224 1.500 . S
C603 C167 1.500 . S
C617 C169 1.500 . S
C621 C226 1.504 . S
C635 C225 1.500 . S
C639 C166 1.500 . S
C653 C168 1.500 . S
C657 C227 1.496 . S
