# Generated by pormake.
# Topology uog, (4)-cn, num edge types: 1
# Building blocks:
#     Node 0, Type 0, BuildingBlock: CEKHIL_clean_sbu_0, # of connection points: 4
#     Node 1, Type 0, BuildingBlock: CEKHIL_clean_sbu_0, # of connection points: 4
#     Node 2, Type 0, BuildingBlock: CEKHIL_clean_sbu_0, # of connection points: 4
#     Node 3, Type 0, BuildingBlock: CEKHIL_clean_sbu_0, # of connection points: 4
#     Node 4, Type 0, BuildingBlock: CEKHIL_clean_sbu_0, # of connection points: 4
#     Node 5, Type 0, BuildingBlock: CEKHIL_clean_sbu_0, # of connection points: 4
#     Edge 6, Type (0, 0), BuildingBlock: XIVTED_clean_linker_0, # of connection points: 2
#     Edge 7, Type (0, 0), BuildingBlock: XIVTED_clean_linker_0, # of connection points: 2
#     Edge 8, Type (0, 0), BuildingBlock: XIVTED_clean_linker_0, # of connection points: 2
#     Edge 9, Type (0, 0), BuildingBlock: XIVTED_clean_linker_0, # of connection points: 2
#     Edge 10, Type (0, 0), BuildingBlock: XIVTED_clean_linker_0, # of connection points: 2
#     Edge 11, Type (0, 0), BuildingBlock: XIVTED_clean_linker_0, # of connection points: 2
#     Edge 12, Type (0, 0), BuildingBlock: XIVTED_clean_linker_0, # of connection points: 2
#     Edge 13, Type (0, 0), BuildingBlock: XIVTED_clean_linker_0, # of connection points: 2
#     Edge 14, Type (0, 0), BuildingBlock: XIVTED_clean_linker_0, # of connection points: 2
#     Edge 15, Type (0, 0), BuildingBlock: XIVTED_clean_linker_0, # of connection points: 2
#     Edge 16, Type (0, 0), BuildingBlock: XIVTED_clean_linker_0, # of connection points: 2
#     Edge 17, Type (0, 0), BuildingBlock: XIVTED_clean_linker_0, # of connection points: 2
# Relax obj value: 0.071
# Max RMSD: 0.168
# Mean RMSD: 0.168
data_MOF--net-uog--node1-CEKHIL_clean_sbu_0--edge1-XIVTED_clean_linker_0
_symmetry_space_group_name_H-M    P1
_symmetry_Int_Tables_number       1
_symmetry_cell_setting            triclinic
loop_
_symmetry_equiv_pos_as_xyz
'x, y, z'
_cell_length_a     28.370396
_cell_length_b     28.518557
_cell_length_c     42.734107
_cell_angle_alpha  89.954687
_cell_angle_beta   90.079055
_cell_angle_gamma 120.09186
loop_
_atom_site_label
_atom_site_type_symbol
_atom_site_fract_x
_atom_site_fract_y
_atom_site_fract_z
_atom_type_partial_charge
Co0 Co 0.59982 0.28651 0.15383 0.0
O1 O 0.60963 0.22502 0.15254 0.0
O2 O 0.53872 0.22636 0.13205 0.0
C3 C 0.61985 0.30312 0.20496 0.0
O4 O 0.5782 0.34556 0.15208 0.0
Co5 Co 0.70226 0.39574 0.16591 0.0
O6 O 0.65057 0.42249 0.16959 0.0
C7 C 0.68483 0.3501 0.1033 0.0
C8 C 0.56439 0.19982 0.13722 0.0
C9 C 0.60139 0.39607 0.16018 0.0
O10 O 0.63939 0.31133 0.11318 0.0
O11 O 0.71866 0.38874 0.1208 0.0
O12 O 0.57102 0.26853 0.1956 0.0
O13 O 0.65677 0.32334 0.18322 0.0
Co14 Co 0.3204 0.59614 0.49264 0.0
O15 O 0.3923 0.60713 0.4895 0.0
O16 O 0.31912 0.53487 0.47112 0.0
C17 C 0.32578 0.61795 0.54348 0.0
O18 O 0.2395 0.57421 0.49306 0.0
Co19 Co 0.316 0.70005 0.50423 0.0
O20 O 0.2371 0.64827 0.50911 0.0
C21 C 0.33709 0.67786 0.441 0.0
C22 C 0.37193 0.56152 0.47487 0.0
C23 C 0.21318 0.59851 0.50109 0.0
O24 O 0.32955 0.63247 0.45128 0.0
O25 O 0.33829 0.71447 0.45882 0.0
O26 O 0.31291 0.5694 0.53486 0.0
O27 O 0.342 0.65387 0.52133 0.0
Co28 Co 0.72071 0.31482 0.82173 0.0
O29 O 0.78214 0.38662 0.82226 0.0
O30 O 0.7832 0.31637 0.80128 0.0
C31 C 0.69941 0.3141 0.87233 0.0
O32 O 0.6623 0.23394 0.81824 0.0
Co33 Co 0.60955 0.30515 0.83144 0.0
O34 O 0.58317 0.22682 0.83382 0.0
C35 C 0.65867 0.33537 0.76966 0.0
C36 C 0.80903 0.36822 0.80737 0.0
C37 C 0.611 0.20544 0.82501 0.0
O38 O 0.69821 0.33083 0.78057 0.0
O39 O 0.61823 0.32836 0.78629 0.0
O40 O 0.73555 0.30161 0.86374 0.0
O41 O 0.68113 0.3325 0.85047 0.0
Co42 Co 0.41346 0.72502 0.1583 0.0
O43 O 0.40238 0.78576 0.15788 0.0
O44 O 0.47256 0.78558 0.13564 0.0
C45 C 0.39659 0.7083 0.20976 0.0
O46 O 0.43629 0.66694 0.15538 0.0
Co47 Co 0.31282 0.61514 0.17142 0.0
O48 O 0.36528 0.58911 0.17303 0.0
C49 C 0.32671 0.65971 0.1087 0.0
C50 C 0.44648 0.81142 0.14164 0.0
C51 C 0.41397 0.61628 0.163 0.0
O52 O 0.37179 0.69952 0.11824 0.0
O53 O 0.29441 0.62062 0.12645 0.0
O54 O 0.44461 0.74346 0.1996 0.0
O55 O 0.35842 0.68762 0.18867 0.0
Co56 Co 0.69577 0.40937 0.48791 0.0
O57 O 0.62373 0.39812 0.48505 0.0
O58 O 0.6966 0.47082 0.46683 0.0
C59 C 0.69103 0.38705 0.53855 0.0
O60 O 0.77678 0.43161 0.48818 0.0
Co61 Co 0.70049 0.3053 0.49899 0.0
O62 O 0.77955 0.35706 0.50297 0.0
C63 C 0.67859 0.32802 0.436 0.0
C64 C 0.64384 0.44401 0.47073 0.0
C65 C 0.80321 0.40706 0.49547 0.0
O66 O 0.68629 0.3734 0.44641 0.0
O67 O 0.67758 0.29133 0.45369 0.0
O68 O 0.70359 0.43565 0.53023 0.0
O69 O 0.67462 0.35136 0.51628 0.0
Co70 Co 0.29157 0.68853 0.82613 0.0
O71 O 0.22978 0.61697 0.8269 0.0
O72 O 0.22969 0.68697 0.80477 0.0
C73 C 0.312 0.69025 0.87706 0.0
O74 O 0.35045 0.7692 0.82216 0.0
Co75 Co 0.40216 0.69787 0.83708 0.0
O76 O 0.42869 0.77621 0.83946 0.0
C77 C 0.35412 0.66673 0.77505 0.0
C78 C 0.20348 0.63525 0.81121 0.0
C79 C 0.40147 0.79768 0.82966 0.0
O80 O 0.31433 0.67121 0.7855 0.0
O81 O 0.39451 0.67436 0.792 0.0
O82 O 0.27631 0.70295 0.86776 0.0
O83 O 0.33042 0.67116 0.85573 0.0
H84 H 0.45895 0.11789 0.12597 0.0
H85 H 0.5489 0.89213 0.12342 0.0
H86 H 0.6258 0.15367 0.12589 0.0
H87 H 0.38361 0.85753 0.13591 0.0
H88 H 0.57669 0.98749 0.1133 0.0
H89 H 0.42924 0.02147 0.1184 0.0
C90 C 0.48924 0.10559 0.12373 0.0
C91 C 0.54473 0.14348 0.12708 0.0
C92 C 0.53421 0.95876 0.11789 0.0
C93 C 0.51147 0.03388 0.11867 0.0
C94 C 0.51844 0.90441 0.12355 0.0
C95 C 0.46418 0.86721 0.13106 0.0
C96 C 0.49529 0.97563 0.11962 0.0
C97 C 0.42618 0.88515 0.13082 0.0
C98 C 0.47241 0.05063 0.1196 0.0
C99 C 0.58246 0.12551 0.12402 0.0
N100 N 0.44249 0.93802 0.12552 0.0
N101 N 0.56517 0.07206 0.12031 0.0
H102 H 0.34913 0.45748 0.46084 0.0
H103 H 0.66634 0.54858 0.45882 0.0
H104 H 0.47998 0.62363 0.46402 0.0
H105 H 0.53571 0.38225 0.45983 0.0
H106 H 0.59863 0.57732 0.45097 0.0
H107 H 0.41657 0.42913 0.45081 0.0
C108 C 0.3918 0.48794 0.45889 0.0
C109 C 0.40908 0.54277 0.46381 0.0
C110 C 0.58493 0.53446 0.45248 0.0
C111 C 0.48632 0.51104 0.4526 0.0
C112 C 0.62364 0.51819 0.4568 0.0
C113 C 0.60652 0.46314 0.46052 0.0
C114 C 0.52896 0.4953 0.45185 0.0
C115 C 0.55062 0.42528 0.45768 0.0
C116 C 0.43036 0.47188 0.4533 0.0
C117 C 0.46494 0.58073 0.46098 0.0
N118 N 0.51389 0.44203 0.45389 0.0
N119 N 0.50151 0.56416 0.45591 0.0
H120 H 0.85561 0.47649 0.79892 0.0
H121 H 0.1571 0.52682 0.80376 0.0
H122 H 0.89259 0.34716 0.79597 0.0
H123 H 0.12069 0.65627 0.7969 0.0
H124 H 0.06142 0.46102 0.79497 0.0
H125 H 0.95186 0.54233 0.79213 0.0
C126 C 0.88407 0.46187 0.79651 0.0
C127 C 0.86618 0.40623 0.79845 0.0
C128 C 0.07419 0.50375 0.79501 0.0
C129 C 0.977 0.48187 0.79095 0.0
C130 C 0.1289 0.54147 0.80012 0.0
C131 C 0.14675 0.59715 0.80152 0.0
C132 C 0.03652 0.52153 0.79165 0.0
C133 C 0.10858 0.61374 0.79615 0.0
C134 C 0.93911 0.49962 0.79257 0.0
C135 C 0.9047 0.38966 0.79473 0.0
N136 N 0.05502 0.57598 0.79191 0.0
N137 N 0.95851 0.42743 0.79163 0.0
H138 H 0.14729 0.6418 0.50965 0.0
H139 H 0.86829 0.3622 0.49304 0.0
H140 H 0.1402 0.48999 0.48938 0.0
H141 H 0.87657 0.51754 0.49544 0.0
H142 H 0.96716 0.4079 0.49341 0.0
H143 H 0.04865 0.59653 0.50665 0.0
C144 C 0.12512 0.59878 0.50465 0.0
C145 C 0.15259 0.5697 0.49986 0.0
C146 C 0.94753 0.43212 0.49377 0.0
C147 C 0.03849 0.51748 0.49633 0.0
C148 C 0.89085 0.40608 0.49369 0.0
C149 C 0.86373 0.43604 0.49447 0.0
C150 C 0.97793 0.48878 0.49491 0.0
C151 C 0.89557 0.49277 0.49486 0.0
C152 C 0.06853 0.57304 0.5028 0.0
C153 C 0.12105 0.51412 0.4933 0.0
N154 N 0.95101 0.5173 0.4953 0.0
N155 N 0.06568 0.48979 0.49184 0.0
H156 H 0.51164 0.865 0.83166 0.0
H157 H 0.50112 0.13854 0.82094 0.0
H158 H 0.36203 0.86792 0.81919 0.0
H159 H 0.65141 0.13485 0.82213 0.0
H160 H 0.45012 0.04014 0.81935 0.0
H161 H 0.56287 0.96305 0.82752 0.0
C162 C 0.48929 0.88616 0.82807 0.0
C163 C 0.43199 0.85772 0.82607 0.0
C164 C 0.4942 0.06066 0.81982 0.0
C165 C 0.49141 0.97124 0.8212 0.0
C166 C 0.52361 0.11708 0.82085 0.0
C167 C 0.58096 0.14537 0.82202 0.0
C168 C 0.52196 0.03161 0.82019 0.0
C169 C 0.60739 0.11495 0.82135 0.0
C170 C 0.5189 0.94243 0.82557 0.0
C171 C 0.40596 0.8879 0.82099 0.0
N172 N 0.57765 0.0597 0.82075 0.0
N173 N 0.43585 0.94304 0.81895 0.0
H174 H 0.5249 0.65566 0.15677 0.0
H175 H 0.49128 0.35805 0.15093 0.0
H176 H 0.37001 0.50679 0.16029 0.0
H177 H 0.64532 0.50571 0.16345 0.0
H178 H 0.44619 0.41244 0.14858 0.0
H179 H 0.57044 0.60172 0.1533 0.0
C180 C 0.5005 0.61185 0.15665 0.0
C181 C 0.44362 0.58593 0.15922 0.0
C182 C 0.48992 0.43279 0.15179 0.0
C183 C 0.49518 0.52394 0.15512 0.0
C184 C 0.5156 0.4017 0.15309 0.0
C185 C 0.5721 0.42703 0.15772 0.0
C186 C 0.52101 0.48961 0.15486 0.0
C187 C 0.60156 0.484 0.16024 0.0
C188 C 0.52643 0.58102 0.15476 0.0
C189 C 0.41404 0.52881 0.15885 0.0
N190 N 0.57576 0.51317 0.15882 0.0
N191 N 0.44006 0.49992 0.15692 0.0
H192 H 0.6786 0.38658 0.90301 0.0
H193 H 0.67435 0.26419 0.07128 0.0
H194 H 0.70168 0.24981 0.9178 0.0
H195 H 0.71644 0.43087 0.05955 0.0
H196 H 0.67488 0.25464 0.0146 0.0
H197 H 0.67966 0.39876 0.96018 0.0
C198 C 0.68271 0.35853 0.91831 0.0
C199 C 0.68986 0.31703 0.90589 0.0
C200 C 0.68474 0.29359 0.02432 0.0
C201 C 0.6919 0.33105 0.97062 0.0
C202 C 0.68483 0.29912 0.05663 0.0
C203 C 0.69612 0.34857 0.06991 0.0
C204 C 0.6948 0.33748 0.00504 0.0
C205 C 0.70853 0.39241 0.05004 0.0
C206 C 0.68413 0.36595 0.95078 0.0
C207 C 0.69601 0.28229 0.92654 0.0
N208 N 0.70692 0.3857 0.01841 0.0
N209 N 0.69684 0.29004 0.95785 0.0
H210 H 0.46443 0.77226 0.25573 0.0
H211 H 0.28223 0.60045 0.39751 0.0
H212 H 0.3038 0.63444 0.24112 0.0
H213 H 0.4003 0.77055 0.40667 0.0
H214 H 0.29303 0.60843 0.34077 0.0
H215 H 0.44615 0.76795 0.3116 0.0
C216 C 0.42527 0.74083 0.26428 0.0
C217 C 0.3855 0.70345 0.24371 0.0
C218 C 0.3162 0.64412 0.35513 0.0
C219 C 0.36457 0.69852 0.30784 0.0
C220 C 0.31032 0.63964 0.38749 0.0
C221 C 0.34081 0.68493 0.40675 0.0
C222 C 0.35371 0.694 0.34188 0.0
C223 C 0.3761 0.73476 0.3926 0.0
C224 C 0.41481 0.73881 0.29619 0.0
C225 C 0.33552 0.66393 0.25619 0.0
N226 N 0.38223 0.73783 0.36093 0.0
N227 N 0.32658 0.66219 0.28759 0.0
H228 H 0.57406 0.29376 0.72749 0.0
H229 H 0.7632 0.44992 0.5823 0.0
H230 H 0.74781 0.4001 0.73513 0.0
H231 H 0.61437 0.29743 0.57047 0.0
H232 H 0.75378 0.4384 0.63894 0.0
H233 H 0.5823 0.30245 0.67008 0.0
C234 C 0.61363 0.31973 0.7171 0.0
C235 C 0.66031 0.34649 0.73591 0.0
C236 C 0.72345 0.40706 0.62403 0.0
C237 C 0.67004 0.35598 0.67089 0.0
C238 C 0.72897 0.41348 0.59177 0.0
C239 C 0.68976 0.37428 0.57191 0.0
C240 C 0.67767 0.36164 0.6366 0.0
C241 C 0.64582 0.32808 0.58518 0.0
C242 C 0.61841 0.32401 0.68446 0.0
C243 C 0.71083 0.37885 0.7214 0.0
N244 N 0.64048 0.32326 0.61689 0.0
N245 N 0.71433 0.38279 0.6898 0.0
H246 H 0.33333 0.61898 0.90896 0.0
H247 H 0.33446 0.74392 0.07582 0.0
H248 H 0.30756 0.75444 0.92185 0.0
H249 H 0.29592 0.57804 0.0657 0.0
H250 H 0.33328 0.75188 0.01902 0.0
H251 H 0.3317 0.60791 0.96625 0.0
C252 C 0.32845 0.64696 0.92387 0.0
C253 C 0.32076 0.68779 0.91084 0.0
C254 C 0.32429 0.71343 0.02913 0.0
C255 C 0.31811 0.67503 0.97576 0.0
C256 C 0.32456 0.70878 0.06151 0.0
C257 C 0.3145 0.66005 0.07529 0.0
C258 C 0.31516 0.66938 0.01027 0.0
C259 C 0.30285 0.61595 0.05582 0.0
C260 C 0.32673 0.64017 0.95641 0.0
C261 C 0.31365 0.72246 0.93103 0.0
N262 N 0.30415 0.62183 0.02412 0.0
N263 N 0.31257 0.71534 0.96243 0.0
H264 H 0.62022 0.23392 0.40206 0.0
H265 H 0.71204 0.38037 0.23527 0.0
H266 H 0.72771 0.40638 0.39215 0.0
H267 H 0.55744 0.23512 0.25109 0.0
H268 H 0.73102 0.38425 0.29178 0.0
H269 H 0.60982 0.22674 0.34477 0.0
C270 C 0.64195 0.27002 0.38783 0.0
C271 C 0.6742 0.32083 0.40175 0.0
C272 C 0.69306 0.35155 0.28268 0.0
C273 C 0.66325 0.31298 0.33675 0.0
C274 C 0.68229 0.34942 0.25058 0.0
C275 C 0.63299 0.30775 0.23861 0.0
C276 C 0.65471 0.31111 0.30258 0.0
C277 C 0.59576 0.26836 0.25937 0.0
C278 C 0.63591 0.26602 0.35528 0.0
C279 C 0.70169 0.3665 0.38231 0.0
N280 N 0.60747 0.27088 0.29029 0.0
N281 N 0.69563 0.36152 0.35081 0.0
H282 H 0.26658 0.59515 0.74162 0.0
H283 H 0.3986 0.71092 0.57474 0.0
H284 H 0.43706 0.7137 0.73216 0.0
H285 H 0.25917 0.55171 0.58833 0.0
H286 H 0.40842 0.72202 0.63209 0.0
H287 H 0.25905 0.58602 0.6848 0.0
C288 C 0.30267 0.61859 0.72748 0.0
C289 C 0.35264 0.65473 0.74146 0.0
C290 C 0.37556 0.6849 0.62236 0.0
C291 C 0.34396 0.64592 0.67641 0.0
C292 C 0.36952 0.67891 0.5898 0.0
C293 C 0.32793 0.63044 0.57701 0.0
C294 C 0.33911 0.64243 0.6419 0.0
C295 C 0.29178 0.58971 0.59735 0.0
C296 C 0.29831 0.61362 0.69509 0.0
C297 C 0.39806 0.68473 0.72216 0.0
N298 N 0.29813 0.59665 0.62875 0.0
N299 N 0.39254 0.68015 0.69044 0.0
loop_
_geom_bond_atom_site_label_1
_geom_bond_atom_site_label_2
_geom_bond_distance
_geom_bond_site_symmetry_2
_ccdc_geom_bond_type
Co0 O1 2.216 . S
Co0 O2 2.091 . S
Co0 O4 2.004 . S
Co0 O10 2.021 . S
Co0 O12 2.137 . S
Co0 O13 2.244 . S
O1 Co0 2.216 . S
O1 C8 1.247 . S
O2 Co0 2.091 . S
O2 C8 1.261 . S
C3 O12 1.247 . S
C3 O13 1.272 . S
O4 Co0 2.004 . S
O4 C9 1.259 . S
Co5 O6 2.061 . S
Co5 O11 2.052 . S
Co5 O13 2.135 . S
O6 Co5 2.061 . S
O6 C9 1.235 . S
C7 O10 1.238 . S
C7 O11 1.241 . S
C8 O1 1.247 . S
C8 O2 1.261 . S
C9 O4 1.259 . S
C9 O6 1.235 . S
O10 Co0 2.021 . S
O10 C7 1.238 . S
O11 Co5 2.052 . S
O11 C7 1.241 . S
O12 Co0 2.137 . S
O12 C3 1.247 . S
O13 Co0 2.244 . S
O13 C3 1.272 . S
O13 Co5 2.135 . S
Co14 O15 2.216 . S
Co14 O16 2.091 . S
Co14 O18 2.004 . S
Co14 O24 2.021 . S
Co14 O26 2.137 . S
Co14 O27 2.244 . S
O15 Co14 2.216 . S
O15 C22 1.247 . S
O16 Co14 2.091 . S
O16 C22 1.261 . S
C17 O26 1.247 . S
C17 O27 1.272 . S
O18 Co14 2.004 . S
O18 C23 1.259 . S
Co19 O20 2.061 . S
Co19 O25 2.052 . S
Co19 O27 2.135 . S
O20 Co19 2.061 . S
O20 C23 1.235 . S
C21 O24 1.238 . S
C21 O25 1.241 . S
C22 O15 1.247 . S
C22 O16 1.261 . S
C23 O18 1.259 . S
C23 O20 1.235 . S
O24 Co14 2.021 . S
O24 C21 1.238 . S
O25 Co19 2.052 . S
O25 C21 1.241 . S
O26 Co14 2.137 . S
O26 C17 1.247 . S
O27 Co14 2.244 . S
O27 C17 1.272 . S
O27 Co19 2.135 . S
Co28 O29 2.216 . S
Co28 O30 2.091 . S
Co28 O32 2.004 . S
Co28 O38 2.021 . S
Co28 O40 2.137 . S
Co28 O41 2.244 . S
O29 Co28 2.216 . S
O29 C36 1.247 . S
O30 Co28 2.091 . S
O30 C36 1.261 . S
C31 O40 1.247 . S
C31 O41 1.272 . S
O32 Co28 2.004 . S
O32 C37 1.259 . S
Co33 O34 2.061 . S
Co33 O39 2.052 . S
Co33 O41 2.135 . S
O34 Co33 2.061 . S
O34 C37 1.235 . S
C35 O38 1.238 . S
C35 O39 1.241 . S
C36 O29 1.247 . S
C36 O30 1.261 . S
C37 O32 1.259 . S
C37 O34 1.235 . S
O38 Co28 2.021 . S
O38 C35 1.238 . S
O39 Co33 2.052 . S
O39 C35 1.241 . S
O40 Co28 2.137 . S
O40 C31 1.247 . S
O41 Co28 2.244 . S
O41 C31 1.272 . S
O41 Co33 2.135 . S
Co42 O43 2.216 . S
Co42 O44 2.091 . S
Co42 O46 2.004 . S
Co42 O52 2.021 . S
Co42 O54 2.137 . S
Co42 O55 2.244 . S
O43 Co42 2.216 . S
O43 C50 1.247 . S
O44 Co42 2.091 . S
O44 C50 1.261 . S
C45 O54 1.247 . S
C45 O55 1.272 . S
O46 Co42 2.004 . S
O46 C51 1.259 . S
Co47 O48 2.061 . S
Co47 O53 2.052 . S
Co47 O55 2.135 . S
O48 Co47 2.061 . S
O48 C51 1.235 . S
C49 O52 1.238 . S
C49 O53 1.241 . S
C50 O43 1.247 . S
C50 O44 1.261 . S
C51 O46 1.259 . S
C51 O48 1.235 . S
O52 Co42 2.021 . S
O52 C49 1.238 . S
O53 Co47 2.052 . S
O53 C49 1.241 . S
O54 Co42 2.137 . S
O54 C45 1.247 . S
O55 Co42 2.244 . S
O55 C45 1.272 . S
O55 Co47 2.135 . S
Co56 O57 2.216 . S
Co56 O58 2.091 . S
Co56 O60 2.004 . S
Co56 O66 2.021 . S
Co56 O68 2.137 . S
Co56 O69 2.244 . S
O57 Co56 2.216 . S
O57 C64 1.247 . S
O58 Co56 2.091 . S
O58 C64 1.261 . S
C59 O68 1.247 . S
C59 O69 1.272 . S
O60 Co56 2.004 . S
O60 C65 1.259 . S
Co61 O62 2.061 . S
Co61 O67 2.052 . S
Co61 O69 2.135 . S
O62 Co61 2.061 . S
O62 C65 1.235 . S
C63 O66 1.238 . S
C63 O67 1.241 . S
C64 O57 1.247 . S
C64 O58 1.261 . S
C65 O60 1.259 . S
C65 O62 1.235 . S
O66 Co56 2.021 . S
O66 C63 1.238 . S
O67 Co61 2.052 . S
O67 C63 1.241 . S
O68 Co56 2.137 . S
O68 C59 1.247 . S
O69 Co56 2.244 . S
O69 C59 1.272 . S
O69 Co61 2.135 . S
Co70 O71 2.216 . S
Co70 O72 2.091 . S
Co70 O74 2.004 . S
Co70 O80 2.021 . S
Co70 O82 2.137 . S
Co70 O83 2.244 . S
O71 Co70 2.216 . S
O71 C78 1.247 . S
O72 Co70 2.091 . S
O72 C78 1.261 . S
C73 O82 1.247 . S
C73 O83 1.272 . S
O74 Co70 2.004 . S
O74 C79 1.259 . S
Co75 O76 2.061 . S
Co75 O81 2.052 . S
Co75 O83 2.135 . S
O76 Co75 2.061 . S
O76 C79 1.235 . S
C77 O80 1.238 . S
C77 O81 1.241 . S
C78 O71 1.247 . S
C78 O72 1.261 . S
C79 O74 1.259 . S
C79 O76 1.235 . S
O80 Co70 2.021 . S
O80 C77 1.238 . S
O81 Co75 2.052 . S
O81 C77 1.241 . S
O82 Co70 2.137 . S
O82 C73 1.247 . S
O83 Co70 2.244 . S
O83 C73 1.272 . S
O83 Co75 2.135 . S
H84 C90 0.930 . S
H85 C94 0.930 . S
H86 C99 0.929 . S
H87 C97 0.929 . S
H88 C92 0.929 . S
H89 C98 0.929 . S
C90 H84 0.930 . S
C90 C91 1.367 . S
C90 C98 1.378 . S
C91 C90 1.367 . S
C91 C99 1.433 . S
C92 H88 0.929 . S
C92 C94 1.378 . S
C92 C96 1.350 . S
C93 C96 1.463 1_545 S
C93 C98 1.350 . S
C93 N101 1.427 . S
C94 H85 0.930 . S
C94 C92 1.378 . S
C94 C95 1.367 . S
C95 C94 1.367 . S
C95 C97 1.433 . S
C96 C92 1.350 . S
C96 C93 1.463 1_565 S
C96 N100 1.427 . S
C97 H87 0.929 . S
C97 C95 1.433 . S
C97 N100 1.384 . S
C98 H89 0.929 . S
C98 C90 1.378 . S
C98 C93 1.350 . S
C99 H86 0.929 . S
C99 C91 1.433 . S
C99 N101 1.384 . S
N100 C96 1.427 . S
N100 C97 1.384 . S
N101 C93 1.427 . S
N101 C99 1.384 . S
H102 C108 0.930 . S
H103 C112 0.930 . S
H104 C117 0.929 . S
H105 C115 0.929 . S
H106 C110 0.929 . S
H107 C116 0.929 . S
C108 H102 0.930 . S
C108 C109 1.367 . S
C108 C116 1.378 . S
C109 C108 1.367 . S
C109 C117 1.433 . S
C110 H106 0.929 . S
C110 C112 1.378 . S
C110 C114 1.350 . S
C111 C114 1.463 . S
C111 C116 1.350 . S
C111 N119 1.427 . S
C112 H103 0.930 . S
C112 C110 1.378 . S
C112 C113 1.367 . S
C113 C112 1.367 . S
C113 C115 1.433 . S
C114 C110 1.350 . S
C114 C111 1.463 . S
C114 N118 1.427 . S
C115 H105 0.929 . S
C115 C113 1.433 . S
C115 N118 1.384 . S
C116 H107 0.929 . S
C116 C108 1.378 . S
C116 C111 1.350 . S
C117 H104 0.929 . S
C117 C109 1.433 . S
C117 N119 1.384 . S
N118 C114 1.427 . S
N118 C115 1.384 . S
N119 C111 1.427 . S
N119 C117 1.384 . S
H120 C126 0.930 . S
H121 C130 0.930 . S
H122 C135 0.929 . S
H123 C133 0.929 . S
H124 C128 0.929 . S
H125 C134 0.929 . S
C126 H120 0.930 . S
C126 C127 1.367 . S
C126 C134 1.378 . S
C127 C126 1.367 . S
C127 C135 1.433 . S
C128 H124 0.929 . S
C128 C130 1.378 . S
C128 C132 1.350 . S
C129 C132 1.463 1_655 S
C129 C134 1.350 . S
C129 N137 1.427 . S
C130 H121 0.930 . S
C130 C128 1.378 . S
C130 C131 1.367 . S
C131 C130 1.367 . S
C131 C133 1.433 . S
C132 C128 1.350 . S
C132 C129 1.463 1_455 S
C132 N136 1.427 . S
C133 H123 0.929 . S
C133 C131 1.433 . S
C133 N136 1.384 . S
C134 H125 0.929 . S
C134 C126 1.378 . S
C134 C129 1.350 . S
C135 H122 0.929 . S
C135 C127 1.433 . S
C135 N137 1.384 . S
N136 C132 1.427 . S
N136 C133 1.384 . S
N137 C129 1.427 . S
N137 C135 1.384 . S
H138 C144 0.930 . S
H139 C148 0.930 . S
H140 C153 0.929 . S
H141 C151 0.929 . S
H142 C146 0.929 . S
H143 C152 0.929 . S
C144 H138 0.930 . S
C144 C145 1.367 . S
C144 C152 1.378 . S
C145 C144 1.367 . S
C145 C153 1.433 . S
C146 H142 0.929 . S
C146 C148 1.378 . S
C146 C150 1.350 . S
C147 C150 1.463 1_455 S
C147 C152 1.350 . S
C147 N155 1.427 . S
C148 H139 0.930 . S
C148 C146 1.378 . S
C148 C149 1.367 . S
C149 C148 1.367 . S
C149 C151 1.433 . S
C150 C146 1.350 . S
C150 C147 1.463 1_655 S
C150 N154 1.427 . S
C151 H141 0.929 . S
C151 C149 1.433 . S
C151 N154 1.384 . S
C152 H143 0.929 . S
C152 C144 1.378 . S
C152 C147 1.350 . S
C153 H140 0.929 . S
C153 C145 1.433 . S
C153 N155 1.384 . S
N154 C150 1.427 . S
N154 C151 1.384 . S
N155 C147 1.427 . S
N155 C153 1.384 . S
H156 C162 0.930 . S
H157 C166 0.930 . S
H158 C171 0.929 . S
H159 C169 0.929 . S
H160 C164 0.929 . S
H161 C170 0.929 . S
C162 H156 0.930 . S
C162 C163 1.367 . S
C162 C170 1.378 . S
C163 C162 1.367 . S
C163 C171 1.433 . S
C164 H160 0.929 . S
C164 C166 1.378 . S
C164 C168 1.350 . S
C165 C168 1.463 1_565 S
C165 C170 1.350 . S
C165 N173 1.427 . S
C166 H157 0.930 . S
C166 C164 1.378 . S
C166 C167 1.367 . S
C167 C166 1.367 . S
C167 C169 1.433 . S
C168 C164 1.350 . S
C168 C165 1.463 1_545 S
C168 N172 1.427 . S
C169 H159 0.929 . S
C169 C167 1.433 . S
C169 N172 1.384 . S
C170 H161 0.929 . S
C170 C162 1.378 . S
C170 C165 1.350 . S
C171 H158 0.929 . S
C171 C163 1.433 . S
C171 N173 1.384 . S
N172 C168 1.427 . S
N172 C169 1.384 . S
N173 C165 1.427 . S
N173 C171 1.384 . S
H174 C180 0.930 . S
H175 C184 0.930 . S
H176 C189 0.929 . S
H177 C187 0.929 . S
H178 C182 0.929 . S
H179 C188 0.929 . S
C180 H174 0.930 . S
C180 C181 1.367 . S
C180 C188 1.378 . S
C181 C180 1.367 . S
C181 C189 1.433 . S
C182 H178 0.929 . S
C182 C184 1.378 . S
C182 C186 1.350 . S
C183 C186 1.463 . S
C183 C188 1.350 . S
C183 N191 1.427 . S
C184 H175 0.930 . S
C184 C182 1.378 . S
C184 C185 1.367 . S
C185 C184 1.367 . S
C185 C187 1.433 . S
C186 C182 1.350 . S
C186 C183 1.463 . S
C186 N190 1.427 . S
C187 H177 0.929 . S
C187 C185 1.433 . S
C187 N190 1.384 . S
C188 H179 0.929 . S
C188 C180 1.378 . S
C188 C183 1.350 . S
C189 H176 0.929 . S
C189 C181 1.433 . S
C189 N191 1.384 . S
N190 C186 1.427 . S
N190 C187 1.384 . S
N191 C183 1.427 . S
N191 C189 1.384 . S
H192 C198 0.930 . S
H193 C202 0.930 . S
H194 C207 0.929 . S
H195 C205 0.929 . S
H196 C200 0.929 . S
H197 C206 0.929 . S
C198 H192 0.930 . S
C198 C199 1.367 . S
C198 C206 1.378 . S
C199 C198 1.367 . S
C199 C207 1.433 . S
C200 H196 0.929 . S
C200 C202 1.378 . S
C200 C204 1.350 . S
C201 C204 1.463 1_556 S
C201 C206 1.350 . S
C201 N209 1.427 . S
C202 H193 0.930 . S
C202 C200 1.378 . S
C202 C203 1.367 . S
C203 C202 1.367 . S
C203 C205 1.433 . S
C204 C200 1.350 . S
C204 C201 1.463 1_554 S
C204 N208 1.427 . S
C205 H195 0.929 . S
C205 C203 1.433 . S
C205 N208 1.384 . S
C206 H197 0.929 . S
C206 C198 1.378 . S
C206 C201 1.350 . S
C207 H194 0.929 . S
C207 C199 1.433 . S
C207 N209 1.384 . S
N208 C204 1.427 . S
N208 C205 1.384 . S
N209 C201 1.427 . S
N209 C207 1.384 . S
H210 C216 0.930 . S
H211 C220 0.930 . S
H212 C225 0.929 . S
H213 C223 0.929 . S
H214 C218 0.929 . S
H215 C224 0.929 . S
C216 H210 0.930 . S
C216 C217 1.367 . S
C216 C224 1.378 . S
C217 C216 1.367 . S
C217 C225 1.433 . S
C218 H214 0.929 . S
C218 C220 1.378 . S
C218 C222 1.350 . S
C219 C222 1.463 . S
C219 C224 1.350 . S
C219 N227 1.427 . S
C220 H211 0.930 . S
C220 C218 1.378 . S
C220 C221 1.367 . S
C221 C220 1.367 . S
C221 C223 1.433 . S
C222 C218 1.350 . S
C222 C219 1.463 . S
C222 N226 1.427 . S
C223 H213 0.929 . S
C223 C221 1.433 . S
C223 N226 1.384 . S
C224 H215 0.929 . S
C224 C216 1.378 . S
C224 C219 1.350 . S
C225 H212 0.929 . S
C225 C217 1.433 . S
C225 N227 1.384 . S
N226 C222 1.427 . S
N226 C223 1.384 . S
N227 C219 1.427 . S
N227 C225 1.384 . S
H228 C234 0.930 . S
H229 C238 0.930 . S
H230 C243 0.929 . S
H231 C241 0.929 . S
H232 C236 0.929 . S
H233 C242 0.929 . S
C234 H228 0.930 . S
C234 C235 1.367 . S
C234 C242 1.378 . S
C235 C234 1.367 . S
C235 C243 1.433 . S
C236 H232 0.929 . S
C236 C238 1.378 . S
C236 C240 1.350 . S
C237 C240 1.463 . S
C237 C242 1.350 . S
C237 N245 1.427 . S
C238 H229 0.930 . S
C238 C236 1.378 . S
C238 C239 1.367 . S
C239 C238 1.367 . S
C239 C241 1.433 . S
C240 C236 1.350 . S
C240 C237 1.463 . S
C240 N244 1.427 . S
C241 H231 0.929 . S
C241 C239 1.433 . S
C241 N244 1.384 . S
C242 H233 0.929 . S
C242 C234 1.378 . S
C242 C237 1.350 . S
C243 H230 0.929 . S
C243 C235 1.433 . S
C243 N245 1.384 . S
N244 C240 1.427 . S
N244 C241 1.384 . S
N245 C237 1.427 . S
N245 C243 1.384 . S
H246 C252 0.930 . S
H247 C256 0.930 . S
H248 C261 0.929 . S
H249 C259 0.929 . S
H250 C254 0.929 . S
H251 C260 0.929 . S
C252 H246 0.930 . S
C252 C253 1.367 . S
C252 C260 1.378 . S
C253 C252 1.367 . S
C253 C261 1.433 . S
C254 H250 0.929 . S
C254 C256 1.378 . S
C254 C258 1.350 . S
C255 C258 1.463 1_556 S
C255 C260 1.350 . S
C255 N263 1.427 . S
C256 H247 0.930 . S
C256 C254 1.378 . S
C256 C257 1.367 . S
C257 C256 1.367 . S
C257 C259 1.433 . S
C258 C254 1.350 . S
C258 C255 1.463 1_554 S
C258 N262 1.427 . S
C259 H249 0.929 . S
C259 C257 1.433 . S
C259 N262 1.384 . S
C260 H251 0.929 . S
C260 C252 1.378 . S
C260 C255 1.350 . S
C261 H248 0.929 . S
C261 C253 1.433 . S
C261 N263 1.384 . S
N262 C258 1.427 . S
N262 C259 1.384 . S
N263 C255 1.427 . S
N263 C261 1.384 . S
H264 C270 0.930 . S
H265 C274 0.930 . S
H266 C279 0.929 . S
H267 C277 0.929 . S
H268 C272 0.929 . S
H269 C278 0.929 . S
C270 H264 0.930 . S
C270 C271 1.367 . S
C270 C278 1.378 . S
C271 C270 1.367 . S
C271 C279 1.433 . S
C272 H268 0.929 . S
C272 C274 1.378 . S
C272 C276 1.350 . S
C273 C276 1.463 . S
C273 C278 1.350 . S
C273 N281 1.427 . S
C274 H265 0.930 . S
C274 C272 1.378 . S
C274 C275 1.367 . S
C275 C274 1.367 . S
C275 C277 1.433 . S
C276 C272 1.350 . S
C276 C273 1.463 . S
C276 N280 1.427 . S
C277 H267 0.929 . S
C277 C275 1.433 . S
C277 N280 1.384 . S
C278 H269 0.929 . S
C278 C270 1.378 . S
C278 C273 1.350 . S
C279 H266 0.929 . S
C279 C271 1.433 . S
C279 N281 1.384 . S
N280 C276 1.427 . S
N280 C277 1.384 . S
N281 C273 1.427 . S
N281 C279 1.384 . S
H282 C288 0.930 . S
H283 C292 0.930 . S
H284 C297 0.929 . S
H285 C295 0.929 . S
H286 C290 0.929 . S
H287 C296 0.929 . S
C288 H282 0.930 . S
C288 C289 1.367 . S
C288 C296 1.378 . S
C289 C288 1.367 . S
C289 C297 1.433 . S
C290 H286 0.929 . S
C290 C292 1.378 . S
C290 C294 1.350 . S
C291 C294 1.463 . S
C291 C296 1.350 . S
C291 N299 1.427 . S
C292 H283 0.930 . S
C292 C290 1.378 . S
C292 C293 1.367 . S
C293 C292 1.367 . S
C293 C295 1.433 . S
C294 C290 1.350 . S
C294 C291 1.463 . S
C294 N298 1.427 . S
C295 H285 0.929 . S
C295 C293 1.433 . S
C295 N298 1.384 . S
C296 H287 0.929 . S
C296 C288 1.378 . S
C296 C291 1.350 . S
C297 H284 0.929 . S
C297 C289 1.433 . S
C297 N299 1.384 . S
N298 C294 1.427 . S
N298 C295 1.384 . S
N299 C291 1.427 . S
N299 C297 1.384 . S
C91 C8 1.413 . S
C95 C50 1.414 . S
C109 C22 1.414 . S
C113 C64 1.414 . S
C127 C36 1.413 . S
C131 C78 1.413 . S
C145 C23 1.469 . S
C149 C65 1.470 . S
C163 C79 1.468 . S
C167 C37 1.469 . S
C181 C51 1.476 . S
C185 C9 1.474 . S
C199 C31 1.246 . S
C203 C7 1.270 . S
C217 C45 1.229 . S
C221 C21 1.258 . S
C235 C35 1.259 . S
C239 C59 1.232 . S
C253 C73 1.246 . S
C257 C49 1.270 . S
C271 C63 1.268 . S
C275 C3 1.244 . S
C289 C77 1.269 . S
C293 C17 1.244 . S
