# Generated by pormake.
# Topology yfh, (5)-cn, num edge types: 1
# Building blocks:
#     Node 0, Type 0, BuildingBlock: XOMCOT_clean_sbu_1, # of connection points: 5
#     Node 1, Type 0, BuildingBlock: XOMCOT_clean_sbu_1, # of connection points: 5
#     Node 2, Type 0, BuildingBlock: XOMCOT_clean_sbu_1, # of connection points: 5
#     Node 3, Type 0, BuildingBlock: XOMCOT_clean_sbu_1, # of connection points: 5
#     Node 4, Type 0, BuildingBlock: XOMCOT_clean_sbu_1, # of connection points: 5
#     Node 5, Type 0, BuildingBlock: XOMCOT_clean_sbu_1, # of connection points: 5
#     Node 6, Type 0, BuildingBlock: XOMCOT_clean_sbu_1, # of connection points: 5
#     Node 7, Type 0, BuildingBlock: XOMCOT_clean_sbu_1, # of connection points: 5
#     Edge 8, Type (0, 0), BuildingBlock: OJICUG_clean_linker_0, # of connection points: 2
#     Edge 9, Type (0, 0), BuildingBlock: OJICUG_clean_linker_0, # of connection points: 2
#     Edge 10, Type (0, 0), BuildingBlock: OJICUG_clean_linker_0, # of connection points: 2
#     Edge 11, Type (0, 0), BuildingBlock: OJICUG_clean_linker_0, # of connection points: 2
#     Edge 12, Type (0, 0), BuildingBlock: OJICUG_clean_linker_0, # of connection points: 2
#     Edge 13, Type (0, 0), BuildingBlock: OJICUG_clean_linker_0, # of connection points: 2
#     Edge 14, Type (0, 0), BuildingBlock: OJICUG_clean_linker_0, # of connection points: 2
#     Edge 15, Type (0, 0), BuildingBlock: OJICUG_clean_linker_0, # of connection points: 2
#     Edge 16, Type (0, 0), BuildingBlock: OJICUG_clean_linker_0, # of connection points: 2
#     Edge 17, Type (0, 0), BuildingBlock: OJICUG_clean_linker_0, # of connection points: 2
#     Edge 18, Type (0, 0), BuildingBlock: OJICUG_clean_linker_0, # of connection points: 2
#     Edge 19, Type (0, 0), BuildingBlock: OJICUG_clean_linker_0, # of connection points: 2
#     Edge 20, Type (0, 0), BuildingBlock: OJICUG_clean_linker_0, # of connection points: 2
#     Edge 21, Type (0, 0), BuildingBlock: OJICUG_clean_linker_0, # of connection points: 2
#     Edge 22, Type (0, 0), BuildingBlock: OJICUG_clean_linker_0, # of connection points: 2
#     Edge 23, Type (0, 0), BuildingBlock: OJICUG_clean_linker_0, # of connection points: 2
#     Edge 24, Type (0, 0), BuildingBlock: OJICUG_clean_linker_0, # of connection points: 2
#     Edge 25, Type (0, 0), BuildingBlock: OJICUG_clean_linker_0, # of connection points: 2
#     Edge 26, Type (0, 0), BuildingBlock: OJICUG_clean_linker_0, # of connection points: 2
#     Edge 27, Type (0, 0), BuildingBlock: OJICUG_clean_linker_0, # of connection points: 2
# Relax obj value: 0.421
# Max RMSD: 0.276
# Mean RMSD: 0.276
data_MOF--net-yfh--node1-XOMCOT_clean_sbu_1--edge1-OJICUG_clean_linker_0
_symmetry_space_group_name_H-M    P1
_symmetry_Int_Tables_number       1
_symmetry_cell_setting            triclinic
loop_
_symmetry_equiv_pos_as_xyz
'x, y, z'
_cell_length_a     19.946064
_cell_length_b     19.940202
_cell_length_c     47.493574
_cell_angle_alpha  89.552342
_cell_angle_beta   90.121657
_cell_angle_gamma 89.908121
loop_
_atom_site_label
_atom_site_type_symbol
_atom_site_fract_x
_atom_site_fract_y
_atom_site_fract_z
_atom_type_partial_charge
C0 C 0.41496 0.11803 0.03803 0.0
C1 C 0.38303 0.12912 0.01268 0.0
N2 N 0.33432 0.17493 0.01672 0.0
N3 N 0.38708 0.15753 0.05773 0.0
C4 C 0.3376 0.19088 0.0442 0.0
H5 H 0.45693 0.08471 0.04175 0.0
Co6 Co 0.41511 0.16589 0.0947 0.0
C7 C 0.37916 0.30494 0.11077 0.0
O8 O 0.43777 0.30881 0.1233 0.0
N9 N 0.44223 0.1733 0.13269 0.0
C10 C 0.49521 0.18474 0.17377 0.0
C11 C 0.50254 0.18446 0.14491 0.0
C12 C 0.39949 0.16737 0.15462 0.0
N13 N 0.43029 0.1736 0.17968 0.0
O14 O 0.34185 0.10816 0.10547 0.0
H15 H 0.54925 0.19177 0.13391 0.0
H16 H 0.34634 0.15802 0.15242 0.0
O17 O 0.36183 0.24982 0.09895 0.0
C18 C 0.36478 0.04833 0.10789 0.0
O19 O 0.43002 1.03959 0.1066 0.0
N20 N 0.49034 0.21243 0.0815 0.0
C21 C 0.58244 0.22728 0.03783 0.0
C22 C 0.53482 0.2776 0.04323 0.0
C23 C 0.48772 0.2682 0.0646 0.0
C24 C 0.54218 0.16831 0.07914 0.0
C25 C 0.58873 0.17462 0.05747 0.0
H26 H 0.44473 0.30093 0.06453 0.0
H27 H 0.54163 0.12238 0.0914 0.0
H28 H 0.30616 0.2283 0.05392 0.0
H29 H 0.39529 0.10607 -0.00722 0.0
H30 H 0.53487 0.18972 0.18921 0.0
H31 H 0.52892 0.32018 0.02916 0.0
H32 H 0.62366 0.13381 0.05434 0.0
C33 C 0.44717 0.91862 0.28812 0.0
C34 C 0.43406 0.88423 0.26366 0.0
N35 N 0.3938 0.83197 0.26999 0.0
N36 N 0.41457 0.8885 0.30958 0.0
C37 C 0.38408 0.83517 0.298 0.0
H38 H 0.47627 0.96408 0.28994 0.0
Co39 Co 0.40653 0.91654 0.34652 0.0
C40 C 0.26599 0.88221 0.36208 0.0
O41 O 0.26175 0.94029 0.37481 0.0
N42 N 0.39877 0.94309 0.38447 0.0
C43 C 0.38791 0.99507 0.42564 0.0
C44 C 0.38735 1.00306 0.39677 0.0
C45 C 0.40515 0.89983 0.40637 0.0
N46 N 0.39959 0.93003 0.43147 0.0
O47 O 0.46332 0.84209 0.35739 0.0
H48 H 0.37961 0.05006 0.38582 0.0
H49 H 0.41477 0.84675 0.40415 0.0
O50 O 0.32169 0.86485 0.35068 0.0
C51 C 0.52334 0.86443 0.35943 0.0
O52 O 0.53249 0.92955 0.35742 0.0
N53 N 0.36138 0.99296 0.33328 0.0
C54 C 0.35072 0.08607 0.28941 0.0
C55 C 0.29931 1.0393 0.29443 0.0
C56 C 0.30655 0.99172 0.31597 0.0
C57 C 0.40619 0.04426 0.33135 0.0
C58 C 0.40192 0.09134 0.3096 0.0
H59 H 0.27323 0.94927 0.3157 0.0
H60 H 0.45135 0.04271 0.34399 0.0
H61 H 0.3543 0.7997 0.30983 0.0
H62 H 0.45023 0.89861 0.24274 0.0
H63 H 0.38349 1.03443 0.4411 0.0
H64 H 0.25763 1.03432 0.27997 0.0
H65 H 0.44341 0.12562 0.30685 0.0
C66 C 0.6706 0.94634 0.53627 0.0
C67 C 0.70566 0.93389 0.51187 0.0
N68 N 0.75809 0.89378 0.51832 0.0
N69 N 0.70055 0.91351 0.5578 0.0
C70 C 0.75438 0.88351 0.54632 0.0
H71 H 0.62483 0.97513 0.53799 0.0
Co72 Co 0.67227 0.90483 0.59475 0.0
C73 C 0.70544 0.763 0.60976 0.0
O74 O 0.64738 0.75855 0.62261 0.0
N75 N 0.64531 0.89635 0.63281 0.0
C76 C 0.59203 0.88316 0.67374 0.0
C77 C 0.58551 0.8819 0.64487 0.0
C78 C 0.68708 0.90521 0.65492 0.0
N79 N 0.65599 0.89833 0.67988 0.0
O80 O 0.74723 0.96044 0.60547 0.0
H81 H 0.53955 0.87132 0.63375 0.0
H82 H 0.73964 0.91752 0.653 0.0
O83 O 0.72313 0.8192 0.59866 0.0
C84 C 0.72502 1.02069 0.60688 0.0
O85 O 0.66004 1.03017 0.60444 0.0
N86 N 0.59546 0.86118 0.58165 0.0
C87 C 0.4986 0.85058 0.53952 0.0
C88 C 0.5461 0.79926 0.54384 0.0
C89 C 0.59558 0.80656 0.56444 0.0
C90 C 0.54424 0.90635 0.58029 0.0
C91 C 0.49528 0.90207 0.55946 0.0
H92 H 0.63807 0.77322 0.5636 0.0
H93 H 0.54664 0.95131 0.59284 0.0
H94 H 0.78982 0.85361 0.55821 0.0
H95 H 0.69158 0.95023 0.49089 0.0
H96 H 0.55223 0.87674 0.68899 0.0
H97 H 0.54984 0.75751 0.5295 0.0
H98 H 0.46065 0.94356 0.55716 0.0
C99 C 0.61155 0.17704 0.78637 0.0
C100 C 0.62216 0.20873 0.7609 0.0
N101 N 0.66973 0.2558 0.76458 0.0
N102 N 0.65299 0.20348 0.80577 0.0
C103 C 0.68712 0.25182 0.79195 0.0
H104 H 0.57725 0.13612 0.79036 0.0
Co105 Co 0.66236 0.17502 0.84272 0.0
C106 C 0.80248 0.20927 0.85824 0.0
O107 O 0.80671 0.15047 0.87077 0.0
N108 N 0.6709 0.14726 0.88075 0.0
C109 C 0.68486 0.09304 0.92161 0.0
C110 C 0.68425 0.08683 0.89274 0.0
C111 C 0.664 0.18897 0.90287 0.0
N112 N 0.67172 0.15735 0.92779 0.0
O113 O 0.60559 0.24893 0.8535 0.0
H114 H 0.69311 0.04076 0.88158 0.0
H115 H 0.6529 0.24191 0.90093 0.0
O116 O 0.74683 0.22726 0.84673 0.0
C117 C 0.54574 0.22615 0.85547 0.0
O118 O 0.53708 0.16096 0.8539 0.0
N119 N 0.70758 0.09931 0.82951 0.0
C120 C 0.72307 1.00298 0.78774 0.0
C121 C 0.7729 0.05149 0.79235 0.0
C122 C 0.76314 0.10067 0.81271 0.0
C123 C 0.66325 0.04764 0.82768 0.0
C124 C 0.66997 0.99893 0.80703 0.0
H125 H 0.79569 0.1437 0.81206 0.0
H126 H 0.61742 0.04923 0.83979 0.0
H127 H 0.72621 0.28176 0.80136 0.0
H128 H 0.59771 0.19724 0.74116 0.0
H129 H 0.69148 0.05293 0.93686 0.0
H130 H 0.81558 0.05603 0.77842 0.0
H131 H 0.62938 0.96361 0.80437 0.0
C132 C 0.91065 0.45381 0.66538 0.0
C133 C 0.87487 0.44239 0.68975 0.0
N134 N 0.82356 0.40076 0.68377 0.0
N135 N 0.8824 0.41879 0.64433 0.0
C136 C 0.82866 0.38872 0.65597 0.0
H137 H 0.95629 0.48267 0.66347 0.0
Co138 Co 0.91403 0.4064 0.60803 0.0
C139 C 0.88689 0.26187 0.5977 0.0
O140 O 0.94883 0.25606 0.58879 0.0
N141 N 0.94458 0.39403 0.57034 0.0
C142 C 1.00214 0.36995 0.53146 0.0
C143 C 1.00337 0.3699 0.56035 0.0
C144 C 0.9084 0.40724 0.54675 0.0
N145 N 0.94234 0.39377 0.5229 0.0
O146 O 0.83907 0.45971 0.59513 0.0
H147 H 0.0447 0.35146 0.5729 0.0
H148 H 0.85829 0.4278 0.54685 0.0
O149 O 0.86503 0.31957 0.6054 0.0
C150 C 0.86099 0.52004 0.59343 0.0
O151 O 0.92599 0.52953 0.5956 0.0
N152 N 0.99058 0.36548 0.62344 0.0
C153 C 0.08474 0.36823 0.66664 0.0
C154 C 1.03453 0.31897 0.66644 0.0
C155 C 0.9876 0.31837 0.64451 0.0
C156 C 0.04372 0.40823 0.6218 0.0
C157 C 0.09256 0.40894 0.64271 0.0
H158 H 0.94348 0.28772 0.64719 0.0
H159 H 0.04378 0.44795 0.60616 0.0
H160 H 0.79476 0.35704 0.64436 0.0
H161 H 0.8881 0.46026 0.71048 0.0
H162 H 0.04231 0.35352 0.51787 0.0
H163 H 1.02606 0.28716 0.68466 0.0
H164 H 0.13119 0.44703 0.64183 0.0
C165 C 0.11905 0.40636 0.91874 0.0
C166 C 0.13418 0.3714 0.94307 0.0
N167 N 0.17963 0.32359 0.93684 0.0
N168 N 0.15527 0.38107 0.89739 0.0
C169 C 0.19038 0.32996 0.90893 0.0
H170 H 0.08628 0.44946 0.91697 0.0
Co171 Co 0.16222 0.41578 0.86119 0.0
C172 C 0.30222 0.3842 0.84399 0.0
O173 O 0.30623 0.44437 0.8327 0.0
N174 N 0.16883 0.45012 0.82401 0.0
C175 C 0.18207 0.51282 0.78546 0.0
C176 C 0.18237 0.51263 0.81435 0.0
C177 C 0.1612 0.41343 0.80037 0.0
N178 N 0.16827 0.45034 0.77662 0.0
O179 O 0.10561 0.34362 0.84856 0.0
H180 H 0.19314 0.55583 0.82708 0.0
H181 H 0.1493 0.36059 0.80056 0.0
O182 O 0.24684 0.36505 0.85522 0.0
C183 C 0.04561 0.36653 0.84715 0.0
O184 O 1.03661 0.43135 0.85026 0.0
N185 N 0.2073 0.48932 0.87626 0.0
C186 C 0.22564 0.58256 0.91901 0.0
C187 C 0.27514 0.53423 0.91333 0.0
C188 C 0.26405 0.48661 0.89241 0.0
C189 C 0.16252 0.54026 0.87952 0.0
C190 C 0.17084 0.58761 0.90053 0.0
H191 H 0.29689 0.44368 0.89194 0.0
H192 H 0.11577 0.53941 0.86794 0.0
H193 H 0.22452 0.29886 0.8972 0.0
H194 H 0.11577 0.38284 0.9639 0.0
H195 H 0.19139 0.55597 0.7721 0.0
H196 H 0.31876 0.52871 0.92675 0.0
H197 H 0.13027 0.62258 0.90412 0.0
C198 C 0.17115 0.61689 0.1693 0.0
C199 C 0.2024 0.62819 0.19472 0.0
N200 N 0.24998 0.67519 0.19067 0.0
N201 N 0.19842 0.65733 0.14958 0.0
C202 C 0.24676 0.69152 0.16314 0.0
H203 H 0.1299 0.58293 0.16557 0.0
Co204 Co 0.17083 0.66635 0.11258 0.0
C205 C 0.20745 0.80552 0.09603 0.0
O206 O 0.14919 0.81 0.08322 0.0
N207 N 0.14413 0.6746 0.07462 0.0
C208 C 0.09175 0.68747 0.03343 0.0
C209 C 0.08399 0.68635 0.06224 0.0
C210 C 0.18721 0.66923 0.05284 0.0
N211 N 0.15676 0.67635 0.02772 0.0
O212 O 0.24409 0.60831 0.10213 0.0
H213 H 1.03708 0.69351 0.07307 0.0
H214 H 0.24031 0.65952 0.05518 0.0
O215 O 0.22433 0.75004 0.10809 0.0
C216 C 0.22118 0.54862 0.0998 0.0
O217 O 0.15594 0.54004 0.10112 0.0
N218 N 0.09566 0.71313 0.1254 0.0
C219 C 0.99848 0.73221 0.16667 0.0
C220 C 0.04803 0.78093 0.16176 0.0
C221 C 0.09759 0.76937 0.14166 0.0
C222 C 0.04317 0.66981 0.12751 0.0
C223 C 0.99392 0.67841 0.14789 0.0
H224 H 0.14122 0.8011 0.14217 0.0
H225 H 0.04435 0.62336 0.11591 0.0
H226 H 0.27716 0.73003 0.15344 0.0
H227 H 0.19019 0.60469 0.21467 0.0
H228 H 0.05229 0.6928 0.01788 0.0
H229 H 0.05307 0.82391 0.17539 0.0
H230 H 0.95774 0.63862 0.15087 0.0
C231 C 0.96143 0.66519 0.41641 0.0
C232 C 0.95369 0.69653 0.44197 0.0
N233 N 0.91037 0.74792 0.43844 0.0
N234 N 0.92221 0.69618 0.39717 0.0
C235 C 0.89277 0.74688 0.41107 0.0
H236 H 0.99171 0.6213 0.41232 0.0
Co237 Co 0.90832 0.67202 0.36009 0.0
C238 C 0.76511 0.70373 0.3496 0.0
O239 O 0.75964 0.64388 0.33853 0.0
N240 N 0.89496 0.64936 0.32163 0.0
C241 C 0.87381 0.60185 0.28011 0.0
C242 C 0.87423 0.59244 0.30886 0.0
C243 C 0.9055 0.69252 0.29997 0.0
N244 N 0.89403 0.66482 0.27468 0.0
O245 O 0.96304 0.74797 0.34961 0.0
H246 H 0.85964 0.54661 0.31937 0.0
H247 H 0.92199 0.74372 0.3024 0.0
O248 O 0.82249 0.72349 0.35871 0.0
C249 C 1.02309 0.72599 0.3469 0.0
O250 O 1.03243 0.66072 0.34727 0.0
N251 N 0.86568 0.59399 0.37309 0.0
C252 C 0.86558 0.49358 0.41413 0.0
C253 C 0.81774 0.54527 0.41479 0.0
C254 C 0.81854 0.59523 0.39398 0.0
C255 C 0.90706 0.53996 0.37045 0.0
C256 C 0.90635 0.48814 0.39024 0.0
H257 H 0.78898 0.6397 0.39758 0.0
H258 H 0.94702 0.54111 0.3551 0.0
H259 H 0.85644 0.7806 0.40169 0.0
H260 H 0.97676 0.68161 0.4617 0.0
H261 H 0.86242 0.56443 0.26442 0.0
H262 H 0.78587 0.55219 0.43296 0.0
H263 H 0.94323 0.44845 0.38857 0.0
C264 C 0.31699 0.21799 0.96849 0.0
C265 C 0.29267 0.20683 -0.0042 0.0
H266 H 0.3014 0.26487 0.92863 0.0
C267 C 0.22887 0.23127 0.00294 0.0
H268 H 0.3664 0.20068 0.96254 0.0
C269 C 0.1909 0.2678 -0.01662 0.0
C270 C 0.21614 0.28113 0.9563 0.0
H271 H 0.20858 0.22259 0.02377 0.0
H272 H 0.14211 0.28612 -0.01038 0.0
C273 C 0.27938 0.25493 0.94901 0.0
C274 C 0.2643 0.71815 0.23879 0.0
C275 C 0.28962 0.70866 0.21159 0.0
H276 H 0.27639 0.76588 0.27838 0.0
C277 C 0.35184 0.73702 0.20443 0.0
H278 H 0.21601 0.69791 0.24476 0.0
C279 C 0.38698 0.77599 0.22379 0.0
C280 C 0.36053 0.78751 0.2507 0.0
H281 H 0.37296 0.72975 0.1837 0.0
H282 H 0.43447 0.7976 0.21758 0.0
C283 C 0.29917 0.75729 0.25809 0.0
C284 C 0.86937 0.76254 0.48691 0.0
C285 C 0.87967 0.78853 0.45974 0.0
H286 H 0.82156 0.77466 0.52657 0.0
C287 C 0.85368 0.85222 0.45287 0.0
H288 H 0.88783 0.71326 0.49271 0.0
C289 C 0.81552 0.88779 0.47235 0.0
C290 C 0.80266 0.86045 0.49912 0.0
H291 H 0.86174 0.87396 0.43221 0.0
H292 H 0.79526 0.93619 0.46631 0.0
C293 C 0.83117 0.79797 0.50635 0.0
C294 C 0.74924 0.30587 0.69641 0.0
C295 C 0.77936 0.36745 0.70339 0.0
H296 H 0.69085 0.22228 0.71039 0.0
C297 C 0.76846 0.39373 0.73038 0.0
H298 H 0.75719 0.28303 0.67612 0.0
C299 C 0.73057 0.35814 0.75017 0.0
C300 C 0.7024 0.29575 0.74335 0.0
H301 H 0.78989 0.44135 0.73636 0.0
H302 H 0.72393 0.37904 0.77095 0.0
C303 C 0.71101 0.27068 0.71611 0.0
C304 C 0.59929 0.22414 0.95846 0.0
C305 C 0.65627 0.18389 0.95503 0.0
H306 H 0.5305 0.26813 -0.01309 0.0
C307 C 0.69446 0.16588 -0.02127 0.0
H308 H 0.56867 0.23804 0.94047 0.0
C309 C 0.6741 0.18531 0.00565 0.0
C310 C 0.61387 0.22126 0.00943 0.0
H311 H 0.73913 0.13552 0.97641 0.0
H312 H 0.70412 0.16961 0.02354 0.0
C313 C 0.57789 0.242 -0.01471 0.0
C314 C 0.33985 0.0818 0.23674 0.0
C315 C 0.3596 0.1173 0.26094 0.0
H316 H 0.34679 0.07243 0.19202 0.0
C317 C 0.39731 0.17652 0.25727 0.0
H318 H 0.31245 1.03515 0.23828 0.0
C319 C 0.41925 0.19625 0.23048 0.0
C320 C 0.40202 0.15854 0.20677 0.0
H321 H 0.41234 0.20624 0.27517 0.0
H322 H 0.45078 0.24013 0.22829 0.0
C323 C 0.36019 0.10265 0.21003 0.0
C324 C 0.47348 0.85959 0.46059 0.0
C325 C 0.41719 0.90143 0.45831 0.0
H326 H 0.54401 0.8119 0.48759 0.0
C327 C 0.38185 0.91855 0.48271 0.0
H328 H 0.50195 0.84627 0.44206 0.0
C329 C 0.40445 0.89662 0.50915 0.0
C330 C 0.4642 0.85905 0.51173 0.0
H331 H 0.33771 0.95008 0.48129 0.0
H332 H 0.37662 0.91166 0.5276 0.0
C333 C 0.49713 0.83923 0.48691 0.0
C334 C 0.6831 0.9065 0.75781 0.0
C335 C 0.71806 0.96763 0.76022 0.0
H336 H 0.63472 0.83699 0.73002 0.0
C337 C 0.7387 1.00053 0.73534 0.0
H338 H 0.66757 0.87878 0.77635 0.0
C339 C 0.72151 0.97538 0.70903 0.0
C340 C 0.68212 0.91751 0.70682 0.0
H341 H 0.76414 0.04838 0.73591 0.0
H342 H 0.73518 1.00383 0.6904 0.0
C343 C 0.6644 0.88228 0.73135 0.0
C344 C 0.13766 0.47678 0.72743 0.0
C345 C 0.15573 0.4293 0.74807 0.0
H346 H 0.10096 0.4948 0.68602 0.0
C347 C 0.1568 0.36094 0.74073 0.0
H348 H 0.13501 0.52963 0.73222 0.0
C349 C 0.13707 0.3406 0.71378 0.0
C350 C 0.11653 0.38826 0.6936 0.0
H351 H 0.17157 0.32295 0.7559 0.0
H352 H 0.13634 0.2876 0.70896 0.0
C353 C 0.1183 0.45661 0.70066 0.0
C354 C 0.18714 0.67709 0.95013 0.0
C355 C 0.22239 0.61628 0.94689 0.0
H356 H 0.13701 0.74318 -0.02122 0.0
C357 C 0.24365 0.58155 0.97127 0.0
H358 H 0.17141 0.70629 0.93197 0.0
C359 C 0.22567 0.60405 -0.0021 0.0
C360 C 0.18497 0.66091 0.0008 0.0
H361 H 0.26968 0.53403 0.97 0.0
H362 H 0.23935 0.57408 0.01615 0.0
C363 C 0.16754 0.6985 0.97684 0.0
C364 C 0.90083 0.6955 0.19686 0.0
C365 C 0.963 0.72846 0.19424 0.0
H366 H 0.83034 0.64845 0.22484 0.0
C367 C 0.99691 0.74745 0.21897 0.0
H368 H 0.8725 0.68125 0.17839 0.0
C369 C 0.97186 0.73002 0.24536 0.0
C370 C 0.91291 0.69221 0.24778 0.0
H371 H 0.04553 0.77137 0.21818 0.0
H372 H 1.00133 0.74199 0.26382 0.0
C373 C 0.8765 0.67675 0.22339 0.0
C374 C 0.83484 0.43801 0.4603 0.0
C375 C 0.88366 0.45667 0.44043 0.0
H376 H 0.8152 0.40207 0.50211 0.0
C377 C 0.95176 0.4484 0.44752 0.0
H378 H 0.78199 0.4433 0.45548 0.0
C379 C 0.97064 0.42499 0.47407 0.0
C380 C 0.9221 0.40959 0.49444 0.0
H381 H 0.99109 0.46392 0.43322 0.0
H382 H 1.02353 0.42269 0.47906 0.0
C383 C 0.85388 0.41469 0.48705 0.0
C384 C 0.3111 0.86606 0.11253 0.0
C385 C 0.24703 0.86795 0.10029 0.0
H386 H 0.39788 0.92173 0.12489 0.0
C387 C 0.21971 0.93095 0.0927 0.0
H388 H 0.33346 0.81875 0.11887 0.0
C389 C 0.25616 0.99027 0.0966 0.0
C390 C 0.32113 0.988 0.10789 0.0
H391 H 0.1701 0.9346 0.0835 0.0
H392 H 0.23446 1.03751 0.08976 0.0
C393 C 0.34781 0.92527 0.11612 0.0
C394 C 0.63953 0.71618 0.34764 0.0
C395 C 0.70292 0.74396 0.35386 0.0
H396 H 0.533 0.73152 0.34504 0.0
C397 C 0.7055 0.8096 0.36423 0.0
H398 H 0.63534 0.66544 0.33987 0.0
C399 C 0.64657 0.84729 0.36722 0.0
C400 C 0.58346 0.82019 0.36018 0.0
H401 H 0.75311 0.83239 0.3695 0.0
H402 H 0.65069 0.89845 0.37452 0.0
C403 C 0.58053 0.75371 0.35087 0.0
C404 C 0.83651 0.07735 0.59912 0.0
C405 C 0.76929 0.08066 0.60758 0.0
H406 H 0.92578 0.13174 0.58896 0.0
C407 C 0.74166 0.14402 0.61382 0.0
H408 H 0.85914 1.02962 0.59392 0.0
C409 C 0.7796 0.20276 0.6109 0.0
C410 C 0.84614 0.19981 0.60147 0.0
H411 H 0.68994 0.14848 0.62047 0.0
H412 H 0.75636 0.25049 0.6156 0.0
C413 C 0.87438 0.13621 0.59601 0.0
C414 C 0.42263 0.24254 0.86295 0.0
C415 C 0.48529 0.26987 0.85541 0.0
H416 H 0.31614 0.25633 0.86514 0.0
C417 C 0.48732 0.33563 0.84475 0.0
H418 H 0.41919 0.19187 0.87122 0.0
C419 C 0.42783 0.37232 0.84089 0.0
C420 C 0.36494 0.34436 0.84784 0.0
H421 H 0.53452 0.35787 0.83843 0.0
H422 H 0.43126 0.42263 0.83227 0.0
C423 C 0.36331 0.27933 0.85933 0.0
C424 C 0.84275 0.64313 0.58611 0.0
C425 C 0.81667 0.58008 0.59405 0.0
H426 H 0.829 0.74981 0.58493 0.0
C427 C 0.75277 0.57758 0.60629 0.0
H428 H 0.89203 0.64692 0.57669 0.0
C429 C 0.717 0.63697 0.61143 0.0
C430 C 0.744 0.70026 0.60424 0.0
H431 H 0.73167 0.53008 0.61303 0.0
H432 H 0.66832 0.63316 0.62136 0.0
C433 C 0.80684 0.70235 0.59101 0.0
C434 C 0.86335 0.31363 0.84236 0.0
C435 C 0.86512 0.24861 0.85385 0.0
H436 H 0.91922 0.40123 0.83085 0.0
C437 C 0.92811 0.22032 0.86069 0.0
H438 H 0.81606 0.33676 0.8366 0.0
C439 C 0.98754 0.25682 0.85692 0.0
C440 C 0.98537 0.32279 0.84651 0.0
H441 H 0.93165 0.16996 0.86927 0.0
H442 H 1.03477 0.23441 0.86327 0.0
C443 C 0.92267 0.35036 0.83892 0.0
C444 C 0.23802 0.42578 0.09152 0.0
C445 C 0.26486 0.48814 0.09963 0.0
H446 H 0.25245 0.31934 0.08862 0.0
C447 C 0.3302 0.48983 0.11055 0.0
H448 H 0.18768 0.42266 0.08303 0.0
C449 C 0.36686 0.43029 0.11419 0.0
C450 C 0.33941 0.36765 0.10672 0.0
H451 H 0.35206 0.53677 0.11727 0.0
H452 H 0.41676 0.43349 0.12311 0.0
C453 C 0.27493 0.36635 0.09486 0.0
C454 C 0.2051 0.78063 0.3438 0.0
C455 C 0.20334 0.84319 0.35713 0.0
H456 H 0.14948 0.69556 0.32964 0.0
C457 C 0.14035 0.86956 0.36494 0.0
H458 H 0.25231 0.75896 0.33725 0.0
C459 C 0.08098 0.83356 0.36021 0.0
C460 C 0.08319 0.77004 0.34775 0.0
H461 H 0.13678 0.918 0.37499 0.0
H462 H 1.03377 0.85432 0.36729 0.0
C463 C 0.1459 0.74448 0.33929 0.0
loop_
_geom_bond_atom_site_label_1
_geom_bond_atom_site_label_2
_geom_bond_distance
_geom_bond_site_symmetry_2
_ccdc_geom_bond_type
C0 C1 1.351 . S
C0 N3 1.368 . S
C0 H5 0.931 . S
C1 C0 1.351 . S
C1 N2 1.373 . S
C1 H29 0.930 . S
N2 C1 1.373 . S
N2 C4 1.340 . S
N3 C0 1.368 . S
N3 C4 1.321 . S
N3 Co6 2.135 . S
C4 N2 1.340 . S
C4 N3 1.321 . S
C4 H28 0.930 . S
H5 C0 0.931 . S
Co6 N3 2.135 . S
Co6 N9 2.121 . S
Co6 O14 2.055 . S
Co6 O17 2.039 . S
Co6 N20 2.140 . S
C7 O8 1.227 . S
C7 O17 1.265 . S
O8 C7 1.227 . S
N9 Co6 2.121 . S
N9 C11 1.375 . S
N9 C12 1.313 . S
C10 C11 1.338 . S
C10 N13 1.377 . S
C10 H30 0.930 . S
C11 N9 1.375 . S
C11 C10 1.338 . S
C11 H15 0.931 . S
C12 N9 1.313 . S
C12 N13 1.344 . S
C12 H16 0.930 . S
N13 C10 1.377 . S
N13 C12 1.344 . S
O14 Co6 2.055 . S
O14 C18 1.253 . S
H15 C11 0.931 . S
H16 C12 0.930 . S
O17 Co6 2.039 . S
O17 C7 1.265 . S
C18 O14 1.253 . S
C18 O19 1.227 . S
O19 C18 1.227 . S
N20 Co6 2.140 . S
N20 C23 1.346 . S
N20 C24 1.345 . S
C21 C22 1.387 . S
C21 C25 1.391 . S
C22 C21 1.387 . S
C22 C23 1.369 . S
C22 H31 0.929 . S
C23 N20 1.346 . S
C23 C22 1.369 . S
C23 H26 0.928 . S
C24 N20 1.345 . S
C24 C25 1.371 . S
C24 H27 0.931 . S
C25 C21 1.391 . S
C25 C24 1.371 . S
C25 H32 0.930 . S
H26 C23 0.928 . S
H27 C24 0.931 . S
H28 C4 0.930 . S
H29 C1 0.930 . S
H30 C10 0.930 . S
H31 C22 0.929 . S
H32 C25 0.930 . S
C33 C34 1.351 . S
C33 N36 1.368 . S
C33 H38 0.931 . S
C34 C33 1.351 . S
C34 N35 1.373 . S
C34 H62 0.930 . S
N35 C34 1.373 . S
N35 C37 1.340 . S
N36 C33 1.368 . S
N36 C37 1.321 . S
N36 Co39 2.135 . S
C37 N35 1.340 . S
C37 N36 1.321 . S
C37 H61 0.930 . S
H38 C33 0.931 . S
Co39 N36 2.135 . S
Co39 N42 2.121 . S
Co39 O47 2.055 . S
Co39 O50 2.039 . S
Co39 N53 2.140 . S
C40 O41 1.227 . S
C40 O50 1.265 . S
O41 C40 1.227 . S
N42 Co39 2.121 . S
N42 C44 1.375 . S
N42 C45 1.313 . S
C43 C44 1.338 . S
C43 N46 1.377 . S
C43 H63 0.930 . S
C44 N42 1.375 . S
C44 C43 1.338 . S
C44 H48 0.931 . S
C45 N42 1.313 . S
C45 N46 1.344 . S
C45 H49 0.930 . S
N46 C43 1.377 . S
N46 C45 1.344 . S
O47 Co39 2.055 . S
O47 C51 1.253 . S
H48 C44 0.931 . S
H49 C45 0.930 . S
O50 Co39 2.039 . S
O50 C40 1.265 . S
C51 O47 1.253 . S
C51 O52 1.227 . S
O52 C51 1.227 . S
N53 Co39 2.140 . S
N53 C56 1.346 . S
N53 C57 1.345 . S
C54 C55 1.387 . S
C54 C58 1.391 . S
C55 C54 1.387 . S
C55 C56 1.369 1_545 S
C55 H64 0.929 . S
C56 N53 1.346 . S
C56 C55 1.369 1_565 S
C56 H59 0.928 . S
C57 N53 1.345 . S
C57 C58 1.371 1_565 S
C57 H60 0.931 . S
C58 C54 1.391 . S
C58 C57 1.371 1_545 S
C58 H65 0.930 . S
H59 C56 0.928 . S
H60 C57 0.931 . S
H61 C37 0.930 . S
H62 C34 0.930 . S
H63 C43 0.930 . S
H64 C55 0.929 . S
H65 C58 0.930 . S
C66 C67 1.351 . S
C66 N69 1.368 . S
C66 H71 0.931 . S
C67 C66 1.351 . S
C67 N68 1.373 . S
C67 H95 0.930 . S
N68 C67 1.373 . S
N68 C70 1.340 . S
N69 C66 1.368 . S
N69 C70 1.321 . S
N69 Co72 2.135 . S
C70 N68 1.340 . S
C70 N69 1.321 . S
C70 H94 0.930 . S
H71 C66 0.931 . S
Co72 N69 2.135 . S
Co72 N75 2.121 . S
Co72 O80 2.055 . S
Co72 O83 2.039 . S
Co72 N86 2.140 . S
C73 O74 1.227 . S
C73 O83 1.265 . S
O74 C73 1.227 . S
N75 Co72 2.121 . S
N75 C77 1.375 . S
N75 C78 1.313 . S
C76 C77 1.338 . S
C76 N79 1.377 . S
C76 H96 0.930 . S
C77 N75 1.375 . S
C77 C76 1.338 . S
C77 H81 0.931 . S
C78 N75 1.313 . S
C78 N79 1.344 . S
C78 H82 0.930 . S
N79 C76 1.377 . S
N79 C78 1.344 . S
O80 Co72 2.055 . S
O80 C84 1.253 . S
H81 C77 0.931 . S
H82 C78 0.930 . S
O83 Co72 2.039 . S
O83 C73 1.265 . S
C84 O80 1.253 . S
C84 O85 1.227 . S
O85 C84 1.227 . S
N86 Co72 2.140 . S
N86 C89 1.346 . S
N86 C90 1.345 . S
C87 C88 1.387 . S
C87 C91 1.391 . S
C88 C87 1.387 . S
C88 C89 1.369 . S
C88 H97 0.929 . S
C89 N86 1.346 . S
C89 C88 1.369 . S
C89 H92 0.928 . S
C90 N86 1.345 . S
C90 C91 1.371 . S
C90 H93 0.931 . S
C91 C87 1.391 . S
C91 C90 1.371 . S
C91 H98 0.930 . S
H92 C89 0.928 . S
H93 C90 0.931 . S
H94 C70 0.930 . S
H95 C67 0.930 . S
H96 C76 0.930 . S
H97 C88 0.929 . S
H98 C91 0.930 . S
C99 C100 1.351 . S
C99 N102 1.368 . S
C99 H104 0.931 . S
C100 C99 1.351 . S
C100 N101 1.373 . S
C100 H128 0.930 . S
N101 C100 1.373 . S
N101 C103 1.340 . S
N102 C99 1.368 . S
N102 C103 1.321 . S
N102 Co105 2.135 . S
C103 N101 1.340 . S
C103 N102 1.321 . S
C103 H127 0.930 . S
H104 C99 0.931 . S
Co105 N102 2.135 . S
Co105 N108 2.121 . S
Co105 O113 2.055 . S
Co105 O116 2.039 . S
Co105 N119 2.140 . S
C106 O107 1.227 . S
C106 O116 1.265 . S
O107 C106 1.227 . S
N108 Co105 2.121 . S
N108 C110 1.375 . S
N108 C111 1.313 . S
C109 C110 1.338 . S
C109 N112 1.377 . S
C109 H129 0.930 . S
C110 N108 1.375 . S
C110 C109 1.338 . S
C110 H114 0.931 . S
C111 N108 1.313 . S
C111 N112 1.344 . S
C111 H115 0.930 . S
N112 C109 1.377 . S
N112 C111 1.344 . S
O113 Co105 2.055 . S
O113 C117 1.253 . S
H114 C110 0.931 . S
H115 C111 0.930 . S
O116 Co105 2.039 . S
O116 C106 1.265 . S
C117 O113 1.253 . S
C117 O118 1.227 . S
O118 C117 1.227 . S
N119 Co105 2.140 . S
N119 C122 1.346 . S
N119 C123 1.345 . S
C120 C121 1.387 . S
C120 C124 1.391 . S
C121 C120 1.387 . S
C121 C122 1.369 1_565 S
C121 H130 0.929 . S
C122 N119 1.346 . S
C122 C121 1.369 1_545 S
C122 H125 0.928 . S
C123 N119 1.345 . S
C123 C124 1.371 1_545 S
C123 H126 0.931 . S
C124 C120 1.391 . S
C124 C123 1.371 1_565 S
C124 H131 0.930 . S
H125 C122 0.928 . S
H126 C123 0.931 . S
H127 C103 0.930 . S
H128 C100 0.930 . S
H129 C109 0.930 . S
H130 C121 0.929 . S
H131 C124 0.930 . S
C132 C133 1.351 . S
C132 N135 1.368 . S
C132 H137 0.931 . S
C133 C132 1.351 . S
C133 N134 1.373 . S
C133 H161 0.930 . S
N134 C133 1.373 . S
N134 C136 1.340 . S
N135 C132 1.368 . S
N135 C136 1.321 . S
N135 Co138 2.135 . S
C136 N134 1.340 . S
C136 N135 1.321 . S
C136 H160 0.930 . S
H137 C132 0.931 . S
Co138 N135 2.135 . S
Co138 N141 2.121 . S
Co138 O146 2.055 . S
Co138 O149 2.039 . S
Co138 N152 2.140 . S
C139 O140 1.227 . S
C139 O149 1.265 . S
O140 C139 1.227 . S
N141 Co138 2.121 . S
N141 C143 1.375 . S
N141 C144 1.313 . S
C142 C143 1.338 . S
C142 N145 1.377 . S
C142 H162 0.930 . S
C143 N141 1.375 . S
C143 C142 1.338 . S
C143 H147 0.931 . S
C144 N141 1.313 . S
C144 N145 1.344 . S
C144 H148 0.930 . S
N145 C142 1.377 . S
N145 C144 1.344 . S
O146 Co138 2.055 . S
O146 C150 1.253 . S
H147 C143 0.931 . S
H148 C144 0.930 . S
O149 Co138 2.039 . S
O149 C139 1.265 . S
C150 O146 1.253 . S
C150 O151 1.227 . S
O151 C150 1.227 . S
N152 Co138 2.140 . S
N152 C155 1.346 . S
N152 C156 1.345 . S
C153 C154 1.387 . S
C153 C157 1.391 . S
C154 C153 1.387 . S
C154 C155 1.369 1_455 S
C154 H163 0.929 . S
C155 N152 1.346 . S
C155 C154 1.369 1_655 S
C155 H158 0.928 . S
C156 N152 1.345 . S
C156 C157 1.371 1_655 S
C156 H159 0.931 . S
C157 C153 1.391 . S
C157 C156 1.371 1_455 S
C157 H164 0.930 . S
H158 C155 0.928 . S
H159 C156 0.931 . S
H160 C136 0.930 . S
H161 C133 0.930 . S
H162 C142 0.930 . S
H163 C154 0.929 . S
H164 C157 0.930 . S
C165 C166 1.351 . S
C165 N168 1.368 . S
C165 H170 0.931 . S
C166 C165 1.351 . S
C166 N167 1.373 . S
C166 H194 0.930 . S
N167 C166 1.373 . S
N167 C169 1.340 . S
N168 C165 1.368 . S
N168 C169 1.321 . S
N168 Co171 2.135 . S
C169 N167 1.340 . S
C169 N168 1.321 . S
C169 H193 0.930 . S
H170 C165 0.931 . S
Co171 N168 2.135 . S
Co171 N174 2.121 . S
Co171 O179 2.055 . S
Co171 O182 2.039 . S
Co171 N185 2.140 . S
C172 O173 1.227 . S
C172 O182 1.265 . S
O173 C172 1.227 . S
N174 Co171 2.121 . S
N174 C176 1.375 . S
N174 C177 1.313 . S
C175 C176 1.338 . S
C175 N178 1.377 . S
C175 H195 0.930 . S
C176 N174 1.375 . S
C176 C175 1.338 . S
C176 H180 0.931 . S
C177 N174 1.313 . S
C177 N178 1.344 . S
C177 H181 0.930 . S
N178 C175 1.377 . S
N178 C177 1.344 . S
O179 Co171 2.055 . S
O179 C183 1.253 . S
H180 C176 0.931 . S
H181 C177 0.930 . S
O182 Co171 2.039 . S
O182 C172 1.265 . S
C183 O179 1.253 . S
C183 O184 1.227 . S
O184 C183 1.227 . S
N185 Co171 2.140 . S
N185 C188 1.346 . S
N185 C189 1.345 . S
C186 C187 1.387 . S
C186 C190 1.391 . S
C187 C186 1.387 . S
C187 C188 1.369 . S
C187 H196 0.929 . S
C188 N185 1.346 . S
C188 C187 1.369 . S
C188 H191 0.928 . S
C189 N185 1.345 . S
C189 C190 1.371 . S
C189 H192 0.931 . S
C190 C186 1.391 . S
C190 C189 1.371 . S
C190 H197 0.930 . S
H191 C188 0.928 . S
H192 C189 0.931 . S
H193 C169 0.930 . S
H194 C166 0.930 . S
H195 C175 0.930 . S
H196 C187 0.929 . S
H197 C190 0.930 . S
C198 C199 1.351 . S
C198 N201 1.368 . S
C198 H203 0.931 . S
C199 C198 1.351 . S
C199 N200 1.373 . S
C199 H227 0.930 . S
N200 C199 1.373 . S
N200 C202 1.340 . S
N201 C198 1.368 . S
N201 C202 1.321 . S
N201 Co204 2.135 . S
C202 N200 1.340 . S
C202 N201 1.321 . S
C202 H226 0.930 . S
H203 C198 0.931 . S
Co204 N201 2.135 . S
Co204 N207 2.121 . S
Co204 O212 2.055 . S
Co204 O215 2.039 . S
Co204 N218 2.140 . S
C205 O206 1.227 . S
C205 O215 1.265 . S
O206 C205 1.227 . S
N207 Co204 2.121 . S
N207 C209 1.375 . S
N207 C210 1.313 . S
C208 C209 1.338 . S
C208 N211 1.377 . S
C208 H228 0.930 . S
C209 N207 1.375 . S
C209 C208 1.338 . S
C209 H213 0.931 . S
C210 N207 1.313 . S
C210 N211 1.344 . S
C210 H214 0.930 . S
N211 C208 1.377 . S
N211 C210 1.344 . S
O212 Co204 2.055 . S
O212 C216 1.253 . S
H213 C209 0.931 . S
H214 C210 0.930 . S
O215 Co204 2.039 . S
O215 C205 1.265 . S
C216 O212 1.253 . S
C216 O217 1.227 . S
O217 C216 1.227 . S
N218 Co204 2.140 . S
N218 C221 1.346 . S
N218 C222 1.345 . S
C219 C220 1.387 . S
C219 C223 1.391 . S
C220 C219 1.387 . S
C220 C221 1.369 1_655 S
C220 H229 0.929 . S
C221 N218 1.346 . S
C221 C220 1.369 1_455 S
C221 H224 0.928 . S
C222 N218 1.345 . S
C222 C223 1.371 1_455 S
C222 H225 0.931 . S
C223 C219 1.391 . S
C223 C222 1.371 1_655 S
C223 H230 0.930 . S
H224 C221 0.928 . S
H225 C222 0.931 . S
H226 C202 0.930 . S
H227 C199 0.930 . S
H228 C208 0.930 . S
H229 C220 0.929 . S
H230 C223 0.930 . S
C231 C232 1.351 . S
C231 N234 1.368 . S
C231 H236 0.931 . S
C232 C231 1.351 . S
C232 N233 1.373 . S
C232 H260 0.930 . S
N233 C232 1.373 . S
N233 C235 1.340 . S
N234 C231 1.368 . S
N234 C235 1.321 . S
N234 Co237 2.135 . S
C235 N233 1.340 . S
C235 N234 1.321 . S
C235 H259 0.930 . S
H236 C231 0.931 . S
Co237 N234 2.135 . S
Co237 N240 2.121 . S
Co237 O245 2.055 . S
Co237 O248 2.039 . S
Co237 N251 2.140 . S
C238 O239 1.227 . S
C238 O248 1.265 . S
O239 C238 1.227 . S
N240 Co237 2.121 . S
N240 C242 1.375 . S
N240 C243 1.313 . S
C241 C242 1.338 . S
C241 N244 1.377 . S
C241 H261 0.930 . S
C242 N240 1.375 . S
C242 C241 1.338 . S
C242 H246 0.931 . S
C243 N240 1.313 . S
C243 N244 1.344 . S
C243 H247 0.930 . S
N244 C241 1.377 . S
N244 C243 1.344 . S
O245 Co237 2.055 . S
O245 C249 1.253 . S
H246 C242 0.931 . S
H247 C243 0.930 . S
O248 Co237 2.039 . S
O248 C238 1.265 . S
C249 O245 1.253 . S
C249 O250 1.227 . S
O250 C249 1.227 . S
N251 Co237 2.140 . S
N251 C254 1.346 . S
N251 C255 1.345 . S
C252 C253 1.387 . S
C252 C256 1.391 . S
C253 C252 1.387 . S
C253 C254 1.369 . S
C253 H262 0.929 . S
C254 N251 1.346 . S
C254 C253 1.369 . S
C254 H257 0.928 . S
C255 N251 1.345 . S
C255 C256 1.371 . S
C255 H258 0.931 . S
C256 C252 1.391 . S
C256 C255 1.371 . S
C256 H263 0.930 . S
H257 C254 0.928 . S
H258 C255 0.931 . S
H259 C235 0.930 . S
H260 C232 0.930 . S
H261 C241 0.930 . S
H262 C253 0.929 . S
H263 C256 0.930 . S
C264 C265 1.387 . S
C264 H268 0.950 . S
C264 C273 1.390 1_554 S
C265 C264 1.387 . S
C265 C267 1.387 . S
H266 C273 0.950 . S
C267 C265 1.387 . S
C267 C269 1.390 1_554 S
C267 H271 0.950 . S
H268 C264 0.950 . S
C269 C267 1.390 1_556 S
C269 C270 1.387 . S
C269 H272 0.950 . S
C270 C269 1.387 . S
C270 C273 1.387 . S
H271 C267 0.950 . S
H272 C269 0.950 . S
C273 C264 1.390 1_556 S
C273 H266 0.950 . S
C273 C270 1.387 . S
C274 C275 1.387 . S
C274 H278 0.950 . S
C274 C283 1.390 . S
C275 C274 1.387 . S
C275 C277 1.387 . S
H276 C283 0.950 . S
C277 C275 1.387 . S
C277 C279 1.390 . S
C277 H281 0.950 . S
H278 C274 0.950 . S
C279 C277 1.390 . S
C279 C280 1.387 . S
C279 H282 0.950 . S
C280 C279 1.387 . S
C280 C283 1.387 . S
H281 C277 0.950 . S
H282 C279 0.950 . S
C283 C274 1.390 . S
C283 H276 0.950 . S
C283 C280 1.387 . S
C284 C285 1.387 . S
C284 H288 0.950 . S
C284 C293 1.390 . S
C285 C284 1.387 . S
C285 C287 1.387 . S
H286 C293 0.950 . S
C287 C285 1.387 . S
C287 C289 1.390 . S
C287 H291 0.950 . S
H288 C284 0.950 . S
C289 C287 1.390 . S
C289 C290 1.387 . S
C289 H292 0.950 . S
C290 C289 1.387 . S
C290 C293 1.387 . S
H291 C287 0.950 . S
H292 C289 0.950 . S
C293 C284 1.390 . S
C293 H286 0.950 . S
C293 C290 1.387 . S
C294 C295 1.387 . S
C294 H298 0.950 . S
C294 C303 1.390 . S
C295 C294 1.387 . S
C295 C297 1.387 . S
H296 C303 0.950 . S
C297 C295 1.387 . S
C297 C299 1.390 . S
C297 H301 0.950 . S
H298 C294 0.950 . S
C299 C297 1.390 . S
C299 C300 1.387 . S
C299 H302 0.950 . S
C300 C299 1.387 . S
C300 C303 1.387 . S
H301 C297 0.950 . S
H302 C299 0.950 . S
C303 C294 1.390 . S
C303 H296 0.950 . S
C303 C300 1.387 . S
C304 C305 1.387 . S
C304 H308 0.950 . S
C304 C313 1.390 1_556 S
C305 C304 1.387 . S
C305 C307 1.387 . S
H306 C313 0.950 . S
C307 C305 1.387 . S
C307 C309 1.390 1_556 S
C307 H311 0.950 . S
H308 C304 0.950 . S
C309 C307 1.390 1_554 S
C309 C310 1.387 . S
C309 H312 0.950 . S
C310 C309 1.387 . S
C310 C313 1.387 . S
H311 C307 0.950 . S
H312 C309 0.950 . S
C313 C304 1.390 1_554 S
C313 H306 0.950 . S
C313 C310 1.387 . S
C314 C315 1.387 . S
C314 H318 0.950 1_545 S
C314 C323 1.390 . S
C315 C314 1.387 . S
C315 C317 1.387 . S
H316 C323 0.950 1_565 S
C317 C315 1.387 . S
C317 C319 1.390 . S
C317 H321 0.950 . S
H318 C314 0.950 1_565 S
C319 C317 1.390 . S
C319 C320 1.387 . S
C319 H322 0.950 . S
C320 C319 1.387 . S
C320 C323 1.387 . S
H321 C317 0.950 . S
H322 C319 0.950 . S
C323 C314 1.390 . S
C323 H316 0.950 1_545 S
C323 C320 1.387 . S
C324 C325 1.387 . S
C324 H328 0.950 . S
C324 C333 1.390 . S
C325 C324 1.387 . S
C325 C327 1.387 . S
H326 C333 0.950 . S
C327 C325 1.387 . S
C327 C329 1.390 . S
C327 H331 0.950 . S
H328 C324 0.950 . S
C329 C327 1.390 . S
C329 C330 1.387 . S
C329 H332 0.950 . S
C330 C329 1.387 . S
C330 C333 1.387 . S
H331 C327 0.950 . S
H332 C329 0.950 . S
C333 C324 1.390 . S
C333 H326 0.950 . S
C333 C330 1.387 . S
C334 C335 1.387 . S
C334 H338 0.950 . S
C334 C343 1.390 . S
C335 C334 1.387 . S
C335 C337 1.387 . S
H336 C343 0.950 . S
C337 C335 1.387 . S
C337 C339 1.390 . S
C337 H341 0.950 1_565 S
H338 C334 0.950 . S
C339 C337 1.390 . S
C339 C340 1.387 . S
C339 H342 0.950 1_565 S
C340 C339 1.387 . S
C340 C343 1.387 . S
H341 C337 0.950 1_545 S
H342 C339 0.950 1_545 S
C343 C334 1.390 . S
C343 H336 0.950 . S
C343 C340 1.387 . S
C344 C345 1.387 . S
C344 H348 0.950 . S
C344 C353 1.390 . S
C345 C344 1.387 . S
C345 C347 1.387 . S
H346 C353 0.950 . S
C347 C345 1.387 . S
C347 C349 1.390 . S
C347 H351 0.950 . S
H348 C344 0.950 . S
C349 C347 1.390 . S
C349 C350 1.387 . S
C349 H352 0.950 . S
C350 C349 1.387 . S
C350 C353 1.387 . S
H351 C347 0.950 . S
H352 C349 0.950 . S
C353 C344 1.390 . S
C353 H346 0.950 . S
C353 C350 1.387 . S
C354 C355 1.387 . S
C354 H358 0.950 . S
C354 C363 1.390 1_556 S
C355 C354 1.387 . S
C355 C357 1.387 . S
H356 C363 0.950 . S
C357 C355 1.387 . S
C357 C359 1.390 1_556 S
C357 H361 0.950 . S
H358 C354 0.950 . S
C359 C357 1.390 1_554 S
C359 C360 1.387 . S
C359 H362 0.950 . S
C360 C359 1.387 . S
C360 C363 1.387 . S
H361 C357 0.950 . S
H362 C359 0.950 . S
C363 C354 1.390 1_554 S
C363 H356 0.950 . S
C363 C360 1.387 . S
C364 C365 1.387 . S
C364 H368 0.950 . S
C364 C373 1.390 . S
C365 C364 1.387 . S
C365 C367 1.387 . S
H366 C373 0.950 . S
C367 C365 1.387 . S
C367 C369 1.390 . S
C367 H371 0.950 1_655 S
H368 C364 0.950 . S
C369 C367 1.390 . S
C369 C370 1.387 . S
C369 H372 0.950 1_655 S
C370 C369 1.387 . S
C370 C373 1.387 . S
H371 C367 0.950 1_455 S
H372 C369 0.950 1_455 S
C373 C364 1.390 . S
C373 H366 0.950 . S
C373 C370 1.387 . S
C374 C375 1.387 . S
C374 H378 0.950 . S
C374 C383 1.390 . S
C375 C374 1.387 . S
C375 C377 1.387 . S
H376 C383 0.950 . S
C377 C375 1.387 . S
C377 C379 1.390 . S
C377 H381 0.950 . S
H378 C374 0.950 . S
C379 C377 1.390 . S
C379 C380 1.387 . S
C379 H382 0.950 . S
C380 C379 1.387 . S
C380 C383 1.387 . S
H381 C377 0.950 . S
H382 C379 0.950 . S
C383 C374 1.390 . S
C383 H376 0.950 . S
C383 C380 1.387 . S
C384 C385 1.387 . S
C384 H388 0.950 . S
C384 C393 1.390 . S
C385 C384 1.387 . S
C385 C387 1.387 . S
H386 C393 0.950 . S
C387 C385 1.387 . S
C387 C389 1.390 . S
C387 H391 0.950 . S
H388 C384 0.950 . S
C389 C387 1.390 . S
C389 C390 1.387 . S
C389 H392 0.950 . S
C390 C389 1.387 . S
C390 C393 1.387 . S
H391 C387 0.950 . S
H392 C389 0.950 . S
C393 C384 1.390 . S
C393 H386 0.950 . S
C393 C390 1.387 . S
C394 C395 1.387 . S
C394 H398 0.950 . S
C394 C403 1.390 . S
C395 C394 1.387 . S
C395 C397 1.387 . S
H396 C403 0.950 . S
C397 C395 1.387 . S
C397 C399 1.390 . S
C397 H401 0.950 . S
H398 C394 0.950 . S
C399 C397 1.390 . S
C399 C400 1.387 . S
C399 H402 0.950 . S
C400 C399 1.387 . S
C400 C403 1.387 . S
H401 C397 0.950 . S
H402 C399 0.950 . S
C403 C394 1.390 . S
C403 H396 0.950 . S
C403 C400 1.387 . S
C404 C405 1.387 . S
C404 H408 0.950 . S
C404 C413 1.390 . S
C405 C404 1.387 . S
C405 C407 1.387 . S
H406 C413 0.950 . S
C407 C405 1.387 . S
C407 C409 1.390 . S
C407 H411 0.950 . S
H408 C404 0.950 . S
C409 C407 1.390 . S
C409 C410 1.387 . S
C409 H412 0.950 . S
C410 C409 1.387 . S
C410 C413 1.387 . S
H411 C407 0.950 . S
H412 C409 0.950 . S
C413 C404 1.390 . S
C413 H406 0.950 . S
C413 C410 1.387 . S
C414 C415 1.387 . S
C414 H418 0.950 . S
C414 C423 1.390 . S
C415 C414 1.387 . S
C415 C417 1.387 . S
H416 C423 0.950 . S
C417 C415 1.387 . S
C417 C419 1.390 . S
C417 H421 0.950 . S
H418 C414 0.950 . S
C419 C417 1.390 . S
C419 C420 1.387 . S
C419 H422 0.950 . S
C420 C419 1.387 . S
C420 C423 1.387 . S
H421 C417 0.950 . S
H422 C419 0.950 . S
C423 C414 1.390 . S
C423 H416 0.950 . S
C423 C420 1.387 . S
C424 C425 1.387 . S
C424 H428 0.950 . S
C424 C433 1.390 . S
C425 C424 1.387 . S
C425 C427 1.387 . S
H426 C433 0.950 . S
C427 C425 1.387 . S
C427 C429 1.390 . S
C427 H431 0.950 . S
H428 C424 0.950 . S
C429 C427 1.390 . S
C429 C430 1.387 . S
C429 H432 0.950 . S
C430 C429 1.387 . S
C430 C433 1.387 . S
H431 C427 0.950 . S
H432 C429 0.950 . S
C433 C424 1.390 . S
C433 H426 0.950 . S
C433 C430 1.387 . S
C434 C435 1.387 . S
C434 H438 0.950 . S
C434 C443 1.390 . S
C435 C434 1.387 . S
C435 C437 1.387 . S
H436 C443 0.950 . S
C437 C435 1.387 . S
C437 C439 1.390 . S
C437 H441 0.950 . S
H438 C434 0.950 . S
C439 C437 1.390 . S
C439 C440 1.387 . S
C439 H442 0.950 . S
C440 C439 1.387 . S
C440 C443 1.387 . S
H441 C437 0.950 . S
H442 C439 0.950 . S
C443 C434 1.390 . S
C443 H436 0.950 . S
C443 C440 1.387 . S
C444 C445 1.387 . S
C444 H448 0.950 . S
C444 C453 1.390 . S
C445 C444 1.387 . S
C445 C447 1.387 . S
H446 C453 0.950 . S
C447 C445 1.387 . S
C447 C449 1.390 . S
C447 H451 0.950 . S
H448 C444 0.950 . S
C449 C447 1.390 . S
C449 C450 1.387 . S
C449 H452 0.950 . S
C450 C449 1.387 . S
C450 C453 1.387 . S
H451 C447 0.950 . S
H452 C449 0.950 . S
C453 C444 1.390 . S
C453 H446 0.950 . S
C453 C450 1.387 . S
C454 C455 1.387 . S
C454 H458 0.950 . S
C454 C463 1.390 . S
C455 C454 1.387 . S
C455 C457 1.387 . S
H456 C463 0.950 . S
C457 C455 1.387 . S
C457 C459 1.390 . S
C457 H461 0.950 . S
H458 C454 0.950 . S
C459 C457 1.390 . S
C459 C460 1.387 . S
C459 H462 0.950 . S
C460 C459 1.387 . S
C460 C463 1.387 . S
H461 C457 0.950 . S
H462 C459 0.950 . S
C463 C454 1.390 . S
C463 H456 0.950 . S
C463 C460 1.387 . S
C265 N2 0.587 . S
C270 N167 0.583 . S
C275 N200 0.586 . S
C280 N35 0.581 . S
C285 N233 0.587 . S
C290 N68 0.585 . S
C295 N134 0.586 . S
C300 N101 0.587 . S
C305 N112 1.551 . S
C310 C21 1.521 . S
C315 C54 1.521 . S
C320 N13 1.551 . S
C325 N46 1.550 . S
C330 C87 1.520 . S
C335 C120 1.522 . S
C340 N79 1.553 . S
C345 N178 1.553 . S
C350 C153 1.523 . S
C355 C186 1.522 . S
C360 N211 1.553 . S
C365 C219 1.522 . S
C370 N244 1.554 . S
C375 C252 1.520 . S
C380 N145 1.552 . S
C385 C205 1.801 . S
C390 C18 1.884 1_565 S
C395 C238 1.802 . S
C400 C51 1.884 . S
C405 C84 1.885 1_545 S
C410 C139 1.801 . S
C415 C117 1.884 . S
C420 C172 1.801 . S
C425 C150 1.884 . S
C430 C73 1.801 . S
C435 C106 1.800 . S
C440 C183 1.885 1_655 S
C445 C216 1.884 . S
C450 C7 1.801 . S
C455 C40 1.802 . S
C460 C249 1.884 1_455 S
