# Generated by pormake.
# Topology une, (4)-cn, num edge types: 1
# Building blocks:
#     Node 0, Type 0, BuildingBlock: GALJAG_clean_sbu_0, # of connection points: 4
#     Node 1, Type 0, BuildingBlock: GALJAG_clean_sbu_0, # of connection points: 4
#     Node 2, Type 0, BuildingBlock: GALJAG_clean_sbu_0, # of connection points: 4
#     Node 3, Type 0, BuildingBlock: GALJAG_clean_sbu_0, # of connection points: 4
#     Node 4, Type 0, BuildingBlock: GALJAG_clean_sbu_0, # of connection points: 4
#     Node 5, Type 0, BuildingBlock: GALJAG_clean_sbu_0, # of connection points: 4
#     Node 6, Type 0, BuildingBlock: GALJAG_clean_sbu_0, # of connection points: 4
#     Node 7, Type 0, BuildingBlock: GALJAG_clean_sbu_0, # of connection points: 4
#     Node 8, Type 0, BuildingBlock: GALJAG_clean_sbu_0, # of connection points: 4
#     Node 9, Type 0, BuildingBlock: GALJAG_clean_sbu_0, # of connection points: 4
#     Node 10, Type 0, BuildingBlock: GALJAG_clean_sbu_0, # of connection points: 4
#     Node 11, Type 0, BuildingBlock: GALJAG_clean_sbu_0, # of connection points: 4
#     Node 12, Type 0, BuildingBlock: GALJAG_clean_sbu_0, # of connection points: 4
#     Node 13, Type 0, BuildingBlock: GALJAG_clean_sbu_0, # of connection points: 4
#     Node 14, Type 0, BuildingBlock: GALJAG_clean_sbu_0, # of connection points: 4
#     Node 15, Type 0, BuildingBlock: GALJAG_clean_sbu_0, # of connection points: 4
#     Node 16, Type 0, BuildingBlock: GALJAG_clean_sbu_0, # of connection points: 4
#     Node 17, Type 0, BuildingBlock: GALJAG_clean_sbu_0, # of connection points: 4
#     Edge 18, Type (0, 0), None
#     Edge 19, Type (0, 0), None
#     Edge 20, Type (0, 0), None
#     Edge 21, Type (0, 0), None
#     Edge 22, Type (0, 0), None
#     Edge 23, Type (0, 0), None
#     Edge 24, Type (0, 0), None
#     Edge 25, Type (0, 0), None
#     Edge 26, Type (0, 0), None
#     Edge 27, Type (0, 0), None
#     Edge 28, Type (0, 0), None
#     Edge 29, Type (0, 0), None
#     Edge 30, Type (0, 0), None
#     Edge 31, Type (0, 0), None
#     Edge 32, Type (0, 0), None
#     Edge 33, Type (0, 0), None
#     Edge 34, Type (0, 0), None
#     Edge 35, Type (0, 0), None
#     Edge 36, Type (0, 0), None
#     Edge 37, Type (0, 0), None
#     Edge 38, Type (0, 0), None
#     Edge 39, Type (0, 0), None
#     Edge 40, Type (0, 0), None
#     Edge 41, Type (0, 0), None
#     Edge 42, Type (0, 0), None
#     Edge 43, Type (0, 0), None
#     Edge 44, Type (0, 0), None
#     Edge 45, Type (0, 0), None
#     Edge 46, Type (0, 0), None
#     Edge 47, Type (0, 0), None
#     Edge 48, Type (0, 0), None
#     Edge 49, Type (0, 0), None
#     Edge 50, Type (0, 0), None
#     Edge 51, Type (0, 0), None
#     Edge 52, Type (0, 0), None
#     Edge 53, Type (0, 0), None
# Relax obj value: 0.163
# Max RMSD: 0.140
# Mean RMSD: 0.140
data_MOF--net-une--node1-GALJAG_clean_sbu_0--edge1-none
_symmetry_space_group_name_H-M    P1
_symmetry_Int_Tables_number       1
_symmetry_cell_setting            triclinic
loop_
_symmetry_equiv_pos_as_xyz
'x, y, z'
_cell_length_a     18.009276
_cell_length_b     18.010496
_cell_length_c     22.774816
_cell_angle_alpha  90.000093
_cell_angle_beta   90.000256
_cell_angle_gamma 120.0067
loop_
_atom_site_label
_atom_site_type_symbol
_atom_site_fract_x
_atom_site_fract_y
_atom_site_fract_z
_atom_type_partial_charge
In0 In 0.34565 0.05042 0.06071 0.0
O1 O 0.27128 0.06671 0.13696 0.0
O2 O 0.40349 0.15809 0.13105 0.0
C3 C 0.21276 0.89168 0.06417 0.0
C4 C 0.33702 0.15102 0.9784 0.0
C5 C 0.46329 0.00931 0.02241 0.0
O6 O 0.28538 0.90826 0.08311 0.0
O7 O 0.20759 0.95518 0.04647 0.0
O8 O 0.41312 0.01833 0.9884 0.0
O9 O 0.45757 0.02497 0.0761 0.0
C10 C 0.33232 0.13621 0.15544 0.0
O11 O 0.40458 0.17341 1.0075 0.0
O12 O 0.27723 0.07568 0.98774 0.0
In13 In 0.93798 0.29291 0.06071 0.0
O14 O 0.92169 0.20227 0.13697 0.0
O15 O 0.8303 0.24306 0.13104 0.0
C16 C 0.09672 0.31877 0.06416 0.0
C17 C 0.83737 0.18367 0.9784 0.0
C18 C 0.97909 0.45166 0.02241 0.0
O19 O 0.08016 0.37482 0.08308 0.0
O20 O 0.03319 0.25007 0.04648 0.0
O21 O 0.97006 0.39247 0.9884 0.0
O22 O 0.96344 0.43028 0.07611 0.0
C23 C 0.85219 0.19379 0.15544 0.0
O24 O 0.81498 0.22883 1.0075 0.0
O25 O 0.91271 0.19924 0.98773 0.0
In26 In 0.69549 0.64277 0.06071 0.0
O27 O 0.75953 0.58383 1.0075 0.0
O28 O 0.78918 0.71117 0.98774 0.0
C29 C 0.53673 0.52511 0.02241 0.0
C30 C 0.7946 0.65608 0.15544 0.0
C31 C 0.66962 0.77563 0.06416 0.0
O32 O 0.59593 0.57528 0.9884 0.0
O33 O 0.5581 0.53085 0.07611 0.0
O34 O 0.61357 0.70301 0.08309 0.0
O35 O 0.73832 0.78082 0.04648 0.0
C36 C 0.80472 0.65138 0.9784 0.0
O37 O 0.78617 0.71712 0.13696 0.0
O38 O 0.74528 0.58491 0.13105 0.0
In39 In 0.64048 0.9403 0.96252 0.0
O40 O 0.71488 0.92401 0.88629 0.0
O41 O 0.58267 0.83265 0.89218 0.0
C42 C 0.7733 0.09904 0.9591 0.0
C43 C 0.6491 0.83969 0.04478 0.0
C44 C 0.52284 0.98141 1.00083 0.0
O45 O 0.70072 0.08244 0.94005 0.0
O46 O 0.77851 0.03557 0.97685 0.0
O47 O 0.57301 0.97238 0.03484 0.0
O48 O 0.52856 0.96575 0.94714 0.0
C49 C 0.65384 0.85452 0.8678 0.0
O50 O 0.58151 0.81728 0.01571 0.0
O51 O 0.70892 0.91503 0.03548 0.0
In52 In 0.04808 0.69785 0.96252 0.0
O53 O 0.1711 0.76192 0.01571 0.0
O54 O 0.07335 0.79155 0.03549 0.0
C55 C 0.00697 0.53911 1.00083 0.0
C56 C 0.13386 0.797 0.8678 0.0
C57 C 0.88935 0.67194 0.9591 0.0
O58 O 0.016 0.5983 0.03484 0.0
O59 O 0.02262 0.56048 0.94714 0.0
O60 O 0.90592 0.61594 0.94007 0.0
O61 O 0.95283 0.74062 0.97685 0.0
C62 C 0.1487 0.80709 0.04478 0.0
O63 O 0.06436 0.78852 0.88628 0.0
O64 O 0.15574 0.74771 0.89219 0.0
In65 In 0.29053 0.34788 0.96252 0.0
O66 O 0.19981 0.27349 0.88629 0.0
O67 O 0.24072 0.40571 0.89218 0.0
C68 C 0.31645 0.21508 0.9591 0.0
C69 C 0.1813 0.33927 0.04478 0.0
C70 C 0.44928 0.46553 1.00083 0.0
O71 O 0.37244 0.28766 0.94006 0.0
O72 O 0.24777 0.20987 0.97685 0.0
O73 O 0.39008 0.41537 0.03484 0.0
O74 O 0.42791 0.4598 0.94714 0.0
C75 C 0.19139 0.33454 0.8678 0.0
O76 O 0.2265 0.40686 0.01571 0.0
O77 O 0.19681 0.27946 0.03548 0.0
In78 In 0.01231 0.38375 0.39405 0.0
O79 O 0.93795 0.40005 0.47029 0.0
O80 O 0.07016 0.49142 0.46439 0.0
C81 C 0.87943 0.22501 0.39751 0.0
C82 C 0.00369 0.48435 0.31173 0.0
C83 C 0.12996 0.34264 0.35575 0.0
O84 O 0.95205 0.24159 0.41644 0.0
O85 O 0.87426 0.28851 0.37981 0.0
O86 O 0.07979 0.35166 0.32174 0.0
O87 O 0.12424 0.3583 0.40944 0.0
C88 C -0.00102 0.46954 0.48877 0.0
O89 O 0.07125 0.50674 0.34083 0.0
O90 O 0.9439 0.40901 0.32107 0.0
In91 In 0.60465 0.62624 0.39404 0.0
O92 O 0.48165 0.56217 0.34083 0.0
O93 O 0.57938 0.53257 0.32107 0.0
C94 C 0.64576 0.78499 0.35575 0.0
C95 C 0.51885 0.52713 0.48877 0.0
C96 C 0.76338 0.6521 0.3975 0.0
O97 O 0.63673 0.7258 0.32174 0.0
O98 O 0.63011 0.76361 0.40944 0.0
O99 O 0.74683 0.70815 0.41642 0.0
O100 O 0.69986 0.5834 0.37981 0.0
C101 C 0.50404 0.517 0.31173 0.0
O102 O 0.58836 0.53561 0.47031 0.0
O103 O 0.49696 0.5764 0.46437 0.0
In104 In 0.36215 0.9761 0.39405 0.0
O105 O 0.4262 0.91716 0.34084 0.0
O106 O 0.45585 0.0445 0.32107 0.0
C107 C 0.2034 0.85844 0.35575 0.0
C108 C 0.46127 0.98941 0.48877 0.0
C109 C 0.33629 0.10896 0.3975 0.0
O110 O 0.2626 0.90861 0.32174 0.0
O111 O 0.22477 0.86418 0.40944 0.0
O112 O 0.28024 0.03634 0.41643 0.0
O113 O 0.40498 0.11415 0.37981 0.0
C114 C 0.47139 0.98471 0.31174 0.0
O115 O 0.45284 0.05046 0.47029 0.0
O116 O 0.41194 0.91825 0.46439 0.0
In117 In 0.30715 0.27364 0.29586 0.0
O118 O 0.38155 0.25734 0.21963 0.0
O119 O 0.24933 0.16598 0.22552 0.0
C120 C 0.43997 0.43237 0.29243 0.0
C121 C 0.31577 0.17303 0.37811 0.0
C122 C 0.18951 0.31474 0.33417 0.0
O123 O 0.36739 0.41577 0.27338 0.0
O124 O 0.44517 0.36891 0.31019 0.0
O125 O 0.23968 0.30572 0.36817 0.0
O126 O 0.19523 0.29908 0.28048 0.0
C127 C 0.32051 0.18785 0.20114 0.0
O128 O 0.24817 0.15062 0.34905 0.0
O129 O 0.37558 0.24836 0.36882 0.0
In130 In 0.71475 0.03119 0.29586 0.0
O131 O 0.73104 0.12186 0.21962 0.0
O132 O 0.82242 0.08105 0.22553 0.0
C133 C 0.55602 0.00527 0.29244 0.0
C134 C 0.81536 0.14042 0.37812 0.0
C135 C 0.67364 0.87244 0.33417 0.0
O136 O 0.5726 0.94928 0.2734 0.0
O137 O 0.6195 0.07395 0.31018 0.0
O138 O 0.68267 0.93163 0.36818 0.0
O139 O 0.68929 0.89382 0.28048 0.0
C140 C 0.80054 0.13034 0.20115 0.0
O141 O 0.83777 0.09525 0.34905 0.0
O142 O 0.74002 0.12488 0.36883 0.0
In143 In 0.95719 0.68121 0.29585 0.0
O144 O 0.89317 0.74019 0.34904 0.0
O145 O 0.86347 0.61279 0.36881 0.0
C146 C 0.11594 0.79887 0.33416 0.0
C147 C 0.85805 0.66786 0.20114 0.0
C148 C 0.98312 0.54841 0.29243 0.0
O149 O 0.05674 0.7487 0.36817 0.0
O150 O 0.09457 0.79313 0.28047 0.0
O151 O 0.03911 0.62099 0.27339 0.0
O152 O 0.91444 0.54319 0.31018 0.0
C153 C 0.84797 0.6726 0.37811 0.0
O154 O 0.86647 0.60682 0.21963 0.0
O155 O 0.90738 0.73904 0.22551 0.0
In156 In 0.67898 0.71709 0.72738 0.0
O157 O 0.73792 0.84008 0.67417 0.0
O158 O 0.61056 0.74235 0.6544 0.0
C159 C 0.79662 0.67597 0.68908 0.0
C160 C 0.66565 0.80288 0.8221 0.0
C161 C 0.54609 0.55834 0.73084 0.0
O162 O 0.74645 0.685 0.65507 0.0
O163 O 0.7909 0.69164 0.74277 0.0
O164 O 0.61871 0.57493 0.74978 0.0
O165 O 0.54092 0.62185 0.71314 0.0
C166 C 0.67035 0.81769 0.64507 0.0
O167 O 0.60461 0.73338 0.80363 0.0
O168 O 0.73682 0.82475 0.79771 0.0
In169 In 0.27131 0.95958 0.72737 0.0
O170 O 0.25502 0.86893 0.80363 0.0
O171 O 0.16363 0.90973 0.7977 0.0
C172 C 0.43005 0.98543 0.73083 0.0
C173 C 0.1707 0.85034 0.64506 0.0
C174 C 0.31242 0.11833 0.68908 0.0
O175 O 0.41349 0.04149 0.74975 0.0
O176 O 0.36652 0.91674 0.71314 0.0
O177 O 0.30339 0.05914 0.65507 0.0
O178 O 0.29677 0.09695 0.74277 0.0
C179 C 0.18551 0.86045 0.8221 0.0
O180 O 0.14831 0.8955 0.67416 0.0
O181 O 0.24604 0.86591 0.65439 0.0
In182 In 0.02882 0.30944 0.72738 0.0
O183 O 0.11951 0.38379 0.80362 0.0
O184 O 0.07862 0.25159 0.79772 0.0
C185 C 0.00295 0.4423 0.73083 0.0
C186 C 0.13805 0.31806 0.64507 0.0
C187 C 0.87006 0.19178 0.68908 0.0
O188 O 0.9469 0.36968 0.74976 0.0
O189 O 0.07165 0.44749 0.71314 0.0
O190 O 0.92926 0.24195 0.65507 0.0
O191 O 0.89144 0.19752 0.74277 0.0
C192 C 0.12794 0.32275 0.8221 0.0
O193 O 0.09286 0.2505 0.67417 0.0
O194 O 0.12252 0.37785 0.65441 0.0
In195 In 0.97382 0.60697 0.62919 0.0
O196 O 0.91484 0.48395 0.68238 0.0
O197 O 0.04225 0.5817 0.70215 0.0
C198 C 0.85618 0.64808 0.6675 0.0
C199 C 0.98718 0.52118 0.53448 0.0
C200 C 0.10663 0.7657 0.62576 0.0
O201 O 0.90634 0.63905 0.70151 0.0
O202 O 0.86189 0.63242 0.61381 0.0
O203 O 0.03405 0.7491 0.60671 0.0
O204 O 0.11184 0.70224 0.64352 0.0
C205 C 0.98243 0.50636 0.71145 0.0
O206 O 0.04822 0.59067 0.55296 0.0
O207 O 0.916 0.49932 0.55885 0.0
In208 In 0.38141 0.36452 0.62919 0.0
O209 O 0.3977 0.45519 0.55295 0.0
O210 O 0.48908 0.41439 0.55886 0.0
C211 C 0.22268 0.33861 0.62577 0.0
C212 C 0.48203 0.47376 0.71146 0.0
C213 C 0.3403 0.20578 0.6675 0.0
O214 O 0.23926 0.28262 0.60674 0.0
O215 O 0.28616 0.40729 0.64351 0.0
O216 O 0.34933 0.26497 0.70151 0.0
O217 O 0.35595 0.22715 0.61381 0.0
C218 C 0.4672 0.46367 0.53448 0.0
O219 O 0.50443 0.42858 0.68238 0.0
O220 O 0.40668 0.45822 0.70216 0.0
In221 In 0.62386 0.01455 0.62919 0.0
O222 O 0.55983 0.07353 0.68238 0.0
O223 O 0.53014 0.94613 0.70215 0.0
C224 C 0.78261 0.1322 0.6675 0.0
C225 C 0.52471 0.0012 0.53448 0.0
C226 C 0.64979 0.88175 0.62577 0.0
O227 O 0.72341 0.08204 0.70151 0.0
O228 O 0.76124 0.12647 0.61381 0.0
O229 O 0.70577 0.95433 0.60673 0.0
O230 O 0.5811 0.87653 0.64352 0.0
C231 C 0.51463 0.00594 0.71145 0.0
O232 O 0.53313 0.94016 0.55297 0.0
O233 O 0.57405 0.07237 0.55885 0.0
loop_
_geom_bond_atom_site_label_1
_geom_bond_atom_site_label_2
_geom_bond_distance
_geom_bond_site_symmetry_2
_ccdc_geom_bond_type
In0 O1 2.294 . S
In0 O2 2.326 . S
In0 O6 2.266 1_545 S
In0 O7 2.326 1_544 S
In0 O8 2.266 . S
In0 O9 2.326 1_545 S
In0 O11 2.294 1_554 S
In0 O12 2.326 . S
O1 In0 2.294 . S
O1 C10 1.240 . S
O2 In0 2.326 . S
O2 C10 1.252 . S
C3 O6 1.252 . S
C3 O7 1.260 1_554 S
C4 O11 1.240 1_554 S
C4 O12 1.252 . S
C5 O8 1.252 . S
C5 O9 1.260 1_545 S
O6 In0 2.266 1_565 S
O6 C3 1.252 . S
O7 In0 2.326 1_566 S
O7 C3 1.260 1_556 S
O8 In0 2.266 . S
O8 C5 1.252 . S
O9 In0 2.326 1_565 S
O9 C5 1.260 1_565 S
C10 O1 1.240 . S
C10 O2 1.252 . S
O11 In0 2.294 1_556 S
O11 C4 1.240 1_556 S
O12 In0 2.326 . S
O12 C4 1.252 . S
In13 O14 2.294 . S
In13 O15 2.326 . S
In13 O19 2.266 1_655 S
In13 O20 2.326 1_654 S
In13 O21 2.266 . S
In13 O22 2.326 1_655 S
In13 O24 2.294 1_554 S
In13 O25 2.326 . S
O14 In13 2.294 . S
O14 C23 1.240 . S
O15 In13 2.326 . S
O15 C23 1.252 . S
C16 O19 1.252 . S
C16 O20 1.260 1_554 S
C17 O24 1.240 1_554 S
C17 O25 1.252 . S
C18 O21 1.252 . S
C18 O22 1.260 1_655 S
O19 In13 2.266 1_455 S
O19 C16 1.252 . S
O20 In13 2.326 1_456 S
O20 C16 1.260 1_556 S
O21 In13 2.266 . S
O21 C18 1.252 . S
O22 In13 2.326 1_455 S
O22 C18 1.260 1_455 S
C23 O14 1.240 . S
C23 O15 1.252 . S
O24 In13 2.294 1_556 S
O24 C17 1.240 1_556 S
O25 In13 2.326 . S
O25 C17 1.252 . S
In26 O27 2.294 1_554 S
In26 O28 2.326 . S
In26 O32 2.266 . S
In26 O33 2.326 . S
In26 O34 2.266 . S
In26 O35 2.326 1_554 S
In26 O37 2.294 . S
In26 O38 2.326 . S
O27 In26 2.294 1_556 S
O27 C36 1.240 1_556 S
O28 In26 2.326 . S
O28 C36 1.252 . S
C29 O32 1.252 . S
C29 O33 1.260 . S
C30 O37 1.240 . S
C30 O38 1.252 . S
C31 O34 1.252 . S
C31 O35 1.260 1_554 S
O32 In26 2.266 . S
O32 C29 1.252 . S
O33 In26 2.326 . S
O33 C29 1.260 . S
O34 In26 2.266 . S
O34 C31 1.252 . S
O35 In26 2.326 1_556 S
O35 C31 1.260 1_556 S
C36 O27 1.240 1_554 S
C36 O28 1.252 . S
O37 In26 2.294 . S
O37 C30 1.240 . S
O38 In26 2.326 . S
O38 C30 1.252 . S
In39 O40 2.294 . S
In39 O41 2.326 . S
In39 O45 2.266 1_565 S
In39 O46 2.326 1_566 S
In39 O47 2.266 . S
In39 O48 2.326 1_565 S
In39 O50 2.294 1_556 S
In39 O51 2.326 . S
O40 In39 2.294 . S
O40 C49 1.240 . S
O41 In39 2.326 . S
O41 C49 1.252 . S
C42 O45 1.252 . S
C42 O46 1.260 1_556 S
C43 O50 1.240 1_556 S
C43 O51 1.252 . S
C44 O47 1.252 . S
C44 O48 1.260 1_565 S
O45 In39 2.266 1_545 S
O45 C42 1.252 . S
O46 In39 2.326 1_544 S
O46 C42 1.260 1_554 S
O47 In39 2.266 . S
O47 C44 1.252 . S
O48 In39 2.326 1_545 S
O48 C44 1.260 1_545 S
C49 O40 1.240 . S
C49 O41 1.252 . S
O50 In39 2.294 1_554 S
O50 C43 1.240 1_554 S
O51 In39 2.326 . S
O51 C43 1.252 . S
In52 O53 2.294 1_556 S
In52 O54 2.326 . S
In52 O58 2.266 . S
In52 O59 2.326 1_455 S
In52 O60 2.266 1_455 S
In52 O61 2.326 1_456 S
In52 O63 2.294 . S
In52 O64 2.326 . S
O53 In52 2.294 1_554 S
O53 C62 1.240 1_554 S
O54 In52 2.326 . S
O54 C62 1.252 . S
C55 O58 1.252 . S
C55 O59 1.260 1_455 S
C56 O63 1.240 . S
C56 O64 1.252 . S
C57 O60 1.252 . S
C57 O61 1.260 1_556 S
O58 In52 2.266 . S
O58 C55 1.252 . S
O59 In52 2.326 1_655 S
O59 C55 1.260 1_655 S
O60 In52 2.266 1_655 S
O60 C57 1.252 . S
O61 In52 2.326 1_654 S
O61 C57 1.260 1_554 S
C62 O53 1.240 1_556 S
C62 O54 1.252 . S
O63 In52 2.294 . S
O63 C56 1.240 . S
O64 In52 2.326 . S
O64 C56 1.252 . S
In65 O66 2.294 . S
In65 O67 2.326 . S
In65 O71 2.266 . S
In65 O72 2.326 1_556 S
In65 O73 2.266 . S
In65 O74 2.326 . S
In65 O76 2.294 1_556 S
In65 O77 2.326 . S
O66 In65 2.294 . S
O66 C75 1.240 . S
O67 In65 2.326 . S
O67 C75 1.252 . S
C68 O71 1.252 . S
C68 O72 1.260 1_556 S
C69 O76 1.240 1_556 S
C69 O77 1.252 . S
C70 O73 1.252 . S
C70 O74 1.260 . S
O71 In65 2.266 . S
O71 C68 1.252 . S
O72 In65 2.326 1_554 S
O72 C68 1.260 1_554 S
O73 In65 2.266 . S
O73 C70 1.252 . S
O74 In65 2.326 . S
O74 C70 1.260 . S
C75 O66 1.240 . S
C75 O67 1.252 . S
O76 In65 2.294 1_554 S
O76 C69 1.240 1_554 S
O77 In65 2.326 . S
O77 C69 1.252 . S
In78 O79 2.294 1_455 S
In78 O80 2.326 . S
In78 O84 2.266 1_455 S
In78 O85 2.326 1_455 S
In78 O86 2.266 . S
In78 O87 2.326 . S
In78 O89 2.294 . S
In78 O90 2.326 1_455 S
O79 In78 2.294 1_655 S
O79 C88 1.240 1_655 S
O80 In78 2.326 . S
O80 C88 1.252 . S
C81 O84 1.252 . S
C81 O85 1.260 . S
C82 O89 1.240 1_655 S
C82 O90 1.252 . S
C83 O86 1.252 . S
C83 O87 1.260 . S
O84 In78 2.266 1_655 S
O84 C81 1.252 . S
O85 In78 2.326 1_655 S
O85 C81 1.260 . S
O86 In78 2.266 . S
O86 C83 1.252 . S
O87 In78 2.326 . S
O87 C83 1.260 . S
C88 O79 1.240 1_455 S
C88 O80 1.252 . S
O89 In78 2.294 . S
O89 C82 1.240 1_455 S
O90 In78 2.326 1_655 S
O90 C82 1.252 . S
In91 O92 2.294 . S
In91 O93 2.326 . S
In91 O97 2.266 . S
In91 O98 2.326 . S
In91 O99 2.266 . S
In91 O100 2.326 . S
In91 O102 2.294 . S
In91 O103 2.326 . S
O92 In91 2.294 . S
O92 C101 1.240 . S
O93 In91 2.326 . S
O93 C101 1.252 . S
C94 O97 1.252 . S
C94 O98 1.260 . S
C95 O102 1.240 . S
C95 O103 1.252 . S
C96 O99 1.252 . S
C96 O100 1.260 . S
O97 In91 2.266 . S
O97 C94 1.252 . S
O98 In91 2.326 . S
O98 C94 1.260 . S
O99 In91 2.266 . S
O99 C96 1.252 . S
O100 In91 2.326 . S
O100 C96 1.260 . S
C101 O92 1.240 . S
C101 O93 1.252 . S
O102 In91 2.294 . S
O102 C95 1.240 . S
O103 In91 2.326 . S
O103 C95 1.252 . S
In104 O105 2.294 . S
In104 O106 2.326 1_565 S
In104 O110 2.266 . S
In104 O111 2.326 . S
In104 O112 2.266 1_565 S
In104 O113 2.326 1_565 S
In104 O115 2.294 1_565 S
In104 O116 2.326 . S
O105 In104 2.294 . S
O105 C114 1.240 1_565 S
O106 In104 2.326 1_545 S
O106 C114 1.252 . S
C107 O110 1.252 . S
C107 O111 1.260 . S
C108 O115 1.240 1_565 S
C108 O116 1.252 . S
C109 O112 1.252 . S
C109 O113 1.260 . S
O110 In104 2.266 . S
O110 C107 1.252 . S
O111 In104 2.326 . S
O111 C107 1.260 . S
O112 In104 2.266 1_545 S
O112 C109 1.252 . S
O113 In104 2.326 1_545 S
O113 C109 1.260 . S
C114 O105 1.240 1_545 S
C114 O106 1.252 . S
O115 In104 2.294 1_545 S
O115 C108 1.240 1_545 S
O116 In104 2.326 . S
O116 C108 1.252 . S
In117 O118 2.294 . S
In117 O119 2.326 . S
In117 O123 2.266 . S
In117 O124 2.326 . S
In117 O125 2.266 . S
In117 O126 2.326 . S
In117 O128 2.294 . S
In117 O129 2.326 . S
O118 In117 2.294 . S
O118 C127 1.240 . S
O119 In117 2.326 . S
O119 C127 1.252 . S
C120 O123 1.252 . S
C120 O124 1.260 . S
C121 O128 1.240 . S
C121 O129 1.252 . S
C122 O125 1.252 . S
C122 O126 1.260 . S
O123 In117 2.266 . S
O123 C120 1.252 . S
O124 In117 2.326 . S
O124 C120 1.260 . S
O125 In117 2.266 . S
O125 C122 1.252 . S
O126 In117 2.326 . S
O126 C122 1.260 . S
C127 O118 1.240 . S
C127 O119 1.252 . S
O128 In117 2.294 . S
O128 C121 1.240 . S
O129 In117 2.326 . S
O129 C121 1.252 . S
In130 O131 2.294 . S
In130 O132 2.326 . S
In130 O136 2.266 . S
In130 O137 2.326 . S
In130 O138 2.266 1_545 S
In130 O139 2.326 1_545 S
In130 O141 2.294 . S
In130 O142 2.326 . S
O131 In130 2.294 . S
O131 C140 1.240 . S
O132 In130 2.326 . S
O132 C140 1.252 . S
C133 O136 1.252 . S
C133 O137 1.260 . S
C134 O141 1.240 . S
C134 O142 1.252 . S
C135 O138 1.252 . S
C135 O139 1.260 . S
O136 In130 2.266 . S
O136 C133 1.252 . S
O137 In130 2.326 . S
O137 C133 1.260 . S
O138 In130 2.266 1_565 S
O138 C135 1.252 . S
O139 In130 2.326 1_565 S
O139 C135 1.260 . S
C140 O131 1.240 . S
C140 O132 1.252 . S
O141 In130 2.294 . S
O141 C134 1.240 . S
O142 In130 2.326 . S
O142 C134 1.252 . S
In143 O144 2.294 . S
In143 O145 2.326 . S
In143 O149 2.266 1_655 S
In143 O150 2.326 1_655 S
In143 O151 2.266 . S
In143 O152 2.326 . S
In143 O154 2.294 . S
In143 O155 2.326 . S
O144 In143 2.294 . S
O144 C153 1.240 . S
O145 In143 2.326 . S
O145 C153 1.252 . S
C146 O149 1.252 . S
C146 O150 1.260 . S
C147 O154 1.240 . S
C147 O155 1.252 . S
C148 O151 1.252 . S
C148 O152 1.260 . S
O149 In143 2.266 1_455 S
O149 C146 1.252 . S
O150 In143 2.326 1_455 S
O150 C146 1.260 . S
O151 In143 2.266 . S
O151 C148 1.252 . S
O152 In143 2.326 . S
O152 C148 1.260 . S
C153 O144 1.240 . S
C153 O145 1.252 . S
O154 In143 2.294 . S
O154 C147 1.240 . S
O155 In143 2.326 . S
O155 C147 1.252 . S
In156 O157 2.294 . S
In156 O158 2.326 . S
In156 O162 2.266 . S
In156 O163 2.326 . S
In156 O164 2.266 . S
In156 O165 2.326 . S
In156 O167 2.294 . S
In156 O168 2.326 . S
O157 In156 2.294 . S
O157 C166 1.240 . S
O158 In156 2.326 . S
O158 C166 1.252 . S
C159 O162 1.252 . S
C159 O163 1.260 . S
C160 O167 1.240 . S
C160 O168 1.252 . S
C161 O164 1.252 . S
C161 O165 1.260 . S
O162 In156 2.266 . S
O162 C159 1.252 . S
O163 In156 2.326 . S
O163 C159 1.260 . S
O164 In156 2.266 . S
O164 C161 1.252 . S
O165 In156 2.326 . S
O165 C161 1.260 . S
C166 O157 1.240 . S
C166 O158 1.252 . S
O167 In156 2.294 . S
O167 C160 1.240 . S
O168 In156 2.326 . S
O168 C160 1.252 . S
In169 O170 2.294 . S
In169 O171 2.326 . S
In169 O175 2.266 . S
In169 O176 2.326 . S
In169 O177 2.266 1_565 S
In169 O178 2.326 1_565 S
In169 O180 2.294 . S
In169 O181 2.326 . S
O170 In169 2.294 . S
O170 C179 1.240 . S
O171 In169 2.326 . S
O171 C179 1.252 . S
C172 O175 1.252 . S
C172 O176 1.260 . S
C173 O180 1.240 . S
C173 O181 1.252 . S
C174 O177 1.252 . S
C174 O178 1.260 . S
O175 In169 2.266 . S
O175 C172 1.252 . S
O176 In169 2.326 . S
O176 C172 1.260 . S
O177 In169 2.266 1_545 S
O177 C174 1.252 . S
O178 In169 2.326 1_545 S
O178 C174 1.260 . S
C179 O170 1.240 . S
C179 O171 1.252 . S
O180 In169 2.294 . S
O180 C173 1.240 . S
O181 In169 2.326 . S
O181 C173 1.252 . S
In182 O183 2.294 . S
In182 O184 2.326 . S
In182 O188 2.266 . S
In182 O189 2.326 . S
In182 O190 2.266 1_455 S
In182 O191 2.326 1_455 S
In182 O193 2.294 . S
In182 O194 2.326 . S
O183 In182 2.294 . S
O183 C192 1.240 . S
O184 In182 2.326 . S
O184 C192 1.252 . S
C185 O188 1.252 . S
C185 O189 1.260 . S
C186 O193 1.240 . S
C186 O194 1.252 . S
C187 O190 1.252 . S
C187 O191 1.260 . S
O188 In182 2.266 . S
O188 C185 1.252 . S
O189 In182 2.326 . S
O189 C185 1.260 . S
O190 In182 2.266 1_655 S
O190 C187 1.252 . S
O191 In182 2.326 1_655 S
O191 C187 1.260 . S
C192 O183 1.240 . S
C192 O184 1.252 . S
O193 In182 2.294 . S
O193 C186 1.240 . S
O194 In182 2.326 . S
O194 C186 1.252 . S
In195 O196 2.294 . S
In195 O197 2.326 1_655 S
In195 O201 2.266 . S
In195 O202 2.326 . S
In195 O203 2.266 1_655 S
In195 O204 2.326 1_655 S
In195 O206 2.294 1_655 S
In195 O207 2.326 . S
O196 In195 2.294 . S
O196 C205 1.240 1_655 S
O197 In195 2.326 1_455 S
O197 C205 1.252 . S
C198 O201 1.252 . S
C198 O202 1.260 . S
C199 O206 1.240 1_655 S
C199 O207 1.252 . S
C200 O203 1.252 . S
C200 O204 1.260 . S
O201 In195 2.266 . S
O201 C198 1.252 . S
O202 In195 2.326 . S
O202 C198 1.260 . S
O203 In195 2.266 1_455 S
O203 C200 1.252 . S
O204 In195 2.326 1_455 S
O204 C200 1.260 . S
C205 O196 1.240 1_455 S
C205 O197 1.252 . S
O206 In195 2.294 1_455 S
O206 C199 1.240 1_455 S
O207 In195 2.326 . S
O207 C199 1.252 . S
In208 O209 2.294 . S
In208 O210 2.326 . S
In208 O214 2.266 . S
In208 O215 2.326 . S
In208 O216 2.266 . S
In208 O217 2.326 . S
In208 O219 2.294 . S
In208 O220 2.326 . S
O209 In208 2.294 . S
O209 C218 1.240 . S
O210 In208 2.326 . S
O210 C218 1.252 . S
C211 O214 1.252 . S
C211 O215 1.260 . S
C212 O219 1.240 . S
C212 O220 1.252 . S
C213 O216 1.252 . S
C213 O217 1.260 . S
O214 In208 2.266 . S
O214 C211 1.252 . S
O215 In208 2.326 . S
O215 C211 1.260 . S
O216 In208 2.266 . S
O216 C213 1.252 . S
O217 In208 2.326 . S
O217 C213 1.260 . S
C218 O209 1.240 . S
C218 O210 1.252 . S
O219 In208 2.294 . S
O219 C212 1.240 . S
O220 In208 2.326 . S
O220 C212 1.252 . S
In221 O222 2.294 . S
In221 O223 2.326 1_545 S
In221 O227 2.266 . S
In221 O228 2.326 . S
In221 O229 2.266 1_545 S
In221 O230 2.326 1_545 S
In221 O232 2.294 1_545 S
In221 O233 2.326 . S
O222 In221 2.294 . S
O222 C231 1.240 1_545 S
O223 In221 2.326 1_565 S
O223 C231 1.252 . S
C224 O227 1.252 . S
C224 O228 1.260 . S
C225 O232 1.240 1_545 S
C225 O233 1.252 . S
C226 O229 1.252 . S
C226 O230 1.260 . S
O227 In221 2.266 . S
O227 C224 1.252 . S
O228 In221 2.326 . S
O228 C224 1.260 . S
O229 In221 2.266 1_565 S
O229 C226 1.252 . S
O230 In221 2.326 1_565 S
O230 C226 1.260 . S
C231 O222 1.240 1_565 S
C231 O223 1.252 . S
O232 In221 2.294 1_565 S
O232 C225 1.240 1_565 S
O233 In221 2.326 . S
O233 C225 1.252 . S
C5 C44 2.215 1_544 S
C18 C55 2.215 1_654 S
C70 C29 2.215 1_556 S
C83 C122 2.215 . S
C94 C135 2.215 . S
C146 C107 2.215 . S
C198 C159 2.215 . S
C213 C174 2.215 . S
C224 C187 2.215 . S
C10 C127 2.177 . S
C23 C140 2.177 . S
C147 C30 2.177 . S
C49 C160 2.177 . S
C56 C179 2.177 . S
C75 C192 2.177 . S
C88 C199 2.177 1_455 S
C95 C218 2.177 . S
C225 C108 2.177 1_545 S
C3 C62 0.951 1_554 S
C16 C69 0.951 1_554 S
C31 C43 0.951 1_554 S
C42 C17 0.951 1_556 S
C36 C57 0.951 1_554 S
C68 C4 0.951 1_556 S
C81 C134 0.951 . S
C153 C96 0.951 . S
C121 C109 0.951 . S
C101 C120 0.951 . S
C133 C114 0.951 . S
C148 C82 0.951 . S
C212 C161 0.951 . S
C231 C172 0.951 . S
C185 C205 0.951 . S
C173 C200 0.951 . S
C186 C211 0.951 . S
C166 C226 0.951 . S
