# Generated by pormake.
# Topology wir, (6)-cn, num edge types: 1
# Building blocks:
#     Node 0, Type 0, BuildingBlock: BETDAH_clean_sbu_0, # of connection points: 6
#     Node 1, Type 0, BuildingBlock: BETDAH_clean_sbu_0, # of connection points: 6
#     Node 2, Type 0, BuildingBlock: BETDAH_clean_sbu_0, # of connection points: 6
#     Node 3, Type 0, BuildingBlock: BETDAH_clean_sbu_0, # of connection points: 6
#     Node 4, Type 0, BuildingBlock: BETDAH_clean_sbu_0, # of connection points: 6
#     Node 5, Type 0, BuildingBlock: BETDAH_clean_sbu_0, # of connection points: 6
#     Node 6, Type 0, BuildingBlock: BETDAH_clean_sbu_0, # of connection points: 6
#     Node 7, Type 0, BuildingBlock: BETDAH_clean_sbu_0, # of connection points: 6
#     Node 8, Type 0, BuildingBlock: BETDAH_clean_sbu_0, # of connection points: 6
#     Node 9, Type 0, BuildingBlock: BETDAH_clean_sbu_0, # of connection points: 6
#     Node 10, Type 0, BuildingBlock: BETDAH_clean_sbu_0, # of connection points: 6
#     Node 11, Type 0, BuildingBlock: BETDAH_clean_sbu_0, # of connection points: 6
#     Node 12, Type 0, BuildingBlock: BETDAH_clean_sbu_0, # of connection points: 6
#     Node 13, Type 0, BuildingBlock: BETDAH_clean_sbu_0, # of connection points: 6
#     Node 14, Type 0, BuildingBlock: BETDAH_clean_sbu_0, # of connection points: 6
#     Node 15, Type 0, BuildingBlock: BETDAH_clean_sbu_0, # of connection points: 6
#     Node 16, Type 0, BuildingBlock: BETDAH_clean_sbu_0, # of connection points: 6
#     Node 17, Type 0, BuildingBlock: BETDAH_clean_sbu_0, # of connection points: 6
#     Node 18, Type 0, BuildingBlock: BETDAH_clean_sbu_0, # of connection points: 6
#     Node 19, Type 0, BuildingBlock: BETDAH_clean_sbu_0, # of connection points: 6
#     Node 20, Type 0, BuildingBlock: BETDAH_clean_sbu_0, # of connection points: 6
#     Node 21, Type 0, BuildingBlock: BETDAH_clean_sbu_0, # of connection points: 6
#     Node 22, Type 0, BuildingBlock: BETDAH_clean_sbu_0, # of connection points: 6
#     Node 23, Type 0, BuildingBlock: BETDAH_clean_sbu_0, # of connection points: 6
#     Node 24, Type 0, BuildingBlock: BETDAH_clean_sbu_0, # of connection points: 6
#     Node 25, Type 0, BuildingBlock: BETDAH_clean_sbu_0, # of connection points: 6
#     Node 26, Type 0, BuildingBlock: BETDAH_clean_sbu_0, # of connection points: 6
#     Node 27, Type 0, BuildingBlock: BETDAH_clean_sbu_0, # of connection points: 6
#     Node 28, Type 0, BuildingBlock: BETDAH_clean_sbu_0, # of connection points: 6
#     Node 29, Type 0, BuildingBlock: BETDAH_clean_sbu_0, # of connection points: 6
#     Node 30, Type 0, BuildingBlock: BETDAH_clean_sbu_0, # of connection points: 6
#     Node 31, Type 0, BuildingBlock: BETDAH_clean_sbu_0, # of connection points: 6
#     Edge 32, Type (0, 0), BuildingBlock: UVAHIK_clean_linker_0, # of connection points: 2
#     Edge 33, Type (0, 0), BuildingBlock: UVAHIK_clean_linker_0, # of connection points: 2
#     Edge 34, Type (0, 0), BuildingBlock: UVAHIK_clean_linker_0, # of connection points: 2
#     Edge 35, Type (0, 0), BuildingBlock: UVAHIK_clean_linker_0, # of connection points: 2
#     Edge 36, Type (0, 0), BuildingBlock: UVAHIK_clean_linker_0, # of connection points: 2
#     Edge 37, Type (0, 0), BuildingBlock: UVAHIK_clean_linker_0, # of connection points: 2
#     Edge 38, Type (0, 0), BuildingBlock: UVAHIK_clean_linker_0, # of connection points: 2
#     Edge 39, Type (0, 0), BuildingBlock: UVAHIK_clean_linker_0, # of connection points: 2
#     Edge 40, Type (0, 0), BuildingBlock: UVAHIK_clean_linker_0, # of connection points: 2
#     Edge 41, Type (0, 0), BuildingBlock: UVAHIK_clean_linker_0, # of connection points: 2
#     Edge 42, Type (0, 0), BuildingBlock: UVAHIK_clean_linker_0, # of connection points: 2
#     Edge 43, Type (0, 0), BuildingBlock: UVAHIK_clean_linker_0, # of connection points: 2
#     Edge 44, Type (0, 0), BuildingBlock: UVAHIK_clean_linker_0, # of connection points: 2
#     Edge 45, Type (0, 0), BuildingBlock: UVAHIK_clean_linker_0, # of connection points: 2
#     Edge 46, Type (0, 0), BuildingBlock: UVAHIK_clean_linker_0, # of connection points: 2
#     Edge 47, Type (0, 0), BuildingBlock: UVAHIK_clean_linker_0, # of connection points: 2
#     Edge 48, Type (0, 0), BuildingBlock: UVAHIK_clean_linker_0, # of connection points: 2
#     Edge 49, Type (0, 0), BuildingBlock: UVAHIK_clean_linker_0, # of connection points: 2
#     Edge 50, Type (0, 0), BuildingBlock: UVAHIK_clean_linker_0, # of connection points: 2
#     Edge 51, Type (0, 0), BuildingBlock: UVAHIK_clean_linker_0, # of connection points: 2
#     Edge 52, Type (0, 0), BuildingBlock: UVAHIK_clean_linker_0, # of connection points: 2
#     Edge 53, Type (0, 0), BuildingBlock: UVAHIK_clean_linker_0, # of connection points: 2
#     Edge 54, Type (0, 0), BuildingBlock: UVAHIK_clean_linker_0, # of connection points: 2
#     Edge 55, Type (0, 0), BuildingBlock: UVAHIK_clean_linker_0, # of connection points: 2
#     Edge 56, Type (0, 0), BuildingBlock: UVAHIK_clean_linker_0, # of connection points: 2
#     Edge 57, Type (0, 0), BuildingBlock: UVAHIK_clean_linker_0, # of connection points: 2
#     Edge 58, Type (0, 0), BuildingBlock: UVAHIK_clean_linker_0, # of connection points: 2
#     Edge 59, Type (0, 0), BuildingBlock: UVAHIK_clean_linker_0, # of connection points: 2
#     Edge 60, Type (0, 0), BuildingBlock: UVAHIK_clean_linker_0, # of connection points: 2
#     Edge 61, Type (0, 0), BuildingBlock: UVAHIK_clean_linker_0, # of connection points: 2
#     Edge 62, Type (0, 0), BuildingBlock: UVAHIK_clean_linker_0, # of connection points: 2
#     Edge 63, Type (0, 0), BuildingBlock: UVAHIK_clean_linker_0, # of connection points: 2
#     Edge 64, Type (0, 0), BuildingBlock: UVAHIK_clean_linker_0, # of connection points: 2
#     Edge 65, Type (0, 0), BuildingBlock: UVAHIK_clean_linker_0, # of connection points: 2
#     Edge 66, Type (0, 0), BuildingBlock: UVAHIK_clean_linker_0, # of connection points: 2
#     Edge 67, Type (0, 0), BuildingBlock: UVAHIK_clean_linker_0, # of connection points: 2
#     Edge 68, Type (0, 0), BuildingBlock: UVAHIK_clean_linker_0, # of connection points: 2
#     Edge 69, Type (0, 0), BuildingBlock: UVAHIK_clean_linker_0, # of connection points: 2
#     Edge 70, Type (0, 0), BuildingBlock: UVAHIK_clean_linker_0, # of connection points: 2
#     Edge 71, Type (0, 0), BuildingBlock: UVAHIK_clean_linker_0, # of connection points: 2
#     Edge 72, Type (0, 0), BuildingBlock: UVAHIK_clean_linker_0, # of connection points: 2
#     Edge 73, Type (0, 0), BuildingBlock: UVAHIK_clean_linker_0, # of connection points: 2
#     Edge 74, Type (0, 0), BuildingBlock: UVAHIK_clean_linker_0, # of connection points: 2
#     Edge 75, Type (0, 0), BuildingBlock: UVAHIK_clean_linker_0, # of connection points: 2
#     Edge 76, Type (0, 0), BuildingBlock: UVAHIK_clean_linker_0, # of connection points: 2
#     Edge 77, Type (0, 0), BuildingBlock: UVAHIK_clean_linker_0, # of connection points: 2
#     Edge 78, Type (0, 0), BuildingBlock: UVAHIK_clean_linker_0, # of connection points: 2
#     Edge 79, Type (0, 0), BuildingBlock: UVAHIK_clean_linker_0, # of connection points: 2
#     Edge 80, Type (0, 0), BuildingBlock: UVAHIK_clean_linker_0, # of connection points: 2
#     Edge 81, Type (0, 0), BuildingBlock: UVAHIK_clean_linker_0, # of connection points: 2
#     Edge 82, Type (0, 0), BuildingBlock: UVAHIK_clean_linker_0, # of connection points: 2
#     Edge 83, Type (0, 0), BuildingBlock: UVAHIK_clean_linker_0, # of connection points: 2
#     Edge 84, Type (0, 0), BuildingBlock: UVAHIK_clean_linker_0, # of connection points: 2
#     Edge 85, Type (0, 0), BuildingBlock: UVAHIK_clean_linker_0, # of connection points: 2
#     Edge 86, Type (0, 0), BuildingBlock: UVAHIK_clean_linker_0, # of connection points: 2
#     Edge 87, Type (0, 0), BuildingBlock: UVAHIK_clean_linker_0, # of connection points: 2
#     Edge 88, Type (0, 0), BuildingBlock: UVAHIK_clean_linker_0, # of connection points: 2
#     Edge 89, Type (0, 0), BuildingBlock: UVAHIK_clean_linker_0, # of connection points: 2
#     Edge 90, Type (0, 0), BuildingBlock: UVAHIK_clean_linker_0, # of connection points: 2
#     Edge 91, Type (0, 0), BuildingBlock: UVAHIK_clean_linker_0, # of connection points: 2
#     Edge 92, Type (0, 0), BuildingBlock: UVAHIK_clean_linker_0, # of connection points: 2
#     Edge 93, Type (0, 0), BuildingBlock: UVAHIK_clean_linker_0, # of connection points: 2
#     Edge 94, Type (0, 0), BuildingBlock: UVAHIK_clean_linker_0, # of connection points: 2
#     Edge 95, Type (0, 0), BuildingBlock: UVAHIK_clean_linker_0, # of connection points: 2
#     Edge 96, Type (0, 0), BuildingBlock: UVAHIK_clean_linker_0, # of connection points: 2
#     Edge 97, Type (0, 0), BuildingBlock: UVAHIK_clean_linker_0, # of connection points: 2
#     Edge 98, Type (0, 0), BuildingBlock: UVAHIK_clean_linker_0, # of connection points: 2
#     Edge 99, Type (0, 0), BuildingBlock: UVAHIK_clean_linker_0, # of connection points: 2
#     Edge 100, Type (0, 0), BuildingBlock: UVAHIK_clean_linker_0, # of connection points: 2
#     Edge 101, Type (0, 0), BuildingBlock: UVAHIK_clean_linker_0, # of connection points: 2
#     Edge 102, Type (0, 0), BuildingBlock: UVAHIK_clean_linker_0, # of connection points: 2
#     Edge 103, Type (0, 0), BuildingBlock: UVAHIK_clean_linker_0, # of connection points: 2
#     Edge 104, Type (0, 0), BuildingBlock: UVAHIK_clean_linker_0, # of connection points: 2
#     Edge 105, Type (0, 0), BuildingBlock: UVAHIK_clean_linker_0, # of connection points: 2
#     Edge 106, Type (0, 0), BuildingBlock: UVAHIK_clean_linker_0, # of connection points: 2
#     Edge 107, Type (0, 0), BuildingBlock: UVAHIK_clean_linker_0, # of connection points: 2
#     Edge 108, Type (0, 0), BuildingBlock: UVAHIK_clean_linker_0, # of connection points: 2
#     Edge 109, Type (0, 0), BuildingBlock: UVAHIK_clean_linker_0, # of connection points: 2
#     Edge 110, Type (0, 0), BuildingBlock: UVAHIK_clean_linker_0, # of connection points: 2
#     Edge 111, Type (0, 0), BuildingBlock: UVAHIK_clean_linker_0, # of connection points: 2
#     Edge 112, Type (0, 0), BuildingBlock: UVAHIK_clean_linker_0, # of connection points: 2
#     Edge 113, Type (0, 0), BuildingBlock: UVAHIK_clean_linker_0, # of connection points: 2
#     Edge 114, Type (0, 0), BuildingBlock: UVAHIK_clean_linker_0, # of connection points: 2
#     Edge 115, Type (0, 0), BuildingBlock: UVAHIK_clean_linker_0, # of connection points: 2
#     Edge 116, Type (0, 0), BuildingBlock: UVAHIK_clean_linker_0, # of connection points: 2
#     Edge 117, Type (0, 0), BuildingBlock: UVAHIK_clean_linker_0, # of connection points: 2
#     Edge 118, Type (0, 0), BuildingBlock: UVAHIK_clean_linker_0, # of connection points: 2
#     Edge 119, Type (0, 0), BuildingBlock: UVAHIK_clean_linker_0, # of connection points: 2
#     Edge 120, Type (0, 0), BuildingBlock: UVAHIK_clean_linker_0, # of connection points: 2
#     Edge 121, Type (0, 0), BuildingBlock: UVAHIK_clean_linker_0, # of connection points: 2
#     Edge 122, Type (0, 0), BuildingBlock: UVAHIK_clean_linker_0, # of connection points: 2
#     Edge 123, Type (0, 0), BuildingBlock: UVAHIK_clean_linker_0, # of connection points: 2
#     Edge 124, Type (0, 0), BuildingBlock: UVAHIK_clean_linker_0, # of connection points: 2
#     Edge 125, Type (0, 0), BuildingBlock: UVAHIK_clean_linker_0, # of connection points: 2
#     Edge 126, Type (0, 0), BuildingBlock: UVAHIK_clean_linker_0, # of connection points: 2
#     Edge 127, Type (0, 0), BuildingBlock: UVAHIK_clean_linker_0, # of connection points: 2
# Relax obj value: 0.367
# Max RMSD: 0.203
# Mean RMSD: 0.203
data_MOF--net-wir--node1-BETDAH_clean_sbu_0--edge1-UVAHIK_clean_linker_0
_symmetry_space_group_name_H-M    P1
_symmetry_Int_Tables_number       1
_symmetry_cell_setting            triclinic
loop_
_symmetry_equiv_pos_as_xyz
'x, y, z'
_cell_length_a     50.368635
_cell_length_b     50.528235
_cell_length_c     141.88172
_cell_angle_alpha  89.941989
_cell_angle_beta   90.05464
_cell_angle_gamma 89.723206
loop_
_atom_site_label
_atom_site_type_symbol
_atom_site_fract_x
_atom_site_fract_y
_atom_site_fract_z
_atom_type_partial_charge
Ho0 Ho 0.22763 0.21419 0.34954 0.0
Ho1 Ho 0.20817 0.18696 0.3448 0.0
C2 C 0.18332 0.19548 0.36314 0.0
C3 C 0.24562 0.25969 0.35519 0.0
C4 C 0.23219 0.28526 0.35624 0.0
C5 C 0.20439 0.28648 0.3561 0.0
C6 C 0.19132 0.31039 0.35768 0.0
C7 C 0.20581 0.33367 0.35931 0.0
C8 C 0.23375 0.3326 0.35887 0.0
C9 C 0.24684 0.3085 0.35738 0.0
C10 C 0.25678 0.17233 0.35988 0.0
C11 C 0.23069 0.21884 0.32697 0.0
C12 C 0.22104 0.14603 0.33521 0.0
C13 C 0.22116 0.13861 0.32529 0.0
C14 C 0.24012 0.12037 0.32219 0.0
C15 C 0.23891 0.11063 0.31304 0.0
C16 C 0.21863 0.11901 0.30688 0.0
C17 C 0.20085 0.13886 0.30981 0.0
C18 C 0.20212 0.14865 0.31899 0.0
C19 C 0.16019 0.21393 0.34392 0.0
O20 O 0.19478 0.2175 0.36054 0.0
O21 O 0.18827 0.17483 0.35797 0.0
O22 O 0.2377 0.24116 0.36085 0.0
O23 O 0.24759 0.25122 0.3466 0.0
O24 O 0.26624 0.18908 0.35374 0.0
O25 O 0.2317 0.17698 0.35877 0.0
O26 O 0.20854 0.20759 0.32974 0.0
O27 O 0.24654 0.22029 0.33434 0.0
O28 O 0.19759 0.1491 0.3391 0.0
O29 O 0.23829 0.16427 0.33759 0.0
O30 O 0.16338 0.18826 0.34411 0.0
O31 O 0.18401 0.22495 0.344 0.0
H32 H 0.19274 0.26877 0.35508 0.0
H33 H 0.16986 0.31023 0.35811 0.0
H34 H 0.2455 0.35022 0.35996 0.0
H35 H 0.26835 0.3079 0.35732 0.0
H36 H 0.25509 0.11272 0.32697 0.0
H37 H 0.25267 0.09507 0.31106 0.0
H38 H 0.18517 0.14576 0.30517 0.0
H39 H 0.18756 0.16313 0.32126 0.0
Ho40 Ho 0.06715 0.97481 0.60069 0.0
Ho41 Ho 0.10124 0.95729 0.59389 0.0
C42 C 0.09591 0.9366 0.61377 0.0
C43 C 0.02284 0.99558 0.60648 0.0
C44 C 1.0134 1.0045 0.61572 0.0
C45 C 0.98744 0.99824 0.61838 0.0
C46 C 0.98036 0.99837 0.62787 0.0
C47 C 0.99933 1.00439 0.63481 0.0
C48 C 0.02439 1.01357 0.63206 0.0
C49 C 0.03127 1.01398 0.62253 0.0
C50 C 0.10818 1.00045 0.6122 0.0
C51 C 0.06422 0.98184 0.57732 0.0
C52 C 0.14609 0.95395 0.58518 0.0
C53 C 0.15858 0.94567 0.57635 0.0
C54 C 0.15236 0.9582 0.56778 0.0
C55 C 0.16962 0.95591 0.56015 0.0
C56 C 0.19314 0.94106 0.56102 0.0
C57 C 0.19753 0.926 0.5692 0.0
C58 C 0.18038 0.92841 0.57683 0.0
C59 C 0.07125 0.90984 0.59484 0.0
O60 O 0.07138 0.94168 0.61134 0.0
O61 O 0.11433 0.94604 0.60831 0.0
O62 O 0.0417 1.00922 0.60253 0.0
O63 O 0.02723 0.97022 0.60595 0.0
O64 O 0.08621 0.9894 0.61478 0.0
O65 O 0.10783 0.9961 0.60297 0.0
O66 O 0.0831 0.96419 0.5788 0.0
O67 O 0.05591 0.99209 0.58545 0.0
O68 O 0.13726 0.93549 0.59074 0.0
O69 O 0.13078 0.97487 0.58495 0.0
O70 O 0.09662 0.9127 0.59593 0.0
O71 O 0.0618 0.93379 0.59326 0.0
H72 H 0.97338 0.99096 0.61322 0.0
H73 H 0.96093 0.99105 0.6298 0.0
H74 H 0.03922 0.01853 0.63729 0.0
H75 H 0.05114 0.01981 0.6206 0.0
H76 H 0.13541 0.97138 0.56719 0.0
H77 H 0.16572 0.96742 0.55384 0.0
H78 H 0.21558 0.91449 0.57006 0.0
H79 H 0.18544 0.91854 0.58338 0.0
Ho80 Ho 0.29771 0.82483 0.84725 0.0
Ho81 Ho 0.31762 0.8593 0.84117 0.0
C82 C 0.33371 0.85091 0.86157 0.0
C83 C 0.27716 0.77938 0.85161 0.0
C84 C 0.27074 0.76542 0.86035 0.0
C85 C 0.27556 0.73817 0.86069 0.0
C86 C 0.27893 0.72557 0.86934 0.0
C87 C 0.2775 0.74014 0.87778 0.0
C88 C 0.26901 0.76668 0.87741 0.0
C89 C 0.26581 0.77932 0.86872 0.0
C90 C 0.27121 0.86529 0.85866 0.0
C91 C 0.29296 0.82373 0.82414 0.0
C92 C 0.32612 0.90396 0.83268 0.0
C93 C 0.3436 0.914 0.82526 0.0
C94 C 0.35191 0.89799 0.81772 0.0
C95 C 0.36902 0.90816 0.81087 0.0
C96 C 0.37827 0.93432 0.81154 0.0
C97 C 0.37021 0.95002 0.8192 0.0
C98 C 0.35301 0.93993 0.82599 0.0
C99 C 0.36408 0.82759 0.84277 0.0
O100 O 0.32832 0.82691 0.8588 0.0
O101 O 0.32625 0.87017 0.85605 0.0
O102 O 0.263 0.80011 0.8494 0.0
O103 O 0.30242 0.7834 0.85044 0.0
O104 O 0.28016 0.84218 0.8611 0.0
O105 O 0.27761 0.86633 0.84956 0.0
O106 O 0.31194 0.84087 0.82601 0.0
O107 O 0.28048 0.81665 0.83196 0.0
O108 O 0.3381 0.89666 0.84037 0.0
O109 O 0.3074 0.88758 0.83022 0.0
O110 O 0.36172 0.8528 0.8441 0.0
O111 O 0.34013 0.81932 0.84061 0.0
H112 H 0.2794 0.72715 0.85428 0.0
H113 H 0.28551 0.70514 0.86929 0.0
H114 H 0.26708 0.77826 0.88379 0.0
H115 H 0.26161 0.80032 0.8686 0.0
H116 H 0.34516 0.87775 0.81712 0.0
H117 H 0.37499 0.89563 0.80505 0.0
H118 H 0.37659 0.97039 0.81982 0.0
H119 H 0.34693 0.95246 0.8318 0.0
Ho120 Ho 0.46729 0.05953 0.1002 0.0
Ho121 Ho 0.43929 0.08001 0.09502 0.0
C122 C 0.44678 0.10088 0.11446 0.0
C123 C 0.5139 0.04313 0.10553 0.0
C124 C 0.53899 0.05746 0.10636 0.0
C125 C 0.5388 0.08519 0.10665 0.0
C126 C 0.56234 0.09904 0.10792 0.0
C127 C 0.58664 0.08544 0.10884 0.0
C128 C 0.58689 0.05765 0.10801 0.0
C129 C 0.56317 0.04375 0.1068 0.0
C130 C 0.4262 0.02958 0.11031 0.0
C131 C 0.47173 0.0552 0.0776 0.0
C132 C 0.39821 0.07123 0.08487 0.0
C133 C 0.39256 0.07105 0.07478 0.0
C134 C 0.37548 0.05173 0.07125 0.0
C135 C 0.37005 0.05065 0.06165 0.0
C136 C 0.38163 0.06895 0.05544 0.0
C137 C 0.39931 0.08793 0.05896 0.0
C138 C 0.40486 0.0889 0.0686 0.0
C139 C 0.46746 0.12709 0.09509 0.0
O140 O 0.46919 0.08999 0.11187 0.0
O141 O 0.42681 0.09732 0.10875 0.0
O142 O 0.49533 0.05044 0.11133 0.0
O143 O 0.50496 0.04065 0.09699 0.0
O144 O 0.44634 0.02046 0.10555 0.0
O145 O 0.42735 0.05463 0.10826 0.0
O146 O 0.4609 0.07779 0.08018 0.0
O147 O 0.47268 0.03972 0.08509 0.0
O148 O 0.40303 0.09433 0.08872 0.0
O149 O 0.4144 0.05236 0.08768 0.0
O150 O 0.44169 0.12463 0.09537 0.0
O151 O 0.47791 0.103 0.09469 0.0
H152 H 0.52034 0.09615 0.1062 0.0
H153 H 0.56118 0.12033 0.10868 0.0
H154 H 0.6053 0.0466 0.10856 0.0
H155 H 0.56365 0.02234 0.10641 0.0
H156 H 0.36611 0.03765 0.07594 0.0
H157 H 0.35592 0.03616 0.05915 0.0
H158 H 0.40844 0.10222 0.0543 0.0
H159 H 0.4185 0.1037 0.07121 0.0
Ho160 Ho 0.2317 0.8252 0.1996 0.0
Ho161 Ho 0.21173 0.85442 0.20558 0.0
C162 C 0.19101 0.85 0.18605 0.0
C163 C 0.24593 0.77864 0.19368 0.0
C164 C 0.23157 0.75351 0.19367 0.0
C165 C 0.20816 0.75094 0.19895 0.0
C166 C 0.19184 0.72901 0.1977 0.0
C167 C 0.19882 0.70926 0.19121 0.0
C168 C 0.22326 0.71097 0.18645 0.0
C169 C 0.23947 0.73307 0.18764 0.0
C170 C 0.26305 0.86564 0.18982 0.0
C171 C 0.2362 0.81962 0.2224 0.0
C172 C 0.21606 0.89465 0.21642 0.0
C173 C 0.21129 0.89899 0.22651 0.0
C174 C 0.22645 0.88596 0.23345 0.0
C175 C 0.2219 0.89103 0.24297 0.0
C176 C 0.20221 0.90923 0.24567 0.0
C177 C 0.18639 0.92137 0.23873 0.0
C178 C 0.19096 0.91634 0.22923 0.0
C179 C 0.16447 0.82599 0.20489 0.0
O180 O 0.20007 0.82653 0.18823 0.0
O181 O 0.19637 0.86899 0.19191 0.0
O182 O 0.23584 0.79683 0.18826 0.0
O183 O 0.25209 0.78791 0.20194 0.0
O184 O 0.27097 0.84327 0.19337 0.0
O185 O 0.23863 0.86697 0.19281 0.0
O186 O 0.21438 0.8325 0.22021 0.0
O187 O 0.25098 0.81736 0.21474 0.0
O188 O 0.19482 0.89005 0.21137 0.0
O189 O 0.23634 0.87944 0.21419 0.0
O190 O 0.167 0.85159 0.2046 0.0
O191 O 0.18859 0.81572 0.20557 0.0
H192 H 0.20187 0.76645 0.20371 0.0
H193 H 0.17315 0.72808 0.20146 0.0
H194 H 0.22893 0.69618 0.1813 0.0
H195 H 0.25745 0.73483 0.1835 0.0
H196 H 0.24221 0.87234 0.23156 0.0
H197 H 0.23439 0.8815 0.2482 0.0
H198 H 0.17148 0.93597 0.24059 0.0
H199 H 0.179 0.92655 0.224 0.0
Ho200 Ho 0.46172 0.98137 0.45047 0.0
Ho201 Ho 0.4347 0.96176 0.45542 0.0
C202 C 0.44224 0.93743 0.43695 0.0
C203 C 0.50762 0.99802 0.4447 0.0
C204 C 0.53261 0.98316 0.44399 0.0
C205 C 0.53715 0.96129 0.44992 0.0
C206 C 0.55795 0.94375 0.44807 0.0
C207 C 0.57445 0.94774 0.44024 0.0
C208 C 0.57099 0.97069 0.43472 0.0
C209 C 0.55013 0.98824 0.43657 0.0
C210 C 0.4197 1.0105 0.44023 0.0
C211 C 0.46755 0.98479 0.47293 0.0
C212 C 0.39509 0.97321 0.46596 0.0
C213 C 0.3921 0.97262 0.47621 0.0
C214 C 0.37743 0.99252 0.48066 0.0
C215 C 0.37575 0.99311 0.49046 0.0
C216 C 0.38896 0.97389 0.49595 0.0
C217 C 0.4042 0.95433 0.49144 0.0
C218 C 0.40563 0.95361 0.48164 0.0
C219 C 0.462 0.91402 0.45599 0.0
O220 O 0.46449 0.94871 0.43945 0.0
O221 O 0.42177 0.94232 0.44226 0.0
O222 O 0.48901 0.99009 0.43906 0.0
O223 O 0.49872 1.00175 0.45318 0.0
O224 O 0.43741 0.02003 0.446 0.0
O225 O 0.42361 0.98543 0.44157 0.0
O226 O 0.45737 0.96224 0.47011 0.0
O227 O 0.46764 1.0008 0.4656 0.0
O228 O 0.39776 0.95016 0.46181 0.0
O229 O 0.41179 0.99115 0.46289 0.0
O230 O 0.43623 0.91709 0.45588 0.0
O231 O 0.4729 0.93785 0.45595 0.0
H232 H 0.52379 0.95695 0.45569 0.0
H233 H 0.56027 0.92637 0.45247 0.0
H234 H 0.58315 0.9741 0.42855 0.0
H235 H 0.54676 1.00486 0.43189 0.0
H236 H 0.36716 1.00751 0.47656 0.0
H237 H 0.36333 1.00809 0.49371 0.0
H238 H 0.41468 0.93937 0.49547 0.0
H239 H 0.41734 0.93819 0.47832 0.0
Ho240 Ho 0.30142 0.20548 0.7027 0.0
Ho241 Ho 0.3227 0.17481 0.70792 0.0
C242 C 0.34041 0.18744 0.68801 0.0
C243 C 0.27989 0.25121 0.69917 0.0
C244 C 0.28934 0.27112 0.69244 0.0
C245 C 0.29571 0.29651 0.69571 0.0
C246 C 0.31269 0.31263 0.69049 0.0
C247 C 0.32345 0.3034 0.68198 0.0
C248 C 0.31487 0.27919 0.67827 0.0
C249 C 0.29793 0.26315 0.68346 0.0
C250 C 0.27661 0.16546 0.69069 0.0
C251 C 0.29675 0.2075 0.72525 0.0
C252 C 0.32996 0.1313 0.71725 0.0
C253 C 0.34626 0.12232 0.72525 0.0
C254 C 0.33387 0.10938 0.73278 0.0
C255 C 0.34889 0.0995 0.74026 0.0
C256 C 0.37666 0.10224 0.74033 0.0
C257 C 0.38907 0.11558 0.73286 0.0
C258 C 0.37397 0.1257 0.7254 0.0
C259 C 0.36978 0.2045 0.70652 0.0
O260 O 0.332 0.20985 0.69143 0.0
O261 O 0.33498 0.16642 0.69299 0.0
O262 O 0.27124 0.22919 0.69566 0.0
O263 O 0.29596 0.24692 0.70616 0.0
O264 O 0.28527 0.18879 0.68847 0.0
O265 O 0.28297 0.16405 0.69977 0.0
O266 O 0.31942 0.19635 0.72275 0.0
O267 O 0.28109 0.20857 0.71776 0.0
O268 O 0.34243 0.13707 0.70949 0.0
O269 O 0.311 0.14816 0.71915 0.0
O270 O 0.36726 0.17905 0.70593 0.0
O271 O 0.34563 0.21424 0.70766 0.0
H272 H 0.28943 0.30292 0.70265 0.0
H273 H 0.31899 0.33133 0.69345 0.0
H274 H 0.32252 0.27201 0.67161 0.0
H275 H 0.29336 0.24367 0.68074 0.0
H276 H 0.31256 0.10651 0.73279 0.0
H277 H 0.33884 0.08895 0.74585 0.0
H278 H 0.41042 0.11805 0.73277 0.0
H279 H 0.38403 0.1358 0.7197 0.0
Ho280 Ho 0.06338 0.05709 0.94851 0.0
Ho281 Ho 0.09376 0.07852 0.95362 0.0
C282 C 0.08121 0.09807 0.93396 0.0
C283 C 0.01749 0.04029 0.94286 0.0
C284 C 0.99188 0.05409 0.94325 0.0
C285 C 0.98803 0.07457 0.94981 0.0
C286 C 0.96675 0.09211 0.94881 0.0
C287 C 0.94912 0.08953 0.9412 0.0
C288 C 0.95183 0.06766 0.93511 0.0
C289 C 0.97314 0.05011 0.93612 0.0
C290 C 0.10586 0.02773 0.93856 0.0
C291 C 0.06091 0.05318 0.97139 0.0
C292 C 0.13897 0.07618 0.96194 0.0
C293 C 0.15079 0.07956 0.9713 0.0
C294 C 0.14423 0.06289 0.97887 0.0
C295 C 0.15889 0.06391 0.98721 0.0
C296 C 0.1801 0.08169 0.98808 0.0
C297 C 0.18535 0.09952 0.98073 0.0
C298 C 0.17087 0.09837 0.97239 0.0
C299 C 0.06308 0.12443 0.95382 0.0
O300 O 0.05912 0.08792 0.93707 0.0
O301 O 0.10212 0.09401 0.93921 0.0
O302 O 0.03475 0.05122 0.93731 0.0
O303 O 0.0279 0.03391 0.95093 0.0
O304 O 0.08676 0.01832 0.94375 0.0
O305 O 0.10309 0.05281 0.94025 0.0
O306 O 0.07632 0.07325 0.9691 0.0
O307 O 0.0549 0.03969 0.96373 0.0
O308 O 0.12996 0.09765 0.95786 0.0
O309 O 0.12386 0.05538 0.96062 0.0
O310 O 0.0887 0.12279 0.95282 0.0
O311 O 0.05396 0.10002 0.95481 0.0
H312 H 1.00241 0.07806 0.95535 0.0
H313 H 0.96504 0.10863 0.95363 0.0
H314 H 0.93882 0.06532 0.92909 0.0
H315 H 0.97599 0.03459 0.93095 0.0
H316 H 0.1286 0.04835 0.97823 0.0
H317 H 0.1544 0.05009 0.99283 0.0
H318 H 0.20182 0.11318 0.98115 0.0
H319 H 0.17625 0.11136 0.96662 0.0
Ho320 Ho 0.82142 0.84888 0.70702 0.0
Ho321 Ho 0.80358 0.82147 0.70063 0.0
C322 C 0.79673 0.81391 0.72331 0.0
C323 C 0.81082 0.88674 0.71847 0.0
C324 C 0.8127 0.89013 0.72868 0.0
C325 C 0.79717 0.90946 0.73307 0.0
C326 C 0.80087 0.91497 0.7426 0.0
C327 C 0.82007 0.90101 0.74788 0.0
C328 C 0.83418 0.88025 0.74358 0.0
C329 C 0.83076 0.87507 0.73401 0.0
C330 C 0.87023 0.82232 0.70663 0.0
C331 C 0.84626 0.84952 0.68842 0.0
C332 C 0.79178 0.77497 0.69416 0.0
C333 C 0.80813 0.75114 0.69297 0.0
C334 C 0.83568 0.75335 0.69179 0.0
C335 C 0.85116 0.73087 0.69024 0.0
C336 C 0.83945 0.70567 0.68995 0.0
C337 C 0.81201 0.70346 0.69169 0.0
C338 C 0.79646 0.72607 0.69315 0.0
C339 C 0.77262 0.86127 0.69037 0.0
O340 O 0.81958 0.82456 0.72117 0.0
O341 O 0.782 0.81427 0.71555 0.0
O342 O 0.83353 0.88449 0.71404 0.0
O343 O 0.79276 0.86996 0.71556 0.0
O344 O 0.8665 0.8478 0.70734 0.0
O345 O 0.84666 0.81111 0.70625 0.0
O346 O 0.83758 0.82554 0.69003 0.0
O347 O 0.83899 0.86739 0.69445 0.0
O348 O 0.79797 0.79495 0.68884 0.0
O349 O 0.7877 0.78212 0.70284 0.0
O350 O 0.76457 0.83891 0.69384 0.0
O351 O 0.79663 0.86278 0.69374 0.0
H352 H 0.78309 0.92116 0.72903 0.0
H353 H 0.78993 0.93139 0.74562 0.0
H354 H 0.84884 0.86894 0.74747 0.0
H355 H 0.84305 0.86009 0.73072 0.0
H356 H 0.84517 0.77252 0.6918 0.0
H357 H 0.87209 0.7335 0.6888 0.0
H358 H 0.80243 0.68432 0.69168 0.0
H359 H 0.77528 0.72402 0.69425 0.0
Ho360 Ho 0.92298 0.07657 0.45767 0.0
Ho361 Ho 0.95631 0.05505 0.4522 0.0
C362 C 0.95689 0.05035 0.47521 0.0
C363 C 0.87722 0.08479 0.46566 0.0
C364 C 0.85194 0.07094 0.46735 0.0
C365 C 0.85077 0.04876 0.47332 0.0
C366 C 0.8263 0.03848 0.47607 0.0
C367 C 0.80249 0.05009 0.47289 0.0
C368 C 0.80376 0.07118 0.46643 0.0
C369 C 0.82826 0.08158 0.46373 0.0
C370 C 0.95469 0.12242 0.45633 0.0
C371 C 0.93751 0.09459 0.43749 0.0
C372 C 1.00009 0.03046 0.44793 0.0
C373 C 1.0134 0.0254 0.43894 0.0
C374 C 0.04072 0.02994 0.43841 0.0
C375 C 0.05244 0.03555 0.42976 0.0
C376 C 0.0369 0.03672 0.42151 0.0
C377 C 1.01032 0.02849 0.42191 0.0
C378 C 0.99861 0.02286 0.43059 0.0
C379 C 0.91474 0.03133 0.44046 0.0
O380 O 0.94041 0.06996 0.47309 0.0
O381 O 0.96396 0.03759 0.46748 0.0
O382 O 0.8981 0.07583 0.47004 0.0
O383 O 0.88253 0.09172 0.45704 0.0
O384 O 0.92932 0.12047 0.45516 0.0
O385 O 0.96331 0.09826 0.45819 0.0
O386 O 0.9597 0.08408 0.44042 0.0
O387 O 0.91658 0.09117 0.44282 0.0
O388 O 0.97779 0.01836 0.44953 0.0
O389 O 0.99869 0.05542 0.45009 0.0
O390 O 0.93753 0.04092 0.43803 0.0
O391 O 0.91447 0.03648 0.44965 0.0
H392 H 0.86867 0.04005 0.47624 0.0
H393 H 0.82612 0.02245 0.48114 0.0
H394 H 0.78579 0.08033 0.46375 0.0
H395 H 0.82865 0.09866 0.45911 0.0
H396 H 0.05243 0.03198 0.44478 0.0
H397 H 0.07297 0.04184 0.42974 0.0
H398 H 0.99802 0.0286 0.41564 0.0
H399 H 0.97758 0.01881 0.43081 0.0
Ho400 Ho 0.70309 0.18401 0.20575 0.0
Ho401 Ho 0.72469 0.21253 0.20064 0.0
C402 C 0.72863 0.21633 0.22331 0.0
C403 C 0.70572 0.14115 0.21549 0.0
C404 C 0.69835 0.13358 0.2251 0.0
C405 C 0.71163 0.11257 0.22952 0.0
C406 C 0.7026 0.10299 0.23817 0.0
C407 C 0.68 0.11418 0.24242 0.0
C408 C 0.66752 0.13606 0.2382 0.0
C409 C 0.67677 0.14586 0.22962 0.0
C410 C 0.65652 0.2137 0.20552 0.0
C411 C 0.68443 0.19416 0.18587 0.0
C412 C 0.74192 0.25862 0.19544 0.0
C413 C 0.72788 0.28403 0.19489 0.0
C414 C 0.70503 0.28836 0.20036 0.0
C415 C 0.68844 0.3099 0.19847 0.0
C416 C 0.69438 0.32734 0.19107 0.0
C417 C 0.71832 0.32399 0.18608 0.0
C418 C 0.73491 0.30241 0.18796 0.0
C419 C 0.75404 0.17095 0.19038 0.0
O420 O 0.7063 0.20483 0.22077 0.0
O421 O 0.74398 0.21805 0.21581 0.0
O422 O 0.68577 0.14716 0.20997 0.0
O423 O 0.72588 0.15734 0.21464 0.0
O424 O 0.65854 0.18807 0.20508 0.0
O425 O 0.68088 0.22336 0.20613 0.0
O426 O 0.69504 0.21622 0.18877 0.0
O427 O 0.6875 0.17394 0.1915 0.0
O428 O 0.73346 0.24081 0.18959 0.0
O429 O 0.74528 0.249 0.20386 0.0
O430 O 0.76355 0.19066 0.19521 0.0
O431 O 0.72905 0.17258 0.19257 0.0
H432 H 0.72834 0.10296 0.22612 0.0
H433 H 0.71243 0.08599 0.24128 0.0
H434 H 0.6502 0.1451 0.24141 0.0
H435 H 0.66644 0.16234 0.22635 0.0
H436 H 0.69924 0.27432 0.20574 0.0
H437 H 0.67024 0.3121 0.20247 0.0
H438 H 0.72327 0.33685 0.18023 0.0
H439 H 0.75235 0.29922 0.18364 0.0
Ho440 Ho 0.61359 0.96233 0.9588 0.0
Ho441 Ho 0.57903 0.98109 0.95247 0.0
C442 C 0.57778 0.98741 0.97567 0.0
C443 C 0.6586 0.95489 0.96731 0.0
C444 C 0.66916 0.93655 0.97439 0.0
C445 C 0.65285 0.92538 0.98134 0.0
C446 C 0.66341 0.90708 0.98775 0.0
C447 C 0.69025 0.89947 0.98717 0.0
C448 C 0.7063 0.91049 0.9801 0.0
C449 C 0.69583 0.92888 0.97378 0.0
C450 C 0.58302 0.91514 0.95754 0.0
C451 C 0.60618 0.94369 0.93873 0.0
C452 C 0.53336 1.00137 0.94777 0.0
C453 C 0.5194 1.00748 0.939 0.0
C454 C 0.49165 1.00686 0.93903 0.0
C455 C 0.4778 1.00373 0.93061 0.0
C456 C 0.49164 1.00107 0.92205 0.0
C457 C 0.51923 1.00508 0.92195 0.0
C458 C 0.53307 1.00814 0.93039 0.0
C459 C 0.61954 1.00714 0.94098 0.0
O460 O 0.59553 0.96874 0.97397 0.0
O461 O 0.57009 0.9989 0.9677 0.0
O462 O 0.65233 0.944 0.95934 0.0
O463 O 0.64098 0.97224 0.97006 0.0
O464 O 0.60836 0.91786 0.95652 0.0
O465 O 0.5739 0.93907 0.95929 0.0
O466 O 0.58194 0.94931 0.94132 0.0
O467 O 0.62519 0.95196 0.94416 0.0
O468 O 0.55401 0.01554 0.94989 0.0
O469 O 0.53762 0.97626 0.9491 0.0
O470 O 0.59717 0.99675 0.93843 0.0
O471 O 0.61982 1.00207 0.95019 0.0
H472 H 0.63205 0.93075 0.98181 0.0
H473 H 0.65063 0.89886 0.99313 0.0
H474 H 0.72717 0.90542 0.9796 0.0
H475 H 0.70858 0.93714 0.96838 0.0
H476 H 0.48084 1.00627 0.94563 0.0
H477 H 0.45657 1.00059 0.93097 0.0
H478 H 0.53033 1.00359 0.91543 0.0
H479 H 0.5545 1.00884 0.93021 0.0
Ho480 Ho 0.82731 0.1823 0.8443 0.0
Ho481 Ho 0.80545 0.21486 0.84934 0.0
C482 C 0.80203 0.21476 0.82634 0.0
C483 C 0.83571 0.13659 0.83666 0.0
C484 C 0.84978 0.12533 0.82859 0.0
C485 C 0.8493 0.1376 0.81971 0.0
C486 C 0.85938 0.12432 0.81187 0.0
C487 C 0.87004 0.0987 0.81284 0.0
C488 C 0.87244 0.08753 0.82187 0.0
C489 C 0.86231 0.10076 0.82969 0.0
C490 C 0.87295 0.214 0.84505 0.0
C491 C 0.84412 0.19807 0.8644 0.0
C492 C 0.77866 0.25772 0.85288 0.0
C493 C 0.76834 0.26935 0.8616 0.0
C494 C 0.77196 0.29646 0.86308 0.0
C495 C 0.77128 0.30665 0.87219 0.0
C496 C 0.76724 0.28973 0.87993 0.0
C497 C 0.76029 0.26326 0.87831 0.0
C498 C 0.76062 0.25316 0.86916 0.0
C499 C 0.78227 0.1743 0.86175 0.0
O500 O 0.82236 0.1994 0.82872 0.0
O501 O 0.78836 0.22119 0.83394 0.0
O502 O 0.85042 0.1462 0.84335 0.0
O503 O 0.81495 0.15129 0.83484 0.0
O504 O 0.87115 0.18889 0.84672 0.0
O505 O 0.84861 0.2224 0.8431 0.0
O506 O 0.83463 0.22008 0.86099 0.0
O507 O 0.83982 0.17667 0.85944 0.0
O508 O 0.76778 0.23588 0.84996 0.0
O509 O 0.80445 0.25662 0.8525 0.0
O510 O 0.79056 0.19784 0.86377 0.0
O511 O 0.78799 0.17299 0.85265 0.0
H512 H 0.84003 0.15679 0.81875 0.0
H513 H 0.85751 0.13343 0.80498 0.0
H514 H 0.88025 0.06769 0.82283 0.0
H515 H 0.86299 0.09115 0.83652 0.0
H516 H 0.77786 0.30925 0.85732 0.0
H517 H 0.77682 0.32714 0.87322 0.0
H518 H 0.75674 0.24993 0.88415 0.0
H519 H 0.75693 0.23231 0.86814 0.0
Ho520 Ho 0.60528 0.07298 0.59221 0.0
Ho521 Ho 0.57726 0.05338 0.59774 0.0
C522 C 0.57187 0.04866 0.57521 0.0
C523 C 0.64507 0.06148 0.58158 0.0
C524 C 0.64986 0.05839 0.57144 0.0
C525 C 0.66798 0.03905 0.56847 0.0
C526 C 0.67091 0.03343 0.5589 0.0
C527 C 0.6556 0.04695 0.55213 0.0
C528 C 0.63768 0.06666 0.55513 0.0
C529 C 0.63488 0.07237 0.56472 0.0
C530 C 0.57801 0.12079 0.59263 0.0
C531 C 0.60064 0.09466 0.61161 0.0
C532 C 0.53035 0.03926 0.60338 0.0
C533 C 0.50632 0.0552 0.60482 0.0
C534 C 0.50301 0.07922 0.59995 0.0
C535 C 0.48327 0.09708 0.60266 0.0
C536 C 0.46653 0.09114 0.61026 0.0
C537 C 0.46868 0.06626 0.61468 0.0
C538 C 0.48855 0.04845 0.61199 0.0
C539 C 0.61746 0.02286 0.60803 0.0
O540 O 0.58179 0.0715 0.57779 0.0
O541 O 0.57215 0.03301 0.58268 0.0
O542 O 0.64054 0.08547 0.58476 0.0
O543 O 0.62915 0.04365 0.58518 0.0
O544 O 0.60378 0.11768 0.5925 0.0
O545 O 0.56705 0.09704 0.59243 0.0
O546 O 0.57784 0.08393 0.60943 0.0
O547 O 0.61974 0.09095 0.60554 0.0
O548 O 0.54975 0.04478 0.60906 0.0
O549 O 0.53846 0.03699 0.59472 0.0
O550 O 0.5968 1.01405 0.60352 0.0
O551 O 0.61739 0.04768 0.60557 0.0
H552 H 0.67958 0.02796 0.57357 0.0
H553 H 0.68531 0.01857 0.55682 0.0
H554 H 0.62551 0.07733 0.55009 0.0
H555 H 0.62071 0.08735 0.56688 0.0
H556 H 0.51651 0.08478 0.59437 0.0
H557 H 0.48186 0.11603 0.59911 0.0
H558 H 0.45624 0.06131 0.62064 0.0
H559 H 0.49097 0.0301 0.61586 0.0
Ho560 Ho 0.70721 0.85543 0.34371 0.0
Ho561 Ho 0.72896 0.82247 0.34906 0.0
C562 C 0.73295 0.82235 0.32605 0.0
C563 C 0.69894 0.90147 0.33615 0.0
C564 C 0.68226 0.91398 0.32897 0.0
C565 C 0.67142 0.89957 0.32146 0.0
C566 C 0.65638 0.91257 0.31455 0.0
C567 C 0.65192 0.94004 0.31514 0.0
C568 C 0.66223 0.95407 0.32287 0.0
C569 C 0.67724 0.94112 0.32971 0.0
C570 C 0.66162 0.82327 0.3443 0.0
C571 C 0.68938 0.83996 0.36375 0.0
C572 C 0.75492 0.77916 0.3528 0.0
C573 C 0.76326 0.76598 0.36151 0.0
C574 C 0.76066 0.73848 0.36206 0.0
C575 C 0.75912 0.72613 0.37082 0.0
C576 C 0.76004 0.74123 0.37914 0.0
C577 C 0.7662 0.76827 0.37854 0.0
C578 C 0.7678 0.78061 0.36976 0.0
C579 C 0.75194 0.86352 0.36125 0.0
O580 O 0.71279 0.83812 0.32823 0.0
O581 O 0.74631 0.81587 0.33373 0.0
O582 O 0.68662 0.89302 0.34359 0.0
O583 O 0.7172 0.885 0.33326 0.0
O584 O 0.66311 0.84853 0.34567 0.0
O585 O 0.68611 0.81504 0.34262 0.0
O586 O 0.69933 0.81788 0.36058 0.0
O587 O 0.69371 0.86119 0.3587 0.0
O588 O 0.76642 0.80134 0.35062 0.0
O589 O 0.7293 0.78047 0.35174 0.0
O590 O 0.74319 0.84023 0.36344 0.0
O591 O 0.74667 0.86431 0.3521 0.0
H592 H 0.67491 0.87847 0.32087 0.0
H593 H 0.6486 0.90126 0.3087 0.0
H594 H 0.65968 0.9753 0.32344 0.0
H595 H 0.68542 0.95245 0.3355 0.0
H596 H 0.75715 0.72691 0.35576 0.0
H597 H 0.75429 0.70527 0.371 0.0
H598 H 0.76752 0.78027 0.38485 0.0
H599 H 0.77042 0.8018 0.36948 0.0
Ho600 Ho 0.91891 0.96406 0.09062 0.0
Ho601 Ho 0.95264 0.98274 0.09691 0.0
C602 C 0.9548 0.98835 0.07372 0.0
C603 C 0.87558 0.95744 0.08114 0.0
C604 C 0.8682 0.94109 0.073 0.0
C605 C 0.85208 0.95194 0.06594 0.0
C606 C 0.84416 0.93646 0.05831 0.0
C607 C 0.85211 0.9098 0.05767 0.0
C608 C 0.8686 0.89904 0.06469 0.0
C609 C 0.87677 0.91463 0.07226 0.0
C610 C 0.94924 0.91676 0.0922 0.0
C611 C 0.9248 0.94624 0.11078 0.0
C612 C 0.99817 1.00313 0.10142 0.0
C613 C 1.01183 1.01112 0.11004 0.0
C614 C 0.03947 1.00873 0.11033 0.0
C615 C 0.0526 1.00787 0.11896 0.0
C616 C 0.03814 1.00924 0.12743 0.0
C617 C 1.01085 0.01506 0.12706 0.0
C618 C 0.99772 0.01593 0.11839 0.0
C619 C 0.91264 1.00896 0.10861 0.0
O620 O 0.93796 0.96912 0.07554 0.0
O621 O 0.96137 1.00063 0.08164 0.0
O622 O 0.88121 0.9447 0.08886 0.0
O623 O 0.89207 0.97674 0.07949 0.0
O624 O 0.9239 0.91975 0.09327 0.0
O625 O 0.9585 0.94048 0.09034 0.0
O626 O 0.94917 0.95139 0.10823 0.0
O627 O 0.90604 0.95446 0.10518 0.0
O628 O 0.9778 0.01717 0.09873 0.0
O629 O 0.99375 0.97785 0.10079 0.0
O630 O 0.93562 0.99938 0.11095 0.0
O631 O 0.91149 1.00331 0.09945 0.0
H632 H 0.84534 0.9723 0.06638 0.0
H633 H 0.83118 0.94514 0.05305 0.0
H634 H 0.87511 0.87861 0.06431 0.0
H635 H 0.88952 0.90589 0.07758 0.0
H636 H 0.05064 1.00505 0.10393 0.0
H637 H 0.07362 1.00324 0.11895 0.0
H638 H 0.99931 0.01667 0.13347 0.0
H639 H 0.97641 0.01835 0.11831 0.0
Ho640 Ho 0.72005 0.71016 0.8487 0.0
Ho641 Ho 0.69963 0.67672 0.8427 0.0
C642 C 0.68425 0.68418 0.86327 0.0
C643 C 0.74184 0.75387 0.85412 0.0
C644 C 0.74932 0.76252 0.86362 0.0
C645 C 0.73631 0.75166 0.87143 0.0
C646 C 0.74006 0.76218 0.88036 0.0
C647 C 0.75704 0.78386 0.88171 0.0
C648 C 0.77197 0.79313 0.87398 0.0
C649 C 0.76797 0.78261 0.86497 0.0
C650 C 0.74554 0.66945 0.86035 0.0
C651 C 0.72575 0.71121 0.82556 0.0
C652 C 0.68996 0.63314 0.83382 0.0
C653 C 0.6738 0.62561 0.82561 0.0
C654 C 0.68115 0.63289 0.81643 0.0
C655 C 0.66643 0.62414 0.80873 0.0
C656 C 0.64405 0.608 0.81006 0.0
C657 C 0.63603 0.60181 0.81927 0.0
C658 C 0.65086 0.61041 0.82697 0.0
C659 C 0.65377 0.70925 0.84409 0.0
O660 O 0.68996 0.70802 0.86038 0.0
O661 O 0.69053 0.66504 0.85752 0.0
O662 O 0.75536 0.7341 0.85068 0.0
O663 O 0.7164 0.75111 0.85281 0.0
O664 O 0.73699 0.69272 0.86265 0.0
O665 O 0.7393 0.66834 0.85124 0.0
O666 O 0.70637 0.69447 0.82744 0.0
O667 O 0.73787 0.71847 0.83344 0.0
O668 O 0.67675 0.64098 0.84118 0.0
O669 O 0.71101 0.6475 0.8323 0.0
O670 O 0.65577 0.68411 0.84566 0.0
O671 O 0.6779 0.71711 0.84195 0.0
H672 H 0.72188 0.73611 0.87058 0.0
H673 H 0.72781 0.7546 0.886 0.0
H674 H 0.78561 0.80947 0.8748 0.0
H675 H 0.77851 0.79094 0.85902 0.0
H676 H 0.69867 0.64472 0.81515 0.0
H677 H 0.67344 0.62889 0.80171 0.0
H678 H 0.61876 0.5896 0.82052 0.0
H679 H 0.6447 0.60467 0.834 0.0
Ho680 Ho 0.58114 0.48484 0.09745 0.0
Ho681 Ho 0.61287 0.46295 0.09253 0.0
C682 C 0.59869 0.44685 0.11269 0.0
C683 C 0.53606 0.50844 0.10057 0.0
C684 C 0.51863 0.50722 0.10879 0.0
C685 C 0.49148 0.50299 0.10733 0.0
C686 C 0.47619 0.49161 0.11443 0.0
C687 C 0.488 0.48438 0.12303 0.0
C688 C 0.5143 0.49178 0.12488 0.0
C689 C 0.52957 0.50311 0.11779 0.0
C690 C 0.62099 0.50881 0.10973 0.0
C691 C 0.58079 0.48866 0.07483 0.0
C692 C 0.65709 0.45413 0.08376 0.0
C693 C 0.66602 0.43677 0.07606 0.0
C694 C 0.67835 0.44806 0.06819 0.0
C695 C 0.68791 0.43203 0.06094 0.0
C696 C 0.68548 0.40436 0.06147 0.0
C697 C 0.67286 0.39303 0.0693 0.0
C698 C 0.66305 0.40912 0.07652 0.0
C699 C 0.58196 0.41692 0.09395 0.0
O700 O 0.57649 0.45615 0.1093 0.0
O701 O 0.61993 0.45089 0.1076 0.0
O702 O 0.55889 0.51988 0.10166 0.0
O703 O 0.53843 0.48598 0.09623 0.0
O704 O 0.59735 0.50058 0.1118 0.0
O705 O 0.6229 0.5025 0.10068 0.0
O706 O 0.59276 0.46647 0.0774 0.0
O707 O 0.57825 0.5041 0.08228 0.0
O708 O 0.65055 0.44267 0.09163 0.0
O709 O 0.64075 0.4732 0.08148 0.0
O710 O 0.60734 0.41904 0.09514 0.0
O711 O 0.57299 0.44098 0.09212 0.0
H712 H 0.48279 0.50588 0.10041 0.0
H713 H 0.45592 0.4861 0.11283 0.0
H714 H 0.52365 0.48685 0.13154 0.0
H715 H 0.55046 0.50631 0.1191 0.0
H716 H 0.68091 0.4693 0.0677 0.0
H717 H 0.69792 0.44127 0.05505 0.0
H718 H 0.67066 0.37177 0.06985 0.0
H719 H 0.65345 0.39985 0.08249 0.0
Ho720 Ho 0.79928 0.32517 0.34822 0.0
Ho721 Ho 0.82093 0.35382 0.34345 0.0
C722 C 0.84166 0.3408 0.36276 0.0
C723 C 0.78204 0.27918 0.35352 0.0
C724 C 0.797 0.25443 0.35471 0.0
C725 C 0.82032 0.25011 0.3495 0.0
C726 C 0.83777 0.22976 0.35199 0.0
C727 C 0.83224 0.2135 0.35976 0.0
C728 C 0.80795 0.21671 0.36454 0.0
C729 C 0.79049 0.23711 0.36205 0.0
C730 C 0.77023 0.36694 0.35849 0.0
C731 C 0.79573 0.32184 0.32563 0.0
C732 C 0.81776 0.39734 0.3341 0.0
C733 C 0.82569 0.40542 0.3246 0.0
C734 C 0.8134 0.42727 0.32035 0.0
C735 C 0.82324 0.43727 0.31187 0.0
C736 C 0.84567 0.42565 0.30765 0.0
C737 C 0.85713 0.40298 0.31169 0.0
C738 C 0.84705 0.39278 0.32008 0.0
C739 C 0.86761 0.32462 0.34334 0.0
O740 O 0.82941 0.3197 0.35979 0.0
O741 O 0.83909 0.3619 0.35752 0.0
O742 O 0.7886 0.29781 0.35935 0.0
O743 O 0.78 0.28801 0.34494 0.0
O744 O 0.76056 0.3484 0.35312 0.0
O745 O 0.7954 0.36414 0.35681 0.0
O746 O 0.81795 0.33344 0.3283 0.0
O747 O 0.7802 0.3198 0.33306 0.0
O748 O 0.83747 0.39142 0.33972 0.0
O749 O 0.79792 0.38066 0.33469 0.0
O750 O 0.86544 0.35024 0.34376 0.0
O751 O 0.84332 0.31471 0.34278 0.0
H752 H 0.8258 0.26335 0.34382 0.0
H753 H 0.85622 0.22761 0.34814 0.0
H754 H 0.8033 0.20472 0.37065 0.0
H755 H 0.77274 0.24034 0.3662 0.0
H756 H 0.79687 0.43718 0.32375 0.0
H757 H 0.8142 0.45487 0.30888 0.0
H758 H 0.87429 0.39362 0.3085 0.0
H759 H 0.85664 0.37569 0.32325 0.0
Ho760 Ho 0.95937 0.55024 0.59844 0.0
Ho761 Ho 0.93324 0.57115 0.59389 0.0
C762 C 0.94171 0.59168 0.61319 0.0
C763 C 1.00563 0.53209 0.60339 0.0
C764 C 0.03069 0.54657 0.60427 0.0
C765 C 0.03532 0.56891 0.59861 0.0
C766 C 0.05602 0.58612 0.60072 0.0
C767 C 0.07236 0.58133 0.60857 0.0
C768 C 0.06885 0.55794 0.61382 0.0
C769 C 0.04808 0.54072 0.61169 0.0
C770 C 0.91774 0.52149 0.6089 0.0
C771 C 0.96462 0.5474 0.57598 0.0
C772 C 0.89337 0.56297 0.58312 0.0
C773 C 0.89132 0.56486 0.57286 0.0
C774 C 0.87748 0.54542 0.5679 0.0
C775 C 0.8773 0.54569 0.55808 0.0
C776 C 0.89115 0.56533 0.55307 0.0
C777 C 0.9054 0.58452 0.55808 0.0
C778 C 0.90542 0.58434 0.5679 0.0
C779 C 0.96087 0.61835 0.59393 0.0
O780 O 0.96345 0.57985 0.61036 0.0
O781 O 0.92136 0.58899 0.60758 0.0
O782 O 0.98743 0.53905 0.60936 0.0
O783 O 0.99613 0.53006 0.59491 0.0
O784 O 0.93559 0.51177 0.6032 0.0
O785 O 0.9212 0.54655 0.6074 0.0
O786 O 0.95633 0.57048 0.57917 0.0
O787 O 0.96327 0.53086 0.58315 0.0
O788 O 0.89686 0.58534 0.58763 0.0
O789 O 0.90895 0.54378 0.58608 0.0
O790 O 0.93511 0.61576 0.59415 0.0
O791 O 0.97147 0.59428 0.59361 0.0
H792 H 0.02207 0.57387 0.59285 0.0
H793 H 0.05841 0.60386 0.59652 0.0
H794 H 0.0809 0.5539 0.61998 0.0
H795 H 0.04463 0.52374 0.61619 0.0
H796 H 0.86684 0.53004 0.57162 0.0
H797 H 0.86557 0.53099 0.55443 0.0
H798 H 0.91629 0.59982 0.55441 0.0
H799 H 0.91665 0.59933 0.5716 0.0
Ho800 Ho 0.72918 0.32001 0.70092 0.0
Ho801 Ho 0.70768 0.34825 0.70556 0.0
C802 C 0.68717 0.33686 0.68616 0.0
C803 C 0.74812 0.27426 0.69579 0.0
C804 C 0.73489 0.24884 0.69439 0.0
C805 C 0.70711 0.24784 0.69402 0.0
C806 C 0.69434 0.22422 0.6919 0.0
C807 C 0.70911 0.201 0.69022 0.0
C808 C 0.73694 0.20177 0.69124 0.0
C809 C 0.74975 0.2256 0.69325 0.0
C810 C 0.75792 0.3621 0.69072 0.0
C811 C 0.73292 0.31725 0.72359 0.0
C812 C 0.71334 0.3927 0.71409 0.0
C813 C 0.70854 0.40513 0.72321 0.0
C814 C 0.72206 0.42848 0.72534 0.0
C815 C 0.71355 0.44433 0.73278 0.0
C816 C 0.6913 0.43703 0.73813 0.0
C817 C 0.6793 0.4124 0.73651 0.0
C818 C 0.6879 0.39649 0.72907 0.0
C819 C 0.66092 0.31924 0.70587 0.0
O820 O 0.69956 0.31549 0.689 0.0
O821 O 0.68949 0.35738 0.69165 0.0
O822 O 0.74132 0.29283 0.68993 0.0
O823 O 0.74845 0.28278 0.70441 0.0
O824 O 0.76763 0.34472 0.69662 0.0
O825 O 0.73282 0.35797 0.69197 0.0
O826 O 0.71069 0.32906 0.72091 0.0
O827 O 0.74827 0.31477 0.71612 0.0
O828 O 0.69201 0.38617 0.70938 0.0
O829 O 0.73249 0.37502 0.71358 0.0
O830 O 0.66301 0.34489 0.7055 0.0
O831 O 0.6853 0.30926 0.70629 0.0
H832 H 0.69529 0.26555 0.69503 0.0
H833 H 0.67297 0.22463 0.69106 0.0
H834 H 0.74889 0.18416 0.69016 0.0
H835 H 0.77122 0.226 0.69369 0.0
H836 H 0.73812 0.4353 0.72089 0.0
H837 H 0.72348 0.46298 0.73403 0.0
H838 H 0.66212 0.40632 0.74054 0.0
H839 H 0.67732 0.37839 0.72751 0.0
Ho840 Ho 0.95008 0.4798 0.9519 0.0
Ho841 Ho 0.91593 0.46118 0.95839 0.0
C842 C 0.92204 0.44277 0.93826 0.0
C843 C 0.99554 0.49941 0.94688 0.0
C844 C 1.00894 0.50395 0.93789 0.0
C845 C 0.03637 0.49982 0.93751 0.0
C846 C 0.04859 0.4944 0.92893 0.0
C847 C 0.03341 0.49295 0.92061 0.0
C848 C 1.00658 0.50064 0.92087 0.0
C849 C 0.99437 0.50608 0.92948 0.0
C850 C 0.90942 0.50561 0.94035 0.0
C851 C 0.95215 0.48636 0.97508 0.0
C852 C 0.87188 0.454 0.96746 0.0
C853 C 0.86298 0.43687 0.97516 0.0
C854 C 0.88007 0.42946 0.98254 0.0
C855 C 0.87124 0.41229 0.9896 0.0
C856 C 0.84535 0.40205 0.98929 0.0
C857 C 0.82851 0.40927 0.9818 0.0
C858 C 0.83726 0.42655 0.97481 0.0
C859 C 0.94669 0.41405 0.95682 0.0
O860 O 0.94643 0.44807 0.94074 0.0
O861 O 0.90332 0.45121 0.94382 0.0
O862 O 0.97484 0.5139 0.94882 0.0
O863 O 0.99159 0.47455 0.94875 0.0
O864 O 0.93199 0.49541 0.93786 0.0
O865 O 0.90892 0.50055 0.94956 0.0
O866 O 0.93505 0.46726 0.97341 0.0
O867 O 0.95893 0.49821 0.96707 0.0
O868 O 0.87809 0.44166 0.95974 0.0
O869 O 0.88872 0.47269 0.96951 0.0
O870 O 0.92131 0.41683 0.95584 0.0
O871 O 0.95567 0.43784 0.9587 0.0
H872 H 0.04789 0.49811 0.94394 0.0
H873 H 0.06928 0.48849 0.92902 0.0
H874 H 0.99454 0.50024 0.91454 0.0
H875 H 0.97324 0.50973 0.9296 0.0
H876 H 0.90018 0.43686 0.98286 0.0
H877 H 0.88463 0.40699 0.99528 0.0
H878 H 0.8083 0.40208 0.98147 0.0
H879 H 0.82391 0.43189 0.96912 0.0
Ho880 Ho 0.80646 0.7156 0.20114 0.0
Ho881 Ho 0.82779 0.68213 0.20649 0.0
C882 C 0.84549 0.69764 0.18638 0.0
C883 C 0.78082 0.75886 0.19713 0.0
C884 C 0.77178 0.77057 0.18823 0.0
C885 C 0.77574 0.79767 0.18681 0.0
C886 C 0.77623 0.80792 0.1777 0.0
C887 C 0.77306 0.79107 0.1699 0.0
C888 C 0.76596 0.76458 0.1714 0.0
C889 C 0.76507 0.75443 0.18054 0.0
C890 C 0.78301 0.67475 0.18902 0.0
C891 C 0.80256 0.71583 0.22416 0.0
C892 C 0.83593 0.63605 0.21404 0.0
C893 C 0.85256 0.62373 0.22127 0.0
C894 C 0.86349 0.6384 0.22871 0.0
C895 C 0.87842 0.62562 0.23569 0.0
C896 C 0.8827 0.5981 0.23526 0.0
C897 C 0.87236 0.58381 0.2276 0.0
C898 C 0.85745 0.59654 0.22068 0.0
C899 C 0.87363 0.71368 0.20565 0.0
O900 O 0.83618 0.71986 0.18966 0.0
O901 O 0.84078 0.6764 0.1914 0.0
O902 O 0.76923 0.73724 0.19992 0.0
O903 O 0.80651 0.75733 0.19791 0.0
O904 O 0.79197 0.6979 0.18681 0.0
O905 O 0.78826 0.67386 0.19816 0.0
O906 O 0.82223 0.69941 0.22199 0.0
O907 O 0.78956 0.72294 0.21647 0.0
O908 O 0.84832 0.64449 0.20662 0.0
O909 O 0.81759 0.65249 0.21689 0.0
O910 O 0.87178 0.68848 0.20423 0.0
O911 O 0.84939 0.72216 0.20757 0.0
H912 H 0.78093 0.81041 0.19266 0.0
H913 H 0.78188 0.82841 0.17675 0.0
H914 H 0.76308 0.75132 0.16549 0.0
H915 H 0.76118 0.7336 0.18149 0.0
H916 H 0.86011 0.65955 0.22918 0.0
H917 H 0.88623 0.63713 0.24149 0.0
H918 H 0.87477 0.56253 0.22715 0.0
H919 H 0.84921 0.58501 0.21495 0.0
Ho920 Ho 0.56847 0.55607 0.45073 0.0
Ho921 Ho 0.60273 0.57494 0.45677 0.0
C922 C 0.59464 0.59218 0.43651 0.0
C923 C 0.52326 0.5345 0.44662 0.0
C924 C 0.51071 0.52356 0.43819 0.0
C925 C 0.4834 0.5273 0.43701 0.0
C926 C 0.47196 0.52429 0.42815 0.0
C927 C 0.4878 0.51771 0.42032 0.0
C928 C 0.51457 0.51087 0.42177 0.0
C929 C 0.52598 0.51374 0.43068 0.0
C930 C 0.60825 0.52971 0.43892 0.0
C931 C 0.56804 0.55047 0.47395 0.0
C932 C 0.64806 0.58024 0.46504 0.0
C933 C 0.66044 0.58981 0.47372 0.0
C934 C 0.65447 0.57845 0.4825 0.0
C935 C 0.67167 0.58205 0.49008 0.0
C936 C 0.69486 0.59703 0.48895 0.0
C937 C 0.69889 0.61103 0.48053 0.0
C938 C 0.68182 0.60731 0.47293 0.0
C939 C 0.57196 0.62184 0.45549 0.0
O940 O 0.57049 0.58706 0.43928 0.0
O941 O 0.61386 0.58425 0.44199 0.0
O942 O 0.54326 0.52143 0.45017 0.0
O943 O 0.52766 0.55985 0.44626 0.0
O944 O 0.58504 0.53885 0.43666 0.0
O945 O 0.60971 0.53575 0.44801 0.0
O946 O 0.5855 0.56911 0.47208 0.0
O947 O 0.56013 0.53884 0.46607 0.0
O948 O 0.63819 0.59789 0.45933 0.0
O949 O 0.63362 0.5589 0.4656 0.0
O950 O 0.59715 0.61899 0.45395 0.0
O951 O 0.56311 0.59807 0.45761 0.0
H952 H 0.47134 0.53476 0.44276 0.0
H953 H 0.45131 0.52989 0.42729 0.0
H954 H 0.52713 0.50538 0.41589 0.0
H955 H 0.547 0.51007 0.43151 0.0
H956 H 0.63782 0.56516 0.48331 0.0
H957 H 0.66807 0.57133 0.49657 0.0
H958 H 0.71669 0.62261 0.47947 0.0
H959 H 0.68664 0.61632 0.46622 0.0
Ho960 Ho 0.31718 0.35656 0.20763 0.0
Ho961 Ho 0.29754 0.32874 0.20203 0.0
C962 C 0.2932 0.32294 0.22462 0.0
C963 C 0.30608 0.39595 0.21841 0.0
C964 C 0.30438 0.40011 0.22863 0.0
C965 C 0.2844 0.41668 0.23216 0.0
C966 C 0.28064 0.41913 0.24187 0.0
C967 C 0.29677 0.40492 0.24821 0.0
C968 C 0.31698 0.38847 0.24464 0.0
C969 C 0.32076 0.38608 0.23492 0.0
C970 C 0.36509 0.32891 0.20738 0.0
C971 C 0.34014 0.35109 0.18865 0.0
C972 C 0.28302 0.28248 0.19606 0.0
C973 C 0.29855 0.25811 0.19482 0.0
C974 C 0.32101 0.25319 0.20045 0.0
C975 C 0.33838 0.23252 0.19823 0.0
C976 C 0.33368 0.21656 0.19031 0.0
C977 C 0.31042 0.22078 0.18498 0.0
C978 C 0.29302 0.2414 0.18723 0.0
C979 C 0.26731 0.36938 0.1917 0.0
O980 O 0.31589 0.33336 0.22208 0.0
O981 O 0.27755 0.32282 0.21714 0.0
O982 O 0.32979 0.39203 0.21482 0.0
O983 O 0.28801 0.37993 0.215 0.0
O984 O 0.36211 0.35462 0.20756 0.0
O985 O 0.34115 0.31819 0.20745 0.0
O986 O 0.33001 0.32826 0.191 0.0
O987 O 0.33492 0.3708 0.19427 0.0
O988 O 0.28969 0.30175 0.19051 0.0
O989 O 0.27976 0.29047 0.20469 0.0
O990 O 0.25836 0.34875 0.19616 0.0
O991 O 0.29223 0.36895 0.1942 0.0
H992 H 0.27145 0.4275 0.22741 0.0
H993 H 0.26524 0.43235 0.24439 0.0
H994 H 0.3296 0.37714 0.24935 0.0
H995 H 0.33619 0.37299 0.23233 0.0
H996 H 0.32573 0.26598 0.20633 0.0
H997 H 0.35595 0.22961 0.20253 0.0
H998 H 0.3064 0.20917 0.17873 0.0
H999 H 0.27595 0.24511 0.18275 0.0
Ho1000 Ho 0.44127 0.57708 0.95523 0.0
Ho1001 Ho 0.46777 0.55746 0.95012 0.0
C1002 C 0.47383 0.55382 0.97274 0.0
C1003 C 0.40144 0.56372 0.96535 0.0
C1004 C 0.39581 0.56215 0.97542 0.0
C1005 C 0.37935 0.54195 0.97868 0.0
C1006 C 0.37287 0.54045 0.98819 0.0
C1007 C 0.38281 0.5592 0.99459 0.0
C1008 C 0.40037 0.57872 0.99136 0.0
C1009 C 0.40686 0.58019 0.98182 0.0
C1010 C 0.46907 0.62448 0.95605 0.0
C1011 C 0.44687 0.6029 0.93705 0.0
C1012 C 0.51314 0.53927 0.94412 0.0
C1013 C 0.53905 0.55204 0.94322 0.0
C1014 C 0.54065 0.57971 0.94299 0.0
C1015 C 0.56504 0.59202 0.94169 0.0
C1016 C 0.5884 0.57688 0.94069 0.0
C1017 C 0.58683 0.54913 0.94147 0.0
C1018 C 0.56227 0.5368 0.94269 0.0
C1019 C 0.42555 0.52889 0.93991 0.0
O1020 O 0.46291 0.57628 0.97008 0.0
O1021 O 0.47444 0.53816 0.9653 0.0
O1022 O 0.40418 0.58754 0.96178 0.0
O1023 O 0.41912 0.54657 0.9623 0.0
O1024 O 0.44328 0.62175 0.95622 0.0
O1025 O 0.4798 0.60048 0.95559 0.0
O1026 O 0.46895 0.59006 0.93893 0.0
O1027 O 0.42714 0.59891 0.94276 0.0
O1028 O 0.49459 0.54829 0.93863 0.0
O1029 O 0.50474 0.53646 0.9527 0.0
O1030 O 0.443 0.51916 0.94579 0.0
O1031 O 0.42978 0.55394 0.94124 0.0
H1032 H 0.37094 0.52772 0.97382 0.0
H1033 H 0.3589 0.52548 0.99043 0.0
H1034 H 0.40837 0.59332 0.99616 0.0
H1035 H 0.41996 0.59574 0.97943 0.0
H1036 H 0.52293 0.59183 0.94353 0.0
H1037 H 0.56528 0.61335 0.94097 0.0
H1038 H 0.60447 0.53691 0.94087 0.0
H1039 H 0.56136 0.51541 0.94305 0.0
Ho1040 Ho 0.20812 0.67948 0.70501 0.0
Ho1041 Ho 0.22945 0.7124 0.69956 0.0
C1042 C 0.23228 0.71372 0.72252 0.0
C1043 C 0.1995 0.63575 0.71392 0.0
C1044 C 0.18467 0.6289 0.72252 0.0
C1045 C 0.19465 0.63529 0.73148 0.0
C1046 C 0.18097 0.62777 0.73957 0.0
C1047 C 0.157 0.61375 0.73888 0.0
C1048 C 0.14651 0.60826 0.72992 0.0
C1049 C 0.1603 0.61567 0.72181 0.0
C1050 C 0.16239 0.71139 0.70389 0.0
C1051 C 0.19162 0.69188 0.68468 0.0
C1052 C 0.25426 0.75585 0.6955 0.0
C1053 C 0.26375 0.7673 0.68664 0.0
C1054 C 0.25886 0.79417 0.68496 0.0
C1055 C 0.25854 0.80382 0.67577 0.0
C1056 C 0.26282 0.78658 0.66813 0.0
C1057 C 0.27108 0.76048 0.66992 0.0
C1058 C 0.27179 0.75095 0.67915 0.0
C1059 C 0.25412 0.67151 0.68776 0.0
O1060 O 0.21232 0.69804 0.72028 0.0
O1061 O 0.24614 0.71971 0.71492 0.0
O1062 O 0.18531 0.64369 0.70679 0.0
O1063 O 0.22101 0.64976 0.71499 0.0
O1064 O 0.16438 0.68629 0.70222 0.0
O1065 O 0.18655 0.71968 0.70593 0.0
O1066 O 0.20028 0.71461 0.68771 0.0
O1067 O 0.19634 0.67128 0.69003 0.0
O1068 O 0.26619 0.73459 0.69857 0.0
O1069 O 0.22854 0.75392 0.69601 0.0
O1070 O 0.24564 0.69487 0.68547 0.0
O1071 O 0.24784 0.67043 0.69682 0.0
H1072 H 0.21335 0.64556 0.73228 0.0
H1073 H 0.18989 0.63184 0.74636 0.0
H1074 H 0.12801 0.59762 0.72917 0.0
H1075 H 0.15211 0.61064 0.71499 0.0
H1076 H 0.25271 0.80709 0.69066 0.0
H1077 H 0.252 0.82403 0.67462 0.0
H1078 H 0.27486 0.74693 0.66415 0.0
H1079 H 0.27652 0.73032 0.68031 0.0
Ho1080 Ho 0.09751 0.45942 0.45485 0.0
Ho1081 Ho 0.07147 0.47991 0.44988 0.0
C1082 C 0.06578 0.48344 0.47249 0.0
C1083 C 0.13719 0.47003 0.46543 0.0
C1084 C 0.14081 0.47046 0.47563 0.0
C1085 C 0.15641 0.49031 0.47961 0.0
C1086 C 0.15991 0.49136 0.48933 0.0
C1087 C 0.14774 0.47257 0.49522 0.0
C1088 C 0.13116 0.45334 0.49122 0.0
C1089 C 0.12776 0.45225 0.48148 0.0
C1090 C 0.06966 0.41227 0.45505 0.0
C1091 C 0.09122 0.43738 0.43571 0.0
C1092 C 0.02523 0.49727 0.44452 0.0
C1093 C 1.00025 0.48266 0.44366 0.0
C1094 C 0.99563 0.46051 0.44942 0.0
C1095 C 0.97528 0.44292 0.44725 0.0
C1096 C 0.9593 0.44718 0.43928 0.0
C1097 C 0.96267 0.47047 0.43397 0.0
C1098 C 0.9831 0.48805 0.43613 0.0
C1099 C 0.11301 0.50837 0.43932 0.0
O1100 O 0.07479 0.4604 0.46955 0.0
O1101 O 0.0667 0.49957 0.46515 0.0
O1102 O 0.13374 0.44669 0.46157 0.0
O1103 O 0.12096 0.48834 0.4622 0.0
O1104 O 0.09546 0.41478 0.45512 0.0
O1105 O 0.05908 0.43634 0.45492 0.0
O1106 O 0.06925 0.44968 0.43806 0.0
O1107 O 0.11079 0.44002 0.44165 0.0
O1108 O 0.04366 0.48977 0.43872 0.0
O1109 O 0.03441 0.50011 0.45302 0.0
O1110 O 0.09426 0.51831 0.44459 0.0
O1111 O 0.1104 0.48338 0.44127 0.0
H1112 H 0.16628 0.50472 0.47519 0.0
H1113 H 0.17327 0.50608 0.49217 0.0
H1114 H 0.12152 0.43868 0.4956 0.0
H1115 H 0.11526 0.43697 0.47852 0.0
H1116 H 1.00868 0.45593 0.45527 0.0
H1117 H 0.97296 0.42525 0.4515 0.0
H1118 H 0.95087 0.47412 0.42771 0.0
H1119 H 0.98654 0.5049 0.43157 0.0
Ho1120 Ho 0.32468 0.67554 0.34068 0.0
Ho1121 Ho 0.30546 0.70766 0.34723 0.0
C1122 C 0.30026 0.71199 0.32422 0.0
C1123 C 0.32726 0.63321 0.33041 0.0
C1124 C 0.31713 0.60581 0.33008 0.0
C1125 C 0.29372 0.60025 0.32508 0.0
C1126 C 0.28624 0.57416 0.32337 0.0
C1127 C 0.30207 0.55298 0.32656 0.0
C1128 C 0.32465 0.55852 0.33204 0.0
C1129 C 0.33217 0.58468 0.33376 0.0
C1130 C 0.37189 0.70554 0.34259 0.0
C1131 C 0.34211 0.67787 0.36081 0.0
C1132 C 0.28487 0.75286 0.35213 0.0
C1133 C 0.27858 0.76598 0.36104 0.0
C1134 C 0.28306 0.7932 0.36168 0.0
C1135 C 0.28638 0.80497 0.37046 0.0
C1136 C 0.28539 0.78955 0.37872 0.0
C1137 C 0.27732 0.76303 0.37808 0.0
C1138 C 0.27394 0.75128 0.36927 0.0
C1139 C 0.27956 0.66745 0.35874 0.0
O1140 O 0.32118 0.69727 0.32608 0.0
O1141 O 0.28645 0.71583 0.33206 0.0
O1142 O 0.30992 0.65216 0.32912 0.0
O1143 O 0.34477 0.63905 0.33685 0.0
O1144 O 0.36921 0.6801 0.34335 0.0
O1145 O 0.34793 0.71495 0.34094 0.0
O1146 O 0.33629 0.70245 0.35873 0.0
O1147 O 0.33486 0.65992 0.3548 0.0
O1148 O 0.27077 0.7324 0.34976 0.0
O1149 O 0.3101 0.74883 0.3508 0.0
O1150 O 0.28893 0.69026 0.3612 0.0
O1151 O 0.28553 0.66656 0.34959 0.0
H1152 H 0.28181 0.61603 0.32207 0.0
H1153 H 0.26899 0.57072 0.31898 0.0
H1154 H 0.33712 0.54262 0.33467 0.0
H1155 H 0.35038 0.58831 0.3376 0.0
H1156 H 0.28662 0.80484 0.35539 0.0
H1157 H 0.29265 0.82543 0.37066 0.0
H1158 H 0.27588 0.75083 0.38435 0.0
H1159 H 0.26983 0.73035 0.36893 0.0
Ho1160 Ho 0.09231 0.57919 0.09443 0.0
Ho1161 Ho 0.06337 0.55827 0.09982 0.0
C1162 C 0.05953 0.55385 0.07702 0.0
C1163 C 0.13558 0.57436 0.08506 0.0
C1164 C 0.14551 0.57709 0.07539 0.0
C1165 C 0.13794 0.55951 0.06821 0.0
C1166 C 0.15117 0.55977 0.05957 0.0
C1167 C 0.17198 0.57765 0.05802 0.0
C1168 C 0.17805 0.59647 0.06496 0.0
C1169 C 0.165 0.59609 0.07359 0.0
C1170 C 0.06277 0.62576 0.09444 0.0
C1171 C 0.08343 0.59979 0.11405 0.0
C1172 C 0.01696 0.54229 0.10526 0.0
C1173 C 0.9916 0.55661 0.10523 0.0
C1174 C 0.98773 0.57797 0.09902 0.0
C1175 C 0.9667 0.5956 0.10041 0.0
C1176 C 0.94934 0.59218 0.10804 0.0
C1177 C 0.95203 0.56949 0.11375 0.0
C1178 C 0.97309 0.55187 0.11236 0.0
C1179 C 0.10499 0.52854 0.10995 0.0
O1180 O 0.07237 0.57554 0.07933 0.0
O1181 O 0.05659 0.53924 0.08467 0.0
O1182 O 0.1286 0.59628 0.08931 0.0
O1183 O 0.11975 0.55436 0.08684 0.0
O1184 O 0.0885 0.62361 0.09484 0.0
O1185 O 0.05289 0.60152 0.09397 0.0
O1186 O 0.06137 0.58804 0.11167 0.0
O1187 O 0.10322 0.59703 0.10821 0.0
O1188 O 0.03463 0.55195 0.11094 0.0
O1189 O 0.02697 0.53691 0.09704 0.0
O1190 O 0.08457 0.51938 0.10539 0.0
O1191 O 0.1038 0.55347 0.10768 0.0
H1192 H 0.12274 0.54479 0.06939 0.0
H1193 H 0.14605 0.54519 0.05429 0.0
H1194 H 0.19425 0.61024 0.06402 0.0
H1195 H 0.17117 0.60978 0.07903 0.0
H1196 H 1.00188 0.582 0.09347 0.0
H1197 H 0.96498 0.61277 0.09586 0.0
H1198 H 0.93921 0.56647 0.11978 0.0
H1199 H 0.97594 0.53562 0.11725 0.0
Ho1200 Ho 0.21239 0.35324 0.84484 0.0
Ho1201 Ho 0.23279 0.3235 0.8498 0.0
C1202 C 0.23581 0.31924 0.82707 0.0
C1203 C 0.21907 0.39765 0.83638 0.0
C1204 C 0.2146 0.41013 0.82722 0.0
C1205 C 0.23067 0.4314 0.82461 0.0
C1206 C 0.22342 0.44748 0.81705 0.0
C1207 C 0.19986 0.44255 0.81205 0.0
C1208 C 0.18503 0.41983 0.81417 0.0
C1209 C 0.19239 0.40365 0.82172 0.0
C1210 C 0.16501 0.32514 0.84422 0.0
C1211 C 0.18967 0.34107 0.86364 0.0
C1212 C 0.24925 0.27814 0.85613 0.0
C1213 C 0.23402 0.25355 0.85685 0.0
C1214 C 0.21262 0.24913 0.8507 0.0
C1215 C 0.19465 0.22883 0.85247 0.0
C1216 C 0.19766 0.21272 0.86047 0.0
C1217 C 0.21999 0.21628 0.86632 0.0
C1218 C 0.23801 0.23659 0.86453 0.0
C1219 C 0.26225 0.36602 0.85969 0.0
O1220 O 0.21544 0.33434 0.82948 0.0
O1221 O 0.2502 0.31428 0.83464 0.0
O1222 O 0.1976 0.3916 0.8411 0.0
O1223 O 0.23789 0.37961 0.83693 0.0
O1224 O 0.16762 0.35074 0.84464 0.0
O1225 O 0.18916 0.3146 0.84391 0.0
O1226 O 0.19948 0.31897 0.86039 0.0
O1227 O 0.19549 0.36234 0.85892 0.0
O1228 O 0.24083 0.29709 0.86153 0.0
O1229 O 0.25394 0.28651 0.84763 0.0
O1230 O 0.27154 0.3484 0.85381 0.0
O1231 O 0.23714 0.36171 0.85858 0.0
H1232 H 0.24798 0.4365 0.82877 0.0
H1233 H 0.23552 0.46454 0.81541 0.0
H1234 H 0.16678 0.41557 0.81043 0.0
H1235 H 0.17984 0.38713 0.82361 0.0
H1236 H 0.20901 0.26219 0.84477 0.0
H1237 H 0.17782 0.22642 0.8478 0.0
H1238 H 0.22267 0.20447 0.87263 0.0
H1239 H 0.25417 0.23997 0.86942 0.0
Ho1240 Ho 0.43423 0.45764 0.59417 0.0
Ho1241 Ho 0.46432 0.47912 0.59902 0.0
C1242 C 0.46611 0.4835 0.57634 0.0
C1243 C 0.38952 0.46008 0.58559 0.0
C1244 C 0.37947 0.45592 0.57602 0.0
C1245 C 0.38889 0.47066 0.56832 0.0
C1246 C 0.37645 0.4686 0.55957 0.0
C1247 C 0.35464 0.45171 0.55843 0.0
C1248 C 0.34664 0.43559 0.56597 0.0
C1249 C 0.3589 0.43778 0.57471 0.0
C1250 C 0.46413 0.41134 0.59402 0.0
C1251 C 0.44756 0.43801 0.61356 0.0
C1252 C 0.51021 0.49635 0.60465 0.0
C1253 C 0.53537 0.48211 0.60589 0.0
C1254 C 0.53584 0.45443 0.60525 0.0
C1255 C 0.55898 0.44037 0.60728 0.0
C1256 C 0.58231 0.45374 0.60986 0.0
C1257 C 0.58217 0.48166 0.60987 0.0
C1258 C 0.55878 0.49573 0.60796 0.0
C1259 C 0.42166 0.50844 0.6089 0.0
O1260 O 0.45237 0.46239 0.57877 0.0
O1261 O 0.47087 0.49777 0.58391 0.0
O1262 O 0.39784 0.43884 0.58999 0.0
O1263 O 0.40461 0.48088 0.58696 0.0
O1264 O 0.43852 0.41332 0.59492 0.0
O1265 O 0.47371 0.43561 0.59312 0.0
O1266 O 0.46949 0.44766 0.61017 0.0
O1267 O 0.42614 0.44288 0.60869 0.0
O1268 O 0.49131 0.48931 0.61033 0.0
O1269 O 0.50187 0.49817 0.59601 0.0
O1270 O 0.44029 0.51785 0.60349 0.0
O1271 O 0.42506 0.48333 0.60751 0.0
H1272 H 0.40504 0.48454 0.56914 0.0
H1273 H 0.38298 0.48114 0.55383 0.0
H1274 H 0.32961 0.42269 0.56533 0.0
H1275 H 0.35148 0.42617 0.58056 0.0
H1276 H 0.51805 0.44357 0.60352 0.0
H1277 H 0.55802 0.41897 0.60732 0.0
H1278 H 0.5999 0.49263 0.61164 0.0
H1279 H 0.55881 0.51715 0.60832 0.0
C1280 C 0.20264 0.3719 0.37039 0.0
C1281 C 0.19183 0.35765 0.36282 0.0
C1282 C 0.18703 0.38979 0.37541 0.0
C1283 C 0.11894 0.39302 0.38274 0.0
H1284 H 0.14687 0.44977 0.39814 0.0
C1285 C 0.07625 0.43017 0.41907 0.0
C1286 C 0.09601 0.42796 0.42605 0.0
C1287 C 0.08273 0.42653 0.40956 0.0
C1288 C 0.13857 0.43426 0.39379 0.0
H1289 H 0.15722 0.35369 0.3538 0.0
H1290 H 0.12967 0.38458 0.36279 0.0
H1291 H 0.16859 0.43873 0.38327 0.0
H1292 H 0.13751 0.4187 0.42864 0.0
H1293 H 0.14867 0.41256 0.41212 0.0
H1294 H 0.08983 0.38767 0.3936 0.0
C1295 C 0.15016 0.38158 0.36487 0.0
C1296 C 0.15096 0.42795 0.3853 0.0
C1297 C 0.16591 0.36381 0.35977 0.0
C1298 C 0.12187 0.42063 0.42343 0.0
C1299 C 0.12836 0.41741 0.41398 0.0
C1300 C 0.10639 0.39952 0.39121 0.0
C1301 C 0.16022 0.39373 0.37301 0.0
C1302 C 0.14226 0.40621 0.37999 0.0
C1303 C 0.10906 0.42107 0.40697 0.0
C1304 C 0.11711 0.41915 0.39702 0.0
H1305 H 0.22239 0.3676 0.37301 0.0
H1306 H 0.19538 0.3986 0.3817 0.0
H1307 H 0.11182 0.37607 0.37883 0.0
H1308 H 0.05616 0.43587 0.42091 0.0
H1309 H 0.06752 0.42907 0.40423 0.0
C1310 C 0.97016 1.0 0.64888 0.0
C1311 C 0.99467 0.99519 0.64453 0.0
C1312 C 0.96185 0.98403 0.65632 0.0
C1313 C 0.96779 0.91499 0.66182 0.0
H1314 H 0.9159 0.93359 0.68086 0.0
C1315 C 0.89177 0.84573 0.68195 0.0
C1316 C 0.86605 0.85644 0.68136 0.0
C1317 C 0.91327 0.85975 0.67822 0.0
C1318 C 0.93062 0.9281 0.67564 0.0
H1319 H 0.03104 0.97209 0.64517 0.0
H1320 H 0.01647 0.94417 0.6582 0.0
H1321 H 0.94603 0.96741 0.67493 0.0
H1322 H 0.8419 0.88826 0.67573 0.0
H1323 H 0.87917 0.91225 0.66897 0.0
H1324 H 0.95119 0.87592 0.66224 0.0
C1325 C 1.00365 0.96012 0.65583 0.0
C1326 C 0.94784 0.94737 0.67228 0.0
C1327 C 1.01206 0.97628 0.64844 0.0
C1328 C 0.86161 0.8796 0.67616 0.0
C1329 C 0.8829 0.89347 0.67244 0.0
C1330 C 0.95056 0.89562 0.66524 0.0
C1331 C 0.97788 0.96289 0.65946 0.0
C1332 C 0.96566 0.94135 0.66499 0.0
C1333 C 0.90894 0.88444 0.67391 0.0
C1334 C 0.93101 0.90247 0.67181 0.0
H1335 H 0.95648 1.01449 0.64598 0.0
H1336 H 0.94182 0.98662 0.65894 0.0
H1337 H 0.9812 0.9098 0.65615 0.0
H1338 H 0.89555 0.82809 0.6861 0.0
H1339 H 0.93327 0.85244 0.67936 0.0
C1340 C 0.30833 0.74559 0.89142 0.0
C1341 C 0.29066 0.72944 0.88634 0.0
C1342 C 0.32714 0.73433 0.89745 0.0
C1343 C 0.36764 0.67655 0.89775 0.0
H1344 H 0.38527 0.69307 0.92366 0.0
C1345 C 0.43068 0.60936 0.92097 0.0
C1346 C 0.44326 0.61993 0.92889 0.0
C1347 C 0.41726 0.62598 0.91472 0.0
C1348 C 0.38113 0.68875 0.91634 0.0
H1349 H 0.27658 0.68922 0.8846 0.0
H1350 H 0.31007 0.66952 0.89494 0.0
H1351 H 0.34769 0.71523 0.91613 0.0
H1352 H 0.454 0.65577 0.93624 0.0
H1353 H 0.43159 0.68524 0.92506 0.0
H1354 H 0.40112 0.65045 0.89781 0.0
C1355 C 0.30943 0.69084 0.89412 0.0
C1356 C 0.35937 0.70118 0.9121 0.0
C1357 C 0.29032 0.70212 0.88823 0.0
C1358 C 0.44467 0.64739 0.93004 0.0
C1359 C 0.43148 0.66413 0.92374 0.0
C1360 C 0.38966 0.66449 0.90191 0.0
C1361 C 0.3287 0.70679 0.8984 0.0
C1362 C 0.35208 0.69457 0.90288 0.0
C1363 C 0.41627 0.65345 0.91634 0.0
C1364 C 0.39623 0.66986 0.91134 0.0
H1365 H 0.3094 0.76668 0.89011 0.0
H1366 H 0.34181 0.74695 0.90073 0.0
H1367 H 0.36269 0.67174 0.89052 0.0
H1368 H 0.429 0.58812 0.92012 0.0
H1369 H 0.40564 0.61695 0.90918 0.0
C1370 C 0.67751 0.2112 0.16944 0.0
C1371 C 0.67655 0.19027 0.17598 0.0
C1372 C 0.67494 0.20612 0.15978 0.0
C1373 C 0.68686 0.15367 0.1428 0.0
H1374 H 0.626 0.17885 0.12862 0.0
C1375 C 0.62653 0.08922 0.11919 0.0
C1376 C 0.61053 0.10003 0.11203 0.0
C1377 C 0.64424 0.10514 0.12411 0.0
C1378 C 0.6437 0.17226 0.1323 0.0
H1379 H 0.67096 0.14793 0.1776 0.0
H1380 H 0.66671 0.1392 0.16084 0.0
H1381 H 0.63693 0.1994 0.14367 0.0
H1382 H 0.60335 0.13511 0.10354 0.0
H1383 H 0.63397 0.16316 0.11234 0.0
H1384 H 0.69274 0.12544 0.13177 0.0
C1385 C 0.66972 0.1594 0.16316 0.0
C1386 C 0.64982 0.18399 0.14094 0.0
C1387 C 0.67182 0.16448 0.17275 0.0
C1388 C 0.61486 0.12638 0.1092 0.0
C1389 C 0.63246 0.14242 0.1142 0.0
C1390 C 0.68091 0.14211 0.13414 0.0
C1391 C 0.6719 0.18004 0.15659 0.0
C1392 C 0.67044 0.17365 0.14648 0.0
C1393 C 0.64626 0.13226 0.12202 0.0
C1394 C 0.65822 0.15013 0.12911 0.0
H1395 H 0.68122 0.23127 0.17176 0.0
H1396 H 0.67629 0.22232 0.1548 0.0
H1397 H 0.70314 0.14569 0.14694 0.0
H1398 H 0.62369 0.06911 0.12162 0.0
H1399 H 0.65437 0.09667 0.13015 0.0
C1400 C 0.15385 0.69841 0.1852 0.0
C1401 C 0.17902 0.68962 0.18813 0.0
C1402 C 0.1376 0.68199 0.17984 0.0
C1403 C 0.10586 0.64512 0.16761 0.0
H1404 H 0.15183 0.61405 0.14868 0.0
C1405 C 0.07078 0.60443 0.13101 0.0
C1406 C 0.08764 0.61101 0.12348 0.0
C1407 C 0.07802 0.6106 0.14027 0.0
C1408 C 0.13869 0.62261 0.15391 0.0
H1409 H 0.20552 0.65585 0.18891 0.0
H1410 H 0.17664 0.62662 0.17986 0.0
H1411 H 0.1705 0.62789 0.16355 0.0
H1412 H 0.12399 0.63099 0.11958 0.0
H1413 H 0.13625 0.64232 0.13564 0.0
H1414 H 0.0744 0.64139 0.15749 0.0
C1415 C 0.16986 0.64654 0.18136 0.0
C1416 C 0.1493 0.63012 0.16255 0.0
C1417 C 0.18635 0.66317 0.18658 0.0
C1418 C 0.11079 0.62543 0.12527 0.0
C1419 C 0.11793 0.63167 0.13447 0.0
C1420 C 0.09524 0.63772 0.15888 0.0
C1421 C 0.14612 0.65635 0.1774 0.0
C1422 C 0.13328 0.64247 0.16938 0.0
C1423 C 0.10217 0.62344 0.14209 0.0
C1424 C 0.11187 0.62748 0.15182 0.0
H1425 H 0.14774 0.71878 0.18626 0.0
H1426 H 0.11959 0.69039 0.1769 0.0
H1427 H 0.09285 0.65411 0.17277 0.0
H1428 H 0.05282 0.59322 0.1298 0.0
H1429 H 0.06545 0.6042 0.14602 0.0
C1430 C 0.65932 0.862 0.37519 0.0
C1431 C 0.67712 0.84146 0.3731 0.0
C1432 C 0.64892 0.86446 0.38424 0.0
C1433 C 0.6654 0.85742 0.40823 0.0
H1434 H 0.58975 0.86603 0.41234 0.0
C1435 C 0.58248 0.90028 0.43629 0.0
C1436 C 0.59218 0.92628 0.43689 0.0
C1437 C 0.59594 0.88133 0.43096 0.0
C1438 C 0.6109 0.86305 0.41142 0.0
H1439 H 0.69817 0.80733 0.37872 0.0
H1440 H 0.68053 0.81231 0.39475 0.0
H1441 H 0.60566 0.8486 0.39736 0.0
H1442 H 0.62505 0.95196 0.43338 0.0
H1443 H 0.64848 0.91891 0.42398 0.0
H1444 H 0.67069 0.87392 0.42202 0.0
C1445 C 0.6743 0.82606 0.3893 0.0
C1446 C 0.61994 0.85325 0.40283 0.0
C1447 C 0.68424 0.82322 0.38017 0.0
C1448 C 0.61698 0.93217 0.43291 0.0
C1449 C 0.63051 0.91316 0.42762 0.0
C1450 C 0.65635 0.86764 0.4168 0.0
C1451 C 0.65662 0.84675 0.39138 0.0
C1452 C 0.64723 0.85127 0.40106 0.0
C1453 C 0.61935 0.88804 0.42618 0.0
C1454 C 0.62904 0.87141 0.41833 0.0
H1455 H 0.6536 0.87626 0.36984 0.0
H1456 H 0.63548 0.88072 0.38575 0.0
H1457 H 0.68657 0.85612 0.40695 0.0
H1458 H 0.56337 0.89513 0.43924 0.0
H1459 H 0.58706 0.86203 0.43001 0.0
C1460 C 0.46685 0.40911 0.62614 0.0
C1461 C 0.44625 0.42546 0.62282 0.0
C1462 C 0.46427 0.39618 0.63482 0.0
C1463 C 0.42837 0.39713 0.65714 0.0
H1464 H 0.41414 0.32259 0.65333 0.0
C1465 C 0.34415 0.34466 0.67573 0.0
C1466 C 0.34564 0.31741 0.67747 0.0
C1467 C 0.36504 0.35749 0.67123 0.0
C1468 C 0.41875 0.34315 0.65469 0.0
H1469 H 0.40776 0.44255 0.626 0.0
H1470 H 0.40362 0.42071 0.64122 0.0
H1471 H 0.43837 0.34715 0.64139 0.0
H1472 H 0.37055 0.28238 0.67647 0.0
H1473 H 0.40722 0.30486 0.66868 0.0
H1474 H 0.40758 0.39358 0.6702 0.0
C1475 C 0.42155 0.41761 0.63714 0.0
C1476 C 0.43271 0.35716 0.64784 0.0
C1477 C 0.42376 0.42981 0.62841 0.0
C1478 C 0.36874 0.30337 0.67499 0.0
C1479 C 0.38975 0.31623 0.67058 0.0
C1480 C 0.41471 0.38308 0.66405 0.0
C1481 C 0.44152 0.40038 0.64034 0.0
C1482 C 0.4362 0.38451 0.64879 0.0
C1483 C 0.38794 0.34334 0.66849 0.0
C1484 C 0.40835 0.35633 0.66261 0.0
H1485 H 0.48436 0.4056 0.62188 0.0
H1486 H 0.47968 0.38264 0.63714 0.0
H1487 H 0.43098 0.41827 0.65799 0.0
H1488 H 0.32651 0.35583 0.6776 0.0
H1489 H 0.36274 0.37829 0.66955 0.0
C1490 C 0.94156 0.13765 0.93827 0.0
C1491 C 0.93141 0.11176 0.93849 0.0
C1492 C 0.92859 0.15736 0.93311 0.0
C1493 C 0.91598 0.17638 0.9135 0.0
H1494 H 0.84107 0.18407 0.90771 0.0
C1495 C 0.87249 0.17629 0.87648 0.0
C1496 C 0.85521 0.1969 0.87395 0.0
C1497 C 0.88163 0.17418 0.88572 0.0
C1498 C 0.86204 0.18258 0.90936 0.0
H1499 H 0.89798 0.08718 0.93466 0.0
H1500 H 0.87551 0.12147 0.92553 0.0
H1501 H 0.85474 0.16661 0.92312 0.0
H1502 H 0.83373 0.23146 0.87898 0.0
H1503 H 0.84914 0.22708 0.89532 0.0
H1504 H 0.92322 0.19024 0.89948 0.0
C1505 C 0.89345 0.12659 0.92932 0.0
C1506 C 0.86983 0.17256 0.91813 0.0
C1507 C 0.90644 0.10685 0.93446 0.0
C1508 C 0.84732 0.21553 0.88077 0.0
C1509 C 0.85597 0.21303 0.89009 0.0
C1510 C 0.90819 0.18598 0.90471 0.0
C1511 C 0.9053 0.15149 0.9281 0.0
C1512 C 0.89686 0.16843 0.92013 0.0
C1513 C 0.87315 0.1923 0.89261 0.0
C1514 C 0.88119 0.18818 0.90247 0.0
H1515 H 0.96078 0.14213 0.94128 0.0
H1516 H 0.93796 0.1765 0.93237 0.0
H1517 H 0.93695 0.17311 0.91477 0.0
H1518 H 0.87875 0.16172 0.87133 0.0
H1519 H 0.89468 0.15787 0.88758 0.0
C1520 C 0.8825 0.68037 0.68866 0.0
C1521 C 0.85522 0.68261 0.6866 0.0
C1522 C 0.89853 0.66265 0.68364 0.0
C1523 C 0.8966 0.609 0.66562 0.0
H1524 H 0.95028 0.65108 0.65306 0.0
C1525 C 0.9129 0.60581 0.62641 0.0
C1526 C 0.93855 0.60136 0.62289 0.0
C1527 C 0.90899 0.61063 0.63596 0.0
C1528 C 0.93589 0.63879 0.65664 0.0
H1529 H 0.82308 0.6661 0.6783 0.0
H1530 H 0.85065 0.63525 0.66976 0.0
H1531 H 0.93173 0.6662 0.66801 0.0
H1532 H 0.9804 0.59965 0.62648 0.0
H1533 H 0.97347 0.60933 0.6433 0.0
H1534 H 0.8991 0.58292 0.65377 0.0
C1535 C 0.85982 0.64704 0.67523 0.0
C1536 C 0.92532 0.64733 0.66522 0.0
C1537 C 0.8439 0.66485 0.68016 0.0
C1538 C 0.96041 0.60309 0.62903 0.0
C1539 C 0.9565 0.60841 0.63862 0.0
C1540 C 0.90698 0.60063 0.65701 0.0
C1541 C 0.88747 0.64665 0.67658 0.0
C1542 C 0.90446 0.6333 0.6695 0.0
C1543 C 0.93066 0.61148 0.64216 0.0
C1544 C 0.92563 0.61623 0.65224 0.0
H1545 H 0.89174 0.69331 0.69377 0.0
H1546 H 0.91973 0.6625 0.68492 0.0
H1547 H 0.88091 0.59755 0.66885 0.0
H1548 H 0.89566 0.60454 0.62187 0.0
H1549 H 0.88893 0.61353 0.63852 0.0
C1550 C 0.0305 0.07157 0.40922 0.0
C1551 C 0.04679 0.05191 0.41331 0.0
C1552 C 0.04155 0.0913 0.40358 0.0
C1553 C 0.10149 0.12832 0.40296 0.0
H1554 H 0.08465 0.1495 0.37738 0.0
C1555 C 0.17497 0.17744 0.37884 0.0
C1556 C 0.16623 0.1932 0.37135 0.0
C1557 C 0.15682 0.16747 0.38528 0.0
C1558 C 0.08904 0.14441 0.38463 0.0
H1559 H 0.08671 0.03571 0.41377 0.0
H1560 H 0.10605 0.07057 0.40406 0.0
H1561 H 0.05921 0.11419 0.38489 0.0
H1562 H 0.13246 0.21258 0.36487 0.0
H1563 H 0.1003 0.19521 0.37626 0.0
H1564 H 0.13143 0.15811 0.40276 0.0
C1565 C 0.08485 0.07078 0.40535 0.0
C1566 C 0.07468 0.124 0.38886 0.0
C1567 C 0.07379 0.05087 0.41087 0.0
C1568 C 0.13949 0.20073 0.37074 0.0
C1569 C 0.12116 0.19057 0.37718 0.0
C1570 C 0.11553 0.14892 0.39882 0.0
C1571 C 0.06899 0.09173 0.40205 0.0
C1572 C 0.08162 0.11516 0.3979 0.0
C1573 C 0.12955 0.17283 0.38424 0.0
C1574 C 0.11026 0.15639 0.38946 0.0
H1575 H 1.00966 0.07315 0.41101 0.0
H1576 H 0.02901 0.10727 0.40104 0.0
H1577 H 0.10664 0.12215 0.41005 0.0
H1578 H 0.19553 0.17113 0.37927 0.0
H1579 H 0.16398 0.15361 0.39054 0.0
C1580 C 0.58033 0.44065 0.12884 0.0
C1581 C 0.60003 0.43497 0.12211 0.0
C1582 C 0.58253 0.43071 0.138 0.0
C1583 C 0.60891 0.37717 0.15168 0.0
H1584 H 0.62633 0.4263 0.17174 0.0
C1585 C 0.68122 0.37082 0.1839 0.0
C1586 C 0.67396 0.34593 0.18745 0.0
C1587 C 0.66368 0.38511 0.1782 0.0
C1588 C 0.62096 0.41242 0.16626 0.0
H1589 H 0.63692 0.41404 0.1195 0.0
H1590 H 0.64029 0.39589 0.13545 0.0
H1591 H 0.61145 0.44327 0.15638 0.0
H1592 H 0.64166 0.3178 0.18865 0.0
H1593 H 0.61112 0.34284 0.17873 0.0
H1594 H 0.61958 0.34634 0.16125 0.0
C1595 C 0.62341 0.40829 0.13365 0.0
C1596 C 0.61242 0.42209 0.15752 0.0
C1597 C 0.62154 0.41869 0.12458 0.0
C1598 C 0.64787 0.33695 0.18604 0.0
C1599 C 0.63039 0.35119 0.18031 0.0
C1600 C 0.61699 0.36752 0.16042 0.0
C1601 C 0.60409 0.41447 0.14043 0.0
C1602 C 0.60736 0.40449 0.1501 0.0
C1603 C 0.63868 0.37464 0.17593 0.0
C1604 C 0.62407 0.38506 0.16767 0.0
H1605 H 0.56362 0.45331 0.1271 0.0
H1606 H 0.56749 0.43567 0.14317 0.0
H1607 H 0.60512 0.36336 0.146 0.0
H1608 H 0.70108 0.37836 0.18499 0.0
H1609 H 0.67062 0.40313 0.17489 0.0
C1610 C 0.37234 0.84533 0.87226 0.0
C1611 C 0.34762 0.85693 0.8703 0.0
C1612 C 0.38893 0.8567 0.87903 0.0
C1613 C 0.42447 0.9018 0.88552 0.0
H1614 H 0.40113 0.93535 0.90866 0.0
C1615 C 0.45163 0.99415 0.91188 0.0
C1616 C 0.47828 0.98832 0.91397 0.0
C1617 C 0.43688 0.97708 0.90622 0.0
C1618 C 0.40779 0.92629 0.90216 0.0
H1619 H 0.31949 0.88744 0.87425 0.0
H1620 H 0.348 0.90694 0.88617 0.0
H1621 H 0.37285 0.90259 0.90109 0.0
H1622 H 0.51094 0.96124 0.91112 0.0
H1623 H 0.48534 0.9319 0.90114 0.0
H1624 H 0.45918 0.92594 0.88651 0.0
C1625 C 0.35485 0.88931 0.88255 0.0
C1626 C 0.39177 0.90736 0.8979 0.0
C1627 C 0.33855 0.87825 0.87572 0.0
C1628 C 0.49054 0.96653 0.90956 0.0
C1629 C 0.47582 0.94954 0.90389 0.0
C1630 C 0.44054 0.92073 0.8898 0.0
C1631 C 0.38066 0.87945 0.88395 0.0
C1632 C 0.39968 0.89538 0.88943 0.0
C1633 C 0.44859 0.95401 0.90254 0.0
C1634 C 0.43203 0.93357 0.89804 0.0
H1635 H 0.37968 0.82901 0.86803 0.0
H1636 H 0.40871 0.84866 0.88004 0.0
H1637 H 0.43085 0.8932 0.8789 0.0
H1638 H 0.44178 1.01101 0.91507 0.0
H1639 H 0.41602 0.98131 0.90507 0.0
C1640 C 0.77089 0.32401 0.8925 0.0
C1641 C 0.7764 0.29829 0.88933 0.0
C1642 C 0.78635 0.33525 0.89958 0.0
C1643 C 0.85507 0.33133 0.90709 0.0
H1644 H 0.83297 0.38702 0.92416 0.0
C1645 C 0.92336 0.39954 0.93011 0.0
C1646 C 0.91487 0.42601 0.93032 0.0
C1647 C 0.90866 0.38081 0.92509 0.0
C1648 C 0.83939 0.37152 0.9194 0.0
H1649 H 0.80044 0.26313 0.89172 0.0
H1650 H 0.82703 0.28263 0.90423 0.0
H1651 H 0.79974 0.35773 0.91739 0.0
H1652 H 0.88668 0.45452 0.92481 0.0
H1653 H 0.86157 0.4221 0.9158 0.0
H1654 H 0.89477 0.34566 0.90901 0.0
C1655 C 0.81112 0.29424 0.90114 0.0
C1656 C 0.82041 0.35471 0.91557 0.0
C1657 C 0.79562 0.28298 0.89407 0.0
C1658 C 0.89353 0.43415 0.92467 0.0
C1659 C 0.87901 0.41559 0.91965 0.0
C1660 C 0.87413 0.34811 0.91098 0.0
C1661 C 0.80755 0.32092 0.9036 0.0
C1662 C 0.82794 0.33501 0.90914 0.0
C1663 C 0.8855 0.38861 0.92028 0.0
C1664 C 0.86626 0.3689 0.91689 0.0
H1665 H 0.7561 0.33613 0.88898 0.0
H1666 H 0.78311 0.35589 0.90131 0.0
H1667 H 0.86146 0.31649 0.90207 0.0
H1668 H 0.93954 0.39291 0.93458 0.0
H1669 H 0.91404 0.36008 0.92563 0.0
C1670 C 0.46102 0.13671 0.61667 0.0
C1671 C 0.4498 0.112 0.61454 0.0
C1672 C 0.44784 0.15426 0.62266 0.0
C1673 C 0.42917 0.16629 0.64253 0.0
H1674 H 0.35353 0.17993 0.64451 0.0
C1675 C 0.36989 0.16377 0.67677 0.0
C1676 C 0.35426 0.18595 0.67893 0.0
C1677 C 0.38249 0.162 0.66806 0.0
C1678 C 0.37475 0.1767 0.64396 0.0
H1679 H 0.41503 0.08737 0.61615 0.0
H1680 H 0.39189 0.11813 0.62661 0.0
H1681 H 0.37228 0.16497 0.62946 0.0
H1682 H 0.33946 0.2237 0.67382 0.0
H1683 H 0.36088 0.22003 0.65834 0.0
H1684 H 0.43131 0.17597 0.6572 0.0
C1685 C 0.41084 0.1239 0.62367 0.0
C1686 C 0.38541 0.16811 0.6354 0.0
C1687 C 0.42414 0.10621 0.61776 0.0
C1688 C 0.35151 0.20643 0.67229 0.0
C1689 C 0.36365 0.20437 0.66347 0.0
C1690 C 0.41845 0.1744 0.6511 0.0
C1691 C 0.42315 0.14748 0.62652 0.0
C1692 C 0.41259 0.16208 0.63471 0.0
C1693 C 0.37921 0.18213 0.66132 0.0
C1694 C 0.39108 0.17886 0.65194 0.0
H1695 H 0.48086 0.14162 0.61433 0.0
H1696 H 0.45766 0.17237 0.62474 0.0
H1697 H 0.45013 0.16145 0.64222 0.0
H1698 H 0.37237 0.1478 0.6818 0.0
H1699 H 0.39428 0.14456 0.66647 0.0
C1700 C 0.72892 0.74448 0.39272 0.0
C1701 C 0.74862 0.73008 0.38788 0.0
C1702 C 0.71204 0.73175 0.39902 0.0
C1703 C 0.69953 0.66815 0.41132 0.0
H1704 H 0.6257 0.68456 0.40581 0.0
C1705 C 0.62012 0.59636 0.42196 0.0
C1706 C 0.60116 0.60718 0.42807 0.0
C1707 C 0.63532 0.61286 0.4163 0.0
C1708 C 0.64622 0.67992 0.40743 0.0
H1709 H 0.76811 0.69192 0.38669 0.0
H1710 H 0.73839 0.66954 0.39755 0.0
H1711 H 0.66082 0.71192 0.39908 0.0
H1712 H 0.58123 0.643 0.43257 0.0
H1713 H 0.60787 0.67218 0.42254 0.0
H1714 H 0.68494 0.63574 0.41944 0.0
C1715 C 0.73591 0.69064 0.39649 0.0
C1716 C 0.66633 0.69568 0.40368 0.0
C1717 C 0.75289 0.7034 0.39023 0.0
C1718 C 0.59545 0.63434 0.42774 0.0
C1719 C 0.61083 0.65097 0.42208 0.0
C1720 C 0.67949 0.65232 0.41498 0.0
C1721 C 0.71449 0.70442 0.40058 0.0
C1722 C 0.69322 0.68971 0.40548 0.0
C1723 C 0.63193 0.6404 0.41678 0.0
C1724 C 0.65271 0.65779 0.41293 0.0
H1725 H 0.72496 0.76504 0.39104 0.0
H1726 H 0.69611 0.743 0.40225 0.0
H1727 H 0.71999 0.66331 0.41296 0.0
H1728 H 0.62489 0.57542 0.42223 0.0
H1729 H 0.65115 0.60426 0.41212 0.0
C1730 C 0.14897 0.8482 0.17711 0.0
C1731 C 0.17565 0.85572 0.17762 0.0
C1732 C 0.13183 0.86123 0.17087 0.0
C1733 C 0.12956 0.91036 0.15135 0.0
H1734 H 0.06881 0.93852 0.16492 0.0
C1735 C 0.07726 1.00243 0.13805 0.0
C1736 C 0.05024 0.9983 0.13612 0.0
C1737 C 0.09097 0.98513 0.14399 0.0
C1738 C 0.08565 0.93071 0.16106 0.0
H1739 H 0.20616 0.8808 0.17179 0.0
H1740 H 0.17664 0.90321 0.1608 0.0
H1741 H 0.09521 0.9028 0.1719 0.0
H1742 H 1.01571 0.97487 0.13984 0.0
H1743 H 0.03956 0.94525 0.15037 0.0
H1744 H 0.12049 0.93879 0.14066 0.0
C1745 C 0.16869 0.88732 0.16506 0.0
C1746 C 0.10054 0.91006 0.16497 0.0
C1747 C 0.18564 0.87452 0.17133 0.0
C1748 C 0.03649 0.97874 0.1412 0.0
C1749 C 0.05018 0.96158 0.14719 0.0
C1750 C 0.11485 0.93109 0.1475 0.0
C1751 C 0.14138 0.88176 0.16511 0.0
C1752 C 0.12295 0.90005 0.16023 0.0
C1753 C 0.07777 0.96369 0.14816 0.0
C1754 C 0.09312 0.9418 0.1524 0.0
H1755 H 0.14094 0.83404 0.18208 0.0
H1756 H 0.1109 0.85642 0.17097 0.0
H1757 H 0.14652 0.9028 0.14749 0.0
H1758 H 0.08823 0.01765 0.13437 0.0
H1759 H 0.11221 0.98748 0.14484 0.0
C1760 C 0.61014 0.89898 0.93212 0.0
C1761 C 0.61294 0.92635 0.93091 0.0
C1762 C 0.62697 0.88157 0.92733 0.0
C1763 C 0.69457 0.88385 0.91766 0.0
H1764 H 0.67963 0.8133 0.90848 0.0
C1765 C 0.75299 0.82737 0.88989 0.0
C1766 C 0.75448 0.79962 0.8905 0.0
C1767 C 0.74098 0.84195 0.89705 0.0
C1768 C 0.68415 0.83275 0.91124 0.0
H1769 H 0.63293 0.95718 0.92314 0.0
H1770 H 0.66107 0.92683 0.91424 0.0
H1771 H 0.64357 0.84029 0.91487 0.0
H1772 H 0.74894 0.76606 0.89988 0.0
H1773 H 0.72663 0.79158 0.91217 0.0
H1774 H 0.7349 0.87672 0.91358 0.0
C1775 C 0.6468 0.9187 0.91915 0.0
C1776 C 0.66349 0.84826 0.91482 0.0
C1777 C 0.63033 0.93604 0.92406 0.0
C1778 C 0.74717 0.7873 0.89902 0.0
C1779 C 0.73453 0.80184 0.90609 0.0
C1780 C 0.71513 0.86845 0.91401 0.0
C1781 C 0.64655 0.89148 0.92122 0.0
C1782 C 0.66838 0.87425 0.91782 0.0
C1783 C 0.73 0.82902 0.90487 0.0
C1784 C 0.70997 0.84302 0.91058 0.0
H1785 H 0.59713 0.89125 0.93753 0.0
H1786 H 0.6262 0.8607 0.92904 0.0
H1787 H 0.69917 0.90347 0.92024 0.0
H1788 H 0.75834 0.83771 0.88349 0.0
H1789 H 0.73776 0.86295 0.89597 0.0
C1790 C 0.37301 0.33588 0.17669 0.0
C1791 C 0.35488 0.35496 0.17993 0.0
C1792 C 0.38832 0.34105 0.16868 0.0
C1793 C 0.3921 0.38202 0.14761 0.0
H1794 H 0.46512 0.39716 0.15433 0.0
C1795 C 0.44752 0.46794 0.13128 0.0
C1796 C 0.4746 0.46524 0.12923 0.0
C1797 C 0.43428 0.44799 0.13613 0.0
C1798 C 0.44503 0.39245 0.15221 0.0
H1799 H 0.33703 0.39333 0.17729 0.0
H1800 H 0.3631 0.40203 0.16318 0.0
H1801 H 0.43808 0.37003 0.16478 0.0
H1802 H 0.50916 0.43963 0.13059 0.0
H1803 H 0.48601 0.40486 0.13913 0.0
H1804 H 0.39849 0.40547 0.13529 0.0
C1805 C 0.36578 0.38332 0.16682 0.0
C1806 C 0.42965 0.37682 0.15817 0.0
C1807 C 0.35114 0.37852 0.17491 0.0
C1808 C 0.48835 0.44247 0.13226 0.0
C1809 C 0.47509 0.42247 0.13707 0.0
C1810 C 0.40751 0.39742 0.14162 0.0
C1811 C 0.38478 0.36489 0.16375 0.0
C1812 C 0.40274 0.37275 0.15613 0.0
C1813 C 0.44786 0.42489 0.13894 0.0
C1814 C 0.43364 0.40399 0.14414 0.0
H1815 H 0.37608 0.31759 0.18055 0.0
H1816 H 0.40317 0.32681 0.16645 0.0
H1817 H 0.37134 0.37899 0.14594 0.0
H1818 H 0.43655 0.48535 0.12905 0.0
H1819 H 0.41342 0.45073 0.13771 0.0
C1820 C 0.91543 0.12587 0.42643 0.0
C1821 C 0.9357 0.10748 0.42824 0.0
C1822 C 0.91282 0.13706 0.4175 0.0
C1823 C 0.9197 0.12228 0.39322 0.0
H1824 H 0.91024 0.1979 0.38981 0.0
C1825 C 0.87895 0.20622 0.36509 0.0
C1826 C 0.85318 0.19623 0.36381 0.0
C1827 C 0.8971 0.19292 0.37084 0.0
C1828 C 0.91341 0.17677 0.39055 0.0
H1829 H 0.96928 0.08633 0.42226 0.0
H1830 H 0.96404 0.1054 0.40645 0.0
H1831 H 0.92729 0.18097 0.40474 0.0
H1832 H 0.82717 0.16318 0.3667 0.0
H1833 H 0.85884 0.13999 0.37683 0.0
H1834 H 0.90396 0.11799 0.37925 0.0
C1835 C 0.95057 0.11141 0.41201 0.0
C1836 C 0.92298 0.16714 0.39911 0.0
C1837 C 0.95357 0.10064 0.42102 0.0
C1838 C 0.84679 0.17146 0.36766 0.0
C1839 C 0.86501 0.15808 0.37338 0.0
C1840 C 0.90971 0.1319 0.38468 0.0
C1841 C 0.93011 0.12963 0.41019 0.0
C1842 C 0.92536 0.13982 0.40061 0.0
C1843 C 0.88984 0.16936 0.37538 0.0
C1844 C 0.90569 0.1592 0.38339 0.0
H1845 H 0.9015 0.13145 0.4319 0.0
H1846 H 0.89673 0.15091 0.4162 0.0
H1847 H 0.9213 0.10109 0.39427 0.0
H1848 H 0.88446 0.22534 0.36225 0.0
H1849 H 0.91619 0.20191 0.37223 0.0
C1850 C 0.11489 0.59591 0.61608 0.0
C1851 C 0.09005 0.60233 0.61218 0.0
C1852 C 0.12865 0.61451 0.62144 0.0
C1853 C 0.15547 0.65982 0.63202 0.0
H1854 H 0.1065 0.68002 0.65189 0.0
C1855 C 0.18554 0.70704 0.66808 0.0
C1856 C 0.17934 0.68921 0.67536 0.0
C1857 C 0.17517 0.70332 0.65904 0.0
C1858 C 0.12029 0.67502 0.6463 0.0
H1859 H 0.06122 0.63392 0.61013 0.0
H1860 H 0.08529 0.66628 0.6195 0.0
H1861 H 0.08929 0.66203 0.63718 0.0
H1862 H 0.15706 0.65419 0.67909 0.0
H1863 H 0.13818 0.64821 0.66335 0.0
H1864 H 0.18652 0.67166 0.64147 0.0
C1865 C 0.09406 0.6469 0.61842 0.0
C1866 C 0.11051 0.66489 0.63787 0.0
C1867 C 0.08038 0.62838 0.61301 0.0
C1868 C 0.16211 0.66813 0.67357 0.0
C1869 C 0.15126 0.6648 0.66462 0.0
C1870 C 0.16525 0.67038 0.64043 0.0
C1871 C 0.11767 0.63973 0.62304 0.0
C1872 C 0.12804 0.6562 0.6308 0.0
C1873 C 0.15795 0.68217 0.65728 0.0
C1874 C 0.14772 0.67701 0.64775 0.0
H1875 H 0.12292 0.57606 0.61545 0.0
H1876 H 0.14676 0.6084 0.62497 0.0
H1877 H 0.16935 0.65328 0.62667 0.0
H1878 H 0.19901 0.72334 0.6693 0.0
H1879 H 0.1806 0.71682 0.65343 0.0
C1880 C 0.58613 0.10503 0.62807 0.0
C1881 C 0.6062 0.10431 0.62119 0.0
C1882 C 0.59257 0.10948 0.63753 0.0
C1883 C 0.6481 0.10124 0.65385 0.0
H1884 H 0.61877 0.15997 0.66803 0.0
C1885 C 0.70791 0.16381 0.67866 0.0
C1886 C 0.69576 0.17753 0.68612 0.0
C1887 C 0.69332 0.14633 0.67315 0.0
C1888 C 0.62662 0.14292 0.66432 0.0
H1889 H 0.64843 0.10887 0.61871 0.0
H1890 H 0.65955 0.11659 0.63515 0.0
H1891 H 0.59876 0.14764 0.653 0.0
H1892 H 0.65962 0.18103 0.69437 0.0
H1893 H 0.63387 0.15091 0.68451 0.0
H1894 H 0.67681 0.09733 0.66489 0.0
C1895 C 0.63896 0.11336 0.63326 0.0
C1896 C 0.61523 0.13601 0.65569 0.0
C1897 C 0.63254 0.10928 0.62384 0.0
C1898 C 0.66937 0.17133 0.6885 0.0
C1899 C 0.65465 0.15401 0.68291 0.0
C1900 C 0.65936 0.10801 0.66248 0.0
C1901 C 0.61917 0.11284 0.64021 0.0
C1902 C 0.62681 0.11605 0.65018 0.0
C1903 C 0.6662 0.14228 0.67493 0.0
C1904 C 0.64964 0.12986 0.66755 0.0
H1905 H 0.56564 0.1012 0.62621 0.0
H1906 H 0.57697 0.1093 0.64279 0.0
H1907 H 0.65699 0.08537 0.64978 0.0
H1908 H 0.72804 0.16818 0.67652 0.0
H1909 H 0.70278 0.13785 0.66699 0.0
C1910 C 0.14674 0.33203 0.87146 0.0
C1911 C 0.17234 0.3427 0.87181 0.0
C1912 C 0.12746 0.34072 0.87786 0.0
C1913 C 0.11752 0.38268 0.89911 0.0
H1914 H 0.05971 0.41391 0.88472 0.0
C1915 C 0.07107 0.47957 0.91016 0.0
C1916 C 0.04406 0.47788 0.9125 0.0
C1917 C 0.08306 0.45969 0.90484 0.0
C1918 C 0.07556 0.40503 0.88883 0.0
H1919 H 0.19897 0.36866 0.8793 0.0
H1920 H 0.16588 0.38337 0.89057 0.0
H1921 H 0.08742 0.37943 0.87758 0.0
H1922 H 1.00781 0.45555 0.91019 0.0
H1923 H 0.02878 0.42143 0.90057 0.0
H1924 H 0.10677 0.40959 0.9101 0.0
C1925 C 0.16033 0.36837 0.8855 0.0
C1926 C 0.0912 0.38511 0.88481 0.0
C1927 C 0.17931 0.36005 0.87905 0.0
C1928 C 0.02864 0.45761 0.90847 0.0
C1929 C 0.04062 0.43789 0.90304 0.0
C1930 C 0.10215 0.40275 0.90306 0.0
C1931 C 0.1339 0.35984 0.88468 0.0
C1932 C 0.11304 0.3746 0.88979 0.0
C1933 C 0.06812 0.43811 0.90165 0.0
C1934 C 0.0818 0.41476 0.8978 0.0
H1935 H 0.14106 0.31886 0.86579 0.0
H1936 H 0.10725 0.33381 0.8771 0.0
H1937 H 0.13397 0.37464 0.90314 0.0
H1938 H 0.08332 0.4952 0.91302 0.0
H1939 H 0.10429 0.46042 0.90364 0.0
C1940 C 0.89595 0.93706 0.12422 0.0
C1941 C 0.91773 0.92941 0.11873 0.0
C1942 C 0.88195 0.91826 0.12932 0.0
C1943 C 0.87944 0.85125 0.13859 0.0
H1944 H 0.80472 0.85807 0.13215 0.0
C1945 C 0.80255 0.78483 0.15604 0.0
C1946 C 0.78283 0.79985 0.16061 0.0
C1947 C 0.81797 0.7962 0.14896 0.0
C1948 C 0.8255 0.85583 0.13398 0.0
H1949 H 0.94361 0.89696 0.11478 0.0
H1950 H 0.91902 0.8637 0.12387 0.0
H1951 H 0.83696 0.88782 0.12503 0.0
H1952 H 0.7618 0.8373 0.16074 0.0
H1953 H 0.78862 0.85721 0.14838 0.0
H1954 H 0.86782 0.81995 0.14785 0.0
C1955 C 0.9129 0.88425 0.12423 0.0
C1956 C 0.84391 0.87289 0.12995 0.0
C1957 C 0.92709 0.90324 0.11914 0.0
C1958 C 0.77695 0.8254 0.15733 0.0
C1959 C 0.79228 0.83672 0.15024 0.0
C1960 C 0.86094 0.8342 0.14267 0.0
C1961 C 0.88939 0.89149 0.12892 0.0
C1962 C 0.87086 0.87132 0.13247 0.0
C1963 C 0.81379 0.82267 0.14633 0.0
C1964 C 0.83369 0.83691 0.14062 0.0
H1965 H 0.88842 0.95719 0.12393 0.0
H1966 H 0.86422 0.92437 0.13307 0.0
H1967 H 0.90015 0.84961 0.14057 0.0
H1968 H 0.80766 0.76513 0.15848 0.0
H1969 H 0.83418 0.78483 0.14597 0.0
C1970 C 0.45124 0.52022 0.40844 0.0
C1971 C 0.47796 0.52444 0.41079 0.0
C1972 C 0.43927 0.53516 0.40132 0.0
C1973 C 0.44663 0.60209 0.39253 0.0
H1974 H 0.38524 0.58409 0.37742 0.0
C1975 C 0.38465 0.67492 0.36934 0.0
C1976 C 0.35736 0.66979 0.36904 0.0
C1977 C 0.40139 0.65859 0.37467 0.0
C1978 C 0.40225 0.58939 0.38169 0.0
H1979 H 0.51406 0.54472 0.40665 0.0
H1980 H 0.49333 0.57006 0.39406 0.0
H1981 H 0.41248 0.54884 0.38416 0.0
H1982 H 0.32549 0.64588 0.37459 0.0
H1983 H 0.35447 0.61805 0.38422 0.0
H1984 H 0.43606 0.6427 0.39014 0.0
C1985 C 0.48145 0.55587 0.3979 0.0
C1986 C 0.41792 0.56923 0.38547 0.0
C1987 C 0.49339 0.54101 0.40503 0.0
C1988 C 0.34654 0.65022 0.37485 0.0
C1989 C 0.36314 0.63409 0.38021 0.0
C1990 C 0.43097 0.62229 0.38871 0.0
C1991 C 0.45395 0.55436 0.39643 0.0
C1992 C 0.43994 0.57535 0.39109 0.0
C1993 C 0.39079 0.63711 0.3797 0.0
C1994 C 0.40828 0.61608 0.38346 0.0
H1995 H 0.43901 0.50727 0.41268 0.0
H1996 H 0.41804 0.53341 0.40032 0.0
H1997 H 0.46323 0.60746 0.39698 0.0
H1998 H 0.39331 0.68961 0.36471 0.0
H1999 H 0.42266 0.66134 0.3742 0.0
C2000 C 0.34673 0.17384 0.18263 0.0
C2001 C 0.35419 0.19772 0.1869 0.0
C2002 C 0.36518 0.15901 0.17754 0.0
C2003 C 0.42441 0.17206 0.1635 0.0
H2004 H 0.41423 0.09839 0.15688 0.0
C2005 C 0.46492 0.1194 0.1295 0.0
C2006 C 0.44308 0.11193 0.12395 0.0
C2007 C 0.46114 0.12752 0.13884 0.0
C2008 C 0.41768 0.11886 0.15878 0.0
H2009 H 0.38757 0.22337 0.18999 0.0
H2010 H 0.41995 0.19695 0.18138 0.0
H2011 H 0.39609 0.11524 0.17167 0.0
H2012 H 0.40032 0.10697 0.12374 0.0
H2013 H 0.39387 0.12063 0.14004 0.0
H2014 H 0.44528 0.17564 0.1504 0.0
C2015 C 0.39965 0.19008 0.18174 0.0
C2016 C 0.40717 0.12857 0.16719 0.0
C2017 C 0.3811 0.20507 0.18677 0.0
C2018 C 0.41748 0.11284 0.12783 0.0
C2019 C 0.41381 0.12034 0.13717 0.0
C2020 C 0.4353 0.16219 0.15516 0.0
C2021 C 0.39161 0.16759 0.17668 0.0
C2022 C 0.40908 0.15563 0.16938 0.0
C2023 C 0.43558 0.12752 0.14276 0.0
C2024 C 0.43081 0.13589 0.15254 0.0
H2025 H 0.32626 0.16736 0.18278 0.0
H2026 H 0.35811 0.1419 0.17372 0.0
H2027 H 0.42616 0.19304 0.16489 0.0
H2028 H 0.48486 0.11875 0.12665 0.0
H2029 H 0.47811 0.13327 0.14305 0.0
C2030 C 0.61922 0.61589 0.94034 0.0
C2031 C 0.61317 0.58992 0.93749 0.0
C2032 C 0.63765 0.63088 0.9353 0.0
C2033 C 0.68523 0.62842 0.91519 0.0
H2034 H 0.6427 0.68684 0.90565 0.0
C2035 C 0.67893 0.65225 0.8764 0.0
C2036 C 0.67886 0.67859 0.87327 0.0
C2037 C 0.67821 0.64652 0.88599 0.0
C2038 C 0.65526 0.67111 0.90836 0.0
H2039 H 0.62427 0.55834 0.92788 0.0
H2040 H 0.65643 0.58408 0.9193 0.0
H2041 H 0.63163 0.6669 0.92074 0.0
H2042 H 0.67726 0.71966 0.87769 0.0
H2043 H 0.67518 0.70948 0.89457 0.0
H2044 H 0.70758 0.63145 0.90241 0.0
C2045 C 0.64696 0.59306 0.92536 0.0
C2046 C 0.64902 0.65972 0.91704 0.0
C2047 C 0.62838 0.5782 0.93031 0.0
C2048 C 0.67716 0.69915 0.87991 0.0
C2049 C 0.6762 0.69337 0.88955 0.0
C2050 C 0.69144 0.63979 0.90651 0.0
C2051 C 0.65057 0.61999 0.92744 0.0
C2052 C 0.66295 0.63724 0.92025 0.0
C2053 C 0.67721 0.66698 0.89267 0.0
C2054 C 0.6755 0.66018 0.90278 0.0
H2055 H 0.60838 0.62525 0.94603 0.0
H2056 H 0.6404 0.65148 0.93714 0.0
H2057 H 0.69656 0.61141 0.91758 0.0
H2058 H 0.68031 0.63596 0.87147 0.0
H2059 H 0.67825 0.62597 0.88817 0.0
C2060 C 0.25644 0.81995 0.65535 0.0
C2061 C 0.25252 0.79421 0.65876 0.0
C2062 C 0.23964 0.83029 0.64844 0.0
C2063 C 0.17018 0.82337 0.64221 0.0
H2064 H 0.18683 0.88077 0.62512 0.0
C2065 C 0.09638 0.89203 0.62097 0.0
C2066 C 0.10369 0.91877 0.62137 0.0
C2067 C 0.11219 0.87288 0.62543 0.0
C2068 C 0.18193 0.8647 0.62987 0.0
H2069 H 0.23003 0.75803 0.65688 0.0
H2070 H 0.2011 0.77596 0.64467 0.0
H2071 H 0.22245 0.85231 0.63096 0.0
H2072 H 0.13086 0.94709 0.62743 0.0
H2073 H 0.15793 0.91384 0.63543 0.0
H2074 H 0.12959 0.83637 0.64121 0.0
C2075 C 0.21678 0.7883 0.64746 0.0
C2076 C 0.20227 0.8484 0.63317 0.0
C2077 C 0.23362 0.77795 0.65436 0.0
C2078 C 0.12488 0.92652 0.62711 0.0
C2079 C 0.14051 0.90753 0.63156 0.0
C2080 C 0.14974 0.83961 0.63883 0.0
C2081 C 0.21867 0.81502 0.64484 0.0
C2082 C 0.19676 0.82821 0.63966 0.0
C2083 C 0.13524 0.88055 0.63027 0.0
C2084 C 0.1557 0.86101 0.63293 0.0
H2085 H 0.27098 0.83279 0.6586 0.0
H2086 H 0.24164 0.85098 0.64659 0.0
H2087 H 0.16531 0.80813 0.64729 0.0
H2088 H 0.08035 0.88572 0.61641 0.0
H2089 H 0.10776 0.85212 0.62439 0.0
C2090 C 0.95286 0.39998 0.43475 0.0
C2091 C 0.94236 0.42572 0.43558 0.0
C2092 C 0.94006 0.38118 0.42919 0.0
C2093 C 0.87975 0.36678 0.41519 0.0
H2094 H 0.93004 0.34893 0.39546 0.0
C2095 C 0.87469 0.36087 0.37358 0.0
C2096 C 0.8557 0.34131 0.37182 0.0
C2097 C 0.8863 0.36294 0.38247 0.0
C2098 C 0.91589 0.35328 0.401 0.0
H2099 H 0.90893 0.45108 0.43215 0.0
H2100 H 0.88656 0.41824 0.4224 0.0
H2101 H 0.94614 0.36673 0.41036 0.0
H2102 H 0.83427 0.30816 0.37779 0.0
H2103 H 0.85403 0.31248 0.39353 0.0
H2104 H 0.84942 0.3546 0.40554 0.0
C2105 C 0.90466 0.4126 0.42603 0.0
C2106 C 0.92505 0.36329 0.40954 0.0
C2107 C 0.91755 0.43148 0.43153 0.0
C2108 C 0.84898 0.32336 0.37899 0.0
C2109 C 0.86016 0.32583 0.38797 0.0
C2110 C 0.87061 0.35637 0.40667 0.0
C2111 C 0.91649 0.38775 0.42444 0.0
C2112 C 0.90699 0.37117 0.41656 0.0
C2113 C 0.87871 0.3458 0.38977 0.0
C2114 C 0.88858 0.35063 0.39939 0.0
H2115 H 0.97203 0.39497 0.43774 0.0
H2116 H 0.94948 0.3621 0.42811 0.0
H2117 H 0.86548 0.37268 0.42051 0.0
H2118 H 0.88022 0.37486 0.36814 0.0
H2119 H 0.90039 0.37868 0.38375 0.0
C2120 C 0.42339 0.92866 0.42141 0.0
C2121 C 0.43967 0.92025 0.4288 0.0
C2122 C 0.41335 0.91036 0.41505 0.0
C2123 C 0.39066 0.84292 0.41608 0.0
H2124 H 0.36759 0.85934 0.39065 0.0
C2125 C 0.31803 0.78341 0.39176 0.0
C2126 C 0.29876 0.79943 0.38731 0.0
C2127 C 0.33719 0.79472 0.39758 0.0
C2128 C 0.37396 0.85455 0.39776 0.0
H2129 H 0.45997 0.88696 0.4352 0.0
H2130 H 0.44234 0.85449 0.42399 0.0
H2131 H 0.40392 0.88432 0.39766 0.0
H2132 H 0.28223 0.83905 0.3865 0.0
H2133 H 0.31606 0.85887 0.39658 0.0
H2134 H 0.36026 0.81327 0.41613 0.0
C2135 C 0.4374 0.87522 0.42307 0.0
C2136 C 0.3948 0.86866 0.40173 0.0
C2137 C 0.44767 0.89372 0.4294 0.0
C2138 C 0.29713 0.82635 0.38969 0.0
C2139 C 0.31648 0.83768 0.39541 0.0
C2140 C 0.36999 0.82851 0.41204 0.0
C2141 C 0.41915 0.88327 0.41611 0.0
C2142 C 0.40258 0.8638 0.41107 0.0
C2143 C 0.33737 0.82214 0.39896 0.0
C2144 C 0.36084 0.83505 0.403 0.0
H2145 H 0.41676 0.94906 0.42098 0.0
H2146 H 0.39909 0.91722 0.40986 0.0
H2147 H 0.39603 0.83887 0.42334 0.0
H2148 H 0.31999 0.76262 0.39003 0.0
H2149 H 0.35312 0.78243 0.40032 0.0
C2150 C 0.84945 0.71501 0.17002 0.0
C2151 C 0.8567 0.69613 0.17686 0.0
C2152 C 0.85818 0.71233 0.16073 0.0
C2153 C 0.90993 0.68413 0.14624 0.0
H2154 H 0.85636 0.66823 0.12742 0.0
C2155 C 0.90704 0.60898 0.11518 0.0
C2156 C 0.93199 0.61418 0.11119 0.0
C2157 C 0.89441 0.62809 0.1207 0.0
C2158 C 0.87149 0.67319 0.13254 0.0
H2159 H 0.87918 0.66028 0.17954 0.0
H2160 H 0.89526 0.65609 0.16332 0.0
H2161 H 0.84285 0.68465 0.14298 0.0
H2162 H 0.96173 0.64451 0.1089 0.0
H2163 H 0.93957 0.67779 0.1185 0.0
H2164 H 0.93853 0.67145 0.13612 0.0
C2165 C 0.88264 0.67274 0.16515 0.0
C2166 C 0.8638 0.6826 0.1414 0.0
C2167 C 0.87341 0.67505 0.17437 0.0
C2168 C 0.94251 0.63985 0.11188 0.0
C2169 C 0.92992 0.65891 0.11742 0.0
C2170 C 0.91763 0.67517 0.13738 0.0
C2171 C 0.8748 0.69114 0.15825 0.0
C2172 C 0.88296 0.68703 0.14841 0.0
C2173 C 0.90663 0.65262 0.12234 0.0
C2174 C 0.89845 0.66856 0.13058 0.0
H2175 H 0.83631 0.73131 0.17177 0.0
H2176 H 0.85186 0.72664 0.15549 0.0
H2177 H 0.92496 0.6875 0.15157 0.0
H2178 H 0.89832 0.58949 0.11464 0.0
H2179 H 0.87646 0.62269 0.12442 0.0
C2180 C 0.1823 0.17015 0.86763 0.0
C2181 C 0.17617 0.19453 0.8634 0.0
C2182 C 0.16261 0.15561 0.87216 0.0
C2183 C 0.10208 0.16963 0.8852 0.0
H2184 H 0.10906 0.09489 0.89092 0.0
C2185 C 0.06143 0.11648 0.91907 0.0
C2186 C 0.08376 0.10855 0.92433 0.0
C2187 C 0.06436 0.12452 0.90967 0.0
C2188 C 0.10636 0.11566 0.88924 0.0
H2189 H 0.14408 0.22164 0.85984 0.0
H2190 H 0.1096 0.19587 0.86755 0.0
H2191 H 0.1289 0.11247 0.87653 0.0
H2192 H 0.12644 0.10249 0.92394 0.0
H2193 H 0.13134 0.11595 0.90759 0.0
H2194 H 0.0807 0.17285 0.89821 0.0
C2195 C 0.12974 0.18826 0.86753 0.0
C2196 C 0.11787 0.12578 0.88107 0.0
C2197 C 0.14949 0.20289 0.86304 0.0
C2198 C 0.1089 0.10872 0.92009 0.0
C2199 C 0.1117 0.1161 0.91071 0.0
C2200 C 0.09026 0.1594 0.89332 0.0
C2201 C 0.13629 0.16506 0.87251 0.0
C2202 C 0.11731 0.15314 0.87927 0.0
C2203 C 0.0895 0.12391 0.90541 0.0
C2204 C 0.09368 0.13266 0.89564 0.0
H2205 H 0.2026 0.16299 0.86788 0.0
H2206 H 0.16852 0.13796 0.87597 0.0
H2207 H 0.10132 0.19082 0.88409 0.0
H2208 H 0.04182 0.11641 0.9222 0.0
H2209 H 0.04707 0.13081 0.90569 0.0
C2210 C 0.61096 0.41272 0.61055 0.0
C2211 C 0.60517 0.4385 0.61375 0.0
C2212 C 0.6278 0.3961 0.61573 0.0
C2213 C 0.67421 0.39432 0.6361 0.0
H2214 H 0.6329 0.33375 0.64419 0.0
C2215 C 0.66518 0.36405 0.6739 0.0
C2216 C 0.67683 0.33988 0.67652 0.0
C2217 C 0.66071 0.36988 0.66445 0.0
C2218 C 0.64505 0.3501 0.64183 0.0
H2219 H 0.61468 0.46766 0.62447 0.0
H2220 H 0.64433 0.4392 0.63324 0.0
H2221 H 0.62086 0.35706 0.62967 0.0
H2222 H 0.69111 0.30195 0.67139 0.0
H2223 H 0.68251 0.3121 0.65469 0.0
H2224 H 0.6968 0.38877 0.64875 0.0
C2225 C 0.63583 0.43169 0.62676 0.0
C2226 C 0.63828 0.36341 0.63352 0.0
C2227 C 0.61876 0.44812 0.62169 0.0
C2228 C 0.68207 0.32072 0.66955 0.0
C2229 C 0.67734 0.32654 0.66003 0.0
C2230 C 0.68087 0.38111 0.64441 0.0
C2231 C 0.63956 0.40516 0.62409 0.0
C2232 C 0.65189 0.38653 0.63088 0.0
C2233 C 0.66754 0.35153 0.65745 0.0
C2234 C 0.66549 0.35978 0.64754 0.0
H2235 H 0.60139 0.40488 0.60432 0.0
H2236 H 0.6306 0.37582 0.61346 0.0
H2237 H 0.68523 0.41186 0.63416 0.0
H2238 H 0.66076 0.37914 0.67911 0.0
H2239 H 0.65274 0.38912 0.66257 0.0
C2240 C 0.10759 0.21062 0.34334 0.0
C2241 C 0.13077 0.22695 0.34354 0.0
C2242 C 0.08047 0.22049 0.34327 0.0
C2243 C 0.03504 0.28603 0.34328 0.0
H2244 H 0.97683 0.23647 0.34326 0.0
C2245 C 0.92012 0.32706 0.34303 0.0
C2246 C 0.89676 0.31098 0.34302 0.0
C2247 C 0.94713 0.31696 0.34306 0.0
C2248 C 0.99227 0.25125 0.34326 0.0
H2249 H 0.13999 0.26874 0.34396 0.0
H2250 H 0.09396 0.28574 0.34378 0.0
H2251 H 0.02261 0.2206 0.34337 0.0
H2252 H 0.88712 0.26925 0.34315 0.0
H2253 H 0.93307 0.25183 0.34317 0.0
H2254 H 1.00477 0.31669 0.34317 0.0
C2255 C 0.09663 0.26451 0.34363 0.0
C2256 C 0.01971 0.24179 0.34332 0.0
C2257 C 0.12401 0.25451 0.34371 0.0
C2258 C 0.90325 0.28333 0.34307 0.0
C2259 C 0.93057 0.27309 0.34311 0.0
C2260 C 1.00763 0.29549 0.34321 0.0
C2261 C 0.07333 0.24797 0.34341 0.0
C2262 C 0.04267 0.25864 0.34334 0.0
C2263 C 0.95403 0.28944 0.34312 0.0
C2264 C 0.98466 0.27866 0.34319 0.0
H2265 H 0.11033 0.18936 0.34328 0.0
H2266 H 0.06491 0.20587 0.34311 0.0
H2267 H 0.05046 0.30084 0.34328 0.0
H2268 H 0.91764 0.34835 0.34306 0.0
H2269 H 0.96279 0.33148 0.34307 0.0
C2270 C 0.95796 0.67088 0.59328 0.0
C2271 C 0.9742 0.64751 0.59367 0.0
C2272 C 0.96796 0.69781 0.59329 0.0
C2273 C 0.03351 0.74261 0.59501 0.0
H2274 H 0.9843 0.80088 0.59185 0.0
C2275 C 0.07393 0.8574 0.59604 0.0
C2276 C 0.05809 0.88061 0.59438 0.0
C2277 C 0.06401 0.83044 0.5959 0.0
C2278 C 0.999 0.78543 0.59276 0.0
H2279 H 1.01607 0.63784 0.59453 0.0
H2280 H 0.03328 0.68356 0.59455 0.0
H2281 H 0.96849 0.75536 0.59169 0.0
H2282 H 0.017 0.88997 0.59128 0.0
H2283 H 0.99996 0.8442 0.591 0.0
H2284 H 0.06404 0.77268 0.59604 0.0
C2285 C 1.01199 0.68115 0.59417 0.0
C2286 C 0.98955 0.75813 0.59269 0.0
C2287 C 1.00187 0.65395 0.59413 0.0
C2288 C 0.0309 0.87399 0.59259 0.0
C2289 C 0.02086 0.84676 0.59245 0.0
C2290 C 0.04296 0.76991 0.59509 0.0
C2291 C 0.99551 0.70462 0.59375 0.0
C2292 C 1.00625 0.73513 0.59381 0.0
C2293 C 0.03694 0.82344 0.59409 0.0
C2294 C 0.02625 0.79291 0.59398 0.0
H2295 H 0.93663 0.66845 0.59298 0.0
H2296 H 0.95335 0.71351 0.593 0.0
H2297 H 0.0482 0.72715 0.59594 0.0
H2298 H 0.09483 0.85999 0.59755 0.0
H2299 H 0.07826 0.81488 0.59731 0.0
C2300 C 0.39921 0.78631 0.84073 0.0
C2301 C 0.39311 0.81365 0.84239 0.0
C2302 C 0.4263 0.77547 0.84074 0.0
C2303 C 0.50369 0.79556 0.84252 0.0
H2304 H 0.5167 0.72027 0.84248 0.0
C2305 C 0.6189 0.75067 0.84167 0.0
C2306 C 0.62483 0.72331 0.8434 0.0
C2307 C 0.59183 0.76155 0.84144 0.0
C2308 C 0.51433 0.74153 0.84253 0.0
H2309 H 0.41446 0.84975 0.84545 0.0
H2310 H 0.45939 0.83185 0.84542 0.0
H2311 H 0.4713 0.73739 0.84234 0.0
H2312 H 0.6032 0.68725 0.84627 0.0
H2313 H 0.55835 0.70523 0.84583 0.0
H2314 H 0.54673 0.79969 0.84271 0.0
C2315 C 0.44349 0.81812 0.84401 0.0
C2316 C 0.48716 0.75174 0.84239 0.0
C2317 C 0.41666 0.8288 0.84404 0.0
C2318 C 0.60114 0.70821 0.84484 0.0
C2319 C 0.57435 0.71893 0.84456 0.0
C2320 C 0.53087 0.78535 0.84261 0.0
C2321 C 0.44994 0.79088 0.84237 0.0
C2322 C 0.48028 0.77933 0.84241 0.0
C2323 C 0.56806 0.74618 0.84286 0.0
C2324 C 0.53773 0.75776 0.84265 0.0
H2325 H 0.38292 0.7729 0.83945 0.0
H2326 H 0.42851 0.75453 0.83939 0.0
H2327 H 0.50131 0.81682 0.84248 0.0
H2328 H 0.6353 0.76405 0.84052 0.0
H2329 H 0.58974 0.78251 0.84006 0.0
C2330 C 0.46501 0.17966 0.09439 0.0
C2331 C 0.48102 0.15612 0.09462 0.0
C2332 C 0.47532 0.20648 0.09421 0.0
C2333 C 0.54161 0.25042 0.09484 0.0
H2334 H 0.49287 0.30936 0.09243 0.0
C2335 C 0.5838 0.36449 0.09517 0.0
C2336 C 0.56821 0.38795 0.09367 0.0
C2337 C 0.57344 0.33771 0.0952 0.0
C2338 C 0.50745 0.2937 0.09311 0.0
H2339 H 0.52284 0.14597 0.09494 0.0
H2340 H 0.54056 0.19147 0.09461 0.0
H2341 H 0.4764 0.26406 0.0926 0.0
H2342 H 0.52701 0.39796 0.09104 0.0
H2343 H 0.50918 0.35246 0.09107 0.0
H2344 H 0.57267 0.28003 0.09531 0.0
C2345 C 0.51922 0.18931 0.09453 0.0
C2346 C 0.49761 0.26654 0.09324 0.0
C2347 C 0.50879 0.16224 0.0947 0.0
C2348 C 0.54076 0.38177 0.09221 0.0
C2349 C 0.53025 0.3547 0.09226 0.0
C2350 C 0.55144 0.27757 0.09472 0.0
C2351 C 0.50299 0.21296 0.09428 0.0
C2352 C 0.51413 0.24332 0.09411 0.0
C2353 C 0.5461 0.33115 0.09376 0.0
C2354 C 0.53494 0.30079 0.09386 0.0
H2355 H 0.44364 0.17747 0.09438 0.0
H2356 H 0.46088 0.22234 0.09407 0.0
H2357 H 0.55619 0.23477 0.09554 0.0
H2358 H 0.60488 0.36673 0.0964 0.0
H2359 H 0.58756 0.32194 0.09646 0.0
C2360 C 0.90894 0.75457 0.20777 0.0
C2361 C 0.90264 0.72736 0.20608 0.0
C2362 C 0.93614 0.76491 0.20778 0.0
C2363 C 1.01326 0.74334 0.20527 0.0
H2364 H 0.0273 0.81809 0.20718 0.0
C2365 C 0.12908 0.78503 0.20566 0.0
C2366 C 0.13533 0.81264 0.2053 0.0
C2367 C 0.10188 0.7748 0.20581 0.0
C2368 C 0.02465 0.79695 0.20659 0.0
H2369 H 0.92371 0.69092 0.20298 0.0
H2370 H 0.96865 0.70796 0.203 0.0
H2371 H 0.98174 0.80199 0.20732 0.0
H2372 H 0.11417 0.85002 0.20474 0.0
H2373 H 0.06906 0.83314 0.20503 0.0
H2374 H 0.05615 0.73829 0.20453 0.0
C2375 C 0.95294 0.722 0.20443 0.0
C2376 C 0.99736 0.78735 0.20672 0.0
C2377 C 0.92606 0.71182 0.20441 0.0
C2378 C 0.11184 0.82876 0.20509 0.0
C2379 C 0.0849 0.81867 0.20527 0.0
C2380 C 0.04054 0.75293 0.20517 0.0
C2381 C 0.95964 0.74908 0.2061 0.0
C2382 C 0.9901 0.75999 0.20604 0.0
C2383 C 0.07828 0.79115 0.20564 0.0
C2384 C 0.0478 0.78029 0.20581 0.0
H2385 H 0.89277 0.76825 0.20908 0.0
H2386 H 0.93853 0.7858 0.20915 0.0
H2387 H 1.01065 0.72219 0.20476 0.0
H2388 H 0.14533 0.77094 0.20579 0.0
H2389 H 0.09958 0.75356 0.2061 0.0
C2390 C 0.50278 0.87798 0.45571 0.0
C2391 C 0.47517 0.88473 0.45631 0.0
C2392 C 0.51283 0.85068 0.4557 0.0
C2393 C 0.49038 0.77414 0.45777 0.0
H2394 H 0.56448 0.75869 0.4536 0.0
C2395 C 0.53193 0.65806 0.4583 0.0
C2396 C 0.55872 0.6511 0.45593 0.0
C2397 C 0.52187 0.68537 0.45841 0.0
C2398 C 0.5435 0.76172 0.45478 0.0
H2399 H 0.43755 0.86433 0.45725 0.0
H2400 H 0.45416 0.81906 0.45729 0.0
H2401 H 0.54868 0.80435 0.45361 0.0
H2402 H 0.59472 0.67115 0.45171 0.0
H2403 H 0.57813 0.71637 0.45189 0.0
H2404 H 0.48521 0.7315 0.45894 0.0
C2405 C 0.46879 0.83458 0.45688 0.0
C2406 C 0.53409 0.78909 0.45482 0.0
C2407 C 0.45886 0.86161 0.45686 0.0
C2408 C 0.57415 0.67403 0.45367 0.0
C2409 C 0.56423 0.70105 0.45379 0.0
C2410 C 0.4998 0.74677 0.45776 0.0
C2411 C 0.4963 0.82746 0.4563 0.0
C2412 C 0.50698 0.79688 0.4563 0.0
C2413 C 0.53757 0.70839 0.45617 0.0
C2414 C 0.5269 0.73898 0.45624 0.0
H2415 H 0.51699 0.89391 0.45516 0.0
H2416 H 0.53409 0.84801 0.45522 0.0
H2417 H 0.46944 0.7772 0.45902 0.0
H2418 H 0.51837 0.64229 0.4601 0.0
H2419 H 0.5013 0.68823 0.46033 0.0
C2420 C 0.60812 0.32129 0.70647 0.0
C2421 C 0.63184 0.30546 0.70632 0.0
C2422 C 0.58123 0.31091 0.70658 0.0
C2423 C 0.53721 0.24464 0.70618 0.0
H2424 H 0.47789 0.29331 0.70745 0.0
C2425 C 0.4226 0.20227 0.706 0.0
C2426 C 0.39896 0.21809 0.70674 0.0
C2427 C 0.44951 0.21259 0.706 0.0
C2428 C 0.49364 0.27874 0.70709 0.0
H2429 H 0.64212 0.26379 0.70605 0.0
H2430 H 0.59651 0.24596 0.70627 0.0
H2431 H 0.5233 0.30979 0.70738 0.0
H2432 H 0.38883 0.25963 0.70801 0.0
H2433 H 0.43447 0.27735 0.70803 0.0
H2434 H 0.50753 0.21359 0.7059 0.0
C2435 C 0.5986 0.26724 0.70634 0.0
C2436 C 0.52089 0.28859 0.70704 0.0
C2437 C 0.62576 0.27775 0.70625 0.0
C2438 C 0.40514 0.2457 0.70746 0.0
C2439 C 0.43231 0.25614 0.70745 0.0
C2440 C 0.50995 0.2348 0.70622 0.0
C2441 C 0.57478 0.28331 0.70651 0.0
C2442 C 0.54429 0.27212 0.70658 0.0
C2443 C 0.45606 0.2401 0.70672 0.0
C2444 C 0.48656 0.25126 0.70668 0.0
H2445 H 0.61021 0.34261 0.70647 0.0
H2446 H 0.56528 0.32526 0.70667 0.0
H2447 H 0.55296 0.23008 0.70581 0.0
H2448 H 0.4204 0.18104 0.70538 0.0
H2449 H 0.46541 0.19828 0.70538 0.0
C2450 C 0.02111 0.15917 0.95507 0.0
C2451 C 0.04894 0.15322 0.95462 0.0
C2452 C 1.01034 0.18621 0.95541 0.0
C2453 C 0.03132 0.26332 0.95668 0.0
H2454 H 0.95617 0.27719 0.95474 0.0
C2455 C 0.98773 0.37847 0.95851 0.0
C2456 C 0.96036 0.38495 0.95693 0.0
C2457 C 0.99828 0.35135 0.95831 0.0
C2458 C 0.97741 0.27459 0.95529 0.0
H2459 H 0.08599 0.17477 0.95413 0.0
H2460 H 0.06823 0.21948 0.95474 0.0
H2461 H 0.97293 0.23183 0.95426 0.0
H2462 H 0.92386 0.36431 0.95375 0.0
H2463 H 0.94128 0.31935 0.95344 0.0
H2464 H 0.03583 0.30604 0.95771 0.0
C2465 C 0.054 0.20356 0.95491 0.0
C2466 C 0.98739 0.24742 0.95504 0.0
C2467 C 0.06462 0.17683 0.95453 0.0
C2468 C 0.94486 0.36177 0.95512 0.0
C2469 C 0.95528 0.33492 0.95494 0.0
C2470 C 0.02134 0.29048 0.95696 0.0
C2471 C 0.0263 0.2099 0.95535 0.0
C2472 C 1.01493 0.24023 0.9557 0.0
C2473 C 0.98255 0.32806 0.95652 0.0
C2474 C 0.99382 0.29769 0.95627 0.0
H2475 H 1.00729 0.14284 0.95509 0.0
H2476 H 0.98899 0.18831 0.95572 0.0
H2477 H 0.05254 0.26073 0.95731 0.0
H2478 H 1.00138 0.39447 0.9599 0.0
H2479 H 0.01929 0.34887 0.95963 0.0
C2480 C 0.12678 0.75182 0.70697 0.0
C2481 C 0.1333 0.72504 0.70456 0.0
C2482 C 0.09949 0.76212 0.70728 0.0
C2483 C 0.0226 0.74114 0.7041 0.0
H2484 H 1.00771 0.81493 0.7087 0.0
C2485 C 0.90642 0.78205 0.70556 0.0
C2486 C 0.89969 0.80945 0.70661 0.0
C2487 C 0.93376 0.77204 0.70535 0.0
C2488 C 1.0106 0.79408 0.70736 0.0
H2489 H 0.11255 0.68932 0.70054 0.0
H2490 H 0.06747 0.70629 0.70105 0.0
H2491 H 0.05346 0.79895 0.70831 0.0
H2492 H 0.92009 0.84683 0.70811 0.0
H2493 H 0.96555 0.83026 0.70781 0.0
H2494 H 0.97981 0.73624 0.70314 0.0
C2495 C 0.08306 0.72002 0.70281 0.0
C2496 C 0.038 0.78453 0.70716 0.0
C2497 C 0.11003 0.70988 0.7025 0.0
C2498 C 0.92284 0.82567 0.70738 0.0
C2499 C 0.94996 0.81577 0.70719 0.0
C2500 C 0.99523 0.75067 0.70432 0.0
C2501 C 0.07613 0.74667 0.70522 0.0
C2502 C 0.04556 0.75752 0.7055 0.0
C2503 C 0.95705 0.78842 0.70617 0.0
C2504 C 0.98766 0.77768 0.70595 0.0
H2505 H 0.14283 0.76517 0.70865 0.0
H2506 H 0.09692 0.78266 0.70921 0.0
H2507 H 0.02544 0.72026 0.70283 0.0
H2508 H 0.89043 0.76796 0.70483 0.0
H2509 H 0.9364 0.75093 0.70453 0.0
C2510 C 0.99587 0.15759 0.45838 0.0
C2511 C 0.96859 0.15135 0.45657 0.0
C2512 C 1.00642 0.18466 0.45832 0.0
C2513 C 0.98572 0.26168 0.45482 0.0
H2514 H 0.06019 0.27544 0.45862 0.0
C2515 C 0.02836 0.37707 0.4548 0.0
C2516 C 0.05606 0.38323 0.45548 0.0
C2517 C 0.0179 0.35 0.45496 0.0
C2518 C 0.03915 0.27289 0.4575 0.0
H2519 H 0.93232 0.1725 0.45316 0.0
H2520 H 0.94971 0.21724 0.45306 0.0
H2521 H 0.04369 0.23014 0.45883 0.0
H2522 H 0.09329 0.36196 0.45682 0.0
H2523 H 0.076 0.31709 0.45714 0.0
H2524 H 0.98117 0.30441 0.45348 0.0
C2525 C 0.96366 0.20154 0.45462 0.0
C2526 C 0.02929 0.24573 0.45764 0.0
C2527 C 0.95325 0.17477 0.45469 0.0
C2528 C 0.07197 0.35973 0.45632 0.0
C2529 C 0.06163 0.33292 0.45651 0.0
C2530 C 0.99557 0.28884 0.45469 0.0
C2531 C 0.99081 0.20817 0.45643 0.0
C2532 C 1.002 0.23853 0.45631 0.0
C2533 C 0.03403 0.32639 0.45583 0.0
C2534 C 0.02287 0.29603 0.45601 0.0
H2535 H 1.00945 0.14145 0.45987 0.0
H2536 H 0.02734 0.18694 0.45979 0.0
H2537 H 0.96466 0.25916 0.45374 0.0
H2538 H 1.0144 0.39329 0.45407 0.0
H2539 H 0.99662 0.34782 0.45439 0.0
C2540 C 0.60385 0.21193 0.20596 0.0
C2541 C 0.62748 0.22766 0.20602 0.0
C2542 C 0.57696 0.22241 0.20615 0.0
C2543 C 0.53269 0.2888 0.2069 0.0
H2544 H 0.47369 0.24021 0.20637 0.0
C2545 C 0.41788 0.33134 0.20775 0.0
C2546 C 0.39439 0.31544 0.20744 0.0
C2547 C 0.44487 0.321 0.20759 0.0
C2548 C 0.48934 0.25475 0.20653 0.0
H2549 H 0.63764 0.26926 0.20625 0.0
H2550 H 0.59194 0.28731 0.20659 0.0
H2551 H 0.51916 0.22363 0.20611 0.0
H2552 H 0.38453 0.27385 0.20656 0.0
H2553 H 0.43027 0.2561 0.20631 0.0
H2554 H 0.50283 0.31992 0.20732 0.0
C2555 C 0.59414 0.26602 0.20644 0.0
C2556 C 0.51663 0.24486 0.20638 0.0
C2557 C 0.62133 0.25539 0.20626 0.0
C2558 C 0.40074 0.28779 0.20691 0.0
C2559 C 0.42797 0.27734 0.20674 0.0
C2560 C 0.50539 0.2987 0.20706 0.0
C2561 C 0.57042 0.25003 0.20638 0.0
C2562 C 0.53991 0.26129 0.20655 0.0
C2563 C 0.45158 0.29344 0.20708 0.0
C2564 C 0.48212 0.28225 0.20689 0.0
H2565 H 0.60604 0.19061 0.20574 0.0
H2566 H 0.56108 0.20813 0.20608 0.0
H2567 H 0.54836 0.30333 0.20706 0.0
H2568 H 0.4155 0.35262 0.2081 0.0
H2569 H 0.46068 0.33534 0.20788 0.0
C2570 C 0.58514 0.8626 0.95624 0.0
C2571 C 0.56949 0.886 0.95779 0.0
C2572 C 0.57484 0.83576 0.95615 0.0
C2573 C 0.50897 0.79138 0.95845 0.0
H2574 H 0.55748 0.73268 0.95508 0.0
C2575 C 0.46657 0.67709 0.95728 0.0
C2576 C 0.48256 0.65361 0.9565 0.0
C2577 C 0.47684 0.70395 0.95748 0.0
C2578 C 0.54296 0.74825 0.95605 0.0
H2579 H 0.52825 0.89576 0.96043 0.0
H2580 H 0.51058 0.85022 0.96032 0.0
H2581 H 0.57392 0.77798 0.95537 0.0
H2582 H 0.52427 0.64373 0.95517 0.0
H2583 H 0.5419 0.68925 0.95553 0.0
H2584 H 0.47801 0.76164 0.95915 0.0
C2585 C 0.53163 0.85253 0.95914 0.0
C2586 C 0.55278 0.77544 0.95621 0.0
C2587 C 0.54206 0.87965 0.95924 0.0
C2588 C 0.51024 0.6599 0.95587 0.0
C2589 C 0.52062 0.68701 0.95605 0.0
C2590 C 0.49915 0.7642 0.95828 0.0
C2591 C 0.54751 0.82903 0.95758 0.0
C2592 C 0.53637 0.79861 0.95742 0.0
C2593 C 0.50444 0.7106 0.95687 0.0
C2594 C 0.51556 0.74102 0.95707 0.0
H2595 H 0.6062 0.86496 0.955 0.0
H2596 H 0.589 0.82006 0.95486 0.0
H2597 H 0.49445 0.80697 0.95941 0.0
H2598 H 0.44525 0.6748 0.95773 0.0
H2599 H 0.46241 0.71975 0.95807 0.0
C2600 C 0.1123 0.32807 0.8436 0.0
C2601 C 0.13574 0.31186 0.84386 0.0
C2602 C 0.08527 0.3181 0.84359 0.0
C2603 C 0.04036 0.2527 0.84509 0.0
H2604 H 0.98181 0.30168 0.84195 0.0
C2605 C 0.92547 0.21218 0.84634 0.0
C2606 C 0.90205 0.22762 0.84448 0.0
C2607 C 0.95242 0.22223 0.84617 0.0
C2608 C 0.99735 0.28706 0.84285 0.0
H2609 H 0.14544 0.27009 0.84452 0.0
H2610 H 0.09957 0.25294 0.84448 0.0
H2611 H 0.0275 0.31753 0.84183 0.0
H2612 H 0.89241 0.26827 0.84096 0.0
H2613 H 0.93827 0.28559 0.84065 0.0
H2614 H 1.01026 0.22222 0.84607 0.0
C2615 C 0.10199 0.27418 0.84421 0.0
C2616 C 0.02473 0.29652 0.84281 0.0
C2617 C 0.12928 0.28427 0.84419 0.0
C2618 C 0.90852 0.25464 0.84244 0.0
C2619 C 0.9358 0.26485 0.84229 0.0
C2620 C 1.01299 0.24325 0.84515 0.0
C2621 C 0.07844 0.29062 0.8439 0.0
C2622 C 0.04783 0.27989 0.84393 0.0
C2623 C 0.95929 0.2491 0.84414 0.0
C2624 C 0.98989 0.25987 0.84404 0.0
H2625 H 0.11473 0.34934 0.84343 0.0
H2626 H 0.06952 0.33267 0.84341 0.0
H2627 H 0.05588 0.23808 0.84601 0.0
H2628 H 0.92306 0.19143 0.84802 0.0
H2629 H 0.96809 0.20824 0.84775 0.0
C2630 C 0.46215 0.35896 0.59394 0.0
C2631 C 0.478 0.3824 0.59348 0.0
C2632 C 0.47253 0.33213 0.59378 0.0
C2633 C 0.53882 0.28782 0.59258 0.0
H2634 H 0.48979 0.22928 0.59354 0.0
C2635 C 0.58086 0.17331 0.59232 0.0
C2636 C 0.56472 0.15003 0.59249 0.0
C2637 C 0.57066 0.20024 0.5924 0.0
C2638 C 0.50445 0.24481 0.59325 0.0
H2639 H 0.51968 0.39242 0.59257 0.0
H2640 H 0.53758 0.34679 0.59225 0.0
H2641 H 0.47341 0.27465 0.59371 0.0
H2642 H 0.52293 0.1404 0.59297 0.0
H2643 H 0.50537 0.18608 0.5931 0.0
H2644 H 0.56987 0.25792 0.59211 0.0
C2645 C 0.51627 0.34907 0.59272 0.0
C2646 C 0.49467 0.27203 0.59336 0.0
C2647 C 0.50574 0.37621 0.59287 0.0
C2648 C 0.53701 0.15648 0.59277 0.0
C2649 C 0.52669 0.18366 0.59287 0.0
C2650 C 0.54861 0.26058 0.59247 0.0
C2651 C 0.50015 0.32553 0.59317 0.0
C2652 C 0.51128 0.29511 0.59303 0.0
C2653 C 0.54302 0.20706 0.59268 0.0
C2654 C 0.53198 0.2375 0.5928 0.0
H2655 H 0.44082 0.36123 0.59448 0.0
H2656 H 0.45817 0.31637 0.59419 0.0
H2657 H 0.55346 0.30337 0.5923 0.0
H2658 H 0.60221 0.17079 0.59215 0.0
H2659 H 0.58516 0.21592 0.59226 0.0
C2660 C 0.62707 0.78158 0.3422 0.0
C2661 C 0.63278 0.80908 0.34362 0.0
C2662 C 0.60005 0.7707 0.34198 0.0
C2663 C 0.52216 0.79088 0.34281 0.0
H2664 H 0.50964 0.71565 0.34264 0.0
C2665 C 0.40706 0.74673 0.34122 0.0
C2666 C 0.40103 0.71921 0.34241 0.0
C2667 C 0.43413 0.7574 0.34129 0.0
C2668 C 0.51186 0.7369 0.34271 0.0
H2669 H 0.61067 0.84537 0.34594 0.0
H2670 H 0.566 0.82743 0.34552 0.0
H2671 H 0.55495 0.73265 0.34289 0.0
H2672 H 0.42261 0.6826 0.34472 0.0
H2673 H 0.46755 0.70025 0.3448 0.0
H2674 H 0.4791 0.79515 0.34263 0.0
C2675 C 0.58214 0.81357 0.3445 0.0
C2676 C 0.539 0.74705 0.34282 0.0
C2677 C 0.60886 0.82429 0.34476 0.0
C2678 C 0.42472 0.70372 0.34368 0.0
C2679 C 0.45156 0.71426 0.34372 0.0
C2680 C 0.49503 0.78074 0.34266 0.0
C2681 C 0.57606 0.78619 0.34311 0.0
C2682 C 0.54574 0.77464 0.3429 0.0
C2683 C 0.45792 0.74169 0.34253 0.0
C2684 C 0.48828 0.75316 0.34263 0.0
H2685 H 0.6436 0.76806 0.3413 0.0
H2686 H 0.59819 0.74963 0.34085 0.0
H2687 H 0.52436 0.81214 0.3428 0.0
H2688 H 0.3907 0.76042 0.34024 0.0
H2689 H 0.43619 0.77851 0.3403 0.0
C2690 C 0.94696 0.86446 0.09389 0.0
C2691 C 0.96263 0.88752 0.09205 0.0
C2692 C 0.95712 0.8375 0.09402 0.0
C2693 C 0.02265 0.79238 0.0916 0.0
H2694 H 0.97389 0.73426 0.09489 0.0
C2695 C 0.06491 0.67816 0.0935 0.0
C2696 C 0.04895 0.65476 0.09383 0.0
C2697 C 0.05458 0.70502 0.09321 0.0
C2698 C 0.98845 0.74968 0.09394 0.0
H2699 H 1.00366 0.89665 0.08896 0.0
H2700 H 0.02113 0.85088 0.08916 0.0
H2701 H 0.95757 0.77977 0.09451 0.0
H2702 H 1.00716 0.64493 0.09422 0.0
H2703 H 0.98936 0.69059 0.09373 0.0
H2704 H 0.05351 0.76231 0.09098 0.0
C2705 C 1.00018 0.85355 0.09054 0.0
C2706 C 0.97873 0.77696 0.09374 0.0
C2707 C 0.98989 0.88077 0.09039 0.0
C2708 C 0.02117 0.66107 0.09389 0.0
C2709 C 1.0107 0.68823 0.09364 0.0
C2710 C 0.03237 0.76511 0.09182 0.0
C2711 C 0.98428 0.83039 0.09236 0.0
C2712 C 0.99527 0.79989 0.09256 0.0
C2713 C 0.02692 0.71173 0.09328 0.0
C2714 C 1.01585 0.74218 0.09301 0.0
H2715 H 0.92601 0.86718 0.09531 0.0
H2716 H 0.943 0.82205 0.09554 0.0
H2717 H 0.03723 0.80778 0.09067 0.0
H2718 H 0.08629 0.67582 0.09348 0.0
H2719 H 0.06901 0.72076 0.09301 0.0
C2720 C 0.26117 0.24243 0.31379 0.0
C2721 C 0.23715 0.22927 0.31641 0.0
C2722 C 0.26687 0.25209 0.3043 0.0
C2723 C 0.23778 0.25816 0.27787 0.0
H2724 H 0.30411 0.29311 0.27259 0.0
C2725 C 0.26188 0.29986 0.23773 0.0
C2726 C 0.28626 0.31236 0.23512 0.0
C2727 C 0.25604 0.29018 0.24722 0.0
C2728 C 0.28522 0.28349 0.27362 0.0
H2729 H 0.20059 0.21696 0.30973 0.0
H2730 H 0.21002 0.23312 0.29377 0.0
H2731 H 0.29463 0.27685 0.2884 0.0
H2732 H 0.32322 0.32347 0.24178 0.0
H2733 H 0.31353 0.30739 0.2577 0.0
H2734 H 0.22839 0.2648 0.26309 0.0
C2735 C 0.22509 0.23632 0.29907 0.0
C2736 C 0.27953 0.27375 0.2831 0.0
C2737 C 0.21942 0.22668 0.30856 0.0
C2738 C 0.30413 0.3143 0.24295 0.0
C2739 C 0.2983 0.3047 0.25242 0.0
C2740 C 0.24347 0.2679 0.26839 0.0
C2741 C 0.24914 0.24963 0.2964 0.0
C2742 C 0.25549 0.26052 0.28578 0.0
C2743 C 0.27394 0.29202 0.2551 0.0
C2744 C 0.26752 0.28113 0.26572 0.0
H2745 H 0.27605 0.2455 0.31918 0.0
H2746 H 0.28574 0.26173 0.30326 0.0
H2747 H 0.21889 0.24855 0.27891 0.0
H2748 H 0.24686 0.29734 0.23235 0.0
H2749 H 0.23691 0.28106 0.24828 0.0
C2750 C 0.98671 0.02299 0.48784 0.0
C2751 C 0.96743 0.0432 0.48578 0.0
C2752 C 0.99659 0.0168 0.49729 0.0
C2753 C 0.98998 0.03523 0.52493 0.0
H2754 H 0.04544 0.9831 0.52831 0.0
C2755 C 0.03204 1.00813 0.56502 0.0
C2756 C 0.05298 0.98948 0.56689 0.0
C2757 C 0.02198 1.01451 0.55559 0.0
C2758 C 0.02991 0.99787 0.52783 0.0
H2759 H 0.94452 0.07227 0.49352 0.0
H2760 H 0.96091 0.06187 0.50942 0.0
H2761 H 0.02886 0.99349 0.51258 0.0
H2762 H 0.07866 0.96351 0.55885 0.0
H2763 H 0.06194 0.97411 0.54306 0.0
H2764 H 0.99106 0.0396 0.5402 0.0
C2765 C 0.96885 0.05028 0.50367 0.0
C2766 C 0.01994 1.00407 0.51839 0.0
C2767 C 0.95904 0.05653 0.4942 0.0
C2768 C 0.06277 0.97793 0.55832 0.0
C2769 C 0.05275 0.98428 0.54891 0.0
C2770 C 0.99994 0.029 0.53438 0.0
C2771 C 0.98825 0.03008 0.50577 0.0
C2772 C 0.99938 0.02313 0.51637 0.0
C2773 C 0.03174 1.00293 0.54697 0.0
C2774 C 0.02051 1.00995 0.53639 0.0
H2775 H 0.99458 1.01161 0.48201 0.0
H2776 H 1.01113 1.00109 0.49785 0.0
H2777 H 0.97441 0.04996 0.52443 0.0
H2778 H 0.02302 0.0181 0.57097 0.0
H2779 H 1.00609 0.0289 0.55516 0.0
C2780 C 0.30034 0.82028 0.80535 0.0
C2781 C 0.28629 0.81263 0.81369 0.0
C2782 C 0.29473 0.81001 0.79595 0.0
C2783 C 0.24748 0.76091 0.78118 0.0
H2784 H 0.28975 0.783 0.75992 0.0
C2785 C 0.22359 0.71791 0.74125 0.0
C2786 C 0.23863 0.72458 0.73302 0.0
C2787 C 0.22913 0.72809 0.75068 0.0
C2788 C 0.27724 0.77606 0.76558 0.0
H2789 H 0.25418 0.78637 0.81747 0.0
H2790 H 0.24461 0.76906 0.80168 0.0
H2791 H 0.29901 0.80016 0.77562 0.0
H2792 H 0.27244 0.74889 0.72947 0.0
H2793 H 0.28189 0.76602 0.74528 0.0
H2794 H 0.22572 0.73679 0.77114 0.0
C2795 C 0.2604 0.78336 0.80226 0.0
C2796 C 0.28278 0.78637 0.77499 0.0
C2797 C 0.26603 0.79364 0.81166 0.0
C2798 C 0.25978 0.74245 0.73518 0.0
C2799 C 0.26532 0.75265 0.7446 0.0
C2800 C 0.24193 0.75061 0.77177 0.0
C2801 C 0.27445 0.79094 0.79386 0.0
C2802 C 0.26822 0.77939 0.78333 0.0
C2803 C 0.25031 0.74608 0.75289 0.0
C2804 C 0.2565 0.75759 0.76343 0.0
H2805 H 0.31618 0.83455 0.80605 0.0
H2806 H 0.3068 0.81741 0.79024 0.0
H2807 H 0.23496 0.75401 0.78684 0.0
H2808 H 0.20704 0.70451 0.74044 0.0
H2809 H 0.21627 0.72155 0.7563 0.0
C2810 C 0.47909 0.06502 0.05906 0.0
C2811 C 0.48227 0.04803 0.06709 0.0
C2812 C 0.48878 0.0588 0.0496 0.0
C2813 C 0.53057 1.00573 0.03433 0.0
H2814 H 0.51237 0.05054 1.0132 0.0
C2815 C 0.57493 0.98131 0.99457 0.0
C2816 C 0.5669 0.99483 0.98613 0.0
C2817 C 0.565 0.98753 1.00399 0.0
C2818 C 0.51811 0.03724 1.01883 0.0
H2819 H 0.49971 1.00979 0.07021 0.0
H2820 H 0.51613 0.99924 0.05435 0.0
H2821 H 0.4958 0.0608 0.02896 0.0
H2822 H 0.54031 0.02682 0.98226 0.0
H2823 H 0.52361 0.03747 0.99808 0.0
H2824 H 0.55285 0.98216 1.0242 0.0
C2825 C 0.50597 0.01796 0.05523 0.0
C2826 C 0.50826 0.04344 0.02827 0.0
C2827 C 0.49615 0.02415 0.06468 0.0
C2828 C 0.54788 0.0153 0.98811 0.0
C2829 C 0.53799 0.0216 0.99754 0.0
C2830 C 0.5405 0.9996 1.0249 0.0
C2831 C 0.50286 0.03494 0.04715 0.0
C2832 C 0.5139 0.02803 0.03657 0.0
C2833 C 0.54595 1.00805 1.00603 0.0
C2834 C 0.53484 0.01498 1.01659 0.0
H2835 H 0.46882 0.08368 0.06005 0.0
H2836 H 0.48514 0.07336 0.04416 0.0
H2837 H 0.53642 0.9925 0.03996 0.0
H2838 H 0.58927 0.96538 0.99393 0.0
H2839 H 0.57273 0.97584 1.00976 0.0
C2840 C 0.30905 0.71802 0.30565 0.0
C2841 C 0.2931 0.7232 0.31381 0.0
C2842 C 0.30318 0.72804 0.29623 0.0
C2843 C 0.25179 0.77204 0.28099 0.0
H2844 H 0.29816 0.75482 0.26021 0.0
C2845 C 0.22671 0.81322 0.24092 0.0
C2846 C 0.24325 0.80874 0.23286 0.0
C2847 C 0.23258 0.80338 0.25036 0.0
C2848 C 0.28448 0.76034 0.26573 0.0
H2849 H 0.25715 0.74474 0.31723 0.0
H2850 H 0.24709 0.7617 0.30138 0.0
H2851 H 0.30776 0.73818 0.27597 0.0
H2852 H 0.28025 0.78881 0.22964 0.0
H2853 H 0.29025 0.77212 0.24552 0.0
H2854 H 0.22851 0.79423 0.27074 0.0
C2855 C 0.26469 0.74957 0.30214 0.0
C2856 C 0.29021 0.75035 0.27518 0.0
C2857 C 0.2706 0.7395 0.31158 0.0
C2858 C 0.26632 0.79341 0.23521 0.0
C2859 C 0.27218 0.78348 0.24466 0.0
C2860 C 0.24605 0.78202 0.27154 0.0
C2861 C 0.28067 0.74441 0.29393 0.0
C2862 C 0.2742 0.75562 0.28336 0.0
C2863 C 0.25561 0.78788 0.25278 0.0
C2864 C 0.26206 0.77674 0.26336 0.0
H2865 H 0.32666 0.70588 0.30652 0.0
H2866 H 0.31686 0.72265 0.29069 0.0
H2867 H 0.23809 0.77754 0.28652 0.0
H2868 H 0.20869 0.82466 0.23996 0.0
H2869 H 0.21843 0.80815 0.25583 0.0
C2870 C 0.56261 0.05956 0.55691 0.0
C2871 C 0.5613 0.04159 0.56471 0.0
C2872 C 0.55299 0.05361 0.54744 0.0
C2873 C 0.51745 0.99812 0.53143 0.0
H2874 H 0.5244 0.04974 0.51152 0.0
C2875 C 0.47662 0.97335 0.49124 0.0
C2876 C 0.47806 0.99142 0.48347 0.0
C2877 C 0.48623 0.97916 0.50073 0.0
C2878 C 0.52186 0.03451 0.51679 0.0
H2879 H 0.5474 1.00186 0.56743 0.0
H2880 H 0.5311 0.99171 0.55152 0.0
H2881 H 0.54069 0.05942 0.52731 0.0
H2882 H 0.49218 0.03111 0.48083 0.0
H2883 H 0.50843 0.04101 0.49674 0.0
H2884 H 0.49862 0.9732 0.5209 0.0
C2885 C 0.53972 1.01101 0.5526 0.0
C2886 C 0.53163 0.04031 0.52626 0.0
C2887 C 0.54941 0.01698 0.56207 0.0
C2888 C 0.49006 0.01593 0.48616 0.0
C2889 C 0.49973 0.02175 0.49564 0.0
C2890 C 0.50768 0.99231 0.52196 0.0
C2891 C 0.54092 0.02901 0.54474 0.0
C2892 C 0.53 0.02246 0.53413 0.0
C2893 C 0.4984 1.00369 0.50347 0.0
C2894 C 0.50932 1.01017 0.51408 0.0
H2895 H 0.57129 0.07883 0.55809 0.0
H2896 H 0.55518 0.06894 0.54219 0.0
H2897 H 0.51493 0.9829 0.5367 0.0
H2898 H 0.46786 0.95414 0.49002 0.0
H2899 H 0.48395 0.9638 0.50597 0.0
C2900 C 0.26577 0.23198 0.73827 0.0
C2901 C 0.28993 0.21865 0.73574 0.0
C2902 C 0.26006 0.2424 0.74768 0.0
C2903 C 0.28881 0.24924 0.77418 0.0
H2904 H 0.22415 0.28828 0.77896 0.0
C2905 C 0.26444 0.29174 0.81423 0.0
C2906 C 0.242 0.30805 0.81655 0.0
C2907 C 0.26997 0.28139 0.80481 0.0
C2908 C 0.24259 0.27755 0.77806 0.0
H2909 H 0.32674 0.20718 0.74252 0.0
H2910 H 0.31727 0.22452 0.75831 0.0
H2911 H 0.23346 0.27089 0.76325 0.0
H2912 H 0.20802 0.32499 0.80935 0.0
H2913 H 0.21717 0.30765 0.79351 0.0
H2914 H 0.29796 0.2559 0.78898 0.0
C2915 C 0.30206 0.22718 0.75301 0.0
C2916 C 0.24814 0.26708 0.76865 0.0
C2917 C 0.30776 0.21682 0.7436 0.0
C2918 C 0.22563 0.31289 0.80845 0.0
C2919 C 0.2311 0.3025 0.79902 0.0
C2920 C 0.28323 0.25966 0.78359 0.0
C2921 C 0.27789 0.24062 0.7556 0.0
C2922 C 0.27159 0.25232 0.76615 0.0
C2923 C 0.25361 0.28613 0.79664 0.0
C2924 C 0.25981 0.27445 0.78609 0.0
H2925 H 0.25079 0.23461 0.73287 0.0
H2926 H 0.24106 0.25204 0.74866 0.0
H2927 H 0.30721 0.23845 0.77329 0.0
H2928 H 0.27821 0.28669 0.81982 0.0
H2929 H 0.28757 0.26928 0.80402 0.0
C2930 C 0.03298 0.02498 0.9842 0.0
C2931 C 0.05045 0.04642 0.98197 0.0
C2932 C 0.02322 0.01906 0.99368 0.0
C2933 C 0.02558 0.042 1.02096 0.0
H2934 H 0.97782 0.98357 1.02499 0.0
C2935 C 0.98423 0.01622 0.06115 0.0
C2936 C 0.96576 0.99549 0.06323 0.0
C2937 C 0.99416 0.02225 0.0517 0.0
C2938 C 0.99111 1.00019 1.02432 0.0
H2939 H 0.0703 0.07806 0.98941 0.0
H2940 H 0.05401 0.06823 1.00533 0.0
H2941 H 0.99427 0.99342 1.00922 0.0
H2942 H 0.94443 0.96527 0.05557 0.0
H2943 H 0.96097 0.97528 0.03972 0.0
H2944 H 0.0224 0.04876 0.03608 0.0
C2945 C 0.04743 0.05541 0.99972 0.0
C2946 C 1.00099 1.00608 1.01486 0.0
C2947 C 0.05718 0.06131 0.99023 0.0
C2948 C 0.95831 0.98144 0.05486 0.0
C2949 C 0.96823 0.98743 0.04542 0.0
C2950 C 1.01571 0.03609 0.03043 0.0
C2951 C 0.02984 0.03395 1.002 0.0
C2952 C 0.01881 0.02735 1.01261 0.0
C2953 C 0.98675 1.00819 0.04327 0.0
C2954 C 0.99787 0.01484 0.03267 0.0
H2955 H 0.02649 1.01235 0.9785 0.0
H2956 H 1.01012 1.00231 0.99438 0.0
H2957 H 0.0389 0.0586 1.02029 0.0
H2958 H 0.99134 0.02818 0.06694 0.0
H2959 H 1.00805 0.03839 0.05109 0.0
C2960 C 0.75435 0.73961 0.81293 0.0
C2961 C 0.73325 0.72155 0.81502 0.0
C2962 C 0.76081 0.74907 0.80346 0.0
C2963 C 0.73832 0.74717 0.77611 0.0
H2964 H 0.80094 0.7893 0.7719 0.0
C2965 C 0.76434 0.7903 0.73614 0.0
C2966 C 0.78872 0.80326 0.73376 0.0
C2967 C 0.75775 0.78071 0.7456 0.0
C2968 C 0.78317 0.77756 0.77262 0.0
H2969 H 0.70289 0.70037 0.80734 0.0
H2970 H 0.7136 0.71621 0.79144 0.0
H2971 H 0.7903 0.77334 0.78769 0.0
H2972 H 0.82473 0.81521 0.74089 0.0
H2973 H 0.81375 0.79936 0.75673 0.0
H2974 H 0.73121 0.75141 0.76103 0.0
C2975 C 0.72568 0.72351 0.79716 0.0
C2976 C 0.77675 0.76808 0.78209 0.0
C2977 C 0.71929 0.71399 0.80663 0.0
C2978 C 0.8057 0.80572 0.74183 0.0
C2979 C 0.79909 0.79629 0.75128 0.0
C2980 C 0.74469 0.75676 0.76664 0.0
C2981 C 0.74682 0.74161 0.79501 0.0
C2982 C 0.75397 0.75229 0.7844 0.0
C2983 C 0.77476 0.78316 0.75372 0.0
C2984 C 0.76752 0.77249 0.76433 0.0
H2985 H 0.76627 0.74676 0.81874 0.0
H2986 H 0.77717 0.76272 0.80285 0.0
H2987 H 0.72049 0.73554 0.77684 0.0
H2988 H 0.74991 0.78734 0.73058 0.0
H2989 H 0.7387 0.77127 0.74647 0.0
C2990 C 0.7647 0.29806 0.31256 0.0
C2991 C 0.78885 0.31128 0.31507 0.0
C2992 C 0.75855 0.28827 0.3031 0.0
C2993 C 0.78629 0.28165 0.27645 0.0
H2994 H 0.71952 0.24708 0.27153 0.0
C2995 C 0.75996 0.24007 0.23634 0.0
C2996 C 0.73575 0.22694 0.23385 0.0
C2997 C 0.7662 0.24986 0.24579 0.0
C2998 C 0.73852 0.25657 0.27246 0.0
H2999 H 0.8251 0.32335 0.30814 0.0
H3000 H 0.81489 0.30699 0.29225 0.0
H3001 H 0.72981 0.26349 0.28728 0.0
H3002 H 0.69949 0.21502 0.24081 0.0
H3003 H 0.70983 0.23138 0.25668 0.0
H3004 H 0.79499 0.27472 0.26162 0.0
C3005 C 0.80006 0.3039 0.29763 0.0
C3006 C 0.7447 0.26641 0.28191 0.0
C3007 C 0.80619 0.31369 0.30709 0.0
C3008 C 0.71844 0.22462 0.24184 0.0
C3009 C 0.72465 0.23441 0.25129 0.0
C3010 C 0.78011 0.2718 0.26699 0.0
C3011 C 0.77586 0.29059 0.29507 0.0
C3012 C 0.76895 0.27955 0.28447 0.0
C3013 C 0.7489 0.24764 0.25383 0.0
C3014 C 0.75585 0.25867 0.26443 0.0
H3015 H 0.75005 0.29505 0.31802 0.0
H3016 H 0.73962 0.27863 0.30218 0.0
H3017 H 0.80529 0.29114 0.27737 0.0
H3018 H 0.7746 0.24301 0.23086 0.0
H3019 H 0.78516 0.25943 0.2467 0.0
C3020 C 0.7231 0.3102 0.74224 0.0
C3021 C 0.74005 0.30697 0.73419 0.0
C3022 C 0.72948 0.30067 0.75173 0.0
C3023 C 0.78396 0.26074 0.76728 0.0
H3024 H 0.73705 0.27567 0.78812 0.0
C3025 C 0.81009 0.21857 0.80743 0.0
C3026 C 0.79491 0.22482 0.8157 0.0
C3027 C 0.80373 0.22808 0.79793 0.0
C3028 C 0.75099 0.27087 0.78259 0.0
H3029 H 0.77841 0.28951 0.73113 0.0
H3030 H 0.78921 0.27349 0.74703 0.0
H3031 H 0.72641 0.29171 0.77232 0.0
H3032 H 0.75976 0.24765 0.81913 0.0
H3033 H 0.74895 0.26355 0.80324 0.0
H3034 H 0.80854 0.2399 0.77755 0.0
C3035 C 0.77041 0.28358 0.74614 0.0
C3036 C 0.74457 0.28044 0.77311 0.0
C3037 C 0.76404 0.29317 0.73666 0.0
C3038 C 0.77268 0.24154 0.81344 0.0
C3039 C 0.76627 0.251 0.80395 0.0
C3040 C 0.79035 0.25111 0.77676 0.0
C3041 C 0.75351 0.28676 0.75425 0.0
C3042 C 0.76068 0.27597 0.76488 0.0
C3043 C 0.78143 0.24487 0.79562 0.0
C3044 C 0.77425 0.25561 0.78498 0.0
H3045 H 0.70434 0.32033 0.74124 0.0
H3046 H 0.71492 0.30437 0.75717 0.0
H3047 H 0.79786 0.25587 0.76174 0.0
H3048 H 0.82743 0.20605 0.80827 0.0
H3049 H 0.8168 0.22188 0.79231 0.0
C3050 C 0.76188 0.79426 0.31346 0.0
C3051 C 0.7402 0.81185 0.31551 0.0
C3052 C 0.76832 0.78436 0.30405 0.0
C3053 C 0.74667 0.78638 0.27661 0.0
H3054 H 0.80578 0.73851 0.27306 0.0
C3055 C 0.77414 0.74447 0.23673 0.0
C3056 C 0.7954 0.72635 0.2347 0.0
C3057 C 0.76772 0.75437 0.24614 0.0
C3058 C 0.789 0.75183 0.2736 0.0
H3059 H 0.7087 0.83164 0.30782 0.0
H3060 H 0.71944 0.81512 0.29199 0.0
H3061 H 0.79503 0.75518 0.28874 0.0
H3062 H 0.82618 0.7056 0.24244 0.0
H3063 H 0.81548 0.72214 0.25827 0.0
H3064 H 0.74063 0.78304 0.26147 0.0
C3065 C 0.73205 0.80859 0.29771 0.0
C3066 C 0.78256 0.76184 0.283 0.0
C3067 C 0.72561 0.81849 0.30714 0.0
C3068 C 0.8096 0.71919 0.2431 0.0
C3069 C 0.8032 0.7291 0.25253 0.0
C3070 C 0.75311 0.77638 0.26721 0.0
C3071 C 0.75378 0.79091 0.29562 0.0
C3072 C 0.761 0.77971 0.28507 0.0
C3073 C 0.78187 0.7473 0.2546 0.0
C3074 C 0.77466 0.75851 0.26514 0.0
H3075 H 0.7743 0.78781 0.31926 0.0
H3076 H 0.78521 0.77119 0.30349 0.0
H3077 H 0.7299 0.79972 0.27715 0.0
H3078 H 0.76204 0.75135 0.23091 0.0
H3079 H 0.75118 0.76798 0.24667 0.0
C3080 C 0.55652 0.51949 0.06179 0.0
C3081 C 0.57018 0.49553 0.06429 0.0
C3082 C 0.54655 0.5255 0.05234 0.0
C3083 C 0.54021 0.49744 0.0258 0.0
H3084 H 0.50455 0.56377 1.02079 0.0
C3085 C 0.49763 0.52264 0.98579 0.0
C3086 C 0.48458 0.54689 0.98325 0.0
C3087 C 0.50755 0.51661 0.99524 0.0
C3088 C 0.51435 0.54489 1.02175 0.0
H3089 H 0.5828 0.45938 0.05742 0.0
H3090 H 0.56617 0.46935 0.04153 0.0
H3091 H 0.52127 0.55383 0.03654 0.0
H3092 H 0.47276 0.58341 0.99004 0.0
H3093 H 0.48933 0.57342 1.00593 0.0
H3094 H 0.5333 0.48851 1.011 0.0
C3095 C 0.56287 0.48416 0.0469 0.0
C3096 C 0.52437 0.53892 0.03119 0.0
C3097 C 0.57283 0.47818 0.05635 0.0
C3098 C 0.48237 0.56445 0.99114 0.0
C3099 C 0.49225 0.55843 1.0006 0.0
C3100 C 0.53019 0.5034 1.01635 0.0
C3101 C 0.54913 0.50816 0.04435 0.0
C3102 C 0.53789 0.51485 0.03377 0.0
C3103 C 0.50548 0.53418 1.00319 0.0
C3104 C 0.51667 0.52748 1.01378 0.0
H3105 H 0.55329 0.53409 0.06725 0.0
H3106 H 0.53656 0.54429 0.0514 0.0
H3107 H 0.55 0.47855 0.02676 0.0
H3108 H 0.5004 0.50784 0.98037 0.0
H3109 H 0.51707 0.4976 0.99623 0.0
C3110 C 0.98478 0.51554 0.56229 0.0
C3111 C 0.97476 0.5408 0.5653 0.0
C3112 C 0.99412 0.5097 0.55273 0.0
C3113 C 1.00477 0.54038 0.5266 0.0
H3114 H 0.03305 0.47132 0.52056 0.0
C3115 C 0.04467 0.51537 0.48602 0.0
C3116 C 0.05555 0.49034 0.48313 0.0
C3117 C 0.03528 0.52131 0.49557 0.0
C3118 C 0.02536 0.49101 0.5218 0.0
H3119 H 0.96785 0.57939 0.55911 0.0
H3120 H 0.98332 0.56969 0.54306 0.0
H3121 H 0.01731 0.48105 0.53647 0.0
H3122 H 0.06399 0.45233 0.48954 0.0
H3123 H 0.04836 0.46216 0.50555 0.0
H3124 H 1.01283 0.55033 0.51193 0.0
C3125 C 0.98424 0.55371 0.54812 0.0
C3126 C 1.0159 0.49685 0.53135 0.0
C3127 C 0.97499 0.55955 0.55769 0.0
C3128 C 0.05611 0.47195 0.49085 0.0
C3129 C 0.04677 0.47787 0.5004 0.0
C3130 C 1.01423 0.53453 0.51705 0.0
C3131 C 0.99445 0.52844 0.54506 0.0
C3132 C 1.00503 0.52189 0.53433 0.0
C3133 C 0.03572 0.5029 0.50334 0.0
C3134 C 0.02511 0.50949 0.51406 0.0
H3135 H 0.98558 0.49972 0.56743 0.0
H3136 H 1.00121 0.48982 0.55142 0.0
H3137 H 0.99706 0.56006 0.52784 0.0
H3138 H 0.04322 0.53091 0.48079 0.0
H3139 H 0.02748 0.54097 0.49679 0.0
C3140 C 0.03353 0.52367 0.06423 0.0
C3141 C 0.04884 0.54667 0.0665 0.0
C3142 C 0.02362 0.5175 0.05479 0.0
C3143 C 0.02262 0.54187 0.02763 0.0
H3144 H 0.97724 0.48155 1.02368 0.0
C3145 C 0.98177 0.51452 0.98751 0.0
C3146 C 0.96322 0.49379 0.98552 0.0
C3147 C 0.99178 0.52077 0.99694 0.0
C3148 C 0.98982 0.49871 1.02433 0.0
H3149 H 0.06462 0.58076 0.0592 0.0
H3150 H 0.04811 0.57049 0.04334 0.0
H3151 H 0.99384 0.49178 0.03941 0.0
H3152 H 0.94186 0.46383 0.99332 0.0
H3153 H 0.95857 0.4742 1.00912 0.0
H3154 H 0.01858 0.5488 1.01255 0.0
C3155 C 0.04342 0.55661 0.04889 0.0
C3156 C 0.99983 0.5048 0.03376 0.0
C3157 C 0.05326 0.56279 0.05833 0.0
C3158 C 0.9558 0.47998 0.99395 0.0
C3159 C 0.96583 0.48616 1.00336 0.0
C3160 C 1.01266 0.53573 1.0182 0.0
C3161 C 0.02796 0.53363 0.04656 0.0
C3162 C 0.01681 0.52676 0.03598 0.0
C3163 C 0.98442 0.50692 1.00542 0.0
C3164 C 0.99565 0.5138 1.01599 0.0
H3165 H 0.02891 0.51 0.06986 0.0
H3166 H 1.01231 0.49951 0.05403 0.0
H3167 H 0.03528 0.55898 0.02829 0.0
H3168 H 0.98887 0.5263 0.98167 0.0
H3169 H 1.00575 0.53686 0.99748 0.0
C3170 C 0.47021 0.47497 0.55758 0.0
C3171 C 0.47616 0.49047 0.56576 0.0
C3172 C 0.4796 0.48109 0.54808 0.0
C3173 C 0.52444 0.53151 0.53288 0.0
H3174 H 0.50221 0.48936 0.51164 0.0
C3175 C 0.56632 0.55635 0.49286 0.0
C3176 C 0.55767 0.54317 0.48447 0.0
C3177 C 0.5568 0.55016 0.50233 0.0
C3178 C 0.5091 0.50188 0.51729 0.0
H3179 H 0.49825 0.52586 0.56913 0.0
H3180 H 0.51407 0.53627 0.55321 0.0
H3181 H 0.48625 0.47917 0.52746 0.0
H3182 H 0.5305 0.51184 0.4807 0.0
H3183 H 0.51446 0.50128 0.49659 0.0
H3184 H 0.54727 0.55425 0.52272 0.0
C3185 C 0.5019 0.51885 0.55398 0.0
C3186 C 0.49959 0.49574 0.52677 0.0
C3187 C 0.49246 0.51274 0.56347 0.0
C3188 C 0.53851 0.52309 0.48653 0.0
C3189 C 0.529 0.51684 0.496 0.0
C3190 C 0.534 0.53761 0.52341 0.0
C3191 C 0.49604 0.50337 0.54574 0.0
C3192 C 0.50669 0.51021 0.53512 0.0
C3193 C 0.53757 0.53005 0.50445 0.0
C3194 C 0.52688 0.52317 0.51506 0.0
H3195 H 0.45798 0.45759 0.55848 0.0
H3196 H 0.47374 0.46777 0.54251 0.0
H3197 H 0.53142 0.54399 0.53853 0.0
H3198 H 0.58084 0.57196 0.49215 0.0
H3199 H 0.56497 0.56159 0.50806 0.0
C3200 C 0.29988 0.14496 0.36728 0.0
C3201 C 0.27308 0.15514 0.36818 0.0
C3202 C 0.3145 0.12967 0.37457 0.0
C3203 C 0.31868 0.10987 0.40228 0.0
H3204 H 0.36998 0.05625 0.39541 0.0
C3205 C 0.39315 0.05373 0.43264 0.0
C3206 C 0.40234 0.02661 0.43193 0.0
C3207 C 0.37778 0.06827 0.42535 0.0
C3208 C 0.35595 0.07105 0.39781 0.0
H3209 H 0.24316 0.15487 0.37915 0.0
H3210 H 0.26802 0.1306 0.39148 0.0
H3211 H 0.34566 0.08139 0.38319 0.0
H3212 H 0.40017 0.99598 0.42127 0.0
H3213 H 0.37577 0.02064 0.40892 0.0
H3214 H 0.3298 0.10032 0.41689 0.0
C3215 C 0.27805 0.13388 0.38484 0.0
C3216 C 0.34137 0.0862 0.39047 0.0
C3217 C 0.26308 0.14841 0.37743 0.0
C3218 C 0.39452 0.01617 0.42284 0.0
C3219 C 0.37992 0.03102 0.41542 0.0
C3220 C 0.33392 0.09535 0.40962 0.0
C3221 C 0.30472 0.1233 0.38389 0.0
C3222 C 0.32154 0.10649 0.3922 0.0
C3223 C 0.37033 0.05803 0.4162 0.0
C3224 C 0.35343 0.07476 0.40789 0.0
H3225 H 0.31 0.14855 0.36068 0.0
H3226 H 0.33436 0.1231 0.37281 0.0
H3227 H 0.30451 0.12453 0.40468 0.0
H3228 H 0.39762 0.06421 0.43909 0.0
H3229 H 0.37203 0.08843 0.42696 0.0
C3230 C 0.25721 0.15297 0.67315 0.0
C3231 C 0.25905 0.14681 0.68312 0.0
C3232 C 0.24229 0.1379 0.66595 0.0
C3233 C 0.1905 0.07676 0.66099 0.0
H3234 H 0.20023 0.09256 0.63459 0.0
C3235 C 0.12278 0.01741 0.62984 0.0
C3236 C 0.12703 0.01794 0.61973 0.0
C3237 C 0.13819 0.032 0.63703 0.0
C3238 C 0.1965 0.0871 0.64184 0.0
H3239 H 0.24289 0.11602 0.69208 0.0
H3240 H 0.21753 0.09099 0.68009 0.0
H3241 H 0.22495 0.11686 0.64676 0.0
H3242 H 0.15475 0.03802 0.6105 0.0
H3243 H 0.18033 0.06284 0.62249 0.0
H3244 H 0.16183 0.04721 0.65608 0.0
C3245 C 0.22825 0.10819 0.67766 0.0
C3246 C 0.2114 0.10181 0.6492 0.0
C3247 C 0.24354 0.12321 0.6849 0.0
C3248 C 0.14908 0.03547 0.61779 0.0
C3249 C 0.16444 0.05043 0.62504 0.0
C3250 C 0.17538 0.06225 0.65363 0.0
C3251 C 0.22661 0.11446 0.66764 0.0
C3252 C 0.20956 0.09769 0.65932 0.0
C3253 C 0.16011 0.04967 0.63519 0.0
C3254 C 0.17731 0.06629 0.64351 0.0
H3255 H 0.26785 0.17022 0.67071 0.0
H3256 H 0.24311 0.1453 0.6588 0.0
H3257 H 0.18678 0.07128 0.66824 0.0
H3258 H 0.10682 1.00506 0.6324 0.0
H3259 H 0.13232 0.02927 0.64429 0.0
C3260 C 0.13856 0.02415 0.9227 0.0
C3261 C 0.12317 1.01195 0.93014 0.0
C3262 C 0.15341 1.0098 0.91521 0.0
C3263 C 0.17751 0.93658 0.90566 0.0
H3264 H 0.206 0.97312 0.88404 0.0
C3265 C 0.24517 0.87445 0.87529 0.0
C3266 C 0.25312 0.88392 0.86608 0.0
C3267 C 0.23008 0.88952 0.88246 0.0
C3268 C 0.19857 0.96165 0.88991 0.0
H3269 H 0.11417 0.97159 0.93415 0.0
H3270 H 0.13917 0.94778 0.92187 0.0
H3271 H 0.18148 0.99741 0.89635 0.0
H3272 H 0.24874 0.92104 0.85852 0.0
H3273 H 0.22373 0.9465 0.87055 0.0
H3274 H 0.19481 0.90091 0.89931 0.0
C3275 C 0.1399 0.96916 0.92167 0.0
C3276 C 0.18382 0.9763 0.89735 0.0
C3277 C 0.12482 0.98349 0.92907 0.0
C3278 C 0.24404 0.91103 0.86505 0.0
C3279 C 0.22909 0.92635 0.87232 0.0
C3280 C 0.19251 0.922 0.89829 0.0
C3281 C 0.15522 0.98124 0.91418 0.0
C3282 C 0.17215 0.9648 0.90575 0.0
C3283 C 0.221 0.91659 0.88154 0.0
C3284 C 0.20406 0.93343 0.88986 0.0
H3285 H 0.13914 0.04556 0.92254 0.0
H3286 H 0.1639 0.02177 0.91012 0.0
H3287 H 0.17011 0.92505 0.91151 0.0
H3288 H 0.25081 0.85441 0.87714 0.0
H3289 H 0.22577 0.87937 0.88899 0.0
C3290 C 0.26984 0.90771 0.17722 0.0
C3291 C 0.279 0.8835 0.18165 0.0
C3292 C 0.28459 0.92301 0.16999 0.0
C3293 C 0.35121 0.92426 0.15319 0.0
H3294 H 0.3276 0.99344 0.14514 0.0
C3295 C 0.41303 0.98623 0.12125 0.0
C3296 C 0.40866 1.01353 0.11854 0.0
C3297 C 0.398 0.97157 0.12854 0.0
C3298 C 0.33533 0.97417 0.14707 0.0
H3299 H 0.31415 0.85883 0.18046 0.0
H3300 H 0.33845 0.88393 0.16842 0.0
H3301 H 0.30274 0.96857 0.15714 0.0
H3302 H 0.38152 0.04463 0.12288 0.0
H3303 H 0.35617 0.02014 0.13494 0.0
H3304 H 0.38363 0.9297 0.14308 0.0
C3305 C 0.31936 0.89176 0.17054 0.0
C3306 C 0.3203 0.95915 0.15429 0.0
C3307 C 0.30475 0.87664 0.17781 0.0
C3308 C 0.38706 0.0242 0.12411 0.0
C3309 C 0.37183 1.00943 0.13136 0.0
C3310 C 0.36607 0.93916 0.14591 0.0
C3311 C 0.31039 0.91606 0.16612 0.0
C3312 C 0.32722 0.93313 0.15789 0.0
C3313 C 0.37628 0.98206 0.1341 0.0
C3314 C 0.35926 0.96522 0.14234 0.0
H3315 H 0.25066 0.91531 0.17938 0.0
H3316 H 0.27514 0.94079 0.16735 0.0
H3317 H 0.35898 0.905 0.1551 0.0
H3318 H 0.42872 0.97558 0.11766 0.0
H3319 H 0.40376 0.9512 0.12974 0.0
C3320 C 0.73219 0.87201 0.67777 0.0
C3321 C 0.75743 0.87893 0.68195 0.0
C3322 C 0.71831 0.88694 0.67024 0.0
C3323 C 0.71914 0.95352 0.65361 0.0
H3324 H 0.65648 0.92451 0.64195 0.0
C3325 C 0.65592 0.01756 0.62209 0.0
C3326 C 0.63431 1.00707 0.61652 0.0
C3327 C 0.6704 1.00301 0.62962 0.0
C3328 C 0.67389 0.93382 0.6449 0.0
H3329 H 0.78584 0.91055 0.67997 0.0
H3330 H 0.76258 0.93571 0.66748 0.0
H3331 H 0.67991 0.90013 0.65441 0.0
H3332 H 0.61323 0.96983 0.61599 0.0
H3333 H 0.63702 0.94578 0.62851 0.0
H3334 H 0.71294 0.98733 0.64411 0.0
C3335 C 0.75295 0.91805 0.67006 0.0
C3336 C 0.68801 0.91912 0.65244 0.0
C3337 C 0.76696 0.90296 0.67756 0.0
C3338 C 0.62907 0.98025 0.61954 0.0
C3339 C 0.64337 0.9658 0.62709 0.0
C3340 C 0.70487 0.96834 0.6461 0.0
C3341 C 0.72764 0.91104 0.66585 0.0
C3342 C 0.71167 0.92787 0.65732 0.0
C3343 C 0.66509 0.9761 0.63266 0.0
C3344 C 0.68126 0.9595 0.6412 0.0
H3345 H 0.72263 0.8543 0.68036 0.0
H3346 H 0.69952 0.87911 0.66787 0.0
H3347 H 0.73655 0.96279 0.65657 0.0
H3348 H 0.66203 0.03766 0.62064 0.0
H3349 H 0.68617 1.01352 0.63317 0.0
C3350 C 0.87365 0.99666 0.4347 0.0
C3351 C 0.89614 1.01374 0.43288 0.0
C3352 C 0.85878 0.98143 0.4274 0.0
C3353 C 0.85037 0.96797 0.39879 0.0
H3354 H 0.7999 0.914 0.40546 0.0
C3355 C 0.78462 0.90589 0.36718 0.0
C3356 C 0.76892 0.8824 0.36892 0.0
C3357 C 0.79933 0.92118 0.37449 0.0
C3358 C 0.81375 0.92885 0.40307 0.0
H3359 H 0.91775 0.02543 0.42036 0.0
H3360 H 0.89304 1.00081 0.40837 0.0
H3361 H 0.82367 0.9388 0.41774 0.0
H3362 H 0.75903 0.8595 0.38134 0.0
H3363 H 0.78283 0.88489 0.39338 0.0
H3364 H 0.84021 0.95826 0.38413 0.0
C3365 C 0.88643 0.99867 0.41558 0.0
C3366 C 0.82807 0.94387 0.4105 0.0
C3367 C 0.90136 1.01351 0.42283 0.0
C3368 C 0.76991 0.87664 0.37893 0.0
C3369 C 0.78425 0.89198 0.38621 0.0
C3370 C 0.83582 0.95317 0.39137 0.0
C3371 C 0.86411 0.98142 0.4173 0.0
C3372 C 0.84752 0.96448 0.40891 0.0
C3373 C 0.80012 0.91533 0.38455 0.0
C3374 C 0.81651 0.93243 0.39295 0.0
H3375 H 0.86726 0.99467 0.44194 0.0
H3376 H 0.84248 0.9694 0.42985 0.0
H3377 H 0.86422 0.98282 0.3964 0.0
H3378 H 0.78588 0.91278 0.35997 0.0
H3379 H 0.81028 0.93826 0.37209 0.0
C3380 C 0.86719 0.03609 0.11538 0.0
C3381 C 0.89439 0.02685 0.11621 0.0
C3382 C 0.85221 0.05071 0.12282 0.0
C3383 C 0.85791 0.0863 0.14892 0.0
H3384 H 0.78207 0.09671 0.14767 0.0
C3385 C 0.79782 0.15289 0.18035 0.0
C3386 C 0.76936 0.15389 0.18178 0.0
C3387 C 0.81179 0.13814 0.17278 0.0
C3388 C 0.80332 0.09453 0.14847 0.0
H3389 H 0.92448 0.02854 0.12712 0.0
H3390 H 0.90009 0.0531 0.13924 0.0
H3391 H 0.80579 0.07279 0.13507 0.0
H3392 H 0.73528 0.13726 0.1746 0.0
H3393 H 0.75845 0.1131 0.16187 0.0
H3394 H 0.85558 0.1083 0.16223 0.0
C3395 C 0.88959 0.04913 0.13275 0.0
C3396 C 0.81764 0.08014 0.14086 0.0
C3397 C 0.90432 0.03433 0.12542 0.0
C3398 C 0.75674 0.13827 0.17449 0.0
C3399 C 0.77072 0.1238 0.16682 0.0
C3400 C 0.84367 0.10096 0.15646 0.0
C3401 C 0.86243 0.05832 0.13204 0.0
C3402 C 0.84598 0.07489 0.14056 0.0
C3403 C 0.79928 0.1226 0.16544 0.0
C3404 C 0.81533 0.10607 0.15681 0.0
H3405 H 0.85684 0.03173 0.10889 0.0
H3406 H 0.83194 0.05622 0.1212 0.0
H3407 H 0.87915 0.08415 0.14975 0.0
H3408 H 0.81001 0.1638 0.18527 0.0
H3409 H 0.83322 0.13935 0.17271 0.0
C3410 C 0.66009 0.04242 0.93527 0.0
C3411 C 0.63805 0.02481 0.93342 0.0
C3412 C 0.67496 0.05763 0.92797 0.0
C3413 C 0.68436 0.06988 0.89935 0.0
H3414 H 0.73335 0.12523 0.90597 0.0
C3415 C 0.75027 0.13163 0.86777 0.0
C3416 C 0.76532 0.15556 0.86944 0.0
C3417 C 0.73554 0.11643 0.8751 0.0
C3418 C 0.71993 0.10997 0.9036 0.0
H3419 H 0.61725 1.01209 0.92085 0.0
H3420 H 0.64197 0.03668 0.90886 0.0
H3421 H 0.70954 0.10052 0.91827 0.0
H3422 H 0.77404 0.17942 0.88174 0.0
H3423 H 0.75021 0.15415 0.89381 0.0
H3424 H 0.69499 0.0791 0.88469 0.0
C3425 C 0.6482 0.03929 0.91609 0.0
C3426 C 0.7056 0.09502 0.91103 0.0
C3427 C 0.63327 0.02446 0.92334 0.0
C3428 C 0.76368 0.16189 0.87939 0.0
C3429 C 0.74933 0.14663 0.88668 0.0
C3430 C 0.69893 0.08462 0.89192 0.0
C3431 C 0.67008 0.05705 0.91784 0.0
C3432 C 0.68667 0.07393 0.90945 0.0
C3433 C 0.73411 0.12283 0.88509 0.0
C3434 C 0.71771 0.10582 0.8935 0.0
H3435 H 0.66611 0.04485 0.94254 0.0
H3436 H 0.69091 0.07009 0.93044 0.0
H3437 H 0.67093 0.05463 0.89698 0.0
H3438 H 0.74956 0.1243 0.86061 0.0
H3439 H 0.72511 0.09896 0.87276 0.0
C3440 C 0.76246 0.65611 0.87805 0.0
C3441 C 0.76247 0.65056 0.86803 0.0
C3442 C 0.77689 0.64109 0.88541 0.0
C3443 C 0.83051 0.5816 0.89085 0.0
H3444 H 0.8164 0.59561 0.91712 0.0
C3445 C 0.89615 0.5228 0.92267 0.0
C3446 C 0.8907 0.52285 0.9327 0.0
C3447 C 0.88109 0.53725 0.91534 0.0
C3448 C 0.82136 0.59069 0.90992 0.0
H3449 H 0.78123 0.62101 0.85914 0.0
H3450 H 0.80584 0.59601 0.87142 0.0
H3451 H 0.79233 0.6197 0.90468 0.0
H3452 H 0.86126 0.54176 0.94163 0.0
H3453 H 0.83616 0.56637 0.92937 0.0
H3454 H 0.85971 0.55277 0.89608 0.0
C3455 C 0.794 0.61267 0.87376 0.0
C3456 C 0.80688 0.60527 0.9024 0.0
C3457 C 0.77917 0.62763 0.86635 0.0
C3458 C 0.86783 0.53967 0.93441 0.0
C3459 C 0.85279 0.55448 0.92702 0.0
C3460 C 0.84518 0.56722 0.89837 0.0
C3461 C 0.79384 0.61837 0.88382 0.0
C3462 C 0.81036 0.60175 0.89231 0.0
C3463 C 0.85837 0.55423 0.91694 0.0
C3464 C 0.84164 0.57067 0.90845 0.0
H3465 H 0.75068 0.67282 0.88041 0.0
H3466 H 0.77464 0.64794 0.89258 0.0
H3467 H 0.83547 0.57668 0.88364 0.0
H3468 H 0.91282 0.51097 0.9203 0.0
H3469 H 0.88788 0.53497 0.90815 0.0
C3470 C 0.66302 0.54162 0.11571 0.0
C3471 C 0.63947 0.52598 0.1174 0.0
C3472 C 0.67783 0.5567 0.12303 0.0
C3473 C 0.68404 0.57182 0.1515 0.0
H3474 H 0.737 0.62347 0.14491 0.0
C3475 C 0.74997 0.63286 0.18314 0.0
C3476 C 0.7661 0.65598 0.18137 0.0
C3477 C 0.73528 0.61768 0.17582 0.0
C3478 C 0.72242 0.60929 0.14727 0.0
H3479 H 0.61578 0.51655 0.12969 0.0
H3480 H 0.64045 0.54093 0.14175 0.0
H3481 H 0.71326 0.5988 0.1326 0.0
H3482 H 0.77688 0.67848 0.16895 0.0
H3483 H 0.75312 0.65319 0.15688 0.0
H3484 H 0.69345 0.58205 0.16617 0.0
C3485 C 0.64795 0.54203 0.13462 0.0
C3486 C 0.70815 0.59437 0.13983 0.0
C3487 C 0.63306 0.52736 0.12734 0.0
C3488 C 0.76562 0.66158 0.17135 0.0
C3489 C 0.75133 0.64632 0.16407 0.0
C3490 C 0.69856 0.5865 0.15894 0.0
C3491 C 0.67134 0.55787 0.13302 0.0
C3492 C 0.68784 0.57464 0.14141 0.0
C3493 C 0.73502 0.62333 0.16575 0.0
C3494 C 0.71871 0.60638 0.15736 0.0
H3495 H 0.6703 0.54257 0.10854 0.0
H3496 H 0.69504 0.56761 0.1207 0.0
H3497 H 0.66946 0.55765 0.15386 0.0
H3498 H 0.74834 0.6262 0.19037 0.0
H3499 H 0.72392 0.60085 0.17821 0.0
C3500 C 0.76674 0.39907 0.37444 0.0
C3501 C 0.75446 0.38399 0.36695 0.0
C3502 C 0.75238 0.41367 0.38198 0.0
C3503 C 0.67903 0.43749 0.39159 0.0
H3504 H 0.71583 0.46527 0.41327 0.0
C3505 C 0.61704 0.50418 0.42218 0.0
C3506 C 0.6267 0.51187 0.4314 0.0
C3507 C 0.63206 0.4893 0.41496 0.0
C3508 C 0.70429 0.45804 0.40739 0.0
H3509 H 0.71397 0.37519 0.36289 0.0
H3510 H 0.69012 0.39979 0.37526 0.0
H3511 H 0.74011 0.44112 0.40088 0.0
H3512 H 0.66398 0.50729 0.43891 0.0
H3513 H 0.68936 0.48261 0.42678 0.0
H3514 H 0.6433 0.45461 0.398 0.0
C3515 C 0.71157 0.40047 0.37546 0.0
C3516 C 0.71893 0.44351 0.39991 0.0
C3517 C 0.72591 0.38564 0.36801 0.0
C3518 C 0.65388 0.50277 0.43238 0.0
C3519 C 0.66913 0.48803 0.42505 0.0
C3520 C 0.66447 0.45226 0.399 0.0
C3521 C 0.72375 0.41549 0.383 0.0
C3522 C 0.70733 0.43213 0.39148 0.0
C3523 C 0.65921 0.48022 0.41583 0.0
C3524 C 0.676 0.46353 0.40745 0.0
H3525 H 0.78822 0.3996 0.3746 0.0
H3526 H 0.7644 0.42396 0.38711 0.0
H3527 H 0.66744 0.43027 0.38572 0.0
H3528 H 0.59691 0.50987 0.42039 0.0
H3529 H 0.6218 0.48515 0.40844 0.0
C3530 C 0.80067 0.38911 0.68296 0.0
C3531 C 0.77388 0.37903 0.68226 0.0
C3532 C 0.81496 0.40417 0.67556 0.0
C3533 C 0.81815 0.42344 0.64771 0.0
H3534 H 0.86939 0.477 0.6542 0.0
C3535 C 0.89155 0.47854 0.61681 0.0
C3536 C 0.90065 0.50566 0.61735 0.0
C3537 C 0.87646 0.46427 0.62421 0.0
C3538 C 0.85538 0.46221 0.6519 0.0
H3539 H 0.74358 0.37928 0.67141 0.0
H3540 H 0.76777 0.40308 0.65887 0.0
H3541 H 0.84565 0.45228 0.66659 0.0
H3542 H 0.89861 0.53661 0.62791 0.0
H3543 H 0.87472 0.51243 0.64045 0.0
H3544 H 0.82874 0.43255 0.63302 0.0
C3545 C 0.77813 0.39992 0.66548 0.0
C3546 C 0.84111 0.44728 0.65935 0.0
C3547 C 0.76347 0.38564 0.67301 0.0
C3548 C 0.89302 0.51639 0.62643 0.0
C3549 C 0.87871 0.5018 0.63397 0.0
C3550 C 0.8331 0.43772 0.64026 0.0
C3551 C 0.8048 0.41042 0.66624 0.0
C3552 C 0.82129 0.42701 0.65779 0.0
C3553 C 0.8692 0.47478 0.63336 0.0
C3554 C 0.85259 0.4583 0.64182 0.0
H3555 H 0.81116 0.38562 0.68954 0.0
H3556 H 0.83483 0.41066 0.6772 0.0
H3557 H 0.80398 0.4088 0.6454 0.0
H3558 H 0.89588 0.4678 0.61038 0.0
H3559 H 0.87079 0.44412 0.62269 0.0
C3560 C 0.2249 0.38095 0.17994 0.0
C3561 C 0.25148 0.3866 0.18326 0.0
C3562 C 0.21039 0.39556 0.17246 0.0
C3563 C 0.21131 0.45965 0.15455 0.0
H3564 H 0.14579 0.43201 0.14457 0.0
C3565 C 0.14465 0.52346 0.12368 0.0
C3566 C 0.12247 0.51293 0.11839 0.0
C3567 C 0.15981 0.50909 0.13111 0.0
C3568 C 0.16399 0.44093 0.14703 0.0
H3569 H 0.28142 0.41566 0.17973 0.0
H3570 H 0.25713 0.44035 0.16736 0.0
H3571 H 0.17028 0.40805 0.15692 0.0
H3572 H 0.10133 0.47567 0.11828 0.0
H3573 H 0.12612 0.45201 0.13066 0.0
H3574 H 0.20482 0.4927 0.14472 0.0
C3575 C 0.24691 0.42392 0.1706 0.0
C3576 C 0.17876 0.42648 0.15451 0.0
C3577 C 0.26157 0.40908 0.17804 0.0
C3578 C 0.11749 0.48619 0.1216 0.0
C3579 C 0.13242 0.47195 0.12908 0.0
C3580 C 0.19637 0.47427 0.14713 0.0
C3581 C 0.22027 0.41816 0.16726 0.0
C3582 C 0.20353 0.43473 0.15879 0.0
C3583 C 0.15471 0.48231 0.13436 0.0
C3584 C 0.17166 0.46592 0.14282 0.0
H3585 H 0.21472 0.3645 0.1832 0.0
H3586 H 0.1906 0.38876 0.1708 0.0
H3587 H 0.22953 0.46853 0.15702 0.0
H3588 H 0.15074 0.54347 0.12207 0.0
H3589 H 0.17594 0.51965 0.13442 0.0
C3590 C 0.40041 0.52296 0.92244 0.0
C3591 C 0.40806 0.51279 0.93161 0.0
C3592 C 0.3858 0.50804 0.91505 0.0
C3593 C 0.33936 0.44402 0.90938 0.0
H3594 H 0.35152 0.45681 0.88292 0.0
C3595 C 0.26857 0.39049 0.87721 0.0
C3596 C 0.27862 0.38325 0.86799 0.0
C3597 C 0.28352 0.40509 0.88459 0.0
C3598 C 0.34708 0.4523 0.8902 0.0
H3599 H 0.4029 0.47548 0.93892 0.0
H3600 H 0.37733 0.45125 0.92687 0.0
H3601 H 0.37576 0.48208 0.89504 0.0
H3602 H 0.31573 0.3892 0.86057 0.0
H3603 H 0.33999 0.41473 0.87262 0.0
H3604 H 0.30987 0.41505 0.90454 0.0
C3605 C 0.38323 0.47124 0.92516 0.0
C3606 C 0.36164 0.46756 0.8975 0.0
C3607 C 0.39861 0.48582 0.93241 0.0
C3608 C 0.30549 0.39311 0.86713 0.0
C3609 C 0.32009 0.40849 0.87438 0.0
C3610 C 0.32414 0.42942 0.90208 0.0
C3611 C 0.37596 0.48118 0.91591 0.0
C3612 C 0.35903 0.46433 0.90762 0.0
C3613 C 0.31027 0.41535 0.88367 0.0
C3614 C 0.32709 0.43232 0.89196 0.0
H3615 H 0.40621 0.543 0.92076 0.0
H3616 H 0.38185 0.51827 0.90849 0.0
H3617 H 0.33509 0.43935 0.91667 0.0
H3618 H 0.2486 0.38437 0.87893 0.0
H3619 H 0.27338 0.40871 0.89119 0.0
C3620 C 0.40222 0.55289 0.61809 0.0
C3621 C 0.4042 0.52441 0.6172 0.0
C3622 C 0.38693 0.56735 0.6254 0.0
C3623 C 0.34281 0.5605 0.64965 0.0
H3624 H 0.33134 0.63577 0.6474 0.0
C3625 C 0.28146 0.6259 0.68151 0.0
C3626 C 0.27232 0.65295 0.68039 0.0
C3627 C 0.29666 0.61057 0.67433 0.0
C3628 C 0.33378 0.61472 0.64849 0.0
H3629 H 0.38858 0.49094 0.62495 0.0
H3630 H 0.36346 0.51493 0.63722 0.0
H3631 H 0.35645 0.61149 0.63534 0.0
H3632 H 0.27486 0.68242 0.66932 0.0
H3633 H 0.3003 0.65739 0.6576 0.0
H3634 H 0.32035 0.56386 0.66288 0.0
C3635 C 0.37386 0.5268 0.63208 0.0
C3636 C 0.34901 0.60006 0.64122 0.0
C3637 C 0.38893 0.51233 0.62469 0.0
C3638 C 0.28049 0.6624 0.67121 0.0
C3639 C 0.29582 0.6473 0.66413 0.0
C3640 C 0.32782 0.57523 0.657 0.0
C3641 C 0.37172 0.55536 0.63294 0.0
C3642 C 0.35455 0.57189 0.64125 0.0
C3643 C 0.30494 0.62028 0.66513 0.0
C3644 C 0.32215 0.6034 0.65692 0.0
H3645 H 0.41275 0.56468 0.61295 0.0
H3646 H 0.3874 0.58872 0.62509 0.0
H3647 H 0.34529 0.53944 0.65073 0.0
H3648 H 0.27664 0.61598 0.68804 0.0
H3649 H 0.30206 0.59046 0.67615 0.0
C3650 C 0.14567 0.5112 0.42336 0.0
C3651 C 0.13052 0.52372 0.43083 0.0
C3652 C 0.16058 0.52523 0.41581 0.0
C3653 C 0.18556 0.59796 0.40609 0.0
H3654 H 0.21314 0.56085 0.38442 0.0
C3655 C 0.2537 0.65869 0.37548 0.0
C3656 C 0.26133 0.64914 0.36622 0.0
C3657 C 0.23852 0.64394 0.38269 0.0
C3658 C 0.20599 0.57249 0.39029 0.0
H3659 H 0.12208 0.56432 0.43477 0.0
H3660 H 0.14719 0.58755 0.42242 0.0
H3661 H 0.18853 0.5371 0.3968 0.0
H3662 H 0.25614 0.61216 0.35869 0.0
H3663 H 0.23102 0.58724 0.37079 0.0
H3664 H 0.20325 0.63326 0.39968 0.0
C3665 C 0.14768 0.56615 0.42224 0.0
C3666 C 0.19117 0.55815 0.39778 0.0
C3667 C 0.13251 0.55216 0.4297 0.0
C3668 C 0.25176 0.62225 0.36523 0.0
C3669 C 0.23673 0.60724 0.37255 0.0
C3670 C 0.20064 0.61222 0.39867 0.0
C3671 C 0.16276 0.55376 0.41472 0.0
C3672 C 0.17978 0.56985 0.40622 0.0
C3673 C 0.22896 0.61709 0.38181 0.0
C3674 C 0.21191 0.6006 0.39021 0.0
H3675 H 0.14598 0.48979 0.42322 0.0
H3676 H 0.17083 0.513 0.41071 0.0
H3677 H 0.17843 0.60967 0.41195 0.0
H3678 H 0.25968 0.67857 0.37732 0.0
H3679 H 0.2345 0.65417 0.38923 0.0
C3680 C 0.18754 0.09347 0.29684 0.0
C3681 C 0.21328 0.10325 0.29835 0.0
C3682 C 0.18367 0.07159 0.29105 0.0
C3683 C 0.21995 1.01232 0.2859 0.0
H3684 H 0.16563 0.99776 0.26729 0.0
C3685 C 0.2248 0.92835 0.25957 0.0
C3686 C 0.20121 0.91954 0.25538 0.0
C3687 C 0.22383 0.94657 0.2669 0.0
C3688 C 0.18044 1.0013 0.27268 0.0
H3689 H 0.25441 0.10057 0.29395 0.0
H3690 H 0.24761 0.06207 0.28386 0.0
H3691 H 0.16898 0.04203 0.27401 0.0
H3692 H 0.15831 0.9192 0.25648 0.0
H3693 H 0.15659 0.95091 0.26945 0.0
H3694 H 0.2315 0.97173 0.28462 0.0
C3695 C 0.23063 0.071 0.28732 0.0
C3696 C 0.18255 0.02672 0.27639 0.0
C3697 C 0.23448 0.09301 0.29305 0.0
C3698 C 0.17675 0.92621 0.2595 0.0
C3699 C 0.17577 0.94441 0.26687 0.0
C3700 C 0.21766 0.98685 0.28228 0.0
C3701 C 0.20549 0.05928 0.28675 0.0
C3702 C 0.20276 0.03253 0.28283 0.0
C3703 C 0.19925 0.95611 0.27016 0.0
C3704 C 0.19831 0.98123 0.27545 0.0
H3705 H 0.17082 0.10088 0.30086 0.0
H3706 H 0.16408 0.0629 0.29064 0.0
H3707 H 0.23521 0.01625 0.29109 0.0
H3708 H 0.24395 0.92358 0.25653 0.0
H3709 H 0.24231 0.95517 0.26928 0.0
C3710 C 0.23158 0.92474 0.55148 0.0
C3711 C 0.21545 0.94572 0.55455 0.0
C3712 C 0.25537 0.92991 0.54681 0.0
C3713 C 0.29092 0.98241 0.53402 0.0
H3714 H 0.35205 0.93733 0.53882 0.0
C3715 C 0.38055 0.99558 0.51151 0.0
C3716 C 0.38377 0.97237 0.50618 0.0
C3717 C 0.36778 0.99463 0.52021 0.0
C3718 C 0.33524 0.9503 0.53755 0.0
H3719 H 0.21131 0.98845 0.55516 0.0
H3720 H 0.25273 0.99746 0.54711 0.0
H3721 H 0.31116 0.93065 0.54778 0.0
H3722 H 0.37968 0.92961 0.50634 0.0
H3723 H 0.35765 0.92799 0.52148 0.0
H3724 H 0.31454 1.00156 0.52363 0.0
C3725 C 0.2469 0.97705 0.54809 0.0
C3726 C 0.31177 0.94628 0.54256 0.0
C3727 C 0.22306 0.97188 0.55265 0.0
C3728 C 0.37745 0.94787 0.51026 0.0
C3729 C 0.36484 0.94691 0.51898 0.0
C3730 C 0.31438 0.98658 0.5291 0.0
C3731 C 0.26352 0.95615 0.54526 0.0
C3732 C 0.28915 0.9618 0.54063 0.0
C3733 C 0.35824 0.97044 0.52368 0.0
C3734 C 0.33648 0.97006 0.53061 0.0
H3735 H 0.22609 0.90442 0.55289 0.0
H3736 H 0.26748 0.91338 0.5445 0.0
H3737 H 0.2738 0.99453 0.53229 0.0
H3738 H 0.38597 1.01467 0.50863 0.0
H3739 H 0.36328 1.01299 0.52383 0.0
C3740 C 0.38392 0.09157 0.75732 0.0
C3741 C 0.39244 0.08971 0.74793 0.0
C3742 C 0.39581 0.07611 0.76429 0.0
C3743 C 0.4262 0.04439 0.77863 0.0
H3744 H 0.42691 0.97094 0.77075 0.0
C3745 C 0.41557 0.96323 0.8061 0.0
C3746 C 0.39442 0.94622 0.80394 0.0
C3747 C 0.42734 0.97849 0.79905 0.0
C3748 C 0.4271 0.99136 0.77306 0.0
H3749 H 0.42134 0.07175 0.73857 0.0
H3750 H 0.44236 0.04476 0.75082 0.0
H3751 H 0.42555 1.0058 0.75892 0.0
H3752 H 0.37037 0.93035 0.79262 0.0
H3753 H 0.39047 0.95711 0.78038 0.0
H3754 H 0.42521 0.03 0.79276 0.0
C3755 C 0.42629 0.058 0.75276 0.0
C3756 C 0.42664 1.01139 0.76628 0.0
C3757 C 0.41439 0.07357 0.74576 0.0
C3758 C 0.38673 0.94316 0.79449 0.0
C3759 C 0.39839 0.95849 0.78746 0.0
C3760 C 0.42647 0.02437 0.78541 0.0
C3761 C 0.4165 0.05843 0.76203 0.0
C3762 C 0.42472 0.03808 0.76901 0.0
C3763 C 0.41808 0.97713 0.78971 0.0
C3764 C 0.42546 0.99763 0.78269 0.0
H3765 H 0.36725 0.10412 0.75919 0.0
H3766 H 0.38754 0.07678 0.77133 0.0
H3767 H 0.42529 0.0648 0.78094 0.0
H3768 H 0.42222 0.96558 0.81331 0.0
H3769 H 0.4428 0.99229 0.80098 0.0
C3770 C 0.20988 0.05422 0.99811 0.0
C3771 C 0.1993 0.07921 0.99587 0.0
C3772 C 0.23206 0.0521 1.00393 0.0
C3773 C 0.28974 0.09102 1.01114 0.0
H3774 H 0.29851 0.03626 0.03005 0.0
C3775 C 0.36287 0.09417 0.04194 0.0
C3776 C 0.37224 0.07008 0.04561 0.0
C3777 C 0.34671 0.09438 0.03397 0.0
C3778 C 0.29662 0.05128 1.02463 0.0
H3779 H 0.20208 0.12134 0.9985 0.0
H3780 H 0.24068 0.11761 1.00886 0.0
H3781 H 0.25742 0.03874 1.02108 0.0
H3782 H 0.37541 0.02785 0.04318 0.0
H3783 H 0.34716 0.0282 0.02918 0.0
H3784 H 0.32873 0.10401 1.01492 0.0
C3785 C 0.23226 0.09976 1.0059 0.0
C3786 C 0.273 0.05281 1.01956 0.0
C3787 C 0.21011 0.10189 1.00006 0.0
C3788 C 0.36793 0.0466 0.04056 0.0
C3789 C 0.35179 0.0468 0.03259 0.0
C3790 C 0.31338 0.08952 1.01623 0.0
C3791 C 0.24395 0.07493 1.00762 0.0
C3792 C 0.26918 0.07294 1.01287 0.0
C3793 C 0.3398 0.07049 0.02957 0.0
C3794 C 0.31686 0.06985 1.02311 0.0
H3795 H 0.20215 0.03645 0.99487 0.0
H3796 H 0.24072 0.03272 1.00512 0.0
H3797 H 0.28752 0.10638 1.00586 0.0
H3798 H 0.36583 0.11254 0.04572 0.0
H3799 H 0.33769 0.11292 0.03181 0.0
C3800 C 0.85569 0.91393 0.75918 0.0
C3801 C 0.82844 0.91134 0.75718 0.0
C3802 C 0.86414 0.93073 0.76634 0.0
C3803 C 0.84954 0.99359 0.77234 0.0
H3804 H 0.88244 0.98882 0.79699 0.0
C3805 C 0.85336 0.08027 0.79778 0.0
C3806 C 0.87374 0.08162 0.80451 0.0
C3807 C 0.85267 0.05956 0.79135 0.0
C3808 C 0.87385 0.99045 0.79001 0.0
H3809 H 0.78871 0.9212 0.76198 0.0
H3810 H 0.80371 0.95148 0.77429 0.0
H3811 H 0.87041 0.94824 0.78858 0.0
H3812 H 0.91083 0.06407 0.80919 0.0
H3813 H 0.90994 0.02794 0.79773 0.0
H3814 H 0.85316 0.03549 0.77355 0.0
C3815 C 0.81832 0.94042 0.77029 0.0
C3816 C 0.8667 0.96728 0.78531 0.0
C3817 C 0.80982 0.92332 0.76321 0.0
C3818 C 0.89474 0.06325 0.80413 0.0
C3819 C 0.89412 0.04253 0.79763 0.0
C3820 C 0.85701 0.01665 0.77695 0.0
C3821 C 0.84548 0.94514 0.77154 0.0
C3822 C 0.85395 0.96889 0.77656 0.0
C3823 C 0.87246 0.03987 0.79147 0.0
C3824 C 0.86864 0.01539 0.78593 0.0
H3825 H 0.87062 0.90517 0.75465 0.0
H3826 H 0.88519 0.9344 0.76721 0.0
H3827 H 0.84014 0.995 0.76548 0.0
H3828 H 0.83668 0.09388 0.79799 0.0
H3829 H 0.83552 0.05799 0.78678 0.0
C3830 C 0.66029 0.06155 0.53532 0.0
C3831 C 0.65913 0.04096 0.54196 0.0
C3832 C 0.66696 0.05623 0.52596 0.0
C3833 C 0.70761 1.00977 0.51289 0.0
H3834 H 0.6833 0.05088 0.49144 0.0
C3835 C 0.77173 0.01617 0.47986 0.0
C3836 C 0.77688 0.04256 0.47731 0.0
C3837 C 0.75021 1.01009 0.48568 0.0
C3838 C 0.69019 0.03909 0.49734 0.0
H3839 H 0.66183 0.9984 0.54383 0.0
H3840 H 0.67391 0.98919 0.52749 0.0
H3841 H 0.65755 0.05119 0.50603 0.0
H3842 H 0.76237 0.08297 0.47839 0.0
H3843 H 0.72514 0.07244 0.48844 0.0
H3844 H 0.74108 0.99901 0.5045 0.0
C3845 C 0.66997 1.00946 0.52956 0.0
C3846 C 0.67546 0.03927 0.50568 0.0
C3847 C 0.6632 0.01477 0.53892 0.0
C3848 C 0.75888 0.06239 0.4801 0.0
C3849 C 0.7374 0.05631 0.48589 0.0
C3850 C 0.72238 1.00968 0.50458 0.0
C3851 C 0.67266 0.03022 0.52305 0.0
C3852 C 0.68462 0.02548 0.51366 0.0
C3853 C 0.7334 0.03027 0.48904 0.0
C3854 C 0.71445 0.02525 0.49685 0.0
H3855 H 0.65746 0.08195 0.53744 0.0
H3856 H 0.66921 0.07272 0.52115 0.0
H3857 H 0.71534 0.99911 0.51893 0.0
H3858 H 0.78496 1.00037 0.47768 0.0
H3859 H 0.74739 0.98975 0.48787 0.0
C3860 C 0.64682 0.94978 0.29797 0.0
C3861 C 0.63924 0.95487 0.30732 0.0
C3862 C 0.64037 0.96773 0.29083 0.0
C3863 C 0.6354 0.03811 0.28894 0.0
H3864 H 0.62273 0.02382 0.26247 0.0
C3865 C 0.64129 0.09383 0.25053 0.0
C3866 C 0.6681 0.10138 0.25073 0.0
C3867 C 0.63073 0.07863 0.25782 0.0
C3868 C 0.62583 0.02822 0.26986 0.0
H3869 H 0.61619 0.98089 0.31634 0.0
H3870 H 0.6054 1.01255 0.30387 0.0
H3871 H 0.61369 0.98946 0.2742 0.0
H3872 H 0.70456 0.10023 0.25881 0.0
H3873 H 0.68595 0.07399 0.27169 0.0
H3874 H 0.64912 0.07624 0.28455 0.0
C3875 C 0.61656 0.99485 0.30211 0.0
C3876 C 0.62077 1.00857 0.27654 0.0
C3877 C 0.62282 0.97681 0.30923 0.0
C3878 C 0.68386 0.09459 0.25853 0.0
C3879 C 0.67317 0.07976 0.26589 0.0
C3880 C 0.64079 0.05759 0.28225 0.0
C3881 C 0.62636 0.99108 0.29295 0.0
C3882 C 0.62621 1.01312 0.28611 0.0
C3883 C 0.6467 0.07116 0.26549 0.0
C3884 C 0.63676 0.05251 0.27265 0.0
H3885 H 0.65959 0.93315 0.29627 0.0
H3886 H 0.64834 0.96443 0.28384 0.0
H3887 H 0.64011 0.04204 0.29625 0.0
H3888 H 0.62885 0.09864 0.24453 0.0
H3889 H 0.61027 0.0722 0.25738 0.0
C3890 C 0.84189 0.90282 0.04066 0.0
C3891 C 0.84197 0.89314 0.04993 0.0
C3892 C 0.82859 0.88919 0.03358 0.0
C3893 C 0.80251 0.85516 1.01897 0.0
H3894 H 0.72964 0.8444 0.02681 0.0
C3895 C 0.72101 0.86251 0.99173 0.0
C3896 C 0.70241 0.88197 0.99436 0.0
C3897 C 0.73686 0.85019 0.99854 0.0
C3898 C 0.74996 0.84692 1.0245 0.0
H3899 H 0.82984 0.86079 0.05897 0.0
H3900 H 0.80636 0.83685 0.04652 0.0
H3901 H 0.76431 0.8487 0.03866 0.0
H3902 H 0.68409 0.90204 1.00619 0.0
H3903 H 0.71186 0.88105 1.01802 0.0
H3904 H 0.78792 0.85606 1.00487 0.0
C3905 C 0.81655 0.85503 0.04476 0.0
C3906 C 0.76991 0.84911 0.03129 0.0
C3907 C 0.83006 0.86864 0.05186 0.0
C3908 C 0.69819 0.88705 1.00396 0.0
C3909 C 0.71411 0.87486 1.01075 0.0
C3910 C 0.78257 0.85313 1.01218 0.0
C3911 C 0.81497 0.86562 0.03562 0.0
C3912 C 0.7961 0.85489 0.02859 0.0
C3913 C 0.7345 0.85726 1.00808 0.0
C3914 C 0.75585 0.85063 1.01491 0.0
H3915 H 0.8512 0.92153 0.03898 0.0
H3916 H 0.8275 0.8981 0.02664 0.0
H3917 H 0.82264 0.85908 1.01668 0.0
H3918 H 0.72426 0.85786 0.98437 0.0
H3919 H 0.75203 0.83633 0.99627 0.0
C3920 C 0.62668 0.56739 0.80231 0.0
C3921 C 0.63179 0.59467 0.80187 0.0
C3922 C 0.62195 0.55311 0.7941 0.0
C3923 C 0.64644 0.55641 0.77039 0.0
H3924 H 0.61067 0.48895 0.76803 0.0
C3925 C 0.67507 0.48264 0.74151 0.0
C3926 C 0.6788 0.45641 0.74454 0.0
C3927 C 0.66256 0.50103 0.74731 0.0
C3928 C 0.62074 0.50777 0.7686 0.0
H3929 H 0.63235 0.629 0.79269 0.0
H3930 H 0.62423 0.60389 0.77827 0.0
H3931 H 0.59662 0.52019 0.78022 0.0
H3932 H 0.67205 0.42867 0.75593 0.0
H3933 H 0.65062 0.46111 0.76624 0.0
H3934 H 0.67147 0.54363 0.75916 0.0
C3935 C 0.62439 0.59354 0.78496 0.0
C3936 C 0.61259 0.52569 0.77551 0.0
C3937 C 0.62912 0.60787 0.79319 0.0
C3938 C 0.66941 0.44878 0.75344 0.0
C3939 C 0.65696 0.46728 0.75928 0.0
C3940 C 0.65456 0.53857 0.7635 0.0
C3941 C 0.62231 0.56583 0.7853 0.0
C3942 C 0.62598 0.5498 0.77668 0.0
C3943 C 0.65357 0.49362 0.75628 0.0
C3944 C 0.64236 0.51374 0.76273 0.0
H3945 H 0.62874 0.55657 0.80886 0.0
H3946 H 0.62061 0.53176 0.7946 0.0
H3947 H 0.65754 0.57458 0.77121 0.0
H3948 H 0.68148 0.48888 0.73457 0.0
H3949 H 0.65989 0.52108 0.74476 0.0
C3950 C 0.81885 0.36361 0.9952 0.0
C3951 C 0.83496 0.38561 0.99708 0.0
C3952 C 0.80497 0.35122 1.00247 0.0
C3953 C 0.79444 0.35206 0.02861 0.0
H3954 H 0.72015 0.35029 1.02147 0.0
C3955 C 0.69454 0.39452 0.04455 0.0
C3956 C 0.69752 0.3876 0.05407 0.0
C3957 C 0.70953 0.3818 0.03765 0.0
C3958 C 0.74082 0.35035 1.02358 0.0
H3959 H 0.85078 0.41067 1.0081 0.0
H3960 H 0.82633 0.3896 1.02073 0.0
H3961 H 0.75399 0.35064 1.00931 0.0
H3962 H 0.71693 0.36062 0.06379 0.0
H3963 H 0.74316 0.33816 0.05168 0.0
H3964 H 0.78109 0.35449 0.04286 0.0
C3965 C 0.82464 0.38142 1.01371 0.0
C3966 C 0.76032 0.35024 1.01661 0.0
C3967 C 0.83862 0.39366 1.00645 0.0
C3968 C 0.71427 0.36633 0.05649 0.0
C3969 C 0.72939 0.35361 0.04957 0.0
C3970 C 0.77491 0.35242 0.03559 0.0
C3971 C 0.80681 0.36077 1.01175 0.0
C3972 C 0.78728 0.35268 1.01903 0.0
C3973 C 0.72787 0.36188 0.04012 0.0
C3974 C 0.74788 0.35316 0.03311 0.0
H3975 H 0.8161 0.3567 0.98804 0.0
H3976 H 0.79179 0.33505 1.00076 0.0
H3977 H 0.81507 0.35329 0.03071 0.0
H3978 H 0.68148 0.41062 0.04249 0.0
H3979 H 0.70802 0.38893 0.03047 0.0
C3980 C 0.84344 0.44629 0.29167 0.0
C3981 C 0.85846 0.43866 0.29955 0.0
C3982 C 0.85511 0.46094 0.28446 0.0
C3983 C 0.8896 0.48166 0.2684 0.0
H3984 H 0.91816 0.54903 0.27663 0.0
C3985 C 0.91127 0.56131 0.24147 0.0
C3986 C 0.89507 0.58351 0.2432 0.0
C3987 C 0.91693 0.54338 0.24868 0.0
C3988 C 0.9107 0.53011 0.27424 0.0
H3989 H 0.89737 0.43984 0.30608 0.0
H3990 H 0.91769 0.46605 0.2935 0.0
H3991 H 0.90712 0.51511 0.28831 0.0
H3992 H 0.87463 0.6059 0.25406 0.0
H3993 H 0.88483 0.57483 0.26666 0.0
H3994 H 0.89188 0.49696 0.2544 0.0
C3995 C 0.89705 0.46037 0.29287 0.0
C3996 C 0.90448 0.51073 0.2809 0.0
C3997 C 0.88548 0.44532 0.30001 0.0
C3998 C 0.88723 0.58904 0.2525 0.0
C3999 C 0.89308 0.57121 0.25973 0.0
C4000 C 0.89615 0.50085 0.26175 0.0
C4001 C 0.88185 0.46854 0.2851 0.0
C4002 C 0.89299 0.48676 0.27804 0.0
C4003 C 0.90674 0.54755 0.25776 0.0
C4004 C 0.90587 0.52559 0.26463 0.0
H4005 H 0.82257 0.44134 0.29119 0.0
H4006 H 0.84294 0.46729 0.27857 0.0
H4007 H 0.88087 0.46326 0.26605 0.0
H4008 H 0.91809 0.55688 0.2344 0.0
H4009 H 0.92784 0.52544 0.24704 0.0
C4010 C 0.72572 0.5672 0.49744 0.0
C4011 C 0.71744 0.59314 0.49539 0.0
C4012 C 0.74995 0.56259 0.50184 0.0
C4013 C 0.81449 0.59452 0.50675 0.0
H4014 H 0.82005 0.53896 0.5255 0.0
C4015 C 0.88095 0.59238 0.53886 0.0
C4016 C 0.88752 0.56766 0.54278 0.0
C4017 C 0.86882 0.59378 0.53005 0.0
C4018 C 0.81911 0.55403 0.52007 0.0
H4019 H 0.72729 0.63465 0.49664 0.0
H4020 H 0.76933 0.62668 0.50484 0.0
H4021 H 0.77847 0.5457 0.51732 0.0
H4022 H 0.89121 0.52565 0.53993 0.0
H4023 H 0.86937 0.52808 0.52458 0.0
H4024 H 0.85487 0.60395 0.51014 0.0
C4025 C 0.75746 0.60988 0.50274 0.0
C4026 C 0.79515 0.55803 0.51542 0.0
C4027 C 0.73328 0.61449 0.49819 0.0
C4028 C 0.88552 0.54486 0.53717 0.0
C4029 C 0.87326 0.54625 0.52837 0.0
C4030 C 0.83846 0.59072 0.51153 0.0
C4031 C 0.76629 0.58383 0.50442 0.0
C4032 C 0.79238 0.57867 0.50886 0.0
C4033 C 0.863 0.57047 0.52511 0.0
C4034 C 0.84074 0.57079 0.51837 0.0
H4035 H 0.71421 0.55035 0.49513 0.0
H4036 H 0.75628 0.54229 0.5029 0.0
H4037 H 0.81313 0.61021 0.50156 0.0
H4038 H 0.88235 0.61035 0.54298 0.0
H4039 H 0.86113 0.61273 0.52769 0.0
C4040 C 0.27104 0.51674 0.32155 0.0
C4041 C 0.29709 0.52588 0.32294 0.0
C4042 C 0.26633 0.49423 0.31609 0.0
C4043 C 0.29963 0.43893 0.30312 0.0
H4044 H 0.25082 0.45893 0.28318 0.0
C4045 C 0.31501 0.41132 0.26448 0.0
C4046 C 0.29299 0.40814 0.25852 0.0
C4047 C 0.31146 0.4175 0.27398 0.0
C4048 C 0.26403 0.45254 0.28877 0.0
H4049 H 0.33868 0.51721 0.32032 0.0
H4050 H 0.33053 0.4782 0.31089 0.0
H4051 H 0.2514 0.4841 0.29771 0.0
H4052 H 0.24997 0.40685 0.258 0.0
H4053 H 0.24376 0.41784 0.27461 0.0
H4054 H 0.31329 0.40826 0.29388 0.0
C4055 C 0.31368 0.48817 0.31405 0.0
C4056 C 0.26434 0.46699 0.29714 0.0
C4057 C 0.31838 0.51065 0.31949 0.0
C4058 C 0.26733 0.40977 0.26238 0.0
C4059 C 0.26377 0.41596 0.27189 0.0
C4060 C 0.29934 0.42446 0.29473 0.0
C4061 C 0.28759 0.48042 0.31193 0.0
C4062 C 0.28291 0.46106 0.30425 0.0
C4063 C 0.2858 0.42061 0.27773 0.0
C4064 C 0.28229 0.43183 0.28732 0.0
H4065 H 0.25424 0.52776 0.32428 0.0
H4066 H 0.24602 0.48845 0.31471 0.0
H4067 H 0.31386 0.43361 0.30854 0.0
H4068 H 0.33502 0.4104 0.2617 0.0
H4069 H 0.32886 0.42135 0.27824 0.0
C4070 C 0.36136 0.58492 1.00742 0.0
C4071 C 0.37133 0.56063 1.00414 0.0
C4072 C 0.34345 0.58552 1.01489 0.0
C4073 C 0.29104 0.54319 1.02316 0.0
H4074 H 0.27863 0.59977 0.04107 0.0
C4075 C 0.20096 0.54881 0.04822 0.0
C4076 C 0.1904 0.57407 0.05005 0.0
C4077 C 0.22332 0.54598 0.04254 0.0
C4078 C 0.28177 0.58402 0.03602 0.0
H4079 H 0.37351 0.51845 1.00685 0.0
H4080 H 0.34211 0.51952 1.01996 0.0
H4081 H 0.32154 0.59641 0.03317 0.0
H4082 H 0.19312 0.6158 0.04666 0.0
H4083 H 0.23214 0.61081 0.0366 0.0
H4084 H 0.25112 0.53112 0.02585 0.0
C4085 C 0.34767 0.53796 1.01661 0.0
C4086 C 0.30637 0.58195 0.03159 0.0
C4087 C 0.36562 0.53736 1.00914 0.0
C4088 C 0.20114 0.59617 0.04544 0.0
C4089 C 0.22352 0.59333 0.03977 0.0
C4090 C 0.26646 0.54525 0.02759 0.0
C4091 C 0.3353 0.56185 1.01917 0.0
C4092 C 0.31109 0.56175 1.02501 0.0
C4093 C 0.23544 0.56837 0.03861 0.0
C4094 C 0.26148 0.56594 0.03394 0.0
H4095 H 0.36529 0.60317 1.00368 0.0
H4096 H 0.33419 0.60423 1.01669 0.0
H4097 H 0.29391 0.52775 1.01796 0.0
H4098 H 0.19327 0.53147 0.05176 0.0
H4099 H 0.23213 0.52651 0.04176 0.0
C4100 C 0.13759 0.57515 0.74733 0.0
C4101 C 0.1453 0.60184 0.74744 0.0
C4102 C 0.13354 0.56157 0.75575 0.0
C4103 C 0.16402 0.56305 0.77858 0.0
H4104 H 0.12153 0.50041 0.78289 0.0
C4105 C 0.1896 0.48947 0.808 0.0
C4106 C 0.18925 0.46262 0.80545 0.0
C4107 C 0.17861 0.50858 0.80209 0.0
C4108 C 0.13353 0.51786 0.78176 0.0
H4109 H 0.15111 0.63618 0.75635 0.0
H4110 H 0.14428 0.61228 0.77111 0.0
H4111 H 0.10824 0.53205 0.77069 0.0
H4112 H 0.17701 0.43463 0.79475 0.0
H4113 H 0.15817 0.46822 0.78426 0.0
H4114 H 0.19006 0.54838 0.78924 0.0
C4115 C 0.14187 0.60181 0.76451 0.0
C4116 C 0.12582 0.53602 0.77485 0.0
C4117 C 0.14585 0.61544 0.75608 0.0
C4118 C 0.17748 0.4552 0.79689 0.0
C4119 C 0.16653 0.47438 0.79093 0.0
C4120 C 0.17172 0.54493 0.78545 0.0
C4121 C 0.1372 0.57442 0.76442 0.0
C4122 C 0.14143 0.5584 0.77301 0.0
C4123 C 0.16707 0.50127 0.79348 0.0
C4124 C 0.15698 0.5218 0.78694 0.0
H4125 H 0.1371 0.56405 0.74081 0.0
H4126 H 0.13011 0.54044 0.75544 0.0
H4127 H 0.1768 0.5798 0.7772 0.0
H4128 H 0.19791 0.49571 0.81468 0.0
H4129 H 0.17898 0.5291 0.80429 0.0
C4130 C 0.16145 0.49354 0.51036 0.0
C4131 C 0.15627 0.47054 0.50514 0.0
C4132 C 0.17847 0.49242 0.5181 0.0
C4133 C 0.21967 0.4482 0.53299 0.0
H4134 H 0.27628 0.49574 0.52557 0.0
C4135 C 0.32514 0.43181 0.54626 0.0
C4136 C 0.337 0.4543 0.55021 0.0
C4137 C 0.30273 0.43448 0.54057 0.0
C4138 C 0.26059 0.48254 0.52779 0.0
H4139 H 0.16125 0.42785 0.50475 0.0
H4140 H 0.19059 0.42591 0.51826 0.0
H4141 H 0.23262 0.50033 0.51841 0.0
H4142 H 0.33641 0.49722 0.55065 0.0
H4143 H 0.29747 0.50188 0.5407 0.0
H4144 H 0.24784 0.43019 0.54229 0.0
C4145 C 0.18183 0.44481 0.51637 0.0
C4146 C 0.23553 0.48534 0.52378 0.0
C4147 C 0.16494 0.44593 0.50862 0.0
C4148 C 0.32779 0.47955 0.54762 0.0
C4149 C 0.30537 0.48221 0.54196 0.0
C4150 C 0.24474 0.44549 0.53705 0.0
C4151 C 0.19025 0.46827 0.5207 0.0
C4152 C 0.21495 0.46799 0.52626 0.0
C4153 C 0.29192 0.45966 0.53878 0.0
C4154 C 0.26552 0.46239 0.53437 0.0
H4155 H 0.15441 0.51267 0.50794 0.0
H4156 H 0.18427 0.51069 0.5215 0.0
H4157 H 0.20411 0.43457 0.53498 0.0
H4158 H 0.33214 0.41215 0.54808 0.0
H4159 H 0.29312 0.4168 0.53796 0.0
loop_
_geom_bond_atom_site_label_1
_geom_bond_atom_site_label_2
_geom_bond_distance
_geom_bond_site_symmetry_2
_ccdc_geom_bond_type
Ho0 C3 2.811 . S
Ho0 O20 2.322 . S
Ho0 O22 2.378 . S
Ho0 O23 2.524 . S
Ho0 O24 2.381 . S
Ho0 O25 2.669 . S
Ho0 O27 2.346 . S
Ho0 O31 2.305 . S
Ho1 C12 2.811 . S
Ho1 O21 2.346 . S
Ho1 O25 2.305 . S
Ho1 O26 2.322 . S
Ho1 O28 2.378 . S
Ho1 O29 2.524 . S
Ho1 O30 2.381 . S
Ho1 O31 2.669 . S
C2 O20 1.259 . S
C2 O21 1.268 . S
C3 Ho0 2.811 . S
C3 C4 1.488 . S
C3 O22 1.215 . S
C3 O23 1.289 . S
C4 C3 1.488 . S
C4 C5 1.348 . S
C4 C9 1.413 . S
C5 C4 1.348 . S
C5 C6 1.442 . S
C5 H32 0.930 . S
C6 C5 1.442 . S
C6 C7 1.381 . S
C6 H33 0.931 . S
C7 C6 1.381 . S
C7 C8 1.321 . S
C8 C7 1.321 . S
C8 C9 1.403 . S
C8 H34 0.934 . S
C9 C4 1.413 . S
C9 C8 1.403 . S
C9 H35 0.930 . S
C10 O24 1.275 . S
C10 O25 1.256 . S
C11 O26 1.259 . S
C11 O27 1.268 . S
C12 Ho1 2.811 . S
C12 C13 1.488 . S
C12 O28 1.215 . S
C12 O29 1.289 . S
C13 C12 1.488 . S
C13 C14 1.348 . S
C13 C18 1.413 . S
C14 C13 1.348 . S
C14 C15 1.442 . S
C14 H36 0.930 . S
C15 C14 1.442 . S
C15 C16 1.381 . S
C15 H37 0.931 . S
C16 C15 1.381 . S
C16 C17 1.321 . S
C17 C16 1.321 . S
C17 C18 1.403 . S
C17 H38 0.934 . S
C18 C13 1.413 . S
C18 C17 1.403 . S
C18 H39 0.930 . S
C19 O30 1.275 . S
C19 O31 1.256 . S
O20 Ho0 2.322 . S
O20 C2 1.259 . S
O21 Ho1 2.346 . S
O21 C2 1.268 . S
O22 Ho0 2.378 . S
O22 C3 1.215 . S
O23 Ho0 2.524 . S
O23 C3 1.289 . S
O24 Ho0 2.381 . S
O24 C10 1.275 . S
O25 Ho0 2.669 . S
O25 Ho1 2.305 . S
O25 C10 1.256 . S
O26 Ho1 2.322 . S
O26 C11 1.259 . S
O27 Ho0 2.346 . S
O27 C11 1.268 . S
O28 Ho1 2.378 . S
O28 C12 1.215 . S
O29 Ho1 2.524 . S
O29 C12 1.289 . S
O30 Ho1 2.381 . S
O30 C19 1.275 . S
O31 Ho0 2.305 . S
O31 Ho1 2.669 . S
O31 C19 1.256 . S
H32 C5 0.930 . S
H33 C6 0.931 . S
H34 C8 0.934 . S
H35 C9 0.930 . S
H36 C14 0.930 . S
H37 C15 0.931 . S
H38 C17 0.934 . S
H39 C18 0.930 . S
Ho40 C43 2.811 1_455 S
Ho40 O60 2.322 . S
Ho40 O62 2.378 1_455 S
Ho40 O63 2.524 1_455 S
Ho40 O64 2.381 . S
Ho40 O65 2.669 . S
Ho40 O67 2.346 . S
Ho40 O71 2.305 . S
Ho41 C52 2.811 . S
Ho41 O61 2.346 . S
Ho41 O65 2.305 . S
Ho41 O66 2.322 . S
Ho41 O68 2.378 . S
Ho41 O69 2.524 . S
Ho41 O70 2.381 . S
Ho41 O71 2.669 . S
C42 O60 1.259 . S
C42 O61 1.268 . S
C43 Ho40 2.811 1_655 S
C43 C44 1.488 . S
C43 O62 1.215 . S
C43 O63 1.289 . S
C44 C43 1.488 . S
C44 C45 1.348 . S
C44 C49 1.413 . S
C45 C44 1.348 . S
C45 C46 1.442 . S
C45 H72 0.930 . S
C46 C45 1.442 . S
C46 C47 1.381 . S
C46 H73 0.931 . S
C47 C46 1.381 . S
C47 C48 1.321 . S
C48 C47 1.321 . S
C48 C49 1.403 . S
C48 H74 0.934 . S
C49 C44 1.413 . S
C49 C48 1.403 . S
C49 H75 0.930 . S
C50 O64 1.275 . S
C50 O65 1.256 . S
C51 O66 1.259 . S
C51 O67 1.268 . S
C52 Ho41 2.811 . S
C52 C53 1.488 . S
C52 O68 1.215 . S
C52 O69 1.289 . S
C53 C52 1.488 . S
C53 C54 1.348 . S
C53 C58 1.413 . S
C54 C53 1.348 . S
C54 C55 1.442 . S
C54 H76 0.930 . S
C55 C54 1.442 . S
C55 C56 1.381 . S
C55 H77 0.931 . S
C56 C55 1.381 . S
C56 C57 1.321 . S
C57 C56 1.321 . S
C57 C58 1.403 . S
C57 H78 0.934 . S
C58 C53 1.413 . S
C58 C57 1.403 . S
C58 H79 0.930 . S
C59 O70 1.275 . S
C59 O71 1.256 . S
O60 Ho40 2.322 . S
O60 C42 1.259 . S
O61 Ho41 2.346 . S
O61 C42 1.268 . S
O62 Ho40 2.378 1_655 S
O62 C43 1.215 . S
O63 Ho40 2.524 1_655 S
O63 C43 1.289 . S
O64 Ho40 2.381 . S
O64 C50 1.275 . S
O65 Ho40 2.669 . S
O65 Ho41 2.305 . S
O65 C50 1.256 . S
O66 Ho41 2.322 . S
O66 C51 1.259 . S
O67 Ho40 2.346 . S
O67 C51 1.268 . S
O68 Ho41 2.378 . S
O68 C52 1.215 . S
O69 Ho41 2.524 . S
O69 C52 1.289 . S
O70 Ho41 2.381 . S
O70 C59 1.275 . S
O71 Ho40 2.305 . S
O71 Ho41 2.669 . S
O71 C59 1.256 . S
H72 C45 0.930 . S
H73 C46 0.931 . S
H74 C48 0.934 . S
H75 C49 0.930 . S
H76 C54 0.930 . S
H77 C55 0.931 . S
H78 C57 0.934 . S
H79 C58 0.930 . S
Ho80 C83 2.811 . S
Ho80 O100 2.322 . S
Ho80 O102 2.378 . S
Ho80 O103 2.524 . S
Ho80 O104 2.381 . S
Ho80 O105 2.669 . S
Ho80 O107 2.346 . S
Ho80 O111 2.305 . S
Ho81 C92 2.811 . S
Ho81 O101 2.346 . S
Ho81 O105 2.305 . S
Ho81 O106 2.322 . S
Ho81 O108 2.378 . S
Ho81 O109 2.524 . S
Ho81 O110 2.381 . S
Ho81 O111 2.669 . S
C82 O100 1.259 . S
C82 O101 1.268 . S
C83 Ho80 2.811 . S
C83 C84 1.488 . S
C83 O102 1.215 . S
C83 O103 1.289 . S
C84 C83 1.488 . S
C84 C85 1.348 . S
C84 C89 1.413 . S
C85 C84 1.348 . S
C85 C86 1.442 . S
C85 H112 0.930 . S
C86 C85 1.442 . S
C86 C87 1.381 . S
C86 H113 0.931 . S
C87 C86 1.381 . S
C87 C88 1.321 . S
C88 C87 1.321 . S
C88 C89 1.403 . S
C88 H114 0.934 . S
C89 C84 1.413 . S
C89 C88 1.403 . S
C89 H115 0.930 . S
C90 O104 1.275 . S
C90 O105 1.256 . S
C91 O106 1.259 . S
C91 O107 1.268 . S
C92 Ho81 2.811 . S
C92 C93 1.488 . S
C92 O108 1.215 . S
C92 O109 1.289 . S
C93 C92 1.488 . S
C93 C94 1.348 . S
C93 C98 1.413 . S
C94 C93 1.348 . S
C94 C95 1.442 . S
C94 H116 0.930 . S
C95 C94 1.442 . S
C95 C96 1.381 . S
C95 H117 0.931 . S
C96 C95 1.381 . S
C96 C97 1.321 . S
C97 C96 1.321 . S
C97 C98 1.403 . S
C97 H118 0.934 . S
C98 C93 1.413 . S
C98 C97 1.403 . S
C98 H119 0.930 . S
C99 O110 1.275 . S
C99 O111 1.256 . S
O100 Ho80 2.322 . S
O100 C82 1.259 . S
O101 Ho81 2.346 . S
O101 C82 1.268 . S
O102 Ho80 2.378 . S
O102 C83 1.215 . S
O103 Ho80 2.524 . S
O103 C83 1.289 . S
O104 Ho80 2.381 . S
O104 C90 1.275 . S
O105 Ho80 2.669 . S
O105 Ho81 2.305 . S
O105 C90 1.256 . S
O106 Ho81 2.322 . S
O106 C91 1.259 . S
O107 Ho80 2.346 . S
O107 C91 1.268 . S
O108 Ho81 2.378 . S
O108 C92 1.215 . S
O109 Ho81 2.524 . S
O109 C92 1.289 . S
O110 Ho81 2.381 . S
O110 C99 1.275 . S
O111 Ho80 2.305 . S
O111 Ho81 2.669 . S
O111 C99 1.256 . S
H112 C85 0.930 . S
H113 C86 0.931 . S
H114 C88 0.934 . S
H115 C89 0.930 . S
H116 C94 0.930 . S
H117 C95 0.931 . S
H118 C97 0.934 . S
H119 C98 0.930 . S
Ho120 C123 2.811 . S
Ho120 O140 2.322 . S
Ho120 O142 2.378 . S
Ho120 O143 2.524 . S
Ho120 O144 2.381 . S
Ho120 O145 2.669 . S
Ho120 O147 2.346 . S
Ho120 O151 2.305 . S
Ho121 C132 2.811 . S
Ho121 O141 2.346 . S
Ho121 O145 2.305 . S
Ho121 O146 2.322 . S
Ho121 O148 2.378 . S
Ho121 O149 2.524 . S
Ho121 O150 2.381 . S
Ho121 O151 2.669 . S
C122 O140 1.259 . S
C122 O141 1.268 . S
C123 Ho120 2.811 . S
C123 C124 1.488 . S
C123 O142 1.215 . S
C123 O143 1.289 . S
C124 C123 1.488 . S
C124 C125 1.348 . S
C124 C129 1.413 . S
C125 C124 1.348 . S
C125 C126 1.442 . S
C125 H152 0.930 . S
C126 C125 1.442 . S
C126 C127 1.381 . S
C126 H153 0.931 . S
C127 C126 1.381 . S
C127 C128 1.321 . S
C128 C127 1.321 . S
C128 C129 1.403 . S
C128 H154 0.934 . S
C129 C124 1.413 . S
C129 C128 1.403 . S
C129 H155 0.930 . S
C130 O144 1.275 . S
C130 O145 1.256 . S
C131 O146 1.259 . S
C131 O147 1.268 . S
C132 Ho121 2.811 . S
C132 C133 1.488 . S
C132 O148 1.215 . S
C132 O149 1.289 . S
C133 C132 1.488 . S
C133 C134 1.348 . S
C133 C138 1.413 . S
C134 C133 1.348 . S
C134 C135 1.442 . S
C134 H156 0.930 . S
C135 C134 1.442 . S
C135 C136 1.381 . S
C135 H157 0.931 . S
C136 C135 1.381 . S
C136 C137 1.321 . S
C137 C136 1.321 . S
C137 C138 1.403 . S
C137 H158 0.934 . S
C138 C133 1.413 . S
C138 C137 1.403 . S
C138 H159 0.930 . S
C139 O150 1.275 . S
C139 O151 1.256 . S
O140 Ho120 2.322 . S
O140 C122 1.259 . S
O141 Ho121 2.346 . S
O141 C122 1.268 . S
O142 Ho120 2.378 . S
O142 C123 1.215 . S
O143 Ho120 2.524 . S
O143 C123 1.289 . S
O144 Ho120 2.381 . S
O144 C130 1.275 . S
O145 Ho120 2.669 . S
O145 Ho121 2.305 . S
O145 C130 1.256 . S
O146 Ho121 2.322 . S
O146 C131 1.259 . S
O147 Ho120 2.346 . S
O147 C131 1.268 . S
O148 Ho121 2.378 . S
O148 C132 1.215 . S
O149 Ho121 2.524 . S
O149 C132 1.289 . S
O150 Ho121 2.381 . S
O150 C139 1.275 . S
O151 Ho120 2.305 . S
O151 Ho121 2.669 . S
O151 C139 1.256 . S
H152 C125 0.930 . S
H153 C126 0.931 . S
H154 C128 0.934 . S
H155 C129 0.930 . S
H156 C134 0.930 . S
H157 C135 0.931 . S
H158 C137 0.934 . S
H159 C138 0.930 . S
Ho160 C163 2.811 . S
Ho160 O180 2.322 . S
Ho160 O182 2.378 . S
Ho160 O183 2.524 . S
Ho160 O184 2.381 . S
Ho160 O185 2.669 . S
Ho160 O187 2.346 . S
Ho160 O191 2.305 . S
Ho161 C172 2.811 . S
Ho161 O181 2.346 . S
Ho161 O185 2.305 . S
Ho161 O186 2.322 . S
Ho161 O188 2.378 . S
Ho161 O189 2.524 . S
Ho161 O190 2.381 . S
Ho161 O191 2.669 . S
C162 O180 1.259 . S
C162 O181 1.268 . S
C163 Ho160 2.811 . S
C163 C164 1.488 . S
C163 O182 1.215 . S
C163 O183 1.289 . S
C164 C163 1.488 . S
C164 C165 1.348 . S
C164 C169 1.413 . S
C165 C164 1.348 . S
C165 C166 1.442 . S
C165 H192 0.930 . S
C166 C165 1.442 . S
C166 C167 1.381 . S
C166 H193 0.931 . S
C167 C166 1.381 . S
C167 C168 1.321 . S
C168 C167 1.321 . S
C168 C169 1.403 . S
C168 H194 0.934 . S
C169 C164 1.413 . S
C169 C168 1.403 . S
C169 H195 0.930 . S
C170 O184 1.275 . S
C170 O185 1.256 . S
C171 O186 1.259 . S
C171 O187 1.268 . S
C172 Ho161 2.811 . S
C172 C173 1.488 . S
C172 O188 1.215 . S
C172 O189 1.289 . S
C173 C172 1.488 . S
C173 C174 1.348 . S
C173 C178 1.413 . S
C174 C173 1.348 . S
C174 C175 1.442 . S
C174 H196 0.930 . S
C175 C174 1.442 . S
C175 C176 1.381 . S
C175 H197 0.931 . S
C176 C175 1.381 . S
C176 C177 1.321 . S
C177 C176 1.321 . S
C177 C178 1.403 . S
C177 H198 0.934 . S
C178 C173 1.413 . S
C178 C177 1.403 . S
C178 H199 0.930 . S
C179 O190 1.275 . S
C179 O191 1.256 . S
O180 Ho160 2.322 . S
O180 C162 1.259 . S
O181 Ho161 2.346 . S
O181 C162 1.268 . S
O182 Ho160 2.378 . S
O182 C163 1.215 . S
O183 Ho160 2.524 . S
O183 C163 1.289 . S
O184 Ho160 2.381 . S
O184 C170 1.275 . S
O185 Ho160 2.669 . S
O185 Ho161 2.305 . S
O185 C170 1.256 . S
O186 Ho161 2.322 . S
O186 C171 1.259 . S
O187 Ho160 2.346 . S
O187 C171 1.268 . S
O188 Ho161 2.378 . S
O188 C172 1.215 . S
O189 Ho161 2.524 . S
O189 C172 1.289 . S
O190 Ho161 2.381 . S
O190 C179 1.275 . S
O191 Ho160 2.305 . S
O191 Ho161 2.669 . S
O191 C179 1.256 . S
H192 C165 0.930 . S
H193 C166 0.931 . S
H194 C168 0.934 . S
H195 C169 0.930 . S
H196 C174 0.930 . S
H197 C175 0.931 . S
H198 C177 0.934 . S
H199 C178 0.930 . S
Ho200 C203 2.811 . S
Ho200 O220 2.322 . S
Ho200 O222 2.378 . S
Ho200 O223 2.524 . S
Ho200 O224 2.381 . S
Ho200 O225 2.669 . S
Ho200 O227 2.346 . S
Ho200 O231 2.305 . S
Ho201 C212 2.811 . S
Ho201 O221 2.346 . S
Ho201 O225 2.305 . S
Ho201 O226 2.322 . S
Ho201 O228 2.378 . S
Ho201 O229 2.524 . S
Ho201 O230 2.381 . S
Ho201 O231 2.669 . S
C202 O220 1.259 . S
C202 O221 1.268 . S
C203 Ho200 2.811 . S
C203 C204 1.488 . S
C203 O222 1.215 . S
C203 O223 1.289 . S
C204 C203 1.488 . S
C204 C205 1.348 . S
C204 C209 1.413 . S
C205 C204 1.348 . S
C205 C206 1.442 . S
C205 H232 0.930 . S
C206 C205 1.442 . S
C206 C207 1.381 . S
C206 H233 0.931 . S
C207 C206 1.381 . S
C207 C208 1.321 . S
C208 C207 1.321 . S
C208 C209 1.403 . S
C208 H234 0.934 . S
C209 C204 1.413 . S
C209 C208 1.403 . S
C209 H235 0.930 . S
C210 O224 1.275 . S
C210 O225 1.256 . S
C211 O226 1.259 . S
C211 O227 1.268 . S
C212 Ho201 2.811 . S
C212 C213 1.488 . S
C212 O228 1.215 . S
C212 O229 1.289 . S
C213 C212 1.488 . S
C213 C214 1.348 . S
C213 C218 1.413 . S
C214 C213 1.348 . S
C214 C215 1.442 . S
C214 H236 0.930 . S
C215 C214 1.442 . S
C215 C216 1.381 . S
C215 H237 0.931 . S
C216 C215 1.381 . S
C216 C217 1.321 . S
C217 C216 1.321 . S
C217 C218 1.403 . S
C217 H238 0.934 . S
C218 C213 1.413 . S
C218 C217 1.403 . S
C218 H239 0.930 . S
C219 O230 1.275 . S
C219 O231 1.256 . S
O220 Ho200 2.322 . S
O220 C202 1.259 . S
O221 Ho201 2.346 . S
O221 C202 1.268 . S
O222 Ho200 2.378 . S
O222 C203 1.215 . S
O223 Ho200 2.524 . S
O223 C203 1.289 . S
O224 Ho200 2.381 . S
O224 C210 1.275 . S
O225 Ho200 2.669 . S
O225 Ho201 2.305 . S
O225 C210 1.256 . S
O226 Ho201 2.322 . S
O226 C211 1.259 . S
O227 Ho200 2.346 . S
O227 C211 1.268 . S
O228 Ho201 2.378 . S
O228 C212 1.215 . S
O229 Ho201 2.524 . S
O229 C212 1.289 . S
O230 Ho201 2.381 . S
O230 C219 1.275 . S
O231 Ho200 2.305 . S
O231 Ho201 2.669 . S
O231 C219 1.256 . S
H232 C205 0.930 . S
H233 C206 0.931 . S
H234 C208 0.934 . S
H235 C209 0.930 . S
H236 C214 0.930 . S
H237 C215 0.931 . S
H238 C217 0.934 . S
H239 C218 0.930 . S
Ho240 C243 2.811 . S
Ho240 O260 2.322 . S
Ho240 O262 2.378 . S
Ho240 O263 2.524 . S
Ho240 O264 2.381 . S
Ho240 O265 2.669 . S
Ho240 O267 2.346 . S
Ho240 O271 2.305 . S
Ho241 C252 2.811 . S
Ho241 O261 2.346 . S
Ho241 O265 2.305 . S
Ho241 O266 2.322 . S
Ho241 O268 2.378 . S
Ho241 O269 2.524 . S
Ho241 O270 2.381 . S
Ho241 O271 2.669 . S
C242 O260 1.259 . S
C242 O261 1.268 . S
C243 Ho240 2.811 . S
C243 C244 1.488 . S
C243 O262 1.215 . S
C243 O263 1.289 . S
C244 C243 1.488 . S
C244 C245 1.348 . S
C244 C249 1.413 . S
C245 C244 1.348 . S
C245 C246 1.442 . S
C245 H272 0.930 . S
C246 C245 1.442 . S
C246 C247 1.381 . S
C246 H273 0.931 . S
C247 C246 1.381 . S
C247 C248 1.321 . S
C248 C247 1.321 . S
C248 C249 1.403 . S
C248 H274 0.934 . S
C249 C244 1.413 . S
C249 C248 1.403 . S
C249 H275 0.930 . S
C250 O264 1.275 . S
C250 O265 1.256 . S
C251 O266 1.259 . S
C251 O267 1.268 . S
C252 Ho241 2.811 . S
C252 C253 1.488 . S
C252 O268 1.215 . S
C252 O269 1.289 . S
C253 C252 1.488 . S
C253 C254 1.348 . S
C253 C258 1.413 . S
C254 C253 1.348 . S
C254 C255 1.442 . S
C254 H276 0.930 . S
C255 C254 1.442 . S
C255 C256 1.381 . S
C255 H277 0.931 . S
C256 C255 1.381 . S
C256 C257 1.321 . S
C257 C256 1.321 . S
C257 C258 1.403 . S
C257 H278 0.934 . S
C258 C253 1.413 . S
C258 C257 1.403 . S
C258 H279 0.930 . S
C259 O270 1.275 . S
C259 O271 1.256 . S
O260 Ho240 2.322 . S
O260 C242 1.259 . S
O261 Ho241 2.346 . S
O261 C242 1.268 . S
O262 Ho240 2.378 . S
O262 C243 1.215 . S
O263 Ho240 2.524 . S
O263 C243 1.289 . S
O264 Ho240 2.381 . S
O264 C250 1.275 . S
O265 Ho240 2.669 . S
O265 Ho241 2.305 . S
O265 C250 1.256 . S
O266 Ho241 2.322 . S
O266 C251 1.259 . S
O267 Ho240 2.346 . S
O267 C251 1.268 . S
O268 Ho241 2.378 . S
O268 C252 1.215 . S
O269 Ho241 2.524 . S
O269 C252 1.289 . S
O270 Ho241 2.381 . S
O270 C259 1.275 . S
O271 Ho240 2.305 . S
O271 Ho241 2.669 . S
O271 C259 1.256 . S
H272 C245 0.930 . S
H273 C246 0.931 . S
H274 C248 0.934 . S
H275 C249 0.930 . S
H276 C254 0.930 . S
H277 C255 0.931 . S
H278 C257 0.934 . S
H279 C258 0.930 . S
Ho280 C283 2.811 1_455 S
Ho280 O300 2.322 . S
Ho280 O302 2.378 1_455 S
Ho280 O303 2.524 1_455 S
Ho280 O304 2.381 . S
Ho280 O305 2.669 . S
Ho280 O307 2.346 . S
Ho280 O311 2.305 . S
Ho281 C292 2.811 . S
Ho281 O301 2.346 . S
Ho281 O305 2.305 . S
Ho281 O306 2.322 . S
Ho281 O308 2.378 . S
Ho281 O309 2.524 . S
Ho281 O310 2.381 . S
Ho281 O311 2.669 . S
C282 O300 1.259 . S
C282 O301 1.268 . S
C283 Ho280 2.811 1_655 S
C283 C284 1.488 . S
C283 O302 1.215 . S
C283 O303 1.289 . S
C284 C283 1.488 . S
C284 C285 1.348 . S
C284 C289 1.413 . S
C285 C284 1.348 . S
C285 C286 1.442 . S
C285 H312 0.930 . S
C286 C285 1.442 . S
C286 C287 1.381 . S
C286 H313 0.931 . S
C287 C286 1.381 . S
C287 C288 1.321 . S
C288 C287 1.321 . S
C288 C289 1.403 . S
C288 H314 0.934 . S
C289 C284 1.413 . S
C289 C288 1.403 . S
C289 H315 0.930 . S
C290 O304 1.275 . S
C290 O305 1.256 . S
C291 O306 1.259 . S
C291 O307 1.268 . S
C292 Ho281 2.811 . S
C292 C293 1.488 . S
C292 O308 1.215 . S
C292 O309 1.289 . S
C293 C292 1.488 . S
C293 C294 1.348 . S
C293 C298 1.413 . S
C294 C293 1.348 . S
C294 C295 1.442 . S
C294 H316 0.930 . S
C295 C294 1.442 . S
C295 C296 1.381 . S
C295 H317 0.931 . S
C296 C295 1.381 . S
C296 C297 1.321 . S
C297 C296 1.321 . S
C297 C298 1.403 . S
C297 H318 0.934 . S
C298 C293 1.413 . S
C298 C297 1.403 . S
C298 H319 0.930 . S
C299 O310 1.275 . S
C299 O311 1.256 . S
O300 Ho280 2.322 . S
O300 C282 1.259 . S
O301 Ho281 2.346 . S
O301 C282 1.268 . S
O302 Ho280 2.378 1_655 S
O302 C283 1.215 . S
O303 Ho280 2.524 1_655 S
O303 C283 1.289 . S
O304 Ho280 2.381 . S
O304 C290 1.275 . S
O305 Ho280 2.669 . S
O305 Ho281 2.305 . S
O305 C290 1.256 . S
O306 Ho281 2.322 . S
O306 C291 1.259 . S
O307 Ho280 2.346 . S
O307 C291 1.268 . S
O308 Ho281 2.378 . S
O308 C292 1.215 . S
O309 Ho281 2.524 . S
O309 C292 1.289 . S
O310 Ho281 2.381 . S
O310 C299 1.275 . S
O311 Ho280 2.305 . S
O311 Ho281 2.669 . S
O311 C299 1.256 . S
H312 C285 0.930 . S
H313 C286 0.931 . S
H314 C288 0.934 . S
H315 C289 0.930 . S
H316 C294 0.930 . S
H317 C295 0.931 . S
H318 C297 0.934 . S
H319 C298 0.930 . S
Ho320 C323 2.811 . S
Ho320 O340 2.322 . S
Ho320 O342 2.378 . S
Ho320 O343 2.524 . S
Ho320 O344 2.381 . S
Ho320 O345 2.669 . S
Ho320 O347 2.346 . S
Ho320 O351 2.305 . S
Ho321 C332 2.811 . S
Ho321 O341 2.346 . S
Ho321 O345 2.305 . S
Ho321 O346 2.322 . S
Ho321 O348 2.378 . S
Ho321 O349 2.524 . S
Ho321 O350 2.381 . S
Ho321 O351 2.669 . S
C322 O340 1.259 . S
C322 O341 1.268 . S
C323 Ho320 2.811 . S
C323 C324 1.488 . S
C323 O342 1.215 . S
C323 O343 1.289 . S
C324 C323 1.488 . S
C324 C325 1.348 . S
C324 C329 1.413 . S
C325 C324 1.348 . S
C325 C326 1.442 . S
C325 H352 0.930 . S
C326 C325 1.442 . S
C326 C327 1.381 . S
C326 H353 0.931 . S
C327 C326 1.381 . S
C327 C328 1.321 . S
C328 C327 1.321 . S
C328 C329 1.403 . S
C328 H354 0.934 . S
C329 C324 1.413 . S
C329 C328 1.403 . S
C329 H355 0.930 . S
C330 O344 1.275 . S
C330 O345 1.256 . S
C331 O346 1.259 . S
C331 O347 1.268 . S
C332 Ho321 2.811 . S
C332 C333 1.488 . S
C332 O348 1.215 . S
C332 O349 1.289 . S
C333 C332 1.488 . S
C333 C334 1.348 . S
C333 C338 1.413 . S
C334 C333 1.348 . S
C334 C335 1.442 . S
C334 H356 0.930 . S
C335 C334 1.442 . S
C335 C336 1.381 . S
C335 H357 0.931 . S
C336 C335 1.381 . S
C336 C337 1.321 . S
C337 C336 1.321 . S
C337 C338 1.403 . S
C337 H358 0.934 . S
C338 C333 1.413 . S
C338 C337 1.403 . S
C338 H359 0.930 . S
C339 O350 1.275 . S
C339 O351 1.256 . S
O340 Ho320 2.322 . S
O340 C322 1.259 . S
O341 Ho321 2.346 . S
O341 C322 1.268 . S
O342 Ho320 2.378 . S
O342 C323 1.215 . S
O343 Ho320 2.524 . S
O343 C323 1.289 . S
O344 Ho320 2.381 . S
O344 C330 1.275 . S
O345 Ho320 2.669 . S
O345 Ho321 2.305 . S
O345 C330 1.256 . S
O346 Ho321 2.322 . S
O346 C331 1.259 . S
O347 Ho320 2.346 . S
O347 C331 1.268 . S
O348 Ho321 2.378 . S
O348 C332 1.215 . S
O349 Ho321 2.524 . S
O349 C332 1.289 . S
O350 Ho321 2.381 . S
O350 C339 1.275 . S
O351 Ho320 2.305 . S
O351 Ho321 2.669 . S
O351 C339 1.256 . S
H352 C325 0.930 . S
H353 C326 0.931 . S
H354 C328 0.934 . S
H355 C329 0.930 . S
H356 C334 0.930 . S
H357 C335 0.931 . S
H358 C337 0.934 . S
H359 C338 0.930 . S
Ho360 C363 2.811 . S
Ho360 O380 2.322 . S
Ho360 O382 2.378 . S
Ho360 O383 2.524 . S
Ho360 O384 2.381 . S
Ho360 O385 2.669 . S
Ho360 O387 2.346 . S
Ho360 O391 2.305 . S
Ho361 C372 2.811 1_655 S
Ho361 O381 2.346 . S
Ho361 O385 2.305 . S
Ho361 O386 2.322 . S
Ho361 O388 2.378 1_655 S
Ho361 O389 2.524 1_655 S
Ho361 O390 2.381 . S
Ho361 O391 2.669 . S
C362 O380 1.259 . S
C362 O381 1.268 . S
C363 Ho360 2.811 . S
C363 C364 1.488 . S
C363 O382 1.215 . S
C363 O383 1.289 . S
C364 C363 1.488 . S
C364 C365 1.348 . S
C364 C369 1.413 . S
C365 C364 1.348 . S
C365 C366 1.442 . S
C365 H392 0.930 . S
C366 C365 1.442 . S
C366 C367 1.381 . S
C366 H393 0.931 . S
C367 C366 1.381 . S
C367 C368 1.321 . S
C368 C367 1.321 . S
C368 C369 1.403 . S
C368 H394 0.934 . S
C369 C364 1.413 . S
C369 C368 1.403 . S
C369 H395 0.930 . S
C370 O384 1.275 . S
C370 O385 1.256 . S
C371 O386 1.259 . S
C371 O387 1.268 . S
C372 Ho361 2.811 1_455 S
C372 C373 1.488 . S
C372 O388 1.215 . S
C372 O389 1.289 . S
C373 C372 1.488 . S
C373 C374 1.348 . S
C373 C378 1.413 . S
C374 C373 1.348 . S
C374 C375 1.442 . S
C374 H396 0.930 . S
C375 C374 1.442 . S
C375 C376 1.381 . S
C375 H397 0.931 . S
C376 C375 1.381 . S
C376 C377 1.321 . S
C377 C376 1.321 . S
C377 C378 1.403 . S
C377 H398 0.934 . S
C378 C373 1.413 . S
C378 C377 1.403 . S
C378 H399 0.930 . S
C379 O390 1.275 . S
C379 O391 1.256 . S
O380 Ho360 2.322 . S
O380 C362 1.259 . S
O381 Ho361 2.346 . S
O381 C362 1.268 . S
O382 Ho360 2.378 . S
O382 C363 1.215 . S
O383 Ho360 2.524 . S
O383 C363 1.289 . S
O384 Ho360 2.381 . S
O384 C370 1.275 . S
O385 Ho360 2.669 . S
O385 Ho361 2.305 . S
O385 C370 1.256 . S
O386 Ho361 2.322 . S
O386 C371 1.259 . S
O387 Ho360 2.346 . S
O387 C371 1.268 . S
O388 Ho361 2.378 1_455 S
O388 C372 1.215 . S
O389 Ho361 2.524 1_455 S
O389 C372 1.289 . S
O390 Ho361 2.381 . S
O390 C379 1.275 . S
O391 Ho360 2.305 . S
O391 Ho361 2.669 . S
O391 C379 1.256 . S
H392 C365 0.930 . S
H393 C366 0.931 . S
H394 C368 0.934 . S
H395 C369 0.930 . S
H396 C374 0.930 . S
H397 C375 0.931 . S
H398 C377 0.934 . S
H399 C378 0.930 . S
Ho400 C403 2.811 . S
Ho400 O420 2.322 . S
Ho400 O422 2.378 . S
Ho400 O423 2.524 . S
Ho400 O424 2.381 . S
Ho400 O425 2.669 . S
Ho400 O427 2.346 . S
Ho400 O431 2.305 . S
Ho401 C412 2.811 . S
Ho401 O421 2.346 . S
Ho401 O425 2.305 . S
Ho401 O426 2.322 . S
Ho401 O428 2.378 . S
Ho401 O429 2.524 . S
Ho401 O430 2.381 . S
Ho401 O431 2.669 . S
C402 O420 1.259 . S
C402 O421 1.268 . S
C403 Ho400 2.811 . S
C403 C404 1.488 . S
C403 O422 1.215 . S
C403 O423 1.289 . S
C404 C403 1.488 . S
C404 C405 1.348 . S
C404 C409 1.413 . S
C405 C404 1.348 . S
C405 C406 1.442 . S
C405 H432 0.930 . S
C406 C405 1.442 . S
C406 C407 1.381 . S
C406 H433 0.931 . S
C407 C406 1.381 . S
C407 C408 1.321 . S
C408 C407 1.321 . S
C408 C409 1.403 . S
C408 H434 0.934 . S
C409 C404 1.413 . S
C409 C408 1.403 . S
C409 H435 0.930 . S
C410 O424 1.275 . S
C410 O425 1.256 . S
C411 O426 1.259 . S
C411 O427 1.268 . S
C412 Ho401 2.811 . S
C412 C413 1.488 . S
C412 O428 1.215 . S
C412 O429 1.289 . S
C413 C412 1.488 . S
C413 C414 1.348 . S
C413 C418 1.413 . S
C414 C413 1.348 . S
C414 C415 1.442 . S
C414 H436 0.930 . S
C415 C414 1.442 . S
C415 C416 1.381 . S
C415 H437 0.931 . S
C416 C415 1.381 . S
C416 C417 1.321 . S
C417 C416 1.321 . S
C417 C418 1.403 . S
C417 H438 0.934 . S
C418 C413 1.413 . S
C418 C417 1.403 . S
C418 H439 0.930 . S
C419 O430 1.275 . S
C419 O431 1.256 . S
O420 Ho400 2.322 . S
O420 C402 1.259 . S
O421 Ho401 2.346 . S
O421 C402 1.268 . S
O422 Ho400 2.378 . S
O422 C403 1.215 . S
O423 Ho400 2.524 . S
O423 C403 1.289 . S
O424 Ho400 2.381 . S
O424 C410 1.275 . S
O425 Ho400 2.669 . S
O425 Ho401 2.305 . S
O425 C410 1.256 . S
O426 Ho401 2.322 . S
O426 C411 1.259 . S
O427 Ho400 2.346 . S
O427 C411 1.268 . S
O428 Ho401 2.378 . S
O428 C412 1.215 . S
O429 Ho401 2.524 . S
O429 C412 1.289 . S
O430 Ho401 2.381 . S
O430 C419 1.275 . S
O431 Ho400 2.305 . S
O431 Ho401 2.669 . S
O431 C419 1.256 . S
H432 C405 0.930 . S
H433 C406 0.931 . S
H434 C408 0.934 . S
H435 C409 0.930 . S
H436 C414 0.930 . S
H437 C415 0.931 . S
H438 C417 0.934 . S
H439 C418 0.930 . S
Ho440 C443 2.811 . S
Ho440 O460 2.322 . S
Ho440 O462 2.378 . S
Ho440 O463 2.524 . S
Ho440 O464 2.381 . S
Ho440 O465 2.669 . S
Ho440 O467 2.346 . S
Ho440 O471 2.305 . S
Ho441 C452 2.811 . S
Ho441 O461 2.346 . S
Ho441 O465 2.305 . S
Ho441 O466 2.322 . S
Ho441 O468 2.378 . S
Ho441 O469 2.524 . S
Ho441 O470 2.381 . S
Ho441 O471 2.669 . S
C442 O460 1.259 . S
C442 O461 1.268 . S
C443 Ho440 2.811 . S
C443 C444 1.488 . S
C443 O462 1.215 . S
C443 O463 1.289 . S
C444 C443 1.488 . S
C444 C445 1.348 . S
C444 C449 1.413 . S
C445 C444 1.348 . S
C445 C446 1.442 . S
C445 H472 0.930 . S
C446 C445 1.442 . S
C446 C447 1.381 . S
C446 H473 0.931 . S
C447 C446 1.381 . S
C447 C448 1.321 . S
C448 C447 1.321 . S
C448 C449 1.403 . S
C448 H474 0.934 . S
C449 C444 1.413 . S
C449 C448 1.403 . S
C449 H475 0.930 . S
C450 O464 1.275 . S
C450 O465 1.256 . S
C451 O466 1.259 . S
C451 O467 1.268 . S
C452 Ho441 2.811 . S
C452 C453 1.488 . S
C452 O468 1.215 . S
C452 O469 1.289 . S
C453 C452 1.488 . S
C453 C454 1.348 . S
C453 C458 1.413 . S
C454 C453 1.348 . S
C454 C455 1.442 . S
C454 H476 0.930 . S
C455 C454 1.442 . S
C455 C456 1.381 . S
C455 H477 0.931 . S
C456 C455 1.381 . S
C456 C457 1.321 . S
C457 C456 1.321 . S
C457 C458 1.403 . S
C457 H478 0.934 . S
C458 C453 1.413 . S
C458 C457 1.403 . S
C458 H479 0.930 . S
C459 O470 1.275 . S
C459 O471 1.256 . S
O460 Ho440 2.322 . S
O460 C442 1.259 . S
O461 Ho441 2.346 . S
O461 C442 1.268 . S
O462 Ho440 2.378 . S
O462 C443 1.215 . S
O463 Ho440 2.524 . S
O463 C443 1.289 . S
O464 Ho440 2.381 . S
O464 C450 1.275 . S
O465 Ho440 2.669 . S
O465 Ho441 2.305 . S
O465 C450 1.256 . S
O466 Ho441 2.322 . S
O466 C451 1.259 . S
O467 Ho440 2.346 . S
O467 C451 1.268 . S
O468 Ho441 2.378 . S
O468 C452 1.215 . S
O469 Ho441 2.524 . S
O469 C452 1.289 . S
O470 Ho441 2.381 . S
O470 C459 1.275 . S
O471 Ho440 2.305 . S
O471 Ho441 2.669 . S
O471 C459 1.256 . S
H472 C445 0.930 . S
H473 C446 0.931 . S
H474 C448 0.934 . S
H475 C449 0.930 . S
H476 C454 0.930 . S
H477 C455 0.931 . S
H478 C457 0.934 . S
H479 C458 0.930 . S
Ho480 C483 2.811 . S
Ho480 O500 2.322 . S
Ho480 O502 2.378 . S
Ho480 O503 2.524 . S
Ho480 O504 2.381 . S
Ho480 O505 2.669 . S
Ho480 O507 2.346 . S
Ho480 O511 2.305 . S
Ho481 C492 2.811 . S
Ho481 O501 2.346 . S
Ho481 O505 2.305 . S
Ho481 O506 2.322 . S
Ho481 O508 2.378 . S
Ho481 O509 2.524 . S
Ho481 O510 2.381 . S
Ho481 O511 2.669 . S
C482 O500 1.259 . S
C482 O501 1.268 . S
C483 Ho480 2.811 . S
C483 C484 1.488 . S
C483 O502 1.215 . S
C483 O503 1.289 . S
C484 C483 1.488 . S
C484 C485 1.348 . S
C484 C489 1.413 . S
C485 C484 1.348 . S
C485 C486 1.442 . S
C485 H512 0.930 . S
C486 C485 1.442 . S
C486 C487 1.381 . S
C486 H513 0.931 . S
C487 C486 1.381 . S
C487 C488 1.321 . S
C488 C487 1.321 . S
C488 C489 1.403 . S
C488 H514 0.934 . S
C489 C484 1.413 . S
C489 C488 1.403 . S
C489 H515 0.930 . S
C490 O504 1.275 . S
C490 O505 1.256 . S
C491 O506 1.259 . S
C491 O507 1.268 . S
C492 Ho481 2.811 . S
C492 C493 1.488 . S
C492 O508 1.215 . S
C492 O509 1.289 . S
C493 C492 1.488 . S
C493 C494 1.348 . S
C493 C498 1.413 . S
C494 C493 1.348 . S
C494 C495 1.442 . S
C494 H516 0.930 . S
C495 C494 1.442 . S
C495 C496 1.381 . S
C495 H517 0.931 . S
C496 C495 1.381 . S
C496 C497 1.321 . S
C497 C496 1.321 . S
C497 C498 1.403 . S
C497 H518 0.934 . S
C498 C493 1.413 . S
C498 C497 1.403 . S
C498 H519 0.930 . S
C499 O510 1.275 . S
C499 O511 1.256 . S
O500 Ho480 2.322 . S
O500 C482 1.259 . S
O501 Ho481 2.346 . S
O501 C482 1.268 . S
O502 Ho480 2.378 . S
O502 C483 1.215 . S
O503 Ho480 2.524 . S
O503 C483 1.289 . S
O504 Ho480 2.381 . S
O504 C490 1.275 . S
O505 Ho480 2.669 . S
O505 Ho481 2.305 . S
O505 C490 1.256 . S
O506 Ho481 2.322 . S
O506 C491 1.259 . S
O507 Ho480 2.346 . S
O507 C491 1.268 . S
O508 Ho481 2.378 . S
O508 C492 1.215 . S
O509 Ho481 2.524 . S
O509 C492 1.289 . S
O510 Ho481 2.381 . S
O510 C499 1.275 . S
O511 Ho480 2.305 . S
O511 Ho481 2.669 . S
O511 C499 1.256 . S
H512 C485 0.930 . S
H513 C486 0.931 . S
H514 C488 0.934 . S
H515 C489 0.930 . S
H516 C494 0.930 . S
H517 C495 0.931 . S
H518 C497 0.934 . S
H519 C498 0.930 . S
Ho520 C523 2.811 . S
Ho520 O540 2.322 . S
Ho520 O542 2.378 . S
Ho520 O543 2.524 . S
Ho520 O544 2.381 . S
Ho520 O545 2.669 . S
Ho520 O547 2.346 . S
Ho520 O551 2.305 . S
Ho521 C532 2.811 . S
Ho521 O541 2.346 . S
Ho521 O545 2.305 . S
Ho521 O546 2.322 . S
Ho521 O548 2.378 . S
Ho521 O549 2.524 . S
Ho521 O550 2.381 . S
Ho521 O551 2.669 . S
C522 O540 1.259 . S
C522 O541 1.268 . S
C523 Ho520 2.811 . S
C523 C524 1.488 . S
C523 O542 1.215 . S
C523 O543 1.289 . S
C524 C523 1.488 . S
C524 C525 1.348 . S
C524 C529 1.413 . S
C525 C524 1.348 . S
C525 C526 1.442 . S
C525 H552 0.930 . S
C526 C525 1.442 . S
C526 C527 1.381 . S
C526 H553 0.931 . S
C527 C526 1.381 . S
C527 C528 1.321 . S
C528 C527 1.321 . S
C528 C529 1.403 . S
C528 H554 0.934 . S
C529 C524 1.413 . S
C529 C528 1.403 . S
C529 H555 0.930 . S
C530 O544 1.275 . S
C530 O545 1.256 . S
C531 O546 1.259 . S
C531 O547 1.268 . S
C532 Ho521 2.811 . S
C532 C533 1.488 . S
C532 O548 1.215 . S
C532 O549 1.289 . S
C533 C532 1.488 . S
C533 C534 1.348 . S
C533 C538 1.413 . S
C534 C533 1.348 . S
C534 C535 1.442 . S
C534 H556 0.930 . S
C535 C534 1.442 . S
C535 C536 1.381 . S
C535 H557 0.931 . S
C536 C535 1.381 . S
C536 C537 1.321 . S
C537 C536 1.321 . S
C537 C538 1.403 . S
C537 H558 0.934 . S
C538 C533 1.413 . S
C538 C537 1.403 . S
C538 H559 0.930 . S
C539 O550 1.275 . S
C539 O551 1.256 . S
O540 Ho520 2.322 . S
O540 C522 1.259 . S
O541 Ho521 2.346 . S
O541 C522 1.268 . S
O542 Ho520 2.378 . S
O542 C523 1.215 . S
O543 Ho520 2.524 . S
O543 C523 1.289 . S
O544 Ho520 2.381 . S
O544 C530 1.275 . S
O545 Ho520 2.669 . S
O545 Ho521 2.305 . S
O545 C530 1.256 . S
O546 Ho521 2.322 . S
O546 C531 1.259 . S
O547 Ho520 2.346 . S
O547 C531 1.268 . S
O548 Ho521 2.378 . S
O548 C532 1.215 . S
O549 Ho521 2.524 . S
O549 C532 1.289 . S
O550 Ho521 2.381 . S
O550 C539 1.275 . S
O551 Ho520 2.305 . S
O551 Ho521 2.669 . S
O551 C539 1.256 . S
H552 C525 0.930 . S
H553 C526 0.931 . S
H554 C528 0.934 . S
H555 C529 0.930 . S
H556 C534 0.930 . S
H557 C535 0.931 . S
H558 C537 0.934 . S
H559 C538 0.930 . S
Ho560 C563 2.811 . S
Ho560 O580 2.322 . S
Ho560 O582 2.378 . S
Ho560 O583 2.524 . S
Ho560 O584 2.381 . S
Ho560 O585 2.669 . S
Ho560 O587 2.346 . S
Ho560 O591 2.305 . S
Ho561 C572 2.811 . S
Ho561 O581 2.346 . S
Ho561 O585 2.305 . S
Ho561 O586 2.322 . S
Ho561 O588 2.378 . S
Ho561 O589 2.524 . S
Ho561 O590 2.381 . S
Ho561 O591 2.669 . S
C562 O580 1.259 . S
C562 O581 1.268 . S
C563 Ho560 2.811 . S
C563 C564 1.488 . S
C563 O582 1.215 . S
C563 O583 1.289 . S
C564 C563 1.488 . S
C564 C565 1.348 . S
C564 C569 1.413 . S
C565 C564 1.348 . S
C565 C566 1.442 . S
C565 H592 0.930 . S
C566 C565 1.442 . S
C566 C567 1.381 . S
C566 H593 0.931 . S
C567 C566 1.381 . S
C567 C568 1.321 . S
C568 C567 1.321 . S
C568 C569 1.403 . S
C568 H594 0.934 . S
C569 C564 1.413 . S
C569 C568 1.403 . S
C569 H595 0.930 . S
C570 O584 1.275 . S
C570 O585 1.256 . S
C571 O586 1.259 . S
C571 O587 1.268 . S
C572 Ho561 2.811 . S
C572 C573 1.488 . S
C572 O588 1.215 . S
C572 O589 1.289 . S
C573 C572 1.488 . S
C573 C574 1.348 . S
C573 C578 1.413 . S
C574 C573 1.348 . S
C574 C575 1.442 . S
C574 H596 0.930 . S
C575 C574 1.442 . S
C575 C576 1.381 . S
C575 H597 0.931 . S
C576 C575 1.381 . S
C576 C577 1.321 . S
C577 C576 1.321 . S
C577 C578 1.403 . S
C577 H598 0.934 . S
C578 C573 1.413 . S
C578 C577 1.403 . S
C578 H599 0.930 . S
C579 O590 1.275 . S
C579 O591 1.256 . S
O580 Ho560 2.322 . S
O580 C562 1.259 . S
O581 Ho561 2.346 . S
O581 C562 1.268 . S
O582 Ho560 2.378 . S
O582 C563 1.215 . S
O583 Ho560 2.524 . S
O583 C563 1.289 . S
O584 Ho560 2.381 . S
O584 C570 1.275 . S
O585 Ho560 2.669 . S
O585 Ho561 2.305 . S
O585 C570 1.256 . S
O586 Ho561 2.322 . S
O586 C571 1.259 . S
O587 Ho560 2.346 . S
O587 C571 1.268 . S
O588 Ho561 2.378 . S
O588 C572 1.215 . S
O589 Ho561 2.524 . S
O589 C572 1.289 . S
O590 Ho561 2.381 . S
O590 C579 1.275 . S
O591 Ho560 2.305 . S
O591 Ho561 2.669 . S
O591 C579 1.256 . S
H592 C565 0.930 . S
H593 C566 0.931 . S
H594 C568 0.934 . S
H595 C569 0.930 . S
H596 C574 0.930 . S
H597 C575 0.931 . S
H598 C577 0.934 . S
H599 C578 0.930 . S
Ho600 C603 2.811 . S
Ho600 O620 2.322 . S
Ho600 O622 2.378 . S
Ho600 O623 2.524 . S
Ho600 O624 2.381 . S
Ho600 O625 2.669 . S
Ho600 O627 2.346 . S
Ho600 O631 2.305 . S
Ho601 C612 2.811 1_655 S
Ho601 O621 2.346 . S
Ho601 O625 2.305 . S
Ho601 O626 2.322 . S
Ho601 O628 2.378 1_655 S
Ho601 O629 2.524 1_655 S
Ho601 O630 2.381 . S
Ho601 O631 2.669 . S
C602 O620 1.259 . S
C602 O621 1.268 . S
C603 Ho600 2.811 . S
C603 C604 1.488 . S
C603 O622 1.215 . S
C603 O623 1.289 . S
C604 C603 1.488 . S
C604 C605 1.348 . S
C604 C609 1.413 . S
C605 C604 1.348 . S
C605 C606 1.442 . S
C605 H632 0.930 . S
C606 C605 1.442 . S
C606 C607 1.381 . S
C606 H633 0.931 . S
C607 C606 1.381 . S
C607 C608 1.321 . S
C608 C607 1.321 . S
C608 C609 1.403 . S
C608 H634 0.934 . S
C609 C604 1.413 . S
C609 C608 1.403 . S
C609 H635 0.930 . S
C610 O624 1.275 . S
C610 O625 1.256 . S
C611 O626 1.259 . S
C611 O627 1.268 . S
C612 Ho601 2.811 1_455 S
C612 C613 1.488 . S
C612 O628 1.215 . S
C612 O629 1.289 . S
C613 C612 1.488 . S
C613 C614 1.348 . S
C613 C618 1.413 . S
C614 C613 1.348 . S
C614 C615 1.442 . S
C614 H636 0.930 . S
C615 C614 1.442 . S
C615 C616 1.381 . S
C615 H637 0.931 . S
C616 C615 1.381 . S
C616 C617 1.321 . S
C617 C616 1.321 . S
C617 C618 1.403 . S
C617 H638 0.934 . S
C618 C613 1.413 . S
C618 C617 1.403 . S
C618 H639 0.930 . S
C619 O630 1.275 . S
C619 O631 1.256 . S
O620 Ho600 2.322 . S
O620 C602 1.259 . S
O621 Ho601 2.346 . S
O621 C602 1.268 . S
O622 Ho600 2.378 . S
O622 C603 1.215 . S
O623 Ho600 2.524 . S
O623 C603 1.289 . S
O624 Ho600 2.381 . S
O624 C610 1.275 . S
O625 Ho600 2.669 . S
O625 Ho601 2.305 . S
O625 C610 1.256 . S
O626 Ho601 2.322 . S
O626 C611 1.259 . S
O627 Ho600 2.346 . S
O627 C611 1.268 . S
O628 Ho601 2.378 1_455 S
O628 C612 1.215 . S
O629 Ho601 2.524 1_455 S
O629 C612 1.289 . S
O630 Ho601 2.381 . S
O630 C619 1.275 . S
O631 Ho600 2.305 . S
O631 Ho601 2.669 . S
O631 C619 1.256 . S
H632 C605 0.930 . S
H633 C606 0.931 . S
H634 C608 0.934 . S
H635 C609 0.930 . S
H636 C614 0.930 . S
H637 C615 0.931 . S
H638 C617 0.934 . S
H639 C618 0.930 . S
Ho640 C643 2.811 . S
Ho640 O660 2.322 . S
Ho640 O662 2.378 . S
Ho640 O663 2.524 . S
Ho640 O664 2.381 . S
Ho640 O665 2.669 . S
Ho640 O667 2.346 . S
Ho640 O671 2.305 . S
Ho641 C652 2.811 . S
Ho641 O661 2.346 . S
Ho641 O665 2.305 . S
Ho641 O666 2.322 . S
Ho641 O668 2.378 . S
Ho641 O669 2.524 . S
Ho641 O670 2.381 . S
Ho641 O671 2.669 . S
C642 O660 1.259 . S
C642 O661 1.268 . S
C643 Ho640 2.811 . S
C643 C644 1.488 . S
C643 O662 1.215 . S
C643 O663 1.289 . S
C644 C643 1.488 . S
C644 C645 1.348 . S
C644 C649 1.413 . S
C645 C644 1.348 . S
C645 C646 1.442 . S
C645 H672 0.930 . S
C646 C645 1.442 . S
C646 C647 1.381 . S
C646 H673 0.931 . S
C647 C646 1.381 . S
C647 C648 1.321 . S
C648 C647 1.321 . S
C648 C649 1.403 . S
C648 H674 0.934 . S
C649 C644 1.413 . S
C649 C648 1.403 . S
C649 H675 0.930 . S
C650 O664 1.275 . S
C650 O665 1.256 . S
C651 O666 1.259 . S
C651 O667 1.268 . S
C652 Ho641 2.811 . S
C652 C653 1.488 . S
C652 O668 1.215 . S
C652 O669 1.289 . S
C653 C652 1.488 . S
C653 C654 1.348 . S
C653 C658 1.413 . S
C654 C653 1.348 . S
C654 C655 1.442 . S
C654 H676 0.930 . S
C655 C654 1.442 . S
C655 C656 1.381 . S
C655 H677 0.931 . S
C656 C655 1.381 . S
C656 C657 1.321 . S
C657 C656 1.321 . S
C657 C658 1.403 . S
C657 H678 0.934 . S
C658 C653 1.413 . S
C658 C657 1.403 . S
C658 H679 0.930 . S
C659 O670 1.275 . S
C659 O671 1.256 . S
O660 Ho640 2.322 . S
O660 C642 1.259 . S
O661 Ho641 2.346 . S
O661 C642 1.268 . S
O662 Ho640 2.378 . S
O662 C643 1.215 . S
O663 Ho640 2.524 . S
O663 C643 1.289 . S
O664 Ho640 2.381 . S
O664 C650 1.275 . S
O665 Ho640 2.669 . S
O665 Ho641 2.305 . S
O665 C650 1.256 . S
O666 Ho641 2.322 . S
O666 C651 1.259 . S
O667 Ho640 2.346 . S
O667 C651 1.268 . S
O668 Ho641 2.378 . S
O668 C652 1.215 . S
O669 Ho641 2.524 . S
O669 C652 1.289 . S
O670 Ho641 2.381 . S
O670 C659 1.275 . S
O671 Ho640 2.305 . S
O671 Ho641 2.669 . S
O671 C659 1.256 . S
H672 C645 0.930 . S
H673 C646 0.931 . S
H674 C648 0.934 . S
H675 C649 0.930 . S
H676 C654 0.930 . S
H677 C655 0.931 . S
H678 C657 0.934 . S
H679 C658 0.930 . S
Ho680 C683 2.811 . S
Ho680 O700 2.322 . S
Ho680 O702 2.378 . S
Ho680 O703 2.524 . S
Ho680 O704 2.381 . S
Ho680 O705 2.669 . S
Ho680 O707 2.346 . S
Ho680 O711 2.305 . S
Ho681 C692 2.811 . S
Ho681 O701 2.346 . S
Ho681 O705 2.305 . S
Ho681 O706 2.322 . S
Ho681 O708 2.378 . S
Ho681 O709 2.524 . S
Ho681 O710 2.381 . S
Ho681 O711 2.669 . S
C682 O700 1.259 . S
C682 O701 1.268 . S
C683 Ho680 2.811 . S
C683 C684 1.488 . S
C683 O702 1.215 . S
C683 O703 1.289 . S
C684 C683 1.488 . S
C684 C685 1.348 . S
C684 C689 1.413 . S
C685 C684 1.348 . S
C685 C686 1.442 . S
C685 H712 0.930 . S
C686 C685 1.442 . S
C686 C687 1.381 . S
C686 H713 0.931 . S
C687 C686 1.381 . S
C687 C688 1.321 . S
C688 C687 1.321 . S
C688 C689 1.403 . S
C688 H714 0.934 . S
C689 C684 1.413 . S
C689 C688 1.403 . S
C689 H715 0.930 . S
C690 O704 1.275 . S
C690 O705 1.256 . S
C691 O706 1.259 . S
C691 O707 1.268 . S
C692 Ho681 2.811 . S
C692 C693 1.488 . S
C692 O708 1.215 . S
C692 O709 1.289 . S
C693 C692 1.488 . S
C693 C694 1.348 . S
C693 C698 1.413 . S
C694 C693 1.348 . S
C694 C695 1.442 . S
C694 H716 0.930 . S
C695 C694 1.442 . S
C695 C696 1.381 . S
C695 H717 0.931 . S
C696 C695 1.381 . S
C696 C697 1.321 . S
C697 C696 1.321 . S
C697 C698 1.403 . S
C697 H718 0.934 . S
C698 C693 1.413 . S
C698 C697 1.403 . S
C698 H719 0.930 . S
C699 O710 1.275 . S
C699 O711 1.256 . S
O700 Ho680 2.322 . S
O700 C682 1.259 . S
O701 Ho681 2.346 . S
O701 C682 1.268 . S
O702 Ho680 2.378 . S
O702 C683 1.215 . S
O703 Ho680 2.524 . S
O703 C683 1.289 . S
O704 Ho680 2.381 . S
O704 C690 1.275 . S
O705 Ho680 2.669 . S
O705 Ho681 2.305 . S
O705 C690 1.256 . S
O706 Ho681 2.322 . S
O706 C691 1.259 . S
O707 Ho680 2.346 . S
O707 C691 1.268 . S
O708 Ho681 2.378 . S
O708 C692 1.215 . S
O709 Ho681 2.524 . S
O709 C692 1.289 . S
O710 Ho681 2.381 . S
O710 C699 1.275 . S
O711 Ho680 2.305 . S
O711 Ho681 2.669 . S
O711 C699 1.256 . S
H712 C685 0.930 . S
H713 C686 0.931 . S
H714 C688 0.934 . S
H715 C689 0.930 . S
H716 C694 0.930 . S
H717 C695 0.931 . S
H718 C697 0.934 . S
H719 C698 0.930 . S
Ho720 C723 2.811 . S
Ho720 O740 2.322 . S
Ho720 O742 2.378 . S
Ho720 O743 2.524 . S
Ho720 O744 2.381 . S
Ho720 O745 2.669 . S
Ho720 O747 2.346 . S
Ho720 O751 2.305 . S
Ho721 C732 2.811 . S
Ho721 O741 2.346 . S
Ho721 O745 2.305 . S
Ho721 O746 2.322 . S
Ho721 O748 2.378 . S
Ho721 O749 2.524 . S
Ho721 O750 2.381 . S
Ho721 O751 2.669 . S
C722 O740 1.259 . S
C722 O741 1.268 . S
C723 Ho720 2.811 . S
C723 C724 1.488 . S
C723 O742 1.215 . S
C723 O743 1.289 . S
C724 C723 1.488 . S
C724 C725 1.348 . S
C724 C729 1.413 . S
C725 C724 1.348 . S
C725 C726 1.442 . S
C725 H752 0.930 . S
C726 C725 1.442 . S
C726 C727 1.381 . S
C726 H753 0.931 . S
C727 C726 1.381 . S
C727 C728 1.321 . S
C728 C727 1.321 . S
C728 C729 1.403 . S
C728 H754 0.934 . S
C729 C724 1.413 . S
C729 C728 1.403 . S
C729 H755 0.930 . S
C730 O744 1.275 . S
C730 O745 1.256 . S
C731 O746 1.259 . S
C731 O747 1.268 . S
C732 Ho721 2.811 . S
C732 C733 1.488 . S
C732 O748 1.215 . S
C732 O749 1.289 . S
C733 C732 1.488 . S
C733 C734 1.348 . S
C733 C738 1.413 . S
C734 C733 1.348 . S
C734 C735 1.442 . S
C734 H756 0.930 . S
C735 C734 1.442 . S
C735 C736 1.381 . S
C735 H757 0.931 . S
C736 C735 1.381 . S
C736 C737 1.321 . S
C737 C736 1.321 . S
C737 C738 1.403 . S
C737 H758 0.934 . S
C738 C733 1.413 . S
C738 C737 1.403 . S
C738 H759 0.930 . S
C739 O750 1.275 . S
C739 O751 1.256 . S
O740 Ho720 2.322 . S
O740 C722 1.259 . S
O741 Ho721 2.346 . S
O741 C722 1.268 . S
O742 Ho720 2.378 . S
O742 C723 1.215 . S
O743 Ho720 2.524 . S
O743 C723 1.289 . S
O744 Ho720 2.381 . S
O744 C730 1.275 . S
O745 Ho720 2.669 . S
O745 Ho721 2.305 . S
O745 C730 1.256 . S
O746 Ho721 2.322 . S
O746 C731 1.259 . S
O747 Ho720 2.346 . S
O747 C731 1.268 . S
O748 Ho721 2.378 . S
O748 C732 1.215 . S
O749 Ho721 2.524 . S
O749 C732 1.289 . S
O750 Ho721 2.381 . S
O750 C739 1.275 . S
O751 Ho720 2.305 . S
O751 Ho721 2.669 . S
O751 C739 1.256 . S
H752 C725 0.930 . S
H753 C726 0.931 . S
H754 C728 0.934 . S
H755 C729 0.930 . S
H756 C734 0.930 . S
H757 C735 0.931 . S
H758 C737 0.934 . S
H759 C738 0.930 . S
Ho760 C763 2.811 1_655 S
Ho760 O780 2.322 . S
Ho760 O782 2.378 1_655 S
Ho760 O783 2.524 1_655 S
Ho760 O784 2.381 . S
Ho760 O785 2.669 . S
Ho760 O787 2.346 . S
Ho760 O791 2.305 . S
Ho761 C772 2.811 . S
Ho761 O781 2.346 . S
Ho761 O785 2.305 . S
Ho761 O786 2.322 . S
Ho761 O788 2.378 . S
Ho761 O789 2.524 . S
Ho761 O790 2.381 . S
Ho761 O791 2.669 . S
C762 O780 1.259 . S
C762 O781 1.268 . S
C763 Ho760 2.811 1_455 S
C763 C764 1.488 . S
C763 O782 1.215 . S
C763 O783 1.289 . S
C764 C763 1.488 . S
C764 C765 1.348 . S
C764 C769 1.413 . S
C765 C764 1.348 . S
C765 C766 1.442 . S
C765 H792 0.930 . S
C766 C765 1.442 . S
C766 C767 1.381 . S
C766 H793 0.931 . S
C767 C766 1.381 . S
C767 C768 1.321 . S
C768 C767 1.321 . S
C768 C769 1.403 . S
C768 H794 0.934 . S
C769 C764 1.413 . S
C769 C768 1.403 . S
C769 H795 0.930 . S
C770 O784 1.275 . S
C770 O785 1.256 . S
C771 O786 1.259 . S
C771 O787 1.268 . S
C772 Ho761 2.811 . S
C772 C773 1.488 . S
C772 O788 1.215 . S
C772 O789 1.289 . S
C773 C772 1.488 . S
C773 C774 1.348 . S
C773 C778 1.413 . S
C774 C773 1.348 . S
C774 C775 1.442 . S
C774 H796 0.930 . S
C775 C774 1.442 . S
C775 C776 1.381 . S
C775 H797 0.931 . S
C776 C775 1.381 . S
C776 C777 1.321 . S
C777 C776 1.321 . S
C777 C778 1.403 . S
C777 H798 0.934 . S
C778 C773 1.413 . S
C778 C777 1.403 . S
C778 H799 0.930 . S
C779 O790 1.275 . S
C779 O791 1.256 . S
O780 Ho760 2.322 . S
O780 C762 1.259 . S
O781 Ho761 2.346 . S
O781 C762 1.268 . S
O782 Ho760 2.378 1_455 S
O782 C763 1.215 . S
O783 Ho760 2.524 1_455 S
O783 C763 1.289 . S
O784 Ho760 2.381 . S
O784 C770 1.275 . S
O785 Ho760 2.669 . S
O785 Ho761 2.305 . S
O785 C770 1.256 . S
O786 Ho761 2.322 . S
O786 C771 1.259 . S
O787 Ho760 2.346 . S
O787 C771 1.268 . S
O788 Ho761 2.378 . S
O788 C772 1.215 . S
O789 Ho761 2.524 . S
O789 C772 1.289 . S
O790 Ho761 2.381 . S
O790 C779 1.275 . S
O791 Ho760 2.305 . S
O791 Ho761 2.669 . S
O791 C779 1.256 . S
H792 C765 0.930 . S
H793 C766 0.931 . S
H794 C768 0.934 . S
H795 C769 0.930 . S
H796 C774 0.930 . S
H797 C775 0.931 . S
H798 C777 0.934 . S
H799 C778 0.930 . S
Ho800 C803 2.811 . S
Ho800 O820 2.322 . S
Ho800 O822 2.378 . S
Ho800 O823 2.524 . S
Ho800 O824 2.381 . S
Ho800 O825 2.669 . S
Ho800 O827 2.346 . S
Ho800 O831 2.305 . S
Ho801 C812 2.811 . S
Ho801 O821 2.346 . S
Ho801 O825 2.305 . S
Ho801 O826 2.322 . S
Ho801 O828 2.378 . S
Ho801 O829 2.524 . S
Ho801 O830 2.381 . S
Ho801 O831 2.669 . S
C802 O820 1.259 . S
C802 O821 1.268 . S
C803 Ho800 2.811 . S
C803 C804 1.488 . S
C803 O822 1.215 . S
C803 O823 1.289 . S
C804 C803 1.488 . S
C804 C805 1.348 . S
C804 C809 1.413 . S
C805 C804 1.348 . S
C805 C806 1.442 . S
C805 H832 0.930 . S
C806 C805 1.442 . S
C806 C807 1.381 . S
C806 H833 0.931 . S
C807 C806 1.381 . S
C807 C808 1.321 . S
C808 C807 1.321 . S
C808 C809 1.403 . S
C808 H834 0.934 . S
C809 C804 1.413 . S
C809 C808 1.403 . S
C809 H835 0.930 . S
C810 O824 1.275 . S
C810 O825 1.256 . S
C811 O826 1.259 . S
C811 O827 1.268 . S
C812 Ho801 2.811 . S
C812 C813 1.488 . S
C812 O828 1.215 . S
C812 O829 1.289 . S
C813 C812 1.488 . S
C813 C814 1.348 . S
C813 C818 1.413 . S
C814 C813 1.348 . S
C814 C815 1.442 . S
C814 H836 0.930 . S
C815 C814 1.442 . S
C815 C816 1.381 . S
C815 H837 0.931 . S
C816 C815 1.381 . S
C816 C817 1.321 . S
C817 C816 1.321 . S
C817 C818 1.403 . S
C817 H838 0.934 . S
C818 C813 1.413 . S
C818 C817 1.403 . S
C818 H839 0.930 . S
C819 O830 1.275 . S
C819 O831 1.256 . S
O820 Ho800 2.322 . S
O820 C802 1.259 . S
O821 Ho801 2.346 . S
O821 C802 1.268 . S
O822 Ho800 2.378 . S
O822 C803 1.215 . S
O823 Ho800 2.524 . S
O823 C803 1.289 . S
O824 Ho800 2.381 . S
O824 C810 1.275 . S
O825 Ho800 2.669 . S
O825 Ho801 2.305 . S
O825 C810 1.256 . S
O826 Ho801 2.322 . S
O826 C811 1.259 . S
O827 Ho800 2.346 . S
O827 C811 1.268 . S
O828 Ho801 2.378 . S
O828 C812 1.215 . S
O829 Ho801 2.524 . S
O829 C812 1.289 . S
O830 Ho801 2.381 . S
O830 C819 1.275 . S
O831 Ho800 2.305 . S
O831 Ho801 2.669 . S
O831 C819 1.256 . S
H832 C805 0.930 . S
H833 C806 0.931 . S
H834 C808 0.934 . S
H835 C809 0.930 . S
H836 C814 0.930 . S
H837 C815 0.931 . S
H838 C817 0.934 . S
H839 C818 0.930 . S
Ho840 C843 2.811 1_655 S
Ho840 O860 2.322 . S
Ho840 O862 2.378 1_655 S
Ho840 O863 2.524 1_655 S
Ho840 O864 2.381 . S
Ho840 O865 2.669 . S
Ho840 O867 2.346 . S
Ho840 O871 2.305 . S
Ho841 C852 2.811 . S
Ho841 O861 2.346 . S
Ho841 O865 2.305 . S
Ho841 O866 2.322 . S
Ho841 O868 2.378 . S
Ho841 O869 2.524 . S
Ho841 O870 2.381 . S
Ho841 O871 2.669 . S
C842 O860 1.259 . S
C842 O861 1.268 . S
C843 Ho840 2.811 1_455 S
C843 C844 1.488 . S
C843 O862 1.215 . S
C843 O863 1.289 . S
C844 C843 1.488 . S
C844 C845 1.348 . S
C844 C849 1.413 . S
C845 C844 1.348 . S
C845 C846 1.442 . S
C845 H872 0.930 . S
C846 C845 1.442 . S
C846 C847 1.381 . S
C846 H873 0.931 . S
C847 C846 1.381 . S
C847 C848 1.321 . S
C848 C847 1.321 . S
C848 C849 1.403 . S
C848 H874 0.934 . S
C849 C844 1.413 . S
C849 C848 1.403 . S
C849 H875 0.930 . S
C850 O864 1.275 . S
C850 O865 1.256 . S
C851 O866 1.259 . S
C851 O867 1.268 . S
C852 Ho841 2.811 . S
C852 C853 1.488 . S
C852 O868 1.215 . S
C852 O869 1.289 . S
C853 C852 1.488 . S
C853 C854 1.348 . S
C853 C858 1.413 . S
C854 C853 1.348 . S
C854 C855 1.442 . S
C854 H876 0.930 . S
C855 C854 1.442 . S
C855 C856 1.381 . S
C855 H877 0.931 . S
C856 C855 1.381 . S
C856 C857 1.321 . S
C857 C856 1.321 . S
C857 C858 1.403 . S
C857 H878 0.934 . S
C858 C853 1.413 . S
C858 C857 1.403 . S
C858 H879 0.930 . S
C859 O870 1.275 . S
C859 O871 1.256 . S
O860 Ho840 2.322 . S
O860 C842 1.259 . S
O861 Ho841 2.346 . S
O861 C842 1.268 . S
O862 Ho840 2.378 1_455 S
O862 C843 1.215 . S
O863 Ho840 2.524 1_455 S
O863 C843 1.289 . S
O864 Ho840 2.381 . S
O864 C850 1.275 . S
O865 Ho840 2.669 . S
O865 Ho841 2.305 . S
O865 C850 1.256 . S
O866 Ho841 2.322 . S
O866 C851 1.259 . S
O867 Ho840 2.346 . S
O867 C851 1.268 . S
O868 Ho841 2.378 . S
O868 C852 1.215 . S
O869 Ho841 2.524 . S
O869 C852 1.289 . S
O870 Ho841 2.381 . S
O870 C859 1.275 . S
O871 Ho840 2.305 . S
O871 Ho841 2.669 . S
O871 C859 1.256 . S
H872 C845 0.930 . S
H873 C846 0.931 . S
H874 C848 0.934 . S
H875 C849 0.930 . S
H876 C854 0.930 . S
H877 C855 0.931 . S
H878 C857 0.934 . S
H879 C858 0.930 . S
Ho880 C883 2.811 . S
Ho880 O900 2.322 . S
Ho880 O902 2.378 . S
Ho880 O903 2.524 . S
Ho880 O904 2.381 . S
Ho880 O905 2.669 . S
Ho880 O907 2.346 . S
Ho880 O911 2.305 . S
Ho881 C892 2.811 . S
Ho881 O901 2.346 . S
Ho881 O905 2.305 . S
Ho881 O906 2.322 . S
Ho881 O908 2.378 . S
Ho881 O909 2.524 . S
Ho881 O910 2.381 . S
Ho881 O911 2.669 . S
C882 O900 1.259 . S
C882 O901 1.268 . S
C883 Ho880 2.811 . S
C883 C884 1.488 . S
C883 O902 1.215 . S
C883 O903 1.289 . S
C884 C883 1.488 . S
C884 C885 1.348 . S
C884 C889 1.413 . S
C885 C884 1.348 . S
C885 C886 1.442 . S
C885 H912 0.930 . S
C886 C885 1.442 . S
C886 C887 1.381 . S
C886 H913 0.931 . S
C887 C886 1.381 . S
C887 C888 1.321 . S
C888 C887 1.321 . S
C888 C889 1.403 . S
C888 H914 0.934 . S
C889 C884 1.413 . S
C889 C888 1.403 . S
C889 H915 0.930 . S
C890 O904 1.275 . S
C890 O905 1.256 . S
C891 O906 1.259 . S
C891 O907 1.268 . S
C892 Ho881 2.811 . S
C892 C893 1.488 . S
C892 O908 1.215 . S
C892 O909 1.289 . S
C893 C892 1.488 . S
C893 C894 1.348 . S
C893 C898 1.413 . S
C894 C893 1.348 . S
C894 C895 1.442 . S
C894 H916 0.930 . S
C895 C894 1.442 . S
C895 C896 1.381 . S
C895 H917 0.931 . S
C896 C895 1.381 . S
C896 C897 1.321 . S
C897 C896 1.321 . S
C897 C898 1.403 . S
C897 H918 0.934 . S
C898 C893 1.413 . S
C898 C897 1.403 . S
C898 H919 0.930 . S
C899 O910 1.275 . S
C899 O911 1.256 . S
O900 Ho880 2.322 . S
O900 C882 1.259 . S
O901 Ho881 2.346 . S
O901 C882 1.268 . S
O902 Ho880 2.378 . S
O902 C883 1.215 . S
O903 Ho880 2.524 . S
O903 C883 1.289 . S
O904 Ho880 2.381 . S
O904 C890 1.275 . S
O905 Ho880 2.669 . S
O905 Ho881 2.305 . S
O905 C890 1.256 . S
O906 Ho881 2.322 . S
O906 C891 1.259 . S
O907 Ho880 2.346 . S
O907 C891 1.268 . S
O908 Ho881 2.378 . S
O908 C892 1.215 . S
O909 Ho881 2.524 . S
O909 C892 1.289 . S
O910 Ho881 2.381 . S
O910 C899 1.275 . S
O911 Ho880 2.305 . S
O911 Ho881 2.669 . S
O911 C899 1.256 . S
H912 C885 0.930 . S
H913 C886 0.931 . S
H914 C888 0.934 . S
H915 C889 0.930 . S
H916 C894 0.930 . S
H917 C895 0.931 . S
H918 C897 0.934 . S
H919 C898 0.930 . S
Ho920 C923 2.811 . S
Ho920 O940 2.322 . S
Ho920 O942 2.378 . S
Ho920 O943 2.524 . S
Ho920 O944 2.381 . S
Ho920 O945 2.669 . S
Ho920 O947 2.346 . S
Ho920 O951 2.305 . S
Ho921 C932 2.811 . S
Ho921 O941 2.346 . S
Ho921 O945 2.305 . S
Ho921 O946 2.322 . S
Ho921 O948 2.378 . S
Ho921 O949 2.524 . S
Ho921 O950 2.381 . S
Ho921 O951 2.669 . S
C922 O940 1.259 . S
C922 O941 1.268 . S
C923 Ho920 2.811 . S
C923 C924 1.488 . S
C923 O942 1.215 . S
C923 O943 1.289 . S
C924 C923 1.488 . S
C924 C925 1.348 . S
C924 C929 1.413 . S
C925 C924 1.348 . S
C925 C926 1.442 . S
C925 H952 0.930 . S
C926 C925 1.442 . S
C926 C927 1.381 . S
C926 H953 0.931 . S
C927 C926 1.381 . S
C927 C928 1.321 . S
C928 C927 1.321 . S
C928 C929 1.403 . S
C928 H954 0.934 . S
C929 C924 1.413 . S
C929 C928 1.403 . S
C929 H955 0.930 . S
C930 O944 1.275 . S
C930 O945 1.256 . S
C931 O946 1.259 . S
C931 O947 1.268 . S
C932 Ho921 2.811 . S
C932 C933 1.488 . S
C932 O948 1.215 . S
C932 O949 1.289 . S
C933 C932 1.488 . S
C933 C934 1.348 . S
C933 C938 1.413 . S
C934 C933 1.348 . S
C934 C935 1.442 . S
C934 H956 0.930 . S
C935 C934 1.442 . S
C935 C936 1.381 . S
C935 H957 0.931 . S
C936 C935 1.381 . S
C936 C937 1.321 . S
C937 C936 1.321 . S
C937 C938 1.403 . S
C937 H958 0.934 . S
C938 C933 1.413 . S
C938 C937 1.403 . S
C938 H959 0.930 . S
C939 O950 1.275 . S
C939 O951 1.256 . S
O940 Ho920 2.322 . S
O940 C922 1.259 . S
O941 Ho921 2.346 . S
O941 C922 1.268 . S
O942 Ho920 2.378 . S
O942 C923 1.215 . S
O943 Ho920 2.524 . S
O943 C923 1.289 . S
O944 Ho920 2.381 . S
O944 C930 1.275 . S
O945 Ho920 2.669 . S
O945 Ho921 2.305 . S
O945 C930 1.256 . S
O946 Ho921 2.322 . S
O946 C931 1.259 . S
O947 Ho920 2.346 . S
O947 C931 1.268 . S
O948 Ho921 2.378 . S
O948 C932 1.215 . S
O949 Ho921 2.524 . S
O949 C932 1.289 . S
O950 Ho921 2.381 . S
O950 C939 1.275 . S
O951 Ho920 2.305 . S
O951 Ho921 2.669 . S
O951 C939 1.256 . S
H952 C925 0.930 . S
H953 C926 0.931 . S
H954 C928 0.934 . S
H955 C929 0.930 . S
H956 C934 0.930 . S
H957 C935 0.931 . S
H958 C937 0.934 . S
H959 C938 0.930 . S
Ho960 C963 2.811 . S
Ho960 O980 2.322 . S
Ho960 O982 2.378 . S
Ho960 O983 2.524 . S
Ho960 O984 2.381 . S
Ho960 O985 2.669 . S
Ho960 O987 2.346 . S
Ho960 O991 2.305 . S
Ho961 C972 2.811 . S
Ho961 O981 2.346 . S
Ho961 O985 2.305 . S
Ho961 O986 2.322 . S
Ho961 O988 2.378 . S
Ho961 O989 2.524 . S
Ho961 O990 2.381 . S
Ho961 O991 2.669 . S
C962 O980 1.259 . S
C962 O981 1.268 . S
C963 Ho960 2.811 . S
C963 C964 1.488 . S
C963 O982 1.215 . S
C963 O983 1.289 . S
C964 C963 1.488 . S
C964 C965 1.348 . S
C964 C969 1.413 . S
C965 C964 1.348 . S
C965 C966 1.442 . S
C965 H992 0.930 . S
C966 C965 1.442 . S
C966 C967 1.381 . S
C966 H993 0.931 . S
C967 C966 1.381 . S
C967 C968 1.321 . S
C968 C967 1.321 . S
C968 C969 1.403 . S
C968 H994 0.934 . S
C969 C964 1.413 . S
C969 C968 1.403 . S
C969 H995 0.930 . S
C970 O984 1.275 . S
C970 O985 1.256 . S
C971 O986 1.259 . S
C971 O987 1.268 . S
C972 Ho961 2.811 . S
C972 C973 1.488 . S
C972 O988 1.215 . S
C972 O989 1.289 . S
C973 C972 1.488 . S
C973 C974 1.348 . S
C973 C978 1.413 . S
C974 C973 1.348 . S
C974 C975 1.442 . S
C974 H996 0.930 . S
C975 C974 1.442 . S
C975 C976 1.381 . S
C975 H997 0.931 . S
C976 C975 1.381 . S
C976 C977 1.321 . S
C977 C976 1.321 . S
C977 C978 1.403 . S
C977 H998 0.934 . S
C978 C973 1.413 . S
C978 C977 1.403 . S
C978 H999 0.930 . S
C979 O990 1.275 . S
C979 O991 1.256 . S
O980 Ho960 2.322 . S
O980 C962 1.259 . S
O981 Ho961 2.346 . S
O981 C962 1.268 . S
O982 Ho960 2.378 . S
O982 C963 1.215 . S
O983 Ho960 2.524 . S
O983 C963 1.289 . S
O984 Ho960 2.381 . S
O984 C970 1.275 . S
O985 Ho960 2.669 . S
O985 Ho961 2.305 . S
O985 C970 1.256 . S
O986 Ho961 2.322 . S
O986 C971 1.259 . S
O987 Ho960 2.346 . S
O987 C971 1.268 . S
O988 Ho961 2.378 . S
O988 C972 1.215 . S
O989 Ho961 2.524 . S
O989 C972 1.289 . S
O990 Ho961 2.381 . S
O990 C979 1.275 . S
O991 Ho960 2.305 . S
O991 Ho961 2.669 . S
O991 C979 1.256 . S
H992 C965 0.930 . S
H993 C966 0.931 . S
H994 C968 0.934 . S
H995 C969 0.930 . S
H996 C974 0.930 . S
H997 C975 0.931 . S
H998 C977 0.934 . S
H999 C978 0.930 . S
Ho1000 C1003 2.811 . S
Ho1000 O1020 2.322 . S
Ho1000 O1022 2.378 . S
Ho1000 O1023 2.524 . S
Ho1000 O1024 2.381 . S
Ho1000 O1025 2.669 . S
Ho1000 O1027 2.346 . S
Ho1000 O1031 2.305 . S
Ho1001 C1012 2.811 . S
Ho1001 O1021 2.346 . S
Ho1001 O1025 2.305 . S
Ho1001 O1026 2.322 . S
Ho1001 O1028 2.378 . S
Ho1001 O1029 2.524 . S
Ho1001 O1030 2.381 . S
Ho1001 O1031 2.669 . S
C1002 O1020 1.259 . S
C1002 O1021 1.268 . S
C1003 Ho1000 2.811 . S
C1003 C1004 1.488 . S
C1003 O1022 1.215 . S
C1003 O1023 1.289 . S
C1004 C1003 1.488 . S
C1004 C1005 1.348 . S
C1004 C1009 1.413 . S
C1005 C1004 1.348 . S
C1005 C1006 1.442 . S
C1005 H1032 0.930 . S
C1006 C1005 1.442 . S
C1006 C1007 1.381 . S
C1006 H1033 0.931 . S
C1007 C1006 1.381 . S
C1007 C1008 1.321 . S
C1008 C1007 1.321 . S
C1008 C1009 1.403 . S
C1008 H1034 0.934 . S
C1009 C1004 1.413 . S
C1009 C1008 1.403 . S
C1009 H1035 0.930 . S
C1010 O1024 1.275 . S
C1010 O1025 1.256 . S
C1011 O1026 1.259 . S
C1011 O1027 1.268 . S
C1012 Ho1001 2.811 . S
C1012 C1013 1.488 . S
C1012 O1028 1.215 . S
C1012 O1029 1.289 . S
C1013 C1012 1.488 . S
C1013 C1014 1.348 . S
C1013 C1018 1.413 . S
C1014 C1013 1.348 . S
C1014 C1015 1.442 . S
C1014 H1036 0.930 . S
C1015 C1014 1.442 . S
C1015 C1016 1.381 . S
C1015 H1037 0.931 . S
C1016 C1015 1.381 . S
C1016 C1017 1.321 . S
C1017 C1016 1.321 . S
C1017 C1018 1.403 . S
C1017 H1038 0.934 . S
C1018 C1013 1.413 . S
C1018 C1017 1.403 . S
C1018 H1039 0.930 . S
C1019 O1030 1.275 . S
C1019 O1031 1.256 . S
O1020 Ho1000 2.322 . S
O1020 C1002 1.259 . S
O1021 Ho1001 2.346 . S
O1021 C1002 1.268 . S
O1022 Ho1000 2.378 . S
O1022 C1003 1.215 . S
O1023 Ho1000 2.524 . S
O1023 C1003 1.289 . S
O1024 Ho1000 2.381 . S
O1024 C1010 1.275 . S
O1025 Ho1000 2.669 . S
O1025 Ho1001 2.305 . S
O1025 C1010 1.256 . S
O1026 Ho1001 2.322 . S
O1026 C1011 1.259 . S
O1027 Ho1000 2.346 . S
O1027 C1011 1.268 . S
O1028 Ho1001 2.378 . S
O1028 C1012 1.215 . S
O1029 Ho1001 2.524 . S
O1029 C1012 1.289 . S
O1030 Ho1001 2.381 . S
O1030 C1019 1.275 . S
O1031 Ho1000 2.305 . S
O1031 Ho1001 2.669 . S
O1031 C1019 1.256 . S
H1032 C1005 0.930 . S
H1033 C1006 0.931 . S
H1034 C1008 0.934 . S
H1035 C1009 0.930 . S
H1036 C1014 0.930 . S
H1037 C1015 0.931 . S
H1038 C1017 0.934 . S
H1039 C1018 0.930 . S
Ho1040 C1043 2.811 . S
Ho1040 O1060 2.322 . S
Ho1040 O1062 2.378 . S
Ho1040 O1063 2.524 . S
Ho1040 O1064 2.381 . S
Ho1040 O1065 2.669 . S
Ho1040 O1067 2.346 . S
Ho1040 O1071 2.305 . S
Ho1041 C1052 2.811 . S
Ho1041 O1061 2.346 . S
Ho1041 O1065 2.305 . S
Ho1041 O1066 2.322 . S
Ho1041 O1068 2.378 . S
Ho1041 O1069 2.524 . S
Ho1041 O1070 2.381 . S
Ho1041 O1071 2.669 . S
C1042 O1060 1.259 . S
C1042 O1061 1.268 . S
C1043 Ho1040 2.811 . S
C1043 C1044 1.488 . S
C1043 O1062 1.215 . S
C1043 O1063 1.289 . S
C1044 C1043 1.488 . S
C1044 C1045 1.348 . S
C1044 C1049 1.413 . S
C1045 C1044 1.348 . S
C1045 C1046 1.442 . S
C1045 H1072 0.930 . S
C1046 C1045 1.442 . S
C1046 C1047 1.381 . S
C1046 H1073 0.931 . S
C1047 C1046 1.381 . S
C1047 C1048 1.321 . S
C1048 C1047 1.321 . S
C1048 C1049 1.403 . S
C1048 H1074 0.934 . S
C1049 C1044 1.413 . S
C1049 C1048 1.403 . S
C1049 H1075 0.930 . S
C1050 O1064 1.275 . S
C1050 O1065 1.256 . S
C1051 O1066 1.259 . S
C1051 O1067 1.268 . S
C1052 Ho1041 2.811 . S
C1052 C1053 1.488 . S
C1052 O1068 1.215 . S
C1052 O1069 1.289 . S
C1053 C1052 1.488 . S
C1053 C1054 1.348 . S
C1053 C1058 1.413 . S
C1054 C1053 1.348 . S
C1054 C1055 1.442 . S
C1054 H1076 0.930 . S
C1055 C1054 1.442 . S
C1055 C1056 1.381 . S
C1055 H1077 0.931 . S
C1056 C1055 1.381 . S
C1056 C1057 1.321 . S
C1057 C1056 1.321 . S
C1057 C1058 1.403 . S
C1057 H1078 0.934 . S
C1058 C1053 1.413 . S
C1058 C1057 1.403 . S
C1058 H1079 0.930 . S
C1059 O1070 1.275 . S
C1059 O1071 1.256 . S
O1060 Ho1040 2.322 . S
O1060 C1042 1.259 . S
O1061 Ho1041 2.346 . S
O1061 C1042 1.268 . S
O1062 Ho1040 2.378 . S
O1062 C1043 1.215 . S
O1063 Ho1040 2.524 . S
O1063 C1043 1.289 . S
O1064 Ho1040 2.381 . S
O1064 C1050 1.275 . S
O1065 Ho1040 2.669 . S
O1065 Ho1041 2.305 . S
O1065 C1050 1.256 . S
O1066 Ho1041 2.322 . S
O1066 C1051 1.259 . S
O1067 Ho1040 2.346 . S
O1067 C1051 1.268 . S
O1068 Ho1041 2.378 . S
O1068 C1052 1.215 . S
O1069 Ho1041 2.524 . S
O1069 C1052 1.289 . S
O1070 Ho1041 2.381 . S
O1070 C1059 1.275 . S
O1071 Ho1040 2.305 . S
O1071 Ho1041 2.669 . S
O1071 C1059 1.256 . S
H1072 C1045 0.930 . S
H1073 C1046 0.931 . S
H1074 C1048 0.934 . S
H1075 C1049 0.930 . S
H1076 C1054 0.930 . S
H1077 C1055 0.931 . S
H1078 C1057 0.934 . S
H1079 C1058 0.930 . S
Ho1080 C1083 2.811 . S
Ho1080 O1100 2.322 . S
Ho1080 O1102 2.378 . S
Ho1080 O1103 2.524 . S
Ho1080 O1104 2.381 . S
Ho1080 O1105 2.669 . S
Ho1080 O1107 2.346 . S
Ho1080 O1111 2.305 . S
Ho1081 C1092 2.811 1_455 S
Ho1081 O1101 2.346 . S
Ho1081 O1105 2.305 . S
Ho1081 O1106 2.322 . S
Ho1081 O1108 2.378 1_455 S
Ho1081 O1109 2.524 1_455 S
Ho1081 O1110 2.381 . S
Ho1081 O1111 2.669 . S
C1082 O1100 1.259 . S
C1082 O1101 1.268 . S
C1083 Ho1080 2.811 . S
C1083 C1084 1.488 . S
C1083 O1102 1.215 . S
C1083 O1103 1.289 . S
C1084 C1083 1.488 . S
C1084 C1085 1.348 . S
C1084 C1089 1.413 . S
C1085 C1084 1.348 . S
C1085 C1086 1.442 . S
C1085 H1112 0.930 . S
C1086 C1085 1.442 . S
C1086 C1087 1.381 . S
C1086 H1113 0.931 . S
C1087 C1086 1.381 . S
C1087 C1088 1.321 . S
C1088 C1087 1.321 . S
C1088 C1089 1.403 . S
C1088 H1114 0.934 . S
C1089 C1084 1.413 . S
C1089 C1088 1.403 . S
C1089 H1115 0.930 . S
C1090 O1104 1.275 . S
C1090 O1105 1.256 . S
C1091 O1106 1.259 . S
C1091 O1107 1.268 . S
C1092 Ho1081 2.811 1_655 S
C1092 C1093 1.488 . S
C1092 O1108 1.215 . S
C1092 O1109 1.289 . S
C1093 C1092 1.488 . S
C1093 C1094 1.348 . S
C1093 C1098 1.413 . S
C1094 C1093 1.348 . S
C1094 C1095 1.442 . S
C1094 H1116 0.930 . S
C1095 C1094 1.442 . S
C1095 C1096 1.381 . S
C1095 H1117 0.931 . S
C1096 C1095 1.381 . S
C1096 C1097 1.321 . S
C1097 C1096 1.321 . S
C1097 C1098 1.403 . S
C1097 H1118 0.934 . S
C1098 C1093 1.413 . S
C1098 C1097 1.403 . S
C1098 H1119 0.930 . S
C1099 O1110 1.275 . S
C1099 O1111 1.256 . S
O1100 Ho1080 2.322 . S
O1100 C1082 1.259 . S
O1101 Ho1081 2.346 . S
O1101 C1082 1.268 . S
O1102 Ho1080 2.378 . S
O1102 C1083 1.215 . S
O1103 Ho1080 2.524 . S
O1103 C1083 1.289 . S
O1104 Ho1080 2.381 . S
O1104 C1090 1.275 . S
O1105 Ho1080 2.669 . S
O1105 Ho1081 2.305 . S
O1105 C1090 1.256 . S
O1106 Ho1081 2.322 . S
O1106 C1091 1.259 . S
O1107 Ho1080 2.346 . S
O1107 C1091 1.268 . S
O1108 Ho1081 2.378 1_655 S
O1108 C1092 1.215 . S
O1109 Ho1081 2.524 1_655 S
O1109 C1092 1.289 . S
O1110 Ho1081 2.381 . S
O1110 C1099 1.275 . S
O1111 Ho1080 2.305 . S
O1111 Ho1081 2.669 . S
O1111 C1099 1.256 . S
H1112 C1085 0.930 . S
H1113 C1086 0.931 . S
H1114 C1088 0.934 . S
H1115 C1089 0.930 . S
H1116 C1094 0.930 . S
H1117 C1095 0.931 . S
H1118 C1097 0.934 . S
H1119 C1098 0.930 . S
Ho1120 C1123 2.811 . S
Ho1120 O1140 2.322 . S
Ho1120 O1142 2.378 . S
Ho1120 O1143 2.524 . S
Ho1120 O1144 2.381 . S
Ho1120 O1145 2.669 . S
Ho1120 O1147 2.346 . S
Ho1120 O1151 2.305 . S
Ho1121 C1132 2.811 . S
Ho1121 O1141 2.346 . S
Ho1121 O1145 2.305 . S
Ho1121 O1146 2.322 . S
Ho1121 O1148 2.378 . S
Ho1121 O1149 2.524 . S
Ho1121 O1150 2.381 . S
Ho1121 O1151 2.669 . S
C1122 O1140 1.259 . S
C1122 O1141 1.268 . S
C1123 Ho1120 2.811 . S
C1123 C1124 1.488 . S
C1123 O1142 1.215 . S
C1123 O1143 1.289 . S
C1124 C1123 1.488 . S
C1124 C1125 1.348 . S
C1124 C1129 1.413 . S
C1125 C1124 1.348 . S
C1125 C1126 1.442 . S
C1125 H1152 0.930 . S
C1126 C1125 1.442 . S
C1126 C1127 1.381 . S
C1126 H1153 0.931 . S
C1127 C1126 1.381 . S
C1127 C1128 1.321 . S
C1128 C1127 1.321 . S
C1128 C1129 1.403 . S
C1128 H1154 0.934 . S
C1129 C1124 1.413 . S
C1129 C1128 1.403 . S
C1129 H1155 0.930 . S
C1130 O1144 1.275 . S
C1130 O1145 1.256 . S
C1131 O1146 1.259 . S
C1131 O1147 1.268 . S
C1132 Ho1121 2.811 . S
C1132 C1133 1.488 . S
C1132 O1148 1.215 . S
C1132 O1149 1.289 . S
C1133 C1132 1.488 . S
C1133 C1134 1.348 . S
C1133 C1138 1.413 . S
C1134 C1133 1.348 . S
C1134 C1135 1.442 . S
C1134 H1156 0.930 . S
C1135 C1134 1.442 . S
C1135 C1136 1.381 . S
C1135 H1157 0.931 . S
C1136 C1135 1.381 . S
C1136 C1137 1.321 . S
C1137 C1136 1.321 . S
C1137 C1138 1.403 . S
C1137 H1158 0.934 . S
C1138 C1133 1.413 . S
C1138 C1137 1.403 . S
C1138 H1159 0.930 . S
C1139 O1150 1.275 . S
C1139 O1151 1.256 . S
O1140 Ho1120 2.322 . S
O1140 C1122 1.259 . S
O1141 Ho1121 2.346 . S
O1141 C1122 1.268 . S
O1142 Ho1120 2.378 . S
O1142 C1123 1.215 . S
O1143 Ho1120 2.524 . S
O1143 C1123 1.289 . S
O1144 Ho1120 2.381 . S
O1144 C1130 1.275 . S
O1145 Ho1120 2.669 . S
O1145 Ho1121 2.305 . S
O1145 C1130 1.256 . S
O1146 Ho1121 2.322 . S
O1146 C1131 1.259 . S
O1147 Ho1120 2.346 . S
O1147 C1131 1.268 . S
O1148 Ho1121 2.378 . S
O1148 C1132 1.215 . S
O1149 Ho1121 2.524 . S
O1149 C1132 1.289 . S
O1150 Ho1121 2.381 . S
O1150 C1139 1.275 . S
O1151 Ho1120 2.305 . S
O1151 Ho1121 2.669 . S
O1151 C1139 1.256 . S
H1152 C1125 0.930 . S
H1153 C1126 0.931 . S
H1154 C1128 0.934 . S
H1155 C1129 0.930 . S
H1156 C1134 0.930 . S
H1157 C1135 0.931 . S
H1158 C1137 0.934 . S
H1159 C1138 0.930 . S
Ho1160 C1163 2.811 . S
Ho1160 O1180 2.322 . S
Ho1160 O1182 2.378 . S
Ho1160 O1183 2.524 . S
Ho1160 O1184 2.381 . S
Ho1160 O1185 2.669 . S
Ho1160 O1187 2.346 . S
Ho1160 O1191 2.305 . S
Ho1161 C1172 2.811 1_455 S
Ho1161 O1181 2.346 . S
Ho1161 O1185 2.305 . S
Ho1161 O1186 2.322 . S
Ho1161 O1188 2.378 1_455 S
Ho1161 O1189 2.524 1_455 S
Ho1161 O1190 2.381 . S
Ho1161 O1191 2.669 . S
C1162 O1180 1.259 . S
C1162 O1181 1.268 . S
C1163 Ho1160 2.811 . S
C1163 C1164 1.488 . S
C1163 O1182 1.215 . S
C1163 O1183 1.289 . S
C1164 C1163 1.488 . S
C1164 C1165 1.348 . S
C1164 C1169 1.413 . S
C1165 C1164 1.348 . S
C1165 C1166 1.442 . S
C1165 H1192 0.930 . S
C1166 C1165 1.442 . S
C1166 C1167 1.381 . S
C1166 H1193 0.931 . S
C1167 C1166 1.381 . S
C1167 C1168 1.321 . S
C1168 C1167 1.321 . S
C1168 C1169 1.403 . S
C1168 H1194 0.934 . S
C1169 C1164 1.413 . S
C1169 C1168 1.403 . S
C1169 H1195 0.930 . S
C1170 O1184 1.275 . S
C1170 O1185 1.256 . S
C1171 O1186 1.259 . S
C1171 O1187 1.268 . S
C1172 Ho1161 2.811 1_655 S
C1172 C1173 1.488 . S
C1172 O1188 1.215 . S
C1172 O1189 1.289 . S
C1173 C1172 1.488 . S
C1173 C1174 1.348 . S
C1173 C1178 1.413 . S
C1174 C1173 1.348 . S
C1174 C1175 1.442 . S
C1174 H1196 0.930 . S
C1175 C1174 1.442 . S
C1175 C1176 1.381 . S
C1175 H1197 0.931 . S
C1176 C1175 1.381 . S
C1176 C1177 1.321 . S
C1177 C1176 1.321 . S
C1177 C1178 1.403 . S
C1177 H1198 0.934 . S
C1178 C1173 1.413 . S
C1178 C1177 1.403 . S
C1178 H1199 0.930 . S
C1179 O1190 1.275 . S
C1179 O1191 1.256 . S
O1180 Ho1160 2.322 . S
O1180 C1162 1.259 . S
O1181 Ho1161 2.346 . S
O1181 C1162 1.268 . S
O1182 Ho1160 2.378 . S
O1182 C1163 1.215 . S
O1183 Ho1160 2.524 . S
O1183 C1163 1.289 . S
O1184 Ho1160 2.381 . S
O1184 C1170 1.275 . S
O1185 Ho1160 2.669 . S
O1185 Ho1161 2.305 . S
O1185 C1170 1.256 . S
O1186 Ho1161 2.322 . S
O1186 C1171 1.259 . S
O1187 Ho1160 2.346 . S
O1187 C1171 1.268 . S
O1188 Ho1161 2.378 1_655 S
O1188 C1172 1.215 . S
O1189 Ho1161 2.524 1_655 S
O1189 C1172 1.289 . S
O1190 Ho1161 2.381 . S
O1190 C1179 1.275 . S
O1191 Ho1160 2.305 . S
O1191 Ho1161 2.669 . S
O1191 C1179 1.256 . S
H1192 C1165 0.930 . S
H1193 C1166 0.931 . S
H1194 C1168 0.934 . S
H1195 C1169 0.930 . S
H1196 C1174 0.930 . S
H1197 C1175 0.931 . S
H1198 C1177 0.934 . S
H1199 C1178 0.930 . S
Ho1200 C1203 2.811 . S
Ho1200 O1220 2.322 . S
Ho1200 O1222 2.378 . S
Ho1200 O1223 2.524 . S
Ho1200 O1224 2.381 . S
Ho1200 O1225 2.669 . S
Ho1200 O1227 2.346 . S
Ho1200 O1231 2.305 . S
Ho1201 C1212 2.811 . S
Ho1201 O1221 2.346 . S
Ho1201 O1225 2.305 . S
Ho1201 O1226 2.322 . S
Ho1201 O1228 2.378 . S
Ho1201 O1229 2.524 . S
Ho1201 O1230 2.381 . S
Ho1201 O1231 2.669 . S
C1202 O1220 1.259 . S
C1202 O1221 1.268 . S
C1203 Ho1200 2.811 . S
C1203 C1204 1.488 . S
C1203 O1222 1.215 . S
C1203 O1223 1.289 . S
C1204 C1203 1.488 . S
C1204 C1205 1.348 . S
C1204 C1209 1.413 . S
C1205 C1204 1.348 . S
C1205 C1206 1.442 . S
C1205 H1232 0.930 . S
C1206 C1205 1.442 . S
C1206 C1207 1.381 . S
C1206 H1233 0.931 . S
C1207 C1206 1.381 . S
C1207 C1208 1.321 . S
C1208 C1207 1.321 . S
C1208 C1209 1.403 . S
C1208 H1234 0.934 . S
C1209 C1204 1.413 . S
C1209 C1208 1.403 . S
C1209 H1235 0.930 . S
C1210 O1224 1.275 . S
C1210 O1225 1.256 . S
C1211 O1226 1.259 . S
C1211 O1227 1.268 . S
C1212 Ho1201 2.811 . S
C1212 C1213 1.488 . S
C1212 O1228 1.215 . S
C1212 O1229 1.289 . S
C1213 C1212 1.488 . S
C1213 C1214 1.348 . S
C1213 C1218 1.413 . S
C1214 C1213 1.348 . S
C1214 C1215 1.442 . S
C1214 H1236 0.930 . S
C1215 C1214 1.442 . S
C1215 C1216 1.381 . S
C1215 H1237 0.931 . S
C1216 C1215 1.381 . S
C1216 C1217 1.321 . S
C1217 C1216 1.321 . S
C1217 C1218 1.403 . S
C1217 H1238 0.934 . S
C1218 C1213 1.413 . S
C1218 C1217 1.403 . S
C1218 H1239 0.930 . S
C1219 O1230 1.275 . S
C1219 O1231 1.256 . S
O1220 Ho1200 2.322 . S
O1220 C1202 1.259 . S
O1221 Ho1201 2.346 . S
O1221 C1202 1.268 . S
O1222 Ho1200 2.378 . S
O1222 C1203 1.215 . S
O1223 Ho1200 2.524 . S
O1223 C1203 1.289 . S
O1224 Ho1200 2.381 . S
O1224 C1210 1.275 . S
O1225 Ho1200 2.669 . S
O1225 Ho1201 2.305 . S
O1225 C1210 1.256 . S
O1226 Ho1201 2.322 . S
O1226 C1211 1.259 . S
O1227 Ho1200 2.346 . S
O1227 C1211 1.268 . S
O1228 Ho1201 2.378 . S
O1228 C1212 1.215 . S
O1229 Ho1201 2.524 . S
O1229 C1212 1.289 . S
O1230 Ho1201 2.381 . S
O1230 C1219 1.275 . S
O1231 Ho1200 2.305 . S
O1231 Ho1201 2.669 . S
O1231 C1219 1.256 . S
H1232 C1205 0.930 . S
H1233 C1206 0.931 . S
H1234 C1208 0.934 . S
H1235 C1209 0.930 . S
H1236 C1214 0.930 . S
H1237 C1215 0.931 . S
H1238 C1217 0.934 . S
H1239 C1218 0.930 . S
Ho1240 C1243 2.811 . S
Ho1240 O1260 2.322 . S
Ho1240 O1262 2.378 . S
Ho1240 O1263 2.524 . S
Ho1240 O1264 2.381 . S
Ho1240 O1265 2.669 . S
Ho1240 O1267 2.346 . S
Ho1240 O1271 2.305 . S
Ho1241 C1252 2.811 . S
Ho1241 O1261 2.346 . S
Ho1241 O1265 2.305 . S
Ho1241 O1266 2.322 . S
Ho1241 O1268 2.378 . S
Ho1241 O1269 2.524 . S
Ho1241 O1270 2.381 . S
Ho1241 O1271 2.669 . S
C1242 O1260 1.259 . S
C1242 O1261 1.268 . S
C1243 Ho1240 2.811 . S
C1243 C1244 1.488 . S
C1243 O1262 1.215 . S
C1243 O1263 1.289 . S
C1244 C1243 1.488 . S
C1244 C1245 1.348 . S
C1244 C1249 1.413 . S
C1245 C1244 1.348 . S
C1245 C1246 1.442 . S
C1245 H1272 0.930 . S
C1246 C1245 1.442 . S
C1246 C1247 1.381 . S
C1246 H1273 0.931 . S
C1247 C1246 1.381 . S
C1247 C1248 1.321 . S
C1248 C1247 1.321 . S
C1248 C1249 1.403 . S
C1248 H1274 0.934 . S
C1249 C1244 1.413 . S
C1249 C1248 1.403 . S
C1249 H1275 0.930 . S
C1250 O1264 1.275 . S
C1250 O1265 1.256 . S
C1251 O1266 1.259 . S
C1251 O1267 1.268 . S
C1252 Ho1241 2.811 . S
C1252 C1253 1.488 . S
C1252 O1268 1.215 . S
C1252 O1269 1.289 . S
C1253 C1252 1.488 . S
C1253 C1254 1.348 . S
C1253 C1258 1.413 . S
C1254 C1253 1.348 . S
C1254 C1255 1.442 . S
C1254 H1276 0.930 . S
C1255 C1254 1.442 . S
C1255 C1256 1.381 . S
C1255 H1277 0.931 . S
C1256 C1255 1.381 . S
C1256 C1257 1.321 . S
C1257 C1256 1.321 . S
C1257 C1258 1.403 . S
C1257 H1278 0.934 . S
C1258 C1253 1.413 . S
C1258 C1257 1.403 . S
C1258 H1279 0.930 . S
C1259 O1270 1.275 . S
C1259 O1271 1.256 . S
O1260 Ho1240 2.322 . S
O1260 C1242 1.259 . S
O1261 Ho1241 2.346 . S
O1261 C1242 1.268 . S
O1262 Ho1240 2.378 . S
O1262 C1243 1.215 . S
O1263 Ho1240 2.524 . S
O1263 C1243 1.289 . S
O1264 Ho1240 2.381 . S
O1264 C1250 1.275 . S
O1265 Ho1240 2.669 . S
O1265 Ho1241 2.305 . S
O1265 C1250 1.256 . S
O1266 Ho1241 2.322 . S
O1266 C1251 1.259 . S
O1267 Ho1240 2.346 . S
O1267 C1251 1.268 . S
O1268 Ho1241 2.378 . S
O1268 C1252 1.215 . S
O1269 Ho1241 2.524 . S
O1269 C1252 1.289 . S
O1270 Ho1241 2.381 . S
O1270 C1259 1.275 . S
O1271 Ho1240 2.305 . S
O1271 Ho1241 2.669 . S
O1271 C1259 1.256 . S
H1272 C1245 0.930 . S
H1273 C1246 0.931 . S
H1274 C1248 0.934 . S
H1275 C1249 0.930 . S
H1276 C1254 0.930 . S
H1277 C1255 0.931 . S
H1278 C1257 0.934 . S
H1279 C1258 0.930 . S
C1280 C1281 1.349 . S
C1280 C1282 1.327 . S
C1280 H1305 0.950 . S
C1281 C1280 1.349 . S
C1281 C1297 1.349 . S
C1282 C1280 1.327 . S
C1282 C1301 1.429 . S
C1282 H1306 0.950 . S
C1283 C1300 1.574 . S
C1283 C1302 1.368 . S
C1283 H1307 0.949 . S
H1284 C1288 0.949 . S
C1285 C1286 1.349 . S
C1285 C1287 1.327 . S
C1285 H1308 0.950 . S
C1286 C1285 1.349 . S
C1286 C1298 1.349 . S
C1287 C1285 1.327 . S
C1287 C1303 1.429 . S
C1287 H1309 0.950 . S
C1288 H1284 0.949 . S
C1288 C1296 1.574 . S
C1288 C1304 1.368 . S
H1289 C1297 0.950 . S
H1290 C1295 0.950 . S
H1291 C1296 0.949 . S
H1292 C1298 0.950 . S
H1293 C1299 0.950 . S
H1294 C1300 0.949 . S
C1295 H1290 0.950 . S
C1295 C1297 1.327 . S
C1295 C1301 1.429 . S
C1296 C1288 1.574 . S
C1296 H1291 0.949 . S
C1296 C1302 1.368 . S
C1297 C1281 1.349 . S
C1297 H1289 0.950 . S
C1297 C1295 1.327 . S
C1298 C1286 1.349 . S
C1298 H1292 0.950 . S
C1298 C1299 1.327 . S
C1299 H1293 0.950 . S
C1299 C1298 1.327 . S
C1299 C1303 1.429 . S
C1300 C1283 1.574 . S
C1300 H1294 0.949 . S
C1300 C1304 1.368 . S
C1301 C1282 1.429 . S
C1301 C1295 1.429 . S
C1301 C1302 1.523 . S
C1302 C1283 1.368 . S
C1302 C1296 1.368 . S
C1302 C1301 1.523 . S
C1303 C1287 1.429 . S
C1303 C1299 1.429 . S
C1303 C1304 1.523 . S
C1304 C1288 1.368 . S
C1304 C1300 1.368 . S
C1304 C1303 1.523 . S
H1305 C1280 0.950 . S
H1306 C1282 0.950 . S
H1307 C1283 0.949 . S
H1308 C1285 0.950 . S
H1309 C1287 0.950 . S
C1310 C1311 1.349 . S
C1310 C1312 1.327 . S
C1310 H1335 0.950 . S
C1311 C1310 1.349 . S
C1311 C1327 1.349 . S
C1312 C1310 1.327 . S
C1312 C1331 1.429 . S
C1312 H1336 0.950 . S
C1313 C1330 1.574 . S
C1313 C1332 1.368 . S
C1313 H1337 0.949 . S
H1314 C1318 0.949 . S
C1315 C1316 1.349 . S
C1315 C1317 1.327 . S
C1315 H1338 0.950 . S
C1316 C1315 1.349 . S
C1316 C1328 1.349 . S
C1317 C1315 1.327 . S
C1317 C1333 1.429 . S
C1317 H1339 0.950 . S
C1318 H1314 0.949 . S
C1318 C1326 1.574 . S
C1318 C1334 1.368 . S
H1319 C1327 0.950 . S
H1320 C1325 0.950 . S
H1321 C1326 0.949 . S
H1322 C1328 0.950 . S
H1323 C1329 0.950 . S
H1324 C1330 0.949 . S
C1325 H1320 0.950 . S
C1325 C1327 1.327 . S
C1325 C1331 1.429 . S
C1326 C1318 1.574 . S
C1326 H1321 0.949 . S
C1326 C1332 1.368 . S
C1327 C1311 1.349 . S
C1327 H1319 0.950 . S
C1327 C1325 1.327 . S
C1328 C1316 1.349 . S
C1328 H1322 0.950 . S
C1328 C1329 1.327 . S
C1329 H1323 0.950 . S
C1329 C1328 1.327 . S
C1329 C1333 1.429 . S
C1330 C1313 1.574 . S
C1330 H1324 0.949 . S
C1330 C1334 1.368 . S
C1331 C1312 1.429 . S
C1331 C1325 1.429 . S
C1331 C1332 1.523 . S
C1332 C1313 1.368 . S
C1332 C1326 1.368 . S
C1332 C1331 1.523 . S
C1333 C1317 1.429 . S
C1333 C1329 1.429 . S
C1333 C1334 1.523 . S
C1334 C1318 1.368 . S
C1334 C1330 1.368 . S
C1334 C1333 1.523 . S
H1335 C1310 0.950 . S
H1336 C1312 0.950 . S
H1337 C1313 0.949 . S
H1338 C1315 0.950 . S
H1339 C1317 0.950 . S
C1340 C1341 1.349 . S
C1340 C1342 1.327 . S
C1340 H1365 0.950 . S
C1341 C1340 1.349 . S
C1341 C1357 1.349 . S
C1342 C1340 1.327 . S
C1342 C1361 1.429 . S
C1342 H1366 0.950 . S
C1343 C1360 1.574 . S
C1343 C1362 1.368 . S
C1343 H1367 0.949 . S
H1344 C1348 0.949 . S
C1345 C1346 1.349 . S
C1345 C1347 1.327 . S
C1345 H1368 0.950 . S
C1346 C1345 1.349 . S
C1346 C1358 1.349 . S
C1347 C1345 1.327 . S
C1347 C1363 1.429 . S
C1347 H1369 0.950 . S
C1348 H1344 0.949 . S
C1348 C1356 1.574 . S
C1348 C1364 1.368 . S
H1349 C1357 0.950 . S
H1350 C1355 0.950 . S
H1351 C1356 0.949 . S
H1352 C1358 0.950 . S
H1353 C1359 0.950 . S
H1354 C1360 0.949 . S
C1355 H1350 0.950 . S
C1355 C1357 1.327 . S
C1355 C1361 1.429 . S
C1356 C1348 1.574 . S
C1356 H1351 0.949 . S
C1356 C1362 1.368 . S
C1357 C1341 1.349 . S
C1357 H1349 0.950 . S
C1357 C1355 1.327 . S
C1358 C1346 1.349 . S
C1358 H1352 0.950 . S
C1358 C1359 1.327 . S
C1359 H1353 0.950 . S
C1359 C1358 1.327 . S
C1359 C1363 1.429 . S
C1360 C1343 1.574 . S
C1360 H1354 0.949 . S
C1360 C1364 1.368 . S
C1361 C1342 1.429 . S
C1361 C1355 1.429 . S
C1361 C1362 1.523 . S
C1362 C1343 1.368 . S
C1362 C1356 1.368 . S
C1362 C1361 1.523 . S
C1363 C1347 1.429 . S
C1363 C1359 1.429 . S
C1363 C1364 1.523 . S
C1364 C1348 1.368 . S
C1364 C1360 1.368 . S
C1364 C1363 1.523 . S
H1365 C1340 0.950 . S
H1366 C1342 0.950 . S
H1367 C1343 0.949 . S
H1368 C1345 0.950 . S
H1369 C1347 0.950 . S
C1370 C1371 1.349 . S
C1370 C1372 1.327 . S
C1370 H1395 0.950 . S
C1371 C1370 1.349 . S
C1371 C1387 1.349 . S
C1372 C1370 1.327 . S
C1372 C1391 1.429 . S
C1372 H1396 0.950 . S
C1373 C1390 1.574 . S
C1373 C1392 1.368 . S
C1373 H1397 0.949 . S
H1374 C1378 0.949 . S
C1375 C1376 1.349 . S
C1375 C1377 1.327 . S
C1375 H1398 0.950 . S
C1376 C1375 1.349 . S
C1376 C1388 1.349 . S
C1377 C1375 1.327 . S
C1377 C1393 1.429 . S
C1377 H1399 0.950 . S
C1378 H1374 0.949 . S
C1378 C1386 1.574 . S
C1378 C1394 1.368 . S
H1379 C1387 0.950 . S
H1380 C1385 0.950 . S
H1381 C1386 0.949 . S
H1382 C1388 0.950 . S
H1383 C1389 0.950 . S
H1384 C1390 0.949 . S
C1385 H1380 0.950 . S
C1385 C1387 1.327 . S
C1385 C1391 1.429 . S
C1386 C1378 1.574 . S
C1386 H1381 0.949 . S
C1386 C1392 1.368 . S
C1387 C1371 1.349 . S
C1387 H1379 0.950 . S
C1387 C1385 1.327 . S
C1388 C1376 1.349 . S
C1388 H1382 0.950 . S
C1388 C1389 1.327 . S
C1389 H1383 0.950 . S
C1389 C1388 1.327 . S
C1389 C1393 1.429 . S
C1390 C1373 1.574 . S
C1390 H1384 0.949 . S
C1390 C1394 1.368 . S
C1391 C1372 1.429 . S
C1391 C1385 1.429 . S
C1391 C1392 1.523 . S
C1392 C1373 1.368 . S
C1392 C1386 1.368 . S
C1392 C1391 1.523 . S
C1393 C1377 1.429 . S
C1393 C1389 1.429 . S
C1393 C1394 1.523 . S
C1394 C1378 1.368 . S
C1394 C1390 1.368 . S
C1394 C1393 1.523 . S
H1395 C1370 0.950 . S
H1396 C1372 0.950 . S
H1397 C1373 0.949 . S
H1398 C1375 0.950 . S
H1399 C1377 0.950 . S
C1400 C1401 1.349 . S
C1400 C1402 1.327 . S
C1400 H1425 0.950 . S
C1401 C1400 1.349 . S
C1401 C1417 1.349 . S
C1402 C1400 1.327 . S
C1402 C1421 1.429 . S
C1402 H1426 0.950 . S
C1403 C1420 1.574 . S
C1403 C1422 1.368 . S
C1403 H1427 0.949 . S
H1404 C1408 0.949 . S
C1405 C1406 1.349 . S
C1405 C1407 1.327 . S
C1405 H1428 0.950 . S
C1406 C1405 1.349 . S
C1406 C1418 1.349 . S
C1407 C1405 1.327 . S
C1407 C1423 1.429 . S
C1407 H1429 0.950 . S
C1408 H1404 0.949 . S
C1408 C1416 1.574 . S
C1408 C1424 1.368 . S
H1409 C1417 0.950 . S
H1410 C1415 0.950 . S
H1411 C1416 0.949 . S
H1412 C1418 0.950 . S
H1413 C1419 0.950 . S
H1414 C1420 0.949 . S
C1415 H1410 0.950 . S
C1415 C1417 1.327 . S
C1415 C1421 1.429 . S
C1416 C1408 1.574 . S
C1416 H1411 0.949 . S
C1416 C1422 1.368 . S
C1417 C1401 1.349 . S
C1417 H1409 0.950 . S
C1417 C1415 1.327 . S
C1418 C1406 1.349 . S
C1418 H1412 0.950 . S
C1418 C1419 1.327 . S
C1419 H1413 0.950 . S
C1419 C1418 1.327 . S
C1419 C1423 1.429 . S
C1420 C1403 1.574 . S
C1420 H1414 0.949 . S
C1420 C1424 1.368 . S
C1421 C1402 1.429 . S
C1421 C1415 1.429 . S
C1421 C1422 1.523 . S
C1422 C1403 1.368 . S
C1422 C1416 1.368 . S
C1422 C1421 1.523 . S
C1423 C1407 1.429 . S
C1423 C1419 1.429 . S
C1423 C1424 1.523 . S
C1424 C1408 1.368 . S
C1424 C1420 1.368 . S
C1424 C1423 1.523 . S
H1425 C1400 0.950 . S
H1426 C1402 0.950 . S
H1427 C1403 0.949 . S
H1428 C1405 0.950 . S
H1429 C1407 0.950 . S
C1430 C1431 1.349 . S
C1430 C1432 1.327 . S
C1430 H1455 0.950 . S
C1431 C1430 1.349 . S
C1431 C1447 1.349 . S
C1432 C1430 1.327 . S
C1432 C1451 1.429 . S
C1432 H1456 0.950 . S
C1433 C1450 1.574 . S
C1433 C1452 1.368 . S
C1433 H1457 0.949 . S
H1434 C1438 0.949 . S
C1435 C1436 1.349 . S
C1435 C1437 1.327 . S
C1435 H1458 0.950 . S
C1436 C1435 1.349 . S
C1436 C1448 1.349 . S
C1437 C1435 1.327 . S
C1437 C1453 1.429 . S
C1437 H1459 0.950 . S
C1438 H1434 0.949 . S
C1438 C1446 1.574 . S
C1438 C1454 1.368 . S
H1439 C1447 0.950 . S
H1440 C1445 0.950 . S
H1441 C1446 0.949 . S
H1442 C1448 0.950 . S
H1443 C1449 0.950 . S
H1444 C1450 0.949 . S
C1445 H1440 0.950 . S
C1445 C1447 1.327 . S
C1445 C1451 1.429 . S
C1446 C1438 1.574 . S
C1446 H1441 0.949 . S
C1446 C1452 1.368 . S
C1447 C1431 1.349 . S
C1447 H1439 0.950 . S
C1447 C1445 1.327 . S
C1448 C1436 1.349 . S
C1448 H1442 0.950 . S
C1448 C1449 1.327 . S
C1449 H1443 0.950 . S
C1449 C1448 1.327 . S
C1449 C1453 1.429 . S
C1450 C1433 1.574 . S
C1450 H1444 0.949 . S
C1450 C1454 1.368 . S
C1451 C1432 1.429 . S
C1451 C1445 1.429 . S
C1451 C1452 1.523 . S
C1452 C1433 1.368 . S
C1452 C1446 1.368 . S
C1452 C1451 1.523 . S
C1453 C1437 1.429 . S
C1453 C1449 1.429 . S
C1453 C1454 1.523 . S
C1454 C1438 1.368 . S
C1454 C1450 1.368 . S
C1454 C1453 1.523 . S
H1455 C1430 0.950 . S
H1456 C1432 0.950 . S
H1457 C1433 0.949 . S
H1458 C1435 0.950 . S
H1459 C1437 0.950 . S
C1460 C1461 1.349 . S
C1460 C1462 1.327 . S
C1460 H1485 0.950 . S
C1461 C1460 1.349 . S
C1461 C1477 1.349 . S
C1462 C1460 1.327 . S
C1462 C1481 1.429 . S
C1462 H1486 0.950 . S
C1463 C1480 1.574 . S
C1463 C1482 1.368 . S
C1463 H1487 0.949 . S
H1464 C1468 0.949 . S
C1465 C1466 1.349 . S
C1465 C1467 1.327 . S
C1465 H1488 0.950 . S
C1466 C1465 1.349 . S
C1466 C1478 1.349 . S
C1467 C1465 1.327 . S
C1467 C1483 1.429 . S
C1467 H1489 0.950 . S
C1468 H1464 0.949 . S
C1468 C1476 1.574 . S
C1468 C1484 1.368 . S
H1469 C1477 0.950 . S
H1470 C1475 0.950 . S
H1471 C1476 0.949 . S
H1472 C1478 0.950 . S
H1473 C1479 0.950 . S
H1474 C1480 0.949 . S
C1475 H1470 0.950 . S
C1475 C1477 1.327 . S
C1475 C1481 1.429 . S
C1476 C1468 1.574 . S
C1476 H1471 0.949 . S
C1476 C1482 1.368 . S
C1477 C1461 1.349 . S
C1477 H1469 0.950 . S
C1477 C1475 1.327 . S
C1478 C1466 1.349 . S
C1478 H1472 0.950 . S
C1478 C1479 1.327 . S
C1479 H1473 0.950 . S
C1479 C1478 1.327 . S
C1479 C1483 1.429 . S
C1480 C1463 1.574 . S
C1480 H1474 0.949 . S
C1480 C1484 1.368 . S
C1481 C1462 1.429 . S
C1481 C1475 1.429 . S
C1481 C1482 1.523 . S
C1482 C1463 1.368 . S
C1482 C1476 1.368 . S
C1482 C1481 1.523 . S
C1483 C1467 1.429 . S
C1483 C1479 1.429 . S
C1483 C1484 1.523 . S
C1484 C1468 1.368 . S
C1484 C1480 1.368 . S
C1484 C1483 1.523 . S
H1485 C1460 0.950 . S
H1486 C1462 0.950 . S
H1487 C1463 0.949 . S
H1488 C1465 0.950 . S
H1489 C1467 0.950 . S
C1490 C1491 1.349 . S
C1490 C1492 1.327 . S
C1490 H1515 0.950 . S
C1491 C1490 1.349 . S
C1491 C1507 1.349 . S
C1492 C1490 1.327 . S
C1492 C1511 1.429 . S
C1492 H1516 0.950 . S
C1493 C1510 1.574 . S
C1493 C1512 1.368 . S
C1493 H1517 0.949 . S
H1494 C1498 0.949 . S
C1495 C1496 1.349 . S
C1495 C1497 1.327 . S
C1495 H1518 0.950 . S
C1496 C1495 1.349 . S
C1496 C1508 1.349 . S
C1497 C1495 1.327 . S
C1497 C1513 1.429 . S
C1497 H1519 0.950 . S
C1498 H1494 0.949 . S
C1498 C1506 1.574 . S
C1498 C1514 1.368 . S
H1499 C1507 0.950 . S
H1500 C1505 0.950 . S
H1501 C1506 0.949 . S
H1502 C1508 0.950 . S
H1503 C1509 0.950 . S
H1504 C1510 0.949 . S
C1505 H1500 0.950 . S
C1505 C1507 1.327 . S
C1505 C1511 1.429 . S
C1506 C1498 1.574 . S
C1506 H1501 0.949 . S
C1506 C1512 1.368 . S
C1507 C1491 1.349 . S
C1507 H1499 0.950 . S
C1507 C1505 1.327 . S
C1508 C1496 1.349 . S
C1508 H1502 0.950 . S
C1508 C1509 1.327 . S
C1509 H1503 0.950 . S
C1509 C1508 1.327 . S
C1509 C1513 1.429 . S
C1510 C1493 1.574 . S
C1510 H1504 0.949 . S
C1510 C1514 1.368 . S
C1511 C1492 1.429 . S
C1511 C1505 1.429 . S
C1511 C1512 1.523 . S
C1512 C1493 1.368 . S
C1512 C1506 1.368 . S
C1512 C1511 1.523 . S
C1513 C1497 1.429 . S
C1513 C1509 1.429 . S
C1513 C1514 1.523 . S
C1514 C1498 1.368 . S
C1514 C1510 1.368 . S
C1514 C1513 1.523 . S
H1515 C1490 0.950 . S
H1516 C1492 0.950 . S
H1517 C1493 0.949 . S
H1518 C1495 0.950 . S
H1519 C1497 0.950 . S
C1520 C1521 1.349 . S
C1520 C1522 1.327 . S
C1520 H1545 0.950 . S
C1521 C1520 1.349 . S
C1521 C1537 1.349 . S
C1522 C1520 1.327 . S
C1522 C1541 1.429 . S
C1522 H1546 0.950 . S
C1523 C1540 1.574 . S
C1523 C1542 1.368 . S
C1523 H1547 0.949 . S
H1524 C1528 0.949 . S
C1525 C1526 1.349 . S
C1525 C1527 1.327 . S
C1525 H1548 0.950 . S
C1526 C1525 1.349 . S
C1526 C1538 1.349 . S
C1527 C1525 1.327 . S
C1527 C1543 1.429 . S
C1527 H1549 0.950 . S
C1528 H1524 0.949 . S
C1528 C1536 1.574 . S
C1528 C1544 1.368 . S
H1529 C1537 0.950 . S
H1530 C1535 0.950 . S
H1531 C1536 0.949 . S
H1532 C1538 0.950 . S
H1533 C1539 0.950 . S
H1534 C1540 0.949 . S
C1535 H1530 0.950 . S
C1535 C1537 1.327 . S
C1535 C1541 1.429 . S
C1536 C1528 1.574 . S
C1536 H1531 0.949 . S
C1536 C1542 1.368 . S
C1537 C1521 1.349 . S
C1537 H1529 0.950 . S
C1537 C1535 1.327 . S
C1538 C1526 1.349 . S
C1538 H1532 0.950 . S
C1538 C1539 1.327 . S
C1539 H1533 0.950 . S
C1539 C1538 1.327 . S
C1539 C1543 1.429 . S
C1540 C1523 1.574 . S
C1540 H1534 0.949 . S
C1540 C1544 1.368 . S
C1541 C1522 1.429 . S
C1541 C1535 1.429 . S
C1541 C1542 1.523 . S
C1542 C1523 1.368 . S
C1542 C1536 1.368 . S
C1542 C1541 1.523 . S
C1543 C1527 1.429 . S
C1543 C1539 1.429 . S
C1543 C1544 1.523 . S
C1544 C1528 1.368 . S
C1544 C1540 1.368 . S
C1544 C1543 1.523 . S
H1545 C1520 0.950 . S
H1546 C1522 0.950 . S
H1547 C1523 0.949 . S
H1548 C1525 0.950 . S
H1549 C1527 0.950 . S
C1550 C1551 1.349 . S
C1550 C1552 1.327 . S
C1550 H1575 0.950 . S
C1551 C1550 1.349 . S
C1551 C1567 1.349 . S
C1552 C1550 1.327 . S
C1552 C1571 1.429 . S
C1552 H1576 0.950 . S
C1553 C1570 1.574 . S
C1553 C1572 1.368 . S
C1553 H1577 0.949 . S
H1554 C1558 0.949 . S
C1555 C1556 1.349 . S
C1555 C1557 1.327 . S
C1555 H1578 0.950 . S
C1556 C1555 1.349 . S
C1556 C1568 1.349 . S
C1557 C1555 1.327 . S
C1557 C1573 1.429 . S
C1557 H1579 0.950 . S
C1558 H1554 0.949 . S
C1558 C1566 1.574 . S
C1558 C1574 1.368 . S
H1559 C1567 0.950 . S
H1560 C1565 0.950 . S
H1561 C1566 0.949 . S
H1562 C1568 0.950 . S
H1563 C1569 0.950 . S
H1564 C1570 0.949 . S
C1565 H1560 0.950 . S
C1565 C1567 1.327 . S
C1565 C1571 1.429 . S
C1566 C1558 1.574 . S
C1566 H1561 0.949 . S
C1566 C1572 1.368 . S
C1567 C1551 1.349 . S
C1567 H1559 0.950 . S
C1567 C1565 1.327 . S
C1568 C1556 1.349 . S
C1568 H1562 0.950 . S
C1568 C1569 1.327 . S
C1569 H1563 0.950 . S
C1569 C1568 1.327 . S
C1569 C1573 1.429 . S
C1570 C1553 1.574 . S
C1570 H1564 0.949 . S
C1570 C1574 1.368 . S
C1571 C1552 1.429 . S
C1571 C1565 1.429 . S
C1571 C1572 1.523 . S
C1572 C1553 1.368 . S
C1572 C1566 1.368 . S
C1572 C1571 1.523 . S
C1573 C1557 1.429 . S
C1573 C1569 1.429 . S
C1573 C1574 1.523 . S
C1574 C1558 1.368 . S
C1574 C1570 1.368 . S
C1574 C1573 1.523 . S
H1575 C1550 0.950 . S
H1576 C1552 0.950 . S
H1577 C1553 0.949 . S
H1578 C1555 0.950 . S
H1579 C1557 0.950 . S
C1580 C1581 1.349 . S
C1580 C1582 1.327 . S
C1580 H1605 0.950 . S
C1581 C1580 1.349 . S
C1581 C1597 1.349 . S
C1582 C1580 1.327 . S
C1582 C1601 1.429 . S
C1582 H1606 0.950 . S
C1583 C1600 1.574 . S
C1583 C1602 1.368 . S
C1583 H1607 0.949 . S
H1584 C1588 0.949 . S
C1585 C1586 1.349 . S
C1585 C1587 1.327 . S
C1585 H1608 0.950 . S
C1586 C1585 1.349 . S
C1586 C1598 1.349 . S
C1587 C1585 1.327 . S
C1587 C1603 1.429 . S
C1587 H1609 0.950 . S
C1588 H1584 0.949 . S
C1588 C1596 1.574 . S
C1588 C1604 1.368 . S
H1589 C1597 0.950 . S
H1590 C1595 0.950 . S
H1591 C1596 0.949 . S
H1592 C1598 0.950 . S
H1593 C1599 0.950 . S
H1594 C1600 0.949 . S
C1595 H1590 0.950 . S
C1595 C1597 1.327 . S
C1595 C1601 1.429 . S
C1596 C1588 1.574 . S
C1596 H1591 0.949 . S
C1596 C1602 1.368 . S
C1597 C1581 1.349 . S
C1597 H1589 0.950 . S
C1597 C1595 1.327 . S
C1598 C1586 1.349 . S
C1598 H1592 0.950 . S
C1598 C1599 1.327 . S
C1599 H1593 0.950 . S
C1599 C1598 1.327 . S
C1599 C1603 1.429 . S
C1600 C1583 1.574 . S
C1600 H1594 0.949 . S
C1600 C1604 1.368 . S
C1601 C1582 1.429 . S
C1601 C1595 1.429 . S
C1601 C1602 1.523 . S
C1602 C1583 1.368 . S
C1602 C1596 1.368 . S
C1602 C1601 1.523 . S
C1603 C1587 1.429 . S
C1603 C1599 1.429 . S
C1603 C1604 1.523 . S
C1604 C1588 1.368 . S
C1604 C1600 1.368 . S
C1604 C1603 1.523 . S
H1605 C1580 0.950 . S
H1606 C1582 0.950 . S
H1607 C1583 0.949 . S
H1608 C1585 0.950 . S
H1609 C1587 0.950 . S
C1610 C1611 1.349 . S
C1610 C1612 1.327 . S
C1610 H1635 0.950 . S
C1611 C1610 1.349 . S
C1611 C1627 1.349 . S
C1612 C1610 1.327 . S
C1612 C1631 1.429 . S
C1612 H1636 0.950 . S
C1613 C1630 1.574 . S
C1613 C1632 1.368 . S
C1613 H1637 0.949 . S
H1614 C1618 0.949 . S
C1615 C1616 1.349 . S
C1615 C1617 1.327 . S
C1615 H1638 0.950 . S
C1616 C1615 1.349 . S
C1616 C1628 1.349 . S
C1617 C1615 1.327 . S
C1617 C1633 1.429 . S
C1617 H1639 0.950 . S
C1618 H1614 0.949 . S
C1618 C1626 1.574 . S
C1618 C1634 1.368 . S
H1619 C1627 0.950 . S
H1620 C1625 0.950 . S
H1621 C1626 0.949 . S
H1622 C1628 0.950 . S
H1623 C1629 0.950 . S
H1624 C1630 0.949 . S
C1625 H1620 0.950 . S
C1625 C1627 1.327 . S
C1625 C1631 1.429 . S
C1626 C1618 1.574 . S
C1626 H1621 0.949 . S
C1626 C1632 1.368 . S
C1627 C1611 1.349 . S
C1627 H1619 0.950 . S
C1627 C1625 1.327 . S
C1628 C1616 1.349 . S
C1628 H1622 0.950 . S
C1628 C1629 1.327 . S
C1629 H1623 0.950 . S
C1629 C1628 1.327 . S
C1629 C1633 1.429 . S
C1630 C1613 1.574 . S
C1630 H1624 0.949 . S
C1630 C1634 1.368 . S
C1631 C1612 1.429 . S
C1631 C1625 1.429 . S
C1631 C1632 1.523 . S
C1632 C1613 1.368 . S
C1632 C1626 1.368 . S
C1632 C1631 1.523 . S
C1633 C1617 1.429 . S
C1633 C1629 1.429 . S
C1633 C1634 1.523 . S
C1634 C1618 1.368 . S
C1634 C1630 1.368 . S
C1634 C1633 1.523 . S
H1635 C1610 0.950 . S
H1636 C1612 0.950 . S
H1637 C1613 0.949 . S
H1638 C1615 0.950 . S
H1639 C1617 0.950 . S
C1640 C1641 1.349 . S
C1640 C1642 1.327 . S
C1640 H1665 0.950 . S
C1641 C1640 1.349 . S
C1641 C1657 1.349 . S
C1642 C1640 1.327 . S
C1642 C1661 1.429 . S
C1642 H1666 0.950 . S
C1643 C1660 1.574 . S
C1643 C1662 1.368 . S
C1643 H1667 0.949 . S
H1644 C1648 0.949 . S
C1645 C1646 1.349 . S
C1645 C1647 1.327 . S
C1645 H1668 0.950 . S
C1646 C1645 1.349 . S
C1646 C1658 1.349 . S
C1647 C1645 1.327 . S
C1647 C1663 1.429 . S
C1647 H1669 0.950 . S
C1648 H1644 0.949 . S
C1648 C1656 1.574 . S
C1648 C1664 1.368 . S
H1649 C1657 0.950 . S
H1650 C1655 0.950 . S
H1651 C1656 0.949 . S
H1652 C1658 0.950 . S
H1653 C1659 0.950 . S
H1654 C1660 0.949 . S
C1655 H1650 0.950 . S
C1655 C1657 1.327 . S
C1655 C1661 1.429 . S
C1656 C1648 1.574 . S
C1656 H1651 0.949 . S
C1656 C1662 1.368 . S
C1657 C1641 1.349 . S
C1657 H1649 0.950 . S
C1657 C1655 1.327 . S
C1658 C1646 1.349 . S
C1658 H1652 0.950 . S
C1658 C1659 1.327 . S
C1659 H1653 0.950 . S
C1659 C1658 1.327 . S
C1659 C1663 1.429 . S
C1660 C1643 1.574 . S
C1660 H1654 0.949 . S
C1660 C1664 1.368 . S
C1661 C1642 1.429 . S
C1661 C1655 1.429 . S
C1661 C1662 1.523 . S
C1662 C1643 1.368 . S
C1662 C1656 1.368 . S
C1662 C1661 1.523 . S
C1663 C1647 1.429 . S
C1663 C1659 1.429 . S
C1663 C1664 1.523 . S
C1664 C1648 1.368 . S
C1664 C1660 1.368 . S
C1664 C1663 1.523 . S
H1665 C1640 0.950 . S
H1666 C1642 0.950 . S
H1667 C1643 0.949 . S
H1668 C1645 0.950 . S
H1669 C1647 0.950 . S
C1670 C1671 1.349 . S
C1670 C1672 1.327 . S
C1670 H1695 0.950 . S
C1671 C1670 1.349 . S
C1671 C1687 1.349 . S
C1672 C1670 1.327 . S
C1672 C1691 1.429 . S
C1672 H1696 0.950 . S
C1673 C1690 1.574 . S
C1673 C1692 1.368 . S
C1673 H1697 0.949 . S
H1674 C1678 0.949 . S
C1675 C1676 1.349 . S
C1675 C1677 1.327 . S
C1675 H1698 0.950 . S
C1676 C1675 1.349 . S
C1676 C1688 1.349 . S
C1677 C1675 1.327 . S
C1677 C1693 1.429 . S
C1677 H1699 0.950 . S
C1678 H1674 0.949 . S
C1678 C1686 1.574 . S
C1678 C1694 1.368 . S
H1679 C1687 0.950 . S
H1680 C1685 0.950 . S
H1681 C1686 0.949 . S
H1682 C1688 0.950 . S
H1683 C1689 0.950 . S
H1684 C1690 0.949 . S
C1685 H1680 0.950 . S
C1685 C1687 1.327 . S
C1685 C1691 1.429 . S
C1686 C1678 1.574 . S
C1686 H1681 0.949 . S
C1686 C1692 1.368 . S
C1687 C1671 1.349 . S
C1687 H1679 0.950 . S
C1687 C1685 1.327 . S
C1688 C1676 1.349 . S
C1688 H1682 0.950 . S
C1688 C1689 1.327 . S
C1689 H1683 0.950 . S
C1689 C1688 1.327 . S
C1689 C1693 1.429 . S
C1690 C1673 1.574 . S
C1690 H1684 0.949 . S
C1690 C1694 1.368 . S
C1691 C1672 1.429 . S
C1691 C1685 1.429 . S
C1691 C1692 1.523 . S
C1692 C1673 1.368 . S
C1692 C1686 1.368 . S
C1692 C1691 1.523 . S
C1693 C1677 1.429 . S
C1693 C1689 1.429 . S
C1693 C1694 1.523 . S
C1694 C1678 1.368 . S
C1694 C1690 1.368 . S
C1694 C1693 1.523 . S
H1695 C1670 0.950 . S
H1696 C1672 0.950 . S
H1697 C1673 0.949 . S
H1698 C1675 0.950 . S
H1699 C1677 0.950 . S
C1700 C1701 1.349 . S
C1700 C1702 1.327 . S
C1700 H1725 0.950 . S
C1701 C1700 1.349 . S
C1701 C1717 1.349 . S
C1702 C1700 1.327 . S
C1702 C1721 1.429 . S
C1702 H1726 0.950 . S
C1703 C1720 1.574 . S
C1703 C1722 1.368 . S
C1703 H1727 0.949 . S
H1704 C1708 0.949 . S
C1705 C1706 1.349 . S
C1705 C1707 1.327 . S
C1705 H1728 0.950 . S
C1706 C1705 1.349 . S
C1706 C1718 1.349 . S
C1707 C1705 1.327 . S
C1707 C1723 1.429 . S
C1707 H1729 0.950 . S
C1708 H1704 0.949 . S
C1708 C1716 1.574 . S
C1708 C1724 1.368 . S
H1709 C1717 0.950 . S
H1710 C1715 0.950 . S
H1711 C1716 0.949 . S
H1712 C1718 0.950 . S
H1713 C1719 0.950 . S
H1714 C1720 0.949 . S
C1715 H1710 0.950 . S
C1715 C1717 1.327 . S
C1715 C1721 1.429 . S
C1716 C1708 1.574 . S
C1716 H1711 0.949 . S
C1716 C1722 1.368 . S
C1717 C1701 1.349 . S
C1717 H1709 0.950 . S
C1717 C1715 1.327 . S
C1718 C1706 1.349 . S
C1718 H1712 0.950 . S
C1718 C1719 1.327 . S
C1719 H1713 0.950 . S
C1719 C1718 1.327 . S
C1719 C1723 1.429 . S
C1720 C1703 1.574 . S
C1720 H1714 0.949 . S
C1720 C1724 1.368 . S
C1721 C1702 1.429 . S
C1721 C1715 1.429 . S
C1721 C1722 1.523 . S
C1722 C1703 1.368 . S
C1722 C1716 1.368 . S
C1722 C1721 1.523 . S
C1723 C1707 1.429 . S
C1723 C1719 1.429 . S
C1723 C1724 1.523 . S
C1724 C1708 1.368 . S
C1724 C1720 1.368 . S
C1724 C1723 1.523 . S
H1725 C1700 0.950 . S
H1726 C1702 0.950 . S
H1727 C1703 0.949 . S
H1728 C1705 0.950 . S
H1729 C1707 0.950 . S
C1730 C1731 1.349 . S
C1730 C1732 1.327 . S
C1730 H1755 0.950 . S
C1731 C1730 1.349 . S
C1731 C1747 1.349 . S
C1732 C1730 1.327 . S
C1732 C1751 1.429 . S
C1732 H1756 0.950 . S
C1733 C1750 1.574 . S
C1733 C1752 1.368 . S
C1733 H1757 0.949 . S
H1734 C1738 0.949 . S
C1735 C1736 1.349 . S
C1735 C1737 1.327 . S
C1735 H1758 0.950 . S
C1736 C1735 1.349 . S
C1736 C1748 1.349 . S
C1737 C1735 1.327 . S
C1737 C1753 1.429 . S
C1737 H1759 0.950 . S
C1738 H1734 0.949 . S
C1738 C1746 1.574 . S
C1738 C1754 1.368 . S
H1739 C1747 0.950 . S
H1740 C1745 0.950 . S
H1741 C1746 0.949 . S
H1742 C1748 0.950 . S
H1743 C1749 0.950 . S
H1744 C1750 0.949 . S
C1745 H1740 0.950 . S
C1745 C1747 1.327 . S
C1745 C1751 1.429 . S
C1746 C1738 1.574 . S
C1746 H1741 0.949 . S
C1746 C1752 1.368 . S
C1747 C1731 1.349 . S
C1747 H1739 0.950 . S
C1747 C1745 1.327 . S
C1748 C1736 1.349 . S
C1748 H1742 0.950 . S
C1748 C1749 1.327 . S
C1749 H1743 0.950 . S
C1749 C1748 1.327 . S
C1749 C1753 1.429 . S
C1750 C1733 1.574 . S
C1750 H1744 0.949 . S
C1750 C1754 1.368 . S
C1751 C1732 1.429 . S
C1751 C1745 1.429 . S
C1751 C1752 1.523 . S
C1752 C1733 1.368 . S
C1752 C1746 1.368 . S
C1752 C1751 1.523 . S
C1753 C1737 1.429 . S
C1753 C1749 1.429 . S
C1753 C1754 1.523 . S
C1754 C1738 1.368 . S
C1754 C1750 1.368 . S
C1754 C1753 1.523 . S
H1755 C1730 0.950 . S
H1756 C1732 0.950 . S
H1757 C1733 0.949 . S
H1758 C1735 0.950 . S
H1759 C1737 0.950 . S
C1760 C1761 1.349 . S
C1760 C1762 1.327 . S
C1760 H1785 0.950 . S
C1761 C1760 1.349 . S
C1761 C1777 1.349 . S
C1762 C1760 1.327 . S
C1762 C1781 1.429 . S
C1762 H1786 0.950 . S
C1763 C1780 1.574 . S
C1763 C1782 1.368 . S
C1763 H1787 0.949 . S
H1764 C1768 0.949 . S
C1765 C1766 1.349 . S
C1765 C1767 1.327 . S
C1765 H1788 0.950 . S
C1766 C1765 1.349 . S
C1766 C1778 1.349 . S
C1767 C1765 1.327 . S
C1767 C1783 1.429 . S
C1767 H1789 0.950 . S
C1768 H1764 0.949 . S
C1768 C1776 1.574 . S
C1768 C1784 1.368 . S
H1769 C1777 0.950 . S
H1770 C1775 0.950 . S
H1771 C1776 0.949 . S
H1772 C1778 0.950 . S
H1773 C1779 0.950 . S
H1774 C1780 0.949 . S
C1775 H1770 0.950 . S
C1775 C1777 1.327 . S
C1775 C1781 1.429 . S
C1776 C1768 1.574 . S
C1776 H1771 0.949 . S
C1776 C1782 1.368 . S
C1777 C1761 1.349 . S
C1777 H1769 0.950 . S
C1777 C1775 1.327 . S
C1778 C1766 1.349 . S
C1778 H1772 0.950 . S
C1778 C1779 1.327 . S
C1779 H1773 0.950 . S
C1779 C1778 1.327 . S
C1779 C1783 1.429 . S
C1780 C1763 1.574 . S
C1780 H1774 0.949 . S
C1780 C1784 1.368 . S
C1781 C1762 1.429 . S
C1781 C1775 1.429 . S
C1781 C1782 1.523 . S
C1782 C1763 1.368 . S
C1782 C1776 1.368 . S
C1782 C1781 1.523 . S
C1783 C1767 1.429 . S
C1783 C1779 1.429 . S
C1783 C1784 1.523 . S
C1784 C1768 1.368 . S
C1784 C1780 1.368 . S
C1784 C1783 1.523 . S
H1785 C1760 0.950 . S
H1786 C1762 0.950 . S
H1787 C1763 0.949 . S
H1788 C1765 0.950 . S
H1789 C1767 0.950 . S
C1790 C1791 1.349 . S
C1790 C1792 1.327 . S
C1790 H1815 0.950 . S
C1791 C1790 1.349 . S
C1791 C1807 1.349 . S
C1792 C1790 1.327 . S
C1792 C1811 1.429 . S
C1792 H1816 0.950 . S
C1793 C1810 1.574 . S
C1793 C1812 1.368 . S
C1793 H1817 0.949 . S
H1794 C1798 0.949 . S
C1795 C1796 1.349 . S
C1795 C1797 1.327 . S
C1795 H1818 0.950 . S
C1796 C1795 1.349 . S
C1796 C1808 1.349 . S
C1797 C1795 1.327 . S
C1797 C1813 1.429 . S
C1797 H1819 0.950 . S
C1798 H1794 0.949 . S
C1798 C1806 1.574 . S
C1798 C1814 1.368 . S
H1799 C1807 0.950 . S
H1800 C1805 0.950 . S
H1801 C1806 0.949 . S
H1802 C1808 0.950 . S
H1803 C1809 0.950 . S
H1804 C1810 0.949 . S
C1805 H1800 0.950 . S
C1805 C1807 1.327 . S
C1805 C1811 1.429 . S
C1806 C1798 1.574 . S
C1806 H1801 0.949 . S
C1806 C1812 1.368 . S
C1807 C1791 1.349 . S
C1807 H1799 0.950 . S
C1807 C1805 1.327 . S
C1808 C1796 1.349 . S
C1808 H1802 0.950 . S
C1808 C1809 1.327 . S
C1809 H1803 0.950 . S
C1809 C1808 1.327 . S
C1809 C1813 1.429 . S
C1810 C1793 1.574 . S
C1810 H1804 0.949 . S
C1810 C1814 1.368 . S
C1811 C1792 1.429 . S
C1811 C1805 1.429 . S
C1811 C1812 1.523 . S
C1812 C1793 1.368 . S
C1812 C1806 1.368 . S
C1812 C1811 1.523 . S
C1813 C1797 1.429 . S
C1813 C1809 1.429 . S
C1813 C1814 1.523 . S
C1814 C1798 1.368 . S
C1814 C1810 1.368 . S
C1814 C1813 1.523 . S
H1815 C1790 0.950 . S
H1816 C1792 0.950 . S
H1817 C1793 0.949 . S
H1818 C1795 0.950 . S
H1819 C1797 0.950 . S
C1820 C1821 1.349 . S
C1820 C1822 1.327 . S
C1820 H1845 0.950 . S
C1821 C1820 1.349 . S
C1821 C1837 1.349 . S
C1822 C1820 1.327 . S
C1822 C1841 1.429 . S
C1822 H1846 0.950 . S
C1823 C1840 1.574 . S
C1823 C1842 1.368 . S
C1823 H1847 0.949 . S
H1824 C1828 0.949 . S
C1825 C1826 1.349 . S
C1825 C1827 1.327 . S
C1825 H1848 0.950 . S
C1826 C1825 1.349 . S
C1826 C1838 1.349 . S
C1827 C1825 1.327 . S
C1827 C1843 1.429 . S
C1827 H1849 0.950 . S
C1828 H1824 0.949 . S
C1828 C1836 1.574 . S
C1828 C1844 1.368 . S
H1829 C1837 0.950 . S
H1830 C1835 0.950 . S
H1831 C1836 0.949 . S
H1832 C1838 0.950 . S
H1833 C1839 0.950 . S
H1834 C1840 0.949 . S
C1835 H1830 0.950 . S
C1835 C1837 1.327 . S
C1835 C1841 1.429 . S
C1836 C1828 1.574 . S
C1836 H1831 0.949 . S
C1836 C1842 1.368 . S
C1837 C1821 1.349 . S
C1837 H1829 0.950 . S
C1837 C1835 1.327 . S
C1838 C1826 1.349 . S
C1838 H1832 0.950 . S
C1838 C1839 1.327 . S
C1839 H1833 0.950 . S
C1839 C1838 1.327 . S
C1839 C1843 1.429 . S
C1840 C1823 1.574 . S
C1840 H1834 0.949 . S
C1840 C1844 1.368 . S
C1841 C1822 1.429 . S
C1841 C1835 1.429 . S
C1841 C1842 1.523 . S
C1842 C1823 1.368 . S
C1842 C1836 1.368 . S
C1842 C1841 1.523 . S
C1843 C1827 1.429 . S
C1843 C1839 1.429 . S
C1843 C1844 1.523 . S
C1844 C1828 1.368 . S
C1844 C1840 1.368 . S
C1844 C1843 1.523 . S
H1845 C1820 0.950 . S
H1846 C1822 0.950 . S
H1847 C1823 0.949 . S
H1848 C1825 0.950 . S
H1849 C1827 0.950 . S
C1850 C1851 1.349 . S
C1850 C1852 1.327 . S
C1850 H1875 0.950 . S
C1851 C1850 1.349 . S
C1851 C1867 1.349 . S
C1852 C1850 1.327 . S
C1852 C1871 1.429 . S
C1852 H1876 0.950 . S
C1853 C1870 1.574 . S
C1853 C1872 1.368 . S
C1853 H1877 0.949 . S
H1854 C1858 0.949 . S
C1855 C1856 1.349 . S
C1855 C1857 1.327 . S
C1855 H1878 0.950 . S
C1856 C1855 1.349 . S
C1856 C1868 1.349 . S
C1857 C1855 1.327 . S
C1857 C1873 1.429 . S
C1857 H1879 0.950 . S
C1858 H1854 0.949 . S
C1858 C1866 1.574 . S
C1858 C1874 1.368 . S
H1859 C1867 0.950 . S
H1860 C1865 0.950 . S
H1861 C1866 0.949 . S
H1862 C1868 0.950 . S
H1863 C1869 0.950 . S
H1864 C1870 0.949 . S
C1865 H1860 0.950 . S
C1865 C1867 1.327 . S
C1865 C1871 1.429 . S
C1866 C1858 1.574 . S
C1866 H1861 0.949 . S
C1866 C1872 1.368 . S
C1867 C1851 1.349 . S
C1867 H1859 0.950 . S
C1867 C1865 1.327 . S
C1868 C1856 1.349 . S
C1868 H1862 0.950 . S
C1868 C1869 1.327 . S
C1869 H1863 0.950 . S
C1869 C1868 1.327 . S
C1869 C1873 1.429 . S
C1870 C1853 1.574 . S
C1870 H1864 0.949 . S
C1870 C1874 1.368 . S
C1871 C1852 1.429 . S
C1871 C1865 1.429 . S
C1871 C1872 1.523 . S
C1872 C1853 1.368 . S
C1872 C1866 1.368 . S
C1872 C1871 1.523 . S
C1873 C1857 1.429 . S
C1873 C1869 1.429 . S
C1873 C1874 1.523 . S
C1874 C1858 1.368 . S
C1874 C1870 1.368 . S
C1874 C1873 1.523 . S
H1875 C1850 0.950 . S
H1876 C1852 0.950 . S
H1877 C1853 0.949 . S
H1878 C1855 0.950 . S
H1879 C1857 0.950 . S
C1880 C1881 1.349 . S
C1880 C1882 1.327 . S
C1880 H1905 0.950 . S
C1881 C1880 1.349 . S
C1881 C1897 1.349 . S
C1882 C1880 1.327 . S
C1882 C1901 1.429 . S
C1882 H1906 0.950 . S
C1883 C1900 1.574 . S
C1883 C1902 1.368 . S
C1883 H1907 0.949 . S
H1884 C1888 0.949 . S
C1885 C1886 1.349 . S
C1885 C1887 1.327 . S
C1885 H1908 0.950 . S
C1886 C1885 1.349 . S
C1886 C1898 1.349 . S
C1887 C1885 1.327 . S
C1887 C1903 1.429 . S
C1887 H1909 0.950 . S
C1888 H1884 0.949 . S
C1888 C1896 1.574 . S
C1888 C1904 1.368 . S
H1889 C1897 0.950 . S
H1890 C1895 0.950 . S
H1891 C1896 0.949 . S
H1892 C1898 0.950 . S
H1893 C1899 0.950 . S
H1894 C1900 0.949 . S
C1895 H1890 0.950 . S
C1895 C1897 1.327 . S
C1895 C1901 1.429 . S
C1896 C1888 1.574 . S
C1896 H1891 0.949 . S
C1896 C1902 1.368 . S
C1897 C1881 1.349 . S
C1897 H1889 0.950 . S
C1897 C1895 1.327 . S
C1898 C1886 1.349 . S
C1898 H1892 0.950 . S
C1898 C1899 1.327 . S
C1899 H1893 0.950 . S
C1899 C1898 1.327 . S
C1899 C1903 1.429 . S
C1900 C1883 1.574 . S
C1900 H1894 0.949 . S
C1900 C1904 1.368 . S
C1901 C1882 1.429 . S
C1901 C1895 1.429 . S
C1901 C1902 1.523 . S
C1902 C1883 1.368 . S
C1902 C1896 1.368 . S
C1902 C1901 1.523 . S
C1903 C1887 1.429 . S
C1903 C1899 1.429 . S
C1903 C1904 1.523 . S
C1904 C1888 1.368 . S
C1904 C1900 1.368 . S
C1904 C1903 1.523 . S
H1905 C1880 0.950 . S
H1906 C1882 0.950 . S
H1907 C1883 0.949 . S
H1908 C1885 0.950 . S
H1909 C1887 0.950 . S
C1910 C1911 1.349 . S
C1910 C1912 1.327 . S
C1910 H1935 0.950 . S
C1911 C1910 1.349 . S
C1911 C1927 1.349 . S
C1912 C1910 1.327 . S
C1912 C1931 1.429 . S
C1912 H1936 0.950 . S
C1913 C1930 1.574 . S
C1913 C1932 1.368 . S
C1913 H1937 0.949 . S
H1914 C1918 0.949 . S
C1915 C1916 1.349 . S
C1915 C1917 1.327 . S
C1915 H1938 0.950 . S
C1916 C1915 1.349 . S
C1916 C1928 1.349 . S
C1917 C1915 1.327 . S
C1917 C1933 1.429 . S
C1917 H1939 0.950 . S
C1918 H1914 0.949 . S
C1918 C1926 1.574 . S
C1918 C1934 1.368 . S
H1919 C1927 0.950 . S
H1920 C1925 0.950 . S
H1921 C1926 0.949 . S
H1922 C1928 0.950 . S
H1923 C1929 0.950 . S
H1924 C1930 0.949 . S
C1925 H1920 0.950 . S
C1925 C1927 1.327 . S
C1925 C1931 1.429 . S
C1926 C1918 1.574 . S
C1926 H1921 0.949 . S
C1926 C1932 1.368 . S
C1927 C1911 1.349 . S
C1927 H1919 0.950 . S
C1927 C1925 1.327 . S
C1928 C1916 1.349 . S
C1928 H1922 0.950 . S
C1928 C1929 1.327 . S
C1929 H1923 0.950 . S
C1929 C1928 1.327 . S
C1929 C1933 1.429 . S
C1930 C1913 1.574 . S
C1930 H1924 0.949 . S
C1930 C1934 1.368 . S
C1931 C1912 1.429 . S
C1931 C1925 1.429 . S
C1931 C1932 1.523 . S
C1932 C1913 1.368 . S
C1932 C1926 1.368 . S
C1932 C1931 1.523 . S
C1933 C1917 1.429 . S
C1933 C1929 1.429 . S
C1933 C1934 1.523 . S
C1934 C1918 1.368 . S
C1934 C1930 1.368 . S
C1934 C1933 1.523 . S
H1935 C1910 0.950 . S
H1936 C1912 0.950 . S
H1937 C1913 0.949 . S
H1938 C1915 0.950 . S
H1939 C1917 0.950 . S
C1940 C1941 1.349 . S
C1940 C1942 1.327 . S
C1940 H1965 0.950 . S
C1941 C1940 1.349 . S
C1941 C1957 1.349 . S
C1942 C1940 1.327 . S
C1942 C1961 1.429 . S
C1942 H1966 0.950 . S
C1943 C1960 1.574 . S
C1943 C1962 1.368 . S
C1943 H1967 0.949 . S
H1944 C1948 0.949 . S
C1945 C1946 1.349 . S
C1945 C1947 1.327 . S
C1945 H1968 0.950 . S
C1946 C1945 1.349 . S
C1946 C1958 1.349 . S
C1947 C1945 1.327 . S
C1947 C1963 1.429 . S
C1947 H1969 0.950 . S
C1948 H1944 0.949 . S
C1948 C1956 1.574 . S
C1948 C1964 1.368 . S
H1949 C1957 0.950 . S
H1950 C1955 0.950 . S
H1951 C1956 0.949 . S
H1952 C1958 0.950 . S
H1953 C1959 0.950 . S
H1954 C1960 0.949 . S
C1955 H1950 0.950 . S
C1955 C1957 1.327 . S
C1955 C1961 1.429 . S
C1956 C1948 1.574 . S
C1956 H1951 0.949 . S
C1956 C1962 1.368 . S
C1957 C1941 1.349 . S
C1957 H1949 0.950 . S
C1957 C1955 1.327 . S
C1958 C1946 1.349 . S
C1958 H1952 0.950 . S
C1958 C1959 1.327 . S
C1959 H1953 0.950 . S
C1959 C1958 1.327 . S
C1959 C1963 1.429 . S
C1960 C1943 1.574 . S
C1960 H1954 0.949 . S
C1960 C1964 1.368 . S
C1961 C1942 1.429 . S
C1961 C1955 1.429 . S
C1961 C1962 1.523 . S
C1962 C1943 1.368 . S
C1962 C1956 1.368 . S
C1962 C1961 1.523 . S
C1963 C1947 1.429 . S
C1963 C1959 1.429 . S
C1963 C1964 1.523 . S
C1964 C1948 1.368 . S
C1964 C1960 1.368 . S
C1964 C1963 1.523 . S
H1965 C1940 0.950 . S
H1966 C1942 0.950 . S
H1967 C1943 0.949 . S
H1968 C1945 0.950 . S
H1969 C1947 0.950 . S
C1970 C1971 1.349 . S
C1970 C1972 1.327 . S
C1970 H1995 0.950 . S
C1971 C1970 1.349 . S
C1971 C1987 1.349 . S
C1972 C1970 1.327 . S
C1972 C1991 1.429 . S
C1972 H1996 0.950 . S
C1973 C1990 1.574 . S
C1973 C1992 1.368 . S
C1973 H1997 0.949 . S
H1974 C1978 0.949 . S
C1975 C1976 1.349 . S
C1975 C1977 1.327 . S
C1975 H1998 0.950 . S
C1976 C1975 1.349 . S
C1976 C1988 1.349 . S
C1977 C1975 1.327 . S
C1977 C1993 1.429 . S
C1977 H1999 0.950 . S
C1978 H1974 0.949 . S
C1978 C1986 1.574 . S
C1978 C1994 1.368 . S
H1979 C1987 0.950 . S
H1980 C1985 0.950 . S
H1981 C1986 0.949 . S
H1982 C1988 0.950 . S
H1983 C1989 0.950 . S
H1984 C1990 0.949 . S
C1985 H1980 0.950 . S
C1985 C1987 1.327 . S
C1985 C1991 1.429 . S
C1986 C1978 1.574 . S
C1986 H1981 0.949 . S
C1986 C1992 1.368 . S
C1987 C1971 1.349 . S
C1987 H1979 0.950 . S
C1987 C1985 1.327 . S
C1988 C1976 1.349 . S
C1988 H1982 0.950 . S
C1988 C1989 1.327 . S
C1989 H1983 0.950 . S
C1989 C1988 1.327 . S
C1989 C1993 1.429 . S
C1990 C1973 1.574 . S
C1990 H1984 0.949 . S
C1990 C1994 1.368 . S
C1991 C1972 1.429 . S
C1991 C1985 1.429 . S
C1991 C1992 1.523 . S
C1992 C1973 1.368 . S
C1992 C1986 1.368 . S
C1992 C1991 1.523 . S
C1993 C1977 1.429 . S
C1993 C1989 1.429 . S
C1993 C1994 1.523 . S
C1994 C1978 1.368 . S
C1994 C1990 1.368 . S
C1994 C1993 1.523 . S
H1995 C1970 0.950 . S
H1996 C1972 0.950 . S
H1997 C1973 0.949 . S
H1998 C1975 0.950 . S
H1999 C1977 0.950 . S
C2000 C2001 1.349 . S
C2000 C2002 1.327 . S
C2000 H2025 0.950 . S
C2001 C2000 1.349 . S
C2001 C2017 1.349 . S
C2002 C2000 1.327 . S
C2002 C2021 1.429 . S
C2002 H2026 0.950 . S
C2003 C2020 1.574 . S
C2003 C2022 1.368 . S
C2003 H2027 0.949 . S
H2004 C2008 0.949 . S
C2005 C2006 1.349 . S
C2005 C2007 1.327 . S
C2005 H2028 0.950 . S
C2006 C2005 1.349 . S
C2006 C2018 1.349 . S
C2007 C2005 1.327 . S
C2007 C2023 1.429 . S
C2007 H2029 0.950 . S
C2008 H2004 0.949 . S
C2008 C2016 1.574 . S
C2008 C2024 1.368 . S
H2009 C2017 0.950 . S
H2010 C2015 0.950 . S
H2011 C2016 0.949 . S
H2012 C2018 0.950 . S
H2013 C2019 0.950 . S
H2014 C2020 0.949 . S
C2015 H2010 0.950 . S
C2015 C2017 1.327 . S
C2015 C2021 1.429 . S
C2016 C2008 1.574 . S
C2016 H2011 0.949 . S
C2016 C2022 1.368 . S
C2017 C2001 1.349 . S
C2017 H2009 0.950 . S
C2017 C2015 1.327 . S
C2018 C2006 1.349 . S
C2018 H2012 0.950 . S
C2018 C2019 1.327 . S
C2019 H2013 0.950 . S
C2019 C2018 1.327 . S
C2019 C2023 1.429 . S
C2020 C2003 1.574 . S
C2020 H2014 0.949 . S
C2020 C2024 1.368 . S
C2021 C2002 1.429 . S
C2021 C2015 1.429 . S
C2021 C2022 1.523 . S
C2022 C2003 1.368 . S
C2022 C2016 1.368 . S
C2022 C2021 1.523 . S
C2023 C2007 1.429 . S
C2023 C2019 1.429 . S
C2023 C2024 1.523 . S
C2024 C2008 1.368 . S
C2024 C2020 1.368 . S
C2024 C2023 1.523 . S
H2025 C2000 0.950 . S
H2026 C2002 0.950 . S
H2027 C2003 0.949 . S
H2028 C2005 0.950 . S
H2029 C2007 0.950 . S
C2030 C2031 1.349 . S
C2030 C2032 1.327 . S
C2030 H2055 0.950 . S
C2031 C2030 1.349 . S
C2031 C2047 1.349 . S
C2032 C2030 1.327 . S
C2032 C2051 1.429 . S
C2032 H2056 0.950 . S
C2033 C2050 1.574 . S
C2033 C2052 1.368 . S
C2033 H2057 0.949 . S
H2034 C2038 0.949 . S
C2035 C2036 1.349 . S
C2035 C2037 1.327 . S
C2035 H2058 0.950 . S
C2036 C2035 1.349 . S
C2036 C2048 1.349 . S
C2037 C2035 1.327 . S
C2037 C2053 1.429 . S
C2037 H2059 0.950 . S
C2038 H2034 0.949 . S
C2038 C2046 1.574 . S
C2038 C2054 1.368 . S
H2039 C2047 0.950 . S
H2040 C2045 0.950 . S
H2041 C2046 0.949 . S
H2042 C2048 0.950 . S
H2043 C2049 0.950 . S
H2044 C2050 0.949 . S
C2045 H2040 0.950 . S
C2045 C2047 1.327 . S
C2045 C2051 1.429 . S
C2046 C2038 1.574 . S
C2046 H2041 0.949 . S
C2046 C2052 1.368 . S
C2047 C2031 1.349 . S
C2047 H2039 0.950 . S
C2047 C2045 1.327 . S
C2048 C2036 1.349 . S
C2048 H2042 0.950 . S
C2048 C2049 1.327 . S
C2049 H2043 0.950 . S
C2049 C2048 1.327 . S
C2049 C2053 1.429 . S
C2050 C2033 1.574 . S
C2050 H2044 0.949 . S
C2050 C2054 1.368 . S
C2051 C2032 1.429 . S
C2051 C2045 1.429 . S
C2051 C2052 1.523 . S
C2052 C2033 1.368 . S
C2052 C2046 1.368 . S
C2052 C2051 1.523 . S
C2053 C2037 1.429 . S
C2053 C2049 1.429 . S
C2053 C2054 1.523 . S
C2054 C2038 1.368 . S
C2054 C2050 1.368 . S
C2054 C2053 1.523 . S
H2055 C2030 0.950 . S
H2056 C2032 0.950 . S
H2057 C2033 0.949 . S
H2058 C2035 0.950 . S
H2059 C2037 0.950 . S
C2060 C2061 1.349 . S
C2060 C2062 1.327 . S
C2060 H2085 0.950 . S
C2061 C2060 1.349 . S
C2061 C2077 1.349 . S
C2062 C2060 1.327 . S
C2062 C2081 1.429 . S
C2062 H2086 0.950 . S
C2063 C2080 1.574 . S
C2063 C2082 1.368 . S
C2063 H2087 0.949 . S
H2064 C2068 0.949 . S
C2065 C2066 1.349 . S
C2065 C2067 1.327 . S
C2065 H2088 0.950 . S
C2066 C2065 1.349 . S
C2066 C2078 1.349 . S
C2067 C2065 1.327 . S
C2067 C2083 1.429 . S
C2067 H2089 0.950 . S
C2068 H2064 0.949 . S
C2068 C2076 1.574 . S
C2068 C2084 1.368 . S
H2069 C2077 0.950 . S
H2070 C2075 0.950 . S
H2071 C2076 0.949 . S
H2072 C2078 0.950 . S
H2073 C2079 0.950 . S
H2074 C2080 0.949 . S
C2075 H2070 0.950 . S
C2075 C2077 1.327 . S
C2075 C2081 1.429 . S
C2076 C2068 1.574 . S
C2076 H2071 0.949 . S
C2076 C2082 1.368 . S
C2077 C2061 1.349 . S
C2077 H2069 0.950 . S
C2077 C2075 1.327 . S
C2078 C2066 1.349 . S
C2078 H2072 0.950 . S
C2078 C2079 1.327 . S
C2079 H2073 0.950 . S
C2079 C2078 1.327 . S
C2079 C2083 1.429 . S
C2080 C2063 1.574 . S
C2080 H2074 0.949 . S
C2080 C2084 1.368 . S
C2081 C2062 1.429 . S
C2081 C2075 1.429 . S
C2081 C2082 1.523 . S
C2082 C2063 1.368 . S
C2082 C2076 1.368 . S
C2082 C2081 1.523 . S
C2083 C2067 1.429 . S
C2083 C2079 1.429 . S
C2083 C2084 1.523 . S
C2084 C2068 1.368 . S
C2084 C2080 1.368 . S
C2084 C2083 1.523 . S
H2085 C2060 0.950 . S
H2086 C2062 0.950 . S
H2087 C2063 0.949 . S
H2088 C2065 0.950 . S
H2089 C2067 0.950 . S
C2090 C2091 1.349 . S
C2090 C2092 1.327 . S
C2090 H2115 0.950 . S
C2091 C2090 1.349 . S
C2091 C2107 1.349 . S
C2092 C2090 1.327 . S
C2092 C2111 1.429 . S
C2092 H2116 0.950 . S
C2093 C2110 1.574 . S
C2093 C2112 1.368 . S
C2093 H2117 0.949 . S
H2094 C2098 0.949 . S
C2095 C2096 1.349 . S
C2095 C2097 1.327 . S
C2095 H2118 0.950 . S
C2096 C2095 1.349 . S
C2096 C2108 1.349 . S
C2097 C2095 1.327 . S
C2097 C2113 1.429 . S
C2097 H2119 0.950 . S
C2098 H2094 0.949 . S
C2098 C2106 1.574 . S
C2098 C2114 1.368 . S
H2099 C2107 0.950 . S
H2100 C2105 0.950 . S
H2101 C2106 0.949 . S
H2102 C2108 0.950 . S
H2103 C2109 0.950 . S
H2104 C2110 0.949 . S
C2105 H2100 0.950 . S
C2105 C2107 1.327 . S
C2105 C2111 1.429 . S
C2106 C2098 1.574 . S
C2106 H2101 0.949 . S
C2106 C2112 1.368 . S
C2107 C2091 1.349 . S
C2107 H2099 0.950 . S
C2107 C2105 1.327 . S
C2108 C2096 1.349 . S
C2108 H2102 0.950 . S
C2108 C2109 1.327 . S
C2109 H2103 0.950 . S
C2109 C2108 1.327 . S
C2109 C2113 1.429 . S
C2110 C2093 1.574 . S
C2110 H2104 0.949 . S
C2110 C2114 1.368 . S
C2111 C2092 1.429 . S
C2111 C2105 1.429 . S
C2111 C2112 1.523 . S
C2112 C2093 1.368 . S
C2112 C2106 1.368 . S
C2112 C2111 1.523 . S
C2113 C2097 1.429 . S
C2113 C2109 1.429 . S
C2113 C2114 1.523 . S
C2114 C2098 1.368 . S
C2114 C2110 1.368 . S
C2114 C2113 1.523 . S
H2115 C2090 0.950 . S
H2116 C2092 0.950 . S
H2117 C2093 0.949 . S
H2118 C2095 0.950 . S
H2119 C2097 0.950 . S
C2120 C2121 1.349 . S
C2120 C2122 1.327 . S
C2120 H2145 0.950 . S
C2121 C2120 1.349 . S
C2121 C2137 1.349 . S
C2122 C2120 1.327 . S
C2122 C2141 1.429 . S
C2122 H2146 0.950 . S
C2123 C2140 1.574 . S
C2123 C2142 1.368 . S
C2123 H2147 0.949 . S
H2124 C2128 0.949 . S
C2125 C2126 1.349 . S
C2125 C2127 1.327 . S
C2125 H2148 0.950 . S
C2126 C2125 1.349 . S
C2126 C2138 1.349 . S
C2127 C2125 1.327 . S
C2127 C2143 1.429 . S
C2127 H2149 0.950 . S
C2128 H2124 0.949 . S
C2128 C2136 1.574 . S
C2128 C2144 1.368 . S
H2129 C2137 0.950 . S
H2130 C2135 0.950 . S
H2131 C2136 0.949 . S
H2132 C2138 0.950 . S
H2133 C2139 0.950 . S
H2134 C2140 0.949 . S
C2135 H2130 0.950 . S
C2135 C2137 1.327 . S
C2135 C2141 1.429 . S
C2136 C2128 1.574 . S
C2136 H2131 0.949 . S
C2136 C2142 1.368 . S
C2137 C2121 1.349 . S
C2137 H2129 0.950 . S
C2137 C2135 1.327 . S
C2138 C2126 1.349 . S
C2138 H2132 0.950 . S
C2138 C2139 1.327 . S
C2139 H2133 0.950 . S
C2139 C2138 1.327 . S
C2139 C2143 1.429 . S
C2140 C2123 1.574 . S
C2140 H2134 0.949 . S
C2140 C2144 1.368 . S
C2141 C2122 1.429 . S
C2141 C2135 1.429 . S
C2141 C2142 1.523 . S
C2142 C2123 1.368 . S
C2142 C2136 1.368 . S
C2142 C2141 1.523 . S
C2143 C2127 1.429 . S
C2143 C2139 1.429 . S
C2143 C2144 1.523 . S
C2144 C2128 1.368 . S
C2144 C2140 1.368 . S
C2144 C2143 1.523 . S
H2145 C2120 0.950 . S
H2146 C2122 0.950 . S
H2147 C2123 0.949 . S
H2148 C2125 0.950 . S
H2149 C2127 0.950 . S
C2150 C2151 1.349 . S
C2150 C2152 1.327 . S
C2150 H2175 0.950 . S
C2151 C2150 1.349 . S
C2151 C2167 1.349 . S
C2152 C2150 1.327 . S
C2152 C2171 1.429 . S
C2152 H2176 0.950 . S
C2153 C2170 1.574 . S
C2153 C2172 1.368 . S
C2153 H2177 0.949 . S
H2154 C2158 0.949 . S
C2155 C2156 1.349 . S
C2155 C2157 1.327 . S
C2155 H2178 0.950 . S
C2156 C2155 1.349 . S
C2156 C2168 1.349 . S
C2157 C2155 1.327 . S
C2157 C2173 1.429 . S
C2157 H2179 0.950 . S
C2158 H2154 0.949 . S
C2158 C2166 1.574 . S
C2158 C2174 1.368 . S
H2159 C2167 0.950 . S
H2160 C2165 0.950 . S
H2161 C2166 0.949 . S
H2162 C2168 0.950 . S
H2163 C2169 0.950 . S
H2164 C2170 0.949 . S
C2165 H2160 0.950 . S
C2165 C2167 1.327 . S
C2165 C2171 1.429 . S
C2166 C2158 1.574 . S
C2166 H2161 0.949 . S
C2166 C2172 1.368 . S
C2167 C2151 1.349 . S
C2167 H2159 0.950 . S
C2167 C2165 1.327 . S
C2168 C2156 1.349 . S
C2168 H2162 0.950 . S
C2168 C2169 1.327 . S
C2169 H2163 0.950 . S
C2169 C2168 1.327 . S
C2169 C2173 1.429 . S
C2170 C2153 1.574 . S
C2170 H2164 0.949 . S
C2170 C2174 1.368 . S
C2171 C2152 1.429 . S
C2171 C2165 1.429 . S
C2171 C2172 1.523 . S
C2172 C2153 1.368 . S
C2172 C2166 1.368 . S
C2172 C2171 1.523 . S
C2173 C2157 1.429 . S
C2173 C2169 1.429 . S
C2173 C2174 1.523 . S
C2174 C2158 1.368 . S
C2174 C2170 1.368 . S
C2174 C2173 1.523 . S
H2175 C2150 0.950 . S
H2176 C2152 0.950 . S
H2177 C2153 0.949 . S
H2178 C2155 0.950 . S
H2179 C2157 0.950 . S
C2180 C2181 1.349 . S
C2180 C2182 1.327 . S
C2180 H2205 0.950 . S
C2181 C2180 1.349 . S
C2181 C2197 1.349 . S
C2182 C2180 1.327 . S
C2182 C2201 1.429 . S
C2182 H2206 0.950 . S
C2183 C2200 1.574 . S
C2183 C2202 1.368 . S
C2183 H2207 0.949 . S
H2184 C2188 0.949 . S
C2185 C2186 1.349 . S
C2185 C2187 1.327 . S
C2185 H2208 0.950 . S
C2186 C2185 1.349 . S
C2186 C2198 1.349 . S
C2187 C2185 1.327 . S
C2187 C2203 1.429 . S
C2187 H2209 0.950 . S
C2188 H2184 0.949 . S
C2188 C2196 1.574 . S
C2188 C2204 1.368 . S
H2189 C2197 0.950 . S
H2190 C2195 0.950 . S
H2191 C2196 0.949 . S
H2192 C2198 0.950 . S
H2193 C2199 0.950 . S
H2194 C2200 0.949 . S
C2195 H2190 0.950 . S
C2195 C2197 1.327 . S
C2195 C2201 1.429 . S
C2196 C2188 1.574 . S
C2196 H2191 0.949 . S
C2196 C2202 1.368 . S
C2197 C2181 1.349 . S
C2197 H2189 0.950 . S
C2197 C2195 1.327 . S
C2198 C2186 1.349 . S
C2198 H2192 0.950 . S
C2198 C2199 1.327 . S
C2199 H2193 0.950 . S
C2199 C2198 1.327 . S
C2199 C2203 1.429 . S
C2200 C2183 1.574 . S
C2200 H2194 0.949 . S
C2200 C2204 1.368 . S
C2201 C2182 1.429 . S
C2201 C2195 1.429 . S
C2201 C2202 1.523 . S
C2202 C2183 1.368 . S
C2202 C2196 1.368 . S
C2202 C2201 1.523 . S
C2203 C2187 1.429 . S
C2203 C2199 1.429 . S
C2203 C2204 1.523 . S
C2204 C2188 1.368 . S
C2204 C2200 1.368 . S
C2204 C2203 1.523 . S
H2205 C2180 0.950 . S
H2206 C2182 0.950 . S
H2207 C2183 0.949 . S
H2208 C2185 0.950 . S
H2209 C2187 0.950 . S
C2210 C2211 1.349 . S
C2210 C2212 1.327 . S
C2210 H2235 0.950 . S
C2211 C2210 1.349 . S
C2211 C2227 1.349 . S
C2212 C2210 1.327 . S
C2212 C2231 1.429 . S
C2212 H2236 0.950 . S
C2213 C2230 1.574 . S
C2213 C2232 1.368 . S
C2213 H2237 0.949 . S
H2214 C2218 0.949 . S
C2215 C2216 1.349 . S
C2215 C2217 1.327 . S
C2215 H2238 0.950 . S
C2216 C2215 1.349 . S
C2216 C2228 1.349 . S
C2217 C2215 1.327 . S
C2217 C2233 1.429 . S
C2217 H2239 0.950 . S
C2218 H2214 0.949 . S
C2218 C2226 1.574 . S
C2218 C2234 1.368 . S
H2219 C2227 0.950 . S
H2220 C2225 0.950 . S
H2221 C2226 0.949 . S
H2222 C2228 0.950 . S
H2223 C2229 0.950 . S
H2224 C2230 0.949 . S
C2225 H2220 0.950 . S
C2225 C2227 1.327 . S
C2225 C2231 1.429 . S
C2226 C2218 1.574 . S
C2226 H2221 0.949 . S
C2226 C2232 1.368 . S
C2227 C2211 1.349 . S
C2227 H2219 0.950 . S
C2227 C2225 1.327 . S
C2228 C2216 1.349 . S
C2228 H2222 0.950 . S
C2228 C2229 1.327 . S
C2229 H2223 0.950 . S
C2229 C2228 1.327 . S
C2229 C2233 1.429 . S
C2230 C2213 1.574 . S
C2230 H2224 0.949 . S
C2230 C2234 1.368 . S
C2231 C2212 1.429 . S
C2231 C2225 1.429 . S
C2231 C2232 1.523 . S
C2232 C2213 1.368 . S
C2232 C2226 1.368 . S
C2232 C2231 1.523 . S
C2233 C2217 1.429 . S
C2233 C2229 1.429 . S
C2233 C2234 1.523 . S
C2234 C2218 1.368 . S
C2234 C2230 1.368 . S
C2234 C2233 1.523 . S
H2235 C2210 0.950 . S
H2236 C2212 0.950 . S
H2237 C2213 0.949 . S
H2238 C2215 0.950 . S
H2239 C2217 0.950 . S
C2240 C2241 1.349 . S
C2240 C2242 1.327 . S
C2240 H2265 0.950 . S
C2241 C2240 1.349 . S
C2241 C2257 1.349 . S
C2242 C2240 1.327 . S
C2242 C2261 1.429 . S
C2242 H2266 0.950 . S
C2243 C2260 1.574 1_455 S
C2243 C2262 1.368 . S
C2243 H2267 0.949 . S
H2244 C2248 0.949 . S
C2245 C2246 1.349 . S
C2245 C2247 1.327 . S
C2245 H2268 0.950 . S
C2246 C2245 1.349 . S
C2246 C2258 1.349 . S
C2247 C2245 1.327 . S
C2247 C2263 1.429 . S
C2247 H2269 0.950 . S
C2248 H2244 0.949 . S
C2248 C2256 1.574 1_655 S
C2248 C2264 1.368 . S
H2249 C2257 0.950 . S
H2250 C2255 0.950 . S
H2251 C2256 0.949 . S
H2252 C2258 0.950 . S
H2253 C2259 0.950 . S
H2254 C2260 0.949 . S
C2255 H2250 0.950 . S
C2255 C2257 1.327 . S
C2255 C2261 1.429 . S
C2256 C2248 1.574 1_455 S
C2256 H2251 0.949 . S
C2256 C2262 1.368 . S
C2257 C2241 1.349 . S
C2257 H2249 0.950 . S
C2257 C2255 1.327 . S
C2258 C2246 1.349 . S
C2258 H2252 0.950 . S
C2258 C2259 1.327 . S
C2259 H2253 0.950 . S
C2259 C2258 1.327 . S
C2259 C2263 1.429 . S
C2260 C2243 1.574 1_655 S
C2260 H2254 0.949 . S
C2260 C2264 1.368 . S
C2261 C2242 1.429 . S
C2261 C2255 1.429 . S
C2261 C2262 1.523 . S
C2262 C2243 1.368 . S
C2262 C2256 1.368 . S
C2262 C2261 1.523 . S
C2263 C2247 1.429 . S
C2263 C2259 1.429 . S
C2263 C2264 1.523 . S
C2264 C2248 1.368 . S
C2264 C2260 1.368 . S
C2264 C2263 1.523 . S
H2265 C2240 0.950 . S
H2266 C2242 0.950 . S
H2267 C2243 0.949 . S
H2268 C2245 0.950 . S
H2269 C2247 0.950 . S
C2270 C2271 1.349 . S
C2270 C2272 1.327 . S
C2270 H2295 0.950 . S
C2271 C2270 1.349 . S
C2271 C2287 1.349 . S
C2272 C2270 1.327 . S
C2272 C2291 1.429 . S
C2272 H2296 0.950 . S
C2273 C2290 1.574 . S
C2273 C2292 1.368 1_455 S
C2273 H2297 0.949 . S
H2274 C2278 0.949 . S
C2275 C2276 1.349 . S
C2275 C2277 1.327 . S
C2275 H2298 0.950 . S
C2276 C2275 1.349 . S
C2276 C2288 1.349 . S
C2277 C2275 1.327 . S
C2277 C2293 1.429 . S
C2277 H2299 0.950 . S
C2278 H2274 0.949 . S
C2278 C2286 1.574 . S
C2278 C2294 1.368 1_655 S
H2279 C2287 0.950 1_455 S
H2280 C2285 0.962 . S
H2281 C2286 0.949 . S
H2282 C2288 0.950 1_655 S
H2283 C2289 0.962 . S
H2284 C2290 0.949 . S
C2285 H2280 0.962 . S
C2285 C2287 1.323 1_455 S
C2285 C2291 1.421 1_455 S
C2286 C2278 1.574 . S
C2286 H2281 0.949 . S
C2286 C2292 1.368 . S
C2287 C2271 1.349 . S
C2287 H2279 0.950 1_655 S
C2287 C2285 1.323 1_655 S
C2288 C2276 1.349 . S
C2288 H2282 0.950 1_455 S
C2288 C2289 1.323 1_455 S
C2289 H2283 0.962 . S
C2289 C2288 1.323 1_655 S
C2289 C2293 1.421 1_655 S
C2290 C2273 1.574 . S
C2290 H2284 0.949 . S
C2290 C2294 1.368 . S
C2291 C2272 1.429 . S
C2291 C2285 1.421 1_655 S
C2291 C2292 1.523 . S
C2292 C2273 1.368 1_655 S
C2292 C2286 1.368 . S
C2292 C2291 1.523 . S
C2293 C2277 1.429 . S
C2293 C2289 1.421 1_455 S
C2293 C2294 1.523 . S
C2294 C2278 1.368 1_455 S
C2294 C2290 1.368 . S
C2294 C2293 1.523 . S
H2295 C2270 0.950 . S
H2296 C2272 0.950 . S
H2297 C2273 0.949 . S
H2298 C2275 0.950 . S
H2299 C2277 0.950 . S
C2300 C2301 1.349 . S
C2300 C2302 1.327 . S
C2300 H2325 0.950 . S
C2301 C2300 1.349 . S
C2301 C2317 1.349 . S
C2302 C2300 1.327 . S
C2302 C2321 1.429 . S
C2302 H2326 0.950 . S
C2303 C2320 1.574 . S
C2303 C2322 1.368 . S
C2303 H2327 0.949 . S
H2304 C2308 0.949 . S
C2305 C2306 1.349 . S
C2305 C2307 1.327 . S
C2305 H2328 0.950 . S
C2306 C2305 1.349 . S
C2306 C2318 1.349 . S
C2307 C2305 1.327 . S
C2307 C2323 1.429 . S
C2307 H2329 0.950 . S
C2308 H2304 0.949 . S
C2308 C2316 1.574 . S
C2308 C2324 1.368 . S
H2309 C2317 0.950 . S
H2310 C2315 0.950 . S
H2311 C2316 0.949 . S
H2312 C2318 0.950 . S
H2313 C2319 0.950 . S
H2314 C2320 0.949 . S
C2315 H2310 0.950 . S
C2315 C2317 1.327 . S
C2315 C2321 1.429 . S
C2316 C2308 1.574 . S
C2316 H2311 0.949 . S
C2316 C2322 1.368 . S
C2317 C2301 1.349 . S
C2317 H2309 0.950 . S
C2317 C2315 1.327 . S
C2318 C2306 1.349 . S
C2318 H2312 0.950 . S
C2318 C2319 1.327 . S
C2319 H2313 0.950 . S
C2319 C2318 1.327 . S
C2319 C2323 1.429 . S
C2320 C2303 1.574 . S
C2320 H2314 0.949 . S
C2320 C2324 1.368 . S
C2321 C2302 1.429 . S
C2321 C2315 1.429 . S
C2321 C2322 1.523 . S
C2322 C2303 1.368 . S
C2322 C2316 1.368 . S
C2322 C2321 1.523 . S
C2323 C2307 1.429 . S
C2323 C2319 1.429 . S
C2323 C2324 1.523 . S
C2324 C2308 1.368 . S
C2324 C2320 1.368 . S
C2324 C2323 1.523 . S
H2325 C2300 0.950 . S
H2326 C2302 0.950 . S
H2327 C2303 0.949 . S
H2328 C2305 0.950 . S
H2329 C2307 0.950 . S
C2330 C2331 1.349 . S
C2330 C2332 1.327 . S
C2330 H2355 0.950 . S
C2331 C2330 1.349 . S
C2331 C2347 1.349 . S
C2332 C2330 1.327 . S
C2332 C2351 1.429 . S
C2332 H2356 0.950 . S
C2333 C2350 1.574 . S
C2333 C2352 1.368 . S
C2333 H2357 0.949 . S
H2334 C2338 0.949 . S
C2335 C2336 1.349 . S
C2335 C2337 1.327 . S
C2335 H2358 0.950 . S
C2336 C2335 1.349 . S
C2336 C2348 1.349 . S
C2337 C2335 1.327 . S
C2337 C2353 1.429 . S
C2337 H2359 0.950 . S
C2338 H2334 0.949 . S
C2338 C2346 1.574 . S
C2338 C2354 1.368 . S
H2339 C2347 0.950 . S
H2340 C2345 0.950 . S
H2341 C2346 0.949 . S
H2342 C2348 0.950 . S
H2343 C2349 0.950 . S
H2344 C2350 0.949 . S
C2345 H2340 0.950 . S
C2345 C2347 1.327 . S
C2345 C2351 1.429 . S
C2346 C2338 1.574 . S
C2346 H2341 0.949 . S
C2346 C2352 1.368 . S
C2347 C2331 1.349 . S
C2347 H2339 0.950 . S
C2347 C2345 1.327 . S
C2348 C2336 1.349 . S
C2348 H2342 0.950 . S
C2348 C2349 1.327 . S
C2349 H2343 0.950 . S
C2349 C2348 1.327 . S
C2349 C2353 1.429 . S
C2350 C2333 1.574 . S
C2350 H2344 0.949 . S
C2350 C2354 1.368 . S
C2351 C2332 1.429 . S
C2351 C2345 1.429 . S
C2351 C2352 1.523 . S
C2352 C2333 1.368 . S
C2352 C2346 1.368 . S
C2352 C2351 1.523 . S
C2353 C2337 1.429 . S
C2353 C2349 1.429 . S
C2353 C2354 1.523 . S
C2354 C2338 1.368 . S
C2354 C2350 1.368 . S
C2354 C2353 1.523 . S
H2355 C2330 0.950 . S
H2356 C2332 0.950 . S
H2357 C2333 0.949 . S
H2358 C2335 0.950 . S
H2359 C2337 0.950 . S
C2360 C2361 1.349 . S
C2360 C2362 1.327 . S
C2360 H2385 0.950 . S
C2361 C2360 1.349 . S
C2361 C2377 1.349 . S
C2362 C2360 1.327 . S
C2362 C2381 1.429 . S
C2362 H2386 0.950 . S
C2363 C2380 1.574 1_655 S
C2363 C2382 1.368 . S
C2363 H2387 0.949 . S
H2364 C2368 0.949 . S
C2365 C2366 1.349 . S
C2365 C2367 1.327 . S
C2365 H2388 0.950 . S
C2366 C2365 1.349 . S
C2366 C2378 1.349 . S
C2367 C2365 1.327 . S
C2367 C2383 1.429 . S
C2367 H2389 0.950 . S
C2368 H2364 0.949 . S
C2368 C2376 1.574 1_455 S
C2368 C2384 1.368 . S
H2369 C2377 0.950 . S
H2370 C2375 0.950 . S
H2371 C2376 0.949 . S
H2372 C2378 0.950 . S
H2373 C2379 0.950 . S
H2374 C2380 0.949 . S
C2375 H2370 0.950 . S
C2375 C2377 1.327 . S
C2375 C2381 1.429 . S
C2376 C2368 1.574 1_655 S
C2376 H2371 0.949 . S
C2376 C2382 1.368 . S
C2377 C2361 1.349 . S
C2377 H2369 0.950 . S
C2377 C2375 1.327 . S
C2378 C2366 1.349 . S
C2378 H2372 0.950 . S
C2378 C2379 1.327 . S
C2379 H2373 0.950 . S
C2379 C2378 1.327 . S
C2379 C2383 1.429 . S
C2380 C2363 1.574 1_455 S
C2380 H2374 0.949 . S
C2380 C2384 1.368 . S
C2381 C2362 1.429 . S
C2381 C2375 1.429 . S
C2381 C2382 1.523 . S
C2382 C2363 1.368 . S
C2382 C2376 1.368 . S
C2382 C2381 1.523 . S
C2383 C2367 1.429 . S
C2383 C2379 1.429 . S
C2383 C2384 1.523 . S
C2384 C2368 1.368 . S
C2384 C2380 1.368 . S
C2384 C2383 1.523 . S
H2385 C2360 0.950 . S
H2386 C2362 0.950 . S
H2387 C2363 0.949 . S
H2388 C2365 0.950 . S
H2389 C2367 0.950 . S
C2390 C2391 1.349 . S
C2390 C2392 1.327 . S
C2390 H2415 0.950 . S
C2391 C2390 1.349 . S
C2391 C2407 1.349 . S
C2392 C2390 1.327 . S
C2392 C2411 1.429 . S
C2392 H2416 0.950 . S
C2393 C2410 1.574 . S
C2393 C2412 1.368 . S
C2393 H2417 0.949 . S
H2394 C2398 0.949 . S
C2395 C2396 1.349 . S
C2395 C2397 1.327 . S
C2395 H2418 0.950 . S
C2396 C2395 1.349 . S
C2396 C2408 1.349 . S
C2397 C2395 1.327 . S
C2397 C2413 1.429 . S
C2397 H2419 0.950 . S
C2398 H2394 0.949 . S
C2398 C2406 1.574 . S
C2398 C2414 1.368 . S
H2399 C2407 0.950 . S
H2400 C2405 0.950 . S
H2401 C2406 0.949 . S
H2402 C2408 0.950 . S
H2403 C2409 0.950 . S
H2404 C2410 0.949 . S
C2405 H2400 0.950 . S
C2405 C2407 1.327 . S
C2405 C2411 1.429 . S
C2406 C2398 1.574 . S
C2406 H2401 0.949 . S
C2406 C2412 1.368 . S
C2407 C2391 1.349 . S
C2407 H2399 0.950 . S
C2407 C2405 1.327 . S
C2408 C2396 1.349 . S
C2408 H2402 0.950 . S
C2408 C2409 1.327 . S
C2409 H2403 0.950 . S
C2409 C2408 1.327 . S
C2409 C2413 1.429 . S
C2410 C2393 1.574 . S
C2410 H2404 0.949 . S
C2410 C2414 1.368 . S
C2411 C2392 1.429 . S
C2411 C2405 1.429 . S
C2411 C2412 1.523 . S
C2412 C2393 1.368 . S
C2412 C2406 1.368 . S
C2412 C2411 1.523 . S
C2413 C2397 1.429 . S
C2413 C2409 1.429 . S
C2413 C2414 1.523 . S
C2414 C2398 1.368 . S
C2414 C2410 1.368 . S
C2414 C2413 1.523 . S
H2415 C2390 0.950 . S
H2416 C2392 0.950 . S
H2417 C2393 0.949 . S
H2418 C2395 0.950 . S
H2419 C2397 0.950 . S
C2420 C2421 1.349 . S
C2420 C2422 1.327 . S
C2420 H2445 0.950 . S
C2421 C2420 1.349 . S
C2421 C2437 1.349 . S
C2422 C2420 1.327 . S
C2422 C2441 1.429 . S
C2422 H2446 0.950 . S
C2423 C2440 1.574 . S
C2423 C2442 1.368 . S
C2423 H2447 0.949 . S
H2424 C2428 0.949 . S
C2425 C2426 1.349 . S
C2425 C2427 1.327 . S
C2425 H2448 0.950 . S
C2426 C2425 1.349 . S
C2426 C2438 1.349 . S
C2427 C2425 1.327 . S
C2427 C2443 1.429 . S
C2427 H2449 0.950 . S
C2428 H2424 0.949 . S
C2428 C2436 1.574 . S
C2428 C2444 1.368 . S
H2429 C2437 0.950 . S
H2430 C2435 0.950 . S
H2431 C2436 0.949 . S
H2432 C2438 0.950 . S
H2433 C2439 0.950 . S
H2434 C2440 0.949 . S
C2435 H2430 0.950 . S
C2435 C2437 1.327 . S
C2435 C2441 1.429 . S
C2436 C2428 1.574 . S
C2436 H2431 0.949 . S
C2436 C2442 1.368 . S
C2437 C2421 1.349 . S
C2437 H2429 0.950 . S
C2437 C2435 1.327 . S
C2438 C2426 1.349 . S
C2438 H2432 0.950 . S
C2438 C2439 1.327 . S
C2439 H2433 0.950 . S
C2439 C2438 1.327 . S
C2439 C2443 1.429 . S
C2440 C2423 1.574 . S
C2440 H2434 0.949 . S
C2440 C2444 1.368 . S
C2441 C2422 1.429 . S
C2441 C2435 1.429 . S
C2441 C2442 1.523 . S
C2442 C2423 1.368 . S
C2442 C2436 1.368 . S
C2442 C2441 1.523 . S
C2443 C2427 1.429 . S
C2443 C2439 1.429 . S
C2443 C2444 1.523 . S
C2444 C2428 1.368 . S
C2444 C2440 1.368 . S
C2444 C2443 1.523 . S
H2445 C2420 0.950 . S
H2446 C2422 0.950 . S
H2447 C2423 0.949 . S
H2448 C2425 0.950 . S
H2449 C2427 0.950 . S
C2450 C2451 1.349 . S
C2450 C2452 1.323 1_455 S
C2450 H2475 0.950 1_455 S
C2451 C2450 1.349 . S
C2451 C2467 1.349 . S
C2452 C2450 1.323 1_655 S
C2452 C2471 1.421 1_655 S
C2452 H2476 0.962 . S
C2453 C2470 1.574 . S
C2453 C2472 1.368 . S
C2453 H2477 0.949 . S
H2454 C2458 0.949 . S
C2455 C2456 1.349 . S
C2455 C2457 1.323 1_655 S
C2455 H2478 0.950 1_655 S
C2456 C2455 1.349 . S
C2456 C2468 1.349 . S
C2457 C2455 1.323 1_455 S
C2457 C2473 1.421 1_455 S
C2457 H2479 0.962 . S
C2458 H2454 0.949 . S
C2458 C2466 1.574 . S
C2458 C2474 1.368 . S
H2459 C2467 0.950 . S
H2460 C2465 0.950 . S
H2461 C2466 0.949 . S
H2462 C2468 0.950 . S
H2463 C2469 0.950 . S
H2464 C2470 0.949 . S
C2465 H2460 0.950 . S
C2465 C2467 1.327 . S
C2465 C2471 1.429 . S
C2466 C2458 1.574 . S
C2466 H2461 0.949 . S
C2466 C2472 1.368 1_655 S
C2467 C2451 1.349 . S
C2467 H2459 0.950 . S
C2467 C2465 1.327 . S
C2468 C2456 1.349 . S
C2468 H2462 0.950 . S
C2468 C2469 1.327 . S
C2469 H2463 0.950 . S
C2469 C2468 1.327 . S
C2469 C2473 1.429 . S
C2470 C2453 1.574 . S
C2470 H2464 0.949 . S
C2470 C2474 1.368 1_455 S
C2471 C2452 1.421 1_455 S
C2471 C2465 1.429 . S
C2471 C2472 1.523 . S
C2472 C2453 1.368 . S
C2472 C2466 1.368 1_455 S
C2472 C2471 1.523 . S
C2473 C2457 1.421 1_655 S
C2473 C2469 1.429 . S
C2473 C2474 1.523 . S
C2474 C2458 1.368 . S
C2474 C2470 1.368 1_655 S
C2474 C2473 1.523 . S
H2475 C2450 0.950 1_655 S
H2476 C2452 0.962 . S
H2477 C2453 0.949 . S
H2478 C2455 0.950 1_455 S
H2479 C2457 0.962 . S
C2480 C2481 1.349 . S
C2480 C2482 1.327 . S
C2480 H2505 0.950 . S
C2481 C2480 1.349 . S
C2481 C2497 1.349 . S
C2482 C2480 1.327 . S
C2482 C2501 1.429 . S
C2482 H2506 0.950 . S
C2483 C2500 1.574 1_455 S
C2483 C2502 1.368 . S
C2483 H2507 0.949 . S
H2484 C2488 0.949 . S
C2485 C2486 1.349 . S
C2485 C2487 1.327 . S
C2485 H2508 0.950 . S
C2486 C2485 1.349 . S
C2486 C2498 1.349 . S
C2487 C2485 1.327 . S
C2487 C2503 1.429 . S
C2487 H2509 0.950 . S
C2488 H2484 0.949 . S
C2488 C2496 1.574 1_655 S
C2488 C2504 1.368 . S
H2489 C2497 0.950 . S
H2490 C2495 0.950 . S
H2491 C2496 0.949 . S
H2492 C2498 0.950 . S
H2493 C2499 0.950 . S
H2494 C2500 0.949 . S
C2495 H2490 0.950 . S
C2495 C2497 1.327 . S
C2495 C2501 1.429 . S
C2496 C2488 1.574 1_455 S
C2496 H2491 0.949 . S
C2496 C2502 1.368 . S
C2497 C2481 1.349 . S
C2497 H2489 0.950 . S
C2497 C2495 1.327 . S
C2498 C2486 1.349 . S
C2498 H2492 0.950 . S
C2498 C2499 1.327 . S
C2499 H2493 0.950 . S
C2499 C2498 1.327 . S
C2499 C2503 1.429 . S
C2500 C2483 1.574 1_655 S
C2500 H2494 0.949 . S
C2500 C2504 1.368 . S
C2501 C2482 1.429 . S
C2501 C2495 1.429 . S
C2501 C2502 1.523 . S
C2502 C2483 1.368 . S
C2502 C2496 1.368 . S
C2502 C2501 1.523 . S
C2503 C2487 1.429 . S
C2503 C2499 1.429 . S
C2503 C2504 1.523 . S
C2504 C2488 1.368 . S
C2504 C2500 1.368 . S
C2504 C2503 1.523 . S
H2505 C2480 0.950 . S
H2506 C2482 0.950 . S
H2507 C2483 0.949 . S
H2508 C2485 0.950 . S
H2509 C2487 0.950 . S
C2510 C2511 1.349 . S
C2510 C2512 1.323 1_655 S
C2510 H2535 0.950 1_655 S
C2511 C2510 1.349 . S
C2511 C2527 1.349 . S
C2512 C2510 1.323 1_455 S
C2512 C2531 1.421 1_455 S
C2512 H2536 0.962 . S
C2513 C2530 1.574 . S
C2513 C2532 1.368 . S
C2513 H2537 0.949 . S
H2514 C2518 0.949 . S
C2515 C2516 1.349 . S
C2515 C2517 1.323 1_455 S
C2515 H2538 0.950 1_455 S
C2516 C2515 1.349 . S
C2516 C2528 1.349 . S
C2517 C2515 1.323 1_655 S
C2517 C2533 1.421 1_655 S
C2517 H2539 0.962 . S
C2518 H2514 0.949 . S
C2518 C2526 1.574 . S
C2518 C2534 1.368 . S
H2519 C2527 0.950 . S
H2520 C2525 0.950 . S
H2521 C2526 0.949 . S
H2522 C2528 0.950 . S
H2523 C2529 0.950 . S
H2524 C2530 0.949 . S
C2525 H2520 0.950 . S
C2525 C2527 1.327 . S
C2525 C2531 1.429 . S
C2526 C2518 1.574 . S
C2526 H2521 0.949 . S
C2526 C2532 1.368 1_455 S
C2527 C2511 1.349 . S
C2527 H2519 0.950 . S
C2527 C2525 1.327 . S
C2528 C2516 1.349 . S
C2528 H2522 0.950 . S
C2528 C2529 1.327 . S
C2529 H2523 0.950 . S
C2529 C2528 1.327 . S
C2529 C2533 1.429 . S
C2530 C2513 1.574 . S
C2530 H2524 0.949 . S
C2530 C2534 1.368 1_655 S
C2531 C2512 1.421 1_655 S
C2531 C2525 1.429 . S
C2531 C2532 1.523 . S
C2532 C2513 1.368 . S
C2532 C2526 1.368 1_655 S
C2532 C2531 1.523 . S
C2533 C2517 1.421 1_455 S
C2533 C2529 1.429 . S
C2533 C2534 1.523 . S
C2534 C2518 1.368 . S
C2534 C2530 1.368 1_455 S
C2534 C2533 1.523 . S
H2535 C2510 0.950 1_455 S
H2536 C2512 0.962 . S
H2537 C2513 0.949 . S
H2538 C2515 0.950 1_655 S
H2539 C2517 0.962 . S
C2540 C2541 1.349 . S
C2540 C2542 1.327 . S
C2540 H2565 0.950 . S
C2541 C2540 1.349 . S
C2541 C2557 1.349 . S
C2542 C2540 1.327 . S
C2542 C2561 1.429 . S
C2542 H2566 0.950 . S
C2543 C2560 1.574 . S
C2543 C2562 1.368 . S
C2543 H2567 0.949 . S
H2544 C2548 0.949 . S
C2545 C2546 1.349 . S
C2545 C2547 1.327 . S
C2545 H2568 0.950 . S
C2546 C2545 1.349 . S
C2546 C2558 1.349 . S
C2547 C2545 1.327 . S
C2547 C2563 1.429 . S
C2547 H2569 0.950 . S
C2548 H2544 0.949 . S
C2548 C2556 1.574 . S
C2548 C2564 1.368 . S
H2549 C2557 0.950 . S
H2550 C2555 0.950 . S
H2551 C2556 0.949 . S
H2552 C2558 0.950 . S
H2553 C2559 0.950 . S
H2554 C2560 0.949 . S
C2555 H2550 0.950 . S
C2555 C2557 1.327 . S
C2555 C2561 1.429 . S
C2556 C2548 1.574 . S
C2556 H2551 0.949 . S
C2556 C2562 1.368 . S
C2557 C2541 1.349 . S
C2557 H2549 0.950 . S
C2557 C2555 1.327 . S
C2558 C2546 1.349 . S
C2558 H2552 0.950 . S
C2558 C2559 1.327 . S
C2559 H2553 0.950 . S
C2559 C2558 1.327 . S
C2559 C2563 1.429 . S
C2560 C2543 1.574 . S
C2560 H2554 0.949 . S
C2560 C2564 1.368 . S
C2561 C2542 1.429 . S
C2561 C2555 1.429 . S
C2561 C2562 1.523 . S
C2562 C2543 1.368 . S
C2562 C2556 1.368 . S
C2562 C2561 1.523 . S
C2563 C2547 1.429 . S
C2563 C2559 1.429 . S
C2563 C2564 1.523 . S
C2564 C2548 1.368 . S
C2564 C2560 1.368 . S
C2564 C2563 1.523 . S
H2565 C2540 0.950 . S
H2566 C2542 0.950 . S
H2567 C2543 0.949 . S
H2568 C2545 0.950 . S
H2569 C2547 0.950 . S
C2570 C2571 1.349 . S
C2570 C2572 1.327 . S
C2570 H2595 0.950 . S
C2571 C2570 1.349 . S
C2571 C2587 1.349 . S
C2572 C2570 1.327 . S
C2572 C2591 1.429 . S
C2572 H2596 0.950 . S
C2573 C2590 1.574 . S
C2573 C2592 1.368 . S
C2573 H2597 0.949 . S
H2574 C2578 0.949 . S
C2575 C2576 1.349 . S
C2575 C2577 1.327 . S
C2575 H2598 0.950 . S
C2576 C2575 1.349 . S
C2576 C2588 1.349 . S
C2577 C2575 1.327 . S
C2577 C2593 1.429 . S
C2577 H2599 0.950 . S
C2578 H2574 0.949 . S
C2578 C2586 1.574 . S
C2578 C2594 1.368 . S
H2579 C2587 0.950 . S
H2580 C2585 0.950 . S
H2581 C2586 0.949 . S
H2582 C2588 0.950 . S
H2583 C2589 0.950 . S
H2584 C2590 0.949 . S
C2585 H2580 0.950 . S
C2585 C2587 1.327 . S
C2585 C2591 1.429 . S
C2586 C2578 1.574 . S
C2586 H2581 0.949 . S
C2586 C2592 1.368 . S
C2587 C2571 1.349 . S
C2587 H2579 0.950 . S
C2587 C2585 1.327 . S
C2588 C2576 1.349 . S
C2588 H2582 0.950 . S
C2588 C2589 1.327 . S
C2589 H2583 0.950 . S
C2589 C2588 1.327 . S
C2589 C2593 1.429 . S
C2590 C2573 1.574 . S
C2590 H2584 0.949 . S
C2590 C2594 1.368 . S
C2591 C2572 1.429 . S
C2591 C2585 1.429 . S
C2591 C2592 1.523 . S
C2592 C2573 1.368 . S
C2592 C2586 1.368 . S
C2592 C2591 1.523 . S
C2593 C2577 1.429 . S
C2593 C2589 1.429 . S
C2593 C2594 1.523 . S
C2594 C2578 1.368 . S
C2594 C2590 1.368 . S
C2594 C2593 1.523 . S
H2595 C2570 0.950 . S
H2596 C2572 0.950 . S
H2597 C2573 0.949 . S
H2598 C2575 0.950 . S
H2599 C2577 0.950 . S
C2600 C2601 1.349 . S
C2600 C2602 1.327 . S
C2600 H2625 0.950 . S
C2601 C2600 1.349 . S
C2601 C2617 1.349 . S
C2602 C2600 1.327 . S
C2602 C2621 1.429 . S
C2602 H2626 0.950 . S
C2603 C2620 1.574 1_455 S
C2603 C2622 1.368 . S
C2603 H2627 0.949 . S
H2604 C2608 0.949 . S
C2605 C2606 1.349 . S
C2605 C2607 1.327 . S
C2605 H2628 0.950 . S
C2606 C2605 1.349 . S
C2606 C2618 1.349 . S
C2607 C2605 1.327 . S
C2607 C2623 1.429 . S
C2607 H2629 0.950 . S
C2608 H2604 0.949 . S
C2608 C2616 1.574 1_655 S
C2608 C2624 1.368 . S
H2609 C2617 0.950 . S
H2610 C2615 0.950 . S
H2611 C2616 0.949 . S
H2612 C2618 0.950 . S
H2613 C2619 0.950 . S
H2614 C2620 0.949 . S
C2615 H2610 0.950 . S
C2615 C2617 1.327 . S
C2615 C2621 1.429 . S
C2616 C2608 1.574 1_455 S
C2616 H2611 0.949 . S
C2616 C2622 1.368 . S
C2617 C2601 1.349 . S
C2617 H2609 0.950 . S
C2617 C2615 1.327 . S
C2618 C2606 1.349 . S
C2618 H2612 0.950 . S
C2618 C2619 1.327 . S
C2619 H2613 0.950 . S
C2619 C2618 1.327 . S
C2619 C2623 1.429 . S
C2620 C2603 1.574 1_655 S
C2620 H2614 0.949 . S
C2620 C2624 1.368 . S
C2621 C2602 1.429 . S
C2621 C2615 1.429 . S
C2621 C2622 1.523 . S
C2622 C2603 1.368 . S
C2622 C2616 1.368 . S
C2622 C2621 1.523 . S
C2623 C2607 1.429 . S
C2623 C2619 1.429 . S
C2623 C2624 1.523 . S
C2624 C2608 1.368 . S
C2624 C2620 1.368 . S
C2624 C2623 1.523 . S
H2625 C2600 0.950 . S
H2626 C2602 0.950 . S
H2627 C2603 0.949 . S
H2628 C2605 0.950 . S
H2629 C2607 0.950 . S
C2630 C2631 1.349 . S
C2630 C2632 1.327 . S
C2630 H2655 0.950 . S
C2631 C2630 1.349 . S
C2631 C2647 1.349 . S
C2632 C2630 1.327 . S
C2632 C2651 1.429 . S
C2632 H2656 0.950 . S
C2633 C2650 1.574 . S
C2633 C2652 1.368 . S
C2633 H2657 0.949 . S
H2634 C2638 0.949 . S
C2635 C2636 1.349 . S
C2635 C2637 1.327 . S
C2635 H2658 0.950 . S
C2636 C2635 1.349 . S
C2636 C2648 1.349 . S
C2637 C2635 1.327 . S
C2637 C2653 1.429 . S
C2637 H2659 0.950 . S
C2638 H2634 0.949 . S
C2638 C2646 1.574 . S
C2638 C2654 1.368 . S
H2639 C2647 0.950 . S
H2640 C2645 0.950 . S
H2641 C2646 0.949 . S
H2642 C2648 0.950 . S
H2643 C2649 0.950 . S
H2644 C2650 0.949 . S
C2645 H2640 0.950 . S
C2645 C2647 1.327 . S
C2645 C2651 1.429 . S
C2646 C2638 1.574 . S
C2646 H2641 0.949 . S
C2646 C2652 1.368 . S
C2647 C2631 1.349 . S
C2647 H2639 0.950 . S
C2647 C2645 1.327 . S
C2648 C2636 1.349 . S
C2648 H2642 0.950 . S
C2648 C2649 1.327 . S
C2649 H2643 0.950 . S
C2649 C2648 1.327 . S
C2649 C2653 1.429 . S
C2650 C2633 1.574 . S
C2650 H2644 0.949 . S
C2650 C2654 1.368 . S
C2651 C2632 1.429 . S
C2651 C2645 1.429 . S
C2651 C2652 1.523 . S
C2652 C2633 1.368 . S
C2652 C2646 1.368 . S
C2652 C2651 1.523 . S
C2653 C2637 1.429 . S
C2653 C2649 1.429 . S
C2653 C2654 1.523 . S
C2654 C2638 1.368 . S
C2654 C2650 1.368 . S
C2654 C2653 1.523 . S
H2655 C2630 0.950 . S
H2656 C2632 0.950 . S
H2657 C2633 0.949 . S
H2658 C2635 0.950 . S
H2659 C2637 0.950 . S
C2660 C2661 1.349 . S
C2660 C2662 1.327 . S
C2660 H2685 0.950 . S
C2661 C2660 1.349 . S
C2661 C2677 1.349 . S
C2662 C2660 1.327 . S
C2662 C2681 1.429 . S
C2662 H2686 0.950 . S
C2663 C2680 1.574 . S
C2663 C2682 1.368 . S
C2663 H2687 0.949 . S
H2664 C2668 0.949 . S
C2665 C2666 1.349 . S
C2665 C2667 1.327 . S
C2665 H2688 0.950 . S
C2666 C2665 1.349 . S
C2666 C2678 1.349 . S
C2667 C2665 1.327 . S
C2667 C2683 1.429 . S
C2667 H2689 0.950 . S
C2668 H2664 0.949 . S
C2668 C2676 1.574 . S
C2668 C2684 1.368 . S
H2669 C2677 0.950 . S
H2670 C2675 0.950 . S
H2671 C2676 0.949 . S
H2672 C2678 0.950 . S
H2673 C2679 0.950 . S
H2674 C2680 0.949 . S
C2675 H2670 0.950 . S
C2675 C2677 1.327 . S
C2675 C2681 1.429 . S
C2676 C2668 1.574 . S
C2676 H2671 0.949 . S
C2676 C2682 1.368 . S
C2677 C2661 1.349 . S
C2677 H2669 0.950 . S
C2677 C2675 1.327 . S
C2678 C2666 1.349 . S
C2678 H2672 0.950 . S
C2678 C2679 1.327 . S
C2679 H2673 0.950 . S
C2679 C2678 1.327 . S
C2679 C2683 1.429 . S
C2680 C2663 1.574 . S
C2680 H2674 0.949 . S
C2680 C2684 1.368 . S
C2681 C2662 1.429 . S
C2681 C2675 1.429 . S
C2681 C2682 1.523 . S
C2682 C2663 1.368 . S
C2682 C2676 1.368 . S
C2682 C2681 1.523 . S
C2683 C2667 1.429 . S
C2683 C2679 1.429 . S
C2683 C2684 1.523 . S
C2684 C2668 1.368 . S
C2684 C2680 1.368 . S
C2684 C2683 1.523 . S
H2685 C2660 0.950 . S
H2686 C2662 0.950 . S
H2687 C2663 0.949 . S
H2688 C2665 0.950 . S
H2689 C2667 0.950 . S
C2690 C2691 1.349 . S
C2690 C2692 1.327 . S
C2690 H2715 0.950 . S
C2691 C2690 1.349 . S
C2691 C2707 1.349 . S
C2692 C2690 1.327 . S
C2692 C2711 1.429 . S
C2692 H2716 0.950 . S
C2693 C2710 1.574 . S
C2693 C2712 1.368 1_455 S
C2693 H2717 0.949 . S
H2694 C2698 0.949 . S
C2695 C2696 1.349 . S
C2695 C2697 1.327 . S
C2695 H2718 0.950 . S
C2696 C2695 1.349 . S
C2696 C2708 1.349 . S
C2697 C2695 1.327 . S
C2697 C2713 1.429 . S
C2697 H2719 0.950 . S
C2698 H2694 0.949 . S
C2698 C2706 1.574 . S
C2698 C2714 1.368 1_655 S
H2699 C2707 0.950 1_455 S
H2700 C2705 0.962 . S
H2701 C2706 0.949 . S
H2702 C2708 0.950 1_655 S
H2703 C2709 0.962 . S
H2704 C2710 0.949 . S
C2705 H2700 0.962 . S
C2705 C2707 1.323 1_455 S
C2705 C2711 1.421 1_455 S
C2706 C2698 1.574 . S
C2706 H2701 0.949 . S
C2706 C2712 1.368 . S
C2707 C2691 1.349 . S
C2707 H2699 0.950 1_655 S
C2707 C2705 1.323 1_655 S
C2708 C2696 1.349 . S
C2708 H2702 0.950 1_455 S
C2708 C2709 1.323 1_455 S
C2709 H2703 0.962 . S
C2709 C2708 1.323 1_655 S
C2709 C2713 1.421 1_655 S
C2710 C2693 1.574 . S
C2710 H2704 0.949 . S
C2710 C2714 1.368 . S
C2711 C2692 1.429 . S
C2711 C2705 1.421 1_655 S
C2711 C2712 1.523 . S
C2712 C2693 1.368 1_655 S
C2712 C2706 1.368 . S
C2712 C2711 1.523 . S
C2713 C2697 1.429 . S
C2713 C2709 1.421 1_455 S
C2713 C2714 1.523 . S
C2714 C2698 1.368 1_455 S
C2714 C2710 1.368 . S
C2714 C2713 1.523 . S
H2715 C2690 0.950 . S
H2716 C2692 0.950 . S
H2717 C2693 0.949 . S
H2718 C2695 0.950 . S
H2719 C2697 0.950 . S
C2720 C2721 1.349 . S
C2720 C2722 1.327 . S
C2720 H2745 0.950 . S
C2721 C2720 1.349 . S
C2721 C2737 1.349 . S
C2722 C2720 1.327 . S
C2722 C2741 1.429 . S
C2722 H2746 0.950 . S
C2723 C2740 1.574 . S
C2723 C2742 1.368 . S
C2723 H2747 0.949 . S
H2724 C2728 0.949 . S
C2725 C2726 1.349 . S
C2725 C2727 1.327 . S
C2725 H2748 0.950 . S
C2726 C2725 1.349 . S
C2726 C2738 1.349 . S
C2727 C2725 1.327 . S
C2727 C2743 1.429 . S
C2727 H2749 0.950 . S
C2728 H2724 0.949 . S
C2728 C2736 1.574 . S
C2728 C2744 1.368 . S
H2729 C2737 0.950 . S
H2730 C2735 0.950 . S
H2731 C2736 0.949 . S
H2732 C2738 0.950 . S
H2733 C2739 0.950 . S
H2734 C2740 0.949 . S
C2735 H2730 0.950 . S
C2735 C2737 1.327 . S
C2735 C2741 1.429 . S
C2736 C2728 1.574 . S
C2736 H2731 0.949 . S
C2736 C2742 1.368 . S
C2737 C2721 1.349 . S
C2737 H2729 0.950 . S
C2737 C2735 1.327 . S
C2738 C2726 1.349 . S
C2738 H2732 0.950 . S
C2738 C2739 1.327 . S
C2739 H2733 0.950 . S
C2739 C2738 1.327 . S
C2739 C2743 1.429 . S
C2740 C2723 1.574 . S
C2740 H2734 0.949 . S
C2740 C2744 1.368 . S
C2741 C2722 1.429 . S
C2741 C2735 1.429 . S
C2741 C2742 1.523 . S
C2742 C2723 1.368 . S
C2742 C2736 1.368 . S
C2742 C2741 1.523 . S
C2743 C2727 1.429 . S
C2743 C2739 1.429 . S
C2743 C2744 1.523 . S
C2744 C2728 1.368 . S
C2744 C2740 1.368 . S
C2744 C2743 1.523 . S
H2745 C2720 0.950 . S
H2746 C2722 0.950 . S
H2747 C2723 0.949 . S
H2748 C2725 0.950 . S
H2749 C2727 0.950 . S
C2750 C2751 1.349 . S
C2750 C2752 1.327 1_655 S
C2750 H2775 0.950 1_655 S
C2751 C2750 1.349 . S
C2751 C2767 1.349 . S
C2752 C2750 1.327 1_455 S
C2752 C2771 1.429 1_455 S
C2752 H2776 0.950 . S
C2753 C2770 1.574 . S
C2753 C2772 1.368 . S
C2753 H2777 0.949 . S
H2754 C2758 0.949 . S
C2755 C2756 1.349 . S
C2755 C2757 1.327 1_455 S
C2755 H2778 0.950 1_455 S
C2756 C2755 1.349 . S
C2756 C2768 1.349 . S
C2757 C2755 1.327 1_655 S
C2757 C2773 1.429 1_655 S
C2757 H2779 0.950 . S
C2758 H2754 0.949 . S
C2758 C2766 1.574 . S
C2758 C2774 1.368 . S
H2759 C2767 0.950 . S
H2760 C2765 0.950 . S
H2761 C2766 0.949 . S
H2762 C2768 0.950 . S
H2763 C2769 0.950 . S
H2764 C2770 0.949 . S
C2765 H2760 0.950 . S
C2765 C2767 1.327 . S
C2765 C2771 1.429 . S
C2766 C2758 1.574 . S
C2766 H2761 0.949 . S
C2766 C2772 1.368 1_465 S
C2767 C2751 1.349 . S
C2767 H2759 0.950 . S
C2767 C2765 1.327 . S
C2768 C2756 1.349 . S
C2768 H2762 0.950 . S
C2768 C2769 1.327 . S
C2769 H2763 0.950 . S
C2769 C2768 1.327 . S
C2769 C2773 1.429 . S
C2770 C2753 1.574 . S
C2770 H2764 0.949 . S
C2770 C2774 1.368 1_645 S
C2771 C2752 1.429 1_655 S
C2771 C2765 1.429 . S
C2771 C2772 1.523 . S
C2772 C2753 1.368 . S
C2772 C2766 1.368 1_645 S
C2772 C2771 1.523 . S
C2773 C2757 1.429 1_455 S
C2773 C2769 1.429 . S
C2773 C2774 1.523 . S
C2774 C2758 1.368 . S
C2774 C2770 1.368 1_465 S
C2774 C2773 1.523 . S
H2775 C2750 0.950 1_455 S
H2776 C2752 0.950 . S
H2777 C2753 0.949 . S
H2778 C2755 0.950 1_655 S
H2779 C2757 0.950 . S
C2780 C2781 1.349 . S
C2780 C2782 1.327 . S
C2780 H2805 0.950 . S
C2781 C2780 1.349 . S
C2781 C2797 1.349 . S
C2782 C2780 1.327 . S
C2782 C2801 1.429 . S
C2782 H2806 0.950 . S
C2783 C2800 1.574 . S
C2783 C2802 1.368 . S
C2783 H2807 0.949 . S
H2784 C2788 0.949 . S
C2785 C2786 1.349 . S
C2785 C2787 1.327 . S
C2785 H2808 0.950 . S
C2786 C2785 1.349 . S
C2786 C2798 1.349 . S
C2787 C2785 1.327 . S
C2787 C2803 1.429 . S
C2787 H2809 0.950 . S
C2788 H2784 0.949 . S
C2788 C2796 1.574 . S
C2788 C2804 1.368 . S
H2789 C2797 0.950 . S
H2790 C2795 0.950 . S
H2791 C2796 0.949 . S
H2792 C2798 0.950 . S
H2793 C2799 0.950 . S
H2794 C2800 0.949 . S
C2795 H2790 0.950 . S
C2795 C2797 1.327 . S
C2795 C2801 1.429 . S
C2796 C2788 1.574 . S
C2796 H2791 0.949 . S
C2796 C2802 1.368 . S
C2797 C2781 1.349 . S
C2797 H2789 0.950 . S
C2797 C2795 1.327 . S
C2798 C2786 1.349 . S
C2798 H2792 0.950 . S
C2798 C2799 1.327 . S
C2799 H2793 0.950 . S
C2799 C2798 1.327 . S
C2799 C2803 1.429 . S
C2800 C2783 1.574 . S
C2800 H2794 0.949 . S
C2800 C2804 1.368 . S
C2801 C2782 1.429 . S
C2801 C2795 1.429 . S
C2801 C2802 1.523 . S
C2802 C2783 1.368 . S
C2802 C2796 1.368 . S
C2802 C2801 1.523 . S
C2803 C2787 1.429 . S
C2803 C2799 1.429 . S
C2803 C2804 1.523 . S
C2804 C2788 1.368 . S
C2804 C2800 1.368 . S
C2804 C2803 1.523 . S
H2805 C2780 0.950 . S
H2806 C2782 0.950 . S
H2807 C2783 0.949 . S
H2808 C2785 0.950 . S
H2809 C2787 0.950 . S
C2810 C2811 1.349 . S
C2810 C2812 1.327 . S
C2810 H2835 0.950 . S
C2811 C2810 1.349 . S
C2811 C2827 1.349 1_545 S
C2812 C2810 1.327 . S
C2812 C2831 1.429 . S
C2812 H2836 0.950 . S
C2813 C2830 1.574 1_554 S
C2813 C2832 1.368 1_565 S
C2813 H2837 0.949 . S
H2814 C2818 0.949 . S
C2815 C2816 1.349 . S
C2815 C2817 1.327 . S
C2815 H2838 0.950 . S
C2816 C2815 1.349 . S
C2816 C2828 1.349 1_565 S
C2817 C2815 1.327 . S
C2817 C2833 1.429 . S
C2817 H2839 0.950 . S
C2818 H2814 0.949 . S
C2818 C2826 1.574 1_556 S
C2818 C2834 1.368 1_545 S
H2819 C2827 0.950 . S
H2820 C2825 0.950 . S
H2821 C2826 0.949 . S
H2822 C2828 0.950 . S
H2823 C2829 0.950 . S
H2824 C2830 0.949 . S
C2825 H2820 0.950 . S
C2825 C2827 1.327 . S
C2825 C2831 1.429 1_565 S
C2826 C2818 1.574 1_554 S
C2826 H2821 0.949 . S
C2826 C2832 1.368 . S
C2827 C2811 1.349 1_565 S
C2827 H2819 0.950 . S
C2827 C2825 1.327 . S
C2828 C2816 1.349 1_545 S
C2828 H2822 0.950 . S
C2828 C2829 1.327 . S
C2829 H2823 0.950 . S
C2829 C2828 1.327 . S
C2829 C2833 1.429 1_545 S
C2830 C2813 1.574 1_556 S
C2830 H2824 0.949 . S
C2830 C2834 1.368 . S
C2831 C2812 1.429 . S
C2831 C2825 1.429 1_545 S
C2831 C2832 1.523 . S
C2832 C2813 1.368 1_545 S
C2832 C2826 1.368 . S
C2832 C2831 1.523 . S
C2833 C2817 1.429 . S
C2833 C2829 1.429 1_565 S
C2833 C2834 1.523 . S
C2834 C2818 1.368 1_565 S
C2834 C2830 1.368 . S
C2834 C2833 1.523 . S
H2835 C2810 0.950 . S
H2836 C2812 0.950 . S
H2837 C2813 0.949 . S
H2838 C2815 0.950 . S
H2839 C2817 0.950 . S
C2840 C2841 1.349 . S
C2840 C2842 1.327 . S
C2840 H2865 0.950 . S
C2841 C2840 1.349 . S
C2841 C2857 1.349 . S
C2842 C2840 1.327 . S
C2842 C2861 1.429 . S
C2842 H2866 0.950 . S
C2843 C2860 1.574 . S
C2843 C2862 1.368 . S
C2843 H2867 0.949 . S
H2844 C2848 0.949 . S
C2845 C2846 1.349 . S
C2845 C2847 1.327 . S
C2845 H2868 0.950 . S
C2846 C2845 1.349 . S
C2846 C2858 1.349 . S
C2847 C2845 1.327 . S
C2847 C2863 1.429 . S
C2847 H2869 0.950 . S
C2848 H2844 0.949 . S
C2848 C2856 1.574 . S
C2848 C2864 1.368 . S
H2849 C2857 0.950 . S
H2850 C2855 0.950 . S
H2851 C2856 0.949 . S
H2852 C2858 0.950 . S
H2853 C2859 0.950 . S
H2854 C2860 0.949 . S
C2855 H2850 0.950 . S
C2855 C2857 1.327 . S
C2855 C2861 1.429 . S
C2856 C2848 1.574 . S
C2856 H2851 0.949 . S
C2856 C2862 1.368 . S
C2857 C2841 1.349 . S
C2857 H2849 0.950 . S
C2857 C2855 1.327 . S
C2858 C2846 1.349 . S
C2858 H2852 0.950 . S
C2858 C2859 1.327 . S
C2859 H2853 0.950 . S
C2859 C2858 1.327 . S
C2859 C2863 1.429 . S
C2860 C2843 1.574 . S
C2860 H2854 0.949 . S
C2860 C2864 1.368 . S
C2861 C2842 1.429 . S
C2861 C2855 1.429 . S
C2861 C2862 1.523 . S
C2862 C2843 1.368 . S
C2862 C2856 1.368 . S
C2862 C2861 1.523 . S
C2863 C2847 1.429 . S
C2863 C2859 1.429 . S
C2863 C2864 1.523 . S
C2864 C2848 1.368 . S
C2864 C2860 1.368 . S
C2864 C2863 1.523 . S
H2865 C2840 0.950 . S
H2866 C2842 0.950 . S
H2867 C2843 0.949 . S
H2868 C2845 0.950 . S
H2869 C2847 0.950 . S
C2870 C2871 1.349 . S
C2870 C2872 1.327 . S
C2870 H2895 0.950 . S
C2871 C2870 1.349 . S
C2871 C2887 1.349 . S
C2872 C2870 1.327 . S
C2872 C2891 1.429 . S
C2872 H2896 0.950 1_545 S
C2873 C2890 1.574 . S
C2873 C2892 1.368 . S
C2873 H2897 0.949 . S
H2874 C2878 0.949 . S
C2875 C2876 1.349 . S
C2875 C2877 1.327 . S
C2875 H2898 0.950 . S
C2876 C2875 1.349 . S
C2876 C2888 1.349 . S
C2877 C2875 1.327 . S
C2877 C2893 1.429 . S
C2877 H2899 0.950 1_565 S
C2878 H2874 0.949 . S
C2878 C2886 1.574 . S
C2878 C2894 1.368 . S
H2879 C2887 0.950 . S
H2880 C2885 0.950 . S
H2881 C2886 0.949 . S
H2882 C2888 0.950 . S
H2883 C2889 0.950 . S
H2884 C2890 0.949 . S
C2885 H2880 0.950 . S
C2885 C2887 1.327 . S
C2885 C2891 1.429 . S
C2886 C2878 1.574 . S
C2886 H2881 0.949 . S
C2886 C2892 1.368 1_565 S
C2887 C2871 1.349 . S
C2887 H2879 0.950 . S
C2887 C2885 1.327 . S
C2888 C2876 1.349 . S
C2888 H2882 0.950 . S
C2888 C2889 1.327 . S
C2889 H2883 0.950 . S
C2889 C2888 1.327 . S
C2889 C2893 1.429 . S
C2890 C2873 1.574 . S
C2890 H2884 0.949 . S
C2890 C2894 1.368 1_545 S
C2891 C2872 1.429 . S
C2891 C2885 1.429 . S
C2891 C2892 1.523 . S
C2892 C2873 1.368 . S
C2892 C2886 1.368 1_545 S
C2892 C2891 1.523 . S
C2893 C2877 1.429 . S
C2893 C2889 1.429 . S
C2893 C2894 1.523 . S
C2894 C2878 1.368 . S
C2894 C2890 1.368 1_565 S
C2894 C2893 1.523 . S
H2895 C2870 0.950 . S
H2896 C2872 0.950 1_565 S
H2897 C2873 0.949 . S
H2898 C2875 0.950 . S
H2899 C2877 0.950 1_545 S
C2900 C2901 1.349 . S
C2900 C2902 1.327 . S
C2900 H2925 0.950 . S
C2901 C2900 1.349 . S
C2901 C2917 1.349 . S
C2902 C2900 1.327 . S
C2902 C2921 1.429 . S
C2902 H2926 0.950 . S
C2903 C2920 1.574 . S
C2903 C2922 1.368 . S
C2903 H2927 0.949 . S
H2904 C2908 0.949 . S
C2905 C2906 1.349 . S
C2905 C2907 1.327 . S
C2905 H2928 0.950 . S
C2906 C2905 1.349 . S
C2906 C2918 1.349 . S
C2907 C2905 1.327 . S
C2907 C2923 1.429 . S
C2907 H2929 0.950 . S
C2908 H2904 0.949 . S
C2908 C2916 1.574 . S
C2908 C2924 1.368 . S
H2909 C2917 0.950 . S
H2910 C2915 0.950 . S
H2911 C2916 0.949 . S
H2912 C2918 0.950 . S
H2913 C2919 0.950 . S
H2914 C2920 0.949 . S
C2915 H2910 0.950 . S
C2915 C2917 1.327 . S
C2915 C2921 1.429 . S
C2916 C2908 1.574 . S
C2916 H2911 0.949 . S
C2916 C2922 1.368 . S
C2917 C2901 1.349 . S
C2917 H2909 0.950 . S
C2917 C2915 1.327 . S
C2918 C2906 1.349 . S
C2918 H2912 0.950 . S
C2918 C2919 1.327 . S
C2919 H2913 0.950 . S
C2919 C2918 1.327 . S
C2919 C2923 1.429 . S
C2920 C2903 1.574 . S
C2920 H2914 0.949 . S
C2920 C2924 1.368 . S
C2921 C2902 1.429 . S
C2921 C2915 1.429 . S
C2921 C2922 1.523 . S
C2922 C2903 1.368 . S
C2922 C2916 1.368 . S
C2922 C2921 1.523 . S
C2923 C2907 1.429 . S
C2923 C2919 1.429 . S
C2923 C2924 1.523 . S
C2924 C2908 1.368 . S
C2924 C2920 1.368 . S
C2924 C2923 1.523 . S
H2925 C2900 0.950 . S
H2926 C2902 0.950 . S
H2927 C2903 0.949 . S
H2928 C2905 0.950 . S
H2929 C2907 0.950 . S
C2930 C2931 1.383 . S
C2930 C2932 1.318 1_455 S
C2930 H2955 0.925 1_455 S
C2931 C2930 1.383 . S
C2931 C2947 1.349 . S
C2932 C2930 1.318 1_655 S
C2932 C2951 1.429 1_655 S
C2932 H2956 0.950 . S
C2933 C2950 1.575 1_556 S
C2933 C2952 1.368 . S
C2933 H2957 0.949 . S
H2934 C2938 0.949 . S
C2935 C2936 1.383 . S
C2935 C2937 1.318 1_655 S
C2935 H2958 0.925 1_655 S
C2936 C2935 1.383 . S
C2936 C2948 1.349 . S
C2937 C2935 1.318 1_455 S
C2937 C2953 1.429 1_455 S
C2937 H2959 0.950 . S
C2938 H2934 0.949 . S
C2938 C2946 1.575 1_554 S
C2938 C2954 1.368 . S
H2939 C2947 0.950 . S
H2940 C2945 0.950 . S
H2941 C2946 0.949 . S
H2942 C2948 0.950 . S
H2943 C2949 0.950 . S
H2944 C2950 0.949 . S
C2945 H2940 0.950 . S
C2945 C2947 1.327 . S
C2945 C2951 1.429 . S
C2946 C2938 1.575 1_556 S
C2946 H2941 0.949 . S
C2946 C2952 1.367 1_665 S
C2947 C2931 1.349 . S
C2947 H2939 0.950 . S
C2947 C2945 1.327 . S
C2948 C2936 1.349 . S
C2948 H2942 0.950 . S
C2948 C2949 1.327 . S
C2949 H2943 0.950 . S
C2949 C2948 1.327 . S
C2949 C2953 1.429 . S
C2950 C2933 1.575 1_554 S
C2950 H2944 0.949 . S
C2950 C2954 1.367 1_445 S
C2951 C2932 1.429 1_455 S
C2951 C2945 1.429 . S
C2951 C2952 1.523 . S
C2952 C2933 1.368 . S
C2952 C2946 1.367 1_445 S
C2952 C2951 1.523 . S
C2953 C2937 1.429 1_655 S
C2953 C2949 1.429 . S
C2953 C2954 1.523 . S
C2954 C2938 1.368 . S
C2954 C2950 1.367 1_665 S
C2954 C2953 1.523 . S
H2955 C2930 0.925 1_655 S
H2956 C2932 0.950 . S
H2957 C2933 0.949 . S
H2958 C2935 0.925 1_455 S
H2959 C2937 0.950 . S
C2960 C2961 1.349 . S
C2960 C2962 1.327 . S
C2960 H2985 0.950 . S
C2961 C2960 1.349 . S
C2961 C2977 1.349 . S
C2962 C2960 1.327 . S
C2962 C2981 1.429 . S
C2962 H2986 0.950 . S
C2963 C2980 1.574 . S
C2963 C2982 1.368 . S
C2963 H2987 0.949 . S
H2964 C2968 0.949 . S
C2965 C2966 1.349 . S
C2965 C2967 1.327 . S
C2965 H2988 0.950 . S
C2966 C2965 1.349 . S
C2966 C2978 1.349 . S
C2967 C2965 1.327 . S
C2967 C2983 1.429 . S
C2967 H2989 0.950 . S
C2968 H2964 0.949 . S
C2968 C2976 1.574 . S
C2968 C2984 1.368 . S
H2969 C2977 0.950 . S
H2970 C2975 0.950 . S
H2971 C2976 0.949 . S
H2972 C2978 0.950 . S
H2973 C2979 0.950 . S
H2974 C2980 0.949 . S
C2975 H2970 0.950 . S
C2975 C2977 1.327 . S
C2975 C2981 1.429 . S
C2976 C2968 1.574 . S
C2976 H2971 0.949 . S
C2976 C2982 1.368 . S
C2977 C2961 1.349 . S
C2977 H2969 0.950 . S
C2977 C2975 1.327 . S
C2978 C2966 1.349 . S
C2978 H2972 0.950 . S
C2978 C2979 1.327 . S
C2979 H2973 0.950 . S
C2979 C2978 1.327 . S
C2979 C2983 1.429 . S
C2980 C2963 1.574 . S
C2980 H2974 0.949 . S
C2980 C2984 1.368 . S
C2981 C2962 1.429 . S
C2981 C2975 1.429 . S
C2981 C2982 1.523 . S
C2982 C2963 1.368 . S
C2982 C2976 1.368 . S
C2982 C2981 1.523 . S
C2983 C2967 1.429 . S
C2983 C2979 1.429 . S
C2983 C2984 1.523 . S
C2984 C2968 1.368 . S
C2984 C2980 1.368 . S
C2984 C2983 1.523 . S
H2985 C2960 0.950 . S
H2986 C2962 0.950 . S
H2987 C2963 0.949 . S
H2988 C2965 0.950 . S
H2989 C2967 0.950 . S
C2990 C2991 1.349 . S
C2990 C2992 1.327 . S
C2990 H3015 0.950 . S
C2991 C2990 1.349 . S
C2991 C3007 1.349 . S
C2992 C2990 1.327 . S
C2992 C3011 1.429 . S
C2992 H3016 0.950 . S
C2993 C3010 1.574 . S
C2993 C3012 1.368 . S
C2993 H3017 0.949 . S
H2994 C2998 0.949 . S
C2995 C2996 1.349 . S
C2995 C2997 1.327 . S
C2995 H3018 0.950 . S
C2996 C2995 1.349 . S
C2996 C3008 1.349 . S
C2997 C2995 1.327 . S
C2997 C3013 1.429 . S
C2997 H3019 0.950 . S
C2998 H2994 0.949 . S
C2998 C3006 1.574 . S
C2998 C3014 1.368 . S
H2999 C3007 0.950 . S
H3000 C3005 0.950 . S
H3001 C3006 0.949 . S
H3002 C3008 0.950 . S
H3003 C3009 0.950 . S
H3004 C3010 0.949 . S
C3005 H3000 0.950 . S
C3005 C3007 1.327 . S
C3005 C3011 1.429 . S
C3006 C2998 1.574 . S
C3006 H3001 0.949 . S
C3006 C3012 1.368 . S
C3007 C2991 1.349 . S
C3007 H2999 0.950 . S
C3007 C3005 1.327 . S
C3008 C2996 1.349 . S
C3008 H3002 0.950 . S
C3008 C3009 1.327 . S
C3009 H3003 0.950 . S
C3009 C3008 1.327 . S
C3009 C3013 1.429 . S
C3010 C2993 1.574 . S
C3010 H3004 0.949 . S
C3010 C3014 1.368 . S
C3011 C2992 1.429 . S
C3011 C3005 1.429 . S
C3011 C3012 1.523 . S
C3012 C2993 1.368 . S
C3012 C3006 1.368 . S
C3012 C3011 1.523 . S
C3013 C2997 1.429 . S
C3013 C3009 1.429 . S
C3013 C3014 1.523 . S
C3014 C2998 1.368 . S
C3014 C3010 1.368 . S
C3014 C3013 1.523 . S
H3015 C2990 0.950 . S
H3016 C2992 0.950 . S
H3017 C2993 0.949 . S
H3018 C2995 0.950 . S
H3019 C2997 0.950 . S
C3020 C3021 1.349 . S
C3020 C3022 1.327 . S
C3020 H3045 0.950 . S
C3021 C3020 1.349 . S
C3021 C3037 1.349 . S
C3022 C3020 1.327 . S
C3022 C3041 1.429 . S
C3022 H3046 0.950 . S
C3023 C3040 1.574 . S
C3023 C3042 1.368 . S
C3023 H3047 0.949 . S
H3024 C3028 0.949 . S
C3025 C3026 1.349 . S
C3025 C3027 1.327 . S
C3025 H3048 0.950 . S
C3026 C3025 1.349 . S
C3026 C3038 1.349 . S
C3027 C3025 1.327 . S
C3027 C3043 1.429 . S
C3027 H3049 0.950 . S
C3028 H3024 0.949 . S
C3028 C3036 1.574 . S
C3028 C3044 1.368 . S
H3029 C3037 0.950 . S
H3030 C3035 0.950 . S
H3031 C3036 0.949 . S
H3032 C3038 0.950 . S
H3033 C3039 0.950 . S
H3034 C3040 0.949 . S
C3035 H3030 0.950 . S
C3035 C3037 1.327 . S
C3035 C3041 1.429 . S
C3036 C3028 1.574 . S
C3036 H3031 0.949 . S
C3036 C3042 1.368 . S
C3037 C3021 1.349 . S
C3037 H3029 0.950 . S
C3037 C3035 1.327 . S
C3038 C3026 1.349 . S
C3038 H3032 0.950 . S
C3038 C3039 1.327 . S
C3039 H3033 0.950 . S
C3039 C3038 1.327 . S
C3039 C3043 1.429 . S
C3040 C3023 1.574 . S
C3040 H3034 0.949 . S
C3040 C3044 1.368 . S
C3041 C3022 1.429 . S
C3041 C3035 1.429 . S
C3041 C3042 1.523 . S
C3042 C3023 1.368 . S
C3042 C3036 1.368 . S
C3042 C3041 1.523 . S
C3043 C3027 1.429 . S
C3043 C3039 1.429 . S
C3043 C3044 1.523 . S
C3044 C3028 1.368 . S
C3044 C3040 1.368 . S
C3044 C3043 1.523 . S
H3045 C3020 0.950 . S
H3046 C3022 0.950 . S
H3047 C3023 0.949 . S
H3048 C3025 0.950 . S
H3049 C3027 0.950 . S
C3050 C3051 1.349 . S
C3050 C3052 1.327 . S
C3050 H3075 0.950 . S
C3051 C3050 1.349 . S
C3051 C3067 1.349 . S
C3052 C3050 1.327 . S
C3052 C3071 1.429 . S
C3052 H3076 0.950 . S
C3053 C3070 1.574 . S
C3053 C3072 1.368 . S
C3053 H3077 0.949 . S
H3054 C3058 0.949 . S
C3055 C3056 1.349 . S
C3055 C3057 1.327 . S
C3055 H3078 0.950 . S
C3056 C3055 1.349 . S
C3056 C3068 1.349 . S
C3057 C3055 1.327 . S
C3057 C3073 1.429 . S
C3057 H3079 0.950 . S
C3058 H3054 0.949 . S
C3058 C3066 1.574 . S
C3058 C3074 1.368 . S
H3059 C3067 0.950 . S
H3060 C3065 0.950 . S
H3061 C3066 0.949 . S
H3062 C3068 0.950 . S
H3063 C3069 0.950 . S
H3064 C3070 0.949 . S
C3065 H3060 0.950 . S
C3065 C3067 1.327 . S
C3065 C3071 1.429 . S
C3066 C3058 1.574 . S
C3066 H3061 0.949 . S
C3066 C3072 1.368 . S
C3067 C3051 1.349 . S
C3067 H3059 0.950 . S
C3067 C3065 1.327 . S
C3068 C3056 1.349 . S
C3068 H3062 0.950 . S
C3068 C3069 1.327 . S
C3069 H3063 0.950 . S
C3069 C3068 1.327 . S
C3069 C3073 1.429 . S
C3070 C3053 1.574 . S
C3070 H3064 0.949 . S
C3070 C3074 1.368 . S
C3071 C3052 1.429 . S
C3071 C3065 1.429 . S
C3071 C3072 1.523 . S
C3072 C3053 1.368 . S
C3072 C3066 1.368 . S
C3072 C3071 1.523 . S
C3073 C3057 1.429 . S
C3073 C3069 1.429 . S
C3073 C3074 1.523 . S
C3074 C3058 1.368 . S
C3074 C3070 1.368 . S
C3074 C3073 1.523 . S
H3075 C3050 0.950 . S
H3076 C3052 0.950 . S
H3077 C3053 0.949 . S
H3078 C3055 0.950 . S
H3079 C3057 0.950 . S
C3080 C3081 1.349 . S
C3080 C3082 1.327 . S
C3080 H3105 0.950 . S
C3081 C3080 1.349 . S
C3081 C3097 1.349 . S
C3082 C3080 1.327 . S
C3082 C3101 1.429 . S
C3082 H3106 0.950 . S
C3083 C3100 1.574 1_554 S
C3083 C3102 1.368 . S
C3083 H3107 0.949 . S
H3084 C3088 0.949 . S
C3085 C3086 1.349 . S
C3085 C3087 1.327 . S
C3085 H3108 0.950 . S
C3086 C3085 1.349 . S
C3086 C3098 1.349 . S
C3087 C3085 1.327 . S
C3087 C3103 1.429 . S
C3087 H3109 0.950 . S
C3088 H3084 0.949 . S
C3088 C3096 1.574 1_556 S
C3088 C3104 1.368 . S
H3089 C3097 0.950 . S
H3090 C3095 0.950 . S
H3091 C3096 0.949 . S
H3092 C3098 0.950 . S
H3093 C3099 0.950 . S
H3094 C3100 0.949 . S
C3095 H3090 0.950 . S
C3095 C3097 1.327 . S
C3095 C3101 1.429 . S
C3096 C3088 1.574 1_554 S
C3096 H3091 0.949 . S
C3096 C3102 1.368 . S
C3097 C3081 1.349 . S
C3097 H3089 0.950 . S
C3097 C3095 1.327 . S
C3098 C3086 1.349 . S
C3098 H3092 0.950 . S
C3098 C3099 1.327 . S
C3099 H3093 0.950 . S
C3099 C3098 1.327 . S
C3099 C3103 1.429 . S
C3100 C3083 1.574 1_556 S
C3100 H3094 0.949 . S
C3100 C3104 1.368 . S
C3101 C3082 1.429 . S
C3101 C3095 1.429 . S
C3101 C3102 1.523 . S
C3102 C3083 1.368 . S
C3102 C3096 1.368 . S
C3102 C3101 1.523 . S
C3103 C3087 1.429 . S
C3103 C3099 1.429 . S
C3103 C3104 1.523 . S
C3104 C3088 1.368 . S
C3104 C3100 1.368 . S
C3104 C3103 1.523 . S
H3105 C3080 0.950 . S
H3106 C3082 0.950 . S
H3107 C3083 0.949 . S
H3108 C3085 0.950 . S
H3109 C3087 0.950 . S
C3110 C3111 1.349 . S
C3110 C3112 1.327 . S
C3110 H3135 0.950 . S
C3111 C3110 1.349 . S
C3111 C3127 1.349 . S
C3112 C3110 1.327 . S
C3112 C3131 1.429 . S
C3112 H3136 0.950 . S
C3113 C3130 1.574 . S
C3113 C3132 1.368 1_455 S
C3113 H3137 0.949 . S
H3114 C3118 0.949 . S
C3115 C3116 1.349 . S
C3115 C3117 1.327 . S
C3115 H3138 0.950 . S
C3116 C3115 1.349 . S
C3116 C3128 1.349 . S
C3117 C3115 1.327 . S
C3117 C3133 1.429 . S
C3117 H3139 0.950 . S
C3118 H3114 0.949 . S
C3118 C3126 1.574 . S
C3118 C3134 1.368 1_655 S
H3119 C3127 0.950 . S
H3120 C3125 0.950 1_455 S
H3121 C3126 0.949 . S
H3122 C3128 0.950 . S
H3123 C3129 0.950 1_655 S
H3124 C3130 0.949 . S
C3125 H3120 0.950 1_655 S
C3125 C3127 1.327 . S
C3125 C3131 1.429 . S
C3126 C3118 1.574 . S
C3126 H3121 0.949 . S
C3126 C3132 1.368 . S
C3127 C3111 1.349 . S
C3127 H3119 0.950 . S
C3127 C3125 1.327 . S
C3128 C3116 1.349 . S
C3128 H3122 0.950 . S
C3128 C3129 1.327 . S
C3129 H3123 0.950 1_455 S
C3129 C3128 1.327 . S
C3129 C3133 1.429 . S
C3130 C3113 1.574 . S
C3130 H3124 0.949 . S
C3130 C3134 1.368 . S
C3131 C3112 1.429 . S
C3131 C3125 1.429 . S
C3131 C3132 1.523 . S
C3132 C3113 1.368 1_655 S
C3132 C3126 1.368 . S
C3132 C3131 1.523 . S
C3133 C3117 1.429 . S
C3133 C3129 1.429 . S
C3133 C3134 1.523 . S
C3134 C3118 1.368 1_455 S
C3134 C3130 1.368 . S
C3134 C3133 1.523 . S
H3135 C3110 0.950 . S
H3136 C3112 0.950 . S
H3137 C3113 0.949 . S
H3138 C3115 0.950 . S
H3139 C3117 0.950 . S
C3140 C3141 1.349 . S
C3140 C3142 1.327 . S
C3140 H3165 0.958 . S
C3141 C3140 1.349 . S
C3141 C3157 1.349 . S
C3142 C3140 1.327 . S
C3142 C3161 1.429 . S
C3142 H3166 0.950 1_455 S
C3143 C3160 1.574 1_554 S
C3143 C3162 1.368 . S
C3143 H3167 0.949 . S
H3144 C3148 0.949 . S
C3145 C3146 1.349 . S
C3145 C3147 1.327 . S
C3145 H3168 0.958 . S
C3146 C3145 1.349 . S
C3146 C3158 1.349 . S
C3147 C3145 1.327 . S
C3147 C3163 1.429 . S
C3147 H3169 0.950 1_655 S
C3148 H3144 0.949 . S
C3148 C3156 1.574 1_556 S
C3148 C3164 1.368 . S
H3149 C3157 0.950 . S
H3150 C3155 0.950 . S
H3151 C3156 0.949 . S
H3152 C3158 0.950 . S
H3153 C3159 0.950 . S
H3154 C3160 0.949 . S
C3155 H3150 0.950 . S
C3155 C3157 1.327 . S
C3155 C3161 1.429 . S
C3156 C3148 1.574 1_554 S
C3156 H3151 0.949 . S
C3156 C3162 1.368 1_655 S
C3157 C3141 1.349 . S
C3157 H3149 0.950 . S
C3157 C3155 1.327 . S
C3158 C3146 1.349 . S
C3158 H3152 0.950 . S
C3158 C3159 1.327 . S
C3159 H3153 0.950 . S
C3159 C3158 1.327 . S
C3159 C3163 1.429 . S
C3160 C3143 1.574 1_556 S
C3160 H3154 0.949 . S
C3160 C3164 1.368 1_455 S
C3161 C3142 1.429 . S
C3161 C3155 1.429 . S
C3161 C3162 1.523 . S
C3162 C3143 1.368 . S
C3162 C3156 1.368 1_455 S
C3162 C3161 1.523 . S
C3163 C3147 1.429 . S
C3163 C3159 1.429 . S
C3163 C3164 1.523 . S
C3164 C3148 1.368 . S
C3164 C3160 1.368 1_655 S
C3164 C3163 1.523 . S
H3165 C3140 0.958 . S
H3166 C3142 0.950 1_655 S
H3167 C3143 0.949 . S
H3168 C3145 0.958 . S
H3169 C3147 0.950 1_455 S
C3170 C3171 1.349 . S
C3170 C3172 1.327 . S
C3170 H3195 0.950 . S
C3171 C3170 1.349 . S
C3171 C3187 1.349 . S
C3172 C3170 1.327 . S
C3172 C3191 1.429 . S
C3172 H3196 0.950 . S
C3173 C3190 1.574 . S
C3173 C3192 1.368 . S
C3173 H3197 0.949 . S
H3174 C3178 0.949 . S
C3175 C3176 1.349 . S
C3175 C3177 1.327 . S
C3175 H3198 0.950 . S
C3176 C3175 1.349 . S
C3176 C3188 1.349 . S
C3177 C3175 1.327 . S
C3177 C3193 1.429 . S
C3177 H3199 0.950 . S
C3178 H3174 0.949 . S
C3178 C3186 1.574 . S
C3178 C3194 1.368 . S
H3179 C3187 0.950 . S
H3180 C3185 0.950 . S
H3181 C3186 0.949 . S
H3182 C3188 0.950 . S
H3183 C3189 0.950 . S
H3184 C3190 0.949 . S
C3185 H3180 0.950 . S
C3185 C3187 1.327 . S
C3185 C3191 1.429 . S
C3186 C3178 1.574 . S
C3186 H3181 0.949 . S
C3186 C3192 1.368 . S
C3187 C3171 1.349 . S
C3187 H3179 0.950 . S
C3187 C3185 1.327 . S
C3188 C3176 1.349 . S
C3188 H3182 0.950 . S
C3188 C3189 1.327 . S
C3189 H3183 0.950 . S
C3189 C3188 1.327 . S
C3189 C3193 1.429 . S
C3190 C3173 1.574 . S
C3190 H3184 0.949 . S
C3190 C3194 1.368 . S
C3191 C3172 1.429 . S
C3191 C3185 1.429 . S
C3191 C3192 1.523 . S
C3192 C3173 1.368 . S
C3192 C3186 1.368 . S
C3192 C3191 1.523 . S
C3193 C3177 1.429 . S
C3193 C3189 1.429 . S
C3193 C3194 1.523 . S
C3194 C3178 1.368 . S
C3194 C3190 1.368 . S
C3194 C3193 1.523 . S
H3195 C3170 0.950 . S
H3196 C3172 0.950 . S
H3197 C3173 0.949 . S
H3198 C3175 0.950 . S
H3199 C3177 0.950 . S
C3200 C3201 1.349 . S
C3200 C3202 1.327 . S
C3200 H3225 0.950 . S
C3201 C3200 1.349 . S
C3201 C3217 1.349 . S
C3202 C3200 1.327 . S
C3202 C3221 1.429 . S
C3202 H3226 0.950 . S
C3203 C3220 1.574 . S
C3203 C3222 1.368 . S
C3203 H3227 0.949 . S
H3204 C3208 0.949 . S
C3205 C3206 1.349 . S
C3205 C3207 1.327 . S
C3205 H3228 0.950 . S
C3206 C3205 1.349 . S
C3206 C3218 1.349 . S
C3207 C3205 1.327 . S
C3207 C3223 1.429 . S
C3207 H3229 0.950 . S
C3208 H3204 0.949 . S
C3208 C3216 1.574 . S
C3208 C3224 1.368 . S
H3209 C3217 0.950 . S
H3210 C3215 0.950 . S
H3211 C3216 0.949 . S
H3212 C3218 0.950 . S
H3213 C3219 0.950 . S
H3214 C3220 0.949 . S
C3215 H3210 0.950 . S
C3215 C3217 1.327 . S
C3215 C3221 1.429 . S
C3216 C3208 1.574 . S
C3216 H3211 0.949 . S
C3216 C3222 1.368 . S
C3217 C3201 1.349 . S
C3217 H3209 0.950 . S
C3217 C3215 1.327 . S
C3218 C3206 1.349 . S
C3218 H3212 0.950 . S
C3218 C3219 1.327 . S
C3219 H3213 0.950 . S
C3219 C3218 1.327 . S
C3219 C3223 1.429 . S
C3220 C3203 1.574 . S
C3220 H3214 0.949 . S
C3220 C3224 1.368 . S
C3221 C3202 1.429 . S
C3221 C3215 1.429 . S
C3221 C3222 1.523 . S
C3222 C3203 1.368 . S
C3222 C3216 1.368 . S
C3222 C3221 1.523 . S
C3223 C3207 1.429 . S
C3223 C3219 1.429 . S
C3223 C3224 1.523 . S
C3224 C3208 1.368 . S
C3224 C3220 1.368 . S
C3224 C3223 1.523 . S
H3225 C3200 0.950 . S
H3226 C3202 0.950 . S
H3227 C3203 0.949 . S
H3228 C3205 0.950 . S
H3229 C3207 0.950 . S
C3230 C3231 1.349 . S
C3230 C3232 1.327 . S
C3230 H3255 0.950 . S
C3231 C3230 1.349 . S
C3231 C3247 1.349 . S
C3232 C3230 1.327 . S
C3232 C3251 1.429 . S
C3232 H3256 0.950 . S
C3233 C3250 1.574 . S
C3233 C3252 1.368 . S
C3233 H3257 0.949 . S
H3234 C3238 0.949 . S
C3235 C3236 1.349 . S
C3235 C3237 1.327 . S
C3235 H3258 0.950 . S
C3236 C3235 1.349 . S
C3236 C3248 1.349 . S
C3237 C3235 1.327 . S
C3237 C3253 1.429 . S
C3237 H3259 0.950 . S
C3238 H3234 0.949 . S
C3238 C3246 1.574 . S
C3238 C3254 1.368 . S
H3239 C3247 0.950 . S
H3240 C3245 0.950 . S
H3241 C3246 0.949 . S
H3242 C3248 0.950 . S
H3243 C3249 0.950 . S
H3244 C3250 0.949 . S
C3245 H3240 0.950 . S
C3245 C3247 1.327 . S
C3245 C3251 1.429 . S
C3246 C3238 1.574 . S
C3246 H3241 0.949 . S
C3246 C3252 1.368 . S
C3247 C3231 1.349 . S
C3247 H3239 0.950 . S
C3247 C3245 1.327 . S
C3248 C3236 1.349 . S
C3248 H3242 0.950 . S
C3248 C3249 1.327 . S
C3249 H3243 0.950 . S
C3249 C3248 1.327 . S
C3249 C3253 1.429 . S
C3250 C3233 1.574 . S
C3250 H3244 0.949 . S
C3250 C3254 1.368 . S
C3251 C3232 1.429 . S
C3251 C3245 1.429 . S
C3251 C3252 1.523 . S
C3252 C3233 1.368 . S
C3252 C3246 1.368 . S
C3252 C3251 1.523 . S
C3253 C3237 1.429 . S
C3253 C3249 1.429 . S
C3253 C3254 1.523 . S
C3254 C3238 1.368 . S
C3254 C3250 1.368 . S
C3254 C3253 1.523 . S
H3255 C3230 0.950 . S
H3256 C3232 0.950 . S
H3257 C3233 0.949 . S
H3258 C3235 0.950 . S
H3259 C3237 0.950 . S
C3260 C3261 1.349 . S
C3260 C3262 1.327 . S
C3260 H3285 0.950 . S
C3261 C3260 1.349 . S
C3261 C3277 1.349 . S
C3262 C3260 1.327 . S
C3262 C3281 1.429 . S
C3262 H3286 0.950 . S
C3263 C3280 1.574 . S
C3263 C3282 1.368 . S
C3263 H3287 0.949 . S
H3264 C3268 0.949 . S
C3265 C3266 1.349 . S
C3265 C3267 1.327 . S
C3265 H3288 0.950 . S
C3266 C3265 1.349 . S
C3266 C3278 1.349 . S
C3267 C3265 1.327 . S
C3267 C3283 1.429 . S
C3267 H3289 0.950 . S
C3268 H3264 0.949 . S
C3268 C3276 1.574 . S
C3268 C3284 1.368 . S
H3269 C3277 0.950 . S
H3270 C3275 0.950 . S
H3271 C3276 0.949 . S
H3272 C3278 0.950 . S
H3273 C3279 0.950 . S
H3274 C3280 0.949 . S
C3275 H3270 0.950 . S
C3275 C3277 1.327 . S
C3275 C3281 1.429 . S
C3276 C3268 1.574 . S
C3276 H3271 0.949 . S
C3276 C3282 1.368 . S
C3277 C3261 1.349 . S
C3277 H3269 0.950 . S
C3277 C3275 1.327 . S
C3278 C3266 1.349 . S
C3278 H3272 0.950 . S
C3278 C3279 1.327 . S
C3279 H3273 0.950 . S
C3279 C3278 1.327 . S
C3279 C3283 1.429 . S
C3280 C3263 1.574 . S
C3280 H3274 0.949 . S
C3280 C3284 1.368 . S
C3281 C3262 1.429 . S
C3281 C3275 1.429 . S
C3281 C3282 1.523 . S
C3282 C3263 1.368 . S
C3282 C3276 1.368 . S
C3282 C3281 1.523 . S
C3283 C3267 1.429 . S
C3283 C3279 1.429 . S
C3283 C3284 1.523 . S
C3284 C3268 1.368 . S
C3284 C3280 1.368 . S
C3284 C3283 1.523 . S
H3285 C3260 0.950 . S
H3286 C3262 0.950 . S
H3287 C3263 0.949 . S
H3288 C3265 0.950 . S
H3289 C3267 0.950 . S
C3290 C3291 1.349 . S
C3290 C3292 1.327 . S
C3290 H3315 0.950 . S
C3291 C3290 1.349 . S
C3291 C3307 1.349 . S
C3292 C3290 1.327 . S
C3292 C3311 1.429 . S
C3292 H3316 0.950 . S
C3293 C3310 1.574 . S
C3293 C3312 1.368 . S
C3293 H3317 0.949 . S
H3294 C3298 0.949 . S
C3295 C3296 1.349 . S
C3295 C3297 1.327 . S
C3295 H3318 0.950 . S
C3296 C3295 1.349 . S
C3296 C3308 1.349 . S
C3297 C3295 1.327 . S
C3297 C3313 1.429 . S
C3297 H3319 0.950 . S
C3298 H3294 0.949 . S
C3298 C3306 1.574 . S
C3298 C3314 1.368 . S
H3299 C3307 0.950 . S
H3300 C3305 0.950 . S
H3301 C3306 0.949 . S
H3302 C3308 0.950 . S
H3303 C3309 0.950 . S
H3304 C3310 0.949 . S
C3305 H3300 0.950 . S
C3305 C3307 1.327 . S
C3305 C3311 1.429 . S
C3306 C3298 1.574 . S
C3306 H3301 0.949 . S
C3306 C3312 1.368 . S
C3307 C3291 1.349 . S
C3307 H3299 0.950 . S
C3307 C3305 1.327 . S
C3308 C3296 1.349 . S
C3308 H3302 0.950 . S
C3308 C3309 1.327 . S
C3309 H3303 0.950 . S
C3309 C3308 1.327 . S
C3309 C3313 1.429 . S
C3310 C3293 1.574 . S
C3310 H3304 0.949 . S
C3310 C3314 1.368 . S
C3311 C3292 1.429 . S
C3311 C3305 1.429 . S
C3311 C3312 1.523 . S
C3312 C3293 1.368 . S
C3312 C3306 1.368 . S
C3312 C3311 1.523 . S
C3313 C3297 1.429 . S
C3313 C3309 1.429 . S
C3313 C3314 1.523 . S
C3314 C3298 1.368 . S
C3314 C3310 1.368 . S
C3314 C3313 1.523 . S
H3315 C3290 0.950 . S
H3316 C3292 0.950 . S
H3317 C3293 0.949 . S
H3318 C3295 0.950 . S
H3319 C3297 0.950 . S
C3320 C3321 1.349 . S
C3320 C3322 1.327 . S
C3320 H3345 0.950 . S
C3321 C3320 1.349 . S
C3321 C3337 1.349 . S
C3322 C3320 1.327 . S
C3322 C3341 1.429 . S
C3322 H3346 0.950 . S
C3323 C3340 1.574 . S
C3323 C3342 1.368 . S
C3323 H3347 0.949 . S
H3324 C3328 0.949 . S
C3325 C3326 1.349 . S
C3325 C3327 1.327 . S
C3325 H3348 0.950 . S
C3326 C3325 1.349 . S
C3326 C3338 1.349 . S
C3327 C3325 1.327 . S
C3327 C3343 1.429 . S
C3327 H3349 0.950 . S
C3328 H3324 0.949 . S
C3328 C3336 1.574 . S
C3328 C3344 1.368 . S
H3329 C3337 0.950 . S
H3330 C3335 0.950 . S
H3331 C3336 0.949 . S
H3332 C3338 0.950 . S
H3333 C3339 0.950 . S
H3334 C3340 0.949 . S
C3335 H3330 0.950 . S
C3335 C3337 1.327 . S
C3335 C3341 1.429 . S
C3336 C3328 1.574 . S
C3336 H3331 0.949 . S
C3336 C3342 1.368 . S
C3337 C3321 1.349 . S
C3337 H3329 0.950 . S
C3337 C3335 1.327 . S
C3338 C3326 1.349 . S
C3338 H3332 0.950 . S
C3338 C3339 1.327 . S
C3339 H3333 0.950 . S
C3339 C3338 1.327 . S
C3339 C3343 1.429 . S
C3340 C3323 1.574 . S
C3340 H3334 0.949 . S
C3340 C3344 1.368 . S
C3341 C3322 1.429 . S
C3341 C3335 1.429 . S
C3341 C3342 1.523 . S
C3342 C3323 1.368 . S
C3342 C3336 1.368 . S
C3342 C3341 1.523 . S
C3343 C3327 1.429 . S
C3343 C3339 1.429 . S
C3343 C3344 1.523 . S
C3344 C3328 1.368 . S
C3344 C3340 1.368 . S
C3344 C3343 1.523 . S
H3345 C3320 0.950 . S
H3346 C3322 0.950 . S
H3347 C3323 0.949 . S
H3348 C3325 0.950 . S
H3349 C3327 0.950 . S
C3350 C3351 1.349 . S
C3350 C3352 1.327 . S
C3350 H3375 0.950 . S
C3351 C3350 1.349 . S
C3351 C3367 1.349 . S
C3352 C3350 1.327 . S
C3352 C3371 1.429 . S
C3352 H3376 0.950 . S
C3353 C3370 1.574 . S
C3353 C3372 1.368 . S
C3353 H3377 0.949 . S
H3354 C3358 0.949 . S
C3355 C3356 1.349 . S
C3355 C3357 1.327 . S
C3355 H3378 0.950 . S
C3356 C3355 1.349 . S
C3356 C3368 1.349 . S
C3357 C3355 1.327 . S
C3357 C3373 1.429 . S
C3357 H3379 0.950 . S
C3358 H3354 0.949 . S
C3358 C3366 1.574 . S
C3358 C3374 1.368 . S
H3359 C3367 0.950 . S
H3360 C3365 0.950 . S
H3361 C3366 0.949 . S
H3362 C3368 0.950 . S
H3363 C3369 0.950 . S
H3364 C3370 0.949 . S
C3365 H3360 0.950 . S
C3365 C3367 1.327 . S
C3365 C3371 1.429 . S
C3366 C3358 1.574 . S
C3366 H3361 0.949 . S
C3366 C3372 1.368 . S
C3367 C3351 1.349 . S
C3367 H3359 0.950 . S
C3367 C3365 1.327 . S
C3368 C3356 1.349 . S
C3368 H3362 0.950 . S
C3368 C3369 1.327 . S
C3369 H3363 0.950 . S
C3369 C3368 1.327 . S
C3369 C3373 1.429 . S
C3370 C3353 1.574 . S
C3370 H3364 0.949 . S
C3370 C3374 1.368 . S
C3371 C3352 1.429 . S
C3371 C3365 1.429 . S
C3371 C3372 1.523 . S
C3372 C3353 1.368 . S
C3372 C3366 1.368 . S
C3372 C3371 1.523 . S
C3373 C3357 1.429 . S
C3373 C3369 1.429 . S
C3373 C3374 1.523 . S
C3374 C3358 1.368 . S
C3374 C3370 1.368 . S
C3374 C3373 1.523 . S
H3375 C3350 0.950 . S
H3376 C3352 0.950 . S
H3377 C3353 0.949 . S
H3378 C3355 0.950 . S
H3379 C3357 0.950 . S
C3380 C3381 1.349 . S
C3380 C3382 1.327 . S
C3380 H3405 0.950 . S
C3381 C3380 1.349 . S
C3381 C3397 1.349 . S
C3382 C3380 1.327 . S
C3382 C3401 1.429 . S
C3382 H3406 0.950 . S
C3383 C3400 1.574 . S
C3383 C3402 1.368 . S
C3383 H3407 0.949 . S
H3384 C3388 0.949 . S
C3385 C3386 1.349 . S
C3385 C3387 1.327 . S
C3385 H3408 0.950 . S
C3386 C3385 1.349 . S
C3386 C3398 1.349 . S
C3387 C3385 1.327 . S
C3387 C3403 1.429 . S
C3387 H3409 0.950 . S
C3388 H3384 0.949 . S
C3388 C3396 1.574 . S
C3388 C3404 1.368 . S
H3389 C3397 0.950 . S
H3390 C3395 0.950 . S
H3391 C3396 0.949 . S
H3392 C3398 0.950 . S
H3393 C3399 0.950 . S
H3394 C3400 0.949 . S
C3395 H3390 0.950 . S
C3395 C3397 1.327 . S
C3395 C3401 1.429 . S
C3396 C3388 1.574 . S
C3396 H3391 0.949 . S
C3396 C3402 1.368 . S
C3397 C3381 1.349 . S
C3397 H3389 0.950 . S
C3397 C3395 1.327 . S
C3398 C3386 1.349 . S
C3398 H3392 0.950 . S
C3398 C3399 1.327 . S
C3399 H3393 0.950 . S
C3399 C3398 1.327 . S
C3399 C3403 1.429 . S
C3400 C3383 1.574 . S
C3400 H3394 0.949 . S
C3400 C3404 1.368 . S
C3401 C3382 1.429 . S
C3401 C3395 1.429 . S
C3401 C3402 1.523 . S
C3402 C3383 1.368 . S
C3402 C3396 1.368 . S
C3402 C3401 1.523 . S
C3403 C3387 1.429 . S
C3403 C3399 1.429 . S
C3403 C3404 1.523 . S
C3404 C3388 1.368 . S
C3404 C3400 1.368 . S
C3404 C3403 1.523 . S
H3405 C3380 0.950 . S
H3406 C3382 0.950 . S
H3407 C3383 0.949 . S
H3408 C3385 0.950 . S
H3409 C3387 0.950 . S
C3410 C3411 1.349 . S
C3410 C3412 1.327 . S
C3410 H3435 0.950 . S
C3411 C3410 1.349 . S
C3411 C3427 1.349 . S
C3412 C3410 1.327 . S
C3412 C3431 1.429 . S
C3412 H3436 0.950 . S
C3413 C3430 1.574 . S
C3413 C3432 1.368 . S
C3413 H3437 0.949 . S
H3414 C3418 0.949 . S
C3415 C3416 1.349 . S
C3415 C3417 1.327 . S
C3415 H3438 0.950 . S
C3416 C3415 1.349 . S
C3416 C3428 1.349 . S
C3417 C3415 1.327 . S
C3417 C3433 1.429 . S
C3417 H3439 0.950 . S
C3418 H3414 0.949 . S
C3418 C3426 1.574 . S
C3418 C3434 1.368 . S
H3419 C3427 0.950 . S
H3420 C3425 0.950 . S
H3421 C3426 0.949 . S
H3422 C3428 0.950 . S
H3423 C3429 0.950 . S
H3424 C3430 0.949 . S
C3425 H3420 0.950 . S
C3425 C3427 1.327 . S
C3425 C3431 1.429 . S
C3426 C3418 1.574 . S
C3426 H3421 0.949 . S
C3426 C3432 1.368 . S
C3427 C3411 1.349 . S
C3427 H3419 0.950 . S
C3427 C3425 1.327 . S
C3428 C3416 1.349 . S
C3428 H3422 0.950 . S
C3428 C3429 1.327 . S
C3429 H3423 0.950 . S
C3429 C3428 1.327 . S
C3429 C3433 1.429 . S
C3430 C3413 1.574 . S
C3430 H3424 0.949 . S
C3430 C3434 1.368 . S
C3431 C3412 1.429 . S
C3431 C3425 1.429 . S
C3431 C3432 1.523 . S
C3432 C3413 1.368 . S
C3432 C3426 1.368 . S
C3432 C3431 1.523 . S
C3433 C3417 1.429 . S
C3433 C3429 1.429 . S
C3433 C3434 1.523 . S
C3434 C3418 1.368 . S
C3434 C3430 1.368 . S
C3434 C3433 1.523 . S
H3435 C3410 0.950 . S
H3436 C3412 0.950 . S
H3437 C3413 0.949 . S
H3438 C3415 0.950 . S
H3439 C3417 0.950 . S
C3440 C3441 1.349 . S
C3440 C3442 1.327 . S
C3440 H3465 0.950 . S
C3441 C3440 1.349 . S
C3441 C3457 1.349 . S
C3442 C3440 1.327 . S
C3442 C3461 1.429 . S
C3442 H3466 0.950 . S
C3443 C3460 1.574 . S
C3443 C3462 1.368 . S
C3443 H3467 0.949 . S
H3444 C3448 0.949 . S
C3445 C3446 1.349 . S
C3445 C3447 1.327 . S
C3445 H3468 0.950 . S
C3446 C3445 1.349 . S
C3446 C3458 1.349 . S
C3447 C3445 1.327 . S
C3447 C3463 1.429 . S
C3447 H3469 0.950 . S
C3448 H3444 0.949 . S
C3448 C3456 1.574 . S
C3448 C3464 1.368 . S
H3449 C3457 0.950 . S
H3450 C3455 0.950 . S
H3451 C3456 0.949 . S
H3452 C3458 0.950 . S
H3453 C3459 0.950 . S
H3454 C3460 0.949 . S
C3455 H3450 0.950 . S
C3455 C3457 1.327 . S
C3455 C3461 1.429 . S
C3456 C3448 1.574 . S
C3456 H3451 0.949 . S
C3456 C3462 1.368 . S
C3457 C3441 1.349 . S
C3457 H3449 0.950 . S
C3457 C3455 1.327 . S
C3458 C3446 1.349 . S
C3458 H3452 0.950 . S
C3458 C3459 1.327 . S
C3459 H3453 0.950 . S
C3459 C3458 1.327 . S
C3459 C3463 1.429 . S
C3460 C3443 1.574 . S
C3460 H3454 0.949 . S
C3460 C3464 1.368 . S
C3461 C3442 1.429 . S
C3461 C3455 1.429 . S
C3461 C3462 1.523 . S
C3462 C3443 1.368 . S
C3462 C3456 1.368 . S
C3462 C3461 1.523 . S
C3463 C3447 1.429 . S
C3463 C3459 1.429 . S
C3463 C3464 1.523 . S
C3464 C3448 1.368 . S
C3464 C3460 1.368 . S
C3464 C3463 1.523 . S
H3465 C3440 0.950 . S
H3466 C3442 0.950 . S
H3467 C3443 0.949 . S
H3468 C3445 0.950 . S
H3469 C3447 0.950 . S
C3470 C3471 1.349 . S
C3470 C3472 1.327 . S
C3470 H3495 0.950 . S
C3471 C3470 1.349 . S
C3471 C3487 1.349 . S
C3472 C3470 1.327 . S
C3472 C3491 1.429 . S
C3472 H3496 0.950 . S
C3473 C3490 1.574 . S
C3473 C3492 1.368 . S
C3473 H3497 0.949 . S
H3474 C3478 0.949 . S
C3475 C3476 1.349 . S
C3475 C3477 1.327 . S
C3475 H3498 0.950 . S
C3476 C3475 1.349 . S
C3476 C3488 1.349 . S
C3477 C3475 1.327 . S
C3477 C3493 1.429 . S
C3477 H3499 0.950 . S
C3478 H3474 0.949 . S
C3478 C3486 1.574 . S
C3478 C3494 1.368 . S
H3479 C3487 0.950 . S
H3480 C3485 0.950 . S
H3481 C3486 0.949 . S
H3482 C3488 0.950 . S
H3483 C3489 0.950 . S
H3484 C3490 0.949 . S
C3485 H3480 0.950 . S
C3485 C3487 1.327 . S
C3485 C3491 1.429 . S
C3486 C3478 1.574 . S
C3486 H3481 0.949 . S
C3486 C3492 1.368 . S
C3487 C3471 1.349 . S
C3487 H3479 0.950 . S
C3487 C3485 1.327 . S
C3488 C3476 1.349 . S
C3488 H3482 0.950 . S
C3488 C3489 1.327 . S
C3489 H3483 0.950 . S
C3489 C3488 1.327 . S
C3489 C3493 1.429 . S
C3490 C3473 1.574 . S
C3490 H3484 0.949 . S
C3490 C3494 1.368 . S
C3491 C3472 1.429 . S
C3491 C3485 1.429 . S
C3491 C3492 1.523 . S
C3492 C3473 1.368 . S
C3492 C3486 1.368 . S
C3492 C3491 1.523 . S
C3493 C3477 1.429 . S
C3493 C3489 1.429 . S
C3493 C3494 1.523 . S
C3494 C3478 1.368 . S
C3494 C3490 1.368 . S
C3494 C3493 1.523 . S
H3495 C3470 0.950 . S
H3496 C3472 0.950 . S
H3497 C3473 0.949 . S
H3498 C3475 0.950 . S
H3499 C3477 0.950 . S
C3500 C3501 1.349 . S
C3500 C3502 1.327 . S
C3500 H3525 0.950 . S
C3501 C3500 1.349 . S
C3501 C3517 1.349 . S
C3502 C3500 1.327 . S
C3502 C3521 1.429 . S
C3502 H3526 0.950 . S
C3503 C3520 1.574 . S
C3503 C3522 1.368 . S
C3503 H3527 0.949 . S
H3504 C3508 0.949 . S
C3505 C3506 1.349 . S
C3505 C3507 1.327 . S
C3505 H3528 0.950 . S
C3506 C3505 1.349 . S
C3506 C3518 1.349 . S
C3507 C3505 1.327 . S
C3507 C3523 1.429 . S
C3507 H3529 0.950 . S
C3508 H3504 0.949 . S
C3508 C3516 1.574 . S
C3508 C3524 1.368 . S
H3509 C3517 0.950 . S
H3510 C3515 0.950 . S
H3511 C3516 0.949 . S
H3512 C3518 0.950 . S
H3513 C3519 0.950 . S
H3514 C3520 0.949 . S
C3515 H3510 0.950 . S
C3515 C3517 1.327 . S
C3515 C3521 1.429 . S
C3516 C3508 1.574 . S
C3516 H3511 0.949 . S
C3516 C3522 1.368 . S
C3517 C3501 1.349 . S
C3517 H3509 0.950 . S
C3517 C3515 1.327 . S
C3518 C3506 1.349 . S
C3518 H3512 0.950 . S
C3518 C3519 1.327 . S
C3519 H3513 0.950 . S
C3519 C3518 1.327 . S
C3519 C3523 1.429 . S
C3520 C3503 1.574 . S
C3520 H3514 0.949 . S
C3520 C3524 1.368 . S
C3521 C3502 1.429 . S
C3521 C3515 1.429 . S
C3521 C3522 1.523 . S
C3522 C3503 1.368 . S
C3522 C3516 1.368 . S
C3522 C3521 1.523 . S
C3523 C3507 1.429 . S
C3523 C3519 1.429 . S
C3523 C3524 1.523 . S
C3524 C3508 1.368 . S
C3524 C3520 1.368 . S
C3524 C3523 1.523 . S
H3525 C3500 0.950 . S
H3526 C3502 0.950 . S
H3527 C3503 0.949 . S
H3528 C3505 0.950 . S
H3529 C3507 0.950 . S
C3530 C3531 1.349 . S
C3530 C3532 1.327 . S
C3530 H3555 0.950 . S
C3531 C3530 1.349 . S
C3531 C3547 1.349 . S
C3532 C3530 1.327 . S
C3532 C3551 1.429 . S
C3532 H3556 0.950 . S
C3533 C3550 1.574 . S
C3533 C3552 1.368 . S
C3533 H3557 0.949 . S
H3534 C3538 0.949 . S
C3535 C3536 1.349 . S
C3535 C3537 1.327 . S
C3535 H3558 0.950 . S
C3536 C3535 1.349 . S
C3536 C3548 1.349 . S
C3537 C3535 1.327 . S
C3537 C3553 1.429 . S
C3537 H3559 0.950 . S
C3538 H3534 0.949 . S
C3538 C3546 1.574 . S
C3538 C3554 1.368 . S
H3539 C3547 0.950 . S
H3540 C3545 0.950 . S
H3541 C3546 0.949 . S
H3542 C3548 0.950 . S
H3543 C3549 0.950 . S
H3544 C3550 0.949 . S
C3545 H3540 0.950 . S
C3545 C3547 1.327 . S
C3545 C3551 1.429 . S
C3546 C3538 1.574 . S
C3546 H3541 0.949 . S
C3546 C3552 1.368 . S
C3547 C3531 1.349 . S
C3547 H3539 0.950 . S
C3547 C3545 1.327 . S
C3548 C3536 1.349 . S
C3548 H3542 0.950 . S
C3548 C3549 1.327 . S
C3549 H3543 0.950 . S
C3549 C3548 1.327 . S
C3549 C3553 1.429 . S
C3550 C3533 1.574 . S
C3550 H3544 0.949 . S
C3550 C3554 1.368 . S
C3551 C3532 1.429 . S
C3551 C3545 1.429 . S
C3551 C3552 1.523 . S
C3552 C3533 1.368 . S
C3552 C3546 1.368 . S
C3552 C3551 1.523 . S
C3553 C3537 1.429 . S
C3553 C3549 1.429 . S
C3553 C3554 1.523 . S
C3554 C3538 1.368 . S
C3554 C3550 1.368 . S
C3554 C3553 1.523 . S
H3555 C3530 0.950 . S
H3556 C3532 0.950 . S
H3557 C3533 0.949 . S
H3558 C3535 0.950 . S
H3559 C3537 0.950 . S
C3560 C3561 1.349 . S
C3560 C3562 1.327 . S
C3560 H3585 0.950 . S
C3561 C3560 1.349 . S
C3561 C3577 1.349 . S
C3562 C3560 1.327 . S
C3562 C3581 1.429 . S
C3562 H3586 0.950 . S
C3563 C3580 1.574 . S
C3563 C3582 1.368 . S
C3563 H3587 0.949 . S
H3564 C3568 0.949 . S
C3565 C3566 1.349 . S
C3565 C3567 1.327 . S
C3565 H3588 0.950 . S
C3566 C3565 1.349 . S
C3566 C3578 1.349 . S
C3567 C3565 1.327 . S
C3567 C3583 1.429 . S
C3567 H3589 0.950 . S
C3568 H3564 0.949 . S
C3568 C3576 1.574 . S
C3568 C3584 1.368 . S
H3569 C3577 0.950 . S
H3570 C3575 0.950 . S
H3571 C3576 0.949 . S
H3572 C3578 0.950 . S
H3573 C3579 0.950 . S
H3574 C3580 0.949 . S
C3575 H3570 0.950 . S
C3575 C3577 1.327 . S
C3575 C3581 1.429 . S
C3576 C3568 1.574 . S
C3576 H3571 0.949 . S
C3576 C3582 1.368 . S
C3577 C3561 1.349 . S
C3577 H3569 0.950 . S
C3577 C3575 1.327 . S
C3578 C3566 1.349 . S
C3578 H3572 0.950 . S
C3578 C3579 1.327 . S
C3579 H3573 0.950 . S
C3579 C3578 1.327 . S
C3579 C3583 1.429 . S
C3580 C3563 1.574 . S
C3580 H3574 0.949 . S
C3580 C3584 1.368 . S
C3581 C3562 1.429 . S
C3581 C3575 1.429 . S
C3581 C3582 1.523 . S
C3582 C3563 1.368 . S
C3582 C3576 1.368 . S
C3582 C3581 1.523 . S
C3583 C3567 1.429 . S
C3583 C3579 1.429 . S
C3583 C3584 1.523 . S
C3584 C3568 1.368 . S
C3584 C3580 1.368 . S
C3584 C3583 1.523 . S
H3585 C3560 0.950 . S
H3586 C3562 0.950 . S
H3587 C3563 0.949 . S
H3588 C3565 0.950 . S
H3589 C3567 0.950 . S
C3590 C3591 1.349 . S
C3590 C3592 1.327 . S
C3590 H3615 0.950 . S
C3591 C3590 1.349 . S
C3591 C3607 1.349 . S
C3592 C3590 1.327 . S
C3592 C3611 1.429 . S
C3592 H3616 0.950 . S
C3593 C3610 1.574 . S
C3593 C3612 1.368 . S
C3593 H3617 0.949 . S
H3594 C3598 0.949 . S
C3595 C3596 1.349 . S
C3595 C3597 1.327 . S
C3595 H3618 0.950 . S
C3596 C3595 1.349 . S
C3596 C3608 1.349 . S
C3597 C3595 1.327 . S
C3597 C3613 1.429 . S
C3597 H3619 0.950 . S
C3598 H3594 0.949 . S
C3598 C3606 1.574 . S
C3598 C3614 1.368 . S
H3599 C3607 0.950 . S
H3600 C3605 0.950 . S
H3601 C3606 0.949 . S
H3602 C3608 0.950 . S
H3603 C3609 0.950 . S
H3604 C3610 0.949 . S
C3605 H3600 0.950 . S
C3605 C3607 1.327 . S
C3605 C3611 1.429 . S
C3606 C3598 1.574 . S
C3606 H3601 0.949 . S
C3606 C3612 1.368 . S
C3607 C3591 1.349 . S
C3607 H3599 0.950 . S
C3607 C3605 1.327 . S
C3608 C3596 1.349 . S
C3608 H3602 0.950 . S
C3608 C3609 1.327 . S
C3609 H3603 0.950 . S
C3609 C3608 1.327 . S
C3609 C3613 1.429 . S
C3610 C3593 1.574 . S
C3610 H3604 0.949 . S
C3610 C3614 1.368 . S
C3611 C3592 1.429 . S
C3611 C3605 1.429 . S
C3611 C3612 1.523 . S
C3612 C3593 1.368 . S
C3612 C3606 1.368 . S
C3612 C3611 1.523 . S
C3613 C3597 1.429 . S
C3613 C3609 1.429 . S
C3613 C3614 1.523 . S
C3614 C3598 1.368 . S
C3614 C3610 1.368 . S
C3614 C3613 1.523 . S
H3615 C3590 0.950 . S
H3616 C3592 0.950 . S
H3617 C3593 0.949 . S
H3618 C3595 0.950 . S
H3619 C3597 0.950 . S
C3620 C3621 1.349 . S
C3620 C3622 1.327 . S
C3620 H3645 0.950 . S
C3621 C3620 1.349 . S
C3621 C3637 1.349 . S
C3622 C3620 1.327 . S
C3622 C3641 1.429 . S
C3622 H3646 0.950 . S
C3623 C3640 1.574 . S
C3623 C3642 1.368 . S
C3623 H3647 0.949 . S
H3624 C3628 0.949 . S
C3625 C3626 1.349 . S
C3625 C3627 1.327 . S
C3625 H3648 0.950 . S
C3626 C3625 1.349 . S
C3626 C3638 1.349 . S
C3627 C3625 1.327 . S
C3627 C3643 1.429 . S
C3627 H3649 0.950 . S
C3628 H3624 0.949 . S
C3628 C3636 1.574 . S
C3628 C3644 1.368 . S
H3629 C3637 0.950 . S
H3630 C3635 0.950 . S
H3631 C3636 0.949 . S
H3632 C3638 0.950 . S
H3633 C3639 0.950 . S
H3634 C3640 0.949 . S
C3635 H3630 0.950 . S
C3635 C3637 1.327 . S
C3635 C3641 1.429 . S
C3636 C3628 1.574 . S
C3636 H3631 0.949 . S
C3636 C3642 1.368 . S
C3637 C3621 1.349 . S
C3637 H3629 0.950 . S
C3637 C3635 1.327 . S
C3638 C3626 1.349 . S
C3638 H3632 0.950 . S
C3638 C3639 1.327 . S
C3639 H3633 0.950 . S
C3639 C3638 1.327 . S
C3639 C3643 1.429 . S
C3640 C3623 1.574 . S
C3640 H3634 0.949 . S
C3640 C3644 1.368 . S
C3641 C3622 1.429 . S
C3641 C3635 1.429 . S
C3641 C3642 1.523 . S
C3642 C3623 1.368 . S
C3642 C3636 1.368 . S
C3642 C3641 1.523 . S
C3643 C3627 1.429 . S
C3643 C3639 1.429 . S
C3643 C3644 1.523 . S
C3644 C3628 1.368 . S
C3644 C3640 1.368 . S
C3644 C3643 1.523 . S
H3645 C3620 0.950 . S
H3646 C3622 0.950 . S
H3647 C3623 0.949 . S
H3648 C3625 0.950 . S
H3649 C3627 0.950 . S
C3650 C3651 1.349 . S
C3650 C3652 1.327 . S
C3650 H3675 0.950 . S
C3651 C3650 1.349 . S
C3651 C3667 1.349 . S
C3652 C3650 1.327 . S
C3652 C3671 1.429 . S
C3652 H3676 0.950 . S
C3653 C3670 1.574 . S
C3653 C3672 1.368 . S
C3653 H3677 0.949 . S
H3654 C3658 0.949 . S
C3655 C3656 1.349 . S
C3655 C3657 1.327 . S
C3655 H3678 0.950 . S
C3656 C3655 1.349 . S
C3656 C3668 1.349 . S
C3657 C3655 1.327 . S
C3657 C3673 1.429 . S
C3657 H3679 0.950 . S
C3658 H3654 0.949 . S
C3658 C3666 1.574 . S
C3658 C3674 1.368 . S
H3659 C3667 0.950 . S
H3660 C3665 0.950 . S
H3661 C3666 0.949 . S
H3662 C3668 0.950 . S
H3663 C3669 0.950 . S
H3664 C3670 0.949 . S
C3665 H3660 0.950 . S
C3665 C3667 1.327 . S
C3665 C3671 1.429 . S
C3666 C3658 1.574 . S
C3666 H3661 0.949 . S
C3666 C3672 1.368 . S
C3667 C3651 1.349 . S
C3667 H3659 0.950 . S
C3667 C3665 1.327 . S
C3668 C3656 1.349 . S
C3668 H3662 0.950 . S
C3668 C3669 1.327 . S
C3669 H3663 0.950 . S
C3669 C3668 1.327 . S
C3669 C3673 1.429 . S
C3670 C3653 1.574 . S
C3670 H3664 0.949 . S
C3670 C3674 1.368 . S
C3671 C3652 1.429 . S
C3671 C3665 1.429 . S
C3671 C3672 1.523 . S
C3672 C3653 1.368 . S
C3672 C3666 1.368 . S
C3672 C3671 1.523 . S
C3673 C3657 1.429 . S
C3673 C3669 1.429 . S
C3673 C3674 1.523 . S
C3674 C3658 1.368 . S
C3674 C3670 1.368 . S
C3674 C3673 1.523 . S
H3675 C3650 0.950 . S
H3676 C3652 0.950 . S
H3677 C3653 0.949 . S
H3678 C3655 0.950 . S
H3679 C3657 0.950 . S
C3680 C3681 1.349 . S
C3680 C3682 1.327 . S
C3680 H3705 0.950 . S
C3681 C3680 1.349 . S
C3681 C3697 1.349 . S
C3682 C3680 1.327 . S
C3682 C3701 1.429 . S
C3682 H3706 0.950 . S
C3683 C3700 1.551 1_545 S
C3683 C3702 1.368 . S
C3683 H3707 0.949 . S
H3684 C3688 0.949 . S
C3685 C3686 1.349 . S
C3685 C3687 1.327 . S
C3685 H3708 0.950 . S
C3686 C3685 1.349 . S
C3686 C3698 1.349 . S
C3687 C3685 1.327 . S
C3687 C3703 1.429 . S
C3687 H3709 0.950 . S
C3688 H3684 0.949 . S
C3688 C3696 1.551 1_565 S
C3688 C3704 1.368 . S
H3689 C3697 0.950 . S
H3690 C3695 0.950 . S
H3691 C3696 0.951 . S
H3692 C3698 0.950 . S
H3693 C3699 0.950 . S
H3694 C3700 0.951 . S
C3695 H3690 0.950 . S
C3695 C3697 1.327 . S
C3695 C3701 1.429 . S
C3696 C3688 1.551 1_545 S
C3696 H3691 0.951 . S
C3696 C3702 1.389 . S
C3697 C3681 1.349 . S
C3697 H3689 0.950 . S
C3697 C3695 1.327 . S
C3698 C3686 1.349 . S
C3698 H3692 0.950 . S
C3698 C3699 1.327 . S
C3699 H3693 0.950 . S
C3699 C3698 1.327 . S
C3699 C3703 1.429 . S
C3700 C3683 1.551 1_565 S
C3700 H3694 0.951 . S
C3700 C3704 1.389 . S
C3701 C3682 1.429 . S
C3701 C3695 1.429 . S
C3701 C3702 1.523 . S
C3702 C3683 1.368 . S
C3702 C3696 1.389 . S
C3702 C3701 1.523 . S
C3703 C3687 1.429 . S
C3703 C3699 1.429 . S
C3703 C3704 1.523 . S
C3704 C3688 1.368 . S
C3704 C3700 1.389 . S
C3704 C3703 1.523 . S
H3705 C3680 0.950 . S
H3706 C3682 0.950 . S
H3707 C3683 0.949 . S
H3708 C3685 0.950 . S
H3709 C3687 0.950 . S
C3710 C3711 1.349 . S
C3710 C3712 1.327 . S
C3710 H3735 0.950 . S
C3711 C3710 1.349 . S
C3711 C3727 1.349 . S
C3712 C3710 1.327 . S
C3712 C3731 1.429 . S
C3712 H3736 0.950 . S
C3713 C3730 1.574 . S
C3713 C3732 1.368 . S
C3713 H3737 0.949 . S
H3714 C3718 0.949 . S
C3715 C3716 1.349 . S
C3715 C3717 1.327 . S
C3715 H3738 0.950 . S
C3716 C3715 1.349 . S
C3716 C3728 1.349 . S
C3717 C3715 1.327 . S
C3717 C3733 1.429 . S
C3717 H3739 0.950 . S
C3718 H3714 0.949 . S
C3718 C3726 1.574 . S
C3718 C3734 1.368 . S
H3719 C3727 0.950 . S
H3720 C3725 0.950 . S
H3721 C3726 0.949 . S
H3722 C3728 0.950 . S
H3723 C3729 0.950 . S
H3724 C3730 0.949 . S
C3725 H3720 0.950 . S
C3725 C3727 1.327 . S
C3725 C3731 1.429 . S
C3726 C3718 1.574 . S
C3726 H3721 0.949 . S
C3726 C3732 1.368 . S
C3727 C3711 1.349 . S
C3727 H3719 0.950 . S
C3727 C3725 1.327 . S
C3728 C3716 1.349 . S
C3728 H3722 0.950 . S
C3728 C3729 1.327 . S
C3729 H3723 0.950 . S
C3729 C3728 1.327 . S
C3729 C3733 1.429 . S
C3730 C3713 1.574 . S
C3730 H3724 0.949 . S
C3730 C3734 1.368 . S
C3731 C3712 1.429 . S
C3731 C3725 1.429 . S
C3731 C3732 1.523 . S
C3732 C3713 1.368 . S
C3732 C3726 1.368 . S
C3732 C3731 1.523 . S
C3733 C3717 1.429 . S
C3733 C3729 1.429 . S
C3733 C3734 1.523 . S
C3734 C3718 1.368 . S
C3734 C3730 1.368 . S
C3734 C3733 1.523 . S
H3735 C3710 0.950 . S
H3736 C3712 0.950 . S
H3737 C3713 0.949 . S
H3738 C3715 0.950 . S
H3739 C3717 0.950 . S
C3740 C3741 1.349 . S
C3740 C3742 1.327 . S
C3740 H3765 0.950 . S
C3741 C3740 1.349 . S
C3741 C3757 1.349 . S
C3742 C3740 1.327 . S
C3742 C3761 1.429 . S
C3742 H3766 0.950 . S
C3743 C3760 1.574 1_545 S
C3743 C3762 1.368 . S
C3743 H3767 0.949 . S
H3744 C3748 0.949 . S
C3745 C3746 1.349 . S
C3745 C3747 1.327 . S
C3745 H3768 0.950 . S
C3746 C3745 1.349 . S
C3746 C3758 1.349 . S
C3747 C3745 1.327 . S
C3747 C3763 1.429 . S
C3747 H3769 0.950 . S
C3748 H3744 0.949 . S
C3748 C3756 1.574 1_565 S
C3748 C3764 1.368 . S
H3749 C3757 0.950 . S
H3750 C3755 0.950 . S
H3751 C3756 0.949 . S
H3752 C3758 0.950 . S
H3753 C3759 0.950 . S
H3754 C3760 0.949 . S
C3755 H3750 0.950 . S
C3755 C3757 1.327 . S
C3755 C3761 1.429 . S
C3756 C3748 1.574 1_545 S
C3756 H3751 0.949 . S
C3756 C3762 1.368 . S
C3757 C3741 1.349 . S
C3757 H3749 0.950 . S
C3757 C3755 1.327 . S
C3758 C3746 1.349 . S
C3758 H3752 0.950 . S
C3758 C3759 1.327 . S
C3759 H3753 0.950 . S
C3759 C3758 1.327 . S
C3759 C3763 1.429 . S
C3760 C3743 1.574 1_565 S
C3760 H3754 0.949 . S
C3760 C3764 1.368 . S
C3761 C3742 1.429 . S
C3761 C3755 1.429 . S
C3761 C3762 1.523 . S
C3762 C3743 1.368 . S
C3762 C3756 1.368 . S
C3762 C3761 1.523 . S
C3763 C3747 1.429 . S
C3763 C3759 1.429 . S
C3763 C3764 1.523 . S
C3764 C3748 1.368 . S
C3764 C3760 1.368 . S
C3764 C3763 1.523 . S
H3765 C3740 0.950 . S
H3766 C3742 0.950 . S
H3767 C3743 0.949 . S
H3768 C3745 0.950 . S
H3769 C3747 0.950 . S
C3770 C3771 1.349 . S
C3770 C3772 1.327 . S
C3770 H3795 0.950 . S
C3771 C3770 1.349 . S
C3771 C3787 1.349 . S
C3772 C3770 1.327 . S
C3772 C3791 1.429 . S
C3772 H3796 0.950 . S
C3773 C3790 1.646 . S
C3773 C3792 1.293 1_554 S
C3773 H3797 0.965 . S
H3774 C3778 0.965 . S
C3775 C3776 1.349 . S
C3775 C3777 1.327 . S
C3775 H3798 0.950 . S
C3776 C3775 1.349 . S
C3776 C3788 1.349 . S
C3777 C3775 1.327 . S
C3777 C3793 1.429 . S
C3777 H3799 0.950 . S
C3778 H3774 0.965 . S
C3778 C3786 1.646 . S
C3778 C3794 1.293 1_556 S
H3779 C3787 0.950 . S
H3780 C3785 0.950 . S
H3781 C3786 0.949 . S
H3782 C3788 0.950 . S
H3783 C3789 0.950 . S
H3784 C3790 0.949 . S
C3785 H3780 0.950 . S
C3785 C3787 1.327 . S
C3785 C3791 1.429 . S
C3786 C3778 1.646 . S
C3786 H3781 0.949 . S
C3786 C3792 1.368 . S
C3787 C3771 1.349 . S
C3787 H3779 0.950 . S
C3787 C3785 1.327 . S
C3788 C3776 1.349 . S
C3788 H3782 0.950 . S
C3788 C3789 1.327 . S
C3789 H3783 0.950 . S
C3789 C3788 1.327 . S
C3789 C3793 1.429 . S
C3790 C3773 1.646 . S
C3790 H3784 0.949 . S
C3790 C3794 1.368 . S
C3791 C3772 1.429 . S
C3791 C3785 1.429 . S
C3791 C3792 1.523 . S
C3792 C3773 1.293 1_556 S
C3792 C3786 1.368 . S
C3792 C3791 1.523 . S
C3793 C3777 1.429 . S
C3793 C3789 1.429 . S
C3793 C3794 1.523 . S
C3794 C3778 1.293 1_554 S
C3794 C3790 1.368 . S
C3794 C3793 1.523 . S
H3795 C3770 0.950 . S
H3796 C3772 0.950 . S
H3797 C3773 0.965 . S
H3798 C3775 0.950 . S
H3799 C3777 0.950 . S
C3800 C3801 1.349 . S
C3800 C3802 1.327 . S
C3800 H3825 0.950 . S
C3801 C3800 1.349 . S
C3801 C3817 1.349 . S
C3802 C3800 1.327 . S
C3802 C3821 1.429 . S
C3802 H3826 0.950 . S
C3803 C3820 1.574 1_565 S
C3803 C3822 1.368 . S
C3803 H3827 0.949 . S
H3804 C3808 0.949 . S
C3805 C3806 1.349 . S
C3805 C3807 1.327 . S
C3805 H3828 0.950 . S
C3806 C3805 1.349 . S
C3806 C3818 1.349 . S
C3807 C3805 1.327 . S
C3807 C3823 1.429 . S
C3807 H3829 0.950 . S
C3808 H3804 0.949 . S
C3808 C3816 1.574 1_545 S
C3808 C3824 1.368 . S
H3809 C3817 0.950 . S
H3810 C3815 0.950 . S
H3811 C3816 0.949 . S
H3812 C3818 0.950 . S
H3813 C3819 0.950 . S
H3814 C3820 0.949 . S
C3815 H3810 0.950 . S
C3815 C3817 1.327 . S
C3815 C3821 1.429 . S
C3816 C3808 1.574 1_565 S
C3816 H3811 0.949 . S
C3816 C3822 1.368 . S
C3817 C3801 1.349 . S
C3817 H3809 0.950 . S
C3817 C3815 1.327 . S
C3818 C3806 1.349 . S
C3818 H3812 0.950 . S
C3818 C3819 1.327 . S
C3819 H3813 0.950 . S
C3819 C3818 1.327 . S
C3819 C3823 1.429 . S
C3820 C3803 1.574 1_545 S
C3820 H3814 0.949 . S
C3820 C3824 1.368 . S
C3821 C3802 1.429 . S
C3821 C3815 1.429 . S
C3821 C3822 1.523 . S
C3822 C3803 1.368 . S
C3822 C3816 1.368 . S
C3822 C3821 1.523 . S
C3823 C3807 1.429 . S
C3823 C3819 1.429 . S
C3823 C3824 1.523 . S
C3824 C3808 1.368 . S
C3824 C3820 1.368 . S
C3824 C3823 1.523 . S
H3825 C3800 0.950 . S
H3826 C3802 0.950 . S
H3827 C3803 0.949 . S
H3828 C3805 0.950 . S
H3829 C3807 0.950 . S
C3830 C3831 1.349 . S
C3830 C3832 1.327 . S
C3830 H3855 0.950 . S
C3831 C3830 1.349 . S
C3831 C3847 1.349 . S
C3832 C3830 1.327 . S
C3832 C3851 1.429 . S
C3832 H3856 0.950 . S
C3833 C3850 1.574 . S
C3833 C3852 1.368 . S
C3833 H3857 0.949 . S
H3834 C3838 0.949 . S
C3835 C3836 1.349 . S
C3835 C3837 1.327 . S
C3835 H3858 0.950 . S
C3836 C3835 1.349 . S
C3836 C3848 1.349 . S
C3837 C3835 1.327 . S
C3837 C3853 1.429 . S
C3837 H3859 0.950 . S
C3838 H3834 0.949 . S
C3838 C3846 1.574 . S
C3838 C3854 1.368 . S
H3839 C3847 0.950 . S
H3840 C3845 0.950 . S
H3841 C3846 0.949 . S
H3842 C3848 0.950 . S
H3843 C3849 0.950 . S
H3844 C3850 0.949 . S
C3845 H3840 0.950 . S
C3845 C3847 1.327 . S
C3845 C3851 1.429 . S
C3846 C3838 1.574 . S
C3846 H3841 0.949 . S
C3846 C3852 1.368 . S
C3847 C3831 1.349 . S
C3847 H3839 0.950 . S
C3847 C3845 1.327 . S
C3848 C3836 1.349 . S
C3848 H3842 0.950 . S
C3848 C3849 1.327 . S
C3849 H3843 0.950 . S
C3849 C3848 1.327 . S
C3849 C3853 1.429 . S
C3850 C3833 1.574 . S
C3850 H3844 0.949 . S
C3850 C3854 1.368 . S
C3851 C3832 1.429 . S
C3851 C3845 1.429 . S
C3851 C3852 1.523 . S
C3852 C3833 1.368 . S
C3852 C3846 1.368 . S
C3852 C3851 1.523 . S
C3853 C3837 1.429 . S
C3853 C3849 1.429 . S
C3853 C3854 1.523 . S
C3854 C3838 1.368 . S
C3854 C3850 1.368 . S
C3854 C3853 1.523 . S
H3855 C3830 0.950 . S
H3856 C3832 0.950 . S
H3857 C3833 0.949 . S
H3858 C3835 0.950 . S
H3859 C3837 0.950 . S
C3860 C3861 1.349 . S
C3860 C3862 1.327 . S
C3860 H3885 0.950 . S
C3861 C3860 1.349 . S
C3861 C3877 1.349 . S
C3862 C3860 1.327 . S
C3862 C3881 1.429 . S
C3862 H3886 0.950 . S
C3863 C3880 1.574 1_565 S
C3863 C3882 1.368 . S
C3863 H3887 0.949 . S
H3864 C3868 0.949 . S
C3865 C3866 1.349 . S
C3865 C3867 1.327 . S
C3865 H3888 0.950 . S
C3866 C3865 1.349 . S
C3866 C3878 1.349 . S
C3867 C3865 1.327 . S
C3867 C3883 1.429 . S
C3867 H3889 0.950 . S
C3868 H3864 0.949 . S
C3868 C3876 1.574 1_545 S
C3868 C3884 1.368 . S
H3869 C3877 0.950 . S
H3870 C3875 0.950 . S
H3871 C3876 0.949 . S
H3872 C3878 0.950 . S
H3873 C3879 0.950 . S
H3874 C3880 0.949 . S
C3875 H3870 0.950 . S
C3875 C3877 1.327 . S
C3875 C3881 1.429 . S
C3876 C3868 1.574 1_565 S
C3876 H3871 0.949 . S
C3876 C3882 1.368 . S
C3877 C3861 1.349 . S
C3877 H3869 0.950 . S
C3877 C3875 1.327 . S
C3878 C3866 1.349 . S
C3878 H3872 0.950 . S
C3878 C3879 1.327 . S
C3879 H3873 0.950 . S
C3879 C3878 1.327 . S
C3879 C3883 1.429 . S
C3880 C3863 1.574 1_545 S
C3880 H3874 0.949 . S
C3880 C3884 1.368 . S
C3881 C3862 1.429 . S
C3881 C3875 1.429 . S
C3881 C3882 1.523 . S
C3882 C3863 1.368 . S
C3882 C3876 1.368 . S
C3882 C3881 1.523 . S
C3883 C3867 1.429 . S
C3883 C3879 1.429 . S
C3883 C3884 1.523 . S
C3884 C3868 1.368 . S
C3884 C3880 1.368 . S
C3884 C3883 1.523 . S
H3885 C3860 0.950 . S
H3886 C3862 0.950 . S
H3887 C3863 0.949 . S
H3888 C3865 0.950 . S
H3889 C3867 0.950 . S
C3890 C3891 1.349 . S
C3890 C3892 1.327 . S
C3890 H3915 0.950 . S
C3891 C3890 1.349 . S
C3891 C3907 1.349 . S
C3892 C3890 1.327 . S
C3892 C3911 1.429 . S
C3892 H3916 0.950 . S
C3893 C3910 1.646 . S
C3893 C3912 1.368 . S
C3893 H3917 0.949 . S
H3894 C3898 0.949 . S
C3895 C3896 1.349 . S
C3895 C3897 1.327 . S
C3895 H3918 0.950 . S
C3896 C3895 1.349 . S
C3896 C3908 1.349 . S
C3897 C3895 1.327 . S
C3897 C3913 1.429 . S
C3897 H3919 0.950 . S
C3898 H3894 0.949 . S
C3898 C3906 1.646 . S
C3898 C3914 1.368 . S
H3899 C3907 0.950 . S
H3900 C3905 0.950 . S
H3901 C3906 0.965 . S
H3902 C3908 0.950 . S
H3903 C3909 0.950 . S
H3904 C3910 0.965 . S
C3905 H3900 0.950 . S
C3905 C3907 1.327 . S
C3905 C3911 1.429 . S
C3906 C3898 1.646 . S
C3906 H3901 0.965 . S
C3906 C3912 1.293 1_556 S
C3907 C3891 1.349 . S
C3907 H3899 0.950 . S
C3907 C3905 1.327 . S
C3908 C3896 1.349 . S
C3908 H3902 0.950 . S
C3908 C3909 1.327 . S
C3909 H3903 0.950 . S
C3909 C3908 1.327 . S
C3909 C3913 1.429 . S
C3910 C3893 1.646 . S
C3910 H3904 0.965 . S
C3910 C3914 1.293 1_554 S
C3911 C3892 1.429 . S
C3911 C3905 1.429 . S
C3911 C3912 1.523 . S
C3912 C3893 1.368 . S
C3912 C3906 1.293 1_554 S
C3912 C3911 1.523 . S
C3913 C3897 1.429 . S
C3913 C3909 1.429 . S
C3913 C3914 1.523 . S
C3914 C3898 1.368 . S
C3914 C3910 1.293 1_556 S
C3914 C3913 1.523 . S
H3915 C3890 0.950 . S
H3916 C3892 0.950 . S
H3917 C3893 0.949 . S
H3918 C3895 0.950 . S
H3919 C3897 0.950 . S
C3920 C3921 1.349 . S
C3920 C3922 1.327 . S
C3920 H3945 0.950 . S
C3921 C3920 1.349 . S
C3921 C3937 1.349 . S
C3922 C3920 1.327 . S
C3922 C3941 1.429 . S
C3922 H3946 0.950 . S
C3923 C3940 1.574 . S
C3923 C3942 1.368 . S
C3923 H3947 0.949 . S
H3924 C3928 0.949 . S
C3925 C3926 1.349 . S
C3925 C3927 1.327 . S
C3925 H3948 0.950 . S
C3926 C3925 1.349 . S
C3926 C3938 1.349 . S
C3927 C3925 1.327 . S
C3927 C3943 1.429 . S
C3927 H3949 0.950 . S
C3928 H3924 0.949 . S
C3928 C3936 1.574 . S
C3928 C3944 1.368 . S
H3929 C3937 0.950 . S
H3930 C3935 0.950 . S
H3931 C3936 0.949 . S
H3932 C3938 0.950 . S
H3933 C3939 0.950 . S
H3934 C3940 0.949 . S
C3935 H3930 0.950 . S
C3935 C3937 1.327 . S
C3935 C3941 1.429 . S
C3936 C3928 1.574 . S
C3936 H3931 0.949 . S
C3936 C3942 1.368 . S
C3937 C3921 1.349 . S
C3937 H3929 0.950 . S
C3937 C3935 1.327 . S
C3938 C3926 1.349 . S
C3938 H3932 0.950 . S
C3938 C3939 1.327 . S
C3939 H3933 0.950 . S
C3939 C3938 1.327 . S
C3939 C3943 1.429 . S
C3940 C3923 1.574 . S
C3940 H3934 0.949 . S
C3940 C3944 1.368 . S
C3941 C3922 1.429 . S
C3941 C3935 1.429 . S
C3941 C3942 1.523 . S
C3942 C3923 1.368 . S
C3942 C3936 1.368 . S
C3942 C3941 1.523 . S
C3943 C3927 1.429 . S
C3943 C3939 1.429 . S
C3943 C3944 1.523 . S
C3944 C3928 1.368 . S
C3944 C3940 1.368 . S
C3944 C3943 1.523 . S
H3945 C3920 0.950 . S
H3946 C3922 0.950 . S
H3947 C3923 0.949 . S
H3948 C3925 0.950 . S
H3949 C3927 0.950 . S
C3950 C3951 1.349 . S
C3950 C3952 1.327 . S
C3950 H3975 0.950 . S
C3951 C3950 1.349 . S
C3951 C3967 1.349 . S
C3952 C3950 1.327 . S
C3952 C3971 1.429 . S
C3952 H3976 0.950 . S
C3953 C3970 1.646 . S
C3953 C3972 1.368 . S
C3953 H3977 0.949 . S
H3954 C3958 0.949 . S
C3955 C3956 1.349 . S
C3955 C3957 1.327 . S
C3955 H3978 0.950 . S
C3956 C3955 1.349 . S
C3956 C3968 1.349 . S
C3957 C3955 1.327 . S
C3957 C3973 1.429 . S
C3957 H3979 0.950 . S
C3958 H3954 0.949 . S
C3958 C3966 1.646 . S
C3958 C3974 1.368 . S
H3959 C3967 0.950 . S
H3960 C3965 0.950 . S
H3961 C3966 0.965 . S
H3962 C3968 0.950 . S
H3963 C3969 0.950 . S
H3964 C3970 0.965 . S
C3965 H3960 0.950 . S
C3965 C3967 1.327 . S
C3965 C3971 1.429 . S
C3966 C3958 1.646 . S
C3966 H3961 0.965 . S
C3966 C3972 1.293 1_554 S
C3967 C3951 1.349 . S
C3967 H3959 0.950 . S
C3967 C3965 1.327 . S
C3968 C3956 1.349 . S
C3968 H3962 0.950 . S
C3968 C3969 1.327 . S
C3969 H3963 0.950 . S
C3969 C3968 1.327 . S
C3969 C3973 1.429 . S
C3970 C3953 1.646 . S
C3970 H3964 0.965 . S
C3970 C3974 1.293 1_556 S
C3971 C3952 1.429 . S
C3971 C3965 1.429 . S
C3971 C3972 1.523 . S
C3972 C3953 1.368 . S
C3972 C3966 1.293 1_556 S
C3972 C3971 1.523 . S
C3973 C3957 1.429 . S
C3973 C3969 1.429 . S
C3973 C3974 1.523 . S
C3974 C3958 1.368 . S
C3974 C3970 1.293 1_554 S
C3974 C3973 1.523 . S
H3975 C3950 0.950 . S
H3976 C3952 0.950 . S
H3977 C3953 0.949 . S
H3978 C3955 0.950 . S
H3979 C3957 0.950 . S
C3980 C3981 1.349 . S
C3980 C3982 1.327 . S
C3980 H4005 0.950 . S
C3981 C3980 1.349 . S
C3981 C3997 1.349 . S
C3982 C3980 1.327 . S
C3982 C4001 1.429 . S
C3982 H4006 0.950 . S
C3983 C4000 1.574 . S
C3983 C4002 1.368 . S
C3983 H4007 0.949 . S
H3984 C3988 0.949 . S
C3985 C3986 1.349 . S
C3985 C3987 1.327 . S
C3985 H4008 0.950 . S
C3986 C3985 1.349 . S
C3986 C3998 1.349 . S
C3987 C3985 1.327 . S
C3987 C4003 1.429 . S
C3987 H4009 0.950 . S
C3988 H3984 0.949 . S
C3988 C3996 1.574 . S
C3988 C4004 1.368 . S
H3989 C3997 0.950 . S
H3990 C3995 0.950 . S
H3991 C3996 0.949 . S
H3992 C3998 0.950 . S
H3993 C3999 0.950 . S
H3994 C4000 0.949 . S
C3995 H3990 0.950 . S
C3995 C3997 1.327 . S
C3995 C4001 1.429 . S
C3996 C3988 1.574 . S
C3996 H3991 0.949 . S
C3996 C4002 1.368 . S
C3997 C3981 1.349 . S
C3997 H3989 0.950 . S
C3997 C3995 1.327 . S
C3998 C3986 1.349 . S
C3998 H3992 0.950 . S
C3998 C3999 1.327 . S
C3999 H3993 0.950 . S
C3999 C3998 1.327 . S
C3999 C4003 1.429 . S
C4000 C3983 1.574 . S
C4000 H3994 0.949 . S
C4000 C4004 1.368 . S
C4001 C3982 1.429 . S
C4001 C3995 1.429 . S
C4001 C4002 1.523 . S
C4002 C3983 1.368 . S
C4002 C3996 1.368 . S
C4002 C4001 1.523 . S
C4003 C3987 1.429 . S
C4003 C3999 1.429 . S
C4003 C4004 1.523 . S
C4004 C3988 1.368 . S
C4004 C4000 1.368 . S
C4004 C4003 1.523 . S
H4005 C3980 0.950 . S
H4006 C3982 0.950 . S
H4007 C3983 0.949 . S
H4008 C3985 0.950 . S
H4009 C3987 0.950 . S
C4010 C4011 1.349 . S
C4010 C4012 1.327 . S
C4010 H4035 0.950 . S
C4011 C4010 1.349 . S
C4011 C4027 1.349 . S
C4012 C4010 1.327 . S
C4012 C4031 1.429 . S
C4012 H4036 0.950 . S
C4013 C4030 1.574 . S
C4013 C4032 1.368 . S
C4013 H4037 0.949 . S
H4014 C4018 0.949 . S
C4015 C4016 1.349 . S
C4015 C4017 1.327 . S
C4015 H4038 0.950 . S
C4016 C4015 1.349 . S
C4016 C4028 1.349 . S
C4017 C4015 1.327 . S
C4017 C4033 1.429 . S
C4017 H4039 0.950 . S
C4018 H4014 0.949 . S
C4018 C4026 1.574 . S
C4018 C4034 1.368 . S
H4019 C4027 0.950 . S
H4020 C4025 0.950 . S
H4021 C4026 0.949 . S
H4022 C4028 0.950 . S
H4023 C4029 0.950 . S
H4024 C4030 0.949 . S
C4025 H4020 0.950 . S
C4025 C4027 1.327 . S
C4025 C4031 1.429 . S
C4026 C4018 1.574 . S
C4026 H4021 0.949 . S
C4026 C4032 1.368 . S
C4027 C4011 1.349 . S
C4027 H4019 0.950 . S
C4027 C4025 1.327 . S
C4028 C4016 1.349 . S
C4028 H4022 0.950 . S
C4028 C4029 1.327 . S
C4029 H4023 0.950 . S
C4029 C4028 1.327 . S
C4029 C4033 1.429 . S
C4030 C4013 1.574 . S
C4030 H4024 0.949 . S
C4030 C4034 1.368 . S
C4031 C4012 1.429 . S
C4031 C4025 1.429 . S
C4031 C4032 1.523 . S
C4032 C4013 1.368 . S
C4032 C4026 1.368 . S
C4032 C4031 1.523 . S
C4033 C4017 1.429 . S
C4033 C4029 1.429 . S
C4033 C4034 1.523 . S
C4034 C4018 1.368 . S
C4034 C4030 1.368 . S
C4034 C4033 1.523 . S
H4035 C4010 0.950 . S
H4036 C4012 0.950 . S
H4037 C4013 0.949 . S
H4038 C4015 0.950 . S
H4039 C4017 0.950 . S
C4040 C4041 1.349 . S
C4040 C4042 1.327 . S
C4040 H4065 0.950 . S
C4041 C4040 1.349 . S
C4041 C4057 1.349 . S
C4042 C4040 1.327 . S
C4042 C4061 1.429 . S
C4042 H4066 0.950 . S
C4043 C4060 1.574 . S
C4043 C4062 1.368 . S
C4043 H4067 0.949 . S
H4044 C4048 0.949 . S
C4045 C4046 1.349 . S
C4045 C4047 1.327 . S
C4045 H4068 0.950 . S
C4046 C4045 1.349 . S
C4046 C4058 1.349 . S
C4047 C4045 1.327 . S
C4047 C4063 1.429 . S
C4047 H4069 0.950 . S
C4048 H4044 0.949 . S
C4048 C4056 1.574 . S
C4048 C4064 1.368 . S
H4049 C4057 0.950 . S
H4050 C4055 0.950 . S
H4051 C4056 0.949 . S
H4052 C4058 0.950 . S
H4053 C4059 0.950 . S
H4054 C4060 0.949 . S
C4055 H4050 0.950 . S
C4055 C4057 1.327 . S
C4055 C4061 1.429 . S
C4056 C4048 1.574 . S
C4056 H4051 0.949 . S
C4056 C4062 1.368 . S
C4057 C4041 1.349 . S
C4057 H4049 0.950 . S
C4057 C4055 1.327 . S
C4058 C4046 1.349 . S
C4058 H4052 0.950 . S
C4058 C4059 1.327 . S
C4059 H4053 0.950 . S
C4059 C4058 1.327 . S
C4059 C4063 1.429 . S
C4060 C4043 1.574 . S
C4060 H4054 0.949 . S
C4060 C4064 1.368 . S
C4061 C4042 1.429 . S
C4061 C4055 1.429 . S
C4061 C4062 1.523 . S
C4062 C4043 1.368 . S
C4062 C4056 1.368 . S
C4062 C4061 1.523 . S
C4063 C4047 1.429 . S
C4063 C4059 1.429 . S
C4063 C4064 1.523 . S
C4064 C4048 1.368 . S
C4064 C4060 1.368 . S
C4064 C4063 1.523 . S
H4065 C4040 0.950 . S
H4066 C4042 0.950 . S
H4067 C4043 0.949 . S
H4068 C4045 0.950 . S
H4069 C4047 0.950 . S
C4070 C4071 1.349 . S
C4070 C4072 1.327 . S
C4070 H4095 0.950 . S
C4071 C4070 1.349 . S
C4071 C4087 1.349 . S
C4072 C4070 1.327 . S
C4072 C4091 1.429 . S
C4072 H4096 0.950 . S
C4073 C4090 1.646 . S
C4073 C4092 1.293 1_554 S
C4073 H4097 0.965 . S
H4074 C4078 0.965 . S
C4075 C4076 1.349 . S
C4075 C4077 1.327 . S
C4075 H4098 0.950 . S
C4076 C4075 1.349 . S
C4076 C4088 1.349 . S
C4077 C4075 1.327 . S
C4077 C4093 1.429 . S
C4077 H4099 0.950 . S
C4078 H4074 0.965 . S
C4078 C4086 1.646 . S
C4078 C4094 1.293 1_556 S
H4079 C4087 0.950 . S
H4080 C4085 0.950 . S
H4081 C4086 0.949 . S
H4082 C4088 0.950 . S
H4083 C4089 0.950 . S
H4084 C4090 0.949 . S
C4085 H4080 0.950 . S
C4085 C4087 1.327 . S
C4085 C4091 1.429 . S
C4086 C4078 1.646 . S
C4086 H4081 0.949 . S
C4086 C4092 1.368 . S
C4087 C4071 1.349 . S
C4087 H4079 0.950 . S
C4087 C4085 1.327 . S
C4088 C4076 1.349 . S
C4088 H4082 0.950 . S
C4088 C4089 1.327 . S
C4089 H4083 0.950 . S
C4089 C4088 1.327 . S
C4089 C4093 1.429 . S
C4090 C4073 1.646 . S
C4090 H4084 0.949 . S
C4090 C4094 1.368 . S
C4091 C4072 1.429 . S
C4091 C4085 1.429 . S
C4091 C4092 1.523 . S
C4092 C4073 1.293 1_556 S
C4092 C4086 1.368 . S
C4092 C4091 1.523 . S
C4093 C4077 1.429 . S
C4093 C4089 1.429 . S
C4093 C4094 1.523 . S
C4094 C4078 1.293 1_554 S
C4094 C4090 1.368 . S
C4094 C4093 1.523 . S
H4095 C4070 0.950 . S
H4096 C4072 0.950 . S
H4097 C4073 0.965 . S
H4098 C4075 0.950 . S
H4099 C4077 0.950 . S
C4100 C4101 1.349 . S
C4100 C4102 1.327 . S
C4100 H4125 0.950 . S
C4101 C4100 1.349 . S
C4101 C4117 1.349 . S
C4102 C4100 1.327 . S
C4102 C4121 1.429 . S
C4102 H4126 0.950 . S
C4103 C4120 1.574 . S
C4103 C4122 1.368 . S
C4103 H4127 0.949 . S
H4104 C4108 0.949 . S
C4105 C4106 1.349 . S
C4105 C4107 1.327 . S
C4105 H4128 0.950 . S
C4106 C4105 1.349 . S
C4106 C4118 1.349 . S
C4107 C4105 1.327 . S
C4107 C4123 1.429 . S
C4107 H4129 0.950 . S
C4108 H4104 0.949 . S
C4108 C4116 1.574 . S
C4108 C4124 1.368 . S
H4109 C4117 0.950 . S
H4110 C4115 0.950 . S
H4111 C4116 0.949 . S
H4112 C4118 0.950 . S
H4113 C4119 0.950 . S
H4114 C4120 0.949 . S
C4115 H4110 0.950 . S
C4115 C4117 1.327 . S
C4115 C4121 1.429 . S
C4116 C4108 1.574 . S
C4116 H4111 0.949 . S
C4116 C4122 1.368 . S
C4117 C4101 1.349 . S
C4117 H4109 0.950 . S
C4117 C4115 1.327 . S
C4118 C4106 1.349 . S
C4118 H4112 0.950 . S
C4118 C4119 1.327 . S
C4119 H4113 0.950 . S
C4119 C4118 1.327 . S
C4119 C4123 1.429 . S
C4120 C4103 1.574 . S
C4120 H4114 0.949 . S
C4120 C4124 1.368 . S
C4121 C4102 1.429 . S
C4121 C4115 1.429 . S
C4121 C4122 1.523 . S
C4122 C4103 1.368 . S
C4122 C4116 1.368 . S
C4122 C4121 1.523 . S
C4123 C4107 1.429 . S
C4123 C4119 1.429 . S
C4123 C4124 1.523 . S
C4124 C4108 1.368 . S
C4124 C4120 1.368 . S
C4124 C4123 1.523 . S
H4125 C4100 0.950 . S
H4126 C4102 0.950 . S
H4127 C4103 0.949 . S
H4128 C4105 0.950 . S
H4129 C4107 0.950 . S
C4130 C4131 1.349 . S
C4130 C4132 1.327 . S
C4130 H4155 0.950 . S
C4131 C4130 1.349 . S
C4131 C4147 1.349 . S
C4132 C4130 1.327 . S
C4132 C4151 1.429 . S
C4132 H4156 0.950 . S
C4133 C4150 1.574 . S
C4133 C4152 1.368 . S
C4133 H4157 0.949 . S
H4134 C4138 0.949 . S
C4135 C4136 1.349 . S
C4135 C4137 1.327 . S
C4135 H4158 0.950 . S
C4136 C4135 1.349 . S
C4136 C4148 1.349 . S
C4137 C4135 1.327 . S
C4137 C4153 1.429 . S
C4137 H4159 0.950 . S
C4138 H4134 0.949 . S
C4138 C4146 1.574 . S
C4138 C4154 1.368 . S
H4139 C4147 0.950 . S
H4140 C4145 0.950 . S
H4141 C4146 0.949 . S
H4142 C4148 0.950 . S
H4143 C4149 0.950 . S
H4144 C4150 0.949 . S
C4145 H4140 0.950 . S
C4145 C4147 1.327 . S
C4145 C4151 1.429 . S
C4146 C4138 1.574 . S
C4146 H4141 0.949 . S
C4146 C4152 1.368 . S
C4147 C4131 1.349 . S
C4147 H4139 0.950 . S
C4147 C4145 1.327 . S
C4148 C4136 1.349 . S
C4148 H4142 0.950 . S
C4148 C4149 1.327 . S
C4149 H4143 0.950 . S
C4149 C4148 1.327 . S
C4149 C4153 1.429 . S
C4150 C4133 1.574 . S
C4150 H4144 0.949 . S
C4150 C4154 1.368 . S
C4151 C4132 1.429 . S
C4151 C4145 1.429 . S
C4151 C4152 1.523 . S
C4152 C4133 1.368 . S
C4152 C4146 1.368 . S
C4152 C4151 1.523 . S
C4153 C4137 1.429 . S
C4153 C4149 1.429 . S
C4153 C4154 1.523 . S
C4154 C4138 1.368 . S
C4154 C4150 1.368 . S
C4154 C4153 1.523 . S
H4155 C4130 0.950 . S
H4156 C4132 0.950 . S
H4157 C4133 0.949 . S
H4158 C4135 0.950 . S
H4159 C4137 0.950 . S
C1281 C7 0.373 . S
C1286 C1091 0.470 . S
C1311 C47 0.373 . S
C1316 C331 0.470 . S
C1341 C87 0.372 . S
C1346 C1011 0.470 . S
C1371 C411 0.470 . S
C1376 C127 0.373 . S
C1401 C167 0.373 . S
C1406 C1171 0.470 . S
C1431 C571 0.470 . S
C1436 C207 0.373 . S
C1461 C1251 0.470 . S
C1466 C247 0.372 . S
C1491 C287 0.373 . S
C1496 C491 0.470 . S
C1521 C336 0.373 . S
C1526 C762 0.470 . S
C1551 C376 0.373 . S
C1556 C2 0.470 . S
C1581 C682 0.470 . S
C1586 C416 0.372 . S
C1611 C82 0.470 . S
C1616 C456 0.373 . S
C1641 C496 0.373 . S
C1646 C842 0.470 . S
C1671 C536 0.373 . S
C1676 C242 0.470 . S
C1701 C576 0.372 . S
C1706 C922 0.470 . S
C1731 C162 0.470 . S
C1736 C616 0.373 . S
C1761 C451 0.470 . S
C1766 C647 0.372 . S
C1791 C971 0.470 . S
C1796 C687 0.373 . S
C1821 C371 0.470 . S
C1826 C727 0.373 . S
C1851 C767 0.373 . S
C1856 C1051 0.470 . S
C1881 C531 0.470 . S
C1886 C807 0.372 . S
C1911 C1211 0.470 . S
C1916 C847 0.373 . S
C1941 C611 0.470 . S
C1946 C887 0.373 . S
C1971 C927 0.373 . S
C1976 C1131 0.470 . S
C2001 C976 0.372 . S
C2006 C122 0.470 . S
C2031 C1016 0.373 . S
C2036 C642 0.470 . S
C2061 C1056 0.373 . S
C2066 C42 0.470 . S
C2091 C1096 0.373 . S
C2096 C722 0.470 . S
C2121 C202 0.470 . S
C2126 C1136 0.372 . S
C2151 C882 0.470 . S
C2156 C1176 0.373 . S
C2181 C1216 0.373 . S
C2186 C282 0.470 . S
C2211 C1256 0.373 . S
C2216 C802 0.470 . S
C2241 C19 2.332 . S
C2246 C739 2.332 . S
C2271 C779 2.333 . S
C2276 C59 2.333 . S
C2301 C99 2.332 . S
C2306 C659 2.332 . S
C2331 C139 2.333 . S
C2336 C699 2.333 . S
C2361 C899 2.332 . S
C2366 C179 2.332 . S
C2391 C219 2.333 . S
C2396 C939 2.333 . S
C2421 C819 2.332 . S
C2426 C259 2.332 . S
C2451 C299 2.333 . S
C2456 C859 2.333 . S
C2481 C1050 2.332 . S
C2486 C330 2.332 . S
C2511 C370 2.333 . S
C2516 C1090 2.333 . S
C2541 C410 2.332 . S
C2546 C970 2.332 . S
C2571 C450 2.333 . S
C2576 C1010 2.333 . S
C2601 C1210 2.332 . S
C2606 C490 2.332 . S
C2631 C1250 2.333 . S
C2636 C530 2.333 . S
C2661 C570 2.332 . S
C2666 C1130 2.332 . S
C2691 C610 2.333 . S
C2696 C1170 2.333 . S
C2721 C11 3.156 . S
C2726 C962 3.156 . S
C2751 C362 3.155 . S
C2756 C51 3.155 . S
C2781 C91 3.156 . S
C2786 C1042 3.156 . S
C2811 C131 3.155 . S
C2816 C442 3.155 . S
C2841 C1122 3.156 . S
C2846 C171 3.156 . S
C2871 C522 3.155 . S
C2876 C211 3.155 . S
C2901 C251 3.156 . S
C2906 C1202 3.156 . S
C2931 C291 3.155 . S
C2936 C602 3.155 . S
C2961 C651 3.156 . S
C2966 C322 3.156 . S
C2991 C731 3.156 . S
C2996 C402 3.156 . S
C3021 C811 3.156 . S
C3026 C482 3.156 . S
C3051 C562 3.156 . S
C3056 C891 3.156 . S
C3081 C691 3.155 . S
C3086 C1002 3.155 . S
C3111 C771 3.155 . S
C3116 C1082 3.155 . S
C3141 C1162 3.155 . S
C3146 C851 3.155 . S
C3171 C1242 3.155 . S
C3176 C931 3.155 . S
C3201 C10 4.629 . S
C3206 C210 4.629 1_545 S
C3231 C250 4.629 . S
C3236 C50 4.629 1_545 S
C3261 C290 4.629 1_565 S
C3266 C90 4.629 . S
C3291 C170 4.629 . S
C3296 C130 4.629 1_565 S
C3321 C339 4.629 . S
C3326 C539 4.629 1_565 S
C3351 C379 4.629 1_565 S
C3356 C579 4.629 . S
C3381 C619 4.629 1_545 S
C3386 C419 4.629 . S
C3411 C459 4.629 1_545 S
C3416 C499 4.629 . S
C3441 C650 4.629 . S
C3446 C850 4.629 . S
C3471 C690 4.629 . S
C3476 C890 4.629 . S
C3501 C730 4.629 . S
C3506 C930 4.629 . S
C3531 C810 4.629 . S
C3536 C770 4.629 . S
C3561 C979 4.629 . S
C3566 C1179 4.629 . S
C3591 C1019 4.629 . S
C3596 C1219 4.629 . S
C3621 C1259 4.629 . S
C3626 C1059 4.629 . S
C3651 C1099 4.629 . S
C3656 C1139 4.629 . S
C3681 C16 0.872 . S
C3686 C176 0.872 . S
C3711 C56 0.872 . S
C3716 C216 0.872 . S
C3741 C256 0.872 . S
C3746 C96 0.872 . S
C3771 C296 0.872 . S
C3776 C136 0.872 . S
C3801 C327 0.872 . S
C3806 C487 0.872 . S
C3831 C527 0.872 . S
C3836 C367 0.872 . S
C3861 C567 0.872 . S
C3866 C407 0.872 . S
C3891 C607 0.872 . S
C3896 C447 0.872 . S
C3921 C656 0.872 . S
C3926 C816 0.872 . S
C3951 C856 0.872 . S
C3956 C696 0.872 . S
C3981 C736 0.872 . S
C3986 C896 0.872 . S
C4011 C936 0.872 . S
C4016 C776 0.872 . S
C4041 C1127 0.872 . S
C4046 C967 0.872 . S
C4071 C1007 0.872 . S
C4076 C1167 0.872 . S
C4101 C1047 0.872 . S
C4106 C1207 0.872 . S
C4131 C1087 0.872 . S
C4136 C1247 0.872 . S
