# Generated by pormake.
# Topology zfl, (5)-cn, num edge types: 1
# Building blocks:
#     Node 0, Type 0, BuildingBlock: XOMCOT_clean_sbu_0, # of connection points: 5
#     Node 1, Type 0, BuildingBlock: XOMCOT_clean_sbu_0, # of connection points: 5
#     Node 2, Type 0, BuildingBlock: XOMCOT_clean_sbu_0, # of connection points: 5
#     Node 3, Type 0, BuildingBlock: XOMCOT_clean_sbu_0, # of connection points: 5
#     Node 4, Type 0, BuildingBlock: XOMCOT_clean_sbu_0, # of connection points: 5
#     Node 5, Type 0, BuildingBlock: XOMCOT_clean_sbu_0, # of connection points: 5
#     Node 6, Type 0, BuildingBlock: XOMCOT_clean_sbu_0, # of connection points: 5
#     Node 7, Type 0, BuildingBlock: XOMCOT_clean_sbu_0, # of connection points: 5
#     Node 8, Type 0, BuildingBlock: XOMCOT_clean_sbu_0, # of connection points: 5
#     Node 9, Type 0, BuildingBlock: XOMCOT_clean_sbu_0, # of connection points: 5
#     Node 10, Type 0, BuildingBlock: XOMCOT_clean_sbu_0, # of connection points: 5
#     Node 11, Type 0, BuildingBlock: XOMCOT_clean_sbu_0, # of connection points: 5
#     Node 12, Type 0, BuildingBlock: XOMCOT_clean_sbu_0, # of connection points: 5
#     Node 13, Type 0, BuildingBlock: XOMCOT_clean_sbu_0, # of connection points: 5
#     Node 14, Type 0, BuildingBlock: XOMCOT_clean_sbu_0, # of connection points: 5
#     Node 15, Type 0, BuildingBlock: XOMCOT_clean_sbu_0, # of connection points: 5
#     Edge 16, Type (0, 0), BuildingBlock: EZIPEK_clean_linker_0, # of connection points: 2
#     Edge 17, Type (0, 0), BuildingBlock: EZIPEK_clean_linker_0, # of connection points: 2
#     Edge 18, Type (0, 0), BuildingBlock: EZIPEK_clean_linker_0, # of connection points: 2
#     Edge 19, Type (0, 0), BuildingBlock: EZIPEK_clean_linker_0, # of connection points: 2
#     Edge 20, Type (0, 0), BuildingBlock: EZIPEK_clean_linker_0, # of connection points: 2
#     Edge 21, Type (0, 0), BuildingBlock: EZIPEK_clean_linker_0, # of connection points: 2
#     Edge 22, Type (0, 0), BuildingBlock: EZIPEK_clean_linker_0, # of connection points: 2
#     Edge 23, Type (0, 0), BuildingBlock: EZIPEK_clean_linker_0, # of connection points: 2
#     Edge 24, Type (0, 0), BuildingBlock: EZIPEK_clean_linker_0, # of connection points: 2
#     Edge 25, Type (0, 0), BuildingBlock: EZIPEK_clean_linker_0, # of connection points: 2
#     Edge 26, Type (0, 0), BuildingBlock: EZIPEK_clean_linker_0, # of connection points: 2
#     Edge 27, Type (0, 0), BuildingBlock: EZIPEK_clean_linker_0, # of connection points: 2
#     Edge 28, Type (0, 0), BuildingBlock: EZIPEK_clean_linker_0, # of connection points: 2
#     Edge 29, Type (0, 0), BuildingBlock: EZIPEK_clean_linker_0, # of connection points: 2
#     Edge 30, Type (0, 0), BuildingBlock: EZIPEK_clean_linker_0, # of connection points: 2
#     Edge 31, Type (0, 0), BuildingBlock: EZIPEK_clean_linker_0, # of connection points: 2
#     Edge 32, Type (0, 0), BuildingBlock: EZIPEK_clean_linker_0, # of connection points: 2
#     Edge 33, Type (0, 0), BuildingBlock: EZIPEK_clean_linker_0, # of connection points: 2
#     Edge 34, Type (0, 0), BuildingBlock: EZIPEK_clean_linker_0, # of connection points: 2
#     Edge 35, Type (0, 0), BuildingBlock: EZIPEK_clean_linker_0, # of connection points: 2
#     Edge 36, Type (0, 0), BuildingBlock: EZIPEK_clean_linker_0, # of connection points: 2
#     Edge 37, Type (0, 0), BuildingBlock: EZIPEK_clean_linker_0, # of connection points: 2
#     Edge 38, Type (0, 0), BuildingBlock: EZIPEK_clean_linker_0, # of connection points: 2
#     Edge 39, Type (0, 0), BuildingBlock: EZIPEK_clean_linker_0, # of connection points: 2
#     Edge 40, Type (0, 0), BuildingBlock: EZIPEK_clean_linker_0, # of connection points: 2
#     Edge 41, Type (0, 0), BuildingBlock: EZIPEK_clean_linker_0, # of connection points: 2
#     Edge 42, Type (0, 0), BuildingBlock: EZIPEK_clean_linker_0, # of connection points: 2
#     Edge 43, Type (0, 0), BuildingBlock: EZIPEK_clean_linker_0, # of connection points: 2
#     Edge 44, Type (0, 0), BuildingBlock: EZIPEK_clean_linker_0, # of connection points: 2
#     Edge 45, Type (0, 0), BuildingBlock: EZIPEK_clean_linker_0, # of connection points: 2
#     Edge 46, Type (0, 0), BuildingBlock: EZIPEK_clean_linker_0, # of connection points: 2
#     Edge 47, Type (0, 0), BuildingBlock: EZIPEK_clean_linker_0, # of connection points: 2
#     Edge 48, Type (0, 0), BuildingBlock: EZIPEK_clean_linker_0, # of connection points: 2
#     Edge 49, Type (0, 0), BuildingBlock: EZIPEK_clean_linker_0, # of connection points: 2
#     Edge 50, Type (0, 0), BuildingBlock: EZIPEK_clean_linker_0, # of connection points: 2
#     Edge 51, Type (0, 0), BuildingBlock: EZIPEK_clean_linker_0, # of connection points: 2
#     Edge 52, Type (0, 0), BuildingBlock: EZIPEK_clean_linker_0, # of connection points: 2
#     Edge 53, Type (0, 0), BuildingBlock: EZIPEK_clean_linker_0, # of connection points: 2
#     Edge 54, Type (0, 0), BuildingBlock: EZIPEK_clean_linker_0, # of connection points: 2
#     Edge 55, Type (0, 0), BuildingBlock: EZIPEK_clean_linker_0, # of connection points: 2
# Relax obj value: 0.250
# Max RMSD: 0.260
# Mean RMSD: 0.260
data_MOF--net-zfl--node1-XOMCOT_clean_sbu_0--edge1-EZIPEK_clean_linker_0
_symmetry_space_group_name_H-M    P1
_symmetry_Int_Tables_number       1
_symmetry_cell_setting            triclinic
loop_
_symmetry_equiv_pos_as_xyz
'x, y, z'
_cell_length_a     24.483254
_cell_length_b     24.492991
_cell_length_c     44.685457
_cell_angle_alpha  89.925694
_cell_angle_beta   90.135615
_cell_angle_gamma 90.132587
loop_
_atom_site_label
_atom_site_type_symbol
_atom_site_fract_x
_atom_site_fract_y
_atom_site_fract_z
_atom_type_partial_charge
Co0 Co 0.55976 0.12148 0.10682 0.0
C1 C 0.58755 0.01451 0.12918 0.0
C2 C 0.65386 0.04697 0.10352 0.0
C3 C 0.66188 0.99165 0.10719 0.0
N4 N 0.60729 0.06144 0.11753 0.0
N5 N 0.61926 0.97133 0.1227 0.0
H6 H 0.54654 0.01052 0.13794 0.0
H7 H 0.67666 0.07324 0.08857 0.0
C8 C 0.66611 0.17827 0.12687 0.0
O9 O 0.68475 0.13339 0.13916 0.0
N10 N 0.51008 0.17996 0.0954 0.0
C11 C 0.48766 0.18837 0.06807 0.0
C12 C 0.45467 0.23327 0.06905 0.0
C13 C 0.49129 0.22147 0.11243 0.0
N14 N 0.45686 0.25393 0.09684 0.0
C15 C 0.47683 0.10666 0.15012 0.0
C16 C 0.54257 0.11086 0.20037 0.0
C17 C 0.48915 0.09072 0.20307 0.0
C18 C 0.45563 0.09022 0.17767 0.0
C19 C 0.56263 0.12549 0.17218 0.0
N20 N 0.53038 0.12165 0.14731 0.0
H21 H 0.45102 0.10395 0.13052 0.0
H22 H 0.60482 0.13633 0.17039 0.0
H23 H 0.49565 0.16517 0.04806 0.0
H24 H 0.50423 0.22919 0.13522 0.0
O25 O 0.51063 0.06747 0.0903 0.0
O26 O 0.57573 0.10869 0.06474 0.0
O27 O 0.61781 0.18016 0.11553 0.0
C28 C 0.53616 0.07284 0.06508 0.0
H29 H 0.69214 0.96723 0.09576 0.0
H30 H 0.43359 0.25174 0.05027 0.0
H31 H 0.56955 0.11203 0.21961 0.0
H32 H 0.41404 0.07521 0.17892 0.0
Co33 Co 0.42162 0.5968 0.61604 0.0
C34 C 0.53641 0.59582 0.63211 0.0
C35 C 0.51383 0.67492 0.61562 0.0
C36 C 0.5702 0.67209 0.61736 0.0
N37 N 0.49303 0.62663 0.62452 0.0
N38 N 0.58408 0.62201 0.62743 0.0
H39 H 0.53353 0.55254 0.63687 0.0
H40 H 0.49034 0.70732 0.60538 0.0
C41 C 0.34251 0.6803 0.63953 0.0
O42 O 0.31936 0.64237 0.65592 0.0
N43 N 0.35006 0.56495 0.60682 0.0
C44 C 0.32945 0.55806 0.57894 0.0
C45 C 0.28319 0.5267 0.5804 0.0
C46 C 0.31421 0.53854 0.62494 0.0
N47 N 0.27401 0.51412 0.60923 0.0
C48 C 0.41769 0.51575 0.66166 0.0
C49 C 0.44486 0.58441 0.70843 0.0
C50 C 0.44342 0.52781 0.71344 0.0
C51 C 0.42736 0.4936 0.68992 0.0
C52 C 0.4317 0.60521 0.68015 0.0
N53 N 0.41906 0.57088 0.65708 0.0
H54 H 0.41043 0.48841 0.6431 0.0
H55 H 0.43576 0.64856 0.67617 0.0
H56 H 0.34666 0.57401 0.5585 0.0
H57 H 0.31654 0.5372 0.64906 0.0
O58 O 0.45619 0.5339 0.59774 0.0
O59 O 0.43453 0.60952 0.57403 0.0
O60 O 0.38617 0.66995 0.62495 0.0
C61 C 0.455 0.56068 0.57256 0.0
H62 H 0.59863 0.70177 0.6084 0.0
H63 H 0.25744 0.51476 0.56177 0.0
H64 H 0.45781 0.61209 0.72596 0.0
H65 H 0.42589 0.44972 0.69288 0.0
Co66 Co 0.9248 0.4159 0.10446 0.0
C67 C 0.91392 0.52752 0.12459 0.0
C68 C 0.84282 0.50351 0.0998 0.0
C69 C 0.84358 0.55982 0.10212 0.0
N70 N 0.88797 0.4837 0.11318 0.0
N71 N 0.88889 0.5747 0.11735 0.0
H72 H 0.95504 0.52571 0.13352 0.0
H73 H 0.8155 0.4797 0.08591 0.0
C74 C 0.84686 0.33044 0.12876 0.0
O75 O 0.88575 0.31114 0.14595 0.0
N76 N 0.96315 0.34816 0.09535 0.0
C77 C 0.97329 0.32845 0.06765 0.0
C78 C 1.00574 0.28317 0.06993 0.0
C79 C 0.98888 0.3131 0.11412 0.0
N80 N 0.01547 0.27373 0.0991 0.0
C81 C 1.00608 0.42009 0.1498 0.0
C82 C 0.93652 0.43532 0.19768 0.0
C83 C 0.99296 0.44182 0.2019 0.0
C84 C 0.02792 0.43294 0.17776 0.0
C85 C 0.91623 0.42226 0.1692 0.0
N86 N 0.95096 0.41497 0.14565 0.0
H87 H 0.03352 0.41626 0.13101 0.0
H88 H 0.8726 0.42173 0.16561 0.0
H89 H 0.95842 0.34528 0.04685 0.0
H90 H 0.9878 0.31515 0.13826 0.0
O91 O 0.98449 0.45736 0.08706 0.0
O92 O 0.9126 0.42824 0.06183 0.0
O93 O 0.85489 0.37336 0.11295 0.0
C94 C 0.95865 0.45503 0.06165 0.0
H95 H 0.81688 0.58771 0.09031 0.0
H96 H 0.01936 0.2576 0.05166 0.0
H97 H 0.90839 0.44276 0.21589 0.0
H98 H 0.07165 0.43813 0.18024 0.0
Co99 Co 0.12993 0.9619 0.6099 0.0
C100 C 0.0227 0.92484 0.62729 0.0
C101 C 0.06624 0.86041 0.60575 0.0
C102 C 0.01179 0.84636 0.6067 0.0
N103 N 0.07326 0.90942 0.61909 0.0
N104 N 0.98436 0.88844 0.61884 0.0
H105 H 0.01326 0.9656 0.63504 0.0
H106 H 0.09716 0.83962 0.59283 0.0
C107 C 0.19227 0.85966 0.63219 0.0
O108 O 0.14858 0.83939 0.64502 0.0
N109 N 0.1851 0.01638 0.59991 0.0
C110 C 0.17772 0.06166 0.58295 0.0
C111 C 0.22525 0.09128 0.58226 0.0
C112 C 0.23748 0.01958 0.60949 0.0
N113 N 0.26248 0.06492 0.59893 0.0
C114 C 0.10776 0.04355 0.65329 0.0
C115 C 0.11722 0.97896 0.7037 0.0
C116 C 0.09411 0.03093 0.70641 0.0
C117 C 0.09083 0.06403 0.68094 0.0
C118 C 0.13268 0.95974 0.67552 0.0
N119 N 0.12636 0.9912 0.65051 0.0
H120 H 0.10288 0.06897 0.63371 0.0
H121 H 0.14687 0.91879 0.67407 0.0
H122 H 0.14045 0.07341 0.57175 0.0
H123 H 0.25701 0.98967 0.62375 0.0
O124 O 0.07442 1.00807 0.59215 0.0
O125 O 0.11885 0.94481 0.56763 0.0
O126 O 0.19142 0.90704 0.61961 0.0
C127 C 0.08084 0.98214 0.56717 0.0
H128 H 0.99302 0.81237 0.59507 0.0
H129 H 0.23237 0.12895 0.57016 0.0
H130 H 0.12057 0.95236 0.723 0.0
H131 H 0.07337 0.10455 0.68223 0.0
Co132 Co 0.5833 0.41078 0.92423 0.0
C133 C 0.59988 0.51962 0.90087 0.0
C134 C 0.67161 0.49434 0.92467 0.0
C135 C 0.67454 0.55011 0.91957 0.0
N136 N 0.62393 0.47584 0.91352 0.0
N137 N 0.62894 0.56578 0.90486 0.0
H138 H 0.55796 0.51932 0.89304 0.0
H139 H 0.69883 0.47068 0.93866 0.0
C140 C 0.6591 0.32249 0.90037 0.0
O141 O 0.62296 0.30832 0.88014 0.0
N142 N 0.5404 0.34627 0.93519 0.0
C143 C 0.52083 0.33451 0.96277 0.0
C144 C 0.4885 0.28886 0.96126 0.0
C145 C 0.51994 0.30628 0.91741 0.0
N146 N 0.48792 0.27134 0.93277 0.0
C147 C 0.50364 0.40834 0.87755 0.0
C148 C 0.57571 0.43186 0.83174 0.0
C149 C 0.51942 0.43525 0.82622 0.0
C150 C 0.48324 0.42053 0.84912 0.0
C151 C 0.59446 0.41658 0.86007 0.0
N152 N 0.55858 0.40676 0.88285 0.0
H153 H 0.47521 0.40313 0.89582 0.0
H154 H 0.63787 0.41758 0.86445 0.0
H155 H 0.52912 0.35696 0.98304 0.0
H156 H 0.52728 0.30265 0.8937 0.0
O157 O 0.52646 0.45802 0.93982 0.0
O158 O 0.59563 0.42667 0.96637 0.0
O159 O 0.6505 0.36313 0.91777 0.0
C160 C 0.55227 0.45733 0.96535 0.0
H161 H 0.70438 0.57777 0.92912 0.0
H162 H 0.46845 0.26873 0.97984 0.0
H163 H 0.60495 0.44327 0.81468 0.0
H164 H 0.43948 0.42257 0.84566 0.0
Co165 Co 0.11882 0.56262 0.41737 0.0
C166 C 1.00715 0.60082 0.41238 0.0
C167 C 0.05439 0.65878 0.43713 0.0
C168 C 0.99956 0.67151 0.44023 0.0
N169 N 0.05899 0.61431 0.41944 0.0
N170 N 0.97043 0.63413 0.42484 0.0
H171 H 0.99518 0.5634 0.40173 0.0
H172 H 0.08777 0.67728 0.44934 0.0
C173 C 0.16597 0.67078 0.3954 0.0
O174 O 0.11869 0.68152 0.38281 0.0
N175 N 0.17511 0.50769 0.41534 0.0
C176 C 0.1645 0.45506 0.40849 0.0
C177 C 0.21176 0.4256 0.41021 0.0
C178 C 0.22931 0.50981 0.42094 0.0
N179 N 0.25233 0.45986 0.41792 0.0
C180 C 0.06131 0.50933 0.36964 0.0
C181 C 0.11973 0.55154 0.32225 0.0
C182 C 0.07567 0.51637 0.31651 0.0
C183 C 0.04691 0.49468 0.34061 0.0
C184 C 0.13277 0.56537 0.35195 0.0
N185 N 0.10188 0.5465 0.37527 0.0
H186 H 0.03967 0.4897 0.38765 0.0
H187 H 0.16874 0.5895 0.35599 0.0
H188 H 0.12464 0.43865 0.40323 0.0
H189 H 0.25122 0.54644 0.4273 0.0
O190 O 0.07105 0.50959 0.43665 0.0
O191 O 0.12597 0.5655 0.46084 0.0
O192 O 0.17411 0.6238 0.40762 0.0
C193 C 0.08846 0.5279 0.46219 0.0
H194 H 0.98239 0.70195 0.45499 0.0
H195 H 0.21628 0.38227 0.40614 0.0
H196 H 0.14422 0.56737 0.30404 0.0
H197 H 0.01383 0.46594 0.33703 0.0
Co198 Co 0.94184 0.10981 0.92164 0.0
C199 C 0.91396 1.00134 0.90096 0.0
C200 C 0.85353 0.02969 0.93168 0.0
C201 C 0.84846 0.97377 0.92895 0.0
N202 N 0.8952 0.04696 0.91435 0.0
N203 N 0.88732 0.95593 0.91005 0.0
H204 H 0.95263 0.99996 0.88929 0.0
H205 H 0.83292 0.05474 0.94804 0.0
C206 C 0.83127 0.1613 0.90527 0.0
O207 O 0.81071 0.11418 0.89708 0.0
N208 N 0.99022 0.1712 0.92895 0.0
C209 C 0.01826 0.18306 0.95423 0.0
C210 C 0.04927 0.22878 0.94948 0.0
C211 C 1.00351 0.21126 0.90945 0.0
N212 N 0.04023 0.24606 0.92136 0.0
C213 C 0.01961 0.09855 0.87516 0.0
C214 C 0.94873 0.10368 0.82702 0.0
C215 C 1.00396 0.09177 0.82191 0.0
C216 C 0.03964 0.08992 0.84637 0.0
C217 C 0.93009 0.11106 0.85637 0.0
N218 N 0.96543 0.10828 0.88002 0.0
H219 H 0.04763 0.0962 0.89383 0.0
H220 H 0.88715 0.11677 0.85995 0.0
H221 H 0.01575 0.16158 0.97526 0.0
H222 H 0.98551 0.21597 0.88745 0.0
O223 O 0.99565 0.05991 0.93776 0.0
O224 O 0.93253 0.10048 0.96481 0.0
O225 O 0.8812 0.1655 0.91374 0.0
C226 C 0.97401 0.06712 0.96395 0.0
H227 H 0.82362 0.94767 0.943 0.0
H228 H 0.07412 0.2498 0.96593 0.0
H229 H 0.91998 0.10509 0.80858 0.0
H230 H 0.08253 0.0808 0.84326 0.0
Co231 Co 0.39715 0.94187 0.41717 0.0
C232 C 0.50661 0.91444 0.39993 0.0
C233 C 0.46854 0.84472 0.42019 0.0
C234 C 0.52446 0.83627 0.41914 0.0
N235 N 0.45783 0.8943 0.40851 0.0
N236 N 0.54807 0.88107 0.40709 0.0
H237 H 0.51255 0.95636 0.39289 0.0
H238 H 0.43925 0.82 0.43224 0.0
C239 C 0.30611 0.86549 0.39231 0.0
O240 O 0.29359 0.89992 0.37081 0.0
N241 N 0.33815 0.99387 0.42635 0.0
C242 C 0.34703 0.04442 0.43792 0.0
C243 C 0.30021 0.07427 0.43714 0.0
C244 C 0.28407 0.99391 0.41956 0.0
N245 N 0.26072 0.04273 0.4257 0.0
C246 C 0.40325 0.01884 0.36965 0.0
C247 C 0.41049 0.94492 0.32315 0.0
C248 C 0.41862 1.00064 0.31722 0.0
C249 C 0.41435 0.03772 0.34086 0.0
C250 C 0.40114 0.92753 0.3526 0.0
N251 N 0.39669 0.96446 0.37538 0.0
H252 H 0.40337 0.04799 0.38768 0.0
H253 H 0.39975 0.8843 0.35731 0.0
H254 H 0.38545 0.06102 0.44532 0.0
H255 H 0.26192 0.96018 0.41004 0.0
O256 O 0.44999 0.99419 0.43224 0.0
O257 O 0.41034 0.93191 0.45973 0.0
O258 O 0.34401 0.87739 0.41119 0.0
C259 C 0.44402 0.97309 0.45868 0.0
H260 H 0.54637 0.80372 0.43029 0.0
H261 H 0.2954 0.11631 0.44411 0.0
H262 H 0.4142 0.91499 0.30545 0.0
H263 H 0.42128 0.08093 0.33725 0.0
Co264 Co 0.43775 0.91115 0.9162 0.0
C265 C 0.41481 0.02292 0.89925 0.0
C266 C 0.34813 0.99065 0.92458 0.0
C267 C 0.34352 0.04685 0.92358 0.0
N268 N 0.39295 0.97548 0.90917 0.0
N269 N 0.38634 0.06712 0.90819 0.0
H270 H 0.4558 0.02571 0.89034 0.0
H271 H 0.32466 0.96372 0.93884 0.0
C272 C 0.3285 0.86205 0.89508 0.0
O273 O 0.30987 0.90965 0.88639 0.0
N274 N 0.48488 0.84872 0.9236 0.0
C275 C 0.50851 0.83463 0.94987 0.0
C276 C 0.54048 0.78975 0.94565 0.0
C277 C 0.50161 0.81031 0.90391 0.0
N278 N 0.53626 0.77451 0.91686 0.0
C279 C 0.5205 0.92957 0.87318 0.0
C280 C 0.45455 0.92989 0.82291 0.0
C281 C 0.50944 0.94551 0.82021 0.0
C282 C 0.54276 0.94451 0.84567 0.0
C283 C 0.43356 0.91649 0.85107 0.0
N284 N 0.46632 0.91713 0.87581 0.0
H285 H 0.54648 0.92994 0.89276 0.0
H286 H 0.39072 0.90814 0.85297 0.0
H287 H 0.50208 0.8538 0.97127 0.0
H288 H 0.48727 0.80732 0.88104 0.0
O289 O 0.48938 0.95908 0.9359 0.0
O290 O 0.42249 0.91546 0.9587 0.0
O291 O 0.37769 0.85678 0.90462 0.0
C292 C 0.46355 0.94923 0.9607 0.0
H293 H 0.31602 0.07106 0.93705 0.0
H294 H 0.56219 0.7674 0.96288 0.0
H295 H 0.42768 0.9303 0.80362 0.0
H296 H 0.58538 0.95624 0.84437 0.0
Co297 Co 0.61939 0.4508 0.42894 0.0
C298 C 0.51044 0.41167 0.4181 0.0
C299 C 0.54987 0.35877 0.44944 0.0
C300 C 0.49429 0.34845 0.45013 0.0
N301 N 0.55994 0.39852 0.42916 0.0
N302 N 0.46997 0.38291 0.43076 0.0
H303 H 0.50271 0.44684 0.40423 0.0
H304 H 0.5796 0.34278 0.46498 0.0
C305 C 0.67064 0.34146 0.41163 0.0
O306 O 0.62231 0.32373 0.40342 0.0
N307 N 0.67495 0.50752 0.42853 0.0
C308 C 0.66317 0.56129 0.4263 0.0
C309 C 0.71037 0.59092 0.42532 0.0
C310 C 0.73016 0.50519 0.42855 0.0
N311 N 0.75225 0.55589 0.42663 0.0
C312 C 0.57317 0.51312 0.38127 0.0
C313 C 0.60904 0.45139 0.3337 0.0
C314 C 0.57667 0.49739 0.32831 0.0
C315 C 0.55904 0.52855 0.35237 0.0
C316 C 0.62272 0.43741 0.36322 0.0
N317 N 0.60438 0.46785 0.38678 0.0
H318 H 0.55687 0.53716 0.39924 0.0
H319 H 0.64747 0.40205 0.36661 0.0
H320 H 0.62282 0.57865 0.42531 0.0
H321 H 0.75358 0.46785 0.42977 0.0
O322 O 0.56879 0.50124 0.44746 0.0
O323 O 0.62346 0.44679 0.47262 0.0
O324 O 0.67719 0.39158 0.41976 0.0
C325 C 0.58466 0.48298 0.47327 0.0
H326 H 0.47306 0.32244 0.4659 0.0
H327 H 0.71396 0.63489 0.4236 0.0
H328 H 0.62334 0.4265 0.3153 0.0
H329 H 0.53361 0.56417 0.34887 0.0
Co330 Co 0.08106 0.61127 0.91533 0.0
C331 C 0.09717 0.50084 0.89432 0.0
C332 C 0.16934 0.52979 0.91657 0.0
C333 C 0.17305 0.4738 0.91322 0.0
N334 N 0.12112 0.54622 0.90522 0.0
N335 N 0.12714 0.45579 0.89963 0.0
H336 H 0.05484 0.49947 0.88728 0.0
H337 H 0.19636 0.55524 0.92975 0.0
C338 C 0.15212 0.70346 0.89244 0.0
O339 O 0.11042 0.72234 0.87719 0.0
N340 N 0.03948 0.67611 0.92603 0.0
C341 C 0.03368 0.69588 0.95408 0.0
C342 C 0.99989 0.74018 0.95341 0.0
C343 C 1.0095 0.71004 0.90858 0.0
N344 N 0.98508 0.74925 0.92484 0.0
C345 C 1.00001 0.6021 0.86987 0.0
C346 C 0.07077 0.59887 0.82179 0.0
C347 C 0.01573 0.58485 0.8173 0.0
C348 C 0.98001 0.58772 0.84166 0.0
C349 C 0.08946 0.61148 0.85061 0.0
N350 N 0.05421 0.61296 0.87426 0.0
H351 H 0.97228 0.60176 0.88864 0.0
H352 H 0.13281 0.61611 0.85426 0.0
H353 H 0.05336 0.68041 0.97399 0.0
H354 H 1.00753 0.70833 0.88444 0.0
O355 O 0.02412 0.56585 0.93265 0.0
O356 O 0.0952 0.59749 0.95763 0.0
O357 O 0.14817 0.65827 0.9068 0.0
C358 C 0.05022 0.569 0.95797 0.0
H359 H 0.20344 0.44776 0.92352 0.0
H360 H 0.99016 0.76641 0.97215 0.0
H361 H 0.09969 0.59644 0.80353 0.0
H362 H 0.93735 0.57679 0.83913 0.0
Co363 Co 0.89716 0.06851 0.42124 0.0
C364 C 1.00707 0.0941 0.40296 0.0
C365 C 0.96853 0.16622 0.41986 0.0
C366 C 0.02407 0.17591 0.41737 0.0
N367 N 0.95853 0.11443 0.41126 0.0
N368 N 0.04802 0.12954 0.40776 0.0
H369 H 0.01323 0.05187 0.39683 0.0
H370 H 0.93904 0.19269 0.43043 0.0
C371 C 0.81071 0.1524 0.39856 0.0
O372 O 0.79924 0.12528 0.37404 0.0
N373 N 0.83616 0.02001 0.43144 0.0
C374 C 0.83885 0.9764 0.45012 0.0
C375 C 0.79139 0.94704 0.44847 0.0
C376 C 0.78635 0.01552 0.41832 0.0
N377 N 0.75871 0.97134 0.42843 0.0
C378 C 0.89759 0.99132 0.37397 0.0
C379 C 0.91471 0.06477 0.32791 0.0
C380 C 0.92327 1.00899 0.32252 0.0
C381 C 0.91321 0.97203 0.34583 0.0
C382 C 0.90125 0.08252 0.35674 0.0
N383 N 0.89313 0.04598 0.37947 0.0
H384 H 0.89359 0.96236 0.3921 0.0
H385 H 0.90124 0.12583 0.36124 0.0
H386 H 0.87352 0.96414 0.46337 0.0
H387 H 0.77103 0.04244 0.40119 0.0
O388 O 0.94796 0.01288 0.43541 0.0
O389 O 0.91518 0.07891 0.46326 0.0
O390 O 0.8461 0.13444 0.41734 0.0
C391 C 0.94811 0.03736 0.46122 0.0
H392 H 0.04577 0.21121 0.42588 0.0
H393 H 0.78173 0.91006 0.4607 0.0
H394 H 0.92244 0.09466 0.31053 0.0
H395 H 0.91985 0.9287 0.3427 0.0
Co396 Co 0.44768 0.61598 0.11349 0.0
C397 C 0.40625 0.50634 0.12363 0.0
C398 C 0.3505 0.55062 0.09592 0.0
C399 C 0.33781 0.49555 0.09435 0.0
N400 N 0.39429 0.55714 0.11398 0.0
N401 N 0.37364 0.46795 0.11161 0.0
H402 H 0.44362 0.4958 0.13492 0.0
H403 H 0.33307 0.58256 0.0822 0.0
C404 C 0.34205 0.66809 0.13564 0.0
O405 O 0.32538 0.62093 0.14625 0.0
N406 N 0.50361 0.67169 0.11374 0.0
C407 C 0.5573 0.6615 0.11788 0.0
C408 C 0.58486 0.70994 0.12085 0.0
C409 C 0.49902 0.72658 0.11458 0.0
N410 N 0.54821 0.75047 0.11892 0.0
C411 C 0.50934 0.56213 0.15903 0.0
C412 C 0.46286 0.61136 0.20823 0.0
C413 C 0.50266 0.57111 0.2124 0.0
C414 C 0.52657 0.54705 0.1875 0.0
C415 C 0.44687 0.62559 0.17911 0.0
N416 N 0.46839 0.59935 0.15486 0.0
H417 H 0.52863 0.54251 0.14029 0.0
H418 H 0.41821 0.65826 0.17643 0.0
H419 H 0.5754 0.6214 0.11922 0.0
H420 H 0.46094 0.74862 0.11255 0.0
O421 O 0.497 0.56704 0.09242 0.0
O422 O 0.43976 0.6228 0.07 0.0
O423 O 0.39037 0.6731 0.12485 0.0
C424 C 0.47667 0.58502 0.06745 0.0
H425 H 0.3095 0.47687 0.07877 0.0
H426 H 0.62832 0.71523 0.12436 0.0
H427 H 0.44474 0.63179 0.22725 0.0
H428 H 0.55814 0.51644 0.19006 0.0
Co429 Co 0.92139 0.41871 0.60765 0.0
C430 C 0.03092 0.41025 0.63178 0.0
C431 C 0.01405 0.34166 0.60372 0.0
C432 C 0.06999 0.34646 0.60718 0.0
N433 N 0.98929 0.38232 0.61884 0.0
N434 N 0.08055 0.39036 0.62442 0.0
H435 H 0.02574 0.45013 0.64174 0.0
H436 H 0.99355 0.31478 0.58812 0.0
C437 C 0.88119 0.30479 0.62737 0.0
O438 O 0.93001 0.29043 0.6365 0.0
N439 N 0.85551 0.45816 0.59636 0.0
C440 C 0.84419 0.48065 0.56939 0.0
C441 C 0.79811 0.51184 0.57166 0.0
C442 C 0.81434 0.47457 0.61438 0.0
N443 N 0.77947 0.50814 0.59987 0.0
C444 C 0.92521 0.50434 0.65049 0.0
C445 C 0.92602 0.4395 0.70114 0.0
C446 C 0.9385 0.49523 0.70391 0.0
C447 C 0.93656 0.52801 0.67824 0.0
C448 C 0.91647 0.41715 0.67277 0.0
N449 N 0.91742 0.4493 0.64782 0.0
H450 H 0.9258 0.52988 0.63076 0.0
H451 H 0.91196 0.37372 0.67084 0.0
H452 H 0.86754 0.47577 0.54915 0.0
H453 H 0.81035 0.46312 0.63768 0.0
O454 O 0.96618 0.47458 0.58947 0.0
O455 O 0.93523 0.40244 0.56551 0.0
O456 O 0.8721 0.35338 0.61776 0.0
C457 C 0.96468 0.44686 0.56469 0.0
H458 H 0.10044 0.32405 0.59471 0.0
H459 H 0.77901 0.53494 0.55381 0.0
H460 H 0.92712 0.41292 0.72053 0.0
H461 H 0.94579 0.57122 0.67948 0.0
Co462 Co 0.09239 0.91549 0.11269 0.0
C463 C 0.09872 0.02781 0.13259 0.0
C464 C 0.17392 1.00411 0.11196 0.0
C465 C 0.17203 0.06051 0.11345 0.0
N466 N 0.12711 0.98389 0.12326 0.0
N467 N 0.12418 0.07526 0.12597 0.0
H468 H 0.05626 0.02561 0.1392 0.0
H469 H 0.20352 0.98036 0.09967 0.0
C470 C 0.16554 0.82658 0.13675 0.0
O471 O 0.12301 0.80498 0.15007 0.0
N472 N 0.05582 0.84785 0.10139 0.0
C473 C 0.05421 0.82691 0.07341 0.0
C474 C 0.02048 0.78241 0.07304 0.0
C475 C 0.02353 0.81436 0.11781 0.0
N476 N 1.00162 0.77436 0.10094 0.0
C477 C 1.00735 0.92253 0.15594 0.0
C478 C 0.07314 0.92348 0.20628 0.0
C479 C 0.0174 0.93577 0.20937 0.0
C480 C 0.98439 0.9345 0.18374 0.0
C481 C 0.09496 0.91385 0.17778 0.0
N482 N 0.06208 0.91297 0.15304 0.0
H483 H 0.98131 0.92314 0.13641 0.0
H484 H 0.13866 0.91024 0.17549 0.0
H485 H 0.07623 0.84215 0.05423 0.0
H486 H 0.01764 0.81732 0.1417 0.0
O487 O 0.03424 0.95597 0.0932 0.0
O488 O 0.10956 0.92897 0.07069 0.0
O489 O 0.16143 0.87288 0.12345 0.0
C490 C 0.06274 0.95382 0.06872 0.0
H491 H 0.20015 0.08834 0.10261 0.0
H492 H 0.01277 0.75589 0.05411 0.0
H493 H 0.10012 0.92462 0.22551 0.0
H494 H 0.9413 0.94414 0.18509 0.0
Co495 Co 0.6295 0.05622 0.60309 0.0
C496 C 0.52082 0.09491 0.61448 0.0
C497 C 0.56733 0.15941 0.59424 0.0
C498 C 0.51273 0.17439 0.59481 0.0
N499 N 0.57178 0.10923 0.60638 0.0
N500 N 0.48393 0.13306 0.60719 0.0
H501 H 0.50995 0.05453 0.6224 0.0
H502 H 0.60011 0.18099 0.58311 0.0
C503 C 0.72538 0.123 0.6293 0.0
O504 O 0.73564 0.08494 0.64929 0.0
N505 N 0.68537 0.99947 0.5999 0.0
C506 C 0.67456 0.94527 0.59836 0.0
C507 C 0.7222 0.91631 0.59962 0.0
C508 C 0.74059 1.00235 0.60064 0.0
N509 N 0.76338 0.95222 0.60124 0.0
C510 C 0.59948 0.98934 0.65275 0.0
C511 C 0.60837 0.06813 0.69665 0.0
C512 C 0.58952 0.01587 0.70435 0.0
C513 C 0.58495 0.97642 0.68198 0.0
C514 C 0.62142 0.07969 0.66678 0.0
N515 N 0.61908 0.03983 0.64541 0.0
H516 H 0.59172 0.9593 0.63581 0.0
H517 H 0.6313 0.12117 0.66065 0.0
H518 H 0.63468 0.92693 0.59714 0.0
H519 H 0.76423 0.03944 0.60097 0.0
O520 O 0.57543 1.00679 0.58614 0.0
O521 O 0.62725 0.06189 0.55968 0.0
O522 O 0.68586 0.11681 0.61068 0.0
C523 C 0.58722 0.02685 0.55999 0.0
H524 H 0.49499 0.20979 0.58404 0.0
H525 H 0.72647 0.87232 0.59988 0.0
H526 H 0.6109 0.1001 0.71332 0.0
H527 H 0.56889 0.93617 0.68697 0.0
C528 C 0.42349 0.08814 0.24667 0.0
C529 C 0.46973 0.06635 0.23179 0.0
C530 C 0.48416 1.00284 0.27352 0.0
C531 C 0.4347 0.02067 0.28689 0.0
N532 N 0.35063 0.07128 0.28207 0.0
N533 N 0.53448 0.99239 0.22742 0.0
C534 C 0.40228 0.06062 0.27218 0.0
C535 C 0.49721 0.02045 0.2441 0.0
N536 N 0.40108 0.13624 0.23725 0.0
N537 N 0.52022 0.97142 0.28931 0.0
H538 H 0.5437 1.00246 0.20531 0.0
H539 H 0.55167 0.95562 0.23443 0.0
H540 H 0.51384 0.95957 0.31144 0.0
H541 H 0.55912 0.96202 0.28144 0.0
H542 H 0.37075 0.1566 0.24913 0.0
H543 H 0.41643 0.15856 0.21924 0.0
H544 H 0.32343 0.0963 0.27051 0.0
H545 H 0.33304 0.05068 0.3001 0.0
C546 C 0.51594 0.43556 0.76972 0.0
C547 C 0.4987 0.45814 0.79734 0.0
C548 C 0.43897 0.52108 0.7699 0.0
C549 C 0.46236 0.50396 0.74245 0.0
N550 N 0.53545 0.45498 0.7179 0.0
N551 N 0.45508 0.53369 0.82273 0.0
C552 C 0.50444 0.46401 0.74278 0.0
C553 C 0.46333 0.50417 0.79723 0.0
N554 N 0.54192 0.3863 0.76899 0.0
N555 N 0.39264 0.55201 0.77008 0.0
H556 H 0.47513 0.52541 0.84283 0.0
H557 H 0.43334 0.57024 0.82292 0.0
H558 H 0.372 0.56319 0.75058 0.0
H559 H 0.37165 0.56134 0.78969 0.0
H560 H 0.55098 0.36622 0.74905 0.0
H561 H 0.54888 0.36288 0.78813 0.0
H562 H 0.56952 0.42951 0.71804 0.0
H563 H 0.53129 0.47766 0.69826 0.0
C564 C 1.00972 0.51744 0.23895 0.0
C565 C 0.01568 0.46167 0.23089 0.0
C566 C 0.07142 0.446 0.2758 0.0
C567 C 0.05982 0.49983 0.28561 0.0
N568 N 0.01272 0.58522 0.27844 0.0
N569 N 0.04682 0.37098 0.24298 0.0
C570 C 0.02775 0.53528 0.26763 0.0
C571 C 0.04531 0.42543 0.24964 0.0
N572 N 0.98832 0.55373 0.21883 0.0
N573 N 0.10827 0.41496 0.29129 0.0
H574 H 0.02813 0.35446 0.22403 0.0
H575 H 0.06267 0.34153 0.25738 0.0
H576 H 0.12829 0.42897 0.31045 0.0
H577 H 0.12272 0.37749 0.28375 0.0
H578 H 0.98843 0.59581 0.22212 0.0
H579 H 0.97459 0.54234 0.19761 0.0
H580 H 0.98403 0.61016 0.26798 0.0
H581 H 0.026 0.60025 0.29904 0.0
C582 C 0.02356 0.01999 0.74683 0.0
C583 C 0.06943 0.04866 0.7353 0.0
C584 C 0.0651 0.11181 0.77784 0.0
C585 C 0.02448 0.07844 0.79135 0.0
N586 N 0.97289 0.99414 0.79101 0.0
N587 N 0.13926 0.11723 0.74211 0.0
C588 C 1.00569 0.03074 0.77645 0.0
C589 C 0.09166 0.09349 0.75139 0.0
N590 N 0.99594 0.9836 0.72918 0.0
N591 N 0.0773 0.16168 0.78985 0.0
H592 H 0.16032 0.10448 0.72311 0.0
H593 H 0.16039 0.1462 0.75469 0.0
H594 H 0.05791 0.1769 0.80885 0.0
H595 H 0.10265 0.19003 0.77937 0.0
H596 H 0.95904 0.96573 0.73548 0.0
H597 H 1.00673 0.97557 0.70706 0.0
H598 H 0.96286 0.95603 0.78221 0.0
H599 H 0.96011 0.99929 0.81306 0.0
C600 C 0.5749 0.93687 0.77701 0.0
C601 C 0.53154 0.96525 0.79111 0.0
C602 C 0.52538 0.02714 0.74806 0.0
C603 C 0.57201 1.00194 0.73532 0.0
N604 N 0.64884 0.94133 0.7412 0.0
N605 N 0.47526 0.04608 0.79345 0.0
C606 C 0.59922 0.95943 0.75095 0.0
C607 C 0.50968 0.01307 0.77767 0.0
N608 N 0.59132 0.8872 0.78768 0.0
N609 N 0.49437 0.06245 0.73153 0.0
H610 H 0.46406 0.03822 0.81555 0.0
H611 H 0.46248 0.0841 0.78568 0.0
H612 H 0.50334 0.07289 0.70946 0.0
H613 H 0.45682 0.07728 0.73879 0.0
H614 H 0.61897 0.86233 0.77645 0.0
H615 H 0.57341 0.86836 0.80617 0.0
H616 H 0.67288 0.91406 0.75333 0.0
H617 H 0.66846 0.95781 0.72254 0.0
C618 C 0.50976 0.4927 0.2859 0.0
C619 C 0.55954 0.5133 0.29772 0.0
C620 C 0.56804 0.57659 0.25544 0.0
C621 C 0.5202 0.55352 0.24265 0.0
N622 N 0.44911 0.48522 0.24308 0.0
N623 N 0.64012 0.56913 0.29264 0.0
C624 C 0.49199 0.51033 0.25717 0.0
C625 C 0.58992 0.55362 0.28212 0.0
N626 N 0.47874 0.4575 0.30255 0.0
N627 N 0.59171 0.62126 0.24236 0.0
H628 H 0.657 0.55352 0.31232 0.0
H629 H 0.66695 0.59413 0.28086 0.0
H630 H 0.57703 0.63873 0.22261 0.0
H631 H 0.62324 0.64365 0.25209 0.0
H632 H 0.43904 0.44616 0.2969 0.0
H633 H 0.49137 0.44203 0.3232 0.0
H634 H 0.43093 0.44942 0.25078 0.0
H635 H 0.43372 0.49819 0.22248 0.0
C636 C 0.01983 0.51429 0.77619 0.0
C637 C 0.99627 0.56267 0.78795 0.0
C638 C 0.9297 0.56243 0.7467 0.0
C639 C 0.9579 0.5184 0.73304 0.0
N640 N 0.03916 0.46247 0.73153 0.0
N641 N 0.93548 0.63908 0.78079 0.0
C642 C 1.00572 0.4972 0.74683 0.0
C643 C 0.95306 0.58862 0.77215 0.0
N644 N 0.05385 0.4831 0.79342 0.0
N645 N 0.87975 0.57808 0.73608 0.0
H646 H 0.95267 0.66028 0.79874 0.0
H647 H 0.90777 0.66208 0.76835 0.0
H648 H 0.86054 0.55886 0.71808 0.0
H649 H 0.85511 0.60638 0.74698 0.0
H650 H 0.06777 0.44484 0.78672 0.0
H651 H 0.06327 0.49238 0.81561 0.0
H652 H 0.07709 0.45013 0.73971 0.0
H653 H 0.03205 0.45087 0.70942 0.0
C654 C 0.94799 0.92604 0.25113 0.0
C655 C 0.99403 0.95345 0.23881 0.0
C656 C 0.99806 0.01136 0.28351 0.0
C657 C 0.94734 0.98977 0.29355 0.0
N658 N 0.86837 0.93372 0.28286 0.0
N659 N 0.05339 0.03258 0.24039 0.0
C660 C 0.92062 0.94907 0.27619 0.0
C661 C 0.01643 0.99912 0.25416 0.0
N662 N 0.93142 0.87707 0.23963 0.0
N663 N 0.03011 0.04164 0.30231 0.0
H664 H 0.06567 0.02736 0.21826 0.0
H665 H 0.06693 0.06907 0.24987 0.0
H666 H 0.02008 0.04886 0.32461 0.0
H667 H 0.06954 0.05403 0.29668 0.0
H668 H 0.90123 0.85311 0.24956 0.0
H669 H 0.95176 0.85768 0.22214 0.0
H670 H 0.84536 0.90796 0.26919 0.0
H671 H 0.84608 0.95115 0.30025 0.0
C672 C 0.73138 0.2392 0.0988 0.0
C673 C 0.70354 0.22661 0.12581 0.0
C674 C 0.76133 0.29313 0.15264 0.0
C675 C 0.79409 0.29967 0.12669 0.0
N676 N 0.81327 0.27548 0.07545 0.0
N677 N 0.69135 0.24108 0.17862 0.0
C678 C 0.77937 0.27253 0.09969 0.0
C679 C 0.71813 0.25382 0.15274 0.0
N680 N 0.71237 0.21863 0.07232 0.0
N681 N 0.77086 0.32555 0.17698 0.0
H682 H 0.65699 0.21589 0.17906 0.0
H683 H 0.70422 0.25359 0.19975 0.0
H684 H 0.80181 0.35485 0.17748 0.0
H685 H 0.74552 0.32693 0.19563 0.0
H686 H 0.72711 0.23067 0.05149 0.0
H687 H 0.67854 0.19282 0.07094 0.0
H688 H 0.80868 0.25144 0.05641 0.0
H689 H 0.84874 0.29908 0.07506 0.0
C690 C 0.25697 0.79626 0.60584 0.0
C691 C 0.24241 0.82487 0.63223 0.0
C692 C 0.30661 0.768 0.66124 0.0
C693 C 0.31419 0.73399 0.63592 0.0
N694 N 0.29449 0.71371 0.58413 0.0
N695 N 0.25465 0.84045 0.68495 0.0
C696 C 0.28973 0.74819 0.60803 0.0
C697 C 0.26815 0.81173 0.65986 0.0
N698 N 0.23868 0.81453 0.57871 0.0
N699 N 0.33706 0.75888 0.68644 0.0
H700 H 0.23045 0.87538 0.68416 0.0
H701 H 0.26593 0.82905 0.70654 0.0
H702 H 0.36574 0.72752 0.68789 0.0
H703 H 0.33748 0.7847 0.70491 0.0
H704 H 0.25217 0.79912 0.55833 0.0
H705 H 0.21354 0.84857 0.57639 0.0
H706 H 0.27209 0.71781 0.56444 0.0
H707 H 0.31815 0.67844 0.58455 0.0
C708 C 0.75909 0.21624 0.93124 0.0
C709 C 0.79415 0.20955 0.90627 0.0
C710 C 0.74854 0.28636 0.88092 0.0
C711 C 0.70893 0.28799 0.90408 0.0
N712 N 0.67385 0.2522 0.95056 0.0
N713 N 0.82308 0.23739 0.85715 0.0
C714 C 0.71392 0.25284 0.92929 0.0
C715 C 0.78944 0.2448 0.88115 0.0
N716 N 0.76943 0.1878 0.95699 0.0
N717 N 0.74759 0.3254 0.85904 0.0
H718 H 0.8553 0.20966 0.85736 0.0
H719 H 0.81783 0.2568 0.83662 0.0
H720 H 0.71842 0.35637 0.85843 0.0
H721 H 0.77794 0.33007 0.84297 0.0
H722 H 0.74908 0.19466 0.97706 0.0
H723 H 0.8019 0.16051 0.95904 0.0
H724 H 0.67135 0.22302 0.96746 0.0
H725 H 0.64061 0.27872 0.95025 0.0
C726 C 0.23098 0.73467 0.36799 0.0
C727 C 0.20918 0.71492 0.39545 0.0
C728 C 0.25121 0.79381 0.42142 0.0
C729 C 0.27568 0.81171 0.39419 0.0
N730 N 0.30015 0.78956 0.34337 0.0
N731 N 0.20872 0.71996 0.44937 0.0
C732 C 0.26878 0.7793 0.36802 0.0
C733 C 0.22304 0.74241 0.42251 0.0
N734 N 0.21509 0.71139 0.34159 0.0
N735 N 0.25133 0.82744 0.44581 0.0
H736 H 0.18719 0.6834 0.45122 0.0
H737 H 0.22259 0.73493 0.46984 0.0
H738 H 0.26924 0.86607 0.44583 0.0
H739 H 0.22898 0.81946 0.46513 0.0
H740 H 0.22386 0.72836 0.32076 0.0
H741 H 0.19004 0.67705 0.34047 0.0
H742 H 0.30114 0.76406 0.32475 0.0
H743 H 0.32976 0.82014 0.34278 0.0
C744 C 0.22128 0.7595 0.92143 0.0
C745 C 0.2033 0.73695 0.89377 0.0
C746 C 0.2716 0.79265 0.86704 0.0
C747 C 0.29031 0.81428 0.89472 0.0
N748 N 0.29043 0.81064 0.94866 0.0
N749 N 0.21867 0.72315 0.84113 0.0
C750 C 0.26783 0.79479 0.92204 0.0
C751 C 0.23073 0.75094 0.86683 0.0
N752 N 0.1916 0.75047 0.94687 0.0
N753 N 0.29224 0.81274 0.84084 0.0
H754 H 0.18948 0.69215 0.84027 0.0
H755 H 0.24072 0.72718 0.82136 0.0
H756 H 0.32461 0.84041 0.84013 0.0
H757 H 0.27566 0.80419 0.81989 0.0
H758 H 0.19839 0.7711 0.9669 0.0
H759 H 0.15708 0.72555 0.94753 0.0
H760 H 0.28014 0.79312 0.96914 0.0
H761 H 0.32269 0.83835 0.9502 0.0
C762 C 0.79014 0.2514 0.38625 0.0
C763 C 0.78111 0.20486 0.40474 0.0
C764 C 0.71375 0.2575 0.43362 0.0
C765 C 0.71636 0.30056 0.41235 0.0
N766 N 0.75844 0.34018 0.36889 0.0
N767 N 0.73172 0.16232 0.44519 0.0
C768 C 0.75548 0.29824 0.38898 0.0
C769 C 0.74268 0.20781 0.42846 0.0
N770 N 0.83288 0.25126 0.36663 0.0
N771 N 0.68438 0.26487 0.45923 0.0
H772 H 0.75222 0.12543 0.44239 0.0
H773 H 0.6996 0.1598 0.46037 0.0
H774 H 0.66493 0.30165 0.46402 0.0
H775 H 0.68432 0.2374 0.47703 0.0
H776 H 0.84529 0.28533 0.35446 0.0
H777 H 0.85904 0.218 0.36429 0.0
H778 H 0.78047 0.33846 0.34903 0.0
H779 H 0.73729 0.37663 0.37184 0.0
C780 C 0.24223 0.7779 0.16331 0.0
C781 C 0.21748 0.79427 0.13598 0.0
C782 C 0.2835 0.73744 0.10835 0.0
C783 C 0.30331 0.71556 0.13585 0.0
N784 N 0.29944 0.713 0.1898 0.0
N785 N 0.21055 0.78507 0.08235 0.0
C786 C 0.28216 0.73544 0.16341 0.0
C787 C 0.23765 0.77356 0.10841 0.0
N788 N 0.22844 0.80415 0.18918 0.0
N789 N 0.30759 0.72288 0.08197 0.0
H790 H 0.17706 0.81114 0.08119 0.0
H791 H 0.21845 0.76563 0.06212 0.0
H792 H 0.33831 0.6937 0.08041 0.0
H793 H 0.29979 0.7425 0.06173 0.0
H794 H 0.24864 0.79845 0.20946 0.0
H795 H 0.19996 0.83573 0.18977 0.0
H796 H 0.28071 0.72031 0.21029 0.0
H797 H 0.33082 0.68447 0.19111 0.0
C798 C 0.78563 0.19054 0.60073 0.0
C799 C 0.76119 0.17316 0.6281 0.0
C800 C 0.8146 0.24345 0.655 0.0
C801 C 0.83648 0.26272 0.62751 0.0
N802 N 0.83517 0.26091 0.57358 0.0
N803 N 0.74284 0.19276 0.68004 0.0
C804 C 0.81913 0.2385 0.60019 0.0
C805 C 0.77306 0.20238 0.65488 0.0
N806 N 0.78012 0.15939 0.57552 0.0
N807 N 0.83394 0.26388 0.68142 0.0
H808 H 0.71094 0.16459 0.68076 0.0
H809 H 0.74546 0.21661 0.69926 0.0
H810 H 0.86197 0.29585 0.68255 0.0
H811 H 0.82494 0.24673 0.70218 0.0
H812 H 0.80232 0.16622 0.55602 0.0
H813 H 0.75726 0.12358 0.57465 0.0
H814 H 0.81874 0.24938 0.55301 0.0
H815 H 0.86174 0.29413 0.57211 0.0
C816 C 0.57413 0.8317 0.14814 0.0
C817 C 0.56102 0.80755 0.12024 0.0
C818 C 0.58101 0.89308 0.09455 0.0
C819 C 0.59991 0.91575 0.12193 0.0
N820 N 0.61676 0.90754 0.17462 0.0
N821 N 0.55825 0.81148 0.06658 0.0
C822 C 0.59683 0.88529 0.14879 0.0
C823 C 0.56597 0.83731 0.09335 0.0
N824 N 0.56404 0.80321 0.17384 0.0
N825 N 0.5752 0.92561 0.07 0.0
H826 H 0.54649 0.77062 0.06504 0.0
H827 H 0.56739 0.8292 0.04598 0.0
H828 H 0.58482 0.96688 0.07037 0.0
H829 H 0.55605 0.91302 0.05035 0.0
H830 H 0.5686 0.81937 0.19522 0.0
H831 H 0.54724 0.76399 0.17361 0.0
H832 H 0.61999 0.88642 0.19475 0.0
H833 H 0.63317 0.94689 0.17539 0.0
C834 C 0.72988 0.57255 0.63337 0.0
C835 C 0.72959 0.53247 0.61037 0.0
C836 C 0.63723 0.55862 0.59655 0.0
C837 C 0.63465 0.5943 0.62129 0.0
N838 N 0.67553 0.63099 0.66577 0.0
N839 N 0.67775 0.47726 0.57607 0.0
C840 C 0.68014 0.59987 0.64063 0.0
C841 C 0.68138 0.52224 0.59398 0.0
N842 N 0.77778 0.58646 0.64707 0.0
N843 N 0.59909 0.56181 0.57444 0.0
H844 H 0.70907 0.44851 0.57475 0.0
H845 H 0.64167 0.46565 0.56536 0.0
H846 H 0.56805 0.5908 0.57455 0.0
H847 H 0.60323 0.54076 0.55439 0.0
H848 H 0.78139 0.61882 0.66204 0.0
H849 H 0.81488 0.56819 0.64173 0.0
H850 H 0.70554 0.63284 0.6823 0.0
H851 H 0.63973 0.65208 0.67086 0.0
C852 C 0.96825 0.62877 0.10071 0.0
C853 C 0.91667 0.62659 0.11492 0.0
C854 C 0.92153 0.72556 0.12249 0.0
C855 C 0.97546 0.72514 0.11091 0.0
N856 N 0.05581 0.67337 0.09909 0.0
N857 N 0.84732 0.67171 0.14369 0.0
C858 C 1.00083 0.67543 0.10383 0.0
C859 C 0.89414 0.67475 0.12731 0.0
N860 N 0.98366 0.58852 0.08165 0.0
N861 N 0.89597 0.77406 0.12756 0.0
H862 H 0.82702 0.6348 0.14735 0.0
H863 H 0.83127 0.70476 0.15535 0.0
H864 H 0.91528 0.81154 0.12414 0.0
H865 H 0.85488 0.77699 0.1333 0.0
H866 H 0.01957 0.58991 0.06915 0.0
H867 H 0.95577 0.55906 0.07495 0.0
H868 H 0.07645 0.63677 0.09545 0.0
H869 H 0.08099 0.70739 0.10217 0.0
C870 C 0.84164 0.93613 0.63474 0.0
C871 C 0.81971 0.93826 0.60542 0.0
C872 C 0.90643 0.90742 0.58452 0.0
C873 C 0.92773 0.90208 0.61411 0.0
N874 N 0.91469 0.90441 0.6673 0.0
N875 N 0.8266 0.92025 0.55287 0.0
C876 C 0.89497 0.91474 0.63923 0.0
C877 C 0.85076 0.92179 0.58047 0.0
N878 N 0.81105 0.95451 0.65818 0.0
N879 N 0.94008 0.9023 0.56032 0.0
H880 H 0.78689 0.93409 0.5491 0.0
H881 H 0.84435 0.90261 0.5341 0.0
H882 H 0.98212 0.89745 0.56202 0.0
H883 H 0.92778 0.9089 0.53833 0.0
H884 H 0.82601 0.95929 0.67983 0.0
H885 H 0.77095 0.96804 0.65559 0.0
H886 H 0.89185 0.90843 0.68677 0.0
H887 H 0.95328 0.88766 0.67099 0.0
C888 C 0.55793 0.62816 0.92341 0.0
C889 C 0.60474 0.61948 0.90549 0.0
C890 C 0.60152 0.71542 0.88996 0.0
C891 C 0.55258 0.72172 0.90645 0.0
N892 N 0.47596 0.68069 0.93112 0.0
N893 N 0.66707 0.6523 0.86813 0.0
C894 C 0.52761 0.67635 0.92 0.0
C895 C 0.62531 0.66241 0.88745 0.0
N896 N 0.54575 0.59272 0.94586 0.0
N897 N 0.62597 0.7604 0.87791 0.0
H898 H 0.68502 0.61381 0.86643 0.0
H899 H 0.68125 0.68076 0.85264 0.0
H900 H 0.60805 0.79898 0.87901 0.0
H901 H 0.6645 0.75977 0.8681 0.0
H902 H 0.51446 0.59916 0.96122 0.0
H903 H 0.57263 0.56173 0.95157 0.0
H904 H 0.45429 0.64738 0.93956 0.0
H905 H 0.45319 0.71648 0.92897 0.0
C906 C 0.83846 0.57411 0.45314 0.0
C907 C 0.80853 0.57229 0.42613 0.0
C908 C 0.8813 0.62273 0.40052 0.0
C909 C 0.91332 0.62043 0.42688 0.0
N910 N 0.92653 0.58483 0.47661 0.0
N911 N 0.80234 0.58843 0.37327 0.0
C912 C 0.89292 0.59393 0.45283 0.0
C913 C 0.8303 0.59491 0.39952 0.0
N914 N 0.81405 0.55865 0.47928 0.0
N915 N 0.90013 0.65193 0.37661 0.0
H916 H 0.76533 0.56727 0.37213 0.0
H917 H 0.81749 0.59997 0.35246 0.0
H918 H 0.93741 0.67269 0.37719 0.0
H919 H 0.87743 0.65915 0.3573 0.0
H920 H 0.83159 0.56489 0.50027 0.0
H921 H 0.77431 0.54328 0.48012 0.0
H922 H 0.91602 0.55911 0.49423 0.0
H923 H 0.96638 0.59937 0.47747 0.0
C924 C 0.88528 0.85622 0.89894 0.0
C925 C 0.91193 0.90245 0.91125 0.0
C926 C 0.99271 0.84769 0.92136 0.0
C927 C 0.96338 0.80007 0.91427 0.0
N928 N 0.88076 0.75688 0.89729 0.0
N929 N 0.98277 0.9353 0.94392 0.0
C930 C 0.90935 0.80359 0.90294 0.0
C931 C 0.96388 0.89656 0.9248 0.0
N932 N 0.83746 0.86285 0.8837 0.0
N933 N 0.04768 0.8454 0.9263 0.0
H934 H 0.95686 0.96583 0.95127 0.0
H935 H 0.01903 0.93151 0.95603 0.0
H936 H 0.06986 0.80941 0.92352 0.0
H937 H 0.07136 0.88024 0.92993 0.0
H938 H 0.81799 0.83137 0.87219 0.0
H939 H 0.81941 0.90113 0.88102 0.0
H940 H 0.83946 0.75641 0.89168 0.0
H941 H 0.89824 0.71831 0.89974 0.0
C942 C 0.61474 0.92668 0.44034 0.0
C943 C 0.60261 0.90099 0.41263 0.0
C944 C 0.69409 0.92451 0.39424 0.0
C945 C 0.70439 0.95315 0.4212 0.0
N946 N 0.67208 0.99087 0.4673 0.0
N947 N 0.62686 0.88097 0.36186 0.0
C948 C 0.66384 0.95691 0.44347 0.0
C949 C 0.64126 0.90166 0.38911 0.0
N950 N 0.57984 0.92131 0.46391 0.0
N951 N 0.73547 0.91752 0.3742 0.0
H952 H 0.58903 0.86242 0.3581 0.0
H953 H 0.65086 0.88485 0.34277 0.0
H954 H 0.77423 0.93431 0.37742 0.0
H955 H 0.73248 0.89258 0.35542 0.0
H956 H 0.59032 0.93247 0.48564 0.0
H957 H 0.54229 0.90157 0.46243 0.0
H958 H 0.64211 0.99984 0.48303 0.0
H959 H 0.70753 0.01421 0.46972 0.0
C960 C 0.42097 0.21765 0.90263 0.0
C961 C 0.46573 0.22 0.92288 0.0
C962 C 0.45235 0.12468 0.93554 0.0
C963 C 0.41111 0.11988 0.91347 0.0
N964 N 0.35969 0.15985 0.87335 0.0
N965 N 0.5336 0.17224 0.95156 0.0
C966 C 0.39656 0.1659 0.89602 0.0
C967 C 0.48461 0.17216 0.9369 0.0
N968 N 0.40064 0.26482 0.89083 0.0
N969 N 0.45799 0.08538 0.95673 0.0
H970 H 0.55901 0.20649 0.95206 0.0
H971 H 0.55135 0.1369 0.96021 0.0
H972 H 0.43065 0.05307 0.95809 0.0
H973 H 0.48409 0.08952 0.97504 0.0
H974 H 0.36505 0.26651 0.87807 0.0
H975 H 0.41777 0.30291 0.89549 0.0
H976 H 0.35056 0.19062 0.85805 0.0
H977 H 0.34082 0.12244 0.8689 0.0
C978 C 0.33286 0.44331 0.4501 0.0
C979 C 0.30846 0.44397 0.42138 0.0
C980 C 0.38691 0.39513 0.40077 0.0
C981 C 0.41345 0.39864 0.42885 0.0
N982 N 0.41696 0.43806 0.47832 0.0
N983 N 0.31565 0.43028 0.36832 0.0
C984 C 0.38789 0.42593 0.4531 0.0
C985 C 0.33659 0.42262 0.39636 0.0
N986 N 0.30289 0.45748 0.4746 0.0
N987 N 0.40997 0.36491 0.37849 0.0
H988 H 0.27961 0.45191 0.36454 0.0
H989 H 0.33637 0.41998 0.34881 0.0
H990 H 0.44669 0.34399 0.38145 0.0
H991 H 0.39066 0.35673 0.3582 0.0
H992 H 0.31687 0.45242 0.49647 0.0
H993 H 0.26228 0.46996 0.47314 0.0
H994 H 0.40206 0.46298 0.49531 0.0
H995 H 0.45783 0.42767 0.48098 0.0
C996 C 0.10072 0.30469 0.89087 0.0
C997 C 0.05567 0.29878 0.91044 0.0
C998 C 0.06103 0.39419 0.92394 0.0
C999 C 0.10393 0.40204 0.90313 0.0
N1000 N 0.16019 0.36721 0.86366 0.0
N1001 N 0.98348 0.33955 0.93878 0.0
C1002 C 0.1224 0.3579 0.88546 0.0
C1003 C 0.03234 0.34447 0.92435 0.0
N1004 N 0.12356 0.25928 0.87852 0.0
N1005 N 0.051 0.43259 0.94514 0.0
H1006 H 0.96176 0.30285 0.93939 0.0
H1007 H 0.96221 0.37287 0.94733 0.0
H1008 H 0.07656 0.46606 0.94771 0.0
H1009 H 0.02295 0.42726 0.96241 0.0
H1010 H 0.15969 0.25988 0.86628 0.0
H1011 H 0.10713 0.22036 0.88181 0.0
H1012 H 0.17239 0.3377 0.84833 0.0
H1013 H 0.1767 0.40593 0.85985 0.0
C1014 C 0.17384 0.07526 0.44613 0.0
C1015 C 0.20553 0.06076 0.42089 0.0
C1016 C 0.13534 0.0976 0.38727 0.0
C1017 C 0.10357 0.11223 0.41245 0.0
N1018 N 0.08911 0.11131 0.4659 0.0
N1019 N 0.22215 0.06533 0.36796 0.0
C1020 C 0.1223 0.10089 0.44199 0.0
C1021 C 0.18761 0.07345 0.39152 0.0
N1022 N 0.19387 0.0643 0.4741 0.0
N1023 N 0.11447 0.1061 0.35927 0.0
H1024 H 0.26082 0.04818 0.37044 0.0
H1025 H 0.21432 0.07845 0.34623 0.0
H1026 H 0.07766 0.12652 0.35567 0.0
H1027 H 0.13204 0.0912 0.33976 0.0
H1028 H 0.17743 0.07905 0.49391 0.0
H1029 H 0.22844 0.04028 0.47761 0.0
H1030 H 0.09871 0.10251 0.48803 0.0
H1031 H 0.04955 0.12614 0.4639 0.0
C1032 C 0.46555 0.3524 0.09103 0.0
C1033 C 0.43852 0.30775 0.10432 0.0
C1034 C 0.36742 0.36904 0.12329 0.0
C1035 C 0.3917 0.41253 0.10719 0.0
N1036 N 0.45687 0.44288 0.07065 0.0
N1037 N 0.36216 0.27072 0.13115 0.0
C1038 C 0.43891 0.40329 0.08963 0.0
C1039 C 0.38896 0.31525 0.12009 0.0
N1040 N 0.51697 0.3458 0.07981 0.0
N1041 N 0.3246 0.37965 0.14184 0.0
H1042 H 0.37828 0.23141 0.12957 0.0
H1043 H 0.32328 0.27235 0.14048 0.0
H1044 H 0.30781 0.41864 0.14373 0.0
H1045 H 0.30779 0.35088 0.15633 0.0
H1046 H 0.54107 0.37808 0.07226 0.0
H1047 H 0.53761 0.30862 0.08084 0.0
H1048 H 0.48829 0.43727 0.0553 0.0
H1049 H 0.43584 0.47932 0.0681 0.0
C1050 C 0.22893 0.43298 0.63218 0.0
C1051 C 0.22608 0.48662 0.62012 0.0
C1052 C 0.13022 0.47416 0.60947 0.0
C1053 C 0.13042 0.4224 0.62364 0.0
N1054 N 0.17865 0.35557 0.65278 0.0
N1055 N 0.17108 0.56361 0.60646 0.0
C1056 C 0.17949 0.40275 0.63657 0.0
C1057 C 0.17529 0.50918 0.61252 0.0
N1058 N 0.27863 0.4102 0.63795 0.0
N1059 N 0.09013 0.48678 0.58971 0.0
H1060 H 0.20432 0.59013 0.60867 0.0
H1061 H 0.13369 0.5826 0.6024 0.0
H1062 H 0.06446 0.45617 0.58212 0.0
H1063 H 0.0895 0.52274 0.5772 0.0
H1064 H 0.2837 0.36944 0.64397 0.0
H1065 H 0.31509 0.43158 0.63497 0.0
H1066 H 0.21217 0.34121 0.6648 0.0
H1067 H 0.14281 0.33312 0.65588 0.0
C1068 C 0.01607 0.17474 0.10251 0.0
C1069 C 0.03941 0.22482 0.11098 0.0
C1070 C 0.11588 0.17565 0.13424 0.0
C1071 C 0.09644 0.12666 0.12111 0.0
N1072 N 0.0378 0.08616 0.08403 0.0
N1073 N 0.11375 0.27499 0.13319 0.0
C1074 C 0.04872 0.12782 0.10311 0.0
C1075 C 0.08987 0.22604 0.1267 0.0
N1076 N 0.96309 0.17245 0.09303 0.0
N1077 N 0.15855 0.17375 0.15387 0.0
H1078 H 0.09539 0.31214 0.12787 0.0
H1079 H 0.15295 0.27861 0.14208 0.0
H1080 H 0.17785 0.13717 0.15946 0.0
H1081 H 0.17188 0.20742 0.1661 0.0
H1082 H 0.94321 0.1357 0.08838 0.0
H1083 H 0.93774 0.20667 0.09309 0.0
H1084 H 1.00553 0.08651 0.06876 0.0
H1085 H 0.0669 0.05639 0.08035 0.0
C1086 C 0.40694 0.09662 0.57758 0.0
C1087 C 0.4265 0.12142 0.60424 0.0
C1088 C 0.33694 0.10844 0.62772 0.0
C1089 C 0.31882 0.08061 0.60178 0.0
N1090 N 0.33692 0.04123 0.55371 0.0
N1091 N 0.41364 0.14608 0.65565 0.0
C1092 C 0.354 0.07289 0.57712 0.0
C1093 C 0.39233 0.12603 0.62962 0.0
N1094 N 0.4392 0.09599 0.55273 0.0
N1095 N 0.30056 0.11916 0.65005 0.0
H1096 H 0.45357 0.16094 0.65708 0.0
H1097 H 0.39306 0.1455 0.676 0.0
H1098 H 0.26008 0.10579 0.64922 0.0
H1099 H 0.30936 0.14374 0.66843 0.0
H1100 H 0.42582 0.08369 0.53167 0.0
H1101 H 0.47868 0.11166 0.55265 0.0
H1102 H 0.36185 0.02952 0.53604 0.0
H1103 H 0.29843 0.02289 0.55313 0.0
C1104 C 0.53878 0.98348 0.99448 0.0
C1105 C 0.48184 0.97505 0.98945 0.0
C1106 C 0.46122 0.03236 0.03319 0.0
C1107 C 0.51813 0.04123 0.03811 0.0
N1108 N 0.61124 0.03012 0.02091 0.0
N1109 N 0.38917 0.98271 1.00845 0.0
C1110 C 0.55682 0.0186 0.01791 0.0
C1111 C 0.44335 0.99607 1.01034 0.0
N1112 N 0.57615 0.95379 0.97863 0.0
N1113 N 0.42347 0.06324 0.0481 0.0
H1114 H 0.37076 0.96364 0.99036 0.0
H1115 H 0.36208 0.98812 0.02614 0.0
H1116 H 0.4332 0.09297 0.06377 0.0
H1117 H 0.38221 0.06451 0.04246 0.0
H1118 H 0.6176 0.95221 0.98375 0.0
H1119 H 0.56573 0.92552 0.96228 0.0
H1120 H 0.63948 0.02452 1.00381 0.0
H1121 H 0.62872 0.04686 0.04 0.0
C1122 C 0.49697 0.57335 0.52116 0.0
C1123 C 0.47972 0.53797 0.54444 0.0
C1124 C 0.53473 0.46397 0.52243 0.0
C1125 C 0.55609 0.50156 0.50103 0.0
N1126 N 0.5703 0.59565 0.48752 0.0
N1127 N 0.46313 0.44469 0.5585 0.0
C1128 C 0.54059 0.55722 0.5025 0.0
C1129 C 0.49361 0.48177 0.54284 0.0
N1130 N 0.46933 0.62043 0.51506 0.0
N1131 N 0.55425 0.41185 0.52402 0.0
H1132 H 0.42823 0.45587 0.57034 0.0
H1133 H 0.46711 0.40259 0.55637 0.0
H1134 H 0.5844 0.39664 0.5101 0.0
H1135 H 0.54471 0.38495 0.54129 0.0
H1136 H 0.47883 0.64554 0.49695 0.0
H1137 H 0.43144 0.62932 0.52435 0.0
H1138 H 0.56384 0.63748 0.48987 0.0
H1139 H 0.60632 0.58581 0.47647 0.0
C1140 C 0.03761 0.47683 0.02737 0.0
C1141 C 0.9812 0.48266 0.03426 0.0
C1142 C 0.97168 0.54862 0.99272 0.0
C1143 C 0.028 0.54235 0.98569 0.0
N1144 N 0.11698 0.50781 0.99995 0.0
N1145 N 0.89287 0.52042 0.02146 0.0
C1146 C 0.06173 0.50919 1.00431 0.0
C1147 C 0.94777 0.5172 0.01623 0.0
N1148 N 0.06733 0.43657 0.04104 0.0
N1149 N 0.94196 0.58848 0.97868 0.0
H1150 H 0.87395 0.50478 0.04036 0.0
H1151 H 0.86502 0.53659 1.00623 0.0
H1152 H 0.9579 0.61415 0.96231 0.0
H1153 H 0.90301 0.60046 0.98514 0.0
H1154 H 0.10647 0.42525 0.03451 0.0
H1155 H 0.05113 0.40995 0.05689 0.0
H1156 H 0.14432 0.49211 0.01561 0.0
H1157 H 0.13651 0.52461 0.98148 0.0
C1158 C 0.0357 0.99747 0.48488 0.0
C1159 C 0.98113 0.01768 0.48771 0.0
C1160 C 0.99154 0.01431 0.54274 0.0
C1161 C 0.04647 0.99488 0.53987 0.0
N1162 N 0.12242 0.97538 0.50682 0.0
N1163 N 0.90286 0.0274 0.52009 0.0
C1164 C 0.06841 0.98781 0.51066 0.0
C1165 C 0.95822 0.02184 0.51684 0.0
N1166 N 0.05991 0.98873 0.45792 0.0
N1167 N 0.96965 0.02511 0.57019 0.0
H1168 H 0.87551 0.02856 0.50228 0.0
H1169 H 0.88264 0.02405 0.54048 0.0
H1170 H 0.9832 1.00804 0.59007 0.0
H1171 H 0.93642 0.05107 0.57315 0.0
H1172 H 0.04208 0.99506 0.43709 0.0
H1173 H 0.04208 0.99506 0.43709 0.0
H1174 H 0.13925 0.96624 0.48598 0.0
H1175 H 0.15173 0.97909 0.52359 0.0
C1176 C 0.47626 0.49727 0.99677 0.0
C1177 C 0.53326 0.49091 0.99155 0.0
C1178 C 0.55156 0.55578 0.03277 0.0
C1179 C 0.49484 0.56139 0.0381 0.0
N1180 N 0.40255 0.54393 0.01996 0.0
N1181 N 0.62557 0.52236 1.0042 0.0
C1182 C 0.45733 0.53543 0.01826 0.0
C1183 C 0.57082 0.5217 1.00946 0.0
N1184 N 0.43909 0.46511 0.98216 0.0
N1185 N 0.58807 0.58556 0.04921 0.0
H1186 H 0.64507 0.50209 0.98682 0.0
H1187 H 0.64507 0.50209 0.98682 0.0
H1188 H 0.57585 0.61596 0.06399 0.0
H1189 H 0.63032 0.58189 0.04685 0.0
H1190 H 0.39701 0.46904 0.9852 0.0
H1191 H 0.44997 0.43191 0.96893 0.0
H1192 H 0.38409 0.57171 0.03433 0.0
H1193 H 0.38409 0.57171 0.03433 0.0
C1194 C 0.0412 0.54349 0.51198 0.0
C1195 C 0.06427 0.50714 0.49084 0.0
C1196 C 0.02413 0.42913 0.51832 0.0
C1197 C 0.99594 0.46624 0.53755 0.0
N1198 N 0.96825 0.55955 0.54699 0.0
N1199 N 0.09055 0.41571 0.47844 0.0
C1200 C 1.0024 0.52356 0.533 0.0
C1201 C 0.05863 0.44994 0.49508 0.0
N1202 N 0.05611 0.59731 0.51239 0.0
N1203 N 0.01842 0.37402 0.52208 0.0
H1204 H 0.11952 0.43014 0.46333 0.0
H1205 H 0.09292 0.37367 0.48126 0.0
H1206 H 1.00074 0.35593 0.54064 0.0
H1207 H 0.03003 0.34512 0.50633 0.0
H1208 H 0.04605 0.62359 0.52983 0.0
H1209 H 0.08276 0.61506 0.49718 0.0
H1210 H 0.96731 0.60116 0.5422 0.0
H1211 H 0.93537 0.5476 0.56017 0.0
C1212 C 0.07623 0.01352 0.02259 0.0
C1213 C 0.04215 0.97931 0.04032 0.0
C1214 C 0.96252 1.00847 1.01062 0.0
C1215 C 0.99707 0.03922 0.99121 0.0
N1216 N 0.08962 0.06332 0.97659 0.0
N1217 N 0.95571 0.93298 0.04543 0.0
C1218 C 0.0547 0.03889 0.99637 0.0
C1219 C 0.9861 0.97377 0.03273 0.0
N1220 N 0.12817 0.02563 0.0318 0.0
N1221 N 0.90701 0.01127 1.00797 0.0
H1222 H 0.97182 0.9049 0.06057 0.0
H1223 H 0.9164 0.92283 0.03836 0.0
H1224 H 0.88697 0.03248 0.99114 0.0
H1225 H 0.88045 0.99554 0.02401 0.0
H1226 H 0.152 0.05611 0.02208 0.0
H1227 H 0.14598 1.00969 0.05102 0.0
H1228 H 0.1316 0.05637 0.97674 0.0
H1229 H 0.07733 0.08834 0.95906 0.0
C1230 C 0.51102 0.0401 0.48437 0.0
C1231 C 0.47531 0.99368 0.48574 0.0
C1232 C 0.51994 0.96645 0.53244 0.0
C1233 C 0.552 0.01487 0.53303 0.0
N1234 N 0.56227 0.10657 0.51265 0.0
N1235 N 0.43068 0.93203 0.52061 0.0
C1236 C 0.54382 0.05405 0.50974 0.0
C1237 C 0.47488 0.96276 0.51265 0.0
N1238 N 0.51253 0.07323 0.4598 0.0
N1239 N 0.53329 0.9225 0.54969 0.0
H1240 H 0.393 0.93532 0.50991 0.0
H1241 H 0.42877 0.91116 0.54095 0.0
H1242 H 0.56959 0.92043 0.56175 0.0
H1243 H 0.51232 0.88545 0.54829 0.0
H1244 H 0.54548 0.09913 0.45547 0.0
H1245 H 0.48073 0.07716 0.44456 0.0
H1246 H 0.55262 0.13748 0.4975 0.0
H1247 H 0.58001 0.12227 0.53191 0.0
loop_
_geom_bond_atom_site_label_1
_geom_bond_atom_site_label_2
_geom_bond_distance
_geom_bond_site_symmetry_2
_ccdc_geom_bond_type
Co0 N4 2.148 . S
Co0 N10 2.128 . S
Co0 N20 2.194 . S
Co0 O25 2.351 . S
Co0 O26 2.155 . S
Co0 O27 2.096 . S
C1 N4 1.306 . S
C1 N5 1.324 1_545 S
C1 H6 0.929 1_545 S
C2 C3 1.333 1_545 S
C2 N4 1.317 . S
C2 H7 0.930 . S
C3 C2 1.333 1_565 S
C3 N5 1.350 . S
C3 H29 0.931 . S
N4 Co0 2.148 . S
N4 C1 1.306 . S
N4 C2 1.317 . S
N5 C1 1.324 1_565 S
N5 C3 1.350 . S
H6 C1 0.929 1_565 S
H7 C2 0.930 . S
C8 O9 1.224 . S
C8 O27 1.247 . S
O9 C8 1.224 . S
N10 Co0 2.128 . S
N10 C11 1.355 . S
N10 C13 1.311 . S
C11 N10 1.355 . S
C11 C12 1.363 . S
C11 H23 0.929 . S
C12 C11 1.363 . S
C12 N14 1.375 . S
C12 H30 0.931 . S
C13 N10 1.311 . S
C13 N14 1.347 . S
C13 H24 0.929 . S
N14 C12 1.375 . S
N14 C13 1.347 . S
C15 C18 1.365 . S
C15 N20 1.328 . S
C15 H21 0.929 . S
C16 C17 1.362 . S
C16 C19 1.378 . S
C16 H31 0.929 . S
C17 C16 1.362 . S
C17 C18 1.366 . S
C18 C15 1.365 . S
C18 C17 1.366 . S
C18 H32 0.930 . S
C19 C16 1.378 . S
C19 N20 1.315 . S
C19 H22 0.930 . S
N20 Co0 2.194 . S
N20 C15 1.328 . S
N20 C19 1.315 . S
H21 C15 0.929 . S
H22 C19 0.930 . S
H23 C11 0.929 . S
H24 C13 0.929 . S
O25 Co0 2.351 . S
O25 C28 1.244 . S
O26 Co0 2.155 . S
O26 C28 1.240 . S
O27 Co0 2.096 . S
O27 C8 1.247 . S
C28 O25 1.244 . S
C28 O26 1.240 . S
H29 C3 0.931 . S
H30 C12 0.931 . S
H31 C16 0.929 . S
H32 C18 0.930 . S
Co33 N37 2.148 . S
Co33 N43 2.128 . S
Co33 N53 2.194 . S
Co33 O58 2.351 . S
Co33 O59 2.155 . S
Co33 O60 2.096 . S
C34 N37 1.301 . S
C34 N38 1.328 . S
C34 H39 0.930 . S
C35 C36 1.333 . S
C35 N37 1.317 . S
C35 H40 0.930 . S
C36 C35 1.333 . S
C36 N38 1.350 . S
C36 H62 0.931 . S
N37 Co33 2.148 . S
N37 C34 1.301 . S
N37 C35 1.317 . S
N38 C34 1.328 . S
N38 C36 1.350 . S
H39 C34 0.930 . S
H40 C35 0.930 . S
C41 O42 1.224 . S
C41 O60 1.247 . S
O42 C41 1.224 . S
N43 Co33 2.128 . S
N43 C44 1.355 . S
N43 C46 1.311 . S
C44 N43 1.355 . S
C44 C45 1.363 . S
C44 H56 0.929 . S
C45 C44 1.363 . S
C45 N47 1.375 . S
C45 H63 0.931 . S
C46 N43 1.311 . S
C46 N47 1.347 . S
C46 H57 0.929 . S
N47 C45 1.375 . S
N47 C46 1.347 . S
C48 C51 1.365 . S
C48 N53 1.328 . S
C48 H54 0.929 . S
C49 C50 1.362 . S
C49 C52 1.378 . S
C49 H64 0.929 . S
C50 C49 1.362 . S
C50 C51 1.366 . S
C51 C48 1.365 . S
C51 C50 1.366 . S
C51 H65 0.930 . S
C52 C49 1.378 . S
C52 N53 1.315 . S
C52 H55 0.930 . S
N53 Co33 2.194 . S
N53 C48 1.328 . S
N53 C52 1.315 . S
H54 C48 0.929 . S
H55 C52 0.930 . S
H56 C44 0.929 . S
H57 C46 0.929 . S
O58 Co33 2.351 . S
O58 C61 1.244 . S
O59 Co33 2.155 . S
O59 C61 1.240 . S
O60 Co33 2.096 . S
O60 C41 1.247 . S
C61 O58 1.244 . S
C61 O59 1.240 . S
H62 C36 0.931 . S
H63 C45 0.931 . S
H64 C49 0.929 . S
H65 C51 0.930 . S
Co66 N70 2.148 . S
Co66 N76 2.128 1_655 S
Co66 N86 2.194 1_655 S
Co66 O91 2.351 1_655 S
Co66 O92 2.155 . S
Co66 O93 2.096 . S
C67 N70 1.301 . S
C67 N71 1.328 . S
C67 H72 0.930 . S
C68 C69 1.333 . S
C68 N70 1.317 . S
C68 H73 0.930 . S
C69 C68 1.333 . S
C69 N71 1.350 . S
C69 H95 0.931 . S
N70 Co66 2.148 . S
N70 C67 1.301 . S
N70 C68 1.317 . S
N71 C67 1.328 . S
N71 C69 1.350 . S
H72 C67 0.930 . S
H73 C68 0.930 . S
C74 O75 1.224 . S
C74 O93 1.247 . S
O75 C74 1.224 . S
N76 Co66 2.128 1_455 S
N76 C77 1.355 . S
N76 C79 1.311 1_455 S
C77 N76 1.355 . S
C77 C78 1.363 . S
C77 H89 0.929 . S
C78 C77 1.363 . S
C78 N80 1.375 . S
C78 H96 0.931 . S
C79 N76 1.311 1_655 S
C79 N80 1.347 1_655 S
C79 H90 0.929 . S
N80 C78 1.375 . S
N80 C79 1.347 1_455 S
C81 C84 1.365 . S
C81 N86 1.328 . S
C81 H87 0.929 . S
C82 C83 1.362 . S
C82 C85 1.378 1_455 S
C82 H97 0.929 1_455 S
C83 C82 1.362 . S
C83 C84 1.366 . S
C84 C81 1.365 . S
C84 C83 1.366 . S
C84 H98 0.930 . S
C85 C82 1.378 1_655 S
C85 N86 1.315 1_655 S
C85 H88 0.930 . S
N86 Co66 2.194 1_455 S
N86 C81 1.328 . S
N86 C85 1.315 1_455 S
H87 C81 0.929 . S
H88 C85 0.930 . S
H89 C77 0.929 . S
H90 C79 0.929 . S
O91 Co66 2.351 1_455 S
O91 C94 1.244 . S
O92 Co66 2.155 . S
O92 C94 1.240 1_655 S
O93 Co66 2.096 . S
O93 C74 1.247 . S
C94 O91 1.244 . S
C94 O92 1.240 1_455 S
H95 C69 0.931 . S
H96 C78 0.931 . S
H97 C82 0.929 1_655 S
H98 C84 0.930 . S
Co99 N103 2.148 . S
Co99 N109 2.128 1_565 S
Co99 N119 2.194 1_565 S
Co99 O124 2.351 1_565 S
Co99 O125 2.155 . S
Co99 O126 2.096 . S
C100 N103 1.306 . S
C100 N104 1.324 1_455 S
C100 H105 0.929 1_455 S
C101 C102 1.333 1_455 S
C101 N103 1.317 . S
C101 H106 0.930 . S
C102 C101 1.333 1_655 S
C102 N104 1.350 . S
C102 H128 0.931 . S
N103 Co99 2.148 . S
N103 C100 1.306 . S
N103 C101 1.317 . S
N104 C100 1.324 1_655 S
N104 C102 1.350 . S
H105 C100 0.929 1_655 S
H106 C101 0.930 . S
C107 O108 1.224 . S
C107 O126 1.247 . S
O108 C107 1.224 . S
N109 Co99 2.128 1_545 S
N109 C110 1.355 . S
N109 C112 1.311 1_545 S
C110 N109 1.355 . S
C110 C111 1.363 . S
C110 H122 0.929 . S
C111 C110 1.363 . S
C111 N113 1.375 . S
C111 H129 0.931 . S
C112 N109 1.311 1_565 S
C112 N113 1.347 1_565 S
C112 H123 0.929 . S
N113 C111 1.375 . S
N113 C112 1.347 1_545 S
C114 C117 1.365 . S
C114 N119 1.328 . S
C114 H120 0.929 . S
C115 C116 1.362 . S
C115 C118 1.378 1_545 S
C115 H130 0.929 1_545 S
C116 C115 1.362 . S
C116 C117 1.366 . S
C117 C114 1.365 . S
C117 C116 1.366 . S
C117 H131 0.930 . S
C118 C115 1.378 1_565 S
C118 N119 1.315 1_565 S
C118 H121 0.930 . S
N119 Co99 2.194 1_545 S
N119 C114 1.328 . S
N119 C118 1.315 1_545 S
H120 C114 0.929 . S
H121 C118 0.930 . S
H122 C110 0.929 . S
H123 C112 0.929 . S
O124 Co99 2.351 1_545 S
O124 C127 1.244 . S
O125 Co99 2.155 . S
O125 C127 1.240 1_565 S
O126 Co99 2.096 . S
O126 C107 1.247 . S
C127 O124 1.244 . S
C127 O125 1.240 1_545 S
H128 C102 0.931 . S
H129 C111 0.931 . S
H130 C115 0.929 1_565 S
H131 C117 0.930 . S
Co132 N136 2.148 . S
Co132 N142 2.128 . S
Co132 N152 2.194 . S
Co132 O157 2.351 . S
Co132 O158 2.155 . S
Co132 O159 2.096 . S
C133 N136 1.301 . S
C133 N137 1.328 . S
C133 H138 0.930 . S
C134 C135 1.333 . S
C134 N136 1.317 . S
C134 H139 0.930 . S
C135 C134 1.333 . S
C135 N137 1.350 . S
C135 H161 0.931 . S
N136 Co132 2.148 . S
N136 C133 1.301 . S
N136 C134 1.317 . S
N137 C133 1.328 . S
N137 C135 1.350 . S
H138 C133 0.930 . S
H139 C134 0.930 . S
C140 O141 1.224 . S
C140 O159 1.247 . S
O141 C140 1.224 . S
N142 Co132 2.128 . S
N142 C143 1.355 . S
N142 C145 1.311 . S
C143 N142 1.355 . S
C143 C144 1.363 . S
C143 H155 0.929 . S
C144 C143 1.363 . S
C144 N146 1.375 . S
C144 H162 0.931 . S
C145 N142 1.311 . S
C145 N146 1.347 . S
C145 H156 0.929 . S
N146 C144 1.375 . S
N146 C145 1.347 . S
C147 C150 1.365 . S
C147 N152 1.328 . S
C147 H153 0.929 . S
C148 C149 1.362 . S
C148 C151 1.378 . S
C148 H163 0.929 . S
C149 C148 1.362 . S
C149 C150 1.366 . S
C150 C147 1.365 . S
C150 C149 1.366 . S
C150 H164 0.930 . S
C151 C148 1.378 . S
C151 N152 1.315 . S
C151 H154 0.930 . S
N152 Co132 2.194 . S
N152 C147 1.328 . S
N152 C151 1.315 . S
H153 C147 0.929 . S
H154 C151 0.930 . S
H155 C143 0.929 . S
H156 C145 0.929 . S
O157 Co132 2.351 . S
O157 C160 1.244 . S
O158 Co132 2.155 . S
O158 C160 1.240 . S
O159 Co132 2.096 . S
O159 C140 1.247 . S
C160 O157 1.244 . S
C160 O158 1.240 . S
H161 C135 0.931 . S
H162 C144 0.931 . S
H163 C148 0.929 . S
H164 C150 0.930 . S
Co165 N169 2.148 . S
Co165 N175 2.128 . S
Co165 N185 2.194 . S
Co165 O190 2.351 . S
Co165 O191 2.155 . S
Co165 O192 2.096 . S
C166 N169 1.306 . S
C166 N170 1.324 1_455 S
C166 H171 0.929 1_455 S
C167 C168 1.333 1_455 S
C167 N169 1.317 . S
C167 H172 0.930 . S
C168 C167 1.333 1_655 S
C168 N170 1.350 . S
C168 H194 0.931 . S
N169 Co165 2.148 . S
N169 C166 1.306 . S
N169 C167 1.317 . S
N170 C166 1.324 1_655 S
N170 C168 1.350 . S
H171 C166 0.929 1_655 S
H172 C167 0.930 . S
C173 O174 1.224 . S
C173 O192 1.247 . S
O174 C173 1.224 . S
N175 Co165 2.128 . S
N175 C176 1.355 . S
N175 C178 1.311 . S
C176 N175 1.355 . S
C176 C177 1.363 . S
C176 H188 0.929 . S
C177 C176 1.363 . S
C177 N179 1.375 . S
C177 H195 0.931 . S
C178 N175 1.311 . S
C178 N179 1.347 . S
C178 H189 0.929 . S
N179 C177 1.375 . S
N179 C178 1.347 . S
C180 C183 1.365 . S
C180 N185 1.328 . S
C180 H186 0.929 . S
C181 C182 1.362 . S
C181 C184 1.378 . S
C181 H196 0.929 . S
C182 C181 1.362 . S
C182 C183 1.366 . S
C183 C180 1.365 . S
C183 C182 1.366 . S
C183 H197 0.930 . S
C184 C181 1.378 . S
C184 N185 1.315 . S
C184 H187 0.930 . S
N185 Co165 2.194 . S
N185 C180 1.328 . S
N185 C184 1.315 . S
H186 C180 0.929 . S
H187 C184 0.930 . S
H188 C176 0.929 . S
H189 C178 0.929 . S
O190 Co165 2.351 . S
O190 C193 1.244 . S
O191 Co165 2.155 . S
O191 C193 1.240 . S
O192 Co165 2.096 . S
O192 C173 1.247 . S
C193 O190 1.244 . S
C193 O191 1.240 . S
H194 C168 0.931 . S
H195 C177 0.931 . S
H196 C181 0.929 . S
H197 C183 0.930 . S
Co198 N202 2.148 . S
Co198 N208 2.128 1_655 S
Co198 N218 2.194 1_655 S
Co198 O223 2.351 1_655 S
Co198 O224 2.155 . S
Co198 O225 2.096 . S
C199 N202 1.306 . S
C199 N203 1.324 1_545 S
C199 H204 0.929 1_545 S
C200 C201 1.333 1_545 S
C200 N202 1.317 . S
C200 H205 0.930 . S
C201 C200 1.333 1_565 S
C201 N203 1.350 . S
C201 H227 0.931 . S
N202 Co198 2.148 . S
N202 C199 1.306 . S
N202 C200 1.317 . S
N203 C199 1.324 1_565 S
N203 C201 1.350 . S
H204 C199 0.929 1_565 S
H205 C200 0.930 . S
C206 O207 1.224 . S
C206 O225 1.247 . S
O207 C206 1.224 . S
N208 Co198 2.128 1_455 S
N208 C209 1.355 . S
N208 C211 1.311 1_455 S
C209 N208 1.355 . S
C209 C210 1.363 . S
C209 H221 0.929 . S
C210 C209 1.363 . S
C210 N212 1.375 . S
C210 H228 0.931 . S
C211 N208 1.311 1_655 S
C211 N212 1.347 1_655 S
C211 H222 0.929 . S
N212 C210 1.375 . S
N212 C211 1.347 1_455 S
C213 C216 1.365 . S
C213 N218 1.328 . S
C213 H219 0.929 . S
C214 C215 1.362 . S
C214 C217 1.378 1_455 S
C214 H229 0.929 1_455 S
C215 C214 1.362 . S
C215 C216 1.366 . S
C216 C213 1.365 . S
C216 C215 1.366 . S
C216 H230 0.930 . S
C217 C214 1.378 1_655 S
C217 N218 1.315 1_655 S
C217 H220 0.930 . S
N218 Co198 2.194 1_455 S
N218 C213 1.328 . S
N218 C217 1.315 1_455 S
H219 C213 0.929 . S
H220 C217 0.930 . S
H221 C209 0.929 . S
H222 C211 0.929 . S
O223 Co198 2.351 1_455 S
O223 C226 1.244 . S
O224 Co198 2.155 . S
O224 C226 1.240 1_655 S
O225 Co198 2.096 . S
O225 C206 1.247 . S
C226 O223 1.244 . S
C226 O224 1.240 1_455 S
H227 C201 0.931 . S
H228 C210 0.931 . S
H229 C214 0.929 1_655 S
H230 C216 0.930 . S
Co231 N235 2.148 . S
Co231 N241 2.128 1_565 S
Co231 N251 2.194 1_565 S
Co231 O256 2.351 1_565 S
Co231 O257 2.155 . S
Co231 O258 2.096 . S
C232 N235 1.301 . S
C232 N236 1.328 . S
C232 H237 0.930 . S
C233 C234 1.333 . S
C233 N235 1.317 . S
C233 H238 0.930 . S
C234 C233 1.333 . S
C234 N236 1.350 . S
C234 H260 0.931 . S
N235 Co231 2.148 . S
N235 C232 1.301 . S
N235 C233 1.317 . S
N236 C232 1.328 . S
N236 C234 1.350 . S
H237 C232 0.930 . S
H238 C233 0.930 . S
C239 O240 1.224 . S
C239 O258 1.247 . S
O240 C239 1.224 . S
N241 Co231 2.128 1_545 S
N241 C242 1.355 . S
N241 C244 1.311 1_545 S
C242 N241 1.355 . S
C242 C243 1.363 . S
C242 H254 0.929 . S
C243 C242 1.363 . S
C243 N245 1.375 . S
C243 H261 0.931 . S
C244 N241 1.311 1_565 S
C244 N245 1.347 1_565 S
C244 H255 0.929 . S
N245 C243 1.375 . S
N245 C244 1.347 1_545 S
C246 C249 1.365 . S
C246 N251 1.328 . S
C246 H252 0.929 . S
C247 C248 1.362 . S
C247 C250 1.378 1_545 S
C247 H262 0.929 1_545 S
C248 C247 1.362 . S
C248 C249 1.366 . S
C249 C246 1.365 . S
C249 C248 1.366 . S
C249 H263 0.930 . S
C250 C247 1.378 1_565 S
C250 N251 1.315 1_565 S
C250 H253 0.930 . S
N251 Co231 2.194 1_545 S
N251 C246 1.328 . S
N251 C250 1.315 1_545 S
H252 C246 0.929 . S
H253 C250 0.930 . S
H254 C242 0.929 . S
H255 C244 0.929 . S
O256 Co231 2.351 1_545 S
O256 C259 1.244 . S
O257 Co231 2.155 . S
O257 C259 1.240 1_565 S
O258 Co231 2.096 . S
O258 C239 1.247 . S
C259 O256 1.244 . S
C259 O257 1.240 1_545 S
H260 C234 0.931 . S
H261 C243 0.931 . S
H262 C247 0.929 1_565 S
H263 C249 0.930 . S
Co264 N268 2.148 . S
Co264 N274 2.128 . S
Co264 N284 2.194 . S
Co264 O289 2.351 . S
Co264 O290 2.155 . S
Co264 O291 2.096 . S
C265 N268 1.306 . S
C265 N269 1.324 1_565 S
C265 H270 0.929 1_565 S
C266 C267 1.333 1_565 S
C266 N268 1.317 . S
C266 H271 0.930 . S
C267 C266 1.333 1_545 S
C267 N269 1.350 . S
C267 H293 0.931 . S
N268 Co264 2.148 . S
N268 C265 1.306 . S
N268 C266 1.317 . S
N269 C265 1.324 1_545 S
N269 C267 1.350 . S
H270 C265 0.929 1_545 S
H271 C266 0.930 . S
C272 O273 1.224 . S
C272 O291 1.247 . S
O273 C272 1.224 . S
N274 Co264 2.128 . S
N274 C275 1.355 . S
N274 C277 1.311 . S
C275 N274 1.355 . S
C275 C276 1.363 . S
C275 H287 0.929 . S
C276 C275 1.363 . S
C276 N278 1.375 . S
C276 H294 0.931 . S
C277 N274 1.311 . S
C277 N278 1.347 . S
C277 H288 0.929 . S
N278 C276 1.375 . S
N278 C277 1.347 . S
C279 C282 1.365 . S
C279 N284 1.328 . S
C279 H285 0.929 . S
C280 C281 1.362 . S
C280 C283 1.378 . S
C280 H295 0.929 . S
C281 C280 1.362 . S
C281 C282 1.366 . S
C282 C279 1.365 . S
C282 C281 1.366 . S
C282 H296 0.930 . S
C283 C280 1.378 . S
C283 N284 1.315 . S
C283 H286 0.930 . S
N284 Co264 2.194 . S
N284 C279 1.328 . S
N284 C283 1.315 . S
H285 C279 0.929 . S
H286 C283 0.930 . S
H287 C275 0.929 . S
H288 C277 0.929 . S
O289 Co264 2.351 . S
O289 C292 1.244 . S
O290 Co264 2.155 . S
O290 C292 1.240 . S
O291 Co264 2.096 . S
O291 C272 1.247 . S
C292 O289 1.244 . S
C292 O290 1.240 . S
H293 C267 0.931 . S
H294 C276 0.931 . S
H295 C280 0.929 . S
H296 C282 0.930 . S
Co297 N301 2.148 . S
Co297 N307 2.128 . S
Co297 N317 2.194 . S
Co297 O322 2.351 . S
Co297 O323 2.155 . S
Co297 O324 2.096 . S
C298 N301 1.301 . S
C298 N302 1.328 . S
C298 H303 0.930 . S
C299 C300 1.333 . S
C299 N301 1.317 . S
C299 H304 0.930 . S
C300 C299 1.333 . S
C300 N302 1.350 . S
C300 H326 0.931 . S
N301 Co297 2.148 . S
N301 C298 1.301 . S
N301 C299 1.317 . S
N302 C298 1.328 . S
N302 C300 1.350 . S
H303 C298 0.930 . S
H304 C299 0.930 . S
C305 O306 1.224 . S
C305 O324 1.247 . S
O306 C305 1.224 . S
N307 Co297 2.128 . S
N307 C308 1.355 . S
N307 C310 1.311 . S
C308 N307 1.355 . S
C308 C309 1.363 . S
C308 H320 0.929 . S
C309 C308 1.363 . S
C309 N311 1.375 . S
C309 H327 0.931 . S
C310 N307 1.311 . S
C310 N311 1.347 . S
C310 H321 0.929 . S
N311 C309 1.375 . S
N311 C310 1.347 . S
C312 C315 1.365 . S
C312 N317 1.328 . S
C312 H318 0.929 . S
C313 C314 1.362 . S
C313 C316 1.378 . S
C313 H328 0.929 . S
C314 C313 1.362 . S
C314 C315 1.366 . S
C315 C312 1.365 . S
C315 C314 1.366 . S
C315 H329 0.930 . S
C316 C313 1.378 . S
C316 N317 1.315 . S
C316 H319 0.930 . S
N317 Co297 2.194 . S
N317 C312 1.328 . S
N317 C316 1.315 . S
H318 C312 0.929 . S
H319 C316 0.930 . S
H320 C308 0.929 . S
H321 C310 0.929 . S
O322 Co297 2.351 . S
O322 C325 1.244 . S
O323 Co297 2.155 . S
O323 C325 1.240 . S
O324 Co297 2.096 . S
O324 C305 1.247 . S
C325 O322 1.244 . S
C325 O323 1.240 . S
H326 C300 0.931 . S
H327 C309 0.931 . S
H328 C313 0.929 . S
H329 C315 0.930 . S
Co330 N334 2.148 . S
Co330 N340 2.128 1_455 S
Co330 N350 2.194 1_455 S
Co330 O355 2.351 1_455 S
Co330 O356 2.155 . S
Co330 O357 2.096 . S
C331 N334 1.301 . S
C331 N335 1.328 . S
C331 H336 0.930 . S
C332 C333 1.333 . S
C332 N334 1.317 . S
C332 H337 0.930 . S
C333 C332 1.333 . S
C333 N335 1.350 . S
C333 H359 0.931 . S
N334 Co330 2.148 . S
N334 C331 1.301 . S
N334 C332 1.317 . S
N335 C331 1.328 . S
N335 C333 1.350 . S
H336 C331 0.930 . S
H337 C332 0.930 . S
C338 O339 1.224 . S
C338 O357 1.247 . S
O339 C338 1.224 . S
N340 Co330 2.128 1_655 S
N340 C341 1.355 . S
N340 C343 1.311 1_655 S
C341 N340 1.355 . S
C341 C342 1.363 . S
C341 H353 0.929 . S
C342 C341 1.363 . S
C342 N344 1.375 . S
C342 H360 0.931 . S
C343 N340 1.311 1_455 S
C343 N344 1.347 1_455 S
C343 H354 0.929 . S
N344 C342 1.375 . S
N344 C343 1.347 1_655 S
C345 C348 1.365 . S
C345 N350 1.328 . S
C345 H351 0.929 . S
C346 C347 1.362 . S
C346 C349 1.378 1_655 S
C346 H361 0.929 1_655 S
C347 C346 1.362 . S
C347 C348 1.366 . S
C348 C345 1.365 . S
C348 C347 1.366 . S
C348 H362 0.930 . S
C349 C346 1.378 1_455 S
C349 N350 1.315 1_455 S
C349 H352 0.930 . S
N350 Co330 2.194 1_655 S
N350 C345 1.328 . S
N350 C349 1.315 1_655 S
H351 C345 0.929 . S
H352 C349 0.930 . S
H353 C341 0.929 . S
H354 C343 0.929 . S
O355 Co330 2.351 1_655 S
O355 C358 1.244 . S
O356 Co330 2.155 . S
O356 C358 1.240 1_455 S
O357 Co330 2.096 . S
O357 C338 1.247 . S
C358 O355 1.244 . S
C358 O356 1.240 1_655 S
H359 C333 0.931 . S
H360 C342 0.931 . S
H361 C346 0.929 1_455 S
H362 C348 0.930 . S
Co363 N367 2.148 . S
Co363 N373 2.128 1_545 S
Co363 N383 2.194 1_545 S
Co363 O388 2.351 1_545 S
Co363 O389 2.155 . S
Co363 O390 2.096 . S
C364 N367 1.306 . S
C364 N368 1.324 1_655 S
C364 H369 0.929 1_655 S
C365 C366 1.333 1_655 S
C365 N367 1.317 . S
C365 H370 0.930 . S
C366 C365 1.333 1_455 S
C366 N368 1.350 . S
C366 H392 0.931 . S
N367 Co363 2.148 . S
N367 C364 1.306 . S
N367 C365 1.317 . S
N368 C364 1.324 1_455 S
N368 C366 1.350 . S
H369 C364 0.929 1_455 S
H370 C365 0.930 . S
C371 O372 1.224 . S
C371 O390 1.247 . S
O372 C371 1.224 . S
N373 Co363 2.128 1_565 S
N373 C374 1.355 . S
N373 C376 1.311 1_565 S
C374 N373 1.355 . S
C374 C375 1.363 . S
C374 H386 0.929 . S
C375 C374 1.363 . S
C375 N377 1.375 . S
C375 H393 0.931 . S
C376 N373 1.311 1_545 S
C376 N377 1.347 1_545 S
C376 H387 0.929 . S
N377 C375 1.375 . S
N377 C376 1.347 1_565 S
C378 C381 1.365 . S
C378 N383 1.328 . S
C378 H384 0.929 . S
C379 C380 1.362 . S
C379 C382 1.378 1_565 S
C379 H394 0.929 1_565 S
C380 C379 1.362 . S
C380 C381 1.366 . S
C381 C378 1.365 . S
C381 C380 1.366 . S
C381 H395 0.930 . S
C382 C379 1.378 1_545 S
C382 N383 1.315 1_545 S
C382 H385 0.930 . S
N383 Co363 2.194 1_565 S
N383 C378 1.328 . S
N383 C382 1.315 1_565 S
H384 C378 0.929 . S
H385 C382 0.930 . S
H386 C374 0.929 . S
H387 C376 0.929 . S
O388 Co363 2.351 1_565 S
O388 C391 1.244 . S
O389 Co363 2.155 . S
O389 C391 1.240 1_545 S
O390 Co363 2.096 . S
O390 C371 1.247 . S
C391 O388 1.244 . S
C391 O389 1.240 1_565 S
H392 C366 0.931 . S
H393 C375 0.931 . S
H394 C379 0.929 1_545 S
H395 C381 0.930 . S
Co396 N400 2.148 . S
Co396 N406 2.128 . S
Co396 N416 2.194 . S
Co396 O421 2.351 . S
Co396 O422 2.155 . S
Co396 O423 2.096 . S
C397 N400 1.301 . S
C397 N401 1.328 . S
C397 H402 0.930 . S
C398 C399 1.333 . S
C398 N400 1.317 . S
C398 H403 0.930 . S
C399 C398 1.333 . S
C399 N401 1.350 . S
C399 H425 0.931 . S
N400 Co396 2.148 . S
N400 C397 1.301 . S
N400 C398 1.317 . S
N401 C397 1.328 . S
N401 C399 1.350 . S
H402 C397 0.930 . S
H403 C398 0.930 . S
C404 O405 1.224 . S
C404 O423 1.247 . S
O405 C404 1.224 . S
N406 Co396 2.128 . S
N406 C407 1.355 . S
N406 C409 1.311 . S
C407 N406 1.355 . S
C407 C408 1.363 . S
C407 H419 0.929 . S
C408 C407 1.363 . S
C408 N410 1.375 . S
C408 H426 0.931 . S
C409 N406 1.311 . S
C409 N410 1.347 . S
C409 H420 0.929 . S
N410 C408 1.375 . S
N410 C409 1.347 . S
C411 C414 1.365 . S
C411 N416 1.328 . S
C411 H417 0.929 . S
C412 C413 1.362 . S
C412 C415 1.378 . S
C412 H427 0.929 . S
C413 C412 1.362 . S
C413 C414 1.366 . S
C414 C411 1.365 . S
C414 C413 1.366 . S
C414 H428 0.930 . S
C415 C412 1.378 . S
C415 N416 1.315 . S
C415 H418 0.930 . S
N416 Co396 2.194 . S
N416 C411 1.328 . S
N416 C415 1.315 . S
H417 C411 0.929 . S
H418 C415 0.930 . S
H419 C407 0.929 . S
H420 C409 0.929 . S
O421 Co396 2.351 . S
O421 C424 1.244 . S
O422 Co396 2.155 . S
O422 C424 1.240 . S
O423 Co396 2.096 . S
O423 C404 1.247 . S
C424 O421 1.244 . S
C424 O422 1.240 . S
H425 C399 0.931 . S
H426 C408 0.931 . S
H427 C412 0.929 . S
H428 C414 0.930 . S
Co429 N433 2.148 . S
Co429 N439 2.128 . S
Co429 N449 2.194 . S
Co429 O454 2.351 . S
Co429 O455 2.155 . S
Co429 O456 2.096 . S
C430 N433 1.306 . S
C430 N434 1.324 1_655 S
C430 H435 0.929 1_655 S
C431 C432 1.333 1_655 S
C431 N433 1.317 . S
C431 H436 0.930 . S
C432 C431 1.333 1_455 S
C432 N434 1.350 . S
C432 H458 0.931 . S
N433 Co429 2.148 . S
N433 C430 1.306 . S
N433 C431 1.317 . S
N434 C430 1.324 1_455 S
N434 C432 1.350 . S
H435 C430 0.929 1_455 S
H436 C431 0.930 . S
C437 O438 1.224 . S
C437 O456 1.247 . S
O438 C437 1.224 . S
N439 Co429 2.128 . S
N439 C440 1.355 . S
N439 C442 1.311 . S
C440 N439 1.355 . S
C440 C441 1.363 . S
C440 H452 0.929 . S
C441 C440 1.363 . S
C441 N443 1.375 . S
C441 H459 0.931 . S
C442 N439 1.311 . S
C442 N443 1.347 . S
C442 H453 0.929 . S
N443 C441 1.375 . S
N443 C442 1.347 . S
C444 C447 1.365 . S
C444 N449 1.328 . S
C444 H450 0.929 . S
C445 C446 1.362 . S
C445 C448 1.378 . S
C445 H460 0.929 . S
C446 C445 1.362 . S
C446 C447 1.366 . S
C447 C444 1.365 . S
C447 C446 1.366 . S
C447 H461 0.930 . S
C448 C445 1.378 . S
C448 N449 1.315 . S
C448 H451 0.930 . S
N449 Co429 2.194 . S
N449 C444 1.328 . S
N449 C448 1.315 . S
H450 C444 0.929 . S
H451 C448 0.930 . S
H452 C440 0.929 . S
H453 C442 0.929 . S
O454 Co429 2.351 . S
O454 C457 1.244 . S
O455 Co429 2.155 . S
O455 C457 1.240 . S
O456 Co429 2.096 . S
O456 C437 1.247 . S
C457 O454 1.244 . S
C457 O455 1.240 . S
H458 C432 0.931 . S
H459 C441 0.931 . S
H460 C445 0.929 . S
H461 C447 0.930 . S
Co462 N466 2.148 . S
Co462 N472 2.128 1_455 S
Co462 N482 2.194 1_455 S
Co462 O487 2.351 1_455 S
Co462 O488 2.155 . S
Co462 O489 2.096 . S
C463 N466 1.306 . S
C463 N467 1.324 1_565 S
C463 H468 0.929 1_565 S
C464 C465 1.333 1_565 S
C464 N466 1.317 . S
C464 H469 0.930 . S
C465 C464 1.333 1_545 S
C465 N467 1.350 . S
C465 H491 0.931 . S
N466 Co462 2.148 . S
N466 C463 1.306 . S
N466 C464 1.317 . S
N467 C463 1.324 1_545 S
N467 C465 1.350 . S
H468 C463 0.929 1_545 S
H469 C464 0.930 . S
C470 O471 1.224 . S
C470 O489 1.247 . S
O471 C470 1.224 . S
N472 Co462 2.128 1_655 S
N472 C473 1.355 . S
N472 C475 1.311 1_655 S
C473 N472 1.355 . S
C473 C474 1.363 . S
C473 H485 0.929 . S
C474 C473 1.363 . S
C474 N476 1.375 . S
C474 H492 0.931 . S
C475 N472 1.311 1_455 S
C475 N476 1.347 1_455 S
C475 H486 0.929 . S
N476 C474 1.375 . S
N476 C475 1.347 1_655 S
C477 C480 1.365 . S
C477 N482 1.328 . S
C477 H483 0.929 . S
C478 C479 1.362 . S
C478 C481 1.378 1_655 S
C478 H493 0.929 1_655 S
C479 C478 1.362 . S
C479 C480 1.366 . S
C480 C477 1.365 . S
C480 C479 1.366 . S
C480 H494 0.930 . S
C481 C478 1.378 1_455 S
C481 N482 1.315 1_455 S
C481 H484 0.930 . S
N482 Co462 2.194 1_655 S
N482 C477 1.328 . S
N482 C481 1.315 1_655 S
H483 C477 0.929 . S
H484 C481 0.930 . S
H485 C473 0.929 . S
H486 C475 0.929 . S
O487 Co462 2.351 1_655 S
O487 C490 1.244 . S
O488 Co462 2.155 . S
O488 C490 1.240 1_455 S
O489 Co462 2.096 . S
O489 C470 1.247 . S
C490 O487 1.244 . S
C490 O488 1.240 1_655 S
H491 C465 0.931 . S
H492 C474 0.931 . S
H493 C478 0.929 1_455 S
H494 C480 0.930 . S
Co495 N499 2.148 . S
Co495 N505 2.128 1_545 S
Co495 N515 2.194 1_545 S
Co495 O520 2.351 1_545 S
Co495 O521 2.155 . S
Co495 O522 2.096 . S
C496 N499 1.301 . S
C496 N500 1.328 . S
C496 H501 0.930 . S
C497 C498 1.333 . S
C497 N499 1.317 . S
C497 H502 0.930 . S
C498 C497 1.333 . S
C498 N500 1.350 . S
C498 H524 0.931 . S
N499 Co495 2.148 . S
N499 C496 1.301 . S
N499 C497 1.317 . S
N500 C496 1.328 . S
N500 C498 1.350 . S
H501 C496 0.930 . S
H502 C497 0.930 . S
C503 O504 1.224 . S
C503 O522 1.247 . S
O504 C503 1.224 . S
N505 Co495 2.128 1_565 S
N505 C506 1.355 . S
N505 C508 1.311 1_565 S
C506 N505 1.355 . S
C506 C507 1.363 . S
C506 H518 0.929 . S
C507 C506 1.363 . S
C507 N509 1.375 . S
C507 H525 0.931 . S
C508 N505 1.311 1_545 S
C508 N509 1.347 1_545 S
C508 H519 0.929 . S
N509 C507 1.375 . S
N509 C508 1.347 1_565 S
C510 C513 1.365 . S
C510 N515 1.328 . S
C510 H516 0.929 . S
C511 C512 1.362 . S
C511 C514 1.378 1_565 S
C511 H526 0.929 1_565 S
C512 C511 1.362 . S
C512 C513 1.366 . S
C513 C510 1.365 . S
C513 C512 1.366 . S
C513 H527 0.930 . S
C514 C511 1.378 1_545 S
C514 N515 1.315 1_545 S
C514 H517 0.930 . S
N515 Co495 2.194 1_565 S
N515 C510 1.328 . S
N515 C514 1.315 1_565 S
H516 C510 0.929 . S
H517 C514 0.930 . S
H518 C506 0.929 . S
H519 C508 0.929 . S
O520 Co495 2.351 1_565 S
O520 C523 1.244 . S
O521 Co495 2.155 . S
O521 C523 1.240 1_545 S
O522 Co495 2.096 . S
O522 C503 1.247 . S
C523 O520 1.244 . S
C523 O521 1.240 1_565 S
H524 C498 0.931 . S
H525 C507 0.931 . S
H526 C511 0.929 1_545 S
H527 C513 0.930 . S
C528 C529 1.363 . S
C528 C534 1.379 . S
C528 N536 1.356 . S
C529 C528 1.363 . S
C529 C535 1.363 . S
C530 C531 1.363 . S
C530 C535 1.379 . S
C530 N537 1.356 . S
C531 C530 1.363 . S
C531 C534 1.363 . S
N532 C534 1.356 . S
N532 H544 0.984 . S
N532 H545 0.985 . S
N533 C535 1.356 . S
N533 H538 0.984 . S
N533 H539 0.985 1_545 S
C534 C528 1.379 . S
C534 C531 1.363 . S
C534 N532 1.356 . S
C535 C529 1.363 . S
C535 C530 1.379 . S
C535 N533 1.356 . S
N536 C528 1.356 . S
N536 H542 0.984 . S
N536 H543 0.984 . S
N537 C530 1.356 . S
N537 H540 0.984 . S
N537 H541 0.985 1_545 S
H538 N533 0.984 . S
H539 N533 0.985 1_565 S
H540 N537 0.984 . S
H541 N537 0.985 1_565 S
H542 N536 0.984 . S
H543 N536 0.984 . S
H544 N532 0.984 . S
H545 N532 0.985 . S
C546 C547 1.363 . S
C546 C552 1.379 . S
C546 N554 1.356 . S
C547 C546 1.363 . S
C547 C553 1.363 . S
C548 C549 1.363 . S
C548 C553 1.379 . S
C548 N555 1.356 . S
C549 C548 1.363 . S
C549 C552 1.363 . S
N550 C552 1.356 . S
N550 H562 0.984 . S
N550 H563 0.985 . S
N551 C553 1.356 . S
N551 H556 0.984 . S
N551 H557 0.985 . S
C552 C546 1.379 . S
C552 C549 1.363 . S
C552 N550 1.356 . S
C553 C547 1.363 . S
C553 C548 1.379 . S
C553 N551 1.356 . S
N554 C546 1.356 . S
N554 H560 0.984 . S
N554 H561 0.984 . S
N555 C548 1.356 . S
N555 H558 0.984 . S
N555 H559 0.985 . S
H556 N551 0.984 . S
H557 N551 0.985 . S
H558 N555 0.984 . S
H559 N555 0.985 . S
H560 N554 0.984 . S
H561 N554 0.984 . S
H562 N550 0.984 . S
H563 N550 0.985 . S
C564 C565 1.363 . S
C564 C570 1.379 . S
C564 N572 1.356 . S
C565 C564 1.363 . S
C565 C571 1.363 . S
C566 C567 1.363 . S
C566 C571 1.379 . S
C566 N573 1.356 . S
C567 C566 1.363 . S
C567 C570 1.363 . S
N568 C570 1.356 . S
N568 H580 0.984 . S
N568 H581 0.985 . S
N569 C571 1.356 . S
N569 H574 0.984 . S
N569 H575 0.985 . S
C570 C564 1.379 . S
C570 C567 1.363 . S
C570 N568 1.356 . S
C571 C565 1.363 . S
C571 C566 1.379 . S
C571 N569 1.356 . S
N572 C564 1.356 . S
N572 H578 0.984 . S
N572 H579 0.984 . S
N573 C566 1.356 . S
N573 H576 0.984 . S
N573 H577 0.985 . S
H574 N569 0.984 . S
H575 N569 0.985 . S
H576 N573 0.984 . S
H577 N573 0.985 . S
H578 N572 0.984 . S
H579 N572 0.984 . S
H580 N568 0.984 . S
H581 N568 0.985 . S
C582 C583 1.363 . S
C582 C588 1.379 . S
C582 N590 1.356 . S
C583 C582 1.363 . S
C583 C589 1.363 . S
C584 C585 1.363 . S
C584 C589 1.379 . S
C584 N591 1.356 . S
C585 C584 1.363 . S
C585 C588 1.363 . S
N586 C588 1.356 . S
N586 H598 0.984 1_545 S
N586 H599 0.985 . S
N587 C589 1.356 . S
N587 H592 0.984 . S
N587 H593 0.985 . S
C588 C582 1.379 . S
C588 C585 1.363 . S
C588 N586 1.356 . S
C589 C583 1.363 . S
C589 C584 1.379 . S
C589 N587 1.356 . S
N590 C582 1.356 . S
N590 H596 0.984 1_545 S
N590 H597 0.984 . S
N591 C584 1.356 . S
N591 H594 0.984 . S
N591 H595 0.985 . S
H592 N587 0.984 . S
H593 N587 0.985 . S
H594 N591 0.984 . S
H595 N591 0.985 . S
H596 N590 0.984 1_565 S
H597 N590 0.984 . S
H598 N586 0.984 1_565 S
H599 N586 0.985 . S
C600 C601 1.363 . S
C600 C606 1.379 . S
C600 N608 1.356 . S
C601 C600 1.363 . S
C601 C607 1.363 . S
C602 C603 1.363 . S
C602 C607 1.379 . S
C602 N609 1.356 . S
C603 C602 1.363 . S
C603 C606 1.363 . S
N604 C606 1.356 . S
N604 H616 0.984 . S
N604 H617 0.985 . S
N605 C607 1.356 . S
N605 H610 0.984 . S
N605 H611 0.985 1_565 S
C606 C600 1.379 . S
C606 C603 1.363 . S
C606 N604 1.356 . S
C607 C601 1.363 . S
C607 C602 1.379 . S
C607 N605 1.356 . S
N608 C600 1.356 . S
N608 H614 0.984 . S
N608 H615 0.984 . S
N609 C602 1.356 . S
N609 H612 0.984 . S
N609 H613 0.985 1_565 S
H610 N605 0.984 . S
H611 N605 0.985 1_545 S
H612 N609 0.984 . S
H613 N609 0.985 1_545 S
H614 N608 0.984 . S
H615 N608 0.984 . S
H616 N604 0.984 . S
H617 N604 0.985 . S
C618 C619 1.363 . S
C618 C624 1.379 . S
C618 N626 1.356 . S
C619 C618 1.363 . S
C619 C625 1.363 . S
C620 C621 1.363 . S
C620 C625 1.379 . S
C620 N627 1.356 . S
C621 C620 1.363 . S
C621 C624 1.363 . S
N622 C624 1.356 . S
N622 H634 0.984 . S
N622 H635 0.985 . S
N623 C625 1.356 . S
N623 H628 0.984 . S
N623 H629 0.985 . S
C624 C618 1.379 . S
C624 C621 1.363 . S
C624 N622 1.356 . S
C625 C619 1.363 . S
C625 C620 1.379 . S
C625 N623 1.356 . S
N626 C618 1.356 . S
N626 H632 0.984 . S
N626 H633 0.984 . S
N627 C620 1.356 . S
N627 H630 0.984 . S
N627 H631 0.985 . S
H628 N623 0.984 . S
H629 N623 0.985 . S
H630 N627 0.984 . S
H631 N627 0.985 . S
H632 N626 0.984 . S
H633 N626 0.984 . S
H634 N622 0.984 . S
H635 N622 0.985 . S
C636 C637 1.363 . S
C636 C642 1.379 . S
C636 N644 1.356 . S
C637 C636 1.363 . S
C637 C643 1.363 . S
C638 C639 1.363 . S
C638 C643 1.379 . S
C638 N645 1.356 . S
C639 C638 1.363 . S
C639 C642 1.363 . S
N640 C642 1.356 . S
N640 H652 0.984 . S
N640 H653 0.985 . S
N641 C643 1.356 . S
N641 H646 0.984 . S
N641 H647 0.985 . S
C642 C636 1.379 . S
C642 C639 1.363 . S
C642 N640 1.356 . S
C643 C637 1.363 . S
C643 C638 1.379 . S
C643 N641 1.356 . S
N644 C636 1.356 . S
N644 H650 0.984 . S
N644 H651 0.984 . S
N645 C638 1.356 . S
N645 H648 0.984 . S
N645 H649 0.985 . S
H646 N641 0.984 . S
H647 N641 0.985 . S
H648 N645 0.984 . S
H649 N645 0.985 . S
H650 N644 0.984 . S
H651 N644 0.984 . S
H652 N640 0.984 . S
H653 N640 0.985 . S
C654 C655 1.363 . S
C654 C660 1.379 . S
C654 N662 1.356 . S
C655 C654 1.363 . S
C655 C661 1.363 . S
C656 C657 1.363 . S
C656 C661 1.379 . S
C656 N663 1.356 1_565 S
C657 C656 1.363 . S
C657 C660 1.363 . S
N658 C660 1.356 . S
N658 H670 0.984 . S
N658 H671 0.985 . S
N659 C661 1.356 . S
N659 H664 0.984 . S
N659 H665 0.985 1_565 S
C660 C654 1.379 . S
C660 C657 1.363 . S
C660 N658 1.356 . S
C661 C655 1.363 . S
C661 C656 1.379 . S
C661 N659 1.356 . S
N662 C654 1.356 . S
N662 H668 0.984 . S
N662 H669 0.984 . S
N663 C656 1.356 1_545 S
N663 H666 0.984 1_545 S
N663 H667 0.985 . S
H664 N659 0.984 . S
H665 N659 0.985 1_545 S
H666 N663 0.984 1_565 S
H667 N663 0.985 . S
H668 N662 0.984 . S
H669 N662 0.984 . S
H670 N658 0.984 . S
H671 N658 0.985 . S
C672 C673 1.363 . S
C672 C678 1.379 . S
C672 N680 1.356 . S
C673 C672 1.363 . S
C673 C679 1.363 . S
C674 C675 1.363 . S
C674 C679 1.379 . S
C674 N681 1.356 . S
C675 C674 1.363 . S
C675 C678 1.363 . S
N676 C678 1.356 . S
N676 H688 0.984 . S
N676 H689 0.985 . S
N677 C679 1.356 . S
N677 H682 0.984 . S
N677 H683 0.985 . S
C678 C672 1.379 . S
C678 C675 1.363 . S
C678 N676 1.356 . S
C679 C673 1.363 . S
C679 C674 1.379 . S
C679 N677 1.356 . S
N680 C672 1.356 . S
N680 H686 0.984 . S
N680 H687 0.984 . S
N681 C674 1.356 . S
N681 H684 0.984 . S
N681 H685 0.985 . S
H682 N677 0.984 . S
H683 N677 0.985 . S
H684 N681 0.984 . S
H685 N681 0.985 . S
H686 N680 0.984 . S
H687 N680 0.984 . S
H688 N676 0.984 . S
H689 N676 0.985 . S
C690 C691 1.363 . S
C690 C696 1.379 . S
C690 N698 1.356 . S
C691 C690 1.363 . S
C691 C697 1.363 . S
C692 C693 1.363 . S
C692 C697 1.379 . S
C692 N699 1.356 . S
C693 C692 1.363 . S
C693 C696 1.363 . S
N694 C696 1.356 . S
N694 H706 0.984 . S
N694 H707 0.985 . S
N695 C697 1.356 . S
N695 H700 0.984 . S
N695 H701 0.985 . S
C696 C690 1.379 . S
C696 C693 1.363 . S
C696 N694 1.356 . S
C697 C691 1.363 . S
C697 C692 1.379 . S
C697 N695 1.356 . S
N698 C690 1.356 . S
N698 H704 0.984 . S
N698 H705 0.984 . S
N699 C692 1.356 . S
N699 H702 0.984 . S
N699 H703 0.985 . S
H700 N695 0.984 . S
H701 N695 0.985 . S
H702 N699 0.984 . S
H703 N699 0.985 . S
H704 N698 0.984 . S
H705 N698 0.984 . S
H706 N694 0.984 . S
H707 N694 0.985 . S
C708 C709 1.363 . S
C708 C714 1.379 . S
C708 N716 1.356 . S
C709 C708 1.363 . S
C709 C715 1.363 . S
C710 C711 1.363 . S
C710 C715 1.379 . S
C710 N717 1.356 . S
C711 C710 1.363 . S
C711 C714 1.363 . S
N712 C714 1.356 . S
N712 H724 0.984 . S
N712 H725 0.985 . S
N713 C715 1.356 . S
N713 H718 0.984 . S
N713 H719 0.985 . S
C714 C708 1.379 . S
C714 C711 1.363 . S
C714 N712 1.356 . S
C715 C709 1.363 . S
C715 C710 1.379 . S
C715 N713 1.356 . S
N716 C708 1.356 . S
N716 H722 0.984 . S
N716 H723 0.984 . S
N717 C710 1.356 . S
N717 H720 0.984 . S
N717 H721 0.985 . S
H718 N713 0.984 . S
H719 N713 0.985 . S
H720 N717 0.984 . S
H721 N717 0.985 . S
H722 N716 0.984 . S
H723 N716 0.984 . S
H724 N712 0.984 . S
H725 N712 0.985 . S
C726 C727 1.363 . S
C726 C732 1.379 . S
C726 N734 1.356 . S
C727 C726 1.363 . S
C727 C733 1.363 . S
C728 C729 1.363 . S
C728 C733 1.379 . S
C728 N735 1.356 . S
C729 C728 1.363 . S
C729 C732 1.363 . S
N730 C732 1.356 . S
N730 H742 0.984 . S
N730 H743 0.985 . S
N731 C733 1.356 . S
N731 H736 0.984 . S
N731 H737 0.985 . S
C732 C726 1.379 . S
C732 C729 1.363 . S
C732 N730 1.356 . S
C733 C727 1.363 . S
C733 C728 1.379 . S
C733 N731 1.356 . S
N734 C726 1.356 . S
N734 H740 0.984 . S
N734 H741 0.984 . S
N735 C728 1.356 . S
N735 H738 0.984 . S
N735 H739 0.985 . S
H736 N731 0.984 . S
H737 N731 0.985 . S
H738 N735 0.984 . S
H739 N735 0.985 . S
H740 N734 0.984 . S
H741 N734 0.984 . S
H742 N730 0.984 . S
H743 N730 0.985 . S
C744 C745 1.363 . S
C744 C750 1.379 . S
C744 N752 1.356 . S
C745 C744 1.363 . S
C745 C751 1.363 . S
C746 C747 1.363 . S
C746 C751 1.379 . S
C746 N753 1.356 . S
C747 C746 1.363 . S
C747 C750 1.363 . S
N748 C750 1.356 . S
N748 H760 0.984 . S
N748 H761 0.985 . S
N749 C751 1.356 . S
N749 H754 0.984 . S
N749 H755 0.985 . S
C750 C744 1.379 . S
C750 C747 1.363 . S
C750 N748 1.356 . S
C751 C745 1.363 . S
C751 C746 1.379 . S
C751 N749 1.356 . S
N752 C744 1.356 . S
N752 H758 0.984 . S
N752 H759 0.984 . S
N753 C746 1.356 . S
N753 H756 0.984 . S
N753 H757 0.985 . S
H754 N749 0.984 . S
H755 N749 0.985 . S
H756 N753 0.984 . S
H757 N753 0.985 . S
H758 N752 0.984 . S
H759 N752 0.984 . S
H760 N748 0.984 . S
H761 N748 0.985 . S
C762 C763 1.363 . S
C762 C768 1.379 . S
C762 N770 1.356 . S
C763 C762 1.363 . S
C763 C769 1.363 . S
C764 C765 1.363 . S
C764 C769 1.379 . S
C764 N771 1.356 . S
C765 C764 1.363 . S
C765 C768 1.363 . S
N766 C768 1.356 . S
N766 H778 0.984 . S
N766 H779 0.985 . S
N767 C769 1.356 . S
N767 H772 0.984 . S
N767 H773 0.985 . S
C768 C762 1.379 . S
C768 C765 1.363 . S
C768 N766 1.356 . S
C769 C763 1.363 . S
C769 C764 1.379 . S
C769 N767 1.356 . S
N770 C762 1.356 . S
N770 H776 0.984 . S
N770 H777 0.984 . S
N771 C764 1.356 . S
N771 H774 0.984 . S
N771 H775 0.985 . S
H772 N767 0.984 . S
H773 N767 0.985 . S
H774 N771 0.984 . S
H775 N771 0.985 . S
H776 N770 0.984 . S
H777 N770 0.984 . S
H778 N766 0.984 . S
H779 N766 0.985 . S
C780 C781 1.363 . S
C780 C786 1.379 . S
C780 N788 1.356 . S
C781 C780 1.363 . S
C781 C787 1.363 . S
C782 C783 1.363 . S
C782 C787 1.379 . S
C782 N789 1.356 . S
C783 C782 1.363 . S
C783 C786 1.363 . S
N784 C786 1.356 . S
N784 H796 0.984 . S
N784 H797 0.985 . S
N785 C787 1.356 . S
N785 H790 0.984 . S
N785 H791 0.985 . S
C786 C780 1.379 . S
C786 C783 1.363 . S
C786 N784 1.356 . S
C787 C781 1.363 . S
C787 C782 1.379 . S
C787 N785 1.356 . S
N788 C780 1.356 . S
N788 H794 0.984 . S
N788 H795 0.984 . S
N789 C782 1.356 . S
N789 H792 0.984 . S
N789 H793 0.985 . S
H790 N785 0.984 . S
H791 N785 0.985 . S
H792 N789 0.984 . S
H793 N789 0.985 . S
H794 N788 0.984 . S
H795 N788 0.984 . S
H796 N784 0.984 . S
H797 N784 0.985 . S
C798 C799 1.363 . S
C798 C804 1.379 . S
C798 N806 1.356 . S
C799 C798 1.363 . S
C799 C805 1.363 . S
C800 C801 1.363 . S
C800 C805 1.379 . S
C800 N807 1.356 . S
C801 C800 1.363 . S
C801 C804 1.363 . S
N802 C804 1.356 . S
N802 H814 0.984 . S
N802 H815 0.985 . S
N803 C805 1.356 . S
N803 H808 0.984 . S
N803 H809 0.985 . S
C804 C798 1.379 . S
C804 C801 1.363 . S
C804 N802 1.356 . S
C805 C799 1.363 . S
C805 C800 1.379 . S
C805 N803 1.356 . S
N806 C798 1.356 . S
N806 H812 0.984 . S
N806 H813 0.984 . S
N807 C800 1.356 . S
N807 H810 0.984 . S
N807 H811 0.985 . S
H808 N803 0.984 . S
H809 N803 0.985 . S
H810 N807 0.984 . S
H811 N807 0.985 . S
H812 N806 0.984 . S
H813 N806 0.984 . S
H814 N802 0.984 . S
H815 N802 0.985 . S
C816 C817 1.363 . S
C816 C822 1.379 . S
C816 N824 1.356 . S
C817 C816 1.363 . S
C817 C823 1.363 . S
C818 C819 1.363 . S
C818 C823 1.379 . S
C818 N825 1.356 . S
C819 C818 1.363 . S
C819 C822 1.363 . S
N820 C822 1.356 . S
N820 H832 0.984 . S
N820 H833 0.985 . S
N821 C823 1.356 . S
N821 H826 0.984 . S
N821 H827 0.985 . S
C822 C816 1.379 . S
C822 C819 1.363 . S
C822 N820 1.356 . S
C823 C817 1.363 . S
C823 C818 1.379 . S
C823 N821 1.356 . S
N824 C816 1.356 . S
N824 H830 0.984 . S
N824 H831 0.984 . S
N825 C818 1.356 . S
N825 H828 0.984 . S
N825 H829 0.985 . S
H826 N821 0.984 . S
H827 N821 0.985 . S
H828 N825 0.984 . S
H829 N825 0.985 . S
H830 N824 0.984 . S
H831 N824 0.984 . S
H832 N820 0.984 . S
H833 N820 0.985 . S
C834 C835 1.363 . S
C834 C840 1.379 . S
C834 N842 1.356 . S
C835 C834 1.363 . S
C835 C841 1.363 . S
C836 C837 1.363 . S
C836 C841 1.379 . S
C836 N843 1.356 . S
C837 C836 1.363 . S
C837 C840 1.363 . S
N838 C840 1.356 . S
N838 H850 0.984 . S
N838 H851 0.985 . S
N839 C841 1.356 . S
N839 H844 0.984 . S
N839 H845 0.985 . S
C840 C834 1.379 . S
C840 C837 1.363 . S
C840 N838 1.356 . S
C841 C835 1.363 . S
C841 C836 1.379 . S
C841 N839 1.356 . S
N842 C834 1.356 . S
N842 H848 0.984 . S
N842 H849 0.984 . S
N843 C836 1.356 . S
N843 H846 0.984 . S
N843 H847 0.985 . S
H844 N839 0.984 . S
H845 N839 0.985 . S
H846 N843 0.984 . S
H847 N843 0.985 . S
H848 N842 0.984 . S
H849 N842 0.984 . S
H850 N838 0.984 . S
H851 N838 0.985 . S
C852 C853 1.363 . S
C852 C858 1.379 . S
C852 N860 1.356 . S
C853 C852 1.363 . S
C853 C859 1.363 . S
C854 C855 1.363 . S
C854 C859 1.379 . S
C854 N861 1.356 . S
C855 C854 1.363 . S
C855 C858 1.363 . S
N856 C858 1.356 1_455 S
N856 H868 0.984 . S
N856 H869 0.985 . S
N857 C859 1.356 . S
N857 H862 0.984 . S
N857 H863 0.985 . S
C858 C852 1.379 . S
C858 C855 1.363 . S
C858 N856 1.356 1_655 S
C859 C853 1.363 . S
C859 C854 1.379 . S
C859 N857 1.356 . S
N860 C852 1.356 . S
N860 H866 0.984 . S
N860 H867 0.984 . S
N861 C854 1.356 . S
N861 H864 0.984 . S
N861 H865 0.985 . S
H862 N857 0.984 . S
H863 N857 0.985 . S
H864 N861 0.984 . S
H865 N861 0.985 . S
H866 N860 0.984 . S
H867 N860 0.984 . S
H868 N856 0.984 . S
H869 N856 0.985 . S
C870 C871 1.363 1_545 S
C870 C876 1.379 1_545 S
C870 N878 1.356 . S
C871 C870 1.363 1_565 S
C871 C877 1.363 . S
C872 C873 1.363 . S
C872 C877 1.379 . S
C872 N879 1.356 . S
C873 C872 1.363 . S
C873 C876 1.363 . S
N874 C876 1.356 . S
N874 H886 0.984 1_565 S
N874 H887 0.985 . S
N875 C877 1.356 . S
N875 H880 0.984 . S
N875 H881 0.985 . S
C876 C870 1.379 1_565 S
C876 C873 1.363 . S
C876 N874 1.356 . S
C877 C871 1.363 . S
C877 C872 1.379 . S
C877 N875 1.356 . S
N878 C870 1.356 . S
N878 H884 0.984 . S
N878 H885 0.984 . S
N879 C872 1.356 . S
N879 H882 0.984 . S
N879 H883 0.985 . S
H880 N875 0.984 . S
H881 N875 0.985 . S
H882 N879 0.984 . S
H883 N879 0.985 . S
H884 N878 0.984 . S
H885 N878 0.984 . S
H886 N874 0.984 1_545 S
H887 N874 0.985 . S
C888 C889 1.363 . S
C888 C894 1.379 . S
C888 N896 1.356 . S
C889 C888 1.363 . S
C889 C895 1.363 . S
C890 C891 1.363 . S
C890 C895 1.379 . S
C890 N897 1.356 . S
C891 C890 1.363 . S
C891 C894 1.363 . S
N892 C894 1.356 . S
N892 H904 0.984 . S
N892 H905 0.985 . S
N893 C895 1.356 . S
N893 H898 0.984 . S
N893 H899 0.985 . S
C894 C888 1.379 . S
C894 C891 1.363 . S
C894 N892 1.356 . S
C895 C889 1.363 . S
C895 C890 1.379 . S
C895 N893 1.356 . S
N896 C888 1.356 . S
N896 H902 0.984 . S
N896 H903 0.984 . S
N897 C890 1.356 . S
N897 H900 0.984 . S
N897 H901 0.985 . S
H898 N893 0.984 . S
H899 N893 0.985 . S
H900 N897 0.984 . S
H901 N897 0.985 . S
H902 N896 0.984 . S
H903 N896 0.984 . S
H904 N892 0.984 . S
H905 N892 0.985 . S
C906 C907 1.363 . S
C906 C912 1.379 . S
C906 N914 1.356 . S
C907 C906 1.363 . S
C907 C913 1.363 . S
C908 C909 1.363 . S
C908 C913 1.379 . S
C908 N915 1.356 . S
C909 C908 1.363 . S
C909 C912 1.363 . S
N910 C912 1.356 . S
N910 H922 0.984 . S
N910 H923 0.985 . S
N911 C913 1.356 . S
N911 H916 0.984 . S
N911 H917 0.985 . S
C912 C906 1.379 . S
C912 C909 1.363 . S
C912 N910 1.356 . S
C913 C907 1.363 . S
C913 C908 1.379 . S
C913 N911 1.356 . S
N914 C906 1.356 . S
N914 H920 0.984 . S
N914 H921 0.984 . S
N915 C908 1.356 . S
N915 H918 0.984 . S
N915 H919 0.985 . S
H916 N911 0.984 . S
H917 N911 0.985 . S
H918 N915 0.984 . S
H919 N915 0.985 . S
H920 N914 0.984 . S
H921 N914 0.984 . S
H922 N910 0.984 . S
H923 N910 0.985 . S
C924 C925 1.363 . S
C924 C930 1.379 . S
C924 N932 1.356 . S
C925 C924 1.363 . S
C925 C931 1.363 . S
C926 C927 1.363 . S
C926 C931 1.379 . S
C926 N933 1.356 1_655 S
C927 C926 1.363 . S
C927 C930 1.363 . S
N928 C930 1.356 . S
N928 H940 0.984 . S
N928 H941 0.985 . S
N929 C931 1.356 . S
N929 H934 0.984 . S
N929 H935 0.985 . S
C930 C924 1.379 . S
C930 C927 1.363 . S
C930 N928 1.356 . S
C931 C925 1.363 . S
C931 C926 1.379 . S
C931 N929 1.356 . S
N932 C924 1.356 . S
N932 H938 0.984 . S
N932 H939 0.984 . S
N933 C926 1.356 1_455 S
N933 H936 0.984 . S
N933 H937 0.985 . S
H934 N929 0.984 . S
H935 N929 0.985 . S
H936 N933 0.984 . S
H937 N933 0.985 . S
H938 N932 0.984 . S
H939 N932 0.984 . S
H940 N928 0.984 . S
H941 N928 0.985 . S
C942 C943 1.363 . S
C942 C948 1.379 1_565 S
C942 N950 1.356 . S
C943 C942 1.363 . S
C943 C949 1.363 . S
C944 C945 1.363 . S
C944 C949 1.379 . S
C944 N951 1.356 . S
C945 C944 1.363 . S
C945 C948 1.363 1_565 S
N946 C948 1.356 . S
N946 H958 0.984 . S
N946 H959 0.985 . S
N947 C949 1.356 . S
N947 H952 0.984 . S
N947 H953 0.985 . S
C948 C942 1.379 1_545 S
C948 C945 1.363 1_545 S
C948 N946 1.356 . S
C949 C943 1.363 . S
C949 C944 1.379 . S
C949 N947 1.356 . S
N950 C942 1.356 . S
N950 H956 0.984 1_565 S
N950 H957 0.984 . S
N951 C944 1.356 . S
N951 H954 0.984 . S
N951 H955 0.985 . S
H952 N947 0.984 . S
H953 N947 0.985 . S
H954 N951 0.984 . S
H955 N951 0.985 . S
H956 N950 0.984 1_545 S
H957 N950 0.984 . S
H958 N946 0.984 . S
H959 N946 0.985 . S
C960 C961 1.363 . S
C960 C966 1.379 . S
C960 N968 1.356 . S
C961 C960 1.363 . S
C961 C967 1.363 . S
C962 C963 1.363 . S
C962 C967 1.379 . S
C962 N969 1.356 . S
C963 C962 1.363 . S
C963 C966 1.363 . S
N964 C966 1.356 . S
N964 H976 0.984 . S
N964 H977 0.985 . S
N965 C967 1.356 . S
N965 H970 0.984 . S
N965 H971 0.985 . S
C966 C960 1.379 . S
C966 C963 1.363 . S
C966 N964 1.356 . S
C967 C961 1.363 . S
C967 C962 1.379 . S
C967 N965 1.356 . S
N968 C960 1.356 . S
N968 H974 0.984 . S
N968 H975 0.984 . S
N969 C962 1.356 . S
N969 H972 0.984 . S
N969 H973 0.985 . S
H970 N965 0.984 . S
H971 N965 0.985 . S
H972 N969 0.984 . S
H973 N969 0.985 . S
H974 N968 0.984 . S
H975 N968 0.984 . S
H976 N964 0.984 . S
H977 N964 0.985 . S
C978 C979 1.363 . S
C978 C984 1.379 . S
C978 N986 1.356 . S
C979 C978 1.363 . S
C979 C985 1.363 . S
C980 C981 1.363 . S
C980 C985 1.379 . S
C980 N987 1.356 . S
C981 C980 1.363 . S
C981 C984 1.363 . S
N982 C984 1.356 . S
N982 H994 0.984 . S
N982 H995 0.985 . S
N983 C985 1.356 . S
N983 H988 0.984 . S
N983 H989 0.985 . S
C984 C978 1.379 . S
C984 C981 1.363 . S
C984 N982 1.356 . S
C985 C979 1.363 . S
C985 C980 1.379 . S
C985 N983 1.356 . S
N986 C978 1.356 . S
N986 H992 0.984 . S
N986 H993 0.984 . S
N987 C980 1.356 . S
N987 H990 0.984 . S
N987 H991 0.985 . S
H988 N983 0.984 . S
H989 N983 0.985 . S
H990 N987 0.984 . S
H991 N987 0.985 . S
H992 N986 0.984 . S
H993 N986 0.984 . S
H994 N982 0.984 . S
H995 N982 0.985 . S
C996 C997 1.363 . S
C996 C1002 1.379 . S
C996 N1004 1.356 . S
C997 C996 1.363 . S
C997 C1003 1.363 . S
C998 C999 1.363 . S
C998 C1003 1.379 . S
C998 N1005 1.356 . S
C999 C998 1.363 . S
C999 C1002 1.363 . S
N1000 C1002 1.356 . S
N1000 H1012 0.984 . S
N1000 H1013 0.985 . S
N1001 C1003 1.356 1_655 S
N1001 H1006 0.984 . S
N1001 H1007 0.985 . S
C1002 C996 1.379 . S
C1002 C999 1.363 . S
C1002 N1000 1.356 . S
C1003 C997 1.363 . S
C1003 C998 1.379 . S
C1003 N1001 1.356 1_455 S
N1004 C996 1.356 . S
N1004 H1010 0.984 . S
N1004 H1011 0.984 . S
N1005 C998 1.356 . S
N1005 H1008 0.984 . S
N1005 H1009 0.985 . S
H1006 N1001 0.984 . S
H1007 N1001 0.985 . S
H1008 N1005 0.984 . S
H1009 N1005 0.985 . S
H1010 N1004 0.984 . S
H1011 N1004 0.984 . S
H1012 N1000 0.984 . S
H1013 N1000 0.985 . S
C1014 C1015 1.363 . S
C1014 C1020 1.379 . S
C1014 N1022 1.356 1_545 S
C1015 C1014 1.363 . S
C1015 C1021 1.363 . S
C1016 C1017 1.363 . S
C1016 C1021 1.379 . S
C1016 N1023 1.356 . S
C1017 C1016 1.363 . S
C1017 C1020 1.363 . S
N1018 C1020 1.356 . S
N1018 H1030 0.984 . S
N1018 H1031 0.985 . S
N1019 C1021 1.356 . S
N1019 H1024 0.984 . S
N1019 H1025 0.985 . S
C1020 C1014 1.379 . S
C1020 C1017 1.363 . S
C1020 N1018 1.356 . S
C1021 C1015 1.363 . S
C1021 C1016 1.379 . S
C1021 N1019 1.356 . S
N1022 C1014 1.356 1_565 S
N1022 H1028 0.984 . S
N1022 H1029 0.984 . S
N1023 C1016 1.356 . S
N1023 H1026 0.984 . S
N1023 H1027 0.985 . S
H1024 N1019 0.984 . S
H1025 N1019 0.985 . S
H1026 N1023 0.984 . S
H1027 N1023 0.985 . S
H1028 N1022 0.984 . S
H1029 N1022 0.984 . S
H1030 N1018 0.984 . S
H1031 N1018 0.985 . S
C1032 C1033 1.363 . S
C1032 C1038 1.379 . S
C1032 N1040 1.356 . S
C1033 C1032 1.363 . S
C1033 C1039 1.363 . S
C1034 C1035 1.363 . S
C1034 C1039 1.379 . S
C1034 N1041 1.356 . S
C1035 C1034 1.363 . S
C1035 C1038 1.363 . S
N1036 C1038 1.356 . S
N1036 H1048 0.984 . S
N1036 H1049 0.985 . S
N1037 C1039 1.356 . S
N1037 H1042 0.984 . S
N1037 H1043 0.985 . S
C1038 C1032 1.379 . S
C1038 C1035 1.363 . S
C1038 N1036 1.356 . S
C1039 C1033 1.363 . S
C1039 C1034 1.379 . S
C1039 N1037 1.356 . S
N1040 C1032 1.356 . S
N1040 H1046 0.984 . S
N1040 H1047 0.984 . S
N1041 C1034 1.356 . S
N1041 H1044 0.984 . S
N1041 H1045 0.985 . S
H1042 N1037 0.984 . S
H1043 N1037 0.985 . S
H1044 N1041 0.984 . S
H1045 N1041 0.985 . S
H1046 N1040 0.984 . S
H1047 N1040 0.984 . S
H1048 N1036 0.984 . S
H1049 N1036 0.985 . S
C1050 C1051 1.363 . S
C1050 C1056 1.379 . S
C1050 N1058 1.356 . S
C1051 C1050 1.363 . S
C1051 C1057 1.363 . S
C1052 C1053 1.363 . S
C1052 C1057 1.379 . S
C1052 N1059 1.356 . S
C1053 C1052 1.363 . S
C1053 C1056 1.363 . S
N1054 C1056 1.356 . S
N1054 H1066 0.984 . S
N1054 H1067 0.985 . S
N1055 C1057 1.356 . S
N1055 H1060 0.984 . S
N1055 H1061 0.985 . S
C1056 C1050 1.379 . S
C1056 C1053 1.363 . S
C1056 N1054 1.356 . S
C1057 C1051 1.363 . S
C1057 C1052 1.379 . S
C1057 N1055 1.356 . S
N1058 C1050 1.356 . S
N1058 H1064 0.984 . S
N1058 H1065 0.984 . S
N1059 C1052 1.356 . S
N1059 H1062 0.984 . S
N1059 H1063 0.985 . S
H1060 N1055 0.984 . S
H1061 N1055 0.985 . S
H1062 N1059 0.984 . S
H1063 N1059 0.985 . S
H1064 N1058 0.984 . S
H1065 N1058 0.984 . S
H1066 N1054 0.984 . S
H1067 N1054 0.985 . S
C1068 C1069 1.363 . S
C1068 C1074 1.379 . S
C1068 N1076 1.356 . S
C1069 C1068 1.363 . S
C1069 C1075 1.363 . S
C1070 C1071 1.363 . S
C1070 C1075 1.379 . S
C1070 N1077 1.356 . S
C1071 C1070 1.363 . S
C1071 C1074 1.363 . S
N1072 C1074 1.356 . S
N1072 H1084 0.984 . S
N1072 H1085 0.985 . S
N1073 C1075 1.356 1_655 S
N1073 H1078 0.984 . S
N1073 H1079 0.985 . S
C1074 C1068 1.379 . S
C1074 C1071 1.363 . S
C1074 N1072 1.356 . S
C1075 C1069 1.363 . S
C1075 C1070 1.379 . S
C1075 N1073 1.356 1_455 S
N1076 C1068 1.356 . S
N1076 H1082 0.984 . S
N1076 H1083 0.972 1_455 S
N1077 C1070 1.356 . S
N1077 H1080 0.984 . S
N1077 H1081 0.985 . S
H1078 N1073 0.984 . S
H1079 N1073 0.985 . S
H1080 N1077 0.984 . S
H1081 N1077 0.985 . S
H1082 N1076 0.984 . S
H1083 N1076 0.972 1_655 S
H1084 N1072 0.984 . S
H1085 N1072 0.985 . S
C1086 C1087 1.363 . S
C1086 C1092 1.379 . S
C1086 N1094 1.356 . S
C1087 C1086 1.363 . S
C1087 C1093 1.363 . S
C1088 C1089 1.363 1_565 S
C1088 C1093 1.379 1_565 S
C1088 N1095 1.356 . S
C1089 C1088 1.363 1_545 S
C1089 C1092 1.363 . S
N1090 C1092 1.356 . S
N1090 H1102 0.984 . S
N1090 H1103 0.985 . S
N1091 C1093 1.356 . S
N1091 H1096 0.984 . S
N1091 H1097 0.985 1_545 S
C1092 C1086 1.379 . S
C1092 C1089 1.363 . S
C1092 N1090 1.356 . S
C1093 C1087 1.363 . S
C1093 C1088 1.379 1_545 S
C1093 N1091 1.356 . S
N1094 C1086 1.356 . S
N1094 H1100 0.984 . S
N1094 H1101 0.984 . S
N1095 C1088 1.356 . S
N1095 H1098 0.984 . S
N1095 H1099 0.985 . S
H1096 N1091 0.984 . S
H1097 N1091 0.985 1_565 S
H1098 N1095 0.984 . S
H1099 N1095 0.985 . S
H1100 N1094 0.984 . S
H1101 N1094 0.984 . S
H1102 N1090 0.984 . S
H1103 N1090 0.985 . S
C1104 C1105 1.363 . S
C1104 C1110 1.379 1_566 S
C1104 N1112 1.356 . S
C1105 C1104 1.363 . S
C1105 C1111 1.363 . S
C1106 C1107 1.363 . S
C1106 C1111 1.379 1_544 S
C1106 N1113 1.356 . S
C1107 C1106 1.363 . S
C1107 C1110 1.363 . S
N1108 C1110 1.356 . S
N1108 H1120 0.984 . S
N1108 H1121 0.985 . S
N1109 C1111 1.356 . S
N1109 H1114 0.984 . S
N1109 H1115 0.985 . S
C1110 C1104 1.379 1_544 S
C1110 C1107 1.363 . S
C1110 N1108 1.356 . S
C1111 C1105 1.363 . S
C1111 C1106 1.379 1_566 S
C1111 N1109 1.356 . S
N1112 C1104 1.356 . S
N1112 H1118 0.984 1_565 S
N1112 H1119 0.984 . S
N1113 C1106 1.356 . S
N1113 H1116 0.984 . S
N1113 H1117 0.985 1_545 S
H1114 N1109 0.984 . S
H1115 N1109 0.985 . S
H1116 N1113 0.984 . S
H1117 N1113 0.985 1_565 S
H1118 N1112 0.984 1_545 S
H1119 N1112 0.984 . S
H1120 N1108 0.984 . S
H1121 N1108 0.985 . S
C1122 C1123 1.363 . S
C1122 C1128 1.379 . S
C1122 N1130 1.356 . S
C1123 C1122 1.363 . S
C1123 C1129 1.363 . S
C1124 C1125 1.363 . S
C1124 C1129 1.379 . S
C1124 N1131 1.356 . S
C1125 C1124 1.363 . S
C1125 C1128 1.363 . S
N1126 C1128 1.356 . S
N1126 H1138 0.984 . S
N1126 H1139 0.985 . S
N1127 C1129 1.356 . S
N1127 H1132 0.984 . S
N1127 H1133 0.985 . S
C1128 C1122 1.379 . S
C1128 C1125 1.363 . S
C1128 N1126 1.356 . S
C1129 C1123 1.363 . S
C1129 C1124 1.379 . S
C1129 N1127 1.356 . S
N1130 C1122 1.356 . S
N1130 H1136 0.984 . S
N1130 H1137 0.984 . S
N1131 C1124 1.356 . S
N1131 H1134 0.984 . S
N1131 H1135 0.985 . S
H1132 N1127 0.984 . S
H1133 N1127 0.985 . S
H1134 N1131 0.984 . S
H1135 N1131 0.985 . S
H1136 N1130 0.984 . S
H1137 N1130 0.984 . S
H1138 N1126 0.984 . S
H1139 N1126 0.985 . S
C1140 C1141 1.363 . S
C1140 C1146 1.379 1_554 S
C1140 N1148 1.356 . S
C1141 C1140 1.363 . S
C1141 C1147 1.363 1_455 S
C1142 C1143 1.363 . S
C1142 C1147 1.379 1_556 S
C1142 N1149 1.356 . S
C1143 C1142 1.363 . S
C1143 C1146 1.363 1_655 S
N1144 C1146 1.356 . S
N1144 H1156 0.984 . S
N1144 H1157 0.985 . S
N1145 C1147 1.356 . S
N1145 H1150 0.984 . S
N1145 H1151 0.985 . S
C1146 C1140 1.379 1_556 S
C1146 C1143 1.363 1_455 S
C1146 N1144 1.356 . S
C1147 C1141 1.363 1_655 S
C1147 C1142 1.379 1_554 S
C1147 N1145 1.356 . S
N1148 C1140 1.356 . S
N1148 H1154 0.984 . S
N1148 H1155 0.984 . S
N1149 C1142 1.356 . S
N1149 H1152 0.984 . S
N1149 H1153 0.985 . S
H1150 N1145 0.984 . S
H1151 N1145 0.985 . S
H1152 N1149 0.984 . S
H1153 N1149 0.985 . S
H1154 N1148 0.984 . S
H1155 N1148 0.984 . S
H1156 N1144 0.984 . S
H1157 N1144 0.985 . S
C1158 C1159 1.363 1_545 S
C1158 C1164 1.379 1_655 S
C1158 N1166 1.356 . S
C1159 C1158 1.363 1_565 S
C1159 C1165 1.363 . S
C1160 C1161 1.363 1_565 S
C1160 C1165 1.379 1_455 S
C1160 N1167 1.356 . S
C1161 C1160 1.363 1_545 S
C1161 C1164 1.363 . S
N1162 C1164 1.356 . S
N1162 H1174 0.984 . S
N1162 H1175 0.985 . S
N1163 C1165 1.356 . S
N1163 H1168 0.984 . S
N1163 H1169 0.985 . S
C1164 C1158 1.379 1_455 S
C1164 C1161 1.363 . S
C1164 N1162 1.356 . S
C1165 C1159 1.363 . S
C1165 C1160 1.379 1_655 S
C1165 N1163 1.356 . S
N1166 C1158 1.356 . S
N1166 H1172 0.984 1_655 S
N1166 H1173 0.984 1_545 S
N1167 C1160 1.356 . S
N1167 H1170 0.984 1_565 S
N1167 H1171 0.985 1_455 S
H1168 N1163 0.984 . S
H1169 N1163 0.985 . S
H1170 N1167 0.984 1_545 S
H1171 N1167 0.985 1_655 S
H1172 N1166 0.984 1_455 S
H1173 N1166 0.984 1_565 S
H1174 N1162 0.984 . S
H1175 N1162 0.985 . S
C1176 C1177 1.363 1_554 S
C1176 C1182 1.379 . S
C1176 N1184 1.356 . S
C1177 C1176 1.363 1_556 S
C1177 C1183 1.363 . S
C1178 C1179 1.363 1_556 S
C1178 C1183 1.379 . S
C1178 N1185 1.356 . S
C1179 C1178 1.363 1_554 S
C1179 C1182 1.363 . S
N1180 C1182 1.356 . S
N1180 H1192 0.984 . S
N1180 H1193 0.985 . S
N1181 C1183 1.356 . S
N1181 H1186 0.984 . S
N1181 H1187 0.985 . S
C1182 C1176 1.379 . S
C1182 C1179 1.363 . S
C1182 N1180 1.356 . S
C1183 C1177 1.363 . S
C1183 C1178 1.379 . S
C1183 N1181 1.356 . S
N1184 C1176 1.356 . S
N1184 H1190 0.984 . S
N1184 H1191 0.984 1_554 S
N1185 C1178 1.356 . S
N1185 H1188 0.984 1_556 S
N1185 H1189 0.985 . S
H1186 N1181 0.984 . S
H1187 N1181 0.985 . S
H1188 N1185 0.984 1_554 S
H1189 N1185 0.985 . S
H1190 N1184 0.984 . S
H1191 N1184 0.984 1_556 S
H1192 N1180 0.984 . S
H1193 N1180 0.985 . S
C1194 C1195 1.363 . S
C1194 C1200 1.379 1_455 S
C1194 N1202 1.356 . S
C1195 C1194 1.363 . S
C1195 C1201 1.363 . S
C1196 C1197 1.363 . S
C1196 C1201 1.379 1_655 S
C1196 N1203 1.356 . S
C1197 C1196 1.363 . S
C1197 C1200 1.363 . S
N1198 C1200 1.356 . S
N1198 H1210 0.984 . S
N1198 H1211 0.985 . S
N1199 C1201 1.356 . S
N1199 H1204 0.984 . S
N1199 H1205 0.985 . S
C1200 C1194 1.379 1_655 S
C1200 C1197 1.363 . S
C1200 N1198 1.356 . S
C1201 C1195 1.363 . S
C1201 C1196 1.379 1_455 S
C1201 N1199 1.356 . S
N1202 C1194 1.356 . S
N1202 H1208 0.984 . S
N1202 H1209 0.984 . S
N1203 C1196 1.356 . S
N1203 H1206 0.984 . S
N1203 H1207 0.985 . S
H1204 N1199 0.984 . S
H1205 N1199 0.985 . S
H1206 N1203 0.984 . S
H1207 N1203 0.985 . S
H1208 N1202 0.984 . S
H1209 N1202 0.984 . S
H1210 N1198 0.984 . S
H1211 N1198 0.985 . S
C1212 C1213 1.385 1_455 S
C1212 C1218 1.357 1_554 S
C1212 N1220 1.365 . S
C1213 C1212 1.385 1_655 S
C1213 C1219 1.363 1_565 S
C1214 C1215 1.385 1_655 S
C1214 C1219 1.357 1_556 S
C1214 N1221 1.365 . S
C1215 C1214 1.385 1_455 S
C1215 C1218 1.363 1_545 S
N1216 C1218 1.356 1_545 S
N1216 H1228 0.984 1_545 S
N1216 H1229 0.985 . S
N1217 C1219 1.356 1_565 S
N1217 H1222 0.984 . S
N1217 H1223 0.985 1_565 S
C1218 C1212 1.357 1_556 S
C1218 C1215 1.363 1_565 S
C1218 N1216 1.356 1_565 S
C1219 C1213 1.363 1_545 S
C1219 C1214 1.357 1_554 S
C1219 N1217 1.356 1_545 S
N1220 C1212 1.365 . S
N1220 H1226 0.984 1_554 S
N1220 H1227 0.984 . S
N1221 C1214 1.365 . S
N1221 H1224 0.984 . S
N1221 H1225 0.985 1_556 S
H1222 N1217 0.984 . S
H1223 N1217 0.985 1_545 S
H1224 N1221 0.984 . S
H1225 N1221 0.985 1_554 S
H1226 N1220 0.984 1_556 S
H1227 N1220 0.984 . S
H1228 N1216 0.984 1_565 S
H1229 N1216 0.985 . S
C1230 C1231 1.363 . S
C1230 C1236 1.379 . S
C1230 N1238 1.356 . S
C1231 C1230 1.363 . S
C1231 C1237 1.363 1_545 S
C1232 C1233 1.363 . S
C1232 C1237 1.379 . S
C1232 N1239 1.356 . S
C1233 C1232 1.363 . S
C1233 C1236 1.363 1_565 S
N1234 C1236 1.356 . S
N1234 H1246 0.984 . S
N1234 H1247 0.985 . S
N1235 C1237 1.356 . S
N1235 H1240 0.984 . S
N1235 H1241 0.985 . S
C1236 C1230 1.379 . S
C1236 C1233 1.363 1_545 S
C1236 N1234 1.356 . S
C1237 C1231 1.363 1_565 S
C1237 C1232 1.379 . S
C1237 N1235 1.356 . S
N1238 C1230 1.356 . S
N1238 H1244 0.984 . S
N1238 H1245 0.984 . S
N1239 C1232 1.356 . S
N1239 H1242 0.984 . S
N1239 H1243 0.985 . S
H1240 N1235 0.984 . S
H1241 N1235 0.985 . S
H1242 N1239 0.984 . S
H1243 N1239 0.985 . S
H1244 N1238 0.984 . S
H1245 N1238 0.984 . S
H1246 N1234 0.984 . S
H1247 N1234 0.985 . S
C529 C17 1.627 . S
C531 C248 1.627 . S
C547 C149 1.627 . S
C549 C50 1.627 . S
C565 C83 1.627 . S
C567 C182 1.627 . S
C583 C116 1.627 . S
C585 C215 1.627 . S
C601 C281 1.627 . S
C603 C512 1.627 . S
C619 C314 1.627 . S
C621 C413 1.627 . S
C637 C347 1.627 . S
C639 C446 1.627 . S
C655 C479 1.627 . S
C657 C380 1.627 . S
C673 C8 2.167 . S
C675 C74 2.167 . S
C691 C107 2.167 . S
C693 C41 2.167 . S
C709 C206 2.167 . S
C711 C140 2.167 . S
C727 C173 2.167 . S
C729 C239 2.167 . S
C745 C338 2.167 . S
C747 C272 2.167 . S
C763 C371 2.167 . S
C765 C305 2.167 . S
C781 C470 2.167 . S
C783 C404 2.167 . S
C799 C503 2.167 . S
C801 C437 2.167 . S
C817 N410 0.924 . S
C819 N5 0.965 . S
C835 N443 0.924 . S
C837 N38 0.965 . S
C853 N71 0.965 . S
C855 N476 0.924 . S
C871 N509 0.924 . S
C873 N104 0.965 . S
C889 N137 0.965 . S
C891 N278 0.924 . S
C907 N311 0.924 . S
C909 N170 0.965 . S
C925 N203 0.965 . S
C927 N344 0.924 . S
C943 N236 0.965 . S
C945 N377 0.924 . S
C961 N146 0.924 . S
C963 N269 0.965 . S
C979 N179 0.924 . S
C981 N302 0.965 . S
C997 N212 0.924 . S
C999 N335 0.965 . S
C1015 N245 0.924 . S
C1017 N368 0.965 . S
C1033 N14 0.924 . S
C1035 N401 0.965 . S
C1051 N47 0.924 . S
C1053 N434 0.965 . S
C1069 N80 0.924 . S
C1071 N467 0.965 . S
C1087 N500 0.965 . S
C1089 N113 0.924 . S
C1105 C292 1.875 . S
C1107 C28 1.875 . S
C1123 C61 1.875 . S
C1125 C325 1.875 . S
C1141 C94 1.875 . S
C1143 C358 1.875 . S
C1159 C391 1.875 . S
C1161 C127 1.875 . S
C1177 C160 1.875 . S
C1179 C424 1.875 . S
C1195 C193 1.875 . S
C1197 C457 1.875 . S
C1213 C490 1.875 . S
C1215 C226 1.875 . S
C1231 C259 1.875 . S
C1233 C523 1.875 . S
