# Generated by pormake.
# Topology uon, (4)-cn, num edge types: 1
# Building blocks:
#     Node 0, Type 0, BuildingBlock: QUQFOY_clean_sbu_1, # of connection points: 4
#     Node 1, Type 0, BuildingBlock: QUQFOY_clean_sbu_1, # of connection points: 4
#     Node 2, Type 0, BuildingBlock: QUQFOY_clean_sbu_1, # of connection points: 4
#     Node 3, Type 0, BuildingBlock: QUQFOY_clean_sbu_1, # of connection points: 4
#     Node 4, Type 0, BuildingBlock: QUQFOY_clean_sbu_1, # of connection points: 4
#     Node 5, Type 0, BuildingBlock: QUQFOY_clean_sbu_1, # of connection points: 4
#     Edge 6, Type (0, 0), BuildingBlock: TEMPAE_clean_linker_10, # of connection points: 2
#     Edge 7, Type (0, 0), BuildingBlock: TEMPAE_clean_linker_10, # of connection points: 2
#     Edge 8, Type (0, 0), BuildingBlock: TEMPAE_clean_linker_10, # of connection points: 2
#     Edge 9, Type (0, 0), BuildingBlock: TEMPAE_clean_linker_10, # of connection points: 2
#     Edge 10, Type (0, 0), BuildingBlock: TEMPAE_clean_linker_10, # of connection points: 2
#     Edge 11, Type (0, 0), BuildingBlock: TEMPAE_clean_linker_10, # of connection points: 2
#     Edge 12, Type (0, 0), BuildingBlock: TEMPAE_clean_linker_10, # of connection points: 2
#     Edge 13, Type (0, 0), BuildingBlock: TEMPAE_clean_linker_10, # of connection points: 2
#     Edge 14, Type (0, 0), BuildingBlock: TEMPAE_clean_linker_10, # of connection points: 2
#     Edge 15, Type (0, 0), BuildingBlock: TEMPAE_clean_linker_10, # of connection points: 2
#     Edge 16, Type (0, 0), BuildingBlock: TEMPAE_clean_linker_10, # of connection points: 2
#     Edge 17, Type (0, 0), BuildingBlock: TEMPAE_clean_linker_10, # of connection points: 2
# Relax obj value: 0.073
# Max RMSD: 0.264
# Mean RMSD: 0.263
data_MOF--net-uon--node1-QUQFOY_clean_sbu_1--edge1-TEMPAE_clean_linker_10
_symmetry_space_group_name_H-M    P1
_symmetry_Int_Tables_number       1
_symmetry_cell_setting            triclinic
loop_
_symmetry_equiv_pos_as_xyz
'x, y, z'
_cell_length_a     39.566422
_cell_length_b     40.288104
_cell_length_c     12.01554
_cell_angle_alpha  89.872687
_cell_angle_beta   90.018688
_cell_angle_gamma 119.95162
loop_
_atom_site_label
_atom_site_type_symbol
_atom_site_fract_x
_atom_site_fract_y
_atom_site_fract_z
_atom_type_partial_charge
O0 O 0.30845 0.48887 0.90932 0.0
Cd1 Cd 0.27859 0.47059 0.05142 0.0
Cd2 Cd 0.22344 0.44811 0.90455 0.0
O3 O 0.26425 0.45163 0.78677 0.0
O4 O 0.31528 0.46107 0.14271 0.0
O5 O 0.26038 0.41519 0.06804 0.0
C6 C 0.29404 0.42565 0.11226 0.0
C7 C 0.16226 0.4023 0.97321 0.0
C8 C 0.29953 0.47612 0.8112 0.0
C9 C 0.25205 0.52414 0.01617 0.0
O10 O 0.23573 0.50242 0.93349 0.0
O11 O 0.26545 0.51306 0.0962 0.0
O12 O 0.16581 0.41613 0.8737 0.0
O13 O 0.19384 0.41165 0.02815 0.0
O14 O 0.79581 0.25361 0.26384 0.0
Cd15 Cd 0.83471 0.27259 0.3967 0.0
Cd16 Cd 0.72332 0.19868 0.3161 0.0
O17 O 0.74056 0.24337 0.19791 0.0
O18 O 0.88634 0.31893 0.36426 0.0
O19 O 0.87733 0.26005 0.3795 0.0
C20 C 0.90024 0.29592 0.35581 0.0
C21 C 0.67258 0.13634 0.33296 0.0
C22 C 0.77619 0.26748 0.21985 0.0
C23 C 0.76762 0.23859 0.52252 0.0
O24 O 0.76403 0.21657 0.44227 0.0
O25 O 0.80251 0.2642 0.54622 0.0
O26 O 0.66909 0.16457 0.37119 0.0
O27 O 0.70344 0.14431 0.27531 0.0
O28 O 0.56761 0.79125 0.56613 0.0
Cd29 Cd 0.53383 0.80744 0.66016 0.0
Cd30 Cd 0.57199 0.73168 0.6518 0.0
O31 O 0.56195 0.74027 0.48683 0.0
O32 O 0.51719 0.84048 0.58104 0.0
O33 O 0.56199 0.86201 0.71378 0.0
C34 C 0.54321 0.86906 0.6376 0.0
C35 C 0.61452 0.71398 0.72906 0.0
C36 C 0.55327 0.76683 0.48766 0.0
C37 C 0.50362 0.73566 0.75656 0.0
O38 O 0.54031 0.74922 0.74696 0.0
O39 O 0.49177 0.75982 0.75037 0.0
O40 O 0.57917 0.68837 0.7027 0.0
O41 O 0.62593 0.74958 0.70729 0.0
O42 O 0.75349 0.52085 0.06281 0.0
Cd43 Cd 0.78668 0.56708 0.15734 0.0
Cd44 Cd 0.83929 0.56745 0.02605 0.0
O45 O 0.79333 0.52971 0.92282 0.0
O46 O 0.7521 0.5883 0.19891 0.0
O47 O 0.80188 0.61678 0.0817 0.0
C48 C 0.77113 0.61487 0.12574 0.0
C49 C 0.90105 0.62142 0.01226 0.0
C50 C 0.76018 0.51013 0.97043 0.0
C51 C 0.82793 0.53186 0.2537 0.0
O52 O 0.84037 0.53591 0.15467 0.0
O53 O 0.80881 0.54806 0.28494 0.0
O54 O 0.89333 0.58978 0.96356 0.0
O55 O 0.8722 0.62381 0.05371 0.0
O56 O 0.24319 0.74551 0.13974 0.0
Cd57 Cd 0.23755 0.76385 0.2917 0.0
Cd58 Cd 0.29742 0.82413 0.2082 0.0
O59 O 0.28142 0.79964 0.052 0.0
O60 O 0.18233 0.72531 0.32982 0.0
O61 O 0.20174 0.78593 0.29108 0.0
C62 C 0.17343 0.75137 0.30729 0.0
C63 C 0.31223 0.88345 0.27794 0.0
C64 C 0.26019 0.7633 0.05151 0.0
C65 C 0.31241 0.7758 0.36885 0.0
O66 O 0.3248 0.80016 0.29035 0.0
O67 O 0.27696 0.7604 0.40102 0.0
O68 O 0.33432 0.88044 0.20414 0.0
O69 O 0.27971 0.8531 0.30381 0.0
O70 O 0.49639 0.23207 0.67737 0.0
Cd71 Cd 0.49731 0.18942 0.7715 0.0
Cd72 Cd 0.49624 0.28767 0.8008 0.0
O73 O 0.52828 0.29379 0.65642 0.0
O74 O 0.49583 0.14409 0.69975 0.0
O75 O 0.44436 0.14299 0.77832 0.0
C76 C 0.45882 0.12582 0.72098 0.0
C77 C 0.45728 0.31359 0.8507 0.0
C78 C 0.52652 0.26168 0.64003 0.0
C79 C 0.52817 0.2456 0.92768 0.0
O80 O 0.49704 0.24494 0.89619 0.0
O81 O 0.52968 0.215 0.91373 0.0
O82 O 0.49437 0.33201 0.87039 0.0
O83 O 0.44275 0.28149 0.79716 0.0
C84 C 0.34372 0.4063 0.16204 0.0
C85 C 0.31222 0.40142 0.0966 0.0
C86 C 0.36598 0.38918 0.13162 0.0
C87 C 0.35778 0.36842 0.03046 0.0
C88 C 0.32535 0.36265 0.9659 0.0
C89 C 0.30255 0.37844 0.00103 0.0
C90 C 0.39913 0.39455 0.20566 0.0
C91 C 0.3163 0.34212 0.85543 0.0
C92 C 0.44174 0.36597 0.88138 0.0
C93 C 0.43182 0.32764 0.8951 0.0
C94 C 0.41783 0.37957 0.92459 0.0
C95 C 0.38425 0.3547 0.98789 0.0
C96 C 0.37497 0.31623 0.00504 0.0
C97 C 0.39835 0.30295 0.95624 0.0
C98 C 0.42804 0.42033 0.90031 0.0
C99 C 0.34054 0.2892 0.07577 0.0
H100 H 0.35156 0.42425 0.23541 0.0
H101 H 0.27881 0.37518 0.94844 0.0
H102 H 0.39884 0.36703 0.21643 0.0
H103 H 0.42734 0.41515 0.16652 0.0
H104 H 0.39768 0.40567 0.28898 0.0
H105 H 0.28951 0.33925 0.81643 0.0
H106 H 0.34113 0.35814 0.79743 0.0
H107 H 0.31252 0.31311 0.86585 0.0
H108 H 0.46771 0.38507 0.83439 0.0
H109 H 0.3911 0.27345 0.96862 0.0
H110 H 0.43361 0.43651 0.9791 0.0
H111 H 0.40314 0.42061 0.85858 0.0
H112 H 0.45423 0.43551 0.84633 0.0
H113 H 0.34222 0.30229 0.15826 0.0
H114 H 0.33913 0.26122 0.08852 0.0
H115 H 0.31301 0.28393 0.03599 0.0
C116 C 0.96587 0.34887 0.29291 0.0
C117 C 0.94017 0.30965 0.31058 0.0
C118 C 1.00215 0.36197 0.24014 0.0
C119 C 1.01299 0.33523 0.20257 0.0
C120 C 0.98749 0.29564 0.22198 0.0
C121 C 0.95158 0.28337 0.27619 0.0
C122 C 0.02862 0.40446 0.22285 0.0
C123 C 0.99766 0.26613 0.18272 0.0
C124 C 0.08891 0.37018 0.96958 0.0
C125 C 0.1234 0.38038 0.02836 0.0
C126 C 0.05264 0.35427 0.02458 0.0
C127 C 0.05072 0.3488 0.14157 0.0
C128 C 0.08525 0.35788 0.20073 0.0
C129 C 0.121 0.37329 0.1435 0.0
C130 C 1.01651 0.34444 0.95785 0.0
C131 C 0.08472 0.35282 0.3254 0.0
H132 H 0.95741 0.36944 0.31899 0.0
H133 H 0.9319 0.25299 0.28854 0.0
H134 H 0.05776 0.41368 0.25929 0.0
H135 H 0.03288 0.41099 0.1325 0.0
H136 H 1.01674 0.42162 0.26095 0.0
H137 H 0.97525 0.23655 0.20681 0.0
H138 H 1.00066 0.26752 0.09076 0.0
H139 H 1.02616 0.27231 0.21775 0.0
H140 H 0.09035 0.37553 0.88079 0.0
H141 H 0.14741 0.38122 0.19014 0.0
H142 H 1.00494 0.36336 0.98288 0.0
H143 H 0.99341 0.31451 0.97515 0.0
H144 H 1.02233 0.34773 0.86689 0.0
H145 H 0.07609 0.37213 0.36637 0.0
H146 H 0.11359 0.35924 0.35842 0.0
H147 H 0.06278 0.32306 0.34893 0.0
C148 C 0.61611 0.08804 0.44779 0.0
C149 C 0.64479 0.09612 0.36663 0.0
C150 C 0.5944 0.05117 0.49474 0.0
C151 C 0.60162 0.02166 0.46006 0.0
C152 C 0.62893 0.02916 0.37374 0.0
C153 C 0.65012 0.06618 0.32822 0.0
C154 C 0.5653 0.04444 0.58556 0.0
C155 C 0.6372 0.99848 0.33293 0.0
C156 C 0.58758 0.94026 0.65143 0.0
C157 C 0.55419 0.90899 0.6063 0.0
C158 C 0.6021 0.97748 0.60851 0.0
C159 C 0.58284 0.98368 0.51808 0.0
C160 C 0.54776 0.95264 0.47694 0.0
C161 C 0.53385 0.91575 0.52159 0.0
C162 C 0.63931 1.00984 0.65602 0.0
C163 C 0.52598 0.95795 0.38176 0.0
H164 H 0.61175 0.11093 0.47837 0.0
H165 H 0.67206 0.07199 0.26539 0.0
H166 H 0.5379 0.01688 0.5729 0.0
H167 H 0.57757 0.04271 0.66699 0.0
H168 H 0.55823 0.06786 0.58971 0.0
H169 H 0.65724 1.00809 0.26022 0.0
H170 H 0.65061 0.99025 0.40087 0.0
H171 H 0.60964 0.97243 0.30915 0.0
H172 H 0.60346 0.93546 0.71708 0.0
H173 H 0.50776 0.89193 0.48701 0.0
H174 H 0.63543 0.03459 0.67621 0.0
H175 H 0.66293 0.01967 0.5931 0.0
H176 H 0.64878 1.00115 0.73238 0.0
H177 H 0.52127 0.98242 0.39839 0.0
H178 H 0.49724 0.93192 0.36681 0.0
H179 H 0.54362 0.96472 0.30455 0.0
C180 C 0.72284 0.63811 0.13195 0.0
C181 C 0.75456 0.63805 0.07993 0.0
C182 C 0.70233 0.65389 0.0788 0.0
C183 C 0.71323 0.66927 0.96994 0.0
C184 C 0.7463 0.67083 0.91916 0.0
C185 C 0.76676 0.65559 0.97514 0.0
C186 C 0.66789 0.65252 0.1372 0.0
C187 C 0.7587 0.68646 0.80278 0.0
C188 C 0.63256 0.66484 0.78573 0.0
C189 C 0.64071 0.70295 0.78688 0.0
C190 C 0.65626 0.65372 0.84349 0.0
C191 C 0.68848 0.68116 0.90621 0.0
C192 C 0.69684 0.71969 0.90775 0.0
C193 C 0.67313 0.73019 0.84719 0.0
C194 C 0.64674 0.6125 0.83749 0.0
C195 C 0.73043 0.74969 0.97497 0.0
H196 H 0.71319 0.62467 0.21284 0.0
H197 H 0.791 0.65546 0.93363 0.0
H198 H 0.66991 0.68098 0.13365 0.0
H199 H 0.64055 0.63186 0.09435 0.0
H200 H 0.66584 0.64368 0.22572 0.0
H201 H 0.78667 0.68832 0.77826 0.0
H202 H 0.73583 0.6676 0.74275 0.0
H203 H 0.76193 0.71535 0.79563 0.0
H204 H 0.60767 0.64365 0.73908 0.0
H205 H 0.67946 0.75965 0.84935 0.0
H206 H 0.63984 0.59953 0.92185 0.0
H207 H 0.67241 0.61108 0.80659 0.0
H208 H 0.62156 0.59501 0.78199 0.0
H209 H 0.72646 0.74121 0.06403 0.0
H210 H 0.73308 0.77839 0.96761 0.0
H211 H 0.7582 0.75186 0.94731 0.0
C212 C 0.94963 0.67646 0.12742 0.0
C213 C 0.94203 0.6506 0.0398 0.0
C214 C 0.9872 0.69776 0.17366 0.0
C215 C 1.01819 0.69368 0.1302 0.0
C216 C 1.01132 0.66989 0.03621 0.0
C217 C 0.97333 0.64843 -0.00718 0.0
C218 C 0.99301 0.72252 0.27403 0.0
C219 C 0.04367 0.66538 0.9853 0.0
C220 C 0.12453 0.76257 0.20627 0.0
C221 C 0.13242 0.74026 0.28036 0.0
C222 C 0.0872 0.74841 0.15929 0.0
C223 C 0.05678 0.71131 0.1885 0.0
C224 C 0.06397 0.68979 0.26904 0.0
C225 C 0.10171 0.70433 0.31304 0.0
C226 C 0.08104 0.7722 0.07315 0.0
C227 C 0.03223 0.65051 0.30487 0.0
H228 H 0.92569 0.67825 0.16504 0.0
H229 H 0.96785 0.62863 0.92512 0.0
H230 H 0.99762 0.70902 0.34874 0.0
H231 H 1.01936 0.75112 0.2638 0.0
H232 H 0.96749 0.72637 0.28941 0.0
H233 H 0.03474 0.64941 0.90547 0.0
H234 H 0.06975 0.69386 0.97015 0.0
H235 H 0.05235 0.64966 0.04394 0.0
H236 H 0.14815 0.79016 0.17934 0.0
H237 H 0.1075 0.68689 0.37012 0.0
H238 H 0.05415 0.77331 0.09136 0.0
H239 H 0.07718 0.75873 -0.00982 0.0
H240 H 0.10607 0.80194 0.06872 0.0
H241 H 1.0057 0.65144 0.32972 0.0
H242 H 0.04144 0.63903 0.37555 0.0
H243 H 1.02411 0.63032 0.23402 0.0
C244 C 0.44789 0.06348 0.64486 0.0
C245 C 0.43326 0.08786 0.67046 0.0
C246 C 0.42525 0.02932 0.58563 0.0
C247 C 0.38764 0.02009 0.54731 0.0
C248 C 0.37259 0.04444 0.57417 0.0
C249 C 0.39534 0.0777 0.63705 0.0
C250 C 0.442 1.00361 0.56192 0.0
C251 C 0.33325 0.03635 0.53201 0.0
C252 C 0.35313 0.95467 0.29441 0.0
C253 C 0.32672 0.9193 0.34221 0.0
C254 C 0.3717 0.98807 0.35936 0.0
C255 C 0.36481 0.98574 0.47567 0.0
C256 C 0.33747 0.95019 0.52384 0.0
C257 C 0.31826 0.91753 0.45615 0.0
C258 C 0.39958 0.02564 0.30397 0.0
C259 C 0.33017 0.94615 0.64779 0.0
H260 H 0.47722 0.0713 0.67044 0.0
H261 H 0.38418 0.09682 0.65513 0.0
H262 H 0.42055 0.97348 0.58365 0.0
H263 H 0.44844 1.00446 0.4718 0.0
H264 H 0.46935 0.01237 0.60895 0.0
H265 H 0.3252 0.05744 0.56314 0.0
H266 H 0.33356 0.03717 0.43965 0.0
H267 H 0.31028 1.00724 0.55742 0.0
H268 H 0.35978 0.95609 0.20639 0.0
H269 H 0.29836 0.89009 0.49381 0.0
H270 H 0.42983 0.03506 0.33116 0.0
H271 H 0.39281 0.04819 0.32907 0.0
H272 H 0.39841 0.02343 0.21175 0.0
H273 H 0.35735 0.95223 0.69169 0.0
H274 H 0.30668 0.91698 0.67156 0.0
H275 H 0.32207 0.96728 0.67755 0.0
C276 C 0.23084 0.70441 0.94262 0.0
C277 C 0.26419 0.73954 0.96606 0.0
C278 C 0.23331 0.67112 0.93039 0.0
C279 C 0.27007 0.67342 0.94037 0.0
C280 C 0.30439 0.70985 0.94287 0.0
C281 C 0.30097 0.74279 0.95444 0.0
C282 C 0.19613 0.63307 0.91983 0.0
C283 C 0.34463 0.71438 0.94041 0.0
C284 C 0.26137 0.58647 0.09257 0.0
C285 C 0.26134 0.56433 0.00331 0.0
C286 C 0.26621 0.62313 0.07353 0.0
C287 C 0.27143 0.63776 0.96307 0.0
C288 C 0.27425 0.61652 0.87422 0.0
C289 C 0.26904 0.58011 0.89536 0.0
C290 C 0.26416 0.64557 0.17101 0.0
C291 C 0.28162 0.63173 0.75647 0.0
H292 H 0.20237 0.70199 0.95026 0.0
H293 H 0.32693 0.77015 0.97038 0.0
H294 H 0.19955 0.61485 0.85689 0.0
H295 H 0.18938 0.61773 0.00077 0.0
H296 H 0.17097 0.63661 0.89596 0.0
H297 H 0.36572 0.73996 0.98834 0.0
H298 H 0.34515 0.68886 0.97296 0.0
H299 H 0.35499 0.71882 0.85291 0.0
H300 H 0.25601 0.5746 0.176 0.0
H301 H 0.27051 0.5636 0.82622 0.0
H302 H 0.28833 0.67562 0.16654 0.0
H303 H 0.26572 0.63306 0.25204 0.0
H304 H 0.23638 0.64605 0.16767 0.0
H305 H 0.25859 0.63821 0.73047 0.0
H306 H 0.28237 0.61122 0.69625 0.0
H307 H 0.30994 0.65888 0.75232 0.0
C308 C 0.59973 0.29325 0.62521 0.0
C309 C 0.56284 0.26027 0.61804 0.0
C310 C 0.6341 0.29124 0.6148 0.0
C311 C 0.63161 0.25515 0.59916 0.0
C312 C 0.59441 0.22208 0.58667 0.0
C313 C 0.56069 0.22524 0.59441 0.0
C314 C 0.67267 0.32823 0.61667 0.0
C315 C 0.59026 0.18344 0.56256 0.0
C316 C 0.71844 0.25626 0.46309 0.0
C317 C 0.73467 0.24517 0.54857 0.0
C318 C 0.68544 0.25984 0.47862 0.0
C319 C 0.66757 0.25221 0.58444 0.0
C320 C 0.68361 0.24076 0.67284 0.0
C321 C 0.7173 0.2378 0.65394 0.0
C322 C 0.66939 0.27098 0.38003 0.0
C323 C 0.66522 0.23017 0.78678 0.0
H324 H 0.60183 0.32071 0.63965 0.0
H325 H 0.53244 0.20027 0.58079 0.0
H326 H 0.69769 0.3241 0.6367 0.0
H327 H 0.6777 0.34215 0.53395 0.0
H328 H 0.67192 0.34843 0.6776 0.0
H329 H 0.55941 0.16086 0.54942 0.0
H330 H 0.60732 0.1852 0.48717 0.0
H331 H 0.60224 0.17468 0.63304 0.0
H332 H 0.73119 0.26168 0.38246 0.0
H333 H 0.7292 0.22855 0.72061 0.0
H334 H 0.67598 0.30097 0.38981 0.0
H335 H 0.63724 0.25243 0.37461 0.0
H336 H 0.6824 0.26902 0.30008 0.0
H337 H 0.68691 0.2485 0.85027 0.0
H338 H 0.65718 0.20013 0.80591 0.0
H339 H 0.63878 0.23281 0.7952 0.0
C340 C 0.48318 0.6713 0.671 0.0
C341 C 0.4751 0.69412 0.7417 0.0
C342 C 0.45505 0.63321 0.64713 0.0
C343 C 0.41878 0.61598 0.70347 0.0
C344 C 0.41107 0.63836 0.77981 0.0
C345 C 0.43867 0.67745 0.79442 0.0
C346 C 0.46482 0.61245 0.55967 0.0
C347 C 0.3742 0.62094 0.8488 0.0
C348 C 0.32413 0.52237 0.65715 0.0
C349 C 0.33 0.49819 0.72838 0.0
C350 C 0.35443 0.56012 0.63727 0.0
C351 C 0.39067 0.57391 0.69301 0.0
C352 C 0.39817 0.54745 0.75032 0.0
C353 C 0.36817 0.50931 0.76178 0.0
C354 C 0.34698 0.5855 0.56089 0.0
C355 C 0.43633 0.55994 0.8098 0.0
H356 H 0.51063 0.68355 0.62789 0.0
H357 H 0.4322 0.69474 0.84993 0.0
H358 H 0.43993 0.58399 0.53748 0.0
H359 H 0.47501 0.63015 0.48284 0.0
H360 H 0.48945 0.60894 0.58925 0.0
H361 H 0.37511 0.64073 0.91452 0.0
H362 H 0.34881 0.61365 0.7946 0.0
H363 H 0.36927 0.59403 0.88893 0.0
H364 H 0.29485 0.51356 0.62856 0.0
H365 H 0.3728 0.49013 0.81497 0.0
H366 H 0.3663 0.59272 0.48719 0.0
H367 H 0.3539 0.6127 0.60231 0.0
H368 H 0.31627 0.57136 0.53158 0.0
H369 H 0.45962 0.56671 0.7478 0.0
H370 H 0.43486 0.53734 0.86609 0.0
H371 H 0.44493 0.58612 0.85977 0.0
C372 C 0.85702 0.49163 0.29213 0.0
C373 C 0.82682 0.49941 0.3143 0.0
C374 C 0.8499 0.45391 0.28844 0.0
C375 C 0.81212 0.42334 0.31303 0.0
C376 C 0.78326 0.43146 0.3527 0.0
C377 C 0.79085 0.46957 0.35206 0.0
C378 C 0.88173 0.44671 0.24704 0.0
C379 C 0.74368 0.39967 0.38874 0.0
C380 C 0.77868 0.3287 0.16129 0.0
C381 C 0.78711 0.30815 0.23988 0.0
C382 C 0.78669 0.3663 0.18385 0.0
C383 C 0.80228 0.38318 0.28895 0.0
C384 C 0.8099 0.36217 0.36908 0.0
C385 C 0.80271 0.32539 0.34282 0.0
C386 C 0.77923 0.3882 0.09443 0.0
C387 C 0.82482 0.37808 0.48379 0.0
H388 H 0.88493 0.5147 0.26326 0.0
H389 H 0.76736 0.47532 0.36932 0.0
H390 H 0.88499 0.42658 0.30304 0.0
H391 H 0.87372 0.43324 0.16354 0.0
H392 H 0.91034 0.47355 0.24051 0.0
H393 H 0.7234 0.41033 0.40933 0.0
H394 H 0.73042 0.37763 0.32272 0.0
H395 H 0.747 0.3853 0.46332 0.0
H396 H 0.76617 0.31552 0.08194 0.0
H397 H 0.80746 0.30956 0.4062 0.0
H398 H 0.80756 0.41098 0.061 0.0
H399 H 0.76387 0.40249 0.12936 0.0
H400 H 0.76172 0.36946 0.02458 0.0
H401 H 0.85132 0.40677 0.47806 0.0
H402 H 0.83184 0.3591 0.53387 0.0
H403 H 0.80237 0.38161 0.52895 0.0
C404 C 0.35677 0.76639 0.49828 0.0
C405 C 0.33713 0.75924 0.39671 0.0
C406 C 0.38888 0.76049 0.50956 0.0
C407 C 0.40168 0.74792 0.41648 0.0
C408 C 0.37945 0.73735 0.31754 0.0
C409 C 0.34771 0.74344 0.30879 0.0
C410 C 0.41081 0.77044 0.61826 0.0
C411 C 0.39082 0.72294 0.21646 0.0
C412 C 0.51153 0.79014 0.40272 0.0
C413 C 0.51569 0.75946 0.43996 0.0
C414 C 0.47436 0.78603 0.38866 0.0
C415 C 0.44078 0.75087 0.41724 0.0
C416 C 0.44489 0.71897 0.44519 0.0
C417 C 0.48235 0.72337 0.45171 0.0
C418 C 0.47105 0.81978 0.34802 0.0
C419 C 0.41007 0.68082 0.4744 0.0
H420 H 0.34886 0.779 0.56583 0.0
H421 H 0.33285 0.73851 0.22949 0.0
H422 H 0.41937 0.74885 0.63996 0.0
H423 H 0.43787 0.7986 0.60991 0.0
H424 H 0.39324 0.77229 0.68754 0.0
H425 H 0.36444 0.70206 0.17016 0.0
H426 H 0.40865 0.74747 0.16026 0.0
H427 H 0.40801 0.70894 0.23762 0.0
H428 H 0.53739 0.81786 0.38992 0.0
H429 H 0.48554 0.69907 0.47271 0.0
H430 H 0.45685 0.82834 0.41255 0.0
H431 H 0.45234 0.81154 0.27274 0.0
H432 H 0.49992 0.84488 0.32735 0.0
H433 H 0.39903 0.68287 0.55753 0.0
H434 H 0.41773 0.65783 0.47715 0.0
H435 H 0.38607 0.67271 0.41377 0.0
C436 C 0.60138 0.28603 0.91518 0.0
C437 C 0.56498 0.28297 0.93528 0.0
C438 C 0.6357 0.322 0.91169 0.0
C439 C 0.63341 0.35581 0.92521 0.0
C440 C 0.59693 0.35264 0.95039 0.0
C441 C 0.56346 0.31631 0.95688 0.0
C442 C 0.67415 0.32304 0.89773 0.0
C443 C 0.59341 0.38761 0.97372 0.0
C444 C 0.72387 0.44327 0.03129 0.0
C445 C 0.73338 0.46955 0.94363 0.0
C446 C 0.69167 0.40635 0.02559 0.0
C447 C 0.66936 0.39429 0.92685 0.0
C448 C 0.68014 0.42011 0.83492 0.0
C449 C 0.71214 0.45766 0.84469 0.0
C450 C 0.68034 0.3814 0.12862 0.0
C451 C 0.65723 0.40978 0.72791 0.0
H452 H 0.60316 0.26038 0.90122 0.0
H453 H 0.53588 0.31387 0.9796 0.0
H454 H 0.69825 0.35143 0.87114 0.0
H455 H 0.68228 0.31518 0.97786 0.0
H456 H 0.67128 0.30141 0.8362 0.0
H457 H 0.56355 0.38008 0.00053 0.0
H458 H 0.61432 0.40522 0.03971 0.0
H459 H 0.60084 0.40553 0.89755 0.0
H460 H 0.74039 0.45258 0.10823 0.0
H461 H 0.71904 0.4781 0.77758 0.0
H462 H 0.69018 0.36016 0.1201 0.0
H463 H 0.64828 0.3655 0.14119 0.0
H464 H 0.69393 0.39858 0.20455 0.0
H465 H 0.63176 0.38044 0.72783 0.0
H466 H 0.67671 0.41273 0.65744 0.0
H467 H 0.64679 0.43034 0.71238 0.0
loop_
_geom_bond_atom_site_label_1
_geom_bond_atom_site_label_2
_geom_bond_distance
_geom_bond_site_symmetry_2
_ccdc_geom_bond_type
O0 Cd1 2.223 . S
O0 C8 1.315 1_554 S
Cd1 O0 2.223 . S
Cd1 O4 2.297 . S
Cd1 O5 2.439 . S
Cd1 O11 2.240 . S
Cd2 O3 2.240 . S
Cd2 O10 2.223 1_556 S
Cd2 O12 2.297 . S
Cd2 O13 2.439 1_556 S
O3 Cd2 2.240 . S
O3 C8 1.279 . S
O4 Cd1 2.297 . S
O4 C6 1.247 . S
O5 Cd1 2.439 . S
O5 C6 1.208 . S
C6 O4 1.247 . S
C6 O5 1.208 . S
C7 O12 1.247 1_554 S
C7 O13 1.208 . S
C8 O0 1.315 1_556 S
C8 O3 1.279 . S
C9 O10 1.315 . S
C9 O11 1.279 . S
O10 Cd2 2.223 1_554 S
O10 C9 1.315 . S
O11 Cd1 2.240 . S
O11 C9 1.279 . S
O12 Cd2 2.297 . S
O12 C7 1.247 1_556 S
O13 Cd2 2.439 1_554 S
O13 C7 1.208 . S
O14 Cd15 2.223 . S
O14 C22 1.315 . S
Cd15 O14 2.223 . S
Cd15 O18 2.297 . S
Cd15 O19 2.439 . S
Cd15 O25 2.240 . S
Cd16 O17 2.240 . S
Cd16 O24 2.223 . S
Cd16 O26 2.297 . S
Cd16 O27 2.439 . S
O17 Cd16 2.240 . S
O17 C22 1.279 . S
O18 Cd15 2.297 . S
O18 C20 1.247 . S
O19 Cd15 2.439 . S
O19 C20 1.208 . S
C20 O18 1.247 . S
C20 O19 1.208 . S
C21 O26 1.247 . S
C21 O27 1.208 . S
C22 O14 1.315 . S
C22 O17 1.279 . S
C23 O24 1.315 . S
C23 O25 1.279 . S
O24 Cd16 2.223 . S
O24 C23 1.315 . S
O25 Cd15 2.240 . S
O25 C23 1.279 . S
O26 Cd16 2.297 . S
O26 C21 1.247 . S
O27 Cd16 2.439 . S
O27 C21 1.208 . S
O28 Cd29 2.223 . S
O28 C36 1.315 . S
Cd29 O28 2.223 . S
Cd29 O32 2.297 . S
Cd29 O33 2.439 . S
Cd29 O39 2.240 . S
Cd30 O31 2.240 . S
Cd30 O38 2.223 . S
Cd30 O40 2.297 . S
Cd30 O41 2.439 . S
O31 Cd30 2.240 . S
O31 C36 1.279 . S
O32 Cd29 2.297 . S
O32 C34 1.247 . S
O33 Cd29 2.439 . S
O33 C34 1.208 . S
C34 O32 1.247 . S
C34 O33 1.208 . S
C35 O40 1.247 . S
C35 O41 1.208 . S
C36 O28 1.315 . S
C36 O31 1.279 . S
C37 O38 1.315 . S
C37 O39 1.279 . S
O38 Cd30 2.223 . S
O38 C37 1.315 . S
O39 Cd29 2.240 . S
O39 C37 1.279 . S
O40 Cd30 2.297 . S
O40 C35 1.247 . S
O41 Cd30 2.439 . S
O41 C35 1.208 . S
O42 Cd43 2.223 1_556 S
O42 C50 1.315 . S
Cd43 O42 2.223 1_554 S
Cd43 O46 2.297 . S
Cd43 O47 2.439 . S
Cd43 O53 2.240 . S
Cd44 O45 2.240 . S
Cd44 O52 2.223 1_556 S
Cd44 O54 2.297 . S
Cd44 O55 2.439 1_556 S
O45 Cd44 2.240 . S
O45 C50 1.279 . S
O46 Cd43 2.297 . S
O46 C48 1.247 . S
O47 Cd43 2.439 . S
O47 C48 1.208 . S
C48 O46 1.247 . S
C48 O47 1.208 . S
C49 O54 1.247 . S
C49 O55 1.208 1_556 S
C50 O42 1.315 . S
C50 O45 1.279 . S
C51 O52 1.315 . S
C51 O53 1.279 . S
O52 Cd44 2.223 1_554 S
O52 C51 1.315 . S
O53 Cd43 2.240 . S
O53 C51 1.279 . S
O54 Cd44 2.297 . S
O54 C49 1.247 . S
O55 Cd44 2.439 1_554 S
O55 C49 1.208 1_554 S
O56 Cd57 2.223 . S
O56 C64 1.315 . S
Cd57 O56 2.223 . S
Cd57 O60 2.297 . S
Cd57 O61 2.439 . S
Cd57 O67 2.240 . S
Cd58 O59 2.240 . S
Cd58 O66 2.223 . S
Cd58 O68 2.297 . S
Cd58 O69 2.439 . S
O59 Cd58 2.240 . S
O59 C64 1.279 . S
O60 Cd57 2.297 . S
O60 C62 1.247 . S
O61 Cd57 2.439 . S
O61 C62 1.208 . S
C62 O60 1.247 . S
C62 O61 1.208 . S
C63 O68 1.247 . S
C63 O69 1.208 . S
C64 O56 1.315 . S
C64 O59 1.279 . S
C65 O66 1.315 . S
C65 O67 1.279 . S
O66 Cd58 2.223 . S
O66 C65 1.315 . S
O67 Cd57 2.240 . S
O67 C65 1.279 . S
O68 Cd58 2.297 . S
O68 C63 1.247 . S
O69 Cd58 2.439 . S
O69 C63 1.208 . S
O70 Cd71 2.223 . S
O70 C78 1.315 . S
Cd71 O70 2.223 . S
Cd71 O74 2.297 . S
Cd71 O75 2.439 . S
Cd71 O81 2.240 . S
Cd72 O73 2.240 . S
Cd72 O80 2.223 . S
Cd72 O82 2.297 . S
Cd72 O83 2.439 . S
O73 Cd72 2.240 . S
O73 C78 1.279 . S
O74 Cd71 2.297 . S
O74 C76 1.247 . S
O75 Cd71 2.439 . S
O75 C76 1.208 . S
C76 O74 1.247 . S
C76 O75 1.208 . S
C77 O82 1.247 . S
C77 O83 1.208 . S
C78 O70 1.315 . S
C78 O73 1.279 . S
C79 O80 1.315 . S
C79 O81 1.279 . S
O80 Cd72 2.223 . S
O80 C79 1.315 . S
O81 Cd71 2.240 . S
O81 C79 1.279 . S
O82 Cd72 2.297 . S
O82 C77 1.247 . S
O83 Cd72 2.439 . S
O83 C77 1.208 . S
C84 C85 1.391 1_554 S
C84 C86 1.394 . S
C84 H100 0.931 . S
C85 C84 1.391 1_556 S
C85 C89 1.376 . S
C86 C84 1.394 . S
C86 C87 1.369 1_554 S
C86 C90 1.531 . S
C87 C86 1.369 1_556 S
C87 C88 1.410 . S
C87 C95 1.503 . S
C88 C87 1.410 . S
C88 C89 1.392 . S
C88 C91 1.511 . S
C89 C85 1.376 . S
C89 C88 1.392 . S
C89 H101 0.929 . S
C90 C86 1.531 . S
C90 H102 0.960 . S
C90 H103 0.962 . S
C90 H104 0.960 . S
C91 C88 1.511 . S
C91 H105 0.961 . S
C91 H106 0.961 . S
C91 H107 0.961 . S
C92 C93 1.370 . S
C92 C94 1.363 . S
C92 H108 0.931 . S
C93 C92 1.370 . S
C93 C97 1.408 . S
C94 C92 1.363 . S
C94 C95 1.370 . S
C94 C98 1.524 . S
C95 C87 1.503 . S
C95 C94 1.370 . S
C95 C96 1.403 . S
C96 C95 1.403 . S
C96 C97 1.404 . S
C96 C99 1.539 . S
C97 C93 1.408 . S
C97 C96 1.404 . S
C97 H109 0.930 . S
C98 C94 1.524 . S
C98 H110 0.956 . S
C98 H111 0.961 . S
C98 H112 0.961 . S
C99 C96 1.539 . S
C99 H113 0.958 . S
C99 H114 0.961 . S
C99 H115 0.960 . S
H100 C84 0.931 . S
H101 C89 0.929 . S
H102 C90 0.960 . S
H103 C90 0.962 . S
H104 C90 0.960 . S
H105 C91 0.961 . S
H106 C91 0.961 . S
H107 C91 0.961 . S
H108 C92 0.931 . S
H109 C97 0.930 . S
H110 C98 0.956 . S
H111 C98 0.961 . S
H112 C98 0.961 . S
H113 C99 0.958 . S
H114 C99 0.961 . S
H115 C99 0.960 . S
C116 C117 1.391 . S
C116 C118 1.394 . S
C116 H132 0.931 . S
C117 C116 1.391 . S
C117 C121 1.376 . S
C118 C116 1.394 . S
C118 C119 1.369 . S
C118 C122 1.531 . S
C119 C118 1.369 . S
C119 C120 1.410 . S
C119 C127 1.503 1_655 S
C120 C119 1.410 . S
C120 C121 1.392 . S
C120 C123 1.511 . S
C121 C117 1.376 . S
C121 C120 1.392 . S
C121 H133 0.929 . S
C122 C118 1.531 . S
C122 H134 0.960 1_655 S
C122 H135 0.962 . S
C122 H136 0.960 . S
C123 C120 1.511 . S
C123 H137 0.961 . S
C123 H138 0.954 1_655 S
C123 H139 0.961 . S
C124 C125 1.370 . S
C124 C126 1.363 . S
C124 H140 0.931 1_554 S
C125 C124 1.370 . S
C125 C129 1.408 . S
C126 C124 1.363 . S
C126 C127 1.370 . S
C126 C130 1.524 1_454 S
C127 C119 1.503 1_455 S
C127 C126 1.370 . S
C127 C128 1.403 . S
C128 C127 1.403 . S
C128 C129 1.404 . S
C128 C131 1.539 . S
C129 C125 1.408 . S
C129 C128 1.404 . S
C129 H141 0.930 . S
C130 C126 1.524 1_656 S
C130 H142 0.956 1_556 S
C130 H143 0.961 1_556 S
C130 H144 0.961 . S
C131 C128 1.539 . S
C131 H145 0.958 . S
C131 H146 0.961 . S
C131 H147 0.960 . S
H132 C116 0.931 . S
H133 C121 0.929 . S
H134 C122 0.960 1_455 S
H135 C122 0.962 . S
H136 C122 0.960 . S
H137 C123 0.961 . S
H138 C123 0.954 1_455 S
H139 C123 0.961 . S
H140 C124 0.931 1_556 S
H141 C129 0.930 . S
H142 C130 0.956 1_554 S
H143 C130 0.961 1_554 S
H144 C130 0.961 . S
H145 C131 0.958 . S
H146 C131 0.961 . S
H147 C131 0.960 . S
C148 C149 1.391 . S
C148 C150 1.394 . S
C148 H164 0.931 . S
C149 C148 1.391 . S
C149 C153 1.376 . S
C150 C148 1.394 . S
C150 C151 1.369 . S
C150 C154 1.531 1_545 S
C151 C150 1.369 . S
C151 C152 1.410 . S
C151 C159 1.503 1_545 S
C152 C151 1.410 . S
C152 C153 1.392 . S
C152 C155 1.511 . S
C153 C149 1.376 . S
C153 C152 1.392 . S
C153 H165 0.929 . S
C154 C150 1.531 1_565 S
C154 H166 0.960 . S
C154 H167 0.962 . S
C154 H168 0.960 . S
C155 C152 1.511 . S
C155 H169 0.961 . S
C155 H170 0.961 . S
C155 H171 0.961 . S
C156 C157 1.370 . S
C156 C158 1.363 . S
C156 H172 0.931 . S
C157 C156 1.370 . S
C157 C161 1.408 . S
C158 C156 1.363 . S
C158 C159 1.370 . S
C158 C162 1.524 1_565 S
C159 C151 1.503 1_565 S
C159 C158 1.370 . S
C159 C160 1.403 . S
C160 C159 1.403 . S
C160 C161 1.404 . S
C160 C163 1.539 . S
C161 C157 1.408 . S
C161 C160 1.404 . S
C161 H173 0.930 . S
C162 C158 1.524 1_545 S
C162 H174 0.956 . S
C162 H175 0.961 . S
C162 H176 0.961 . S
C163 C160 1.539 . S
C163 H177 0.958 . S
C163 H178 0.961 . S
C163 H179 0.960 . S
H164 C148 0.931 . S
H165 C153 0.929 . S
H166 C154 0.960 . S
H167 C154 0.962 . S
H168 C154 0.960 . S
H169 C155 0.961 . S
H170 C155 0.961 . S
H171 C155 0.961 . S
H172 C156 0.931 . S
H173 C161 0.930 . S
H174 C162 0.956 . S
H175 C162 0.961 . S
H176 C162 0.961 . S
H177 C163 0.958 . S
H178 C163 0.961 . S
H179 C163 0.960 . S
C180 C181 1.391 1_554 S
C180 C182 1.394 1_554 S
C180 H196 0.931 . S
C181 C180 1.391 1_556 S
C181 C185 1.376 . S
C182 C180 1.394 1_556 S
C182 C183 1.369 . S
C182 C186 1.531 1_556 S
C183 C182 1.369 . S
C183 C184 1.410 . S
C183 C191 1.503 . S
C184 C183 1.410 . S
C184 C185 1.392 . S
C184 C187 1.511 . S
C185 C181 1.376 . S
C185 C184 1.392 . S
C185 H197 0.929 . S
C186 C182 1.531 1_554 S
C186 H198 0.960 . S
C186 H199 0.962 1_554 S
C186 H200 0.960 . S
C187 C184 1.511 . S
C187 H201 0.961 . S
C187 H202 0.961 . S
C187 H203 0.961 . S
C188 C189 1.370 . S
C188 C190 1.363 . S
C188 H204 0.931 . S
C189 C188 1.370 . S
C189 C193 1.408 . S
C190 C188 1.363 . S
C190 C191 1.370 . S
C190 C194 1.524 . S
C191 C183 1.503 . S
C191 C190 1.370 . S
C191 C192 1.403 . S
C192 C191 1.403 . S
C192 C193 1.404 . S
C192 C195 1.539 1_556 S
C193 C189 1.408 . S
C193 C192 1.404 . S
C193 H205 0.930 . S
C194 C190 1.524 . S
C194 H206 0.956 . S
C194 H207 0.961 . S
C194 H208 0.961 . S
C195 C192 1.539 1_554 S
C195 H209 0.958 . S
C195 H210 0.961 . S
C195 H211 0.960 . S
H196 C180 0.931 . S
H197 C185 0.929 . S
H198 C186 0.960 . S
H199 C186 0.962 1_556 S
H200 C186 0.960 . S
H201 C187 0.961 . S
H202 C187 0.961 . S
H203 C187 0.961 . S
H204 C188 0.931 . S
H205 C193 0.930 . S
H206 C194 0.956 . S
H207 C194 0.961 . S
H208 C194 0.961 . S
H209 C195 0.958 . S
H210 C195 0.961 . S
H211 C195 0.960 . S
C212 C213 1.391 . S
C212 C214 1.394 . S
C212 H228 0.931 . S
C213 C212 1.391 . S
C213 C217 1.376 . S
C214 C212 1.394 . S
C214 C215 1.369 . S
C214 C218 1.531 . S
C215 C214 1.369 . S
C215 C216 1.410 . S
C215 C223 1.503 1_655 S
C216 C215 1.410 . S
C216 C217 1.392 . S
C216 C219 1.511 . S
C217 C213 1.376 . S
C217 C216 1.392 . S
C217 H229 0.929 . S
C218 C214 1.531 . S
C218 H230 0.960 . S
C218 H231 0.962 . S
C218 H232 0.960 . S
C219 C216 1.511 . S
C219 H233 0.961 . S
C219 H234 0.961 1_655 S
C219 H235 0.961 . S
C220 C221 1.370 . S
C220 C222 1.363 . S
C220 H236 0.931 . S
C221 C220 1.370 . S
C221 C225 1.408 . S
C222 C220 1.363 . S
C222 C223 1.370 . S
C222 C226 1.524 . S
C223 C215 1.503 1_455 S
C223 C222 1.370 . S
C223 C224 1.403 . S
C224 C223 1.403 . S
C224 C225 1.404 . S
C224 C227 1.539 1_455 S
C225 C221 1.408 . S
C225 C224 1.404 . S
C225 H237 0.930 . S
C226 C222 1.524 . S
C226 H238 0.956 . S
C226 H239 0.961 . S
C226 H240 0.961 . S
C227 C224 1.539 1_655 S
C227 H241 0.958 . S
C227 H242 0.961 . S
C227 H243 0.960 . S
H228 C212 0.931 . S
H229 C217 0.929 . S
H230 C218 0.960 . S
H231 C218 0.962 . S
H232 C218 0.960 . S
H233 C219 0.961 . S
H234 C219 0.961 1_455 S
H235 C219 0.961 . S
H236 C220 0.931 . S
H237 C225 0.930 . S
H238 C226 0.956 . S
H239 C226 0.961 . S
H240 C226 0.961 . S
H241 C227 0.958 . S
H242 C227 0.961 . S
H243 C227 0.960 . S
C244 C245 1.391 . S
C244 C246 1.394 . S
C244 H260 0.931 . S
C245 C244 1.391 . S
C245 C249 1.376 . S
C246 C244 1.394 . S
C246 C247 1.369 . S
C246 C250 1.531 . S
C247 C246 1.369 . S
C247 C248 1.410 . S
C247 C255 1.503 1_545 S
C248 C247 1.410 . S
C248 C249 1.392 . S
C248 C251 1.511 . S
C249 C245 1.376 . S
C249 C248 1.392 . S
C249 H261 0.929 . S
C250 C246 1.531 . S
C250 H262 0.960 1_545 S
C250 H263 0.962 . S
C250 H264 0.960 . S
C251 C248 1.511 . S
C251 H265 0.961 . S
C251 H266 0.961 . S
C251 H267 0.961 . S
C252 C253 1.370 . S
C252 C254 1.363 . S
C252 H268 0.931 . S
C253 C252 1.370 . S
C253 C257 1.408 . S
C254 C252 1.363 . S
C254 C255 1.370 . S
C254 C258 1.524 1_565 S
C255 C247 1.503 1_565 S
C255 C254 1.370 . S
C255 C256 1.403 . S
C256 C255 1.403 . S
C256 C257 1.404 . S
C256 C259 1.539 . S
C257 C253 1.408 . S
C257 C256 1.404 . S
C257 H269 0.930 . S
C258 C254 1.524 1_545 S
C258 H270 0.956 . S
C258 H271 0.961 . S
C258 H272 0.961 . S
C259 C256 1.539 . S
C259 H273 0.958 . S
C259 H274 0.961 . S
C259 H275 0.960 . S
H260 C244 0.931 . S
H261 C249 0.929 . S
H262 C250 0.960 1_565 S
H263 C250 0.962 . S
H264 C250 0.960 . S
H265 C251 0.961 . S
H266 C251 0.961 . S
H267 C251 0.961 . S
H268 C252 0.931 . S
H269 C257 0.930 . S
H270 C258 0.956 . S
H271 C258 0.961 . S
H272 C258 0.961 . S
H273 C259 0.958 . S
H274 C259 0.961 . S
H275 C259 0.960 . S
C276 C277 1.391 . S
C276 C278 1.394 . S
C276 H292 0.931 . S
C277 C276 1.391 . S
C277 C281 1.376 . S
C278 C276 1.394 . S
C278 C279 1.369 . S
C278 C282 1.531 . S
C279 C278 1.369 . S
C279 C280 1.410 . S
C279 C287 1.503 . S
C280 C279 1.410 . S
C280 C281 1.392 . S
C280 C283 1.511 . S
C281 C277 1.376 . S
C281 C280 1.392 . S
C281 H293 0.929 . S
C282 C278 1.531 . S
C282 H294 0.960 . S
C282 H295 0.962 . S
C282 H296 0.960 . S
C283 C280 1.511 . S
C283 H297 0.961 . S
C283 H298 0.961 . S
C283 H299 0.961 . S
C284 C285 1.370 . S
C284 C286 1.363 . S
C284 H300 0.931 . S
C285 C284 1.370 . S
C285 C289 1.408 . S
C286 C284 1.363 . S
C286 C287 1.370 . S
C286 C290 1.524 . S
C287 C279 1.503 . S
C287 C286 1.370 . S
C287 C288 1.403 . S
C288 C287 1.403 . S
C288 C289 1.404 . S
C288 C291 1.539 1_554 S
C289 C285 1.408 . S
C289 C288 1.404 . S
C289 H301 0.930 . S
C290 C286 1.524 . S
C290 H302 0.956 . S
C290 H303 0.961 . S
C290 H304 0.961 . S
C291 C288 1.539 1_556 S
C291 H305 0.958 . S
C291 H306 0.961 . S
C291 H307 0.960 . S
H292 C276 0.931 . S
H293 C281 0.929 . S
H294 C282 0.960 . S
H295 C282 0.962 . S
H296 C282 0.960 . S
H297 C283 0.961 . S
H298 C283 0.961 . S
H299 C283 0.961 . S
H300 C284 0.931 . S
H301 C289 0.930 . S
H302 C290 0.956 . S
H303 C290 0.961 . S
H304 C290 0.961 . S
H305 C291 0.958 . S
H306 C291 0.961 . S
H307 C291 0.960 . S
C308 C309 1.391 . S
C308 C310 1.394 . S
C308 H324 0.931 . S
C309 C308 1.391 . S
C309 C313 1.376 . S
C310 C308 1.394 . S
C310 C311 1.369 . S
C310 C314 1.531 . S
C311 C310 1.369 . S
C311 C312 1.410 . S
C311 C319 1.503 . S
C312 C311 1.410 . S
C312 C313 1.392 . S
C312 C315 1.511 . S
C313 C309 1.376 . S
C313 C312 1.392 . S
C313 H325 0.929 . S
C314 C310 1.531 . S
C314 H326 0.960 . S
C314 H327 0.962 . S
C314 H328 0.960 . S
C315 C312 1.511 . S
C315 H329 0.961 . S
C315 H330 0.961 . S
C315 H331 0.961 . S
C316 C317 1.370 . S
C316 C318 1.363 . S
C316 H332 0.931 . S
C317 C316 1.370 . S
C317 C321 1.408 . S
C318 C316 1.363 . S
C318 C319 1.370 . S
C318 C322 1.524 . S
C319 C311 1.503 . S
C319 C318 1.370 . S
C319 C320 1.403 . S
C320 C319 1.403 . S
C320 C321 1.404 . S
C320 C323 1.539 . S
C321 C317 1.408 . S
C321 C320 1.404 . S
C321 H333 0.930 . S
C322 C318 1.524 . S
C322 H334 0.956 . S
C322 H335 0.961 . S
C322 H336 0.961 . S
C323 C320 1.539 . S
C323 H337 0.958 . S
C323 H338 0.961 . S
C323 H339 0.960 . S
H324 C308 0.931 . S
H325 C313 0.929 . S
H326 C314 0.960 . S
H327 C314 0.962 . S
H328 C314 0.960 . S
H329 C315 0.961 . S
H330 C315 0.961 . S
H331 C315 0.961 . S
H332 C316 0.931 . S
H333 C321 0.930 . S
H334 C322 0.956 . S
H335 C322 0.961 . S
H336 C322 0.961 . S
H337 C323 0.958 . S
H338 C323 0.961 . S
H339 C323 0.960 . S
C340 C341 1.391 . S
C340 C342 1.394 . S
C340 H356 0.931 . S
C341 C340 1.391 . S
C341 C345 1.376 . S
C342 C340 1.394 . S
C342 C343 1.369 . S
C342 C346 1.531 . S
C343 C342 1.369 . S
C343 C344 1.410 . S
C343 C351 1.503 . S
C344 C343 1.410 . S
C344 C345 1.392 . S
C344 C347 1.511 1_556 S
C345 C341 1.376 . S
C345 C344 1.392 . S
C345 H357 0.929 1_556 S
C346 C342 1.531 . S
C346 H358 0.960 . S
C346 H359 0.962 . S
C346 H360 0.960 . S
C347 C344 1.511 1_554 S
C347 H361 0.961 . S
C347 H362 0.961 . S
C347 H363 0.961 . S
C348 C349 1.370 . S
C348 C350 1.363 . S
C348 H364 0.931 . S
C349 C348 1.370 . S
C349 C353 1.408 . S
C350 C348 1.363 . S
C350 C351 1.370 . S
C350 C354 1.524 . S
C351 C343 1.503 . S
C351 C350 1.370 . S
C351 C352 1.403 . S
C352 C351 1.403 . S
C352 C353 1.404 . S
C352 C355 1.539 . S
C353 C349 1.408 . S
C353 C352 1.404 . S
C353 H365 0.930 . S
C354 C350 1.524 . S
C354 H366 0.956 . S
C354 H367 0.961 1_556 S
C354 H368 0.961 1_556 S
C355 C352 1.539 . S
C355 H369 0.958 . S
C355 H370 0.961 . S
C355 H371 0.960 . S
H356 C340 0.931 . S
H357 C345 0.929 1_554 S
H358 C346 0.960 . S
H359 C346 0.962 . S
H360 C346 0.960 . S
H361 C347 0.961 . S
H362 C347 0.961 . S
H363 C347 0.961 . S
H364 C348 0.931 . S
H365 C353 0.930 . S
H366 C354 0.956 . S
H367 C354 0.961 1_554 S
H368 C354 0.961 1_554 S
H369 C355 0.958 . S
H370 C355 0.961 . S
H371 C355 0.960 . S
C372 C373 1.391 . S
C372 C374 1.394 . S
C372 H388 0.931 . S
C373 C372 1.391 . S
C373 C377 1.376 . S
C374 C372 1.394 . S
C374 C375 1.369 . S
C374 C378 1.531 . S
C375 C374 1.369 . S
C375 C376 1.410 . S
C375 C383 1.503 . S
C376 C375 1.410 . S
C376 C377 1.392 . S
C376 C379 1.511 . S
C377 C373 1.376 . S
C377 C376 1.392 . S
C377 H389 0.929 . S
C378 C374 1.531 . S
C378 H390 0.960 . S
C378 H391 0.962 . S
C378 H392 0.960 . S
C379 C376 1.511 . S
C379 H393 0.961 . S
C379 H394 0.961 . S
C379 H395 0.961 . S
C380 C381 1.370 . S
C380 C382 1.363 . S
C380 H396 0.931 . S
C381 C380 1.370 . S
C381 C385 1.408 . S
C382 C380 1.363 . S
C382 C383 1.370 . S
C382 C386 1.524 1_554 S
C383 C375 1.503 . S
C383 C382 1.370 . S
C383 C384 1.403 . S
C384 C383 1.403 . S
C384 C385 1.404 . S
C384 C387 1.539 . S
C385 C381 1.408 . S
C385 C384 1.404 . S
C385 H397 0.930 . S
C386 C382 1.524 1_556 S
C386 H398 0.956 . S
C386 H399 0.961 . S
C386 H400 0.961 . S
C387 C384 1.539 . S
C387 H401 0.958 . S
C387 H402 0.961 . S
C387 H403 0.960 . S
H388 C372 0.931 . S
H389 C377 0.929 . S
H390 C378 0.960 . S
H391 C378 0.962 . S
H392 C378 0.960 . S
H393 C379 0.961 . S
H394 C379 0.961 . S
H395 C379 0.961 . S
H396 C380 0.931 . S
H397 C385 0.930 . S
H398 C386 0.956 . S
H399 C386 0.961 . S
H400 C386 0.961 . S
H401 C387 0.958 . S
H402 C387 0.961 . S
H403 C387 0.960 . S
C404 C405 1.391 . S
C404 C406 1.394 . S
C404 H420 0.931 . S
C405 C404 1.391 . S
C405 C409 1.376 . S
C406 C404 1.394 . S
C406 C407 1.369 . S
C406 C410 1.531 . S
C407 C406 1.369 . S
C407 C408 1.410 . S
C407 C415 1.503 . S
C408 C407 1.410 . S
C408 C409 1.392 . S
C408 C411 1.511 . S
C409 C405 1.376 . S
C409 C408 1.392 . S
C409 H421 0.929 . S
C410 C406 1.531 . S
C410 H422 0.960 . S
C410 H423 0.962 . S
C410 H424 0.960 . S
C411 C408 1.511 . S
C411 H425 0.961 . S
C411 H426 0.961 . S
C411 H427 0.961 . S
C412 C413 1.370 . S
C412 C414 1.363 . S
C412 H428 0.931 . S
C413 C412 1.370 . S
C413 C417 1.408 . S
C414 C412 1.363 . S
C414 C415 1.370 . S
C414 C418 1.524 . S
C415 C407 1.503 . S
C415 C414 1.370 . S
C415 C416 1.403 . S
C416 C415 1.403 . S
C416 C417 1.404 . S
C416 C419 1.539 . S
C417 C413 1.408 . S
C417 C416 1.404 . S
C417 H429 0.930 . S
C418 C414 1.524 . S
C418 H430 0.956 . S
C418 H431 0.961 . S
C418 H432 0.961 . S
C419 C416 1.539 . S
C419 H433 0.958 . S
C419 H434 0.961 . S
C419 H435 0.960 . S
H420 C404 0.931 . S
H421 C409 0.929 . S
H422 C410 0.960 . S
H423 C410 0.962 . S
H424 C410 0.960 . S
H425 C411 0.961 . S
H426 C411 0.961 . S
H427 C411 0.961 . S
H428 C412 0.931 . S
H429 C417 0.930 . S
H430 C418 0.956 . S
H431 C418 0.961 . S
H432 C418 0.961 . S
H433 C419 0.958 . S
H434 C419 0.961 . S
H435 C419 0.960 . S
C436 C437 1.391 . S
C436 C438 1.394 . S
C436 H452 0.931 . S
C437 C436 1.391 . S
C437 C441 1.376 . S
C438 C436 1.394 . S
C438 C439 1.369 . S
C438 C442 1.531 . S
C439 C438 1.369 . S
C439 C440 1.410 . S
C439 C447 1.503 . S
C440 C439 1.410 . S
C440 C441 1.392 . S
C440 C443 1.511 . S
C441 C437 1.376 . S
C441 C440 1.392 . S
C441 H453 0.929 . S
C442 C438 1.531 . S
C442 H454 0.960 . S
C442 H455 0.962 . S
C442 H456 0.960 . S
C443 C440 1.511 . S
C443 H457 0.961 1_556 S
C443 H458 0.961 1_556 S
C443 H459 0.961 . S
C444 C445 1.370 . S
C444 C446 1.363 . S
C444 H460 0.931 . S
C445 C444 1.370 . S
C445 C449 1.408 . S
C446 C444 1.363 . S
C446 C447 1.370 . S
C446 C450 1.524 . S
C447 C439 1.503 . S
C447 C446 1.370 . S
C447 C448 1.403 . S
C448 C447 1.403 . S
C448 C449 1.404 . S
C448 C451 1.539 . S
C449 C445 1.408 . S
C449 C448 1.404 . S
C449 H461 0.930 . S
C450 C446 1.524 . S
C450 H462 0.956 . S
C450 H463 0.961 1_556 S
C450 H464 0.961 1_556 S
C451 C448 1.539 . S
C451 H465 0.958 . S
C451 H466 0.961 . S
C451 H467 0.960 . S
H452 C436 0.931 . S
H453 C441 0.929 . S
H454 C442 0.960 . S
H455 C442 0.962 . S
H456 C442 0.960 . S
H457 C443 0.961 1_554 S
H458 C443 0.961 1_554 S
H459 C443 0.961 . S
H460 C444 0.931 . S
H461 C449 0.930 . S
H462 C450 0.956 . S
H463 C450 0.961 1_554 S
H464 C450 0.961 1_554 S
H465 C451 0.958 . S
H466 C451 0.961 . S
H467 C451 0.960 . S
C85 C6 1.520 1_556 S
C93 C77 1.514 . S
C117 C20 1.477 . S
C125 C7 1.464 . S
C149 C21 1.536 . S
C157 C34 1.518 . S
C181 C48 1.482 1_556 S
C189 C35 1.468 . S
C213 C49 1.477 1_554 S
C221 C62 1.501 . S
C245 C76 1.494 . S
C253 C63 1.480 . S
C277 C64 1.284 . S
C285 C9 1.217 . S
C309 C78 1.259 . S
C317 C23 1.251 . S
C341 C37 1.179 . S
C349 C8 1.231 . S
C373 C51 1.301 . S
C381 C22 1.227 . S
C405 C65 1.288 . S
C413 C36 1.240 . S
C437 C79 1.183 . S
C445 C50 1.229 . S
