# Generated by pormake.
# Topology uns, (4)-cn, num edge types: 1
# Building blocks:
#     Node 0, Type 0, BuildingBlock: KOZSID_clean_sbu_0, # of connection points: 4
#     Node 1, Type 0, BuildingBlock: KOZSID_clean_sbu_0, # of connection points: 4
#     Node 2, Type 0, BuildingBlock: KOZSID_clean_sbu_0, # of connection points: 4
#     Node 3, Type 0, BuildingBlock: KOZSID_clean_sbu_0, # of connection points: 4
#     Node 4, Type 0, BuildingBlock: KOZSID_clean_sbu_0, # of connection points: 4
#     Node 5, Type 0, BuildingBlock: KOZSID_clean_sbu_0, # of connection points: 4
#     Node 6, Type 0, BuildingBlock: KOZSID_clean_sbu_0, # of connection points: 4
#     Node 7, Type 0, BuildingBlock: KOZSID_clean_sbu_0, # of connection points: 4
#     Node 8, Type 0, BuildingBlock: KOZSID_clean_sbu_0, # of connection points: 4
#     Node 9, Type 0, BuildingBlock: KOZSID_clean_sbu_0, # of connection points: 4
#     Node 10, Type 0, BuildingBlock: KOZSID_clean_sbu_0, # of connection points: 4
#     Node 11, Type 0, BuildingBlock: KOZSID_clean_sbu_0, # of connection points: 4
#     Node 12, Type 0, BuildingBlock: KOZSID_clean_sbu_0, # of connection points: 4
#     Node 13, Type 0, BuildingBlock: KOZSID_clean_sbu_0, # of connection points: 4
#     Node 14, Type 0, BuildingBlock: KOZSID_clean_sbu_0, # of connection points: 4
#     Node 15, Type 0, BuildingBlock: KOZSID_clean_sbu_0, # of connection points: 4
#     Node 16, Type 0, BuildingBlock: KOZSID_clean_sbu_0, # of connection points: 4
#     Node 17, Type 0, BuildingBlock: KOZSID_clean_sbu_0, # of connection points: 4
#     Node 18, Type 0, BuildingBlock: KOZSID_clean_sbu_0, # of connection points: 4
#     Node 19, Type 0, BuildingBlock: KOZSID_clean_sbu_0, # of connection points: 4
#     Node 20, Type 0, BuildingBlock: KOZSID_clean_sbu_0, # of connection points: 4
#     Node 21, Type 0, BuildingBlock: KOZSID_clean_sbu_0, # of connection points: 4
#     Node 22, Type 0, BuildingBlock: KOZSID_clean_sbu_0, # of connection points: 4
#     Node 23, Type 0, BuildingBlock: KOZSID_clean_sbu_0, # of connection points: 4
#     Node 24, Type 0, BuildingBlock: KOZSID_clean_sbu_0, # of connection points: 4
#     Node 25, Type 0, BuildingBlock: KOZSID_clean_sbu_0, # of connection points: 4
#     Node 26, Type 0, BuildingBlock: KOZSID_clean_sbu_0, # of connection points: 4
#     Node 27, Type 0, BuildingBlock: KOZSID_clean_sbu_0, # of connection points: 4
#     Node 28, Type 0, BuildingBlock: KOZSID_clean_sbu_0, # of connection points: 4
#     Node 29, Type 0, BuildingBlock: KOZSID_clean_sbu_0, # of connection points: 4
#     Node 30, Type 0, BuildingBlock: KOZSID_clean_sbu_0, # of connection points: 4
#     Node 31, Type 0, BuildingBlock: KOZSID_clean_sbu_0, # of connection points: 4
#     Node 32, Type 0, BuildingBlock: KOZSID_clean_sbu_0, # of connection points: 4
#     Node 33, Type 0, BuildingBlock: KOZSID_clean_sbu_0, # of connection points: 4
#     Node 34, Type 0, BuildingBlock: KOZSID_clean_sbu_0, # of connection points: 4
#     Node 35, Type 0, BuildingBlock: KOZSID_clean_sbu_0, # of connection points: 4
#     Edge 36, Type (0, 0), BuildingBlock: XIVTED_clean_linker_0, # of connection points: 2
#     Edge 37, Type (0, 0), BuildingBlock: XIVTED_clean_linker_0, # of connection points: 2
#     Edge 38, Type (0, 0), BuildingBlock: XIVTED_clean_linker_0, # of connection points: 2
#     Edge 39, Type (0, 0), BuildingBlock: XIVTED_clean_linker_0, # of connection points: 2
#     Edge 40, Type (0, 0), BuildingBlock: XIVTED_clean_linker_0, # of connection points: 2
#     Edge 41, Type (0, 0), BuildingBlock: XIVTED_clean_linker_0, # of connection points: 2
#     Edge 42, Type (0, 0), BuildingBlock: XIVTED_clean_linker_0, # of connection points: 2
#     Edge 43, Type (0, 0), BuildingBlock: XIVTED_clean_linker_0, # of connection points: 2
#     Edge 44, Type (0, 0), BuildingBlock: XIVTED_clean_linker_0, # of connection points: 2
#     Edge 45, Type (0, 0), BuildingBlock: XIVTED_clean_linker_0, # of connection points: 2
#     Edge 46, Type (0, 0), BuildingBlock: XIVTED_clean_linker_0, # of connection points: 2
#     Edge 47, Type (0, 0), BuildingBlock: XIVTED_clean_linker_0, # of connection points: 2
#     Edge 48, Type (0, 0), BuildingBlock: XIVTED_clean_linker_0, # of connection points: 2
#     Edge 49, Type (0, 0), BuildingBlock: XIVTED_clean_linker_0, # of connection points: 2
#     Edge 50, Type (0, 0), BuildingBlock: XIVTED_clean_linker_0, # of connection points: 2
#     Edge 51, Type (0, 0), BuildingBlock: XIVTED_clean_linker_0, # of connection points: 2
#     Edge 52, Type (0, 0), BuildingBlock: XIVTED_clean_linker_0, # of connection points: 2
#     Edge 53, Type (0, 0), BuildingBlock: XIVTED_clean_linker_0, # of connection points: 2
#     Edge 54, Type (0, 0), BuildingBlock: XIVTED_clean_linker_0, # of connection points: 2
#     Edge 55, Type (0, 0), BuildingBlock: XIVTED_clean_linker_0, # of connection points: 2
#     Edge 56, Type (0, 0), BuildingBlock: XIVTED_clean_linker_0, # of connection points: 2
#     Edge 57, Type (0, 0), BuildingBlock: XIVTED_clean_linker_0, # of connection points: 2
#     Edge 58, Type (0, 0), BuildingBlock: XIVTED_clean_linker_0, # of connection points: 2
#     Edge 59, Type (0, 0), BuildingBlock: XIVTED_clean_linker_0, # of connection points: 2
#     Edge 60, Type (0, 0), BuildingBlock: XIVTED_clean_linker_0, # of connection points: 2
#     Edge 61, Type (0, 0), BuildingBlock: XIVTED_clean_linker_0, # of connection points: 2
#     Edge 62, Type (0, 0), BuildingBlock: XIVTED_clean_linker_0, # of connection points: 2
#     Edge 63, Type (0, 0), BuildingBlock: XIVTED_clean_linker_0, # of connection points: 2
#     Edge 64, Type (0, 0), BuildingBlock: XIVTED_clean_linker_0, # of connection points: 2
#     Edge 65, Type (0, 0), BuildingBlock: XIVTED_clean_linker_0, # of connection points: 2
#     Edge 66, Type (0, 0), BuildingBlock: XIVTED_clean_linker_0, # of connection points: 2
#     Edge 67, Type (0, 0), BuildingBlock: XIVTED_clean_linker_0, # of connection points: 2
#     Edge 68, Type (0, 0), BuildingBlock: XIVTED_clean_linker_0, # of connection points: 2
#     Edge 69, Type (0, 0), BuildingBlock: XIVTED_clean_linker_0, # of connection points: 2
#     Edge 70, Type (0, 0), BuildingBlock: XIVTED_clean_linker_0, # of connection points: 2
#     Edge 71, Type (0, 0), BuildingBlock: XIVTED_clean_linker_0, # of connection points: 2
#     Edge 72, Type (0, 0), BuildingBlock: XIVTED_clean_linker_0, # of connection points: 2
#     Edge 73, Type (0, 0), BuildingBlock: XIVTED_clean_linker_0, # of connection points: 2
#     Edge 74, Type (0, 0), BuildingBlock: XIVTED_clean_linker_0, # of connection points: 2
#     Edge 75, Type (0, 0), BuildingBlock: XIVTED_clean_linker_0, # of connection points: 2
#     Edge 76, Type (0, 0), BuildingBlock: XIVTED_clean_linker_0, # of connection points: 2
#     Edge 77, Type (0, 0), BuildingBlock: XIVTED_clean_linker_0, # of connection points: 2
#     Edge 78, Type (0, 0), BuildingBlock: XIVTED_clean_linker_0, # of connection points: 2
#     Edge 79, Type (0, 0), BuildingBlock: XIVTED_clean_linker_0, # of connection points: 2
#     Edge 80, Type (0, 0), BuildingBlock: XIVTED_clean_linker_0, # of connection points: 2
#     Edge 81, Type (0, 0), BuildingBlock: XIVTED_clean_linker_0, # of connection points: 2
#     Edge 82, Type (0, 0), BuildingBlock: XIVTED_clean_linker_0, # of connection points: 2
#     Edge 83, Type (0, 0), BuildingBlock: XIVTED_clean_linker_0, # of connection points: 2
#     Edge 84, Type (0, 0), BuildingBlock: XIVTED_clean_linker_0, # of connection points: 2
#     Edge 85, Type (0, 0), BuildingBlock: XIVTED_clean_linker_0, # of connection points: 2
#     Edge 86, Type (0, 0), BuildingBlock: XIVTED_clean_linker_0, # of connection points: 2
#     Edge 87, Type (0, 0), BuildingBlock: XIVTED_clean_linker_0, # of connection points: 2
#     Edge 88, Type (0, 0), BuildingBlock: XIVTED_clean_linker_0, # of connection points: 2
#     Edge 89, Type (0, 0), BuildingBlock: XIVTED_clean_linker_0, # of connection points: 2
#     Edge 90, Type (0, 0), BuildingBlock: XIVTED_clean_linker_0, # of connection points: 2
#     Edge 91, Type (0, 0), BuildingBlock: XIVTED_clean_linker_0, # of connection points: 2
#     Edge 92, Type (0, 0), BuildingBlock: XIVTED_clean_linker_0, # of connection points: 2
#     Edge 93, Type (0, 0), BuildingBlock: XIVTED_clean_linker_0, # of connection points: 2
#     Edge 94, Type (0, 0), BuildingBlock: XIVTED_clean_linker_0, # of connection points: 2
#     Edge 95, Type (0, 0), BuildingBlock: XIVTED_clean_linker_0, # of connection points: 2
#     Edge 96, Type (0, 0), BuildingBlock: XIVTED_clean_linker_0, # of connection points: 2
#     Edge 97, Type (0, 0), BuildingBlock: XIVTED_clean_linker_0, # of connection points: 2
#     Edge 98, Type (0, 0), BuildingBlock: XIVTED_clean_linker_0, # of connection points: 2
#     Edge 99, Type (0, 0), BuildingBlock: XIVTED_clean_linker_0, # of connection points: 2
#     Edge 100, Type (0, 0), BuildingBlock: XIVTED_clean_linker_0, # of connection points: 2
#     Edge 101, Type (0, 0), BuildingBlock: XIVTED_clean_linker_0, # of connection points: 2
#     Edge 102, Type (0, 0), BuildingBlock: XIVTED_clean_linker_0, # of connection points: 2
#     Edge 103, Type (0, 0), BuildingBlock: XIVTED_clean_linker_0, # of connection points: 2
#     Edge 104, Type (0, 0), BuildingBlock: XIVTED_clean_linker_0, # of connection points: 2
#     Edge 105, Type (0, 0), BuildingBlock: XIVTED_clean_linker_0, # of connection points: 2
#     Edge 106, Type (0, 0), BuildingBlock: XIVTED_clean_linker_0, # of connection points: 2
#     Edge 107, Type (0, 0), BuildingBlock: XIVTED_clean_linker_0, # of connection points: 2
# Relax obj value: 0.013
# Max RMSD: 0.149
# Mean RMSD: 0.124
data_MOF--net-uns--node1-KOZSID_clean_sbu_0--edge1-XIVTED_clean_linker_0
_symmetry_space_group_name_H-M    P1
_symmetry_Int_Tables_number       1
_symmetry_cell_setting            triclinic
loop_
_symmetry_equiv_pos_as_xyz
'x, y, z'
_cell_length_a     76.562575
_cell_length_b     78.340661
_cell_length_c     36.728978
_cell_angle_alpha  84.898628
_cell_angle_beta   89.937055
_cell_angle_gamma 119.23441
loop_
_atom_site_label
_atom_site_type_symbol
_atom_site_fract_x
_atom_site_fract_y
_atom_site_fract_z
_atom_type_partial_charge
C0 C 0.24023 0.20719 0.0096 0.0
C1 C 0.2427 0.21444 0.97294 0.0
C2 C 0.26276 0.22302 0.96352 0.0
C3 C 0.27141 0.22046 0.99471 0.0
N4 N 0.25802 0.21054 0.02307 0.0
Co5 Co 0.26448 0.20419 0.07314 0.0
N6 N 0.29161 0.20979 0.05618 0.0
C7 C 0.30147 0.22014 0.02454 0.0
C8 C 0.31978 0.2212 0.0199 0.0
C9 C 0.32157 0.21095 0.05061 0.0
C10 C 0.30422 0.20429 0.07249 0.0
N11 N 0.27091 0.19777 0.12307 0.0
C12 C 0.2852 0.19324 0.13376 0.0
C13 C 0.28467 0.18994 0.17163 0.0
C14 C 0.26944 0.19245 0.18495 0.0
C15 C 0.2616 0.19719 0.15462 0.0
N16 N 0.2375 0.19879 0.09055 0.0
C17 C 0.23164 0.19782 0.12566 0.0
C18 C 0.21239 0.19446 0.12975 0.0
C19 C 0.20575 0.19352 0.09504 0.0
C20 C 0.22141 0.19638 0.07153 0.0
N21 N 0.25355 0.17662 0.06354 0.0
C22 C 0.23967 0.13726 0.04966 0.0
C23 C 0.23311 0.14179 0.08141 0.0
C24 C 0.24033 0.16148 0.08794 0.0
C25 C 0.25333 0.15311 0.02521 0.0
C26 C 0.25976 0.17245 0.0323 0.0
N27 N 0.27574 0.23196 0.08217 0.0
C28 C 0.27567 0.26278 0.07128 0.0
C29 C 0.2943 0.27276 0.08683 0.0
C30 C 0.30303 0.26171 0.1014 0.0
C31 C 0.29359 0.24142 0.09863 0.0
C32 C 0.26657 0.24244 0.06962 0.0
H33 H 0.30108 0.23349 0.10889 0.0
H34 H 0.25233 0.23534 0.05725 0.0
H35 H 0.23528 0.16446 0.11281 0.0
H36 H 0.27006 0.18406 0.01254 0.0
C37 C 0.29148 0.22511 0.99731 0.0
C38 C 0.22125 0.19932 0.03146 0.0
C39 C 0.30044 0.19353 0.1091 0.0
C40 C 0.24368 0.1978 0.15421 0.0
H41 H 0.23127 0.214 0.95511 0.0
H42 H 0.27008 0.22999 0.93692 0.0
H43 H 0.33015 0.22774 0.99621 0.0
H44 H 0.33412 0.20854 0.05602 0.0
H45 H 0.29434 0.18624 0.18793 0.0
H46 H 0.26423 0.19034 0.21326 0.0
H47 H 0.20406 0.19263 0.15498 0.0
H48 H 0.19121 0.19152 0.08787 0.0
H49 H 0.22237 0.13029 0.10111 0.0
H50 H 0.25947 0.15081 0.00076 0.0
H51 H 0.26818 0.27065 0.06027 0.0
H52 H 0.31742 0.26879 0.11365 0.0
C53 C 0.86753 0.08951 0.07828 0.0
C54 C 0.87873 0.08819 0.10695 0.0
C55 C 0.86545 0.07455 0.13328 0.0
C56 C 0.84694 0.06837 0.11937 0.0
N57 N 0.84759 0.077 0.08542 0.0
Co58 Co 0.82402 0.07356 0.05635 0.0
N59 N 0.80433 0.05555 0.09709 0.0
C60 C 0.80876 0.04962 0.12985 0.0
C61 C 0.79223 0.03748 0.15246 0.0
C62 C 0.77626 0.0354 0.13296 0.0
C63 C 0.78395 0.0463 0.09926 0.0
N64 N 0.80058 0.07037 0.02731 0.0
C65 C 0.78056 0.05944 0.03562 0.0
C66 C 0.76954 0.06059 0.00634 0.0
C67 C 0.78297 0.07288 0.97899 0.0
C68 C 0.80136 0.07839 0.99274 0.0
N69 N 0.84364 0.0915 0.01563 0.0
C70 C 0.83931 0.09652 0.98206 0.0
C71 C 0.85584 0.10929 0.96002 0.0
C72 C 0.87175 0.11299 0.98097 0.0
C73 C 0.86392 0.10229 0.01481 0.0
N74 N 0.82286 0.0502 0.03588 0.0
C75 C 0.82008 0.01615 0.00883 0.0
C76 C 0.81876 0.0306 0.98553 0.0
C77 C 0.82022 0.04737 -0.00052 0.0
C78 C 0.82283 0.01918 0.04577 0.0
C79 C 0.82425 0.03606 0.05843 0.0
N80 N 0.82533 0.09677 0.07705 0.0
C81 C 0.82851 0.12926 0.0695 0.0
C82 C 0.83207 0.13141 0.10665 0.0
C83 C 0.8312 0.11559 0.12883 0.0
C84 C 0.82766 0.09857 0.11373 0.0
C85 C 0.82526 0.11191 0.05528 0.0
H86 H 0.82729 0.08721 0.13233 0.0
H87 H 0.82312 0.11114 0.02658 0.0
H88 H 0.81912 0.05778 0.9803 0.0
H89 H 0.82629 0.03712 0.08682 0.0
C90 C 0.82863 0.05592 0.13875 0.0
C91 C 0.87633 0.1036 0.04571 0.0
C92 C 0.77126 0.04738 0.07028 0.0
C93 C 0.81957 0.09025 0.97313 0.0
H94 H 0.89479 0.09664 0.10911 0.0
H95 H 0.86883 0.07025 0.16001 0.0
H96 H 0.79184 0.03098 0.17991 0.0
H97 H 0.7607 0.02681 0.14258 0.0
H98 H 0.75345 0.05305 0.00443 0.0
H99 H 0.77972 0.07697 0.95195 0.0
H100 H 0.85625 0.11567 0.93242 0.0
H101 H 0.88733 0.12283 0.97259 0.0
H102 H 0.8168 0.02912 0.95657 0.0
H103 H 0.82353 0.00837 0.06533 0.0
H104 H 0.82888 0.14111 0.05132 0.0
H105 H 0.83333 0.11636 0.15792 0.0
C106 C 0.98574 0.7715 0.01007 0.0
C107 C 0.99437 0.76853 0.97955 0.0
C108 C 0.98154 0.74993 0.97056 0.0
C109 C 0.96629 0.74202 0.99696 0.0
N110 N 0.9688 0.75449 0.02196 0.0
Co111 Co 0.9541 0.74592 0.07045 0.0
N112 N 0.93109 0.7231 0.05205 0.0
C113 C 0.93167 0.71455 0.02234 0.0
C114 C 0.91334 0.69888 0.01634 0.0
C115 C 0.90058 0.69758 0.04424 0.0
C116 C 0.91186 0.71259 0.06574 0.0
N117 N 0.93956 0.73717 0.1189 0.0
C118 C 0.91965 0.72591 0.12734 0.0
C119 C 0.91574 0.72481 0.16473 0.0
C120 C 0.93389 0.7351 0.17997 0.0
C121 C 0.94786 0.74223 0.1512 0.0
N122 N 0.97706 0.76865 0.08943 0.0
C123 C 0.98207 0.76931 0.12459 0.0
C124 C 1.00091 0.78434 0.12937 0.0
C125 C 1.0082 0.79368 0.09498 0.0
C126 C 0.99304 0.78428 0.07113 0.0
N127 N 0.941 0.76157 0.05758 0.0
C128 C 0.91414 0.77569 0.04279 0.0
C129 C 0.92376 0.77846 0.07605 0.0
C130 C 0.93726 0.77137 0.08284 0.0
C131 C 0.91967 0.76727 0.01612 0.0
C132 C 0.93306 0.76037 0.02398 0.0
N133 N 0.96702 0.72978 0.08268 0.0
C134 C 0.99626 0.72578 0.07866 0.0
C135 C 0.98513 0.7059 0.09214 0.0
C136 C 0.96473 0.69837 0.10179 0.0
C137 C 0.95602 0.71056 0.09712 0.0
C138 C 0.98704 0.73736 0.07426 0.0
H139 H 0.94027 0.70431 0.10443 0.0
H140 H 0.99616 0.75236 0.0629 0.0
H141 H 0.94382 0.77281 0.10918 0.0
H142 H 0.93602 0.75294 0.00351 0.0
C143 C 0.94888 0.72347 0.99852 0.0
C144 C 0.99514 0.78905 0.03092 0.0
C145 C 0.90456 0.7153 0.10081 0.0
C146 C 0.96803 0.75655 0.15238 0.0
H147 H 1.00917 0.77771 0.96687 0.0
H148 H 0.98354 0.7428 0.94826 0.0
H149 H 0.90954 0.68983 0.99388 0.0
H150 H 0.88489 0.68667 0.0486 0.0
H151 H 0.90137 0.71756 0.17968 0.0
H152 H 0.93645 0.73791 0.20833 0.0
H153 H 1.0085 0.78801 0.15469 0.0
H154 H 0.02323 0.80569 0.08826 0.0
H155 H 0.92012 0.78508 0.09736 0.0
H156 H 0.91315 0.76536 0.98961 0.0
H157 H 0.01197 0.73234 0.07031 0.0
H158 H 0.95552 0.68317 0.11282 0.0
C159 C 0.21761 0.24558 0.4947 0.0
C160 C 0.22345 0.24547 0.53046 0.0
C161 C 0.23063 0.26419 0.54005 0.0
C162 C 0.22876 0.27468 0.5098 0.0
N163 N 0.22057 0.26364 0.48195 0.0
Co164 Co 0.21624 0.27345 0.43293 0.0
N165 N 0.21879 0.29761 0.45112 0.0
C166 C 0.22721 0.30508 0.48213 0.0
C167 C 0.22629 0.32174 0.48781 0.0
C168 C 0.21672 0.32488 0.45848 0.0
C169 C 0.21237 0.30994 0.43643 0.0
N170 N 0.21215 0.28335 0.38396 0.0
C171 C 0.20634 0.29687 0.37487 0.0
C172 C 0.20521 0.29948 0.33723 0.0
C173 C 0.21044 0.28703 0.32245 0.0
C174 C 0.2145 0.27759 0.35176 0.0
N175 N 0.2136 0.24931 0.41434 0.0
C176 C 0.21527 0.24684 0.37891 0.0
C177 C 0.2132 0.2288 0.37406 0.0
C178 C 0.21033 0.21941 0.40861 0.0
C179 C 0.21086 0.23233 0.43277 0.0
N180 N 0.18728 0.26025 0.44466 0.0
C181 C 0.14637 0.24733 0.45864 0.0
C182 C 0.15323 0.24433 0.42559 0.0
C183 C 0.17373 0.25084 0.41919 0.0
C184 C 0.16035 0.25587 0.4852 0.0
C185 C 0.18057 0.26217 0.47773 0.0
N186 N 0.24538 0.28711 0.42171 0.0
C187 C 0.27744 0.28858 0.4284 0.0
C188 C 0.2876 0.30854 0.4148 0.0
C189 C 0.27599 0.31721 0.40317 0.0
C190 C 0.25503 0.30629 0.40672 0.0
C191 C 0.25645 0.27818 0.43148 0.0
H192 H 0.24663 0.31358 0.39825 0.0
H193 H 0.24925 0.26304 0.44294 0.0
H194 H 0.17872 0.24894 0.39314 0.0
H195 H 0.1909 0.26933 0.49837 0.0
C196 C 0.23209 0.29402 0.50803 0.0
C197 C 0.21135 0.22891 0.47268 0.0
C198 C 0.20302 0.30822 0.401 0.0
C199 C 0.21639 0.26076 0.35096 0.0
H200 H 0.22296 0.23324 0.54755 0.0
H201 H 0.23619 0.2694 0.56621 0.0
H202 H 0.23107 0.33004 0.51133 0.0
H203 H 0.21323 0.3367 0.45401 0.0
H204 H 0.20099 0.30929 0.32208 0.0
H205 H 0.21029 0.28447 0.29394 0.0
H206 H 0.21344 0.22303 0.34848 0.0
H207 H 0.20862 0.20492 0.41526 0.0
H208 H 0.14302 0.23772 0.40424 0.0
H209 H 0.15578 0.25802 0.51155 0.0
H210 H 0.2856 0.28114 0.43791 0.0
H211 H 0.28302 0.33242 0.39162 0.0
C212 C 0.78653 0.92518 0.42573 0.0
C213 C 0.80063 0.92828 0.39845 0.0
C214 C 0.80405 0.94493 0.37675 0.0
C215 C 0.7918 0.95098 0.39173 0.0
N216 N 0.78088 0.93917 0.42143 0.0
Co217 Co 0.76041 0.9418 0.45007 0.0
N218 N 0.75829 0.95951 0.41012 0.0
C219 C 0.77153 0.96892 0.38134 0.0
C220 C 0.7662 0.97994 0.35767 0.0
C221 C 0.74873 0.97766 0.3728 0.0
C222 C 0.74447 0.96553 0.40534 0.0
N223 N 0.7398 0.94414 0.479 0.0
C224 C 0.72767 0.95168 0.46884 0.0
C225 C 0.71655 0.95149 0.49901 0.0
C226 C 0.72204 0.94382 0.52884 0.0
C227 C 0.73621 0.93978 0.51552 0.0
N228 N 0.76282 0.92443 0.4901 0.0
C229 C 0.75721 0.92273 0.52554 0.0
C230 C 0.7609 0.9097 0.54704 0.0
C231 C 0.76936 0.90278 0.52361 0.0
C232 C 0.77026 0.91196 0.48898 0.0
N233 N 0.78172 0.96495 0.47041 0.0
C234 C 0.81301 0.99905 0.49506 0.0
C235 C 0.79481 0.99808 0.4862 0.0
C236 C 0.77949 0.98105 0.47371 0.0
C237 C 0.81516 0.98247 0.49186 0.0
C238 C 0.79926 0.9655 0.47994 0.0
N239 N 0.73941 0.91877 0.4293 0.0
C240 C 0.71164 0.88564 0.4368 0.0
C241 C 0.71236 0.88442 0.39901 0.0
C242 C 0.72654 0.90091 0.37675 0.0
C243 C 0.73992 0.9178 0.39236 0.0
C244 C 0.72514 0.90306 0.45135 0.0
H245 H 0.75108 0.92986 0.37446 0.0
H246 H 0.72434 0.90366 0.48049 0.0
H247 H 0.76596 0.98113 0.46617 0.0
H248 H 0.80127 0.95291 0.47799 0.0
C249 C 0.78711 0.96486 0.37484 0.0
C250 C 0.77931 0.90939 0.45615 0.0
C251 C 0.72844 0.96178 0.43252 0.0
C252 C 0.74523 0.93053 0.53591 0.0
H253 H 0.80755 0.91939 0.39429 0.0
H254 H 0.81349 0.95119 0.35186 0.0
H255 H 0.77378 0.98823 0.33196 0.0
H256 H 0.74031 0.98445 0.36139 0.0
H257 H 0.70613 0.95705 0.49987 0.0
H258 H 0.71639 0.94149 0.55691 0.0
H259 H 0.75707 0.90509 0.57595 0.0
H260 H 0.77428 0.89219 0.53114 0.0
H261 H 0.79258 0.01062 0.48799 0.0
H262 H 0.82896 0.98257 0.49875 0.0
H263 H 0.70075 0.87327 0.45494 0.0
H264 H 0.72776 0.90056 0.34747 0.0
C265 C 0.04354 0.8126 0.48232 0.0
C266 C 0.04216 0.81206 0.52011 0.0
C267 C 0.0603 0.81528 0.53239 0.0
C268 C 0.07166 0.81754 0.50153 0.0
N269 N 0.06182 0.81585 0.47055 0.0
Co270 Co 0.07281 0.81823 0.41993 0.0
N271 N 0.096 0.81556 0.43838 0.0
C272 C 0.10189 0.81709 0.4731 0.0
C273 C 0.11887 0.81561 0.47784 0.0
C274 C 0.12436 0.81343 0.44388 0.0
C275 C 0.11035 0.8137 0.42018 0.0
N276 N 0.08359 0.82046 0.36916 0.0
C277 C 0.0986 0.81755 0.35701 0.0
C278 C 0.10102 0.82064 0.31909 0.0
C279 C 0.08757 0.82632 0.30711 0.0
C280 C 0.0776 0.82623 0.33822 0.0
N281 N 0.04989 0.82126 0.40157 0.0
C282 C 0.04835 0.82794 0.36732 0.0
C283 C 0.03094 0.82866 0.36267 0.0
C284 C 0.02084 0.82208 0.39613 0.0
C285 C 0.03272 0.81768 0.41932 0.0
N286 N 0.0889 0.84692 0.42073 0.0
C287 C 0.11414 0.8867 0.43091 0.0
C288 C 0.12112 0.87628 0.41201 0.0
C289 C 0.10837 0.85658 0.40733 0.0
C290 C 0.0938 0.87707 0.44257 0.0
C291 C 0.08143 0.85724 0.43703 0.0
N292 N 0.05682 0.7895 0.41972 0.0
C293 C 0.03347 0.7608 0.39125 0.0
C294 C 0.03391 0.74819 0.42055 0.0
C295 C 0.04622 0.75694 0.44929 0.0
C296 C 0.0573 0.77742 0.4485 0.0
C297 C 0.04507 0.78129 0.39127 0.0
H298 H 0.06629 0.78343 0.47136 0.0
H299 H 0.0444 0.79046 0.36827 0.0
H300 H 0.11462 0.8491 0.39387 0.0
H301 H 0.066 0.85012 0.4471 0.0
C302 C 0.09035 0.81851 0.50092 0.0
C303 C 0.0277 0.81125 0.45838 0.0
C304 C 0.11304 0.81522 0.38019 0.0
C305 C 0.06175 0.8302 0.33918 0.0
H306 H 0.02944 0.80973 0.53699 0.0
H307 H 0.06448 0.81535 0.56055 0.0
H308 H 0.12642 0.81614 0.50296 0.0
H309 H 0.13762 0.81252 0.43711 0.0
H310 H 0.11201 0.81973 0.30201 0.0
H311 H 0.08537 0.83012 0.27909 0.0
H312 H 0.02583 0.83275 0.33764 0.0
H313 H 1.00639 0.8207 0.4027 0.0
H314 H 0.13652 0.88317 0.40141 0.0
H315 H 0.08763 0.8845 0.45715 0.0
H316 H 0.02406 0.755 0.36854 0.0
H317 H 0.04759 0.74811 0.4723 0.0
C318 C 0.80829 0.81689 0.93592 0.0
C319 C 0.82481 0.82178 0.9129 0.0
C320 C 0.8204 0.82637 0.87871 0.0
C321 C 0.80158 0.82414 0.8828 0.0
N322 N 0.79374 0.81859 0.91761 0.0
Co323 Co 0.76683 0.81381 0.9356 0.0
N324 N 0.75959 0.81861 0.88463 0.0
C325 C 0.77081 0.8226 0.8533 0.0
C326 C 0.76191 0.82506 0.82246 0.0
C327 C 0.744 0.82272 0.83478 0.0
C328 C 0.74308 0.81909 0.87264 0.0
N329 N 0.74004 0.80944 0.95364 0.0
C330 C 0.72562 0.81137 0.93522 0.0
C331 C 0.70978 0.80804 0.95861 0.0
C332 C 0.71439 0.80397 0.99304 0.0
C333 C 0.73273 0.80512 0.98879 0.0
N334 N 0.77397 0.80853 0.98651 0.0
C335 C 0.76246 0.80381 0.01773 0.0
C336 C 0.77087 0.8001 0.0482 0.0
C337 C 0.78872 0.8023 0.03569 0.0
C338 C 0.7902 0.80732 0.99818 0.0
N339 N 0.77852 0.84236 0.94186 0.0
C340 C 0.79188 0.88243 0.9498 0.0
C341 C 0.78287 0.868 0.97931 0.0
C342 C 0.77627 0.84829 0.97474 0.0
C343 C 0.79453 0.87655 0.91637 0.0
C344 C 0.78806 0.85664 0.91316 0.0
N345 N 0.75494 0.78528 0.92943 0.0
C346 C 0.7338 0.75113 0.95284 0.0
C347 C 0.73778 0.74475 0.92117 0.0
C348 C 0.75055 0.75899 0.89366 0.0
C349 C 0.75912 0.77902 0.89851 0.0
C350 C 0.74228 0.77124 0.9562 0.0
H351 H 0.76909 0.78917 0.87694 0.0
H352 H 0.73826 0.77503 0.98072 0.0
H353 H 0.76908 0.83814 0.9982 0.0
H354 H 0.79076 0.85315 0.88709 0.0
C355 C 0.79026 0.82545 0.85409 0.0
C356 C 0.80693 0.81004 0.97463 0.0
C357 C 0.72666 0.81712 0.89598 0.0
C358 C 0.74363 0.80263 0.01729 0.0
H359 H 0.83846 0.82164 0.91999 0.0
H360 H 0.82957 0.83029 0.85366 0.0
H361 H 0.76797 0.82868 0.79446 0.0
H362 H 0.73303 0.82399 0.81788 0.0
H363 H 0.69643 0.80878 0.9516 0.0
H364 H 0.70557 0.80089 0.01825 0.0
H365 H 0.76461 0.79595 0.07608 0.0
H366 H 0.79931 0.80014 0.05223 0.0
H367 H 0.78039 0.87182 0.00573 0.0
H368 H 0.80171 0.88727 0.89284 0.0
H369 H 0.72382 0.74062 0.97472 0.0
H370 H 0.75416 0.7547 0.86872 0.0
C371 C 0.19098 0.99672 0.95094 0.0
C372 C 0.18656 0.00957 0.92973 0.0
C373 C 0.18319 1.00338 0.8956 0.0
C374 C 0.18545 0.98702 0.89803 0.0
N375 N 0.18973 0.98218 0.93174 0.0
Co376 Co 0.193 0.95881 0.94751 0.0
N377 N 0.19163 0.95175 0.89594 0.0
C378 C 0.18991 0.96186 0.86562 0.0
C379 C 0.18917 0.95355 0.83401 0.0
C380 C 0.1904 0.93708 0.8447 0.0
C381 C 0.19188 0.93628 0.88246 0.0
N382 N 0.19522 0.93481 0.96354 0.0
C383 C 0.19418 0.92041 0.94405 0.0
C384 C 0.19531 0.90578 0.96643 0.0
C385 C 0.19668 0.91088 0.00132 0.0
C386 C 0.19635 0.92828 0.99832 0.0
N387 N 0.1956 0.96671 0.99874 0.0
C388 C 0.19832 0.9572 0.0289 0.0
C389 C 0.20202 0.96713 0.05935 0.0
C390 C 0.2021 0.98423 0.04787 0.0
C391 C 0.19816 0.98365 0.01098 0.0
N392 N 0.16319 0.94215 0.95528 0.0
C393 C 0.12173 0.91421 0.96475 0.0
C394 C 0.13429 0.91843 0.99413 0.0
C395 C 0.15468 0.93229 0.9889 0.0
C396 C 0.13017 0.92497 0.93083 0.0
C397 C 0.15067 0.93886 0.92682 0.0
N398 N 0.22266 0.97514 0.94 0.0
C399 C 0.25582 0.98373 0.96007 0.0
C400 C 0.26487 0.99923 0.93226 0.0
C401 C 0.25229 1.0022 0.90786 0.0
C402 C 0.23139 0.99007 0.91218 0.0
C403 C 0.23499 0.97203 0.9634 0.0
H404 H 0.22253 0.9931 0.89294 0.0
H405 H 0.22921 0.96057 0.98534 0.0
H406 H 0.16327 0.93435 0.01246 0.0
H407 H 0.15606 0.94648 0.90021 0.0
C408 C 0.18639 0.97757 0.86832 0.0
C409 C 0.1977 0.99978 0.98824 0.0
C410 C 0.19198 0.91985 0.90452 0.0
C411 C 0.19804 0.93932 0.0273 0.0
H412 H 0.18649 0.0225 0.93773 0.0
H413 H 0.18035 0.01048 0.87149 0.0
H414 H 0.18704 0.95839 0.80667 0.0
H415 H 0.18952 0.92652 0.82671 0.0
H416 H 0.19511 0.89273 0.95838 0.0
H417 H 0.19784 0.90288 0.02594 0.0
H418 H 0.20496 0.96275 0.08642 0.0
H419 H 0.20523 0.99593 0.06472 0.0
H420 H 0.12864 0.91054 0.02101 0.0
H421 H 0.12104 0.92264 0.90731 0.0
H422 H 0.26477 0.98042 0.9792 0.0
H423 H 0.25847 0.01402 0.88588 0.0
C424 C 0.02284 0.20816 0.93758 0.0
C425 C 0.01146 0.19294 0.91655 0.0
C426 C 0.02188 0.19736 0.8836 0.0
C427 C 0.03893 0.21498 0.88628 0.0
N428 N 0.03993 0.22195 0.91885 0.0
Co429 Co 0.06176 0.24706 0.93389 0.0
N430 N 0.07202 0.25743 0.88215 0.0
C431 C 0.06694 0.24675 0.85326 0.0
C432 C 0.07643 0.25759 0.82091 0.0
C433 C 0.08863 0.27622 0.82994 0.0
C434 C 0.08593 0.27572 0.86754 0.0
N435 N 0.08375 0.27209 0.94921 0.0
C436 C 0.09716 0.28889 0.92892 0.0
C437 C 0.11056 0.30241 0.95104 0.0
C438 C 0.10577 0.29358 0.9862 0.0
C439 C 0.08971 0.27526 0.98368 0.0
N440 N 0.05125 0.23661 0.98534 0.0
C441 C 0.0611 0.24339 0.01568 0.0
C442 C 0.04989 0.23332 0.04737 0.0
C443 C 0.03183 0.21931 0.03625 0.0
C444 C 0.03308 0.22168 0.9983 0.0
N445 N 0.07965 0.23558 0.93865 0.0
C446 C 0.10815 0.22344 0.95449 0.0
C447 C 0.08812 0.21184 0.96788 0.0
C448 C 0.07407 0.21811 0.95941 0.0
C449 C 0.11303 0.24032 0.93082 0.0
C450 C 0.09875 0.24608 0.92346 0.0
N451 N 0.04414 0.25878 0.92962 0.0
C452 C 0.0305 0.27744 0.95497 0.0
C453 C 0.02021 0.27689 0.92325 0.0
C454 C 0.02191 0.26683 0.89494 0.0
C455 C 0.03371 0.25766 0.89886 0.0
C456 C 0.04251 0.26853 0.95743 0.0
H457 H 0.03451 0.24982 0.87683 0.0
H458 H 0.05063 0.26974 0.98182 0.0
H459 H 0.05892 0.2092 0.9708 0.0
H460 H 0.10357 0.25953 0.90645 0.0
C461 C 0.05206 0.22701 0.85705 0.0
C462 C 0.0173 0.20881 0.97542 0.0
C463 C 0.09966 0.29164 0.88875 0.0
C464 C 0.07909 0.26122 0.0132 0.0
H465 H 0.99704 0.18012 0.924 0.0
H466 H 0.01707 0.18921 0.85989 0.0
H467 H 0.07474 0.25255 0.79397 0.0
H468 H 0.09904 0.28854 0.81119 0.0
H469 H 0.123 0.31687 0.94242 0.0
H470 H 0.11317 0.29977 0.01063 0.0
H471 H 0.05398 0.23635 0.07521 0.0
H472 H 0.0192 0.2086 0.05396 0.0
H473 H 0.08353 0.19851 0.98596 0.0
H474 H 0.12806 0.24944 0.91864 0.0
H475 H 0.02975 0.2852 0.97737 0.0
H476 H 0.01408 0.26594 0.87003 0.0
C477 C 0.82289 0.80621 0.55981 0.0
C478 C 0.82652 0.82176 0.57977 0.0
C479 C 0.83257 0.81795 0.61313 0.0
C480 C 0.83227 0.80036 0.61169 0.0
N481 N 0.82649 0.79288 0.57948 0.0
Co482 Co 0.82355 0.76761 0.56606 0.0
N483 N 0.82319 0.75796 0.6183 0.0
C484 C 0.8283 0.76896 0.64673 0.0
C485 C 0.82627 0.75838 0.67978 0.0
C486 C 0.81991 0.7396 0.67169 0.0
C487 C 0.81862 0.73981 0.63394 0.0
N488 N 0.82082 0.74238 0.55241 0.0
C489 C 0.81749 0.72583 0.57368 0.0
C490 C 0.81815 0.71229 0.55255 0.0
C491 C 0.82246 0.72078 0.51712 0.0
C492 C 0.8242 0.73898 0.51845 0.0
N493 N 0.82378 0.77745 0.51409 0.0
C494 C 0.82732 0.77045 0.48449 0.0
C495 C 0.82617 0.78006 0.45217 0.0
C496 C 0.82162 0.79398 0.46214 0.0
C497 C 0.82023 0.79202 0.50007 0.0
N498 N 0.85291 0.77916 0.5619 0.0
C499 C 0.89299 0.79029 0.5439 0.0
C500 C 0.88487 0.80223 0.53112 0.0
C501 C 0.86478 0.79643 0.54061 0.0
C502 C 0.88117 0.77374 0.56835 0.0
C503 C 0.86138 0.76852 0.57697 0.0
N504 N 0.79426 0.75576 0.5695 0.0
C505 C 0.76248 0.73659 0.54318 0.0
C506 C 0.75208 0.7373 0.57396 0.0
C507 C 0.7635 0.74795 0.6022 0.0
C508 C 0.7845 0.7572 0.59927 0.0
C509 C 0.78335 0.74561 0.54173 0.0
H510 H 0.7928 0.76531 0.62131 0.0
H511 H 0.79062 0.74427 0.51795 0.0
H512 H 0.8586 0.80541 0.52928 0.0
H513 H 0.85273 0.7552 0.59434 0.0
C514 C 0.83315 0.7887 0.64182 0.0
C515 C 0.81657 0.80481 0.52206 0.0
C516 C 0.81684 0.72361 0.61398 0.0
C517 C 0.82778 0.75275 0.48825 0.0
H518 H 0.82472 0.83438 0.57133 0.0
H519 H 0.83569 0.82644 0.63634 0.0
H520 H 0.82904 0.76367 0.70656 0.0
H521 H 0.81747 0.72733 0.69115 0.0
H522 H 0.81651 0.69807 0.56193 0.0
H523 H 0.82427 0.71448 0.49331 0.0
H524 H 0.82752 0.77675 0.42466 0.0
H525 H 0.81949 0.80431 0.44371 0.0
H526 H 0.89358 0.81534 0.51249 0.0
H527 H 0.88695 0.76438 0.57987 0.0
H528 H 0.75467 0.72915 0.52 0.0
H529 H 0.75637 0.74891 0.6268 0.0
C530 C 0.20652 0.02365 0.53992 0.0
C531 C 0.18955 0.01036 0.5615 0.0
C532 C 0.1927 0.01605 0.59597 0.0
C533 C 0.21131 0.03241 0.59352 0.0
N534 N 0.22021 0.03767 0.55951 0.0
Co535 Co 0.24736 0.06051 0.54407 0.0
N536 N 0.2527 0.06762 0.5956 0.0
C537 C 0.2407 0.05774 0.62586 0.0
C538 C 0.24797 0.06635 0.65731 0.0
C539 C 0.26561 0.08286 0.64653 0.0
C540 C 0.26813 0.08333 0.6089 0.0
N541 N 0.27418 0.08385 0.52841 0.0
C542 C 0.28723 0.09844 0.5478 0.0
C543 C 0.30355 0.11264 0.52591 0.0
C544 C 0.30051 0.10706 0.49127 0.0
C545 C 0.2826 0.08984 0.49398 0.0
N546 N 0.24227 0.05287 0.49275 0.0
C547 C 0.25482 0.06193 0.46277 0.0
C548 C 0.24778 0.05265 0.43178 0.0
C549 C 0.22981 0.03649 0.4427 0.0
C550 C 0.22692 0.03687 0.47984 0.0
N551 N 0.23532 0.07799 0.53557 0.0
C552 C 0.22542 0.10842 0.52723 0.0
C553 C 0.23471 0.10481 0.49851 0.0
C554 C 0.23926 0.08956 0.50306 0.0
C555 C 0.21971 0.09552 0.55934 0.0
C556 C 0.22474 0.08045 0.56289 0.0
N557 N 0.25978 0.04331 0.55246 0.0
C558 C 0.28363 0.03357 0.53327 0.0
C559 C 0.27718 0.0186 0.56209 0.0
C560 C 0.26196 0.01643 0.58648 0.0
C561 C 0.25353 0.02883 0.58118 0.0
C562 C 0.27485 0.04555 0.52901 0.0
H563 H 0.24189 0.02637 0.6005 0.0
H564 H 0.28057 0.05651 0.50636 0.0
H565 H 0.24657 0.08788 0.48014 0.0
H566 H 0.22051 0.07138 0.58835 0.0
C567 C 0.2216 0.04188 0.62323 0.0
C568 C 0.2095 0.02152 0.50173 0.0
C569 C 0.28465 0.09967 0.5867 0.0
C570 C 0.27315 0.0791 0.4647 0.0
H571 H 0.1765 0.9975 0.55348 0.0
H572 H 0.18293 0.0087 0.62023 0.0
H573 H 0.24083 0.0617 0.68455 0.0
H574 H 0.27506 0.09366 0.66434 0.0
H575 H 0.31619 0.12581 0.53407 0.0
H576 H 0.31005 0.11481 0.46691 0.0
H577 H 0.25498 0.05698 0.4046 0.0
H578 H 0.22001 0.02553 0.42542 0.0
H579 H 0.23883 0.11398 0.47266 0.0
H580 H 0.21219 0.09755 0.58219 0.0
H581 H 0.29566 0.03627 0.51404 0.0
H582 H 0.25632 1.00503 0.60922 0.0
C583 C 0.9989 0.2025 0.56737 0.0
C584 C 1.01056 0.19706 0.58906 0.0
C585 C 0.99976 0.18822 0.62153 0.0
C586 C 0.98217 0.18872 0.61781 0.0
N587 N 0.98122 0.19732 0.58507 0.0
Co588 Co 0.95853 0.20105 0.56829 0.0
N589 N 0.94721 0.19659 0.6193 0.0
C590 C 0.95226 0.18863 0.64867 0.0
C591 C 0.94193 0.18711 0.68041 0.0
C592 C 0.92927 0.19417 0.6704 0.0
C593 C 0.9325 0.19952 0.63288 0.0
N594 N 0.93581 0.20481 0.55135 0.0
C595 C 0.92186 0.2068 0.57066 0.0
C596 C 0.90817 0.20827 0.54765 0.0
C597 C 0.91349 0.20677 0.51296 0.0
C598 C 0.93008 0.20449 0.51662 0.0
N599 N 0.9699 0.20528 0.51743 0.0
C600 C 0.96019 0.20439 0.48655 0.0
C601 C 0.97202 0.20826 0.45543 0.0
C602 C 0.99031 0.21175 0.46751 0.0
C603 C 0.98856 0.20973 0.50546 0.0
N604 N 0.94237 0.17273 0.56367 0.0
C605 C 0.91808 0.13271 0.55376 0.0
C606 C 0.93849 0.14283 0.54239 0.0
C607 C 0.95035 0.16278 0.54761 0.0
C608 C 0.91032 0.14312 0.57062 0.0
C609 C 0.92262 0.16288 0.57546 0.0
N610 N 0.97456 0.22934 0.57265 0.0
C611 C 0.98728 0.26288 0.54666 0.0
C612 C 0.99714 0.26989 0.5786 0.0
C613 C 0.99555 0.25616 0.60746 0.0
C614 C 0.9844 0.236 0.60379 0.0
C615 C 0.97595 0.24263 0.54439 0.0
H616 H 0.98371 0.22581 0.62622 0.0
H617 H 0.96825 0.23776 0.5197 0.0
H618 H 0.96592 0.1702 0.53828 0.0
H619 H 0.91592 0.17021 0.58826 0.0
C620 C 0.9681 0.18463 0.64613 0.0
C621 C 1.00452 0.21138 0.52942 0.0
C622 C 0.91923 0.20438 0.6108 0.0
C623 C 0.94157 0.20362 0.4879 0.0
H624 H 0.0253 0.19923 0.58212 0.0
H625 H 1.00454 0.18285 0.6455 0.0
H626 H 0.94352 0.18165 0.70763 0.0
H627 H 0.91837 0.19467 0.68843 0.0
H628 H 0.89526 0.20959 0.55533 0.0
H629 H 0.90614 0.2073 0.48807 0.0
H630 H 0.96815 0.20938 0.42732 0.0
H631 H 1.00343 0.21549 0.45036 0.0
H632 H 0.94532 0.13545 0.52961 0.0
H633 H 0.89462 0.13625 0.5793 0.0
H634 H 0.98795 0.27297 0.52384 0.0
H635 H 1.00307 0.26097 0.63255 0.0
C636 C 0.90172 0.53413 0.34757 0.0
C637 C 0.90375 0.54145 0.31104 0.0
C638 C 0.92375 0.5503 0.30088 0.0
C639 C 0.93282 0.54783 0.33154 0.0
N640 N 0.91973 0.53772 0.36023 0.0
Co641 Co 0.9268 0.5314 0.40972 0.0
N642 N 0.95371 0.53709 0.39147 0.0
C643 C 0.96329 0.54763 0.35979 0.0
C644 C 0.98156 0.5487 0.35425 0.0
C645 C 0.98357 0.53822 0.3844 0.0
C646 C 0.96638 0.5314 0.40681 0.0
N647 N 0.93383 0.52502 0.45906 0.0
C648 C 0.94807 0.52025 0.46869 0.0
C649 C 0.94802 0.51689 0.50647 0.0
C650 C 0.93313 0.51962 0.5208 0.0
C651 C 0.925 0.52453 0.49111 0.0
N652 N 0.90001 0.52588 0.42843 0.0
C653 C 0.89462 0.52502 0.46379 0.0
C654 C 0.87535 0.5215 0.46879 0.0
C655 C 0.86822 0.52033 0.43443 0.0
C656 C 0.88363 0.52323 0.41019 0.0
N657 N 0.91584 0.50387 0.39998 0.0
C658 C 0.90291 0.46464 0.38666 0.0
C659 C 0.89649 0.46904 0.41872 0.0
C660 C 0.90323 0.48869 0.42495 0.0
C661 C 0.91576 0.48052 0.36142 0.0
C662 C 0.92172 0.49979 0.36828 0.0
N663 N 0.93814 0.55916 0.41889 0.0
C664 C 0.9381 0.59001 0.40847 0.0
C665 C 0.95698 0.60001 0.42317 0.0
C666 C 0.9658 0.58894 0.43717 0.0
C667 C 0.95623 0.56863 0.43461 0.0
C668 C 0.92887 0.56964 0.40701 0.0
H669 H 0.96381 0.5607 0.44434 0.0
H670 H 0.91445 0.56251 0.39525 0.0
H671 H 0.89841 0.49162 0.45013 0.0
H672 H 0.93153 0.51145 0.34806 0.0
C673 C 0.95299 0.55265 0.33325 0.0
C674 C 0.88293 0.52596 0.3702 0.0
C675 C 0.96277 0.52028 0.44301 0.0
C676 C 0.90706 0.52512 0.49172 0.0
H677 H 0.89206 0.54087 0.29378 0.0
H678 H 0.93076 0.55738 0.27413 0.0
H679 H 0.99172 0.55536 0.33031 0.0
H680 H 0.99614 0.53576 0.3891 0.0
H681 H 0.95775 0.51295 0.52203 0.0
H682 H 0.92827 0.51746 0.54934 0.0
H683 H 0.86732 0.51967 0.49439 0.0
H684 H 0.85353 0.51813 0.42795 0.0
H685 H 0.88633 0.45748 0.43898 0.0
H686 H 0.9217 0.47831 0.33664 0.0
H687 H 0.93054 0.59789 0.39793 0.0
H688 H 0.98039 0.59603 0.44875 0.0
C689 C 0.53398 0.42447 0.40031 0.0
C690 C 0.54577 0.42086 0.42505 0.0
C691 C 0.53321 0.40363 0.44601 0.0
C692 C 0.51447 0.39775 0.43321 0.0
N693 N 0.51447 0.41024 0.40561 0.0
Co694 Co 0.49046 0.4079 0.38061 0.0
N695 N 0.47179 0.38898 0.42081 0.0
C696 C 0.47646 0.37885 0.44686 0.0
C697 C 0.46051 0.36636 0.47051 0.0
C698 C 0.44471 0.36849 0.45826 0.0
C699 C 0.45189 0.38215 0.42755 0.0
N700 N 0.46663 0.40582 0.35526 0.0
C701 C 0.44726 0.39794 0.36773 0.0
C702 C 0.43545 0.39907 0.33991 0.0
C703 C 0.44776 0.40761 0.309 0.0
C704 C 0.46634 0.41124 0.31949 0.0
N705 N 0.50909 0.42658 0.34031 0.0
C706 C 0.50418 0.42921 0.30592 0.0
C707 C 0.52028 0.44293 0.28378 0.0
C708 C 0.53633 0.44934 0.30564 0.0
C709 C 0.52905 0.43918 0.34007 0.0
N710 N 0.48844 0.38562 0.35637 0.0
C711 C 0.48564 0.35168 0.33048 0.0
C712 C 0.46842 0.35238 0.34085 0.0
C713 C 0.47013 0.36935 0.35381 0.0
C714 C 0.50429 0.36866 0.33192 0.0
C715 C 0.50534 0.38552 0.34446 0.0
N716 N 0.49257 0.42995 0.40541 0.0
C717 C 0.49452 0.46168 0.40394 0.0
C718 C 0.49887 0.46261 0.44107 0.0
C719 C 0.49939 0.44659 0.46006 0.0
C720 C 0.49607 0.43044 0.44191 0.0
C721 C 0.49153 0.44527 0.38658 0.0
H722 H 0.49672 0.41847 0.45744 0.0
H723 H 0.48874 0.44512 0.3578 0.0
H724 H 0.45657 0.36895 0.36287 0.0
H725 H 0.5199 0.3983 0.34548 0.0
C726 C 0.49637 0.38313 0.45066 0.0
C727 C 0.54169 0.44094 0.3711 0.0
C728 C 0.43896 0.38671 0.40365 0.0
C729 C 0.48409 0.42139 0.29759 0.0
H730 H 0.5617 0.42977 0.428 0.0
H731 H 0.53714 0.39681 0.46908 0.0
H732 H 0.46042 0.35705 0.4942 0.0
H733 H 0.42954 0.36059 0.47012 0.0
H734 H 0.41946 0.39365 0.34138 0.0
H735 H 0.44366 0.41088 0.28214 0.0
H736 H 0.52023 0.44828 0.25559 0.0
H737 H 0.55162 0.46021 0.29717 0.0
H738 H 0.4537 0.3396 0.34043 0.0
H739 H 0.51798 0.36887 0.32368 0.0
H740 H 0.49398 0.47377 0.38818 0.0
H741 H 0.50234 0.4465 0.4889 0.0
C742 C 0.64979 0.10433 0.34349 0.0
C743 C 0.65654 0.10509 0.30796 0.0
C744 C 0.64494 0.08677 0.29668 0.0
C745 C 0.63178 0.07584 0.3258 0.0
N746 N 0.6342 0.08624 0.35452 0.0
Co747 Co 0.61898 0.07554 0.40249 0.0
N748 N 0.59746 0.05225 0.38176 0.0
C749 C 0.59882 0.04552 0.35006 0.0
C750 C 0.58112 0.02957 0.34231 0.0
C751 C 0.56789 0.02609 0.37102 0.0
C752 C 0.57833 0.0401 0.39486 0.0
N753 N 0.60399 0.06467 0.45046 0.0
C754 C 0.58447 0.05128 0.45799 0.0
C755 C 0.57999 0.04766 0.49548 0.0
C756 C 0.5974 0.0594 0.51177 0.0
C757 C 0.61147 0.06942 0.48345 0.0
N758 N 0.64028 0.09888 0.42353 0.0
C759 C 0.64358 0.1005 0.45941 0.0
C760 C 0.65942 0.11828 0.46604 0.0
C761 C 0.66675 0.12839 0.43221 0.0
C762 C 0.655 0.11611 0.40666 0.0
N763 N 0.60393 0.0895 0.39109 0.0
C764 C 0.5765 0.10313 0.37711 0.0
C765 C 0.58554 0.10506 0.41089 0.0
C766 C 0.59926 0.09822 0.41728 0.0
C767 C 0.58256 0.0954 0.34989 0.0
C768 C 0.5962 0.08873 0.35736 0.0
N769 N 0.63376 0.06112 0.41342 0.0
C770 C 0.66453 0.05968 0.4111 0.0
C771 C 0.6542 0.03923 0.42093 0.0
C772 C 0.63338 0.03029 0.4284 0.0
C773 C 0.6236 0.04147 0.42508 0.0
C774 C 0.65409 0.07021 0.40712 0.0
H775 H 0.60761 0.03401 0.43093 0.0
H776 H 0.66253 0.0857 0.39819 0.0
H777 H 0.60546 0.09923 0.44388 0.0
H778 H 0.5998 0.08216 0.33615 0.0
C779 C 0.61542 0.05681 0.32555 0.0
C780 C 0.65989 0.12036 0.36699 0.0
C781 C 0.57019 0.04113 0.43042 0.0
C782 C 0.63018 0.08603 0.48605 0.0
H783 H 0.66883 0.11747 0.29213 0.0
H784 H 0.64577 0.08212 0.27016 0.0
H785 H 0.57788 0.02201 0.31785 0.0
H786 H 0.55235 0.01468 0.37383 0.0
H787 H 0.56566 0.0377 0.50955 0.0
H788 H 0.59926 0.06117 0.54065 0.0
H789 H 0.66481 0.12342 0.49231 0.0
H790 H 0.67962 0.14294 0.42693 0.0
H791 H 0.58143 0.11103 0.43276 0.0
H792 H 0.57649 0.09409 0.32302 0.0
H793 H 0.68062 0.06768 0.40617 0.0
H794 H 0.62439 0.01462 0.43577 0.0
C795 C 0.88878 0.57647 0.8209 0.0
C796 C 0.90007 0.57839 0.85153 0.0
C797 C 0.9056 0.59648 0.86292 0.0
C798 C 0.89842 0.60515 0.83772 0.0
N799 N 0.8888 0.59364 0.81123 0.0
Co800 Co 0.88329 0.6037 0.76373 0.0
N801 N 0.88278 0.62574 0.78513 0.0
C802 C 0.89111 0.63298 0.81631 0.0
C803 C 0.88804 0.64811 0.82461 0.0
C804 C 0.87725 0.65054 0.79663 0.0
C805 C 0.87448 0.63682 0.77255 0.0
N806 N 0.87837 0.61402 0.71617 0.0
C807 C 0.87071 0.6262 0.70886 0.0
C808 C 0.87035 0.63017 0.67131 0.0
C809 C 0.87815 0.6201 0.65486 0.0
C810 C 0.88284 0.61062 0.68314 0.0
N811 N 0.88376 0.5817 0.74191 0.0
C812 C 0.88885 0.58233 0.70652 0.0
C813 C 0.89287 0.56762 0.69997 0.0
C814 C 0.89016 0.55712 0.73338 0.0
C815 C 0.88372 0.56548 0.75844 0.0
N816 N 0.85439 0.5878 0.77497 0.0
C817 C 0.81319 0.57339 0.78818 0.0
C818 C 0.82069 0.57194 0.75432 0.0
C819 C 0.84136 0.57915 0.74834 0.0
C820 C 0.82664 0.58069 0.81603 0.0
C821 C 0.84704 0.58775 0.80893 0.0
N822 N 0.91246 0.62014 0.75309 0.0
C823 C 0.94568 0.62404 0.75597 0.0
C824 C 0.95453 0.64449 0.74759 0.0
C825 C 0.94162 0.65224 0.74001 0.0
C826 C 0.92076 0.63983 0.74234 0.0
C827 C 0.92485 0.61229 0.75905 0.0
H828 H 0.91134 0.64634 0.73666 0.0
H829 H 0.9189 0.59687 0.7673 0.0
H830 H 0.84695 0.57872 0.72162 0.0
H831 H 0.85703 0.59428 0.83044 0.0
C832 C 0.89921 0.62343 0.83886 0.0
C833 C 0.88063 0.5596 0.79841 0.0
C834 C 0.86553 0.63562 0.73664 0.0
C835 C 0.88857 0.5963 0.68019 0.0
H836 H 0.90515 0.56853 0.86322 0.0
H837 H 0.9143 0.60274 0.88619 0.0
H838 H 0.89256 0.65604 0.84861 0.0
H839 H 0.87225 0.66131 0.79411 0.0
H840 H 0.8653 0.63958 0.65725 0.0
H841 H 0.87965 0.61937 0.62582 0.0
H842 H 0.89761 0.56505 0.67421 0.0
H843 H 0.8935 0.54525 0.73873 0.0
H844 H 0.81088 0.56624 0.73204 0.0
H845 H 0.82153 0.58155 0.84297 0.0
H846 H 0.95467 0.61694 0.76065 0.0
H847 H 0.9474 0.66786 0.7334 0.0
C848 C 0.45126 0.25973 0.75701 0.0
C849 C 0.46191 0.25874 0.7274 0.0
C850 C 0.45652 0.26602 0.69684 0.0
C851 C 0.44294 0.27106 0.70938 0.0
N852 N 0.43968 0.26778 0.74606 0.0
Co853 Co 0.42011 0.27201 0.77451 0.0
N854 N 0.41706 0.288 0.73225 0.0
C855 C 0.42271 0.28886 0.69713 0.0
C856 C 0.41865 0.30106 0.67388 0.0
C857 C 0.40977 0.30828 0.6957 0.0
C858 C 0.40889 0.3 0.73113 0.0
N859 N 0.40036 0.276 0.8027 0.0
C860 C 0.39362 0.289 0.79554 0.0
C861 C 0.37963 0.28659 0.8225 0.0
C862 C 0.37754 0.27153 0.84732 0.0
C863 C 0.39028 0.26561 0.83419 0.0
N864 N 0.42314 0.25615 0.81708 0.0
C865 C 0.41111 0.24868 0.8478 0.0
C866 C 0.41677 0.23843 0.87268 0.0
C867 C 0.43319 0.2391 0.85645 0.0
C868 C 0.43655 0.24965 0.82228 0.0
N869 N 0.44219 0.29599 0.79073 0.0
C870 C 0.474 0.33047 0.81302 0.0
C871 C 0.45824 0.31732 0.83784 0.0
C872 C 0.44259 0.3001 0.82625 0.0
C873 C 0.4735 0.32597 0.77689 0.0
C874 C 0.45743 0.30883 0.76627 0.0
N875 N 0.39817 0.24804 0.75772 0.0
C876 C 0.38627 0.21518 0.74159 0.0
C877 C 0.36963 0.21503 0.72551 0.0
C878 C 0.36719 0.23158 0.72718 0.0
C879 C 0.38156 0.24788 0.74356 0.0
C880 C 0.40014 0.23163 0.7576 0.0
H881 H 0.37947 0.2605 0.74393 0.0
H882 H 0.41285 0.23119 0.76873 0.0
H883 H 0.4308 0.29016 0.84602 0.0
H884 H 0.45734 0.30609 0.73808 0.0
C885 C 0.43426 0.28035 0.68807 0.0
C886 C 0.45038 0.25023 0.79383 0.0
C887 C 0.39903 0.30285 0.76251 0.0
C888 C 0.3957 0.25294 0.85361 0.0
H889 H 0.47198 0.25272 0.72771 0.0
H890 H 0.46188 0.26748 0.66884 0.0
H891 H 0.42229 0.30478 0.64476 0.0
H892 H 0.40446 0.31838 0.68657 0.0
H893 H 0.37173 0.29481 0.82404 0.0
H894 H 0.36842 0.26611 0.87265 0.0
H895 H 0.40983 0.23135 0.89947 0.0
H896 H 0.4413 0.23195 0.8678 0.0
H897 H 0.45809 0.32023 0.86609 0.0
H898 H 0.48521 0.33588 0.75669 0.0
H899 H 0.38908 0.20295 0.7407 0.0
H900 H 0.35439 0.23205 0.7157 0.0
C901 C 0.70785 0.14199 0.83061 0.0
C902 C 0.70283 0.13397 0.86686 0.0
C903 C 0.71503 0.12618 0.87592 0.0
C904 C 0.72683 0.12988 0.84488 0.0
N905 N 0.72304 0.13978 0.81698 0.0
Co906 Co 0.73614 0.14708 0.767 0.0
N907 N 0.75841 0.14263 0.78377 0.0
C908 C 0.75827 0.13224 0.81507 0.0
C909 C 0.77601 0.13211 0.81962 0.0
C910 C 0.788 0.14303 0.7892 0.0
C911 C 0.77681 0.14916 0.76761 0.0
N912 N 0.7492 0.15424 0.71713 0.0
C913 C 0.76833 0.15974 0.70652 0.0
C914 C 0.77123 0.16343 0.6687 0.0
C915 C 0.75326 0.16017 0.65534 0.0
C916 C 0.74043 0.15464 0.6856 0.0
N917 N 0.71393 0.15154 0.74988 0.0
C918 C 0.70915 0.1527 0.71478 0.0
C919 C 0.69289 0.15551 0.71097 0.0
C920 C 0.68684 0.15584 0.74585 0.0
C921 C 0.69976 0.15314 0.76916 0.0
N922 N 0.7517 0.17459 0.77718 0.0
C923 C 0.77698 0.21403 0.79005 0.0
C924 C 0.76571 0.20926 0.75862 0.0
C925 C 0.75335 0.18952 0.75258 0.0
C926 C 0.7748 0.1984 0.8151 0.0
C927 C 0.76195 0.17898 0.80848 0.0
N928 N 0.72071 0.11938 0.75718 0.0
C929 C 0.68993 0.08835 0.76399 0.0
C930 C 0.69967 0.07877 0.75092 0.0
C931 C 0.72 0.09009 0.7397 0.0
C932 C 0.73015 0.11036 0.74258 0.0
C933 C 0.7007 0.10856 0.76711 0.0
H934 H 0.7458 0.11864 0.73384 0.0
H935 H 0.69287 0.11525 0.77857 0.0
H936 H 0.74534 0.18635 0.72775 0.0
H937 H 0.76075 0.16748 0.82843 0.0
C938 C 0.74295 0.12624 0.84212 0.0
C939 C 0.69633 0.14947 0.80918 0.0
C940 C 0.78359 0.16028 0.73124 0.0
C941 C 0.72159 0.15339 0.68611 0.0
H942 H 0.69121 0.13339 0.8846 0.0
H943 H 0.71542 0.11893 0.90215 0.0
H944 H 0.78013 0.12569 0.84306 0.0
H945 H 0.80323 0.14619 0.78371 0.0
H946 H 0.78488 0.16797 0.65247 0.0
H947 H 0.75019 0.16241 0.62708 0.0
H948 H 0.68638 0.15738 0.68582 0.0
H949 H 0.674 0.15732 0.75335 0.0
H950 H 0.76637 0.22059 0.73862 0.0
H951 H 0.78331 0.20093 0.83944 0.0
H952 H 0.67424 0.08016 0.77307 0.0
H953 H 0.72804 0.08331 0.72893 0.0
C954 C 0.47391 0.14933 0.27181 0.0
C955 C 0.4904 0.154 0.24889 0.0
C956 C 0.48626 0.15899 0.21474 0.0
C957 C 0.46764 0.15725 0.21878 0.0
N958 N 0.45969 0.15161 0.25349 0.0
Co959 Co 0.43317 0.14786 0.27139 0.0
N960 N 0.42596 0.15251 0.22037 0.0
C961 C 0.43677 0.15541 0.18905 0.0
C962 C 0.42791 0.15778 0.15807 0.0
C963 C 0.41043 0.15648 0.17031 0.0
C964 C 0.40975 0.15354 0.20825 0.0
N965 N 0.40706 0.1451 0.28943 0.0
C966 C 0.3931 0.14784 0.27098 0.0
C967 C 0.37796 0.14601 0.29455 0.0
C968 C 0.38255 0.1421 0.32908 0.0
C969 C 0.40023 0.14189 0.32471 0.0
N970 N 0.43998 0.14209 0.32221 0.0
C971 C 0.42844 0.13759 0.35328 0.0
C972 C 0.43627 0.13296 0.38366 0.0
C973 C 0.45372 0.13422 0.3712 0.0
C974 C 0.45559 0.13972 0.33381 0.0
N975 N 0.44602 0.17658 0.27706 0.0
C976 C 0.45983 0.21684 0.28397 0.0
C977 C 0.45248 0.20286 0.31448 0.0
C978 C 0.44566 0.18303 0.31045 0.0
C979 C 0.46092 0.21044 0.25014 0.0
C980 C 0.45428 0.19047 0.24741 0.0
N981 N 0.42014 0.11919 0.26585 0.0
C982 C 0.39597 0.08553 0.28759 0.0
C983 C 0.40204 0.07828 0.25959 0.0
C984 C 0.41727 0.09202 0.23448 0.0
C985 C 0.426 0.11221 0.23803 0.0
C986 C 0.40514 0.10576 0.29025 0.0
H987 H 0.43756 0.12191 0.21808 0.0
H988 H 0.39981 0.11016 0.31241 0.0
H989 H 0.43977 0.17319 0.33476 0.0
H990 H 0.4557 0.18661 0.22086 0.0
C991 C 0.4562 0.15819 0.18997 0.0
C992 C 0.47211 0.1419 0.31029 0.0
C993 C 0.39392 0.15288 0.2315 0.0
C994 C 0.4105 0.13819 0.35299 0.0
H995 H 0.50379 0.15333 0.25595 0.0
H996 H 0.49537 0.16265 0.1897 0.0
H997 H 0.43381 0.16084 0.13002 0.0
H998 H 0.39967 0.15806 0.1533 0.0
H999 H 0.36505 0.14757 0.28757 0.0
H1000 H 0.37409 0.13982 0.35439 0.0
H1001 H 0.42995 0.12893 0.4115 0.0
H1002 H 0.46379 0.13122 0.3877 0.0
H1003 H 0.45131 0.20708 0.34129 0.0
H1004 H 0.46687 0.22079 0.22581 0.0
H1005 H 0.384 0.07568 0.30738 0.0
H1006 H 0.42273 0.08729 0.21244 0.0
C1007 C 0.86002 0.32596 0.28511 0.0
C1008 C 0.85443 0.33821 0.26489 0.0
C1009 C 0.85064 0.33196 0.23082 0.0
C1010 C 0.8538 0.31615 0.23233 0.0
N1011 N 0.8591 0.31174 0.26541 0.0
Co1012 Co 0.86366 0.28904 0.27994 0.0
N1013 N 0.86141 0.28194 0.22838 0.0
C1014 C 0.85923 0.29199 0.19852 0.0
C1015 C 0.85908 0.28423 0.16646 0.0
C1016 C 0.86107 0.26811 0.17647 0.0
C1017 C 0.86202 0.2668 0.21432 0.0
N1018 N 0.86696 0.26553 0.29479 0.0
C1019 C 0.8653 0.25096 0.27506 0.0
C1020 C 0.86627 0.23614 0.29717 0.0
C1021 C 0.8686 0.24151 0.33195 0.0
C1022 C 0.86871 0.25912 0.32929 0.0
N1023 N 0.86733 0.29716 0.33105 0.0
C1024 C 0.87127 0.28814 0.36043 0.0
C1025 C 0.87544 0.29817 0.39081 0.0
C1026 C 0.87452 0.31484 0.38005 0.0
C1027 C 0.86954 0.31389 0.34367 0.0
N1028 N 0.83416 0.27161 0.28997 0.0
C1029 C 0.794 0.24098 0.30243 0.0
C1030 C 0.80701 0.24706 0.33103 0.0
C1031 C 0.8267 0.26231 0.32437 0.0
C1032 C 0.80098 0.25162 0.26796 0.0
C1033 C 0.82095 0.26685 0.2624 0.0
N1034 N 0.8931 0.3061 0.27027 0.0
C1035 C 0.92682 0.31535 0.28764 0.0
C1036 C 0.93503 0.33141 0.26086 0.0
C1037 C 0.9218 0.33424 0.23803 0.0
C1038 C 0.90101 0.32151 0.24319 0.0
C1039 C 0.90613 0.30305 0.2918 0.0
H1040 H 0.89156 0.32447 0.22531 0.0
H1041 H 0.90103 0.29124 0.31298 0.0
H1042 H 0.83569 0.26584 0.34752 0.0
H1043 H 0.82551 0.27415 0.2353 0.0
C1044 C 0.85486 0.30708 0.2021 0.0
C1045 C 0.86761 0.32942 0.32178 0.0
C1046 C 0.86207 0.25021 0.23579 0.0
C1047 C 0.87107 0.27031 0.35834 0.0
H1048 H 0.85391 0.35083 0.27344 0.0
H1049 H 0.84696 0.33872 0.20729 0.0
H1050 H 0.85698 0.28925 0.13924 0.0
H1051 H 0.86114 0.25809 0.15809 0.0
H1052 H 0.86511 0.22268 0.2892 0.0
H1053 H 0.86986 0.23343 0.35635 0.0
H1054 H 0.87917 0.29408 0.41739 0.0
H1055 H 0.87755 0.32647 0.39702 0.0
H1056 H 0.80212 0.23981 0.35855 0.0
H1057 H 0.79139 0.24771 0.24499 0.0
H1058 H 0.93635 0.31214 0.30542 0.0
H1059 H 0.92737 0.34646 0.21682 0.0
C1060 C 0.68819 0.54375 0.26142 0.0
C1061 C 0.67554 0.52875 0.24095 0.0
C1062 C 0.68623 0.53078 0.20937 0.0
C1063 C 0.70469 0.54689 0.21221 0.0
N1064 N 0.70625 0.55522 0.24336 0.0
Co1065 Co 0.73049 0.57854 0.25795 0.0
N1066 N 0.74178 0.58714 0.20646 0.0
C1067 C 0.7369 0.57481 0.18021 0.0
C1068 C 0.75002 0.58244 0.15035 0.0
C1069 C 0.76412 0.60074 0.15819 0.0
C1070 C 0.75831 0.60389 0.19185 0.0
N1071 N 0.75508 0.60141 0.27311 0.0
C1072 C 0.77096 0.61596 0.25227 0.0
C1073 C 0.788 0.62329 0.27275 0.0
C1074 C 0.78215 0.61464 0.30784 0.0
C1075 C 0.76218 0.60159 0.30675 0.0
N1076 N 0.71888 0.56992 0.30901 0.0
C1077 C 0.72924 0.57514 0.33934 0.0
C1078 C 0.71739 0.56669 0.37099 0.0
C1079 C 0.69836 0.5553 0.35975 0.0
C1080 C 0.69973 0.5574 0.32177 0.0
N1081 N 0.74444 0.56293 0.26503 0.0
C1082 C 0.76911 0.5471 0.28754 0.0
C1083 C 0.74895 0.53786 0.3003 0.0
C1084 C 0.73676 0.54594 0.28836 0.0
C1085 C 0.77586 0.56299 0.26068 0.0
C1086 C 0.76349 0.57064 0.25002 0.0
N1087 N 0.71702 0.59432 0.2516 0.0
C1088 C 0.70867 0.61741 0.27481 0.0
C1089 C 0.69592 0.61533 0.24618 0.0
C1090 C 0.69422 0.60269 0.21993 0.0
C1091 C 0.70507 0.59251 0.2229 0.0
C1092 C 0.71893 0.60672 0.27716 0.0
H1093 H 0.70363 0.58299 0.20224 0.0
H1094 H 0.72819 0.60825 0.30009 0.0
H1095 H 0.72154 0.53909 0.29956 0.0
H1096 H 0.77018 0.58369 0.23137 0.0
C1097 C 0.7198 0.55623 0.18451 0.0
C1098 C 0.68314 0.54566 0.2989 0.0
C1099 C 0.77084 0.62109 0.21224 0.0
C1100 C 0.74961 0.58913 0.33654 0.0
H1101 H 0.66027 0.51738 0.24823 0.0
H1102 H 0.68096 0.52192 0.18665 0.0
H1103 H 0.74995 0.5752 0.12653 0.0
H1104 H 0.77798 0.60966 0.1421 0.0
H1105 H 0.80344 0.63283 0.26331 0.0
H1106 H 0.79155 0.61691 0.33091 0.0
H1107 H 0.72197 0.56871 0.39886 0.0
H1108 H 0.68512 0.54608 0.37744 0.0
H1109 H 0.743 0.52526 0.32071 0.0
H1110 H 0.79114 0.57026 0.24922 0.0
H1111 H 0.71034 0.62687 0.29586 0.0
H1112 H 0.68472 0.60082 0.1971 0.0
C1113 C 0.49128 0.14341 0.89436 0.0
C1114 C 0.49434 0.15792 0.91677 0.0
C1115 C 0.49672 0.15141 0.95106 0.0
C1116 C 0.49496 0.13338 0.94776 0.0
N1117 N 0.49169 0.12795 0.9134 0.0
Co1118 Co 0.48825 0.10277 0.89694 0.0
N1119 N 0.49032 0.09277 0.94802 0.0
C1120 C 0.49143 0.1014 0.97884 0.0
C1121 C 0.49238 0.09098 0.01005 0.0
C1122 C 0.49214 0.07482 0.99843 0.0
C1123 C 0.49123 0.07644 0.96061 0.0
N1124 N 0.48587 0.07798 0.88033 0.0
C1125 C 0.48835 0.06359 0.899 0.0
C1126 C 0.48742 0.04998 0.87624 0.0
C1127 C 0.48442 0.05604 0.84195 0.0
C1128 C 0.48384 0.07302 0.84562 0.0
N1129 N 0.48525 0.11245 0.84609 0.0
C1130 C 0.48178 0.10274 0.81592 0.0
C1131 C 0.47933 0.11254 0.78526 0.0
C1132 C 0.48102 0.12939 0.79661 0.0
C1133 C 0.48441 0.1289 0.83369 0.0
N1134 N 0.51785 0.11522 0.88812 0.0
C1135 C 0.55876 0.12632 0.87773 0.0
C1136 C 0.5458 0.12026 0.84911 0.0
C1137 C 0.52571 0.11502 0.85472 0.0
C1138 C 0.55123 0.1281 0.91108 0.0
C1139 C 0.53082 0.12253 0.91567 0.0
N1140 N 0.45852 0.09001 0.90544 0.0
C1141 C 0.42519 0.06834 0.8862 0.0
C1142 C 0.41625 0.07293 0.91406 0.0
C1143 C 0.42893 0.08598 0.93816 0.0
C1144 C 0.44984 0.09429 0.9334 0.0
C1145 C 0.44601 0.0769 0.88245 0.0
H1146 H 0.45868 0.10425 0.95247 0.0
H1147 H 0.45155 0.07266 0.86048 0.0
H1148 H 0.51673 0.11029 0.83176 0.0
H1149 H 0.52568 0.12369 0.94196 0.0
C1150 C 0.49414 0.12037 0.97701 0.0
C1151 C 0.48672 0.14443 0.85586 0.0
C1152 C 0.49251 0.06276 0.93777 0.0
C1153 C 0.48166 0.08479 0.81704 0.0
H1154 H 0.49423 0.17155 0.90952 0.0
H1155 H 0.4987 0.15863 0.97574 0.0
H1156 H 0.49396 0.09508 0.03773 0.0
H1157 H 0.49318 0.06344 0.01571 0.0
H1158 H 0.48912 0.0372 0.88349 0.0
H1159 H 0.48324 0.04912 0.81716 0.0
H1160 H 0.47667 0.10798 0.7579 0.0
H1161 H 0.47986 0.14075 0.77955 0.0
H1162 H 0.55106 0.11923 0.82243 0.0
H1163 H 0.56079 0.13299 0.93395 0.0
H1164 H 0.41616 0.05796 0.8673 0.0
H1165 H 0.42283 0.09009 0.96024 0.0
C1166 C 0.87262 0.35456 0.88537 0.0
C1167 C 0.85584 0.34197 0.90803 0.0
C1168 C 0.85946 0.34875 0.94166 0.0
C1169 C 0.87802 0.36516 0.93754 0.0
N1170 N 0.88637 0.36947 0.90319 0.0
Co1171 Co 0.9126 0.39271 0.88489 0.0
N1172 N 0.91912 0.40107 0.93545 0.0
C1173 C 0.90807 0.39152 0.96682 0.0
C1174 C 0.91667 0.40025 0.99756 0.0
C1175 C 0.9342 0.4165 0.98509 0.0
C1176 C 0.93512 0.41687 0.94722 0.0
N1177 N 0.93856 0.41645 0.86645 0.0
C1178 C 0.95211 0.43153 0.88438 0.0
C1179 C 0.96719 0.44598 0.8605 0.0
C1180 C 0.96303 0.43984 0.82636 0.0
C1181 C 0.94565 0.42216 0.8312 0.0
N1182 N 0.90634 0.38368 0.83454 0.0
C1183 C 0.91788 0.39263 0.80339 0.0
C1184 C 0.91089 0.38211 0.77381 0.0
C1185 C 0.89403 0.36525 0.78689 0.0
C1186 C 0.89154 0.36655 0.82381 0.0
N1187 N 0.89909 0.409 0.87659 0.0
C1188 C 0.88408 0.43571 0.8656 0.0
C1189 C 0.89288 0.43164 0.83668 0.0
C1190 C 0.90015 0.41841 0.84267 0.0
C1191 C 0.88229 0.42558 0.90001 0.0
C1192 C 0.88965 0.41227 0.90479 0.0
N1193 N 0.9263 0.37671 0.89298 0.0
C1194 C 0.94992 0.36716 0.87167 0.0
C1195 C 0.94591 0.35394 0.90291 0.0
C1196 C 0.93163 0.3523 0.92906 0.0
C1197 C 0.92197 0.3636 0.92345 0.0
C1198 C 0.9403 0.3784 0.86756 0.0
H1199 H 0.91105 0.36151 0.94409 0.0
H1200 H 0.94439 0.38829 0.84334 0.0
H1201 H 0.90696 0.41647 0.81937 0.0
H1202 H 0.88779 0.40505 0.93169 0.0
C1203 C 0.8889 0.37543 0.96612 0.0
C1204 C 0.87535 0.35093 0.84798 0.0
C1205 C 0.95088 0.43313 0.92359 0.0
C1206 C 0.93565 0.41055 0.80326 0.0
H1207 H 0.84261 0.32887 0.90126 0.0
H1208 H 0.85003 0.34207 0.96649 0.0
H1209 H 0.91064 0.39566 0.02557 0.0
H1210 H 0.94483 0.42715 0.00194 0.0
H1211 H 0.97973 0.4597 0.86689 0.0
H1212 H 0.97152 0.44751 0.80096 0.0
H1213 H 0.91758 0.38597 0.74625 0.0
H1214 H 0.88494 0.35324 0.77104 0.0
H1215 H 0.89485 0.43914 0.8095 0.0
H1216 H 0.87528 0.4279 0.92325 0.0
H1217 H 0.96031 0.36881 0.84986 0.0
H1218 H 0.92796 0.34253 0.95403 0.0
C1219 C 0.66574 0.52937 0.89318 0.0
C1220 C 0.67736 0.52372 0.91452 0.0
C1221 C 0.66695 0.5155 0.94752 0.0
C1222 C 0.64963 0.51656 0.94442 0.0
N1223 N 0.64844 0.52487 0.91152 0.0
Co1224 Co 0.62602 0.52922 0.89545 0.0
N1225 N 0.61557 0.52573 0.94692 0.0
C1226 C 0.62104 0.51828 0.97643 0.0
C1227 C 0.61148 0.51768 0.0085 0.0
C1228 C 0.59883 0.52477 0.99858 0.0
C1229 C 0.60126 0.52915 0.9608 0.0
N1230 N 0.60342 0.53334 0.87914 0.0
C1231 C 0.58956 0.53529 0.89881 0.0
C1232 C 0.57568 0.53666 0.87616 0.0
C1233 C 0.58075 0.53509 0.84137 0.0
C1234 C 0.59738 0.53286 0.84458 0.0
N1235 N 0.63676 0.53279 0.84423 0.0
C1236 C 0.62685 0.53198 0.81366 0.0
C1237 C 0.63833 0.53548 0.78223 0.0
C1238 C 0.65662 0.53867 0.79376 0.0
C1239 C 0.65521 0.53684 0.83171 0.0
N1240 N 0.60902 0.50085 0.89182 0.0
C1241 C 0.58186 0.46207 0.8779 0.0
C1242 C 0.60191 0.47137 0.86433 0.0
C1243 C 0.6153 0.49067 0.87198 0.0
C1244 C 0.57631 0.4722 0.90073 0.0
C1245 C 0.58989 0.49142 0.90688 0.0
N1246 N 0.64273 0.55758 0.89862 0.0
C1247 C 0.65511 0.59092 0.87182 0.0
C1248 C 0.66544 0.59843 0.90324 0.0
C1249 C 0.66436 0.58481 0.93207 0.0
C1250 C 0.65315 0.56456 0.92906 0.0
C1251 C 0.64377 0.57063 0.87026 0.0
H1252 H 0.65275 0.55457 0.9516 0.0
H1253 H 0.63578 0.56555 0.84594 0.0
H1254 H 0.63051 0.49758 0.86069 0.0
H1255 H 0.58445 0.49876 0.92286 0.0
C1256 C 0.63633 0.51356 0.97343 0.0
C1257 C 0.67122 0.5382 0.85521 0.0
C1258 C 0.58719 0.53293 0.939 0.0
C1259 C 0.60843 0.5316 0.81557 0.0
H1260 H 0.69186 0.52546 0.9071 0.0
H1261 H 0.6719 0.5103 0.97147 0.0
H1262 H 0.61345 0.51268 0.03582 0.0
H1263 H 0.58829 0.52571 0.01683 0.0
H1264 H 0.56277 0.5379 0.88409 0.0
H1265 H 0.57314 0.53543 0.81672 0.0
H1266 H 0.63424 0.53656 0.75425 0.0
H1267 H 0.66951 0.54206 0.77625 0.0
H1268 H 0.60709 0.46417 0.84682 0.0
H1269 H 0.56133 0.46554 0.91329 0.0
H1270 H 0.65576 0.60056 0.84824 0.0
H1271 H 0.67178 0.58962 0.9572 0.0
C1272 C 0.56735 0.86601 0.67926 0.0
C1273 C 0.56928 0.87345 0.64281 0.0
C1274 C 0.58912 0.88167 0.63205 0.0
C1275 C 0.59819 0.87871 0.66229 0.0
N1276 N 0.58524 0.86886 0.69129 0.0
Co1277 Co 0.59249 0.86222 0.74046 0.0
N1278 N 0.61909 0.86731 0.7213 0.0
C1279 C 0.62838 0.87741 0.68914 0.0
C1280 C 0.64645 0.87816 0.68302 0.0
C1281 C 0.6487 0.86797 0.71333 0.0
C1282 C 0.63185 0.86164 0.73641 0.0
N1283 N 0.59984 0.85588 0.78962 0.0
C1284 C 0.6143 0.85138 0.79905 0.0
C1285 C 0.61455 0.84827 0.83683 0.0
C1286 C 0.59965 0.85088 0.85141 0.0
C1287 C 0.59122 0.85548 0.82187 0.0
N1288 N 0.56587 0.85697 0.7599 0.0
C1289 C 0.56061 0.85583 0.79544 0.0
C1290 C 0.54146 0.85254 0.80097 0.0
C1291 C 0.53425 0.85186 0.76676 0.0
C1292 C 0.5495 0.85482 0.7421 0.0
N1293 N 0.58105 0.83463 0.73081 0.0
C1294 C 0.56901 0.79554 0.71861 0.0
C1295 C 0.56366 0.79997 0.75166 0.0
C1296 C 0.5698 0.81958 0.75718 0.0
C1297 C 0.57973 0.8111 0.69136 0.0
C1298 C 0.58556 0.83038 0.69796 0.0
N1299 N 0.60434 0.88998 0.74966 0.0
C1300 C 0.60382 0.92064 0.74305 0.0
C1301 C 0.62357 0.93088 0.75423 0.0
C1302 C 0.63305 0.91985 0.76468 0.0
C1303 C 0.62314 0.89952 0.76261 0.0
C1304 C 0.59458 0.90035 0.74076 0.0
H1305 H 0.63103 0.89164 0.77043 0.0
H1306 H 0.57969 0.8932 0.73091 0.0
H1307 H 0.56593 0.82263 0.78314 0.0
H1308 H 0.59423 0.84191 0.67665 0.0
C1309 C 0.61814 0.8828 0.66316 0.0
C1310 C 0.5488 0.85836 0.70228 0.0
C1311 C 0.62886 0.8513 0.77321 0.0
C1312 C 0.57324 0.85593 0.82295 0.0
H1313 H 0.55764 0.87335 0.62599 0.0
H1314 H 0.59602 0.88863 0.60519 0.0
H1315 H 0.6564 0.88458 0.65876 0.0
H1316 H 0.66127 0.86547 0.71782 0.0
H1317 H 0.62449 0.84457 0.85227 0.0
H1318 H 0.59501 0.84886 0.88004 0.0
H1319 H 0.5336 0.8507 0.82679 0.0
H1320 H 0.51966 0.85006 0.76067 0.0
H1321 H 0.55538 0.78849 0.77357 0.0
H1322 H 0.5838 0.80846 0.66502 0.0
H1323 H 0.59548 0.92818 0.73571 0.0
H1324 H 0.6483 0.92684 0.77328 0.0
C1325 C 0.19987 0.76016 0.75071 0.0
C1326 C 0.21059 0.75674 0.77808 0.0
C1327 C 0.19709 0.74022 0.79971 0.0
C1328 C 0.1789 0.73455 0.7846 0.0
N1329 N 0.18012 0.7465 0.7549 0.0
Co1330 Co 0.15733 0.74429 0.72586 0.0
N1331 N 0.13723 0.72679 0.76561 0.0
C1332 C 0.14071 0.7172 0.79452 0.0
C1333 C 0.1242 0.7064 0.81801 0.0
C1334 C 0.1093 0.70905 0.80262 0.0
C1335 C 0.11747 0.72115 0.77013 0.0
N1336 N 0.1347 0.74233 0.69651 0.0
C1337 C 0.11506 0.73515 0.70642 0.0
C1338 C 0.10435 0.73559 0.6761 0.0
C1339 C 0.11764 0.74305 0.6464 0.0
C1340 C 0.13566 0.74672 0.65997 0.0
N1341 N 0.17737 0.76149 0.68604 0.0
C1342 C 0.17369 0.76329 0.65052 0.0
C1343 C 0.19057 0.77607 0.62915 0.0
C1344 C 0.20585 0.78272 0.65275 0.0
C1345 C 0.19734 0.77364 0.68734 0.0
N1346 N 0.1552 0.72094 0.70574 0.0
C1347 C 0.15177 0.68568 0.68522 0.0
C1348 C 0.13474 0.68738 0.69263 0.0
C1349 C 0.13676 0.70494 0.70297 0.0
C1350 C 0.17063 0.70247 0.68655 0.0
C1351 C 0.172 0.71994 0.69663 0.0
N1352 N 0.15952 0.76744 0.7466 0.0
C1353 C 0.16352 0.80009 0.73955 0.0
C1354 C 0.16483 0.80108 0.77749 0.0
C1355 C 0.16323 0.78481 0.7995 0.0
C1356 C 0.16073 0.7683 0.7836 0.0
C1357 C 0.16065 0.78304 0.72469 0.0
H1358 H 0.16012 0.75635 0.80141 0.0
H1359 H 0.15959 0.78257 0.69547 0.0
H1360 H 0.12327 0.70529 0.70961 0.0
H1361 H 0.18671 0.73247 0.69807 0.0
C1362 C 0.16019 0.72088 0.8013 0.0
C1363 C 0.20878 0.77589 0.72026 0.0
C1364 C 0.10551 0.72513 0.74265 0.0
C1365 C 0.154 0.75575 0.63982 0.0
H1366 H 0.22643 0.76534 0.7823 0.0
H1367 H 0.20004 0.73378 0.82461 0.0
H1368 H 0.12323 0.69803 0.84375 0.0
H1369 H 0.09405 0.70249 0.81377 0.0
H1370 H 0.08844 0.73035 0.67503 0.0
H1371 H 0.1145 0.7455 0.61828 0.0
H1372 H 0.19155 0.78068 0.6002 0.0
H1373 H 0.22145 0.79304 0.64533 0.0
H1374 H 0.1198 0.67513 0.6909 0.0
H1375 H 0.18428 0.70202 0.68107 0.0
H1376 H 0.16456 0.8123 0.72154 0.0
H1377 H 0.16442 0.78501 0.82886 0.0
C1378 C 0.31296 0.43827 0.67108 0.0
C1379 C 0.31849 0.43794 0.63522 0.0
C1380 C 0.30711 0.41898 0.62675 0.0
C1381 C 0.29524 0.40878 0.6577 0.0
N1382 N 0.29823 0.42024 0.68492 0.0
Co1383 Co 0.2848 0.411 0.73456 0.0
N1384 N 0.26327 0.3863 0.71799 0.0
C1385 C 0.26401 0.37833 0.6875 0.0
C1386 C 0.24648 0.36136 0.68307 0.0
C1387 C 0.23402 0.35858 0.71266 0.0
C1388 C 0.2447 0.37406 0.73349 0.0
N1389 N 0.27148 0.40159 0.78412 0.0
C1390 C 0.25228 0.38804 0.79407 0.0
C1391 C 0.24889 0.38595 0.83175 0.0
C1392 C 0.26669 0.39878 0.84565 0.0
C1393 C 0.2799 0.40792 0.8158 0.0
N1394 N 0.30616 0.43571 0.75155 0.0
C1395 C 0.31069 0.4388 0.78666 0.0
C1396 C 0.32647 0.45713 0.79033 0.0
C1397 C 0.33244 0.46604 0.75534 0.0
C1398 C 0.31995 0.45257 0.73211 0.0
N1399 N 0.26843 0.42353 0.72289 0.0
C1400 C 0.24025 0.43617 0.70912 0.0
C1401 C 0.25053 0.43973 0.74166 0.0
C1402 C 0.2646 0.43334 0.74796 0.0
C1403 C 0.24525 0.42708 0.68296 0.0
C1404 C 0.2593 0.42093 0.69032 0.0
N1405 N 0.30099 0.39812 0.7458 0.0
C1406 C 0.33228 0.39791 0.73959 0.0
C1407 C 0.32308 0.37806 0.75354 0.0
C1408 C 0.30273 0.36874 0.76501 0.0
C1409 C 0.29204 0.37903 0.76119 0.0
C1410 C 0.32103 0.40762 0.73592 0.0
H1411 H 0.27636 0.37134 0.7698 0.0
H1412 H 0.32849 0.42267 0.72399 0.0
H1413 H 0.27185 0.43573 0.77363 0.0
H1414 H 0.26222 0.41342 0.67001 0.0
C1415 C 0.27954 0.38924 0.66075 0.0
C1416 C 0.32349 0.45534 0.6921 0.0
C1417 C 0.23736 0.37645 0.76858 0.0
C1418 C 0.29843 0.42509 0.81543 0.0
H1419 H 0.32987 0.45005 0.61734 0.0
H1420 H 0.30725 0.4134 0.60089 0.0
H1421 H 0.24279 0.35262 0.66015 0.0
H1422 H 0.21882 0.34666 0.71812 0.0
H1423 H 0.23499 0.37633 0.84746 0.0
H1424 H 0.26934 0.40186 0.87388 0.0
H1425 H 0.33273 0.46339 0.81543 0.0
H1426 H 0.34498 0.48058 0.74779 0.0
H1427 H 0.24723 0.44674 0.76269 0.0
H1428 H 0.23816 0.42446 0.657 0.0
H1429 H 0.34792 0.40576 0.73021 0.0
H1430 H 0.29504 0.35353 0.77663 0.0
C1431 C 0.54894 0.90468 0.14536 0.0
C1432 C 0.55459 0.90337 0.18101 0.0
C1433 C 0.56133 0.92147 0.19323 0.0
C1434 C 0.55955 0.93287 0.16452 0.0
N1435 N 0.55183 0.923 0.13511 0.0
Co1436 Co 0.54863 0.93481 0.08712 0.0
N1437 N 0.5508 0.95808 0.10878 0.0
C1438 C 0.55821 0.964 0.1413 0.0
C1439 C 0.55716 0.98028 0.14936 0.0
C1440 C 0.54861 0.98489 0.11996 0.0
C1441 C 0.54501 0.97117 0.09547 0.0
N1442 N 0.54605 0.94687 0.03908 0.0
C1443 C 0.5412 0.9612 0.03145 0.0
C1444 C 0.54138 0.96556 0.99391 0.0
C1445 C 0.54634 0.95333 0.97763 0.0
C1446 C 0.549 0.94231 0.00601 0.0
N1447 N 0.54603 0.91143 0.06521 0.0
C1448 C 0.54752 0.90995 0.02919 0.0
C1449 C 0.54397 0.8917 0.02186 0.0
C1450 C 0.54037 0.88111 0.05534 0.0
C1451 C 0.54232 0.89365 0.08147 0.0
N1452 N 0.51948 0.92159 0.0967 0.0
C1453 C 0.47828 0.90702 0.1097 0.0
C1454 C 0.48601 0.90733 0.07491 0.0
C1455 C 0.50662 0.91435 0.06914 0.0
C1456 C 0.49145 0.91357 0.138 0.0
C1457 C 0.51194 0.92098 0.13088 0.0
N1458 N 0.57791 0.94839 0.07808 0.0
C1459 C 0.60939 0.94845 0.08221 0.0
C1460 C 0.62023 0.969 0.07414 0.0
C1461 C 0.60914 0.97875 0.06643 0.0
C1462 C 0.58818 0.9682 0.06792 0.0
C1463 C 0.58841 0.93853 0.0844 0.0
H1464 H 0.58027 0.97626 0.06198 0.0
H1465 H 0.58073 0.9229 0.09205 0.0
H1466 H 0.51221 0.9144 0.04216 0.0
H1467 H 0.52172 0.92678 0.15293 0.0
C1468 C 0.56264 0.952 0.16563 0.0
C1469 C 0.54307 0.88898 0.12102 0.0
C1470 C 0.53721 0.97145 0.05899 0.0
C1471 C 0.54983 0.92508 0.00301 0.0
H1472 H 0.55437 0.89083 0.19638 0.0
H1473 H 0.56663 0.9257 0.22004 0.0
H1474 H 0.56128 0.98744 0.17429 0.0
H1475 H 0.5454 0.99692 0.11699 0.0
H1476 H 0.5381 0.97632 0.97979 0.0
H1477 H 0.54686 0.95192 0.94866 0.0
H1478 H 0.54358 0.88656 0.99532 0.0
H1479 H 0.53715 0.866 0.05991 0.0
H1480 H 0.47621 0.90222 0.05241 0.0
H1481 H 0.48602 0.91363 0.16522 0.0
H1482 H 0.61693 0.93992 0.08722 0.0
H1483 H 0.61642 0.99454 0.06033 0.0
C1484 C 0.11535 0.59085 0.08522 0.0
C1485 C 0.13006 0.59506 0.05839 0.0
C1486 C 0.13355 0.61217 0.03835 0.0
C1487 C 0.12071 0.61738 0.05376 0.0
N1488 N 0.10932 0.60457 0.08212 0.0
Co1489 Co 0.08819 0.60604 0.11101 0.0
N1490 N 0.08651 0.62474 0.07271 0.0
C1491 C 0.10036 0.63534 0.04531 0.0
C1492 C 0.09565 0.64752 0.02351 0.0
C1493 C 0.07789 0.64466 0.03842 0.0
C1494 C 0.07276 0.63089 0.06874 0.0
N1495 N 0.06701 0.60733 0.14017 0.0
C1496 C 0.05463 0.61458 0.13033 0.0
C1497 C 0.04248 0.61294 0.16009 0.0
C1498 C 0.04769 0.60472 0.18955 0.0
C1499 C 0.06264 0.60177 0.1763 0.0
N1500 N 0.09002 0.58758 0.14939 0.0
C1501 C 0.08365 0.58466 0.18471 0.0
C1502 C 0.08724 0.57124 0.20509 0.0
C1503 C 0.09647 0.56537 0.18107 0.0
C1504 C 0.0979 0.57552 0.1472 0.0
N1505 N 0.10901 0.62846 0.13384 0.0
C1506 C 0.14119 0.66314 0.15507 0.0
C1507 C 0.12257 0.66184 0.14831 0.0
C1508 C 0.10681 0.64452 0.13769 0.0
C1509 C 0.14285 0.64616 0.15337 0.0
C1510 C 0.12657 0.62897 0.14298 0.0
N1511 N 0.06772 0.58385 0.08754 0.0
C1512 C 0.03851 0.55167 0.09098 0.0
C1513 C 0.04077 0.551 0.0533 0.0
C1514 C 0.05639 0.56736 0.03309 0.0
C1515 C 0.06953 0.5836 0.05058 0.0
C1516 C 0.05222 0.5682 0.10762 0.0
H1517 H 0.08144 0.59583 0.03414 0.0
H1518 H 0.05054 0.56819 0.13678 0.0
H1519 H 0.09307 0.64445 0.13132 0.0
H1520 H 0.1285 0.61634 0.14093 0.0
C1521 C 0.11621 0.63171 0.03845 0.0
C1522 C 0.10805 0.57437 0.11432 0.0
C1523 C 0.05589 0.62561 0.09495 0.0
C1524 C 0.07134 0.59195 0.19588 0.0
H1525 H 0.13743 0.58664 0.05352 0.0
H1526 H 0.14352 0.61936 0.01429 0.0
H1527 H 0.10393 0.65708 -0.00072 0.0
H1528 H 0.06984 0.65215 0.02855 0.0
H1529 H 0.03144 0.61776 0.16076 0.0
H1530 H 0.04119 0.60114 0.21723 0.0
H1531 H 0.08294 0.56577 0.23362 0.0
H1532 H 0.10162 0.55489 0.18778 0.0
H1533 H 0.12023 0.67428 0.15044 0.0
H1534 H 0.15685 0.64631 0.15847 0.0
H1535 H 0.02661 0.53931 0.10762 0.0
H1536 H 0.05847 0.56762 0.00382 0.0
C1537 C 0.37952 0.48517 0.15053 0.0
C1538 C 0.37776 0.48456 0.18827 0.0
C1539 C 0.39566 0.48741 0.2013 0.0
C1540 C 0.40728 0.48957 0.17087 0.0
N1541 N 0.39784 0.4882 0.1395 0.0
Co1542 Co 0.40927 0.49056 0.08931 0.0
N1543 N 0.43179 0.48702 0.10866 0.0
C1544 C 0.43732 0.48831 0.14361 0.0
C1545 C 0.45397 0.48629 0.149 0.0
C1546 C 0.45961 0.48401 0.11524 0.0
C1547 C 0.44604 0.48477 0.09099 0.0
N1548 N 0.42044 0.49275 0.03892 0.0
C1549 C 0.43516 0.48928 0.02733 0.0
C1550 C 0.43798 0.49248 0.98945 0.0
C1551 C 0.4251 0.49881 0.97697 0.0
C1552 C 0.41505 0.49897 0.00774 0.0
N1553 N 0.38701 0.49448 0.07009 0.0
C1554 C 0.38605 0.50151 0.03577 0.0
C1555 C 0.36891 0.50265 0.03043 0.0
C1556 C 0.35836 0.49596 0.06346 0.0
C1557 C 0.36975 0.49111 0.08715 0.0
N1558 N 0.42605 0.51916 0.09079 0.0
C1559 C 0.45246 0.55831 0.10344 0.0
C1560 C 0.45899 0.54765 0.08426 0.0
C1561 C 0.44565 0.52829 0.07825 0.0
C1562 C 0.432 0.54938 0.11391 0.0
C1563 C 0.41903 0.52982 0.1072 0.0
N1564 N 0.39269 0.46193 0.08848 0.0
C1565 C 0.36962 0.4336 0.0588 0.0
C1566 C 0.36957 0.42071 0.0881 0.0
C1567 C 0.38142 0.42915 0.11753 0.0
C1568 C 0.3926 0.44958 0.11732 0.0
C1569 C 0.3813 0.45405 0.05945 0.0
H1570 H 0.40128 0.45532 0.14065 0.0
H1571 H 0.38107 0.46345 0.03643 0.0
H1572 H 0.45157 0.52057 0.06465 0.0
H1573 H 0.40352 0.52314 0.11656 0.0
C1574 C 0.42575 0.49003 0.171 0.0
C1575 C 0.36408 0.48419 0.12591 0.0
C1576 C 0.44909 0.48635 0.05107 0.0
C1577 C 0.39959 0.50352 0.00811 0.0
H1578 H 0.36494 0.48243 0.2046 0.0
H1579 H 0.39949 0.48727 0.22964 0.0
H1580 H 0.4612 0.48654 0.17441 0.0
H1581 H 0.4727 0.48272 0.10895 0.0
H1582 H 0.44888 0.49122 0.97275 0.0
H1583 H 0.42332 0.50286 0.94883 0.0
H1584 H 0.36421 0.507 0.00514 0.0
H1585 H 0.34391 0.49471 0.06938 0.0
H1586 H 0.4745 0.55405 0.0746 0.0
H1587 H 0.42619 0.5571 0.12856 0.0
H1588 H 0.36057 0.42804 0.03557 0.0
H1589 H 0.3824 0.4201 0.14059 0.0
C1590 C 0.13986 0.48467 0.60489 0.0
C1591 C 0.15702 0.49032 0.58315 0.0
C1592 C 0.15494 0.49909 0.55071 0.0
C1593 C 0.13673 0.49834 0.55451 0.0
N1594 N 0.12723 0.48967 0.58728 0.0
Co1595 Co 0.10067 0.48548 0.6042 0.0
N1596 N 0.09362 0.48953 0.55324 0.0
C1597 C 0.10657 0.49766 0.52378 0.0
C1598 C 0.09756 0.49871 0.49206 0.0
C1599 C 0.07775 0.49112 0.50221 0.0
C1600 C 0.07579 0.48594 0.53979 0.0
N1601 N 0.07405 0.48127 0.62132 0.0
C1602 C 0.05792 0.47869 0.60215 0.0
C1603 C 0.04268 0.47708 0.62518 0.0
C1604 C 0.04966 0.47912 0.65974 0.0
C1605 C 0.0687 0.48182 0.65599 0.0
N1606 N 0.10801 0.48165 0.655 0.0
C1607 C 0.09923 0.48264 0.68588 0.0
C1608 C 0.10736 0.47901 0.71695 0.0
C1609 C 0.1222 0.47556 0.70481 0.0
C1610 C 0.12233 0.47737 0.66688 0.0
N1611 N 0.11227 0.51379 0.60855 0.0
C1612 C 0.12536 0.55267 0.62321 0.0
C1613 C 0.13679 0.54353 0.63269 0.0
C1614 C 0.12993 0.52403 0.62522 0.0
C1615 C 0.10796 0.54235 0.60443 0.0
C1616 C 0.10181 0.52313 0.59714 0.0
N1617 N 0.08884 0.45719 0.60026 0.0
C1618 C 0.06799 0.42376 0.62666 0.0
C1619 C 0.07046 0.41642 0.59469 0.0
C1620 C 0.08277 0.43016 0.56577 0.0
C1621 C 0.09192 0.45038 0.56923 0.0
C1622 C 0.07705 0.44402 0.62871 0.0
H1623 H 0.10132 0.4605 0.5466 0.0
H1624 H 0.07441 0.44899 0.65346 0.0
H1625 H 0.13857 0.51705 0.63404 0.0
H1626 H 0.08815 0.51566 0.58333 0.0
C1627 C 0.12655 0.50211 0.5262 0.0
C1628 C 0.13657 0.47568 0.64275 0.0
C1629 C 0.05754 0.4806 0.56201 0.0
C1630 C 0.08123 0.48314 0.68463 0.0
H1631 H 0.16968 0.4883 0.59002 0.0
H1632 H 0.16508 0.50453 0.52669 0.0
H1633 H 0.10451 0.50415 0.46476 0.0
H1634 H 0.06617 0.49015 0.48423 0.0
H1635 H 0.02827 0.47531 0.61757 0.0
H1636 H 0.04175 0.47861 0.68461 0.0
H1637 H 0.10242 0.47798 0.74509 0.0
H1638 H 0.13168 0.47197 0.72193 0.0
H1639 H 0.1504 0.55105 0.64716 0.0
H1640 H 0.09887 0.54898 0.59601 0.0
H1641 H 0.05916 0.414 0.65029 0.0
H1642 H 0.08511 0.42546 0.54027 0.0
C1643 C 0.52649 0.65712 0.61731 0.0
C1644 C 0.52277 0.67023 0.59531 0.0
C1645 C 0.51981 0.66399 0.56122 0.0
C1646 C 0.52179 0.64747 0.56438 0.0
N1647 N 0.52551 0.64254 0.59856 0.0
Co1648 Co 0.52985 0.61984 0.61498 0.0
N1649 N 0.52789 0.61209 0.56386 0.0
C1650 C 0.52536 0.62145 0.53328 0.0
C1651 C 0.52475 0.61287 0.50206 0.0
C1652 C 0.52665 0.59684 0.5134 0.0
C1653 C 0.52809 0.59646 0.55114 0.0
N1654 N 0.53396 0.59695 0.63139 0.0
C1655 C 0.53276 0.58226 0.61253 0.0
C1656 C 0.53503 0.56838 0.63516 0.0
C1657 C 0.53769 0.57444 0.66942 0.0
C1658 C 0.53677 0.59153 0.66597 0.0
N1659 N 0.53206 0.62786 0.66607 0.0
C1660 C 0.5351 0.61883 0.6966 0.0
C1661 C 0.53719 0.62834 0.72722 0.0
C1662 C 0.53576 0.64463 0.7155 0.0
C1663 C 0.53281 0.64407 0.67827 0.0
N1664 N 0.50036 0.60219 0.62375 0.0
C1665 C 0.45988 0.57214 0.63265 0.0
C1666 C 0.47303 0.57518 0.6607 0.0
C1667 C 0.49289 0.5902 0.65588 0.0
C1668 C 0.46693 0.58533 0.60092 0.0
C1669 C 0.48712 0.60019 0.59708 0.0
N1670 N 0.55935 0.63724 0.60633 0.0
C1671 C 0.59289 0.64963 0.62784 0.0
C1672 C 0.60118 0.66234 0.59592 0.0
C1673 C 0.58824 0.66221 0.56901 0.0
C1674 C 0.56748 0.64981 0.57493 0.0
C1675 C 0.57221 0.63719 0.63224 0.0
H1676 H 0.55828 0.65069 0.55386 0.0
H1677 H 0.56704 0.62767 0.65692 0.0
H1678 H 0.50201 0.59138 0.67826 0.0
H1679 H 0.49182 0.60951 0.5719 0.0
C1680 C 0.52222 0.63746 0.53515 0.0
C1681 C 0.53192 0.65979 0.65526 0.0
C1682 C 0.5285 0.58037 0.57378 0.0
C1683 C 0.53716 0.6021 0.69504 0.0
H1684 H 0.52277 0.68327 0.60292 0.0
H1685 H 0.5173 0.67109 0.53674 0.0
H1686 H 0.52261 0.61742 0.4745 0.0
H1687 H 0.52647 0.58633 0.49594 0.0
H1688 H 0.53431 0.55497 0.62798 0.0
H1689 H 0.53941 0.56691 0.69418 0.0
H1690 H 0.54007 0.62427 0.75458 0.0
H1691 H 0.53725 0.65591 0.73225 0.0
H1692 H 0.46811 0.56571 0.68625 0.0
H1693 H 0.45718 0.5837 0.57859 0.0
H1694 H 0.6024 0.64904 0.6492 0.0
H1695 H 0.59407 0.67188 0.54382 0.0
C1696 C 0.35493 0.87521 0.61041 0.0
C1697 C 0.34264 0.85915 0.5919 0.0
C1698 C 0.35228 0.86185 0.55871 0.0
C1699 C 0.3698 0.87935 0.55876 0.0
N1700 N 0.37184 0.88783 0.58993 0.0
Co1701 Co 0.39459 0.91338 0.60112 0.0
N1702 N 0.40371 0.92146 0.54848 0.0
C1703 C 0.39742 0.90962 0.5213 0.0
C1704 C 0.40602 0.9192 0.4876 0.0
C1705 C 0.41889 0.93819 0.49392 0.0
C1706 C 0.41757 0.9391 0.53137 0.0
N1707 N 0.4176 0.93885 0.61258 0.0
C1708 C 0.43093 0.95473 0.59005 0.0
C1709 C 0.44544 0.96876 0.61 0.0
C1710 C 0.44133 0.96124 0.64599 0.0
C1711 C 0.4246 0.94311 0.64616 0.0
N1712 N 0.38514 0.90522 0.65348 0.0
C1713 C 0.39585 0.913 0.68248 0.0
C1714 C 0.38514 0.90448 0.71528 0.0
C1715 C 0.36652 0.89045 0.70629 0.0
C1716 C 0.36695 0.89126 0.66842 0.0
N1717 N 0.41181 0.90123 0.6073 0.0
C1718 C 0.43926 0.88796 0.62455 0.0
C1719 C 0.4193 0.87725 0.63858 0.0
C1720 C 0.40579 0.8841 0.62947 0.0
C1721 C 0.44463 0.90456 0.59975 0.0
C1722 C 0.43083 0.9109 0.59165 0.0
N1723 N 0.37759 0.9257 0.59553 0.0
C1724 C 0.36587 0.94653 0.61804 0.0
C1725 C 0.35305 0.94324 0.58907 0.0
C1726 C 0.35288 0.93093 0.56331 0.0
C1727 C 0.36522 0.92235 0.56702 0.0
C1728 C 0.3779 0.93766 0.62078 0.0
H1729 H 0.36466 0.91292 0.54689 0.0
H1730 H 0.38746 0.94052 0.6435 0.0
H1731 H 0.3907 0.87593 0.64147 0.0
H1732 H 0.43597 0.92414 0.57372 0.0
C1733 C 0.38228 0.89006 0.52793 0.0
C1734 C 0.35035 0.87785 0.64755 0.0
C1735 C 0.43227 0.95581 0.54985 0.0
C1736 C 0.41428 0.93034 0.67739 0.0
H1737 H 0.3281 0.84693 0.60109 0.0
H1738 H 0.34661 0.85272 0.53642 0.0
H1739 H 0.40326 0.91311 0.46153 0.0
H1740 H 0.42885 0.94985 0.47357 0.0
H1741 H 0.45816 0.98265 0.59953 0.0
H1742 H 0.44962 0.96815 0.66922 0.0
H1743 H 0.38998 0.90854 0.74238 0.0
H1744 H 0.35407 0.88076 0.72532 0.0
H1745 H 0.41437 0.86421 0.65764 0.0
H1746 H 0.45964 0.91302 0.58721 0.0
H1747 H 0.3669 0.95615 0.63834 0.0
H1748 H 0.3431 0.9277 0.54064 0.0
C1749 C 0.15703 0.47599 0.21807 0.0
C1750 C 0.16095 0.49209 0.23662 0.0
C1751 C 0.1674 0.48908 0.27009 0.0
C1752 C 0.167 0.47137 0.27016 0.0
N1753 N 0.1608 0.46307 0.23876 0.0
Co1754 Co 0.15743 0.43727 0.22767 0.0
N1755 N 0.15762 0.42888 0.28045 0.0
C1756 C 0.1627 0.44051 0.30792 0.0
C1757 C 0.16057 0.43058 0.34174 0.0
C1758 C 0.1542 0.41156 0.33521 0.0
C1759 C 0.15307 0.41101 0.29754 0.0
N1760 N 0.15446 0.41156 0.21634 0.0
C1761 C 0.15176 0.39563 0.23894 0.0
C1762 C 0.15225 0.38158 0.21903 0.0
C1763 C 0.15578 0.3891 0.18304 0.0
C1764 C 0.1573 0.40728 0.18281 0.0
N1765 N 0.15684 0.44575 0.17519 0.0
C1766 C 0.1597 0.43784 0.14631 0.0
C1767 C 0.15788 0.44653 0.11341 0.0
C1768 C 0.15358 0.4608 0.12224 0.0
C1769 C 0.15299 0.45994 0.1601 0.0
N1770 N 0.18679 0.44873 0.22239 0.0
C1771 C 0.22707 0.46009 0.20505 0.0
C1772 C 0.21858 0.47143 0.19058 0.0
C1773 C 0.19842 0.46554 0.19974 0.0
C1774 C 0.21539 0.44395 0.23046 0.0
C1775 C 0.19551 0.4386 0.23867 0.0
N1776 N 0.12813 0.4256 0.23223 0.0
C1777 C 0.09575 0.40522 0.20882 0.0
C1778 C 0.0861 0.40858 0.23753 0.0
C1779 C 0.09808 0.42075 0.26355 0.0
C1780 C 0.119 0.42911 0.26039 0.0
C1781 C 0.11662 0.41382 0.20668 0.0
H1782 H 0.12775 0.43843 0.28071 0.0
H1783 H 0.1234 0.41085 0.1842 0.0
H1784 H 0.19204 0.47411 0.1873 0.0
H1785 H 0.18706 0.42566 0.25701 0.0
C1786 C 0.16781 0.46026 0.3013 0.0
C1787 C 0.14991 0.47346 0.18089 0.0
C1788 C 0.15203 0.39461 0.2792 0.0
C1789 C 0.16025 0.42022 0.15156 0.0
H1790 H 0.15894 0.50449 0.22736 0.0
H1791 H 0.1707 0.4981 0.29252 0.0
H1792 H 0.16336 0.43646 0.368 0.0
H1793 H 0.15182 0.39967 0.3556 0.0
H1794 H 0.15103 0.36767 0.22942 0.0
H1795 H 0.15729 0.38221 0.15987 0.0
H1796 H 0.15865 0.44241 0.08635 0.0
H1797 H 0.15111 0.47065 0.10312 0.0
H1798 H 0.22711 0.48421 0.17111 0.0
H1799 H 0.22139 0.43506 0.24334 0.0
H1800 H 0.08726 0.39571 0.18833 0.0
H1801 H 0.09141 0.42401 0.28604 0.0
C1802 C 0.54933 0.69063 0.22105 0.0
C1803 C 0.53191 0.67724 0.24138 0.0
C1804 C 0.53278 0.68454 0.27424 0.0
C1805 C 0.5506 0.70189 0.27211 0.0
N1806 N 0.56102 0.70598 0.24001 0.0
Co1807 Co 0.58737 0.72958 0.22551 0.0
N1808 N 0.59275 0.73543 0.27732 0.0
C1809 C 0.5791 0.72754 0.30576 0.0
C1810 C 0.58681 0.73452 0.33827 0.0
C1811 C 0.60649 0.74795 0.32984 0.0
C1812 C 0.60974 0.74845 0.29239 0.0
N1813 N 0.61355 0.75343 0.21076 0.0
C1814 C 0.62867 0.76512 0.23137 0.0
C1815 C 0.64416 0.78048 0.20953 0.0
C1816 C 0.63822 0.77873 0.17429 0.0
C1817 C 0.61959 0.76237 0.17642 0.0
N1818 N 0.58193 0.72339 0.17392 0.0
C1819 C 0.59121 0.73576 0.14373 0.0
C1820 C 0.58428 0.72724 0.1119 0.0
C1821 C 0.56967 0.70832 0.12277 0.0
C1822 C 0.56853 0.7064 0.16073 0.0
N1823 N 0.57434 0.74594 0.2201 0.0
C1824 C 0.55988 0.77233 0.20341 0.0
C1825 C 0.551 0.75399 0.18955 0.0
C1826 C 0.55817 0.74084 0.19884 0.0
C1827 C 0.5754 0.77676 0.22724 0.0
C1828 C 0.5825 0.76351 0.23493 0.0
N1829 N 0.60066 0.71349 0.23031 0.0
C1830 C 0.62508 0.70566 0.20695 0.0
C1831 C 0.62054 0.69125 0.23633 0.0
C1832 C 0.60557 0.688 0.26248 0.0
C1833 C 0.59595 0.69939 0.25916 0.0
C1834 C 0.61491 0.71641 0.20428 0.0
H1835 H 0.58478 0.69684 0.28 0.0
H1836 H 0.61868 0.72713 0.18098 0.0
H1837 H 0.55108 0.72686 0.18768 0.0
H1838 H 0.59515 0.76799 0.25175 0.0
C1839 C 0.55961 0.7126 0.30149 0.0
C1840 C 0.55384 0.68874 0.1834 0.0
C1841 C 0.6279 0.7638 0.27161 0.0
C1842 C 0.60835 0.75386 0.14656 0.0
H1843 H 0.51989 0.6636 0.23337 0.0
H1844 H 0.52215 0.67757 0.29749 0.0
H1845 H 0.57904 0.73039 0.36494 0.0
H1846 H 0.61697 0.75693 0.34895 0.0
H1847 H 0.65803 0.79212 0.21834 0.0
H1848 H 0.6466 0.78815 0.14999 0.0
H1849 H 0.58973 0.73374 0.08415 0.0
H1850 H 0.56085 0.69723 0.1049 0.0
H1851 H 0.53884 0.74999 0.1712 0.0
H1852 H 0.58272 0.79084 0.23836 0.0
H1853 H 0.63632 0.70849 0.18581 0.0
H1854 H 0.60162 0.67704 0.28572 0.0
C1855 C 0.33299 0.86369 0.23036 0.0
C1856 C 0.345 0.85956 0.25376 0.0
C1857 C 0.33426 0.8515 0.2864 0.0
C1858 C 0.31646 0.85139 0.28142 0.0
N1859 N 0.31529 0.85894 0.24768 0.0
Co1860 Co 0.29269 0.86272 0.23 0.0
N1861 N 0.28119 0.85882 0.2808 0.0
C1862 C 0.28656 0.8518 0.31102 0.0
C1863 C 0.27625 0.85079 0.3424 0.0
C1864 C 0.26321 0.85719 0.3313 0.0
C1865 C 0.26622 0.8616 0.29357 0.0
N1866 N 0.26998 0.86636 0.21208 0.0
C1867 C 0.25563 0.86803 0.23073 0.0
C1868 C 0.24203 0.86925 0.20711 0.0
C1869 C 0.24778 0.86787 0.17272 0.0
C1870 C 0.2645 0.86589 0.17715 0.0
N1871 N 0.30432 0.86666 0.17939 0.0
C1872 C 0.29475 0.86567 0.14827 0.0
C1873 C 0.30643 0.86873 0.11738 0.0
C1874 C 0.3245 0.87179 0.1298 0.0
C1875 C 0.32283 0.87049 0.16771 0.0
N1876 N 0.27644 0.83433 0.22593 0.0
C1877 C 0.25103 0.79546 0.21107 0.0
C1878 C 0.2716 0.80475 0.20158 0.0
C1879 C 0.28407 0.82426 0.20921 0.0
C1880 C 0.24377 0.80554 0.2301 0.0
C1881 C 0.25666 0.82475 0.23747 0.0
N1882 N 0.30876 0.89112 0.23363 0.0
C1883 C 0.32015 0.92447 0.20778 0.0
C1884 C 0.33108 0.93193 0.23863 0.0
C1885 C 0.33063 0.91836 0.26685 0.0
C1886 C 0.31941 0.89812 0.26385 0.0
C1887 C 0.30923 0.90417 0.20579 0.0
H1888 H 0.31938 0.88816 0.28605 0.0
H1889 H 0.30104 0.89907 0.18165 0.0
H1890 H 0.29971 0.83138 0.20042 0.0
H1891 H 0.25026 0.832 0.25131 0.0
C1892 C 0.30252 0.84802 0.30941 0.0
C1893 C 0.33853 0.87139 0.19165 0.0
C1894 C 0.25239 0.86522 0.27077 0.0
C1895 C 0.27616 0.86492 0.14897 0.0
H1896 H 0.36007 0.8623 0.24822 0.0
H1897 H 0.33929 0.84728 0.31138 0.0
H1898 H 0.27805 0.84605 0.37005 0.0
H1899 H 0.25216 0.85778 0.34877 0.0
H1900 H 0.22884 0.87021 0.21415 0.0
H1901 H 0.24055 0.86816 0.14755 0.0
H1902 H 0.30251 0.86932 0.08916 0.0
H1903 H 0.33736 0.8745 0.1129 0.0
H1904 H 0.2778 0.79735 0.18696 0.0
H1905 H 0.22802 0.79877 0.23847 0.0
H1906 H 0.31967 0.93419 0.18542 0.0
H1907 H 0.33903 0.92328 0.29104 0.0
H1908 H 0.33948 0.21729 0.12455 0.0
H1909 H 0.35428 0.12907 0.21962 0.0
H1910 H 0.29359 0.15648 0.13123 0.0
H1911 H 0.40124 0.18947 0.20491 0.0
H1912 H 0.33143 0.13871 0.18884 0.0
H1913 H 0.36218 0.2074 0.15467 0.0
C1914 C 0.33436 0.20181 0.13186 0.0
C1915 C 0.31488 0.1876 0.12468 0.0
C1916 C 0.3467 0.14989 0.19242 0.0
C1917 C 0.34048 0.17616 0.16013 0.0
C1918 C 0.35966 0.14439 0.2101 0.0
C1919 C 0.37952 0.15856 0.21489 0.0
C1920 C 0.35372 0.16971 0.17944 0.0
C1921 C 0.38595 0.17818 0.20182 0.0
C1922 C 0.34723 0.19616 0.1493 0.0
C1923 C 0.30866 0.1678 0.13578 0.0
N1924 N 0.3731 0.18318 0.18471 0.0
N1925 N 0.32141 0.16264 0.15295 0.0
H1926 H 0.81288 0.15338 0.09949 0.0
H1927 H 0.8869 0.23484 0.22575 0.0
H1928 H 0.86261 0.15148 0.15082 0.0
H1929 H 0.82784 0.22561 0.20355 0.0
H1930 H 0.88009 0.20646 0.19271 0.0
H1931 H 0.82021 0.18249 0.13076 0.0
C1932 C 0.82544 0.15921 0.11702 0.0
C1933 C 0.83707 0.14994 0.12275 0.0
C1934 C 0.86857 0.21058 0.19519 0.0
C1935 C 0.84554 0.18313 0.15856 0.0
C1936 C 0.87244 0.22668 0.21415 0.0
C1937 C 0.85782 0.23236 0.21762 0.0
C1938 C 0.85007 0.20028 0.17905 0.0
C1939 C 0.83944 0.22157 0.20157 0.0
C1940 C 0.82953 0.1757 0.13507 0.0
C1941 C 0.85312 0.15804 0.14596 0.0
N1942 N 0.8361 0.2061 0.18284 0.0
N1943 N 0.85689 0.17414 0.16293 0.0
H1944 H 0.7982 0.65689 0.24085 0.0
H1945 H 0.8723 0.71766 0.07318 0.0
H1946 H 0.77669 0.63708 0.13699 0.0
H1947 H 0.88746 0.68488 0.15521 0.0
H1948 H 0.8369 0.69868 0.0971 0.0
H1949 H 0.83077 0.68047 0.21143 0.0
C1950 C 0.80069 0.65622 0.21224 0.0
C1951 C 0.78651 0.64106 0.19283 0.0
C1952 C 0.84812 0.69586 0.10983 0.0
C1953 C 0.82238 0.67089 0.15761 0.0
C1954 C 0.86818 0.70655 0.09623 0.0
C1955 C 0.88288 0.7032 0.11299 0.0
C1956 C 0.843 0.68212 0.14076 0.0
C1957 C 0.87675 0.6884 0.14231 0.0
C1958 C 0.81907 0.67039 0.19522 0.0
C1959 C 0.78876 0.64527 0.15428 0.0
N1960 N 0.8574 0.6787 0.15569 0.0
N1961 N 0.80673 0.65923 0.1378 0.0
H1962 H 0.22564 0.34727 0.37938 0.0
H1963 H 0.18835 0.40733 0.30918 0.0
H1964 H 0.16462 0.3001 0.3886 0.0
H1965 H 0.13351 0.35417 0.29491 0.0
H1966 H 0.20138 0.38814 0.34162 0.0
H1967 H 0.21461 0.36917 0.35009 0.0
C1968 C 0.20978 0.34176 0.37608 0.0
C1969 C 0.19594 0.3221 0.38721 0.0
C1970 C 0.1867 0.38038 0.33083 0.0
C1971 C 0.18281 0.34713 0.35383 0.0
C1972 C 0.17912 0.39148 0.31244 0.0
C1973 C 0.15987 0.38234 0.29887 0.0
C1974 C 0.17514 0.35975 0.33532 0.0
C1975 C 0.14851 0.36177 0.3046 0.0
C1976 C 0.20335 0.35429 0.35938 0.0
C1977 C 0.17564 0.31535 0.38103 0.0
N1978 N 0.15634 0.35115 0.3223 0.0
N1979 N 0.16967 0.32785 0.36476 0.0
H1980 H 0.62926 0.79924 0.26186 0.0
H1981 H 0.70376 0.84664 0.42169 0.0
H1982 H 0.65572 0.76894 0.32309 0.0
H1983 H 0.69063 0.8805 0.3383 0.0
H1984 H 0.68345 0.81699 0.3908 0.0
H1985 H 0.64928 0.82833 0.29374 0.0
C1986 C 0.6395 0.79885 0.28182 0.0
C1987 C 0.64109 0.78183 0.2896 0.0
C1988 C 0.685 0.83092 0.37936 0.0
C1989 C 0.66372 0.81488 0.3269 0.0
C1990 C 0.69641 0.84778 0.39713 0.0
C1991 C 0.69888 0.86605 0.3825 0.0
C1992 C 0.67578 0.83232 0.34701 0.0
C1993 C 0.68925 0.86675 0.35036 0.0
C1994 C 0.65085 0.8154 0.30012 0.0
C1995 C 0.65427 0.7819 0.31617 0.0
N1996 N 0.67811 0.85015 0.33378 0.0
N1997 N 0.66504 0.79817 0.33405 0.0
H1998 H 0.13183 0.79365 0.37013 0.0
H1999 H 0.23401 0.88696 0.28276 0.0
H2000 H 0.14071 0.85254 0.35342 0.0
H2001 H 0.22409 0.82765 0.29457 0.0
H2002 H 0.19997 0.87478 0.30932 0.0
H2003 H 0.16582 0.8058 0.34329 0.0
C2004 C 0.14098 0.80912 0.36076 0.0
C2005 C 0.13355 0.82212 0.3639 0.0
C2006 C 0.20523 0.86441 0.3061 0.0
C2007 C 0.1723 0.83619 0.33332 0.0
C2008 C 0.22462 0.87139 0.29097 0.0
C2009 C 0.23178 0.85828 0.28661 0.0
C2010 C 0.19297 0.84418 0.31695 0.0
C2011 C 0.21908 0.83822 0.29756 0.0
C2012 C 0.16033 0.81608 0.34547 0.0
C2013 C 0.14593 0.84205 0.35148 0.0
N2014 N 0.20034 0.83179 0.31226 0.0
N2015 N 0.16467 0.84847 0.33677 0.0
H2016 H 0.62283 0.81452 0.79468 0.0
H2017 H 0.7326 0.85352 0.8722 0.0
H2018 H 0.66796 0.87562 0.78725 0.0
H2019 H 0.68758 0.79235 0.88164 0.0
H2020 H 0.70911 0.86185 0.8407 0.0
H2021 H 0.64636 0.80583 0.82537 0.0
C2022 C 0.63785 0.82603 0.79901 0.0
C2023 C 0.6437 0.84573 0.78781 0.0
C2024 C 0.70426 0.8466 0.84978 0.0
C2025 C 0.6705 0.83608 0.82354 0.0
C2026 C 0.71763 0.8419 0.86787 0.0
C2027 C 0.71185 0.82229 0.87967 0.0
C2028 C 0.68497 0.83155 0.84329 0.0
C2029 C 0.69244 0.80767 0.87318 0.0
C2030 C 0.65121 0.82112 0.81671 0.0
C2031 C 0.6631 0.86022 0.79477 0.0
N2032 N 0.67968 0.81258 0.85535 0.0
N2033 N 0.6758 0.85511 0.81219 0.0
H2034 H 0.15921 0.88321 0.91515 0.0
H2035 H 0.19213 0.83967 0.75566 0.0
H2036 H 0.21595 0.91596 0.85414 0.0
H2037 H 0.14552 0.80317 0.83833 0.0
H2038 H 0.19901 0.86861 0.78688 0.0
H2039 H 0.15216 0.85427 0.88373 0.0
C2040 C 0.17021 0.8842 0.89526 0.0
C2041 C 0.18815 0.9019 0.88709 0.0
C2042 C 0.18725 0.85427 0.79812 0.0
C2043 C 0.18012 0.8691 0.8506 0.0
C2044 C 0.18321 0.83778 0.78015 0.0
C2045 C 0.16825 0.81898 0.79445 0.0
C2046 C 0.17609 0.85198 0.83039 0.0
C2047 C 0.1573 0.81737 0.82653 0.0
C2048 C 0.16619 0.86776 0.87727 0.0
C2049 C 0.20192 0.90254 0.86102 0.0
N2050 N 0.16139 0.83362 0.84333 0.0
N2051 N 0.19757 0.88642 0.84349 0.0
H2052 H 0.11164 0.32539 0.84203 0.0
H2053 H 0.22067 0.3387 0.79972 0.0
H2054 H 0.13374 0.28916 0.89606 0.0
H2055 H 0.20682 0.38503 0.77039 0.0
H2056 H 0.18697 0.31846 0.8289 0.0
H2057 H 0.14491 0.34624 0.81046 0.0
C2058 C 0.12356 0.32197 0.8474 0.0
C2059 C 0.12002 0.3056 0.87161 0.0
C2060 C 0.19119 0.333 0.81591 0.0
C2061 C 0.15774 0.32892 0.83534 0.0
C2062 C 0.21033 0.34442 0.79904 0.0
C2063 C 0.21628 0.36336 0.78247 0.0
C2064 C 0.17789 0.34056 0.81614 0.0
C2065 C 0.20257 0.37036 0.78269 0.0
C2066 C 0.14245 0.33376 0.82937 0.0
C2067 C 0.13582 0.30161 0.87753 0.0
N2068 N 0.18395 0.35895 0.79926 0.0
N2069 N 0.15391 0.31309 0.8594 0.0
H2070 H 0.79426 0.68345 0.63136 0.0
H2071 H 0.88525 0.67569 0.72574 0.0
H2072 H 0.85331 0.73251 0.63989 0.0
H2073 H 0.82752 0.62501 0.71611 0.0
H2074 H 0.87275 0.69678 0.69724 0.0
H2075 H 0.80511 0.6616 0.66411 0.0
C2076 C 0.80949 0.68956 0.64006 0.0
C2077 C 0.82292 0.70976 0.63291 0.0
C2078 C 0.86266 0.68108 0.7017 0.0
C2079 C 0.83542 0.68509 0.6704 0.0
C2080 C 0.86976 0.66909 0.71838 0.0
C2081 C 0.85721 0.64869 0.7241 0.0
C2082 C 0.8429 0.67262 0.69011 0.0
C2083 C 0.83749 0.64076 0.71275 0.0
C2084 C 0.81567 0.67716 0.65878 0.0
C2085 C 0.84249 0.71702 0.64474 0.0
N2086 N 0.83092 0.65272 0.69623 0.0
N2087 N 0.8481 0.70475 0.66286 0.0
H2088 H 0.35671 0.17585 0.74453 0.0
H2089 H 0.28732 0.13583 0.57615 0.0
H2090 H 0.35061 0.21509 0.66177 0.0
H2091 H 0.31268 0.10417 0.63631 0.0
H2092 H 0.30762 0.16449 0.60973 0.0
H2093 H 0.337 0.14849 0.70886 0.0
C2094 C 0.35126 0.17877 0.71883 0.0
C2095 C 0.35563 0.19795 0.70598 0.0
C2096 C 0.30884 0.15132 0.61537 0.0
C2097 C 0.33268 0.16644 0.66514 0.0
C2098 C 0.29736 0.13507 0.59619 0.0
C2099 C 0.29837 0.11773 0.6038 0.0
C2100 C 0.32115 0.15002 0.64258 0.0
C2101 C 0.31149 0.11731 0.62993 0.0
C2102 C 0.33997 0.16309 0.69849 0.0
C2103 C 0.34756 0.20059 0.67294 0.0
N2104 N 0.32222 0.13314 0.64869 0.0
N2105 N 0.33651 0.18502 0.65361 0.0
H2106 H 0.90508 0.22844 0.63192 0.0
H2107 H 0.79955 0.13763 0.71271 0.0
H2108 H 0.88808 0.16753 0.62809 0.0
H2109 H 0.81366 0.19799 0.71264 0.0
H2110 H 0.83253 0.14867 0.68316 0.0
H2111 H 0.87217 0.21815 0.66221 0.0
C2112 C 0.89434 0.21293 0.63736 0.0
C2113 C 0.89917 0.19878 0.62763 0.0
C2114 C 0.82856 0.15958 0.68976 0.0
C2115 C 0.86176 0.18687 0.66227 0.0
C2116 C 0.8098 0.15325 0.70686 0.0
C2117 C 0.80416 0.16697 0.71571 0.0
C2118 C 0.84178 0.17981 0.6811 0.0
C2119 C 0.81768 0.18702 0.7067 0.0
C2120 C 0.87563 0.20704 0.65466 0.0
C2121 C 0.88486 0.17886 0.63521 0.0
N2122 N 0.83591 0.19287 0.68993 0.0
N2123 N 0.86687 0.17351 0.65213 0.0
H2124 H 1.00139 0.54395 0.45993 0.0
H2125 H 0.0199 0.45551 0.54009 0.0
H2126 H 0.95648 0.48303 0.46097 0.0
H2127 H 0.06176 0.51688 0.54533 0.0
H2128 H 0.99657 0.46472 0.50956 0.0
H2129 H 0.02422 0.53394 0.48882 0.0
C2130 C 0.99652 0.52843 0.46577 0.0
C2131 C 0.97728 0.51425 0.45746 0.0
C2132 C 1.01084 0.47616 0.51748 0.0
C2133 C 1.00304 0.50259 0.49138 0.0
C2134 C 0.02406 0.47088 0.53491 0.0
C2135 C 0.04265 0.48549 0.5451 0.0
C2136 C 0.0164 0.49617 0.5102 0.0
C2137 C 0.04751 0.50522 0.53785 0.0
C2138 C 1.00945 0.52269 0.48253 0.0
C2139 C 0.97138 0.49434 0.4665 0.0
N2140 N 0.03451 0.50998 0.52078 0.0
N2141 N 0.98422 0.48906 0.48296 0.0
H2142 H 0.47831 0.48326 0.43916 0.0
H2143 H 0.55342 0.56511 0.56301 0.0
H2144 H 0.52923 0.48196 0.48644 0.0
H2145 H 0.49351 0.55458 0.54524 0.0
H2146 H 0.54623 0.53632 0.53091 0.0
H2147 H 0.48521 0.51148 0.47271 0.0
C2148 C 0.49101 0.48899 0.45641 0.0
C2149 C 0.50316 0.48019 0.4601 0.0
C2150 C 0.53459 0.54021 0.53427 0.0
C2151 C 0.51116 0.51246 0.49855 0.0
C2152 C 0.53867 0.55654 0.55272 0.0
C2153 C 0.52395 0.56202 0.55707 0.0
C2154 C 0.51577 0.5295 0.51946 0.0
C2155 C 0.5052 0.55071 0.5426 0.0
C2156 C 0.49485 0.50499 0.47576 0.0
C2157 C 0.51934 0.48814 0.48309 0.0
N2158 N 0.50168 0.53507 0.52424 0.0
N2159 N 0.52291 0.50383 0.50128 0.0
H2160 H 0.54942 1.00104 0.44242 0.0
H2161 H 0.45025 0.99573 0.52965 0.0
H2162 H 0.54288 0.0523 0.44819 0.0
H2163 H 0.45939 0.94585 0.5257 0.0
H2164 H 0.48325 0.0168 0.49738 0.0
H2165 H 0.51536 0.98044 0.46951 0.0
C2166 C 0.54056 0.00786 0.44867 0.0
C2167 C 0.54868 0.02828 0.44232 0.0
C2168 C 0.47799 1.00123 0.50353 0.0
C2169 C 0.50992 1.00495 0.47454 0.0
C2170 C 0.45922 0.98927 0.52193 0.0
C2171 C 0.45215 0.96908 0.53026 0.0
C2172 C 0.48969 0.99287 0.49344 0.0
C2173 C 0.46429 0.96135 0.51978 0.0
C2174 C 0.5212 0.99616 0.4645 0.0
C2175 C 0.53692 0.03653 0.45214 0.0
N2176 N 0.48239 0.97321 0.50196 0.0
N2177 N 0.51812 0.02485 0.46783 0.0
H2178 H 0.46996 0.02275 0.95266 0.0
H2179 H 0.55871 0.01161 0.04852 0.0
H2180 H 0.52927 0.07124 0.9616 0.0
H2181 H 0.49983 0.96267 0.03835 0.0
H2182 H 0.54775 0.03388 0.01906 0.0
H2183 H 0.48025 1.00045 0.9848 0.0
C2184 C 0.48522 0.02859 0.96105 0.0
C2185 C 0.49889 0.04872 0.95421 0.0
C2186 C 0.53711 0.01831 0.02365 0.0
C2187 C 0.51071 0.02355 0.99155 0.0
C2188 C 0.54331 1.00567 0.04085 0.0
C2189 C 0.52997 0.98541 0.04659 0.0
C2190 C 0.51747 0.0106 0.01168 0.0
C2191 C 0.5104 0.97829 0.03497 0.0
C2192 C 0.49107 0.01594 0.97959 0.0
C2193 C 0.51839 0.05573 0.96615 0.0
N2194 N 0.50473 0.99085 0.018 0.0
N2195 N 0.52372 0.04318 0.98425 0.0
H2196 H 0.99139 0.4491 0.93012 0.0
H2197 H 0.99967 0.52948 0.05934 0.0
H2198 H 0.94179 0.45831 0.95486 0.0
H2199 H 0.05123 0.53241 0.00524 0.0
H2200 H 0.97786 0.50119 0.02644 0.0
H2201 H 0.01348 0.47793 0.96165 0.0
C2202 C 0.98527 0.45739 0.94184 0.0
C2203 C 0.96487 0.45153 0.93972 0.0
C2204 C 0.99395 0.50805 0.02176 0.0
C2205 C 0.98976 0.48406 0.97658 0.0
C2206 C 1.00638 0.52408 0.04073 0.0
C2207 C 0.02727 0.53335 0.03489 0.0
C2208 C 1.00248 0.50105 0.99721 0.0
C2209 C 0.03519 0.52584 0.01024 0.0
C2210 C 0.9978 0.47374 0.95995 0.0
C2211 C 0.9575 0.46249 0.95585 0.0
N2212 N 0.02281 0.51011 0.99243 0.0
N2213 N 0.9699 0.47815 0.97383 0.0
H2214 H 0.56998 0.55555 0.95216 0.0
H2215 H 0.46702 0.46397 0.04136 0.0
H2216 H 0.55859 0.49574 0.9645 0.0
H2217 H 0.47765 0.52348 0.0252 0.0
H2218 H 0.50085 0.47533 0.01457 0.0
H2219 H 0.53641 0.54426 0.9801 0.0
C2220 C 0.56038 0.54007 0.96084 0.0
C2221 C 0.56698 0.52656 0.95617 0.0
C2222 C 0.49579 0.48591 0.01692 0.0
C2223 C 0.52869 0.51346 0.98802 0.0
C2224 C 0.47653 0.47941 0.0322 0.0
C2225 C 0.46962 0.49281 0.0354 0.0
C2226 C 0.50819 0.50597 0.00482 0.0
C2227 C 0.48245 0.51269 0.02321 0.0
C2228 C 0.54125 0.53359 0.97674 0.0
C2229 C 0.55403 0.50662 0.96772 0.0
N2230 N 0.50108 0.51866 0.00846 0.0
N2231 N 0.53554 0.50068 0.98311 0.0
H2232 H 0.1827 0.00937 0.04684 0.0
H2233 H 0.23565 0.12254 0.98252 0.0
H2234 H 0.22794 0.03518 0.95855 0.0
H2235 H 0.22712 0.10366 0.09857 0.0
H2236 H 0.2267 0.08933 0.9703 0.0
H2237 H 0.19304 0.04258 0.06414 0.0
C2238 C 0.19502 0.02199 0.03153 0.0
C2239 C 0.2047 0.01953 0.00155 0.0
C2240 C 0.22683 0.09254 0.99842 0.0
C2241 C 0.21586 0.0574 0.02004 0.0
C2242 C 0.23212 0.11162 0.00563 0.0
C2243 C 0.23266 0.11639 0.04187 0.0
C2244 C 0.22138 0.07773 0.02743 0.0
C2245 C 0.22687 0.10095 0.07018 0.0
C2246 C 0.2008 0.04088 0.04125 0.0
C2247 C 0.22017 0.03644 0.98194 0.0
N2248 N 0.22139 0.08232 0.06236 0.0
N2249 N 0.22508 0.05463 0.9912 0.0
H2250 H 1.00491 0.17028 0.99805 0.0
H2251 H 0.89111 0.14313 0.04429 0.0
H2252 H 0.98464 0.21288 0.99025 0.0
H2253 H 0.90996 0.09979 0.03966 0.0
H2254 H 0.92601 0.16925 0.03191 0.0
H2255 H 0.97111 0.14466 0.02057 0.0
C2256 C 0.9933 0.17419 0.00147 0.0
C2257 C 0.99738 0.19358 0.99216 0.0
C2258 C 0.92261 0.15405 0.03402 0.0
C2259 C 0.95874 0.16449 0.01776 0.0
C2260 C 0.90273 0.13919 0.04126 0.0
C2261 C 0.89778 0.11936 0.04326 0.0
C2262 C 0.93768 0.14906 0.02858 0.0
C2263 C 0.91326 0.11493 0.03871 0.0
C2264 C 0.97403 0.15962 0.0142 0.0
C2265 C 0.98197 0.19804 0.99708 0.0
N2266 N 0.9325 0.12965 0.03143 0.0
N2267 N 0.96328 0.18359 0.00936 0.0
H2268 H 0.87883 0.75348 0.01123 0.0
H2269 H 0.83826 0.83028 0.01787 0.0
H2270 H 0.91127 0.808 0.05992 0.0
H2271 H 0.80964 0.77761 0.96309 0.0
H2272 H 0.86401 0.82171 0.03759 0.0
H2273 H 0.85234 0.76134 0.99742 0.0
C2274 C 0.88047 0.76721 0.01884 0.0
C2275 C 0.89755 0.78026 0.03621 0.0
C2276 C 0.85204 0.81196 0.02146 0.0
C2277 C 0.86686 0.78929 0.02081 0.0
C2278 C 0.83736 0.81682 0.01037 0.0
C2279 C 0.82187 0.80454 0.98906 0.0
C2280 C 0.85116 0.79471 0.01108 0.0
C2281 C 0.82135 0.78738 0.97965 0.0
C2282 C 0.86521 0.77165 0.01111 0.0
C2283 C 0.89842 0.79753 0.04642 0.0
N2284 N 0.83578 0.78299 0.99065 0.0
N2285 N 0.88336 0.80161 0.03836 0.0
H2286 H 0.03874 0.24475 0.54099 0.0
H2287 H 0.11174 0.21504 0.4401 0.0
H2288 H 0.01707 0.19242 0.4857 0.0
H2289 H 0.13226 0.26841 0.49221 0.0
H2290 H 0.07702 0.20698 0.4539 0.0
H2291 H 0.07315 0.25417 0.52114 0.0
C2292 C 0.0413 0.23542 0.52419 0.0
C2293 C 0.02516 0.218 0.5144 0.0
C2294 C 0.08915 0.22047 0.46224 0.0
C2295 C 0.06443 0.22835 0.49212 0.0
C2296 C 0.10899 0.22512 0.45422 0.0
C2297 C 0.12505 0.24233 0.46536 0.0
C2298 C 0.08527 0.23312 0.48146 0.0
C2299 C 0.12046 0.25476 0.48378 0.0
C2300 C 0.06091 0.24071 0.51296 0.0
C2301 C 0.02918 0.20615 0.49321 0.0
N2302 N 0.1011 0.24988 0.49132 0.0
N2303 N 0.04842 0.21151 0.48283 0.0
H2304 H 0.84175 0.84221 0.49149 0.0
H2305 H 0.75412 0.8698 0.46107 0.0
H2306 H 0.77923 0.80069 0.51496 0.0
H2307 H 0.81678 0.91285 0.45837 0.0
H2308 H 0.76287 0.84355 0.47217 0.0
H2309 H 0.83282 0.86748 0.47024 0.0
C2310 C 0.82611 0.83841 0.49154 0.0
C2311 C 0.81116 0.81942 0.50475 0.0
C2312 C 0.77475 0.85871 0.46862 0.0
C2313 C 0.80078 0.84818 0.48095 0.0
C2314 C 0.76975 0.87366 0.46208 0.0
C2315 C 0.78478 0.89346 0.458 0.0
C2316 C 0.79496 0.8636 0.47129 0.0
C2317 C 0.80479 0.89775 0.46038 0.0
C2318 C 0.82101 0.85281 0.47966 0.0
C2319 C 0.79113 0.81518 0.50474 0.0
N2320 N 0.80929 0.88297 0.46687 0.0
N2321 N 0.78651 0.82945 0.49315 0.0
H2322 H 0.17165 0.00918 0.47821 0.0
H2323 H 0.15286 0.90118 0.45115 0.0
H2324 H 0.21636 0.99125 0.49219 0.0
H2325 H 0.10798 0.91868 0.43142 0.0
H2326 H 0.17631 0.93437 0.46485 0.0
H2327 H 0.14824 0.97663 0.45919 0.0
C2328 C 0.17653 0.99839 0.47679 0.0
C2329 C 0.19585 1.00273 0.48661 0.0
C2330 C 0.16137 0.93104 0.4574 0.0
C2331 C 0.1693 0.96559 0.46543 0.0
C2332 C 0.14794 0.91205 0.44931 0.0
C2333 C 0.12837 0.90706 0.43969 0.0
C2334 C 0.15531 0.94533 0.45614 0.0
C2335 C 0.12283 0.92176 0.43888 0.0
C2336 C 0.16321 0.97984 0.46612 0.0
C2337 C 0.20157 0.98837 0.48466 0.0
N2338 N 0.13623 0.94021 0.44696 0.0
N2339 N 0.18833 0.97041 0.47446 0.0
H2340 H 0.78457 0.90822 0.90555 0.0
H2341 H 0.84038 0.99654 0.03095 0.0
H2342 H 0.81321 0.90414 0.0044 0.0
H2343 H 0.79588 0.99393 0.95614 0.0
H2344 H 0.83497 0.96502 0.01396 0.0
H2345 H 0.79297 0.94188 0.9163 0.0
C2346 C 0.79283 0.9145 0.92925 0.0
C2347 C 0.79814 0.90334 0.95421 0.0
C2348 C 0.82642 0.97136 0.00116 0.0
C2349 C 0.80782 0.94177 0.96659 0.0
C2350 C 0.82943 0.98937 0.01097 0.0
C2351 C 0.81832 0.99788 0.99552 0.0
C2352 C 0.81234 0.96169 0.97533 0.0
C2353 C 0.80483 0.98805 0.96881 0.0
C2354 C 0.7975 0.93363 0.93549 0.0
C2355 C 0.80866 0.91213 0.98466 0.0
N2356 N 0.80215 0.97044 0.95971 0.0
N2357 N 0.81317 0.93078 0.98994 0.0
H2358 H 0.09966 0.88694 0.9173 0.0
H2359 H 1.00717 0.824 0.0622 0.0
H2360 H 0.09479 0.90467 0.02305 0.0
H2361 H 0.01175 0.80556 0.95755 0.0
H2362 H 0.03626 0.85576 0.04399 0.0
H2363 H 0.06571 0.85897 0.92815 0.0
C2364 C 0.09138 0.88517 0.94257 0.0
C2365 C 0.1003 0.89819 0.96941 0.0
C2366 C 0.03131 0.84446 0.02542 0.0
C2367 C 0.0613 0.86593 0.98218 0.0
C2368 C 0.01481 0.82599 0.03608 0.0
C2369 C 1.00901 0.81021 0.01446 0.0
C2370 C 0.04162 0.84775 0.99173 0.0
C2371 C 0.01755 0.81541 0.97834 0.0
C2372 C 0.07199 0.86909 0.94882 0.0
C2373 C 0.08878 0.89489 0.0018 0.0
N2374 N 0.03378 0.83343 0.96857 0.0
N2375 N 0.07003 0.87907 0.00734 0.0
H2376 H 0.14613 0.24952 0.97144 0.0
H2377 H 0.18318 0.17074 0.01801 0.0
H2378 H 0.10727 0.18745 0.96509 0.0
H2379 H 0.2212 0.23353 0.01184 0.0
H2380 H 0.15495 0.17572 -0.001 0.0
H2381 H 0.17332 0.24319 0.9874 0.0
C2382 C 0.14331 0.23451 0.97311 0.0
C2383 C 0.12435 0.21904 0.96623 0.0
C2384 C 0.16952 0.1884 0.00142 0.0
C2385 C 0.15573 0.21158 0.98531 0.0
C2386 C 0.1856 0.18555 0.01202 0.0
C2387 C 0.20453 0.20177 0.01585 0.0
C2388 C 0.17244 0.20762 0.99504 0.0
C2389 C 0.2069 0.22066 0.00859 0.0
C2390 C 0.15891 0.23088 0.98244 0.0
C2391 C 0.12159 0.19984 0.9701 0.0
N2392 N 0.19107 0.22305 0.99866 0.0
N2393 N 0.13713 0.19664 0.97927 0.0
H2394 H 0.90243 0.76343 0.52154 0.0
H2395 H 0.02041 0.83777 0.48928 0.0
H2396 H 0.92905 0.82517 0.53521 0.0
H2397 H 0.99117 0.7782 0.46104 0.0
H2398 H 0.98769 0.83332 0.5098 0.0
H2399 H 0.9352 0.76846 0.50232 0.0
C2400 C 0.91523 0.77808 0.52063 0.0
C2401 C 0.91299 0.79387 0.53041 0.0
C2402 C 0.98842 0.82118 0.49933 0.0
C2403 C 0.9508 0.79979 0.50808 0.0
C2404 C 1.00705 0.82368 0.48793 0.0
C2405 C 1.00835 0.8082 0.47405 0.0
C2406 C 0.971 0.80306 0.49676 0.0
C2407 C 0.99072 0.79036 0.47206 0.0
C2408 C 0.93396 0.78096 0.50947 0.0
C2409 C 0.93008 0.81259 0.52789 0.0
N2410 N 0.97278 0.78826 0.48334 0.0
N2411 N 0.9483 0.81502 0.51719 0.0
H2412 H 0.24564 0.2272 0.48171 0.0
H2413 H 0.19198 0.11133 0.54531 0.0
H2414 H 0.18149 0.19133 0.49509 0.0
H2415 H 0.25299 0.14592 0.50152 0.0
H2416 H 0.18819 0.14088 0.53635 0.0
H2417 H 0.24902 0.19804 0.49873 0.0
C2418 C 0.23229 0.21316 0.48888 0.0
C2419 C 0.21328 0.21158 0.4874 0.0
C2420 C 0.2024 0.14195 0.52881 0.0
C2421 C 0.21692 0.17806 0.50637 0.0
C2422 C 0.20459 0.12514 0.53406 0.0
C2423 C 0.22276 0.12611 0.52379 0.0
C2424 C 0.21861 0.15991 0.51377 0.0
C2425 C 0.23861 0.1444 0.50927 0.0
C2426 C 0.23418 0.1965 0.49833 0.0
C2427 C 0.19639 0.19306 0.49631 0.0
N2428 N 0.23617 0.1605 0.50476 0.0
N2429 N 0.19858 0.17697 0.5054 0.0
H2430 H 0.81136 0.02087 0.54757 0.0
H2431 H 0.91878 0.11329 0.49497 0.0
H2432 H 0.85231 0.0192 0.46917 0.0
H2433 H 0.88648 0.10394 0.59788 0.0
H2434 H 0.89452 0.07971 0.48293 0.0
H2435 H 0.8382 0.05236 0.56397 0.0
C2436 C 0.82606 0.02712 0.53393 0.0
C2437 C 0.82963 0.01744 0.50696 0.0
C2438 C 0.89288 0.08502 0.50825 0.0
C2439 C 0.8604 0.05361 0.5253 0.0
C2440 C 0.90679 0.10418 0.51528 0.0
C2441 C 0.90463 0.1117 0.54734 0.0
C2442 C 0.87653 0.07333 0.53321 0.0
C2443 C 0.88856 0.09911 0.57233 0.0
C2444 C 0.8414 0.04505 0.54339 0.0
C2445 C 0.84899 0.02614 0.49028 0.0
N2446 N 0.87506 0.08071 0.56455 0.0
N2447 N 0.86361 0.04386 0.49941 0.0
H2448 H 0.8929 0.43192 0.43648 0.0
H2449 H 0.89638 0.36514 0.29051 0.0
H2450 H 0.89841 0.4493 0.32008 0.0
H2451 H 0.85324 0.33843 0.38208 0.0
H2452 H 0.90453 0.39771 0.30754 0.0
H2453 H 0.88432 0.39868 0.42311 0.0
C2454 C 0.89223 0.42891 0.40818 0.0
C2455 C 0.8967 0.44386 0.37947 0.0
C2456 C 0.89344 0.38471 0.32412 0.0
C2457 C 0.88761 0.40585 0.36429 0.0
C2458 C 0.88886 0.36617 0.31455 0.0
C2459 C 0.87421 0.34909 0.33505 0.0
C2460 C 0.88361 0.38626 0.35489 0.0
C2461 C 0.86485 0.35124 0.3659 0.0
C2462 C 0.88746 0.4099 0.40069 0.0
C2463 C 0.89582 0.43876 0.34338 0.0
N2464 N 0.86977 0.36951 0.37504 0.0
N2465 N 0.89165 0.42036 0.33692 0.0
H2466 H 0.55653 0.48056 0.36944 0.0
H2467 H 0.67079 0.50786 0.3267 0.0
H2468 H 0.57541 0.43737 0.36234 0.0
H2469 H 0.65002 0.54988 0.30918 0.0
H2470 H 0.63683 0.48255 0.34897 0.0
H2471 H 0.59141 0.50678 0.35617 0.0
C2472 C 0.56813 0.47665 0.36583 0.0
C2473 C 0.56317 0.4568 0.36784 0.0
C2474 C 0.63967 0.49732 0.34057 0.0
C2475 C 0.60306 0.48664 0.35209 0.0
C2476 C 0.65905 0.51175 0.32807 0.0
C2477 C 0.6631 0.5309 0.3162 0.0
C2478 C 0.62418 0.50207 0.34138 0.0
C2479 C 0.64743 0.53526 0.31822 0.0
C2480 C 0.58799 0.49158 0.35804 0.0
C2481 C 0.57866 0.45248 0.36208 0.0
N2482 N 0.62864 0.52095 0.33046 0.0
N2483 N 0.59786 0.46724 0.35451 0.0
H2484 H 0.54211 0.08284 0.34123 0.0
H2485 H 0.50265 0.16007 0.35635 0.0
H2486 H 0.57349 0.13476 0.39791 0.0
H2487 H 0.47445 0.10967 0.29535 0.0
H2488 H 0.52763 0.15031 0.37546 0.0
H2489 H 0.51627 0.09169 0.32759 0.0
C2490 C 0.54366 0.09621 0.35066 0.0
C2491 C 0.56025 0.10822 0.37033 0.0
C2492 C 0.51591 0.14131 0.35811 0.0
C2493 C 0.53029 0.11836 0.35509 0.0
C2494 C 0.50166 0.14683 0.34737 0.0
C2495 C 0.4865 0.13555 0.32449 0.0
C2496 C 0.51497 0.12439 0.34576 0.0
C2497 C 0.48589 0.11867 0.31316 0.0
C2498 C 0.52877 0.10119 0.34302 0.0
C2499 C 0.56101 0.12504 0.3827 0.0
N2500 N 0.49992 0.11362 0.32384 0.0
N2501 N 0.54632 0.12967 0.3747 0.0
H2502 H 0.70544 0.57118 0.86811 0.0
H2503 H 0.77873 0.54234 0.76555 0.0
H2504 H 0.68379 0.51978 0.81003 0.0
H2505 H 0.79897 0.59355 0.82426 0.0
H2506 H 0.74395 0.53458 0.77809 0.0
H2507 H 0.73988 0.58045 0.84904 0.0
C2508 C 0.70801 0.56205 0.85079 0.0
C2509 C 0.69186 0.54493 0.84005 0.0
C2510 C 0.75603 0.54753 0.78817 0.0
C2511 C 0.7312 0.55509 0.81868 0.0
C2512 C 0.7759 0.552 0.7809 0.0
C2513 C 0.79187 0.56848 0.79428 0.0
C2514 C 0.75208 0.55968 0.80879 0.0
C2515 C 0.78721 0.58043 0.81411 0.0
C2516 C 0.72765 0.56724 0.84003 0.0
C2517 C 0.69591 0.53331 0.81824 0.0
N2518 N 0.76784 0.57576 0.82081 0.0
N2519 N 0.71518 0.53856 0.80835 0.0
H2520 H 0.42683 0.21084 0.7917 0.0
H2521 H 0.51322 0.18376 0.83986 0.0
H2522 H 0.48786 0.25471 0.80566 0.0
H2523 H 0.45067 0.14099 0.83801 0.0
H2524 H 0.50525 0.21 0.82095 0.0
H2525 H 0.43619 0.18519 0.80221 0.0
C2526 C 0.44227 0.21504 0.79674 0.0
C2527 C 0.45661 0.23486 0.79797 0.0
C2528 C 0.49328 0.19488 0.82438 0.0
C2529 C 0.46751 0.20556 0.81022 0.0
C2530 C 0.49784 0.17994 0.835 0.0
C2531 C 0.48253 0.16028 0.84055 0.0
C2532 C 0.47326 0.19006 0.81911 0.0
C2533 C 0.46286 0.156 0.83398 0.0
C2534 C 0.44762 0.2004 0.80283 0.0
C2535 C 0.47641 0.23956 0.80459 0.0
N2536 N 0.45877 0.17076 0.82378 0.0
N2537 N 0.48129 0.22499 0.81063 0.0
H2538 H 0.87089 0.31595 0.87818 0.0
H2539 H 0.79803 0.24662 0.73921 0.0
H2540 H 0.8493 0.34062 0.79181 0.0
H2541 H 0.78871 0.22984 0.85603 0.0
H2542 H 0.82204 0.28025 0.75121 0.0
H2543 H 0.84667 0.28284 0.86314 0.0
C2544 C 0.86123 0.31436 0.85569 0.0
C2545 C 0.86216 0.331 0.83602 0.0
C2546 C 0.81465 0.26907 0.77402 0.0
C2547 C 0.83471 0.29331 0.81842 0.0
C2548 C 0.80078 0.24984 0.76734 0.0
C2549 C 0.79119 0.23497 0.79656 0.0
C2550 C 0.81943 0.27344 0.81008 0.0
C2551 C 0.79597 0.24035 0.83234 0.0
C2552 C 0.84741 0.29554 0.84727 0.0
C2553 C 0.84926 0.32816 0.80722 0.0
N2554 N 0.80989 0.259 0.83801 0.0
N2555 N 0.83611 0.30965 0.79907 0.0
H2556 H 0.45 0.24083 0.24028 0.0
H2557 H 0.50779 0.33425 0.35361 0.0
H2558 H 0.48251 0.2404 0.33585 0.0
H2559 H 0.45958 0.3264 0.28414 0.0
H2560 H 0.50308 0.3022 0.34006 0.0
H2561 H 0.45773 0.27447 0.2488 0.0
C2562 C 0.45897 0.2479 0.2628 0.0
C2563 C 0.46558 0.23775 0.28744 0.0
C2564 C 0.49361 0.30755 0.32763 0.0
C2565 C 0.47448 0.27627 0.29735 0.0
C2566 C 0.4964 0.32591 0.33512 0.0
C2567 C 0.48404 0.33302 0.32005 0.0
C2568 C 0.47853 0.29629 0.30447 0.0
C2569 C 0.46933 0.32142 0.29661 0.0
C2570 C 0.46325 0.26704 0.26779 0.0
C2571 C 0.47695 0.24759 0.3164 0.0
N2572 N 0.46701 0.30368 0.28951 0.0
N2573 N 0.48107 0.26628 0.32051 0.0
H2574 H 0.69693 0.12445 0.37478 0.0
H2575 H 0.75754 0.23509 0.27749 0.0
H2576 H 0.66718 0.1554 0.32938 0.0
H2577 H 0.78443 0.20595 0.34137 0.0
H2578 H 0.72458 0.20545 0.29027 0.0
H2579 H 0.72938 0.15345 0.35664 0.0
C2580 C 0.69733 0.13741 0.36075 0.0
C2581 C 0.67949 0.13769 0.35371 0.0
C2582 C 0.73772 0.2056 0.30145 0.0
C2583 C 0.71654 0.17102 0.33279 0.0
C2584 C 0.75655 0.22247 0.29403 0.0
C2585 C 0.7738 0.22313 0.30869 0.0
C2586 C 0.73619 0.18918 0.32328 0.0
C2587 C 0.77156 0.20631 0.33003 0.0
C2588 C 0.71582 0.15399 0.35048 0.0
C2589 C 0.6807 0.15474 0.33534 0.0
N2590 N 0.7532 0.19012 0.33662 0.0
N2591 N 0.69894 0.17079 0.32556 0.0
H2592 H 0.88234 0.55996 0.35259 0.0
H2593 H 0.76715 0.51066 0.2996 0.0
H2594 H 0.84487 0.49716 0.3568 0.0
H2595 H 0.80523 0.57216 0.31195 0.0
H2596 H 0.79457 0.50448 0.31946 0.0
H2597 H 0.85388 0.56412 0.33456 0.0
C2598 C 0.86809 0.54705 0.3491 0.0
C2599 C 0.86595 0.52823 0.35551 0.0
C2600 C 0.79681 0.51928 0.31795 0.0
C2601 C 0.83299 0.53274 0.33571 0.0
C2602 C 0.78114 0.52277 0.30688 0.0
C2603 C 0.78402 0.54199 0.30363 0.0
C2604 C 0.81536 0.53514 0.32582 0.0
C2605 C 0.80247 0.55717 0.31336 0.0
C2606 C 0.85176 0.54937 0.33915 0.0
C2607 C 0.84709 0.51192 0.35151 0.0
N2608 N 0.81737 0.55345 0.3237 0.0
N2609 N 0.83127 0.51452 0.3418 0.0
H2610 H 0.59439 0.15732 0.89663 0.0
H2611 H 0.66128 0.1151 0.81431 0.0
H2612 H 0.57054 0.10291 0.84713 0.0
H2613 H 0.6867 0.17522 0.83826 0.0
H2614 H 0.62813 0.10909 0.83476 0.0
H2615 H 0.62852 0.16295 0.88377 0.0
C2616 C 0.59632 0.14651 0.88336 0.0
C2617 C 0.57959 0.12972 0.87259 0.0
C2618 C 0.64091 0.1236 0.83584 0.0
C2619 C 0.61845 0.13598 0.85799 0.0
C2620 C 0.65981 0.12696 0.82434 0.0
C2621 C 0.67661 0.14563 0.8248 0.0
C2622 C 0.63874 0.13901 0.84798 0.0
C2623 C 0.67402 0.16061 0.8377 0.0
C2624 C 0.61577 0.14977 0.87586 0.0
C2625 C 0.58298 0.11621 0.85539 0.0
N2626 N 0.65539 0.157 0.84877 0.0
N2627 N 0.60193 0.11963 0.84866 0.0
H2628 H 0.86573 0.44302 0.80657 0.0
H2629 H 0.87651 0.54221 0.87211 0.0
H2630 H 0.88795 0.46346 0.91101 0.0
H2631 H 0.86126 0.52484 0.76388 0.0
H2632 H 0.87498 0.51104 0.89064 0.0
H2633 H 0.85921 0.47049 0.79407 0.0
C2634 C 0.86916 0.45322 0.82702 0.0
C2635 C 0.87769 0.45098 0.85973 0.0
C2636 C 0.87274 0.51438 0.86236 0.0
C2637 C 0.87003 0.48257 0.84561 0.0
C2638 C 0.87444 0.53273 0.85115 0.0
C2639 C 0.87346 0.53832 0.8139 0.0
C2640 C 0.86862 0.50082 0.83672 0.0
C2641 C 0.86569 0.52287 0.79113 0.0
C2642 C 0.86532 0.46888 0.8199 0.0
C2643 C 0.88133 0.46448 0.88547 0.0
N2644 N 0.86424 0.50517 0.80241 0.0
N2645 N 0.8777 0.47978 0.87769 0.0
H2646 H 0.54215 0.44941 0.86662 0.0
H2647 H 0.5145 0.34595 0.79992 0.0
H2648 H 0.58601 0.42987 0.8643 0.0
H2649 H 0.47113 0.35752 0.851 0.0
H2650 H 0.54141 0.37777 0.81586 0.0
H2651 H 0.51648 0.4171 0.85295 0.0
C2652 C 0.54645 0.43831 0.8637 0.0
C2653 C 0.56638 0.44243 0.86755 0.0
C2654 C 0.52601 0.37325 0.82375 0.0
C2655 C 0.5368 0.40528 0.85046 0.0
C2656 C 0.51067 0.35518 0.81456 0.0
C2657 C 0.49056 0.34911 0.82419 0.0
C2658 C 0.52115 0.3855 0.84198 0.0
C2659 C 0.48642 0.36155 0.84332 0.0
C2660 C 0.5317 0.41983 0.85562 0.0
C2661 C 0.57094 0.42749 0.86164 0.0
N2662 N 0.50155 0.37922 0.85125 0.0
N2663 N 0.55626 0.40958 0.85334 0.0
H2664 H 0.51037 0.66902 0.70171 0.0
H2665 H 0.5925 0.78374 0.68417 0.0
H2666 H 0.56653 0.69431 0.63922 0.0
H2667 H 0.5344 0.76049 0.73936 0.0
H2668 H 0.58394 0.75063 0.67145 0.0
H2669 H 0.51958 0.70176 0.72003 0.0
C2670 C 0.52474 0.68149 0.69226 0.0
C2671 C 0.53781 0.67909 0.66921 0.0
C2672 C 0.57303 0.75271 0.68638 0.0
C2673 C 0.54838 0.71646 0.68954 0.0
C2674 C 0.57787 0.77169 0.69349 0.0
C2675 C 0.56407 0.77507 0.71248 0.0
C2676 C 0.55421 0.73676 0.69833 0.0
C2677 C 0.54556 0.75866 0.72473 0.0
C2678 C 0.52996 0.70014 0.70253 0.0
C2679 C 0.55613 0.69562 0.65723 0.0
N2680 N 0.54113 0.74026 0.71728 0.0
N2681 N 0.56086 0.71359 0.66747 0.0
H2682 H 0.24155 0.77053 0.71735 0.0
H2683 H 0.31877 0.88416 0.6583 0.0
H2684 H 0.2249 0.81574 0.71528 0.0
H2685 H 0.33668 0.84002 0.6772 0.0
H2686 H 0.28464 0.85981 0.68187 0.0
H2687 H 0.27672 0.79593 0.70558 0.0
C2688 C 0.24542 0.78586 0.71536 0.0
C2689 C 0.23043 0.79111 0.71817 0.0
C2690 C 0.29606 0.85546 0.68129 0.0
C2691 C 0.27054 0.82031 0.70326 0.0
C2692 C 0.3155 0.86937 0.66796 0.0
C2693 C 0.33039 0.86398 0.66586 0.0
C2694 C 0.29149 0.83599 0.69228 0.0
C2695 C 0.32551 0.84466 0.67845 0.0
C2696 C 0.26546 0.80037 0.70831 0.0
C2697 C 0.23612 0.81116 0.71389 0.0
N2698 N 0.30644 0.83131 0.69079 0.0
N2699 N 0.25569 0.82502 0.70644 0.0
H2700 H 0.20454 0.41467 0.67755 0.0
H2701 H 0.16807 0.49448 0.68633 0.0
H2702 H 0.23859 0.46905 0.72603 0.0
H2703 H 0.1373 0.44228 0.63072 0.0
H2704 H 0.19276 0.48442 0.70545 0.0
H2705 H 0.17867 0.42357 0.66421 0.0
C2706 C 0.20667 0.42857 0.68524 0.0
C2707 C 0.22399 0.44124 0.70253 0.0
C2708 C 0.18051 0.47505 0.68938 0.0
C2709 C 0.19406 0.45144 0.6877 0.0
C2710 C 0.16639 0.48072 0.67872 0.0
C2711 C 0.15053 0.46897 0.65752 0.0
C2712 C 0.17881 0.45755 0.67851 0.0
C2713 C 0.14921 0.45156 0.64749 0.0
C2714 C 0.19177 0.43358 0.67779 0.0
C2715 C 0.22552 0.45878 0.71275 0.0
N2716 N 0.16315 0.44637 0.65805 0.0
N2717 N 0.21082 0.4634 0.70501 0.0
H2718 H 0.35333 0.84606 0.18721 0.0
H2719 H 0.45649 0.92313 0.07868 0.0
H2720 H 0.36823 0.90625 0.15762 0.0
H2721 H 0.45145 0.87658 0.15744 0.0
H2722 H 0.4216 0.91404 0.09532 0.0
H2723 H 0.3868 0.85393 0.16413 0.0
C2724 C 0.36371 0.86095 0.17586 0.0
C2725 C 0.35832 0.8757 0.17531 0.0
C2726 C 0.42812 0.90574 0.10868 0.0
C2727 C 0.39629 0.88463 0.14772 0.0
C2728 C 0.4479 0.91081 0.09904 0.0
C2729 C 0.45674 0.90052 0.11669 0.0
C2730 C 0.41703 0.89001 0.13557 0.0
C2731 C 0.44512 0.88484 0.14322 0.0
C2732 C 0.38274 0.86541 0.16265 0.0
C2733 C 0.37202 0.89459 0.15914 0.0
N2734 N 0.42584 0.88 0.15173 0.0
N2735 N 0.39043 0.89856 0.14601 0.0
H2736 H 0.11187 0.46662 0.17005 0.0
H2737 H 0.14638 0.58035 0.11863 0.0
H2738 H 0.17365 0.51158 0.15211 0.0
H2739 H 0.08507 0.53449 0.11593 0.0
H2740 H 0.15674 0.5553 0.12855 0.0
H2741 H 0.1016 0.49081 0.14793 0.0
C2742 C 0.12323 0.48155 0.16084 0.0
C2743 C 0.14358 0.48721 0.16284 0.0
C2744 C 0.14105 0.55066 0.12518 0.0
C2745 C 0.13209 0.51504 0.13818 0.0
C2746 C 0.13517 0.56498 0.1192 0.0
C2747 C 0.11491 0.55945 0.11556 0.0
C2748 C 0.1265 0.5306 0.12837 0.0
C2749 C 0.10089 0.53931 0.118 0.0
C2750 C 0.11741 0.49537 0.14836 0.0
C2751 C 0.15779 0.50671 0.15089 0.0
N2752 N 0.10691 0.52562 0.12448 0.0
N2753 N 0.1518 0.51997 0.13945 0.0
H2754 H 0.55668 0.65545 0.1846 0.0
H2755 H 0.44896 0.59183 0.10258 0.0
H2756 H 0.51991 0.68032 0.14692 0.0
H2757 H 0.48982 0.56988 0.12852 0.0
H2758 H 0.47418 0.62418 0.11943 0.0
H2759 H 0.53215 0.62388 0.16391 0.0
C2760 C 0.54354 0.65425 0.17138 0.0
C2761 C 0.54033 0.6704 0.16688 0.0
C2762 C 0.47762 0.61228 0.12126 0.0
C2763 C 0.51195 0.63436 0.14397 0.0
C2764 C 0.46318 0.59378 0.11187 0.0
C2765 C 0.46729 0.57811 0.11384 0.0
C2766 C 0.49625 0.61509 0.13305 0.0
C2767 C 0.48606 0.58157 0.1259 0.0
C2768 C 0.52948 0.63626 0.15976 0.0
C2769 C 0.52293 0.66815 0.1503 0.0
N2770 N 0.49976 0.59959 0.13506 0.0
N2771 N 0.50932 0.65042 0.13958 0.0
H2772 H 0.1751 0.67818 0.63829 0.0
H2773 H 0.10089 0.56245 0.65871 0.0
H2774 H 0.12367 0.64872 0.71472 0.0
H2775 H 0.16139 0.58739 0.61361 0.0
H2776 H 0.10839 0.59477 0.67505 0.0
H2777 H 0.17012 0.64596 0.62514 0.0
C2778 C 0.16285 0.66504 0.65249 0.0
C2779 C 0.14963 0.66633 0.67733 0.0
C2780 C 0.1201 0.59324 0.66174 0.0
C2781 C 0.14373 0.62939 0.6619 0.0
C2782 C 0.1158 0.57479 0.65226 0.0
C2783 C 0.13052 0.57226 0.63463 0.0
C2784 C 0.13924 0.60949 0.65315 0.0
C2785 C 0.14965 0.58873 0.62728 0.0
C2786 C 0.16 0.64664 0.64485 0.0
C2787 C 0.13395 0.64865 0.69458 0.0
N2788 N 0.15343 0.60673 0.63625 0.0
N2789 N 0.13138 0.63103 0.68634 0.0
H2790 H 0.33146 0.49298 0.66971 0.0
H2791 H 0.44974 0.53432 0.65556 0.0
H2792 H 0.35905 0.45643 0.68097 0.0
H2793 H 0.42351 0.57012 0.61829 0.0
H2794 H 0.4163 0.50586 0.66556 0.0
H2795 H 0.36449 0.52162 0.65084 0.0
C2796 C 0.34446 0.49101 0.66757 0.0
C2797 C 0.34265 0.47242 0.67642 0.0
C2798 C 0.41776 0.51987 0.655 0.0
C2799 C 0.38031 0.50491 0.65581 0.0
C2800 C 0.43688 0.53618 0.64947 0.0
C2801 C 0.43942 0.55468 0.6364 0.0
C2802 C 0.40086 0.52197 0.64781 0.0
C2803 C 0.42221 0.55612 0.62839 0.0
C2804 C 0.36326 0.50729 0.65694 0.0
C2805 C 0.35988 0.47054 0.67392 0.0
N2806 N 0.40362 0.54001 0.63459 0.0
N2807 N 0.37798 0.48657 0.66411 0.0
H2808 H 0.51025 0.83095 0.68858 0.0
H2809 H 0.47773 0.91315 0.64052 0.0
H2810 H 0.54984 0.89334 0.68617 0.0
H2811 H 0.43661 0.85128 0.6372 0.0
H2812 H 0.50394 0.90552 0.6578 0.0
H2813 H 0.48285 0.83735 0.66992 0.0
C2814 C 0.51316 0.84597 0.68367 0.0
C2815 C 0.5323 0.86168 0.68833 0.0
C2816 C 0.48923 0.89354 0.65326 0.0
C2817 C 0.5012 0.86912 0.6677 0.0
C2818 C 0.47421 0.89791 0.64315 0.0
C2819 C 0.45492 0.88287 0.63679 0.0
C2820 C 0.48512 0.87392 0.65733 0.0
C2821 C 0.45123 0.86336 0.64181 0.0
C2822 C 0.49756 0.84963 0.67322 0.0
C2823 C 0.53534 0.88087 0.68232 0.0
N2824 N 0.46621 0.85944 0.65164 0.0
N2825 N 0.51999 0.88404 0.67237 0.0
H2826 H 0.23827 0.43334 0.18888 0.0
H2827 H 0.35496 0.51133 0.14855 0.0
H2828 H 0.26229 0.49568 0.19286 0.0
H2829 H 0.32874 0.44971 0.13544 0.0
H2830 H 0.32171 0.50604 0.16772 0.0
H2831 H 0.2716 0.43917 0.17164 0.0
C2832 C 0.2506 0.4483 0.18632 0.0
C2833 C 0.24743 0.46402 0.19278 0.0
C2834 C 0.32322 0.49364 0.16088 0.0
C2835 C 0.28592 0.47086 0.17256 0.0
C2836 C 0.34216 0.49665 0.15019 0.0
C2837 C 0.34445 0.48087 0.1408 0.0
C2838 C 0.30648 0.47469 0.16215 0.0
C2839 C 0.32752 0.46217 0.1428 0.0
C2840 C 0.26967 0.45163 0.17626 0.0
C2841 C 0.26399 0.48312 0.1881 0.0
N2842 N 0.30925 0.4596 0.15324 0.0
N2843 N 0.28253 0.48599 0.17847 0.0
H2844 H 0.5191 0.85924 0.17388 0.0
H2845 H 0.56244 0.7887 0.13378 0.0
H2846 H 0.56999 0.87803 0.09897 0.0
H2847 H 0.54576 0.79102 0.24456 0.0
H2848 H 0.55735 0.81669 0.1139 0.0
H2849 H 0.5215 0.82962 0.19475 0.0
C2850 C 0.53063 0.85703 0.16168 0.0
C2851 C 0.54411 0.87086 0.13417 0.0
C2852 C 0.5546 0.81091 0.14248 0.0
C2853 C 0.54667 0.8371 0.15723 0.0
C2854 C 0.55734 0.79489 0.15375 0.0
C2855 C 0.55444 0.78757 0.19079 0.0
C2856 C 0.54849 0.81937 0.1683 0.0
C2857 C 0.54811 0.79628 0.21574 0.0
C2858 C 0.532 0.84022 0.17358 0.0
C2859 C 0.55899 0.86748 0.11959 0.0
N2860 N 0.54522 0.81169 0.20403 0.0
N2861 N 0.5597 0.85084 0.1309 0.0
H2862 H 0.21822 0.7867 0.17214 0.0
H2863 H 0.17218 0.67028 0.20117 0.0
H2864 H 0.25091 0.76013 0.22362 0.0
H2865 H 0.15081 0.70003 0.12427 0.0
H2866 H 0.20048 0.70232 0.21214 0.0
H2867 H 0.19264 0.75449 0.15689 0.0
C2868 C 0.22002 0.77401 0.18005 0.0
C2869 C 0.23663 0.77602 0.19924 0.0
C2870 C 0.18959 0.70175 0.19281 0.0
C2871 C 0.20722 0.73892 0.18221 0.0
C2872 C 0.17343 0.68346 0.18645 0.0
C2873 C 0.1588 0.68234 0.16209 0.0
C2874 C 0.1911 0.71906 0.17486 0.0
C2875 C 0.16127 0.70003 0.14406 0.0
C2876 C 0.20543 0.75561 0.17129 0.0
C2877 C 0.23833 0.75915 0.20866 0.0
N2878 N 0.17695 0.71755 0.15098 0.0
N2879 N 0.22366 0.74121 0.20039 0.0
H2880 H 0.29967 0.30041 0.03015 0.0
H2881 H 0.35161 0.39241 0.14708 0.0
H2882 H 0.31297 0.29493 0.14323 0.0
H2883 H 0.35959 0.39834 0.02926 0.0
H2884 H 0.33353 0.35676 0.14684 0.0
H2885 H 0.31741 0.3363 0.03013 0.0
C2886 C 0.3062 0.30675 0.05506 0.0
C2887 C 0.3048 0.29461 0.08677 0.0
C2888 C 0.33926 0.3659 0.12106 0.0
C2889 C 0.32508 0.33574 0.08694 0.0
C2890 C 0.34976 0.38636 0.12109 0.0
C2891 C 0.35751 0.39874 0.08812 0.0
C2892 C 0.33606 0.35751 0.08782 0.0
C2893 C 0.35382 0.38966 0.0554 0.0
C2894 C 0.31644 0.32724 0.05494 0.0
C2895 C 0.31378 0.3037 0.11812 0.0
N2896 N 0.34337 0.36968 0.0561 0.0
N2897 N 0.32341 0.32367 0.11749 0.0
H2898 H 0.64546 0.95923 0.11408 0.0
H2899 H 0.74471 0.06134 0.06969 0.0
H2900 H 0.64715 1.00474 0.03578 0.0
H2901 H 0.74705 1.0073 0.08156 0.0
H2902 H 0.70791 0.04216 0.07103 0.0
H2903 H 0.68193 0.97782 0.11473 0.0
C2904 C 0.65328 0.97296 0.09673 0.0
C2905 C 0.64276 0.98018 0.07468 0.0
C2906 C 0.71651 0.03454 0.07359 0.0
C2907 C 0.68479 1.002 0.07692 0.0
C2908 C 0.73742 0.04543 0.07299 0.0
C2909 C 0.74888 0.03586 0.07524 0.0
C2910 C 0.70694 0.01391 0.07752 0.0
C2911 C 0.73874 0.01521 0.07977 0.0
C2912 C 0.67419 0.98364 0.09749 0.0
C2913 C 0.65418 0.99853 0.0539 0.0
N2914 N 0.71832 1.00489 0.08091 0.0
N2915 N 0.67446 0.00883 0.05579 0.0
H2916 H 0.023 0.71575 0.11366 0.0
H2917 H 0.01647 0.61285 0.08012 0.0
H2918 H 0.96978 0.66732 0.07706 0.0
H2919 H 0.07048 0.66414 0.10523 0.0
H2920 H 0.99849 0.63174 0.08053 0.0
H2921 H 0.03988 0.69625 0.11322 0.0
C2922 C 0.01482 0.70101 0.10545 0.0
C2923 C 0.99491 0.69332 0.09504 0.0
C2924 C 0.0143 0.63891 0.08569 0.0
C2925 C 0.0143 0.67065 0.09477 0.0
C2926 C 0.02454 0.62816 0.08528 0.0
C2927 C 0.045 0.6371 0.09208 0.0
C2928 C 0.02459 0.65867 0.09337 0.0
C2929 C 0.05476 0.65684 0.09931 0.0
C2930 C 0.0245 0.68982 0.10531 0.0
C2931 C 0.98505 0.67388 0.08553 0.0
N2932 N 0.04449 0.66693 0.09981 0.0
N2933 N 0.99486 0.66327 0.08548 0.0
H2934 H 0.31136 0.34714 0.4285 0.0
H2935 H 0.41545 0.34757 0.39715 0.0
H2936 H 0.31533 0.29695 0.39918 0.0
H2937 H 0.41199 0.3987 0.42089 0.0
H2938 H 0.37872 0.3284 0.40065 0.0
H2939 H 0.34793 0.36596 0.42761 0.0
C2940 C 0.31985 0.34006 0.42157 0.0
C2941 C 0.31004 0.32033 0.41377 0.0
C2942 C 0.38593 0.34376 0.40541 0.0
C2943 C 0.35222 0.34189 0.41335 0.0
C2944 C 0.40687 0.35464 0.40366 0.0
C2945 C 0.41668 0.37462 0.4093 0.0
C2946 C 0.37462 0.35294 0.41262 0.0
C2947 C 0.40494 0.38325 0.41685 0.0
C2948 C 0.3408 0.35083 0.42136 0.0
C2949 C 0.32206 0.31198 0.4058 0.0
N2950 N 0.38454 0.37238 0.41826 0.0
N2951 N 0.34242 0.32277 0.40577 0.0
H2952 H 0.64394 1.0037 0.46216 0.0
H2953 H 0.74409 1.0018 0.42235 0.0
H2954 H 0.68927 0.04715 0.38322 0.0
H2955 H 0.68771 0.94776 0.43464 0.0
H2956 H 0.72587 0.02035 0.41801 0.0
H2957 H 0.66117 0.98444 0.46242 0.0
C2958 C 0.65735 0.00929 0.44466 0.0
C2959 C 0.66492 0.02735 0.42254 0.0
C2960 C 0.7175 1.00443 0.42135 0.0
C2961 C 0.68518 1.00537 0.42408 0.0
C2962 C 0.72786 0.99383 0.42358 0.0
C2963 C 0.71738 0.97317 0.42798 0.0
C2964 C 0.69649 0.99437 0.42488 0.0
C2965 C 0.69633 0.96365 0.43075 0.0
C2966 C 0.66724 0.99822 0.44509 0.0
C2967 C 0.68286 0.03372 0.40147 0.0
N2968 N 0.68656 0.97431 0.42954 0.0
N2969 N 0.6924 0.02288 0.40305 0.0
H2970 H 0.01691 0.72032 0.48048 0.0
H2971 H 0.96175 0.62743 0.36647 0.0
H2972 H 0.02282 0.72527 0.36244 0.0
H2973 H 0.97672 0.62248 0.47861 0.0
H2974 H 0.97998 0.66336 0.36561 0.0
H2975 H 0.99842 0.68462 0.48125 0.0
C2976 C 0.01453 0.71405 0.45465 0.0
C2977 C 0.02178 0.72617 0.42131 0.0
C2978 C 0.97926 0.65441 0.3904 0.0
C2979 C 0.99986 0.68489 0.4222 0.0
C2980 C 0.96874 0.6339 0.39101 0.0
C2981 C 0.96767 0.62189 0.42269 0.0
C2982 C 0.98853 0.66308 0.4219 0.0
C2983 C 0.97726 0.63114 0.45354 0.0
C2984 C 1.00379 0.69356 0.45521 0.0
C2985 C 0.01743 0.7168 0.38887 0.0
N2986 N 0.98716 0.65114 0.45244 0.0
N2987 N 1.00676 0.69681 0.39015 0.0
H2988 H 0.69949 0.61973 0.94125 0.0
H2989 H 0.71701 0.7255 0.86365 0.0
H2990 H 0.6579 0.62739 0.87138 0.0
H2991 H 0.73684 0.71543 0.96915 0.0
H2992 H 0.69987 0.68992 0.85875 0.0
H2993 H 0.71754 0.65519 0.9454 0.0
C2994 C 0.694 0.62869 0.92689 0.0
C2995 C 0.67697 0.62022 0.90587 0.0
C2996 C 0.70804 0.69553 0.8829 0.0
C2997 C 0.69818 0.66114 0.9097 0.0
C2998 C 0.71791 0.7158 0.88559 0.0
C2999 C 0.7283 0.72338 0.91689 0.0
C3000 C 0.70891 0.68278 0.91137 0.0
C3001 C 0.72887 0.71015 0.94468 0.0
C3002 C 0.70447 0.64901 0.92913 0.0
C3003 C 0.6711 0.633 0.88727 0.0
N3004 N 0.7194 0.69051 0.94121 0.0
N3005 N 0.68173 0.65273 0.88946 0.0
H3006 H 0.28967 0.01515 0.86963 0.0
H3007 H 0.39157 0.05977 0.97693 0.0
H3008 H 0.29124 0.01241 0.98739 0.0
H3009 H 0.38978 0.06553 0.85922 0.0
H3010 H 0.35491 0.0434 0.98144 0.0
H3011 H 0.32627 0.03453 0.86532 0.0
C3012 C 0.29764 0.01874 0.8946 0.0
C3013 C 0.2872 0.01194 0.92894 0.0
C3014 C 0.36255 0.04831 0.95462 0.0
C3015 C 0.32936 0.03403 0.92418 0.0
C3016 C 0.38354 0.05778 0.95203 0.0
C3017 C 0.39392 0.06395 0.91763 0.0
C3018 C 0.35175 0.04493 0.92261 0.0
C3019 C 0.38253 0.06071 0.88635 0.0
C3020 C 0.31861 0.02974 0.89212 0.0
C3021 C 0.29854 0.01694 0.96029 0.0
N3022 N 0.36215 0.0514 0.88959 0.0
N3023 N 0.31891 0.02758 0.95716 0.0
H3024 H 0.02258 0.30348 0.86719 0.0
H3025 H 0.93248 0.31681 0.93986 0.0
H3026 H 0.99114 0.2743 0.97087 0.0
H3027 H 0.98397 0.36375 0.87707 0.0
H3028 H 0.95006 0.29774 0.9454 0.0
H3029 H 1.00432 0.32201 0.8629 0.0
C3030 C 0.01168 0.30084 0.88886 0.0
C3031 C 1.00838 0.28736 0.91944 0.0
C3032 C 0.95741 0.31223 0.9304 0.0
C3033 C 0.98733 0.30838 0.91459 0.0
C3034 C 0.94745 0.32326 0.92738 0.0
C3035 C 0.95652 0.34206 0.90765 0.0
C3036 C 0.97645 0.3198 0.91302 0.0
C3037 C 0.97591 0.34922 0.89165 0.0
C3038 C 1.00138 0.3115 0.88652 0.0
C3039 C 0.99419 0.28464 0.94692 0.0
N3040 N 0.98507 0.33805 0.8944 0.0
N3041 N 0.98408 0.29495 0.94376 0.0
H3042 H 0.72576 0.70311 0.54467 0.0
H3043 H 0.62638 0.68797 0.64218 0.0
H3044 H 0.72651 0.74694 0.60937 0.0
H3045 H 0.6261 0.66566 0.53894 0.0
H3046 H 0.66313 0.70721 0.63601 0.0
H3047 H 0.68933 0.68662 0.54753 0.0
C3048 C 0.71843 0.7095 0.55917 0.0
C3049 C 0.72958 0.72675 0.57645 0.0
C3050 C 0.655 0.69824 0.61458 0.0
C3051 C 0.68743 0.70722 0.58083 0.0
C3052 C 0.63409 0.68724 0.61811 0.0
C3053 C 0.62324 0.67526 0.59097 0.0
C3054 C 0.66517 0.69686 0.58414 0.0
C3055 C 0.63392 0.67483 0.56032 0.0
C3056 C 0.69751 0.69991 0.56093 0.0
C3057 C 0.7188 0.73363 0.59595 0.0
N3058 N 0.65431 0.68528 0.55794 0.0
N3059 N 0.69837 0.72379 0.59779 0.0
H3060 H 0.28913 1.00382 0.50808 0.0
H3061 H 0.33362 0.9504 0.64403 0.0
H3062 H 0.28646 1.0036 0.62552 0.0
H3063 H 0.3431 0.95807 0.52647 0.0
H3064 H 0.31414 0.96753 0.63806 0.0
H3065 H 0.30646 0.98469 0.51469 0.0
C3066 C 0.29222 0.99982 0.53533 0.0
C3067 C 0.28647 1.00562 0.56627 0.0
C3068 C 0.32044 0.96542 0.61357 0.0
C3069 C 0.30623 0.98331 0.57404 0.0
C3070 C 0.3317 0.95572 0.61693 0.0
C3071 C 0.34024 0.95282 0.58572 0.0
C3072 C 0.31754 0.97229 0.57872 0.0
C3073 C 0.33672 0.9597 0.55134 0.0
C3074 C 0.30207 0.98877 0.53906 0.0
C3075 C 0.29047 0.99944 0.60086 0.0
N3076 N 0.32574 0.96913 0.54881 0.0
N3077 N 0.30017 0.98873 0.60378 0.0
H3078 H 0.08293 0.39522 0.55563 0.0
H3079 H 0.99487 0.28962 0.63469 0.0
H3080 H 0.03401 0.38753 0.62667 0.0
H3081 H 0.02542 0.29906 0.53 0.0
H3082 H 0.01298 0.32524 0.63863 0.0
H3083 H 0.06548 0.35975 0.55142 0.0
C3084 C 0.06853 0.38624 0.57022 0.0
C3085 C 0.0601 0.39469 0.59167 0.0
C3086 C 0.01573 0.3195 0.61483 0.0
C3087 C 0.04033 0.35378 0.58769 0.0
C3088 C 1.00551 0.29919 0.61269 0.0
C3089 C 1.00862 0.29139 0.58194 0.0
C3090 C 0.02947 0.33211 0.58636 0.0
C3091 C 0.02248 0.30449 0.55405 0.0
C3092 C 0.05865 0.36592 0.56793 0.0
C3093 C 0.04151 0.38192 0.61048 0.0
N3094 N 0.03248 0.32419 0.557 0.0
N3095 N 0.03238 0.36219 0.60822 0.0
H3096 H 0.97905 0.68084 0.70818 0.0
H3097 H 0.08164 0.68515 0.75129 0.0
H3098 H 0.98174 0.63822 0.788 0.0
H3099 H 0.07848 0.73879 0.74031 0.0
H3100 H 0.04493 0.66622 0.75428 0.0
H3101 H 0.01547 0.70124 0.70953 0.0
C3102 C 0.98707 0.67568 0.72613 0.0
C3103 C 0.97691 0.65744 0.74774 0.0
C3104 C 0.05228 0.68213 0.75153 0.0
C3105 C 0.01889 0.68067 0.74827 0.0
C3106 C 0.07318 0.69293 0.75007 0.0
C3107 C 0.08308 0.71357 0.74646 0.0
C3108 C 0.04112 0.69199 0.74803 0.0
C3109 C 0.07137 0.7229 0.74365 0.0
C3110 C 1.00794 0.68739 0.72667 0.0
C3111 C 0.9886 0.6517 0.76983 0.0
N3112 N 0.05098 0.71204 0.7441 0.0
N3113 N 1.00887 0.66311 0.76916 0.0
H3114 H 0.31031 0.34057 0.73585 0.0
H3115 H 0.4115 0.33898 0.7862 0.0
H3116 H 0.36185 0.39033 0.7734 0.0
H3117 H 0.36415 0.2945 0.72987 0.0
H3118 H 0.39341 0.35777 0.78365 0.0
H3119 H 0.32928 0.32294 0.73628 0.0
C3120 C 0.32557 0.34775 0.74449 0.0
C3121 C 0.33443 0.36699 0.75472 0.0
C3122 C 0.38705 0.34401 0.7715 0.0
C3123 C 0.35642 0.34684 0.75493 0.0
C3124 C 0.39742 0.33337 0.77283 0.0
C3125 C 0.38938 0.3154 0.75773 0.0
C3126 C 0.36837 0.33642 0.75544 0.0
C3127 C 0.37092 0.30848 0.74133 0.0
C3128 C 0.33647 0.33772 0.74442 0.0
C3129 C 0.35442 0.3756 0.76502 0.0
N3130 N 0.361 0.31894 0.74076 0.0
N3131 N 0.36469 0.36547 0.765 0.0
H3132 H 0.6192 0.95826 0.70799 0.0
H3133 H 0.7118 0.05257 0.7768 0.0
H3134 H 0.65303 0.95421 0.7993 0.0
H3135 H 0.66283 0.05545 0.72431 0.0
H3136 H 0.69319 0.01662 0.77798 0.0
H3137 H 0.63735 0.99398 0.70724 0.0
C3138 C 0.63024 0.96472 0.72819 0.0
C3139 C 0.63438 0.95287 0.75388 0.0
C3140 C 0.68654 0.02513 0.76618 0.0
C3141 C 0.6558 0.99413 0.75212 0.0
C3142 C 0.6972 0.04564 0.76523 0.0
C3143 C 0.68885 0.05702 0.75039 0.0
C3144 C 0.66752 0.01591 0.75157 0.0
C3145 C 0.66977 0.04723 0.73618 0.0
C3146 C 0.64073 0.98521 0.72746 0.0
C3147 C 0.64941 0.96249 0.7785 0.0
N3148 N 0.6598 0.02727 0.7369 0.0
N3149 N 0.65961 0.98249 0.77684 0.0
H3150 H 0.35182 0.96194 0.18372 0.0
H3151 H 0.38877 0.04817 0.31541 0.0
H3152 H 0.33676 0.95173 0.29987 0.0
H3153 H 0.3935 0.05867 0.19746 0.0
H3154 H 0.3721 0.01287 0.31046 0.0
H3155 H 0.36943 0.99731 0.18855 0.0
C3156 C 0.35209 0.96706 0.21025 0.0
C3157 C 0.3426 0.95363 0.2414 0.0
C3158 C 0.37678 0.02289 0.28565 0.0
C3159 C 0.36318 0.99438 0.24715 0.0
C3160 C 0.38624 0.04312 0.28841 0.0
C3161 C 0.3925 0.05661 0.2568 0.0
C3162 C 0.3736 0.0159 0.25101 0.0
C3163 C 0.38918 0.04898 0.22265 0.0
C3164 C 0.36228 0.98732 0.21298 0.0
C3165 C 0.34399 0.96135 0.27511 0.0
N3166 N 0.37996 0.0292 0.22069 0.0
N3167 N 0.35403 0.98114 0.27705 0.0
H3168 H 0.96122 0.3448 0.31582 0.0
H3169 H 0.05998 0.40208 0.18208 0.0
H3170 H 0.95957 0.3489 0.19806 0.0
H3171 H 0.06093 0.39325 0.2996 0.0
H3172 H 0.02335 0.38475 0.18726 0.0
H3173 H 0.99764 0.36466 0.31018 0.0
C3174 C 0.9685 0.34983 0.2887 0.0
C3175 C 0.9572 0.34489 0.25735 0.0
C3176 C 0.03157 0.38667 0.21192 0.0
C3177 C 0.99921 0.36799 0.2507 0.0
C3178 C 0.05254 0.39649 0.20901 0.0
C3179 C 0.06372 0.39908 0.24045 0.0
C3180 C 0.02155 0.37933 0.24654 0.0
C3181 C 0.05309 0.39183 0.27459 0.0
C3182 C 0.98936 0.36129 0.28552 0.0
C3183 C 0.96757 0.35235 0.223 0.0
N3184 N 0.03268 0.38226 0.27667 0.0
N3185 N 0.98796 0.3634 0.2206 0.0
H3186 H 0.65602 0.60125 0.23355 0.0
H3187 H 0.66104 0.70574 0.22958 0.0
H3188 H 0.70962 0.65422 0.25443 0.0
H3189 H 0.60542 0.65123 0.24974 0.0
H3190 H 0.67921 0.68723 0.23194 0.0
H3191 H 0.63733 0.61939 0.2323 0.0
C3192 C 0.66388 0.61672 0.23761 0.0
C3193 C 0.68443 0.62622 0.24411 0.0
C3194 C 0.66303 0.67929 0.23598 0.0
C3195 C 0.66315 0.64707 0.24263 0.0
C3196 C 0.65264 0.68985 0.2345 0.0
C3197 C 0.63166 0.68002 0.23945 0.0
C3198 C 0.65241 0.65867 0.24184 0.0
C3199 C 0.62159 0.6594 0.24603 0.0
C3200 C 0.65318 0.62702 0.23718 0.0
C3201 C 0.69379 0.64626 0.24959 0.0
N3202 N 0.63203 0.64939 0.24672 0.0
N3203 N 0.68313 0.65601 0.24851 0.0
loop_
_geom_bond_atom_site_label_1
_geom_bond_atom_site_label_2
_geom_bond_distance
_geom_bond_site_symmetry_2
_ccdc_geom_bond_type
C0 C1 1.443 . S
C0 N4 1.376 . S
C0 C38 1.389 . S
C1 C0 1.443 . S
C1 C2 1.340 . S
C1 H41 0.951 . S
C2 C1 1.340 . S
C2 C3 1.439 . S
C2 H42 0.950 1_554 S
C3 C2 1.439 . S
C3 N4 1.374 . S
C3 C37 1.395 . S
N4 C0 1.376 . S
N4 C3 1.374 . S
N4 Co5 2.008 . S
Co5 N4 2.008 . S
Co5 N6 1.995 . S
Co5 N11 2.008 . S
Co5 N16 1.995 . S
Co5 N21 2.282 . S
Co5 N27 2.282 . S
N6 Co5 1.995 . S
N6 C7 1.376 . S
N6 C10 1.383 . S
C7 N6 1.376 . S
C7 C8 1.446 . S
C7 C37 1.391 . S
C8 C7 1.446 . S
C8 C9 1.339 . S
C8 H43 0.949 . S
C9 C8 1.339 . S
C9 C10 1.439 . S
C9 H44 0.950 . S
C10 N6 1.383 . S
C10 C9 1.439 . S
C10 C39 1.392 . S
N11 Co5 2.008 . S
N11 C12 1.376 . S
N11 C15 1.374 . S
C12 N11 1.376 . S
C12 C13 1.443 . S
C12 C39 1.389 . S
C13 C12 1.443 . S
C13 C14 1.340 . S
C13 H45 0.951 . S
C14 C13 1.340 . S
C14 C15 1.439 . S
C14 H46 0.950 . S
C15 N11 1.374 . S
C15 C14 1.439 . S
C15 C40 1.395 . S
N16 Co5 1.995 . S
N16 C17 1.376 . S
N16 C20 1.383 . S
C17 N16 1.376 . S
C17 C18 1.446 . S
C17 C40 1.391 . S
C18 C17 1.446 . S
C18 C19 1.339 . S
C18 H47 0.949 . S
C19 C18 1.339 . S
C19 C20 1.439 . S
C19 H48 0.950 . S
C20 N16 1.383 . S
C20 C19 1.439 . S
C20 C38 1.392 . S
N21 Co5 2.282 . S
N21 C24 1.332 . S
N21 C26 1.332 . S
C22 C23 1.386 . S
C22 C25 1.388 . S
C23 C22 1.386 . S
C23 C24 1.382 . S
C23 H49 0.950 . S
C24 N21 1.332 . S
C24 C23 1.382 . S
C24 H35 0.952 . S
C25 C22 1.388 . S
C25 C26 1.382 . S
C25 H50 0.950 . S
C26 N21 1.332 . S
C26 C25 1.382 . S
C26 H36 0.948 . S
N27 Co5 2.282 . S
N27 C31 1.332 . S
N27 C32 1.332 . S
C28 C29 1.388 . S
C28 C32 1.382 . S
C28 H51 0.950 . S
C29 C28 1.388 . S
C29 C30 1.386 . S
C30 C29 1.386 . S
C30 C31 1.382 . S
C30 H52 0.950 . S
C31 N27 1.332 . S
C31 C30 1.382 . S
C31 H33 0.952 . S
C32 N27 1.332 . S
C32 C28 1.382 . S
C32 H34 0.948 . S
H33 C31 0.952 . S
H34 C32 0.948 . S
H35 C24 0.952 . S
H36 C26 0.948 . S
C37 C3 1.395 . S
C37 C7 1.391 . S
C38 C0 1.389 . S
C38 C20 1.392 . S
C39 C10 1.392 . S
C39 C12 1.389 . S
C40 C15 1.395 . S
C40 C17 1.391 . S
H41 C1 0.951 . S
H42 C2 0.950 1_556 S
H43 C8 0.949 . S
H44 C9 0.950 . S
H45 C13 0.951 . S
H46 C14 0.950 . S
H47 C18 0.949 . S
H48 C19 0.950 . S
H49 C23 0.950 . S
H50 C25 0.950 . S
H51 C28 0.950 . S
H52 C30 0.950 . S
C53 C54 1.443 . S
C53 N57 1.376 . S
C53 C91 1.389 . S
C54 C53 1.443 . S
C54 C55 1.340 . S
C54 H94 0.951 . S
C55 C54 1.340 . S
C55 C56 1.439 . S
C55 H95 0.950 . S
C56 C55 1.439 . S
C56 N57 1.374 . S
C56 C90 1.395 . S
N57 C53 1.376 . S
N57 C56 1.374 . S
N57 Co58 2.008 . S
Co58 N57 2.008 . S
Co58 N59 1.995 . S
Co58 N64 2.008 . S
Co58 N69 1.995 . S
Co58 N74 2.282 . S
Co58 N80 2.282 . S
N59 Co58 1.995 . S
N59 C60 1.376 . S
N59 C63 1.383 . S
C60 N59 1.376 . S
C60 C61 1.446 . S
C60 C90 1.391 . S
C61 C60 1.446 . S
C61 C62 1.339 . S
C61 H96 0.949 . S
C62 C61 1.339 . S
C62 C63 1.439 . S
C62 H97 0.950 . S
C63 N59 1.383 . S
C63 C62 1.439 . S
C63 C92 1.392 . S
N64 Co58 2.008 . S
N64 C65 1.376 . S
N64 C68 1.374 . S
C65 N64 1.376 . S
C65 C66 1.443 . S
C65 C92 1.389 . S
C66 C65 1.443 . S
C66 C67 1.340 1_554 S
C66 H98 0.951 . S
C67 C66 1.340 1_556 S
C67 C68 1.439 1_556 S
C67 H99 0.950 . S
C68 N64 1.374 . S
C68 C67 1.439 1_554 S
C68 C93 1.395 1_554 S
N69 Co58 1.995 . S
N69 C70 1.358 1_554 S
N69 C73 1.383 . S
C70 N69 1.358 1_556 S
C70 C71 1.456 . S
C70 C93 1.399 . S
C71 C70 1.456 . S
C71 C72 1.353 . S
C71 H100 0.949 . S
C72 C71 1.353 . S
C72 C73 1.419 1_556 S
C72 H101 0.954 . S
C73 N69 1.383 . S
C73 C72 1.419 1_554 S
C73 C91 1.392 . S
N74 Co58 2.282 . S
N74 C77 1.332 . S
N74 C79 1.332 . S
C75 C76 1.439 . S
C75 C78 1.401 . S
C76 C75 1.439 . S
C76 C77 1.382 . S
C76 H102 0.950 1_554 S
C77 N74 1.332 . S
C77 C76 1.382 . S
C77 H88 0.952 . S
C78 C75 1.401 . S
C78 C79 1.382 . S
C78 H103 0.950 1_545 S
C79 N74 1.332 . S
C79 C78 1.382 . S
C79 H89 0.948 . S
N80 Co58 2.282 . S
N80 C84 1.332 . S
N80 C85 1.332 . S
C81 C82 1.388 . S
C81 C85 1.382 . S
C81 H104 0.950 . S
C82 C81 1.388 . S
C82 C83 1.386 . S
C83 C82 1.386 . S
C83 C84 1.382 . S
C83 H105 0.950 . S
C84 N80 1.332 . S
C84 C83 1.382 . S
C84 H86 0.952 . S
C85 N80 1.332 . S
C85 C81 1.382 . S
C85 H87 0.948 . S
H86 C84 0.952 . S
H87 C85 0.948 . S
H88 C77 0.952 . S
H89 C79 0.948 . S
C90 C56 1.395 . S
C90 C60 1.391 . S
C91 C53 1.389 . S
C91 C73 1.392 . S
C92 C63 1.392 . S
C92 C65 1.389 . S
C93 C68 1.395 1_556 S
C93 C70 1.399 . S
H94 C54 0.951 . S
H95 C55 0.950 . S
H96 C61 0.949 . S
H97 C62 0.950 . S
H98 C66 0.951 . S
H99 C67 0.950 . S
H100 C71 0.949 . S
H101 C72 0.954 . S
H102 C76 0.950 1_556 S
H103 C78 0.950 1_565 S
H104 C81 0.950 . S
H105 C83 0.950 . S
C106 C107 1.443 . S
C106 N110 1.376 . S
C106 C144 1.389 . S
C107 C106 1.443 . S
C107 C108 1.340 . S
C107 H147 0.951 . S
C108 C107 1.340 . S
C108 C109 1.439 . S
C108 H148 0.950 1_554 S
C109 C108 1.439 . S
C109 N110 1.374 . S
C109 C143 1.395 . S
N110 C106 1.376 . S
N110 C109 1.374 . S
N110 Co111 2.008 . S
Co111 N110 2.008 . S
Co111 N112 1.995 . S
Co111 N117 2.008 . S
Co111 N122 1.995 . S
Co111 N127 2.282 . S
Co111 N133 2.282 . S
N112 Co111 1.995 . S
N112 C113 1.376 . S
N112 C116 1.383 . S
C113 N112 1.376 . S
C113 C114 1.446 . S
C113 C143 1.391 . S
C114 C113 1.446 . S
C114 C115 1.339 . S
C114 H149 0.949 . S
C115 C114 1.339 . S
C115 C116 1.439 . S
C115 H150 0.950 . S
C116 N112 1.383 . S
C116 C115 1.439 . S
C116 C145 1.392 . S
N117 Co111 2.008 . S
N117 C118 1.376 . S
N117 C121 1.374 . S
C118 N117 1.376 . S
C118 C119 1.443 . S
C118 C145 1.389 . S
C119 C118 1.443 . S
C119 C120 1.340 . S
C119 H151 0.951 . S
C120 C119 1.340 . S
C120 C121 1.439 . S
C120 H152 0.950 . S
C121 N117 1.374 . S
C121 C120 1.439 . S
C121 C146 1.395 . S
N122 Co111 1.995 . S
N122 C123 1.376 . S
N122 C126 1.383 . S
C123 N122 1.376 . S
C123 C124 1.446 . S
C123 C146 1.391 . S
C124 C123 1.446 . S
C124 C125 1.339 . S
C124 H153 0.949 . S
C125 C124 1.339 . S
C125 C126 1.439 . S
C125 H154 0.950 1_655 S
C126 N122 1.383 . S
C126 C125 1.439 . S
C126 C144 1.392 . S
N127 Co111 2.282 . S
N127 C130 1.332 . S
N127 C132 1.332 . S
C128 C129 1.386 . S
C128 C131 1.388 . S
C129 C128 1.386 . S
C129 C130 1.382 . S
C129 H155 0.950 . S
C130 N127 1.332 . S
C130 C129 1.382 . S
C130 H141 0.952 . S
C131 C128 1.388 . S
C131 C132 1.382 . S
C131 H156 0.950 . S
C132 N127 1.332 . S
C132 C131 1.382 . S
C132 H142 0.948 . S
N133 Co111 2.282 . S
N133 C137 1.332 . S
N133 C138 1.332 . S
C134 C135 1.388 . S
C134 C138 1.382 . S
C134 H157 0.950 . S
C135 C134 1.388 . S
C135 C136 1.386 . S
C136 C135 1.386 . S
C136 C137 1.382 . S
C136 H158 0.950 . S
C137 N133 1.332 . S
C137 C136 1.382 . S
C137 H139 0.952 . S
C138 N133 1.332 . S
C138 C134 1.382 . S
C138 H140 0.948 . S
H139 C137 0.952 . S
H140 C138 0.948 . S
H141 C130 0.952 . S
H142 C132 0.948 . S
C143 C109 1.395 . S
C143 C113 1.391 . S
C144 C106 1.389 . S
C144 C126 1.392 . S
C145 C116 1.392 . S
C145 C118 1.389 . S
C146 C121 1.395 . S
C146 C123 1.391 . S
H147 C107 0.951 . S
H148 C108 0.950 1_556 S
H149 C114 0.949 . S
H150 C115 0.950 . S
H151 C119 0.951 . S
H152 C120 0.950 . S
H153 C124 0.949 . S
H154 C125 0.950 1_455 S
H155 C129 0.950 . S
H156 C131 0.950 . S
H157 C134 0.950 . S
H158 C136 0.950 . S
C159 C160 1.443 . S
C159 N163 1.376 . S
C159 C197 1.389 . S
C160 C159 1.443 . S
C160 C161 1.340 . S
C160 H200 0.951 . S
C161 C160 1.340 . S
C161 C162 1.439 . S
C161 H201 0.950 . S
C162 C161 1.439 . S
C162 N163 1.374 . S
C162 C196 1.395 . S
N163 C159 1.376 . S
N163 C162 1.374 . S
N163 Co164 2.008 . S
Co164 N163 2.008 . S
Co164 N165 1.995 . S
Co164 N170 2.008 . S
Co164 N175 1.995 . S
Co164 N180 2.282 . S
Co164 N186 2.282 . S
N165 Co164 1.995 . S
N165 C166 1.376 . S
N165 C169 1.383 . S
C166 N165 1.376 . S
C166 C167 1.446 . S
C166 C196 1.391 . S
C167 C166 1.446 . S
C167 C168 1.339 . S
C167 H202 0.949 . S
C168 C167 1.339 . S
C168 C169 1.439 . S
C168 H203 0.950 . S
C169 N165 1.383 . S
C169 C168 1.439 . S
C169 C198 1.392 . S
N170 Co164 2.008 . S
N170 C171 1.376 . S
N170 C174 1.374 . S
C171 N170 1.376 . S
C171 C172 1.443 . S
C171 C198 1.389 . S
C172 C171 1.443 . S
C172 C173 1.340 . S
C172 H204 0.951 . S
C173 C172 1.340 . S
C173 C174 1.439 . S
C173 H205 0.950 . S
C174 N170 1.374 . S
C174 C173 1.439 . S
C174 C199 1.395 . S
N175 Co164 1.995 . S
N175 C176 1.376 . S
N175 C179 1.383 . S
C176 N175 1.376 . S
C176 C177 1.446 . S
C176 C199 1.391 . S
C177 C176 1.446 . S
C177 C178 1.339 . S
C177 H206 0.949 . S
C178 C177 1.339 . S
C178 C179 1.439 . S
C178 H207 0.950 . S
C179 N175 1.383 . S
C179 C178 1.439 . S
C179 C197 1.392 . S
N180 Co164 2.282 . S
N180 C183 1.332 . S
N180 C185 1.332 . S
C181 C182 1.386 . S
C181 C184 1.388 . S
C182 C181 1.386 . S
C182 C183 1.382 . S
C182 H208 0.950 . S
C183 N180 1.332 . S
C183 C182 1.382 . S
C183 H194 0.952 . S
C184 C181 1.388 . S
C184 C185 1.382 . S
C184 H209 0.950 . S
C185 N180 1.332 . S
C185 C184 1.382 . S
C185 H195 0.948 . S
N186 Co164 2.282 . S
N186 C190 1.332 . S
N186 C191 1.332 . S
C187 C188 1.388 . S
C187 C191 1.382 . S
C187 H210 0.950 . S
C188 C187 1.388 . S
C188 C189 1.386 . S
C189 C188 1.386 . S
C189 C190 1.382 . S
C189 H211 0.950 . S
C190 N186 1.332 . S
C190 C189 1.382 . S
C190 H192 0.952 . S
C191 N186 1.332 . S
C191 C187 1.382 . S
C191 H193 0.948 . S
H192 C190 0.952 . S
H193 C191 0.948 . S
H194 C183 0.952 . S
H195 C185 0.948 . S
C196 C162 1.395 . S
C196 C166 1.391 . S
C197 C159 1.389 . S
C197 C179 1.392 . S
C198 C169 1.392 . S
C198 C171 1.389 . S
C199 C174 1.395 . S
C199 C176 1.391 . S
H200 C160 0.951 . S
H201 C161 0.950 . S
H202 C167 0.949 . S
H203 C168 0.950 . S
H204 C172 0.951 . S
H205 C173 0.950 . S
H206 C177 0.949 . S
H207 C178 0.950 . S
H208 C182 0.950 . S
H209 C184 0.950 . S
H210 C187 0.950 . S
H211 C189 0.950 . S
C212 C213 1.443 . S
C212 N216 1.376 . S
C212 C250 1.389 . S
C213 C212 1.443 . S
C213 C214 1.340 . S
C213 H253 0.951 . S
C214 C213 1.340 . S
C214 C215 1.439 . S
C214 H254 0.950 . S
C215 C214 1.439 . S
C215 N216 1.374 . S
C215 C249 1.395 . S
N216 C212 1.376 . S
N216 C215 1.374 . S
N216 Co217 2.008 . S
Co217 N216 2.008 . S
Co217 N218 1.995 . S
Co217 N223 2.008 . S
Co217 N228 1.995 . S
Co217 N233 2.282 . S
Co217 N239 2.282 . S
N218 Co217 1.995 . S
N218 C219 1.376 . S
N218 C222 1.383 . S
C219 N218 1.376 . S
C219 C220 1.446 . S
C219 C249 1.391 . S
C220 C219 1.446 . S
C220 C221 1.339 . S
C220 H255 0.949 . S
C221 C220 1.339 . S
C221 C222 1.439 . S
C221 H256 0.950 . S
C222 N218 1.383 . S
C222 C221 1.439 . S
C222 C251 1.392 . S
N223 Co217 2.008 . S
N223 C224 1.376 . S
N223 C227 1.374 . S
C224 N223 1.376 . S
C224 C225 1.443 . S
C224 C251 1.389 . S
C225 C224 1.443 . S
C225 C226 1.340 . S
C225 H257 0.951 . S
C226 C225 1.340 . S
C226 C227 1.439 . S
C226 H258 0.950 . S
C227 N223 1.374 . S
C227 C226 1.439 . S
C227 C252 1.395 . S
N228 Co217 1.995 . S
N228 C229 1.376 . S
N228 C232 1.383 . S
C229 N228 1.376 . S
C229 C230 1.446 . S
C229 C252 1.391 . S
C230 C229 1.446 . S
C230 C231 1.339 . S
C230 H259 0.949 . S
C231 C230 1.339 . S
C231 C232 1.439 . S
C231 H260 0.950 . S
C232 N228 1.383 . S
C232 C231 1.439 . S
C232 C250 1.392 . S
N233 Co217 2.282 . S
N233 C236 1.332 . S
N233 C238 1.332 . S
C234 C235 1.427 . S
C234 C237 1.400 . S
C235 C234 1.427 . S
C235 C236 1.382 . S
C235 H261 0.950 . S
C236 N233 1.332 . S
C236 C235 1.382 . S
C236 H247 0.952 . S
C237 C234 1.400 . S
C237 C238 1.382 . S
C237 H262 0.950 1_565 S
C238 N233 1.332 . S
C238 C237 1.382 . S
C238 H248 0.948 . S
N239 Co217 2.282 . S
N239 C243 1.332 . S
N239 C244 1.332 . S
C240 C241 1.388 . S
C240 C244 1.382 . S
C240 H263 0.950 . S
C241 C240 1.388 . S
C241 C242 1.386 . S
C242 C241 1.386 . S
C242 C243 1.382 . S
C242 H264 0.950 . S
C243 N239 1.332 . S
C243 C242 1.382 . S
C243 H245 0.952 . S
C244 N239 1.332 . S
C244 C240 1.382 . S
C244 H246 0.948 . S
H245 C243 0.952 . S
H246 C244 0.948 . S
H247 C236 0.952 . S
H248 C238 0.948 . S
C249 C215 1.395 . S
C249 C219 1.391 . S
C250 C212 1.389 . S
C250 C232 1.392 . S
C251 C222 1.392 . S
C251 C224 1.389 . S
C252 C227 1.395 . S
C252 C229 1.391 . S
H253 C213 0.951 . S
H254 C214 0.950 . S
H255 C220 0.949 . S
H256 C221 0.950 . S
H257 C225 0.951 . S
H258 C226 0.950 . S
H259 C230 0.949 . S
H260 C231 0.950 . S
H261 C235 0.950 . S
H262 C237 0.950 1_545 S
H263 C240 0.950 . S
H264 C242 0.950 . S
C265 C266 1.443 . S
C265 N269 1.376 . S
C265 C303 1.389 . S
C266 C265 1.443 . S
C266 C267 1.340 . S
C266 H306 0.951 . S
C267 C266 1.340 . S
C267 C268 1.439 . S
C267 H307 0.950 . S
C268 C267 1.439 . S
C268 N269 1.374 . S
C268 C302 1.395 . S
N269 C265 1.376 . S
N269 C268 1.374 . S
N269 Co270 2.008 . S
Co270 N269 2.008 . S
Co270 N271 1.995 . S
Co270 N276 2.008 . S
Co270 N281 1.995 . S
Co270 N286 2.282 . S
Co270 N292 2.282 . S
N271 Co270 1.995 . S
N271 C272 1.376 . S
N271 C275 1.383 . S
C272 N271 1.376 . S
C272 C273 1.446 . S
C272 C302 1.391 . S
C273 C272 1.446 . S
C273 C274 1.339 . S
C273 H308 0.949 . S
C274 C273 1.339 . S
C274 C275 1.439 . S
C274 H309 0.950 . S
C275 N271 1.383 . S
C275 C274 1.439 . S
C275 C304 1.392 . S
N276 Co270 2.008 . S
N276 C277 1.376 . S
N276 C280 1.374 . S
C277 N276 1.376 . S
C277 C278 1.443 . S
C277 C304 1.389 . S
C278 C277 1.443 . S
C278 C279 1.340 . S
C278 H310 0.951 . S
C279 C278 1.340 . S
C279 C280 1.439 . S
C279 H311 0.950 . S
C280 N276 1.374 . S
C280 C279 1.439 . S
C280 C305 1.395 . S
N281 Co270 1.995 . S
N281 C282 1.376 . S
N281 C285 1.383 . S
C282 N281 1.376 . S
C282 C283 1.446 . S
C282 C305 1.391 . S
C283 C282 1.446 . S
C283 C284 1.339 . S
C283 H312 0.949 . S
C284 C283 1.339 . S
C284 C285 1.439 . S
C284 H313 0.950 1_455 S
C285 N281 1.383 . S
C285 C284 1.439 . S
C285 C303 1.392 . S
N286 Co270 2.282 . S
N286 C289 1.332 . S
N286 C291 1.332 . S
C287 C288 1.386 . S
C287 C290 1.388 . S
C288 C287 1.386 . S
C288 C289 1.382 . S
C288 H314 0.950 . S
C289 N286 1.332 . S
C289 C288 1.382 . S
C289 H300 0.952 . S
C290 C287 1.388 . S
C290 C291 1.382 . S
C290 H315 0.950 . S
C291 N286 1.332 . S
C291 C290 1.382 . S
C291 H301 0.948 . S
N292 Co270 2.282 . S
N292 C296 1.332 . S
N292 C297 1.332 . S
C293 C294 1.388 . S
C293 C297 1.382 . S
C293 H316 0.950 . S
C294 C293 1.388 . S
C294 C295 1.386 . S
C295 C294 1.386 . S
C295 C296 1.382 . S
C295 H317 0.950 . S
C296 N292 1.332 . S
C296 C295 1.382 . S
C296 H298 0.952 . S
C297 N292 1.332 . S
C297 C293 1.382 . S
C297 H299 0.948 . S
H298 C296 0.952 . S
H299 C297 0.948 . S
H300 C289 0.952 . S
H301 C291 0.948 . S
C302 C268 1.395 . S
C302 C272 1.391 . S
C303 C265 1.389 . S
C303 C285 1.392 . S
C304 C275 1.392 . S
C304 C277 1.389 . S
C305 C280 1.395 . S
C305 C282 1.391 . S
H306 C266 0.951 . S
H307 C267 0.950 . S
H308 C273 0.949 . S
H309 C274 0.950 . S
H310 C278 0.951 . S
H311 C279 0.950 . S
H312 C283 0.949 . S
H313 C284 0.950 1_655 S
H314 C288 0.950 . S
H315 C290 0.950 . S
H316 C293 0.950 . S
H317 C295 0.950 . S
C318 C319 1.443 . S
C318 N322 1.376 . S
C318 C356 1.389 . S
C319 C318 1.443 . S
C319 C320 1.340 . S
C319 H359 0.951 . S
C320 C319 1.340 . S
C320 C321 1.439 . S
C320 H360 0.950 . S
C321 C320 1.439 . S
C321 N322 1.374 . S
C321 C355 1.395 . S
N322 C318 1.376 . S
N322 C321 1.374 . S
N322 Co323 2.008 . S
Co323 N322 2.008 . S
Co323 N324 1.995 . S
Co323 N329 2.008 . S
Co323 N334 1.995 . S
Co323 N339 2.282 . S
Co323 N345 2.282 . S
N324 Co323 1.995 . S
N324 C325 1.376 . S
N324 C328 1.383 . S
C325 N324 1.376 . S
C325 C326 1.446 . S
C325 C355 1.391 . S
C326 C325 1.446 . S
C326 C327 1.339 . S
C326 H361 0.949 . S
C327 C326 1.339 . S
C327 C328 1.439 . S
C327 H362 0.950 . S
C328 N324 1.383 . S
C328 C327 1.439 . S
C328 C357 1.392 . S
N329 Co323 2.008 . S
N329 C330 1.376 . S
N329 C333 1.374 . S
C330 N329 1.376 . S
C330 C331 1.443 . S
C330 C357 1.389 . S
C331 C330 1.443 . S
C331 C332 1.340 . S
C331 H363 0.951 . S
C332 C331 1.340 . S
C332 C333 1.439 . S
C332 H364 0.950 . S
C333 N329 1.374 . S
C333 C332 1.439 . S
C333 C358 1.395 . S
N334 Co323 1.995 . S
N334 C335 1.376 . S
N334 C338 1.383 . S
C335 N334 1.376 . S
C335 C336 1.446 1_556 S
C335 C358 1.391 . S
C336 C335 1.446 1_554 S
C336 C337 1.339 . S
C336 H365 0.949 . S
C337 C336 1.339 . S
C337 C338 1.439 1_554 S
C337 H366 0.950 . S
C338 N334 1.383 . S
C338 C337 1.439 1_556 S
C338 C356 1.392 . S
N339 Co323 2.282 . S
N339 C342 1.332 . S
N339 C344 1.332 . S
C340 C341 1.386 . S
C340 C343 1.388 . S
C341 C340 1.386 . S
C341 C342 1.382 . S
C341 H367 0.950 . S
C342 N339 1.332 . S
C342 C341 1.382 . S
C342 H353 0.952 . S
C343 C340 1.388 . S
C343 C344 1.382 . S
C343 H368 0.950 . S
C344 N339 1.332 . S
C344 C343 1.382 . S
C344 H354 0.948 . S
N345 Co323 2.282 . S
N345 C349 1.332 . S
N345 C350 1.332 . S
C346 C347 1.388 . S
C346 C350 1.382 . S
C346 H369 0.950 . S
C347 C346 1.388 . S
C347 C348 1.386 . S
C348 C347 1.386 . S
C348 C349 1.382 . S
C348 H370 0.950 . S
C349 N345 1.332 . S
C349 C348 1.382 . S
C349 H351 0.952 . S
C350 N345 1.332 . S
C350 C346 1.382 . S
C350 H352 0.948 . S
H351 C349 0.952 . S
H352 C350 0.948 . S
H353 C342 0.952 . S
H354 C344 0.948 . S
C355 C321 1.395 . S
C355 C325 1.391 . S
C356 C318 1.389 . S
C356 C338 1.392 . S
C357 C328 1.392 . S
C357 C330 1.389 . S
C358 C333 1.395 . S
C358 C335 1.391 . S
H359 C319 0.951 . S
H360 C320 0.950 . S
H361 C326 0.949 . S
H362 C327 0.950 . S
H363 C331 0.951 . S
H364 C332 0.950 . S
H365 C336 0.949 . S
H366 C337 0.950 . S
H367 C341 0.950 . S
H368 C343 0.950 . S
H369 C346 0.950 . S
H370 C348 0.950 . S
C371 C372 1.434 1_565 S
C371 N375 1.376 . S
C371 C409 1.389 . S
C372 C371 1.434 1_545 S
C372 C373 1.336 1_545 S
C372 H412 0.962 . S
C373 C372 1.336 1_565 S
C373 C374 1.439 . S
C373 H413 0.928 1_565 S
C374 C373 1.439 . S
C374 N375 1.374 . S
C374 C408 1.395 . S
N375 C371 1.376 . S
N375 C374 1.374 . S
N375 Co376 2.008 . S
Co376 N375 2.008 . S
Co376 N377 1.995 . S
Co376 N382 2.008 . S
Co376 N387 1.989 1_556 S
Co376 N392 2.282 . S
Co376 N398 2.282 . S
N377 Co376 1.995 . S
N377 C378 1.376 . S
N377 C381 1.383 . S
C378 N377 1.376 . S
C378 C379 1.446 . S
C378 C408 1.391 . S
C379 C378 1.446 . S
C379 C380 1.339 . S
C379 H414 0.949 . S
C380 C379 1.339 . S
C380 C381 1.439 . S
C380 H415 0.950 . S
C381 N377 1.383 . S
C381 C380 1.439 . S
C381 C410 1.392 . S
N382 Co376 2.008 . S
N382 C383 1.376 . S
N382 C386 1.374 1_556 S
C383 N382 1.376 . S
C383 C384 1.443 . S
C383 C410 1.389 . S
C384 C383 1.443 . S
C384 C385 1.340 1_556 S
C384 H416 0.951 . S
C385 C384 1.340 1_554 S
C385 C386 1.439 . S
C385 H417 0.950 . S
C386 N382 1.374 1_554 S
C386 C385 1.439 . S
C386 C411 1.395 . S
N387 Co376 1.989 1_554 S
N387 C388 1.381 . S
N387 C391 1.385 . S
C388 N387 1.381 . S
C388 C389 1.446 . S
C388 C411 1.391 . S
C389 C388 1.446 . S
C389 C390 1.339 . S
C389 H418 0.949 . S
C390 C389 1.339 . S
C390 C391 1.439 . S
C390 H419 0.950 . S
C391 N387 1.385 . S
C391 C390 1.439 . S
C391 C409 1.392 1_554 S
N392 Co376 2.282 . S
N392 C395 1.332 . S
N392 C397 1.332 . S
C393 C394 1.386 1_556 S
C393 C396 1.388 . S
C394 C393 1.386 1_554 S
C394 C395 1.382 1_554 S
C394 H420 0.950 . S
C395 N392 1.332 . S
C395 C394 1.382 1_556 S
C395 H406 0.952 1_556 S
C396 C393 1.388 . S
C396 C397 1.382 . S
C396 H421 0.950 . S
C397 N392 1.332 . S
C397 C396 1.382 . S
C397 H407 0.948 . S
N398 Co376 2.282 . S
N398 C402 1.332 . S
N398 C403 1.332 . S
C399 C400 1.388 . S
C399 C403 1.382 . S
C399 H422 0.950 . S
C400 C399 1.388 . S
C400 C401 1.386 . S
C401 C400 1.386 . S
C401 C402 1.382 . S
C401 H423 0.950 . S
C402 N398 1.332 . S
C402 C401 1.382 . S
C402 H404 0.952 . S
C403 N398 1.332 . S
C403 C399 1.382 . S
C403 H405 0.948 . S
H404 C402 0.952 . S
H405 C403 0.948 . S
H406 C395 0.952 1_554 S
H407 C397 0.948 . S
C408 C374 1.395 . S
C408 C378 1.391 . S
C409 C371 1.389 . S
C409 C391 1.392 1_556 S
C410 C381 1.392 . S
C410 C383 1.389 . S
C411 C386 1.395 . S
C411 C388 1.391 . S
H412 C372 0.962 . S
H413 C373 0.928 1_545 S
H414 C379 0.949 . S
H415 C380 0.950 . S
H416 C384 0.951 . S
H417 C385 0.950 . S
H418 C389 0.949 . S
H419 C390 0.950 . S
H420 C394 0.950 . S
H421 C396 0.950 . S
H422 C399 0.950 . S
H423 C401 0.950 . S
C424 C425 1.443 1_455 S
C424 N428 1.376 . S
C424 C462 1.389 . S
C425 C424 1.443 1_655 S
C425 C426 1.340 1_655 S
C425 H465 0.951 . S
C426 C425 1.340 1_455 S
C426 C427 1.439 . S
C426 H466 0.950 . S
C427 C426 1.439 . S
C427 N428 1.374 . S
C427 C461 1.395 . S
N428 C424 1.376 . S
N428 C427 1.374 . S
N428 Co429 2.008 . S
Co429 N428 2.008 . S
Co429 N430 1.995 . S
Co429 N435 2.008 . S
Co429 N440 1.995 . S
Co429 N445 2.282 . S
Co429 N451 2.282 . S
N430 Co429 1.995 . S
N430 C431 1.376 . S
N430 C434 1.383 . S
C431 N430 1.376 . S
C431 C432 1.446 . S
C431 C461 1.391 . S
C432 C431 1.446 . S
C432 C433 1.339 . S
C432 H467 0.949 . S
C433 C432 1.339 . S
C433 C434 1.439 . S
C433 H468 0.950 . S
C434 N430 1.383 . S
C434 C433 1.439 . S
C434 C463 1.392 . S
N435 Co429 2.008 . S
N435 C436 1.376 . S
N435 C439 1.374 . S
C436 N435 1.376 . S
C436 C437 1.443 . S
C436 C463 1.389 . S
C437 C436 1.443 . S
C437 C438 1.340 . S
C437 H469 0.951 . S
C438 C437 1.340 . S
C438 C439 1.439 . S
C438 H470 0.950 1_556 S
C439 N435 1.374 . S
C439 C438 1.439 . S
C439 C464 1.395 1_556 S
N440 Co429 1.995 . S
N440 C441 1.376 1_556 S
N440 C444 1.383 . S
C441 N440 1.376 1_554 S
C441 C442 1.446 . S
C441 C464 1.391 . S
C442 C441 1.446 . S
C442 C443 1.339 . S
C442 H471 0.949 . S
C443 C442 1.339 . S
C443 C444 1.439 1_554 S
C443 H472 0.950 1_455 S
C444 N440 1.383 . S
C444 C443 1.439 1_556 S
C444 C462 1.392 . S
N445 Co429 2.282 . S
N445 C448 1.332 . S
N445 C450 1.332 . S
C446 C447 1.386 . S
C446 C449 1.388 . S
C447 C446 1.386 . S
C447 C448 1.382 . S
C447 H473 0.950 1_556 S
C448 N445 1.332 . S
C448 C447 1.382 . S
C448 H459 0.952 . S
C449 C446 1.388 . S
C449 C450 1.382 . S
C449 H474 0.950 . S
C450 N445 1.332 . S
C450 C449 1.382 . S
C450 H460 0.948 . S
N451 Co429 2.282 . S
N451 C455 1.332 . S
N451 C456 1.332 . S
C452 C453 1.388 . S
C452 C456 1.382 . S
C452 H475 0.950 . S
C453 C452 1.388 . S
C453 C454 1.386 . S
C454 C453 1.386 . S
C454 C455 1.382 . S
C454 H476 0.950 . S
C455 N451 1.332 . S
C455 C454 1.382 . S
C455 H457 0.952 . S
C456 N451 1.332 . S
C456 C452 1.382 . S
C456 H458 0.948 . S
H457 C455 0.952 . S
H458 C456 0.948 . S
H459 C448 0.952 . S
H460 C450 0.948 . S
C461 C427 1.395 . S
C461 C431 1.391 . S
C462 C424 1.389 . S
C462 C444 1.392 . S
C463 C434 1.392 . S
C463 C436 1.389 . S
C464 C439 1.395 1_554 S
C464 C441 1.391 . S
H465 C425 0.951 . S
H466 C426 0.950 . S
H467 C432 0.949 . S
H468 C433 0.950 . S
H469 C437 0.951 . S
H470 C438 0.950 1_554 S
H471 C442 0.949 . S
H472 C443 0.950 1_655 S
H473 C447 0.950 1_554 S
H474 C449 0.950 . S
H475 C452 0.950 . S
H476 C454 0.950 . S
C477 C478 1.443 . S
C477 N481 1.376 . S
C477 C515 1.389 . S
C478 C477 1.443 . S
C478 C479 1.340 . S
C478 H518 0.951 . S
C479 C478 1.340 . S
C479 C480 1.439 . S
C479 H519 0.950 . S
C480 C479 1.439 . S
C480 N481 1.374 . S
C480 C514 1.395 . S
N481 C477 1.376 . S
N481 C480 1.374 . S
N481 Co482 2.008 . S
Co482 N481 2.008 . S
Co482 N483 1.995 . S
Co482 N488 2.008 . S
Co482 N493 1.995 . S
Co482 N498 2.282 . S
Co482 N504 2.282 . S
N483 Co482 1.995 . S
N483 C484 1.376 . S
N483 C487 1.383 . S
C484 N483 1.376 . S
C484 C485 1.446 . S
C484 C514 1.391 . S
C485 C484 1.446 . S
C485 C486 1.339 . S
C485 H520 0.949 . S
C486 C485 1.339 . S
C486 C487 1.439 . S
C486 H521 0.950 . S
C487 N483 1.383 . S
C487 C486 1.439 . S
C487 C516 1.392 . S
N488 Co482 2.008 . S
N488 C489 1.376 . S
N488 C492 1.374 . S
C489 N488 1.376 . S
C489 C490 1.443 . S
C489 C516 1.389 . S
C490 C489 1.443 . S
C490 C491 1.340 . S
C490 H522 0.951 . S
C491 C490 1.340 . S
C491 C492 1.439 . S
C491 H523 0.950 . S
C492 N488 1.374 . S
C492 C491 1.439 . S
C492 C517 1.395 . S
N493 Co482 1.995 . S
N493 C494 1.376 . S
N493 C497 1.383 . S
C494 N493 1.376 . S
C494 C495 1.446 . S
C494 C517 1.391 . S
C495 C494 1.446 . S
C495 C496 1.339 . S
C495 H524 0.949 . S
C496 C495 1.339 . S
C496 C497 1.439 . S
C496 H525 0.950 . S
C497 N493 1.383 . S
C497 C496 1.439 . S
C497 C515 1.392 . S
N498 Co482 2.282 . S
N498 C501 1.332 . S
N498 C503 1.332 . S
C499 C500 1.386 . S
C499 C502 1.388 . S
C500 C499 1.386 . S
C500 C501 1.382 . S
C500 H526 0.950 . S
C501 N498 1.332 . S
C501 C500 1.382 . S
C501 H512 0.952 . S
C502 C499 1.388 . S
C502 C503 1.382 . S
C502 H527 0.950 . S
C503 N498 1.332 . S
C503 C502 1.382 . S
C503 H513 0.948 . S
N504 Co482 2.282 . S
N504 C508 1.332 . S
N504 C509 1.332 . S
C505 C506 1.388 . S
C505 C509 1.382 . S
C505 H528 0.950 . S
C506 C505 1.388 . S
C506 C507 1.386 . S
C507 C506 1.386 . S
C507 C508 1.382 . S
C507 H529 0.950 . S
C508 N504 1.332 . S
C508 C507 1.382 . S
C508 H510 0.952 . S
C509 N504 1.332 . S
C509 C505 1.382 . S
C509 H511 0.948 . S
H510 C508 0.952 . S
H511 C509 0.948 . S
H512 C501 0.952 . S
H513 C503 0.948 . S
C514 C480 1.395 . S
C514 C484 1.391 . S
C515 C477 1.389 . S
C515 C497 1.392 . S
C516 C487 1.392 . S
C516 C489 1.389 . S
C517 C492 1.395 . S
C517 C494 1.391 . S
H518 C478 0.951 . S
H519 C479 0.950 . S
H520 C485 0.949 . S
H521 C486 0.950 . S
H522 C490 0.951 . S
H523 C491 0.950 . S
H524 C495 0.949 . S
H525 C496 0.950 . S
H526 C500 0.950 . S
H527 C502 0.950 . S
H528 C505 0.950 . S
H529 C507 0.950 . S
C530 C531 1.439 1_545 S
C530 N534 1.376 . S
C530 C568 1.389 . S
C531 C530 1.439 1_565 S
C531 C532 1.335 1_565 S
C531 H571 0.959 . S
C532 C531 1.335 1_545 S
C532 C533 1.439 . S
C532 H572 0.942 1_545 S
C533 C532 1.439 . S
C533 N534 1.374 . S
C533 C567 1.395 . S
N534 C530 1.376 . S
N534 C533 1.374 . S
N534 Co535 2.008 . S
Co535 N534 2.008 . S
Co535 N536 1.995 . S
Co535 N541 2.008 . S
Co535 N546 1.995 . S
Co535 N551 2.282 . S
Co535 N557 2.282 . S
N536 Co535 1.995 . S
N536 C537 1.376 . S
N536 C540 1.383 . S
C537 N536 1.376 . S
C537 C538 1.446 . S
C537 C567 1.391 . S
C538 C537 1.446 . S
C538 C539 1.339 . S
C538 H573 0.949 . S
C539 C538 1.339 . S
C539 C540 1.439 . S
C539 H574 0.950 . S
C540 N536 1.383 . S
C540 C539 1.439 . S
C540 C569 1.392 . S
N541 Co535 2.008 . S
N541 C542 1.376 . S
N541 C545 1.374 . S
C542 N541 1.376 . S
C542 C543 1.443 . S
C542 C569 1.389 . S
C543 C542 1.443 . S
C543 C544 1.340 . S
C543 H575 0.951 . S
C544 C543 1.340 . S
C544 C545 1.439 . S
C544 H576 0.950 . S
C545 N541 1.374 . S
C545 C544 1.439 . S
C545 C570 1.395 . S
N546 Co535 1.995 . S
N546 C547 1.376 . S
N546 C550 1.383 . S
C547 N546 1.376 . S
C547 C548 1.446 . S
C547 C570 1.391 . S
C548 C547 1.446 . S
C548 C549 1.339 . S
C548 H577 0.949 . S
C549 C548 1.339 . S
C549 C550 1.439 . S
C549 H578 0.950 . S
C550 N546 1.383 . S
C550 C549 1.439 . S
C550 C568 1.392 . S
N551 Co535 2.282 . S
N551 C554 1.332 . S
N551 C556 1.332 . S
C552 C553 1.386 . S
C552 C555 1.388 . S
C553 C552 1.386 . S
C553 C554 1.382 . S
C553 H579 0.950 . S
C554 N551 1.332 . S
C554 C553 1.382 . S
C554 H565 0.952 . S
C555 C552 1.388 . S
C555 C556 1.382 . S
C555 H580 0.950 . S
C556 N551 1.332 . S
C556 C555 1.382 . S
C556 H566 0.948 . S
N557 Co535 2.282 . S
N557 C561 1.332 . S
N557 C562 1.332 . S
C558 C559 1.388 . S
C558 C562 1.382 . S
C558 H581 0.950 . S
C559 C558 1.388 . S
C559 C560 1.386 . S
C560 C559 1.386 . S
C560 C561 1.382 . S
C560 H582 0.950 . S
C561 N557 1.332 . S
C561 C560 1.382 . S
C561 H563 0.952 . S
C562 N557 1.332 . S
C562 C558 1.382 . S
C562 H564 0.948 . S
H563 C561 0.952 . S
H564 C562 0.948 . S
H565 C554 0.952 . S
H566 C556 0.948 . S
C567 C533 1.395 . S
C567 C537 1.391 . S
C568 C530 1.389 . S
C568 C550 1.392 . S
C569 C540 1.392 . S
C569 C542 1.389 . S
C570 C545 1.395 . S
C570 C547 1.391 . S
H571 C531 0.959 . S
H572 C532 0.942 1_565 S
H573 C538 0.949 . S
H574 C539 0.950 . S
H575 C543 0.951 . S
H576 C544 0.950 . S
H577 C548 0.949 . S
H578 C549 0.950 . S
H579 C553 0.950 . S
H580 C555 0.950 . S
H581 C558 0.950 . S
H582 C560 0.950 . S
C583 C584 1.443 1_655 S
C583 N587 1.376 . S
C583 C621 1.389 . S
C584 C583 1.443 1_455 S
C584 C585 1.340 1_455 S
C584 H624 0.951 . S
C585 C584 1.340 1_655 S
C585 C586 1.439 . S
C585 H625 0.950 . S
C586 C585 1.439 . S
C586 N587 1.374 . S
C586 C620 1.395 . S
N587 C583 1.376 . S
N587 C586 1.374 . S
N587 Co588 2.008 . S
Co588 N587 2.008 . S
Co588 N589 1.995 . S
Co588 N594 2.008 . S
Co588 N599 1.995 . S
Co588 N604 2.282 . S
Co588 N610 2.282 . S
N589 Co588 1.995 . S
N589 C590 1.376 . S
N589 C593 1.383 . S
C590 N589 1.376 . S
C590 C591 1.446 . S
C590 C620 1.391 . S
C591 C590 1.446 . S
C591 C592 1.339 . S
C591 H626 0.949 . S
C592 C591 1.339 . S
C592 C593 1.439 . S
C592 H627 0.950 . S
C593 N589 1.383 . S
C593 C592 1.439 . S
C593 C622 1.392 . S
N594 Co588 2.008 . S
N594 C595 1.376 . S
N594 C598 1.374 . S
C595 N594 1.376 . S
C595 C596 1.443 . S
C595 C622 1.389 . S
C596 C595 1.443 . S
C596 C597 1.340 . S
C596 H628 0.951 . S
C597 C596 1.340 . S
C597 C598 1.439 . S
C597 H629 0.950 . S
C598 N594 1.374 . S
C598 C597 1.439 . S
C598 C623 1.395 . S
N599 Co588 1.995 . S
N599 C600 1.376 . S
N599 C603 1.383 . S
C600 N599 1.376 . S
C600 C601 1.446 . S
C600 C623 1.391 . S
C601 C600 1.446 . S
C601 C602 1.339 . S
C601 H630 0.949 . S
C602 C601 1.339 . S
C602 C603 1.439 . S
C602 H631 0.950 . S
C603 N599 1.383 . S
C603 C602 1.439 . S
C603 C621 1.392 . S
N604 Co588 2.282 . S
N604 C607 1.332 . S
N604 C609 1.332 . S
C605 C606 1.386 . S
C605 C608 1.388 . S
C606 C605 1.386 . S
C606 C607 1.382 . S
C606 H632 0.950 . S
C607 N604 1.332 . S
C607 C606 1.382 . S
C607 H618 0.952 . S
C608 C605 1.388 . S
C608 C609 1.382 . S
C608 H633 0.950 . S
C609 N604 1.332 . S
C609 C608 1.382 . S
C609 H619 0.948 . S
N610 Co588 2.282 . S
N610 C614 1.332 . S
N610 C615 1.332 . S
C611 C612 1.388 . S
C611 C615 1.382 . S
C611 H634 0.950 . S
C612 C611 1.388 . S
C612 C613 1.386 . S
C613 C612 1.386 . S
C613 C614 1.382 . S
C613 H635 0.950 . S
C614 N610 1.332 . S
C614 C613 1.382 . S
C614 H616 0.952 . S
C615 N610 1.332 . S
C615 C611 1.382 . S
C615 H617 0.948 . S
H616 C614 0.952 . S
H617 C615 0.948 . S
H618 C607 0.952 . S
H619 C609 0.948 . S
C620 C586 1.395 . S
C620 C590 1.391 . S
C621 C583 1.389 . S
C621 C603 1.392 . S
C622 C593 1.392 . S
C622 C595 1.389 . S
C623 C598 1.395 . S
C623 C600 1.391 . S
H624 C584 0.951 . S
H625 C585 0.950 . S
H626 C591 0.949 . S
H627 C592 0.950 . S
H628 C596 0.951 . S
H629 C597 0.950 . S
H630 C601 0.949 . S
H631 C602 0.950 . S
H632 C606 0.950 . S
H633 C608 0.950 . S
H634 C611 0.950 . S
H635 C613 0.950 . S
C636 C637 1.443 . S
C636 N640 1.376 . S
C636 C674 1.389 . S
C637 C636 1.443 . S
C637 C638 1.340 . S
C637 H677 0.951 . S
C638 C637 1.340 . S
C638 C639 1.439 . S
C638 H678 0.950 . S
C639 C638 1.439 . S
C639 N640 1.374 . S
C639 C673 1.395 . S
N640 C636 1.376 . S
N640 C639 1.374 . S
N640 Co641 2.008 . S
Co641 N640 2.008 . S
Co641 N642 1.995 . S
Co641 N647 2.008 . S
Co641 N652 1.995 . S
Co641 N657 2.282 . S
Co641 N663 2.282 . S
N642 Co641 1.995 . S
N642 C643 1.376 . S
N642 C646 1.383 . S
C643 N642 1.376 . S
C643 C644 1.446 . S
C643 C673 1.391 . S
C644 C643 1.446 . S
C644 C645 1.339 . S
C644 H679 0.949 . S
C645 C644 1.339 . S
C645 C646 1.439 . S
C645 H680 0.950 . S
C646 N642 1.383 . S
C646 C645 1.439 . S
C646 C675 1.392 . S
N647 Co641 2.008 . S
N647 C648 1.376 . S
N647 C651 1.374 . S
C648 N647 1.376 . S
C648 C649 1.443 . S
C648 C675 1.389 . S
C649 C648 1.443 . S
C649 C650 1.340 . S
C649 H681 0.951 . S
C650 C649 1.340 . S
C650 C651 1.439 . S
C650 H682 0.950 . S
C651 N647 1.374 . S
C651 C650 1.439 . S
C651 C676 1.395 . S
N652 Co641 1.995 . S
N652 C653 1.376 . S
N652 C656 1.383 . S
C653 N652 1.376 . S
C653 C654 1.446 . S
C653 C676 1.391 . S
C654 C653 1.446 . S
C654 C655 1.339 . S
C654 H683 0.949 . S
C655 C654 1.339 . S
C655 C656 1.439 . S
C655 H684 0.950 . S
C656 N652 1.383 . S
C656 C655 1.439 . S
C656 C674 1.392 . S
N657 Co641 2.282 . S
N657 C660 1.332 . S
N657 C662 1.332 . S
C658 C659 1.386 . S
C658 C661 1.388 . S
C659 C658 1.386 . S
C659 C660 1.382 . S
C659 H685 0.950 . S
C660 N657 1.332 . S
C660 C659 1.382 . S
C660 H671 0.952 . S
C661 C658 1.388 . S
C661 C662 1.382 . S
C661 H686 0.950 . S
C662 N657 1.332 . S
C662 C661 1.382 . S
C662 H672 0.948 . S
N663 Co641 2.282 . S
N663 C667 1.332 . S
N663 C668 1.332 . S
C664 C665 1.388 . S
C664 C668 1.382 . S
C664 H687 0.950 . S
C665 C664 1.388 . S
C665 C666 1.386 . S
C666 C665 1.386 . S
C666 C667 1.382 . S
C666 H688 0.950 . S
C667 N663 1.332 . S
C667 C666 1.382 . S
C667 H669 0.952 . S
C668 N663 1.332 . S
C668 C664 1.382 . S
C668 H670 0.948 . S
H669 C667 0.952 . S
H670 C668 0.948 . S
H671 C660 0.952 . S
H672 C662 0.948 . S
C673 C639 1.395 . S
C673 C643 1.391 . S
C674 C636 1.389 . S
C674 C656 1.392 . S
C675 C646 1.392 . S
C675 C648 1.389 . S
C676 C651 1.395 . S
C676 C653 1.391 . S
H677 C637 0.951 . S
H678 C638 0.950 . S
H679 C644 0.949 . S
H680 C645 0.950 . S
H681 C649 0.951 . S
H682 C650 0.950 . S
H683 C654 0.949 . S
H684 C655 0.950 . S
H685 C659 0.950 . S
H686 C661 0.950 . S
H687 C664 0.950 . S
H688 C666 0.950 . S
C689 C690 1.443 . S
C689 N693 1.376 . S
C689 C727 1.389 . S
C690 C689 1.443 . S
C690 C691 1.340 . S
C690 H730 0.951 . S
C691 C690 1.340 . S
C691 C692 1.439 . S
C691 H731 0.950 . S
C692 C691 1.439 . S
C692 N693 1.374 . S
C692 C726 1.395 . S
N693 C689 1.376 . S
N693 C692 1.374 . S
N693 Co694 2.008 . S
Co694 N693 2.008 . S
Co694 N695 1.995 . S
Co694 N700 2.008 . S
Co694 N705 1.995 . S
Co694 N710 2.282 . S
Co694 N716 2.282 . S
N695 Co694 1.995 . S
N695 C696 1.376 . S
N695 C699 1.383 . S
C696 N695 1.376 . S
C696 C697 1.446 . S
C696 C726 1.391 . S
C697 C696 1.446 . S
C697 C698 1.339 . S
C697 H732 0.949 . S
C698 C697 1.339 . S
C698 C699 1.439 . S
C698 H733 0.950 . S
C699 N695 1.383 . S
C699 C698 1.439 . S
C699 C728 1.392 . S
N700 Co694 2.008 . S
N700 C701 1.376 . S
N700 C704 1.374 . S
C701 N700 1.376 . S
C701 C702 1.443 . S
C701 C728 1.389 . S
C702 C701 1.443 . S
C702 C703 1.340 . S
C702 H734 0.951 . S
C703 C702 1.340 . S
C703 C704 1.439 . S
C703 H735 0.950 . S
C704 N700 1.374 . S
C704 C703 1.439 . S
C704 C729 1.395 . S
N705 Co694 1.995 . S
N705 C706 1.376 . S
N705 C709 1.383 . S
C706 N705 1.376 . S
C706 C707 1.446 . S
C706 C729 1.391 . S
C707 C706 1.446 . S
C707 C708 1.339 . S
C707 H736 0.949 . S
C708 C707 1.339 . S
C708 C709 1.439 . S
C708 H737 0.950 . S
C709 N705 1.383 . S
C709 C708 1.439 . S
C709 C727 1.392 . S
N710 Co694 2.282 . S
N710 C713 1.332 . S
N710 C715 1.332 . S
C711 C712 1.386 . S
C711 C714 1.388 . S
C712 C711 1.386 . S
C712 C713 1.382 . S
C712 H738 0.950 . S
C713 N710 1.332 . S
C713 C712 1.382 . S
C713 H724 0.952 . S
C714 C711 1.388 . S
C714 C715 1.382 . S
C714 H739 0.950 . S
C715 N710 1.332 . S
C715 C714 1.382 . S
C715 H725 0.948 . S
N716 Co694 2.282 . S
N716 C720 1.332 . S
N716 C721 1.332 . S
C717 C718 1.388 . S
C717 C721 1.382 . S
C717 H740 0.950 . S
C718 C717 1.388 . S
C718 C719 1.386 . S
C719 C718 1.386 . S
C719 C720 1.382 . S
C719 H741 0.950 . S
C720 N716 1.332 . S
C720 C719 1.382 . S
C720 H722 0.952 . S
C721 N716 1.332 . S
C721 C717 1.382 . S
C721 H723 0.948 . S
H722 C720 0.952 . S
H723 C721 0.948 . S
H724 C713 0.952 . S
H725 C715 0.948 . S
C726 C692 1.395 . S
C726 C696 1.391 . S
C727 C689 1.389 . S
C727 C709 1.392 . S
C728 C699 1.392 . S
C728 C701 1.389 . S
C729 C704 1.395 . S
C729 C706 1.391 . S
H730 C690 0.951 . S
H731 C691 0.950 . S
H732 C697 0.949 . S
H733 C698 0.950 . S
H734 C702 0.951 . S
H735 C703 0.950 . S
H736 C707 0.949 . S
H737 C708 0.950 . S
H738 C712 0.950 . S
H739 C714 0.950 . S
H740 C717 0.950 . S
H741 C719 0.950 . S
C742 C743 1.443 . S
C742 N746 1.376 . S
C742 C780 1.389 . S
C743 C742 1.443 . S
C743 C744 1.340 . S
C743 H783 0.951 . S
C744 C743 1.340 . S
C744 C745 1.439 . S
C744 H784 0.950 . S
C745 C744 1.439 . S
C745 N746 1.374 . S
C745 C779 1.395 . S
N746 C742 1.376 . S
N746 C745 1.374 . S
N746 Co747 2.008 . S
Co747 N746 2.008 . S
Co747 N748 1.995 . S
Co747 N753 2.008 . S
Co747 N758 1.995 . S
Co747 N763 2.282 . S
Co747 N769 2.282 . S
N748 Co747 1.995 . S
N748 C749 1.376 . S
N748 C752 1.383 . S
C749 N748 1.376 . S
C749 C750 1.446 . S
C749 C779 1.391 . S
C750 C749 1.446 . S
C750 C751 1.339 . S
C750 H785 0.949 . S
C751 C750 1.339 . S
C751 C752 1.439 . S
C751 H786 0.950 . S
C752 N748 1.383 . S
C752 C751 1.439 . S
C752 C781 1.392 . S
N753 Co747 2.008 . S
N753 C754 1.376 . S
N753 C757 1.374 . S
C754 N753 1.376 . S
C754 C755 1.443 . S
C754 C781 1.389 . S
C755 C754 1.443 . S
C755 C756 1.340 . S
C755 H787 0.951 . S
C756 C755 1.340 . S
C756 C757 1.439 . S
C756 H788 0.950 . S
C757 N753 1.374 . S
C757 C756 1.439 . S
C757 C782 1.395 . S
N758 Co747 1.995 . S
N758 C759 1.376 . S
N758 C762 1.383 . S
C759 N758 1.376 . S
C759 C760 1.446 . S
C759 C782 1.391 . S
C760 C759 1.446 . S
C760 C761 1.339 . S
C760 H789 0.949 . S
C761 C760 1.339 . S
C761 C762 1.439 . S
C761 H790 0.950 . S
C762 N758 1.383 . S
C762 C761 1.439 . S
C762 C780 1.392 . S
N763 Co747 2.282 . S
N763 C766 1.332 . S
N763 C768 1.332 . S
C764 C765 1.386 . S
C764 C767 1.388 . S
C765 C764 1.386 . S
C765 C766 1.382 . S
C765 H791 0.950 . S
C766 N763 1.332 . S
C766 C765 1.382 . S
C766 H777 0.952 . S
C767 C764 1.388 . S
C767 C768 1.382 . S
C767 H792 0.950 . S
C768 N763 1.332 . S
C768 C767 1.382 . S
C768 H778 0.948 . S
N769 Co747 2.282 . S
N769 C773 1.332 . S
N769 C774 1.332 . S
C770 C771 1.388 . S
C770 C774 1.382 . S
C770 H793 0.950 . S
C771 C770 1.388 . S
C771 C772 1.386 . S
C772 C771 1.386 . S
C772 C773 1.382 . S
C772 H794 0.950 . S
C773 N769 1.332 . S
C773 C772 1.382 . S
C773 H775 0.952 . S
C774 N769 1.332 . S
C774 C770 1.382 . S
C774 H776 0.948 . S
H775 C773 0.952 . S
H776 C774 0.948 . S
H777 C766 0.952 . S
H778 C768 0.948 . S
C779 C745 1.395 . S
C779 C749 1.391 . S
C780 C742 1.389 . S
C780 C762 1.392 . S
C781 C752 1.392 . S
C781 C754 1.389 . S
C782 C757 1.395 . S
C782 C759 1.391 . S
H783 C743 0.951 . S
H784 C744 0.950 . S
H785 C750 0.949 . S
H786 C751 0.950 . S
H787 C755 0.951 . S
H788 C756 0.950 . S
H789 C760 0.949 . S
H790 C761 0.950 . S
H791 C765 0.950 . S
H792 C767 0.950 . S
H793 C770 0.950 . S
H794 C772 0.950 . S
C795 C796 1.443 . S
C795 N799 1.376 . S
C795 C833 1.389 . S
C796 C795 1.443 . S
C796 C797 1.340 . S
C796 H836 0.951 . S
C797 C796 1.340 . S
C797 C798 1.439 . S
C797 H837 0.950 . S
C798 C797 1.439 . S
C798 N799 1.374 . S
C798 C832 1.395 . S
N799 C795 1.376 . S
N799 C798 1.374 . S
N799 Co800 2.008 . S
Co800 N799 2.008 . S
Co800 N801 1.995 . S
Co800 N806 2.008 . S
Co800 N811 1.995 . S
Co800 N816 2.282 . S
Co800 N822 2.282 . S
N801 Co800 1.995 . S
N801 C802 1.376 . S
N801 C805 1.383 . S
C802 N801 1.376 . S
C802 C803 1.446 . S
C802 C832 1.391 . S
C803 C802 1.446 . S
C803 C804 1.339 . S
C803 H838 0.949 . S
C804 C803 1.339 . S
C804 C805 1.439 . S
C804 H839 0.950 . S
C805 N801 1.383 . S
C805 C804 1.439 . S
C805 C834 1.392 . S
N806 Co800 2.008 . S
N806 C807 1.376 . S
N806 C810 1.374 . S
C807 N806 1.376 . S
C807 C808 1.443 . S
C807 C834 1.389 . S
C808 C807 1.443 . S
C808 C809 1.340 . S
C808 H840 0.951 . S
C809 C808 1.340 . S
C809 C810 1.439 . S
C809 H841 0.950 . S
C810 N806 1.374 . S
C810 C809 1.439 . S
C810 C835 1.395 . S
N811 Co800 1.995 . S
N811 C812 1.376 . S
N811 C815 1.383 . S
C812 N811 1.376 . S
C812 C813 1.446 . S
C812 C835 1.391 . S
C813 C812 1.446 . S
C813 C814 1.339 . S
C813 H842 0.949 . S
C814 C813 1.339 . S
C814 C815 1.439 . S
C814 H843 0.950 . S
C815 N811 1.383 . S
C815 C814 1.439 . S
C815 C833 1.392 . S
N816 Co800 2.282 . S
N816 C819 1.332 . S
N816 C821 1.332 . S
C817 C818 1.386 . S
C817 C820 1.388 . S
C818 C817 1.386 . S
C818 C819 1.382 . S
C818 H844 0.950 . S
C819 N816 1.332 . S
C819 C818 1.382 . S
C819 H830 0.952 . S
C820 C817 1.388 . S
C820 C821 1.382 . S
C820 H845 0.950 . S
C821 N816 1.332 . S
C821 C820 1.382 . S
C821 H831 0.948 . S
N822 Co800 2.282 . S
N822 C826 1.332 . S
N822 C827 1.332 . S
C823 C824 1.388 . S
C823 C827 1.382 . S
C823 H846 0.950 . S
C824 C823 1.388 . S
C824 C825 1.386 . S
C825 C824 1.386 . S
C825 C826 1.382 . S
C825 H847 0.950 . S
C826 N822 1.332 . S
C826 C825 1.382 . S
C826 H828 0.952 . S
C827 N822 1.332 . S
C827 C823 1.382 . S
C827 H829 0.948 . S
H828 C826 0.952 . S
H829 C827 0.948 . S
H830 C819 0.952 . S
H831 C821 0.948 . S
C832 C798 1.395 . S
C832 C802 1.391 . S
C833 C795 1.389 . S
C833 C815 1.392 . S
C834 C805 1.392 . S
C834 C807 1.389 . S
C835 C810 1.395 . S
C835 C812 1.391 . S
H836 C796 0.951 . S
H837 C797 0.950 . S
H838 C803 0.949 . S
H839 C804 0.950 . S
H840 C808 0.951 . S
H841 C809 0.950 . S
H842 C813 0.949 . S
H843 C814 0.950 . S
H844 C818 0.950 . S
H845 C820 0.950 . S
H846 C823 0.950 . S
H847 C825 0.950 . S
C848 C849 1.443 . S
C848 N852 1.376 . S
C848 C886 1.389 . S
C849 C848 1.443 . S
C849 C850 1.340 . S
C849 H889 0.951 . S
C850 C849 1.340 . S
C850 C851 1.439 . S
C850 H890 0.950 . S
C851 C850 1.439 . S
C851 N852 1.374 . S
C851 C885 1.395 . S
N852 C848 1.376 . S
N852 C851 1.374 . S
N852 Co853 2.008 . S
Co853 N852 2.008 . S
Co853 N854 1.995 . S
Co853 N859 2.008 . S
Co853 N864 1.995 . S
Co853 N869 2.282 . S
Co853 N875 2.282 . S
N854 Co853 1.995 . S
N854 C855 1.376 . S
N854 C858 1.383 . S
C855 N854 1.376 . S
C855 C856 1.446 . S
C855 C885 1.391 . S
C856 C855 1.446 . S
C856 C857 1.339 . S
C856 H891 0.949 . S
C857 C856 1.339 . S
C857 C858 1.439 . S
C857 H892 0.950 . S
C858 N854 1.383 . S
C858 C857 1.439 . S
C858 C887 1.392 . S
N859 Co853 2.008 . S
N859 C860 1.376 . S
N859 C863 1.374 . S
C860 N859 1.376 . S
C860 C861 1.443 . S
C860 C887 1.389 . S
C861 C860 1.443 . S
C861 C862 1.340 . S
C861 H893 0.951 . S
C862 C861 1.340 . S
C862 C863 1.439 . S
C862 H894 0.950 . S
C863 N859 1.374 . S
C863 C862 1.439 . S
C863 C888 1.395 . S
N864 Co853 1.995 . S
N864 C865 1.376 . S
N864 C868 1.383 . S
C865 N864 1.376 . S
C865 C866 1.446 . S
C865 C888 1.391 . S
C866 C865 1.446 . S
C866 C867 1.339 . S
C866 H895 0.949 . S
C867 C866 1.339 . S
C867 C868 1.439 . S
C867 H896 0.950 . S
C868 N864 1.383 . S
C868 C867 1.439 . S
C868 C886 1.392 . S
N869 Co853 2.282 . S
N869 C872 1.332 . S
N869 C874 1.332 . S
C870 C871 1.386 . S
C870 C873 1.388 . S
C871 C870 1.386 . S
C871 C872 1.382 . S
C871 H897 0.950 . S
C872 N869 1.332 . S
C872 C871 1.382 . S
C872 H883 0.952 . S
C873 C870 1.388 . S
C873 C874 1.382 . S
C873 H898 0.950 . S
C874 N869 1.332 . S
C874 C873 1.382 . S
C874 H884 0.948 . S
N875 Co853 2.282 . S
N875 C879 1.332 . S
N875 C880 1.332 . S
C876 C877 1.388 . S
C876 C880 1.382 . S
C876 H899 0.950 . S
C877 C876 1.388 . S
C877 C878 1.386 . S
C878 C877 1.386 . S
C878 C879 1.382 . S
C878 H900 0.950 . S
C879 N875 1.332 . S
C879 C878 1.382 . S
C879 H881 0.952 . S
C880 N875 1.332 . S
C880 C876 1.382 . S
C880 H882 0.948 . S
H881 C879 0.952 . S
H882 C880 0.948 . S
H883 C872 0.952 . S
H884 C874 0.948 . S
C885 C851 1.395 . S
C885 C855 1.391 . S
C886 C848 1.389 . S
C886 C868 1.392 . S
C887 C858 1.392 . S
C887 C860 1.389 . S
C888 C863 1.395 . S
C888 C865 1.391 . S
H889 C849 0.951 . S
H890 C850 0.950 . S
H891 C856 0.949 . S
H892 C857 0.950 . S
H893 C861 0.951 . S
H894 C862 0.950 . S
H895 C866 0.949 . S
H896 C867 0.950 . S
H897 C871 0.950 . S
H898 C873 0.950 . S
H899 C876 0.950 . S
H900 C878 0.950 . S
C901 C902 1.443 . S
C901 N905 1.376 . S
C901 C939 1.389 . S
C902 C901 1.443 . S
C902 C903 1.340 . S
C902 H942 0.951 . S
C903 C902 1.340 . S
C903 C904 1.439 . S
C903 H943 0.950 . S
C904 C903 1.439 . S
C904 N905 1.374 . S
C904 C938 1.395 . S
N905 C901 1.376 . S
N905 C904 1.374 . S
N905 Co906 2.008 . S
Co906 N905 2.008 . S
Co906 N907 1.995 . S
Co906 N912 2.008 . S
Co906 N917 1.995 . S
Co906 N922 2.282 . S
Co906 N928 2.282 . S
N907 Co906 1.995 . S
N907 C908 1.376 . S
N907 C911 1.383 . S
C908 N907 1.376 . S
C908 C909 1.446 . S
C908 C938 1.391 . S
C909 C908 1.446 . S
C909 C910 1.339 . S
C909 H944 0.949 . S
C910 C909 1.339 . S
C910 C911 1.439 . S
C910 H945 0.950 . S
C911 N907 1.383 . S
C911 C910 1.439 . S
C911 C940 1.392 . S
N912 Co906 2.008 . S
N912 C913 1.376 . S
N912 C916 1.374 . S
C913 N912 1.376 . S
C913 C914 1.443 . S
C913 C940 1.389 . S
C914 C913 1.443 . S
C914 C915 1.340 . S
C914 H946 0.951 . S
C915 C914 1.340 . S
C915 C916 1.439 . S
C915 H947 0.950 . S
C916 N912 1.374 . S
C916 C915 1.439 . S
C916 C941 1.395 . S
N917 Co906 1.995 . S
N917 C918 1.376 . S
N917 C921 1.383 . S
C918 N917 1.376 . S
C918 C919 1.446 . S
C918 C941 1.391 . S
C919 C918 1.446 . S
C919 C920 1.339 . S
C919 H948 0.949 . S
C920 C919 1.339 . S
C920 C921 1.439 . S
C920 H949 0.950 . S
C921 N917 1.383 . S
C921 C920 1.439 . S
C921 C939 1.392 . S
N922 Co906 2.282 . S
N922 C925 1.332 . S
N922 C927 1.332 . S
C923 C924 1.386 . S
C923 C926 1.388 . S
C924 C923 1.386 . S
C924 C925 1.382 . S
C924 H950 0.950 . S
C925 N922 1.332 . S
C925 C924 1.382 . S
C925 H936 0.952 . S
C926 C923 1.388 . S
C926 C927 1.382 . S
C926 H951 0.950 . S
C927 N922 1.332 . S
C927 C926 1.382 . S
C927 H937 0.948 . S
N928 Co906 2.282 . S
N928 C932 1.332 . S
N928 C933 1.332 . S
C929 C930 1.388 . S
C929 C933 1.382 . S
C929 H952 0.950 . S
C930 C929 1.388 . S
C930 C931 1.386 . S
C931 C930 1.386 . S
C931 C932 1.382 . S
C931 H953 0.950 . S
C932 N928 1.332 . S
C932 C931 1.382 . S
C932 H934 0.952 . S
C933 N928 1.332 . S
C933 C929 1.382 . S
C933 H935 0.948 . S
H934 C932 0.952 . S
H935 C933 0.948 . S
H936 C925 0.952 . S
H937 C927 0.948 . S
C938 C904 1.395 . S
C938 C908 1.391 . S
C939 C901 1.389 . S
C939 C921 1.392 . S
C940 C911 1.392 . S
C940 C913 1.389 . S
C941 C916 1.395 . S
C941 C918 1.391 . S
H942 C902 0.951 . S
H943 C903 0.950 . S
H944 C909 0.949 . S
H945 C910 0.950 . S
H946 C914 0.951 . S
H947 C915 0.950 . S
H948 C919 0.949 . S
H949 C920 0.950 . S
H950 C924 0.950 . S
H951 C926 0.950 . S
H952 C929 0.950 . S
H953 C931 0.950 . S
C954 C955 1.443 . S
C954 N958 1.376 . S
C954 C992 1.389 . S
C955 C954 1.443 . S
C955 C956 1.340 . S
C955 H995 0.951 . S
C956 C955 1.340 . S
C956 C957 1.439 . S
C956 H996 0.950 . S
C957 C956 1.439 . S
C957 N958 1.374 . S
C957 C991 1.395 . S
N958 C954 1.376 . S
N958 C957 1.374 . S
N958 Co959 2.008 . S
Co959 N958 2.008 . S
Co959 N960 1.995 . S
Co959 N965 2.008 . S
Co959 N970 1.995 . S
Co959 N975 2.282 . S
Co959 N981 2.282 . S
N960 Co959 1.995 . S
N960 C961 1.376 . S
N960 C964 1.383 . S
C961 N960 1.376 . S
C961 C962 1.446 . S
C961 C991 1.391 . S
C962 C961 1.446 . S
C962 C963 1.339 . S
C962 H997 0.949 . S
C963 C962 1.339 . S
C963 C964 1.439 . S
C963 H998 0.950 . S
C964 N960 1.383 . S
C964 C963 1.439 . S
C964 C993 1.392 . S
N965 Co959 2.008 . S
N965 C966 1.376 . S
N965 C969 1.374 . S
C966 N965 1.376 . S
C966 C967 1.443 . S
C966 C993 1.389 . S
C967 C966 1.443 . S
C967 C968 1.340 . S
C967 H999 0.951 . S
C968 C967 1.340 . S
C968 C969 1.439 . S
C968 H1000 0.950 . S
C969 N965 1.374 . S
C969 C968 1.439 . S
C969 C994 1.395 . S
N970 Co959 1.995 . S
N970 C971 1.376 . S
N970 C974 1.383 . S
C971 N970 1.376 . S
C971 C972 1.446 . S
C971 C994 1.391 . S
C972 C971 1.446 . S
C972 C973 1.339 . S
C972 H1001 0.949 . S
C973 C972 1.339 . S
C973 C974 1.439 . S
C973 H1002 0.950 . S
C974 N970 1.383 . S
C974 C973 1.439 . S
C974 C992 1.392 . S
N975 Co959 2.282 . S
N975 C978 1.332 . S
N975 C980 1.332 . S
C976 C977 1.386 . S
C976 C979 1.388 . S
C977 C976 1.386 . S
C977 C978 1.382 . S
C977 H1003 0.950 . S
C978 N975 1.332 . S
C978 C977 1.382 . S
C978 H989 0.952 . S
C979 C976 1.388 . S
C979 C980 1.382 . S
C979 H1004 0.950 . S
C980 N975 1.332 . S
C980 C979 1.382 . S
C980 H990 0.948 . S
N981 Co959 2.282 . S
N981 C985 1.332 . S
N981 C986 1.332 . S
C982 C983 1.388 . S
C982 C986 1.382 . S
C982 H1005 0.950 . S
C983 C982 1.388 . S
C983 C984 1.386 . S
C984 C983 1.386 . S
C984 C985 1.382 . S
C984 H1006 0.950 . S
C985 N981 1.332 . S
C985 C984 1.382 . S
C985 H987 0.952 . S
C986 N981 1.332 . S
C986 C982 1.382 . S
C986 H988 0.948 . S
H987 C985 0.952 . S
H988 C986 0.948 . S
H989 C978 0.952 . S
H990 C980 0.948 . S
C991 C957 1.395 . S
C991 C961 1.391 . S
C992 C954 1.389 . S
C992 C974 1.392 . S
C993 C964 1.392 . S
C993 C966 1.389 . S
C994 C969 1.395 . S
C994 C971 1.391 . S
H995 C955 0.951 . S
H996 C956 0.950 . S
H997 C962 0.949 . S
H998 C963 0.950 . S
H999 C967 0.951 . S
H1000 C968 0.950 . S
H1001 C972 0.949 . S
H1002 C973 0.950 . S
H1003 C977 0.950 . S
H1004 C979 0.950 . S
H1005 C982 0.950 . S
H1006 C984 0.950 . S
C1007 C1008 1.443 . S
C1007 N1011 1.376 . S
C1007 C1045 1.389 . S
C1008 C1007 1.443 . S
C1008 C1009 1.340 . S
C1008 H1048 0.951 . S
C1009 C1008 1.340 . S
C1009 C1010 1.439 . S
C1009 H1049 0.950 . S
C1010 C1009 1.439 . S
C1010 N1011 1.374 . S
C1010 C1044 1.395 . S
N1011 C1007 1.376 . S
N1011 C1010 1.374 . S
N1011 Co1012 2.008 . S
Co1012 N1011 2.008 . S
Co1012 N1013 1.995 . S
Co1012 N1018 2.008 . S
Co1012 N1023 1.995 . S
Co1012 N1028 2.282 . S
Co1012 N1034 2.282 . S
N1013 Co1012 1.995 . S
N1013 C1014 1.376 . S
N1013 C1017 1.383 . S
C1014 N1013 1.376 . S
C1014 C1015 1.446 . S
C1014 C1044 1.391 . S
C1015 C1014 1.446 . S
C1015 C1016 1.339 . S
C1015 H1050 0.949 . S
C1016 C1015 1.339 . S
C1016 C1017 1.439 . S
C1016 H1051 0.950 . S
C1017 N1013 1.383 . S
C1017 C1016 1.439 . S
C1017 C1046 1.392 . S
N1018 Co1012 2.008 . S
N1018 C1019 1.376 . S
N1018 C1022 1.374 . S
C1019 N1018 1.376 . S
C1019 C1020 1.443 . S
C1019 C1046 1.389 . S
C1020 C1019 1.443 . S
C1020 C1021 1.340 . S
C1020 H1052 0.951 . S
C1021 C1020 1.340 . S
C1021 C1022 1.439 . S
C1021 H1053 0.950 . S
C1022 N1018 1.374 . S
C1022 C1021 1.439 . S
C1022 C1047 1.395 . S
N1023 Co1012 1.995 . S
N1023 C1024 1.376 . S
N1023 C1027 1.383 . S
C1024 N1023 1.376 . S
C1024 C1025 1.446 . S
C1024 C1047 1.391 . S
C1025 C1024 1.446 . S
C1025 C1026 1.339 . S
C1025 H1054 0.949 . S
C1026 C1025 1.339 . S
C1026 C1027 1.439 . S
C1026 H1055 0.950 . S
C1027 N1023 1.383 . S
C1027 C1026 1.439 . S
C1027 C1045 1.392 . S
N1028 Co1012 2.282 . S
N1028 C1031 1.332 . S
N1028 C1033 1.332 . S
C1029 C1030 1.386 . S
C1029 C1032 1.388 . S
C1030 C1029 1.386 . S
C1030 C1031 1.382 . S
C1030 H1056 0.950 . S
C1031 N1028 1.332 . S
C1031 C1030 1.382 . S
C1031 H1042 0.952 . S
C1032 C1029 1.388 . S
C1032 C1033 1.382 . S
C1032 H1057 0.950 . S
C1033 N1028 1.332 . S
C1033 C1032 1.382 . S
C1033 H1043 0.948 . S
N1034 Co1012 2.282 . S
N1034 C1038 1.332 . S
N1034 C1039 1.332 . S
C1035 C1036 1.388 . S
C1035 C1039 1.382 . S
C1035 H1058 0.950 . S
C1036 C1035 1.388 . S
C1036 C1037 1.386 . S
C1037 C1036 1.386 . S
C1037 C1038 1.382 . S
C1037 H1059 0.950 . S
C1038 N1034 1.332 . S
C1038 C1037 1.382 . S
C1038 H1040 0.952 . S
C1039 N1034 1.332 . S
C1039 C1035 1.382 . S
C1039 H1041 0.948 . S
H1040 C1038 0.952 . S
H1041 C1039 0.948 . S
H1042 C1031 0.952 . S
H1043 C1033 0.948 . S
C1044 C1010 1.395 . S
C1044 C1014 1.391 . S
C1045 C1007 1.389 . S
C1045 C1027 1.392 . S
C1046 C1017 1.392 . S
C1046 C1019 1.389 . S
C1047 C1022 1.395 . S
C1047 C1024 1.391 . S
H1048 C1008 0.951 . S
H1049 C1009 0.950 . S
H1050 C1015 0.949 . S
H1051 C1016 0.950 . S
H1052 C1020 0.951 . S
H1053 C1021 0.950 . S
H1054 C1025 0.949 . S
H1055 C1026 0.950 . S
H1056 C1030 0.950 . S
H1057 C1032 0.950 . S
H1058 C1035 0.950 . S
H1059 C1037 0.950 . S
C1060 C1061 1.443 . S
C1060 N1064 1.376 . S
C1060 C1098 1.389 . S
C1061 C1060 1.443 . S
C1061 C1062 1.340 . S
C1061 H1101 0.951 . S
C1062 C1061 1.340 . S
C1062 C1063 1.439 . S
C1062 H1102 0.950 . S
C1063 C1062 1.439 . S
C1063 N1064 1.374 . S
C1063 C1097 1.395 . S
N1064 C1060 1.376 . S
N1064 C1063 1.374 . S
N1064 Co1065 2.008 . S
Co1065 N1064 2.008 . S
Co1065 N1066 1.995 . S
Co1065 N1071 2.008 . S
Co1065 N1076 1.995 . S
Co1065 N1081 2.282 . S
Co1065 N1087 2.282 . S
N1066 Co1065 1.995 . S
N1066 C1067 1.376 . S
N1066 C1070 1.383 . S
C1067 N1066 1.376 . S
C1067 C1068 1.446 . S
C1067 C1097 1.391 . S
C1068 C1067 1.446 . S
C1068 C1069 1.339 . S
C1068 H1103 0.949 . S
C1069 C1068 1.339 . S
C1069 C1070 1.439 . S
C1069 H1104 0.950 . S
C1070 N1066 1.383 . S
C1070 C1069 1.439 . S
C1070 C1099 1.392 . S
N1071 Co1065 2.008 . S
N1071 C1072 1.376 . S
N1071 C1075 1.374 . S
C1072 N1071 1.376 . S
C1072 C1073 1.443 . S
C1072 C1099 1.389 . S
C1073 C1072 1.443 . S
C1073 C1074 1.340 . S
C1073 H1105 0.951 . S
C1074 C1073 1.340 . S
C1074 C1075 1.439 . S
C1074 H1106 0.950 . S
C1075 N1071 1.374 . S
C1075 C1074 1.439 . S
C1075 C1100 1.395 . S
N1076 Co1065 1.995 . S
N1076 C1077 1.376 . S
N1076 C1080 1.383 . S
C1077 N1076 1.376 . S
C1077 C1078 1.446 . S
C1077 C1100 1.391 . S
C1078 C1077 1.446 . S
C1078 C1079 1.339 . S
C1078 H1107 0.949 . S
C1079 C1078 1.339 . S
C1079 C1080 1.439 . S
C1079 H1108 0.950 . S
C1080 N1076 1.383 . S
C1080 C1079 1.439 . S
C1080 C1098 1.392 . S
N1081 Co1065 2.282 . S
N1081 C1084 1.332 . S
N1081 C1086 1.332 . S
C1082 C1083 1.386 . S
C1082 C1085 1.388 . S
C1083 C1082 1.386 . S
C1083 C1084 1.382 . S
C1083 H1109 0.950 . S
C1084 N1081 1.332 . S
C1084 C1083 1.382 . S
C1084 H1095 0.952 . S
C1085 C1082 1.388 . S
C1085 C1086 1.382 . S
C1085 H1110 0.950 . S
C1086 N1081 1.332 . S
C1086 C1085 1.382 . S
C1086 H1096 0.948 . S
N1087 Co1065 2.282 . S
N1087 C1091 1.332 . S
N1087 C1092 1.332 . S
C1088 C1089 1.388 . S
C1088 C1092 1.382 . S
C1088 H1111 0.950 . S
C1089 C1088 1.388 . S
C1089 C1090 1.386 . S
C1090 C1089 1.386 . S
C1090 C1091 1.382 . S
C1090 H1112 0.950 . S
C1091 N1087 1.332 . S
C1091 C1090 1.382 . S
C1091 H1093 0.952 . S
C1092 N1087 1.332 . S
C1092 C1088 1.382 . S
C1092 H1094 0.948 . S
H1093 C1091 0.952 . S
H1094 C1092 0.948 . S
H1095 C1084 0.952 . S
H1096 C1086 0.948 . S
C1097 C1063 1.395 . S
C1097 C1067 1.391 . S
C1098 C1060 1.389 . S
C1098 C1080 1.392 . S
C1099 C1070 1.392 . S
C1099 C1072 1.389 . S
C1100 C1075 1.395 . S
C1100 C1077 1.391 . S
H1101 C1061 0.951 . S
H1102 C1062 0.950 . S
H1103 C1068 0.949 . S
H1104 C1069 0.950 . S
H1105 C1073 0.951 . S
H1106 C1074 0.950 . S
H1107 C1078 0.949 . S
H1108 C1079 0.950 . S
H1109 C1083 0.950 . S
H1110 C1085 0.950 . S
H1111 C1088 0.950 . S
H1112 C1090 0.950 . S
C1113 C1114 1.443 . S
C1113 N1117 1.376 . S
C1113 C1151 1.389 . S
C1114 C1113 1.443 . S
C1114 C1115 1.340 . S
C1114 H1154 0.951 . S
C1115 C1114 1.340 . S
C1115 C1116 1.439 . S
C1115 H1155 0.950 . S
C1116 C1115 1.439 . S
C1116 N1117 1.374 . S
C1116 C1150 1.395 . S
N1117 C1113 1.376 . S
N1117 C1116 1.374 . S
N1117 Co1118 2.008 . S
Co1118 N1117 2.008 . S
Co1118 N1119 1.995 . S
Co1118 N1124 2.008 . S
Co1118 N1129 1.995 . S
Co1118 N1134 2.282 . S
Co1118 N1140 2.282 . S
N1119 Co1118 1.995 . S
N1119 C1120 1.376 . S
N1119 C1123 1.383 . S
C1120 N1119 1.376 . S
C1120 C1121 1.446 1_556 S
C1120 C1150 1.391 . S
C1121 C1120 1.446 1_554 S
C1121 C1122 1.339 . S
C1121 H1156 0.949 . S
C1122 C1121 1.339 . S
C1122 C1123 1.439 1_554 S
C1122 H1157 0.950 . S
C1123 N1119 1.383 . S
C1123 C1122 1.439 1_556 S
C1123 C1152 1.392 . S
N1124 Co1118 2.008 . S
N1124 C1125 1.376 . S
N1124 C1128 1.374 . S
C1125 N1124 1.376 . S
C1125 C1126 1.443 . S
C1125 C1152 1.389 . S
C1126 C1125 1.443 . S
C1126 C1127 1.340 . S
C1126 H1158 0.951 . S
C1127 C1126 1.340 . S
C1127 C1128 1.439 . S
C1127 H1159 0.950 . S
C1128 N1124 1.374 . S
C1128 C1127 1.439 . S
C1128 C1153 1.395 . S
N1129 Co1118 1.995 . S
N1129 C1130 1.376 . S
N1129 C1133 1.383 . S
C1130 N1129 1.376 . S
C1130 C1131 1.446 . S
C1130 C1153 1.391 . S
C1131 C1130 1.446 . S
C1131 C1132 1.339 . S
C1131 H1160 0.949 . S
C1132 C1131 1.339 . S
C1132 C1133 1.439 . S
C1132 H1161 0.950 . S
C1133 N1129 1.383 . S
C1133 C1132 1.439 . S
C1133 C1151 1.392 . S
N1134 Co1118 2.282 . S
N1134 C1137 1.332 . S
N1134 C1139 1.332 . S
C1135 C1136 1.386 . S
C1135 C1138 1.388 . S
C1136 C1135 1.386 . S
C1136 C1137 1.382 . S
C1136 H1162 0.950 . S
C1137 N1134 1.332 . S
C1137 C1136 1.382 . S
C1137 H1148 0.952 . S
C1138 C1135 1.388 . S
C1138 C1139 1.382 . S
C1138 H1163 0.950 . S
C1139 N1134 1.332 . S
C1139 C1138 1.382 . S
C1139 H1149 0.948 . S
N1140 Co1118 2.282 . S
N1140 C1144 1.332 . S
N1140 C1145 1.332 . S
C1141 C1142 1.388 . S
C1141 C1145 1.382 . S
C1141 H1164 0.950 . S
C1142 C1141 1.388 . S
C1142 C1143 1.386 . S
C1143 C1142 1.386 . S
C1143 C1144 1.382 . S
C1143 H1165 0.950 . S
C1144 N1140 1.332 . S
C1144 C1143 1.382 . S
C1144 H1146 0.952 . S
C1145 N1140 1.332 . S
C1145 C1141 1.382 . S
C1145 H1147 0.948 . S
H1146 C1144 0.952 . S
H1147 C1145 0.948 . S
H1148 C1137 0.952 . S
H1149 C1139 0.948 . S
C1150 C1116 1.395 . S
C1150 C1120 1.391 . S
C1151 C1113 1.389 . S
C1151 C1133 1.392 . S
C1152 C1123 1.392 . S
C1152 C1125 1.389 . S
C1153 C1128 1.395 . S
C1153 C1130 1.391 . S
H1154 C1114 0.951 . S
H1155 C1115 0.950 . S
H1156 C1121 0.949 . S
H1157 C1122 0.950 . S
H1158 C1126 0.951 . S
H1159 C1127 0.950 . S
H1160 C1131 0.949 . S
H1161 C1132 0.950 . S
H1162 C1136 0.950 . S
H1163 C1138 0.950 . S
H1164 C1141 0.950 . S
H1165 C1143 0.950 . S
C1166 C1167 1.443 . S
C1166 N1170 1.376 . S
C1166 C1204 1.389 . S
C1167 C1166 1.443 . S
C1167 C1168 1.340 . S
C1167 H1207 0.951 . S
C1168 C1167 1.340 . S
C1168 C1169 1.439 . S
C1168 H1208 0.950 . S
C1169 C1168 1.439 . S
C1169 N1170 1.374 . S
C1169 C1203 1.395 . S
N1170 C1166 1.376 . S
N1170 C1169 1.374 . S
N1170 Co1171 2.008 . S
Co1171 N1170 2.008 . S
Co1171 N1172 1.995 . S
Co1171 N1177 2.008 . S
Co1171 N1182 1.995 . S
Co1171 N1187 2.282 . S
Co1171 N1193 2.282 . S
N1172 Co1171 1.995 . S
N1172 C1173 1.376 . S
N1172 C1176 1.383 . S
C1173 N1172 1.376 . S
C1173 C1174 1.446 . S
C1173 C1203 1.391 . S
C1174 C1173 1.446 . S
C1174 C1175 1.339 . S
C1174 H1209 0.949 1_556 S
C1175 C1174 1.339 . S
C1175 C1176 1.439 . S
C1175 H1210 0.950 . S
C1176 N1172 1.383 . S
C1176 C1175 1.439 . S
C1176 C1205 1.392 . S
N1177 Co1171 2.008 . S
N1177 C1178 1.376 . S
N1177 C1181 1.374 . S
C1178 N1177 1.376 . S
C1178 C1179 1.443 . S
C1178 C1205 1.389 . S
C1179 C1178 1.443 . S
C1179 C1180 1.340 . S
C1179 H1211 0.951 . S
C1180 C1179 1.340 . S
C1180 C1181 1.439 . S
C1180 H1212 0.950 . S
C1181 N1177 1.374 . S
C1181 C1180 1.439 . S
C1181 C1206 1.395 . S
N1182 Co1171 1.995 . S
N1182 C1183 1.376 . S
N1182 C1186 1.383 . S
C1183 N1182 1.376 . S
C1183 C1184 1.446 . S
C1183 C1206 1.391 . S
C1184 C1183 1.446 . S
C1184 C1185 1.339 . S
C1184 H1213 0.949 . S
C1185 C1184 1.339 . S
C1185 C1186 1.439 . S
C1185 H1214 0.950 . S
C1186 N1182 1.383 . S
C1186 C1185 1.439 . S
C1186 C1204 1.392 . S
N1187 Co1171 2.282 . S
N1187 C1190 1.332 . S
N1187 C1192 1.332 . S
C1188 C1189 1.386 . S
C1188 C1191 1.388 . S
C1189 C1188 1.386 . S
C1189 C1190 1.382 . S
C1189 H1215 0.950 . S
C1190 N1187 1.332 . S
C1190 C1189 1.382 . S
C1190 H1201 0.952 . S
C1191 C1188 1.388 . S
C1191 C1192 1.382 . S
C1191 H1216 0.950 . S
C1192 N1187 1.332 . S
C1192 C1191 1.382 . S
C1192 H1202 0.948 . S
N1193 Co1171 2.282 . S
N1193 C1197 1.332 . S
N1193 C1198 1.332 . S
C1194 C1195 1.388 . S
C1194 C1198 1.382 . S
C1194 H1217 0.950 . S
C1195 C1194 1.388 . S
C1195 C1196 1.386 . S
C1196 C1195 1.386 . S
C1196 C1197 1.382 . S
C1196 H1218 0.950 . S
C1197 N1193 1.332 . S
C1197 C1196 1.382 . S
C1197 H1199 0.952 . S
C1198 N1193 1.332 . S
C1198 C1194 1.382 . S
C1198 H1200 0.948 . S
H1199 C1197 0.952 . S
H1200 C1198 0.948 . S
H1201 C1190 0.952 . S
H1202 C1192 0.948 . S
C1203 C1169 1.395 . S
C1203 C1173 1.391 . S
C1204 C1166 1.389 . S
C1204 C1186 1.392 . S
C1205 C1176 1.392 . S
C1205 C1178 1.389 . S
C1206 C1181 1.395 . S
C1206 C1183 1.391 . S
H1207 C1167 0.951 . S
H1208 C1168 0.950 . S
H1209 C1174 0.949 1_554 S
H1210 C1175 0.950 . S
H1211 C1179 0.951 . S
H1212 C1180 0.950 . S
H1213 C1184 0.949 . S
H1214 C1185 0.950 . S
H1215 C1189 0.950 . S
H1216 C1191 0.950 . S
H1217 C1194 0.950 . S
H1218 C1196 0.950 . S
C1219 C1220 1.443 . S
C1219 N1223 1.376 . S
C1219 C1257 1.389 . S
C1220 C1219 1.443 . S
C1220 C1221 1.340 . S
C1220 H1260 0.951 . S
C1221 C1220 1.340 . S
C1221 C1222 1.439 . S
C1221 H1261 0.950 1_556 S
C1222 C1221 1.439 . S
C1222 N1223 1.374 . S
C1222 C1256 1.395 1_556 S
N1223 C1219 1.376 . S
N1223 C1222 1.374 . S
N1223 Co1224 2.008 . S
Co1224 N1223 2.008 . S
Co1224 N1225 1.995 . S
Co1224 N1230 2.008 . S
Co1224 N1235 1.995 . S
Co1224 N1240 2.282 . S
Co1224 N1246 2.282 . S
N1225 Co1224 1.995 . S
N1225 C1226 1.376 1_556 S
N1225 C1229 1.383 . S
C1226 N1225 1.376 1_554 S
C1226 C1227 1.446 . S
C1226 C1256 1.391 . S
C1227 C1226 1.446 . S
C1227 C1228 1.339 . S
C1227 H1262 0.949 . S
C1228 C1227 1.339 . S
C1228 C1229 1.439 1_554 S
C1228 H1263 0.950 . S
C1229 N1225 1.383 . S
C1229 C1228 1.439 1_556 S
C1229 C1258 1.392 . S
N1230 Co1224 2.008 . S
N1230 C1231 1.376 . S
N1230 C1234 1.374 . S
C1231 N1230 1.376 . S
C1231 C1232 1.443 . S
C1231 C1258 1.389 . S
C1232 C1231 1.443 . S
C1232 C1233 1.340 . S
C1232 H1264 0.951 . S
C1233 C1232 1.340 . S
C1233 C1234 1.439 . S
C1233 H1265 0.950 . S
C1234 N1230 1.374 . S
C1234 C1233 1.439 . S
C1234 C1259 1.395 . S
N1235 Co1224 1.995 . S
N1235 C1236 1.376 . S
N1235 C1239 1.383 . S
C1236 N1235 1.376 . S
C1236 C1237 1.446 . S
C1236 C1259 1.391 . S
C1237 C1236 1.446 . S
C1237 C1238 1.339 . S
C1237 H1266 0.949 . S
C1238 C1237 1.339 . S
C1238 C1239 1.439 . S
C1238 H1267 0.950 . S
C1239 N1235 1.383 . S
C1239 C1238 1.439 . S
C1239 C1257 1.392 . S
N1240 Co1224 2.282 . S
N1240 C1243 1.332 . S
N1240 C1245 1.332 . S
C1241 C1242 1.386 . S
C1241 C1244 1.388 . S
C1242 C1241 1.386 . S
C1242 C1243 1.382 . S
C1242 H1268 0.950 . S
C1243 N1240 1.332 . S
C1243 C1242 1.382 . S
C1243 H1254 0.952 . S
C1244 C1241 1.388 . S
C1244 C1245 1.382 . S
C1244 H1269 0.950 . S
C1245 N1240 1.332 . S
C1245 C1244 1.382 . S
C1245 H1255 0.948 . S
N1246 Co1224 2.282 . S
N1246 C1250 1.332 . S
N1246 C1251 1.332 . S
C1247 C1248 1.388 . S
C1247 C1251 1.382 . S
C1247 H1270 0.950 . S
C1248 C1247 1.388 . S
C1248 C1249 1.386 . S
C1249 C1248 1.386 . S
C1249 C1250 1.382 . S
C1249 H1271 0.950 . S
C1250 N1246 1.332 . S
C1250 C1249 1.382 . S
C1250 H1252 0.952 . S
C1251 N1246 1.332 . S
C1251 C1247 1.382 . S
C1251 H1253 0.948 . S
H1252 C1250 0.952 . S
H1253 C1251 0.948 . S
H1254 C1243 0.952 . S
H1255 C1245 0.948 . S
C1256 C1222 1.395 1_554 S
C1256 C1226 1.391 . S
C1257 C1219 1.389 . S
C1257 C1239 1.392 . S
C1258 C1229 1.392 . S
C1258 C1231 1.389 . S
C1259 C1234 1.395 . S
C1259 C1236 1.391 . S
H1260 C1220 0.951 . S
H1261 C1221 0.950 1_554 S
H1262 C1227 0.949 . S
H1263 C1228 0.950 . S
H1264 C1232 0.951 . S
H1265 C1233 0.950 . S
H1266 C1237 0.949 . S
H1267 C1238 0.950 . S
H1268 C1242 0.950 . S
H1269 C1244 0.950 . S
H1270 C1247 0.950 . S
H1271 C1249 0.950 . S
C1272 C1273 1.443 . S
C1272 N1276 1.376 . S
C1272 C1310 1.389 . S
C1273 C1272 1.443 . S
C1273 C1274 1.340 . S
C1273 H1313 0.951 . S
C1274 C1273 1.340 . S
C1274 C1275 1.439 . S
C1274 H1314 0.950 . S
C1275 C1274 1.439 . S
C1275 N1276 1.374 . S
C1275 C1309 1.395 . S
N1276 C1272 1.376 . S
N1276 C1275 1.374 . S
N1276 Co1277 2.008 . S
Co1277 N1276 2.008 . S
Co1277 N1278 1.995 . S
Co1277 N1283 2.008 . S
Co1277 N1288 1.995 . S
Co1277 N1293 2.282 . S
Co1277 N1299 2.282 . S
N1278 Co1277 1.995 . S
N1278 C1279 1.376 . S
N1278 C1282 1.383 . S
C1279 N1278 1.376 . S
C1279 C1280 1.446 . S
C1279 C1309 1.391 . S
C1280 C1279 1.446 . S
C1280 C1281 1.339 . S
C1280 H1315 0.949 . S
C1281 C1280 1.339 . S
C1281 C1282 1.439 . S
C1281 H1316 0.950 . S
C1282 N1278 1.383 . S
C1282 C1281 1.439 . S
C1282 C1311 1.392 . S
N1283 Co1277 2.008 . S
N1283 C1284 1.376 . S
N1283 C1287 1.374 . S
C1284 N1283 1.376 . S
C1284 C1285 1.443 . S
C1284 C1311 1.389 . S
C1285 C1284 1.443 . S
C1285 C1286 1.340 . S
C1285 H1317 0.951 . S
C1286 C1285 1.340 . S
C1286 C1287 1.439 . S
C1286 H1318 0.950 . S
C1287 N1283 1.374 . S
C1287 C1286 1.439 . S
C1287 C1312 1.395 . S
N1288 Co1277 1.995 . S
N1288 C1289 1.376 . S
N1288 C1292 1.383 . S
C1289 N1288 1.376 . S
C1289 C1290 1.446 . S
C1289 C1312 1.391 . S
C1290 C1289 1.446 . S
C1290 C1291 1.339 . S
C1290 H1319 0.949 . S
C1291 C1290 1.339 . S
C1291 C1292 1.439 . S
C1291 H1320 0.950 . S
C1292 N1288 1.383 . S
C1292 C1291 1.439 . S
C1292 C1310 1.392 . S
N1293 Co1277 2.282 . S
N1293 C1296 1.332 . S
N1293 C1298 1.332 . S
C1294 C1295 1.386 . S
C1294 C1297 1.388 . S
C1295 C1294 1.386 . S
C1295 C1296 1.382 . S
C1295 H1321 0.950 . S
C1296 N1293 1.332 . S
C1296 C1295 1.382 . S
C1296 H1307 0.952 . S
C1297 C1294 1.388 . S
C1297 C1298 1.382 . S
C1297 H1322 0.950 . S
C1298 N1293 1.332 . S
C1298 C1297 1.382 . S
C1298 H1308 0.948 . S
N1299 Co1277 2.282 . S
N1299 C1303 1.332 . S
N1299 C1304 1.332 . S
C1300 C1301 1.388 . S
C1300 C1304 1.382 . S
C1300 H1323 0.950 . S
C1301 C1300 1.388 . S
C1301 C1302 1.386 . S
C1302 C1301 1.386 . S
C1302 C1303 1.382 . S
C1302 H1324 0.950 . S
C1303 N1299 1.332 . S
C1303 C1302 1.382 . S
C1303 H1305 0.952 . S
C1304 N1299 1.332 . S
C1304 C1300 1.382 . S
C1304 H1306 0.948 . S
H1305 C1303 0.952 . S
H1306 C1304 0.948 . S
H1307 C1296 0.952 . S
H1308 C1298 0.948 . S
C1309 C1275 1.395 . S
C1309 C1279 1.391 . S
C1310 C1272 1.389 . S
C1310 C1292 1.392 . S
C1311 C1282 1.392 . S
C1311 C1284 1.389 . S
C1312 C1287 1.395 . S
C1312 C1289 1.391 . S
H1313 C1273 0.951 . S
H1314 C1274 0.950 . S
H1315 C1280 0.949 . S
H1316 C1281 0.950 . S
H1317 C1285 0.951 . S
H1318 C1286 0.950 . S
H1319 C1290 0.949 . S
H1320 C1291 0.950 . S
H1321 C1295 0.950 . S
H1322 C1297 0.950 . S
H1323 C1300 0.950 . S
H1324 C1302 0.950 . S
C1325 C1326 1.443 . S
C1325 N1329 1.376 . S
C1325 C1363 1.389 . S
C1326 C1325 1.443 . S
C1326 C1327 1.340 . S
C1326 H1366 0.951 . S
C1327 C1326 1.340 . S
C1327 C1328 1.439 . S
C1327 H1367 0.950 . S
C1328 C1327 1.439 . S
C1328 N1329 1.374 . S
C1328 C1362 1.395 . S
N1329 C1325 1.376 . S
N1329 C1328 1.374 . S
N1329 Co1330 2.008 . S
Co1330 N1329 2.008 . S
Co1330 N1331 1.995 . S
Co1330 N1336 2.008 . S
Co1330 N1341 1.995 . S
Co1330 N1346 2.282 . S
Co1330 N1352 2.282 . S
N1331 Co1330 1.995 . S
N1331 C1332 1.376 . S
N1331 C1335 1.383 . S
C1332 N1331 1.376 . S
C1332 C1333 1.446 . S
C1332 C1362 1.391 . S
C1333 C1332 1.446 . S
C1333 C1334 1.339 . S
C1333 H1368 0.949 . S
C1334 C1333 1.339 . S
C1334 C1335 1.439 . S
C1334 H1369 0.950 . S
C1335 N1331 1.383 . S
C1335 C1334 1.439 . S
C1335 C1364 1.392 . S
N1336 Co1330 2.008 . S
N1336 C1337 1.376 . S
N1336 C1340 1.374 . S
C1337 N1336 1.376 . S
C1337 C1338 1.443 . S
C1337 C1364 1.389 . S
C1338 C1337 1.443 . S
C1338 C1339 1.340 . S
C1338 H1370 0.951 . S
C1339 C1338 1.340 . S
C1339 C1340 1.439 . S
C1339 H1371 0.950 . S
C1340 N1336 1.374 . S
C1340 C1339 1.439 . S
C1340 C1365 1.395 . S
N1341 Co1330 1.995 . S
N1341 C1342 1.376 . S
N1341 C1345 1.383 . S
C1342 N1341 1.376 . S
C1342 C1343 1.446 . S
C1342 C1365 1.391 . S
C1343 C1342 1.446 . S
C1343 C1344 1.339 . S
C1343 H1372 0.949 . S
C1344 C1343 1.339 . S
C1344 C1345 1.439 . S
C1344 H1373 0.950 . S
C1345 N1341 1.383 . S
C1345 C1344 1.439 . S
C1345 C1363 1.392 . S
N1346 Co1330 2.282 . S
N1346 C1349 1.332 . S
N1346 C1351 1.332 . S
C1347 C1348 1.386 . S
C1347 C1350 1.388 . S
C1348 C1347 1.386 . S
C1348 C1349 1.382 . S
C1348 H1374 0.950 . S
C1349 N1346 1.332 . S
C1349 C1348 1.382 . S
C1349 H1360 0.952 . S
C1350 C1347 1.388 . S
C1350 C1351 1.382 . S
C1350 H1375 0.950 . S
C1351 N1346 1.332 . S
C1351 C1350 1.382 . S
C1351 H1361 0.948 . S
N1352 Co1330 2.282 . S
N1352 C1356 1.332 . S
N1352 C1357 1.332 . S
C1353 C1354 1.388 . S
C1353 C1357 1.382 . S
C1353 H1376 0.950 . S
C1354 C1353 1.388 . S
C1354 C1355 1.386 . S
C1355 C1354 1.386 . S
C1355 C1356 1.382 . S
C1355 H1377 0.950 . S
C1356 N1352 1.332 . S
C1356 C1355 1.382 . S
C1356 H1358 0.952 . S
C1357 N1352 1.332 . S
C1357 C1353 1.382 . S
C1357 H1359 0.948 . S
H1358 C1356 0.952 . S
H1359 C1357 0.948 . S
H1360 C1349 0.952 . S
H1361 C1351 0.948 . S
C1362 C1328 1.395 . S
C1362 C1332 1.391 . S
C1363 C1325 1.389 . S
C1363 C1345 1.392 . S
C1364 C1335 1.392 . S
C1364 C1337 1.389 . S
C1365 C1340 1.395 . S
C1365 C1342 1.391 . S
H1366 C1326 0.951 . S
H1367 C1327 0.950 . S
H1368 C1333 0.949 . S
H1369 C1334 0.950 . S
H1370 C1338 0.951 . S
H1371 C1339 0.950 . S
H1372 C1343 0.949 . S
H1373 C1344 0.950 . S
H1374 C1348 0.950 . S
H1375 C1350 0.950 . S
H1376 C1353 0.950 . S
H1377 C1355 0.950 . S
C1378 C1379 1.443 . S
C1378 N1382 1.376 . S
C1378 C1416 1.389 . S
C1379 C1378 1.443 . S
C1379 C1380 1.340 . S
C1379 H1419 0.951 . S
C1380 C1379 1.340 . S
C1380 C1381 1.439 . S
C1380 H1420 0.950 . S
C1381 C1380 1.439 . S
C1381 N1382 1.374 . S
C1381 C1415 1.395 . S
N1382 C1378 1.376 . S
N1382 C1381 1.374 . S
N1382 Co1383 2.008 . S
Co1383 N1382 2.008 . S
Co1383 N1384 1.995 . S
Co1383 N1389 2.008 . S
Co1383 N1394 1.995 . S
Co1383 N1399 2.282 . S
Co1383 N1405 2.282 . S
N1384 Co1383 1.995 . S
N1384 C1385 1.376 . S
N1384 C1388 1.383 . S
C1385 N1384 1.376 . S
C1385 C1386 1.446 . S
C1385 C1415 1.391 . S
C1386 C1385 1.446 . S
C1386 C1387 1.339 . S
C1386 H1421 0.949 . S
C1387 C1386 1.339 . S
C1387 C1388 1.439 . S
C1387 H1422 0.950 . S
C1388 N1384 1.383 . S
C1388 C1387 1.439 . S
C1388 C1417 1.392 . S
N1389 Co1383 2.008 . S
N1389 C1390 1.376 . S
N1389 C1393 1.374 . S
C1390 N1389 1.376 . S
C1390 C1391 1.443 . S
C1390 C1417 1.389 . S
C1391 C1390 1.443 . S
C1391 C1392 1.340 . S
C1391 H1423 0.951 . S
C1392 C1391 1.340 . S
C1392 C1393 1.439 . S
C1392 H1424 0.950 . S
C1393 N1389 1.374 . S
C1393 C1392 1.439 . S
C1393 C1418 1.395 . S
N1394 Co1383 1.995 . S
N1394 C1395 1.376 . S
N1394 C1398 1.383 . S
C1395 N1394 1.376 . S
C1395 C1396 1.446 . S
C1395 C1418 1.391 . S
C1396 C1395 1.446 . S
C1396 C1397 1.339 . S
C1396 H1425 0.949 . S
C1397 C1396 1.339 . S
C1397 C1398 1.439 . S
C1397 H1426 0.950 . S
C1398 N1394 1.383 . S
C1398 C1397 1.439 . S
C1398 C1416 1.392 . S
N1399 Co1383 2.282 . S
N1399 C1402 1.332 . S
N1399 C1404 1.332 . S
C1400 C1401 1.386 . S
C1400 C1403 1.388 . S
C1401 C1400 1.386 . S
C1401 C1402 1.382 . S
C1401 H1427 0.950 . S
C1402 N1399 1.332 . S
C1402 C1401 1.382 . S
C1402 H1413 0.952 . S
C1403 C1400 1.388 . S
C1403 C1404 1.382 . S
C1403 H1428 0.950 . S
C1404 N1399 1.332 . S
C1404 C1403 1.382 . S
C1404 H1414 0.948 . S
N1405 Co1383 2.282 . S
N1405 C1409 1.332 . S
N1405 C1410 1.332 . S
C1406 C1407 1.388 . S
C1406 C1410 1.382 . S
C1406 H1429 0.950 . S
C1407 C1406 1.388 . S
C1407 C1408 1.386 . S
C1408 C1407 1.386 . S
C1408 C1409 1.382 . S
C1408 H1430 0.950 . S
C1409 N1405 1.332 . S
C1409 C1408 1.382 . S
C1409 H1411 0.952 . S
C1410 N1405 1.332 . S
C1410 C1406 1.382 . S
C1410 H1412 0.948 . S
H1411 C1409 0.952 . S
H1412 C1410 0.948 . S
H1413 C1402 0.952 . S
H1414 C1404 0.948 . S
C1415 C1381 1.395 . S
C1415 C1385 1.391 . S
C1416 C1378 1.389 . S
C1416 C1398 1.392 . S
C1417 C1388 1.392 . S
C1417 C1390 1.389 . S
C1418 C1393 1.395 . S
C1418 C1395 1.391 . S
H1419 C1379 0.951 . S
H1420 C1380 0.950 . S
H1421 C1386 0.949 . S
H1422 C1387 0.950 . S
H1423 C1391 0.951 . S
H1424 C1392 0.950 . S
H1425 C1396 0.949 . S
H1426 C1397 0.950 . S
H1427 C1401 0.950 . S
H1428 C1403 0.950 . S
H1429 C1406 0.950 . S
H1430 C1408 0.950 . S
C1431 C1432 1.443 . S
C1431 N1435 1.376 . S
C1431 C1469 1.389 . S
C1432 C1431 1.443 . S
C1432 C1433 1.340 . S
C1432 H1472 0.951 . S
C1433 C1432 1.340 . S
C1433 C1434 1.439 . S
C1433 H1473 0.950 . S
C1434 C1433 1.439 . S
C1434 N1435 1.374 . S
C1434 C1468 1.395 . S
N1435 C1431 1.376 . S
N1435 C1434 1.374 . S
N1435 Co1436 2.008 . S
Co1436 N1435 2.008 . S
Co1436 N1437 1.995 . S
Co1436 N1442 2.008 . S
Co1436 N1447 1.995 . S
Co1436 N1452 2.282 . S
Co1436 N1458 2.282 . S
N1437 Co1436 1.995 . S
N1437 C1438 1.376 . S
N1437 C1441 1.383 . S
C1438 N1437 1.376 . S
C1438 C1439 1.446 . S
C1438 C1468 1.391 . S
C1439 C1438 1.446 . S
C1439 C1440 1.339 . S
C1439 H1474 0.949 . S
C1440 C1439 1.339 . S
C1440 C1441 1.439 . S
C1440 H1475 0.950 . S
C1441 N1437 1.383 . S
C1441 C1440 1.439 . S
C1441 C1470 1.392 . S
N1442 Co1436 2.008 . S
N1442 C1443 1.376 . S
N1442 C1446 1.374 1_554 S
C1443 N1442 1.376 . S
C1443 C1444 1.443 1_554 S
C1443 C1470 1.389 . S
C1444 C1443 1.443 1_556 S
C1444 C1445 1.340 . S
C1444 H1476 0.951 . S
C1445 C1444 1.340 . S
C1445 C1446 1.439 . S
C1445 H1477 0.950 . S
C1446 N1442 1.374 1_556 S
C1446 C1445 1.439 . S
C1446 C1471 1.395 . S
N1447 Co1436 1.995 . S
N1447 C1448 1.376 . S
N1447 C1451 1.383 . S
C1448 N1447 1.376 . S
C1448 C1449 1.446 1_554 S
C1448 C1471 1.391 1_554 S
C1449 C1448 1.446 1_556 S
C1449 C1450 1.339 1_556 S
C1449 H1478 0.949 . S
C1450 C1449 1.339 1_554 S
C1450 C1451 1.439 . S
C1450 H1479 0.950 . S
C1451 N1447 1.383 . S
C1451 C1450 1.439 . S
C1451 C1469 1.392 . S
N1452 Co1436 2.282 . S
N1452 C1455 1.332 . S
N1452 C1457 1.332 . S
C1453 C1454 1.386 . S
C1453 C1456 1.388 . S
C1454 C1453 1.386 . S
C1454 C1455 1.382 . S
C1454 H1480 0.950 . S
C1455 N1452 1.332 . S
C1455 C1454 1.382 . S
C1455 H1466 0.952 . S
C1456 C1453 1.388 . S
C1456 C1457 1.382 . S
C1456 H1481 0.950 . S
C1457 N1452 1.332 . S
C1457 C1456 1.382 . S
C1457 H1467 0.948 . S
N1458 Co1436 2.282 . S
N1458 C1462 1.332 . S
N1458 C1463 1.332 . S
C1459 C1460 1.388 . S
C1459 C1463 1.382 . S
C1459 H1482 0.950 1_554 S
C1460 C1459 1.388 . S
C1460 C1461 1.386 . S
C1461 C1460 1.386 . S
C1461 C1462 1.382 . S
C1461 H1483 0.950 . S
C1462 N1458 1.332 . S
C1462 C1461 1.382 . S
C1462 H1464 0.952 . S
C1463 N1458 1.332 . S
C1463 C1459 1.382 . S
C1463 H1465 0.948 . S
H1464 C1462 0.952 . S
H1465 C1463 0.948 . S
H1466 C1455 0.952 . S
H1467 C1457 0.948 . S
C1468 C1434 1.395 . S
C1468 C1438 1.391 . S
C1469 C1431 1.389 . S
C1469 C1451 1.392 . S
C1470 C1441 1.392 . S
C1470 C1443 1.389 . S
C1471 C1446 1.395 . S
C1471 C1448 1.391 1_556 S
H1472 C1432 0.951 . S
H1473 C1433 0.950 . S
H1474 C1439 0.949 . S
H1475 C1440 0.950 . S
H1476 C1444 0.951 . S
H1477 C1445 0.950 . S
H1478 C1449 0.949 . S
H1479 C1450 0.950 . S
H1480 C1454 0.950 . S
H1481 C1456 0.950 . S
H1482 C1459 0.950 1_556 S
H1483 C1461 0.950 . S
C1484 C1485 1.443 . S
C1484 N1488 1.376 . S
C1484 C1522 1.389 . S
C1485 C1484 1.443 . S
C1485 C1486 1.340 . S
C1485 H1525 0.951 . S
C1486 C1485 1.340 . S
C1486 C1487 1.439 . S
C1486 H1526 0.950 1_554 S
C1487 C1486 1.439 . S
C1487 N1488 1.374 . S
C1487 C1521 1.395 . S
N1488 C1484 1.376 . S
N1488 C1487 1.374 . S
N1488 Co1489 2.008 . S
Co1489 N1488 2.008 . S
Co1489 N1490 1.995 . S
Co1489 N1495 2.008 . S
Co1489 N1500 1.995 . S
Co1489 N1505 2.282 . S
Co1489 N1511 2.282 . S
N1490 Co1489 1.995 . S
N1490 C1491 1.376 . S
N1490 C1494 1.383 . S
C1491 N1490 1.376 . S
C1491 C1492 1.446 1_554 S
C1491 C1521 1.391 . S
C1492 C1491 1.446 1_556 S
C1492 C1493 1.339 1_556 S
C1492 H1527 0.949 . S
C1493 C1492 1.339 1_554 S
C1493 C1494 1.439 . S
C1493 H1528 0.950 . S
C1494 N1490 1.383 . S
C1494 C1493 1.439 . S
C1494 C1523 1.392 . S
N1495 Co1489 2.008 . S
N1495 C1496 1.376 . S
N1495 C1499 1.374 . S
C1496 N1495 1.376 . S
C1496 C1497 1.443 . S
C1496 C1523 1.389 . S
C1497 C1496 1.443 . S
C1497 C1498 1.340 . S
C1497 H1529 0.951 . S
C1498 C1497 1.340 . S
C1498 C1499 1.439 . S
C1498 H1530 0.950 . S
C1499 N1495 1.374 . S
C1499 C1498 1.439 . S
C1499 C1524 1.395 . S
N1500 Co1489 1.995 . S
N1500 C1501 1.376 . S
N1500 C1504 1.383 . S
C1501 N1500 1.376 . S
C1501 C1502 1.446 . S
C1501 C1524 1.391 . S
C1502 C1501 1.446 . S
C1502 C1503 1.339 . S
C1502 H1531 0.949 . S
C1503 C1502 1.339 . S
C1503 C1504 1.439 . S
C1503 H1532 0.950 . S
C1504 N1500 1.383 . S
C1504 C1503 1.439 . S
C1504 C1522 1.392 . S
N1505 Co1489 2.282 . S
N1505 C1508 1.332 . S
N1505 C1510 1.332 . S
C1506 C1507 1.386 . S
C1506 C1509 1.388 . S
C1507 C1506 1.386 . S
C1507 C1508 1.382 . S
C1507 H1533 0.950 . S
C1508 N1505 1.332 . S
C1508 C1507 1.382 . S
C1508 H1519 0.952 . S
C1509 C1506 1.388 . S
C1509 C1510 1.382 . S
C1509 H1534 0.950 . S
C1510 N1505 1.332 . S
C1510 C1509 1.382 . S
C1510 H1520 0.948 . S
N1511 Co1489 2.282 . S
N1511 C1515 1.332 . S
N1511 C1516 1.332 . S
C1512 C1513 1.388 . S
C1512 C1516 1.382 . S
C1512 H1535 0.950 . S
C1513 C1512 1.388 . S
C1513 C1514 1.386 . S
C1514 C1513 1.386 . S
C1514 C1515 1.382 . S
C1514 H1536 0.950 1_554 S
C1515 N1511 1.332 . S
C1515 C1514 1.382 . S
C1515 H1517 0.952 . S
C1516 N1511 1.332 . S
C1516 C1512 1.382 . S
C1516 H1518 0.948 . S
H1517 C1515 0.952 . S
H1518 C1516 0.948 . S
H1519 C1508 0.952 . S
H1520 C1510 0.948 . S
C1521 C1487 1.395 . S
C1521 C1491 1.391 . S
C1522 C1484 1.389 . S
C1522 C1504 1.392 . S
C1523 C1494 1.392 . S
C1523 C1496 1.389 . S
C1524 C1499 1.395 . S
C1524 C1501 1.391 . S
H1525 C1485 0.951 . S
H1526 C1486 0.950 1_556 S
H1527 C1492 0.949 . S
H1528 C1493 0.950 . S
H1529 C1497 0.951 . S
H1530 C1498 0.950 . S
H1531 C1502 0.949 . S
H1532 C1503 0.950 . S
H1533 C1507 0.950 . S
H1534 C1509 0.950 . S
H1535 C1512 0.950 . S
H1536 C1514 0.950 1_556 S
C1537 C1538 1.443 . S
C1537 N1541 1.376 . S
C1537 C1575 1.389 . S
C1538 C1537 1.443 . S
C1538 C1539 1.340 . S
C1538 H1578 0.951 . S
C1539 C1538 1.340 . S
C1539 C1540 1.439 . S
C1539 H1579 0.950 . S
C1540 C1539 1.439 . S
C1540 N1541 1.374 . S
C1540 C1574 1.395 . S
N1541 C1537 1.376 . S
N1541 C1540 1.374 . S
N1541 Co1542 2.008 . S
Co1542 N1541 2.008 . S
Co1542 N1543 1.995 . S
Co1542 N1548 2.008 . S
Co1542 N1553 1.995 . S
Co1542 N1558 2.282 . S
Co1542 N1564 2.282 . S
N1543 Co1542 1.995 . S
N1543 C1544 1.376 . S
N1543 C1547 1.383 . S
C1544 N1543 1.376 . S
C1544 C1545 1.446 . S
C1544 C1574 1.391 . S
C1545 C1544 1.446 . S
C1545 C1546 1.339 . S
C1545 H1580 0.949 . S
C1546 C1545 1.339 . S
C1546 C1547 1.439 . S
C1546 H1581 0.950 . S
C1547 N1543 1.383 . S
C1547 C1546 1.439 . S
C1547 C1576 1.392 . S
N1548 Co1542 2.008 . S
N1548 C1549 1.376 1_554 S
N1548 C1552 1.374 1_554 S
C1549 N1548 1.376 1_556 S
C1549 C1550 1.443 . S
C1549 C1576 1.389 1_556 S
C1550 C1549 1.443 . S
C1550 C1551 1.340 . S
C1550 H1582 0.951 . S
C1551 C1550 1.340 . S
C1551 C1552 1.439 . S
C1551 H1583 0.950 . S
C1552 N1548 1.374 1_556 S
C1552 C1551 1.439 . S
C1552 C1577 1.395 . S
N1553 Co1542 1.995 . S
N1553 C1554 1.376 1_554 S
N1553 C1557 1.383 . S
C1554 N1553 1.376 1_556 S
C1554 C1555 1.446 . S
C1554 C1577 1.391 . S
C1555 C1554 1.446 . S
C1555 C1556 1.339 1_556 S
C1555 H1584 0.949 . S
C1556 C1555 1.339 1_554 S
C1556 C1557 1.439 . S
C1556 H1585 0.950 . S
C1557 N1553 1.383 . S
C1557 C1556 1.439 . S
C1557 C1575 1.392 . S
N1558 Co1542 2.282 . S
N1558 C1561 1.332 . S
N1558 C1563 1.332 . S
C1559 C1560 1.386 . S
C1559 C1562 1.388 . S
C1560 C1559 1.386 . S
C1560 C1561 1.382 . S
C1560 H1586 0.950 . S
C1561 N1558 1.332 . S
C1561 C1560 1.382 . S
C1561 H1572 0.952 . S
C1562 C1559 1.388 . S
C1562 C1563 1.382 . S
C1562 H1587 0.950 . S
C1563 N1558 1.332 . S
C1563 C1562 1.382 . S
C1563 H1573 0.948 . S
N1564 Co1542 2.282 . S
N1564 C1568 1.332 . S
N1564 C1569 1.332 . S
C1565 C1566 1.388 . S
C1565 C1569 1.382 . S
C1565 H1588 0.950 1_554 S
C1566 C1565 1.388 . S
C1566 C1567 1.386 . S
C1567 C1566 1.386 . S
C1567 C1568 1.382 . S
C1567 H1589 0.950 . S
C1568 N1564 1.332 . S
C1568 C1567 1.382 . S
C1568 H1570 0.952 . S
C1569 N1564 1.332 . S
C1569 C1565 1.382 . S
C1569 H1571 0.968 . S
H1570 C1568 0.952 . S
H1571 C1569 0.968 . S
H1572 C1561 0.952 . S
H1573 C1563 0.948 . S
C1574 C1540 1.395 . S
C1574 C1544 1.391 . S
C1575 C1537 1.389 . S
C1575 C1557 1.392 . S
C1576 C1547 1.392 . S
C1576 C1549 1.389 1_554 S
C1577 C1552 1.395 . S
C1577 C1554 1.391 . S
H1578 C1538 0.951 . S
H1579 C1539 0.950 . S
H1580 C1545 0.949 . S
H1581 C1546 0.950 . S
H1582 C1550 0.951 . S
H1583 C1551 0.950 . S
H1584 C1555 0.949 . S
H1585 C1556 0.950 . S
H1586 C1560 0.950 . S
H1587 C1562 0.950 . S
H1588 C1565 0.950 1_556 S
H1589 C1567 0.950 . S
C1590 C1591 1.443 . S
C1590 N1594 1.376 . S
C1590 C1628 1.389 . S
C1591 C1590 1.443 . S
C1591 C1592 1.340 . S
C1591 H1631 0.951 . S
C1592 C1591 1.340 . S
C1592 C1593 1.439 . S
C1592 H1632 0.950 . S
C1593 C1592 1.439 . S
C1593 N1594 1.374 . S
C1593 C1627 1.395 . S
N1594 C1590 1.376 . S
N1594 C1593 1.374 . S
N1594 Co1595 2.008 . S
Co1595 N1594 2.008 . S
Co1595 N1596 1.995 . S
Co1595 N1601 2.008 . S
Co1595 N1606 1.995 . S
Co1595 N1611 2.282 . S
Co1595 N1617 2.282 . S
N1596 Co1595 1.995 . S
N1596 C1597 1.376 . S
N1596 C1600 1.383 . S
C1597 N1596 1.376 . S
C1597 C1598 1.446 . S
C1597 C1627 1.391 . S
C1598 C1597 1.446 . S
C1598 C1599 1.339 . S
C1598 H1633 0.949 . S
C1599 C1598 1.339 . S
C1599 C1600 1.439 . S
C1599 H1634 0.950 . S
C1600 N1596 1.383 . S
C1600 C1599 1.439 . S
C1600 C1629 1.392 . S
N1601 Co1595 2.008 . S
N1601 C1602 1.376 . S
N1601 C1605 1.374 . S
C1602 N1601 1.376 . S
C1602 C1603 1.443 . S
C1602 C1629 1.389 . S
C1603 C1602 1.443 . S
C1603 C1604 1.340 . S
C1603 H1635 0.951 . S
C1604 C1603 1.340 . S
C1604 C1605 1.439 . S
C1604 H1636 0.950 . S
C1605 N1601 1.374 . S
C1605 C1604 1.439 . S
C1605 C1630 1.395 . S
N1606 Co1595 1.995 . S
N1606 C1607 1.376 . S
N1606 C1610 1.383 . S
C1607 N1606 1.376 . S
C1607 C1608 1.446 . S
C1607 C1630 1.391 . S
C1608 C1607 1.446 . S
C1608 C1609 1.339 . S
C1608 H1637 0.949 . S
C1609 C1608 1.339 . S
C1609 C1610 1.439 . S
C1609 H1638 0.950 . S
C1610 N1606 1.383 . S
C1610 C1609 1.439 . S
C1610 C1628 1.392 . S
N1611 Co1595 2.282 . S
N1611 C1614 1.332 . S
N1611 C1616 1.332 . S
C1612 C1613 1.386 . S
C1612 C1615 1.388 . S
C1613 C1612 1.386 . S
C1613 C1614 1.382 . S
C1613 H1639 0.950 . S
C1614 N1611 1.332 . S
C1614 C1613 1.382 . S
C1614 H1625 0.952 . S
C1615 C1612 1.388 . S
C1615 C1616 1.382 . S
C1615 H1640 0.950 . S
C1616 N1611 1.332 . S
C1616 C1615 1.382 . S
C1616 H1626 0.948 . S
N1617 Co1595 2.282 . S
N1617 C1621 1.332 . S
N1617 C1622 1.332 . S
C1618 C1619 1.388 . S
C1618 C1622 1.382 . S
C1618 H1641 0.950 . S
C1619 C1618 1.388 . S
C1619 C1620 1.386 . S
C1620 C1619 1.386 . S
C1620 C1621 1.382 . S
C1620 H1642 0.950 . S
C1621 N1617 1.332 . S
C1621 C1620 1.382 . S
C1621 H1623 0.952 . S
C1622 N1617 1.332 . S
C1622 C1618 1.382 . S
C1622 H1624 0.948 . S
H1623 C1621 0.952 . S
H1624 C1622 0.948 . S
H1625 C1614 0.952 . S
H1626 C1616 0.948 . S
C1627 C1593 1.395 . S
C1627 C1597 1.391 . S
C1628 C1590 1.389 . S
C1628 C1610 1.392 . S
C1629 C1600 1.392 . S
C1629 C1602 1.389 . S
C1630 C1605 1.395 . S
C1630 C1607 1.391 . S
H1631 C1591 0.951 . S
H1632 C1592 0.950 . S
H1633 C1598 0.949 . S
H1634 C1599 0.950 . S
H1635 C1603 0.951 . S
H1636 C1604 0.950 . S
H1637 C1608 0.949 . S
H1638 C1609 0.950 . S
H1639 C1613 0.950 . S
H1640 C1615 0.950 . S
H1641 C1618 0.950 . S
H1642 C1620 0.950 . S
C1643 C1644 1.443 . S
C1643 N1647 1.376 . S
C1643 C1681 1.389 . S
C1644 C1643 1.443 . S
C1644 C1645 1.340 . S
C1644 H1684 0.951 . S
C1645 C1644 1.340 . S
C1645 C1646 1.439 . S
C1645 H1685 0.950 . S
C1646 C1645 1.439 . S
C1646 N1647 1.374 . S
C1646 C1680 1.395 . S
N1647 C1643 1.376 . S
N1647 C1646 1.374 . S
N1647 Co1648 2.008 . S
Co1648 N1647 2.008 . S
Co1648 N1649 1.995 . S
Co1648 N1654 2.008 . S
Co1648 N1659 1.995 . S
Co1648 N1664 2.282 . S
Co1648 N1670 2.282 . S
N1649 Co1648 1.995 . S
N1649 C1650 1.376 . S
N1649 C1653 1.383 . S
C1650 N1649 1.376 . S
C1650 C1651 1.446 . S
C1650 C1680 1.391 . S
C1651 C1650 1.446 . S
C1651 C1652 1.339 . S
C1651 H1686 0.949 . S
C1652 C1651 1.339 . S
C1652 C1653 1.439 . S
C1652 H1687 0.950 . S
C1653 N1649 1.383 . S
C1653 C1652 1.439 . S
C1653 C1682 1.392 . S
N1654 Co1648 2.008 . S
N1654 C1655 1.376 . S
N1654 C1658 1.374 . S
C1655 N1654 1.376 . S
C1655 C1656 1.443 . S
C1655 C1682 1.389 . S
C1656 C1655 1.443 . S
C1656 C1657 1.340 . S
C1656 H1688 0.951 . S
C1657 C1656 1.340 . S
C1657 C1658 1.439 . S
C1657 H1689 0.950 . S
C1658 N1654 1.374 . S
C1658 C1657 1.439 . S
C1658 C1683 1.395 . S
N1659 Co1648 1.995 . S
N1659 C1660 1.376 . S
N1659 C1663 1.383 . S
C1660 N1659 1.376 . S
C1660 C1661 1.446 . S
C1660 C1683 1.391 . S
C1661 C1660 1.446 . S
C1661 C1662 1.339 . S
C1661 H1690 0.949 . S
C1662 C1661 1.339 . S
C1662 C1663 1.439 . S
C1662 H1691 0.950 . S
C1663 N1659 1.383 . S
C1663 C1662 1.439 . S
C1663 C1681 1.392 . S
N1664 Co1648 2.282 . S
N1664 C1667 1.332 . S
N1664 C1669 1.332 . S
C1665 C1666 1.386 . S
C1665 C1668 1.388 . S
C1666 C1665 1.386 . S
C1666 C1667 1.382 . S
C1666 H1692 0.950 . S
C1667 N1664 1.332 . S
C1667 C1666 1.382 . S
C1667 H1678 0.952 . S
C1668 C1665 1.388 . S
C1668 C1669 1.382 . S
C1668 H1693 0.950 . S
C1669 N1664 1.332 . S
C1669 C1668 1.382 . S
C1669 H1679 0.948 . S
N1670 Co1648 2.282 . S
N1670 C1674 1.332 . S
N1670 C1675 1.332 . S
C1671 C1672 1.388 . S
C1671 C1675 1.382 . S
C1671 H1694 0.950 . S
C1672 C1671 1.388 . S
C1672 C1673 1.386 . S
C1673 C1672 1.386 . S
C1673 C1674 1.382 . S
C1673 H1695 0.950 . S
C1674 N1670 1.332 . S
C1674 C1673 1.382 . S
C1674 H1676 0.952 . S
C1675 N1670 1.332 . S
C1675 C1671 1.382 . S
C1675 H1677 0.948 . S
H1676 C1674 0.952 . S
H1677 C1675 0.948 . S
H1678 C1667 0.952 . S
H1679 C1669 0.948 . S
C1680 C1646 1.395 . S
C1680 C1650 1.391 . S
C1681 C1643 1.389 . S
C1681 C1663 1.392 . S
C1682 C1653 1.392 . S
C1682 C1655 1.389 . S
C1683 C1658 1.395 . S
C1683 C1660 1.391 . S
H1684 C1644 0.951 . S
H1685 C1645 0.950 . S
H1686 C1651 0.949 . S
H1687 C1652 0.950 . S
H1688 C1656 0.951 . S
H1689 C1657 0.950 . S
H1690 C1661 0.949 . S
H1691 C1662 0.950 . S
H1692 C1666 0.950 . S
H1693 C1668 0.950 . S
H1694 C1671 0.950 . S
H1695 C1673 0.950 . S
C1696 C1697 1.443 . S
C1696 N1700 1.376 . S
C1696 C1734 1.389 . S
C1697 C1696 1.443 . S
C1697 C1698 1.340 . S
C1697 H1737 0.951 . S
C1698 C1697 1.340 . S
C1698 C1699 1.439 . S
C1698 H1738 0.950 . S
C1699 C1698 1.439 . S
C1699 N1700 1.374 . S
C1699 C1733 1.395 . S
N1700 C1696 1.376 . S
N1700 C1699 1.374 . S
N1700 Co1701 2.008 . S
Co1701 N1700 2.008 . S
Co1701 N1702 1.995 . S
Co1701 N1707 2.008 . S
Co1701 N1712 1.995 . S
Co1701 N1717 2.282 . S
Co1701 N1723 2.282 . S
N1702 Co1701 1.995 . S
N1702 C1703 1.376 . S
N1702 C1706 1.383 . S
C1703 N1702 1.376 . S
C1703 C1704 1.446 . S
C1703 C1733 1.391 . S
C1704 C1703 1.446 . S
C1704 C1705 1.339 . S
C1704 H1739 0.949 . S
C1705 C1704 1.339 . S
C1705 C1706 1.439 . S
C1705 H1740 0.950 . S
C1706 N1702 1.383 . S
C1706 C1705 1.439 . S
C1706 C1735 1.392 . S
N1707 Co1701 2.008 . S
N1707 C1708 1.376 . S
N1707 C1711 1.374 . S
C1708 N1707 1.376 . S
C1708 C1709 1.443 . S
C1708 C1735 1.389 . S
C1709 C1708 1.443 . S
C1709 C1710 1.340 . S
C1709 H1741 0.951 . S
C1710 C1709 1.340 . S
C1710 C1711 1.439 . S
C1710 H1742 0.950 . S
C1711 N1707 1.374 . S
C1711 C1710 1.439 . S
C1711 C1736 1.395 . S
N1712 Co1701 1.995 . S
N1712 C1713 1.376 . S
N1712 C1716 1.383 . S
C1713 N1712 1.376 . S
C1713 C1714 1.446 . S
C1713 C1736 1.391 . S
C1714 C1713 1.446 . S
C1714 C1715 1.339 . S
C1714 H1743 0.949 . S
C1715 C1714 1.339 . S
C1715 C1716 1.439 . S
C1715 H1744 0.950 . S
C1716 N1712 1.383 . S
C1716 C1715 1.439 . S
C1716 C1734 1.392 . S
N1717 Co1701 2.282 . S
N1717 C1720 1.332 . S
N1717 C1722 1.332 . S
C1718 C1719 1.386 . S
C1718 C1721 1.388 . S
C1719 C1718 1.386 . S
C1719 C1720 1.382 . S
C1719 H1745 0.950 . S
C1720 N1717 1.332 . S
C1720 C1719 1.382 . S
C1720 H1731 0.952 . S
C1721 C1718 1.388 . S
C1721 C1722 1.382 . S
C1721 H1746 0.950 . S
C1722 N1717 1.332 . S
C1722 C1721 1.382 . S
C1722 H1732 0.948 . S
N1723 Co1701 2.282 . S
N1723 C1727 1.332 . S
N1723 C1728 1.332 . S
C1724 C1725 1.388 . S
C1724 C1728 1.382 . S
C1724 H1747 0.950 . S
C1725 C1724 1.388 . S
C1725 C1726 1.386 . S
C1726 C1725 1.386 . S
C1726 C1727 1.382 . S
C1726 H1748 0.950 . S
C1727 N1723 1.332 . S
C1727 C1726 1.382 . S
C1727 H1729 0.952 . S
C1728 N1723 1.332 . S
C1728 C1724 1.382 . S
C1728 H1730 0.948 . S
H1729 C1727 0.952 . S
H1730 C1728 0.948 . S
H1731 C1720 0.952 . S
H1732 C1722 0.948 . S
C1733 C1699 1.395 . S
C1733 C1703 1.391 . S
C1734 C1696 1.389 . S
C1734 C1716 1.392 . S
C1735 C1706 1.392 . S
C1735 C1708 1.389 . S
C1736 C1711 1.395 . S
C1736 C1713 1.391 . S
H1737 C1697 0.951 . S
H1738 C1698 0.950 . S
H1739 C1704 0.949 . S
H1740 C1705 0.950 . S
H1741 C1709 0.951 . S
H1742 C1710 0.950 . S
H1743 C1714 0.949 . S
H1744 C1715 0.950 . S
H1745 C1719 0.950 . S
H1746 C1721 0.950 . S
H1747 C1724 0.950 . S
H1748 C1726 0.950 . S
C1749 C1750 1.443 . S
C1749 N1753 1.376 . S
C1749 C1787 1.389 . S
C1750 C1749 1.443 . S
C1750 C1751 1.340 . S
C1750 H1790 0.951 . S
C1751 C1750 1.340 . S
C1751 C1752 1.439 . S
C1751 H1791 0.950 . S
C1752 C1751 1.439 . S
C1752 N1753 1.374 . S
C1752 C1786 1.395 . S
N1753 C1749 1.376 . S
N1753 C1752 1.374 . S
N1753 Co1754 2.008 . S
Co1754 N1753 2.008 . S
Co1754 N1755 1.995 . S
Co1754 N1760 2.008 . S
Co1754 N1765 1.995 . S
Co1754 N1770 2.282 . S
Co1754 N1776 2.282 . S
N1755 Co1754 1.995 . S
N1755 C1756 1.376 . S
N1755 C1759 1.383 . S
C1756 N1755 1.376 . S
C1756 C1757 1.446 . S
C1756 C1786 1.391 . S
C1757 C1756 1.446 . S
C1757 C1758 1.339 . S
C1757 H1792 0.949 . S
C1758 C1757 1.339 . S
C1758 C1759 1.439 . S
C1758 H1793 0.950 . S
C1759 N1755 1.383 . S
C1759 C1758 1.439 . S
C1759 C1788 1.392 . S
N1760 Co1754 2.008 . S
N1760 C1761 1.376 . S
N1760 C1764 1.374 . S
C1761 N1760 1.376 . S
C1761 C1762 1.443 . S
C1761 C1788 1.389 . S
C1762 C1761 1.443 . S
C1762 C1763 1.340 . S
C1762 H1794 0.951 . S
C1763 C1762 1.340 . S
C1763 C1764 1.439 . S
C1763 H1795 0.950 . S
C1764 N1760 1.374 . S
C1764 C1763 1.439 . S
C1764 C1789 1.395 . S
N1765 Co1754 1.995 . S
N1765 C1766 1.376 . S
N1765 C1769 1.383 . S
C1766 N1765 1.376 . S
C1766 C1767 1.446 . S
C1766 C1789 1.391 . S
C1767 C1766 1.446 . S
C1767 C1768 1.339 . S
C1767 H1796 0.949 . S
C1768 C1767 1.339 . S
C1768 C1769 1.439 . S
C1768 H1797 0.950 . S
C1769 N1765 1.383 . S
C1769 C1768 1.439 . S
C1769 C1787 1.392 . S
N1770 Co1754 2.282 . S
N1770 C1773 1.332 . S
N1770 C1775 1.332 . S
C1771 C1772 1.386 . S
C1771 C1774 1.388 . S
C1772 C1771 1.386 . S
C1772 C1773 1.382 . S
C1772 H1798 0.950 . S
C1773 N1770 1.332 . S
C1773 C1772 1.382 . S
C1773 H1784 0.952 . S
C1774 C1771 1.388 . S
C1774 C1775 1.382 . S
C1774 H1799 0.950 . S
C1775 N1770 1.332 . S
C1775 C1774 1.382 . S
C1775 H1785 0.948 . S
N1776 Co1754 2.282 . S
N1776 C1780 1.332 . S
N1776 C1781 1.332 . S
C1777 C1778 1.388 . S
C1777 C1781 1.382 . S
C1777 H1800 0.950 . S
C1778 C1777 1.388 . S
C1778 C1779 1.386 . S
C1779 C1778 1.386 . S
C1779 C1780 1.382 . S
C1779 H1801 0.950 . S
C1780 N1776 1.332 . S
C1780 C1779 1.382 . S
C1780 H1782 0.952 . S
C1781 N1776 1.332 . S
C1781 C1777 1.382 . S
C1781 H1783 0.948 . S
H1782 C1780 0.952 . S
H1783 C1781 0.948 . S
H1784 C1773 0.952 . S
H1785 C1775 0.948 . S
C1786 C1752 1.395 . S
C1786 C1756 1.391 . S
C1787 C1749 1.389 . S
C1787 C1769 1.392 . S
C1788 C1759 1.392 . S
C1788 C1761 1.389 . S
C1789 C1764 1.395 . S
C1789 C1766 1.391 . S
H1790 C1750 0.951 . S
H1791 C1751 0.950 . S
H1792 C1757 0.949 . S
H1793 C1758 0.950 . S
H1794 C1762 0.951 . S
H1795 C1763 0.950 . S
H1796 C1767 0.949 . S
H1797 C1768 0.950 . S
H1798 C1772 0.950 . S
H1799 C1774 0.950 . S
H1800 C1777 0.950 . S
H1801 C1779 0.950 . S
C1802 C1803 1.443 . S
C1802 N1806 1.376 . S
C1802 C1840 1.389 . S
C1803 C1802 1.443 . S
C1803 C1804 1.340 . S
C1803 H1843 0.951 . S
C1804 C1803 1.340 . S
C1804 C1805 1.439 . S
C1804 H1844 0.950 . S
C1805 C1804 1.439 . S
C1805 N1806 1.374 . S
C1805 C1839 1.395 . S
N1806 C1802 1.376 . S
N1806 C1805 1.374 . S
N1806 Co1807 2.008 . S
Co1807 N1806 2.008 . S
Co1807 N1808 1.995 . S
Co1807 N1813 2.008 . S
Co1807 N1818 1.995 . S
Co1807 N1823 2.282 . S
Co1807 N1829 2.282 . S
N1808 Co1807 1.995 . S
N1808 C1809 1.376 . S
N1808 C1812 1.383 . S
C1809 N1808 1.376 . S
C1809 C1810 1.446 . S
C1809 C1839 1.391 . S
C1810 C1809 1.446 . S
C1810 C1811 1.339 . S
C1810 H1845 0.949 . S
C1811 C1810 1.339 . S
C1811 C1812 1.439 . S
C1811 H1846 0.950 . S
C1812 N1808 1.383 . S
C1812 C1811 1.439 . S
C1812 C1841 1.392 . S
N1813 Co1807 2.008 . S
N1813 C1814 1.376 . S
N1813 C1817 1.374 . S
C1814 N1813 1.376 . S
C1814 C1815 1.443 . S
C1814 C1841 1.389 . S
C1815 C1814 1.443 . S
C1815 C1816 1.340 . S
C1815 H1847 0.951 . S
C1816 C1815 1.340 . S
C1816 C1817 1.439 . S
C1816 H1848 0.950 . S
C1817 N1813 1.374 . S
C1817 C1816 1.439 . S
C1817 C1842 1.395 . S
N1818 Co1807 1.995 . S
N1818 C1819 1.376 . S
N1818 C1822 1.383 . S
C1819 N1818 1.376 . S
C1819 C1820 1.446 . S
C1819 C1842 1.391 . S
C1820 C1819 1.446 . S
C1820 C1821 1.339 . S
C1820 H1849 0.949 . S
C1821 C1820 1.339 . S
C1821 C1822 1.439 . S
C1821 H1850 0.950 . S
C1822 N1818 1.383 . S
C1822 C1821 1.439 . S
C1822 C1840 1.392 . S
N1823 Co1807 2.282 . S
N1823 C1826 1.332 . S
N1823 C1828 1.332 . S
C1824 C1825 1.386 . S
C1824 C1827 1.388 . S
C1825 C1824 1.386 . S
C1825 C1826 1.382 . S
C1825 H1851 0.950 . S
C1826 N1823 1.332 . S
C1826 C1825 1.382 . S
C1826 H1837 0.952 . S
C1827 C1824 1.388 . S
C1827 C1828 1.382 . S
C1827 H1852 0.950 . S
C1828 N1823 1.332 . S
C1828 C1827 1.382 . S
C1828 H1838 0.948 . S
N1829 Co1807 2.282 . S
N1829 C1833 1.332 . S
N1829 C1834 1.332 . S
C1830 C1831 1.388 . S
C1830 C1834 1.382 . S
C1830 H1853 0.950 . S
C1831 C1830 1.388 . S
C1831 C1832 1.386 . S
C1832 C1831 1.386 . S
C1832 C1833 1.382 . S
C1832 H1854 0.950 . S
C1833 N1829 1.332 . S
C1833 C1832 1.382 . S
C1833 H1835 0.952 . S
C1834 N1829 1.332 . S
C1834 C1830 1.382 . S
C1834 H1836 0.948 . S
H1835 C1833 0.952 . S
H1836 C1834 0.948 . S
H1837 C1826 0.952 . S
H1838 C1828 0.948 . S
C1839 C1805 1.395 . S
C1839 C1809 1.391 . S
C1840 C1802 1.389 . S
C1840 C1822 1.392 . S
C1841 C1812 1.392 . S
C1841 C1814 1.389 . S
C1842 C1817 1.395 . S
C1842 C1819 1.391 . S
H1843 C1803 0.951 . S
H1844 C1804 0.950 . S
H1845 C1810 0.949 . S
H1846 C1811 0.950 . S
H1847 C1815 0.951 . S
H1848 C1816 0.950 . S
H1849 C1820 0.949 . S
H1850 C1821 0.950 . S
H1851 C1825 0.950 . S
H1852 C1827 0.950 . S
H1853 C1830 0.950 . S
H1854 C1832 0.950 . S
C1855 C1856 1.443 . S
C1855 N1859 1.376 . S
C1855 C1893 1.389 . S
C1856 C1855 1.443 . S
C1856 C1857 1.340 . S
C1856 H1896 0.951 . S
C1857 C1856 1.340 . S
C1857 C1858 1.439 . S
C1857 H1897 0.950 . S
C1858 C1857 1.439 . S
C1858 N1859 1.374 . S
C1858 C1892 1.395 . S
N1859 C1855 1.376 . S
N1859 C1858 1.374 . S
N1859 Co1860 2.008 . S
Co1860 N1859 2.008 . S
Co1860 N1861 1.995 . S
Co1860 N1866 2.008 . S
Co1860 N1871 1.995 . S
Co1860 N1876 2.282 . S
Co1860 N1882 2.282 . S
N1861 Co1860 1.995 . S
N1861 C1862 1.376 . S
N1861 C1865 1.383 . S
C1862 N1861 1.376 . S
C1862 C1863 1.446 . S
C1862 C1892 1.391 . S
C1863 C1862 1.446 . S
C1863 C1864 1.339 . S
C1863 H1898 0.949 . S
C1864 C1863 1.339 . S
C1864 C1865 1.439 . S
C1864 H1899 0.950 . S
C1865 N1861 1.383 . S
C1865 C1864 1.439 . S
C1865 C1894 1.392 . S
N1866 Co1860 2.008 . S
N1866 C1867 1.376 . S
N1866 C1870 1.374 . S
C1867 N1866 1.376 . S
C1867 C1868 1.443 . S
C1867 C1894 1.389 . S
C1868 C1867 1.443 . S
C1868 C1869 1.340 . S
C1868 H1900 0.951 . S
C1869 C1868 1.340 . S
C1869 C1870 1.439 . S
C1869 H1901 0.950 . S
C1870 N1866 1.374 . S
C1870 C1869 1.439 . S
C1870 C1895 1.395 . S
N1871 Co1860 1.995 . S
N1871 C1872 1.376 . S
N1871 C1875 1.383 . S
C1872 N1871 1.376 . S
C1872 C1873 1.446 . S
C1872 C1895 1.391 . S
C1873 C1872 1.446 . S
C1873 C1874 1.339 . S
C1873 H1902 0.949 . S
C1874 C1873 1.339 . S
C1874 C1875 1.439 . S
C1874 H1903 0.950 . S
C1875 N1871 1.383 . S
C1875 C1874 1.439 . S
C1875 C1893 1.392 . S
N1876 Co1860 2.282 . S
N1876 C1879 1.332 . S
N1876 C1881 1.332 . S
C1877 C1878 1.386 . S
C1877 C1880 1.388 . S
C1878 C1877 1.386 . S
C1878 C1879 1.382 . S
C1878 H1904 0.950 . S
C1879 N1876 1.332 . S
C1879 C1878 1.382 . S
C1879 H1890 0.952 . S
C1880 C1877 1.388 . S
C1880 C1881 1.382 . S
C1880 H1905 0.950 . S
C1881 N1876 1.332 . S
C1881 C1880 1.382 . S
C1881 H1891 0.948 . S
N1882 Co1860 2.282 . S
N1882 C1886 1.332 . S
N1882 C1887 1.332 . S
C1883 C1884 1.388 . S
C1883 C1887 1.382 . S
C1883 H1906 0.950 . S
C1884 C1883 1.388 . S
C1884 C1885 1.386 . S
C1885 C1884 1.386 . S
C1885 C1886 1.382 . S
C1885 H1907 0.950 . S
C1886 N1882 1.332 . S
C1886 C1885 1.382 . S
C1886 H1888 0.952 . S
C1887 N1882 1.332 . S
C1887 C1883 1.382 . S
C1887 H1889 0.948 . S
H1888 C1886 0.952 . S
H1889 C1887 0.948 . S
H1890 C1879 0.952 . S
H1891 C1881 0.948 . S
C1892 C1858 1.395 . S
C1892 C1862 1.391 . S
C1893 C1855 1.389 . S
C1893 C1875 1.392 . S
C1894 C1865 1.392 . S
C1894 C1867 1.389 . S
C1895 C1870 1.395 . S
C1895 C1872 1.391 . S
H1896 C1856 0.951 . S
H1897 C1857 0.950 . S
H1898 C1863 0.949 . S
H1899 C1864 0.950 . S
H1900 C1868 0.951 . S
H1901 C1869 0.950 . S
H1902 C1873 0.949 . S
H1903 C1874 0.950 . S
H1904 C1878 0.950 . S
H1905 C1880 0.950 . S
H1906 C1883 0.950 . S
H1907 C1885 0.950 . S
H1908 C1914 0.930 . S
H1909 C1918 0.930 . S
H1910 C1923 0.929 . S
H1911 C1921 0.929 . S
H1912 C1916 0.929 . S
H1913 C1922 0.929 . S
C1914 H1908 0.930 . S
C1914 C1915 1.367 . S
C1914 C1922 1.378 . S
C1915 C1914 1.367 . S
C1915 C1923 1.433 . S
C1916 H1912 0.929 . S
C1916 C1918 1.378 . S
C1916 C1920 1.350 . S
C1917 C1920 1.463 . S
C1917 C1922 1.350 . S
C1917 N1925 1.427 . S
C1918 H1909 0.930 . S
C1918 C1916 1.378 . S
C1918 C1919 1.367 . S
C1919 C1918 1.367 . S
C1919 C1921 1.433 . S
C1920 C1916 1.350 . S
C1920 C1917 1.463 . S
C1920 N1924 1.427 . S
C1921 H1911 0.929 . S
C1921 C1919 1.433 . S
C1921 N1924 1.384 . S
C1922 H1913 0.929 . S
C1922 C1914 1.378 . S
C1922 C1917 1.350 . S
C1923 H1910 0.929 . S
C1923 C1915 1.433 . S
C1923 N1925 1.384 . S
N1924 C1920 1.427 . S
N1924 C1921 1.384 . S
N1925 C1917 1.427 . S
N1925 C1923 1.384 . S
H1926 C1932 0.930 . S
H1927 C1936 0.930 . S
H1928 C1941 0.929 . S
H1929 C1939 0.929 . S
H1930 C1934 0.929 . S
H1931 C1940 0.929 . S
C1932 H1926 0.930 . S
C1932 C1933 1.367 . S
C1932 C1940 1.378 . S
C1933 C1932 1.367 . S
C1933 C1941 1.433 . S
C1934 H1930 0.929 . S
C1934 C1936 1.378 . S
C1934 C1938 1.350 . S
C1935 C1938 1.463 . S
C1935 C1940 1.350 . S
C1935 N1943 1.427 . S
C1936 H1927 0.930 . S
C1936 C1934 1.378 . S
C1936 C1937 1.367 . S
C1937 C1936 1.367 . S
C1937 C1939 1.433 . S
C1938 C1934 1.350 . S
C1938 C1935 1.463 . S
C1938 N1942 1.427 . S
C1939 H1929 0.929 . S
C1939 C1937 1.433 . S
C1939 N1942 1.384 . S
C1940 H1931 0.929 . S
C1940 C1932 1.378 . S
C1940 C1935 1.350 . S
C1941 H1928 0.929 . S
C1941 C1933 1.433 . S
C1941 N1943 1.384 . S
N1942 C1938 1.427 . S
N1942 C1939 1.384 . S
N1943 C1935 1.427 . S
N1943 C1941 1.384 . S
H1944 C1950 0.930 . S
H1945 C1954 0.930 . S
H1946 C1959 0.929 . S
H1947 C1957 0.929 . S
H1948 C1952 0.929 . S
H1949 C1958 0.929 . S
C1950 H1944 0.930 . S
C1950 C1951 1.367 . S
C1950 C1958 1.378 . S
C1951 C1950 1.367 . S
C1951 C1959 1.433 . S
C1952 H1948 0.929 . S
C1952 C1954 1.378 . S
C1952 C1956 1.350 . S
C1953 C1956 1.463 . S
C1953 C1958 1.350 . S
C1953 N1961 1.427 . S
C1954 H1945 0.930 . S
C1954 C1952 1.378 . S
C1954 C1955 1.367 . S
C1955 C1954 1.367 . S
C1955 C1957 1.433 . S
C1956 C1952 1.350 . S
C1956 C1953 1.463 . S
C1956 N1960 1.427 . S
C1957 H1947 0.929 . S
C1957 C1955 1.433 . S
C1957 N1960 1.384 . S
C1958 H1949 0.929 . S
C1958 C1950 1.378 . S
C1958 C1953 1.350 . S
C1959 H1946 0.929 . S
C1959 C1951 1.433 . S
C1959 N1961 1.384 . S
N1960 C1956 1.427 . S
N1960 C1957 1.384 . S
N1961 C1953 1.427 . S
N1961 C1959 1.384 . S
H1962 C1968 0.930 . S
H1963 C1972 0.930 . S
H1964 C1977 0.929 . S
H1965 C1975 0.929 . S
H1966 C1970 0.929 . S
H1967 C1976 0.929 . S
C1968 H1962 0.930 . S
C1968 C1969 1.367 . S
C1968 C1976 1.378 . S
C1969 C1968 1.367 . S
C1969 C1977 1.433 . S
C1970 H1966 0.929 . S
C1970 C1972 1.378 . S
C1970 C1974 1.350 . S
C1971 C1974 1.463 . S
C1971 C1976 1.350 . S
C1971 N1979 1.427 . S
C1972 H1963 0.930 . S
C1972 C1970 1.378 . S
C1972 C1973 1.367 . S
C1973 C1972 1.367 . S
C1973 C1975 1.433 . S
C1974 C1970 1.350 . S
C1974 C1971 1.463 . S
C1974 N1978 1.427 . S
C1975 H1965 0.929 . S
C1975 C1973 1.433 . S
C1975 N1978 1.384 . S
C1976 H1967 0.929 . S
C1976 C1968 1.378 . S
C1976 C1971 1.350 . S
C1977 H1964 0.929 . S
C1977 C1969 1.433 . S
C1977 N1979 1.384 . S
N1978 C1974 1.427 . S
N1978 C1975 1.384 . S
N1979 C1971 1.427 . S
N1979 C1977 1.384 . S
H1980 C1986 0.930 . S
H1981 C1990 0.930 . S
H1982 C1995 0.929 . S
H1983 C1993 0.929 . S
H1984 C1988 0.929 . S
H1985 C1994 0.929 . S
C1986 H1980 0.930 . S
C1986 C1987 1.367 . S
C1986 C1994 1.378 . S
C1987 C1986 1.367 . S
C1987 C1995 1.433 . S
C1988 H1984 0.929 . S
C1988 C1990 1.378 . S
C1988 C1992 1.350 . S
C1989 C1992 1.463 . S
C1989 C1994 1.350 . S
C1989 N1997 1.427 . S
C1990 H1981 0.930 . S
C1990 C1988 1.378 . S
C1990 C1991 1.367 . S
C1991 C1990 1.367 . S
C1991 C1993 1.433 . S
C1992 C1988 1.350 . S
C1992 C1989 1.463 . S
C1992 N1996 1.427 . S
C1993 H1983 0.929 . S
C1993 C1991 1.433 . S
C1993 N1996 1.384 . S
C1994 H1985 0.929 . S
C1994 C1986 1.378 . S
C1994 C1989 1.350 . S
C1995 H1982 0.929 . S
C1995 C1987 1.433 . S
C1995 N1997 1.384 . S
N1996 C1992 1.427 . S
N1996 C1993 1.384 . S
N1997 C1989 1.427 . S
N1997 C1995 1.384 . S
H1998 C2004 0.930 . S
H1999 C2008 0.930 . S
H2000 C2013 0.929 . S
H2001 C2011 0.929 . S
H2002 C2006 0.929 . S
H2003 C2012 0.929 . S
C2004 H1998 0.930 . S
C2004 C2005 1.367 . S
C2004 C2012 1.378 . S
C2005 C2004 1.367 . S
C2005 C2013 1.433 . S
C2006 H2002 0.929 . S
C2006 C2008 1.378 . S
C2006 C2010 1.350 . S
C2007 C2010 1.463 . S
C2007 C2012 1.350 . S
C2007 N2015 1.427 . S
C2008 H1999 0.930 . S
C2008 C2006 1.378 . S
C2008 C2009 1.367 . S
C2009 C2008 1.367 . S
C2009 C2011 1.433 . S
C2010 C2006 1.350 . S
C2010 C2007 1.463 . S
C2010 N2014 1.427 . S
C2011 H2001 0.929 . S
C2011 C2009 1.433 . S
C2011 N2014 1.384 . S
C2012 H2003 0.929 . S
C2012 C2004 1.378 . S
C2012 C2007 1.350 . S
C2013 H2000 0.929 . S
C2013 C2005 1.433 . S
C2013 N2015 1.384 . S
N2014 C2010 1.427 . S
N2014 C2011 1.384 . S
N2015 C2007 1.427 . S
N2015 C2013 1.384 . S
H2016 C2022 0.930 . S
H2017 C2026 0.930 . S
H2018 C2031 0.929 . S
H2019 C2029 0.929 . S
H2020 C2024 0.929 . S
H2021 C2030 0.929 . S
C2022 H2016 0.930 . S
C2022 C2023 1.367 . S
C2022 C2030 1.378 . S
C2023 C2022 1.367 . S
C2023 C2031 1.433 . S
C2024 H2020 0.929 . S
C2024 C2026 1.378 . S
C2024 C2028 1.350 . S
C2025 C2028 1.463 . S
C2025 C2030 1.350 . S
C2025 N2033 1.427 . S
C2026 H2017 0.930 . S
C2026 C2024 1.378 . S
C2026 C2027 1.367 . S
C2027 C2026 1.367 . S
C2027 C2029 1.433 . S
C2028 C2024 1.350 . S
C2028 C2025 1.463 . S
C2028 N2032 1.427 . S
C2029 H2019 0.929 . S
C2029 C2027 1.433 . S
C2029 N2032 1.384 . S
C2030 H2021 0.929 . S
C2030 C2022 1.378 . S
C2030 C2025 1.350 . S
C2031 H2018 0.929 . S
C2031 C2023 1.433 . S
C2031 N2033 1.384 . S
N2032 C2028 1.427 . S
N2032 C2029 1.384 . S
N2033 C2025 1.427 . S
N2033 C2031 1.384 . S
H2034 C2040 0.930 . S
H2035 C2044 0.930 . S
H2036 C2049 0.929 . S
H2037 C2047 0.929 . S
H2038 C2042 0.929 . S
H2039 C2048 0.929 . S
C2040 H2034 0.930 . S
C2040 C2041 1.367 . S
C2040 C2048 1.378 . S
C2041 C2040 1.367 . S
C2041 C2049 1.433 . S
C2042 H2038 0.929 . S
C2042 C2044 1.378 . S
C2042 C2046 1.350 . S
C2043 C2046 1.463 . S
C2043 C2048 1.350 . S
C2043 N2051 1.427 . S
C2044 H2035 0.930 . S
C2044 C2042 1.378 . S
C2044 C2045 1.367 . S
C2045 C2044 1.367 . S
C2045 C2047 1.433 . S
C2046 C2042 1.350 . S
C2046 C2043 1.463 . S
C2046 N2050 1.427 . S
C2047 H2037 0.929 . S
C2047 C2045 1.433 . S
C2047 N2050 1.384 . S
C2048 H2039 0.929 . S
C2048 C2040 1.378 . S
C2048 C2043 1.350 . S
C2049 H2036 0.929 . S
C2049 C2041 1.433 . S
C2049 N2051 1.384 . S
N2050 C2046 1.427 . S
N2050 C2047 1.384 . S
N2051 C2043 1.427 . S
N2051 C2049 1.384 . S
H2052 C2058 0.930 . S
H2053 C2062 0.930 . S
H2054 C2067 0.929 . S
H2055 C2065 0.929 . S
H2056 C2060 0.929 . S
H2057 C2066 0.929 . S
C2058 H2052 0.930 . S
C2058 C2059 1.367 . S
C2058 C2066 1.378 . S
C2059 C2058 1.367 . S
C2059 C2067 1.433 . S
C2060 H2056 0.929 . S
C2060 C2062 1.378 . S
C2060 C2064 1.350 . S
C2061 C2064 1.463 . S
C2061 C2066 1.350 . S
C2061 N2069 1.427 . S
C2062 H2053 0.930 . S
C2062 C2060 1.378 . S
C2062 C2063 1.367 . S
C2063 C2062 1.367 . S
C2063 C2065 1.433 . S
C2064 C2060 1.350 . S
C2064 C2061 1.463 . S
C2064 N2068 1.427 . S
C2065 H2055 0.929 . S
C2065 C2063 1.433 . S
C2065 N2068 1.384 . S
C2066 H2057 0.929 . S
C2066 C2058 1.378 . S
C2066 C2061 1.350 . S
C2067 H2054 0.929 . S
C2067 C2059 1.433 . S
C2067 N2069 1.384 . S
N2068 C2064 1.427 . S
N2068 C2065 1.384 . S
N2069 C2061 1.427 . S
N2069 C2067 1.384 . S
H2070 C2076 0.930 . S
H2071 C2080 0.930 . S
H2072 C2085 0.929 . S
H2073 C2083 0.929 . S
H2074 C2078 0.929 . S
H2075 C2084 0.929 . S
C2076 H2070 0.930 . S
C2076 C2077 1.367 . S
C2076 C2084 1.378 . S
C2077 C2076 1.367 . S
C2077 C2085 1.433 . S
C2078 H2074 0.929 . S
C2078 C2080 1.378 . S
C2078 C2082 1.350 . S
C2079 C2082 1.463 . S
C2079 C2084 1.350 . S
C2079 N2087 1.427 . S
C2080 H2071 0.930 . S
C2080 C2078 1.378 . S
C2080 C2081 1.367 . S
C2081 C2080 1.367 . S
C2081 C2083 1.433 . S
C2082 C2078 1.350 . S
C2082 C2079 1.463 . S
C2082 N2086 1.427 . S
C2083 H2073 0.929 . S
C2083 C2081 1.433 . S
C2083 N2086 1.384 . S
C2084 H2075 0.929 . S
C2084 C2076 1.378 . S
C2084 C2079 1.350 . S
C2085 H2072 0.929 . S
C2085 C2077 1.433 . S
C2085 N2087 1.384 . S
N2086 C2082 1.427 . S
N2086 C2083 1.384 . S
N2087 C2079 1.427 . S
N2087 C2085 1.384 . S
H2088 C2094 0.930 . S
H2089 C2098 0.930 . S
H2090 C2103 0.929 . S
H2091 C2101 0.929 . S
H2092 C2096 0.929 . S
H2093 C2102 0.929 . S
C2094 H2088 0.930 . S
C2094 C2095 1.367 . S
C2094 C2102 1.378 . S
C2095 C2094 1.367 . S
C2095 C2103 1.433 . S
C2096 H2092 0.929 . S
C2096 C2098 1.378 . S
C2096 C2100 1.350 . S
C2097 C2100 1.463 . S
C2097 C2102 1.350 . S
C2097 N2105 1.427 . S
C2098 H2089 0.930 . S
C2098 C2096 1.378 . S
C2098 C2099 1.367 . S
C2099 C2098 1.367 . S
C2099 C2101 1.433 . S
C2100 C2096 1.350 . S
C2100 C2097 1.463 . S
C2100 N2104 1.427 . S
C2101 H2091 0.929 . S
C2101 C2099 1.433 . S
C2101 N2104 1.384 . S
C2102 H2093 0.929 . S
C2102 C2094 1.378 . S
C2102 C2097 1.350 . S
C2103 H2090 0.929 . S
C2103 C2095 1.433 . S
C2103 N2105 1.384 . S
N2104 C2100 1.427 . S
N2104 C2101 1.384 . S
N2105 C2097 1.427 . S
N2105 C2103 1.384 . S
H2106 C2112 0.930 . S
H2107 C2116 0.930 . S
H2108 C2121 0.929 . S
H2109 C2119 0.929 . S
H2110 C2114 0.929 . S
H2111 C2120 0.929 . S
C2112 H2106 0.930 . S
C2112 C2113 1.367 . S
C2112 C2120 1.378 . S
C2113 C2112 1.367 . S
C2113 C2121 1.433 . S
C2114 H2110 0.929 . S
C2114 C2116 1.378 . S
C2114 C2118 1.350 . S
C2115 C2118 1.463 . S
C2115 C2120 1.350 . S
C2115 N2123 1.427 . S
C2116 H2107 0.930 . S
C2116 C2114 1.378 . S
C2116 C2117 1.367 . S
C2117 C2116 1.367 . S
C2117 C2119 1.433 . S
C2118 C2114 1.350 . S
C2118 C2115 1.463 . S
C2118 N2122 1.427 . S
C2119 H2109 0.929 . S
C2119 C2117 1.433 . S
C2119 N2122 1.384 . S
C2120 H2111 0.929 . S
C2120 C2112 1.378 . S
C2120 C2115 1.350 . S
C2121 H2108 0.929 . S
C2121 C2113 1.433 . S
C2121 N2123 1.384 . S
N2122 C2118 1.427 . S
N2122 C2119 1.384 . S
N2123 C2115 1.427 . S
N2123 C2121 1.384 . S
H2124 C2130 0.930 . S
H2125 C2134 0.930 . S
H2126 C2139 0.929 . S
H2127 C2137 0.929 . S
H2128 C2132 0.929 1_655 S
H2129 C2138 0.929 1_455 S
C2130 H2124 0.930 . S
C2130 C2131 1.367 . S
C2130 C2138 1.378 . S
C2131 C2130 1.367 . S
C2131 C2139 1.433 . S
C2132 H2128 0.929 1_455 S
C2132 C2134 1.378 . S
C2132 C2136 1.350 . S
C2133 C2136 1.463 1_655 S
C2133 C2138 1.350 . S
C2133 N2141 1.427 . S
C2134 H2125 0.930 . S
C2134 C2132 1.378 . S
C2134 C2135 1.367 . S
C2135 C2134 1.367 . S
C2135 C2137 1.433 . S
C2136 C2132 1.350 . S
C2136 C2133 1.463 1_455 S
C2136 N2140 1.427 . S
C2137 H2127 0.929 . S
C2137 C2135 1.433 . S
C2137 N2140 1.384 . S
C2138 H2129 0.929 1_655 S
C2138 C2130 1.378 . S
C2138 C2133 1.350 . S
C2139 H2126 0.929 . S
C2139 C2131 1.433 . S
C2139 N2141 1.384 . S
N2140 C2136 1.427 . S
N2140 C2137 1.384 . S
N2141 C2133 1.427 . S
N2141 C2139 1.384 . S
H2142 C2148 0.930 . S
H2143 C2152 0.930 . S
H2144 C2157 0.929 . S
H2145 C2155 0.929 . S
H2146 C2150 0.929 . S
H2147 C2156 0.929 . S
C2148 H2142 0.930 . S
C2148 C2149 1.367 . S
C2148 C2156 1.378 . S
C2149 C2148 1.367 . S
C2149 C2157 1.433 . S
C2150 H2146 0.929 . S
C2150 C2152 1.378 . S
C2150 C2154 1.350 . S
C2151 C2154 1.463 . S
C2151 C2156 1.350 . S
C2151 N2159 1.427 . S
C2152 H2143 0.930 . S
C2152 C2150 1.378 . S
C2152 C2153 1.367 . S
C2153 C2152 1.367 . S
C2153 C2155 1.433 . S
C2154 C2150 1.350 . S
C2154 C2151 1.463 . S
C2154 N2158 1.427 . S
C2155 H2145 0.929 . S
C2155 C2153 1.433 . S
C2155 N2158 1.384 . S
C2156 H2147 0.929 . S
C2156 C2148 1.378 . S
C2156 C2151 1.350 . S
C2157 H2144 0.929 . S
C2157 C2149 1.433 . S
C2157 N2159 1.384 . S
N2158 C2154 1.427 . S
N2158 C2155 1.384 . S
N2159 C2151 1.427 . S
N2159 C2157 1.384 . S
H2160 C2166 0.930 . S
H2161 C2170 0.930 . S
H2162 C2175 0.929 . S
H2163 C2173 0.929 . S
H2164 C2168 0.929 . S
H2165 C2174 0.929 . S
C2166 H2160 0.930 . S
C2166 C2167 1.367 . S
C2166 C2174 1.378 1_545 S
C2167 C2166 1.367 . S
C2167 C2175 1.433 . S
C2168 H2164 0.929 . S
C2168 C2170 1.378 . S
C2168 C2172 1.350 . S
C2169 C2172 1.463 . S
C2169 C2174 1.350 . S
C2169 N2177 1.427 1_565 S
C2170 H2161 0.930 . S
C2170 C2168 1.378 . S
C2170 C2171 1.367 . S
C2171 C2170 1.367 . S
C2171 C2173 1.433 . S
C2172 C2168 1.350 . S
C2172 C2169 1.463 . S
C2172 N2176 1.427 . S
C2173 H2163 0.929 . S
C2173 C2171 1.433 . S
C2173 N2176 1.384 . S
C2174 H2165 0.929 . S
C2174 C2166 1.378 1_565 S
C2174 C2169 1.350 . S
C2175 H2162 0.929 . S
C2175 C2167 1.433 . S
C2175 N2177 1.384 . S
N2176 C2172 1.427 . S
N2176 C2173 1.384 . S
N2177 C2169 1.427 1_545 S
N2177 C2175 1.384 . S
H2178 C2184 0.930 1_554 S
H2179 C2188 0.930 . S
H2180 C2193 0.929 . S
H2181 C2191 0.929 . S
H2182 C2186 0.914 1_545 S
H2183 C2192 0.929 . S
C2184 H2178 0.930 1_556 S
C2184 C2185 1.367 . S
C2184 C2192 1.378 1_556 S
C2185 C2184 1.367 . S
C2185 C2193 1.433 . S
C2186 H2182 0.914 1_565 S
C2186 C2188 1.431 . S
C2186 C2190 1.314 1_565 S
C2187 C2190 1.463 . S
C2187 C2192 1.350 1_556 S
C2187 N2195 1.427 . S
C2188 H2179 0.930 . S
C2188 C2186 1.431 . S
C2188 C2189 1.367 1_556 S
C2189 C2188 1.367 1_554 S
C2189 C2191 1.433 . S
C2190 C2186 1.314 1_545 S
C2190 C2187 1.463 . S
C2190 N2194 1.427 1_546 S
C2191 H2181 0.929 . S
C2191 C2189 1.433 . S
C2191 N2194 1.384 . S
C2192 H2183 0.929 . S
C2192 C2184 1.378 1_554 S
C2192 C2187 1.350 1_554 S
C2193 H2180 0.929 . S
C2193 C2185 1.433 . S
C2193 N2195 1.384 . S
N2194 C2190 1.427 1_564 S
N2194 C2191 1.384 . S
N2195 C2187 1.427 . S
N2195 C2193 1.384 . S
H2196 C2202 0.930 . S
H2197 C2206 0.909 1_655 S
H2198 C2211 0.929 . S
H2199 C2209 0.929 . S
H2200 C2204 0.929 . S
H2201 C2210 0.929 1_455 S
C2202 H2196 0.930 . S
C2202 C2203 1.367 . S
C2202 C2210 1.378 . S
C2203 C2202 1.367 . S
C2203 C2211 1.433 . S
C2204 H2200 0.929 . S
C2204 C2206 1.365 1_655 S
C2204 C2208 1.350 1_554 S
C2205 C2208 1.463 . S
C2205 C2210 1.350 . S
C2205 N2213 1.427 . S
C2206 H2197 0.909 1_455 S
C2206 C2204 1.365 1_455 S
C2206 C2207 1.402 . S
C2207 C2206 1.402 . S
C2207 C2209 1.433 1_554 S
C2208 C2204 1.350 1_556 S
C2208 C2205 1.463 . S
C2208 N2212 1.427 1_655 S
C2209 H2199 0.929 . S
C2209 C2207 1.433 1_556 S
C2209 N2212 1.384 . S
C2210 H2201 0.929 1_655 S
C2210 C2202 1.378 . S
C2210 C2205 1.350 . S
C2211 H2198 0.929 . S
C2211 C2203 1.433 . S
C2211 N2213 1.384 . S
N2212 C2208 1.427 1_455 S
N2212 C2209 1.384 . S
N2213 C2205 1.427 . S
N2213 C2211 1.384 . S
H2214 C2220 0.930 . S
H2215 C2224 0.930 . S
H2216 C2229 0.929 . S
H2217 C2227 0.929 . S
H2218 C2222 0.929 . S
H2219 C2228 0.929 . S
C2220 H2214 0.930 . S
C2220 C2221 1.367 . S
C2220 C2228 1.378 . S
C2221 C2220 1.367 . S
C2221 C2229 1.433 . S
C2222 H2218 0.929 . S
C2222 C2224 1.378 . S
C2222 C2226 1.350 1_554 S
C2223 C2226 1.463 . S
C2223 C2228 1.350 . S
C2223 N2231 1.427 . S
C2224 H2215 0.930 . S
C2224 C2222 1.378 . S
C2224 C2225 1.367 . S
C2225 C2224 1.367 . S
C2225 C2227 1.433 1_554 S
C2226 C2222 1.350 1_556 S
C2226 C2223 1.463 . S
C2226 N2230 1.427 . S
C2227 H2217 0.929 . S
C2227 C2225 1.433 1_556 S
C2227 N2230 1.384 . S
C2228 H2219 0.929 . S
C2228 C2220 1.378 . S
C2228 C2223 1.350 . S
C2229 H2216 0.929 . S
C2229 C2221 1.433 . S
C2229 N2231 1.384 . S
N2230 C2226 1.427 . S
N2230 C2227 1.384 . S
N2231 C2223 1.427 . S
N2231 C2229 1.384 . S
H2232 C2238 0.930 1_565 S
H2233 C2242 0.930 . S
H2234 C2247 0.929 . S
H2235 C2245 0.929 . S
H2236 C2240 0.929 . S
H2237 C2246 0.929 . S
C2238 H2232 0.930 1_545 S
C2238 C2239 1.367 . S
C2238 C2246 1.378 . S
C2239 C2238 1.367 . S
C2239 C2247 1.433 1_554 S
C2240 H2236 0.929 . S
C2240 C2242 1.378 . S
C2240 C2244 1.350 . S
C2241 C2244 1.463 . S
C2241 C2246 1.350 . S
C2241 N2249 1.441 . S
C2242 H2233 0.930 . S
C2242 C2240 1.378 . S
C2242 C2243 1.367 . S
C2243 C2242 1.367 . S
C2243 C2245 1.433 . S
C2244 C2240 1.350 . S
C2244 C2241 1.463 . S
C2244 N2248 1.427 . S
C2245 H2235 0.929 . S
C2245 C2243 1.433 . S
C2245 N2248 1.384 . S
C2246 H2237 0.929 . S
C2246 C2238 1.378 . S
C2246 C2241 1.350 . S
C2247 H2234 0.929 . S
C2247 C2239 1.433 1_556 S
C2247 N2249 1.376 1_556 S
N2248 C2244 1.427 . S
N2248 C2245 1.384 . S
N2249 C2241 1.441 . S
N2249 C2247 1.376 1_554 S
H2250 C2256 0.930 . S
H2251 C2260 0.930 . S
H2252 C2265 0.929 . S
H2253 C2263 0.929 1_556 S
H2254 C2258 0.929 . S
H2255 C2264 0.929 . S
C2256 H2250 0.930 . S
C2256 C2257 1.367 . S
C2256 C2264 1.378 . S
C2257 C2256 1.367 . S
C2257 C2265 1.433 1_556 S
C2258 H2254 0.929 . S
C2258 C2260 1.378 . S
C2258 C2262 1.350 . S
C2259 C2262 1.463 . S
C2259 C2264 1.350 1_554 S
C2259 N2267 1.427 . S
C2260 H2251 0.930 . S
C2260 C2258 1.378 . S
C2260 C2261 1.367 . S
C2261 C2260 1.367 . S
C2261 C2263 1.433 . S
C2262 C2258 1.350 . S
C2262 C2259 1.463 . S
C2262 N2266 1.427 1_554 S
C2263 H2253 0.929 1_554 S
C2263 C2261 1.433 . S
C2263 N2266 1.384 1_554 S
C2264 H2255 0.929 . S
C2264 C2256 1.378 . S
C2264 C2259 1.350 1_556 S
C2265 H2252 0.929 . S
C2265 C2257 1.433 1_554 S
C2265 N2267 1.384 . S
N2266 C2262 1.427 1_556 S
N2266 C2263 1.384 1_556 S
N2267 C2259 1.427 . S
N2267 C2265 1.384 . S
H2268 C2274 0.930 . S
H2269 C2278 0.930 . S
H2270 C2283 0.929 . S
H2271 C2281 0.929 . S
H2272 C2276 0.929 . S
H2273 C2282 0.929 . S
C2274 H2268 0.930 . S
C2274 C2275 1.367 . S
C2274 C2282 1.378 . S
C2275 C2274 1.367 . S
C2275 C2283 1.433 . S
C2276 H2272 0.929 . S
C2276 C2278 1.378 . S
C2276 C2280 1.350 1_556 S
C2277 C2280 1.463 . S
C2277 C2282 1.350 . S
C2277 N2285 1.427 . S
C2278 H2269 0.930 . S
C2278 C2276 1.378 . S
C2278 C2279 1.367 . S
C2279 C2278 1.367 . S
C2279 C2281 1.433 . S
C2280 C2276 1.350 1_554 S
C2280 C2277 1.463 . S
C2280 N2284 1.427 . S
C2281 H2271 0.929 . S
C2281 C2279 1.433 . S
C2281 N2284 1.384 1_556 S
C2282 H2273 0.929 . S
C2282 C2274 1.378 . S
C2282 C2277 1.350 . S
C2283 H2270 0.929 . S
C2283 C2275 1.433 . S
C2283 N2285 1.384 . S
N2284 C2280 1.427 . S
N2284 C2281 1.384 1_554 S
N2285 C2277 1.427 . S
N2285 C2283 1.384 . S
H2286 C2292 0.930 . S
H2287 C2296 0.930 . S
H2288 C2301 0.929 . S
H2289 C2299 0.929 . S
H2290 C2294 0.929 . S
H2291 C2300 0.929 . S
C2292 H2286 0.930 . S
C2292 C2293 1.367 . S
C2292 C2300 1.378 . S
C2293 C2292 1.367 . S
C2293 C2301 1.433 . S
C2294 H2290 0.929 . S
C2294 C2296 1.378 . S
C2294 C2298 1.350 . S
C2295 C2298 1.463 . S
C2295 C2300 1.350 . S
C2295 N2303 1.427 . S
C2296 H2287 0.930 . S
C2296 C2294 1.378 . S
C2296 C2297 1.367 . S
C2297 C2296 1.367 . S
C2297 C2299 1.433 . S
C2298 C2294 1.350 . S
C2298 C2295 1.463 . S
C2298 N2302 1.427 . S
C2299 H2289 0.929 . S
C2299 C2297 1.433 . S
C2299 N2302 1.384 . S
C2300 H2291 0.929 . S
C2300 C2292 1.378 . S
C2300 C2295 1.350 . S
C2301 H2288 0.929 . S
C2301 C2293 1.433 . S
C2301 N2303 1.384 . S
N2302 C2298 1.427 . S
N2302 C2299 1.384 . S
N2303 C2295 1.427 . S
N2303 C2301 1.384 . S
H2304 C2310 0.930 . S
H2305 C2314 0.930 . S
H2306 C2319 0.929 . S
H2307 C2317 0.929 . S
H2308 C2312 0.929 . S
H2309 C2318 0.929 . S
C2310 H2304 0.930 . S
C2310 C2311 1.367 . S
C2310 C2318 1.378 . S
C2311 C2310 1.367 . S
C2311 C2319 1.433 . S
C2312 H2308 0.929 . S
C2312 C2314 1.378 . S
C2312 C2316 1.350 . S
C2313 C2316 1.463 . S
C2313 C2318 1.350 . S
C2313 N2321 1.427 . S
C2314 H2305 0.930 . S
C2314 C2312 1.378 . S
C2314 C2315 1.367 . S
C2315 C2314 1.367 . S
C2315 C2317 1.433 . S
C2316 C2312 1.350 . S
C2316 C2313 1.463 . S
C2316 N2320 1.427 . S
C2317 H2307 0.929 . S
C2317 C2315 1.433 . S
C2317 N2320 1.384 . S
C2318 H2309 0.929 . S
C2318 C2310 1.378 . S
C2318 C2313 1.350 . S
C2319 H2306 0.929 . S
C2319 C2311 1.433 . S
C2319 N2321 1.384 . S
N2320 C2316 1.427 . S
N2320 C2317 1.384 . S
N2321 C2313 1.427 . S
N2321 C2319 1.384 . S
H2322 C2328 0.930 . S
H2323 C2332 0.930 . S
H2324 C2337 0.906 1_545 S
H2325 C2335 0.929 . S
H2326 C2330 0.929 . S
H2327 C2336 0.929 . S
C2328 H2322 0.930 . S
C2328 C2329 1.367 . S
C2328 C2336 1.378 . S
C2329 C2328 1.367 . S
C2329 C2337 1.433 . S
C2330 H2326 0.929 . S
C2330 C2332 1.378 . S
C2330 C2334 1.350 . S
C2331 C2334 1.463 . S
C2331 C2336 1.350 . S
C2331 N2339 1.427 . S
C2332 H2323 0.930 . S
C2332 C2330 1.378 . S
C2332 C2333 1.367 . S
C2333 C2332 1.367 . S
C2333 C2335 1.433 . S
C2334 C2330 1.350 . S
C2334 C2331 1.463 . S
C2334 N2338 1.427 . S
C2335 H2325 0.929 . S
C2335 C2333 1.433 . S
C2335 N2338 1.384 . S
C2336 H2327 0.929 . S
C2336 C2328 1.378 . S
C2336 C2331 1.350 . S
C2337 H2324 0.906 1_565 S
C2337 C2329 1.433 . S
C2337 N2339 1.384 . S
N2338 C2334 1.427 . S
N2338 C2335 1.384 . S
N2339 C2331 1.427 . S
N2339 C2337 1.384 . S
H2340 C2346 0.930 . S
H2341 C2350 0.930 . S
H2342 C2355 0.929 . S
H2343 C2353 0.929 . S
H2344 C2348 0.929 . S
H2345 C2354 0.929 . S
C2346 H2340 0.930 . S
C2346 C2347 1.367 . S
C2346 C2354 1.378 . S
C2347 C2346 1.367 . S
C2347 C2355 1.433 . S
C2348 H2344 0.929 . S
C2348 C2350 1.378 . S
C2348 C2352 1.350 1_554 S
C2349 C2352 1.463 . S
C2349 C2354 1.350 . S
C2349 N2357 1.427 . S
C2350 H2341 0.930 . S
C2350 C2348 1.378 . S
C2350 C2351 1.367 . S
C2351 C2350 1.367 . S
C2351 C2353 1.433 1_554 S
C2352 C2348 1.350 1_556 S
C2352 C2349 1.463 . S
C2352 N2356 1.427 . S
C2353 H2343 0.929 . S
C2353 C2351 1.433 1_556 S
C2353 N2356 1.384 . S
C2354 H2345 0.929 . S
C2354 C2346 1.378 . S
C2354 C2349 1.350 . S
C2355 H2342 0.929 . S
C2355 C2347 1.433 . S
C2355 N2357 1.384 . S
N2356 C2352 1.427 . S
N2356 C2353 1.384 . S
N2357 C2349 1.427 . S
N2357 C2355 1.384 . S
H2358 C2364 0.930 . S
H2359 C2368 0.930 . S
H2360 C2373 0.929 . S
H2361 C2371 0.929 . S
H2362 C2366 0.929 . S
H2363 C2372 0.929 . S
C2364 H2358 0.930 . S
C2364 C2365 1.367 . S
C2364 C2372 1.378 . S
C2365 C2364 1.367 . S
C2365 C2373 1.433 1_556 S
C2366 H2362 0.929 . S
C2366 C2368 1.378 . S
C2366 C2370 1.350 . S
C2367 C2370 1.463 . S
C2367 C2372 1.350 1_554 S
C2367 N2375 1.427 . S
C2368 H2359 0.930 . S
C2368 C2366 1.378 . S
C2368 C2369 1.367 . S
C2369 C2368 1.367 . S
C2369 C2371 1.433 . S
C2370 C2366 1.350 . S
C2370 C2367 1.463 . S
C2370 N2374 1.427 . S
C2371 H2361 0.929 . S
C2371 C2369 1.433 . S
C2371 N2374 1.384 . S
C2372 H2363 0.929 . S
C2372 C2364 1.378 . S
C2372 C2367 1.350 1_556 S
C2373 H2360 0.929 . S
C2373 C2365 1.433 1_554 S
C2373 N2375 1.384 . S
N2374 C2370 1.427 . S
N2374 C2371 1.384 . S
N2375 C2367 1.427 . S
N2375 C2373 1.384 . S
H2376 C2382 0.930 . S
H2377 C2386 0.930 . S
H2378 C2391 0.929 1_554 S
H2379 C2389 0.929 . S
H2380 C2384 0.929 . S
H2381 C2390 0.929 . S
C2382 H2376 0.930 . S
C2382 C2383 1.367 . S
C2382 C2390 1.378 . S
C2383 C2382 1.367 . S
C2383 C2391 1.433 . S
C2384 H2380 0.929 . S
C2384 C2386 1.378 . S
C2384 C2388 1.350 . S
C2385 C2388 1.463 . S
C2385 C2390 1.350 1_554 S
C2385 N2393 1.427 . S
C2386 H2377 0.930 . S
C2386 C2384 1.378 . S
C2386 C2387 1.367 . S
C2387 C2386 1.367 . S
C2387 C2389 1.433 . S
C2388 C2384 1.350 . S
C2388 C2385 1.463 . S
C2388 N2392 1.427 . S
C2389 H2379 0.929 . S
C2389 C2387 1.433 . S
C2389 N2392 1.384 . S
C2390 H2381 0.929 . S
C2390 C2382 1.378 . S
C2390 C2385 1.350 1_556 S
C2391 H2378 0.929 1_556 S
C2391 C2383 1.433 . S
C2391 N2393 1.384 1_556 S
N2392 C2388 1.427 . S
N2392 C2389 1.384 . S
N2393 C2385 1.427 . S
N2393 C2391 1.384 1_554 S
H2394 C2400 0.930 . S
H2395 C2404 0.930 1_455 S
H2396 C2409 0.929 . S
H2397 C2407 0.929 . S
H2398 C2402 0.929 . S
H2399 C2408 0.929 . S
C2400 H2394 0.930 . S
C2400 C2401 1.367 . S
C2400 C2408 1.378 . S
C2401 C2400 1.367 . S
C2401 C2409 1.433 . S
C2402 H2398 0.929 . S
C2402 C2404 1.378 . S
C2402 C2406 1.350 . S
C2403 C2406 1.463 . S
C2403 C2408 1.350 . S
C2403 N2411 1.427 . S
C2404 H2395 0.930 1_655 S
C2404 C2402 1.378 . S
C2404 C2405 1.367 . S
C2405 C2404 1.367 . S
C2405 C2407 1.433 . S
C2406 C2402 1.350 . S
C2406 C2403 1.463 . S
C2406 N2410 1.427 . S
C2407 H2397 0.929 . S
C2407 C2405 1.433 . S
C2407 N2410 1.384 . S
C2408 H2399 0.929 . S
C2408 C2400 1.378 . S
C2408 C2403 1.350 . S
C2409 H2396 0.929 . S
C2409 C2401 1.433 . S
C2409 N2411 1.384 . S
N2410 C2406 1.427 . S
N2410 C2407 1.384 . S
N2411 C2403 1.427 . S
N2411 C2409 1.384 . S
H2412 C2418 0.930 . S
H2413 C2422 0.930 . S
H2414 C2427 0.929 . S
H2415 C2425 0.929 . S
H2416 C2420 0.929 . S
H2417 C2426 0.929 . S
C2418 H2412 0.930 . S
C2418 C2419 1.367 . S
C2418 C2426 1.378 . S
C2419 C2418 1.367 . S
C2419 C2427 1.433 . S
C2420 H2416 0.929 . S
C2420 C2422 1.378 . S
C2420 C2424 1.350 . S
C2421 C2424 1.463 . S
C2421 C2426 1.350 . S
C2421 N2429 1.427 . S
C2422 H2413 0.930 . S
C2422 C2420 1.378 . S
C2422 C2423 1.367 . S
C2423 C2422 1.367 . S
C2423 C2425 1.433 . S
C2424 C2420 1.350 . S
C2424 C2421 1.463 . S
C2424 N2428 1.427 . S
C2425 H2415 0.929 . S
C2425 C2423 1.433 . S
C2425 N2428 1.384 . S
C2426 H2417 0.929 . S
C2426 C2418 1.378 . S
C2426 C2421 1.350 . S
C2427 H2414 0.929 . S
C2427 C2419 1.433 . S
C2427 N2429 1.384 . S
N2428 C2424 1.427 . S
N2428 C2425 1.384 . S
N2429 C2421 1.427 . S
N2429 C2427 1.384 . S
H2430 C2436 0.930 . S
H2431 C2440 0.930 . S
H2432 C2445 0.929 . S
H2433 C2443 0.929 . S
H2434 C2438 0.929 . S
H2435 C2444 0.929 . S
C2436 H2430 0.930 . S
C2436 C2437 1.367 . S
C2436 C2444 1.378 . S
C2437 C2436 1.367 . S
C2437 C2445 1.433 . S
C2438 H2434 0.929 . S
C2438 C2440 1.378 . S
C2438 C2442 1.350 . S
C2439 C2442 1.463 . S
C2439 C2444 1.350 . S
C2439 N2447 1.427 . S
C2440 H2431 0.930 . S
C2440 C2438 1.378 . S
C2440 C2441 1.367 . S
C2441 C2440 1.367 . S
C2441 C2443 1.433 . S
C2442 C2438 1.350 . S
C2442 C2439 1.463 . S
C2442 N2446 1.427 . S
C2443 H2433 0.929 . S
C2443 C2441 1.433 . S
C2443 N2446 1.384 . S
C2444 H2435 0.929 . S
C2444 C2436 1.378 . S
C2444 C2439 1.350 . S
C2445 H2432 0.929 . S
C2445 C2437 1.433 . S
C2445 N2447 1.384 . S
N2446 C2442 1.427 . S
N2446 C2443 1.384 . S
N2447 C2439 1.427 . S
N2447 C2445 1.384 . S
H2448 C2454 0.930 . S
H2449 C2458 0.930 . S
H2450 C2463 0.929 . S
H2451 C2461 0.929 . S
H2452 C2456 0.929 . S
H2453 C2462 0.929 . S
C2454 H2448 0.930 . S
C2454 C2455 1.367 . S
C2454 C2462 1.378 . S
C2455 C2454 1.367 . S
C2455 C2463 1.433 . S
C2456 H2452 0.929 . S
C2456 C2458 1.378 . S
C2456 C2460 1.350 . S
C2457 C2460 1.463 . S
C2457 C2462 1.350 . S
C2457 N2465 1.427 . S
C2458 H2449 0.930 . S
C2458 C2456 1.378 . S
C2458 C2459 1.367 . S
C2459 C2458 1.367 . S
C2459 C2461 1.433 . S
C2460 C2456 1.350 . S
C2460 C2457 1.463 . S
C2460 N2464 1.427 . S
C2461 H2451 0.929 . S
C2461 C2459 1.433 . S
C2461 N2464 1.384 . S
C2462 H2453 0.929 . S
C2462 C2454 1.378 . S
C2462 C2457 1.350 . S
C2463 H2450 0.929 . S
C2463 C2455 1.433 . S
C2463 N2465 1.384 . S
N2464 C2460 1.427 . S
N2464 C2461 1.384 . S
N2465 C2457 1.427 . S
N2465 C2463 1.384 . S
H2466 C2472 0.930 . S
H2467 C2476 0.930 . S
H2468 C2481 0.929 . S
H2469 C2479 0.929 . S
H2470 C2474 0.929 . S
H2471 C2480 0.929 . S
C2472 H2466 0.930 . S
C2472 C2473 1.367 . S
C2472 C2480 1.378 . S
C2473 C2472 1.367 . S
C2473 C2481 1.433 . S
C2474 H2470 0.929 . S
C2474 C2476 1.378 . S
C2474 C2478 1.350 . S
C2475 C2478 1.463 . S
C2475 C2480 1.350 . S
C2475 N2483 1.427 . S
C2476 H2467 0.930 . S
C2476 C2474 1.378 . S
C2476 C2477 1.367 . S
C2477 C2476 1.367 . S
C2477 C2479 1.433 . S
C2478 C2474 1.350 . S
C2478 C2475 1.463 . S
C2478 N2482 1.427 . S
C2479 H2469 0.929 . S
C2479 C2477 1.433 . S
C2479 N2482 1.384 . S
C2480 H2471 0.929 . S
C2480 C2472 1.378 . S
C2480 C2475 1.350 . S
C2481 H2468 0.929 . S
C2481 C2473 1.433 . S
C2481 N2483 1.384 . S
N2482 C2478 1.427 . S
N2482 C2479 1.384 . S
N2483 C2475 1.427 . S
N2483 C2481 1.384 . S
H2484 C2490 0.930 . S
H2485 C2494 0.930 . S
H2486 C2499 0.929 . S
H2487 C2497 0.929 . S
H2488 C2492 0.929 . S
H2489 C2498 0.929 . S
C2490 H2484 0.930 . S
C2490 C2491 1.367 . S
C2490 C2498 1.378 . S
C2491 C2490 1.367 . S
C2491 C2499 1.433 . S
C2492 H2488 0.929 . S
C2492 C2494 1.378 . S
C2492 C2496 1.350 . S
C2493 C2496 1.463 . S
C2493 C2498 1.350 . S
C2493 N2501 1.427 . S
C2494 H2485 0.930 . S
C2494 C2492 1.378 . S
C2494 C2495 1.367 . S
C2495 C2494 1.367 . S
C2495 C2497 1.433 . S
C2496 C2492 1.350 . S
C2496 C2493 1.463 . S
C2496 N2500 1.427 . S
C2497 H2487 0.929 . S
C2497 C2495 1.433 . S
C2497 N2500 1.384 . S
C2498 H2489 0.929 . S
C2498 C2490 1.378 . S
C2498 C2493 1.350 . S
C2499 H2486 0.929 . S
C2499 C2491 1.433 . S
C2499 N2501 1.384 . S
N2500 C2496 1.427 . S
N2500 C2497 1.384 . S
N2501 C2493 1.427 . S
N2501 C2499 1.384 . S
H2502 C2508 0.930 . S
H2503 C2512 0.930 . S
H2504 C2517 0.929 . S
H2505 C2515 0.929 . S
H2506 C2510 0.929 . S
H2507 C2516 0.929 . S
C2508 H2502 0.930 . S
C2508 C2509 1.367 . S
C2508 C2516 1.378 . S
C2509 C2508 1.367 . S
C2509 C2517 1.433 . S
C2510 H2506 0.929 . S
C2510 C2512 1.378 . S
C2510 C2514 1.350 . S
C2511 C2514 1.463 . S
C2511 C2516 1.350 . S
C2511 N2519 1.427 . S
C2512 H2503 0.930 . S
C2512 C2510 1.378 . S
C2512 C2513 1.367 . S
C2513 C2512 1.367 . S
C2513 C2515 1.433 . S
C2514 C2510 1.350 . S
C2514 C2511 1.463 . S
C2514 N2518 1.427 . S
C2515 H2505 0.929 . S
C2515 C2513 1.433 . S
C2515 N2518 1.384 . S
C2516 H2507 0.929 . S
C2516 C2508 1.378 . S
C2516 C2511 1.350 . S
C2517 H2504 0.929 . S
C2517 C2509 1.433 . S
C2517 N2519 1.384 . S
N2518 C2514 1.427 . S
N2518 C2515 1.384 . S
N2519 C2511 1.427 . S
N2519 C2517 1.384 . S
H2520 C2526 0.930 . S
H2521 C2530 0.930 . S
H2522 C2535 0.929 . S
H2523 C2533 0.929 . S
H2524 C2528 0.929 . S
H2525 C2534 0.929 . S
C2526 H2520 0.930 . S
C2526 C2527 1.367 . S
C2526 C2534 1.378 . S
C2527 C2526 1.367 . S
C2527 C2535 1.433 . S
C2528 H2524 0.929 . S
C2528 C2530 1.378 . S
C2528 C2532 1.350 . S
C2529 C2532 1.463 . S
C2529 C2534 1.350 . S
C2529 N2537 1.427 . S
C2530 H2521 0.930 . S
C2530 C2528 1.378 . S
C2530 C2531 1.367 . S
C2531 C2530 1.367 . S
C2531 C2533 1.433 . S
C2532 C2528 1.350 . S
C2532 C2529 1.463 . S
C2532 N2536 1.427 . S
C2533 H2523 0.929 . S
C2533 C2531 1.433 . S
C2533 N2536 1.384 . S
C2534 H2525 0.929 . S
C2534 C2526 1.378 . S
C2534 C2529 1.350 . S
C2535 H2522 0.929 . S
C2535 C2527 1.433 . S
C2535 N2537 1.384 . S
N2536 C2532 1.427 . S
N2536 C2533 1.384 . S
N2537 C2529 1.427 . S
N2537 C2535 1.384 . S
H2538 C2544 0.930 . S
H2539 C2548 0.930 . S
H2540 C2553 0.929 . S
H2541 C2551 0.929 . S
H2542 C2546 0.929 . S
H2543 C2552 0.929 . S
C2544 H2538 0.930 . S
C2544 C2545 1.367 . S
C2544 C2552 1.378 . S
C2545 C2544 1.367 . S
C2545 C2553 1.433 . S
C2546 H2542 0.929 . S
C2546 C2548 1.378 . S
C2546 C2550 1.350 . S
C2547 C2550 1.463 . S
C2547 C2552 1.350 . S
C2547 N2555 1.427 . S
C2548 H2539 0.930 . S
C2548 C2546 1.378 . S
C2548 C2549 1.367 . S
C2549 C2548 1.367 . S
C2549 C2551 1.433 . S
C2550 C2546 1.350 . S
C2550 C2547 1.463 . S
C2550 N2554 1.427 . S
C2551 H2541 0.929 . S
C2551 C2549 1.433 . S
C2551 N2554 1.384 . S
C2552 H2543 0.929 . S
C2552 C2544 1.378 . S
C2552 C2547 1.350 . S
C2553 H2540 0.929 . S
C2553 C2545 1.433 . S
C2553 N2555 1.384 . S
N2554 C2550 1.427 . S
N2554 C2551 1.384 . S
N2555 C2547 1.427 . S
N2555 C2553 1.384 . S
H2556 C2562 0.930 . S
H2557 C2566 0.930 . S
H2558 C2571 0.929 . S
H2559 C2569 0.929 . S
H2560 C2564 0.929 . S
H2561 C2570 0.929 . S
C2562 H2556 0.930 . S
C2562 C2563 1.367 . S
C2562 C2570 1.378 . S
C2563 C2562 1.367 . S
C2563 C2571 1.433 . S
C2564 H2560 0.929 . S
C2564 C2566 1.378 . S
C2564 C2568 1.350 . S
C2565 C2568 1.463 . S
C2565 C2570 1.350 . S
C2565 N2573 1.427 . S
C2566 H2557 0.930 . S
C2566 C2564 1.378 . S
C2566 C2567 1.367 . S
C2567 C2566 1.367 . S
C2567 C2569 1.433 . S
C2568 C2564 1.350 . S
C2568 C2565 1.463 . S
C2568 N2572 1.427 . S
C2569 H2559 0.929 . S
C2569 C2567 1.433 . S
C2569 N2572 1.384 . S
C2570 H2561 0.929 . S
C2570 C2562 1.378 . S
C2570 C2565 1.350 . S
C2571 H2558 0.929 . S
C2571 C2563 1.433 . S
C2571 N2573 1.384 . S
N2572 C2568 1.427 . S
N2572 C2569 1.384 . S
N2573 C2565 1.427 . S
N2573 C2571 1.384 . S
H2574 C2580 0.930 . S
H2575 C2584 0.930 . S
H2576 C2589 0.929 . S
H2577 C2587 0.929 . S
H2578 C2582 0.929 . S
H2579 C2588 0.929 . S
C2580 H2574 0.930 . S
C2580 C2581 1.367 . S
C2580 C2588 1.378 . S
C2581 C2580 1.367 . S
C2581 C2589 1.433 . S
C2582 H2578 0.929 . S
C2582 C2584 1.378 . S
C2582 C2586 1.350 . S
C2583 C2586 1.463 . S
C2583 C2588 1.350 . S
C2583 N2591 1.427 . S
C2584 H2575 0.930 . S
C2584 C2582 1.378 . S
C2584 C2585 1.367 . S
C2585 C2584 1.367 . S
C2585 C2587 1.433 . S
C2586 C2582 1.350 . S
C2586 C2583 1.463 . S
C2586 N2590 1.427 . S
C2587 H2577 0.929 . S
C2587 C2585 1.433 . S
C2587 N2590 1.384 . S
C2588 H2579 0.929 . S
C2588 C2580 1.378 . S
C2588 C2583 1.350 . S
C2589 H2576 0.929 . S
C2589 C2581 1.433 . S
C2589 N2591 1.384 . S
N2590 C2586 1.427 . S
N2590 C2587 1.384 . S
N2591 C2583 1.427 . S
N2591 C2589 1.384 . S
H2592 C2598 0.930 . S
H2593 C2602 0.930 . S
H2594 C2607 0.929 . S
H2595 C2605 0.929 . S
H2596 C2600 0.929 . S
H2597 C2606 0.929 . S
C2598 H2592 0.930 . S
C2598 C2599 1.367 . S
C2598 C2606 1.378 . S
C2599 C2598 1.367 . S
C2599 C2607 1.433 . S
C2600 H2596 0.929 . S
C2600 C2602 1.378 . S
C2600 C2604 1.350 . S
C2601 C2604 1.463 . S
C2601 C2606 1.350 . S
C2601 N2609 1.427 . S
C2602 H2593 0.930 . S
C2602 C2600 1.378 . S
C2602 C2603 1.367 . S
C2603 C2602 1.367 . S
C2603 C2605 1.433 . S
C2604 C2600 1.350 . S
C2604 C2601 1.463 . S
C2604 N2608 1.427 . S
C2605 H2595 0.929 . S
C2605 C2603 1.433 . S
C2605 N2608 1.384 . S
C2606 H2597 0.929 . S
C2606 C2598 1.378 . S
C2606 C2601 1.350 . S
C2607 H2594 0.929 . S
C2607 C2599 1.433 . S
C2607 N2609 1.384 . S
N2608 C2604 1.427 . S
N2608 C2605 1.384 . S
N2609 C2601 1.427 . S
N2609 C2607 1.384 . S
H2610 C2616 0.930 . S
H2611 C2620 0.930 . S
H2612 C2625 0.929 . S
H2613 C2623 0.929 . S
H2614 C2618 0.929 . S
H2615 C2624 0.929 . S
C2616 H2610 0.930 . S
C2616 C2617 1.367 . S
C2616 C2624 1.378 . S
C2617 C2616 1.367 . S
C2617 C2625 1.433 . S
C2618 H2614 0.929 . S
C2618 C2620 1.378 . S
C2618 C2622 1.350 . S
C2619 C2622 1.463 . S
C2619 C2624 1.350 . S
C2619 N2627 1.427 . S
C2620 H2611 0.930 . S
C2620 C2618 1.378 . S
C2620 C2621 1.367 . S
C2621 C2620 1.367 . S
C2621 C2623 1.433 . S
C2622 C2618 1.350 . S
C2622 C2619 1.463 . S
C2622 N2626 1.427 . S
C2623 H2613 0.929 . S
C2623 C2621 1.433 . S
C2623 N2626 1.384 . S
C2624 H2615 0.929 . S
C2624 C2616 1.378 . S
C2624 C2619 1.350 . S
C2625 H2612 0.929 . S
C2625 C2617 1.433 . S
C2625 N2627 1.384 . S
N2626 C2622 1.427 . S
N2626 C2623 1.384 . S
N2627 C2619 1.427 . S
N2627 C2625 1.384 . S
H2628 C2634 0.930 . S
H2629 C2638 0.930 . S
H2630 C2643 0.929 . S
H2631 C2641 0.929 . S
H2632 C2636 0.929 . S
H2633 C2642 0.929 . S
C2634 H2628 0.930 . S
C2634 C2635 1.367 . S
C2634 C2642 1.378 . S
C2635 C2634 1.367 . S
C2635 C2643 1.433 . S
C2636 H2632 0.929 . S
C2636 C2638 1.378 . S
C2636 C2640 1.350 . S
C2637 C2640 1.463 . S
C2637 C2642 1.350 . S
C2637 N2645 1.427 . S
C2638 H2629 0.930 . S
C2638 C2636 1.378 . S
C2638 C2639 1.367 . S
C2639 C2638 1.367 . S
C2639 C2641 1.433 . S
C2640 C2636 1.350 . S
C2640 C2637 1.463 . S
C2640 N2644 1.427 . S
C2641 H2631 0.929 . S
C2641 C2639 1.433 . S
C2641 N2644 1.384 . S
C2642 H2633 0.929 . S
C2642 C2634 1.378 . S
C2642 C2637 1.350 . S
C2643 H2630 0.929 . S
C2643 C2635 1.433 . S
C2643 N2645 1.384 . S
N2644 C2640 1.427 . S
N2644 C2641 1.384 . S
N2645 C2637 1.427 . S
N2645 C2643 1.384 . S
H2646 C2652 0.930 . S
H2647 C2656 0.930 . S
H2648 C2661 0.929 . S
H2649 C2659 0.929 . S
H2650 C2654 0.929 . S
H2651 C2660 0.929 . S
C2652 H2646 0.930 . S
C2652 C2653 1.367 . S
C2652 C2660 1.378 . S
C2653 C2652 1.367 . S
C2653 C2661 1.433 . S
C2654 H2650 0.929 . S
C2654 C2656 1.378 . S
C2654 C2658 1.350 . S
C2655 C2658 1.463 . S
C2655 C2660 1.350 . S
C2655 N2663 1.427 . S
C2656 H2647 0.930 . S
C2656 C2654 1.378 . S
C2656 C2657 1.367 . S
C2657 C2656 1.367 . S
C2657 C2659 1.433 . S
C2658 C2654 1.350 . S
C2658 C2655 1.463 . S
C2658 N2662 1.427 . S
C2659 H2649 0.929 . S
C2659 C2657 1.433 . S
C2659 N2662 1.384 . S
C2660 H2651 0.929 . S
C2660 C2652 1.378 . S
C2660 C2655 1.350 . S
C2661 H2648 0.929 . S
C2661 C2653 1.433 . S
C2661 N2663 1.384 . S
N2662 C2658 1.427 . S
N2662 C2659 1.384 . S
N2663 C2655 1.427 . S
N2663 C2661 1.384 . S
H2664 C2670 0.930 . S
H2665 C2674 0.930 . S
H2666 C2679 0.929 . S
H2667 C2677 0.929 . S
H2668 C2672 0.929 . S
H2669 C2678 0.929 . S
C2670 H2664 0.930 . S
C2670 C2671 1.367 . S
C2670 C2678 1.378 . S
C2671 C2670 1.367 . S
C2671 C2679 1.433 . S
C2672 H2668 0.929 . S
C2672 C2674 1.378 . S
C2672 C2676 1.350 . S
C2673 C2676 1.463 . S
C2673 C2678 1.350 . S
C2673 N2681 1.427 . S
C2674 H2665 0.930 . S
C2674 C2672 1.378 . S
C2674 C2675 1.367 . S
C2675 C2674 1.367 . S
C2675 C2677 1.433 . S
C2676 C2672 1.350 . S
C2676 C2673 1.463 . S
C2676 N2680 1.427 . S
C2677 H2667 0.929 . S
C2677 C2675 1.433 . S
C2677 N2680 1.384 . S
C2678 H2669 0.929 . S
C2678 C2670 1.378 . S
C2678 C2673 1.350 . S
C2679 H2666 0.929 . S
C2679 C2671 1.433 . S
C2679 N2681 1.384 . S
N2680 C2676 1.427 . S
N2680 C2677 1.384 . S
N2681 C2673 1.427 . S
N2681 C2679 1.384 . S
H2682 C2688 0.930 . S
H2683 C2692 0.930 . S
H2684 C2697 0.929 . S
H2685 C2695 0.929 . S
H2686 C2690 0.929 . S
H2687 C2696 0.929 . S
C2688 H2682 0.930 . S
C2688 C2689 1.367 . S
C2688 C2696 1.378 . S
C2689 C2688 1.367 . S
C2689 C2697 1.433 . S
C2690 H2686 0.929 . S
C2690 C2692 1.378 . S
C2690 C2694 1.350 . S
C2691 C2694 1.463 . S
C2691 C2696 1.350 . S
C2691 N2699 1.427 . S
C2692 H2683 0.930 . S
C2692 C2690 1.378 . S
C2692 C2693 1.367 . S
C2693 C2692 1.367 . S
C2693 C2695 1.433 . S
C2694 C2690 1.350 . S
C2694 C2691 1.463 . S
C2694 N2698 1.427 . S
C2695 H2685 0.929 . S
C2695 C2693 1.433 . S
C2695 N2698 1.384 . S
C2696 H2687 0.929 . S
C2696 C2688 1.378 . S
C2696 C2691 1.350 . S
C2697 H2684 0.929 . S
C2697 C2689 1.433 . S
C2697 N2699 1.384 . S
N2698 C2694 1.427 . S
N2698 C2695 1.384 . S
N2699 C2691 1.427 . S
N2699 C2697 1.384 . S
H2700 C2706 0.930 . S
H2701 C2710 0.930 . S
H2702 C2715 0.929 . S
H2703 C2713 0.929 . S
H2704 C2708 0.929 . S
H2705 C2714 0.929 . S
C2706 H2700 0.930 . S
C2706 C2707 1.367 . S
C2706 C2714 1.378 . S
C2707 C2706 1.367 . S
C2707 C2715 1.433 . S
C2708 H2704 0.929 . S
C2708 C2710 1.378 . S
C2708 C2712 1.350 . S
C2709 C2712 1.463 . S
C2709 C2714 1.350 . S
C2709 N2717 1.427 . S
C2710 H2701 0.930 . S
C2710 C2708 1.378 . S
C2710 C2711 1.367 . S
C2711 C2710 1.367 . S
C2711 C2713 1.433 . S
C2712 C2708 1.350 . S
C2712 C2709 1.463 . S
C2712 N2716 1.427 . S
C2713 H2703 0.929 . S
C2713 C2711 1.433 . S
C2713 N2716 1.384 . S
C2714 H2705 0.929 . S
C2714 C2706 1.378 . S
C2714 C2709 1.350 . S
C2715 H2702 0.929 . S
C2715 C2707 1.433 . S
C2715 N2717 1.384 . S
N2716 C2712 1.427 . S
N2716 C2713 1.384 . S
N2717 C2709 1.427 . S
N2717 C2715 1.384 . S
H2718 C2724 0.930 . S
H2719 C2728 0.930 . S
H2720 C2733 0.929 . S
H2721 C2731 0.929 . S
H2722 C2726 0.929 . S
H2723 C2732 0.929 . S
C2724 H2718 0.930 . S
C2724 C2725 1.367 . S
C2724 C2732 1.378 . S
C2725 C2724 1.367 . S
C2725 C2733 1.433 . S
C2726 H2722 0.929 . S
C2726 C2728 1.378 . S
C2726 C2730 1.350 . S
C2727 C2730 1.463 . S
C2727 C2732 1.350 . S
C2727 N2735 1.427 . S
C2728 H2719 0.930 . S
C2728 C2726 1.378 . S
C2728 C2729 1.367 . S
C2729 C2728 1.367 . S
C2729 C2731 1.433 . S
C2730 C2726 1.350 . S
C2730 C2727 1.463 . S
C2730 N2734 1.427 . S
C2731 H2721 0.929 . S
C2731 C2729 1.433 . S
C2731 N2734 1.384 . S
C2732 H2723 0.929 . S
C2732 C2724 1.378 . S
C2732 C2727 1.350 . S
C2733 H2720 0.929 . S
C2733 C2725 1.433 . S
C2733 N2735 1.384 . S
N2734 C2730 1.427 . S
N2734 C2731 1.384 . S
N2735 C2727 1.427 . S
N2735 C2733 1.384 . S
H2736 C2742 0.930 . S
H2737 C2746 0.930 . S
H2738 C2751 0.929 . S
H2739 C2749 0.929 . S
H2740 C2744 0.929 . S
H2741 C2750 0.929 . S
C2742 H2736 0.930 . S
C2742 C2743 1.367 . S
C2742 C2750 1.378 . S
C2743 C2742 1.367 . S
C2743 C2751 1.433 . S
C2744 H2740 0.929 . S
C2744 C2746 1.378 . S
C2744 C2748 1.350 . S
C2745 C2748 1.463 . S
C2745 C2750 1.350 . S
C2745 N2753 1.427 . S
C2746 H2737 0.930 . S
C2746 C2744 1.378 . S
C2746 C2747 1.367 . S
C2747 C2746 1.367 . S
C2747 C2749 1.433 . S
C2748 C2744 1.350 . S
C2748 C2745 1.463 . S
C2748 N2752 1.427 . S
C2749 H2739 0.929 . S
C2749 C2747 1.433 . S
C2749 N2752 1.384 . S
C2750 H2741 0.929 . S
C2750 C2742 1.378 . S
C2750 C2745 1.350 . S
C2751 H2738 0.929 . S
C2751 C2743 1.433 . S
C2751 N2753 1.384 . S
N2752 C2748 1.427 . S
N2752 C2749 1.384 . S
N2753 C2745 1.427 . S
N2753 C2751 1.384 . S
H2754 C2760 0.930 . S
H2755 C2764 0.930 . S
H2756 C2769 0.929 . S
H2757 C2767 0.929 . S
H2758 C2762 0.929 . S
H2759 C2768 0.929 . S
C2760 H2754 0.930 . S
C2760 C2761 1.367 . S
C2760 C2768 1.378 . S
C2761 C2760 1.367 . S
C2761 C2769 1.433 . S
C2762 H2758 0.929 . S
C2762 C2764 1.378 . S
C2762 C2766 1.350 . S
C2763 C2766 1.463 . S
C2763 C2768 1.350 . S
C2763 N2771 1.427 . S
C2764 H2755 0.930 . S
C2764 C2762 1.378 . S
C2764 C2765 1.367 . S
C2765 C2764 1.367 . S
C2765 C2767 1.433 . S
C2766 C2762 1.350 . S
C2766 C2763 1.463 . S
C2766 N2770 1.427 . S
C2767 H2757 0.929 . S
C2767 C2765 1.433 . S
C2767 N2770 1.384 . S
C2768 H2759 0.929 . S
C2768 C2760 1.378 . S
C2768 C2763 1.350 . S
C2769 H2756 0.929 . S
C2769 C2761 1.433 . S
C2769 N2771 1.384 . S
N2770 C2766 1.427 . S
N2770 C2767 1.384 . S
N2771 C2763 1.427 . S
N2771 C2769 1.384 . S
H2772 C2778 0.930 . S
H2773 C2782 0.930 . S
H2774 C2787 0.929 . S
H2775 C2785 0.929 . S
H2776 C2780 0.929 . S
H2777 C2786 0.929 . S
C2778 H2772 0.930 . S
C2778 C2779 1.367 . S
C2778 C2786 1.378 . S
C2779 C2778 1.367 . S
C2779 C2787 1.433 . S
C2780 H2776 0.929 . S
C2780 C2782 1.378 . S
C2780 C2784 1.350 . S
C2781 C2784 1.463 . S
C2781 C2786 1.350 . S
C2781 N2789 1.427 . S
C2782 H2773 0.930 . S
C2782 C2780 1.378 . S
C2782 C2783 1.367 . S
C2783 C2782 1.367 . S
C2783 C2785 1.433 . S
C2784 C2780 1.350 . S
C2784 C2781 1.463 . S
C2784 N2788 1.427 . S
C2785 H2775 0.929 . S
C2785 C2783 1.433 . S
C2785 N2788 1.384 . S
C2786 H2777 0.929 . S
C2786 C2778 1.378 . S
C2786 C2781 1.350 . S
C2787 H2774 0.929 . S
C2787 C2779 1.433 . S
C2787 N2789 1.384 . S
N2788 C2784 1.427 . S
N2788 C2785 1.384 . S
N2789 C2781 1.427 . S
N2789 C2787 1.384 . S
H2790 C2796 0.930 . S
H2791 C2800 0.930 . S
H2792 C2805 0.929 . S
H2793 C2803 0.929 . S
H2794 C2798 0.929 . S
H2795 C2804 0.929 . S
C2796 H2790 0.930 . S
C2796 C2797 1.367 . S
C2796 C2804 1.378 . S
C2797 C2796 1.367 . S
C2797 C2805 1.433 . S
C2798 H2794 0.929 . S
C2798 C2800 1.378 . S
C2798 C2802 1.350 . S
C2799 C2802 1.463 . S
C2799 C2804 1.350 . S
C2799 N2807 1.427 . S
C2800 H2791 0.930 . S
C2800 C2798 1.378 . S
C2800 C2801 1.367 . S
C2801 C2800 1.367 . S
C2801 C2803 1.433 . S
C2802 C2798 1.350 . S
C2802 C2799 1.463 . S
C2802 N2806 1.427 . S
C2803 H2793 0.929 . S
C2803 C2801 1.433 . S
C2803 N2806 1.384 . S
C2804 H2795 0.929 . S
C2804 C2796 1.378 . S
C2804 C2799 1.350 . S
C2805 H2792 0.929 . S
C2805 C2797 1.433 . S
C2805 N2807 1.384 . S
N2806 C2802 1.427 . S
N2806 C2803 1.384 . S
N2807 C2799 1.427 . S
N2807 C2805 1.384 . S
H2808 C2814 0.930 . S
H2809 C2818 0.930 . S
H2810 C2823 0.929 . S
H2811 C2821 0.929 . S
H2812 C2816 0.929 . S
H2813 C2822 0.929 . S
C2814 H2808 0.930 . S
C2814 C2815 1.367 . S
C2814 C2822 1.378 . S
C2815 C2814 1.367 . S
C2815 C2823 1.433 . S
C2816 H2812 0.929 . S
C2816 C2818 1.378 . S
C2816 C2820 1.350 . S
C2817 C2820 1.463 . S
C2817 C2822 1.350 . S
C2817 N2825 1.427 . S
C2818 H2809 0.930 . S
C2818 C2816 1.378 . S
C2818 C2819 1.367 . S
C2819 C2818 1.367 . S
C2819 C2821 1.433 . S
C2820 C2816 1.350 . S
C2820 C2817 1.463 . S
C2820 N2824 1.427 . S
C2821 H2811 0.929 . S
C2821 C2819 1.433 . S
C2821 N2824 1.384 . S
C2822 H2813 0.929 . S
C2822 C2814 1.378 . S
C2822 C2817 1.350 . S
C2823 H2810 0.929 . S
C2823 C2815 1.433 . S
C2823 N2825 1.384 . S
N2824 C2820 1.427 . S
N2824 C2821 1.384 . S
N2825 C2817 1.427 . S
N2825 C2823 1.384 . S
H2826 C2832 0.930 . S
H2827 C2836 0.930 . S
H2828 C2841 0.929 . S
H2829 C2839 0.929 . S
H2830 C2834 0.929 . S
H2831 C2840 0.929 . S
C2832 H2826 0.930 . S
C2832 C2833 1.367 . S
C2832 C2840 1.378 . S
C2833 C2832 1.367 . S
C2833 C2841 1.433 . S
C2834 H2830 0.929 . S
C2834 C2836 1.378 . S
C2834 C2838 1.350 . S
C2835 C2838 1.463 . S
C2835 C2840 1.350 . S
C2835 N2843 1.427 . S
C2836 H2827 0.930 . S
C2836 C2834 1.378 . S
C2836 C2837 1.367 . S
C2837 C2836 1.367 . S
C2837 C2839 1.433 . S
C2838 C2834 1.350 . S
C2838 C2835 1.463 . S
C2838 N2842 1.427 . S
C2839 H2829 0.929 . S
C2839 C2837 1.433 . S
C2839 N2842 1.384 . S
C2840 H2831 0.929 . S
C2840 C2832 1.378 . S
C2840 C2835 1.350 . S
C2841 H2828 0.929 . S
C2841 C2833 1.433 . S
C2841 N2843 1.384 . S
N2842 C2838 1.427 . S
N2842 C2839 1.384 . S
N2843 C2835 1.427 . S
N2843 C2841 1.384 . S
H2844 C2850 0.930 . S
H2845 C2854 0.930 . S
H2846 C2859 0.929 . S
H2847 C2857 0.929 . S
H2848 C2852 0.929 . S
H2849 C2858 0.929 . S
C2850 H2844 0.930 . S
C2850 C2851 1.367 . S
C2850 C2858 1.378 . S
C2851 C2850 1.367 . S
C2851 C2859 1.433 . S
C2852 H2848 0.929 . S
C2852 C2854 1.378 . S
C2852 C2856 1.350 . S
C2853 C2856 1.463 . S
C2853 C2858 1.350 . S
C2853 N2861 1.427 . S
C2854 H2845 0.930 . S
C2854 C2852 1.378 . S
C2854 C2855 1.367 . S
C2855 C2854 1.367 . S
C2855 C2857 1.433 . S
C2856 C2852 1.350 . S
C2856 C2853 1.463 . S
C2856 N2860 1.427 . S
C2857 H2847 0.929 . S
C2857 C2855 1.433 . S
C2857 N2860 1.384 . S
C2858 H2849 0.929 . S
C2858 C2850 1.378 . S
C2858 C2853 1.350 . S
C2859 H2846 0.929 . S
C2859 C2851 1.433 . S
C2859 N2861 1.384 . S
N2860 C2856 1.427 . S
N2860 C2857 1.384 . S
N2861 C2853 1.427 . S
N2861 C2859 1.384 . S
H2862 C2868 0.930 . S
H2863 C2872 0.930 . S
H2864 C2877 0.929 . S
H2865 C2875 0.929 . S
H2866 C2870 0.929 . S
H2867 C2876 0.929 . S
C2868 H2862 0.930 . S
C2868 C2869 1.367 . S
C2868 C2876 1.378 . S
C2869 C2868 1.367 . S
C2869 C2877 1.433 . S
C2870 H2866 0.929 . S
C2870 C2872 1.378 . S
C2870 C2874 1.350 . S
C2871 C2874 1.463 . S
C2871 C2876 1.350 . S
C2871 N2879 1.427 . S
C2872 H2863 0.930 . S
C2872 C2870 1.378 . S
C2872 C2873 1.367 . S
C2873 C2872 1.367 . S
C2873 C2875 1.433 . S
C2874 C2870 1.350 . S
C2874 C2871 1.463 . S
C2874 N2878 1.427 . S
C2875 H2865 0.929 . S
C2875 C2873 1.433 . S
C2875 N2878 1.384 . S
C2876 H2867 0.929 . S
C2876 C2868 1.378 . S
C2876 C2871 1.350 . S
C2877 H2864 0.929 . S
C2877 C2869 1.433 . S
C2877 N2879 1.384 . S
N2878 C2874 1.427 . S
N2878 C2875 1.384 . S
N2879 C2871 1.427 . S
N2879 C2877 1.384 . S
H2880 C2886 0.930 . S
H2881 C2890 0.930 . S
H2882 C2895 0.929 . S
H2883 C2893 0.929 . S
H2884 C2888 0.929 . S
H2885 C2894 0.929 . S
C2886 H2880 0.930 . S
C2886 C2887 1.367 . S
C2886 C2894 1.378 . S
C2887 C2886 1.367 . S
C2887 C2895 1.433 . S
C2888 H2884 0.929 . S
C2888 C2890 1.378 . S
C2888 C2892 1.350 . S
C2889 C2892 1.463 . S
C2889 C2894 1.350 . S
C2889 N2897 1.427 . S
C2890 H2881 0.930 . S
C2890 C2888 1.378 . S
C2890 C2891 1.367 . S
C2891 C2890 1.367 . S
C2891 C2893 1.433 . S
C2892 C2888 1.350 . S
C2892 C2889 1.463 . S
C2892 N2896 1.427 . S
C2893 H2883 0.929 . S
C2893 C2891 1.433 . S
C2893 N2896 1.384 . S
C2894 H2885 0.929 . S
C2894 C2886 1.378 . S
C2894 C2889 1.350 . S
C2895 H2882 0.929 . S
C2895 C2887 1.433 . S
C2895 N2897 1.384 . S
N2896 C2892 1.427 . S
N2896 C2893 1.384 . S
N2897 C2889 1.427 . S
N2897 C2895 1.384 . S
H2898 C2904 0.930 . S
H2899 C2908 0.930 . S
H2900 C2913 0.927 . S
H2901 C2911 0.929 . S
H2902 C2906 0.929 . S
H2903 C2912 0.929 . S
C2904 H2898 0.930 . S
C2904 C2905 1.367 . S
C2904 C2912 1.378 . S
C2905 C2904 1.367 . S
C2905 C2913 1.433 . S
C2906 H2902 0.929 . S
C2906 C2908 1.378 . S
C2906 C2910 1.350 1_545 S
C2907 C2910 1.463 . S
C2907 C2912 1.350 . S
C2907 N2915 1.427 . S
C2908 H2899 0.930 . S
C2908 C2906 1.378 . S
C2908 C2909 1.367 . S
C2909 C2908 1.367 . S
C2909 C2911 1.433 1_545 S
C2910 C2906 1.350 1_565 S
C2910 C2907 1.463 . S
C2910 N2914 1.427 . S
C2911 H2901 0.929 . S
C2911 C2909 1.433 1_565 S
C2911 N2914 1.384 . S
C2912 H2903 0.929 . S
C2912 C2904 1.378 . S
C2912 C2907 1.350 . S
C2913 H2900 0.927 . S
C2913 C2905 1.433 . S
C2913 N2915 1.384 . S
N2914 C2910 1.427 . S
N2914 C2911 1.384 . S
N2915 C2907 1.427 . S
N2915 C2913 1.384 . S
H2916 C2922 0.930 . S
H2917 C2926 0.930 . S
H2918 C2931 0.903 1_655 S
H2919 C2929 0.929 . S
H2920 C2924 0.929 . S
H2921 C2930 0.929 . S
C2922 H2916 0.930 . S
C2922 C2923 1.367 . S
C2922 C2930 1.378 . S
C2923 C2922 1.367 . S
C2923 C2931 1.433 . S
C2924 H2920 0.929 . S
C2924 C2926 1.378 . S
C2924 C2928 1.350 . S
C2925 C2928 1.463 . S
C2925 C2930 1.350 . S
C2925 N2933 1.427 . S
C2926 H2917 0.930 . S
C2926 C2924 1.378 . S
C2926 C2927 1.367 . S
C2927 C2926 1.367 . S
C2927 C2929 1.433 . S
C2928 C2924 1.350 . S
C2928 C2925 1.463 . S
C2928 N2932 1.427 . S
C2929 H2919 0.929 . S
C2929 C2927 1.433 . S
C2929 N2932 1.384 . S
C2930 H2921 0.929 . S
C2930 C2922 1.378 . S
C2930 C2925 1.350 . S
C2931 H2918 0.903 1_455 S
C2931 C2923 1.433 . S
C2931 N2933 1.384 . S
N2932 C2928 1.427 . S
N2932 C2929 1.384 . S
N2933 C2925 1.427 . S
N2933 C2931 1.384 . S
H2934 C2940 0.930 . S
H2935 C2944 0.930 . S
H2936 C2949 0.929 . S
H2937 C2947 0.929 . S
H2938 C2942 0.929 . S
H2939 C2948 0.929 . S
C2940 H2934 0.930 . S
C2940 C2941 1.367 . S
C2940 C2948 1.378 . S
C2941 C2940 1.367 . S
C2941 C2949 1.433 . S
C2942 H2938 0.929 . S
C2942 C2944 1.378 . S
C2942 C2946 1.350 . S
C2943 C2946 1.463 . S
C2943 C2948 1.350 . S
C2943 N2951 1.427 . S
C2944 H2935 0.930 . S
C2944 C2942 1.378 . S
C2944 C2945 1.367 . S
C2945 C2944 1.367 . S
C2945 C2947 1.433 . S
C2946 C2942 1.350 . S
C2946 C2943 1.463 . S
C2946 N2950 1.427 . S
C2947 H2937 0.929 . S
C2947 C2945 1.433 . S
C2947 N2950 1.384 . S
C2948 H2939 0.929 . S
C2948 C2940 1.378 . S
C2948 C2943 1.350 . S
C2949 H2936 0.929 . S
C2949 C2941 1.433 . S
C2949 N2951 1.384 . S
N2950 C2946 1.427 . S
N2950 C2947 1.384 . S
N2951 C2943 1.427 . S
N2951 C2949 1.384 . S
H2952 C2958 0.930 . S
H2953 C2962 0.923 . S
H2954 C2967 0.929 . S
H2955 C2965 0.929 . S
H2956 C2960 0.929 . S
H2957 C2966 0.929 . S
C2958 H2952 0.930 . S
C2958 C2959 1.367 . S
C2958 C2966 1.378 . S
C2959 C2958 1.367 . S
C2959 C2967 1.433 . S
C2960 H2956 0.929 . S
C2960 C2962 1.378 1_545 S
C2960 C2964 1.350 . S
C2961 C2964 1.463 . S
C2961 C2966 1.350 . S
C2961 N2969 1.427 . S
C2962 H2953 0.923 . S
C2962 C2960 1.378 1_565 S
C2962 C2963 1.367 . S
C2963 C2962 1.367 . S
C2963 C2965 1.433 . S
C2964 C2960 1.350 . S
C2964 C2961 1.463 . S
C2964 N2968 1.427 1_545 S
C2965 H2955 0.929 . S
C2965 C2963 1.433 . S
C2965 N2968 1.384 . S
C2966 H2957 0.929 . S
C2966 C2958 1.378 . S
C2966 C2961 1.350 . S
C2967 H2954 0.929 . S
C2967 C2959 1.433 . S
C2967 N2969 1.384 . S
N2968 C2964 1.427 1_565 S
N2968 C2965 1.384 . S
N2969 C2961 1.427 . S
N2969 C2967 1.384 . S
H2970 C2976 0.930 . S
H2971 C2980 0.930 . S
H2972 C2985 0.929 . S
H2973 C2983 0.929 . S
H2974 C2978 0.929 . S
H2975 C2984 0.929 . S
C2976 H2970 0.930 . S
C2976 C2977 1.367 . S
C2976 C2984 1.378 . S
C2977 C2976 1.367 . S
C2977 C2985 1.433 . S
C2978 H2974 0.929 . S
C2978 C2980 1.378 . S
C2978 C2982 1.350 . S
C2979 C2982 1.463 . S
C2979 C2984 1.350 . S
C2979 N2987 1.427 . S
C2980 H2971 0.930 . S
C2980 C2978 1.378 . S
C2980 C2981 1.367 . S
C2981 C2980 1.367 . S
C2981 C2983 1.433 . S
C2982 C2978 1.350 . S
C2982 C2979 1.463 . S
C2982 N2986 1.427 . S
C2983 H2973 0.929 . S
C2983 C2981 1.433 . S
C2983 N2986 1.384 . S
C2984 H2975 0.929 . S
C2984 C2976 1.378 . S
C2984 C2979 1.350 . S
C2985 H2972 0.929 . S
C2985 C2977 1.433 . S
C2985 N2987 1.384 . S
N2986 C2982 1.427 . S
N2986 C2983 1.384 . S
N2987 C2979 1.427 . S
N2987 C2985 1.384 . S
H2988 C2994 0.930 . S
H2989 C2998 0.930 . S
H2990 C3003 0.929 . S
H2991 C3001 0.929 . S
H2992 C2996 0.929 . S
H2993 C3002 0.929 . S
C2994 H2988 0.930 . S
C2994 C2995 1.367 . S
C2994 C3002 1.378 . S
C2995 C2994 1.367 . S
C2995 C3003 1.433 . S
C2996 H2992 0.929 . S
C2996 C2998 1.378 . S
C2996 C3000 1.350 . S
C2997 C3000 1.463 . S
C2997 C3002 1.350 . S
C2997 N3005 1.427 . S
C2998 H2989 0.930 . S
C2998 C2996 1.378 . S
C2998 C2999 1.367 . S
C2999 C2998 1.367 . S
C2999 C3001 1.433 . S
C3000 C2996 1.350 . S
C3000 C2997 1.463 . S
C3000 N3004 1.427 . S
C3001 H2991 0.929 . S
C3001 C2999 1.433 . S
C3001 N3004 1.384 . S
C3002 H2993 0.929 . S
C3002 C2994 1.378 . S
C3002 C2997 1.350 . S
C3003 H2990 0.929 . S
C3003 C2995 1.433 . S
C3003 N3005 1.384 . S
N3004 C3000 1.427 . S
N3004 C3001 1.384 . S
N3005 C2997 1.427 . S
N3005 C3003 1.384 . S
H3006 C3012 0.930 . S
H3007 C3016 0.930 . S
H3008 C3021 0.929 1_565 S
H3009 C3019 0.929 . S
H3010 C3014 0.929 . S
H3011 C3020 0.929 . S
C3012 H3006 0.930 . S
C3012 C3013 1.367 . S
C3012 C3020 1.378 . S
C3013 C3012 1.367 . S
C3013 C3021 1.433 . S
C3014 H3010 0.929 . S
C3014 C3016 1.378 . S
C3014 C3018 1.350 . S
C3015 C3018 1.463 . S
C3015 C3020 1.350 . S
C3015 N3023 1.427 . S
C3016 H3007 0.930 . S
C3016 C3014 1.378 . S
C3016 C3017 1.367 . S
C3017 C3016 1.367 . S
C3017 C3019 1.433 . S
C3018 C3014 1.350 . S
C3018 C3015 1.463 . S
C3018 N3022 1.427 . S
C3019 H3009 0.929 . S
C3019 C3017 1.433 . S
C3019 N3022 1.384 . S
C3020 H3011 0.929 . S
C3020 C3012 1.378 . S
C3020 C3015 1.350 . S
C3021 H3008 0.929 1_545 S
C3021 C3013 1.433 . S
C3021 N3023 1.384 . S
N3022 C3018 1.427 . S
N3022 C3019 1.384 . S
N3023 C3015 1.427 . S
N3023 C3021 1.384 . S
H3024 C3030 0.901 1_455 S
H3025 C3034 0.930 . S
H3026 C3039 0.929 . S
H3027 C3037 0.929 . S
H3028 C3032 0.929 . S
H3029 C3038 0.929 . S
C3030 H3024 0.901 1_655 S
C3030 C3031 1.363 . S
C3030 C3038 1.413 . S
C3031 C3030 1.363 . S
C3031 C3039 1.433 . S
C3032 H3028 0.929 . S
C3032 C3034 1.378 . S
C3032 C3036 1.350 . S
C3033 C3036 1.463 . S
C3033 C3038 1.350 . S
C3033 N3041 1.427 . S
C3034 H3025 0.930 . S
C3034 C3032 1.378 . S
C3034 C3035 1.367 . S
C3035 C3034 1.367 . S
C3035 C3037 1.433 . S
C3036 C3032 1.350 . S
C3036 C3033 1.463 . S
C3036 N3040 1.427 . S
C3037 H3027 0.929 . S
C3037 C3035 1.433 . S
C3037 N3040 1.384 . S
C3038 H3029 0.929 . S
C3038 C3030 1.413 . S
C3038 C3033 1.350 . S
C3039 H3026 0.929 . S
C3039 C3031 1.433 . S
C3039 N3041 1.384 . S
N3040 C3036 1.427 . S
N3040 C3037 1.384 . S
N3041 C3033 1.427 . S
N3041 C3039 1.384 . S
H3042 C3048 0.930 . S
H3043 C3052 0.930 . S
H3044 C3057 0.929 . S
H3045 C3055 0.929 . S
H3046 C3050 0.929 . S
H3047 C3056 0.929 . S
C3048 H3042 0.930 . S
C3048 C3049 1.367 . S
C3048 C3056 1.378 . S
C3049 C3048 1.367 . S
C3049 C3057 1.433 . S
C3050 H3046 0.929 . S
C3050 C3052 1.378 . S
C3050 C3054 1.350 . S
C3051 C3054 1.463 . S
C3051 C3056 1.350 . S
C3051 N3059 1.427 . S
C3052 H3043 0.930 . S
C3052 C3050 1.378 . S
C3052 C3053 1.367 . S
C3053 C3052 1.367 . S
C3053 C3055 1.433 . S
C3054 C3050 1.350 . S
C3054 C3051 1.463 . S
C3054 N3058 1.427 . S
C3055 H3045 0.929 . S
C3055 C3053 1.433 . S
C3055 N3058 1.384 . S
C3056 H3047 0.929 . S
C3056 C3048 1.378 . S
C3056 C3051 1.350 . S
C3057 H3044 0.929 . S
C3057 C3049 1.433 . S
C3057 N3059 1.384 . S
N3058 C3054 1.427 . S
N3058 C3055 1.384 . S
N3059 C3051 1.427 . S
N3059 C3057 1.384 . S
H3060 C3066 0.930 1_545 S
H3061 C3070 0.930 . S
H3062 C3075 0.929 . S
H3063 C3073 0.929 . S
H3064 C3068 0.929 . S
H3065 C3074 0.929 . S
C3066 H3060 0.930 1_565 S
C3066 C3067 1.367 . S
C3066 C3074 1.378 . S
C3067 C3066 1.367 . S
C3067 C3075 1.433 . S
C3068 H3064 0.929 . S
C3068 C3070 1.378 . S
C3068 C3072 1.350 . S
C3069 C3072 1.463 . S
C3069 C3074 1.350 . S
C3069 N3077 1.427 . S
C3070 H3061 0.930 . S
C3070 C3068 1.378 . S
C3070 C3071 1.367 . S
C3071 C3070 1.367 . S
C3071 C3073 1.433 . S
C3072 C3068 1.350 . S
C3072 C3069 1.463 . S
C3072 N3076 1.427 . S
C3073 H3063 0.929 . S
C3073 C3071 1.433 . S
C3073 N3076 1.384 . S
C3074 H3065 0.929 . S
C3074 C3066 1.378 . S
C3074 C3069 1.350 . S
C3075 H3062 0.929 . S
C3075 C3067 1.433 . S
C3075 N3077 1.384 . S
N3076 C3072 1.427 . S
N3076 C3073 1.384 . S
N3077 C3069 1.427 . S
N3077 C3075 1.384 . S
H3078 C3084 0.930 . S
H3079 C3088 0.930 1_655 S
H3080 C3093 0.929 . S
H3081 C3091 0.929 . S
H3082 C3086 0.929 . S
H3083 C3092 0.929 . S
C3084 H3078 0.930 . S
C3084 C3085 1.367 . S
C3084 C3092 1.378 . S
C3085 C3084 1.367 . S
C3085 C3093 1.433 . S
C3086 H3082 0.929 . S
C3086 C3088 1.378 . S
C3086 C3090 1.350 . S
C3087 C3090 1.463 . S
C3087 C3092 1.350 . S
C3087 N3095 1.427 . S
C3088 H3079 0.930 1_455 S
C3088 C3086 1.378 . S
C3088 C3089 1.367 . S
C3089 C3088 1.367 . S
C3089 C3091 1.433 . S
C3090 C3086 1.350 . S
C3090 C3087 1.463 . S
C3090 N3094 1.427 . S
C3091 H3081 0.929 . S
C3091 C3089 1.433 . S
C3091 N3094 1.384 . S
C3092 H3083 0.929 . S
C3092 C3084 1.378 . S
C3092 C3087 1.350 . S
C3093 H3080 0.929 . S
C3093 C3085 1.433 . S
C3093 N3095 1.384 . S
N3094 C3090 1.427 . S
N3094 C3091 1.384 . S
N3095 C3087 1.427 . S
N3095 C3093 1.384 . S
H3096 C3102 0.930 . S
H3097 C3106 0.930 . S
H3098 C3111 0.929 . S
H3099 C3109 0.929 . S
H3100 C3104 0.929 . S
H3101 C3110 0.929 1_455 S
C3102 H3096 0.930 . S
C3102 C3103 1.367 . S
C3102 C3110 1.378 . S
C3103 C3102 1.367 . S
C3103 C3111 1.433 . S
C3104 H3100 0.929 . S
C3104 C3106 1.378 . S
C3104 C3108 1.350 . S
C3105 C3108 1.463 . S
C3105 C3110 1.350 1_455 S
C3105 N3113 1.434 1_455 S
C3106 H3097 0.930 . S
C3106 C3104 1.378 . S
C3106 C3107 1.367 . S
C3107 C3106 1.367 . S
C3107 C3109 1.433 . S
C3108 C3104 1.350 . S
C3108 C3105 1.463 . S
C3108 N3112 1.427 . S
C3109 H3099 0.929 . S
C3109 C3107 1.433 . S
C3109 N3112 1.384 . S
C3110 H3101 0.929 1_655 S
C3110 C3102 1.378 . S
C3110 C3105 1.350 1_655 S
C3111 H3098 0.929 . S
C3111 C3103 1.433 . S
C3111 N3113 1.422 . S
N3112 C3108 1.427 . S
N3112 C3109 1.384 . S
N3113 C3105 1.434 1_655 S
N3113 C3111 1.422 . S
H3114 C3120 0.930 . S
H3115 C3124 0.930 . S
H3116 C3129 0.929 . S
H3117 C3127 0.929 . S
H3118 C3122 0.929 . S
H3119 C3128 0.929 . S
C3120 H3114 0.930 . S
C3120 C3121 1.367 . S
C3120 C3128 1.378 . S
C3121 C3120 1.367 . S
C3121 C3129 1.433 . S
C3122 H3118 0.929 . S
C3122 C3124 1.378 . S
C3122 C3126 1.350 . S
C3123 C3126 1.463 . S
C3123 C3128 1.350 . S
C3123 N3131 1.427 . S
C3124 H3115 0.930 . S
C3124 C3122 1.378 . S
C3124 C3125 1.367 . S
C3125 C3124 1.367 . S
C3125 C3127 1.433 . S
C3126 C3122 1.350 . S
C3126 C3123 1.463 . S
C3126 N3130 1.427 . S
C3127 H3117 0.929 . S
C3127 C3125 1.433 . S
C3127 N3130 1.384 . S
C3128 H3119 0.929 . S
C3128 C3120 1.378 . S
C3128 C3123 1.350 . S
C3129 H3116 0.929 . S
C3129 C3121 1.433 . S
C3129 N3131 1.384 . S
N3130 C3126 1.427 . S
N3130 C3127 1.384 . S
N3131 C3123 1.427 . S
N3131 C3129 1.384 . S
H3132 C3138 0.930 . S
H3133 C3142 0.930 . S
H3134 C3147 0.929 . S
H3135 C3145 0.929 . S
H3136 C3140 0.929 . S
H3137 C3146 0.929 . S
C3138 H3132 0.930 . S
C3138 C3139 1.367 . S
C3138 C3146 1.378 . S
C3139 C3138 1.367 . S
C3139 C3147 1.433 . S
C3140 H3136 0.929 . S
C3140 C3142 1.378 . S
C3140 C3144 1.350 . S
C3141 C3144 1.463 1_565 S
C3141 C3146 1.350 . S
C3141 N3149 1.427 . S
C3142 H3133 0.930 . S
C3142 C3140 1.378 . S
C3142 C3143 1.367 . S
C3143 C3142 1.367 . S
C3143 C3145 1.433 . S
C3144 C3140 1.350 . S
C3144 C3141 1.463 1_545 S
C3144 N3148 1.427 . S
C3145 H3135 0.929 . S
C3145 C3143 1.433 . S
C3145 N3148 1.384 . S
C3146 H3137 0.929 . S
C3146 C3138 1.378 . S
C3146 C3141 1.350 . S
C3147 H3134 0.929 . S
C3147 C3139 1.433 . S
C3147 N3149 1.384 . S
N3148 C3144 1.427 . S
N3148 C3145 1.384 . S
N3149 C3141 1.427 . S
N3149 C3147 1.384 . S
H3150 C3156 0.930 . S
H3151 C3160 0.930 . S
H3152 C3165 0.929 . S
H3153 C3163 0.929 . S
H3154 C3158 0.929 . S
H3155 C3164 0.929 . S
C3156 H3150 0.930 . S
C3156 C3157 1.367 . S
C3156 C3164 1.378 . S
C3157 C3156 1.367 . S
C3157 C3165 1.433 . S
C3158 H3154 0.929 . S
C3158 C3160 1.378 . S
C3158 C3162 1.350 . S
C3159 C3162 1.463 1_565 S
C3159 C3164 1.350 . S
C3159 N3167 1.427 . S
C3160 H3151 0.930 . S
C3160 C3158 1.378 . S
C3160 C3161 1.367 . S
C3161 C3160 1.367 . S
C3161 C3163 1.433 . S
C3162 C3158 1.350 . S
C3162 C3159 1.463 1_545 S
C3162 N3166 1.427 . S
C3163 H3153 0.929 . S
C3163 C3161 1.433 . S
C3163 N3166 1.384 . S
C3164 H3155 0.929 . S
C3164 C3156 1.378 . S
C3164 C3159 1.350 . S
C3165 H3152 0.929 . S
C3165 C3157 1.433 . S
C3165 N3167 1.384 . S
N3166 C3162 1.427 . S
N3166 C3163 1.384 . S
N3167 C3159 1.427 . S
N3167 C3165 1.384 . S
H3168 C3174 0.930 . S
H3169 C3178 0.930 . S
H3170 C3183 0.929 . S
H3171 C3181 0.929 . S
H3172 C3176 0.929 . S
H3173 C3182 0.929 . S
C3174 H3168 0.930 . S
C3174 C3175 1.367 . S
C3174 C3182 1.378 . S
C3175 C3174 1.367 . S
C3175 C3183 1.433 . S
C3176 H3172 0.929 . S
C3176 C3178 1.378 . S
C3176 C3180 1.350 . S
C3177 C3180 1.463 1_655 S
C3177 C3182 1.350 . S
C3177 N3185 1.427 . S
C3178 H3169 0.930 . S
C3178 C3176 1.378 . S
C3178 C3179 1.367 . S
C3179 C3178 1.367 . S
C3179 C3181 1.433 . S
C3180 C3176 1.350 . S
C3180 C3177 1.463 1_455 S
C3180 N3184 1.427 . S
C3181 H3171 0.929 . S
C3181 C3179 1.433 . S
C3181 N3184 1.384 . S
C3182 H3173 0.929 . S
C3182 C3174 1.378 . S
C3182 C3177 1.350 . S
C3183 H3170 0.929 . S
C3183 C3175 1.433 . S
C3183 N3185 1.384 . S
N3184 C3180 1.427 . S
N3184 C3181 1.384 . S
N3185 C3177 1.427 . S
N3185 C3183 1.384 . S
H3186 C3192 0.930 . S
H3187 C3196 0.930 . S
H3188 C3201 0.929 . S
H3189 C3199 0.929 . S
H3190 C3194 0.929 . S
H3191 C3200 0.929 . S
C3192 H3186 0.930 . S
C3192 C3193 1.367 . S
C3192 C3200 1.378 . S
C3193 C3192 1.367 . S
C3193 C3201 1.433 . S
C3194 H3190 0.929 . S
C3194 C3196 1.378 . S
C3194 C3198 1.350 . S
C3195 C3198 1.463 . S
C3195 C3200 1.350 . S
C3195 N3203 1.427 . S
C3196 H3187 0.930 . S
C3196 C3194 1.378 . S
C3196 C3197 1.367 . S
C3197 C3196 1.367 . S
C3197 C3199 1.433 . S
C3198 C3194 1.350 . S
C3198 C3195 1.463 . S
C3198 N3202 1.427 . S
C3199 H3189 0.929 . S
C3199 C3197 1.433 . S
C3199 N3202 1.384 . S
C3200 H3191 0.929 . S
C3200 C3192 1.378 . S
C3200 C3195 1.350 . S
C3201 H3188 0.929 . S
C3201 C3193 1.433 . S
C3201 N3203 1.384 . S
N3202 C3198 1.427 . S
N3202 C3199 1.384 . S
N3203 C3195 1.427 . S
N3203 C3201 1.384 . S
C1915 C39 1.508 . S
C1919 C993 1.504 . S
C1933 C82 1.423 . S
C1937 C1046 1.423 . S
C1951 C1099 1.395 . S
C1955 C145 1.397 . S
C1969 C198 1.396 . S
C1973 C1788 1.396 . S
C1987 C1841 1.425 . S
C1991 C241 1.425 . S
C2005 C304 1.507 . S
C2009 C1894 1.503 . S
C2023 C1311 1.509 . S
C2027 C357 1.505 . S
C2041 C410 1.425 . S
C2045 C1354 1.425 . S
C2059 C463 1.394 . S
C2063 C1417 1.395 . S
C2077 C516 1.396 . S
C2081 C834 1.396 . S
C2095 C877 1.424 . S
C2099 C569 1.424 . S
C2113 C622 1.506 . S
C2117 C940 1.509 . S
C2131 C675 1.507 . S
C2135 C1629 1.503 . S
C2149 C718 1.423 . S
C2153 C1682 1.423 . S
C2167 C781 1.395 . S
C2171 C1735 1.393 . S
C2185 C1152 1.395 . S
C2189 C1470 1.395 . S
C2203 C1205 1.423 . S
C2207 C1513 1.422 . S
C2221 C1258 1.503 . S
C2225 C1576 1.507 . S
C2239 C409 1.909 1_544 S
C2243 C22 1.871 . S
C2257 C462 1.896 1_655 S
C2261 C91 1.881 . S
C2275 C128 1.817 . S
C2279 C356 1.851 . S
C2293 C621 1.854 1_455 S
C2297 C181 1.822 . S
C2311 C515 1.896 . S
C2315 C250 1.881 . S
C2329 C568 1.910 1_565 S
C2333 C287 1.879 . S
C2347 C340 1.617 . S
C2351 C75 1.566 1_565 S
C2365 C393 1.697 . S
C2369 C144 1.704 1_455 S
C2383 C446 1.716 . S
C2387 C38 1.733 . S
C2401 C499 1.713 . S
C2405 C303 1.731 1_655 S
C2419 C197 1.706 . S
C2423 C552 1.699 . S
C2437 C234 1.586 1_545 S
C2441 C605 1.611 . S
C2455 C658 1.880 . S
C2459 C1045 1.911 . S
C2473 C727 1.877 . S
C2477 C1098 1.894 . S
C2491 C764 1.815 . S
C2495 C992 1.850 . S
C2509 C1257 1.855 . S
C2513 C817 1.824 . S
C2527 C886 1.879 . S
C2531 C1151 1.895 . S
C2545 C1204 1.911 . S
C2549 C923 1.880 . S
C2563 C976 1.617 . S
C2567 C711 1.629 . S
C2581 C780 1.707 . S
C2585 C1029 1.700 . S
C2599 C674 1.735 . S
C2603 C1082 1.719 . S
C2617 C1135 1.722 . S
C2621 C939 1.738 . S
C2635 C1188 1.694 . S
C2639 C833 1.703 . S
C2653 C1241 1.613 . S
C2657 C870 1.628 . S
C2671 C1681 1.909 . S
C2675 C1294 1.871 . S
C2689 C1363 1.879 . S
C2693 C1734 1.896 . S
C2707 C1400 1.817 . S
C2711 C1628 1.851 . S
C2725 C1893 1.855 . S
C2729 C1453 1.823 . S
C2743 C1787 1.895 . S
C2747 C1522 1.876 . S
C2761 C1840 1.911 . S
C2765 C1559 1.874 . S
C2779 C1347 1.629 . S
C2783 C1612 1.616 . S
C2797 C1416 1.701 . S
C2801 C1665 1.692 . S
C2815 C1310 1.732 . S
C2819 C1718 1.714 . S
C2833 C1771 1.714 . S
C2837 C1575 1.732 . S
C2851 C1469 1.702 . S
C2855 C1824 1.692 . S
C2869 C1877 1.617 . S
C2873 C1506 1.629 . S
C2887 C29 2.121 . S
C2891 C1566 2.121 . S
C2905 C1460 2.050 . S
C2909 C92 2.059 . S
C2923 C135 2.056 1_455 S
C2927 C1523 2.066 . S
C2941 C188 2.047 . S
C2945 C728 2.060 . S
C2959 C771 2.054 . S
C2963 C251 2.067 . S
C2977 C294 2.122 1_655 S
C2981 C665 2.121 . S
C2995 C1248 1.655 . S
C2999 C347 1.652 . S
C3013 C400 1.621 1_545 S
C3017 C1142 1.610 . S
C3031 C453 1.608 1_655 S
C3035 C1195 1.622 . S
C3049 C506 1.602 . S
C3053 C1672 1.614 . S
C3067 C559 1.612 1_565 S
C3071 C1725 1.604 . S
C3085 C1619 1.655 . S
C3089 C612 1.650 1_455 S
C3103 C824 2.049 . S
C3107 C1364 2.063 . S
C3121 C1407 2.048 . S
C3125 C887 2.059 . S
C3139 C1301 2.124 . S
C3143 C930 2.121 . S
C3157 C1884 1.644 . S
C3161 C983 1.645 . S
C3175 C1036 1.613 . S
C3179 C1778 1.603 . S
C3193 C1089 1.611 . S
C3197 C1831 1.615 . S
