# Generated by pormake.
# Topology gme, (4)-cn, num edge types: 1
# Building blocks:
#     Node 0, Type 0, BuildingBlock: UXUYUI_clean_sbu_0, # of connection points: 4
#     Node 1, Type 0, BuildingBlock: UXUYUI_clean_sbu_0, # of connection points: 4
#     Node 2, Type 0, BuildingBlock: UXUYUI_clean_sbu_0, # of connection points: 4
#     Node 3, Type 0, BuildingBlock: UXUYUI_clean_sbu_0, # of connection points: 4
#     Node 4, Type 0, BuildingBlock: UXUYUI_clean_sbu_0, # of connection points: 4
#     Node 5, Type 0, BuildingBlock: UXUYUI_clean_sbu_0, # of connection points: 4
#     Node 6, Type 0, BuildingBlock: UXUYUI_clean_sbu_0, # of connection points: 4
#     Node 7, Type 0, BuildingBlock: UXUYUI_clean_sbu_0, # of connection points: 4
#     Node 8, Type 0, BuildingBlock: UXUYUI_clean_sbu_0, # of connection points: 4
#     Node 9, Type 0, BuildingBlock: UXUYUI_clean_sbu_0, # of connection points: 4
#     Node 10, Type 0, BuildingBlock: UXUYUI_clean_sbu_0, # of connection points: 4
#     Node 11, Type 0, BuildingBlock: UXUYUI_clean_sbu_0, # of connection points: 4
#     Node 12, Type 0, BuildingBlock: UXUYUI_clean_sbu_0, # of connection points: 4
#     Node 13, Type 0, BuildingBlock: UXUYUI_clean_sbu_0, # of connection points: 4
#     Node 14, Type 0, BuildingBlock: UXUYUI_clean_sbu_0, # of connection points: 4
#     Node 15, Type 0, BuildingBlock: UXUYUI_clean_sbu_0, # of connection points: 4
#     Node 16, Type 0, BuildingBlock: UXUYUI_clean_sbu_0, # of connection points: 4
#     Node 17, Type 0, BuildingBlock: UXUYUI_clean_sbu_0, # of connection points: 4
#     Node 18, Type 0, BuildingBlock: UXUYUI_clean_sbu_0, # of connection points: 4
#     Node 19, Type 0, BuildingBlock: UXUYUI_clean_sbu_0, # of connection points: 4
#     Node 20, Type 0, BuildingBlock: UXUYUI_clean_sbu_0, # of connection points: 4
#     Node 21, Type 0, BuildingBlock: UXUYUI_clean_sbu_0, # of connection points: 4
#     Node 22, Type 0, BuildingBlock: UXUYUI_clean_sbu_0, # of connection points: 4
#     Node 23, Type 0, BuildingBlock: UXUYUI_clean_sbu_0, # of connection points: 4
#     Edge 24, Type (0, 0), BuildingBlock: XIVTED_clean_linker_0, # of connection points: 2
#     Edge 25, Type (0, 0), BuildingBlock: XIVTED_clean_linker_0, # of connection points: 2
#     Edge 26, Type (0, 0), BuildingBlock: XIVTED_clean_linker_0, # of connection points: 2
#     Edge 27, Type (0, 0), BuildingBlock: XIVTED_clean_linker_0, # of connection points: 2
#     Edge 28, Type (0, 0), BuildingBlock: XIVTED_clean_linker_0, # of connection points: 2
#     Edge 29, Type (0, 0), BuildingBlock: XIVTED_clean_linker_0, # of connection points: 2
#     Edge 30, Type (0, 0), BuildingBlock: XIVTED_clean_linker_0, # of connection points: 2
#     Edge 31, Type (0, 0), BuildingBlock: XIVTED_clean_linker_0, # of connection points: 2
#     Edge 32, Type (0, 0), BuildingBlock: XIVTED_clean_linker_0, # of connection points: 2
#     Edge 33, Type (0, 0), BuildingBlock: XIVTED_clean_linker_0, # of connection points: 2
#     Edge 34, Type (0, 0), BuildingBlock: XIVTED_clean_linker_0, # of connection points: 2
#     Edge 35, Type (0, 0), BuildingBlock: XIVTED_clean_linker_0, # of connection points: 2
#     Edge 36, Type (0, 0), BuildingBlock: XIVTED_clean_linker_0, # of connection points: 2
#     Edge 37, Type (0, 0), BuildingBlock: XIVTED_clean_linker_0, # of connection points: 2
#     Edge 38, Type (0, 0), BuildingBlock: XIVTED_clean_linker_0, # of connection points: 2
#     Edge 39, Type (0, 0), BuildingBlock: XIVTED_clean_linker_0, # of connection points: 2
#     Edge 40, Type (0, 0), BuildingBlock: XIVTED_clean_linker_0, # of connection points: 2
#     Edge 41, Type (0, 0), BuildingBlock: XIVTED_clean_linker_0, # of connection points: 2
#     Edge 42, Type (0, 0), BuildingBlock: XIVTED_clean_linker_0, # of connection points: 2
#     Edge 43, Type (0, 0), BuildingBlock: XIVTED_clean_linker_0, # of connection points: 2
#     Edge 44, Type (0, 0), BuildingBlock: XIVTED_clean_linker_0, # of connection points: 2
#     Edge 45, Type (0, 0), BuildingBlock: XIVTED_clean_linker_0, # of connection points: 2
#     Edge 46, Type (0, 0), BuildingBlock: XIVTED_clean_linker_0, # of connection points: 2
#     Edge 47, Type (0, 0), BuildingBlock: XIVTED_clean_linker_0, # of connection points: 2
#     Edge 48, Type (0, 0), BuildingBlock: XIVTED_clean_linker_0, # of connection points: 2
#     Edge 49, Type (0, 0), BuildingBlock: XIVTED_clean_linker_0, # of connection points: 2
#     Edge 50, Type (0, 0), BuildingBlock: XIVTED_clean_linker_0, # of connection points: 2
#     Edge 51, Type (0, 0), BuildingBlock: XIVTED_clean_linker_0, # of connection points: 2
#     Edge 52, Type (0, 0), BuildingBlock: XIVTED_clean_linker_0, # of connection points: 2
#     Edge 53, Type (0, 0), BuildingBlock: XIVTED_clean_linker_0, # of connection points: 2
#     Edge 54, Type (0, 0), BuildingBlock: XIVTED_clean_linker_0, # of connection points: 2
#     Edge 55, Type (0, 0), BuildingBlock: XIVTED_clean_linker_0, # of connection points: 2
#     Edge 56, Type (0, 0), BuildingBlock: XIVTED_clean_linker_0, # of connection points: 2
#     Edge 57, Type (0, 0), BuildingBlock: XIVTED_clean_linker_0, # of connection points: 2
#     Edge 58, Type (0, 0), BuildingBlock: XIVTED_clean_linker_0, # of connection points: 2
#     Edge 59, Type (0, 0), BuildingBlock: XIVTED_clean_linker_0, # of connection points: 2
#     Edge 60, Type (0, 0), BuildingBlock: XIVTED_clean_linker_0, # of connection points: 2
#     Edge 61, Type (0, 0), BuildingBlock: XIVTED_clean_linker_0, # of connection points: 2
#     Edge 62, Type (0, 0), BuildingBlock: XIVTED_clean_linker_0, # of connection points: 2
#     Edge 63, Type (0, 0), BuildingBlock: XIVTED_clean_linker_0, # of connection points: 2
#     Edge 64, Type (0, 0), BuildingBlock: XIVTED_clean_linker_0, # of connection points: 2
#     Edge 65, Type (0, 0), BuildingBlock: XIVTED_clean_linker_0, # of connection points: 2
#     Edge 66, Type (0, 0), BuildingBlock: XIVTED_clean_linker_0, # of connection points: 2
#     Edge 67, Type (0, 0), BuildingBlock: XIVTED_clean_linker_0, # of connection points: 2
#     Edge 68, Type (0, 0), BuildingBlock: XIVTED_clean_linker_0, # of connection points: 2
#     Edge 69, Type (0, 0), BuildingBlock: XIVTED_clean_linker_0, # of connection points: 2
#     Edge 70, Type (0, 0), BuildingBlock: XIVTED_clean_linker_0, # of connection points: 2
#     Edge 71, Type (0, 0), BuildingBlock: XIVTED_clean_linker_0, # of connection points: 2
# Relax obj value: 0.245
# Max RMSD: 0.175
# Mean RMSD: 0.174
data_MOF--net-gme--node1-UXUYUI_clean_sbu_0--edge1-XIVTED_clean_linker_0
_symmetry_space_group_name_H-M    P1
_symmetry_Int_Tables_number       1
_symmetry_cell_setting            triclinic
loop_
_symmetry_equiv_pos_as_xyz
'x, y, z'
_cell_length_a     95.533266
_cell_length_b     95.524502
_cell_length_c     67.978389
_cell_angle_alpha  90.004444
_cell_angle_beta   90.014388
_cell_angle_gamma 120.02277
loop_
_atom_site_label
_atom_site_type_symbol
_atom_site_fract_x
_atom_site_fract_y
_atom_site_fract_z
_atom_type_partial_charge
Li0 Li 0.42761 0.11032 0.07503 0.0
Li1 Li 0.42497 0.09551 0.10419 0.0
Li2 Li 0.4431 0.09691 0.07685 0.0
Li3 Li 0.41337 0.08163 0.07344 0.0
C4 C 0.45215 0.13041 0.09713 0.0
N5 N 0.46644 0.16345 0.10198 0.0
C6 C 0.44461 0.13686 0.10862 0.0
C7 C 0.46704 0.14072 0.08831 0.0
C8 C 0.452 0.15361 0.11082 0.0
C9 C 0.47405 0.15741 0.0909 0.0
C10 C 0.39287 0.08513 0.09821 0.0
C11 C 0.37616 0.0611 0.11729 0.0
N12 N 0.36387 0.0644 0.11651 0.0
C13 C 0.38003 0.08821 0.09755 0.0
C14 C 0.39088 0.0714 0.10811 0.0
C15 C 0.36549 0.07762 0.10691 0.0
C16 C 0.4403 0.14123 0.05583 0.0
N17 N 0.42782 0.12946 0.06628 0.0
C18 C 0.41533 0.14569 0.06879 0.0
C19 C 0.41541 0.13139 0.07262 0.0
C20 C 0.42817 0.15816 0.05827 0.0
C21 C 0.44064 0.15567 0.05149 0.0
H22 H 0.45035 0.1398 0.05155 0.0
H23 H 0.40586 0.12207 0.08133 0.0
C24 C 0.43353 0.09115 0.14179 0.0
N25 N 0.42368 0.0952 0.13196 0.0
C26 C 0.43401 0.09153 0.16229 0.0
C27 C 0.41395 0.09993 0.16215 0.0
C28 C 0.41401 0.09959 0.14162 0.0
C29 C 0.42417 0.09601 0.1727 0.0
H30 H 0.44118 0.08786 0.13363 0.0
H31 H 0.40655 0.10308 0.13341 0.0
C32 C 0.43613 0.10499 0.03738 0.0
N33 N 0.44911 0.12116 0.00246 0.0
C34 C 0.42619 0.10212 0.02101 0.0
C35 C 0.45268 0.11602 0.03593 0.0
C36 C 0.43297 0.11043 0.0035 0.0
C37 C 0.45901 0.1241 0.01818 0.0
C38 C 0.42881 0.06467 0.08715 0.0
C39 C 0.42977 0.06128 0.06734 0.0
C40 C 0.42987 0.05495 0.10175 0.0
C41 C 0.43174 0.04816 0.06248 0.0
C42 C 0.43182 0.04193 0.09628 0.0
N43 N 0.43271 0.03883 0.07693 0.0
C44 C 0.4728 0.10176 0.08839 0.0
C45 C 0.46703 0.09317 0.05519 0.0
C46 C 0.48767 0.10243 0.08727 0.0
N47 N 0.46291 0.09731 0.07248 0.0
C48 C 0.48194 0.09386 0.05332 0.0
C49 C 0.49255 0.09862 0.0695 0.0
H50 H 0.46903 0.10471 0.10203 0.0
H51 H 0.4588 0.08942 0.04284 0.0
C52 C 0.38721 0.06696 0.04803 0.0
N53 N 0.39522 0.0636 0.06206 0.0
C54 C 0.37396 0.05446 0.0384 0.0
C55 C 0.37701 0.03529 0.05853 0.0
C56 C 0.39011 0.04817 0.06788 0.0
C57 C 0.36891 0.03833 0.0433 0.0
H58 H 0.3912 0.0794 0.04428 0.0
H59 H 0.39628 0.04582 0.0796 0.0
O60 O 0.44487 0.11409 0.0943 0.0
O61 O 0.40709 0.09534 0.08879 0.0
O62 O 0.42974 0.09656 0.05444 0.0
O63 O 0.42708 0.07755 0.09234 0.0
H64 H 0.43304 0.12901 0.11547 0.0
H65 H 0.47303 0.13588 0.07941 0.0
H66 H 0.44623 0.15879 0.1195 0.0
H67 H 0.48552 0.16555 0.08405 0.0
H68 H 0.37449 0.05047 0.12501 0.0
H69 H 0.3812 0.09863 0.08979 0.0
H70 H 0.40053 0.06865 0.10878 0.0
H71 H 0.35548 0.07988 0.1065 0.0
H72 H 0.40563 0.14716 0.07473 0.0
H73 H 0.45075 0.16489 0.04324 0.0
H74 H 0.44198 0.08835 0.16994 0.0
H75 H 0.40635 0.10365 0.16968 0.0
H76 H 0.41339 0.09349 0.02175 0.0
H77 H 0.46053 0.11861 0.0485 0.0
H78 H 0.42542 0.10832 0.99072 0.0
H79 H 0.47178 0.13274 0.01692 0.0
H80 H 0.42897 0.06866 0.05583 0.0
H81 H 0.42919 0.05745 0.11714 0.0
H82 H 0.43249 0.04539 0.04722 0.0
H83 H 0.43265 0.03429 0.10743 0.0
H84 H 0.49515 0.10571 0.10031 0.0
H85 H 0.48517 0.0909 0.03929 0.0
H86 H 0.36786 0.0574 0.02709 0.0
H87 H 0.37367 0.02308 0.06276 0.0
Li88 Li 0.31193 0.43232 0.57829 0.0
Li89 Li 0.32499 0.4276 0.6068 0.0
Li90 Li 0.34103 0.44546 0.58018 0.0
Li91 Li 0.32523 0.41725 0.5751 0.0
C92 C 0.3187 0.45267 0.61164 0.0
N93 N 0.30311 0.4615 0.63895 0.0
C94 C 0.30321 0.44136 0.61821 0.0
C95 C 0.32627 0.46843 0.619 0.0
C96 C 0.29554 0.44607 0.63201 0.0
C97 C 0.31819 0.47267 0.63278 0.0
C98 C 0.29924 0.39532 0.59302 0.0
C99 C 0.29989 0.37191 0.60508 0.0
N100 N 0.28627 0.3622 0.59463 0.0
C101 C 0.28522 0.38512 0.58247 0.0
C102 C 0.30663 0.38868 0.60448 0.0
C103 C 0.27886 0.36841 0.58345 0.0
C104 C 0.28362 0.42211 0.55708 0.0
N105 N 0.29425 0.4342 0.56897 0.0
C106 C 0.2787 0.44741 0.56712 0.0
C107 C 0.29233 0.44699 0.57356 0.0
C108 C 0.26706 0.43466 0.55559 0.0
C109 C 0.26984 0.42206 0.55022 0.0
H110 H 0.28584 0.41244 0.55304 0.0
H111 H 0.30125 0.45677 0.58243 0.0
C112 C 0.33824 0.43554 0.64426 0.0
N113 N 0.32453 0.42525 0.63441 0.0
C114 C 0.33861 0.43524 0.66476 0.0
C115 C 0.31075 0.41362 0.66453 0.0
C116 C 0.31089 0.41441 0.64402 0.0
C117 C 0.32472 0.4242 0.67521 0.0
H118 H 0.3488 0.44418 0.63615 0.0
H119 H 0.30009 0.40653 0.63577 0.0
C120 C 0.32808 0.44552 0.5438 0.0
N121 N 0.33017 0.46806 0.51671 0.0
C122 C 0.32787 0.44248 0.52367 0.0
C123 C 0.32933 0.46003 0.55016 0.0
C124 C 0.32895 0.45403 0.5102 0.0
C125 C 0.33037 0.47126 0.53624 0.0
C126 C 0.35735 0.42891 0.58621 0.0
C127 C 0.36055 0.43059 0.56601 0.0
C128 C 0.36817 0.42779 0.59905 0.0
C129 C 0.37453 0.43109 0.559 0.0
C130 C 0.38202 0.42834 0.59147 0.0
N131 N 0.38489 0.42996 0.57177 0.0
C132 C 0.36768 0.47373 0.59232 0.0
C133 C 0.36801 0.46976 0.55794 0.0
C134 C 0.38219 0.48835 0.59116 0.0
N135 N 0.36086 0.46487 0.57586 0.0
C136 C 0.3825 0.48443 0.55606 0.0
C137 C 0.38974 0.49401 0.57282 0.0
H138 H 0.3618 0.46937 0.6064 0.0
H139 H 0.36244 0.46236 0.5451 0.0
C140 C 0.3143 0.39444 0.54493 0.0
N141 N 0.32358 0.39922 0.56141 0.0
C142 C 0.31297 0.3816 0.53372 0.0
C143 C 0.33053 0.37869 0.55696 0.0
C144 C 0.33133 0.39143 0.56783 0.0
C145 C 0.32146 0.37376 0.53944 0.0
H146 H 0.30806 0.40074 0.54042 0.0
H147 H 0.33838 0.39529 0.58122 0.0
O148 O 0.32662 0.44833 0.59837 0.0
O149 O 0.30592 0.41175 0.59189 0.0
O150 O 0.32694 0.4342 0.55704 0.0
O151 O 0.34378 0.42842 0.59356 0.0
H152 H 0.29715 0.4291 0.61271 0.0
H153 H 0.33829 0.47729 0.61411 0.0
H154 H 0.28355 0.43746 0.63721 0.0
H155 H 0.3239 0.48484 0.63859 0.0
H156 H 0.30555 0.36661 0.61378 0.0
H157 H 0.2793 0.39002 0.5736 0.0
H158 H 0.31761 0.39641 0.61255 0.0
H159 H 0.26804 0.36036 0.57531 0.0
H160 H 0.27704 0.45734 0.57169 0.0
H161 H 0.26139 0.41219 0.54099 0.0
H162 H 0.34955 0.44385 0.67232 0.0
H163 H 0.29982 0.4048 0.67192 0.0
H164 H 0.32689 0.43129 0.51852 0.0
H165 H 0.32954 0.46266 0.56565 0.0
H166 H 0.32881 0.45183 0.49457 0.0
H167 H 0.33136 0.48254 0.54096 0.0
H168 H 0.35234 0.43145 0.55581 0.0
H169 H 0.36587 0.42651 0.61473 0.0
H170 H 0.37715 0.43237 0.54341 0.0
H171 H 0.3905 0.42748 0.60124 0.0
H172 H 0.38748 0.49507 0.60456 0.0
H173 H 0.3878 0.48832 0.54161 0.0
H174 H 0.3056 0.37805 0.52057 0.0
H175 H 0.33747 0.37322 0.56187 0.0
Li176 Li 0.89243 0.32627 0.10562 0.0
Li177 Li 0.87343 0.31441 0.07802 0.0
Li178 Li 0.90288 0.32734 0.07325 0.0
Li179 Li 0.891 0.34423 0.07914 0.0
C180 C 0.88903 0.29648 0.10043 0.0
N181 N 0.88971 0.27382 0.12508 0.0
C182 C 0.8754 0.28111 0.10229 0.0
C183 C 0.90304 0.30027 0.11099 0.0
C184 C 0.87597 0.26983 0.11485 0.0
C185 C 0.90314 0.28867 0.12341 0.0
C186 C 0.86078 0.32907 0.10589 0.0
C187 C 0.84046 0.33706 0.10537 0.0
N188 N 0.83372 0.32821 0.1219 0.0
C189 C 0.85375 0.32024 0.12304 0.0
C190 C 0.85416 0.33771 0.09711 0.0
C191 C 0.84004 0.31987 0.13083 0.0
C192 C 0.90604 0.33813 0.14283 0.0
N193 N 0.89469 0.32476 0.13323 0.0
C194 C 0.88538 0.31034 0.16354 0.0
C195 C 0.88449 0.31098 0.14311 0.0
C196 C 0.8967 0.32409 0.17391 0.0
C197 C 0.90724 0.33808 0.1633 0.0
H198 H 0.9139 0.34896 0.1346 0.0
H199 H 0.87533 0.30063 0.13521 0.0
C200 C 0.8485 0.2915 0.0528 0.0
N201 N 0.85274 0.29684 0.0716 0.0
C202 C 0.83322 0.2783 0.04878 0.0
C203 C 0.82726 0.27613 0.08358 0.0
C204 C 0.84257 0.28935 0.08688 0.0
C205 C 0.82236 0.27046 0.06432 0.0
H206 H 0.85699 0.29738 0.04094 0.0
H207 H 0.84654 0.29336 0.10173 0.0
C208 C 0.92631 0.35393 0.08843 0.0
N209 N 0.95882 0.37016 0.07917 0.0
C210 C 0.93232 0.36623 0.07433 0.0
C211 C 0.93685 0.35003 0.09801 0.0
C212 C 0.94879 0.37426 0.06981 0.0
C213 C 0.95324 0.35833 0.09306 0.0
C214 C 0.87836 0.33168 0.04167 0.0
C215 C 0.88447 0.33513 0.02251 0.0
C216 C 0.86347 0.33047 0.04574 0.0
C217 C 0.87566 0.33754 0.00781 0.0
C218 C 0.85501 0.33294 0.03066 0.0
N219 N 0.86124 0.33642 0.01216 0.0
C220 C 0.92618 0.31782 0.064 0.0
C221 C 0.9249 0.33677 0.04264 0.0
C222 C 0.93926 0.3189 0.05351 0.0
N223 N 0.91949 0.32688 0.05856 0.0
C224 C 0.93783 0.33814 0.03167 0.0
C225 C 0.94529 0.32927 0.0372 0.0
H226 H 0.92161 0.31 0.07666 0.0
H227 H 0.9195 0.34401 0.03888 0.0
C228 C 0.89129 0.37197 0.09168 0.0
N229 N 0.89216 0.36446 0.07514 0.0
C230 C 0.89117 0.38647 0.09037 0.0
C231 C 0.89344 0.3856 0.05503 0.0
C232 C 0.89355 0.3711 0.05704 0.0
C233 C 0.89201 0.39337 0.07184 0.0
H234 H 0.89043 0.3665 0.10589 0.0
H235 H 0.8946 0.36511 0.04413 0.0
O236 O 0.88861 0.3077 0.08831 0.0
O237 O 0.87442 0.3298 0.09826 0.0
O238 O 0.91014 0.34559 0.09258 0.0
O239 O 0.88696 0.32949 0.05627 0.0
H240 H 0.8645 0.2779 0.09409 0.0
H241 H 0.91365 0.31213 0.10985 0.0
H242 H 0.8655 0.25791 0.11646 0.0
H243 H 0.91387 0.29149 0.13178 0.0
H244 H 0.83522 0.34365 0.09866 0.0
H245 H 0.85871 0.3136 0.13018 0.0
H246 H 0.85956 0.34498 0.08415 0.0
H247 H 0.83443 0.31296 0.144 0.0
H248 H 0.87686 0.29941 0.1712 0.0
H249 H 0.91619 0.34891 0.17077 0.0
H250 H 0.82995 0.27431 0.03372 0.0
H251 H 0.81954 0.27015 0.09609 0.0
H252 H 0.9243 0.36936 0.06675 0.0
H253 H 0.9324 0.34063 0.10906 0.0
H254 H 0.9536 0.3837 0.05881 0.0
H255 H 0.96152 0.35535 0.10025 0.0
H256 H 0.89591 0.33598 0.019 0.0
H257 H 0.85836 0.32737 0.0603 0.0
H258 H 0.88029 0.34028 0.99294 0.0
H259 H 0.84345 0.33202 0.03365 0.0
H260 H 0.94467 0.31184 0.05818 0.0
H261 H 0.94232 0.34653 0.01945 0.0
H262 H 0.89042 0.3922 0.10376 0.0
H263 H 0.89408 0.39046 0.04045 0.0
Li264 Li 0.56804 0.89846 0.60961 0.0
Li265 Li 0.5619 0.87915 0.58162 0.0
Li266 Li 0.57651 0.90764 0.57613 0.0
Li267 Li 0.54809 0.89429 0.58232 0.0
C268 C 0.59893 0.90184 0.58906 0.0
N269 N 0.63126 0.91663 0.57915 0.0
C270 C 0.60402 0.89561 0.57382 0.0
C271 C 0.61027 0.91553 0.59934 0.0
C272 C 0.62042 0.90328 0.56902 0.0
C273 C 0.62656 0.92285 0.59408 0.0
C274 C 0.54013 0.86296 0.60826 0.0
C275 C 0.5207 0.83474 0.60333 0.0
N276 N 0.52705 0.83092 0.61895 0.0
C277 C 0.54641 0.85877 0.62432 0.0
C278 C 0.52712 0.85087 0.59773 0.0
C279 C 0.53964 0.8425 0.62948 0.0
C280 C 0.56199 0.90526 0.64749 0.0
N281 N 0.57199 0.90192 0.63685 0.0
C282 C 0.58565 0.90131 0.66598 0.0
C283 C 0.58375 0.90004 0.64557 0.0
C284 C 0.57528 0.90445 0.67747 0.0
C285 C 0.56343 0.9066 0.66791 0.0
H286 H 0.55263 0.90649 0.64009 0.0
H287 H 0.5914 0.8972 0.63671 0.0
C288 C 0.55312 0.85108 0.55865 0.0
N289 N 0.56075 0.85936 0.5752 0.0
C290 C 0.55267 0.83662 0.55407 0.0
C291 C 0.56828 0.83975 0.58344 0.0
C292 C 0.56832 0.85407 0.58751 0.0
C293 C 0.56038 0.83086 0.56652 0.0
H294 H 0.54754 0.85575 0.54888 0.0
H295 H 0.57442 0.86102 0.60048 0.0
C296 C 0.57112 0.93078 0.59267 0.0
N297 N 0.58364 0.96368 0.58852 0.0
C298 C 0.56909 0.93705 0.57502 0.0
C299 C 0.57945 0.9412 0.60825 0.0
C300 C 0.57555 0.95373 0.5732 0.0
C301 C 0.5857 0.95781 0.60585 0.0
C302 C 0.54921 0.88957 0.54447 0.0
C303 C 0.55397 0.90212 0.53083 0.0
C304 C 0.53401 0.87569 0.54262 0.0
C305 C 0.54349 0.90052 0.51555 0.0
C306 C 0.52386 0.87457 0.52716 0.0
N307 N 0.52877 0.8869 0.51405 0.0
C308 C 0.59561 0.91882 0.54261 0.0
C309 C 0.60403 0.93897 0.56726 0.0
C310 C 0.60669 0.92995 0.52933 0.0
N311 N 0.59394 0.92366 0.56082 0.0
C312 C 0.61522 0.95056 0.55442 0.0
C313 C 0.6162 0.94622 0.53492 0.0
H314 H 0.58789 0.90639 0.53815 0.0
H315 H 0.60308 0.94235 0.58213 0.0
C316 C 0.51547 0.88352 0.5901 0.0
N317 N 0.52791 0.89349 0.57817 0.0
C318 C 0.50035 0.88228 0.58807 0.0
C319 C 0.51105 0.90151 0.56138 0.0
C320 C 0.52603 0.9026 0.56418 0.0
C321 C 0.49791 0.89127 0.57346 0.0
H322 H 0.51732 0.87665 0.60139 0.0
H323 H 0.5361 0.91064 0.55505 0.0
O324 O 0.58289 0.89474 0.59366 0.0
O325 O 0.54689 0.87877 0.60263 0.0
O326 O 0.56496 0.91451 0.59478 0.0
O327 O 0.55932 0.89087 0.55953 0.0
H328 H 0.59535 0.88506 0.56568 0.0
H329 H 0.60647 0.92057 0.61105 0.0
H330 H 0.62454 0.89865 0.5572 0.0
H331 H 0.63547 0.93351 0.60181 0.0
H332 H 0.51069 0.82525 0.59525 0.0
H333 H 0.55652 0.86795 0.63257 0.0
H334 H 0.52209 0.85391 0.58528 0.0
H335 H 0.54444 0.83907 0.64181 0.0
H336 H 0.59504 0.89973 0.67269 0.0
H337 H 0.55499 0.90876 0.67615 0.0
H338 H 0.54664 0.8302 0.54076 0.0
H339 H 0.57423 0.83561 0.59351 0.0
H340 H 0.56292 0.92917 0.56274 0.0
H341 H 0.58112 0.93651 0.622 0.0
H342 H 0.57419 0.95878 0.55957 0.0
H343 H 0.59221 0.96604 0.61776 0.0
H344 H 0.56552 0.9131 0.53214 0.0
H345 H 0.52996 0.86598 0.5532 0.0
H346 H 0.54701 0.91016 0.50495 0.0
H347 H 0.51204 0.86392 0.52564 0.0
H348 H 0.60737 0.92599 0.51462 0.0
H349 H 0.62235 0.96295 0.55942 0.0
H350 H 0.4908 0.87455 0.59813 0.0
H351 H 0.5098 0.90855 0.54976 0.0
Li352 Li 0.66544 0.57655 0.07477 0.0
Li353 Li 0.65268 0.54824 0.08043 0.0
Li354 Li 0.66726 0.5681 0.10793 0.0
Li355 Li 0.68147 0.56411 0.07933 0.0
C356 C 0.6381 0.57083 0.09386 0.0
N357 N 0.6191 0.58511 0.0948 0.0
C358 C 0.62822 0.56924 0.07785 0.0
C359 C 0.63827 0.57963 0.11038 0.0
C360 C 0.61873 0.57658 0.07859 0.0
C361 C 0.62858 0.58676 0.11057 0.0
C362 C 0.65685 0.55006 0.0432 0.0
C363 C 0.64702 0.52526 0.02485 0.0
N364 N 0.63688 0.52877 0.01471 0.0
C365 C 0.64631 0.5534 0.0326 0.0
C366 C 0.65722 0.53588 0.03928 0.0
C367 C 0.63634 0.5425 0.01824 0.0
C368 C 0.67167 0.59542 0.04134 0.0
N369 N 0.66556 0.59362 0.05981 0.0
C370 C 0.66042 0.61539 0.05463 0.0
C371 C 0.66062 0.60375 0.06688 0.0
C372 C 0.66573 0.61683 0.03507 0.0
C373 C 0.67187 0.60698 0.02867 0.0
H374 H 0.67621 0.58769 0.03633 0.0
H375 H 0.65666 0.60276 0.08193 0.0
C376 C 0.63473 0.51436 0.08387 0.0
N377 N 0.6343 0.52727 0.07619 0.0
C378 C 0.62132 0.49886 0.08235 0.0
C379 C 0.60725 0.51014 0.06481 0.0
C380 C 0.62094 0.52544 0.06671 0.0
C381 C 0.60726 0.49662 0.07293 0.0
H382 H 0.64537 0.51611 0.09156 0.0
H383 H 0.6208 0.53587 0.0609 0.0
C384 C 0.69278 0.60046 0.08838 0.0
N385 N 0.70783 0.63312 0.08023 0.0
C386 C 0.70388 0.60692 0.07294 0.0
C387 C 0.68939 0.61058 0.09975 0.0
C388 C 0.71135 0.62348 0.06904 0.0
C389 C 0.69712 0.62708 0.09538 0.0
C390 C 0.67826 0.54275 0.10538 0.0
C391 C 0.68731 0.54826 0.1227 0.0
C392 C 0.68011 0.53199 0.0932 0.0
C393 C 0.69815 0.54299 0.12747 0.0
C394 C 0.6911 0.52704 0.09846 0.0
N395 N 0.69982 0.5326 0.11535 0.0
C396 C 0.65466 0.55985 0.14558 0.0
C397 C 0.68077 0.58316 0.14457 0.0
C398 C 0.65474 0.56014 0.16607 0.0
N399 N 0.66761 0.57113 0.13535 0.0
C400 C 0.68136 0.58393 0.16511 0.0
C401 C 0.66834 0.57213 0.17611 0.0
H402 H 0.64443 0.55038 0.13776 0.0
H403 H 0.69102 0.59178 0.136 0.0
C404 C 0.70288 0.55889 0.05534 0.0
N405 N 0.70116 0.56519 0.07249 0.0
C406 C 0.71751 0.55963 0.05094 0.0
C407 C 0.72834 0.57369 0.0817 0.0
C408 C 0.71352 0.57264 0.08551 0.0
C409 C 0.73046 0.56708 0.06425 0.0
H410 H 0.69292 0.5533 0.04511 0.0
H411 H 0.71177 0.57761 0.09897 0.0
O412 O 0.64736 0.56361 0.09355 0.0
O413 O 0.66657 0.56048 0.05752 0.0
O414 O 0.68506 0.58424 0.09211 0.0
O415 O 0.6679 0.54811 0.10018 0.0
H416 H 0.6281 0.56269 0.06484 0.0
H417 H 0.64585 0.58101 0.1229 0.0
H418 H 0.61112 0.57555 0.06625 0.0
H419 H 0.62861 0.59363 0.12324 0.0
H420 H 0.64712 0.51421 0.02176 0.0
H421 H 0.64565 0.56417 0.03558 0.0
H422 H 0.66511 0.53296 0.04751 0.0
H423 H 0.62809 0.54491 0.00999 0.0
H424 H 0.65562 0.62274 0.06027 0.0
H425 H 0.67656 0.60799 0.01392 0.0
H426 H 0.62193 0.48877 0.08865 0.0
H427 H 0.5966 0.509 0.05765 0.0
H428 H 0.70656 0.59919 0.06397 0.0
H429 H 0.68069 0.60571 0.11163 0.0
H430 H 0.7199 0.62865 0.05707 0.0
H431 H 0.69454 0.63505 0.10397 0.0
H432 H 0.68609 0.55661 0.13228 0.0
H433 H 0.67332 0.5277 0.07966 0.0
H434 H 0.70527 0.54722 0.14079 0.0
H435 H 0.69274 0.51882 0.08909 0.0
H436 H 0.64436 0.55094 0.17399 0.0
H437 H 0.69214 0.59325 0.17227 0.0
H438 H 0.71873 0.55457 0.03723 0.0
H439 H 0.73793 0.57934 0.09248 0.0
Li440 Li 0.11609 0.68094 0.57963 0.0
Li441 Li 0.09748 0.66671 0.60671 0.0
Li442 Li 0.10211 0.65109 0.58014 0.0
Li443 Li 0.08648 0.6644 0.57446 0.0
C444 C 0.1321 0.66835 0.60493 0.0
N445 N 0.16138 0.67143 0.61601 0.0
C446 C 0.13901 0.67521 0.62309 0.0
C447 C 0.13998 0.66276 0.5926 0.0
C448 C 0.15385 0.67677 0.62836 0.0
C449 C 0.15479 0.66449 0.59842 0.0
C450 C 0.09668 0.69412 0.60313 0.0
C451 C 0.08036 0.69852 0.62665 0.0
N452 N 0.09296 0.71363 0.63016 0.0
C453 C 0.10942 0.70974 0.60685 0.0
C454 C 0.08199 0.6885 0.61298 0.0
C455 C 0.10731 0.7194 0.62061 0.0
C456 C 0.13765 0.70756 0.55574 0.0
N457 N 0.13514 0.70047 0.57374 0.0
C458 C 0.15926 0.72284 0.58625 0.0
C459 C 0.14558 0.70776 0.58885 0.0
C460 C 0.16214 0.73062 0.56794 0.0
C461 C 0.15127 0.72272 0.55245 0.0
H462 H 0.12892 0.7016 0.54411 0.0
H463 H 0.14298 0.70212 0.60315 0.0
C464 C 0.08279 0.65503 0.64379 0.0
N465 N 0.09489 0.66786 0.63421 0.0
C466 C 0.08145 0.6554 0.66421 0.0
C467 C 0.10483 0.6823 0.66439 0.0
C468 C 0.10576 0.68137 0.64401 0.0
C469 C 0.09268 0.66912 0.67478 0.0
H470 H 0.07437 0.6444 0.6356 0.0
H471 H 0.11539 0.69131 0.63602 0.0
C472 C 0.11225 0.6644 0.54173 0.0
N473 N 0.12852 0.66216 0.50933 0.0
C474 C 0.10405 0.65814 0.52399 0.0
C475 C 0.12878 0.66975 0.54285 0.0
C476 C 0.11247 0.65703 0.50781 0.0
C477 C 0.13677 0.66846 0.52636 0.0
C478 C 0.06578 0.63586 0.58921 0.0
C479 C 0.06167 0.62289 0.57647 0.0
C480 C 0.05361 0.63801 0.59752 0.0
C481 C 0.0454 0.61239 0.57201 0.0
C482 C 0.03749 0.62727 0.59267 0.0
N483 N 0.03375 0.61479 0.58011 0.0
C484 C 0.10494 0.62521 0.59284 0.0
C485 C 0.10405 0.62626 0.55806 0.0
C486 C 0.1062 0.61131 0.59193 0.0
N487 N 0.10397 0.63241 0.57607 0.0
C488 C 0.10535 0.61237 0.55645 0.0
C489 C 0.10646 0.6047 0.57355 0.0
H490 H 0.10467 0.6303 0.60696 0.0
H491 H 0.10299 0.63201 0.54493 0.0
C492 C 0.06272 0.67257 0.56354 0.0
N493 N 0.06888 0.66273 0.55985 0.0
C494 C 0.0495 0.67087 0.55278 0.0
C495 C 0.04954 0.6492 0.53442 0.0
C496 C 0.06268 0.65128 0.54555 0.0
C497 C 0.04276 0.65904 0.53801 0.0
H498 H 0.06803 0.68172 0.57482 0.0
H499 H 0.06781 0.64361 0.54302 0.0
O500 O 0.11746 0.66662 0.59965 0.0
O501 O 0.09859 0.68442 0.58987 0.0
O502 O 0.10414 0.66554 0.55769 0.0
O503 O 0.08165 0.64645 0.59345 0.0
H504 H 0.13304 0.67941 0.63298 0.0
H505 H 0.13467 0.65693 0.5788 0.0
H506 H 0.15937 0.68218 0.6423 0.0
H507 H 0.161 0.66024 0.58898 0.0
H508 H 0.0691 0.69427 0.63449 0.0
H509 H 0.12081 0.71438 0.59921 0.0
H510 H 0.072 0.67647 0.61025 0.0
H511 H 0.11709 0.73149 0.62369 0.0
H512 H 0.16742 0.72841 0.59853 0.0
H513 H 0.153 0.72839 0.53817 0.0
H514 H 0.07182 0.64503 0.67167 0.0
H515 H 0.11387 0.693 0.67197 0.0
H516 H 0.09132 0.65412 0.52271 0.0
H517 H 0.13544 0.67507 0.55621 0.0
H518 H 0.10624 0.65212 0.49404 0.0
H519 H 0.14956 0.67254 0.52707 0.0
H520 H 0.07093 0.62105 0.5699 0.0
H521 H 0.05657 0.64791 0.60753 0.0
H522 H 0.04204 0.60236 0.56206 0.0
H523 H 0.02794 0.62885 0.59889 0.0
H524 H 0.10668 0.60565 0.60552 0.0
H525 H 0.1056 0.60777 0.54197 0.0
H526 H 0.04468 0.67877 0.55588 0.0
H527 H 0.04453 0.63973 0.52341 0.0
Li528 Li 0.88641 0.54375 0.41559 0.0
Li529 Li 0.90027 0.57239 0.422 0.0
Li530 Li 0.87103 0.55806 0.41758 0.0
Li531 Li 0.8892 0.56353 0.39019 0.0
C532 C 0.87311 0.5438 0.45191 0.0
N533 N 0.8515 0.52185 0.47867 0.0
C534 C 0.87507 0.5473 0.47203 0.0
C535 C 0.86011 0.52916 0.4454 0.0
C536 C 0.86403 0.53603 0.48532 0.0
C537 C 0.84933 0.51822 0.45916 0.0
C538 C 0.92234 0.56788 0.40658 0.0
C539 C 0.94973 0.58894 0.40028 0.0
N540 N 0.95489 0.58347 0.41555 0.0
C541 C 0.92791 0.56237 0.42209 0.0
C542 C 0.93332 0.58119 0.39548 0.0
C543 C 0.94442 0.57045 0.42644 0.0
C544 C 0.88214 0.51388 0.40427 0.0
N545 N 0.88597 0.52395 0.41995 0.0
C546 C 0.88831 0.505 0.44066 0.0
C547 C 0.88925 0.51995 0.43787 0.0
C548 C 0.88404 0.49418 0.42479 0.0
C549 C 0.88107 0.49886 0.40637 0.0
H550 H 0.87994 0.51757 0.39012 0.0
H551 H 0.89248 0.52829 0.45004 0.0
C552 C 0.92669 0.60394 0.4306 0.0
N553 N 0.91729 0.58856 0.43723 0.0
C554 C 0.93949 0.61528 0.44204 0.0
C555 C 0.93238 0.59482 0.46707 0.0
C556 C 0.91981 0.58388 0.45511 0.0
C557 C 0.94248 0.61072 0.4605 0.0
H558 H 0.92444 0.60737 0.41636 0.0
H559 H 0.91224 0.57151 0.45989 0.0
C560 C 0.85798 0.53871 0.38302 0.0
N561 N 0.83495 0.53116 0.35409 0.0
C562 C 0.85243 0.5494 0.37866 0.0
C563 C 0.85178 0.52416 0.37269 0.0
C564 C 0.8408 0.54537 0.36399 0.0
C565 C 0.84015 0.52056 0.35811 0.0
C566 C 0.88879 0.5917 0.39538 0.0
C567 C 0.87617 0.59507 0.39386 0.0
C568 C 0.90304 0.60098 0.38476 0.0
C569 C 0.878 0.60762 0.38161 0.0
C570 C 0.90439 0.61343 0.37267 0.0
N571 N 0.89195 0.61646 0.37136 0.0
C572 C 0.85314 0.56858 0.43887 0.0
C573 C 0.83715 0.54298 0.42382 0.0
C574 C 0.83942 0.56791 0.447 0.0
N575 N 0.85173 0.55632 0.42736 0.0
C576 C 0.8231 0.54187 0.43147 0.0
C577 C 0.82409 0.55449 0.44315 0.0
H578 H 0.86498 0.57886 0.44175 0.0
H579 H 0.83641 0.53321 0.41503 0.0
C580 C 0.90116 0.56134 0.35386 0.0
N581 N 0.89207 0.56694 0.36245 0.0
C582 C 0.90322 0.56212 0.33351 0.0
C583 C 0.88676 0.57472 0.33113 0.0
C584 C 0.8848 0.57346 0.35152 0.0
C585 C 0.89593 0.56884 0.32191 0.0
H586 H 0.90659 0.55597 0.36284 0.0
H587 H 0.87727 0.57746 0.35852 0.0
O588 O 0.88375 0.55485 0.43875 0.0
O589 O 0.90617 0.56048 0.40256 0.0
O590 O 0.86952 0.5425 0.39719 0.0
O591 O 0.88719 0.57947 0.40736 0.0
H592 H 0.88499 0.55862 0.47731 0.0
H593 H 0.85831 0.52625 0.42991 0.0
H594 H 0.86541 0.53858 0.50093 0.0
H595 H 0.83923 0.50685 0.45432 0.0
H596 H 0.95836 0.59931 0.3919 0.0
H597 H 0.91954 0.55212 0.43087 0.0
H598 H 0.92919 0.58553 0.38335 0.0
H599 H 0.94889 0.56642 0.43852 0.0
H600 H 0.89065 0.50187 0.45512 0.0
H601 H 0.87812 0.49108 0.39362 0.0
H602 H 0.947 0.62744 0.43649 0.0
H603 H 0.93448 0.59072 0.48104 0.0
H604 H 0.85709 0.5607 0.38649 0.0
H605 H 0.85589 0.5157 0.37589 0.0
H606 H 0.83644 0.55357 0.36045 0.0
H607 H 0.83526 0.50934 0.34999 0.0
H608 H 0.86508 0.58805 0.40203 0.0
H609 H 0.9128 0.59838 0.38548 0.0
H610 H 0.86832 0.61033 0.38026 0.0
H611 H 0.91531 0.62062 0.36424 0.0
H612 H 0.84082 0.57778 0.45619 0.0
H613 H 0.81157 0.53138 0.42787 0.0
H614 H 0.91039 0.55747 0.32689 0.0
H615 H 0.88075 0.57976 0.3226 0.0
Li616 Li 0.3245 0.90399 0.92373 0.0
Li617 Li 0.34065 0.89113 0.91776 0.0
Li618 Li 0.32399 0.89295 0.89165 0.0
Li619 Li 0.31168 0.87575 0.92013 0.0
C620 C 0.35691 0.92403 0.91068 0.0
N621 N 0.38575 0.95041 0.92246 0.0
C622 C 0.36099 0.92654 0.93064 0.0
C623 C 0.36752 0.93488 0.89672 0.0
C624 C 0.37562 0.93996 0.93629 0.0
C625 C 0.38203 0.94816 0.90297 0.0
C626 C 0.32333 0.87763 0.95539 0.0
C627 C 0.32171 0.85304 0.96716 0.0
N628 N 0.31425 0.85394 0.98377 0.0
C629 C 0.31571 0.87835 0.9726 0.0
C630 C 0.3264 0.86491 0.95265 0.0
C631 C 0.3112 0.86624 0.98676 0.0
C632 C 0.31241 0.91625 0.95224 0.0
N633 N 0.32295 0.92062 0.93698 0.0
C634 C 0.33103 0.94841 0.94151 0.0
C635 C 0.33181 0.93626 0.93108 0.0
C636 C 0.32083 0.94438 0.95799 0.0
C637 C 0.31115 0.92799 0.96303 0.0
H638 H 0.30505 0.90363 0.95607 0.0
H639 H 0.33966 0.93937 0.91844 0.0
C640 C 0.36963 0.89351 0.906 0.0
N641 N 0.36078 0.89233 0.92218 0.0
C642 C 0.38483 0.89495 0.90802 0.0
C643 C 0.38145 0.89385 0.94336 0.0
C644 C 0.3664 0.89265 0.94065 0.0
C645 C 0.39087 0.89506 0.92689 0.0
H646 H 0.36487 0.89339 0.89152 0.0
H647 H 0.35925 0.89208 0.95327 0.0
C648 C 0.29858 0.89972 0.90454 0.0
N649 N 0.2854 0.91951 0.90005 0.0
C650 C 0.28369 0.89549 0.91314 0.0
C651 C 0.30675 0.914 0.89363 0.0
C652 C 0.27723 0.90566 0.9107 0.0
C653 C 0.29989 0.92384 0.89154 0.0
C654 C 0.31718 0.86137 0.88691 0.0
C655 C 0.30159 0.85748 0.88115 0.0
C656 C 0.32409 0.85265 0.87922 0.0
C657 C 0.29315 0.84487 0.86781 0.0
C658 C 0.31524 0.84011 0.86592 0.0
N659 N 0.30009 0.83652 0.86054 0.0
C660 C 0.33691 0.90006 0.85379 0.0
C661 C 0.30907 0.89198 0.85511 0.0
C662 C 0.33701 0.90176 0.8334 0.0
N663 N 0.32309 0.89527 0.86413 0.0
C664 C 0.30864 0.89364 0.83475 0.0
C665 C 0.32274 0.89856 0.82358 0.0
H666 H 0.34782 0.90242 0.86142 0.0
H667 H 0.29822 0.88804 0.86372 0.0
C668 C 0.28278 0.85796 0.9405 0.0
N669 N 0.29384 0.85633 0.92971 0.0
C670 C 0.26905 0.84434 0.94766 0.0
C671 C 0.27871 0.82763 0.93315 0.0
C672 C 0.2923 0.84159 0.92636 0.0
C673 C 0.26672 0.82889 0.94368 0.0
H674 H 0.28466 0.86989 0.94351 0.0
H675 H 0.30151 0.84064 0.91826 0.0
O676 O 0.34279 0.91084 0.90469 0.0
O677 O 0.32746 0.88911 0.94108 0.0
O678 O 0.30535 0.89018 0.9072 0.0
O679 O 0.32582 0.87376 0.89981 0.0
H680 H 0.35298 0.91824 0.94166 0.0
H681 H 0.36456 0.93303 0.88121 0.0
H682 H 0.37892 0.94207 0.95168 0.0
H683 H 0.39036 0.95667 0.89233 0.0
H684 H 0.32392 0.84308 0.96518 0.0
H685 H 0.31329 0.88812 0.97501 0.0
H686 H 0.33213 0.86408 0.93931 0.0
H687 H 0.30526 0.86661 0.00013 0.0
H688 H 0.33883 0.96086 0.93712 0.0
H689 H 0.30286 0.9243 0.97535 0.0
H690 H 0.39169 0.89574 0.89497 0.0
H691 H 0.3858 0.89408 0.95814 0.0
H692 H 0.27718 0.88448 0.9216 0.0
H693 H 0.3184 0.91757 0.88711 0.0
H694 H 0.26573 0.90255 0.91729 0.0
H695 H 0.30612 0.93497 0.88323 0.0
H696 H 0.29602 0.86406 0.88693 0.0
H697 H 0.33617 0.85556 0.8835 0.0
H698 H 0.28107 0.84172 0.86325 0.0
H699 H 0.32044 0.83326 0.85987 0.0
H700 H 0.34808 0.90527 0.82541 0.0
H701 H 0.29742 0.8912 0.82789 0.0
H702 H 0.26031 0.8459 0.95609 0.0
H703 H 0.27739 0.81597 0.92964 0.0
Li704 Li 0.44355 0.34448 0.42054 0.0
Li705 Li 0.41466 0.3306 0.42442 0.0
Li706 Li 0.42965 0.31609 0.42173 0.0
Li707 Li 0.4268 0.32901 0.39255 0.0
C708 C 0.43847 0.339 0.45939 0.0
N709 N 0.45439 0.35602 0.49279 0.0
C710 C 0.43136 0.34547 0.47161 0.0
C711 C 0.4536 0.34105 0.46426 0.0
C712 C 0.43962 0.35407 0.48841 0.0
C713 C 0.46148 0.34973 0.48117 0.0
C714 C 0.43312 0.36428 0.40884 0.0
C715 C 0.44849 0.39214 0.39848 0.0
N716 N 0.44519 0.39684 0.41593 0.0
C717 C 0.42994 0.36942 0.42668 0.0
C718 C 0.44248 0.37574 0.39461 0.0
C719 C 0.4361 0.38591 0.42997 0.0
C720 C 0.47532 0.36736 0.4121 0.0
N721 N 0.46351 0.36409 0.42549 0.0
C722 C 0.48008 0.38962 0.44121 0.0
C723 C 0.46563 0.37485 0.43994 0.0
C724 C 0.49231 0.39341 0.42728 0.0
C725 C 0.48986 0.38197 0.41273 0.0
H726 H 0.47328 0.35876 0.40055 0.0
H727 H 0.45599 0.37226 0.45015 0.0
C728 C 0.3887 0.31851 0.45042 0.0
N729 N 0.3961 0.32944 0.43577 0.0
C730 C 0.37524 0.31742 0.4599 0.0
C731 C 0.37704 0.3385 0.43853 0.0
C732 C 0.39031 0.33901 0.4293 0.0
C733 C 0.36947 0.3278 0.45432 0.0
H734 H 0.39343 0.31082 0.45491 0.0
H735 H 0.39623 0.34732 0.41727 0.0
C736 C 0.45386 0.32107 0.40019 0.0
N737 N 0.46777 0.3019 0.39629 0.0
C738 C 0.44851 0.30925 0.38552 0.0
C739 C 0.46638 0.32327 0.41275 0.0
C740 C 0.45568 0.29965 0.38382 0.0
C741 C 0.47323 0.31342 0.41058 0.0
C742 C 0.39441 0.30545 0.39985 0.0
C743 C 0.38268 0.28915 0.40175 0.0
C744 C 0.39067 0.31597 0.38988 0.0
C745 C 0.36739 0.28359 0.39351 0.0
C746 C 0.37524 0.30995 0.38186 0.0
N747 N 0.36402 0.29402 0.38382 0.0
C748 C 0.43747 0.29669 0.44625 0.0
C749 C 0.42096 0.28383 0.41846 0.0
C750 C 0.43714 0.2824 0.45158 0.0
N751 N 0.42952 0.29711 0.42989 0.0
C752 C 0.42025 0.26932 0.42326 0.0
C753 C 0.42841 0.26848 0.44 0.0
H754 H 0.44409 0.30741 0.45512 0.0
H755 H 0.41483 0.2846 0.40547 0.0
C756 C 0.43578 0.34111 0.35446 0.0
N757 N 0.42515 0.32776 0.36466 0.0
C758 C 0.43572 0.341 0.33395 0.0
C759 C 0.41397 0.31323 0.33476 0.0
C760 C 0.41448 0.31388 0.35529 0.0
C761 C 0.42472 0.32692 0.32382 0.0
H762 H 0.44451 0.35176 0.36229 0.0
H763 H 0.40655 0.30321 0.36369 0.0
O764 O 0.43047 0.33039 0.44302 0.0
O765 O 0.4274 0.34816 0.40552 0.0
O766 O 0.44664 0.33022 0.40251 0.0
O767 O 0.40935 0.31107 0.40809 0.0
H768 H 0.4196 0.34389 0.46817 0.0
H769 H 0.45933 0.33621 0.45491 0.0
H770 H 0.43429 0.35919 0.49796 0.0
H771 H 0.47325 0.35152 0.48503 0.0
H772 H 0.45578 0.40113 0.38762 0.0
H773 H 0.42304 0.36081 0.43805 0.0
H774 H 0.44516 0.37208 0.38076 0.0
H775 H 0.43378 0.39003 0.44376 0.0
H776 H 0.48141 0.39821 0.45249 0.0
H777 H 0.49905 0.38437 0.40181 0.0
H778 H 0.36962 0.30874 0.47167 0.0
H779 H 0.37321 0.34689 0.43381 0.0
H780 H 0.43878 0.30736 0.37574 0.0
H781 H 0.47067 0.3324 0.42414 0.0
H782 H 0.45159 0.29037 0.37263 0.0
H783 H 0.48286 0.3149 0.42027 0.0
H784 H 0.38536 0.28088 0.40954 0.0
H785 H 0.39956 0.32864 0.38832 0.0
H786 H 0.3582 0.271 0.39485 0.0
H787 H 0.37219 0.31795 0.37409 0.0
H788 H 0.44351 0.28222 0.46467 0.0
H789 H 0.41363 0.25896 0.41372 0.0
H790 H 0.4442 0.35185 0.32613 0.0
H791 H 0.40554 0.30202 0.32755 0.0
Li792 Li 0.08702 0.41943 0.92188 0.0
Li793 Li 0.10104 0.44833 0.915 0.0
Li794 Li 0.09712 0.42768 0.88918 0.0
Li795 Li 0.11644 0.43388 0.91591 0.0
C796 C 0.06486 0.42508 0.90779 0.0
N797 N 0.03295 0.41237 0.91889 0.0
C798 C 0.06057 0.43328 0.92136 0.0
C799 C 0.0529 0.41051 0.89971 0.0
C800 C 0.04437 0.42664 0.92682 0.0
C801 C 0.03684 0.40425 0.90556 0.0
C802 C 0.11318 0.44762 0.95264 0.0
C803 C 0.13758 0.47095 0.96426 0.0
N804 N 0.13095 0.46877 0.9825 0.0
C805 C 0.10668 0.44552 0.97156 0.0
C806 C 0.1288 0.46036 0.94902 0.0
C807 C 0.11583 0.45637 0.98643 0.0
C808 C 0.06361 0.38737 0.93349 0.0
N809 N 0.0703 0.4034 0.93751 0.0
C810 C 0.05303 0.39774 0.96528 0.0
C811 C 0.06531 0.40872 0.95304 0.0
C812 C 0.04576 0.38112 0.96139 0.0
C813 C 0.05113 0.37593 0.94524 0.0
H814 H 0.06791 0.38345 0.92117 0.0
H815 H 0.07074 0.42155 0.95572 0.0
C816 C 0.10159 0.47605 0.9019 0.0
N817 N 0.10141 0.46824 0.91868 0.0
C818 C 0.10144 0.49056 0.90283 0.0
C819 C 0.10098 0.48877 0.93832 0.0
C820 C 0.101 0.4742 0.9367 0.0
C821 C 0.10111 0.49708 0.92122 0.0
H822 H 0.1018 0.47094 0.88778 0.0
H823 H 0.10042 0.46759 0.94982 0.0
C824 C 0.09783 0.40032 0.89367 0.0
N825 N 0.09419 0.37659 0.86747 0.0
C826 C 0.11069 0.39762 0.89004 0.0
C827 C 0.08305 0.39079 0.88415 0.0
C828 C 0.10863 0.3856 0.8767 0.0
C829 C 0.08147 0.3789 0.8709 0.0
C830 C 0.13123 0.461 0.88893 0.0
C831 C 0.13865 0.45883 0.87241 0.0
C832 C 0.13853 0.47608 0.89828 0.0
C833 C 0.15345 0.47154 0.86592 0.0
C834 C 0.15332 0.4885 0.89133 0.0
N835 N 0.16043 0.48599 0.87544 0.0
C836 C 0.08089 0.42324 0.85304 0.0
C837 C 0.10405 0.42029 0.85128 0.0
C838 C 0.07844 0.42075 0.8328 0.0
N839 N 0.09359 0.42309 0.86179 0.0
C840 C 0.10211 0.41781 0.83101 0.0
C841 C 0.08927 0.4182 0.82143 0.0
H842 H 0.07278 0.42553 0.86175 0.0
H843 H 0.11403 0.42018 0.85861 0.0
C844 C 0.1394 0.43293 0.94157 0.0
N845 N 0.13614 0.43474 0.92255 0.0
C846 C 0.15335 0.43239 0.94624 0.0
C847 C 0.15997 0.43497 0.9116 0.0
C848 C 0.14608 0.43576 0.90766 0.0
C849 C 0.16366 0.43319 0.93108 0.0
H850 H 0.13099 0.4315 0.95308 0.0
H851 H 0.14287 0.43651 0.89263 0.0
O852 O 0.08071 0.4312 0.90266 0.0
O853 O 0.10429 0.43718 0.93787 0.0
O854 O 0.09969 0.41217 0.90652 0.0
O855 O 0.11656 0.44872 0.8953 0.0
H856 H 0.06966 0.44454 0.92782 0.0
H857 H 0.05598 0.40405 0.88911 0.0
H858 H 0.0409 0.4328 0.9374 0.0
H859 H 0.02748 0.39293 0.89952 0.0
H860 H 0.14969 0.48084 0.96162 0.0
H861 H 0.0947 0.43563 0.97477 0.0
H862 H 0.13422 0.46186 0.9347 0.0
H863 H 0.11091 0.45492 0.00111 0.0
H864 H 0.049 0.40223 0.97737 0.0
H865 H 0.04581 0.36319 0.94183 0.0
H866 H 0.10168 0.49666 0.8893 0.0
H867 H 0.10048 0.49328 0.95277 0.0
H868 H 0.12214 0.40469 0.89746 0.0
H869 H 0.07298 0.39271 0.88675 0.0
H870 H 0.11851 0.38344 0.87371 0.0
H871 H 0.07014 0.37155 0.86331 0.0
H872 H 0.13313 0.44741 0.86475 0.0
H873 H 0.13284 0.47827 0.9107 0.0
H874 H 0.15937 0.46993 0.85327 0.0
H875 H 0.15911 0.50018 0.89852 0.0
H876 H 0.06823 0.42091 0.82612 0.0
H877 H 0.11089 0.41611 0.82288 0.0
H878 H 0.15574 0.43076 0.9614 0.0
H879 H 0.16765 0.43555 0.89954 0.0
Li880 Li 0.6524 0.10736 0.41652 0.0
Li881 Li 0.66561 0.09052 0.42174 0.0
Li882 Li 0.68142 0.11943 0.42046 0.0
Li883 Li 0.67021 0.10438 0.39089 0.0
C884 C 0.67108 0.11334 0.45692 0.0
N885 N 0.68671 0.12916 0.49101 0.0
C886 C 0.68055 0.10844 0.46725 0.0
C887 C 0.66948 0.12621 0.46396 0.0
C888 C 0.68837 0.11661 0.48445 0.0
C889 C 0.6775 0.13407 0.48122 0.0
C890 C 0.63768 0.07176 0.40282 0.0
C891 C 0.62916 0.04379 0.39633 0.0
N892 N 0.61501 0.03928 0.40585 0.0
C893 C 0.623 0.06686 0.41239 0.0
C894 C 0.64075 0.06015 0.39456 0.0
C895 C 0.61171 0.05038 0.41381 0.0
C896 C 0.62712 0.11165 0.4039 0.0
N897 N 0.63387 0.10928 0.4202 0.0
C898 C 0.61374 0.1096 0.44071 0.0
C899 C 0.6275 0.10817 0.43839 0.0
C900 C 0.60651 0.11217 0.42412 0.0
C901 C 0.61337 0.11313 0.40551 0.0
H902 H 0.63243 0.11234 0.38962 0.0
H903 H 0.63311 0.10616 0.45108 0.0
C904 C 0.67411 0.0671 0.43286 0.0
N905 N 0.66271 0.07161 0.43429 0.0
C906 C 0.67152 0.05277 0.44164 0.0
C907 C 0.64565 0.04823 0.45333 0.0
C908 C 0.64889 0.06277 0.44471 0.0
C909 C 0.65699 0.04306 0.45169 0.0
H910 H 0.68517 0.07459 0.42488 0.0
H911 H 0.6403 0.06694 0.44612 0.0
C912 C 0.67754 0.13994 0.39529 0.0
N913 N 0.69374 0.1726 0.3868 0.0
C914 C 0.69309 0.14728 0.38731 0.0
C915 C 0.67019 0.14918 0.3989 0.0
C916 C 0.7011 0.16381 0.38315 0.0
C917 C 0.67858 0.16568 0.3945 0.0
C918 C 0.6967 0.10284 0.39512 0.0
C919 C 0.71161 0.11651 0.39095 0.0
C920 C 0.69222 0.0883 0.3854 0.0
C921 C 0.72176 0.11542 0.37698 0.0
C922 C 0.70268 0.08772 0.3715 0.0
N923 N 0.71711 0.10118 0.36761 0.0
C924 C 0.71213 0.13516 0.43769 0.0
C925 C 0.70037 0.15181 0.43522 0.0
C926 C 0.72631 0.14795 0.44538 0.0
N927 N 0.69974 0.13744 0.4322 0.0
C928 C 0.71442 0.16501 0.44253 0.0
C929 C 0.72781 0.1633 0.44731 0.0
H930 H 0.71107 0.12343 0.43583 0.0
H931 H 0.69009 0.15314 0.43165 0.0
C932 C 0.65819 0.09116 0.35388 0.0
N933 N 0.67174 0.10267 0.36304 0.0
C934 C 0.65781 0.08954 0.33348 0.0
C935 C 0.68543 0.11153 0.33217 0.0
C936 C 0.68524 0.11281 0.35263 0.0
C937 C 0.67151 0.09989 0.32234 0.0
H938 H 0.64753 0.0834 0.36238 0.0
H939 H 0.69579 0.12205 0.36009 0.0
O940 O 0.66368 0.10577 0.4398 0.0
O941 O 0.649 0.08783 0.40155 0.0
O942 O 0.6695 0.1238 0.39959 0.0
O943 O 0.68655 0.10365 0.40871 0.0
H944 H 0.68196 0.09854 0.46191 0.0
H945 H 0.6623 0.13023 0.45601 0.0
H946 H 0.69581 0.11302 0.49255 0.0
H947 H 0.67646 0.14413 0.48678 0.0
H948 H 0.63142 0.03468 0.39014 0.0
H949 H 0.62041 0.07568 0.41883 0.0
H950 H 0.65199 0.06374 0.38698 0.0
H951 H 0.60034 0.04641 0.42129 0.0
H952 H 0.60893 0.1089 0.45533 0.0
H953 H 0.60805 0.1148 0.39229 0.0
H954 H 0.68055 0.04915 0.44026 0.0
H955 H 0.63444 0.04115 0.46132 0.0
H956 H 0.69905 0.14036 0.38476 0.0
H957 H 0.65816 0.14368 0.40513 0.0
H958 H 0.71319 0.16968 0.37711 0.0
H959 H 0.67306 0.173 0.39725 0.0
H960 H 0.71527 0.12789 0.39822 0.0
H961 H 0.68075 0.0776 0.38847 0.0
H962 H 0.7333 0.12593 0.37354 0.0
H963 H 0.69933 0.07656 0.3638 0.0
H964 H 0.73607 0.14587 0.44944 0.0
H965 H 0.71491 0.17655 0.44368 0.0
H966 H 0.64686 0.08033 0.32648 0.0
H967 H 0.69618 0.11988 0.32408 0.0
Li968 Li 0.57936 0.67172 0.9192 0.0
Li969 Li 0.54987 0.65414 0.9156 0.0
Li970 Li 0.56733 0.67225 0.88919 0.0
Li971 Li 0.56298 0.6841 0.91958 0.0
C972 C 0.5686 0.64522 0.88518 0.0
N973 N 0.57059 0.62929 0.85228 0.0
C974 C 0.55615 0.62961 0.8808 0.0
C975 C 0.58218 0.65263 0.87296 0.0
C976 C 0.55735 0.62177 0.86408 0.0
C977 C 0.58292 0.64442 0.85635 0.0
C978 C 0.55128 0.66526 0.95363 0.0
C979 C 0.52614 0.66273 0.96478 0.0
N980 N 0.52918 0.65942 0.98323 0.0
C981 C 0.55415 0.66183 0.9727 0.0
C982 C 0.53716 0.66571 0.94963 0.0
C983 C 0.54283 0.65891 0.98746 0.0
C984 C 0.5995 0.67441 0.95082 0.0
N985 N 0.59771 0.67243 0.93102 0.0
C986 C 0.62051 0.66861 0.92891 0.0
C987 C 0.60809 0.66992 0.91996 0.0
C988 C 0.62204 0.66953 0.94951 0.0
C989 C 0.6116 0.67294 0.96044 0.0
H990 H 0.59113 0.67653 0.95921 0.0
H991 H 0.60651 0.66853 0.90424 0.0
C992 C 0.52069 0.62818 0.90392 0.0
N993 N 0.5306 0.63413 0.91978 0.0
C994 C 0.50576 0.61407 0.9055 0.0
C995 C 0.51156 0.61224 0.93972 0.0
C996 C 0.5265 0.62637 0.93741 0.0
C997 C 0.50087 0.60602 0.92367 0.0
H998 H 0.52439 0.63451 0.89002 0.0
H999 H 0.53469 0.63124 0.94975 0.0
C1000 C 0.59899 0.70115 0.90943 0.0
N1001 N 0.63093 0.7201 0.92059 0.0
C1002 C 0.60288 0.70986 0.92703 0.0
C1003 C 0.61134 0.70211 0.89746 0.0
C1004 C 0.6191 0.71937 0.93242 0.0
C1005 C 0.62741 0.71175 0.90337 0.0
C1006 C 0.53553 0.67172 0.89046 0.0
C1007 C 0.53984 0.68222 0.87439 0.0
C1008 C 0.51941 0.66331 0.89665 0.0
C1009 C 0.52798 0.68417 0.86483 0.0
C1010 C 0.5079 0.66558 0.88669 0.0
N1011 N 0.51239 0.67587 0.87112 0.0
C1012 C 0.55549 0.66145 0.85139 0.0
C1013 C 0.58072 0.68587 0.85167 0.0
C1014 C 0.55521 0.66143 0.8309 0.0
N1015 N 0.56815 0.6735 0.86129 0.0
C1016 C 0.58098 0.68629 0.83113 0.0
C1017 C 0.5681 0.67395 0.82051 0.0
H1018 H 0.54562 0.65182 0.85949 0.0
H1019 H 0.59047 0.69544 0.85994 0.0
C1020 C 0.56253 0.70534 0.94899 0.0
N1021 N 0.55983 0.70092 0.9297 0.0
C1022 C 0.55959 0.71738 0.95611 0.0
C1023 C 0.55141 0.72014 0.92335 0.0
C1024 C 0.55473 0.7083 0.91686 0.0
C1025 C 0.55372 0.72471 0.94321 0.0
H1026 H 0.56693 0.69952 0.95886 0.0
H1027 H 0.55334 0.70509 0.90152 0.0
O1028 O 0.56753 0.65314 0.90141 0.0
O1029 O 0.56222 0.66799 0.93901 0.0
O1030 O 0.58315 0.69149 0.90416 0.0
O1031 O 0.54693 0.66941 0.89982 0.0
H1032 H 0.54569 0.62355 0.89026 0.0
H1033 H 0.59184 0.66479 0.87592 0.0
H1034 H 0.54777 0.60971 0.86049 0.0
H1035 H 0.59325 0.65012 0.84663 0.0
H1036 H 0.51518 0.66307 0.96187 0.0
H1037 H 0.56496 0.66133 0.97607 0.0
H1038 H 0.53477 0.66844 0.93505 0.0
H1039 H 0.5449 0.65622 0.00228 0.0
H1040 H 0.62848 0.66635 0.91982 0.0
H1041 H 0.61215 0.67359 0.97634 0.0
H1042 H 0.49815 0.60954 0.89259 0.0
H1043 H 0.5083 0.60649 0.95402 0.0
H1044 H 0.59347 0.70916 0.93653 0.0
H1045 H 0.60856 0.69528 0.88393 0.0
H1046 H 0.62228 0.72612 0.94605 0.0
H1047 H 0.63709 0.71253 0.89432 0.0
H1048 H 0.55227 0.68903 0.86953 0.0
H1049 H 0.51577 0.65509 0.909 0.0
H1050 H 0.53118 0.69231 0.85244 0.0
H1051 H 0.4954 0.65914 0.89134 0.0
H1052 H 0.54513 0.6516 0.82328 0.0
H1053 H 0.59103 0.69627 0.82366 0.0
H1054 H 0.56167 0.72075 0.97149 0.0
H1055 H 0.54734 0.72587 0.91285 0.0
Li1056 Li 0.57092 0.90277 0.92364 0.0
Li1057 Li 0.55471 0.87361 0.92267 0.0
Li1058 Li 0.5597 0.89042 0.89253 0.0
Li1059 Li 0.54079 0.88941 0.9184 0.0
C1060 C 0.59128 0.89325 0.91254 0.0
N1061 N 0.62357 0.90534 0.92123 0.0
C1062 C 0.59589 0.88509 0.92576 0.0
C1063 C 0.60308 0.90746 0.90358 0.0
C1064 C 0.61228 0.89142 0.92999 0.0
C1065 C 0.61934 0.91341 0.90823 0.0
C1066 C 0.54614 0.88255 0.95955 0.0
C1067 C 0.52272 0.86587 0.97951 0.0
N1068 N 0.5322 0.87066 0.99586 0.0
C1069 C 0.55561 0.88748 0.97659 0.0
C1070 C 0.52953 0.87181 0.96105 0.0
C1071 C 0.54835 0.88127 0.99479 0.0
C1072 C 0.59307 0.93552 0.93141 0.0
N1073 N 0.58864 0.92013 0.93664 0.0
C1074 C 0.60864 0.92962 0.962 0.0
C1075 C 0.5962 0.91696 0.95148 0.0
C1076 C 0.61326 0.94566 0.95722 0.0
C1077 C 0.60545 0.94853 0.94151 0.0
H1078 H 0.5867 0.93768 0.91976 0.0
H1079 H 0.59237 0.90459 0.95535 0.0
C1080 C 0.54892 0.84214 0.91873 0.0
N1081 N 0.55251 0.85394 0.93225 0.0
C1082 C 0.54698 0.82729 0.92449 0.0
C1083 C 0.55338 0.83724 0.95788 0.0
C1084 C 0.55498 0.85187 0.95149 0.0
C1085 C 0.54916 0.82469 0.9443 0.0
H1086 H 0.54759 0.8443 0.90341 0.0
H1087 H 0.5584 0.86161 0.96184 0.0
C1088 C 0.55954 0.91807 0.88949 0.0
N1089 N 0.56101 0.93612 0.85698 0.0
C1090 C 0.54562 0.91788 0.88276 0.0
C1091 C 0.57424 0.92755 0.87979 0.0
C1092 C 0.54661 0.92708 0.86628 0.0
C1093 C 0.57472 0.93655 0.86334 0.0
C1094 C 0.52647 0.85681 0.8971 0.0
C1095 C 0.52261 0.85224 0.87742 0.0
C1096 C 0.51741 0.8459 0.91198 0.0
C1097 C 0.50962 0.83694 0.87297 0.0
C1098 C 0.50455 0.8307 0.90694 0.0
N1099 N 0.50094 0.82658 0.8877 0.0
C1100 C 0.57663 0.89299 0.85716 0.0
C1101 C 0.5515 0.892 0.85312 0.0
C1102 C 0.57943 0.89488 0.8369 0.0
N1103 N 0.56292 0.89175 0.86482 0.0
C1104 C 0.55386 0.89398 0.83284 0.0
C1105 C 0.56802 0.89555 0.8245 0.0
H1106 H 0.58547 0.89266 0.86678 0.0
H1107 H 0.54061 0.89077 0.85959 0.0
C1108 C 0.52326 0.904 0.93193 0.0
N1109 N 0.52177 0.8905 0.92323 0.0
C1110 C 0.50961 0.9055 0.93508 0.0
C1111 C 0.49316 0.87901 0.92072 0.0
C1112 C 0.50712 0.87814 0.91757 0.0
C1113 C 0.49432 0.89286 0.92946 0.0
H1114 H 0.5351 0.91367 0.93618 0.0
H1115 H 0.50623 0.86765 0.91043 0.0
O1116 O 0.57528 0.88734 0.9084 0.0
O1117 O 0.55308 0.8886 0.94162 0.0
O1118 O 0.55876 0.90894 0.9054 0.0
O1119 O 0.53916 0.8718 0.90166 0.0
H1120 H 0.58692 0.87406 0.93278 0.0
H1121 H 0.59971 0.91391 0.89332 0.0
H1122 H 0.61603 0.88528 0.94027 0.0
H1123 H 0.62859 0.92446 0.90152 0.0
H1124 H 0.50988 0.8575 0.98084 0.0
H1125 H 0.56844 0.89596 0.97579 0.0
H1126 H 0.52192 0.86819 0.94816 0.0
H1127 H 0.55556 0.8849 0.00807 0.0
H1128 H 0.6144 0.92687 0.97392 0.0
H1129 H 0.60838 0.96069 0.93758 0.0
H1130 H 0.54413 0.81804 0.91349 0.0
H1131 H 0.55533 0.83572 0.97324 0.0
H1132 H 0.53413 0.91058 0.89003 0.0
H1133 H 0.58512 0.92782 0.88477 0.0
H1134 H 0.53592 0.92698 0.86085 0.0
H1135 H 0.58598 0.94384 0.8556 0.0
H1136 H 0.52954 0.86041 0.86568 0.0
H1137 H 0.52041 0.84901 0.92726 0.0
H1138 H 0.50647 0.83329 0.8578 0.0
H1139 H 0.49748 0.82215 0.91833 0.0
H1140 H 0.59054 0.89611 0.83106 0.0
H1141 H 0.54462 0.89416 0.82377 0.0
H1142 H 0.51096 0.91636 0.94189 0.0
H1143 H 0.48161 0.86912 0.9159 0.0
Li1144 Li 0.66616 0.5744 0.4225 0.0
Li1145 Li 0.67784 0.55698 0.42316 0.0
Li1146 Li 0.66734 0.56243 0.39192 0.0
Li1147 Li 0.64852 0.5443 0.41692 0.0
C1148 C 0.69694 0.59368 0.41087 0.0
N1149 N 0.71914 0.62611 0.41609 0.0
C1150 C 0.71026 0.59842 0.42324 0.0
C1151 C 0.69507 0.60545 0.40092 0.0
C1152 C 0.72131 0.61487 0.42574 0.0
C1153 C 0.70637 0.62177 0.40382 0.0
C1154 C 0.66129 0.55129 0.45962 0.0
C1155 C 0.65473 0.5302 0.4835 0.0
N1156 N 0.66192 0.54158 0.49778 0.0
C1157 C 0.66835 0.56275 0.47462 0.0
C1158 C 0.6542 0.53486 0.46416 0.0
C1159 C 0.66866 0.55762 0.49378 0.0
C1160 C 0.65468 0.59554 0.43073 0.0
N1161 N 0.66691 0.59261 0.43462 0.0
C1162 C 0.67839 0.61422 0.45792 0.0
C1163 C 0.67879 0.60175 0.4477 0.0
C1164 C 0.66562 0.61721 0.45464 0.0
C1165 C 0.65382 0.60788 0.44056 0.0
H1166 H 0.64526 0.58792 0.4205 0.0
H1167 H 0.6883 0.59905 0.45067 0.0
C1168 C 0.69992 0.54575 0.42386 0.0
N1169 N 0.69437 0.55405 0.43442 0.0
C1170 C 0.71272 0.54413 0.43091 0.0
C1171 C 0.71419 0.55997 0.45939 0.0
C1172 C 0.70117 0.56108 0.45191 0.0
C1173 C 0.72014 0.55147 0.44876 0.0
H1174 H 0.69472 0.54078 0.40966 0.0
H1175 H 0.69698 0.56815 0.45964 0.0
C1176 C 0.64086 0.56487 0.38743 0.0
N1177 N 0.62633 0.56922 0.35465 0.0
C1178 C 0.62689 0.55186 0.37955 0.0
C1179 C 0.64726 0.58016 0.37884 0.0
C1180 C 0.61976 0.55429 0.36292 0.0
C1181 C 0.6398 0.58209 0.36222 0.0
C1182 C 0.6615 0.52607 0.39994 0.0
C1183 C 0.65842 0.5187 0.38144 0.0
C1184 C 0.66135 0.5174 0.41656 0.0
C1185 C 0.65489 0.50267 0.37996 0.0
C1186 C 0.6578 0.5014 0.41449 0.0
N1187 N 0.65463 0.49442 0.39638 0.0
C1188 C 0.68245 0.57812 0.35587 0.0
C1189 C 0.65786 0.55322 0.35313 0.0
C1190 C 0.6835 0.5798 0.33541 0.0
N1191 N 0.66971 0.56501 0.36424 0.0
C1192 C 0.6584 0.55441 0.3327 0.0
C1193 C 0.67136 0.56782 0.32355 0.0
H1194 H 0.69179 0.58724 0.36506 0.0
H1195 H 0.64786 0.54295 0.36021 0.0
C1196 C 0.61909 0.52348 0.43701 0.0
N1197 N 0.62791 0.52556 0.42045 0.0
C1198 C 0.60385 0.5097 0.43921 0.0
C1199 C 0.60704 0.50067 0.40716 0.0
C1200 C 0.62214 0.51457 0.4056 0.0
C1201 C 0.59763 0.4981 0.4241 0.0
H1202 H 0.62385 0.53257 0.44844 0.0
H1203 H 0.62915 0.51673 0.39235 0.0
O1204 O 0.68594 0.57762 0.40834 0.0
O1205 O 0.66077 0.55614 0.44078 0.0
O1206 O 0.64819 0.56267 0.4035 0.0
O1207 O 0.66485 0.54174 0.40164 0.0
H1208 H 0.71207 0.58952 0.43083 0.0
H1209 H 0.68499 0.60202 0.3911 0.0
H1210 H 0.73163 0.6187 0.43536 0.0
H1211 H 0.70499 0.63099 0.3963 0.0
H1212 H 0.64934 0.51752 0.48717 0.0
H1213 H 0.67367 0.57549 0.47152 0.0
H1214 H 0.64814 0.52576 0.45298 0.0
H1215 H 0.67424 0.56639 0.50547 0.0
H1216 H 0.68776 0.62117 0.4686 0.0
H1217 H 0.64357 0.60954 0.43786 0.0
H1218 H 0.71726 0.53784 0.42203 0.0
H1219 H 0.71974 0.56596 0.4731 0.0
H1220 H 0.62164 0.53999 0.38609 0.0
H1221 H 0.65788 0.59042 0.38493 0.0
H1222 H 0.60901 0.54429 0.35659 0.0
H1223 H 0.64471 0.59384 0.35535 0.0
H1224 H 0.65871 0.52527 0.36835 0.0
H1225 H 0.66426 0.52305 0.43086 0.0
H1226 H 0.65239 0.49681 0.36575 0.0
H1227 H 0.65764 0.49457 0.42726 0.0
H1228 H 0.6938 0.59023 0.32896 0.0
H1229 H 0.64864 0.54501 0.32418 0.0
H1230 H 0.59691 0.5083 0.45239 0.0
H1231 H 0.60282 0.49201 0.39522 0.0
Li1232 Li 0.1172 0.67993 0.92057 0.0
Li1233 Li 0.08821 0.66637 0.92164 0.0
Li1234 Li 0.10293 0.65167 0.9167 0.0
Li1235 Li 0.10143 0.66792 0.89054 0.0
C1236 C 0.11125 0.66913 0.95742 0.0
N1237 N 0.12881 0.68071 0.99182 0.0
C1238 C 0.10516 0.67403 0.97301 0.0
C1239 C 0.12612 0.66979 0.95954 0.0
C1240 C 0.11425 0.67993 0.99023 0.0
C1241 C 0.13487 0.67578 0.97697 0.0
C1242 C 0.09395 0.69197 0.89769 0.0
C1243 C 0.07058 0.68787 0.87935 0.0
N1244 N 0.07626 0.70407 0.87975 0.0
C1245 C 0.09955 0.70857 0.89794 0.0
C1246 C 0.07933 0.68151 0.88834 0.0
C1247 C 0.09044 0.71446 0.88878 0.0
C1248 C 0.15071 0.70082 0.9252 0.0
N1249 N 0.13588 0.69808 0.93064 0.0
C1250 C 0.14762 0.72217 0.94998 0.0
C1251 C 0.13406 0.70833 0.94285 0.0
C1252 C 0.16314 0.7255 0.94435 0.0
C1253 C 0.16459 0.7145 0.93196 0.0
H1254 H 0.15175 0.69254 0.91528 0.0
H1255 H 0.12206 0.70579 0.94686 0.0
C1256 C 0.05497 0.65677 0.92782 0.0
N1257 N 0.0705 0.66731 0.93308 0.0
C1258 C 0.04221 0.65689 0.93757 0.0
C1259 C 0.06162 0.67966 0.95679 0.0
C1260 C 0.07402 0.67907 0.94664 0.0
C1261 C 0.04546 0.66816 0.95266 0.0
H1262 H 0.05238 0.64804 0.91632 0.0
H1263 H 0.0865 0.68781 0.94983 0.0
C1264 C 0.12792 0.65898 0.89357 0.0
N1265 N 0.14138 0.64071 0.88118 0.0
C1266 C 0.12399 0.6515 0.87512 0.0
C1267 C 0.13892 0.65736 0.90557 0.0
C1268 C 0.13087 0.64228 0.86916 0.0
C1269 C 0.14552 0.64801 0.8991 0.0
C1270 C 0.06997 0.63435 0.90851 0.0
C1271 C 0.06831 0.62956 0.92822 0.0
C1272 C 0.05797 0.62462 0.89498 0.0
C1273 C 0.05472 0.61513 0.93403 0.0
C1274 C 0.04456 0.61028 0.90139 0.0
N1275 N 0.04322 0.60587 0.92061 0.0
C1276 C 0.1067 0.62775 0.93809 0.0
C1277 C 0.09773 0.62165 0.90505 0.0
C1278 C 0.10624 0.61294 0.93999 0.0
N1279 N 0.10257 0.6318 0.92075 0.0
C1280 C 0.09719 0.60684 0.90625 0.0
C1281 C 0.10144 0.60226 0.9239 0.0
H1282 H 0.11026 0.63593 0.95045 0.0
H1283 H 0.09438 0.62515 0.8915 0.0
C1284 C 0.10923 0.68367 0.85321 0.0
N1285 N 0.0999 0.66958 0.86298 0.0
C1286 C 0.10819 0.68424 0.83273 0.0
C1287 C 0.0878 0.65589 0.83299 0.0
C1288 C 0.08927 0.65588 0.85336 0.0
C1289 C 0.09747 0.67015 0.82235 0.0
H1290 H 0.11762 0.69438 0.86131 0.0
H1291 H 0.08216 0.64484 0.86152 0.0
O1292 O 0.10262 0.66352 0.94031 0.0
O1293 O 0.10277 0.68609 0.90668 0.0
O1294 O 0.12106 0.66783 0.89982 0.0
O1295 O 0.08323 0.64839 0.90233 0.0
H1296 H 0.09346 0.67314 0.97196 0.0
H1297 H 0.13092 0.66587 0.94777 0.0
H1298 H 0.10969 0.68382 0.00236 0.0
H1299 H 0.14648 0.67651 0.97868 0.0
H1300 H 0.05925 0.67992 0.87207 0.0
H1301 H 0.11083 0.71681 0.90516 0.0
H1302 H 0.07476 0.66863 0.88802 0.0
H1303 H 0.09463 0.72728 0.88886 0.0
H1304 H 0.14597 0.73027 0.95961 0.0
H1305 H 0.17628 0.71674 0.92693 0.0
H1306 H 0.02996 0.64777 0.93386 0.0
H1307 H 0.06466 0.6888 0.968 0.0
H1308 H 0.1156 0.65265 0.86556 0.0
H1309 H 0.14232 0.6632 0.91975 0.0
H1310 H 0.12782 0.63634 0.85498 0.0
H1311 H 0.15395 0.64657 0.90831 0.0
H1312 H 0.07735 0.63681 0.939 0.0
H1313 H 0.05892 0.62812 0.87971 0.0
H1314 H 0.05331 0.61129 0.94923 0.0
H1315 H 0.03519 0.60267 0.89106 0.0
H1316 H 0.1094 0.60982 0.95397 0.0
H1317 H 0.09367 0.59916 0.89335 0.0
H1318 H 0.11597 0.69545 0.8251 0.0
H1319 H 0.07921 0.64481 0.82566 0.0
Li1320 Li 0.42324 0.09308 0.41932 0.0
Li1321 Li 0.43575 0.12222 0.41785 0.0
Li1322 Li 0.43399 0.10659 0.38861 0.0
Li1323 Li 0.45244 0.11026 0.41557 0.0
C1324 C 0.39995 0.09786 0.40677 0.0
N1325 N 0.3671 0.08073 0.41416 0.0
C1326 C 0.39312 0.10367 0.42039 0.0
C1327 C 0.39006 0.08337 0.39685 0.0
C1328 C 0.37649 0.09483 0.42392 0.0
C1329 C 0.37349 0.07487 0.40082 0.0
C1330 C 0.44748 0.10821 0.45321 0.0
C1331 C 0.47076 0.1204 0.47459 0.0
N1332 N 0.46605 0.10567 0.48263 0.0
C1333 C 0.44287 0.09319 0.4617 0.0
C1334 C 0.46152 0.12195 0.45972 0.0
C1335 C 0.45241 0.09216 0.47656 0.0
C1336 C 0.40377 0.05955 0.42637 0.0
N1337 N 0.40671 0.07445 0.4318 0.0
C1338 C 0.38688 0.06319 0.45723 0.0
C1339 C 0.39858 0.07652 0.44688 0.0
C1340 C 0.38379 0.04761 0.45227 0.0
C1341 C 0.39229 0.04589 0.43645 0.0
H1342 H 0.41068 0.05831 0.41461 0.0
H1343 H 0.40143 0.08858 0.45108 0.0
C1344 C 0.42612 0.14511 0.41453 0.0
N1345 N 0.43394 0.14 0.42668 0.0
C1346 C 0.42429 0.15817 0.41985 0.0
C1347 C 0.43871 0.16058 0.45007 0.0
C1348 C 0.44012 0.14731 0.44424 0.0
C1349 C 0.43066 0.16609 0.4378 0.0
H1350 H 0.42135 0.13902 0.40065 0.0
H1351 H 0.44617 0.14289 0.45365 0.0
C1352 C 0.43877 0.08177 0.38578 0.0
N1353 N 0.44122 0.06612 0.3529 0.0
C1354 C 0.45393 0.08486 0.37923 0.0
C1355 C 0.42486 0.07064 0.37567 0.0
C1356 C 0.45491 0.07683 0.36258 0.0
C1357 C 0.42636 0.06289 0.35905 0.0
C1358 C 0.45795 0.1427 0.39439 0.0
C1359 C 0.45242 0.14701 0.3777 0.0
C1360 C 0.46803 0.15465 0.40776 0.0
C1361 C 0.45703 0.16323 0.3747 0.0
C1362 C 0.47233 0.17072 0.40426 0.0
N1363 N 0.46679 0.17464 0.38793 0.0
C1364 C 0.41762 0.10183 0.35214 0.0
C1365 C 0.44499 0.10836 0.35001 0.0
C1366 C 0.41616 0.10084 0.33168 0.0
N1367 N 0.43182 0.10537 0.36082 0.0
C1368 C 0.44403 0.10731 0.32955 0.0
C1369 C 0.42946 0.1035 0.32007 0.0
H1370 H 0.40746 0.09991 0.36107 0.0
H1371 H 0.45623 0.11147 0.35733 0.0
C1372 C 0.47327 0.09895 0.42766 0.0
N1373 N 0.47281 0.11224 0.42146 0.0
C1374 C 0.48809 0.0997 0.43065 0.0
C1375 C 0.50163 0.1279 0.42135 0.0
C1376 C 0.48656 0.12657 0.41842 0.0
C1377 C 0.50256 0.11427 0.42721 0.0
H1378 H 0.46211 0.08765 0.42974 0.0
H1379 H 0.48584 0.1369 0.41334 0.0
O1380 O 0.41624 0.10623 0.40329 0.0
O1381 O 0.43849 0.10943 0.43836 0.0
O1382 O 0.43756 0.08971 0.40187 0.0
O1383 O 0.45321 0.12683 0.39787 0.0
H1384 H 0.40058 0.11477 0.42837 0.0
H1385 H 0.39514 0.07864 0.38635 0.0
H1386 H 0.37105 0.09915 0.43449 0.0
H1387 H 0.36572 0.0636 0.39333 0.0
H1388 H 0.48171 0.13091 0.47967 0.0
H1389 H 0.43212 0.08241 0.45677 0.0
H1390 H 0.46541 0.13363 0.45311 0.0
H1391 H 0.44901 0.0806 0.48322 0.0
H1392 H 0.38055 0.06511 0.46919 0.0
H1393 H 0.39062 0.03419 0.43238 0.0
H1394 H 0.41821 0.16223 0.40985 0.0
H1395 H 0.44372 0.16636 0.46406 0.0
H1396 H 0.46484 0.09353 0.38673 0.0
H1397 H 0.41304 0.06815 0.38046 0.0
H1398 H 0.46657 0.07917 0.35729 0.0
H1399 H 0.4157 0.05433 0.35101 0.0
H1400 H 0.44452 0.13794 0.36727 0.0
H1401 H 0.4722 0.1515 0.42094 0.0
H1402 H 0.45279 0.16673 0.36188 0.0
H1403 H 0.48 0.18006 0.41457 0.0
H1404 H 0.4048 0.09824 0.32505 0.0
H1405 H 0.45456 0.10928 0.32132 0.0
H1406 H 0.48818 0.08882 0.43489 0.0
H1407 H 0.51243 0.13944 0.4188 0.0
Li1408 Li 0.3167 0.43751 0.92112 0.0
Li1409 Li 0.33205 0.42404 0.92137 0.0
Li1410 Li 0.34589 0.45422 0.91785 0.0
Li1411 Li 0.32945 0.43542 0.89109 0.0
C1412 C 0.33252 0.44667 0.95822 0.0
N1413 N 0.33118 0.45939 0.99424 0.0
C1414 C 0.32703 0.43676 0.97486 0.0
C1415 C 0.33744 0.46308 0.95996 0.0
C1416 C 0.3264 0.44341 0.99292 0.0
C1417 C 0.33665 0.46927 0.97828 0.0
C1418 C 0.30354 0.40157 0.90902 0.0
C1419 C 0.29905 0.37487 0.90199 0.0
N1420 N 0.2867 0.36854 0.9152 0.0
C1421 C 0.29078 0.39479 0.92249 0.0
C1422 C 0.30768 0.39153 0.89863 0.0
C1423 C 0.28242 0.37807 0.92541 0.0
C1424 C 0.28501 0.42894 0.91652 0.0
N1425 N 0.29713 0.43623 0.92989 0.0
C1426 C 0.27981 0.44029 0.95165 0.0
C1427 C 0.29483 0.44188 0.94726 0.0
C1428 C 0.26711 0.43282 0.93803 0.0
C1429 C 0.26989 0.42714 0.92025 0.0
H1430 H 0.28717 0.42462 0.90279 0.0
H1431 H 0.30454 0.44768 0.95771 0.0
C1432 C 0.34574 0.40419 0.92808 0.0
N1433 N 0.33375 0.40712 0.93343 0.0
C1434 C 0.34765 0.39243 0.9379 0.0
C1435 C 0.32459 0.3867 0.95819 0.0
C1436 C 0.32319 0.39861 0.94805 0.0
C1437 C 0.33714 0.38368 0.9534 0.0
H1438 H 0.3541 0.4113 0.91659 0.0
H1439 H 0.31383 0.40128 0.95206 0.0
C1440 C 0.31895 0.46052 0.89771 0.0
N1441 N 0.29697 0.47088 0.89163 0.0
C1442 C 0.30868 0.45507 0.88138 0.0
C1443 C 0.31813 0.47134 0.91086 0.0
C1444 C 0.29764 0.46044 0.87858 0.0
C1445 C 0.3069 0.47639 0.90756 0.0
C1446 C 0.3587 0.43915 0.88721 0.0
C1447 C 0.37103 0.45416 0.88062 0.0
C1448 C 0.35533 0.42513 0.87693 0.0
C1449 C 0.37969 0.4549 0.86371 0.0
C1450 C 0.36423 0.42638 0.86007 0.0
N1451 N 0.37612 0.44111 0.85386 0.0
C1452 C 0.37807 0.47408 0.93043 0.0
C1453 C 0.36531 0.48812 0.9181 0.0
C1454 C 0.39262 0.4886 0.93276 0.0
N1455 N 0.36489 0.47413 0.92301 0.0
C1456 C 0.37952 0.5029 0.92045 0.0
C1457 C 0.39355 0.50329 0.92753 0.0
H1458 H 0.37738 0.46271 0.93397 0.0
H1459 H 0.35466 0.48776 0.9121 0.0
C1460 C 0.31625 0.41916 0.85505 0.0
N1461 N 0.32779 0.43319 0.86329 0.0
C1462 C 0.31518 0.41739 0.83463 0.0
C1463 C 0.3377 0.44465 0.83159 0.0
C1464 C 0.33821 0.44595 0.85205 0.0
C1465 C 0.32611 0.4302 0.82266 0.0
H1466 H 0.30787 0.40934 0.86431 0.0
H1467 H 0.34697 0.45712 0.85901 0.0
O1468 O 0.33347 0.44039 0.94051 0.0
O1469 O 0.31198 0.41794 0.90609 0.0
O1470 O 0.32951 0.45502 0.90101 0.0
O1471 O 0.34988 0.4382 0.90352 0.0
H1472 H 0.32331 0.42408 0.97387 0.0
H1473 H 0.34165 0.47093 0.9473 0.0
H1474 H 0.32214 0.43586 0.0059 0.0
H1475 H 0.34035 0.48193 0.97979 0.0
H1476 H 0.30219 0.36698 0.89412 0.0
H1477 H 0.28749 0.40235 0.93084 0.0
H1478 H 0.31755 0.39656 0.88822 0.0
H1479 H 0.27257 0.37267 0.93586 0.0
H1480 H 0.27815 0.44478 0.96557 0.0
H1481 H 0.26059 0.42164 0.90911 0.0
H1482 H 0.35768 0.39073 0.93395 0.0
H1483 H 0.31612 0.38014 0.96989 0.0
H1484 H 0.30905 0.44662 0.87111 0.0
H1485 H 0.3259 0.47562 0.92363 0.0
H1486 H 0.28955 0.45624 0.86607 0.0
H1487 H 0.30605 0.48466 0.91771 0.0
H1488 H 0.37376 0.46515 0.8883 0.0
H1489 H 0.34584 0.41342 0.88182 0.0
H1490 H 0.38919 0.46644 0.85837 0.0
H1491 H 0.36168 0.41563 0.8519 0.0
H1492 H 0.40314 0.48822 0.93797 0.0
H1493 H 0.3795 0.51389 0.91658 0.0
H1494 H 0.30607 0.40605 0.82828 0.0
H1495 H 0.34616 0.45491 0.82285 0.0
Li1496 Li 0.87426 0.31411 0.42178 0.0
Li1497 Li 0.9035 0.32869 0.42092 0.0
Li1498 Li 0.88743 0.34284 0.41706 0.0
Li1499 Li 0.8889 0.32654 0.39003 0.0
C1500 C 0.88282 0.32505 0.45824 0.0
N1501 N 0.86935 0.31186 0.49432 0.0
C1502 C 0.88982 0.31828 0.47014 0.0
C1503 C 0.8691 0.32533 0.46483 0.0
C1504 C 0.8828 0.31162 0.4883 0.0
C1505 C 0.86242 0.31853 0.48306 0.0
C1506 C 0.89508 0.29931 0.40123 0.0
C1507 C 0.9125 0.2937 0.38109 0.0
N1508 N 0.90796 0.27994 0.39152 0.0
C1509 C 0.89039 0.28496 0.41153 0.0
C1510 C 0.90606 0.30359 0.3857 0.0
C1511 C 0.89711 0.27539 0.40649 0.0
C1512 C 0.84103 0.29267 0.42801 0.0
N1513 N 0.85612 0.2959 0.43304 0.0
C1514 C 0.84527 0.27212 0.45293 0.0
C1515 C 0.85846 0.28609 0.44543 0.0
C1516 C 0.82955 0.2683 0.44765 0.0
C1517 C 0.82749 0.27891 0.43528 0.0
H1518 H 0.8395 0.30056 0.41796 0.0
H1519 H 0.8706 0.28898 0.44925 0.0
C1520 C 0.93562 0.34568 0.43297 0.0
N1521 N 0.92263 0.33052 0.4318 0.0
C1522 C 0.95005 0.34817 0.44114 0.0
C1523 C 0.93733 0.31948 0.44757 0.0
C1524 C 0.92317 0.3175 0.43896 0.0
C1525 C 0.951 0.33498 0.44863 0.0
H1526 H 0.9347 0.35588 0.42781 0.0
H1527 H 0.91252 0.30566 0.43849 0.0
C1528 C 0.85983 0.33237 0.39688 0.0
N1529 N 0.8413 0.34637 0.3882 0.0
C1530 C 0.85923 0.33723 0.37766 0.0
C1531 C 0.8508 0.33439 0.41162 0.0
C1532 C 0.84984 0.34434 0.37358 0.0
C1533 C 0.84157 0.34157 0.40697 0.0
C1534 C 0.92014 0.35549 0.3911 0.0
C1535 C 0.92389 0.37106 0.38546 0.0
C1536 C 0.93035 0.34965 0.3855 0.0
C1537 C 0.93756 0.38035 0.37389 0.0
C1538 C 0.94392 0.35931 0.37396 0.0
N1539 N 0.9472 0.37433 0.3684 0.0
C1540 C 0.88639 0.36726 0.44025 0.0
C1541 C 0.88646 0.37037 0.40564 0.0
C1542 C 0.88536 0.38122 0.4431 0.0
N1543 N 0.88678 0.3621 0.42172 0.0
C1544 C 0.88527 0.38423 0.40778 0.0
C1545 C 0.88462 0.38977 0.42669 0.0
H1546 H 0.88677 0.3605 0.45279 0.0
H1547 H 0.88701 0.36609 0.39109 0.0
C1548 C 0.88308 0.31066 0.3529 0.0
N1549 N 0.88921 0.32518 0.36214 0.0
C1550 C 0.88357 0.30994 0.33238 0.0
C1551 C 0.89639 0.33908 0.33136 0.0
C1552 C 0.89556 0.33921 0.35181 0.0
C1553 C 0.89035 0.32431 0.32132 0.0
H1554 H 0.87781 0.29964 0.36147 0.0
H1555 H 0.89983 0.35054 0.35943 0.0
O1556 O 0.88941 0.33144 0.4403 0.0
O1557 O 0.88852 0.30877 0.40593 0.0
O1558 O 0.86919 0.32564 0.40121 0.0
O1559 O 0.90674 0.34621 0.4024 0.0
H1560 H 0.9005 0.31806 0.46536 0.0
H1561 H 0.86362 0.33066 0.45592 0.0
H1562 H 0.88804 0.30625 0.4976 0.0
H1563 H 0.85174 0.31856 0.48827 0.0
H1564 H 0.92105 0.29692 0.36913 0.0
H1565 H 0.88171 0.28125 0.42335 0.0
H1566 H 0.90942 0.31429 0.37707 0.0
H1567 H 0.89368 0.26434 0.41447 0.0
H1568 H 0.84734 0.26428 0.46251 0.0
H1569 H 0.81557 0.27625 0.43058 0.0
H1570 H 0.96021 0.36038 0.44218 0.0
H1571 H 0.93758 0.30906 0.45342 0.0
H1572 H 0.86599 0.33561 0.36601 0.0
H1573 H 0.85101 0.33059 0.42653 0.0
H1574 H 0.84935 0.34825 0.35879 0.0
H1575 H 0.83464 0.34333 0.41827 0.0
H1576 H 0.91632 0.37593 0.38989 0.0
H1577 H 0.92806 0.33793 0.39034 0.0
H1578 H 0.94052 0.39237 0.36931 0.0
H1579 H 0.95191 0.35491 0.36953 0.0
H1580 H 0.88487 0.38512 0.45791 0.0
H1581 H 0.88501 0.39063 0.39476 0.0
H1582 H 0.87849 0.29825 0.32527 0.0
H1583 H 0.90186 0.35048 0.32356 0.0
Li1584 Li 0.10301 0.44935 0.58243 0.0
Li1585 Li 0.09846 0.42845 0.60649 0.0
Li1586 Li 0.11704 0.43455 0.57894 0.0
Li1587 Li 0.08809 0.42068 0.57391 0.0
C1588 C 0.12635 0.46398 0.60849 0.0
N1589 N 0.14041 0.49505 0.62331 0.0
C1590 C 0.12249 0.46669 0.62742 0.0
C1591 C 0.13743 0.47707 0.59715 0.0
C1592 C 0.12973 0.48249 0.63464 0.0
C1593 C 0.14437 0.49269 0.60488 0.0
C1594 C 0.06656 0.42663 0.58864 0.0
C1595 C 0.03872 0.4052 0.5883 0.0
N1596 N 0.03489 0.41447 0.57683 0.0
C1597 C 0.06235 0.43597 0.5769 0.0
C1598 C 0.05466 0.41115 0.59446 0.0
C1599 C 0.04626 0.4296 0.57108 0.0
C1600 C 0.10852 0.4777 0.56199 0.0
N1601 N 0.10403 0.4696 0.57937 0.0
C1602 C 0.10118 0.49073 0.59411 0.0
C1603 C 0.10009 0.47564 0.59518 0.0
C1604 C 0.10606 0.49952 0.57646 0.0
C1605 C 0.10959 0.49277 0.56018 0.0
H1606 H 0.11129 0.47248 0.54954 0.0
H1607 H 0.09622 0.46875 0.60869 0.0
C1608 C 0.10721 0.42377 0.64458 0.0
N1609 N 0.09504 0.42325 0.63368 0.0
C1610 C 0.10533 0.42099 0.66482 0.0
C1611 C 0.07842 0.41726 0.66222 0.0
C1612 C 0.0808 0.42002 0.64202 0.0
C1613 C 0.09085 0.41788 0.67392 0.0
H1614 H 0.11853 0.42671 0.6376 0.0
H1615 H 0.07142 0.41992 0.63305 0.0
C1616 C 0.11382 0.44049 0.54221 0.0
N1617 N 0.13264 0.44306 0.51004 0.0
C1618 C 0.1089 0.42744 0.52934 0.0
C1619 C 0.12829 0.45487 0.53868 0.0
C1620 C 0.11858 0.42898 0.51315 0.0
C1621 C 0.13765 0.45591 0.52236 0.0
C1622 C 0.10071 0.40247 0.6021 0.0
C1623 C 0.11533 0.40341 0.60724 0.0
C1624 C 0.0864 0.39108 0.61129 0.0
C1625 C 0.11538 0.39295 0.62155 0.0
C1626 C 0.08697 0.38086 0.62557 0.0
N1627 N 0.10133 0.382 0.63036 0.0
C1628 C 0.15091 0.44787 0.57533 0.0
C1629 C 0.13472 0.42281 0.55917 0.0
C1630 C 0.16498 0.44821 0.56906 0.0
N1631 N 0.13622 0.43529 0.57032 0.0
C1632 C 0.14845 0.42266 0.55255 0.0
C1633 C 0.16384 0.43542 0.55762 0.0
H1634 H 0.15172 0.45752 0.58443 0.0
H1635 H 0.12283 0.41292 0.55556 0.0
C1636 C 0.06648 0.41127 0.54281 0.0
N1637 N 0.07123 0.4053 0.55789 0.0
C1638 C 0.05442 0.40082 0.52995 0.0
C1639 C 0.0523 0.37818 0.54843 0.0
C1640 C 0.06451 0.38913 0.5609 0.0
C1641 C 0.04721 0.38404 0.53265 0.0
H1642 H 0.07214 0.42421 0.54077 0.0
H1643 H 0.06869 0.38473 0.57289 0.0
O1644 O 0.11919 0.44863 0.60102 0.0
O1645 O 0.08231 0.43248 0.59407 0.0
O1646 O 0.10468 0.43912 0.55837 0.0
O1647 O 0.10042 0.41276 0.58833 0.0
H1648 H 0.11388 0.45674 0.63638 0.0
H1649 H 0.14044 0.47523 0.5824 0.0
H1650 H 0.1268 0.48477 0.64923 0.0
H1651 H 0.15286 0.50294 0.5962 0.0
H1652 H 0.02941 0.3932 0.59256 0.0
H1653 H 0.07141 0.44793 0.57216 0.0
H1654 H 0.05775 0.4037 0.60338 0.0
H1655 H 0.04284 0.43666 0.56193 0.0
H1656 H 0.09807 0.49539 0.60689 0.0
H1657 H 0.11339 0.49919 0.54632 0.0
H1658 H 0.1153 0.42184 0.67334 0.0
H1659 H 0.06704 0.4148 0.66863 0.0
H1660 H 0.09784 0.41616 0.53193 0.0
H1661 H 0.13238 0.46503 0.5486 0.0
H1662 H 0.11495 0.41896 0.50312 0.0
H1663 H 0.14893 0.46692 0.51953 0.0
H1664 H 0.12653 0.41222 0.6004 0.0
H1665 H 0.07501 0.39032 0.60767 0.0
H1666 H 0.12661 0.39357 0.62572 0.0
H1667 H 0.07601 0.37207 0.63289 0.0
H1668 H 0.17659 0.45812 0.57364 0.0
H1669 H 0.14703 0.41262 0.54365 0.0
H1670 H 0.05065 0.40583 0.51817 0.0
H1671 H 0.04707 0.36532 0.55091 0.0
Li1672 Li 0.64637 0.09881 0.0793 0.0
Li1673 Li 0.66426 0.09737 0.10647 0.0
Li1674 Li 0.67558 0.11354 0.077 0.0
Li1675 Li 0.66221 0.08538 0.07433 0.0
C1676 C 0.67024 0.13219 0.10106 0.0
N1677 N 0.68802 0.16515 0.10763 0.0
C1678 C 0.67947 0.13819 0.11818 0.0
C1679 C 0.66987 0.14297 0.08743 0.0
C1680 C 0.68841 0.15489 0.12121 0.0
C1681 C 0.67901 0.15958 0.09096 0.0
C1682 C 0.63855 0.06331 0.09492 0.0
C1683 C 0.63969 0.0405 0.10825 0.0
N1684 N 0.62765 0.03052 0.0958 0.0
C1685 C 0.62616 0.05283 0.08231 0.0
C1686 C 0.64538 0.05712 0.10802 0.0
C1687 C 0.62083 0.03629 0.08296 0.0
C1688 C 0.61447 0.08691 0.06449 0.0
N1689 N 0.62675 0.09882 0.07501 0.0
C1690 C 0.61121 0.11167 0.08094 0.0
C1691 C 0.62541 0.11108 0.08313 0.0
C1692 C 0.59803 0.09929 0.07067 0.0
C1693 C 0.59987 0.08684 0.06225 0.0
H1694 H 0.61593 0.07739 0.05802 0.0
H1695 H 0.63536 0.1204 0.0914 0.0
C1696 C 0.68078 0.10257 0.14267 0.0
N1697 N 0.66602 0.09588 0.13394 0.0
C1698 C 0.68199 0.10242 0.16314 0.0
C1699 C 0.65279 0.08797 0.16506 0.0
C1700 C 0.65216 0.08854 0.1446 0.0
C1701 C 0.66786 0.09521 0.17465 0.0
H1702 H 0.69159 0.10842 0.13374 0.0
H1703 H 0.64061 0.08328 0.13717 0.0
C1704 C 0.66022 0.1073 0.039 0.0
N1705 N 0.66123 0.12156 0.00323 0.0
C1706 C 0.66732 0.10444 0.02265 0.0
C1707 C 0.65345 0.11726 0.03706 0.0
C1708 C 0.66777 0.11181 0.00472 0.0
C1709 C 0.65413 0.12439 0.01888 0.0
C1710 C 0.69511 0.0994 0.08159 0.0
C1711 C 0.69778 0.10201 0.06138 0.0
C1712 C 0.70598 0.09723 0.09311 0.0
C1713 C 0.71131 0.1024 0.05299 0.0
C1714 C 0.71938 0.09769 0.08419 0.0
N1715 N 0.72175 0.10025 0.06448 0.0
C1716 C 0.70559 0.13995 0.08383 0.0
C1717 C 0.69592 0.14146 0.05223 0.0
C1718 C 0.71907 0.15525 0.08152 0.0
N1719 N 0.69415 0.13353 0.06951 0.0
C1720 C 0.70941 0.15672 0.04915 0.0
C1721 C 0.72096 0.16388 0.06411 0.0
H1722 H 0.70394 0.13334 0.09736 0.0
H1723 H 0.6868 0.13627 0.04099 0.0
C1724 C 0.65397 0.06372 0.04345 0.0
N1725 N 0.66179 0.06778 0.06099 0.0
C1726 C 0.65311 0.051 0.03251 0.0
C1727 C 0.66807 0.0466 0.05813 0.0
C1728 C 0.66883 0.0596 0.0685 0.0
C1729 C 0.6602 0.04227 0.03983 0.0
H1730 H 0.64825 0.07028 0.03805 0.0
H1731 H 0.67489 0.06308 0.08258 0.0
O1732 O 0.66179 0.11588 0.09758 0.0
O1733 O 0.64433 0.0796 0.09406 0.0
O1734 O 0.65949 0.09999 0.05659 0.0
O1735 O 0.68189 0.09886 0.09014 0.0
H1736 H 0.67984 0.13007 0.12895 0.0
H1737 H 0.66283 0.13858 0.0741 0.0
H1738 H 0.69569 0.15969 0.13433 0.0
H1739 H 0.67897 0.16804 0.08042 0.0
H1740 H 0.64492 0.03555 0.11824 0.0
H1741 H 0.62085 0.05742 0.07195 0.0
H1742 H 0.65514 0.06507 0.11769 0.0
H1743 H 0.61131 0.02805 0.0732 0.0
H1744 H 0.61064 0.12176 0.08727 0.0
H1745 H 0.59007 0.07693 0.05437 0.0
H1746 H 0.69386 0.10832 0.16986 0.0
H1747 H 0.64158 0.08199 0.17325 0.0
H1748 H 0.67244 0.09661 0.02375 0.0
H1749 H 0.6478 0.11954 0.04942 0.0
H1750 H 0.67328 0.10975 0.99199 0.0
H1751 H 0.64901 0.13218 0.01722 0.0
H1752 H 0.68952 0.10376 0.05228 0.0
H1753 H 0.70406 0.09516 0.10879 0.0
H1754 H 0.71352 0.10442 0.03736 0.0
H1755 H 0.7279 0.09602 0.09292 0.0
H1756 H 0.72786 0.16037 0.0933 0.0
H1757 H 0.71051 0.16309 0.03554 0.0
H1758 H 0.64661 0.04779 0.01867 0.0
H1759 H 0.67363 0.04008 0.06426 0.0
Li1760 Li 0.56222 0.66585 0.60441 0.0
Li1761 Li 0.54257 0.64895 0.57825 0.0
Li1762 Li 0.57283 0.66403 0.57319 0.0
Li1763 Li 0.55861 0.67828 0.57529 0.0
C1764 C 0.55916 0.63687 0.60734 0.0
N1765 N 0.55808 0.61925 0.64014 0.0
C1766 C 0.54431 0.62472 0.61458 0.0
C1767 C 0.57346 0.63995 0.61669 0.0
C1768 C 0.54402 0.61597 0.6312 0.0
C1769 C 0.57266 0.63095 0.63328 0.0
C1770 C 0.53585 0.67495 0.59945 0.0
C1771 C 0.5176 0.68466 0.59141 0.0
N1772 N 0.5242 0.69582 0.60605 0.0
C1773 C 0.54244 0.68649 0.61443 0.0
C1774 C 0.52332 0.674 0.58785 0.0
C1775 C 0.53638 0.69693 0.61753 0.0
C1776 C 0.57856 0.67868 0.64079 0.0
N1777 N 0.56462 0.66733 0.63217 0.0
C1778 C 0.55217 0.65789 0.66353 0.0
C1779 C 0.5515 0.65713 0.64305 0.0
C1780 C 0.56642 0.66945 0.67292 0.0
C1781 C 0.57976 0.67991 0.66127 0.0
H1782 H 0.58863 0.68701 0.63182 0.0
H1783 H 0.54045 0.6485 0.63576 0.0
C1784 C 0.52243 0.61678 0.56511 0.0
N1785 N 0.52269 0.62964 0.57403 0.0
C1786 C 0.50793 0.60207 0.56357 0.0
C1787 C 0.49428 0.61437 0.57988 0.0
C1788 C 0.50903 0.62871 0.58132 0.0
C1789 C 0.4936 0.60066 0.57124 0.0
H1790 H 0.53357 0.61783 0.5597 0.0
H1791 H 0.50963 0.63902 0.58866 0.0
C1792 C 0.59533 0.69199 0.58636 0.0
N1793 N 0.62842 0.70825 0.5806 0.0
C1794 C 0.60249 0.70493 0.57314 0.0
C1795 C 0.60504 0.68737 0.59666 0.0
C1796 C 0.61924 0.71299 0.57045 0.0
C1797 C 0.62173 0.69572 0.59353 0.0
C1798 C 0.5502 0.6656 0.53833 0.0
C1799 C 0.5612 0.67819 0.52631 0.0
C1800 C 0.53393 0.65675 0.53282 0.0
C1801 C 0.55572 0.68178 0.50902 0.0
C1802 C 0.52893 0.6607 0.51541 0.0
N1803 N 0.53984 0.67303 0.50398 0.0
C1804 C 0.59323 0.65119 0.56456 0.0
C1805 C 0.59814 0.67411 0.54582 0.0
C1806 C 0.60538 0.65013 0.55444 0.0
N1807 N 0.58983 0.66301 0.56003 0.0
C1808 C 0.61047 0.67363 0.5355 0.0
C1809 C 0.61409 0.66138 0.53953 0.0
H1810 H 0.58628 0.64237 0.57574 0.0
H1811 H 0.59516 0.68335 0.54245 0.0
C1812 C 0.56861 0.71077 0.57765 0.0
N1813 N 0.55819 0.69731 0.56743 0.0
C1814 C 0.56943 0.72547 0.57394 0.0
C1815 C 0.54827 0.7122 0.54971 0.0
C1816 C 0.54789 0.69769 0.5539 0.0
C1817 C 0.55924 0.72635 0.55974 0.0
H1818 H 0.57615 0.71003 0.58898 0.0
H1819 H 0.53911 0.68674 0.54665 0.0
O1820 O 0.55968 0.64578 0.59131 0.0
O1821 O 0.54197 0.66496 0.59581 0.0
O1822 O 0.57892 0.68382 0.58909 0.0
O1823 O 0.55535 0.66168 0.55514 0.0
H1824 H 0.53311 0.62219 0.60764 0.0
H1825 H 0.58506 0.64923 0.61125 0.0
H1826 H 0.5326 0.6066 0.63703 0.0
H1827 H 0.58363 0.63327 0.64071 0.0
H1828 H 0.508 0.68415 0.58244 0.0
H1829 H 0.55226 0.68752 0.62341 0.0
H1830 H 0.51831 0.66538 0.57591 0.0
H1831 H 0.54141 0.70597 0.62901 0.0
H1832 H 0.54164 0.64949 0.6719 0.0
H1833 H 0.59086 0.68921 0.66787 0.0
H1834 H 0.50808 0.59181 0.55705 0.0
H1835 H 0.48355 0.61401 0.58568 0.0
H1836 H 0.59521 0.70852 0.56474 0.0
H1837 H 0.59974 0.67735 0.60684 0.0
H1838 H 0.62491 0.72296 0.56019 0.0
H1839 H 0.62935 0.69221 0.60135 0.0
H1840 H 0.57378 0.68529 0.53041 0.0
H1841 H 0.52523 0.64695 0.54187 0.0
H1842 H 0.56409 0.69155 0.49965 0.0
H1843 H 0.51638 0.65397 0.51099 0.0
H1844 H 0.60751 0.64027 0.55779 0.0
H1845 H 0.61698 0.68268 0.52433 0.0
H1846 H 0.57769 0.73596 0.5825 0.0
H1847 H 0.54008 0.71233 0.53881 0.0
Li1848 Li 0.8976 0.56552 0.10585 0.0
Li1849 Li 0.89333 0.54732 0.07836 0.0
Li1850 Li 0.90926 0.57662 0.07434 0.0
Li1851 Li 0.88015 0.56298 0.07815 0.0
C1852 C 0.92365 0.56252 0.1058 0.0
N1853 N 0.94218 0.56175 0.13655 0.0
C1854 C 0.92248 0.5479 0.11146 0.0
C1855 C 0.93429 0.57675 0.11573 0.0
C1856 C 0.93195 0.54776 0.12704 0.0
C1857 C 0.94353 0.5761 0.13126 0.0
C1858 C 0.86154 0.54031 0.10248 0.0
C1859 C 0.83313 0.52505 0.09455 0.0
N1860 N 0.82965 0.52983 0.11182 0.0
C1861 C 0.85767 0.54504 0.12016 0.0
C1862 C 0.84918 0.53018 0.08958 0.0
C1863 C 0.84148 0.53961 0.12462 0.0
C1864 C 0.90123 0.58094 0.14273 0.0
N1865 N 0.8998 0.56763 0.1336 0.0
C1866 C 0.89969 0.55567 0.16447 0.0
C1867 C 0.89887 0.55506 0.14399 0.0
C1868 C 0.90096 0.56916 0.17445 0.0
C1869 C 0.90179 0.58195 0.16325 0.0
H1870 H 0.90149 0.59057 0.13412 0.0
H1871 H 0.8973 0.54444 0.13635 0.0
C1872 C 0.90487 0.52688 0.06471 0.0
N1873 N 0.89176 0.52719 0.07192 0.0
C1874 C 0.90439 0.51215 0.06198 0.0
C1875 C 0.87669 0.49837 0.07332 0.0
C1876 C 0.87777 0.51335 0.07599 0.0
C1877 C 0.89024 0.49762 0.06669 0.0
H1878 H 0.91591 0.53812 0.06181 0.0
H1879 H 0.86757 0.51393 0.08183 0.0
C1880 C 0.90369 0.599 0.08851 0.0
N1881 N 0.91889 0.63177 0.08083 0.0
C1882 C 0.89698 0.60505 0.07503 0.0
C1883 C 0.91807 0.60963 0.09817 0.0
C1884 C 0.90486 0.62166 0.07134 0.0
C1885 C 0.9256 0.62615 0.09404 0.0
C1886 C 0.89309 0.552 0.04096 0.0
C1887 C 0.90782 0.55689 0.03152 0.0
C1888 C 0.87927 0.5378 0.03502 0.0
C1889 C 0.90849 0.54743 0.01627 0.0
C1890 C 0.88045 0.52867 0.01973 0.0
N1891 N 0.8949 0.53363 0.01075 0.0
C1892 C 0.94224 0.5986 0.0659 0.0
C1893 C 0.9232 0.60097 0.04591 0.0
C1894 C 0.95501 0.61099 0.05549 0.0
N1895 N 0.92673 0.59386 0.06091 0.0
C1896 C 0.93558 0.61349 0.0352 0.0
C1897 C 0.95176 0.61854 0.0398 0.0
H1898 H 0.94469 0.59252 0.07764 0.0
H1899 H 0.91072 0.59678 0.04214 0.0
C1900 C 0.85658 0.57119 0.08493 0.0
N1901 N 0.86149 0.56404 0.07149 0.0
C1902 C 0.84299 0.57259 0.08133 0.0
C1903 C 0.83969 0.55917 0.05007 0.0
C1904 C 0.85347 0.55813 0.05424 0.0
C1905 C 0.83437 0.56654 0.0637 0.0
H1906 H 0.86326 0.57579 0.09851 0.0
H1907 H 0.85775 0.55262 0.04376 0.0
O1908 O 0.91435 0.56288 0.0907 0.0
O1909 O 0.87736 0.54583 0.09761 0.0
O1910 O 0.89632 0.58274 0.09206 0.0
O1911 O 0.89226 0.56089 0.05622 0.0
H1912 H 0.91421 0.53674 0.1041 0.0
H1913 H 0.93528 0.58815 0.11164 0.0
H1914 H 0.93111 0.53653 0.13164 0.0
H1915 H 0.95175 0.58701 0.13914 0.0
H1916 H 0.82346 0.51733 0.08463 0.0
H1917 H 0.86705 0.55294 0.13028 0.0
H1918 H 0.85195 0.52661 0.07567 0.0
H1919 H 0.83832 0.54323 0.13822 0.0
H1920 H 0.89924 0.5456 0.17234 0.0
H1921 H 0.90242 0.59244 0.1702 0.0
H1922 H 0.91519 0.51221 0.05706 0.0
H1923 H 0.86544 0.4875 0.07679 0.0
H1924 H 0.88594 0.597 0.06728 0.0
H1925 H 0.92344 0.60516 0.10862 0.0
H1926 H 0.89985 0.62649 0.06087 0.0
H1927 H 0.93678 0.6345 0.10133 0.0
H1928 H 0.91866 0.56777 0.03603 0.0
H1929 H 0.86783 0.53373 0.04235 0.0
H1930 H 0.91981 0.55104 0.00887 0.0
H1931 H 0.86988 0.51759 0.01506 0.0
H1932 H 0.96727 0.6142 0.05928 0.0
H1933 H 0.9325 0.61902 0.02333 0.0
H1934 H 0.83914 0.57814 0.09235 0.0
H1935 H 0.83341 0.55445 0.03626 0.0
Li1936 Li 0.33026 0.89798 0.60828 0.0
Li1937 Li 0.34585 0.89296 0.58346 0.0
Li1938 Li 0.33259 0.90849 0.57594 0.0
Li1939 Li 0.31675 0.87948 0.58085 0.0
C1940 C 0.36064 0.92946 0.58987 0.0
N1941 N 0.3806 0.96088 0.57743 0.0
C1942 C 0.37373 0.93315 0.57751 0.0
C1943 C 0.35775 0.94176 0.59599 0.0
C1944 C 0.38368 0.94912 0.57138 0.0
C1945 C 0.36795 0.95756 0.5895 0.0
C1946 C 0.33571 0.86816 0.6086 0.0
C1947 C 0.34268 0.84744 0.60306 0.0
N1948 N 0.34931 0.85015 0.62135 0.0
C1949 C 0.34252 0.87069 0.62738 0.0
C1950 C 0.3357 0.85639 0.59637 0.0
C1951 C 0.34936 0.86147 0.63354 0.0
C1952 C 0.3179 0.88738 0.64595 0.0
N1953 N 0.32854 0.90067 0.63565 0.0
C1954 C 0.33674 0.91662 0.66493 0.0
C1955 C 0.33786 0.91515 0.64463 0.0
C1956 C 0.32604 0.90301 0.67607 0.0
C1957 C 0.31646 0.88827 0.66626 0.0
H1958 H 0.31074 0.876 0.63838 0.0
H1959 H 0.34626 0.9255 0.63607 0.0
C1960 C 0.36868 0.88889 0.56106 0.0
N1961 N 0.36454 0.89116 0.57943 0.0
C1962 C 0.38256 0.88774 0.55825 0.0
C1963 C 0.3875 0.89118 0.5933 0.0
C1964 C 0.37378 0.89265 0.59536 0.0
C1965 C 0.39201 0.88872 0.57456 0.0
H1966 H 0.36131 0.88813 0.5486 0.0
H1967 H 0.37051 0.89504 0.60967 0.0
C1968 C 0.30243 0.89646 0.60523 0.0
N1969 N 0.28256 0.89617 0.63496 0.0
C1970 C 0.28874 0.88197 0.61071 0.0
C1971 C 0.30597 0.91082 0.61482 0.0
C1972 C 0.27885 0.88208 0.62578 0.0
C1973 C 0.2958 0.91041 0.62984 0.0
C1974 C 0.326 0.88271 0.54346 0.0
C1975 C 0.31822 0.88793 0.53043 0.0
C1976 C 0.32619 0.86845 0.53952 0.0
C1977 C 0.31065 0.87869 0.51373 0.0
C1978 C 0.31845 0.85954 0.52268 0.0
N1979 N 0.3109 0.8648 0.51024 0.0
C1980 C 0.34423 0.92971 0.54436 0.0
C1981 C 0.32592 0.93324 0.56445 0.0
C1982 C 0.34602 0.94205 0.53188 0.0
N1983 N 0.33432 0.92559 0.56023 0.0
C1984 C 0.32751 0.94582 0.55247 0.0
C1985 C 0.33761 0.95028 0.53591 0.0
H1986 H 0.35073 0.92336 0.54142 0.0
H1987 H 0.31802 0.92958 0.57708 0.0
C1988 C 0.29384 0.84666 0.58391 0.0
N1989 N 0.29766 0.86034 0.57372 0.0
C1990 C 0.27892 0.83277 0.58113 0.0
C1991 C 0.27231 0.8471 0.55689 0.0
C1992 C 0.2873 0.86084 0.56039 0.0
C1993 C 0.2679 0.833 0.56769 0.0
H1994 H 0.30208 0.84674 0.59485 0.0
H1995 H 0.29038 0.87207 0.55311 0.0
O1996 O 0.35051 0.91384 0.59559 0.0
O1997 O 0.32909 0.87717 0.60221 0.0
O1998 O 0.31247 0.89656 0.59081 0.0
O1999 O 0.33342 0.89153 0.55996 0.0
H2000 H 0.37611 0.92378 0.57254 0.0
H2001 H 0.34755 0.93908 0.60535 0.0
H2002 H 0.39382 0.95214 0.56175 0.0
H2003 H 0.36578 0.96717 0.59398 0.0
H2004 H 0.34282 0.83835 0.59371 0.0
H2005 H 0.34274 0.87981 0.637 0.0
H2006 H 0.33042 0.85423 0.58184 0.0
H2007 H 0.35476 0.86336 0.64799 0.0
H2008 H 0.34421 0.92828 0.67181 0.0
H2009 H 0.30826 0.87738 0.6742 0.0
H2010 H 0.3858 0.88596 0.54357 0.0
H2011 H 0.39471 0.8923 0.60614 0.0
H2012 H 0.28582 0.87073 0.60354 0.0
H2013 H 0.31664 0.9221 0.61098 0.0
H2014 H 0.26825 0.87094 0.63021 0.0
H2015 H 0.29847 0.9214 0.63749 0.0
H2016 H 0.31783 0.89886 0.5333 0.0
H2017 H 0.33222 0.86428 0.54938 0.0
H2018 H 0.30451 0.88254 0.50358 0.0
H2019 H 0.31846 0.84845 0.51949 0.0
H2020 H 0.35412 0.94532 0.51941 0.0
H2021 H 0.32082 0.9519 0.55598 0.0
H2022 H 0.27582 0.82207 0.58977 0.0
H2023 H 0.26394 0.84773 0.54667 0.0
Li2024 Li 0.43325 0.32737 0.10796 0.0
Li2025 Li 0.45358 0.34315 0.08172 0.0
Li2026 Li 0.42401 0.33043 0.07575 0.0
Li2027 Li 0.43611 0.31422 0.07958 0.0
C2028 C 0.42894 0.35453 0.10213 0.0
N2029 N 0.41138 0.36803 0.11675 0.0
C2030 C 0.43505 0.37118 0.10073 0.0
C2031 C 0.4139 0.34472 0.11093 0.0
C2032 C 0.42599 0.37778 0.10823 0.0
C2033 C 0.4052 0.35178 0.11823 0.0
C2034 C 0.45822 0.31613 0.10352 0.0
C2035 C 0.47526 0.30507 0.09511 0.0
N2036 N 0.46815 0.29383 0.10957 0.0
C2037 C 0.45114 0.30454 0.11836 0.0
C2038 C 0.47043 0.31648 0.09186 0.0
C2039 C 0.45632 0.29335 0.12117 0.0
C2040 C 0.41878 0.31336 0.14463 0.0
N2041 N 0.43024 0.32689 0.13542 0.0
C2042 C 0.43951 0.34073 0.16602 0.0
C2043 C 0.44043 0.34046 0.14558 0.0
C2044 C 0.42802 0.32685 0.17609 0.0
C2045 C 0.41743 0.31308 0.16512 0.0
H2046 H 0.41093 0.30271 0.1361 0.0
H2047 H 0.44941 0.35102 0.13775 0.0
C2048 C 0.47504 0.37388 0.066 0.0
N2049 N 0.47396 0.36176 0.07751 0.0
C2050 C 0.48985 0.38815 0.06378 0.0
C2051 C 0.50211 0.37695 0.085 0.0
C2052 C 0.48708 0.36296 0.08687 0.0
C2053 C 0.50362 0.3899 0.07355 0.0
H2054 H 0.46432 0.37258 0.05888 0.0
H2055 H 0.4858 0.35314 0.09603 0.0
C2056 C 0.40212 0.29842 0.08322 0.0
N2057 N 0.37475 0.27399 0.06547 0.0
C2058 C 0.40208 0.29552 0.06307 0.0
C2059 C 0.38823 0.2889 0.09435 0.0
C2060 C 0.38813 0.28312 0.05436 0.0
C2061 C 0.37451 0.2766 0.0851 0.0
C2062 C 0.44725 0.32923 0.04149 0.0
C2063 C 0.43736 0.32288 0.02492 0.0
C2064 C 0.46379 0.33468 0.03995 0.0
C2065 C 0.44413 0.32179 0.00718 0.0
C2066 C 0.4701 0.33339 0.02194 0.0
N2067 N 0.46022 0.32701 0.00607 0.0
C2068 C 0.41365 0.34138 0.04442 0.0
C2069 C 0.39311 0.32703 0.06809 0.0
C2070 C 0.40289 0.34338 0.03258 0.0
N2071 N 0.40858 0.33324 0.0617 0.0
C2072 C 0.38193 0.32884 0.05674 0.0
C2073 C 0.38679 0.33702 0.03867 0.0
H2074 H 0.42607 0.34627 0.03983 0.0
H2075 H 0.38942 0.3206 0.08191 0.0
C2076 C 0.4249 0.28112 0.08304 0.0
N2077 N 0.43484 0.29424 0.07197 0.0
C2078 C 0.42331 0.26608 0.07902 0.0
C2079 C 0.44251 0.27832 0.05251 0.0
C2080 C 0.44363 0.29311 0.05696 0.0
C2081 C 0.43223 0.26458 0.0636 0.0
H2082 H 0.41839 0.28238 0.09528 0.0
H2083 H 0.45178 0.30364 0.04864 0.0
O2084 O 0.43762 0.34789 0.09472 0.0
O2085 O 0.45293 0.32683 0.10014 0.0
O2086 O 0.41558 0.3106 0.0921 0.0
O2087 O 0.44088 0.33075 0.05886 0.0
H2088 H 0.44667 0.37891 0.09391 0.0
H2089 H 0.40893 0.33179 0.11202 0.0
H2090 H 0.43057 0.39066 0.10726 0.0
H2091 H 0.39354 0.34434 0.12505 0.0
H2092 H 0.48461 0.30512 0.0861 0.0
H2093 H 0.44162 0.30405 0.12745 0.0
H2094 H 0.47597 0.32532 0.08023 0.0
H2095 H 0.45088 0.28424 0.13252 0.0
H2096 H 0.44774 0.35168 0.17386 0.0
H2097 H 0.40852 0.30208 0.1723 0.0
H2098 H 0.49039 0.39788 0.05502 0.0
H2099 H 0.51242 0.37765 0.09256 0.0
H2100 H 0.41271 0.30274 0.05428 0.0
H2101 H 0.38805 0.29104 0.10996 0.0
H2102 H 0.38795 0.28074 0.03878 0.0
H2103 H 0.36367 0.26915 0.09353 0.0
H2104 H 0.4246 0.3189 0.02569 0.0
H2105 H 0.47166 0.33962 0.05255 0.0
H2106 H 0.43661 0.31685 0.99427 0.0
H2107 H 0.48285 0.33743 0.02059 0.0
H2108 H 0.40721 0.35007 0.01895 0.0
H2109 H 0.36961 0.32375 0.06192 0.0
H2110 H 0.41551 0.25584 0.08821 0.0
H2111 H 0.44963 0.27766 0.04052 0.0
H2112 H 0.40344 0.08249 0.29746 0.0
H2113 H 0.45113 0.11042 0.1958 0.0
H2114 H 0.45264 0.12193 0.29275 0.0
H2115 H 0.39904 0.08415 0.1989 0.0
H2116 H 0.4523 0.11229 0.23171 0.0
H2117 H 0.40187 0.08078 0.26159 0.0
C2118 C 0.41388 0.09088 0.28894 0.0
C2119 C 0.42821 0.10237 0.29825 0.0
C2120 C 0.44061 0.10614 0.22453 0.0
C2121 C 0.42656 0.10019 0.25716 0.0
C2122 C 0.43994 0.10497 0.20408 0.0
C2123 C 0.42496 0.0971 0.19443 0.0
C2124 C 0.4262 0.09921 0.23543 0.0
C2125 C 0.41082 0.09042 0.20581 0.0
C2126 C 0.41298 0.08982 0.26846 0.0
C2127 C 0.44143 0.11267 0.28634 0.0
N2128 N 0.41178 0.09155 0.22576 0.0
N2129 N 0.4403 0.11129 0.26645 0.0
H2130 H 0.3493 0.42859 0.70001 0.0
H2131 H 0.29943 0.41756 0.79882 0.0
H2132 H 0.30022 0.41948 0.7004 0.0
H2133 H 0.35131 0.43898 0.79722 0.0
H2134 H 0.29874 0.41516 0.76292 0.0
H2135 H 0.34952 0.42958 0.73588 0.0
C2136 C 0.33858 0.42685 0.7076 0.0
C2137 C 0.32475 0.42404 0.69708 0.0
C2138 C 0.31027 0.42038 0.77043 0.0
C2139 C 0.32487 0.4249 0.73824 0.0
C2140 C 0.31066 0.42167 0.7909 0.0
C2141 C 0.32545 0.42852 0.80097 0.0
C2142 C 0.32477 0.42582 0.75999 0.0
C2143 C 0.33967 0.4338 0.79 0.0
C2144 C 0.3387 0.42734 0.7281 0.0
C2145 C 0.3111 0.42149 0.70782 0.0
N2146 N 0.33897 0.43231 0.7701 0.0
N2147 N 0.31151 0.422 0.7278 0.0
H2148 H 0.89497 0.30071 0.19888 0.0
H2149 H 0.88588 0.34347 0.29497 0.0
H2150 H 0.89822 0.34742 0.19846 0.0
H2151 H 0.89637 0.30446 0.29774 0.0
H2152 H 0.8882 0.34365 0.25929 0.0
H2153 H 0.89343 0.30048 0.2349 0.0
C2154 C 0.89541 0.31093 0.20639 0.0
C2155 C 0.89676 0.32412 0.1957 0.0
C2156 C 0.89003 0.33508 0.26771 0.0
C2157 C 0.89489 0.32388 0.23675 0.0
C2158 C 0.88878 0.335 0.28812 0.0
C2159 C 0.89107 0.32402 0.29948 0.0
C2160 C 0.89345 0.324 0.25844 0.0
C2161 C 0.89435 0.31304 0.28963 0.0
C2162 C 0.89458 0.31081 0.2269 0.0
C2163 C 0.89737 0.33709 0.20613 0.0
N2164 N 0.89544 0.3133 0.26967 0.0
N2165 N 0.89633 0.3366 0.22606 0.0
H2166 H 0.57155 0.92455 0.70316 0.0
H2167 H 0.57973 0.88114 0.79974 0.0
H2168 H 0.58108 0.88489 0.70166 0.0
H2169 H 0.56268 0.9153 0.80029 0.0
H2170 H 0.5833 0.88452 0.76407 0.0
H2171 H 0.57111 0.92336 0.73905 0.0
C2172 C 0.57356 0.9156 0.71035 0.0
C2173 C 0.57624 0.90473 0.69931 0.0
C2174 C 0.57881 0.8913 0.77201 0.0
C2175 C 0.5759 0.90341 0.74047 0.0
C2176 C 0.57686 0.88945 0.79237 0.0
C2177 C 0.5708 0.89787 0.80298 0.0
C2178 C 0.57477 0.90174 0.76219 0.0
C2179 C 0.56714 0.90837 0.79265 0.0
C2180 C 0.57337 0.91497 0.73086 0.0
C2181 C 0.57912 0.89361 0.70951 0.0
N2182 N 0.56916 0.90998 0.77284 0.0
N2183 N 0.57879 0.89319 0.72949 0.0
H2184 H 0.6806 0.5949 0.30087 0.0
H2185 H 0.65911 0.54574 0.19956 0.0
H2186 H 0.66377 0.54381 0.29658 0.0
H2187 H 0.67979 0.59753 0.20219 0.0
H2188 H 0.6605 0.545 0.23527 0.0
H2189 H 0.6806 0.59641 0.26491 0.0
C2190 C 0.67703 0.58403 0.29238 0.0
C2191 C 0.67208 0.56918 0.30177 0.0
C2192 C 0.66475 0.55655 0.22809 0.0
C2193 C 0.67187 0.57079 0.26067 0.0
C2194 C 0.66384 0.55697 0.20768 0.0
C2195 C 0.66922 0.57171 0.19787 0.0
C2196 C 0.67105 0.57098 0.23889 0.0
C2197 C 0.67558 0.58591 0.20915 0.0
C2198 C 0.67695 0.58489 0.27186 0.0
C2199 C 0.6674 0.55545 0.29001 0.0
N2200 N 0.67626 0.58519 0.2291 0.0
N2201 N 0.66737 0.55659 0.27012 0.0
H2202 H 0.09731 0.69406 0.69909 0.0
H2203 H 0.09464 0.64655 0.79715 0.0
H2204 H 0.08755 0.64479 0.70011 0.0
H2205 H 0.0985 0.69355 0.79778 0.0
H2206 H 0.09262 0.64613 0.76145 0.0
H2207 H 0.09835 0.69454 0.73509 0.0
C2208 C 0.09536 0.68334 0.70689 0.0
C2209 C 0.09233 0.66935 0.69659 0.0
C2210 C 0.09386 0.65653 0.76936 0.0
C2211 C 0.09352 0.66983 0.73771 0.0
C2212 C 0.09494 0.65675 0.78979 0.0
C2213 C 0.09661 0.67006 0.80053 0.0
C2214 C 0.09454 0.66975 0.75947 0.0
C2215 C 0.09734 0.6831 0.7901 0.0
C2216 C 0.0959 0.68361 0.72743 0.0
C2217 C 0.08972 0.65576 0.70744 0.0
N2218 N 0.09629 0.68262 0.77013 0.0
N2219 N 0.09045 0.65637 0.72738 0.0
H2220 H 0.91714 0.59548 0.19905 0.0
H2221 H 0.89079 0.5439 0.29785 0.0
H2222 H 0.88441 0.54383 0.20006 0.0
H2223 H 0.90407 0.5942 0.29681 0.0
H2224 H 0.89252 0.54418 0.26191 0.0
H2225 H 0.9162 0.59574 0.23499 0.0
C2226 C 0.90971 0.58421 0.20673 0.0
C2227 C 0.90086 0.5696 0.19635 0.0
C2228 C 0.89507 0.55515 0.26956 0.0
C2229 C 0.9001 0.56984 0.23752 0.0
C2230 C 0.89418 0.55503 0.29002 0.0
C2231 C 0.8973 0.56905 0.30023 0.0
C2232 C 0.89933 0.56947 0.25925 0.0
C2233 C 0.90148 0.58312 0.28941 0.0
C2234 C 0.90926 0.58438 0.22726 0.0
C2235 C 0.89172 0.55535 0.20728 0.0
N2236 N 0.90246 0.58301 0.26946 0.0
N2237 N 0.89164 0.55583 0.22723 0.0
H2238 H 0.29854 0.87938 0.79771 0.0
H2239 H 0.35102 0.92041 0.7018 0.0
H2240 H 0.3465 0.92121 0.7997 0.0
H2241 H 0.29944 0.88763 0.70018 0.0
H2242 H 0.34982 0.92047 0.73763 0.0
H2243 H 0.29881 0.88167 0.76196 0.0
C2244 C 0.30907 0.88915 0.79069 0.0
C2245 C 0.32254 0.90009 0.80182 0.0
C2246 C 0.33875 0.91335 0.72942 0.0
C2247 C 0.32303 0.90258 0.76076 0.0
C2248 C 0.3394 0.91338 0.70892 0.0
C2249 C 0.32531 0.90394 0.69786 0.0
C2250 C 0.32395 0.9037 0.73901 0.0
C2251 C 0.31067 0.89485 0.70804 0.0
C2252 C 0.30924 0.8904 0.77024 0.0
C2253 C 0.33595 0.91231 0.79177 0.0
N2254 N 0.31039 0.89487 0.72802 0.0
N2255 N 0.33589 0.91317 0.77182 0.0
H2256 H 0.3987 0.31292 0.29874 0.0
H2257 H 0.45353 0.33968 0.2017 0.0
H2258 H 0.45088 0.33974 0.29917 0.0
H2259 H 0.40135 0.31345 0.20025 0.0
H2260 H 0.45261 0.33956 0.2375 0.0
H2261 H 0.39923 0.31246 0.26276 0.0
C2262 C 0.41026 0.31865 0.29128 0.0
C2263 C 0.42477 0.32644 0.302 0.0
C2264 C 0.44134 0.33383 0.22939 0.0
C2265 C 0.42546 0.32606 0.26085 0.0
C2266 C 0.44186 0.33398 0.20891 0.0
C2267 C 0.42749 0.32665 0.19792 0.0
C2268 C 0.42635 0.32627 0.23906 0.0
C2269 C 0.41273 0.31914 0.20812 0.0
C2270 C 0.41056 0.31845 0.27074 0.0
C2271 C 0.43939 0.33382 0.29153 0.0
N2272 N 0.41253 0.31917 0.22813 0.0
N2273 N 0.43936 0.33344 0.27157 0.0
H2274 H 0.09989 0.40108 0.69866 0.0
H2275 H 0.08011 0.43456 0.79617 0.0
H2276 H 0.07794 0.43108 0.69858 0.0
H2277 H 0.09493 0.39862 0.79691 0.0
H2278 H 0.07892 0.43308 0.76039 0.0
H2279 H 0.0982 0.3999 0.73462 0.0
C2280 C 0.09468 0.40738 0.70621 0.0
C2281 C 0.08907 0.41621 0.69561 0.0
C2282 C 0.08234 0.42544 0.76837 0.0
C2283 C 0.08708 0.41491 0.7367 0.0
C2284 C 0.08292 0.42619 0.78886 0.0
C2285 C 0.08765 0.41671 0.79966 0.0
C2286 C 0.08664 0.41523 0.7585 0.0
C2287 C 0.09147 0.40635 0.78923 0.0
C2288 C 0.09364 0.40664 0.72671 0.0
C2289 C 0.08226 0.42399 0.70613 0.0
N2290 N 0.09097 0.40595 0.76924 0.0
N2291 N 0.08155 0.42324 0.72607 0.0
H2292 H 0.64731 0.09674 0.29813 0.0
H2293 H 0.6895 0.09225 0.19866 0.0
H2294 H 0.69448 0.10106 0.29701 0.0
H2295 H 0.64835 0.09946 0.20061 0.0
H2296 H 0.69072 0.09345 0.23463 0.0
H2297 H 0.64646 0.09532 0.2623 0.0
C2298 C 0.65745 0.09728 0.29033 0.0
C2299 C 0.67096 0.09896 0.30056 0.0
C2300 C 0.68143 0.09476 0.22713 0.0
C2301 C 0.67014 0.09747 0.25947 0.0
C2302 C 0.68076 0.09414 0.20659 0.0
C2303 C 0.66875 0.09569 0.19651 0.0
C2304 C 0.66997 0.09685 0.23768 0.0
C2305 C 0.65762 0.09788 0.20767 0.0
C2306 C 0.65701 0.09659 0.26986 0.0
C2307 C 0.68388 0.09988 0.28967 0.0
N2308 N 0.65849 0.09836 0.2276 0.0
N2309 N 0.68313 0.09906 0.26969 0.0
H2310 H 0.59174 0.67524 0.69724 0.0
H2311 H 0.54277 0.66726 0.79604 0.0
H2312 H 0.54291 0.66676 0.69828 0.0
H2313 H 0.59319 0.68089 0.79538 0.0
H2314 H 0.54256 0.66661 0.76015 0.0
H2315 H 0.59257 0.67718 0.73313 0.0
C2316 C 0.58123 0.67388 0.70499 0.0
C2317 C 0.56721 0.67077 0.6947 0.0
C2318 C 0.55369 0.66979 0.76783 0.0
C2319 C 0.56802 0.6728 0.7358 0.0
C2320 C 0.55379 0.67008 0.78832 0.0
C2321 C 0.56801 0.67407 0.79871 0.0
C2322 C 0.56788 0.67343 0.75758 0.0
C2323 C 0.58201 0.67787 0.78794 0.0
C2324 C 0.58169 0.67492 0.72549 0.0
C2325 C 0.55388 0.66889 0.70557 0.0
N2326 N 0.58158 0.67739 0.76796 0.0
N2327 N 0.55461 0.66991 0.7255 0.0
H2328 H 0.45504 0.1884 0.05976 0.0
H2329 H 0.40519 0.23459 0.06191 0.0
H2330 H 0.40333 0.16421 0.05111 0.0
H2331 H 0.45714 0.25892 0.05668 0.0
H2332 H 0.40412 0.20862 0.05781 0.0
H2333 H 0.45604 0.21433 0.05802 0.0
C2334 C 0.44391 0.1885 0.05717 0.0
C2335 C 0.42906 0.17402 0.05564 0.0
C2336 C 0.41574 0.21965 0.05737 0.0
C2337 C 0.4301 0.20379 0.05415 0.0
C2338 C 0.41636 0.23445 0.05982 0.0
C2339 C 0.43128 0.24889 0.05973 0.0
C2340 C 0.43017 0.21931 0.05505 0.0
C2341 C 0.44538 0.24807 0.05672 0.0
C2342 C 0.44449 0.20335 0.05632 0.0
C2343 C 0.41501 0.17502 0.05273 0.0
N2344 N 0.44449 0.23351 0.05468 0.0
N2345 N 0.41586 0.18964 0.05226 0.0
H2346 H 0.19305 0.46041 0.54513 0.0
H2347 H 0.23666 0.40817 0.55525 0.0
H2348 H 0.16831 0.40928 0.55787 0.0
H2349 H 0.26223 0.45962 0.5445 0.0
H2350 H 0.21116 0.40771 0.55085 0.0
H2351 H 0.21805 0.45977 0.54002 0.0
C2352 C 0.19285 0.44904 0.54673 0.0
C2353 C 0.17861 0.43492 0.55218 0.0
C2354 C 0.22234 0.41909 0.54925 0.0
C2355 C 0.20712 0.43408 0.54624 0.0
C2356 C 0.23695 0.41934 0.55161 0.0
C2357 C 0.25164 0.434 0.55048 0.0
C2358 C 0.22238 0.43361 0.54586 0.0
C2359 C 0.25119 0.44811 0.54596 0.0
C2360 C 0.20711 0.44866 0.54371 0.0
C2361 C 0.17897 0.42045 0.55362 0.0
N2362 N 0.23678 0.44759 0.54402 0.0
N2363 N 0.19303 0.42044 0.55088 0.0
H2364 H 0.81442 0.24538 0.03857 0.0
H2365 H 0.73008 0.18882 0.08961 0.0
H2366 H 0.79365 0.26251 0.08217 0.0
H2367 H 0.74275 0.17655 0.03391 0.0
H2368 H 0.75367 0.2159 0.08717 0.0
H2369 H 0.78848 0.22024 0.03604 0.0
C2370 C 0.80435 0.24399 0.04737 0.0
C2371 C 0.80629 0.256 0.06082 0.0
C2372 C 0.75125 0.20736 0.07537 0.0
C2373 C 0.77674 0.22717 0.05825 0.0
C2374 C 0.73787 0.1919 0.07684 0.0
C2375 C 0.73465 0.18049 0.06202 0.0
C2376 C 0.76162 0.21136 0.05911 0.0
C2377 C 0.74491 0.18508 0.04563 0.0
C2378 C 0.78958 0.2296 0.04597 0.0
C2379 C 0.79284 0.25343 0.07198 0.0
N2380 N 0.75811 0.20015 0.04471 0.0
N2381 N 0.77871 0.23923 0.07062 0.0
H2382 H 0.58586 0.75649 0.5569 0.0
H2383 H 0.53483 0.80203 0.55437 0.0
H2384 H 0.53372 0.73157 0.55471 0.0
H2385 H 0.58568 0.8252 0.5682 0.0
H2386 H 0.53467 0.77661 0.54877 0.0
H2387 H 0.5864 0.78226 0.55527 0.0
C2388 C 0.57452 0.75645 0.55598 0.0
C2389 C 0.55972 0.74188 0.55624 0.0
C2390 C 0.54587 0.78729 0.55292 0.0
C2391 C 0.56024 0.77133 0.55428 0.0
C2392 C 0.54598 0.80179 0.55603 0.0
C2393 C 0.56025 0.81566 0.56195 0.0
C2394 C 0.56015 0.78673 0.55564 0.0
C2395 C 0.57435 0.8147 0.56399 0.0
C2396 C 0.57484 0.77116 0.555 0.0
C2397 C 0.54541 0.74252 0.55452 0.0
N2398 N 0.57393 0.80047 0.56091 0.0
N2399 N 0.54602 0.75703 0.55381 0.0
H2400 H 0.73529 0.54316 0.04936 0.0
H2401 H 0.83038 0.5926 0.06971 0.0
H2402 H 0.76104 0.59244 0.07018 0.0
H2403 H 0.80513 0.54324 0.04916 0.0
H2404 H 0.80546 0.59359 0.06658 0.0
H2405 H 0.76107 0.54381 0.04561 0.0
C2406 C 0.74638 0.55418 0.0529 0.0
C2407 C 0.74601 0.56771 0.0603 0.0
C2408 C 0.80536 0.58257 0.0626 0.0
C2409 C 0.7755 0.56848 0.05626 0.0
C2410 C 0.81957 0.58198 0.06447 0.0
C2411 C 0.81975 0.56775 0.05992 0.0
C2412 C 0.79116 0.56878 0.05627 0.0
C2413 C 0.80551 0.55445 0.0528 0.0
C2414 C 0.76108 0.55452 0.05085 0.0
C2415 C 0.76074 0.58163 0.0648 0.0
N2416 N 0.79172 0.55523 0.05138 0.0
N2417 N 0.77486 0.58161 0.06284 0.0
H2418 H 0.24698 0.81866 0.59772 0.0
H2419 H 0.18318 0.74275 0.53668 0.0
H2420 H 0.25143 0.81595 0.53491 0.0
H2421 H 0.17318 0.75589 0.59355 0.0
H2422 H 0.20813 0.7691 0.53497 0.0
H2423 H 0.22 0.79497 0.59622 0.0
C2424 C 0.2422 0.813 0.5836 0.0
C2425 C 0.25139 0.81906 0.56644 0.0
C2426 C 0.20035 0.76623 0.5477 0.0
C2427 C 0.22057 0.79197 0.56455 0.0
C2428 C 0.18612 0.75124 0.54867 0.0
C2429 C 0.17629 0.74702 0.56547 0.0
C2430 C 0.20473 0.77692 0.5637 0.0
C2431 C 0.18065 0.75846 0.58058 0.0
C2432 C 0.22678 0.79957 0.58271 0.0
C2433 C 0.24464 0.81152 0.54844 0.0
N2434 N 0.19462 0.77279 0.57943 0.0
N2435 N 0.22963 0.79817 0.54796 0.0
H2436 H 0.79595 0.52819 0.45621 0.0
H2437 H 0.74861 0.57726 0.46092 0.0
H2438 H 0.8181 0.57965 0.44648 0.0
H2439 H 0.72546 0.5259 0.45041 0.0
H2440 H 0.77438 0.578 0.46554 0.0
H2441 H 0.77038 0.52715 0.46342 0.0
C2442 C 0.7955 0.53929 0.4557 0.0
C2443 C 0.80916 0.55398 0.45033 0.0
C2444 C 0.7636 0.56653 0.46254 0.0
C2445 C 0.78004 0.55288 0.45898 0.0
C2446 C 0.74889 0.56608 0.46005 0.0
C2447 C 0.73498 0.55152 0.45504 0.0
C2448 C 0.76433 0.55232 0.4601 0.0
C2449 C 0.73601 0.53741 0.45394 0.0
C2450 C 0.78093 0.53868 0.45996 0.0
C2451 C 0.80795 0.56804 0.45057 0.0
N2452 N 0.75049 0.53817 0.45626 0.0
N2453 N 0.7936 0.56711 0.45461 0.0
H2454 H 0.1666 0.7557 0.94589 0.0
H2455 H 0.2625 0.79999 0.95762 0.0
H2456 H 0.19293 0.73044 0.95545 0.0
H2457 H 0.23601 0.82414 0.94233 0.0
H2458 H 0.23685 0.77494 0.96263 0.0
H2459 H 0.19153 0.78131 0.95087 0.0
C2460 C 0.17756 0.75551 0.9494 0.0
C2461 C 0.17771 0.7409 0.95 0.0
C2462 C 0.23668 0.78578 0.9584 0.0
C2463 C 0.20639 0.77024 0.95532 0.0
C2464 C 0.25131 0.80006 0.95544 0.0
C2465 C 0.25143 0.81415 0.94928 0.0
C2466 C 0.22206 0.78558 0.95514 0.0
C2467 C 0.23655 0.81362 0.94715 0.0
C2468 C 0.19184 0.77016 0.95209 0.0
C2469 C 0.19234 0.74144 0.95442 0.0
N2470 N 0.22249 0.79954 0.94987 0.0
N2471 N 0.20613 0.75589 0.9567 0.0
H2472 H 0.40386 0.16925 0.43565 0.0
H2473 H 0.45357 0.26455 0.45228 0.0
H2474 H 0.45422 0.19523 0.45211 0.0
H2475 H 0.40262 0.23769 0.43871 0.0
H2476 H 0.4534 0.23904 0.4565 0.0
H2477 H 0.40248 0.19382 0.44071 0.0
C2478 C 0.4146 0.18014 0.44047 0.0
C2479 C 0.42923 0.18031 0.44322 0.0
C2480 C 0.44222 0.23873 0.45281 0.0
C2481 C 0.4278 0.2085 0.44896 0.0
C2482 C 0.4423 0.25328 0.45049 0.0
C2483 C 0.42814 0.25323 0.44485 0.0
C2484 C 0.42789 0.22404 0.4494 0.0
C2485 C 0.41389 0.23829 0.44261 0.0
C2486 C 0.41381 0.19415 0.44343 0.0
C2487 C 0.44271 0.19462 0.44982 0.0
N2488 N 0.41417 0.22431 0.4447 0.0
N2489 N 0.44174 0.20823 0.45222 0.0
H2490 H 0.26066 0.45511 0.95498 0.0
H2491 H 0.17129 0.41208 0.91438 0.0
H2492 H 0.23718 0.40726 0.92956 0.0
H2493 H 0.18805 0.4503 0.9574 0.0
H2494 H 0.19563 0.41033 0.91983 0.0
H2495 H 0.23442 0.45372 0.95686 0.0
C2496 C 0.24997 0.4442 0.95011 0.0
C2497 C 0.25116 0.43138 0.94177 0.0
C2498 C 0.19395 0.419 0.92824 0.0
C2499 C 0.22124 0.42988 0.94355 0.0
C2500 C 0.18014 0.42007 0.92503 0.0
C2501 C 0.17784 0.43145 0.93532 0.0
C2502 C 0.20569 0.42961 0.94161 0.0
C2503 C 0.18948 0.44139 0.94916 0.0
C2504 C 0.23502 0.44345 0.95112 0.0
C2505 C 0.2369 0.41761 0.93558 0.0
N2506 N 0.20308 0.4404 0.95173 0.0
N2507 N 0.22258 0.41731 0.93635 0.0
H2508 H 0.75828 0.16941 0.43787 0.0
H2509 H 0.8001 0.26256 0.4612 0.0
H2510 H 0.73347 0.19019 0.46878 0.0
H2511 H 0.82677 0.23846 0.44687 0.0
H2512 H 0.77578 0.23616 0.46591 0.0
H2513 H 0.78371 0.19423 0.44316 0.0
C2514 C 0.75814 0.17903 0.44613 0.0
C2515 C 0.74356 0.17766 0.4527 0.0
C2516 C 0.78702 0.23666 0.46207 0.0
C2517 C 0.7728 0.20647 0.45825 0.0
C2518 C 0.80086 0.2517 0.45929 0.0
C2519 C 0.81541 0.25267 0.45345 0.0
C2520 C 0.78771 0.22251 0.45867 0.0
C2521 C 0.81582 0.23826 0.45142 0.0
C2522 C 0.77273 0.1933 0.44903 0.0
C2523 C 0.7443 0.19079 0.46298 0.0
N2524 N 0.80211 0.22377 0.45373 0.0
N2525 N 0.75864 0.20474 0.46518 0.0
H2526 H 0.52668 0.72668 0.93666 0.0
H2527 H 0.56976 0.81957 0.96727 0.0
H2528 H 0.57339 0.75183 0.96471 0.0
H2529 H 0.525 0.79441 0.93493 0.0
H2530 H 0.56875 0.79372 0.97287 0.0
H2531 H 0.52327 0.75 0.94253 0.0
C2532 C 0.53613 0.73709 0.9443 0.0
C2533 C 0.55044 0.73751 0.94992 0.0
C2534 C 0.55903 0.79383 0.9648 0.0
C2535 C 0.54677 0.76432 0.95647 0.0
C2536 C 0.55957 0.80855 0.96169 0.0
C2537 C 0.54758 0.8091 0.95035 0.0
C2538 C 0.54639 0.77963 0.95655 0.0
C2539 C 0.53466 0.79452 0.9434 0.0
C2540 C 0.53419 0.75039 0.94766 0.0
C2541 C 0.56221 0.75111 0.96007 0.0
N2542 N 0.5345 0.78042 0.94644 0.0
N2543 N 0.56024 0.76414 0.96274 0.0
H2544 H 0.32396 0.97353 0.94697 0.0
H2545 H 0.34554 0.00828 0.0562 0.0
H2546 H 0.31948 0.94485 0.99823 0.0
H2547 H 0.36345 0.03732 0.00361 0.0
H2548 H 0.32841 0.98477 0.03574 0.0
H2549 H 0.33072 0.99659 0.96844 0.0
C2550 C 0.32419 0.972 0.96273 0.0
C2551 C 0.32154 0.95732 0.97075 0.0
C2552 C 0.3359 0.99638 0.02876 0.0
C2553 C 0.32906 0.98358 0.99534 0.0
C2554 C 0.34576 0.00978 0.0404 0.0
C2555 C 0.35626 0.02475 0.03161 0.0
C2556 C 0.33652 -0.00203 0.00821 0.0
C2557 C 0.35561 0.02606 0.01109 0.0
C2558 C 0.32797 0.98514 0.97496 0.0
C2559 C 0.32148 0.95591 0.99133 0.0
N2560 N 0.34609 0.01279 7e-05 0.0
N2561 N 0.32545 0.96895 0.0029 0.0
H2562 H 0.34557 0.33367 0.4412 0.0
H2563 H 0.32281 0.3466 0.54994 0.0
H2564 H 0.36426 0.3239 0.49416 0.0
H2565 H 0.32191 0.37328 0.49908 0.0
H2566 H 0.32954 0.33029 0.52844 0.0
H2567 H 0.32848 0.34022 0.46149 0.0
C2568 C 0.34597 0.3327 0.45704 0.0
C2569 C 0.35672 0.32861 0.46595 0.0
C2570 C 0.32755 0.33954 0.52202 0.0
C2571 C 0.33692 0.33571 0.48912 0.0
C2572 C 0.32382 0.34893 0.53427 0.0
C2573 C 0.32219 0.36165 0.52642 0.0
C2574 C 0.32952 0.34279 0.50178 0.0
C2575 C 0.32307 0.36367 0.50589 0.0
C2576 C 0.33613 0.33633 0.46856 0.0
C2577 C 0.35624 0.327 0.48653 0.0
N2578 N 0.32689 0.35449 0.49432 0.0
N2579 N 0.34667 0.33076 0.49742 0.0
H2580 H 0.04379 0.37998 0.00146 0.0
H2581 H 0.97339 0.33326 0.05311 0.0
H2582 H 0.0167 0.35606 0.94923 0.0
H2583 H 0.95065 0.33123 0.99751 0.0
H2584 H -0.00116 0.34176 0.0359 0.0
H2585 H 0.01982 0.36349 0.02128 0.0
C2586 C 0.03283 0.37099 0.99424 0.0
C2587 C 0.03214 0.36945 0.9737 0.0
C2588 C 0.98831 0.33951 0.02745 0.0
C2589 C 0.00468 0.35027 0.99628 0.0
C2590 C 0.97371 0.33441 0.03724 0.0
C2591 C 0.95999 0.33187 0.02674 0.0
C2592 C 0.98917 0.34219 0.00705 0.0
C2593 C 0.96107 0.33347 0.0062 0.0
C2594 C 0.01917 0.36141 0.00559 0.0
C2595 C 0.01773 0.35758 0.96505 0.0
N2596 N 0.97546 0.33869 0.99704 0.0
N2597 N 0.00445 0.34864 0.97636 0.0
H2598 H 0.6306 0.01366 0.44536 0.0
H2599 H 0.64614 0.97365 0.53852 0.0
H2600 H 0.67526 0.03738 0.47799 0.0
H2601 H 0.60703 0.94774 0.49737 0.0
H2602 H 0.65851 0.99632 0.51537 0.0
H2603 H 0.6231 0.98856 0.46281 0.0
C2604 C 0.63888 0.01347 0.45612 0.0
C2605 C 0.65345 0.02753 0.46047 0.0
C2606 C 0.64738 0.98553 0.51129 0.0
C2607 C 0.64494 -0.00101 0.4807 0.0
C2608 C 0.64028 0.97263 0.52453 0.0
C2609 C 0.62543 0.95884 0.51999 0.0
C2610 C 0.63946 0.98466 0.49353 0.0
C2611 C 0.61851 0.95806 0.50151 0.0
C2612 C 0.63465 -0.00084 0.46604 0.0
C2613 C 0.66389 0.02672 0.47433 0.0
N2614 N 0.62546 0.97087 0.48911 0.0
N2615 N 0.65931 0.01271 0.48424 0.0
H2616 H 0.66966 0.64712 0.04156 0.0
H2617 H 0.62939 0.64635 0.9387 0.0
H2618 H 0.65678 0.61085 0.99643 0.0
H2619 H 0.63958 0.68218 0.98367 0.0
H2620 H 0.64409 0.63638 0.95758 0.0
H2621 H 0.66278 0.66272 0.01894 0.0
C2622 C 0.66552 0.64249 0.02688 0.0
C2623 C 0.66366 0.62755 0.02099 0.0
C2624 C 0.64329 0.64654 0.96327 0.0
C2625 C 0.65593 0.6454 0.99503 0.0
C2626 C 0.635 0.65239 0.95235 0.0
C2627 C 0.63305 0.66507 0.95964 0.0
C2628 C 0.64955 0.65322 0.9818 0.0
C2629 C 0.64043 0.67214 0.97766 0.0
C2630 C 0.66169 0.65145 0.01395 0.0
C2631 C 0.65857 0.62234 0.00165 0.0
N2632 N 0.64818 0.66598 0.98826 0.0
N2633 N 0.65475 0.63117 0.98947 0.0
H2634 H 0.01561 0.65861 0.5519 0.0
H2635 H 0.94397 0.61587 0.50024 0.0
H2636 H 0.03724 0.65369 0.49854 0.0
H2637 H 0.9733 0.631 0.44777 0.0
H2638 H 0.96821 0.63124 0.52001 0.0
H2639 H 0.99081 0.65113 0.53371 0.0
C2640 C 0.01517 0.65607 0.53631 0.0
C2641 C 0.02837 0.65643 0.52679 0.0
C2642 C 0.96939 0.63168 0.50418 0.0
C2643 C -0.00015 0.64725 0.50603 0.0
C2644 C 0.95552 0.6227 0.49288 0.0
C2645 C 0.95666 0.62204 0.47237 0.0
C2646 C 0.98453 0.64003 0.49485 0.0
C2647 C 0.97187 0.63124 0.46355 0.0
C2648 C 0.0009 0.65155 0.52598 0.0
C2649 C 0.02718 0.65312 0.50656 0.0
N2650 N 0.98524 0.63964 0.47487 0.0
N2651 N 0.01312 0.64854 0.4969 0.0
H2652 H 0.63716 0.97557 0.94513 0.0
H2653 H 0.65116 0.01199 0.05362 0.0
H2654 H 0.61612 0.94691 0.99735 0.0
H2655 H 0.66532 0.04065 0.00061 0.0
H2656 H 0.64412 0.98791 0.03385 0.0
H2657 H 0.65318 -0.0008 0.96588 0.0
C2658 C 0.63605 0.97421 0.96097 0.0
C2659 C 0.62507 0.95931 0.96951 0.0
C2660 C 0.649 -0.00048 0.02658 0.0
C2661 C 0.64336 0.98628 0.99333 0.0
C2662 C 0.6531 0.01326 0.03786 0.0
C2663 C 0.65856 0.02824 0.02865 0.0
C2664 C 0.65041 0.00084 0.006 0.0
C2665 C 0.66082 0.02923 0.00821 0.0
C2666 C 0.64523 0.98769 0.9728 0.0
C2667 C 0.62441 0.95815 0.99012 0.0
N2668 N 0.65656 0.01568 0.99754 0.0
N2669 N 0.63324 0.97152 0.00132 0.0
H2670 H 0.67041 0.62193 0.49436 0.0
H2671 H 0.61931 0.6664 0.49988 0.0
H2672 H 0.65575 0.63851 0.44352 0.0
H2673 H 0.63588 0.65214 0.55113 0.0
H2674 H 0.63654 0.66047 0.47938 0.0
H2675 H 0.66212 0.63713 0.51546 0.0
C2676 C 0.6658 0.62908 0.48758 0.0
C2677 C 0.66351 0.62873 0.46715 0.0
C2678 C 0.63658 0.65882 0.49514 0.0
C2679 C 0.65365 0.64586 0.49127 0.0
C2680 C 0.6268 0.66231 0.50692 0.0
C2681 C 0.62596 0.65958 0.52729 0.0
C2682 C 0.64549 0.65236 0.50371 0.0
C2683 C 0.63582 0.65405 0.53545 0.0
C2684 C 0.66095 0.63766 0.49967 0.0
C2685 C 0.65735 0.63812 0.45923 0.0
N2686 N 0.64502 0.65042 0.5236 0.0
N2687 N 0.65242 0.64612 0.47133 0.0
H2688 H 0.98191 0.64247 0.05148 0.0
H2689 H 0.01499 0.66112 0.9413 0.0
H2690 H 0.95222 0.6222 -0.00024 0.0
H2691 H 0.04532 0.67172 0.99261 0.0
H2692 H 0.99175 0.65328 0.96283 0.0
H2693 H 0.00494 0.65939 0.03025 0.0
C2694 C 0.98018 0.64167 0.03569 0.0
C2695 C 0.96516 0.63066 0.02741 0.0
C2696 C 0.00355 0.65758 0.96935 0.0
C2697 C 0.9914 0.65012 0.00308 0.0
C2698 C 0.01681 0.66201 0.95708 0.0
C2699 C 0.03207 0.66674 0.96516 0.0
C2700 C 0.00556 0.65787 0.98983 0.0
C2701 C 0.0338 0.66811 0.9857 0.0
C2702 C 0.99331 0.6514 0.0236 0.0
C2703 C 0.96353 0.63049 0.00686 0.0
N2704 N 0.02065 0.66344 0.99734 0.0
N2705 N 0.97654 0.63991 0.9954 0.0
H2706 H 0.33693 0.95102 0.4958 0.0
H2707 H 0.37975 0.0463 0.49231 0.0
H2708 H 0.3438 0.9803 0.54716 0.0
H2709 H 0.36294 0.01645 0.44022 0.0
H2710 H 0.36447 0.02231 0.51247 0.0
H2711 H 0.34438 0.97459 0.47499 0.0
C2712 C 0.33986 0.96241 0.50265 0.0
C2713 C 0.33996 0.96382 0.52318 0.0
C2714 C 0.36393 0.02102 0.49662 0.0
C2715 C 0.34859 0.99082 0.49957 0.0
C2716 C 0.3726 0.03476 0.48504 0.0
C2717 C 0.37283 0.03341 0.46448 0.0
C2718 C 0.3556 0.00577 0.48763 0.0
C2719 C 0.36347 0.01804 0.45601 0.0
C2720 C 0.34404 0.97583 0.49079 0.0
C2721 C 0.3436 0.97874 0.53136 0.0
N2722 N 0.35542 0.00479 0.46763 0.0
N2723 N 0.34802 0.99174 0.51953 0.0
H2724 H 0.36495 0.34584 0.05076 0.0
H2725 H 0.3467 0.36232 0.94119 0.0
H2726 H 0.38281 0.334 -0.00125 0.0
H2727 H 0.33466 0.37987 0.99338 0.0
H2728 H 0.35526 0.34711 0.96203 0.0
H2729 H 0.34886 0.35328 0.0299 0.0
C2730 C 0.36527 0.34455 0.03497 0.0
C2731 C 0.37542 0.33955 0.02644 0.0
C2732 C 0.35054 0.35413 0.96889 0.0
C2733 C 0.35722 0.34821 0.0025 0.0
C2734 C 0.34572 0.36287 0.95701 0.0
C2735 C 0.34016 0.37257 0.96554 0.0
C2736 C 0.34985 0.35514 0.98945 0.0
C2737 C 0.3388 0.37252 0.98612 0.0
C2738 C 0.35616 0.34888 0.02306 0.0
C2739 C 0.37542 0.33816 0.00589 0.0
N2740 N 0.34379 0.3641 0.99737 0.0
N2741 N 0.3666 0.34263 0.9946 0.0
H2742 H 0.01846 0.35707 0.54213 0.0
H2743 H 0.98207 0.35305 0.43574 0.0
H2744 H 0.04632 0.38567 0.4926 0.0
H2745 H 0.95377 0.32358 0.48447 0.0
H2746 H 0.00664 0.36151 0.45488 0.0
H2747 H 0.99569 0.34114 0.52002 0.0
C2748 C 0.01987 0.3598 0.52655 0.0
C2749 C 0.03417 0.37288 0.51922 0.0
C2750 C 0.9951 0.35301 0.46133 0.0
C2751 C 0.00819 0.35488 0.49392 0.0
C2752 C 0.98109 0.34821 0.45041 0.0
C2753 C 0.96591 0.33782 0.45868 0.0
C2754 C 0.9939 0.34756 0.48079 0.0
C2755 C 0.96526 0.33166 0.4776 0.0
C2756 C 0.00686 0.35076 0.51395 0.0
C2757 C 0.03536 0.37593 0.49893 0.0
N2758 N 0.97907 0.33685 0.48817 0.0
N2759 N 0.02248 0.36713 0.48704 0.0
H2760 H 0.52106 0.12047 0.08721 0.0
H2761 H 0.57578 0.0883 0.04026 0.0
H2762 H 0.5008 0.07909 0.04838 0.0
H2763 H 0.5844 0.11006 0.09801 0.0
H2764 H 0.55017 0.08831 0.03886 0.0
H2765 H 0.54667 0.12072 0.08675 0.0
C2766 C 0.52191 0.11137 0.07865 0.0
C2767 C 0.50856 0.09956 0.06809 0.0
C2768 C 0.55777 0.0931 0.05177 0.0
C2769 C 0.53813 0.10014 0.0671 0.0
C2770 C 0.57235 0.09303 0.05268 0.0
C2771 C 0.58244 0.09926 0.06927 0.0
C2772 C 0.55337 0.0997 0.06739 0.0
C2773 C 0.57736 0.10549 0.08469 0.0
C2774 C 0.5366 0.11161 0.07832 0.0
C2775 C 0.51072 0.08848 0.05669 0.0
N2776 N 0.56326 0.10563 0.08331 0.0
N2777 N 0.52523 0.08903 0.05651 0.0
H2778 H 0.47002 0.58824 0.59957 0.0
H2779 H 0.41604 0.5025 0.54875 0.0
H2780 H 0.48196 0.57692 0.54266 0.0
H2781 H 0.39822 0.52181 0.59342 0.0
H2782 H 0.44122 0.52856 0.54751 0.0
H2783 H 0.44468 0.56269 0.59903 0.0
C2784 C 0.46728 0.58049 0.58682 0.0
C2785 C 0.47816 0.58492 0.57102 0.0
C2786 C 0.43174 0.52705 0.55752 0.0
C2787 C 0.44916 0.55528 0.5706 0.0
C2788 C 0.41733 0.51221 0.55819 0.0
C2789 C 0.40497 0.50985 0.57133 0.0
C2790 C 0.43387 0.53957 0.5702 0.0
C2791 C 0.40749 0.52286 0.58338 0.0
C2792 C 0.45281 0.56582 0.58661 0.0
C2793 C 0.47405 0.57401 0.55525 0.0
N2794 N 0.42166 0.53709 0.5826 0.0
N2795 N 0.45989 0.55967 0.55546 0.0
H2796 H 0.87282 0.40171 0.0928 0.0
H2797 H 0.90442 0.48707 0.03956 0.0
H2798 H 0.90888 0.41923 0.0469 0.0
H2799 H 0.87551 0.4723 0.09247 0.0
H2800 H 0.90453 0.46148 0.03993 0.0
H2801 H 0.87189 0.42668 0.0907 0.0
C2802 C 0.88064 0.41085 0.08235 0.0
C2803 C 0.89108 0.4084 0.07016 0.0
C2804 C 0.89812 0.46385 0.05139 0.0
C2805 C 0.88988 0.43703 0.06745 0.0
C2806 C 0.8981 0.47848 0.05124 0.0
C2807 C 0.8899 0.48188 0.06597 0.0
C2808 C 0.88986 0.45253 0.06634 0.0
C2809 C 0.88174 0.47016 0.08058 0.0
C2810 C 0.88003 0.42509 0.08107 0.0
C2811 C 0.90058 0.42054 0.05652 0.0
N2812 N 0.88195 0.45606 0.08038 0.0
N2813 N 0.8998 0.43436 0.05557 0.0
H2814 H 0.39969 0.86826 0.59327 0.0
H2815 H 0.49156 0.91536 0.56263 0.0
H2816 H 0.41783 0.90685 0.55069 0.0
H2817 H 0.46756 0.86492 0.57923 0.0
H2818 H 0.46528 0.91365 0.56039 0.0
H2819 H 0.42515 0.86793 0.59095 0.0
C2820 C 0.40904 0.87658 0.58336 0.0
C2821 C 0.40677 0.88761 0.57216 0.0
C2822 C 0.46582 0.90295 0.56438 0.0
C2823 C 0.43585 0.8875 0.56967 0.0
C2824 C 0.48083 0.90386 0.56558 0.0
C2825 C 0.48191 0.89027 0.57123 0.0
C2826 C 0.45178 0.88846 0.56922 0.0
C2827 C 0.46746 0.87584 0.57528 0.0
C2828 C 0.42349 0.87636 0.58198 0.0
C2829 C 0.41916 0.89813 0.55948 0.0
N2830 N 0.45302 0.87536 0.5744 0.0
N2831 N 0.4333 0.89798 0.55875 0.0
H2832 H 0.595 0.47426 0.1025 0.0
H2833 H 0.51745 0.41 0.0417 0.0
H2834 H 0.58565 0.48216 0.04258 0.0
H2835 H 0.52546 0.40513 0.10322 0.0
H2836 H 0.54296 0.43575 0.04095 0.0
H2837 H 0.57032 0.44801 0.1021 0.0
C2838 C 0.58784 0.4704 0.08917 0.0
C2839 C 0.59245 0.48043 0.07252 0.0
C2840 C 0.53913 0.42901 0.05458 0.0
C2841 C 0.56394 0.45039 0.07206 0.0
C2842 C 0.52454 0.41434 0.05505 0.0
C2843 C 0.51928 0.40533 0.07254 0.0
C2844 C 0.54854 0.43472 0.07173 0.0
C2845 C 0.5291 0.41147 0.08931 0.0
C2846 C 0.57366 0.45544 0.089 0.0
C2847 C 0.58248 0.47489 0.0558 0.0
N2848 N 0.54321 0.42576 0.08848 0.0
N2849 N 0.56868 0.46024 0.05599 0.0
H2850 H 0.11993 0.52432 0.60292 0.0
H2851 H 0.09097 0.5792 0.54785 0.0
H2852 H 0.09521 0.51133 0.54704 0.0
H2853 H 0.12444 0.59599 0.59661 0.0
H2854 H 0.09201 0.55416 0.54736 0.0
H2855 H 0.12108 0.55042 0.60124 0.0
C2856 C 0.11473 0.52698 0.5903 0.0
C2857 C 0.10739 0.51563 0.57515 0.0
C2858 C 0.09919 0.56337 0.55809 0.0
C2859 C 0.10868 0.54549 0.57308 0.0
C2860 C 0.09867 0.57773 0.55832 0.0
C2861 C 0.10755 0.58973 0.57238 0.0
C2862 C 0.10857 0.56093 0.57209 0.0
C2863 C 0.11713 0.58697 0.58576 0.0
C2864 C 0.11547 0.54191 0.58929 0.0
C2865 C 0.10106 0.51978 0.55898 0.0
N2866 N 0.1173 0.57285 0.58536 0.0
N2867 N 0.10174 0.53434 0.55844 0.0
H2868 H 0.86131 0.46522 0.40911 0.0
H2869 H 0.9015 0.41535 0.45176 0.0
H2870 H 0.90369 0.48646 0.4462 0.0
H2871 H 0.86456 0.39753 0.40693 0.0
H2872 H 0.90024 0.44035 0.45346 0.0
H2873 H 0.86026 0.43925 0.41153 0.0
C2874 C 0.87043 0.46444 0.41774 0.0
C2875 C 0.88273 0.47811 0.42726 0.0
C2876 C 0.89236 0.43092 0.44333 0.0
C2877 C 0.88147 0.4483 0.43029 0.0
C2878 C 0.89301 0.41664 0.44244 0.0
C2879 C 0.88323 0.40445 0.42905 0.0
C2880 C 0.88177 0.43293 0.43085 0.0
C2881 C 0.87251 0.40675 0.41723 0.0
C2882 C 0.86976 0.44957 0.4192 0.0
C2883 C 0.89395 0.47624 0.43867 0.0
N2884 N 0.8721 0.42073 0.41837 0.0
N2885 N 0.89312 0.46163 0.43977 0.0
H2886 H 0.46517 0.87044 0.94481 0.0
H2887 H 0.41934 0.91595 0.90874 0.0
H2888 H 0.49011 0.91824 0.9195 0.0
H2889 H 0.39855 0.87664 0.95039 0.0
H2890 H 0.44519 0.91654 0.91147 0.0
H2891 H 0.44036 0.87197 0.94617 0.0
C2892 C 0.46542 0.88129 0.93965 0.0
C2893 C 0.47966 0.89421 0.93196 0.0
C2894 C 0.43501 0.90788 0.92014 0.0
C2895 C 0.45136 0.896 0.93331 0.0
C2896 C 0.42026 0.90748 0.91849 0.0
C2897 C 0.4068 0.89618 0.92929 0.0
C2898 C 0.43625 0.89673 0.93243 0.0
C2899 C 0.40866 0.88558 0.94189 0.0
C2900 C 0.4513 0.88219 0.9405 0.0
C2901 C 0.47939 0.90806 0.92562 0.0
N2902 N 0.42307 0.88601 0.94296 0.0
N2903 N 0.46541 0.90852 0.92623 0.0
H2904 H 0.50714 0.41299 0.39581 0.0
H2905 H 0.5835 0.47888 0.45653 0.0
H2906 H 0.51141 0.41033 0.45871 0.0
H2907 H 0.57469 0.48391 0.39535 0.0
H2908 H 0.55722 0.45395 0.45807 0.0
H2909 H 0.53215 0.43898 0.39563 0.0
C2910 C 0.5134 0.41787 0.4096 0.0
C2911 C 0.50728 0.40943 0.42728 0.0
C2912 C 0.56104 0.46056 0.44435 0.0
C2913 C 0.53592 0.43931 0.42723 0.0
C2914 C 0.57599 0.47484 0.44348 0.0
C2915 C 0.58139 0.48343 0.42572 0.0
C2916 C 0.55144 0.45485 0.42734 0.0
C2917 C 0.57121 0.47752 0.40924 0.0
C2918 C 0.52764 0.43277 0.40951 0.0
C2919 C 0.51571 0.41648 0.44476 0.0
N2920 N 0.5568 0.46358 0.41043 0.0
N2921 N 0.52968 0.43099 0.44429 0.0
H2922 H 0.08243 0.50568 0.89977 0.0
H2923 H 0.12258 0.59524 0.94302 0.0
H2924 H 0.11854 0.52302 0.94557 0.0
H2925 H 0.07902 0.5732 0.908 0.0
H2926 H 0.12204 0.56936 0.94358 0.0
H2927 H 0.08201 0.53099 0.9015 0.0
C2928 C 0.09031 0.51486 0.91015 0.0
C2929 C 0.10058 0.51229 0.92249 0.0
C2930 C 0.11257 0.5702 0.93586 0.0
C2931 C 0.10012 0.54128 0.92464 0.0
C2932 C 0.11282 0.58495 0.93561 0.0
C2933 C 0.1009 0.58647 0.92531 0.0
C2934 C 0.10037 0.55691 0.92563 0.0
C2935 C 0.08867 0.57273 0.91577 0.0
C2936 C 0.08999 0.52926 0.91124 0.0
C2937 C 0.11037 0.52449 0.93589 0.0
N2938 N 0.08878 0.55859 0.91607 0.0
N2939 N 0.10997 0.53852 0.93653 0.0
H2940 H 0.59941 0.13287 0.40442 0.0
H2941 H 0.51242 0.09937 0.45409 0.0
H2942 H 0.58021 0.0951 0.44826 0.0
H2943 H 0.52896 0.13071 0.40329 0.0
H2944 H 0.53816 0.09963 0.45462 0.0
H2945 H 0.57467 0.13429 0.40638 0.0
C2946 C 0.58997 0.12483 0.41443 0.0
C2947 C 0.59185 0.11373 0.42605 0.0
C2948 C 0.53616 0.10651 0.44344 0.0
C2949 C 0.5635 0.11544 0.42854 0.0
C2950 C 0.52144 0.10631 0.44306 0.0
C2951 C 0.51845 0.11501 0.4286 0.0
C2952 C 0.54801 0.11549 0.42928 0.0
C2953 C 0.53074 0.12401 0.4149 0.0
C2954 C 0.57586 0.12571 0.41561 0.0
C2955 C 0.57935 0.10391 0.43911 0.0
N2956 N 0.54492 0.12397 0.41556 0.0
N2957 N 0.56567 0.10495 0.43994 0.0
H2958 H 0.47239 0.60016 0.90683 0.0
H2959 H 0.41803 0.51301 0.95491 0.0
H2960 H 0.4922 0.57848 0.94539 0.0
H2961 H 0.40492 0.52907 0.90222 0.0
H2962 H 0.44402 0.53827 0.95516 0.0
H2963 H 0.44615 0.57555 0.90879 0.0
C2964 C 0.47128 0.5902 0.91564 0.0
C2965 C 0.48465 0.59135 0.92572 0.0
C2966 C 0.43538 0.53623 0.94362 0.0
C2967 C 0.45444 0.56319 0.92834 0.0
C2968 C 0.42057 0.52178 0.94339 0.0
C2969 C 0.40917 0.51882 0.92852 0.0
C2970 C 0.43877 0.54787 0.929 0.0
C2971 C 0.4131 0.53085 0.91421 0.0
C2972 C 0.45625 0.57618 0.91683 0.0
C2973 C 0.48226 0.5782 0.93742 0.0
N2974 N 0.42753 0.5448 0.91483 0.0
N2975 N 0.46744 0.56463 0.93837 0.0
loop_
_geom_bond_atom_site_label_1
_geom_bond_atom_site_label_2
_geom_bond_distance
_geom_bond_site_symmetry_2
_ccdc_geom_bond_type
Li0 N17 1.990 . S
Li0 O60 1.956 . S
Li0 O61 1.970 . S
Li0 O62 1.961 . S
Li1 N25 1.990 . S
Li1 O60 1.970 . S
Li1 O61 1.956 . S
Li1 O63 1.961 . S
Li2 N47 1.990 . S
Li2 O60 1.961 . S
Li2 O62 1.956 . S
Li2 O63 1.970 . S
Li3 N53 1.990 . S
Li3 O61 1.961 . S
Li3 O62 1.970 . S
Li3 O63 1.956 . S
C4 C6 1.348 . S
C4 C7 1.356 . S
C4 O60 1.325 . S
N5 C8 1.314 . S
N5 C9 1.279 . S
C6 C4 1.348 . S
C6 C8 1.353 . S
C6 H64 0.929 . S
C7 C4 1.356 . S
C7 C9 1.358 . S
C7 H65 0.930 . S
C8 N5 1.314 . S
C8 C6 1.353 . S
C8 H66 0.930 . S
C9 N5 1.279 . S
C9 C7 1.358 . S
C9 H67 0.930 . S
C10 C13 1.348 . S
C10 C14 1.356 . S
C10 O61 1.325 . S
C11 N12 1.279 . S
C11 C14 1.358 . S
C11 H68 0.930 . S
N12 C11 1.279 . S
N12 C15 1.314 . S
C13 C10 1.348 . S
C13 C15 1.353 . S
C13 H69 0.929 . S
C14 C10 1.356 . S
C14 C11 1.358 . S
C14 H70 0.930 . S
C15 N12 1.314 . S
C15 C13 1.353 . S
C15 H71 0.930 . S
C16 N17 1.314 . S
C16 C21 1.353 . S
C16 H22 0.930 . S
N17 Li0 1.990 . S
N17 C16 1.314 . S
N17 C19 1.279 . S
C18 C19 1.358 . S
C18 C20 1.356 . S
C18 H72 0.930 . S
C19 N17 1.279 . S
C19 C18 1.358 . S
C19 H23 0.930 . S
C20 C18 1.356 . S
C20 C21 1.348 . S
C21 C16 1.353 . S
C21 C20 1.348 . S
C21 H73 0.929 . S
H22 C16 0.930 . S
H23 C19 0.930 . S
C24 N25 1.314 . S
C24 C26 1.353 . S
C24 H30 0.930 . S
N25 Li1 1.990 . S
N25 C24 1.314 . S
N25 C28 1.279 . S
C26 C24 1.353 . S
C26 C29 1.348 . S
C26 H74 0.929 . S
C27 C28 1.358 . S
C27 C29 1.356 . S
C27 H75 0.930 . S
C28 N25 1.279 . S
C28 C27 1.358 . S
C28 H31 0.930 . S
C29 C26 1.348 . S
C29 C27 1.356 . S
H30 C24 0.930 . S
H31 C28 0.930 . S
C32 C34 1.348 . S
C32 C35 1.356 . S
C32 O62 1.325 . S
N33 C36 1.314 . S
N33 C37 1.279 . S
C34 C32 1.348 . S
C34 C36 1.353 . S
C34 H76 0.929 . S
C35 C32 1.356 . S
C35 C37 1.358 . S
C35 H77 0.930 . S
C36 N33 1.314 . S
C36 C34 1.353 . S
C36 H78 0.918 1_554 S
C37 N33 1.279 . S
C37 C35 1.358 . S
C37 H79 0.930 . S
C38 C39 1.348 . S
C38 C40 1.356 . S
C38 O63 1.325 . S
C39 C38 1.348 . S
C39 C41 1.353 . S
C39 H80 0.929 . S
C40 C38 1.356 . S
C40 C42 1.358 . S
C40 H81 0.930 . S
C41 C39 1.353 . S
C41 N43 1.314 . S
C41 H82 0.930 . S
C42 C40 1.358 . S
C42 N43 1.279 . S
C42 H83 0.930 . S
N43 C41 1.314 . S
N43 C42 1.279 . S
C44 C46 1.353 . S
C44 N47 1.314 . S
C44 H50 0.930 . S
C45 N47 1.279 . S
C45 C48 1.358 . S
C45 H51 0.930 . S
C46 C44 1.353 . S
C46 C49 1.348 . S
C46 H84 0.929 . S
N47 Li2 1.990 . S
N47 C44 1.314 . S
N47 C45 1.279 . S
C48 C45 1.358 . S
C48 C49 1.356 . S
C48 H85 0.930 . S
C49 C46 1.348 . S
C49 C48 1.356 . S
H50 C44 0.930 . S
H51 C45 0.930 . S
C52 N53 1.314 . S
C52 C54 1.353 . S
C52 H58 0.930 . S
N53 Li3 1.990 . S
N53 C52 1.314 . S
N53 C56 1.279 . S
C54 C52 1.353 . S
C54 C57 1.348 . S
C54 H86 0.929 . S
C55 C56 1.358 . S
C55 C57 1.356 . S
C55 H87 0.930 . S
C56 N53 1.279 . S
C56 C55 1.358 . S
C56 H59 0.930 . S
C57 C54 1.348 . S
C57 C55 1.356 . S
H58 C52 0.930 . S
H59 C56 0.930 . S
O60 Li0 1.956 . S
O60 Li1 1.970 . S
O60 Li2 1.961 . S
O60 C4 1.325 . S
O61 Li0 1.970 . S
O61 Li1 1.956 . S
O61 Li3 1.961 . S
O61 C10 1.325 . S
O62 Li0 1.961 . S
O62 Li2 1.956 . S
O62 Li3 1.970 . S
O62 C32 1.325 . S
O63 Li1 1.961 . S
O63 Li2 1.970 . S
O63 Li3 1.956 . S
O63 C38 1.325 . S
H64 C6 0.929 . S
H65 C7 0.930 . S
H66 C8 0.930 . S
H67 C9 0.930 . S
H68 C11 0.930 . S
H69 C13 0.929 . S
H70 C14 0.930 . S
H71 C15 0.930 . S
H72 C18 0.930 . S
H73 C21 0.929 . S
H74 C26 0.929 . S
H75 C27 0.930 . S
H76 C34 0.929 . S
H77 C35 0.930 . S
H78 C36 0.918 1_556 S
H79 C37 0.930 . S
H80 C39 0.929 . S
H81 C40 0.930 . S
H82 C41 0.930 . S
H83 C42 0.930 . S
H84 C46 0.929 . S
H85 C48 0.930 . S
H86 C54 0.929 . S
H87 C55 0.930 . S
Li88 N105 1.990 . S
Li88 O148 1.956 . S
Li88 O149 1.970 . S
Li88 O150 1.961 . S
Li89 N113 1.990 . S
Li89 O148 1.970 . S
Li89 O149 1.956 . S
Li89 O151 1.961 . S
Li90 N135 1.990 . S
Li90 O148 1.961 . S
Li90 O150 1.956 . S
Li90 O151 1.970 . S
Li91 N141 1.990 . S
Li91 O149 1.961 . S
Li91 O150 1.970 . S
Li91 O151 1.956 . S
C92 C94 1.348 . S
C92 C95 1.356 . S
C92 O148 1.325 . S
N93 C96 1.314 . S
N93 C97 1.279 . S
C94 C92 1.348 . S
C94 C96 1.353 . S
C94 H152 0.929 . S
C95 C92 1.356 . S
C95 C97 1.358 . S
C95 H153 0.930 . S
C96 N93 1.314 . S
C96 C94 1.353 . S
C96 H154 0.930 . S
C97 N93 1.279 . S
C97 C95 1.358 . S
C97 H155 0.930 . S
C98 C101 1.348 . S
C98 C102 1.356 . S
C98 O149 1.325 . S
C99 N100 1.279 . S
C99 C102 1.358 . S
C99 H156 0.930 . S
N100 C99 1.279 . S
N100 C103 1.314 . S
C101 C98 1.348 . S
C101 C103 1.353 . S
C101 H157 0.929 . S
C102 C98 1.356 . S
C102 C99 1.358 . S
C102 H158 0.930 . S
C103 N100 1.314 . S
C103 C101 1.353 . S
C103 H159 0.930 . S
C104 N105 1.314 . S
C104 C109 1.353 . S
C104 H110 0.930 . S
N105 Li88 1.990 . S
N105 C104 1.314 . S
N105 C107 1.279 . S
C106 C107 1.358 . S
C106 C108 1.356 . S
C106 H160 0.930 . S
C107 N105 1.279 . S
C107 C106 1.358 . S
C107 H111 0.930 . S
C108 C106 1.356 . S
C108 C109 1.348 . S
C109 C104 1.353 . S
C109 C108 1.348 . S
C109 H161 0.929 . S
H110 C104 0.930 . S
H111 C107 0.930 . S
C112 N113 1.314 . S
C112 C114 1.353 . S
C112 H118 0.930 . S
N113 Li89 1.990 . S
N113 C112 1.314 . S
N113 C116 1.279 . S
C114 C112 1.353 . S
C114 C117 1.348 . S
C114 H162 0.929 . S
C115 C116 1.358 . S
C115 C117 1.356 . S
C115 H163 0.930 . S
C116 N113 1.279 . S
C116 C115 1.358 . S
C116 H119 0.930 . S
C117 C114 1.348 . S
C117 C115 1.356 . S
H118 C112 0.930 . S
H119 C116 0.930 . S
C120 C122 1.348 . S
C120 C123 1.356 . S
C120 O150 1.325 . S
N121 C124 1.314 . S
N121 C125 1.279 . S
C122 C120 1.348 . S
C122 C124 1.353 . S
C122 H164 0.929 . S
C123 C120 1.356 . S
C123 C125 1.358 . S
C123 H165 0.930 . S
C124 N121 1.314 . S
C124 C122 1.353 . S
C124 H166 0.930 . S
C125 N121 1.279 . S
C125 C123 1.358 . S
C125 H167 0.930 . S
C126 C127 1.348 . S
C126 C128 1.356 . S
C126 O151 1.325 . S
C127 C126 1.348 . S
C127 C129 1.353 . S
C127 H168 0.929 . S
C128 C126 1.356 . S
C128 C130 1.358 . S
C128 H169 0.930 . S
C129 C127 1.353 . S
C129 N131 1.314 . S
C129 H170 0.930 . S
C130 C128 1.358 . S
C130 N131 1.279 . S
C130 H171 0.930 . S
N131 C129 1.314 . S
N131 C130 1.279 . S
C132 C134 1.353 . S
C132 N135 1.314 . S
C132 H138 0.930 . S
C133 N135 1.279 . S
C133 C136 1.358 . S
C133 H139 0.930 . S
C134 C132 1.353 . S
C134 C137 1.348 . S
C134 H172 0.929 . S
N135 Li90 1.990 . S
N135 C132 1.314 . S
N135 C133 1.279 . S
C136 C133 1.358 . S
C136 C137 1.356 . S
C136 H173 0.930 . S
C137 C134 1.348 . S
C137 C136 1.356 . S
H138 C132 0.930 . S
H139 C133 0.930 . S
C140 N141 1.314 . S
C140 C142 1.353 . S
C140 H146 0.930 . S
N141 Li91 1.990 . S
N141 C140 1.314 . S
N141 C144 1.279 . S
C142 C140 1.353 . S
C142 C145 1.348 . S
C142 H174 0.929 . S
C143 C144 1.358 . S
C143 C145 1.356 . S
C143 H175 0.930 . S
C144 N141 1.279 . S
C144 C143 1.358 . S
C144 H147 0.930 . S
C145 C142 1.348 . S
C145 C143 1.356 . S
H146 C140 0.930 . S
H147 C144 0.930 . S
O148 Li88 1.956 . S
O148 Li89 1.970 . S
O148 Li90 1.961 . S
O148 C92 1.325 . S
O149 Li88 1.970 . S
O149 Li89 1.956 . S
O149 Li91 1.961 . S
O149 C98 1.325 . S
O150 Li88 1.961 . S
O150 Li90 1.956 . S
O150 Li91 1.970 . S
O150 C120 1.325 . S
O151 Li89 1.961 . S
O151 Li90 1.970 . S
O151 Li91 1.956 . S
O151 C126 1.325 . S
H152 C94 0.929 . S
H153 C95 0.930 . S
H154 C96 0.930 . S
H155 C97 0.930 . S
H156 C99 0.930 . S
H157 C101 0.929 . S
H158 C102 0.930 . S
H159 C103 0.930 . S
H160 C106 0.930 . S
H161 C109 0.929 . S
H162 C114 0.929 . S
H163 C115 0.930 . S
H164 C122 0.929 . S
H165 C123 0.930 . S
H166 C124 0.930 . S
H167 C125 0.930 . S
H168 C127 0.929 . S
H169 C128 0.930 . S
H170 C129 0.930 . S
H171 C130 0.930 . S
H172 C134 0.929 . S
H173 C136 0.930 . S
H174 C142 0.929 . S
H175 C143 0.930 . S
Li176 N193 1.990 . S
Li176 O236 1.956 . S
Li176 O237 1.970 . S
Li176 O238 1.961 . S
Li177 N201 1.990 . S
Li177 O236 1.970 . S
Li177 O237 1.956 . S
Li177 O239 1.961 . S
Li178 N223 1.990 . S
Li178 O236 1.961 . S
Li178 O238 1.956 . S
Li178 O239 1.970 . S
Li179 N229 1.990 . S
Li179 O237 1.961 . S
Li179 O238 1.970 . S
Li179 O239 1.956 . S
C180 C182 1.348 . S
C180 C183 1.356 . S
C180 O236 1.325 . S
N181 C184 1.314 . S
N181 C185 1.279 . S
C182 C180 1.348 . S
C182 C184 1.353 . S
C182 H240 0.929 . S
C183 C180 1.356 . S
C183 C185 1.358 . S
C183 H241 0.930 . S
C184 N181 1.314 . S
C184 C182 1.353 . S
C184 H242 0.930 . S
C185 N181 1.279 . S
C185 C183 1.358 . S
C185 H243 0.930 . S
C186 C189 1.348 . S
C186 C190 1.356 . S
C186 O237 1.325 . S
C187 N188 1.279 . S
C187 C190 1.358 . S
C187 H244 0.930 . S
N188 C187 1.279 . S
N188 C191 1.314 . S
C189 C186 1.348 . S
C189 C191 1.353 . S
C189 H245 0.929 . S
C190 C186 1.356 . S
C190 C187 1.358 . S
C190 H246 0.930 . S
C191 N188 1.314 . S
C191 C189 1.353 . S
C191 H247 0.930 . S
C192 N193 1.314 . S
C192 C197 1.353 . S
C192 H198 0.930 . S
N193 Li176 1.990 . S
N193 C192 1.314 . S
N193 C195 1.279 . S
C194 C195 1.358 . S
C194 C196 1.356 . S
C194 H248 0.930 . S
C195 N193 1.279 . S
C195 C194 1.358 . S
C195 H199 0.930 . S
C196 C194 1.356 . S
C196 C197 1.348 . S
C197 C192 1.353 . S
C197 C196 1.348 . S
C197 H249 0.929 . S
H198 C192 0.930 . S
H199 C195 0.930 . S
C200 N201 1.314 . S
C200 C202 1.353 . S
C200 H206 0.930 . S
N201 Li177 1.990 . S
N201 C200 1.314 . S
N201 C204 1.279 . S
C202 C200 1.353 . S
C202 C205 1.348 . S
C202 H250 0.929 . S
C203 C204 1.358 . S
C203 C205 1.356 . S
C203 H251 0.930 . S
C204 N201 1.279 . S
C204 C203 1.358 . S
C204 H207 0.930 . S
C205 C202 1.348 . S
C205 C203 1.356 . S
H206 C200 0.930 . S
H207 C204 0.930 . S
C208 C210 1.348 . S
C208 C211 1.356 . S
C208 O238 1.325 . S
N209 C212 1.314 . S
N209 C213 1.279 . S
C210 C208 1.348 . S
C210 C212 1.353 . S
C210 H252 0.929 . S
C211 C208 1.356 . S
C211 C213 1.358 . S
C211 H253 0.930 . S
C212 N209 1.314 . S
C212 C210 1.353 . S
C212 H254 0.930 . S
C213 N209 1.279 . S
C213 C211 1.358 . S
C213 H255 0.930 . S
C214 C215 1.348 . S
C214 C216 1.356 . S
C214 O239 1.325 . S
C215 C214 1.348 . S
C215 C217 1.353 . S
C215 H256 0.929 . S
C216 C214 1.356 . S
C216 C218 1.358 . S
C216 H257 0.930 . S
C217 C215 1.353 . S
C217 N219 1.314 . S
C217 H258 0.920 1_554 S
C218 C216 1.358 . S
C218 N219 1.279 . S
C218 H259 0.930 . S
N219 C217 1.314 . S
N219 C218 1.279 . S
C220 C222 1.353 . S
C220 N223 1.314 . S
C220 H226 0.930 . S
C221 N223 1.279 . S
C221 C224 1.358 . S
C221 H227 0.930 . S
C222 C220 1.353 . S
C222 C225 1.348 . S
C222 H260 0.929 . S
N223 Li178 1.990 . S
N223 C220 1.314 . S
N223 C221 1.279 . S
C224 C221 1.358 . S
C224 C225 1.356 . S
C224 H261 0.930 . S
C225 C222 1.348 . S
C225 C224 1.356 . S
H226 C220 0.930 . S
H227 C221 0.930 . S
C228 N229 1.314 . S
C228 C230 1.353 . S
C228 H234 0.930 . S
N229 Li179 1.990 . S
N229 C228 1.314 . S
N229 C232 1.279 . S
C230 C228 1.353 . S
C230 C233 1.348 . S
C230 H262 0.929 . S
C231 C232 1.358 . S
C231 C233 1.356 . S
C231 H263 0.930 . S
C232 N229 1.279 . S
C232 C231 1.358 . S
C232 H235 0.930 . S
C233 C230 1.348 . S
C233 C231 1.356 . S
H234 C228 0.930 . S
H235 C232 0.930 . S
O236 Li176 1.956 . S
O236 Li177 1.970 . S
O236 Li178 1.961 . S
O236 C180 1.325 . S
O237 Li176 1.970 . S
O237 Li177 1.956 . S
O237 Li179 1.961 . S
O237 C186 1.325 . S
O238 Li176 1.961 . S
O238 Li178 1.956 . S
O238 Li179 1.970 . S
O238 C208 1.325 . S
O239 Li177 1.961 . S
O239 Li178 1.970 . S
O239 Li179 1.956 . S
O239 C214 1.325 . S
H240 C182 0.929 . S
H241 C183 0.930 . S
H242 C184 0.930 . S
H243 C185 0.930 . S
H244 C187 0.930 . S
H245 C189 0.929 . S
H246 C190 0.930 . S
H247 C191 0.930 . S
H248 C194 0.930 . S
H249 C197 0.929 . S
H250 C202 0.929 . S
H251 C203 0.930 . S
H252 C210 0.929 . S
H253 C211 0.930 . S
H254 C212 0.930 . S
H255 C213 0.930 . S
H256 C215 0.929 . S
H257 C216 0.930 . S
H258 C217 0.920 1_556 S
H259 C218 0.930 . S
H260 C222 0.929 . S
H261 C224 0.930 . S
H262 C230 0.929 . S
H263 C231 0.930 . S
Li264 N281 1.990 . S
Li264 O324 1.956 . S
Li264 O325 1.970 . S
Li264 O326 1.961 . S
Li265 N289 1.990 . S
Li265 O324 1.970 . S
Li265 O325 1.956 . S
Li265 O327 1.961 . S
Li266 N311 1.990 . S
Li266 O324 1.961 . S
Li266 O326 1.956 . S
Li266 O327 1.970 . S
Li267 N317 1.990 . S
Li267 O325 1.961 . S
Li267 O326 1.970 . S
Li267 O327 1.956 . S
C268 C270 1.348 . S
C268 C271 1.356 . S
C268 O324 1.325 . S
N269 C272 1.314 . S
N269 C273 1.279 . S
C270 C268 1.348 . S
C270 C272 1.353 . S
C270 H328 0.929 . S
C271 C268 1.356 . S
C271 C273 1.358 . S
C271 H329 0.930 . S
C272 N269 1.314 . S
C272 C270 1.353 . S
C272 H330 0.930 . S
C273 N269 1.279 . S
C273 C271 1.358 . S
C273 H331 0.930 . S
C274 C277 1.348 . S
C274 C278 1.356 . S
C274 O325 1.325 . S
C275 N276 1.279 . S
C275 C278 1.358 . S
C275 H332 0.930 . S
N276 C275 1.279 . S
N276 C279 1.314 . S
C277 C274 1.348 . S
C277 C279 1.353 . S
C277 H333 0.929 . S
C278 C274 1.356 . S
C278 C275 1.358 . S
C278 H334 0.930 . S
C279 N276 1.314 . S
C279 C277 1.353 . S
C279 H335 0.930 . S
C280 N281 1.314 . S
C280 C285 1.353 . S
C280 H286 0.930 . S
N281 Li264 1.990 . S
N281 C280 1.314 . S
N281 C283 1.279 . S
C282 C283 1.358 . S
C282 C284 1.356 . S
C282 H336 0.930 . S
C283 N281 1.279 . S
C283 C282 1.358 . S
C283 H287 0.930 . S
C284 C282 1.356 . S
C284 C285 1.348 . S
C285 C280 1.353 . S
C285 C284 1.348 . S
C285 H337 0.929 . S
H286 C280 0.930 . S
H287 C283 0.930 . S
C288 N289 1.314 . S
C288 C290 1.353 . S
C288 H294 0.930 . S
N289 Li265 1.990 . S
N289 C288 1.314 . S
N289 C292 1.279 . S
C290 C288 1.353 . S
C290 C293 1.348 . S
C290 H338 0.929 . S
C291 C292 1.358 . S
C291 C293 1.356 . S
C291 H339 0.930 . S
C292 N289 1.279 . S
C292 C291 1.358 . S
C292 H295 0.930 . S
C293 C290 1.348 . S
C293 C291 1.356 . S
H294 C288 0.930 . S
H295 C292 0.930 . S
C296 C298 1.348 . S
C296 C299 1.356 . S
C296 O326 1.325 . S
N297 C300 1.314 . S
N297 C301 1.279 . S
C298 C296 1.348 . S
C298 C300 1.353 . S
C298 H340 0.929 . S
C299 C296 1.356 . S
C299 C301 1.358 . S
C299 H341 0.930 . S
C300 N297 1.314 . S
C300 C298 1.353 . S
C300 H342 0.930 . S
C301 N297 1.279 . S
C301 C299 1.358 . S
C301 H343 0.930 . S
C302 C303 1.348 . S
C302 C304 1.356 . S
C302 O327 1.325 . S
C303 C302 1.348 . S
C303 C305 1.353 . S
C303 H344 0.929 . S
C304 C302 1.356 . S
C304 C306 1.358 . S
C304 H345 0.930 . S
C305 C303 1.353 . S
C305 N307 1.314 . S
C305 H346 0.930 . S
C306 C304 1.358 . S
C306 N307 1.279 . S
C306 H347 0.930 . S
N307 C305 1.314 . S
N307 C306 1.279 . S
C308 C310 1.353 . S
C308 N311 1.314 . S
C308 H314 0.930 . S
C309 N311 1.279 . S
C309 C312 1.358 . S
C309 H315 0.930 . S
C310 C308 1.353 . S
C310 C313 1.348 . S
C310 H348 0.929 . S
N311 Li266 1.990 . S
N311 C308 1.314 . S
N311 C309 1.279 . S
C312 C309 1.358 . S
C312 C313 1.356 . S
C312 H349 0.930 . S
C313 C310 1.348 . S
C313 C312 1.356 . S
H314 C308 0.930 . S
H315 C309 0.930 . S
C316 N317 1.314 . S
C316 C318 1.353 . S
C316 H322 0.930 . S
N317 Li267 1.990 . S
N317 C316 1.314 . S
N317 C320 1.279 . S
C318 C316 1.353 . S
C318 C321 1.348 . S
C318 H350 0.929 . S
C319 C320 1.358 . S
C319 C321 1.356 . S
C319 H351 0.930 . S
C320 N317 1.279 . S
C320 C319 1.358 . S
C320 H323 0.930 . S
C321 C318 1.348 . S
C321 C319 1.356 . S
H322 C316 0.930 . S
H323 C320 0.930 . S
O324 Li264 1.956 . S
O324 Li265 1.970 . S
O324 Li266 1.961 . S
O324 C268 1.325 . S
O325 Li264 1.970 . S
O325 Li265 1.956 . S
O325 Li267 1.961 . S
O325 C274 1.325 . S
O326 Li264 1.961 . S
O326 Li266 1.956 . S
O326 Li267 1.970 . S
O326 C296 1.325 . S
O327 Li265 1.961 . S
O327 Li266 1.970 . S
O327 Li267 1.956 . S
O327 C302 1.325 . S
H328 C270 0.929 . S
H329 C271 0.930 . S
H330 C272 0.930 . S
H331 C273 0.930 . S
H332 C275 0.930 . S
H333 C277 0.929 . S
H334 C278 0.930 . S
H335 C279 0.930 . S
H336 C282 0.930 . S
H337 C285 0.929 . S
H338 C290 0.929 . S
H339 C291 0.930 . S
H340 C298 0.929 . S
H341 C299 0.930 . S
H342 C300 0.930 . S
H343 C301 0.930 . S
H344 C303 0.929 . S
H345 C304 0.930 . S
H346 C305 0.930 . S
H347 C306 0.930 . S
H348 C310 0.929 . S
H349 C312 0.930 . S
H350 C318 0.929 . S
H351 C319 0.930 . S
Li352 N369 1.990 . S
Li352 O412 1.956 . S
Li352 O413 1.970 . S
Li352 O414 1.961 . S
Li353 N377 1.990 . S
Li353 O412 1.970 . S
Li353 O413 1.956 . S
Li353 O415 1.961 . S
Li354 N399 1.990 . S
Li354 O412 1.961 . S
Li354 O414 1.956 . S
Li354 O415 1.970 . S
Li355 N405 1.990 . S
Li355 O413 1.961 . S
Li355 O414 1.970 . S
Li355 O415 1.956 . S
C356 C358 1.348 . S
C356 C359 1.356 . S
C356 O412 1.325 . S
N357 C360 1.314 . S
N357 C361 1.279 . S
C358 C356 1.348 . S
C358 C360 1.353 . S
C358 H416 0.929 . S
C359 C356 1.356 . S
C359 C361 1.358 . S
C359 H417 0.930 . S
C360 N357 1.314 . S
C360 C358 1.353 . S
C360 H418 0.930 . S
C361 N357 1.279 . S
C361 C359 1.358 . S
C361 H419 0.930 . S
C362 C365 1.348 . S
C362 C366 1.356 . S
C362 O413 1.325 . S
C363 N364 1.279 . S
C363 C366 1.358 . S
C363 H420 0.930 . S
N364 C363 1.279 . S
N364 C367 1.314 . S
C365 C362 1.348 . S
C365 C367 1.353 . S
C365 H421 0.929 . S
C366 C362 1.356 . S
C366 C363 1.358 . S
C366 H422 0.930 . S
C367 N364 1.314 . S
C367 C365 1.353 . S
C367 H423 0.919 1_554 S
C368 N369 1.314 . S
C368 C373 1.353 . S
C368 H374 0.930 . S
N369 Li352 1.990 . S
N369 C368 1.314 . S
N369 C371 1.279 . S
C370 C371 1.358 . S
C370 C372 1.356 . S
C370 H424 0.930 . S
C371 N369 1.279 . S
C371 C370 1.358 . S
C371 H375 0.930 . S
C372 C370 1.356 . S
C372 C373 1.348 . S
C373 C368 1.353 . S
C373 C372 1.348 . S
C373 H425 0.929 . S
H374 C368 0.930 . S
H375 C371 0.930 . S
C376 N377 1.314 . S
C376 C378 1.353 . S
C376 H382 0.930 . S
N377 Li353 1.990 . S
N377 C376 1.314 . S
N377 C380 1.279 . S
C378 C376 1.353 . S
C378 C381 1.348 . S
C378 H426 0.929 . S
C379 C380 1.358 . S
C379 C381 1.356 . S
C379 H427 0.930 . S
C380 N377 1.279 . S
C380 C379 1.358 . S
C380 H383 0.930 . S
C381 C378 1.348 . S
C381 C379 1.356 . S
H382 C376 0.930 . S
H383 C380 0.930 . S
C384 C386 1.348 . S
C384 C387 1.356 . S
C384 O414 1.325 . S
N385 C388 1.314 . S
N385 C389 1.279 . S
C386 C384 1.348 . S
C386 C388 1.353 . S
C386 H428 0.929 . S
C387 C384 1.356 . S
C387 C389 1.358 . S
C387 H429 0.930 . S
C388 N385 1.314 . S
C388 C386 1.353 . S
C388 H430 0.930 . S
C389 N385 1.279 . S
C389 C387 1.358 . S
C389 H431 0.930 . S
C390 C391 1.348 . S
C390 C392 1.356 . S
C390 O415 1.325 . S
C391 C390 1.348 . S
C391 C393 1.353 . S
C391 H432 0.929 . S
C392 C390 1.356 . S
C392 C394 1.358 . S
C392 H433 0.930 . S
C393 C391 1.353 . S
C393 N395 1.314 . S
C393 H434 0.930 . S
C394 C392 1.358 . S
C394 N395 1.279 . S
C394 H435 0.930 . S
N395 C393 1.314 . S
N395 C394 1.279 . S
C396 C398 1.353 . S
C396 N399 1.314 . S
C396 H402 0.930 . S
C397 N399 1.279 . S
C397 C400 1.358 . S
C397 H403 0.930 . S
C398 C396 1.353 . S
C398 C401 1.348 . S
C398 H436 0.929 . S
N399 Li354 1.990 . S
N399 C396 1.314 . S
N399 C397 1.279 . S
C400 C397 1.358 . S
C400 C401 1.356 . S
C400 H437 0.930 . S
C401 C398 1.348 . S
C401 C400 1.356 . S
H402 C396 0.930 . S
H403 C397 0.930 . S
C404 N405 1.314 . S
C404 C406 1.353 . S
C404 H410 0.930 . S
N405 Li355 1.990 . S
N405 C404 1.314 . S
N405 C408 1.279 . S
C406 C404 1.353 . S
C406 C409 1.348 . S
C406 H438 0.929 . S
C407 C408 1.358 . S
C407 C409 1.356 . S
C407 H439 0.930 . S
C408 N405 1.279 . S
C408 C407 1.358 . S
C408 H411 0.930 . S
C409 C406 1.348 . S
C409 C407 1.356 . S
H410 C404 0.930 . S
H411 C408 0.930 . S
O412 Li352 1.956 . S
O412 Li353 1.970 . S
O412 Li354 1.961 . S
O412 C356 1.325 . S
O413 Li352 1.970 . S
O413 Li353 1.956 . S
O413 Li355 1.961 . S
O413 C362 1.325 . S
O414 Li352 1.961 . S
O414 Li354 1.956 . S
O414 Li355 1.970 . S
O414 C384 1.325 . S
O415 Li353 1.961 . S
O415 Li354 1.970 . S
O415 Li355 1.956 . S
O415 C390 1.325 . S
H416 C358 0.929 . S
H417 C359 0.930 . S
H418 C360 0.930 . S
H419 C361 0.930 . S
H420 C363 0.930 . S
H421 C365 0.929 . S
H422 C366 0.930 . S
H423 C367 0.919 1_556 S
H424 C370 0.930 . S
H425 C373 0.929 . S
H426 C378 0.929 . S
H427 C379 0.930 . S
H428 C386 0.929 . S
H429 C387 0.930 . S
H430 C388 0.930 . S
H431 C389 0.930 . S
H432 C391 0.929 . S
H433 C392 0.930 . S
H434 C393 0.930 . S
H435 C394 0.930 . S
H436 C398 0.929 . S
H437 C400 0.930 . S
H438 C406 0.929 . S
H439 C407 0.930 . S
Li440 N457 1.990 . S
Li440 O500 1.956 . S
Li440 O501 1.970 . S
Li440 O502 1.961 . S
Li441 N465 1.990 . S
Li441 O500 1.970 . S
Li441 O501 1.956 . S
Li441 O503 1.961 . S
Li442 N487 1.990 . S
Li442 O500 1.961 . S
Li442 O502 1.956 . S
Li442 O503 1.970 . S
Li443 N493 1.990 . S
Li443 O501 1.961 . S
Li443 O502 1.970 . S
Li443 O503 1.956 . S
C444 C446 1.348 . S
C444 C447 1.356 . S
C444 O500 1.325 . S
N445 C448 1.314 . S
N445 C449 1.279 . S
C446 C444 1.348 . S
C446 C448 1.353 . S
C446 H504 0.929 . S
C447 C444 1.356 . S
C447 C449 1.358 . S
C447 H505 0.930 . S
C448 N445 1.314 . S
C448 C446 1.353 . S
C448 H506 0.930 . S
C449 N445 1.279 . S
C449 C447 1.358 . S
C449 H507 0.930 . S
C450 C453 1.348 . S
C450 C454 1.356 . S
C450 O501 1.325 . S
C451 N452 1.279 . S
C451 C454 1.358 . S
C451 H508 0.930 . S
N452 C451 1.279 . S
N452 C455 1.314 . S
C453 C450 1.348 . S
C453 C455 1.353 . S
C453 H509 0.929 . S
C454 C450 1.356 . S
C454 C451 1.358 . S
C454 H510 0.930 . S
C455 N452 1.314 . S
C455 C453 1.353 . S
C455 H511 0.930 . S
C456 N457 1.314 . S
C456 C461 1.353 . S
C456 H462 0.930 . S
N457 Li440 1.990 . S
N457 C456 1.314 . S
N457 C459 1.279 . S
C458 C459 1.358 . S
C458 C460 1.356 . S
C458 H512 0.930 . S
C459 N457 1.279 . S
C459 C458 1.358 . S
C459 H463 0.930 . S
C460 C458 1.356 . S
C460 C461 1.348 . S
C461 C456 1.353 . S
C461 C460 1.348 . S
C461 H513 0.929 . S
H462 C456 0.930 . S
H463 C459 0.930 . S
C464 N465 1.314 . S
C464 C466 1.353 . S
C464 H470 0.930 . S
N465 Li441 1.990 . S
N465 C464 1.314 . S
N465 C468 1.279 . S
C466 C464 1.353 . S
C466 C469 1.348 . S
C466 H514 0.929 . S
C467 C468 1.358 . S
C467 C469 1.356 . S
C467 H515 0.930 . S
C468 N465 1.279 . S
C468 C467 1.358 . S
C468 H471 0.930 . S
C469 C466 1.348 . S
C469 C467 1.356 . S
H470 C464 0.930 . S
H471 C468 0.930 . S
C472 C474 1.348 . S
C472 C475 1.356 . S
C472 O502 1.325 . S
N473 C476 1.314 . S
N473 C477 1.279 . S
C474 C472 1.348 . S
C474 C476 1.353 . S
C474 H516 0.929 . S
C475 C472 1.356 . S
C475 C477 1.358 . S
C475 H517 0.930 . S
C476 N473 1.314 . S
C476 C474 1.353 . S
C476 H518 0.930 . S
C477 N473 1.279 . S
C477 C475 1.358 . S
C477 H519 0.930 . S
C478 C479 1.348 . S
C478 C480 1.356 . S
C478 O503 1.325 . S
C479 C478 1.348 . S
C479 C481 1.353 . S
C479 H520 0.929 . S
C480 C478 1.356 . S
C480 C482 1.358 . S
C480 H521 0.930 . S
C481 C479 1.353 . S
C481 N483 1.314 . S
C481 H522 0.930 . S
C482 C480 1.358 . S
C482 N483 1.279 . S
C482 H523 0.930 . S
N483 C481 1.314 . S
N483 C482 1.279 . S
C484 C486 1.353 . S
C484 N487 1.314 . S
C484 H490 0.930 . S
C485 N487 1.279 . S
C485 C488 1.358 . S
C485 H491 0.930 . S
C486 C484 1.353 . S
C486 C489 1.348 . S
C486 H524 0.929 . S
N487 Li442 1.990 . S
N487 C484 1.314 . S
N487 C485 1.279 . S
C488 C485 1.358 . S
C488 C489 1.356 . S
C488 H525 0.930 . S
C489 C486 1.348 . S
C489 C488 1.356 . S
H490 C484 0.930 . S
H491 C485 0.930 . S
C492 N493 1.314 . S
C492 C494 1.353 . S
C492 H498 0.930 . S
N493 Li443 1.990 . S
N493 C492 1.314 . S
N493 C496 1.279 . S
C494 C492 1.353 . S
C494 C497 1.348 . S
C494 H526 0.929 . S
C495 C496 1.358 . S
C495 C497 1.356 . S
C495 H527 0.930 . S
C496 N493 1.279 . S
C496 C495 1.358 . S
C496 H499 0.930 . S
C497 C494 1.348 . S
C497 C495 1.356 . S
H498 C492 0.930 . S
H499 C496 0.930 . S
O500 Li440 1.956 . S
O500 Li441 1.970 . S
O500 Li442 1.961 . S
O500 C444 1.325 . S
O501 Li440 1.970 . S
O501 Li441 1.956 . S
O501 Li443 1.961 . S
O501 C450 1.325 . S
O502 Li440 1.961 . S
O502 Li442 1.956 . S
O502 Li443 1.970 . S
O502 C472 1.325 . S
O503 Li441 1.961 . S
O503 Li442 1.970 . S
O503 Li443 1.956 . S
O503 C478 1.325 . S
H504 C446 0.929 . S
H505 C447 0.930 . S
H506 C448 0.930 . S
H507 C449 0.930 . S
H508 C451 0.930 . S
H509 C453 0.929 . S
H510 C454 0.930 . S
H511 C455 0.930 . S
H512 C458 0.930 . S
H513 C461 0.929 . S
H514 C466 0.929 . S
H515 C467 0.930 . S
H516 C474 0.929 . S
H517 C475 0.930 . S
H518 C476 0.930 . S
H519 C477 0.930 . S
H520 C479 0.929 . S
H521 C480 0.930 . S
H522 C481 0.930 . S
H523 C482 0.930 . S
H524 C486 0.929 . S
H525 C488 0.930 . S
H526 C494 0.929 . S
H527 C495 0.930 . S
Li528 N545 1.990 . S
Li528 O588 1.956 . S
Li528 O589 1.970 . S
Li528 O590 1.961 . S
Li529 N553 1.990 . S
Li529 O588 1.970 . S
Li529 O589 1.956 . S
Li529 O591 1.961 . S
Li530 N575 1.990 . S
Li530 O588 1.961 . S
Li530 O590 1.956 . S
Li530 O591 1.970 . S
Li531 N581 1.990 . S
Li531 O589 1.961 . S
Li531 O590 1.970 . S
Li531 O591 1.956 . S
C532 C534 1.348 . S
C532 C535 1.356 . S
C532 O588 1.325 . S
N533 C536 1.314 . S
N533 C537 1.279 . S
C534 C532 1.348 . S
C534 C536 1.353 . S
C534 H592 0.929 . S
C535 C532 1.356 . S
C535 C537 1.358 . S
C535 H593 0.930 . S
C536 N533 1.314 . S
C536 C534 1.353 . S
C536 H594 0.930 . S
C537 N533 1.279 . S
C537 C535 1.358 . S
C537 H595 0.930 . S
C538 C541 1.348 . S
C538 C542 1.356 . S
C538 O589 1.325 . S
C539 N540 1.279 . S
C539 C542 1.358 . S
C539 H596 0.930 . S
N540 C539 1.279 . S
N540 C543 1.314 . S
C541 C538 1.348 . S
C541 C543 1.353 . S
C541 H597 0.929 . S
C542 C538 1.356 . S
C542 C539 1.358 . S
C542 H598 0.930 . S
C543 N540 1.314 . S
C543 C541 1.353 . S
C543 H599 0.930 . S
C544 N545 1.314 . S
C544 C549 1.353 . S
C544 H550 0.930 . S
N545 Li528 1.990 . S
N545 C544 1.314 . S
N545 C547 1.279 . S
C546 C547 1.358 . S
C546 C548 1.356 . S
C546 H600 0.930 . S
C547 N545 1.279 . S
C547 C546 1.358 . S
C547 H551 0.930 . S
C548 C546 1.356 . S
C548 C549 1.348 . S
C549 C544 1.353 . S
C549 C548 1.348 . S
C549 H601 0.929 . S
H550 C544 0.930 . S
H551 C547 0.930 . S
C552 N553 1.314 . S
C552 C554 1.353 . S
C552 H558 0.930 . S
N553 Li529 1.990 . S
N553 C552 1.314 . S
N553 C556 1.279 . S
C554 C552 1.353 . S
C554 C557 1.348 . S
C554 H602 0.929 . S
C555 C556 1.358 . S
C555 C557 1.356 . S
C555 H603 0.930 . S
C556 N553 1.279 . S
C556 C555 1.358 . S
C556 H559 0.930 . S
C557 C554 1.348 . S
C557 C555 1.356 . S
H558 C552 0.930 . S
H559 C556 0.930 . S
C560 C562 1.348 . S
C560 C563 1.356 . S
C560 O590 1.325 . S
N561 C564 1.314 . S
N561 C565 1.279 . S
C562 C560 1.348 . S
C562 C564 1.353 . S
C562 H604 0.929 . S
C563 C560 1.356 . S
C563 C565 1.358 . S
C563 H605 0.930 . S
C564 N561 1.314 . S
C564 C562 1.353 . S
C564 H606 0.930 . S
C565 N561 1.279 . S
C565 C563 1.358 . S
C565 H607 0.930 . S
C566 C567 1.348 . S
C566 C568 1.356 . S
C566 O591 1.325 . S
C567 C566 1.348 . S
C567 C569 1.353 . S
C567 H608 0.929 . S
C568 C566 1.356 . S
C568 C570 1.358 . S
C568 H609 0.930 . S
C569 C567 1.353 . S
C569 N571 1.314 . S
C569 H610 0.930 . S
C570 C568 1.358 . S
C570 N571 1.279 . S
C570 H611 0.930 . S
N571 C569 1.314 . S
N571 C570 1.279 . S
C572 C574 1.353 . S
C572 N575 1.314 . S
C572 H578 0.930 . S
C573 N575 1.279 . S
C573 C576 1.358 . S
C573 H579 0.930 . S
C574 C572 1.353 . S
C574 C577 1.348 . S
C574 H612 0.929 . S
N575 Li530 1.990 . S
N575 C572 1.314 . S
N575 C573 1.279 . S
C576 C573 1.358 . S
C576 C577 1.356 . S
C576 H613 0.930 . S
C577 C574 1.348 . S
C577 C576 1.356 . S
H578 C572 0.930 . S
H579 C573 0.930 . S
C580 N581 1.314 . S
C580 C582 1.353 . S
C580 H586 0.930 . S
N581 Li531 1.990 . S
N581 C580 1.314 . S
N581 C584 1.279 . S
C582 C580 1.353 . S
C582 C585 1.348 . S
C582 H614 0.929 . S
C583 C584 1.358 . S
C583 C585 1.356 . S
C583 H615 0.930 . S
C584 N581 1.279 . S
C584 C583 1.358 . S
C584 H587 0.930 . S
C585 C582 1.348 . S
C585 C583 1.356 . S
H586 C580 0.930 . S
H587 C584 0.930 . S
O588 Li528 1.956 . S
O588 Li529 1.970 . S
O588 Li530 1.961 . S
O588 C532 1.325 . S
O589 Li528 1.970 . S
O589 Li529 1.956 . S
O589 Li531 1.961 . S
O589 C538 1.325 . S
O590 Li528 1.961 . S
O590 Li530 1.956 . S
O590 Li531 1.970 . S
O590 C560 1.325 . S
O591 Li529 1.961 . S
O591 Li530 1.970 . S
O591 Li531 1.956 . S
O591 C566 1.325 . S
H592 C534 0.929 . S
H593 C535 0.930 . S
H594 C536 0.930 . S
H595 C537 0.930 . S
H596 C539 0.930 . S
H597 C541 0.929 . S
H598 C542 0.930 . S
H599 C543 0.930 . S
H600 C546 0.930 . S
H601 C549 0.929 . S
H602 C554 0.929 . S
H603 C555 0.930 . S
H604 C562 0.929 . S
H605 C563 0.930 . S
H606 C564 0.930 . S
H607 C565 0.930 . S
H608 C567 0.929 . S
H609 C568 0.930 . S
H610 C569 0.930 . S
H611 C570 0.930 . S
H612 C574 0.929 . S
H613 C576 0.930 . S
H614 C582 0.929 . S
H615 C583 0.930 . S
Li616 N633 1.990 . S
Li616 O676 1.956 . S
Li616 O677 1.970 . S
Li616 O678 1.961 . S
Li617 N641 1.990 . S
Li617 O676 1.970 . S
Li617 O677 1.956 . S
Li617 O679 1.961 . S
Li618 N663 1.990 . S
Li618 O676 1.961 . S
Li618 O678 1.956 . S
Li618 O679 1.970 . S
Li619 N669 1.990 . S
Li619 O677 1.961 . S
Li619 O678 1.970 . S
Li619 O679 1.956 . S
C620 C622 1.348 . S
C620 C623 1.356 . S
C620 O676 1.325 . S
N621 C624 1.314 . S
N621 C625 1.279 . S
C622 C620 1.348 . S
C622 C624 1.353 . S
C622 H680 0.929 . S
C623 C620 1.356 . S
C623 C625 1.358 . S
C623 H681 0.930 . S
C624 N621 1.314 . S
C624 C622 1.353 . S
C624 H682 0.930 . S
C625 N621 1.279 . S
C625 C623 1.358 . S
C625 H683 0.930 . S
C626 C629 1.348 . S
C626 C630 1.356 . S
C626 O677 1.325 . S
C627 N628 1.279 . S
C627 C630 1.358 . S
C627 H684 0.930 . S
N628 C627 1.279 . S
N628 C631 1.314 . S
C629 C626 1.348 . S
C629 C631 1.353 . S
C629 H685 0.929 . S
C630 C626 1.356 . S
C630 C627 1.358 . S
C630 H686 0.930 . S
C631 N628 1.314 . S
C631 C629 1.353 . S
C631 H687 0.920 1_556 S
C632 N633 1.314 . S
C632 C637 1.353 . S
C632 H638 0.930 . S
N633 Li616 1.990 . S
N633 C632 1.314 . S
N633 C635 1.279 . S
C634 C635 1.358 . S
C634 C636 1.356 . S
C634 H688 0.930 . S
C635 N633 1.279 . S
C635 C634 1.358 . S
C635 H639 0.930 . S
C636 C634 1.356 . S
C636 C637 1.348 . S
C637 C632 1.353 . S
C637 C636 1.348 . S
C637 H689 0.929 . S
H638 C632 0.930 . S
H639 C635 0.930 . S
C640 N641 1.314 . S
C640 C642 1.353 . S
C640 H646 0.930 . S
N641 Li617 1.990 . S
N641 C640 1.314 . S
N641 C644 1.279 . S
C642 C640 1.353 . S
C642 C645 1.348 . S
C642 H690 0.929 . S
C643 C644 1.358 . S
C643 C645 1.356 . S
C643 H691 0.930 . S
C644 N641 1.279 . S
C644 C643 1.358 . S
C644 H647 0.930 . S
C645 C642 1.348 . S
C645 C643 1.356 . S
H646 C640 0.930 . S
H647 C644 0.930 . S
C648 C650 1.348 . S
C648 C651 1.356 . S
C648 O678 1.325 . S
N649 C652 1.314 . S
N649 C653 1.279 . S
C650 C648 1.348 . S
C650 C652 1.353 . S
C650 H692 0.929 . S
C651 C648 1.356 . S
C651 C653 1.358 . S
C651 H693 0.930 . S
C652 N649 1.314 . S
C652 C650 1.353 . S
C652 H694 0.930 . S
C653 N649 1.279 . S
C653 C651 1.358 . S
C653 H695 0.930 . S
C654 C655 1.348 . S
C654 C656 1.356 . S
C654 O679 1.325 . S
C655 C654 1.348 . S
C655 C657 1.353 . S
C655 H696 0.929 . S
C656 C654 1.356 . S
C656 C658 1.358 . S
C656 H697 0.930 . S
C657 C655 1.353 . S
C657 N659 1.314 . S
C657 H698 0.930 . S
C658 C656 1.358 . S
C658 N659 1.279 . S
C658 H699 0.930 . S
N659 C657 1.314 . S
N659 C658 1.279 . S
C660 C662 1.353 . S
C660 N663 1.314 . S
C660 H666 0.930 . S
C661 N663 1.279 . S
C661 C664 1.358 . S
C661 H667 0.930 . S
C662 C660 1.353 . S
C662 C665 1.348 . S
C662 H700 0.929 . S
N663 Li618 1.990 . S
N663 C660 1.314 . S
N663 C661 1.279 . S
C664 C661 1.358 . S
C664 C665 1.356 . S
C664 H701 0.930 . S
C665 C662 1.348 . S
C665 C664 1.356 . S
H666 C660 0.930 . S
H667 C661 0.930 . S
C668 N669 1.314 . S
C668 C670 1.353 . S
C668 H674 0.930 . S
N669 Li619 1.990 . S
N669 C668 1.314 . S
N669 C672 1.279 . S
C670 C668 1.353 . S
C670 C673 1.348 . S
C670 H702 0.929 . S
C671 C672 1.358 . S
C671 C673 1.356 . S
C671 H703 0.930 . S
C672 N669 1.279 . S
C672 C671 1.358 . S
C672 H675 0.930 . S
C673 C670 1.348 . S
C673 C671 1.356 . S
H674 C668 0.930 . S
H675 C672 0.930 . S
O676 Li616 1.956 . S
O676 Li617 1.970 . S
O676 Li618 1.961 . S
O676 C620 1.325 . S
O677 Li616 1.970 . S
O677 Li617 1.956 . S
O677 Li619 1.961 . S
O677 C626 1.325 . S
O678 Li616 1.961 . S
O678 Li618 1.956 . S
O678 Li619 1.970 . S
O678 C648 1.325 . S
O679 Li617 1.961 . S
O679 Li618 1.970 . S
O679 Li619 1.956 . S
O679 C654 1.325 . S
H680 C622 0.929 . S
H681 C623 0.930 . S
H682 C624 0.930 . S
H683 C625 0.930 . S
H684 C627 0.930 . S
H685 C629 0.929 . S
H686 C630 0.930 . S
H687 C631 0.920 1_554 S
H688 C634 0.930 . S
H689 C637 0.929 . S
H690 C642 0.929 . S
H691 C643 0.930 . S
H692 C650 0.929 . S
H693 C651 0.930 . S
H694 C652 0.930 . S
H695 C653 0.930 . S
H696 C655 0.929 . S
H697 C656 0.930 . S
H698 C657 0.930 . S
H699 C658 0.930 . S
H700 C662 0.929 . S
H701 C664 0.930 . S
H702 C670 0.929 . S
H703 C671 0.930 . S
Li704 N721 1.990 . S
Li704 O764 1.956 . S
Li704 O765 1.970 . S
Li704 O766 1.961 . S
Li705 N729 1.990 . S
Li705 O764 1.970 . S
Li705 O765 1.956 . S
Li705 O767 1.961 . S
Li706 N751 1.990 . S
Li706 O764 1.961 . S
Li706 O766 1.956 . S
Li706 O767 1.970 . S
Li707 N757 1.990 . S
Li707 O765 1.961 . S
Li707 O766 1.970 . S
Li707 O767 1.956 . S
C708 C710 1.348 . S
C708 C711 1.356 . S
C708 O764 1.325 . S
N709 C712 1.314 . S
N709 C713 1.279 . S
C710 C708 1.348 . S
C710 C712 1.353 . S
C710 H768 0.929 . S
C711 C708 1.356 . S
C711 C713 1.358 . S
C711 H769 0.930 . S
C712 N709 1.314 . S
C712 C710 1.353 . S
C712 H770 0.930 . S
C713 N709 1.279 . S
C713 C711 1.358 . S
C713 H771 0.930 . S
C714 C717 1.348 . S
C714 C718 1.356 . S
C714 O765 1.325 . S
C715 N716 1.279 . S
C715 C718 1.358 . S
C715 H772 0.930 . S
N716 C715 1.279 . S
N716 C719 1.314 . S
C717 C714 1.348 . S
C717 C719 1.353 . S
C717 H773 0.929 . S
C718 C714 1.356 . S
C718 C715 1.358 . S
C718 H774 0.930 . S
C719 N716 1.314 . S
C719 C717 1.353 . S
C719 H775 0.930 . S
C720 N721 1.314 . S
C720 C725 1.353 . S
C720 H726 0.930 . S
N721 Li704 1.990 . S
N721 C720 1.314 . S
N721 C723 1.279 . S
C722 C723 1.358 . S
C722 C724 1.356 . S
C722 H776 0.930 . S
C723 N721 1.279 . S
C723 C722 1.358 . S
C723 H727 0.930 . S
C724 C722 1.356 . S
C724 C725 1.348 . S
C725 C720 1.353 . S
C725 C724 1.348 . S
C725 H777 0.929 . S
H726 C720 0.930 . S
H727 C723 0.930 . S
C728 N729 1.314 . S
C728 C730 1.353 . S
C728 H734 0.930 . S
N729 Li705 1.990 . S
N729 C728 1.314 . S
N729 C732 1.279 . S
C730 C728 1.353 . S
C730 C733 1.348 . S
C730 H778 0.929 . S
C731 C732 1.358 . S
C731 C733 1.356 . S
C731 H779 0.930 . S
C732 N729 1.279 . S
C732 C731 1.358 . S
C732 H735 0.930 . S
C733 C730 1.348 . S
C733 C731 1.356 . S
H734 C728 0.930 . S
H735 C732 0.930 . S
C736 C738 1.348 . S
C736 C739 1.356 . S
C736 O766 1.325 . S
N737 C740 1.314 . S
N737 C741 1.279 . S
C738 C736 1.348 . S
C738 C740 1.353 . S
C738 H780 0.929 . S
C739 C736 1.356 . S
C739 C741 1.358 . S
C739 H781 0.930 . S
C740 N737 1.314 . S
C740 C738 1.353 . S
C740 H782 0.930 . S
C741 N737 1.279 . S
C741 C739 1.358 . S
C741 H783 0.930 . S
C742 C743 1.348 . S
C742 C744 1.356 . S
C742 O767 1.325 . S
C743 C742 1.348 . S
C743 C745 1.353 . S
C743 H784 0.929 . S
C744 C742 1.356 . S
C744 C746 1.358 . S
C744 H785 0.930 . S
C745 C743 1.353 . S
C745 N747 1.314 . S
C745 H786 0.930 . S
C746 C744 1.358 . S
C746 N747 1.279 . S
C746 H787 0.930 . S
N747 C745 1.314 . S
N747 C746 1.279 . S
C748 C750 1.353 . S
C748 N751 1.314 . S
C748 H754 0.930 . S
C749 N751 1.279 . S
C749 C752 1.358 . S
C749 H755 0.930 . S
C750 C748 1.353 . S
C750 C753 1.348 . S
C750 H788 0.929 . S
N751 Li706 1.990 . S
N751 C748 1.314 . S
N751 C749 1.279 . S
C752 C749 1.358 . S
C752 C753 1.356 . S
C752 H789 0.930 . S
C753 C750 1.348 . S
C753 C752 1.356 . S
H754 C748 0.930 . S
H755 C749 0.930 . S
C756 N757 1.314 . S
C756 C758 1.353 . S
C756 H762 0.930 . S
N757 Li707 1.990 . S
N757 C756 1.314 . S
N757 C760 1.279 . S
C758 C756 1.353 . S
C758 C761 1.348 . S
C758 H790 0.929 . S
C759 C760 1.358 . S
C759 C761 1.356 . S
C759 H791 0.930 . S
C760 N757 1.279 . S
C760 C759 1.358 . S
C760 H763 0.930 . S
C761 C758 1.348 . S
C761 C759 1.356 . S
H762 C756 0.930 . S
H763 C760 0.930 . S
O764 Li704 1.956 . S
O764 Li705 1.970 . S
O764 Li706 1.961 . S
O764 C708 1.325 . S
O765 Li704 1.970 . S
O765 Li705 1.956 . S
O765 Li707 1.961 . S
O765 C714 1.325 . S
O766 Li704 1.961 . S
O766 Li706 1.956 . S
O766 Li707 1.970 . S
O766 C736 1.325 . S
O767 Li705 1.961 . S
O767 Li706 1.970 . S
O767 Li707 1.956 . S
O767 C742 1.325 . S
H768 C710 0.929 . S
H769 C711 0.930 . S
H770 C712 0.930 . S
H771 C713 0.930 . S
H772 C715 0.930 . S
H773 C717 0.929 . S
H774 C718 0.930 . S
H775 C719 0.930 . S
H776 C722 0.930 . S
H777 C725 0.929 . S
H778 C730 0.929 . S
H779 C731 0.930 . S
H780 C738 0.929 . S
H781 C739 0.930 . S
H782 C740 0.930 . S
H783 C741 0.930 . S
H784 C743 0.929 . S
H785 C744 0.930 . S
H786 C745 0.930 . S
H787 C746 0.930 . S
H788 C750 0.929 . S
H789 C752 0.930 . S
H790 C758 0.929 . S
H791 C759 0.930 . S
Li792 N809 1.990 . S
Li792 O852 1.956 . S
Li792 O853 1.970 . S
Li792 O854 1.961 . S
Li793 N817 1.990 . S
Li793 O852 1.970 . S
Li793 O853 1.956 . S
Li793 O855 1.961 . S
Li794 N839 1.990 . S
Li794 O852 1.961 . S
Li794 O854 1.956 . S
Li794 O855 1.970 . S
Li795 N845 1.990 . S
Li795 O853 1.961 . S
Li795 O854 1.970 . S
Li795 O855 1.956 . S
C796 C798 1.348 . S
C796 C799 1.356 . S
C796 O852 1.325 . S
N797 C800 1.314 . S
N797 C801 1.279 . S
C798 C796 1.348 . S
C798 C800 1.353 . S
C798 H856 0.929 . S
C799 C796 1.356 . S
C799 C801 1.358 . S
C799 H857 0.930 . S
C800 N797 1.314 . S
C800 C798 1.353 . S
C800 H858 0.930 . S
C801 N797 1.279 . S
C801 C799 1.358 . S
C801 H859 0.930 . S
C802 C805 1.348 . S
C802 C806 1.356 . S
C802 O853 1.325 . S
C803 N804 1.279 . S
C803 C806 1.358 . S
C803 H860 0.930 . S
N804 C803 1.279 . S
N804 C807 1.314 . S
C805 C802 1.348 . S
C805 C807 1.353 . S
C805 H861 0.929 . S
C806 C802 1.356 . S
C806 C803 1.358 . S
C806 H862 0.930 . S
C807 N804 1.314 . S
C807 C805 1.353 . S
C807 H863 0.918 1_556 S
C808 N809 1.314 . S
C808 C813 1.353 . S
C808 H814 0.930 . S
N809 Li792 1.990 . S
N809 C808 1.314 . S
N809 C811 1.279 . S
C810 C811 1.358 . S
C810 C812 1.356 . S
C810 H864 0.930 . S
C811 N809 1.279 . S
C811 C810 1.358 . S
C811 H815 0.930 . S
C812 C810 1.356 . S
C812 C813 1.348 . S
C813 C808 1.353 . S
C813 C812 1.348 . S
C813 H865 0.929 . S
H814 C808 0.930 . S
H815 C811 0.930 . S
C816 N817 1.314 . S
C816 C818 1.353 . S
C816 H822 0.930 . S
N817 Li793 1.990 . S
N817 C816 1.314 . S
N817 C820 1.279 . S
C818 C816 1.353 . S
C818 C821 1.348 . S
C818 H866 0.929 . S
C819 C820 1.358 . S
C819 C821 1.356 . S
C819 H867 0.930 . S
C820 N817 1.279 . S
C820 C819 1.358 . S
C820 H823 0.930 . S
C821 C818 1.348 . S
C821 C819 1.356 . S
H822 C816 0.930 . S
H823 C820 0.930 . S
C824 C826 1.348 . S
C824 C827 1.356 . S
C824 O854 1.325 . S
N825 C828 1.314 . S
N825 C829 1.279 . S
C826 C824 1.348 . S
C826 C828 1.353 . S
C826 H868 0.929 . S
C827 C824 1.356 . S
C827 C829 1.358 . S
C827 H869 0.930 . S
C828 N825 1.314 . S
C828 C826 1.353 . S
C828 H870 0.930 . S
C829 N825 1.279 . S
C829 C827 1.358 . S
C829 H871 0.930 . S
C830 C831 1.348 . S
C830 C832 1.356 . S
C830 O855 1.325 . S
C831 C830 1.348 . S
C831 C833 1.353 . S
C831 H872 0.929 . S
C832 C830 1.356 . S
C832 C834 1.358 . S
C832 H873 0.930 . S
C833 C831 1.353 . S
C833 N835 1.314 . S
C833 H874 0.930 . S
C834 C832 1.358 . S
C834 N835 1.279 . S
C834 H875 0.930 . S
N835 C833 1.314 . S
N835 C834 1.279 . S
C836 C838 1.353 . S
C836 N839 1.314 . S
C836 H842 0.930 . S
C837 N839 1.279 . S
C837 C840 1.358 . S
C837 H843 0.930 . S
C838 C836 1.353 . S
C838 C841 1.348 . S
C838 H876 0.929 . S
N839 Li794 1.990 . S
N839 C836 1.314 . S
N839 C837 1.279 . S
C840 C837 1.358 . S
C840 C841 1.356 . S
C840 H877 0.930 . S
C841 C838 1.348 . S
C841 C840 1.356 . S
H842 C836 0.930 . S
H843 C837 0.930 . S
C844 N845 1.314 . S
C844 C846 1.353 . S
C844 H850 0.930 . S
N845 Li795 1.990 . S
N845 C844 1.314 . S
N845 C848 1.279 . S
C846 C844 1.353 . S
C846 C849 1.348 . S
C846 H878 0.929 . S
C847 C848 1.358 . S
C847 C849 1.356 . S
C847 H879 0.930 . S
C848 N845 1.279 . S
C848 C847 1.358 . S
C848 H851 0.930 . S
C849 C846 1.348 . S
C849 C847 1.356 . S
H850 C844 0.930 . S
H851 C848 0.930 . S
O852 Li792 1.956 . S
O852 Li793 1.970 . S
O852 Li794 1.961 . S
O852 C796 1.325 . S
O853 Li792 1.970 . S
O853 Li793 1.956 . S
O853 Li795 1.961 . S
O853 C802 1.325 . S
O854 Li792 1.961 . S
O854 Li794 1.956 . S
O854 Li795 1.970 . S
O854 C824 1.325 . S
O855 Li793 1.961 . S
O855 Li794 1.970 . S
O855 Li795 1.956 . S
O855 C830 1.325 . S
H856 C798 0.929 . S
H857 C799 0.930 . S
H858 C800 0.930 . S
H859 C801 0.930 . S
H860 C803 0.930 . S
H861 C805 0.929 . S
H862 C806 0.930 . S
H863 C807 0.918 1_554 S
H864 C810 0.930 . S
H865 C813 0.929 . S
H866 C818 0.929 . S
H867 C819 0.930 . S
H868 C826 0.929 . S
H869 C827 0.930 . S
H870 C828 0.930 . S
H871 C829 0.930 . S
H872 C831 0.929 . S
H873 C832 0.930 . S
H874 C833 0.930 . S
H875 C834 0.930 . S
H876 C838 0.929 . S
H877 C840 0.930 . S
H878 C846 0.929 . S
H879 C847 0.930 . S
Li880 N897 1.990 . S
Li880 O940 1.956 . S
Li880 O941 1.970 . S
Li880 O942 1.961 . S
Li881 N905 1.990 . S
Li881 O940 1.970 . S
Li881 O941 1.956 . S
Li881 O943 1.961 . S
Li882 N927 1.990 . S
Li882 O940 1.961 . S
Li882 O942 1.956 . S
Li882 O943 1.970 . S
Li883 N933 1.990 . S
Li883 O941 1.961 . S
Li883 O942 1.970 . S
Li883 O943 1.956 . S
C884 C886 1.348 . S
C884 C887 1.356 . S
C884 O940 1.325 . S
N885 C888 1.314 . S
N885 C889 1.279 . S
C886 C884 1.348 . S
C886 C888 1.353 . S
C886 H944 0.929 . S
C887 C884 1.356 . S
C887 C889 1.358 . S
C887 H945 0.930 . S
C888 N885 1.314 . S
C888 C886 1.353 . S
C888 H946 0.930 . S
C889 N885 1.279 . S
C889 C887 1.358 . S
C889 H947 0.930 . S
C890 C893 1.348 . S
C890 C894 1.356 . S
C890 O941 1.325 . S
C891 N892 1.279 . S
C891 C894 1.358 . S
C891 H948 0.930 . S
N892 C891 1.279 . S
N892 C895 1.314 . S
C893 C890 1.348 . S
C893 C895 1.353 . S
C893 H949 0.929 . S
C894 C890 1.356 . S
C894 C891 1.358 . S
C894 H950 0.930 . S
C895 N892 1.314 . S
C895 C893 1.353 . S
C895 H951 0.930 . S
C896 N897 1.314 . S
C896 C901 1.353 . S
C896 H902 0.930 . S
N897 Li880 1.990 . S
N897 C896 1.314 . S
N897 C899 1.279 . S
C898 C899 1.358 . S
C898 C900 1.356 . S
C898 H952 0.930 . S
C899 N897 1.279 . S
C899 C898 1.358 . S
C899 H903 0.930 . S
C900 C898 1.356 . S
C900 C901 1.348 . S
C901 C896 1.353 . S
C901 C900 1.348 . S
C901 H953 0.929 . S
H902 C896 0.930 . S
H903 C899 0.930 . S
C904 N905 1.314 . S
C904 C906 1.353 . S
C904 H910 0.930 . S
N905 Li881 1.990 . S
N905 C904 1.314 . S
N905 C908 1.279 . S
C906 C904 1.353 . S
C906 C909 1.348 . S
C906 H954 0.929 . S
C907 C908 1.358 . S
C907 C909 1.356 . S
C907 H955 0.930 . S
C908 N905 1.279 . S
C908 C907 1.358 . S
C908 H911 0.930 . S
C909 C906 1.348 . S
C909 C907 1.356 . S
H910 C904 0.930 . S
H911 C908 0.930 . S
C912 C914 1.348 . S
C912 C915 1.356 . S
C912 O942 1.325 . S
N913 C916 1.314 . S
N913 C917 1.279 . S
C914 C912 1.348 . S
C914 C916 1.353 . S
C914 H956 0.929 . S
C915 C912 1.356 . S
C915 C917 1.358 . S
C915 H957 0.930 . S
C916 N913 1.314 . S
C916 C914 1.353 . S
C916 H958 0.930 . S
C917 N913 1.279 . S
C917 C915 1.358 . S
C917 H959 0.930 . S
C918 C919 1.348 . S
C918 C920 1.356 . S
C918 O943 1.325 . S
C919 C918 1.348 . S
C919 C921 1.353 . S
C919 H960 0.929 . S
C920 C918 1.356 . S
C920 C922 1.358 . S
C920 H961 0.930 . S
C921 C919 1.353 . S
C921 N923 1.314 . S
C921 H962 0.930 . S
C922 C920 1.358 . S
C922 N923 1.279 . S
C922 H963 0.930 . S
N923 C921 1.314 . S
N923 C922 1.279 . S
C924 C926 1.353 . S
C924 N927 1.314 . S
C924 H930 0.930 . S
C925 N927 1.279 . S
C925 C928 1.358 . S
C925 H931 0.930 . S
C926 C924 1.353 . S
C926 C929 1.348 . S
C926 H964 0.929 . S
N927 Li882 1.990 . S
N927 C924 1.314 . S
N927 C925 1.279 . S
C928 C925 1.358 . S
C928 C929 1.356 . S
C928 H965 0.930 . S
C929 C926 1.348 . S
C929 C928 1.356 . S
H930 C924 0.930 . S
H931 C925 0.930 . S
C932 N933 1.314 . S
C932 C934 1.353 . S
C932 H938 0.930 . S
N933 Li883 1.990 . S
N933 C932 1.314 . S
N933 C936 1.279 . S
C934 C932 1.353 . S
C934 C937 1.348 . S
C934 H966 0.929 . S
C935 C936 1.358 . S
C935 C937 1.356 . S
C935 H967 0.930 . S
C936 N933 1.279 . S
C936 C935 1.358 . S
C936 H939 0.930 . S
C937 C934 1.348 . S
C937 C935 1.356 . S
H938 C932 0.930 . S
H939 C936 0.930 . S
O940 Li880 1.956 . S
O940 Li881 1.970 . S
O940 Li882 1.961 . S
O940 C884 1.325 . S
O941 Li880 1.970 . S
O941 Li881 1.956 . S
O941 Li883 1.961 . S
O941 C890 1.325 . S
O942 Li880 1.961 . S
O942 Li882 1.956 . S
O942 Li883 1.970 . S
O942 C912 1.325 . S
O943 Li881 1.961 . S
O943 Li882 1.970 . S
O943 Li883 1.956 . S
O943 C918 1.325 . S
H944 C886 0.929 . S
H945 C887 0.930 . S
H946 C888 0.930 . S
H947 C889 0.930 . S
H948 C891 0.930 . S
H949 C893 0.929 . S
H950 C894 0.930 . S
H951 C895 0.930 . S
H952 C898 0.930 . S
H953 C901 0.929 . S
H954 C906 0.929 . S
H955 C907 0.930 . S
H956 C914 0.929 . S
H957 C915 0.930 . S
H958 C916 0.930 . S
H959 C917 0.930 . S
H960 C919 0.929 . S
H961 C920 0.930 . S
H962 C921 0.930 . S
H963 C922 0.930 . S
H964 C926 0.929 . S
H965 C928 0.930 . S
H966 C934 0.929 . S
H967 C935 0.930 . S
Li968 N985 1.990 . S
Li968 O1028 1.956 . S
Li968 O1029 1.970 . S
Li968 O1030 1.961 . S
Li969 N993 1.990 . S
Li969 O1028 1.970 . S
Li969 O1029 1.956 . S
Li969 O1031 1.961 . S
Li970 N1015 1.990 . S
Li970 O1028 1.961 . S
Li970 O1030 1.956 . S
Li970 O1031 1.970 . S
Li971 N1021 1.990 . S
Li971 O1029 1.961 . S
Li971 O1030 1.970 . S
Li971 O1031 1.956 . S
C972 C974 1.348 . S
C972 C975 1.356 . S
C972 O1028 1.325 . S
N973 C976 1.314 . S
N973 C977 1.279 . S
C974 C972 1.348 . S
C974 C976 1.353 . S
C974 H1032 0.929 . S
C975 C972 1.356 . S
C975 C977 1.358 . S
C975 H1033 0.930 . S
C976 N973 1.314 . S
C976 C974 1.353 . S
C976 H1034 0.930 . S
C977 N973 1.279 . S
C977 C975 1.358 . S
C977 H1035 0.930 . S
C978 C981 1.348 . S
C978 C982 1.356 . S
C978 O1029 1.325 . S
C979 N980 1.279 . S
C979 C982 1.358 . S
C979 H1036 0.930 . S
N980 C979 1.279 . S
N980 C983 1.314 . S
C981 C978 1.348 . S
C981 C983 1.353 . S
C981 H1037 0.929 . S
C982 C978 1.356 . S
C982 C979 1.358 . S
C982 H1038 0.930 . S
C983 N980 1.314 . S
C983 C981 1.353 . S
C983 H1039 0.919 1_556 S
C984 N985 1.314 . S
C984 C989 1.353 . S
C984 H990 0.930 . S
N985 Li968 1.990 . S
N985 C984 1.314 . S
N985 C987 1.279 . S
C986 C987 1.358 . S
C986 C988 1.356 . S
C986 H1040 0.930 . S
C987 N985 1.279 . S
C987 C986 1.358 . S
C987 H991 0.930 . S
C988 C986 1.356 . S
C988 C989 1.348 . S
C989 C984 1.353 . S
C989 C988 1.348 . S
C989 H1041 0.929 . S
H990 C984 0.930 . S
H991 C987 0.930 . S
C992 N993 1.314 . S
C992 C994 1.353 . S
C992 H998 0.930 . S
N993 Li969 1.990 . S
N993 C992 1.314 . S
N993 C996 1.279 . S
C994 C992 1.353 . S
C994 C997 1.348 . S
C994 H1042 0.929 . S
C995 C996 1.358 . S
C995 C997 1.356 . S
C995 H1043 0.930 . S
C996 N993 1.279 . S
C996 C995 1.358 . S
C996 H999 0.930 . S
C997 C994 1.348 . S
C997 C995 1.356 . S
H998 C992 0.930 . S
H999 C996 0.930 . S
C1000 C1002 1.348 . S
C1000 C1003 1.356 . S
C1000 O1030 1.325 . S
N1001 C1004 1.314 . S
N1001 C1005 1.279 . S
C1002 C1000 1.348 . S
C1002 C1004 1.353 . S
C1002 H1044 0.929 . S
C1003 C1000 1.356 . S
C1003 C1005 1.358 . S
C1003 H1045 0.930 . S
C1004 N1001 1.314 . S
C1004 C1002 1.353 . S
C1004 H1046 0.930 . S
C1005 N1001 1.279 . S
C1005 C1003 1.358 . S
C1005 H1047 0.930 . S
C1006 C1007 1.348 . S
C1006 C1008 1.356 . S
C1006 O1031 1.325 . S
C1007 C1006 1.348 . S
C1007 C1009 1.353 . S
C1007 H1048 0.929 . S
C1008 C1006 1.356 . S
C1008 C1010 1.358 . S
C1008 H1049 0.930 . S
C1009 C1007 1.353 . S
C1009 N1011 1.314 . S
C1009 H1050 0.930 . S
C1010 C1008 1.358 . S
C1010 N1011 1.279 . S
C1010 H1051 0.930 . S
N1011 C1009 1.314 . S
N1011 C1010 1.279 . S
C1012 C1014 1.353 . S
C1012 N1015 1.314 . S
C1012 H1018 0.930 . S
C1013 N1015 1.279 . S
C1013 C1016 1.358 . S
C1013 H1019 0.930 . S
C1014 C1012 1.353 . S
C1014 C1017 1.348 . S
C1014 H1052 0.929 . S
N1015 Li970 1.990 . S
N1015 C1012 1.314 . S
N1015 C1013 1.279 . S
C1016 C1013 1.358 . S
C1016 C1017 1.356 . S
C1016 H1053 0.930 . S
C1017 C1014 1.348 . S
C1017 C1016 1.356 . S
H1018 C1012 0.930 . S
H1019 C1013 0.930 . S
C1020 N1021 1.314 . S
C1020 C1022 1.353 . S
C1020 H1026 0.930 . S
N1021 Li971 1.990 . S
N1021 C1020 1.314 . S
N1021 C1024 1.279 . S
C1022 C1020 1.353 . S
C1022 C1025 1.348 . S
C1022 H1054 0.929 . S
C1023 C1024 1.358 . S
C1023 C1025 1.356 . S
C1023 H1055 0.930 . S
C1024 N1021 1.279 . S
C1024 C1023 1.358 . S
C1024 H1027 0.930 . S
C1025 C1022 1.348 . S
C1025 C1023 1.356 . S
H1026 C1020 0.930 . S
H1027 C1024 0.930 . S
O1028 Li968 1.956 . S
O1028 Li969 1.970 . S
O1028 Li970 1.961 . S
O1028 C972 1.325 . S
O1029 Li968 1.970 . S
O1029 Li969 1.956 . S
O1029 Li971 1.961 . S
O1029 C978 1.325 . S
O1030 Li968 1.961 . S
O1030 Li970 1.956 . S
O1030 Li971 1.970 . S
O1030 C1000 1.325 . S
O1031 Li969 1.961 . S
O1031 Li970 1.970 . S
O1031 Li971 1.956 . S
O1031 C1006 1.325 . S
H1032 C974 0.929 . S
H1033 C975 0.930 . S
H1034 C976 0.930 . S
H1035 C977 0.930 . S
H1036 C979 0.930 . S
H1037 C981 0.929 . S
H1038 C982 0.930 . S
H1039 C983 0.919 1_554 S
H1040 C986 0.930 . S
H1041 C989 0.929 . S
H1042 C994 0.929 . S
H1043 C995 0.930 . S
H1044 C1002 0.929 . S
H1045 C1003 0.930 . S
H1046 C1004 0.930 . S
H1047 C1005 0.930 . S
H1048 C1007 0.929 . S
H1049 C1008 0.930 . S
H1050 C1009 0.930 . S
H1051 C1010 0.930 . S
H1052 C1014 0.929 . S
H1053 C1016 0.930 . S
H1054 C1022 0.929 . S
H1055 C1023 0.930 . S
Li1056 N1073 1.990 . S
Li1056 O1116 1.956 . S
Li1056 O1117 1.970 . S
Li1056 O1118 1.961 . S
Li1057 N1081 1.990 . S
Li1057 O1116 1.970 . S
Li1057 O1117 1.956 . S
Li1057 O1119 1.961 . S
Li1058 N1103 1.990 . S
Li1058 O1116 1.961 . S
Li1058 O1118 1.956 . S
Li1058 O1119 1.970 . S
Li1059 N1109 1.990 . S
Li1059 O1117 1.961 . S
Li1059 O1118 1.970 . S
Li1059 O1119 1.956 . S
C1060 C1062 1.348 . S
C1060 C1063 1.356 . S
C1060 O1116 1.325 . S
N1061 C1064 1.314 . S
N1061 C1065 1.279 . S
C1062 C1060 1.348 . S
C1062 C1064 1.353 . S
C1062 H1120 0.929 . S
C1063 C1060 1.356 . S
C1063 C1065 1.358 . S
C1063 H1121 0.930 . S
C1064 N1061 1.314 . S
C1064 C1062 1.353 . S
C1064 H1122 0.930 . S
C1065 N1061 1.279 . S
C1065 C1063 1.358 . S
C1065 H1123 0.930 . S
C1066 C1069 1.348 . S
C1066 C1070 1.356 . S
C1066 O1117 1.325 . S
C1067 N1068 1.279 . S
C1067 C1070 1.358 . S
C1067 H1124 0.930 . S
N1068 C1067 1.279 . S
N1068 C1071 1.314 . S
C1069 C1066 1.348 . S
C1069 C1071 1.353 . S
C1069 H1125 0.929 . S
C1070 C1066 1.356 . S
C1070 C1067 1.358 . S
C1070 H1126 0.930 . S
C1071 N1068 1.314 . S
C1071 C1069 1.353 . S
C1071 H1127 0.930 1_556 S
C1072 N1073 1.314 . S
C1072 C1077 1.353 . S
C1072 H1078 0.930 . S
N1073 Li1056 1.990 . S
N1073 C1072 1.314 . S
N1073 C1075 1.279 . S
C1074 C1075 1.358 . S
C1074 C1076 1.356 . S
C1074 H1128 0.930 . S
C1075 N1073 1.279 . S
C1075 C1074 1.358 . S
C1075 H1079 0.930 . S
C1076 C1074 1.356 . S
C1076 C1077 1.348 . S
C1077 C1072 1.353 . S
C1077 C1076 1.348 . S
C1077 H1129 0.929 . S
H1078 C1072 0.930 . S
H1079 C1075 0.930 . S
C1080 N1081 1.314 . S
C1080 C1082 1.353 . S
C1080 H1086 0.930 . S
N1081 Li1057 1.990 . S
N1081 C1080 1.314 . S
N1081 C1084 1.279 . S
C1082 C1080 1.353 . S
C1082 C1085 1.348 . S
C1082 H1130 0.929 . S
C1083 C1084 1.358 . S
C1083 C1085 1.356 . S
C1083 H1131 0.930 . S
C1084 N1081 1.279 . S
C1084 C1083 1.358 . S
C1084 H1087 0.930 . S
C1085 C1082 1.348 . S
C1085 C1083 1.356 . S
H1086 C1080 0.930 . S
H1087 C1084 0.930 . S
C1088 C1090 1.348 . S
C1088 C1091 1.356 . S
C1088 O1118 1.325 . S
N1089 C1092 1.314 . S
N1089 C1093 1.279 . S
C1090 C1088 1.348 . S
C1090 C1092 1.353 . S
C1090 H1132 0.929 . S
C1091 C1088 1.356 . S
C1091 C1093 1.358 . S
C1091 H1133 0.930 . S
C1092 N1089 1.314 . S
C1092 C1090 1.353 . S
C1092 H1134 0.930 . S
C1093 N1089 1.279 . S
C1093 C1091 1.358 . S
C1093 H1135 0.930 . S
C1094 C1095 1.348 . S
C1094 C1096 1.356 . S
C1094 O1119 1.325 . S
C1095 C1094 1.348 . S
C1095 C1097 1.353 . S
C1095 H1136 0.929 . S
C1096 C1094 1.356 . S
C1096 C1098 1.358 . S
C1096 H1137 0.930 . S
C1097 C1095 1.353 . S
C1097 N1099 1.314 . S
C1097 H1138 0.930 . S
C1098 C1096 1.358 . S
C1098 N1099 1.279 . S
C1098 H1139 0.930 . S
N1099 C1097 1.314 . S
N1099 C1098 1.279 . S
C1100 C1102 1.353 . S
C1100 N1103 1.314 . S
C1100 H1106 0.930 . S
C1101 N1103 1.279 . S
C1101 C1104 1.358 . S
C1101 H1107 0.930 . S
C1102 C1100 1.353 . S
C1102 C1105 1.348 . S
C1102 H1140 0.929 . S
N1103 Li1058 1.990 . S
N1103 C1100 1.314 . S
N1103 C1101 1.279 . S
C1104 C1101 1.358 . S
C1104 C1105 1.356 . S
C1104 H1141 0.930 . S
C1105 C1102 1.348 . S
C1105 C1104 1.356 . S
H1106 C1100 0.930 . S
H1107 C1101 0.930 . S
C1108 N1109 1.314 . S
C1108 C1110 1.353 . S
C1108 H1114 0.930 . S
N1109 Li1059 1.990 . S
N1109 C1108 1.314 . S
N1109 C1112 1.279 . S
C1110 C1108 1.353 . S
C1110 C1113 1.348 . S
C1110 H1142 0.929 . S
C1111 C1112 1.358 . S
C1111 C1113 1.356 . S
C1111 H1143 0.930 . S
C1112 N1109 1.279 . S
C1112 C1111 1.358 . S
C1112 H1115 0.930 . S
C1113 C1110 1.348 . S
C1113 C1111 1.356 . S
H1114 C1108 0.930 . S
H1115 C1112 0.930 . S
O1116 Li1056 1.956 . S
O1116 Li1057 1.970 . S
O1116 Li1058 1.961 . S
O1116 C1060 1.325 . S
O1117 Li1056 1.970 . S
O1117 Li1057 1.956 . S
O1117 Li1059 1.961 . S
O1117 C1066 1.325 . S
O1118 Li1056 1.961 . S
O1118 Li1058 1.956 . S
O1118 Li1059 1.970 . S
O1118 C1088 1.325 . S
O1119 Li1057 1.961 . S
O1119 Li1058 1.970 . S
O1119 Li1059 1.956 . S
O1119 C1094 1.325 . S
H1120 C1062 0.929 . S
H1121 C1063 0.930 . S
H1122 C1064 0.930 . S
H1123 C1065 0.930 . S
H1124 C1067 0.930 . S
H1125 C1069 0.929 . S
H1126 C1070 0.930 . S
H1127 C1071 0.930 1_554 S
H1128 C1074 0.930 . S
H1129 C1077 0.929 . S
H1130 C1082 0.929 . S
H1131 C1083 0.930 . S
H1132 C1090 0.929 . S
H1133 C1091 0.930 . S
H1134 C1092 0.930 . S
H1135 C1093 0.930 . S
H1136 C1095 0.929 . S
H1137 C1096 0.930 . S
H1138 C1097 0.930 . S
H1139 C1098 0.930 . S
H1140 C1102 0.929 . S
H1141 C1104 0.930 . S
H1142 C1110 0.929 . S
H1143 C1111 0.930 . S
Li1144 N1161 1.990 . S
Li1144 O1204 1.956 . S
Li1144 O1205 1.970 . S
Li1144 O1206 1.961 . S
Li1145 N1169 1.990 . S
Li1145 O1204 1.970 . S
Li1145 O1205 1.956 . S
Li1145 O1207 1.961 . S
Li1146 N1191 1.990 . S
Li1146 O1204 1.961 . S
Li1146 O1206 1.956 . S
Li1146 O1207 1.970 . S
Li1147 N1197 1.990 . S
Li1147 O1205 1.961 . S
Li1147 O1206 1.970 . S
Li1147 O1207 1.956 . S
C1148 C1150 1.348 . S
C1148 C1151 1.356 . S
C1148 O1204 1.325 . S
N1149 C1152 1.314 . S
N1149 C1153 1.279 . S
C1150 C1148 1.348 . S
C1150 C1152 1.353 . S
C1150 H1208 0.929 . S
C1151 C1148 1.356 . S
C1151 C1153 1.358 . S
C1151 H1209 0.930 . S
C1152 N1149 1.314 . S
C1152 C1150 1.353 . S
C1152 H1210 0.930 . S
C1153 N1149 1.279 . S
C1153 C1151 1.358 . S
C1153 H1211 0.930 . S
C1154 C1157 1.348 . S
C1154 C1158 1.356 . S
C1154 O1205 1.325 . S
C1155 N1156 1.279 . S
C1155 C1158 1.358 . S
C1155 H1212 0.930 . S
N1156 C1155 1.279 . S
N1156 C1159 1.314 . S
C1157 C1154 1.348 . S
C1157 C1159 1.353 . S
C1157 H1213 0.929 . S
C1158 C1154 1.356 . S
C1158 C1155 1.358 . S
C1158 H1214 0.930 . S
C1159 N1156 1.314 . S
C1159 C1157 1.353 . S
C1159 H1215 0.930 . S
C1160 N1161 1.314 . S
C1160 C1165 1.353 . S
C1160 H1166 0.930 . S
N1161 Li1144 1.990 . S
N1161 C1160 1.314 . S
N1161 C1163 1.279 . S
C1162 C1163 1.358 . S
C1162 C1164 1.356 . S
C1162 H1216 0.930 . S
C1163 N1161 1.279 . S
C1163 C1162 1.358 . S
C1163 H1167 0.930 . S
C1164 C1162 1.356 . S
C1164 C1165 1.348 . S
C1165 C1160 1.353 . S
C1165 C1164 1.348 . S
C1165 H1217 0.929 . S
H1166 C1160 0.930 . S
H1167 C1163 0.930 . S
C1168 N1169 1.314 . S
C1168 C1170 1.353 . S
C1168 H1174 0.930 . S
N1169 Li1145 1.990 . S
N1169 C1168 1.314 . S
N1169 C1172 1.279 . S
C1170 C1168 1.353 . S
C1170 C1173 1.348 . S
C1170 H1218 0.929 . S
C1171 C1172 1.358 . S
C1171 C1173 1.356 . S
C1171 H1219 0.930 . S
C1172 N1169 1.279 . S
C1172 C1171 1.358 . S
C1172 H1175 0.930 . S
C1173 C1170 1.348 . S
C1173 C1171 1.356 . S
H1174 C1168 0.930 . S
H1175 C1172 0.930 . S
C1176 C1178 1.348 . S
C1176 C1179 1.356 . S
C1176 O1206 1.325 . S
N1177 C1180 1.314 . S
N1177 C1181 1.279 . S
C1178 C1176 1.348 . S
C1178 C1180 1.353 . S
C1178 H1220 0.929 . S
C1179 C1176 1.356 . S
C1179 C1181 1.358 . S
C1179 H1221 0.930 . S
C1180 N1177 1.314 . S
C1180 C1178 1.353 . S
C1180 H1222 0.930 . S
C1181 N1177 1.279 . S
C1181 C1179 1.358 . S
C1181 H1223 0.930 . S
C1182 C1183 1.348 . S
C1182 C1184 1.356 . S
C1182 O1207 1.325 . S
C1183 C1182 1.348 . S
C1183 C1185 1.353 . S
C1183 H1224 0.929 . S
C1184 C1182 1.356 . S
C1184 C1186 1.358 . S
C1184 H1225 0.930 . S
C1185 C1183 1.353 . S
C1185 N1187 1.314 . S
C1185 H1226 0.930 . S
C1186 C1184 1.358 . S
C1186 N1187 1.279 . S
C1186 H1227 0.930 . S
N1187 C1185 1.314 . S
N1187 C1186 1.279 . S
C1188 C1190 1.353 . S
C1188 N1191 1.314 . S
C1188 H1194 0.930 . S
C1189 N1191 1.279 . S
C1189 C1192 1.358 . S
C1189 H1195 0.930 . S
C1190 C1188 1.353 . S
C1190 C1193 1.348 . S
C1190 H1228 0.929 . S
N1191 Li1146 1.990 . S
N1191 C1188 1.314 . S
N1191 C1189 1.279 . S
C1192 C1189 1.358 . S
C1192 C1193 1.356 . S
C1192 H1229 0.930 . S
C1193 C1190 1.348 . S
C1193 C1192 1.356 . S
H1194 C1188 0.930 . S
H1195 C1189 0.930 . S
C1196 N1197 1.314 . S
C1196 C1198 1.353 . S
C1196 H1202 0.930 . S
N1197 Li1147 1.990 . S
N1197 C1196 1.314 . S
N1197 C1200 1.279 . S
C1198 C1196 1.353 . S
C1198 C1201 1.348 . S
C1198 H1230 0.929 . S
C1199 C1200 1.358 . S
C1199 C1201 1.356 . S
C1199 H1231 0.930 . S
C1200 N1197 1.279 . S
C1200 C1199 1.358 . S
C1200 H1203 0.930 . S
C1201 C1198 1.348 . S
C1201 C1199 1.356 . S
H1202 C1196 0.930 . S
H1203 C1200 0.930 . S
O1204 Li1144 1.956 . S
O1204 Li1145 1.970 . S
O1204 Li1146 1.961 . S
O1204 C1148 1.325 . S
O1205 Li1144 1.970 . S
O1205 Li1145 1.956 . S
O1205 Li1147 1.961 . S
O1205 C1154 1.325 . S
O1206 Li1144 1.961 . S
O1206 Li1146 1.956 . S
O1206 Li1147 1.970 . S
O1206 C1176 1.325 . S
O1207 Li1145 1.961 . S
O1207 Li1146 1.970 . S
O1207 Li1147 1.956 . S
O1207 C1182 1.325 . S
H1208 C1150 0.929 . S
H1209 C1151 0.930 . S
H1210 C1152 0.930 . S
H1211 C1153 0.930 . S
H1212 C1155 0.930 . S
H1213 C1157 0.929 . S
H1214 C1158 0.930 . S
H1215 C1159 0.930 . S
H1216 C1162 0.930 . S
H1217 C1165 0.929 . S
H1218 C1170 0.929 . S
H1219 C1171 0.930 . S
H1220 C1178 0.929 . S
H1221 C1179 0.930 . S
H1222 C1180 0.930 . S
H1223 C1181 0.930 . S
H1224 C1183 0.929 . S
H1225 C1184 0.930 . S
H1226 C1185 0.930 . S
H1227 C1186 0.930 . S
H1228 C1190 0.929 . S
H1229 C1192 0.930 . S
H1230 C1198 0.929 . S
H1231 C1199 0.930 . S
Li1232 N1249 1.990 . S
Li1232 O1292 1.956 . S
Li1232 O1293 1.970 . S
Li1232 O1294 1.961 . S
Li1233 N1257 1.990 . S
Li1233 O1292 1.970 . S
Li1233 O1293 1.956 . S
Li1233 O1295 1.961 . S
Li1234 N1279 1.990 . S
Li1234 O1292 1.961 . S
Li1234 O1294 1.956 . S
Li1234 O1295 1.970 . S
Li1235 N1285 1.990 . S
Li1235 O1293 1.961 . S
Li1235 O1294 1.970 . S
Li1235 O1295 1.956 . S
C1236 C1238 1.348 . S
C1236 C1239 1.356 . S
C1236 O1292 1.325 . S
N1237 C1240 1.314 . S
N1237 C1241 1.279 . S
C1238 C1236 1.348 . S
C1238 C1240 1.353 . S
C1238 H1296 0.929 . S
C1239 C1236 1.356 . S
C1239 C1241 1.358 . S
C1239 H1297 0.930 . S
C1240 N1237 1.314 . S
C1240 C1238 1.353 . S
C1240 H1298 0.930 1_556 S
C1241 N1237 1.279 . S
C1241 C1239 1.358 . S
C1241 H1299 0.930 . S
C1242 C1245 1.348 . S
C1242 C1246 1.356 . S
C1242 O1293 1.325 . S
C1243 N1244 1.279 . S
C1243 C1246 1.358 . S
C1243 H1300 0.930 . S
N1244 C1243 1.279 . S
N1244 C1247 1.314 . S
C1245 C1242 1.348 . S
C1245 C1247 1.353 . S
C1245 H1301 0.929 . S
C1246 C1242 1.356 . S
C1246 C1243 1.358 . S
C1246 H1302 0.930 . S
C1247 N1244 1.314 . S
C1247 C1245 1.353 . S
C1247 H1303 0.930 . S
C1248 N1249 1.314 . S
C1248 C1253 1.353 . S
C1248 H1254 0.930 . S
N1249 Li1232 1.990 . S
N1249 C1248 1.314 . S
N1249 C1251 1.279 . S
C1250 C1251 1.358 . S
C1250 C1252 1.356 . S
C1250 H1304 0.930 . S
C1251 N1249 1.279 . S
C1251 C1250 1.358 . S
C1251 H1255 0.930 . S
C1252 C1250 1.356 . S
C1252 C1253 1.348 . S
C1253 C1248 1.353 . S
C1253 C1252 1.348 . S
C1253 H1305 0.929 . S
H1254 C1248 0.930 . S
H1255 C1251 0.930 . S
C1256 N1257 1.314 . S
C1256 C1258 1.353 . S
C1256 H1262 0.930 . S
N1257 Li1233 1.990 . S
N1257 C1256 1.314 . S
N1257 C1260 1.279 . S
C1258 C1256 1.353 . S
C1258 C1261 1.348 . S
C1258 H1306 0.929 . S
C1259 C1260 1.358 . S
C1259 C1261 1.356 . S
C1259 H1307 0.930 . S
C1260 N1257 1.279 . S
C1260 C1259 1.358 . S
C1260 H1263 0.930 . S
C1261 C1258 1.348 . S
C1261 C1259 1.356 . S
H1262 C1256 0.930 . S
H1263 C1260 0.930 . S
C1264 C1266 1.348 . S
C1264 C1267 1.356 . S
C1264 O1294 1.325 . S
N1265 C1268 1.314 . S
N1265 C1269 1.279 . S
C1266 C1264 1.348 . S
C1266 C1268 1.353 . S
C1266 H1308 0.929 . S
C1267 C1264 1.356 . S
C1267 C1269 1.358 . S
C1267 H1309 0.930 . S
C1268 N1265 1.314 . S
C1268 C1266 1.353 . S
C1268 H1310 0.930 . S
C1269 N1265 1.279 . S
C1269 C1267 1.358 . S
C1269 H1311 0.930 . S
C1270 C1271 1.348 . S
C1270 C1272 1.356 . S
C1270 O1295 1.325 . S
C1271 C1270 1.348 . S
C1271 C1273 1.353 . S
C1271 H1312 0.929 . S
C1272 C1270 1.356 . S
C1272 C1274 1.358 . S
C1272 H1313 0.930 . S
C1273 C1271 1.353 . S
C1273 N1275 1.314 . S
C1273 H1314 0.930 . S
C1274 C1272 1.358 . S
C1274 N1275 1.279 . S
C1274 H1315 0.930 . S
N1275 C1273 1.314 . S
N1275 C1274 1.279 . S
C1276 C1278 1.353 . S
C1276 N1279 1.314 . S
C1276 H1282 0.930 . S
C1277 N1279 1.279 . S
C1277 C1280 1.358 . S
C1277 H1283 0.930 . S
C1278 C1276 1.353 . S
C1278 C1281 1.348 . S
C1278 H1316 0.929 . S
N1279 Li1234 1.990 . S
N1279 C1276 1.314 . S
N1279 C1277 1.279 . S
C1280 C1277 1.358 . S
C1280 C1281 1.356 . S
C1280 H1317 0.930 . S
C1281 C1278 1.348 . S
C1281 C1280 1.356 . S
H1282 C1276 0.930 . S
H1283 C1277 0.930 . S
C1284 N1285 1.314 . S
C1284 C1286 1.353 . S
C1284 H1290 0.930 . S
N1285 Li1235 1.990 . S
N1285 C1284 1.314 . S
N1285 C1288 1.279 . S
C1286 C1284 1.353 . S
C1286 C1289 1.348 . S
C1286 H1318 0.929 . S
C1287 C1288 1.358 . S
C1287 C1289 1.356 . S
C1287 H1319 0.930 . S
C1288 N1285 1.279 . S
C1288 C1287 1.358 . S
C1288 H1291 0.930 . S
C1289 C1286 1.348 . S
C1289 C1287 1.356 . S
H1290 C1284 0.930 . S
H1291 C1288 0.930 . S
O1292 Li1232 1.956 . S
O1292 Li1233 1.970 . S
O1292 Li1234 1.961 . S
O1292 C1236 1.325 . S
O1293 Li1232 1.970 . S
O1293 Li1233 1.956 . S
O1293 Li1235 1.961 . S
O1293 C1242 1.325 . S
O1294 Li1232 1.961 . S
O1294 Li1234 1.956 . S
O1294 Li1235 1.970 . S
O1294 C1264 1.325 . S
O1295 Li1233 1.961 . S
O1295 Li1234 1.970 . S
O1295 Li1235 1.956 . S
O1295 C1270 1.325 . S
H1296 C1238 0.929 . S
H1297 C1239 0.930 . S
H1298 C1240 0.930 1_554 S
H1299 C1241 0.930 . S
H1300 C1243 0.930 . S
H1301 C1245 0.929 . S
H1302 C1246 0.930 . S
H1303 C1247 0.930 . S
H1304 C1250 0.930 . S
H1305 C1253 0.929 . S
H1306 C1258 0.929 . S
H1307 C1259 0.930 . S
H1308 C1266 0.929 . S
H1309 C1267 0.930 . S
H1310 C1268 0.930 . S
H1311 C1269 0.930 . S
H1312 C1271 0.929 . S
H1313 C1272 0.930 . S
H1314 C1273 0.930 . S
H1315 C1274 0.930 . S
H1316 C1278 0.929 . S
H1317 C1280 0.930 . S
H1318 C1286 0.929 . S
H1319 C1287 0.930 . S
Li1320 N1337 1.990 . S
Li1320 O1380 1.956 . S
Li1320 O1381 1.970 . S
Li1320 O1382 1.961 . S
Li1321 N1345 1.990 . S
Li1321 O1380 1.970 . S
Li1321 O1381 1.956 . S
Li1321 O1383 1.961 . S
Li1322 N1367 1.990 . S
Li1322 O1380 1.961 . S
Li1322 O1382 1.956 . S
Li1322 O1383 1.970 . S
Li1323 N1373 1.990 . S
Li1323 O1381 1.961 . S
Li1323 O1382 1.970 . S
Li1323 O1383 1.956 . S
C1324 C1326 1.348 . S
C1324 C1327 1.356 . S
C1324 O1380 1.325 . S
N1325 C1328 1.314 . S
N1325 C1329 1.279 . S
C1326 C1324 1.348 . S
C1326 C1328 1.353 . S
C1326 H1384 0.929 . S
C1327 C1324 1.356 . S
C1327 C1329 1.358 . S
C1327 H1385 0.930 . S
C1328 N1325 1.314 . S
C1328 C1326 1.353 . S
C1328 H1386 0.930 . S
C1329 N1325 1.279 . S
C1329 C1327 1.358 . S
C1329 H1387 0.930 . S
C1330 C1333 1.348 . S
C1330 C1334 1.356 . S
C1330 O1381 1.325 . S
C1331 N1332 1.279 . S
C1331 C1334 1.358 . S
C1331 H1388 0.930 . S
N1332 C1331 1.279 . S
N1332 C1335 1.314 . S
C1333 C1330 1.348 . S
C1333 C1335 1.353 . S
C1333 H1389 0.929 . S
C1334 C1330 1.356 . S
C1334 C1331 1.358 . S
C1334 H1390 0.930 . S
C1335 N1332 1.314 . S
C1335 C1333 1.353 . S
C1335 H1391 0.930 . S
C1336 N1337 1.314 . S
C1336 C1341 1.353 . S
C1336 H1342 0.930 . S
N1337 Li1320 1.990 . S
N1337 C1336 1.314 . S
N1337 C1339 1.279 . S
C1338 C1339 1.358 . S
C1338 C1340 1.356 . S
C1338 H1392 0.930 . S
C1339 N1337 1.279 . S
C1339 C1338 1.358 . S
C1339 H1343 0.930 . S
C1340 C1338 1.356 . S
C1340 C1341 1.348 . S
C1341 C1336 1.353 . S
C1341 C1340 1.348 . S
C1341 H1393 0.929 . S
H1342 C1336 0.930 . S
H1343 C1339 0.930 . S
C1344 N1345 1.314 . S
C1344 C1346 1.353 . S
C1344 H1350 0.930 . S
N1345 Li1321 1.990 . S
N1345 C1344 1.314 . S
N1345 C1348 1.279 . S
C1346 C1344 1.353 . S
C1346 C1349 1.348 . S
C1346 H1394 0.929 . S
C1347 C1348 1.358 . S
C1347 C1349 1.356 . S
C1347 H1395 0.930 . S
C1348 N1345 1.279 . S
C1348 C1347 1.358 . S
C1348 H1351 0.930 . S
C1349 C1346 1.348 . S
C1349 C1347 1.356 . S
H1350 C1344 0.930 . S
H1351 C1348 0.930 . S
C1352 C1354 1.348 . S
C1352 C1355 1.356 . S
C1352 O1382 1.325 . S
N1353 C1356 1.314 . S
N1353 C1357 1.279 . S
C1354 C1352 1.348 . S
C1354 C1356 1.353 . S
C1354 H1396 0.929 . S
C1355 C1352 1.356 . S
C1355 C1357 1.358 . S
C1355 H1397 0.930 . S
C1356 N1353 1.314 . S
C1356 C1354 1.353 . S
C1356 H1398 0.930 . S
C1357 N1353 1.279 . S
C1357 C1355 1.358 . S
C1357 H1399 0.930 . S
C1358 C1359 1.348 . S
C1358 C1360 1.356 . S
C1358 O1383 1.325 . S
C1359 C1358 1.348 . S
C1359 C1361 1.353 . S
C1359 H1400 0.929 . S
C1360 C1358 1.356 . S
C1360 C1362 1.358 . S
C1360 H1401 0.930 . S
C1361 C1359 1.353 . S
C1361 N1363 1.314 . S
C1361 H1402 0.930 . S
C1362 C1360 1.358 . S
C1362 N1363 1.279 . S
C1362 H1403 0.930 . S
N1363 C1361 1.314 . S
N1363 C1362 1.279 . S
C1364 C1366 1.353 . S
C1364 N1367 1.314 . S
C1364 H1370 0.930 . S
C1365 N1367 1.279 . S
C1365 C1368 1.358 . S
C1365 H1371 0.930 . S
C1366 C1364 1.353 . S
C1366 C1369 1.348 . S
C1366 H1404 0.929 . S
N1367 Li1322 1.990 . S
N1367 C1364 1.314 . S
N1367 C1365 1.279 . S
C1368 C1365 1.358 . S
C1368 C1369 1.356 . S
C1368 H1405 0.930 . S
C1369 C1366 1.348 . S
C1369 C1368 1.356 . S
H1370 C1364 0.930 . S
H1371 C1365 0.930 . S
C1372 N1373 1.314 . S
C1372 C1374 1.353 . S
C1372 H1378 0.930 . S
N1373 Li1323 1.990 . S
N1373 C1372 1.314 . S
N1373 C1376 1.279 . S
C1374 C1372 1.353 . S
C1374 C1377 1.348 . S
C1374 H1406 0.929 . S
C1375 C1376 1.358 . S
C1375 C1377 1.356 . S
C1375 H1407 0.930 . S
C1376 N1373 1.279 . S
C1376 C1375 1.358 . S
C1376 H1379 0.930 . S
C1377 C1374 1.348 . S
C1377 C1375 1.356 . S
H1378 C1372 0.930 . S
H1379 C1376 0.930 . S
O1380 Li1320 1.956 . S
O1380 Li1321 1.970 . S
O1380 Li1322 1.961 . S
O1380 C1324 1.325 . S
O1381 Li1320 1.970 . S
O1381 Li1321 1.956 . S
O1381 Li1323 1.961 . S
O1381 C1330 1.325 . S
O1382 Li1320 1.961 . S
O1382 Li1322 1.956 . S
O1382 Li1323 1.970 . S
O1382 C1352 1.325 . S
O1383 Li1321 1.961 . S
O1383 Li1322 1.970 . S
O1383 Li1323 1.956 . S
O1383 C1358 1.325 . S
H1384 C1326 0.929 . S
H1385 C1327 0.930 . S
H1386 C1328 0.930 . S
H1387 C1329 0.930 . S
H1388 C1331 0.930 . S
H1389 C1333 0.929 . S
H1390 C1334 0.930 . S
H1391 C1335 0.930 . S
H1392 C1338 0.930 . S
H1393 C1341 0.929 . S
H1394 C1346 0.929 . S
H1395 C1347 0.930 . S
H1396 C1354 0.929 . S
H1397 C1355 0.930 . S
H1398 C1356 0.930 . S
H1399 C1357 0.930 . S
H1400 C1359 0.929 . S
H1401 C1360 0.930 . S
H1402 C1361 0.930 . S
H1403 C1362 0.930 . S
H1404 C1366 0.929 . S
H1405 C1368 0.930 . S
H1406 C1374 0.929 . S
H1407 C1375 0.930 . S
Li1408 N1425 1.990 . S
Li1408 O1468 1.956 . S
Li1408 O1469 1.970 . S
Li1408 O1470 1.961 . S
Li1409 N1433 1.990 . S
Li1409 O1468 1.970 . S
Li1409 O1469 1.956 . S
Li1409 O1471 1.961 . S
Li1410 N1455 1.990 . S
Li1410 O1468 1.961 . S
Li1410 O1470 1.956 . S
Li1410 O1471 1.970 . S
Li1411 N1461 1.990 . S
Li1411 O1469 1.961 . S
Li1411 O1470 1.970 . S
Li1411 O1471 1.956 . S
C1412 C1414 1.348 . S
C1412 C1415 1.356 . S
C1412 O1468 1.325 . S
N1413 C1416 1.314 . S
N1413 C1417 1.279 . S
C1414 C1412 1.348 . S
C1414 C1416 1.353 . S
C1414 H1472 0.929 . S
C1415 C1412 1.356 . S
C1415 C1417 1.358 . S
C1415 H1473 0.930 . S
C1416 N1413 1.314 . S
C1416 C1414 1.353 . S
C1416 H1474 0.930 1_556 S
C1417 N1413 1.279 . S
C1417 C1415 1.358 . S
C1417 H1475 0.930 . S
C1418 C1421 1.348 . S
C1418 C1422 1.356 . S
C1418 O1469 1.325 . S
C1419 N1420 1.279 . S
C1419 C1422 1.358 . S
C1419 H1476 0.930 . S
N1420 C1419 1.279 . S
N1420 C1423 1.314 . S
C1421 C1418 1.348 . S
C1421 C1423 1.353 . S
C1421 H1477 0.929 . S
C1422 C1418 1.356 . S
C1422 C1419 1.358 . S
C1422 H1478 0.930 . S
C1423 N1420 1.314 . S
C1423 C1421 1.353 . S
C1423 H1479 0.930 . S
C1424 N1425 1.314 . S
C1424 C1429 1.353 . S
C1424 H1430 0.930 . S
N1425 Li1408 1.990 . S
N1425 C1424 1.314 . S
N1425 C1427 1.279 . S
C1426 C1427 1.358 . S
C1426 C1428 1.356 . S
C1426 H1480 0.930 . S
C1427 N1425 1.279 . S
C1427 C1426 1.358 . S
C1427 H1431 0.930 . S
C1428 C1426 1.356 . S
C1428 C1429 1.348 . S
C1429 C1424 1.353 . S
C1429 C1428 1.348 . S
C1429 H1481 0.929 . S
H1430 C1424 0.930 . S
H1431 C1427 0.930 . S
C1432 N1433 1.314 . S
C1432 C1434 1.353 . S
C1432 H1438 0.930 . S
N1433 Li1409 1.990 . S
N1433 C1432 1.314 . S
N1433 C1436 1.279 . S
C1434 C1432 1.353 . S
C1434 C1437 1.348 . S
C1434 H1482 0.929 . S
C1435 C1436 1.358 . S
C1435 C1437 1.356 . S
C1435 H1483 0.930 . S
C1436 N1433 1.279 . S
C1436 C1435 1.358 . S
C1436 H1439 0.930 . S
C1437 C1434 1.348 . S
C1437 C1435 1.356 . S
H1438 C1432 0.930 . S
H1439 C1436 0.930 . S
C1440 C1442 1.348 . S
C1440 C1443 1.356 . S
C1440 O1470 1.325 . S
N1441 C1444 1.314 . S
N1441 C1445 1.279 . S
C1442 C1440 1.348 . S
C1442 C1444 1.353 . S
C1442 H1484 0.929 . S
C1443 C1440 1.356 . S
C1443 C1445 1.358 . S
C1443 H1485 0.930 . S
C1444 N1441 1.314 . S
C1444 C1442 1.353 . S
C1444 H1486 0.930 . S
C1445 N1441 1.279 . S
C1445 C1443 1.358 . S
C1445 H1487 0.930 . S
C1446 C1447 1.348 . S
C1446 C1448 1.356 . S
C1446 O1471 1.325 . S
C1447 C1446 1.348 . S
C1447 C1449 1.353 . S
C1447 H1488 0.929 . S
C1448 C1446 1.356 . S
C1448 C1450 1.358 . S
C1448 H1489 0.930 . S
C1449 C1447 1.353 . S
C1449 N1451 1.314 . S
C1449 H1490 0.930 . S
C1450 C1448 1.358 . S
C1450 N1451 1.279 . S
C1450 H1491 0.930 . S
N1451 C1449 1.314 . S
N1451 C1450 1.279 . S
C1452 C1454 1.353 . S
C1452 N1455 1.314 . S
C1452 H1458 0.930 . S
C1453 N1455 1.279 . S
C1453 C1456 1.358 . S
C1453 H1459 0.930 . S
C1454 C1452 1.353 . S
C1454 C1457 1.348 . S
C1454 H1492 0.929 . S
N1455 Li1410 1.990 . S
N1455 C1452 1.314 . S
N1455 C1453 1.279 . S
C1456 C1453 1.358 . S
C1456 C1457 1.356 . S
C1456 H1493 0.930 . S
C1457 C1454 1.348 . S
C1457 C1456 1.356 . S
H1458 C1452 0.930 . S
H1459 C1453 0.930 . S
C1460 N1461 1.314 . S
C1460 C1462 1.353 . S
C1460 H1466 0.930 . S
N1461 Li1411 1.990 . S
N1461 C1460 1.314 . S
N1461 C1464 1.279 . S
C1462 C1460 1.353 . S
C1462 C1465 1.348 . S
C1462 H1494 0.929 . S
C1463 C1464 1.358 . S
C1463 C1465 1.356 . S
C1463 H1495 0.930 . S
C1464 N1461 1.279 . S
C1464 C1463 1.358 . S
C1464 H1467 0.930 . S
C1465 C1462 1.348 . S
C1465 C1463 1.356 . S
H1466 C1460 0.930 . S
H1467 C1464 0.930 . S
O1468 Li1408 1.956 . S
O1468 Li1409 1.970 . S
O1468 Li1410 1.961 . S
O1468 C1412 1.325 . S
O1469 Li1408 1.970 . S
O1469 Li1409 1.956 . S
O1469 Li1411 1.961 . S
O1469 C1418 1.325 . S
O1470 Li1408 1.961 . S
O1470 Li1410 1.956 . S
O1470 Li1411 1.970 . S
O1470 C1440 1.325 . S
O1471 Li1409 1.961 . S
O1471 Li1410 1.970 . S
O1471 Li1411 1.956 . S
O1471 C1446 1.325 . S
H1472 C1414 0.929 . S
H1473 C1415 0.930 . S
H1474 C1416 0.930 1_554 S
H1475 C1417 0.930 . S
H1476 C1419 0.930 . S
H1477 C1421 0.929 . S
H1478 C1422 0.930 . S
H1479 C1423 0.930 . S
H1480 C1426 0.930 . S
H1481 C1429 0.929 . S
H1482 C1434 0.929 . S
H1483 C1435 0.930 . S
H1484 C1442 0.929 . S
H1485 C1443 0.930 . S
H1486 C1444 0.930 . S
H1487 C1445 0.930 . S
H1488 C1447 0.929 . S
H1489 C1448 0.930 . S
H1490 C1449 0.930 . S
H1491 C1450 0.930 . S
H1492 C1454 0.929 . S
H1493 C1456 0.930 . S
H1494 C1462 0.929 . S
H1495 C1463 0.930 . S
Li1496 N1513 1.990 . S
Li1496 O1556 1.956 . S
Li1496 O1557 1.970 . S
Li1496 O1558 1.961 . S
Li1497 N1521 1.990 . S
Li1497 O1556 1.970 . S
Li1497 O1557 1.956 . S
Li1497 O1559 1.961 . S
Li1498 N1543 1.990 . S
Li1498 O1556 1.961 . S
Li1498 O1558 1.956 . S
Li1498 O1559 1.970 . S
Li1499 N1549 1.990 . S
Li1499 O1557 1.961 . S
Li1499 O1558 1.970 . S
Li1499 O1559 1.956 . S
C1500 C1502 1.348 . S
C1500 C1503 1.356 . S
C1500 O1556 1.325 . S
N1501 C1504 1.314 . S
N1501 C1505 1.279 . S
C1502 C1500 1.348 . S
C1502 C1504 1.353 . S
C1502 H1560 0.929 . S
C1503 C1500 1.356 . S
C1503 C1505 1.358 . S
C1503 H1561 0.930 . S
C1504 N1501 1.314 . S
C1504 C1502 1.353 . S
C1504 H1562 0.930 . S
C1505 N1501 1.279 . S
C1505 C1503 1.358 . S
C1505 H1563 0.930 . S
C1506 C1509 1.348 . S
C1506 C1510 1.356 . S
C1506 O1557 1.325 . S
C1507 N1508 1.279 . S
C1507 C1510 1.358 . S
C1507 H1564 0.930 . S
N1508 C1507 1.279 . S
N1508 C1511 1.314 . S
C1509 C1506 1.348 . S
C1509 C1511 1.353 . S
C1509 H1565 0.929 . S
C1510 C1506 1.356 . S
C1510 C1507 1.358 . S
C1510 H1566 0.930 . S
C1511 N1508 1.314 . S
C1511 C1509 1.353 . S
C1511 H1567 0.930 . S
C1512 N1513 1.314 . S
C1512 C1517 1.353 . S
C1512 H1518 0.930 . S
N1513 Li1496 1.990 . S
N1513 C1512 1.314 . S
N1513 C1515 1.279 . S
C1514 C1515 1.358 . S
C1514 C1516 1.356 . S
C1514 H1568 0.930 . S
C1515 N1513 1.279 . S
C1515 C1514 1.358 . S
C1515 H1519 0.930 . S
C1516 C1514 1.356 . S
C1516 C1517 1.348 . S
C1517 C1512 1.353 . S
C1517 C1516 1.348 . S
C1517 H1569 0.929 . S
H1518 C1512 0.930 . S
H1519 C1515 0.930 . S
C1520 N1521 1.314 . S
C1520 C1522 1.353 . S
C1520 H1526 0.930 . S
N1521 Li1497 1.990 . S
N1521 C1520 1.314 . S
N1521 C1524 1.279 . S
C1522 C1520 1.353 . S
C1522 C1525 1.348 . S
C1522 H1570 0.929 . S
C1523 C1524 1.358 . S
C1523 C1525 1.356 . S
C1523 H1571 0.930 . S
C1524 N1521 1.279 . S
C1524 C1523 1.358 . S
C1524 H1527 0.930 . S
C1525 C1522 1.348 . S
C1525 C1523 1.356 . S
H1526 C1520 0.930 . S
H1527 C1524 0.930 . S
C1528 C1530 1.348 . S
C1528 C1531 1.356 . S
C1528 O1558 1.325 . S
N1529 C1532 1.314 . S
N1529 C1533 1.279 . S
C1530 C1528 1.348 . S
C1530 C1532 1.353 . S
C1530 H1572 0.929 . S
C1531 C1528 1.356 . S
C1531 C1533 1.358 . S
C1531 H1573 0.930 . S
C1532 N1529 1.314 . S
C1532 C1530 1.353 . S
C1532 H1574 0.930 . S
C1533 N1529 1.279 . S
C1533 C1531 1.358 . S
C1533 H1575 0.930 . S
C1534 C1535 1.348 . S
C1534 C1536 1.356 . S
C1534 O1559 1.325 . S
C1535 C1534 1.348 . S
C1535 C1537 1.353 . S
C1535 H1576 0.929 . S
C1536 C1534 1.356 . S
C1536 C1538 1.358 . S
C1536 H1577 0.930 . S
C1537 C1535 1.353 . S
C1537 N1539 1.314 . S
C1537 H1578 0.930 . S
C1538 C1536 1.358 . S
C1538 N1539 1.279 . S
C1538 H1579 0.930 . S
N1539 C1537 1.314 . S
N1539 C1538 1.279 . S
C1540 C1542 1.353 . S
C1540 N1543 1.314 . S
C1540 H1546 0.930 . S
C1541 N1543 1.279 . S
C1541 C1544 1.358 . S
C1541 H1547 0.930 . S
C1542 C1540 1.353 . S
C1542 C1545 1.348 . S
C1542 H1580 0.929 . S
N1543 Li1498 1.990 . S
N1543 C1540 1.314 . S
N1543 C1541 1.279 . S
C1544 C1541 1.358 . S
C1544 C1545 1.356 . S
C1544 H1581 0.930 . S
C1545 C1542 1.348 . S
C1545 C1544 1.356 . S
H1546 C1540 0.930 . S
H1547 C1541 0.930 . S
C1548 N1549 1.314 . S
C1548 C1550 1.353 . S
C1548 H1554 0.930 . S
N1549 Li1499 1.990 . S
N1549 C1548 1.314 . S
N1549 C1552 1.279 . S
C1550 C1548 1.353 . S
C1550 C1553 1.348 . S
C1550 H1582 0.929 . S
C1551 C1552 1.358 . S
C1551 C1553 1.356 . S
C1551 H1583 0.930 . S
C1552 N1549 1.279 . S
C1552 C1551 1.358 . S
C1552 H1555 0.930 . S
C1553 C1550 1.348 . S
C1553 C1551 1.356 . S
H1554 C1548 0.930 . S
H1555 C1552 0.930 . S
O1556 Li1496 1.956 . S
O1556 Li1497 1.970 . S
O1556 Li1498 1.961 . S
O1556 C1500 1.325 . S
O1557 Li1496 1.970 . S
O1557 Li1497 1.956 . S
O1557 Li1499 1.961 . S
O1557 C1506 1.325 . S
O1558 Li1496 1.961 . S
O1558 Li1498 1.956 . S
O1558 Li1499 1.970 . S
O1558 C1528 1.325 . S
O1559 Li1497 1.961 . S
O1559 Li1498 1.970 . S
O1559 Li1499 1.956 . S
O1559 C1534 1.325 . S
H1560 C1502 0.929 . S
H1561 C1503 0.930 . S
H1562 C1504 0.930 . S
H1563 C1505 0.930 . S
H1564 C1507 0.930 . S
H1565 C1509 0.929 . S
H1566 C1510 0.930 . S
H1567 C1511 0.930 . S
H1568 C1514 0.930 . S
H1569 C1517 0.929 . S
H1570 C1522 0.929 . S
H1571 C1523 0.930 . S
H1572 C1530 0.929 . S
H1573 C1531 0.930 . S
H1574 C1532 0.930 . S
H1575 C1533 0.930 . S
H1576 C1535 0.929 . S
H1577 C1536 0.930 . S
H1578 C1537 0.930 . S
H1579 C1538 0.930 . S
H1580 C1542 0.929 . S
H1581 C1544 0.930 . S
H1582 C1550 0.929 . S
H1583 C1551 0.930 . S
Li1584 N1601 1.990 . S
Li1584 O1644 1.956 . S
Li1584 O1645 1.970 . S
Li1584 O1646 1.961 . S
Li1585 N1609 1.990 . S
Li1585 O1644 1.970 . S
Li1585 O1645 1.956 . S
Li1585 O1647 1.961 . S
Li1586 N1631 1.990 . S
Li1586 O1644 1.961 . S
Li1586 O1646 1.956 . S
Li1586 O1647 1.970 . S
Li1587 N1637 1.990 . S
Li1587 O1645 1.961 . S
Li1587 O1646 1.970 . S
Li1587 O1647 1.956 . S
C1588 C1590 1.348 . S
C1588 C1591 1.356 . S
C1588 O1644 1.325 . S
N1589 C1592 1.314 . S
N1589 C1593 1.279 . S
C1590 C1588 1.348 . S
C1590 C1592 1.353 . S
C1590 H1648 0.929 . S
C1591 C1588 1.356 . S
C1591 C1593 1.358 . S
C1591 H1649 0.930 . S
C1592 N1589 1.314 . S
C1592 C1590 1.353 . S
C1592 H1650 0.930 . S
C1593 N1589 1.279 . S
C1593 C1591 1.358 . S
C1593 H1651 0.930 . S
C1594 C1597 1.348 . S
C1594 C1598 1.356 . S
C1594 O1645 1.325 . S
C1595 N1596 1.279 . S
C1595 C1598 1.358 . S
C1595 H1652 0.930 . S
N1596 C1595 1.279 . S
N1596 C1599 1.314 . S
C1597 C1594 1.348 . S
C1597 C1599 1.353 . S
C1597 H1653 0.929 . S
C1598 C1594 1.356 . S
C1598 C1595 1.358 . S
C1598 H1654 0.930 . S
C1599 N1596 1.314 . S
C1599 C1597 1.353 . S
C1599 H1655 0.930 . S
C1600 N1601 1.314 . S
C1600 C1605 1.353 . S
C1600 H1606 0.930 . S
N1601 Li1584 1.990 . S
N1601 C1600 1.314 . S
N1601 C1603 1.279 . S
C1602 C1603 1.358 . S
C1602 C1604 1.356 . S
C1602 H1656 0.930 . S
C1603 N1601 1.279 . S
C1603 C1602 1.358 . S
C1603 H1607 0.930 . S
C1604 C1602 1.356 . S
C1604 C1605 1.348 . S
C1605 C1600 1.353 . S
C1605 C1604 1.348 . S
C1605 H1657 0.929 . S
H1606 C1600 0.930 . S
H1607 C1603 0.930 . S
C1608 N1609 1.314 . S
C1608 C1610 1.353 . S
C1608 H1614 0.930 . S
N1609 Li1585 1.990 . S
N1609 C1608 1.314 . S
N1609 C1612 1.279 . S
C1610 C1608 1.353 . S
C1610 C1613 1.348 . S
C1610 H1658 0.929 . S
C1611 C1612 1.358 . S
C1611 C1613 1.356 . S
C1611 H1659 0.930 . S
C1612 N1609 1.279 . S
C1612 C1611 1.358 . S
C1612 H1615 0.930 . S
C1613 C1610 1.348 . S
C1613 C1611 1.356 . S
H1614 C1608 0.930 . S
H1615 C1612 0.930 . S
C1616 C1618 1.348 . S
C1616 C1619 1.356 . S
C1616 O1646 1.325 . S
N1617 C1620 1.314 . S
N1617 C1621 1.279 . S
C1618 C1616 1.348 . S
C1618 C1620 1.353 . S
C1618 H1660 0.929 . S
C1619 C1616 1.356 . S
C1619 C1621 1.358 . S
C1619 H1661 0.930 . S
C1620 N1617 1.314 . S
C1620 C1618 1.353 . S
C1620 H1662 0.930 . S
C1621 N1617 1.279 . S
C1621 C1619 1.358 . S
C1621 H1663 0.930 . S
C1622 C1623 1.348 . S
C1622 C1624 1.356 . S
C1622 O1647 1.325 . S
C1623 C1622 1.348 . S
C1623 C1625 1.353 . S
C1623 H1664 0.929 . S
C1624 C1622 1.356 . S
C1624 C1626 1.358 . S
C1624 H1665 0.930 . S
C1625 C1623 1.353 . S
C1625 N1627 1.314 . S
C1625 H1666 0.930 . S
C1626 C1624 1.358 . S
C1626 N1627 1.279 . S
C1626 H1667 0.930 . S
N1627 C1625 1.314 . S
N1627 C1626 1.279 . S
C1628 C1630 1.353 . S
C1628 N1631 1.314 . S
C1628 H1634 0.930 . S
C1629 N1631 1.279 . S
C1629 C1632 1.358 . S
C1629 H1635 0.930 . S
C1630 C1628 1.353 . S
C1630 C1633 1.348 . S
C1630 H1668 0.929 . S
N1631 Li1586 1.990 . S
N1631 C1628 1.314 . S
N1631 C1629 1.279 . S
C1632 C1629 1.358 . S
C1632 C1633 1.356 . S
C1632 H1669 0.930 . S
C1633 C1630 1.348 . S
C1633 C1632 1.356 . S
H1634 C1628 0.930 . S
H1635 C1629 0.930 . S
C1636 N1637 1.314 . S
C1636 C1638 1.353 . S
C1636 H1642 0.930 . S
N1637 Li1587 1.990 . S
N1637 C1636 1.314 . S
N1637 C1640 1.279 . S
C1638 C1636 1.353 . S
C1638 C1641 1.348 . S
C1638 H1670 0.929 . S
C1639 C1640 1.358 . S
C1639 C1641 1.356 . S
C1639 H1671 0.930 . S
C1640 N1637 1.279 . S
C1640 C1639 1.358 . S
C1640 H1643 0.930 . S
C1641 C1638 1.348 . S
C1641 C1639 1.356 . S
H1642 C1636 0.930 . S
H1643 C1640 0.930 . S
O1644 Li1584 1.956 . S
O1644 Li1585 1.970 . S
O1644 Li1586 1.961 . S
O1644 C1588 1.325 . S
O1645 Li1584 1.970 . S
O1645 Li1585 1.956 . S
O1645 Li1587 1.961 . S
O1645 C1594 1.325 . S
O1646 Li1584 1.961 . S
O1646 Li1586 1.956 . S
O1646 Li1587 1.970 . S
O1646 C1616 1.325 . S
O1647 Li1585 1.961 . S
O1647 Li1586 1.970 . S
O1647 Li1587 1.956 . S
O1647 C1622 1.325 . S
H1648 C1590 0.929 . S
H1649 C1591 0.930 . S
H1650 C1592 0.930 . S
H1651 C1593 0.930 . S
H1652 C1595 0.930 . S
H1653 C1597 0.929 . S
H1654 C1598 0.930 . S
H1655 C1599 0.930 . S
H1656 C1602 0.930 . S
H1657 C1605 0.929 . S
H1658 C1610 0.929 . S
H1659 C1611 0.930 . S
H1660 C1618 0.929 . S
H1661 C1619 0.930 . S
H1662 C1620 0.930 . S
H1663 C1621 0.930 . S
H1664 C1623 0.929 . S
H1665 C1624 0.930 . S
H1666 C1625 0.930 . S
H1667 C1626 0.930 . S
H1668 C1630 0.929 . S
H1669 C1632 0.930 . S
H1670 C1638 0.929 . S
H1671 C1639 0.930 . S
Li1672 N1689 1.990 . S
Li1672 O1732 1.956 . S
Li1672 O1733 1.970 . S
Li1672 O1734 1.961 . S
Li1673 N1697 1.990 . S
Li1673 O1732 1.970 . S
Li1673 O1733 1.956 . S
Li1673 O1735 1.961 . S
Li1674 N1719 1.990 . S
Li1674 O1732 1.961 . S
Li1674 O1734 1.956 . S
Li1674 O1735 1.970 . S
Li1675 N1725 1.990 . S
Li1675 O1733 1.961 . S
Li1675 O1734 1.970 . S
Li1675 O1735 1.956 . S
C1676 C1678 1.348 . S
C1676 C1679 1.356 . S
C1676 O1732 1.325 . S
N1677 C1680 1.314 . S
N1677 C1681 1.279 . S
C1678 C1676 1.348 . S
C1678 C1680 1.353 . S
C1678 H1736 0.929 . S
C1679 C1676 1.356 . S
C1679 C1681 1.358 . S
C1679 H1737 0.930 . S
C1680 N1677 1.314 . S
C1680 C1678 1.353 . S
C1680 H1738 0.930 . S
C1681 N1677 1.279 . S
C1681 C1679 1.358 . S
C1681 H1739 0.930 . S
C1682 C1685 1.348 . S
C1682 C1686 1.356 . S
C1682 O1733 1.325 . S
C1683 N1684 1.279 . S
C1683 C1686 1.358 . S
C1683 H1740 0.930 . S
N1684 C1683 1.279 . S
N1684 C1687 1.314 . S
C1685 C1682 1.348 . S
C1685 C1687 1.353 . S
C1685 H1741 0.929 . S
C1686 C1682 1.356 . S
C1686 C1683 1.358 . S
C1686 H1742 0.930 . S
C1687 N1684 1.314 . S
C1687 C1685 1.353 . S
C1687 H1743 0.930 . S
C1688 N1689 1.314 . S
C1688 C1693 1.353 . S
C1688 H1694 0.930 . S
N1689 Li1672 1.990 . S
N1689 C1688 1.314 . S
N1689 C1691 1.279 . S
C1690 C1691 1.358 . S
C1690 C1692 1.356 . S
C1690 H1744 0.930 . S
C1691 N1689 1.279 . S
C1691 C1690 1.358 . S
C1691 H1695 0.930 . S
C1692 C1690 1.356 . S
C1692 C1693 1.348 . S
C1693 C1688 1.353 . S
C1693 C1692 1.348 . S
C1693 H1745 0.929 . S
H1694 C1688 0.930 . S
H1695 C1691 0.930 . S
C1696 N1697 1.314 . S
C1696 C1698 1.353 . S
C1696 H1702 0.930 . S
N1697 Li1673 1.990 . S
N1697 C1696 1.314 . S
N1697 C1700 1.279 . S
C1698 C1696 1.353 . S
C1698 C1701 1.348 . S
C1698 H1746 0.929 . S
C1699 C1700 1.358 . S
C1699 C1701 1.356 . S
C1699 H1747 0.930 . S
C1700 N1697 1.279 . S
C1700 C1699 1.358 . S
C1700 H1703 0.930 . S
C1701 C1698 1.348 . S
C1701 C1699 1.356 . S
H1702 C1696 0.930 . S
H1703 C1700 0.930 . S
C1704 C1706 1.348 . S
C1704 C1707 1.356 . S
C1704 O1734 1.325 . S
N1705 C1708 1.314 . S
N1705 C1709 1.279 . S
C1706 C1704 1.348 . S
C1706 C1708 1.353 . S
C1706 H1748 0.929 . S
C1707 C1704 1.356 . S
C1707 C1709 1.358 . S
C1707 H1749 0.930 . S
C1708 N1705 1.314 . S
C1708 C1706 1.353 . S
C1708 H1750 0.930 1_554 S
C1709 N1705 1.279 . S
C1709 C1707 1.358 . S
C1709 H1751 0.930 . S
C1710 C1711 1.348 . S
C1710 C1712 1.356 . S
C1710 O1735 1.325 . S
C1711 C1710 1.348 . S
C1711 C1713 1.353 . S
C1711 H1752 0.929 . S
C1712 C1710 1.356 . S
C1712 C1714 1.358 . S
C1712 H1753 0.930 . S
C1713 C1711 1.353 . S
C1713 N1715 1.314 . S
C1713 H1754 0.930 . S
C1714 C1712 1.358 . S
C1714 N1715 1.279 . S
C1714 H1755 0.930 . S
N1715 C1713 1.314 . S
N1715 C1714 1.279 . S
C1716 C1718 1.353 . S
C1716 N1719 1.314 . S
C1716 H1722 0.930 . S
C1717 N1719 1.279 . S
C1717 C1720 1.358 . S
C1717 H1723 0.930 . S
C1718 C1716 1.353 . S
C1718 C1721 1.348 . S
C1718 H1756 0.929 . S
N1719 Li1674 1.990 . S
N1719 C1716 1.314 . S
N1719 C1717 1.279 . S
C1720 C1717 1.358 . S
C1720 C1721 1.356 . S
C1720 H1757 0.930 . S
C1721 C1718 1.348 . S
C1721 C1720 1.356 . S
H1722 C1716 0.930 . S
H1723 C1717 0.930 . S
C1724 N1725 1.314 . S
C1724 C1726 1.353 . S
C1724 H1730 0.930 . S
N1725 Li1675 1.990 . S
N1725 C1724 1.314 . S
N1725 C1728 1.279 . S
C1726 C1724 1.353 . S
C1726 C1729 1.348 . S
C1726 H1758 0.929 . S
C1727 C1728 1.358 . S
C1727 C1729 1.356 . S
C1727 H1759 0.930 . S
C1728 N1725 1.279 . S
C1728 C1727 1.358 . S
C1728 H1731 0.930 . S
C1729 C1726 1.348 . S
C1729 C1727 1.356 . S
H1730 C1724 0.930 . S
H1731 C1728 0.930 . S
O1732 Li1672 1.956 . S
O1732 Li1673 1.970 . S
O1732 Li1674 1.961 . S
O1732 C1676 1.325 . S
O1733 Li1672 1.970 . S
O1733 Li1673 1.956 . S
O1733 Li1675 1.961 . S
O1733 C1682 1.325 . S
O1734 Li1672 1.961 . S
O1734 Li1674 1.956 . S
O1734 Li1675 1.970 . S
O1734 C1704 1.325 . S
O1735 Li1673 1.961 . S
O1735 Li1674 1.970 . S
O1735 Li1675 1.956 . S
O1735 C1710 1.325 . S
H1736 C1678 0.929 . S
H1737 C1679 0.930 . S
H1738 C1680 0.930 . S
H1739 C1681 0.930 . S
H1740 C1683 0.930 . S
H1741 C1685 0.929 . S
H1742 C1686 0.930 . S
H1743 C1687 0.930 . S
H1744 C1690 0.930 . S
H1745 C1693 0.929 . S
H1746 C1698 0.929 . S
H1747 C1699 0.930 . S
H1748 C1706 0.929 . S
H1749 C1707 0.930 . S
H1750 C1708 0.930 1_556 S
H1751 C1709 0.930 . S
H1752 C1711 0.929 . S
H1753 C1712 0.930 . S
H1754 C1713 0.930 . S
H1755 C1714 0.930 . S
H1756 C1718 0.929 . S
H1757 C1720 0.930 . S
H1758 C1726 0.929 . S
H1759 C1727 0.930 . S
Li1760 N1777 1.990 . S
Li1760 O1820 1.956 . S
Li1760 O1821 1.970 . S
Li1760 O1822 1.961 . S
Li1761 N1785 1.990 . S
Li1761 O1820 1.970 . S
Li1761 O1821 1.956 . S
Li1761 O1823 1.961 . S
Li1762 N1807 1.990 . S
Li1762 O1820 1.961 . S
Li1762 O1822 1.956 . S
Li1762 O1823 1.970 . S
Li1763 N1813 1.990 . S
Li1763 O1821 1.961 . S
Li1763 O1822 1.970 . S
Li1763 O1823 1.956 . S
C1764 C1766 1.348 . S
C1764 C1767 1.356 . S
C1764 O1820 1.325 . S
N1765 C1768 1.314 . S
N1765 C1769 1.279 . S
C1766 C1764 1.348 . S
C1766 C1768 1.353 . S
C1766 H1824 0.929 . S
C1767 C1764 1.356 . S
C1767 C1769 1.358 . S
C1767 H1825 0.930 . S
C1768 N1765 1.314 . S
C1768 C1766 1.353 . S
C1768 H1826 0.930 . S
C1769 N1765 1.279 . S
C1769 C1767 1.358 . S
C1769 H1827 0.930 . S
C1770 C1773 1.348 . S
C1770 C1774 1.356 . S
C1770 O1821 1.325 . S
C1771 N1772 1.279 . S
C1771 C1774 1.358 . S
C1771 H1828 0.930 . S
N1772 C1771 1.279 . S
N1772 C1775 1.314 . S
C1773 C1770 1.348 . S
C1773 C1775 1.353 . S
C1773 H1829 0.929 . S
C1774 C1770 1.356 . S
C1774 C1771 1.358 . S
C1774 H1830 0.930 . S
C1775 N1772 1.314 . S
C1775 C1773 1.353 . S
C1775 H1831 0.930 . S
C1776 N1777 1.314 . S
C1776 C1781 1.353 . S
C1776 H1782 0.930 . S
N1777 Li1760 1.990 . S
N1777 C1776 1.314 . S
N1777 C1779 1.279 . S
C1778 C1779 1.358 . S
C1778 C1780 1.356 . S
C1778 H1832 0.930 . S
C1779 N1777 1.279 . S
C1779 C1778 1.358 . S
C1779 H1783 0.930 . S
C1780 C1778 1.356 . S
C1780 C1781 1.348 . S
C1781 C1776 1.353 . S
C1781 C1780 1.348 . S
C1781 H1833 0.929 . S
H1782 C1776 0.930 . S
H1783 C1779 0.930 . S
C1784 N1785 1.314 . S
C1784 C1786 1.353 . S
C1784 H1790 0.930 . S
N1785 Li1761 1.990 . S
N1785 C1784 1.314 . S
N1785 C1788 1.279 . S
C1786 C1784 1.353 . S
C1786 C1789 1.348 . S
C1786 H1834 0.929 . S
C1787 C1788 1.358 . S
C1787 C1789 1.356 . S
C1787 H1835 0.930 . S
C1788 N1785 1.279 . S
C1788 C1787 1.358 . S
C1788 H1791 0.930 . S
C1789 C1786 1.348 . S
C1789 C1787 1.356 . S
H1790 C1784 0.930 . S
H1791 C1788 0.930 . S
C1792 C1794 1.348 . S
C1792 C1795 1.356 . S
C1792 O1822 1.325 . S
N1793 C1796 1.314 . S
N1793 C1797 1.279 . S
C1794 C1792 1.348 . S
C1794 C1796 1.353 . S
C1794 H1836 0.929 . S
C1795 C1792 1.356 . S
C1795 C1797 1.358 . S
C1795 H1837 0.930 . S
C1796 N1793 1.314 . S
C1796 C1794 1.353 . S
C1796 H1838 0.930 . S
C1797 N1793 1.279 . S
C1797 C1795 1.358 . S
C1797 H1839 0.930 . S
C1798 C1799 1.348 . S
C1798 C1800 1.356 . S
C1798 O1823 1.325 . S
C1799 C1798 1.348 . S
C1799 C1801 1.353 . S
C1799 H1840 0.929 . S
C1800 C1798 1.356 . S
C1800 C1802 1.358 . S
C1800 H1841 0.930 . S
C1801 C1799 1.353 . S
C1801 N1803 1.314 . S
C1801 H1842 0.930 . S
C1802 C1800 1.358 . S
C1802 N1803 1.279 . S
C1802 H1843 0.930 . S
N1803 C1801 1.314 . S
N1803 C1802 1.279 . S
C1804 C1806 1.353 . S
C1804 N1807 1.314 . S
C1804 H1810 0.930 . S
C1805 N1807 1.279 . S
C1805 C1808 1.358 . S
C1805 H1811 0.930 . S
C1806 C1804 1.353 . S
C1806 C1809 1.348 . S
C1806 H1844 0.929 . S
N1807 Li1762 1.990 . S
N1807 C1804 1.314 . S
N1807 C1805 1.279 . S
C1808 C1805 1.358 . S
C1808 C1809 1.356 . S
C1808 H1845 0.930 . S
C1809 C1806 1.348 . S
C1809 C1808 1.356 . S
H1810 C1804 0.930 . S
H1811 C1805 0.930 . S
C1812 N1813 1.314 . S
C1812 C1814 1.353 . S
C1812 H1818 0.930 . S
N1813 Li1763 1.990 . S
N1813 C1812 1.314 . S
N1813 C1816 1.279 . S
C1814 C1812 1.353 . S
C1814 C1817 1.348 . S
C1814 H1846 0.929 . S
C1815 C1816 1.358 . S
C1815 C1817 1.356 . S
C1815 H1847 0.930 . S
C1816 N1813 1.279 . S
C1816 C1815 1.358 . S
C1816 H1819 0.930 . S
C1817 C1814 1.348 . S
C1817 C1815 1.356 . S
H1818 C1812 0.930 . S
H1819 C1816 0.930 . S
O1820 Li1760 1.956 . S
O1820 Li1761 1.970 . S
O1820 Li1762 1.961 . S
O1820 C1764 1.325 . S
O1821 Li1760 1.970 . S
O1821 Li1761 1.956 . S
O1821 Li1763 1.961 . S
O1821 C1770 1.325 . S
O1822 Li1760 1.961 . S
O1822 Li1762 1.956 . S
O1822 Li1763 1.970 . S
O1822 C1792 1.325 . S
O1823 Li1761 1.961 . S
O1823 Li1762 1.970 . S
O1823 Li1763 1.956 . S
O1823 C1798 1.325 . S
H1824 C1766 0.929 . S
H1825 C1767 0.930 . S
H1826 C1768 0.930 . S
H1827 C1769 0.930 . S
H1828 C1771 0.930 . S
H1829 C1773 0.929 . S
H1830 C1774 0.930 . S
H1831 C1775 0.930 . S
H1832 C1778 0.930 . S
H1833 C1781 0.929 . S
H1834 C1786 0.929 . S
H1835 C1787 0.930 . S
H1836 C1794 0.929 . S
H1837 C1795 0.930 . S
H1838 C1796 0.930 . S
H1839 C1797 0.930 . S
H1840 C1799 0.929 . S
H1841 C1800 0.930 . S
H1842 C1801 0.930 . S
H1843 C1802 0.930 . S
H1844 C1806 0.929 . S
H1845 C1808 0.930 . S
H1846 C1814 0.929 . S
H1847 C1815 0.930 . S
Li1848 N1865 1.990 . S
Li1848 O1908 1.956 . S
Li1848 O1909 1.970 . S
Li1848 O1910 1.961 . S
Li1849 N1873 1.990 . S
Li1849 O1908 1.970 . S
Li1849 O1909 1.956 . S
Li1849 O1911 1.961 . S
Li1850 N1895 1.990 . S
Li1850 O1908 1.961 . S
Li1850 O1910 1.956 . S
Li1850 O1911 1.970 . S
Li1851 N1901 1.990 . S
Li1851 O1909 1.961 . S
Li1851 O1910 1.970 . S
Li1851 O1911 1.956 . S
C1852 C1854 1.348 . S
C1852 C1855 1.356 . S
C1852 O1908 1.325 . S
N1853 C1856 1.314 . S
N1853 C1857 1.279 . S
C1854 C1852 1.348 . S
C1854 C1856 1.353 . S
C1854 H1912 0.929 . S
C1855 C1852 1.356 . S
C1855 C1857 1.358 . S
C1855 H1913 0.930 . S
C1856 N1853 1.314 . S
C1856 C1854 1.353 . S
C1856 H1914 0.930 . S
C1857 N1853 1.279 . S
C1857 C1855 1.358 . S
C1857 H1915 0.930 . S
C1858 C1861 1.348 . S
C1858 C1862 1.356 . S
C1858 O1909 1.325 . S
C1859 N1860 1.279 . S
C1859 C1862 1.358 . S
C1859 H1916 0.930 . S
N1860 C1859 1.279 . S
N1860 C1863 1.314 . S
C1861 C1858 1.348 . S
C1861 C1863 1.353 . S
C1861 H1917 0.929 . S
C1862 C1858 1.356 . S
C1862 C1859 1.358 . S
C1862 H1918 0.930 . S
C1863 N1860 1.314 . S
C1863 C1861 1.353 . S
C1863 H1919 0.930 . S
C1864 N1865 1.314 . S
C1864 C1869 1.353 . S
C1864 H1870 0.930 . S
N1865 Li1848 1.990 . S
N1865 C1864 1.314 . S
N1865 C1867 1.279 . S
C1866 C1867 1.358 . S
C1866 C1868 1.356 . S
C1866 H1920 0.930 . S
C1867 N1865 1.279 . S
C1867 C1866 1.358 . S
C1867 H1871 0.930 . S
C1868 C1866 1.356 . S
C1868 C1869 1.348 . S
C1869 C1864 1.353 . S
C1869 C1868 1.348 . S
C1869 H1921 0.929 . S
H1870 C1864 0.930 . S
H1871 C1867 0.930 . S
C1872 N1873 1.314 . S
C1872 C1874 1.353 . S
C1872 H1878 0.930 . S
N1873 Li1849 1.990 . S
N1873 C1872 1.314 . S
N1873 C1876 1.279 . S
C1874 C1872 1.353 . S
C1874 C1877 1.348 . S
C1874 H1922 0.929 . S
C1875 C1876 1.358 . S
C1875 C1877 1.356 . S
C1875 H1923 0.930 . S
C1876 N1873 1.279 . S
C1876 C1875 1.358 . S
C1876 H1879 0.930 . S
C1877 C1874 1.348 . S
C1877 C1875 1.356 . S
H1878 C1872 0.930 . S
H1879 C1876 0.930 . S
C1880 C1882 1.348 . S
C1880 C1883 1.356 . S
C1880 O1910 1.325 . S
N1881 C1884 1.314 . S
N1881 C1885 1.279 . S
C1882 C1880 1.348 . S
C1882 C1884 1.353 . S
C1882 H1924 0.929 . S
C1883 C1880 1.356 . S
C1883 C1885 1.358 . S
C1883 H1925 0.930 . S
C1884 N1881 1.314 . S
C1884 C1882 1.353 . S
C1884 H1926 0.930 . S
C1885 N1881 1.279 . S
C1885 C1883 1.358 . S
C1885 H1927 0.930 . S
C1886 C1887 1.348 . S
C1886 C1888 1.356 . S
C1886 O1911 1.325 . S
C1887 C1886 1.348 . S
C1887 C1889 1.353 . S
C1887 H1928 0.929 . S
C1888 C1886 1.356 . S
C1888 C1890 1.358 . S
C1888 H1929 0.930 . S
C1889 C1887 1.353 . S
C1889 N1891 1.314 . S
C1889 H1930 0.930 1_554 S
C1890 C1888 1.358 . S
C1890 N1891 1.279 . S
C1890 H1931 0.930 . S
N1891 C1889 1.314 . S
N1891 C1890 1.279 . S
C1892 C1894 1.353 . S
C1892 N1895 1.314 . S
C1892 H1898 0.930 . S
C1893 N1895 1.279 . S
C1893 C1896 1.358 . S
C1893 H1899 0.930 . S
C1894 C1892 1.353 . S
C1894 C1897 1.348 . S
C1894 H1932 0.929 . S
N1895 Li1850 1.990 . S
N1895 C1892 1.314 . S
N1895 C1893 1.279 . S
C1896 C1893 1.358 . S
C1896 C1897 1.356 . S
C1896 H1933 0.930 . S
C1897 C1894 1.348 . S
C1897 C1896 1.356 . S
H1898 C1892 0.930 . S
H1899 C1893 0.930 . S
C1900 N1901 1.314 . S
C1900 C1902 1.353 . S
C1900 H1906 0.930 . S
N1901 Li1851 1.990 . S
N1901 C1900 1.314 . S
N1901 C1904 1.279 . S
C1902 C1900 1.353 . S
C1902 C1905 1.348 . S
C1902 H1934 0.929 . S
C1903 C1904 1.358 . S
C1903 C1905 1.356 . S
C1903 H1935 0.930 . S
C1904 N1901 1.279 . S
C1904 C1903 1.358 . S
C1904 H1907 0.930 . S
C1905 C1902 1.348 . S
C1905 C1903 1.356 . S
H1906 C1900 0.930 . S
H1907 C1904 0.930 . S
O1908 Li1848 1.956 . S
O1908 Li1849 1.970 . S
O1908 Li1850 1.961 . S
O1908 C1852 1.325 . S
O1909 Li1848 1.970 . S
O1909 Li1849 1.956 . S
O1909 Li1851 1.961 . S
O1909 C1858 1.325 . S
O1910 Li1848 1.961 . S
O1910 Li1850 1.956 . S
O1910 Li1851 1.970 . S
O1910 C1880 1.325 . S
O1911 Li1849 1.961 . S
O1911 Li1850 1.970 . S
O1911 Li1851 1.956 . S
O1911 C1886 1.325 . S
H1912 C1854 0.929 . S
H1913 C1855 0.930 . S
H1914 C1856 0.930 . S
H1915 C1857 0.930 . S
H1916 C1859 0.930 . S
H1917 C1861 0.929 . S
H1918 C1862 0.930 . S
H1919 C1863 0.930 . S
H1920 C1866 0.930 . S
H1921 C1869 0.929 . S
H1922 C1874 0.929 . S
H1923 C1875 0.930 . S
H1924 C1882 0.929 . S
H1925 C1883 0.930 . S
H1926 C1884 0.930 . S
H1927 C1885 0.930 . S
H1928 C1887 0.929 . S
H1929 C1888 0.930 . S
H1930 C1889 0.930 1_556 S
H1931 C1890 0.930 . S
H1932 C1894 0.929 . S
H1933 C1896 0.930 . S
H1934 C1902 0.929 . S
H1935 C1903 0.930 . S
Li1936 N1953 1.990 . S
Li1936 O1996 1.956 . S
Li1936 O1997 1.970 . S
Li1936 O1998 1.961 . S
Li1937 N1961 1.990 . S
Li1937 O1996 1.970 . S
Li1937 O1997 1.956 . S
Li1937 O1999 1.961 . S
Li1938 N1983 1.990 . S
Li1938 O1996 1.961 . S
Li1938 O1998 1.956 . S
Li1938 O1999 1.970 . S
Li1939 N1989 1.990 . S
Li1939 O1997 1.961 . S
Li1939 O1998 1.970 . S
Li1939 O1999 1.956 . S
C1940 C1942 1.348 . S
C1940 C1943 1.356 . S
C1940 O1996 1.325 . S
N1941 C1944 1.314 . S
N1941 C1945 1.279 . S
C1942 C1940 1.348 . S
C1942 C1944 1.353 . S
C1942 H2000 0.929 . S
C1943 C1940 1.356 . S
C1943 C1945 1.358 . S
C1943 H2001 0.930 . S
C1944 N1941 1.314 . S
C1944 C1942 1.353 . S
C1944 H2002 0.930 . S
C1945 N1941 1.279 . S
C1945 C1943 1.358 . S
C1945 H2003 0.930 . S
C1946 C1949 1.348 . S
C1946 C1950 1.356 . S
C1946 O1997 1.325 . S
C1947 N1948 1.279 . S
C1947 C1950 1.358 . S
C1947 H2004 0.930 . S
N1948 C1947 1.279 . S
N1948 C1951 1.314 . S
C1949 C1946 1.348 . S
C1949 C1951 1.353 . S
C1949 H2005 0.929 . S
C1950 C1946 1.356 . S
C1950 C1947 1.358 . S
C1950 H2006 0.930 . S
C1951 N1948 1.314 . S
C1951 C1949 1.353 . S
C1951 H2007 0.930 . S
C1952 N1953 1.314 . S
C1952 C1957 1.353 . S
C1952 H1958 0.930 . S
N1953 Li1936 1.990 . S
N1953 C1952 1.314 . S
N1953 C1955 1.279 . S
C1954 C1955 1.358 . S
C1954 C1956 1.356 . S
C1954 H2008 0.930 . S
C1955 N1953 1.279 . S
C1955 C1954 1.358 . S
C1955 H1959 0.930 . S
C1956 C1954 1.356 . S
C1956 C1957 1.348 . S
C1957 C1952 1.353 . S
C1957 C1956 1.348 . S
C1957 H2009 0.929 . S
H1958 C1952 0.930 . S
H1959 C1955 0.930 . S
C1960 N1961 1.314 . S
C1960 C1962 1.353 . S
C1960 H1966 0.930 . S
N1961 Li1937 1.990 . S
N1961 C1960 1.314 . S
N1961 C1964 1.279 . S
C1962 C1960 1.353 . S
C1962 C1965 1.348 . S
C1962 H2010 0.929 . S
C1963 C1964 1.358 . S
C1963 C1965 1.356 . S
C1963 H2011 0.930 . S
C1964 N1961 1.279 . S
C1964 C1963 1.358 . S
C1964 H1967 0.930 . S
C1965 C1962 1.348 . S
C1965 C1963 1.356 . S
H1966 C1960 0.930 . S
H1967 C1964 0.930 . S
C1968 C1970 1.348 . S
C1968 C1971 1.356 . S
C1968 O1998 1.325 . S
N1969 C1972 1.314 . S
N1969 C1973 1.279 . S
C1970 C1968 1.348 . S
C1970 C1972 1.353 . S
C1970 H2012 0.929 . S
C1971 C1968 1.356 . S
C1971 C1973 1.358 . S
C1971 H2013 0.930 . S
C1972 N1969 1.314 . S
C1972 C1970 1.353 . S
C1972 H2014 0.930 . S
C1973 N1969 1.279 . S
C1973 C1971 1.358 . S
C1973 H2015 0.930 . S
C1974 C1975 1.348 . S
C1974 C1976 1.356 . S
C1974 O1999 1.325 . S
C1975 C1974 1.348 . S
C1975 C1977 1.353 . S
C1975 H2016 0.929 . S
C1976 C1974 1.356 . S
C1976 C1978 1.358 . S
C1976 H2017 0.930 . S
C1977 C1975 1.353 . S
C1977 N1979 1.314 . S
C1977 H2018 0.930 . S
C1978 C1976 1.358 . S
C1978 N1979 1.279 . S
C1978 H2019 0.930 . S
N1979 C1977 1.314 . S
N1979 C1978 1.279 . S
C1980 C1982 1.353 . S
C1980 N1983 1.314 . S
C1980 H1986 0.930 . S
C1981 N1983 1.279 . S
C1981 C1984 1.358 . S
C1981 H1987 0.930 . S
C1982 C1980 1.353 . S
C1982 C1985 1.348 . S
C1982 H2020 0.929 . S
N1983 Li1938 1.990 . S
N1983 C1980 1.314 . S
N1983 C1981 1.279 . S
C1984 C1981 1.358 . S
C1984 C1985 1.356 . S
C1984 H2021 0.930 . S
C1985 C1982 1.348 . S
C1985 C1984 1.356 . S
H1986 C1980 0.930 . S
H1987 C1981 0.930 . S
C1988 N1989 1.314 . S
C1988 C1990 1.353 . S
C1988 H1994 0.930 . S
N1989 Li1939 1.990 . S
N1989 C1988 1.314 . S
N1989 C1992 1.279 . S
C1990 C1988 1.353 . S
C1990 C1993 1.348 . S
C1990 H2022 0.929 . S
C1991 C1992 1.358 . S
C1991 C1993 1.356 . S
C1991 H2023 0.930 . S
C1992 N1989 1.279 . S
C1992 C1991 1.358 . S
C1992 H1995 0.930 . S
C1993 C1990 1.348 . S
C1993 C1991 1.356 . S
H1994 C1988 0.930 . S
H1995 C1992 0.930 . S
O1996 Li1936 1.956 . S
O1996 Li1937 1.970 . S
O1996 Li1938 1.961 . S
O1996 C1940 1.325 . S
O1997 Li1936 1.970 . S
O1997 Li1937 1.956 . S
O1997 Li1939 1.961 . S
O1997 C1946 1.325 . S
O1998 Li1936 1.961 . S
O1998 Li1938 1.956 . S
O1998 Li1939 1.970 . S
O1998 C1968 1.325 . S
O1999 Li1937 1.961 . S
O1999 Li1938 1.970 . S
O1999 Li1939 1.956 . S
O1999 C1974 1.325 . S
H2000 C1942 0.929 . S
H2001 C1943 0.930 . S
H2002 C1944 0.930 . S
H2003 C1945 0.930 . S
H2004 C1947 0.930 . S
H2005 C1949 0.929 . S
H2006 C1950 0.930 . S
H2007 C1951 0.930 . S
H2008 C1954 0.930 . S
H2009 C1957 0.929 . S
H2010 C1962 0.929 . S
H2011 C1963 0.930 . S
H2012 C1970 0.929 . S
H2013 C1971 0.930 . S
H2014 C1972 0.930 . S
H2015 C1973 0.930 . S
H2016 C1975 0.929 . S
H2017 C1976 0.930 . S
H2018 C1977 0.930 . S
H2019 C1978 0.930 . S
H2020 C1982 0.929 . S
H2021 C1984 0.930 . S
H2022 C1990 0.929 . S
H2023 C1991 0.930 . S
Li2024 N2041 1.990 . S
Li2024 O2084 1.956 . S
Li2024 O2085 1.970 . S
Li2024 O2086 1.961 . S
Li2025 N2049 1.990 . S
Li2025 O2084 1.970 . S
Li2025 O2085 1.956 . S
Li2025 O2087 1.961 . S
Li2026 N2071 1.990 . S
Li2026 O2084 1.961 . S
Li2026 O2086 1.956 . S
Li2026 O2087 1.970 . S
Li2027 N2077 1.990 . S
Li2027 O2085 1.961 . S
Li2027 O2086 1.970 . S
Li2027 O2087 1.956 . S
C2028 C2030 1.348 . S
C2028 C2031 1.356 . S
C2028 O2084 1.325 . S
N2029 C2032 1.314 . S
N2029 C2033 1.279 . S
C2030 C2028 1.348 . S
C2030 C2032 1.353 . S
C2030 H2088 0.929 . S
C2031 C2028 1.356 . S
C2031 C2033 1.358 . S
C2031 H2089 0.930 . S
C2032 N2029 1.314 . S
C2032 C2030 1.353 . S
C2032 H2090 0.930 . S
C2033 N2029 1.279 . S
C2033 C2031 1.358 . S
C2033 H2091 0.930 . S
C2034 C2037 1.348 . S
C2034 C2038 1.356 . S
C2034 O2085 1.325 . S
C2035 N2036 1.279 . S
C2035 C2038 1.358 . S
C2035 H2092 0.930 . S
N2036 C2035 1.279 . S
N2036 C2039 1.314 . S
C2037 C2034 1.348 . S
C2037 C2039 1.353 . S
C2037 H2093 0.929 . S
C2038 C2034 1.356 . S
C2038 C2035 1.358 . S
C2038 H2094 0.930 . S
C2039 N2036 1.314 . S
C2039 C2037 1.353 . S
C2039 H2095 0.930 . S
C2040 N2041 1.314 . S
C2040 C2045 1.353 . S
C2040 H2046 0.930 . S
N2041 Li2024 1.990 . S
N2041 C2040 1.314 . S
N2041 C2043 1.279 . S
C2042 C2043 1.358 . S
C2042 C2044 1.356 . S
C2042 H2096 0.930 . S
C2043 N2041 1.279 . S
C2043 C2042 1.358 . S
C2043 H2047 0.930 . S
C2044 C2042 1.356 . S
C2044 C2045 1.348 . S
C2045 C2040 1.353 . S
C2045 C2044 1.348 . S
C2045 H2097 0.929 . S
H2046 C2040 0.930 . S
H2047 C2043 0.930 . S
C2048 N2049 1.314 . S
C2048 C2050 1.353 . S
C2048 H2054 0.930 . S
N2049 Li2025 1.990 . S
N2049 C2048 1.314 . S
N2049 C2052 1.279 . S
C2050 C2048 1.353 . S
C2050 C2053 1.348 . S
C2050 H2098 0.929 . S
C2051 C2052 1.358 . S
C2051 C2053 1.356 . S
C2051 H2099 0.930 . S
C2052 N2049 1.279 . S
C2052 C2051 1.358 . S
C2052 H2055 0.930 . S
C2053 C2050 1.348 . S
C2053 C2051 1.356 . S
H2054 C2048 0.930 . S
H2055 C2052 0.930 . S
C2056 C2058 1.348 . S
C2056 C2059 1.356 . S
C2056 O2086 1.325 . S
N2057 C2060 1.314 . S
N2057 C2061 1.279 . S
C2058 C2056 1.348 . S
C2058 C2060 1.353 . S
C2058 H2100 0.929 . S
C2059 C2056 1.356 . S
C2059 C2061 1.358 . S
C2059 H2101 0.930 . S
C2060 N2057 1.314 . S
C2060 C2058 1.353 . S
C2060 H2102 0.930 . S
C2061 N2057 1.279 . S
C2061 C2059 1.358 . S
C2061 H2103 0.930 . S
C2062 C2063 1.348 . S
C2062 C2064 1.356 . S
C2062 O2087 1.325 . S
C2063 C2062 1.348 . S
C2063 C2065 1.353 . S
C2063 H2104 0.929 . S
C2064 C2062 1.356 . S
C2064 C2066 1.358 . S
C2064 H2105 0.930 . S
C2065 C2063 1.353 . S
C2065 N2067 1.314 . S
C2065 H2106 0.930 1_554 S
C2066 C2064 1.358 . S
C2066 N2067 1.279 . S
C2066 H2107 0.930 . S
N2067 C2065 1.314 . S
N2067 C2066 1.279 . S
C2068 C2070 1.353 . S
C2068 N2071 1.314 . S
C2068 H2074 0.930 . S
C2069 N2071 1.279 . S
C2069 C2072 1.358 . S
C2069 H2075 0.930 . S
C2070 C2068 1.353 . S
C2070 C2073 1.348 . S
C2070 H2108 0.929 . S
N2071 Li2026 1.990 . S
N2071 C2068 1.314 . S
N2071 C2069 1.279 . S
C2072 C2069 1.358 . S
C2072 C2073 1.356 . S
C2072 H2109 0.930 . S
C2073 C2070 1.348 . S
C2073 C2072 1.356 . S
H2074 C2068 0.930 . S
H2075 C2069 0.930 . S
C2076 N2077 1.314 . S
C2076 C2078 1.353 . S
C2076 H2082 0.930 . S
N2077 Li2027 1.990 . S
N2077 C2076 1.314 . S
N2077 C2080 1.279 . S
C2078 C2076 1.353 . S
C2078 C2081 1.348 . S
C2078 H2110 0.929 . S
C2079 C2080 1.358 . S
C2079 C2081 1.356 . S
C2079 H2111 0.930 . S
C2080 N2077 1.279 . S
C2080 C2079 1.358 . S
C2080 H2083 0.930 . S
C2081 C2078 1.348 . S
C2081 C2079 1.356 . S
H2082 C2076 0.930 . S
H2083 C2080 0.930 . S
O2084 Li2024 1.956 . S
O2084 Li2025 1.970 . S
O2084 Li2026 1.961 . S
O2084 C2028 1.325 . S
O2085 Li2024 1.970 . S
O2085 Li2025 1.956 . S
O2085 Li2027 1.961 . S
O2085 C2034 1.325 . S
O2086 Li2024 1.961 . S
O2086 Li2026 1.956 . S
O2086 Li2027 1.970 . S
O2086 C2056 1.325 . S
O2087 Li2025 1.961 . S
O2087 Li2026 1.970 . S
O2087 Li2027 1.956 . S
O2087 C2062 1.325 . S
H2088 C2030 0.929 . S
H2089 C2031 0.930 . S
H2090 C2032 0.930 . S
H2091 C2033 0.930 . S
H2092 C2035 0.930 . S
H2093 C2037 0.929 . S
H2094 C2038 0.930 . S
H2095 C2039 0.930 . S
H2096 C2042 0.930 . S
H2097 C2045 0.929 . S
H2098 C2050 0.929 . S
H2099 C2051 0.930 . S
H2100 C2058 0.929 . S
H2101 C2059 0.930 . S
H2102 C2060 0.930 . S
H2103 C2061 0.930 . S
H2104 C2063 0.929 . S
H2105 C2064 0.930 . S
H2106 C2065 0.930 1_556 S
H2107 C2066 0.930 . S
H2108 C2070 0.929 . S
H2109 C2072 0.930 . S
H2110 C2078 0.929 . S
H2111 C2079 0.930 . S
H2112 C2118 0.930 . S
H2113 C2122 0.930 . S
H2114 C2127 0.929 . S
H2115 C2125 0.929 . S
H2116 C2120 0.929 . S
H2117 C2126 0.929 . S
C2118 H2112 0.930 . S
C2118 C2119 1.367 . S
C2118 C2126 1.378 . S
C2119 C2118 1.367 . S
C2119 C2127 1.433 . S
C2120 H2116 0.929 . S
C2120 C2122 1.378 . S
C2120 C2124 1.350 . S
C2121 C2124 1.463 . S
C2121 C2126 1.350 . S
C2121 N2129 1.427 . S
C2122 H2113 0.930 . S
C2122 C2120 1.378 . S
C2122 C2123 1.367 . S
C2123 C2122 1.367 . S
C2123 C2125 1.433 . S
C2124 C2120 1.350 . S
C2124 C2121 1.463 . S
C2124 N2128 1.427 . S
C2125 H2115 0.929 . S
C2125 C2123 1.433 . S
C2125 N2128 1.384 . S
C2126 H2117 0.929 . S
C2126 C2118 1.378 . S
C2126 C2121 1.350 . S
C2127 H2114 0.929 . S
C2127 C2119 1.433 . S
C2127 N2129 1.384 . S
N2128 C2124 1.427 . S
N2128 C2125 1.384 . S
N2129 C2121 1.427 . S
N2129 C2127 1.384 . S
H2130 C2136 0.930 . S
H2131 C2140 0.930 . S
H2132 C2145 0.929 . S
H2133 C2143 0.929 . S
H2134 C2138 0.929 . S
H2135 C2144 0.929 . S
C2136 H2130 0.930 . S
C2136 C2137 1.367 . S
C2136 C2144 1.378 . S
C2137 C2136 1.367 . S
C2137 C2145 1.433 . S
C2138 H2134 0.929 . S
C2138 C2140 1.378 . S
C2138 C2142 1.350 . S
C2139 C2142 1.463 . S
C2139 C2144 1.350 . S
C2139 N2147 1.427 . S
C2140 H2131 0.930 . S
C2140 C2138 1.378 . S
C2140 C2141 1.367 . S
C2141 C2140 1.367 . S
C2141 C2143 1.433 . S
C2142 C2138 1.350 . S
C2142 C2139 1.463 . S
C2142 N2146 1.427 . S
C2143 H2133 0.929 . S
C2143 C2141 1.433 . S
C2143 N2146 1.384 . S
C2144 H2135 0.929 . S
C2144 C2136 1.378 . S
C2144 C2139 1.350 . S
C2145 H2132 0.929 . S
C2145 C2137 1.433 . S
C2145 N2147 1.384 . S
N2146 C2142 1.427 . S
N2146 C2143 1.384 . S
N2147 C2139 1.427 . S
N2147 C2145 1.384 . S
H2148 C2154 0.930 . S
H2149 C2158 0.930 . S
H2150 C2163 0.929 . S
H2151 C2161 0.929 . S
H2152 C2156 0.929 . S
H2153 C2162 0.929 . S
C2154 H2148 0.930 . S
C2154 C2155 1.367 . S
C2154 C2162 1.378 . S
C2155 C2154 1.367 . S
C2155 C2163 1.433 . S
C2156 H2152 0.929 . S
C2156 C2158 1.378 . S
C2156 C2160 1.350 . S
C2157 C2160 1.463 . S
C2157 C2162 1.350 . S
C2157 N2165 1.427 . S
C2158 H2149 0.930 . S
C2158 C2156 1.378 . S
C2158 C2159 1.367 . S
C2159 C2158 1.367 . S
C2159 C2161 1.433 . S
C2160 C2156 1.350 . S
C2160 C2157 1.463 . S
C2160 N2164 1.427 . S
C2161 H2151 0.929 . S
C2161 C2159 1.433 . S
C2161 N2164 1.384 . S
C2162 H2153 0.929 . S
C2162 C2154 1.378 . S
C2162 C2157 1.350 . S
C2163 H2150 0.929 . S
C2163 C2155 1.433 . S
C2163 N2165 1.384 . S
N2164 C2160 1.427 . S
N2164 C2161 1.384 . S
N2165 C2157 1.427 . S
N2165 C2163 1.384 . S
H2166 C2172 0.930 . S
H2167 C2176 0.930 . S
H2168 C2181 0.929 . S
H2169 C2179 0.929 . S
H2170 C2174 0.929 . S
H2171 C2180 0.929 . S
C2172 H2166 0.930 . S
C2172 C2173 1.367 . S
C2172 C2180 1.378 . S
C2173 C2172 1.367 . S
C2173 C2181 1.433 . S
C2174 H2170 0.929 . S
C2174 C2176 1.378 . S
C2174 C2178 1.350 . S
C2175 C2178 1.463 . S
C2175 C2180 1.350 . S
C2175 N2183 1.427 . S
C2176 H2167 0.930 . S
C2176 C2174 1.378 . S
C2176 C2177 1.367 . S
C2177 C2176 1.367 . S
C2177 C2179 1.433 . S
C2178 C2174 1.350 . S
C2178 C2175 1.463 . S
C2178 N2182 1.427 . S
C2179 H2169 0.929 . S
C2179 C2177 1.433 . S
C2179 N2182 1.384 . S
C2180 H2171 0.929 . S
C2180 C2172 1.378 . S
C2180 C2175 1.350 . S
C2181 H2168 0.929 . S
C2181 C2173 1.433 . S
C2181 N2183 1.384 . S
N2182 C2178 1.427 . S
N2182 C2179 1.384 . S
N2183 C2175 1.427 . S
N2183 C2181 1.384 . S
H2184 C2190 0.930 . S
H2185 C2194 0.930 . S
H2186 C2199 0.929 . S
H2187 C2197 0.929 . S
H2188 C2192 0.929 . S
H2189 C2198 0.929 . S
C2190 H2184 0.930 . S
C2190 C2191 1.367 . S
C2190 C2198 1.378 . S
C2191 C2190 1.367 . S
C2191 C2199 1.433 . S
C2192 H2188 0.929 . S
C2192 C2194 1.378 . S
C2192 C2196 1.350 . S
C2193 C2196 1.463 . S
C2193 C2198 1.350 . S
C2193 N2201 1.427 . S
C2194 H2185 0.930 . S
C2194 C2192 1.378 . S
C2194 C2195 1.367 . S
C2195 C2194 1.367 . S
C2195 C2197 1.433 . S
C2196 C2192 1.350 . S
C2196 C2193 1.463 . S
C2196 N2200 1.427 . S
C2197 H2187 0.929 . S
C2197 C2195 1.433 . S
C2197 N2200 1.384 . S
C2198 H2189 0.929 . S
C2198 C2190 1.378 . S
C2198 C2193 1.350 . S
C2199 H2186 0.929 . S
C2199 C2191 1.433 . S
C2199 N2201 1.384 . S
N2200 C2196 1.427 . S
N2200 C2197 1.384 . S
N2201 C2193 1.427 . S
N2201 C2199 1.384 . S
H2202 C2208 0.930 . S
H2203 C2212 0.930 . S
H2204 C2217 0.929 . S
H2205 C2215 0.929 . S
H2206 C2210 0.929 . S
H2207 C2216 0.929 . S
C2208 H2202 0.930 . S
C2208 C2209 1.367 . S
C2208 C2216 1.378 . S
C2209 C2208 1.367 . S
C2209 C2217 1.433 . S
C2210 H2206 0.929 . S
C2210 C2212 1.378 . S
C2210 C2214 1.350 . S
C2211 C2214 1.463 . S
C2211 C2216 1.350 . S
C2211 N2219 1.427 . S
C2212 H2203 0.930 . S
C2212 C2210 1.378 . S
C2212 C2213 1.367 . S
C2213 C2212 1.367 . S
C2213 C2215 1.433 . S
C2214 C2210 1.350 . S
C2214 C2211 1.463 . S
C2214 N2218 1.427 . S
C2215 H2205 0.929 . S
C2215 C2213 1.433 . S
C2215 N2218 1.384 . S
C2216 H2207 0.929 . S
C2216 C2208 1.378 . S
C2216 C2211 1.350 . S
C2217 H2204 0.929 . S
C2217 C2209 1.433 . S
C2217 N2219 1.384 . S
N2218 C2214 1.427 . S
N2218 C2215 1.384 . S
N2219 C2211 1.427 . S
N2219 C2217 1.384 . S
H2220 C2226 0.930 . S
H2221 C2230 0.930 . S
H2222 C2235 0.929 . S
H2223 C2233 0.929 . S
H2224 C2228 0.929 . S
H2225 C2234 0.929 . S
C2226 H2220 0.930 . S
C2226 C2227 1.367 . S
C2226 C2234 1.378 . S
C2227 C2226 1.367 . S
C2227 C2235 1.433 . S
C2228 H2224 0.929 . S
C2228 C2230 1.378 . S
C2228 C2232 1.350 . S
C2229 C2232 1.463 . S
C2229 C2234 1.350 . S
C2229 N2237 1.427 . S
C2230 H2221 0.930 . S
C2230 C2228 1.378 . S
C2230 C2231 1.367 . S
C2231 C2230 1.367 . S
C2231 C2233 1.433 . S
C2232 C2228 1.350 . S
C2232 C2229 1.463 . S
C2232 N2236 1.427 . S
C2233 H2223 0.929 . S
C2233 C2231 1.433 . S
C2233 N2236 1.384 . S
C2234 H2225 0.929 . S
C2234 C2226 1.378 . S
C2234 C2229 1.350 . S
C2235 H2222 0.929 . S
C2235 C2227 1.433 . S
C2235 N2237 1.384 . S
N2236 C2232 1.427 . S
N2236 C2233 1.384 . S
N2237 C2229 1.427 . S
N2237 C2235 1.384 . S
H2238 C2244 0.930 . S
H2239 C2248 0.930 . S
H2240 C2253 0.929 . S
H2241 C2251 0.929 . S
H2242 C2246 0.929 . S
H2243 C2252 0.929 . S
C2244 H2238 0.930 . S
C2244 C2245 1.367 . S
C2244 C2252 1.378 . S
C2245 C2244 1.367 . S
C2245 C2253 1.433 . S
C2246 H2242 0.929 . S
C2246 C2248 1.378 . S
C2246 C2250 1.350 . S
C2247 C2250 1.463 . S
C2247 C2252 1.350 . S
C2247 N2255 1.427 . S
C2248 H2239 0.930 . S
C2248 C2246 1.378 . S
C2248 C2249 1.367 . S
C2249 C2248 1.367 . S
C2249 C2251 1.433 . S
C2250 C2246 1.350 . S
C2250 C2247 1.463 . S
C2250 N2254 1.427 . S
C2251 H2241 0.929 . S
C2251 C2249 1.433 . S
C2251 N2254 1.384 . S
C2252 H2243 0.929 . S
C2252 C2244 1.378 . S
C2252 C2247 1.350 . S
C2253 H2240 0.929 . S
C2253 C2245 1.433 . S
C2253 N2255 1.384 . S
N2254 C2250 1.427 . S
N2254 C2251 1.384 . S
N2255 C2247 1.427 . S
N2255 C2253 1.384 . S
H2256 C2262 0.930 . S
H2257 C2266 0.930 . S
H2258 C2271 0.929 . S
H2259 C2269 0.929 . S
H2260 C2264 0.929 . S
H2261 C2270 0.929 . S
C2262 H2256 0.930 . S
C2262 C2263 1.367 . S
C2262 C2270 1.378 . S
C2263 C2262 1.367 . S
C2263 C2271 1.433 . S
C2264 H2260 0.929 . S
C2264 C2266 1.378 . S
C2264 C2268 1.350 . S
C2265 C2268 1.463 . S
C2265 C2270 1.350 . S
C2265 N2273 1.427 . S
C2266 H2257 0.930 . S
C2266 C2264 1.378 . S
C2266 C2267 1.367 . S
C2267 C2266 1.367 . S
C2267 C2269 1.433 . S
C2268 C2264 1.350 . S
C2268 C2265 1.463 . S
C2268 N2272 1.427 . S
C2269 H2259 0.929 . S
C2269 C2267 1.433 . S
C2269 N2272 1.384 . S
C2270 H2261 0.929 . S
C2270 C2262 1.378 . S
C2270 C2265 1.350 . S
C2271 H2258 0.929 . S
C2271 C2263 1.433 . S
C2271 N2273 1.384 . S
N2272 C2268 1.427 . S
N2272 C2269 1.384 . S
N2273 C2265 1.427 . S
N2273 C2271 1.384 . S
H2274 C2280 0.930 . S
H2275 C2284 0.930 . S
H2276 C2289 0.929 . S
H2277 C2287 0.929 . S
H2278 C2282 0.929 . S
H2279 C2288 0.929 . S
C2280 H2274 0.930 . S
C2280 C2281 1.367 . S
C2280 C2288 1.378 . S
C2281 C2280 1.367 . S
C2281 C2289 1.433 . S
C2282 H2278 0.929 . S
C2282 C2284 1.378 . S
C2282 C2286 1.350 . S
C2283 C2286 1.463 . S
C2283 C2288 1.350 . S
C2283 N2291 1.427 . S
C2284 H2275 0.930 . S
C2284 C2282 1.378 . S
C2284 C2285 1.367 . S
C2285 C2284 1.367 . S
C2285 C2287 1.433 . S
C2286 C2282 1.350 . S
C2286 C2283 1.463 . S
C2286 N2290 1.427 . S
C2287 H2277 0.929 . S
C2287 C2285 1.433 . S
C2287 N2290 1.384 . S
C2288 H2279 0.929 . S
C2288 C2280 1.378 . S
C2288 C2283 1.350 . S
C2289 H2276 0.929 . S
C2289 C2281 1.433 . S
C2289 N2291 1.384 . S
N2290 C2286 1.427 . S
N2290 C2287 1.384 . S
N2291 C2283 1.427 . S
N2291 C2289 1.384 . S
H2292 C2298 0.930 . S
H2293 C2302 0.930 . S
H2294 C2307 0.929 . S
H2295 C2305 0.929 . S
H2296 C2300 0.929 . S
H2297 C2306 0.929 . S
C2298 H2292 0.930 . S
C2298 C2299 1.367 . S
C2298 C2306 1.378 . S
C2299 C2298 1.367 . S
C2299 C2307 1.433 . S
C2300 H2296 0.929 . S
C2300 C2302 1.378 . S
C2300 C2304 1.350 . S
C2301 C2304 1.463 . S
C2301 C2306 1.350 . S
C2301 N2309 1.427 . S
C2302 H2293 0.930 . S
C2302 C2300 1.378 . S
C2302 C2303 1.367 . S
C2303 C2302 1.367 . S
C2303 C2305 1.433 . S
C2304 C2300 1.350 . S
C2304 C2301 1.463 . S
C2304 N2308 1.427 . S
C2305 H2295 0.929 . S
C2305 C2303 1.433 . S
C2305 N2308 1.384 . S
C2306 H2297 0.929 . S
C2306 C2298 1.378 . S
C2306 C2301 1.350 . S
C2307 H2294 0.929 . S
C2307 C2299 1.433 . S
C2307 N2309 1.384 . S
N2308 C2304 1.427 . S
N2308 C2305 1.384 . S
N2309 C2301 1.427 . S
N2309 C2307 1.384 . S
H2310 C2316 0.930 . S
H2311 C2320 0.930 . S
H2312 C2325 0.929 . S
H2313 C2323 0.929 . S
H2314 C2318 0.929 . S
H2315 C2324 0.929 . S
C2316 H2310 0.930 . S
C2316 C2317 1.367 . S
C2316 C2324 1.378 . S
C2317 C2316 1.367 . S
C2317 C2325 1.433 . S
C2318 H2314 0.929 . S
C2318 C2320 1.378 . S
C2318 C2322 1.350 . S
C2319 C2322 1.463 . S
C2319 C2324 1.350 . S
C2319 N2327 1.427 . S
C2320 H2311 0.930 . S
C2320 C2318 1.378 . S
C2320 C2321 1.367 . S
C2321 C2320 1.367 . S
C2321 C2323 1.433 . S
C2322 C2318 1.350 . S
C2322 C2319 1.463 . S
C2322 N2326 1.427 . S
C2323 H2313 0.929 . S
C2323 C2321 1.433 . S
C2323 N2326 1.384 . S
C2324 H2315 0.929 . S
C2324 C2316 1.378 . S
C2324 C2319 1.350 . S
C2325 H2312 0.929 . S
C2325 C2317 1.433 . S
C2325 N2327 1.384 . S
N2326 C2322 1.427 . S
N2326 C2323 1.384 . S
N2327 C2319 1.427 . S
N2327 C2325 1.384 . S
H2328 C2334 0.930 . S
H2329 C2338 0.930 . S
H2330 C2343 0.929 . S
H2331 C2341 0.929 . S
H2332 C2336 0.929 . S
H2333 C2342 0.929 . S
C2334 H2328 0.930 . S
C2334 C2335 1.367 . S
C2334 C2342 1.378 . S
C2335 C2334 1.367 . S
C2335 C2343 1.433 . S
C2336 H2332 0.929 . S
C2336 C2338 1.378 . S
C2336 C2340 1.350 . S
C2337 C2340 1.463 . S
C2337 C2342 1.350 . S
C2337 N2345 1.427 . S
C2338 H2329 0.930 . S
C2338 C2336 1.378 . S
C2338 C2339 1.367 . S
C2339 C2338 1.367 . S
C2339 C2341 1.433 . S
C2340 C2336 1.350 . S
C2340 C2337 1.463 . S
C2340 N2344 1.427 . S
C2341 H2331 0.929 . S
C2341 C2339 1.433 . S
C2341 N2344 1.384 . S
C2342 H2333 0.929 . S
C2342 C2334 1.378 . S
C2342 C2337 1.350 . S
C2343 H2330 0.929 . S
C2343 C2335 1.433 . S
C2343 N2345 1.384 . S
N2344 C2340 1.427 . S
N2344 C2341 1.384 . S
N2345 C2337 1.427 . S
N2345 C2343 1.384 . S
H2346 C2352 0.930 . S
H2347 C2356 0.930 . S
H2348 C2361 0.929 . S
H2349 C2359 0.929 . S
H2350 C2354 0.929 . S
H2351 C2360 0.929 . S
C2352 H2346 0.930 . S
C2352 C2353 1.367 . S
C2352 C2360 1.378 . S
C2353 C2352 1.367 . S
C2353 C2361 1.433 . S
C2354 H2350 0.929 . S
C2354 C2356 1.378 . S
C2354 C2358 1.350 . S
C2355 C2358 1.463 . S
C2355 C2360 1.350 . S
C2355 N2363 1.427 . S
C2356 H2347 0.930 . S
C2356 C2354 1.378 . S
C2356 C2357 1.367 . S
C2357 C2356 1.367 . S
C2357 C2359 1.433 . S
C2358 C2354 1.350 . S
C2358 C2355 1.463 . S
C2358 N2362 1.427 . S
C2359 H2349 0.929 . S
C2359 C2357 1.433 . S
C2359 N2362 1.384 . S
C2360 H2351 0.929 . S
C2360 C2352 1.378 . S
C2360 C2355 1.350 . S
C2361 H2348 0.929 . S
C2361 C2353 1.433 . S
C2361 N2363 1.384 . S
N2362 C2358 1.427 . S
N2362 C2359 1.384 . S
N2363 C2355 1.427 . S
N2363 C2361 1.384 . S
H2364 C2370 0.930 . S
H2365 C2374 0.930 . S
H2366 C2379 0.929 . S
H2367 C2377 0.929 . S
H2368 C2372 0.929 . S
H2369 C2378 0.929 . S
C2370 H2364 0.930 . S
C2370 C2371 1.367 . S
C2370 C2378 1.378 . S
C2371 C2370 1.367 . S
C2371 C2379 1.433 . S
C2372 H2368 0.929 . S
C2372 C2374 1.378 . S
C2372 C2376 1.350 . S
C2373 C2376 1.463 . S
C2373 C2378 1.350 . S
C2373 N2381 1.427 . S
C2374 H2365 0.930 . S
C2374 C2372 1.378 . S
C2374 C2375 1.367 . S
C2375 C2374 1.367 . S
C2375 C2377 1.433 . S
C2376 C2372 1.350 . S
C2376 C2373 1.463 . S
C2376 N2380 1.427 . S
C2377 H2367 0.929 . S
C2377 C2375 1.433 . S
C2377 N2380 1.384 . S
C2378 H2369 0.929 . S
C2378 C2370 1.378 . S
C2378 C2373 1.350 . S
C2379 H2366 0.929 . S
C2379 C2371 1.433 . S
C2379 N2381 1.384 . S
N2380 C2376 1.427 . S
N2380 C2377 1.384 . S
N2381 C2373 1.427 . S
N2381 C2379 1.384 . S
H2382 C2388 0.930 . S
H2383 C2392 0.930 . S
H2384 C2397 0.929 . S
H2385 C2395 0.929 . S
H2386 C2390 0.929 . S
H2387 C2396 0.929 . S
C2388 H2382 0.930 . S
C2388 C2389 1.367 . S
C2388 C2396 1.378 . S
C2389 C2388 1.367 . S
C2389 C2397 1.433 . S
C2390 H2386 0.929 . S
C2390 C2392 1.378 . S
C2390 C2394 1.350 . S
C2391 C2394 1.463 . S
C2391 C2396 1.350 . S
C2391 N2399 1.427 . S
C2392 H2383 0.930 . S
C2392 C2390 1.378 . S
C2392 C2393 1.367 . S
C2393 C2392 1.367 . S
C2393 C2395 1.433 . S
C2394 C2390 1.350 . S
C2394 C2391 1.463 . S
C2394 N2398 1.427 . S
C2395 H2385 0.929 . S
C2395 C2393 1.433 . S
C2395 N2398 1.384 . S
C2396 H2387 0.929 . S
C2396 C2388 1.378 . S
C2396 C2391 1.350 . S
C2397 H2384 0.929 . S
C2397 C2389 1.433 . S
C2397 N2399 1.384 . S
N2398 C2394 1.427 . S
N2398 C2395 1.384 . S
N2399 C2391 1.427 . S
N2399 C2397 1.384 . S
H2400 C2406 0.930 . S
H2401 C2410 0.930 . S
H2402 C2415 0.929 . S
H2403 C2413 0.929 . S
H2404 C2408 0.929 . S
H2405 C2414 0.929 . S
C2406 H2400 0.930 . S
C2406 C2407 1.367 . S
C2406 C2414 1.378 . S
C2407 C2406 1.367 . S
C2407 C2415 1.433 . S
C2408 H2404 0.929 . S
C2408 C2410 1.378 . S
C2408 C2412 1.350 . S
C2409 C2412 1.463 . S
C2409 C2414 1.350 . S
C2409 N2417 1.427 . S
C2410 H2401 0.930 . S
C2410 C2408 1.378 . S
C2410 C2411 1.367 . S
C2411 C2410 1.367 . S
C2411 C2413 1.433 . S
C2412 C2408 1.350 . S
C2412 C2409 1.463 . S
C2412 N2416 1.427 . S
C2413 H2403 0.929 . S
C2413 C2411 1.433 . S
C2413 N2416 1.384 . S
C2414 H2405 0.929 . S
C2414 C2406 1.378 . S
C2414 C2409 1.350 . S
C2415 H2402 0.929 . S
C2415 C2407 1.433 . S
C2415 N2417 1.384 . S
N2416 C2412 1.427 . S
N2416 C2413 1.384 . S
N2417 C2409 1.427 . S
N2417 C2415 1.384 . S
H2418 C2424 0.930 . S
H2419 C2428 0.930 . S
H2420 C2433 0.929 . S
H2421 C2431 0.929 . S
H2422 C2426 0.929 . S
H2423 C2432 0.929 . S
C2424 H2418 0.930 . S
C2424 C2425 1.367 . S
C2424 C2432 1.378 . S
C2425 C2424 1.367 . S
C2425 C2433 1.433 . S
C2426 H2422 0.929 . S
C2426 C2428 1.378 . S
C2426 C2430 1.350 . S
C2427 C2430 1.463 . S
C2427 C2432 1.350 . S
C2427 N2435 1.427 . S
C2428 H2419 0.930 . S
C2428 C2426 1.378 . S
C2428 C2429 1.367 . S
C2429 C2428 1.367 . S
C2429 C2431 1.433 . S
C2430 C2426 1.350 . S
C2430 C2427 1.463 . S
C2430 N2434 1.427 . S
C2431 H2421 0.929 . S
C2431 C2429 1.433 . S
C2431 N2434 1.384 . S
C2432 H2423 0.929 . S
C2432 C2424 1.378 . S
C2432 C2427 1.350 . S
C2433 H2420 0.929 . S
C2433 C2425 1.433 . S
C2433 N2435 1.384 . S
N2434 C2430 1.427 . S
N2434 C2431 1.384 . S
N2435 C2427 1.427 . S
N2435 C2433 1.384 . S
H2436 C2442 0.930 . S
H2437 C2446 0.930 . S
H2438 C2451 0.929 . S
H2439 C2449 0.929 . S
H2440 C2444 0.929 . S
H2441 C2450 0.929 . S
C2442 H2436 0.930 . S
C2442 C2443 1.367 . S
C2442 C2450 1.378 . S
C2443 C2442 1.367 . S
C2443 C2451 1.433 . S
C2444 H2440 0.929 . S
C2444 C2446 1.378 . S
C2444 C2448 1.350 . S
C2445 C2448 1.463 . S
C2445 C2450 1.350 . S
C2445 N2453 1.427 . S
C2446 H2437 0.930 . S
C2446 C2444 1.378 . S
C2446 C2447 1.367 . S
C2447 C2446 1.367 . S
C2447 C2449 1.433 . S
C2448 C2444 1.350 . S
C2448 C2445 1.463 . S
C2448 N2452 1.427 . S
C2449 H2439 0.929 . S
C2449 C2447 1.433 . S
C2449 N2452 1.384 . S
C2450 H2441 0.929 . S
C2450 C2442 1.378 . S
C2450 C2445 1.350 . S
C2451 H2438 0.929 . S
C2451 C2443 1.433 . S
C2451 N2453 1.384 . S
N2452 C2448 1.427 . S
N2452 C2449 1.384 . S
N2453 C2445 1.427 . S
N2453 C2451 1.384 . S
H2454 C2460 0.930 . S
H2455 C2464 0.930 . S
H2456 C2469 0.929 . S
H2457 C2467 0.929 . S
H2458 C2462 0.929 . S
H2459 C2468 0.929 . S
C2460 H2454 0.930 . S
C2460 C2461 1.367 . S
C2460 C2468 1.378 . S
C2461 C2460 1.367 . S
C2461 C2469 1.433 . S
C2462 H2458 0.929 . S
C2462 C2464 1.378 . S
C2462 C2466 1.350 . S
C2463 C2466 1.463 . S
C2463 C2468 1.350 . S
C2463 N2471 1.427 . S
C2464 H2455 0.930 . S
C2464 C2462 1.378 . S
C2464 C2465 1.367 . S
C2465 C2464 1.367 . S
C2465 C2467 1.433 . S
C2466 C2462 1.350 . S
C2466 C2463 1.463 . S
C2466 N2470 1.427 . S
C2467 H2457 0.929 . S
C2467 C2465 1.433 . S
C2467 N2470 1.384 . S
C2468 H2459 0.929 . S
C2468 C2460 1.378 . S
C2468 C2463 1.350 . S
C2469 H2456 0.929 . S
C2469 C2461 1.433 . S
C2469 N2471 1.384 . S
N2470 C2466 1.427 . S
N2470 C2467 1.384 . S
N2471 C2463 1.427 . S
N2471 C2469 1.384 . S
H2472 C2478 0.930 . S
H2473 C2482 0.930 . S
H2474 C2487 0.929 . S
H2475 C2485 0.929 . S
H2476 C2480 0.929 . S
H2477 C2486 0.929 . S
C2478 H2472 0.930 . S
C2478 C2479 1.367 . S
C2478 C2486 1.378 . S
C2479 C2478 1.367 . S
C2479 C2487 1.433 . S
C2480 H2476 0.929 . S
C2480 C2482 1.378 . S
C2480 C2484 1.350 . S
C2481 C2484 1.463 . S
C2481 C2486 1.350 . S
C2481 N2489 1.427 . S
C2482 H2473 0.930 . S
C2482 C2480 1.378 . S
C2482 C2483 1.367 . S
C2483 C2482 1.367 . S
C2483 C2485 1.433 . S
C2484 C2480 1.350 . S
C2484 C2481 1.463 . S
C2484 N2488 1.427 . S
C2485 H2475 0.929 . S
C2485 C2483 1.433 . S
C2485 N2488 1.384 . S
C2486 H2477 0.929 . S
C2486 C2478 1.378 . S
C2486 C2481 1.350 . S
C2487 H2474 0.929 . S
C2487 C2479 1.433 . S
C2487 N2489 1.384 . S
N2488 C2484 1.427 . S
N2488 C2485 1.384 . S
N2489 C2481 1.427 . S
N2489 C2487 1.384 . S
H2490 C2496 0.930 . S
H2491 C2500 0.930 . S
H2492 C2505 0.929 . S
H2493 C2503 0.929 . S
H2494 C2498 0.929 . S
H2495 C2504 0.929 . S
C2496 H2490 0.930 . S
C2496 C2497 1.367 . S
C2496 C2504 1.378 . S
C2497 C2496 1.367 . S
C2497 C2505 1.433 . S
C2498 H2494 0.929 . S
C2498 C2500 1.378 . S
C2498 C2502 1.350 . S
C2499 C2502 1.463 . S
C2499 C2504 1.350 . S
C2499 N2507 1.427 . S
C2500 H2491 0.930 . S
C2500 C2498 1.378 . S
C2500 C2501 1.367 . S
C2501 C2500 1.367 . S
C2501 C2503 1.433 . S
C2502 C2498 1.350 . S
C2502 C2499 1.463 . S
C2502 N2506 1.427 . S
C2503 H2493 0.929 . S
C2503 C2501 1.433 . S
C2503 N2506 1.384 . S
C2504 H2495 0.929 . S
C2504 C2496 1.378 . S
C2504 C2499 1.350 . S
C2505 H2492 0.929 . S
C2505 C2497 1.433 . S
C2505 N2507 1.384 . S
N2506 C2502 1.427 . S
N2506 C2503 1.384 . S
N2507 C2499 1.427 . S
N2507 C2505 1.384 . S
H2508 C2514 0.930 . S
H2509 C2518 0.930 . S
H2510 C2523 0.929 . S
H2511 C2521 0.929 . S
H2512 C2516 0.929 . S
H2513 C2522 0.929 . S
C2514 H2508 0.930 . S
C2514 C2515 1.367 . S
C2514 C2522 1.378 . S
C2515 C2514 1.367 . S
C2515 C2523 1.433 . S
C2516 H2512 0.929 . S
C2516 C2518 1.378 . S
C2516 C2520 1.350 . S
C2517 C2520 1.463 . S
C2517 C2522 1.350 . S
C2517 N2525 1.427 . S
C2518 H2509 0.930 . S
C2518 C2516 1.378 . S
C2518 C2519 1.367 . S
C2519 C2518 1.367 . S
C2519 C2521 1.433 . S
C2520 C2516 1.350 . S
C2520 C2517 1.463 . S
C2520 N2524 1.427 . S
C2521 H2511 0.929 . S
C2521 C2519 1.433 . S
C2521 N2524 1.384 . S
C2522 H2513 0.929 . S
C2522 C2514 1.378 . S
C2522 C2517 1.350 . S
C2523 H2510 0.929 . S
C2523 C2515 1.433 . S
C2523 N2525 1.384 . S
N2524 C2520 1.427 . S
N2524 C2521 1.384 . S
N2525 C2517 1.427 . S
N2525 C2523 1.384 . S
H2526 C2532 0.930 . S
H2527 C2536 0.930 . S
H2528 C2541 0.929 . S
H2529 C2539 0.929 . S
H2530 C2534 0.929 . S
H2531 C2540 0.929 . S
C2532 H2526 0.930 . S
C2532 C2533 1.367 . S
C2532 C2540 1.378 . S
C2533 C2532 1.367 . S
C2533 C2541 1.433 . S
C2534 H2530 0.929 . S
C2534 C2536 1.378 . S
C2534 C2538 1.350 . S
C2535 C2538 1.463 . S
C2535 C2540 1.350 . S
C2535 N2543 1.427 . S
C2536 H2527 0.930 . S
C2536 C2534 1.378 . S
C2536 C2537 1.367 . S
C2537 C2536 1.367 . S
C2537 C2539 1.433 . S
C2538 C2534 1.350 . S
C2538 C2535 1.463 . S
C2538 N2542 1.427 . S
C2539 H2529 0.929 . S
C2539 C2537 1.433 . S
C2539 N2542 1.384 . S
C2540 H2531 0.929 . S
C2540 C2532 1.378 . S
C2540 C2535 1.350 . S
C2541 H2528 0.929 . S
C2541 C2533 1.433 . S
C2541 N2543 1.384 . S
N2542 C2538 1.427 . S
N2542 C2539 1.384 . S
N2543 C2535 1.427 . S
N2543 C2541 1.384 . S
H2544 C2550 0.930 . S
H2545 C2554 0.930 . S
H2546 C2559 0.929 . S
H2547 C2557 0.929 . S
H2548 C2552 0.938 . S
H2549 C2558 0.935 . S
C2550 H2544 0.930 . S
C2550 C2551 1.367 . S
C2550 C2558 1.378 . S
C2551 C2550 1.367 . S
C2551 C2559 1.433 . S
C2552 H2548 0.938 . S
C2552 C2554 1.378 . S
C2552 C2556 1.350 . S
C2553 C2556 1.463 1_566 S
C2553 C2558 1.350 . S
C2553 N2561 1.411 1_556 S
C2554 H2545 0.930 . S
C2554 C2552 1.378 . S
C2554 C2555 1.367 . S
C2555 C2554 1.367 . S
C2555 C2557 1.433 . S
C2556 C2552 1.350 . S
C2556 C2553 1.463 1_544 S
C2556 N2560 1.410 1_554 S
C2557 H2547 0.929 . S
C2557 C2555 1.433 . S
C2557 N2560 1.356 1_554 S
C2558 H2549 0.935 . S
C2558 C2550 1.378 . S
C2558 C2553 1.350 . S
C2559 H2546 0.929 . S
C2559 C2551 1.433 . S
C2559 N2561 1.358 1_556 S
N2560 C2556 1.410 1_556 S
N2560 C2557 1.356 1_556 S
N2561 C2553 1.411 1_554 S
N2561 C2559 1.358 1_554 S
H2562 C2568 0.930 . S
H2563 C2572 0.930 . S
H2564 C2577 0.929 . S
H2565 C2575 0.929 . S
H2566 C2570 0.929 . S
H2567 C2576 0.929 . S
C2568 H2562 0.930 . S
C2568 C2569 1.367 . S
C2568 C2576 1.378 . S
C2569 C2568 1.367 . S
C2569 C2577 1.433 . S
C2570 H2566 0.929 . S
C2570 C2572 1.378 . S
C2570 C2574 1.350 . S
C2571 C2574 1.463 . S
C2571 C2576 1.350 . S
C2571 N2579 1.427 . S
C2572 H2563 0.930 . S
C2572 C2570 1.378 . S
C2572 C2573 1.367 . S
C2573 C2572 1.367 . S
C2573 C2575 1.433 . S
C2574 C2570 1.350 . S
C2574 C2571 1.463 . S
C2574 N2578 1.427 . S
C2575 H2565 0.929 . S
C2575 C2573 1.433 . S
C2575 N2578 1.384 . S
C2576 H2567 0.929 . S
C2576 C2568 1.378 . S
C2576 C2571 1.350 . S
C2577 H2564 0.929 . S
C2577 C2569 1.433 . S
C2577 N2579 1.384 . S
N2578 C2574 1.427 . S
N2578 C2575 1.384 . S
N2579 C2571 1.427 . S
N2579 C2577 1.384 . S
H2580 C2586 0.930 . S
H2581 C2590 0.930 . S
H2582 C2595 0.929 . S
H2583 C2593 0.929 . S
H2584 C2588 0.929 . S
H2585 C2594 0.929 . S
C2586 H2580 0.930 . S
C2586 C2587 1.367 . S
C2586 C2594 1.378 . S
C2587 C2586 1.367 . S
C2587 C2595 1.433 . S
C2588 H2584 0.929 . S
C2588 C2590 1.378 . S
C2588 C2592 1.350 . S
C2589 C2592 1.463 1_456 S
C2589 C2594 1.350 . S
C2589 N2597 1.427 . S
C2590 H2581 0.930 . S
C2590 C2588 1.378 . S
C2590 C2591 1.367 . S
C2591 C2590 1.367 . S
C2591 C2593 1.433 . S
C2592 C2588 1.350 . S
C2592 C2589 1.463 1_654 S
C2592 N2596 1.427 . S
C2593 H2583 0.929 . S
C2593 C2591 1.433 . S
C2593 N2596 1.384 . S
C2594 H2585 0.929 . S
C2594 C2586 1.378 . S
C2594 C2589 1.350 . S
C2595 H2582 0.929 . S
C2595 C2587 1.433 . S
C2595 N2597 1.384 . S
N2596 C2592 1.427 . S
N2596 C2593 1.384 . S
N2597 C2589 1.427 . S
N2597 C2595 1.384 . S
H2598 C2604 0.930 . S
H2599 C2608 0.930 . S
H2600 C2613 0.929 . S
H2601 C2611 0.929 . S
H2602 C2606 0.949 . S
H2603 C2612 0.948 . S
C2604 H2598 0.930 . S
C2604 C2605 1.367 . S
C2604 C2612 1.378 . S
C2605 C2604 1.367 . S
C2605 C2613 1.433 . S
C2606 H2602 0.949 . S
C2606 C2608 1.378 . S
C2606 C2610 1.350 . S
C2607 C2610 1.463 1_545 S
C2607 C2612 1.350 . S
C2607 N2615 1.427 . S
C2608 H2599 0.930 . S
C2608 C2606 1.378 . S
C2608 C2609 1.367 . S
C2609 C2608 1.367 . S
C2609 C2611 1.433 . S
C2610 C2606 1.350 . S
C2610 C2607 1.463 1_565 S
C2610 N2614 1.427 . S
C2611 H2601 0.929 . S
C2611 C2609 1.433 . S
C2611 N2614 1.384 . S
C2612 H2603 0.948 . S
C2612 C2604 1.378 . S
C2612 C2607 1.350 . S
C2613 H2600 0.929 . S
C2613 C2605 1.433 . S
C2613 N2615 1.384 . S
N2614 C2610 1.427 . S
N2614 C2611 1.384 . S
N2615 C2607 1.427 . S
N2615 C2613 1.384 . S
H2616 C2622 0.930 . S
H2617 C2626 0.930 . S
H2618 C2631 0.929 . S
H2619 C2629 0.929 . S
H2620 C2624 0.929 . S
H2621 C2630 0.929 . S
C2622 H2616 0.930 . S
C2622 C2623 1.367 . S
C2622 C2630 1.378 . S
C2623 C2622 1.367 . S
C2623 C2631 1.433 . S
C2624 H2620 0.929 . S
C2624 C2626 1.378 . S
C2624 C2628 1.350 . S
C2625 C2628 1.463 1_554 S
C2625 C2630 1.350 . S
C2625 N2633 1.427 . S
C2626 H2617 0.930 . S
C2626 C2624 1.378 . S
C2626 C2627 1.367 . S
C2627 C2626 1.367 . S
C2627 C2629 1.433 . S
C2628 C2624 1.350 . S
C2628 C2625 1.463 1_556 S
C2628 N2632 1.427 . S
C2629 H2619 0.929 . S
C2629 C2627 1.433 . S
C2629 N2632 1.384 . S
C2630 H2621 0.929 . S
C2630 C2622 1.378 . S
C2630 C2625 1.350 . S
C2631 H2618 0.929 . S
C2631 C2623 1.433 . S
C2631 N2633 1.384 . S
N2632 C2628 1.427 . S
N2632 C2629 1.384 . S
N2633 C2625 1.427 . S
N2633 C2631 1.384 . S
H2634 C2640 0.930 . S
H2635 C2644 0.930 . S
H2636 C2649 0.929 . S
H2637 C2647 0.929 . S
H2638 C2642 0.929 . S
H2639 C2648 0.929 . S
C2640 H2634 0.930 . S
C2640 C2641 1.367 . S
C2640 C2648 1.378 . S
C2641 C2640 1.367 . S
C2641 C2649 1.433 . S
C2642 H2638 0.929 . S
C2642 C2644 1.378 . S
C2642 C2646 1.350 . S
C2643 C2646 1.463 1_455 S
C2643 C2648 1.350 . S
C2643 N2651 1.427 . S
C2644 H2635 0.930 . S
C2644 C2642 1.378 . S
C2644 C2645 1.367 . S
C2645 C2644 1.367 . S
C2645 C2647 1.433 . S
C2646 C2642 1.350 . S
C2646 C2643 1.463 1_655 S
C2646 N2650 1.427 . S
C2647 H2637 0.929 . S
C2647 C2645 1.433 . S
C2647 N2650 1.384 . S
C2648 H2639 0.929 . S
C2648 C2640 1.378 . S
C2648 C2643 1.350 . S
C2649 H2636 0.929 . S
C2649 C2641 1.433 . S
C2649 N2651 1.384 . S
N2650 C2646 1.427 . S
N2650 C2647 1.384 . S
N2651 C2643 1.427 . S
N2651 C2649 1.384 . S
H2652 C2658 0.930 . S
H2653 C2662 0.930 . S
H2654 C2667 0.929 . S
H2655 C2665 0.929 . S
H2656 C2660 0.929 1_565 S
H2657 C2666 0.929 1_545 S
C2658 H2652 0.930 . S
C2658 C2659 1.367 . S
C2658 C2666 1.378 . S
C2659 C2658 1.367 . S
C2659 C2667 1.433 . S
C2660 H2656 0.929 1_545 S
C2660 C2662 1.378 . S
C2660 C2664 1.350 . S
C2661 C2664 1.463 1_566 S
C2661 C2666 1.350 . S
C2661 N2669 1.427 1_556 S
C2662 H2653 0.930 . S
C2662 C2660 1.378 . S
C2662 C2663 1.367 . S
C2663 C2662 1.367 . S
C2663 C2665 1.433 . S
C2664 C2660 1.350 . S
C2664 C2661 1.463 1_544 S
C2664 N2668 1.427 1_554 S
C2665 H2655 0.929 . S
C2665 C2663 1.433 . S
C2665 N2668 1.384 1_554 S
C2666 H2657 0.929 1_565 S
C2666 C2658 1.378 . S
C2666 C2661 1.350 . S
C2667 H2654 0.929 . S
C2667 C2659 1.433 . S
C2667 N2669 1.384 1_556 S
N2668 C2664 1.427 1_556 S
N2668 C2665 1.384 1_556 S
N2669 C2661 1.427 1_554 S
N2669 C2667 1.384 1_554 S
H2670 C2676 0.930 . S
H2671 C2680 0.930 . S
H2672 C2685 0.929 . S
H2673 C2683 0.929 . S
H2674 C2678 0.929 . S
H2675 C2684 0.929 . S
C2676 H2670 0.930 . S
C2676 C2677 1.367 . S
C2676 C2684 1.378 . S
C2677 C2676 1.367 . S
C2677 C2685 1.433 . S
C2678 H2674 0.929 . S
C2678 C2680 1.378 . S
C2678 C2682 1.350 . S
C2679 C2682 1.463 . S
C2679 C2684 1.350 . S
C2679 N2687 1.427 . S
C2680 H2671 0.930 . S
C2680 C2678 1.378 . S
C2680 C2681 1.367 . S
C2681 C2680 1.367 . S
C2681 C2683 1.433 . S
C2682 C2678 1.350 . S
C2682 C2679 1.463 . S
C2682 N2686 1.427 . S
C2683 H2673 0.929 . S
C2683 C2681 1.433 . S
C2683 N2686 1.384 . S
C2684 H2675 0.929 . S
C2684 C2676 1.378 . S
C2684 C2679 1.350 . S
C2685 H2672 0.929 . S
C2685 C2677 1.433 . S
C2685 N2687 1.384 . S
N2686 C2682 1.427 . S
N2686 C2683 1.384 . S
N2687 C2679 1.427 . S
N2687 C2685 1.384 . S
H2688 C2694 0.930 . S
H2689 C2698 0.930 . S
H2690 C2703 0.940 . S
H2691 C2701 0.938 . S
H2692 C2696 0.929 1_655 S
H2693 C2702 0.929 1_455 S
C2694 H2688 0.930 . S
C2694 C2695 1.367 . S
C2694 C2702 1.378 . S
C2695 C2694 1.367 . S
C2695 C2703 1.433 . S
C2696 H2692 0.929 1_455 S
C2696 C2698 1.378 . S
C2696 C2700 1.350 . S
C2697 C2700 1.463 1_654 S
C2697 C2702 1.350 . S
C2697 N2705 1.427 1_554 S
C2698 H2689 0.930 . S
C2698 C2696 1.378 . S
C2698 C2699 1.367 . S
C2699 C2698 1.367 . S
C2699 C2701 1.433 . S
C2700 C2696 1.350 . S
C2700 C2697 1.463 1_456 S
C2700 N2704 1.427 1_556 S
C2701 H2691 0.938 . S
C2701 C2699 1.433 . S
C2701 N2704 1.384 1_556 S
C2702 H2693 0.929 1_655 S
C2702 C2694 1.378 . S
C2702 C2697 1.350 . S
C2703 H2690 0.940 . S
C2703 C2695 1.433 . S
C2703 N2705 1.384 1_554 S
N2704 C2700 1.427 1_554 S
N2704 C2701 1.384 1_554 S
N2705 C2697 1.427 1_556 S
N2705 C2703 1.384 1_556 S
H2706 C2712 0.930 . S
H2707 C2716 0.930 . S
H2708 C2721 0.929 . S
H2709 C2719 0.929 . S
H2710 C2714 0.929 . S
H2711 C2720 0.929 . S
C2712 H2706 0.930 . S
C2712 C2713 1.367 . S
C2712 C2720 1.378 . S
C2713 C2712 1.367 . S
C2713 C2721 1.433 . S
C2714 H2710 0.929 . S
C2714 C2716 1.378 . S
C2714 C2718 1.350 . S
C2715 C2718 1.463 1_565 S
C2715 C2720 1.350 . S
C2715 N2723 1.427 . S
C2716 H2707 0.930 . S
C2716 C2714 1.378 . S
C2716 C2717 1.367 . S
C2717 C2716 1.367 . S
C2717 C2719 1.433 . S
C2718 C2714 1.350 . S
C2718 C2715 1.463 1_545 S
C2718 N2722 1.427 . S
C2719 H2709 0.929 . S
C2719 C2717 1.433 . S
C2719 N2722 1.384 . S
C2720 H2711 0.929 . S
C2720 C2712 1.378 . S
C2720 C2715 1.350 . S
C2721 H2708 0.929 . S
C2721 C2713 1.433 . S
C2721 N2723 1.384 . S
N2722 C2718 1.427 . S
N2722 C2719 1.384 . S
N2723 C2715 1.427 . S
N2723 C2721 1.384 . S
H2724 C2730 0.930 . S
H2725 C2734 0.930 . S
H2726 C2739 0.929 . S
H2727 C2737 0.929 . S
H2728 C2732 0.929 . S
H2729 C2738 0.929 . S
C2730 H2724 0.930 . S
C2730 C2731 1.367 . S
C2730 C2738 1.378 . S
C2731 C2730 1.367 . S
C2731 C2739 1.433 . S
C2732 H2728 0.929 . S
C2732 C2734 1.378 . S
C2732 C2736 1.350 . S
C2733 C2736 1.463 1_554 S
C2733 C2738 1.350 . S
C2733 N2741 1.427 . S
C2734 H2725 0.930 . S
C2734 C2732 1.378 . S
C2734 C2735 1.367 . S
C2735 C2734 1.367 . S
C2735 C2737 1.433 . S
C2736 C2732 1.350 . S
C2736 C2733 1.463 1_556 S
C2736 N2740 1.427 . S
C2737 H2727 0.929 . S
C2737 C2735 1.433 . S
C2737 N2740 1.384 . S
C2738 H2729 0.929 . S
C2738 C2730 1.378 . S
C2738 C2733 1.350 . S
C2739 H2726 0.929 . S
C2739 C2731 1.433 . S
C2739 N2741 1.384 . S
N2740 C2736 1.427 . S
N2740 C2737 1.384 . S
N2741 C2733 1.427 . S
N2741 C2739 1.384 . S
H2742 C2748 0.930 . S
H2743 C2752 0.930 . S
H2744 C2757 0.929 . S
H2745 C2755 0.929 . S
H2746 C2750 0.929 1_455 S
H2747 C2756 0.929 1_655 S
C2748 H2742 0.930 . S
C2748 C2749 1.367 . S
C2748 C2756 1.378 . S
C2749 C2748 1.367 . S
C2749 C2757 1.433 . S
C2750 H2746 0.929 1_655 S
C2750 C2752 1.378 . S
C2750 C2754 1.350 . S
C2751 C2754 1.463 1_455 S
C2751 C2756 1.350 . S
C2751 N2759 1.427 . S
C2752 H2743 0.930 . S
C2752 C2750 1.378 . S
C2752 C2753 1.367 . S
C2753 C2752 1.367 . S
C2753 C2755 1.433 . S
C2754 C2750 1.350 . S
C2754 C2751 1.463 1_655 S
C2754 N2758 1.427 . S
C2755 H2745 0.929 . S
C2755 C2753 1.433 . S
C2755 N2758 1.384 . S
C2756 H2747 0.929 1_455 S
C2756 C2748 1.378 . S
C2756 C2751 1.350 . S
C2757 H2744 0.929 . S
C2757 C2749 1.433 . S
C2757 N2759 1.384 . S
N2758 C2754 1.427 . S
N2758 C2755 1.384 . S
N2759 C2751 1.427 . S
N2759 C2757 1.384 . S
H2760 C2766 0.930 . S
H2761 C2770 0.930 . S
H2762 C2775 0.929 . S
H2763 C2773 0.929 . S
H2764 C2768 0.929 . S
H2765 C2774 0.929 . S
C2766 H2760 0.930 . S
C2766 C2767 1.367 . S
C2766 C2774 1.378 . S
C2767 C2766 1.367 . S
C2767 C2775 1.433 . S
C2768 H2764 0.929 . S
C2768 C2770 1.378 . S
C2768 C2772 1.350 . S
C2769 C2772 1.463 . S
C2769 C2774 1.350 . S
C2769 N2777 1.427 . S
C2770 H2761 0.930 . S
C2770 C2768 1.378 . S
C2770 C2771 1.367 . S
C2771 C2770 1.367 . S
C2771 C2773 1.433 . S
C2772 C2768 1.350 . S
C2772 C2769 1.463 . S
C2772 N2776 1.427 . S
C2773 H2763 0.929 . S
C2773 C2771 1.433 . S
C2773 N2776 1.384 . S
C2774 H2765 0.929 . S
C2774 C2766 1.378 . S
C2774 C2769 1.350 . S
C2775 H2762 0.929 . S
C2775 C2767 1.433 . S
C2775 N2777 1.384 . S
N2776 C2772 1.427 . S
N2776 C2773 1.384 . S
N2777 C2769 1.427 . S
N2777 C2775 1.384 . S
H2778 C2784 0.930 . S
H2779 C2788 0.930 . S
H2780 C2793 0.929 . S
H2781 C2791 0.929 . S
H2782 C2786 0.929 . S
H2783 C2792 0.929 . S
C2784 H2778 0.930 . S
C2784 C2785 1.367 . S
C2784 C2792 1.378 . S
C2785 C2784 1.367 . S
C2785 C2793 1.433 . S
C2786 H2782 0.929 . S
C2786 C2788 1.378 . S
C2786 C2790 1.350 . S
C2787 C2790 1.463 . S
C2787 C2792 1.350 . S
C2787 N2795 1.427 . S
C2788 H2779 0.930 . S
C2788 C2786 1.378 . S
C2788 C2789 1.367 . S
C2789 C2788 1.367 . S
C2789 C2791 1.433 . S
C2790 C2786 1.350 . S
C2790 C2787 1.463 . S
C2790 N2794 1.427 . S
C2791 H2781 0.929 . S
C2791 C2789 1.433 . S
C2791 N2794 1.384 . S
C2792 H2783 0.929 . S
C2792 C2784 1.378 . S
C2792 C2787 1.350 . S
C2793 H2780 0.929 . S
C2793 C2785 1.433 . S
C2793 N2795 1.384 . S
N2794 C2790 1.427 . S
N2794 C2791 1.384 . S
N2795 C2787 1.427 . S
N2795 C2793 1.384 . S
H2796 C2802 0.930 . S
H2797 C2806 0.930 . S
H2798 C2811 0.929 . S
H2799 C2809 0.929 . S
H2800 C2804 0.929 . S
H2801 C2810 0.929 . S
C2802 H2796 0.930 . S
C2802 C2803 1.367 . S
C2802 C2810 1.378 . S
C2803 C2802 1.367 . S
C2803 C2811 1.433 . S
C2804 H2800 0.929 . S
C2804 C2806 1.378 . S
C2804 C2808 1.350 . S
C2805 C2808 1.463 . S
C2805 C2810 1.350 . S
C2805 N2813 1.427 . S
C2806 H2797 0.930 . S
C2806 C2804 1.378 . S
C2806 C2807 1.367 . S
C2807 C2806 1.367 . S
C2807 C2809 1.433 . S
C2808 C2804 1.350 . S
C2808 C2805 1.463 . S
C2808 N2812 1.427 . S
C2809 H2799 0.929 . S
C2809 C2807 1.433 . S
C2809 N2812 1.384 . S
C2810 H2801 0.929 . S
C2810 C2802 1.378 . S
C2810 C2805 1.350 . S
C2811 H2798 0.929 . S
C2811 C2803 1.433 . S
C2811 N2813 1.384 . S
N2812 C2808 1.427 . S
N2812 C2809 1.384 . S
N2813 C2805 1.427 . S
N2813 C2811 1.384 . S
H2814 C2820 0.930 . S
H2815 C2824 0.930 . S
H2816 C2829 0.929 . S
H2817 C2827 0.929 . S
H2818 C2822 0.929 . S
H2819 C2828 0.929 . S
C2820 H2814 0.930 . S
C2820 C2821 1.367 . S
C2820 C2828 1.378 . S
C2821 C2820 1.367 . S
C2821 C2829 1.433 . S
C2822 H2818 0.929 . S
C2822 C2824 1.378 . S
C2822 C2826 1.350 . S
C2823 C2826 1.463 . S
C2823 C2828 1.350 . S
C2823 N2831 1.427 . S
C2824 H2815 0.930 . S
C2824 C2822 1.378 . S
C2824 C2825 1.367 . S
C2825 C2824 1.367 . S
C2825 C2827 1.433 . S
C2826 C2822 1.350 . S
C2826 C2823 1.463 . S
C2826 N2830 1.427 . S
C2827 H2817 0.929 . S
C2827 C2825 1.433 . S
C2827 N2830 1.384 . S
C2828 H2819 0.929 . S
C2828 C2820 1.378 . S
C2828 C2823 1.350 . S
C2829 H2816 0.929 . S
C2829 C2821 1.433 . S
C2829 N2831 1.384 . S
N2830 C2826 1.427 . S
N2830 C2827 1.384 . S
N2831 C2823 1.427 . S
N2831 C2829 1.384 . S
H2832 C2838 0.930 . S
H2833 C2842 0.930 . S
H2834 C2847 0.929 . S
H2835 C2845 0.929 . S
H2836 C2840 0.929 . S
H2837 C2846 0.929 . S
C2838 H2832 0.930 . S
C2838 C2839 1.367 . S
C2838 C2846 1.378 . S
C2839 C2838 1.367 . S
C2839 C2847 1.433 . S
C2840 H2836 0.929 . S
C2840 C2842 1.378 . S
C2840 C2844 1.350 . S
C2841 C2844 1.463 . S
C2841 C2846 1.350 . S
C2841 N2849 1.427 . S
C2842 H2833 0.930 . S
C2842 C2840 1.378 . S
C2842 C2843 1.367 . S
C2843 C2842 1.367 . S
C2843 C2845 1.433 . S
C2844 C2840 1.350 . S
C2844 C2841 1.463 . S
C2844 N2848 1.427 . S
C2845 H2835 0.929 . S
C2845 C2843 1.433 . S
C2845 N2848 1.384 . S
C2846 H2837 0.929 . S
C2846 C2838 1.378 . S
C2846 C2841 1.350 . S
C2847 H2834 0.929 . S
C2847 C2839 1.433 . S
C2847 N2849 1.384 . S
N2848 C2844 1.427 . S
N2848 C2845 1.384 . S
N2849 C2841 1.427 . S
N2849 C2847 1.384 . S
H2850 C2856 0.930 . S
H2851 C2860 0.930 . S
H2852 C2865 0.929 . S
H2853 C2863 0.929 . S
H2854 C2858 0.929 . S
H2855 C2864 0.929 . S
C2856 H2850 0.930 . S
C2856 C2857 1.367 . S
C2856 C2864 1.378 . S
C2857 C2856 1.367 . S
C2857 C2865 1.433 . S
C2858 H2854 0.929 . S
C2858 C2860 1.378 . S
C2858 C2862 1.350 . S
C2859 C2862 1.463 . S
C2859 C2864 1.350 . S
C2859 N2867 1.427 . S
C2860 H2851 0.930 . S
C2860 C2858 1.378 . S
C2860 C2861 1.367 . S
C2861 C2860 1.367 . S
C2861 C2863 1.433 . S
C2862 C2858 1.350 . S
C2862 C2859 1.463 . S
C2862 N2866 1.427 . S
C2863 H2853 0.929 . S
C2863 C2861 1.433 . S
C2863 N2866 1.384 . S
C2864 H2855 0.929 . S
C2864 C2856 1.378 . S
C2864 C2859 1.350 . S
C2865 H2852 0.929 . S
C2865 C2857 1.433 . S
C2865 N2867 1.384 . S
N2866 C2862 1.427 . S
N2866 C2863 1.384 . S
N2867 C2859 1.427 . S
N2867 C2865 1.384 . S
H2868 C2874 0.930 . S
H2869 C2878 0.930 . S
H2870 C2883 0.929 . S
H2871 C2881 0.929 . S
H2872 C2876 0.929 . S
H2873 C2882 0.929 . S
C2874 H2868 0.930 . S
C2874 C2875 1.367 . S
C2874 C2882 1.378 . S
C2875 C2874 1.367 . S
C2875 C2883 1.433 . S
C2876 H2872 0.929 . S
C2876 C2878 1.378 . S
C2876 C2880 1.350 . S
C2877 C2880 1.463 . S
C2877 C2882 1.350 . S
C2877 N2885 1.427 . S
C2878 H2869 0.930 . S
C2878 C2876 1.378 . S
C2878 C2879 1.367 . S
C2879 C2878 1.367 . S
C2879 C2881 1.433 . S
C2880 C2876 1.350 . S
C2880 C2877 1.463 . S
C2880 N2884 1.427 . S
C2881 H2871 0.929 . S
C2881 C2879 1.433 . S
C2881 N2884 1.384 . S
C2882 H2873 0.929 . S
C2882 C2874 1.378 . S
C2882 C2877 1.350 . S
C2883 H2870 0.929 . S
C2883 C2875 1.433 . S
C2883 N2885 1.384 . S
N2884 C2880 1.427 . S
N2884 C2881 1.384 . S
N2885 C2877 1.427 . S
N2885 C2883 1.384 . S
H2886 C2892 0.930 . S
H2887 C2896 0.930 . S
H2888 C2901 0.929 . S
H2889 C2899 0.929 . S
H2890 C2894 0.929 . S
H2891 C2900 0.929 . S
C2892 H2886 0.930 . S
C2892 C2893 1.367 . S
C2892 C2900 1.378 . S
C2893 C2892 1.367 . S
C2893 C2901 1.433 . S
C2894 H2890 0.929 . S
C2894 C2896 1.378 . S
C2894 C2898 1.350 . S
C2895 C2898 1.463 . S
C2895 C2900 1.350 . S
C2895 N2903 1.427 . S
C2896 H2887 0.930 . S
C2896 C2894 1.378 . S
C2896 C2897 1.367 . S
C2897 C2896 1.367 . S
C2897 C2899 1.433 . S
C2898 C2894 1.350 . S
C2898 C2895 1.463 . S
C2898 N2902 1.427 . S
C2899 H2889 0.929 . S
C2899 C2897 1.433 . S
C2899 N2902 1.384 . S
C2900 H2891 0.929 . S
C2900 C2892 1.378 . S
C2900 C2895 1.350 . S
C2901 H2888 0.929 . S
C2901 C2893 1.433 . S
C2901 N2903 1.384 . S
N2902 C2898 1.427 . S
N2902 C2899 1.384 . S
N2903 C2895 1.427 . S
N2903 C2901 1.384 . S
H2904 C2910 0.930 . S
H2905 C2914 0.930 . S
H2906 C2919 0.929 . S
H2907 C2917 0.929 . S
H2908 C2912 0.929 . S
H2909 C2918 0.929 . S
C2910 H2904 0.930 . S
C2910 C2911 1.367 . S
C2910 C2918 1.378 . S
C2911 C2910 1.367 . S
C2911 C2919 1.433 . S
C2912 H2908 0.929 . S
C2912 C2914 1.378 . S
C2912 C2916 1.350 . S
C2913 C2916 1.463 . S
C2913 C2918 1.350 . S
C2913 N2921 1.427 . S
C2914 H2905 0.930 . S
C2914 C2912 1.378 . S
C2914 C2915 1.367 . S
C2915 C2914 1.367 . S
C2915 C2917 1.433 . S
C2916 C2912 1.350 . S
C2916 C2913 1.463 . S
C2916 N2920 1.427 . S
C2917 H2907 0.929 . S
C2917 C2915 1.433 . S
C2917 N2920 1.384 . S
C2918 H2909 0.929 . S
C2918 C2910 1.378 . S
C2918 C2913 1.350 . S
C2919 H2906 0.929 . S
C2919 C2911 1.433 . S
C2919 N2921 1.384 . S
N2920 C2916 1.427 . S
N2920 C2917 1.384 . S
N2921 C2913 1.427 . S
N2921 C2919 1.384 . S
H2922 C2928 0.930 . S
H2923 C2932 0.930 . S
H2924 C2937 0.929 . S
H2925 C2935 0.929 . S
H2926 C2930 0.929 . S
H2927 C2936 0.929 . S
C2928 H2922 0.930 . S
C2928 C2929 1.367 . S
C2928 C2936 1.378 . S
C2929 C2928 1.367 . S
C2929 C2937 1.433 . S
C2930 H2926 0.929 . S
C2930 C2932 1.378 . S
C2930 C2934 1.350 . S
C2931 C2934 1.463 . S
C2931 C2936 1.350 . S
C2931 N2939 1.427 . S
C2932 H2923 0.930 . S
C2932 C2930 1.378 . S
C2932 C2933 1.367 . S
C2933 C2932 1.367 . S
C2933 C2935 1.433 . S
C2934 C2930 1.350 . S
C2934 C2931 1.463 . S
C2934 N2938 1.427 . S
C2935 H2925 0.929 . S
C2935 C2933 1.433 . S
C2935 N2938 1.384 . S
C2936 H2927 0.929 . S
C2936 C2928 1.378 . S
C2936 C2931 1.350 . S
C2937 H2924 0.929 . S
C2937 C2929 1.433 . S
C2937 N2939 1.384 . S
N2938 C2934 1.427 . S
N2938 C2935 1.384 . S
N2939 C2931 1.427 . S
N2939 C2937 1.384 . S
H2940 C2946 0.930 . S
H2941 C2950 0.930 . S
H2942 C2955 0.929 . S
H2943 C2953 0.929 . S
H2944 C2948 0.929 . S
H2945 C2954 0.929 . S
C2946 H2940 0.930 . S
C2946 C2947 1.367 . S
C2946 C2954 1.378 . S
C2947 C2946 1.367 . S
C2947 C2955 1.433 . S
C2948 H2944 0.929 . S
C2948 C2950 1.378 . S
C2948 C2952 1.350 . S
C2949 C2952 1.463 . S
C2949 C2954 1.350 . S
C2949 N2957 1.427 . S
C2950 H2941 0.930 . S
C2950 C2948 1.378 . S
C2950 C2951 1.367 . S
C2951 C2950 1.367 . S
C2951 C2953 1.433 . S
C2952 C2948 1.350 . S
C2952 C2949 1.463 . S
C2952 N2956 1.427 . S
C2953 H2943 0.929 . S
C2953 C2951 1.433 . S
C2953 N2956 1.384 . S
C2954 H2945 0.929 . S
C2954 C2946 1.378 . S
C2954 C2949 1.350 . S
C2955 H2942 0.929 . S
C2955 C2947 1.433 . S
C2955 N2957 1.384 . S
N2956 C2952 1.427 . S
N2956 C2953 1.384 . S
N2957 C2949 1.427 . S
N2957 C2955 1.384 . S
H2958 C2964 0.930 . S
H2959 C2968 0.930 . S
H2960 C2973 0.929 . S
H2961 C2971 0.929 . S
H2962 C2966 0.929 . S
H2963 C2972 0.929 . S
C2964 H2958 0.930 . S
C2964 C2965 1.367 . S
C2964 C2972 1.378 . S
C2965 C2964 1.367 . S
C2965 C2973 1.433 . S
C2966 H2962 0.929 . S
C2966 C2968 1.378 . S
C2966 C2970 1.350 . S
C2967 C2970 1.463 . S
C2967 C2972 1.350 . S
C2967 N2975 1.427 . S
C2968 H2959 0.930 . S
C2968 C2966 1.378 . S
C2968 C2969 1.367 . S
C2969 C2968 1.367 . S
C2969 C2971 1.433 . S
C2970 C2966 1.350 . S
C2970 C2967 1.463 . S
C2970 N2974 1.427 . S
C2971 H2961 0.929 . S
C2971 C2969 1.433 . S
C2971 N2974 1.384 . S
C2972 H2963 0.929 . S
C2972 C2964 1.378 . S
C2972 C2967 1.350 . S
C2973 H2960 0.929 . S
C2973 C2965 1.433 . S
C2973 N2975 1.384 . S
N2974 C2970 1.427 . S
N2974 C2971 1.384 . S
N2975 C2967 1.427 . S
N2975 C2973 1.384 . S
C2119 C1369 1.476 . S
C2123 C29 1.470 . S
C2137 C117 1.476 . S
C2141 C1465 1.470 . S
C2155 C196 1.475 . S
C2159 C1553 1.471 . S
C2173 C284 1.473 . S
C2177 C1105 1.473 . S
C2191 C1193 1.475 . S
C2195 C401 1.471 . S
C2209 C469 1.475 . S
C2213 C1289 1.471 . S
C2227 C1868 1.475 . S
C2231 C585 1.471 . S
C2245 C665 1.474 . S
C2249 C1956 1.471 . S
C2263 C761 1.475 . S
C2267 C2044 1.470 . S
C2281 C1613 1.475 . S
C2285 C841 1.471 . S
C2299 C937 1.471 . S
C2303 C1701 1.475 . S
C2317 C1780 1.475 . S
C2321 C1017 1.470 . S
C2335 C20 0.996 . S
C2339 C2081 0.989 . S
C2353 C1633 0.988 . S
C2357 C108 0.996 . S
C2371 C205 0.997 . S
C2375 C1721 0.987 . S
C2389 C1817 0.989 . S
C2393 C293 0.995 . S
C2407 C409 0.996 . S
C2411 C1905 0.987 . S
C2425 C1993 0.988 . S
C2429 C460 0.996 . S
C2443 C577 0.987 . S
C2447 C1173 0.998 . S
C2461 C1252 0.997 . S
C2465 C673 0.986 . S
C2479 C1349 0.987 . S
C2483 C753 0.997 . S
C2497 C1428 0.997 . S
C2501 C849 0.984 . S
C2515 C929 0.995 . S
C2519 C1516 0.989 . S
C2533 C1025 0.986 . S
C2537 C1085 0.997 . S
C2551 C636 0.920 . S
C2555 C57 0.911 . S
C2569 C733 0.914 . S
C2573 C145 0.917 . S
C2587 C812 0.911 . S
C2591 C225 0.925 . S
C2605 C909 0.911 . S
C2609 C313 0.921 . S
C2623 C372 0.922 . S
C2627 C988 0.910 . S
C2641 C497 0.923 . S
C2645 C557 0.910 . S
C2659 C1076 0.908 . S
C2663 C1729 0.914 . S
C2677 C1164 0.916 . S
C2681 C1809 0.913 . S
C2695 C1897 0.913 . S
C2699 C1261 0.909 . S
C2713 C1985 0.908 . S
C2717 C1340 0.920 . S
C2731 C2073 0.919 . S
C2735 C1437 0.906 . S
C2749 C1641 0.915 . S
C2753 C1525 0.908 . S
C2767 C49 1.500 . S
C2771 C1692 1.501 . S
C2785 C1789 1.499 . S
C2789 C137 1.501 . S
C2803 C233 1.500 . S
C2807 C1877 1.502 . S
C2821 C1965 1.502 . S
C2825 C321 1.499 . S
C2839 C381 1.499 . S
C2843 C2053 1.502 . S
C2857 C1604 1.500 . S
C2861 C489 1.501 . S
C2875 C548 1.502 . S
C2879 C1545 1.497 . S
C2893 C1113 1.502 . S
C2897 C645 1.499 . S
C2911 C724 1.499 . S
C2915 C1201 1.502 . S
C2929 C821 1.499 . S
C2933 C1281 1.503 . S
C2947 C900 1.499 . S
C2951 C1377 1.501 . S
C2965 C997 1.500 . S
C2969 C1457 1.501 . S
