# Generated by pormake.
# Topology ukh, (4)-cn, num edge types: 1
# Building blocks:
#     Node 0, Type 0, BuildingBlock: KUFVIS_clean_sbu_0, # of connection points: 4
#     Node 1, Type 0, BuildingBlock: KUFVIS_clean_sbu_0, # of connection points: 4
#     Node 2, Type 0, BuildingBlock: KUFVIS_clean_sbu_0, # of connection points: 4
#     Node 3, Type 0, BuildingBlock: KUFVIS_clean_sbu_0, # of connection points: 4
#     Node 4, Type 0, BuildingBlock: KUFVIS_clean_sbu_0, # of connection points: 4
#     Node 5, Type 0, BuildingBlock: KUFVIS_clean_sbu_0, # of connection points: 4
#     Node 6, Type 0, BuildingBlock: KUFVIS_clean_sbu_0, # of connection points: 4
#     Node 7, Type 0, BuildingBlock: KUFVIS_clean_sbu_0, # of connection points: 4
#     Node 8, Type 0, BuildingBlock: KUFVIS_clean_sbu_0, # of connection points: 4
#     Node 9, Type 0, BuildingBlock: KUFVIS_clean_sbu_0, # of connection points: 4
#     Node 10, Type 0, BuildingBlock: KUFVIS_clean_sbu_0, # of connection points: 4
#     Node 11, Type 0, BuildingBlock: KUFVIS_clean_sbu_0, # of connection points: 4
#     Edge 12, Type (0, 0), BuildingBlock: XUDNAN_clean_linker_2, # of connection points: 2
#     Edge 13, Type (0, 0), BuildingBlock: XUDNAN_clean_linker_2, # of connection points: 2
#     Edge 14, Type (0, 0), BuildingBlock: XUDNAN_clean_linker_2, # of connection points: 2
#     Edge 15, Type (0, 0), BuildingBlock: XUDNAN_clean_linker_2, # of connection points: 2
#     Edge 16, Type (0, 0), BuildingBlock: XUDNAN_clean_linker_2, # of connection points: 2
#     Edge 17, Type (0, 0), BuildingBlock: XUDNAN_clean_linker_2, # of connection points: 2
#     Edge 18, Type (0, 0), BuildingBlock: XUDNAN_clean_linker_2, # of connection points: 2
#     Edge 19, Type (0, 0), BuildingBlock: XUDNAN_clean_linker_2, # of connection points: 2
#     Edge 20, Type (0, 0), BuildingBlock: XUDNAN_clean_linker_2, # of connection points: 2
#     Edge 21, Type (0, 0), BuildingBlock: XUDNAN_clean_linker_2, # of connection points: 2
#     Edge 22, Type (0, 0), BuildingBlock: XUDNAN_clean_linker_2, # of connection points: 2
#     Edge 23, Type (0, 0), BuildingBlock: XUDNAN_clean_linker_2, # of connection points: 2
#     Edge 24, Type (0, 0), BuildingBlock: XUDNAN_clean_linker_2, # of connection points: 2
#     Edge 25, Type (0, 0), BuildingBlock: XUDNAN_clean_linker_2, # of connection points: 2
#     Edge 26, Type (0, 0), BuildingBlock: XUDNAN_clean_linker_2, # of connection points: 2
#     Edge 27, Type (0, 0), BuildingBlock: XUDNAN_clean_linker_2, # of connection points: 2
#     Edge 28, Type (0, 0), BuildingBlock: XUDNAN_clean_linker_2, # of connection points: 2
#     Edge 29, Type (0, 0), BuildingBlock: XUDNAN_clean_linker_2, # of connection points: 2
#     Edge 30, Type (0, 0), BuildingBlock: XUDNAN_clean_linker_2, # of connection points: 2
#     Edge 31, Type (0, 0), BuildingBlock: XUDNAN_clean_linker_2, # of connection points: 2
#     Edge 32, Type (0, 0), BuildingBlock: XUDNAN_clean_linker_2, # of connection points: 2
#     Edge 33, Type (0, 0), BuildingBlock: XUDNAN_clean_linker_2, # of connection points: 2
#     Edge 34, Type (0, 0), BuildingBlock: XUDNAN_clean_linker_2, # of connection points: 2
#     Edge 35, Type (0, 0), BuildingBlock: XUDNAN_clean_linker_2, # of connection points: 2
# Relax obj value: 0.085
# Max RMSD: 0.125
# Mean RMSD: 0.125
data_MOF--net-ukh--node1-KUFVIS_clean_sbu_0--edge1-XUDNAN_clean_linker_2
_symmetry_space_group_name_H-M    P1
_symmetry_Int_Tables_number       1
_symmetry_cell_setting            triclinic
loop_
_symmetry_equiv_pos_as_xyz
'x, y, z'
_cell_length_a     32.451287
_cell_length_b     32.429097
_cell_length_c     60.947637
_cell_angle_alpha  89.986878
_cell_angle_beta   89.945326
_cell_angle_gamma 120.09674
loop_
_atom_site_label
_atom_site_type_symbol
_atom_site_fract_x
_atom_site_fract_y
_atom_site_fract_z
_atom_type_partial_charge
Mn0 Mn 0.30601 0.2362 0.0611 0.0
Mn1 Mn 0.26665 0.29083 0.09511 0.0
C2 C 0.24942 0.25465 0.0493 0.0
C3 C 0.29641 0.16374 0.04758 0.0
C4 C 0.35662 0.34503 0.06855 0.0
O5 O 0.32981 0.22774 0.09068 0.0
O6 O 0.30743 0.27113 0.1108 0.0
C7 C 0.20445 0.20258 0.12012 0.0
N8 N 0.2098 0.23997 0.10775 0.0
C9 C 0.12559 0.21133 0.10903 0.0
C10 C 0.11922 0.1726 0.12181 0.0
C11 C 0.15883 0.16815 0.12732 0.0
C12 C 0.17178 0.24396 0.10193 0.0
H13 H 0.23468 0.19889 0.12443 0.0
C14 C 0.32866 0.24722 0.10862 0.0
O15 O 0.33681 0.20332 0.04543 0.0
O16 O 0.26336 0.16639 0.05817 0.0
N17 N 0.22635 0.31238 0.08321 0.0
C18 C 0.23997 0.35608 0.07453 0.0
C19 C 0.20554 0.36912 0.07034 0.0
C20 C 0.15743 0.33712 0.07507 0.0
C21 C 0.14449 0.29318 0.08486 0.0
C22 C 0.18067 0.28285 0.08934 0.0
H23 H 0.27702 0.38126 0.07134 0.0
O24 O 0.27446 0.24625 0.03537 0.0
O25 O 0.25691 0.25009 0.06988 0.0
O26 O 0.35716 0.30837 0.06083 0.0
O27 O 0.3239 0.34297 0.08107 0.0
C28 C 0.0976 0.26054 0.09154 0.0
C29 C 0.08806 0.21931 0.1034 0.0
H30 H 0.08415 0.14626 0.12761 0.0
H31 H 0.15424 0.13836 0.13718 0.0
H32 H 0.21617 0.404 0.0637 0.0
H33 H 0.13098 0.34739 0.07187 0.0
H34 H 0.0688 0.26733 0.08807 0.0
H35 H 0.05196 0.1947 0.10866 0.0
Mn36 Mn 0.10111 0.33337 0.37847 0.0
Mn37 Mn 0.99753 0.31269 0.40147 0.0
C38 C 0.03081 0.29104 0.35895 0.0
C39 C 0.15897 0.31169 0.37154 0.0
C40 C 0.06758 0.40644 0.38086 0.0
O41 O 0.11848 0.3454 0.41061 0.0
O42 O 0.04854 0.33304 0.42393 0.0
C43 C 0.9761 0.22998 0.4297 0.0
N44 N 0.96251 0.25052 0.41397 0.0
C45 C 0.87997 0.19101 0.41849 0.0
C46 C 0.89304 0.16889 0.43464 0.0
C47 C 0.94138 0.18811 0.44005 0.0
C48 C 0.91634 0.2314 0.40812 0.0
H49 H 0.01297 0.24599 0.43457 0.0
C50 C 0.09208 0.34417 0.42634 0.0
O51 O 0.169 0.35574 0.37019 0.0
O52 O 0.1161 0.28079 0.37765 0.0
N53 N 0.94401 0.29284 0.38256 0.0
C54 C 0.93822 0.31667 0.36555 0.0
C55 C 0.89238 0.30031 0.35703 0.0
C56 C 0.85289 0.26088 0.36669 0.0
C57 C 0.85979 0.23736 0.3844 0.0
C58 C 0.9065 0.25392 0.39145 0.0
H59 H 0.96827 0.34829 0.35882 0.0
O60 O 0.07198 0.31436 0.34935 0.0
O61 O 0.0312 0.29312 0.38042 0.0
O62 O 0.0999 0.39649 0.37604 0.0
O63 O 0.02819 0.37723 0.38972 0.0
C64 C 0.82224 0.19833 0.39544 0.0
C65 C 0.83235 0.17505 0.41245 0.0
H66 H 0.86627 0.13727 0.44303 0.0
H67 H 0.95169 0.17141 0.45258 0.0
H68 H 0.88731 0.31882 0.34345 0.0
H69 H 0.81747 0.24907 0.36042 0.0
H70 H 0.78561 0.18515 0.39061 0.0
H71 H 0.80332 0.1444 0.42045 0.0
Mn72 Mn 0.74544 0.05767 0.71385 0.0
Mn73 Mn 0.71378 0.96708 0.74963 0.0
C74 C 0.72096 0.98265 0.70076 0.0
C75 C 0.80962 0.12045 0.69523 0.0
C76 C 0.64581 1.00048 0.735 0.0
O77 O 0.76842 0.09176 0.74291 0.0
O78 O 0.74671 0.02923 0.76519 0.0
C79 C 0.81274 0.99089 0.75921 0.0
N80 N 0.76804 0.95898 0.75215 0.0
C81 C 0.79034 0.89957 0.7457 0.0
C82 C 0.83655 0.93173 0.75297 0.0
C83 C 0.84783 0.97766 0.75967 0.0
C84 C 0.75713 0.91511 0.74517 0.0
H85 H 0.82162 0.02623 0.7644 0.0
C86 C 0.76564 0.07399 0.7618 0.0
O87 O 0.7702 0.12109 0.69827 0.0
O88 O 0.8116 0.08481 0.70336 0.0
N89 N 0.68163 0.90364 0.73807 0.0
C90 C 0.634 0.87482 0.73463 0.0
C91 C 0.61609 0.82684 0.72892 0.0
C92 C 0.64712 0.80859 0.7274 0.0
C93 C 0.69549 0.83809 0.73233 0.0
C94 C 0.7112 0.88554 0.73805 0.0
H95 H 0.6099 0.88846 0.73596 0.0
O96 O 0.72284 0.01518 0.6878 0.0
O97 O 0.73614 0.99572 0.72072 0.0
O98 O 0.67514 0.03503 0.72256 0.0
O99 O 0.6572 0.974 0.74609 0.0
C100 C 0.72831 0.82172 0.73265 0.0
C101 C 0.77577 0.85252 0.73924 0.0
H102 H 0.86357 0.92148 0.75357 0.0
H103 H 0.88343 0.00272 0.76528 0.0
H104 H 0.57849 0.80405 0.72565 0.0
H105 H 0.63324 0.77161 0.72293 0.0
H106 H 0.71729 0.78534 0.72811 0.0
H107 H 0.80065 0.83948 0.7395 0.0
Mn108 Mn 0.68653 0.77762 0.0413 0.0
Mn109 Mn 0.72273 0.72055 0.07599 0.0
C110 C 0.73188 0.7462 0.02813 0.0
C111 C 0.70307 0.85194 0.0268 0.0
C112 C 0.62311 0.67361 0.05651 0.0
O113 O 0.67295 0.79516 0.07137 0.0
O114 O 0.70258 0.75986 0.09273 0.0
C115 C 0.80902 0.80744 0.09144 0.0
N116 N 0.7885 0.76337 0.08212 0.0
C117 C 0.8644 0.76761 0.07873 0.0
C118 C 0.88634 0.81297 0.08835 0.0
C119 C 0.85854 0.83306 0.09464 0.0
C120 C 0.81507 0.74425 0.0755 0.0
H121 H 0.78775 0.82294 0.09636 0.0
C122 C 0.6831 0.78535 0.09012 0.0
O123 O 0.65997 0.81549 0.02665 0.0
O124 O 0.73541 0.84503 0.03549 0.0
N125 N 0.74371 0.68044 0.06305 0.0
C126 C 0.71649 0.63436 0.05629 0.0
C127 C 0.73849 0.60809 0.05043 0.0
C128 C 0.78815 0.62898 0.05211 0.0
C129 C 0.81523 0.67566 0.06006 0.0
C130 C 0.79126 0.69996 0.0658 0.0
H131 H 0.67828 0.6178 0.05525 0.0
O132 O 0.7084 0.75775 0.01468 0.0
O133 O 0.72967 0.75522 0.04872 0.0
O134 O 0.62875 0.70919 0.04485 0.0
O135 O 0.65543 0.67496 0.06908 0.0
C136 C 0.86489 0.69849 0.06311 0.0
C137 C 0.88947 0.74447 0.0724 0.0
H138 H 0.92447 0.83263 0.09105 0.0
H139 H 0.87521 0.86809 0.10204 0.0
H140 H 0.7172 0.57179 0.04467 0.0
H141 H 0.80503 0.60867 0.04753 0.0
H142 H 0.88446 0.68079 0.05859 0.0
H143 H 0.92763 0.7616 0.07475 0.0
Mn144 Mn 0.93181 0.7052 0.39196 0.0
Mn145 Mn 0.02486 0.74338 0.42664 0.0
C146 C 0.00693 0.76267 0.38109 0.0
C147 C 0.87011 0.71377 0.37694 0.0
C148 C 0.9886 0.65359 0.39977 0.0
O149 O 0.89853 0.68057 0.4215 0.0
O150 O 0.96382 0.70434 0.44238 0.0
C151 C 0.00259 0.80813 0.45167 0.0
N152 N 0.03346 0.80127 0.43916 0.0
C153 C 0.09141 0.88501 0.43994 0.0
C154 C 0.06032 0.89292 0.45291 0.0
C155 C 0.01569 0.8543 0.45877 0.0
C156 C 0.07625 0.83826 0.43323 0.0
H157 H 0.96814 0.77866 0.45614 0.0
C158 C 0.91866 0.68286 0.43981 0.0
O159 O 0.8697 0.67355 0.37544 0.0
O160 O 0.90404 0.74704 0.38838 0.0
N161 N 0.08669 0.78205 0.41412 0.0
C162 C 0.11401 0.76769 0.40323 0.0
C163 C 0.16082 0.80156 0.39731 0.0
C164 C 0.17901 0.8498 0.40258 0.0
C165 C 0.15068 0.86352 0.4143 0.0
C166 C 0.10474 0.82797 0.42028 0.0
H167 H 0.10032 0.73061 0.39926 0.0
O168 O 0.97459 0.73795 0.36666 0.0
O169 O 0.99404 0.75398 0.40154 0.0
O170 O 0.95295 0.65475 0.39136 0.0
O171 O 0.01793 0.6849 0.4132 0.0
C172 C 0.16664 0.91087 0.42078 0.0
C173 C 0.13689 0.92166 0.43347 0.0
H174 H 0.07036 0.92847 0.45846 0.0
H175 H 0.99144 0.86012 0.46872 0.0
H176 H 0.1829 0.79048 0.38878 0.0
H177 H 0.2151 0.87588 0.39793 0.0
H178 H 0.20187 0.93919 0.41623 0.0
H179 H 0.14957 0.95818 0.43839 0.0
Mn180 Mn 0.21636 0.91603 0.72159 0.0
Mn181 Mn 0.29802 0.02232 0.74261 0.0
C182 C 0.24576 0.98423 0.7002 0.0
C183 C 0.13808 0.85602 0.71324 0.0
C184 C 0.3237 0.95184 0.72536 0.0
O185 O 0.20733 0.90243 0.75417 0.0
O186 O 0.26827 0.97226 0.76577 0.0
C187 C 0.23412 0.0421 0.76977 0.0
N188 N 0.26888 0.05611 0.75428 0.0
C189 C 0.28963 0.13818 0.75792 0.0
C190 C 0.25382 0.12466 0.77381 0.0
C191 C 0.22551 0.07631 0.77954 0.0
C192 C 0.29508 0.10223 0.74809 0.0
H193 H 0.21382 0.00531 0.7749 0.0
C194 C 0.23411 0.92977 0.76931 0.0
O195 O 0.17279 0.84708 0.71435 0.0
O196 O 0.14843 0.89921 0.71785 0.0
N197 N 0.33081 0.07536 0.72327 0.0
C198 C 0.36123 0.08158 0.70653 0.0
C199 C 0.39037 0.12746 0.69789 0.0
C200 C 0.38923 0.16661 0.70712 0.0
C201 C 0.35788 0.15928 0.7245 0.0
C202 C 0.32818 0.11249 0.73171 0.0
H203 H 0.36361 0.05182 0.70009 0.0
O204 O 0.22992 0.94231 0.69164 0.0
O205 O 0.24536 0.98605 0.72165 0.0
O206 O 0.28107 0.9177 0.72267 0.0
O207 O 0.3338 0.99326 0.73143 0.0
C208 C 0.35489 0.19648 0.73499 0.0
C209 C 0.32058 0.1859 0.75162 0.0
H210 H 0.24786 0.15108 0.78178 0.0
H211 H 0.198 0.06564 0.79188 0.0
H212 H 0.41458 0.13284 0.68453 0.0
H213 H 0.41252 0.20208 0.70075 0.0
H214 H 0.37785 0.23316 0.72999 0.0
H215 H 0.3178 0.21462 0.7592 0.0
Mn216 Mn 0.74923 0.6598 0.6274 0.0
Mn217 Mn 0.69188 0.69285 0.59146 0.0
C218 C 0.71706 0.705 0.6392 0.0
C219 C 0.8229 0.67885 0.6432 0.0
C220 C 0.64545 0.59509 0.61294 0.0
O221 O 0.76754 0.64474 0.59764 0.0
O222 O 0.73246 0.6733 0.57543 0.0
C223 C 0.77765 0.77948 0.57523 0.0
N224 N 0.73371 0.75862 0.58472 0.0
C225 C 0.73742 0.8343 0.5883 0.0
C226 C 0.78261 0.85657 0.57849 0.0
C227 C 0.80287 0.82904 0.57199 0.0
C228 C 0.7143 0.7849 0.5914 0.0
H229 H 0.79341 0.75849 0.57025 0.0
C230 C 0.75852 0.6546 0.5786 0.0
O231 O 0.78717 0.63532 0.64353 0.0
O232 O 0.81616 0.70986 0.63299 0.0
N233 N 0.65105 0.71327 0.60406 0.0
C234 C 0.60545 0.6858 0.61139 0.0
C235 C 0.57927 0.70761 0.61774 0.0
C236 C 0.59983 0.75728 0.61603 0.0
C237 C 0.64602 0.78458 0.60754 0.0
C238 C 0.6702 0.76079 0.60129 0.0
H239 H 0.58914 0.64753 0.61244 0.0
O240 O 0.72878 0.68274 0.65327 0.0
O241 O 0.72661 0.70194 0.61879 0.0
O242 O 0.6809 0.60177 0.62489 0.0
O243 O 0.64711 0.62562 0.59906 0.0
C244 C 0.66861 0.83431 0.6046 0.0
C245 C 0.71431 0.85916 0.59502 0.0
H246 H 0.80206 0.89476 0.57585 0.0
H247 H 0.83779 0.84598 0.56447 0.0
H248 H 0.54334 0.68617 0.62393 0.0
H249 H 0.57963 0.77401 0.62103 0.0
H250 H 0.65099 0.85373 0.60948 0.0
H251 H 0.73128 0.89738 0.59278 0.0
Mn252 Mn 0.08887 0.77453 0.96216 0.0
Mn253 Mn 0.99657 0.72344 0.92673 0.0
C254 C 0.01158 0.7391 0.97533 0.0
C255 C 0.14506 0.84638 0.97908 0.0
C256 C 0.0526 0.67625 0.94135 0.0
O257 O 0.12004 0.79902 0.93232 0.0
O258 O 0.05508 0.7698 0.91088 0.0
C259 C 0.99038 0.80986 0.91776 0.0
N260 N 0.96942 0.76368 0.92456 0.0
C261 C 0.89484 0.76083 0.93086 0.0
C262 C 0.91552 0.80828 0.92379 0.0
C263 C 0.96357 0.83296 0.91733 0.0
C264 C 0.92356 0.73997 0.93129 0.0
H265 H 0.0273 0.82891 0.91277 0.0
C266 C 0.10011 0.79476 0.91378 0.0
O267 O 0.15309 0.81104 0.97711 0.0
O268 O 0.10538 0.83987 0.97112 0.0
N269 N 0.93677 0.6773 0.93914 0.0
C270 C 0.92149 0.63088 0.94422 0.0
C271 C 0.87374 0.60064 0.95027 0.0
C272 C 0.84194 0.61812 0.95058 0.0
C273 C 0.85809 0.66558 0.94461 0.0
C274 C 0.90598 0.69392 0.93857 0.0
H275 H 0.94548 0.61692 0.94362 0.0
O276 O 0.04646 0.7484 0.98855 0.0
O277 O 0.02339 0.75212 0.95511 0.0
O278 O 0.08022 0.70795 0.95521 0.0
O279 O 0.02244 0.68003 0.92925 0.0
C280 C 0.82845 0.68576 0.94425 0.0
C281 C 0.84689 0.73344 0.9375 0.0
H282 H 0.89488 0.82613 0.92331 0.0
H283 H 0.97985 0.86965 0.91195 0.0
H284 H 0.86144 0.56391 0.95461 0.0
H285 H 0.8052 0.59477 0.95535 0.0
H286 H 0.79142 0.66492 0.94912 0.0
H287 H 0.82381 0.74862 0.93737 0.0
Mn288 Mn 0.33637 0.09276 0.29487 0.0
Mn289 Mn 0.30433 0.00489 0.25797 0.0
C290 C 0.28305 0.01433 0.30532 0.0
C291 C 0.32101 0.14984 0.31066 0.0
C292 C 0.39917 0.05141 0.28189 0.0
O293 O 0.35652 0.12896 0.2659 0.0
O294 O 0.32882 0.06681 0.24285 0.0
C295 C 0.22325 0.00909 0.23818 0.0
N296 N 0.24093 0.98371 0.24822 0.0
C297 C 0.16637 0.91067 0.24428 0.0
C298 C 0.14728 0.93594 0.23388 0.0
C299 C 0.17577 0.98545 0.23097 0.0
C300 C 0.21347 0.9364 0.2517 0.0
H301 H 0.24528 0.04703 0.23562 0.0
C302 C 0.34871 0.11149 0.24661 0.0
O303 O 0.36308 0.15429 0.3119 0.0
O304 O 0.28915 0.11359 0.29984 0.0
N305 N 0.27964 0.94204 0.26944 0.0
C306 C 0.30417 0.92272 0.2789 0.0
C307 C 0.28151 0.87324 0.28215 0.0
C308 C 0.23436 0.84402 0.2751 0.0
C309 C 0.21007 0.8646 0.26506 0.0
C310 C 0.23432 0.91414 0.26245 0.0
H311 H 0.34094 0.94475 0.28369 0.0
O312 O 0.30872 0.04702 0.31952 0.0
O313 O 0.29045 0.02871 0.28499 0.0
O314 O 0.39239 0.07998 0.29374 0.0
O315 O 0.36943 0.02371 0.26758 0.0
C316 C 0.16292 0.83778 0.25729 0.0
C317 C 0.14082 0.86087 0.24724 0.0
H318 H 0.11091 0.91768 0.22796 0.0
H319 H 0.16134 0.00522 0.22293 0.0
H320 H 0.30057 0.85759 0.28977 0.0
H321 H 0.21714 0.80581 0.27745 0.0
H322 H 0.1432 0.79938 0.25913 0.0
H323 H 0.10443 0.83992 0.24153 0.0
Mn324 Mn 0.19858 0.29534 0.61701 0.0
Mn325 Mn 0.26493 0.26989 0.58264 0.0
C326 C 0.21364 0.23522 0.62658 0.0
C327 C 0.12327 0.28277 0.62728 0.0
C328 C 0.30654 0.35678 0.61231 0.0
O329 O 0.19785 0.32695 0.58839 0.0
O330 O 0.23423 0.29989 0.56595 0.0
C331 C 0.19105 0.19713 0.55373 0.0
N332 N 0.22874 0.21093 0.56749 0.0
C333 C 0.23137 0.13935 0.56024 0.0
C334 C 0.19264 0.1244 0.54591 0.0
C335 C 0.17233 0.15337 0.5427 0.0
C336 C 0.24889 0.18359 0.57055 0.0
H337 H 0.17558 0.21949 0.55115 0.0
C338 C 0.21142 0.32204 0.56941 0.0
O339 O 0.16203 0.32183 0.63249 0.0
O340 O 0.12841 0.25234 0.61556 0.0
N341 N 0.29657 0.24042 0.59636 0.0
C342 C 0.32907 0.257 0.61294 0.0
C343 C 0.3504 0.23052 0.61947 0.0
C344 C 0.33846 0.18759 0.60876 0.0
C345 C 0.30491 0.17127 0.59173 0.0
C346 C 0.28488 0.19922 0.58591 0.0
H347 H 0.33845 0.29005 0.62117 0.0
O348 O 0.20134 0.2562 0.64116 0.0
O349 O 0.21679 0.24997 0.60634 0.0
O350 O 0.26868 0.34746 0.6228 0.0
O351 O 0.30744 0.3311 0.59675 0.0
C352 C 0.28902 0.12741 0.58096 0.0
C353 C 0.2523 0.11147 0.56521 0.0
H354 H 0.1778 0.09046 0.53752 0.0
H355 H 0.14234 0.14198 0.53173 0.0
H356 H 0.37599 0.24315 0.63274 0.0
H357 H 0.35465 0.16704 0.61399 0.0
H358 H 0.30389 0.10504 0.58509 0.0
H359 H 0.2396 0.07716 0.55744 0.0
Mn360 Mn 0.93247 0.2434 0.94626 0.0
Mn361 Mn 0.02626 0.28503 0.91205 0.0
C362 C 0.00769 0.26549 0.95984 0.0
C363 C 0.87025 0.17354 0.96251 0.0
C364 C 0.98622 0.34631 0.9287 0.0
O365 O 0.90066 0.22497 0.91631 0.0
O366 O 0.96618 0.2529 0.89517 0.0
C367 C 0.00956 0.19026 0.89843 0.0
N368 N 0.0387 0.23407 0.90725 0.0
C369 C 0.10156 0.21615 0.9123 0.0
C370 C 0.07234 0.17091 0.90318 0.0
C371 C 0.02604 0.15784 0.89631 0.0
C372 C 0.08279 0.24652 0.91443 0.0
H373 H 0.974 0.18014 0.89309 0.0
C374 C 0.92111 0.23231 0.89772 0.0
O375 O 0.86783 0.21241 0.96159 0.0
O376 O 0.90723 0.17553 0.95367 0.0
N377 N 0.08764 0.31753 0.92548 0.0
C378 C 0.11245 0.36386 0.9321 0.0
C379 C 0.16072 0.38411 0.93767 0.0
C380 C 0.18306 0.35668 0.93615 0.0
C381 C 0.15682 0.30907 0.92936 0.0
C382 C 0.10913 0.29116 0.92357 0.0
H383 H 0.09582 0.38552 0.93267 0.0
O384 O 0.97432 0.2621 0.97271 0.0
O385 O 0.99538 0.25517 0.93947 0.0
O386 O 0.95246 0.31466 0.94072 0.0
O387 O 0.01487 0.33828 0.91746 0.0
C388 C 0.1766 0.27924 0.92736 0.0
C389 C 0.14877 0.23256 0.9191 0.0
H390 H 0.08514 0.14602 0.90129 0.0
H391 H 0.00323 0.12296 0.8893 0.0
H392 H 0.18082 0.42093 0.94287 0.0
H393 H 0.22048 0.37261 0.94019 0.0
H394 H 0.21328 0.29198 0.93196 0.0
H395 H 0.16434 0.20994 0.91762 0.0
Mn396 Mn 0.71565 0.9278 0.28004 0.0
Mn397 Mn 0.74286 0.02598 0.24958 0.0
C398 C 0.77487 1.00182 0.29167 0.0
C399 C 0.7273 0.86472 0.29023 0.0
C400 C 0.65483 0.97582 0.27793 0.0
O401 O 0.68814 0.89971 0.24999 0.0
O402 O 0.70992 0.96784 0.23128 0.0
C403 C 0.81314 0.02552 0.21875 0.0
N404 N 0.80117 0.04864 0.23386 0.0
C405 C 0.87487 0.12197 0.22813 0.0
C406 C 0.88795 0.09901 0.21242 0.0
C407 C 0.85702 0.05054 0.20778 0.0
C408 C 0.83053 0.09533 0.23839 0.0
H409 H 0.78929 0.98835 0.21508 0.0
C410 C 0.69014 0.92239 0.23248 0.0
O411 O 0.68723 0.86328 0.29402 0.0
O412 O 0.7592 0.90115 0.27931 0.0
N413 N 0.77495 0.08506 0.26511 0.0
C414 C 0.75973 0.09976 0.2827 0.0
C415 C 0.78815 0.14638 0.29064 0.0
C416 C 0.83151 0.17751 0.28023 0.0
C417 C 0.84632 0.16157 0.2621 0.0
C418 C 0.81656 0.1147 0.25496 0.0
H419 H 0.72632 0.07595 0.29067 0.0
O420 O 0.75217 0.96729 0.30556 0.0
O421 O 0.76141 0.99273 0.27123 0.0
O422 O 0.66204 0.94339 0.28565 0.0
O423 O 0.68273 0.00758 0.2645 0.0
C424 C 0.89037 0.1896 0.25144 0.0
C425 C 0.90463 0.16981 0.23447 0.0
H426 H 0.92191 0.11807 0.20403 0.0
H427 H 0.86697 0.03255 0.19574 0.0
H428 H 0.77669 0.1583 0.30475 0.0
H429 H 0.85355 0.21328 0.28654 0.0
H430 H 0.91415 0.22598 0.2566 0.0
H431 H 0.93908 0.19136 0.22678 0.0
H432 H 0.60316 0.58833 0.075 0.0
H433 H 0.54046 0.65259 0.03436 0.0
H434 H 0.46691 0.57394 0.03123 0.0
H435 H 0.55406 0.47746 0.04502 0.0
H436 H 0.54549 0.44242 0.06934 0.0
H437 H 0.59288 0.50363 0.06828 0.0
H438 H 0.56037 0.52204 0.10354 0.0
H439 H 0.51308 0.46091 0.10478 0.0
H440 H 0.4992 0.50822 0.10441 0.0
H441 H 0.399 0.4885 0.03396 0.0
H442 H 0.34233 0.40374 0.04238 0.0
H443 H 0.45138 0.39507 0.07958 0.0
C444 C 0.57421 0.58622 0.06533 0.0
C445 C 0.57789 0.62705 0.05489 0.0
C446 C 0.53871 0.62209 0.04252 0.0
C447 C 0.49683 0.57748 0.04059 0.0
C448 C 0.49486 0.53806 0.05092 0.0
C449 C 0.53264 0.54208 0.06299 0.0
C450 C 0.52172 0.4945 0.0726 0.0
C451 C 0.55555 0.47857 0.06325 0.0
C452 C 0.52369 0.49656 0.09782 0.0
C453 C 0.47133 0.46295 0.06444 0.0
C454 C 0.45653 0.48877 0.05191 0.0
C455 C 0.41048 0.46793 0.04349 0.0
C456 C 0.37862 0.41985 0.04831 0.0
C457 C 0.39299 0.39301 0.06124 0.0
C458 C 0.44007 0.41463 0.06917 0.0
H459 H 0.09519 0.48017 0.40886 0.0
H460 H 0.04463 0.43292 0.34289 0.0
H461 H 0.02216 0.49516 0.33958 0.0
H462 H 0.00533 0.49576 0.42516 0.0
H463 H 0.03893 0.54857 0.44154 0.0
H464 H 0.06103 0.50823 0.43735 0.0
H465 H 0.14009 0.57625 0.42147 0.0
H466 H 0.11907 0.61742 0.42634 0.0
H467 H 0.13852 0.61224 0.39929 0.0
H468 H 0.99054 0.55091 0.34646 0.0
H469 H 0.96491 0.6061 0.36048 0.0
H470 H 0.03813 0.61857 0.42179 0.0
C471 C 0.08228 0.48514 0.39326 0.0
C472 C 0.07329 0.45321 0.37579 0.0
C473 C 0.05355 0.45847 0.35605 0.0
C474 C 0.04009 0.49327 0.35418 0.0
C475 C 0.04703 0.52265 0.37217 0.0
C476 C 0.06899 0.51991 0.39113 0.0
C477 C 0.06861 0.55269 0.40875 0.0
C478 C 0.04188 0.52461 0.42941 0.0
C479 C 0.11961 0.59199 0.41428 0.0
C480 C 0.04145 0.57289 0.39708 0.0
C481 C 0.0292 0.5551 0.37603 0.0
C482 C 1.0009 0.5659 0.36274 0.0
C483 C 0.98597 0.59678 0.37095 0.0
C484 C 0.99958 0.61673 0.39221 0.0
C485 C 0.0275 0.60426 0.4054 0.0
H486 H 0.41024 0.01165 0.70724 0.0
H487 H 0.32986 0.87595 0.74065 0.0
H488 H 0.40419 0.87331 0.74594 0.0
H489 H 0.49719 0.98376 0.67983 0.0
H490 H 0.54516 0.04433 0.68284 0.0
H491 H 0.48491 0.03216 0.67943 0.0
H492 H 0.49295 0.07857 0.71522 0.0
H493 H 0.55269 0.08985 0.71911 0.0
H494 H 0.50877 0.06064 0.74036 0.0
H495 H 0.48776 0.89298 0.7534 0.0
H496 H 0.57351 0.92385 0.75618 0.0
H497 H 0.60071 0.04447 0.71498 0.0
C498 C 0.40811 0.9806 0.71499 0.0
C499 C 0.36438 0.94374 0.72343 0.0
C500 C 0.36287 0.90399 0.73375 0.0
C501 C 0.40496 0.90253 0.737 0.0
C502 C 0.44785 0.9406 0.72939 0.0
C503 C 0.44956 0.97819 0.71798 0.0
C504 C 0.50042 0.01524 0.71208 0.0
C505 C 0.50732 0.01908 0.68706 0.0
C506 C 0.51451 0.06394 0.72231 0.0
C507 C 0.52733 0.99342 0.72261 0.0
C508 C 0.49619 0.95062 0.73266 0.0
C509 C 0.51237 0.9256 0.74499 0.0
C510 C 0.5615 0.94375 0.74648 0.0
C511 C 0.59441 0.98618 0.73529 0.0
C512 C 0.57679 0.01163 0.72344 0.0
H513 H 0.57184 0.55218 0.58393 0.0
H514 H 0.60984 0.54547 0.65148 0.0
H515 H 0.52521 0.48765 0.65984 0.0
H516 H 0.46358 0.54839 0.59449 0.0
H517 H 0.4327 0.51155 0.5712 0.0
H518 H 0.49636 0.5501 0.57028 0.0
H519 H 0.50793 0.47835 0.56141 0.0
H520 H 0.44428 0.43984 0.56159 0.0
H521 H 0.48108 0.42665 0.57899 0.0
H522 H 0.43364 0.43376 0.66096 0.0
H523 H 0.34769 0.37943 0.65315 0.0
H524 H 0.37227 0.42217 0.5849 0.0
C525 C 0.56261 0.53784 0.6004 0.0
C526 C 0.59757 0.55316 0.61702 0.0
C527 C 0.58385 0.53369 0.63839 0.0
C528 C 0.53572 0.50131 0.64334 0.0
C529 C 0.50188 0.48849 0.62671 0.0
C530 C 0.51508 0.50544 0.60555 0.0
C531 C 0.47245 0.48604 0.59045 0.0
C532 C 0.46591 0.52644 0.58106 0.0
C533 C 0.47668 0.45592 0.57203 0.0
C534 C 0.43295 0.45552 0.60635 0.0
C535 C 0.45026 0.45769 0.62729 0.0
C536 C 0.41986 0.43188 0.6446 0.0
C537 C 0.37101 0.40167 0.64014 0.0
C538 C 0.3534 0.39734 0.61853 0.0
C539 C 0.38474 0.42547 0.60164 0.0
H540 H 0.97195 0.40084 0.96018 0.0
H541 H 0.02129 0.40444 0.89355 0.0
H542 H 0.04834 0.48974 0.89113 0.0
H543 H 0.93025 0.48644 0.95027 0.0
H544 H 0.94898 0.51408 0.97682 0.0
H545 H 0.93164 0.4523 0.97333 0.0
H546 H 0.01298 0.47003 0.98913 0.0
H547 H 0.03091 0.53206 0.99224 0.0
H548 H 0.06719 0.51525 0.97646 0.0
H549 H 0.07272 0.57424 0.89552 0.0
H550 H 0.08482 0.6534 0.90541 0.0
H551 H 0.02075 0.59904 0.96904 0.0
C552 C 0.98757 0.41948 0.94498 0.0
C553 C 0.99463 0.39575 0.92708 0.0
C554 C 0.01578 0.42169 0.90756 0.0
C555 C 0.03146 0.47032 0.906 0.0
C556 C 0.02574 0.49306 0.92407 0.0
C557 C 0.00363 0.46867 0.94309 0.0
C558 C 1.00193 0.50257 0.95988 0.0
C559 C 0.95012 0.48797 0.9654 0.0
C560 C 0.02992 0.50511 0.98066 0.0
C561 C 0.02663 0.54946 0.94726 0.0
C562 C 0.04026 0.54286 0.92669 0.0
C563 C 0.06252 0.58003 0.91163 0.0
C564 C 0.06969 0.62493 0.91743 0.0
C565 C 0.05508 0.6325 0.93815 0.0
C566 C 0.03381 0.59446 0.9534 0.0
H567 H 0.44599 0.0271 0.25213 0.0
H568 H 0.44577 0.06147 0.32085 0.0
H569 H 0.5075 0.03954 0.32828 0.0
H570 H 0.46044 0.92684 0.25914 0.0
H571 H 0.4998 0.94033 0.23599 0.0
H572 H 0.45646 0.95953 0.23609 0.0
H573 H 0.52305 0.04713 0.22984 0.0
H574 H 0.56639 0.02802 0.22914 0.0
H575 H 0.57342 0.07368 0.24814 0.0
H576 H 0.56699 0.00909 0.32811 0.0
H577 H 0.62759 0.98607 0.31921 0.0
H578 H 0.58943 0.97519 0.25055 0.0
C579 C 0.45934 0.03059 0.26871 0.0
C580 C 0.4412 0.04604 0.28592 0.0
C581 C 0.45964 0.05025 0.30738 0.0
C582 C 0.49427 0.03734 0.31178 0.0
C583 C 0.51038 0.02087 0.29449 0.0
C584 C 0.49418 0.01856 0.2733 0.0
C585 C 0.51806 1.00135 0.25739 0.0
C586 C 0.4815 0.95421 0.24652 0.0
C587 C 0.54695 0.03984 0.24012 0.0
C588 C 0.55015 0.99402 0.27289 0.0
C589 C 0.54489 0.00473 0.2943 0.0
C590 C 0.57134 1.00066 0.31139 0.0
C591 C 0.60519 0.98703 0.30629 0.0
C592 C 0.61237 0.97825 0.28429 0.0
C593 C 0.58394 0.98104 0.26755 0.0
H594 H 0.33571 0.08598 0.20329 0.0
H595 H 0.3873 0.20905 0.24617 0.0
H596 H 0.39934 0.26002 0.21388 0.0
H597 H 0.41396 0.14821 0.15562 0.0
H598 H 0.36724 0.1131 0.13634 0.0
H599 H 0.36951 0.08781 0.16234 0.0
H600 H 0.28305 0.06768 0.17078 0.0
H601 H 0.2805 0.09274 0.14486 0.0
H602 H 0.26849 0.1145 0.16987 0.0
H603 H 0.39495 0.29492 0.17794 0.0
H604 H 0.37393 0.31109 0.14128 0.0
H605 H 0.3268 0.16563 0.1217 0.0
C606 C 0.3506 0.12383 0.20596 0.0
C607 C 0.36073 0.14349 0.22735 0.0
C608 C 0.37949 0.19313 0.22999 0.0
C609 C 0.38661 0.2224 0.21172 0.0
C610 C 0.37525 0.20154 0.19095 0.0
C611 C 0.3579 0.15341 0.18798 0.0
C612 C 0.34415 0.13883 0.16431 0.0
C613 C 0.37561 0.12094 0.15405 0.0
C614 C 0.29091 0.10124 0.16236 0.0
C615 C 0.35487 0.18602 0.15447 0.0
C616 C 0.37334 0.22187 0.17007 0.0
C617 C 0.38155 0.26745 0.16549 0.0
C618 C 0.36944 0.27626 0.14466 0.0
C619 C 0.3495 0.23976 0.12864 0.0
C620 C 0.34339 0.1945 0.13343 0.0
H621 H 0.16381 0.33186 0.44248 0.0
H622 H 0.06301 0.37656 0.46104 0.0
H623 H 0.09037 0.38562 0.49944 0.0
H624 H 0.14395 0.26002 0.48789 0.0
H625 H 0.20465 0.27326 0.49079 0.0
H626 H 0.18273 0.27756 0.46431 0.0
H627 H 0.25115 0.36518 0.46077 0.0
H628 H 0.2734 0.36111 0.48729 0.0
H629 H 0.25941 0.40741 0.48197 0.0
H630 H 0.12286 0.38231 0.53617 0.0
H631 H 0.15521 0.36322 0.56873 0.0
H632 H 0.23332 0.31867 0.52622 0.0
C633 C 0.14846 0.34482 0.45452 0.0
C634 C 0.11167 0.35398 0.44879 0.0
C635 C 0.09138 0.36949 0.46511 0.0
C636 C 0.10686 0.375 0.48692 0.0
C637 C 0.14253 0.36473 0.49214 0.0
C638 C 0.16304 0.3499 0.47641 0.0
C639 C 0.19705 0.33632 0.48666 0.0
C640 C 0.18111 0.28368 0.48215 0.0
C641 C 0.2483 0.3695 0.4787 0.0
C642 C 0.19147 0.34462 0.51063 0.0
C643 C 0.16052 0.36177 0.51343 0.0
C644 C 0.14765 0.36947 0.53419 0.0
C645 C 0.16623 0.35848 0.5526 0.0
C646 C 0.19693 0.33948 0.5501 0.0
C647 C 0.2103 0.33348 0.52878 0.0
H648 H 0.76439 0.04995 0.80515 0.0
H649 H 0.81393 0.17182 0.76152 0.0
H650 H 0.8514 0.2258 0.79291 0.0
H651 H 0.74078 0.10475 0.85302 0.0
H652 H 0.76144 0.07679 0.8722 0.0
H653 H 0.73453 0.04758 0.8467 0.0
H654 H 0.80954 0.04209 0.83726 0.0
H655 H 0.83653 0.07107 0.86272 0.0
H656 H 0.86711 0.09561 0.83716 0.0
H657 H 0.89082 0.266 0.82774 0.0
H658 H 0.92919 0.2899 0.86414 0.0
H659 H 0.85174 0.14283 0.88573 0.0
C660 C 0.78251 0.08799 0.80218 0.0
C661 C 0.78609 0.10656 0.7808 0.0
C662 C 0.81051 0.15663 0.7777 0.0
C663 C 0.8318 0.18763 0.79545 0.0
C664 C 0.82795 0.16807 0.81623 0.0
C665 C 0.80373 0.11945 0.81972 0.0
C666 C 0.80733 0.10759 0.84345 0.0
C667 C 0.75808 0.08271 0.85449 0.0
C668 C 0.83158 0.07732 0.84524 0.0
C669 C 0.83857 0.15717 0.85262 0.0
C670 C 0.84976 0.19153 0.83663 0.0
C671 C 0.88151 0.2396 0.84053 0.0
C672 C 0.90308 0.25283 0.86117 0.0
C673 C 0.89239 0.21821 0.87766 0.0
C674 C 0.85911 0.16996 0.87352 0.0
H675 H 0.70081 0.77302 0.1329 0.0
H676 H 0.64162 0.84129 0.09263 0.0
H677 H 0.62677 0.87506 0.126 0.0
H678 H 0.62043 0.74597 0.18028 0.0
H679 H 0.66712 0.75873 0.19974 0.0
H680 H 0.66843 0.73575 0.17298 0.0
H681 H 0.75288 0.80789 0.16617 0.0
H682 H 0.75194 0.8308 0.19291 0.0
H683 H 0.7626 0.86747 0.16897 0.0
H684 H 0.6265 0.90825 0.16292 0.0
H685 H 0.64283 0.94025 0.20065 0.0
H686 H 0.69986 0.84859 0.21709 0.0
C687 C 0.68404 0.79447 0.13102 0.0
C688 C 0.67228 0.80435 0.11007 0.0
C689 C 0.65088 0.83307 0.10846 0.0
C690 C 0.64206 0.85221 0.12734 0.0
C691 C 0.65444 0.84197 0.14769 0.0
C692 C 0.67488 0.81369 0.14964 0.0
C693 C 0.68815 0.81098 0.17321 0.0
C694 C 0.65929 0.75981 0.18207 0.0
C695 C 0.74208 0.83046 0.17543 0.0
C696 C 0.67333 0.84341 0.18416 0.0
C697 C 0.65347 0.86049 0.16916 0.0
C698 C 0.64108 0.89441 0.1749 0.0
C699 C 0.65046 0.91235 0.19633 0.0
C700 C 0.67179 0.89617 0.21177 0.0
C701 C 0.68212 0.86033 0.20577 0.0
H702 H 0.75136 0.67614 0.53574 0.0
H703 H 0.81617 0.61479 0.5769 0.0
H704 H 0.8563 0.60583 0.5443 0.0
H705 H 0.7346 0.60318 0.4865 0.0
H706 H 0.74917 0.65231 0.4682 0.0
H707 H 0.7214 0.64897 0.49428 0.0
H708 H 0.79046 0.73319 0.5043 0.0
H709 H 0.81824 0.73686 0.47827 0.0
H710 H 0.85095 0.74496 0.50331 0.0
H711 H 0.89605 0.61183 0.50825 0.0
H712 H 0.93354 0.63348 0.47161 0.0
H713 H 0.84151 0.68907 0.45361 0.0
C714 C 0.77325 0.65995 0.53795 0.0
C715 C 0.78034 0.64594 0.55899 0.0
C716 C 0.80994 0.62562 0.56102 0.0
C717 C 0.83276 0.62023 0.54256 0.0
C718 C 0.82536 0.63497 0.52216 0.0
C719 C 0.7962 0.65429 0.51975 0.0
C720 C 0.79697 0.67069 0.49637 0.0
C721 C 0.74759 0.64207 0.48571 0.0
C722 C 0.81525 0.72461 0.49553 0.0
C723 C 0.83218 0.65875 0.48607 0.0
C724 C 0.84778 0.63776 0.50121 0.0
C725 C 0.88341 0.62733 0.49616 0.0
C726 C 0.90447 0.63973 0.47533 0.0
C727 C 0.8897 0.66206 0.45974 0.0
C728 C 0.8523 0.67061 0.465 0.0
H729 H 0.07318 0.78059 0.87062 0.0
H730 H 0.19471 0.86461 0.91292 0.0
H731 H 0.24339 0.90613 0.88031 0.0
H732 H 0.13919 0.76671 0.82614 0.0
H733 H 0.10232 0.771 0.80521 0.0
H734 H 0.07758 0.74732 0.83183 0.0
H735 H 0.05099 0.81015 0.83587 0.0
H736 H 0.07552 0.83394 0.80926 0.0
H737 H 0.09445 0.87251 0.83289 0.0
H738 H 0.27739 0.94111 0.84313 0.0
H739 H 0.29478 0.96565 0.80432 0.0
H740 H 0.15132 0.85664 0.78652 0.0
C741 C 0.11006 0.80765 0.87312 0.0
C742 C 0.13006 0.81942 0.8944 0.0
C743 C 0.17858 0.85489 0.89681 0.0
C744 C 0.2065 0.87867 0.87839 0.0
C745 C 0.18549 0.86622 0.85769 0.0
C746 C 0.13844 0.83136 0.85497 0.0
C747 C 0.12412 0.82489 0.83103 0.0
C748 C 0.10998 0.77449 0.82309 0.0
C749 C 0.0839 0.83606 0.82704 0.0
C750 C 0.17034 0.86205 0.82065 0.0
C751 C 0.20531 0.88554 0.83629 0.0
C752 C 0.25041 0.92268 0.83073 0.0
C753 C 0.25989 0.9364 0.80864 0.0
C754 C 0.22451 0.91287 0.79233 0.0
C755 C 0.17935 0.87488 0.7985 0.0
H756 H 0.12199 0.90805 0.99761 0.0
H757 H 0.24267 0.88859 0.98525 0.0
H758 H 0.29658 0.96842 0.00146 0.0
H759 H 0.17783 0.03115 0.98532 0.0
H760 H 0.1476 0.04389 0.00679 0.0
H761 H 0.11976 0.98562 0.99449 0.0
H762 H 0.11073 0.94722 0.0328 0.0
H763 H 0.1383 0.00537 0.04525 0.0
H764 H 0.16254 0.96681 0.04991 0.0
H765 H 0.33752 0.0552 0.01742 0.0
H766 H 0.35892 0.13352 0.03415 0.0
H767 H 0.20915 0.09027 0.03729 0.0
C768 C 0.15977 0.92038 0.99834 0.0
C769 C 0.17819 0.89222 0.99004 0.0
C770 C 0.22778 0.90954 0.99157 0.0
C771 C 0.25861 0.95493 0.00066 0.0
C772 C 0.23914 0.98211 0.00845 0.0
C773 C 0.1906 0.96484 0.00761 0.0
C774 C 0.17769 0.99982 0.01727 0.0
C775 C 0.15436 0.01607 0.99993 0.0
C776 C 0.14542 0.97853 0.03751 0.0
C777 C 0.22649 0.03993 0.02358 0.0
C778 C 0.26182 0.02971 0.01824 0.0
C779 C 0.3099 0.06308 0.02186 0.0
C780 C 0.32182 0.10753 0.03131 0.0
C781 C 0.28574 0.11782 0.0373 0.0
C782 C 0.23765 0.08333 0.03328 0.0
H783 H 0.13875 0.22248 0.35949 0.0
H784 H 0.25647 0.36664 0.36772 0.0
H785 H 0.3125 0.34081 0.35473 0.0
H786 H 0.20036 0.15944 0.37518 0.0
H787 H 0.17078 0.11401 0.35461 0.0
H788 H 0.14124 0.14341 0.36623 0.0
H789 H 0.12911 0.1675 0.32725 0.0
H790 H 0.15867 0.13829 0.31553 0.0
H791 H 0.18001 0.20022 0.30959 0.0
H792 H 0.35564 0.29764 0.34026 0.0
H793 H 0.38005 0.24331 0.32342 0.0
H794 H 0.2324 0.13008 0.32276 0.0
C795 C 0.17641 0.24853 0.3589 0.0
C796 C 0.19335 0.29647 0.36489 0.0
C797 C 0.24277 0.32965 0.36335 0.0
C798 C 0.27483 0.31526 0.35602 0.0
C799 C 0.25682 0.26768 0.35005 0.0
C800 C 0.20861 0.23498 0.35128 0.0
C801 C 0.19753 0.18676 0.34262 0.0
C802 C 0.17623 0.14867 0.36074 0.0
C803 C 0.16438 0.17238 0.32256 0.0
C804 C 0.24693 0.19727 0.33622 0.0
C805 C 0.28093 0.24386 0.34087 0.0
C806 C 0.32919 0.26115 0.33651 0.0
C807 C 0.34279 0.23011 0.32699 0.0
C808 C 0.30813 0.18268 0.32161 0.0
C809 C 0.25974 0.16632 0.32645 0.0
H810 H 0.86023 0.10208 0.66602 0.0
H811 H 0.85306 0.2189 0.69648 0.0
H812 H 0.93149 0.27617 0.67984 0.0
H813 H 0.97891 0.14325 0.67487 0.0
H814 H 0.98966 0.12263 0.64921 0.0
H815 H 0.93109 0.09265 0.66114 0.0
H816 H 0.89568 0.10584 0.62551 0.0
H817 H 0.95417 0.13544 0.61331 0.0
H818 H 0.91994 0.16523 0.61458 0.0
H819 H 0.01727 0.31862 0.66375 0.0
H820 H 0.09632 0.34191 0.64759 0.0
H821 H 0.04262 0.19594 0.62676 0.0
C822 C 0.87456 0.13989 0.66869 0.0
C823 C 0.85066 0.15628 0.68235 0.0
C824 C 0.87058 0.20582 0.68573 0.0
C825 C 0.91519 0.23844 0.67646 0.0
C826 C 0.93866 0.22077 0.66357 0.0
C827 C 0.91827 0.17254 0.65937 0.0
C828 C 0.9509 0.16161 0.646 0.0
C829 C 0.96336 0.12808 0.65856 0.0
C830 C 0.92886 0.14082 0.62351 0.0
C831 C 0.99371 0.21099 0.64376 0.0
C832 C 0.98635 0.24489 0.65395 0.0
C833 C 0.02284 0.29241 0.65536 0.0
C834 C 0.06768 0.30534 0.64619 0.0
C835 C 0.07554 0.27092 0.63564 0.0
C836 C 0.03766 0.22339 0.63429 0.0
H837 H 0.7921 0.92253 0.01636 0.0
H838 H 0.64485 0.8887 0.01542 0.0
H839 H 0.67049 0.96941 1.00034 0.0
H840 H 0.84518 0.04512 0.03172 0.0
H841 H 0.89641 0.06351 0.01429 0.0
H842 H 0.86578 0.00411 0.02549 0.0
H843 H 0.85388 0.96875 0.98631 0.0
H844 H 0.88475 0.02802 0.97502 0.0
H845 H 0.82553 0.98596 0.96571 0.0
H846 H 0.71577 0.05766 0.98539 0.0
H847 H 0.77317 0.13739 0.9698 0.0
H848 H 0.88788 0.1077 0.98011 0.0
C849 C 0.76503 0.93195 0.01312 0.0
C850 C 0.71643 0.89933 0.01725 0.0
C851 C 0.68231 0.9131 0.01242 0.0
C852 C 0.69664 0.95897 0.00392 0.0
C853 C 0.74516 0.99042 1.00018 0.0
C854 C 0.77858 0.97692 0.00448 0.0
C855 C 0.82827 0.01563 0.9984 0.0
C856 C 0.86081 0.03312 0.01869 0.0
C857 C 0.84932 0.99857 0.98028 0.0
C858 C 0.81805 0.05341 0.98998 0.0
C859 C 0.77015 0.03893 0.99124 0.0
C860 C 0.75327 0.06901 0.98432 0.0
C861 C 0.78606 0.11434 0.9756 0.0
C862 C 0.83493 0.12869 0.97362 0.0
C863 C 0.85069 0.09776 0.9812 0.0
H864 H 0.81388 0.8836 0.30485 0.0
H865 H 0.66681 0.77028 0.30053 0.0
H866 H 0.687 0.71659 0.32111 0.0
H867 H 0.87105 0.81186 0.30154 0.0
H868 H 0.91556 0.84754 0.32161 0.0
H869 H 0.88998 0.87419 0.3045 0.0
H870 H 0.86544 0.90295 0.3392 0.0
H871 H 0.89056 0.87607 0.35641 0.0
H872 H 0.82915 0.86015 0.35982 0.0
H873 H 0.72554 0.67534 0.34252 0.0
H874 H 0.77606 0.65397 0.36509 0.0
H875 H 0.89408 0.79833 0.35824 0.0
C876 C 0.78612 0.84712 0.30777 0.0
C877 C 0.73902 0.83064 0.30067 0.0
C878 C 0.70328 0.78329 0.30557 0.0
C879 C 0.71446 0.75263 0.31724 0.0
C880 C 0.76132 0.7703 0.3243 0.0
C881 C 0.79636 0.81674 0.31989 0.0
C882 C 0.84293 0.82886 0.33078 0.0
C883 C 0.88219 0.84133 0.31358 0.0
C884 C 0.85787 0.86939 0.34755 0.0
C885 C 0.82892 0.78206 0.34202 0.0
C886 C 0.78203 0.74824 0.33785 0.0
C887 C 0.76214 0.70179 0.34603 0.0
C888 C 0.79095 0.6899 0.35882 0.0
C889 C 0.83855 0.72472 0.36372 0.0
C890 C 0.85744 0.77121 0.35516 0.0
H891 H 0.06852 0.87183 0.69717 0.0
H892 H 0.09936 0.75881 0.71072 0.0
H893 H 0.02083 0.69969 0.69538 0.0
H894 H 0.94145 0.8053 0.70854 0.0
H895 H 0.92729 0.83278 0.68633 0.0
H896 H 0.98413 0.86494 0.69986 0.0
H897 H 0.02692 0.87787 0.66243 0.0
H898 H 0.97024 0.84556 0.64881 0.0
H899 H 0.01379 0.82701 0.6456 0.0
H900 H 0.93736 0.65267 0.67786 0.0
H901 H 0.86031 0.62399 0.6585 0.0
H902 H 0.88843 0.76942 0.65483 0.0
C903 C 0.05851 0.83456 0.69725 0.0
C904 C 0.08988 0.81988 0.70541 0.0
C905 C 0.07578 0.77085 0.7047 0.0
C906 C 0.03121 0.73702 0.69602 0.0
C907 C 1.0013 0.7528 0.68787 0.0
C908 C 0.01463 0.80055 0.68834 0.0
C909 C 0.97753 0.809 0.67752 0.0
C910 C 0.95635 0.82919 0.69405 0.0
C911 C 0.99838 0.84179 0.6574 0.0
C912 C 0.94122 0.75866 0.67082 0.0
C913 C 0.95505 0.72646 0.67709 0.0
C914 C 0.92639 0.67772 0.67282 0.0
C915 C 0.88269 0.66168 0.66183 0.0
C916 C 0.86851 0.69441 0.65494 0.0
C917 C 0.8984 0.74343 0.65961 0.0
H918 H 0.09569 0.33143 0.97608 0.0
H919 H 0.99805 0.18023 0.9678 0.0
H920 H 0.04592 0.16233 0.99341 0.0
H921 H 0.20346 0.32005 0.97674 0.0
H922 H 0.23495 0.36451 0.99749 0.0
H923 H 0.19538 0.37128 0.97946 0.0
H924 H 0.14207 0.37382 0.00915 0.0
H925 H 0.18561 0.37602 0.0278 0.0
H926 H 0.12328 0.33166 0.03136 0.0
H927 H 0.09748 0.16126 0.02333 0.0
H928 H 0.16471 0.17477 0.04714 0.0
H929 H 0.23715 0.32517 0.03128 0.0
C930 C 0.08589 0.29468 0.97887 0.0
C931 C 0.04391 0.25708 0.96975 0.0
C932 C 0.03075 0.20933 0.9744 0.0
C933 C 0.05734 0.19888 0.98908 0.0
C934 C 0.09772 0.23669 0.99843 0.0
C935 C 0.11352 0.28352 0.99265 0.0
C936 C 0.15925 0.31711 0.0046 0.0
C937 C 0.20065 0.34467 0.98854 0.0
C938 C 0.15205 0.35157 0.01918 0.0
C939 C 0.16642 0.28178 0.01801 0.0
C940 C 0.12944 0.23579 0.01477 0.0
C941 C 0.12703 0.197 0.02577 0.0
C942 C 0.16499 0.20503 0.03943 0.0
C943 C 0.20521 0.2511 0.04136 0.0
C944 C 0.20587 0.29 0.03066 0.0
H945 H 0.79785 0.04069 0.33273 0.0
H946 H 0.85639 0.05282 0.26789 0.0
H947 H 0.92483 0.13213 0.27735 0.0
H948 H 0.8342 0.15571 0.34881 0.0
H949 H 0.85578 0.14929 0.37516 0.0
H950 H 0.80969 0.09781 0.36168 0.0
H951 H 0.86451 0.06079 0.3665 0.0
H952 H 0.90966 0.11493 0.37918 0.0
H953 H 0.92398 0.09172 0.35532 0.0
H954 H 0.97229 0.21773 0.29194 0.0
H955 H 0.02363 0.28758 0.3147 0.0
H956 H 0.9514 0.20743 0.3732 0.0
C957 C 0.82487 0.06045 0.32047 0.0
C958 C 0.81903 0.04467 0.29854 0.0
C959 C 0.85744 0.06819 0.28375 0.0
C960 C 0.89677 0.11245 0.28917 0.0
C961 C 0.89864 0.13005 0.31017 0.0
C962 C 0.86617 0.10278 0.3261 0.0
C963 C 0.88162 0.12584 0.34838 0.0
C964 C 0.84275 0.13256 0.35903 0.0
C965 C 0.8958 0.09658 0.36322 0.0
C966 C 0.92467 0.17306 0.34208 0.0
C967 C 0.93314 0.17485 0.3198 0.0
C968 C 0.96752 0.21613 0.30957 0.0
C969 C 0.99607 0.25577 0.32267 0.0
C970 C 0.99141 0.25344 0.34588 0.0
C971 C 0.95482 0.21141 0.35563 0.0
H972 H 0.77932 0.79847 0.64337 0.0
H973 H 0.63306 0.69043 0.65593 0.0
H974 H 0.61616 0.75251 0.66976 0.0
H975 H 0.78809 0.84909 0.69409 0.0
H976 H 0.82823 0.91068 0.6872 0.0
H977 H 0.8301 0.8639 0.67211 0.0
H978 H 0.81376 0.89012 0.63459 0.0
H979 H 0.81912 0.94127 0.64888 0.0
H980 H 0.76708 0.90469 0.63267 0.0
H981 H 0.61472 0.83021 0.67579 0.0
H982 H 0.63338 0.90874 0.69107 0.0
H983 H 0.78403 0.95771 0.68648 0.0
C984 C 0.74344 0.78844 0.64839 0.0
C985 C 0.70622 0.74088 0.64702 0.0
C986 C 0.66085 0.72753 0.65561 0.0
C987 C 0.65109 0.76236 0.66344 0.0
C988 C 0.68806 0.80957 0.66365 0.0
C989 C 0.73391 0.82221 0.65746 0.0
C990 C 0.76926 0.87286 0.66405 0.0
C991 C 0.80609 0.87427 0.68035 0.0
C992 C 0.79374 0.90402 0.64383 0.0
C993 C 0.73592 0.88672 0.67475 0.0
C994 C 0.689 0.85075 0.67301 0.0
C995 C 0.65131 0.85784 0.6784 0.0
C996 C 0.66209 0.90211 0.68709 0.0
C997 C 0.70977 0.9368 0.69158 0.0
C998 C 0.74721 0.92985 0.68467 0.0
H999 H 0.82509 0.80852 0.02119 0.0
H1000 H 0.71656 0.66086 0.01257 0.0
H1001 H 0.77848 0.64159 0.00096 0.0
H1002 H 0.87918 0.80598 0.97015 0.0
H1003 H 0.93958 0.84849 0.9777 0.0
H1004 H 0.89066 0.85237 0.98946 0.0
H1005 H 0.91488 0.84638 0.0293 0.0
H1006 H 0.96689 0.84821 0.01771 0.0
H1007 H 0.92881 0.80056 0.03589 0.0
H1008 H 0.8571 0.63844 0.00054 0.0
H1009 H 0.93707 0.65373 0.98888 0.0
H1010 H 0.98653 0.80465 0.98478 0.0
C1011 C 0.81478 0.77201 0.01726 0.0
C1012 C 0.76723 0.73504 0.01958 0.0
C1013 C 0.75364 0.68864 0.01232 0.0
C1014 C 0.78837 0.67753 0.00573 0.0
C1015 C 0.83575 0.7141 0.0053 0.0
C1016 C 0.84842 0.76093 0.0093 0.0
C1017 C 0.89967 0.79474 0.0029 0.0
C1018 C 0.90248 0.8273 0.98391 0.0
C1019 C 0.92923 0.8242 0.02264 0.0
C1020 C 0.91429 0.75925 0.99571 0.0
C1021 C 0.87771 0.71291 0.99851 0.0
C1022 C 0.8852 0.67429 0.99681 0.0
C1023 C 0.93036 0.68314 0.99018 0.0
C1024 C 0.96587 0.72966 0.98428 0.0
C1025 C 0.95846 0.76836 0.98784 0.0
H1026 H 0.0788 0.76843 0.35593 0.0
H1027 H 0.02832 0.85309 0.38883 0.0
H1028 H 0.09024 0.92546 0.36997 0.0
H1029 H 0.20888 0.86003 0.35764 0.0
H1030 H 0.21786 0.84118 0.33125 0.0
H1031 H 0.17167 0.7988 0.34897 0.0
H1032 H 0.10789 0.7803 0.31764 0.0
H1033 H 0.15792 0.82029 0.3015 0.0
H1034 H 0.10833 0.83029 0.30437 0.0
H1035 H 0.14987 0.98519 0.34428 0.0
H1036 H 0.2196 0.03572 0.32127 0.0
H1037 H 0.24049 0.91563 0.30965 0.0
C1038 C 0.08199 0.8026 0.35958 0.0
C1039 C 0.0497 0.80589 0.37389 0.0
C1040 C 0.05362 0.85052 0.37812 0.0
C1041 C 0.08825 0.89151 0.36736 0.0
C1042 C 0.11886 0.88696 0.35279 0.0
C1043 C 0.11755 0.84416 0.34963 0.0
C1044 C 0.15489 0.84923 0.33322 0.0
C1045 C 0.19037 0.83654 0.34345 0.0
C1046 C 0.13073 0.81833 0.31297 0.0
C1047 C 0.17828 0.902 0.32801 0.0
C1048 C 0.1554 0.92235 0.33883 0.0
C1049 C 0.16864 0.96991 0.33602 0.0
C1050 C 0.20806 0.99818 0.32279 0.0
C1051 C 0.23499 0.97942 0.31319 0.0
C1052 C 0.21962 0.93054 0.31572 0.0
H1053 H 0.2384 0.0628 0.71164 0.0
H1054 H 0.25373 0.98867 0.65579 0.0
H1055 H 0.23987 0.04024 0.63076 0.0
H1056 H 0.15162 0.08724 0.68805 0.0
H1057 H 0.17687 0.14603 0.69974 0.0
H1058 H 0.18367 0.10073 0.71362 0.0
H1059 H 0.27186 0.15613 0.71377 0.0
H1060 H 0.26948 0.20245 0.69892 0.0
H1061 H 0.30597 0.17904 0.68873 0.0
H1062 H 0.20454 0.08876 0.61318 0.0
H1063 H 0.18967 0.15431 0.60275 0.0
H1064 H 0.2286 0.21341 0.66767 0.0
C1065 C 0.24134 0.05888 0.69423 0.0
C1066 C 0.24813 0.02218 0.6858 0.0
C1067 C 0.24877 0.01664 0.66271 0.0
C1068 C 0.2404 0.04536 0.64833 0.0
C1069 C 0.23276 0.08041 0.65723 0.0
C1070 C 0.23533 0.08872 0.67957 0.0
C1071 C 0.22931 0.13108 0.68465 0.0
C1072 C 0.18259 0.11531 0.69726 0.0
C1073 C 0.272 0.16969 0.69717 0.0
C1074 C 0.22656 0.1471 0.66177 0.0
C1075 C 0.22447 0.11516 0.64629 0.0
C1076 C 0.2111 0.11673 0.62473 0.0
C1077 C 0.20439 0.15474 0.61864 0.0
C1078 C 0.2161 0.19279 0.63325 0.0
C1079 C 0.22445 0.18733 0.65547 0.0
loop_
_geom_bond_atom_site_label_1
_geom_bond_atom_site_label_2
_geom_bond_distance
_geom_bond_site_symmetry_2
_ccdc_geom_bond_type
Mn0 O5 2.095 . S
Mn0 O15 2.162 . S
Mn0 O16 2.297 . S
Mn0 O24 2.385 . S
Mn0 O25 2.209 . S
Mn0 O26 2.094 . S
Mn1 O6 2.121 . S
Mn1 N8 2.257 . S
Mn1 N17 2.282 . S
Mn1 O25 2.215 . S
Mn1 O27 2.117 . S
C2 O24 1.234 . S
C2 O25 1.283 . S
C3 O15 1.281 . S
C3 O16 1.236 . S
C4 O26 1.240 . S
C4 O27 1.264 . S
O5 Mn0 2.095 . S
O5 C14 1.250 . S
O6 Mn1 2.121 . S
O6 C14 1.258 . S
C7 N8 1.326 . S
C7 C11 1.460 . S
C7 H13 0.929 . S
N8 Mn1 2.257 . S
N8 C7 1.326 . S
N8 C12 1.362 . S
C9 C10 1.258 . S
C9 C12 1.431 . S
C9 C29 1.449 . S
C10 C9 1.258 . S
C10 C11 1.477 . S
C10 H30 0.931 . S
C11 C7 1.460 . S
C11 C10 1.477 . S
C11 H31 0.930 . S
C12 N8 1.362 . S
C12 C9 1.431 . S
C12 C22 1.476 . S
H13 C7 0.929 . S
C14 O5 1.250 . S
C14 O6 1.258 . S
O15 Mn0 2.162 . S
O15 C3 1.281 . S
O16 Mn0 2.297 . S
O16 C3 1.236 . S
N17 Mn1 2.282 . S
N17 C18 1.328 . S
N17 C22 1.318 . S
C18 N17 1.328 . S
C18 C19 1.457 . S
C18 H23 0.929 . S
C19 C18 1.457 . S
C19 C20 1.291 . S
C19 H32 0.931 . S
C20 C19 1.291 . S
C20 C21 1.373 . S
C20 H33 0.929 . S
C21 C20 1.373 . S
C21 C22 1.396 . S
C21 C28 1.403 . S
C22 C12 1.476 . S
C22 N17 1.318 . S
C22 C21 1.396 . S
H23 C18 0.929 . S
O24 Mn0 2.385 . S
O24 C2 1.234 . S
O25 Mn0 2.209 . S
O25 Mn1 2.215 . S
O25 C2 1.283 . S
O26 Mn0 2.094 . S
O26 C4 1.240 . S
O27 Mn1 2.117 . S
O27 C4 1.264 . S
C28 C21 1.403 . S
C28 C29 1.399 . S
C28 H34 0.929 . S
C29 C9 1.449 . S
C29 C28 1.399 . S
C29 H35 0.930 . S
H30 C10 0.931 . S
H31 C11 0.930 . S
H32 C19 0.931 . S
H33 C20 0.929 . S
H34 C28 0.929 . S
H35 C29 0.930 . S
Mn36 O41 2.095 . S
Mn36 O51 2.162 . S
Mn36 O52 2.297 . S
Mn36 O60 2.385 . S
Mn36 O61 2.209 . S
Mn36 O62 2.094 . S
Mn37 O42 2.121 . S
Mn37 N44 2.257 1_455 S
Mn37 N53 2.282 1_455 S
Mn37 O61 2.215 . S
Mn37 O63 2.117 . S
C38 O60 1.234 . S
C38 O61 1.283 . S
C39 O51 1.281 . S
C39 O52 1.236 . S
C40 O62 1.240 . S
C40 O63 1.264 . S
O41 Mn36 2.095 . S
O41 C50 1.250 . S
O42 Mn37 2.121 . S
O42 C50 1.258 . S
C43 N44 1.326 . S
C43 C47 1.460 . S
C43 H49 0.929 . S
N44 Mn37 2.257 1_655 S
N44 C43 1.326 . S
N44 C48 1.362 . S
C45 C46 1.258 . S
C45 C48 1.431 . S
C45 C65 1.449 . S
C46 C45 1.258 . S
C46 C47 1.477 . S
C46 H66 0.931 . S
C47 C43 1.460 . S
C47 C46 1.477 . S
C47 H67 0.930 . S
C48 N44 1.362 . S
C48 C45 1.431 . S
C48 C58 1.476 . S
H49 C43 0.929 . S
C50 O41 1.250 . S
C50 O42 1.258 . S
O51 Mn36 2.162 . S
O51 C39 1.281 . S
O52 Mn36 2.297 . S
O52 C39 1.236 . S
N53 Mn37 2.282 1_655 S
N53 C54 1.328 . S
N53 C58 1.318 . S
C54 N53 1.328 . S
C54 C55 1.457 . S
C54 H59 0.929 . S
C55 C54 1.457 . S
C55 C56 1.291 . S
C55 H68 0.931 . S
C56 C55 1.291 . S
C56 C57 1.373 . S
C56 H69 0.929 . S
C57 C56 1.373 . S
C57 C58 1.396 . S
C57 C64 1.403 . S
C58 C48 1.476 . S
C58 N53 1.318 . S
C58 C57 1.396 . S
H59 C54 0.929 . S
O60 Mn36 2.385 . S
O60 C38 1.234 . S
O61 Mn36 2.209 . S
O61 Mn37 2.215 . S
O61 C38 1.283 . S
O62 Mn36 2.094 . S
O62 C40 1.240 . S
O63 Mn37 2.117 . S
O63 C40 1.264 . S
C64 C57 1.403 . S
C64 C65 1.399 . S
C64 H70 0.929 . S
C65 C45 1.449 . S
C65 C64 1.399 . S
C65 H71 0.930 . S
H66 C46 0.931 . S
H67 C47 0.930 . S
H68 C55 0.931 . S
H69 C56 0.929 . S
H70 C64 0.929 . S
H71 C65 0.930 . S
Mn72 O77 2.095 . S
Mn72 O87 2.162 . S
Mn72 O88 2.297 . S
Mn72 O96 2.385 . S
Mn72 O97 2.209 . S
Mn72 O98 2.094 . S
Mn73 O78 2.121 . S
Mn73 N80 2.257 1_545 S
Mn73 N89 2.282 1_545 S
Mn73 O97 2.215 . S
Mn73 O99 2.117 . S
C74 O96 1.234 . S
C74 O97 1.283 . S
C75 O87 1.281 . S
C75 O88 1.236 . S
C76 O98 1.240 . S
C76 O99 1.264 . S
O77 Mn72 2.095 . S
O77 C86 1.250 . S
O78 Mn73 2.121 . S
O78 C86 1.258 . S
C79 N80 1.326 . S
C79 C83 1.460 . S
C79 H85 0.929 . S
N80 Mn73 2.257 1_565 S
N80 C79 1.326 . S
N80 C84 1.362 . S
C81 C82 1.258 . S
C81 C84 1.431 . S
C81 C101 1.449 . S
C82 C81 1.258 . S
C82 C83 1.477 . S
C82 H102 0.931 . S
C83 C79 1.460 . S
C83 C82 1.477 . S
C83 H103 0.930 . S
C84 N80 1.362 . S
C84 C81 1.431 . S
C84 C94 1.476 . S
H85 C79 0.929 . S
C86 O77 1.250 . S
C86 O78 1.258 . S
O87 Mn72 2.162 . S
O87 C75 1.281 . S
O88 Mn72 2.297 . S
O88 C75 1.236 . S
N89 Mn73 2.282 1_565 S
N89 C90 1.328 . S
N89 C94 1.318 . S
C90 N89 1.328 . S
C90 C91 1.457 . S
C90 H95 0.929 . S
C91 C90 1.457 . S
C91 C92 1.291 . S
C91 H104 0.931 . S
C92 C91 1.291 . S
C92 C93 1.373 . S
C92 H105 0.929 . S
C93 C92 1.373 . S
C93 C94 1.396 . S
C93 C100 1.403 . S
C94 C84 1.476 . S
C94 N89 1.318 . S
C94 C93 1.396 . S
H95 C90 0.929 . S
O96 Mn72 2.385 . S
O96 C74 1.234 . S
O97 Mn72 2.209 . S
O97 Mn73 2.215 . S
O97 C74 1.283 . S
O98 Mn72 2.094 . S
O98 C76 1.240 . S
O99 Mn73 2.117 . S
O99 C76 1.264 . S
C100 C93 1.403 . S
C100 C101 1.399 . S
C100 H106 0.929 . S
C101 C81 1.449 . S
C101 C100 1.399 . S
C101 H107 0.930 . S
H102 C82 0.931 . S
H103 C83 0.930 . S
H104 C91 0.931 . S
H105 C92 0.929 . S
H106 C100 0.929 . S
H107 C101 0.930 . S
Mn108 O113 2.095 . S
Mn108 O123 2.162 . S
Mn108 O124 2.297 . S
Mn108 O132 2.385 . S
Mn108 O133 2.209 . S
Mn108 O134 2.094 . S
Mn109 O114 2.121 . S
Mn109 N116 2.257 . S
Mn109 N125 2.282 . S
Mn109 O133 2.215 . S
Mn109 O135 2.117 . S
C110 O132 1.234 . S
C110 O133 1.283 . S
C111 O123 1.281 . S
C111 O124 1.236 . S
C112 O134 1.240 . S
C112 O135 1.264 . S
O113 Mn108 2.095 . S
O113 C122 1.250 . S
O114 Mn109 2.121 . S
O114 C122 1.258 . S
C115 N116 1.326 . S
C115 C119 1.460 . S
C115 H121 0.929 . S
N116 Mn109 2.257 . S
N116 C115 1.326 . S
N116 C120 1.362 . S
C117 C118 1.258 . S
C117 C120 1.431 . S
C117 C137 1.449 . S
C118 C117 1.258 . S
C118 C119 1.477 . S
C118 H138 0.931 . S
C119 C115 1.460 . S
C119 C118 1.477 . S
C119 H139 0.930 . S
C120 N116 1.362 . S
C120 C117 1.431 . S
C120 C130 1.476 . S
H121 C115 0.929 . S
C122 O113 1.250 . S
C122 O114 1.258 . S
O123 Mn108 2.162 . S
O123 C111 1.281 . S
O124 Mn108 2.297 . S
O124 C111 1.236 . S
N125 Mn109 2.282 . S
N125 C126 1.328 . S
N125 C130 1.318 . S
C126 N125 1.328 . S
C126 C127 1.457 . S
C126 H131 0.929 . S
C127 C126 1.457 . S
C127 C128 1.291 . S
C127 H140 0.931 . S
C128 C127 1.291 . S
C128 C129 1.373 . S
C128 H141 0.929 . S
C129 C128 1.373 . S
C129 C130 1.396 . S
C129 C136 1.403 . S
C130 C120 1.476 . S
C130 N125 1.318 . S
C130 C129 1.396 . S
H131 C126 0.929 . S
O132 Mn108 2.385 . S
O132 C110 1.234 . S
O133 Mn108 2.209 . S
O133 Mn109 2.215 . S
O133 C110 1.283 . S
O134 Mn108 2.094 . S
O134 C112 1.240 . S
O135 Mn109 2.117 . S
O135 C112 1.264 . S
C136 C129 1.403 . S
C136 C137 1.399 . S
C136 H142 0.929 . S
C137 C117 1.449 . S
C137 C136 1.399 . S
C137 H143 0.930 . S
H138 C118 0.931 . S
H139 C119 0.930 . S
H140 C127 0.931 . S
H141 C128 0.929 . S
H142 C136 0.929 . S
H143 C137 0.930 . S
Mn144 O149 2.095 . S
Mn144 O159 2.162 . S
Mn144 O160 2.297 . S
Mn144 O168 2.385 . S
Mn144 O169 2.209 . S
Mn144 O170 2.094 . S
Mn145 O150 2.121 . S
Mn145 N152 2.257 1_655 S
Mn145 N161 2.282 1_655 S
Mn145 O169 2.215 . S
Mn145 O171 2.117 . S
C146 O168 1.234 . S
C146 O169 1.283 . S
C147 O159 1.281 . S
C147 O160 1.236 . S
C148 O170 1.240 . S
C148 O171 1.264 . S
O149 Mn144 2.095 . S
O149 C158 1.250 . S
O150 Mn145 2.121 . S
O150 C158 1.258 . S
C151 N152 1.326 . S
C151 C155 1.460 . S
C151 H157 0.929 . S
N152 Mn145 2.257 1_455 S
N152 C151 1.326 . S
N152 C156 1.362 . S
C153 C154 1.258 . S
C153 C156 1.431 . S
C153 C173 1.449 . S
C154 C153 1.258 . S
C154 C155 1.477 . S
C154 H174 0.931 . S
C155 C151 1.460 . S
C155 C154 1.477 . S
C155 H175 0.930 . S
C156 N152 1.362 . S
C156 C153 1.431 . S
C156 C166 1.476 . S
H157 C151 0.929 . S
C158 O149 1.250 . S
C158 O150 1.258 . S
O159 Mn144 2.162 . S
O159 C147 1.281 . S
O160 Mn144 2.297 . S
O160 C147 1.236 . S
N161 Mn145 2.282 1_455 S
N161 C162 1.328 . S
N161 C166 1.318 . S
C162 N161 1.328 . S
C162 C163 1.457 . S
C162 H167 0.929 . S
C163 C162 1.457 . S
C163 C164 1.291 . S
C163 H176 0.931 . S
C164 C163 1.291 . S
C164 C165 1.373 . S
C164 H177 0.929 . S
C165 C164 1.373 . S
C165 C166 1.396 . S
C165 C172 1.403 . S
C166 C156 1.476 . S
C166 N161 1.318 . S
C166 C165 1.396 . S
H167 C162 0.929 . S
O168 Mn144 2.385 . S
O168 C146 1.234 . S
O169 Mn144 2.209 . S
O169 Mn145 2.215 . S
O169 C146 1.283 . S
O170 Mn144 2.094 . S
O170 C148 1.240 . S
O171 Mn145 2.117 . S
O171 C148 1.264 . S
C172 C165 1.403 . S
C172 C173 1.399 . S
C172 H178 0.929 . S
C173 C153 1.449 . S
C173 C172 1.399 . S
C173 H179 0.930 . S
H174 C154 0.931 . S
H175 C155 0.930 . S
H176 C163 0.931 . S
H177 C164 0.929 . S
H178 C172 0.929 . S
H179 C173 0.930 . S
Mn180 O185 2.095 . S
Mn180 O195 2.162 . S
Mn180 O196 2.297 . S
Mn180 O204 2.385 . S
Mn180 O205 2.209 . S
Mn180 O206 2.094 . S
Mn181 O186 2.121 . S
Mn181 N188 2.257 1_565 S
Mn181 N197 2.282 1_565 S
Mn181 O205 2.215 . S
Mn181 O207 2.117 . S
C182 O204 1.234 . S
C182 O205 1.283 . S
C183 O195 1.281 . S
C183 O196 1.236 . S
C184 O206 1.240 . S
C184 O207 1.264 . S
O185 Mn180 2.095 . S
O185 C194 1.250 . S
O186 Mn181 2.121 . S
O186 C194 1.258 . S
C187 N188 1.326 . S
C187 C191 1.460 . S
C187 H193 0.929 . S
N188 Mn181 2.257 1_545 S
N188 C187 1.326 . S
N188 C192 1.362 . S
C189 C190 1.258 . S
C189 C192 1.431 . S
C189 C209 1.449 . S
C190 C189 1.258 . S
C190 C191 1.477 . S
C190 H210 0.931 . S
C191 C187 1.460 . S
C191 C190 1.477 . S
C191 H211 0.930 . S
C192 N188 1.362 . S
C192 C189 1.431 . S
C192 C202 1.476 . S
H193 C187 0.929 . S
C194 O185 1.250 . S
C194 O186 1.258 . S
O195 Mn180 2.162 . S
O195 C183 1.281 . S
O196 Mn180 2.297 . S
O196 C183 1.236 . S
N197 Mn181 2.282 1_545 S
N197 C198 1.328 . S
N197 C202 1.318 . S
C198 N197 1.328 . S
C198 C199 1.457 . S
C198 H203 0.929 . S
C199 C198 1.457 . S
C199 C200 1.291 . S
C199 H212 0.931 . S
C200 C199 1.291 . S
C200 C201 1.373 . S
C200 H213 0.929 . S
C201 C200 1.373 . S
C201 C202 1.396 . S
C201 C208 1.403 . S
C202 C192 1.476 . S
C202 N197 1.318 . S
C202 C201 1.396 . S
H203 C198 0.929 . S
O204 Mn180 2.385 . S
O204 C182 1.234 . S
O205 Mn180 2.209 . S
O205 Mn181 2.215 . S
O205 C182 1.283 . S
O206 Mn180 2.094 . S
O206 C184 1.240 . S
O207 Mn181 2.117 . S
O207 C184 1.264 . S
C208 C201 1.403 . S
C208 C209 1.399 . S
C208 H214 0.929 . S
C209 C189 1.449 . S
C209 C208 1.399 . S
C209 H215 0.930 . S
H210 C190 0.931 . S
H211 C191 0.930 . S
H212 C199 0.931 . S
H213 C200 0.929 . S
H214 C208 0.929 . S
H215 C209 0.930 . S
Mn216 O221 2.095 . S
Mn216 O231 2.162 . S
Mn216 O232 2.297 . S
Mn216 O240 2.385 . S
Mn216 O241 2.209 . S
Mn216 O242 2.094 . S
Mn217 O222 2.121 . S
Mn217 N224 2.257 . S
Mn217 N233 2.282 . S
Mn217 O241 2.215 . S
Mn217 O243 2.117 . S
C218 O240 1.234 . S
C218 O241 1.283 . S
C219 O231 1.281 . S
C219 O232 1.236 . S
C220 O242 1.240 . S
C220 O243 1.264 . S
O221 Mn216 2.095 . S
O221 C230 1.250 . S
O222 Mn217 2.121 . S
O222 C230 1.258 . S
C223 N224 1.326 . S
C223 C227 1.460 . S
C223 H229 0.929 . S
N224 Mn217 2.257 . S
N224 C223 1.326 . S
N224 C228 1.362 . S
C225 C226 1.258 . S
C225 C228 1.431 . S
C225 C245 1.449 . S
C226 C225 1.258 . S
C226 C227 1.477 . S
C226 H246 0.931 . S
C227 C223 1.460 . S
C227 C226 1.477 . S
C227 H247 0.930 . S
C228 N224 1.362 . S
C228 C225 1.431 . S
C228 C238 1.476 . S
H229 C223 0.929 . S
C230 O221 1.250 . S
C230 O222 1.258 . S
O231 Mn216 2.162 . S
O231 C219 1.281 . S
O232 Mn216 2.297 . S
O232 C219 1.236 . S
N233 Mn217 2.282 . S
N233 C234 1.328 . S
N233 C238 1.318 . S
C234 N233 1.328 . S
C234 C235 1.457 . S
C234 H239 0.929 . S
C235 C234 1.457 . S
C235 C236 1.291 . S
C235 H248 0.931 . S
C236 C235 1.291 . S
C236 C237 1.373 . S
C236 H249 0.929 . S
C237 C236 1.373 . S
C237 C238 1.396 . S
C237 C244 1.403 . S
C238 C228 1.476 . S
C238 N233 1.318 . S
C238 C237 1.396 . S
H239 C234 0.929 . S
O240 Mn216 2.385 . S
O240 C218 1.234 . S
O241 Mn216 2.209 . S
O241 Mn217 2.215 . S
O241 C218 1.283 . S
O242 Mn216 2.094 . S
O242 C220 1.240 . S
O243 Mn217 2.117 . S
O243 C220 1.264 . S
C244 C237 1.403 . S
C244 C245 1.399 . S
C244 H250 0.929 . S
C245 C225 1.449 . S
C245 C244 1.399 . S
C245 H251 0.930 . S
H246 C226 0.931 . S
H247 C227 0.930 . S
H248 C235 0.931 . S
H249 C236 0.929 . S
H250 C244 0.929 . S
H251 C245 0.930 . S
Mn252 O257 2.095 . S
Mn252 O267 2.162 . S
Mn252 O268 2.297 . S
Mn252 O276 2.385 . S
Mn252 O277 2.209 . S
Mn252 O278 2.094 . S
Mn253 O258 2.121 . S
Mn253 N260 2.257 1_455 S
Mn253 N269 2.282 1_455 S
Mn253 O277 2.215 . S
Mn253 O279 2.117 . S
C254 O276 1.234 . S
C254 O277 1.283 . S
C255 O267 1.281 . S
C255 O268 1.236 . S
C256 O278 1.240 . S
C256 O279 1.264 . S
O257 Mn252 2.095 . S
O257 C266 1.250 . S
O258 Mn253 2.121 . S
O258 C266 1.258 . S
C259 N260 1.326 . S
C259 C263 1.460 . S
C259 H265 0.929 . S
N260 Mn253 2.257 1_655 S
N260 C259 1.326 . S
N260 C264 1.362 . S
C261 C262 1.258 . S
C261 C264 1.431 . S
C261 C281 1.449 . S
C262 C261 1.258 . S
C262 C263 1.477 . S
C262 H282 0.931 . S
C263 C259 1.460 . S
C263 C262 1.477 . S
C263 H283 0.930 . S
C264 N260 1.362 . S
C264 C261 1.431 . S
C264 C274 1.476 . S
H265 C259 0.929 . S
C266 O257 1.250 . S
C266 O258 1.258 . S
O267 Mn252 2.162 . S
O267 C255 1.281 . S
O268 Mn252 2.297 . S
O268 C255 1.236 . S
N269 Mn253 2.282 1_655 S
N269 C270 1.328 . S
N269 C274 1.318 . S
C270 N269 1.328 . S
C270 C271 1.457 . S
C270 H275 0.929 . S
C271 C270 1.457 . S
C271 C272 1.291 . S
C271 H284 0.931 . S
C272 C271 1.291 . S
C272 C273 1.373 . S
C272 H285 0.929 . S
C273 C272 1.373 . S
C273 C274 1.396 . S
C273 C280 1.403 . S
C274 C264 1.476 . S
C274 N269 1.318 . S
C274 C273 1.396 . S
H275 C270 0.929 . S
O276 Mn252 2.385 . S
O276 C254 1.234 . S
O277 Mn252 2.209 . S
O277 Mn253 2.215 . S
O277 C254 1.283 . S
O278 Mn252 2.094 . S
O278 C256 1.240 . S
O279 Mn253 2.117 . S
O279 C256 1.264 . S
C280 C273 1.403 . S
C280 C281 1.399 . S
C280 H286 0.929 . S
C281 C261 1.449 . S
C281 C280 1.399 . S
C281 H287 0.930 . S
H282 C262 0.931 . S
H283 C263 0.930 . S
H284 C271 0.931 . S
H285 C272 0.929 . S
H286 C280 0.929 . S
H287 C281 0.930 . S
Mn288 O293 2.095 . S
Mn288 O303 2.162 . S
Mn288 O304 2.297 . S
Mn288 O312 2.385 . S
Mn288 O313 2.209 . S
Mn288 O314 2.094 . S
Mn289 O294 2.121 . S
Mn289 N296 2.257 1_545 S
Mn289 N305 2.282 1_545 S
Mn289 O313 2.215 . S
Mn289 O315 2.117 . S
C290 O312 1.234 . S
C290 O313 1.283 . S
C291 O303 1.281 . S
C291 O304 1.236 . S
C292 O314 1.240 . S
C292 O315 1.264 . S
O293 Mn288 2.095 . S
O293 C302 1.250 . S
O294 Mn289 2.121 . S
O294 C302 1.258 . S
C295 N296 1.326 . S
C295 C299 1.460 . S
C295 H301 0.929 . S
N296 Mn289 2.257 1_565 S
N296 C295 1.326 . S
N296 C300 1.362 . S
C297 C298 1.258 . S
C297 C300 1.431 . S
C297 C317 1.449 . S
C298 C297 1.258 . S
C298 C299 1.477 . S
C298 H318 0.931 . S
C299 C295 1.460 . S
C299 C298 1.477 . S
C299 H319 0.930 . S
C300 N296 1.362 . S
C300 C297 1.431 . S
C300 C310 1.476 . S
H301 C295 0.929 . S
C302 O293 1.250 . S
C302 O294 1.258 . S
O303 Mn288 2.162 . S
O303 C291 1.281 . S
O304 Mn288 2.297 . S
O304 C291 1.236 . S
N305 Mn289 2.282 1_565 S
N305 C306 1.328 . S
N305 C310 1.318 . S
C306 N305 1.328 . S
C306 C307 1.457 . S
C306 H311 0.929 . S
C307 C306 1.457 . S
C307 C308 1.291 . S
C307 H320 0.931 . S
C308 C307 1.291 . S
C308 C309 1.373 . S
C308 H321 0.929 . S
C309 C308 1.373 . S
C309 C310 1.396 . S
C309 C316 1.403 . S
C310 C300 1.476 . S
C310 N305 1.318 . S
C310 C309 1.396 . S
H311 C306 0.929 . S
O312 Mn288 2.385 . S
O312 C290 1.234 . S
O313 Mn288 2.209 . S
O313 Mn289 2.215 . S
O313 C290 1.283 . S
O314 Mn288 2.094 . S
O314 C292 1.240 . S
O315 Mn289 2.117 . S
O315 C292 1.264 . S
C316 C309 1.403 . S
C316 C317 1.399 . S
C316 H322 0.929 . S
C317 C297 1.449 . S
C317 C316 1.399 . S
C317 H323 0.930 . S
H318 C298 0.931 . S
H319 C299 0.930 . S
H320 C307 0.931 . S
H321 C308 0.929 . S
H322 C316 0.929 . S
H323 C317 0.930 . S
Mn324 O329 2.095 . S
Mn324 O339 2.162 . S
Mn324 O340 2.297 . S
Mn324 O348 2.385 . S
Mn324 O349 2.209 . S
Mn324 O350 2.094 . S
Mn325 O330 2.121 . S
Mn325 N332 2.257 . S
Mn325 N341 2.282 . S
Mn325 O349 2.215 . S
Mn325 O351 2.117 . S
C326 O348 1.234 . S
C326 O349 1.283 . S
C327 O339 1.281 . S
C327 O340 1.236 . S
C328 O350 1.240 . S
C328 O351 1.264 . S
O329 Mn324 2.095 . S
O329 C338 1.250 . S
O330 Mn325 2.121 . S
O330 C338 1.258 . S
C331 N332 1.326 . S
C331 C335 1.460 . S
C331 H337 0.929 . S
N332 Mn325 2.257 . S
N332 C331 1.326 . S
N332 C336 1.362 . S
C333 C334 1.258 . S
C333 C336 1.431 . S
C333 C353 1.449 . S
C334 C333 1.258 . S
C334 C335 1.477 . S
C334 H354 0.931 . S
C335 C331 1.460 . S
C335 C334 1.477 . S
C335 H355 0.930 . S
C336 N332 1.362 . S
C336 C333 1.431 . S
C336 C346 1.476 . S
H337 C331 0.929 . S
C338 O329 1.250 . S
C338 O330 1.258 . S
O339 Mn324 2.162 . S
O339 C327 1.281 . S
O340 Mn324 2.297 . S
O340 C327 1.236 . S
N341 Mn325 2.282 . S
N341 C342 1.328 . S
N341 C346 1.318 . S
C342 N341 1.328 . S
C342 C343 1.457 . S
C342 H347 0.929 . S
C343 C342 1.457 . S
C343 C344 1.291 . S
C343 H356 0.931 . S
C344 C343 1.291 . S
C344 C345 1.373 . S
C344 H357 0.929 . S
C345 C344 1.373 . S
C345 C346 1.396 . S
C345 C352 1.403 . S
C346 C336 1.476 . S
C346 N341 1.318 . S
C346 C345 1.396 . S
H347 C342 0.929 . S
O348 Mn324 2.385 . S
O348 C326 1.234 . S
O349 Mn324 2.209 . S
O349 Mn325 2.215 . S
O349 C326 1.283 . S
O350 Mn324 2.094 . S
O350 C328 1.240 . S
O351 Mn325 2.117 . S
O351 C328 1.264 . S
C352 C345 1.403 . S
C352 C353 1.399 . S
C352 H358 0.929 . S
C353 C333 1.449 . S
C353 C352 1.399 . S
C353 H359 0.930 . S
H354 C334 0.931 . S
H355 C335 0.930 . S
H356 C343 0.931 . S
H357 C344 0.929 . S
H358 C352 0.929 . S
H359 C353 0.930 . S
Mn360 O365 2.095 . S
Mn360 O375 2.162 . S
Mn360 O376 2.297 . S
Mn360 O384 2.385 . S
Mn360 O385 2.209 . S
Mn360 O386 2.094 . S
Mn361 O366 2.121 . S
Mn361 N368 2.257 1_655 S
Mn361 N377 2.282 1_655 S
Mn361 O385 2.215 . S
Mn361 O387 2.117 . S
C362 O384 1.234 . S
C362 O385 1.283 . S
C363 O375 1.281 . S
C363 O376 1.236 . S
C364 O386 1.240 . S
C364 O387 1.264 . S
O365 Mn360 2.095 . S
O365 C374 1.250 . S
O366 Mn361 2.121 . S
O366 C374 1.258 . S
C367 N368 1.326 . S
C367 C371 1.460 . S
C367 H373 0.929 . S
N368 Mn361 2.257 1_455 S
N368 C367 1.326 . S
N368 C372 1.362 . S
C369 C370 1.258 . S
C369 C372 1.431 . S
C369 C389 1.449 . S
C370 C369 1.258 . S
C370 C371 1.477 . S
C370 H390 0.931 . S
C371 C367 1.460 . S
C371 C370 1.477 . S
C371 H391 0.930 . S
C372 N368 1.362 . S
C372 C369 1.431 . S
C372 C382 1.476 . S
H373 C367 0.929 . S
C374 O365 1.250 . S
C374 O366 1.258 . S
O375 Mn360 2.162 . S
O375 C363 1.281 . S
O376 Mn360 2.297 . S
O376 C363 1.236 . S
N377 Mn361 2.282 1_455 S
N377 C378 1.328 . S
N377 C382 1.318 . S
C378 N377 1.328 . S
C378 C379 1.457 . S
C378 H383 0.929 . S
C379 C378 1.457 . S
C379 C380 1.291 . S
C379 H392 0.931 . S
C380 C379 1.291 . S
C380 C381 1.373 . S
C380 H393 0.929 . S
C381 C380 1.373 . S
C381 C382 1.396 . S
C381 C388 1.403 . S
C382 C372 1.476 . S
C382 N377 1.318 . S
C382 C381 1.396 . S
H383 C378 0.929 . S
O384 Mn360 2.385 . S
O384 C362 1.234 . S
O385 Mn360 2.209 . S
O385 Mn361 2.215 . S
O385 C362 1.283 . S
O386 Mn360 2.094 . S
O386 C364 1.240 . S
O387 Mn361 2.117 . S
O387 C364 1.264 . S
C388 C381 1.403 . S
C388 C389 1.399 . S
C388 H394 0.929 . S
C389 C369 1.449 . S
C389 C388 1.399 . S
C389 H395 0.930 . S
H390 C370 0.931 . S
H391 C371 0.930 . S
H392 C379 0.931 . S
H393 C380 0.929 . S
H394 C388 0.929 . S
H395 C389 0.930 . S
Mn396 O401 2.095 . S
Mn396 O411 2.162 . S
Mn396 O412 2.297 . S
Mn396 O420 2.385 . S
Mn396 O421 2.209 . S
Mn396 O422 2.094 . S
Mn397 O402 2.121 . S
Mn397 N404 2.257 1_565 S
Mn397 N413 2.282 1_565 S
Mn397 O421 2.215 . S
Mn397 O423 2.117 . S
C398 O420 1.234 . S
C398 O421 1.283 . S
C399 O411 1.281 . S
C399 O412 1.236 . S
C400 O422 1.240 . S
C400 O423 1.264 . S
O401 Mn396 2.095 . S
O401 C410 1.250 . S
O402 Mn397 2.121 . S
O402 C410 1.258 . S
C403 N404 1.326 . S
C403 C407 1.460 . S
C403 H409 0.929 . S
N404 Mn397 2.257 1_545 S
N404 C403 1.326 . S
N404 C408 1.362 . S
C405 C406 1.258 . S
C405 C408 1.431 . S
C405 C425 1.449 . S
C406 C405 1.258 . S
C406 C407 1.477 . S
C406 H426 0.931 . S
C407 C403 1.460 . S
C407 C406 1.477 . S
C407 H427 0.930 . S
C408 N404 1.362 . S
C408 C405 1.431 . S
C408 C418 1.476 . S
H409 C403 0.929 . S
C410 O401 1.250 . S
C410 O402 1.258 . S
O411 Mn396 2.162 . S
O411 C399 1.281 . S
O412 Mn396 2.297 . S
O412 C399 1.236 . S
N413 Mn397 2.282 1_545 S
N413 C414 1.328 . S
N413 C418 1.318 . S
C414 N413 1.328 . S
C414 C415 1.457 . S
C414 H419 0.929 . S
C415 C414 1.457 . S
C415 C416 1.291 . S
C415 H428 0.931 . S
C416 C415 1.291 . S
C416 C417 1.373 . S
C416 H429 0.929 . S
C417 C416 1.373 . S
C417 C418 1.396 . S
C417 C424 1.403 . S
C418 C408 1.476 . S
C418 N413 1.318 . S
C418 C417 1.396 . S
H419 C414 0.929 . S
O420 Mn396 2.385 . S
O420 C398 1.234 . S
O421 Mn396 2.209 . S
O421 Mn397 2.215 . S
O421 C398 1.283 . S
O422 Mn396 2.094 . S
O422 C400 1.240 . S
O423 Mn397 2.117 . S
O423 C400 1.264 . S
C424 C417 1.403 . S
C424 C425 1.399 . S
C424 H430 0.929 . S
C425 C405 1.449 . S
C425 C424 1.399 . S
C425 H431 0.930 . S
H426 C406 0.931 . S
H427 C407 0.930 . S
H428 C415 0.931 . S
H429 C416 0.929 . S
H430 C424 0.929 . S
H431 C425 0.930 . S
H432 C444 0.930 . S
H433 C446 0.930 . S
H434 C447 0.930 . S
H435 C451 0.959 . S
H436 C451 0.959 1_556 S
H437 C451 0.964 . S
H438 C452 0.937 1_556 S
H439 C452 0.933 1_556 S
H440 C452 0.979 . S
H441 C455 0.929 . S
H442 C456 0.931 . S
H443 C458 0.930 . S
C444 H432 0.930 . S
C444 C445 1.399 . S
C444 C449 1.399 . S
C445 C444 1.399 . S
C445 C446 1.376 . S
C446 H433 0.930 . S
C446 C445 1.376 . S
C446 C447 1.388 . S
C447 H434 0.930 . S
C447 C446 1.388 . S
C447 C448 1.390 . S
C448 C447 1.390 . S
C448 C449 1.394 . S
C448 C454 1.465 . S
C449 C444 1.399 . S
C449 C448 1.394 . S
C449 C450 1.516 . S
C450 C449 1.516 . S
C450 C451 1.502 . S
C450 C452 1.595 . S
C450 C453 1.526 . S
C451 H435 0.959 . S
C451 H436 0.959 1_554 S
C451 H437 0.964 . S
C451 C450 1.502 . S
C452 H438 0.937 1_554 S
C452 H439 0.933 1_554 S
C452 H440 0.979 . S
C452 C450 1.595 . S
C453 C450 1.526 . S
C453 C454 1.396 . S
C453 C458 1.390 . S
C454 C448 1.465 . S
C454 C453 1.396 . S
C454 C455 1.399 . S
C455 H441 0.929 . S
C455 C454 1.399 . S
C455 C456 1.385 . S
C456 H442 0.931 . S
C456 C455 1.385 . S
C456 C457 1.389 . S
C457 C456 1.389 . S
C457 C458 1.387 . S
C458 H443 0.930 . S
C458 C453 1.390 . S
C458 C457 1.387 . S
H459 C471 0.930 . S
H460 C473 0.930 . S
H461 C474 0.930 . S
H462 C478 0.959 . S
H463 C478 0.959 . S
H464 C478 0.961 . S
H465 C479 0.960 . S
H466 C479 0.961 1_655 S
H467 C479 0.959 . S
H468 C482 0.925 1_455 S
H469 C483 0.931 . S
H470 C485 0.930 . S
C471 H459 0.930 . S
C471 C472 1.399 . S
C471 C476 1.399 . S
C472 C471 1.399 . S
C472 C473 1.376 . S
C473 H460 0.930 . S
C473 C472 1.376 . S
C473 C474 1.388 . S
C474 H461 0.930 . S
C474 C473 1.388 . S
C474 C475 1.390 . S
C475 C474 1.390 . S
C475 C476 1.394 . S
C475 C481 1.481 . S
C476 C471 1.399 . S
C476 C475 1.394 . S
C476 C477 1.516 1_455 S
C477 C476 1.516 1_655 S
C477 C478 1.502 . S
C477 C479 1.561 1_655 S
C477 C480 1.526 . S
C478 H462 0.959 . S
C478 H463 0.959 . S
C478 H464 0.961 . S
C478 C477 1.502 . S
C479 H465 0.960 . S
C479 H466 0.961 1_455 S
C479 H467 0.959 . S
C479 C477 1.561 1_455 S
C480 C477 1.526 . S
C480 C481 1.387 1_655 S
C480 C485 1.390 . S
C481 C475 1.481 . S
C481 C480 1.387 1_455 S
C481 C482 1.389 1_455 S
C482 H468 0.925 1_655 S
C482 C481 1.389 1_655 S
C482 C483 1.393 . S
C483 H469 0.931 . S
C483 C482 1.393 . S
C483 C484 1.389 . S
C484 C483 1.389 . S
C484 C485 1.387 . S
C485 H470 0.930 . S
C485 C480 1.390 . S
C485 C484 1.387 . S
H486 C498 0.930 . S
H487 C500 0.930 . S
H488 C501 0.930 1_545 S
H489 C505 0.959 . S
H490 C505 0.959 . S
H491 C505 0.961 . S
H492 C506 0.960 . S
H493 C506 0.961 . S
H494 C506 0.959 . S
H495 C509 0.929 . S
H496 C510 0.931 . S
H497 C512 0.930 . S
C498 H486 0.930 . S
C498 C499 1.399 . S
C498 C503 1.399 . S
C499 C498 1.399 . S
C499 C500 1.376 . S
C500 H487 0.930 . S
C500 C499 1.376 . S
C500 C501 1.388 . S
C501 H488 0.930 1_565 S
C501 C500 1.388 . S
C501 C502 1.383 . S
C502 C501 1.383 . S
C502 C503 1.403 . S
C502 C508 1.466 1_565 S
C503 C498 1.399 . S
C503 C502 1.403 . S
C503 C504 1.516 . S
C504 C503 1.516 . S
C504 C505 1.502 . S
C504 C506 1.561 1_565 S
C504 C507 1.526 1_565 S
C505 H489 0.959 . S
C505 H490 0.959 . S
C505 H491 0.961 . S
C505 C504 1.502 . S
C506 H492 0.960 . S
C506 H493 0.961 . S
C506 H494 0.959 . S
C506 C504 1.561 1_545 S
C507 C504 1.526 1_545 S
C507 C508 1.396 . S
C507 C512 1.390 . S
C508 C502 1.466 1_545 S
C508 C507 1.396 . S
C508 C509 1.399 . S
C509 H495 0.929 . S
C509 C508 1.399 . S
C509 C510 1.385 . S
C510 H496 0.931 . S
C510 C509 1.385 . S
C510 C511 1.389 . S
C511 C510 1.389 . S
C511 C512 1.387 . S
C512 H497 0.930 . S
C512 C507 1.390 . S
C512 C511 1.387 . S
H513 C525 0.930 . S
H514 C527 0.930 . S
H515 C528 0.930 . S
H516 C532 0.959 . S
H517 C532 0.959 . S
H518 C532 0.961 . S
H519 C533 0.960 . S
H520 C533 0.961 . S
H521 C533 0.959 . S
H522 C536 0.929 . S
H523 C537 0.931 . S
H524 C539 0.930 . S
C525 H513 0.930 . S
C525 C526 1.399 . S
C525 C530 1.399 . S
C526 C525 1.399 . S
C526 C527 1.376 . S
C527 H514 0.930 . S
C527 C526 1.376 . S
C527 C528 1.388 . S
C528 H515 0.930 . S
C528 C527 1.388 . S
C528 C529 1.390 . S
C529 C528 1.390 . S
C529 C530 1.394 . S
C529 C535 1.465 . S
C530 C525 1.399 . S
C530 C529 1.394 . S
C530 C531 1.516 . S
C531 C530 1.516 . S
C531 C532 1.502 . S
C531 C533 1.561 . S
C531 C534 1.526 . S
C532 H516 0.959 . S
C532 H517 0.959 . S
C532 H518 0.961 . S
C532 C531 1.502 . S
C533 H519 0.960 . S
C533 H520 0.961 . S
C533 H521 0.959 . S
C533 C531 1.561 . S
C534 C531 1.526 . S
C534 C535 1.396 . S
C534 C539 1.390 . S
C535 C529 1.465 . S
C535 C534 1.396 . S
C535 C536 1.399 . S
C536 H522 0.929 . S
C536 C535 1.399 . S
C536 C537 1.385 . S
C537 H523 0.931 . S
C537 C536 1.385 . S
C537 C538 1.389 . S
C538 C537 1.389 . S
C538 C539 1.387 . S
C539 H524 0.930 . S
C539 C534 1.390 . S
C539 C538 1.387 . S
H540 C552 0.930 . S
H541 C554 0.930 . S
H542 C555 0.930 . S
H543 C559 0.959 . S
H544 C559 0.959 1_554 S
H545 C559 0.961 1_554 S
H546 C560 0.968 . S
H547 C560 0.970 . S
H548 C560 0.951 1_556 S
H549 C563 0.929 . S
H550 C564 0.931 . S
H551 C566 0.930 . S
C552 H540 0.930 . S
C552 C553 1.399 . S
C552 C557 1.399 . S
C553 C552 1.399 . S
C553 C554 1.376 . S
C554 H541 0.930 . S
C554 C553 1.376 . S
C554 C555 1.388 . S
C555 H542 0.930 . S
C555 C554 1.388 . S
C555 C556 1.390 . S
C556 C555 1.390 . S
C556 C557 1.394 . S
C556 C562 1.465 1_655 S
C557 C552 1.399 . S
C557 C556 1.394 . S
C557 C558 1.516 . S
C558 C557 1.516 . S
C558 C559 1.502 . S
C558 C560 1.552 1_656 S
C558 C561 1.526 1_655 S
C559 H543 0.959 . S
C559 H544 0.959 1_556 S
C559 H545 0.961 1_556 S
C559 C558 1.502 . S
C560 H546 0.968 . S
C560 H547 0.970 . S
C560 H548 0.951 1_554 S
C560 C558 1.552 1_454 S
C561 C558 1.526 1_455 S
C561 C562 1.396 . S
C561 C566 1.390 . S
C562 C556 1.465 1_455 S
C562 C561 1.396 . S
C562 C563 1.399 . S
C563 H549 0.929 . S
C563 C562 1.399 . S
C563 C564 1.385 . S
C564 H550 0.931 . S
C564 C563 1.385 . S
C564 C565 1.389 . S
C565 C564 1.389 . S
C565 C566 1.387 . S
C566 H551 0.930 . S
C566 C561 1.390 . S
C566 C565 1.387 . S
H567 C579 0.930 . S
H568 C581 0.930 . S
H569 C582 0.930 . S
H570 C586 0.959 . S
H571 C586 0.959 . S
H572 C586 0.961 . S
H573 C587 0.960 . S
H574 C587 0.961 . S
H575 C587 0.959 . S
H576 C590 0.922 1_545 S
H577 C591 0.931 . S
H578 C593 0.930 . S
C579 H567 0.930 . S
C579 C580 1.399 . S
C579 C584 1.399 . S
C580 C579 1.399 . S
C580 C581 1.376 . S
C581 H568 0.930 . S
C581 C580 1.376 . S
C581 C582 1.388 . S
C582 H569 0.930 . S
C582 C581 1.388 . S
C582 C583 1.390 . S
C583 C582 1.390 . S
C583 C584 1.394 . S
C583 C589 1.465 1_545 S
C584 C579 1.399 . S
C584 C583 1.394 . S
C584 C585 1.516 1_545 S
C585 C584 1.516 1_565 S
C585 C586 1.502 . S
C585 C587 1.561 1_565 S
C585 C588 1.526 . S
C586 H570 0.959 . S
C586 H571 0.959 . S
C586 H572 0.961 . S
C586 C585 1.502 . S
C587 H573 0.960 . S
C587 H574 0.961 . S
C587 H575 0.959 . S
C587 C585 1.561 1_545 S
C588 C585 1.526 . S
C588 C589 1.396 . S
C588 C593 1.390 . S
C589 C583 1.465 1_565 S
C589 C588 1.396 . S
C589 C590 1.399 . S
C590 H576 0.922 1_565 S
C590 C589 1.399 . S
C590 C591 1.385 . S
C591 H577 0.931 . S
C591 C590 1.385 . S
C591 C592 1.389 . S
C592 C591 1.389 . S
C592 C593 1.387 . S
C593 H578 0.930 . S
C593 C588 1.390 . S
C593 C592 1.387 . S
H594 C606 0.930 . S
H595 C608 0.930 . S
H596 C609 0.930 . S
H597 C613 0.959 . S
H598 C613 0.959 . S
H599 C613 0.961 . S
H600 C614 0.960 . S
H601 C614 0.961 . S
H602 C614 0.959 . S
H603 C617 0.929 . S
H604 C618 0.931 . S
H605 C620 0.930 . S
C606 H594 0.930 . S
C606 C607 1.399 . S
C606 C611 1.399 . S
C607 C606 1.399 . S
C607 C608 1.376 . S
C608 H595 0.930 . S
C608 C607 1.376 . S
C608 C609 1.388 . S
C609 H596 0.930 . S
C609 C608 1.388 . S
C609 C610 1.390 . S
C610 C609 1.390 . S
C610 C611 1.394 . S
C610 C616 1.465 . S
C611 C606 1.399 . S
C611 C610 1.394 . S
C611 C612 1.516 . S
C612 C611 1.516 . S
C612 C613 1.502 . S
C612 C614 1.561 . S
C612 C615 1.526 . S
C613 H597 0.959 . S
C613 H598 0.959 . S
C613 H599 0.961 . S
C613 C612 1.502 . S
C614 H600 0.960 . S
C614 H601 0.961 . S
C614 H602 0.959 . S
C614 C612 1.561 . S
C615 C612 1.526 . S
C615 C616 1.396 . S
C615 C620 1.390 . S
C616 C610 1.465 . S
C616 C615 1.396 . S
C616 C617 1.399 . S
C617 H603 0.929 . S
C617 C616 1.399 . S
C617 C618 1.385 . S
C618 H604 0.931 . S
C618 C617 1.385 . S
C618 C619 1.389 . S
C619 C618 1.389 . S
C619 C620 1.387 . S
C620 H605 0.930 . S
C620 C615 1.390 . S
C620 C619 1.387 . S
H621 C633 0.930 . S
H622 C635 0.930 . S
H623 C636 0.930 . S
H624 C640 0.959 . S
H625 C640 0.959 . S
H626 C640 0.961 . S
H627 C641 0.960 . S
H628 C641 0.961 . S
H629 C641 0.959 . S
H630 C644 0.929 . S
H631 C645 0.931 . S
H632 C647 0.930 . S
C633 H621 0.930 . S
C633 C634 1.399 . S
C633 C638 1.399 . S
C634 C633 1.399 . S
C634 C635 1.376 . S
C635 H622 0.930 . S
C635 C634 1.376 . S
C635 C636 1.388 . S
C636 H623 0.930 . S
C636 C635 1.388 . S
C636 C637 1.390 . S
C637 C636 1.390 . S
C637 C638 1.394 . S
C637 C643 1.465 . S
C638 C633 1.399 . S
C638 C637 1.394 . S
C638 C639 1.516 . S
C639 C638 1.516 . S
C639 C640 1.502 . S
C639 C641 1.561 . S
C639 C642 1.526 . S
C640 H624 0.959 . S
C640 H625 0.959 . S
C640 H626 0.961 . S
C640 C639 1.502 . S
C641 H627 0.960 . S
C641 H628 0.961 . S
C641 H629 0.959 . S
C641 C639 1.561 . S
C642 C639 1.526 . S
C642 C643 1.396 . S
C642 C647 1.390 . S
C643 C637 1.465 . S
C643 C642 1.396 . S
C643 C644 1.399 . S
C644 H630 0.929 . S
C644 C643 1.399 . S
C644 C645 1.385 . S
C645 H631 0.931 . S
C645 C644 1.385 . S
C645 C646 1.389 . S
C646 C645 1.389 . S
C646 C647 1.387 . S
C647 H632 0.930 . S
C647 C642 1.390 . S
C647 C646 1.387 . S
H648 C660 0.930 . S
H649 C662 0.930 . S
H650 C663 0.930 . S
H651 C667 0.959 . S
H652 C667 0.959 . S
H653 C667 0.961 . S
H654 C668 0.960 . S
H655 C668 0.961 . S
H656 C668 0.959 . S
H657 C671 0.929 . S
H658 C672 0.931 . S
H659 C674 0.930 . S
C660 H648 0.930 . S
C660 C661 1.399 . S
C660 C665 1.399 . S
C661 C660 1.399 . S
C661 C662 1.376 . S
C662 H649 0.930 . S
C662 C661 1.376 . S
C662 C663 1.388 . S
C663 H650 0.930 . S
C663 C662 1.388 . S
C663 C664 1.390 . S
C664 C663 1.390 . S
C664 C665 1.394 . S
C664 C670 1.465 . S
C665 C660 1.399 . S
C665 C664 1.394 . S
C665 C666 1.516 . S
C666 C665 1.516 . S
C666 C667 1.502 . S
C666 C668 1.561 . S
C666 C669 1.526 . S
C667 H651 0.959 . S
C667 H652 0.959 . S
C667 H653 0.961 . S
C667 C666 1.502 . S
C668 H654 0.960 . S
C668 H655 0.961 . S
C668 H656 0.959 . S
C668 C666 1.561 . S
C669 C666 1.526 . S
C669 C670 1.396 . S
C669 C674 1.390 . S
C670 C664 1.465 . S
C670 C669 1.396 . S
C670 C671 1.399 . S
C671 H657 0.929 . S
C671 C670 1.399 . S
C671 C672 1.385 . S
C672 H658 0.931 . S
C672 C671 1.385 . S
C672 C673 1.389 . S
C673 C672 1.389 . S
C673 C674 1.387 . S
C674 H659 0.930 . S
C674 C669 1.390 . S
C674 C673 1.387 . S
H675 C687 0.930 . S
H676 C689 0.930 . S
H677 C690 0.930 . S
H678 C694 0.959 . S
H679 C694 0.959 . S
H680 C694 0.961 . S
H681 C695 0.960 . S
H682 C695 0.961 . S
H683 C695 0.959 . S
H684 C698 0.929 . S
H685 C699 0.931 . S
H686 C701 0.930 . S
C687 H675 0.930 . S
C687 C688 1.399 . S
C687 C692 1.399 . S
C688 C687 1.399 . S
C688 C689 1.376 . S
C689 H676 0.930 . S
C689 C688 1.376 . S
C689 C690 1.388 . S
C690 H677 0.930 . S
C690 C689 1.388 . S
C690 C691 1.390 . S
C691 C690 1.390 . S
C691 C692 1.394 . S
C691 C697 1.465 . S
C692 C687 1.399 . S
C692 C691 1.394 . S
C692 C693 1.516 . S
C693 C692 1.516 . S
C693 C694 1.502 . S
C693 C695 1.561 . S
C693 C696 1.526 . S
C694 H678 0.959 . S
C694 H679 0.959 . S
C694 H680 0.961 . S
C694 C693 1.502 . S
C695 H681 0.960 . S
C695 H682 0.961 . S
C695 H683 0.959 . S
C695 C693 1.561 . S
C696 C693 1.526 . S
C696 C697 1.396 . S
C696 C701 1.390 . S
C697 C691 1.465 . S
C697 C696 1.396 . S
C697 C698 1.399 . S
C698 H684 0.929 . S
C698 C697 1.399 . S
C698 C699 1.385 . S
C699 H685 0.931 . S
C699 C698 1.385 . S
C699 C700 1.389 . S
C700 C699 1.389 . S
C700 C701 1.387 . S
C701 H686 0.930 . S
C701 C696 1.390 . S
C701 C700 1.387 . S
H702 C714 0.930 . S
H703 C716 0.930 . S
H704 C717 0.930 . S
H705 C721 0.959 . S
H706 C721 0.959 . S
H707 C721 0.961 . S
H708 C722 0.960 . S
H709 C722 0.961 . S
H710 C722 0.959 . S
H711 C725 0.929 . S
H712 C726 0.931 . S
H713 C728 0.930 . S
C714 H702 0.930 . S
C714 C715 1.399 . S
C714 C719 1.399 . S
C715 C714 1.399 . S
C715 C716 1.376 . S
C716 H703 0.930 . S
C716 C715 1.376 . S
C716 C717 1.388 . S
C717 H704 0.930 . S
C717 C716 1.388 . S
C717 C718 1.390 . S
C718 C717 1.390 . S
C718 C719 1.394 . S
C718 C724 1.465 . S
C719 C714 1.399 . S
C719 C718 1.394 . S
C719 C720 1.516 . S
C720 C719 1.516 . S
C720 C721 1.502 . S
C720 C722 1.561 . S
C720 C723 1.526 . S
C721 H705 0.959 . S
C721 H706 0.959 . S
C721 H707 0.961 . S
C721 C720 1.502 . S
C722 H708 0.960 . S
C722 H709 0.961 . S
C722 H710 0.959 . S
C722 C720 1.561 . S
C723 C720 1.526 . S
C723 C724 1.396 . S
C723 C728 1.390 . S
C724 C718 1.465 . S
C724 C723 1.396 . S
C724 C725 1.399 . S
C725 H711 0.929 . S
C725 C724 1.399 . S
C725 C726 1.385 . S
C726 H712 0.931 . S
C726 C725 1.385 . S
C726 C727 1.389 . S
C727 C726 1.389 . S
C727 C728 1.387 . S
C728 H713 0.930 . S
C728 C723 1.390 . S
C728 C727 1.387 . S
H729 C741 0.930 . S
H730 C743 0.930 . S
H731 C744 0.930 . S
H732 C748 0.959 . S
H733 C748 0.959 . S
H734 C748 0.961 . S
H735 C749 0.960 . S
H736 C749 0.961 . S
H737 C749 0.959 . S
H738 C752 0.929 . S
H739 C753 0.931 . S
H740 C755 0.930 . S
C741 H729 0.930 . S
C741 C742 1.399 . S
C741 C746 1.399 . S
C742 C741 1.399 . S
C742 C743 1.376 . S
C743 H730 0.930 . S
C743 C742 1.376 . S
C743 C744 1.388 . S
C744 H731 0.930 . S
C744 C743 1.388 . S
C744 C745 1.390 . S
C745 C744 1.390 . S
C745 C746 1.394 . S
C745 C751 1.465 . S
C746 C741 1.399 . S
C746 C745 1.394 . S
C746 C747 1.516 . S
C747 C746 1.516 . S
C747 C748 1.502 . S
C747 C749 1.561 . S
C747 C750 1.526 . S
C748 H732 0.959 . S
C748 H733 0.959 . S
C748 H734 0.961 . S
C748 C747 1.502 . S
C749 H735 0.960 . S
C749 H736 0.961 . S
C749 H737 0.959 . S
C749 C747 1.561 . S
C750 C747 1.526 . S
C750 C751 1.396 . S
C750 C755 1.390 . S
C751 C745 1.465 . S
C751 C750 1.396 . S
C751 C752 1.399 . S
C752 H738 0.929 . S
C752 C751 1.399 . S
C752 C753 1.385 . S
C753 H739 0.931 . S
C753 C752 1.385 . S
C753 C754 1.389 . S
C754 C753 1.389 . S
C754 C755 1.387 . S
C755 H740 0.930 . S
C755 C750 1.390 . S
C755 C754 1.387 . S
H756 C768 0.930 . S
H757 C770 0.930 . S
H758 C771 0.930 . S
H759 C775 0.959 . S
H760 C775 0.959 . S
H761 C775 0.961 . S
H762 C776 0.960 . S
H763 C776 0.961 . S
H764 C776 0.959 . S
H765 C779 0.929 . S
H766 C780 0.931 . S
H767 C782 0.930 . S
C768 H756 0.930 . S
C768 C769 1.399 1_554 S
C768 C773 1.399 . S
C769 C768 1.399 1_556 S
C769 C770 1.376 . S
C770 H757 0.930 . S
C770 C769 1.376 . S
C770 C771 1.388 . S
C771 H758 0.930 . S
C771 C770 1.388 . S
C771 C772 1.390 . S
C772 C771 1.390 . S
C772 C773 1.394 1_556 S
C772 C778 1.465 1_565 S
C773 C768 1.399 . S
C773 C772 1.394 1_554 S
C773 C774 1.516 . S
C774 C773 1.516 . S
C774 C775 1.502 . S
C774 C776 1.561 . S
C774 C777 1.526 1_565 S
C775 H759 0.959 . S
C775 H760 0.959 . S
C775 H761 0.961 . S
C775 C774 1.502 . S
C776 H762 0.960 . S
C776 H763 0.961 . S
C776 H764 0.959 . S
C776 C774 1.561 . S
C777 C774 1.526 1_545 S
C777 C778 1.396 1_554 S
C777 C782 1.390 . S
C778 C772 1.465 1_545 S
C778 C777 1.396 1_556 S
C778 C779 1.399 . S
C779 H765 0.929 . S
C779 C778 1.399 . S
C779 C780 1.385 . S
C780 H766 0.931 . S
C780 C779 1.385 . S
C780 C781 1.389 1_556 S
C781 C780 1.389 1_554 S
C781 C782 1.387 . S
C782 H767 0.930 . S
C782 C777 1.390 . S
C782 C781 1.387 . S
H783 C795 0.930 . S
H784 C797 0.930 . S
H785 C798 0.930 . S
H786 C802 0.959 . S
H787 C802 0.959 . S
H788 C802 0.961 . S
H789 C803 0.960 . S
H790 C803 0.961 . S
H791 C803 0.959 . S
H792 C806 0.929 . S
H793 C807 0.931 . S
H794 C809 0.930 . S
C795 H783 0.930 . S
C795 C796 1.399 . S
C795 C800 1.399 . S
C796 C795 1.399 . S
C796 C797 1.376 . S
C797 H784 0.930 . S
C797 C796 1.376 . S
C797 C798 1.388 . S
C798 H785 0.930 . S
C798 C797 1.388 . S
C798 C799 1.390 . S
C799 C798 1.390 . S
C799 C800 1.394 . S
C799 C805 1.465 . S
C800 C795 1.399 . S
C800 C799 1.394 . S
C800 C801 1.516 . S
C801 C800 1.516 . S
C801 C802 1.502 . S
C801 C803 1.561 . S
C801 C804 1.526 . S
C802 H786 0.959 . S
C802 H787 0.959 . S
C802 H788 0.961 . S
C802 C801 1.502 . S
C803 H789 0.960 . S
C803 H790 0.961 . S
C803 H791 0.959 . S
C803 C801 1.561 . S
C804 C801 1.526 . S
C804 C805 1.396 . S
C804 C809 1.390 . S
C805 C799 1.465 . S
C805 C804 1.396 . S
C805 C806 1.399 . S
C806 H792 0.929 . S
C806 C805 1.399 . S
C806 C807 1.385 . S
C807 H793 0.931 . S
C807 C806 1.385 . S
C807 C808 1.389 . S
C808 C807 1.389 . S
C808 C809 1.387 . S
C809 H794 0.930 . S
C809 C804 1.390 . S
C809 C808 1.387 . S
H810 C822 0.930 . S
H811 C824 0.930 . S
H812 C825 0.930 . S
H813 C829 0.959 1_455 S
H814 C829 0.959 1_455 S
H815 C829 0.961 . S
H816 C830 0.960 . S
H817 C830 0.961 . S
H818 C830 0.959 . S
H819 C833 0.929 . S
H820 C834 0.931 . S
H821 C836 0.930 . S
C822 H810 0.930 . S
C822 C823 1.399 . S
C822 C827 1.399 . S
C823 C822 1.399 . S
C823 C824 1.376 . S
C824 H811 0.930 . S
C824 C823 1.376 . S
C824 C825 1.388 . S
C825 H812 0.930 . S
C825 C824 1.388 . S
C825 C826 1.390 . S
C826 C825 1.390 . S
C826 C827 1.394 . S
C826 C832 1.465 1_655 S
C827 C822 1.399 . S
C827 C826 1.394 . S
C827 C828 1.516 . S
C828 C827 1.516 . S
C828 C829 1.502 . S
C828 C830 1.561 . S
C828 C831 1.526 1_655 S
C829 H813 0.959 1_655 S
C829 H814 0.959 1_655 S
C829 H815 0.961 . S
C829 C828 1.502 . S
C830 H816 0.960 . S
C830 H817 0.961 . S
C830 H818 0.959 . S
C830 C828 1.561 . S
C831 C828 1.526 1_455 S
C831 C832 1.396 . S
C831 C836 1.390 . S
C832 C826 1.465 1_455 S
C832 C831 1.396 . S
C832 C833 1.399 . S
C833 H819 0.929 . S
C833 C832 1.399 . S
C833 C834 1.385 . S
C834 H820 0.931 . S
C834 C833 1.385 . S
C834 C835 1.389 . S
C835 C834 1.389 . S
C835 C836 1.387 . S
C836 H821 0.930 . S
C836 C831 1.390 . S
C836 C835 1.387 . S
H837 C849 0.919 1_556 S
H838 C851 0.930 . S
H839 C852 0.930 . S
H840 C856 0.959 . S
H841 C856 0.959 . S
H842 C856 0.961 . S
H843 C857 0.960 . S
H844 C857 0.961 . S
H845 C857 0.959 . S
H846 C860 0.929 . S
H847 C861 0.931 . S
H848 C863 0.930 . S
C849 H837 0.919 1_554 S
C849 C850 1.412 . S
C849 C854 1.398 1_554 S
C850 C849 1.412 . S
C850 C851 1.376 . S
C851 H838 0.930 . S
C851 C850 1.376 . S
C851 C852 1.388 . S
C852 H839 0.930 . S
C852 C851 1.388 . S
C852 C853 1.390 . S
C853 C852 1.390 . S
C853 C854 1.394 1_554 S
C853 C859 1.465 1_565 S
C854 C849 1.398 1_556 S
C854 C853 1.394 1_556 S
C854 C855 1.516 . S
C855 C854 1.516 . S
C855 C856 1.502 . S
C855 C857 1.561 . S
C855 C858 1.526 1_565 S
C856 H840 0.959 . S
C856 H841 0.959 . S
C856 H842 0.961 . S
C856 C855 1.502 . S
C857 H843 0.960 . S
C857 H844 0.961 . S
C857 H845 0.959 . S
C857 C855 1.561 . S
C858 C855 1.526 1_545 S
C858 C859 1.396 1_556 S
C858 C863 1.390 . S
C859 C853 1.465 1_545 S
C859 C858 1.396 1_554 S
C859 C860 1.399 . S
C860 H846 0.929 . S
C860 C859 1.399 . S
C860 C861 1.385 . S
C861 H847 0.931 . S
C861 C860 1.385 . S
C861 C862 1.389 1_554 S
C862 C861 1.389 1_556 S
C862 C863 1.387 . S
C863 H848 0.930 . S
C863 C858 1.390 . S
C863 C862 1.387 . S
H864 C876 0.930 . S
H865 C878 0.930 . S
H866 C879 0.930 . S
H867 C883 0.959 . S
H868 C883 0.959 . S
H869 C883 0.961 . S
H870 C884 0.960 . S
H871 C884 0.961 . S
H872 C884 0.959 . S
H873 C887 0.929 . S
H874 C888 0.931 . S
H875 C890 0.930 . S
C876 H864 0.930 . S
C876 C877 1.399 . S
C876 C881 1.399 . S
C877 C876 1.399 . S
C877 C878 1.376 . S
C878 H865 0.930 . S
C878 C877 1.376 . S
C878 C879 1.388 . S
C879 H866 0.930 . S
C879 C878 1.388 . S
C879 C880 1.390 . S
C880 C879 1.390 . S
C880 C881 1.394 . S
C880 C886 1.465 . S
C881 C876 1.399 . S
C881 C880 1.394 . S
C881 C882 1.516 . S
C882 C881 1.516 . S
C882 C883 1.502 . S
C882 C884 1.561 . S
C882 C885 1.526 . S
C883 H867 0.959 . S
C883 H868 0.959 . S
C883 H869 0.961 . S
C883 C882 1.502 . S
C884 H870 0.960 . S
C884 H871 0.961 . S
C884 H872 0.959 . S
C884 C882 1.561 . S
C885 C882 1.526 . S
C885 C886 1.396 . S
C885 C890 1.390 . S
C886 C880 1.465 . S
C886 C885 1.396 . S
C886 C887 1.399 . S
C887 H873 0.929 . S
C887 C886 1.399 . S
C887 C888 1.385 . S
C888 H874 0.931 . S
C888 C887 1.385 . S
C888 C889 1.389 . S
C889 C888 1.389 . S
C889 C890 1.387 . S
C890 H875 0.930 . S
C890 C885 1.390 . S
C890 C889 1.387 . S
H891 C903 0.930 . S
H892 C905 0.930 . S
H893 C906 0.930 . S
H894 C910 0.959 . S
H895 C910 0.959 . S
H896 C910 0.961 . S
H897 C911 0.960 . S
H898 C911 0.961 . S
H899 C911 0.959 . S
H900 C914 0.929 . S
H901 C915 0.931 . S
H902 C917 0.930 . S
C903 H891 0.930 . S
C903 C904 1.399 . S
C903 C908 1.399 . S
C904 C903 1.399 . S
C904 C905 1.376 . S
C905 H892 0.930 . S
C905 C904 1.376 . S
C905 C906 1.388 . S
C906 H893 0.930 . S
C906 C905 1.388 . S
C906 C907 1.390 . S
C907 C906 1.390 . S
C907 C908 1.394 . S
C907 C913 1.465 1_455 S
C908 C903 1.399 . S
C908 C907 1.394 . S
C908 C909 1.516 1_455 S
C909 C908 1.516 1_655 S
C909 C910 1.502 . S
C909 C911 1.561 . S
C909 C912 1.526 . S
C910 H894 0.959 . S
C910 H895 0.959 . S
C910 H896 0.961 . S
C910 C909 1.502 . S
C911 H897 0.960 . S
C911 H898 0.961 . S
C911 H899 0.959 . S
C911 C909 1.561 . S
C912 C909 1.526 . S
C912 C913 1.396 . S
C912 C917 1.390 . S
C913 C907 1.465 1_655 S
C913 C912 1.396 . S
C913 C914 1.399 . S
C914 H900 0.929 . S
C914 C913 1.399 . S
C914 C915 1.385 . S
C915 H901 0.931 . S
C915 C914 1.385 . S
C915 C916 1.389 . S
C916 C915 1.389 . S
C916 C917 1.387 . S
C917 H902 0.930 . S
C917 C912 1.390 . S
C917 C916 1.387 . S
H918 C930 0.930 . S
H919 C932 0.930 1_655 S
H920 C933 0.926 1_554 S
H921 C937 0.959 . S
H922 C937 0.959 . S
H923 C937 0.961 . S
H924 C938 0.960 . S
H925 C938 0.961 . S
H926 C938 0.959 . S
H927 C941 0.929 . S
H928 C942 0.931 . S
H929 C944 0.930 . S
C930 H918 0.930 . S
C930 C931 1.399 . S
C930 C935 1.399 . S
C931 C930 1.399 . S
C931 C932 1.376 . S
C932 H919 0.930 1_455 S
C932 C931 1.376 . S
C932 C933 1.388 . S
C933 H920 0.926 1_556 S
C933 C932 1.388 . S
C933 C934 1.389 1_556 S
C934 C933 1.389 1_554 S
C934 C935 1.392 1_554 S
C934 C940 1.468 . S
C935 C930 1.399 . S
C935 C934 1.392 1_556 S
C935 C936 1.516 1_556 S
C936 C935 1.516 1_554 S
C936 C937 1.502 1_554 S
C936 C938 1.561 . S
C936 C939 1.526 . S
C937 H921 0.959 . S
C937 H922 0.959 . S
C937 H923 0.961 . S
C937 C936 1.502 1_556 S
C938 H924 0.960 . S
C938 H925 0.961 . S
C938 H926 0.959 . S
C938 C936 1.561 . S
C939 C936 1.526 . S
C939 C940 1.396 . S
C939 C944 1.390 . S
C940 C934 1.468 . S
C940 C939 1.396 . S
C940 C941 1.399 . S
C941 H927 0.929 . S
C941 C940 1.399 . S
C941 C942 1.385 . S
C942 H928 0.931 . S
C942 C941 1.385 . S
C942 C943 1.389 . S
C943 C942 1.389 . S
C943 C944 1.387 . S
C944 H929 0.930 . S
C944 C939 1.390 . S
C944 C943 1.387 . S
H945 C957 0.930 . S
H946 C959 0.930 . S
H947 C960 0.930 . S
H948 C964 0.959 . S
H949 C964 0.959 . S
H950 C964 0.961 . S
H951 C965 0.960 . S
H952 C965 0.961 . S
H953 C965 0.959 . S
H954 C968 0.929 . S
H955 C969 0.931 1_455 S
H956 C971 0.930 . S
C957 H945 0.930 . S
C957 C958 1.399 . S
C957 C962 1.399 . S
C958 C957 1.399 . S
C958 C959 1.376 . S
C959 H946 0.930 . S
C959 C958 1.376 . S
C959 C960 1.388 . S
C960 H947 0.930 . S
C960 C959 1.388 . S
C960 C961 1.390 . S
C961 C960 1.390 . S
C961 C962 1.394 . S
C961 C967 1.465 . S
C962 C957 1.399 . S
C962 C961 1.394 . S
C962 C963 1.516 . S
C963 C962 1.516 . S
C963 C964 1.502 . S
C963 C965 1.561 . S
C963 C966 1.526 . S
C964 H948 0.959 . S
C964 H949 0.959 . S
C964 H950 0.961 . S
C964 C963 1.502 . S
C965 H951 0.960 . S
C965 H952 0.961 . S
C965 H953 0.959 . S
C965 C963 1.561 . S
C966 C963 1.526 . S
C966 C967 1.396 . S
C966 C971 1.390 . S
C967 C961 1.465 . S
C967 C966 1.396 . S
C967 C968 1.399 . S
C968 H954 0.929 . S
C968 C967 1.399 . S
C968 C969 1.385 . S
C969 H955 0.931 1_655 S
C969 C968 1.385 . S
C969 C970 1.389 . S
C970 C969 1.389 . S
C970 C971 1.387 . S
C971 H956 0.930 . S
C971 C966 1.390 . S
C971 C970 1.387 . S
H972 C984 0.930 . S
H973 C986 0.930 . S
H974 C987 0.930 . S
H975 C991 0.959 . S
H976 C991 0.959 . S
H977 C991 0.961 . S
H978 C992 0.960 . S
H979 C992 0.961 . S
H980 C992 0.959 . S
H981 C995 0.929 . S
H982 C996 0.931 . S
H983 C998 0.930 . S
C984 H972 0.930 . S
C984 C985 1.399 . S
C984 C989 1.399 . S
C985 C984 1.399 . S
C985 C986 1.376 . S
C986 H973 0.930 . S
C986 C985 1.376 . S
C986 C987 1.388 . S
C987 H974 0.930 . S
C987 C986 1.388 . S
C987 C988 1.390 . S
C988 C987 1.390 . S
C988 C989 1.394 . S
C988 C994 1.465 . S
C989 C984 1.399 . S
C989 C988 1.394 . S
C989 C990 1.516 . S
C990 C989 1.516 . S
C990 C991 1.502 . S
C990 C992 1.561 . S
C990 C993 1.526 . S
C991 H975 0.959 . S
C991 H976 0.959 . S
C991 H977 0.961 . S
C991 C990 1.502 . S
C992 H978 0.960 . S
C992 H979 0.961 . S
C992 H980 0.959 . S
C992 C990 1.561 . S
C993 C990 1.526 . S
C993 C994 1.396 . S
C993 C998 1.390 . S
C994 C988 1.465 . S
C994 C993 1.396 . S
C994 C995 1.399 . S
C995 H981 0.929 . S
C995 C994 1.399 . S
C995 C996 1.385 . S
C996 H982 0.931 . S
C996 C995 1.385 . S
C996 C997 1.389 . S
C997 C996 1.389 . S
C997 C998 1.387 . S
C998 H983 0.930 . S
C998 C993 1.390 . S
C998 C997 1.387 . S
H999 C1011 0.930 . S
H1000 C1013 0.930 . S
H1001 C1014 0.930 . S
H1002 C1018 0.959 . S
H1003 C1018 0.959 . S
H1004 C1018 0.961 . S
H1005 C1019 0.960 . S
H1006 C1019 0.961 . S
H1007 C1019 0.959 . S
H1008 C1022 0.929 . S
H1009 C1023 0.931 . S
H1010 C1025 0.930 . S
C1011 H999 0.930 . S
C1011 C1012 1.399 . S
C1011 C1016 1.399 . S
C1012 C1011 1.399 . S
C1012 C1013 1.376 . S
C1013 H1000 0.930 . S
C1013 C1012 1.376 . S
C1013 C1014 1.388 . S
C1014 H1001 0.930 . S
C1014 C1013 1.388 . S
C1014 C1015 1.390 . S
C1015 C1014 1.390 . S
C1015 C1016 1.394 . S
C1015 C1021 1.465 . S
C1016 C1011 1.399 . S
C1016 C1015 1.394 . S
C1016 C1017 1.516 1_554 S
C1017 C1016 1.516 1_556 S
C1017 C1018 1.502 . S
C1017 C1019 1.561 1_556 S
C1017 C1020 1.526 . S
C1018 H1002 0.959 . S
C1018 H1003 0.959 . S
C1018 H1004 0.961 . S
C1018 C1017 1.502 . S
C1019 H1005 0.960 . S
C1019 H1006 0.961 . S
C1019 H1007 0.959 . S
C1019 C1017 1.561 1_554 S
C1020 C1017 1.526 . S
C1020 C1021 1.396 1_556 S
C1020 C1025 1.390 . S
C1021 C1015 1.465 . S
C1021 C1020 1.396 1_554 S
C1021 C1022 1.399 . S
C1022 H1008 0.929 . S
C1022 C1021 1.399 . S
C1022 C1023 1.385 1_554 S
C1023 H1009 0.931 . S
C1023 C1022 1.385 1_556 S
C1023 C1024 1.389 . S
C1024 C1023 1.389 . S
C1024 C1025 1.387 . S
C1025 H1010 0.930 . S
C1025 C1020 1.390 . S
C1025 C1024 1.387 . S
H1026 C1038 0.930 . S
H1027 C1040 0.930 . S
H1028 C1041 0.930 . S
H1029 C1045 0.959 . S
H1030 C1045 0.959 . S
H1031 C1045 0.961 . S
H1032 C1046 0.960 . S
H1033 C1046 0.961 . S
H1034 C1046 0.959 . S
H1035 C1049 0.929 . S
H1036 C1050 0.931 1_545 S
H1037 C1052 0.930 . S
C1038 H1026 0.930 . S
C1038 C1039 1.399 . S
C1038 C1043 1.399 . S
C1039 C1038 1.399 . S
C1039 C1040 1.376 . S
C1040 H1027 0.930 . S
C1040 C1039 1.376 . S
C1040 C1041 1.388 . S
C1041 H1028 0.930 . S
C1041 C1040 1.388 . S
C1041 C1042 1.390 . S
C1042 C1041 1.390 . S
C1042 C1043 1.394 . S
C1042 C1048 1.465 . S
C1043 C1038 1.399 . S
C1043 C1042 1.394 . S
C1043 C1044 1.516 . S
C1044 C1043 1.516 . S
C1044 C1045 1.502 . S
C1044 C1046 1.561 . S
C1044 C1047 1.526 . S
C1045 H1029 0.959 . S
C1045 H1030 0.959 . S
C1045 H1031 0.961 . S
C1045 C1044 1.502 . S
C1046 H1032 0.960 . S
C1046 H1033 0.961 . S
C1046 H1034 0.959 . S
C1046 C1044 1.561 . S
C1047 C1044 1.526 . S
C1047 C1048 1.396 . S
C1047 C1052 1.390 . S
C1048 C1042 1.465 . S
C1048 C1047 1.396 . S
C1048 C1049 1.399 . S
C1049 H1035 0.929 . S
C1049 C1048 1.399 . S
C1049 C1050 1.385 . S
C1050 H1036 0.931 1_565 S
C1050 C1049 1.385 . S
C1050 C1051 1.389 . S
C1051 C1050 1.389 . S
C1051 C1052 1.387 . S
C1052 H1037 0.930 . S
C1052 C1047 1.390 . S
C1052 C1051 1.387 . S
H1053 C1065 0.930 . S
H1054 C1067 0.930 . S
H1055 C1068 0.930 . S
H1056 C1072 0.959 . S
H1057 C1072 0.959 . S
H1058 C1072 0.961 . S
H1059 C1073 0.960 . S
H1060 C1073 0.961 . S
H1061 C1073 0.959 . S
H1062 C1076 0.929 . S
H1063 C1077 0.931 . S
H1064 C1079 0.930 . S
C1065 H1053 0.930 . S
C1065 C1066 1.399 . S
C1065 C1070 1.399 . S
C1066 C1065 1.399 . S
C1066 C1067 1.376 . S
C1067 H1054 0.930 . S
C1067 C1066 1.376 . S
C1067 C1068 1.388 . S
C1068 H1055 0.930 . S
C1068 C1067 1.388 . S
C1068 C1069 1.390 . S
C1069 C1068 1.390 . S
C1069 C1070 1.394 . S
C1069 C1075 1.465 . S
C1070 C1065 1.399 . S
C1070 C1069 1.394 . S
C1070 C1071 1.516 . S
C1071 C1070 1.516 . S
C1071 C1072 1.502 . S
C1071 C1073 1.561 . S
C1071 C1074 1.526 . S
C1072 H1056 0.959 . S
C1072 H1057 0.959 . S
C1072 H1058 0.961 . S
C1072 C1071 1.502 . S
C1073 H1059 0.960 . S
C1073 H1060 0.961 . S
C1073 H1061 0.959 . S
C1073 C1071 1.561 . S
C1074 C1071 1.526 . S
C1074 C1075 1.396 . S
C1074 C1079 1.390 . S
C1075 C1069 1.465 . S
C1075 C1074 1.396 . S
C1075 C1076 1.399 . S
C1076 H1062 0.929 . S
C1076 C1075 1.399 . S
C1076 C1077 1.385 . S
C1077 H1063 0.931 . S
C1077 C1076 1.385 . S
C1077 C1078 1.389 . S
C1078 C1077 1.389 . S
C1078 C1079 1.387 . S
C1079 H1064 0.930 . S
C1079 C1074 1.390 . S
C1079 C1078 1.387 . S
C445 C112 1.293 . S
C457 C4 1.337 . S
C472 C40 1.371 . S
C484 C148 1.320 . S
C499 C184 1.293 . S
C511 C76 1.339 . S
C526 C220 1.373 . S
C538 C328 1.316 . S
C553 C364 1.297 . S
C565 C256 1.331 . S
C580 C292 1.367 . S
C592 C400 1.330 . S
C607 C302 1.595 . S
C619 C14 1.542 . S
C634 C50 1.545 . S
C646 C338 1.577 . S
C661 C86 1.594 . S
C673 C374 1.537 . S
C688 C122 1.571 . S
C700 C410 1.551 . S
C715 C230 1.590 . S
C727 C158 1.552 . S
C742 C266 1.566 . S
C754 C194 1.556 . S
C769 C255 1.078 . S
C781 C3 1.104 . S
C796 C39 1.059 . S
C808 C291 1.094 . S
C823 C75 1.094 . S
C835 C327 1.104 . S
C850 C111 1.065 . S
C862 C363 1.099 . S
C877 C399 1.072 . S
C889 C147 1.047 . S
C904 C183 1.085 . S
C916 C219 1.052 . S
C931 C362 1.485 1_455 S
C943 C2 1.502 . S
C958 C398 1.499 1_545 S
C970 C38 1.488 1_655 S
C985 C218 1.513 . S
C997 C74 1.498 1_565 S
C1012 C110 1.517 . S
C1024 C254 1.493 1_655 S
C1039 C146 1.517 1_455 S
C1051 C290 1.479 1_565 S
C1066 C182 1.486 1_545 S
C1078 C326 1.520 . S
