# Generated by pormake.
# Topology wgi, (5)-cn, num edge types: 1
# Building blocks:
#     Node 0, Type 0, BuildingBlock: XOMCOT_clean_sbu_1, # of connection points: 5
#     Node 1, Type 0, BuildingBlock: XOMCOT_clean_sbu_1, # of connection points: 5
#     Node 2, Type 0, BuildingBlock: XOMCOT_clean_sbu_1, # of connection points: 5
#     Node 3, Type 0, BuildingBlock: XOMCOT_clean_sbu_1, # of connection points: 5
#     Node 4, Type 0, BuildingBlock: XOMCOT_clean_sbu_1, # of connection points: 5
#     Node 5, Type 0, BuildingBlock: XOMCOT_clean_sbu_1, # of connection points: 5
#     Node 6, Type 0, BuildingBlock: XOMCOT_clean_sbu_1, # of connection points: 5
#     Node 7, Type 0, BuildingBlock: XOMCOT_clean_sbu_1, # of connection points: 5
#     Node 8, Type 0, BuildingBlock: XOMCOT_clean_sbu_1, # of connection points: 5
#     Node 9, Type 0, BuildingBlock: XOMCOT_clean_sbu_1, # of connection points: 5
#     Node 10, Type 0, BuildingBlock: XOMCOT_clean_sbu_1, # of connection points: 5
#     Node 11, Type 0, BuildingBlock: XOMCOT_clean_sbu_1, # of connection points: 5
#     Node 12, Type 0, BuildingBlock: XOMCOT_clean_sbu_1, # of connection points: 5
#     Node 13, Type 0, BuildingBlock: XOMCOT_clean_sbu_1, # of connection points: 5
#     Node 14, Type 0, BuildingBlock: XOMCOT_clean_sbu_1, # of connection points: 5
#     Node 15, Type 0, BuildingBlock: XOMCOT_clean_sbu_1, # of connection points: 5
#     Node 16, Type 0, BuildingBlock: XOMCOT_clean_sbu_1, # of connection points: 5
#     Node 17, Type 0, BuildingBlock: XOMCOT_clean_sbu_1, # of connection points: 5
#     Node 18, Type 0, BuildingBlock: XOMCOT_clean_sbu_1, # of connection points: 5
#     Node 19, Type 0, BuildingBlock: XOMCOT_clean_sbu_1, # of connection points: 5
#     Node 20, Type 0, BuildingBlock: XOMCOT_clean_sbu_1, # of connection points: 5
#     Node 21, Type 0, BuildingBlock: XOMCOT_clean_sbu_1, # of connection points: 5
#     Node 22, Type 0, BuildingBlock: XOMCOT_clean_sbu_1, # of connection points: 5
#     Node 23, Type 0, BuildingBlock: XOMCOT_clean_sbu_1, # of connection points: 5
#     Node 24, Type 0, BuildingBlock: XOMCOT_clean_sbu_1, # of connection points: 5
#     Node 25, Type 0, BuildingBlock: XOMCOT_clean_sbu_1, # of connection points: 5
#     Node 26, Type 0, BuildingBlock: XOMCOT_clean_sbu_1, # of connection points: 5
#     Node 27, Type 0, BuildingBlock: XOMCOT_clean_sbu_1, # of connection points: 5
#     Node 28, Type 0, BuildingBlock: XOMCOT_clean_sbu_1, # of connection points: 5
#     Node 29, Type 0, BuildingBlock: XOMCOT_clean_sbu_1, # of connection points: 5
#     Node 30, Type 0, BuildingBlock: XOMCOT_clean_sbu_1, # of connection points: 5
#     Node 31, Type 0, BuildingBlock: XOMCOT_clean_sbu_1, # of connection points: 5
#     Edge 32, Type (0, 0), BuildingBlock: XIVTED_clean_linker_0, # of connection points: 2
#     Edge 33, Type (0, 0), BuildingBlock: XIVTED_clean_linker_0, # of connection points: 2
#     Edge 34, Type (0, 0), BuildingBlock: XIVTED_clean_linker_0, # of connection points: 2
#     Edge 35, Type (0, 0), BuildingBlock: XIVTED_clean_linker_0, # of connection points: 2
#     Edge 36, Type (0, 0), BuildingBlock: XIVTED_clean_linker_0, # of connection points: 2
#     Edge 37, Type (0, 0), BuildingBlock: XIVTED_clean_linker_0, # of connection points: 2
#     Edge 38, Type (0, 0), BuildingBlock: XIVTED_clean_linker_0, # of connection points: 2
#     Edge 39, Type (0, 0), BuildingBlock: XIVTED_clean_linker_0, # of connection points: 2
#     Edge 40, Type (0, 0), BuildingBlock: XIVTED_clean_linker_0, # of connection points: 2
#     Edge 41, Type (0, 0), BuildingBlock: XIVTED_clean_linker_0, # of connection points: 2
#     Edge 42, Type (0, 0), BuildingBlock: XIVTED_clean_linker_0, # of connection points: 2
#     Edge 43, Type (0, 0), BuildingBlock: XIVTED_clean_linker_0, # of connection points: 2
#     Edge 44, Type (0, 0), BuildingBlock: XIVTED_clean_linker_0, # of connection points: 2
#     Edge 45, Type (0, 0), BuildingBlock: XIVTED_clean_linker_0, # of connection points: 2
#     Edge 46, Type (0, 0), BuildingBlock: XIVTED_clean_linker_0, # of connection points: 2
#     Edge 47, Type (0, 0), BuildingBlock: XIVTED_clean_linker_0, # of connection points: 2
#     Edge 48, Type (0, 0), BuildingBlock: XIVTED_clean_linker_0, # of connection points: 2
#     Edge 49, Type (0, 0), BuildingBlock: XIVTED_clean_linker_0, # of connection points: 2
#     Edge 50, Type (0, 0), BuildingBlock: XIVTED_clean_linker_0, # of connection points: 2
#     Edge 51, Type (0, 0), BuildingBlock: XIVTED_clean_linker_0, # of connection points: 2
#     Edge 52, Type (0, 0), BuildingBlock: XIVTED_clean_linker_0, # of connection points: 2
#     Edge 53, Type (0, 0), BuildingBlock: XIVTED_clean_linker_0, # of connection points: 2
#     Edge 54, Type (0, 0), BuildingBlock: XIVTED_clean_linker_0, # of connection points: 2
#     Edge 55, Type (0, 0), BuildingBlock: XIVTED_clean_linker_0, # of connection points: 2
#     Edge 56, Type (0, 0), BuildingBlock: XIVTED_clean_linker_0, # of connection points: 2
#     Edge 57, Type (0, 0), BuildingBlock: XIVTED_clean_linker_0, # of connection points: 2
#     Edge 58, Type (0, 0), BuildingBlock: XIVTED_clean_linker_0, # of connection points: 2
#     Edge 59, Type (0, 0), BuildingBlock: XIVTED_clean_linker_0, # of connection points: 2
#     Edge 60, Type (0, 0), BuildingBlock: XIVTED_clean_linker_0, # of connection points: 2
#     Edge 61, Type (0, 0), BuildingBlock: XIVTED_clean_linker_0, # of connection points: 2
#     Edge 62, Type (0, 0), BuildingBlock: XIVTED_clean_linker_0, # of connection points: 2
#     Edge 63, Type (0, 0), BuildingBlock: XIVTED_clean_linker_0, # of connection points: 2
#     Edge 64, Type (0, 0), BuildingBlock: XIVTED_clean_linker_0, # of connection points: 2
#     Edge 65, Type (0, 0), BuildingBlock: XIVTED_clean_linker_0, # of connection points: 2
#     Edge 66, Type (0, 0), BuildingBlock: XIVTED_clean_linker_0, # of connection points: 2
#     Edge 67, Type (0, 0), BuildingBlock: XIVTED_clean_linker_0, # of connection points: 2
#     Edge 68, Type (0, 0), BuildingBlock: XIVTED_clean_linker_0, # of connection points: 2
#     Edge 69, Type (0, 0), BuildingBlock: XIVTED_clean_linker_0, # of connection points: 2
#     Edge 70, Type (0, 0), BuildingBlock: XIVTED_clean_linker_0, # of connection points: 2
#     Edge 71, Type (0, 0), BuildingBlock: XIVTED_clean_linker_0, # of connection points: 2
#     Edge 72, Type (0, 0), BuildingBlock: XIVTED_clean_linker_0, # of connection points: 2
#     Edge 73, Type (0, 0), BuildingBlock: XIVTED_clean_linker_0, # of connection points: 2
#     Edge 74, Type (0, 0), BuildingBlock: XIVTED_clean_linker_0, # of connection points: 2
#     Edge 75, Type (0, 0), BuildingBlock: XIVTED_clean_linker_0, # of connection points: 2
#     Edge 76, Type (0, 0), BuildingBlock: XIVTED_clean_linker_0, # of connection points: 2
#     Edge 77, Type (0, 0), BuildingBlock: XIVTED_clean_linker_0, # of connection points: 2
#     Edge 78, Type (0, 0), BuildingBlock: XIVTED_clean_linker_0, # of connection points: 2
#     Edge 79, Type (0, 0), BuildingBlock: XIVTED_clean_linker_0, # of connection points: 2
#     Edge 80, Type (0, 0), BuildingBlock: XIVTED_clean_linker_0, # of connection points: 2
#     Edge 81, Type (0, 0), BuildingBlock: XIVTED_clean_linker_0, # of connection points: 2
#     Edge 82, Type (0, 0), BuildingBlock: XIVTED_clean_linker_0, # of connection points: 2
#     Edge 83, Type (0, 0), BuildingBlock: XIVTED_clean_linker_0, # of connection points: 2
#     Edge 84, Type (0, 0), BuildingBlock: XIVTED_clean_linker_0, # of connection points: 2
#     Edge 85, Type (0, 0), BuildingBlock: XIVTED_clean_linker_0, # of connection points: 2
#     Edge 86, Type (0, 0), BuildingBlock: XIVTED_clean_linker_0, # of connection points: 2
#     Edge 87, Type (0, 0), BuildingBlock: XIVTED_clean_linker_0, # of connection points: 2
#     Edge 88, Type (0, 0), BuildingBlock: XIVTED_clean_linker_0, # of connection points: 2
#     Edge 89, Type (0, 0), BuildingBlock: XIVTED_clean_linker_0, # of connection points: 2
#     Edge 90, Type (0, 0), BuildingBlock: XIVTED_clean_linker_0, # of connection points: 2
#     Edge 91, Type (0, 0), BuildingBlock: XIVTED_clean_linker_0, # of connection points: 2
#     Edge 92, Type (0, 0), BuildingBlock: XIVTED_clean_linker_0, # of connection points: 2
#     Edge 93, Type (0, 0), BuildingBlock: XIVTED_clean_linker_0, # of connection points: 2
#     Edge 94, Type (0, 0), BuildingBlock: XIVTED_clean_linker_0, # of connection points: 2
#     Edge 95, Type (0, 0), BuildingBlock: XIVTED_clean_linker_0, # of connection points: 2
#     Edge 96, Type (0, 0), BuildingBlock: XIVTED_clean_linker_0, # of connection points: 2
#     Edge 97, Type (0, 0), BuildingBlock: XIVTED_clean_linker_0, # of connection points: 2
#     Edge 98, Type (0, 0), BuildingBlock: XIVTED_clean_linker_0, # of connection points: 2
#     Edge 99, Type (0, 0), BuildingBlock: XIVTED_clean_linker_0, # of connection points: 2
#     Edge 100, Type (0, 0), BuildingBlock: XIVTED_clean_linker_0, # of connection points: 2
#     Edge 101, Type (0, 0), BuildingBlock: XIVTED_clean_linker_0, # of connection points: 2
#     Edge 102, Type (0, 0), BuildingBlock: XIVTED_clean_linker_0, # of connection points: 2
#     Edge 103, Type (0, 0), BuildingBlock: XIVTED_clean_linker_0, # of connection points: 2
#     Edge 104, Type (0, 0), BuildingBlock: XIVTED_clean_linker_0, # of connection points: 2
#     Edge 105, Type (0, 0), BuildingBlock: XIVTED_clean_linker_0, # of connection points: 2
#     Edge 106, Type (0, 0), BuildingBlock: XIVTED_clean_linker_0, # of connection points: 2
#     Edge 107, Type (0, 0), BuildingBlock: XIVTED_clean_linker_0, # of connection points: 2
#     Edge 108, Type (0, 0), BuildingBlock: XIVTED_clean_linker_0, # of connection points: 2
#     Edge 109, Type (0, 0), BuildingBlock: XIVTED_clean_linker_0, # of connection points: 2
#     Edge 110, Type (0, 0), BuildingBlock: XIVTED_clean_linker_0, # of connection points: 2
#     Edge 111, Type (0, 0), BuildingBlock: XIVTED_clean_linker_0, # of connection points: 2
# Relax obj value: 0.188
# Max RMSD: 0.146
# Mean RMSD: 0.146
data_MOF--net-wgi--node1-XOMCOT_clean_sbu_1--edge1-XIVTED_clean_linker_0
_symmetry_space_group_name_H-M    P1
_symmetry_Int_Tables_number       1
_symmetry_cell_setting            triclinic
loop_
_symmetry_equiv_pos_as_xyz
'x, y, z'
_cell_length_a     76.372786
_cell_length_b     76.322024
_cell_length_c     27.010965
_cell_angle_alpha  90.023951
_cell_angle_beta   90.110509
_cell_angle_gamma 89.904015
loop_
_atom_site_label
_atom_site_type_symbol
_atom_site_fract_x
_atom_site_fract_y
_atom_site_fract_z
_atom_type_partial_charge
C0 C 0.11152 0.18172 0.45826 0.0
C1 C 0.09392 0.1793 0.46624 0.0
N2 N 0.08905 0.16425 0.44398 0.0
N3 N 0.11766 0.16841 0.43052 0.0
C4 C 0.10374 0.1579 0.42265 0.0
H5 H 0.11947 0.19226 0.47282 0.0
Co6 Co 0.14098 0.1646 0.41532 0.0
C7 C 0.14041 0.15695 0.30823 0.0
O8 O 0.153 0.16859 0.30418 0.0
N9 N 0.16492 0.16013 0.40308 0.0
C10 C 0.18979 0.14592 0.38624 0.0
C11 C 0.17232 0.14751 0.37467 0.0
C12 C 0.17808 0.16527 0.43325 0.0
N13 N 0.19328 0.15702 0.42351 0.0
O14 O 0.1399 0.14295 0.45144 0.0
H15 H 0.16532 0.13868 0.35052 0.0
H16 H 0.1763 0.17379 0.46478 0.0
O17 O 0.13428 0.15329 0.35133 0.0
C18 C 0.14417 0.14659 0.49603 0.0
O19 O 0.14839 0.16284 0.50675 0.0
N20 N 0.14175 0.18709 0.38501 0.0
C21 C 0.13759 0.22265 0.36237 0.0
C22 C 0.12668 0.21 0.34082 0.0
C23 C 0.12885 0.19235 0.353 0.0
C24 C 0.15275 0.19925 0.40508 0.0
C25 C 0.15113 0.21698 0.39354 0.0
H26 H 0.11924 0.18311 0.33958 0.0
H27 H 0.16195 0.19567 0.43332 0.0
H28 H 0.10449 0.14566 0.40251 0.0
H29 H 0.08554 0.18763 0.48839 0.0
H30 H 0.19876 0.13619 0.37178 0.0
H31 H 0.11571 0.21375 0.31767 0.0
H32 H 0.15985 0.22627 0.4112 0.0
C33 C 0.06448 0.86256 0.70428 0.0
C34 C 0.06741 0.845 0.71227 0.0
N35 N 0.08232 0.84045 0.68886 0.0
N36 N 0.07741 0.86896 0.67568 0.0
C37 C 0.08811 0.85525 0.667 0.0
H38 H 0.05386 0.8703 0.71926 0.0
Co39 Co 0.08086 0.89232 0.66061 0.0
C40 C 0.08951 0.89168 0.55395 0.0
O41 O 0.07781 0.90422 0.54886 0.0
N42 N 0.08491 0.91635 0.64874 0.0
C43 C 0.09862 0.94159 0.63353 0.0
C44 C 0.09747 0.92414 0.62114 0.0
C45 C 0.07933 0.92925 0.67916 0.0
N46 N 0.08728 0.94468 0.67048 0.0
O47 O 0.10214 0.89157 0.69888 0.0
H48 H 0.10653 0.91743 0.59705 0.0
H49 H 0.07064 0.92712 0.71006 0.0
O50 O 0.09291 0.88572 0.59748 0.0
C51 C 0.09797 0.89544 0.7434 0.0
O52 O 0.08158 0.89944 0.75281 0.0
N53 N 0.0587 0.89264 0.62817 0.0
C54 C 0.02345 0.88719 0.60405 0.0
C55 C 0.03658 0.87647 0.584 0.0
C56 C 0.05406 0.87934 0.59674 0.0
C57 C 0.04611 0.90361 0.64617 0.0
C58 C 0.02852 0.90135 0.6338 0.0
H59 H 0.06368 0.86988 0.58455 0.0
H60 H 0.04921 0.91331 0.67348 0.0
H61 H 0.10032 0.8563 0.647 0.0
H62 H 0.05928 0.83632 0.73396 0.0
H63 H 0.1082 0.95083 0.61985 0.0
H64 H 0.03334 0.86511 0.56182 0.0
H65 H 0.01888 0.91005 0.64997 0.0
C66 C 0.38063 0.81398 0.94936 0.0
C67 C 0.39824 0.81644 0.95681 0.0
N68 N 0.40292 0.83157 0.93478 0.0
N69 N 0.37428 0.82737 0.92226 0.0
C70 C 0.38809 0.83799 0.91422 0.0
H71 H 0.37283 0.80332 0.96365 0.0
Co72 Co 0.35084 0.83032 0.90752 0.0
C73 C 0.35026 0.84052 0.80222 0.0
O74 O 0.3379 0.82869 0.7968 0.0
N75 N 0.32675 0.83369 0.896 0.0
C76 C 0.30138 0.84758 0.88385 0.0
C77 C 0.31885 0.84713 0.872 0.0
C78 C 0.31384 0.82677 0.924 0.0
N79 N 0.29834 0.83487 0.91708 0.0
O80 O 0.35085 0.85128 0.94689 0.0
H81 H 0.32552 0.85722 0.85137 0.0
H82 H 0.31605 0.81723 0.95281 0.0
O83 O 0.35677 0.84327 0.8455 0.0
C84 C 0.34698 0.84687 0.99116 0.0
O85 O 0.34329 0.83034 0.99987 0.0
N86 N 0.35135 0.80849 0.87363 0.0
C87 C 0.35966 0.77388 0.84839 0.0
C88 C 0.36803 0.78797 0.82514 0.0
C89 C 0.36403 0.80508 0.83912 0.0
C90 C 0.34246 0.79492 0.89469 0.0
C91 C 0.34626 0.77755 0.88224 0.0
H92 H 0.37233 0.81541 0.82532 0.0
H93 H 0.33371 0.79722 0.92506 0.0
H94 H 0.38722 0.85024 0.89424 0.0
H95 H 0.40679 0.80803 0.97823 0.0
H96 H 0.2921 0.85763 0.87308 0.0
H97 H 0.37849 0.7858 0.79881 0.0
H98 H 0.3398 0.76712 0.9023 0.0
C99 C 0.43188 0.13207 0.19964 0.0
C100 C 0.42813 0.14931 0.20895 0.0
N101 N 0.41286 0.15335 0.18653 0.0
N102 N 0.41915 0.1252 0.17114 0.0
C103 C 0.40765 0.1384 0.16388 0.0
H104 H 0.44287 0.12478 0.21434 0.0
Co105 Co 0.4183 0.10159 0.15663 0.0
C106 C 0.40364 0.0987 0.05464 0.0
O107 O 0.4147 0.08587 0.04696 0.0
N108 N 0.41789 0.07681 0.14472 0.0
C109 C 0.42632 0.04932 0.12878 0.0
C110 C 0.42966 0.06668 0.12022 0.0
C111 C 0.40747 0.06494 0.16752 0.0
N112 N 0.41251 0.04825 0.15926 0.0
O113 O 0.39828 0.09994 0.19961 0.0
H114 H 0.44044 0.07138 0.09816 0.0
H115 H 0.3968 0.06832 0.19184 0.0
O116 O 0.40326 0.10622 0.09722 0.0
C117 C 0.40367 0.0972 0.2438 0.0
O118 O 0.42045 0.09416 0.25059 0.0
N119 N 0.43896 0.10426 0.12035 0.0
C120 C 0.47238 0.11387 0.08952 0.0
C121 C 0.4575 0.11986 0.06405 0.0
C122 C 0.44086 0.11515 0.0806 0.0
C123 C 0.45329 0.09821 0.1452 0.0
C124 C 0.47011 0.10259 0.12993 0.0
H125 H 0.42965 0.12139 0.06373 0.0
H126 H 0.45157 0.0906 0.17862 0.0
H127 H 0.39554 0.13692 0.14349 0.0
H128 H 0.43575 0.15793 0.23234 0.0
H129 H 0.4343 0.03842 0.11658 0.0
H130 H 0.45868 0.12883 0.03318 0.0
H131 H 0.48117 0.09813 0.15174 0.0
C132 C 0.11034 0.81126 0.09426 0.0
C133 C 0.09284 0.81365 0.08466 0.0
N134 N 0.08783 0.829 0.10492 0.0
N135 N 0.11627 0.82491 0.12109 0.0
C136 C 0.10232 0.83558 0.12675 0.0
H137 H 0.1184 0.80055 0.08125 0.0
Co138 Co 0.13955 0.82876 0.13652 0.0
C139 C 0.13875 0.8372 0.24329 0.0
O140 O 0.15116 0.82536 0.2483 0.0
N141 N 0.16345 0.83312 0.14844 0.0
C142 C 0.18886 0.84644 0.16424 0.0
C143 C 0.17147 0.84523 0.17724 0.0
C144 C 0.1761 0.82793 0.11679 0.0
N145 N 0.19161 0.83561 0.12582 0.0
O146 O 0.13851 0.85014 0.09876 0.0
H147 H 0.16499 0.85394 0.20283 0.0
H148 H 0.17371 0.81959 0.08517 0.0
O149 O 0.13281 0.84069 0.19977 0.0
C150 C 0.14175 0.84609 0.05375 0.0
O151 O 0.14534 0.82965 0.04349 0.0
N152 N 0.14026 0.80649 0.1685 0.0
C153 C 0.13506 0.77095 0.18962 0.0
C154 C 0.12417 0.7838 0.21039 0.0
C155 C 0.12694 0.80145 0.19927 0.0
C156 C 0.15151 0.79417 0.15037 0.0
C157 C 0.14938 0.77645 0.16128 0.0
H158 H 0.11736 0.81089 0.2118 0.0
H159 H 0.16134 0.79758 0.12385 0.0
H160 H 0.10295 0.84811 0.14542 0.0
H161 H 0.08465 0.8051 0.06262 0.0
H162 H 0.19829 0.85568 0.17886 0.0
H163 H 0.11273 0.78026 0.23171 0.0
H164 H 0.15829 0.76705 0.14486 0.0
C165 C 0.42577 0.86174 0.33972 0.0
C166 C 0.42233 0.84444 0.32943 0.0
N167 N 0.40692 0.84021 0.35047 0.0
N168 N 0.41265 0.86829 0.36743 0.0
C169 C 0.40136 0.85492 0.37337 0.0
H170 H 0.43679 0.86926 0.32641 0.0
Co171 Co 0.40942 0.89161 0.38309 0.0
C172 C 0.40013 0.8915 0.48901 0.0
O173 O 0.41171 0.90412 0.4941 0.0
N174 N 0.40552 0.91556 0.39582 0.0
C175 C 0.39005 0.94004 0.4074 0.0
C176 C 0.39168 0.92269 0.41985 0.0
C177 C 0.41159 0.92883 0.36759 0.0
N178 N 0.40244 0.9438 0.37384 0.0
O179 O 0.38814 0.8913 0.34505 0.0
H180 H 0.38199 0.91543 0.44042 0.0
H181 H 0.42121 0.9271 0.3388 0.0
O182 O 0.3972 0.88509 0.44573 0.0
C183 C 0.39216 0.89543 0.30067 0.0
O184 O 0.40848 0.89973 0.29137 0.0
N185 N 0.43156 0.89145 0.41531 0.0
C186 C 0.4666 0.88362 0.43685 0.0
C187 C 0.45297 0.87495 0.46131 0.0
C188 C 0.43562 0.87872 0.44917 0.0
C189 C 0.4447 0.90067 0.39319 0.0
C190 C 0.46227 0.8971 0.40377 0.0
H191 H 0.42563 0.87019 0.46375 0.0
H192 H 0.44184 0.90951 0.36332 0.0
H193 H 0.38883 0.85625 0.39165 0.0
H194 H 0.4304 0.83575 0.30744 0.0
H195 H 0.37936 0.94861 0.41776 0.0
H196 H 0.45564 0.86444 0.48718 0.0
H197 H 0.47232 0.90381 0.38287 0.0
C198 C 0.38369 0.17728 0.59467 0.0
C199 C 0.40126 0.17516 0.5861 0.0
N200 N 0.40636 0.15985 0.60638 0.0
N201 N 0.37777 0.1635 0.62088 0.0
C202 C 0.39182 0.153 0.6272 0.0
H203 H 0.37558 0.18789 0.58122 0.0
Co204 Co 0.35445 0.15954 0.63476 0.0
C205 C 0.35395 0.15029 0.74106 0.0
O206 O 0.34111 0.16169 0.74531 0.0
N207 N 0.3305 0.15514 0.64542 0.0
C208 C 0.30549 0.14084 0.65871 0.0
C209 C 0.32299 0.14176 0.67046 0.0
C210 C 0.3174 0.16148 0.61691 0.0
N211 N 0.3021 0.15318 0.62458 0.0
O212 O 0.35585 0.1382 0.59699 0.0
H213 H 0.32994 0.13214 0.69229 0.0
H214 H 0.31929 0.17087 0.58757 0.0
O215 O 0.3607 0.14743 0.69816 0.0
C216 C 0.35201 0.14181 0.55206 0.0
O217 O 0.34693 0.15785 0.54162 0.0
N218 N 0.35363 0.18173 0.66684 0.0
C219 C 0.36055 0.21698 0.68783 0.0
C220 C 0.36913 0.20358 0.71379 0.0
C221 C 0.36584 0.18613 0.70189 0.0
C222 C 0.34444 0.19466 0.6434 0.0
C223 C 0.34754 0.21232 0.6537 0.0
H224 H 0.37444 0.17634 0.7175 0.0
H225 H 0.33615 0.19161 0.61246 0.0
H226 H 0.39126 0.14042 0.64555 0.0
H227 H 0.40946 0.18386 0.56464 0.0
H228 H 0.2964 0.13083 0.67068 0.0
H229 H 0.37933 0.20653 0.74044 0.0
H230 H 0.34096 0.22218 0.63158 0.0
C231 C 0.06493 0.13439 0.84735 0.0
C232 C 0.06807 0.15183 0.83829 0.0
N233 N 0.08332 0.15621 0.86023 0.0
N234 N 0.07807 0.12786 0.87517 0.0
C235 C 0.0891 0.14142 0.88237 0.0
H236 H 0.05405 0.12677 0.8334 0.0
Co237 Co 0.08139 0.10439 0.88996 0.0
C238 C 0.0906 0.10462 0.99583 0.0
O239 O 0.07885 0.09217 1.00075 0.0
N240 N 0.08537 0.08031 0.90114 0.0
C241 C 0.09912 0.05494 0.91499 0.0
C242 C 0.09806 0.07232 0.92806 0.0
C243 C 0.07966 0.06759 0.87027 0.0
N244 N 0.08762 0.05208 0.87821 0.0
O245 O 0.10236 0.10487 0.85084 0.0
H246 H 0.10727 0.07887 0.95209 0.0
H247 H 0.07075 0.06994 0.83983 0.0
O248 O 0.09392 0.11071 0.95245 0.0
C249 C 0.09789 0.10149 0.80623 0.0
O250 O 0.08133 0.0981 0.79712 0.0
N251 N 0.05952 0.10427 0.92403 0.0
C252 C 0.02485 0.1089 0.95544 0.0
C253 C 0.03806 0.12048 0.97063 0.0
C254 C 0.05524 0.11793 0.95465 0.0
C255 C 0.04693 0.09255 0.91047 0.0
C256 C 0.0297 0.09436 0.92675 0.0
H257 H 0.06489 0.1277 0.96429 0.0
H258 H 0.04969 0.08231 0.88445 0.0
H259 H 0.10155 0.14021 0.90128 0.0
H260 H 0.05988 0.16055 0.81672 0.0
H261 H 0.10874 0.04559 0.92812 0.0
H262 H 0.03508 0.13213 0.99188 0.0
H263 H 0.02011 0.08484 0.91463 0.0
C264 C 0.88243 0.81616 0.58307 0.0
C265 C 0.89981 0.8195 0.57398 0.0
N266 N 0.90412 0.83459 0.5969 0.0
N267 N 0.8759 0.829 0.61192 0.0
C268 C 0.88937 0.84005 0.61969 0.0
H269 H 0.87485 0.80537 0.5684 0.0
Co270 Co 0.8525 0.8321 0.62707 0.0
C271 C 0.85299 0.83982 0.73426 0.0
O272 O 0.84089 0.82767 0.73843 0.0
N273 N 0.82845 0.83581 0.63899 0.0
C274 C 0.80288 0.84874 0.65559 0.0
C275 C 0.82033 0.84779 0.66804 0.0
C276 C 0.81573 0.83044 0.60768 0.0
N277 N 0.80012 0.83789 0.61722 0.0
O278 O 0.85294 0.85368 0.59021 0.0
H279 H 0.82678 0.85661 0.69342 0.0
H280 H 0.8181 0.82219 0.57588 0.0
O281 O 0.85884 0.84377 0.69103 0.0
C282 C 0.8495 0.84961 0.54531 0.0
O283 O 0.84605 0.83314 0.53513 0.0
N284 N 0.85243 0.80966 0.65793 0.0
C285 C 0.85807 0.7742 0.67938 0.0
C286 C 0.86883 0.78716 0.70006 0.0
C287 C 0.86585 0.80477 0.68872 0.0
C288 C 0.84142 0.7972 0.63944 0.0
C289 C 0.84375 0.77952 0.65055 0.0
H290 H 0.87527 0.81432 0.70148 0.0
H291 H 0.83159 0.8005 0.61267 0.0
H292 H 0.88811 0.85234 0.63939 0.0
H293 H 0.90851 0.81158 0.55165 0.0
H294 H 0.79336 0.85785 0.67049 0.0
H295 H 0.88028 0.78373 0.72169 0.0
H296 H 0.83498 0.77003 0.63406 0.0
C297 C 0.92605 0.13271 0.34761 0.0
C298 C 0.92158 0.14974 0.33707 0.0
N299 N 0.90592 0.15311 0.35796 0.0
N300 N 0.91337 0.12546 0.37545 0.0
C301 C 0.90125 0.13817 0.38121 0.0
H302 H 0.93746 0.12581 0.33413 0.0
Co303 Co 0.91198 0.10186 0.38966 0.0
C304 C 0.903 0.09948 0.49515 0.0
O305 O 0.91557 0.08771 0.49732 0.0
N306 N 0.91012 0.07748 0.40061 0.0
C307 C 0.89731 0.05153 0.41187 0.0
C308 C 0.89673 0.06905 0.42316 0.0
C309 C 0.91808 0.06476 0.37397 0.0
N310 N 0.91064 0.04893 0.38037 0.0
O311 O 0.89056 0.1009 0.35256 0.0
H312 H 0.88607 0.07539 0.44239 0.0
H313 H 0.9278 0.06723 0.34594 0.0
O314 O 0.89949 0.10683 0.45343 0.0
C315 C 0.89425 0.09618 0.30842 0.0
O316 O 0.91057 0.09218 0.298 0.0
N317 N 0.93419 0.10344 0.42117 0.0
C318 C 0.96866 0.11286 0.4448 0.0
C319 C 0.95447 0.12023 0.47027 0.0
C320 C 0.93739 0.11568 0.45714 0.0
C321 C 0.94791 0.09582 0.39705 0.0
C322 C 0.9652 0.10012 0.40873 0.0
H323 H 0.92683 0.12317 0.47319 0.0
H324 H 0.94564 0.08781 0.365 0.0
H325 H 0.8888 0.13616 0.39939 0.0
H326 H 0.92909 0.1588 0.31483 0.0
H327 H 0.88753 0.04187 0.42148 0.0
H328 H 0.95646 0.13024 0.49814 0.0
H329 H 0.97565 0.09457 0.38665 0.0
C330 C 0.61395 0.18397 0.0829 0.0
C331 C 0.59647 0.18173 0.07253 0.0
N332 N 0.59138 0.16625 0.09165 0.0
N333 N 0.61973 0.17009 0.10907 0.0
C334 C 0.60576 0.15948 0.11367 0.0
H335 H 0.6221 0.1947 0.07067 0.0
Co336 Co 0.64284 0.16554 0.12454 0.0
C337 C 0.64194 0.15604 0.23065 0.0
O338 O 0.65477 0.16734 0.23632 0.0
N339 N 0.66656 0.16041 0.13643 0.0
C340 C 0.69065 0.14445 0.1485 0.0
C341 C 0.67351 0.14686 0.16214 0.0
C342 C 0.67964 0.16544 0.10598 0.0
N343 N 0.69443 0.15605 0.11263 0.0
O344 O 0.64138 0.14445 0.08558 0.0
H345 H 0.66625 0.13788 0.18512 0.0
H346 H 0.67785 0.17469 0.07615 0.0
O347 O 0.63575 0.15324 0.18699 0.0
C348 C 0.64496 0.14831 0.04069 0.0
O349 O 0.64937 0.16456 0.03056 0.0
N350 N 0.6439 0.18749 0.15811 0.0
C351 C 0.63858 0.22286 0.18172 0.0
C352 C 0.62792 0.2098 0.20212 0.0
C353 C 0.63071 0.19228 0.18966 0.0
C354 C 0.655 0.19997 0.14025 0.0
C355 C 0.65275 0.21764 0.1522 0.0
H356 H 0.62114 0.18278 0.2017 0.0
H357 H 0.66473 0.19669 0.11317 0.0
H358 H 0.60632 0.1468 0.13153 0.0
H359 H 0.58839 0.19045 0.05061 0.0
H360 H 0.69906 0.13382 0.1604 0.0
H361 H 0.61655 0.21312 0.22415 0.0
H362 H 0.66144 0.22721 0.13584 0.0
C363 C 0.5653 0.85999 0.83671 0.0
C364 C 0.56799 0.84233 0.83072 0.0
N365 N 0.58283 0.83787 0.85475 0.0
N366 N 0.57827 0.86663 0.86484 0.0
C367 C 0.58886 0.85291 0.87497 0.0
H368 H 0.55474 0.86762 0.82089 0.0
Co369 Co 0.58062 0.89023 0.87893 0.0
C370 C 0.59019 0.89115 0.98488 0.0
O371 O 0.57811 0.90333 0.98975 0.0
N372 N 0.58339 0.91449 0.88992 0.0
C373 C 0.59641 0.94022 0.90324 0.0
C374 C 0.59636 0.92272 0.915 0.0
C375 C 0.57639 0.92726 0.86133 0.0
N376 N 0.58394 0.94298 0.86901 0.0
O377 O 0.60179 0.89046 0.84093 0.0
H378 H 0.60641 0.91629 0.93655 0.0
H379 H 0.56717 0.92486 0.83179 0.0
O380 O 0.59327 0.88469 0.94177 0.0
C381 C 0.59759 0.89427 0.79641 0.0
O382 O 0.58108 0.89774 0.78669 0.0
N383 N 0.55861 0.88949 0.91147 0.0
C384 C 0.52398 0.88116 0.93563 0.0
C385 C 0.53802 0.87294 0.95979 0.0
C386 C 0.55515 0.87694 0.94632 0.0
C387 C 0.54507 0.89815 0.88928 0.0
C388 C 0.5277 0.89435 0.90118 0.0
H389 H 0.56549 0.86879 0.96099 0.0
H390 H 0.54745 0.90674 0.85855 0.0
H391 H 0.6008 0.85398 0.8964 0.0
H392 H 0.55989 0.83357 0.80907 0.0
H393 H 0.60604 0.94976 0.91495 0.0
H394 H 0.53582 0.86263 0.98658 0.0
H395 H 0.51732 0.90066 0.88036 0.0
C396 C 0.88636 0.18042 0.94518 0.0
C397 C 0.90307 0.17696 0.96186 0.0
N398 N 0.90535 0.15947 0.96231 0.0
N399 N 0.87828 0.16519 0.93405 0.0
C400 C 0.89001 0.1527 0.94676 0.0
H401 H 0.88053 0.19328 0.94161 0.0
Co402 Co 0.85494 0.16161 0.91432 0.0
C403 C 0.87563 0.14373 0.83131 0.0
O404 O 0.891 0.14866 0.84779 0.0
N405 N 0.8316 0.15816 0.89747 0.0
C406 C 0.80572 0.15461 0.86088 0.0
C407 C 0.8235 0.15662 0.8532 0.0
C408 C 0.81865 0.1572 0.93101 0.0
N409 N 0.80285 0.15483 0.91006 0.0
O410 O 0.85435 0.14086 0.95488 0.0
H411 H 0.83003 0.15709 0.81773 0.0
H412 H 0.82063 0.15873 0.97033 0.0
O413 O 0.8616 0.14813 0.85416 0.0
C414 C 0.85208 0.14557 0.99983 0.0
O415 O 0.85029 0.16238 1.00935 0.0
N416 N 0.85495 0.18274 0.87925 0.0
C417 C 0.85849 0.21787 0.85322 0.0
C418 C 0.86832 0.20487 0.82903 0.0
C419 C 0.8663 0.18731 0.84247 0.0
C420 C 0.84439 0.19502 0.9004 0.0
C421 C 0.84572 0.2126 0.88735 0.0
H422 H 0.875 0.17781 0.82637 0.0
H423 H 0.83567 0.19133 0.9301 0.0
H424 H 0.88749 0.1388 0.94333 0.0
H425 H 0.91292 0.18657 0.97139 0.0
H426 H 0.79576 0.15299 0.83269 0.0
H427 H 0.87846 0.20827 0.8028 0.0
H428 H 0.83751 0.22208 0.90611 0.0
C429 C 0.56794 0.13149 0.69084 0.0
C430 C 0.57132 0.14883 0.70046 0.0
N431 N 0.58669 0.15302 0.67911 0.0
N432 N 0.58103 0.12485 0.66321 0.0
C433 C 0.59229 0.13823 0.65668 0.0
H434 H 0.55692 0.12401 0.70436 0.0
Co435 Co 0.58378 0.10144 0.64813 0.0
C436 C 0.59406 0.10129 0.54238 0.0
O437 O 0.58239 0.08882 0.53636 0.0
N438 N 0.58691 0.07728 0.6362 0.0
C439 C 0.60002 0.05154 0.62312 0.0
C440 C 0.60009 0.06912 0.61189 0.0
C441 C 0.57963 0.06441 0.66363 0.0
N442 N 0.58722 0.0487 0.65617 0.0
O443 O 0.60477 0.10131 0.68765 0.0
H444 H 0.61026 0.07563 0.59115 0.0
H445 H 0.57013 0.06671 0.69241 0.0
O446 O 0.59671 0.10755 0.586 0.0
C447 C 0.60054 0.0971 0.73183 0.0
O448 O 0.5842 0.09277 0.74057 0.0
N449 N 0.56194 0.10215 0.61446 0.0
C450 C 0.5273 0.11038 0.58954 0.0
C451 C 0.54131 0.11866 0.56572 0.0
C452 C 0.55846 0.1147 0.57957 0.0
C453 C 0.54841 0.09348 0.63638 0.0
C454 C 0.53105 0.0972 0.62404 0.0
H455 H 0.56876 0.12295 0.56535 0.0
H456 H 0.55075 0.08505 0.66747 0.0
H457 H 0.60476 0.13688 0.63808 0.0
H458 H 0.56321 0.1576 0.72203 0.0
H459 H 0.60972 0.04198 0.61184 0.0
H460 H 0.53907 0.12902 0.53905 0.0
H461 H 0.5207 0.0909 0.64479 0.0
C462 C 0.60997 0.81546 0.44976 0.0
C463 C 0.59234 0.8178 0.45701 0.0
N464 N 0.5874 0.83261 0.43363 0.0
N465 N 0.6161 0.82858 0.4214 0.0
C466 C 0.6021 0.83895 0.41246 0.0
H467 H 0.61794 0.80504 0.46504 0.0
Co468 Co 0.63948 0.8316 0.40604 0.0
C469 C 0.63969 0.84062 0.29983 0.0
O470 O 0.6522 0.82887 0.29518 0.0
N471 N 0.66352 0.8351 0.39351 0.0
C472 C 0.68854 0.84933 0.37971 0.0
C473 C 0.67097 0.84864 0.36899 0.0
C474 C 0.67682 0.82833 0.42051 0.0
N475 N 0.69211 0.83665 0.41268 0.0
O476 O 0.63926 0.85307 0.44298 0.0
H477 H 0.66391 0.8586 0.34869 0.0
H478 H 0.6751 0.81877 0.44946 0.0
O479 O 0.63317 0.84364 0.34287 0.0
C480 C 0.64424 0.84944 0.48697 0.0
O481 O 0.64882 0.83323 0.49702 0.0
N482 N 0.63925 0.80928 0.37494 0.0
C483 C 0.63147 0.77414 0.35505 0.0
C484 C 0.62322 0.78766 0.32865 0.0
C485 C 0.62693 0.80508 0.34003 0.0
C486 C 0.64796 0.79623 0.39923 0.0
C487 C 0.64446 0.77861 0.38942 0.0
H488 H 0.61864 0.81504 0.32395 0.0
H489 H 0.65615 0.79921 0.43041 0.0
H490 H 0.60276 0.85099 0.39138 0.0
H491 H 0.58394 0.80954 0.4792 0.0
H492 H 0.69755 0.85951 0.36841 0.0
H493 H 0.613 0.78485 0.30194 0.0
H494 H 0.65073 0.76869 0.41202 0.0
C495 C 0.9302 0.8629 0.19256 0.0
C496 C 0.92798 0.84542 0.20226 0.0
N497 N 0.91252 0.84035 0.18292 0.0
N498 N 0.91632 0.86882 0.16665 0.0
C499 C 0.90565 0.85485 0.1616 0.0
H500 H 0.94098 0.87096 0.20497 0.0
Co501 Co 0.91301 0.89221 0.15188 0.0
C502 C 0.90196 0.89288 0.04716 0.0
O503 O 0.91352 0.90548 0.04186 0.0
N504 N 0.90945 0.91631 0.14075 0.0
C505 C 0.89581 0.94192 0.13001 0.0
C506 C 0.89587 0.92441 0.11791 0.0
C507 C 0.91682 0.9291 0.16833 0.0
N508 N 0.90892 0.94474 0.16222 0.0
O509 O 0.89238 0.89209 0.19269 0.0
H510 H 0.88555 0.91786 0.09777 0.0
H511 H 0.92659 0.92674 0.19646 0.0
O512 O 0.89959 0.88612 0.09032 0.0
C513 C 0.89715 0.89598 0.23673 0.0
O514 O 0.91371 0.89975 0.24444 0.0
N515 N 0.93455 0.89182 0.11664 0.0
C516 C 0.96896 0.88338 0.09004 0.0
C517 C 0.95473 0.87515 0.06699 0.0
C518 C 0.93772 0.87921 0.08166 0.0
C519 C 0.94828 0.90063 0.13731 0.0
C520 C 0.96553 0.89677 0.12418 0.0
H521 H 0.92731 0.87093 0.06819 0.0
H522 H 0.94623 0.90926 0.16813 0.0
H523 H 0.89299 0.85544 0.14366 0.0
H524 H 0.93677 0.83727 0.22376 0.0
H525 H 0.88583 0.95138 0.12008 0.0
H526 H 0.95671 0.86469 0.04048 0.0
H527 H 0.97608 0.90311 0.14417 0.0
C528 C 0.6102 0.67521 0.96062 0.0
C529 C 0.59279 0.67172 0.96874 0.0
N530 N 0.58885 0.65643 0.94641 0.0
N531 N 0.61712 0.66225 0.93297 0.0
C532 C 0.60385 0.65098 0.92491 0.0
H533 H 0.61752 0.68618 0.97525 0.0
Co534 Co 0.6406 0.65936 0.91944 0.0
C535 C 0.64165 0.64984 0.81301 0.0
O536 O 0.65417 0.66154 0.8087 0.0
N537 N 0.66475 0.6559 0.90883 0.0
C538 C 0.68982 0.64156 0.89649 0.0
C539 C 0.67229 0.64215 0.88543 0.0
C540 C 0.67797 0.66292 0.9357 0.0
N541 N 0.69335 0.65454 0.92861 0.0
O542 O 0.64014 0.63804 0.95753 0.0
H543 H 0.66531 0.63207 0.86546 0.0
H544 H 0.67612 0.67285 0.96359 0.0
O545 O 0.63493 0.64693 0.85592 0.0
C546 C 0.64412 0.64175 1.00231 0.0
O547 O 0.64905 0.65785 1.01239 0.0
N548 N 0.6404 0.6815 0.88721 0.0
C549 C 0.63235 0.71638 0.86385 0.0
C550 C 0.62437 0.70251 0.83844 0.0
C551 C 0.62819 0.68526 0.85155 0.0
C552 C 0.64883 0.69489 0.91077 0.0
C553 C 0.64518 0.71238 0.89928 0.0
H554 H 0.62006 0.67509 0.83601 0.0
H555 H 0.65698 0.69227 0.94235 0.0
H556 H 0.60541 0.63858 0.90599 0.0
H557 H 0.58381 0.67969 0.99005 0.0
H558 H 0.69886 0.63133 0.88557 0.0
H559 H 0.61432 0.70491 0.81091 0.0
H560 H 0.65126 0.72261 0.92109 0.0
C561 C 0.5642 0.36272 0.19575 0.0
C562 C 0.56783 0.34536 0.20508 0.0
N563 N 0.58318 0.34131 0.18326 0.0
N564 N 0.57714 0.3695 0.16789 0.0
C565 C 0.58851 0.35619 0.16094 0.0
H566 H 0.55315 0.37011 0.20962 0.0
Co567 Co 0.58017 0.39296 0.15254 0.0
C568 C 0.58902 0.39276 0.04678 0.0
O569 O 0.57734 0.40535 0.0423 0.0
N570 N 0.58405 0.41703 0.14025 0.0
C571 C 0.59898 0.44173 0.12749 0.0
C572 C 0.59755 0.42432 0.11526 0.0
C573 C 0.57806 0.43025 0.16895 0.0
N574 N 0.58675 0.4454 0.16168 0.0
O575 O 0.60128 0.39271 0.19133 0.0
H576 H 0.60703 0.41722 0.09342 0.0
H577 H 0.56898 0.42833 0.19909 0.0
O578 O 0.59243 0.38651 0.08995 0.0
C579 C 0.59666 0.39667 0.23539 0.0
O580 O 0.58009 0.40037 0.24341 0.0
N581 N 0.55812 0.39284 0.11921 0.0
C582 C 0.52324 0.38734 0.09055 0.0
C583 C 0.53666 0.37635 0.07335 0.0
C584 C 0.55393 0.37928 0.08815 0.0
C585 C 0.54529 0.40397 0.13486 0.0
C586 C 0.52791 0.40172 0.1201 0.0
H587 H 0.56374 0.36979 0.07747 0.0
H588 H 0.54802 0.41396 0.16168 0.0
H589 H 0.60093 0.35767 0.14216 0.0
H590 H 0.55991 0.33651 0.22685 0.0
H591 H 0.60907 0.4506 0.11485 0.0
H592 H 0.53381 0.36481 0.05152 0.0
H593 H 0.51811 0.41071 0.13404 0.0
C594 C 0.87675 0.31124 0.45041 0.0
C595 C 0.89435 0.31324 0.45963 0.0
N596 N 0.89988 0.32762 0.43542 0.0
N597 N 0.87132 0.32427 0.42038 0.0
C598 C 0.88565 0.33406 0.41196 0.0
H599 H 0.8683 0.30125 0.46566 0.0
Co600 Co 0.84834 0.32898 0.4037 0.0
C601 C 0.84989 0.3372 0.29695 0.0
O602 O 0.837 0.32594 0.29193 0.0
N603 N 0.82475 0.33432 0.39013 0.0
C604 C 0.80044 0.34949 0.37328 0.0
C605 C 0.81785 0.34731 0.36198 0.0
C606 C 0.81139 0.32953 0.41981 0.0
N607 N 0.79652 0.33838 0.41011 0.0
O608 O 0.84987 0.35032 0.44164 0.0
H609 H 0.82522 0.356 0.33837 0.0
H610 H 0.81286 0.32082 0.45105 0.0
O611 O 0.85588 0.34053 0.34054 0.0
C612 C 0.84578 0.34625 0.48608 0.0
O613 O 0.84119 0.32998 0.49513 0.0
N614 N 0.84712 0.30675 0.37195 0.0
C615 C 0.85123 0.27113 0.34993 0.0
C616 C 0.86255 0.28366 0.32968 0.0
C617 C 0.86037 0.30133 0.34141 0.0
C618 C 0.83555 0.29476 0.39003 0.0
C619 C 0.83715 0.277 0.37874 0.0
H620 H 0.87029 0.31044 0.32928 0.0
H621 H 0.82587 0.29847 0.41674 0.0
H622 H 0.88545 0.34616 0.39108 0.0
H623 H 0.90239 0.30489 0.48278 0.0
H624 H 0.79185 0.35961 0.35908 0.0
H625 H 0.87389 0.27979 0.30826 0.0
H626 H 0.82804 0.26783 0.3951 0.0
C627 C 0.92711 0.63167 0.68837 0.0
C628 C 0.9244 0.64919 0.6973 0.0
N629 N 0.90904 0.65384 0.67642 0.0
N630 N 0.9136 0.62538 0.66162 0.0
C631 C 0.90279 0.63915 0.6549 0.0
H632 H 0.93789 0.62382 0.70205 0.0
Co633 Co 0.90952 0.60195 0.64901 0.0
C634 C 0.90008 0.6004 0.54342 0.0
O635 O 0.91153 0.58756 0.5406 0.0
N636 N 0.90481 0.57787 0.63984 0.0
C637 C 0.88997 0.553 0.62828 0.0
C638 C 0.89129 0.57035 0.61521 0.0
C639 C 0.91074 0.56493 0.66971 0.0
N640 N 0.90214 0.54973 0.66298 0.0
O641 O 0.88847 0.60364 0.68764 0.0
H642 H 0.8818 0.57725 0.59286 0.0
H643 H 0.92004 0.56695 0.6993 0.0
O644 O 0.89726 0.60785 0.58542 0.0
C645 C 0.89275 0.59996 0.73221 0.0
O646 O 0.90905 0.59542 0.74123 0.0
N647 N 0.93152 0.60072 0.61609 0.0
C648 C 0.96681 0.60583 0.59212 0.0
C649 C 0.95367 0.61596 0.56967 0.0
C650 C 0.93615 0.61328 0.58236 0.0
C651 C 0.94413 0.59027 0.63636 0.0
C652 C 0.96172 0.59232 0.62408 0.0
H653 H 0.92654 0.62245 0.56846 0.0
H654 H 0.94104 0.58133 0.66562 0.0
H655 H 0.89009 0.63814 0.63724 0.0
H656 H 0.93289 0.65775 0.7184 0.0
H657 H 0.87979 0.54401 0.61684 0.0
H658 H 0.95691 0.62683 0.54567 0.0
H659 H 0.97136 0.58408 0.64216 0.0
C660 C 0.60871 0.31439 0.58393 0.0
C661 C 0.59112 0.31659 0.57523 0.0
N662 N 0.58596 0.33166 0.59692 0.0
N663 N 0.61458 0.32786 0.61153 0.0
C664 C 0.60049 0.33825 0.61861 0.0
H665 H 0.61686 0.30389 0.56995 0.0
Co666 Co 0.63783 0.33187 0.62725 0.0
C667 C 0.63716 0.33978 0.73383 0.0
O668 O 0.64982 0.32817 0.73796 0.0
N669 N 0.66166 0.33655 0.6399 0.0
C670 C 0.68635 0.35108 0.65627 0.0
C671 C 0.66893 0.34935 0.66796 0.0
C672 C 0.67481 0.33146 0.60979 0.0
N673 N 0.68991 0.3399 0.61925 0.0
O674 O 0.6367 0.35332 0.59016 0.0
H675 H 0.66184 0.3582 0.69183 0.0
H676 H 0.67306 0.32284 0.57845 0.0
O677 O 0.63096 0.3434 0.6907 0.0
C678 C 0.6407 0.34915 0.54575 0.0
O679 O 0.64456 0.3327 0.53635 0.0
N680 N 0.63871 0.30953 0.6585 0.0
C681 C 0.6347 0.27404 0.68196 0.0
C682 C 0.62347 0.2867 0.70219 0.0
C683 C 0.62561 0.30431 0.68973 0.0
C684 C 0.65009 0.29738 0.64006 0.0
C685 C 0.64856 0.2797 0.65211 0.0
H686 H 0.61583 0.31356 0.70218 0.0
H687 H 0.65959 0.30091 0.61271 0.0
H688 H 0.601 0.35056 0.63843 0.0
H689 H 0.58294 0.3081 0.55298 0.0
H690 H 0.69521 0.36095 0.67042 0.0
H691 H 0.6123 0.28297 0.72441 0.0
H692 H 0.65759 0.27042 0.6357 0.0
C693 C 0.92607 0.3604 0.83555 0.0
C694 C 0.92291 0.34295 0.82647 0.0
N695 N 0.90784 0.33854 0.84909 0.0
N696 N 0.91309 0.36685 0.86399 0.0
C697 C 0.90217 0.35328 0.87156 0.0
H698 H 0.93683 0.36806 0.82122 0.0
Co699 Co 0.90965 0.39017 0.87944 0.0
C700 C 0.90086 0.38948 0.9859 0.0
O701 O 0.9126 0.40193 0.99102 0.0
N702 N 0.90559 0.41414 0.89171 0.0
C703 C 0.89186 0.43941 0.90708 0.0
C704 C 0.89299 0.42195 0.91925 0.0
C705 C 0.91121 0.42705 0.86148 0.0
N706 N 0.90325 0.44248 0.87031 0.0
O707 O 0.88847 0.38966 0.84053 0.0
H708 H 0.88386 0.41523 0.94306 0.0
H709 H 0.9199 0.4249 0.83056 0.0
O710 O 0.89744 0.38353 0.94234 0.0
C711 C 0.89305 0.39321 0.79611 0.0
O712 O 0.9096 0.39679 0.78773 0.0
N713 N 0.93171 0.39031 0.91235 0.0
C714 C 0.96681 0.38503 0.93838 0.0
C715 C 0.95366 0.37417 0.95742 0.0
C716 C 0.93625 0.37694 0.94368 0.0
C717 C 0.94433 0.40135 0.89512 0.0
C718 C 0.96184 0.39918 0.90843 0.0
H719 H 0.92662 0.36743 0.95523 0.0
H720 H 0.94131 0.4111 0.86783 0.0
H721 H 0.88985 0.35444 0.89102 0.0
H722 H 0.93098 0.33425 0.8045 0.0
H723 H 0.88224 0.44866 0.9207 0.0
H724 H 0.95686 0.36281 0.97968 0.0
H725 H 0.97152 0.40795 0.89294 0.0
C726 C 0.88641 0.68353 0.1018 0.0
C727 C 0.90379 0.68032 0.09256 0.0
N728 N 0.90721 0.66334 0.10283 0.0
N729 N 0.87888 0.66876 0.11861 0.0
C730 C 0.89181 0.65667 0.11871 0.0
H731 H 0.87963 0.6958 0.09586 0.0
Co732 Co 0.85525 0.66566 0.13189 0.0
C733 C 0.85902 0.6363 0.20469 0.0
O734 O 0.85216 0.62478 0.17418 0.0
N735 N 0.8315 0.66261 0.14429 0.0
C736 C 0.80513 0.65963 0.17792 0.0
C737 C 0.82283 0.66098 0.18754 0.0
C738 C 0.81892 0.66243 0.10931 0.0
N739 N 0.80278 0.66047 0.12852 0.0
O740 O 0.85524 0.64555 0.0886 0.0
H741 H 0.82893 0.66098 0.22371 0.0
H742 H 0.82146 0.66423 0.07036 0.0
O743 O 0.86101 0.65212 0.19078 0.0
C744 C 0.85369 0.65133 0.04439 0.0
O745 O 0.8524 0.66836 0.03792 0.0
N746 N 0.85517 0.68621 0.16917 0.0
C747 C 0.86119 0.72048 0.19978 0.0
C748 C 0.86924 0.70636 0.22427 0.0
C749 C 0.86621 0.68928 0.20799 0.0
C750 C 0.84605 0.69958 0.14787 0.0
C751 C 0.84882 0.71686 0.1627 0.0
H752 H 0.87401 0.67883 0.22348 0.0
H753 H 0.83777 0.697 0.11619 0.0
H754 H 0.8897 0.64311 0.12854 0.0
H755 H 0.91308 0.68985 0.07902 0.0
H756 H 0.79486 0.65806 0.20509 0.0
H757 H 0.87875 0.70855 0.25339 0.0
H758 H 0.84248 0.72729 0.14223 0.0
C759 C 0.56291 0.6319 0.354 0.0
C760 C 0.56605 0.64937 0.34708 0.0
N761 N 0.5811 0.65349 0.37039 0.0
N762 N 0.57578 0.62497 0.38198 0.0
C763 C 0.58685 0.6384 0.39109 0.0
H764 H 0.55205 0.62457 0.33881 0.0
Co765 Co 0.57642 0.60128 0.39628 0.0
C766 C 0.58989 0.59933 0.50057 0.0
O767 O 0.57774 0.58773 0.50966 0.0
N768 N 0.57644 0.5764 0.40793 0.0
C769 C 0.56687 0.54945 0.42568 0.0
C770 C 0.56543 0.56688 0.43668 0.0
C771 C 0.58434 0.56403 0.37954 0.0
N772 N 0.57852 0.54766 0.38892 0.0
O773 O 0.59684 0.59944 0.35457 0.0
H774 H 0.55583 0.57213 0.46198 0.0
H775 H 0.59306 0.56692 0.34932 0.0
O776 O 0.59112 0.60587 0.45685 0.0
C777 C 0.5916 0.59783 0.30976 0.0
O778 O 0.57474 0.59576 0.30185 0.0
N779 N 0.55539 0.60407 0.43099 0.0
C780 C 0.52151 0.61387 0.45756 0.0
C781 C 0.53605 0.62053 0.48327 0.0
C782 C 0.55294 0.61567 0.46888 0.0
C783 C 0.5414 0.59727 0.40624 0.0
C784 C 0.52437 0.60174 0.41942 0.0
H785 H 0.56392 0.62231 0.48563 0.0
H786 H 0.54355 0.58905 0.37416 0.0
H787 H 0.59886 0.63711 0.4121 0.0
H788 H 0.55812 0.65826 0.32526 0.0
H789 H 0.55898 0.53906 0.44127 0.0
H790 H 0.53443 0.63011 0.51249 0.0
H791 H 0.51361 0.5967 0.39746 0.0
C792 C 0.38714 0.31042 0.0884 0.0
C793 C 0.4039 0.31496 0.07499 0.0
N794 N 0.40558 0.33241 0.08006 0.0
N795 N 0.3783 0.32493 0.10247 0.0
C796 C 0.38985 0.33814 0.09587 0.0
H797 H 0.38189 0.29731 0.08748 0.0
Co798 Co 0.35466 0.32755 0.12067 0.0
C799 C 0.37491 0.34243 0.2068 0.0
O800 O 0.38836 0.33222 0.19751 0.0
N801 N 0.33122 0.33016 0.13652 0.0
C802 C 0.30543 0.3352 0.17183 0.0
C803 C 0.32323 0.33371 0.17992 0.0
C804 C 0.31815 0.32925 0.10315 0.0
N805 N 0.30237 0.33254 0.12327 0.0
O806 O 0.35349 0.34814 0.07962 0.0
H807 H 0.32987 0.33537 0.21498 0.0
H808 H 0.32015 0.3262 0.06455 0.0
O809 O 0.36107 0.34159 0.17997 0.0
C810 C 0.35117 0.34302 0.03505 0.0
O811 O 0.35005 0.32609 0.02656 0.0
N812 N 0.35503 0.30639 0.15549 0.0
C813 C 0.35869 0.27174 0.18574 0.0
C814 C 0.36149 0.28554 0.21926 0.0
C815 C 0.3593 0.30287 0.20359 0.0
C816 C 0.35034 0.29316 0.12438 0.0
C817 C 0.35222 0.27573 0.13848 0.0
H818 H 0.36141 0.31317 0.23002 0.0
H819 H 0.34632 0.29622 0.08694 0.0
H820 H 0.3868 0.35175 0.10322 0.0
H821 H 0.41417 0.30606 0.06357 0.0
H822 H 0.29563 0.33851 0.19919 0.0
H823 H 0.36586 0.28297 0.25674 0.0
H824 H 0.34982 0.26557 0.11133 0.0
C825 C 0.42958 0.63117 0.83992 0.0
C826 C 0.4274 0.64879 0.83165 0.0
N827 N 0.41213 0.65382 0.85227 0.0
N828 N 0.41588 0.62517 0.86623 0.0
C829 C 0.40538 0.6392 0.87292 0.0
H830 H 0.44023 0.6231 0.82659 0.0
Co831 Co 0.41185 0.60187 0.88099 0.0
C832 C 0.40256 0.60256 0.98704 0.0
O833 O 0.41403 0.58985 0.99276 0.0
N834 N 0.4073 0.57794 0.89238 0.0
C835 C 0.39336 0.55275 0.90661 0.0
C836 C 0.39463 0.57015 0.91958 0.0
C837 C 0.41282 0.56511 0.86164 0.0
N838 N 0.40473 0.54973 0.86973 0.0
O839 O 0.39078 0.60304 0.84198 0.0
H840 H 0.38559 0.57684 0.94379 0.0
H841 H 0.42159 0.56729 0.83093 0.0
O842 O 0.39955 0.60862 0.94339 0.0
C843 C 0.39501 0.59925 0.79748 0.0
O844 O 0.41141 0.59522 0.7882 0.0
N845 N 0.4338 0.60106 0.91451 0.0
C846 C 0.46895 0.60565 0.94096 0.0
C847 C 0.45592 0.61662 0.96038 0.0
C848 C 0.43849 0.61419 0.94646 0.0
C849 C 0.44629 0.58985 0.89708 0.0
C850 C 0.46382 0.59169 0.91058 0.0
H851 H 0.42899 0.62384 0.95819 0.0
H852 H 0.44318 0.58028 0.8694 0.0
H853 H 0.39291 0.63859 0.89176 0.0
H854 H 0.43607 0.6571 0.81046 0.0
H855 H 0.38369 0.54352 0.91984 0.0
H856 H 0.45925 0.62786 0.98299 0.0
H857 H 0.4734 0.58283 0.89481 0.0
C858 C 0.10776 0.67677 0.57819 0.0
C859 C 0.09045 0.67307 0.5688 0.0
N860 N 0.08638 0.65799 0.59201 0.0
N861 N 0.11448 0.66415 0.60749 0.0
C862 C 0.1012 0.65287 0.61524 0.0
H863 H 0.11514 0.68767 0.5635 0.0
Co864 Co 0.13791 0.66167 0.62357 0.0
C865 C 0.13751 0.65393 0.73046 0.0
O866 O 0.14934 0.66635 0.73467 0.0
N867 N 0.162 0.65853 0.63657 0.0
C868 C 0.18747 0.6454 0.65341 0.0
C869 C 0.16997 0.64625 0.66499 0.0
C870 C 0.17489 0.66424 0.60643 0.0
N871 N 0.19044 0.65662 0.61612 0.0
O872 O 0.13822 0.64011 0.58677 0.0
H873 H 0.16339 0.63707 0.68894 0.0
H874 H 0.17267 0.67266 0.5749 0.0
O875 O 0.13169 0.64984 0.68723 0.0
C876 C 0.14201 0.64431 0.54226 0.0
O877 O 0.14505 0.6609 0.5325 0.0
N878 N 0.13726 0.68407 0.65446 0.0
C879 C 0.13118 0.71924 0.67852 0.0
C880 C 0.12062 0.70596 0.69821 0.0
C881 C 0.12377 0.68852 0.68541 0.0
C882 C 0.14792 0.69685 0.63625 0.0
C883 C 0.14535 0.7144 0.64857 0.0
H884 H 0.11455 0.67872 0.69763 0.0
H885 H 0.15769 0.69386 0.60908 0.0
H886 H 0.10265 0.64071 0.6354 0.0
H887 H 0.08163 0.68078 0.54616 0.0
H888 H 0.19683 0.63602 0.66774 0.0
H889 H 0.10925 0.70905 0.72045 0.0
H890 H 0.15388 0.72418 0.63252 0.0
C891 C 0.06481 0.36146 0.34765 0.0
C892 C 0.07002 0.34462 0.33757 0.0
N893 N 0.08541 0.34174 0.36064 0.0
N894 N 0.07677 0.36912 0.37729 0.0
C895 C 0.0892 0.35681 0.38464 0.0
H896 H 0.05328 0.36792 0.33314 0.0
Co897 Co 0.07638 0.39268 0.39355 0.0
C898 C 0.08652 0.39285 0.50083 0.0
O899 O 0.07275 0.40261 0.50918 0.0
N900 N 0.0757 0.41744 0.40767 0.0
C901 C 0.06572 0.44413 0.42728 0.0
C902 C 0.06444 0.42656 0.43678 0.0
C903 C 0.0837 0.43018 0.381 0.0
N904 N 0.07763 0.44639 0.39142 0.0
O905 O 0.09755 0.39531 0.3552 0.0
H906 H 0.0545 0.421 0.46033 0.0
H907 H 0.09268 0.42771 0.3511 0.0
O908 O 0.08979 0.38776 0.4564 0.0
C909 C 0.09248 0.39725 0.31028 0.0
O910 O 0.07563 0.39923 0.30191 0.0
N911 N 0.05463 0.3892 0.42365 0.0
C912 C 0.02009 0.37892 0.43947 0.0
C913 C 0.03384 0.37113 0.46622 0.0
C914 C 0.0511 0.37633 0.45733 0.0
C915 C 0.04138 0.39705 0.39804 0.0
C916 C 0.02404 0.3925 0.40643 0.0
H917 H 0.06164 0.36903 0.47436 0.0
H918 H 0.04438 0.40633 0.36904 0.0
H919 H 0.10117 0.35913 0.40512 0.0
H920 H 0.06309 0.33529 0.31464 0.0
H921 H 0.05751 0.45427 0.44296 0.0
H922 H 0.03144 0.36026 0.49103 0.0
H923 H 0.01389 0.39899 0.3852 0.0
C924 C 0.37898 0.68283 0.44662 0.0
C925 C 0.39642 0.6808 0.45783 0.0
N926 N 0.40182 0.66529 0.43943 0.0
N927 N 0.3735 0.66879 0.42062 0.0
C928 C 0.38764 0.65828 0.41699 0.0
H929 H 0.37063 0.69353 0.45819 0.0
Co930 Co 0.35045 0.6641 0.40436 0.0
C931 C 0.35187 0.65485 0.2984 0.0
O932 O 0.339 0.66612 0.29244 0.0
N933 N 0.32679 0.65889 0.39168 0.0
C934 C 0.30207 0.64431 0.37628 0.0
C935 C 0.31947 0.646 0.36413 0.0
C936 C 0.31372 0.6641 0.42189 0.0
N937 N 0.29859 0.65564 0.41304 0.0
O938 O 0.35196 0.64305 0.44318 0.0
H939 H 0.32651 0.63712 0.34021 0.0
H940 H 0.31557 0.67295 0.45267 0.0
O941 O 0.35786 0.65195 0.34221 0.0
C942 C 0.34829 0.64704 0.48794 0.0
O943 O 0.3438 0.6633 0.4977 0.0
N944 N 0.34927 0.68605 0.37088 0.0
C945 C 0.35364 0.72138 0.34617 0.0
C946 C 0.36491 0.70856 0.32703 0.0
C947 C 0.36257 0.69103 0.34 0.0
C948 C 0.33766 0.6983 0.38754 0.0
C949 C 0.33939 0.71592 0.37486 0.0
H950 H 0.37247 0.68171 0.32876 0.0
H951 H 0.32783 0.69496 0.41416 0.0
H952 H 0.38734 0.64552 0.39957 0.0
H953 H 0.40425 0.68967 0.47988 0.0
H954 H 0.29314 0.63444 0.36248 0.0
H955 H 0.37635 0.7121 0.30566 0.0
H956 H 0.33025 0.72532 0.3902 0.0
C957 C 0.06495 0.62924 0.18957 0.0
C958 C 0.06795 0.64664 0.19951 0.0
N959 N 0.08347 0.65109 0.17951 0.0
N960 N 0.07843 0.62281 0.16306 0.0
C961 C 0.08953 0.6364 0.15748 0.0
H962 H 0.05397 0.62158 0.20247 0.0
Co963 Co 0.08204 0.59939 0.14892 0.0
C964 C 0.09241 0.59855 0.04371 0.0
O965 O 0.08138 0.58543 0.03912 0.0
N966 N 0.08622 0.57534 0.13777 0.0
C967 C 0.10204 0.55097 0.12882 0.0
C968 C 0.10063 0.56833 0.11636 0.0
C969 C 0.07953 0.56198 0.16453 0.0
N970 N 0.08888 0.54703 0.15985 0.0
O971 O 0.103 0.60011 0.18835 0.0
H972 H 0.11063 0.57566 0.09724 0.0
H973 H 0.06951 0.56372 0.1922 0.0
O974 O 0.09467 0.60561 0.08653 0.0
C975 C 0.0985 0.59584 0.23227 0.0
O976 O 0.08209 0.59146 0.24002 0.0
N977 N 0.06015 0.59912 0.11549 0.0
C978 C 0.02521 0.60684 0.09178 0.0
C979 C 0.03904 0.61445 0.06537 0.0
C980 C 0.0563 0.61096 0.07897 0.0
C981 C 0.04686 0.59078 0.1395 0.0
C982 C 0.02935 0.59436 0.12815 0.0
H983 H 0.06635 0.6191 0.06305 0.0
H984 H 0.04961 0.58285 0.17149 0.0
H985 H 0.10225 0.63524 0.14018 0.0
H986 H 0.05952 0.65524 0.22066 0.0
H987 H 0.11277 0.54239 0.11896 0.0
H988 H 0.03664 0.62407 0.03669 0.0
H989 H 0.01926 0.5885 0.1508 0.0
C990 C 0.10964 0.31763 0.96244 0.0
C991 C 0.0921 0.3206 0.97036 0.0
N992 N 0.0876 0.33557 0.94706 0.0
N993 N 0.11607 0.33059 0.93398 0.0
C994 C 0.1024 0.34135 0.92529 0.0
H995 H 0.11735 0.307 0.97754 0.0
Co996 Co 0.13941 0.33419 0.91961 0.0
C997 C 0.13927 0.34239 0.81241 0.0
O998 O 0.15183 0.33068 0.80849 0.0
N999 N 0.1634 0.33846 0.90837 0.0
C1000 C 0.18826 0.35275 0.8931 0.0
C1001 C 0.17081 0.35139 0.8813 0.0
C1002 C 0.17654 0.33288 0.93809 0.0
N1003 N 0.19179 0.34116 0.92922 0.0
O1004 O 0.13834 0.35566 0.95727 0.0
H1005 H 0.16382 0.36049 0.85787 0.0
H1006 H 0.17468 0.32393 0.96855 0.0
O1007 O 0.13301 0.34597 0.85552 0.0
C1008 C 0.14207 0.35167 1.00208 0.0
O1009 O 0.14643 0.33537 1.01182 0.0
N1010 N 0.14002 0.31184 0.88802 0.0
C1011 C 0.13462 0.27638 0.86569 0.0
C1012 C 0.12409 0.28941 0.84427 0.0
C1013 C 0.12692 0.307 0.85613 0.0
C1014 C 0.1508 0.29932 0.90742 0.0
C1015 C 0.14858 0.28164 0.89596 0.0
H1016 H 0.11755 0.31655 0.84294 0.0
H1017 H 0.16026 0.30259 0.93524 0.0
H1018 H 0.10351 0.35363 0.90555 0.0
H1019 H 0.0834 0.31249 0.99207 0.0
H1020 H 0.19724 0.36254 0.87925 0.0
H1021 H 0.11287 0.28606 0.82164 0.0
H1022 H 0.15714 0.2721 0.9132 0.0
C1023 C 0.42593 0.36104 0.68281 0.0
C1024 C 0.42377 0.34338 0.68968 0.0
N1025 N 0.40854 0.33858 0.66841 0.0
N1026 N 0.41227 0.36735 0.6567 0.0
C1027 C 0.40176 0.35341 0.64877 0.0
H1028 H 0.43652 0.36892 0.69729 0.0
Co1029 Co 0.40878 0.39092 0.64459 0.0
C1030 C 0.39919 0.39351 0.53941 0.0
O1031 O 0.41046 0.40651 0.53815 0.0
N1032 N 0.40484 0.41515 0.63589 0.0
C1033 C 0.39003 0.44019 0.62708 0.0
C1034 C 0.39072 0.42278 0.6144 0.0
C1035 C 0.41194 0.42814 0.66338 0.0
N1036 N 0.4033 0.44345 0.6584 0.0
O1037 O 0.38761 0.38982 0.68253 0.0
H1038 H 0.38052 0.41587 0.59469 0.0
H1039 H 0.42204 0.42613 0.69073 0.0
O1040 O 0.39643 0.3856 0.58073 0.0
C1041 C 0.39162 0.394 0.72691 0.0
O1042 O 0.40787 0.39858 0.73634 0.0
N1043 N 0.43089 0.39144 0.61223 0.0
C1044 C 0.46583 0.38391 0.58901 0.0
C1045 C 0.4521 0.37617 0.56241 0.0
C1046 C 0.4348 0.37975 0.57536 0.0
C1047 C 0.44415 0.39969 0.63683 0.0
C1048 C 0.46166 0.3963 0.62542 0.0
H1049 H 0.42474 0.37174 0.55881 0.0
H1050 H 0.44144 0.40732 0.66931 0.0
H1051 H 0.38925 0.35424 0.63001 0.0
H1052 H 0.43239 0.33489 0.71063 0.0
H1053 H 0.37956 0.44926 0.61818 0.0
H1054 H 0.45466 0.36643 0.53415 0.0
H1055 H 0.47178 0.40214 0.64817 0.0
H1056 H 0.08555 0.09376 0.09082 0.0
H1057 H 0.14983 0.16412 0.21302 0.0
H1058 H 0.11441 0.13176 1.00539 0.0
H1059 H 0.1152 0.13119 0.29807 0.0
H1060 H 0.13842 0.15126 0.13711 0.0
H1061 H 0.09775 0.10602 0.16643 0.0
C1062 C 0.09454 0.10467 0.08779 0.0
C1063 C 0.09894 0.11173 0.04135 0.0
C1064 C 0.1333 0.14681 0.17228 0.0
C1065 C 0.113 0.12592 0.12871 0.0
C1066 C 0.13983 0.15412 0.21589 0.0
C1067 C 0.13349 0.14873 0.26231 0.0
C1068 C 0.12033 0.13388 0.1747 0.0
C1069 C 0.1205 0.13575 0.26325 0.0
C1070 C 0.10147 0.11169 0.13125 0.0
C1071 C 0.11067 0.12586 0.04023 0.0
N1072 N 0.11437 0.12876 0.2201 0.0
N1073 N 0.11729 0.13249 0.08328 0.0
H1074 H 0.08395 0.90184 0.45833 0.0
H1075 H 0.14814 0.83061 0.33897 0.0
H1076 H 0.11333 0.86443 0.54506 0.0
H1077 H 0.11357 0.86324 0.25212 0.0
H1078 H 0.1368 0.84396 0.41416 0.0
H1079 H 0.09593 0.88908 0.38303 0.0
C1080 C 0.093 0.89096 0.46172 0.0
C1081 C 0.09762 0.88423 0.50847 0.0
C1082 C 0.13167 0.84824 0.37877 0.0
C1083 C 0.11144 0.86947 0.42145 0.0
C1084 C 0.13817 0.84064 0.33553 0.0
C1085 C 0.13184 0.84579 0.28876 0.0
C1086 C 0.11872 0.86123 0.37572 0.0
C1087 C 0.11887 0.85885 0.28718 0.0
C1088 C 0.09981 0.88366 0.41844 0.0
C1089 C 0.10941 0.8701 0.51002 0.0
N1090 N 0.11276 0.86612 0.33 0.0
N1091 N 0.1159 0.86321 0.46717 0.0
H1092 H 0.37656 0.86524 0.79452 0.0
H1093 H 0.37543 0.86522 0.49692 0.0
H1094 H 0.33984 0.83548 0.70668 0.0
H1095 H 0.40585 0.90141 0.58471 0.0
H1096 H 0.36286 0.8534 0.57352 0.0
H1097 H 0.38819 0.87808 0.71799 0.0
C1098 C 0.37089 0.86147 0.75931 0.0
C1099 C 0.35719 0.84926 0.7572 0.0
C1100 C 0.37224 0.86398 0.5759 0.0
C1101 C 0.37052 0.86374 0.66946 0.0
C1102 C 0.37941 0.87073 0.53215 0.0
C1103 C 0.3917 0.88435 0.53421 0.0
C1104 C 0.3775 0.87082 0.62206 0.0
C1105 C 0.39641 0.89092 0.58108 0.0
C1106 C 0.37753 0.86878 0.7156 0.0
C1107 C 0.3504 0.84483 0.71036 0.0
N1108 N 0.38938 0.88407 0.62297 0.0
N1109 N 0.35716 0.85199 0.66853 0.0
H1110 H 0.37781 0.12321 0.75033 0.0
H1111 H 0.3832 0.12871 0.04686 0.0
H1112 H 0.34607 0.15866 0.83668 0.0
H1113 H 0.40297 0.08516 0.96142 0.0
H1114 H 0.37063 0.14105 0.97043 0.0
H1115 H 0.38887 0.11031 0.82762 0.0
C1116 C 0.37316 0.12826 0.7854 0.0
C1117 C 0.36093 0.14198 0.78684 0.0
C1118 C 0.37765 0.12873 0.96867 0.0
C1119 C 0.37362 0.12742 0.8755 0.0
C1120 C 0.38475 0.12166 1.01234 0.0
C1121 C 0.39422 0.10589 1.01078 0.0
C1122 C 0.38019 0.12005 0.92316 0.0
C1123 C 0.39589 0.09739 0.9647 0.0
C1124 C 0.37943 0.12089 0.82955 0.0
C1125 C 0.35541 0.14804 0.83356 0.0
N1126 N 0.3891 0.10462 0.92294 0.0
N1127 N 0.36182 0.14079 0.87587 0.0
H1128 H 0.84432 0.83184 0.82953 0.0
H1129 H 0.90518 0.905 0.95271 0.0
H1130 H 0.87697 0.86679 0.74467 0.0
H1131 H 0.87952 0.86454 0.03727 0.0
H1132 H 0.89314 0.89262 0.87703 0.0
H1133 H 0.85535 0.84494 0.90558 0.0
C1134 C 0.8538 0.84233 0.82672 0.0
C1135 C 0.85969 0.84822 0.78027 0.0
C1136 C 0.89008 0.88644 0.91204 0.0
C1137 C 0.87242 0.86336 0.86813 0.0
C1138 C 0.89691 0.89353 0.95556 0.0
C1139 C 0.89341 0.8858 1.00179 0.0
C1140 C 0.87951 0.87147 0.91427 0.0
C1141 C 0.88256 0.87098 1.00264 0.0
C1142 C 0.86011 0.84978 0.87042 0.0
C1143 C 0.87203 0.86183 0.77947 0.0
N1144 N 0.87602 0.86428 0.95953 0.0
N1145 N 0.87795 0.86895 0.82272 0.0
H1146 H 0.8549 0.15176 0.75096 0.0
H1147 H 0.90279 0.08087 0.58036 0.0
H1148 H 0.89568 0.11675 0.80017 0.0
H1149 H 0.88331 0.12916 0.51781 0.0
H1150 H 0.89264 0.09012 0.66135 0.0
H1151 H 0.85821 0.14006 0.66609 0.0
C1152 C 0.86419 0.1413 0.7441 0.0
C1153 C 0.87496 0.13505 0.78248 0.0
C1154 C 0.89043 0.09867 0.62994 0.0
C1155 C 0.87877 0.12176 0.68638 0.0
C1156 C 0.89622 0.09341 0.58349 0.0
C1157 C 0.8942 0.10439 0.54217 0.0
C1158 C 0.88245 0.11508 0.63572 0.0
C1159 C 0.88524 0.12034 0.54872 0.0
C1160 C 0.86619 0.1348 0.69576 0.0
C1161 C 0.88708 0.12183 0.77163 0.0
N1162 N 0.87983 0.12533 0.59488 0.0
N1163 N 0.88862 0.11561 0.72476 0.0
H1164 H 0.6167 0.13011 0.23748 0.0
H1165 H 0.61739 0.12891 0.53554 0.0
H1166 H 0.65102 0.16204 0.32687 0.0
H1167 H 0.58936 0.09131 0.44618 0.0
H1168 H 0.62919 0.14192 0.45943 0.0
H1169 H 0.60558 0.11643 0.31357 0.0
C1170 C 0.62191 0.13423 0.27293 0.0
C1171 C 0.63486 0.14723 0.27554 0.0
C1172 C 0.62051 0.13076 0.45658 0.0
C1173 C 0.62215 0.13172 0.36287 0.0
C1174 C 0.61381 0.12331 0.50009 0.0
C1175 C 0.60238 0.10896 0.4975 0.0
C1176 C 0.61565 0.1239 0.41007 0.0
C1177 C 0.59812 0.10235 0.45028 0.0
C1178 C 0.61558 0.12641 0.31641 0.0
C1179 C 0.64108 0.15205 0.32274 0.0
N1180 N 0.60468 0.10989 0.40865 0.0
N1181 N 0.63467 0.14436 0.36429 0.0
H1182 H 0.61371 0.86569 0.29107 0.0
H1183 H 0.61497 0.86489 0.99352 0.0
H1184 H 0.64988 0.83485 0.20447 0.0
H1185 H 0.58477 0.90158 0.08024 0.0
H1186 H 0.62749 0.85315 0.07047 0.0
H1187 H 0.60231 0.87852 0.21411 0.0
C1188 C 0.6193 0.86167 0.25602 0.0
C1189 C 0.63278 0.84917 0.2544 0.0
C1190 C 0.61817 0.86383 0.07255 0.0
C1191 C 0.61975 0.86368 0.16614 0.0
C1192 C 0.61105 0.87055 0.02858 0.0
C1193 C 0.5988 0.88425 0.03025 0.0
C1194 C 0.61291 0.87079 0.11851 0.0
C1195 C 0.59416 0.89101 0.07692 0.0
C1196 C 0.6128 0.86898 0.21206 0.0
C1197 C 0.63948 0.84443 0.20775 0.0
N1198 N 0.60114 0.88418 0.11902 0.0
N1199 N 0.63287 0.85161 0.16566 0.0
H1200 H 0.61171 0.62842 0.5071 0.0
H1201 H 0.61744 0.62315 0.80377 0.0
H1202 H 0.59058 0.58593 0.59374 0.0
H1203 H 0.64993 0.6577 0.71718 0.0
H1204 H 0.60612 0.61043 0.72663 0.0
H1205 H 0.62506 0.64037 0.58311 0.0
C1206 C 0.61003 0.62151 0.54177 0.0
C1207 C 0.59991 0.60618 0.54382 0.0
C1208 C 0.61579 0.62076 0.72457 0.0
C1209 C 0.61483 0.61989 0.63094 0.0
C1210 C 0.62223 0.62803 0.76867 0.0
C1211 C 0.63471 0.64147 0.76718 0.0
C1212 C 0.6217 0.6271 0.67854 0.0
C1213 C 0.64038 0.6473 0.72037 0.0
C1214 C 0.61757 0.62836 0.5852 0.0
C1215 C 0.59811 0.59785 0.59007 0.0
N1216 N 0.6338 0.64017 0.67809 0.0
N1217 N 0.60533 0.60485 0.63155 0.0
H1218 H 0.64674 0.33252 0.82886 0.0
H1219 H 0.58361 0.40372 0.95194 0.0
H1220 H 0.61211 0.36578 0.74406 0.0
H1221 H 0.6125 0.36535 0.03665 0.0
H1222 H 0.59535 0.39128 0.87601 0.0
H1223 H 0.6357 0.34556 0.90478 0.0
C1224 C 0.63681 0.34263 0.82605 0.0
C1225 C 0.63037 0.34807 0.7797 0.0
C1226 C 0.59917 0.38557 0.91111 0.0
C1227 C 0.61763 0.36312 0.86735 0.0
C1228 C 0.59251 0.3927 0.95473 0.0
C1229 C 0.59706 0.38558 1.00105 0.0
C1230 C 0.61057 0.3712 0.91341 0.0
C1231 C 0.60865 0.3713 1.00191 0.0
C1232 C 0.63049 0.35004 0.86967 0.0
C1233 C 0.61748 0.36118 0.77884 0.0
N1234 N 0.615 0.36457 0.95873 0.0
N1235 N 0.61155 0.36828 0.82203 0.0
H1236 H 0.9068 0.39944 0.08145 0.0
H1237 H 0.84046 0.33067 0.20132 0.0
H1238 H 0.87645 0.36282 0.99495 0.0
H1239 H 0.87607 0.36215 0.28795 0.0
H1240 H 0.85235 0.34336 0.12603 0.0
H1241 H 0.89455 0.38711 0.15681 0.0
C1242 C 0.89748 0.38882 0.07812 0.0
C1243 C 0.89266 0.38219 0.0314 0.0
C1244 C 0.85759 0.34754 0.16139 0.0
C1245 C 0.87851 0.36793 0.11854 0.0
C1246 C 0.85078 0.34031 0.20469 0.0
C1247 C 0.85723 0.34535 0.25143 0.0
C1248 C 0.87098 0.36003 0.16433 0.0
C1249 C 0.87065 0.35788 0.25291 0.0
C1250 C 0.89052 0.38176 0.12145 0.0
C1251 C 0.88053 0.3684 0.02996 0.0
N1252 N 0.87706 0.3648 0.21002 0.0
N1253 N 0.87388 0.36174 0.07287 0.0
H1254 H 0.86545 0.65788 0.28417 0.0
H1255 H 0.89269 0.57968 0.46485 0.0
H1256 H 0.86266 0.60326 0.2438 0.0
H1257 H 0.887 0.6329 0.51609 0.0
H1258 H 0.88128 0.58832 0.3843 0.0
H1259 H 0.87327 0.64939 0.36867 0.0
C1260 C 0.86658 0.64409 0.29287 0.0
C1261 C 0.86361 0.63127 0.25638 0.0
C1262 C 0.88234 0.59815 0.41309 0.0
C1263 C 0.8724 0.62146 0.35367 0.0
C1264 C 0.88887 0.59322 0.45924 0.0
C1265 C 0.89087 0.60561 0.49728 0.0
C1266 C 0.87795 0.61572 0.40418 0.0
C1267 C 0.88559 0.62292 0.48787 0.0
C1268 C 0.87091 0.63926 0.34138 0.0
C1269 C 0.8649 0.61362 0.27045 0.0
N1270 N 0.87956 0.62752 0.44201 0.0
N1271 N 0.8693 0.60926 0.31776 0.0
H1272 H 0.37813 0.36456 0.52003 0.0
H1273 H 0.39925 0.36611 0.23456 0.0
H1274 H 0.40364 0.40825 0.44888 0.0
H1275 H 0.35211 0.34096 0.28505 0.0
H1276 H 0.40259 0.37977 0.31603 0.0
H1277 H 0.36943 0.3536 0.4375 0.0
C1278 C 0.38172 0.37194 0.48736 0.0
C1279 C 0.3918 0.38726 0.49155 0.0
C1280 C 0.39135 0.37147 0.30919 0.0
C1281 C 0.38218 0.37471 0.39763 0.0
C1282 C 0.38943 0.36375 0.2627 0.0
C1283 C 0.37524 0.35271 0.25303 0.0
C1284 C 0.37931 0.36765 0.34696 0.0
C1285 C 0.36304 0.34972 0.29097 0.0
C1286 C 0.37675 0.3657 0.44038 0.0
C1287 C 0.39607 0.39628 0.44781 0.0
N1288 N 0.36548 0.35695 0.33669 0.0
N1289 N 0.39147 0.38976 0.40295 0.0
H1290 H 0.37811 0.62923 0.99389 0.0
H1291 H 0.3782 0.62996 0.29187 0.0
H1292 H 0.40821 0.59319 0.08322 0.0
H1293 H 0.34268 0.66056 0.2022 0.0
H1294 H 0.39022 0.617 0.21583 0.0
H1295 H 0.36565 0.64165 0.06999 0.0
C1296 C 0.38204 0.62388 0.02935 0.0
C1297 C 0.3942 0.61011 0.03197 0.0
C1298 C 0.37975 0.62653 0.21293 0.0
C1299 C 0.38014 0.62433 0.1193 0.0
C1300 C 0.3729 0.63392 0.25636 0.0
C1301 C 0.35937 0.64635 0.25362 0.0
C1302 C 0.37311 0.63168 0.16643 0.0
C1303 C 0.35306 0.65101 0.2064 0.0
C1304 C 0.37495 0.63097 0.07284 0.0
C1305 C 0.39887 0.60376 0.07915 0.0
N1306 N 0.35999 0.64374 0.16489 0.0
N1307 N 0.39189 0.61094 0.12076 0.0
H1308 H 0.08901 0.58634 0.94926 0.0
H1309 H 0.14604 0.66223 0.82561 0.0
H1310 H 0.11353 0.62774 0.03328 0.0
H1311 H 0.11464 0.62602 0.74073 0.0
H1312 H 0.1359 0.64855 0.90156 0.0
H1313 H 0.10005 0.59933 0.87322 0.0
C1314 C 0.09682 0.59814 0.95189 0.0
C1315 C 0.10031 0.60596 0.99805 0.0
C1316 C 0.1312 0.64356 0.86643 0.0
C1317 C 0.11301 0.62097 0.91028 0.0
C1318 C 0.13702 0.65134 0.82278 0.0
C1319 C 0.13122 0.64527 0.77638 0.0
C1320 C 0.11951 0.62945 0.86413 0.0
C1321 C 0.11948 0.63114 0.77553 0.0
C1322 C 0.10307 0.60558 0.9082 0.0
C1323 C 0.11053 0.62123 0.99869 0.0
N1324 N 0.11404 0.6237 0.81876 0.0
N1325 N 0.1165 0.62824 0.95547 0.0
H1326 H 0.14832 0.33462 0.71709 0.0
H1327 H 0.08484 0.40581 0.59436 0.0
H1328 H 0.11448 0.36869 0.80147 0.0
H1329 H 0.11068 0.36559 0.50897 0.0
H1330 H 0.09806 0.39418 0.66929 0.0
H1331 H 0.13692 0.34733 0.64077 0.0
C1332 C 0.13852 0.34484 0.71975 0.0
C1333 C 0.13239 0.35059 0.76618 0.0
C1334 C 0.10093 0.38788 0.63429 0.0
C1335 C 0.11926 0.36528 0.67799 0.0
C1336 C 0.09341 0.39454 0.59116 0.0
C1337 C 0.09652 0.38661 0.54492 0.0
C1338 C 0.11181 0.37312 0.6318 0.0
C1339 C 0.10792 0.37216 0.5436 0.0
C1340 C 0.132 0.35206 0.67589 0.0
C1341 C 0.11963 0.36384 0.76675 0.0
N1342 N 0.11509 0.36583 0.58646 0.0
N1343 N 0.11353 0.37073 0.72339 0.0
H1344 H 0.16525 0.14416 0.57619 0.0
H1345 H 0.12848 0.12046 0.79982 0.0
H1346 H 0.11904 0.12139 0.51112 0.0
H1347 H 0.09414 0.08715 0.71497 0.0
H1348 H 0.14408 0.12786 0.72394 0.0
H1349 H 0.1588 0.12937 0.65385 0.0
C1350 C 0.15384 0.13577 0.57823 0.0
C1351 C 0.14256 0.1341 0.53743 0.0
C1352 C 0.13351 0.1185 0.72171 0.0
C1353 C 0.13443 0.11785 0.62738 0.0
C1354 C 0.12458 0.1143 0.76539 0.0
C1355 C 0.10991 0.10333 0.76364 0.0
C1356 C 0.12772 0.11159 0.676 0.0
C1357 C 0.10526 0.09587 0.7179 0.0
C1358 C 0.14998 0.12754 0.62297 0.0
C1359 C 0.12808 0.12298 0.54172 0.0
N1360 N 0.11395 0.10032 0.67596 0.0
N1361 N 0.12427 0.11551 0.58623 0.0
H1362 H 0.09892 0.91528 0.82634 0.0
H1363 H 0.12204 0.87637 0.04871 0.0
H1364 H 0.1235 0.87048 0.7585 0.0
H1365 H 0.15636 0.84344 0.96265 0.0
H1366 H 0.11459 0.89259 0.97367 0.0
H1367 H 0.11289 0.90793 0.90467 0.0
C1368 C 0.10752 0.90398 0.82793 0.0
C1369 C 0.10996 0.89338 0.78602 0.0
C1370 C 0.12416 0.88219 0.97102 0.0
C1371 C 0.12533 0.88421 0.87671 0.0
C1372 C 0.1284 0.87291 1.01424 0.0
C1373 C 0.13971 0.85847 1.01189 0.0
C1374 C 0.13138 0.87699 0.92516 0.0
C1375 C 0.14739 0.85438 0.96606 0.0
C1376 C 0.11531 0.8996 0.87306 0.0
C1377 C 0.12133 0.87903 0.7899 0.0
N1378 N 0.14292 0.8634 0.92459 0.0
N1379 N 0.12838 0.87471 0.83469 0.0
H1380 H 0.36569 0.87768 0.99841 0.0
H1381 H 0.36286 0.87448 0.29369 0.0
H1382 H 0.3324 0.84303 0.082 0.0
H1383 H 0.39455 0.91064 0.21023 0.0
H1384 H 0.34767 0.86633 0.21692 0.0
H1385 H 0.37262 0.89346 0.0752 0.0
C1386 C 0.35954 0.87365 0.03266 0.0
C1387 C 0.34867 0.85888 0.03396 0.0
C1388 C 0.35774 0.87629 0.21555 0.0
C1389 C 0.35669 0.87662 0.12197 0.0
C1390 C 0.36631 0.88102 0.25949 0.0
C1391 C 0.38013 0.89307 0.2582 0.0
C1392 C 0.3631 0.88364 0.17016 0.0
C1393 C 0.38414 0.90107 0.21275 0.0
C1394 C 0.36356 0.88257 0.07659 0.0
C1395 C 0.34109 0.85418 0.07944 0.0
N1396 N 0.37586 0.89605 0.17054 0.0
N1397 N 0.34542 0.86284 0.12162 0.0
H1398 H 0.37118 0.11284 0.2511 0.0
H1399 H 0.37553 0.11439 0.54732 0.0
H1400 H 0.4103 0.08564 0.33725 0.0
H1401 H 0.33703 0.14235 0.46094 0.0
H1402 H 0.38527 0.09944 0.47164 0.0
H1403 H 0.35539 0.11961 0.32786 0.0
C1404 C 0.37626 0.108 0.28598 0.0
C1405 C 0.39219 0.09886 0.28778 0.0
C1406 C 0.37447 0.10863 0.46941 0.0
C1407 C 0.37435 0.1067 0.37583 0.0
C1408 C 0.36883 0.11704 0.51272 0.0
C1409 C 0.35558 0.12974 0.51031 0.0
C1410 C 0.3668 0.11299 0.42351 0.0
C1411 C 0.34746 0.1328 0.46436 0.0
C1412 C 0.3673 0.11194 0.32988 0.0
C1413 C 0.39819 0.09295 0.33413 0.0
N1414 N 0.35332 0.12467 0.4228 0.0
N1415 N 0.3894 0.09713 0.37622 0.0
H1416 H 0.90138 0.91133 0.32656 0.0
H1417 H 0.83266 0.84813 0.45718 0.0
H1418 H 0.86686 0.87657 0.24701 0.0
H1419 H 0.8712 0.87834 0.53669 0.0
H1420 H 0.84056 0.86333 0.38102 0.0
H1421 H 0.88618 0.90426 0.40327 0.0
C1422 C 0.89038 0.9024 0.32509 0.0
C1423 C 0.88552 0.89434 0.28033 0.0
C1424 C 0.84712 0.86689 0.41516 0.0
C1425 C 0.86811 0.88606 0.36854 0.0
C1426 C 0.84257 0.85827 0.45877 0.0
C1427 C 0.85143 0.86187 0.50325 0.0
C1428 C 0.86076 0.87916 0.41572 0.0
C1429 C 0.86404 0.87519 0.50325 0.0
C1430 C 0.88172 0.89836 0.36904 0.0
C1431 C 0.87106 0.88306 0.28064 0.0
N1432 N 0.86853 0.88317 0.45992 0.0
N1433 N 0.86302 0.87905 0.32423 0.0
H1434 H 0.89239 0.07568 0.22681 0.0
H1435 H 0.86814 0.11327 1.00436 0.0
H1436 H 0.86866 0.12099 0.29434 0.0
H1437 H 0.83864 0.15021 0.09171 0.0
H1438 H 0.87431 0.09651 0.07915 0.0
H1439 H 0.87792 0.08275 0.14913 0.0
C1440 C 0.88382 0.087 0.2253 0.0
C1441 C 0.88184 0.09787 0.26681 0.0
C1442 C 0.86611 0.10798 0.08233 0.0
C1443 C 0.86589 0.10676 0.17684 0.0
C1444 C 0.86257 0.11756 0.03919 0.0
C1445 C 0.85308 0.13324 0.04195 0.0
C1446 C 0.86001 0.11416 0.12852 0.0
C1447 C 0.84627 0.13831 0.08805 0.0
C1448 C 0.87573 0.09123 0.18051 0.0
C1449 C 0.87051 0.11225 0.26318 0.0
N1450 N 0.85005 0.12895 0.12943 0.0
N1451 N 0.86322 0.11646 0.21867 0.0
H1452 H 0.60092 0.07824 0.81673 0.0
H1453 H 0.62494 0.11829 0.03704 0.0
H1454 H 0.62609 0.12202 0.74591 0.0
H1455 H 0.65876 0.15074 0.9484 0.0
H1456 H 0.61707 0.10179 0.96292 0.0
H1457 H 0.61471 0.08623 0.89473 0.0
C1458 C 0.6096 0.08946 0.81761 0.0
C1459 C 0.61226 0.09957 0.7749 0.0
C1460 C 0.62659 0.11216 0.95946 0.0
C1461 C 0.62748 0.10951 0.8652 0.0
C1462 C 0.63107 0.12161 1.00216 0.0
C1463 C 0.64241 0.13598 0.9989 0.0
C1464 C 0.6336 0.11708 0.91314 0.0
C1465 C 0.6498 0.13987 0.95257 0.0
C1466 C 0.61729 0.09422 0.86255 0.0
C1467 C 0.62373 0.11384 0.77793 0.0
N1468 N 0.64512 0.13064 0.91162 0.0
N1469 N 0.6307 0.11853 0.82251 0.0
H1470 H 0.62814 0.87515 0.79067 0.0
H1471 H 0.6652 0.85126 0.56769 0.0
H1472 H 0.59444 0.90917 0.70569 0.0
H1473 H 0.61956 0.87515 0.5021 0.0
H1474 H 0.65885 0.8661 0.64538 0.0
H1475 H 0.64403 0.86787 0.71519 0.0
C1476 C 0.62445 0.8815 0.75632 0.0
C1477 C 0.60986 0.89262 0.75436 0.0
C1478 C 0.65013 0.86817 0.61438 0.0
C1479 C 0.628 0.88448 0.66718 0.0
C1480 C 0.65392 0.85988 0.56963 0.0
C1481 C 0.64275 0.86184 0.52868 0.0
C1482 C 0.63476 0.87819 0.61862 0.0
C1483 C 0.6285 0.8733 0.53283 0.0
C1484 C 0.63355 0.87736 0.71286 0.0
C1485 C 0.6055 0.90033 0.70874 0.0
N1486 N 0.62474 0.88081 0.57733 0.0
N1487 N 0.61434 0.89592 0.66699 0.0
H1488 H 0.62118 0.61392 1.00712 0.0
H1489 H 0.62422 0.61325 0.30373 0.0
H1490 H 0.65864 0.64293 0.0941 0.0
H1491 H 0.5855 0.58608 0.21638 0.0
H1492 H 0.64036 0.61989 0.22737 0.0
H1493 H 0.61138 0.59913 0.08285 0.0
C1494 C 0.62765 0.61684 0.04188 0.0
C1495 C 0.64062 0.62979 0.04437 0.0
C1496 C 0.62846 0.61224 0.22503 0.0
C1497 C 0.6293 0.6132 0.13131 0.0
C1498 C 0.61932 0.60837 0.26869 0.0
C1499 C 0.6034 0.59929 0.26639 0.0
C1500 C 0.62161 0.60697 0.17886 0.0
C1501 C 0.5976 0.59335 0.21987 0.0
C1502 C 0.62196 0.60852 0.08524 0.0
C1503 C 0.64844 0.63317 0.09057 0.0
N1504 N 0.60657 0.59744 0.17806 0.0
N1505 N 0.64253 0.62512 0.13217 0.0
H1506 H 0.65823 0.34702 0.45898 0.0
H1507 H 0.59327 0.41317 0.32366 0.0
H1508 H 0.61998 0.37861 0.53534 0.0
H1509 H 0.62619 0.37616 0.24682 0.0
H1510 H 0.60795 0.4058 0.40115 0.0
H1511 H 0.6517 0.36265 0.38242 0.0
C1512 C 0.64865 0.35751 0.4598 0.0
C1513 C 0.63944 0.36138 0.50345 0.0
C1514 C 0.6122 0.39948 0.36732 0.0
C1515 C 0.63175 0.37921 0.41549 0.0
C1516 C 0.60386 0.4037 0.32295 0.0
C1517 C 0.60838 0.39508 0.27881 0.0
C1518 C 0.62512 0.38641 0.36781 0.0
C1519 C 0.62229 0.3831 0.27999 0.0
C1520 C 0.64491 0.3664 0.41597 0.0
C1521 C 0.62735 0.3752 0.50252 0.0
N1522 N 0.62999 0.37891 0.32401 0.0
N1523 N 0.62364 0.38345 0.45896 0.0
H1524 H 0.89646 0.40902 0.7069 0.0
H1525 H 0.82926 0.34428 0.57456 0.0
H1526 H 0.86336 0.37284 0.78569 0.0
H1527 H 0.86762 0.37492 0.49605 0.0
H1528 H 0.83705 0.35937 0.65105 0.0
H1529 H 0.88152 0.40148 0.62994 0.0
C1530 C 0.8858 0.39969 0.70814 0.0
C1531 C 0.88128 0.39139 0.75276 0.0
C1532 C 0.8436 0.36302 0.61708 0.0
C1533 C 0.8642 0.38254 0.66426 0.0
C1534 C 0.83915 0.35444 0.57325 0.0
C1535 C 0.84796 0.35821 0.52889 0.0
C1536 C 0.85709 0.37545 0.61689 0.0
C1537 C 0.86049 0.37161 0.52936 0.0
C1538 C 0.87731 0.39537 0.66406 0.0
C1539 C 0.86726 0.37956 0.75219 0.0
N1540 N 0.86487 0.37957 0.57287 0.0
N1541 N 0.85938 0.37529 0.70845 0.0
H1542 H 0.89368 0.58307 0.8203 0.0
H1543 H 0.83968 0.65842 0.95442 0.0
H1544 H 0.86599 0.62395 0.74257 0.0
H1545 H 0.86874 0.61863 0.03279 0.0
H1546 H 0.84448 0.64268 0.87716 0.0
H1547 H 0.87992 0.59234 0.89745 0.0
C1548 C 0.88437 0.59379 0.81934 0.0
C1549 C 0.88108 0.60287 0.77505 0.0
C1550 C 0.84963 0.63721 0.9112 0.0
C1551 C 0.8655 0.6138 0.86366 0.0
C1552 C 0.84691 0.6462 0.95545 0.0
C1553 C 0.85405 0.63994 1.00004 0.0
C1554 C 0.85976 0.62187 0.91119 0.0
C1555 C 0.86306 0.62393 0.99923 0.0
C1556 C 0.87657 0.59912 0.8635 0.0
C1557 C 0.86885 0.61657 0.77585 0.0
N1558 N 0.8659 0.61558 0.95531 0.0
N1559 N 0.86173 0.62182 0.81968 0.0
H1560 H 0.33552 0.33773 0.94633 0.0
H1561 H 0.39261 0.41103 0.81487 0.0
H1562 H 0.36721 0.37519 0.02541 0.0
H1563 H 0.364 0.37107 0.73619 0.0
H1564 H 0.37808 0.4024 0.8914 0.0
H1565 H 0.34044 0.35393 0.86988 0.0
C1566 C 0.3433 0.34958 0.9477 0.0
C1567 C 0.35119 0.35501 0.99212 0.0
C1568 C 0.37471 0.39571 0.85735 0.0
C1569 C 0.35708 0.37353 0.90434 0.0
C1570 C 0.38296 0.40065 0.81355 0.0
C1571 C 0.37966 0.39158 0.76926 0.0
C1572 C 0.36316 0.38144 0.85708 0.0
C1573 C 0.36693 0.37839 0.76954 0.0
C1574 C 0.34611 0.35882 0.90396 0.0
C1575 C 0.36093 0.37055 0.99192 0.0
N1576 N 0.35936 0.37349 0.81302 0.0
N1577 N 0.36385 0.37912 0.94846 0.0
H1578 H 0.39439 0.57953 0.71433 0.0
H1579 H 0.36914 0.61757 0.49274 0.0
H1580 H 0.36898 0.62373 0.7829 0.0
H1581 H 0.33415 0.64947 0.57976 0.0
H1582 H 0.37755 0.60179 0.56764 0.0
H1583 H 0.37989 0.58647 0.6365 0.0
C1584 C 0.38553 0.59063 0.71298 0.0
C1585 C 0.38299 0.60118 0.75493 0.0
C1586 C 0.36763 0.61185 0.57055 0.0
C1587 C 0.36698 0.60989 0.66482 0.0
C1588 C 0.36285 0.62088 0.52742 0.0
C1589 C 0.35104 0.63491 0.53004 0.0
C1590 C 0.36047 0.61686 0.61662 0.0
C1591 C 0.34347 0.63884 0.57613 0.0
C1592 C 0.37743 0.59477 0.66815 0.0
C1593 C 0.37126 0.61524 0.75143 0.0
N1594 N 0.34846 0.63005 0.61752 0.0
N1595 N 0.36389 0.61935 0.70689 0.0
H1596 H 0.15937 0.64673 0.45528 0.0
H1597 H 0.09538 0.57955 0.32095 0.0
H1598 H 0.12208 0.61438 0.53235 0.0
H1599 H 0.1276 0.61689 0.24355 0.0
H1600 H 0.11002 0.58721 0.39825 0.0
H1601 H 0.15296 0.63101 0.37876 0.0
C1602 C 0.15005 0.63604 0.45627 0.0
C1603 C 0.14106 0.63198 0.50011 0.0
C1604 C 0.11412 0.59355 0.36434 0.0
C1605 C 0.13348 0.61406 0.41221 0.0
C1606 C 0.10579 0.58916 0.32008 0.0
C1607 C 0.11012 0.59778 0.27581 0.0
C1608 C 0.12684 0.60676 0.36462 0.0
C1609 C 0.12384 0.60996 0.27681 0.0
C1610 C 0.14637 0.62711 0.41246 0.0
C1611 C 0.12929 0.61792 0.49938 0.0
N1612 N 0.13153 0.61429 0.32072 0.0
N1613 N 0.12562 0.60964 0.45585 0.0
H1614 H 0.08762 0.41202 0.22003 0.0
H1615 H 0.15835 0.35032 0.09121 0.0
H1616 H 0.12379 0.37935 0.30101 0.0
H1617 H 0.11952 0.37989 1.01057 0.0
H1618 H 0.14985 0.36538 0.16715 0.0
H1619 H 0.10303 0.40506 0.14349 0.0
C1620 C 0.09906 0.40362 0.22184 0.0
C1621 C 0.10434 0.39613 0.267 0.0
C1622 C 0.14335 0.36882 0.13283 0.0
C1623 C 0.12194 0.38786 0.17891 0.0
C1624 C 0.14823 0.36027 0.08931 0.0
C1625 C 0.13952 0.36374 0.04449 0.0
C1626 C 0.1295 0.3809 0.13189 0.0
C1627 C 0.12661 0.37683 0.04423 0.0
C1628 C 0.10782 0.39961 0.17798 0.0
C1629 C 0.1193 0.38545 0.26709 0.0
N1630 N 0.12181 0.38475 0.08745 0.0
N1631 N 0.12742 0.38141 0.22357 0.0
H1632 H 0.29988 0.16008 0.5264 0.0
H1633 H 0.19546 0.16048 0.52313 0.0
H1634 H 0.26874 0.14947 0.65593 0.0
H1635 H 0.22662 0.15407 0.39139 0.0
H1636 H 0.22221 0.16037 0.57297 0.0
H1637 H 0.27313 0.16186 0.47691 0.0
C1638 C 0.28737 0.15834 0.54451 0.0
C1639 C 0.28644 0.15475 0.59538 0.0
C1640 C 0.2232 0.15904 0.53315 0.0
C1641 C 0.25586 0.15659 0.53896 0.0
C1642 C 0.20798 0.15926 0.50468 0.0
C1643 C 0.20892 0.15741 0.45307 0.0
C1644 C 0.23948 0.15713 0.50979 0.0
C1645 C 0.22541 0.15547 0.4311 0.0
C1646 C 0.27214 0.15919 0.51618 0.0
C1647 C 0.26995 0.1522 0.61678 0.0
N1648 N 0.24009 0.15545 0.45959 0.0
N1649 N 0.25526 0.15324 0.58848 0.0
H1650 H 0.08279 0.94618 0.76986 0.0
H1651 H 0.08226 0.0507 0.77901 0.0
H1652 H 0.09009 0.97834 0.64034 0.0
H1653 H 0.09076 0.01841 0.90783 0.0
H1654 H 0.08134 0.02434 0.72763 0.0
H1655 H 0.08194 0.97256 0.82097 0.0
C1656 C 0.084 0.95883 0.75212 0.0
C1657 C 0.08638 0.96014 0.70075 0.0
C1658 C 0.08336 0.02302 0.76716 0.0
C1659 C 0.0856 0.99035 0.75905 0.0
C1660 C 0.08372 0.03803 0.79655 0.0
C1661 C 0.08648 0.03667 0.84779 0.0
C1662 C 0.08561 0.00653 0.78923 0.0
C1663 C 0.08868 0.01997 0.86844 0.0
C1664 C 0.08368 0.97386 0.78136 0.0
C1665 C 0.0883 0.97683 0.67984 0.0
N1666 N 0.08813 0.00551 0.8391 0.0
N1667 N 0.0878 0.99132 0.70906 0.0
H1668 H 0.1927 0.8321 0.02616 0.0
H1669 H 0.29702 0.82788 1.01541 0.0
H1670 H 0.2254 0.83726 0.15567 0.0
H1671 H 0.26474 0.83876 0.88789 0.0
H1672 H 0.27077 0.82717 0.06703 0.0
H1673 H 0.21889 0.83061 0.97464 0.0
C1674 C 0.20543 0.83274 0.04378 0.0
C1675 C 0.20695 0.83468 0.09527 0.0
C1676 C 0.26943 0.82962 0.02772 0.0
C1677 C 0.23693 0.83311 0.03654 0.0
C1678 C 0.28436 0.82984 0.99817 0.0
C1679 C 0.28297 0.83326 0.94727 0.0
C1680 C 0.25299 0.8327 1.00611 0.0
C1681 C 0.26631 0.83613 0.92702 0.0
C1682 C 0.22035 0.83203 1.01433 0.0
C1683 C 0.22373 0.83583 0.11608 0.0
N1684 N 0.25193 0.83574 0.9565 0.0
N1685 N 0.23812 0.83496 0.08663 0.0
H1686 H 0.39384 0.97699 0.39925 0.0
H1687 H 0.41398 0.0145 0.12869 0.0
H1688 H 0.41122 0.94526 0.27653 0.0
H1689 H 0.39983 0.04702 0.25313 0.0
H1690 H 0.40995 0.98856 0.18036 0.0
H1691 H 0.39338 0.00258 0.34461 0.0
C1692 C 0.39759 0.97544 0.36087 0.0
C1693 C 0.40282 0.95905 0.34263 0.0
C1694 C 0.40756 0.00137 0.19622 0.0
C1695 C 0.40222 0.98813 0.27987 0.0
C1696 C 0.40983 0.01616 0.16672 0.0
C1697 C 0.40738 0.03294 0.18667 0.0
C1698 C 0.40286 0.00339 0.24616 0.0
C1699 C 0.40176 0.03436 0.236 0.0
C1700 C 0.39732 0.99001 0.3297 0.0
C1701 C 0.40754 0.95771 0.29257 0.0
N1702 N 0.39987 0.01977 0.2642 0.0
N1703 N 0.40714 0.97206 0.26298 0.0
H1704 H 0.69418 0.82986 0.51098 0.0
H1705 H 0.79852 0.83442 0.51753 0.0
H1706 H 0.72546 0.84087 0.38199 0.0
H1707 H 0.76651 0.83919 0.64822 0.0
H1708 H 0.77204 0.83292 0.46688 0.0
H1709 H 0.72077 0.82924 0.56136 0.0
C1710 C 0.70669 0.83187 0.49315 0.0
C1711 C 0.70771 0.83528 0.44218 0.0
C1712 C 0.7708 0.83426 0.50664 0.0
C1713 C 0.73809 0.83483 0.49966 0.0
C1714 C 0.78589 0.83496 0.53559 0.0
C1715 C 0.78463 0.83681 0.58716 0.0
C1716 C 0.75434 0.83525 0.52944 0.0
C1717 C 0.76797 0.83784 0.60856 0.0
C1718 C 0.72183 0.83171 0.522 0.0
C1719 C 0.7242 0.83824 0.42118 0.0
N1720 N 0.75343 0.83698 0.57959 0.0
N1721 N 0.73879 0.83791 0.45001 0.0
H1722 H 0.90603 0.97854 0.13379 0.0
H1723 H 0.90888 0.01517 0.40916 0.0
H1724 H 0.91655 0.94562 0.2601 0.0
H1725 H 0.91709 0.04816 0.28186 0.0
H1726 H 0.9102 0.98934 0.35517 0.0
H1727 H 0.90843 0.00442 0.18742 0.0
C1728 C 0.90896 0.97683 0.17273 0.0
C1729 C 0.91123 0.96002 0.19255 0.0
C1730 C 0.91193 0.00223 0.33917 0.0
C1731 C 0.91381 0.98931 0.25397 0.0
C1732 C 0.91115 0.01689 0.3699 0.0
C1733 C 0.91303 0.0337 0.3499 0.0
C1734 C 0.91426 0.00447 0.28798 0.0
C1735 C 0.91589 0.03538 0.29881 0.0
C1736 C 0.9104 0.99152 0.20321 0.0
C1737 C 0.915 0.95838 0.24321 0.0
N1738 N 0.91624 0.02094 0.26947 0.0
N1739 N 0.91603 0.97284 0.27229 0.0
H1740 H 0.79815 0.14029 1.00004 0.0
H1741 H 0.69684 0.16588 1.01575 0.0
H1742 H 0.7705 0.1656 0.8804 0.0
H1743 H 0.7271 0.14575 0.13839 0.0
H1744 H 0.72294 0.16464 0.96388 0.0
H1745 H 0.7714 0.14028 0.04866 0.0
C1746 C 0.7864 0.14587 0.98401 0.0
C1747 C 0.78659 0.15321 0.9364 0.0
C1748 C 0.72386 0.16053 1.00217 0.0
C1749 C 0.75578 0.15317 0.99191 0.0
C1750 C 0.70899 0.16139 0.03205 0.0
C1751 C 0.70979 0.156 0.08178 0.0
C1752 C 0.73963 0.15421 0.02208 0.0
C1753 C 0.72584 0.14989 0.10026 0.0
C1754 C 0.7711 0.14583 1.01177 0.0
C1755 C 0.77088 0.15982 0.91695 0.0
N1756 N 0.7401 0.14917 0.07043 0.0
N1757 N 0.75608 0.15977 0.94499 0.0
H1758 H 0.58969 0.01504 0.62571 0.0
H1759 H 0.58602 0.97658 0.89939 0.0
H1760 H 0.57996 0.04713 0.75418 0.0
H1761 H 0.57833 0.94442 0.76995 0.0
H1762 H 0.5853 0.00272 0.84669 0.0
H1763 H 0.58715 0.9888 0.67779 0.0
C1764 C 0.58692 0.01651 0.6648 0.0
C1765 C 0.5849 0.0332 0.68564 0.0
C1766 C 0.58358 0.98995 0.82989 0.0
C1767 C 0.58215 0.00347 0.74533 0.0
C1768 C 0.58404 0.97509 0.8599 0.0
C1769 C 0.58213 0.95841 0.83897 0.0
C1770 C 0.58152 0.98805 0.77846 0.0
C1771 C 0.57958 0.95708 0.78761 0.0
C1772 C 0.58539 0.0016 0.69441 0.0
C1773 C 0.5813 0.03449 0.73646 0.0
N1774 N 0.57952 0.97171 0.759 0.0
N1775 N 0.58018 0.01983 0.76465 0.0
H1776 H 0.72618 0.64703 0.89802 0.0
H1777 H 0.77021 0.66978 0.15979 0.0
H1778 H 0.69698 0.66645 0.02319 0.0
H1779 H 0.7984 0.64912 0.03429 0.0
H1780 H 0.7432 0.66905 0.11073 0.0
H1781 H 0.75295 0.64852 0.94734 0.0
C1782 C 0.72543 0.65165 0.93585 0.0
C1783 C 0.70932 0.65662 0.95641 0.0
C1784 C 0.75532 0.6647 0.09398 0.0
C1785 C 0.73991 0.65838 1.0133 0.0
C1786 C 0.77071 0.66501 0.12208 0.0
C1787 C 0.78662 0.65962 0.10105 0.0
C1788 C 0.75587 0.65891 0.0446 0.0
C1789 C 0.78653 0.65372 0.0518 0.0
C1790 C 0.7407 0.65254 0.96401 0.0
C1791 C 0.70911 0.66272 1.00551 0.0
N1792 N 0.77142 0.65353 0.02533 0.0
N1793 N 0.72417 0.66335 0.03235 0.0
H1794 H 0.60685 0.53913 0.33291 0.0
H1795 H 0.55802 0.45721 0.2097 0.0
H1796 H 0.55497 0.52173 0.37236 0.0
H1797 H 0.61242 0.46908 0.18287 0.0
H1798 H 0.55642 0.48208 0.2661 0.0
H1799 H 0.6091 0.51448 0.27492 0.0
C1800 C 0.596 0.5301 0.32961 0.0
C1801 C 0.58075 0.53248 0.35779 0.0
C1802 C 0.56872 0.47928 0.24783 0.0
C1803 C 0.58316 0.5044 0.29151 0.0
C1804 C 0.56963 0.46505 0.21564 0.0
C1805 C 0.58538 0.46095 0.1917 0.0
C1806 C 0.58366 0.48956 0.25619 0.0
C1807 C 0.59995 0.4718 0.20011 0.0
C1808 C 0.59729 0.51604 0.29659 0.0
C1809 C 0.56711 0.52032 0.35223 0.0
N1810 N 0.59875 0.48559 0.23183 0.0
N1811 N 0.56862 0.5069 0.31965 0.0
H1812 H 0.72323 0.34341 0.65108 0.0
H1813 H 0.7633 0.34282 0.37807 0.0
H1814 H 0.6919 0.33601 0.5198 0.0
H1815 H 0.79436 0.33457 0.50952 0.0
H1816 H 0.73684 0.34332 0.42948 0.0
H1817 H 0.74965 0.34316 0.59958 0.0
C1818 C 0.72198 0.34172 0.61143 0.0
C1819 C 0.70548 0.33954 0.58964 0.0
C1820 C 0.74946 0.34131 0.44697 0.0
C1821 C 0.73539 0.33936 0.53065 0.0
C1822 C 0.76449 0.3411 0.41772 0.0
C1823 C 0.78092 0.33846 0.4396 0.0
C1824 C 0.75098 0.33913 0.49845 0.0
C1825 C 0.78188 0.33628 0.49112 0.0
C1826 C 0.73699 0.3415 0.58213 0.0
C1827 C 0.70443 0.33737 0.53812 0.0
N1828 N 0.76711 0.33673 0.51886 0.0
N1829 N 0.71919 0.33741 0.5103 0.0
H1830 H 0.90736 0.44391 0.77086 0.0
H1831 H 0.90855 0.54832 0.76159 0.0
H1832 H 0.90068 0.47612 0.90067 0.0
H1833 H 0.89808 0.51617 0.63366 0.0
H1834 H 0.90969 0.52196 0.81289 0.0
H1835 H 0.90799 0.47028 0.71973 0.0
C1836 C 0.90624 0.45657 0.78864 0.0
C1837 C 0.9041 0.45792 0.84007 0.0
C1838 C 0.90719 0.52067 0.77358 0.0
C1839 C 0.90463 0.48808 0.78182 0.0
C1840 C 0.9067 0.53567 0.74424 0.0
C1841 C 0.90334 0.53433 0.6933 0.0
C1842 C 0.90447 0.50422 0.7517 0.0
C1843 C 0.90065 0.51768 0.67284 0.0
C1844 C 0.90644 0.47159 0.75941 0.0
C1845 C 0.9023 0.47461 0.86111 0.0
N1846 N 0.90134 0.50323 0.7021 0.0
N1847 N 0.90268 0.48909 0.83188 0.0
H1848 H 0.22462 0.34762 0.89675 0.0
H1849 H 0.26958 0.3266 0.15852 0.0
H1850 H 0.19553 0.33175 0.02594 0.0
H1851 H 0.29787 0.34218 0.02762 0.0
H1852 H 0.24214 0.32876 0.11157 0.0
H1853 H 0.25162 0.3459 0.945 0.0
C1854 C 0.22392 0.3438 0.93528 0.0
C1855 C 0.2078 0.33976 0.95718 0.0
C1856 C 0.25438 0.33167 0.09319 0.0
C1857 C 0.23866 0.33767 1.01277 0.0
C1858 C 0.27001 0.33052 0.12004 0.0
C1859 C 0.28605 0.33403 0.09686 0.0
C1860 C 0.25484 0.33646 0.04295 0.0
C1861 C 0.28587 0.33897 0.04678 0.0
C1862 C 0.23934 0.34275 0.96281 0.0
C1863 C 0.20767 0.33469 1.0072 0.0
N1864 N 0.27055 0.34002 0.02158 0.0
N1865 N 0.22287 0.33381 0.03333 0.0
H1866 H 0.40848 0.54884 0.77018 0.0
H1867 H 0.41153 0.44452 0.75596 0.0
H1868 H 0.40255 0.51591 0.8987 0.0
H1869 H 0.39874 0.4771 0.63061 0.0
H1870 H 0.41286 0.47068 0.80825 0.0
H1871 H 0.40938 0.52273 0.71789 0.0
C1872 C 0.40757 0.53607 0.78741 0.0
C1873 C 0.40557 0.53445 0.83882 0.0
C1874 C 0.40985 0.47211 0.76926 0.0
C1875 C 0.40647 0.50459 0.77928 0.0
C1876 C 0.40927 0.45723 0.73934 0.0
C1877 C 0.40514 0.45875 0.68887 0.0
C1878 C 0.40646 0.4886 0.74841 0.0
C1879 C 0.40192 0.47546 0.66939 0.0
C1880 C 0.40794 0.52121 0.75754 0.0
C1881 C 0.40405 0.51764 0.85917 0.0
N1882 N 0.4027 0.48978 0.69918 0.0
N1883 N 0.40462 0.5033 0.82933 0.0
H1884 H 0.29664 0.66075 0.51208 0.0
H1885 H 0.19221 0.66042 0.51648 0.0
H1886 H 0.26516 0.65185 0.38178 0.0
H1887 H 0.22394 0.65433 0.64761 0.0
H1888 H 0.21877 0.66076 0.4662 0.0
H1889 H 0.27006 0.6618 0.562 0.0
C1890 C 0.28409 0.6592 0.49392 0.0
C1891 C 0.28302 0.65635 0.44268 0.0
C1892 C 0.21992 0.6594 0.50598 0.0
C1893 C 0.2526 0.65737 0.49961 0.0
C1894 C 0.2048 0.65938 0.53473 0.0
C1895 C 0.20596 0.65748 0.58631 0.0
C1896 C 0.23631 0.65765 0.52902 0.0
C1897 C 0.22256 0.65577 0.60794 0.0
C1898 C 0.26894 0.65964 0.52248 0.0
C1899 C 0.26648 0.654 0.42121 0.0
N1900 N 0.23712 0.65595 0.57919 0.0
N1901 N 0.25186 0.65464 0.44978 0.0
H1902 H 0.11487 0.52421 0.18593 0.0
H1903 H 0.05377 0.47213 0.37439 0.0
H1904 H 0.05976 0.53485 0.2057 0.0
H1905 H 0.10631 0.45566 0.33822 0.0
H1906 H 0.05666 0.49654 0.31729 0.0
H1907 H 0.11253 0.49983 0.24361 0.0
C1908 C 0.1022 0.52134 0.20179 0.0
C1909 C 0.08746 0.53171 0.19083 0.0
C1910 C 0.0676 0.48764 0.32192 0.0
C1911 C 0.08485 0.50394 0.258 0.0
C1912 C 0.06605 0.47378 0.35509 0.0
C1913 C 0.07986 0.46181 0.36132 0.0
C1914 C 0.08309 0.48965 0.29472 0.0
C1915 C 0.0953 0.46449 0.33426 0.0
C1916 C 0.10094 0.50746 0.23515 0.0
C1917 C 0.07151 0.52742 0.2135 0.0
N1918 N 0.0965 0.47812 0.30206 0.0
N1919 N 0.07065 0.51392 0.24613 0.0
H1920 H 0.12597 0.24056 0.28015 0.0
H1921 H 0.10749 0.32906 0.43087 0.0
H1922 H 0.13923 0.24794 0.43426 0.0
H1923 H 0.08709 0.31853 0.28486 0.0
H1924 H 0.12334 0.30116 0.42817 0.0
H1925 H 0.11564 0.27089 0.27685 0.0
C1926 C 0.12685 0.24857 0.31315 0.0
C1927 C 0.13341 0.24161 0.35758 0.0
C1928 C 0.11547 0.30501 0.39661 0.0
C1929 C 0.12166 0.27634 0.35404 0.0
C1930 C 0.10649 0.32096 0.39808 0.0
C1931 C 0.09577 0.32599 0.35834 0.0
C1932 C 0.11377 0.29409 0.35497 0.0
C1933 C 0.09489 0.31497 0.31678 0.0
C1934 C 0.12099 0.2659 0.31122 0.0
C1935 C 0.13449 0.25273 0.39898 0.0
N1936 N 0.10369 0.29951 0.31627 0.0
N1937 N 0.12855 0.26947 0.39629 0.0
H1938 H 0.92823 0.83336 0.5232 0.0
H1939 H -0.00202 0.88942 0.67507 0.0
H1940 H 0.91782 0.85638 0.66608 0.0
H1941 H 0.00616 0.87298 0.52379 0.0
H1942 H 0.96821 0.8784 0.67084 0.0
H1943 H 0.95659 0.8481 0.52182 0.0
C1944 C 0.93193 0.84147 0.55438 0.0
C1945 C 0.92069 0.84353 0.59503 0.0
C1946 C 0.97643 0.87735 0.63835 0.0
C1947 C 0.95307 0.86059 0.59347 0.0
C1948 C 0.99345 0.88382 0.64052 0.0
C1949 C 0.00469 0.8822 0.59962 0.0
C1950 C 0.97055 0.86898 0.59519 0.0
C1951 C -0.00192 0.87433 0.55644 0.0
C1952 C 0.94807 0.85 0.55337 0.0
C1953 C 0.92602 0.8545 0.63391 0.0
N1954 N 0.98149 0.86789 0.55549 0.0
N1955 N 0.94187 0.86252 0.63231 0.0
H1956 H 0.42911 0.68478 0.84387 0.0
H1957 H 0.34152 0.74264 0.84483 0.0
H1958 H 0.37748 0.66229 0.85584 0.0
H1959 H 0.39392 0.76379 0.84208 0.0
H1960 H 0.35398 0.71301 0.84433 0.0
H1961 H 0.41599 0.71379 0.83854 0.0
C1962 C 0.41499 0.68593 0.84515 0.0
C1963 C 0.4044 0.67105 0.85029 0.0
C1964 C 0.3627 0.72417 0.84342 0.0
C1965 C 0.3892 0.70437 0.84459 0.0
C1966 C 0.3556 0.74108 0.84374 0.0
C1967 C 0.36665 0.75578 0.84315 0.0
C1968 C 0.38097 0.72197 0.84266 0.0
C1969 C 0.38482 0.75294 0.84147 0.0
C1970 C 0.40749 0.70253 0.84232 0.0
C1971 C 0.38617 0.6734 0.85254 0.0
N1972 N 0.39137 0.73642 0.84145 0.0
N1973 N 0.37913 0.68976 0.84963 0.0
H1974 H 0.48091 0.14776 0.06762 0.0
H1975 H 0.58391 0.13142 0.09235 0.0
H1976 H 0.50395 0.09659 0.08847 0.0
H1977 H 0.56017 0.18254 0.07817 0.0
H1978 H 0.55502 0.1181 0.08409 0.0
H1979 H 0.51015 0.16027 0.06183 0.0
C1980 C 0.49212 0.13908 0.06995 0.0
C1981 C 0.48997 0.12109 0.07872 0.0
C1982 C 0.55614 0.13224 0.08262 0.0
C1983 C 0.52354 0.13544 0.07344 0.0
C1984 C 0.57263 0.13986 0.08779 0.0
C1985 C 0.57447 0.15816 0.08638 0.0
C1986 C 0.54137 0.14297 0.07606 0.0
C1987 C 0.5594 0.1684 0.07915 0.0
C1988 C 0.50883 0.14628 0.06718 0.0
C1989 C 0.50501 0.11056 0.08236 0.0
N1990 N 0.54349 0.16067 0.07448 0.0
N1991 N 0.52117 0.11792 0.0801 0.0
H1992 H 0.13818 0.74635 0.11619 0.0
H1993 H 0.0807 0.6746 0.25453 0.0
H1994 H 0.12012 0.75255 0.26669 0.0
H1995 H 0.10651 0.66541 0.11497 0.0
H1996 H 0.09515 0.70306 0.26021 0.0
H1997 H 0.12742 0.71644 0.11635 0.0
C1998 C 0.13228 0.74136 0.14975 0.0
C1999 C 0.13015 0.7521 0.19163 0.0
C2000 C 0.09772 0.69479 0.22845 0.0
C2001 C 0.11721 0.71778 0.19129 0.0
C2002 C 0.08936 0.6786 0.22497 0.0
C2003 C 0.09228 0.66768 0.18394 0.0
C2004 C 0.109 0.70019 0.19045 0.0
C2005 C 0.10394 0.67338 0.14729 0.0
C2006 C 0.12596 0.72426 0.14956 0.0
C2007 C 0.12189 0.74489 0.23334 0.0
N2008 N 0.11177 0.6893 0.15123 0.0
N2009 N 0.1156 0.72823 0.23198 0.0
H2010 H 0.49762 0.90225 0.4376 0.0
H2011 H 0.55663 0.81537 0.44122 0.0
H2012 H 0.47731 0.84949 0.4416 0.0
H2013 H 0.57859 0.86712 0.42577 0.0
H2014 H 0.52749 0.82819 0.44459 0.0
H2015 H 0.52743 0.8902 0.43642 0.0
C2016 C 0.4994 0.88817 0.43854 0.0
C2017 C 0.48487 0.8769 0.4402 0.0
C2018 C 0.53864 0.8368 0.44042 0.0
C2019 C 0.51889 0.86307 0.43877 0.0
C2020 C 0.55532 0.82947 0.43871 0.0
C2021 C 0.5701 0.84018 0.43343 0.0
C2022 C 0.5366 0.85505 0.43692 0.0
C2023 C 0.56755 0.85836 0.42942 0.0
C2024 C 0.51641 0.88132 0.4379 0.0
C2025 C 0.48801 0.85876 0.44154 0.0
N2026 N 0.5511 0.86525 0.43142 0.0
N2027 N 0.50461 0.85246 0.44071 0.0
H2028 H 0.39456 0.22773 0.69388 0.0
H2029 H 0.37388 0.33008 0.66643 0.0
H2030 H 0.34182 0.248 0.68453 0.0
H2031 H 0.42571 0.30766 0.67405 0.0
H2032 H 0.36147 0.30055 0.67359 0.0
H2033 H 0.40574 0.25737 0.69003 0.0
C2034 C 0.38526 0.23843 0.69201 0.0
C2035 C 0.36716 0.23529 0.6901 0.0
C2036 C 0.37555 0.30214 0.67367 0.0
C2037 C 0.38005 0.26954 0.68396 0.0
C2038 C 0.38264 0.31896 0.66919 0.0
C2039 C 0.40087 0.32135 0.66987 0.0
C2040 C 0.3868 0.28766 0.67872 0.0
C2041 C 0.4116 0.3065 0.67416 0.0
C2042 C 0.3917 0.25542 0.68914 0.0
C2043 C 0.35587 0.24978 0.68594 0.0
N2044 N 0.40441 0.29034 0.67847 0.0
N2045 N 0.3625 0.2663 0.68289 0.0
H2046 H 0.93232 0.16851 0.02289 0.0
H2047 H -0.00313 0.10216 0.89431 0.0
H2048 H 0.91532 0.12908 0.91896 0.0
H2049 H 0.00965 0.12598 0.0351 0.0
H2050 H 0.96694 0.11201 0.90358 0.0
H2051 H 0.96084 0.15374 0.02855 0.0
C2052 C 0.93454 0.15668 1.00166 0.0
C2053 C 0.92146 0.15007 0.97025 0.0
C2054 C 0.97623 0.1149 0.93281 0.0
C2055 C 0.95392 0.13323 0.97631 0.0
C2056 C 0.99341 0.10911 0.92782 0.0
C2057 C 0.00603 0.11318 0.96398 0.0
C2058 C 0.97155 0.1252 0.97369 0.0
C2059 C 0.00056 0.12279 1.0057 0.0
C2060 C 0.95074 0.14821 1.00513 0.0
C2061 C 0.92493 0.13459 0.94394 0.0
N2062 N 0.98377 0.12868 1.00909 0.0
N2063 N 0.94088 0.12683 0.94709 0.0
H2064 H 0.91188 0.67777 0.75038 0.0
H2065 H 0.8553 0.74929 0.60673 0.0
H2066 H 0.88648 0.66815 0.61023 0.0
H2067 H 0.87284 0.75617 0.75765 0.0
H2068 H 0.86601 0.71934 0.60852 0.0
H2069 H 0.89769 0.70645 0.75421 0.0
C2070 C 0.90337 0.68172 0.7203 0.0
C2071 C 0.90047 0.67061 0.67968 0.0
C2072 C 0.86737 0.72732 0.64146 0.0
C2073 C 0.88406 0.70335 0.68405 0.0
C2074 C 0.86108 0.74445 0.6407 0.0
C2075 C 0.86307 0.75537 0.68224 0.0
C2076 C 0.87595 0.72101 0.68381 0.0
C2077 C 0.87119 0.74835 0.72455 0.0
C2078 C 0.89515 0.69804 0.72273 0.0
C2079 C 0.88901 0.67626 0.64229 0.0
N2080 N 0.87744 0.73165 0.72412 0.0
N2081 N 0.88132 0.69228 0.64522 0.0
H2082 H 0.97807 0.14714 0.4578 0.0
H2083 H 0.08106 0.12959 0.43606 0.0
H2084 H 0.00027 0.09531 0.4434 0.0
H2085 H 0.05784 0.18072 0.45525 0.0
H2086 H 0.05184 0.11656 0.43966 0.0
H2087 H 0.00743 0.15933 0.46019 0.0
C2088 C 0.98911 0.13824 0.45604 0.0
C2089 C 0.98662 0.12011 0.45071 0.0
C2090 C 0.05317 0.13062 0.44317 0.0
C2091 C 0.02048 0.13415 0.45198 0.0
C2092 C 0.06984 0.1381 0.44071 0.0
C2093 C 0.07194 0.15631 0.44529 0.0
C2094 C 0.03848 0.14145 0.4501 0.0
C2095 C 0.05691 0.16663 0.45213 0.0
C2096 C 0.00593 0.14527 0.45686 0.0
C2097 C 0.00153 0.10937 0.44716 0.0
N2098 N 0.04086 0.15906 0.45423 0.0
N2099 N 0.01783 0.11656 0.44768 0.0
H2100 H 0.64077 0.24823 0.11008 0.0
H2101 H 0.58193 0.31712 0.25692 0.0
H2102 H 0.62406 0.24037 0.26113 0.0
H2103 H 0.60583 0.32801 0.11569 0.0
H2104 H 0.59745 0.28911 0.25971 0.0
H2105 H 0.629 0.27783 0.11282 0.0
C2106 C 0.63496 0.25279 0.14427 0.0
C2107 C 0.63344 0.24166 0.18548 0.0
C2108 C 0.59937 0.29766 0.22822 0.0
C2109 C 0.61936 0.27558 0.1882 0.0
C2110 C 0.59039 0.31359 0.2264 0.0
C2111 C 0.59248 0.32489 0.18582 0.0
C2112 C 0.61044 0.29288 0.18898 0.0
C2113 C 0.6039 0.31977 0.14779 0.0
C2114 C 0.62806 0.26971 0.14558 0.0
C2115 C 0.62532 0.24833 0.2282 0.0
N2116 N 0.61235 0.3041 0.15015 0.0
N2117 N 0.61846 0.26479 0.22829 0.0
H2118 H 0.41114 0.86622 0.92833 0.0
H2119 H 0.51395 0.84694 0.94396 0.0
H2120 H 0.43399 0.81471 0.94231 0.0
H2121 H 0.4927 0.89936 0.93687 0.0
H2122 H 0.48446 0.83529 0.94564 0.0
H2123 H 0.44058 0.87893 0.93135 0.0
C2124 C 0.42233 0.85758 0.93173 0.0
C2125 C 0.42009 0.83935 0.93518 0.0
C2126 C 0.48617 0.84936 0.94408 0.0
C2127 C 0.45372 0.8538 0.93921 0.0
C2128 C 0.50309 0.85608 0.9437 0.0
C2129 C 0.50589 0.87422 0.94077 0.0
C2130 C 0.47181 0.8608 0.94111 0.0
C2131 C 0.49117 0.88529 0.93887 0.0
C2132 C 0.43911 0.86485 0.93383 0.0
C2133 C 0.43504 0.82881 0.94024 0.0
N2134 N 0.47474 0.87839 0.93893 0.0
N2135 N 0.45117 0.83618 0.94205 0.0
H2136 H 0.88656 0.32486 0.91906 0.0
H2137 H 0.86961 0.23578 0.77008 0.0
H2138 H 0.9091 0.31418 0.77582 0.0
H2139 H 0.85858 0.24295 0.92565 0.0
H2140 H 0.88037 0.26597 0.76661 0.0
H2141 H 0.87222 0.29631 0.91686 0.0
C2142 C 0.88839 0.31655 0.88699 0.0
C2143 C 0.89913 0.32185 0.84773 0.0
C2144 C 0.87542 0.26092 0.8013 0.0
C2145 C 0.88283 0.28912 0.84498 0.0
C2146 C 0.8693 0.24368 0.80337 0.0
C2147 C 0.86313 0.23671 0.8482 0.0
C2148 C 0.87529 0.27127 0.84431 0.0
C2149 C 0.86285 0.24772 0.88996 0.0
C2150 C 0.88028 0.30022 0.88583 0.0
C2151 C 0.90117 0.31048 0.80725 0.0
N2152 N 0.86889 0.26437 0.88699 0.0
N2153 N 0.89311 0.29462 0.80692 0.0
H2154 H 0.51714 0.14463 0.58185 0.0
H2155 H 0.41472 0.12514 0.60708 0.0
H2156 H 0.4961 0.09219 0.58835 0.0
H2157 H 0.43724 0.17684 0.5976 0.0
H2158 H 0.44408 0.1125 0.59865 0.0
H2159 H 0.4876 0.1563 0.58314 0.0
C2160 C 0.50631 0.1355 0.58251 0.0
C2161 C 0.50919 0.11734 0.58467 0.0
C2162 C 0.44256 0.12661 0.59835 0.0
C2163 C 0.47509 0.13077 0.58785 0.0
C2164 C 0.42583 0.13383 0.60359 0.0
C2165 C 0.42352 0.15209 0.60305 0.0
C2166 C 0.45704 0.13775 0.59268 0.0
C2167 C 0.43836 0.16272 0.59758 0.0
C2168 C 0.48938 0.14222 0.58388 0.0
C2169 C 0.49452 0.10627 0.58702 0.0
N2170 N 0.45445 0.15539 0.59268 0.0
N2171 N 0.47809 0.11317 0.5888 0.0
H2172 H 0.59731 0.76397 0.34856 0.0
H2173 H 0.61592 0.66114 0.37537 0.0
H2174 H 0.64968 0.74283 0.35912 0.0
H2175 H 0.56467 0.68476 0.36646 0.0
H2176 H 0.62904 0.69048 0.36989 0.0
H2177 H 0.58563 0.73454 0.35252 0.0
C2178 C 0.60643 0.75311 0.35074 0.0
C2179 C 0.62456 0.75595 0.35291 0.0
C2180 C 0.61493 0.68919 0.3692 0.0
C2181 C 0.61111 0.72193 0.35918 0.0
C2182 C 0.60745 0.67248 0.3727 0.0
C2183 C 0.58918 0.67051 0.37092 0.0
C2184 C 0.60401 0.70393 0.36408 0.0
C2185 C 0.5788 0.68562 0.36701 0.0
C2186 C 0.5997 0.73624 0.35368 0.0
C2187 C 0.63561 0.74127 0.35747 0.0
N2188 N 0.58635 0.70162 0.36362 0.0
N2189 N 0.6287 0.72486 0.36055 0.0
H2190 H 0.05675 0.81249 0.09384 0.0
H2191 H 0.00045 0.90106 0.08703 0.0
H2192 H 0.07995 0.86382 0.10659 0.0
H2193 H 0.9785 0.84895 0.08361 0.0
H2194 H 0.02985 0.88811 0.08871 0.0
H2195 H 0.02808 0.82607 0.08475 0.0
C2196 C 0.05582 0.82664 0.09452 0.0
C2197 C 0.07079 0.83701 0.10099 0.0
C2198 C 0.01857 0.87956 0.0871 0.0
C2199 C 0.03788 0.85274 0.09094 0.0
C2200 C 0.00179 0.88693 0.08615 0.0
C2201 C 0.98693 0.87611 0.08492 0.0
C2202 C 0.02047 0.86125 0.08697 0.0
C2203 C 0.98949 0.85788 0.08352 0.0
C2204 C 0.03942 0.83441 0.08951 0.0
C2205 C 0.06874 0.8553 0.10235 0.0
N2206 N 0.00588 0.85107 0.08481 0.0
N2207 N 0.05257 0.8626 0.09732 0.0
H2208 H 0.61735 0.8296 0.86624 0.0
H2209 H 0.59826 0.72664 0.85297 0.0
H2210 H 0.56612 0.80673 0.84778 0.0
H2211 H 0.65056 0.74766 0.86517 0.0
H2212 H 0.58668 0.7562 0.84986 0.0
H2213 H 0.63009 0.80007 0.86684 0.0
C2214 C 0.60877 0.8184 0.86262 0.0
C2215 C 0.59062 0.82067 0.85674 0.0
C2216 C 0.60071 0.75443 0.85289 0.0
C2217 C 0.60511 0.78692 0.85691 0.0
C2218 C 0.6074 0.73747 0.85411 0.0
C2219 C 0.62549 0.73456 0.85872 0.0
C2220 C 0.61212 0.76876 0.85666 0.0
C2221 C 0.63653 0.74925 0.86176 0.0
C2222 C 0.61607 0.80156 0.86261 0.0
C2223 C 0.58018 0.80567 0.85161 0.0
N2224 N 0.62966 0.76574 0.86074 0.0
N2225 N 0.58756 0.7895 0.85183 0.0
H2226 H 0.43221 0.32664 1.01581 0.0
H2227 H 0.49575 0.39194 0.15482 0.0
H2228 H 0.41501 0.36113 0.13256 0.0
H2229 H 0.50779 0.37125 1.00979 0.0
H2230 H 0.46608 0.38104 0.14646 0.0
H2231 H 0.46005 0.34254 1.01252 0.0
C2232 C 0.43427 0.33763 0.0405 0.0
C2233 C 0.42134 0.34253 0.07465 0.0
C2234 C 0.47514 0.37907 0.11617 0.0
C2235 C 0.45308 0.3607 0.07128 0.0
C2236 C 0.49215 0.38545 0.12066 0.0
C2237 C 0.50449 0.38254 0.08298 0.0
C2238 C 0.47039 0.36939 0.07411 0.0
C2239 C 0.49891 0.37354 0.0403 0.0
C2240 C 0.45009 0.34675 0.0384 0.0
C2241 C 0.42456 0.35699 0.10542 0.0
N2242 N 0.48235 0.3671 0.0373 0.0
N2243 N 0.44019 0.36543 0.10342 0.0
H2244 H 0.84795 0.24632 0.42263 0.0
H2245 H 0.90593 0.17579 0.28075 0.0
H2246 H 0.86502 0.2527 0.27135 0.0
H2247 H 0.88268 0.16649 0.42371 0.0
H2248 H 0.88989 0.20337 0.27497 0.0
H2249 H 0.85874 0.21634 0.42144 0.0
C2250 C 0.85361 0.24134 0.38869 0.0
C2251 C 0.85559 0.25216 0.34699 0.0
C2252 C 0.88819 0.19527 0.3075 0.0
C2253 C 0.86852 0.21783 0.34606 0.0
C2254 C 0.89747 0.17958 0.31101 0.0
C2255 C 0.89581 0.16895 0.35312 0.0
C2256 C 0.87726 0.20047 0.34657 0.0
C2257 C 0.88432 0.1743 0.39063 0.0
C2258 C 0.85994 0.22421 0.38827 0.0
C2259 C 0.86345 0.24497 0.30462 0.0
N2260 N 0.8756 0.18978 0.3867 0.0
N2261 N 0.86978 0.22832 0.30541 0.0
H2262 H 0.98444 0.61849 0.51055 0.0
H2263 H 0.07296 0.63637 0.66184 0.0
H2264 H 0.9919 0.60534 0.66471 0.0
H2265 H 0.06226 0.65853 0.518 0.0
H2266 H 0.04471 0.62142 0.659 0.0
H2267 H 0.01438 0.6299 0.50829 0.0
C2268 C 0.99237 0.61786 0.54378 0.0
C2269 C 0.98555 0.61091 0.58786 0.0
C2270 C 0.04856 0.62952 0.62799 0.0
C2271 C 0.01984 0.62386 0.58542 0.0
C2272 C 0.06472 0.63799 0.62952 0.0
C2273 C 0.06992 0.64882 0.59029 0.0
C2274 C 0.03753 0.63181 0.58679 0.0
C2275 C 0.05864 0.65056 0.54945 0.0
C2276 C 0.00947 0.62435 0.54243 0.0
C2277 C -0.00342 0.61025 0.62959 0.0
N2278 N 0.04296 0.64217 0.54878 0.0
N2279 N 0.0131 0.61671 0.62736 0.0
H2280 H 0.60911 0.1667 0.61181 0.0
H2281 H 0.62178 0.25616 0.76262 0.0
H2282 H 0.58486 0.17706 0.75298 0.0
H2283 H 0.63767 0.24871 0.61065 0.0
H2284 H 0.61177 0.22573 0.76472 0.0
H2285 H 0.62341 0.19529 0.61596 0.0
C2286 C 0.6069 0.17493 0.64384 0.0
C2287 C 0.59564 0.16956 0.68186 0.0
C2288 C 0.61762 0.23075 0.73112 0.0
C2289 C 0.61188 0.20231 0.68684 0.0
C2290 C 0.62331 0.24812 0.72986 0.0
C2291 C 0.63056 0.25508 0.68639 0.0
C2292 C 0.61921 0.22025 0.68862 0.0
C2293 C 0.63243 0.24393 0.64528 0.0
C2294 C 0.615 0.19128 0.64612 0.0
C2295 C 0.59315 0.18082 0.72239 0.0
N2296 N 0.6267 0.22714 0.64735 0.0
N2297 N 0.60117 0.19668 0.72376 0.0
H2298 H 0.98358 0.37134 0.02019 0.0
H2299 H 0.07417 0.3571 0.87683 0.0
H2300 H 0.99279 0.38725 0.86902 0.0
H2301 H 0.0627 0.33375 1.01853 0.0
H2302 H 0.04552 0.37131 0.8778 0.0
H2303 H 0.01371 0.36046 0.0246 0.0
C2304 C 0.99194 0.37267 0.98808 0.0
C2305 C 0.98557 0.38023 0.94418 0.0
C2306 C 0.04927 0.3631 0.90875 0.0
C2307 C 0.02005 0.36787 0.94905 0.0
C2308 C 0.06567 0.35505 0.90829 0.0
C2309 C 0.0708 0.34414 0.9475 0.0
C2310 C 0.03792 0.36028 0.94881 0.0
C2311 C 0.05916 0.34181 0.98714 0.0
C2312 C 0.00914 0.36648 0.99066 0.0
C2313 C -0.00289 0.38181 0.90396 0.0
N2314 N 0.04325 0.3498 0.98676 0.0
N2315 N 0.01373 0.3756 0.90731 0.0
H2316 H 0.92958 0.80951 0.19385 0.0
H2317 H 0.84251 0.7515 0.1997 0.0
H2318 H 0.87782 0.83194 0.18214 0.0
H2319 H 0.89502 0.73094 0.21325 0.0
H2320 H 0.85461 0.78123 0.19795 0.0
H2321 H 0.91661 0.78075 0.20482 0.0
C2322 C 0.91545 0.80841 0.19383 0.0
C2323 C 0.9048 0.82321 0.18724 0.0
C2324 C 0.86343 0.77018 0.20189 0.0
C2325 C 0.88974 0.7901 0.19936 0.0
C2326 C 0.85653 0.75322 0.2029 0.0
C2327 C 0.86773 0.73865 0.20665 0.0
C2328 C 0.88164 0.77256 0.20441 0.0
C2329 C 0.88579 0.7417 0.21113 0.0
C2330 C 0.90803 0.79193 0.19996 0.0
C2331 C 0.88655 0.82087 0.18657 0.0
N2332 N 0.89215 0.75826 0.20952 0.0
N2333 N 0.87958 0.80461 0.19257 0.0
H2334 H 0.4098 0.63053 0.44082 0.0
H2335 H 0.51234 0.64808 0.4733 0.0
H2336 H 0.43273 0.68198 0.45365 0.0
H2337 H 0.49008 0.59639 0.45805 0.0
H2338 H 0.48292 0.66045 0.4742 0.0
H2339 H 0.43878 0.61758 0.45231 0.0
C2340 C 0.42092 0.63912 0.44574 0.0
C2341 C 0.41882 0.6574 0.44595 0.0
C2342 C 0.48444 0.64638 0.47114 0.0
C2343 C 0.45202 0.64264 0.45993 0.0
C2344 C 0.50126 0.63927 0.47118 0.0
C2345 C 0.50371 0.62115 0.46545 0.0
C2346 C 0.46992 0.63532 0.46508 0.0
C2347 C 0.48881 0.61046 0.46187 0.0
C2348 C 0.43746 0.63171 0.45275 0.0
C2349 C 0.43369 0.66785 0.4536 0.0
N2350 N 0.47255 0.61771 0.46135 0.0
N2351 N 0.44964 0.66033 0.4601 0.0
H2352 H 0.37804 0.1598 0.17137 0.0
H2353 H 0.38865 0.26173 0.23298 0.0
H2354 H 0.42694 0.18506 0.20816 0.0
H2355 H 0.34247 0.24055 0.1628 0.0
H2356 H 0.40082 0.2323 0.23826 0.0
H2357 H 0.36323 0.18818 0.17843 0.0
C2358 C 0.3857 0.17124 0.18074 0.0
C2359 C 0.40382 0.16993 0.18932 0.0
C2360 C 0.38794 0.23404 0.22212 0.0
C2361 C 0.38686 0.20233 0.19845 0.0
C2362 C 0.38087 0.25084 0.21968 0.0
C2363 C 0.36455 0.25364 0.19711 0.0
C2364 C 0.37866 0.21988 0.20184 0.0
C2365 C 0.35522 0.239 0.17982 0.0
C2366 C 0.3772 0.18741 0.18513 0.0
C2367 C 0.41295 0.18525 0.20204 0.0
N2368 N 0.36247 0.22273 0.18216 0.0
N2369 N 0.40439 0.20074 0.20624 0.0
H2370 H 0.48594 0.619 0.02281 0.0
H2371 H 0.57598 0.63402 0.87757 0.0
H2372 H 0.49484 0.60327 0.87127 0.0
H2373 H 0.56417 0.65784 1.01851 0.0
H2374 H 0.54769 0.61914 0.87965 0.0
H2375 H 0.51604 0.62987 0.02676 0.0
C2376 C 0.49423 0.61769 0.99054 0.0
C2377 C 0.48777 0.61023 0.94663 0.0
C2378 C 0.55131 0.62759 0.9102 0.0
C2379 C 0.52222 0.62258 0.95098 0.0
C2380 C 0.56749 0.63602 0.9091 0.0
C2381 C 0.57238 0.6473 0.94771 0.0
C2382 C 0.53996 0.63038 0.95032 0.0
C2383 C 0.56079 0.64953 0.98753 0.0
C2384 C 0.51141 0.62387 0.99285 0.0
C2385 C 0.49923 0.60866 0.90621 0.0
N2386 N 0.5451 0.64117 0.98776 0.0
N2387 N 0.51583 0.61487 0.90929 0.0
H2388 H 0.10347 0.82694 0.61798 0.0
H2389 H 0.11759 0.73597 0.76037 0.0
H2390 H 0.08048 0.81539 0.76004 0.0
H2391 H 0.13287 0.74519 0.60873 0.0
H2392 H 0.10675 0.76613 0.76499 0.0
H2393 H 0.11732 0.79809 0.6182 0.0
C2394 C 0.10143 0.81838 0.64937 0.0
C2395 C 0.09072 0.82356 0.68891 0.0
C2396 C 0.11261 0.76155 0.73087 0.0
C2397 C 0.10646 0.79045 0.68935 0.0
C2398 C 0.11877 0.74433 0.72817 0.0
C2399 C 0.12617 0.73797 0.68411 0.0
C2400 C 0.11388 0.7725 0.68924 0.0
C2401 C 0.12756 0.74952 0.64378 0.0
C2402 C 0.10927 0.80187 0.64939 0.0
C2403 C 0.08839 0.81184 0.72842 0.0
N2404 N 0.12141 0.76616 0.64728 0.0
N2405 N 0.09618 0.79582 0.72762 0.0
H2406 H 0.91539 0.3464 0.36299 0.0
H2407 H 0.00192 0.36642 0.52028 0.0
H2408 H 0.9236 0.32619 0.51035 0.0
H2409 H -0.00272 0.37449 0.3625 0.0
H2410 H 0.97237 0.35385 0.52051 0.0
H2411 H 0.94451 0.35946 0.36546 0.0
C2412 C 0.92332 0.34477 0.39594 0.0
C2413 C 0.91711 0.33517 0.43644 0.0
C2414 C 0.97786 0.35846 0.48597 0.0
C2415 C 0.95048 0.35002 0.4396 0.0
C2416 C 0.99471 0.36559 0.48578 0.0
C2417 C 0.00205 0.37173 0.44143 0.0
C2418 C 0.96831 0.35752 0.44153 0.0
C2419 C 0.99206 0.37039 0.39786 0.0
C2420 C 0.93997 0.35214 0.39727 0.0
C2421 C 0.928 0.3333 0.47807 0.0
N2422 N 0.97574 0.36349 0.39907 0.0
N2423 N 0.94417 0.34071 0.47867 0.0
H2424 H 0.40867 0.8166 0.27539 0.0
H2425 H 0.35008 0.74668 0.4174 0.0
H2426 H 0.384 0.82647 0.41625 0.0
H2427 H 0.36831 0.73913 0.26757 0.0
H2428 H 0.36107 0.77649 0.41543 0.0
H2429 H 0.39341 0.78854 0.27051 0.0
C2430 C 0.40009 0.81284 0.30538 0.0
C2431 C 0.39772 0.82383 0.34653 0.0
C2432 C 0.3625 0.76841 0.38273 0.0
C2433 C 0.38007 0.79182 0.34093 0.0
C2434 C 0.35604 0.75136 0.38358 0.0
C2435 C 0.35824 0.74026 0.34252 0.0
C2436 C 0.37145 0.77444 0.34078 0.0
C2437 C 0.36654 0.74709 0.30035 0.0
C2438 C 0.39126 0.79689 0.30235 0.0
C2439 C 0.38614 0.81845 0.38378 0.0
N2440 N 0.37298 0.76368 0.30074 0.0
N2441 N 0.37785 0.80278 0.38026 0.0
H2442 H 0.99369 0.5893 0.10277 0.0
H2443 H 0.93562 0.67422 0.05015 0.0
H2444 H 0.01495 0.64052 0.07068 0.0
H2445 H 0.91679 0.63133 0.1399 0.0
H2446 H 0.96362 0.65944 0.04271 0.0
H2447 H 0.96423 0.60216 0.1024 0.0
C2448 C 0.99225 0.60316 0.0953 0.0
C2449 C 0.007 0.61375 0.08654 0.0
C2450 C 0.95332 0.65327 0.06397 0.0
C2451 C 0.9733 0.62839 0.08524 0.0
C2452 C 0.93727 0.66176 0.06858 0.0
C2453 C 0.92369 0.65424 0.09642 0.0
C2454 C 0.95592 0.63699 0.08686 0.0
C2455 C 0.92674 0.63772 0.11801 0.0
C2456 C 0.97542 0.61045 0.09499 0.0
C2457 C 0.00415 0.63161 0.0764 0.0
N2458 N 0.94255 0.62966 0.11288 0.0
N2459 N 0.9877 0.63831 0.07605 0.0
H2460 H 0.13665 0.25113 0.93772 0.0
H2461 H 0.08136 0.18049 0.78695 0.0
H2462 H 0.12071 0.25866 0.78565 0.0
H2463 H 0.10536 0.17005 0.92862 0.0
H2464 H 0.09567 0.20909 0.78538 0.0
H2465 H 0.1259 0.22122 0.93403 0.0
C2466 C 0.13122 0.24644 0.90313 0.0
C2467 C 0.12967 0.25755 0.86183 0.0
C2468 C 0.09788 0.20051 0.8167 0.0
C2469 C 0.11676 0.22323 0.85802 0.0
C2470 C 0.0896 0.18423 0.81782 0.0
C2471 C 0.09206 0.1729 0.85819 0.0
C2472 C 0.10861 0.20559 0.85645 0.0
C2473 C 0.10317 0.17832 0.89668 0.0
C2474 C 0.1249 0.22933 0.90127 0.0
C2475 C 0.12199 0.25071 0.81863 0.0
N2476 N 0.11093 0.19432 0.89502 0.0
N2477 N 0.11571 0.23404 0.81797 0.0
H2478 H 0.49699 0.40214 0.59287 0.0
H2479 H 0.55511 0.31473 0.58474 0.0
H2480 H 0.47615 0.34988 0.57677 0.0
H2481 H 0.57735 0.36625 0.60383 0.0
H2482 H 0.52615 0.32787 0.57859 0.0
H2483 H 0.52664 0.38976 0.59368 0.0
C2484 C 0.49863 0.38811 0.5891 0.0
C2485 C 0.48401 0.37708 0.5844 0.0
C2486 C 0.53734 0.33635 0.5841 0.0
C2487 C 0.51785 0.36284 0.58547 0.0
C2488 C 0.55393 0.32883 0.58742 0.0
C2489 C 0.56874 0.33938 0.59473 0.0
C2490 C 0.53544 0.3546 0.58812 0.0
C2491 C 0.56631 0.35758 0.59879 0.0
C2492 C 0.51555 0.38105 0.58953 0.0
C2493 C 0.48696 0.35899 0.57941 0.0
N2494 N 0.54997 0.36463 0.59537 0.0
N2495 N 0.50348 0.35247 0.58027 0.0
loop_
_geom_bond_atom_site_label_1
_geom_bond_atom_site_label_2
_geom_bond_distance
_geom_bond_site_symmetry_2
_ccdc_geom_bond_type
C0 C1 1.351 . S
C0 N3 1.368 . S
C0 H5 0.931 . S
C1 C0 1.351 . S
C1 N2 1.373 . S
C1 H29 0.930 . S
N2 C1 1.373 . S
N2 C4 1.340 . S
N3 C0 1.368 . S
N3 C4 1.321 . S
N3 Co6 2.135 . S
C4 N2 1.340 . S
C4 N3 1.321 . S
C4 H28 0.930 . S
H5 C0 0.931 . S
Co6 N3 2.135 . S
Co6 N9 2.121 . S
Co6 O14 2.055 . S
Co6 O17 2.039 . S
Co6 N20 2.140 . S
C7 O8 1.227 . S
C7 O17 1.265 . S
O8 C7 1.227 . S
N9 Co6 2.121 . S
N9 C11 1.375 . S
N9 C12 1.313 . S
C10 C11 1.338 . S
C10 N13 1.377 . S
C10 H30 0.930 . S
C11 N9 1.375 . S
C11 C10 1.338 . S
C11 H15 0.931 . S
C12 N9 1.313 . S
C12 N13 1.344 . S
C12 H16 0.930 . S
N13 C10 1.377 . S
N13 C12 1.344 . S
O14 Co6 2.055 . S
O14 C18 1.253 . S
H15 C11 0.931 . S
H16 C12 0.930 . S
O17 Co6 2.039 . S
O17 C7 1.265 . S
C18 O14 1.253 . S
C18 O19 1.227 . S
O19 C18 1.227 . S
N20 Co6 2.140 . S
N20 C23 1.346 . S
N20 C24 1.345 . S
C21 C22 1.387 . S
C21 C25 1.391 . S
C22 C21 1.387 . S
C22 C23 1.369 . S
C22 H31 0.929 . S
C23 N20 1.346 . S
C23 C22 1.369 . S
C23 H26 0.928 . S
C24 N20 1.345 . S
C24 C25 1.371 . S
C24 H27 0.931 . S
C25 C21 1.391 . S
C25 C24 1.371 . S
C25 H32 0.930 . S
H26 C23 0.928 . S
H27 C24 0.931 . S
H28 C4 0.930 . S
H29 C1 0.930 . S
H30 C10 0.930 . S
H31 C22 0.929 . S
H32 C25 0.930 . S
C33 C34 1.351 . S
C33 N36 1.368 . S
C33 H38 0.931 . S
C34 C33 1.351 . S
C34 N35 1.373 . S
C34 H62 0.930 . S
N35 C34 1.373 . S
N35 C37 1.340 . S
N36 C33 1.368 . S
N36 C37 1.321 . S
N36 Co39 2.135 . S
C37 N35 1.340 . S
C37 N36 1.321 . S
C37 H61 0.930 . S
H38 C33 0.931 . S
Co39 N36 2.135 . S
Co39 N42 2.121 . S
Co39 O47 2.055 . S
Co39 O50 2.039 . S
Co39 N53 2.140 . S
C40 O41 1.227 . S
C40 O50 1.265 . S
O41 C40 1.227 . S
N42 Co39 2.121 . S
N42 C44 1.375 . S
N42 C45 1.313 . S
C43 C44 1.338 . S
C43 N46 1.377 . S
C43 H63 0.930 . S
C44 N42 1.375 . S
C44 C43 1.338 . S
C44 H48 0.931 . S
C45 N42 1.313 . S
C45 N46 1.344 . S
C45 H49 0.930 . S
N46 C43 1.377 . S
N46 C45 1.344 . S
O47 Co39 2.055 . S
O47 C51 1.253 . S
H48 C44 0.931 . S
H49 C45 0.930 . S
O50 Co39 2.039 . S
O50 C40 1.265 . S
C51 O47 1.253 . S
C51 O52 1.227 . S
O52 C51 1.227 . S
N53 Co39 2.140 . S
N53 C56 1.346 . S
N53 C57 1.345 . S
C54 C55 1.387 . S
C54 C58 1.391 . S
C55 C54 1.387 . S
C55 C56 1.369 . S
C55 H64 0.929 . S
C56 N53 1.346 . S
C56 C55 1.369 . S
C56 H59 0.928 . S
C57 N53 1.345 . S
C57 C58 1.371 . S
C57 H60 0.931 . S
C58 C54 1.391 . S
C58 C57 1.371 . S
C58 H65 0.930 . S
H59 C56 0.928 . S
H60 C57 0.931 . S
H61 C37 0.930 . S
H62 C34 0.930 . S
H63 C43 0.930 . S
H64 C55 0.929 . S
H65 C58 0.930 . S
C66 C67 1.351 . S
C66 N69 1.368 . S
C66 H71 0.931 . S
C67 C66 1.351 . S
C67 N68 1.373 . S
C67 H95 0.930 . S
N68 C67 1.373 . S
N68 C70 1.340 . S
N69 C66 1.368 . S
N69 C70 1.321 . S
N69 Co72 2.135 . S
C70 N68 1.340 . S
C70 N69 1.321 . S
C70 H94 0.930 . S
H71 C66 0.931 . S
Co72 N69 2.135 . S
Co72 N75 2.121 . S
Co72 O80 2.055 . S
Co72 O83 2.039 . S
Co72 N86 2.140 . S
C73 O74 1.227 . S
C73 O83 1.265 . S
O74 C73 1.227 . S
N75 Co72 2.121 . S
N75 C77 1.375 . S
N75 C78 1.313 . S
C76 C77 1.338 . S
C76 N79 1.377 . S
C76 H96 0.930 . S
C77 N75 1.375 . S
C77 C76 1.338 . S
C77 H81 0.931 . S
C78 N75 1.313 . S
C78 N79 1.344 . S
C78 H82 0.930 . S
N79 C76 1.377 . S
N79 C78 1.344 . S
O80 Co72 2.055 . S
O80 C84 1.253 . S
H81 C77 0.931 . S
H82 C78 0.930 . S
O83 Co72 2.039 . S
O83 C73 1.265 . S
C84 O80 1.253 . S
C84 O85 1.227 . S
O85 C84 1.227 . S
N86 Co72 2.140 . S
N86 C89 1.346 . S
N86 C90 1.345 . S
C87 C88 1.387 . S
C87 C91 1.391 . S
C88 C87 1.387 . S
C88 C89 1.369 . S
C88 H97 0.929 . S
C89 N86 1.346 . S
C89 C88 1.369 . S
C89 H92 0.928 . S
C90 N86 1.345 . S
C90 C91 1.371 . S
C90 H93 0.931 . S
C91 C87 1.391 . S
C91 C90 1.371 . S
C91 H98 0.930 . S
H92 C89 0.928 . S
H93 C90 0.931 . S
H94 C70 0.930 . S
H95 C67 0.930 . S
H96 C76 0.930 . S
H97 C88 0.929 . S
H98 C91 0.930 . S
C99 C100 1.351 . S
C99 N102 1.368 . S
C99 H104 0.931 . S
C100 C99 1.351 . S
C100 N101 1.373 . S
C100 H128 0.930 . S
N101 C100 1.373 . S
N101 C103 1.340 . S
N102 C99 1.368 . S
N102 C103 1.321 . S
N102 Co105 2.135 . S
C103 N101 1.340 . S
C103 N102 1.321 . S
C103 H127 0.930 . S
H104 C99 0.931 . S
Co105 N102 2.135 . S
Co105 N108 2.121 . S
Co105 O113 2.055 . S
Co105 O116 2.039 . S
Co105 N119 2.140 . S
C106 O107 1.227 . S
C106 O116 1.265 . S
O107 C106 1.227 . S
N108 Co105 2.121 . S
N108 C110 1.375 . S
N108 C111 1.313 . S
C109 C110 1.338 . S
C109 N112 1.377 . S
C109 H129 0.930 . S
C110 N108 1.375 . S
C110 C109 1.338 . S
C110 H114 0.931 . S
C111 N108 1.313 . S
C111 N112 1.344 . S
C111 H115 0.930 . S
N112 C109 1.377 . S
N112 C111 1.344 . S
O113 Co105 2.055 . S
O113 C117 1.253 . S
H114 C110 0.931 . S
H115 C111 0.930 . S
O116 Co105 2.039 . S
O116 C106 1.265 . S
C117 O113 1.253 . S
C117 O118 1.227 . S
O118 C117 1.227 . S
N119 Co105 2.140 . S
N119 C122 1.346 . S
N119 C123 1.345 . S
C120 C121 1.387 . S
C120 C124 1.391 . S
C121 C120 1.387 . S
C121 C122 1.369 . S
C121 H130 0.929 . S
C122 N119 1.346 . S
C122 C121 1.369 . S
C122 H125 0.928 . S
C123 N119 1.345 . S
C123 C124 1.371 . S
C123 H126 0.931 . S
C124 C120 1.391 . S
C124 C123 1.371 . S
C124 H131 0.930 . S
H125 C122 0.928 . S
H126 C123 0.931 . S
H127 C103 0.930 . S
H128 C100 0.930 . S
H129 C109 0.930 . S
H130 C121 0.929 . S
H131 C124 0.930 . S
C132 C133 1.351 . S
C132 N135 1.368 . S
C132 H137 0.931 . S
C133 C132 1.351 . S
C133 N134 1.373 . S
C133 H161 0.930 . S
N134 C133 1.373 . S
N134 C136 1.340 . S
N135 C132 1.368 . S
N135 C136 1.321 . S
N135 Co138 2.135 . S
C136 N134 1.340 . S
C136 N135 1.321 . S
C136 H160 0.930 . S
H137 C132 0.931 . S
Co138 N135 2.135 . S
Co138 N141 2.121 . S
Co138 O146 2.055 . S
Co138 O149 2.039 . S
Co138 N152 2.140 . S
C139 O140 1.227 . S
C139 O149 1.265 . S
O140 C139 1.227 . S
N141 Co138 2.121 . S
N141 C143 1.375 . S
N141 C144 1.313 . S
C142 C143 1.338 . S
C142 N145 1.377 . S
C142 H162 0.930 . S
C143 N141 1.375 . S
C143 C142 1.338 . S
C143 H147 0.931 . S
C144 N141 1.313 . S
C144 N145 1.344 . S
C144 H148 0.930 . S
N145 C142 1.377 . S
N145 C144 1.344 . S
O146 Co138 2.055 . S
O146 C150 1.253 . S
H147 C143 0.931 . S
H148 C144 0.930 . S
O149 Co138 2.039 . S
O149 C139 1.265 . S
C150 O146 1.253 . S
C150 O151 1.227 . S
O151 C150 1.227 . S
N152 Co138 2.140 . S
N152 C155 1.346 . S
N152 C156 1.345 . S
C153 C154 1.387 . S
C153 C157 1.391 . S
C154 C153 1.387 . S
C154 C155 1.369 . S
C154 H163 0.929 . S
C155 N152 1.346 . S
C155 C154 1.369 . S
C155 H158 0.928 . S
C156 N152 1.345 . S
C156 C157 1.371 . S
C156 H159 0.931 . S
C157 C153 1.391 . S
C157 C156 1.371 . S
C157 H164 0.930 . S
H158 C155 0.928 . S
H159 C156 0.931 . S
H160 C136 0.930 . S
H161 C133 0.930 . S
H162 C142 0.930 . S
H163 C154 0.929 . S
H164 C157 0.930 . S
C165 C166 1.351 . S
C165 N168 1.368 . S
C165 H170 0.931 . S
C166 C165 1.351 . S
C166 N167 1.373 . S
C166 H194 0.930 . S
N167 C166 1.373 . S
N167 C169 1.340 . S
N168 C165 1.368 . S
N168 C169 1.321 . S
N168 Co171 2.135 . S
C169 N167 1.340 . S
C169 N168 1.321 . S
C169 H193 0.930 . S
H170 C165 0.931 . S
Co171 N168 2.135 . S
Co171 N174 2.121 . S
Co171 O179 2.055 . S
Co171 O182 2.039 . S
Co171 N185 2.140 . S
C172 O173 1.227 . S
C172 O182 1.265 . S
O173 C172 1.227 . S
N174 Co171 2.121 . S
N174 C176 1.375 . S
N174 C177 1.313 . S
C175 C176 1.338 . S
C175 N178 1.377 . S
C175 H195 0.930 . S
C176 N174 1.375 . S
C176 C175 1.338 . S
C176 H180 0.931 . S
C177 N174 1.313 . S
C177 N178 1.344 . S
C177 H181 0.930 . S
N178 C175 1.377 . S
N178 C177 1.344 . S
O179 Co171 2.055 . S
O179 C183 1.253 . S
H180 C176 0.931 . S
H181 C177 0.930 . S
O182 Co171 2.039 . S
O182 C172 1.265 . S
C183 O179 1.253 . S
C183 O184 1.227 . S
O184 C183 1.227 . S
N185 Co171 2.140 . S
N185 C188 1.346 . S
N185 C189 1.345 . S
C186 C187 1.387 . S
C186 C190 1.391 . S
C187 C186 1.387 . S
C187 C188 1.369 . S
C187 H196 0.929 . S
C188 N185 1.346 . S
C188 C187 1.369 . S
C188 H191 0.928 . S
C189 N185 1.345 . S
C189 C190 1.371 . S
C189 H192 0.931 . S
C190 C186 1.391 . S
C190 C189 1.371 . S
C190 H197 0.930 . S
H191 C188 0.928 . S
H192 C189 0.931 . S
H193 C169 0.930 . S
H194 C166 0.930 . S
H195 C175 0.930 . S
H196 C187 0.929 . S
H197 C190 0.930 . S
C198 C199 1.351 . S
C198 N201 1.368 . S
C198 H203 0.931 . S
C199 C198 1.351 . S
C199 N200 1.373 . S
C199 H227 0.930 . S
N200 C199 1.373 . S
N200 C202 1.340 . S
N201 C198 1.368 . S
N201 C202 1.321 . S
N201 Co204 2.135 . S
C202 N200 1.340 . S
C202 N201 1.321 . S
C202 H226 0.930 . S
H203 C198 0.931 . S
Co204 N201 2.135 . S
Co204 N207 2.121 . S
Co204 O212 2.055 . S
Co204 O215 2.039 . S
Co204 N218 2.140 . S
C205 O206 1.227 . S
C205 O215 1.265 . S
O206 C205 1.227 . S
N207 Co204 2.121 . S
N207 C209 1.375 . S
N207 C210 1.313 . S
C208 C209 1.338 . S
C208 N211 1.377 . S
C208 H228 0.930 . S
C209 N207 1.375 . S
C209 C208 1.338 . S
C209 H213 0.931 . S
C210 N207 1.313 . S
C210 N211 1.344 . S
C210 H214 0.930 . S
N211 C208 1.377 . S
N211 C210 1.344 . S
O212 Co204 2.055 . S
O212 C216 1.253 . S
H213 C209 0.931 . S
H214 C210 0.930 . S
O215 Co204 2.039 . S
O215 C205 1.265 . S
C216 O212 1.253 . S
C216 O217 1.227 . S
O217 C216 1.227 . S
N218 Co204 2.140 . S
N218 C221 1.346 . S
N218 C222 1.345 . S
C219 C220 1.387 . S
C219 C223 1.391 . S
C220 C219 1.387 . S
C220 C221 1.369 . S
C220 H229 0.929 . S
C221 N218 1.346 . S
C221 C220 1.369 . S
C221 H224 0.928 . S
C222 N218 1.345 . S
C222 C223 1.371 . S
C222 H225 0.931 . S
C223 C219 1.391 . S
C223 C222 1.371 . S
C223 H230 0.930 . S
H224 C221 0.928 . S
H225 C222 0.931 . S
H226 C202 0.930 . S
H227 C199 0.930 . S
H228 C208 0.930 . S
H229 C220 0.929 . S
H230 C223 0.930 . S
C231 C232 1.351 . S
C231 N234 1.368 . S
C231 H236 0.931 . S
C232 C231 1.351 . S
C232 N233 1.373 . S
C232 H260 0.930 . S
N233 C232 1.373 . S
N233 C235 1.340 . S
N234 C231 1.368 . S
N234 C235 1.321 . S
N234 Co237 2.135 . S
C235 N233 1.340 . S
C235 N234 1.321 . S
C235 H259 0.930 . S
H236 C231 0.931 . S
Co237 N234 2.135 . S
Co237 N240 2.121 . S
Co237 O245 2.055 . S
Co237 O248 2.039 . S
Co237 N251 2.140 . S
C238 O239 1.227 . S
C238 O248 1.265 . S
O239 C238 1.227 . S
N240 Co237 2.121 . S
N240 C242 1.375 . S
N240 C243 1.313 . S
C241 C242 1.338 . S
C241 N244 1.377 . S
C241 H261 0.930 . S
C242 N240 1.375 . S
C242 C241 1.338 . S
C242 H246 0.931 . S
C243 N240 1.313 . S
C243 N244 1.344 . S
C243 H247 0.930 . S
N244 C241 1.377 . S
N244 C243 1.344 . S
O245 Co237 2.055 . S
O245 C249 1.253 . S
H246 C242 0.931 . S
H247 C243 0.930 . S
O248 Co237 2.039 . S
O248 C238 1.265 . S
C249 O245 1.253 . S
C249 O250 1.227 . S
O250 C249 1.227 . S
N251 Co237 2.140 . S
N251 C254 1.346 . S
N251 C255 1.345 . S
C252 C253 1.387 . S
C252 C256 1.391 . S
C253 C252 1.387 . S
C253 C254 1.369 . S
C253 H262 0.929 . S
C254 N251 1.346 . S
C254 C253 1.369 . S
C254 H257 0.928 . S
C255 N251 1.345 . S
C255 C256 1.371 . S
C255 H258 0.931 . S
C256 C252 1.391 . S
C256 C255 1.371 . S
C256 H263 0.930 . S
H257 C254 0.928 . S
H258 C255 0.931 . S
H259 C235 0.930 . S
H260 C232 0.930 . S
H261 C241 0.930 . S
H262 C253 0.929 . S
H263 C256 0.930 . S
C264 C265 1.351 . S
C264 N267 1.368 . S
C264 H269 0.931 . S
C265 C264 1.351 . S
C265 N266 1.373 . S
C265 H293 0.930 . S
N266 C265 1.373 . S
N266 C268 1.340 . S
N267 C264 1.368 . S
N267 C268 1.321 . S
N267 Co270 2.135 . S
C268 N266 1.340 . S
C268 N267 1.321 . S
C268 H292 0.930 . S
H269 C264 0.931 . S
Co270 N267 2.135 . S
Co270 N273 2.121 . S
Co270 O278 2.055 . S
Co270 O281 2.039 . S
Co270 N284 2.140 . S
C271 O272 1.227 . S
C271 O281 1.265 . S
O272 C271 1.227 . S
N273 Co270 2.121 . S
N273 C275 1.375 . S
N273 C276 1.313 . S
C274 C275 1.338 . S
C274 N277 1.377 . S
C274 H294 0.930 . S
C275 N273 1.375 . S
C275 C274 1.338 . S
C275 H279 0.931 . S
C276 N273 1.313 . S
C276 N277 1.344 . S
C276 H280 0.930 . S
N277 C274 1.377 . S
N277 C276 1.344 . S
O278 Co270 2.055 . S
O278 C282 1.253 . S
H279 C275 0.931 . S
H280 C276 0.930 . S
O281 Co270 2.039 . S
O281 C271 1.265 . S
C282 O278 1.253 . S
C282 O283 1.227 . S
O283 C282 1.227 . S
N284 Co270 2.140 . S
N284 C287 1.346 . S
N284 C288 1.345 . S
C285 C286 1.387 . S
C285 C289 1.391 . S
C286 C285 1.387 . S
C286 C287 1.369 . S
C286 H295 0.929 . S
C287 N284 1.346 . S
C287 C286 1.369 . S
C287 H290 0.928 . S
C288 N284 1.345 . S
C288 C289 1.371 . S
C288 H291 0.931 . S
C289 C285 1.391 . S
C289 C288 1.371 . S
C289 H296 0.930 . S
H290 C287 0.928 . S
H291 C288 0.931 . S
H292 C268 0.930 . S
H293 C265 0.930 . S
H294 C274 0.930 . S
H295 C286 0.929 . S
H296 C289 0.930 . S
C297 C298 1.351 . S
C297 N300 1.368 . S
C297 H302 0.931 . S
C298 C297 1.351 . S
C298 N299 1.373 . S
C298 H326 0.930 . S
N299 C298 1.373 . S
N299 C301 1.340 . S
N300 C297 1.368 . S
N300 C301 1.321 . S
N300 Co303 2.135 . S
C301 N299 1.340 . S
C301 N300 1.321 . S
C301 H325 0.930 . S
H302 C297 0.931 . S
Co303 N300 2.135 . S
Co303 N306 2.121 . S
Co303 O311 2.055 . S
Co303 O314 2.039 . S
Co303 N317 2.140 . S
C304 O305 1.227 . S
C304 O314 1.265 . S
O305 C304 1.227 . S
N306 Co303 2.121 . S
N306 C308 1.375 . S
N306 C309 1.313 . S
C307 C308 1.338 . S
C307 N310 1.377 . S
C307 H327 0.930 . S
C308 N306 1.375 . S
C308 C307 1.338 . S
C308 H312 0.931 . S
C309 N306 1.313 . S
C309 N310 1.344 . S
C309 H313 0.930 . S
N310 C307 1.377 . S
N310 C309 1.344 . S
O311 Co303 2.055 . S
O311 C315 1.253 . S
H312 C308 0.931 . S
H313 C309 0.930 . S
O314 Co303 2.039 . S
O314 C304 1.265 . S
C315 O311 1.253 . S
C315 O316 1.227 . S
O316 C315 1.227 . S
N317 Co303 2.140 . S
N317 C320 1.346 . S
N317 C321 1.345 . S
C318 C319 1.387 . S
C318 C322 1.391 . S
C319 C318 1.387 . S
C319 C320 1.369 . S
C319 H328 0.929 . S
C320 N317 1.346 . S
C320 C319 1.369 . S
C320 H323 0.928 . S
C321 N317 1.345 . S
C321 C322 1.371 . S
C321 H324 0.931 . S
C322 C318 1.391 . S
C322 C321 1.371 . S
C322 H329 0.930 . S
H323 C320 0.928 . S
H324 C321 0.931 . S
H325 C301 0.930 . S
H326 C298 0.930 . S
H327 C307 0.930 . S
H328 C319 0.929 . S
H329 C322 0.930 . S
C330 C331 1.351 . S
C330 N333 1.368 . S
C330 H335 0.931 . S
C331 C330 1.351 . S
C331 N332 1.373 . S
C331 H359 0.930 . S
N332 C331 1.373 . S
N332 C334 1.340 . S
N333 C330 1.368 . S
N333 C334 1.321 . S
N333 Co336 2.135 . S
C334 N332 1.340 . S
C334 N333 1.321 . S
C334 H358 0.930 . S
H335 C330 0.931 . S
Co336 N333 2.135 . S
Co336 N339 2.121 . S
Co336 O344 2.055 . S
Co336 O347 2.039 . S
Co336 N350 2.140 . S
C337 O338 1.227 . S
C337 O347 1.265 . S
O338 C337 1.227 . S
N339 Co336 2.121 . S
N339 C341 1.375 . S
N339 C342 1.313 . S
C340 C341 1.338 . S
C340 N343 1.377 . S
C340 H360 0.930 . S
C341 N339 1.375 . S
C341 C340 1.338 . S
C341 H345 0.931 . S
C342 N339 1.313 . S
C342 N343 1.344 . S
C342 H346 0.930 . S
N343 C340 1.377 . S
N343 C342 1.344 . S
O344 Co336 2.055 . S
O344 C348 1.253 . S
H345 C341 0.931 . S
H346 C342 0.930 . S
O347 Co336 2.039 . S
O347 C337 1.265 . S
C348 O344 1.253 . S
C348 O349 1.227 . S
O349 C348 1.227 . S
N350 Co336 2.140 . S
N350 C353 1.346 . S
N350 C354 1.345 . S
C351 C352 1.387 . S
C351 C355 1.391 . S
C352 C351 1.387 . S
C352 C353 1.369 . S
C352 H361 0.929 . S
C353 N350 1.346 . S
C353 C352 1.369 . S
C353 H356 0.928 . S
C354 N350 1.345 . S
C354 C355 1.371 . S
C354 H357 0.931 . S
C355 C351 1.391 . S
C355 C354 1.371 . S
C355 H362 0.930 . S
H356 C353 0.928 . S
H357 C354 0.931 . S
H358 C334 0.930 . S
H359 C331 0.930 . S
H360 C340 0.930 . S
H361 C352 0.929 . S
H362 C355 0.930 . S
C363 C364 1.351 . S
C363 N366 1.368 . S
C363 H368 0.931 . S
C364 C363 1.351 . S
C364 N365 1.373 . S
C364 H392 0.930 . S
N365 C364 1.373 . S
N365 C367 1.340 . S
N366 C363 1.368 . S
N366 C367 1.321 . S
N366 Co369 2.135 . S
C367 N365 1.340 . S
C367 N366 1.321 . S
C367 H391 0.930 . S
H368 C363 0.931 . S
Co369 N366 2.135 . S
Co369 N372 2.121 . S
Co369 O377 2.055 . S
Co369 O380 2.039 . S
Co369 N383 2.140 . S
C370 O371 1.227 . S
C370 O380 1.265 . S
O371 C370 1.227 . S
N372 Co369 2.121 . S
N372 C374 1.375 . S
N372 C375 1.313 . S
C373 C374 1.338 . S
C373 N376 1.377 . S
C373 H393 0.930 . S
C374 N372 1.375 . S
C374 C373 1.338 . S
C374 H378 0.931 . S
C375 N372 1.313 . S
C375 N376 1.344 . S
C375 H379 0.930 . S
N376 C373 1.377 . S
N376 C375 1.344 . S
O377 Co369 2.055 . S
O377 C381 1.253 . S
H378 C374 0.931 . S
H379 C375 0.930 . S
O380 Co369 2.039 . S
O380 C370 1.265 . S
C381 O377 1.253 . S
C381 O382 1.227 . S
O382 C381 1.227 . S
N383 Co369 2.140 . S
N383 C386 1.346 . S
N383 C387 1.345 . S
C384 C385 1.387 . S
C384 C388 1.391 . S
C385 C384 1.387 . S
C385 C386 1.369 . S
C385 H394 0.929 . S
C386 N383 1.346 . S
C386 C385 1.369 . S
C386 H389 0.928 . S
C387 N383 1.345 . S
C387 C388 1.371 . S
C387 H390 0.931 . S
C388 C384 1.391 . S
C388 C387 1.371 . S
C388 H395 0.930 . S
H389 C386 0.928 . S
H390 C387 0.931 . S
H391 C367 0.930 . S
H392 C364 0.930 . S
H393 C373 0.930 . S
H394 C385 0.929 . S
H395 C388 0.930 . S
C396 C397 1.351 . S
C396 N399 1.368 . S
C396 H401 0.931 . S
C397 C396 1.351 . S
C397 N398 1.373 . S
C397 H425 0.930 . S
N398 C397 1.373 . S
N398 C400 1.340 . S
N399 C396 1.368 . S
N399 C400 1.321 . S
N399 Co402 2.135 . S
C400 N398 1.340 . S
C400 N399 1.321 . S
C400 H424 0.930 . S
H401 C396 0.931 . S
Co402 N399 2.135 . S
Co402 N405 2.121 . S
Co402 O410 2.055 . S
Co402 O413 2.039 . S
Co402 N416 2.140 . S
C403 O404 1.227 . S
C403 O413 1.265 . S
O404 C403 1.227 . S
N405 Co402 2.121 . S
N405 C407 1.375 . S
N405 C408 1.313 . S
C406 C407 1.338 . S
C406 N409 1.377 . S
C406 H426 0.930 . S
C407 N405 1.375 . S
C407 C406 1.338 . S
C407 H411 0.931 . S
C408 N405 1.313 . S
C408 N409 1.344 . S
C408 H412 0.930 . S
N409 C406 1.377 . S
N409 C408 1.344 . S
O410 Co402 2.055 . S
O410 C414 1.253 . S
H411 C407 0.931 . S
H412 C408 0.930 . S
O413 Co402 2.039 . S
O413 C403 1.265 . S
C414 O410 1.253 . S
C414 O415 1.227 . S
O415 C414 1.227 . S
N416 Co402 2.140 . S
N416 C419 1.346 . S
N416 C420 1.345 . S
C417 C418 1.387 . S
C417 C421 1.391 . S
C418 C417 1.387 . S
C418 C419 1.369 . S
C418 H427 0.929 . S
C419 N416 1.346 . S
C419 C418 1.369 . S
C419 H422 0.928 . S
C420 N416 1.345 . S
C420 C421 1.371 . S
C420 H423 0.931 . S
C421 C417 1.391 . S
C421 C420 1.371 . S
C421 H428 0.930 . S
H422 C419 0.928 . S
H423 C420 0.931 . S
H424 C400 0.930 . S
H425 C397 0.930 . S
H426 C406 0.930 . S
H427 C418 0.929 . S
H428 C421 0.930 . S
C429 C430 1.351 . S
C429 N432 1.368 . S
C429 H434 0.931 . S
C430 C429 1.351 . S
C430 N431 1.373 . S
C430 H458 0.930 . S
N431 C430 1.373 . S
N431 C433 1.340 . S
N432 C429 1.368 . S
N432 C433 1.321 . S
N432 Co435 2.135 . S
C433 N431 1.340 . S
C433 N432 1.321 . S
C433 H457 0.930 . S
H434 C429 0.931 . S
Co435 N432 2.135 . S
Co435 N438 2.121 . S
Co435 O443 2.055 . S
Co435 O446 2.039 . S
Co435 N449 2.140 . S
C436 O437 1.227 . S
C436 O446 1.265 . S
O437 C436 1.227 . S
N438 Co435 2.121 . S
N438 C440 1.375 . S
N438 C441 1.313 . S
C439 C440 1.338 . S
C439 N442 1.377 . S
C439 H459 0.930 . S
C440 N438 1.375 . S
C440 C439 1.338 . S
C440 H444 0.931 . S
C441 N438 1.313 . S
C441 N442 1.344 . S
C441 H445 0.930 . S
N442 C439 1.377 . S
N442 C441 1.344 . S
O443 Co435 2.055 . S
O443 C447 1.253 . S
H444 C440 0.931 . S
H445 C441 0.930 . S
O446 Co435 2.039 . S
O446 C436 1.265 . S
C447 O443 1.253 . S
C447 O448 1.227 . S
O448 C447 1.227 . S
N449 Co435 2.140 . S
N449 C452 1.346 . S
N449 C453 1.345 . S
C450 C451 1.387 . S
C450 C454 1.391 . S
C451 C450 1.387 . S
C451 C452 1.369 . S
C451 H460 0.929 . S
C452 N449 1.346 . S
C452 C451 1.369 . S
C452 H455 0.928 . S
C453 N449 1.345 . S
C453 C454 1.371 . S
C453 H456 0.931 . S
C454 C450 1.391 . S
C454 C453 1.371 . S
C454 H461 0.930 . S
H455 C452 0.928 . S
H456 C453 0.931 . S
H457 C433 0.930 . S
H458 C430 0.930 . S
H459 C439 0.930 . S
H460 C451 0.929 . S
H461 C454 0.930 . S
C462 C463 1.351 . S
C462 N465 1.368 . S
C462 H467 0.931 . S
C463 C462 1.351 . S
C463 N464 1.373 . S
C463 H491 0.930 . S
N464 C463 1.373 . S
N464 C466 1.340 . S
N465 C462 1.368 . S
N465 C466 1.321 . S
N465 Co468 2.135 . S
C466 N464 1.340 . S
C466 N465 1.321 . S
C466 H490 0.930 . S
H467 C462 0.931 . S
Co468 N465 2.135 . S
Co468 N471 2.121 . S
Co468 O476 2.055 . S
Co468 O479 2.039 . S
Co468 N482 2.140 . S
C469 O470 1.227 . S
C469 O479 1.265 . S
O470 C469 1.227 . S
N471 Co468 2.121 . S
N471 C473 1.375 . S
N471 C474 1.313 . S
C472 C473 1.338 . S
C472 N475 1.377 . S
C472 H492 0.930 . S
C473 N471 1.375 . S
C473 C472 1.338 . S
C473 H477 0.931 . S
C474 N471 1.313 . S
C474 N475 1.344 . S
C474 H478 0.930 . S
N475 C472 1.377 . S
N475 C474 1.344 . S
O476 Co468 2.055 . S
O476 C480 1.253 . S
H477 C473 0.931 . S
H478 C474 0.930 . S
O479 Co468 2.039 . S
O479 C469 1.265 . S
C480 O476 1.253 . S
C480 O481 1.227 . S
O481 C480 1.227 . S
N482 Co468 2.140 . S
N482 C485 1.346 . S
N482 C486 1.345 . S
C483 C484 1.387 . S
C483 C487 1.391 . S
C484 C483 1.387 . S
C484 C485 1.369 . S
C484 H493 0.929 . S
C485 N482 1.346 . S
C485 C484 1.369 . S
C485 H488 0.928 . S
C486 N482 1.345 . S
C486 C487 1.371 . S
C486 H489 0.931 . S
C487 C483 1.391 . S
C487 C486 1.371 . S
C487 H494 0.930 . S
H488 C485 0.928 . S
H489 C486 0.931 . S
H490 C466 0.930 . S
H491 C463 0.930 . S
H492 C472 0.930 . S
H493 C484 0.929 . S
H494 C487 0.930 . S
C495 C496 1.351 . S
C495 N498 1.368 . S
C495 H500 0.931 . S
C496 C495 1.351 . S
C496 N497 1.373 . S
C496 H524 0.930 . S
N497 C496 1.373 . S
N497 C499 1.340 . S
N498 C495 1.368 . S
N498 C499 1.321 . S
N498 Co501 2.135 . S
C499 N497 1.340 . S
C499 N498 1.321 . S
C499 H523 0.930 . S
H500 C495 0.931 . S
Co501 N498 2.135 . S
Co501 N504 2.121 . S
Co501 O509 2.055 . S
Co501 O512 2.039 . S
Co501 N515 2.140 . S
C502 O503 1.227 . S
C502 O512 1.265 . S
O503 C502 1.227 . S
N504 Co501 2.121 . S
N504 C506 1.375 . S
N504 C507 1.313 . S
C505 C506 1.338 . S
C505 N508 1.377 . S
C505 H525 0.930 . S
C506 N504 1.375 . S
C506 C505 1.338 . S
C506 H510 0.931 . S
C507 N504 1.313 . S
C507 N508 1.344 . S
C507 H511 0.930 . S
N508 C505 1.377 . S
N508 C507 1.344 . S
O509 Co501 2.055 . S
O509 C513 1.253 . S
H510 C506 0.931 . S
H511 C507 0.930 . S
O512 Co501 2.039 . S
O512 C502 1.265 . S
C513 O509 1.253 . S
C513 O514 1.227 . S
O514 C513 1.227 . S
N515 Co501 2.140 . S
N515 C518 1.346 . S
N515 C519 1.345 . S
C516 C517 1.387 . S
C516 C520 1.391 . S
C517 C516 1.387 . S
C517 C518 1.369 . S
C517 H526 0.929 . S
C518 N515 1.346 . S
C518 C517 1.369 . S
C518 H521 0.928 . S
C519 N515 1.345 . S
C519 C520 1.371 . S
C519 H522 0.931 . S
C520 C516 1.391 . S
C520 C519 1.371 . S
C520 H527 0.930 . S
H521 C518 0.928 . S
H522 C519 0.931 . S
H523 C499 0.930 . S
H524 C496 0.930 . S
H525 C505 0.930 . S
H526 C517 0.929 . S
H527 C520 0.930 . S
C528 C529 1.351 . S
C528 N531 1.368 . S
C528 H533 0.931 . S
C529 C528 1.351 . S
C529 N530 1.373 . S
C529 H557 0.930 . S
N530 C529 1.373 . S
N530 C532 1.340 . S
N531 C528 1.368 . S
N531 C532 1.321 . S
N531 Co534 2.135 . S
C532 N530 1.340 . S
C532 N531 1.321 . S
C532 H556 0.930 . S
H533 C528 0.931 . S
Co534 N531 2.135 . S
Co534 N537 2.121 . S
Co534 O542 2.055 . S
Co534 O545 2.039 . S
Co534 N548 2.140 . S
C535 O536 1.227 . S
C535 O545 1.265 . S
O536 C535 1.227 . S
N537 Co534 2.121 . S
N537 C539 1.375 . S
N537 C540 1.313 . S
C538 C539 1.338 . S
C538 N541 1.377 . S
C538 H558 0.930 . S
C539 N537 1.375 . S
C539 C538 1.338 . S
C539 H543 0.931 . S
C540 N537 1.313 . S
C540 N541 1.344 . S
C540 H544 0.930 . S
N541 C538 1.377 . S
N541 C540 1.344 . S
O542 Co534 2.055 . S
O542 C546 1.253 . S
H543 C539 0.931 . S
H544 C540 0.930 . S
O545 Co534 2.039 . S
O545 C535 1.265 . S
C546 O542 1.253 . S
C546 O547 1.227 . S
O547 C546 1.227 . S
N548 Co534 2.140 . S
N548 C551 1.346 . S
N548 C552 1.345 . S
C549 C550 1.387 . S
C549 C553 1.391 . S
C550 C549 1.387 . S
C550 C551 1.369 . S
C550 H559 0.929 . S
C551 N548 1.346 . S
C551 C550 1.369 . S
C551 H554 0.928 . S
C552 N548 1.345 . S
C552 C553 1.371 . S
C552 H555 0.931 . S
C553 C549 1.391 . S
C553 C552 1.371 . S
C553 H560 0.930 . S
H554 C551 0.928 . S
H555 C552 0.931 . S
H556 C532 0.930 . S
H557 C529 0.930 . S
H558 C538 0.930 . S
H559 C550 0.929 . S
H560 C553 0.930 . S
C561 C562 1.351 . S
C561 N564 1.368 . S
C561 H566 0.931 . S
C562 C561 1.351 . S
C562 N563 1.373 . S
C562 H590 0.930 . S
N563 C562 1.373 . S
N563 C565 1.340 . S
N564 C561 1.368 . S
N564 C565 1.321 . S
N564 Co567 2.135 . S
C565 N563 1.340 . S
C565 N564 1.321 . S
C565 H589 0.930 . S
H566 C561 0.931 . S
Co567 N564 2.135 . S
Co567 N570 2.121 . S
Co567 O575 2.055 . S
Co567 O578 2.039 . S
Co567 N581 2.140 . S
C568 O569 1.227 . S
C568 O578 1.265 . S
O569 C568 1.227 . S
N570 Co567 2.121 . S
N570 C572 1.375 . S
N570 C573 1.313 . S
C571 C572 1.338 . S
C571 N574 1.377 . S
C571 H591 0.930 . S
C572 N570 1.375 . S
C572 C571 1.338 . S
C572 H576 0.931 . S
C573 N570 1.313 . S
C573 N574 1.344 . S
C573 H577 0.930 . S
N574 C571 1.377 . S
N574 C573 1.344 . S
O575 Co567 2.055 . S
O575 C579 1.253 . S
H576 C572 0.931 . S
H577 C573 0.930 . S
O578 Co567 2.039 . S
O578 C568 1.265 . S
C579 O575 1.253 . S
C579 O580 1.227 . S
O580 C579 1.227 . S
N581 Co567 2.140 . S
N581 C584 1.346 . S
N581 C585 1.345 . S
C582 C583 1.387 . S
C582 C586 1.391 . S
C583 C582 1.387 . S
C583 C584 1.369 . S
C583 H592 0.929 . S
C584 N581 1.346 . S
C584 C583 1.369 . S
C584 H587 0.928 . S
C585 N581 1.345 . S
C585 C586 1.371 . S
C585 H588 0.931 . S
C586 C582 1.391 . S
C586 C585 1.371 . S
C586 H593 0.930 . S
H587 C584 0.928 . S
H588 C585 0.931 . S
H589 C565 0.930 . S
H590 C562 0.930 . S
H591 C571 0.930 . S
H592 C583 0.929 . S
H593 C586 0.930 . S
C594 C595 1.351 . S
C594 N597 1.368 . S
C594 H599 0.931 . S
C595 C594 1.351 . S
C595 N596 1.373 . S
C595 H623 0.930 . S
N596 C595 1.373 . S
N596 C598 1.340 . S
N597 C594 1.368 . S
N597 C598 1.321 . S
N597 Co600 2.135 . S
C598 N596 1.340 . S
C598 N597 1.321 . S
C598 H622 0.930 . S
H599 C594 0.931 . S
Co600 N597 2.135 . S
Co600 N603 2.121 . S
Co600 O608 2.055 . S
Co600 O611 2.039 . S
Co600 N614 2.140 . S
C601 O602 1.227 . S
C601 O611 1.265 . S
O602 C601 1.227 . S
N603 Co600 2.121 . S
N603 C605 1.375 . S
N603 C606 1.313 . S
C604 C605 1.338 . S
C604 N607 1.377 . S
C604 H624 0.930 . S
C605 N603 1.375 . S
C605 C604 1.338 . S
C605 H609 0.931 . S
C606 N603 1.313 . S
C606 N607 1.344 . S
C606 H610 0.930 . S
N607 C604 1.377 . S
N607 C606 1.344 . S
O608 Co600 2.055 . S
O608 C612 1.253 . S
H609 C605 0.931 . S
H610 C606 0.930 . S
O611 Co600 2.039 . S
O611 C601 1.265 . S
C612 O608 1.253 . S
C612 O613 1.227 . S
O613 C612 1.227 . S
N614 Co600 2.140 . S
N614 C617 1.346 . S
N614 C618 1.345 . S
C615 C616 1.387 . S
C615 C619 1.391 . S
C616 C615 1.387 . S
C616 C617 1.369 . S
C616 H625 0.929 . S
C617 N614 1.346 . S
C617 C616 1.369 . S
C617 H620 0.928 . S
C618 N614 1.345 . S
C618 C619 1.371 . S
C618 H621 0.931 . S
C619 C615 1.391 . S
C619 C618 1.371 . S
C619 H626 0.930 . S
H620 C617 0.928 . S
H621 C618 0.931 . S
H622 C598 0.930 . S
H623 C595 0.930 . S
H624 C604 0.930 . S
H625 C616 0.929 . S
H626 C619 0.930 . S
C627 C628 1.351 . S
C627 N630 1.368 . S
C627 H632 0.931 . S
C628 C627 1.351 . S
C628 N629 1.373 . S
C628 H656 0.930 . S
N629 C628 1.373 . S
N629 C631 1.340 . S
N630 C627 1.368 . S
N630 C631 1.321 . S
N630 Co633 2.135 . S
C631 N629 1.340 . S
C631 N630 1.321 . S
C631 H655 0.930 . S
H632 C627 0.931 . S
Co633 N630 2.135 . S
Co633 N636 2.121 . S
Co633 O641 2.055 . S
Co633 O644 2.039 . S
Co633 N647 2.140 . S
C634 O635 1.227 . S
C634 O644 1.265 . S
O635 C634 1.227 . S
N636 Co633 2.121 . S
N636 C638 1.375 . S
N636 C639 1.313 . S
C637 C638 1.338 . S
C637 N640 1.377 . S
C637 H657 0.930 . S
C638 N636 1.375 . S
C638 C637 1.338 . S
C638 H642 0.931 . S
C639 N636 1.313 . S
C639 N640 1.344 . S
C639 H643 0.930 . S
N640 C637 1.377 . S
N640 C639 1.344 . S
O641 Co633 2.055 . S
O641 C645 1.253 . S
H642 C638 0.931 . S
H643 C639 0.930 . S
O644 Co633 2.039 . S
O644 C634 1.265 . S
C645 O641 1.253 . S
C645 O646 1.227 . S
O646 C645 1.227 . S
N647 Co633 2.140 . S
N647 C650 1.346 . S
N647 C651 1.345 . S
C648 C649 1.387 . S
C648 C652 1.391 . S
C649 C648 1.387 . S
C649 C650 1.369 . S
C649 H658 0.929 . S
C650 N647 1.346 . S
C650 C649 1.369 . S
C650 H653 0.928 . S
C651 N647 1.345 . S
C651 C652 1.371 . S
C651 H654 0.931 . S
C652 C648 1.391 . S
C652 C651 1.371 . S
C652 H659 0.930 . S
H653 C650 0.928 . S
H654 C651 0.931 . S
H655 C631 0.930 . S
H656 C628 0.930 . S
H657 C637 0.930 . S
H658 C649 0.929 . S
H659 C652 0.930 . S
C660 C661 1.351 . S
C660 N663 1.368 . S
C660 H665 0.931 . S
C661 C660 1.351 . S
C661 N662 1.373 . S
C661 H689 0.930 . S
N662 C661 1.373 . S
N662 C664 1.340 . S
N663 C660 1.368 . S
N663 C664 1.321 . S
N663 Co666 2.135 . S
C664 N662 1.340 . S
C664 N663 1.321 . S
C664 H688 0.930 . S
H665 C660 0.931 . S
Co666 N663 2.135 . S
Co666 N669 2.121 . S
Co666 O674 2.055 . S
Co666 O677 2.039 . S
Co666 N680 2.140 . S
C667 O668 1.227 . S
C667 O677 1.265 . S
O668 C667 1.227 . S
N669 Co666 2.121 . S
N669 C671 1.375 . S
N669 C672 1.313 . S
C670 C671 1.338 . S
C670 N673 1.377 . S
C670 H690 0.930 . S
C671 N669 1.375 . S
C671 C670 1.338 . S
C671 H675 0.931 . S
C672 N669 1.313 . S
C672 N673 1.344 . S
C672 H676 0.930 . S
N673 C670 1.377 . S
N673 C672 1.344 . S
O674 Co666 2.055 . S
O674 C678 1.253 . S
H675 C671 0.931 . S
H676 C672 0.930 . S
O677 Co666 2.039 . S
O677 C667 1.265 . S
C678 O674 1.253 . S
C678 O679 1.227 . S
O679 C678 1.227 . S
N680 Co666 2.140 . S
N680 C683 1.346 . S
N680 C684 1.345 . S
C681 C682 1.387 . S
C681 C685 1.391 . S
C682 C681 1.387 . S
C682 C683 1.369 . S
C682 H691 0.929 . S
C683 N680 1.346 . S
C683 C682 1.369 . S
C683 H686 0.928 . S
C684 N680 1.345 . S
C684 C685 1.371 . S
C684 H687 0.931 . S
C685 C681 1.391 . S
C685 C684 1.371 . S
C685 H692 0.930 . S
H686 C683 0.928 . S
H687 C684 0.931 . S
H688 C664 0.930 . S
H689 C661 0.930 . S
H690 C670 0.930 . S
H691 C682 0.929 . S
H692 C685 0.930 . S
C693 C694 1.351 . S
C693 N696 1.368 . S
C693 H698 0.931 . S
C694 C693 1.351 . S
C694 N695 1.373 . S
C694 H722 0.930 . S
N695 C694 1.373 . S
N695 C697 1.340 . S
N696 C693 1.368 . S
N696 C697 1.321 . S
N696 Co699 2.135 . S
C697 N695 1.340 . S
C697 N696 1.321 . S
C697 H721 0.930 . S
H698 C693 0.931 . S
Co699 N696 2.135 . S
Co699 N702 2.121 . S
Co699 O707 2.055 . S
Co699 O710 2.039 . S
Co699 N713 2.140 . S
C700 O701 1.227 . S
C700 O710 1.265 . S
O701 C700 1.227 . S
N702 Co699 2.121 . S
N702 C704 1.375 . S
N702 C705 1.313 . S
C703 C704 1.338 . S
C703 N706 1.377 . S
C703 H723 0.930 . S
C704 N702 1.375 . S
C704 C703 1.338 . S
C704 H708 0.931 . S
C705 N702 1.313 . S
C705 N706 1.344 . S
C705 H709 0.930 . S
N706 C703 1.377 . S
N706 C705 1.344 . S
O707 Co699 2.055 . S
O707 C711 1.253 . S
H708 C704 0.931 . S
H709 C705 0.930 . S
O710 Co699 2.039 . S
O710 C700 1.265 . S
C711 O707 1.253 . S
C711 O712 1.227 . S
O712 C711 1.227 . S
N713 Co699 2.140 . S
N713 C716 1.346 . S
N713 C717 1.345 . S
C714 C715 1.387 . S
C714 C718 1.391 . S
C715 C714 1.387 . S
C715 C716 1.369 . S
C715 H724 0.929 . S
C716 N713 1.346 . S
C716 C715 1.369 . S
C716 H719 0.928 . S
C717 N713 1.345 . S
C717 C718 1.371 . S
C717 H720 0.931 . S
C718 C714 1.391 . S
C718 C717 1.371 . S
C718 H725 0.930 . S
H719 C716 0.928 . S
H720 C717 0.931 . S
H721 C697 0.930 . S
H722 C694 0.930 . S
H723 C703 0.930 . S
H724 C715 0.929 . S
H725 C718 0.930 . S
C726 C727 1.351 . S
C726 N729 1.368 . S
C726 H731 0.931 . S
C727 C726 1.351 . S
C727 N728 1.373 . S
C727 H755 0.930 . S
N728 C727 1.373 . S
N728 C730 1.340 . S
N729 C726 1.368 . S
N729 C730 1.321 . S
N729 Co732 2.135 . S
C730 N728 1.340 . S
C730 N729 1.321 . S
C730 H754 0.930 . S
H731 C726 0.931 . S
Co732 N729 2.135 . S
Co732 N735 2.121 . S
Co732 O740 2.055 . S
Co732 O743 2.039 . S
Co732 N746 2.140 . S
C733 O734 1.227 . S
C733 O743 1.265 . S
O734 C733 1.227 . S
N735 Co732 2.121 . S
N735 C737 1.375 . S
N735 C738 1.313 . S
C736 C737 1.338 . S
C736 N739 1.377 . S
C736 H756 0.930 . S
C737 N735 1.375 . S
C737 C736 1.338 . S
C737 H741 0.931 . S
C738 N735 1.313 . S
C738 N739 1.344 . S
C738 H742 0.930 . S
N739 C736 1.377 . S
N739 C738 1.344 . S
O740 Co732 2.055 . S
O740 C744 1.253 . S
H741 C737 0.931 . S
H742 C738 0.930 . S
O743 Co732 2.039 . S
O743 C733 1.265 . S
C744 O740 1.253 . S
C744 O745 1.227 . S
O745 C744 1.227 . S
N746 Co732 2.140 . S
N746 C749 1.346 . S
N746 C750 1.345 . S
C747 C748 1.387 . S
C747 C751 1.391 . S
C748 C747 1.387 . S
C748 C749 1.369 . S
C748 H757 0.929 . S
C749 N746 1.346 . S
C749 C748 1.369 . S
C749 H752 0.928 . S
C750 N746 1.345 . S
C750 C751 1.371 . S
C750 H753 0.931 . S
C751 C747 1.391 . S
C751 C750 1.371 . S
C751 H758 0.930 . S
H752 C749 0.928 . S
H753 C750 0.931 . S
H754 C730 0.930 . S
H755 C727 0.930 . S
H756 C736 0.930 . S
H757 C748 0.929 . S
H758 C751 0.930 . S
C759 C760 1.351 . S
C759 N762 1.368 . S
C759 H764 0.931 . S
C760 C759 1.351 . S
C760 N761 1.373 . S
C760 H788 0.930 . S
N761 C760 1.373 . S
N761 C763 1.340 . S
N762 C759 1.368 . S
N762 C763 1.321 . S
N762 Co765 2.135 . S
C763 N761 1.340 . S
C763 N762 1.321 . S
C763 H787 0.930 . S
H764 C759 0.931 . S
Co765 N762 2.135 . S
Co765 N768 2.121 . S
Co765 O773 2.055 . S
Co765 O776 2.039 . S
Co765 N779 2.140 . S
C766 O767 1.227 . S
C766 O776 1.265 . S
O767 C766 1.227 . S
N768 Co765 2.121 . S
N768 C770 1.375 . S
N768 C771 1.313 . S
C769 C770 1.338 . S
C769 N772 1.377 . S
C769 H789 0.930 . S
C770 N768 1.375 . S
C770 C769 1.338 . S
C770 H774 0.931 . S
C771 N768 1.313 . S
C771 N772 1.344 . S
C771 H775 0.930 . S
N772 C769 1.377 . S
N772 C771 1.344 . S
O773 Co765 2.055 . S
O773 C777 1.253 . S
H774 C770 0.931 . S
H775 C771 0.930 . S
O776 Co765 2.039 . S
O776 C766 1.265 . S
C777 O773 1.253 . S
C777 O778 1.227 . S
O778 C777 1.227 . S
N779 Co765 2.140 . S
N779 C782 1.346 . S
N779 C783 1.345 . S
C780 C781 1.387 . S
C780 C784 1.391 . S
C781 C780 1.387 . S
C781 C782 1.369 . S
C781 H790 0.929 . S
C782 N779 1.346 . S
C782 C781 1.369 . S
C782 H785 0.928 . S
C783 N779 1.345 . S
C783 C784 1.371 . S
C783 H786 0.931 . S
C784 C780 1.391 . S
C784 C783 1.371 . S
C784 H791 0.930 . S
H785 C782 0.928 . S
H786 C783 0.931 . S
H787 C763 0.930 . S
H788 C760 0.930 . S
H789 C769 0.930 . S
H790 C781 0.929 . S
H791 C784 0.930 . S
C792 C793 1.351 . S
C792 N795 1.368 . S
C792 H797 0.931 . S
C793 C792 1.351 . S
C793 N794 1.373 . S
C793 H821 0.930 . S
N794 C793 1.373 . S
N794 C796 1.340 . S
N795 C792 1.368 . S
N795 C796 1.321 . S
N795 Co798 2.135 . S
C796 N794 1.340 . S
C796 N795 1.321 . S
C796 H820 0.930 . S
H797 C792 0.931 . S
Co798 N795 2.135 . S
Co798 N801 2.121 . S
Co798 O806 2.055 . S
Co798 O809 2.039 . S
Co798 N812 2.140 . S
C799 O800 1.227 . S
C799 O809 1.265 . S
O800 C799 1.227 . S
N801 Co798 2.121 . S
N801 C803 1.375 . S
N801 C804 1.313 . S
C802 C803 1.338 . S
C802 N805 1.377 . S
C802 H822 0.930 . S
C803 N801 1.375 . S
C803 C802 1.338 . S
C803 H807 0.931 . S
C804 N801 1.313 . S
C804 N805 1.344 . S
C804 H808 0.930 . S
N805 C802 1.377 . S
N805 C804 1.344 . S
O806 Co798 2.055 . S
O806 C810 1.253 . S
H807 C803 0.931 . S
H808 C804 0.930 . S
O809 Co798 2.039 . S
O809 C799 1.265 . S
C810 O806 1.253 . S
C810 O811 1.227 . S
O811 C810 1.227 . S
N812 Co798 2.140 . S
N812 C815 1.346 . S
N812 C816 1.345 . S
C813 C814 1.387 . S
C813 C817 1.391 . S
C814 C813 1.387 . S
C814 C815 1.369 . S
C814 H823 0.929 . S
C815 N812 1.346 . S
C815 C814 1.369 . S
C815 H818 0.928 . S
C816 N812 1.345 . S
C816 C817 1.371 . S
C816 H819 0.931 . S
C817 C813 1.391 . S
C817 C816 1.371 . S
C817 H824 0.930 . S
H818 C815 0.928 . S
H819 C816 0.931 . S
H820 C796 0.930 . S
H821 C793 0.930 . S
H822 C802 0.930 . S
H823 C814 0.929 . S
H824 C817 0.930 . S
C825 C826 1.351 . S
C825 N828 1.368 . S
C825 H830 0.931 . S
C826 C825 1.351 . S
C826 N827 1.373 . S
C826 H854 0.930 . S
N827 C826 1.373 . S
N827 C829 1.340 . S
N828 C825 1.368 . S
N828 C829 1.321 . S
N828 Co831 2.135 . S
C829 N827 1.340 . S
C829 N828 1.321 . S
C829 H853 0.930 . S
H830 C825 0.931 . S
Co831 N828 2.135 . S
Co831 N834 2.121 . S
Co831 O839 2.055 . S
Co831 O842 2.039 . S
Co831 N845 2.140 . S
C832 O833 1.227 . S
C832 O842 1.265 . S
O833 C832 1.227 . S
N834 Co831 2.121 . S
N834 C836 1.375 . S
N834 C837 1.313 . S
C835 C836 1.338 . S
C835 N838 1.377 . S
C835 H855 0.930 . S
C836 N834 1.375 . S
C836 C835 1.338 . S
C836 H840 0.931 . S
C837 N834 1.313 . S
C837 N838 1.344 . S
C837 H841 0.930 . S
N838 C835 1.377 . S
N838 C837 1.344 . S
O839 Co831 2.055 . S
O839 C843 1.253 . S
H840 C836 0.931 . S
H841 C837 0.930 . S
O842 Co831 2.039 . S
O842 C832 1.265 . S
C843 O839 1.253 . S
C843 O844 1.227 . S
O844 C843 1.227 . S
N845 Co831 2.140 . S
N845 C848 1.346 . S
N845 C849 1.345 . S
C846 C847 1.387 . S
C846 C850 1.391 . S
C847 C846 1.387 . S
C847 C848 1.369 . S
C847 H856 0.929 . S
C848 N845 1.346 . S
C848 C847 1.369 . S
C848 H851 0.928 . S
C849 N845 1.345 . S
C849 C850 1.371 . S
C849 H852 0.931 . S
C850 C846 1.391 . S
C850 C849 1.371 . S
C850 H857 0.930 . S
H851 C848 0.928 . S
H852 C849 0.931 . S
H853 C829 0.930 . S
H854 C826 0.930 . S
H855 C835 0.930 . S
H856 C847 0.929 . S
H857 C850 0.930 . S
C858 C859 1.351 . S
C858 N861 1.368 . S
C858 H863 0.931 . S
C859 C858 1.351 . S
C859 N860 1.373 . S
C859 H887 0.930 . S
N860 C859 1.373 . S
N860 C862 1.340 . S
N861 C858 1.368 . S
N861 C862 1.321 . S
N861 Co864 2.135 . S
C862 N860 1.340 . S
C862 N861 1.321 . S
C862 H886 0.930 . S
H863 C858 0.931 . S
Co864 N861 2.135 . S
Co864 N867 2.121 . S
Co864 O872 2.055 . S
Co864 O875 2.039 . S
Co864 N878 2.140 . S
C865 O866 1.227 . S
C865 O875 1.265 . S
O866 C865 1.227 . S
N867 Co864 2.121 . S
N867 C869 1.375 . S
N867 C870 1.313 . S
C868 C869 1.338 . S
C868 N871 1.377 . S
C868 H888 0.930 . S
C869 N867 1.375 . S
C869 C868 1.338 . S
C869 H873 0.931 . S
C870 N867 1.313 . S
C870 N871 1.344 . S
C870 H874 0.930 . S
N871 C868 1.377 . S
N871 C870 1.344 . S
O872 Co864 2.055 . S
O872 C876 1.253 . S
H873 C869 0.931 . S
H874 C870 0.930 . S
O875 Co864 2.039 . S
O875 C865 1.265 . S
C876 O872 1.253 . S
C876 O877 1.227 . S
O877 C876 1.227 . S
N878 Co864 2.140 . S
N878 C881 1.346 . S
N878 C882 1.345 . S
C879 C880 1.387 . S
C879 C883 1.391 . S
C880 C879 1.387 . S
C880 C881 1.369 . S
C880 H889 0.929 . S
C881 N878 1.346 . S
C881 C880 1.369 . S
C881 H884 0.928 . S
C882 N878 1.345 . S
C882 C883 1.371 . S
C882 H885 0.931 . S
C883 C879 1.391 . S
C883 C882 1.371 . S
C883 H890 0.930 . S
H884 C881 0.928 . S
H885 C882 0.931 . S
H886 C862 0.930 . S
H887 C859 0.930 . S
H888 C868 0.930 . S
H889 C880 0.929 . S
H890 C883 0.930 . S
C891 C892 1.351 . S
C891 N894 1.368 . S
C891 H896 0.931 . S
C892 C891 1.351 . S
C892 N893 1.373 . S
C892 H920 0.930 . S
N893 C892 1.373 . S
N893 C895 1.340 . S
N894 C891 1.368 . S
N894 C895 1.321 . S
N894 Co897 2.135 . S
C895 N893 1.340 . S
C895 N894 1.321 . S
C895 H919 0.930 . S
H896 C891 0.931 . S
Co897 N894 2.135 . S
Co897 N900 2.121 . S
Co897 O905 2.055 . S
Co897 O908 2.039 . S
Co897 N911 2.140 . S
C898 O899 1.227 . S
C898 O908 1.265 . S
O899 C898 1.227 . S
N900 Co897 2.121 . S
N900 C902 1.375 . S
N900 C903 1.313 . S
C901 C902 1.338 . S
C901 N904 1.377 . S
C901 H921 0.930 . S
C902 N900 1.375 . S
C902 C901 1.338 . S
C902 H906 0.931 . S
C903 N900 1.313 . S
C903 N904 1.344 . S
C903 H907 0.930 . S
N904 C901 1.377 . S
N904 C903 1.344 . S
O905 Co897 2.055 . S
O905 C909 1.253 . S
H906 C902 0.931 . S
H907 C903 0.930 . S
O908 Co897 2.039 . S
O908 C898 1.265 . S
C909 O905 1.253 . S
C909 O910 1.227 . S
O910 C909 1.227 . S
N911 Co897 2.140 . S
N911 C914 1.346 . S
N911 C915 1.345 . S
C912 C913 1.387 . S
C912 C916 1.391 . S
C913 C912 1.387 . S
C913 C914 1.369 . S
C913 H922 0.929 . S
C914 N911 1.346 . S
C914 C913 1.369 . S
C914 H917 0.928 . S
C915 N911 1.345 . S
C915 C916 1.371 . S
C915 H918 0.931 . S
C916 C912 1.391 . S
C916 C915 1.371 . S
C916 H923 0.930 . S
H917 C914 0.928 . S
H918 C915 0.931 . S
H919 C895 0.930 . S
H920 C892 0.930 . S
H921 C901 0.930 . S
H922 C913 0.929 . S
H923 C916 0.930 . S
C924 C925 1.351 . S
C924 N927 1.368 . S
C924 H929 0.931 . S
C925 C924 1.351 . S
C925 N926 1.373 . S
C925 H953 0.930 . S
N926 C925 1.373 . S
N926 C928 1.340 . S
N927 C924 1.368 . S
N927 C928 1.321 . S
N927 Co930 2.135 . S
C928 N926 1.340 . S
C928 N927 1.321 . S
C928 H952 0.930 . S
H929 C924 0.931 . S
Co930 N927 2.135 . S
Co930 N933 2.121 . S
Co930 O938 2.055 . S
Co930 O941 2.039 . S
Co930 N944 2.140 . S
C931 O932 1.227 . S
C931 O941 1.265 . S
O932 C931 1.227 . S
N933 Co930 2.121 . S
N933 C935 1.375 . S
N933 C936 1.313 . S
C934 C935 1.338 . S
C934 N937 1.377 . S
C934 H954 0.930 . S
C935 N933 1.375 . S
C935 C934 1.338 . S
C935 H939 0.931 . S
C936 N933 1.313 . S
C936 N937 1.344 . S
C936 H940 0.930 . S
N937 C934 1.377 . S
N937 C936 1.344 . S
O938 Co930 2.055 . S
O938 C942 1.253 . S
H939 C935 0.931 . S
H940 C936 0.930 . S
O941 Co930 2.039 . S
O941 C931 1.265 . S
C942 O938 1.253 . S
C942 O943 1.227 . S
O943 C942 1.227 . S
N944 Co930 2.140 . S
N944 C947 1.346 . S
N944 C948 1.345 . S
C945 C946 1.387 . S
C945 C949 1.391 . S
C946 C945 1.387 . S
C946 C947 1.369 . S
C946 H955 0.929 . S
C947 N944 1.346 . S
C947 C946 1.369 . S
C947 H950 0.928 . S
C948 N944 1.345 . S
C948 C949 1.371 . S
C948 H951 0.931 . S
C949 C945 1.391 . S
C949 C948 1.371 . S
C949 H956 0.930 . S
H950 C947 0.928 . S
H951 C948 0.931 . S
H952 C928 0.930 . S
H953 C925 0.930 . S
H954 C934 0.930 . S
H955 C946 0.929 . S
H956 C949 0.930 . S
C957 C958 1.351 . S
C957 N960 1.368 . S
C957 H962 0.931 . S
C958 C957 1.351 . S
C958 N959 1.373 . S
C958 H986 0.930 . S
N959 C958 1.373 . S
N959 C961 1.340 . S
N960 C957 1.368 . S
N960 C961 1.321 . S
N960 Co963 2.135 . S
C961 N959 1.340 . S
C961 N960 1.321 . S
C961 H985 0.930 . S
H962 C957 0.931 . S
Co963 N960 2.135 . S
Co963 N966 2.121 . S
Co963 O971 2.055 . S
Co963 O974 2.039 . S
Co963 N977 2.140 . S
C964 O965 1.227 . S
C964 O974 1.265 . S
O965 C964 1.227 . S
N966 Co963 2.121 . S
N966 C968 1.375 . S
N966 C969 1.313 . S
C967 C968 1.338 . S
C967 N970 1.377 . S
C967 H987 0.930 . S
C968 N966 1.375 . S
C968 C967 1.338 . S
C968 H972 0.931 . S
C969 N966 1.313 . S
C969 N970 1.344 . S
C969 H973 0.930 . S
N970 C967 1.377 . S
N970 C969 1.344 . S
O971 Co963 2.055 . S
O971 C975 1.253 . S
H972 C968 0.931 . S
H973 C969 0.930 . S
O974 Co963 2.039 . S
O974 C964 1.265 . S
C975 O971 1.253 . S
C975 O976 1.227 . S
O976 C975 1.227 . S
N977 Co963 2.140 . S
N977 C980 1.346 . S
N977 C981 1.345 . S
C978 C979 1.387 . S
C978 C982 1.391 . S
C979 C978 1.387 . S
C979 C980 1.369 . S
C979 H988 0.929 . S
C980 N977 1.346 . S
C980 C979 1.369 . S
C980 H983 0.928 . S
C981 N977 1.345 . S
C981 C982 1.371 . S
C981 H984 0.931 . S
C982 C978 1.391 . S
C982 C981 1.371 . S
C982 H989 0.930 . S
H983 C980 0.928 . S
H984 C981 0.931 . S
H985 C961 0.930 . S
H986 C958 0.930 . S
H987 C967 0.930 . S
H988 C979 0.929 . S
H989 C982 0.930 . S
C990 C991 1.351 . S
C990 N993 1.368 . S
C990 H995 0.931 . S
C991 C990 1.351 . S
C991 N992 1.373 . S
C991 H1019 0.930 . S
N992 C991 1.373 . S
N992 C994 1.340 . S
N993 C990 1.368 . S
N993 C994 1.321 . S
N993 Co996 2.135 . S
C994 N992 1.340 . S
C994 N993 1.321 . S
C994 H1018 0.930 . S
H995 C990 0.931 . S
Co996 N993 2.135 . S
Co996 N999 2.121 . S
Co996 O1004 2.055 . S
Co996 O1007 2.039 . S
Co996 N1010 2.140 . S
C997 O998 1.227 . S
C997 O1007 1.265 . S
O998 C997 1.227 . S
N999 Co996 2.121 . S
N999 C1001 1.375 . S
N999 C1002 1.313 . S
C1000 C1001 1.338 . S
C1000 N1003 1.377 . S
C1000 H1020 0.930 . S
C1001 N999 1.375 . S
C1001 C1000 1.338 . S
C1001 H1005 0.931 . S
C1002 N999 1.313 . S
C1002 N1003 1.344 . S
C1002 H1006 0.930 . S
N1003 C1000 1.377 . S
N1003 C1002 1.344 . S
O1004 Co996 2.055 . S
O1004 C1008 1.253 . S
H1005 C1001 0.931 . S
H1006 C1002 0.930 . S
O1007 Co996 2.039 . S
O1007 C997 1.265 . S
C1008 O1004 1.253 . S
C1008 O1009 1.227 . S
O1009 C1008 1.227 . S
N1010 Co996 2.140 . S
N1010 C1013 1.346 . S
N1010 C1014 1.345 . S
C1011 C1012 1.387 . S
C1011 C1015 1.391 . S
C1012 C1011 1.387 . S
C1012 C1013 1.369 . S
C1012 H1021 0.929 . S
C1013 N1010 1.346 . S
C1013 C1012 1.369 . S
C1013 H1016 0.928 . S
C1014 N1010 1.345 . S
C1014 C1015 1.371 . S
C1014 H1017 0.931 . S
C1015 C1011 1.391 . S
C1015 C1014 1.371 . S
C1015 H1022 0.930 . S
H1016 C1013 0.928 . S
H1017 C1014 0.931 . S
H1018 C994 0.930 . S
H1019 C991 0.930 . S
H1020 C1000 0.930 . S
H1021 C1012 0.929 . S
H1022 C1015 0.930 . S
C1023 C1024 1.351 . S
C1023 N1026 1.368 . S
C1023 H1028 0.931 . S
C1024 C1023 1.351 . S
C1024 N1025 1.373 . S
C1024 H1052 0.930 . S
N1025 C1024 1.373 . S
N1025 C1027 1.340 . S
N1026 C1023 1.368 . S
N1026 C1027 1.321 . S
N1026 Co1029 2.135 . S
C1027 N1025 1.340 . S
C1027 N1026 1.321 . S
C1027 H1051 0.930 . S
H1028 C1023 0.931 . S
Co1029 N1026 2.135 . S
Co1029 N1032 2.121 . S
Co1029 O1037 2.055 . S
Co1029 O1040 2.039 . S
Co1029 N1043 2.140 . S
C1030 O1031 1.227 . S
C1030 O1040 1.265 . S
O1031 C1030 1.227 . S
N1032 Co1029 2.121 . S
N1032 C1034 1.375 . S
N1032 C1035 1.313 . S
C1033 C1034 1.338 . S
C1033 N1036 1.377 . S
C1033 H1053 0.930 . S
C1034 N1032 1.375 . S
C1034 C1033 1.338 . S
C1034 H1038 0.931 . S
C1035 N1032 1.313 . S
C1035 N1036 1.344 . S
C1035 H1039 0.930 . S
N1036 C1033 1.377 . S
N1036 C1035 1.344 . S
O1037 Co1029 2.055 . S
O1037 C1041 1.253 . S
H1038 C1034 0.931 . S
H1039 C1035 0.930 . S
O1040 Co1029 2.039 . S
O1040 C1030 1.265 . S
C1041 O1037 1.253 . S
C1041 O1042 1.227 . S
O1042 C1041 1.227 . S
N1043 Co1029 2.140 . S
N1043 C1046 1.346 . S
N1043 C1047 1.345 . S
C1044 C1045 1.387 . S
C1044 C1048 1.391 . S
C1045 C1044 1.387 . S
C1045 C1046 1.369 . S
C1045 H1054 0.929 . S
C1046 N1043 1.346 . S
C1046 C1045 1.369 . S
C1046 H1049 0.928 . S
C1047 N1043 1.345 . S
C1047 C1048 1.371 . S
C1047 H1050 0.931 . S
C1048 C1044 1.391 . S
C1048 C1047 1.371 . S
C1048 H1055 0.930 . S
H1049 C1046 0.928 . S
H1050 C1047 0.931 . S
H1051 C1027 0.930 . S
H1052 C1024 0.930 . S
H1053 C1033 0.930 . S
H1054 C1045 0.929 . S
H1055 C1048 0.930 . S
H1056 C1062 0.930 . S
H1057 C1066 0.930 . S
H1058 C1071 0.929 . S
H1059 C1069 0.929 . S
H1060 C1064 0.929 . S
H1061 C1070 0.929 . S
C1062 H1056 0.930 . S
C1062 C1063 1.367 . S
C1062 C1070 1.378 . S
C1063 C1062 1.367 . S
C1063 C1071 1.433 . S
C1064 H1060 0.929 . S
C1064 C1066 1.378 . S
C1064 C1068 1.350 . S
C1065 C1068 1.463 . S
C1065 C1070 1.350 . S
C1065 N1073 1.427 . S
C1066 H1057 0.930 . S
C1066 C1064 1.378 . S
C1066 C1067 1.367 . S
C1067 C1066 1.367 . S
C1067 C1069 1.433 . S
C1068 C1064 1.350 . S
C1068 C1065 1.463 . S
C1068 N1072 1.427 . S
C1069 H1059 0.929 . S
C1069 C1067 1.433 . S
C1069 N1072 1.384 . S
C1070 H1061 0.929 . S
C1070 C1062 1.378 . S
C1070 C1065 1.350 . S
C1071 H1058 0.929 . S
C1071 C1063 1.433 . S
C1071 N1073 1.384 . S
N1072 C1068 1.427 . S
N1072 C1069 1.384 . S
N1073 C1065 1.427 . S
N1073 C1071 1.384 . S
H1074 C1080 0.930 . S
H1075 C1084 0.930 . S
H1076 C1089 0.929 . S
H1077 C1087 0.929 . S
H1078 C1082 0.929 . S
H1079 C1088 0.929 . S
C1080 H1074 0.930 . S
C1080 C1081 1.367 . S
C1080 C1088 1.378 . S
C1081 C1080 1.367 . S
C1081 C1089 1.433 . S
C1082 H1078 0.929 . S
C1082 C1084 1.378 . S
C1082 C1086 1.350 . S
C1083 C1086 1.463 . S
C1083 C1088 1.350 . S
C1083 N1091 1.427 . S
C1084 H1075 0.930 . S
C1084 C1082 1.378 . S
C1084 C1085 1.367 . S
C1085 C1084 1.367 . S
C1085 C1087 1.433 . S
C1086 C1082 1.350 . S
C1086 C1083 1.463 . S
C1086 N1090 1.427 . S
C1087 H1077 0.929 . S
C1087 C1085 1.433 . S
C1087 N1090 1.384 . S
C1088 H1079 0.929 . S
C1088 C1080 1.378 . S
C1088 C1083 1.350 . S
C1089 H1076 0.929 . S
C1089 C1081 1.433 . S
C1089 N1091 1.384 . S
N1090 C1086 1.427 . S
N1090 C1087 1.384 . S
N1091 C1083 1.427 . S
N1091 C1089 1.384 . S
H1092 C1098 0.930 . S
H1093 C1102 0.930 . S
H1094 C1107 0.929 . S
H1095 C1105 0.929 . S
H1096 C1100 0.929 . S
H1097 C1106 0.929 . S
C1098 H1092 0.930 . S
C1098 C1099 1.367 . S
C1098 C1106 1.378 . S
C1099 C1098 1.367 . S
C1099 C1107 1.433 . S
C1100 H1096 0.929 . S
C1100 C1102 1.378 . S
C1100 C1104 1.350 . S
C1101 C1104 1.463 . S
C1101 C1106 1.350 . S
C1101 N1109 1.427 . S
C1102 H1093 0.930 . S
C1102 C1100 1.378 . S
C1102 C1103 1.367 . S
C1103 C1102 1.367 . S
C1103 C1105 1.433 . S
C1104 C1100 1.350 . S
C1104 C1101 1.463 . S
C1104 N1108 1.427 . S
C1105 H1095 0.929 . S
C1105 C1103 1.433 . S
C1105 N1108 1.384 . S
C1106 H1097 0.929 . S
C1106 C1098 1.378 . S
C1106 C1101 1.350 . S
C1107 H1094 0.929 . S
C1107 C1099 1.433 . S
C1107 N1109 1.384 . S
N1108 C1104 1.427 . S
N1108 C1105 1.384 . S
N1109 C1101 1.427 . S
N1109 C1107 1.384 . S
H1110 C1116 0.930 . S
H1111 C1120 0.930 . S
H1112 C1125 0.929 . S
H1113 C1123 0.929 . S
H1114 C1118 0.929 . S
H1115 C1124 0.929 . S
C1116 H1110 0.930 . S
C1116 C1117 1.367 . S
C1116 C1124 1.378 . S
C1117 C1116 1.367 . S
C1117 C1125 1.433 . S
C1118 H1114 0.929 . S
C1118 C1120 1.378 . S
C1118 C1122 1.350 . S
C1119 C1122 1.463 . S
C1119 C1124 1.350 . S
C1119 N1127 1.427 . S
C1120 H1111 0.930 . S
C1120 C1118 1.378 . S
C1120 C1121 1.367 . S
C1121 C1120 1.367 . S
C1121 C1123 1.433 . S
C1122 C1118 1.350 . S
C1122 C1119 1.463 . S
C1122 N1126 1.427 . S
C1123 H1113 0.929 . S
C1123 C1121 1.433 . S
C1123 N1126 1.384 . S
C1124 H1115 0.929 . S
C1124 C1116 1.378 . S
C1124 C1119 1.350 . S
C1125 H1112 0.929 . S
C1125 C1117 1.433 . S
C1125 N1127 1.384 . S
N1126 C1122 1.427 . S
N1126 C1123 1.384 . S
N1127 C1119 1.427 . S
N1127 C1125 1.384 . S
H1128 C1134 0.930 . S
H1129 C1138 0.930 . S
H1130 C1143 0.929 . S
H1131 C1141 0.929 . S
H1132 C1136 0.929 . S
H1133 C1142 0.929 . S
C1134 H1128 0.930 . S
C1134 C1135 1.367 . S
C1134 C1142 1.378 . S
C1135 C1134 1.367 . S
C1135 C1143 1.433 . S
C1136 H1132 0.929 . S
C1136 C1138 1.378 . S
C1136 C1140 1.350 . S
C1137 C1140 1.463 . S
C1137 C1142 1.350 . S
C1137 N1145 1.427 . S
C1138 H1129 0.930 . S
C1138 C1136 1.378 . S
C1138 C1139 1.367 . S
C1139 C1138 1.367 . S
C1139 C1141 1.433 . S
C1140 C1136 1.350 . S
C1140 C1137 1.463 . S
C1140 N1144 1.427 . S
C1141 H1131 0.929 . S
C1141 C1139 1.433 . S
C1141 N1144 1.384 . S
C1142 H1133 0.929 . S
C1142 C1134 1.378 . S
C1142 C1137 1.350 . S
C1143 H1130 0.929 . S
C1143 C1135 1.433 . S
C1143 N1145 1.384 . S
N1144 C1140 1.427 . S
N1144 C1141 1.384 . S
N1145 C1137 1.427 . S
N1145 C1143 1.384 . S
H1146 C1152 0.930 . S
H1147 C1156 0.930 . S
H1148 C1161 0.929 . S
H1149 C1159 0.929 . S
H1150 C1154 0.929 . S
H1151 C1160 0.929 . S
C1152 H1146 0.930 . S
C1152 C1153 1.367 . S
C1152 C1160 1.378 . S
C1153 C1152 1.367 . S
C1153 C1161 1.433 . S
C1154 H1150 0.929 . S
C1154 C1156 1.378 . S
C1154 C1158 1.350 . S
C1155 C1158 1.463 . S
C1155 C1160 1.350 . S
C1155 N1163 1.427 . S
C1156 H1147 0.930 . S
C1156 C1154 1.378 . S
C1156 C1157 1.367 . S
C1157 C1156 1.367 . S
C1157 C1159 1.433 . S
C1158 C1154 1.350 . S
C1158 C1155 1.463 . S
C1158 N1162 1.427 . S
C1159 H1149 0.929 . S
C1159 C1157 1.433 . S
C1159 N1162 1.384 . S
C1160 H1151 0.929 . S
C1160 C1152 1.378 . S
C1160 C1155 1.350 . S
C1161 H1148 0.929 . S
C1161 C1153 1.433 . S
C1161 N1163 1.384 . S
N1162 C1158 1.427 . S
N1162 C1159 1.384 . S
N1163 C1155 1.427 . S
N1163 C1161 1.384 . S
H1164 C1170 0.930 . S
H1165 C1174 0.930 . S
H1166 C1179 0.929 . S
H1167 C1177 0.929 . S
H1168 C1172 0.929 . S
H1169 C1178 0.929 . S
C1170 H1164 0.930 . S
C1170 C1171 1.367 . S
C1170 C1178 1.378 . S
C1171 C1170 1.367 . S
C1171 C1179 1.433 . S
C1172 H1168 0.929 . S
C1172 C1174 1.378 . S
C1172 C1176 1.350 . S
C1173 C1176 1.463 . S
C1173 C1178 1.350 . S
C1173 N1181 1.427 . S
C1174 H1165 0.930 . S
C1174 C1172 1.378 . S
C1174 C1175 1.367 . S
C1175 C1174 1.367 . S
C1175 C1177 1.433 . S
C1176 C1172 1.350 . S
C1176 C1173 1.463 . S
C1176 N1180 1.427 . S
C1177 H1167 0.929 . S
C1177 C1175 1.433 . S
C1177 N1180 1.384 . S
C1178 H1169 0.929 . S
C1178 C1170 1.378 . S
C1178 C1173 1.350 . S
C1179 H1166 0.929 . S
C1179 C1171 1.433 . S
C1179 N1181 1.384 . S
N1180 C1176 1.427 . S
N1180 C1177 1.384 . S
N1181 C1173 1.427 . S
N1181 C1179 1.384 . S
H1182 C1188 0.930 . S
H1183 C1192 0.930 . S
H1184 C1197 0.929 . S
H1185 C1195 0.929 . S
H1186 C1190 0.929 . S
H1187 C1196 0.929 . S
C1188 H1182 0.930 . S
C1188 C1189 1.367 . S
C1188 C1196 1.378 . S
C1189 C1188 1.367 . S
C1189 C1197 1.433 . S
C1190 H1186 0.929 . S
C1190 C1192 1.378 . S
C1190 C1194 1.350 . S
C1191 C1194 1.463 . S
C1191 C1196 1.350 . S
C1191 N1199 1.427 . S
C1192 H1183 0.930 . S
C1192 C1190 1.378 . S
C1192 C1193 1.367 . S
C1193 C1192 1.367 . S
C1193 C1195 1.433 . S
C1194 C1190 1.350 . S
C1194 C1191 1.463 . S
C1194 N1198 1.427 . S
C1195 H1185 0.929 . S
C1195 C1193 1.433 . S
C1195 N1198 1.384 . S
C1196 H1187 0.929 . S
C1196 C1188 1.378 . S
C1196 C1191 1.350 . S
C1197 H1184 0.929 . S
C1197 C1189 1.433 . S
C1197 N1199 1.384 . S
N1198 C1194 1.427 . S
N1198 C1195 1.384 . S
N1199 C1191 1.427 . S
N1199 C1197 1.384 . S
H1200 C1206 0.930 . S
H1201 C1210 0.930 . S
H1202 C1215 0.929 . S
H1203 C1213 0.929 . S
H1204 C1208 0.929 . S
H1205 C1214 0.929 . S
C1206 H1200 0.930 . S
C1206 C1207 1.367 . S
C1206 C1214 1.378 . S
C1207 C1206 1.367 . S
C1207 C1215 1.433 . S
C1208 H1204 0.929 . S
C1208 C1210 1.378 . S
C1208 C1212 1.350 . S
C1209 C1212 1.463 . S
C1209 C1214 1.350 . S
C1209 N1217 1.427 . S
C1210 H1201 0.930 . S
C1210 C1208 1.378 . S
C1210 C1211 1.367 . S
C1211 C1210 1.367 . S
C1211 C1213 1.433 . S
C1212 C1208 1.350 . S
C1212 C1209 1.463 . S
C1212 N1216 1.427 . S
C1213 H1203 0.929 . S
C1213 C1211 1.433 . S
C1213 N1216 1.384 . S
C1214 H1205 0.929 . S
C1214 C1206 1.378 . S
C1214 C1209 1.350 . S
C1215 H1202 0.929 . S
C1215 C1207 1.433 . S
C1215 N1217 1.384 . S
N1216 C1212 1.427 . S
N1216 C1213 1.384 . S
N1217 C1209 1.427 . S
N1217 C1215 1.384 . S
H1218 C1224 0.930 . S
H1219 C1228 0.930 . S
H1220 C1233 0.929 . S
H1221 C1231 0.928 . S
H1222 C1226 0.929 . S
H1223 C1232 0.929 . S
C1224 H1218 0.930 . S
C1224 C1225 1.367 . S
C1224 C1232 1.378 . S
C1225 C1224 1.367 . S
C1225 C1233 1.433 . S
C1226 H1222 0.929 . S
C1226 C1228 1.378 . S
C1226 C1230 1.350 . S
C1227 C1230 1.463 . S
C1227 C1232 1.350 . S
C1227 N1235 1.427 . S
C1228 H1219 0.930 . S
C1228 C1226 1.378 . S
C1228 C1229 1.367 . S
C1229 C1228 1.367 . S
C1229 C1231 1.433 . S
C1230 C1226 1.350 . S
C1230 C1227 1.463 . S
C1230 N1234 1.427 . S
C1231 H1221 0.928 . S
C1231 C1229 1.433 . S
C1231 N1234 1.384 . S
C1232 H1223 0.929 . S
C1232 C1224 1.378 . S
C1232 C1227 1.350 . S
C1233 H1220 0.929 . S
C1233 C1225 1.433 . S
C1233 N1235 1.384 . S
N1234 C1230 1.427 . S
N1234 C1231 1.384 . S
N1235 C1227 1.427 . S
N1235 C1233 1.384 . S
H1236 C1242 0.930 . S
H1237 C1246 0.930 . S
H1238 C1251 0.929 . S
H1239 C1249 0.929 . S
H1240 C1244 0.929 . S
H1241 C1250 0.929 . S
C1242 H1236 0.930 . S
C1242 C1243 1.367 . S
C1242 C1250 1.378 . S
C1243 C1242 1.367 . S
C1243 C1251 1.433 . S
C1244 H1240 0.929 . S
C1244 C1246 1.378 . S
C1244 C1248 1.350 . S
C1245 C1248 1.463 . S
C1245 C1250 1.350 . S
C1245 N1253 1.427 . S
C1246 H1237 0.930 . S
C1246 C1244 1.378 . S
C1246 C1247 1.367 . S
C1247 C1246 1.367 . S
C1247 C1249 1.433 . S
C1248 C1244 1.350 . S
C1248 C1245 1.463 . S
C1248 N1252 1.427 . S
C1249 H1239 0.929 . S
C1249 C1247 1.433 . S
C1249 N1252 1.384 . S
C1250 H1241 0.929 . S
C1250 C1242 1.378 . S
C1250 C1245 1.350 . S
C1251 H1238 0.929 . S
C1251 C1243 1.433 . S
C1251 N1253 1.384 . S
N1252 C1248 1.427 . S
N1252 C1249 1.384 . S
N1253 C1245 1.427 . S
N1253 C1251 1.384 . S
H1254 C1260 0.930 . S
H1255 C1264 0.930 . S
H1256 C1269 0.929 . S
H1257 C1267 0.929 . S
H1258 C1262 0.929 . S
H1259 C1268 0.929 . S
C1260 H1254 0.930 . S
C1260 C1261 1.367 . S
C1260 C1268 1.378 . S
C1261 C1260 1.367 . S
C1261 C1269 1.433 . S
C1262 H1258 0.929 . S
C1262 C1264 1.378 . S
C1262 C1266 1.350 . S
C1263 C1266 1.463 . S
C1263 C1268 1.350 . S
C1263 N1271 1.427 . S
C1264 H1255 0.930 . S
C1264 C1262 1.378 . S
C1264 C1265 1.367 . S
C1265 C1264 1.367 . S
C1265 C1267 1.433 . S
C1266 C1262 1.350 . S
C1266 C1263 1.463 . S
C1266 N1270 1.427 . S
C1267 H1257 0.929 . S
C1267 C1265 1.433 . S
C1267 N1270 1.384 . S
C1268 H1259 0.929 . S
C1268 C1260 1.378 . S
C1268 C1263 1.350 . S
C1269 H1256 0.929 . S
C1269 C1261 1.433 . S
C1269 N1271 1.384 . S
N1270 C1266 1.427 . S
N1270 C1267 1.384 . S
N1271 C1263 1.427 . S
N1271 C1269 1.384 . S
H1272 C1278 0.930 . S
H1273 C1282 0.930 . S
H1274 C1287 0.929 . S
H1275 C1285 0.929 . S
H1276 C1280 0.929 . S
H1277 C1286 0.929 . S
C1278 H1272 0.930 . S
C1278 C1279 1.367 . S
C1278 C1286 1.378 . S
C1279 C1278 1.367 . S
C1279 C1287 1.433 . S
C1280 H1276 0.929 . S
C1280 C1282 1.378 . S
C1280 C1284 1.350 . S
C1281 C1284 1.463 . S
C1281 C1286 1.350 . S
C1281 N1289 1.427 . S
C1282 H1273 0.930 . S
C1282 C1280 1.378 . S
C1282 C1283 1.367 . S
C1283 C1282 1.367 . S
C1283 C1285 1.433 . S
C1284 C1280 1.350 . S
C1284 C1281 1.463 . S
C1284 N1288 1.427 . S
C1285 H1275 0.929 . S
C1285 C1283 1.433 . S
C1285 N1288 1.384 . S
C1286 H1277 0.929 . S
C1286 C1278 1.378 . S
C1286 C1281 1.350 . S
C1287 H1274 0.929 . S
C1287 C1279 1.433 . S
C1287 N1289 1.384 . S
N1288 C1284 1.427 . S
N1288 C1285 1.384 . S
N1289 C1281 1.427 . S
N1289 C1287 1.384 . S
H1290 C1296 0.941 . S
H1291 C1300 0.930 . S
H1292 C1305 0.929 . S
H1293 C1303 0.929 . S
H1294 C1298 0.929 . S
H1295 C1304 0.929 . S
C1296 H1290 0.941 . S
C1296 C1297 1.367 . S
C1296 C1304 1.378 . S
C1297 C1296 1.367 . S
C1297 C1305 1.433 . S
C1298 H1294 0.929 . S
C1298 C1300 1.378 . S
C1298 C1302 1.350 . S
C1299 C1302 1.463 . S
C1299 C1304 1.350 . S
C1299 N1307 1.427 . S
C1300 H1291 0.930 . S
C1300 C1298 1.378 . S
C1300 C1301 1.367 . S
C1301 C1300 1.367 . S
C1301 C1303 1.433 . S
C1302 C1298 1.350 . S
C1302 C1299 1.463 . S
C1302 N1306 1.427 . S
C1303 H1293 0.929 . S
C1303 C1301 1.433 . S
C1303 N1306 1.384 . S
C1304 H1295 0.929 . S
C1304 C1296 1.378 . S
C1304 C1299 1.350 . S
C1305 H1292 0.929 . S
C1305 C1297 1.433 . S
C1305 N1307 1.384 . S
N1306 C1302 1.427 . S
N1306 C1303 1.384 . S
N1307 C1299 1.427 . S
N1307 C1305 1.384 . S
H1308 C1314 0.930 . S
H1309 C1318 0.930 . S
H1310 C1323 0.929 . S
H1311 C1321 0.929 . S
H1312 C1316 0.929 . S
H1313 C1322 0.929 . S
C1314 H1308 0.930 . S
C1314 C1315 1.367 . S
C1314 C1322 1.378 . S
C1315 C1314 1.367 . S
C1315 C1323 1.433 . S
C1316 H1312 0.929 . S
C1316 C1318 1.378 . S
C1316 C1320 1.350 . S
C1317 C1320 1.463 . S
C1317 C1322 1.350 . S
C1317 N1325 1.427 . S
C1318 H1309 0.930 . S
C1318 C1316 1.378 . S
C1318 C1319 1.367 . S
C1319 C1318 1.367 . S
C1319 C1321 1.433 . S
C1320 C1316 1.350 . S
C1320 C1317 1.463 . S
C1320 N1324 1.427 . S
C1321 H1311 0.929 . S
C1321 C1319 1.433 . S
C1321 N1324 1.384 . S
C1322 H1313 0.929 . S
C1322 C1314 1.378 . S
C1322 C1317 1.350 . S
C1323 H1310 0.929 . S
C1323 C1315 1.433 . S
C1323 N1325 1.384 . S
N1324 C1320 1.427 . S
N1324 C1321 1.384 . S
N1325 C1317 1.427 . S
N1325 C1323 1.384 . S
H1326 C1332 0.930 . S
H1327 C1336 0.930 . S
H1328 C1341 0.929 . S
H1329 C1339 0.929 . S
H1330 C1334 0.929 . S
H1331 C1340 0.929 . S
C1332 H1326 0.930 . S
C1332 C1333 1.367 . S
C1332 C1340 1.378 . S
C1333 C1332 1.367 . S
C1333 C1341 1.433 . S
C1334 H1330 0.929 . S
C1334 C1336 1.378 . S
C1334 C1338 1.350 . S
C1335 C1338 1.463 . S
C1335 C1340 1.350 . S
C1335 N1343 1.427 . S
C1336 H1327 0.930 . S
C1336 C1334 1.378 . S
C1336 C1337 1.367 . S
C1337 C1336 1.367 . S
C1337 C1339 1.433 . S
C1338 C1334 1.350 . S
C1338 C1335 1.463 . S
C1338 N1342 1.427 . S
C1339 H1329 0.929 . S
C1339 C1337 1.433 . S
C1339 N1342 1.384 . S
C1340 H1331 0.929 . S
C1340 C1332 1.378 . S
C1340 C1335 1.350 . S
C1341 H1328 0.929 . S
C1341 C1333 1.433 . S
C1341 N1343 1.384 . S
N1342 C1338 1.427 . S
N1342 C1339 1.384 . S
N1343 C1335 1.427 . S
N1343 C1341 1.384 . S
H1344 C1350 0.930 . S
H1345 C1354 0.930 . S
H1346 C1359 0.929 . S
H1347 C1357 0.929 . S
H1348 C1352 0.929 . S
H1349 C1358 0.929 . S
C1350 H1344 0.930 . S
C1350 C1351 1.367 . S
C1350 C1358 1.378 . S
C1351 C1350 1.367 . S
C1351 C1359 1.433 . S
C1352 H1348 0.929 . S
C1352 C1354 1.378 . S
C1352 C1356 1.350 . S
C1353 C1356 1.463 . S
C1353 C1358 1.350 . S
C1353 N1361 1.427 . S
C1354 H1345 0.930 . S
C1354 C1352 1.378 . S
C1354 C1355 1.367 . S
C1355 C1354 1.367 . S
C1355 C1357 1.433 . S
C1356 C1352 1.350 . S
C1356 C1353 1.463 . S
C1356 N1360 1.427 . S
C1357 H1347 0.929 . S
C1357 C1355 1.433 . S
C1357 N1360 1.384 . S
C1358 H1349 0.929 . S
C1358 C1350 1.378 . S
C1358 C1353 1.350 . S
C1359 H1346 0.929 . S
C1359 C1351 1.433 . S
C1359 N1361 1.384 . S
N1360 C1356 1.427 . S
N1360 C1357 1.384 . S
N1361 C1353 1.427 . S
N1361 C1359 1.384 . S
H1362 C1368 0.930 . S
H1363 C1372 0.930 . S
H1364 C1377 0.929 . S
H1365 C1375 0.929 . S
H1366 C1370 0.929 . S
H1367 C1376 0.929 . S
C1368 H1362 0.930 . S
C1368 C1369 1.367 . S
C1368 C1376 1.378 . S
C1369 C1368 1.367 . S
C1369 C1377 1.433 . S
C1370 H1366 0.929 . S
C1370 C1372 1.378 . S
C1370 C1374 1.350 . S
C1371 C1374 1.463 . S
C1371 C1376 1.350 . S
C1371 N1379 1.427 . S
C1372 H1363 0.930 . S
C1372 C1370 1.378 . S
C1372 C1373 1.367 . S
C1373 C1372 1.367 . S
C1373 C1375 1.433 . S
C1374 C1370 1.350 . S
C1374 C1371 1.463 . S
C1374 N1378 1.427 . S
C1375 H1365 0.929 . S
C1375 C1373 1.433 . S
C1375 N1378 1.384 . S
C1376 H1367 0.929 . S
C1376 C1368 1.378 . S
C1376 C1371 1.350 . S
C1377 H1364 0.929 . S
C1377 C1369 1.433 . S
C1377 N1379 1.384 . S
N1378 C1374 1.427 . S
N1378 C1375 1.384 . S
N1379 C1371 1.427 . S
N1379 C1377 1.384 . S
H1380 C1386 0.931 1_556 S
H1381 C1390 0.930 . S
H1382 C1395 0.929 . S
H1383 C1393 0.929 . S
H1384 C1388 0.929 . S
H1385 C1394 0.929 . S
C1386 H1380 0.931 1_554 S
C1386 C1387 1.367 . S
C1386 C1394 1.378 . S
C1387 C1386 1.367 . S
C1387 C1395 1.433 . S
C1388 H1384 0.929 . S
C1388 C1390 1.378 . S
C1388 C1392 1.350 . S
C1389 C1392 1.463 . S
C1389 C1394 1.350 . S
C1389 N1397 1.427 . S
C1390 H1381 0.930 . S
C1390 C1388 1.378 . S
C1390 C1391 1.367 . S
C1391 C1390 1.367 . S
C1391 C1393 1.433 . S
C1392 C1388 1.350 . S
C1392 C1389 1.463 . S
C1392 N1396 1.427 . S
C1393 H1383 0.929 . S
C1393 C1391 1.433 . S
C1393 N1396 1.384 . S
C1394 H1385 0.929 . S
C1394 C1386 1.378 . S
C1394 C1389 1.350 . S
C1395 H1382 0.929 . S
C1395 C1387 1.433 . S
C1395 N1397 1.384 . S
N1396 C1392 1.427 . S
N1396 C1393 1.384 . S
N1397 C1389 1.427 . S
N1397 C1395 1.384 . S
H1398 C1404 0.930 . S
H1399 C1408 0.930 . S
H1400 C1413 0.929 . S
H1401 C1411 0.929 . S
H1402 C1406 0.929 . S
H1403 C1412 0.929 . S
C1404 H1398 0.930 . S
C1404 C1405 1.367 . S
C1404 C1412 1.378 . S
C1405 C1404 1.367 . S
C1405 C1413 1.433 . S
C1406 H1402 0.929 . S
C1406 C1408 1.378 . S
C1406 C1410 1.350 . S
C1407 C1410 1.463 . S
C1407 C1412 1.350 . S
C1407 N1415 1.427 . S
C1408 H1399 0.930 . S
C1408 C1406 1.378 . S
C1408 C1409 1.367 . S
C1409 C1408 1.367 . S
C1409 C1411 1.433 . S
C1410 C1406 1.350 . S
C1410 C1407 1.463 . S
C1410 N1414 1.427 . S
C1411 H1401 0.929 . S
C1411 C1409 1.433 . S
C1411 N1414 1.384 . S
C1412 H1403 0.929 . S
C1412 C1404 1.378 . S
C1412 C1407 1.350 . S
C1413 H1400 0.929 . S
C1413 C1405 1.433 . S
C1413 N1415 1.384 . S
N1414 C1410 1.427 . S
N1414 C1411 1.384 . S
N1415 C1407 1.427 . S
N1415 C1413 1.384 . S
H1416 C1422 0.930 . S
H1417 C1426 0.930 . S
H1418 C1431 0.929 . S
H1419 C1429 0.929 . S
H1420 C1424 0.929 . S
H1421 C1430 0.929 . S
C1422 H1416 0.930 . S
C1422 C1423 1.367 . S
C1422 C1430 1.378 . S
C1423 C1422 1.367 . S
C1423 C1431 1.433 . S
C1424 H1420 0.929 . S
C1424 C1426 1.378 . S
C1424 C1428 1.350 . S
C1425 C1428 1.463 . S
C1425 C1430 1.350 . S
C1425 N1433 1.427 . S
C1426 H1417 0.930 . S
C1426 C1424 1.378 . S
C1426 C1427 1.367 . S
C1427 C1426 1.367 . S
C1427 C1429 1.433 . S
C1428 C1424 1.350 . S
C1428 C1425 1.463 . S
C1428 N1432 1.427 . S
C1429 H1419 0.929 . S
C1429 C1427 1.433 . S
C1429 N1432 1.384 . S
C1430 H1421 0.929 . S
C1430 C1422 1.378 . S
C1430 C1425 1.350 . S
C1431 H1418 0.929 . S
C1431 C1423 1.433 . S
C1431 N1433 1.384 . S
N1432 C1428 1.427 . S
N1432 C1429 1.384 . S
N1433 C1425 1.427 . S
N1433 C1431 1.384 . S
H1434 C1440 0.930 . S
H1435 C1444 0.930 . S
H1436 C1449 0.929 . S
H1437 C1447 0.929 . S
H1438 C1442 0.929 . S
H1439 C1448 0.929 . S
C1440 H1434 0.930 . S
C1440 C1441 1.367 . S
C1440 C1448 1.378 . S
C1441 C1440 1.367 . S
C1441 C1449 1.433 . S
C1442 H1438 0.929 . S
C1442 C1444 1.378 . S
C1442 C1446 1.350 . S
C1443 C1446 1.463 . S
C1443 C1448 1.350 . S
C1443 N1451 1.427 . S
C1444 H1435 0.930 . S
C1444 C1442 1.378 . S
C1444 C1445 1.367 . S
C1445 C1444 1.367 . S
C1445 C1447 1.433 . S
C1446 C1442 1.350 . S
C1446 C1443 1.463 . S
C1446 N1450 1.427 . S
C1447 H1437 0.929 . S
C1447 C1445 1.433 . S
C1447 N1450 1.384 . S
C1448 H1439 0.929 . S
C1448 C1440 1.378 . S
C1448 C1443 1.350 . S
C1449 H1436 0.929 . S
C1449 C1441 1.433 . S
C1449 N1451 1.384 . S
N1450 C1446 1.427 . S
N1450 C1447 1.384 . S
N1451 C1443 1.427 . S
N1451 C1449 1.384 . S
H1452 C1458 0.930 . S
H1453 C1462 0.930 . S
H1454 C1467 0.929 . S
H1455 C1465 0.929 . S
H1456 C1460 0.929 . S
H1457 C1466 0.929 . S
C1458 H1452 0.930 . S
C1458 C1459 1.367 . S
C1458 C1466 1.378 . S
C1459 C1458 1.367 . S
C1459 C1467 1.433 . S
C1460 H1456 0.929 . S
C1460 C1462 1.378 . S
C1460 C1464 1.350 . S
C1461 C1464 1.463 . S
C1461 C1466 1.350 . S
C1461 N1469 1.427 . S
C1462 H1453 0.930 . S
C1462 C1460 1.378 . S
C1462 C1463 1.367 . S
C1463 C1462 1.367 . S
C1463 C1465 1.433 . S
C1464 C1460 1.350 . S
C1464 C1461 1.463 . S
C1464 N1468 1.427 . S
C1465 H1455 0.929 . S
C1465 C1463 1.433 . S
C1465 N1468 1.384 . S
C1466 H1457 0.929 . S
C1466 C1458 1.378 . S
C1466 C1461 1.350 . S
C1467 H1454 0.929 . S
C1467 C1459 1.433 . S
C1467 N1469 1.384 . S
N1468 C1464 1.427 . S
N1468 C1465 1.384 . S
N1469 C1461 1.427 . S
N1469 C1467 1.384 . S
H1470 C1476 0.930 . S
H1471 C1480 0.930 . S
H1472 C1485 0.929 . S
H1473 C1483 0.929 . S
H1474 C1478 0.929 . S
H1475 C1484 0.929 . S
C1476 H1470 0.930 . S
C1476 C1477 1.367 . S
C1476 C1484 1.378 . S
C1477 C1476 1.367 . S
C1477 C1485 1.433 . S
C1478 H1474 0.929 . S
C1478 C1480 1.378 . S
C1478 C1482 1.350 . S
C1479 C1482 1.463 . S
C1479 C1484 1.350 . S
C1479 N1487 1.427 . S
C1480 H1471 0.930 . S
C1480 C1478 1.378 . S
C1480 C1481 1.367 . S
C1481 C1480 1.367 . S
C1481 C1483 1.433 . S
C1482 C1478 1.350 . S
C1482 C1479 1.463 . S
C1482 N1486 1.427 . S
C1483 H1473 0.929 . S
C1483 C1481 1.433 . S
C1483 N1486 1.384 . S
C1484 H1475 0.929 . S
C1484 C1476 1.378 . S
C1484 C1479 1.350 . S
C1485 H1472 0.929 . S
C1485 C1477 1.433 . S
C1485 N1487 1.384 . S
N1486 C1482 1.427 . S
N1486 C1483 1.384 . S
N1487 C1479 1.427 . S
N1487 C1485 1.384 . S
H1488 C1494 0.936 . S
H1489 C1498 0.930 . S
H1490 C1503 0.929 . S
H1491 C1501 0.929 . S
H1492 C1496 0.929 . S
H1493 C1502 0.929 . S
C1494 H1488 0.936 . S
C1494 C1495 1.367 . S
C1494 C1502 1.378 . S
C1495 C1494 1.367 . S
C1495 C1503 1.433 . S
C1496 H1492 0.929 . S
C1496 C1498 1.378 . S
C1496 C1500 1.350 . S
C1497 C1500 1.463 . S
C1497 C1502 1.350 . S
C1497 N1505 1.427 . S
C1498 H1489 0.930 . S
C1498 C1496 1.378 . S
C1498 C1499 1.367 . S
C1499 C1498 1.367 . S
C1499 C1501 1.433 . S
C1500 C1496 1.350 . S
C1500 C1497 1.463 . S
C1500 N1504 1.427 . S
C1501 H1491 0.929 . S
C1501 C1499 1.433 . S
C1501 N1504 1.384 . S
C1502 H1493 0.929 . S
C1502 C1494 1.378 . S
C1502 C1497 1.350 . S
C1503 H1490 0.929 . S
C1503 C1495 1.433 . S
C1503 N1505 1.384 . S
N1504 C1500 1.427 . S
N1504 C1501 1.384 . S
N1505 C1497 1.427 . S
N1505 C1503 1.384 . S
H1506 C1512 0.930 . S
H1507 C1516 0.930 . S
H1508 C1521 0.929 . S
H1509 C1519 0.929 . S
H1510 C1514 0.929 . S
H1511 C1520 0.929 . S
C1512 H1506 0.930 . S
C1512 C1513 1.367 . S
C1512 C1520 1.378 . S
C1513 C1512 1.367 . S
C1513 C1521 1.433 . S
C1514 H1510 0.929 . S
C1514 C1516 1.378 . S
C1514 C1518 1.350 . S
C1515 C1518 1.463 . S
C1515 C1520 1.350 . S
C1515 N1523 1.427 . S
C1516 H1507 0.930 . S
C1516 C1514 1.378 . S
C1516 C1517 1.367 . S
C1517 C1516 1.367 . S
C1517 C1519 1.433 . S
C1518 C1514 1.350 . S
C1518 C1515 1.463 . S
C1518 N1522 1.427 . S
C1519 H1509 0.929 . S
C1519 C1517 1.433 . S
C1519 N1522 1.384 . S
C1520 H1511 0.929 . S
C1520 C1512 1.378 . S
C1520 C1515 1.350 . S
C1521 H1508 0.929 . S
C1521 C1513 1.433 . S
C1521 N1523 1.384 . S
N1522 C1518 1.427 . S
N1522 C1519 1.384 . S
N1523 C1515 1.427 . S
N1523 C1521 1.384 . S
H1524 C1530 0.930 . S
H1525 C1534 0.930 . S
H1526 C1539 0.929 . S
H1527 C1537 0.929 . S
H1528 C1532 0.929 . S
H1529 C1538 0.929 . S
C1530 H1524 0.930 . S
C1530 C1531 1.367 . S
C1530 C1538 1.378 . S
C1531 C1530 1.367 . S
C1531 C1539 1.433 . S
C1532 H1528 0.929 . S
C1532 C1534 1.378 . S
C1532 C1536 1.350 . S
C1533 C1536 1.463 . S
C1533 C1538 1.350 . S
C1533 N1541 1.427 . S
C1534 H1525 0.930 . S
C1534 C1532 1.378 . S
C1534 C1535 1.367 . S
C1535 C1534 1.367 . S
C1535 C1537 1.433 . S
C1536 C1532 1.350 . S
C1536 C1533 1.463 . S
C1536 N1540 1.427 . S
C1537 H1527 0.929 . S
C1537 C1535 1.433 . S
C1537 N1540 1.384 . S
C1538 H1529 0.929 . S
C1538 C1530 1.378 . S
C1538 C1533 1.350 . S
C1539 H1526 0.929 . S
C1539 C1531 1.433 . S
C1539 N1541 1.384 . S
N1540 C1536 1.427 . S
N1540 C1537 1.384 . S
N1541 C1533 1.427 . S
N1541 C1539 1.384 . S
H1542 C1548 0.930 . S
H1543 C1552 0.930 . S
H1544 C1557 0.929 . S
H1545 C1555 0.933 . S
H1546 C1550 0.929 . S
H1547 C1556 0.929 . S
C1548 H1542 0.930 . S
C1548 C1549 1.367 . S
C1548 C1556 1.378 . S
C1549 C1548 1.367 . S
C1549 C1557 1.433 . S
C1550 H1546 0.929 . S
C1550 C1552 1.378 . S
C1550 C1554 1.350 . S
C1551 C1554 1.463 . S
C1551 C1556 1.350 . S
C1551 N1559 1.427 . S
C1552 H1543 0.930 . S
C1552 C1550 1.378 . S
C1552 C1553 1.367 . S
C1553 C1552 1.367 . S
C1553 C1555 1.433 . S
C1554 C1550 1.350 . S
C1554 C1551 1.463 . S
C1554 N1558 1.427 . S
C1555 H1545 0.933 . S
C1555 C1553 1.433 . S
C1555 N1558 1.384 . S
C1556 H1547 0.929 . S
C1556 C1548 1.378 . S
C1556 C1551 1.350 . S
C1557 H1544 0.929 . S
C1557 C1549 1.433 . S
C1557 N1559 1.384 . S
N1558 C1554 1.427 . S
N1558 C1555 1.384 . S
N1559 C1551 1.427 . S
N1559 C1557 1.384 . S
H1560 C1566 0.930 . S
H1561 C1570 0.930 . S
H1562 C1575 0.929 . S
H1563 C1573 0.929 . S
H1564 C1568 0.929 . S
H1565 C1574 0.929 . S
C1566 H1560 0.930 . S
C1566 C1567 1.367 . S
C1566 C1574 1.378 . S
C1567 C1566 1.367 . S
C1567 C1575 1.433 . S
C1568 H1564 0.929 . S
C1568 C1570 1.378 . S
C1568 C1572 1.350 . S
C1569 C1572 1.463 . S
C1569 C1574 1.350 . S
C1569 N1577 1.427 . S
C1570 H1561 0.930 . S
C1570 C1568 1.378 . S
C1570 C1571 1.367 . S
C1571 C1570 1.367 . S
C1571 C1573 1.433 . S
C1572 C1568 1.350 . S
C1572 C1569 1.463 . S
C1572 N1576 1.427 . S
C1573 H1563 0.929 . S
C1573 C1571 1.433 . S
C1573 N1576 1.384 . S
C1574 H1565 0.929 . S
C1574 C1566 1.378 . S
C1574 C1569 1.350 . S
C1575 H1562 0.929 . S
C1575 C1567 1.433 . S
C1575 N1577 1.384 . S
N1576 C1572 1.427 . S
N1576 C1573 1.384 . S
N1577 C1569 1.427 . S
N1577 C1575 1.384 . S
H1578 C1584 0.930 . S
H1579 C1588 0.930 . S
H1580 C1593 0.929 . S
H1581 C1591 0.929 . S
H1582 C1586 0.929 . S
H1583 C1592 0.929 . S
C1584 H1578 0.930 . S
C1584 C1585 1.367 . S
C1584 C1592 1.378 . S
C1585 C1584 1.367 . S
C1585 C1593 1.433 . S
C1586 H1582 0.929 . S
C1586 C1588 1.378 . S
C1586 C1590 1.350 . S
C1587 C1590 1.463 . S
C1587 C1592 1.350 . S
C1587 N1595 1.427 . S
C1588 H1579 0.930 . S
C1588 C1586 1.378 . S
C1588 C1589 1.367 . S
C1589 C1588 1.367 . S
C1589 C1591 1.433 . S
C1590 C1586 1.350 . S
C1590 C1587 1.463 . S
C1590 N1594 1.427 . S
C1591 H1581 0.929 . S
C1591 C1589 1.433 . S
C1591 N1594 1.384 . S
C1592 H1583 0.929 . S
C1592 C1584 1.378 . S
C1592 C1587 1.350 . S
C1593 H1580 0.929 . S
C1593 C1585 1.433 . S
C1593 N1595 1.384 . S
N1594 C1590 1.427 . S
N1594 C1591 1.384 . S
N1595 C1587 1.427 . S
N1595 C1593 1.384 . S
H1596 C1602 0.930 . S
H1597 C1606 0.930 . S
H1598 C1611 0.929 . S
H1599 C1609 0.929 . S
H1600 C1604 0.929 . S
H1601 C1610 0.929 . S
C1602 H1596 0.930 . S
C1602 C1603 1.367 . S
C1602 C1610 1.378 . S
C1603 C1602 1.367 . S
C1603 C1611 1.433 . S
C1604 H1600 0.929 . S
C1604 C1606 1.378 . S
C1604 C1608 1.350 . S
C1605 C1608 1.463 . S
C1605 C1610 1.350 . S
C1605 N1613 1.427 . S
C1606 H1597 0.930 . S
C1606 C1604 1.378 . S
C1606 C1607 1.367 . S
C1607 C1606 1.367 . S
C1607 C1609 1.433 . S
C1608 C1604 1.350 . S
C1608 C1605 1.463 . S
C1608 N1612 1.427 . S
C1609 H1599 0.929 . S
C1609 C1607 1.433 . S
C1609 N1612 1.384 . S
C1610 H1601 0.929 . S
C1610 C1602 1.378 . S
C1610 C1605 1.350 . S
C1611 H1598 0.929 . S
C1611 C1603 1.433 . S
C1611 N1613 1.384 . S
N1612 C1608 1.427 . S
N1612 C1609 1.384 . S
N1613 C1605 1.427 . S
N1613 C1611 1.384 . S
H1614 C1620 0.930 . S
H1615 C1624 0.930 . S
H1616 C1629 0.929 . S
H1617 C1627 0.929 . S
H1618 C1622 0.929 . S
H1619 C1628 0.929 . S
C1620 H1614 0.930 . S
C1620 C1621 1.367 . S
C1620 C1628 1.378 . S
C1621 C1620 1.367 . S
C1621 C1629 1.433 . S
C1622 H1618 0.929 . S
C1622 C1624 1.378 . S
C1622 C1626 1.350 . S
C1623 C1626 1.463 . S
C1623 C1628 1.350 . S
C1623 N1631 1.427 . S
C1624 H1615 0.930 . S
C1624 C1622 1.378 . S
C1624 C1625 1.367 . S
C1625 C1624 1.367 . S
C1625 C1627 1.433 . S
C1626 C1622 1.350 . S
C1626 C1623 1.463 . S
C1626 N1630 1.427 . S
C1627 H1617 0.929 . S
C1627 C1625 1.433 . S
C1627 N1630 1.384 . S
C1628 H1619 0.929 . S
C1628 C1620 1.378 . S
C1628 C1623 1.350 . S
C1629 H1616 0.929 . S
C1629 C1621 1.433 . S
C1629 N1631 1.384 . S
N1630 C1626 1.427 . S
N1630 C1627 1.384 . S
N1631 C1623 1.427 . S
N1631 C1629 1.384 . S
H1632 C1638 0.930 . S
H1633 C1642 0.930 . S
H1634 C1647 0.929 . S
H1635 C1645 0.929 . S
H1636 C1640 0.929 . S
H1637 C1646 0.929 . S
C1638 H1632 0.930 . S
C1638 C1639 1.367 . S
C1638 C1646 1.378 . S
C1639 C1638 1.367 . S
C1639 C1647 1.433 . S
C1640 H1636 0.929 . S
C1640 C1642 1.378 . S
C1640 C1644 1.350 . S
C1641 C1644 1.463 . S
C1641 C1646 1.350 . S
C1641 N1649 1.427 . S
C1642 H1633 0.930 . S
C1642 C1640 1.378 . S
C1642 C1643 1.367 . S
C1643 C1642 1.367 . S
C1643 C1645 1.433 . S
C1644 C1640 1.350 . S
C1644 C1641 1.463 . S
C1644 N1648 1.427 . S
C1645 H1635 0.929 . S
C1645 C1643 1.433 . S
C1645 N1648 1.384 . S
C1646 H1637 0.929 . S
C1646 C1638 1.378 . S
C1646 C1641 1.350 . S
C1647 H1634 0.929 . S
C1647 C1639 1.433 . S
C1647 N1649 1.384 . S
N1648 C1644 1.427 . S
N1648 C1645 1.384 . S
N1649 C1641 1.427 . S
N1649 C1647 1.384 . S
H1650 C1656 0.930 . S
H1651 C1660 0.930 . S
H1652 C1665 0.929 . S
H1653 C1663 0.929 . S
H1654 C1658 0.929 . S
H1655 C1664 0.929 . S
C1656 H1650 0.930 . S
C1656 C1657 1.367 . S
C1656 C1664 1.378 . S
C1657 C1656 1.367 . S
C1657 C1665 1.433 . S
C1658 H1654 0.929 . S
C1658 C1660 1.378 . S
C1658 C1662 1.350 . S
C1659 C1662 1.463 1_565 S
C1659 C1664 1.350 . S
C1659 N1667 1.427 . S
C1660 H1651 0.930 . S
C1660 C1658 1.378 . S
C1660 C1661 1.367 . S
C1661 C1660 1.367 . S
C1661 C1663 1.433 . S
C1662 C1658 1.350 . S
C1662 C1659 1.463 1_545 S
C1662 N1666 1.427 . S
C1663 H1653 0.929 . S
C1663 C1661 1.433 . S
C1663 N1666 1.384 . S
C1664 H1655 0.929 . S
C1664 C1656 1.378 . S
C1664 C1659 1.350 . S
C1665 H1652 0.929 . S
C1665 C1657 1.433 . S
C1665 N1667 1.384 . S
N1666 C1662 1.427 . S
N1666 C1663 1.384 . S
N1667 C1659 1.427 . S
N1667 C1665 1.384 . S
H1668 C1674 0.930 . S
H1669 C1678 0.930 . S
H1670 C1683 0.929 . S
H1671 C1681 0.929 . S
H1672 C1676 0.929 1_554 S
H1673 C1682 0.929 1_556 S
C1674 H1668 0.930 . S
C1674 C1675 1.367 . S
C1674 C1682 1.378 . S
C1675 C1674 1.367 . S
C1675 C1683 1.433 . S
C1676 H1672 0.929 1_556 S
C1676 C1678 1.378 . S
C1676 C1680 1.350 . S
C1677 C1680 1.463 1_554 S
C1677 C1682 1.350 . S
C1677 N1685 1.427 . S
C1678 H1669 0.930 . S
C1678 C1676 1.378 . S
C1678 C1679 1.367 . S
C1679 C1678 1.367 . S
C1679 C1681 1.433 . S
C1680 C1676 1.350 . S
C1680 C1677 1.463 1_556 S
C1680 N1684 1.427 . S
C1681 H1671 0.929 . S
C1681 C1679 1.433 . S
C1681 N1684 1.384 . S
C1682 H1673 0.929 1_554 S
C1682 C1674 1.378 . S
C1682 C1677 1.350 . S
C1683 H1670 0.929 . S
C1683 C1675 1.433 . S
C1683 N1685 1.384 . S
N1684 C1680 1.427 . S
N1684 C1681 1.384 . S
N1685 C1677 1.427 . S
N1685 C1683 1.384 . S
H1686 C1692 0.930 . S
H1687 C1696 0.930 . S
H1688 C1701 0.929 . S
H1689 C1699 0.929 . S
H1690 C1694 0.929 1_565 S
H1691 C1700 0.929 1_545 S
C1692 H1686 0.930 . S
C1692 C1693 1.367 . S
C1692 C1700 1.378 . S
C1693 C1692 1.367 . S
C1693 C1701 1.433 . S
C1694 H1690 0.929 1_545 S
C1694 C1696 1.378 . S
C1694 C1698 1.350 . S
C1695 C1698 1.463 1_565 S
C1695 C1700 1.350 . S
C1695 N1703 1.427 . S
C1696 H1687 0.930 . S
C1696 C1694 1.378 . S
C1696 C1697 1.367 . S
C1697 C1696 1.367 . S
C1697 C1699 1.433 . S
C1698 C1694 1.350 . S
C1698 C1695 1.463 1_545 S
C1698 N1702 1.427 . S
C1699 H1689 0.929 . S
C1699 C1697 1.433 . S
C1699 N1702 1.384 . S
C1700 H1691 0.929 1_565 S
C1700 C1692 1.378 . S
C1700 C1695 1.350 . S
C1701 H1688 0.929 . S
C1701 C1693 1.433 . S
C1701 N1703 1.384 . S
N1702 C1698 1.427 . S
N1702 C1699 1.384 . S
N1703 C1695 1.427 . S
N1703 C1701 1.384 . S
H1704 C1710 0.930 . S
H1705 C1714 0.930 . S
H1706 C1719 0.929 . S
H1707 C1717 0.929 . S
H1708 C1712 0.929 . S
H1709 C1718 0.929 . S
C1710 H1704 0.930 . S
C1710 C1711 1.367 . S
C1710 C1718 1.378 . S
C1711 C1710 1.367 . S
C1711 C1719 1.433 . S
C1712 H1708 0.929 . S
C1712 C1714 1.378 . S
C1712 C1716 1.350 . S
C1713 C1716 1.463 . S
C1713 C1718 1.350 . S
C1713 N1721 1.427 . S
C1714 H1705 0.930 . S
C1714 C1712 1.378 . S
C1714 C1715 1.367 . S
C1715 C1714 1.367 . S
C1715 C1717 1.433 . S
C1716 C1712 1.350 . S
C1716 C1713 1.463 . S
C1716 N1720 1.427 . S
C1717 H1707 0.929 . S
C1717 C1715 1.433 . S
C1717 N1720 1.384 . S
C1718 H1709 0.929 . S
C1718 C1710 1.378 . S
C1718 C1713 1.350 . S
C1719 H1706 0.929 . S
C1719 C1711 1.433 . S
C1719 N1721 1.384 . S
N1720 C1716 1.427 . S
N1720 C1717 1.384 . S
N1721 C1713 1.427 . S
N1721 C1719 1.384 . S
H1722 C1728 0.930 . S
H1723 C1732 0.930 . S
H1724 C1737 0.929 . S
H1725 C1735 0.929 . S
H1726 C1730 0.902 1_565 S
H1727 C1736 0.902 1_545 S
C1728 H1722 0.930 . S
C1728 C1729 1.367 . S
C1728 C1736 1.378 . S
C1729 C1728 1.367 . S
C1729 C1737 1.433 . S
C1730 H1726 0.902 1_545 S
C1730 C1732 1.378 . S
C1730 C1734 1.350 . S
C1731 C1734 1.463 1_565 S
C1731 C1736 1.350 . S
C1731 N1739 1.427 . S
C1732 H1723 0.930 . S
C1732 C1730 1.378 . S
C1732 C1733 1.367 . S
C1733 C1732 1.367 . S
C1733 C1735 1.433 . S
C1734 C1730 1.350 . S
C1734 C1731 1.463 1_545 S
C1734 N1738 1.427 . S
C1735 H1725 0.929 . S
C1735 C1733 1.433 . S
C1735 N1738 1.384 . S
C1736 H1727 0.902 1_565 S
C1736 C1728 1.378 . S
C1736 C1731 1.350 . S
C1737 H1724 0.929 . S
C1737 C1729 1.433 . S
C1737 N1739 1.384 . S
N1738 C1734 1.427 . S
N1738 C1735 1.384 . S
N1739 C1731 1.427 . S
N1739 C1737 1.384 . S
H1740 C1746 0.930 . S
H1741 C1750 0.930 . S
H1742 C1755 0.929 . S
H1743 C1753 0.929 . S
H1744 C1748 0.929 . S
H1745 C1754 0.929 . S
C1746 H1740 0.930 . S
C1746 C1747 1.367 . S
C1746 C1754 1.378 1_556 S
C1747 C1746 1.367 . S
C1747 C1755 1.433 . S
C1748 H1744 0.929 . S
C1748 C1750 1.378 1_556 S
C1748 C1752 1.350 1_556 S
C1749 C1752 1.463 1_556 S
C1749 C1754 1.350 1_556 S
C1749 N1757 1.427 . S
C1750 H1741 0.930 . S
C1750 C1748 1.378 1_554 S
C1750 C1751 1.367 . S
C1751 C1750 1.367 . S
C1751 C1753 1.433 . S
C1752 C1748 1.350 1_554 S
C1752 C1749 1.463 1_554 S
C1752 N1756 1.427 . S
C1753 H1743 0.929 . S
C1753 C1751 1.433 . S
C1753 N1756 1.384 . S
C1754 H1745 0.929 . S
C1754 C1746 1.378 1_554 S
C1754 C1749 1.350 1_554 S
C1755 H1742 0.929 . S
C1755 C1747 1.433 . S
C1755 N1757 1.384 . S
N1756 C1752 1.427 . S
N1756 C1753 1.384 . S
N1757 C1749 1.427 . S
N1757 C1755 1.384 . S
H1758 C1764 0.930 . S
H1759 C1768 0.930 . S
H1760 C1773 0.929 . S
H1761 C1771 0.929 . S
H1762 C1766 0.929 . S
H1763 C1772 0.929 . S
C1764 H1758 0.930 . S
C1764 C1765 1.367 . S
C1764 C1772 1.378 . S
C1765 C1764 1.367 . S
C1765 C1773 1.433 . S
C1766 H1762 0.929 . S
C1766 C1768 1.378 . S
C1766 C1770 1.350 . S
C1767 C1770 1.463 1_545 S
C1767 C1772 1.350 . S
C1767 N1775 1.427 . S
C1768 H1759 0.930 . S
C1768 C1766 1.378 . S
C1768 C1769 1.367 . S
C1769 C1768 1.367 . S
C1769 C1771 1.433 . S
C1770 C1766 1.350 . S
C1770 C1767 1.463 1_565 S
C1770 N1774 1.427 . S
C1771 H1761 0.929 . S
C1771 C1769 1.433 . S
C1771 N1774 1.384 . S
C1772 H1763 0.929 . S
C1772 C1764 1.378 . S
C1772 C1767 1.350 . S
C1773 H1760 0.929 . S
C1773 C1765 1.433 . S
C1773 N1775 1.384 . S
N1774 C1770 1.427 . S
N1774 C1771 1.384 . S
N1775 C1767 1.427 . S
N1775 C1773 1.384 . S
H1776 C1782 0.930 . S
H1777 C1786 0.930 . S
H1778 C1791 0.929 . S
H1779 C1789 0.929 . S
H1780 C1784 0.929 . S
H1781 C1790 0.929 . S
C1782 H1776 0.930 . S
C1782 C1783 1.367 . S
C1782 C1790 1.378 . S
C1783 C1782 1.367 . S
C1783 C1791 1.433 . S
C1784 H1780 0.929 . S
C1784 C1786 1.378 . S
C1784 C1788 1.350 . S
C1785 C1788 1.463 1_556 S
C1785 C1790 1.350 . S
C1785 N1793 1.427 . S
C1786 H1777 0.930 . S
C1786 C1784 1.378 . S
C1786 C1787 1.367 . S
C1787 C1786 1.367 . S
C1787 C1789 1.433 . S
C1788 C1784 1.350 . S
C1788 C1785 1.463 1_554 S
C1788 N1792 1.427 . S
C1789 H1779 0.929 . S
C1789 C1787 1.433 . S
C1789 N1792 1.384 . S
C1790 H1781 0.929 . S
C1790 C1782 1.378 . S
C1790 C1785 1.350 . S
C1791 H1778 0.929 . S
C1791 C1783 1.433 . S
C1791 N1793 1.384 . S
N1792 C1788 1.427 . S
N1792 C1789 1.384 . S
N1793 C1785 1.427 . S
N1793 C1791 1.384 . S
H1794 C1800 0.930 . S
H1795 C1804 0.930 . S
H1796 C1809 0.929 . S
H1797 C1807 0.929 . S
H1798 C1802 0.929 . S
H1799 C1808 0.929 . S
C1800 H1794 0.930 . S
C1800 C1801 1.367 . S
C1800 C1808 1.378 . S
C1801 C1800 1.367 . S
C1801 C1809 1.433 . S
C1802 H1798 0.929 . S
C1802 C1804 1.378 . S
C1802 C1806 1.350 . S
C1803 C1806 1.463 . S
C1803 C1808 1.350 . S
C1803 N1811 1.427 . S
C1804 H1795 0.930 . S
C1804 C1802 1.378 . S
C1804 C1805 1.367 . S
C1805 C1804 1.367 . S
C1805 C1807 1.433 . S
C1806 C1802 1.350 . S
C1806 C1803 1.463 . S
C1806 N1810 1.427 . S
C1807 H1797 0.929 . S
C1807 C1805 1.433 . S
C1807 N1810 1.384 . S
C1808 H1799 0.929 . S
C1808 C1800 1.378 . S
C1808 C1803 1.350 . S
C1809 H1796 0.929 . S
C1809 C1801 1.433 . S
C1809 N1811 1.384 . S
N1810 C1806 1.427 . S
N1810 C1807 1.384 . S
N1811 C1803 1.427 . S
N1811 C1809 1.384 . S
H1812 C1818 0.930 . S
H1813 C1822 0.930 . S
H1814 C1827 0.929 . S
H1815 C1825 0.929 . S
H1816 C1820 0.929 . S
H1817 C1826 0.929 . S
C1818 H1812 0.930 . S
C1818 C1819 1.367 . S
C1818 C1826 1.378 . S
C1819 C1818 1.367 . S
C1819 C1827 1.433 . S
C1820 H1816 0.929 . S
C1820 C1822 1.378 . S
C1820 C1824 1.350 . S
C1821 C1824 1.463 . S
C1821 C1826 1.350 . S
C1821 N1829 1.427 . S
C1822 H1813 0.930 . S
C1822 C1820 1.378 . S
C1822 C1823 1.367 . S
C1823 C1822 1.367 . S
C1823 C1825 1.433 . S
C1824 C1820 1.350 . S
C1824 C1821 1.463 . S
C1824 N1828 1.427 . S
C1825 H1815 0.929 . S
C1825 C1823 1.433 . S
C1825 N1828 1.384 . S
C1826 H1817 0.929 . S
C1826 C1818 1.378 . S
C1826 C1821 1.350 . S
C1827 H1814 0.929 . S
C1827 C1819 1.433 . S
C1827 N1829 1.384 . S
N1828 C1824 1.427 . S
N1828 C1825 1.384 . S
N1829 C1821 1.427 . S
N1829 C1827 1.384 . S
H1830 C1836 0.930 . S
H1831 C1840 0.930 . S
H1832 C1845 0.929 . S
H1833 C1843 0.929 . S
H1834 C1838 0.929 . S
H1835 C1844 0.929 . S
C1836 H1830 0.930 . S
C1836 C1837 1.367 . S
C1836 C1844 1.378 . S
C1837 C1836 1.367 . S
C1837 C1845 1.433 . S
C1838 H1834 0.929 . S
C1838 C1840 1.378 . S
C1838 C1842 1.350 . S
C1839 C1842 1.463 . S
C1839 C1844 1.350 . S
C1839 N1847 1.427 . S
C1840 H1831 0.930 . S
C1840 C1838 1.378 . S
C1840 C1841 1.367 . S
C1841 C1840 1.367 . S
C1841 C1843 1.433 . S
C1842 C1838 1.350 . S
C1842 C1839 1.463 . S
C1842 N1846 1.427 . S
C1843 H1833 0.929 . S
C1843 C1841 1.433 . S
C1843 N1846 1.384 . S
C1844 H1835 0.929 . S
C1844 C1836 1.378 . S
C1844 C1839 1.350 . S
C1845 H1832 0.929 . S
C1845 C1837 1.433 . S
C1845 N1847 1.384 . S
N1846 C1842 1.427 . S
N1846 C1843 1.384 . S
N1847 C1839 1.427 . S
N1847 C1845 1.384 . S
H1848 C1854 0.930 . S
H1849 C1858 0.930 . S
H1850 C1863 0.929 . S
H1851 C1861 0.929 . S
H1852 C1856 0.929 . S
H1853 C1862 0.929 . S
C1854 H1848 0.930 . S
C1854 C1855 1.367 . S
C1854 C1862 1.378 . S
C1855 C1854 1.367 . S
C1855 C1863 1.433 . S
C1856 H1852 0.929 . S
C1856 C1858 1.378 . S
C1856 C1860 1.350 . S
C1857 C1860 1.463 1_556 S
C1857 C1862 1.350 . S
C1857 N1865 1.427 1_556 S
C1858 H1849 0.930 . S
C1858 C1856 1.378 . S
C1858 C1859 1.367 . S
C1859 C1858 1.367 . S
C1859 C1861 1.433 . S
C1860 C1856 1.350 . S
C1860 C1857 1.463 1_554 S
C1860 N1864 1.427 1_554 S
C1861 H1851 0.929 . S
C1861 C1859 1.433 . S
C1861 N1864 1.384 1_554 S
C1862 H1853 0.929 . S
C1862 C1854 1.378 . S
C1862 C1857 1.350 . S
C1863 H1850 0.929 . S
C1863 C1855 1.433 . S
C1863 N1865 1.384 1_556 S
N1864 C1860 1.427 1_556 S
N1864 C1861 1.384 1_556 S
N1865 C1857 1.427 1_554 S
N1865 C1863 1.384 1_554 S
H1866 C1872 0.930 . S
H1867 C1876 0.930 . S
H1868 C1881 0.929 . S
H1869 C1879 0.929 . S
H1870 C1874 0.929 . S
H1871 C1880 0.929 . S
C1872 H1866 0.930 . S
C1872 C1873 1.367 . S
C1872 C1880 1.378 . S
C1873 C1872 1.367 . S
C1873 C1881 1.433 . S
C1874 H1870 0.929 . S
C1874 C1876 1.378 . S
C1874 C1878 1.350 . S
C1875 C1878 1.463 . S
C1875 C1880 1.350 . S
C1875 N1883 1.427 . S
C1876 H1867 0.930 . S
C1876 C1874 1.378 . S
C1876 C1877 1.367 . S
C1877 C1876 1.367 . S
C1877 C1879 1.433 . S
C1878 C1874 1.350 . S
C1878 C1875 1.463 . S
C1878 N1882 1.427 . S
C1879 H1869 0.929 . S
C1879 C1877 1.433 . S
C1879 N1882 1.384 . S
C1880 H1871 0.929 . S
C1880 C1872 1.378 . S
C1880 C1875 1.350 . S
C1881 H1868 0.929 . S
C1881 C1873 1.433 . S
C1881 N1883 1.384 . S
N1882 C1878 1.427 . S
N1882 C1879 1.384 . S
N1883 C1875 1.427 . S
N1883 C1881 1.384 . S
H1884 C1890 0.930 . S
H1885 C1894 0.930 . S
H1886 C1899 0.929 . S
H1887 C1897 0.929 . S
H1888 C1892 0.929 . S
H1889 C1898 0.929 . S
C1890 H1884 0.930 . S
C1890 C1891 1.367 . S
C1890 C1898 1.378 . S
C1891 C1890 1.367 . S
C1891 C1899 1.433 . S
C1892 H1888 0.929 . S
C1892 C1894 1.378 . S
C1892 C1896 1.350 . S
C1893 C1896 1.463 . S
C1893 C1898 1.350 . S
C1893 N1901 1.427 . S
C1894 H1885 0.930 . S
C1894 C1892 1.378 . S
C1894 C1895 1.367 . S
C1895 C1894 1.367 . S
C1895 C1897 1.433 . S
C1896 C1892 1.350 . S
C1896 C1893 1.463 . S
C1896 N1900 1.427 . S
C1897 H1887 0.929 . S
C1897 C1895 1.433 . S
C1897 N1900 1.384 . S
C1898 H1889 0.929 . S
C1898 C1890 1.378 . S
C1898 C1893 1.350 . S
C1899 H1886 0.929 . S
C1899 C1891 1.433 . S
C1899 N1901 1.384 . S
N1900 C1896 1.427 . S
N1900 C1897 1.384 . S
N1901 C1893 1.427 . S
N1901 C1899 1.384 . S
H1902 C1908 0.930 . S
H1903 C1912 0.930 . S
H1904 C1917 0.929 . S
H1905 C1915 0.929 . S
H1906 C1910 0.929 . S
H1907 C1916 0.929 . S
C1908 H1902 0.930 . S
C1908 C1909 1.367 . S
C1908 C1916 1.378 . S
C1909 C1908 1.367 . S
C1909 C1917 1.433 . S
C1910 H1906 0.929 . S
C1910 C1912 1.378 . S
C1910 C1914 1.350 . S
C1911 C1914 1.463 . S
C1911 C1916 1.350 . S
C1911 N1919 1.427 . S
C1912 H1903 0.930 . S
C1912 C1910 1.378 . S
C1912 C1913 1.367 . S
C1913 C1912 1.367 . S
C1913 C1915 1.433 . S
C1914 C1910 1.350 . S
C1914 C1911 1.463 . S
C1914 N1918 1.427 . S
C1915 H1905 0.929 . S
C1915 C1913 1.433 . S
C1915 N1918 1.384 . S
C1916 H1907 0.929 . S
C1916 C1908 1.378 . S
C1916 C1911 1.350 . S
C1917 H1904 0.929 . S
C1917 C1909 1.433 . S
C1917 N1919 1.384 . S
N1918 C1914 1.427 . S
N1918 C1915 1.384 . S
N1919 C1911 1.427 . S
N1919 C1917 1.384 . S
H1920 C1926 0.930 . S
H1921 C1930 0.930 . S
H1922 C1935 0.929 . S
H1923 C1933 0.929 . S
H1924 C1928 0.929 . S
H1925 C1934 0.929 . S
C1926 H1920 0.930 . S
C1926 C1927 1.367 . S
C1926 C1934 1.378 . S
C1927 C1926 1.367 . S
C1927 C1935 1.433 . S
C1928 H1924 0.929 . S
C1928 C1930 1.378 . S
C1928 C1932 1.350 . S
C1929 C1932 1.463 . S
C1929 C1934 1.350 . S
C1929 N1937 1.427 . S
C1930 H1921 0.930 . S
C1930 C1928 1.378 . S
C1930 C1931 1.367 . S
C1931 C1930 1.367 . S
C1931 C1933 1.433 . S
C1932 C1928 1.350 . S
C1932 C1929 1.463 . S
C1932 N1936 1.427 . S
C1933 H1923 0.929 . S
C1933 C1931 1.433 . S
C1933 N1936 1.384 . S
C1934 H1925 0.929 . S
C1934 C1926 1.378 . S
C1934 C1929 1.350 . S
C1935 H1922 0.929 . S
C1935 C1927 1.433 . S
C1935 N1937 1.384 . S
N1936 C1932 1.427 . S
N1936 C1933 1.384 . S
N1937 C1929 1.427 . S
N1937 C1935 1.384 . S
H1938 C1944 0.930 . S
H1939 C1948 0.930 . S
H1940 C1953 0.929 . S
H1941 C1951 0.929 . S
H1942 C1946 0.929 1_655 S
H1943 C1952 0.929 . S
C1944 H1938 0.930 . S
C1944 C1945 1.367 . S
C1944 C1952 1.378 . S
C1945 C1944 1.367 . S
C1945 C1953 1.433 . S
C1946 H1942 0.929 1_455 S
C1946 C1948 1.378 . S
C1946 C1950 1.350 1_455 S
C1947 C1950 1.463 . S
C1947 C1952 1.350 . S
C1947 N1955 1.427 . S
C1948 H1939 0.930 . S
C1948 C1946 1.378 . S
C1948 C1949 1.367 . S
C1949 C1948 1.367 . S
C1949 C1951 1.433 . S
C1950 C1946 1.350 1_655 S
C1950 C1947 1.463 . S
C1950 N1954 1.427 1_655 S
C1951 H1941 0.929 . S
C1951 C1949 1.433 . S
C1951 N1954 1.384 . S
C1952 H1943 0.929 . S
C1952 C1944 1.378 . S
C1952 C1947 1.350 . S
C1953 H1940 0.929 . S
C1953 C1945 1.433 . S
C1953 N1955 1.384 . S
N1954 C1950 1.427 1_455 S
N1954 C1951 1.384 . S
N1955 C1947 1.427 . S
N1955 C1953 1.384 . S
H1956 C1962 0.930 . S
H1957 C1966 0.930 . S
H1958 C1971 0.929 . S
H1959 C1969 0.929 . S
H1960 C1964 0.929 . S
H1961 C1970 0.929 . S
C1962 H1956 0.930 . S
C1962 C1963 1.367 . S
C1962 C1970 1.378 . S
C1963 C1962 1.367 . S
C1963 C1971 1.433 . S
C1964 H1960 0.929 . S
C1964 C1966 1.378 . S
C1964 C1968 1.350 . S
C1965 C1968 1.463 . S
C1965 C1970 1.350 . S
C1965 N1973 1.427 . S
C1966 H1957 0.930 . S
C1966 C1964 1.378 . S
C1966 C1967 1.367 . S
C1967 C1966 1.367 . S
C1967 C1969 1.433 . S
C1968 C1964 1.350 . S
C1968 C1965 1.463 . S
C1968 N1972 1.427 . S
C1969 H1959 0.929 . S
C1969 C1967 1.433 . S
C1969 N1972 1.384 . S
C1970 H1961 0.929 . S
C1970 C1962 1.378 . S
C1970 C1965 1.350 . S
C1971 H1958 0.929 . S
C1971 C1963 1.433 . S
C1971 N1973 1.384 . S
N1972 C1968 1.427 . S
N1972 C1969 1.384 . S
N1973 C1965 1.427 . S
N1973 C1971 1.384 . S
H1974 C1980 0.930 . S
H1975 C1984 0.930 . S
H1976 C1989 0.929 . S
H1977 C1987 0.929 . S
H1978 C1982 0.929 . S
H1979 C1988 0.929 . S
C1980 H1974 0.930 . S
C1980 C1981 1.367 . S
C1980 C1988 1.378 . S
C1981 C1980 1.367 . S
C1981 C1989 1.433 . S
C1982 H1978 0.929 . S
C1982 C1984 1.378 . S
C1982 C1986 1.350 . S
C1983 C1986 1.463 . S
C1983 C1988 1.350 . S
C1983 N1991 1.427 . S
C1984 H1975 0.930 . S
C1984 C1982 1.378 . S
C1984 C1985 1.367 . S
C1985 C1984 1.367 . S
C1985 C1987 1.433 . S
C1986 C1982 1.350 . S
C1986 C1983 1.463 . S
C1986 N1990 1.427 . S
C1987 H1977 0.929 . S
C1987 C1985 1.433 . S
C1987 N1990 1.384 . S
C1988 H1979 0.929 . S
C1988 C1980 1.378 . S
C1988 C1983 1.350 . S
C1989 H1976 0.929 . S
C1989 C1981 1.433 . S
C1989 N1991 1.384 . S
N1990 C1986 1.427 . S
N1990 C1987 1.384 . S
N1991 C1983 1.427 . S
N1991 C1989 1.384 . S
H1992 C1998 0.930 . S
H1993 C2002 0.930 . S
H1994 C2007 0.929 . S
H1995 C2005 0.929 . S
H1996 C2000 0.929 . S
H1997 C2006 0.929 . S
C1998 H1992 0.930 . S
C1998 C1999 1.367 . S
C1998 C2006 1.378 . S
C1999 C1998 1.367 . S
C1999 C2007 1.433 . S
C2000 H1996 0.929 . S
C2000 C2002 1.378 . S
C2000 C2004 1.350 . S
C2001 C2004 1.463 . S
C2001 C2006 1.350 . S
C2001 N2009 1.427 . S
C2002 H1993 0.930 . S
C2002 C2000 1.378 . S
C2002 C2003 1.367 . S
C2003 C2002 1.367 . S
C2003 C2005 1.433 . S
C2004 C2000 1.350 . S
C2004 C2001 1.463 . S
C2004 N2008 1.427 . S
C2005 H1995 0.929 . S
C2005 C2003 1.433 . S
C2005 N2008 1.384 . S
C2006 H1997 0.929 . S
C2006 C1998 1.378 . S
C2006 C2001 1.350 . S
C2007 H1994 0.929 . S
C2007 C1999 1.433 . S
C2007 N2009 1.384 . S
N2008 C2004 1.427 . S
N2008 C2005 1.384 . S
N2009 C2001 1.427 . S
N2009 C2007 1.384 . S
H2010 C2016 0.930 . S
H2011 C2020 0.930 . S
H2012 C2025 0.929 . S
H2013 C2023 0.929 . S
H2014 C2018 0.929 . S
H2015 C2024 0.929 . S
C2016 H2010 0.930 . S
C2016 C2017 1.367 . S
C2016 C2024 1.378 . S
C2017 C2016 1.367 . S
C2017 C2025 1.433 . S
C2018 H2014 0.929 . S
C2018 C2020 1.378 . S
C2018 C2022 1.350 . S
C2019 C2022 1.463 . S
C2019 C2024 1.350 . S
C2019 N2027 1.427 . S
C2020 H2011 0.930 . S
C2020 C2018 1.378 . S
C2020 C2021 1.367 . S
C2021 C2020 1.367 . S
C2021 C2023 1.433 . S
C2022 C2018 1.350 . S
C2022 C2019 1.463 . S
C2022 N2026 1.427 . S
C2023 H2013 0.929 . S
C2023 C2021 1.433 . S
C2023 N2026 1.384 . S
C2024 H2015 0.929 . S
C2024 C2016 1.378 . S
C2024 C2019 1.350 . S
C2025 H2012 0.929 . S
C2025 C2017 1.433 . S
C2025 N2027 1.384 . S
N2026 C2022 1.427 . S
N2026 C2023 1.384 . S
N2027 C2019 1.427 . S
N2027 C2025 1.384 . S
H2028 C2034 0.930 . S
H2029 C2038 0.930 . S
H2030 C2043 0.929 . S
H2031 C2041 0.929 . S
H2032 C2036 0.929 . S
H2033 C2042 0.929 . S
C2034 H2028 0.930 . S
C2034 C2035 1.367 . S
C2034 C2042 1.378 . S
C2035 C2034 1.367 . S
C2035 C2043 1.433 . S
C2036 H2032 0.929 . S
C2036 C2038 1.378 . S
C2036 C2040 1.350 . S
C2037 C2040 1.463 . S
C2037 C2042 1.350 . S
C2037 N2045 1.427 . S
C2038 H2029 0.930 . S
C2038 C2036 1.378 . S
C2038 C2039 1.367 . S
C2039 C2038 1.367 . S
C2039 C2041 1.433 . S
C2040 C2036 1.350 . S
C2040 C2037 1.463 . S
C2040 N2044 1.427 . S
C2041 H2031 0.929 . S
C2041 C2039 1.433 . S
C2041 N2044 1.384 . S
C2042 H2033 0.929 . S
C2042 C2034 1.378 . S
C2042 C2037 1.350 . S
C2043 H2030 0.929 . S
C2043 C2035 1.433 . S
C2043 N2045 1.384 . S
N2044 C2040 1.427 . S
N2044 C2041 1.384 . S
N2045 C2037 1.427 . S
N2045 C2043 1.384 . S
H2046 C2052 0.930 . S
H2047 C2056 0.930 . S
H2048 C2061 0.929 . S
H2049 C2059 0.929 . S
H2050 C2054 0.929 1_655 S
H2051 C2060 0.929 . S
C2052 H2046 0.930 . S
C2052 C2053 1.367 . S
C2052 C2060 1.378 . S
C2053 C2052 1.367 . S
C2053 C2061 1.433 . S
C2054 H2050 0.929 1_455 S
C2054 C2056 1.378 . S
C2054 C2058 1.350 1_455 S
C2055 C2058 1.463 . S
C2055 C2060 1.350 . S
C2055 N2063 1.427 . S
C2056 H2047 0.930 . S
C2056 C2054 1.378 . S
C2056 C2057 1.367 . S
C2057 C2056 1.367 . S
C2057 C2059 1.433 . S
C2058 C2054 1.350 1_655 S
C2058 C2055 1.463 . S
C2058 N2062 1.427 1_655 S
C2059 H2049 0.929 . S
C2059 C2057 1.433 . S
C2059 N2062 1.384 . S
C2060 H2051 0.929 . S
C2060 C2052 1.378 . S
C2060 C2055 1.350 . S
C2061 H2048 0.929 . S
C2061 C2053 1.433 . S
C2061 N2063 1.384 . S
N2062 C2058 1.427 1_455 S
N2062 C2059 1.384 . S
N2063 C2055 1.427 . S
N2063 C2061 1.384 . S
H2064 C2070 0.930 . S
H2065 C2074 0.930 . S
H2066 C2079 0.929 . S
H2067 C2077 0.929 . S
H2068 C2072 0.929 . S
H2069 C2078 0.929 . S
C2070 H2064 0.930 . S
C2070 C2071 1.367 . S
C2070 C2078 1.378 . S
C2071 C2070 1.367 . S
C2071 C2079 1.433 . S
C2072 H2068 0.929 . S
C2072 C2074 1.378 . S
C2072 C2076 1.350 . S
C2073 C2076 1.463 . S
C2073 C2078 1.350 . S
C2073 N2081 1.427 . S
C2074 H2065 0.930 . S
C2074 C2072 1.378 . S
C2074 C2075 1.367 . S
C2075 C2074 1.367 . S
C2075 C2077 1.433 . S
C2076 C2072 1.350 . S
C2076 C2073 1.463 . S
C2076 N2080 1.427 . S
C2077 H2067 0.929 . S
C2077 C2075 1.433 . S
C2077 N2080 1.384 . S
C2078 H2069 0.929 . S
C2078 C2070 1.378 . S
C2078 C2073 1.350 . S
C2079 H2066 0.929 . S
C2079 C2071 1.433 . S
C2079 N2081 1.384 . S
N2080 C2076 1.427 . S
N2080 C2077 1.384 . S
N2081 C2073 1.427 . S
N2081 C2079 1.384 . S
H2082 C2088 0.930 . S
H2083 C2092 0.930 . S
H2084 C2097 0.929 . S
H2085 C2095 0.929 . S
H2086 C2090 0.929 . S
H2087 C2096 0.929 1_455 S
C2088 H2082 0.930 . S
C2088 C2089 1.367 . S
C2088 C2096 1.378 . S
C2089 C2088 1.367 . S
C2089 C2097 1.433 . S
C2090 H2086 0.929 . S
C2090 C2092 1.378 . S
C2090 C2094 1.350 . S
C2091 C2094 1.463 . S
C2091 C2096 1.350 1_455 S
C2091 N2099 1.440 . S
C2092 H2083 0.930 . S
C2092 C2090 1.378 . S
C2092 C2093 1.367 . S
C2093 C2092 1.367 . S
C2093 C2095 1.433 . S
C2094 C2090 1.350 . S
C2094 C2091 1.463 . S
C2094 N2098 1.427 . S
C2095 H2085 0.929 . S
C2095 C2093 1.433 . S
C2095 N2098 1.384 . S
C2096 H2087 0.929 1_655 S
C2096 C2088 1.378 . S
C2096 C2091 1.350 1_655 S
C2097 H2084 0.929 . S
C2097 C2089 1.433 . S
C2097 N2099 1.348 1_655 S
N2098 C2094 1.427 . S
N2098 C2095 1.384 . S
N2099 C2091 1.440 . S
N2099 C2097 1.348 1_455 S
H2100 C2106 0.930 . S
H2101 C2110 0.930 . S
H2102 C2115 0.929 . S
H2103 C2113 0.929 . S
H2104 C2108 0.929 . S
H2105 C2114 0.929 . S
C2106 H2100 0.930 . S
C2106 C2107 1.367 . S
C2106 C2114 1.378 . S
C2107 C2106 1.367 . S
C2107 C2115 1.433 . S
C2108 H2104 0.929 . S
C2108 C2110 1.378 . S
C2108 C2112 1.350 . S
C2109 C2112 1.463 . S
C2109 C2114 1.350 . S
C2109 N2117 1.427 . S
C2110 H2101 0.930 . S
C2110 C2108 1.378 . S
C2110 C2111 1.367 . S
C2111 C2110 1.367 . S
C2111 C2113 1.433 . S
C2112 C2108 1.350 . S
C2112 C2109 1.463 . S
C2112 N2116 1.427 . S
C2113 H2103 0.929 . S
C2113 C2111 1.433 . S
C2113 N2116 1.384 . S
C2114 H2105 0.929 . S
C2114 C2106 1.378 . S
C2114 C2109 1.350 . S
C2115 H2102 0.929 . S
C2115 C2107 1.433 . S
C2115 N2117 1.384 . S
N2116 C2112 1.427 . S
N2116 C2113 1.384 . S
N2117 C2109 1.427 . S
N2117 C2115 1.384 . S
H2118 C2124 0.930 . S
H2119 C2128 0.930 . S
H2120 C2133 0.929 . S
H2121 C2131 0.929 . S
H2122 C2126 0.929 . S
H2123 C2132 0.929 . S
C2124 H2118 0.930 . S
C2124 C2125 1.367 . S
C2124 C2132 1.378 . S
C2125 C2124 1.367 . S
C2125 C2133 1.433 . S
C2126 H2122 0.929 . S
C2126 C2128 1.378 . S
C2126 C2130 1.350 . S
C2127 C2130 1.463 . S
C2127 C2132 1.350 . S
C2127 N2135 1.427 . S
C2128 H2119 0.930 . S
C2128 C2126 1.378 . S
C2128 C2129 1.367 . S
C2129 C2128 1.367 . S
C2129 C2131 1.433 . S
C2130 C2126 1.350 . S
C2130 C2127 1.463 . S
C2130 N2134 1.427 . S
C2131 H2121 0.929 . S
C2131 C2129 1.433 . S
C2131 N2134 1.384 . S
C2132 H2123 0.929 . S
C2132 C2124 1.378 . S
C2132 C2127 1.350 . S
C2133 H2120 0.929 . S
C2133 C2125 1.433 . S
C2133 N2135 1.384 . S
N2134 C2130 1.427 . S
N2134 C2131 1.384 . S
N2135 C2127 1.427 . S
N2135 C2133 1.384 . S
H2136 C2142 0.930 . S
H2137 C2146 0.930 . S
H2138 C2151 0.929 . S
H2139 C2149 0.929 . S
H2140 C2144 0.929 . S
H2141 C2150 0.929 . S
C2142 H2136 0.930 . S
C2142 C2143 1.367 . S
C2142 C2150 1.378 . S
C2143 C2142 1.367 . S
C2143 C2151 1.433 . S
C2144 H2140 0.929 . S
C2144 C2146 1.378 . S
C2144 C2148 1.350 . S
C2145 C2148 1.463 . S
C2145 C2150 1.350 . S
C2145 N2153 1.427 . S
C2146 H2137 0.930 . S
C2146 C2144 1.378 . S
C2146 C2147 1.367 . S
C2147 C2146 1.367 . S
C2147 C2149 1.433 . S
C2148 C2144 1.350 . S
C2148 C2145 1.463 . S
C2148 N2152 1.427 . S
C2149 H2139 0.929 . S
C2149 C2147 1.433 . S
C2149 N2152 1.384 . S
C2150 H2141 0.929 . S
C2150 C2142 1.378 . S
C2150 C2145 1.350 . S
C2151 H2138 0.929 . S
C2151 C2143 1.433 . S
C2151 N2153 1.384 . S
N2152 C2148 1.427 . S
N2152 C2149 1.384 . S
N2153 C2145 1.427 . S
N2153 C2151 1.384 . S
H2154 C2160 0.930 . S
H2155 C2164 0.930 . S
H2156 C2169 0.929 . S
H2157 C2167 0.929 . S
H2158 C2162 0.929 . S
H2159 C2168 0.929 . S
C2160 H2154 0.930 . S
C2160 C2161 1.367 . S
C2160 C2168 1.378 . S
C2161 C2160 1.367 . S
C2161 C2169 1.433 . S
C2162 H2158 0.929 . S
C2162 C2164 1.378 . S
C2162 C2166 1.350 . S
C2163 C2166 1.463 . S
C2163 C2168 1.350 . S
C2163 N2171 1.427 . S
C2164 H2155 0.930 . S
C2164 C2162 1.378 . S
C2164 C2165 1.367 . S
C2165 C2164 1.367 . S
C2165 C2167 1.433 . S
C2166 C2162 1.350 . S
C2166 C2163 1.463 . S
C2166 N2170 1.427 . S
C2167 H2157 0.929 . S
C2167 C2165 1.433 . S
C2167 N2170 1.384 . S
C2168 H2159 0.929 . S
C2168 C2160 1.378 . S
C2168 C2163 1.350 . S
C2169 H2156 0.929 . S
C2169 C2161 1.433 . S
C2169 N2171 1.384 . S
N2170 C2166 1.427 . S
N2170 C2167 1.384 . S
N2171 C2163 1.427 . S
N2171 C2169 1.384 . S
H2172 C2178 0.930 . S
H2173 C2182 0.930 . S
H2174 C2187 0.929 . S
H2175 C2185 0.929 . S
H2176 C2180 0.929 . S
H2177 C2186 0.929 . S
C2178 H2172 0.930 . S
C2178 C2179 1.367 . S
C2178 C2186 1.378 . S
C2179 C2178 1.367 . S
C2179 C2187 1.433 . S
C2180 H2176 0.929 . S
C2180 C2182 1.378 . S
C2180 C2184 1.350 . S
C2181 C2184 1.463 . S
C2181 C2186 1.350 . S
C2181 N2189 1.427 . S
C2182 H2173 0.930 . S
C2182 C2180 1.378 . S
C2182 C2183 1.367 . S
C2183 C2182 1.367 . S
C2183 C2185 1.433 . S
C2184 C2180 1.350 . S
C2184 C2181 1.463 . S
C2184 N2188 1.427 . S
C2185 H2175 0.929 . S
C2185 C2183 1.433 . S
C2185 N2188 1.384 . S
C2186 H2177 0.929 . S
C2186 C2178 1.378 . S
C2186 C2181 1.350 . S
C2187 H2174 0.929 . S
C2187 C2179 1.433 . S
C2187 N2189 1.384 . S
N2188 C2184 1.427 . S
N2188 C2185 1.384 . S
N2189 C2181 1.427 . S
N2189 C2187 1.384 . S
H2190 C2196 0.930 . S
H2191 C2200 0.930 . S
H2192 C2205 0.929 . S
H2193 C2203 0.929 . S
H2194 C2198 0.944 . S
H2195 C2204 0.929 . S
C2196 H2190 0.930 . S
C2196 C2197 1.367 . S
C2196 C2204 1.378 . S
C2197 C2196 1.367 . S
C2197 C2205 1.433 . S
C2198 H2194 0.944 . S
C2198 C2200 1.353 1_455 S
C2198 C2202 1.359 . S
C2199 C2202 1.463 . S
C2199 C2204 1.350 . S
C2199 N2207 1.427 . S
C2200 H2191 0.930 . S
C2200 C2198 1.353 1_655 S
C2200 C2201 1.367 . S
C2201 C2200 1.367 . S
C2201 C2203 1.433 . S
C2202 C2198 1.359 . S
C2202 C2199 1.463 . S
C2202 N2206 1.427 1_455 S
C2203 H2193 0.929 . S
C2203 C2201 1.433 . S
C2203 N2206 1.384 . S
C2204 H2195 0.929 . S
C2204 C2196 1.378 . S
C2204 C2199 1.350 . S
C2205 H2192 0.929 . S
C2205 C2197 1.433 . S
C2205 N2207 1.384 . S
N2206 C2202 1.427 1_655 S
N2206 C2203 1.384 . S
N2207 C2199 1.427 . S
N2207 C2205 1.384 . S
H2208 C2214 0.930 . S
H2209 C2218 0.930 . S
H2210 C2223 0.929 . S
H2211 C2221 0.929 . S
H2212 C2216 0.929 . S
H2213 C2222 0.929 . S
C2214 H2208 0.930 . S
C2214 C2215 1.367 . S
C2214 C2222 1.378 . S
C2215 C2214 1.367 . S
C2215 C2223 1.433 . S
C2216 H2212 0.929 . S
C2216 C2218 1.378 . S
C2216 C2220 1.350 . S
C2217 C2220 1.463 . S
C2217 C2222 1.350 . S
C2217 N2225 1.427 . S
C2218 H2209 0.930 . S
C2218 C2216 1.378 . S
C2218 C2219 1.367 . S
C2219 C2218 1.367 . S
C2219 C2221 1.433 . S
C2220 C2216 1.350 . S
C2220 C2217 1.463 . S
C2220 N2224 1.427 . S
C2221 H2211 0.929 . S
C2221 C2219 1.433 . S
C2221 N2224 1.384 . S
C2222 H2213 0.929 . S
C2222 C2214 1.378 . S
C2222 C2217 1.350 . S
C2223 H2210 0.929 . S
C2223 C2215 1.433 . S
C2223 N2225 1.384 . S
N2224 C2220 1.427 . S
N2224 C2221 1.384 . S
N2225 C2217 1.427 . S
N2225 C2223 1.384 . S
H2226 C2232 0.930 . S
H2227 C2236 0.930 . S
H2228 C2241 0.929 . S
H2229 C2239 0.929 . S
H2230 C2234 0.929 . S
H2231 C2240 0.929 . S
C2232 H2226 0.930 . S
C2232 C2233 1.367 . S
C2232 C2240 1.378 . S
C2233 C2232 1.367 . S
C2233 C2241 1.433 . S
C2234 H2230 0.929 . S
C2234 C2236 1.378 . S
C2234 C2238 1.350 . S
C2235 C2238 1.463 . S
C2235 C2240 1.350 . S
C2235 N2243 1.427 . S
C2236 H2227 0.930 . S
C2236 C2234 1.378 . S
C2236 C2237 1.367 . S
C2237 C2236 1.367 . S
C2237 C2239 1.433 . S
C2238 C2234 1.350 . S
C2238 C2235 1.463 . S
C2238 N2242 1.427 . S
C2239 H2229 0.929 . S
C2239 C2237 1.433 . S
C2239 N2242 1.384 . S
C2240 H2231 0.929 . S
C2240 C2232 1.378 . S
C2240 C2235 1.350 . S
C2241 H2228 0.929 . S
C2241 C2233 1.433 . S
C2241 N2243 1.384 . S
N2242 C2238 1.427 . S
N2242 C2239 1.384 . S
N2243 C2235 1.427 . S
N2243 C2241 1.384 . S
H2244 C2250 0.930 . S
H2245 C2254 0.930 . S
H2246 C2259 0.929 . S
H2247 C2257 0.929 . S
H2248 C2252 0.929 . S
H2249 C2258 0.929 . S
C2250 H2244 0.930 . S
C2250 C2251 1.367 . S
C2250 C2258 1.378 . S
C2251 C2250 1.367 . S
C2251 C2259 1.433 . S
C2252 H2248 0.929 . S
C2252 C2254 1.378 . S
C2252 C2256 1.350 . S
C2253 C2256 1.463 . S
C2253 C2258 1.350 . S
C2253 N2261 1.427 . S
C2254 H2245 0.930 . S
C2254 C2252 1.378 . S
C2254 C2255 1.367 . S
C2255 C2254 1.367 . S
C2255 C2257 1.433 . S
C2256 C2252 1.350 . S
C2256 C2253 1.463 . S
C2256 N2260 1.427 . S
C2257 H2247 0.929 . S
C2257 C2255 1.433 . S
C2257 N2260 1.384 . S
C2258 H2249 0.929 . S
C2258 C2250 1.378 . S
C2258 C2253 1.350 . S
C2259 H2246 0.929 . S
C2259 C2251 1.433 . S
C2259 N2261 1.384 . S
N2260 C2256 1.427 . S
N2260 C2257 1.384 . S
N2261 C2253 1.427 . S
N2261 C2259 1.384 . S
H2262 C2268 0.930 . S
H2263 C2272 0.930 . S
H2264 C2277 0.929 . S
H2265 C2275 0.929 . S
H2266 C2270 0.929 . S
H2267 C2276 0.921 1_455 S
C2268 H2262 0.930 . S
C2268 C2269 1.367 . S
C2268 C2276 1.391 . S
C2269 C2268 1.367 . S
C2269 C2277 1.433 . S
C2270 H2266 0.929 . S
C2270 C2272 1.378 . S
C2270 C2274 1.350 . S
C2271 C2274 1.463 . S
C2271 C2276 1.344 1_455 S
C2271 N2279 1.427 1_455 S
C2272 H2263 0.930 . S
C2272 C2270 1.378 . S
C2272 C2273 1.367 . S
C2273 C2272 1.367 . S
C2273 C2275 1.433 . S
C2274 C2270 1.350 . S
C2274 C2271 1.463 . S
C2274 N2278 1.427 . S
C2275 H2265 0.929 . S
C2275 C2273 1.433 . S
C2275 N2278 1.384 . S
C2276 H2267 0.921 1_655 S
C2276 C2268 1.391 . S
C2276 C2271 1.344 1_655 S
C2277 H2264 0.929 . S
C2277 C2269 1.433 . S
C2277 N2279 1.384 . S
N2278 C2274 1.427 . S
N2278 C2275 1.384 . S
N2279 C2271 1.427 1_655 S
N2279 C2277 1.384 . S
H2280 C2286 0.930 . S
H2281 C2290 0.930 . S
H2282 C2295 0.929 . S
H2283 C2293 0.929 . S
H2284 C2288 0.929 . S
H2285 C2294 0.929 . S
C2286 H2280 0.930 . S
C2286 C2287 1.367 . S
C2286 C2294 1.378 . S
C2287 C2286 1.367 . S
C2287 C2295 1.433 . S
C2288 H2284 0.929 . S
C2288 C2290 1.378 . S
C2288 C2292 1.350 . S
C2289 C2292 1.463 . S
C2289 C2294 1.350 . S
C2289 N2297 1.427 . S
C2290 H2281 0.930 . S
C2290 C2288 1.378 . S
C2290 C2291 1.367 . S
C2291 C2290 1.367 . S
C2291 C2293 1.433 . S
C2292 C2288 1.350 . S
C2292 C2289 1.463 . S
C2292 N2296 1.427 . S
C2293 H2283 0.929 . S
C2293 C2291 1.433 . S
C2293 N2296 1.384 . S
C2294 H2285 0.929 . S
C2294 C2286 1.378 . S
C2294 C2289 1.350 . S
C2295 H2282 0.929 . S
C2295 C2287 1.433 . S
C2295 N2297 1.384 . S
N2296 C2292 1.427 . S
N2296 C2293 1.384 . S
N2297 C2289 1.427 . S
N2297 C2295 1.384 . S
H2298 C2304 0.930 . S
H2299 C2308 0.930 . S
H2300 C2313 0.929 . S
H2301 C2311 0.929 . S
H2302 C2306 0.929 . S
H2303 C2312 0.929 1_455 S
C2304 H2298 0.930 . S
C2304 C2305 1.367 . S
C2304 C2312 1.378 . S
C2305 C2304 1.367 . S
C2305 C2313 1.433 . S
C2306 H2302 0.929 . S
C2306 C2308 1.378 . S
C2306 C2310 1.350 . S
C2307 C2310 1.463 . S
C2307 C2312 1.350 1_455 S
C2307 N2315 1.427 1_455 S
C2308 H2299 0.930 . S
C2308 C2306 1.378 . S
C2308 C2309 1.367 . S
C2309 C2308 1.367 . S
C2309 C2311 1.433 . S
C2310 C2306 1.350 . S
C2310 C2307 1.463 . S
C2310 N2314 1.427 . S
C2311 H2301 0.929 . S
C2311 C2309 1.433 . S
C2311 N2314 1.384 . S
C2312 H2303 0.929 1_655 S
C2312 C2304 1.378 . S
C2312 C2307 1.350 1_655 S
C2313 H2300 0.929 . S
C2313 C2305 1.433 . S
C2313 N2315 1.384 . S
N2314 C2310 1.427 . S
N2314 C2311 1.384 . S
N2315 C2307 1.427 1_655 S
N2315 C2313 1.384 . S
H2316 C2322 0.930 . S
H2317 C2326 0.930 . S
H2318 C2331 0.929 . S
H2319 C2329 0.929 . S
H2320 C2324 0.929 . S
H2321 C2330 0.929 . S
C2322 H2316 0.930 . S
C2322 C2323 1.367 . S
C2322 C2330 1.378 . S
C2323 C2322 1.367 . S
C2323 C2331 1.433 . S
C2324 H2320 0.929 . S
C2324 C2326 1.378 . S
C2324 C2328 1.350 . S
C2325 C2328 1.463 . S
C2325 C2330 1.350 . S
C2325 N2333 1.427 . S
C2326 H2317 0.930 . S
C2326 C2324 1.378 . S
C2326 C2327 1.367 . S
C2327 C2326 1.367 . S
C2327 C2329 1.433 . S
C2328 C2324 1.350 . S
C2328 C2325 1.463 . S
C2328 N2332 1.427 . S
C2329 H2319 0.929 . S
C2329 C2327 1.433 . S
C2329 N2332 1.384 . S
C2330 H2321 0.929 . S
C2330 C2322 1.378 . S
C2330 C2325 1.350 . S
C2331 H2318 0.929 . S
C2331 C2323 1.433 . S
C2331 N2333 1.384 . S
N2332 C2328 1.427 . S
N2332 C2329 1.384 . S
N2333 C2325 1.427 . S
N2333 C2331 1.384 . S
H2334 C2340 0.930 . S
H2335 C2344 0.930 . S
H2336 C2349 0.929 . S
H2337 C2347 0.929 . S
H2338 C2342 0.929 . S
H2339 C2348 0.929 . S
C2340 H2334 0.930 . S
C2340 C2341 1.367 . S
C2340 C2348 1.378 . S
C2341 C2340 1.367 . S
C2341 C2349 1.433 . S
C2342 H2338 0.929 . S
C2342 C2344 1.378 . S
C2342 C2346 1.350 . S
C2343 C2346 1.463 . S
C2343 C2348 1.350 . S
C2343 N2351 1.427 . S
C2344 H2335 0.930 . S
C2344 C2342 1.378 . S
C2344 C2345 1.367 . S
C2345 C2344 1.367 . S
C2345 C2347 1.433 . S
C2346 C2342 1.350 . S
C2346 C2343 1.463 . S
C2346 N2350 1.427 . S
C2347 H2337 0.929 . S
C2347 C2345 1.433 . S
C2347 N2350 1.384 . S
C2348 H2339 0.929 . S
C2348 C2340 1.378 . S
C2348 C2343 1.350 . S
C2349 H2336 0.929 . S
C2349 C2341 1.433 . S
C2349 N2351 1.384 . S
N2350 C2346 1.427 . S
N2350 C2347 1.384 . S
N2351 C2343 1.427 . S
N2351 C2349 1.384 . S
H2352 C2358 0.930 . S
H2353 C2362 0.930 . S
H2354 C2367 0.929 . S
H2355 C2365 0.929 . S
H2356 C2360 0.929 . S
H2357 C2366 0.929 . S
C2358 H2352 0.930 . S
C2358 C2359 1.367 . S
C2358 C2366 1.378 . S
C2359 C2358 1.367 . S
C2359 C2367 1.433 . S
C2360 H2356 0.929 . S
C2360 C2362 1.378 . S
C2360 C2364 1.350 . S
C2361 C2364 1.463 . S
C2361 C2366 1.350 . S
C2361 N2369 1.427 . S
C2362 H2353 0.930 . S
C2362 C2360 1.378 . S
C2362 C2363 1.367 . S
C2363 C2362 1.367 . S
C2363 C2365 1.433 . S
C2364 C2360 1.350 . S
C2364 C2361 1.463 . S
C2364 N2368 1.427 . S
C2365 H2355 0.929 . S
C2365 C2363 1.433 . S
C2365 N2368 1.384 . S
C2366 H2357 0.929 . S
C2366 C2358 1.378 . S
C2366 C2361 1.350 . S
C2367 H2354 0.929 . S
C2367 C2359 1.433 . S
C2367 N2369 1.384 . S
N2368 C2364 1.427 . S
N2368 C2365 1.384 . S
N2369 C2361 1.427 . S
N2369 C2367 1.384 . S
H2370 C2376 0.930 . S
H2371 C2380 0.930 . S
H2372 C2385 0.929 . S
H2373 C2383 0.929 . S
H2374 C2378 0.929 . S
H2375 C2384 0.929 . S
C2376 H2370 0.930 . S
C2376 C2377 1.367 . S
C2376 C2384 1.378 . S
C2377 C2376 1.367 . S
C2377 C2385 1.433 . S
C2378 H2374 0.929 . S
C2378 C2380 1.378 . S
C2378 C2382 1.350 . S
C2379 C2382 1.463 . S
C2379 C2384 1.350 . S
C2379 N2387 1.427 . S
C2380 H2371 0.930 . S
C2380 C2378 1.378 . S
C2380 C2381 1.367 . S
C2381 C2380 1.367 . S
C2381 C2383 1.433 . S
C2382 C2378 1.350 . S
C2382 C2379 1.463 . S
C2382 N2386 1.427 . S
C2383 H2373 0.929 . S
C2383 C2381 1.433 . S
C2383 N2386 1.384 . S
C2384 H2375 0.929 . S
C2384 C2376 1.378 . S
C2384 C2379 1.350 . S
C2385 H2372 0.929 . S
C2385 C2377 1.433 . S
C2385 N2387 1.384 . S
N2386 C2382 1.427 . S
N2386 C2383 1.384 . S
N2387 C2379 1.427 . S
N2387 C2385 1.384 . S
H2388 C2394 0.930 . S
H2389 C2398 0.930 . S
H2390 C2403 0.929 . S
H2391 C2401 0.929 . S
H2392 C2396 0.929 . S
H2393 C2402 0.929 . S
C2394 H2388 0.930 . S
C2394 C2395 1.367 . S
C2394 C2402 1.378 . S
C2395 C2394 1.367 . S
C2395 C2403 1.433 . S
C2396 H2392 0.929 . S
C2396 C2398 1.378 . S
C2396 C2400 1.350 . S
C2397 C2400 1.463 . S
C2397 C2402 1.350 . S
C2397 N2405 1.427 . S
C2398 H2389 0.930 . S
C2398 C2396 1.378 . S
C2398 C2399 1.367 . S
C2399 C2398 1.367 . S
C2399 C2401 1.433 . S
C2400 C2396 1.350 . S
C2400 C2397 1.463 . S
C2400 N2404 1.427 . S
C2401 H2391 0.929 . S
C2401 C2399 1.433 . S
C2401 N2404 1.384 . S
C2402 H2393 0.929 . S
C2402 C2394 1.378 . S
C2402 C2397 1.350 . S
C2403 H2390 0.929 . S
C2403 C2395 1.433 . S
C2403 N2405 1.384 . S
N2404 C2400 1.427 . S
N2404 C2401 1.384 . S
N2405 C2397 1.427 . S
N2405 C2403 1.384 . S
H2406 C2412 0.930 . S
H2407 C2416 0.930 . S
H2408 C2421 0.929 . S
H2409 C2419 0.929 . S
H2410 C2414 0.930 . S
H2411 C2420 0.929 . S
C2412 H2406 0.930 . S
C2412 C2413 1.367 . S
C2412 C2420 1.378 . S
C2413 C2412 1.367 . S
C2413 C2421 1.433 . S
C2414 H2410 0.930 . S
C2414 C2416 1.375 1_655 S
C2414 C2418 1.351 . S
C2415 C2418 1.463 . S
C2415 C2420 1.350 . S
C2415 N2423 1.427 . S
C2416 H2407 0.930 . S
C2416 C2414 1.375 1_455 S
C2416 C2417 1.367 . S
C2417 C2416 1.367 . S
C2417 C2419 1.433 . S
C2418 C2414 1.351 . S
C2418 C2415 1.463 . S
C2418 N2422 1.427 1_655 S
C2419 H2409 0.929 . S
C2419 C2417 1.433 . S
C2419 N2422 1.384 . S
C2420 H2411 0.929 . S
C2420 C2412 1.378 . S
C2420 C2415 1.350 . S
C2421 H2408 0.929 . S
C2421 C2413 1.433 . S
C2421 N2423 1.384 . S
N2422 C2418 1.427 1_455 S
N2422 C2419 1.384 . S
N2423 C2415 1.427 . S
N2423 C2421 1.384 . S
H2424 C2430 0.930 . S
H2425 C2434 0.930 . S
H2426 C2439 0.929 . S
H2427 C2437 0.929 . S
H2428 C2432 0.929 . S
H2429 C2438 0.929 . S
C2430 H2424 0.930 . S
C2430 C2431 1.367 . S
C2430 C2438 1.378 . S
C2431 C2430 1.367 . S
C2431 C2439 1.433 . S
C2432 H2428 0.929 . S
C2432 C2434 1.378 . S
C2432 C2436 1.350 . S
C2433 C2436 1.463 . S
C2433 C2438 1.350 . S
C2433 N2441 1.427 . S
C2434 H2425 0.930 . S
C2434 C2432 1.378 . S
C2434 C2435 1.367 . S
C2435 C2434 1.367 . S
C2435 C2437 1.433 . S
C2436 C2432 1.350 . S
C2436 C2433 1.463 . S
C2436 N2440 1.427 . S
C2437 H2427 0.929 . S
C2437 C2435 1.433 . S
C2437 N2440 1.384 . S
C2438 H2429 0.929 . S
C2438 C2430 1.378 . S
C2438 C2433 1.350 . S
C2439 H2426 0.929 . S
C2439 C2431 1.433 . S
C2439 N2441 1.384 . S
N2440 C2436 1.427 . S
N2440 C2437 1.384 . S
N2441 C2433 1.427 . S
N2441 C2439 1.384 . S
H2442 C2448 0.930 . S
H2443 C2452 0.930 . S
H2444 C2457 0.929 . S
H2445 C2455 0.929 . S
H2446 C2450 0.929 . S
H2447 C2456 0.965 . S
C2448 H2442 0.930 . S
C2448 C2449 1.367 . S
C2448 C2456 1.321 1_455 S
C2449 C2448 1.367 . S
C2449 C2457 1.433 . S
C2450 H2446 0.929 . S
C2450 C2452 1.378 . S
C2450 C2454 1.350 . S
C2451 C2454 1.463 . S
C2451 C2456 1.371 . S
C2451 N2459 1.427 1_655 S
C2452 H2443 0.930 . S
C2452 C2450 1.378 . S
C2452 C2453 1.367 . S
C2453 C2452 1.367 . S
C2453 C2455 1.433 . S
C2454 C2450 1.350 . S
C2454 C2451 1.463 . S
C2454 N2458 1.427 . S
C2455 H2445 0.929 . S
C2455 C2453 1.433 . S
C2455 N2458 1.384 . S
C2456 H2447 0.965 . S
C2456 C2448 1.321 1_655 S
C2456 C2451 1.371 . S
C2457 H2444 0.929 . S
C2457 C2449 1.433 . S
C2457 N2459 1.384 . S
N2458 C2454 1.427 . S
N2458 C2455 1.384 . S
N2459 C2451 1.427 1_455 S
N2459 C2457 1.384 . S
H2460 C2466 0.930 . S
H2461 C2470 0.930 . S
H2462 C2475 0.929 . S
H2463 C2473 0.929 . S
H2464 C2468 0.929 . S
H2465 C2474 0.929 . S
C2466 H2460 0.930 . S
C2466 C2467 1.367 . S
C2466 C2474 1.378 . S
C2467 C2466 1.367 . S
C2467 C2475 1.433 . S
C2468 H2464 0.929 . S
C2468 C2470 1.378 . S
C2468 C2472 1.350 . S
C2469 C2472 1.463 . S
C2469 C2474 1.350 . S
C2469 N2477 1.427 . S
C2470 H2461 0.930 . S
C2470 C2468 1.378 . S
C2470 C2471 1.367 . S
C2471 C2470 1.367 . S
C2471 C2473 1.433 . S
C2472 C2468 1.350 . S
C2472 C2469 1.463 . S
C2472 N2476 1.427 . S
C2473 H2463 0.929 . S
C2473 C2471 1.433 . S
C2473 N2476 1.384 . S
C2474 H2465 0.929 . S
C2474 C2466 1.378 . S
C2474 C2469 1.350 . S
C2475 H2462 0.929 . S
C2475 C2467 1.433 . S
C2475 N2477 1.384 . S
N2476 C2472 1.427 . S
N2476 C2473 1.384 . S
N2477 C2469 1.427 . S
N2477 C2475 1.384 . S
H2478 C2484 0.930 . S
H2479 C2488 0.930 . S
H2480 C2493 0.929 . S
H2481 C2491 0.929 . S
H2482 C2486 0.929 . S
H2483 C2492 0.929 . S
C2484 H2478 0.930 . S
C2484 C2485 1.367 . S
C2484 C2492 1.378 . S
C2485 C2484 1.367 . S
C2485 C2493 1.433 . S
C2486 H2482 0.929 . S
C2486 C2488 1.378 . S
C2486 C2490 1.350 . S
C2487 C2490 1.463 . S
C2487 C2492 1.350 . S
C2487 N2495 1.427 . S
C2488 H2479 0.930 . S
C2488 C2486 1.378 . S
C2488 C2489 1.367 . S
C2489 C2488 1.367 . S
C2489 C2491 1.433 . S
C2490 C2486 1.350 . S
C2490 C2487 1.463 . S
C2490 N2494 1.427 . S
C2491 H2481 0.929 . S
C2491 C2489 1.433 . S
C2491 N2494 1.384 . S
C2492 H2483 0.929 . S
C2492 C2484 1.378 . S
C2492 C2487 1.350 . S
C2493 H2480 0.929 . S
C2493 C2485 1.433 . S
C2493 N2495 1.384 . S
N2494 C2490 1.427 . S
N2494 C2491 1.384 . S
N2495 C2487 1.427 . S
N2495 C2493 1.384 . S
C1063 C238 1.379 1_554 S
C1067 C7 1.363 . S
C1081 C40 1.379 . S
C1085 C139 1.363 . S
C1099 C73 1.378 . S
C1103 C172 1.367 . S
C1117 C205 1.377 . S
C1121 C106 1.368 1_556 S
C1135 C271 1.373 . S
C1139 C502 1.366 1_556 S
C1153 C403 1.365 . S
C1157 C304 1.373 . S
C1171 C337 1.379 . S
C1175 C436 1.364 . S
C1189 C469 1.379 . S
C1193 C370 1.364 1_554 S
C1207 C766 1.366 . S
C1211 C535 1.379 . S
C1225 C667 1.368 . S
C1229 C568 1.370 1_556 S
C1243 C700 1.378 1_554 S
C1247 C601 1.363 . S
C1261 C733 1.366 . S
C1265 C634 1.373 . S
C1279 C1030 1.369 . S
C1283 C799 1.376 . S
C1297 C832 1.372 1_554 S
C1301 C931 1.374 . S
C1315 C964 1.376 1_556 S
C1319 C865 1.363 . S
C1333 C997 1.363 . S
C1337 C898 1.377 . S
C1351 C18 0.719 . S
C1355 C249 0.699 . S
C1369 C51 0.721 . S
C1373 C150 0.704 1_556 S
C1387 C84 0.716 1_554 S
C1391 C183 0.716 . S
C1405 C117 0.715 . S
C1409 C216 0.717 . S
C1423 C513 0.699 . S
C1427 C282 0.709 . S
C1441 C315 0.719 . S
C1445 C414 0.700 1_554 S
C1459 C447 0.717 . S
C1463 C348 0.698 1_556 S
C1477 C381 0.704 . S
C1481 C480 0.721 . S
C1495 C546 0.718 1_554 S
C1499 C777 0.713 . S
C1513 C678 0.698 . S
C1517 C579 0.710 . S
C1531 C711 0.704 . S
C1535 C612 0.702 . S
C1549 C645 0.708 . S
C1553 C744 0.699 1_556 S
C1567 C810 0.698 1_556 S
C1571 C1041 0.711 . S
C1585 C843 0.719 . S
C1589 C942 0.699 . S
C1603 C876 0.698 . S
C1607 C975 0.711 . S
C1621 C909 0.710 . S
C1625 C1008 0.698 1_554 S
C1639 N211 1.580 . S
C1643 N13 1.581 . S
C1657 N46 1.581 . S
C1661 N244 1.581 . S
C1675 N145 1.581 . S
C1679 N79 1.580 . S
C1693 N178 1.579 . S
C1697 N112 1.579 . S
C1711 N475 1.581 . S
C1715 N277 1.580 . S
C1729 N508 1.580 . S
C1733 N310 1.579 . S
C1747 N409 1.581 . S
C1751 N343 1.581 . S
C1765 N442 1.580 . S
C1769 N376 1.580 . S
C1783 N541 1.580 . S
C1787 N739 1.580 . S
C1801 N772 1.581 . S
C1805 N574 1.580 . S
C1819 N673 1.580 . S
C1823 N607 1.579 . S
C1837 N706 1.581 . S
C1841 N640 1.581 . S
C1855 N1003 1.580 . S
C1859 N805 1.579 . S
C1873 N838 1.581 . S
C1877 N1036 1.580 . S
C1891 N937 1.580 . S
C1895 N871 1.581 . S
C1909 N970 1.580 . S
C1913 N904 1.580 . S
C1927 C21 1.626 . S
C1931 N893 1.539 . S
C1945 N266 1.527 . S
C1949 C54 1.625 . S
C1963 N827 1.542 . S
C1967 C87 1.628 . S
C1981 C120 1.625 . S
C1985 N332 1.535 . S
C1999 C153 1.625 . S
C2003 N959 1.527 . S
C2017 C186 1.627 . S
C2021 N464 1.532 . S
C2035 C219 1.624 . S
C2039 N1025 1.527 . S
C2053 N398 1.528 . S
C2057 C252 1.626 . S
C2071 N629 1.527 . S
C2075 C285 1.625 . S
C2089 C318 1.625 . S
C2093 N2 1.535 . S
C2107 C351 1.625 . S
C2111 N563 1.527 . S
C2125 N68 1.533 . S
C2129 C384 1.625 . S
C2143 N695 1.542 . S
C2147 C417 1.627 . S
C2161 C450 1.626 . S
C2165 N200 1.539 . S
C2179 C483 1.624 . S
C2183 N761 1.526 . S
C2197 N134 1.533 . S
C2201 C516 1.627 . S
C2215 N365 1.534 . S
C2219 C549 1.625 . S
C2233 N794 1.526 . S
C2237 C582 1.625 . S
C2251 C615 1.625 . S
C2255 N299 1.528 . S
C2269 C648 1.628 . S
C2273 N860 1.543 . S
C2287 N431 1.543 . S
C2291 C681 1.628 . S
C2305 C714 1.627 . S
C2309 N992 1.542 . S
C2323 N497 1.536 . S
C2327 C747 1.627 . S
C2341 N926 1.527 . S
C2345 C780 1.624 . S
C2359 N101 1.537 . S
C2363 C813 1.626 . S
C2377 C846 1.628 . S
C2381 N530 1.543 . S
C2395 N35 1.540 . S
C2399 C879 1.626 . S
C2413 N596 1.543 . S
C2417 C912 1.628 . S
C2431 N167 1.528 . S
C2435 C945 1.626 . S
C2449 C978 1.628 . S
C2453 N728 1.542 . S
C2467 C1011 1.624 . S
C2471 N233 1.526 . S
C2485 C1044 1.628 . S
C2489 N662 1.542 . S
