# Generated by pormake.
# Topology fng, (5)-cn, num edge types: 1
# Building blocks:
#     Node 0, Type 0, BuildingBlock: BEQFEK_clean_sbu_0, # of connection points: 5
#     Node 1, Type 0, BuildingBlock: BEQFEK_clean_sbu_0, # of connection points: 5
#     Node 2, Type 0, BuildingBlock: BEQFEK_clean_sbu_0, # of connection points: 5
#     Node 3, Type 0, BuildingBlock: BEQFEK_clean_sbu_0, # of connection points: 5
#     Node 4, Type 0, BuildingBlock: BEQFEK_clean_sbu_0, # of connection points: 5
#     Node 5, Type 0, BuildingBlock: BEQFEK_clean_sbu_0, # of connection points: 5
#     Node 6, Type 0, BuildingBlock: BEQFEK_clean_sbu_0, # of connection points: 5
#     Node 7, Type 0, BuildingBlock: BEQFEK_clean_sbu_0, # of connection points: 5
#     Node 8, Type 0, BuildingBlock: BEQFEK_clean_sbu_0, # of connection points: 5
#     Node 9, Type 0, BuildingBlock: BEQFEK_clean_sbu_0, # of connection points: 5
#     Node 10, Type 0, BuildingBlock: BEQFEK_clean_sbu_0, # of connection points: 5
#     Node 11, Type 0, BuildingBlock: BEQFEK_clean_sbu_0, # of connection points: 5
#     Node 12, Type 0, BuildingBlock: BEQFEK_clean_sbu_0, # of connection points: 5
#     Node 13, Type 0, BuildingBlock: BEQFEK_clean_sbu_0, # of connection points: 5
#     Node 14, Type 0, BuildingBlock: BEQFEK_clean_sbu_0, # of connection points: 5
#     Node 15, Type 0, BuildingBlock: BEQFEK_clean_sbu_0, # of connection points: 5
#     Node 16, Type 0, BuildingBlock: BEQFEK_clean_sbu_0, # of connection points: 5
#     Node 17, Type 0, BuildingBlock: BEQFEK_clean_sbu_0, # of connection points: 5
#     Edge 18, Type (0, 0), BuildingBlock: AJUNOK_clean_linker_0, # of connection points: 2
#     Edge 19, Type (0, 0), BuildingBlock: AJUNOK_clean_linker_0, # of connection points: 2
#     Edge 20, Type (0, 0), BuildingBlock: AJUNOK_clean_linker_0, # of connection points: 2
#     Edge 21, Type (0, 0), BuildingBlock: AJUNOK_clean_linker_0, # of connection points: 2
#     Edge 22, Type (0, 0), BuildingBlock: AJUNOK_clean_linker_0, # of connection points: 2
#     Edge 23, Type (0, 0), BuildingBlock: AJUNOK_clean_linker_0, # of connection points: 2
#     Edge 24, Type (0, 0), BuildingBlock: AJUNOK_clean_linker_0, # of connection points: 2
#     Edge 25, Type (0, 0), BuildingBlock: AJUNOK_clean_linker_0, # of connection points: 2
#     Edge 26, Type (0, 0), BuildingBlock: AJUNOK_clean_linker_0, # of connection points: 2
#     Edge 27, Type (0, 0), BuildingBlock: AJUNOK_clean_linker_0, # of connection points: 2
#     Edge 28, Type (0, 0), BuildingBlock: AJUNOK_clean_linker_0, # of connection points: 2
#     Edge 29, Type (0, 0), BuildingBlock: AJUNOK_clean_linker_0, # of connection points: 2
#     Edge 30, Type (0, 0), BuildingBlock: AJUNOK_clean_linker_0, # of connection points: 2
#     Edge 31, Type (0, 0), BuildingBlock: AJUNOK_clean_linker_0, # of connection points: 2
#     Edge 32, Type (0, 0), BuildingBlock: AJUNOK_clean_linker_0, # of connection points: 2
#     Edge 33, Type (0, 0), BuildingBlock: AJUNOK_clean_linker_0, # of connection points: 2
#     Edge 34, Type (0, 0), BuildingBlock: AJUNOK_clean_linker_0, # of connection points: 2
#     Edge 35, Type (0, 0), BuildingBlock: AJUNOK_clean_linker_0, # of connection points: 2
#     Edge 36, Type (0, 0), BuildingBlock: AJUNOK_clean_linker_0, # of connection points: 2
#     Edge 37, Type (0, 0), BuildingBlock: AJUNOK_clean_linker_0, # of connection points: 2
#     Edge 38, Type (0, 0), BuildingBlock: AJUNOK_clean_linker_0, # of connection points: 2
#     Edge 39, Type (0, 0), BuildingBlock: AJUNOK_clean_linker_0, # of connection points: 2
#     Edge 40, Type (0, 0), BuildingBlock: AJUNOK_clean_linker_0, # of connection points: 2
#     Edge 41, Type (0, 0), BuildingBlock: AJUNOK_clean_linker_0, # of connection points: 2
#     Edge 42, Type (0, 0), BuildingBlock: AJUNOK_clean_linker_0, # of connection points: 2
#     Edge 43, Type (0, 0), BuildingBlock: AJUNOK_clean_linker_0, # of connection points: 2
#     Edge 44, Type (0, 0), BuildingBlock: AJUNOK_clean_linker_0, # of connection points: 2
#     Edge 45, Type (0, 0), BuildingBlock: AJUNOK_clean_linker_0, # of connection points: 2
#     Edge 46, Type (0, 0), BuildingBlock: AJUNOK_clean_linker_0, # of connection points: 2
#     Edge 47, Type (0, 0), BuildingBlock: AJUNOK_clean_linker_0, # of connection points: 2
#     Edge 48, Type (0, 0), BuildingBlock: AJUNOK_clean_linker_0, # of connection points: 2
#     Edge 49, Type (0, 0), BuildingBlock: AJUNOK_clean_linker_0, # of connection points: 2
#     Edge 50, Type (0, 0), BuildingBlock: AJUNOK_clean_linker_0, # of connection points: 2
#     Edge 51, Type (0, 0), BuildingBlock: AJUNOK_clean_linker_0, # of connection points: 2
#     Edge 52, Type (0, 0), BuildingBlock: AJUNOK_clean_linker_0, # of connection points: 2
#     Edge 53, Type (0, 0), BuildingBlock: AJUNOK_clean_linker_0, # of connection points: 2
#     Edge 54, Type (0, 0), BuildingBlock: AJUNOK_clean_linker_0, # of connection points: 2
#     Edge 55, Type (0, 0), BuildingBlock: AJUNOK_clean_linker_0, # of connection points: 2
#     Edge 56, Type (0, 0), BuildingBlock: AJUNOK_clean_linker_0, # of connection points: 2
#     Edge 57, Type (0, 0), BuildingBlock: AJUNOK_clean_linker_0, # of connection points: 2
#     Edge 58, Type (0, 0), BuildingBlock: AJUNOK_clean_linker_0, # of connection points: 2
#     Edge 59, Type (0, 0), BuildingBlock: AJUNOK_clean_linker_0, # of connection points: 2
#     Edge 60, Type (0, 0), BuildingBlock: AJUNOK_clean_linker_0, # of connection points: 2
#     Edge 61, Type (0, 0), BuildingBlock: AJUNOK_clean_linker_0, # of connection points: 2
#     Edge 62, Type (0, 0), BuildingBlock: AJUNOK_clean_linker_0, # of connection points: 2
# Relax obj value: 0.359
# Max RMSD: 0.252
# Mean RMSD: 0.252
data_MOF--net-fng--node1-BEQFEK_clean_sbu_0--edge1-AJUNOK_clean_linker_0
_symmetry_space_group_name_H-M    P1
_symmetry_Int_Tables_number       1
_symmetry_cell_setting            triclinic
loop_
_symmetry_equiv_pos_as_xyz
'x, y, z'
_cell_length_a     56.619491
_cell_length_b     56.581521
_cell_length_c     14.426492
_cell_angle_alpha  90.015762
_cell_angle_beta   89.990641
_cell_angle_gamma 119.99938
loop_
_atom_site_label
_atom_site_type_symbol
_atom_site_fract_x
_atom_site_fract_y
_atom_site_fract_z
_atom_type_partial_charge
Co0 Co 0.11502 0.23226 0.0117 0.0
Co1 Co 0.10178 0.20278 0.20344 0.0
C2 C 0.05787 0.19214 0.06321 0.0
O3 O 0.07569 0.20928 0.00856 0.0
O4 O 0.0646 0.18772 0.14307 0.0
C5 C 0.10677 0.25136 0.842 0.0
O6 O 0.08579 0.25078 0.88294 0.0
C7 C 0.08532 0.20247 0.3943 0.0
C8 C 0.10953 0.18767 0.46814 0.0
C9 C 0.09403 0.20016 0.48265 0.0
N10 N 0.09655 0.19333 0.33184 0.0
N11 N 0.11023 0.18365 0.37657 0.0
C12 C 0.06653 0.21275 0.36747 0.0
H13 H 0.05291 0.19995 0.31074 0.0
H14 H 0.0786 0.23384 0.34018 0.0
H15 H 0.05389 0.21218 0.42714 0.0
C16 C 0.1404 0.28181 0.13337 0.0
N17 N 0.1267 0.25461 0.11835 0.0
N18 N 0.12412 0.24191 0.19733 0.0
C19 C 0.1382 0.26073 0.26314 0.0
C20 C 0.14806 0.28646 0.22601 0.0
C21 C 0.14707 0.30275 0.05964 0.0
H22 H 0.12972 0.29566 0.0106 0.0
H23 H 0.15195 0.3227 0.09026 0.0
H24 H 0.16504 0.3054 0.02011 0.0
O25 O 0.13088 0.20792 0.00808 0.0
O26 O 0.12146 0.18611 0.14285 0.0
H27 H 0.14667 0.23562 0.35307 0.0
H28 H 0.16644 0.27156 0.37697 0.0
C29 C 0.14605 0.25484 0.35555 0.0
H30 H 0.13137 0.25348 0.40828 0.0
H31 H 0.12193 0.17648 0.34433 0.0
O32 O 0.12529 0.25132 0.89165 0.0
C33 C 0.13187 0.1906 0.06189 0.0
Co34 Co 0.77109 0.88414 0.00186 0.0
Co35 Co 0.80022 0.89949 0.19399 0.0
C36 C 0.81076 0.8664 0.05277 0.0
O37 O 0.79401 0.8676 0.9976 0.0
O38 O 0.81491 0.87713 0.13329 0.0
C39 C 0.75178 0.85674 0.83274 0.0
O40 O 0.75219 0.83629 0.87411 0.0
C41 C 0.80042 0.88324 0.38479 0.0
C42 C 0.81562 0.92235 0.45849 0.0
C43 C 0.8029 0.89434 0.47311 0.0
N44 N 0.80969 0.9036 0.32228 0.0
N45 N 0.8196 0.92701 0.36691 0.0
C46 C 0.78984 0.85411 0.35796 0.0
H47 H 0.8024 0.8531 0.30077 0.0
H48 H 0.76871 0.84524 0.33126 0.0
H49 H 0.79043 0.84199 0.41746 0.0
C50 C 0.72135 0.86004 0.12302 0.0
N51 N 0.74855 0.87325 0.10836 0.0
N52 N 0.76119 0.88304 0.18768 0.0
C53 C 0.74238 0.87836 0.2534 0.0
C54 C 0.71667 0.86288 0.21584 0.0
C55 C 0.70045 0.84625 0.04885 0.0
H56 H 0.7072 0.83564 1.00005 0.0
H57 H 0.6803 0.83157 0.07901 0.0
H58 H 0.69842 0.86194 0.00913 0.0
O59 O 0.7955 0.9244 0.99922 0.0
O60 O 0.81716 0.93593 0.13434 0.0
H61 H 0.76762 0.91159 0.34443 0.0
H62 H 0.73173 0.89567 0.3681 0.0
C63 C 0.74831 0.89185 0.3463 0.0
H64 H 0.74947 0.87826 0.39844 0.0
H65 H 0.82693 0.9459 0.33461 0.0
O66 O 0.75204 0.87549 0.88198 0.0
C67 C 0.81284 0.94235 0.05395 0.0
Co68 Co 0.11696 0.88818 0.00958 0.0
Co69 Co 0.10132 0.90081 0.20367 0.0
C70 C 0.13372 0.94532 0.06736 0.0
O71 O 0.13214 0.92778 0.00936 0.0
O72 O 0.12342 0.93811 0.14801 0.0
C73 C 0.14484 0.89988 0.83976 0.0
O74 O 0.16349 0.92153 0.88367 0.0
C75 C 0.11516 0.91666 0.39616 0.0
C76 C 0.07508 0.89296 0.4644 0.0
C77 C 0.10282 0.90838 0.48242 0.0
N78 N 0.09567 0.90572 0.33076 0.0
N79 N 0.07167 0.89247 0.37201 0.0
C80 C 0.14507 0.93108 0.37503 0.0
H81 H 0.14871 0.92687 0.30291 0.0
H82 H 0.15614 0.92507 0.42452 0.0
H83 H 0.15338 0.95339 0.38195 0.0
C84 C 0.1414 0.86228 0.12893 0.0
N85 N 0.12803 0.87621 0.11616 0.0
N86 N 0.11886 0.87917 0.19681 0.0
C87 C 0.12456 0.86558 0.26194 0.0
C88 C 0.13958 0.85514 0.22195 0.0
C89 C 0.1543 0.85476 0.05278 0.0
H90 H 0.16458 0.872 0.0033 0.0
H91 H 0.16911 0.84916 0.0808 0.0
H92 H 0.13814 0.83705 0.0144 0.0
O93 O 0.07654 0.87077 0.0052 0.0
O94 O 0.06542 0.88108 0.14064 0.0
H95 H 0.11026 0.83998 0.3837 0.0
H96 H 0.12892 0.87564 0.40633 0.0
C97 C 0.11374 0.86003 0.35905 0.0
H98 H 0.09414 0.8598 0.36285 0.0
H99 H 0.05321 0.88102 0.3371 0.0
O100 O 0.12713 0.8799 0.8874 0.0
C101 C 0.05868 0.86989 0.06099 0.0
Co102 Co 0.22824 0.11654 0.99483 0.0
Co103 Co 0.2002 0.10122 0.80051 0.0
C104 C 0.18799 0.05818 0.93896 0.0
O105 O 0.20403 0.07676 0.99414 0.0
O106 O 0.18447 0.06392 0.85642 0.0
C107 C 0.24357 0.10495 0.16522 0.0
O108 O 0.24272 0.08387 0.1238 0.0
C109 C 0.18976 0.0828 0.60514 0.0
C110 C 0.19126 0.11907 0.54229 0.0
C111 C 0.19179 0.09548 0.52001 0.0
N112 N 0.19017 0.09933 0.67313 0.0
N113 N 0.18986 0.12034 0.6348 0.0
C114 C 0.18677 0.05536 0.62315 0.0
H115 H 0.17036 0.04432 0.67493 0.0
H116 H 0.2058 0.05774 0.65392 0.0
H117 H 0.18158 0.04302 0.55873 0.0
C118 C 0.27874 0.14396 0.8789 0.0
N119 N 0.25146 0.12865 0.89014 0.0
N120 N 0.23966 0.12151 0.80826 0.0
C121 C 0.25929 0.13181 0.74257 0.0
C122 C 0.28459 0.14658 0.78446 0.0
C123 C 0.29846 0.15651 0.95722 0.0
H124 H 0.28972 0.16398 0.01089 0.0
H125 H 0.30187 0.14068 0.98962 0.0
H126 H 0.31828 0.17356 0.93269 0.0
O127 O 0.20557 0.13359 0.9989 0.0
O128 O 0.18425 0.12175 0.86372 0.0
H129 H 0.24404 0.13585 0.6118 0.0
H130 H 0.27348 0.13169 0.60247 0.0
C131 C 0.25443 0.12546 0.64167 0.0
H132 H 0.24161 0.10322 0.63418 0.0
H133 H 0.19116 0.13678 0.67193 0.0
O134 O 0.24633 0.12487 0.11633 0.0
C135 C 0.1885 0.13365 0.94204 0.0
Co136 Co 0.88557 0.11263 0.99596 0.0
Co137 Co 0.90221 0.10216 0.80223 0.0
C138 C 0.945 0.13213 0.9352 0.0
O139 O 0.92639 0.1292 0.99151 0.0
O140 O 0.93913 0.12262 0.85335 0.0
C141 C 0.8983 0.14141 0.16377 0.0
O142 O 0.92007 0.15961 0.11922 0.0
C143 C 0.91663 0.10929 0.60337 0.0
C144 C 0.88063 0.07241 0.549 0.0
C145 C 0.90272 0.09707 0.52151 0.0
N146 N 0.9023 0.09325 0.6749 0.0
N147 N 0.88151 0.07074 0.64148 0.0
C148 C 0.94155 0.13676 0.61517 0.0
H149 H 0.94418 0.14333 0.68858 0.0
H150 H 0.94057 0.15218 0.57034 0.0
H151 H 0.95976 0.13543 0.59497 0.0
C152 C 0.85194 0.12842 0.87414 0.0
N153 N 0.87133 0.12165 0.89058 0.0
N154 N 0.88369 0.12283 0.81251 0.0
C155 C 0.8752 0.13371 0.74656 0.0
C156 C 0.85322 0.13585 0.78042 0.0
C157 C 0.83218 0.12647 0.94664 0.0
H158 H 0.83185 0.11359 0.00524 0.0
H159 H 0.83863 0.14718 0.97376 0.0
H160 H 0.81141 0.11771 0.91682 0.0
O161 O 0.86942 0.07332 0.00371 0.0
O162 O 0.88137 0.06539 0.86625 0.0
H163 H 0.89124 0.13794 0.6088 0.0
H164 H 0.88948 0.16719 0.64851 0.0
C165 C 0.89368 0.1508 0.66972 0.0
H166 H 0.91509 0.16087 0.69389 0.0
H167 H 0.86644 0.05538 0.68223 0.0
O168 O 0.87803 0.12376 0.11712 0.0
C169 C 0.86964 0.05687 0.94453 0.0
Co170 Co 0.88739 0.772 0.98957 0.0
Co171 Co 0.90219 0.79984 0.79509 0.0
C172 C 0.86931 0.81166 0.92771 0.0
O173 O 0.8711 0.79571 0.98555 0.0
O174 O 0.88006 0.8154 0.84738 0.0
C175 C 0.86049 0.75682 0.16065 0.0
O176 O 0.84081 0.75897 0.12073 0.0
C177 C 0.89518 0.81049 0.59969 0.0
C178 C 0.92889 0.80702 0.53732 0.0
C179 C 0.90528 0.80749 0.51498 0.0
N180 N 0.91095 0.8096 0.66787 0.0
N181 N 0.9317 0.80875 0.62982 0.0
C182 C 0.87152 0.81475 0.61702 0.0
H183 H 0.87805 0.83218 0.66526 0.0
H184 H 0.8548 0.79653 0.65153 0.0
H185 H 0.86416 0.81931 0.55186 0.0
C186 C 0.86532 0.72129 0.8742 0.0
N187 N 0.87747 0.74863 0.88517 0.0
N188 N 0.8828 0.76038 0.80314 0.0
C189 C 0.87354 0.74069 0.73764 0.0
C190 C 0.86255 0.71536 0.77974 0.0
C191 C 0.85741 0.70158 0.9529 0.0
H192 H 0.87329 0.71019 0.00766 0.0
H193 H 0.83808 0.69845 0.98356 0.0
H194 H 0.85452 0.68163 0.92923 0.0
O195 O 0.92712 0.79537 0.99736 0.0
O196 O 0.93831 0.81601 0.86091 0.0
H197 H 0.89259 0.75493 0.60597 0.0
H198 H 0.85834 0.72648 0.59839 0.0
C199 C 0.87196 0.74547 0.63678 0.0
H200 H 0.86343 0.75907 0.62962 0.0
H201 H 0.94642 0.80683 0.66725 0.0
O202 O 0.87706 0.75352 0.11036 0.0
C203 C 0.94493 0.81225 0.9417 0.0
Co204 Co 0.78094 0.56171 0.34287 0.0
Co205 Co 0.7688 0.53209 0.53513 0.0
C206 C 0.72417 0.52091 0.39754 0.0
O207 O 0.74144 0.53805 0.34148 0.0
O208 O 0.73167 0.51666 0.47613 0.0
C209 C 0.77067 0.57869 0.17118 0.0
O210 O 0.74925 0.57702 0.2126 0.0
C211 C 0.75235 0.53125 0.72726 0.0
C212 C 0.77357 0.51283 0.79928 0.0
C213 C 0.75912 0.52632 0.81507 0.0
N214 N 0.76326 0.52213 0.66346 0.0
N215 N 0.77524 0.51042 0.70701 0.0
C216 C 0.73653 0.54513 0.70334 0.0
H217 H 0.7244 0.53601 0.63955 0.0
H218 H 0.75072 0.56702 0.68913 0.0
H219 H 0.72278 0.54335 0.7611 0.0
C220 C 0.80602 0.61126 0.46742 0.0
N221 N 0.79275 0.58411 0.45073 0.0
N222 N 0.79008 0.57118 0.52942 0.0
C223 C 0.80325 0.58974 0.59673 0.0
C224 C 0.81265 0.61556 0.56116 0.0
C225 C 0.81255 0.63255 0.39511 0.0
H226 H 0.79797 0.62394 0.3365 0.0
H227 H 0.81209 0.65037 0.42528 0.0
H228 H 0.83343 0.63965 0.36844 0.0
O229 O 0.79783 0.53825 0.33882 0.0
O230 O 0.78926 0.51638 0.47318 0.0
H231 H 0.83246 0.60048 0.70698 0.0
H232 H 0.79778 0.58296 0.743 0.0
C233 C 0.81174 0.58382 0.68807 0.0
H234 H 0.81201 0.56441 0.68526 0.0
H235 H 0.78625 0.50258 0.67394 0.0
O236 O 0.79001 0.58028 0.22079 0.0
C237 C 0.79967 0.5213 0.39211 0.0
Co238 Co 0.43798 0.22077 0.34791 0.0
Co239 Co 0.46795 0.23541 0.53962 0.0
C240 C 0.47822 0.20311 0.39564 0.0
O241 O 0.46156 0.20484 0.3414 0.0
O242 O 0.48244 0.21328 0.47704 0.0
C243 C 0.42017 0.19459 0.17521 0.0
O244 O 0.42059 0.17386 0.21432 0.0
C245 C 0.46981 0.22077 0.73274 0.0
C246 C 0.48755 0.26101 0.80054 0.0
C247 C 0.47436 0.23322 0.8195 0.0
N248 N 0.47865 0.24025 0.66702 0.0
N249 N 0.49009 0.2643 0.70814 0.0
C250 C 0.45657 0.19095 0.711 0.0
H251 H 0.46569 0.18788 0.64729 0.0
H252 H 0.43454 0.18258 0.69738 0.0
H253 H 0.45905 0.17962 0.76946 0.0
C254 C 0.38872 0.19553 0.47291 0.0
N255 N 0.41585 0.20917 0.4563 0.0
N256 N 0.42887 0.21819 0.5356 0.0
C257 C 0.4104 0.21224 0.6037 0.0
C258 C 0.38453 0.1967 0.56745 0.0
C259 C 0.36739 0.18215 0.39976 0.0
H260 H 0.37554 0.17595 0.34038 0.0
H261 H 0.34898 0.16416 0.42844 0.0
H262 H 0.36142 0.19694 0.37449 0.0
O263 O 0.4614 0.26112 0.34735 0.0
O264 O 0.48395 0.27192 0.4806 0.0
H265 H 0.43579 0.24548 0.6952 0.0
H266 H 0.39985 0.22954 0.71839 0.0
C267 C 0.41648 0.22572 0.69686 0.0
H268 H 0.41752 0.2121 0.74944 0.0
H269 H 0.49757 0.28283 0.67319 0.0
O270 O 0.41902 0.21224 0.22678 0.0
C271 C 0.47877 0.27886 0.40254 0.0
Co272 Co 0.77897 0.21868 0.34875 0.0
Co273 Co 0.7682 0.23543 0.54006 0.0
C274 C 0.80019 0.27845 0.40977 0.0
O275 O 0.79697 0.2596 0.35378 0.0
O276 O 0.79026 0.27281 0.49149 0.0
C277 C 0.804 0.22796 0.17657 0.0
O278 O 0.82284 0.25161 0.20932 0.0
C279 C 0.76933 0.24641 0.74184 0.0
C280 C 0.73753 0.20477 0.78164 0.0
C281 C 0.75784 0.22916 0.81824 0.0
N282 N 0.75708 0.23204 0.66492 0.0
N283 N 0.73745 0.2076 0.68972 0.0
C284 C 0.79063 0.27606 0.74094 0.0
H285 H 0.78706 0.28636 0.68156 0.0
H286 H 0.81121 0.27863 0.73233 0.0
H287 H 0.79015 0.28601 0.80671 0.0
C288 C 0.7928 0.18416 0.46921 0.0
N289 N 0.7865 0.20385 0.45413 0.0
N290 N 0.78793 0.2162 0.532 0.0
C291 C 0.7987 0.20745 0.59742 0.0
C292 C 0.80156 0.18588 0.56211 0.0
C293 C 0.78587 0.16221 0.39882 0.0
H294 H 0.76941 0.16051 0.35259 0.0
H295 H 0.80387 0.16773 0.35428 0.0
H296 H 0.7788 0.14217 0.43276 0.0
O297 O 0.74016 0.20438 0.33533 0.0
O298 O 0.73208 0.21632 0.47259 0.0
H299 H 0.79525 0.21426 0.74166 0.0
H300 H 0.82911 0.22246 0.70588 0.0
C301 C 0.81052 0.223 0.68526 0.0
H302 H 0.81625 0.24457 0.67481 0.0
H303 H 0.72566 0.19197 0.64316 0.0
O304 O 0.79 0.20879 0.23309 0.0
C305 C 0.72391 0.20539 0.39324 0.0
Co306 Co 0.89799 0.44857 0.32397 0.0
Co307 Co 0.86933 0.43377 0.13067 0.0
C308 C 0.85808 0.39071 0.27318 0.0
O309 O 0.87456 0.40913 0.32763 0.0
O310 O 0.85413 0.39666 0.19142 0.0
C311 C 0.91579 0.43914 0.49347 0.0
O312 O 0.91576 0.41852 0.45163 0.0
C313 C 0.86449 0.41522 0.93852 0.0
C314 C 0.85483 0.44398 0.86848 0.0
C315 C 0.86335 0.42523 0.851 0.0
N316 N 0.85892 0.42895 0.00297 0.0
N317 N 0.85205 0.44527 0.96047 0.0
C318 C 0.87008 0.39276 0.96275 0.0
H319 H 0.85614 0.38016 0.01911 0.0
H320 H 0.89118 0.4016 0.98976 0.0
H321 H 0.86698 0.37946 0.90205 0.0
C322 C 0.94813 0.4743 0.20623 0.0
N323 N 0.92083 0.46 0.21825 0.0
N324 N 0.90872 0.45572 0.13705 0.0
C325 C 0.9281 0.46871 0.07164 0.0
C326 C 0.95361 0.48034 0.11258 0.0
C327 C 0.96831 0.48278 0.28361 0.0
H328 H 0.96381 0.49443 0.33569 0.0
H329 H 0.96604 0.46429 0.31863 0.0
H330 H 0.98954 0.49544 0.25815 0.0
O331 O 0.87441 0.4651 0.32607 0.0
O332 O 0.85306 0.45414 0.19045 0.0
H333 H 0.90553 0.47503 0.96536 0.0
H334 H 0.94048 0.48734 0.93536 0.0
C335 C 0.9226 0.47093 0.97173 0.0
H336 H 0.91747 0.45163 0.93715 0.0
H337 H 0.84786 0.45905 0.99436 0.0
O338 O 0.91655 0.45822 0.4447 0.0
C339 C 0.85744 0.46563 0.26956 0.0
Co340 Co 0.55449 0.45098 0.32886 0.0
Co341 Co 0.5666 0.43392 0.13604 0.0
C342 C 0.61104 0.46589 0.27428 0.0
O343 O 0.59375 0.46535 0.33102 0.0
O344 O 0.60391 0.45555 0.1936 0.0
C345 C 0.56567 0.47842 0.49941 0.0
O346 O 0.58766 0.49695 0.45671 0.0
C347 C 0.58245 0.44886 0.94446 0.0
C348 C 0.5612 0.40888 0.87414 0.0
C349 C 0.57519 0.43679 0.85729 0.0
N350 N 0.57223 0.429 0.00883 0.0
N351 N 0.56043 0.40513 0.96641 0.0
C352 C 0.59529 0.47858 0.96773 0.0
H353 H 0.59105 0.48144 0.04065 0.0
H354 H 0.58805 0.48906 0.9203 0.0
H355 H 0.61772 0.48824 0.95996 0.0
C356 C 0.52944 0.47565 0.20711 0.0
N357 N 0.54294 0.46191 0.22135 0.0
N358 N 0.54517 0.45171 0.14188 0.0
C359 C 0.53134 0.45693 0.07633 0.0
C360 C 0.52167 0.47287 0.11454 0.0
C361 C 0.52278 0.4897 0.28171 0.0
H362 H 0.5397 0.49897 0.33273 0.0
H363 H 0.51887 0.50553 0.25213 0.0
H364 H 0.50417 0.47439 0.31858 0.0
O365 O 0.5371 0.41071 0.33311 0.0
O366 O 0.54617 0.3978 0.19852 0.0
H367 H 0.50409 0.44004 0.95961 0.0
H368 H 0.53918 0.45977 0.93024 0.0
C369 C 0.52481 0.44481 0.98097 0.0
H370 H 0.52558 0.42568 0.97859 0.0
H371 H 0.54978 0.38639 0.00037 0.0
O372 O 0.5458 0.46109 0.45047 0.0
C373 C 0.53559 0.39216 0.27931 0.0
Co374 Co 0.55274 0.10722 0.32404 0.0
Co375 Co 0.56829 0.13616 0.13137 0.0
C376 C 0.53387 0.14583 0.26756 0.0
O377 O 0.5358 0.13003 0.32536 0.0
O378 O 0.54469 0.14963 0.18746 0.0
C379 C 0.52629 0.08971 0.49656 0.0
O380 O 0.50721 0.09302 0.45729 0.0
C381 C 0.55478 0.13681 0.93783 0.0
C382 C 0.59544 0.15553 0.87246 0.0
C383 C 0.56775 0.14116 0.85277 0.0
N384 N 0.57392 0.14689 0.00452 0.0
N385 N 0.5982 0.15904 0.96486 0.0
C386 C 0.52483 0.11985 0.95678 0.0
H387 H 0.52103 0.11386 0.03088 0.0
H388 H 0.51531 0.10144 0.91203 0.0
H389 H 0.515 0.13208 0.94021 0.0
C390 C 0.53019 0.05735 0.20314 0.0
N391 N 0.54292 0.0846 0.21698 0.0
N392 N 0.55257 0.09711 0.13727 0.0
C393 C 0.54808 0.07817 0.072 0.0
C394 C 0.53315 0.05249 0.11058 0.0
C395 C 0.51669 0.03659 0.27793 0.0
H396 H 0.50616 0.04338 0.32696 0.0
H397 H 0.502 0.01634 0.24841 0.0
H398 H 0.53252 0.03471 0.31719 0.0
O399 O 0.59294 0.13191 0.32917 0.0
O400 O 0.60402 0.15394 0.19508 0.0
H401 H 0.56543 0.06848 0.95495 0.0
H402 H 0.54481 0.08292 0.92613 0.0
C403 C 0.56006 0.08401 0.97653 0.0
H404 H 0.57883 0.10419 0.9741 0.0
H405 H 0.61659 0.1674 0.00111 0.0
O406 O 0.54373 0.08821 0.44498 0.0
C407 C 0.61069 0.14973 0.27508 0.0
Co408 Co 0.45079 0.90013 0.66951 0.0
Co409 Co 0.43666 0.87123 0.86223 0.0
C410 C 0.39319 0.8604 0.72106 0.0
O411 O 0.41117 0.8766 0.66477 0.0
O412 O 0.39973 0.85686 0.80236 0.0
C413 C 0.44251 0.91857 0.49763 0.0
O414 O 0.42024 0.91553 0.53709 0.0
C415 C 0.42238 0.87146 0.05543 0.0
C416 C 0.44315 0.85168 0.12188 0.0
C417 C 0.43074 0.86697 0.14082 0.0
N418 N 0.43087 0.86065 0.98927 0.0
N419 N 0.44225 0.84787 0.02964 0.0
C420 C 0.41011 0.88904 0.03558 0.0
H421 H 0.41175 0.89422 0.96082 0.0
H422 H 0.41995 0.90792 0.07796 0.0
H423 H 0.38821 0.87765 0.05479 0.0
C424 C 0.47676 0.95003 0.79059 0.0
N425 N 0.46241 0.92278 0.77674 0.0
N426 N 0.45942 0.9103 0.85659 0.0
C427 C 0.47373 0.92925 0.92195 0.0
C428 C 0.48435 0.95491 0.88335 0.0
C429 C 0.48437 0.97076 0.71546 0.0
H430 H 0.50146 0.97171 0.67474 0.0
H431 H 0.46685 0.96449 0.66773 0.0
H432 H 0.4909 0.99129 0.74464 0.0
O433 O 0.46732 0.87622 0.66748 0.0
O434 O 0.45637 0.85457 0.80266 0.0
H435 H 0.47868 0.90305 0.01873 0.0
H436 H 0.50191 0.93869 0.03511 0.0
C437 C 0.48063 0.92348 0.0164 0.0
H438 H 0.46739 0.92531 0.06893 0.0
H439 H 0.45173 0.83884 0.99393 0.0
O440 O 0.46115 0.91934 0.54902 0.0
C441 C 0.46787 0.85912 0.72363 0.0
Co442 Co 0.10901 0.55554 0.68506 0.0
Co443 Co 0.13767 0.56957 0.87816 0.0
C444 C 0.14981 0.53874 0.73425 0.0
O445 O 0.13315 0.54034 0.67971 0.0
O446 O 0.15348 0.54846 0.81622 0.0
C447 C 0.09106 0.52799 0.51629 0.0
O448 O 0.09133 0.50761 0.55871 0.0
C449 C 0.14137 0.55493 0.06968 0.0
C450 C 0.1522 0.59351 0.14102 0.0
C451 C 0.14281 0.56601 0.1576 0.0
N452 N 0.14777 0.5746 0.00594 0.0
N453 N 0.15524 0.59782 0.0492 0.0
C454 C 0.13481 0.52664 0.04428 0.0
H455 H 0.14813 0.52756 0.98633 0.0
H456 H 0.11347 0.51485 0.01911 0.0
H457 H 0.138 0.51617 0.10393 0.0
C458 C 0.05891 0.52943 0.80329 0.0
N459 N 0.0862 0.54321 0.79077 0.0
N460 N 0.09835 0.55114 0.87192 0.0
C461 C 0.07896 0.54385 0.93779 0.0
C462 C 0.05357 0.52925 0.89728 0.0
C463 C 0.03858 0.51744 0.72648 0.0
H464 H 0.0444 0.50569 0.67934 0.0
H465 H 0.01767 0.50405 0.75373 0.0
H466 H 0.03896 0.53422 0.6855 0.0
O467 O 0.13183 0.59577 0.68469 0.0
O468 O 0.1533 0.60639 0.82001 0.0
H469 H 0.10156 0.57451 0.03989 0.0
H470 H 0.06585 0.5537 0.06542 0.0
C471 C 0.08389 0.55358 0.03591 0.0
H472 H 0.08756 0.53952 0.07809 0.0
H473 H 0.1601 0.61607 0.01591 0.0
O474 O 0.09034 0.54642 0.56457 0.0
C475 C 0.14862 0.61343 0.74129 0.0
Co476 Co 0.45226 0.55599 0.67516 0.0
Co477 Co 0.43588 0.56889 0.86782 0.0
C478 C 0.46786 0.61293 0.7282 0.0
O479 O 0.46689 0.59534 0.67182 0.0
O480 O 0.45776 0.6061 0.8093 0.0
C481 C 0.47965 0.5667 0.50474 0.0
O482 O 0.49842 0.58851 0.54765 0.0
C483 C 0.45109 0.58469 0.05948 0.0
C484 C 0.41111 0.56403 0.12975 0.0
C485 C 0.439 0.57755 0.14665 0.0
N486 N 0.43124 0.57481 0.99508 0.0
N487 N 0.4074 0.56338 0.03749 0.0
C488 C 0.48075 0.59706 0.03623 0.0
H489 H 0.48349 0.59283 0.96318 0.0
H490 H 0.49094 0.58944 0.0834 0.0
H491 H 0.49078 0.61952 0.04444 0.0
C492 C 0.47658 0.53063 0.79696 0.0
N493 N 0.46326 0.54454 0.7827 0.0
N494 N 0.45326 0.54707 0.8622 0.0
C495 C 0.45822 0.53305 0.92782 0.0
C496 C 0.47377 0.52295 0.88963 0.0
C497 C 0.49012 0.5234 0.72222 0.0
H498 H 0.4744 0.50516 0.68472 0.0
H499 H 0.49998 0.54041 0.67171 0.0
H500 H 0.50538 0.51863 0.75167 0.0
O501 O 0.41202 0.5387 0.67222 0.0
O502 O 0.39959 0.54856 0.8062 0.0
H503 H 0.42709 0.52775 0.02528 0.0
H504 H 0.44081 0.5057 0.04406 0.0
C505 C 0.44599 0.52658 0.02302 0.0
H506 H 0.46102 0.54072 0.07405 0.0
H507 H 0.38864 0.55303 0.00352 0.0
O508 O 0.46205 0.54697 0.55352 0.0
C509 C 0.39365 0.53755 0.72607 0.0
Co510 Co 0.56444 0.78282 0.65747 0.0
Co511 Co 0.53561 0.77081 0.46462 0.0
C512 C 0.52415 0.72604 0.6029 0.0
O513 O 0.54104 0.74333 0.65945 0.0
O514 O 0.5202 0.73358 0.52389 0.0
C515 C 0.58201 0.77302 0.8282 0.0
O516 O 0.5807 0.75182 0.78619 0.0
C517 C 0.5356 0.75466 0.27292 0.0
C518 C 0.51569 0.77439 0.20053 0.0
C519 C 0.53009 0.76083 0.18504 0.0
N520 N 0.52586 0.76503 0.33645 0.0
N521 N 0.5133 0.77613 0.29276 0.0
C522 C 0.55035 0.73971 0.29724 0.0
H523 H 0.57217 0.75447 0.31035 0.0
H524 H 0.54879 0.72585 0.2401 0.0
H525 H 0.54173 0.72778 0.36175 0.0
C526 C 0.61435 0.80825 0.53645 0.0
N527 N 0.58714 0.79474 0.55086 0.0
N528 N 0.57469 0.79283 0.47179 0.0
C529 C 0.59368 0.80722 0.4068 0.0
C530 C 0.61934 0.8166 0.44427 0.0
C531 C 0.63498 0.81399 0.61055 0.0
H532 H 0.63317 0.82692 0.66476 0.0
H533 H 0.63054 0.79453 0.64396 0.0
H534 H 0.65604 0.8245 0.58227 0.0
O535 O 0.54079 0.7996 0.65996 0.0
O536 O 0.51937 0.79095 0.52467 0.0
H537 H 0.56743 0.81253 0.31127 0.0
H538 H 0.60301 0.83577 0.29487 0.0
C539 C 0.58783 0.81444 0.31305 0.0
H540 H 0.58944 0.80122 0.26007 0.0
H541 H 0.5048 0.78656 0.32566 0.0
O542 O 0.58304 0.7922 0.77917 0.0
C543 C 0.52399 0.80137 0.60566 0.0
Co544 Co 0.2225 0.78564 0.66136 0.0
Co545 Co 0.23397 0.76765 0.46983 0.0
C546 C 0.2793 0.80291 0.60277 0.0
O547 O 0.26217 0.80226 0.66071 0.0
O548 O 0.2715 0.79093 0.52458 0.0
C549 C 0.232 0.81135 0.83543 0.0
O550 O 0.25493 0.83007 0.79793 0.0
C551 C 0.2481 0.78043 0.27598 0.0
C552 C 0.22527 0.73969 0.21137 0.0
C553 C 0.23923 0.76738 0.19107 0.0
N554 N 0.23859 0.76139 0.34306 0.0
N555 N 0.2259 0.73703 0.30388 0.0
C556 C 0.2618 0.81048 0.29451 0.0
H557 H 0.25992 0.8145 0.36865 0.0
H558 H 0.25317 0.8203 0.25005 0.0
H559 H 0.28378 0.81983 0.27734 0.0
C560 C 0.19575 0.80846 0.53904 0.0
N561 N 0.20955 0.79504 0.55374 0.0
N562 N 0.21165 0.78454 0.47476 0.0
C563 C 0.19742 0.78922 0.40923 0.0
C564 C 0.18762 0.80513 0.44675 0.0
C565 C 0.1895 0.82302 0.61292 0.0
H566 H 0.17206 0.80778 0.65476 0.0
H567 H 0.20729 0.83383 0.6599 0.0
H568 H 0.18399 0.83764 0.58243 0.0
O569 O 0.20643 0.74544 0.66941 0.0
O570 O 0.21492 0.73204 0.53523 0.0
H571 H 0.19149 0.75758 0.3132 0.0
H572 H 0.16996 0.77183 0.29324 0.0
C573 C 0.19072 0.77672 0.3145 0.0
H574 H 0.20499 0.79147 0.26312 0.0
H575 H 0.21549 0.71873 0.3405 0.0
O576 O 0.2128 0.79509 0.78215 0.0
C577 C 0.20496 0.72668 0.61681 0.0
Co578 Co 0.22175 0.44091 0.66019 0.0
Co579 Co 0.23711 0.46894 0.4659 0.0
C580 C 0.20525 0.48145 0.60423 0.0
O581 O 0.2068 0.46544 0.66199 0.0
O582 O 0.21537 0.48443 0.52326 0.0
C583 C 0.19369 0.42416 0.8294 0.0
O584 O 0.17497 0.42695 0.78513 0.0
C585 C 0.22265 0.47039 0.27367 0.0
C586 C 0.26267 0.48726 0.20466 0.0
C587 C 0.23487 0.47454 0.1872 0.0
N588 N 0.24227 0.4793 0.33869 0.0
N589 N 0.26622 0.49034 0.29697 0.0
C590 C 0.19277 0.45457 0.2953 0.0
H591 H 0.18933 0.447 0.36774 0.0
H592 H 0.18185 0.43728 0.24644 0.0
H593 H 0.18414 0.46828 0.28766 0.0
C594 C 0.19635 0.39047 0.54178 0.0
N595 N 0.21014 0.41779 0.55407 0.0
N596 N 0.2195 0.42976 0.47336 0.0
C597 C 0.21368 0.4103 0.40871 0.0
C598 C 0.19824 0.3849 0.44902 0.0
C599 C 0.18286 0.37029 0.61827 0.0
H600 H 0.19877 0.37098 0.66496 0.0
H601 H 0.17004 0.37608 0.65988 0.0
H602 H 0.17023 0.34925 0.59087 0.0
O603 O 0.26223 0.46376 0.66247 0.0
O604 O 0.27332 0.48494 0.52646 0.0
H605 H 0.24379 0.43508 0.30707 0.0
H606 H 0.2286 0.39918 0.28818 0.0
C607 C 0.22448 0.41542 0.31159 0.0
H608 H 0.20905 0.41514 0.2638 0.0
H609 H 0.28477 0.49766 0.33152 0.0
O610 O 0.21175 0.42241 0.78214 0.0
C611 C 0.28008 0.48045 0.60593 0.0
C612 C 0.09558 0.20028 0.65467 0.0
C613 C 0.09349 0.21276 0.57303 0.0
C614 C 0.10009 0.21312 0.74088 0.0
C615 C 0.10237 0.23889 0.74956 0.0
H616 H 0.09443 0.18059 0.65178 0.0
H617 H 0.10176 0.20274 0.80151 0.0
S618 S 0.09868 0.28107 0.561 0.0
N619 N 0.09465 0.25335 0.50868 0.0
N620 N 0.10174 0.27648 0.67234 0.0
C621 C 0.09949 0.25142 0.67035 0.0
C622 C 0.09537 0.23861 0.58161 0.0
C623 C 0.80284 0.89606 0.64503 0.0
C624 C 0.7903 0.88136 0.56363 0.0
C625 C 0.79002 0.88796 0.73128 0.0
C626 C 0.76422 0.86455 0.74028 0.0
H627 H 0.82256 0.91454 0.6419 0.0
H628 H 0.80043 0.90014 0.79168 0.0
S629 S 0.72191 0.81836 0.55259 0.0
N630 N 0.74963 0.84188 0.49992 0.0
N631 N 0.72656 0.82625 0.66375 0.0
C632 C 0.75164 0.849 0.66139 0.0
C633 C 0.76442 0.85747 0.57256 0.0
C634 C 0.11737 0.87919 0.69659 0.0
C635 C 0.13809 0.90232 0.74189 0.0
C636 C 0.10641 0.88149 0.6124 0.0
C637 C 0.11579 0.90697 0.56963 0.0
H638 H 0.1088 0.85918 0.72801 0.0
H639 H 0.09021 0.86311 0.58095 0.0
S640 S 0.17051 0.97379 0.65545 0.0
N641 N 0.16851 0.95165 0.7341 0.0
N642 N 0.1475 0.95568 0.57602 0.0
C643 C 0.13719 0.93015 0.61149 0.0
C644 C 0.1485 0.92789 0.69744 0.0
C645 C 0.19517 0.10273 0.35003 0.0
C646 C 0.20165 0.09206 0.4279 0.0
C647 C 0.20902 0.10702 0.26599 0.0
C648 C 0.22973 0.10042 0.25549 0.0
H649 H 0.17999 0.10899 0.35519 0.0
H650 H 0.20347 0.11567 0.20876 0.0
S651 S 0.25368 0.0701 0.43301 0.0
N652 N 0.23004 0.07403 0.48608 0.0
N653 N 0.25493 0.08095 0.32597 0.0
C654 C 0.23545 0.08827 0.33004 0.0
C655 C 0.22169 0.08432 0.41676 0.0
C656 C 0.87813 0.10533 0.39422 0.0
C657 C 0.90315 0.11052 0.43267 0.0
C658 C 0.87694 0.11699 0.31031 0.0
C659 C 0.90074 0.13455 0.26113 0.0
H660 H 0.85905 0.09188 0.42883 0.0
H661 H 0.85708 0.11152 0.28237 0.0
S662 S 0.97163 0.15512 0.33153 0.0
N663 N 0.95236 0.13404 0.41383 0.0
N664 N 0.95041 0.15754 0.2589 0.0
C665 C 0.92608 0.14087 0.30037 0.0
C666 C 0.92722 0.12838 0.38519 0.0
C667 C 0.89805 0.79002 0.26113 0.0
C668 C 0.87044 0.77013 0.25133 0.0
C669 C 0.90833 0.80361 0.34512 0.0
C670 C 0.89157 0.79767 0.42363 0.0
H671 H 0.91188 0.7951 0.20321 0.0
H672 H 0.92994 0.81822 0.34965 0.0
S673 S 0.8171 0.74739 0.43175 0.0
N674 N 0.82599 0.74597 0.32384 0.0
N675 N 0.84523 0.77034 0.48399 0.0
C676 C 0.86352 0.77828 0.41365 0.0
C677 C 0.853 0.7648 0.32692 0.0
C678 C 0.767 0.57851 0.9981 0.0
C679 C 0.76617 0.56506 0.08064 0.0
C680 C 0.76319 0.56542 0.91202 0.0
C681 C 0.75826 0.5384 0.90581 0.0
H682 H 0.77125 0.59942 0.99993 0.0
H683 H 0.7652 0.5771 0.85044 0.0
S684 S 0.74988 0.49322 0.10434 0.0
N685 N 0.75719 0.52257 0.15259 0.0
N686 N 0.75002 0.49799 0.99137 0.0
C687 C 0.75605 0.52444 0.9888 0.0
C688 C 0.75997 0.53775 0.07603 0.0
C689 C 0.42272 0.18861 0.00416 0.0
C690 C 0.43402 0.20394 0.08494 0.0
C691 C 0.43627 0.19733 0.91862 0.0
C692 C 0.46202 0.22131 0.91136 0.0
H693 H 0.40298 0.17015 0.00668 0.0
H694 H 0.42579 0.18556 0.85812 0.0
S695 S 0.50198 0.26614 0.10706 0.0
N696 N 0.47322 0.24278 0.15492 0.0
N697 N 0.49922 0.25851 0.99572 0.0
C698 C 0.47402 0.2359 0.99333 0.0
C699 C 0.45993 0.2274 0.07961 0.0
C700 C 0.79705 0.24759 0.93129 0.0
C701 C 0.76896 0.23103 0.91295 0.0
C702 C 0.80829 0.24613 0.01613 0.0
C703 C 0.79212 0.22743 0.08482 0.0
H704 H 0.8109 0.26109 0.87932 0.0
H705 H 0.82994 0.25949 0.02742 0.0
S706 S 0.71752 0.17881 0.07125 0.0
N707 N 0.72515 0.19559 0.97226 0.0
N708 N 0.74651 0.19164 0.12872 0.0
C709 C 0.76406 0.21049 0.0673 0.0
C710 C 0.75247 0.21263 0.98233 0.0
C711 C 0.86536 0.43073 0.67996 0.0
C712 C 0.87514 0.42395 0.7596 0.0
C713 C 0.8789 0.43595 0.59492 0.0
C714 C 0.90259 0.43411 0.58497 0.0
H715 H 0.84746 0.43297 0.68391 0.0
H716 H 0.87064 0.4414 0.53622 0.0
S717 S 0.93666 0.41593 0.76684 0.0
N718 N 0.91055 0.41534 0.8199 0.0
N719 N 0.93474 0.42369 0.65792 0.0
C720 C 0.91203 0.42606 0.66142 0.0
C721 C 0.89862 0.4213 0.74927 0.0
C722 C 0.54849 0.43714 0.72082 0.0
C723 C 0.57334 0.44942 0.76951 0.0
C724 C 0.54567 0.44783 0.63682 0.0
C725 C 0.56766 0.47125 0.59729 0.0
H726 H 0.53097 0.41888 0.74751 0.0
H727 H 0.52629 0.43697 0.60108 0.0
S728 S 0.63676 0.51224 0.70079 0.0
N729 N 0.62014 0.48679 0.77418 0.0
N730 N 0.61482 0.50757 0.61756 0.0
C731 C 0.59236 0.48451 0.64757 0.0
C732 C 0.59524 0.4734 0.73311 0.0
C733 C 0.5224 0.11229 0.64079 0.0
C734 C 0.53377 0.09831 0.59452 0.0
C735 C 0.53316 0.1258 0.72515 0.0
C736 C 0.55571 0.12591 0.76598 0.0
H737 H 0.5059 0.11398 0.60971 0.0
H738 H 0.52438 0.137 0.75693 0.0
S739 S 0.59016 0.08883 0.68184 0.0
N740 N 0.56679 0.08279 0.60252 0.0
N741 N 0.58706 0.10835 0.76025 0.0
C742 C 0.56624 0.11074 0.72358 0.0
C743 C 0.55519 0.09682 0.63828 0.0
C744 C 0.41634 0.89831 0.35093 0.0
C745 C 0.44141 0.91048 0.399 0.0
C746 C 0.41301 0.88461 0.26656 0.0
C747 C 0.43464 0.88267 0.22714 0.0
H748 H 0.39868 0.89811 0.38076 0.0
H749 H 0.39313 0.87462 0.23387 0.0
S750 S 0.50572 0.91542 0.31498 0.0
N751 N 0.48919 0.92281 0.39347 0.0
N752 N 0.4829 0.89715 0.23532 0.0
C753 C 0.46028 0.89638 0.2708 0.0
C754 C 0.46371 0.91038 0.35632 0.0
C755 C 0.1279 0.56134 0.41413 0.0
C756 C 0.10406 0.53595 0.42451 0.0
C757 C 0.14124 0.56952 0.32874 0.0
C758 C 0.13107 0.55298 0.24911 0.0
H759 H 0.13644 0.57504 0.47276 0.0
H760 H 0.15929 0.58954 0.32457 0.0
S761 S 0.06917 0.48368 0.2433 0.0
N762 N 0.07146 0.49343 0.35226 0.0
N763 N 0.0952 0.50906 0.18948 0.0
C764 C 0.10745 0.52697 0.2599 0.0
C765 C 0.09428 0.51844 0.34817 0.0
C766 C 0.44907 0.54726 0.36703 0.0
C767 C 0.4727 0.56893 0.40679 0.0
C768 C 0.43865 0.55041 0.28295 0.0
C769 C 0.45141 0.57531 0.23441 0.0
H770 H 0.43784 0.52788 0.40265 0.0
H771 H 0.42022 0.53314 0.25611 0.0
S772 S 0.51492 0.63795 0.30376 0.0
N773 N 0.50971 0.6158 0.38689 0.0
N774 N 0.48945 0.62179 0.23014 0.0
C775 C 0.47559 0.59687 0.27103 0.0
C776 C 0.48642 0.59364 0.35665 0.0
C777 C 0.56941 0.76588 0.08753 0.0
C778 C 0.54213 0.7601 0.09421 0.0
C779 C 0.58235 0.76977 0.00118 0.0
C780 C 0.56849 0.7682 0.91892 0.0
H781 H 0.58138 0.76854 0.1489 0.0
H782 H 0.60345 0.77469 0.9989 0.0
S783 S 0.49609 0.74995 0.89663 0.0
N784 N 0.50117 0.75046 0.00951 0.0
N785 N 0.52553 0.75792 0.84779 0.0
C786 C 0.54099 0.76125 0.92404 0.0
C787 C 0.52782 0.7572 0.01152 0.0
C788 C 0.25941 0.80251 0.06517 0.0
C789 C 0.23673 0.77961 0.10349 0.0
C790 C 0.25729 0.81384 0.98121 0.0
C791 C 0.23236 0.8027 0.9325 0.0
H792 H 0.27911 0.81124 0.09884 0.0
H793 H 0.27566 0.83075 0.95259 0.0
S794 S 0.16606 0.74495 0.01131 0.0
N795 N 0.18802 0.74779 0.09188 0.0
N796 N 0.18393 0.76902 0.93462 0.0
C797 C 0.20921 0.78067 0.97313 0.0
C798 C 0.21144 0.76907 0.0582 0.0
C799 C 0.22077 0.4308 0.97331 0.0
C800 C 0.20006 0.4331 0.92761 0.0
C801 C 0.23153 0.44402 0.05771 0.0
C802 C 0.22193 0.45996 0.10028 0.0
H803 H 0.22954 0.41953 0.94197 0.0
H804 H 0.24779 0.44201 0.08937 0.0
S805 S 0.16694 0.4715 0.01374 0.0
N806 N 0.16929 0.45158 0.93498 0.0
N807 N 0.18988 0.47652 0.09361 0.0
C808 C 0.20044 0.46152 0.05819 0.0
C809 C 0.18936 0.448 0.97199 0.0
C810 C 0.2006 0.34803 0.36061 0.0
C811 C 0.18486 0.35852 0.39899 0.0
C812 C 0.1888 0.32518 0.30175 0.0
C813 C 0.16096 0.31225 0.27914 0.0
H814 H 0.22223 0.35783 0.3752 0.0
H815 H 0.20143 0.31742 0.27433 0.0
S816 S 0.11094 0.33133 0.36326 0.0
N817 N 0.14007 0.35407 0.41116 0.0
N818 N 0.11783 0.31089 0.30158 0.0
C819 C 0.14499 0.32228 0.31807 0.0
C820 C 0.15696 0.34547 0.37792 0.0
C821 C 0.6783 0.86557 0.29134 0.0
C822 C 0.69086 0.8503 0.2688 0.0
C823 C 0.65577 0.85504 0.35152 0.0
C824 C 0.64523 0.82899 0.39136 0.0
H825 H 0.6862 0.88591 0.26327 0.0
H826 H 0.64642 0.86728 0.36666 0.0
S827 S 0.67141 0.78136 0.35587 0.0
N828 N 0.69175 0.80831 0.29251 0.0
N829 N 0.64916 0.78833 0.40446 0.0
C830 C 0.65785 0.81372 0.37004 0.0
C831 C 0.68072 0.82441 0.30887 0.0
C832 C 0.19014 0.84495 0.36343 0.0
C833 C 0.17441 0.81785 0.39419 0.0
C834 C 0.17905 0.85654 0.30379 0.0
C835 C 0.152 0.84127 0.27229 0.0
H836 H 0.21123 0.85715 0.38486 0.0
H837 H 0.19155 0.8777 0.28336 0.0
S838 S 0.10246 0.76955 0.33277 0.0
N839 N 0.1305 0.77614 0.38928 0.0
N840 N 0.10976 0.79783 0.27638 0.0
C841 C 0.13615 0.81415 0.30221 0.0
C842 C 0.14735 0.80245 0.36342 0.0
C843 C 0.33827 0.18983 0.60554 0.0
C844 C 0.35895 0.18359 0.62211 0.0
C845 C 0.31492 0.17889 0.6619 0.0
C846 C 0.31126 0.16099 0.73565 0.0
H847 H 0.34033 0.2035 0.54959 0.0
H848 H 0.29927 0.18399 0.64648 0.0
S849 S 0.35953 0.13812 0.80627 0.0
N850 N 0.37456 0.1587 0.71757 0.0
N851 N 0.33031 0.13752 0.82137 0.0
C852 C 0.33194 0.15483 0.75319 0.0
C853 C 0.35582 0.1662 0.69664 0.0
C854 C 0.82295 0.15721 0.7667 0.0
C855 C 0.83606 0.1444 0.72512 0.0
C856 C 0.80978 0.16797 0.71322 0.0
C857 C 0.81171 0.16955 0.61529 0.0
H858 H 0.82314 0.15965 0.84085 0.0
H859 H 0.79855 0.17569 0.75048 0.0
S860 S 0.8388 0.13382 0.47198 0.0
N861 N 0.84222 0.12631 0.57961 0.0
N862 N 0.82656 0.1547 0.48009 0.0
C863 C 0.8239 0.15581 0.57305 0.0
C864 C 0.83389 0.1415 0.62765 0.0
C865 C 0.86445 0.68504 0.65681 0.0
C866 C 0.85022 0.68866 0.73071 0.0
C867 C 0.85202 0.66178 0.59993 0.0
C868 C 0.82508 0.6411 0.61614 0.0
H869 H 0.88523 0.70068 0.64162 0.0
H870 H 0.86363 0.65978 0.54386 0.0
S871 S 0.779 0.6403 0.80044 0.0
N872 N 0.8076 0.66952 0.81594 0.0
N873 N 0.7846 0.62534 0.71159 0.0
C874 C 0.81083 0.64413 0.69086 0.0
C875 C 0.82333 0.66796 0.74782 0.0
C876 C 0.98862 0.51795 0.01325 0.0
C877 C 0.98016 0.49364 0.06331 0.0
C878 C 0.01181 0.52886 0.95602 0.0
C879 C 0.02731 0.51588 0.94764 0.0
H880 H 0.97694 0.52832 0.01733 0.0
H881 H 0.0179 0.54775 0.9193 0.0
S882 S 0.01428 0.45235 0.06572 0.0
N883 N 0.98925 0.45716 0.10113 0.0
N884 N 0.03329 0.47812 0.99588 0.0
C885 C 0.01942 0.49195 0.99871 0.0
C886 C 0.99575 0.48074 0.0562 0.0
C887 C 0.51307 0.5244 0.97274 0.0
C888 C 0.48602 0.50914 0.94126 0.0
C889 C 0.52416 0.51279 0.03225 0.0
C890 C 0.50842 0.48568 0.06281 0.0
H891 H 0.5256 0.54554 0.95217 0.0
H892 H 0.54526 0.52496 0.05354 0.0
S893 S 0.43653 0.43734 0.00085 0.0
N894 N 0.44382 0.46565 0.94473 0.0
N895 N 0.46453 0.44395 0.05764 0.0
C896 C 0.48135 0.4703 0.03215 0.0
C897 C 0.47016 0.48202 0.97104 0.0
C898 C 0.49358 0.01476 0.02814 0.0
C899 C 0.52072 0.02647 0.05854 0.0
C900 C 0.4823 0.99223 0.96787 0.0
C901 C 0.4979 0.98093 0.93536 0.0
H902 H 0.48113 0.02334 0.0501 0.0
H903 H 0.46112 0.98335 0.94751 0.0
S904 S 0.56992 0.00421 0.99423 0.0
N905 N 0.56287 0.02515 0.05207 0.0
N906 N 0.54174 0.98297 0.93797 0.0
C907 C 0.52505 0.9925 0.96506 0.0
C908 C 0.53646 0.01526 0.02689 0.0
C909 C 0.1567 0.16524 0.09365 0.0
C910 C 0.14547 0.17551 0.02922 0.0
C911 C 0.17047 0.15174 0.06448 0.0
C912 C 0.17319 0.14751 0.96968 0.0
H913 H 0.15529 0.16808 0.16731 0.0
H914 H 0.17897 0.14447 0.11701 0.0
S915 S 0.14629 0.16928 0.77291 0.0
N916 N 0.1373 0.17986 0.86603 0.0
N917 N 0.16285 0.15414 0.81145 0.0
C918 C 0.16154 0.15714 0.90446 0.0
C919 C 0.14782 0.17126 0.93414 0.0
C920 C 0.83829 0.99226 0.08996 0.0
C921 C 0.82805 0.97127 0.0236 0.0
C922 C 0.85181 0.01975 0.06331 0.0
C923 C 0.8561 0.02746 0.96918 0.0
H924 H 0.83536 0.98746 0.16324 0.0
H925 H 0.85897 0.0351 0.11734 0.0
S926 S 0.83458 0.98029 0.76798 0.0
N927 N 0.82388 0.95999 0.85931 0.0
N928 N 0.84968 0.0117 0.80942 0.0
C929 C 0.84658 0.00668 0.90201 0.0
C930 C 0.83243 0.9786 0.92914 0.0
C931 C 0.9952 0.83621 0.90844 0.0
C932 C 0.97379 0.82775 0.97266 0.0
C933 C 0.02254 0.84971 0.93759 0.0
C934 C 0.02956 0.85568 0.03196 0.0
H935 H 0.9908 0.83189 0.83531 0.0
H936 H 0.03829 0.85558 0.8855 0.0
S937 S 0.98104 0.8392 0.22715 0.0
N938 N 0.96149 0.82725 0.13445 0.0
N939 N 0.01263 0.85262 0.18903 0.0
C940 C 0.0083 0.84781 0.09653 0.0
C941 C 0.98052 0.83385 0.06696 0.0
C942 C 0.85175 0.82975 0.05244 0.0
C943 C 0.85483 0.82625 0.95711 0.0
C944 C 0.83787 0.84305 0.08311 0.0
C945 C 0.82612 0.85304 0.01975 0.0
H946 H 0.86025 0.82224 0.10418 0.0
H947 H 0.83598 0.84514 0.15699 0.0
S948 S 0.82855 0.84936 0.76248 0.0
N949 N 0.8451 0.83411 0.79984 0.0
N950 N 0.81904 0.859 0.85657 0.0
C951 C 0.82918 0.8498 0.92411 0.0
C952 C 0.84354 0.83649 0.89306 0.0
C953 C 0.16326 0.00769 0.91051 0.0
C954 C 0.17337 0.02959 0.97322 0.0
C955 C 0.15052 0.98063 0.94199 0.0
C956 C 0.14708 0.9743 0.03748 0.0
H957 H 0.16559 0.01144 0.83652 0.0
H958 H 0.14322 0.96453 0.89064 0.0
S959 S 0.16896 0.02421 0.23056 0.0
N960 N 0.1783 0.0431 0.13586 0.0
N961 N 0.15441 0.99229 0.19437 0.0
C962 C 0.15665 0.99598 0.10097 0.0
C963 C 0.1698 0.02357 0.06903 0.0
C964 C 0.98031 0.14825 0.061 0.0
C965 C 0.97386 0.147 0.96612 0.0
C966 C 0.00745 0.16262 0.09227 0.0
C967 C 0.02918 0.17651 0.02979 0.0
H968 H 0.96423 0.13772 0.11143 0.0
H969 H 0.01139 0.16303 0.16587 0.0
S970 S 0.02324 0.17865 0.77312 0.0
N971 N 0.9915 0.16031 0.80973 0.0
N972 N 0.04227 0.18708 0.8673 0.0
C973 C 0.02295 0.17504 0.93431 0.0
C974 C 0.99539 0.16032 0.90275 0.0
C975 C 0.83666 0.48066 0.39254 0.0
C976 C 0.84235 0.47958 0.2981 0.0
C977 C 0.82263 0.49389 0.4221 0.0
C978 C 0.81417 0.50707 0.35862 0.0
H979 H 0.84289 0.47097 0.4442 0.0
H980 H 0.81869 0.49403 0.49552 0.0
S981 S 0.82489 0.51085 0.10337 0.0
N982 N 0.83866 0.49293 0.14118 0.0
N983 N 0.81301 0.51846 0.19631 0.0
C984 C 0.81999 0.50634 0.26382 0.0
C985 C 0.83384 0.49241 0.23368 0.0
C986 C 0.50859 0.34191 0.24894 0.0
C987 C 0.52146 0.36352 0.31243 0.0
C988 C 0.49458 0.31471 0.27904 0.0
C989 C 0.49347 0.30796 0.37362 0.0
H990 H 0.50892 0.34603 0.17546 0.0
H991 H 0.48467 0.29885 0.22743 0.0
S992 S 0.52434 0.35716 0.56794 0.0
N993 N 0.53232 0.37647 0.47443 0.0
N994 N 0.50655 0.32537 0.53068 0.0
C995 C 0.5065 0.32942 0.43783 0.0
C996 C 0.52034 0.35716 0.40733 0.0
C997 C 0.6744 0.17398 0.42338 0.0
C998 C 0.69507 0.19348 0.36664 0.0
C999 C 0.64716 0.16016 0.39354 0.0
C1000 C 0.63959 0.1656 0.30627 0.0
H1001 H 0.67944 0.16867 0.48975 0.0
H1002 H 0.63203 0.14479 0.43888 0.0
S1003 S 0.68626 0.21812 0.13843 0.0
N1004 N 0.70633 0.21953 0.22386 0.0
N1005 N 0.65524 0.19408 0.16776 0.0
C1006 C 0.66016 0.18612 0.25099 0.0
C1007 C 0.68787 0.19992 0.28118 0.0
C1008 C 0.51636 0.16368 0.39296 0.0
C1009 C 0.5198 0.16076 0.29747 0.0
C1010 C 0.50337 0.17778 0.42433 0.0
C1011 C 0.49289 0.18918 0.36154 0.0
H1012 H 0.52394 0.15516 0.44438 0.0
H1013 H 0.50115 0.17935 0.49831 0.0
S1014 S 0.49681 0.18759 0.10421 0.0
N1015 N 0.51194 0.17082 0.14053 0.0
N1016 N 0.48731 0.19701 0.19886 0.0
C1017 C 0.49627 0.18649 0.26577 0.0
C1018 C 0.50979 0.1724 0.23392 0.0
C1019 C 0.81829 0.31295 0.28088 0.0
C1020 C 0.815 0.30722 0.37682 0.0
C1021 C 0.83182 0.33989 0.24746 0.0
C1022 C 0.84295 0.3622 0.30865 0.0
H1023 H 0.81013 0.29647 0.2308 0.0
H1024 H 0.83389 0.34322 0.17324 0.0
S1025 S 0.83964 0.35842 0.56643 0.0
N1026 N 0.82383 0.32628 0.53236 0.0
N1027 N 0.84917 0.37669 0.4704 0.0
C1028 C 0.83968 0.35675 0.40485 0.0
C1029 C 0.82574 0.32936 0.43869 0.0
C1030 C 0.68835 0.50696 0.27442 0.0
C1031 C 0.69511 0.50558 0.36788 0.0
C1032 C 0.66122 0.49342 0.24366 0.0
C1033 C 0.63972 0.4783 0.30536 0.0
H1034 H 0.70414 0.5187 0.22411 0.0
H1035 H 0.65703 0.49543 0.1717 0.0
S1036 S 0.64607 0.46575 0.55438 0.0
N1037 N 0.67778 0.48603 0.52 0.0
N1038 N 0.62681 0.46094 0.4625 0.0
C1039 C 0.64608 0.47609 0.39827 0.0
C1040 C 0.67374 0.48959 0.42942 0.0
C1041 C 0.49759 0.82524 0.57288 0.0
C1042 C 0.50964 0.81588 0.63769 0.0
C1043 C 0.48432 0.83936 0.60126 0.0
C1044 C 0.48209 0.84421 0.6957 0.0
H1045 H 0.49866 0.82194 0.49939 0.0
H1046 H 0.47548 0.84626 0.54868 0.0
S1047 S 0.51015 0.82413 0.89356 0.0
N1048 N 0.51869 0.81288 0.80112 0.0
N1049 N 0.49323 0.83878 0.85408 0.0
C1050 C 0.49385 0.83483 0.76135 0.0
C1051 C 0.50777 0.82087 0.73246 0.0
C1052 C 0.18081 0.67634 0.58746 0.0
C1053 C 0.19113 0.69809 0.65104 0.0
C1054 C 0.16704 0.64915 0.61758 0.0
C1055 C 0.1634 0.64253 0.7126 0.0
H1056 H 0.18302 0.68028 0.51358 0.0
H1057 H 0.15938 0.63317 0.56566 0.0
S1058 S 0.18702 0.69186 0.90784 0.0
N1059 N 0.19696 0.71114 0.81401 0.0
N1060 N 0.17145 0.66002 0.87033 0.0
C1061 C 0.17392 0.66405 0.77713 0.0
C1062 C 0.18763 0.6918 0.74645 0.0
C1063 C 0.3161 0.49856 0.7292 0.0
C1064 C 0.30919 0.49515 0.63438 0.0
C1065 C 0.3434 0.51257 0.75831 0.0
C1066 C 0.3649 0.5233 0.69379 0.0
H1067 H 0.30028 0.49059 0.78163 0.0
H1068 H 0.34766 0.51468 0.832 0.0
S1069 S 0.35789 0.51992 0.43723 0.0
N1070 N 0.32621 0.50382 0.47597 0.0
N1071 N 0.37742 0.52981 0.5304 0.0
C1072 C 0.3583 0.51998 0.59868 0.0
C1073 C 0.3305 0.50604 0.56908 0.0
C1074 C 0.17583 0.51422 0.76214 0.0
C1075 C 0.16496 0.52533 0.69975 0.0
C1076 C 0.18887 0.50023 0.73024 0.0
C1077 C 0.19191 0.49705 0.63462 0.0
H1078 H 0.17379 0.51584 0.83621 0.0
H1079 H 0.19667 0.49184 0.78134 0.0
S1080 S 0.16808 0.52338 0.44221 0.0
N1081 N 0.1589 0.53297 0.53719 0.0
N1082 N 0.18345 0.50677 0.47798 0.0
C1083 C 0.18167 0.50857 0.57144 0.0
C1084 C 0.16817 0.52263 0.6038 0.0
C1085 C 0.49607 0.66316 0.75767 0.0
C1086 C 0.48066 0.64161 0.69642 0.0
C1087 C 0.50995 0.69026 0.72639 0.0
C1088 C 0.50864 0.69697 0.6328 0.0
H1089 H 0.49804 0.65903 0.82974 0.0
H1090 H 0.52187 0.70606 0.77646 0.0
S1091 S 0.46826 0.64784 0.44714 0.0
N1092 N 0.46321 0.62863 0.5394 0.0
N1093 N 0.48891 0.67955 0.48095 0.0
C1094 C 0.49242 0.67556 0.57162 0.0
C1095 C 0.47857 0.64792 0.60331 0.0
C1096 C 0.31565 0.82247 0.7248 0.0
C1097 C 0.30855 0.81719 0.63014 0.0
C1098 C 0.34295 0.836 0.75387 0.0
C1099 C 0.36435 0.84522 0.68945 0.0
H1100 H 0.29996 0.81596 0.77744 0.0
H1101 H 0.3473 0.83964 0.82728 0.0
S1102 S 0.35692 0.83587 0.43373 0.0
N1103 N 0.3253 0.8217 0.47239 0.0
N1104 N 0.37659 0.84736 0.52639 0.0
C1105 C 0.35758 0.83992 0.59454 0.0
C1106 C 0.32973 0.82583 0.56509 0.0
loop_
_geom_bond_atom_site_label_1
_geom_bond_atom_site_label_2
_geom_bond_distance
_geom_bond_site_symmetry_2
_ccdc_geom_bond_type
Co0 O3 1.970 . S
Co0 N17 1.989 . S
Co0 O25 1.967 . S
Co0 O32 1.920 1_554 S
Co1 O4 1.966 . S
Co1 N10 2.022 . S
Co1 N18 1.993 . S
Co1 O26 1.941 . S
C2 O3 1.258 . S
C2 O4 1.263 . S
O3 Co0 1.970 . S
O3 C2 1.258 . S
O4 Co1 1.966 . S
O4 C2 1.263 . S
C5 O6 1.235 . S
C5 O32 1.289 . S
O6 C5 1.235 . S
C7 C9 1.400 . S
C7 N10 1.351 . S
C7 C12 1.501 . S
C8 C9 1.387 . S
C8 N11 1.341 . S
C9 C7 1.400 . S
C9 C8 1.387 . S
N10 Co1 2.022 . S
N10 C7 1.351 . S
N10 N11 1.365 . S
N11 C8 1.341 . S
N11 N10 1.365 . S
N11 H31 0.862 . S
C12 C7 1.501 . S
C12 H13 0.961 . S
C12 H14 0.961 . S
C12 H15 0.960 . S
H13 C12 0.961 . S
H14 C12 0.961 . S
H15 C12 0.960 . S
C16 N17 1.342 . S
C16 C20 1.401 . S
C16 C21 1.499 . S
N17 Co0 1.989 . S
N17 C16 1.342 . S
N17 N18 1.388 . S
N18 Co1 1.993 . S
N18 N17 1.388 . S
N18 C19 1.346 . S
C19 N18 1.346 . S
C19 C20 1.396 . S
C19 C29 1.510 . S
C20 C16 1.401 . S
C20 C19 1.396 . S
C21 C16 1.499 . S
C21 H22 0.959 1_554 S
C21 H23 0.960 . S
C21 H24 0.961 . S
H22 C21 0.959 1_556 S
H23 C21 0.960 . S
H24 C21 0.961 . S
O25 Co0 1.967 . S
O25 C33 1.258 . S
O26 Co1 1.941 . S
O26 C33 1.266 . S
H27 C29 0.959 . S
H28 C29 0.961 . S
C29 C19 1.510 . S
C29 H27 0.959 . S
C29 H28 0.961 . S
C29 H30 0.960 . S
H30 C29 0.960 . S
H31 N11 0.862 . S
O32 Co0 1.920 1_556 S
O32 C5 1.289 . S
C33 O25 1.258 . S
C33 O26 1.266 . S
Co34 O37 1.970 . S
Co34 N51 1.989 . S
Co34 O59 1.967 . S
Co34 O66 1.920 1_554 S
Co35 O38 1.966 . S
Co35 N44 2.022 . S
Co35 N52 1.993 . S
Co35 O60 1.941 . S
C36 O37 1.258 . S
C36 O38 1.263 . S
O37 Co34 1.970 . S
O37 C36 1.258 . S
O38 Co35 1.966 . S
O38 C36 1.263 . S
C39 O40 1.235 . S
C39 O66 1.289 . S
O40 C39 1.235 . S
C41 C43 1.400 . S
C41 N44 1.351 . S
C41 C46 1.501 . S
C42 C43 1.387 . S
C42 N45 1.341 . S
C43 C41 1.400 . S
C43 C42 1.387 . S
N44 Co35 2.022 . S
N44 C41 1.351 . S
N44 N45 1.365 . S
N45 C42 1.341 . S
N45 N44 1.365 . S
N45 H65 0.862 . S
C46 C41 1.501 . S
C46 H47 0.961 . S
C46 H48 0.961 . S
C46 H49 0.960 . S
H47 C46 0.961 . S
H48 C46 0.961 . S
H49 C46 0.960 . S
C50 N51 1.342 . S
C50 C54 1.401 . S
C50 C55 1.499 . S
N51 Co34 1.989 . S
N51 C50 1.342 . S
N51 N52 1.388 . S
N52 Co35 1.993 . S
N52 N51 1.388 . S
N52 C53 1.346 . S
C53 N52 1.346 . S
C53 C54 1.396 . S
C53 C63 1.510 . S
C54 C50 1.401 . S
C54 C53 1.396 . S
C55 C50 1.499 . S
C55 H56 0.959 1_554 S
C55 H57 0.960 . S
C55 H58 0.961 . S
H56 C55 0.959 1_556 S
H57 C55 0.960 . S
H58 C55 0.961 . S
O59 Co34 1.967 . S
O59 C67 1.258 . S
O60 Co35 1.941 . S
O60 C67 1.266 . S
H61 C63 0.959 . S
H62 C63 0.961 . S
C63 C53 1.510 . S
C63 H61 0.959 . S
C63 H62 0.961 . S
C63 H64 0.960 . S
H64 C63 0.960 . S
H65 N45 0.862 . S
O66 Co34 1.920 1_556 S
O66 C39 1.289 . S
C67 O59 1.258 . S
C67 O60 1.266 . S
Co68 O71 1.970 . S
Co68 N85 1.989 . S
Co68 O93 1.967 . S
Co68 O100 1.920 1_554 S
Co69 O72 1.966 . S
Co69 N78 2.022 . S
Co69 N86 1.993 . S
Co69 O94 1.941 . S
C70 O71 1.258 . S
C70 O72 1.263 . S
O71 Co68 1.970 . S
O71 C70 1.258 . S
O72 Co69 1.966 . S
O72 C70 1.263 . S
C73 O74 1.235 . S
C73 O100 1.289 . S
O74 C73 1.235 . S
C75 C77 1.400 . S
C75 N78 1.351 . S
C75 C80 1.501 . S
C76 C77 1.387 . S
C76 N79 1.341 . S
C77 C75 1.400 . S
C77 C76 1.387 . S
N78 Co69 2.022 . S
N78 C75 1.351 . S
N78 N79 1.365 . S
N79 C76 1.341 . S
N79 N78 1.365 . S
N79 H99 0.862 . S
C80 C75 1.501 . S
C80 H81 0.961 . S
C80 H82 0.961 . S
C80 H83 0.960 . S
H81 C80 0.961 . S
H82 C80 0.961 . S
H83 C80 0.960 . S
C84 N85 1.342 . S
C84 C88 1.401 . S
C84 C89 1.499 . S
N85 Co68 1.989 . S
N85 C84 1.342 . S
N85 N86 1.388 . S
N86 Co69 1.993 . S
N86 N85 1.388 . S
N86 C87 1.346 . S
C87 N86 1.346 . S
C87 C88 1.396 . S
C87 C97 1.510 . S
C88 C84 1.401 . S
C88 C87 1.396 . S
C89 C84 1.499 . S
C89 H90 0.959 1_554 S
C89 H91 0.960 . S
C89 H92 0.961 . S
H90 C89 0.959 1_556 S
H91 C89 0.960 . S
H92 C89 0.961 . S
O93 Co68 1.967 . S
O93 C101 1.258 . S
O94 Co69 1.941 . S
O94 C101 1.266 . S
H95 C97 0.959 . S
H96 C97 0.961 . S
C97 C87 1.510 . S
C97 H95 0.959 . S
C97 H96 0.961 . S
C97 H98 0.960 . S
H98 C97 0.960 . S
H99 N79 0.862 . S
O100 Co68 1.920 1_556 S
O100 C73 1.289 . S
C101 O93 1.258 . S
C101 O94 1.266 . S
Co102 O105 1.970 . S
Co102 N119 1.989 . S
Co102 O127 1.967 . S
Co102 O134 1.920 1_556 S
Co103 O106 1.966 . S
Co103 N112 2.022 . S
Co103 N120 1.993 . S
Co103 O128 1.941 . S
C104 O105 1.258 . S
C104 O106 1.263 . S
O105 Co102 1.970 . S
O105 C104 1.258 . S
O106 Co103 1.966 . S
O106 C104 1.263 . S
C107 O108 1.235 . S
C107 O134 1.289 . S
O108 C107 1.235 . S
C109 C111 1.400 . S
C109 N112 1.351 . S
C109 C114 1.501 . S
C110 C111 1.387 . S
C110 N113 1.341 . S
C111 C109 1.400 . S
C111 C110 1.387 . S
N112 Co103 2.022 . S
N112 C109 1.351 . S
N112 N113 1.365 . S
N113 C110 1.341 . S
N113 N112 1.365 . S
N113 H133 0.862 . S
C114 C109 1.501 . S
C114 H115 0.961 . S
C114 H116 0.961 . S
C114 H117 0.960 . S
H115 C114 0.961 . S
H116 C114 0.961 . S
H117 C114 0.960 . S
C118 N119 1.342 . S
C118 C122 1.401 . S
C118 C123 1.499 . S
N119 Co102 1.989 . S
N119 C118 1.342 . S
N119 N120 1.388 . S
N120 Co103 1.993 . S
N120 N119 1.388 . S
N120 C121 1.346 . S
C121 N120 1.346 . S
C121 C122 1.396 . S
C121 C131 1.510 . S
C122 C118 1.401 . S
C122 C121 1.396 . S
C123 C118 1.499 . S
C123 H124 0.959 1_556 S
C123 H125 0.960 . S
C123 H126 0.961 . S
H124 C123 0.959 1_554 S
H125 C123 0.960 . S
H126 C123 0.961 . S
O127 Co102 1.967 . S
O127 C135 1.258 . S
O128 Co103 1.941 . S
O128 C135 1.266 . S
H129 C131 0.959 . S
H130 C131 0.961 . S
C131 C121 1.510 . S
C131 H129 0.959 . S
C131 H130 0.961 . S
C131 H132 0.960 . S
H132 C131 0.960 . S
H133 N113 0.862 . S
O134 Co102 1.920 1_554 S
O134 C107 1.289 . S
C135 O127 1.258 . S
C135 O128 1.266 . S
Co136 O139 1.970 . S
Co136 N153 1.989 . S
Co136 O161 1.967 . S
Co136 O168 1.920 1_556 S
Co137 O140 1.966 . S
Co137 N146 2.022 . S
Co137 N154 1.993 . S
Co137 O162 1.941 . S
C138 O139 1.258 . S
C138 O140 1.263 . S
O139 Co136 1.970 . S
O139 C138 1.258 . S
O140 Co137 1.966 . S
O140 C138 1.263 . S
C141 O142 1.235 . S
C141 O168 1.289 . S
O142 C141 1.235 . S
C143 C145 1.400 . S
C143 N146 1.351 . S
C143 C148 1.501 . S
C144 C145 1.387 . S
C144 N147 1.341 . S
C145 C143 1.400 . S
C145 C144 1.387 . S
N146 Co137 2.022 . S
N146 C143 1.351 . S
N146 N147 1.365 . S
N147 C144 1.341 . S
N147 N146 1.365 . S
N147 H167 0.862 . S
C148 C143 1.501 . S
C148 H149 0.961 . S
C148 H150 0.961 . S
C148 H151 0.960 . S
H149 C148 0.961 . S
H150 C148 0.961 . S
H151 C148 0.960 . S
C152 N153 1.342 . S
C152 C156 1.401 . S
C152 C157 1.499 . S
N153 Co136 1.989 . S
N153 C152 1.342 . S
N153 N154 1.388 . S
N154 Co137 1.993 . S
N154 N153 1.388 . S
N154 C155 1.346 . S
C155 N154 1.346 . S
C155 C156 1.396 . S
C155 C165 1.510 . S
C156 C152 1.401 . S
C156 C155 1.396 . S
C157 C152 1.499 . S
C157 H158 0.959 1_556 S
C157 H159 0.960 . S
C157 H160 0.961 . S
H158 C157 0.959 1_554 S
H159 C157 0.960 . S
H160 C157 0.961 . S
O161 Co136 1.967 . S
O161 C169 1.258 . S
O162 Co137 1.941 . S
O162 C169 1.266 . S
H163 C165 0.959 . S
H164 C165 0.961 . S
C165 C155 1.510 . S
C165 H163 0.959 . S
C165 H164 0.961 . S
C165 H166 0.960 . S
H166 C165 0.960 . S
H167 N147 0.862 . S
O168 Co136 1.920 1_554 S
O168 C141 1.289 . S
C169 O161 1.258 . S
C169 O162 1.266 . S
Co170 O173 1.970 . S
Co170 N187 1.989 . S
Co170 O195 1.967 . S
Co170 O202 1.920 1_556 S
Co171 O174 1.966 . S
Co171 N180 2.022 . S
Co171 N188 1.993 . S
Co171 O196 1.941 . S
C172 O173 1.258 . S
C172 O174 1.263 . S
O173 Co170 1.970 . S
O173 C172 1.258 . S
O174 Co171 1.966 . S
O174 C172 1.263 . S
C175 O176 1.235 . S
C175 O202 1.289 . S
O176 C175 1.235 . S
C177 C179 1.400 . S
C177 N180 1.351 . S
C177 C182 1.501 . S
C178 C179 1.387 . S
C178 N181 1.341 . S
C179 C177 1.400 . S
C179 C178 1.387 . S
N180 Co171 2.022 . S
N180 C177 1.351 . S
N180 N181 1.365 . S
N181 C178 1.341 . S
N181 N180 1.365 . S
N181 H201 0.862 . S
C182 C177 1.501 . S
C182 H183 0.961 . S
C182 H184 0.961 . S
C182 H185 0.960 . S
H183 C182 0.961 . S
H184 C182 0.961 . S
H185 C182 0.960 . S
C186 N187 1.342 . S
C186 C190 1.401 . S
C186 C191 1.499 . S
N187 Co170 1.989 . S
N187 C186 1.342 . S
N187 N188 1.388 . S
N188 Co171 1.993 . S
N188 N187 1.388 . S
N188 C189 1.346 . S
C189 N188 1.346 . S
C189 C190 1.396 . S
C189 C199 1.510 . S
C190 C186 1.401 . S
C190 C189 1.396 . S
C191 C186 1.499 . S
C191 H192 0.959 1_556 S
C191 H193 0.960 . S
C191 H194 0.961 . S
H192 C191 0.959 1_554 S
H193 C191 0.960 . S
H194 C191 0.961 . S
O195 Co170 1.967 . S
O195 C203 1.258 . S
O196 Co171 1.941 . S
O196 C203 1.266 . S
H197 C199 0.959 . S
H198 C199 0.961 . S
C199 C189 1.510 . S
C199 H197 0.959 . S
C199 H198 0.961 . S
C199 H200 0.960 . S
H200 C199 0.960 . S
H201 N181 0.862 . S
O202 Co170 1.920 1_554 S
O202 C175 1.289 . S
C203 O195 1.258 . S
C203 O196 1.266 . S
Co204 O207 1.970 . S
Co204 N221 1.989 . S
Co204 O229 1.967 . S
Co204 O236 1.920 . S
Co205 O208 1.966 . S
Co205 N214 2.022 . S
Co205 N222 1.993 . S
Co205 O230 1.941 . S
C206 O207 1.258 . S
C206 O208 1.263 . S
O207 Co204 1.970 . S
O207 C206 1.258 . S
O208 Co205 1.966 . S
O208 C206 1.263 . S
C209 O210 1.235 . S
C209 O236 1.289 . S
O210 C209 1.235 . S
C211 C213 1.400 . S
C211 N214 1.351 . S
C211 C216 1.501 . S
C212 C213 1.387 . S
C212 N215 1.341 . S
C213 C211 1.400 . S
C213 C212 1.387 . S
N214 Co205 2.022 . S
N214 C211 1.351 . S
N214 N215 1.365 . S
N215 C212 1.341 . S
N215 N214 1.365 . S
N215 H235 0.862 . S
C216 C211 1.501 . S
C216 H217 0.961 . S
C216 H218 0.961 . S
C216 H219 0.960 . S
H217 C216 0.961 . S
H218 C216 0.961 . S
H219 C216 0.960 . S
C220 N221 1.342 . S
C220 C224 1.401 . S
C220 C225 1.499 . S
N221 Co204 1.989 . S
N221 C220 1.342 . S
N221 N222 1.388 . S
N222 Co205 1.993 . S
N222 N221 1.388 . S
N222 C223 1.346 . S
C223 N222 1.346 . S
C223 C224 1.396 . S
C223 C233 1.510 . S
C224 C220 1.401 . S
C224 C223 1.396 . S
C225 C220 1.499 . S
C225 H226 0.959 . S
C225 H227 0.960 . S
C225 H228 0.961 . S
H226 C225 0.959 . S
H227 C225 0.960 . S
H228 C225 0.961 . S
O229 Co204 1.967 . S
O229 C237 1.258 . S
O230 Co205 1.941 . S
O230 C237 1.266 . S
H231 C233 0.959 . S
H232 C233 0.961 . S
C233 C223 1.510 . S
C233 H231 0.959 . S
C233 H232 0.961 . S
C233 H234 0.960 . S
H234 C233 0.960 . S
H235 N215 0.862 . S
O236 Co204 1.920 . S
O236 C209 1.289 . S
C237 O229 1.258 . S
C237 O230 1.266 . S
Co238 O241 1.970 . S
Co238 N255 1.989 . S
Co238 O263 1.967 . S
Co238 O270 1.920 . S
Co239 O242 1.966 . S
Co239 N248 2.022 . S
Co239 N256 1.993 . S
Co239 O264 1.941 . S
C240 O241 1.258 . S
C240 O242 1.263 . S
O241 Co238 1.970 . S
O241 C240 1.258 . S
O242 Co239 1.966 . S
O242 C240 1.263 . S
C243 O244 1.235 . S
C243 O270 1.289 . S
O244 C243 1.235 . S
C245 C247 1.400 . S
C245 N248 1.351 . S
C245 C250 1.501 . S
C246 C247 1.387 . S
C246 N249 1.341 . S
C247 C245 1.400 . S
C247 C246 1.387 . S
N248 Co239 2.022 . S
N248 C245 1.351 . S
N248 N249 1.365 . S
N249 C246 1.341 . S
N249 N248 1.365 . S
N249 H269 0.862 . S
C250 C245 1.501 . S
C250 H251 0.961 . S
C250 H252 0.961 . S
C250 H253 0.960 . S
H251 C250 0.961 . S
H252 C250 0.961 . S
H253 C250 0.960 . S
C254 N255 1.342 . S
C254 C258 1.401 . S
C254 C259 1.499 . S
N255 Co238 1.989 . S
N255 C254 1.342 . S
N255 N256 1.388 . S
N256 Co239 1.993 . S
N256 N255 1.388 . S
N256 C257 1.346 . S
C257 N256 1.346 . S
C257 C258 1.396 . S
C257 C267 1.510 . S
C258 C254 1.401 . S
C258 C257 1.396 . S
C259 C254 1.499 . S
C259 H260 0.959 . S
C259 H261 0.960 . S
C259 H262 0.961 . S
H260 C259 0.959 . S
H261 C259 0.960 . S
H262 C259 0.961 . S
O263 Co238 1.967 . S
O263 C271 1.258 . S
O264 Co239 1.941 . S
O264 C271 1.266 . S
H265 C267 0.959 . S
H266 C267 0.961 . S
C267 C257 1.510 . S
C267 H265 0.959 . S
C267 H266 0.961 . S
C267 H268 0.960 . S
H268 C267 0.960 . S
H269 N249 0.862 . S
O270 Co238 1.920 . S
O270 C243 1.289 . S
C271 O263 1.258 . S
C271 O264 1.266 . S
Co272 O275 1.970 . S
Co272 N289 1.989 . S
Co272 O297 1.967 . S
Co272 O304 1.920 . S
Co273 O276 1.966 . S
Co273 N282 2.022 . S
Co273 N290 1.993 . S
Co273 O298 1.941 . S
C274 O275 1.258 . S
C274 O276 1.263 . S
O275 Co272 1.970 . S
O275 C274 1.258 . S
O276 Co273 1.966 . S
O276 C274 1.263 . S
C277 O278 1.235 . S
C277 O304 1.289 . S
O278 C277 1.235 . S
C279 C281 1.400 . S
C279 N282 1.351 . S
C279 C284 1.501 . S
C280 C281 1.387 . S
C280 N283 1.341 . S
C281 C279 1.400 . S
C281 C280 1.387 . S
N282 Co273 2.022 . S
N282 C279 1.351 . S
N282 N283 1.365 . S
N283 C280 1.341 . S
N283 N282 1.365 . S
N283 H303 0.862 . S
C284 C279 1.501 . S
C284 H285 0.961 . S
C284 H286 0.961 . S
C284 H287 0.960 . S
H285 C284 0.961 . S
H286 C284 0.961 . S
H287 C284 0.960 . S
C288 N289 1.342 . S
C288 C292 1.401 . S
C288 C293 1.499 . S
N289 Co272 1.989 . S
N289 C288 1.342 . S
N289 N290 1.388 . S
N290 Co273 1.993 . S
N290 N289 1.388 . S
N290 C291 1.346 . S
C291 N290 1.346 . S
C291 C292 1.396 . S
C291 C301 1.510 . S
C292 C288 1.401 . S
C292 C291 1.396 . S
C293 C288 1.499 . S
C293 H294 0.959 . S
C293 H295 0.960 . S
C293 H296 0.961 . S
H294 C293 0.959 . S
H295 C293 0.960 . S
H296 C293 0.961 . S
O297 Co272 1.967 . S
O297 C305 1.258 . S
O298 Co273 1.941 . S
O298 C305 1.266 . S
H299 C301 0.959 . S
H300 C301 0.961 . S
C301 C291 1.510 . S
C301 H299 0.959 . S
C301 H300 0.961 . S
C301 H302 0.960 . S
H302 C301 0.960 . S
H303 N283 0.862 . S
O304 Co272 1.920 . S
O304 C277 1.289 . S
C305 O297 1.258 . S
C305 O298 1.266 . S
Co306 O309 1.970 . S
Co306 N323 1.989 . S
Co306 O331 1.967 . S
Co306 O338 1.920 . S
Co307 O310 1.966 . S
Co307 N316 2.022 1_554 S
Co307 N324 1.993 . S
Co307 O332 1.941 . S
C308 O309 1.258 . S
C308 O310 1.263 . S
O309 Co306 1.970 . S
O309 C308 1.258 . S
O310 Co307 1.966 . S
O310 C308 1.263 . S
C311 O312 1.235 . S
C311 O338 1.289 . S
O312 C311 1.235 . S
C313 C315 1.400 . S
C313 N316 1.351 . S
C313 C318 1.501 . S
C314 C315 1.387 . S
C314 N317 1.341 . S
C315 C313 1.400 . S
C315 C314 1.387 . S
N316 Co307 2.022 1_556 S
N316 C313 1.351 . S
N316 N317 1.365 . S
N317 C314 1.341 . S
N317 N316 1.365 . S
N317 H337 0.862 . S
C318 C313 1.501 . S
C318 H319 0.961 1_556 S
C318 H320 0.961 . S
C318 H321 0.960 . S
H319 C318 0.961 1_554 S
H320 C318 0.961 . S
H321 C318 0.960 . S
C322 N323 1.342 . S
C322 C326 1.401 . S
C322 C327 1.499 . S
N323 Co306 1.989 . S
N323 C322 1.342 . S
N323 N324 1.388 . S
N324 Co307 1.993 . S
N324 N323 1.388 . S
N324 C325 1.346 . S
C325 N324 1.346 . S
C325 C326 1.396 . S
C325 C335 1.510 1_554 S
C326 C322 1.401 . S
C326 C325 1.396 . S
C327 C322 1.499 . S
C327 H328 0.959 . S
C327 H329 0.960 . S
C327 H330 0.961 . S
H328 C327 0.959 . S
H329 C327 0.960 . S
H330 C327 0.961 . S
O331 Co306 1.967 . S
O331 C339 1.258 . S
O332 Co307 1.941 . S
O332 C339 1.266 . S
H333 C335 0.959 . S
H334 C335 0.961 . S
C335 C325 1.510 1_556 S
C335 H333 0.959 . S
C335 H334 0.961 . S
C335 H336 0.960 . S
H336 C335 0.960 . S
H337 N317 0.862 . S
O338 Co306 1.920 . S
O338 C311 1.289 . S
C339 O331 1.258 . S
C339 O332 1.266 . S
Co340 O343 1.970 . S
Co340 N357 1.989 . S
Co340 O365 1.967 . S
Co340 O372 1.920 . S
Co341 O344 1.966 . S
Co341 N350 2.022 1_554 S
Co341 N358 1.993 . S
Co341 O366 1.941 . S
C342 O343 1.258 . S
C342 O344 1.263 . S
O343 Co340 1.970 . S
O343 C342 1.258 . S
O344 Co341 1.966 . S
O344 C342 1.263 . S
C345 O346 1.235 . S
C345 O372 1.289 . S
O346 C345 1.235 . S
C347 C349 1.400 . S
C347 N350 1.351 . S
C347 C352 1.501 . S
C348 C349 1.387 . S
C348 N351 1.341 . S
C349 C347 1.400 . S
C349 C348 1.387 . S
N350 Co341 2.022 1_556 S
N350 C347 1.351 . S
N350 N351 1.365 . S
N351 C348 1.341 . S
N351 N350 1.365 . S
N351 H371 0.862 . S
C352 C347 1.501 . S
C352 H353 0.961 1_556 S
C352 H354 0.961 . S
C352 H355 0.960 . S
H353 C352 0.961 1_554 S
H354 C352 0.961 . S
H355 C352 0.960 . S
C356 N357 1.342 . S
C356 C360 1.401 . S
C356 C361 1.499 . S
N357 Co340 1.989 . S
N357 C356 1.342 . S
N357 N358 1.388 . S
N358 Co341 1.993 . S
N358 N357 1.388 . S
N358 C359 1.346 . S
C359 N358 1.346 . S
C359 C360 1.396 . S
C359 C369 1.510 1_554 S
C360 C356 1.401 . S
C360 C359 1.396 . S
C361 C356 1.499 . S
C361 H362 0.959 . S
C361 H363 0.960 . S
C361 H364 0.961 . S
H362 C361 0.959 . S
H363 C361 0.960 . S
H364 C361 0.961 . S
O365 Co340 1.967 . S
O365 C373 1.258 . S
O366 Co341 1.941 . S
O366 C373 1.266 . S
H367 C369 0.959 . S
H368 C369 0.961 . S
C369 C359 1.510 1_556 S
C369 H367 0.959 . S
C369 H368 0.961 . S
C369 H370 0.960 . S
H370 C369 0.960 . S
H371 N351 0.862 . S
O372 Co340 1.920 . S
O372 C345 1.289 . S
C373 O365 1.258 . S
C373 O366 1.266 . S
Co374 O377 1.970 . S
Co374 N391 1.989 . S
Co374 O399 1.967 . S
Co374 O406 1.920 . S
Co375 O378 1.966 . S
Co375 N384 2.022 1_554 S
Co375 N392 1.993 . S
Co375 O400 1.941 . S
C376 O377 1.258 . S
C376 O378 1.263 . S
O377 Co374 1.970 . S
O377 C376 1.258 . S
O378 Co375 1.966 . S
O378 C376 1.263 . S
C379 O380 1.235 . S
C379 O406 1.289 . S
O380 C379 1.235 . S
C381 C383 1.400 . S
C381 N384 1.351 . S
C381 C386 1.501 . S
C382 C383 1.387 . S
C382 N385 1.341 . S
C383 C381 1.400 . S
C383 C382 1.387 . S
N384 Co375 2.022 1_556 S
N384 C381 1.351 . S
N384 N385 1.365 . S
N385 C382 1.341 . S
N385 N384 1.365 . S
N385 H405 0.862 . S
C386 C381 1.501 . S
C386 H387 0.961 1_556 S
C386 H388 0.961 . S
C386 H389 0.960 . S
H387 C386 0.961 1_554 S
H388 C386 0.961 . S
H389 C386 0.960 . S
C390 N391 1.342 . S
C390 C394 1.401 . S
C390 C395 1.499 . S
N391 Co374 1.989 . S
N391 C390 1.342 . S
N391 N392 1.388 . S
N392 Co375 1.993 . S
N392 N391 1.388 . S
N392 C393 1.346 . S
C393 N392 1.346 . S
C393 C394 1.396 . S
C393 C403 1.510 1_554 S
C394 C390 1.401 . S
C394 C393 1.396 . S
C395 C390 1.499 . S
C395 H396 0.959 . S
C395 H397 0.960 . S
C395 H398 0.961 . S
H396 C395 0.959 . S
H397 C395 0.960 . S
H398 C395 0.961 . S
O399 Co374 1.967 . S
O399 C407 1.258 . S
O400 Co375 1.941 . S
O400 C407 1.266 . S
H401 C403 0.959 . S
H402 C403 0.961 . S
C403 C393 1.510 1_556 S
C403 H401 0.959 . S
C403 H402 0.961 . S
C403 H404 0.960 . S
H404 C403 0.960 . S
H405 N385 0.862 . S
O406 Co374 1.920 . S
O406 C379 1.289 . S
C407 O399 1.258 . S
C407 O400 1.266 . S
Co408 O411 1.970 . S
Co408 N425 1.989 . S
Co408 O433 1.967 . S
Co408 O440 1.920 . S
Co409 O412 1.966 . S
Co409 N418 2.022 1_556 S
Co409 N426 1.993 . S
Co409 O434 1.941 . S
C410 O411 1.258 . S
C410 O412 1.263 . S
O411 Co408 1.970 . S
O411 C410 1.258 . S
O412 Co409 1.966 . S
O412 C410 1.263 . S
C413 O414 1.235 . S
C413 O440 1.289 . S
O414 C413 1.235 . S
C415 C417 1.400 . S
C415 N418 1.351 . S
C415 C420 1.501 . S
C416 C417 1.387 . S
C416 N419 1.341 . S
C417 C415 1.400 . S
C417 C416 1.387 . S
N418 Co409 2.022 1_554 S
N418 C415 1.351 . S
N418 N419 1.365 . S
N419 C416 1.341 . S
N419 N418 1.365 . S
N419 H439 0.862 . S
C420 C415 1.501 . S
C420 H421 0.961 1_554 S
C420 H422 0.961 . S
C420 H423 0.960 . S
H421 C420 0.961 1_556 S
H422 C420 0.961 . S
H423 C420 0.960 . S
C424 N425 1.342 . S
C424 C428 1.401 . S
C424 C429 1.499 . S
N425 Co408 1.989 . S
N425 C424 1.342 . S
N425 N426 1.388 . S
N426 Co409 1.993 . S
N426 N425 1.388 . S
N426 C427 1.346 . S
C427 N426 1.346 . S
C427 C428 1.396 . S
C427 C437 1.510 1_556 S
C428 C424 1.401 . S
C428 C427 1.396 . S
C429 C424 1.499 . S
C429 H430 0.959 . S
C429 H431 0.960 . S
C429 H432 0.961 . S
H430 C429 0.959 . S
H431 C429 0.960 . S
H432 C429 0.961 . S
O433 Co408 1.967 . S
O433 C441 1.258 . S
O434 Co409 1.941 . S
O434 C441 1.266 . S
H435 C437 0.959 . S
H436 C437 0.961 . S
C437 C427 1.510 1_554 S
C437 H435 0.959 . S
C437 H436 0.961 . S
C437 H438 0.960 . S
H438 C437 0.960 . S
H439 N419 0.862 . S
O440 Co408 1.920 . S
O440 C413 1.289 . S
C441 O433 1.258 . S
C441 O434 1.266 . S
Co442 O445 1.970 . S
Co442 N459 1.989 . S
Co442 O467 1.967 . S
Co442 O474 1.920 . S
Co443 O446 1.966 . S
Co443 N452 2.022 1_556 S
Co443 N460 1.993 . S
Co443 O468 1.941 . S
C444 O445 1.258 . S
C444 O446 1.263 . S
O445 Co442 1.970 . S
O445 C444 1.258 . S
O446 Co443 1.966 . S
O446 C444 1.263 . S
C447 O448 1.235 . S
C447 O474 1.289 . S
O448 C447 1.235 . S
C449 C451 1.400 . S
C449 N452 1.351 . S
C449 C454 1.501 . S
C450 C451 1.387 . S
C450 N453 1.341 . S
C451 C449 1.400 . S
C451 C450 1.387 . S
N452 Co443 2.022 1_554 S
N452 C449 1.351 . S
N452 N453 1.365 . S
N453 C450 1.341 . S
N453 N452 1.365 . S
N453 H473 0.862 . S
C454 C449 1.501 . S
C454 H455 0.961 1_554 S
C454 H456 0.961 . S
C454 H457 0.960 . S
H455 C454 0.961 1_556 S
H456 C454 0.961 . S
H457 C454 0.960 . S
C458 N459 1.342 . S
C458 C462 1.401 . S
C458 C463 1.499 . S
N459 Co442 1.989 . S
N459 C458 1.342 . S
N459 N460 1.388 . S
N460 Co443 1.993 . S
N460 N459 1.388 . S
N460 C461 1.346 . S
C461 N460 1.346 . S
C461 C462 1.396 . S
C461 C471 1.510 1_556 S
C462 C458 1.401 . S
C462 C461 1.396 . S
C463 C458 1.499 . S
C463 H464 0.959 . S
C463 H465 0.960 . S
C463 H466 0.961 . S
H464 C463 0.959 . S
H465 C463 0.960 . S
H466 C463 0.961 . S
O467 Co442 1.967 . S
O467 C475 1.258 . S
O468 Co443 1.941 . S
O468 C475 1.266 . S
H469 C471 0.959 . S
H470 C471 0.961 . S
C471 C461 1.510 1_554 S
C471 H469 0.959 . S
C471 H470 0.961 . S
C471 H472 0.960 . S
H472 C471 0.960 . S
H473 N453 0.862 . S
O474 Co442 1.920 . S
O474 C447 1.289 . S
C475 O467 1.258 . S
C475 O468 1.266 . S
Co476 O479 1.970 . S
Co476 N493 1.989 . S
Co476 O501 1.967 . S
Co476 O508 1.920 . S
Co477 O480 1.966 . S
Co477 N486 2.022 1_556 S
Co477 N494 1.993 . S
Co477 O502 1.941 . S
C478 O479 1.258 . S
C478 O480 1.263 . S
O479 Co476 1.970 . S
O479 C478 1.258 . S
O480 Co477 1.966 . S
O480 C478 1.263 . S
C481 O482 1.235 . S
C481 O508 1.289 . S
O482 C481 1.235 . S
C483 C485 1.400 . S
C483 N486 1.351 . S
C483 C488 1.501 . S
C484 C485 1.387 . S
C484 N487 1.341 . S
C485 C483 1.400 . S
C485 C484 1.387 . S
N486 Co477 2.022 1_554 S
N486 C483 1.351 . S
N486 N487 1.365 . S
N487 C484 1.341 . S
N487 N486 1.365 . S
N487 H507 0.862 . S
C488 C483 1.501 . S
C488 H489 0.961 1_554 S
C488 H490 0.961 . S
C488 H491 0.960 . S
H489 C488 0.961 1_556 S
H490 C488 0.961 . S
H491 C488 0.960 . S
C492 N493 1.342 . S
C492 C496 1.401 . S
C492 C497 1.499 . S
N493 Co476 1.989 . S
N493 C492 1.342 . S
N493 N494 1.388 . S
N494 Co477 1.993 . S
N494 N493 1.388 . S
N494 C495 1.346 . S
C495 N494 1.346 . S
C495 C496 1.396 . S
C495 C505 1.510 1_556 S
C496 C492 1.401 . S
C496 C495 1.396 . S
C497 C492 1.499 . S
C497 H498 0.959 . S
C497 H499 0.960 . S
C497 H500 0.961 . S
H498 C497 0.959 . S
H499 C497 0.960 . S
H500 C497 0.961 . S
O501 Co476 1.967 . S
O501 C509 1.258 . S
O502 Co477 1.941 . S
O502 C509 1.266 . S
H503 C505 0.959 . S
H504 C505 0.961 . S
C505 C495 1.510 1_554 S
C505 H503 0.959 . S
C505 H504 0.961 . S
C505 H506 0.960 . S
H506 C505 0.960 . S
H507 N487 0.862 . S
O508 Co476 1.920 . S
O508 C481 1.289 . S
C509 O501 1.258 . S
C509 O502 1.266 . S
Co510 O513 1.970 . S
Co510 N527 1.989 . S
Co510 O535 1.967 . S
Co510 O542 1.920 . S
Co511 O514 1.966 . S
Co511 N520 2.022 . S
Co511 N528 1.993 . S
Co511 O536 1.941 . S
C512 O513 1.258 . S
C512 O514 1.263 . S
O513 Co510 1.970 . S
O513 C512 1.258 . S
O514 Co511 1.966 . S
O514 C512 1.263 . S
C515 O516 1.235 . S
C515 O542 1.289 . S
O516 C515 1.235 . S
C517 C519 1.400 . S
C517 N520 1.351 . S
C517 C522 1.501 . S
C518 C519 1.387 . S
C518 N521 1.341 . S
C519 C517 1.400 . S
C519 C518 1.387 . S
N520 Co511 2.022 . S
N520 C517 1.351 . S
N520 N521 1.365 . S
N521 C518 1.341 . S
N521 N520 1.365 . S
N521 H541 0.862 . S
C522 C517 1.501 . S
C522 H523 0.961 . S
C522 H524 0.961 . S
C522 H525 0.960 . S
H523 C522 0.961 . S
H524 C522 0.961 . S
H525 C522 0.960 . S
C526 N527 1.342 . S
C526 C530 1.401 . S
C526 C531 1.499 . S
N527 Co510 1.989 . S
N527 C526 1.342 . S
N527 N528 1.388 . S
N528 Co511 1.993 . S
N528 N527 1.388 . S
N528 C529 1.346 . S
C529 N528 1.346 . S
C529 C530 1.396 . S
C529 C539 1.510 . S
C530 C526 1.401 . S
C530 C529 1.396 . S
C531 C526 1.499 . S
C531 H532 0.959 . S
C531 H533 0.960 . S
C531 H534 0.961 . S
H532 C531 0.959 . S
H533 C531 0.960 . S
H534 C531 0.961 . S
O535 Co510 1.967 . S
O535 C543 1.258 . S
O536 Co511 1.941 . S
O536 C543 1.266 . S
H537 C539 0.959 . S
H538 C539 0.961 . S
C539 C529 1.510 . S
C539 H537 0.959 . S
C539 H538 0.961 . S
C539 H540 0.960 . S
H540 C539 0.960 . S
H541 N521 0.862 . S
O542 Co510 1.920 . S
O542 C515 1.289 . S
C543 O535 1.258 . S
C543 O536 1.266 . S
Co544 O547 1.970 . S
Co544 N561 1.989 . S
Co544 O569 1.967 . S
Co544 O576 1.920 . S
Co545 O548 1.966 . S
Co545 N554 2.022 . S
Co545 N562 1.993 . S
Co545 O570 1.941 . S
C546 O547 1.258 . S
C546 O548 1.263 . S
O547 Co544 1.970 . S
O547 C546 1.258 . S
O548 Co545 1.966 . S
O548 C546 1.263 . S
C549 O550 1.235 . S
C549 O576 1.289 . S
O550 C549 1.235 . S
C551 C553 1.400 . S
C551 N554 1.351 . S
C551 C556 1.501 . S
C552 C553 1.387 . S
C552 N555 1.341 . S
C553 C551 1.400 . S
C553 C552 1.387 . S
N554 Co545 2.022 . S
N554 C551 1.351 . S
N554 N555 1.365 . S
N555 C552 1.341 . S
N555 N554 1.365 . S
N555 H575 0.862 . S
C556 C551 1.501 . S
C556 H557 0.961 . S
C556 H558 0.961 . S
C556 H559 0.960 . S
H557 C556 0.961 . S
H558 C556 0.961 . S
H559 C556 0.960 . S
C560 N561 1.342 . S
C560 C564 1.401 . S
C560 C565 1.499 . S
N561 Co544 1.989 . S
N561 C560 1.342 . S
N561 N562 1.388 . S
N562 Co545 1.993 . S
N562 N561 1.388 . S
N562 C563 1.346 . S
C563 N562 1.346 . S
C563 C564 1.396 . S
C563 C573 1.510 . S
C564 C560 1.401 . S
C564 C563 1.396 . S
C565 C560 1.499 . S
C565 H566 0.959 . S
C565 H567 0.960 . S
C565 H568 0.961 . S
H566 C565 0.959 . S
H567 C565 0.960 . S
H568 C565 0.961 . S
O569 Co544 1.967 . S
O569 C577 1.258 . S
O570 Co545 1.941 . S
O570 C577 1.266 . S
H571 C573 0.959 . S
H572 C573 0.961 . S
C573 C563 1.510 . S
C573 H571 0.959 . S
C573 H572 0.961 . S
C573 H574 0.960 . S
H574 C573 0.960 . S
H575 N555 0.862 . S
O576 Co544 1.920 . S
O576 C549 1.289 . S
C577 O569 1.258 . S
C577 O570 1.266 . S
Co578 O581 1.970 . S
Co578 N595 1.989 . S
Co578 O603 1.967 . S
Co578 O610 1.920 . S
Co579 O582 1.966 . S
Co579 N588 2.022 . S
Co579 N596 1.993 . S
Co579 O604 1.941 . S
C580 O581 1.258 . S
C580 O582 1.263 . S
O581 Co578 1.970 . S
O581 C580 1.258 . S
O582 Co579 1.966 . S
O582 C580 1.263 . S
C583 O584 1.235 . S
C583 O610 1.289 . S
O584 C583 1.235 . S
C585 C587 1.400 . S
C585 N588 1.351 . S
C585 C590 1.501 . S
C586 C587 1.387 . S
C586 N589 1.341 . S
C587 C585 1.400 . S
C587 C586 1.387 . S
N588 Co579 2.022 . S
N588 C585 1.351 . S
N588 N589 1.365 . S
N589 C586 1.341 . S
N589 N588 1.365 . S
N589 H609 0.862 . S
C590 C585 1.501 . S
C590 H591 0.961 . S
C590 H592 0.961 . S
C590 H593 0.960 . S
H591 C590 0.961 . S
H592 C590 0.961 . S
H593 C590 0.960 . S
C594 N595 1.342 . S
C594 C598 1.401 . S
C594 C599 1.499 . S
N595 Co578 1.989 . S
N595 C594 1.342 . S
N595 N596 1.388 . S
N596 Co579 1.993 . S
N596 N595 1.388 . S
N596 C597 1.346 . S
C597 N596 1.346 . S
C597 C598 1.396 . S
C597 C607 1.510 . S
C598 C594 1.401 . S
C598 C597 1.396 . S
C599 C594 1.499 . S
C599 H600 0.959 . S
C599 H601 0.960 . S
C599 H602 0.961 . S
H600 C599 0.959 . S
H601 C599 0.960 . S
H602 C599 0.961 . S
O603 Co578 1.967 . S
O603 C611 1.258 . S
O604 Co579 1.941 . S
O604 C611 1.266 . S
H605 C607 0.959 . S
H606 C607 0.961 . S
C607 C597 1.510 . S
C607 H605 0.959 . S
C607 H606 0.961 . S
C607 H608 0.960 . S
H608 C607 0.960 . S
H609 N589 0.862 . S
O610 Co578 1.920 . S
O610 C583 1.289 . S
C611 O603 1.258 . S
C611 O604 1.266 . S
C612 C613 1.369 . S
C612 C614 1.419 . S
C612 H616 0.930 . S
C613 C612 1.369 . S
C613 C622 1.429 . S
C614 C612 1.419 . S
C614 C615 1.363 . S
C614 H617 0.929 . S
C615 C614 1.363 . S
C615 C621 1.428 . S
H616 C612 0.930 . S
H617 C614 0.929 . S
S618 N619 1.613 . S
S618 N620 1.610 . S
N619 S618 1.613 . S
N619 C622 1.350 . S
N620 S618 1.610 . S
N620 C621 1.351 . S
C621 C615 1.428 . S
C621 N620 1.351 . S
C621 C622 1.434 . S
C622 C613 1.429 . S
C622 N619 1.350 . S
C622 C621 1.434 . S
C623 C624 1.369 . S
C623 C625 1.419 . S
C623 H627 0.930 . S
C624 C623 1.369 . S
C624 C633 1.429 . S
C625 C623 1.419 . S
C625 C626 1.363 . S
C625 H628 0.929 . S
C626 C625 1.363 . S
C626 C632 1.428 . S
H627 C623 0.930 . S
H628 C625 0.929 . S
S629 N630 1.613 . S
S629 N631 1.610 . S
N630 S629 1.613 . S
N630 C633 1.350 . S
N631 S629 1.610 . S
N631 C632 1.351 . S
C632 C626 1.428 . S
C632 N631 1.351 . S
C632 C633 1.434 . S
C633 C624 1.429 . S
C633 N630 1.350 . S
C633 C632 1.434 . S
C634 C635 1.369 . S
C634 C636 1.419 . S
C634 H638 0.930 . S
C635 C634 1.369 . S
C635 C644 1.429 . S
C636 C634 1.419 . S
C636 C637 1.363 . S
C636 H639 0.929 . S
C637 C636 1.363 . S
C637 C643 1.428 . S
H638 C634 0.930 . S
H639 C636 0.929 . S
S640 N641 1.613 . S
S640 N642 1.610 . S
N641 S640 1.613 . S
N641 C644 1.350 . S
N642 S640 1.610 . S
N642 C643 1.351 . S
C643 C637 1.428 . S
C643 N642 1.351 . S
C643 C644 1.434 . S
C644 C635 1.429 . S
C644 N641 1.350 . S
C644 C643 1.434 . S
C645 C646 1.369 . S
C645 C647 1.419 . S
C645 H649 0.930 . S
C646 C645 1.369 . S
C646 C655 1.429 . S
C647 C645 1.419 . S
C647 C648 1.363 . S
C647 H650 0.929 . S
C648 C647 1.363 . S
C648 C654 1.428 . S
H649 C645 0.930 . S
H650 C647 0.929 . S
S651 N652 1.613 . S
S651 N653 1.610 . S
N652 S651 1.613 . S
N652 C655 1.350 . S
N653 S651 1.610 . S
N653 C654 1.351 . S
C654 C648 1.428 . S
C654 N653 1.351 . S
C654 C655 1.434 . S
C655 C646 1.429 . S
C655 N652 1.350 . S
C655 C654 1.434 . S
C656 C657 1.369 . S
C656 C658 1.419 . S
C656 H660 0.930 . S
C657 C656 1.369 . S
C657 C666 1.429 . S
C658 C656 1.419 . S
C658 C659 1.363 . S
C658 H661 0.929 . S
C659 C658 1.363 . S
C659 C665 1.428 . S
H660 C656 0.930 . S
H661 C658 0.929 . S
S662 N663 1.613 . S
S662 N664 1.610 . S
N663 S662 1.613 . S
N663 C666 1.350 . S
N664 S662 1.610 . S
N664 C665 1.351 . S
C665 C659 1.428 . S
C665 N664 1.351 . S
C665 C666 1.434 . S
C666 C657 1.429 . S
C666 N663 1.350 . S
C666 C665 1.434 . S
C667 C668 1.369 . S
C667 C669 1.419 . S
C667 H671 0.930 . S
C668 C667 1.369 . S
C668 C677 1.429 . S
C669 C667 1.419 . S
C669 C670 1.363 . S
C669 H672 0.929 . S
C670 C669 1.363 . S
C670 C676 1.428 . S
H671 C667 0.930 . S
H672 C669 0.929 . S
S673 N674 1.613 . S
S673 N675 1.610 . S
N674 S673 1.613 . S
N674 C677 1.350 . S
N675 S673 1.610 . S
N675 C676 1.351 . S
C676 C670 1.428 . S
C676 N675 1.351 . S
C676 C677 1.434 . S
C677 C668 1.429 . S
C677 N674 1.350 . S
C677 C676 1.434 . S
C678 C679 1.369 . S
C678 C680 1.419 1_554 S
C678 H682 0.930 . S
C679 C678 1.369 . S
C679 C688 1.429 . S
C680 C678 1.419 1_556 S
C680 C681 1.363 . S
C680 H683 0.929 . S
C681 C680 1.363 . S
C681 C687 1.428 1_556 S
H682 C678 0.930 . S
H683 C680 0.929 . S
S684 N685 1.613 . S
S684 N686 1.610 1_554 S
N685 S684 1.613 . S
N685 C688 1.350 . S
N686 S684 1.610 1_556 S
N686 C687 1.351 1_556 S
C687 C681 1.428 1_554 S
C687 N686 1.351 1_554 S
C687 C688 1.434 . S
C688 C679 1.429 . S
C688 N685 1.350 . S
C688 C687 1.434 . S
C689 C690 1.369 . S
C689 C691 1.419 1_554 S
C689 H693 0.930 . S
C690 C689 1.369 . S
C690 C699 1.429 . S
C691 C689 1.419 1_556 S
C691 C692 1.363 . S
C691 H694 0.929 . S
C692 C691 1.363 . S
C692 C698 1.428 1_556 S
H693 C689 0.930 . S
H694 C691 0.929 . S
S695 N696 1.613 . S
S695 N697 1.610 . S
N696 S695 1.613 . S
N696 C699 1.350 . S
N697 S695 1.610 . S
N697 C698 1.351 . S
C698 C692 1.428 1_554 S
C698 N697 1.351 . S
C698 C699 1.434 . S
C699 C690 1.429 . S
C699 N696 1.350 . S
C699 C698 1.434 . S
C700 C701 1.369 . S
C700 C702 1.419 1_556 S
C700 H704 0.930 . S
C701 C700 1.369 . S
C701 C710 1.429 . S
C702 C700 1.419 1_554 S
C702 C703 1.363 . S
C702 H705 0.929 . S
C703 C702 1.363 . S
C703 C709 1.428 . S
H704 C700 0.930 . S
H705 C702 0.929 . S
S706 N707 1.613 . S
S706 N708 1.610 1_556 S
N707 S706 1.613 . S
N707 C710 1.350 . S
N708 S706 1.610 1_554 S
N708 C709 1.351 . S
C709 C703 1.428 . S
C709 N708 1.351 . S
C709 C710 1.434 1_554 S
C710 C701 1.429 . S
C710 N707 1.350 . S
C710 C709 1.434 1_556 S
C711 C712 1.369 . S
C711 C713 1.419 . S
C711 H715 0.930 . S
C712 C711 1.369 . S
C712 C721 1.429 . S
C713 C711 1.419 . S
C713 C714 1.363 . S
C713 H716 0.929 . S
C714 C713 1.363 . S
C714 C720 1.428 . S
H715 C711 0.930 . S
H716 C713 0.929 . S
S717 N718 1.613 . S
S717 N719 1.610 . S
N718 S717 1.613 . S
N718 C721 1.350 . S
N719 S717 1.610 . S
N719 C720 1.351 . S
C720 C714 1.428 . S
C720 N719 1.351 . S
C720 C721 1.434 . S
C721 C712 1.429 . S
C721 N718 1.350 . S
C721 C720 1.434 . S
C722 C723 1.369 . S
C722 C724 1.419 . S
C722 H726 0.930 . S
C723 C722 1.369 . S
C723 C732 1.429 . S
C724 C722 1.419 . S
C724 C725 1.363 . S
C724 H727 0.929 . S
C725 C724 1.363 . S
C725 C731 1.428 . S
H726 C722 0.930 . S
H727 C724 0.929 . S
S728 N729 1.613 . S
S728 N730 1.610 . S
N729 S728 1.613 . S
N729 C732 1.350 . S
N730 S728 1.610 . S
N730 C731 1.351 . S
C731 C725 1.428 . S
C731 N730 1.351 . S
C731 C732 1.434 . S
C732 C723 1.429 . S
C732 N729 1.350 . S
C732 C731 1.434 . S
C733 C734 1.369 . S
C733 C735 1.419 . S
C733 H737 0.930 . S
C734 C733 1.369 . S
C734 C743 1.429 . S
C735 C733 1.419 . S
C735 C736 1.363 . S
C735 H738 0.929 . S
C736 C735 1.363 . S
C736 C742 1.428 . S
H737 C733 0.930 . S
H738 C735 0.929 . S
S739 N740 1.613 . S
S739 N741 1.610 . S
N740 S739 1.613 . S
N740 C743 1.350 . S
N741 S739 1.610 . S
N741 C742 1.351 . S
C742 C736 1.428 . S
C742 N741 1.351 . S
C742 C743 1.434 . S
C743 C734 1.429 . S
C743 N740 1.350 . S
C743 C742 1.434 . S
C744 C745 1.369 . S
C744 C746 1.419 . S
C744 H748 0.930 . S
C745 C744 1.369 . S
C745 C754 1.429 . S
C746 C744 1.419 . S
C746 C747 1.363 . S
C746 H749 0.929 . S
C747 C746 1.363 . S
C747 C753 1.428 . S
H748 C744 0.930 . S
H749 C746 0.929 . S
S750 N751 1.613 . S
S750 N752 1.610 . S
N751 S750 1.613 . S
N751 C754 1.350 . S
N752 S750 1.610 . S
N752 C753 1.351 . S
C753 C747 1.428 . S
C753 N752 1.351 . S
C753 C754 1.434 . S
C754 C745 1.429 . S
C754 N751 1.350 . S
C754 C753 1.434 . S
C755 C756 1.369 . S
C755 C757 1.419 . S
C755 H759 0.930 . S
C756 C755 1.369 . S
C756 C765 1.429 . S
C757 C755 1.419 . S
C757 C758 1.363 . S
C757 H760 0.929 . S
C758 C757 1.363 . S
C758 C764 1.428 . S
H759 C755 0.930 . S
H760 C757 0.929 . S
S761 N762 1.613 . S
S761 N763 1.610 . S
N762 S761 1.613 . S
N762 C765 1.350 . S
N763 S761 1.610 . S
N763 C764 1.351 . S
C764 C758 1.428 . S
C764 N763 1.351 . S
C764 C765 1.434 . S
C765 C756 1.429 . S
C765 N762 1.350 . S
C765 C764 1.434 . S
C766 C767 1.369 . S
C766 C768 1.419 . S
C766 H770 0.930 . S
C767 C766 1.369 . S
C767 C776 1.429 . S
C768 C766 1.419 . S
C768 C769 1.363 . S
C768 H771 0.929 . S
C769 C768 1.363 . S
C769 C775 1.428 . S
H770 C766 0.930 . S
H771 C768 0.929 . S
S772 N773 1.613 . S
S772 N774 1.610 . S
N773 S772 1.613 . S
N773 C776 1.350 . S
N774 S772 1.610 . S
N774 C775 1.351 . S
C775 C769 1.428 . S
C775 N774 1.351 . S
C775 C776 1.434 . S
C776 C767 1.429 . S
C776 N773 1.350 . S
C776 C775 1.434 . S
C777 C778 1.369 . S
C777 C779 1.419 1_554 S
C777 H781 0.930 . S
C778 C777 1.369 . S
C778 C787 1.429 1_554 S
C779 C777 1.419 1_556 S
C779 C780 1.363 . S
C779 H782 0.929 . S
C780 C779 1.363 . S
C780 C786 1.428 . S
H781 C777 0.930 . S
H782 C779 0.929 . S
S783 N784 1.613 . S
S783 N785 1.610 . S
N784 S783 1.613 . S
N784 C787 1.350 . S
N785 S783 1.610 . S
N785 C786 1.351 . S
C786 C780 1.428 . S
C786 N785 1.351 . S
C786 C787 1.434 . S
C787 C778 1.429 1_556 S
C787 N784 1.350 . S
C787 C786 1.434 . S
C788 C789 1.369 . S
C788 C790 1.419 1_554 S
C788 H792 0.930 . S
C789 C788 1.369 . S
C789 C798 1.429 . S
C790 C788 1.419 1_556 S
C790 C791 1.363 . S
C790 H793 0.929 . S
C791 C790 1.363 . S
C791 C797 1.428 . S
H792 C788 0.930 . S
H793 C790 0.929 . S
S794 N795 1.614 . S
S794 N796 1.610 1_554 S
N795 S794 1.614 . S
N795 C798 1.350 . S
N796 S794 1.610 1_556 S
N796 C797 1.351 . S
C797 C791 1.428 . S
C797 N796 1.351 . S
C797 C798 1.434 1_556 S
C798 C789 1.429 . S
C798 N795 1.350 . S
C798 C797 1.434 1_554 S
C799 C800 1.369 . S
C799 C801 1.419 1_556 S
C799 H803 0.930 . S
C800 C799 1.369 . S
C800 C809 1.429 . S
C801 C799 1.419 1_554 S
C801 C802 1.363 . S
C801 H804 0.929 . S
C802 C801 1.363 . S
C802 C808 1.428 1_554 S
H803 C799 0.930 . S
H804 C801 0.929 . S
S805 N806 1.613 . S
S805 N807 1.610 . S
N806 S805 1.613 . S
N806 C809 1.350 . S
N807 S805 1.610 . S
N807 C808 1.351 . S
C808 C802 1.428 1_556 S
C808 N807 1.351 . S
C808 C809 1.434 . S
C809 C800 1.429 . S
C809 N806 1.350 . S
C809 C808 1.434 . S
C810 C811 1.369 . S
C810 C812 1.419 . S
C810 H814 0.930 . S
C811 C810 1.369 . S
C811 C820 1.429 . S
C812 C810 1.419 . S
C812 C813 1.363 . S
C812 H815 0.929 . S
C813 C812 1.363 . S
C813 C819 1.428 . S
H814 C810 0.930 . S
H815 C812 0.929 . S
S816 N817 1.613 . S
S816 N818 1.610 . S
N817 S816 1.613 . S
N817 C820 1.350 . S
N818 S816 1.610 . S
N818 C819 1.351 . S
C819 C813 1.428 . S
C819 N818 1.351 . S
C819 C820 1.434 . S
C820 C811 1.429 . S
C820 N817 1.350 . S
C820 C819 1.434 . S
C821 C822 1.369 . S
C821 C823 1.419 . S
C821 H825 0.930 . S
C822 C821 1.369 . S
C822 C831 1.429 . S
C823 C821 1.419 . S
C823 C824 1.363 . S
C823 H826 0.929 . S
C824 C823 1.363 . S
C824 C830 1.428 . S
H825 C821 0.930 . S
H826 C823 0.929 . S
S827 N828 1.613 . S
S827 N829 1.610 . S
N828 S827 1.613 . S
N828 C831 1.350 . S
N829 S827 1.610 . S
N829 C830 1.351 . S
C830 C824 1.428 . S
C830 N829 1.351 . S
C830 C831 1.434 . S
C831 C822 1.429 . S
C831 N828 1.350 . S
C831 C830 1.434 . S
C832 C833 1.369 . S
C832 C834 1.419 . S
C832 H836 0.930 . S
C833 C832 1.369 . S
C833 C842 1.429 . S
C834 C832 1.419 . S
C834 C835 1.363 . S
C834 H837 0.929 . S
C835 C834 1.363 . S
C835 C841 1.428 . S
H836 C832 0.930 . S
H837 C834 0.929 . S
S838 N839 1.613 . S
S838 N840 1.610 . S
N839 S838 1.613 . S
N839 C842 1.350 . S
N840 S838 1.610 . S
N840 C841 1.351 . S
C841 C835 1.428 . S
C841 N840 1.351 . S
C841 C842 1.434 . S
C842 C833 1.429 . S
C842 N839 1.350 . S
C842 C841 1.434 . S
C843 C844 1.369 . S
C843 C845 1.419 . S
C843 H847 0.930 . S
C844 C843 1.369 . S
C844 C853 1.429 . S
C845 C843 1.419 . S
C845 C846 1.363 . S
C845 H848 0.929 . S
C846 C845 1.363 . S
C846 C852 1.428 . S
H847 C843 0.930 . S
H848 C845 0.929 . S
S849 N850 1.613 . S
S849 N851 1.610 . S
N850 S849 1.613 . S
N850 C853 1.350 . S
N851 S849 1.610 . S
N851 C852 1.351 . S
C852 C846 1.428 . S
C852 N851 1.351 . S
C852 C853 1.434 . S
C853 C844 1.429 . S
C853 N850 1.350 . S
C853 C852 1.434 . S
C854 C855 1.369 . S
C854 C856 1.419 . S
C854 H858 0.930 . S
C855 C854 1.369 . S
C855 C864 1.429 . S
C856 C854 1.419 . S
C856 C857 1.363 . S
C856 H859 0.929 . S
C857 C856 1.363 . S
C857 C863 1.428 . S
H858 C854 0.930 . S
H859 C856 0.929 . S
S860 N861 1.613 . S
S860 N862 1.610 . S
N861 S860 1.613 . S
N861 C864 1.350 . S
N862 S860 1.610 . S
N862 C863 1.351 . S
C863 C857 1.428 . S
C863 N862 1.351 . S
C863 C864 1.434 . S
C864 C855 1.429 . S
C864 N861 1.350 . S
C864 C863 1.434 . S
C865 C866 1.369 . S
C865 C867 1.419 . S
C865 H869 0.930 . S
C866 C865 1.369 . S
C866 C875 1.429 . S
C867 C865 1.419 . S
C867 C868 1.363 . S
C867 H870 0.929 . S
C868 C867 1.363 . S
C868 C874 1.428 . S
H869 C865 0.930 . S
H870 C867 0.929 . S
S871 N872 1.613 . S
S871 N873 1.610 . S
N872 S871 1.613 . S
N872 C875 1.350 . S
N873 S871 1.610 . S
N873 C874 1.351 . S
C874 C868 1.428 . S
C874 N873 1.351 . S
C874 C875 1.434 . S
C875 C866 1.429 . S
C875 N872 1.350 . S
C875 C874 1.434 . S
C876 C877 1.369 . S
C876 C878 1.419 1_654 S
C876 H880 0.930 . S
C877 C876 1.369 . S
C877 C886 1.429 . S
C878 C876 1.419 1_456 S
C878 C879 1.363 . S
C878 H881 0.929 . S
C879 C878 1.363 . S
C879 C885 1.428 . S
H880 C876 0.930 . S
H881 C878 0.929 . S
S882 N883 1.613 1_455 S
S882 N884 1.610 1_554 S
N883 S882 1.613 1_655 S
N883 C886 1.350 . S
N884 S882 1.610 1_556 S
N884 C885 1.351 . S
C885 C879 1.428 . S
C885 N884 1.351 . S
C885 C886 1.434 1_456 S
C886 C877 1.429 . S
C886 N883 1.350 . S
C886 C885 1.434 1_654 S
C887 C888 1.369 . S
C887 C889 1.419 . S
C887 H891 0.930 . S
C888 C887 1.369 . S
C888 C897 1.429 1_556 S
C889 C887 1.419 . S
C889 C890 1.363 1_556 S
C889 H892 0.929 . S
C890 C889 1.363 1_554 S
C890 C896 1.428 . S
H891 C887 0.930 . S
H892 C889 0.929 . S
S893 N894 1.613 . S
S893 N895 1.610 . S
N894 S893 1.613 . S
N894 C897 1.350 . S
N895 S893 1.610 . S
N895 C896 1.351 . S
C896 C890 1.428 . S
C896 N895 1.351 . S
C896 C897 1.434 . S
C897 C888 1.429 1_554 S
C897 N894 1.350 . S
C897 C896 1.434 . S
C898 C899 1.369 1_556 S
C898 C900 1.419 . S
C898 H902 0.930 . S
C899 C898 1.369 1_554 S
C899 C908 1.429 1_545 S
C900 C898 1.419 . S
C900 C901 1.363 1_545 S
C900 H903 0.929 . S
C901 C900 1.363 1_565 S
C901 C907 1.428 1_556 S
H902 C898 0.930 . S
H903 C900 0.929 . S
S904 N905 1.613 . S
S904 N906 1.610 . S
N905 S904 1.613 . S
N905 C908 1.350 . S
N906 S904 1.610 . S
N906 C907 1.351 . S
C907 C901 1.428 1_554 S
C907 N906 1.351 . S
C907 C908 1.434 . S
C908 C899 1.429 1_565 S
C908 N905 1.350 . S
C908 C907 1.434 . S
C909 C910 1.369 . S
C909 C911 1.419 . S
C909 H913 0.930 . S
C910 C909 1.369 . S
C910 C919 1.429 1_554 S
C911 C909 1.419 . S
C911 C912 1.363 1_554 S
C911 H914 0.929 . S
C912 C911 1.363 1_556 S
C912 C918 1.428 . S
H913 C909 0.930 . S
H914 C911 0.929 . S
S915 N916 1.613 . S
S915 N917 1.610 . S
N916 S915 1.613 . S
N916 C919 1.350 . S
N917 S915 1.610 . S
N917 C918 1.351 . S
C918 C912 1.428 . S
C918 N917 1.351 . S
C918 C919 1.434 . S
C919 C910 1.429 1_556 S
C919 N916 1.350 . S
C919 C918 1.434 . S
C920 C921 1.369 . S
C920 C922 1.419 1_565 S
C920 H924 0.930 . S
C921 C920 1.369 . S
C921 C930 1.429 1_554 S
C922 C920 1.419 1_545 S
C922 C923 1.363 1_554 S
C922 H925 0.929 . S
C923 C922 1.363 1_556 S
C923 C929 1.428 . S
H924 C920 0.930 . S
H925 C922 0.929 . S
S926 N927 1.613 . S
S926 N928 1.610 1_565 S
N927 S926 1.613 . S
N927 C930 1.350 . S
N928 S926 1.610 1_545 S
N928 C929 1.351 . S
C929 C923 1.428 . S
C929 N928 1.351 . S
C929 C930 1.434 1_545 S
C930 C921 1.429 1_556 S
C930 N927 1.350 . S
C930 C929 1.434 1_565 S
C931 C932 1.369 . S
C931 C933 1.419 1_656 S
C931 H935 0.930 . S
C932 C931 1.369 . S
C932 C941 1.429 . S
C933 C931 1.419 1_454 S
C933 C934 1.363 . S
C933 H936 0.929 . S
C934 C933 1.363 . S
C934 C940 1.428 . S
H935 C931 0.930 . S
H936 C933 0.929 . S
S937 N938 1.613 1_554 S
S937 N939 1.610 1_655 S
N938 S937 1.613 1_556 S
N938 C941 1.350 . S
N939 S937 1.610 1_455 S
N939 C940 1.351 . S
C940 C934 1.428 . S
C940 N939 1.351 . S
C940 C941 1.434 1_454 S
C941 C932 1.429 . S
C941 N938 1.350 . S
C941 C940 1.434 1_656 S
C942 C943 1.369 1_554 S
C942 C944 1.419 . S
C942 H946 0.930 . S
C943 C942 1.369 1_556 S
C943 C952 1.429 . S
C944 C942 1.419 . S
C944 C945 1.363 . S
C944 H947 0.929 . S
C945 C944 1.363 . S
C945 C951 1.428 1_554 S
H946 C942 0.930 . S
H947 C944 0.929 . S
S948 N949 1.613 . S
S948 N950 1.610 . S
N949 S948 1.613 . S
N949 C952 1.350 . S
N950 S948 1.610 . S
N950 C951 1.351 . S
C951 C945 1.428 1_556 S
C951 N950 1.351 . S
C951 C952 1.434 . S
C952 C943 1.429 . S
C952 N949 1.350 . S
C952 C951 1.434 . S
C953 C954 1.369 . S
C953 C955 1.419 1_545 S
C953 H957 0.930 . S
C954 C953 1.369 . S
C954 C963 1.429 1_556 S
C955 C953 1.419 1_565 S
C955 C956 1.363 1_556 S
C955 H958 0.929 . S
C956 C955 1.363 1_554 S
C956 C962 1.428 . S
H957 C953 0.930 . S
H958 C955 0.929 . S
S959 N960 1.613 . S
S959 N961 1.610 1_545 S
N960 S959 1.613 . S
N960 C963 1.350 . S
N961 S959 1.610 1_565 S
N961 C962 1.351 . S
C962 C956 1.428 . S
C962 N961 1.351 . S
C962 C963 1.434 1_565 S
C963 C954 1.429 1_554 S
C963 N960 1.350 . S
C963 C962 1.434 1_545 S
C964 C965 1.369 . S
C964 C966 1.419 1_656 S
C964 H968 0.930 . S
C965 C964 1.369 . S
C965 C974 1.429 . S
C966 C964 1.419 1_454 S
C966 C967 1.363 . S
C966 H969 0.929 . S
C967 C966 1.363 . S
C967 C973 1.428 . S
H968 C964 0.930 . S
H969 C966 0.929 . S
S970 N971 1.613 1_455 S
S970 N972 1.610 1_556 S
N971 S970 1.613 1_655 S
N971 C974 1.350 . S
N972 S970 1.610 1_554 S
N972 C973 1.351 . S
C973 C967 1.428 . S
C973 N972 1.351 . S
C973 C974 1.434 1_454 S
C974 C965 1.429 . S
C974 N971 1.350 . S
C974 C973 1.434 1_656 S
C975 C976 1.369 . S
C975 C977 1.419 . S
C975 H979 0.930 . S
C976 C975 1.369 . S
C976 C985 1.429 . S
C977 C975 1.419 . S
C977 C978 1.363 . S
C977 H980 0.929 . S
C978 C977 1.363 . S
C978 C984 1.428 . S
H979 C975 0.930 . S
H980 C977 0.929 . S
S981 N982 1.613 . S
S981 N983 1.610 . S
N982 S981 1.613 . S
N982 C985 1.350 . S
N983 S981 1.610 . S
N983 C984 1.351 . S
C984 C978 1.428 . S
C984 N983 1.351 . S
C984 C985 1.434 . S
C985 C976 1.429 . S
C985 N982 1.350 . S
C985 C984 1.434 . S
C986 C987 1.369 . S
C986 C988 1.419 . S
C986 H990 0.930 . S
C987 C986 1.369 . S
C987 C996 1.429 . S
C988 C986 1.419 . S
C988 C989 1.363 . S
C988 H991 0.929 . S
C989 C988 1.363 . S
C989 C995 1.428 . S
H990 C986 0.930 . S
H991 C988 0.929 . S
S992 N993 1.613 . S
S992 N994 1.610 . S
N993 S992 1.613 . S
N993 C996 1.350 . S
N994 S992 1.610 . S
N994 C995 1.351 . S
C995 C989 1.428 . S
C995 N994 1.351 . S
C995 C996 1.434 . S
C996 C987 1.429 . S
C996 N993 1.350 . S
C996 C995 1.434 . S
C997 C998 1.369 . S
C997 C999 1.419 . S
C997 H1001 0.930 . S
C998 C997 1.369 . S
C998 C1007 1.429 . S
C999 C997 1.419 . S
C999 C1000 1.363 . S
C999 H1002 0.929 . S
C1000 C999 1.363 . S
C1000 C1006 1.428 . S
H1001 C997 0.930 . S
H1002 C999 0.929 . S
S1003 N1004 1.613 . S
S1003 N1005 1.610 . S
N1004 S1003 1.613 . S
N1004 C1007 1.350 . S
N1005 S1003 1.610 . S
N1005 C1006 1.351 . S
C1006 C1000 1.428 . S
C1006 N1005 1.351 . S
C1006 C1007 1.434 . S
C1007 C998 1.429 . S
C1007 N1004 1.350 . S
C1007 C1006 1.434 . S
C1008 C1009 1.369 . S
C1008 C1010 1.419 . S
C1008 H1012 0.930 . S
C1009 C1008 1.369 . S
C1009 C1018 1.429 . S
C1010 C1008 1.419 . S
C1010 C1011 1.363 . S
C1010 H1013 0.929 . S
C1011 C1010 1.363 . S
C1011 C1017 1.428 . S
H1012 C1008 0.930 . S
H1013 C1010 0.929 . S
S1014 N1015 1.613 . S
S1014 N1016 1.610 . S
N1015 S1014 1.613 . S
N1015 C1018 1.350 . S
N1016 S1014 1.610 . S
N1016 C1017 1.351 . S
C1017 C1011 1.428 . S
C1017 N1016 1.351 . S
C1017 C1018 1.434 . S
C1018 C1009 1.429 . S
C1018 N1015 1.350 . S
C1018 C1017 1.434 . S
C1019 C1020 1.369 . S
C1019 C1021 1.419 . S
C1019 H1023 0.930 . S
C1020 C1019 1.369 . S
C1020 C1029 1.429 . S
C1021 C1019 1.419 . S
C1021 C1022 1.363 . S
C1021 H1024 0.929 . S
C1022 C1021 1.363 . S
C1022 C1028 1.428 . S
H1023 C1019 0.930 . S
H1024 C1021 0.929 . S
S1025 N1026 1.613 . S
S1025 N1027 1.610 . S
N1026 S1025 1.613 . S
N1026 C1029 1.350 . S
N1027 S1025 1.610 . S
N1027 C1028 1.351 . S
C1028 C1022 1.428 . S
C1028 N1027 1.351 . S
C1028 C1029 1.434 . S
C1029 C1020 1.429 . S
C1029 N1026 1.350 . S
C1029 C1028 1.434 . S
C1030 C1031 1.369 . S
C1030 C1032 1.419 . S
C1030 H1034 0.930 . S
C1031 C1030 1.369 . S
C1031 C1040 1.429 . S
C1032 C1030 1.419 . S
C1032 C1033 1.363 . S
C1032 H1035 0.929 . S
C1033 C1032 1.363 . S
C1033 C1039 1.428 . S
H1034 C1030 0.930 . S
H1035 C1032 0.929 . S
S1036 N1037 1.613 . S
S1036 N1038 1.610 . S
N1037 S1036 1.613 . S
N1037 C1040 1.350 . S
N1038 S1036 1.610 . S
N1038 C1039 1.351 . S
C1039 C1033 1.428 . S
C1039 N1038 1.351 . S
C1039 C1040 1.434 . S
C1040 C1031 1.429 . S
C1040 N1037 1.350 . S
C1040 C1039 1.434 . S
C1041 C1042 1.369 . S
C1041 C1043 1.419 . S
C1041 H1045 0.930 . S
C1042 C1041 1.369 . S
C1042 C1051 1.429 . S
C1043 C1041 1.419 . S
C1043 C1044 1.363 . S
C1043 H1046 0.929 . S
C1044 C1043 1.363 . S
C1044 C1050 1.428 . S
H1045 C1041 0.930 . S
H1046 C1043 0.929 . S
S1047 N1048 1.613 . S
S1047 N1049 1.610 . S
N1048 S1047 1.613 . S
N1048 C1051 1.350 . S
N1049 S1047 1.610 . S
N1049 C1050 1.351 . S
C1050 C1044 1.428 . S
C1050 N1049 1.351 . S
C1050 C1051 1.434 . S
C1051 C1042 1.429 . S
C1051 N1048 1.350 . S
C1051 C1050 1.434 . S
C1052 C1053 1.369 . S
C1052 C1054 1.419 . S
C1052 H1056 0.930 . S
C1053 C1052 1.369 . S
C1053 C1062 1.429 . S
C1054 C1052 1.419 . S
C1054 C1055 1.363 . S
C1054 H1057 0.929 . S
C1055 C1054 1.363 . S
C1055 C1061 1.428 . S
H1056 C1052 0.930 . S
H1057 C1054 0.929 . S
S1058 N1059 1.613 . S
S1058 N1060 1.610 . S
N1059 S1058 1.613 . S
N1059 C1062 1.350 . S
N1060 S1058 1.610 . S
N1060 C1061 1.351 . S
C1061 C1055 1.428 . S
C1061 N1060 1.351 . S
C1061 C1062 1.434 . S
C1062 C1053 1.429 . S
C1062 N1059 1.350 . S
C1062 C1061 1.434 . S
C1063 C1064 1.369 . S
C1063 C1065 1.419 . S
C1063 H1067 0.930 . S
C1064 C1063 1.369 . S
C1064 C1073 1.429 . S
C1065 C1063 1.419 . S
C1065 C1066 1.363 . S
C1065 H1068 0.929 . S
C1066 C1065 1.363 . S
C1066 C1072 1.428 . S
H1067 C1063 0.930 . S
H1068 C1065 0.929 . S
S1069 N1070 1.613 . S
S1069 N1071 1.610 . S
N1070 S1069 1.613 . S
N1070 C1073 1.350 . S
N1071 S1069 1.610 . S
N1071 C1072 1.351 . S
C1072 C1066 1.428 . S
C1072 N1071 1.351 . S
C1072 C1073 1.434 . S
C1073 C1064 1.429 . S
C1073 N1070 1.350 . S
C1073 C1072 1.434 . S
C1074 C1075 1.369 . S
C1074 C1076 1.419 . S
C1074 H1078 0.930 . S
C1075 C1074 1.369 . S
C1075 C1084 1.429 . S
C1076 C1074 1.419 . S
C1076 C1077 1.363 . S
C1076 H1079 0.929 . S
C1077 C1076 1.363 . S
C1077 C1083 1.428 . S
H1078 C1074 0.930 . S
H1079 C1076 0.929 . S
S1080 N1081 1.613 . S
S1080 N1082 1.610 . S
N1081 S1080 1.613 . S
N1081 C1084 1.350 . S
N1082 S1080 1.610 . S
N1082 C1083 1.351 . S
C1083 C1077 1.428 . S
C1083 N1082 1.351 . S
C1083 C1084 1.434 . S
C1084 C1075 1.429 . S
C1084 N1081 1.350 . S
C1084 C1083 1.434 . S
C1085 C1086 1.369 . S
C1085 C1087 1.419 . S
C1085 H1089 0.930 . S
C1086 C1085 1.369 . S
C1086 C1095 1.429 . S
C1087 C1085 1.419 . S
C1087 C1088 1.363 . S
C1087 H1090 0.929 . S
C1088 C1087 1.363 . S
C1088 C1094 1.428 . S
H1089 C1085 0.930 . S
H1090 C1087 0.929 . S
S1091 N1092 1.613 . S
S1091 N1093 1.610 . S
N1092 S1091 1.613 . S
N1092 C1095 1.350 . S
N1093 S1091 1.610 . S
N1093 C1094 1.351 . S
C1094 C1088 1.428 . S
C1094 N1093 1.351 . S
C1094 C1095 1.434 . S
C1095 C1086 1.429 . S
C1095 N1092 1.350 . S
C1095 C1094 1.434 . S
C1096 C1097 1.369 . S
C1096 C1098 1.419 . S
C1096 H1100 0.930 . S
C1097 C1096 1.369 . S
C1097 C1106 1.429 . S
C1098 C1096 1.419 . S
C1098 C1099 1.363 . S
C1098 H1101 0.929 . S
C1099 C1098 1.363 . S
C1099 C1105 1.428 . S
H1100 C1096 0.930 . S
H1101 C1098 0.929 . S
S1102 N1103 1.613 . S
S1102 N1104 1.610 . S
N1103 S1102 1.613 . S
N1103 C1106 1.350 . S
N1104 S1102 1.610 . S
N1104 C1105 1.351 . S
C1105 C1099 1.428 . S
C1105 N1104 1.351 . S
C1105 C1106 1.434 . S
C1106 C1097 1.429 . S
C1106 N1103 1.350 . S
C1106 C1105 1.434 . S
C613 C9 1.253 . S
C615 C5 1.308 . S
C624 C43 1.255 . S
C626 C39 1.308 . S
C635 C73 1.295 . S
C637 C77 1.265 . S
C646 C111 1.253 . S
C648 C107 1.308 . S
C657 C145 1.268 . S
C659 C141 1.298 . S
C668 C175 1.303 . S
C670 C179 1.262 . S
C679 C209 1.302 . S
C681 C213 1.256 . S
C690 C243 1.301 . S
C692 C247 1.257 . S
C701 C281 1.254 . S
C703 C277 1.303 . S
C712 C315 1.251 . S
C714 C311 1.308 . S
C723 C349 1.267 . S
C725 C345 1.299 . S
C734 C379 1.310 . S
C736 C383 1.253 . S
C745 C413 1.309 . S
C747 C417 1.252 . S
C756 C447 1.298 . S
C758 C451 1.265 . S
C767 C481 1.296 . S
C769 C485 1.266 . S
C778 C519 1.266 . S
C780 C515 1.297 . S
C789 C553 1.254 . S
C791 C549 1.303 . S
C800 C583 1.295 . S
C802 C587 1.265 . S
C811 C598 1.817 . S
C813 C20 1.813 . S
C822 C54 1.814 . S
C824 C530 1.814 . S
C833 C564 1.812 . S
C835 C88 1.818 . S
C844 C258 1.813 . S
C846 C122 1.814 . S
C855 C156 1.812 . S
C857 C292 1.817 . S
C866 C190 1.817 . S
C868 C224 1.813 . S
C877 C326 1.816 . S
C879 C462 1.813 . S
C888 C496 1.812 . S
C890 C360 1.818 . S
C899 C394 1.818 . S
C901 C428 1.814 . S
C910 C33 1.371 . S
C912 C135 1.373 . S
C921 C67 1.368 . S
C923 C169 1.373 . S
C932 C203 1.373 . S
C934 C101 1.371 . S
C943 C172 1.727 . S
C945 C36 1.726 . S
C954 C104 1.723 . S
C956 C70 1.728 . S
C965 C138 1.726 . S
C967 C2 1.723 . S
C976 C339 1.370 . S
C978 C237 1.372 . S
C987 C373 1.368 . S
C989 C271 1.373 . S
C998 C305 1.373 . S
C1000 C407 1.371 . S
C1009 C376 1.726 . S
C1011 C240 1.727 . S
C1020 C274 1.729 . S
C1022 C308 1.723 . S
C1031 C206 1.729 . S
C1033 C342 1.723 . S
C1042 C543 1.369 . S
C1044 C441 1.374 . S
C1053 C577 1.369 . S
C1055 C475 1.374 . S
C1064 C611 1.373 . S
C1066 C509 1.370 . S
C1075 C444 1.723 . S
C1077 C580 1.728 . S
C1086 C478 1.722 . S
C1088 C512 1.728 . S
C1097 C546 1.726 . S
C1099 C410 1.722 . S
