# Generated by pormake.
# Topology fnz, (5)-cn, num edge types: 1
# Building blocks:
#     Node 0, Type 0, BuildingBlock: BEQFEK_clean_sbu_0, # of connection points: 5
#     Node 1, Type 0, BuildingBlock: BEQFEK_clean_sbu_0, # of connection points: 5
#     Node 2, Type 0, BuildingBlock: BEQFEK_clean_sbu_0, # of connection points: 5
#     Node 3, Type 0, BuildingBlock: BEQFEK_clean_sbu_0, # of connection points: 5
#     Node 4, Type 0, BuildingBlock: BEQFEK_clean_sbu_0, # of connection points: 5
#     Node 5, Type 0, BuildingBlock: BEQFEK_clean_sbu_0, # of connection points: 5
#     Node 6, Type 0, BuildingBlock: BEQFEK_clean_sbu_0, # of connection points: 5
#     Node 7, Type 0, BuildingBlock: BEQFEK_clean_sbu_0, # of connection points: 5
#     Node 8, Type 0, BuildingBlock: BEQFEK_clean_sbu_0, # of connection points: 5
#     Node 9, Type 0, BuildingBlock: BEQFEK_clean_sbu_0, # of connection points: 5
#     Node 10, Type 0, BuildingBlock: BEQFEK_clean_sbu_0, # of connection points: 5
#     Node 11, Type 0, BuildingBlock: BEQFEK_clean_sbu_0, # of connection points: 5
#     Edge 12, Type (0, 0), BuildingBlock: EZIPEK_clean_linker_0, # of connection points: 2
#     Edge 13, Type (0, 0), BuildingBlock: EZIPEK_clean_linker_0, # of connection points: 2
#     Edge 14, Type (0, 0), BuildingBlock: EZIPEK_clean_linker_0, # of connection points: 2
#     Edge 15, Type (0, 0), BuildingBlock: EZIPEK_clean_linker_0, # of connection points: 2
#     Edge 16, Type (0, 0), BuildingBlock: EZIPEK_clean_linker_0, # of connection points: 2
#     Edge 17, Type (0, 0), BuildingBlock: EZIPEK_clean_linker_0, # of connection points: 2
#     Edge 18, Type (0, 0), BuildingBlock: EZIPEK_clean_linker_0, # of connection points: 2
#     Edge 19, Type (0, 0), BuildingBlock: EZIPEK_clean_linker_0, # of connection points: 2
#     Edge 20, Type (0, 0), BuildingBlock: EZIPEK_clean_linker_0, # of connection points: 2
#     Edge 21, Type (0, 0), BuildingBlock: EZIPEK_clean_linker_0, # of connection points: 2
#     Edge 22, Type (0, 0), BuildingBlock: EZIPEK_clean_linker_0, # of connection points: 2
#     Edge 23, Type (0, 0), BuildingBlock: EZIPEK_clean_linker_0, # of connection points: 2
#     Edge 24, Type (0, 0), BuildingBlock: EZIPEK_clean_linker_0, # of connection points: 2
#     Edge 25, Type (0, 0), BuildingBlock: EZIPEK_clean_linker_0, # of connection points: 2
#     Edge 26, Type (0, 0), BuildingBlock: EZIPEK_clean_linker_0, # of connection points: 2
#     Edge 27, Type (0, 0), BuildingBlock: EZIPEK_clean_linker_0, # of connection points: 2
#     Edge 28, Type (0, 0), BuildingBlock: EZIPEK_clean_linker_0, # of connection points: 2
#     Edge 29, Type (0, 0), BuildingBlock: EZIPEK_clean_linker_0, # of connection points: 2
#     Edge 30, Type (0, 0), BuildingBlock: EZIPEK_clean_linker_0, # of connection points: 2
#     Edge 31, Type (0, 0), BuildingBlock: EZIPEK_clean_linker_0, # of connection points: 2
#     Edge 32, Type (0, 0), BuildingBlock: EZIPEK_clean_linker_0, # of connection points: 2
#     Edge 33, Type (0, 0), BuildingBlock: EZIPEK_clean_linker_0, # of connection points: 2
#     Edge 34, Type (0, 0), BuildingBlock: EZIPEK_clean_linker_0, # of connection points: 2
#     Edge 35, Type (0, 0), BuildingBlock: EZIPEK_clean_linker_0, # of connection points: 2
#     Edge 36, Type (0, 0), BuildingBlock: EZIPEK_clean_linker_0, # of connection points: 2
#     Edge 37, Type (0, 0), BuildingBlock: EZIPEK_clean_linker_0, # of connection points: 2
#     Edge 38, Type (0, 0), BuildingBlock: EZIPEK_clean_linker_0, # of connection points: 2
#     Edge 39, Type (0, 0), BuildingBlock: EZIPEK_clean_linker_0, # of connection points: 2
#     Edge 40, Type (0, 0), BuildingBlock: EZIPEK_clean_linker_0, # of connection points: 2
#     Edge 41, Type (0, 0), BuildingBlock: EZIPEK_clean_linker_0, # of connection points: 2
# Relax obj value: 0.287
# Max RMSD: 0.257
# Mean RMSD: 0.235
data_MOF--net-fnz--node1-BEQFEK_clean_sbu_0--edge1-EZIPEK_clean_linker_0
_symmetry_space_group_name_H-M    P1
_symmetry_Int_Tables_number       1
_symmetry_cell_setting            triclinic
loop_
_symmetry_equiv_pos_as_xyz
'x, y, z'
_cell_length_a     29.027191
_cell_length_b     29.062387
_cell_length_c     28.481194
_cell_angle_alpha  89.962217
_cell_angle_beta   89.922674
_cell_angle_gamma 120.06292
loop_
_atom_site_label
_atom_site_type_symbol
_atom_site_fract_x
_atom_site_fract_y
_atom_site_fract_z
_atom_type_partial_charge
Co0 Co 0.45307 0.15579 0.08052 0.0
Co1 Co 0.45231 0.14834 0.95252 0.0
C2 C 0.50369 0.10319 0.0179 0.0
O3 O 0.48819 0.11523 0.05594 0.0
O4 O 0.50508 0.12555 0.97177 0.0
C5 C 0.49462 0.21046 0.18468 0.0
O6 O 0.54103 0.24471 0.16667 0.0
C7 C 0.47928 0.18482 0.8441 0.0
C8 C 0.39834 0.15569 0.81769 0.0
C9 C 0.45105 0.1861 0.80383 0.0
N10 N 0.44475 0.15676 0.88002 0.0
N11 N 0.39647 0.13875 0.86238 0.0
C12 C 0.53842 0.2121 0.84817 0.0
H13 H 0.55031 0.20624 0.88371 0.0
H14 H 0.55573 0.25517 0.84083 0.0
H15 H 0.55416 0.19588 0.82129 0.0
C16 C 0.44006 0.24155 0.0524 0.0
N17 N 0.46004 0.21056 0.03955 0.0
N18 N 0.46182 0.20993 0.98659 0.0
C19 C 0.44529 0.24273 0.96982 0.0
C20 C 0.42779 0.26041 0.01305 0.0
C21 C 0.4224 0.2439 0.10088 0.0
H22 H 0.4032 0.2041 0.11748 0.0
H23 H 0.4587 0.27125 0.11988 0.0
H24 H 0.39504 0.26011 0.10238 0.0
O25 O 0.38008 0.09835 0.06548 0.0
O26 O 0.38652 0.08394 0.98234 0.0
H27 H 0.39682 0.2133 0.90885 0.0
H28 H 0.43109 0.28391 0.91352 0.0
C29 C 0.43489 0.2483 0.91948 0.0
H30 H 0.46848 0.2527 0.89789 0.0
H31 H 0.36159 0.11678 0.88181 0.0
O32 O 0.45905 0.17443 0.15716 0.0
C33 C 0.36275 0.06816 0.02937 0.0
Co34 Co 0.28924 0.41455 0.09809 0.0
Co35 Co 0.28317 0.42205 0.98969 0.0
C36 C 0.38676 0.47653 0.04883 0.0
O37 O 0.36332 0.47504 0.08699 0.0
O38 O 0.35928 0.45831 0.01175 0.0
C39 C 0.2856 0.45148 0.18229 0.0
O40 O 0.29914 0.4925 0.15457 0.0
C41 C 0.29498 0.46263 0.89565 0.0
C42 C 0.22836 0.39174 0.86181 0.0
C43 C 0.26729 0.44389 0.85474 0.0
N44 N 0.27215 0.42325 0.92689 0.0
N45 N 0.23326 0.3807 0.90645 0.0
C46 C 0.34153 0.51667 0.90471 0.0
H47 H 0.35286 0.52111 0.94218 0.0
H48 H 0.33198 0.54784 0.8948 0.0
H49 H 0.37549 0.5226 0.8824 0.0
C50 C 0.17861 0.39611 0.08364 0.0
N51 N 0.23057 0.41946 0.07145 0.0
N52 N 0.23573 0.43704 0.02834 0.0
C53 C 0.18775 0.42768 0.01275 0.0
C54 C 0.14938 0.39965 0.04652 0.0
C55 C 0.15598 0.36335 0.12674 0.0
H56 H 0.17892 0.34348 0.13573 0.0
H57 H 0.15911 0.39016 0.15573 0.0
H58 H 0.1134 0.33297 0.12219 0.0
O59 O 0.29573 0.35469 0.0737 0.0
O60 O 0.25804 0.34673 0.99923 0.0
H61 H 0.16483 0.41045 0.93454 0.0
H62 H 0.14769 0.4555 0.9615 0.0
C63 C 0.17901 0.44428 0.95919 0.0
H64 H 0.21641 0.47828 0.94612 0.0
H65 H 0.20869 0.34474 0.92347 0.0
O66 O 0.27973 0.40883 0.16508 0.0
C67 C 0.2803 0.33137 0.03444 0.0
Co68 Co 0.83119 0.29201 0.08183 0.0
Co69 Co 0.84467 0.30172 0.95454 0.0
C70 C 0.8884 0.39565 0.02273 0.0
O71 O 0.87447 0.36706 0.06008 0.0
O72 O 0.86862 0.37725 0.97611 0.0
C73 C 0.78384 0.28671 0.18783 0.0
O74 O 0.76409 0.31638 0.17403 0.0
C75 C 0.8002 0.28462 0.84827 0.0
C76 C 0.85433 0.26218 0.81507 0.0
C77 C 0.81009 0.26685 0.8047 0.0
N78 N 0.83632 0.28906 0.88182 0.0
N79 N 0.86854 0.27589 0.86037 0.0
C80 C 0.75552 0.29489 0.85796 0.0
H81 H 0.74047 0.28239 0.89427 0.0
H82 H 0.72286 0.27405 0.83215 0.0
H83 H 0.77074 0.33826 0.85524 0.0
C84 C 0.73785 0.19999 0.05377 0.0
N85 N 0.77453 0.24903 0.03978 0.0
N86 N 0.78364 0.24891 0.98769 0.0
C87 C 0.75474 0.19819 0.97292 0.0
C88 C 0.72658 0.16526 0.01716 0.0
C89 C 0.72398 0.18457 0.10365 0.0
H90 H 0.75765 0.1845 0.12186 0.0
H91 H 0.71642 0.21475 0.11937 0.0
H92 H 0.68814 0.14454 0.10687 0.0
O93 O 0.88951 0.27694 0.06543 0.0
O94 O 0.90788 0.29818 0.98245 0.0
H95 H 0.74382 0.13478 0.9255 0.0
H96 H 0.74748 0.19208 0.8984 0.0
C97 C 0.76375 0.17874 0.92708 0.0
H98 H 0.80701 0.19536 0.92141 0.0
H99 H 0.89958 0.27428 0.87727 0.0
O100 O 0.81107 0.27612 0.15777 0.0
C101 C 0.92036 0.28862 0.02964 0.0
Co102 Co 0.56475 0.86659 0.09587 0.0
Co103 Co 0.57938 0.87037 0.98682 0.0
C104 C 0.51488 0.91254 0.04235 0.0
O105 O 0.50876 0.88575 0.07961 0.0
O106 O 0.54149 0.90969 1.00159 0.0
C107 C 0.51499 0.82708 0.17995 0.0
O108 O 0.47306 0.81692 0.1548 0.0
C109 C 0.54383 0.85462 0.89163 0.0
C110 C 0.61194 0.85395 0.857 0.0
C111 C 0.5608 0.84471 0.84994 0.0
N112 N 0.58213 0.86579 0.923 0.0
N113 N 0.62362 0.86772 0.90201 0.0
C114 C 0.49385 0.856 0.90134 0.0
H115 H 0.50457 0.89672 0.9125 0.0
H116 H 0.47184 0.82858 0.93073 0.0
H117 H 0.46819 0.84526 0.86971 0.0
C118 C 0.57915 0.77244 0.08093 0.0
N119 N 0.56168 0.80543 0.06624 0.0
N120 N 0.55752 0.80268 0.02044 0.0
C121 C 0.5722 0.76835 0.99813 0.0
C122 C 0.58873 0.74919 0.04202 0.0
C123 C 0.59255 0.76786 0.13076 0.0
H124 H 0.55906 0.76082 0.15381 0.0
H125 H 0.60075 0.73468 0.13516 0.0
H126 H 0.62768 0.80572 0.142 0.0
O127 O 0.62992 0.93485 0.07958 0.0
O128 O 0.65152 0.91495 0.01182 0.0
H129 H 0.61881 0.78131 0.9359 0.0
H130 H 0.56186 0.71685 0.93885 0.0
C131 C 0.57653 0.75886 0.947 0.0
H132 H 0.55122 0.76935 0.92601 0.0
H133 H 0.65866 0.8757 0.91904 0.0
O134 O 0.56115 0.85284 0.16226 0.0
C135 C 0.65972 0.94853 0.04346 0.0
Co136 Co 0.69503 0.54778 0.08561 0.0
Co137 Co 0.69443 0.54031 0.95863 0.0
C138 C 0.59303 0.49061 0.0227 0.0
O139 O 0.6196 0.50688 0.0611 0.0
O140 O 0.61714 0.49414 0.97706 0.0
C141 C 0.73092 0.51792 0.1836 0.0
O142 O 0.75647 0.50016 0.15812 0.0
C143 C 0.70701 0.51249 0.85108 0.0
C144 C 0.75126 0.5939 0.82343 0.0
C145 C 0.73234 0.5417 0.80947 0.0
N146 N 0.71202 0.54628 0.88704 0.0
N147 N 0.73842 0.59473 0.86895 0.0
C148 C 0.67981 0.45341 0.85645 0.0
H149 H 0.6826 0.4426 0.89326 0.0
H150 H 0.69701 0.43628 0.83194 0.0
H151 H 0.63695 0.43612 0.84818 0.0
C152 C 0.79674 0.57218 0.05788 0.0
N153 N 0.74531 0.54245 0.0471 0.0
N154 N 0.7422 0.52867 0.99634 0.0
C155 C 0.79127 0.54239 0.98024 0.0
C156 C 0.82768 0.57227 0.02054 0.0
C157 C 0.81539 0.61001 0.09873 0.0
H158 H 0.78256 0.61487 0.11296 0.0
H159 H 0.82989 0.59471 0.12733 0.0
H160 H 0.8485 0.6496 0.08793 0.0
O161 O 0.70553 0.61894 0.06816 0.0
O162 O 0.70254 0.61025 0.98333 0.0
H163 H 0.79803 0.54102 0.9052 0.0
H164 H 0.83876 0.52073 0.93714 0.0
C165 C 0.79979 0.51922 0.93635 0.0
H166 H 0.76735 0.4774 0.93254 0.0
H167 H 0.749 0.62915 0.88818 0.0
O168 O 0.70466 0.53692 0.16164 0.0
C169 C 0.70439 0.63597 0.02672 0.0
Co170 Co 0.12544 0.6988 0.09572 0.0
Co171 Co 0.12044 0.70637 0.98587 0.0
C172 C 0.08042 0.6012 0.04251 0.0
O173 O 0.1082 0.62454 0.07852 0.0
O174 O 0.08346 0.62948 1.00065 0.0
C175 C 0.16292 0.6862 0.18136 0.0
O176 O 0.17192 0.6526 0.15799 0.0
C177 C 0.14921 0.69255 0.89406 0.0
C178 C 0.13257 0.74713 0.85277 0.0
C179 C 0.15479 0.71471 0.85056 0.0
N180 N 0.12573 0.71198 0.92165 0.0
N181 N 0.11451 0.74348 0.89681 0.0
C182 C 0.1682 0.65569 0.90965 0.0
H183 H 0.17067 0.6552 0.94849 0.0
H184 H 0.20743 0.66705 0.89384 0.0
H185 H 0.13963 0.61502 0.89711 0.0
C186 C 0.20892 0.80893 0.07844 0.0
N187 N 0.18131 0.75752 0.06487 0.0
N188 N 0.18657 0.75465 0.01945 0.0
C189 C 0.22267 0.80526 0.99727 0.0
C190 C 0.23582 0.84021 0.04003 0.0
C191 C 0.2003 0.82918 0.12398 0.0
H192 H 0.1608 0.80082 0.13894 0.0
H193 H 0.23171 0.83466 0.14915 0.0
H194 H 0.20294 0.86833 0.11901 0.0
O195 O 0.06048 0.6997 0.08516 0.0
O196 O 0.0665 0.72454 0.01114 0.0
H197 H 0.27123 0.86185 0.94372 0.0
H198 H 0.27248 0.80097 0.94614 0.0
C199 C 0.24632 0.81835 0.94935 0.0
H200 H 0.21509 0.80159 0.92234 0.0
H201 H 0.09764 0.76493 0.91065 0.0
O202 O 0.14104 0.70923 0.16167 0.0
C203 C 0.04165 0.71178 0.05015 0.0
Co204 Co 0.83262 0.49293 0.52194 0.0
Co205 Co 0.78924 0.56945 0.52019 0.0
C206 C 0.77445 0.51138 0.60981 0.0
O207 O 0.79938 0.48941 0.59092 0.0
O208 O 0.76394 0.54151 0.58506 0.0
C209 C 0.90139 0.43705 0.49649 0.0
O210 O 0.86939 0.39831 0.46844 0.0
C211 C 0.73807 0.63371 0.5181 0.0
C212 C 0.79746 0.69796 0.47212 0.0
C213 C 0.75277 0.68279 0.49914 0.0
N214 N 0.77433 0.62126 0.50388 0.0
N215 N 0.80911 0.65927 0.47605 0.0
C216 C 0.68936 0.59805 0.54603 0.0
H217 H 0.68468 0.55791 0.54957 0.0
H218 H 0.65388 0.59522 0.52857 0.0
H219 H 0.69237 0.61525 0.58141 0.0
C220 C 0.79557 0.48642 0.41613 0.0
N221 N 0.79445 0.49529 0.46328 0.0
N222 N 0.76757 0.52028 0.46855 0.0
C223 C 0.7471 0.5236 0.42663 0.0
C224 C 0.76488 0.5037 0.3906 0.0
C225 C 0.8326 0.4705 0.39513 0.0
H226 H 0.87046 0.49008 0.41496 0.0
H227 H 0.81503 0.42684 0.39848 0.0
H228 H 0.84032 0.48182 0.35749 0.0
O229 O 0.89444 0.56021 0.52258 0.0
O230 O 0.86782 0.61817 0.52088 0.0
H231 H 0.73602 0.58987 0.41261 0.0
H232 H 0.68381 0.52757 0.39085 0.0
C233 C 0.71166 0.54689 0.42057 0.0
H234 H 0.68863 0.54177 0.45319 0.0
H235 H 0.84093 0.65885 0.45942 0.0
O236 O 0.88592 0.46706 0.51477 0.0
C237 C 0.90479 0.60747 0.52154 0.0
Co238 Co 0.26442 0.80848 0.44468 0.0
Co239 Co 0.24831 0.80594 0.54565 0.0
C240 C 0.35717 0.86941 0.49773 0.0
O241 O 0.34074 0.83776 0.46294 0.0
O242 O 0.32515 0.86166 0.53137 0.0
C243 C 0.26128 0.76005 0.35977 0.0
O244 O 0.27672 0.7325 0.38516 0.0
C245 C 0.25884 0.78017 0.64085 0.0
C246 C 0.20037 0.79591 0.67674 0.0
C247 C 0.23429 0.77613 0.68303 0.0
N248 N 0.23929 0.80063 0.61004 0.0
N249 N 0.20529 0.81102 0.63184 0.0
C250 C 0.29873 0.76359 0.62965 0.0
H251 H 0.31125 0.772 0.59231 0.0
H252 H 0.28177 0.72061 0.63693 0.0
H253 H 0.33393 0.78545 0.65275 0.0
C254 C 0.15781 0.72985 0.46094 0.0
N255 N 0.20905 0.74756 0.47288 0.0
N256 N 0.21123 0.73705 0.51747 0.0
C257 C 0.16046 0.7047 0.53222 0.0
C258 C 0.12524 0.702 0.49812 0.0
C259 C 0.14083 0.75186 0.42112 0.0
H260 H 0.17465 0.7878 0.40578 0.0
H261 H 0.12175 0.72132 0.39342 0.0
H262 H 0.11091 0.76234 0.43339 0.0
O263 O 0.24783 0.86306 0.45768 0.0
O264 O 0.20756 0.83859 0.52617 0.0
H265 H 0.10316 0.6449 0.57882 0.0
H266 H 0.17165 0.66103 0.5862 0.0
C267 C 0.14531 0.67752 0.57874 0.0
H268 H 0.15017 0.70615 0.6065 0.0
H269 H 0.1828 0.82526 0.61583 0.0
O270 O 0.25757 0.79763 0.37793 0.0
C271 C 0.22103 0.86826 0.49044 0.0
Co272 Co 0.49793 0.33609 0.51578 0.0
Co273 Co 0.41279 0.21939 0.52366 0.0
C274 C 0.48247 0.26588 0.60683 0.0
O275 O 0.50518 0.3123 0.58686 0.0
O276 O 0.45022 0.22565 0.58317 0.0
C277 C 0.55644 0.45965 0.52178 0.0
O278 O 0.59012 0.46213 0.55377 0.0
C279 C 0.36406 0.10764 0.52642 0.0
C280 C 0.30088 0.08893 0.47374 0.0
C281 C 0.32865 0.06814 0.49672 0.0
N282 N 0.36134 0.15096 0.5164 0.0
N283 N 0.32183 0.1393 0.48727 0.0
C284 C 0.39126 0.10331 0.56953 0.0
H285 H 0.3974 0.13423 0.59522 0.0
H286 H 0.43018 0.1074 0.56065 0.0
H287 H 0.3659 0.06559 0.58828 0.0
C288 C 0.51107 0.30074 0.41582 0.0
N289 N 0.49323 0.29183 0.46122 0.0
N290 N 0.45593 0.24154 0.46519 0.0
C291 C 0.45106 0.21693 0.42317 0.0
C292 C 0.48522 0.25299 0.38969 0.0
C293 C 0.54841 0.35485 0.39662 0.0
H294 H 0.56986 0.38312 0.42557 0.0
H295 H 0.57715 0.35297 0.37206 0.0
H296 H 0.52553 0.36958 0.37674 0.0
O297 O 0.42886 0.3277 0.51515 0.0
O298 O 0.3655 0.24847 0.53362 0.0
H299 H 0.41884 0.14639 0.3793 0.0
H300 H 0.41215 0.1348 0.44125 0.0
C301 C 0.41118 0.16031 0.41297 0.0
H302 H 0.37145 0.15644 0.40991 0.0
H303 H 0.31292 0.16699 0.47299 0.0
O304 O 0.52548 0.41515 0.50216 0.0
C305 C 0.38061 0.29606 0.52421 0.0
Co306 Co 0.18214 0.44653 0.44358 0.0
Co307 Co 0.18278 0.45723 0.54613 0.0
C308 C 0.12125 0.48949 0.4989 0.0
O309 O 0.12866 0.46709 0.46373 0.0
O310 O 0.15389 0.50468 0.53276 0.0
C311 C 0.21144 0.49145 0.35191 0.0
O312 O 0.22298 0.53837 0.368 0.0
C313 C 0.21017 0.48777 0.64212 0.0
C314 C 0.1792 0.4085 0.67512 0.0
C315 C 0.21002 0.46256 0.68279 0.0
N316 N 0.18248 0.44991 0.61045 0.0
N317 N 0.16247 0.40274 0.63059 0.0
C318 C 0.24206 0.54596 0.63173 0.0
H319 H 0.24583 0.55314 0.59328 0.0
H320 H 0.28205 0.5636 0.64803 0.0
H321 H 0.2216 0.5659 0.64738 0.0
C322 C 0.27449 0.44271 0.45925 0.0
N323 N 0.24717 0.46691 0.47303 0.0
N324 N 0.24775 0.46957 0.51921 0.0
C325 C 0.27571 0.44712 0.53545 0.0
C326 C 0.29031 0.4271 0.49851 0.0
C327 C 0.2739 0.42242 0.41095 0.0
H328 H 0.27943 0.45265 0.38463 0.0
H329 H 0.3063 0.41295 0.40677 0.0
H330 H 0.23524 0.38573 0.40463 0.0
O331 O 0.14564 0.37261 0.45294 0.0
O332 O 0.13057 0.38649 0.52594 0.0
H333 H 0.24626 0.38956 0.59068 0.0
H334 H 0.3167 0.43613 0.59306 0.0
C335 C 0.27729 0.43168 0.58486 0.0
H336 H 0.27084 0.45752 0.60778 0.0
H337 H 0.14094 0.36664 0.61307 0.0
O338 O 0.19179 0.45139 0.37835 0.0
C339 C 0.12134 0.35542 0.49136 0.0
Co340 Co 0.65525 0.15633 0.52143 0.0
Co341 Co 0.7689 0.1817 0.51926 0.0
C342 C 0.72746 0.20688 0.60857 0.0
O343 O 0.68182 0.19183 0.58939 0.0
O344 O 0.76332 0.20518 0.58431 0.0
C345 C 0.52398 0.08925 0.50767 0.0
O346 O 0.49955 0.1168 0.50466 0.0
C347 C 0.87702 0.25541 0.52113 0.0
C348 C 0.91139 0.20642 0.49685 0.0
C349 C 0.92342 0.2569 0.51068 0.0
N350 N 0.83837 0.20576 0.51326 0.0
N351 N 0.85856 0.17624 0.49931 0.0
C352 C 0.86881 0.29976 0.5371 0.0
H353 H 0.83056 0.29421 0.52342 0.0
H354 H 0.90232 0.33854 0.52551 0.0
H355 H 0.86711 0.29957 0.57603 0.0
C356 C 0.6881 0.20528 0.41877 0.0
N357 N 0.69741 0.19496 0.46364 0.0
N358 N 0.74711 0.20585 0.46534 0.0
C359 C 0.7705 0.22275 0.42258 0.0
C360 C 0.73483 0.22427 0.39073 0.0
C361 C 0.63422 0.19233 0.40192 0.0
H362 H 0.61415 0.20353 0.42906 0.0
H363 H 0.63696 0.21293 0.3683 0.0
H364 H 0.60958 0.14874 0.39663 0.0
O365 O 0.65802 0.09169 0.52412 0.0
O366 O 0.73914 0.10527 0.51648 0.0
H367 H 0.83244 0.23619 0.37196 0.0
H368 H 0.85516 0.26484 0.4291 0.0
C369 C 0.82392 0.23 0.41008 0.0
H370 H 0.82549 0.19413 0.42044 0.0
H371 H 0.83631 0.13605 0.4906 0.0
O372 O 0.57459 0.11508 0.51297 0.0
C373 C 0.68988 0.07423 0.52119 0.0
Co374 Co 0.53112 0.72644 0.45006 0.0
Co375 Co 0.54624 0.73516 0.55116 0.0
C376 C 0.51047 0.63304 0.49717 0.0
O377 O 0.49416 0.64744 0.46173 0.0
O378 O 0.53057 0.66458 0.53131 0.0
C379 C 0.48694 0.72953 0.36029 0.0
O380 O 0.43929 0.69708 0.37709 0.0
C381 C 0.51489 0.72709 0.64773 0.0
C382 C 0.58983 0.74456 0.68261 0.0
C383 C 0.54 0.73863 0.69055 0.0
N384 N 0.54982 0.73098 0.61535 0.0
N385 N 0.59359 0.73856 0.63636 0.0
C386 C 0.45766 0.70973 0.63832 0.0
H387 H 0.45038 0.7116 0.60046 0.0
H388 H 0.44468 0.73333 0.65941 0.0
H389 H 0.43273 0.66754 0.64901 0.0
C390 C 0.55087 0.82756 0.4778 0.0
N391 N 0.52014 0.77482 0.48575 0.0
N392 N 0.5057 0.76731 0.53029 0.0
C393 C 0.51874 0.81557 0.54853 0.0
C394 C 0.55028 0.85474 0.51694 0.0
C395 C 0.59465 0.85199 0.44172 0.0
H396 H 0.59435 0.82277 0.41705 0.0
H397 H 0.59198 0.88331 0.4218 0.0
H398 H 0.63384 0.87198 0.45972 0.0
O399 O 0.60435 0.75035 0.45922 0.0
O400 O 0.61984 0.78183 0.53138 0.0
H401 H 0.51876 0.81886 0.62365 0.0
H402 H 0.50665 0.86668 0.59562 0.0
C403 C 0.49847 0.82514 0.59368 0.0
H404 H 0.45496 0.79756 0.59664 0.0
H405 H 0.62726 0.74324 0.61881 0.0
O406 O 0.52791 0.74216 0.38445 0.0
C407 C 0.63675 0.77657 0.49177 0.0
C408 C 0.47897 0.00954 0.98647 0.0
C409 C 0.51066 0.05498 0.02036 0.0
C410 C 0.53898 0.00232 0.06825 0.0
C411 C 0.50526 0.95881 0.04136 0.0
N412 N 0.43874 0.91624 0.97684 0.0
N413 N 0.57326 0.09645 0.08314 0.0
C414 C 0.47453 0.96253 0.9986 0.0
C415 C 0.54132 0.05165 0.05774 0.0
N416 N 0.45149 0.01248 0.94866 0.0
N417 N 0.57058 -0.00013 0.1026 0.0
H418 H 0.58207 0.13432 0.0723 0.0
H419 H 0.59025 0.09659 0.11528 0.0
H420 H 0.56689 0.96739 0.11453 0.0
H421 H 0.60134 0.03282 0.1191 0.0
H422 H 0.43149 0.985 0.92436 0.0
H423 H 0.44983 0.04602 0.93906 0.0
H424 H 0.4108 0.91281 0.95222 0.0
H425 H 0.43391 0.87941 0.98644 0.0
C426 C 0.50542 0.45423 0.06541 0.0
C427 C 0.53586 0.47918 0.02446 0.0
C428 C 0.47374 0.51141 0.99857 0.0
C429 C 0.44373 0.48767 0.04705 0.0
N430 N 0.43571 0.44162 0.1202 0.0
N431 N 0.54214 0.52227 0.94316 0.0
C432 C 0.46128 0.46096 0.07829 0.0
C433 C 0.51824 0.50525 0.98602 0.0
N434 N 0.51862 0.42279 0.09128 0.0
N435 N 0.45706 0.5381 0.97006 0.0
H436 H 0.5668 0.51003 0.92818 0.0
H437 H 0.53456 0.54502 0.91971 0.0
H438 H 0.43234 0.5519 0.98255 0.0
H439 H 0.46826 0.54838 0.93526 0.0
H440 H 0.50015 0.40308 0.12211 0.0
H441 H 0.54689 0.41315 0.0797 0.0
H442 H 0.44315 0.41861 0.14344 0.0
H443 H 0.40945 0.452 0.1348 0.0
C444 C -0.00586 0.52697 0.07686 0.0
C445 C 0.03653 0.54389 0.04373 0.0
C446 C 0.98466 0.46423 0.99019 0.0
C447 C 0.93858 0.44948 0.02644 0.0
N448 N 0.9046 0.46471 0.0983 0.0
N449 N 0.07432 0.5275 0.96894 0.0
C450 C 0.94615 0.48043 0.06761 0.0
C451 C 0.03175 0.51224 0.99833 0.0
N452 N 0.00076 0.55698 0.11602 0.0
N453 N 0.98196 0.42963 0.95623 0.0
H454 H 0.11239 0.55822 0.97744 0.0
H455 H 0.07221 0.51133 0.9359 0.0
H456 H 0.94841 0.39352 0.94867 0.0
H457 H 0.01217 0.43411 0.93715 0.0
H458 H 0.97402 0.54888 0.14102 0.0
H459 H 0.03611 0.59054 0.12543 0.0
H460 H 0.9085 0.47633 0.13324 0.0
H461 H 0.86512 0.43896 0.08881 0.0
C462 C 0.04724 0.49857 0.46364 0.0
C463 C 0.06789 0.48581 0.50342 0.0
C464 C 0.98213 0.44904 0.54166 0.0
C465 C 0.95966 0.45397 0.49903 0.0
N466 N 0.97211 0.47872 0.41702 0.0
N467 N 0.04939 0.43883 0.57784 0.0
C468 C 0.99349 0.47745 0.45932 0.0
C469 C 0.0333 0.45905 0.54218 0.0
N470 N 0.0817 0.53132 0.42995 0.0
N471 N 0.95208 0.43363 0.58168 0.0
H472 H 0.08683 0.44257 0.57983 0.0
H473 H 0.02354 0.41345 0.60352 0.0
H474 H 0.912 0.42292 0.58227 0.0
H475 H 0.96803 0.43529 0.61481 0.0
H476 H 0.07011 0.54448 0.40071 0.0
H477 H 0.12295 0.54946 0.43352 0.0
H478 H 0.9937 0.49 0.3858 0.0
H479 H 0.93167 0.46409 0.41209 0.0
C480 C 0.48726 0.99524 0.53508 0.0
C481 C 0.49156 0.02946 0.50023 0.0
C482 C 0.41485 0.95944 0.45822 0.0
C483 C 0.40833 0.92267 0.4946 0.0
N484 N 0.43865 0.90504 0.56714 0.0
N485 N 0.46959 0.04359 0.42232 0.0
C486 C 0.44537 0.94042 0.53245 0.0
C487 C 0.45856 0.01025 0.45988 0.0
N488 N 0.5242 0.0095 0.57047 0.0
N489 N 0.37709 0.94487 0.42393 0.0
H490 H 0.50164 0.08246 0.42182 0.0
H491 H 0.45107 0.03155 0.3898 0.0
H492 H 0.34463 0.90688 0.42009 0.0
H493 H 0.37528 0.97156 0.40073 0.0
H494 H 0.5273 0.98735 0.59454 0.0
H495 H 0.55382 0.04911 0.5742 0.0
H496 H 0.45836 0.9156 0.59918 0.0
H497 H 0.41154 0.86441 0.56435 0.0
C498 C 0.52836 0.5245 0.55225 0.0
C499 C 0.54656 0.50559 0.51435 0.0
C500 C 0.53845 0.56928 0.46178 0.0
C501 C 0.51459 0.5834 0.49876 0.0
N502 N 0.47263 0.56112 0.5746 0.0
N503 N 0.56405 0.507 0.43147 0.0
C504 C 0.50616 0.55765 0.54285 0.0
C505 C 0.54951 0.52675 0.46857 0.0
N506 N 0.53023 0.50975 0.59741 0.0
N507 N 0.55412 0.59845 0.42126 0.0
H508 H 0.57723 0.47979 0.43543 0.0
H509 H 0.56038 0.51546 0.3966 0.0
H510 H 0.54839 0.63034 0.4144 0.0
H511 H 0.57713 0.59394 0.3956 0.0
H512 H 0.52334 0.52762 0.62622 0.0
H513 H 0.54101 0.48182 0.60666 0.0
H514 H 0.45964 0.53827 0.60512 0.0
H515 H 0.45252 0.58172 0.56748 0.0
C516 C 0.2815 0.98571 0.99839 0.0
C517 C 0.32299 0.01025 0.0371 0.0
C518 C 0.31071 0.92831 0.06666 0.0
C519 C 0.266 0.89974 0.03745 0.0
N520 N 0.2014 0.9024 0.98015 0.0
N521 N 0.36136 0.00463 0.11193 0.0
C522 C 0.24956 0.92911 1.00221 0.0
C523 C 0.33262 0.98385 0.07216 0.0
N524 N 0.27159 0.00979 0.96455 0.0
N525 N 0.33354 0.90281 0.0885 0.0
H526 H 0.37424 0.04346 0.122 0.0
H527 H 0.36482 0.98573 0.13924 0.0
H528 H 0.31939 0.86218 0.08477 0.0
H529 H 0.36985 0.92313 0.10606 0.0
H530 H 0.24569 0.9939 0.93643 0.0
H531 H 0.29025 0.0512 0.96378 0.0
H532 H 0.18436 0.92136 0.96216 0.0
H533 H 0.17596 0.86153 0.98357 0.0
C534 C 0.33234 0.23649 0.02311 0.0
C535 C 0.38668 0.27551 1.00386 0.0
C536 C 0.35835 0.33862 0.98442 0.0
C537 C 0.30908 0.30563 0.01587 0.0
N538 N 0.24847 0.2232 0.05372 0.0
N539 N 0.45044 0.36222 0.97465 0.0
C540 C 0.29564 0.25429 0.0311 0.0
C541 C 0.39939 0.32617 0.98735 0.0
N542 N 0.31688 0.18383 0.02676 0.0
N543 N 0.36404 0.37932 0.95659 0.0
H544 H 0.48194 0.35475 0.97737 0.0
H545 H 0.4621 0.40043 0.96322 0.0
H546 H 0.33229 0.38496 0.94897 0.0
H547 H 0.39728 0.40241 0.93573 0.0
H548 H 0.27752 0.1542 0.03229 0.0
H549 H 0.34242 0.16923 0.01951 0.0
H550 H 0.23895 0.18743 0.07008 0.0
H551 H 0.21988 0.23469 0.05768 0.0
C552 C 0.00311 0.34102 0.07664 0.0
C553 C 0.9785 0.30668 0.03798 0.0
C554 C 0.0654 0.3282 1.00147 0.0
C555 C 0.08983 0.36929 0.04093 0.0
N556 N 0.08047 0.42343 0.0998 0.0
N557 N 0.98672 0.26839 0.95938 0.0
C558 C 0.05819 0.37861 0.07283 0.0
C559 C 0.00864 0.30131 0.99659 0.0
N560 N 0.98037 0.33606 0.11849 0.0
N561 N 0.09467 0.31147 0.97679 0.0
H562 H 0.9456 0.24308 0.95769 0.0
H563 H 0.0051 0.26746 0.92983 0.0
H564 H 0.1355 0.3277 0.98148 0.0
H565 H 0.07771 0.27798 0.95533 0.0
H566 H -0.00219 0.35918 0.14767 0.0
H567 H 0.9439 0.30335 0.12738 0.0
H568 H 0.05766 0.43421 0.12043 0.0
H569 H 0.1207 0.45228 0.09767 0.0
C570 C 0.74599 0.09497 0.04762 0.0
C571 C 0.71254 0.10921 0.02224 0.0
C572 C 0.66074 0.01927 0.99008 0.0
C573 C 0.68549 0.00217 0.02977 0.0
N574 N 0.75528 0.02659 0.08659 0.0
N575 N 0.63376 0.08319 0.97098 0.0
C576 C 0.72877 0.04092 0.0557 0.0
C577 C 0.66852 0.07104 0.99225 0.0
N578 N 0.79526 0.13161 0.0631 0.0
N579 N 0.63229 0.98996 0.95375 0.0
H580 H 0.63857 0.12126 0.97147 0.0
H581 H 0.59774 0.05433 0.95662 0.0
H582 H 0.63562 0.95732 0.94498 0.0
H583 H 0.61508 -0.00193 0.92745 0.0
H584 H 0.81354 0.17216 0.05582 0.0
H585 H 0.81354 0.17216 0.05582 0.0
H586 H 0.78712 0.05453 0.10667 0.0
H587 H 0.74473 0.98991 0.09199 0.0
C588 C 0.60887 0.68128 1.00226 0.0
C589 C 0.62354 0.72422 0.03846 0.0
C590 C 0.70409 0.71911 0.05653 0.0
C591 C 0.68901 0.67814 0.02257 0.0
N592 N 0.64347 0.64894 0.94218 0.0
N593 N 0.69927 0.79765 0.07678 0.0
C594 C 0.64722 0.66878 0.98624 0.0
C595 C 0.67548 0.74749 0.05878 0.0
N596 N 0.55711 0.64994 0.99002 0.0
N597 N 0.74623 0.73204 0.08543 0.0
H598 H 0.68265 0.82203 0.07362 0.0
H599 H 0.73828 0.81717 0.08918 0.0
H600 H 0.77077 0.7156 0.08138 0.0
H601 H 0.75531 0.75775 0.11386 0.0
H602 H 0.5458 0.61842 0.96707 0.0
H603 H 0.52658 0.65474 1.00418 0.0
H604 H 0.61316 0.64342 0.91917 0.0
H605 H 0.67477 0.64694 0.92628 0.0
C606 C 0.91027 0.60258 0.06452 0.0
C607 C 0.88719 0.60384 0.02109 0.0
C608 C 0.96387 0.69455 1.00041 0.0
C609 C 0.98572 0.69026 0.04919 0.0
N610 N 0.96716 0.65656 0.12789 0.0
N611 N 0.90247 0.6468 0.93835 0.0
C612 C 0.95491 0.64927 0.08125 0.0
C613 C 0.91692 0.64924 0.98407 0.0
N614 N 0.88712 0.55714 0.09069 0.0
N615 N 0.9867 0.74171 0.97667 0.0
H616 H 0.87082 0.61356 0.92387 0.0
H617 H 0.92561 0.67549 0.91348 0.0
H618 H 0.01775 0.77544 0.98991 0.0
H619 H 0.96949 0.74873 0.94749 0.0
H620 H 0.90049 0.55407 0.12372 0.0
H621 H 0.85528 0.52181 0.07792 0.0
H622 H 0.94396 0.62953 0.15383 0.0
H623 H -0.00529 0.69307 0.14072 0.0
C624 C 0.04715 0.70557 0.53642 0.0
C625 C 0.06715 0.68393 0.50211 0.0
C626 C 0.98016 0.63492 0.46851 0.0
C627 C 0.95963 0.64682 0.50864 0.0
N628 N 0.97406 0.70176 0.57612 0.0
N629 N 0.04859 0.62362 0.43716 0.0
C630 C 0.99404 0.68483 0.54105 0.0
C631 C 0.03173 0.64798 0.46807 0.0
N632 N 0.07973 0.74643 0.56483 0.0
N633 N 0.94728 0.61019 0.4313 0.0
H634 H 0.0872 0.62987 0.43711 0.0
H635 H 0.02306 0.59374 0.41433 0.0
H636 H 0.90759 0.60109 0.43123 0.0
H637 H 0.9606 0.60403 0.39921 0.0
H638 H 0.12101 0.76593 0.56269 0.0
H639 H 0.12101 0.76593 0.56269 0.0
H640 H -0.00397 0.72972 0.60106 0.0
H641 H 0.93344 0.68836 0.57927 0.0
C642 C 0.28978 0.99497 0.44632 0.0
C643 C 0.32271 0.01621 0.4857 0.0
C644 C 0.26518 0.94707 0.53469 0.0
C645 C 0.2305 0.92191 0.49659 0.0
N646 N 0.20159 0.92879 0.41967 0.0
N647 N 0.35938 0.99262 0.5479 0.0
C648 C 0.23952 0.94936 0.45366 0.0
C649 C 0.31641 0.98758 0.52446 0.0
N650 N 0.30717 0.01477 0.40329 0.0
N651 N 0.25048 0.92999 0.57944 0.0
H652 H 0.39818 0.01802 0.53758 0.0
H653 H 0.35585 0.96667 0.57485 0.0
H654 H 0.21059 0.90392 0.5873 0.0
H655 H 0.27633 0.94738 0.60775 0.0
H656 H 0.28625 -0.00177 0.37238 0.0
H657 H 0.34485 0.04828 0.39917 0.0
H658 H 0.20485 0.94773 0.38776 0.0
H659 H 0.16532 0.894 0.42574 0.0
C660 C 0.36064 0.40808 0.51762 0.0
C661 C 0.30825 0.38788 0.50306 0.0
C662 C 0.29378 0.2973 0.51211 0.0
C663 C 0.34659 0.32009 0.52922 0.0
N664 N 0.41531 0.39428 0.57178 0.0
N665 N 0.2205 0.3097 0.49326 0.0
C666 C 0.37451 0.37444 0.54036 0.0
C667 C 0.27312 0.33161 0.50273 0.0
N668 N 0.3986 0.45847 0.50681 0.0
N669 N 0.26282 0.24382 0.50569 0.0
H670 H 0.20255 0.33226 0.48628 0.0
H671 H 0.20255 0.33226 0.48628 0.0
H672 H 0.27534 0.21705 0.51443 0.0
H673 H 0.22411 0.22666 0.49259 0.0
H674 H 0.43816 0.46833 0.50795 0.0
H675 H 0.39059 0.48535 0.48945 0.0
H676 H 0.43374 0.43388 0.58234 0.0
H677 H 0.42541 0.3698 0.59068 0.0
C678 C 0.03802 0.30877 0.45423 0.0
C679 C 0.06977 0.30721 0.49076 0.0
C680 C 0.00366 0.29577 0.54809 0.0
C681 C 0.97658 0.30126 0.51178 0.0
N682 N 0.97455 0.33373 0.43517 0.0
N683 N 0.07316 0.27576 0.5674 0.0
C684 C -0.00473 0.31599 0.46643 0.0
C685 C 0.04803 0.29089 0.53597 0.0
N686 N 0.05051 0.30566 0.4087 0.0
N687 N 0.98995 0.29384 0.59334 0.0
H688 H 0.10729 0.27456 0.55771 0.0
H689 H 0.05839 0.2617 0.60093 0.0
H690 H 0.95689 0.29775 0.6012 0.0
H691 H 0.00911 0.2927 0.62212 0.0
H692 H 0.02715 0.30482 0.38058 0.0
H693 H 0.08176 0.29901 0.40032 0.0
H694 H 0.98999 0.34738 0.40171 0.0
H695 H 0.94289 0.339 0.44528 0.0
C696 C 0.66972 0.98858 0.5519 0.0
C697 C 0.66594 0.01679 0.51588 0.0
C698 C 0.58204 0.94595 0.4892 0.0
C699 C 0.5857 0.91284 0.52357 0.0
N700 N 0.6362 0.90041 0.58489 0.0
N701 N 0.63203 0.02029 0.44008 0.0
C702 C 0.63044 0.93351 0.55454 0.0
C703 C 0.62618 0.99651 0.48112 0.0
N704 N 0.71193 0.00887 0.58246 0.0
N705 N 0.53605 0.9291 0.4645 0.0
H706 H 0.6655 0.0573 0.43314 0.0
H707 H 0.60653 0.00316 0.41159 0.0
H708 H 0.50194 0.89243 0.47076 0.0
H709 H 0.5303 0.9537 0.4415 0.0
H710 H 0.71612 0.99292 0.61167 0.0
H711 H 0.74265 0.04809 0.57861 0.0
H712 H 0.66803 0.91227 0.60775 0.0
H713 H 0.61044 0.85959 0.58535 0.0
C714 C 0.71637 0.78574 0.52981 0.0
C715 C 0.69078 0.7848 0.48761 0.0
C716 C 0.70527 0.7171 0.45503 0.0
C717 C 0.72465 0.7121 0.49898 0.0
N718 N 0.75019 0.74094 0.57898 0.0
N719 N 0.69134 0.77555 0.4042 0.0
C720 C 0.73146 0.74677 0.53675 0.0
C721 C 0.69806 0.76068 0.44783 0.0
N722 N 0.72557 0.82387 0.56221 0.0
N723 N 0.69104 0.67871 0.42153 0.0
H724 H 0.68389 0.80696 0.39981 0.0
H725 H 0.69752 0.75985 0.37349 0.0
H726 H 0.6925 0.64404 0.42753 0.0
H727 H 0.67273 0.67892 0.39014 0.0
H728 H 0.74639 0.82915 0.59332 0.0
H729 H 0.71513 0.85283 0.55537 0.0
H730 H 0.75222 0.7624 0.60889 0.0
H731 H 0.76116 0.71228 0.58469 0.0
C732 C 0.50062 0.20335 0.32117 0.0
C733 C 0.4867 0.24165 0.33686 0.0
C734 C 0.47615 0.25824 0.25319 0.0
C735 C 0.48536 0.21671 0.23728 0.0
N736 N 0.49692 0.14329 0.25937 0.0
N737 N 0.44527 0.29277 0.31599 0.0
C738 C 0.49436 0.18714 0.27244 0.0
C739 C 0.46956 0.26507 0.3023 0.0
N740 N 0.52137 0.18326 0.35273 0.0
N741 N 0.47657 0.29371 0.22175 0.0
H742 H 0.43832 0.29743 0.35112 0.0
H743 H 0.42694 0.306 0.29244 0.0
H744 H 0.4874 0.29421 0.1871 0.0
H745 H 0.47422 0.32706 0.23138 0.0
H746 H 0.53665 0.15892 0.34334 0.0
H747 H 0.52723 0.19446 0.38798 0.0
H748 H 0.49772 0.11656 0.28327 0.0
H749 H 0.49334 0.13109 0.22446 0.0
C750 C 0.22006 0.41981 0.24741 0.0
C751 C 0.27232 0.4546 0.23139 0.0
C752 C 0.28807 0.51157 0.29928 0.0
C753 C 0.23222 0.48439 0.30749 0.0
N754 N 0.14379 0.41401 0.28671 0.0
N755 N 0.35881 0.53124 0.24386 0.0
C756 C 0.19774 0.43899 0.28049 0.0
C757 C 0.3072 0.49993 0.2579 0.0
N758 N 0.19275 0.36807 0.23313 0.0
N759 N 0.32298 0.54507 0.33225 0.0
H760 H 0.37538 0.52068 0.21628 0.0
H761 H 0.38424 0.56824 0.25859 0.0
H762 H 0.31125 0.55323 0.36425 0.0
H763 H 0.36399 0.56072 0.32997 0.0
H764 H 0.15554 0.34048 0.24655 0.0
H765 H 0.21019 0.35089 0.21317 0.0
H766 H 0.11704 0.38326 0.2651 0.0
H767 H 0.12569 0.4276 0.31028 0.0
C768 C 0.80872 0.29832 0.27557 0.0
C769 C 0.77341 0.26677 0.23917 0.0
C770 C 0.71519 0.204 0.30164 0.0
C771 C 0.74627 0.23945 0.33812 0.0
N772 N 0.81834 0.32729 0.35684 0.0
N773 N 0.68414 0.19617 0.22176 0.0
C774 C 0.79192 0.28855 0.32409 0.0
C775 C 0.72416 0.22146 0.25345 0.0
N776 N 0.85868 0.33796 0.26402 0.0
N777 N 0.67819 0.15272 0.3123 0.0
H778 H 0.68673 0.21033 0.1879 0.0
H779 H 0.64613 0.16593 0.23106 0.0
H780 H 0.67254 0.13755 0.34631 0.0
H781 H 0.65775 0.12401 0.28667 0.0
H782 H 0.88817 0.3588 0.28894 0.0
H783 H 0.87194 0.34636 0.22931 0.0
H784 H 0.84858 0.36552 0.34833 0.0
H785 H 0.80623 0.32299 0.39184 0.0
C786 C 0.48353 0.74601 0.22948 0.0
C787 C 0.50847 0.80229 0.22597 0.0
C788 C 0.51652 0.8104 0.31086 0.0
C789 C 0.49403 0.75441 0.31413 0.0
N790 N 0.47222 0.6718 0.27655 0.0
N791 N 0.55984 0.88893 0.26181 0.0
C792 C 0.48207 0.7229 0.27348 0.0
C793 C 0.52915 0.83488 0.26616 0.0
N794 N 0.46122 0.71441 0.19105 0.0
N795 N 0.52252 0.83965 0.35022 0.0
H796 H 0.56682 0.90893 0.22988 0.0
H797 H 0.58133 0.91366 0.28962 0.0
H798 H 0.50889 0.82203 0.38301 0.0
H799 H 0.53505 0.88008 0.34968 0.0
H800 H 0.43724 0.67322 0.19333 0.0
H801 H 0.46396 0.72919 0.1572 0.0
H802 H 0.4705 0.64957 0.24723 0.0
H803 H 0.47103 0.65346 0.30841 0.0
C804 C 0.73275 0.46051 0.3082 0.0
C805 C 0.75679 0.50701 0.33697 0.0
C806 C 0.75516 0.55928 0.26739 0.0
C807 C 0.73363 0.51355 0.2378 0.0
N808 N 0.69742 0.41902 0.23181 0.0
N809 N 0.80278 0.60271 0.33907 0.0
C810 C 0.72183 0.46386 0.25888 0.0
C811 C 0.77065 0.55679 0.3152 0.0
N812 N 0.71962 0.41272 0.32838 0.0
N813 N 0.76098 0.60571 0.25 0.0
H814 H 0.81817 0.60301 0.3722 0.0
H815 H 0.81913 0.64046 0.32428 0.0
H816 H 0.75287 0.61022 0.21524 0.0
H817 H 0.76955 0.6384 0.27093 0.0
H818 H 0.70501 0.37696 0.31056 0.0
H819 H 0.72315 0.40818 0.36422 0.0
H820 H 0.68783 0.38114 0.24265 0.0
H821 H 0.68433 0.41907 0.19774 0.0
C822 C 0.15836 0.68068 0.26797 0.0
C823 C 0.1875 0.70561 0.22694 0.0
C824 C 0.26179 0.77139 0.27346 0.0
C825 C 0.2366 0.74082 0.31399 0.0
N826 N 0.16148 0.66532 0.35086 0.0
N827 N 0.26763 0.7727 0.18879 0.0
C828 C 0.18497 0.6951 0.31162 0.0
C829 C 0.23936 0.75064 0.22908 0.0
N830 N 0.10506 0.64466 0.26529 0.0
N831 N 0.30639 0.82043 0.27742 0.0
H832 H 0.25222 0.75899 0.15536 0.0
H833 H 0.30762 0.80216 0.18849 0.0
H834 H 0.32533 0.8362 0.30934 0.0
H835 H 0.32236 0.84712 0.24952 0.0
H836 H 0.08035 0.62997 0.2946 0.0
H837 H 0.08452 0.63288 0.23351 0.0
H838 H 0.12642 0.62869 0.35003 0.0
H839 H 0.17858 0.67536 0.38411 0.0
C840 C 0.56304 0.82536 0.72753 0.0
C841 C 0.53073 0.76881 0.72663 0.0
C842 C 0.49439 0.7685 0.80334 0.0
C843 C 0.53192 0.82365 0.80629 0.0
N844 N 0.58565 0.9073 0.76837 0.0
N845 N 0.45407 0.68914 0.75529 0.0
C846 C 0.55951 0.85299 0.76655 0.0
C847 C 0.49168 0.74138 0.76138 0.0
N848 N 0.59916 0.85216 0.69275 0.0
N849 N 0.46599 0.74111 0.84198 0.0
H850 H 0.45454 0.66657 0.72711 0.0
H851 H 0.4206 0.66905 0.77665 0.0
H852 H 0.46646 0.7595 0.87334 0.0
H853 H 0.4434 0.69983 0.84374 0.0
H854 H 0.62905 0.89179 0.69524 0.0
H855 H 0.60047 0.83428 0.66164 0.0
H856 H 0.60478 0.93194 0.73977 0.0
H857 H 0.58373 0.92732 0.79812 0.0
C858 C 0.80598 0.5497 0.69241 0.0
C859 C 0.76526 0.51091 0.66308 0.0
C860 C 0.70174 0.48975 0.72991 0.0
C861 C 0.74335 0.52592 0.76041 0.0
N862 N 0.83829 0.58027 0.77141 0.0
N863 N 0.67602 0.43739 0.65762 0.0
C864 C 0.79632 0.55285 0.74168 0.0
C865 C 0.7138 0.47873 0.68325 0.0
N866 N 0.85386 0.58538 0.6729 0.0
N867 N 0.65007 0.46874 0.74388 0.0
H868 H 0.68346 0.42905 0.62371 0.0
H869 H 0.63948 0.4088 0.6714 0.0
H870 H 0.63953 0.47823 0.77587 0.0
H871 H 0.6177 0.44635 0.72201 0.0
H872 H 0.88248 0.61903 0.69051 0.0
H873 H 0.86351 0.58352 0.63791 0.0
H874 H 0.87787 0.59672 0.76101 0.0
H875 H 0.83362 0.58113 0.80765 0.0
C876 C 0.26126 0.77723 0.76401 0.0
C877 C 0.23333 0.74709 0.72469 0.0
C878 C 0.16219 0.68119 0.77327 0.0
C879 C 0.18743 0.71433 0.81195 0.0
N880 N 0.2698 0.77788 0.84807 0.0
N881 N 0.17151 0.66176 0.69256 0.0
C882 C 0.24033 0.75704 0.80865 0.0
C883 C 0.18885 0.69548 0.72981 0.0
N884 N 0.3049 0.82655 0.75837 0.0
N885 N 0.11196 0.63857 0.77762 0.0
H886 H 0.1934 0.67186 0.66159 0.0
H887 H 0.14037 0.62258 0.69438 0.0
H888 H 0.0927 0.62652 0.81005 0.0
H889 H 0.08907 0.61664 0.7491 0.0
H890 H 0.32278 0.85322 0.78596 0.0
H891 H 0.32163 0.84113 0.72537 0.0
H892 H 0.30955 0.80802 0.84776 0.0
H893 H 0.25596 0.7588 0.88011 0.0
C894 C 0.46709 0.26023 0.74412 0.0
C895 C 0.4695 0.21343 0.75533 0.0
C896 C 0.49595 0.21258 0.67206 0.0
C897 C 0.4874 0.2554 0.65937 0.0
N898 N 0.45733 0.31518 0.68457 0.0
N899 N 0.47921 0.14106 0.72654 0.0
C900 C 0.47158 0.27833 0.69597 0.0
C901 C 0.48237 0.18887 0.7183 0.0
N902 N 0.46082 0.28794 0.77982 0.0
N903 N 0.51843 0.195 0.63979 0.0
H904 H 0.47112 0.12329 0.75965 0.0
H905 H 0.48075 0.11723 0.69999 0.0
H906 H 0.52993 0.21191 0.60644 0.0
H907 H 0.53075 0.1678 0.64757 0.0
H908 H 0.46441 0.32518 0.77545 0.0
H909 H 0.45684 0.27574 0.81476 0.0
H910 H 0.4389 0.32844 0.70795 0.0
H911 H 0.46051 0.32996 0.65069 0.0
C912 C 0.29732 0.46442 0.77351 0.0
C913 C 0.27274 0.47315 0.81234 0.0
C914 C 0.22114 0.49782 0.76242 0.0
C915 C 0.2433 0.48582 0.72374 0.0
N916 N 0.31968 0.485 0.69203 0.0
N917 N 0.2275 0.51619 0.84535 0.0
C918 C 0.28723 0.47795 0.72907 0.0
C919 C 0.24056 0.4967 0.8073 0.0
N920 N 0.32799 0.44127 0.77892 0.0
N921 N 0.17923 0.50623 0.75644 0.0
H922 H 0.24318 0.51731 0.87832 0.0
H923 H 0.20671 0.53673 0.84311 0.0
H924 H 0.16562 0.509 0.72324 0.0
H925 H 0.15692 0.50831 0.78418 0.0
H926 H 0.34119 0.4281 0.75068 0.0
H927 H 0.33804 0.4332 0.81189 0.0
H928 H 0.3529 0.48024 0.69411 0.0
H929 H 0.31863 0.50543 0.66245 0.0
C930 C 0.77087 0.28416 0.72799 0.0
C931 C 0.77961 0.24917 0.75729 0.0
C932 C 0.74978 0.18524 0.69011 0.0
C933 C 0.73887 0.2191 0.66147 0.0
N934 N 0.73027 0.297 0.65756 0.0
N935 N 0.76217 0.15961 0.7683 0.0
C936 C 0.74624 0.2671 0.68209 0.0
C937 C 0.7647 0.19786 0.7387 0.0
N938 N 0.78929 0.33518 0.7425 0.0
N939 N 0.74638 0.14055 0.67084 0.0
H940 H 0.76952 0.1659 0.80423 0.0
H941 H 0.74674 0.12004 0.75856 0.0
H942 H 0.73073 0.12648 0.63755 0.0
H943 H 0.76163 0.11885 0.68703 0.0
H944 H 0.78952 0.36453 0.72137 0.0
H945 H 0.80867 0.34946 0.77445 0.0
H946 H 0.72895 0.32927 0.67189 0.0
H947 H 0.714 0.2866 0.62396 0.0
loop_
_geom_bond_atom_site_label_1
_geom_bond_atom_site_label_2
_geom_bond_distance
_geom_bond_site_symmetry_2
_ccdc_geom_bond_type
Co0 O3 1.970 . S
Co0 N17 1.989 . S
Co0 O25 1.967 . S
Co0 O32 1.920 . S
Co1 O4 1.966 . S
Co1 N10 2.022 . S
Co1 N18 1.993 . S
Co1 O26 1.941 . S
C2 O3 1.258 . S
C2 O4 1.263 1_554 S
O3 Co0 1.970 . S
O3 C2 1.258 . S
O4 Co1 1.966 . S
O4 C2 1.263 1_556 S
C5 O6 1.235 . S
C5 O32 1.289 . S
O6 C5 1.235 . S
C7 C9 1.400 . S
C7 N10 1.351 . S
C7 C12 1.501 . S
C8 C9 1.387 . S
C8 N11 1.341 . S
C9 C7 1.400 . S
C9 C8 1.387 . S
N10 Co1 2.022 . S
N10 C7 1.351 . S
N10 N11 1.365 . S
N11 C8 1.341 . S
N11 N10 1.365 . S
N11 H31 0.862 . S
C12 C7 1.501 . S
C12 H13 0.961 . S
C12 H14 0.961 . S
C12 H15 0.960 . S
H13 C12 0.961 . S
H14 C12 0.961 . S
H15 C12 0.960 . S
C16 N17 1.342 . S
C16 C20 1.401 . S
C16 C21 1.499 . S
N17 Co0 1.989 . S
N17 C16 1.342 . S
N17 N18 1.388 1_554 S
N18 Co1 1.993 . S
N18 N17 1.388 1_556 S
N18 C19 1.346 . S
C19 N18 1.346 . S
C19 C20 1.396 1_556 S
C19 C29 1.510 . S
C20 C16 1.401 . S
C20 C19 1.396 1_554 S
C21 C16 1.499 . S
C21 H22 0.959 . S
C21 H23 0.960 . S
C21 H24 0.961 . S
H22 C21 0.959 . S
H23 C21 0.960 . S
H24 C21 0.961 . S
O25 Co0 1.967 . S
O25 C33 1.258 . S
O26 Co1 1.941 . S
O26 C33 1.266 1_556 S
H27 C29 0.959 . S
H28 C29 0.961 . S
C29 C19 1.510 . S
C29 H27 0.959 . S
C29 H28 0.961 . S
C29 H30 0.960 . S
H30 C29 0.960 . S
H31 N11 0.862 . S
O32 Co0 1.920 . S
O32 C5 1.289 . S
C33 O25 1.258 . S
C33 O26 1.266 1_554 S
Co34 O37 1.970 . S
Co34 N51 1.989 . S
Co34 O59 1.967 . S
Co34 O66 1.920 . S
Co35 O38 1.966 . S
Co35 N44 2.022 . S
Co35 N52 1.993 1_556 S
Co35 O60 1.941 . S
C36 O37 1.258 . S
C36 O38 1.263 1_554 S
O37 Co34 1.970 . S
O37 C36 1.258 . S
O38 Co35 1.966 . S
O38 C36 1.263 1_556 S
C39 O40 1.235 . S
C39 O66 1.289 . S
O40 C39 1.235 . S
C41 C43 1.400 . S
C41 N44 1.351 . S
C41 C46 1.501 . S
C42 C43 1.387 . S
C42 N45 1.341 . S
C43 C41 1.400 . S
C43 C42 1.387 . S
N44 Co35 2.022 . S
N44 C41 1.351 . S
N44 N45 1.365 . S
N45 C42 1.341 . S
N45 N44 1.365 . S
N45 H65 0.862 . S
C46 C41 1.501 . S
C46 H47 0.961 . S
C46 H48 0.961 . S
C46 H49 0.960 . S
H47 C46 0.961 . S
H48 C46 0.961 . S
H49 C46 0.960 . S
C50 N51 1.342 . S
C50 C54 1.401 . S
C50 C55 1.499 . S
N51 Co34 1.989 . S
N51 C50 1.342 . S
N51 N52 1.388 . S
N52 Co35 1.993 1_554 S
N52 N51 1.388 . S
N52 C53 1.346 1_554 S
C53 N52 1.346 1_556 S
C53 C54 1.396 1_556 S
C53 C63 1.510 . S
C54 C50 1.401 . S
C54 C53 1.396 1_554 S
C55 C50 1.499 . S
C55 H56 0.959 . S
C55 H57 0.960 . S
C55 H58 0.961 . S
H56 C55 0.959 . S
H57 C55 0.960 . S
H58 C55 0.961 . S
O59 Co34 1.967 . S
O59 C67 1.258 . S
O60 Co35 1.941 . S
O60 C67 1.266 1_556 S
H61 C63 0.959 . S
H62 C63 0.961 . S
C63 C53 1.510 . S
C63 H61 0.959 . S
C63 H62 0.961 . S
C63 H64 0.960 . S
H64 C63 0.960 . S
H65 N45 0.862 . S
O66 Co34 1.920 . S
O66 C39 1.289 . S
C67 O59 1.258 . S
C67 O60 1.266 1_554 S
Co68 O71 1.970 . S
Co68 N85 1.989 . S
Co68 O93 1.967 . S
Co68 O100 1.920 . S
Co69 O72 1.966 . S
Co69 N78 2.022 . S
Co69 N86 1.993 . S
Co69 O94 1.941 . S
C70 O71 1.258 . S
C70 O72 1.263 1_554 S
O71 Co68 1.970 . S
O71 C70 1.258 . S
O72 Co69 1.966 . S
O72 C70 1.263 1_556 S
C73 O74 1.235 . S
C73 O100 1.289 . S
O74 C73 1.235 . S
C75 C77 1.400 . S
C75 N78 1.351 . S
C75 C80 1.501 . S
C76 C77 1.387 . S
C76 N79 1.341 . S
C77 C75 1.400 . S
C77 C76 1.387 . S
N78 Co69 2.022 . S
N78 C75 1.351 . S
N78 N79 1.365 . S
N79 C76 1.341 . S
N79 N78 1.365 . S
N79 H99 0.862 . S
C80 C75 1.501 . S
C80 H81 0.961 . S
C80 H82 0.961 . S
C80 H83 0.960 . S
H81 C80 0.961 . S
H82 C80 0.961 . S
H83 C80 0.960 . S
C84 N85 1.342 . S
C84 C88 1.401 . S
C84 C89 1.499 . S
N85 Co68 1.989 . S
N85 C84 1.342 . S
N85 N86 1.388 1_554 S
N86 Co69 1.993 . S
N86 N85 1.388 1_556 S
N86 C87 1.346 . S
C87 N86 1.346 . S
C87 C88 1.396 1_556 S
C87 C97 1.510 . S
C88 C84 1.401 . S
C88 C87 1.396 1_554 S
C89 C84 1.499 . S
C89 H90 0.959 . S
C89 H91 0.960 . S
C89 H92 0.961 . S
H90 C89 0.959 . S
H91 C89 0.960 . S
H92 C89 0.961 . S
O93 Co68 1.967 . S
O93 C101 1.258 . S
O94 Co69 1.941 . S
O94 C101 1.266 1_556 S
H95 C97 0.959 . S
H96 C97 0.961 . S
C97 C87 1.510 . S
C97 H95 0.959 . S
C97 H96 0.961 . S
C97 H98 0.960 . S
H98 C97 0.960 . S
H99 N79 0.862 . S
O100 Co68 1.920 . S
O100 C73 1.289 . S
C101 O93 1.258 . S
C101 O94 1.266 1_554 S
Co102 O105 1.970 . S
Co102 N119 1.989 . S
Co102 O127 1.967 . S
Co102 O134 1.920 . S
Co103 O106 1.966 . S
Co103 N112 2.022 . S
Co103 N120 1.993 1_556 S
Co103 O128 1.941 . S
C104 O105 1.258 . S
C104 O106 1.263 1_554 S
O105 Co102 1.970 . S
O105 C104 1.258 . S
O106 Co103 1.966 . S
O106 C104 1.263 1_556 S
C107 O108 1.235 . S
C107 O134 1.289 . S
O108 C107 1.235 . S
C109 C111 1.400 . S
C109 N112 1.351 . S
C109 C114 1.501 . S
C110 C111 1.387 . S
C110 N113 1.341 . S
C111 C109 1.400 . S
C111 C110 1.387 . S
N112 Co103 2.022 . S
N112 C109 1.351 . S
N112 N113 1.365 . S
N113 C110 1.341 . S
N113 N112 1.365 . S
N113 H133 0.862 . S
C114 C109 1.501 . S
C114 H115 0.961 . S
C114 H116 0.961 . S
C114 H117 0.960 . S
H115 C114 0.961 . S
H116 C114 0.961 . S
H117 C114 0.960 . S
C118 N119 1.342 . S
C118 C122 1.401 . S
C118 C123 1.499 . S
N119 Co102 1.989 . S
N119 C118 1.342 . S
N119 N120 1.388 . S
N120 Co103 1.993 1_554 S
N120 N119 1.388 . S
N120 C121 1.346 1_554 S
C121 N120 1.346 1_556 S
C121 C122 1.396 1_556 S
C121 C131 1.510 . S
C122 C118 1.401 . S
C122 C121 1.396 1_554 S
C123 C118 1.499 . S
C123 H124 0.959 . S
C123 H125 0.960 . S
C123 H126 0.961 . S
H124 C123 0.959 . S
H125 C123 0.960 . S
H126 C123 0.961 . S
O127 Co102 1.967 . S
O127 C135 1.258 . S
O128 Co103 1.941 . S
O128 C135 1.266 1_556 S
H129 C131 0.959 . S
H130 C131 0.961 . S
C131 C121 1.510 . S
C131 H129 0.959 . S
C131 H130 0.961 . S
C131 H132 0.960 . S
H132 C131 0.960 . S
H133 N113 0.862 . S
O134 Co102 1.920 . S
O134 C107 1.289 . S
C135 O127 1.258 . S
C135 O128 1.266 1_554 S
Co136 O139 1.970 . S
Co136 N153 1.989 . S
Co136 O161 1.967 . S
Co136 O168 1.920 . S
Co137 O140 1.966 . S
Co137 N146 2.022 . S
Co137 N154 1.993 . S
Co137 O162 1.941 . S
C138 O139 1.258 . S
C138 O140 1.263 1_554 S
O139 Co136 1.970 . S
O139 C138 1.258 . S
O140 Co137 1.966 . S
O140 C138 1.263 1_556 S
C141 O142 1.235 . S
C141 O168 1.289 . S
O142 C141 1.235 . S
C143 C145 1.400 . S
C143 N146 1.351 . S
C143 C148 1.501 . S
C144 C145 1.387 . S
C144 N147 1.341 . S
C145 C143 1.400 . S
C145 C144 1.387 . S
N146 Co137 2.022 . S
N146 C143 1.351 . S
N146 N147 1.365 . S
N147 C144 1.341 . S
N147 N146 1.365 . S
N147 H167 0.862 . S
C148 C143 1.501 . S
C148 H149 0.961 . S
C148 H150 0.961 . S
C148 H151 0.960 . S
H149 C148 0.961 . S
H150 C148 0.961 . S
H151 C148 0.960 . S
C152 N153 1.342 . S
C152 C156 1.401 . S
C152 C157 1.499 . S
N153 Co136 1.989 . S
N153 C152 1.342 . S
N153 N154 1.388 1_554 S
N154 Co137 1.993 . S
N154 N153 1.388 1_556 S
N154 C155 1.346 . S
C155 N154 1.346 . S
C155 C156 1.396 1_556 S
C155 C165 1.510 . S
C156 C152 1.401 . S
C156 C155 1.396 1_554 S
C157 C152 1.499 . S
C157 H158 0.959 . S
C157 H159 0.960 . S
C157 H160 0.961 . S
H158 C157 0.959 . S
H159 C157 0.960 . S
H160 C157 0.961 . S
O161 Co136 1.967 . S
O161 C169 1.258 . S
O162 Co137 1.941 . S
O162 C169 1.266 1_556 S
H163 C165 0.959 . S
H164 C165 0.961 . S
C165 C155 1.510 . S
C165 H163 0.959 . S
C165 H164 0.961 . S
C165 H166 0.960 . S
H166 C165 0.960 . S
H167 N147 0.862 . S
O168 Co136 1.920 . S
O168 C141 1.289 . S
C169 O161 1.258 . S
C169 O162 1.266 1_554 S
Co170 O173 1.970 . S
Co170 N187 1.989 . S
Co170 O195 1.967 . S
Co170 O202 1.920 . S
Co171 O174 1.966 . S
Co171 N180 2.022 . S
Co171 N188 1.993 1_556 S
Co171 O196 1.941 . S
C172 O173 1.258 . S
C172 O174 1.263 1_554 S
O173 Co170 1.970 . S
O173 C172 1.258 . S
O174 Co171 1.966 . S
O174 C172 1.263 1_556 S
C175 O176 1.235 . S
C175 O202 1.289 . S
O176 C175 1.235 . S
C177 C179 1.400 . S
C177 N180 1.351 . S
C177 C182 1.501 . S
C178 C179 1.387 . S
C178 N181 1.341 . S
C179 C177 1.400 . S
C179 C178 1.387 . S
N180 Co171 2.022 . S
N180 C177 1.351 . S
N180 N181 1.365 . S
N181 C178 1.341 . S
N181 N180 1.365 . S
N181 H201 0.862 . S
C182 C177 1.501 . S
C182 H183 0.961 . S
C182 H184 0.961 . S
C182 H185 0.960 . S
H183 C182 0.961 . S
H184 C182 0.961 . S
H185 C182 0.960 . S
C186 N187 1.342 . S
C186 C190 1.401 . S
C186 C191 1.499 . S
N187 Co170 1.989 . S
N187 C186 1.342 . S
N187 N188 1.388 . S
N188 Co171 1.993 1_554 S
N188 N187 1.388 . S
N188 C189 1.346 1_554 S
C189 N188 1.346 1_556 S
C189 C190 1.396 1_556 S
C189 C199 1.510 . S
C190 C186 1.401 . S
C190 C189 1.396 1_554 S
C191 C186 1.499 . S
C191 H192 0.959 . S
C191 H193 0.960 . S
C191 H194 0.961 . S
H192 C191 0.959 . S
H193 C191 0.960 . S
H194 C191 0.961 . S
O195 Co170 1.967 . S
O195 C203 1.258 . S
O196 Co171 1.941 . S
O196 C203 1.266 1_556 S
H197 C199 0.959 . S
H198 C199 0.961 . S
C199 C189 1.510 . S
C199 H197 0.959 . S
C199 H198 0.961 . S
C199 H200 0.960 . S
H200 C199 0.960 . S
H201 N181 0.862 . S
O202 Co170 1.920 . S
O202 C175 1.289 . S
C203 O195 1.258 . S
C203 O196 1.266 1_554 S
Co204 O207 1.970 . S
Co204 N221 1.989 . S
Co204 O229 1.967 . S
Co204 O236 1.920 . S
Co205 O208 1.966 . S
Co205 N214 2.022 . S
Co205 N222 1.993 . S
Co205 O230 1.941 . S
C206 O207 1.258 . S
C206 O208 1.263 . S
O207 Co204 1.970 . S
O207 C206 1.258 . S
O208 Co205 1.966 . S
O208 C206 1.263 . S
C209 O210 1.235 . S
C209 O236 1.289 . S
O210 C209 1.235 . S
C211 C213 1.400 . S
C211 N214 1.351 . S
C211 C216 1.501 . S
C212 C213 1.387 . S
C212 N215 1.341 . S
C213 C211 1.400 . S
C213 C212 1.387 . S
N214 Co205 2.022 . S
N214 C211 1.351 . S
N214 N215 1.365 . S
N215 C212 1.341 . S
N215 N214 1.365 . S
N215 H235 0.862 . S
C216 C211 1.501 . S
C216 H217 0.961 . S
C216 H218 0.961 . S
C216 H219 0.960 . S
H217 C216 0.961 . S
H218 C216 0.961 . S
H219 C216 0.960 . S
C220 N221 1.342 . S
C220 C224 1.401 . S
C220 C225 1.499 . S
N221 Co204 1.989 . S
N221 C220 1.342 . S
N221 N222 1.388 . S
N222 Co205 1.993 . S
N222 N221 1.388 . S
N222 C223 1.346 . S
C223 N222 1.346 . S
C223 C224 1.396 . S
C223 C233 1.510 . S
C224 C220 1.401 . S
C224 C223 1.396 . S
C225 C220 1.499 . S
C225 H226 0.959 . S
C225 H227 0.960 . S
C225 H228 0.961 . S
H226 C225 0.959 . S
H227 C225 0.960 . S
H228 C225 0.961 . S
O229 Co204 1.967 . S
O229 C237 1.258 . S
O230 Co205 1.941 . S
O230 C237 1.266 . S
H231 C233 0.959 . S
H232 C233 0.961 . S
C233 C223 1.510 . S
C233 H231 0.959 . S
C233 H232 0.961 . S
C233 H234 0.960 . S
H234 C233 0.960 . S
H235 N215 0.862 . S
O236 Co204 1.920 . S
O236 C209 1.289 . S
C237 O229 1.258 . S
C237 O230 1.266 . S
Co238 O241 1.970 . S
Co238 N255 1.989 . S
Co238 O263 1.967 . S
Co238 O270 1.920 . S
Co239 O242 1.966 . S
Co239 N248 2.022 . S
Co239 N256 1.993 . S
Co239 O264 1.941 . S
C240 O241 1.258 . S
C240 O242 1.263 . S
O241 Co238 1.970 . S
O241 C240 1.258 . S
O242 Co239 1.966 . S
O242 C240 1.263 . S
C243 O244 1.235 . S
C243 O270 1.289 . S
O244 C243 1.235 . S
C245 C247 1.400 . S
C245 N248 1.351 . S
C245 C250 1.501 . S
C246 C247 1.387 . S
C246 N249 1.341 . S
C247 C245 1.400 . S
C247 C246 1.387 . S
N248 Co239 2.022 . S
N248 C245 1.351 . S
N248 N249 1.365 . S
N249 C246 1.341 . S
N249 N248 1.365 . S
N249 H269 0.862 . S
C250 C245 1.501 . S
C250 H251 0.961 . S
C250 H252 0.961 . S
C250 H253 0.960 . S
H251 C250 0.961 . S
H252 C250 0.961 . S
H253 C250 0.960 . S
C254 N255 1.342 . S
C254 C258 1.401 . S
C254 C259 1.499 . S
N255 Co238 1.989 . S
N255 C254 1.342 . S
N255 N256 1.388 . S
N256 Co239 1.993 . S
N256 N255 1.388 . S
N256 C257 1.346 . S
C257 N256 1.346 . S
C257 C258 1.396 . S
C257 C267 1.510 . S
C258 C254 1.401 . S
C258 C257 1.396 . S
C259 C254 1.499 . S
C259 H260 0.959 . S
C259 H261 0.960 . S
C259 H262 0.961 . S
H260 C259 0.959 . S
H261 C259 0.960 . S
H262 C259 0.961 . S
O263 Co238 1.967 . S
O263 C271 1.258 . S
O264 Co239 1.941 . S
O264 C271 1.266 . S
H265 C267 0.959 . S
H266 C267 0.961 . S
C267 C257 1.510 . S
C267 H265 0.959 . S
C267 H266 0.961 . S
C267 H268 0.960 . S
H268 C267 0.960 . S
H269 N249 0.862 . S
O270 Co238 1.920 . S
O270 C243 1.289 . S
C271 O263 1.258 . S
C271 O264 1.266 . S
Co272 O275 1.970 . S
Co272 N289 1.989 . S
Co272 O297 1.967 . S
Co272 O304 1.920 . S
Co273 O276 1.966 . S
Co273 N282 2.022 . S
Co273 N290 1.993 . S
Co273 O298 1.941 . S
C274 O275 1.258 . S
C274 O276 1.263 . S
O275 Co272 1.970 . S
O275 C274 1.258 . S
O276 Co273 1.966 . S
O276 C274 1.263 . S
C277 O278 1.235 . S
C277 O304 1.289 . S
O278 C277 1.235 . S
C279 C281 1.400 . S
C279 N282 1.351 . S
C279 C284 1.501 . S
C280 C281 1.387 . S
C280 N283 1.341 . S
C281 C279 1.400 . S
C281 C280 1.387 . S
N282 Co273 2.022 . S
N282 C279 1.351 . S
N282 N283 1.365 . S
N283 C280 1.341 . S
N283 N282 1.365 . S
N283 H303 0.862 . S
C284 C279 1.501 . S
C284 H285 0.961 . S
C284 H286 0.961 . S
C284 H287 0.960 . S
H285 C284 0.961 . S
H286 C284 0.961 . S
H287 C284 0.960 . S
C288 N289 1.342 . S
C288 C292 1.401 . S
C288 C293 1.499 . S
N289 Co272 1.989 . S
N289 C288 1.342 . S
N289 N290 1.388 . S
N290 Co273 1.993 . S
N290 N289 1.388 . S
N290 C291 1.346 . S
C291 N290 1.346 . S
C291 C292 1.396 . S
C291 C301 1.510 . S
C292 C288 1.401 . S
C292 C291 1.396 . S
C293 C288 1.499 . S
C293 H294 0.959 . S
C293 H295 0.960 . S
C293 H296 0.961 . S
H294 C293 0.959 . S
H295 C293 0.960 . S
H296 C293 0.961 . S
O297 Co272 1.967 . S
O297 C305 1.258 . S
O298 Co273 1.941 . S
O298 C305 1.266 . S
H299 C301 0.959 . S
H300 C301 0.961 . S
C301 C291 1.510 . S
C301 H299 0.959 . S
C301 H300 0.961 . S
C301 H302 0.960 . S
H302 C301 0.960 . S
H303 N283 0.862 . S
O304 Co272 1.920 . S
O304 C277 1.289 . S
C305 O297 1.258 . S
C305 O298 1.266 . S
Co306 O309 1.970 . S
Co306 N323 1.989 . S
Co306 O331 1.967 . S
Co306 O338 1.920 . S
Co307 O310 1.966 . S
Co307 N316 2.022 . S
Co307 N324 1.993 . S
Co307 O332 1.941 . S
C308 O309 1.258 . S
C308 O310 1.263 . S
O309 Co306 1.970 . S
O309 C308 1.258 . S
O310 Co307 1.966 . S
O310 C308 1.263 . S
C311 O312 1.235 . S
C311 O338 1.289 . S
O312 C311 1.235 . S
C313 C315 1.400 . S
C313 N316 1.351 . S
C313 C318 1.501 . S
C314 C315 1.387 . S
C314 N317 1.341 . S
C315 C313 1.400 . S
C315 C314 1.387 . S
N316 Co307 2.022 . S
N316 C313 1.351 . S
N316 N317 1.365 . S
N317 C314 1.341 . S
N317 N316 1.365 . S
N317 H337 0.862 . S
C318 C313 1.501 . S
C318 H319 0.961 . S
C318 H320 0.961 . S
C318 H321 0.960 . S
H319 C318 0.961 . S
H320 C318 0.961 . S
H321 C318 0.960 . S
C322 N323 1.342 . S
C322 C326 1.401 . S
C322 C327 1.499 . S
N323 Co306 1.989 . S
N323 C322 1.342 . S
N323 N324 1.388 . S
N324 Co307 1.993 . S
N324 N323 1.388 . S
N324 C325 1.346 . S
C325 N324 1.346 . S
C325 C326 1.396 . S
C325 C335 1.510 . S
C326 C322 1.401 . S
C326 C325 1.396 . S
C327 C322 1.499 . S
C327 H328 0.959 . S
C327 H329 0.960 . S
C327 H330 0.961 . S
H328 C327 0.959 . S
H329 C327 0.960 . S
H330 C327 0.961 . S
O331 Co306 1.967 . S
O331 C339 1.258 . S
O332 Co307 1.941 . S
O332 C339 1.266 . S
H333 C335 0.959 . S
H334 C335 0.961 . S
C335 C325 1.510 . S
C335 H333 0.959 . S
C335 H334 0.961 . S
C335 H336 0.960 . S
H336 C335 0.960 . S
H337 N317 0.862 . S
O338 Co306 1.920 . S
O338 C311 1.289 . S
C339 O331 1.258 . S
C339 O332 1.266 . S
Co340 O343 1.970 . S
Co340 N357 1.989 . S
Co340 O365 1.967 . S
Co340 O372 1.920 . S
Co341 O344 1.966 . S
Co341 N350 2.022 . S
Co341 N358 1.993 . S
Co341 O366 1.941 . S
C342 O343 1.258 . S
C342 O344 1.263 . S
O343 Co340 1.970 . S
O343 C342 1.258 . S
O344 Co341 1.966 . S
O344 C342 1.263 . S
C345 O346 1.235 . S
C345 O372 1.289 . S
O346 C345 1.235 . S
C347 C349 1.400 . S
C347 N350 1.351 . S
C347 C352 1.501 . S
C348 C349 1.387 . S
C348 N351 1.341 . S
C349 C347 1.400 . S
C349 C348 1.387 . S
N350 Co341 2.022 . S
N350 C347 1.351 . S
N350 N351 1.365 . S
N351 C348 1.341 . S
N351 N350 1.365 . S
N351 H371 0.862 . S
C352 C347 1.501 . S
C352 H353 0.961 . S
C352 H354 0.961 . S
C352 H355 0.960 . S
H353 C352 0.961 . S
H354 C352 0.961 . S
H355 C352 0.960 . S
C356 N357 1.342 . S
C356 C360 1.401 . S
C356 C361 1.499 . S
N357 Co340 1.989 . S
N357 C356 1.342 . S
N357 N358 1.388 . S
N358 Co341 1.993 . S
N358 N357 1.388 . S
N358 C359 1.346 . S
C359 N358 1.346 . S
C359 C360 1.396 . S
C359 C369 1.510 . S
C360 C356 1.401 . S
C360 C359 1.396 . S
C361 C356 1.499 . S
C361 H362 0.959 . S
C361 H363 0.960 . S
C361 H364 0.961 . S
H362 C361 0.959 . S
H363 C361 0.960 . S
H364 C361 0.961 . S
O365 Co340 1.967 . S
O365 C373 1.258 . S
O366 Co341 1.941 . S
O366 C373 1.266 . S
H367 C369 0.959 . S
H368 C369 0.961 . S
C369 C359 1.510 . S
C369 H367 0.959 . S
C369 H368 0.961 . S
C369 H370 0.960 . S
H370 C369 0.960 . S
H371 N351 0.862 . S
O372 Co340 1.920 . S
O372 C345 1.289 . S
C373 O365 1.258 . S
C373 O366 1.266 . S
Co374 O377 1.970 . S
Co374 N391 1.989 . S
Co374 O399 1.967 . S
Co374 O406 1.920 . S
Co375 O378 1.966 . S
Co375 N384 2.022 . S
Co375 N392 1.993 . S
Co375 O400 1.941 . S
C376 O377 1.258 . S
C376 O378 1.263 . S
O377 Co374 1.970 . S
O377 C376 1.258 . S
O378 Co375 1.966 . S
O378 C376 1.263 . S
C379 O380 1.235 . S
C379 O406 1.289 . S
O380 C379 1.235 . S
C381 C383 1.400 . S
C381 N384 1.351 . S
C381 C386 1.501 . S
C382 C383 1.387 . S
C382 N385 1.341 . S
C383 C381 1.400 . S
C383 C382 1.387 . S
N384 Co375 2.022 . S
N384 C381 1.351 . S
N384 N385 1.365 . S
N385 C382 1.341 . S
N385 N384 1.365 . S
N385 H405 0.862 . S
C386 C381 1.501 . S
C386 H387 0.961 . S
C386 H388 0.961 . S
C386 H389 0.960 . S
H387 C386 0.961 . S
H388 C386 0.961 . S
H389 C386 0.960 . S
C390 N391 1.342 . S
C390 C394 1.401 . S
C390 C395 1.499 . S
N391 Co374 1.989 . S
N391 C390 1.342 . S
N391 N392 1.388 . S
N392 Co375 1.993 . S
N392 N391 1.388 . S
N392 C393 1.346 . S
C393 N392 1.346 . S
C393 C394 1.396 . S
C393 C403 1.510 . S
C394 C390 1.401 . S
C394 C393 1.396 . S
C395 C390 1.499 . S
C395 H396 0.959 . S
C395 H397 0.960 . S
C395 H398 0.961 . S
H396 C395 0.959 . S
H397 C395 0.960 . S
H398 C395 0.961 . S
O399 Co374 1.967 . S
O399 C407 1.258 . S
O400 Co375 1.941 . S
O400 C407 1.266 . S
H401 C403 0.959 . S
H402 C403 0.961 . S
C403 C393 1.510 . S
C403 H401 0.959 . S
C403 H402 0.961 . S
C403 H404 0.960 . S
H404 C403 0.960 . S
H405 N385 0.862 . S
O406 Co374 1.920 . S
O406 C379 1.289 . S
C407 O399 1.258 . S
C407 O400 1.266 . S
C408 C409 1.363 1_556 S
C408 C414 1.379 1_545 S
C408 N416 1.356 . S
C409 C408 1.363 1_554 S
C409 C415 1.363 . S
C410 C411 1.363 . S
C410 C415 1.379 1_565 S
C410 N417 1.356 . S
C411 C410 1.363 . S
C411 C414 1.363 1_554 S
N412 C414 1.356 . S
N412 H424 0.984 . S
N412 H425 0.985 . S
N413 C415 1.356 . S
N413 H418 0.984 . S
N413 H419 0.985 . S
C414 C408 1.379 1_565 S
C414 C411 1.363 1_556 S
C414 N412 1.356 . S
C415 C409 1.363 . S
C415 C410 1.379 1_545 S
C415 N413 1.356 . S
N416 C408 1.356 . S
N416 H422 0.984 . S
N416 H423 0.984 . S
N417 C410 1.356 . S
N417 H420 0.984 . S
N417 H421 0.985 . S
H418 N413 0.984 . S
H419 N413 0.985 . S
H420 N417 0.984 . S
H421 N417 0.985 . S
H422 N416 0.984 . S
H423 N416 0.984 . S
H424 N412 0.984 . S
H425 N412 0.985 . S
C426 C427 1.363 . S
C426 C432 1.379 . S
C426 N434 1.356 . S
C427 C426 1.363 . S
C427 C433 1.363 1_554 S
C428 C429 1.363 1_556 S
C428 C433 1.379 . S
C428 N435 1.356 . S
C429 C428 1.363 1_554 S
C429 C432 1.363 . S
N430 C432 1.356 . S
N430 H442 0.984 . S
N430 H443 0.985 . S
N431 C433 1.356 . S
N431 H436 0.984 . S
N431 H437 0.985 . S
C432 C426 1.379 . S
C432 C429 1.363 . S
C432 N430 1.356 . S
C433 C427 1.363 1_556 S
C433 C428 1.379 . S
C433 N431 1.356 . S
N434 C426 1.356 . S
N434 H440 0.984 . S
N434 H441 0.984 . S
N435 C428 1.356 . S
N435 H438 0.984 . S
N435 H439 0.985 . S
H436 N431 0.984 . S
H437 N431 0.985 . S
H438 N435 0.984 . S
H439 N435 0.985 . S
H440 N434 0.984 . S
H441 N434 0.984 . S
H442 N430 0.984 . S
H443 N430 0.985 . S
C444 C445 1.363 . S
C444 C450 1.379 1_455 S
C444 N452 1.356 . S
C445 C444 1.363 . S
C445 C451 1.363 1_554 S
C446 C447 1.363 1_556 S
C446 C451 1.379 1_655 S
C446 N453 1.356 . S
C447 C446 1.363 1_554 S
C447 C450 1.363 . S
N448 C450 1.356 . S
N448 H460 0.984 . S
N448 H461 0.985 . S
N449 C451 1.356 . S
N449 H454 0.984 . S
N449 H455 0.985 . S
C450 C444 1.379 1_655 S
C450 C447 1.363 . S
C450 N448 1.356 . S
C451 C445 1.363 1_556 S
C451 C446 1.379 1_455 S
C451 N449 1.356 . S
N452 C444 1.356 . S
N452 H458 0.984 . S
N452 H459 0.984 . S
N453 C446 1.356 . S
N453 H456 0.984 . S
N453 H457 0.985 . S
H454 N449 0.984 . S
H455 N449 0.985 . S
H456 N453 0.984 . S
H457 N453 0.985 . S
H458 N452 0.984 . S
H459 N452 0.984 . S
H460 N448 0.984 . S
H461 N448 0.985 . S
C462 C463 1.363 . S
C462 C468 1.379 . S
C462 N470 1.356 . S
C463 C462 1.363 . S
C463 C469 1.363 . S
C464 C465 1.363 1_455 S
C464 C469 1.379 . S
C464 N471 1.356 1_455 S
C465 C464 1.363 1_655 S
C465 C468 1.363 1_655 S
N466 C468 1.356 1_655 S
N466 H478 0.984 . S
N466 H479 0.985 . S
N467 C469 1.356 . S
N467 H472 0.984 . S
N467 H473 0.985 . S
C468 C462 1.379 . S
C468 C465 1.363 1_455 S
C468 N466 1.356 1_455 S
C469 C463 1.363 . S
C469 C464 1.379 . S
C469 N467 1.356 . S
N470 C462 1.356 . S
N470 H476 0.984 . S
N470 H477 0.984 . S
N471 C464 1.356 1_655 S
N471 H474 0.984 . S
N471 H475 0.985 . S
H472 N467 0.984 . S
H473 N467 0.985 . S
H474 N471 0.984 . S
H475 N471 0.985 . S
H476 N470 0.984 . S
H477 N470 0.984 . S
H478 N466 0.984 . S
H479 N466 0.985 . S
C480 C481 1.363 1_565 S
C480 C486 1.379 . S
C480 N488 1.356 1_565 S
C481 C480 1.363 1_545 S
C481 C487 1.363 1_545 S
C482 C483 1.363 . S
C482 C487 1.379 . S
C482 N489 1.356 . S
C483 C482 1.363 . S
C483 C486 1.363 . S
N484 C486 1.356 . S
N484 H496 0.984 . S
N484 H497 0.985 . S
N485 C487 1.356 1_545 S
N485 H490 0.984 . S
N485 H491 0.985 . S
C486 C480 1.379 . S
C486 C483 1.363 . S
C486 N484 1.356 . S
C487 C481 1.363 1_565 S
C487 C482 1.379 . S
C487 N485 1.356 1_565 S
N488 C480 1.356 1_545 S
N488 H494 0.984 . S
N488 H495 0.984 . S
N489 C482 1.356 . S
N489 H492 0.984 . S
N489 H493 0.985 . S
H490 N485 0.984 . S
H491 N485 0.985 . S
H492 N489 0.984 . S
H493 N489 0.985 . S
H494 N488 0.984 . S
H495 N488 0.984 . S
H496 N484 0.984 . S
H497 N484 0.985 . S
C498 C499 1.363 . S
C498 C504 1.379 . S
C498 N506 1.356 . S
C499 C498 1.363 . S
C499 C505 1.363 . S
C500 C501 1.363 . S
C500 C505 1.379 . S
C500 N507 1.356 . S
C501 C500 1.363 . S
C501 C504 1.363 . S
N502 C504 1.356 . S
N502 H514 0.984 . S
N502 H515 0.985 . S
N503 C505 1.356 . S
N503 H508 0.984 . S
N503 H509 0.985 . S
C504 C498 1.379 . S
C504 C501 1.363 . S
C504 N502 1.356 . S
C505 C499 1.363 . S
C505 C500 1.379 . S
C505 N503 1.356 . S
N506 C498 1.356 . S
N506 H512 0.984 . S
N506 H513 0.984 . S
N507 C500 1.356 . S
N507 H510 0.984 . S
N507 H511 0.985 . S
H508 N503 0.984 . S
H509 N503 0.985 . S
H510 N507 0.984 . S
H511 N507 0.985 . S
H512 N506 0.984 . S
H513 N506 0.984 . S
H514 N502 0.984 . S
H515 N502 0.985 . S
C516 C517 1.363 1_566 S
C516 C522 1.379 . S
C516 N524 1.356 1_565 S
C517 C516 1.363 1_544 S
C517 C523 1.363 1_545 S
C518 C519 1.363 . S
C518 C523 1.379 . S
C518 N525 1.356 . S
C519 C518 1.363 . S
C519 C522 1.363 1_554 S
N520 C522 1.356 . S
N520 H532 0.984 . S
N520 H533 0.985 . S
N521 C523 1.356 1_545 S
N521 H526 0.984 . S
N521 H527 0.985 . S
C522 C516 1.379 . S
C522 C519 1.363 1_556 S
C522 N520 1.356 . S
C523 C517 1.363 1_565 S
C523 C518 1.379 . S
C523 N521 1.356 1_565 S
N524 C516 1.356 1_545 S
N524 H530 0.984 1_545 S
N524 H531 0.984 . S
N525 C518 1.356 . S
N525 H528 0.984 . S
N525 H529 0.985 . S
H526 N521 0.984 . S
H527 N521 0.985 . S
H528 N525 0.984 . S
H529 N525 0.985 . S
H530 N524 0.984 1_565 S
H531 N524 0.984 . S
H532 N520 0.984 . S
H533 N520 0.985 . S
C534 C535 1.363 . S
C534 C540 1.379 . S
C534 N542 1.356 . S
C535 C534 1.363 . S
C535 C541 1.363 . S
C536 C537 1.363 . S
C536 C541 1.379 . S
C536 N543 1.356 . S
C537 C536 1.363 . S
C537 C540 1.363 . S
N538 C540 1.356 . S
N538 H550 0.984 . S
N538 H551 0.985 . S
N539 C541 1.356 1_556 S
N539 H544 0.984 . S
N539 H545 0.985 . S
C540 C534 1.379 . S
C540 C537 1.363 . S
C540 N538 1.356 . S
C541 C535 1.363 . S
C541 C536 1.379 . S
C541 N539 1.356 1_554 S
N542 C534 1.356 . S
N542 H548 0.984 . S
N542 H549 0.984 . S
N543 C536 1.356 . S
N543 H546 0.984 . S
N543 H547 0.985 . S
H544 N539 0.984 . S
H545 N539 0.985 . S
H546 N543 0.984 . S
H547 N543 0.985 . S
H548 N542 0.984 . S
H549 N542 0.984 . S
H550 N538 0.984 . S
H551 N538 0.985 . S
C552 C553 1.363 1_455 S
C552 C558 1.379 . S
C552 N560 1.356 1_455 S
C553 C552 1.363 1_655 S
C553 C559 1.363 1_654 S
C554 C555 1.363 1_556 S
C554 C559 1.379 . S
C554 N561 1.356 . S
C555 C554 1.363 1_554 S
C555 C558 1.363 . S
N556 C558 1.356 . S
N556 H568 0.984 . S
N556 H569 0.985 . S
N557 C559 1.356 1_655 S
N557 H562 0.984 . S
N557 H563 0.985 1_655 S
C558 C552 1.379 . S
C558 C555 1.363 . S
C558 N556 1.356 . S
C559 C553 1.363 1_456 S
C559 C554 1.379 . S
C559 N557 1.356 1_455 S
N560 C552 1.356 1_655 S
N560 H566 0.984 . S
N560 H567 0.984 . S
N561 C554 1.356 . S
N561 H564 0.984 . S
N561 H565 0.985 . S
H562 N557 0.984 . S
H563 N557 0.985 1_455 S
H564 N561 0.984 . S
H565 N561 0.985 . S
H566 N560 0.984 . S
H567 N560 0.984 . S
H568 N556 0.984 . S
H569 N556 0.985 . S
C570 C571 1.363 . S
C570 C576 1.379 . S
C570 N578 1.356 . S
C571 C570 1.363 . S
C571 C577 1.363 1_554 S
C572 C573 1.363 1_556 S
C572 C577 1.379 . S
C572 N579 1.356 1_545 S
C573 C572 1.363 1_554 S
C573 C576 1.363 . S
N574 C576 1.356 . S
N574 H586 0.984 . S
N574 H587 0.985 1_545 S
N575 C577 1.356 . S
N575 H580 0.984 . S
N575 H581 0.985 . S
C576 C570 1.379 . S
C576 C573 1.363 . S
C576 N574 1.356 . S
C577 C571 1.363 1_556 S
C577 C572 1.379 . S
C577 N575 1.356 . S
N578 C570 1.356 . S
N578 H584 0.984 . S
N578 H585 0.984 . S
N579 C572 1.356 1_565 S
N579 H582 0.984 . S
N579 H583 0.985 . S
H580 N575 0.984 . S
H581 N575 0.985 . S
H582 N579 0.984 . S
H583 N579 0.985 . S
H584 N578 0.984 . S
H585 N578 0.984 . S
H586 N574 0.984 . S
H587 N574 0.985 1_565 S
C588 C589 1.363 1_556 S
C588 C594 1.379 . S
C588 N596 1.356 . S
C589 C588 1.363 1_554 S
C589 C595 1.363 . S
C590 C591 1.363 . S
C590 C595 1.379 . S
C590 N597 1.356 . S
C591 C590 1.363 . S
C591 C594 1.363 1_554 S
N592 C594 1.356 . S
N592 H604 0.984 . S
N592 H605 0.985 . S
N593 C595 1.356 . S
N593 H598 0.984 . S
N593 H599 0.985 . S
C594 C588 1.379 . S
C594 C591 1.363 1_556 S
C594 N592 1.356 . S
C595 C589 1.363 . S
C595 C590 1.379 . S
C595 N593 1.356 . S
N596 C588 1.356 . S
N596 H602 0.984 . S
N596 H603 0.984 . S
N597 C590 1.356 . S
N597 H600 0.984 . S
N597 H601 0.985 . S
H598 N593 0.984 . S
H599 N593 0.985 . S
H600 N597 0.984 . S
H601 N597 0.985 . S
H602 N596 0.984 . S
H603 N596 0.984 . S
H604 N592 0.984 . S
H605 N592 0.985 . S
C606 C607 1.363 . S
C606 C612 1.379 . S
C606 N614 1.356 . S
C607 C606 1.363 . S
C607 C613 1.363 1_554 S
C608 C609 1.363 1_556 S
C608 C613 1.379 . S
C608 N615 1.356 1_655 S
C609 C608 1.363 1_554 S
C609 C612 1.363 . S
N610 C612 1.356 . S
N610 H622 0.984 . S
N610 H623 0.985 1_655 S
N611 C613 1.356 . S
N611 H616 0.984 . S
N611 H617 0.985 . S
C612 C606 1.379 . S
C612 C609 1.363 . S
C612 N610 1.356 . S
C613 C607 1.363 1_556 S
C613 C608 1.379 . S
C613 N611 1.356 . S
N614 C606 1.356 . S
N614 H620 0.984 . S
N614 H621 0.984 . S
N615 C608 1.356 1_455 S
N615 H618 0.984 . S
N615 H619 0.985 . S
H616 N611 0.984 . S
H617 N611 0.985 . S
H618 N615 0.984 . S
H619 N615 0.985 . S
H620 N614 0.984 . S
H621 N614 0.984 . S
H622 N610 0.984 . S
H623 N610 0.985 1_455 S
C624 C625 1.363 . S
C624 C630 1.379 . S
C624 N632 1.356 . S
C625 C624 1.363 . S
C625 C631 1.363 . S
C626 C627 1.363 . S
C626 C631 1.379 1_655 S
C626 N633 1.356 . S
C627 C626 1.363 . S
C627 C630 1.363 1_655 S
N628 C630 1.356 1_655 S
N628 H640 0.984 1_655 S
N628 H641 0.985 . S
N629 C631 1.356 . S
N629 H634 0.984 . S
N629 H635 0.985 . S
C630 C624 1.379 . S
C630 C627 1.363 1_455 S
C630 N628 1.356 1_455 S
C631 C625 1.363 . S
C631 C626 1.379 1_455 S
C631 N629 1.356 . S
N632 C624 1.356 . S
N632 H638 0.984 . S
N632 H639 0.984 . S
N633 C626 1.356 . S
N633 H636 0.984 . S
N633 H637 0.985 . S
H634 N629 0.984 . S
H635 N629 0.985 . S
H636 N633 0.984 . S
H637 N633 0.985 . S
H638 N632 0.984 . S
H639 N632 0.984 . S
H640 N628 0.984 1_455 S
H641 N628 0.985 . S
C642 C643 1.363 . S
C642 C648 1.379 1_545 S
C642 N650 1.356 . S
C643 C642 1.363 . S
C643 C649 1.374 . S
C644 C645 1.363 . S
C644 C649 1.369 1_565 S
C644 N651 1.356 . S
C645 C644 1.363 . S
C645 C648 1.363 . S
N646 C648 1.356 . S
N646 H658 0.984 . S
N646 H659 0.985 . S
N647 C649 1.359 . S
N647 H652 0.984 . S
N647 H653 0.985 . S
C648 C642 1.379 1_565 S
C648 C645 1.363 . S
C648 N646 1.356 . S
C649 C643 1.374 . S
C649 C644 1.369 1_545 S
C649 N647 1.359 . S
N650 C642 1.356 . S
N650 H656 0.984 . S
N650 H657 0.984 . S
N651 C644 1.356 . S
N651 H654 0.984 . S
N651 H655 0.985 . S
H652 N647 0.984 . S
H653 N647 0.985 . S
H654 N651 0.984 . S
H655 N651 0.985 . S
H656 N650 0.984 . S
H657 N650 0.984 . S
H658 N646 0.984 . S
H659 N646 0.985 . S
C660 C661 1.363 . S
C660 C666 1.379 . S
C660 N668 1.356 . S
C661 C660 1.363 . S
C661 C667 1.363 . S
C662 C663 1.363 . S
C662 C667 1.379 . S
C662 N669 1.356 . S
C663 C662 1.363 . S
C663 C666 1.363 . S
N664 C666 1.356 . S
N664 H676 0.984 . S
N664 H677 0.985 . S
N665 C667 1.356 . S
N665 H670 0.984 . S
N665 H671 0.985 . S
C666 C660 1.379 . S
C666 C663 1.363 . S
C666 N664 1.356 . S
C667 C661 1.363 . S
C667 C662 1.379 . S
C667 N665 1.356 . S
N668 C660 1.356 . S
N668 H674 0.984 . S
N668 H675 0.984 . S
N669 C662 1.356 . S
N669 H672 0.984 . S
N669 H673 0.985 . S
H670 N665 0.984 . S
H671 N665 0.985 . S
H672 N669 0.984 . S
H673 N669 0.985 . S
H674 N668 0.984 . S
H675 N668 0.984 . S
H676 N664 0.984 . S
H677 N664 0.985 . S
C678 C679 1.363 . S
C678 C684 1.379 1_455 S
C678 N686 1.356 . S
C679 C678 1.363 . S
C679 C685 1.363 . S
C680 C681 1.363 . S
C680 C685 1.379 1_655 S
C680 N687 1.356 . S
C681 C680 1.363 . S
C681 C684 1.363 . S
N682 C684 1.356 . S
N682 H694 0.984 . S
N682 H695 0.985 . S
N683 C685 1.356 . S
N683 H688 0.984 . S
N683 H689 0.985 . S
C684 C678 1.379 1_655 S
C684 C681 1.363 . S
C684 N682 1.356 . S
C685 C679 1.363 . S
C685 C680 1.379 1_455 S
C685 N683 1.356 . S
N686 C678 1.356 . S
N686 H692 0.984 . S
N686 H693 0.984 . S
N687 C680 1.356 . S
N687 H690 0.984 . S
N687 H691 0.985 . S
H688 N683 0.984 . S
H689 N683 0.985 . S
H690 N687 0.984 . S
H691 N687 0.985 . S
H692 N686 0.984 . S
H693 N686 0.984 . S
H694 N682 0.984 . S
H695 N682 0.985 . S
C696 C697 1.363 1_565 S
C696 C702 1.379 . S
C696 N704 1.356 1_565 S
C697 C696 1.363 1_545 S
C697 C703 1.363 . S
C698 C699 1.363 . S
C698 C703 1.379 1_565 S
C698 N705 1.356 . S
C699 C698 1.363 . S
C699 C702 1.363 . S
N700 C702 1.356 . S
N700 H712 0.984 . S
N700 H713 0.985 . S
N701 C703 1.356 . S
N701 H706 0.984 . S
N701 H707 0.985 . S
C702 C696 1.379 . S
C702 C699 1.363 . S
C702 N700 1.356 . S
C703 C697 1.363 . S
C703 C698 1.379 1_545 S
C703 N701 1.356 . S
N704 C696 1.356 1_545 S
N704 H710 0.984 1_545 S
N704 H711 0.984 . S
N705 C698 1.356 . S
N705 H708 0.984 . S
N705 H709 0.985 . S
H706 N701 0.984 . S
H707 N701 0.985 . S
H708 N705 0.984 . S
H709 N705 0.985 . S
H710 N704 0.984 1_565 S
H711 N704 0.984 . S
H712 N700 0.984 . S
H713 N700 0.985 . S
C714 C715 1.363 . S
C714 C720 1.379 . S
C714 N722 1.356 . S
C715 C714 1.363 . S
C715 C721 1.363 . S
C716 C717 1.363 . S
C716 C721 1.379 . S
C716 N723 1.356 . S
C717 C716 1.363 . S
C717 C720 1.363 . S
N718 C720 1.356 . S
N718 H730 0.984 . S
N718 H731 0.985 . S
N719 C721 1.356 . S
N719 H724 0.984 . S
N719 H725 0.985 . S
C720 C714 1.379 . S
C720 C717 1.363 . S
C720 N718 1.356 . S
C721 C715 1.363 . S
C721 C716 1.379 . S
C721 N719 1.356 . S
N722 C714 1.356 . S
N722 H728 0.984 . S
N722 H729 0.984 . S
N723 C716 1.356 . S
N723 H726 0.984 . S
N723 H727 0.985 . S
H724 N719 0.984 . S
H725 N719 0.985 . S
H726 N723 0.984 . S
H727 N723 0.985 . S
H728 N722 0.984 . S
H729 N722 0.984 . S
H730 N718 0.984 . S
H731 N718 0.985 . S
C732 C733 1.363 . S
C732 C738 1.379 . S
C732 N740 1.356 . S
C733 C732 1.363 . S
C733 C739 1.363 . S
C734 C735 1.363 . S
C734 C739 1.379 . S
C734 N741 1.356 . S
C735 C734 1.363 . S
C735 C738 1.363 . S
N736 C738 1.356 . S
N736 H748 0.984 . S
N736 H749 0.985 . S
N737 C739 1.356 . S
N737 H742 0.984 . S
N737 H743 0.985 . S
C738 C732 1.379 . S
C738 C735 1.363 . S
C738 N736 1.356 . S
C739 C733 1.363 . S
C739 C734 1.379 . S
C739 N737 1.356 . S
N740 C732 1.356 . S
N740 H746 0.984 . S
N740 H747 0.984 . S
N741 C734 1.356 . S
N741 H744 0.984 . S
N741 H745 0.985 . S
H742 N737 0.984 . S
H743 N737 0.985 . S
H744 N741 0.984 . S
H745 N741 0.985 . S
H746 N740 0.984 . S
H747 N740 0.984 . S
H748 N736 0.984 . S
H749 N736 0.985 . S
C750 C751 1.363 . S
C750 C756 1.379 . S
C750 N758 1.356 . S
C751 C750 1.363 . S
C751 C757 1.363 . S
C752 C753 1.363 . S
C752 C757 1.379 . S
C752 N759 1.356 . S
C753 C752 1.363 . S
C753 C756 1.363 . S
N754 C756 1.356 . S
N754 H766 0.984 . S
N754 H767 0.985 . S
N755 C757 1.356 . S
N755 H760 0.984 . S
N755 H761 0.985 . S
C756 C750 1.379 . S
C756 C753 1.363 . S
C756 N754 1.356 . S
C757 C751 1.363 . S
C757 C752 1.379 . S
C757 N755 1.356 . S
N758 C750 1.356 . S
N758 H764 0.984 . S
N758 H765 0.984 . S
N759 C752 1.356 . S
N759 H762 0.984 . S
N759 H763 0.985 . S
H760 N755 0.984 . S
H761 N755 0.985 . S
H762 N759 0.984 . S
H763 N759 0.985 . S
H764 N758 0.984 . S
H765 N758 0.984 . S
H766 N754 0.984 . S
H767 N754 0.985 . S
C768 C769 1.363 . S
C768 C774 1.379 . S
C768 N776 1.356 . S
C769 C768 1.363 . S
C769 C775 1.363 . S
C770 C771 1.363 . S
C770 C775 1.379 . S
C770 N777 1.356 . S
C771 C770 1.363 . S
C771 C774 1.363 . S
N772 C774 1.356 . S
N772 H784 0.984 . S
N772 H785 0.985 . S
N773 C775 1.356 . S
N773 H778 0.984 . S
N773 H779 0.985 . S
C774 C768 1.379 . S
C774 C771 1.363 . S
C774 N772 1.356 . S
C775 C769 1.363 . S
C775 C770 1.379 . S
C775 N773 1.356 . S
N776 C768 1.356 . S
N776 H782 0.984 . S
N776 H783 0.984 . S
N777 C770 1.356 . S
N777 H780 0.984 . S
N777 H781 0.985 . S
H778 N773 0.984 . S
H779 N773 0.985 . S
H780 N777 0.984 . S
H781 N777 0.985 . S
H782 N776 0.984 . S
H783 N776 0.984 . S
H784 N772 0.984 . S
H785 N772 0.985 . S
C786 C787 1.363 . S
C786 C792 1.379 . S
C786 N794 1.356 . S
C787 C786 1.363 . S
C787 C793 1.363 . S
C788 C789 1.363 . S
C788 C793 1.379 . S
C788 N795 1.356 . S
C789 C788 1.363 . S
C789 C792 1.363 . S
N790 C792 1.356 . S
N790 H802 0.984 . S
N790 H803 0.985 . S
N791 C793 1.356 . S
N791 H796 0.984 . S
N791 H797 0.985 . S
C792 C786 1.379 . S
C792 C789 1.363 . S
C792 N790 1.356 . S
C793 C787 1.363 . S
C793 C788 1.379 . S
C793 N791 1.356 . S
N794 C786 1.356 . S
N794 H800 0.984 . S
N794 H801 0.984 . S
N795 C788 1.356 . S
N795 H798 0.984 . S
N795 H799 0.985 . S
H796 N791 0.984 . S
H797 N791 0.985 . S
H798 N795 0.984 . S
H799 N795 0.985 . S
H800 N794 0.984 . S
H801 N794 0.984 . S
H802 N790 0.984 . S
H803 N790 0.985 . S
C804 C805 1.363 . S
C804 C810 1.379 . S
C804 N812 1.356 . S
C805 C804 1.363 . S
C805 C811 1.363 . S
C806 C807 1.363 . S
C806 C811 1.379 . S
C806 N813 1.356 . S
C807 C806 1.363 . S
C807 C810 1.363 . S
N808 C810 1.356 . S
N808 H820 0.984 . S
N808 H821 0.985 . S
N809 C811 1.356 . S
N809 H814 0.984 . S
N809 H815 0.985 . S
C810 C804 1.379 . S
C810 C807 1.363 . S
C810 N808 1.356 . S
C811 C805 1.363 . S
C811 C806 1.379 . S
C811 N809 1.356 . S
N812 C804 1.356 . S
N812 H818 0.984 . S
N812 H819 0.984 . S
N813 C806 1.356 . S
N813 H816 0.984 . S
N813 H817 0.985 . S
H814 N809 0.984 . S
H815 N809 0.985 . S
H816 N813 0.984 . S
H817 N813 0.985 . S
H818 N812 0.984 . S
H819 N812 0.984 . S
H820 N808 0.984 . S
H821 N808 0.985 . S
C822 C823 1.363 . S
C822 C828 1.379 . S
C822 N830 1.356 . S
C823 C822 1.363 . S
C823 C829 1.363 . S
C824 C825 1.363 . S
C824 C829 1.379 . S
C824 N831 1.356 . S
C825 C824 1.363 . S
C825 C828 1.363 . S
N826 C828 1.356 . S
N826 H838 0.984 . S
N826 H839 0.985 . S
N827 C829 1.356 . S
N827 H832 0.984 . S
N827 H833 0.985 . S
C828 C822 1.379 . S
C828 C825 1.363 . S
C828 N826 1.356 . S
C829 C823 1.363 . S
C829 C824 1.379 . S
C829 N827 1.356 . S
N830 C822 1.356 . S
N830 H836 0.984 . S
N830 H837 0.984 . S
N831 C824 1.356 . S
N831 H834 0.984 . S
N831 H835 0.985 . S
H832 N827 0.984 . S
H833 N827 0.985 . S
H834 N831 0.984 . S
H835 N831 0.985 . S
H836 N830 0.984 . S
H837 N830 0.984 . S
H838 N826 0.984 . S
H839 N826 0.985 . S
C840 C841 1.363 . S
C840 C846 1.379 . S
C840 N848 1.356 . S
C841 C840 1.363 . S
C841 C847 1.363 . S
C842 C843 1.363 . S
C842 C847 1.379 . S
C842 N849 1.356 . S
C843 C842 1.363 . S
C843 C846 1.363 . S
N844 C846 1.356 . S
N844 H856 0.984 . S
N844 H857 0.985 . S
N845 C847 1.356 . S
N845 H850 0.984 . S
N845 H851 0.985 . S
C846 C840 1.379 . S
C846 C843 1.363 . S
C846 N844 1.356 . S
C847 C841 1.363 . S
C847 C842 1.379 . S
C847 N845 1.356 . S
N848 C840 1.356 . S
N848 H854 0.984 . S
N848 H855 0.984 . S
N849 C842 1.356 . S
N849 H852 0.984 . S
N849 H853 0.985 . S
H850 N845 0.984 . S
H851 N845 0.985 . S
H852 N849 0.984 . S
H853 N849 0.985 . S
H854 N848 0.984 . S
H855 N848 0.984 . S
H856 N844 0.984 . S
H857 N844 0.985 . S
C858 C859 1.363 . S
C858 C864 1.379 . S
C858 N866 1.356 . S
C859 C858 1.363 . S
C859 C865 1.363 . S
C860 C861 1.363 . S
C860 C865 1.379 . S
C860 N867 1.356 . S
C861 C860 1.363 . S
C861 C864 1.363 . S
N862 C864 1.356 . S
N862 H874 0.984 . S
N862 H875 0.985 . S
N863 C865 1.356 . S
N863 H868 0.984 . S
N863 H869 0.985 . S
C864 C858 1.379 . S
C864 C861 1.363 . S
C864 N862 1.356 . S
C865 C859 1.363 . S
C865 C860 1.379 . S
C865 N863 1.356 . S
N866 C858 1.356 . S
N866 H872 0.984 . S
N866 H873 0.984 . S
N867 C860 1.356 . S
N867 H870 0.984 . S
N867 H871 0.985 . S
H868 N863 0.984 . S
H869 N863 0.985 . S
H870 N867 0.984 . S
H871 N867 0.985 . S
H872 N866 0.984 . S
H873 N866 0.984 . S
H874 N862 0.984 . S
H875 N862 0.985 . S
C876 C877 1.363 . S
C876 C882 1.379 . S
C876 N884 1.356 . S
C877 C876 1.363 . S
C877 C883 1.363 . S
C878 C879 1.363 . S
C878 C883 1.379 . S
C878 N885 1.356 . S
C879 C878 1.363 . S
C879 C882 1.363 . S
N880 C882 1.356 . S
N880 H892 0.984 . S
N880 H893 0.985 . S
N881 C883 1.356 . S
N881 H886 0.984 . S
N881 H887 0.985 . S
C882 C876 1.379 . S
C882 C879 1.363 . S
C882 N880 1.356 . S
C883 C877 1.363 . S
C883 C878 1.379 . S
C883 N881 1.356 . S
N884 C876 1.356 . S
N884 H890 0.984 . S
N884 H891 0.984 . S
N885 C878 1.356 . S
N885 H888 0.984 . S
N885 H889 0.985 . S
H886 N881 0.984 . S
H887 N881 0.985 . S
H888 N885 0.984 . S
H889 N885 0.985 . S
H890 N884 0.984 . S
H891 N884 0.984 . S
H892 N880 0.984 . S
H893 N880 0.985 . S
C894 C895 1.363 . S
C894 C900 1.379 . S
C894 N902 1.356 . S
C895 C894 1.363 . S
C895 C901 1.363 . S
C896 C897 1.363 . S
C896 C901 1.379 . S
C896 N903 1.356 . S
C897 C896 1.363 . S
C897 C900 1.363 . S
N898 C900 1.356 . S
N898 H910 0.984 . S
N898 H911 0.985 . S
N899 C901 1.356 . S
N899 H904 0.984 . S
N899 H905 0.985 . S
C900 C894 1.379 . S
C900 C897 1.363 . S
C900 N898 1.356 . S
C901 C895 1.363 . S
C901 C896 1.379 . S
C901 N899 1.356 . S
N902 C894 1.356 . S
N902 H908 0.984 . S
N902 H909 0.984 . S
N903 C896 1.356 . S
N903 H906 0.984 . S
N903 H907 0.985 . S
H904 N899 0.984 . S
H905 N899 0.985 . S
H906 N903 0.984 . S
H907 N903 0.985 . S
H908 N902 0.984 . S
H909 N902 0.984 . S
H910 N898 0.984 . S
H911 N898 0.985 . S
C912 C913 1.363 . S
C912 C918 1.379 . S
C912 N920 1.356 . S
C913 C912 1.363 . S
C913 C919 1.363 . S
C914 C915 1.363 . S
C914 C919 1.379 . S
C914 N921 1.356 . S
C915 C914 1.363 . S
C915 C918 1.363 . S
N916 C918 1.356 . S
N916 H928 0.984 . S
N916 H929 0.985 . S
N917 C919 1.356 . S
N917 H922 0.984 . S
N917 H923 0.985 . S
C918 C912 1.379 . S
C918 C915 1.363 . S
C918 N916 1.356 . S
C919 C913 1.363 . S
C919 C914 1.379 . S
C919 N917 1.356 . S
N920 C912 1.356 . S
N920 H926 0.984 . S
N920 H927 0.984 . S
N921 C914 1.356 . S
N921 H924 0.984 . S
N921 H925 0.985 . S
H922 N917 0.984 . S
H923 N917 0.985 . S
H924 N921 0.984 . S
H925 N921 0.985 . S
H926 N920 0.984 . S
H927 N920 0.984 . S
H928 N916 0.984 . S
H929 N916 0.985 . S
C930 C931 1.363 . S
C930 C936 1.379 . S
C930 N938 1.356 . S
C931 C930 1.363 . S
C931 C937 1.363 . S
C932 C933 1.363 . S
C932 C937 1.379 . S
C932 N939 1.356 . S
C933 C932 1.363 . S
C933 C936 1.363 . S
N934 C936 1.356 . S
N934 H946 0.984 . S
N934 H947 0.985 . S
N935 C937 1.356 . S
N935 H940 0.984 . S
N935 H941 0.985 . S
C936 C930 1.379 . S
C936 C933 1.363 . S
C936 N934 1.356 . S
C937 C931 1.363 . S
C937 C932 1.379 . S
C937 N935 1.356 . S
N938 C930 1.356 . S
N938 H944 0.984 . S
N938 H945 0.984 . S
N939 C932 1.356 . S
N939 H942 0.984 . S
N939 H943 0.985 . S
H940 N935 0.984 . S
H941 N935 0.985 . S
H942 N939 0.984 . S
H943 N939 0.985 . S
H944 N938 0.984 . S
H945 N938 0.984 . S
H946 N934 0.984 . S
H947 N934 0.985 . S
C409 C2 2.079 . S
C411 C104 2.086 . S
C427 C138 2.079 . S
C429 C36 2.086 . S
C445 C172 2.086 . S
C447 C70 2.079 . S
C463 C308 2.204 . S
C465 C209 2.407 . S
C481 C345 2.407 . S
C483 C240 2.204 . S
C499 C277 2.407 . S
C501 C376 2.204 . S
C517 C33 1.173 . S
C519 C190 1.189 . S
C535 C20 0.931 . S
C537 C67 0.912 . S
C553 C101 1.173 . S
C555 C54 1.189 . S
C571 C88 0.931 . S
C573 C135 0.912 1_545 S
C589 C122 1.189 . S
C591 C169 1.173 . S
C607 C156 0.930 . S
C609 C203 0.911 1_655 S
C625 C258 0.824 . S
C627 C237 0.819 . S
C643 C281 0.662 . S
C645 C271 0.619 . S
C661 C326 0.824 . S
C663 C305 0.819 . S
C679 C339 0.619 . S
C681 C349 0.662 . S
C697 C373 0.818 . S
C699 C394 0.824 . S
C715 C407 0.619 . S
C717 C213 0.662 . S
C733 C292 2.029 . S
C735 C5 1.992 . S
C751 C39 1.409 . S
C753 C311 1.419 . S
C769 C73 1.992 . S
C771 C360 2.029 . S
C787 C107 1.409 . S
C789 C379 1.419 . S
C805 C224 2.028 . S
C807 C141 1.992 . S
C823 C175 1.409 . S
C825 C243 1.419 . S
C841 C383 0.957 . S
C843 C111 0.969 . S
C859 C206 2.367 . S
C861 C145 2.258 . S
C877 C247 0.957 . S
C879 C179 0.969 . S
C895 C9 2.258 . S
C897 C274 2.367 . S
C913 C43 0.969 . S
C915 C315 0.957 . S
C931 C77 2.258 . S
C933 C342 2.367 . S
