# Generated by pormake.
# Topology zga, (5)-cn, num edge types: 1
# Building blocks:
#     Node 0, Type 0, BuildingBlock: XOMCOT_clean_sbu_1, # of connection points: 5
#     Node 1, Type 0, BuildingBlock: XOMCOT_clean_sbu_1, # of connection points: 5
#     Node 2, Type 0, BuildingBlock: XOMCOT_clean_sbu_1, # of connection points: 5
#     Node 3, Type 0, BuildingBlock: XOMCOT_clean_sbu_1, # of connection points: 5
#     Node 4, Type 0, BuildingBlock: XOMCOT_clean_sbu_1, # of connection points: 5
#     Node 5, Type 0, BuildingBlock: XOMCOT_clean_sbu_1, # of connection points: 5
#     Node 6, Type 0, BuildingBlock: XOMCOT_clean_sbu_1, # of connection points: 5
#     Node 7, Type 0, BuildingBlock: XOMCOT_clean_sbu_1, # of connection points: 5
#     Node 8, Type 0, BuildingBlock: XOMCOT_clean_sbu_1, # of connection points: 5
#     Node 9, Type 0, BuildingBlock: XOMCOT_clean_sbu_1, # of connection points: 5
#     Node 10, Type 0, BuildingBlock: XOMCOT_clean_sbu_1, # of connection points: 5
#     Node 11, Type 0, BuildingBlock: XOMCOT_clean_sbu_1, # of connection points: 5
#     Node 12, Type 0, BuildingBlock: XOMCOT_clean_sbu_1, # of connection points: 5
#     Node 13, Type 0, BuildingBlock: XOMCOT_clean_sbu_1, # of connection points: 5
#     Node 14, Type 0, BuildingBlock: XOMCOT_clean_sbu_1, # of connection points: 5
#     Node 15, Type 0, BuildingBlock: XOMCOT_clean_sbu_1, # of connection points: 5
#     Edge 16, Type (0, 0), BuildingBlock: EZIPEK_clean_linker_0, # of connection points: 2
#     Edge 17, Type (0, 0), BuildingBlock: EZIPEK_clean_linker_0, # of connection points: 2
#     Edge 18, Type (0, 0), BuildingBlock: EZIPEK_clean_linker_0, # of connection points: 2
#     Edge 19, Type (0, 0), BuildingBlock: EZIPEK_clean_linker_0, # of connection points: 2
#     Edge 20, Type (0, 0), BuildingBlock: EZIPEK_clean_linker_0, # of connection points: 2
#     Edge 21, Type (0, 0), BuildingBlock: EZIPEK_clean_linker_0, # of connection points: 2
#     Edge 22, Type (0, 0), BuildingBlock: EZIPEK_clean_linker_0, # of connection points: 2
#     Edge 23, Type (0, 0), BuildingBlock: EZIPEK_clean_linker_0, # of connection points: 2
#     Edge 24, Type (0, 0), BuildingBlock: EZIPEK_clean_linker_0, # of connection points: 2
#     Edge 25, Type (0, 0), BuildingBlock: EZIPEK_clean_linker_0, # of connection points: 2
#     Edge 26, Type (0, 0), BuildingBlock: EZIPEK_clean_linker_0, # of connection points: 2
#     Edge 27, Type (0, 0), BuildingBlock: EZIPEK_clean_linker_0, # of connection points: 2
#     Edge 28, Type (0, 0), BuildingBlock: EZIPEK_clean_linker_0, # of connection points: 2
#     Edge 29, Type (0, 0), BuildingBlock: EZIPEK_clean_linker_0, # of connection points: 2
#     Edge 30, Type (0, 0), BuildingBlock: EZIPEK_clean_linker_0, # of connection points: 2
#     Edge 31, Type (0, 0), BuildingBlock: EZIPEK_clean_linker_0, # of connection points: 2
#     Edge 32, Type (0, 0), BuildingBlock: EZIPEK_clean_linker_0, # of connection points: 2
#     Edge 33, Type (0, 0), BuildingBlock: EZIPEK_clean_linker_0, # of connection points: 2
#     Edge 34, Type (0, 0), BuildingBlock: EZIPEK_clean_linker_0, # of connection points: 2
#     Edge 35, Type (0, 0), BuildingBlock: EZIPEK_clean_linker_0, # of connection points: 2
#     Edge 36, Type (0, 0), BuildingBlock: EZIPEK_clean_linker_0, # of connection points: 2
#     Edge 37, Type (0, 0), BuildingBlock: EZIPEK_clean_linker_0, # of connection points: 2
#     Edge 38, Type (0, 0), BuildingBlock: EZIPEK_clean_linker_0, # of connection points: 2
#     Edge 39, Type (0, 0), BuildingBlock: EZIPEK_clean_linker_0, # of connection points: 2
#     Edge 40, Type (0, 0), BuildingBlock: EZIPEK_clean_linker_0, # of connection points: 2
#     Edge 41, Type (0, 0), BuildingBlock: EZIPEK_clean_linker_0, # of connection points: 2
#     Edge 42, Type (0, 0), BuildingBlock: EZIPEK_clean_linker_0, # of connection points: 2
#     Edge 43, Type (0, 0), BuildingBlock: EZIPEK_clean_linker_0, # of connection points: 2
#     Edge 44, Type (0, 0), BuildingBlock: EZIPEK_clean_linker_0, # of connection points: 2
#     Edge 45, Type (0, 0), BuildingBlock: EZIPEK_clean_linker_0, # of connection points: 2
#     Edge 46, Type (0, 0), BuildingBlock: EZIPEK_clean_linker_0, # of connection points: 2
#     Edge 47, Type (0, 0), BuildingBlock: EZIPEK_clean_linker_0, # of connection points: 2
#     Edge 48, Type (0, 0), BuildingBlock: EZIPEK_clean_linker_0, # of connection points: 2
#     Edge 49, Type (0, 0), BuildingBlock: EZIPEK_clean_linker_0, # of connection points: 2
#     Edge 50, Type (0, 0), BuildingBlock: EZIPEK_clean_linker_0, # of connection points: 2
#     Edge 51, Type (0, 0), BuildingBlock: EZIPEK_clean_linker_0, # of connection points: 2
#     Edge 52, Type (0, 0), BuildingBlock: EZIPEK_clean_linker_0, # of connection points: 2
#     Edge 53, Type (0, 0), BuildingBlock: EZIPEK_clean_linker_0, # of connection points: 2
#     Edge 54, Type (0, 0), BuildingBlock: EZIPEK_clean_linker_0, # of connection points: 2
#     Edge 55, Type (0, 0), BuildingBlock: EZIPEK_clean_linker_0, # of connection points: 2
# Relax obj value: 0.051
# Max RMSD: 0.095
# Mean RMSD: 0.095
data_MOF--net-zga--node1-XOMCOT_clean_sbu_1--edge1-EZIPEK_clean_linker_0
_symmetry_space_group_name_H-M    P1
_symmetry_Int_Tables_number       1
_symmetry_cell_setting            triclinic
loop_
_symmetry_equiv_pos_as_xyz
'x, y, z'
_cell_length_a     37.924473
_cell_length_b     79.508424
_cell_length_c     13.549309
_cell_angle_alpha  89.974337
_cell_angle_beta   89.935727
_cell_angle_gamma 93.448962
loop_
_atom_site_label
_atom_site_type_symbol
_atom_site_fract_x
_atom_site_fract_y
_atom_site_fract_z
_atom_type_partial_charge
C0 C 0.19178 0.54647 0.99802 0.0
C1 C 0.19522 0.54668 0.89675 0.0
N2 N 0.1695 0.53625 0.85863 0.0
N3 N 0.16418 0.53586 0.02391 0.0
C4 C 0.15137 0.52968 0.93688 0.0
H5 H 0.20725 0.5543 0.04918 0.0
Co6 Co 0.14597 0.53348 0.15356 0.0
C7 C 0.07012 0.52321 0.08929 0.0
O8 O 0.05869 0.53739 0.12284 0.0
N9 N 0.12866 0.53081 0.28641 0.0
C10 C 0.09637 0.52592 0.42295 0.0
C11 C 0.09597 0.5263 0.32148 0.0
C12 C 0.1485 0.53285 0.36961 0.0
N13 N 0.12943 0.53001 0.45289 0.0
O14 O 0.17242 0.51356 0.17131 0.0
H15 H 0.07281 0.52327 0.27822 0.0
H16 H 0.17634 0.53667 0.36964 0.0
O17 O 0.10293 0.52013 0.09969 0.0
C18 C 0.20356 0.51879 0.19903 0.0
O19 O 0.21076 0.53511 0.20646 0.0
N20 N 0.12581 0.55466 0.14027 0.0
C21 C 0.12486 0.58927 0.10566 0.0
C22 C 0.11182 0.57774 0.03462 0.0
C23 C 0.1125 0.56043 0.05346 0.0
C24 C 0.13697 0.56593 0.2114 0.0
C25 C 0.13618 0.58322 0.19625 0.0
H26 H 0.10523 0.5518 0.99473 0.0
H27 H 0.15006 0.56178 0.27668 0.0
H28 H 0.12788 0.52136 0.92989 0.0
H29 H 0.21377 0.55461 0.85407 0.0
H30 H 0.07412 0.52288 0.47123 0.0
H31 H 0.1033 0.58205 0.96314 0.0
H32 H 0.14696 0.59183 0.25205 0.0
C33 C 0.08417 0.70701 0.9901 0.0
C34 C 0.08088 0.70708 0.88887 0.0
N35 N 0.10916 0.71584 0.85114 0.0
N36 N 0.11421 0.71586 0.01643 0.0
C37 C 0.12883 0.72109 0.92945 0.0
H38 H 0.06664 0.70014 0.04081 0.0
Co39 Co 0.13196 0.71722 0.14678 0.0
C40 C 0.20829 0.7283 0.08002 0.0
O41 O 0.21886 0.71299 0.0908 0.0
N42 N 0.14907 0.71869 0.27938 0.0
C43 C 0.1832 0.71736 0.41315 0.0
C44 C 0.18236 0.7169 0.31168 0.0
C45 C 0.13006 0.71996 0.36383 0.0
N46 N 0.15025 0.71929 0.44554 0.0
O47 O 0.10588 0.73722 0.16893 0.0
H48 H 0.20436 0.71422 0.26574 0.0
H49 H 0.10171 0.7205 0.36655 0.0
O50 O 0.17588 0.73115 0.09994 0.0
C51 C 0.07476 0.73212 0.19785 0.0
O52 O 0.06728 0.71581 0.20475 0.0
N53 N 0.15115 0.69586 0.12958 0.0
C54 C 0.15093 0.66111 0.09759 0.0
C55 C 0.16434 0.67242 0.02558 0.0
C56 C 0.16416 0.68981 0.04295 0.0
C57 C 0.13897 0.68476 0.20071 0.0
C58 C 0.13931 0.66745 0.18709 0.0
H59 H 0.17226 0.69827 0.98382 0.0
H60 H 0.12567 0.68914 0.26535 0.0
H61 H 0.15473 0.72732 0.9223 0.0
H62 H 0.06048 0.70038 0.84596 0.0
H63 H 0.20583 0.71554 0.45976 0.0
H64 H 0.17303 0.66787 0.95478 0.0
H65 H 0.12811 0.65904 0.24341 0.0
C66 C 0.83747 0.45394 0.01632 0.0
C67 C 0.83418 0.45384 0.11759 0.0
N68 N 0.86 0.46428 0.15511 0.0
N69 N 0.8651 0.46449 0.9898 0.0
C70 C 0.87808 0.47074 0.07646 0.0
H71 H 0.82191 0.44607 0.96558 0.0
Co72 Co 0.88303 0.46667 0.85987 0.0
C73 C 0.95877 0.477 0.9275 0.0
O74 O 0.97012 0.46224 0.90419 0.0
N75 N 0.90023 0.46909 0.72722 0.0
C76 C 0.93377 0.4715 0.5915 0.0
C77 C 0.9338 0.47098 0.69296 0.0
C78 C 0.88034 0.46846 0.64375 0.0
N79 N 0.90014 0.46994 0.5609 0.0
O80 O 0.85677 0.48668 0.84216 0.0
H81 H 0.95731 0.47156 0.73706 0.0
H82 H 0.85192 0.46635 0.64311 0.0
O83 O 0.92627 0.48014 0.9117 0.0
C84 C 0.82529 0.48162 0.81653 0.0
O85 O 0.81762 0.46535 0.80908 0.0
N86 N 0.90284 0.44538 0.87315 0.0
C87 C 0.9034 0.41064 0.90408 0.0
C88 C 0.91611 0.42192 0.97687 0.0
C89 C 0.91556 0.43929 0.95996 0.0
C90 C 0.89184 0.43434 0.80059 0.0
C91 C 0.89247 0.417 0.81388 0.0
H92 H 0.92274 0.44772 0.01981 0.0
H93 H 0.87906 0.4387 0.73528 0.0
H94 H 0.90165 0.47902 0.0829 0.0
H95 H 0.8157 0.44595 0.16071 0.0
H96 H 0.95668 0.47251 0.54364 0.0
H97 H 0.9243 0.41736 0.04808 0.0
H98 H 0.88191 0.40859 0.75681 0.0
C99 C 0.94239 0.29481 0.01808 0.0
C100 C 0.94566 0.29484 0.11931 0.0
N101 N 0.91943 0.28464 0.15692 0.0
N102 N 0.91436 0.28452 0.99164 0.0
C103 C 0.90113 0.27835 0.07833 0.0
H104 H 0.95824 0.30257 0.96735 0.0
Co105 Co 0.89645 0.28256 0.86178 0.0
C106 C 0.82048 0.27246 0.92961 0.0
O107 O 0.80954 0.2874 0.90867 0.0
N108 N 0.8792 0.28037 0.72925 0.0
C109 C 0.84546 0.27872 0.59396 0.0
C110 C 0.84556 0.27924 0.6954 0.0
C111 C 0.89902 0.28061 0.64555 0.0
N112 N 0.87909 0.27956 0.56296 0.0
O113 O 0.92234 0.26245 0.84326 0.0
H114 H 0.82214 0.27927 0.73982 0.0
H115 H 0.92752 0.28217 0.64451 0.0
O116 O 0.85287 0.26918 0.91306 0.0
C117 C 0.95388 0.26741 0.81747 0.0
O118 O 0.9618 0.28367 0.81047 0.0
N119 N 0.87711 0.30396 0.87573 0.0
C120 C 0.87704 0.33872 0.90609 0.0
C121 C 0.86423 0.3275 0.97922 0.0
C122 C 0.86455 0.31011 0.96261 0.0
C123 C 0.88836 0.31495 0.80306 0.0
C124 C 0.88794 0.33229 0.81603 0.0
H125 H 0.85718 0.3017 0.02259 0.0
H126 H 0.90112 0.31052 0.73777 0.0
H127 H 0.87725 0.27029 0.08481 0.0
H128 H 0.96442 0.30256 0.16238 0.0
H129 H 0.82251 0.27826 0.54637 0.0
H130 H 0.85607 0.33211 0.05036 0.0
H131 H 0.8986 0.34065 0.75874 0.0
C132 C 0.19644 0.03869 0.52153 0.0
C133 C 0.19861 0.03786 0.42012 0.0
N134 N 0.16687 0.03224 0.38525 0.0
N135 N 0.16354 0.03346 0.55112 0.0
C136 C 0.14629 0.02953 0.46567 0.0
H137 H 0.21721 0.04366 0.56959 0.0
Co138 Co 0.14545 0.0343 0.68179 0.0
C139 C 0.06945 0.02207 0.63094 0.0
O140 O 0.05818 0.03693 0.65181 0.0
N141 N 0.12684 0.03494 0.81457 0.0
C142 C 0.09646 0.0424 0.94774 0.0
C143 C 0.09854 0.04306 0.84644 0.0
C144 C 0.14083 0.0291 0.89941 0.0
N145 N 0.12334 0.03374 0.98094 0.0
O146 O 0.17226 0.01509 0.71645 0.0
H147 H 0.08185 0.05029 0.80053 0.0
H148 H 0.16391 0.02193 0.9029 0.0
O149 O 0.10254 0.0197 0.64066 0.0
C150 C 0.20296 0.02112 0.74422 0.0
O151 O 0.20851 0.03757 0.7484 0.0
N152 N 0.1267 0.05511 0.65106 0.0
C153 C 0.12681 0.08919 0.60143 0.0
C154 C 0.10924 0.07698 0.54153 0.0
C155 C 0.10947 0.0599 0.56776 0.0
C156 C 0.14359 0.06703 0.70947 0.0
C157 C 0.14324 0.08406 0.68748 0.0
H158 H 0.09754 0.05065 0.51804 0.0
H159 H 0.1595 0.06324 0.77083 0.0
H160 H 0.11847 0.02585 0.46107 0.0
H161 H 0.22102 0.04207 0.37504 0.0
H162 H 0.07816 0.04878 0.99388 0.0
H163 H 0.09682 0.08056 0.47337 0.0
H164 H 0.15759 0.09314 0.73439 0.0
C165 C 0.08566 0.20517 0.48908 0.0
C166 C 0.08213 0.20524 0.38797 0.0
N167 N 0.10913 0.21492 0.35012 0.0
N168 N 0.11451 0.21493 0.51523 0.0
C169 C 0.12822 0.22073 0.42835 0.0
H170 H 0.06926 0.19771 0.53993 0.0
Co171 Co 0.13202 0.21648 0.64551 0.0
C172 C 0.2082 0.22796 0.58097 0.0
O173 O 0.21895 0.21268 0.59135 0.0
N174 N 0.14877 0.21817 0.77824 0.0
C175 C 0.18272 0.21725 0.91253 0.0
C176 C 0.18206 0.21662 0.81115 0.0
C177 C 0.12955 0.21946 0.86229 0.0
N178 N 0.14964 0.21903 0.94434 0.0
O179 O 0.10513 0.23625 0.66628 0.0
H180 H 0.20419 0.21394 0.76578 0.0
H181 H 0.10116 0.21984 0.8645 0.0
O182 O 0.17563 0.23067 0.59965 0.0
C183 C 0.07398 0.23094 0.69377 0.0
O184 O 0.06718 0.21462 0.7028 0.0
N185 N 0.1522 0.19533 0.6286 0.0
C186 C 0.15201 0.1607 0.59268 0.0
C187 C 0.1648 0.17225 0.52123 0.0
C188 C 0.16481 0.18955 0.54078 0.0
C189 C 0.141 0.18402 0.69969 0.0
C190 C 0.14143 0.16674 0.68409 0.0
H191 H 0.17246 0.1982 0.48216 0.0
H192 H 0.12825 0.18817 0.76579 0.0
H193 H 0.1532 0.22784 0.42125 0.0
H194 H 0.06265 0.19791 0.34514 0.0
H195 H 0.2053 0.21556 0.95955 0.0
H196 H 0.1728 0.16795 0.4492 0.0
H197 H 0.13083 0.15815 0.74031 0.0
C198 C 0.83381 0.95564 0.54701 0.0
C199 C 0.83039 0.95563 0.64826 0.0
N200 N 0.85844 0.96452 0.68614 0.0
N201 N 0.8637 0.96465 0.52087 0.0
C202 C 0.87811 0.96989 0.60795 0.0
H203 H 0.81644 0.94875 0.49609 0.0
Co204 Co 0.88147 0.96631 0.39051 0.0
C205 C 0.95762 0.97745 0.45702 0.0
O206 O 0.96859 0.96228 0.44346 0.0
N207 N 0.89853 0.96808 0.25771 0.0
C208 C 0.93252 0.96724 0.12314 0.0
C209 C 0.93191 0.96677 0.22462 0.0
C210 C 0.87926 0.96911 0.17364 0.0
N211 N 0.89935 0.96872 0.09147 0.0
O212 O 0.8554 0.98631 0.37006 0.0
H213 H 0.95424 0.96443 0.26992 0.0
H214 H 0.85083 0.96928 0.17157 0.0
O215 O 0.92512 0.98022 0.43829 0.0
C216 C 0.82429 0.98133 0.34092 0.0
O217 O 0.81665 0.96505 0.3331 0.0
N218 N 0.90094 0.945 0.40629 0.0
C219 C 0.90136 0.91024 0.43702 0.0
C220 C 0.91466 0.92151 0.50922 0.0
C221 C 0.91416 0.9389 0.49248 0.0
C222 C 0.8889 0.93395 0.33487 0.0
C223 C 0.88955 0.91662 0.34789 0.0
H224 H 0.92217 0.94733 0.55175 0.0
H225 H 0.87551 0.93836 0.27054 0.0
H226 H 0.90385 0.97625 0.61526 0.0
H227 H 0.81003 0.94885 0.69106 0.0
H228 H 0.95519 0.96575 0.07604 0.0
H229 H 0.9235 0.91692 0.57972 0.0
H230 H 0.87845 0.90824 0.29142 0.0
C231 C 0.94415 0.79605 0.54004 0.0
C232 C 0.94765 0.79632 0.64128 0.0
N233 N 0.92244 0.78564 0.67983 0.0
N234 N 0.91694 0.78518 0.51466 0.0
C235 C 0.90449 0.77888 0.60191 0.0
H236 H 0.95929 0.80397 0.4885 0.0
Co237 Co 0.8988 0.78249 0.38524 0.0
C238 C 0.82275 0.77236 0.44758 0.0
O239 O 0.81158 0.78614 0.40784 0.0
N240 N 0.88171 0.77947 0.25237 0.0
C241 C 0.85039 0.77332 0.1157 0.0
C242 C 0.84979 0.7737 0.21719 0.0
C243 C 0.90143 0.78209 0.1692 0.0
N244 N 0.8829 0.77858 0.08585 0.0
O245 O 0.92547 0.76265 0.36888 0.0
H246 H 0.82717 0.7696 0.26038 0.0
H247 H 0.92879 0.78677 0.16925 0.0
O248 O 0.8557 0.76928 0.44061 0.0
C249 C 0.95633 0.76801 0.33916 0.0
O250 O 0.96316 0.78435 0.33141 0.0
N251 N 0.8784 0.80365 0.39697 0.0
C252 C 0.87669 0.83826 0.43015 0.0
C253 C 0.86373 0.82675 0.50155 0.0
C254 C 0.86475 0.80943 0.48337 0.0
C255 C 0.88946 0.81489 0.32549 0.0
C256 C 0.88826 0.83218 0.33989 0.0
H257 H 0.8576 0.80081 0.54238 0.0
H258 H 0.90278 0.81076 0.26057 0.0
H259 H 0.88141 0.7703 0.6093 0.0
H260 H 0.96594 0.80441 0.68365 0.0
H261 H 0.82873 0.76938 0.06738 0.0
H262 H 0.85502 0.83108 0.5728 0.0
H263 H 0.89897 0.84077 0.28381 0.0
C264 C 0.69096 0.54678 0.50649 0.0
C265 C 0.69436 0.54696 0.40521 0.0
N266 N 0.66961 0.53596 0.36747 0.0
N267 N 0.66424 0.53567 0.53265 0.0
C268 C 0.65195 0.52915 0.44588 0.0
H269 H 0.70587 0.55485 0.55759 0.0
Co270 Co 0.6466 0.53283 0.66251 0.0
C271 C 0.57063 0.52305 0.59663 0.0
O272 O 0.55963 0.53747 0.6276 0.0
N273 N 0.6298 0.52965 0.7954 0.0
C274 C 0.59714 0.52559 0.93189 0.0
C275 C 0.59668 0.52623 0.83046 0.0
C276 C 0.64991 0.53085 0.87846 0.0
N277 N 0.63063 0.5285 0.96175 0.0
O278 O 0.67304 0.51287 0.67598 0.0
H279 H 0.57309 0.52454 0.78711 0.0
H280 H 0.67801 0.53405 0.87859 0.0
O281 O 0.60322 0.5197 0.60866 0.0
C282 C 0.70417 0.51815 0.7035 0.0
O283 O 0.7109 0.53445 0.71416 0.0
N284 N 0.62662 0.55416 0.65334 0.0
C285 C 0.62708 0.58899 0.62548 0.0
C286 C 0.61408 0.57798 0.55168 0.0
C287 C 0.61401 0.56055 0.56721 0.0
C288 C 0.63762 0.56494 0.72716 0.0
C289 C 0.63749 0.58232 0.71538 0.0
H290 H 0.60681 0.55229 0.50654 0.0
H291 H 0.6502 0.56036 0.79214 0.0
H292 H 0.62925 0.52033 0.43924 0.0
H293 H 0.71228 0.55516 0.36225 0.0
H294 H 0.57454 0.52356 0.98026 0.0
H295 H 0.60623 0.58277 0.4807 0.0
H296 H 0.64818 0.59052 0.77331 0.0
C297 C 0.58901 0.70346 0.53061 0.0
C298 C 0.58563 0.70303 0.42925 0.0
N299 N 0.61133 0.7134 0.39028 0.0
N300 N 0.61678 0.71401 0.55557 0.0
C301 C 0.62958 0.72005 0.468 0.0
H302 H 0.57344 0.69582 0.5826 0.0
Co303 Co 0.63511 0.71634 0.68501 0.0
C304 C 0.71082 0.7272 0.61936 0.0
O305 O 0.72278 0.7131 0.65247 0.0
N306 N 0.65257 0.7189 0.81766 0.0
C307 C 0.68393 0.72507 0.95421 0.0
C308 C 0.68444 0.72475 0.8526 0.0
C309 C 0.63333 0.71567 0.90096 0.0
N310 N 0.65169 0.71941 0.98424 0.0
O311 O 0.60838 0.73625 0.70321 0.0
H312 H 0.70708 0.72869 0.80898 0.0
H313 H 0.60656 0.71021 0.90098 0.0
O314 O 0.67789 0.72999 0.63046 0.0
C315 C 0.5772 0.73167 0.73418 0.0
O316 O 0.56927 0.71553 0.7481 0.0
N317 N 0.65549 0.69519 0.67106 0.0
C318 C 0.65645 0.66062 0.63464 0.0
C319 C 0.67005 0.67227 0.56482 0.0
C320 C 0.66932 0.68956 0.58456 0.0
C321 C 0.64386 0.68378 0.74102 0.0
C322 C 0.64467 0.66652 0.72505 0.0
H323 H 0.67679 0.69829 0.52657 0.0
H324 H 0.6302 0.68773 0.80563 0.0
H325 H 0.65316 0.72829 0.46028 0.0
H326 H 0.56702 0.69507 0.38718 0.0
H327 H 0.70553 0.72914 1.00243 0.0
H328 H 0.67892 0.66807 0.49343 0.0
H329 H 0.6334 0.65783 0.77986 0.0
C330 C 0.33803 0.45359 0.52068 0.0
C331 C 0.33455 0.45316 0.62197 0.0
N332 N 0.35862 0.46441 0.6605 0.0
N333 N 0.36417 0.46507 0.49542 0.0
C334 C 0.37596 0.4716 0.58264 0.0
H335 H 0.32358 0.44545 0.4689 0.0
Co336 Co 0.38184 0.46834 0.36596 0.0
C337 C 0.45793 0.47866 0.42376 0.0
O338 O 0.46913 0.46547 0.37752 0.0
N339 N 0.39833 0.47197 0.23275 0.0
C340 C 0.42815 0.47973 0.09573 0.0
C341 C 0.42896 0.47931 0.19721 0.0
C342 C 0.37899 0.46857 0.14981 0.0
N343 N 0.3967 0.47297 0.06627 0.0
O344 O 0.35468 0.48804 0.35347 0.0
H345 H 0.45067 0.48454 0.24021 0.0
H346 H 0.35248 0.46276 0.15014 0.0
O347 O 0.4248 0.48149 0.42155 0.0
C348 C 0.32404 0.48259 0.32294 0.0
O349 O 0.31805 0.46628 0.31053 0.0
N350 N 0.40296 0.44733 0.37468 0.0
C351 C 0.40563 0.41276 0.40722 0.0
C352 C 0.41888 0.4243 0.47799 0.0
C353 C 0.41739 0.4416 0.46008 0.0
C354 C 0.39174 0.43608 0.3036 0.0
C355 C 0.39342 0.41881 0.31765 0.0
H356 H 0.42455 0.45024 0.51897 0.0
H357 H 0.37784 0.44013 0.23969 0.0
H358 H 0.39808 0.48075 0.58995 0.0
H359 H 0.31698 0.44469 0.66433 0.0
H360 H 0.44889 0.48475 0.04718 0.0
H361 H 0.42804 0.41998 0.54878 0.0
H362 H 0.38246 0.4102 0.26215 0.0
C363 C 0.44556 0.29536 0.51765 0.0
C364 C 0.44899 0.29528 0.61879 0.0
N365 N 0.42118 0.28617 0.65663 0.0
N366 N 0.41592 0.28618 0.49149 0.0
C367 C 0.40166 0.28072 0.57842 0.0
H368 H 0.46268 0.30244 0.46682 0.0
Co369 Co 0.3984 0.28479 0.36116 0.0
C370 C 0.32177 0.274 0.42617 0.0
O371 O 0.31141 0.28935 0.416 0.0
N372 N 0.38159 0.28329 0.22855 0.0
C373 C 0.3477 0.28453 0.09434 0.0
C374 C 0.34837 0.28507 0.19575 0.0
C375 C 0.40077 0.28195 0.1445 0.0
N376 N 0.3807 0.28256 0.06249 0.0
O377 O 0.424 0.26463 0.3405 0.0
H378 H 0.32631 0.28781 0.24126 0.0
H379 H 0.42913 0.28139 0.14238 0.0
O380 O 0.35421 0.2711 0.40709 0.0
C381 C 0.45549 0.26941 0.31331 0.0
O382 O 0.46368 0.28565 0.30547 0.0
N383 N 0.37945 0.30621 0.37767 0.0
C384 C 0.37999 0.34092 0.41078 0.0
C385 C 0.3665 0.32957 0.48245 0.0
C386 C 0.3665 0.31221 0.46448 0.0
C387 C 0.39164 0.31733 0.30671 0.0
C388 C 0.39146 0.33465 0.32093 0.0
H389 H 0.35837 0.30371 0.52339 0.0
H390 H 0.40479 0.31297 0.24178 0.0
H391 H 0.3761 0.27412 0.58556 0.0
H392 H 0.4691 0.3022 0.66162 0.0
H393 H 0.32517 0.28635 0.04737 0.0
H394 H 0.3579 0.33407 0.55344 0.0
H395 H 0.40267 0.34309 0.26479 0.0
C396 C 0.69248 0.04814 1.01224 0.0
C397 C 0.69584 0.04872 0.91093 0.0
N398 N 0.67174 0.03751 0.87214 0.0
N399 N 0.66636 0.03663 0.03716 0.0
C400 C 0.65446 0.03023 0.94976 0.0
H401 H 0.70705 0.05616 0.06435 0.0
Co402 Co 0.64891 0.03312 0.16641 0.0
C403 C 0.57259 0.02255 0.11528 0.0
O404 O 0.56174 0.03479 0.17068 0.0
N405 N 0.63271 0.02924 0.29965 0.0
C406 C 0.60479 0.01973 0.4363 0.0
C407 C 0.60418 0.02001 0.3348 0.0
C408 C 0.6511 0.03365 0.38284 0.0
N409 N 0.63435 0.0283 0.46622 0.0
O410 O 0.67575 0.01334 0.17746 0.0
H411 H 0.58462 0.01308 0.29132 0.0
H412 H 0.67662 0.04049 0.38273 0.0
O413 O 0.6059 0.02024 0.11037 0.0
C414 C 0.70642 0.01851 0.20898 0.0
O415 O 0.71303 0.03477 0.22152 0.0
N416 N 0.62778 0.05411 0.15874 0.0
C417 C 0.6249 0.08861 0.12359 0.0
C418 C 0.61022 0.07688 0.05578 0.0
C419 C 0.6118 0.0596 0.07503 0.0
C420 C 0.64045 0.06555 0.227 0.0
C421 C 0.63867 0.08278 0.21179 0.0
H422 H 0.60353 0.05079 0.01788 0.0
H423 H 0.65563 0.06166 0.28879 0.0
H424 H 0.63245 0.02103 0.94221 0.0
H425 H 0.71347 0.05719 0.86879 0.0
H426 H 0.58561 0.01328 0.48449 0.0
H427 H 0.59985 0.08102 0.98599 0.0
H428 H 0.65075 0.09152 0.26492 0.0
C429 C 0.5865 0.20316 0.99552 0.0
C430 C 0.58302 0.20299 0.8943 0.0
N431 N 0.60824 0.21371 0.85615 0.0
N432 N 0.61373 0.21399 0.02125 0.0
C433 C 0.62625 0.22036 0.93426 0.0
H434 H 0.57128 0.19523 0.04684 0.0
Co435 Co 0.63145 0.21668 0.15094 0.0
C436 C 0.70755 0.22651 0.08574 0.0
O437 O 0.71861 0.21209 0.11654 0.0
N438 N 0.64827 0.2197 0.28375 0.0
C439 C 0.68079 0.22376 0.42028 0.0
C440 C 0.68135 0.22316 0.31887 0.0
C441 C 0.62809 0.21844 0.36677 0.0
N442 N 0.6473 0.22079 0.45008 0.0
O443 O 0.60538 0.23673 0.16525 0.0
H444 H 0.70496 0.22498 0.27562 0.0
H445 H 0.59998 0.21526 0.36674 0.0
O446 O 0.67488 0.22977 0.09724 0.0
C447 C 0.57402 0.23175 0.19249 0.0
O448 O 0.56637 0.21549 0.20139 0.0
N449 N 0.65124 0.19532 0.14101 0.0
C450 C 0.65125 0.16048 0.11309 0.0
C451 C 0.66415 0.17156 0.03929 0.0
C452 C 0.66404 0.18899 0.05489 0.0
C453 C 0.64018 0.18449 0.21464 0.0
C454 C 0.64059 0.16711 0.20291 0.0
H455 H 0.67137 0.19729 0.99441 0.0
H456 H 0.62744 0.18902 0.27956 0.0
H457 H 0.64934 0.22894 0.92725 0.0
H458 H 0.56471 0.19496 0.85164 0.0
H459 H 0.70332 0.22586 0.46868 0.0
H460 H 0.67221 0.16681 0.96838 0.0
H461 H 0.62997 0.15888 0.26088 0.0
C462 C 0.33842 0.95512 0.02618 0.0
C463 C 0.33492 0.95472 0.12753 0.0
N464 N 0.36034 0.96523 0.16639 0.0
N465 N 0.36598 0.96582 1.00114 0.0
C466 C 0.37851 0.97196 0.08862 0.0
H467 H 0.32306 0.9474 0.97426 0.0
Co468 Co 0.38437 0.96837 0.87176 0.0
C469 C 0.46033 0.979 0.92999 0.0
O470 O 0.47162 0.96571 0.88494 0.0
N471 N 0.40175 0.97124 0.73874 0.0
C472 C 0.43097 0.97968 0.60187 0.0
C473 C 0.43154 0.97942 0.70343 0.0
C474 C 0.38336 0.96693 0.65547 0.0
N475 N 0.40055 0.97187 0.57204 0.0
O476 O 0.35755 0.9882 0.85452 0.0
H477 H 0.45225 0.9855 0.74671 0.0
H478 H 0.35755 0.96037 0.65557 0.0
O479 O 0.42716 0.98173 0.92722 0.0
C480 C 0.32676 0.9832 0.82268 0.0
O481 O 0.3199 0.967 0.8083 0.0
N482 N 0.40505 0.94728 0.88526 0.0
C483 C 0.40708 0.91282 0.92422 0.0
C484 C 0.42058 0.9247 0.99282 0.0
C485 C 0.41941 0.94193 0.97166 0.0
C486 C 0.39351 0.93567 0.81652 0.0
C487 C 0.39492 0.91847 0.83366 0.0
H488 H 0.42673 0.95085 0.02887 0.0
H489 H 0.37948 0.93938 0.75222 0.0
H490 H 0.40182 0.98038 0.09626 0.0
H491 H 0.31642 0.94668 0.16969 0.0
H492 H 0.45088 0.98554 0.55358 0.0
H493 H 0.42971 0.92072 0.06435 0.0
H494 H 0.38374 0.90961 0.77974 0.0
C495 C 0.44719 0.79265 0.01892 0.0
C496 C 0.4496 0.79203 0.12033 0.0
N497 N 0.41921 0.78479 0.15565 0.0
N498 N 0.41552 0.78568 0.9898 0.0
C499 C 0.3992 0.78094 0.07554 0.0
H500 H 0.46663 0.79876 0.97051 0.0
Co501 Co 0.39741 0.78564 0.85897 0.0
C502 C 0.32151 0.77395 0.92017 0.0
O503 O 0.31079 0.78921 0.90928 0.0
N504 N 0.37891 0.78531 0.72672 0.0
C505 C 0.34583 0.79032 0.59449 0.0
C506 C 0.34779 0.79097 0.69587 0.0
C507 C 0.39499 0.78105 0.6415 0.0
N508 N 0.37573 0.78418 0.56051 0.0
O509 O 0.4243 0.76616 0.82881 0.0
H510 H 0.32862 0.79646 0.74267 0.0
H511 H 0.42066 0.77615 0.63753 0.0
O512 O 0.3541 0.77124 0.90255 0.0
C513 C 0.4555 0.77181 0.8027 0.0
O514 O 0.46186 0.78822 0.79834 0.0
N515 N 0.37854 0.80679 0.88425 0.0
C516 C 0.38019 0.84126 0.92617 0.0
C517 C 0.36502 0.8295 0.99329 0.0
C518 C 0.36448 0.81224 0.97095 0.0
C519 C 0.39276 0.81831 0.81831 0.0
C520 C 0.39309 0.83551 0.83666 0.0
H521 H 0.35479 0.8034 0.02636 0.0
H522 H 0.40678 0.8142 0.75407 0.0
H523 H 0.37207 0.77612 0.08066 0.0
H524 H 0.47097 0.79749 0.16508 0.0
H525 H 0.32511 0.79497 0.5489 0.0
H526 H 0.35533 0.83356 0.06408 0.0
H527 H 0.40563 0.84424 0.78407 0.0
C528 C 0.26112 0.48999 0.34702 0.0
C529 C 0.29439 0.49354 0.30005 0.0
C530 C 0.26527 0.51021 0.1746 0.0
C531 C 0.23246 0.50758 0.22467 0.0
N532 N 0.19927 0.49601 0.36279 0.0
N533 N 0.32909 0.50938 0.17914 0.0
C534 C 0.23034 0.49762 0.31167 0.0
C535 C 0.29675 0.50442 0.21709 0.0
N536 N 0.25907 0.47925 0.42598 0.0
N537 N 0.26597 0.51769 0.08365 0.0
H538 H 0.35264 0.50518 0.20663 0.0
H539 H 0.33288 0.51884 0.12636 0.0
H540 H 0.24319 0.52149 0.04915 0.0
H541 H 0.28814 0.51852 0.03814 0.0
H542 H 0.23548 0.47413 0.45562 0.0
H543 H 0.2814 0.47501 0.46076 0.0
H544 H 0.19677 0.4907 0.43277 0.0
H545 H 0.17587 0.50056 0.33653 0.0
C546 C 0.0495 0.75326 0.31411 0.0
C547 C 0.04629 0.74339 0.22692 0.0
C548 C 0.98206 0.747 0.22397 0.0
C549 C 0.98521 0.75696 0.3106 0.0
N550 N 0.02004 0.7672 0.4485 0.0
N551 N 1.01153 0.73389 0.08727 0.0
C552 C 0.01856 0.7595 0.35817 0.0
C553 C 1.013 0.74104 0.17909 0.0
N554 N 0.08221 0.75696 0.3534 0.0
N555 N 0.94937 0.7429 0.18572 0.0
H556 H 0.034 0.73019 0.05075 0.0
H557 H 0.9891 0.73323 0.04295 0.0
H558 H 0.92625 0.74721 0.21543 0.0
H559 H 0.9447 0.73398 0.13034 0.0
H560 H 0.08721 0.76525 0.41172 0.0
H561 H 0.10524 0.7528 0.32228 0.0
H562 H 0.04248 0.76835 0.49255 0.0
H563 H 0.9976 0.77119 0.48406 0.0
C564 C 0.25913 0.76092 0.9153 0.0
C565 C 0.29409 0.76043 0.95331 0.0
C566 C 0.2709 0.74126 0.08444 0.0
C567 C 0.23587 0.74177 0.0466 0.0
N568 N 0.19616 0.75675 0.94415 0.0
N569 N 0.33387 0.74555 0.0563 0.0
C570 C 0.22978 0.7529 0.96705 0.0
C571 C 0.30023 0.7493 0.03282 0.0
N572 N 0.25427 0.76816 0.82516 0.0
N573 N 0.27584 0.73409 0.17465 0.0
H574 H 0.3559 0.74982 0.01593 0.0
H575 H 0.33973 0.73633 0.10731 0.0
H576 H 0.25488 0.7293 0.21799 0.0
H577 H 0.29982 0.73487 0.21222 0.0
H578 H 0.23028 0.76741 0.78762 0.0
H579 H 0.27529 0.77306 0.78209 0.0
H580 H 0.19032 0.76591 0.89273 0.0
H581 H 0.17428 0.75268 0.98575 0.0
C582 C 1.00293 0.48551 0.05998 0.0
C583 C 0.98501 0.48975 0.97201 0.0
C584 C 0.02371 0.51575 0.95924 0.0
C585 C 0.04346 0.51081 0.04297 0.0
N586 N 0.0547 0.48958 0.16439 0.0
N587 N 0.98092 0.50801 0.83116 0.0
C588 C 0.03401 0.49522 0.09034 0.0
C589 C 0.99594 0.5047 0.92021 0.0
N590 N 0.98911 0.4726 0.11749 0.0
N591 N 0.03149 0.53112 0.91664 0.0
H592 H 0.95969 0.50072 0.80208 0.0
H593 H 0.99071 0.51737 0.78301 0.0
H594 H 0.05354 0.53884 0.93582 0.0
H595 H 0.0153 0.53657 0.86521 0.0
H596 H 0.99839 0.46992 0.18769 0.0
H597 H 0.96586 0.46562 0.0995 0.0
H598 H 0.05159 0.47749 0.19398 0.0
H599 H 0.07699 0.49638 0.19099 0.0
C600 C 0.79722 0.50241 0.70451 0.0
C601 C 0.79647 0.49303 0.7937 0.0
C602 C 0.73265 0.49689 0.81052 0.0
C603 C 0.73368 0.50702 0.72428 0.0
N604 N 0.76664 0.51989 0.58918 0.0
N605 N 0.76562 0.48405 0.94139 0.0
C606 C 0.76598 0.50988 0.67139 0.0
C607 C 0.76468 0.49102 0.84923 0.0
N608 N 0.82751 0.50367 0.64974 0.0
N609 N 0.70099 0.49274 0.85507 0.0
H610 H 0.78893 0.48022 0.97282 0.0
H611 H 0.74446 0.48361 0.99048 0.0
H612 H 0.67715 0.49691 0.82938 0.0
H613 H 0.69781 0.48395 0.91183 0.0
H614 H 0.82899 0.50837 0.57816 0.0
H615 H 0.85139 0.49956 0.6754 0.0
H616 H 0.78963 0.52449 0.55402 0.0
H617 H 0.74372 0.52398 0.55686 0.0
C618 C 1.01187 0.23926 0.66724 0.0
C619 C 0.04466 0.24207 0.71773 0.0
C620 C 1.01468 0.25789 0.84577 0.0
C621 C 0.9824 0.25592 0.7926 0.0
N622 N 0.95001 0.24525 0.65125 0.0
N623 N 0.07843 0.25619 0.84684 0.0
C624 C 0.98086 0.24659 0.70334 0.0
C625 C 0.0464 0.25207 0.80445 0.0
N626 N 1.01055 0.22947 0.58421 0.0
N627 N 1.01451 0.26481 0.93814 0.0
H628 H 0.10209 0.25224 0.81854 0.0
H629 H 0.0821 0.26476 0.90447 0.0
H630 H 0.99146 0.2686 0.97136 0.0
H631 H 0.03608 0.26524 0.98569 0.0
H632 H 0.98731 0.22482 0.55067 0.0
H633 H 0.03322 0.22568 0.54925 0.0
H634 H 0.94781 0.24059 0.57975 0.0
H635 H 0.9263 0.24921 0.67916 0.0
C636 C 0.74521 0.25401 0.09196 0.0
C637 C 0.73449 0.23895 0.04086 0.0
C638 C 0.78173 0.24529 0.91737 0.0
C639 C 0.79387 0.25969 0.97251 0.0
N640 N 0.79144 0.2759 0.12204 0.0
N641 N 0.74397 0.21955 0.90797 0.0
C642 C 0.77666 0.26354 0.06237 0.0
C643 C 0.75331 0.2344 0.95462 0.0
N644 N 0.72527 0.25935 0.16861 0.0
N645 N 0.79631 0.24241 0.82709 0.0
H646 H 0.72139 0.21209 0.92633 0.0
H647 H 0.75925 0.21425 0.85368 0.0
H648 H 0.81804 0.24954 0.79944 0.0
H649 H 0.78583 0.23355 0.77693 0.0
H650 H 0.72936 0.27111 0.20175 0.0
H651 H 0.70259 0.25268 0.19399 0.0
H652 H 0.7827 0.27822 0.19332 0.0
H653 H 0.81486 0.28278 0.10422 0.0
C654 C 0.28198 0.00348 0.87948 0.0
C655 C 0.29779 0.99467 0.80194 0.0
C656 C 0.24781 0.00056 0.69303 0.0
C657 C 0.23336 0.01059 0.76795 0.0
N658 N 0.24156 0.02437 0.92708 0.0
N659 N 0.29992 0.98818 0.62876 0.0
C660 C 0.25194 0.01292 0.85939 0.0
C661 C 0.28173 0.99412 0.7071 0.0
N662 N 0.29454 0.00227 0.97361 0.0
N663 N 0.22962 0.99737 0.60732 0.0
H664 H 0.32547 0.98431 0.63587 0.0
H665 H 0.29165 0.98896 0.55573 0.0
H666 H 0.20584 0.00257 0.59036 0.0
H667 H 0.23683 0.98851 0.55563 0.0
H668 H 0.28132 0.00657 0.03522 0.0
H669 H 0.31674 0.99577 0.99139 0.0
H670 H 0.25669 0.02801 0.98843 0.0
H671 H 0.2194 0.03131 0.91896 0.0
C672 C 0.27084 0.24083 0.58656 0.0
C673 C 0.23576 0.24156 0.54943 0.0
C674 C 0.25891 0.26132 0.42122 0.0
C675 C 0.29402 0.26052 0.45812 0.0
N676 N 0.33372 0.24483 0.55689 0.0
N677 N 0.19599 0.25715 0.4505 0.0
C678 C 0.30015 0.24895 0.53537 0.0
C679 C 0.22961 0.25312 0.47218 0.0
N680 N 0.2759 0.23335 0.67582 0.0
N681 N 0.25383 0.26891 0.33231 0.0
H682 H 0.17406 0.25281 0.49105 0.0
H683 H 0.19017 0.26667 0.40141 0.0
H684 H 0.27472 0.2738 0.28908 0.0
H685 H 0.22973 0.26838 0.29534 0.0
H686 H 0.3 0.23395 0.71283 0.0
H687 H 0.25499 0.22853 0.7192 0.0
H688 H 0.33941 0.23529 0.60602 0.0
H689 H 0.35569 0.24908 0.51622 0.0
C690 C 0.01989 0.99076 0.45566 0.0
C691 C 0.98476 0.99086 0.49313 0.0
C692 C 1.00723 0.00881 0.6303 0.0
C693 C 0.04237 0.00881 0.59271 0.0
N694 N 0.08269 0.99484 0.48596 0.0
N695 N 0.94454 0.00522 0.59726 0.0
C696 C 0.04896 0.99842 0.50993 0.0
C697 C 0.97822 0.00136 0.57515 0.0
N698 N 0.02518 0.98435 0.36363 0.0
N699 N 1.00184 0.01495 0.72298 0.0
H700 H 0.92305 0.00176 0.55267 0.0
H701 H 0.9385 0.01394 0.65115 0.0
H702 H 0.02262 0.01923 0.7687 0.0
H703 H 0.97759 0.01375 0.75926 0.0
H704 H 0.04925 0.98555 0.32642 0.0
H705 H 1.00438 0.97982 0.31902 0.0
H706 H 0.08871 0.9861 0.43226 0.0
H707 H 0.10461 0.99862 0.52794 0.0
C708 C 0.76887 0.01033 0.18778 0.0
C709 C 0.73531 0.00726 0.23381 0.0
C710 C 0.76246 0.99003 0.35997 0.0
C711 C 0.79593 0.99275 0.31343 0.0
N712 N 0.83233 0.00685 0.18941 0.0
N713 N 0.69887 0.99148 0.35099 0.0
C714 C 0.79954 0.00334 0.22905 0.0
C715 C 0.73173 0.99628 0.31601 0.0
N716 N 0.77075 0.01931 0.10153 0.0
N717 N 0.76051 0.98226 0.45003 0.0
H718 H 0.67578 0.99603 0.32263 0.0
H719 H 0.69417 0.9818 0.40201 0.0
H720 H 0.78278 0.97831 0.48641 0.0
H721 H 0.73783 0.98137 0.49351 0.0
H722 H 0.79346 0.02142 0.05926 0.0
H723 H 0.74846 0.02374 0.06742 0.0
H724 H 0.83777 0.01528 0.13204 0.0
H725 H 0.85511 0.00208 0.21818 0.0
C726 C 0.75675 0.73438 0.48823 0.0
C727 C 0.7369 0.73968 0.57062 0.0
C728 C 0.77403 0.76632 0.57378 0.0
C729 C 0.79568 0.76037 0.49641 0.0
N730 N 0.81 0.73758 0.38875 0.0
N731 N 0.72806 0.76041 0.69637 0.0
C732 C 0.78783 0.74402 0.45675 0.0
C733 C 0.74576 0.75565 0.61404 0.0
N734 N 0.74464 0.7205 0.43609 0.0
N735 N 0.78043 0.78232 0.609 0.0
H736 H 0.70561 0.75377 0.72334 0.0
H737 H 0.73632 0.77056 0.74083 0.0
H738 H 0.80273 0.7899 0.58998 0.0
H739 H 0.76304 0.78842 0.65423 0.0
H740 H 0.75528 0.7169 0.36905 0.0
H741 H 0.72133 0.71361 0.45417 0.0
H742 H 0.80815 0.72504 0.36609 0.0
H743 H 0.83213 0.74428 0.36035 0.0
C744 C 0.50563 0.76297 0.69244 0.0
C745 C 0.48566 0.7609 0.782 0.0
C746 C 0.53168 0.74331 0.84634 0.0
C747 C 0.54877 0.74356 0.75277 0.0
N748 N 0.54782 0.75127 0.5809 0.0
N749 N 0.47907 0.74769 0.94232 0.0
C750 C 0.53466 0.75278 0.67428 0.0
C751 C 0.49831 0.75048 0.85785 0.0
N752 N 0.49775 0.77494 0.62483 0.0
N753 N 0.54845 0.73702 0.92612 0.0
H754 H 0.45601 0.75361 0.95834 0.0
H755 H 0.48476 0.73856 0.99415 0.0
H756 H 0.57373 0.73274 0.92115 0.0
H757 H 0.53943 0.73791 0.99844 0.0
H758 H 0.51411 0.77826 0.56521 0.0
H759 H 0.47684 0.78269 0.63177 0.0
H760 H 0.53559 0.75593 0.5186 0.0
H761 H 0.56925 0.74416 0.56427 0.0
C762 C 0.53522 0.49475 0.59044 0.0
C763 C 0.54386 0.51088 0.54885 0.0
C764 C 0.49204 0.50711 0.43847 0.0
C765 C 0.4851 0.49039 0.47377 0.0
N766 N 0.50272 0.46764 0.57761 0.0
N767 N 0.53506 0.53069 0.41792 0.0
C768 C 0.50761 0.48403 0.54774 0.0
C769 C 0.52342 0.51657 0.46879 0.0
N770 N 0.55214 0.48992 0.67387 0.0
N771 N 0.46874 0.5141 0.37598 0.0
H772 H 0.55855 0.53752 0.43502 0.0
H773 H 0.5237 0.53455 0.35239 0.0
H774 H 0.44592 0.50769 0.3499 0.0
H775 H 0.47033 0.52682 0.35695 0.0
H776 H 0.54396 0.47939 0.71561 0.0
H777 H 0.57304 0.49703 0.70586 0.0
H778 H 0.52093 0.46155 0.62011 0.0
H779 H 0.48123 0.45976 0.55587 0.0
C780 C 0.48168 0.24788 0.20197 0.0
C781 C 0.4838 0.25778 0.28913 0.0
C782 C 0.54744 0.25321 0.3026 0.0
C783 C 0.54535 0.24321 0.21602 0.0
N784 N 0.51275 0.23323 0.07347 0.0
N785 N 0.5162 0.26697 0.43361 0.0
C786 C 0.51294 0.24109 0.16331 0.0
C787 C 0.51612 0.2597 0.34215 0.0
N788 N 0.44964 0.2447 0.15755 0.0
N789 N 0.57951 0.25681 0.34591 0.0
H790 H 0.49331 0.27104 0.46628 0.0
H791 H 0.5377 0.26743 0.48137 0.0
H792 H 0.60285 0.2522 0.3195 0.0
H793 H 0.58368 0.26557 0.40233 0.0
H794 H 0.44523 0.23653 0.09842 0.0
H795 H 0.42639 0.24925 0.18501 0.0
H796 H 0.49117 0.23225 0.02617 0.0
H797 H 0.53555 0.22886 0.04177 0.0
C798 C 0.49163 0.00808 0.95695 0.0
C799 C 0.48727 0.99069 0.98184 0.0
C800 C 0.54208 0.99363 0.08168 0.0
C801 C 0.54511 0.01127 0.06279 0.0
N802 N 0.52088 0.03557 0.98713 0.0
N803 N 0.5044 0.96793 0.08564 0.0
C804 C 0.5192 0.01854 1.00218 0.0
C805 C 0.51157 0.98377 0.04865 0.0
N806 N 0.47064 0.01455 0.88616 0.0
N807 N 0.56824 0.98611 0.13149 0.0
H808 H 0.48209 0.96044 0.06616 0.0
H809 H 0.51839 0.96286 0.14345 0.0
H810 H 0.58999 0.99266 0.16274 0.0
H811 H 0.56987 0.9731 0.13544 0.0
H812 H 0.47563 0.02634 0.85391 0.0
H813 H 0.44922 0.00781 0.85445 0.0
H814 H 0.50024 0.04201 0.95762 0.0
H815 H 0.54241 0.04351 1.00787 0.0
C816 C 0.15063 0.51733 0.60714 0.0
C817 C 0.14105 0.5317 0.55401 0.0
C818 C 0.14685 0.54867 0.70496 0.0
C819 C 0.15974 0.53468 0.75578 0.0
N820 N 0.17845 0.50637 0.75327 0.0
N821 N 0.13319 0.5614 0.5475 0.0
C822 C 0.16285 0.51916 0.70621 0.0
C823 C 0.14029 0.54752 0.6016 0.0
N824 N 0.14696 0.50187 0.56344 0.0
N825 N 0.13913 0.56272 0.7568 0.0
H826 H 0.12711 0.56075 0.47247 0.0
H827 H 0.1357 0.57364 0.57499 0.0
H828 H 0.14239 0.56367 0.83301 0.0
H829 H 0.12654 0.57276 0.72628 0.0
H830 H 0.15015 0.49061 0.60077 0.0
H831 H 0.13815 0.50026 0.49097 0.0
H832 H 0.18469 0.49526 0.71853 0.0
H833 H 0.18775 0.50749 0.82557 0.0
C834 C 0.12985 0.70213 0.6996 0.0
C835 C 0.1194 0.71678 0.74854 0.0
C836 C 0.1308 0.73332 0.59752 0.0
C837 C 0.13856 0.71841 0.54686 0.0
N838 N 0.14016 0.68827 0.54345 0.0
N839 N 0.10573 0.74585 0.74349 0.0
C840 C 0.13653 0.70269 0.59629 0.0
C841 C 0.11874 0.73229 0.69719 0.0
N842 N 0.13478 0.68789 0.75299 0.0
N843 N 0.13612 0.74848 0.5508 0.0
H844 H 0.09694 0.74534 0.8165 0.0
H845 H 0.10133 0.75715 0.70805 0.0
H846 H 0.14501 0.74946 0.47801 0.0
H847 H 0.13413 0.76005 0.58563 0.0
H848 H 0.14572 0.67727 0.72378 0.0
H849 H 0.13082 0.68723 0.82908 0.0
H850 H 0.13559 0.67624 0.57283 0.0
H851 H 0.14482 0.68836 0.46754 0.0
C852 C 0.87882 0.48287 0.40759 0.0
C853 C 0.88855 0.46843 0.45971 0.0
C854 C 0.88308 0.45174 0.30773 0.0
C855 C 0.87005 0.46578 0.25775 0.0
N856 N 0.85116 0.49405 0.26176 0.0
N857 N 0.89606 0.43869 0.46468 0.0
C858 C 0.86675 0.4812 0.30825 0.0
C859 C 0.88943 0.45271 0.41116 0.0
N860 N 0.88232 0.49824 0.45243 0.0
N861 N 0.89097 0.4378 0.25515 0.0
H862 H 0.90133 0.43916 0.54023 0.0
H863 H 0.89368 0.42652 0.43618 0.0
H864 H 0.88772 0.43696 0.1789 0.0
H865 H 0.90371 0.42776 0.28519 0.0
H866 H 0.87892 0.50956 0.41605 0.0
H867 H 0.89124 0.4997 0.52492 0.0
H868 H 0.84482 0.5051 0.29708 0.0
H869 H 0.84208 0.49307 0.1892 0.0
C870 C 0.89709 0.2975 0.30952 0.0
C871 C 0.90925 0.28326 0.25957 0.0
C872 C 0.8995 0.26629 0.40962 0.0
C873 C 0.89071 0.28089 0.46168 0.0
N874 N 0.88518 0.31079 0.4665 0.0
N875 N 0.92641 0.25469 0.26373 0.0
C876 C 0.8908 0.29664 0.41302 0.0
C877 C 0.91162 0.26778 0.31018 0.0
N878 N 0.88995 0.31155 0.25688 0.0
N879 N 0.89505 0.25095 0.45462 0.0
H880 H 0.93553 0.25555 0.19111 0.0
H881 H 0.93207 0.24355 0.29914 0.0
H882 H 0.88609 0.24963 0.52722 0.0
H883 H 0.89772 0.23956 0.41828 0.0
H884 H 0.87785 0.32177 0.28703 0.0
H885 H 0.8931 0.31233 0.18056 0.0
H886 H 0.88833 0.32294 0.43781 0.0
H887 H 0.88004 0.31041 0.54217 0.0
C888 C 0.15471 0.048 0.23271 0.0
C889 C 0.15542 0.03244 0.28346 0.0
C890 C 0.13285 0.01764 0.1349 0.0
C891 C 0.13533 0.03306 0.0821 0.0
N892 N 0.15561 0.06228 0.07466 0.0
N893 N 0.14895 0.00222 0.2818 0.0
C894 C 0.1483 0.04807 0.12941 0.0
C895 C 0.14544 0.01715 0.23418 0.0
N896 N 0.15858 0.06275 0.2843 0.0
N897 N 0.11755 0.00362 0.09062 0.0
H898 H 0.15814 0.00161 0.3542 0.0
H899 H 0.1452 0.99051 0.24785 0.0
H900 H 0.10843 0.00373 0.01799 0.0
H901 H 0.11171 0.99229 0.1274 0.0
H902 H 0.15493 0.07449 0.25305 0.0
H903 H 0.16179 0.06312 0.36072 0.0
H904 H 0.16829 0.07319 0.10325 0.0
H905 H 0.15225 0.06258 0.9983 0.0
C906 C 0.1311 0.20168 0.19866 0.0
C907 C 0.11923 0.21606 0.24748 0.0
C908 C 0.12855 0.23267 0.09583 0.0
C909 C 0.13779 0.21796 0.04547 0.0
N910 N 0.142 0.18795 0.04261 0.0
N911 N 0.10236 0.24466 0.24184 0.0
C912 C 0.13734 0.20229 0.09523 0.0
C913 C 0.11678 0.23143 0.19573 0.0
N914 N 0.13777 0.18766 0.2522 0.0
N915 N 0.13219 0.24785 0.04865 0.0
H916 H 0.09374 0.244 0.31498 0.0
H917 H 0.09666 0.25576 0.20614 0.0
H918 H 0.14084 0.24898 0.97569 0.0
H919 H 0.12904 0.25935 0.08324 0.0
H920 H 0.14981 0.17735 0.22288 0.0
H921 H 0.13421 0.18698 0.3284 0.0
H922 H 0.1386 0.17589 0.07248 0.0
H923 H 0.14616 0.18805 0.96648 0.0
C924 C 0.87912 0.98239 0.93921 0.0
C925 C 0.88751 0.96762 0.99038 0.0
C926 C 0.87941 0.95112 0.83832 0.0
C927 C 0.86842 0.96562 0.78884 0.0
N928 N 0.85363 0.99454 0.79275 0.0
N929 N 0.89039 0.93755 0.99494 0.0
C930 C 0.86713 0.98115 0.8396 0.0
C931 C 0.88611 0.95185 0.94157 0.0
N932 N 0.88377 0.99762 0.98538 0.0
N933 N 0.88485 0.93689 0.78545 0.0
H934 H 0.89513 0.93776 0.07078 0.0
H935 H 0.88632 0.92545 0.96611 0.0
H936 H 0.88089 0.93612 0.70942 0.0
H937 H 0.89619 0.9264 0.81499 0.0
H938 H 0.88129 0.00912 0.95019 0.0
H939 H 0.89259 0.99874 0.05814 0.0
H940 H 0.84879 0.00583 0.82769 0.0
H941 H 0.84487 0.99388 0.71978 0.0
C942 C 0.89157 0.7962 0.93651 0.0
C943 C 0.89451 0.78055 0.98474 0.0
C944 C 0.91827 0.76863 0.83303 0.0
C945 C 0.91298 0.78391 0.78287 0.0
N946 N 0.88906 0.81124 0.78086 0.0
N947 N 0.90529 0.75115 0.97723 0.0
C948 C 0.89825 0.79748 0.83318 0.0
C949 C 0.9064 0.76654 0.93239 0.0
N950 N 0.88236 0.80981 0.99007 0.0
N951 N 0.93551 0.75635 0.78602 0.0
H952 H 0.89654 0.74938 0.04967 0.0
H953 H 0.91044 0.74002 0.94097 0.0
H954 H 0.94441 0.75765 0.71336 0.0
H955 H 0.94333 0.74551 0.82086 0.0
H956 H 0.88314 0.82203 0.96224 0.0
H957 H 0.87621 0.80901 0.06507 0.0
H958 H 0.87512 0.8209 0.81078 0.0
H959 H 0.8927 0.8123 0.7048 0.0
C960 C 0.63782 0.54605 0.11146 0.0
C961 C 0.64222 0.53058 0.06268 0.0
C962 C 0.66703 0.51903 0.2139 0.0
C963 C 0.66016 0.53407 0.26462 0.0
N964 N 0.63374 0.56081 0.26747 0.0
N965 N 0.65619 0.50158 0.06837 0.0
C966 C 0.64419 0.54733 0.2148 0.0
C967 C 0.6556 0.51684 0.11423 0.0
N968 N 0.62798 0.55957 0.0581 0.0
N969 N 0.68525 0.50708 0.26079 0.0
H970 H 0.64765 0.49977 0.9958 0.0
H971 H 0.66262 0.49056 0.10379 0.0
H972 H 0.69372 0.50845 0.33376 0.0
H973 H 0.69414 0.49647 0.22579 0.0
H974 H 0.62759 0.57171 0.08661 0.0
H975 H 0.62281 0.55886 0.98254 0.0
H976 H 0.61882 0.57015 0.23785 0.0
H977 H 0.6374 0.56191 0.34347 0.0
C978 C 0.62319 0.73091 0.13216 0.0
C979 C 0.63987 0.71757 0.08528 0.0
C980 C 0.63925 0.70185 0.24141 0.0
C981 C 0.62092 0.7148 0.28714 0.0
N982 N 0.59157 0.74061 0.2759 0.0
N983 N 0.66037 0.68964 0.08923 0.0
C984 C 0.61181 0.72907 0.23225 0.0
C985 C 0.64688 0.7028 0.1384 0.0
N986 N 0.61927 0.7455 0.08122 0.0
N987 N 0.65026 0.68891 0.29769 0.0
H988 H 0.66656 0.69021 1.01419 0.0
H989 H 0.66322 0.67784 0.12039 0.0
H990 H 0.64464 0.68784 0.37279 0.0
H991 H 0.6668 0.67988 0.27214 0.0
H992 H 0.61028 0.75639 0.11268 0.0
H993 H 0.62705 0.747 1.00768 0.0
H994 H 0.581 0.75055 0.23838 0.0
H995 H 0.5834 0.73954 0.34935 0.0
C996 C 0.39205 0.45529 0.91643 0.0
C997 C 0.38536 0.4705 0.96534 0.0
C998 C 0.35862 0.48117 0.81438 0.0
C999 C 0.36758 0.46646 0.76358 0.0
N1000 N 0.39723 0.44059 0.76036 0.0
N1001 N 0.36674 0.49879 0.96017 0.0
C1002 C 0.38538 0.45375 0.81323 0.0
C1003 C 0.36981 0.4837 0.91399 0.0
N1004 N 0.40469 0.44233 0.96936 0.0
N1005 N 0.33868 0.49247 0.76754 0.0
H1006 H 0.37487 0.50084 0.03286 0.0
H1007 H 0.35858 0.50953 0.92508 0.0
H1008 H 0.33039 0.49085 0.69456 0.0
H1009 H 0.32828 0.50273 0.80248 0.0
H1010 H 0.40696 0.43027 0.94119 0.0
H1011 H 0.41072 0.44338 0.04431 0.0
H1012 H 0.41336 0.43169 0.78945 0.0
H1013 H 0.3932 0.43931 0.68458 0.0
C1014 C 0.40061 0.26862 0.91069 0.0
C1015 C 0.39251 0.28349 0.96131 0.0
C1016 C 0.4003 0.29975 0.8083 0.0
C1017 C 0.41108 0.28516 0.75929 0.0
N1018 N 0.42578 0.25624 0.76444 0.0
N1019 N 0.39022 0.3136 0.96454 0.0
C1020 C 0.41241 0.2697 0.8108 0.0
C1021 C 0.394 0.29919 0.91174 0.0
N1022 N 0.39583 0.25346 0.95762 0.0
N1023 N 0.3947 0.31391 0.7549 0.0
H1024 H 0.38592 0.31351 0.04061 0.0
H1025 H 0.39439 0.32564 0.93489 0.0
H1026 H 0.3983 0.31456 0.67868 0.0
H1027 H 0.38349 0.32445 0.78431 0.0
H1028 H 0.39808 0.2419 0.92283 0.0
H1029 H 0.38713 0.25244 0.03058 0.0
H1030 H 0.43065 0.245 0.79997 0.0
H1031 H 0.4344 0.25678 0.69127 0.0
C1032 C 0.63801 0.04612 0.61582 0.0
C1033 C 0.64546 0.03096 0.56729 0.0
C1034 C 0.67272 0.02073 0.71868 0.0
C1035 C 0.66307 0.03536 0.76898 0.0
N1036 N 0.63248 0.06095 0.77148 0.0
N1037 N 0.66572 0.00296 0.57338 0.0
C1038 C 0.64474 0.04785 0.71895 0.0
C1039 C 0.66171 0.018 0.61913 0.0
N1040 N 0.62442 0.05882 0.56272 0.0
N1041 N 0.69318 0.0097 0.76599 0.0
H1042 H 0.65797 0.00078 0.50056 0.0
H1043 H 0.67433 0.99234 0.60884 0.0
H1044 H 0.70135 0.01146 0.83898 0.0
H1045 H 0.70413 0.99954 0.73147 0.0
H1046 H 0.62154 0.07087 0.59042 0.0
H1047 H 0.618 0.05758 0.48813 0.0
H1048 H 0.61602 0.0697 0.74229 0.0
H1049 H 0.63662 0.06235 0.84718 0.0
C1050 C 0.63277 0.20201 0.70307 0.0
C1051 C 0.61767 0.2155 0.75318 0.0
C1052 C 0.62325 0.23275 0.60298 0.0
C1053 C 0.63562 0.21881 0.55106 0.0
N1054 N 0.64821 0.18961 0.54611 0.0
N1055 N 0.59421 0.24286 0.74972 0.0
C1056 C 0.63912 0.20324 0.59965 0.0
C1057 C 0.6117 0.23067 0.70266 0.0
N1058 N 0.64248 0.18837 0.75557 0.0
N1059 N 0.62377 0.24808 0.55751 0.0
H1060 H 0.58564 0.24157 0.8227 0.0
H1061 H 0.58596 0.2536 0.71478 0.0
H1062 H 0.63253 0.24983 0.48502 0.0
H1063 H 0.61814 0.25919 0.59327 0.0
H1064 H 0.65674 0.17881 0.72567 0.0
H1065 H 0.6389 0.18732 0.83166 0.0
H1066 H 0.6479 0.17743 0.57449 0.0
H1067 H 0.6535 0.1903 0.47058 0.0
C1068 C 0.37255 0.98326 0.423 0.0
C1069 C 0.38867 0.96987 0.47118 0.0
C1070 C 0.38756 0.95376 0.31643 0.0
C1071 C 0.36978 0.96678 0.26951 0.0
N1072 N 0.34148 0.99289 0.27825 0.0
N1073 N 0.40844 0.94179 0.46948 0.0
C1074 C 0.36122 0.98127 0.32302 0.0
C1075 C 0.39515 0.9549 0.41939 0.0
N1076 N 0.36884 0.99798 0.47282 0.0
N1077 N 0.39833 0.94065 0.26118 0.0
H1078 H 0.41518 0.94257 0.54405 0.0
H1079 H 0.41076 0.92986 0.43952 0.0
H1080 H 0.39311 0.93954 0.18589 0.0
H1081 H 0.41441 0.93151 0.28765 0.0
H1082 H 0.36044 0.00889 0.44029 0.0
H1083 H 0.37602 0.99952 0.54671 0.0
H1084 H 0.33132 0.00305 0.31471 0.0
H1085 H 0.33326 0.99169 0.20497 0.0
C1086 C 0.40277 0.76892 0.30837 0.0
C1087 C 0.40775 0.78447 0.2575 0.0
C1088 C 0.39528 0.79969 0.40987 0.0
C1089 C 0.38746 0.78416 0.4589 0.0
N1090 N 0.3797 0.754 0.4539 0.0
N1091 N 0.40163 0.8144 0.25352 0.0
C1092 C 0.39016 0.76874 0.4078 0.0
C1093 C 0.40202 0.79981 0.30662 0.0
N1094 N 0.41103 0.75443 0.26199 0.0
N1095 N 0.3975 0.8143 0.46306 0.0
H1096 H 0.40545 0.8148 0.17731 0.0
H1097 H 0.39415 0.82573 0.28314 0.0
H1098 H 0.39367 0.81457 0.53927 0.0
H1099 H 0.40644 0.82588 0.4335 0.0
H1100 H 0.41119 0.74279 0.29705 0.0
H1101 H 0.42014 0.75432 0.18931 0.0
H1102 H 0.37774 0.74236 0.41859 0.0
H1103 H 0.37058 0.75364 0.52662 0.0
C1104 C 0.1025 0.61821 0.08042 0.0
C1105 C 0.13105 0.60751 0.08275 0.0
C1106 C 0.17348 0.63207 0.07945 0.0
C1107 C 0.14493 0.64277 0.07756 0.0
N1108 N 0.08313 0.6462 0.04771 0.0
N1109 N 0.19296 0.60385 0.05568 0.0
C1110 C 0.10966 0.63585 0.06847 0.0
C1111 C 0.16636 0.61435 0.07268 0.0
N1112 N 0.06874 0.61163 0.0946 0.0
N1113 N 0.20718 0.63876 0.09277 0.0
H1114 H 0.1885 0.59082 0.04903 0.0
H1115 H 0.21874 0.60814 0.03863 0.0
H1116 H 0.21346 0.6517 0.09657 0.0
H1117 H 0.22857 0.63149 0.10659 0.0
H1118 H 0.04728 0.61901 0.10529 0.0
H1119 H 0.06245 0.59875 0.10244 0.0
H1120 H 0.0574 0.64179 0.03131 0.0
H1121 H 0.08768 0.65916 0.03737 0.0
C1122 C 0.92572 0.38161 0.92478 0.0
C1123 C 0.89719 0.39232 0.92452 0.0
C1124 C 0.85472 0.36777 0.92551 0.0
C1125 C 0.88325 0.35706 0.92578 0.0
N1126 N 0.94515 0.3535 0.95333 0.0
N1127 N 0.83529 0.39592 0.95237 0.0
C1128 C 0.91857 0.36393 0.93459 0.0
C1129 C 0.86187 0.38547 0.93408 0.0
N1130 N 0.95945 0.38824 0.91085 0.0
N1131 N 0.82098 0.36112 0.91222 0.0
H1132 H 0.83976 0.40894 0.96019 0.0
H1133 H 0.80952 0.3916 0.9692 0.0
H1134 H 0.81469 0.3482 0.90714 0.0
H1135 H 0.79955 0.36843 0.8996 0.0
H1136 H 0.98089 0.38091 0.89862 0.0
H1137 H 0.96573 0.40115 0.90482 0.0
H1138 H 0.97093 0.35785 0.96962 0.0
H1139 H 0.94067 0.34051 0.96205 0.0
C1140 C 0.10305 0.11793 0.58028 0.0
C1141 C 0.13146 0.10723 0.57234 0.0
C1142 C 0.17368 0.13177 0.56068 0.0
C1143 C 0.14531 0.14247 0.57005 0.0
N1144 N 0.08281 0.14599 0.5562 0.0
N1145 N 0.19167 0.10368 0.52379 0.0
C1146 C 0.10987 0.13559 0.56878 0.0
C1147 C 0.1661 0.11411 0.5517 0.0
N1148 N 0.07003 0.11139 0.60449 0.0
N1149 N 0.20778 0.1383 0.56619 0.0
H1150 H 0.1866 0.0907 0.51538 0.0
H1151 H 0.21664 0.10804 0.49955 0.0
H1152 H 0.21439 0.15116 0.5727 0.0
H1153 H 0.22941 0.13087 0.57131 0.0
H1154 H 0.04929 0.11882 0.62292 0.0
H1155 H 0.0639 0.09851 0.6127 0.0
H1156 H 0.05665 0.14159 0.54597 0.0
H1157 H 0.08708 0.15897 0.54586 0.0
C1158 C 0.92448 0.8813 0.45419 0.0
C1159 C 0.89571 0.89186 0.4566 0.0
C1160 C 0.85375 0.86711 0.45479 0.0
C1161 C 0.88253 0.85655 0.45232 0.0
N1162 N 0.94462 0.85321 0.47829 0.0
N1163 N 0.83384 0.895 0.48737 0.0
C1164 C 0.91774 0.86356 0.46151 0.0
C1165 C 0.86058 0.88478 0.46632 0.0
N1166 N 0.95804 0.88813 0.43991 0.0
N1167 N 0.8201 0.86038 0.44112 0.0
H1168 H 0.83812 0.90798 0.49743 0.0
H1169 H 0.80821 0.89047 0.5043 0.0
H1170 H 0.81406 0.84748 0.43349 0.0
H1171 H 0.79848 0.86765 0.43056 0.0
H1172 H 0.97955 0.88095 0.42568 0.0
H1173 H 0.96405 0.90109 0.43562 0.0
H1174 H 0.97034 0.85764 0.49469 0.0
H1175 H 0.94045 0.84017 0.48544 0.0
C1176 C 0.61428 0.63599 0.59818 0.0
C1177 C 0.64975 0.64246 0.61045 0.0
C1178 C 0.66986 0.61384 0.59952 0.0
C1179 C 0.63423 0.60731 0.60649 0.0
N1180 N 0.57214 0.61202 0.61655 0.0
N1181 N 0.71163 0.6377 0.62642 0.0
C1182 C 0.60624 0.61833 0.60549 0.0
C1183 C 0.67775 0.63145 0.61069 0.0
N1184 N 0.58842 0.64678 0.57877 0.0
N1185 N 0.69604 0.60316 0.58127 0.0
H1186 H 0.71843 0.65056 0.6332 0.0
H1187 H 0.73262 0.63013 0.6391 0.0
H1188 H 0.69101 0.59022 0.57143 0.0
H1189 H 0.72209 0.60727 0.56641 0.0
H1190 H 0.56264 0.64276 0.56015 0.0
H1191 H 0.5936 0.65977 0.57179 0.0
H1192 H 0.55098 0.61955 0.62813 0.0
H1193 H 0.56522 0.59915 0.62081 0.0
C1194 C 0.36459 0.38759 0.44109 0.0
C1195 C 0.3998 0.39449 0.42977 0.0
C1196 C 0.42139 0.36615 0.43981 0.0
C1197 C 0.38609 0.35923 0.43161 0.0
N1198 N 0.32373 0.36324 0.41976 0.0
N1199 N 0.46205 0.3905 0.41443 0.0
C1200 C 0.35749 0.3699 0.43243 0.0
C1201 C 0.42841 0.38384 0.42948 0.0
N1202 N 0.33807 0.398 0.46091 0.0
N1203 N 0.44807 0.35578 0.45831 0.0
H1204 H 0.46822 0.40341 0.40797 0.0
H1205 H 0.48348 0.38318 0.40184 0.0
H1206 H 0.44364 0.34279 0.46762 0.0
H1207 H 0.47388 0.36018 0.47396 0.0
H1208 H 0.31243 0.39362 0.4789 0.0
H1209 H 0.34254 0.41101 0.469 0.0
H1210 H 0.30225 0.37055 0.40797 0.0
H1211 H 0.31745 0.35032 0.4142 0.0
C1212 C 0.60921 0.13524 0.09026 0.0
C1213 C 0.64466 0.1421 0.09449 0.0
C1214 C 0.66565 0.11364 0.08363 0.0
C1215 C 0.63056 0.10683 0.09901 0.0
N1216 N 0.56867 0.11105 0.12124 0.0
N1217 N 0.70706 0.13791 0.1001 0.0
C1218 C 0.60213 0.11758 0.1021 0.0
C1219 C 0.67308 0.13134 0.09107 0.0
N1220 N 0.5824 0.14564 0.07387 0.0
N1221 N 0.69174 0.10313 0.06117 0.0
H1222 H 0.71356 0.15081 0.1049 0.0
H1223 H 0.72858 0.13054 0.1098 0.0
H1224 H 0.68697 0.09013 0.05377 0.0
H1225 H 0.71715 0.10742 0.04032 0.0
H1226 H 0.55638 0.14127 0.06107 0.0
H1227 H 0.58682 0.15861 0.06332 0.0
H1228 H 0.54755 0.11846 0.136 0.0
H1229 H 0.56243 0.09816 0.12892 0.0
C1230 C 0.35797 0.87027 0.95037 0.0
C1231 C 0.38631 0.85944 0.95105 0.0
C1232 C 0.42916 0.88386 0.95202 0.0
C1233 C 0.40083 0.89467 0.94973 0.0
N1234 N 0.33907 0.8985 0.97792 0.0
N1235 N 0.44782 0.85567 0.98296 0.0
C1236 C 0.36544 0.88794 0.95954 0.0
C1237 C 0.42162 0.8662 0.96226 0.0
N1238 N 0.3242 0.86382 0.93529 0.0
N1239 N 0.46305 0.89032 0.9391 0.0
H1240 H 0.4429 0.8427 0.99224 0.0
H1241 H 0.47356 0.85992 1.00049 0.0
H1242 H 0.46959 0.9032 0.93266 0.0
H1243 H 0.48439 0.88287 0.92839 0.0
H1244 H 0.30304 0.87128 0.92225 0.0
H1245 H 0.31763 0.85094 0.92912 0.0
H1246 H 0.31323 0.89426 0.99454 0.0
H1247 H 0.34386 0.91149 0.98635 0.0
loop_
_geom_bond_atom_site_label_1
_geom_bond_atom_site_label_2
_geom_bond_distance
_geom_bond_site_symmetry_2
_ccdc_geom_bond_type
C0 C1 1.351 . S
C0 N3 1.368 . S
C0 H5 0.931 . S
C1 C0 1.351 . S
C1 N2 1.373 . S
C1 H29 0.930 . S
N2 C1 1.373 . S
N2 C4 1.340 . S
N3 C0 1.368 . S
N3 C4 1.321 . S
N3 Co6 2.135 1_556 S
C4 N2 1.340 . S
C4 N3 1.321 . S
C4 H28 0.930 . S
H5 C0 0.931 . S
Co6 N3 2.135 1_554 S
Co6 N9 2.121 . S
Co6 O14 2.055 . S
Co6 O17 2.039 . S
Co6 N20 2.140 . S
C7 O8 1.227 . S
C7 O17 1.265 . S
O8 C7 1.227 . S
N9 Co6 2.121 . S
N9 C11 1.375 . S
N9 C12 1.313 . S
C10 C11 1.338 . S
C10 N13 1.377 . S
C10 H30 0.930 . S
C11 N9 1.375 . S
C11 C10 1.338 . S
C11 H15 0.931 . S
C12 N9 1.313 . S
C12 N13 1.344 . S
C12 H16 0.930 . S
N13 C10 1.377 . S
N13 C12 1.344 . S
O14 Co6 2.055 . S
O14 C18 1.253 . S
H15 C11 0.931 . S
H16 C12 0.930 . S
O17 Co6 2.039 . S
O17 C7 1.265 . S
C18 O14 1.253 . S
C18 O19 1.227 . S
O19 C18 1.227 . S
N20 Co6 2.140 . S
N20 C23 1.346 . S
N20 C24 1.345 . S
C21 C22 1.387 . S
C21 C25 1.391 . S
C22 C21 1.387 . S
C22 C23 1.369 . S
C22 H31 0.929 1_554 S
C23 N20 1.346 . S
C23 C22 1.369 . S
C23 H26 0.928 1_554 S
C24 N20 1.345 . S
C24 C25 1.371 . S
C24 H27 0.931 . S
C25 C21 1.391 . S
C25 C24 1.371 . S
C25 H32 0.930 . S
H26 C23 0.928 1_556 S
H27 C24 0.931 . S
H28 C4 0.930 . S
H29 C1 0.930 . S
H30 C10 0.930 . S
H31 C22 0.929 1_556 S
H32 C25 0.930 . S
C33 C34 1.351 . S
C33 N36 1.368 . S
C33 H38 0.931 . S
C34 C33 1.351 . S
C34 N35 1.373 . S
C34 H62 0.930 . S
N35 C34 1.373 . S
N35 C37 1.340 . S
N36 C33 1.368 . S
N36 C37 1.321 . S
N36 Co39 2.135 1_556 S
C37 N35 1.340 . S
C37 N36 1.321 . S
C37 H61 0.930 . S
H38 C33 0.931 . S
Co39 N36 2.135 1_554 S
Co39 N42 2.121 . S
Co39 O47 2.055 . S
Co39 O50 2.039 . S
Co39 N53 2.140 . S
C40 O41 1.227 . S
C40 O50 1.265 . S
O41 C40 1.227 . S
N42 Co39 2.121 . S
N42 C44 1.375 . S
N42 C45 1.313 . S
C43 C44 1.338 . S
C43 N46 1.377 . S
C43 H63 0.930 . S
C44 N42 1.375 . S
C44 C43 1.338 . S
C44 H48 0.931 . S
C45 N42 1.313 . S
C45 N46 1.344 . S
C45 H49 0.930 . S
N46 C43 1.377 . S
N46 C45 1.344 . S
O47 Co39 2.055 . S
O47 C51 1.253 . S
H48 C44 0.931 . S
H49 C45 0.930 . S
O50 Co39 2.039 . S
O50 C40 1.265 . S
C51 O47 1.253 . S
C51 O52 1.227 . S
O52 C51 1.227 . S
N53 Co39 2.140 . S
N53 C56 1.346 . S
N53 C57 1.345 . S
C54 C55 1.387 . S
C54 C58 1.391 . S
C55 C54 1.387 . S
C55 C56 1.369 . S
C55 H64 0.929 1_554 S
C56 N53 1.346 . S
C56 C55 1.369 . S
C56 H59 0.928 1_554 S
C57 N53 1.345 . S
C57 C58 1.371 . S
C57 H60 0.931 . S
C58 C54 1.391 . S
C58 C57 1.371 . S
C58 H65 0.930 . S
H59 C56 0.928 1_556 S
H60 C57 0.931 . S
H61 C37 0.930 . S
H62 C34 0.930 . S
H63 C43 0.930 . S
H64 C55 0.929 1_556 S
H65 C58 0.930 . S
C66 C67 1.351 . S
C66 N69 1.368 . S
C66 H71 0.931 . S
C67 C66 1.351 . S
C67 N68 1.373 . S
C67 H95 0.930 . S
N68 C67 1.373 . S
N68 C70 1.340 . S
N69 C66 1.368 . S
N69 C70 1.321 . S
N69 Co72 2.135 1_554 S
C70 N68 1.340 . S
C70 N69 1.321 . S
C70 H94 0.930 . S
H71 C66 0.931 . S
Co72 N69 2.135 1_556 S
Co72 N75 2.121 . S
Co72 O80 2.055 . S
Co72 O83 2.039 . S
Co72 N86 2.140 . S
C73 O74 1.227 . S
C73 O83 1.265 . S
O74 C73 1.227 . S
N75 Co72 2.121 . S
N75 C77 1.375 . S
N75 C78 1.313 . S
C76 C77 1.338 . S
C76 N79 1.377 . S
C76 H96 0.930 . S
C77 N75 1.375 . S
C77 C76 1.338 . S
C77 H81 0.931 . S
C78 N75 1.313 . S
C78 N79 1.344 . S
C78 H82 0.930 . S
N79 C76 1.377 . S
N79 C78 1.344 . S
O80 Co72 2.055 . S
O80 C84 1.253 . S
H81 C77 0.931 . S
H82 C78 0.930 . S
O83 Co72 2.039 . S
O83 C73 1.265 . S
C84 O80 1.253 . S
C84 O85 1.227 . S
O85 C84 1.227 . S
N86 Co72 2.140 . S
N86 C89 1.346 . S
N86 C90 1.345 . S
C87 C88 1.387 . S
C87 C91 1.391 . S
C88 C87 1.387 . S
C88 C89 1.369 . S
C88 H97 0.929 1_556 S
C89 N86 1.346 . S
C89 C88 1.369 . S
C89 H92 0.928 1_556 S
C90 N86 1.345 . S
C90 C91 1.371 . S
C90 H93 0.931 . S
C91 C87 1.391 . S
C91 C90 1.371 . S
C91 H98 0.930 . S
H92 C89 0.928 1_554 S
H93 C90 0.931 . S
H94 C70 0.930 . S
H95 C67 0.930 . S
H96 C76 0.930 . S
H97 C88 0.929 1_554 S
H98 C91 0.930 . S
C99 C100 1.351 . S
C99 N102 1.368 . S
C99 H104 0.931 . S
C100 C99 1.351 . S
C100 N101 1.373 . S
C100 H128 0.930 . S
N101 C100 1.373 . S
N101 C103 1.340 . S
N102 C99 1.368 . S
N102 C103 1.321 . S
N102 Co105 2.135 1_554 S
C103 N101 1.340 . S
C103 N102 1.321 . S
C103 H127 0.930 . S
H104 C99 0.931 . S
Co105 N102 2.135 1_556 S
Co105 N108 2.121 . S
Co105 O113 2.055 . S
Co105 O116 2.039 . S
Co105 N119 2.140 . S
C106 O107 1.227 . S
C106 O116 1.265 . S
O107 C106 1.227 . S
N108 Co105 2.121 . S
N108 C110 1.375 . S
N108 C111 1.313 . S
C109 C110 1.338 . S
C109 N112 1.377 . S
C109 H129 0.930 . S
C110 N108 1.375 . S
C110 C109 1.338 . S
C110 H114 0.931 . S
C111 N108 1.313 . S
C111 N112 1.344 . S
C111 H115 0.930 . S
N112 C109 1.377 . S
N112 C111 1.344 . S
O113 Co105 2.055 . S
O113 C117 1.253 . S
H114 C110 0.931 . S
H115 C111 0.930 . S
O116 Co105 2.039 . S
O116 C106 1.265 . S
C117 O113 1.253 . S
C117 O118 1.227 . S
O118 C117 1.227 . S
N119 Co105 2.140 . S
N119 C122 1.346 . S
N119 C123 1.345 . S
C120 C121 1.387 . S
C120 C124 1.391 . S
C121 C120 1.387 . S
C121 C122 1.369 . S
C121 H130 0.929 1_556 S
C122 N119 1.346 . S
C122 C121 1.369 . S
C122 H125 0.928 1_556 S
C123 N119 1.345 . S
C123 C124 1.371 . S
C123 H126 0.931 . S
C124 C120 1.391 . S
C124 C123 1.371 . S
C124 H131 0.930 . S
H125 C122 0.928 1_554 S
H126 C123 0.931 . S
H127 C103 0.930 . S
H128 C100 0.930 . S
H129 C109 0.930 . S
H130 C121 0.929 1_554 S
H131 C124 0.930 . S
C132 C133 1.351 . S
C132 N135 1.368 . S
C132 H137 0.931 . S
C133 C132 1.351 . S
C133 N134 1.373 . S
C133 H161 0.930 . S
N134 C133 1.373 . S
N134 C136 1.340 . S
N135 C132 1.368 . S
N135 C136 1.321 . S
N135 Co138 2.135 . S
C136 N134 1.340 . S
C136 N135 1.321 . S
C136 H160 0.930 . S
H137 C132 0.931 . S
Co138 N135 2.135 . S
Co138 N141 2.121 . S
Co138 O146 2.055 . S
Co138 O149 2.039 . S
Co138 N152 2.140 . S
C139 O140 1.227 . S
C139 O149 1.265 . S
O140 C139 1.227 . S
N141 Co138 2.121 . S
N141 C143 1.375 . S
N141 C144 1.313 . S
C142 C143 1.338 . S
C142 N145 1.377 . S
C142 H162 0.930 . S
C143 N141 1.375 . S
C143 C142 1.338 . S
C143 H147 0.931 . S
C144 N141 1.313 . S
C144 N145 1.344 . S
C144 H148 0.930 . S
N145 C142 1.377 . S
N145 C144 1.344 . S
O146 Co138 2.055 . S
O146 C150 1.253 . S
H147 C143 0.931 . S
H148 C144 0.930 . S
O149 Co138 2.039 . S
O149 C139 1.265 . S
C150 O146 1.253 . S
C150 O151 1.227 . S
O151 C150 1.227 . S
N152 Co138 2.140 . S
N152 C155 1.346 . S
N152 C156 1.345 . S
C153 C154 1.387 . S
C153 C157 1.391 . S
C154 C153 1.387 . S
C154 C155 1.369 . S
C154 H163 0.929 . S
C155 N152 1.346 . S
C155 C154 1.369 . S
C155 H158 0.928 . S
C156 N152 1.345 . S
C156 C157 1.371 . S
C156 H159 0.931 . S
C157 C153 1.391 . S
C157 C156 1.371 . S
C157 H164 0.930 . S
H158 C155 0.928 . S
H159 C156 0.931 . S
H160 C136 0.930 . S
H161 C133 0.930 . S
H162 C142 0.930 . S
H163 C154 0.929 . S
H164 C157 0.930 . S
C165 C166 1.351 . S
C165 N168 1.368 . S
C165 H170 0.931 . S
C166 C165 1.351 . S
C166 N167 1.373 . S
C166 H194 0.930 . S
N167 C166 1.373 . S
N167 C169 1.340 . S
N168 C165 1.368 . S
N168 C169 1.321 . S
N168 Co171 2.135 . S
C169 N167 1.340 . S
C169 N168 1.321 . S
C169 H193 0.930 . S
H170 C165 0.931 . S
Co171 N168 2.135 . S
Co171 N174 2.121 . S
Co171 O179 2.055 . S
Co171 O182 2.039 . S
Co171 N185 2.140 . S
C172 O173 1.227 . S
C172 O182 1.265 . S
O173 C172 1.227 . S
N174 Co171 2.121 . S
N174 C176 1.375 . S
N174 C177 1.313 . S
C175 C176 1.338 . S
C175 N178 1.377 . S
C175 H195 0.930 . S
C176 N174 1.375 . S
C176 C175 1.338 . S
C176 H180 0.931 . S
C177 N174 1.313 . S
C177 N178 1.344 . S
C177 H181 0.930 . S
N178 C175 1.377 . S
N178 C177 1.344 . S
O179 Co171 2.055 . S
O179 C183 1.253 . S
H180 C176 0.931 . S
H181 C177 0.930 . S
O182 Co171 2.039 . S
O182 C172 1.265 . S
C183 O179 1.253 . S
C183 O184 1.227 . S
O184 C183 1.227 . S
N185 Co171 2.140 . S
N185 C188 1.346 . S
N185 C189 1.345 . S
C186 C187 1.387 . S
C186 C190 1.391 . S
C187 C186 1.387 . S
C187 C188 1.369 . S
C187 H196 0.929 . S
C188 N185 1.346 . S
C188 C187 1.369 . S
C188 H191 0.928 . S
C189 N185 1.345 . S
C189 C190 1.371 . S
C189 H192 0.931 . S
C190 C186 1.391 . S
C190 C189 1.371 . S
C190 H197 0.930 . S
H191 C188 0.928 . S
H192 C189 0.931 . S
H193 C169 0.930 . S
H194 C166 0.930 . S
H195 C175 0.930 . S
H196 C187 0.929 . S
H197 C190 0.930 . S
C198 C199 1.351 . S
C198 N201 1.368 . S
C198 H203 0.931 . S
C199 C198 1.351 . S
C199 N200 1.373 . S
C199 H227 0.930 . S
N200 C199 1.373 . S
N200 C202 1.340 . S
N201 C198 1.368 . S
N201 C202 1.321 . S
N201 Co204 2.135 . S
C202 N200 1.340 . S
C202 N201 1.321 . S
C202 H226 0.930 . S
H203 C198 0.931 . S
Co204 N201 2.135 . S
Co204 N207 2.121 . S
Co204 O212 2.055 . S
Co204 O215 2.039 . S
Co204 N218 2.140 . S
C205 O206 1.227 . S
C205 O215 1.265 . S
O206 C205 1.227 . S
N207 Co204 2.121 . S
N207 C209 1.375 . S
N207 C210 1.313 . S
C208 C209 1.338 . S
C208 N211 1.377 . S
C208 H228 0.930 . S
C209 N207 1.375 . S
C209 C208 1.338 . S
C209 H213 0.931 . S
C210 N207 1.313 . S
C210 N211 1.344 . S
C210 H214 0.930 . S
N211 C208 1.377 . S
N211 C210 1.344 . S
O212 Co204 2.055 . S
O212 C216 1.253 . S
H213 C209 0.931 . S
H214 C210 0.930 . S
O215 Co204 2.039 . S
O215 C205 1.265 . S
C216 O212 1.253 . S
C216 O217 1.227 . S
O217 C216 1.227 . S
N218 Co204 2.140 . S
N218 C221 1.346 . S
N218 C222 1.345 . S
C219 C220 1.387 . S
C219 C223 1.391 . S
C220 C219 1.387 . S
C220 C221 1.369 . S
C220 H229 0.929 . S
C221 N218 1.346 . S
C221 C220 1.369 . S
C221 H224 0.928 . S
C222 N218 1.345 . S
C222 C223 1.371 . S
C222 H225 0.931 . S
C223 C219 1.391 . S
C223 C222 1.371 . S
C223 H230 0.930 . S
H224 C221 0.928 . S
H225 C222 0.931 . S
H226 C202 0.930 . S
H227 C199 0.930 . S
H228 C208 0.930 . S
H229 C220 0.929 . S
H230 C223 0.930 . S
C231 C232 1.351 . S
C231 N234 1.368 . S
C231 H236 0.931 . S
C232 C231 1.351 . S
C232 N233 1.373 . S
C232 H260 0.930 . S
N233 C232 1.373 . S
N233 C235 1.340 . S
N234 C231 1.368 . S
N234 C235 1.321 . S
N234 Co237 2.135 . S
C235 N233 1.340 . S
C235 N234 1.321 . S
C235 H259 0.930 . S
H236 C231 0.931 . S
Co237 N234 2.135 . S
Co237 N240 2.121 . S
Co237 O245 2.055 . S
Co237 O248 2.039 . S
Co237 N251 2.140 . S
C238 O239 1.227 . S
C238 O248 1.265 . S
O239 C238 1.227 . S
N240 Co237 2.121 . S
N240 C242 1.375 . S
N240 C243 1.313 . S
C241 C242 1.338 . S
C241 N244 1.377 . S
C241 H261 0.930 . S
C242 N240 1.375 . S
C242 C241 1.338 . S
C242 H246 0.931 . S
C243 N240 1.313 . S
C243 N244 1.344 . S
C243 H247 0.930 . S
N244 C241 1.377 . S
N244 C243 1.344 . S
O245 Co237 2.055 . S
O245 C249 1.253 . S
H246 C242 0.931 . S
H247 C243 0.930 . S
O248 Co237 2.039 . S
O248 C238 1.265 . S
C249 O245 1.253 . S
C249 O250 1.227 . S
O250 C249 1.227 . S
N251 Co237 2.140 . S
N251 C254 1.346 . S
N251 C255 1.345 . S
C252 C253 1.387 . S
C252 C256 1.391 . S
C253 C252 1.387 . S
C253 C254 1.369 . S
C253 H262 0.929 . S
C254 N251 1.346 . S
C254 C253 1.369 . S
C254 H257 0.928 . S
C255 N251 1.345 . S
C255 C256 1.371 . S
C255 H258 0.931 . S
C256 C252 1.391 . S
C256 C255 1.371 . S
C256 H263 0.930 . S
H257 C254 0.928 . S
H258 C255 0.931 . S
H259 C235 0.930 . S
H260 C232 0.930 . S
H261 C241 0.930 . S
H262 C253 0.929 . S
H263 C256 0.930 . S
C264 C265 1.351 . S
C264 N267 1.368 . S
C264 H269 0.931 . S
C265 C264 1.351 . S
C265 N266 1.373 . S
C265 H293 0.930 . S
N266 C265 1.373 . S
N266 C268 1.340 . S
N267 C264 1.368 . S
N267 C268 1.321 . S
N267 Co270 2.135 . S
C268 N266 1.340 . S
C268 N267 1.321 . S
C268 H292 0.930 . S
H269 C264 0.931 . S
Co270 N267 2.135 . S
Co270 N273 2.121 . S
Co270 O278 2.055 . S
Co270 O281 2.039 . S
Co270 N284 2.140 . S
C271 O272 1.227 . S
C271 O281 1.265 . S
O272 C271 1.227 . S
N273 Co270 2.121 . S
N273 C275 1.375 . S
N273 C276 1.313 . S
C274 C275 1.338 . S
C274 N277 1.377 . S
C274 H294 0.930 . S
C275 N273 1.375 . S
C275 C274 1.338 . S
C275 H279 0.931 . S
C276 N273 1.313 . S
C276 N277 1.344 . S
C276 H280 0.930 . S
N277 C274 1.377 . S
N277 C276 1.344 . S
O278 Co270 2.055 . S
O278 C282 1.253 . S
H279 C275 0.931 . S
H280 C276 0.930 . S
O281 Co270 2.039 . S
O281 C271 1.265 . S
C282 O278 1.253 . S
C282 O283 1.227 . S
O283 C282 1.227 . S
N284 Co270 2.140 . S
N284 C287 1.346 . S
N284 C288 1.345 . S
C285 C286 1.387 . S
C285 C289 1.391 . S
C286 C285 1.387 . S
C286 C287 1.369 . S
C286 H295 0.929 . S
C287 N284 1.346 . S
C287 C286 1.369 . S
C287 H290 0.928 . S
C288 N284 1.345 . S
C288 C289 1.371 . S
C288 H291 0.931 . S
C289 C285 1.391 . S
C289 C288 1.371 . S
C289 H296 0.930 . S
H290 C287 0.928 . S
H291 C288 0.931 . S
H292 C268 0.930 . S
H293 C265 0.930 . S
H294 C274 0.930 . S
H295 C286 0.929 . S
H296 C289 0.930 . S
C297 C298 1.351 . S
C297 N300 1.368 . S
C297 H302 0.931 . S
C298 C297 1.351 . S
C298 N299 1.373 . S
C298 H326 0.930 . S
N299 C298 1.373 . S
N299 C301 1.340 . S
N300 C297 1.368 . S
N300 C301 1.321 . S
N300 Co303 2.135 . S
C301 N299 1.340 . S
C301 N300 1.321 . S
C301 H325 0.930 . S
H302 C297 0.931 . S
Co303 N300 2.135 . S
Co303 N306 2.121 . S
Co303 O311 2.055 . S
Co303 O314 2.039 . S
Co303 N317 2.140 . S
C304 O305 1.227 . S
C304 O314 1.265 . S
O305 C304 1.227 . S
N306 Co303 2.121 . S
N306 C308 1.375 . S
N306 C309 1.313 . S
C307 C308 1.338 . S
C307 N310 1.377 . S
C307 H327 0.930 . S
C308 N306 1.375 . S
C308 C307 1.338 . S
C308 H312 0.931 . S
C309 N306 1.313 . S
C309 N310 1.344 . S
C309 H313 0.930 . S
N310 C307 1.377 . S
N310 C309 1.344 . S
O311 Co303 2.055 . S
O311 C315 1.253 . S
H312 C308 0.931 . S
H313 C309 0.930 . S
O314 Co303 2.039 . S
O314 C304 1.265 . S
C315 O311 1.253 . S
C315 O316 1.227 . S
O316 C315 1.227 . S
N317 Co303 2.140 . S
N317 C320 1.346 . S
N317 C321 1.345 . S
C318 C319 1.387 . S
C318 C322 1.391 . S
C319 C318 1.387 . S
C319 C320 1.369 . S
C319 H328 0.929 . S
C320 N317 1.346 . S
C320 C319 1.369 . S
C320 H323 0.928 . S
C321 N317 1.345 . S
C321 C322 1.371 . S
C321 H324 0.931 . S
C322 C318 1.391 . S
C322 C321 1.371 . S
C322 H329 0.930 . S
H323 C320 0.928 . S
H324 C321 0.931 . S
H325 C301 0.930 . S
H326 C298 0.930 . S
H327 C307 0.930 . S
H328 C319 0.929 . S
H329 C322 0.930 . S
C330 C331 1.351 . S
C330 N333 1.368 . S
C330 H335 0.931 . S
C331 C330 1.351 . S
C331 N332 1.373 . S
C331 H359 0.930 . S
N332 C331 1.373 . S
N332 C334 1.340 . S
N333 C330 1.368 . S
N333 C334 1.321 . S
N333 Co336 2.135 . S
C334 N332 1.340 . S
C334 N333 1.321 . S
C334 H358 0.930 . S
H335 C330 0.931 . S
Co336 N333 2.135 . S
Co336 N339 2.121 . S
Co336 O344 2.055 . S
Co336 O347 2.039 . S
Co336 N350 2.140 . S
C337 O338 1.227 . S
C337 O347 1.265 . S
O338 C337 1.227 . S
N339 Co336 2.121 . S
N339 C341 1.375 . S
N339 C342 1.313 . S
C340 C341 1.338 . S
C340 N343 1.377 . S
C340 H360 0.930 . S
C341 N339 1.375 . S
C341 C340 1.338 . S
C341 H345 0.931 . S
C342 N339 1.313 . S
C342 N343 1.344 . S
C342 H346 0.930 . S
N343 C340 1.377 . S
N343 C342 1.344 . S
O344 Co336 2.055 . S
O344 C348 1.253 . S
H345 C341 0.931 . S
H346 C342 0.930 . S
O347 Co336 2.039 . S
O347 C337 1.265 . S
C348 O344 1.253 . S
C348 O349 1.227 . S
O349 C348 1.227 . S
N350 Co336 2.140 . S
N350 C353 1.346 . S
N350 C354 1.345 . S
C351 C352 1.387 . S
C351 C355 1.391 . S
C352 C351 1.387 . S
C352 C353 1.369 . S
C352 H361 0.929 . S
C353 N350 1.346 . S
C353 C352 1.369 . S
C353 H356 0.928 . S
C354 N350 1.345 . S
C354 C355 1.371 . S
C354 H357 0.931 . S
C355 C351 1.391 . S
C355 C354 1.371 . S
C355 H362 0.930 . S
H356 C353 0.928 . S
H357 C354 0.931 . S
H358 C334 0.930 . S
H359 C331 0.930 . S
H360 C340 0.930 . S
H361 C352 0.929 . S
H362 C355 0.930 . S
C363 C364 1.351 . S
C363 N366 1.368 . S
C363 H368 0.931 . S
C364 C363 1.351 . S
C364 N365 1.373 . S
C364 H392 0.930 . S
N365 C364 1.373 . S
N365 C367 1.340 . S
N366 C363 1.368 . S
N366 C367 1.321 . S
N366 Co369 2.135 . S
C367 N365 1.340 . S
C367 N366 1.321 . S
C367 H391 0.930 . S
H368 C363 0.931 . S
Co369 N366 2.135 . S
Co369 N372 2.121 . S
Co369 O377 2.055 . S
Co369 O380 2.039 . S
Co369 N383 2.140 . S
C370 O371 1.227 . S
C370 O380 1.265 . S
O371 C370 1.227 . S
N372 Co369 2.121 . S
N372 C374 1.375 . S
N372 C375 1.313 . S
C373 C374 1.338 . S
C373 N376 1.377 . S
C373 H393 0.930 . S
C374 N372 1.375 . S
C374 C373 1.338 . S
C374 H378 0.931 . S
C375 N372 1.313 . S
C375 N376 1.344 . S
C375 H379 0.930 . S
N376 C373 1.377 . S
N376 C375 1.344 . S
O377 Co369 2.055 . S
O377 C381 1.253 . S
H378 C374 0.931 . S
H379 C375 0.930 . S
O380 Co369 2.039 . S
O380 C370 1.265 . S
C381 O377 1.253 . S
C381 O382 1.227 . S
O382 C381 1.227 . S
N383 Co369 2.140 . S
N383 C386 1.346 . S
N383 C387 1.345 . S
C384 C385 1.387 . S
C384 C388 1.391 . S
C385 C384 1.387 . S
C385 C386 1.369 . S
C385 H394 0.929 . S
C386 N383 1.346 . S
C386 C385 1.369 . S
C386 H389 0.928 . S
C387 N383 1.345 . S
C387 C388 1.371 . S
C387 H390 0.931 . S
C388 C384 1.391 . S
C388 C387 1.371 . S
C388 H395 0.930 . S
H389 C386 0.928 . S
H390 C387 0.931 . S
H391 C367 0.930 . S
H392 C364 0.930 . S
H393 C373 0.930 . S
H394 C385 0.929 . S
H395 C388 0.930 . S
C396 C397 1.351 . S
C396 N399 1.368 . S
C396 H401 0.931 . S
C397 C396 1.351 . S
C397 N398 1.373 . S
C397 H425 0.930 . S
N398 C397 1.373 . S
N398 C400 1.340 . S
N399 C396 1.368 . S
N399 C400 1.321 . S
N399 Co402 2.135 1_556 S
C400 N398 1.340 . S
C400 N399 1.321 . S
C400 H424 0.930 . S
H401 C396 0.931 . S
Co402 N399 2.135 1_554 S
Co402 N405 2.121 . S
Co402 O410 2.055 . S
Co402 O413 2.039 . S
Co402 N416 2.140 . S
C403 O404 1.227 . S
C403 O413 1.265 . S
O404 C403 1.227 . S
N405 Co402 2.121 . S
N405 C407 1.375 . S
N405 C408 1.313 . S
C406 C407 1.338 . S
C406 N409 1.377 . S
C406 H426 0.930 . S
C407 N405 1.375 . S
C407 C406 1.338 . S
C407 H411 0.931 . S
C408 N405 1.313 . S
C408 N409 1.344 . S
C408 H412 0.930 . S
N409 C406 1.377 . S
N409 C408 1.344 . S
O410 Co402 2.055 . S
O410 C414 1.253 . S
H411 C407 0.931 . S
H412 C408 0.930 . S
O413 Co402 2.039 . S
O413 C403 1.265 . S
C414 O410 1.253 . S
C414 O415 1.227 . S
O415 C414 1.227 . S
N416 Co402 2.140 . S
N416 C419 1.346 . S
N416 C420 1.345 . S
C417 C418 1.387 . S
C417 C421 1.391 . S
C418 C417 1.387 . S
C418 C419 1.369 . S
C418 H427 0.929 1_554 S
C419 N416 1.346 . S
C419 C418 1.369 . S
C419 H422 0.928 1_554 S
C420 N416 1.345 . S
C420 C421 1.371 . S
C420 H423 0.931 . S
C421 C417 1.391 . S
C421 C420 1.371 . S
C421 H428 0.930 . S
H422 C419 0.928 1_556 S
H423 C420 0.931 . S
H424 C400 0.930 . S
H425 C397 0.930 . S
H426 C406 0.930 . S
H427 C418 0.929 1_556 S
H428 C421 0.930 . S
C429 C430 1.351 . S
C429 N432 1.368 . S
C429 H434 0.931 . S
C430 C429 1.351 . S
C430 N431 1.373 . S
C430 H458 0.930 . S
N431 C430 1.373 . S
N431 C433 1.340 . S
N432 C429 1.368 . S
N432 C433 1.321 . S
N432 Co435 2.135 1_556 S
C433 N431 1.340 . S
C433 N432 1.321 . S
C433 H457 0.930 . S
H434 C429 0.931 . S
Co435 N432 2.135 1_554 S
Co435 N438 2.121 . S
Co435 O443 2.055 . S
Co435 O446 2.039 . S
Co435 N449 2.140 . S
C436 O437 1.227 . S
C436 O446 1.265 . S
O437 C436 1.227 . S
N438 Co435 2.121 . S
N438 C440 1.375 . S
N438 C441 1.313 . S
C439 C440 1.338 . S
C439 N442 1.377 . S
C439 H459 0.930 . S
C440 N438 1.375 . S
C440 C439 1.338 . S
C440 H444 0.931 . S
C441 N438 1.313 . S
C441 N442 1.344 . S
C441 H445 0.930 . S
N442 C439 1.377 . S
N442 C441 1.344 . S
O443 Co435 2.055 . S
O443 C447 1.253 . S
H444 C440 0.931 . S
H445 C441 0.930 . S
O446 Co435 2.039 . S
O446 C436 1.265 . S
C447 O443 1.253 . S
C447 O448 1.227 . S
O448 C447 1.227 . S
N449 Co435 2.140 . S
N449 C452 1.346 . S
N449 C453 1.345 . S
C450 C451 1.387 . S
C450 C454 1.391 . S
C451 C450 1.387 . S
C451 C452 1.369 . S
C451 H460 0.929 1_554 S
C452 N449 1.346 . S
C452 C451 1.369 . S
C452 H455 0.928 1_554 S
C453 N449 1.345 . S
C453 C454 1.371 . S
C453 H456 0.931 . S
C454 C450 1.391 . S
C454 C453 1.371 . S
C454 H461 0.930 . S
H455 C452 0.928 1_556 S
H456 C453 0.931 . S
H457 C433 0.930 . S
H458 C430 0.930 . S
H459 C439 0.930 . S
H460 C451 0.929 1_556 S
H461 C454 0.930 . S
C462 C463 1.351 . S
C462 N465 1.368 . S
C462 H467 0.931 . S
C463 C462 1.351 . S
C463 N464 1.373 . S
C463 H491 0.930 . S
N464 C463 1.373 . S
N464 C466 1.340 . S
N465 C462 1.368 . S
N465 C466 1.321 . S
N465 Co468 2.135 1_554 S
C466 N464 1.340 . S
C466 N465 1.321 . S
C466 H490 0.930 . S
H467 C462 0.931 . S
Co468 N465 2.135 1_556 S
Co468 N471 2.121 . S
Co468 O476 2.055 . S
Co468 O479 2.039 . S
Co468 N482 2.140 . S
C469 O470 1.227 . S
C469 O479 1.265 . S
O470 C469 1.227 . S
N471 Co468 2.121 . S
N471 C473 1.375 . S
N471 C474 1.313 . S
C472 C473 1.338 . S
C472 N475 1.377 . S
C472 H492 0.930 . S
C473 N471 1.375 . S
C473 C472 1.338 . S
C473 H477 0.931 . S
C474 N471 1.313 . S
C474 N475 1.344 . S
C474 H478 0.930 . S
N475 C472 1.377 . S
N475 C474 1.344 . S
O476 Co468 2.055 . S
O476 C480 1.253 . S
H477 C473 0.931 . S
H478 C474 0.930 . S
O479 Co468 2.039 . S
O479 C469 1.265 . S
C480 O476 1.253 . S
C480 O481 1.227 . S
O481 C480 1.227 . S
N482 Co468 2.140 . S
N482 C485 1.346 . S
N482 C486 1.345 . S
C483 C484 1.387 . S
C483 C487 1.391 . S
C484 C483 1.387 . S
C484 C485 1.369 . S
C484 H493 0.929 1_556 S
C485 N482 1.346 . S
C485 C484 1.369 . S
C485 H488 0.928 1_556 S
C486 N482 1.345 . S
C486 C487 1.371 . S
C486 H489 0.931 . S
C487 C483 1.391 . S
C487 C486 1.371 . S
C487 H494 0.930 . S
H488 C485 0.928 1_554 S
H489 C486 0.931 . S
H490 C466 0.930 . S
H491 C463 0.930 . S
H492 C472 0.930 . S
H493 C484 0.929 1_554 S
H494 C487 0.930 . S
C495 C496 1.351 . S
C495 N498 1.368 . S
C495 H500 0.931 . S
C496 C495 1.351 . S
C496 N497 1.373 . S
C496 H524 0.930 . S
N497 C496 1.373 . S
N497 C499 1.340 . S
N498 C495 1.368 . S
N498 C499 1.321 . S
N498 Co501 2.135 1_554 S
C499 N497 1.340 . S
C499 N498 1.321 . S
C499 H523 0.930 . S
H500 C495 0.931 . S
Co501 N498 2.135 1_556 S
Co501 N504 2.121 . S
Co501 O509 2.055 . S
Co501 O512 2.039 . S
Co501 N515 2.140 . S
C502 O503 1.227 . S
C502 O512 1.265 . S
O503 C502 1.227 . S
N504 Co501 2.121 . S
N504 C506 1.375 . S
N504 C507 1.313 . S
C505 C506 1.338 . S
C505 N508 1.377 . S
C505 H525 0.930 . S
C506 N504 1.375 . S
C506 C505 1.338 . S
C506 H510 0.931 . S
C507 N504 1.313 . S
C507 N508 1.344 . S
C507 H511 0.930 . S
N508 C505 1.377 . S
N508 C507 1.344 . S
O509 Co501 2.055 . S
O509 C513 1.253 . S
H510 C506 0.931 . S
H511 C507 0.930 . S
O512 Co501 2.039 . S
O512 C502 1.265 . S
C513 O509 1.253 . S
C513 O514 1.227 . S
O514 C513 1.227 . S
N515 Co501 2.140 . S
N515 C518 1.346 . S
N515 C519 1.345 . S
C516 C517 1.387 . S
C516 C520 1.391 . S
C517 C516 1.387 . S
C517 C518 1.369 . S
C517 H526 0.929 1_556 S
C518 N515 1.346 . S
C518 C517 1.369 . S
C518 H521 0.928 1_556 S
C519 N515 1.345 . S
C519 C520 1.371 . S
C519 H522 0.931 . S
C520 C516 1.391 . S
C520 C519 1.371 . S
C520 H527 0.930 . S
H521 C518 0.928 1_554 S
H522 C519 0.931 . S
H523 C499 0.930 . S
H524 C496 0.930 . S
H525 C505 0.930 . S
H526 C517 0.929 1_554 S
H527 C520 0.930 . S
C528 C529 1.363 . S
C528 C534 1.379 . S
C528 N536 1.356 . S
C529 C528 1.363 . S
C529 C535 1.363 . S
C530 C531 1.363 . S
C530 C535 1.379 . S
C530 N537 1.356 . S
C531 C530 1.363 . S
C531 C534 1.363 . S
N532 C534 1.356 . S
N532 H544 0.984 . S
N532 H545 0.985 . S
N533 C535 1.356 . S
N533 H538 0.984 . S
N533 H539 0.985 . S
C534 C528 1.379 . S
C534 C531 1.363 . S
C534 N532 1.356 . S
C535 C529 1.363 . S
C535 C530 1.379 . S
C535 N533 1.356 . S
N536 C528 1.356 . S
N536 H542 0.984 . S
N536 H543 0.984 . S
N537 C530 1.356 . S
N537 H540 0.984 . S
N537 H541 0.985 . S
H538 N533 0.984 . S
H539 N533 0.985 . S
H540 N537 0.984 . S
H541 N537 0.985 . S
H542 N536 0.984 . S
H543 N536 0.984 . S
H544 N532 0.984 . S
H545 N532 0.985 . S
C546 C547 1.363 . S
C546 C552 1.379 1_455 S
C546 N554 1.356 . S
C547 C546 1.363 . S
C547 C553 1.363 . S
C548 C549 1.363 . S
C548 C553 1.379 1_655 S
C548 N555 1.356 . S
C549 C548 1.363 . S
C549 C552 1.363 . S
N550 C552 1.356 . S
N550 H562 0.984 1_655 S
N550 H563 0.985 . S
N551 C553 1.356 . S
N551 H556 0.984 . S
N551 H557 0.985 1_455 S
C552 C546 1.379 1_655 S
C552 C549 1.363 . S
C552 N550 1.356 . S
C553 C547 1.363 . S
C553 C548 1.379 1_455 S
C553 N551 1.356 . S
N554 C546 1.356 . S
N554 H560 0.984 . S
N554 H561 0.984 . S
N555 C548 1.356 . S
N555 H558 0.984 . S
N555 H559 0.985 . S
H556 N551 0.984 . S
H557 N551 0.985 1_655 S
H558 N555 0.984 . S
H559 N555 0.985 . S
H560 N554 0.984 . S
H561 N554 0.984 . S
H562 N550 0.984 1_455 S
H563 N550 0.985 . S
C564 C565 1.363 . S
C564 C570 1.379 . S
C564 N572 1.356 . S
C565 C564 1.363 . S
C565 C571 1.363 1_556 S
C566 C567 1.363 . S
C566 C571 1.379 . S
C566 N573 1.356 . S
C567 C566 1.363 . S
C567 C570 1.363 1_554 S
N568 C570 1.356 . S
N568 H580 0.984 . S
N568 H581 0.985 1_556 S
N569 C571 1.356 . S
N569 H574 0.984 1_554 S
N569 H575 0.985 . S
C570 C564 1.379 . S
C570 C567 1.363 1_556 S
C570 N568 1.356 . S
C571 C565 1.363 1_554 S
C571 C566 1.379 . S
C571 N569 1.356 . S
N572 C564 1.356 . S
N572 H578 0.984 . S
N572 H579 0.984 . S
N573 C566 1.356 . S
N573 H576 0.984 . S
N573 H577 0.985 . S
H574 N569 0.984 1_556 S
H575 N569 0.985 . S
H576 N573 0.984 . S
H577 N573 0.985 . S
H578 N572 0.984 . S
H579 N572 0.984 . S
H580 N568 0.984 . S
H581 N568 0.985 1_554 S
C582 C583 1.363 1_554 S
C582 C588 1.379 1_655 S
C582 N590 1.356 . S
C583 C582 1.363 1_556 S
C583 C589 1.363 . S
C584 C585 1.363 1_556 S
C584 C589 1.379 1_455 S
C584 N591 1.356 . S
C585 C584 1.363 1_554 S
C585 C588 1.363 . S
N586 C588 1.356 . S
N586 H598 0.984 . S
N586 H599 0.985 . S
N587 C589 1.356 . S
N587 H592 0.984 . S
N587 H593 0.985 . S
C588 C582 1.379 1_455 S
C588 C585 1.363 . S
C588 N586 1.356 . S
C589 C583 1.363 . S
C589 C584 1.379 1_655 S
C589 N587 1.356 . S
N590 C582 1.356 . S
N590 H596 0.984 . S
N590 H597 0.984 . S
N591 C584 1.356 . S
N591 H594 0.984 . S
N591 H595 0.985 . S
H592 N587 0.984 . S
H593 N587 0.985 . S
H594 N591 0.984 . S
H595 N591 0.985 . S
H596 N590 0.984 . S
H597 N590 0.984 . S
H598 N586 0.984 . S
H599 N586 0.985 . S
C600 C601 1.363 . S
C600 C606 1.379 . S
C600 N608 1.356 . S
C601 C600 1.363 . S
C601 C607 1.363 . S
C602 C603 1.363 . S
C602 C607 1.379 . S
C602 N609 1.356 . S
C603 C602 1.363 . S
C603 C606 1.363 . S
N604 C606 1.356 . S
N604 H616 0.984 . S
N604 H617 0.985 . S
N605 C607 1.356 . S
N605 H610 0.984 . S
N605 H611 0.985 . S
C606 C600 1.379 . S
C606 C603 1.363 . S
C606 N604 1.356 . S
C607 C601 1.363 . S
C607 C602 1.379 . S
C607 N605 1.356 . S
N608 C600 1.356 . S
N608 H614 0.984 . S
N608 H615 0.984 . S
N609 C602 1.356 . S
N609 H612 0.984 . S
N609 H613 0.985 . S
H610 N605 0.984 . S
H611 N605 0.985 . S
H612 N609 0.984 . S
H613 N609 0.985 . S
H614 N608 0.984 . S
H615 N608 0.984 . S
H616 N604 0.984 . S
H617 N604 0.985 . S
C618 C619 1.363 1_655 S
C618 C624 1.379 . S
C618 N626 1.356 1_655 S
C619 C618 1.363 1_455 S
C619 C625 1.363 . S
C620 C621 1.363 1_455 S
C620 C625 1.379 . S
C620 N627 1.356 1_455 S
C621 C620 1.363 1_655 S
C621 C624 1.363 . S
N622 C624 1.356 . S
N622 H634 0.984 . S
N622 H635 0.985 . S
N623 C625 1.356 . S
N623 H628 0.984 . S
N623 H629 0.985 . S
C624 C618 1.379 . S
C624 C621 1.363 . S
C624 N622 1.356 . S
C625 C619 1.363 . S
C625 C620 1.379 . S
C625 N623 1.356 . S
N626 C618 1.356 1_455 S
N626 H632 0.984 1_455 S
N626 H633 0.984 . S
N627 C620 1.356 1_655 S
N627 H630 0.984 . S
N627 H631 0.985 1_655 S
H628 N623 0.984 . S
H629 N623 0.985 . S
H630 N627 0.984 . S
H631 N627 0.985 1_455 S
H632 N626 0.984 1_655 S
H633 N626 0.984 . S
H634 N622 0.984 . S
H635 N622 0.985 . S
C636 C637 1.363 . S
C636 C642 1.379 . S
C636 N644 1.356 . S
C637 C636 1.363 . S
C637 C643 1.363 1_554 S
C638 C639 1.363 . S
C638 C643 1.379 . S
C638 N645 1.356 . S
C639 C638 1.363 . S
C639 C642 1.363 1_556 S
N640 C642 1.356 . S
N640 H652 0.984 . S
N640 H653 0.985 . S
N641 C643 1.356 . S
N641 H646 0.984 . S
N641 H647 0.985 . S
C642 C636 1.379 . S
C642 C639 1.363 1_554 S
C642 N640 1.356 . S
C643 C637 1.363 1_556 S
C643 C638 1.379 . S
C643 N641 1.356 . S
N644 C636 1.356 . S
N644 H650 0.984 . S
N644 H651 0.984 . S
N645 C638 1.356 . S
N645 H648 0.984 . S
N645 H649 0.985 . S
H646 N641 0.984 . S
H647 N641 0.985 . S
H648 N645 0.984 . S
H649 N645 0.985 . S
H650 N644 0.984 . S
H651 N644 0.984 . S
H652 N640 0.984 . S
H653 N640 0.985 . S
C654 C655 1.363 1_545 S
C654 C660 1.379 . S
C654 N662 1.361 . S
C655 C654 1.363 1_565 S
C655 C661 1.363 . S
C656 C657 1.363 1_565 S
C656 C661 1.379 . S
C656 N663 1.361 . S
C657 C656 1.363 1_545 S
C657 C660 1.363 . S
N658 C660 1.356 . S
N658 H670 0.984 . S
N658 H671 0.985 . S
N659 C661 1.356 . S
N659 H664 0.984 . S
N659 H665 0.985 . S
C660 C654 1.379 . S
C660 C657 1.363 . S
C660 N658 1.356 . S
C661 C655 1.363 . S
C661 C656 1.379 . S
C661 N659 1.356 . S
N662 C654 1.361 . S
N662 H668 1.011 . S
N662 H669 0.956 1_545 S
N663 C656 1.361 . S
N663 H666 0.956 1_565 S
N663 H667 1.011 . S
H664 N659 0.984 . S
H665 N659 0.985 . S
H666 N663 0.956 1_545 S
H667 N663 1.011 . S
H668 N662 1.011 . S
H669 N662 0.956 1_565 S
H670 N658 0.984 . S
H671 N658 0.985 . S
C672 C673 1.363 . S
C672 C678 1.379 . S
C672 N680 1.356 . S
C673 C672 1.363 . S
C673 C679 1.363 . S
C674 C675 1.363 . S
C674 C679 1.379 . S
C674 N681 1.356 . S
C675 C674 1.363 . S
C675 C678 1.363 . S
N676 C678 1.356 . S
N676 H688 0.984 . S
N676 H689 0.985 . S
N677 C679 1.356 . S
N677 H682 0.984 . S
N677 H683 0.985 . S
C678 C672 1.379 . S
C678 C675 1.363 . S
C678 N676 1.356 . S
C679 C673 1.363 . S
C679 C674 1.379 . S
C679 N677 1.356 . S
N680 C672 1.356 . S
N680 H686 0.984 . S
N680 H687 0.984 . S
N681 C674 1.356 . S
N681 H684 0.984 . S
N681 H685 0.985 . S
H682 N677 0.984 . S
H683 N677 0.985 . S
H684 N681 0.984 . S
H685 N681 0.985 . S
H686 N680 0.984 . S
H687 N680 0.984 . S
H688 N676 0.984 . S
H689 N676 0.985 . S
C690 C691 1.363 1_455 S
C690 C696 1.379 . S
C690 N698 1.356 1_455 S
C691 C690 1.363 1_655 S
C691 C697 1.363 1_565 S
C692 C693 1.363 1_655 S
C692 C697 1.379 . S
C692 N699 1.356 1_655 S
C693 C692 1.363 1_455 S
C693 C696 1.363 1_545 S
N694 C696 1.356 . S
N694 H706 0.984 . S
N694 H707 0.985 1_565 S
N695 C697 1.356 . S
N695 H700 0.984 1_545 S
N695 H701 0.985 . S
C696 C690 1.379 . S
C696 C693 1.363 1_565 S
C696 N694 1.356 . S
C697 C691 1.363 1_545 S
C697 C692 1.379 . S
C697 N695 1.356 . S
N698 C690 1.356 1_655 S
N698 H704 0.984 1_655 S
N698 H705 0.984 . S
N699 C692 1.356 1_455 S
N699 H702 0.984 . S
N699 H703 0.985 1_455 S
H700 N695 0.984 1_565 S
H701 N695 0.985 . S
H702 N699 0.984 . S
H703 N699 0.985 1_655 S
H704 N698 0.984 1_455 S
H705 N698 0.984 . S
H706 N694 0.984 . S
H707 N694 0.985 1_545 S
C708 C709 1.363 . S
C708 C714 1.379 . S
C708 N716 1.356 . S
C709 C708 1.363 . S
C709 C715 1.363 1_545 S
C710 C711 1.363 . S
C710 C715 1.379 . S
C710 N717 1.356 . S
C711 C710 1.363 . S
C711 C714 1.363 1_565 S
N712 C714 1.356 . S
N712 H724 0.984 . S
N712 H725 0.985 . S
N713 C715 1.356 . S
N713 H718 0.984 . S
N713 H719 0.985 . S
C714 C708 1.379 . S
C714 C711 1.363 1_545 S
C714 N712 1.356 . S
C715 C709 1.363 1_565 S
C715 C710 1.379 . S
C715 N713 1.356 . S
N716 C708 1.356 . S
N716 H722 0.984 . S
N716 H723 0.984 . S
N717 C710 1.356 . S
N717 H720 0.984 . S
N717 H721 0.985 . S
H718 N713 0.984 . S
H719 N713 0.985 . S
H720 N717 0.984 . S
H721 N717 0.985 . S
H722 N716 0.984 . S
H723 N716 0.984 . S
H724 N712 0.984 . S
H725 N712 0.985 . S
C726 C727 1.363 . S
C726 C732 1.379 . S
C726 N734 1.356 . S
C727 C726 1.363 . S
C727 C733 1.363 . S
C728 C729 1.363 . S
C728 C733 1.379 . S
C728 N735 1.356 . S
C729 C728 1.363 . S
C729 C732 1.363 . S
N730 C732 1.356 . S
N730 H742 0.984 . S
N730 H743 0.985 . S
N731 C733 1.356 . S
N731 H736 0.984 . S
N731 H737 0.985 . S
C732 C726 1.379 . S
C732 C729 1.363 . S
C732 N730 1.356 . S
C733 C727 1.363 . S
C733 C728 1.379 . S
C733 N731 1.356 . S
N734 C726 1.356 . S
N734 H740 0.984 . S
N734 H741 0.984 . S
N735 C728 1.356 . S
N735 H738 0.984 . S
N735 H739 0.985 . S
H736 N731 0.984 . S
H737 N731 0.985 . S
H738 N735 0.984 . S
H739 N735 0.985 . S
H740 N734 0.984 . S
H741 N734 0.984 . S
H742 N730 0.984 . S
H743 N730 0.985 . S
C744 C745 1.363 . S
C744 C750 1.379 . S
C744 N752 1.356 . S
C745 C744 1.363 . S
C745 C751 1.363 . S
C746 C747 1.363 . S
C746 C751 1.379 . S
C746 N753 1.356 . S
C747 C746 1.363 . S
C747 C750 1.363 . S
N748 C750 1.356 . S
N748 H760 0.984 . S
N748 H761 0.985 . S
N749 C751 1.356 . S
N749 H754 0.984 . S
N749 H755 0.985 . S
C750 C744 1.379 . S
C750 C747 1.363 . S
C750 N748 1.356 . S
C751 C745 1.363 . S
C751 C746 1.379 . S
C751 N749 1.356 . S
N752 C744 1.356 . S
N752 H758 0.984 . S
N752 H759 0.984 . S
N753 C746 1.356 . S
N753 H756 0.984 . S
N753 H757 0.985 . S
H754 N749 0.984 . S
H755 N749 0.985 . S
H756 N753 0.984 . S
H757 N753 0.985 . S
H758 N752 0.984 . S
H759 N752 0.984 . S
H760 N748 0.984 . S
H761 N748 0.985 . S
C762 C763 1.363 . S
C762 C768 1.379 . S
C762 N770 1.356 . S
C763 C762 1.363 . S
C763 C769 1.363 . S
C764 C765 1.363 . S
C764 C769 1.379 . S
C764 N771 1.356 . S
C765 C764 1.363 . S
C765 C768 1.363 . S
N766 C768 1.356 . S
N766 H778 0.984 . S
N766 H779 0.985 . S
N767 C769 1.356 . S
N767 H772 0.984 . S
N767 H773 0.985 . S
C768 C762 1.379 . S
C768 C765 1.363 . S
C768 N766 1.356 . S
C769 C763 1.363 . S
C769 C764 1.379 . S
C769 N767 1.356 . S
N770 C762 1.356 . S
N770 H776 0.984 . S
N770 H777 0.984 . S
N771 C764 1.356 . S
N771 H774 0.984 . S
N771 H775 0.985 . S
H772 N767 0.984 . S
H773 N767 0.985 . S
H774 N771 0.984 . S
H775 N771 0.985 . S
H776 N770 0.984 . S
H777 N770 0.984 . S
H778 N766 0.984 . S
H779 N766 0.985 . S
C780 C781 1.363 . S
C780 C786 1.379 . S
C780 N788 1.356 . S
C781 C780 1.363 . S
C781 C787 1.363 . S
C782 C783 1.363 . S
C782 C787 1.379 . S
C782 N789 1.356 . S
C783 C782 1.363 . S
C783 C786 1.363 . S
N784 C786 1.356 . S
N784 H796 0.984 . S
N784 H797 0.985 . S
N785 C787 1.356 . S
N785 H790 0.984 . S
N785 H791 0.985 . S
C786 C780 1.379 . S
C786 C783 1.363 . S
C786 N784 1.356 . S
C787 C781 1.363 . S
C787 C782 1.379 . S
C787 N785 1.356 . S
N788 C780 1.356 . S
N788 H794 0.984 . S
N788 H795 0.984 . S
N789 C782 1.356 . S
N789 H792 0.984 . S
N789 H793 0.985 . S
H790 N785 0.984 . S
H791 N785 0.985 . S
H792 N789 0.984 . S
H793 N789 0.985 . S
H794 N788 0.984 . S
H795 N788 0.984 . S
H796 N784 0.984 . S
H797 N784 0.985 . S
C798 C799 1.363 1_545 S
C798 C804 1.379 . S
C798 N806 1.356 . S
C799 C798 1.363 1_565 S
C799 C805 1.363 1_556 S
C800 C801 1.363 1_565 S
C800 C805 1.379 . S
C800 N807 1.356 . S
C801 C800 1.363 1_545 S
C801 C804 1.363 1_554 S
N802 C804 1.356 . S
N802 H814 0.984 . S
N802 H815 0.985 . S
N803 C805 1.356 . S
N803 H808 0.984 . S
N803 H809 0.985 . S
C804 C798 1.379 . S
C804 C801 1.363 1_556 S
C804 N802 1.356 . S
C805 C799 1.363 1_554 S
C805 C800 1.379 . S
C805 N803 1.356 . S
N806 C798 1.356 . S
N806 H812 0.984 . S
N806 H813 0.984 1_545 S
N807 C800 1.356 . S
N807 H810 0.984 1_565 S
N807 H811 0.985 . S
H808 N803 0.984 . S
H809 N803 0.985 . S
H810 N807 0.984 1_545 S
H811 N807 0.985 . S
H812 N806 0.984 . S
H813 N806 0.984 1_565 S
H814 N802 0.984 . S
H815 N802 0.985 . S
C816 C817 1.363 . S
C816 C822 1.379 . S
C816 N824 1.356 . S
C817 C816 1.363 . S
C817 C823 1.363 . S
C818 C819 1.363 . S
C818 C823 1.379 . S
C818 N825 1.356 . S
C819 C818 1.363 . S
C819 C822 1.363 . S
N820 C822 1.356 . S
N820 H832 0.984 . S
N820 H833 0.985 . S
N821 C823 1.356 . S
N821 H826 0.984 . S
N821 H827 0.985 . S
C822 C816 1.379 . S
C822 C819 1.363 . S
C822 N820 1.356 . S
C823 C817 1.363 . S
C823 C818 1.379 . S
C823 N821 1.356 . S
N824 C816 1.356 . S
N824 H830 0.984 . S
N824 H831 0.984 . S
N825 C818 1.356 . S
N825 H828 0.984 . S
N825 H829 0.985 . S
H826 N821 0.984 . S
H827 N821 0.985 . S
H828 N825 0.984 . S
H829 N825 0.985 . S
H830 N824 0.984 . S
H831 N824 0.984 . S
H832 N820 0.984 . S
H833 N820 0.985 . S
C834 C835 1.363 . S
C834 C840 1.379 . S
C834 N842 1.356 . S
C835 C834 1.363 . S
C835 C841 1.363 . S
C836 C837 1.363 . S
C836 C841 1.379 . S
C836 N843 1.356 . S
C837 C836 1.363 . S
C837 C840 1.363 . S
N838 C840 1.356 . S
N838 H850 0.984 . S
N838 H851 0.985 . S
N839 C841 1.356 . S
N839 H844 0.984 . S
N839 H845 0.985 . S
C840 C834 1.379 . S
C840 C837 1.363 . S
C840 N838 1.356 . S
C841 C835 1.363 . S
C841 C836 1.379 . S
C841 N839 1.356 . S
N842 C834 1.356 . S
N842 H848 0.984 . S
N842 H849 0.984 . S
N843 C836 1.356 . S
N843 H846 0.984 . S
N843 H847 0.985 . S
H844 N839 0.984 . S
H845 N839 0.985 . S
H846 N843 0.984 . S
H847 N843 0.985 . S
H848 N842 0.984 . S
H849 N842 0.984 . S
H850 N838 0.984 . S
H851 N838 0.985 . S
C852 C853 1.363 . S
C852 C858 1.379 . S
C852 N860 1.356 . S
C853 C852 1.363 . S
C853 C859 1.363 . S
C854 C855 1.363 . S
C854 C859 1.379 . S
C854 N861 1.356 . S
C855 C854 1.363 . S
C855 C858 1.363 . S
N856 C858 1.356 . S
N856 H868 0.984 . S
N856 H869 0.985 . S
N857 C859 1.356 . S
N857 H862 0.984 . S
N857 H863 0.985 . S
C858 C852 1.379 . S
C858 C855 1.363 . S
C858 N856 1.356 . S
C859 C853 1.363 . S
C859 C854 1.379 . S
C859 N857 1.356 . S
N860 C852 1.356 . S
N860 H866 0.984 . S
N860 H867 0.984 . S
N861 C854 1.356 . S
N861 H864 0.984 . S
N861 H865 0.985 . S
H862 N857 0.984 . S
H863 N857 0.985 . S
H864 N861 0.984 . S
H865 N861 0.985 . S
H866 N860 0.984 . S
H867 N860 0.984 . S
H868 N856 0.984 . S
H869 N856 0.985 . S
C870 C871 1.363 . S
C870 C876 1.379 . S
C870 N878 1.356 . S
C871 C870 1.363 . S
C871 C877 1.363 . S
C872 C873 1.363 . S
C872 C877 1.379 . S
C872 N879 1.356 . S
C873 C872 1.363 . S
C873 C876 1.363 . S
N874 C876 1.356 . S
N874 H886 0.984 . S
N874 H887 0.985 . S
N875 C877 1.356 . S
N875 H880 0.984 . S
N875 H881 0.985 . S
C876 C870 1.379 . S
C876 C873 1.363 . S
C876 N874 1.356 . S
C877 C871 1.363 . S
C877 C872 1.379 . S
C877 N875 1.356 . S
N878 C870 1.356 . S
N878 H884 0.984 . S
N878 H885 0.984 . S
N879 C872 1.356 . S
N879 H882 0.984 . S
N879 H883 0.985 . S
H880 N875 0.984 . S
H881 N875 0.985 . S
H882 N879 0.984 . S
H883 N879 0.985 . S
H884 N878 0.984 . S
H885 N878 0.984 . S
H886 N874 0.984 . S
H887 N874 0.985 . S
C888 C889 1.363 . S
C888 C894 1.379 . S
C888 N896 1.356 . S
C889 C888 1.363 . S
C889 C895 1.363 . S
C890 C891 1.363 . S
C890 C895 1.379 . S
C890 N897 1.356 1_554 S
C891 C890 1.363 . S
C891 C894 1.363 . S
N892 C894 1.356 . S
N892 H904 0.984 . S
N892 H905 0.985 1_554 S
N893 C895 1.356 . S
N893 H898 0.984 . S
N893 H899 0.985 1_545 S
C894 C888 1.379 . S
C894 C891 1.363 . S
C894 N892 1.356 . S
C895 C889 1.363 . S
C895 C890 1.379 . S
C895 N893 1.356 . S
N896 C888 1.356 . S
N896 H902 0.984 . S
N896 H903 0.984 . S
N897 C890 1.356 1_556 S
N897 H900 0.984 . S
N897 H901 0.985 1_545 S
H898 N893 0.984 . S
H899 N893 0.985 1_565 S
H900 N897 0.984 . S
H901 N897 0.985 1_565 S
H902 N896 0.984 . S
H903 N896 0.984 . S
H904 N892 0.984 . S
H905 N892 0.985 1_556 S
C906 C907 1.363 . S
C906 C912 1.379 . S
C906 N914 1.356 . S
C907 C906 1.363 . S
C907 C913 1.363 . S
C908 C909 1.363 . S
C908 C913 1.379 . S
C908 N915 1.356 1_554 S
C909 C908 1.363 . S
C909 C912 1.363 . S
N910 C912 1.356 . S
N910 H922 0.984 . S
N910 H923 0.985 1_554 S
N911 C913 1.356 . S
N911 H916 0.984 . S
N911 H917 0.985 . S
C912 C906 1.379 . S
C912 C909 1.363 . S
C912 N910 1.356 . S
C913 C907 1.363 . S
C913 C908 1.379 . S
C913 N911 1.356 . S
N914 C906 1.356 . S
N914 H920 0.984 . S
N914 H921 0.984 . S
N915 C908 1.356 1_556 S
N915 H918 0.984 . S
N915 H919 0.985 . S
H916 N911 0.984 . S
H917 N911 0.985 . S
H918 N915 0.984 . S
H919 N915 0.985 . S
H920 N914 0.984 . S
H921 N914 0.984 . S
H922 N910 0.984 . S
H923 N910 0.985 1_556 S
C924 C925 1.363 . S
C924 C930 1.379 . S
C924 N932 1.356 1_556 S
C925 C924 1.363 . S
C925 C931 1.363 . S
C926 C927 1.363 . S
C926 C931 1.379 . S
C926 N933 1.356 . S
C927 C926 1.363 . S
C927 C930 1.363 . S
N928 C930 1.356 . S
N928 H940 0.984 1_565 S
N928 H941 0.985 . S
N929 C931 1.356 . S
N929 H934 0.984 1_556 S
N929 H935 0.985 . S
C930 C924 1.379 . S
C930 C927 1.363 . S
C930 N928 1.356 . S
C931 C925 1.363 . S
C931 C926 1.379 . S
C931 N929 1.356 . S
N932 C924 1.356 1_554 S
N932 H938 0.984 1_565 S
N932 H939 0.984 . S
N933 C926 1.356 . S
N933 H936 0.984 . S
N933 H937 0.985 . S
H934 N929 0.984 1_554 S
H935 N929 0.985 . S
H936 N933 0.984 . S
H937 N933 0.985 . S
H938 N932 0.984 1_545 S
H939 N932 0.984 . S
H940 N928 0.984 1_545 S
H941 N928 0.985 . S
C942 C943 1.363 . S
C942 C948 1.379 . S
C942 N950 1.356 . S
C943 C942 1.363 . S
C943 C949 1.363 . S
C944 C945 1.363 . S
C944 C949 1.379 . S
C944 N951 1.356 . S
C945 C944 1.363 . S
C945 C948 1.363 . S
N946 C948 1.356 . S
N946 H958 0.984 . S
N946 H959 0.985 . S
N947 C949 1.356 1_554 S
N947 H952 0.984 . S
N947 H953 0.985 . S
C948 C942 1.379 . S
C948 C945 1.363 . S
C948 N946 1.356 . S
C949 C943 1.363 . S
C949 C944 1.379 . S
C949 N947 1.356 1_556 S
N950 C942 1.356 . S
N950 H956 0.984 . S
N950 H957 0.984 1_556 S
N951 C944 1.356 . S
N951 H954 0.984 . S
N951 H955 0.985 . S
H952 N947 0.984 . S
H953 N947 0.985 . S
H954 N951 0.984 . S
H955 N951 0.985 . S
H956 N950 0.984 . S
H957 N950 0.984 1_554 S
H958 N946 0.984 . S
H959 N946 0.985 . S
C960 C961 1.363 . S
C960 C966 1.379 . S
C960 N968 1.356 1_554 S
C961 C960 1.363 . S
C961 C967 1.363 . S
C962 C963 1.363 . S
C962 C967 1.379 . S
C962 N969 1.356 . S
C963 C962 1.363 . S
C963 C966 1.363 . S
N964 C966 1.356 . S
N964 H976 0.984 . S
N964 H977 0.985 . S
N965 C967 1.356 . S
N965 H970 0.984 1_554 S
N965 H971 0.985 . S
C966 C960 1.379 . S
C966 C963 1.363 . S
C966 N964 1.356 . S
C967 C961 1.363 . S
C967 C962 1.379 . S
C967 N965 1.356 . S
N968 C960 1.356 1_556 S
N968 H974 0.984 . S
N968 H975 0.984 . S
N969 C962 1.356 . S
N969 H972 0.984 . S
N969 H973 0.985 . S
H970 N965 0.984 1_556 S
H971 N965 0.985 . S
H972 N969 0.984 . S
H973 N969 0.985 . S
H974 N968 0.984 . S
H975 N968 0.984 . S
H976 N964 0.984 . S
H977 N964 0.985 . S
C978 C979 1.363 . S
C978 C984 1.379 . S
C978 N986 1.356 . S
C979 C978 1.363 . S
C979 C985 1.363 . S
C980 C981 1.363 . S
C980 C985 1.379 . S
C980 N987 1.356 . S
C981 C980 1.363 . S
C981 C984 1.363 . S
N982 C984 1.356 . S
N982 H994 0.984 . S
N982 H995 0.985 . S
N983 C985 1.356 1_556 S
N983 H988 0.984 . S
N983 H989 0.985 . S
C984 C978 1.379 . S
C984 C981 1.363 . S
C984 N982 1.356 . S
C985 C979 1.363 . S
C985 C980 1.379 . S
C985 N983 1.356 1_554 S
N986 C978 1.356 . S
N986 H992 0.984 . S
N986 H993 0.984 1_554 S
N987 C980 1.356 . S
N987 H990 0.984 . S
N987 H991 0.985 . S
H988 N983 0.984 . S
H989 N983 0.985 . S
H990 N987 0.984 . S
H991 N987 0.985 . S
H992 N986 0.984 . S
H993 N986 0.984 1_556 S
H994 N982 0.984 . S
H995 N982 0.985 . S
C996 C997 1.363 . S
C996 C1002 1.379 . S
C996 N1004 1.356 . S
C997 C996 1.363 . S
C997 C1003 1.363 . S
C998 C999 1.363 . S
C998 C1003 1.379 . S
C998 N1005 1.356 . S
C999 C998 1.363 . S
C999 C1002 1.363 . S
N1000 C1002 1.356 . S
N1000 H1012 0.984 . S
N1000 H1013 0.985 . S
N1001 C1003 1.356 1_554 S
N1001 H1006 0.984 . S
N1001 H1007 0.985 . S
C1002 C996 1.379 . S
C1002 C999 1.363 . S
C1002 N1000 1.356 . S
C1003 C997 1.363 . S
C1003 C998 1.379 . S
C1003 N1001 1.356 1_556 S
N1004 C996 1.356 . S
N1004 H1010 0.984 . S
N1004 H1011 0.984 1_556 S
N1005 C998 1.356 . S
N1005 H1008 0.984 . S
N1005 H1009 0.985 . S
H1006 N1001 0.984 . S
H1007 N1001 0.985 . S
H1008 N1005 0.984 . S
H1009 N1005 0.985 . S
H1010 N1004 0.984 . S
H1011 N1004 0.984 1_554 S
H1012 N1000 0.984 . S
H1013 N1000 0.985 . S
C1014 C1015 1.363 . S
C1014 C1020 1.379 . S
C1014 N1022 1.356 1_556 S
C1015 C1014 1.363 . S
C1015 C1021 1.363 . S
C1016 C1017 1.363 . S
C1016 C1021 1.379 . S
C1016 N1023 1.356 . S
C1017 C1016 1.363 . S
C1017 C1020 1.363 . S
N1018 C1020 1.356 . S
N1018 H1030 0.984 . S
N1018 H1031 0.985 . S
N1019 C1021 1.356 . S
N1019 H1024 0.984 1_556 S
N1019 H1025 0.985 . S
C1020 C1014 1.379 . S
C1020 C1017 1.363 . S
C1020 N1018 1.356 . S
C1021 C1015 1.363 . S
C1021 C1016 1.379 . S
C1021 N1019 1.356 . S
N1022 C1014 1.356 1_554 S
N1022 H1028 0.984 . S
N1022 H1029 0.984 . S
N1023 C1016 1.356 . S
N1023 H1026 0.984 . S
N1023 H1027 0.985 . S
H1024 N1019 0.984 1_554 S
H1025 N1019 0.985 . S
H1026 N1023 0.984 . S
H1027 N1023 0.985 . S
H1028 N1022 0.984 . S
H1029 N1022 0.984 . S
H1030 N1018 0.984 . S
H1031 N1018 0.985 . S
C1032 C1033 1.363 . S
C1032 C1038 1.379 . S
C1032 N1040 1.356 . S
C1033 C1032 1.363 . S
C1033 C1039 1.363 . S
C1034 C1035 1.363 . S
C1034 C1039 1.379 . S
C1034 N1041 1.356 . S
C1035 C1034 1.363 . S
C1035 C1038 1.363 . S
N1036 C1038 1.356 . S
N1036 H1048 0.984 . S
N1036 H1049 0.985 . S
N1037 C1039 1.356 . S
N1037 H1042 0.984 . S
N1037 H1043 0.985 1_545 S
C1038 C1032 1.379 . S
C1038 C1035 1.363 . S
C1038 N1036 1.356 . S
C1039 C1033 1.363 . S
C1039 C1034 1.379 . S
C1039 N1037 1.356 . S
N1040 C1032 1.356 . S
N1040 H1046 0.984 . S
N1040 H1047 0.984 . S
N1041 C1034 1.356 . S
N1041 H1044 0.984 . S
N1041 H1045 0.985 1_545 S
H1042 N1037 0.984 . S
H1043 N1037 0.985 1_565 S
H1044 N1041 0.984 . S
H1045 N1041 0.985 1_565 S
H1046 N1040 0.984 . S
H1047 N1040 0.984 . S
H1048 N1036 0.984 . S
H1049 N1036 0.985 . S
C1050 C1051 1.363 . S
C1050 C1056 1.379 . S
C1050 N1058 1.356 . S
C1051 C1050 1.363 . S
C1051 C1057 1.363 . S
C1052 C1053 1.363 . S
C1052 C1057 1.379 . S
C1052 N1059 1.356 . S
C1053 C1052 1.363 . S
C1053 C1056 1.363 . S
N1054 C1056 1.356 . S
N1054 H1066 0.984 . S
N1054 H1067 0.985 . S
N1055 C1057 1.356 . S
N1055 H1060 0.984 . S
N1055 H1061 0.985 . S
C1056 C1050 1.379 . S
C1056 C1053 1.363 . S
C1056 N1054 1.356 . S
C1057 C1051 1.363 . S
C1057 C1052 1.379 . S
C1057 N1055 1.356 . S
N1058 C1050 1.356 . S
N1058 H1064 0.984 . S
N1058 H1065 0.984 . S
N1059 C1052 1.356 . S
N1059 H1062 0.984 . S
N1059 H1063 0.985 . S
H1060 N1055 0.984 . S
H1061 N1055 0.985 . S
H1062 N1059 0.984 . S
H1063 N1059 0.985 . S
H1064 N1058 0.984 . S
H1065 N1058 0.984 . S
H1066 N1054 0.984 . S
H1067 N1054 0.985 . S
C1068 C1069 1.363 . S
C1068 C1074 1.379 . S
C1068 N1076 1.356 . S
C1069 C1068 1.363 . S
C1069 C1075 1.363 . S
C1070 C1071 1.363 . S
C1070 C1075 1.379 . S
C1070 N1077 1.356 . S
C1071 C1070 1.363 . S
C1071 C1074 1.363 . S
N1072 C1074 1.356 . S
N1072 H1084 0.984 1_565 S
N1072 H1085 0.985 . S
N1073 C1075 1.356 . S
N1073 H1078 0.984 . S
N1073 H1079 0.985 . S
C1074 C1068 1.379 . S
C1074 C1071 1.363 . S
C1074 N1072 1.356 . S
C1075 C1069 1.363 . S
C1075 C1070 1.379 . S
C1075 N1073 1.356 . S
N1076 C1068 1.356 . S
N1076 H1082 0.984 1_565 S
N1076 H1083 0.984 . S
N1077 C1070 1.356 . S
N1077 H1080 0.984 . S
N1077 H1081 0.985 . S
H1078 N1073 0.984 . S
H1079 N1073 0.985 . S
H1080 N1077 0.984 . S
H1081 N1077 0.985 . S
H1082 N1076 0.984 1_545 S
H1083 N1076 0.984 . S
H1084 N1072 0.984 1_545 S
H1085 N1072 0.985 . S
C1086 C1087 1.363 . S
C1086 C1092 1.379 . S
C1086 N1094 1.356 . S
C1087 C1086 1.363 . S
C1087 C1093 1.363 . S
C1088 C1089 1.363 . S
C1088 C1093 1.379 . S
C1088 N1095 1.356 . S
C1089 C1088 1.363 . S
C1089 C1092 1.363 . S
N1090 C1092 1.356 . S
N1090 H1102 0.984 . S
N1090 H1103 0.985 . S
N1091 C1093 1.356 . S
N1091 H1096 0.984 . S
N1091 H1097 0.985 . S
C1092 C1086 1.379 . S
C1092 C1089 1.363 . S
C1092 N1090 1.356 . S
C1093 C1087 1.363 . S
C1093 C1088 1.379 . S
C1093 N1091 1.356 . S
N1094 C1086 1.356 . S
N1094 H1100 0.984 . S
N1094 H1101 0.984 . S
N1095 C1088 1.356 . S
N1095 H1098 0.984 . S
N1095 H1099 0.985 . S
H1096 N1091 0.984 . S
H1097 N1091 0.985 . S
H1098 N1095 0.984 . S
H1099 N1095 0.985 . S
H1100 N1094 0.984 . S
H1101 N1094 0.984 . S
H1102 N1090 0.984 . S
H1103 N1090 0.985 . S
C1104 C1105 1.363 . S
C1104 C1110 1.379 . S
C1104 N1112 1.356 . S
C1105 C1104 1.363 . S
C1105 C1111 1.363 . S
C1106 C1107 1.363 . S
C1106 C1111 1.379 . S
C1106 N1113 1.356 1_554 S
C1107 C1106 1.363 . S
C1107 C1110 1.363 . S
N1108 C1110 1.356 . S
N1108 H1120 0.984 . S
N1108 H1121 0.985 . S
N1109 C1111 1.356 1_556 S
N1109 H1114 0.984 1_556 S
N1109 H1115 0.985 . S
C1110 C1104 1.379 . S
C1110 C1107 1.363 . S
C1110 N1108 1.356 . S
C1111 C1105 1.363 . S
C1111 C1106 1.379 . S
C1111 N1109 1.356 1_554 S
N1112 C1104 1.356 . S
N1112 H1118 0.984 . S
N1112 H1119 0.984 . S
N1113 C1106 1.356 1_556 S
N1113 H1116 0.984 1_556 S
N1113 H1117 0.985 . S
H1114 N1109 0.984 1_554 S
H1115 N1109 0.985 . S
H1116 N1113 0.984 1_554 S
H1117 N1113 0.985 . S
H1118 N1112 0.984 . S
H1119 N1112 0.984 . S
H1120 N1108 0.984 . S
H1121 N1108 0.985 . S
C1122 C1123 1.363 . S
C1122 C1128 1.379 . S
C1122 N1130 1.356 1_556 S
C1123 C1122 1.363 . S
C1123 C1129 1.363 . S
C1124 C1125 1.363 . S
C1124 C1129 1.379 . S
C1124 N1131 1.356 . S
C1125 C1124 1.363 . S
C1125 C1128 1.363 . S
N1126 C1128 1.356 1_554 S
N1126 H1138 0.984 . S
N1126 H1139 0.985 1_554 S
N1127 C1129 1.356 . S
N1127 H1132 0.984 . S
N1127 H1133 0.985 . S
C1128 C1122 1.379 . S
C1128 C1125 1.363 . S
C1128 N1126 1.356 1_556 S
C1129 C1123 1.363 . S
C1129 C1124 1.379 . S
C1129 N1127 1.356 . S
N1130 C1122 1.356 1_554 S
N1130 H1136 0.984 . S
N1130 H1137 0.984 1_554 S
N1131 C1124 1.356 . S
N1131 H1134 0.984 . S
N1131 H1135 0.985 . S
H1132 N1127 0.984 . S
H1133 N1127 0.985 . S
H1134 N1131 0.984 . S
H1135 N1131 0.985 . S
H1136 N1130 0.984 . S
H1137 N1130 0.984 1_556 S
H1138 N1126 0.984 . S
H1139 N1126 0.985 1_556 S
C1140 C1141 1.363 . S
C1140 C1146 1.379 . S
C1140 N1148 1.356 . S
C1141 C1140 1.363 . S
C1141 C1147 1.363 . S
C1142 C1143 1.363 . S
C1142 C1147 1.379 . S
C1142 N1149 1.356 . S
C1143 C1142 1.363 . S
C1143 C1146 1.363 . S
N1144 C1146 1.356 . S
N1144 H1156 0.984 . S
N1144 H1157 0.985 . S
N1145 C1147 1.356 . S
N1145 H1150 0.984 . S
N1145 H1151 0.985 . S
C1146 C1140 1.379 . S
C1146 C1143 1.363 . S
C1146 N1144 1.356 . S
C1147 C1141 1.363 . S
C1147 C1142 1.379 . S
C1147 N1145 1.356 . S
N1148 C1140 1.356 . S
N1148 H1154 0.984 . S
N1148 H1155 0.984 . S
N1149 C1142 1.356 . S
N1149 H1152 0.984 . S
N1149 H1153 0.985 . S
H1150 N1145 0.984 . S
H1151 N1145 0.985 . S
H1152 N1149 0.984 . S
H1153 N1149 0.985 . S
H1154 N1148 0.984 . S
H1155 N1148 0.984 . S
H1156 N1144 0.984 . S
H1157 N1144 0.985 . S
C1158 C1159 1.363 . S
C1158 C1164 1.379 . S
C1158 N1166 1.356 . S
C1159 C1158 1.363 . S
C1159 C1165 1.363 . S
C1160 C1161 1.363 . S
C1160 C1165 1.379 . S
C1160 N1167 1.356 . S
C1161 C1160 1.363 . S
C1161 C1164 1.363 . S
N1162 C1164 1.356 . S
N1162 H1174 0.984 . S
N1162 H1175 0.985 . S
N1163 C1165 1.356 . S
N1163 H1168 0.984 . S
N1163 H1169 0.985 . S
C1164 C1158 1.379 . S
C1164 C1161 1.363 . S
C1164 N1162 1.356 . S
C1165 C1159 1.363 . S
C1165 C1160 1.379 . S
C1165 N1163 1.356 . S
N1166 C1158 1.356 . S
N1166 H1172 0.984 . S
N1166 H1173 0.984 . S
N1167 C1160 1.356 . S
N1167 H1170 0.984 . S
N1167 H1171 0.985 . S
H1168 N1163 0.984 . S
H1169 N1163 0.985 . S
H1170 N1167 0.984 . S
H1171 N1167 0.985 . S
H1172 N1166 0.984 . S
H1173 N1166 0.984 . S
H1174 N1162 0.984 . S
H1175 N1162 0.985 . S
C1176 C1177 1.363 . S
C1176 C1182 1.379 . S
C1176 N1184 1.356 . S
C1177 C1176 1.363 . S
C1177 C1183 1.363 . S
C1178 C1179 1.363 . S
C1178 C1183 1.379 . S
C1178 N1185 1.356 . S
C1179 C1178 1.363 . S
C1179 C1182 1.363 . S
N1180 C1182 1.356 . S
N1180 H1192 0.984 . S
N1180 H1193 0.985 . S
N1181 C1183 1.356 . S
N1181 H1186 0.984 . S
N1181 H1187 0.985 . S
C1182 C1176 1.379 . S
C1182 C1179 1.363 . S
C1182 N1180 1.356 . S
C1183 C1177 1.363 . S
C1183 C1178 1.379 . S
C1183 N1181 1.356 . S
N1184 C1176 1.356 . S
N1184 H1190 0.984 . S
N1184 H1191 0.984 . S
N1185 C1178 1.356 . S
N1185 H1188 0.984 . S
N1185 H1189 0.985 . S
H1186 N1181 0.984 . S
H1187 N1181 0.985 . S
H1188 N1185 0.984 . S
H1189 N1185 0.985 . S
H1190 N1184 0.984 . S
H1191 N1184 0.984 . S
H1192 N1180 0.984 . S
H1193 N1180 0.985 . S
C1194 C1195 1.363 . S
C1194 C1200 1.379 . S
C1194 N1202 1.356 . S
C1195 C1194 1.363 . S
C1195 C1201 1.363 . S
C1196 C1197 1.363 . S
C1196 C1201 1.379 . S
C1196 N1203 1.356 . S
C1197 C1196 1.363 . S
C1197 C1200 1.363 . S
N1198 C1200 1.356 . S
N1198 H1210 0.984 . S
N1198 H1211 0.985 . S
N1199 C1201 1.356 . S
N1199 H1204 0.984 . S
N1199 H1205 0.985 . S
C1200 C1194 1.379 . S
C1200 C1197 1.363 . S
C1200 N1198 1.356 . S
C1201 C1195 1.363 . S
C1201 C1196 1.379 . S
C1201 N1199 1.356 . S
N1202 C1194 1.356 . S
N1202 H1208 0.984 . S
N1202 H1209 0.984 . S
N1203 C1196 1.356 . S
N1203 H1206 0.984 . S
N1203 H1207 0.985 . S
H1204 N1199 0.984 . S
H1205 N1199 0.985 . S
H1206 N1203 0.984 . S
H1207 N1203 0.985 . S
H1208 N1202 0.984 . S
H1209 N1202 0.984 . S
H1210 N1198 0.984 . S
H1211 N1198 0.985 . S
C1212 C1213 1.363 . S
C1212 C1218 1.379 . S
C1212 N1220 1.356 1_554 S
C1213 C1212 1.363 . S
C1213 C1219 1.363 . S
C1214 C1215 1.363 . S
C1214 C1219 1.379 . S
C1214 N1221 1.356 . S
C1215 C1214 1.363 . S
C1215 C1218 1.363 . S
N1216 C1218 1.356 1_556 S
N1216 H1228 0.984 . S
N1216 H1229 0.985 1_556 S
N1217 C1219 1.356 . S
N1217 H1222 0.984 . S
N1217 H1223 0.985 . S
C1218 C1212 1.379 . S
C1218 C1215 1.363 . S
C1218 N1216 1.356 1_554 S
C1219 C1213 1.363 . S
C1219 C1214 1.379 . S
C1219 N1217 1.356 . S
N1220 C1212 1.356 1_556 S
N1220 H1226 0.984 . S
N1220 H1227 0.984 1_556 S
N1221 C1214 1.356 . S
N1221 H1224 0.984 . S
N1221 H1225 0.985 . S
H1222 N1217 0.984 . S
H1223 N1217 0.985 . S
H1224 N1221 0.984 . S
H1225 N1221 0.985 . S
H1226 N1220 0.984 . S
H1227 N1220 0.984 1_554 S
H1228 N1216 0.984 . S
H1229 N1216 0.985 1_554 S
C1230 C1231 1.363 . S
C1230 C1236 1.379 . S
C1230 N1238 1.356 1_556 S
C1231 C1230 1.363 . S
C1231 C1237 1.363 . S
C1232 C1233 1.363 . S
C1232 C1237 1.379 . S
C1232 N1239 1.356 . S
C1233 C1232 1.363 . S
C1233 C1236 1.363 . S
N1234 C1236 1.356 1_554 S
N1234 H1246 0.984 . S
N1234 H1247 0.985 1_554 S
N1235 C1237 1.356 . S
N1235 H1240 0.984 . S
N1235 H1241 0.985 . S
C1236 C1230 1.379 . S
C1236 C1233 1.363 . S
C1236 N1234 1.356 1_556 S
C1237 C1231 1.363 . S
C1237 C1232 1.379 . S
C1237 N1235 1.356 . S
N1238 C1230 1.356 1_554 S
N1238 H1244 0.984 . S
N1238 H1245 0.984 1_554 S
N1239 C1232 1.356 . S
N1239 H1242 0.984 . S
N1239 H1243 0.985 . S
H1240 N1235 0.984 . S
H1241 N1235 0.985 . S
H1242 N1239 0.984 . S
H1243 N1239 0.985 . S
H1244 N1238 0.984 . S
H1245 N1238 0.984 1_556 S
H1246 N1234 0.984 . S
H1247 N1234 0.985 1_556 S
C529 C348 1.527 . S
C531 C18 1.527 . S
C547 C51 1.527 . S
C549 C249 1.527 . S
C565 C502 1.504 . S
C567 C40 1.504 . S
C583 C73 1.504 . S
C585 C7 1.504 . S
C601 C84 1.527 . S
C603 C282 1.527 . S
C619 C183 1.527 . S
C621 C117 1.527 . S
C637 C436 1.504 . S
C639 C106 1.504 . S
C655 C480 1.527 . S
C657 C150 1.527 . S
C673 C172 1.504 . S
C675 C370 1.504 . S
C691 C205 1.504 . S
C693 C139 1.504 . S
C709 C414 1.527 . S
C711 C216 1.527 . S
C727 C304 1.504 . S
C729 C238 1.504 . S
C745 C513 1.527 . S
C747 C315 1.527 . S
C763 C271 1.504 . S
C765 C337 1.504 . S
C781 C381 1.527 . S
C783 C447 1.527 . S
C799 C469 1.504 . S
C801 C403 1.504 . S
C817 N13 1.405 . S
C819 N2 1.404 . S
C835 N35 1.404 . S
C837 N46 1.405 . S
C853 N79 1.405 . S
C855 N68 1.404 . S
C871 N101 1.404 . S
C873 N112 1.405 . S
C889 N134 1.404 . S
C891 N145 1.405 1_554 S
C907 N167 1.404 . S
C909 N178 1.405 1_554 S
C925 N211 1.405 1_556 S
C927 N200 1.404 . S
C943 N244 1.405 1_556 S
C945 N233 1.404 . S
C961 N277 1.405 1_554 S
C963 N266 1.404 . S
C979 N310 1.405 1_554 S
C981 N299 1.404 . S
C997 N343 1.405 1_556 S
C999 N332 1.404 . S
C1015 N376 1.405 1_556 S
C1017 N365 1.404 . S
C1033 N409 1.405 . S
C1035 N398 1.404 . S
C1051 N431 1.404 . S
C1053 N442 1.405 . S
C1069 N475 1.405 . S
C1071 N464 1.404 . S
C1087 N497 1.404 . S
C1089 N508 1.405 . S
C1105 C21 1.503 . S
C1107 C54 1.503 . S
C1123 C87 1.503 . S
C1125 C120 1.503 . S
C1141 C153 1.503 . S
C1143 C186 1.503 . S
C1159 C219 1.503 . S
C1161 C252 1.503 . S
C1177 C318 1.503 . S
C1179 C285 1.503 . S
C1195 C351 1.503 . S
C1197 C384 1.503 . S
C1213 C450 1.503 . S
C1215 C417 1.503 . S
C1231 C516 1.503 . S
C1233 C483 1.503 . S
