# Generated by pormake.
# Topology unh, (4)-cn, num edge types: 1
# Building blocks:
#     Node 0, Type 0, BuildingBlock: ESEHIV_clean_sbu_0, # of connection points: 4
#     Node 1, Type 0, BuildingBlock: ESEHIV_clean_sbu_0, # of connection points: 4
#     Node 2, Type 0, BuildingBlock: ESEHIV_clean_sbu_0, # of connection points: 4
#     Node 3, Type 0, BuildingBlock: ESEHIV_clean_sbu_0, # of connection points: 4
#     Node 4, Type 0, BuildingBlock: ESEHIV_clean_sbu_0, # of connection points: 4
#     Node 5, Type 0, BuildingBlock: ESEHIV_clean_sbu_0, # of connection points: 4
#     Edge 6, Type (0, 0), BuildingBlock: AJUNOK_clean_linker_0, # of connection points: 2
#     Edge 7, Type (0, 0), BuildingBlock: AJUNOK_clean_linker_0, # of connection points: 2
#     Edge 8, Type (0, 0), BuildingBlock: AJUNOK_clean_linker_0, # of connection points: 2
#     Edge 9, Type (0, 0), BuildingBlock: AJUNOK_clean_linker_0, # of connection points: 2
#     Edge 10, Type (0, 0), BuildingBlock: AJUNOK_clean_linker_0, # of connection points: 2
#     Edge 11, Type (0, 0), BuildingBlock: AJUNOK_clean_linker_0, # of connection points: 2
#     Edge 12, Type (0, 0), BuildingBlock: AJUNOK_clean_linker_0, # of connection points: 2
#     Edge 13, Type (0, 0), BuildingBlock: AJUNOK_clean_linker_0, # of connection points: 2
#     Edge 14, Type (0, 0), BuildingBlock: AJUNOK_clean_linker_0, # of connection points: 2
#     Edge 15, Type (0, 0), BuildingBlock: AJUNOK_clean_linker_0, # of connection points: 2
#     Edge 16, Type (0, 0), BuildingBlock: AJUNOK_clean_linker_0, # of connection points: 2
#     Edge 17, Type (0, 0), BuildingBlock: AJUNOK_clean_linker_0, # of connection points: 2
# Relax obj value: 0.010
# Max RMSD: 0.159
# Mean RMSD: 0.159
data_MOF--net-unh--node1-ESEHIV_clean_sbu_0--edge1-AJUNOK_clean_linker_0
_symmetry_space_group_name_H-M    P1
_symmetry_Int_Tables_number       1
_symmetry_cell_setting            triclinic
loop_
_symmetry_equiv_pos_as_xyz
'x, y, z'
_cell_length_a     38.013447
_cell_length_b     38.080607
_cell_length_c     15.930351
_cell_angle_alpha  89.883857
_cell_angle_beta   89.891699
_cell_angle_gamma 120.04723
loop_
_atom_site_label
_atom_site_type_symbol
_atom_site_fract_x
_atom_site_fract_y
_atom_site_fract_z
_atom_type_partial_charge
Cu0 Cu 0.17503 0.57929 0.11513 0.0
N1 N 0.14424 0.54893 0.02345 0.0
N2 N 0.09258 0.51891 0.93302 0.0
C3 C 0.10792 0.54375 0.99995 0.0
C4 C 0.12069 0.50852 0.91303 0.0
C5 C 0.15242 0.52692 0.96915 0.0
O6 O 0.13678 0.57378 0.20226 0.0
C7 C 0.23748 0.64258 0.02464 0.0
O8 O 0.23959 0.61191 0.99262 0.0
H9 H 0.09338 0.55845 0.03067 0.0
H10 H 0.17943 0.52426 0.97061 0.0
N11 N 0.20686 0.55834 0.15611 0.0
N12 N 0.25836 0.55471 0.21485 0.0
C13 C 0.24424 0.57933 0.18997 0.0
C14 C 0.19701 0.51916 0.15932 0.0
C15 C 0.22878 0.51682 0.19514 0.0
C16 C 0.11766 0.59326 0.20175 0.0
O17 O 0.12647 0.62103 0.14371 0.0
H18 H 0.2606 0.61199 0.19688 0.0
H19 H 0.16877 0.4941 0.13672 0.0
O20 O 0.21061 0.63531 0.08044 0.0
H21 H 0.11823 0.48861 0.86218 0.0
H22 H 0.23028 0.48943 0.20409 0.0
Cu23 Cu 0.61596 0.16143 0.28398 0.0
N24 N 0.62046 0.13267 0.19412 0.0
N25 N 0.60193 0.08168 0.10344 0.0
C26 C 0.5897 0.09761 0.16473 0.0
C27 C 0.64215 0.10783 0.09403 0.0
C28 C 0.65351 0.1393 0.15023 0.0
O29 O 0.57476 0.11983 0.35608 0.0
C30 C 0.62115 0.22799 0.19536 0.0
O31 O 0.65744 0.23422 0.17589 0.0
H32 H 0.55892 0.08384 0.1886 0.0
H33 H 0.68384 0.16458 0.16002 0.0
N34 N 0.66579 0.1904 0.33988 0.0
N35 N 0.72063 0.24081 0.40227 0.0
C36 C 0.68568 0.23002 0.36063 0.0
C37 C 0.6887 0.17545 0.36982 0.0
C38 C 0.72235 0.20631 0.40874 0.0
C39 C 0.57755 0.1157 0.43462 0.0
O40 O 0.60894 0.14385 0.47564 0.0
H41 H 0.67472 0.25055 0.34531 0.0
H42 H 0.68098 0.14406 0.36509 0.0
O43 O 0.59812 0.19803 0.24232 0.0
H44 H 0.66223 0.10383 0.05191 0.0
H45 H 0.74544 0.20303 0.44147 0.0
Cu46 Cu 0.47852 0.60248 0.44883 0.0
N47 N 0.51267 0.60709 0.36009 0.0
N48 N 0.54715 0.59045 0.27023 0.0
C49 C 0.52003 0.57777 0.33397 0.0
C50 C 0.55745 0.62943 0.25613 0.0
C51 C 0.53607 0.63959 0.31165 0.0
O52 O 0.47892 0.56267 0.52524 0.0
C53 C 0.41756 0.60492 0.35385 0.0
O54 O 0.44837 0.6398 0.32933 0.0
H55 H 0.50562 0.54763 0.3611 0.0
H56 H 0.53791 0.66877 0.3172 0.0
N57 N 0.49741 0.65307 0.49969 0.0
N58 N 0.49807 0.70685 0.5578 0.0
C59 C 0.47478 0.66841 0.52994 0.0
C60 C 0.53629 0.68261 0.50921 0.0
C61 C 0.5368 0.71572 0.54541 0.0
C62 C 0.49698 0.57108 0.59573 0.0
O63 O 0.51324 0.6082 0.62487 0.0
H64 H 0.44191 0.65158 0.53144 0.0
H65 H 0.56241 0.68037 0.49001 0.0
O66 O 0.42402 0.58342 0.40607 0.0
H67 H 0.57957 0.64952 0.21055 0.0
H68 H 0.56358 0.7445 0.55947 0.0
Cu69 Cu 0.90046 0.46774 0.60023 0.0
N70 N 0.92612 0.49998 0.50636 0.0
N71 N 0.97353 0.53511 0.4091 0.0
C72 C 0.96435 0.51265 0.48006 0.0
C73 C 0.93952 0.53625 0.38985 0.0
C74 C 0.91043 0.51471 0.45012 0.0
O75 O 0.94327 0.47184 0.67384 0.0
C76 C 0.83193 0.40255 0.52493 0.0
O77 O 0.8221 0.43061 0.51157 0.0
H78 H 0.98498 0.50543 0.51232 0.0
H79 H 0.87977 0.50961 0.45218 0.0
N80 N 0.86942 0.48685 0.65374 0.0
N81 N 0.8171 0.48785 0.71586 0.0
C82 C 0.83234 0.46452 0.68876 0.0
C83 C 0.87829 0.52565 0.66017 0.0
C84 C 0.84614 0.52638 0.69874 0.0
C85 C 0.94411 0.47676 0.75301 0.0
O86 O 0.91324 0.4768 0.79 0.0
H87 H 0.81682 0.43179 0.69353 0.0
H88 H 0.90579 0.55149 0.63652 0.0
O89 O 0.86498 0.41208 0.56302 0.0
H90 H 0.93538 0.5504 0.33469 0.0
H91 H 0.84368 0.55306 0.71058 0.0
Cu92 Cu 0.45716 0.88356 0.78633 0.0
N93 N 0.45343 0.91311 0.69672 0.0
N94 N 0.47163 0.96406 0.60549 0.0
C95 C 0.48374 0.949 0.6688 0.0
C96 C 0.43201 0.93659 0.59345 0.0
C97 C 0.42087 0.90516 0.64989 0.0
O98 O 0.49868 0.92393 0.85949 0.0
C99 C 0.45006 0.81835 0.69184 0.0
O100 O 0.41602 0.81666 0.6693 0.0
H101 H 0.51413 0.9638 0.69456 0.0
H102 H 0.39099 0.87877 0.65733 0.0
N103 N 0.40675 0.85469 0.84048 0.0
N104 N 0.3518 0.80423 0.90292 0.0
C105 C 0.38919 0.81654 0.87092 0.0
C106 C 0.37954 0.86691 0.85321 0.0
C107 C 0.34559 0.83586 0.89154 0.0
C108 C 0.49276 0.9314 0.93438 0.0
O109 O 0.45755 0.9077 0.97064 0.0
H110 H 0.40343 0.79804 0.86884 0.0
H111 H 0.38378 0.89608 0.8342 0.0
O112 O 0.47308 0.8456 0.74375 0.0
H113 H 0.41216 0.93949 0.54885 0.0
H114 H 0.31794 0.83607 0.90668 0.0
Cu115 Cu 0.60045 0.44654 0.95266 0.0
N116 N 0.56661 0.442 0.86384 0.0
N117 N 0.53469 0.46106 0.77255 0.0
C118 C 0.56431 0.47329 0.83063 0.0
C119 C 0.51759 0.42029 0.76926 0.0
C120 C 0.53735 0.40861 0.82586 0.0
O121 O 0.60132 0.48859 0.02317 0.0
C122 C 0.6579 0.44045 0.85323 0.0
O123 O 0.62498 0.40801 0.82678 0.0
H124 H 0.58364 0.50446 0.84993 0.0
H125 H 0.53006 0.37792 0.84032 0.0
N126 N 0.57913 0.39722 1.0106 0.0
N127 N 0.5741 0.34195 0.07231 0.0
C128 C 0.59747 0.37534 0.02518 0.0
C129 C 0.54294 0.37714 0.0497 0.0
C130 C 0.53985 0.34327 0.0883 0.0
C131 C 0.59681 0.48734 0.10245 0.0
O132 O 0.59593 0.45737 0.14517 0.0
H133 H 0.6275 0.38391 1.002 0.0
H134 H 0.52087 0.38715 0.05193 0.0
O135 O 0.65425 0.46222 0.90931 0.0
H136 H 0.49161 0.40018 0.73148 0.0
H137 H 0.51491 0.32229 0.12777 0.0
C138 C 0.05227 0.50188 0.80251 0.0
C139 C 0.05475 0.50686 0.89016 0.0
C140 C 1.01627 0.49148 0.75913 0.0
C141 C 0.98109 0.48547 0.8016 0.0
H142 H 0.0787 0.507 0.76682 0.0
H143 H 1.01634 0.48881 0.69146 0.0
S144 S 0.97065 0.49127 0.03248 0.0
N145 N 1.01814 0.50224 1.01875 0.0
N146 N 0.95067 0.48323 0.93767 0.0
C147 C 0.98289 0.48938 0.88972 0.0
C148 C 1.01962 0.49996 0.93382 0.0
C149 C 0.51914 0.97424 0.06347 0.0
C150 C 0.52351 0.96901 0.97736 0.0
C151 C 0.54534 1.01074 0.1043 0.0
C152 C 0.57701 0.04365 0.06086 0.0
H153 H 0.49493 0.95012 0.09971 0.0
H154 H 0.54062 1.01327 0.17054 0.0
S155 S 0.60127 0.0463 0.83444 0.0
N156 N 0.5623 1.00027 0.84988 0.0
N157 N 0.61103 0.06889 0.92672 0.0
C158 C 0.58221 0.03876 0.97511 0.0
C159 C 0.5556 1.00149 0.93339 0.0
C160 C 0.56807 0.53857 0.27263 0.0
C161 C 0.56204 0.56698 0.22773 0.0
C162 C 0.58066 0.51401 0.23211 0.0
C163 C 0.58755 0.51666 0.1448 0.0
H164 H 0.56287 0.5352 0.33976 0.0
H165 H 0.58425 0.49226 0.26958 0.0
S166 S 0.57545 0.58604 0.99824 0.0
N167 N 0.56352 0.59619 0.09122 0.0
N168 N 0.58752 0.55057 1.01482 0.0
C169 C 0.58223 0.54552 0.09932 0.0
C170 C 0.56942 0.57052 0.14078 0.0
C171 C 1.03225 0.5305 0.3562 0.0
C172 C 1.01073 0.5516 0.36091 0.0
C173 C 0.06733 0.54481 0.30655 0.0
C174 C 0.08245 0.5809 0.25937 0.0
H175 H 1.02125 0.50202 0.3893 0.0
H176 H 0.08207 0.52678 0.30368 0.0
S177 S 0.03971 0.64981 0.25721 0.0
N178 N 1.00892 0.61213 0.31963 0.0
N179 N 0.07445 0.63885 0.22537 0.0
C180 C 0.06192 0.603 0.26564 0.0
C181 C 1.02619 0.58839 0.31646 0.0
C182 C 0.55091 0.07301 0.56483 0.0
C183 C 0.54787 0.07733 0.47772 0.0
C184 C 0.52561 0.03616 0.6061 0.0
C185 C 0.49607 1.00211 0.56218 0.0
H186 H 0.57343 0.09809 0.60157 0.0
H187 H 0.52923 0.03428 0.67307 0.0
S188 S 0.47592 0.99668 0.33346 0.0
N189 N 0.51264 0.04381 0.34889 0.0
N190 N 0.46558 0.97473 0.42672 0.0
C191 C 0.49226 1.006 0.47541 0.0
C192 C 0.51801 0.04352 0.43318 0.0
C193 C 0.52539 0.52076 0.76807 0.0
C194 C 0.52268 0.48652 0.72832 0.0
C195 C 0.51596 0.54721 0.7254 0.0
C196 C 0.50323 0.54048 0.64114 0.0
H197 H 0.535 0.52726 0.83285 0.0
H198 H 0.51907 0.57339 0.7587 0.0
S199 S 0.49209 0.45562 0.50759 0.0
N200 N 0.50702 0.44764 0.59936 0.0
N201 N 0.48866 0.49688 0.51923 0.0
C202 C 0.49972 0.50592 0.60091 0.0
C203 C 0.50956 0.47906 0.64444 0.0
C204 C 0.33212 0.60277 0.22541 0.0
C205 C 0.2975 0.56673 0.25155 0.0
C206 C 0.37059 0.61473 0.25892 0.0
C207 C 0.37611 0.59123 0.32035 0.0
H208 H 0.32958 0.62159 0.17751 0.0
H209 H 0.39623 0.64261 0.23586 0.0
S210 S 0.29446 0.49553 0.41465 0.0
N211 N 0.2707 0.50868 0.34578 0.0
N212 N 0.3429 0.53078 0.40836 0.0
C213 C 0.34153 0.55535 0.34804 0.0
C214 C 0.30231 0.54319 0.31374 0.0
C215 C 0.73543 0.30738 0.45866 0.0
C216 C 0.74911 0.28063 0.43472 0.0
C217 C 0.76241 0.34648 0.48825 0.0
C218 C 0.80422 0.36044 0.49628 0.0
H219 H 0.7035 0.29801 0.45502 0.0
H220 H 0.75029 0.36587 0.50546 0.0
S221 S 0.85639 0.30367 0.4385 0.0
N222 N 0.80804 0.27204 0.41762 0.0
N223 N 0.85835 0.34497 0.47614 0.0
C224 C 0.81844 0.33411 0.47331 0.0
C225 C 0.79103 0.29439 0.44188 0.0
C226 C 0.49588 0.78844 0.68744 0.0
C227 C 0.46138 0.789 0.65711 0.0
C228 C 0.50743 0.76139 0.65516 0.0
C229 C 0.48494 0.73366 0.59139 0.0
H230 H 0.51422 0.80904 0.73666 0.0
H231 H 0.53407 0.76197 0.68081 0.0
S232 S 0.39332 0.72387 0.48681 0.0
N233 N 0.40535 0.75973 0.55748 0.0
N234 N 0.42753 0.70956 0.49656 0.0
C235 C 0.45053 0.73395 0.5601 0.0
C236 C 0.43868 0.76145 0.59294 0.0
C237 C 0.7337 0.48635 0.84672 0.0
C238 C 0.69854 0.45146 0.8181 0.0
C239 C 0.77224 0.49781 0.81355 0.0
C240 C 0.77732 0.47475 0.75083 0.0
H241 H 0.73153 0.50519 0.89495 0.0
H242 H 0.79838 0.52486 0.83752 0.0
S243 S 0.69531 0.38155 0.65165 0.0
N244 N 0.67161 0.39422 0.72173 0.0
N245 N 0.74385 0.41616 0.65927 0.0
C246 C 0.74256 0.43984 0.72152 0.0
C247 C 0.70327 0.42814 0.7551 0.0
C248 C 0.32168 0.72978 0.90067 0.0
C249 C 0.32332 0.76445 0.93551 0.0
C250 C 0.29384 0.69078 0.92993 0.0
C251 C 0.26639 0.68464 0.99557 0.0
H252 H 0.34167 0.73274 0.84926 0.0
H253 H 0.29382 0.66521 0.90023 0.0
S254 S 0.25989 0.76571 0.11164 0.0
N255 N 0.29631 0.79037 0.04174 0.0
N256 N 0.24362 0.71708 0.09632 0.0
C257 C 0.26796 0.71914 0.03166 0.0
C258 C 0.29643 0.75897 1.00173 0.0
C259 C 0.6259 0.32459 0.11726 0.0
C260 C 0.58488 0.31273 0.10287 0.0
C261 C 0.63723 0.29696 0.14687 0.0
C262 C 0.60801 0.25639 0.16446 0.0
H263 H 0.64956 0.35566 0.10661 0.0
H264 H 0.66919 0.3077 0.15718 0.0
S265 S 0.49683 0.20872 0.13198 0.0
N266 N 0.51513 0.2565 0.10362 0.0
N267 N 0.53642 0.20511 0.16224 0.0
C268 C 0.56692 0.24392 0.1502 0.0
C269 C 0.55536 0.27192 0.11876 0.0
loop_
_geom_bond_atom_site_label_1
_geom_bond_atom_site_label_2
_geom_bond_distance
_geom_bond_site_symmetry_2
_ccdc_geom_bond_type
Cu0 N1 1.999 1_554 S
Cu0 O6 1.974 . S
Cu0 N11 1.985 . S
Cu0 O20 1.959 1_554 S
N1 Cu0 1.999 1_556 S
N1 C3 1.263 . S
N1 C5 1.389 . S
N2 C3 1.358 . S
N2 C4 1.400 . S
C3 N1 1.263 . S
C3 N2 1.358 . S
C3 H9 0.930 1_556 S
C4 N2 1.400 . S
C4 C5 1.351 . S
C4 H21 0.930 . S
C5 N1 1.389 . S
C5 C4 1.351 . S
C5 H10 0.930 . S
O6 Cu0 1.974 . S
O6 C16 1.282 . S
C7 O8 1.266 . S
C7 O20 1.251 1_554 S
O8 C7 1.266 . S
H9 C3 0.930 1_554 S
H10 C5 0.930 . S
N11 Cu0 1.985 . S
N11 C13 1.335 . S
N11 C14 1.390 . S
N12 C13 1.345 . S
N12 C15 1.336 . S
C13 N11 1.335 . S
C13 N12 1.345 . S
C13 H18 0.930 . S
C14 N11 1.390 . S
C14 C15 1.346 . S
C14 H19 0.930 . S
C15 N12 1.336 . S
C15 C14 1.346 . S
C15 H22 0.929 . S
C16 O6 1.282 . S
C16 O17 1.216 . S
O17 C16 1.216 . S
H18 C13 0.930 . S
H19 C14 0.930 . S
O20 Cu0 1.959 1_556 S
O20 C7 1.251 1_556 S
H21 C4 0.930 . S
H22 C15 0.929 . S
Cu23 N24 1.999 . S
Cu23 O29 1.974 . S
Cu23 N34 1.985 . S
Cu23 O43 1.959 . S
N24 Cu23 1.999 . S
N24 C26 1.263 . S
N24 C28 1.389 . S
N25 C26 1.358 . S
N25 C27 1.400 . S
C26 N24 1.263 . S
C26 N25 1.358 . S
C26 H32 0.930 . S
C27 N25 1.400 . S
C27 C28 1.351 . S
C27 H44 0.930 1_554 S
C28 N24 1.389 . S
C28 C27 1.351 . S
C28 H33 0.930 . S
O29 Cu23 1.974 . S
O29 C39 1.282 . S
C30 O31 1.261 . S
C30 O43 1.251 . S
O31 C30 1.261 . S
H32 C26 0.930 . S
H33 C28 0.930 . S
N34 Cu23 1.985 . S
N34 C36 1.335 . S
N34 C37 1.390 . S
N35 C36 1.345 . S
N35 C38 1.336 . S
C36 N34 1.335 . S
C36 N35 1.345 . S
C36 H41 0.930 . S
C37 N34 1.390 . S
C37 C38 1.346 . S
C37 H42 0.930 . S
C38 N35 1.336 . S
C38 C37 1.346 . S
C38 H45 0.929 . S
C39 O29 1.282 . S
C39 O40 1.216 . S
O40 C39 1.216 . S
H41 C36 0.930 . S
H42 C37 0.930 . S
O43 Cu23 1.959 . S
O43 C30 1.251 . S
H44 C27 0.930 1_556 S
H45 C38 0.929 . S
Cu46 N47 1.999 . S
Cu46 O52 1.974 . S
Cu46 N57 1.985 . S
Cu46 O66 1.959 . S
N47 Cu46 1.999 . S
N47 C49 1.263 . S
N47 C51 1.389 . S
N48 C49 1.358 . S
N48 C50 1.400 . S
C49 N47 1.263 . S
C49 N48 1.358 . S
C49 H55 0.930 . S
C50 N48 1.400 . S
C50 C51 1.351 . S
C50 H67 0.930 . S
C51 N47 1.389 . S
C51 C50 1.351 . S
C51 H56 0.930 . S
O52 Cu46 1.974 . S
O52 C62 1.282 . S
C53 O54 1.261 . S
C53 O66 1.251 . S
O54 C53 1.261 . S
H55 C49 0.930 . S
H56 C51 0.930 . S
N57 Cu46 1.985 . S
N57 C59 1.335 . S
N57 C60 1.390 . S
N58 C59 1.345 . S
N58 C61 1.336 . S
C59 N57 1.335 . S
C59 N58 1.345 . S
C59 H64 0.930 . S
C60 N57 1.390 . S
C60 C61 1.346 . S
C60 H65 0.930 . S
C61 N58 1.336 . S
C61 C60 1.346 . S
C61 H68 0.929 . S
C62 O52 1.282 . S
C62 O63 1.216 . S
O63 C62 1.216 . S
H64 C59 0.930 . S
H65 C60 0.930 . S
O66 Cu46 1.959 . S
O66 C53 1.251 . S
H67 C50 0.930 . S
H68 C61 0.929 . S
Cu69 N70 1.999 . S
Cu69 O75 1.974 . S
Cu69 N80 1.985 . S
Cu69 O89 1.959 . S
N70 Cu69 1.999 . S
N70 C72 1.263 . S
N70 C74 1.389 . S
N71 C72 1.358 . S
N71 C73 1.400 . S
C72 N70 1.263 . S
C72 N71 1.358 . S
C72 H78 0.930 . S
C73 N71 1.400 . S
C73 C74 1.351 . S
C73 H90 0.930 . S
C74 N70 1.389 . S
C74 C73 1.351 . S
C74 H79 0.930 . S
O75 Cu69 1.974 . S
O75 C85 1.282 . S
C76 O77 1.261 . S
C76 O89 1.251 . S
O77 C76 1.261 . S
H78 C72 0.930 . S
H79 C74 0.930 . S
N80 Cu69 1.985 . S
N80 C82 1.335 . S
N80 C83 1.390 . S
N81 C82 1.345 . S
N81 C84 1.336 . S
C82 N80 1.335 . S
C82 N81 1.345 . S
C82 H87 0.930 . S
C83 N80 1.390 . S
C83 C84 1.346 . S
C83 H88 0.930 . S
C84 N81 1.336 . S
C84 C83 1.346 . S
C84 H91 0.929 . S
C85 O75 1.282 . S
C85 O86 1.216 . S
O86 C85 1.216 . S
H87 C82 0.930 . S
H88 C83 0.930 . S
O89 Cu69 1.959 . S
O89 C76 1.251 . S
H90 C73 0.930 . S
H91 C84 0.929 . S
Cu92 N93 1.999 . S
Cu92 O98 1.974 . S
Cu92 N103 1.985 . S
Cu92 O112 1.959 . S
N93 Cu92 1.999 . S
N93 C95 1.263 . S
N93 C97 1.389 . S
N94 C95 1.358 . S
N94 C96 1.400 . S
C95 N93 1.263 . S
C95 N94 1.358 . S
C95 H101 0.930 . S
C96 N94 1.400 . S
C96 C97 1.351 . S
C96 H113 0.930 . S
C97 N93 1.389 . S
C97 C96 1.351 . S
C97 H102 0.930 . S
O98 Cu92 1.974 . S
O98 C108 1.282 . S
C99 O100 1.261 . S
C99 O112 1.251 . S
O100 C99 1.261 . S
H101 C95 0.930 . S
H102 C97 0.930 . S
N103 Cu92 1.985 . S
N103 C105 1.335 . S
N103 C106 1.390 . S
N104 C105 1.345 . S
N104 C107 1.336 . S
C105 N103 1.335 . S
C105 N104 1.345 . S
C105 H110 0.930 . S
C106 N103 1.390 . S
C106 C107 1.346 . S
C106 H111 0.930 . S
C107 N104 1.336 . S
C107 C106 1.346 . S
C107 H114 0.929 1_556 S
C108 O98 1.282 . S
C108 O109 1.216 . S
O109 C108 1.216 . S
H110 C105 0.930 . S
H111 C106 0.930 . S
O112 Cu92 1.959 . S
O112 C99 1.251 . S
H113 C96 0.930 . S
H114 C107 0.929 1_554 S
Cu115 N116 1.999 . S
Cu115 O121 1.974 . S
Cu115 N126 1.985 . S
Cu115 O135 1.959 . S
N116 Cu115 1.999 . S
N116 C118 1.263 . S
N116 C120 1.389 . S
N117 C118 1.358 . S
N117 C119 1.400 . S
C118 N116 1.263 . S
C118 N117 1.358 . S
C118 H124 0.930 . S
C119 N117 1.400 . S
C119 C120 1.351 . S
C119 H136 0.930 . S
C120 N116 1.389 . S
C120 C119 1.351 . S
C120 H125 0.930 . S
O121 Cu115 1.974 . S
O121 C131 1.282 1_556 S
C122 O123 1.261 . S
C122 O135 1.251 . S
O123 C122 1.261 . S
H124 C118 0.930 . S
H125 C120 0.930 . S
N126 Cu115 1.985 . S
N126 C128 1.335 . S
N126 C129 1.390 1_556 S
N127 C128 1.345 1_554 S
N127 C130 1.336 . S
C128 N126 1.335 . S
C128 N127 1.345 1_556 S
C128 H133 0.930 . S
C129 N126 1.390 1_554 S
C129 C130 1.346 . S
C129 H134 0.930 . S
C130 N127 1.336 . S
C130 C129 1.346 . S
C130 H137 0.929 . S
C131 O121 1.282 1_554 S
C131 O132 1.216 . S
O132 C131 1.216 . S
H133 C128 0.930 . S
H134 C129 0.930 . S
O135 Cu115 1.959 . S
O135 C122 1.251 . S
H136 C119 0.930 . S
H137 C130 0.929 . S
C138 C139 1.369 . S
C138 C140 1.419 1_455 S
C138 H142 0.930 . S
C139 C138 1.369 . S
C139 C148 1.429 1_455 S
C140 C138 1.419 1_655 S
C140 C141 1.363 . S
C140 H143 0.929 . S
C141 C140 1.363 . S
C141 C147 1.428 . S
H142 C138 0.930 . S
H143 C140 0.929 . S
S144 N145 1.613 1_655 S
S144 N146 1.610 . S
N145 S144 1.613 1_455 S
N145 C148 1.350 1_455 S
N146 S144 1.610 . S
N146 C147 1.351 . S
C147 C141 1.428 . S
C147 N146 1.351 . S
C147 C148 1.434 . S
C148 C139 1.429 1_655 S
C148 N145 1.350 1_655 S
C148 C147 1.434 . S
C149 C150 1.369 . S
C149 C151 1.419 1_556 S
C149 H153 0.930 1_556 S
C150 C149 1.369 . S
C150 C159 1.429 . S
C151 C149 1.419 1_554 S
C151 C152 1.363 1_565 S
C151 H154 0.929 . S
C152 C151 1.363 1_545 S
C152 C158 1.428 1_554 S
H153 C149 0.930 1_554 S
H154 C151 0.929 . S
S155 N156 1.613 . S
S155 N157 1.610 . S
N156 S155 1.613 . S
N156 C159 1.350 1_545 S
N157 S155 1.610 . S
N157 C158 1.351 . S
C158 C152 1.428 1_556 S
C158 N157 1.351 . S
C158 C159 1.434 1_545 S
C159 C150 1.429 . S
C159 N156 1.350 1_565 S
C159 C158 1.434 1_565 S
C160 C161 1.369 . S
C160 C162 1.419 . S
C160 H164 0.930 . S
C161 C160 1.369 . S
C161 C170 1.429 . S
C162 C160 1.419 . S
C162 C163 1.363 . S
C162 H165 0.929 . S
C163 C162 1.363 . S
C163 C169 1.428 . S
H164 C160 0.930 . S
H165 C162 0.929 . S
S166 N167 1.613 . S
S166 N168 1.610 . S
N167 S166 1.613 . S
N167 C170 1.350 . S
N168 S166 1.610 . S
N168 C169 1.351 . S
C169 C163 1.428 . S
C169 N168 1.351 . S
C169 C170 1.434 . S
C170 C161 1.429 . S
C170 N167 1.350 . S
C170 C169 1.434 . S
C171 C172 1.369 1_455 S
C171 C173 1.419 . S
C171 H175 0.930 . S
C172 C171 1.369 1_655 S
C172 C181 1.429 . S
C173 C171 1.419 . S
C173 C174 1.363 . S
C173 H176 0.929 . S
C174 C173 1.363 . S
C174 C180 1.428 . S
H175 C171 0.930 . S
H176 C173 0.929 . S
S177 N178 1.613 . S
S177 N179 1.610 1_655 S
N178 S177 1.613 . S
N178 C181 1.350 . S
N179 S177 1.610 1_455 S
N179 C180 1.351 . S
C180 C174 1.428 . S
C180 N179 1.351 . S
C180 C181 1.434 1_455 S
C181 C172 1.429 . S
C181 N178 1.350 . S
C181 C180 1.434 1_655 S
C182 C183 1.369 . S
C182 C184 1.419 . S
C182 H186 0.930 . S
C183 C182 1.369 . S
C183 C192 1.429 . S
C184 C182 1.419 . S
C184 C185 1.363 1_545 S
C184 H187 0.929 . S
C185 C184 1.363 1_565 S
C185 C191 1.428 . S
H186 C182 0.930 . S
H187 C184 0.929 . S
S188 N189 1.613 1_565 S
S188 N190 1.610 . S
N189 S188 1.613 1_545 S
N189 C192 1.350 . S
N190 S188 1.610 . S
N190 C191 1.351 . S
C191 C185 1.428 . S
C191 N190 1.351 . S
C191 C192 1.434 1_565 S
C192 C183 1.429 . S
C192 N189 1.350 . S
C192 C191 1.434 1_545 S
C193 C194 1.369 . S
C193 C195 1.419 . S
C193 H197 0.930 . S
C194 C193 1.369 . S
C194 C203 1.429 . S
C195 C193 1.419 . S
C195 C196 1.363 . S
C195 H198 0.929 . S
C196 C195 1.363 . S
C196 C202 1.428 . S
H197 C193 0.930 . S
H198 C195 0.929 . S
S199 N200 1.613 . S
S199 N201 1.610 . S
N200 S199 1.613 . S
N200 C203 1.350 . S
N201 S199 1.610 . S
N201 C202 1.351 . S
C202 C196 1.428 . S
C202 N201 1.351 . S
C202 C203 1.434 . S
C203 C194 1.429 . S
C203 N200 1.350 . S
C203 C202 1.434 . S
C204 C205 1.369 . S
C204 C206 1.419 . S
C204 H208 0.930 . S
C205 C204 1.369 . S
C205 C214 1.429 . S
C206 C204 1.419 . S
C206 C207 1.363 . S
C206 H209 0.929 . S
C207 C206 1.363 . S
C207 C213 1.428 . S
H208 C204 0.930 . S
H209 C206 0.929 . S
S210 N211 1.613 . S
S210 N212 1.610 . S
N211 S210 1.613 . S
N211 C214 1.350 . S
N212 S210 1.610 . S
N212 C213 1.351 . S
C213 C207 1.428 . S
C213 N212 1.351 . S
C213 C214 1.434 . S
C214 C205 1.429 . S
C214 N211 1.350 . S
C214 C213 1.434 . S
C215 C216 1.369 . S
C215 C217 1.419 . S
C215 H219 0.930 . S
C216 C215 1.369 . S
C216 C225 1.429 . S
C217 C215 1.419 . S
C217 C218 1.363 . S
C217 H220 0.929 . S
C218 C217 1.363 . S
C218 C224 1.428 . S
H219 C215 0.930 . S
H220 C217 0.929 . S
S221 N222 1.613 . S
S221 N223 1.610 . S
N222 S221 1.613 . S
N222 C225 1.350 . S
N223 S221 1.610 . S
N223 C224 1.351 . S
C224 C218 1.428 . S
C224 N223 1.351 . S
C224 C225 1.434 . S
C225 C216 1.429 . S
C225 N222 1.350 . S
C225 C224 1.434 . S
C226 C227 1.369 . S
C226 C228 1.419 . S
C226 H230 0.930 . S
C227 C226 1.369 . S
C227 C236 1.429 . S
C228 C226 1.419 . S
C228 C229 1.363 . S
C228 H231 0.929 . S
C229 C228 1.363 . S
C229 C235 1.428 . S
H230 C226 0.930 . S
H231 C228 0.929 . S
S232 N233 1.613 . S
S232 N234 1.610 . S
N233 S232 1.613 . S
N233 C236 1.350 . S
N234 S232 1.610 . S
N234 C235 1.351 . S
C235 C229 1.428 . S
C235 N234 1.351 . S
C235 C236 1.434 . S
C236 C227 1.429 . S
C236 N233 1.350 . S
C236 C235 1.434 . S
C237 C238 1.369 . S
C237 C239 1.419 . S
C237 H241 0.930 . S
C238 C237 1.369 . S
C238 C247 1.429 . S
C239 C237 1.419 . S
C239 C240 1.363 . S
C239 H242 0.929 . S
C240 C239 1.363 . S
C240 C246 1.428 . S
H241 C237 0.930 . S
H242 C239 0.929 . S
S243 N244 1.613 . S
S243 N245 1.610 . S
N244 S243 1.613 . S
N244 C247 1.350 . S
N245 S243 1.610 . S
N245 C246 1.351 . S
C246 C240 1.428 . S
C246 N245 1.351 . S
C246 C247 1.434 . S
C247 C238 1.429 . S
C247 N244 1.350 . S
C247 C246 1.434 . S
C248 C249 1.369 . S
C248 C250 1.419 . S
C248 H252 0.930 . S
C249 C248 1.369 . S
C249 C258 1.429 . S
C250 C248 1.419 . S
C250 C251 1.363 . S
C250 H253 0.929 . S
C251 C250 1.363 . S
C251 C257 1.428 . S
H252 C248 0.930 . S
H253 C250 0.929 . S
S254 N255 1.613 . S
S254 N256 1.610 . S
N255 S254 1.613 . S
N255 C258 1.350 1_554 S
N256 S254 1.610 . S
N256 C257 1.351 1_554 S
C257 C251 1.428 . S
C257 N256 1.351 1_556 S
C257 C258 1.434 . S
C258 C249 1.429 . S
C258 N255 1.350 1_556 S
C258 C257 1.434 . S
C259 C260 1.369 . S
C259 C261 1.419 . S
C259 H263 0.930 . S
C260 C259 1.369 . S
C260 C269 1.429 . S
C261 C259 1.419 . S
C261 C262 1.363 . S
C261 H264 0.929 . S
C262 C261 1.363 . S
C262 C268 1.428 . S
H263 C259 0.930 . S
H264 C261 0.929 . S
S265 N266 1.613 . S
S265 N267 1.610 . S
N266 S265 1.613 . S
N266 C269 1.350 . S
N267 S265 1.610 . S
N267 C268 1.351 . S
C268 C262 1.428 . S
C268 N267 1.351 . S
C268 C269 1.434 . S
C269 C260 1.429 . S
C269 N266 1.350 . S
C269 C268 1.434 . S
C139 N2 1.583 . S
C141 C85 1.658 . S
C150 C108 1.659 . S
C152 N25 1.584 . S
C161 N48 1.589 . S
C163 C131 1.662 . S
C172 N71 1.582 . S
C174 C16 1.660 . S
C183 C39 1.662 . S
C185 N94 1.586 . S
C194 N117 1.588 . S
C196 C62 1.662 . S
C205 N12 1.615 . S
C207 C53 1.614 . S
C216 N35 1.610 . S
C218 C76 1.612 . S
C227 C99 1.616 . S
C229 N58 1.614 . S
C238 C122 1.614 . S
C240 N81 1.612 . S
C249 N104 1.611 . S
C251 C7 1.608 1_556 S
C260 N127 1.610 . S
C262 C30 1.612 . S
