# Generated by pormake.
# Topology uol, (4)-cn, num edge types: 1
# Building blocks:
#     Node 0, Type 0, BuildingBlock: QUQFOY_clean_sbu_1, # of connection points: 4
#     Node 1, Type 0, BuildingBlock: QUQFOY_clean_sbu_1, # of connection points: 4
#     Node 2, Type 0, BuildingBlock: QUQFOY_clean_sbu_1, # of connection points: 4
#     Node 3, Type 0, BuildingBlock: QUQFOY_clean_sbu_1, # of connection points: 4
#     Node 4, Type 0, BuildingBlock: QUQFOY_clean_sbu_1, # of connection points: 4
#     Node 5, Type 0, BuildingBlock: QUQFOY_clean_sbu_1, # of connection points: 4
#     Node 6, Type 0, BuildingBlock: QUQFOY_clean_sbu_1, # of connection points: 4
#     Node 7, Type 0, BuildingBlock: QUQFOY_clean_sbu_1, # of connection points: 4
#     Node 8, Type 0, BuildingBlock: QUQFOY_clean_sbu_1, # of connection points: 4
#     Node 9, Type 0, BuildingBlock: QUQFOY_clean_sbu_1, # of connection points: 4
#     Node 10, Type 0, BuildingBlock: QUQFOY_clean_sbu_1, # of connection points: 4
#     Node 11, Type 0, BuildingBlock: QUQFOY_clean_sbu_1, # of connection points: 4
#     Edge 12, Type (0, 0), BuildingBlock: EYOCIG_clean_linker_4, # of connection points: 2
#     Edge 13, Type (0, 0), BuildingBlock: EYOCIG_clean_linker_4, # of connection points: 2
#     Edge 14, Type (0, 0), BuildingBlock: EYOCIG_clean_linker_4, # of connection points: 2
#     Edge 15, Type (0, 0), BuildingBlock: EYOCIG_clean_linker_4, # of connection points: 2
#     Edge 16, Type (0, 0), BuildingBlock: EYOCIG_clean_linker_4, # of connection points: 2
#     Edge 17, Type (0, 0), BuildingBlock: EYOCIG_clean_linker_4, # of connection points: 2
#     Edge 18, Type (0, 0), BuildingBlock: EYOCIG_clean_linker_4, # of connection points: 2
#     Edge 19, Type (0, 0), BuildingBlock: EYOCIG_clean_linker_4, # of connection points: 2
#     Edge 20, Type (0, 0), BuildingBlock: EYOCIG_clean_linker_4, # of connection points: 2
#     Edge 21, Type (0, 0), BuildingBlock: EYOCIG_clean_linker_4, # of connection points: 2
#     Edge 22, Type (0, 0), BuildingBlock: EYOCIG_clean_linker_4, # of connection points: 2
#     Edge 23, Type (0, 0), BuildingBlock: EYOCIG_clean_linker_4, # of connection points: 2
#     Edge 24, Type (0, 0), BuildingBlock: EYOCIG_clean_linker_4, # of connection points: 2
#     Edge 25, Type (0, 0), BuildingBlock: EYOCIG_clean_linker_4, # of connection points: 2
#     Edge 26, Type (0, 0), BuildingBlock: EYOCIG_clean_linker_4, # of connection points: 2
#     Edge 27, Type (0, 0), BuildingBlock: EYOCIG_clean_linker_4, # of connection points: 2
#     Edge 28, Type (0, 0), BuildingBlock: EYOCIG_clean_linker_4, # of connection points: 2
#     Edge 29, Type (0, 0), BuildingBlock: EYOCIG_clean_linker_4, # of connection points: 2
#     Edge 30, Type (0, 0), BuildingBlock: EYOCIG_clean_linker_4, # of connection points: 2
#     Edge 31, Type (0, 0), BuildingBlock: EYOCIG_clean_linker_4, # of connection points: 2
#     Edge 32, Type (0, 0), BuildingBlock: EYOCIG_clean_linker_4, # of connection points: 2
#     Edge 33, Type (0, 0), BuildingBlock: EYOCIG_clean_linker_4, # of connection points: 2
#     Edge 34, Type (0, 0), BuildingBlock: EYOCIG_clean_linker_4, # of connection points: 2
#     Edge 35, Type (0, 0), BuildingBlock: EYOCIG_clean_linker_4, # of connection points: 2
# Relax obj value: 0.038
# Max RMSD: 0.149
# Mean RMSD: 0.149
data_MOF--net-uol--node1-QUQFOY_clean_sbu_1--edge1-EYOCIG_clean_linker_4
_symmetry_space_group_name_H-M    P1
_symmetry_Int_Tables_number       1
_symmetry_cell_setting            triclinic
loop_
_symmetry_equiv_pos_as_xyz
'x, y, z'
_cell_length_a     26.669131
_cell_length_b     26.682419
_cell_length_c     56.525717
_cell_angle_alpha  89.991222
_cell_angle_beta   90.010313
_cell_angle_gamma 120.01526
loop_
_atom_site_label
_atom_site_type_symbol
_atom_site_fract_x
_atom_site_fract_y
_atom_site_fract_z
_atom_type_partial_charge
O0 O 0.18855 0.34699 0.08343 0.0
Cd1 Cd 0.18831 0.38506 0.11527 0.0
Cd2 Cd 0.11351 0.27189 0.12641 0.0
O3 O 0.11662 0.25832 0.09051 0.0
O4 O 0.21901 0.46861 0.10797 0.0
O5 O 0.12947 0.41037 0.12066 0.0
C6 C 0.16877 0.4609 0.11347 0.0
C7 C 0.02894 0.23364 0.14866 0.0
C8 C 0.15443 0.29551 0.07662 0.0
C9 C 0.22911 0.33256 0.15131 0.0
O10 O 0.18408 0.28516 0.1461 0.0
O11 O 0.23832 0.38008 0.14233 0.0
O12 O 0.04802 0.20093 0.14087 0.0
O13 O 0.05543 0.28747 0.1425 0.0
O14 O 0.84249 0.1878 0.25025 0.0
Cd15 Cd 0.80395 0.1872 0.28208 0.0
Cd16 Cd 0.84258 0.11266 0.29316 0.0
O17 O 0.85944 0.116 0.25726 0.0
O18 O 0.75092 0.21771 0.27479 0.0
O19 O 0.71979 0.12816 0.28739 0.0
C20 C 0.70844 0.16739 0.28023 0.0
C21 C 0.7962 0.02804 0.31535 0.0
C22 C 0.86002 0.15384 0.24341 0.0
C23 C 0.89716 0.22802 0.31817 0.0
O24 O 0.89974 0.18314 0.31291 0.0
O25 O 0.85875 0.23711 0.3092 0.0
O26 O 0.84806 0.04718 0.3076 0.0
O27 O 0.76885 0.05451 0.30918 0.0
O28 O 0.65524 0.84182 0.41693 0.0
Cd29 Cd 0.61724 0.8034 0.44878 0.0
Cd30 Cd 0.73037 0.84179 0.45988 0.0
O31 O 0.74395 0.85859 0.42397 0.0
O32 O 0.53366 0.75036 0.4415 0.0
O33 O 0.59214 0.71932 0.45414 0.0
C34 C 0.54153 0.70793 0.44697 0.0
C35 C 0.76836 0.7952 0.48209 0.0
C36 C 0.70673 0.85923 0.41011 0.0
C37 C 0.66976 0.8966 0.48484 0.0
O38 O 0.71718 0.89904 0.47961 0.0
O39 O 0.6222 0.85826 0.47586 0.0
O40 O 0.80123 0.84702 0.47434 0.0
O41 O 0.71452 0.76801 0.47591 0.0
O42 O 0.81344 0.65389 0.58366 0.0
Cd43 Cd 0.81397 0.61596 0.61551 0.0
Cd44 Cd 0.88866 0.72913 0.62658 0.0
O45 O 0.88531 0.74263 0.59068 0.0
O46 O 0.78352 0.53243 0.60824 0.0
O47 O 0.87307 0.59098 0.62086 0.0
C48 C 0.83387 0.54037 0.61372 0.0
C49 C 0.97336 0.7675 0.64874 0.0
C50 C 0.84745 0.70538 0.57682 0.0
C51 C 0.77321 0.66838 0.65158 0.0
O52 O 0.81817 0.71581 0.64633 0.0
O53 O 0.76403 0.62087 0.6426 0.0
O54 O 0.95418 0.80015 0.64098 0.0
O55 O 0.94687 0.71366 0.64261 0.0
O56 O 0.16014 0.81344 0.75024 0.0
Cd57 Cd 0.19867 0.81403 0.78208 0.0
Cd58 Cd 0.1601 0.88863 0.79314 0.0
O59 O 0.14321 0.88525 0.75724 0.0
O60 O 0.2517 0.78351 0.77481 0.0
O61 O 0.28282 0.87305 0.7874 0.0
C62 C 0.29417 0.83381 0.78026 0.0
C63 C 0.20649 0.9733 0.8153 0.0
C64 C 0.14262 0.84741 0.74339 0.0
C65 C 0.10546 0.77327 0.81816 0.0
O66 O 0.10295 0.81818 0.81291 0.0
O67 O 0.14384 0.76412 0.80919 0.0
O68 O 0.15462 0.95413 0.80754 0.0
O69 O 0.23385 0.94682 0.80915 0.0
O70 O 0.34736 0.15998 0.91681 0.0
Cd71 Cd 0.38527 0.19846 0.94865 0.0
Cd72 Cd 0.27201 0.15968 0.95972 0.0
O73 O 0.25851 0.14284 0.92382 0.0
O74 O 0.46884 0.25158 0.94139 0.0
O75 O 0.41029 0.28254 0.954 0.0
C76 C 0.46093 0.29397 0.94686 0.0
C77 C 0.23369 0.20599 0.98189 0.0
C78 C 0.29583 0.14237 0.90996 0.0
C79 C 0.33293 0.10522 0.98472 0.0
O80 O 0.28543 0.1026 0.97948 0.0
O81 O 0.38044 0.14366 0.97575 0.0
O82 O 0.20099 0.15415 0.97414 0.0
O83 O 0.28754 0.23336 0.97573 0.0
O84 O 0.65506 0.81335 0.79579 0.0
Cd85 Cd 0.61707 0.81376 0.76394 0.0
Cd86 Cd 0.73031 0.88829 0.75282 0.0
O87 O 0.74388 0.88507 0.78872 0.0
O88 O 0.53352 0.78335 0.77123 0.0
O89 O 0.59205 0.8728 0.75855 0.0
C90 C 0.54144 0.83364 0.76572 0.0
C91 C 0.76865 0.97289 0.73061 0.0
C92 C 0.70661 0.84733 0.80261 0.0
C93 C 0.66938 0.7728 0.7279 0.0
O94 O 0.71687 0.81774 0.7331 0.0
O95 O 0.62188 0.7637 0.73689 0.0
O96 O 0.80133 0.95373 0.73837 0.0
O97 O 0.7148 0.94643 0.73677 0.0
O98 O 0.84247 0.65466 0.96246 0.0
Cd99 Cd 0.80396 0.61679 0.93061 0.0
Cd100 Cd 0.84262 0.72994 0.91955 0.0
O101 O 0.85946 0.74342 0.95546 0.0
O102 O 0.7508 0.53325 0.93786 0.0
O103 O 0.71986 0.59183 0.92525 0.0
C104 C 0.7084 0.5412 0.93239 0.0
C105 C 0.79619 0.76813 0.89737 0.0
C106 C 0.86001 0.70614 0.9693 0.0
C107 C 0.89724 0.6692 0.89455 0.0
O108 O 0.8998 0.71664 0.89981 0.0
O109 O 0.85881 0.62168 0.90351 0.0
O110 O 0.84804 0.80087 0.90513 0.0
O111 O 0.76887 0.7143 0.90353 0.0
O112 O 0.18927 0.84216 0.12902 0.0
Cd113 Cd 0.1888 0.80378 0.09717 0.0
Cd114 Cd 0.11392 0.84205 0.08613 0.0
O115 O 0.11724 0.85881 0.12203 0.0
O116 O 0.2194 0.75081 0.10441 0.0
O117 O 0.1298 0.71967 0.09181 0.0
C118 C 0.16908 0.70835 0.09894 0.0
C119 C 0.02922 0.79558 0.06396 0.0
C120 C 0.15517 0.8595 0.13588 0.0
C121 C 0.22934 0.897 0.06111 0.0
O122 O 0.18434 0.89935 0.06637 0.0
O123 O 0.23863 0.85871 0.07007 0.0
O124 O 0.04828 0.84738 0.07174 0.0
O125 O 0.05582 0.76833 0.07009 0.0
O126 O 0.34785 0.18834 0.2956 0.0
Cd127 Cd 0.38573 0.1877 0.26375 0.0
Cd128 Cd 0.27256 0.11311 0.25271 0.0
O129 O 0.25906 0.11648 0.28861 0.0
O130 O 0.4693 0.21809 0.27101 0.0
O131 O 0.41064 0.12856 0.25844 0.0
C132 C 0.4613 0.16773 0.26557 0.0
C133 C 0.23442 0.02845 0.23056 0.0
C134 C 0.29635 0.15435 0.30245 0.0
C135 C 0.33328 0.22842 0.22766 0.0
O136 O 0.28582 0.18352 0.23293 0.0
O137 O 0.38083 0.23757 0.23663 0.0
O138 O 0.20162 0.04749 0.2383 0.0
O139 O 0.28827 0.05506 0.23672 0.0
O140 O 0.16036 0.34669 0.46242 0.0
Cd141 Cd 0.19877 0.38474 0.43059 0.0
Cd142 Cd 0.16039 0.27166 0.41946 0.0
O143 O 0.14363 0.25804 0.45537 0.0
O144 O 0.25174 0.46828 0.43789 0.0
O145 O 0.28292 0.40997 0.42522 0.0
C146 C 0.29423 0.46051 0.4324 0.0
C147 C 0.20688 0.23364 0.39722 0.0
C148 C 0.14298 0.29521 0.46924 0.0
C149 C 0.10548 0.33225 0.39454 0.0
O150 O 0.10307 0.28486 0.39976 0.0
O151 O 0.14384 0.37978 0.40351 0.0
O152 O 0.15506 0.20081 0.40499 0.0
O153 O 0.23414 0.28745 0.4034 0.0
O154 O 0.81433 0.15949 0.62912 0.0
Cd155 Cd 0.81477 0.19798 0.59729 0.0
Cd156 Cd 0.88947 0.15947 0.58618 0.0
O157 O 0.88618 0.1426 0.62208 0.0
O158 O 0.78411 0.25085 0.6046 0.0
O159 O 0.87369 0.28213 0.59197 0.0
C160 C 0.83439 0.29338 0.59914 0.0
C161 C 0.97411 0.2058 0.56399 0.0
C162 C 0.84834 0.142 0.63594 0.0
C163 C 0.77398 0.10481 0.56121 0.0
O164 O 0.81894 0.10232 0.56644 0.0
O165 O 0.76482 0.14315 0.57019 0.0
O166 O 0.95495 0.15396 0.57175 0.0
O167 O 0.94765 0.23315 0.57015 0.0
C168 C 0.15254 0.60267 0.1043 0.0
C169 C 0.15726 0.64973 0.10146 0.0
C170 C 0.15247 0.55018 0.10811 0.0
C171 C 0.15707 0.50777 0.11096 0.0
C172 C 0.60275 0.15089 0.27482 0.0
C173 C 0.6498 0.15556 0.27769 0.0
C174 C 0.55032 0.15097 0.27097 0.0
C175 C 0.50801 0.15577 0.26811 0.0
C176 C 0.45238 0.60223 0.4416 0.0
C177 C 0.49473 0.6493 0.44445 0.0
C178 C 0.39992 0.54974 0.43777 0.0
C179 C 0.35286 0.50735 0.43492 0.0
C180 C 0.85059 0.45135 0.60835 0.0
C181 C 0.8458 0.49364 0.61119 0.0
C182 C 0.85071 0.39895 0.60453 0.0
C183 C 0.84611 0.35195 0.60167 0.0
C184 C 0.45234 0.85029 0.77107 0.0
C185 C 0.49468 0.84554 0.76823 0.0
C186 C 0.39988 0.85033 0.77489 0.0
C187 C 0.35282 0.84565 0.77774 0.0
C188 C 0.55008 0.39968 0.94152 0.0
C189 C 0.50771 0.35262 0.94436 0.0
C190 C 0.6026 0.45214 0.93772 0.0
C191 C 0.64971 0.49447 0.93489 0.0
C192 C 0.32055 0.29641 0.19754 0.0
C193 C 0.33174 0.26888 0.21133 0.0
C194 C 0.29721 0.31975 0.18137 0.0
C195 C 0.26964 0.33097 0.1676 0.0
C196 C 0.97791 0.29608 0.34829 0.0
C197 C 0.93918 0.26852 0.33449 0.0
C198 C 0.0246 0.31944 0.36446 0.0
C199 C 0.06338 0.33066 0.37823 0.0
C200 C 0.7059 0.02406 0.5311 0.0
C201 C 0.73346 0.06278 0.54489 0.0
C202 C 0.68256 0.9774 0.51493 0.0
C203 C 0.67134 0.93866 0.50115 0.0
C204 C 0.70521 0.68118 0.68168 0.0
C205 C 0.73272 0.66994 0.66789 0.0
C206 C 0.68196 0.7046 0.69784 0.0
C207 C 0.67084 0.73223 0.71161 0.0
C208 C 0.97801 0.68192 0.86445 0.0
C209 C 0.93927 0.67073 0.87823 0.0
C210 C 0.02469 0.70524 0.84828 0.0
C211 C 0.06343 0.73279 0.83448 0.0
C212 C 0.2972 0.97786 0.031 0.0
C213 C 0.26975 0.93909 0.04478 0.0
C214 C 0.3204 0.02453 1.01483 0.0
C215 C 0.33149 0.06324 1.00104 0.0
C216 C 0.17441 0.26465 0.03478 0.0
C217 C 0.16429 0.27752 0.05395 0.0
C218 C 0.19297 0.24749 1.01446 0.0
C219 C 0.21228 0.22924 0.99961 0.0
C220 C 0.91102 0.17418 0.20159 0.0
C221 C 0.88796 0.1639 0.22075 0.0
C222 C 0.94677 0.19287 0.18127 0.0
C223 C 0.98431 0.21223 0.1664 0.0
C224 C 0.75469 0.94586 0.34795 0.0
C225 C 0.77293 0.9834 0.33309 0.0
C226 C 0.73755 0.91014 0.36828 0.0
C227 C 0.7247 0.88712 0.38744 0.0
C228 C 0.8273 0.73619 0.535 0.0
C229 C 0.83746 0.72329 0.55416 0.0
C230 C 0.80879 0.75345 0.51468 0.0
C231 C 0.7896 0.7718 0.49982 0.0
C232 C 0.09153 0.82706 0.70159 0.0
C233 C 0.11464 0.83733 0.72075 0.0
C234 C 0.05571 0.80835 0.68129 0.0
C235 C 0.01809 0.78896 0.66645 0.0
C236 C 0.26514 0.09137 0.86815 0.0
C237 C 0.27796 0.11443 0.88731 0.0
C238 C 0.24801 0.05558 0.84784 0.0
C239 C 0.22977 0.01799 0.83301 0.0
C240 C 0.73742 0.82727 0.84444 0.0
C241 C 0.72454 0.8374 0.82527 0.0
C242 C 0.75461 0.80874 0.86478 0.0
C243 C 0.7729 0.78947 0.87964 0.0
C244 C 0.91106 0.73684 1.01111 0.0
C245 C 0.88797 0.72401 0.99196 0.0
C246 C 0.94688 0.75399 0.03142 0.0
C247 C 0.9845 0.77226 0.04626 0.0
C248 C 0.1753 0.91041 0.1777 0.0
C249 C 0.16514 0.88738 0.15854 0.0
C250 C 0.19385 0.94618 0.19801 0.0
C251 C 0.2131 0.98377 0.21285 0.0
C252 C 0.26565 0.17459 0.34427 0.0
C253 C 0.27848 0.16438 0.32511 0.0
C254 C 0.24849 0.19315 0.3646 0.0
C255 C 0.23021 0.21238 0.37947 0.0
C256 C 0.09207 0.26438 0.51107 0.0
C257 C 0.11509 0.27722 0.4919 0.0
C258 C 0.05633 0.24725 0.5314 0.0
C259 C 0.01877 0.22904 0.54626 0.0
C260 C 0.80945 0.05515 0.69805 0.0
C261 C 0.79009 0.01757 0.7129 0.0
C262 C 0.82811 0.09095 0.67774 0.0
C263 C 0.83833 0.11403 0.65859 0.0
loop_
_geom_bond_atom_site_label_1
_geom_bond_atom_site_label_2
_geom_bond_distance
_geom_bond_site_symmetry_2
_ccdc_geom_bond_type
O0 Cd1 2.223 . S
O0 C8 1.315 . S
Cd1 O0 2.223 . S
Cd1 O4 2.297 . S
Cd1 O5 2.439 . S
Cd1 O11 2.240 . S
Cd2 O3 2.240 . S
Cd2 O10 2.223 . S
Cd2 O12 2.297 . S
Cd2 O13 2.439 . S
O3 Cd2 2.240 . S
O3 C8 1.279 . S
O4 Cd1 2.297 . S
O4 C6 1.247 . S
O5 Cd1 2.439 . S
O5 C6 1.208 . S
C6 O4 1.247 . S
C6 O5 1.208 . S
C7 O12 1.247 . S
C7 O13 1.208 . S
C8 O0 1.315 . S
C8 O3 1.279 . S
C9 O10 1.315 . S
C9 O11 1.279 . S
O10 Cd2 2.223 . S
O10 C9 1.315 . S
O11 Cd1 2.240 . S
O11 C9 1.279 . S
O12 Cd2 2.297 . S
O12 C7 1.247 . S
O13 Cd2 2.439 . S
O13 C7 1.208 . S
O14 Cd15 2.223 . S
O14 C22 1.315 . S
Cd15 O14 2.223 . S
Cd15 O18 2.297 . S
Cd15 O19 2.439 . S
Cd15 O25 2.240 . S
Cd16 O17 2.240 . S
Cd16 O24 2.223 . S
Cd16 O26 2.297 . S
Cd16 O27 2.439 . S
O17 Cd16 2.240 . S
O17 C22 1.279 . S
O18 Cd15 2.297 . S
O18 C20 1.247 . S
O19 Cd15 2.439 . S
O19 C20 1.208 . S
C20 O18 1.247 . S
C20 O19 1.208 . S
C21 O26 1.247 . S
C21 O27 1.208 . S
C22 O14 1.315 . S
C22 O17 1.279 . S
C23 O24 1.315 . S
C23 O25 1.279 . S
O24 Cd16 2.223 . S
O24 C23 1.315 . S
O25 Cd15 2.240 . S
O25 C23 1.279 . S
O26 Cd16 2.297 . S
O26 C21 1.247 . S
O27 Cd16 2.439 . S
O27 C21 1.208 . S
O28 Cd29 2.223 . S
O28 C36 1.315 . S
Cd29 O28 2.223 . S
Cd29 O32 2.297 . S
Cd29 O33 2.439 . S
Cd29 O39 2.240 . S
Cd30 O31 2.240 . S
Cd30 O38 2.223 . S
Cd30 O40 2.297 . S
Cd30 O41 2.439 . S
O31 Cd30 2.240 . S
O31 C36 1.279 . S
O32 Cd29 2.297 . S
O32 C34 1.247 . S
O33 Cd29 2.439 . S
O33 C34 1.208 . S
C34 O32 1.247 . S
C34 O33 1.208 . S
C35 O40 1.247 . S
C35 O41 1.208 . S
C36 O28 1.315 . S
C36 O31 1.279 . S
C37 O38 1.315 . S
C37 O39 1.279 . S
O38 Cd30 2.223 . S
O38 C37 1.315 . S
O39 Cd29 2.240 . S
O39 C37 1.279 . S
O40 Cd30 2.297 . S
O40 C35 1.247 . S
O41 Cd30 2.439 . S
O41 C35 1.208 . S
O42 Cd43 2.223 . S
O42 C50 1.315 . S
Cd43 O42 2.223 . S
Cd43 O46 2.297 . S
Cd43 O47 2.439 . S
Cd43 O53 2.240 . S
Cd44 O45 2.240 . S
Cd44 O52 2.223 . S
Cd44 O54 2.297 . S
Cd44 O55 2.439 . S
O45 Cd44 2.240 . S
O45 C50 1.279 . S
O46 Cd43 2.297 . S
O46 C48 1.247 . S
O47 Cd43 2.439 . S
O47 C48 1.208 . S
C48 O46 1.247 . S
C48 O47 1.208 . S
C49 O54 1.247 . S
C49 O55 1.208 . S
C50 O42 1.315 . S
C50 O45 1.279 . S
C51 O52 1.315 . S
C51 O53 1.279 . S
O52 Cd44 2.223 . S
O52 C51 1.315 . S
O53 Cd43 2.240 . S
O53 C51 1.279 . S
O54 Cd44 2.297 . S
O54 C49 1.247 . S
O55 Cd44 2.439 . S
O55 C49 1.208 . S
O56 Cd57 2.223 . S
O56 C64 1.315 . S
Cd57 O56 2.223 . S
Cd57 O60 2.297 . S
Cd57 O61 2.439 . S
Cd57 O67 2.240 . S
Cd58 O59 2.240 . S
Cd58 O66 2.223 . S
Cd58 O68 2.297 . S
Cd58 O69 2.439 . S
O59 Cd58 2.240 . S
O59 C64 1.279 . S
O60 Cd57 2.297 . S
O60 C62 1.247 . S
O61 Cd57 2.439 . S
O61 C62 1.208 . S
C62 O60 1.247 . S
C62 O61 1.208 . S
C63 O68 1.247 . S
C63 O69 1.208 . S
C64 O56 1.315 . S
C64 O59 1.279 . S
C65 O66 1.315 . S
C65 O67 1.279 . S
O66 Cd58 2.223 . S
O66 C65 1.315 . S
O67 Cd57 2.240 . S
O67 C65 1.279 . S
O68 Cd58 2.297 . S
O68 C63 1.247 . S
O69 Cd58 2.439 . S
O69 C63 1.208 . S
O70 Cd71 2.223 . S
O70 C78 1.315 . S
Cd71 O70 2.223 . S
Cd71 O74 2.297 . S
Cd71 O75 2.439 . S
Cd71 O81 2.240 . S
Cd72 O73 2.240 . S
Cd72 O80 2.223 . S
Cd72 O82 2.297 1_556 S
Cd72 O83 2.439 . S
O73 Cd72 2.240 . S
O73 C78 1.279 . S
O74 Cd71 2.297 . S
O74 C76 1.247 . S
O75 Cd71 2.439 . S
O75 C76 1.208 . S
C76 O74 1.247 . S
C76 O75 1.208 . S
C77 O82 1.247 . S
C77 O83 1.208 1_554 S
C78 O70 1.315 . S
C78 O73 1.279 . S
C79 O80 1.315 . S
C79 O81 1.279 . S
O80 Cd72 2.223 . S
O80 C79 1.315 . S
O81 Cd71 2.240 . S
O81 C79 1.279 . S
O82 Cd72 2.297 1_554 S
O82 C77 1.247 . S
O83 Cd72 2.439 . S
O83 C77 1.208 1_556 S
O84 Cd85 2.223 . S
O84 C92 1.315 . S
Cd85 O84 2.223 . S
Cd85 O88 2.297 . S
Cd85 O89 2.439 . S
Cd85 O95 2.240 . S
Cd86 O87 2.240 . S
Cd86 O94 2.223 . S
Cd86 O96 2.297 . S
Cd86 O97 2.439 . S
O87 Cd86 2.240 . S
O87 C92 1.279 . S
O88 Cd85 2.297 . S
O88 C90 1.247 . S
O89 Cd85 2.439 . S
O89 C90 1.208 . S
C90 O88 1.247 . S
C90 O89 1.208 . S
C91 O96 1.247 . S
C91 O97 1.208 . S
C92 O84 1.315 . S
C92 O87 1.279 . S
C93 O94 1.315 . S
C93 O95 1.279 . S
O94 Cd86 2.223 . S
O94 C93 1.315 . S
O95 Cd85 2.240 . S
O95 C93 1.279 . S
O96 Cd86 2.297 . S
O96 C91 1.247 . S
O97 Cd86 2.439 . S
O97 C91 1.208 . S
O98 Cd99 2.223 . S
O98 C106 1.315 . S
Cd99 O98 2.223 . S
Cd99 O102 2.297 . S
Cd99 O103 2.439 . S
Cd99 O109 2.240 . S
Cd100 O101 2.240 . S
Cd100 O108 2.223 . S
Cd100 O110 2.297 . S
Cd100 O111 2.439 . S
O101 Cd100 2.240 . S
O101 C106 1.279 . S
O102 Cd99 2.297 . S
O102 C104 1.247 . S
O103 Cd99 2.439 . S
O103 C104 1.208 . S
C104 O102 1.247 . S
C104 O103 1.208 . S
C105 O110 1.247 . S
C105 O111 1.208 . S
C106 O98 1.315 . S
C106 O101 1.279 . S
C107 O108 1.315 . S
C107 O109 1.279 . S
O108 Cd100 2.223 . S
O108 C107 1.315 . S
O109 Cd99 2.240 . S
O109 C107 1.279 . S
O110 Cd100 2.297 . S
O110 C105 1.247 . S
O111 Cd100 2.439 . S
O111 C105 1.208 . S
O112 Cd113 2.223 . S
O112 C120 1.315 . S
Cd113 O112 2.223 . S
Cd113 O116 2.297 . S
Cd113 O117 2.439 . S
Cd113 O123 2.240 . S
Cd114 O115 2.240 . S
Cd114 O122 2.223 . S
Cd114 O124 2.297 . S
Cd114 O125 2.439 . S
O115 Cd114 2.240 . S
O115 C120 1.279 . S
O116 Cd113 2.297 . S
O116 C118 1.247 . S
O117 Cd113 2.439 . S
O117 C118 1.208 . S
C118 O116 1.247 . S
C118 O117 1.208 . S
C119 O124 1.247 . S
C119 O125 1.208 . S
C120 O112 1.315 . S
C120 O115 1.279 . S
C121 O122 1.315 . S
C121 O123 1.279 . S
O122 Cd114 2.223 . S
O122 C121 1.315 . S
O123 Cd113 2.240 . S
O123 C121 1.279 . S
O124 Cd114 2.297 . S
O124 C119 1.247 . S
O125 Cd114 2.439 . S
O125 C119 1.208 . S
O126 Cd127 2.223 . S
O126 C134 1.315 . S
Cd127 O126 2.223 . S
Cd127 O130 2.297 . S
Cd127 O131 2.439 . S
Cd127 O137 2.240 . S
Cd128 O129 2.240 . S
Cd128 O136 2.223 . S
Cd128 O138 2.297 . S
Cd128 O139 2.439 . S
O129 Cd128 2.240 . S
O129 C134 1.279 . S
O130 Cd127 2.297 . S
O130 C132 1.247 . S
O131 Cd127 2.439 . S
O131 C132 1.208 . S
C132 O130 1.247 . S
C132 O131 1.208 . S
C133 O138 1.247 . S
C133 O139 1.208 . S
C134 O126 1.315 . S
C134 O129 1.279 . S
C135 O136 1.315 . S
C135 O137 1.279 . S
O136 Cd128 2.223 . S
O136 C135 1.315 . S
O137 Cd127 2.240 . S
O137 C135 1.279 . S
O138 Cd128 2.297 . S
O138 C133 1.247 . S
O139 Cd128 2.439 . S
O139 C133 1.208 . S
O140 Cd141 2.223 . S
O140 C148 1.315 . S
Cd141 O140 2.223 . S
Cd141 O144 2.297 . S
Cd141 O145 2.439 . S
Cd141 O151 2.240 . S
Cd142 O143 2.240 . S
Cd142 O150 2.223 . S
Cd142 O152 2.297 . S
Cd142 O153 2.439 . S
O143 Cd142 2.240 . S
O143 C148 1.279 . S
O144 Cd141 2.297 . S
O144 C146 1.247 . S
O145 Cd141 2.439 . S
O145 C146 1.208 . S
C146 O144 1.247 . S
C146 O145 1.208 . S
C147 O152 1.247 . S
C147 O153 1.208 . S
C148 O140 1.315 . S
C148 O143 1.279 . S
C149 O150 1.315 . S
C149 O151 1.279 . S
O150 Cd142 2.223 . S
O150 C149 1.315 . S
O151 Cd141 2.240 . S
O151 C149 1.279 . S
O152 Cd142 2.297 . S
O152 C147 1.247 . S
O153 Cd142 2.439 . S
O153 C147 1.208 . S
O154 Cd155 2.223 . S
O154 C162 1.315 . S
Cd155 O154 2.223 . S
Cd155 O158 2.297 . S
Cd155 O159 2.439 . S
Cd155 O165 2.240 . S
Cd156 O157 2.240 . S
Cd156 O164 2.223 . S
Cd156 O166 2.297 . S
Cd156 O167 2.439 . S
O157 Cd156 2.240 . S
O157 C162 1.279 . S
O158 Cd155 2.297 . S
O158 C160 1.247 . S
O159 Cd155 2.439 . S
O159 C160 1.208 . S
C160 O158 1.247 . S
C160 O159 1.208 . S
C161 O166 1.247 . S
C161 O167 1.208 . S
C162 O154 1.315 . S
C162 O157 1.279 . S
C163 O164 1.315 . S
C163 O165 1.279 . S
O164 Cd156 2.223 . S
O164 C163 1.315 . S
O165 Cd155 2.240 . S
O165 C163 1.279 . S
O166 Cd156 2.297 . S
O166 C161 1.247 . S
O167 Cd156 2.439 . S
O167 C161 1.208 . S
C168 C169 1.170 . S
C168 C170 1.380 . S
C169 C168 1.170 . S
C170 C168 1.380 . S
C170 C171 1.170 . S
C171 C170 1.170 . S
C172 C173 1.170 . S
C172 C174 1.380 . S
C173 C172 1.170 . S
C174 C172 1.380 . S
C174 C175 1.170 . S
C175 C174 1.170 . S
C176 C177 1.170 . S
C176 C178 1.380 . S
C177 C176 1.170 . S
C178 C176 1.380 . S
C178 C179 1.170 . S
C179 C178 1.170 . S
C180 C181 1.170 . S
C180 C182 1.380 . S
C181 C180 1.170 . S
C182 C180 1.380 . S
C182 C183 1.170 . S
C183 C182 1.170 . S
C184 C185 1.170 . S
C184 C186 1.380 . S
C185 C184 1.170 . S
C186 C184 1.380 . S
C186 C187 1.170 . S
C187 C186 1.170 . S
C188 C189 1.170 . S
C188 C190 1.380 . S
C189 C188 1.170 . S
C190 C188 1.380 . S
C190 C191 1.170 . S
C191 C190 1.170 . S
C192 C193 1.170 . S
C192 C194 1.380 . S
C193 C192 1.170 . S
C194 C192 1.380 . S
C194 C195 1.170 . S
C195 C194 1.170 . S
C196 C197 1.170 . S
C196 C198 1.380 1_655 S
C197 C196 1.170 . S
C198 C196 1.380 1_455 S
C198 C199 1.170 . S
C199 C198 1.170 . S
C200 C201 1.170 . S
C200 C202 1.380 1_545 S
C201 C200 1.170 . S
C202 C200 1.380 1_565 S
C202 C203 1.170 . S
C203 C202 1.170 . S
C204 C205 1.170 . S
C204 C206 1.380 . S
C205 C204 1.170 . S
C206 C204 1.380 . S
C206 C207 1.170 . S
C207 C206 1.170 . S
C208 C209 1.170 . S
C208 C210 1.380 1_655 S
C209 C208 1.170 . S
C210 C208 1.380 1_455 S
C210 C211 1.170 . S
C211 C210 1.170 . S
C212 C213 1.170 . S
C212 C214 1.380 1_565 S
C213 C212 1.170 . S
C214 C212 1.380 1_545 S
C214 C215 1.170 1_554 S
C215 C214 1.170 1_556 S
C216 C217 1.170 . S
C216 C218 1.380 . S
C217 C216 1.170 . S
C218 C216 1.380 . S
C218 C219 1.170 . S
C219 C218 1.170 . S
C220 C221 1.170 . S
C220 C222 1.380 . S
C221 C220 1.170 . S
C222 C220 1.380 . S
C222 C223 1.170 . S
C223 C222 1.170 . S
C224 C225 1.170 . S
C224 C226 1.380 . S
C225 C224 1.170 . S
C226 C224 1.380 . S
C226 C227 1.170 . S
C227 C226 1.170 . S
C228 C229 1.170 . S
C228 C230 1.380 . S
C229 C228 1.170 . S
C230 C228 1.380 . S
C230 C231 1.170 . S
C231 C230 1.170 . S
C232 C233 1.170 . S
C232 C234 1.380 . S
C233 C232 1.170 . S
C234 C232 1.380 . S
C234 C235 1.170 . S
C235 C234 1.170 . S
C236 C237 1.170 . S
C236 C238 1.380 . S
C237 C236 1.170 . S
C238 C236 1.380 . S
C238 C239 1.170 . S
C239 C238 1.170 . S
C240 C241 1.170 . S
C240 C242 1.380 . S
C241 C240 1.170 . S
C242 C240 1.380 . S
C242 C243 1.170 . S
C243 C242 1.170 . S
C244 C245 1.170 . S
C244 C246 1.380 . S
C245 C244 1.170 . S
C246 C244 1.380 . S
C246 C247 1.170 . S
C247 C246 1.170 . S
C248 C249 1.170 . S
C248 C250 1.380 . S
C249 C248 1.170 . S
C250 C248 1.380 . S
C250 C251 1.170 . S
C251 C250 1.170 . S
C252 C253 1.170 . S
C252 C254 1.380 . S
C253 C252 1.170 . S
C254 C252 1.380 . S
C254 C255 1.170 . S
C255 C254 1.170 . S
C256 C257 1.170 . S
C256 C258 1.380 . S
C257 C256 1.170 . S
C258 C256 1.380 . S
C258 C259 1.170 . S
C259 C258 1.170 . S
C260 C261 1.170 . S
C260 C262 1.380 . S
C261 C260 1.170 . S
C262 C260 1.380 . S
C262 C263 1.170 . S
C263 C262 1.170 . S
C169 C118 1.380 . S
C171 C6 1.380 . S
C173 C20 1.403 . S
C175 C132 1.403 . S
C177 C34 1.390 . S
C179 C146 1.388 . S
C181 C48 1.380 . S
C183 C160 1.379 . S
C185 C90 1.380 . S
C187 C62 1.380 . S
C189 C76 1.398 . S
C191 C104 1.397 . S
C193 C135 1.111 . S
C195 C9 1.116 . S
C197 C23 1.081 . S
C199 C149 1.081 . S
C201 C163 1.098 . S
C203 C37 1.093 . S
C205 C51 1.133 . S
C207 C93 1.134 . S
C209 C107 1.082 . S
C211 C65 1.084 . S
C213 C121 1.101 . S
C215 C79 1.096 . S
C217 C8 1.450 . S
C219 C77 1.438 . S
C221 C22 1.419 . S
C223 C7 1.471 1_655 S
C225 C21 1.436 1_565 S
C227 C36 1.458 . S
C229 C50 1.443 . S
C231 C35 1.458 . S
C233 C64 1.422 . S
C235 C49 1.471 1_455 S
C237 C78 1.440 . S
C239 C63 1.444 1_545 S
C241 C92 1.456 . S
C243 C105 1.445 . S
C245 C106 1.443 . S
C247 C119 1.459 1_656 S
C249 C120 1.428 . S
C251 C133 1.469 1_565 S
C253 C134 1.439 . S
C255 C147 1.461 . S
C257 C148 1.456 . S
C259 C161 1.436 1_455 S
C261 C91 1.436 1_545 S
C263 C162 1.455 . S
