# Generated by pormake.
# Topology ure, (4)-cn, num edge types: 1
# Building blocks:
#     Node 0, Type 0, BuildingBlock: CEKHIL_clean_sbu_0, # of connection points: 4
#     Node 1, Type 0, BuildingBlock: CEKHIL_clean_sbu_0, # of connection points: 4
#     Node 2, Type 0, BuildingBlock: CEKHIL_clean_sbu_0, # of connection points: 4
#     Node 3, Type 0, BuildingBlock: CEKHIL_clean_sbu_0, # of connection points: 4
#     Node 4, Type 0, BuildingBlock: CEKHIL_clean_sbu_0, # of connection points: 4
#     Node 5, Type 0, BuildingBlock: CEKHIL_clean_sbu_0, # of connection points: 4
#     Node 6, Type 0, BuildingBlock: CEKHIL_clean_sbu_0, # of connection points: 4
#     Node 7, Type 0, BuildingBlock: CEKHIL_clean_sbu_0, # of connection points: 4
#     Node 8, Type 0, BuildingBlock: CEKHIL_clean_sbu_0, # of connection points: 4
#     Node 9, Type 0, BuildingBlock: CEKHIL_clean_sbu_0, # of connection points: 4
#     Node 10, Type 0, BuildingBlock: CEKHIL_clean_sbu_0, # of connection points: 4
#     Node 11, Type 0, BuildingBlock: CEKHIL_clean_sbu_0, # of connection points: 4
#     Node 12, Type 0, BuildingBlock: CEKHIL_clean_sbu_0, # of connection points: 4
#     Node 13, Type 0, BuildingBlock: CEKHIL_clean_sbu_0, # of connection points: 4
#     Node 14, Type 0, BuildingBlock: CEKHIL_clean_sbu_0, # of connection points: 4
#     Node 15, Type 0, BuildingBlock: CEKHIL_clean_sbu_0, # of connection points: 4
#     Edge 16, Type (0, 0), BuildingBlock: ZUJKAS_clean_linker_0, # of connection points: 2
#     Edge 17, Type (0, 0), BuildingBlock: ZUJKAS_clean_linker_0, # of connection points: 2
#     Edge 18, Type (0, 0), BuildingBlock: ZUJKAS_clean_linker_0, # of connection points: 2
#     Edge 19, Type (0, 0), BuildingBlock: ZUJKAS_clean_linker_0, # of connection points: 2
#     Edge 20, Type (0, 0), BuildingBlock: ZUJKAS_clean_linker_0, # of connection points: 2
#     Edge 21, Type (0, 0), BuildingBlock: ZUJKAS_clean_linker_0, # of connection points: 2
#     Edge 22, Type (0, 0), BuildingBlock: ZUJKAS_clean_linker_0, # of connection points: 2
#     Edge 23, Type (0, 0), BuildingBlock: ZUJKAS_clean_linker_0, # of connection points: 2
#     Edge 24, Type (0, 0), BuildingBlock: ZUJKAS_clean_linker_0, # of connection points: 2
#     Edge 25, Type (0, 0), BuildingBlock: ZUJKAS_clean_linker_0, # of connection points: 2
#     Edge 26, Type (0, 0), BuildingBlock: ZUJKAS_clean_linker_0, # of connection points: 2
#     Edge 27, Type (0, 0), BuildingBlock: ZUJKAS_clean_linker_0, # of connection points: 2
#     Edge 28, Type (0, 0), BuildingBlock: ZUJKAS_clean_linker_0, # of connection points: 2
#     Edge 29, Type (0, 0), BuildingBlock: ZUJKAS_clean_linker_0, # of connection points: 2
#     Edge 30, Type (0, 0), BuildingBlock: ZUJKAS_clean_linker_0, # of connection points: 2
#     Edge 31, Type (0, 0), BuildingBlock: ZUJKAS_clean_linker_0, # of connection points: 2
#     Edge 32, Type (0, 0), BuildingBlock: ZUJKAS_clean_linker_0, # of connection points: 2
#     Edge 33, Type (0, 0), BuildingBlock: ZUJKAS_clean_linker_0, # of connection points: 2
#     Edge 34, Type (0, 0), BuildingBlock: ZUJKAS_clean_linker_0, # of connection points: 2
#     Edge 35, Type (0, 0), BuildingBlock: ZUJKAS_clean_linker_0, # of connection points: 2
#     Edge 36, Type (0, 0), BuildingBlock: ZUJKAS_clean_linker_0, # of connection points: 2
#     Edge 37, Type (0, 0), BuildingBlock: ZUJKAS_clean_linker_0, # of connection points: 2
#     Edge 38, Type (0, 0), BuildingBlock: ZUJKAS_clean_linker_0, # of connection points: 2
#     Edge 39, Type (0, 0), BuildingBlock: ZUJKAS_clean_linker_0, # of connection points: 2
#     Edge 40, Type (0, 0), BuildingBlock: ZUJKAS_clean_linker_0, # of connection points: 2
#     Edge 41, Type (0, 0), BuildingBlock: ZUJKAS_clean_linker_0, # of connection points: 2
#     Edge 42, Type (0, 0), BuildingBlock: ZUJKAS_clean_linker_0, # of connection points: 2
#     Edge 43, Type (0, 0), BuildingBlock: ZUJKAS_clean_linker_0, # of connection points: 2
#     Edge 44, Type (0, 0), BuildingBlock: ZUJKAS_clean_linker_0, # of connection points: 2
#     Edge 45, Type (0, 0), BuildingBlock: ZUJKAS_clean_linker_0, # of connection points: 2
#     Edge 46, Type (0, 0), BuildingBlock: ZUJKAS_clean_linker_0, # of connection points: 2
#     Edge 47, Type (0, 0), BuildingBlock: ZUJKAS_clean_linker_0, # of connection points: 2
# Relax obj value: 0.229
# Max RMSD: 0.160
# Mean RMSD: 0.160
data_MOF--net-ure--node1-CEKHIL_clean_sbu_0--edge1-ZUJKAS_clean_linker_0
_symmetry_space_group_name_H-M    P1
_symmetry_Int_Tables_number       1
_symmetry_cell_setting            triclinic
loop_
_symmetry_equiv_pos_as_xyz
'x, y, z'
_cell_length_a     44.331032
_cell_length_b     37.690743
_cell_length_c     37.691852
_cell_angle_alpha  90.007796
_cell_angle_beta   89.997212
_cell_angle_gamma 90.036686
loop_
_atom_site_label
_atom_site_type_symbol
_atom_site_fract_x
_atom_site_fract_y
_atom_site_fract_z
_atom_type_partial_charge
Co0 Co 0.28133 0.23641 0.26894 0.0
O1 O 0.2388 0.22939 0.25954 0.0
O2 O 0.27491 0.21927 0.22064 0.0
C3 C 0.28072 0.2088 0.32245 0.0
O4 O 0.32789 0.23924 0.26947 0.0
Co5 Co 0.30298 0.27976 0.33486 0.0
O6 O 0.34289 0.25948 0.32287 0.0
C7 C 0.27618 0.3164 0.27318 0.0
C8 C 0.24625 0.21836 0.22817 0.0
C9 C 0.34871 0.24624 0.29251 0.0
O10 O 0.27798 0.2881 0.25394 0.0
O11 O 0.28218 0.31726 0.30637 0.0
O12 O 0.28282 0.1902 0.29351 0.0
O13 O 0.27718 0.24235 0.31787 0.0
Co14 Co 0.98638 0.01759 0.48826 0.0
O15 O 0.02904 0.01185 0.47874 0.0
O16 O 0.99542 0.96898 0.47394 0.0
C17 C 0.98222 0.06934 0.45784 0.0
O18 O 0.9402 0.0137 0.49393 0.0
Co19 Co 0.96132 0.08356 0.52892 0.0
O20 O 0.92151 0.0662 0.51241 0.0
C21 C 0.99478 0.02753 0.56718 0.0
C22 C 0.0233 0.97919 0.47028 0.0
C23 C 0.91793 0.03466 0.50104 0.0
O24 O 0.99278 0.0062 0.54045 0.0
O25 O 0.98666 0.06009 0.56612 0.0
O26 O 0.98141 0.0393 0.44089 0.0
O27 O 0.98716 0.067 0.49136 0.0
Co28 Co 0.2327 0.77006 0.77168 0.0
O29 O 0.27561 0.77664 0.76464 0.0
O30 O 0.24135 0.78424 0.72292 0.0
C31 C 0.23148 0.80041 0.82362 0.0
O32 O 0.18617 0.76766 0.76923 0.0
Co33 Co 0.20654 0.73128 0.83805 0.0
O34 O 0.1683 0.75404 0.82344 0.0
C35 C 0.23286 0.68968 0.77891 0.0
C36 C 0.26957 0.78594 0.73229 0.0
C37 C 0.16421 0.76421 0.79158 0.0
O38 O 0.23613 0.71768 0.75952 0.0
O39 O 0.2233 0.69014 0.81093 0.0
O40 O 0.2307 0.81747 0.79367 0.0
O41 O 0.23453 0.76655 0.82114 0.0
Co42 Co 0.527 0.98308 0.99014 0.0
O43 O 0.48502 0.99451 0.98245 0.0
O44 O 0.52249 0.032 0.97375 0.0
C45 C 0.52445 0.93023 0.96129 0.0
O46 O 0.5734 0.98019 0.99423 0.0
Co47 Co 0.54485 0.91503 0.03239 0.0
O48 O 0.58617 0.92668 0.0161 0.0
C49 C 0.51918 0.97705 0.06952 0.0
C50 C 0.49363 0.02569 0.97214 0.0
C51 C 0.59336 0.95671 0.003 0.0
O52 O 0.52326 0.99706 0.04209 0.0
O53 O 0.52318 0.94344 0.06933 0.0
O54 O 0.52851 0.95935 0.94344 0.0
O55 O 0.52062 0.93442 0.99483 0.0
Co56 Co 0.28117 0.7661 0.22853 0.0
O57 O 0.23916 0.77641 0.23752 0.0
O58 O 0.27498 0.78052 0.27787 0.0
C59 C 0.28316 0.79682 0.17679 0.0
O60 O 0.32742 0.75936 0.22819 0.0
Co61 Co 0.29982 0.72446 0.16018 0.0
O62 O 0.34104 0.73903 0.17431 0.0
C63 C 0.27006 0.68728 0.21938 0.0
C64 C 0.24666 0.78475 0.26967 0.0
C65 C 0.34775 0.75078 0.20505 0.0
O66 O 0.27457 0.71392 0.24034 0.0
O67 O 0.27527 0.6882 0.18601 0.0
O68 O 0.28586 0.81352 0.2068 0.0
O69 O 0.2773 0.76353 0.17938 0.0
Co70 Co 0.53105 0.02247 0.52025 0.0
O71 O 0.48875 0.01395 0.52933 0.0
O72 O 0.52425 0.9734 0.53509 0.0
C73 C 0.53254 0.07462 0.55027 0.0
O74 O 0.57745 0.02229 0.51516 0.0
Co75 Co 0.55164 0.08987 0.47845 0.0
O76 O 0.59225 0.07594 0.49534 0.0
C77 C 0.52193 0.03071 0.44107 0.0
C78 C 0.4959 0.98186 0.53832 0.0
C79 C 0.59826 0.0452 0.50758 0.0
O80 O 0.52556 0.01001 0.46807 0.0
O81 O 0.52768 0.06397 0.44167 0.0
O82 O 0.53471 0.04484 0.56747 0.0
O83 O 0.52759 0.07162 0.51681 0.0
Co84 Co 0.23628 0.24011 0.73299 0.0
O85 O 0.27871 0.2325 0.74242 0.0
O86 O 0.24254 0.22457 0.7818 0.0
C87 C 0.23614 0.21071 0.68044 0.0
O88 O 0.1898 0.24386 0.73263 0.0
Co89 Co 0.21511 0.28169 0.66579 0.0
O90 O 0.17476 0.26339 0.67899 0.0
C91 C 0.2442 0.31928 0.72544 0.0
C92 C 0.27114 0.22275 0.77418 0.0
C93 C 0.16893 0.25093 0.70968 0.0
O94 O 0.24058 0.29225 0.74611 0.0
O95 O 0.23865 0.31856 0.69213 0.0
O96 O 0.23395 0.19309 0.70998 0.0
O97 O 0.24027 0.24429 0.68391 0.0
Co98 Co 0.98234 0.98419 0.01688 0.0
O99 O 0.02486 0.9932 0.02414 0.0
O100 O 0.98903 0.03251 0.03396 0.0
C101 C 0.98241 0.93082 0.04472 0.0
O102 O 0.93577 0.98391 0.01362 0.0
Co103 Co 0.96084 0.91826 0.97336 0.0
O104 O 0.92086 0.93047 0.9933 0.0
C105 C 0.98805 0.97984 0.93693 0.0
C106 C 0.01763 0.02468 0.03503 0.0
C107 C 0.91498 0.96086 0.00644 0.0
O108 O 0.98614 0.99906 0.96522 0.0
O109 O 0.98192 0.94669 0.93598 0.0
O110 O 0.98041 0.95986 0.06315 0.0
O111 O 0.98625 0.93517 0.01117 0.0
Co112 Co 0.78127 0.26622 0.73701 0.0
O113 O 0.73898 0.27371 0.74746 0.0
O114 O 0.77589 0.2838 0.78533 0.0
C115 C 0.78009 0.29342 0.68329 0.0
O116 O 0.82778 0.26287 0.73523 0.0
Co117 Co 0.80091 0.22184 0.67082 0.0
O118 O 0.84142 0.24091 0.68203 0.0
C119 C 0.77585 0.18604 0.73393 0.0
C120 C 0.7471 0.28489 0.77856 0.0
C121 C 0.84808 0.25468 0.71192 0.0
O122 O 0.77789 0.21468 0.75263 0.0
O123 O 0.7811 0.18464 0.7006 0.0
O124 O 0.78271 0.31222 0.71203 0.0
O125 O 0.77617 0.25997 0.68821 0.0
Co126 Co 0.03288 0.52176 0.01726 0.0
O127 O 0.99022 0.51283 0.02404 0.0
O128 O 0.02584 0.47305 0.03288 0.0
C129 C 0.03297 0.57434 0.04655 0.0
O130 O 0.07946 0.52157 0.01443 0.0
Co131 Co 0.05562 0.58869 0.97623 0.0
O132 O 0.09527 0.57553 0.99658 0.0
C133 C 0.02722 0.52911 0.93767 0.0
C134 C 0.99729 0.48103 0.03417 0.0
C135 C 0.1006 0.54456 0.00861 0.0
O136 O 0.02934 0.50861 0.96505 0.0
O137 O 0.03347 0.56225 0.93823 0.0
O138 O 0.03461 0.54482 0.06425 0.0
O139 O 0.02945 0.57092 0.01286 0.0
Co140 Co 0.73581 0.73575 0.23006 0.0
O141 O 0.77832 0.72868 0.2395 0.0
O142 O 0.74229 0.72073 0.27902 0.0
C143 C 0.73575 0.7057 0.17786 0.0
O144 O 0.68931 0.73896 0.22972 0.0
Co145 Co 0.71425 0.77633 0.16236 0.0
O146 O 0.67411 0.75753 0.17579 0.0
C147 C 0.74263 0.81512 0.2217 0.0
C148 C 0.77089 0.71905 0.27135 0.0
C149 C 0.66839 0.74542 0.20665 0.0
O150 O 0.73965 0.78813 0.24258 0.0
O151 O 0.737 0.81406 0.18842 0.0
O152 O 0.73381 0.68845 0.20762 0.0
O153 O 0.73967 0.73937 0.18087 0.0
Co154 Co 0.0291 0.48083 0.48646 0.0
O155 O 0.98678 0.49129 0.47906 0.0
O156 O 0.0237 0.52926 0.46934 0.0
C157 C 0.02767 0.42728 0.45882 0.0
O158 O 0.07559 0.47931 0.48959 0.0
Co159 Co 0.04951 0.4144 0.52977 0.0
O160 O 0.08993 0.42599 0.51059 0.0
C161 C 0.02284 0.47629 0.56619 0.0
C162 C 0.99492 0.52246 0.46809 0.0
C163 C 0.09616 0.45616 0.49716 0.0
O164 O 0.02576 0.49579 0.5382 0.0
O165 O 0.02794 0.44288 0.56669 0.0
O166 O 0.0304 0.45615 0.44024 0.0
O167 O 0.02408 0.43199 0.49234 0.0
Co168 Co 0.48799 0.5249 0.98832 0.0
O169 O 0.53043 0.5146 0.98218 0.0
O170 O 0.49415 0.4752 0.97536 0.0
C171 C 0.49045 0.57556 0.95598 0.0
O172 O 0.44143 0.52572 0.99104 0.0
Co173 Co 0.46546 0.59477 0.02328 0.0
O174 O 0.42561 0.58091 0.00407 0.0
C175 C 0.49316 0.53783 0.067 0.0
C176 C 0.52282 0.48253 0.97362 0.0
C177 C 0.42024 0.54902 0.99482 0.0
O178 O 0.4914 0.51517 0.04128 0.0
O179 O 0.48673 0.57077 0.06349 0.0
O180 O 0.48668 0.54529 0.94004 0.0
O181 O 0.49308 0.57401 0.98988 0.0
Co182 Co 0.77845 0.7353 0.77178 0.0
O183 O 0.73582 0.72779 0.76314 0.0
O184 O 0.77128 0.72148 0.72263 0.0
C185 C 0.77962 0.70399 0.82318 0.0
O186 O 0.82491 0.73921 0.77095 0.0
Co187 Co 0.80135 0.77412 0.83994 0.0
O188 O 0.84128 0.75581 0.82505 0.0
C189 C 0.77152 0.81433 0.78248 0.0
C190 C 0.74284 0.71907 0.73089 0.0
C191 C 0.84632 0.74496 0.79357 0.0
O192 O 0.774 0.78792 0.76078 0.0
O193 O 0.778 0.81241 0.81551 0.0
O194 O 0.78118 0.68747 0.79297 0.0
O195 O 0.77551 0.73768 0.82113 0.0
Co196 Co 0.73647 0.26675 0.2705 0.0
O197 O 0.77873 0.27493 0.26028 0.0
O198 O 0.74197 0.28373 0.22194 0.0
C199 C 0.73698 0.29481 0.32379 0.0
O200 O 0.69 0.26242 0.27202 0.0
Co201 Co 0.71736 0.22287 0.3373 0.0
O202 O 0.67645 0.24004 0.3251 0.0
C203 C 0.74363 0.18691 0.27506 0.0
C204 C 0.77069 0.28555 0.22898 0.0
C205 C 0.66971 0.25352 0.29511 0.0
O206 O 0.74053 0.21501 0.25574 0.0
O207 O 0.7388 0.18615 0.3085 0.0
O208 O 0.73432 0.31314 0.29476 0.0
O209 O 0.74137 0.26139 0.31939 0.0
Co210 Co 0.48412 0.48081 0.51682 0.0
O211 O 0.52629 0.49117 0.52512 0.0
O212 O 0.48963 0.53011 0.53154 0.0
C213 C 0.4843 0.42896 0.54748 0.0
O214 O 0.43765 0.47926 0.51194 0.0
Co215 Co 0.46504 0.41194 0.47636 0.0
O216 O 0.42409 0.42499 0.4926 0.0
C217 C 0.49322 0.47161 0.43782 0.0
C218 C 0.51829 0.52298 0.53414 0.0
C219 C 0.41735 0.45571 0.50432 0.0
O220 O 0.48908 0.49276 0.46441 0.0
O221 O 0.48827 0.43818 0.43926 0.0
O222 O 0.48135 0.45883 0.56434 0.0
O223 O 0.48896 0.43177 0.51395 0.0
H224 H 0.25509 0.17861 0.16777 0.0
H225 H 0.21652 0.14927 0.13119 0.0
H226 H 0.14667 0.1941 0.19681 0.0
H227 H 0.18493 0.22312 0.23357 0.0
H228 H 0.17046 0.09947 0.16014 0.0
H229 H 0.11982 0.21574 0.09187 0.0
H230 H 0.15741 0.21665 0.11043 0.0
H231 H 0.12515 0.21973 0.13903 0.0
C232 C 0.23151 0.18264 0.1741 0.0
C233 C 0.22316 0.20332 0.2036 0.0
C234 C 0.20948 0.16575 0.15323 0.0
C235 C 0.17863 0.16969 0.16102 0.0
C236 C 0.17025 0.191 0.18994 0.0
H237 H 0.0095 0.08434 0.07623 0.0
H238 H 0.04857 0.11973 0.10604 0.0
C239 C 0.19222 0.20751 0.21102 0.0
C240 C 0.15524 0.14989 0.14044 0.0
H241 H 0.09479 0.16066 0.08497 0.0
C242 C 0.15406 0.1128 0.14347 0.0
C243 C 0.13352 0.1673 0.11914 0.0
C244 C 0.13398 0.20704 0.11457 0.0
C245 C 0.13152 0.09273 0.12636 0.0
C246 C 0.10999 0.11003 0.10448 0.0
C247 C 0.11122 0.14722 0.10151 0.0
C248 C 0.08615 0.08994 0.0846 0.0
C249 C 0.13045 0.05326 0.13304 0.0
C250 C 0.09403 0.0621 0.0616 0.0
C251 C 0.07175 0.04166 0.04489 0.0
C252 C 0.04093 0.04896 0.05007 0.0
C253 C 0.033 0.07798 0.07163 0.0
C254 C 0.05537 0.09821 0.08875 0.0
H255 H 0.14177 0.04615 0.15836 0.0
H256 H 0.10687 0.04339 0.134 0.0
H257 H 0.14247 0.03931 0.11132 0.0
H258 H 0.11751 0.0558 0.05684 0.0
H259 H 0.07874 0.01979 0.02817 0.0
H260 H 0.02458 0.90621 0.46607 0.0
H261 H 0.06371 0.8689 0.43901 0.0
H262 H 0.11343 0.96284 0.40954 0.0
H263 H 0.07559 0.99972 0.43841 0.0
H264 H 0.0817 0.85976 0.37658 0.0
H265 H 0.18171 0.90944 0.44737 0.0
H266 H 0.14405 0.9216 0.46059 0.0
H267 H 0.16324 0.94575 0.42588 0.0
C268 C 0.04415 0.91879 0.45432 0.0
C269 C 0.04712 0.95593 0.45486 0.0
C270 C 0.06654 0.89744 0.43872 0.0
C271 C 0.09224 0.91274 0.42279 0.0
C272 C 0.09475 0.94995 0.42279 0.0
H273 H 0.19361 0.81623 0.25214 0.0
H274 H 0.15709 0.84488 0.29084 0.0
C275 C 0.07282 0.97117 0.4391 0.0
C276 C 0.11543 0.89015 0.40438 0.0
H277 H 0.19144 0.88019 0.39149 0.0
C278 C 0.10568 0.86401 0.38033 0.0
C279 C 0.14695 0.89461 0.40956 0.0
C280 C 0.15954 0.91908 0.43758 0.0
C281 C 0.12623 0.84349 0.36052 0.0
C282 C 0.15766 0.85024 0.36334 0.0
C283 C 0.16747 0.87528 0.38849 0.0
C284 C 0.18052 0.83258 0.33975 0.0
C285 C 0.11379 0.81434 0.33727 0.0
C286 C 0.20708 0.81742 0.35371 0.0
C287 C 0.22872 0.80184 0.33123 0.0
C288 C 0.22411 0.80066 0.29433 0.0
C289 C 0.19768 0.81598 0.28048 0.0
C290 C 0.1765 0.83218 0.30275 0.0
H291 H 0.09232 0.80372 0.3482 0.0
H292 H 0.10877 0.82524 0.31057 0.0
H293 H 0.12996 0.79204 0.33447 0.0
H294 H 0.21108 0.81755 0.38205 0.0
H295 H 0.24891 0.79049 0.34274 0.0
H296 H 0.49663 0.9087 0.54266 0.0
H297 H 0.45802 0.86998 0.56909 0.0
H298 H 0.4062 0.96222 0.59869 0.0
H299 H 0.44343 1.00038 0.57049 0.0
H300 H 0.43851 0.85938 0.6311 0.0
H301 H 0.3398 0.90803 0.55743 0.0
H302 H 0.37761 0.92096 0.54559 0.0
H303 H 0.35722 0.94461 0.57968 0.0
C304 C 0.47674 0.92056 0.55437 0.0
C305 C 0.4729 0.9576 0.55393 0.0
C306 C 0.45465 0.89843 0.56959 0.0
C307 C 0.42845 0.91286 0.58518 0.0
C308 C 0.42526 0.94998 0.58558 0.0
H309 H 0.32341 0.81449 0.75198 0.0
H310 H 0.36154 0.84232 0.71471 0.0
C311 C 0.44684 0.97193 0.56966 0.0
C312 C 0.40517 0.88961 0.60255 0.0
H313 H 0.32901 0.87897 0.61316 0.0
C314 C 0.41458 0.86341 0.6267 0.0
C315 C 0.37375 0.89372 0.59641 0.0
C316 C 0.36158 0.91807 0.56803 0.0
C317 C 0.39373 0.8426 0.64582 0.0
C318 C 0.36232 0.84913 0.64218 0.0
C319 C 0.35292 0.87419 0.61683 0.0
C320 C 0.33896 0.83124 0.66493 0.0
C321 C 0.40583 0.81339 0.6692 0.0
C322 C 0.31243 0.81691 0.65001 0.0
C323 C 0.28989 0.80196 0.67163 0.0
C324 C 0.29354 0.80045 0.70865 0.0
C325 C 0.32008 0.81455 0.7235 0.0
C326 C 0.34217 0.83025 0.70205 0.0
H327 H 0.42747 0.80288 0.65866 0.0
H328 H 0.41046 0.82421 0.69604 0.0
H329 H 0.38965 0.79103 0.67157 0.0
H330 H 0.30904 0.81742 0.62156 0.0
H331 H 0.26966 0.7915 0.65936 0.0
H332 H 0.43251 0.02449 0.97941 0.0
H333 H 0.39521 0.06172 0.94977 0.0
H334 H 0.46657 0.1209 0.89932 0.0
H335 H 0.50424 0.08424 0.93008 0.0
H336 H 0.42125 0.1645 0.91913 0.0
H337 H 0.37183 0.04992 0.84796 0.0
H338 H 0.37068 0.04419 0.89515 0.0
H339 H 0.40651 0.04658 0.87271 0.0
C340 C 0.44035 0.04562 0.96225 0.0
C341 C 0.47142 0.05117 0.95693 0.0
C342 C 0.41892 0.06675 0.94501 0.0
C343 C 0.4279 0.09353 0.92132 0.0
C344 C 0.45896 0.1002 0.91713 0.0
H345 H 0.33253 0.22569 0.76842 0.0
H346 H 0.37025 0.19672 0.80595 0.0
C347 C 0.48052 0.07927 0.93481 0.0
C348 C 0.40485 0.11398 0.90065 0.0
H349 H 0.34442 0.10408 0.84485 0.0
C350 C 0.40458 0.15125 0.90277 0.0
C351 C 0.38304 0.09688 0.87899 0.0
C352 C 0.38317 0.05724 0.87322 0.0
C353 C 0.38285 0.17163 0.88454 0.0
C354 C 0.36078 0.15441 0.86356 0.0
C355 C 0.36109 0.11726 0.86131 0.0
C356 C 0.33785 0.17442 0.84258 0.0
C357 C 0.38334 0.21146 0.88817 0.0
C358 C 0.30696 0.17167 0.85064 0.0
C359 C 0.28526 0.18853 0.82933 0.0
C360 C 0.29399 0.20797 0.79915 0.0
C361 C 0.32498 0.21104 0.79149 0.0
C362 C 0.34663 0.19456 0.813 0.0
H363 H 0.39787 0.22027 0.91052 0.0
H364 H 0.39223 0.2233 0.86333 0.0
H365 H 0.36016 0.22184 0.89233 0.0
H366 H 0.29963 0.15608 0.87319 0.0
H367 H 0.26162 0.18538 0.83587 0.0
H368 H 0.75729 0.32521 0.83829 0.0
H369 H 0.71955 0.35494 0.87572 0.0
H370 H 0.64826 0.30948 0.81267 0.0
H371 H 0.68567 0.2801 0.77505 0.0
H372 H 0.67287 0.40443 0.84731 0.0
H373 H 0.62368 0.28916 0.91883 0.0
H374 H 0.66091 0.28805 0.89929 0.0
H375 H 0.62813 0.28449 0.8716 0.0
C376 C 0.73358 0.32113 0.83271 0.0
C377 C 0.72456 0.30018 0.80366 0.0
C378 C 0.71202 0.33823 0.85407 0.0
C379 C 0.68101 0.33423 0.84724 0.0
C380 C 0.67198 0.31265 0.8188 0.0
H381 H 0.51375 0.42145 0.93485 0.0
H382 H 0.55221 0.38504 0.90523 0.0
C383 C 0.69347 0.29593 0.79722 0.0
C384 C 0.6581 0.35432 0.86826 0.0
H385 H 0.5989 0.34436 0.92575 0.0
C386 C 0.65684 0.39135 0.86469 0.0
C387 C 0.63686 0.33721 0.89049 0.0
C388 C 0.63741 0.29755 0.89563 0.0
C389 C 0.63469 0.41166 0.88217 0.0
C390 C 0.61366 0.39469 0.90499 0.0
C391 C 0.61495 0.35755 0.90851 0.0
C392 C 0.59024 0.41509 0.92521 0.0
C393 C 0.63346 0.45102 0.87488 0.0
C394 C 0.5986 0.44335 0.94747 0.0
C395 C 0.57667 0.46435 0.96408 0.0
C396 C 0.54574 0.45721 0.95955 0.0
C397 C 0.53735 0.42767 0.93896 0.0
C398 C 0.55937 0.40687 0.92192 0.0
H399 H 0.64428 0.45774 0.84915 0.0
H400 H 0.60985 0.46081 0.8744 0.0
H401 H 0.64588 0.46535 0.89605 0.0
H402 H 0.62218 0.44964 0.95158 0.0
H403 H 0.584 0.48665 0.98004 0.0
H404 H 1.00555 0.41994 0.07299 0.0
H405 H 0.96686 0.38376 0.10216 0.0
H406 H 0.89745 0.45038 0.05765 0.0
H407 H 0.93602 0.48727 0.02962 0.0
H408 H 0.88621 0.44015 0.12467 0.0
H409 H 0.91149 0.30861 0.06676 0.0
H410 H 0.94362 0.32751 0.08859 0.0
H411 H 0.92815 0.34889 0.04991 0.0
C412 C 0.98202 0.42655 0.06898 0.0
C413 C 0.97396 0.45649 0.04881 0.0
C414 C 0.95981 0.40566 0.08556 0.0
C415 C 0.92895 0.41378 0.08181 0.0
C416 C 0.92095 0.44332 0.06105 0.0
H417 H 0.76042 0.32419 0.1681 0.0
H418 H 0.79799 0.35446 0.13082 0.0
C419 C 0.94311 0.4644 0.04488 0.0
C420 C 0.90506 0.39305 0.10107 0.0
H421 H 0.87825 0.30915 0.11677 0.0
C422 C 0.88437 0.41154 0.12254 0.0
C423 C 0.90238 0.3556 0.09855 0.0
C424 C 0.9224 0.33403 0.07443 0.0
C425 C 0.86173 0.39378 0.1419 0.0
C426 C 0.85946 0.3564 0.13985 0.0
C427 C 0.87998 0.33781 0.11837 0.0
C428 C 0.83657 0.33623 0.16087 0.0
C429 C 0.84077 0.41505 0.16517 0.0
C430 C 0.84569 0.31526 0.18969 0.0
C431 C 0.8243 0.29814 0.21112 0.0
C432 C 0.79321 0.30117 0.20399 0.0
C433 C 0.78413 0.32118 0.17432 0.0
C434 C 0.80559 0.33865 0.15308 0.0
H435 H 0.84835 0.44299 0.16819 0.0
H436 H 0.81788 0.41514 0.15326 0.0
H437 H 0.83903 0.40279 0.19189 0.0
H438 H 0.86941 0.3129 0.19622 0.0
H439 H 0.83216 0.28294 0.23367 0.0
H440 H 0.93339 0.51796 0.47055 0.0
H441 H 0.89637 0.55575 0.44062 0.0
H442 H 0.96818 0.62105 0.39969 0.0
H443 H 1.00549 0.58345 0.42987 0.0
H444 H 0.88774 0.63519 0.44455 0.0
H445 H 0.91833 0.58413 0.31079 0.0
H446 H 0.92743 0.56035 0.35099 0.0
H447 H 0.94871 0.59896 0.3388 0.0
C448 C 0.94137 0.54057 0.45549 0.0
C449 C 0.9725 0.54757 0.45258 0.0
C450 C 0.92012 0.56218 0.43841 0.0
C451 C 0.92944 0.59106 0.41761 0.0
C452 C 0.96044 0.59874 0.41535 0.0
H453 H 0.83221 0.72352 0.2661 0.0
H454 H 0.87024 0.69524 0.30351 0.0
C455 C 0.98175 0.57731 0.43277 0.0
C456 C 0.90676 0.61223 0.39736 0.0
H457 H 0.88085 0.62809 0.31343 0.0
C458 C 0.88623 0.63375 0.41587 0.0
C459 C 0.9048 0.6104 0.35995 0.0
C460 C 0.92579 0.5871 0.33877 0.0
C461 C 0.86411 0.65386 0.39795 0.0
C462 C 0.86176 0.65158 0.36046 0.0
C463 C 0.88245 0.63003 0.34207 0.0
C464 C 0.83822 0.67115 0.33957 0.0
C465 C 0.84405 0.67801 0.41943 0.0
C466 C 0.80726 0.66755 0.34725 0.0
C467 C 0.78536 0.68429 0.32608 0.0
C468 C 0.79386 0.70444 0.29629 0.0
C469 C 0.82481 0.70827 0.28885 0.0
C470 C 0.84665 0.69196 0.31022 0.0
H471 H 0.85478 0.68544 0.44502 0.0
H472 H 0.83858 0.70265 0.40465 0.0
H473 H 0.82268 0.66397 0.42561 0.0
H474 H 0.79989 0.65093 0.369 0.0
H475 H 0.76174 0.68037 0.33231 0.0
H476 H 0.50809 0.58339 0.57348 0.0
H477 H 0.54568 0.62054 0.60351 0.0
H478 H 0.61703 0.55724 0.55834 0.0
H479 H 0.57961 0.51938 0.52955 0.0
H480 H 0.62749 0.56615 0.62547 0.0
H481 H 0.5995 0.69833 0.57067 0.0
H482 H 0.56781 0.67779 0.59195 0.0
H483 H 0.58381 0.65797 0.55274 0.0
C484 C 0.5318 0.57777 0.5695 0.0
C485 C 0.54078 0.54842 0.54899 0.0
C486 C 0.55338 0.5992 0.58658 0.0
C487 C 0.58446 0.59223 0.58295 0.0
C488 C 0.59333 0.56339 0.5617 0.0
H489 H 0.75171 0.68469 0.66734 0.0
H490 H 0.71362 0.65522 0.63024 0.0
C491 C 0.57184 0.54175 0.54509 0.0
C492 C 0.60774 0.61325 0.60289 0.0
H493 H 0.63311 0.69746 0.62027 0.0
C494 C 0.62878 0.59484 0.62396 0.0
C495 C 0.60969 0.65081 0.60121 0.0
C496 C 0.5892 0.67236 0.57765 0.0
C497 C 0.65117 0.61274 0.64354 0.0
C498 C 0.65279 0.65018 0.64221 0.0
C499 C 0.63185 0.66874 0.6213 0.0
C500 C 0.67575 0.67032 0.66311 0.0
C501 C 0.67271 0.59155 0.66613 0.0
C502 C 0.66713 0.68923 0.69354 0.0
C503 C 0.68885 0.70588 0.7149 0.0
C504 C 0.71972 0.70439 0.70611 0.0
C505 C 0.72818 0.68651 0.67487 0.0
C506 C 0.70644 0.66952 0.65369 0.0
H507 H 0.66592 0.56325 0.66824 0.0
H508 H 0.69561 0.59276 0.65428 0.0
H509 H 0.67408 0.60303 0.69322 0.0
H510 H 0.64363 0.69025 0.70134 0.0
H511 H 0.68147 0.71941 0.73872 0.0
H512 H 0.26854 0.14004 0.3427 0.0
H513 H 0.26161 0.11828 0.40388 0.0
H514 H 0.28576 0.22153 0.44418 0.0
H515 H 0.29246 0.24324 0.38391 0.0
H516 H 0.31177 0.15961 0.48189 0.0
H517 H 0.18693 0.15577 0.46368 0.0
H518 H 0.21098 0.13309 0.43251 0.0
H519 H 0.21076 0.18063 0.43383 0.0
C520 C 0.2729 0.15779 0.36471 0.0
C521 C 0.28083 0.1934 0.35854 0.0
C522 C 0.26881 0.1454 0.39955 0.0
C523 C 0.27297 0.16843 0.42849 0.0
C524 C 0.28245 0.20334 0.42225 0.0
H525 H 0.22117 0.24265 0.6187 0.0
H526 H 0.22801 0.22012 0.55878 0.0
C527 C 0.28619 0.21574 0.38771 0.0
C528 C 0.26537 0.15802 0.46536 0.0
H529 H 0.20527 0.15617 0.522 0.0
C530 C 0.28855 0.15756 0.49072 0.0
C531 C 0.23502 0.15566 0.47668 0.0
C532 C 0.20932 0.15635 0.45045 0.0
C533 C 0.28209 0.15755 0.52723 0.0
C534 C 0.25167 0.15793 0.53854 0.0
C535 C 0.22855 0.15562 0.51319 0.0
C536 C 0.24361 0.16834 0.57528 0.0
C537 C 0.30772 0.16033 0.55341 0.0
C538 C 0.24919 0.14624 0.6046 0.0
C539 C 0.245 0.15909 0.63926 0.0
C540 C 0.23558 0.19428 0.64483 0.0
C541 C 0.22864 0.21552 0.61533 0.0
C542 C 0.23245 0.20263 0.58099 0.0
H543 H 0.33009 0.16127 0.54015 0.0
H544 H 0.30506 0.18458 0.56985 0.0
H545 H 0.30729 0.13712 0.57152 0.0
H546 H 0.25769 0.11959 0.60069 0.0
H547 H 0.25062 0.14221 0.66155 0.0
H548 H 0.04076 0.97145 0.90218 0.0
H549 H 0.04964 0.98228 0.83893 0.0
H550 H 0.96141 0.02981 0.83024 0.0
H551 H 0.95309 0.02005 0.89379 0.0
H552 H 0.01808 0.95132 0.78813 0.0
H553 H 0.00949 0.0966 0.76989 0.0
H554 H 0.0139 0.0766 0.81308 0.0
H555 H 0.97727 0.07884 0.79253 0.0
C556 C 0.02392 0.98572 0.88699 0.0
C557 C 0.99661 0.99582 0.90284 0.0
C558 C 0.02882 0.99151 0.85081 0.0
C559 C 1.0063 0.00707 0.82972 0.0
C560 C 0.97947 0.0186 0.84599 0.0
H561 H 0.97164 0.97283 0.60598 0.0
H562 H 0.97789 0.96455 0.67012 0.0
C563 C 0.97473 0.01317 0.88233 0.0
C564 C 0.00953 0.00759 0.7904 0.0
H565 H 1.00388 0.06102 0.71766 0.0
C566 C 0.01536 0.97542 0.77274 0.0
C567 C 1.00619 0.03898 0.77023 0.0
C568 C 1.00168 0.07474 0.78744 0.0
C569 C 0.01732 0.97364 0.73555 0.0
C570 C 0.01259 0.00476 0.71532 0.0
C571 C 1.00737 0.03704 0.73305 0.0
C572 C 0.01249 0.00483 0.67579 0.0
C573 C 0.02474 0.9385 0.71847 0.0
C574 C 0.03017 0.02965 0.65737 0.0
C575 C 0.02625 0.03469 0.62097 0.0
C576 C 1.00491 0.01464 0.60209 0.0
C577 C 0.98877 0.98797 0.61983 0.0
C578 C 0.99231 0.98332 0.65653 0.0
H579 H 0.03716 0.92086 0.73703 0.0
H580 H 1.00346 0.92486 0.71105 0.0
H581 H 0.03853 0.94212 0.69415 0.0
H582 H 0.04591 0.04651 0.67151 0.0
H583 H 0.03868 0.05573 0.6079 0.0
H584 H 0.21122 0.77254 0.88525 0.0
H585 H 0.21952 0.79504 0.94498 0.0
H586 H 0.26141 0.88899 0.90203 0.0
H587 H 0.25276 0.86646 0.84149 0.0
H588 H 0.29737 0.85086 0.95144 0.0
H589 H 0.18376 0.87451 0.00656 0.0
H590 H 0.18578 0.83283 0.98368 0.0
H591 H 0.19111 0.87348 0.95937 0.0
C592 C 0.22146 0.79844 0.8884 0.0
C593 C 0.23133 0.81777 0.85875 0.0
C594 C 0.22603 0.81141 0.92262 0.0
C595 C 0.24078 0.84389 0.92802 0.0
C596 C 0.24967 0.86404 0.89842 0.0
H597 H 0.2683 0.86532 0.15901 0.0
H598 H 0.26187 0.88894 0.09848 0.0
C599 C 0.24462 0.85125 0.86392 0.0
C600 C 0.25012 0.85365 0.96456 0.0
H601 H 0.22239 0.85649 0.04897 0.0
C602 C 0.28102 0.85327 0.97272 0.0
C603 C 0.22889 0.85725 0.99233 0.0
C604 C 0.19553 0.85992 0.98501 0.0
C605 C 0.29103 0.85275 0.00808 0.0
C606 C 0.26958 0.85236 0.03586 0.0
C607 C 0.23887 0.85644 0.02769 0.0
C608 C 0.27782 0.84134 0.07241 0.0
C609 C 0.32442 0.85058 0.01537 0.0
C610 C 0.28921 0.80706 0.07776 0.0
C611 C 0.29252 0.79355 0.11194 0.0
C612 C 0.28469 0.81406 0.14164 0.0
C613 C 0.2748 0.84911 0.13654 0.0
C614 C 0.27102 0.86254 0.10205 0.0
H615 H 0.33761 0.86348 0.99387 0.0
H616 H 0.33026 0.86326 0.04107 0.0
H617 H 0.33126 0.82228 0.0165 0.0
H618 H 0.29402 0.78993 0.05537 0.0
H619 H 0.30018 0.76646 0.11501 0.0
H620 H 0.55042 0.97982 0.40214 0.0
H621 H 0.54495 0.97091 0.33787 0.0
H622 H 0.46853 0.04173 0.3371 0.0
H623 H 0.47485 0.05178 0.40081 0.0
H624 H 0.50347 0.9491 0.29092 0.0
H625 H 0.52488 0.0924 0.27084 0.0
H626 H 0.52844 0.07144 0.3136 0.0
H627 H 0.49191 0.0845 0.29726 0.0
C628 C 0.53188 0.99248 0.38835 0.0
C629 C 0.51299 0.01638 0.40627 0.0
C630 C 0.52892 0.98769 0.3516 0.0
C631 C 0.50694 0.00661 0.33243 0.0
C632 C 0.48628 0.02779 0.35106 0.0
H633 H 0.46987 0.96332 0.10929 0.0
H634 H 0.46459 0.97368 0.17312 0.0
C635 C 0.48957 0.03306 0.38754 0.0
C636 C 0.5068 0.00601 0.29292 0.0
H637 H 0.51032 0.05963 0.21979 0.0
C638 C 0.50496 0.97326 0.27537 0.0
C639 C 0.50951 0.0375 0.27254 0.0
C640 C 0.51413 0.07339 0.28951 0.0
C641 C 0.50532 0.97112 0.23813 0.0
C642 C 0.50654 0.00275 0.21775 0.0
C643 C 0.50881 0.03546 0.23532 0.0
C644 C 0.50675 0.00225 0.17823 0.0
C645 C 0.50536 0.93483 0.22114 0.0
C646 C 0.53078 0.01765 0.15928 0.0
C647 C 0.53321 0.01285 0.1225 0.0
C648 C 0.51172 0.99248 0.10428 0.0
C649 C 0.48657 0.97941 0.1228 0.0
C650 C 0.48385 0.98476 0.15934 0.0
H651 H 0.51331 0.91406 0.23986 0.0
H652 H 0.48203 0.92783 0.21307 0.0
H653 H 0.51997 0.93426 0.19722 0.0
H654 H 0.5486 0.03157 0.17319 0.0
H655 H 0.5531 0.02254 0.10888 0.0
H656 H 0.37673 0.24791 0.22692 0.0
H657 H 0.43146 0.24656 0.21512 0.0
H658 H 0.44851 0.23221 0.32677 0.0
H659 H 0.39452 0.23366 0.33867 0.0
H660 H 0.47633 0.29468 0.2464 0.0
H661 H 0.50004 0.1543 0.27859 0.0
H662 H 0.46262 0.16997 0.26793 0.0
H663 H 0.47768 0.17591 0.31187 0.0
C664 C 0.39217 0.24379 0.2488 0.0
C665 C 0.38119 0.24084 0.28374 0.0
C666 C 0.42344 0.24327 0.24207 0.0
C667 C 0.44415 0.23903 0.27004 0.0
C668 C 0.43307 0.23507 0.30468 0.0
H669 H 0.62266 0.24942 0.34141 0.0
H670 H 0.56902 0.24678 0.3285 0.0
C671 C 0.40209 0.23602 0.31144 0.0
C672 C 0.47743 0.24043 0.26414 0.0
H673 H 0.54206 0.19448 0.28224 0.0
C674 C 0.49076 0.27254 0.25339 0.0
C675 C 0.4963 0.21155 0.27322 0.0
C676 C 0.48345 0.17586 0.28322 0.0
C677 C 0.52237 0.27721 0.25386 0.0
C678 C 0.54109 0.24895 0.26507 0.0
C679 C 0.52776 0.21626 0.27384 0.0
C680 C 0.57403 0.25359 0.27188 0.0
C681 C 0.53547 0.31292 0.24448 0.0
C682 C 0.595 0.25901 0.24434 0.0
C683 C 0.62616 0.26057 0.25167 0.0
C684 C 0.63686 0.25655 0.28665 0.0
C685 C 0.61552 0.25234 0.31409 0.0
C686 C 0.58468 0.25079 0.30677 0.0
H687 H 0.51772 0.33321 0.23992 0.0
H688 H 0.55061 0.32228 0.26601 0.0
H689 H 0.54918 0.31048 0.21998 0.0
H690 H 0.58737 0.26097 0.21713 0.0
H691 H 0.64186 0.26364 0.22986 0.0
H692 H 0.0166 0.40707 0.38971 0.0
H693 H 0.00924 0.34597 0.36784 0.0
H694 H 0.02998 0.30544 0.47198 0.0
H695 H 0.03714 0.36558 0.49377 0.0
H696 H 0.05748 0.26744 0.41186 0.0
H697 H 0.93308 0.28676 0.4013 0.0
H698 H 0.95812 0.31762 0.37968 0.0
H699 H 0.95621 0.31651 0.42717 0.0
C700 C 0.02008 0.38501 0.40766 0.0
C701 C 0.02726 0.39111 0.44351 0.0
C702 C 0.01572 0.35022 0.39521 0.0
C703 C 0.01883 0.32124 0.41841 0.0
C704 C 0.02746 0.32739 0.45364 0.0
H705 H 0.96187 0.13005 0.48741 0.0
H706 H 0.96868 0.19025 0.46549 0.0
C707 C 0.03148 0.36187 0.46608 0.0
C708 C 0.01133 0.28439 0.40766 0.0
H709 H 0.951 0.22828 0.40188 0.0
C710 C 0.03431 0.25882 0.40846 0.0
C711 C 0.98103 0.27334 0.40354 0.0
C712 C 0.95552 0.2998 0.40292 0.0
C713 C 0.02763 0.22236 0.40789 0.0
C714 C 0.99715 0.21127 0.40626 0.0
C715 C 0.97434 0.23688 0.40284 0.0
C716 C 0.98842 0.17436 0.41547 0.0
C717 C 0.053 0.19602 0.41215 0.0
C718 C 0.9961 0.14522 0.39397 0.0
C719 C 0.99195 0.11042 0.40646 0.0
C720 C 0.98039 0.10454 0.4407 0.0
C721 C 0.971 0.13374 0.46102 0.0
C722 C 0.97481 0.16822 0.44847 0.0
H723 H 0.07522 0.20918 0.41574 0.0
H724 H 0.04869 0.17865 0.43541 0.0
H725 H 0.05423 0.17886 0.38828 0.0
H726 H 1.00643 0.14941 0.36827 0.0
H727 H 0.99952 0.08836 0.39036 0.0
H728 H 0.87209 0.75602 0.72787 0.0
H729 H 0.92638 0.75847 0.7139 0.0
H730 H 0.94735 0.72883 0.82153 0.0
H731 H 0.89363 0.7269 0.83572 0.0
H732 H 0.96984 0.80501 0.75505 0.0
H733 H 1.0005 0.66225 0.75607 0.0
H734 H 0.96251 0.67757 0.74773 0.0
H735 H 0.97691 0.67627 0.79225 0.0
C736 C 0.88829 0.74931 0.74829 0.0
C737 C 0.87851 0.74125 0.7829 0.0
C738 C 0.91929 0.75092 0.74035 0.0
C739 C 0.94095 0.74365 0.76664 0.0
C740 C 0.93112 0.73422 0.80072 0.0
H741 H 0.11778 0.79044 0.8305 0.0
H742 H 0.06394 0.78832 0.81665 0.0
C743 C 0.90034 0.7332 0.80881 0.0
C744 C 0.97384 0.74829 0.75986 0.0
H745 H 0.04098 0.70374 0.76281 0.0
C746 C 0.98537 0.78282 0.75599 0.0
C747 C 0.99415 0.71936 0.76104 0.0
C748 C 0.98299 0.68169 0.76421 0.0
C749 C 0.01668 0.78927 0.75535 0.0
C750 C 0.03698 0.7605 0.75857 0.0
C751 C 0.02544 0.72582 0.76035 0.0
C752 C 0.06991 0.76603 0.76427 0.0
C753 C 0.02792 0.82693 0.75241 0.0
C754 C 0.09134 0.75482 0.73913 0.0
C755 C 0.12237 0.75662 0.74678 0.0
C756 C 0.13237 0.76882 0.78005 0.0
C757 C 0.11082 0.78102 0.8046 0.0
C758 C 0.08001 0.77985 0.79671 0.0
H759 H 0.01023 0.84503 0.74201 0.0
H760 H 0.03473 0.83649 0.77908 0.0
H761 H 0.04798 0.82835 0.73482 0.0
H762 H 0.08402 0.74383 0.71401 0.0
H763 H 0.13838 0.74656 0.72754 0.0
H764 H 0.46444 0.59994 0.89381 0.0
H765 H 0.46948 0.66037 0.86879 0.0
H766 H 0.53185 0.68744 0.95236 0.0
H767 H 0.52652 0.62843 0.97738 0.0
H768 H 0.45544 0.72372 0.91011 0.0
H769 H 0.573 0.72727 0.86216 0.0
H770 H 0.55182 0.68643 0.86642 0.0
H771 H 0.57026 0.70564 0.90444 0.0
C772 C 0.47957 0.61876 0.90627 0.0
C773 C 0.49497 0.6097 0.93757 0.0
C774 C 0.48247 0.65311 0.89201 0.0
C775 C 0.5015 0.67815 0.90837 0.0
C776 C 0.51758 0.6684 0.93883 0.0
H777 H 0.51436 0.86832 0.99555 0.0
H778 H 0.50644 0.80978 0.97028 0.0
C779 C 0.51425 0.63472 0.95332 0.0
C780 C 0.50233 0.71591 0.89739 0.0
H781 H 0.55376 0.78272 0.88792 0.0
C782 C 0.47664 0.73665 0.90376 0.0
C783 C 0.52989 0.73284 0.88884 0.0
C784 C 0.55774 0.71181 0.87971 0.0
C785 C 0.47871 0.77375 0.90605 0.0
C786 C 0.50714 0.7903 0.90198 0.0
C787 C 0.53202 0.76995 0.8914 0.0
C788 C 0.51252 0.82651 0.91588 0.0
C789 C 0.451 0.79477 0.91579 0.0
C790 C 0.51946 0.85528 0.89363 0.0
C791 C 0.52401 0.88925 0.90813 0.0
C792 C 0.52202 0.89457 0.94503 0.0
C793 C 0.51596 0.86531 0.96703 0.0
C794 C 0.51125 0.83177 0.95263 0.0
H795 H 0.43005 0.78066 0.90785 0.0
H796 H 0.45042 0.79855 0.94499 0.0
H797 H 0.45135 0.82136 0.9031 0.0
H798 H 0.52085 0.85157 0.86519 0.0
H799 H 0.52865 0.91131 0.89054 0.0
H800 H 0.64102 0.74746 0.27263 0.0
H801 H 0.58643 0.74573 0.28526 0.0
H802 H 0.5682 0.73123 0.17389 0.0
H803 H 0.62203 0.73308 0.16114 0.0
H804 H 0.5405 0.79365 0.25325 0.0
H805 H 0.51849 0.65197 0.22412 0.0
H806 H 0.55562 0.6686 0.23492 0.0
H807 H 0.54082 0.67367 0.19079 0.0
C808 C 0.62535 0.74331 0.25098 0.0
C809 C 0.63596 0.74038 0.21587 0.0
C810 C 0.59417 0.74256 0.2582 0.0
C811 C 0.57319 0.73811 0.23054 0.0
C812 C 0.58388 0.73429 0.19573 0.0
H813 H 0.39518 0.74399 0.15957 0.0
H814 H 0.44865 0.74157 0.17304 0.0
C815 C 0.61476 0.73548 0.18848 0.0
C816 C 0.54 0.73893 0.23696 0.0
H817 H 0.47591 0.6912 0.2207 0.0
C818 C 0.52632 0.77104 0.24702 0.0
C819 C 0.52149 0.70944 0.22883 0.0
C820 C 0.53482 0.67385 0.21938 0.0
C821 C 0.49466 0.77506 0.24671 0.0
C822 C 0.47626 0.74612 0.23645 0.0
C823 C 0.48997 0.71347 0.22845 0.0
C824 C 0.4433 0.75004 0.22939 0.0
C825 C 0.48115 0.81079 0.25513 0.0
C826 C 0.42218 0.75613 0.25661 0.0
C827 C 0.39106 0.75753 0.24897 0.0
C828 C 0.38059 0.75272 0.21398 0.0
C829 C 0.40209 0.74755 0.1869 0.0
C830 C 0.43287 0.74613 0.19452 0.0
H831 H 0.49865 0.83154 0.25905 0.0
H832 H 0.46586 0.81927 0.23339 0.0
H833 H 0.46751 0.8088 0.27973 0.0
H834 H 0.42966 0.75893 0.28381 0.0
H835 H 0.37525 0.76142 0.27052 0.0
H836 H 0.51847 0.09272 0.61907 0.0
H837 H 0.51113 0.15332 0.64221 0.0
H838 H 0.54052 0.19629 0.54196 0.0
H839 H 0.54771 0.1366 0.51897 0.0
H840 H 0.56242 0.23365 0.60478 0.0
H841 H 0.43793 0.21203 0.60215 0.0
H842 H 0.46145 0.18171 0.62661 0.0
H843 H 0.46332 0.18257 0.5791 0.0
C844 C 0.52403 0.1152 0.6024 0.0
C845 C 0.53341 0.11 0.56714 0.0
C846 C 0.51966 0.14971 0.61553 0.0
C847 C 0.52499 0.17926 0.59363 0.0
C848 C 0.53626 0.17391 0.55931 0.0
H849 H 0.47095 0.36624 0.51648 0.0
H850 H 0.47842 0.307 0.54036 0.0
C851 C 0.54027 0.13971 0.54615 0.0
C852 C 0.51635 0.21579 0.60416 0.0
H853 H 0.45513 0.27071 0.60325 0.0
C854 C 0.53898 0.24181 0.60577 0.0
C855 C 0.48572 0.22626 0.60514 0.0
C856 C 0.46054 0.19937 0.60308 0.0
C857 C 0.5318 0.27813 0.6054 0.0
C858 C 0.5012 0.28857 0.60353 0.0
C859 C 0.47855 0.26257 0.60492 0.0
C860 C 0.49273 0.32492 0.59222 0.0
C861 C 0.55699 0.30501 0.60367 0.0
C862 C 0.49736 0.35481 0.61387 0.0
C863 C 0.49282 0.38909 0.60021 0.0
C864 C 0.48399 0.39371 0.56467 0.0
C865 C 0.47796 0.36362 0.54386 0.0
C866 C 0.48213 0.32966 0.55753 0.0
H867 H 0.57962 0.29237 0.60373 0.0
H868 H 0.55477 0.32134 0.57929 0.0
H869 H 0.5555 0.32313 0.62681 0.0
H870 H 0.50537 0.35165 0.64083 0.0
H871 H 0.49773 0.41186 0.61677 0.0
H872 H 0.1417 0.25218 0.77576 0.0
H873 H 0.08713 0.25097 0.78853 0.0
H874 H 0.06851 0.23874 0.67698 0.0
H875 H 0.12233 0.24012 0.66408 0.0
H876 H 0.04147 0.30018 0.75714 0.0
H877 H 0.01836 0.15901 0.72658 0.0
H878 H 0.0556 0.17512 0.73763 0.0
H879 H 0.0409 0.18089 0.69354 0.0
C880 C 0.12595 0.24866 0.75408 0.0
C881 C 0.13646 0.24623 0.71889 0.0
C882 C 0.09479 0.2482 0.76138 0.0
C883 C 0.0737 0.24455 0.73372 0.0
C884 C 0.08427 0.24121 0.69881 0.0
H885 H 0.89474 0.25315 0.66497 0.0
H886 H 0.94855 0.25188 0.67723 0.0
C887 C 0.11515 0.24212 0.69148 0.0
C888 C 0.04053 0.24563 0.74029 0.0
H889 H 0.97606 0.19863 0.72403 0.0
C890 C 0.02711 0.27776 0.75078 0.0
C891 C 0.0218 0.21639 0.73197 0.0
C892 C 0.03486 0.18077 0.72212 0.0
C893 C 0.99547 0.28202 0.75083 0.0
C894 C 0.97686 0.25335 0.7404 0.0
C895 C 0.9903 0.22069 0.73188 0.0
C896 C 0.94384 0.25752 0.73401 0.0
C897 C 0.98217 0.3177 0.75987 0.0
C898 C 0.92303 0.26186 0.76188 0.0
C899 C 0.89179 0.26259 0.75493 0.0
C900 C 0.8809 0.25881 0.72001 0.0
C901 C 0.90206 0.25582 0.69225 0.0
C902 C 0.93299 0.25507 0.69919 0.0
H903 H 0.9998 0.33812 0.76465 0.0
H904 H 0.96729 0.32686 0.73801 0.0
H905 H 0.9681 0.31528 0.7841 0.0
H906 H 0.93087 0.26356 0.78904 0.0
H907 H 0.87622 0.26476 0.77697 0.0
H908 H 0.9675 0.86941 0.01184 0.0
H909 H 0.97432 0.80915 0.03366 0.0
H910 H 1.00522 0.84992 0.13419 0.0
H911 H 0.99799 0.91098 0.1124 0.0
H912 H 0.04538 0.80054 0.09891 0.0
H913 H 0.92938 0.74724 0.10764 0.0
H914 H 0.93587 0.77133 0.06726 0.0
H915 H 0.93755 0.79424 0.10911 0.0
C916 C 0.97511 0.86566 0.03887 0.0
C917 C 0.98222 0.89489 0.06043 0.0
C918 C 0.97883 0.83115 0.05139 0.0
C919 C 0.98997 0.82502 0.08567 0.0
C920 C 0.9963 0.85412 0.10777 0.0
H921 H 0.0134 0.59384 0.11289 0.0
H922 H 1.00568 0.65494 0.13442 0.0
C923 C 0.99208 0.8889 0.09537 0.0
C924 C 0.99798 0.78826 0.09607 0.0
H925 H 0.96897 0.70437 0.09575 0.0
C926 C 0.02863 0.77955 0.09935 0.0
C927 C 0.97615 0.76091 0.09702 0.0
C928 C 0.94286 0.7689 0.09543 0.0
C929 C 0.03813 0.74401 0.10013 0.0
C930 C 0.01643 0.71662 0.09739 0.0
C931 C 0.98565 0.72536 0.0976 0.0
C932 C 0.02508 0.67979 0.08795 0.0
C933 C 0.07142 0.73605 0.10189 0.0
C934 C 0.03879 0.6736 0.05501 0.0
C935 C 0.04281 0.63909 0.04262 0.0
C936 C 0.03341 0.60991 0.06299 0.0
C937 C 0.02112 0.61589 0.09685 0.0
C938 C 0.01662 0.65069 0.10908 0.0
H939 H 0.0839 0.75767 0.11556 0.0
H940 H 0.07576 0.71064 0.1159 0.0
H941 H 0.08048 0.73384 0.07452 0.0
H942 H 0.04498 0.69557 0.03796 0.0
H943 H 0.05231 0.63534 0.01644 0.0
H944 H 0.312 0.35836 0.23271 0.0
H945 H 0.30536 0.42236 0.22353 0.0
H946 H 0.21691 0.41635 0.27093 0.0
H947 H 0.2241 0.35269 0.28125 0.0
H948 H 0.26655 0.46626 0.19067 0.0
H949 H 0.25826 0.48571 0.33617 0.0
H950 H 0.26851 0.44375 0.31663 0.0
H951 H 0.22955 0.45699 0.31885 0.0
C952 C 0.29075 0.37059 0.23994 0.0
C953 C 0.26836 0.35073 0.25719 0.0
C954 C 0.28707 0.40718 0.23507 0.0
C955 C 0.26097 0.42438 0.24749 0.0
C956 C 0.23758 0.40389 0.26206 0.0
H957 H 0.22478 0.64545 0.19587 0.0
H958 H 0.2195 0.58162 0.20583 0.0
C959 C 0.24143 0.36745 0.26734 0.0
C960 C 0.25906 0.46381 0.247 0.0
H961 H 0.25012 0.53653 0.30036 0.0
C962 C 0.2629 0.48161 0.21464 0.0
C963 C 0.25497 0.48394 0.27846 0.0
C964 C 0.2529 0.46669 0.31454 0.0
C965 C 0.26248 0.51883 0.21272 0.0
C966 C 0.25718 0.53892 0.24395 0.0
C967 C 0.25367 0.52116 0.27639 0.0
C968 C 0.25629 0.5784 0.24342 0.0
C969 C 0.26869 0.53619 0.17735 0.0
C970 C 0.27691 0.59835 0.26363 0.0
C971 C 0.2793 0.63516 0.25878 0.0
C972 C 0.2612 0.65233 0.23352 0.0
C973 C 0.23893 0.63277 0.21558 0.0
C974 C 0.23621 0.59624 0.22085 0.0
H975 H 0.28083 0.51802 0.15905 0.0
H976 H 0.24698 0.54343 0.16463 0.0
H977 H 0.28236 0.56068 0.18058 0.0
H978 H 0.29244 0.5852 0.28149 0.0
H979 H 0.29694 0.64957 0.27251 0.0
H980 H 0.81452 0.14383 0.76991 0.0
H981 H 0.80859 0.07975 0.77888 0.0
H982 H 0.71664 0.08632 0.74196 0.0
H983 H 0.723 0.15019 0.73187 0.0
H984 H 0.77233 0.03503 0.81526 0.0
H985 H 0.75308 0.01861 0.67075 0.0
H986 H 0.76499 0.0601 0.69004 0.0
H987 H 0.72598 0.04698 0.6918 0.0
C988 C 0.79273 0.13173 0.76507 0.0
C989 C 0.76904 0.15183 0.75079 0.0
C990 C 0.78943 0.09508 0.76979 0.0
C991 C 0.76243 0.07803 0.76012 0.0
C992 C 0.73793 0.0987 0.74867 0.0
H993 H 0.7283 0.85652 0.8099 0.0
H994 H 0.72338 0.92059 0.80158 0.0
C995 C 0.74136 0.13525 0.74357 0.0
C996 C 0.76066 0.0386 0.75997 0.0
H997 H 0.74819 0.96692 0.70615 0.0
C998 C 0.76697 0.02016 0.79143 0.0
C999 C 0.75439 0.01911 0.72861 0.0
C1000 C 0.74953 0.03714 0.6933 0.0
C1001 C 0.76681 0.98291 0.79257 0.0
C1002 C 0.75933 0.96345 0.76157 0.0
C1003 C 0.75344 0.98184 0.72998 0.0
C1004 C 0.75822 0.924 0.76152 0.0
C1005 C 0.77549 0.96479 0.82682 0.0
C1006 C 0.77763 0.90417 0.73961 0.0
C1007 C 0.77985 0.86724 0.74365 0.0
C1008 C 0.76276 0.84984 0.76975 0.0
C1009 C 0.74166 0.86938 0.78954 0.0
C1010 C 0.73914 0.90602 0.78515 0.0
H1011 H 0.78858 0.98271 0.84447 0.0
H1012 H 0.75475 0.9568 0.84123 0.0
H1013 H 0.78914 0.94064 0.82169 0.0
H1014 H 0.79236 0.91747 0.72093 0.0
H1015 H 0.79659 0.85282 0.72848 0.0
H1016 H 0.39369 0.48429 0.00866 0.0
H1017 H 0.33926 0.4711 0.01101 0.0
H1018 H 0.31955 0.57732 0.97576 0.0
H1019 H 0.37346 0.59083 0.97398 0.0
H1020 H 0.29527 0.51832 0.05489 0.0
H1021 H 0.26721 0.50522 0.9118 0.0
H1022 H 0.3046 0.49687 0.92905 0.0
H1023 H 0.2916 0.5416 0.92346 0.0
C1024 C 0.37775 0.50456 1.00073 0.0
C1025 C 0.38795 0.53862 0.99112 0.0
C1026 C 0.34667 0.49706 0.00228 0.0
C1027 C 0.32532 0.52321 0.99345 0.0
C1028 C 0.33555 0.55667 0.98247 0.0
H1029 H 0.14621 0.588 0.02938 0.0
H1030 H 0.20036 0.57595 0.02883 0.0
C1031 C 0.36643 0.56435 0.98151 0.0
C1032 C 0.29233 0.51696 0.99791 0.0
H1033 H 0.22604 0.5141 0.95154 0.0
C1034 C 0.28015 0.51669 0.03232 0.0
C1035 C 0.27259 0.51487 0.96849 0.0
C1036 C 0.28454 0.51438 0.93104 0.0
C1037 C 0.24873 0.51621 0.03799 0.0
C1038 C 0.22896 0.51589 0.00851 0.0
C1039 C 0.24117 0.51429 0.97415 0.0
C1040 C 0.19581 0.5212 0.01263 0.0
C1041 C 0.23682 0.51717 0.07544 0.0
C1042 C 0.17505 0.49421 0.00425 0.0
C1043 C 0.14381 0.50088 0.00514 0.0
C1044 C 0.1329 0.53493 0.01357 0.0
C1045 C 0.15382 0.56149 0.02281 0.0
C1046 C 0.18483 0.55464 0.02255 0.0
H1047 H 0.25424 0.50899 0.09498 0.0
H1048 H 0.22965 0.54463 0.08191 0.0
H1049 H 0.21685 0.49957 0.07826 0.0
H1050 H 0.18304 0.46824 0.99632 0.0
H1051 H 0.12832 0.48001 0.99748 0.0
H1052 H 0.70699 0.14711 0.23346 0.0
H1053 H 0.71114 0.0828 0.22464 0.0
H1054 H 0.7992 0.08409 0.2734 0.0
H1055 H 0.79434 0.14804 0.28366 0.0
H1056 H 0.74691 0.03642 0.19301 0.0
H1057 H 0.75587 0.0172 0.33832 0.0
H1058 H 0.7475 0.0597 0.31873 0.0
H1059 H 0.78583 0.04403 0.32095 0.0
C1060 C 0.72765 0.13376 0.24108 0.0
C1061 C 0.75052 0.1524 0.25881 0.0
C1062 C 0.72989 0.09698 0.23643 0.0
C1063 C 0.75507 0.07836 0.24943 0.0
C1064 C 0.77912 0.09762 0.26423 0.0
H1065 H 0.78729 0.85734 0.1977 0.0
H1066 H 0.79237 0.92117 0.20759 0.0
C1067 C 0.77664 0.13424 0.26943 0.0
C1068 C 0.7554 0.03883 0.24917 0.0
H1069 H 0.76311 0.96593 0.30258 0.0
C1070 C 0.75047 0.02106 0.21699 0.0
C1071 C 0.75922 0.01863 0.28064 0.0
C1072 C 0.76206 0.03583 0.31666 0.0
C1073 C 0.74976 0.98384 0.21523 0.0
C1074 C 0.7552 0.96366 0.24633 0.0
C1075 C 0.75954 0.98136 0.27866 0.0
C1076 C 0.75591 0.9242 0.24564 0.0
C1077 C 0.7423 0.9666 0.18015 0.0
C1078 C 0.73543 0.90416 0.26597 0.0
C1079 C 0.73308 0.86734 0.26105 0.0
C1080 C 0.75113 0.85026 0.23566 0.0
C1081 C 0.7732 0.86994 0.21752 0.0
C1082 C 0.77582 0.90647 0.22279 0.0
H1083 H 0.72955 0.98495 0.16263 0.0
H1084 H 0.76355 0.95941 0.16634 0.0
H1085 H 0.7287 0.94214 0.18386 0.0
H1086 H 0.72002 0.91725 0.28403 0.0
H1087 H 0.71559 0.85281 0.27492 0.0
H1088 H 0.86918 0.91467 0.01899 0.0
H1089 H 0.81512 0.92636 0.01963 0.0
H1090 H 0.83208 0.03797 0.00477 0.0
H1091 H 0.88686 0.0264 0.00424 0.0
H1092 H 0.78048 0.97459 0.06514 0.0
H1093 H 0.77345 0.00723 0.92113 0.0
H1094 H 0.80501 0.98311 0.93943 0.0
H1095 H 0.80123 0.02968 0.9479 0.0
C1096 C 0.86156 0.94183 0.01618 0.0
C1097 C 0.88245 0.96959 0.01143 0.0
C1098 C 0.83056 0.94845 0.01653 0.0
C1099 C 0.81945 0.98293 0.01174 0.0
C1100 C 0.84013 0.01106 0.00809 0.0
H1101 H 0.62173 0.021 0.98916 0.0
H1102 H 0.6763 0.0335 0.99125 0.0
C1103 C 0.87142 0.00447 0.00814 0.0
C1104 C 0.78615 0.98849 0.01019 0.0
H1105 H 0.72769 1.00075 0.95205 0.0
C1106 C 0.76897 0.98095 0.04055 0.0
C1107 C 0.77106 0.99682 0.97812 0.0
C1108 C 0.78843 0.00458 0.94461 0.0
C1109 C 0.73727 0.98019 0.03943 0.0
C1110 C 0.72217 0.98648 0.00692 0.0
C1111 C 0.73923 0.99588 0.97694 0.0
C1112 C 0.68919 0.97942 0.00303 0.0
C1113 C 0.72017 0.97172 0.07298 0.0
C1114 C 0.67838 0.94479 0.00775 0.0
C1115 C 0.6475 0.93757 0.00642 0.0
C1116 C 0.62634 0.96479 1.00024 0.0
C1117 C 0.63726 0.99937 0.99401 0.0
C1118 C 0.66845 0.00659 0.9953 0.0
H1119 H 0.7338 0.97782 0.09693 0.0
H1120 H 0.6987 0.98683 0.07433 0.0
H1121 H 0.71471 0.94299 0.07344 0.0
H1122 H 0.69392 0.92324 0.01303 0.0
H1123 H 0.64023 0.91051 0.01095 0.0
H1124 H 0.19185 0.64154 0.75759 0.0
H1125 H 0.20033 0.57789 0.74887 0.0
H1126 H 0.29605 0.59373 0.76219 0.0
H1127 H 0.28746 0.65768 0.77097 0.0
H1128 H 0.23635 0.53833 0.70114 0.0
H1129 H 0.27272 0.52207 0.84144 0.0
H1130 H 0.25397 0.56153 0.82563 0.0
H1131 H 0.29315 0.55445 0.81593 0.0
C1132 C 0.21476 0.63152 0.75742 0.0
C1133 C 0.23909 0.65436 0.76421 0.0
C1134 C 0.21958 0.59519 0.75279 0.0
C1135 C 0.24875 0.58101 0.75552 0.0
C1136 C 0.27331 0.60409 0.7605 0.0
H1137 H 0.28725 0.36256 0.69932 0.0
H1138 H 0.29222 0.42623 0.71022 0.0
C1139 C 0.26848 0.64058 0.76493 0.0
C1140 C 0.25294 0.54194 0.75462 0.0
H1141 H 0.27251 0.47052 0.80573 0.0
C1142 C 0.24447 0.52352 0.72389 0.0
C1143 C 0.26297 0.52265 0.78465 0.0
C1144 C 0.27102 0.54101 0.81895 0.0
C1145 C 0.24581 0.48636 0.72225 0.0
C1146 C 0.25639 0.46705 0.75202 0.0
C1147 C 0.26472 0.48541 0.78288 0.0
C1148 C 0.25822 0.42772 0.75134 0.0
C1149 C 0.23512 0.46802 0.68891 0.0
C1150 C 0.23911 0.407 0.77276 0.0
C1151 C 0.23667 0.3703 0.76704 0.0
C1152 C 0.25324 0.35413 0.73973 0.0
C1153 C 0.27423 0.37447 0.72055 0.0
C1154 C 0.2769 0.41086 0.72653 0.0
H1155 H 0.22102 0.48576 0.6722 0.0
H1156 H 0.25497 0.45981 0.67296 0.0
H1157 H 0.22182 0.4439 0.69539 0.0
H1158 H 0.22461 0.41953 0.79221 0.0
H1159 H 0.22007 0.35526 0.78183 0.0
H1160 H 0.12413 0.52181 0.49538 0.0
H1161 H 0.17881 0.53375 0.49368 0.0
H1162 H 0.19627 0.4215 0.48674 0.0
H1163 H 0.14231 0.40943 0.48856 0.0
H1164 H 0.22393 0.50511 0.54405 0.0
H1165 H 0.24735 0.46543 0.40529 0.0
H1166 H 0.2101 0.47763 0.42045 0.0
H1167 H 0.22462 0.43391 0.42901 0.0
C1168 C 0.13964 0.49977 0.49289 0.0
C1169 C 0.12875 0.46465 0.49207 0.0
C1170 C 0.17088 0.50661 0.49215 0.0
C1171 C 0.19169 0.47853 0.48982 0.0
C1172 C 0.18074 0.44365 0.48811 0.0
H1173 H 0.37042 0.4091 0.50295 0.0
H1174 H 0.31675 0.42159 0.49994 0.0
C1175 C 0.14977 0.4368 0.48928 0.0
C1176 C 0.22494 0.48472 0.49072 0.0
H1177 H 0.28949 0.46498 0.44527 0.0
C1178 C 0.23832 0.49717 0.52218 0.0
C1179 C 0.24373 0.47438 0.4622 0.0
C1180 C 0.23076 0.4624 0.42718 0.0
C1181 C 0.26995 0.49724 0.52664 0.0
C1182 C 0.28862 0.48486 0.49882 0.0
C1183 C 0.27522 0.47434 0.4667 0.0
C1184 C 0.32161 0.47851 0.50359 0.0
C1185 C 0.28314 0.50846 0.56176 0.0
C1186 C 0.34251 0.50642 0.50733 0.0
C1187 C 0.3737 0.49934 0.50907 0.0
C1188 C 0.38449 0.46424 0.50692 0.0
C1189 C 0.36322 0.43651 0.50437 0.0
C1190 C 0.33235 0.44358 0.50263 0.0
H1191 H 0.26545 0.51397 0.5819 0.0
H1192 H 0.29836 0.48747 0.5721 0.0
H1193 H 0.29681 0.53285 0.55802 0.0
H1194 H 0.33478 0.53366 0.50786 0.0
H1195 H 0.38935 0.52136 0.51086 0.0
H1196 H 0.80124 0.7317 0.88421 0.0
H1197 H 0.79512 0.70856 0.94398 0.0
H1198 H 0.75343 0.61406 0.90198 0.0
H1199 H 0.75988 0.63729 0.84129 0.0
H1200 H 0.71838 0.65086 0.95309 0.0
H1201 H 0.83382 0.62985 0.00369 0.0
H1202 H 0.83057 0.6716 0.98118 0.0
H1203 H 0.82518 0.63098 0.9568 0.0
C1204 C 0.79149 0.70558 0.88752 0.0
C1205 C 0.78102 0.6863 0.85811 0.0
C1206 C 0.78819 0.69223 0.92177 0.0
C1207 C 0.77414 0.65939 0.9275 0.0
C1208 C 0.76466 0.63929 0.89809 0.0
H1209 H 0.75165 0.6376 0.15953 0.0
H1210 H 0.75769 0.61413 0.09887 0.0
C1211 C 0.76845 0.65248 0.86351 0.0
C1212 C 0.76602 0.64923 0.96434 0.0
H1213 H 0.79616 0.64746 0.04765 0.0
C1214 C 0.73537 0.64891 0.97371 0.0
C1215 C 0.78809 0.64624 0.99128 0.0
C1216 C 0.82126 0.6443 0.98268 0.0
C1217 C 0.72637 0.6494 0.00945 0.0
C1218 C 0.74858 0.65047 0.03636 0.0
C1219 C 0.7791 0.64701 0.02702 0.0
C1220 C 0.74116 0.66161 0.07311 0.0
C1221 C 0.69318 0.6509 0.01807 0.0
C1222 C 0.72972 0.69583 0.07866 0.0
C1223 C 0.72666 0.70929 0.1129 0.0
C1224 C 0.73479 0.68877 0.14249 0.0
C1225 C 0.74495 0.65384 0.13718 0.0
C1226 C 0.74848 0.64048 0.10262 0.0
H1227 H 0.67954 0.63787 0.99704 0.0
H1228 H 0.68828 0.63797 0.04391 0.0
H1229 H 0.686 0.67906 0.01968 0.0
H1230 H 0.72449 0.71288 0.05635 0.0
H1231 H 0.71879 0.73628 0.11609 0.0
H1232 H 0.4751 0.53304 0.40458 0.0
H1233 H 0.48086 0.54652 0.34098 0.0
H1234 H 0.53601 0.45319 0.32807 0.0
H1235 H 0.53064 0.43996 0.39104 0.0
H1236 H 0.55636 0.50993 0.28781 0.0
H1237 H 0.43368 0.48573 0.26884 0.0
H1238 H 0.443 0.52014 0.3 0.0
H1239 H 0.453 0.47496 0.30957 0.0
C1240 C 0.48919 0.51612 0.38831 0.0
C1241 C 0.50225 0.48535 0.40263 0.0
C1242 C 0.49215 0.52353 0.35194 0.0
C1243 C 0.50828 0.50034 0.32964 0.0
C1244 C 0.52326 0.47127 0.34463 0.0
H1245 H 0.48225 0.47402 0.10061 0.0
H1246 H 0.48883 0.46163 0.16435 0.0
C1247 C 0.52019 0.46379 0.38067 0.0
C1248 C 0.50807 0.5044 0.29042 0.0
H1249 H 0.46176 0.50143 0.218 0.0
C1250 C 0.53567 0.50821 0.27254 0.0
C1251 C 0.48115 0.50113 0.27046 0.0
C1252 C 0.45101 0.49494 0.28805 0.0
C1253 C 0.53702 0.50951 0.2353 0.0
C1254 C 0.51 0.50737 0.2154 0.0
C1255 C 0.48246 0.50298 0.23326 0.0
C1256 C 0.50947 0.51235 0.17629 0.0
C1257 C 0.56743 0.51272 0.21761 0.0
C1258 C 0.51934 0.54456 0.16186 0.0
C1259 C 0.51569 0.55153 0.12582 0.0
C1260 C 0.50188 0.52658 0.10325 0.0
C1261 C 0.49322 0.49357 0.11726 0.0
C1262 C 0.49677 0.48663 0.15366 0.0
H1263 H 0.58577 0.5027 0.23502 0.0
H1264 H 0.56803 0.49789 0.19216 0.0
H1265 H 0.57209 0.54109 0.21196 0.0
H1266 H 0.52867 0.56506 0.17876 0.0
H1267 H 0.52266 0.57723 0.11584 0.0
H1268 H 0.71872 0.26257 0.38421 0.0
H1269 H 0.72483 0.28348 0.4449 0.0
H1270 H 0.76141 0.38222 0.40629 0.0
H1271 H 0.75478 0.3614 0.34474 0.0
H1272 H 0.7987 0.34197 0.45688 0.0
H1273 H 0.68212 0.36126 0.50572 0.0
H1274 H 0.68677 0.32105 0.48072 0.0
H1275 H 0.69188 0.3632 0.45916 0.0
C1276 C 0.72743 0.28906 0.38849 0.0
C1277 C 0.73629 0.31036 0.35976 0.0
C1278 C 0.73075 0.30107 0.42325 0.0
C1279 C 0.7433 0.33451 0.43012 0.0
C1280 C 0.75138 0.35645 0.40149 0.0
H1281 H 0.76589 0.36119 0.6621 0.0
H1282 H 0.75988 0.38224 0.60055 0.0
C1283 C 0.7475 0.34462 0.36644 0.0
C1284 C 0.75095 0.34395 0.46724 0.0
H1285 H 0.71962 0.34608 0.54994 0.0
C1286 C 0.78146 0.34402 0.4772 0.0
C1287 C 0.72848 0.34685 0.4937 0.0
C1288 C 0.69546 0.34844 0.48431 0.0
C1289 C 0.78993 0.3436 0.51311 0.0
C1290 C 0.76733 0.34304 0.53957 0.0
C1291 C 0.73695 0.34633 0.52962 0.0
C1292 C 0.77428 0.33286 0.57669 0.0
C1293 C 0.82296 0.34169 0.52247 0.0
C1294 C 0.78446 0.29834 0.58352 0.0
C1295 C 0.78746 0.28624 0.61828 0.0
C1296 C 0.78059 0.30847 0.64707 0.0
C1297 C 0.77158 0.34361 0.64037 0.0
C1298 C 0.76807 0.3556 0.60533 0.0
H1299 H 0.83721 0.35316 0.5011 0.0
H1300 H 0.82768 0.3559 0.54769 0.0
H1301 H 0.82951 0.31349 0.5259 0.0
H1302 H 0.78889 0.28016 0.56187 0.0
H1303 H 0.79443 0.25905 0.62251 0.0
H1304 H 0.05586 0.52356 0.60459 0.0
H1305 H 0.0516 0.53308 0.6689 0.0
H1306 H 0.96914 0.47223 0.67029 0.0
H1307 H 0.9741 0.4616 0.60648 0.0
H1308 H 0.01179 0.55982 0.71637 0.0
H1309 H 0.02168 0.41449 0.73562 0.0
H1310 H 0.02731 0.43536 0.69309 0.0
H1311 H 0.98976 0.42668 0.7091 0.0
C1312 C 0.03629 0.51338 0.61851 0.0
C1313 C 0.01517 0.4921 0.60072 0.0
C1314 C 0.03401 0.51847 0.65528 0.0
C1315 C 0.01055 0.50238 0.67463 0.0
C1316 C 0.98794 0.48397 0.65616 0.0
H1317 H 0.97874 0.54737 0.89847 0.0
H1318 H 0.97233 0.53807 0.83462 0.0
C1319 C 0.99047 0.47842 0.61963 0.0
C1320 C 0.01082 0.50281 0.71413 0.0
H1321 H 0.01133 0.44869 0.78701 0.0
C1322 C 0.01166 0.53554 0.73181 0.0
C1323 C 0.01137 0.47105 0.73434 0.0
C1324 C 0.0128 0.43492 0.71711 0.0
C1325 C 0.01261 0.53746 0.76905 0.0
C1326 C 0.01183 0.50572 0.78929 0.0
C1327 C 0.01142 0.47299 0.77158 0.0
C1328 C 0.01254 0.50603 0.82879 0.0
C1329 C 0.01535 0.57354 0.78619 0.0
C1330 C 0.03576 0.48857 0.84732 0.0
C1331 C 0.03883 0.4929 0.8841 0.0
C1332 C 0.01874 0.51479 0.90274 0.0
C1333 C 0.99432 0.53007 0.88463 0.0
C1334 C 0.99097 0.52529 0.84808 0.0
H1335 H 0.0245 0.59358 0.76742 0.0
H1336 H 0.99268 0.58267 0.79466 0.0
H1337 H 0.03022 0.5726 0.80987 0.0
H1338 H 0.05253 0.47329 0.83306 0.0
H1339 H 0.05818 0.48147 0.89741 0.0
H1340 H 0.88894 0.98978 0.54609 0.0
H1341 H 0.83424 0.9792 0.54962 0.0
H1342 H 0.82119 0.04232 0.45547 0.0
H1343 H 0.87571 0.05335 0.45238 0.0
H1344 H 0.79202 0.03514 0.55738 0.0
H1345 H 0.76648 0.95457 0.4382 0.0
H1346 H 0.80399 0.95807 0.45665 0.0
H1347 H 0.7893 0.9929 0.42904 0.0
C1348 C 0.87442 1.00033 0.52553 0.0
C1349 C 0.8865 0.02174 0.49852 0.0
C1350 C 0.84318 0.99452 0.52769 0.0
C1351 C 0.82354 0.00959 0.50257 0.0
C1352 C 0.83584 0.02981 0.47476 0.0
H1353 H 0.64597 0.09081 0.50828 0.0
H1354 H 0.69951 0.07719 0.51055 0.0
C1355 C 0.86698 0.03608 0.47295 0.0
C1356 C 0.79015 0.00759 0.50738 0.0
H1357 H 0.72461 0.9848 0.46512 0.0
C1358 C 0.77732 0.0236 0.53747 0.0
C1359 C 0.77086 0.99225 0.48166 0.0
C1360 C 0.78331 0.97315 0.44971 0.0
C1361 C 0.74585 0.02638 0.54155 0.0
C1362 C 0.72656 0.01302 0.51473 0.0
C1363 C 0.73933 0.99525 0.4856 0.0
C1364 C 0.6935 0.02044 0.51483 0.0
C1365 C 0.73351 0.04435 0.57424 0.0
C1366 C 0.67198 0.99299 0.51614 0.0
C1367 C 0.64091 1.00073 0.51494 0.0
C1368 C 0.63086 0.03604 0.51177 0.0
C1369 C 0.65265 0.06328 0.51067 0.0
C1370 C 0.68344 0.05558 0.51216 0.0
H1371 H 0.74992 0.04357 0.5965 0.0
H1372 H 0.72881 0.0726 0.56807 0.0
H1373 H 0.71212 0.03174 0.58301 0.0
H1374 H 0.67922 0.96562 0.518 0.0
H1375 H 0.62485 0.97907 0.51562 0.0
loop_
_geom_bond_atom_site_label_1
_geom_bond_atom_site_label_2
_geom_bond_distance
_geom_bond_site_symmetry_2
_ccdc_geom_bond_type
Co0 O1 2.216 . S
Co0 O2 2.091 . S
Co0 O4 2.004 . S
Co0 O10 2.021 . S
Co0 O12 2.137 . S
Co0 O13 2.244 . S
O1 Co0 2.216 . S
O1 C8 1.247 . S
O2 Co0 2.091 . S
O2 C8 1.261 . S
C3 O12 1.247 . S
C3 O13 1.272 . S
O4 Co0 2.004 . S
O4 C9 1.259 . S
Co5 O6 2.061 . S
Co5 O11 2.052 . S
Co5 O13 2.135 . S
O6 Co5 2.061 . S
O6 C9 1.235 . S
C7 O10 1.238 . S
C7 O11 1.241 . S
C8 O1 1.247 . S
C8 O2 1.261 . S
C9 O4 1.259 . S
C9 O6 1.235 . S
O10 Co0 2.021 . S
O10 C7 1.238 . S
O11 Co5 2.052 . S
O11 C7 1.241 . S
O12 Co0 2.137 . S
O12 C3 1.247 . S
O13 Co0 2.244 . S
O13 C3 1.272 . S
O13 Co5 2.135 . S
Co14 O15 2.216 1_655 S
Co14 O16 2.091 1_545 S
Co14 O18 2.004 . S
Co14 O24 2.021 1_545 S
Co14 O26 2.137 . S
Co14 O27 2.244 . S
O15 Co14 2.216 1_455 S
O15 C22 1.247 1_545 S
O16 Co14 2.091 1_565 S
O16 C22 1.261 1_655 S
C17 O26 1.247 . S
C17 O27 1.272 . S
O18 Co14 2.004 . S
O18 C23 1.259 . S
Co19 O20 2.061 . S
Co19 O25 2.052 . S
Co19 O27 2.135 . S
O20 Co19 2.061 . S
O20 C23 1.235 . S
C21 O24 1.238 1_545 S
C21 O25 1.241 . S
C22 O15 1.247 1_565 S
C22 O16 1.261 1_455 S
C23 O18 1.259 . S
C23 O20 1.235 . S
O24 Co14 2.021 1_565 S
O24 C21 1.238 1_565 S
O25 Co19 2.052 . S
O25 C21 1.241 . S
O26 Co14 2.137 . S
O26 C17 1.247 . S
O27 Co14 2.244 . S
O27 C17 1.272 . S
O27 Co19 2.135 . S
Co28 O29 2.216 . S
Co28 O30 2.091 . S
Co28 O32 2.004 . S
Co28 O38 2.021 . S
Co28 O40 2.137 . S
Co28 O41 2.244 . S
O29 Co28 2.216 . S
O29 C36 1.247 . S
O30 Co28 2.091 . S
O30 C36 1.261 . S
C31 O40 1.247 . S
C31 O41 1.272 . S
O32 Co28 2.004 . S
O32 C37 1.259 . S
Co33 O34 2.061 . S
Co33 O39 2.052 . S
Co33 O41 2.135 . S
O34 Co33 2.061 . S
O34 C37 1.235 . S
C35 O38 1.238 . S
C35 O39 1.241 . S
C36 O29 1.247 . S
C36 O30 1.261 . S
C37 O32 1.259 . S
C37 O34 1.235 . S
O38 Co28 2.021 . S
O38 C35 1.238 . S
O39 Co33 2.052 . S
O39 C35 1.241 . S
O40 Co28 2.137 . S
O40 C31 1.247 . S
O41 Co28 2.244 . S
O41 C31 1.272 . S
O41 Co33 2.135 . S
Co42 O43 2.216 . S
Co42 O44 2.091 1_565 S
Co42 O46 2.004 . S
Co42 O52 2.021 1_566 S
Co42 O54 2.137 . S
Co42 O55 2.244 1_556 S
O43 Co42 2.216 . S
O43 C50 1.247 1_565 S
O44 Co42 2.091 1_545 S
O44 C50 1.261 . S
C45 O54 1.247 . S
C45 O55 1.272 1_556 S
O46 Co42 2.004 . S
O46 C51 1.259 . S
Co47 O48 2.061 . S
Co47 O53 2.052 . S
Co47 O55 2.135 . S
O48 Co47 2.061 . S
O48 C51 1.235 1_554 S
C49 O52 1.238 1_565 S
C49 O53 1.241 . S
C50 O43 1.247 1_545 S
C50 O44 1.261 . S
C51 O46 1.259 . S
C51 O48 1.235 1_556 S
O52 Co42 2.021 1_544 S
O52 C49 1.238 1_545 S
O53 Co47 2.052 . S
O53 C49 1.241 . S
O54 Co42 2.137 . S
O54 C45 1.247 . S
O55 Co42 2.244 1_554 S
O55 C45 1.272 1_554 S
O55 Co47 2.135 . S
Co56 O57 2.216 . S
Co56 O58 2.091 . S
Co56 O60 2.004 . S
Co56 O66 2.021 . S
Co56 O68 2.137 . S
Co56 O69 2.244 . S
O57 Co56 2.216 . S
O57 C64 1.247 . S
O58 Co56 2.091 . S
O58 C64 1.261 . S
C59 O68 1.247 . S
C59 O69 1.272 . S
O60 Co56 2.004 . S
O60 C65 1.259 . S
Co61 O62 2.061 . S
Co61 O67 2.052 . S
Co61 O69 2.135 . S
O62 Co61 2.061 . S
O62 C65 1.235 . S
C63 O66 1.238 . S
C63 O67 1.241 . S
C64 O57 1.247 . S
C64 O58 1.261 . S
C65 O60 1.259 . S
C65 O62 1.235 . S
O66 Co56 2.021 . S
O66 C63 1.238 . S
O67 Co61 2.052 . S
O67 C63 1.241 . S
O68 Co56 2.137 . S
O68 C59 1.247 . S
O69 Co56 2.244 . S
O69 C59 1.272 . S
O69 Co61 2.135 . S
Co70 O71 2.216 . S
Co70 O72 2.091 1_545 S
Co70 O74 2.004 . S
Co70 O80 2.021 1_545 S
Co70 O82 2.137 . S
Co70 O83 2.244 . S
O71 Co70 2.216 . S
O71 C78 1.247 1_545 S
O72 Co70 2.091 1_565 S
O72 C78 1.261 . S
C73 O82 1.247 . S
C73 O83 1.272 . S
O74 Co70 2.004 . S
O74 C79 1.259 . S
Co75 O76 2.061 . S
Co75 O81 2.052 . S
Co75 O83 2.135 . S
O76 Co75 2.061 . S
O76 C79 1.235 . S
C77 O80 1.238 1_545 S
C77 O81 1.241 . S
C78 O71 1.247 1_565 S
C78 O72 1.261 . S
C79 O74 1.259 . S
C79 O76 1.235 . S
O80 Co70 2.021 1_565 S
O80 C77 1.238 1_565 S
O81 Co75 2.052 . S
O81 C77 1.241 . S
O82 Co70 2.137 . S
O82 C73 1.247 . S
O83 Co70 2.244 . S
O83 C73 1.272 . S
O83 Co75 2.135 . S
Co84 O85 2.216 . S
Co84 O86 2.091 . S
Co84 O88 2.004 . S
Co84 O94 2.021 . S
Co84 O96 2.137 . S
Co84 O97 2.244 . S
O85 Co84 2.216 . S
O85 C92 1.247 . S
O86 Co84 2.091 . S
O86 C92 1.261 . S
C87 O96 1.247 . S
C87 O97 1.272 . S
O88 Co84 2.004 . S
O88 C93 1.259 . S
Co89 O90 2.061 . S
Co89 O95 2.052 . S
Co89 O97 2.135 . S
O90 Co89 2.061 . S
O90 C93 1.235 . S
C91 O94 1.238 . S
C91 O95 1.241 . S
C92 O85 1.247 . S
C92 O86 1.261 . S
C93 O88 1.259 . S
C93 O90 1.235 . S
O94 Co84 2.021 . S
O94 C91 1.238 . S
O95 Co89 2.052 . S
O95 C91 1.241 . S
O96 Co84 2.137 . S
O96 C87 1.247 . S
O97 Co84 2.244 . S
O97 C87 1.272 . S
O97 Co89 2.135 . S
Co98 O99 2.216 1_655 S
Co98 O100 2.091 1_565 S
Co98 O102 2.004 . S
Co98 O108 2.021 1_564 S
Co98 O110 2.137 . S
Co98 O111 2.244 1_554 S
O99 Co98 2.216 1_455 S
O99 C106 1.247 1_565 S
O100 Co98 2.091 1_545 S
O100 C106 1.261 1_655 S
C101 O110 1.247 . S
C101 O111 1.272 1_554 S
O102 Co98 2.004 . S
O102 C107 1.259 . S
Co103 O104 2.061 . S
Co103 O109 2.052 . S
Co103 O111 2.135 . S
O104 Co103 2.061 . S
O104 C107 1.235 1_556 S
C105 O108 1.238 1_565 S
C105 O109 1.241 . S
C106 O99 1.247 1_545 S
C106 O100 1.261 1_455 S
C107 O102 1.259 . S
C107 O104 1.235 1_554 S
O108 Co98 2.021 1_546 S
O108 C105 1.238 1_545 S
O109 Co103 2.052 . S
O109 C105 1.241 . S
O110 Co98 2.137 . S
O110 C101 1.247 . S
O111 Co98 2.244 1_556 S
O111 C101 1.272 1_556 S
O111 Co103 2.135 . S
Co112 O113 2.216 . S
Co112 O114 2.091 . S
Co112 O116 2.004 . S
Co112 O122 2.021 . S
Co112 O124 2.137 . S
Co112 O125 2.244 . S
O113 Co112 2.216 . S
O113 C120 1.247 . S
O114 Co112 2.091 . S
O114 C120 1.261 . S
C115 O124 1.247 . S
C115 O125 1.272 . S
O116 Co112 2.004 . S
O116 C121 1.259 . S
Co117 O118 2.061 . S
Co117 O123 2.052 . S
Co117 O125 2.135 . S
O118 Co117 2.061 . S
O118 C121 1.235 . S
C119 O122 1.238 . S
C119 O123 1.241 . S
C120 O113 1.247 . S
C120 O114 1.261 . S
C121 O116 1.259 . S
C121 O118 1.235 . S
O122 Co112 2.021 . S
O122 C119 1.238 . S
O123 Co117 2.052 . S
O123 C119 1.241 . S
O124 Co112 2.137 . S
O124 C115 1.247 . S
O125 Co112 2.244 . S
O125 C115 1.272 . S
O125 Co117 2.135 . S
Co126 O127 2.216 1_455 S
Co126 O128 2.091 . S
Co126 O130 2.004 . S
Co126 O136 2.021 1_554 S
Co126 O138 2.137 . S
Co126 O139 2.244 1_554 S
O127 Co126 2.216 1_655 S
O127 C134 1.247 . S
O128 Co126 2.091 . S
O128 C134 1.261 1_455 S
C129 O138 1.247 . S
C129 O139 1.272 1_554 S
O130 Co126 2.004 . S
O130 C135 1.259 . S
Co131 O132 2.061 . S
Co131 O137 2.052 . S
Co131 O139 2.135 . S
O132 Co131 2.061 . S
O132 C135 1.235 1_556 S
C133 O136 1.238 . S
C133 O137 1.241 . S
C134 O127 1.247 . S
C134 O128 1.261 1_655 S
C135 O130 1.259 . S
C135 O132 1.235 1_554 S
O136 Co126 2.021 1_556 S
O136 C133 1.238 . S
O137 Co131 2.052 . S
O137 C133 1.241 . S
O138 Co126 2.137 . S
O138 C129 1.247 . S
O139 Co126 2.244 1_556 S
O139 C129 1.272 1_556 S
O139 Co131 2.135 . S
Co140 O141 2.216 . S
Co140 O142 2.091 . S
Co140 O144 2.004 . S
Co140 O150 2.021 . S
Co140 O152 2.137 . S
Co140 O153 2.244 . S
O141 Co140 2.216 . S
O141 C148 1.247 . S
O142 Co140 2.091 . S
O142 C148 1.261 . S
C143 O152 1.247 . S
C143 O153 1.272 . S
O144 Co140 2.004 . S
O144 C149 1.259 . S
Co145 O146 2.061 . S
Co145 O151 2.052 . S
Co145 O153 2.135 . S
O146 Co145 2.061 . S
O146 C149 1.235 . S
C147 O150 1.238 . S
C147 O151 1.241 . S
C148 O141 1.247 . S
C148 O142 1.261 . S
C149 O144 1.259 . S
C149 O146 1.235 . S
O150 Co140 2.021 . S
O150 C147 1.238 . S
O151 Co145 2.052 . S
O151 C147 1.241 . S
O152 Co140 2.137 . S
O152 C143 1.247 . S
O153 Co140 2.244 . S
O153 C143 1.272 . S
O153 Co145 2.135 . S
Co154 O155 2.216 1_455 S
Co154 O156 2.091 . S
Co154 O158 2.004 . S
Co154 O164 2.021 . S
Co154 O166 2.137 . S
Co154 O167 2.244 . S
O155 Co154 2.216 1_655 S
O155 C162 1.247 . S
O156 Co154 2.091 . S
O156 C162 1.261 1_455 S
C157 O166 1.247 . S
C157 O167 1.272 . S
O158 Co154 2.004 . S
O158 C163 1.259 . S
Co159 O160 2.061 . S
Co159 O165 2.052 . S
Co159 O167 2.135 . S
O160 Co159 2.061 . S
O160 C163 1.235 . S
C161 O164 1.238 . S
C161 O165 1.241 . S
C162 O155 1.247 . S
C162 O156 1.261 1_655 S
C163 O158 1.259 . S
C163 O160 1.235 . S
O164 Co154 2.021 . S
O164 C161 1.238 . S
O165 Co159 2.052 . S
O165 C161 1.241 . S
O166 Co154 2.137 . S
O166 C157 1.247 . S
O167 Co154 2.244 . S
O167 C157 1.272 . S
O167 Co159 2.135 . S
Co168 O169 2.216 . S
Co168 O170 2.091 . S
Co168 O172 2.004 . S
Co168 O178 2.021 1_556 S
Co168 O180 2.137 . S
Co168 O181 2.244 1_556 S
O169 Co168 2.216 . S
O169 C176 1.247 . S
O170 Co168 2.091 . S
O170 C176 1.261 . S
C171 O180 1.247 . S
C171 O181 1.272 1_556 S
O172 Co168 2.004 . S
O172 C177 1.259 . S
Co173 O174 2.061 . S
Co173 O179 2.052 . S
Co173 O181 2.135 . S
O174 Co173 2.061 . S
O174 C177 1.235 1_554 S
C175 O178 1.238 . S
C175 O179 1.241 . S
C176 O169 1.247 . S
C176 O170 1.261 . S
C177 O172 1.259 . S
C177 O174 1.235 1_556 S
O178 Co168 2.021 1_554 S
O178 C175 1.238 . S
O179 Co173 2.052 . S
O179 C175 1.241 . S
O180 Co168 2.137 . S
O180 C171 1.247 . S
O181 Co168 2.244 1_554 S
O181 C171 1.272 1_554 S
O181 Co173 2.135 . S
Co182 O183 2.216 . S
Co182 O184 2.091 . S
Co182 O186 2.004 . S
Co182 O192 2.021 . S
Co182 O194 2.137 . S
Co182 O195 2.244 . S
O183 Co182 2.216 . S
O183 C190 1.247 . S
O184 Co182 2.091 . S
O184 C190 1.261 . S
C185 O194 1.247 . S
C185 O195 1.272 . S
O186 Co182 2.004 . S
O186 C191 1.259 . S
Co187 O188 2.061 . S
Co187 O193 2.052 . S
Co187 O195 2.135 . S
O188 Co187 2.061 . S
O188 C191 1.235 . S
C189 O192 1.238 . S
C189 O193 1.241 . S
C190 O183 1.247 . S
C190 O184 1.261 . S
C191 O186 1.259 . S
C191 O188 1.235 . S
O192 Co182 2.021 . S
O192 C189 1.238 . S
O193 Co187 2.052 . S
O193 C189 1.241 . S
O194 Co182 2.137 . S
O194 C185 1.247 . S
O195 Co182 2.244 . S
O195 C185 1.272 . S
O195 Co187 2.135 . S
Co196 O197 2.216 . S
Co196 O198 2.091 . S
Co196 O200 2.004 . S
Co196 O206 2.021 . S
Co196 O208 2.137 . S
Co196 O209 2.244 . S
O197 Co196 2.216 . S
O197 C204 1.247 . S
O198 Co196 2.091 . S
O198 C204 1.261 . S
C199 O208 1.247 . S
C199 O209 1.272 . S
O200 Co196 2.004 . S
O200 C205 1.259 . S
Co201 O202 2.061 . S
Co201 O207 2.052 . S
Co201 O209 2.135 . S
O202 Co201 2.061 . S
O202 C205 1.235 . S
C203 O206 1.238 . S
C203 O207 1.241 . S
C204 O197 1.247 . S
C204 O198 1.261 . S
C205 O200 1.259 . S
C205 O202 1.235 . S
O206 Co196 2.021 . S
O206 C203 1.238 . S
O207 Co201 2.052 . S
O207 C203 1.241 . S
O208 Co196 2.137 . S
O208 C199 1.247 . S
O209 Co196 2.244 . S
O209 C199 1.272 . S
O209 Co201 2.135 . S
Co210 O211 2.216 . S
Co210 O212 2.091 . S
Co210 O214 2.004 . S
Co210 O220 2.021 . S
Co210 O222 2.137 . S
Co210 O223 2.244 . S
O211 Co210 2.216 . S
O211 C218 1.247 . S
O212 Co210 2.091 . S
O212 C218 1.261 . S
C213 O222 1.247 . S
C213 O223 1.272 . S
O214 Co210 2.004 . S
O214 C219 1.259 . S
Co215 O216 2.061 . S
Co215 O221 2.052 . S
Co215 O223 2.135 . S
O216 Co215 2.061 . S
O216 C219 1.235 . S
C217 O220 1.238 . S
C217 O221 1.241 . S
C218 O211 1.247 . S
C218 O212 1.261 . S
C219 O214 1.259 . S
C219 O216 1.235 . S
O220 Co210 2.021 . S
O220 C217 1.238 . S
O221 Co215 2.052 . S
O221 C217 1.241 . S
O222 Co210 2.137 . S
O222 C213 1.247 . S
O223 Co210 2.244 . S
O223 C213 1.272 . S
O223 Co215 2.135 . S
H224 C232 0.929 . S
H225 C234 0.930 . S
H226 C236 0.930 . S
H227 C239 0.929 . S
H228 C242 0.930 . S
H229 C244 0.960 . S
H230 C244 0.960 . S
H231 C244 0.960 . S
C232 H224 0.929 . S
C232 C233 1.377 . S
C232 C234 1.384 . S
C233 C232 1.377 . S
C233 C239 1.390 . S
C234 H225 0.930 . S
C234 C232 1.384 . S
C234 C235 1.372 . S
C235 C234 1.372 . S
C235 C236 1.400 . S
C235 C240 1.490 . S
C236 H226 0.930 . S
C236 C235 1.400 . S
C236 C239 1.386 . S
H237 C253 0.930 . S
H238 C254 0.931 . S
C239 H227 0.929 . S
C239 C233 1.390 . S
C239 C236 1.386 . S
C240 C235 1.490 . S
C240 C242 1.395 . S
C240 C243 1.403 . S
H241 C247 0.930 . S
C242 H228 0.930 . S
C242 C240 1.395 . S
C242 C245 1.403 . S
C243 C240 1.403 . S
C243 C244 1.524 . S
C243 C247 1.400 . S
C244 H229 0.960 . S
C244 H230 0.960 . S
C244 H231 0.960 . S
C244 C243 1.524 . S
C245 C242 1.403 . S
C245 C246 1.392 . S
C245 C249 1.495 . S
C246 C245 1.392 . S
C246 C247 1.385 . S
C246 C248 1.478 . S
C247 H241 0.930 . S
C247 C243 1.400 . S
C247 C246 1.385 . S
C248 C246 1.478 . S
C248 C250 1.381 . S
C248 C254 1.383 . S
C249 C245 1.495 . S
C249 H255 0.959 . S
C249 H256 0.961 . S
C249 H257 0.960 . S
C250 C248 1.381 . S
C250 C251 1.394 . S
C250 H258 0.930 . S
C251 C250 1.394 . S
C251 C252 1.383 . S
C251 H259 0.929 . S
C252 C251 1.383 . S
C252 C253 1.377 . S
C253 H237 0.930 . S
C253 C252 1.377 . S
C253 C254 1.379 . S
C254 H238 0.931 . S
C254 C248 1.383 . S
C254 C253 1.379 . S
H255 C249 0.959 . S
H256 C249 0.961 . S
H257 C249 0.960 . S
H258 C250 0.930 . S
H259 C251 0.929 . S
H260 C268 0.929 . S
H261 C270 0.930 . S
H262 C272 0.930 . S
H263 C275 0.950 . S
H264 C278 0.930 . S
H265 C280 0.960 . S
H266 C280 0.960 . S
H267 C280 0.960 . S
C268 H260 0.929 . S
C268 C269 1.377 . S
C268 C270 1.384 . S
C269 C268 1.377 . S
C269 C275 1.390 . S
C270 H261 0.930 . S
C270 C268 1.384 . S
C270 C271 1.372 . S
C271 C270 1.372 . S
C271 C272 1.400 . S
C271 C276 1.490 . S
C272 H262 0.930 . S
C272 C271 1.400 . S
C272 C275 1.386 . S
H273 C289 0.930 . S
H274 C290 0.931 . S
C275 H263 0.950 . S
C275 C269 1.390 . S
C275 C272 1.386 . S
C276 C271 1.490 . S
C276 C278 1.395 . S
C276 C279 1.403 . S
H277 C283 0.930 . S
C278 H264 0.930 . S
C278 C276 1.395 . S
C278 C281 1.403 . S
C279 C276 1.403 . S
C279 C280 1.524 . S
C279 C283 1.400 . S
C280 H265 0.960 . S
C280 H266 0.960 . S
C280 H267 0.960 . S
C280 C279 1.524 . S
C281 C278 1.403 . S
C281 C282 1.392 . S
C281 C285 1.495 . S
C282 C281 1.392 . S
C282 C283 1.385 . S
C282 C284 1.478 . S
C283 H277 0.930 . S
C283 C279 1.400 . S
C283 C282 1.385 . S
C284 C282 1.478 . S
C284 C286 1.381 . S
C284 C290 1.383 . S
C285 C281 1.495 . S
C285 H291 0.959 . S
C285 H292 0.961 . S
C285 H293 0.960 . S
C286 C284 1.381 . S
C286 C287 1.394 . S
C286 H294 0.930 . S
C287 C286 1.394 . S
C287 C288 1.383 . S
C287 H295 0.929 . S
C288 C287 1.383 . S
C288 C289 1.377 . S
C289 H273 0.930 . S
C289 C288 1.377 . S
C289 C290 1.379 . S
C290 H274 0.931 . S
C290 C284 1.383 . S
C290 C289 1.379 . S
H291 C285 0.959 . S
H292 C285 0.961 . S
H293 C285 0.960 . S
H294 C286 0.930 . S
H295 C287 0.929 . S
H296 C304 0.929 . S
H297 C306 0.930 . S
H298 C308 0.930 . S
H299 C311 0.929 . S
H300 C314 0.930 . S
H301 C316 0.960 . S
H302 C316 0.960 . S
H303 C316 0.960 . S
C304 H296 0.929 . S
C304 C305 1.377 . S
C304 C306 1.384 . S
C305 C304 1.377 . S
C305 C311 1.390 . S
C306 H297 0.930 . S
C306 C304 1.384 . S
C306 C307 1.372 . S
C307 C306 1.372 . S
C307 C308 1.400 . S
C307 C312 1.490 . S
C308 H298 0.930 . S
C308 C307 1.400 . S
C308 C311 1.386 . S
H309 C325 0.930 . S
H310 C326 0.931 . S
C311 H299 0.929 . S
C311 C305 1.390 . S
C311 C308 1.386 . S
C312 C307 1.490 . S
C312 C314 1.395 . S
C312 C315 1.403 . S
H313 C319 0.930 . S
C314 H300 0.930 . S
C314 C312 1.395 . S
C314 C317 1.403 . S
C315 C312 1.403 . S
C315 C316 1.524 . S
C315 C319 1.400 . S
C316 H301 0.960 . S
C316 H302 0.960 . S
C316 H303 0.960 . S
C316 C315 1.524 . S
C317 C314 1.403 . S
C317 C318 1.392 . S
C317 C321 1.495 . S
C318 C317 1.392 . S
C318 C319 1.385 . S
C318 C320 1.478 . S
C319 H313 0.930 . S
C319 C315 1.400 . S
C319 C318 1.385 . S
C320 C318 1.478 . S
C320 C322 1.381 . S
C320 C326 1.383 . S
C321 C317 1.495 . S
C321 H327 0.959 . S
C321 H328 0.961 . S
C321 H329 0.960 . S
C322 C320 1.381 . S
C322 C323 1.394 . S
C322 H330 0.930 . S
C323 C322 1.394 . S
C323 C324 1.383 . S
C323 H331 0.929 . S
C324 C323 1.383 . S
C324 C325 1.377 . S
C325 H309 0.930 . S
C325 C324 1.377 . S
C325 C326 1.379 . S
C326 H310 0.931 . S
C326 C320 1.383 . S
C326 C325 1.379 . S
H327 C321 0.959 . S
H328 C321 0.961 . S
H329 C321 0.960 . S
H330 C322 0.930 . S
H331 C323 0.929 . S
H332 C340 0.929 . S
H333 C342 0.930 . S
H334 C344 0.930 . S
H335 C347 0.929 . S
H336 C350 0.930 . S
H337 C352 0.960 . S
H338 C352 0.960 . S
H339 C352 0.960 . S
C340 H332 0.929 . S
C340 C341 1.377 . S
C340 C342 1.384 . S
C341 C340 1.377 . S
C341 C347 1.390 . S
C342 H333 0.930 . S
C342 C340 1.384 . S
C342 C343 1.372 . S
C343 C342 1.372 . S
C343 C344 1.400 . S
C343 C348 1.490 . S
C344 H334 0.930 . S
C344 C343 1.400 . S
C344 C347 1.386 . S
H345 C361 0.930 . S
H346 C362 0.931 . S
C347 H335 0.929 . S
C347 C341 1.390 . S
C347 C344 1.386 . S
C348 C343 1.490 . S
C348 C350 1.395 . S
C348 C351 1.403 . S
H349 C355 0.930 . S
C350 H336 0.930 . S
C350 C348 1.395 . S
C350 C353 1.403 . S
C351 C348 1.403 . S
C351 C352 1.524 . S
C351 C355 1.400 . S
C352 H337 0.960 . S
C352 H338 0.960 . S
C352 H339 0.960 . S
C352 C351 1.524 . S
C353 C350 1.403 . S
C353 C354 1.392 . S
C353 C357 1.495 . S
C354 C353 1.392 . S
C354 C355 1.385 . S
C354 C356 1.478 . S
C355 H349 0.930 . S
C355 C351 1.400 . S
C355 C354 1.385 . S
C356 C354 1.478 . S
C356 C358 1.381 . S
C356 C362 1.383 . S
C357 C353 1.495 . S
C357 H363 0.959 . S
C357 H364 0.961 . S
C357 H365 0.960 . S
C358 C356 1.381 . S
C358 C359 1.394 . S
C358 H366 0.930 . S
C359 C358 1.394 . S
C359 C360 1.383 . S
C359 H367 0.929 . S
C360 C359 1.383 . S
C360 C361 1.377 . S
C361 H345 0.930 . S
C361 C360 1.377 . S
C361 C362 1.379 . S
C362 H346 0.931 . S
C362 C356 1.383 . S
C362 C361 1.379 . S
H363 C357 0.959 . S
H364 C357 0.961 . S
H365 C357 0.960 . S
H366 C358 0.930 . S
H367 C359 0.929 . S
H368 C376 0.929 . S
H369 C378 0.930 . S
H370 C380 0.930 . S
H371 C383 0.929 . S
H372 C386 0.930 . S
H373 C388 0.960 . S
H374 C388 0.960 . S
H375 C388 0.960 . S
C376 H368 0.929 . S
C376 C377 1.377 . S
C376 C378 1.384 . S
C377 C376 1.377 . S
C377 C383 1.390 . S
C378 H369 0.930 . S
C378 C376 1.384 . S
C378 C379 1.372 . S
C379 C378 1.372 . S
C379 C380 1.400 . S
C379 C384 1.490 . S
C380 H370 0.930 . S
C380 C379 1.400 . S
C380 C383 1.386 . S
H381 C397 0.930 . S
H382 C398 0.931 . S
C383 H371 0.929 . S
C383 C377 1.390 . S
C383 C380 1.386 . S
C384 C379 1.490 . S
C384 C386 1.395 . S
C384 C387 1.403 . S
H385 C391 0.930 . S
C386 H372 0.930 . S
C386 C384 1.395 . S
C386 C389 1.403 . S
C387 C384 1.403 . S
C387 C388 1.524 . S
C387 C391 1.400 . S
C388 H373 0.960 . S
C388 H374 0.960 . S
C388 H375 0.960 . S
C388 C387 1.524 . S
C389 C386 1.403 . S
C389 C390 1.392 . S
C389 C393 1.495 . S
C390 C389 1.392 . S
C390 C391 1.385 . S
C390 C392 1.478 . S
C391 H385 0.930 . S
C391 C387 1.400 . S
C391 C390 1.385 . S
C392 C390 1.478 . S
C392 C394 1.381 . S
C392 C398 1.383 . S
C393 C389 1.495 . S
C393 H399 0.959 . S
C393 H400 0.961 . S
C393 H401 0.960 . S
C394 C392 1.381 . S
C394 C395 1.394 . S
C394 H402 0.930 . S
C395 C394 1.394 . S
C395 C396 1.383 . S
C395 H403 0.929 . S
C396 C395 1.383 . S
C396 C397 1.377 . S
C397 H381 0.930 . S
C397 C396 1.377 . S
C397 C398 1.379 . S
C398 H382 0.931 . S
C398 C392 1.383 . S
C398 C397 1.379 . S
H399 C393 0.959 . S
H400 C393 0.961 . S
H401 C393 0.960 . S
H402 C394 0.930 . S
H403 C395 0.929 . S
H404 C412 0.929 . S
H405 C414 0.930 . S
H406 C416 0.930 . S
H407 C419 0.929 . S
H408 C422 0.930 . S
H409 C424 0.960 . S
H410 C424 0.960 . S
H411 C424 0.960 . S
C412 H404 0.929 . S
C412 C413 1.377 . S
C412 C414 1.384 . S
C413 C412 1.377 . S
C413 C419 1.390 . S
C414 H405 0.930 . S
C414 C412 1.384 . S
C414 C415 1.372 . S
C415 C414 1.372 . S
C415 C416 1.400 . S
C415 C420 1.490 . S
C416 H406 0.930 . S
C416 C415 1.400 . S
C416 C419 1.386 . S
H417 C433 0.930 . S
H418 C434 0.931 . S
C419 H407 0.929 . S
C419 C413 1.390 . S
C419 C416 1.386 . S
C420 C415 1.490 . S
C420 C422 1.395 . S
C420 C423 1.403 . S
H421 C427 0.930 . S
C422 H408 0.930 . S
C422 C420 1.395 . S
C422 C425 1.403 . S
C423 C420 1.403 . S
C423 C424 1.524 . S
C423 C427 1.400 . S
C424 H409 0.960 . S
C424 H410 0.960 . S
C424 H411 0.960 . S
C424 C423 1.524 . S
C425 C422 1.403 . S
C425 C426 1.392 . S
C425 C429 1.495 . S
C426 C425 1.392 . S
C426 C427 1.385 . S
C426 C428 1.478 . S
C427 H421 0.930 . S
C427 C423 1.400 . S
C427 C426 1.385 . S
C428 C426 1.478 . S
C428 C430 1.381 . S
C428 C434 1.383 . S
C429 C425 1.495 . S
C429 H435 0.959 . S
C429 H436 0.961 . S
C429 H437 0.960 . S
C430 C428 1.381 . S
C430 C431 1.394 . S
C430 H438 0.930 . S
C431 C430 1.394 . S
C431 C432 1.383 . S
C431 H439 0.929 . S
C432 C431 1.383 . S
C432 C433 1.377 . S
C433 H417 0.930 . S
C433 C432 1.377 . S
C433 C434 1.379 . S
C434 H418 0.931 . S
C434 C428 1.383 . S
C434 C433 1.379 . S
H435 C429 0.959 . S
H436 C429 0.961 . S
H437 C429 0.960 . S
H438 C430 0.930 . S
H439 C431 0.929 . S
H440 C448 0.929 . S
H441 C450 0.930 . S
H442 C452 0.930 . S
H443 C455 0.929 . S
H444 C458 0.930 . S
H445 C460 0.960 . S
H446 C460 0.960 . S
H447 C460 0.960 . S
C448 H440 0.929 . S
C448 C449 1.377 . S
C448 C450 1.384 . S
C449 C448 1.377 . S
C449 C455 1.390 . S
C450 H441 0.930 . S
C450 C448 1.384 . S
C450 C451 1.372 . S
C451 C450 1.372 . S
C451 C452 1.400 . S
C451 C456 1.490 . S
C452 H442 0.930 . S
C452 C451 1.400 . S
C452 C455 1.386 . S
H453 C469 0.930 . S
H454 C470 0.931 . S
C455 H443 0.929 . S
C455 C449 1.390 . S
C455 C452 1.386 . S
C456 C451 1.490 . S
C456 C458 1.395 . S
C456 C459 1.403 . S
H457 C463 0.930 . S
C458 H444 0.930 . S
C458 C456 1.395 . S
C458 C461 1.403 . S
C459 C456 1.403 . S
C459 C460 1.524 . S
C459 C463 1.400 . S
C460 H445 0.960 . S
C460 H446 0.960 . S
C460 H447 0.960 . S
C460 C459 1.524 . S
C461 C458 1.403 . S
C461 C462 1.392 . S
C461 C465 1.495 . S
C462 C461 1.392 . S
C462 C463 1.385 . S
C462 C464 1.478 . S
C463 H457 0.930 . S
C463 C459 1.400 . S
C463 C462 1.385 . S
C464 C462 1.478 . S
C464 C466 1.381 . S
C464 C470 1.383 . S
C465 C461 1.495 . S
C465 H471 0.959 . S
C465 H472 0.961 . S
C465 H473 0.960 . S
C466 C464 1.381 . S
C466 C467 1.394 . S
C466 H474 0.930 . S
C467 C466 1.394 . S
C467 C468 1.383 . S
C467 H475 0.929 . S
C468 C467 1.383 . S
C468 C469 1.377 . S
C469 H453 0.930 . S
C469 C468 1.377 . S
C469 C470 1.379 . S
C470 H454 0.931 . S
C470 C464 1.383 . S
C470 C469 1.379 . S
H471 C465 0.959 . S
H472 C465 0.961 . S
H473 C465 0.960 . S
H474 C466 0.930 . S
H475 C467 0.929 . S
H476 C484 0.929 . S
H477 C486 0.930 . S
H478 C488 0.930 . S
H479 C491 0.929 . S
H480 C494 0.930 . S
H481 C496 0.960 . S
H482 C496 0.960 . S
H483 C496 0.960 . S
C484 H476 0.929 . S
C484 C485 1.377 . S
C484 C486 1.384 . S
C485 C484 1.377 . S
C485 C491 1.390 . S
C486 H477 0.930 . S
C486 C484 1.384 . S
C486 C487 1.372 . S
C487 C486 1.372 . S
C487 C488 1.400 . S
C487 C492 1.490 . S
C488 H478 0.930 . S
C488 C487 1.400 . S
C488 C491 1.386 . S
H489 C505 0.930 . S
H490 C506 0.931 . S
C491 H479 0.929 . S
C491 C485 1.390 . S
C491 C488 1.386 . S
C492 C487 1.490 . S
C492 C494 1.395 . S
C492 C495 1.403 . S
H493 C499 0.930 . S
C494 H480 0.930 . S
C494 C492 1.395 . S
C494 C497 1.403 . S
C495 C492 1.403 . S
C495 C496 1.524 . S
C495 C499 1.400 . S
C496 H481 0.960 . S
C496 H482 0.960 . S
C496 H483 0.960 . S
C496 C495 1.524 . S
C497 C494 1.403 . S
C497 C498 1.392 . S
C497 C501 1.495 . S
C498 C497 1.392 . S
C498 C499 1.385 . S
C498 C500 1.478 . S
C499 H493 0.930 . S
C499 C495 1.400 . S
C499 C498 1.385 . S
C500 C498 1.478 . S
C500 C502 1.381 . S
C500 C506 1.383 . S
C501 C497 1.495 . S
C501 H507 0.959 . S
C501 H508 0.961 . S
C501 H509 0.960 . S
C502 C500 1.381 . S
C502 C503 1.394 . S
C502 H510 0.930 . S
C503 C502 1.394 . S
C503 C504 1.383 . S
C503 H511 0.929 . S
C504 C503 1.383 . S
C504 C505 1.377 . S
C505 H489 0.930 . S
C505 C504 1.377 . S
C505 C506 1.379 . S
C506 H490 0.931 . S
C506 C500 1.383 . S
C506 C505 1.379 . S
H507 C501 0.959 . S
H508 C501 0.961 . S
H509 C501 0.960 . S
H510 C502 0.930 . S
H511 C503 0.929 . S
H512 C520 0.929 . S
H513 C522 0.930 . S
H514 C524 0.930 . S
H515 C527 0.929 . S
H516 C530 0.930 . S
H517 C532 0.960 . S
H518 C532 0.960 . S
H519 C532 0.960 . S
C520 H512 0.929 . S
C520 C521 1.377 . S
C520 C522 1.384 . S
C521 C520 1.377 . S
C521 C527 1.390 . S
C522 H513 0.930 . S
C522 C520 1.384 . S
C522 C523 1.372 . S
C523 C522 1.372 . S
C523 C524 1.400 . S
C523 C528 1.490 . S
C524 H514 0.930 . S
C524 C523 1.400 . S
C524 C527 1.386 . S
H525 C541 0.930 . S
H526 C542 0.931 . S
C527 H515 0.929 . S
C527 C521 1.390 . S
C527 C524 1.386 . S
C528 C523 1.490 . S
C528 C530 1.395 . S
C528 C531 1.403 . S
H529 C535 0.930 . S
C530 H516 0.930 . S
C530 C528 1.395 . S
C530 C533 1.403 . S
C531 C528 1.403 . S
C531 C532 1.524 . S
C531 C535 1.400 . S
C532 H517 0.960 . S
C532 H518 0.960 . S
C532 H519 0.960 . S
C532 C531 1.524 . S
C533 C530 1.403 . S
C533 C534 1.392 . S
C533 C537 1.495 . S
C534 C533 1.392 . S
C534 C535 1.385 . S
C534 C536 1.478 . S
C535 H529 0.930 . S
C535 C531 1.400 . S
C535 C534 1.385 . S
C536 C534 1.478 . S
C536 C538 1.381 . S
C536 C542 1.383 . S
C537 C533 1.495 . S
C537 H543 0.959 . S
C537 H544 0.961 . S
C537 H545 0.960 . S
C538 C536 1.381 . S
C538 C539 1.394 . S
C538 H546 0.930 . S
C539 C538 1.394 . S
C539 C540 1.383 . S
C539 H547 0.929 . S
C540 C539 1.383 . S
C540 C541 1.377 . S
C541 H525 0.930 . S
C541 C540 1.377 . S
C541 C542 1.379 . S
C542 H526 0.931 . S
C542 C536 1.383 . S
C542 C541 1.379 . S
H543 C537 0.959 . S
H544 C537 0.961 . S
H545 C537 0.960 . S
H546 C538 0.930 . S
H547 C539 0.929 . S
H548 C556 0.929 1_455 S
H549 C558 0.930 1_455 S
H550 C560 0.930 . S
H551 C563 0.929 . S
H552 C566 0.930 1_455 S
H553 C568 0.960 . S
H554 C568 0.960 . S
H555 C568 0.960 . S
C556 H548 0.929 1_655 S
C556 C557 1.377 . S
C556 C558 1.384 . S
C557 C556 1.377 . S
C557 C563 1.390 1_545 S
C558 H549 0.930 1_655 S
C558 C556 1.384 . S
C558 C559 1.372 . S
C559 C558 1.372 . S
C559 C560 1.400 1_545 S
C559 C564 1.490 . S
C560 H550 0.930 . S
C560 C559 1.400 1_565 S
C560 C563 1.386 . S
H561 C577 0.930 . S
H562 C578 0.931 . S
C563 H551 0.929 . S
C563 C557 1.390 1_565 S
C563 C560 1.386 . S
C564 C559 1.490 . S
C564 C566 1.395 1_545 S
C564 C567 1.403 . S
H565 C571 0.930 . S
C566 H552 0.930 1_655 S
C566 C564 1.395 1_565 S
C566 C569 1.403 . S
C567 C564 1.403 . S
C567 C568 1.524 . S
C567 C571 1.400 . S
C568 H553 0.960 . S
C568 H554 0.960 . S
C568 H555 0.960 . S
C568 C567 1.524 . S
C569 C566 1.403 . S
C569 C570 1.392 . S
C569 C573 1.495 1_655 S
C570 C569 1.392 . S
C570 C571 1.385 1_565 S
C570 C572 1.478 . S
C571 H565 0.930 . S
C571 C567 1.400 . S
C571 C570 1.385 1_545 S
C572 C570 1.478 . S
C572 C574 1.389 1_565 S
C572 C578 1.383 . S
C573 C569 1.495 1_455 S
C573 H579 0.959 . S
C573 H580 0.961 . S
C573 H581 0.960 . S
C574 C572 1.389 1_545 S
C574 C575 1.395 . S
C574 H582 0.921 1_655 S
C575 C574 1.395 . S
C575 C576 1.383 1_545 S
C575 H583 0.929 1_655 S
C576 C575 1.383 1_565 S
C576 C577 1.377 . S
C577 H561 0.930 . S
C577 C576 1.377 . S
C577 C578 1.379 . S
C578 H562 0.931 . S
C578 C572 1.383 . S
C578 C577 1.379 . S
H579 C573 0.959 . S
H580 C573 0.961 . S
H581 C573 0.960 . S
H582 C574 0.921 1_455 S
H583 C575 0.929 1_455 S
H584 C592 0.929 . S
H585 C594 0.930 . S
H586 C596 0.930 . S
H587 C599 0.929 . S
H588 C602 0.930 . S
H589 C604 0.960 . S
H590 C604 0.960 . S
H591 C604 0.960 . S
C592 H584 0.929 . S
C592 C593 1.377 . S
C592 C594 1.384 . S
C593 C592 1.377 . S
C593 C599 1.390 . S
C594 H585 0.930 . S
C594 C592 1.384 . S
C594 C595 1.372 . S
C595 C594 1.372 . S
C595 C596 1.400 . S
C595 C600 1.490 . S
C596 H586 0.930 . S
C596 C595 1.400 . S
C596 C599 1.386 . S
H597 C613 0.930 . S
H598 C614 0.931 . S
C599 H587 0.929 . S
C599 C593 1.390 . S
C599 C596 1.386 . S
C600 C595 1.490 . S
C600 C602 1.395 . S
C600 C603 1.403 . S
H601 C607 0.930 . S
C602 H588 0.930 . S
C602 C600 1.395 . S
C602 C605 1.403 1_556 S
C603 C600 1.403 . S
C603 C604 1.524 . S
C603 C607 1.400 1_556 S
C604 H589 0.960 . S
C604 H590 0.960 . S
C604 H591 0.960 . S
C604 C603 1.524 . S
C605 C602 1.403 1_554 S
C605 C606 1.392 . S
C605 C609 1.495 . S
C606 C605 1.392 . S
C606 C607 1.385 . S
C606 C608 1.478 . S
C607 H601 0.930 . S
C607 C603 1.400 1_554 S
C607 C606 1.385 . S
C608 C606 1.478 . S
C608 C610 1.381 . S
C608 C614 1.383 . S
C609 C605 1.495 . S
C609 H615 0.959 . S
C609 H616 0.961 . S
C609 H617 0.960 . S
C610 C608 1.381 . S
C610 C611 1.394 . S
C610 H618 0.930 . S
C611 C610 1.394 . S
C611 C612 1.383 . S
C611 H619 0.929 . S
C612 C611 1.383 . S
C612 C613 1.377 . S
C613 H597 0.930 . S
C613 C612 1.377 . S
C613 C614 1.379 . S
C614 H598 0.931 . S
C614 C608 1.383 . S
C614 C613 1.379 . S
H615 C609 0.959 . S
H616 C609 0.961 . S
H617 C609 0.960 . S
H618 C610 0.930 . S
H619 C611 0.929 . S
H620 C628 0.929 . S
H621 C630 0.930 . S
H622 C632 0.930 . S
H623 C635 0.929 . S
H624 C638 0.930 . S
H625 C640 0.960 . S
H626 C640 0.960 . S
H627 C640 0.960 . S
C628 H620 0.929 . S
C628 C629 1.377 1_545 S
C628 C630 1.384 . S
C629 C628 1.377 1_565 S
C629 C635 1.390 . S
C630 H621 0.930 . S
C630 C628 1.384 . S
C630 C631 1.372 1_545 S
C631 C630 1.372 1_565 S
C631 C632 1.400 . S
C631 C636 1.490 . S
C632 H622 0.930 . S
C632 C631 1.400 . S
C632 C635 1.386 . S
H633 C649 0.930 . S
H634 C650 0.931 . S
C635 H623 0.929 . S
C635 C629 1.390 . S
C635 C632 1.386 . S
C636 C631 1.490 . S
C636 C638 1.395 . S
C636 C639 1.403 1_565 S
H637 C643 0.930 . S
C638 H624 0.930 . S
C638 C636 1.395 . S
C638 C641 1.403 . S
C639 C636 1.403 1_545 S
C639 C640 1.524 . S
C639 C643 1.400 . S
C640 H625 0.960 . S
C640 H626 0.960 . S
C640 H627 0.960 . S
C640 C639 1.524 . S
C641 C638 1.403 . S
C641 C642 1.392 . S
C641 C645 1.495 . S
C642 C641 1.392 . S
C642 C643 1.385 1_565 S
C642 C644 1.478 . S
C643 H637 0.930 . S
C643 C639 1.400 . S
C643 C642 1.385 1_545 S
C644 C642 1.478 . S
C644 C646 1.381 1_565 S
C644 C650 1.383 . S
C645 C641 1.495 . S
C645 H651 0.959 . S
C645 H652 0.961 . S
C645 H653 0.960 . S
C646 C644 1.381 1_545 S
C646 C647 1.394 . S
C646 H654 0.930 . S
C647 C646 1.394 . S
C647 C648 1.383 . S
C647 H655 0.929 . S
C648 C647 1.383 . S
C648 C649 1.377 1_545 S
C649 H633 0.930 . S
C649 C648 1.377 1_565 S
C649 C650 1.379 . S
C650 H634 0.931 . S
C650 C644 1.383 . S
C650 C649 1.379 . S
H651 C645 0.959 . S
H652 C645 0.961 . S
H653 C645 0.960 . S
H654 C646 0.930 . S
H655 C647 0.929 . S
H656 C664 0.929 . S
H657 C666 0.930 . S
H658 C668 0.930 . S
H659 C671 0.929 . S
H660 C674 0.930 . S
H661 C676 0.960 . S
H662 C676 0.960 . S
H663 C676 0.960 . S
C664 H656 0.929 . S
C664 C665 1.377 . S
C664 C666 1.384 . S
C665 C664 1.377 . S
C665 C671 1.390 . S
C666 H657 0.930 . S
C666 C664 1.384 . S
C666 C667 1.372 . S
C667 C666 1.372 . S
C667 C668 1.400 . S
C667 C672 1.490 . S
C668 H658 0.930 . S
C668 C667 1.400 . S
C668 C671 1.386 . S
H669 C685 0.930 . S
H670 C686 0.931 . S
C671 H659 0.929 . S
C671 C665 1.390 . S
C671 C668 1.386 . S
C672 C667 1.490 . S
C672 C674 1.395 . S
C672 C675 1.403 . S
H673 C679 0.930 . S
C674 H660 0.930 . S
C674 C672 1.395 . S
C674 C677 1.403 . S
C675 C672 1.403 . S
C675 C676 1.524 . S
C675 C679 1.400 . S
C676 H661 0.960 . S
C676 H662 0.960 . S
C676 H663 0.960 . S
C676 C675 1.524 . S
C677 C674 1.403 . S
C677 C678 1.392 . S
C677 C681 1.495 . S
C678 C677 1.392 . S
C678 C679 1.385 . S
C678 C680 1.478 . S
C679 H673 0.930 . S
C679 C675 1.400 . S
C679 C678 1.385 . S
C680 C678 1.478 . S
C680 C682 1.381 . S
C680 C686 1.383 . S
C681 C677 1.495 . S
C681 H687 0.959 . S
C681 H688 0.961 . S
C681 H689 0.960 . S
C682 C680 1.381 . S
C682 C683 1.394 . S
C682 H690 0.930 . S
C683 C682 1.394 . S
C683 C684 1.383 . S
C683 H691 0.929 . S
C684 C683 1.383 . S
C684 C685 1.377 . S
C685 H669 0.930 . S
C685 C684 1.377 . S
C685 C686 1.379 . S
C686 H670 0.931 . S
C686 C680 1.383 . S
C686 C685 1.379 . S
H687 C681 0.959 . S
H688 C681 0.961 . S
H689 C681 0.960 . S
H690 C682 0.930 . S
H691 C683 0.929 . S
H692 C700 0.929 . S
H693 C702 0.930 . S
H694 C704 0.930 . S
H695 C707 0.929 . S
H696 C710 0.930 . S
H697 C712 0.960 . S
H698 C712 0.960 . S
H699 C712 0.960 . S
C700 H692 0.929 . S
C700 C701 1.377 . S
C700 C702 1.384 . S
C701 C700 1.377 . S
C701 C707 1.390 1_455 S
C702 H693 0.930 . S
C702 C700 1.384 . S
C702 C703 1.372 . S
C703 C702 1.372 . S
C703 C704 1.400 1_455 S
C703 C708 1.490 . S
C704 H694 0.930 . S
C704 C703 1.400 1_655 S
C704 C707 1.386 . S
H705 C721 0.930 . S
H706 C722 0.931 . S
C707 H695 0.929 . S
C707 C701 1.390 1_655 S
C707 C704 1.386 . S
C708 C703 1.490 . S
C708 C710 1.395 . S
C708 C711 1.403 1_455 S
H709 C715 0.930 . S
C710 H696 0.930 . S
C710 C708 1.395 . S
C710 C713 1.403 . S
C711 C708 1.403 1_655 S
C711 C712 1.524 . S
C711 C715 1.400 . S
C712 H697 0.960 . S
C712 H698 0.960 . S
C712 H699 0.960 . S
C712 C711 1.524 . S
C713 C710 1.403 . S
C713 C714 1.369 1_455 S
C713 C717 1.495 . S
C714 C713 1.369 1_655 S
C714 C715 1.404 . S
C714 C716 1.485 . S
C715 H709 0.930 . S
C715 C711 1.400 . S
C715 C714 1.404 . S
C716 C714 1.485 . S
C716 C718 1.381 1_655 S
C716 C722 1.383 . S
C717 C713 1.495 . S
C717 H723 0.959 . S
C717 H724 0.961 . S
C717 H725 0.960 . S
C718 C716 1.381 1_455 S
C718 C719 1.394 . S
C718 H726 0.930 . S
C719 C718 1.394 . S
C719 C720 1.383 1_455 S
C719 H727 0.929 . S
C720 C719 1.383 1_655 S
C720 C721 1.377 . S
C721 H705 0.930 . S
C721 C720 1.377 . S
C721 C722 1.379 . S
C722 H706 0.931 . S
C722 C716 1.383 . S
C722 C721 1.379 . S
H723 C717 0.959 . S
H724 C717 0.961 . S
H725 C717 0.960 . S
H726 C718 0.930 . S
H727 C719 0.929 . S
H728 C736 0.929 . S
H729 C738 0.930 . S
H730 C740 0.930 . S
H731 C743 0.929 . S
H732 C746 0.930 . S
H733 C748 0.960 . S
H734 C748 0.960 . S
H735 C748 0.960 . S
C736 H728 0.929 . S
C736 C737 1.377 . S
C736 C738 1.384 . S
C737 C736 1.377 . S
C737 C743 1.390 . S
C738 H729 0.930 . S
C738 C736 1.384 . S
C738 C739 1.372 . S
C739 C738 1.372 . S
C739 C740 1.400 . S
C739 C744 1.490 . S
C740 H730 0.930 . S
C740 C739 1.400 . S
C740 C743 1.386 . S
H741 C757 0.930 . S
H742 C758 0.931 . S
C743 H731 0.929 . S
C743 C737 1.390 . S
C743 C740 1.386 . S
C744 C739 1.490 . S
C744 C746 1.395 . S
C744 C747 1.403 . S
H745 C751 0.930 . S
C746 H732 0.930 . S
C746 C744 1.395 . S
C746 C749 1.403 1_655 S
C747 C744 1.403 . S
C747 C748 1.524 . S
C747 C751 1.400 1_655 S
C748 H733 0.960 . S
C748 H734 0.960 . S
C748 H735 0.960 . S
C748 C747 1.524 . S
C749 C746 1.403 1_455 S
C749 C750 1.392 . S
C749 C753 1.495 . S
C750 C749 1.392 . S
C750 C751 1.385 . S
C750 C752 1.478 . S
C751 H745 0.930 . S
C751 C747 1.400 1_455 S
C751 C750 1.385 . S
C752 C750 1.478 . S
C752 C754 1.381 . S
C752 C758 1.383 . S
C753 C749 1.495 . S
C753 H759 0.959 . S
C753 H760 0.961 . S
C753 H761 0.960 . S
C754 C752 1.381 . S
C754 C755 1.394 . S
C754 H762 0.930 . S
C755 C754 1.394 . S
C755 C756 1.383 . S
C755 H763 0.929 . S
C756 C755 1.383 . S
C756 C757 1.377 . S
C757 H741 0.930 . S
C757 C756 1.377 . S
C757 C758 1.379 . S
C758 H742 0.931 . S
C758 C752 1.383 . S
C758 C757 1.379 . S
H759 C753 0.959 . S
H760 C753 0.961 . S
H761 C753 0.960 . S
H762 C754 0.930 . S
H763 C755 0.929 . S
H764 C772 0.929 . S
H765 C774 0.930 . S
H766 C776 0.921 1_554 S
H767 C779 0.929 1_554 S
H768 C782 0.917 1_554 S
H769 C784 0.960 . S
H770 C784 0.960 . S
H771 C784 0.960 . S
C772 H764 0.929 . S
C772 C773 1.377 . S
C772 C774 1.384 . S
C773 C772 1.377 . S
C773 C779 1.390 . S
C774 H765 0.930 . S
C774 C772 1.384 . S
C774 C775 1.372 . S
C775 C774 1.372 . S
C775 C776 1.400 . S
C775 C780 1.490 . S
C776 H766 0.921 1_556 S
C776 C775 1.400 . S
C776 C779 1.386 . S
H777 C793 0.930 1_554 S
H778 C794 0.931 1_554 S
C779 H767 0.929 1_556 S
C779 C773 1.390 . S
C779 C776 1.386 . S
C780 C775 1.490 . S
C780 C782 1.395 . S
C780 C783 1.403 . S
H781 C787 0.930 . S
C782 H768 0.917 1_556 S
C782 C780 1.395 . S
C782 C785 1.403 . S
C783 C780 1.403 . S
C783 C784 1.524 . S
C783 C787 1.400 . S
C784 H769 0.960 . S
C784 H770 0.960 . S
C784 H771 0.960 . S
C784 C783 1.524 . S
C785 C782 1.403 . S
C785 C786 1.392 . S
C785 C789 1.495 1_556 S
C786 C785 1.392 . S
C786 C787 1.385 . S
C786 C788 1.478 . S
C787 H781 0.930 . S
C787 C783 1.400 . S
C787 C786 1.385 . S
C788 C786 1.478 . S
C788 C790 1.381 . S
C788 C794 1.383 . S
C789 C785 1.495 1_554 S
C789 H795 0.959 . S
C789 H796 0.961 . S
C789 H797 0.960 1_554 S
C790 C788 1.381 . S
C790 C791 1.394 . S
C790 H798 0.930 . S
C791 C790 1.394 . S
C791 C792 1.383 . S
C791 H799 0.929 . S
C792 C791 1.383 . S
C792 C793 1.377 . S
C793 H777 0.930 1_556 S
C793 C792 1.377 . S
C793 C794 1.379 . S
C794 H778 0.931 1_556 S
C794 C788 1.383 . S
C794 C793 1.379 . S
H795 C789 0.959 . S
H796 C789 0.961 . S
H797 C789 0.960 1_556 S
H798 C790 0.930 . S
H799 C791 0.929 . S
H800 C808 0.929 . S
H801 C810 0.930 . S
H802 C812 0.930 . S
H803 C815 0.929 . S
H804 C818 0.930 . S
H805 C820 0.960 . S
H806 C820 0.960 . S
H807 C820 0.960 . S
C808 H800 0.929 . S
C808 C809 1.377 . S
C808 C810 1.384 . S
C809 C808 1.377 . S
C809 C815 1.390 . S
C810 H801 0.930 . S
C810 C808 1.384 . S
C810 C811 1.372 . S
C811 C810 1.372 . S
C811 C812 1.400 . S
C811 C816 1.490 . S
C812 H802 0.930 . S
C812 C811 1.400 . S
C812 C815 1.386 . S
H813 C829 0.930 . S
H814 C830 0.931 . S
C815 H803 0.929 . S
C815 C809 1.390 . S
C815 C812 1.386 . S
C816 C811 1.490 . S
C816 C818 1.395 . S
C816 C819 1.403 . S
H817 C823 0.930 . S
C818 H804 0.930 . S
C818 C816 1.395 . S
C818 C821 1.403 . S
C819 C816 1.403 . S
C819 C820 1.524 . S
C819 C823 1.400 . S
C820 H805 0.960 . S
C820 H806 0.960 . S
C820 H807 0.960 . S
C820 C819 1.524 . S
C821 C818 1.403 . S
C821 C822 1.392 . S
C821 C825 1.495 . S
C822 C821 1.392 . S
C822 C823 1.385 . S
C822 C824 1.478 . S
C823 H817 0.930 . S
C823 C819 1.400 . S
C823 C822 1.385 . S
C824 C822 1.478 . S
C824 C826 1.381 . S
C824 C830 1.383 . S
C825 C821 1.495 . S
C825 H831 0.959 . S
C825 H832 0.961 . S
C825 H833 0.960 . S
C826 C824 1.381 . S
C826 C827 1.394 . S
C826 H834 0.930 . S
C827 C826 1.394 . S
C827 C828 1.383 . S
C827 H835 0.929 . S
C828 C827 1.383 . S
C828 C829 1.377 . S
C829 H813 0.930 . S
C829 C828 1.377 . S
C829 C830 1.379 . S
C830 H814 0.931 . S
C830 C824 1.383 . S
C830 C829 1.379 . S
H831 C825 0.959 . S
H832 C825 0.961 . S
H833 C825 0.960 . S
H834 C826 0.930 . S
H835 C827 0.929 . S
H836 C844 0.929 . S
H837 C846 0.930 . S
H838 C848 0.930 . S
H839 C851 0.929 . S
H840 C854 0.930 . S
H841 C856 0.960 . S
H842 C856 0.960 . S
H843 C856 0.960 . S
C844 H836 0.929 . S
C844 C845 1.377 . S
C844 C846 1.384 . S
C845 C844 1.377 . S
C845 C851 1.390 . S
C846 H837 0.930 . S
C846 C844 1.384 . S
C846 C847 1.372 . S
C847 C846 1.372 . S
C847 C848 1.400 . S
C847 C852 1.490 . S
C848 H838 0.930 . S
C848 C847 1.400 . S
C848 C851 1.386 . S
H849 C865 0.930 . S
H850 C866 0.931 . S
C851 H839 0.929 . S
C851 C845 1.390 . S
C851 C848 1.386 . S
C852 C847 1.490 . S
C852 C854 1.395 . S
C852 C855 1.403 . S
H853 C859 0.930 . S
C854 H840 0.930 . S
C854 C852 1.395 . S
C854 C857 1.403 . S
C855 C852 1.403 . S
C855 C856 1.524 . S
C855 C859 1.400 . S
C856 H841 0.960 . S
C856 H842 0.960 . S
C856 H843 0.960 . S
C856 C855 1.524 . S
C857 C854 1.403 . S
C857 C858 1.392 . S
C857 C861 1.495 . S
C858 C857 1.392 . S
C858 C859 1.385 . S
C858 C860 1.478 . S
C859 H853 0.930 . S
C859 C855 1.400 . S
C859 C858 1.385 . S
C860 C858 1.478 . S
C860 C862 1.381 . S
C860 C866 1.383 . S
C861 C857 1.495 . S
C861 H867 0.959 . S
C861 H868 0.961 . S
C861 H869 0.960 . S
C862 C860 1.381 . S
C862 C863 1.394 . S
C862 H870 0.930 . S
C863 C862 1.394 . S
C863 C864 1.383 . S
C863 H871 0.929 . S
C864 C863 1.383 . S
C864 C865 1.377 . S
C865 H849 0.930 . S
C865 C864 1.377 . S
C865 C866 1.379 . S
C866 H850 0.931 . S
C866 C860 1.383 . S
C866 C865 1.379 . S
H867 C861 0.959 . S
H868 C861 0.961 . S
H869 C861 0.960 . S
H870 C862 0.930 . S
H871 C863 0.929 . S
H872 C880 0.929 . S
H873 C882 0.930 . S
H874 C884 0.930 . S
H875 C887 0.929 . S
H876 C890 0.930 . S
H877 C892 0.960 . S
H878 C892 0.960 . S
H879 C892 0.960 . S
C880 H872 0.929 . S
C880 C881 1.377 . S
C880 C882 1.384 . S
C881 C880 1.377 . S
C881 C887 1.390 . S
C882 H873 0.930 . S
C882 C880 1.384 . S
C882 C883 1.372 . S
C883 C882 1.372 . S
C883 C884 1.400 . S
C883 C888 1.490 . S
C884 H874 0.930 . S
C884 C883 1.400 . S
C884 C887 1.386 . S
H885 C901 0.930 . S
H886 C902 0.931 . S
C887 H875 0.929 . S
C887 C881 1.390 . S
C887 C884 1.386 . S
C888 C883 1.490 . S
C888 C890 1.395 . S
C888 C891 1.403 . S
H889 C895 0.930 . S
C890 H876 0.930 . S
C890 C888 1.395 . S
C890 C893 1.403 1_455 S
C891 C888 1.403 . S
C891 C892 1.524 . S
C891 C895 1.400 1_455 S
C892 H877 0.960 . S
C892 H878 0.960 . S
C892 H879 0.960 . S
C892 C891 1.524 . S
C893 C890 1.403 1_655 S
C893 C894 1.392 . S
C893 C897 1.495 . S
C894 C893 1.392 . S
C894 C895 1.385 . S
C894 C896 1.478 . S
C895 H889 0.930 . S
C895 C891 1.400 1_655 S
C895 C894 1.385 . S
C896 C894 1.478 . S
C896 C898 1.381 . S
C896 C902 1.383 . S
C897 C893 1.495 . S
C897 H903 0.959 . S
C897 H904 0.961 . S
C897 H905 0.960 . S
C898 C896 1.381 . S
C898 C899 1.394 . S
C898 H906 0.930 . S
C899 C898 1.394 . S
C899 C900 1.383 . S
C899 H907 0.929 . S
C900 C899 1.383 . S
C900 C901 1.377 . S
C901 H885 0.930 . S
C901 C900 1.377 . S
C901 C902 1.379 . S
C902 H886 0.931 . S
C902 C896 1.383 . S
C902 C901 1.379 . S
H903 C897 0.959 . S
H904 C897 0.961 . S
H905 C897 0.960 . S
H906 C898 0.930 . S
H907 C899 0.929 . S
H908 C916 0.929 . S
H909 C918 0.930 1_455 S
H910 C920 0.930 . S
H911 C923 0.929 . S
H912 C926 0.930 . S
H913 C928 0.960 . S
H914 C928 0.960 . S
H915 C928 0.960 . S
C916 H908 0.929 . S
C916 C917 1.377 1_556 S
C916 C918 1.384 . S
C917 C916 1.377 1_554 S
C917 C923 1.390 . S
C918 H909 0.930 1_655 S
C918 C916 1.384 . S
C918 C919 1.372 1_556 S
C919 C918 1.372 1_554 S
C919 C920 1.400 . S
C919 C924 1.490 . S
C920 H910 0.930 . S
C920 C919 1.400 . S
C920 C923 1.386 . S
H921 C937 0.930 . S
H922 C938 0.931 . S
C923 H911 0.929 . S
C923 C917 1.390 . S
C923 C920 1.386 . S
C924 C919 1.490 . S
C924 C926 1.395 1_655 S
C924 C927 1.403 . S
H925 C931 0.930 . S
C926 H912 0.930 . S
C926 C924 1.395 1_455 S
C926 C929 1.403 . S
C927 C924 1.403 . S
C927 C928 1.524 . S
C927 C931 1.400 . S
C928 H913 0.960 . S
C928 H914 0.960 . S
C928 H915 0.960 . S
C928 C927 1.524 . S
C929 C926 1.403 . S
C929 C930 1.392 . S
C929 C933 1.495 . S
C930 C929 1.392 . S
C930 C931 1.385 1_455 S
C930 C932 1.478 . S
C931 H925 0.930 . S
C931 C927 1.400 . S
C931 C930 1.385 1_655 S
C932 C930 1.478 . S
C932 C934 1.381 1_554 S
C932 C938 1.383 . S
C933 C929 1.495 . S
C933 H939 0.959 . S
C933 H940 0.961 . S
C933 H941 0.960 1_554 S
C934 C932 1.381 1_556 S
C934 C935 1.394 . S
C934 H942 0.930 . S
C935 C934 1.394 . S
C935 C936 1.383 1_556 S
C935 H943 0.929 . S
C936 C935 1.383 1_554 S
C936 C937 1.377 . S
C937 H921 0.930 . S
C937 C936 1.377 . S
C937 C938 1.379 . S
C938 H922 0.931 . S
C938 C932 1.383 . S
C938 C937 1.379 . S
H939 C933 0.959 . S
H940 C933 0.961 . S
H941 C933 0.960 1_556 S
H942 C934 0.930 . S
H943 C935 0.929 . S
H944 C952 0.929 . S
H945 C954 0.930 . S
H946 C956 0.930 . S
H947 C959 0.929 . S
H948 C962 0.930 . S
H949 C964 0.960 . S
H950 C964 0.960 . S
H951 C964 0.960 . S
C952 H944 0.929 . S
C952 C953 1.377 . S
C952 C954 1.384 . S
C953 C952 1.377 . S
C953 C959 1.390 . S
C954 H945 0.930 . S
C954 C952 1.384 . S
C954 C955 1.372 . S
C955 C954 1.372 . S
C955 C956 1.400 . S
C955 C960 1.490 . S
C956 H946 0.930 . S
C956 C955 1.400 . S
C956 C959 1.386 . S
H957 C973 0.930 . S
H958 C974 0.931 . S
C959 H947 0.929 . S
C959 C953 1.390 . S
C959 C956 1.386 . S
C960 C955 1.490 . S
C960 C962 1.395 . S
C960 C963 1.403 . S
H961 C967 0.930 . S
C962 H948 0.930 . S
C962 C960 1.395 . S
C962 C965 1.403 . S
C963 C960 1.403 . S
C963 C964 1.524 . S
C963 C967 1.400 . S
C964 H949 0.960 . S
C964 H950 0.960 . S
C964 H951 0.960 . S
C964 C963 1.524 . S
C965 C962 1.403 . S
C965 C966 1.392 . S
C965 C969 1.495 . S
C966 C965 1.392 . S
C966 C967 1.385 . S
C966 C968 1.478 . S
C967 H961 0.930 . S
C967 C963 1.400 . S
C967 C966 1.385 . S
C968 C966 1.478 . S
C968 C970 1.381 . S
C968 C974 1.383 . S
C969 C965 1.495 . S
C969 H975 0.959 . S
C969 H976 0.961 . S
C969 H977 0.960 . S
C970 C968 1.381 . S
C970 C971 1.394 . S
C970 H978 0.930 . S
C971 C970 1.394 . S
C971 C972 1.383 . S
C971 H979 0.929 . S
C972 C971 1.383 . S
C972 C973 1.377 . S
C973 H957 0.930 . S
C973 C972 1.377 . S
C973 C974 1.379 . S
C974 H958 0.931 . S
C974 C968 1.383 . S
C974 C973 1.379 . S
H975 C969 0.959 . S
H976 C969 0.961 . S
H977 C969 0.960 . S
H978 C970 0.930 . S
H979 C971 0.929 . S
H980 C988 0.929 . S
H981 C990 0.930 . S
H982 C992 0.930 . S
H983 C995 0.929 . S
H984 C998 0.930 . S
H985 C1000 0.960 . S
H986 C1000 0.960 . S
H987 C1000 0.960 . S
C988 H980 0.929 . S
C988 C989 1.377 . S
C988 C990 1.384 . S
C989 C988 1.377 . S
C989 C995 1.390 . S
C990 H981 0.930 . S
C990 C988 1.384 . S
C990 C991 1.372 . S
C991 C990 1.372 . S
C991 C992 1.400 . S
C991 C996 1.490 . S
C992 H982 0.930 . S
C992 C991 1.400 . S
C992 C995 1.386 . S
H993 C1009 0.930 . S
H994 C1010 0.931 . S
C995 H983 0.929 . S
C995 C989 1.390 . S
C995 C992 1.386 . S
C996 C991 1.490 . S
C996 C998 1.395 . S
C996 C999 1.403 . S
H997 C1003 0.930 . S
C998 H984 0.930 . S
C998 C996 1.395 . S
C998 C1001 1.403 1_545 S
C999 C996 1.403 . S
C999 C1000 1.524 . S
C999 C1003 1.400 1_545 S
C1000 H985 0.960 . S
C1000 H986 0.960 . S
C1000 H987 0.960 . S
C1000 C999 1.524 . S
C1001 C998 1.403 1_565 S
C1001 C1002 1.392 . S
C1001 C1005 1.495 . S
C1002 C1001 1.392 . S
C1002 C1003 1.385 . S
C1002 C1004 1.478 . S
C1003 H997 0.930 . S
C1003 C999 1.400 1_565 S
C1003 C1002 1.385 . S
C1004 C1002 1.478 . S
C1004 C1006 1.381 . S
C1004 C1010 1.383 . S
C1005 C1001 1.495 . S
C1005 H1011 0.959 . S
C1005 H1012 0.961 . S
C1005 H1013 0.960 . S
C1006 C1004 1.381 . S
C1006 C1007 1.394 . S
C1006 H1014 0.930 . S
C1007 C1006 1.394 . S
C1007 C1008 1.383 . S
C1007 H1015 0.929 . S
C1008 C1007 1.383 . S
C1008 C1009 1.377 . S
C1009 H993 0.930 . S
C1009 C1008 1.377 . S
C1009 C1010 1.379 . S
C1010 H994 0.931 . S
C1010 C1004 1.383 . S
C1010 C1009 1.379 . S
H1011 C1005 0.959 . S
H1012 C1005 0.961 . S
H1013 C1005 0.960 . S
H1014 C1006 0.930 . S
H1015 C1007 0.929 . S
H1016 C1024 0.929 . S
H1017 C1026 0.930 . S
H1018 C1028 0.930 . S
H1019 C1031 0.929 . S
H1020 C1034 0.930 . S
H1021 C1036 0.960 . S
H1022 C1036 0.960 . S
H1023 C1036 0.960 . S
C1024 H1016 0.929 . S
C1024 C1025 1.377 1_554 S
C1024 C1026 1.384 . S
C1025 C1024 1.377 1_556 S
C1025 C1031 1.390 . S
C1026 H1017 0.930 . S
C1026 C1024 1.384 . S
C1026 C1027 1.372 1_554 S
C1027 C1026 1.372 1_556 S
C1027 C1028 1.400 . S
C1027 C1032 1.488 1_556 S
C1028 H1018 0.930 . S
C1028 C1027 1.400 . S
C1028 C1031 1.386 . S
H1029 C1045 0.930 . S
H1030 C1046 0.931 . S
C1031 H1019 0.929 . S
C1031 C1025 1.390 . S
C1031 C1028 1.386 . S
C1032 C1027 1.488 1_554 S
C1032 C1034 1.413 . S
C1032 C1035 1.387 1_554 S
H1033 C1039 0.930 . S
C1034 H1020 0.930 . S
C1034 C1032 1.413 . S
C1034 C1037 1.403 . S
C1035 C1032 1.387 1_556 S
C1035 C1036 1.524 . S
C1035 C1039 1.400 . S
C1036 H1021 0.960 . S
C1036 H1022 0.960 . S
C1036 H1023 0.960 . S
C1036 C1035 1.524 . S
C1037 C1034 1.403 . S
C1037 C1038 1.392 . S
C1037 C1041 1.495 . S
C1038 C1037 1.392 . S
C1038 C1039 1.385 1_554 S
C1038 C1040 1.478 . S
C1039 H1033 0.930 . S
C1039 C1035 1.400 . S
C1039 C1038 1.385 1_556 S
C1040 C1038 1.478 . S
C1040 C1042 1.381 . S
C1040 C1046 1.383 1_554 S
C1041 C1037 1.495 . S
C1041 H1047 0.959 . S
C1041 H1048 0.961 . S
C1041 H1049 0.960 . S
C1042 C1040 1.381 . S
C1042 C1043 1.394 . S
C1042 H1050 0.930 . S
C1043 C1042 1.394 . S
C1043 C1044 1.383 . S
C1043 H1051 0.929 . S
C1044 C1043 1.383 . S
C1044 C1045 1.377 1_554 S
C1045 H1029 0.930 . S
C1045 C1044 1.377 1_556 S
C1045 C1046 1.379 . S
C1046 H1030 0.931 . S
C1046 C1040 1.383 1_556 S
C1046 C1045 1.379 . S
H1047 C1041 0.959 . S
H1048 C1041 0.961 . S
H1049 C1041 0.960 . S
H1050 C1042 0.930 . S
H1051 C1043 0.929 . S
H1052 C1060 0.929 . S
H1053 C1062 0.930 . S
H1054 C1064 0.930 . S
H1055 C1067 0.929 . S
H1056 C1070 0.930 . S
H1057 C1072 0.960 . S
H1058 C1072 0.960 . S
H1059 C1072 0.960 . S
C1060 H1052 0.929 . S
C1060 C1061 1.377 . S
C1060 C1062 1.384 . S
C1061 C1060 1.377 . S
C1061 C1067 1.390 . S
C1062 H1053 0.930 . S
C1062 C1060 1.384 . S
C1062 C1063 1.372 . S
C1063 C1062 1.372 . S
C1063 C1064 1.400 . S
C1063 C1068 1.490 . S
C1064 H1054 0.930 . S
C1064 C1063 1.400 . S
C1064 C1067 1.386 . S
H1065 C1081 0.930 . S
H1066 C1082 0.931 . S
C1067 H1055 0.929 . S
C1067 C1061 1.390 . S
C1067 C1064 1.386 . S
C1068 C1063 1.490 . S
C1068 C1070 1.395 . S
C1068 C1071 1.403 . S
H1069 C1075 0.930 . S
C1070 H1056 0.930 . S
C1070 C1068 1.395 . S
C1070 C1073 1.403 1_545 S
C1071 C1068 1.403 . S
C1071 C1072 1.524 . S
C1071 C1075 1.400 1_545 S
C1072 H1057 0.960 . S
C1072 H1058 0.960 . S
C1072 H1059 0.960 . S
C1072 C1071 1.524 . S
C1073 C1070 1.403 1_565 S
C1073 C1074 1.392 . S
C1073 C1077 1.495 . S
C1074 C1073 1.392 . S
C1074 C1075 1.385 . S
C1074 C1076 1.478 . S
C1075 H1069 0.930 . S
C1075 C1071 1.400 1_565 S
C1075 C1074 1.385 . S
C1076 C1074 1.478 . S
C1076 C1078 1.381 . S
C1076 C1082 1.383 . S
C1077 C1073 1.495 . S
C1077 H1083 0.959 . S
C1077 H1084 0.961 . S
C1077 H1085 0.960 . S
C1078 C1076 1.381 . S
C1078 C1079 1.394 . S
C1078 H1086 0.930 . S
C1079 C1078 1.394 . S
C1079 C1080 1.383 . S
C1079 H1087 0.929 . S
C1080 C1079 1.383 . S
C1080 C1081 1.377 . S
C1081 H1065 0.930 . S
C1081 C1080 1.377 . S
C1081 C1082 1.379 . S
C1082 H1066 0.931 . S
C1082 C1076 1.383 . S
C1082 C1081 1.379 . S
H1083 C1077 0.959 . S
H1084 C1077 0.961 . S
H1085 C1077 0.960 . S
H1086 C1078 0.930 . S
H1087 C1079 0.929 . S
H1088 C1096 0.929 . S
H1089 C1098 0.930 . S
H1090 C1100 0.930 1_545 S
H1091 C1103 0.929 1_545 S
H1092 C1106 0.930 . S
H1093 C1108 0.960 . S
H1094 C1108 0.960 . S
H1095 C1108 0.960 . S
C1096 H1088 0.929 . S
C1096 C1097 1.377 . S
C1096 C1098 1.384 . S
C1097 C1096 1.377 . S
C1097 C1103 1.390 1_554 S
C1098 H1089 0.930 . S
C1098 C1096 1.384 . S
C1098 C1099 1.372 . S
C1099 C1098 1.372 . S
C1099 C1100 1.400 1_554 S
C1099 C1104 1.490 . S
C1100 H1090 0.930 1_565 S
C1100 C1099 1.400 1_556 S
C1100 C1103 1.386 . S
H1101 C1117 0.930 1_545 S
H1102 C1118 0.931 1_545 S
C1103 H1091 0.929 1_565 S
C1103 C1097 1.390 1_556 S
C1103 C1100 1.386 . S
C1104 C1099 1.490 . S
C1104 C1106 1.395 . S
C1104 C1107 1.403 1_554 S
H1105 C1111 0.930 . S
C1106 H1092 0.930 . S
C1106 C1104 1.395 . S
C1106 C1109 1.403 . S
C1107 C1104 1.403 1_556 S
C1107 C1108 1.524 . S
C1107 C1111 1.400 . S
C1108 H1093 0.960 . S
C1108 H1094 0.960 . S
C1108 H1095 0.960 . S
C1108 C1107 1.524 . S
C1109 C1106 1.403 . S
C1109 C1110 1.392 . S
C1109 C1113 1.495 . S
C1110 C1109 1.392 . S
C1110 C1111 1.385 1_554 S
C1110 C1112 1.478 . S
C1111 H1105 0.930 . S
C1111 C1107 1.400 . S
C1111 C1110 1.385 1_556 S
C1112 C1110 1.478 . S
C1112 C1114 1.381 . S
C1112 C1118 1.383 1_554 S
C1113 C1109 1.495 . S
C1113 H1119 0.959 . S
C1113 H1120 0.961 1_565 S
C1113 H1121 0.960 . S
C1114 C1112 1.381 . S
C1114 C1115 1.394 . S
C1114 H1122 0.930 . S
C1115 C1114 1.394 . S
C1115 C1116 1.383 1_554 S
C1115 H1123 0.929 . S
C1116 C1115 1.383 1_556 S
C1116 C1117 1.377 . S
C1117 H1101 0.930 1_565 S
C1117 C1116 1.377 . S
C1117 C1118 1.379 . S
C1118 H1102 0.931 1_565 S
C1118 C1112 1.383 1_556 S
C1118 C1117 1.379 . S
H1119 C1113 0.959 . S
H1120 C1113 0.961 1_545 S
H1121 C1113 0.960 . S
H1122 C1114 0.930 . S
H1123 C1115 0.929 . S
H1124 C1132 0.929 . S
H1125 C1134 0.930 . S
H1126 C1136 0.930 . S
H1127 C1139 0.929 . S
H1128 C1142 0.930 . S
H1129 C1144 0.960 . S
H1130 C1144 0.960 . S
H1131 C1144 0.960 . S
C1132 H1124 0.929 . S
C1132 C1133 1.377 . S
C1132 C1134 1.384 . S
C1133 C1132 1.377 . S
C1133 C1139 1.390 . S
C1134 H1125 0.930 . S
C1134 C1132 1.384 . S
C1134 C1135 1.372 . S
C1135 C1134 1.372 . S
C1135 C1136 1.400 . S
C1135 C1140 1.490 . S
C1136 H1126 0.930 . S
C1136 C1135 1.400 . S
C1136 C1139 1.386 . S
H1137 C1153 0.930 . S
H1138 C1154 0.931 . S
C1139 H1127 0.929 . S
C1139 C1133 1.390 . S
C1139 C1136 1.386 . S
C1140 C1135 1.490 . S
C1140 C1142 1.395 . S
C1140 C1143 1.403 . S
H1141 C1147 0.930 . S
C1142 H1128 0.930 . S
C1142 C1140 1.395 . S
C1142 C1145 1.403 . S
C1143 C1140 1.403 . S
C1143 C1144 1.524 . S
C1143 C1147 1.400 . S
C1144 H1129 0.960 . S
C1144 H1130 0.960 . S
C1144 H1131 0.960 . S
C1144 C1143 1.524 . S
C1145 C1142 1.403 . S
C1145 C1146 1.392 . S
C1145 C1149 1.495 . S
C1146 C1145 1.392 . S
C1146 C1147 1.385 . S
C1146 C1148 1.478 . S
C1147 H1141 0.930 . S
C1147 C1143 1.400 . S
C1147 C1146 1.385 . S
C1148 C1146 1.478 . S
C1148 C1150 1.381 . S
C1148 C1154 1.383 . S
C1149 C1145 1.495 . S
C1149 H1155 0.959 . S
C1149 H1156 0.961 . S
C1149 H1157 0.960 . S
C1150 C1148 1.381 . S
C1150 C1151 1.394 . S
C1150 H1158 0.930 . S
C1151 C1150 1.394 . S
C1151 C1152 1.383 . S
C1151 H1159 0.929 . S
C1152 C1151 1.383 . S
C1152 C1153 1.377 . S
C1153 H1137 0.930 . S
C1153 C1152 1.377 . S
C1153 C1154 1.379 . S
C1154 H1138 0.931 . S
C1154 C1148 1.383 . S
C1154 C1153 1.379 . S
H1155 C1149 0.959 . S
H1156 C1149 0.961 . S
H1157 C1149 0.960 . S
H1158 C1150 0.930 . S
H1159 C1151 0.929 . S
H1160 C1168 0.929 . S
H1161 C1170 0.930 . S
H1162 C1172 0.930 . S
H1163 C1175 0.929 . S
H1164 C1178 0.930 . S
H1165 C1180 0.960 . S
H1166 C1180 0.960 . S
H1167 C1180 0.960 . S
C1168 H1160 0.929 . S
C1168 C1169 1.377 . S
C1168 C1170 1.384 . S
C1169 C1168 1.377 . S
C1169 C1175 1.390 . S
C1170 H1161 0.930 . S
C1170 C1168 1.384 . S
C1170 C1171 1.372 . S
C1171 C1170 1.372 . S
C1171 C1172 1.400 . S
C1171 C1176 1.490 . S
C1172 H1162 0.930 . S
C1172 C1171 1.400 . S
C1172 C1175 1.386 . S
H1173 C1189 0.930 . S
H1174 C1190 0.931 . S
C1175 H1163 0.929 . S
C1175 C1169 1.390 . S
C1175 C1172 1.386 . S
C1176 C1171 1.490 . S
C1176 C1178 1.395 . S
C1176 C1179 1.403 . S
H1177 C1183 0.930 . S
C1178 H1164 0.930 . S
C1178 C1176 1.395 . S
C1178 C1181 1.403 . S
C1179 C1176 1.403 . S
C1179 C1180 1.524 . S
C1179 C1183 1.400 . S
C1180 H1165 0.960 . S
C1180 H1166 0.960 . S
C1180 H1167 0.960 . S
C1180 C1179 1.524 . S
C1181 C1178 1.403 . S
C1181 C1182 1.392 . S
C1181 C1185 1.495 . S
C1182 C1181 1.392 . S
C1182 C1183 1.385 . S
C1182 C1184 1.478 . S
C1183 H1177 0.930 . S
C1183 C1179 1.400 . S
C1183 C1182 1.385 . S
C1184 C1182 1.478 . S
C1184 C1186 1.381 . S
C1184 C1190 1.383 . S
C1185 C1181 1.495 . S
C1185 H1191 0.959 . S
C1185 H1192 0.961 . S
C1185 H1193 0.960 . S
C1186 C1184 1.381 . S
C1186 C1187 1.394 . S
C1186 H1194 0.930 . S
C1187 C1186 1.394 . S
C1187 C1188 1.383 . S
C1187 H1195 0.929 . S
C1188 C1187 1.383 . S
C1188 C1189 1.377 . S
C1189 H1173 0.930 . S
C1189 C1188 1.377 . S
C1189 C1190 1.379 . S
C1190 H1174 0.931 . S
C1190 C1184 1.383 . S
C1190 C1189 1.379 . S
H1191 C1185 0.959 . S
H1192 C1185 0.961 . S
H1193 C1185 0.960 . S
H1194 C1186 0.930 . S
H1195 C1187 0.929 . S
H1196 C1204 0.929 . S
H1197 C1206 0.930 . S
H1198 C1208 0.930 . S
H1199 C1211 0.929 . S
H1200 C1214 0.930 . S
H1201 C1216 0.970 . S
H1202 C1216 0.960 . S
H1203 C1216 0.960 . S
C1204 H1196 0.929 . S
C1204 C1205 1.377 . S
C1204 C1206 1.384 . S
C1205 C1204 1.377 . S
C1205 C1211 1.390 . S
C1206 H1197 0.930 . S
C1206 C1204 1.384 . S
C1206 C1207 1.372 . S
C1207 C1206 1.372 . S
C1207 C1208 1.400 . S
C1207 C1212 1.490 . S
C1208 H1198 0.930 . S
C1208 C1207 1.400 . S
C1208 C1211 1.386 . S
H1209 C1225 0.930 . S
H1210 C1226 0.931 . S
C1211 H1199 0.929 . S
C1211 C1205 1.390 . S
C1211 C1208 1.386 . S
C1212 C1207 1.490 . S
C1212 C1214 1.395 . S
C1212 C1215 1.403 . S
H1213 C1219 0.930 . S
C1214 H1200 0.930 . S
C1214 C1212 1.395 . S
C1214 C1217 1.403 1_556 S
C1215 C1212 1.403 . S
C1215 C1216 1.524 . S
C1215 C1219 1.400 1_556 S
C1216 H1201 0.970 . S
C1216 H1202 0.960 . S
C1216 H1203 0.960 . S
C1216 C1215 1.524 . S
C1217 C1214 1.403 1_554 S
C1217 C1218 1.392 . S
C1217 C1221 1.495 . S
C1218 C1217 1.392 . S
C1218 C1219 1.385 . S
C1218 C1220 1.478 . S
C1219 H1213 0.930 . S
C1219 C1215 1.400 1_554 S
C1219 C1218 1.385 . S
C1220 C1218 1.478 . S
C1220 C1222 1.381 . S
C1220 C1226 1.383 . S
C1221 C1217 1.495 . S
C1221 H1227 0.959 . S
C1221 H1228 0.961 . S
C1221 H1229 0.960 . S
C1222 C1220 1.381 . S
C1222 C1223 1.394 . S
C1222 H1230 0.930 . S
C1223 C1222 1.394 . S
C1223 C1224 1.383 . S
C1223 H1231 0.929 . S
C1224 C1223 1.383 . S
C1224 C1225 1.377 . S
C1225 H1209 0.930 . S
C1225 C1224 1.377 . S
C1225 C1226 1.379 . S
C1226 H1210 0.931 . S
C1226 C1220 1.383 . S
C1226 C1225 1.379 . S
H1227 C1221 0.959 . S
H1228 C1221 0.961 . S
H1229 C1221 0.960 . S
H1230 C1222 0.930 . S
H1231 C1223 0.929 . S
H1232 C1240 0.929 . S
H1233 C1242 0.930 . S
H1234 C1244 0.930 . S
H1235 C1247 0.929 . S
H1236 C1250 0.930 . S
H1237 C1252 0.960 . S
H1238 C1252 0.960 . S
H1239 C1252 0.960 . S
C1240 H1232 0.929 . S
C1240 C1241 1.377 . S
C1240 C1242 1.384 . S
C1241 C1240 1.377 . S
C1241 C1247 1.390 . S
C1242 H1233 0.930 . S
C1242 C1240 1.384 . S
C1242 C1243 1.372 . S
C1243 C1242 1.372 . S
C1243 C1244 1.400 . S
C1243 C1248 1.490 . S
C1244 H1234 0.930 . S
C1244 C1243 1.400 . S
C1244 C1247 1.386 . S
H1245 C1261 0.930 . S
H1246 C1262 0.931 . S
C1247 H1235 0.929 . S
C1247 C1241 1.390 . S
C1247 C1244 1.386 . S
C1248 C1243 1.490 . S
C1248 C1250 1.395 . S
C1248 C1251 1.403 . S
H1249 C1255 0.930 . S
C1250 H1236 0.930 . S
C1250 C1248 1.395 . S
C1250 C1253 1.403 . S
C1251 C1248 1.403 . S
C1251 C1252 1.524 . S
C1251 C1255 1.400 . S
C1252 H1237 0.960 . S
C1252 H1238 0.960 . S
C1252 H1239 0.960 . S
C1252 C1251 1.524 . S
C1253 C1250 1.403 . S
C1253 C1254 1.392 . S
C1253 C1257 1.495 . S
C1254 C1253 1.392 . S
C1254 C1255 1.385 . S
C1254 C1256 1.478 . S
C1255 H1249 0.930 . S
C1255 C1251 1.400 . S
C1255 C1254 1.385 . S
C1256 C1254 1.478 . S
C1256 C1258 1.381 . S
C1256 C1262 1.383 . S
C1257 C1253 1.495 . S
C1257 H1263 0.959 . S
C1257 H1264 0.961 . S
C1257 H1265 0.960 . S
C1258 C1256 1.381 . S
C1258 C1259 1.394 . S
C1258 H1266 0.930 . S
C1259 C1258 1.394 . S
C1259 C1260 1.383 . S
C1259 H1267 0.929 . S
C1260 C1259 1.383 . S
C1260 C1261 1.377 . S
C1261 H1245 0.930 . S
C1261 C1260 1.377 . S
C1261 C1262 1.379 . S
C1262 H1246 0.931 . S
C1262 C1256 1.383 . S
C1262 C1261 1.379 . S
H1263 C1257 0.959 . S
H1264 C1257 0.961 . S
H1265 C1257 0.960 . S
H1266 C1258 0.930 . S
H1267 C1259 0.929 . S
H1268 C1276 0.929 . S
H1269 C1278 0.930 . S
H1270 C1280 0.930 . S
H1271 C1283 0.929 . S
H1272 C1286 0.930 . S
H1273 C1288 0.960 . S
H1274 C1288 0.960 . S
H1275 C1288 0.960 . S
C1276 H1268 0.929 . S
C1276 C1277 1.377 . S
C1276 C1278 1.384 . S
C1277 C1276 1.377 . S
C1277 C1283 1.390 . S
C1278 H1269 0.930 . S
C1278 C1276 1.384 . S
C1278 C1279 1.372 . S
C1279 C1278 1.372 . S
C1279 C1280 1.400 . S
C1279 C1284 1.490 . S
C1280 H1270 0.930 . S
C1280 C1279 1.400 . S
C1280 C1283 1.386 . S
H1281 C1297 0.930 . S
H1282 C1298 0.931 . S
C1283 H1271 0.929 . S
C1283 C1277 1.390 . S
C1283 C1280 1.386 . S
C1284 C1279 1.490 . S
C1284 C1286 1.395 . S
C1284 C1287 1.403 . S
H1285 C1291 0.930 . S
C1286 H1272 0.930 . S
C1286 C1284 1.395 . S
C1286 C1289 1.403 . S
C1287 C1284 1.403 . S
C1287 C1288 1.524 . S
C1287 C1291 1.400 . S
C1288 H1273 0.960 . S
C1288 H1274 0.960 . S
C1288 H1275 0.960 . S
C1288 C1287 1.524 . S
C1289 C1286 1.403 . S
C1289 C1290 1.392 . S
C1289 C1293 1.495 . S
C1290 C1289 1.392 . S
C1290 C1291 1.385 . S
C1290 C1292 1.478 . S
C1291 H1285 0.930 . S
C1291 C1287 1.400 . S
C1291 C1290 1.385 . S
C1292 C1290 1.478 . S
C1292 C1294 1.381 . S
C1292 C1298 1.383 . S
C1293 C1289 1.495 . S
C1293 H1299 0.959 . S
C1293 H1300 0.961 . S
C1293 H1301 0.960 . S
C1294 C1292 1.381 . S
C1294 C1295 1.394 . S
C1294 H1302 0.930 . S
C1295 C1294 1.394 . S
C1295 C1296 1.383 . S
C1295 H1303 0.929 . S
C1296 C1295 1.383 . S
C1296 C1297 1.377 . S
C1297 H1281 0.930 . S
C1297 C1296 1.377 . S
C1297 C1298 1.379 . S
C1298 H1282 0.931 . S
C1298 C1292 1.383 . S
C1298 C1297 1.379 . S
H1299 C1293 0.959 . S
H1300 C1293 0.961 . S
H1301 C1293 0.960 . S
H1302 C1294 0.930 . S
H1303 C1295 0.929 . S
H1304 C1312 0.929 . S
H1305 C1314 0.930 . S
H1306 C1316 0.930 1_655 S
H1307 C1319 0.929 1_655 S
H1308 C1322 0.930 . S
H1309 C1324 0.960 . S
H1310 C1324 0.960 . S
H1311 C1324 0.960 . S
C1312 H1304 0.929 . S
C1312 C1313 1.377 . S
C1312 C1314 1.384 . S
C1313 C1312 1.377 . S
C1313 C1319 1.390 . S
C1314 H1305 0.930 . S
C1314 C1312 1.384 . S
C1314 C1315 1.372 . S
C1315 C1314 1.372 . S
C1315 C1316 1.400 . S
C1315 C1320 1.490 . S
C1316 H1306 0.930 1_455 S
C1316 C1315 1.400 . S
C1316 C1319 1.386 . S
H1317 C1333 0.930 1_655 S
H1318 C1334 0.931 1_655 S
C1319 H1307 0.929 1_455 S
C1319 C1313 1.390 . S
C1319 C1316 1.386 . S
C1320 C1315 1.490 . S
C1320 C1322 1.395 . S
C1320 C1323 1.403 . S
H1321 C1327 0.930 . S
C1322 H1308 0.930 . S
C1322 C1320 1.395 . S
C1322 C1325 1.403 . S
C1323 C1320 1.403 . S
C1323 C1324 1.524 . S
C1323 C1327 1.400 . S
C1324 H1309 0.960 . S
C1324 H1310 0.960 . S
C1324 H1311 0.960 . S
C1324 C1323 1.524 . S
C1325 C1322 1.403 . S
C1325 C1326 1.392 . S
C1325 C1329 1.495 . S
C1326 C1325 1.392 . S
C1326 C1327 1.385 . S
C1326 C1328 1.478 . S
C1327 H1321 0.930 . S
C1327 C1323 1.400 . S
C1327 C1326 1.385 . S
C1328 C1326 1.478 . S
C1328 C1330 1.381 . S
C1328 C1334 1.383 . S
C1329 C1325 1.495 . S
C1329 H1335 0.959 . S
C1329 H1336 0.961 . S
C1329 H1337 0.960 . S
C1330 C1328 1.381 . S
C1330 C1331 1.394 . S
C1330 H1338 0.930 . S
C1331 C1330 1.394 . S
C1331 C1332 1.383 . S
C1331 H1339 0.929 . S
C1332 C1331 1.383 . S
C1332 C1333 1.377 . S
C1333 H1317 0.930 1_455 S
C1333 C1332 1.377 . S
C1333 C1334 1.379 . S
C1334 H1318 0.931 1_455 S
C1334 C1328 1.383 . S
C1334 C1333 1.379 . S
H1335 C1329 0.959 . S
H1336 C1329 0.961 . S
H1337 C1329 0.960 . S
H1338 C1330 0.930 . S
H1339 C1331 0.929 . S
H1340 C1348 0.929 . S
H1341 C1350 0.930 . S
H1342 C1352 0.930 . S
H1343 C1355 0.929 . S
H1344 C1358 0.930 . S
H1345 C1360 0.960 . S
H1346 C1360 0.960 . S
H1347 C1360 0.960 . S
C1348 H1340 0.929 . S
C1348 C1349 1.377 . S
C1348 C1350 1.384 . S
C1349 C1348 1.377 . S
C1349 C1355 1.390 . S
C1350 H1341 0.930 . S
C1350 C1348 1.384 . S
C1350 C1351 1.372 . S
C1351 C1350 1.372 . S
C1351 C1352 1.400 . S
C1351 C1356 1.490 . S
C1352 H1342 0.930 . S
C1352 C1351 1.400 . S
C1352 C1355 1.386 . S
H1353 C1369 0.930 . S
H1354 C1370 0.931 . S
C1355 H1343 0.929 . S
C1355 C1349 1.390 . S
C1355 C1352 1.386 . S
C1356 C1351 1.490 . S
C1356 C1358 1.395 . S
C1356 C1359 1.403 . S
H1357 C1363 0.930 1_565 S
C1358 H1344 0.930 . S
C1358 C1356 1.395 . S
C1358 C1361 1.403 . S
C1359 C1356 1.403 . S
C1359 C1360 1.524 1_545 S
C1359 C1363 1.400 . S
C1360 H1345 0.960 . S
C1360 H1346 0.960 . S
C1360 H1347 0.960 . S
C1360 C1359 1.524 1_565 S
C1361 C1358 1.403 . S
C1361 C1362 1.392 . S
C1361 C1365 1.495 . S
C1362 C1361 1.392 . S
C1362 C1363 1.385 . S
C1362 C1364 1.478 . S
C1363 H1357 0.930 1_545 S
C1363 C1359 1.400 . S
C1363 C1362 1.385 . S
C1364 C1362 1.478 . S
C1364 C1366 1.381 . S
C1364 C1370 1.383 . S
C1365 C1361 1.495 . S
C1365 H1371 0.959 . S
C1365 H1372 0.961 . S
C1365 H1373 0.960 . S
C1366 C1364 1.381 . S
C1366 C1367 1.394 . S
C1366 H1374 0.930 . S
C1367 C1366 1.394 . S
C1367 C1368 1.383 . S
C1367 H1375 0.929 . S
C1368 C1367 1.383 . S
C1368 C1369 1.377 . S
C1369 H1353 0.930 . S
C1369 C1368 1.377 . S
C1369 C1370 1.379 . S
C1370 H1354 0.931 . S
C1370 C1364 1.383 . S
C1370 C1369 1.379 . S
H1371 C1365 0.959 . S
H1372 C1365 0.961 . S
H1373 C1365 0.960 . S
H1374 C1366 0.930 . S
H1375 C1367 0.929 . S
C233 C8 1.839 . S
C252 C106 1.833 . S
C269 C22 1.840 . S
C288 C64 1.841 . S
C305 C78 1.840 . S
C324 C36 1.842 . S
C341 C50 1.840 . S
C360 C92 1.842 . S
C377 C120 1.840 . S
C396 C176 1.839 . S
C413 C134 1.838 . S
C432 C204 1.829 . S
C449 C162 1.838 . S
C468 C148 1.829 . S
C485 C218 1.838 . S
C504 C190 1.828 . S
C521 C3 0.529 . S
C540 C87 0.509 . S
C557 C105 1.412 1_545 S
C576 C21 1.437 1_565 S
C593 C31 0.525 . S
C612 C59 0.499 . S
C629 C77 1.396 1_565 S
C648 C49 1.362 1_545 S
C665 C9 1.345 . S
C684 C205 1.349 . S
C701 C157 0.529 . S
C720 C17 0.505 . S
C737 C191 1.347 . S
C756 C37 1.358 . S
C773 C171 0.529 . S
C792 C45 0.512 . S
C809 C149 1.347 . S
C828 C65 1.359 . S
C845 C73 0.526 . S
C864 C213 0.546 . S
C881 C93 1.347 . S
C900 C121 1.360 . S
C917 C101 0.519 . S
C936 C129 0.523 . S
C953 C7 1.396 . S
C972 C63 1.366 . S
C989 C119 1.398 . S
C1008 C189 1.381 . S
C1025 C177 1.346 . S
C1044 C135 1.352 . S
C1061 C203 1.396 . S
C1080 C147 1.373 . S
C1097 C107 1.340 . S
C1116 C51 1.329 . S
C1133 C35 1.396 . S
C1152 C91 1.366 . S
C1169 C163 1.348 . S
C1188 C219 1.360 . S
C1205 C185 0.520 . S
C1224 C143 0.516 . S
C1241 C217 1.405 . S
C1260 C175 1.398 . S
C1277 C199 0.525 . S
C1296 C115 0.500 . S
C1313 C161 1.398 . S
C1332 C133 1.366 . S
C1349 C23 1.344 . S
C1368 C79 1.342 . S
