# Generated by pormake.
# Topology lcs, (4)-cn, num edge types: 1
# Building blocks:
#     Node 0, Type 0, BuildingBlock: UXUYUI_clean_sbu_0, # of connection points: 4
#     Node 1, Type 0, BuildingBlock: UXUYUI_clean_sbu_0, # of connection points: 4
#     Node 2, Type 0, BuildingBlock: UXUYUI_clean_sbu_0, # of connection points: 4
#     Node 3, Type 0, BuildingBlock: UXUYUI_clean_sbu_0, # of connection points: 4
#     Node 4, Type 0, BuildingBlock: UXUYUI_clean_sbu_0, # of connection points: 4
#     Node 5, Type 0, BuildingBlock: UXUYUI_clean_sbu_0, # of connection points: 4
#     Node 6, Type 0, BuildingBlock: UXUYUI_clean_sbu_0, # of connection points: 4
#     Node 7, Type 0, BuildingBlock: UXUYUI_clean_sbu_0, # of connection points: 4
#     Node 8, Type 0, BuildingBlock: UXUYUI_clean_sbu_0, # of connection points: 4
#     Node 9, Type 0, BuildingBlock: UXUYUI_clean_sbu_0, # of connection points: 4
#     Node 10, Type 0, BuildingBlock: UXUYUI_clean_sbu_0, # of connection points: 4
#     Node 11, Type 0, BuildingBlock: UXUYUI_clean_sbu_0, # of connection points: 4
#     Node 12, Type 0, BuildingBlock: UXUYUI_clean_sbu_0, # of connection points: 4
#     Node 13, Type 0, BuildingBlock: UXUYUI_clean_sbu_0, # of connection points: 4
#     Node 14, Type 0, BuildingBlock: UXUYUI_clean_sbu_0, # of connection points: 4
#     Node 15, Type 0, BuildingBlock: UXUYUI_clean_sbu_0, # of connection points: 4
#     Node 16, Type 0, BuildingBlock: UXUYUI_clean_sbu_0, # of connection points: 4
#     Node 17, Type 0, BuildingBlock: UXUYUI_clean_sbu_0, # of connection points: 4
#     Node 18, Type 0, BuildingBlock: UXUYUI_clean_sbu_0, # of connection points: 4
#     Node 19, Type 0, BuildingBlock: UXUYUI_clean_sbu_0, # of connection points: 4
#     Node 20, Type 0, BuildingBlock: UXUYUI_clean_sbu_0, # of connection points: 4
#     Node 21, Type 0, BuildingBlock: UXUYUI_clean_sbu_0, # of connection points: 4
#     Node 22, Type 0, BuildingBlock: UXUYUI_clean_sbu_0, # of connection points: 4
#     Node 23, Type 0, BuildingBlock: UXUYUI_clean_sbu_0, # of connection points: 4
#     Edge 24, Type (0, 0), BuildingBlock: UVAHIK_clean_linker_0, # of connection points: 2
#     Edge 25, Type (0, 0), BuildingBlock: UVAHIK_clean_linker_0, # of connection points: 2
#     Edge 26, Type (0, 0), BuildingBlock: UVAHIK_clean_linker_0, # of connection points: 2
#     Edge 27, Type (0, 0), BuildingBlock: UVAHIK_clean_linker_0, # of connection points: 2
#     Edge 28, Type (0, 0), BuildingBlock: UVAHIK_clean_linker_0, # of connection points: 2
#     Edge 29, Type (0, 0), BuildingBlock: UVAHIK_clean_linker_0, # of connection points: 2
#     Edge 30, Type (0, 0), BuildingBlock: UVAHIK_clean_linker_0, # of connection points: 2
#     Edge 31, Type (0, 0), BuildingBlock: UVAHIK_clean_linker_0, # of connection points: 2
#     Edge 32, Type (0, 0), BuildingBlock: UVAHIK_clean_linker_0, # of connection points: 2
#     Edge 33, Type (0, 0), BuildingBlock: UVAHIK_clean_linker_0, # of connection points: 2
#     Edge 34, Type (0, 0), BuildingBlock: UVAHIK_clean_linker_0, # of connection points: 2
#     Edge 35, Type (0, 0), BuildingBlock: UVAHIK_clean_linker_0, # of connection points: 2
#     Edge 36, Type (0, 0), BuildingBlock: UVAHIK_clean_linker_0, # of connection points: 2
#     Edge 37, Type (0, 0), BuildingBlock: UVAHIK_clean_linker_0, # of connection points: 2
#     Edge 38, Type (0, 0), BuildingBlock: UVAHIK_clean_linker_0, # of connection points: 2
#     Edge 39, Type (0, 0), BuildingBlock: UVAHIK_clean_linker_0, # of connection points: 2
#     Edge 40, Type (0, 0), BuildingBlock: UVAHIK_clean_linker_0, # of connection points: 2
#     Edge 41, Type (0, 0), BuildingBlock: UVAHIK_clean_linker_0, # of connection points: 2
#     Edge 42, Type (0, 0), BuildingBlock: UVAHIK_clean_linker_0, # of connection points: 2
#     Edge 43, Type (0, 0), BuildingBlock: UVAHIK_clean_linker_0, # of connection points: 2
#     Edge 44, Type (0, 0), BuildingBlock: UVAHIK_clean_linker_0, # of connection points: 2
#     Edge 45, Type (0, 0), BuildingBlock: UVAHIK_clean_linker_0, # of connection points: 2
#     Edge 46, Type (0, 0), BuildingBlock: UVAHIK_clean_linker_0, # of connection points: 2
#     Edge 47, Type (0, 0), BuildingBlock: UVAHIK_clean_linker_0, # of connection points: 2
#     Edge 48, Type (0, 0), BuildingBlock: UVAHIK_clean_linker_0, # of connection points: 2
#     Edge 49, Type (0, 0), BuildingBlock: UVAHIK_clean_linker_0, # of connection points: 2
#     Edge 50, Type (0, 0), BuildingBlock: UVAHIK_clean_linker_0, # of connection points: 2
#     Edge 51, Type (0, 0), BuildingBlock: UVAHIK_clean_linker_0, # of connection points: 2
#     Edge 52, Type (0, 0), BuildingBlock: UVAHIK_clean_linker_0, # of connection points: 2
#     Edge 53, Type (0, 0), BuildingBlock: UVAHIK_clean_linker_0, # of connection points: 2
#     Edge 54, Type (0, 0), BuildingBlock: UVAHIK_clean_linker_0, # of connection points: 2
#     Edge 55, Type (0, 0), BuildingBlock: UVAHIK_clean_linker_0, # of connection points: 2
#     Edge 56, Type (0, 0), BuildingBlock: UVAHIK_clean_linker_0, # of connection points: 2
#     Edge 57, Type (0, 0), BuildingBlock: UVAHIK_clean_linker_0, # of connection points: 2
#     Edge 58, Type (0, 0), BuildingBlock: UVAHIK_clean_linker_0, # of connection points: 2
#     Edge 59, Type (0, 0), BuildingBlock: UVAHIK_clean_linker_0, # of connection points: 2
#     Edge 60, Type (0, 0), BuildingBlock: UVAHIK_clean_linker_0, # of connection points: 2
#     Edge 61, Type (0, 0), BuildingBlock: UVAHIK_clean_linker_0, # of connection points: 2
#     Edge 62, Type (0, 0), BuildingBlock: UVAHIK_clean_linker_0, # of connection points: 2
#     Edge 63, Type (0, 0), BuildingBlock: UVAHIK_clean_linker_0, # of connection points: 2
#     Edge 64, Type (0, 0), BuildingBlock: UVAHIK_clean_linker_0, # of connection points: 2
#     Edge 65, Type (0, 0), BuildingBlock: UVAHIK_clean_linker_0, # of connection points: 2
#     Edge 66, Type (0, 0), BuildingBlock: UVAHIK_clean_linker_0, # of connection points: 2
#     Edge 67, Type (0, 0), BuildingBlock: UVAHIK_clean_linker_0, # of connection points: 2
#     Edge 68, Type (0, 0), BuildingBlock: UVAHIK_clean_linker_0, # of connection points: 2
#     Edge 69, Type (0, 0), BuildingBlock: UVAHIK_clean_linker_0, # of connection points: 2
#     Edge 70, Type (0, 0), BuildingBlock: UVAHIK_clean_linker_0, # of connection points: 2
#     Edge 71, Type (0, 0), BuildingBlock: UVAHIK_clean_linker_0, # of connection points: 2
# Relax obj value: 0.148
# Max RMSD: 0.190
# Mean RMSD: 0.190
data_MOF--net-lcs--node1-UXUYUI_clean_sbu_0--edge1-UVAHIK_clean_linker_0
_symmetry_space_group_name_H-M    P1
_symmetry_Int_Tables_number       1
_symmetry_cell_setting            triclinic
loop_
_symmetry_equiv_pos_as_xyz
'x, y, z'
_cell_length_a     85.804549
_cell_length_b     85.790798
_cell_length_c     85.769719
_cell_angle_alpha  89.994577
_cell_angle_beta   90.025885
_cell_angle_gamma 89.975075
loop_
_atom_site_label
_atom_site_type_symbol
_atom_site_fract_x
_atom_site_fract_y
_atom_site_fract_z
_atom_type_partial_charge
Li0 Li 0.00096 0.2603 0.36338 0.0
Li1 Li 0.01116 0.24277 0.38314 0.0
Li2 Li 0.9935 0.23215 0.36312 0.0
Li3 Li 0.98464 0.2489 0.38366 0.0
C4 C 0.01959 0.24025 0.34539 0.0
N5 N 0.02964 0.23692 0.31498 0.0
C6 C 0.03454 0.23457 0.3423 0.0
C7 C 0.00976 0.24426 0.33302 0.0
C8 C 0.0394 0.23297 0.32684 0.0
C9 C 0.01505 0.24248 0.31773 0.0
C10 C 0.01141 0.26946 0.39741 0.0
C11 C 0.01998 0.26972 0.4242 0.0
N12 N 0.0313 0.28013 0.42039 0.0
C13 C 0.02302 0.28029 0.39379 0.0
C14 C 0.00977 0.26424 0.41276 0.0
C15 C 0.033 0.2855 0.40557 0.0
C16 C 0.99494 0.28592 0.34315 0.0
N17 N 0.00609 0.27749 0.35061 0.0
C18 C 0.02617 0.29357 0.34004 0.0
C19 C 0.02147 0.28092 0.34908 0.0
C20 C 0.0149 0.30275 0.3325 0.0
C21 C -0.00089 0.29874 0.33404 0.0
H22 H 0.98283 0.28269 0.34426 0.0
H23 H 0.03007 0.27386 0.35503 0.0
C24 C 0.02899 0.22777 0.40641 0.0
N25 N 0.02944 0.23836 0.39466 0.0
C26 C 0.04248 0.22431 0.41481 0.0
C27 C 0.05659 0.24275 0.39883 0.0
C28 C 0.04284 0.2458 0.3907 0.0
C29 C 0.05654 0.2318 0.41102 0.0
H30 H 0.01822 0.22187 0.40914 0.0
H31 H 0.04281 0.2541 0.3812 0.0
C32 C 0.96441 0.25364 0.36133 0.0
N33 N 0.93287 0.2597 0.36375 0.0
C34 C 0.95358 0.24167 0.35912 0.0
C35 C 0.95919 0.26869 0.36479 0.0
C36 C 0.93769 0.24498 0.36036 0.0
C37 C 0.9432 0.27151 0.36599 0.0
C38 C 0.98382 0.21958 0.39485 0.0
C39 C 0.97345 0.20897 0.3881 0.0
C40 C 0.98386 0.22163 0.41102 0.0
C41 C 0.96319 0.20068 0.39765 0.0
C42 C 0.97338 0.21315 0.42016 0.0
N43 N 0.96336 0.20294 0.41334 0.0
C44 C 0.99726 0.20133 0.35326 0.0
C45 C 0.98101 0.21656 0.33688 0.0
C46 C 0.99495 0.18826 0.34387 0.0
N47 N 0.99012 0.21501 0.34974 0.0
C48 C 0.97837 0.2038 0.32716 0.0
C49 C 0.98525 0.18936 0.3307 0.0
H50 H 0.00462 0.20056 0.36347 0.0
H51 H 0.97569 0.22769 0.33425 0.0
C52 C 0.96822 0.26776 0.40471 0.0
N53 N 0.96743 0.25388 0.39711 0.0
C54 C 0.95588 0.27277 0.41401 0.0
C55 C 0.94205 0.24911 0.40759 0.0
C56 C 0.95463 0.2446 0.39832 0.0
C57 C 0.94253 0.26343 0.41553 0.0
H58 H 0.97828 0.27517 0.40323 0.0
H59 H 0.95397 0.23386 0.39184 0.0
O60 O 0.0147 0.24186 0.36048 0.0
O61 O 0.00174 0.26394 0.38599 0.0
O62 O 0.98003 0.25058 0.36041 0.0
O63 O 0.99409 0.22767 0.3857 0.0
H64 H 0.04228 0.23144 0.35176 0.0
H65 H 0.99816 0.2487 0.33518 0.0
H66 H 0.05094 0.22858 0.32427 0.0
H67 H 0.00757 0.24553 0.30804 0.0
H68 H 0.01891 0.26567 0.4361 0.0
H69 H 0.02437 0.28456 0.38202 0.0
H70 H 0.00077 0.25596 0.41577 0.0
H71 H 0.0421 0.29381 0.40291 0.0
H72 H 0.03846 0.29634 0.33928 0.0
H73 H 0.9901 0.30541 0.32822 0.0
H74 H 0.04196 0.21557 0.4239 0.0
H75 H 0.06712 0.2489 0.39561 0.0
H76 H 0.9574 0.2299 0.35673 0.0
H77 H 0.96741 0.27802 0.36689 0.0
H78 H 0.92918 0.23582 0.35874 0.0
H79 H 0.93901 0.28307 0.36878 0.0
H80 H 0.97317 0.20726 0.37562 0.0
H81 H 0.9918 0.22974 0.41647 0.0
H82 H 0.95505 0.1925 0.39257 0.0
H83 H 0.97323 0.2147 0.43268 0.0
H84 H 0.00066 0.17741 0.34689 0.0
H85 H 0.97071 0.20514 0.31721 0.0
H86 H 0.95664 0.28408 0.41957 0.0
H87 H 0.93204 0.24149 0.40845 0.0
Li88 Li 0.0035 0.76032 0.63542 0.0
Li89 Li 0.98686 0.75236 0.61296 0.0
Li90 Li 0.9971 0.73381 0.63201 0.0
Li91 Li 0.01489 0.74498 0.61423 0.0
C92 C 0.97478 0.76031 0.64581 0.0
N93 N 0.96045 0.78007 0.66679 0.0
C94 C 0.96563 0.77267 0.64044 0.0
C95 C 0.97654 0.7579 0.66183 0.0
C96 C 0.9585 0.78256 0.65124 0.0
C97 C 0.96923 0.76805 0.67225 0.0
C98 C 0.01627 0.77427 0.60498 0.0
C99 C 0.02852 0.78064 0.58049 0.0
N100 N 0.03949 0.78904 0.58826 0.0
C101 C 0.02767 0.78295 0.61273 0.0
C102 C 0.01668 0.7731 0.58872 0.0
C103 C 0.0393 0.79035 0.60406 0.0
C104 C 0.01674 0.77462 0.66196 0.0
N105 N 0.00718 0.77692 0.64955 0.0
C106 C 0.004 0.80375 0.65623 0.0
C107 C 0.00077 0.79109 0.64654 0.0
C108 C 0.01404 0.80179 0.66904 0.0
C109 C 0.02029 0.78694 0.67195 0.0
H110 H 0.02189 0.76332 0.66394 0.0
H111 H 0.99343 0.79262 0.6364 0.0
C112 C 0.95623 0.75075 0.60131 0.0
N113 N 0.97004 0.75842 0.60016 0.0
C114 C 0.94343 0.7556 0.5925 0.0
C115 C 0.95934 0.77614 0.58157 0.0
C116 C 0.97181 0.77089 0.59058 0.0
C117 C 0.94488 0.76853 0.58255 0.0
H118 H 0.95508 0.7411 0.60933 0.0
H119 H 0.98283 0.77695 0.59014 0.0
C120 C 0.02481 0.73213 0.64654 0.0
N121 N 0.03861 0.71075 0.66632 0.0
C122 C 0.03706 0.72278 0.64124 0.0
C123 C 0.01963 0.73066 0.66192 0.0
C124 C 0.04388 0.71204 0.65142 0.0
C125 C 0.02674 0.71976 0.67173 0.0
C126 C 0.99503 0.71628 0.60693 0.0
C127 C 0.00802 0.70646 0.60611 0.0
C128 C 0.98006 0.7099 0.60639 0.0
C129 C 0.00578 0.69038 0.60482 0.0
C130 C 0.97832 0.69376 0.60514 0.0
N131 N 0.99111 0.68442 0.60439 0.0
C132 C 0.97644 0.71495 0.64877 0.0
C133 C 0.00069 0.70264 0.6441 0.0
C134 C 0.97102 0.70184 0.6567 0.0
N135 N 0.99109 0.71519 0.64278 0.0
C136 C 0.99587 0.6894 0.65218 0.0
C137 C 0.98083 0.68885 0.65865 0.0
H138 H 0.96888 0.72491 0.64726 0.0
H139 H 0.01212 0.70285 0.63889 0.0
C140 C 0.04672 0.74788 0.60744 0.0
N141 N 0.03293 0.74251 0.60184 0.0
C142 C 0.0603 0.74613 0.5987 0.0
C143 C 0.04513 0.73362 0.57848 0.0
C144 C 0.03182 0.73573 0.58757 0.0
C145 C 0.05966 0.7387 0.58411 0.0
H146 H 0.04715 0.75343 0.61875 0.0
H147 H 0.02062 0.73177 0.58336 0.0
O148 O 0.98213 0.75069 0.63544 0.0
O149 O 0.00504 0.76658 0.61328 0.0
O150 O 0.01811 0.74282 0.63678 0.0
O151 O 0.99698 0.73203 0.60844 0.0
H152 H 0.96419 0.77473 0.62808 0.0
H153 H 0.98354 0.74834 0.66615 0.0
H154 H 0.95145 0.79224 0.64727 0.0
H155 H 0.97056 0.76639 0.68468 0.0
H156 H 0.02904 0.77974 0.56792 0.0
H157 H 0.02766 0.78384 0.62531 0.0
H158 H 0.0081 0.7662 0.58256 0.0
H159 H 0.04823 0.79706 0.60991 0.0
H160 H -0.00086 0.81506 0.65341 0.0
H161 H 0.02799 0.78489 0.68175 0.0
H162 H 0.93241 0.74959 0.59382 0.0
H163 H 0.96099 0.78609 0.57398 0.0
H164 H 0.04118 0.72368 0.62936 0.0
H165 H 0.01011 0.73772 0.6662 0.0
H166 H 0.05332 0.70468 0.64745 0.0
H167 H 0.02278 0.71844 0.68363 0.0
H168 H 0.01969 0.71116 0.60676 0.0
H169 H 0.9699 0.71732 0.60707 0.0
H170 H 0.01572 0.68264 0.60428 0.0
H171 H 0.9668 0.68865 0.60481 0.0
H172 H 0.95919 0.70186 0.66107 0.0
H173 H 0.00394 0.67978 0.65345 0.0
H174 H 0.07119 0.75049 0.60337 0.0
H175 H 0.0441 0.7277 0.56738 0.0
Li176 Li 0.50336 0.75941 0.86341 0.0
Li177 Li 0.51056 0.74161 0.88369 0.0
Li178 Li 0.4921 0.73388 0.86401 0.0
Li179 Li 0.48483 0.75246 0.88337 0.0
C180 C 0.5184 0.73645 0.84586 0.0
N181 N 0.52653 0.7307 0.81522 0.0
C182 C 0.53164 0.7276 0.84243 0.0
C183 C 0.50932 0.7424 0.83371 0.0
C184 C 0.53555 0.72482 0.82686 0.0
C185 C 0.51361 0.73936 0.8183 0.0
C186 C 0.51734 0.77306 0.88893 0.0
C187 C 0.52883 0.79571 0.90096 0.0
N188 N 0.54284 0.79188 0.89461 0.0
C189 C 0.53186 0.76934 0.88253 0.0
C190 C 0.5158 0.78635 0.89821 0.0
C191 C 0.54461 0.779 0.88554 0.0
C192 C 0.50125 0.78894 0.84962 0.0
N193 N 0.51061 0.77625 0.85105 0.0
C194 C 0.53077 0.78874 0.83654 0.0
C195 C 0.52511 0.7759 0.8447 0.0
C196 C 0.52152 0.80219 0.83511 0.0
C197 C 0.5065 0.80212 0.84166 0.0
H198 H 0.48984 0.78892 0.855 0.0
H199 H 0.53243 0.76576 0.84621 0.0
C200 C 0.53553 0.72218 0.89046 0.0
N201 N 0.52734 0.73447 0.89614 0.0
C202 C 0.54879 0.71691 0.89823 0.0
C203 C 0.54464 0.73674 0.91784 0.0
C204 C 0.53145 0.74165 0.90967 0.0
C205 C 0.55362 0.72436 0.91199 0.0
H206 H 0.53187 0.71664 0.87975 0.0
H207 H 0.52472 0.75142 0.91392 0.0
C208 C 0.46567 0.75155 0.85762 0.0
N209 N 0.43435 0.74685 0.8518 0.0
C210 C 0.4578 0.73916 0.8647 0.0
C211 C 0.45761 0.76154 0.84759 0.0
C212 C 0.44197 0.73698 0.8616 0.0
C213 C 0.44178 0.75897 0.84479 0.0
C214 C 0.48934 0.72637 0.90224 0.0
C215 C 0.48514 0.71122 0.90649 0.0
C216 C 0.49224 0.73747 0.91382 0.0
C217 C 0.48392 0.70741 0.92228 0.0
C218 C 0.49089 0.7332 0.92948 0.0
N219 N 0.4868 0.71839 0.93335 0.0
C220 C 0.48826 0.70229 0.85735 0.0
C221 C 0.47862 0.71903 0.83757 0.0
C222 C 0.48399 0.68919 0.84873 0.0
N223 N 0.4855 0.71681 0.85167 0.0
C224 C 0.47421 0.70626 0.82852 0.0
C225 C 0.47688 0.69108 0.83408 0.0
H226 H 0.49381 0.70093 0.8686 0.0
H227 H 0.47663 0.73071 0.83329 0.0
C228 C 0.4666 0.77636 0.89526 0.0
N229 N 0.46807 0.7606 0.89519 0.0
C230 C 0.45408 0.78338 0.90287 0.0
C231 C 0.44496 0.7578 0.91044 0.0
C232 C 0.45758 0.75126 0.90253 0.0
C233 C 0.44304 0.77405 0.91053 0.0
H234 H 0.47508 0.78345 0.88918 0.0
H235 H 0.45882 0.73874 0.90202 0.0
O236 O 0.51443 0.73915 0.86108 0.0
O237 O 0.50461 0.76389 0.88609 0.0
O238 O 0.48115 0.75406 0.8605 0.0
O239 O 0.49063 0.73016 0.88679 0.0
H240 H 0.53882 0.72293 0.85169 0.0
H241 H 0.49907 0.74933 0.8361 0.0
H242 H 0.54576 0.71797 0.82404 0.0
H243 H 0.50667 0.74389 0.80879 0.0
H244 H 0.5278 0.80604 0.90812 0.0
H245 H 0.5333 0.7591 0.87532 0.0
H246 H 0.50463 0.78939 0.90323 0.0
H247 H 0.5559 0.77626 0.88065 0.0
H248 H 0.54233 0.78816 0.83151 0.0
H249 H 0.49905 0.8123 0.84105 0.0
H250 H 0.55525 0.70716 0.89347 0.0
H251 H 0.54803 0.74287 0.92835 0.0
H252 H 0.4638 0.73129 0.8725 0.0
H253 H 0.46355 0.7712 0.84204 0.0
H254 H 0.43573 0.72745 0.86701 0.0
H255 H 0.4354 0.76662 0.83705 0.0
H256 H 0.48285 0.70249 0.89767 0.0
H257 H 0.49542 0.74927 0.9108 0.0
H258 H 0.48068 0.69573 0.92574 0.0
H259 H 0.4931 0.74168 0.93855 0.0
H260 H 0.48605 0.67772 0.85358 0.0
H261 H 0.46896 0.70827 0.81722 0.0
H262 H 0.45301 0.79597 0.90275 0.0
H263 H 0.43655 0.75023 0.91604 0.0
Li264 Li 0.49709 0.26232 0.12933 0.0
Li265 Li 0.47931 0.25144 0.11146 0.0
Li266 Li 0.48996 0.23628 0.13314 0.0
Li267 Li 0.50723 0.24312 0.11076 0.0
C268 C 0.46901 0.26603 0.14208 0.0
N269 N 0.45521 0.28996 0.15864 0.0
C270 C 0.4591 0.27655 0.13454 0.0
C271 C 0.47175 0.26757 0.15807 0.0
C272 C 0.45226 0.28859 0.14312 0.0
C273 C 0.46472 0.27978 0.16622 0.0
C274 C 0.50341 0.27841 0.1038 0.0
C275 C 0.52445 0.29694 0.10572 0.0
N276 N 0.5147 0.3084 0.10069 0.0
C277 C 0.49361 0.29035 0.09861 0.0
C278 C 0.51897 0.2817 0.10733 0.0
C279 C 0.49954 0.30544 0.09712 0.0
C280 C 0.5157 0.28056 0.14922 0.0
N281 N 0.50284 0.28111 0.13999 0.0
C282 C 0.49993 0.3084 0.14485 0.0
C283 C 0.49489 0.29465 0.13777 0.0
C284 C 0.51331 0.30821 0.15426 0.0
C285 C 0.52113 0.294 0.15655 0.0
H286 H 0.52197 0.26975 0.15067 0.0
H287 H 0.48489 0.29492 0.13014 0.0
C288 C 0.44783 0.24786 0.10479 0.0
N289 N 0.46137 0.25357 0.09894 0.0
C290 C 0.43404 0.24929 0.09633 0.0
C291 C 0.44848 0.26224 0.07586 0.0
C292 C 0.46204 0.26044 0.08469 0.0
C293 C 0.43419 0.25679 0.08176 0.0
H294 H 0.44776 0.2423 0.11611 0.0
H295 H 0.47306 0.26468 0.08029 0.0
C296 C 0.51797 0.23649 0.14533 0.0
N297 N 0.53017 0.2188 0.16935 0.0
C298 C 0.52949 0.22539 0.14229 0.0
C299 C 0.51284 0.23878 0.16063 0.0
C300 C 0.53547 0.21652 0.15458 0.0
C301 C 0.51909 0.22967 0.1726 0.0
C302 C 0.47955 0.22211 0.10078 0.0
C303 C 0.46698 0.21315 0.10593 0.0
C304 C 0.48258 0.22343 0.08483 0.0
C305 C 0.45753 0.20569 0.09496 0.0
C306 C 0.47284 0.21581 0.07424 0.0
N307 N 0.46062 0.20718 0.07948 0.0
C308 C 0.47308 0.22131 0.15693 0.0
C309 C 0.49266 0.20591 0.14493 0.0
C310 C 0.46804 0.20856 0.16567 0.0
N311 N 0.48505 0.21968 0.14671 0.0
C312 C 0.48811 0.19289 0.15355 0.0
C313 C 0.47544 0.19407 0.16382 0.0
H314 H 0.4671 0.23236 0.1579 0.0
H315 H 0.50193 0.20492 0.13644 0.0
C316 C 0.53136 0.24464 0.08794 0.0
N317 N 0.52325 0.23536 0.09789 0.0
C318 C 0.54349 0.23841 0.07904 0.0
C319 C 0.53827 0.21317 0.0905 0.0
C320 C 0.52623 0.21986 0.09908 0.0
C321 C 0.54721 0.22252 0.08047 0.0
H322 H 0.52852 0.25687 0.087 0.0
H323 H 0.51935 0.21276 0.1069 0.0
O324 O 0.47579 0.25414 0.13389 0.0
O325 O 0.49776 0.26362 0.10555 0.0
O326 O 0.51179 0.24515 0.13343 0.0
O327 O 0.48867 0.22984 0.11129 0.0
H328 H 0.45688 0.2756 0.12217 0.0
H329 H 0.47925 0.25945 0.16412 0.0
H330 H 0.44465 0.29688 0.13742 0.0
H331 H 0.46681 0.28117 0.17858 0.0
H332 H 0.53643 0.29968 0.10854 0.0
H333 H 0.4815 0.28803 0.09595 0.0
H334 H 0.52666 0.27261 0.11153 0.0
H335 H 0.49208 0.31482 0.09319 0.0
H336 H 0.49369 0.31914 0.14256 0.0
H337 H 0.5314 0.29329 0.16385 0.0
H338 H 0.42337 0.24464 0.1012 0.0
H339 H 0.44912 0.26821 0.06476 0.0
H340 H 0.5338 0.22364 0.13059 0.0
H341 H 0.50404 0.24741 0.1632 0.0
H342 H 0.54434 0.20783 0.15238 0.0
H343 H 0.51512 0.23123 0.18446 0.0
H344 H 0.46448 0.21208 0.11826 0.0
H345 H 0.49224 0.23041 0.08069 0.0
H346 H 0.4477 0.19877 0.09876 0.0
H347 H 0.47498 0.21678 0.06184 0.0
H348 H 0.45825 0.20992 0.17352 0.0
H349 H 0.49395 0.18186 0.15163 0.0
H350 H 0.55013 0.246 0.07146 0.0
H351 H 0.54061 0.20082 0.09172 0.0
Li352 Li 0.00522 0.73282 0.13491 0.0
Li353 Li 0.01521 0.74916 0.11474 0.0
Li354 Li 0.99727 0.75987 0.13327 0.0
Li355 Li 0.98833 0.74105 0.11292 0.0
C356 C 0.03311 0.74749 0.14191 0.0
N357 N 0.06285 0.73876 0.15069 0.0
C358 C 0.04055 0.73507 0.13444 0.0
C359 C 0.0408 0.75548 0.15384 0.0
C360 C 0.05558 0.73083 0.13904 0.0
C361 C 0.05583 0.75089 0.15812 0.0
C362 C 0.01144 0.71843 0.10048 0.0
C363 C 0.01042 0.71144 0.07325 0.0
N364 N 0.02031 0.69937 0.07606 0.0
C365 C 0.02152 0.70589 0.10311 0.0
C366 C 0.00578 0.72119 0.08544 0.0
C367 C 0.0259 0.69643 0.09061 0.0
C368 C 0.0046 0.70154 0.14291 0.0
N369 N 0.00903 0.71575 0.14828 0.0
C370 C 0.01913 0.70444 0.17163 0.0
C371 C 0.01599 0.71749 0.16241 0.0
C372 C 0.01508 0.68954 0.16618 0.0
C373 C 0.00756 0.6882 0.15169 0.0
H374 H -0.00109 0.70058 0.13169 0.0
H375 H 0.01928 0.72896 0.16645 0.0
C376 C 0.04061 0.76812 0.10787 0.0
N377 N 0.03338 0.75487 0.10304 0.0
C378 C 0.05341 0.77394 0.09973 0.0
C379 C 0.0516 0.752 0.08217 0.0
C380 C 0.03872 0.74671 0.09054 0.0
C381 C 0.05899 0.76587 0.08664 0.0
H382 H 0.03624 0.77432 0.11794 0.0
H383 H 0.033 0.7362 0.08686 0.0
C384 C 0.9779 0.73972 0.1506 0.0
N385 N 0.9664 0.73668 0.18052 0.0
C386 C 0.96333 0.73291 0.15309 0.0
C387 C 0.98664 0.74498 0.16331 0.0
C388 C 0.95771 0.73148 0.16831 0.0
C389 C 0.98061 0.74333 0.17835 0.0
C390 C 0.00215 0.77295 0.09998 0.0
C391 C 0.00738 0.78749 0.10512 0.0
C392 C 0.00299 0.7692 0.08415 0.0
C393 C 0.01365 0.79796 0.09433 0.0
C394 C 0.00936 0.77997 0.07374 0.0
N395 N 0.01453 0.794 0.079 0.0
C396 C 0.00147 0.78747 0.15085 0.0
C397 C 0.97532 0.78057 0.14513 0.0
C398 C 0.99653 0.80111 0.15824 0.0
N399 N 0.99085 0.77767 0.14438 0.0
C400 C 0.96986 0.79398 0.15247 0.0
C401 C 0.98053 0.8046 0.15896 0.0
H402 H 0.01377 0.78486 0.14993 0.0
H403 H 0.96719 0.7725 0.13985 0.0
C404 C 0.96855 0.72037 0.09675 0.0
N405 N 0.97132 0.73558 0.1002 0.0
C406 C 0.9559 0.71633 0.08736 0.0
C407 C 0.94893 0.74362 0.08578 0.0
C408 C 0.96188 0.74717 0.09495 0.0
C409 C 0.94588 0.72804 0.08186 0.0
H410 H 0.97617 0.71141 0.10129 0.0
H411 H 0.96437 0.75914 0.09801 0.0
O412 O 0.01836 0.75186 0.13769 0.0
O413 O 0.00685 0.72765 0.11266 0.0
O414 O 0.98357 0.74112 0.13576 0.0
O415 O 0.99635 0.76239 0.11043 0.0
H416 H 0.03482 0.72879 0.12517 0.0
H417 H 0.03519 0.76511 0.15976 0.0
H418 H 0.06146 0.72124 0.13335 0.0
H419 H 0.06192 0.75696 0.16734 0.0
H420 H 0.00616 0.71348 0.06155 0.0
H421 H 0.02591 0.70348 0.11469 0.0
H422 H 0.99797 0.7308 0.08316 0.0
H423 H 0.03373 0.68671 0.09247 0.0
H424 H 0.02504 0.70596 0.18269 0.0
H425 H 0.00404 0.67695 0.14718 0.0
H426 H 0.05892 0.7846 0.10365 0.0
H427 H 0.05552 0.74549 0.07208 0.0
H428 H 0.95645 0.72877 0.14335 0.0
H429 H 0.99796 0.75025 0.16162 0.0
H430 H 0.94644 0.72623 0.17041 0.0
H431 H 0.98725 0.74734 0.1883 0.0
H432 H 0.00679 0.79059 0.11732 0.0
H433 H -0.00113 0.75806 0.07996 0.0
H434 H 0.01787 0.80921 0.09816 0.0
H435 H 0.0102 0.77718 0.06147 0.0
H436 H 0.00516 0.80904 0.16293 0.0
H437 H 0.95742 0.79605 0.15299 0.0
H438 H 0.95375 0.70417 0.08472 0.0
H439 H 0.94142 0.75294 0.08171 0.0
Li440 Li 0.49591 0.76134 0.36911 0.0
Li441 Li 0.51351 0.75203 0.38934 0.0
Li442 Li 0.50381 0.73458 0.36902 0.0
Li443 Li 0.48688 0.74394 0.38976 0.0
C444 C 0.5239 0.76321 0.35657 0.0
N445 N 0.53627 0.78501 0.33636 0.0
C446 C 0.53395 0.77475 0.36215 0.0
C447 C 0.52024 0.76267 0.34069 0.0
C448 C 0.54007 0.78568 0.35174 0.0
C449 C 0.52658 0.77383 0.33067 0.0
C450 C 0.48415 0.77191 0.40126 0.0
C451 C 0.47222 0.77468 0.42658 0.0
N452 N 0.46099 0.78387 0.42018 0.0
C453 C 0.4725 0.78139 0.39494 0.0
C454 C 0.48405 0.76855 0.41722 0.0
C455 C 0.46089 0.78733 0.4047 0.0
C456 C 0.47946 0.77817 0.34584 0.0
N457 N 0.49073 0.77901 0.35693 0.0
C458 C 0.49426 0.80618 0.35214 0.0
C459 C 0.49809 0.79263 0.36024 0.0
C460 C 0.48248 0.8058 0.34075 0.0
C461 C 0.47512 0.7915 0.33757 0.0
H462 H 0.47358 0.76724 0.34369 0.0
H463 H 0.50681 0.79298 0.36934 0.0
C464 C 0.54523 0.75135 0.39825 0.0
N465 N 0.53102 0.75752 0.4016 0.0
C466 C 0.55824 0.75554 0.40707 0.0
C467 C 0.54172 0.7724 0.4225 0.0
C468 C 0.52905 0.76786 0.41341 0.0
C469 C 0.55658 0.7663 0.41931 0.0
H470 H 0.54644 0.74329 0.38863 0.0
H471 H 0.51767 0.77272 0.41568 0.0
C472 C 0.47537 0.73276 0.35728 0.0
N473 N 0.46213 0.71117 0.3374 0.0
C474 C 0.46514 0.72149 0.36309 0.0
C475 C 0.47877 0.73313 0.34135 0.0
C476 C 0.45858 0.71066 0.35285 0.0
C477 C 0.472 0.72208 0.3315 0.0
C478 C 0.51659 0.72406 0.40083 0.0
C479 C 0.52782 0.71424 0.39426 0.0
C480 C 0.51738 0.72769 0.41671 0.0
C481 C 0.53969 0.70827 0.40368 0.0
C482 C 0.52945 0.7215 0.42573 0.0
N483 N 0.54026 0.712 0.41908 0.0
C484 C 0.52042 0.71775 0.34604 0.0
C485 C 0.50118 0.70337 0.35969 0.0
C486 C 0.52492 0.70444 0.33784 0.0
N487 N 0.50878 0.71694 0.35674 0.0
C488 C 0.50514 0.68984 0.35161 0.0
C489 C 0.51734 0.69018 0.34067 0.0
H490 H 0.5265 0.72862 0.3442 0.0
H491 H 0.49222 0.70302 0.36853 0.0
C492 C 0.45548 0.7445 0.3996 0.0
N493 N 0.46983 0.73855 0.40268 0.0
C494 C 0.44282 0.74057 0.40903 0.0
C495 C 0.46 0.72443 0.42452 0.0
C496 C 0.47229 0.72867 0.4148 0.0
C497 C 0.445 0.73034 0.42164 0.0
H498 H 0.45387 0.75221 0.38975 0.0
H499 H 0.48379 0.72399 0.41687 0.0
O500 O 0.51759 0.75255 0.3666 0.0
O501 O 0.49544 0.76572 0.39185 0.0
O502 O 0.48204 0.74336 0.36715 0.0
O503 O 0.50503 0.73025 0.39175 0.0
H504 H 0.53686 0.77538 0.3744 0.0
H505 H 0.51248 0.75382 0.33619 0.0
H506 H 0.54779 0.79473 0.35591 0.0
H507 H 0.52377 0.77362 0.31838 0.0
H508 H 0.47193 0.77208 0.43891 0.0
H509 H 0.47231 0.78404 0.38262 0.0
H510 H 0.49284 0.76105 0.42227 0.0
H511 H 0.45178 0.79464 0.39996 0.0
H512 H 0.50039 0.81686 0.35488 0.0
H513 H 0.46577 0.79068 0.32913 0.0
H514 H 0.56953 0.75075 0.40409 0.0
H515 H 0.53991 0.78062 0.43191 0.0
H516 H 0.46242 0.721 0.37539 0.0
H517 H 0.48667 0.74176 0.33667 0.0
H518 H 0.45071 0.70183 0.35719 0.0
H519 H 0.4746 0.72216 0.31916 0.0
H520 H 0.52747 0.71136 0.382 0.0
H521 H 0.50892 0.73544 0.42196 0.0
H522 H 0.54848 0.7007 0.39874 0.0
H523 H 0.53026 0.72432 0.438 0.0
H524 H 0.53459 0.70523 0.32978 0.0
H525 H 0.49882 0.67921 0.35407 0.0
H526 H 0.43141 0.7452 0.40626 0.0
H527 H 0.46223 0.71663 0.4342 0.0
Li528 Li 0.50751 0.23222 0.63743 0.0
Li529 Li 0.51749 0.24708 0.61506 0.0
Li530 Li 0.49735 0.25815 0.63296 0.0
Li531 Li 0.4903 0.23806 0.61424 0.0
C532 C 0.5308 0.25138 0.64847 0.0
N533 N 0.55426 0.24933 0.67045 0.0
C534 C 0.54624 0.24918 0.64378 0.0
C535 C 0.52731 0.25272 0.66433 0.0
C536 C 0.55793 0.24814 0.65507 0.0
C537 C 0.53933 0.25159 0.67527 0.0
C538 C 0.51758 0.21486 0.60641 0.0
C539 C 0.52311 0.20322 0.5814 0.0
N540 N 0.53378 0.19372 0.58827 0.0
C541 C 0.52851 0.20488 0.61324 0.0
C542 C 0.51476 0.21395 0.59038 0.0
C543 C 0.53662 0.19431 0.60386 0.0
C544 C 0.49966 0.20874 0.65863 0.0
N545 N 0.51197 0.21678 0.65273 0.0
C546 C 0.52975 0.20185 0.66812 0.0
C547 C 0.52683 0.21348 0.65714 0.0
C548 C 0.51727 0.19332 0.67433 0.0
C549 C 0.50206 0.19685 0.66948 0.0
H550 H 0.48798 0.21141 0.65474 0.0
H551 H 0.53648 0.21957 0.65188 0.0
C552 C 0.53666 0.26785 0.59943 0.0
N553 N 0.53519 0.25246 0.60284 0.0
C554 C 0.54933 0.27317 0.59074 0.0
C555 C 0.55874 0.24666 0.58916 0.0
C556 C 0.54596 0.24189 0.598 0.0
C557 C 0.5606 0.26251 0.58546 0.0
H558 H 0.52802 0.27603 0.6036 0.0
H559 H 0.54482 0.22979 0.60111 0.0
C560 C 0.4744 0.24304 0.64754 0.0
N561 N 0.45244 0.25238 0.66915 0.0
C562 C 0.45894 0.2454 0.64298 0.0
C563 C 0.47865 0.2452 0.66311 0.0
C564 C 0.44802 0.25018 0.65408 0.0
C565 C 0.46739 0.24999 0.67386 0.0
C566 C 0.49428 0.26396 0.59526 0.0
C567 C 0.48327 0.27579 0.59322 0.0
C568 C 0.50119 0.25706 0.58222 0.0
C569 C 0.47915 0.28035 0.57813 0.0
C570 C 0.49678 0.26196 0.56733 0.0
N571 N 0.48593 0.27339 0.56561 0.0
C572 C 0.49859 0.28461 0.65277 0.0
C573 C 0.47511 0.28123 0.6386 0.0
C574 C 0.4927 0.29803 0.65985 0.0
N575 N 0.48971 0.2765 0.64246 0.0
C576 C 0.46872 0.29449 0.64546 0.0
C577 C 0.47754 0.30311 0.65624 0.0
H578 H 0.51027 0.28072 0.65542 0.0
H579 H 0.46839 0.27461 0.63024 0.0
C580 C 0.47397 0.21539 0.59697 0.0
N581 N 0.47393 0.23054 0.60156 0.0
C582 C 0.46161 0.20947 0.58821 0.0
C583 C 0.44931 0.23481 0.58931 0.0
C584 C 0.46195 0.24025 0.59795 0.0
C585 C 0.44898 0.21919 0.58439 0.0
H586 H 0.48347 0.20783 0.60032 0.0
H587 H 0.46202 0.25213 0.60217 0.0
O588 O 0.51921 0.25246 0.63756 0.0
O589 O 0.50952 0.22524 0.61544 0.0
O590 O 0.48533 0.23863 0.6368 0.0
O591 O 0.49836 0.25929 0.60996 0.0
H592 H 0.54918 0.24819 0.63156 0.0
H593 H 0.51546 0.25458 0.66817 0.0
H594 H 0.56993 0.24636 0.65161 0.0
H595 H 0.53679 0.25253 0.68758 0.0
H596 H 0.52106 0.20243 0.56898 0.0
H597 H 0.5308 0.20535 0.62561 0.0
H598 H 0.50613 0.22133 0.58492 0.0
H599 H 0.54517 0.18658 0.60899 0.0
H600 H 0.54167 0.19921 0.67133 0.0
H601 H 0.49215 0.19045 0.67399 0.0
H602 H 0.55041 0.28553 0.58846 0.0
H603 H 0.56705 0.238 0.58526 0.0
H604 H 0.45544 0.24369 0.631 0.0
H605 H 0.49052 0.24321 0.66685 0.0
H606 H 0.43603 0.25217 0.6507 0.0
H607 H 0.47054 0.25179 0.68594 0.0
H608 H 0.47789 0.28134 0.60319 0.0
H609 H 0.50992 0.2481 0.58358 0.0
H610 H 0.47058 0.28943 0.57639 0.0
H611 H 0.50202 0.25669 0.55714 0.0
H612 H 0.50002 0.30445 0.66788 0.0
H613 H 0.45692 0.29783 0.64247 0.0
H614 H 0.46192 0.19739 0.58458 0.0
H615 H 0.43968 0.24263 0.58694 0.0
Li616 Li 0.99199 0.26144 0.86185 0.0
Li617 Li 0.00994 0.25416 0.88194 0.0
Li618 Li 0.00193 0.23533 0.86269 0.0
Li619 Li 0.98408 0.24387 0.88228 0.0
C620 C 0.02359 0.26684 0.85568 0.0
N621 N 0.04337 0.2913 0.84881 0.0
C622 C 0.02037 0.2818 0.86126 0.0
C623 C 0.03687 0.26432 0.8466 0.0
C624 C 0.0305 0.29401 0.85766 0.0
C625 C 0.04673 0.27683 0.84325 0.0
C626 C 0.98819 0.27051 0.89955 0.0
C627 C 0.99116 0.26591 0.92714 0.0
N628 N 0.98383 0.27965 0.93013 0.0
C629 C 0.9807 0.28458 0.9029 0.0
C630 C 0.99348 0.26109 0.91176 0.0
C631 C 0.9786 0.289 0.91844 0.0
C632 C 0.97309 0.28669 0.85478 0.0
N633 N 0.98497 0.27796 0.84901 0.0
C634 C 0.98666 0.29413 0.82641 0.0
C635 C 0.99169 0.28128 0.83505 0.0
C636 C 0.97467 0.30361 0.83228 0.0
C637 C 0.96774 0.29965 0.84658 0.0
H638 H 0.96792 0.28365 0.86586 0.0
H639 H 0.00115 0.27415 0.83076 0.0
C640 C 0.03926 0.25147 0.89643 0.0
N641 N 0.02712 0.26132 0.89385 0.0
C642 C 0.05256 0.25675 0.90421 0.0
C643 C 0.04043 0.28207 0.90671 0.0
C644 C 0.02742 0.27633 0.89888 0.0
C645 C 0.05331 0.2723 0.90929 0.0
H646 H 0.03872 0.23963 0.89213 0.0
H647 H 0.01768 0.28397 0.89657 0.0
C648 C 0.97534 0.24025 0.84445 0.0
N649 N 0.96602 0.23712 0.81377 0.0
C650 C 0.95987 0.23663 0.84092 0.0
C651 C 0.98609 0.24229 0.83236 0.0
C652 C 0.95538 0.23509 0.82534 0.0
C653 C 0.98114 0.24066 0.81693 0.0
C654 C 0.00086 0.21689 0.88892 0.0
C655 C 0.98809 0.20933 0.88218 0.0
C656 C 0.01067 0.20869 0.89901 0.0
C657 C 0.98535 0.19367 0.88568 0.0
C658 C 0.00754 0.19304 0.90222 0.0
N659 N 0.99505 0.18591 0.89554 0.0
C660 C 0.02485 0.21608 0.85053 0.0
C661 C -0.00071 0.2078 0.84402 0.0
C662 C 0.03126 0.20334 0.84273 0.0
N663 N 0.00916 0.21804 0.85103 0.0
C664 C 0.0052 0.19499 0.83592 0.0
C665 C 0.02138 0.19261 0.83532 0.0
H666 H 0.03237 0.22436 0.85635 0.0
H667 H 0.98683 0.20944 0.84487 0.0
C668 C 0.95282 0.24401 0.89012 0.0
N669 N 0.96687 0.23867 0.89505 0.0
C670 C 0.93944 0.24107 0.89884 0.0
C671 C 0.95528 0.22723 0.91762 0.0
C672 C 0.96839 0.23055 0.90858 0.0
C673 C 0.94053 0.23248 0.91275 0.0
H674 H 0.95206 0.25065 0.87942 0.0
H675 H 0.97975 0.22665 0.91237 0.0
O676 O 0.01395 0.25461 0.85912 0.0
O677 O 0.99021 0.26606 0.88436 0.0
O678 O 0.9798 0.24187 0.85968 0.0
O679 O 0.00394 0.23219 0.88562 0.0
H680 H 0.01015 0.284 0.86831 0.0
H681 H 0.03954 0.25279 0.84221 0.0
H682 H 0.02815 0.30565 0.86192 0.0
H683 H 0.05705 0.27505 0.83624 0.0
H684 H 0.99519 0.25873 0.93669 0.0
H685 H 0.97655 0.29202 0.89358 0.0
H686 H -0.00066 0.25019 0.90944 0.0
H687 H 0.97282 0.29986 0.9212 0.0
H688 H 0.99238 0.29687 0.8155 0.0
H689 H 0.9583 0.30651 0.85139 0.0
H690 H 0.0623 0.24888 0.90582 0.0
H691 H 0.04042 0.29407 0.91063 0.0
H692 H 0.95141 0.23503 0.85015 0.0
H693 H 0.99812 0.24505 0.83483 0.0
H694 H 0.94343 0.23228 0.82244 0.0
H695 H 0.98933 0.2422 0.80747 0.0
H696 H 0.98033 0.21546 0.87436 0.0
H697 H 0.02062 0.21438 0.90429 0.0
H698 H 0.97551 0.18768 0.88055 0.0
H699 H 0.01504 0.18655 0.91001 0.0
H700 H 0.0438 0.2019 0.84246 0.0
H701 H 0.99723 0.18683 0.83051 0.0
H702 H 0.92838 0.24562 0.89478 0.0
H703 H 0.95667 0.22045 0.92817 0.0
Li704 Li 0.38179 0.00975 0.24349 0.0
Li705 Li 0.36226 0.00087 0.26231 0.0
Li706 Li 0.3829 0.9826 0.25291 0.0
Li707 Li 0.361 0.99037 0.23653 0.0
C708 C 0.39858 0.00533 0.27302 0.0
N709 N 0.42575 0.01145 0.28923 0.0
C710 C 0.39813 0.01399 0.28681 0.0
C711 C 0.41284 -0.00038 0.26759 0.0
C712 C 0.412 0.01702 0.29481 0.0
C713 C 0.42644 0.00287 0.27592 0.0
C714 C 0.34878 0.02399 0.24722 0.0
C715 C 0.32319 0.03233 0.25531 0.0
N716 N 0.32876 0.047 0.25755 0.0
C717 C 0.35424 0.03917 0.2495 0.0
C718 C 0.33311 0.02055 0.25004 0.0
C719 C 0.34393 0.05064 0.25475 0.0
C720 C 0.39177 0.03069 0.2209 0.0
N721 N 0.39328 0.02712 0.23626 0.0
C722 C 0.41004 0.04897 0.24029 0.0
C723 C 0.40215 0.03594 0.24599 0.0
C724 C 0.40855 0.05304 0.22451 0.0
C725 C 0.39932 0.0437 0.21474 0.0
H726 H 0.38455 0.02347 0.21349 0.0
H727 H 0.40292 0.03307 0.25821 0.0
C728 C 0.33982 0.99804 0.28644 0.0
N729 N 0.35077 0.00746 0.27997 0.0
C730 C 0.33151 0.00296 0.29954 0.0
C731 C 0.34593 0.02717 0.29897 0.0
C732 C 0.35394 0.02178 0.28592 0.0
C733 C 0.33461 0.01768 0.30602 0.0
H734 H 0.33765 0.98664 0.28155 0.0
H735 H 0.36272 0.02901 0.28051 0.0
C736 C 0.39575 0.98637 0.22164 0.0
N737 N 0.42045 0.97871 0.2024 0.0
C738 C 0.3938 0.97542 0.20973 0.0
C739 C 0.41023 0.99361 0.22358 0.0
C740 C 0.40644 0.97165 0.20018 0.0
C741 C 0.42257 0.98953 0.21378 0.0
C742 C 0.35053 0.9666 0.25341 0.0
C743 C 0.35644 0.95158 0.25121 0.0
C744 C 0.33451 0.96925 0.25213 0.0
C745 C 0.3462 0.93945 0.24757 0.0
C746 C 0.32466 0.95682 0.24843 0.0
N747 N 0.33066 0.94231 0.24624 0.0
C748 C 0.39615 0.96315 0.27486 0.0
C749 C 0.40465 0.95733 0.24922 0.0
C750 C 0.40512 0.95102 0.2809 0.0
N751 N 0.39608 0.96605 0.2593 0.0
C752 C 0.41386 0.94511 0.25477 0.0
C753 C 0.41413 0.94178 0.27081 0.0
H754 H 0.38909 0.97021 0.28256 0.0
H755 H 0.40428 0.95972 0.23689 0.0
C756 C 0.33627 0.9928 0.21475 0.0
N757 N 0.34762 0.98331 0.22043 0.0
C758 C 0.32626 0.9875 0.20305 0.0
C759 C 0.33989 0.96281 0.20329 0.0
C760 C 0.34964 0.96861 0.2149 0.0
C761 C 0.328 0.9723 0.19722 0.0
H762 H 0.33499 0.00448 0.2193 0.0
H763 H 0.35882 0.96136 0.21957 0.0
O764 O 0.38507 0.00227 0.26508 0.0
O765 O 0.35875 0.01256 0.24233 0.0
O766 O 0.38344 0.99025 0.23103 0.0
O767 O 0.3604 0.97865 0.25678 0.0
H768 H 0.38721 0.01837 0.29131 0.0
H769 H 0.41341 0.99258 0.25719 0.0
H770 H 0.41182 0.02377 0.30546 0.0
H771 H 0.43755 0.99851 0.27183 0.0
H772 H 0.31106 0.0298 0.25765 0.0
H773 H 0.36632 0.04204 0.24737 0.0
H774 H 0.32871 0.00886 0.24833 0.0
H775 H 0.34801 0.06241 0.25665 0.0
H776 H 0.41687 0.05602 0.24823 0.0
H777 H 0.39798 0.04642 0.20248 0.0
H778 H 0.32301 0.99521 0.30474 0.0
H779 H 0.34854 0.03868 0.30346 0.0
H780 H 0.38267 0.96983 0.20789 0.0
H781 H 0.41192 0.00239 0.23243 0.0
H782 H 0.4051 0.96312 0.19098 0.0
H783 H 0.43383 0.99502 0.2152 0.0
H784 H 0.36881 0.94932 0.25218 0.0
H785 H 0.32975 0.98081 0.25377 0.0
H786 H 0.35061 0.92778 0.24575 0.0
H787 H 0.31225 0.95873 0.24727 0.0
H788 H 0.40473 0.94872 0.29331 0.0
H789 H 0.42071 0.93837 0.24658 0.0
H790 H 0.3172 0.99515 0.19872 0.0
H791 H 0.3418 0.95112 0.19894 0.0
Li792 Li 0.23489 0.1334 0.49553 0.0
Li793 Li 0.24201 0.11322 0.51299 0.0
Li794 Li 0.26203 0.13107 0.50509 0.0
Li795 Li 0.25072 0.11195 0.48707 0.0
C796 C 0.24342 0.151 0.52195 0.0
N797 N 0.24447 0.18181 0.53127 0.0
C798 C 0.23927 0.1551 0.53715 0.0
C799 C 0.24816 0.16257 0.51148 0.0
C800 C 0.23985 0.17074 0.54164 0.0
C801 C 0.2486 0.17808 0.51642 0.0
C802 C 0.21355 0.10983 0.49802 0.0
C803 C 0.18789 0.09941 0.49322 0.0
N804 N 0.18239 0.10736 0.50578 0.0
C805 C 0.20764 0.11791 0.51089 0.0
C806 C 0.2036 0.10052 0.4891 0.0
C807 C 0.19186 0.11651 0.51462 0.0
C808 C 0.2138 0.14559 0.47412 0.0
N809 N 0.21853 0.14697 0.48917 0.0
C810 C 0.19873 0.16591 0.49419 0.0
C811 C 0.21115 0.15672 0.49926 0.0
C812 C 0.19367 0.16485 0.47864 0.0
C813 C 0.20138 0.1545 0.46856 0.0
H814 H 0.21945 0.13726 0.46655 0.0
H815 H 0.21462 0.15719 0.51134 0.0
C816 C 0.24011 0.10613 0.54475 0.0
N817 N 0.23558 0.10121 0.5304 0.0
C818 C 0.23622 0.09749 0.55796 0.0
C819 C 0.22307 0.0789 0.54133 0.0
C820 C 0.22723 0.08789 0.52844 0.0
C821 C 0.22757 0.08367 0.55634 0.0
H822 H 0.24693 0.11667 0.54589 0.0
H823 H 0.22395 0.08417 0.51685 0.0
C824 C 0.26254 0.13426 0.46973 0.0
N825 N 0.27855 0.13188 0.44187 0.0
C826 C 0.27769 0.12824 0.46947 0.0
C827 C 0.2556 0.1392 0.45584 0.0
C828 C 0.28557 0.12709 0.45526 0.0
C829 C 0.26387 0.13788 0.44188 0.0
C830 C 0.26613 0.09472 0.51374 0.0
C831 C 0.27524 0.09487 0.52724 0.0
C832 C 0.25932 0.08077 0.50877 0.0
C833 C 0.27729 0.08106 0.53564 0.0
C834 C 0.26166 0.06721 0.51747 0.0
N835 N 0.27051 0.06764 0.53063 0.0
C836 C 0.28457 0.1402 0.52659 0.0
C837 C 0.28797 0.1514 0.50155 0.0
C838 C 0.2981 0.14741 0.53197 0.0
N839 N 0.28001 0.14204 0.51154 0.0
C840 C 0.30161 0.1588 0.50642 0.0
C841 C 0.30697 0.15664 0.52176 0.0
H842 H 0.27768 0.13309 0.53438 0.0
H843 H 0.28382 0.15305 0.48978 0.0
C844 C 0.24651 0.09905 0.45693 0.0
N845 N 0.25569 0.09906 0.46984 0.0
C846 C 0.25115 0.09089 0.44361 0.0
C847 C 0.27429 0.08256 0.45742 0.0
C848 C 0.26926 0.09092 0.47038 0.0
C849 C 0.26536 0.08271 0.44369 0.0
H850 H 0.23587 0.10582 0.45682 0.0
H851 H 0.27644 0.09133 0.48073 0.0
O852 O 0.24303 0.13567 0.51754 0.0
O853 O 0.22893 0.11105 0.49396 0.0
O854 O 0.25447 0.13498 0.48347 0.0
O855 O 0.26362 0.10819 0.50557 0.0
H856 H 0.23562 0.14627 0.5454 0.0
H857 H 0.25143 0.15968 0.49967 0.0
H858 H 0.23665 0.17408 0.55337 0.0
H859 H 0.25222 0.18715 0.50845 0.0
H860 H 0.18006 0.09224 0.48641 0.0
H861 H 0.21509 0.12519 0.51795 0.0
H862 H 0.208 0.09422 0.47908 0.0
H863 H 0.18713 0.12269 0.52454 0.0
H864 H 0.19314 0.17372 0.50237 0.0
H865 H 0.19762 0.15297 0.45661 0.0
H866 H 0.24013 0.10147 0.56929 0.0
H867 H 0.21625 0.06843 0.53956 0.0
H868 H 0.28318 0.1242 0.48009 0.0
H869 H 0.24395 0.144 0.45582 0.0
H870 H 0.29723 0.12231 0.45488 0.0
H871 H 0.25861 0.1416 0.43103 0.0
H872 H 0.28062 0.10553 0.53125 0.0
H873 H 0.25207 0.08049 0.49844 0.0
H874 H 0.28426 0.08102 0.54616 0.0
H875 H 0.25637 0.05637 0.51382 0.0
H876 H 0.30157 0.14576 0.544 0.0
H877 H 0.30808 0.1658 0.49815 0.0
H878 H 0.244 0.09145 0.43322 0.0
H879 H 0.2852 0.07624 0.45808 0.0
Li880 Li 0.13274 -0.00123 0.73453 0.0
Li881 Li 0.11267 0.00944 0.7517 0.0
Li882 Li 0.13296 0.99216 0.76159 0.0
Li883 Li 0.11209 0.98239 0.74492 0.0
C884 C 0.14533 0.02011 0.76237 0.0
N885 N 0.16519 0.03316 0.78412 0.0
C886 C 0.13964 0.03076 0.7733 0.0
C887 C 0.16114 0.01617 0.76243 0.0
C888 C 0.14986 0.03723 0.78421 0.0
C889 C 0.17098 0.02286 0.77355 0.0
C890 C 0.10061 0.01089 0.72362 0.0
C891 C 0.07557 0.02341 0.72091 0.0
N892 N 0.08176 0.03332 0.71019 0.0
C893 C 0.10672 0.02118 0.71256 0.0
C894 C 0.0849 0.01197 0.7278 0.0
C895 C 0.097 0.03244 0.70591 0.0
C896 C 0.14144 0.99571 0.70303 0.0
N897 N 0.14509 0.00285 0.71669 0.0
C898 C 0.16596 0.01666 0.70458 0.0
C899 C 0.15706 0.01315 0.71771 0.0
C900 C 0.16242 0.00955 0.69025 0.0
C901 C 0.15004 -0.00114 0.6896 0.0
H902 H 0.13171 0.98771 0.70255 0.0
H903 H 0.15951 0.01888 0.72865 0.0
C904 C 0.09125 0.02655 0.76948 0.0
N905 N 0.10084 0.02734 0.75691 0.0
C906 C 0.08347 0.03983 0.77467 0.0
C907 C 0.09528 0.05443 0.75363 0.0
C908 C 0.10301 0.04089 0.74898 0.0
C909 C 0.08557 0.05401 0.76679 0.0
H910 H 0.09 0.0157 0.77576 0.0
H911 H 0.11107 0.04127 0.7393 0.0
C912 C 0.14412 0.97049 0.73342 0.0
N913 N 0.16302 0.95696 0.71113 0.0
C914 C 0.13776 0.9604 0.72232 0.0
C915 C 0.1601 0.97364 0.73323 0.0
C916 C 0.14751 0.95367 0.71114 0.0
C917 C 0.16945 0.96672 0.72184 0.0
C918 C 0.1007 0.98136 0.77304 0.0
C919 C 0.10689 0.96962 0.78251 0.0
C920 C 0.08465 0.98195 0.77035 0.0
C921 C 0.09687 0.95859 0.78907 0.0
C922 C 0.07503 0.97068 0.7771 0.0
N923 N 0.08129 0.95933 0.78623 0.0
C924 C 0.14121 0.99573 0.79276 0.0
C925 C 0.15772 0.9784 0.77893 0.0
C926 C 0.14996 0.99376 0.8063 0.0
N927 N 0.14529 0.98819 0.77944 0.0
C928 C 0.16677 0.976 0.79225 0.0
C929 C 0.16293 0.98375 0.80618 0.0
H930 H 0.13119 0.00339 0.79278 0.0
H931 H 0.16056 0.97242 0.76822 0.0
C932 C 0.08661 0.96697 0.73105 0.0
N933 N 0.09904 0.96508 0.74067 0.0
C934 C 0.07707 0.95432 0.72744 0.0
C935 C 0.09332 0.93802 0.74374 0.0
C936 C 0.10255 0.951 0.74702 0.0
C937 C 0.08045 0.93958 0.73371 0.0
H938 H 0.08419 0.97825 0.72605 0.0
H939 H 0.11265 0.94983 0.75448 0.0
O940 O 0.13544 0.0134 0.75179 0.0
O941 O 0.10996 -0.00013 0.73036 0.0
O942 O 0.13472 0.97739 0.74429 0.0
O943 O 0.11034 0.99206 0.76623 0.0
H944 H 0.12744 0.03391 0.77349 0.0
H945 H 0.16572 0.00783 0.75416 0.0
H946 H 0.1456 0.04544 0.79278 0.0
H947 H 0.18321 0.01982 0.77382 0.0
H948 H 0.06342 0.02444 0.72412 0.0
H949 H 0.11885 0.02059 0.70923 0.0
H950 H 0.08001 0.00422 0.73647 0.0
H951 H 0.10158 0.0405 0.69737 0.0
H952 H 0.17519 0.02521 0.70554 0.0
H953 H 0.14699 0.99305 0.67881 0.0
H954 H 0.07607 0.03909 0.78487 0.0
H955 H 0.09736 0.06522 0.74743 0.0
H956 H 0.1254 0.9579 0.72222 0.0
H957 H 0.16519 0.98154 0.74163 0.0
H958 H 0.14274 0.94589 0.70244 0.0
H959 H 0.18182 0.96915 0.72148 0.0
H960 H 0.1193 0.96893 0.78463 0.0
H961 H 0.07969 0.9909 0.76297 0.0
H962 H 0.1015 0.9494 0.79636 0.0
H963 H 0.0626 0.97093 0.77503 0.0
H964 H 0.14667 0.0001 0.8167 0.0
H965 H 0.17649 0.96797 0.79171 0.0
H966 H 0.06719 0.95606 0.71977 0.0
H967 H 0.09647 0.92682 0.74863 0.0
Li968 Li 0.25905 0.86777 0.99094 0.0
Li969 Li 0.24855 0.88559 0.0114 0.0
Li970 Li 0.23237 0.86689 0.99728 0.0
Li971 Li 0.24147 0.88889 0.98339 0.0
C972 C 0.26021 0.85222 0.01749 0.0
N973 N 0.28203 0.83142 0.02883 0.0
C974 C 0.27094 0.85697 0.02879 0.0
C975 C 0.26047 0.83686 0.01206 0.0
C976 C 0.28189 0.84628 0.03437 0.0
C977 C 0.27163 0.82654 0.0179 0.0
C978 C 0.26947 0.90136 0.98444 0.0
C979 C 0.27341 0.92825 0.97725 0.0
N980 N 0.28217 0.92358 0.96489 0.0
C981 C 0.27851 0.89682 0.97166 0.0
C982 C 0.2669 0.9172 0.98728 0.0
C983 C 0.28484 0.90823 0.96193 0.0
C984 C 0.27667 0.84783 0.97172 0.0
N985 N 0.27714 0.85668 0.98484 0.0
C986 C 0.30414 0.85097 0.98845 0.0
C987 C 0.29051 0.85847 0.99317 0.0
C988 C 0.30404 0.84188 0.97485 0.0
C989 C 0.29008 0.8403 0.96646 0.0
H990 H 0.26596 0.84687 0.96516 0.0
H991 H 0.29062 0.86594 0.00332 0.0
C992 C 0.24484 0.89077 0.04344 0.0
N993 N 0.25275 0.8955 0.03057 0.0
C994 C 0.24798 0.89749 0.05791 0.0
C995 C 0.26747 0.91369 0.0456 0.0
C996 C 0.26393 0.90666 0.03136 0.0
C997 C 0.25947 0.90909 0.05913 0.0
H998 H 0.23627 0.88159 0.0425 0.0
H999 H 0.27031 0.90991 0.021 0.0
C1000 C 0.23175 0.85778 0.96795 0.0
N1001 N 0.21155 0.83868 0.95169 0.0
C1002 C 0.22073 0.86424 0.95783 0.0
C1003 C 0.23259 0.8416 0.9697 0.0
C1004 C 0.21061 0.85439 0.94972 0.0
C1005 C 0.22223 0.83215 0.96142 0.0
C1006 C 0.21211 0.88969 0.00376 0.0
C1007 C 0.20226 0.89368 0.99139 0.0
C1008 C 0.2057 0.88566 0.01819 0.0
C1009 C 0.18614 0.89349 0.99365 0.0
C1010 C 0.18951 0.88555 0.01996 0.0
N1011 N 0.18015 0.88944 0.00776 0.0
C1012 C 0.21629 0.84307 0.01283 0.0
C1013 C 0.20161 0.8544 0.99235 0.0
C1014 C 0.20368 0.83376 0.01709 0.0
N1015 N 0.21502 0.85325 0.00076 0.0
C1016 C 0.18865 0.84543 0.9963 0.0
C1017 C 0.18955 0.83509 0.00895 0.0
H1018 H 0.22695 0.8425 0.0195 0.0
H1019 H 0.20077 0.86261 0.98287 0.0
C1020 C 0.24271 0.90067 0.95306 0.0
N1021 N 0.23779 0.90397 0.96774 0.0
C1022 C 0.23994 0.91115 0.94096 0.0
C1023 C 0.22749 0.92845 0.95943 0.0
C1024 C 0.23057 0.91764 0.9712 0.0
C1025 C 0.23203 0.92515 0.94404 0.0
H1026 H 0.24858 0.88975 0.95074 0.0
H1027 H 0.22703 0.92002 0.98307 0.0
O1028 O 0.2495 0.86255 0.01173 0.0
O1029 O 0.26277 0.89035 0.99382 0.0
O1030 O 0.24179 0.86723 0.97595 0.0
O1031 O 0.22793 0.8897 0.00174 0.0
H1032 H 0.27092 0.86881 0.03311 0.0
H1033 H 0.25221 0.83299 0.00336 0.0
H1034 H 0.29033 0.84981 0.04305 0.0
H1035 H 0.27203 0.81464 0.01374 0.0
H1036 H 0.27143 0.94054 0.97925 0.0
H1037 H 0.28049 0.88462 0.96918 0.0
H1038 H 0.25971 0.92091 0.99695 0.0
H1039 H 0.29181 0.90489 0.95197 0.0
H1040 H 0.31476 0.85265 0.99508 0.0
H1041 H 0.28957 0.83337 0.95592 0.0
H1042 H 0.24149 0.89363 0.06803 0.0
H1043 H 0.27666 0.92233 0.04606 0.0
H1044 H 0.21984 0.87673 0.95639 0.0
H1045 H 0.24106 0.83642 0.97746 0.0
H1046 H 0.20196 0.85923 0.94192 0.0
H1047 H 0.22269 0.81962 0.96274 0.0
H1048 H 0.20698 0.89661 0.98008 0.0
H1049 H 0.21311 0.88245 0.02785 0.0
H1050 H 0.17839 0.89646 0.98416 0.0
H1051 H 0.18439 0.88233 0.03102 0.0
H1052 H 0.20476 0.82608 0.02706 0.0
H1053 H 0.17797 0.84673 0.9897 0.0
H1054 H 0.24349 0.90807 0.92925 0.0
H1055 H 0.22152 0.9392 0.96231 0.0
Li1056 Li 0.24532 0.38441 0.0144 0.0
Li1057 Li 0.26081 0.36192 0.00637 0.0
Li1058 Li 0.25576 0.38353 0.98912 0.0
Li1059 Li 0.23469 0.36573 0.99629 0.0
C1060 C 0.27917 0.39443 0.00563 0.0
N1061 N 0.30219 0.41567 0.99809 0.0
C1062 C 0.29481 0.3899 0.0056 0.0
C1063 C 0.27529 0.40986 0.00215 0.0
C1064 C 0.30627 0.40078 0.00169 0.0
C1065 C 0.28706 0.4204 0.99826 0.0
C1066 C 0.24301 0.35851 0.03364 0.0
C1067 C 0.2348 0.34632 0.05763 0.0
N1068 N 0.24772 0.35198 0.06487 0.0
C1069 C 0.2562 0.36424 0.04135 0.0
C1070 C 0.23221 0.34952 0.04187 0.0
C1071 C 0.25837 0.36079 0.05712 0.0
C1072 C 0.22577 0.39426 0.03846 0.0
N1073 N 0.23972 0.39723 0.03158 0.0
C1074 C 0.24462 0.41812 0.04932 0.0
C1075 C 0.24923 0.40876 0.03682 0.0
C1076 C 0.23011 0.41551 0.05644 0.0
C1077 C 0.22068 0.40334 0.05091 0.0
H1078 H 0.21859 0.38481 0.03422 0.0
H1079 H 0.26037 0.41071 0.03132 0.0
C1080 C 0.28936 0.34662 0.00343 0.0
N1081 N 0.27561 0.34613 0.01126 0.0
C1082 C 0.30096 0.33564 0.00651 0.0
C1083 C 0.28361 0.3232 0.02489 0.0
C1084 C 0.27238 0.33445 0.02148 0.0
C1085 C 0.29825 0.32388 0.01758 0.0
H1086 H 0.29132 0.3556 0.99482 0.0
H1087 H 0.26109 0.33374 0.02695 0.0
C1088 C 0.22267 0.39873 -0.00051 0.0
N1089 N 0.1999 0.41877 0.0104 0.0
C1090 C 0.20786 0.39307 0.00322 0.0
C1091 C 0.22582 0.41464 0.00115 0.0
C1092 C 0.19652 0.40337 0.00875 0.0
C1093 C 0.21418 0.42456 0.00674 0.0
C1094 C 0.254 0.34592 0.97941 0.0
C1095 C 0.2603 0.34221 0.96486 0.0
C1096 C 0.24775 0.33411 0.98874 0.0
C1097 C 0.26022 0.32671 0.95985 0.0
C1098 C 0.24788 0.31876 0.98332 0.0
N1099 N 0.25406 0.31541 0.96911 0.0
C1100 C 0.27758 0.38933 0.96561 0.0
C1101 C 0.25663 0.40737 0.96636 0.0
C1102 C 0.28391 0.39681 0.95263 0.0
N1103 N 0.26417 0.39468 0.9721 0.0
C1104 C 0.26258 0.41525 0.95344 0.0
C1105 C 0.27631 0.40988 0.94632 0.0
H1106 H 0.28327 0.37917 0.97046 0.0
H1107 H 0.2459 0.41123 0.9717 0.0
C1108 C 0.20786 0.34667 0.99842 0.0
N1109 N 0.21692 0.35526 0.98869 0.0
C1110 C 0.19469 0.33904 0.99268 0.0
C1111 C 0.2006 0.34917 0.96702 0.0
C1112 C 0.21364 0.3566 0.97327 0.0
C1113 C 0.19089 0.34031 0.97679 0.0
H1114 H 0.2108 0.34586 0.01063 0.0
H1115 H 0.22117 0.36345 0.96584 0.0
O1116 O 0.26774 0.38387 0.00923 0.0
O1117 O 0.24045 0.36189 0.01823 0.0
O1118 O 0.23404 0.38875 0.99439 0.0
O1119 O 0.25411 0.36104 0.98446 0.0
H1120 H 0.29813 0.37816 0.00873 0.0
H1121 H 0.26327 0.41361 0.00225 0.0
H1122 H 0.31842 0.3974 0.00156 0.0
H1123 H 0.28418 0.43233 0.99537 0.0
H1124 H 0.22653 0.33936 0.06411 0.0
H1125 H 0.26472 0.37123 0.0353 0.0
H1126 H 0.2219 0.34505 0.03616 0.0
H1127 H 0.26853 0.36512 0.0632 0.0
H1128 H 0.25222 0.4274 0.05324 0.0
H1129 H 0.20955 0.40074 0.05627 0.0
H1130 H 0.31205 0.33662 0.00058 0.0
H1131 H 0.28086 0.31407 0.03316 0.0
H1132 H 0.20517 0.38082 0.00209 0.0
H1133 H 0.23715 0.41929 0.99825 0.0
H1134 H 0.18505 0.39911 0.01178 0.0
H1135 H 0.21652 0.43687 0.00818 0.0
H1136 H 0.26522 0.35122 0.95752 0.0
H1137 H 0.24288 0.33674 7e-05 0.0
H1138 H 0.26506 0.32366 0.94861 0.0
H1139 H 0.24309 0.30951 0.99042 0.0
H1140 H 0.2946 0.3924 0.94758 0.0
H1141 H 0.25626 0.42515 0.9488 0.0
H1142 H 0.18743 0.33248 0.00064 0.0
H1143 H 0.19822 0.35026 0.95467 0.0
Li1144 Li 0.73446 0.13719 0.00064 0.0
Li1145 Li 0.75289 0.11784 0.01061 0.0
Li1146 Li 0.76156 0.14018 0.9952 0.0
Li1147 Li 0.74739 0.11877 0.9831 0.0
C1148 C 0.76074 0.15036 0.02362 0.0
N1149 N 0.78098 0.1708 0.03809 0.0
C1150 C 0.7725 0.1447 0.03337 0.0
C1151 C 0.75921 0.16642 0.02128 0.0
C1152 C 0.78262 0.15523 0.04058 0.0
C1153 C 0.76958 0.17656 0.02868 0.0
C1154 C 0.72555 0.1029 0.00852 0.0
C1155 C 0.72376 0.07614 0.01696 0.0
N1156 N 0.7118 0.08007 0.02659 0.0
C1157 C 0.71318 0.10666 0.01843 0.0
C1158 C 0.73083 0.0875 0.00769 0.0
C1159 C 0.7064 0.09495 0.02749 0.0
C1160 C 0.70246 0.14416 0.99677 0.0
N1161 N 0.71544 0.14735 0.00528 0.0
C1162 C 0.70094 0.16387 0.02231 0.0
C1163 C 0.71497 0.15703 0.0178 0.0
C1164 C 0.68732 0.16071 0.01382 0.0
C1165 C 0.6882 0.15089 0.00076 0.0
H1166 H 0.70313 0.13611 0.98708 0.0
H1167 H 0.72542 0.15916 0.0245 0.0
C1168 C 0.77136 0.09696 0.02807 0.0
N1169 N 0.75773 0.10499 0.0279 0.0
C1170 C 0.7755 0.08813 0.0411 0.0
C1171 C 0.75132 0.09576 0.05336 0.0
C1172 C 0.74783 0.10472 0.04025 0.0
C1173 C 0.76543 0.08743 0.05403 0.0
H1174 H 0.77921 0.09773 0.01825 0.0
H1175 H 0.73728 0.11159 0.03998 0.0
C1176 C 0.73318 0.15018 0.97295 0.0
N1177 N 0.70978 0.1675 0.95915 0.0
C1178 C 0.72396 0.14362 0.96122 0.0
C1179 C 0.73055 0.16558 0.9776 0.0
C1180 C 0.71218 0.15257 0.95439 0.0
C1181 C 0.71864 0.17413 0.97051 0.0
C1182 C 0.77673 0.10913 0.98375 0.0
C1183 C 0.78705 0.1161 0.97325 0.0
C1184 C 0.77507 0.09293 0.98388 0.0
C1185 C 0.79544 0.10671 0.96292 0.0
C1186 C 0.78365 0.08395 0.97335 0.0
N1187 N 0.79357 0.09097 0.96317 0.0
C1188 C 0.79234 0.15122 0.99821 0.0
C1189 C 0.77572 0.16705 0.98279 0.0
C1190 C 0.80506 0.16078 0.99482 0.0
N1191 N 0.77811 0.15441 0.99202 0.0
C1192 C 0.78808 0.17693 0.97913 0.0
C1193 C 0.80305 0.17367 0.9849 0.0
H1194 H 0.7939 0.14095 0.00537 0.0
H1195 H 0.76432 0.16922 0.97793 0.0
C1196 C 0.73421 0.09541 0.96414 0.0
N1197 N 0.74503 0.10694 0.9646 0.0
C1198 C 0.73154 0.08724 0.95034 0.0
C1199 C 0.75141 0.1028 0.93782 0.0
C1200 C 0.75355 0.1108 0.95182 0.0
C1201 C 0.74013 0.09095 0.93688 0.0
H1202 H 0.72733 0.09285 0.97437 0.0
H1203 H 0.76181 0.12029 0.95243 0.0
O1204 O 0.75095 0.14023 0.01618 0.0
O1205 O 0.73242 0.11421 -0.00037 0.0
O1206 O 0.74467 0.14156 0.97989 0.0
O1207 O 0.76828 0.11812 0.99384 0.0
H1208 H 0.7739 0.13231 0.03526 0.0
H1209 H 0.75023 0.17098 0.01368 0.0
H1210 H 0.79182 0.15102 0.04811 0.0
H1211 H 0.7686 0.189 0.0269 0.0
H1212 H 0.72779 0.0642 0.01651 0.0
H1213 H 0.70895 0.11851 0.01924 0.0
H1214 H 0.74036 0.08439 5e-05 0.0
H1215 H 0.69687 0.09771 0.03527 0.0
H1216 H 0.70071 0.17143 0.03243 0.0
H1217 H 0.67788 0.14801 0.99407 0.0
H1218 H 0.78669 0.08229 0.04115 0.0
H1219 H 0.74304 0.09548 0.06288 0.0
H1220 H 0.72578 0.13172 0.95749 0.0
H1221 H 0.73747 0.17079 0.98677 0.0
H1222 H 0.70493 0.14763 0.94534 0.0
H1223 H 0.7164 0.18602 0.97408 0.0
H1224 H 0.78843 0.12862 0.97293 0.0
H1225 H 0.76718 0.08735 0.99197 0.0
H1226 H 0.8034 0.11195 0.95466 0.0
H1227 H 0.78242 0.0714 0.97326 0.0
H1228 H 0.81643 0.15772 -0.00065 0.0
H1229 H 0.78599 0.18684 0.97159 0.0
H1230 H 0.72246 0.07848 0.95013 0.0
H1231 H 0.7584 0.106 0.92782 0.0
Li1232 Li 0.13434 0.50307 0.2637 0.0
Li1233 Li 0.11405 0.48438 0.25656 0.0
Li1234 Li 0.13307 0.49487 0.2371 0.0
Li1235 Li 0.11194 0.5114 0.24683 0.0
C1236 C 0.14796 0.47553 0.26546 0.0
N1237 N 0.16993 0.46399 0.28599 0.0
C1238 C 0.1436 0.46484 0.27695 0.0
C1239 C 0.16351 0.48023 0.26429 0.0
C1240 C 0.15488 0.45916 0.28725 0.0
C1241 C 0.17443 0.4743 0.27482 0.0
C1242 C 0.09966 0.50568 0.27889 0.0
C1243 C 0.07228 0.50974 0.28385 0.0
N1244 N 0.07514 0.50949 0.29945 0.0
C1245 C 0.10234 0.50567 0.29497 0.0
C1246 C 0.08452 0.5079 0.27328 0.0
C1247 C 0.08979 0.50753 0.30517 0.0
C1248 C 0.15686 0.5222 0.27795 0.0
N1249 N 0.14751 0.50963 0.28021 0.0
C1250 C 0.15615 0.50722 0.30657 0.0
C1251 C 0.14703 0.50208 0.29412 0.0
C1252 C 0.16575 0.52034 0.30467 0.0
C1253 C 0.16615 0.52777 0.29008 0.0
H1254 H 0.15692 0.52807 0.2668 0.0
H1255 H 0.13937 0.49219 0.29563 0.0
C1256 C 0.10048 0.45512 0.25194 0.0
N1257 N 0.10258 0.46654 0.26272 0.0
C1258 C 0.09184 0.44185 0.25564 0.0
C1259 C 0.08789 0.45227 0.28154 0.0
C1260 C 0.09667 0.46528 0.27736 0.0
C1261 C 0.08533 0.44037 0.27058 0.0
H1262 H 0.10544 0.4564 0.24041 0.0
H1263 H 0.09885 0.4743 0.28584 0.0
C1264 C 0.14326 0.52373 0.23386 0.0
N1265 N 0.16101 0.5375 0.2108 0.0
C1266 C 0.13625 0.53354 0.22289 0.0
C1267 C 0.15932 0.52106 0.23321 0.0
C1268 C 0.14543 0.54037 0.21131 0.0
C1269 C 0.16808 0.52808 0.22142 0.0
C1270 C 0.09694 0.48858 0.2267 0.0
C1271 C 0.09723 0.48794 0.21041 0.0
C1272 C 0.08297 0.48575 0.23458 0.0
C1273 C 0.08348 0.48477 0.20229 0.0
C1274 C 0.06947 0.4826 0.22605 0.0
N1275 N 0.07 0.4822 0.21021 0.0
C1276 C 0.15655 0.47952 0.21984 0.0
C1277 C 0.14107 0.49724 0.20534 0.0
C1278 C 0.16522 0.47583 0.20658 0.0
N1279 N 0.14475 0.49005 0.21897 0.0
C1280 C 0.14943 0.49392 0.1918 0.0
C1281 C 0.16165 0.48303 0.1923 0.0
H1282 H 0.15912 0.47386 0.2308 0.0
H1283 H 0.13163 0.50558 0.20499 0.0
C1284 C 0.09819 0.54019 0.25268 0.0
N1285 N 0.09827 0.52816 0.24238 0.0
C1286 C 0.08883 0.55323 0.25 0.0
C1287 C 0.07968 0.54113 0.22623 0.0
C1288 C 0.08931 0.52841 0.22931 0.0
C1289 C 0.07945 0.55379 0.2366 0.0
H1290 H 0.10553 0.53969 0.26293 0.0
H1291 H 0.08984 0.51891 0.2211 0.0
O1292 O 0.13704 0.48134 0.25539 0.0
O1293 O 0.11188 0.50393 0.26876 0.0
O1294 O 0.13444 0.51677 0.24516 0.0
O1295 O 0.11034 0.49168 0.2348 0.0
H1296 H 0.13163 0.46104 0.27799 0.0
H1297 H 0.16706 0.48849 0.25546 0.0
H1298 H 0.15167 0.45094 0.29625 0.0
H1299 H 0.18649 0.47793 0.27413 0.0
H1300 H 0.06051 0.51144 0.27965 0.0
H1301 H 0.11397 0.50416 0.29955 0.0
H1302 H 0.08222 0.50841 0.26093 0.0
H1303 H 0.0917 0.50743 0.31763 0.0
H1304 H 0.15532 0.50128 0.31768 0.0
H1305 H 0.17349 0.53784 0.28809 0.0
H1306 H 0.09009 0.43296 0.24685 0.0
H1307 H 0.08334 0.45141 0.29328 0.0
H1308 H 0.12385 0.53575 0.22324 0.0
H1309 H 0.16492 0.5135 0.24161 0.0
H1310 H 0.14015 0.54792 0.20269 0.0
H1311 H 0.1805 0.52602 0.2207 0.0
H1312 H 0.10794 0.48991 0.20409 0.0
H1313 H 0.08256 0.48577 0.24716 0.0
H1314 H 0.08353 0.48432 0.18968 0.0
H1315 H 0.05859 0.4804 0.23202 0.0
H1316 H 0.17437 0.46718 0.20744 0.0
H1317 H 0.1464 0.49987 0.18108 0.0
H1318 H 0.08895 0.56277 0.25827 0.0
H1319 H 0.07283 0.54127 0.21562 0.0
Li1320 Li 0.74609 0.88742 0.51315 0.0
Li1321 Li 0.76302 0.86618 0.50467 0.0
Li1322 Li 0.75337 0.88594 0.48535 0.0
Li1323 Li 0.73653 0.86587 0.49621 0.0
C1324 C 0.77622 0.90165 0.50699 0.0
N1325 N 0.7949 0.92719 0.5132 0.0
C1326 C 0.78854 0.90045 0.51761 0.0
C1327 C 0.77366 0.91579 0.49929 0.0
C1328 C 0.79777 0.91351 0.52067 0.0
C1329 C 0.78316 0.92858 0.50265 0.0
C1330 C 0.7487 0.85525 0.52979 0.0
C1331 C 0.75627 0.82984 0.53916 0.0
N1332 N 0.75872 0.83596 0.55358 0.0
C1333 C 0.75119 0.86127 0.54473 0.0
C1334 C 0.75114 0.83938 0.527 0.0
C1335 C 0.75629 0.85134 0.55659 0.0
C1336 C 0.72532 0.9035 0.53229 0.0
N1337 N 0.74074 0.9007 0.52999 0.0
C1338 C 0.74738 0.91566 0.5525 0.0
C1339 C 0.75175 0.90652 0.53978 0.0
C1340 C 0.73153 0.91876 0.55518 0.0
C1341 C 0.72044 0.91262 0.54482 0.0
H1342 H 0.71681 0.89845 0.52449 0.0
H1343 H 0.76388 0.90379 0.53794 0.0
C1344 C 0.78658 0.84345 0.50047 0.0
N1345 N 0.78058 0.8541 0.51055 0.0
C1346 C 0.79986 0.83493 0.50451 0.0
C1347 C 0.80042 0.84849 0.52923 0.0
C1348 C 0.78713 0.85667 0.52474 0.0
C1349 C 0.80704 0.83757 0.51899 0.0
H1350 H 0.7812 0.84174 0.4892 0.0
H1351 H 0.78207 0.86515 0.53255 0.0
C1352 C 0.72469 0.90217 0.49076 0.0
N1353 N 0.70936 0.92958 0.48345 0.0
C1354 C 0.71083 0.9018 0.48218 0.0
C1355 C 0.73058 0.91648 0.49584 0.0
C1356 C 0.70331 0.91578 0.47853 0.0
C1357 C 0.72271 0.9302 0.49198 0.0
C1358 C 0.75013 0.85248 0.47238 0.0
C1359 C 0.74553 0.85755 0.45759 0.0
C1360 C 0.74897 0.83669 0.47622 0.0
C1361 C 0.73966 0.84673 0.44693 0.0
C1362 C 0.74301 0.82624 0.46525 0.0
N1363 N 0.73851 0.83143 0.45095 0.0
C1364 C 0.77445 0.89665 0.46346 0.0
C1365 C 0.74855 0.90466 0.45803 0.0
C1366 C 0.77984 0.90401 0.45002 0.0
N1367 N 0.75907 0.89711 0.46718 0.0
C1368 C 0.75346 0.9123 0.44452 0.0
C1369 C 0.76927 0.91192 0.44034 0.0
H1370 H 0.7825 0.89045 0.47093 0.0
H1371 H 0.73635 0.90455 0.46101 0.0
C1372 C 0.71456 0.84147 0.50093 0.0
N1373 N 0.71909 0.85325 0.49135 0.0
C1374 C 0.70152 0.83247 0.49721 0.0
C1375 C 0.6981 0.84799 0.4739 0.0
C1376 C 0.71124 0.85657 0.47801 0.0
C1377 C 0.69304 0.83583 0.48361 0.0
H1378 H 0.72096 0.83917 0.51153 0.0
H1379 H 0.71523 0.86591 0.47055 0.0
O1380 O 0.76719 0.88888 0.50373 0.0
O1381 O 0.74386 0.86484 0.518 0.0
O1382 O 0.73219 0.88855 0.49442 0.0
O1383 O 0.7556 0.86295 0.48309 0.0
H1384 H 0.79091 0.88961 0.52353 0.0
H1385 H 0.76457 0.91691 0.49066 0.0
H1386 H 0.80725 0.91275 0.52896 0.0
H1387 H 0.78124 0.93958 0.4968 0.0
H1388 H 0.75833 0.81756 0.53712 0.0
H1389 H 0.74927 0.87349 0.54713 0.0
H1390 H 0.7493 0.83453 0.51551 0.0
H1391 H 0.75833 0.85585 0.56819 0.0
H1392 H 0.7563 0.92019 0.56021 0.0
H1393 H 0.70808 0.91446 0.54662 0.0
H1394 H 0.8047 0.8267 0.49625 0.0
H1395 H 0.80548 0.8507 0.54058 0.0
H1396 H 0.70593 0.89086 0.47833 0.0
H1397 H 0.74095 0.917 0.50292 0.0
H1398 H 0.69263 0.91565 0.47182 0.0
H1399 H 0.72717 0.94135 0.49584 0.0
H1400 H 0.74634 0.86972 0.45442 0.0
H1401 H 0.7525 0.83257 0.48761 0.0
H1402 H 0.73597 0.8505 0.43547 0.0
H1403 H 0.74194 0.814 0.4681 0.0
H1404 H 0.79215 0.90357 0.44726 0.0
H1405 H 0.74493 0.91808 0.43722 0.0
H1406 H 0.69789 0.82326 0.50503 0.0
H1407 H 0.69198 0.85078 0.46321 0.0
Li1408 Li 0.88473 0.0137 0.25028 0.0
Li1409 Li 0.86464 0.99659 0.25936 0.0
Li1410 Li 0.88394 0.98599 0.24139 0.0
Li1411 Li 0.86367 0.00414 0.23304 0.0
C1412 C 0.88793 0.99106 0.2782 0.0
N1413 N 0.88704 0.98408 0.30965 0.0
C1414 C 0.89065 0.00271 0.28927 0.0
C1415 C 0.88473 0.97586 0.28314 0.0
C1416 C 0.89019 -0.00106 0.30511 0.0
C1417 C 0.88431 0.97258 0.29909 0.0
C1418 C 0.85323 0.02587 0.26179 0.0
C1419 C 0.82805 0.03221 0.27253 0.0
N1420 N 0.83505 0.04166 0.28317 0.0
C1421 C 0.86017 0.03573 0.27275 0.0
C1422 C 0.83703 0.02418 0.26158 0.0
C1423 C 0.85078 0.04359 0.28348 0.0
C1424 C 0.89382 0.04479 0.24799 0.0
N1425 N 0.8981 0.03076 0.25394 0.0
C1426 C 0.92102 0.04181 0.26517 0.0
C1427 C 0.91152 0.02896 0.26215 0.0
C1428 C 0.91667 0.05659 0.25957 0.0
C1429 C 0.90297 0.05794 0.25069 0.0
H1430 H 0.88316 0.04576 0.24131 0.0
H1431 H 0.91473 0.01758 0.26654 0.0
C1432 C 0.84458 0.97681 0.27582 0.0
N1433 N 0.85204 0.99074 0.2769 0.0
C1434 C 0.83609 0.97102 0.28839 0.0
C1435 C 0.84293 0.99407 0.30305 0.0
C1436 C 0.85136 -0.00062 0.29019 0.0
C1437 C 0.83529 0.97963 0.30227 0.0
H1438 H 0.84555 0.96994 0.26531 0.0
H1439 H 0.8578 0.01013 0.29107 0.0
C1440 C 0.90102 0.00713 0.22295 0.0
N1441 N 0.93091 0.01129 0.21176 0.0
C1442 C 0.90341 0.01397 0.20836 0.0
C1443 C 0.91383 0.00239 0.23185 0.0
C1444 C 0.91861 0.01598 0.20291 0.0
C1445 C 0.92885 0.0046 0.22598 0.0
C1446 C 0.84948 0.9766 0.23282 0.0
C1447 C 0.8525 0.96496 0.22183 0.0
C1448 C 0.83424 0.98196 0.23492 0.0
C1449 C 0.84022 0.95909 0.21287 0.0
C1450 C 0.82229 0.9758 0.22573 0.0
N1451 N 0.82551 0.9646 0.21498 0.0
C1452 C 0.90334 0.9592 0.24466 0.0
C1453 C 0.89708 0.96685 0.21885 0.0
C1454 C 0.91178 0.94643 0.23911 0.0
N1455 N 0.89605 0.96893 0.23451 0.0
C1456 C 0.90549 0.95435 0.21279 0.0
C1457 C 0.91283 0.9438 0.22296 0.0
H1458 H 0.90252 0.96127 0.25705 0.0
H1459 H 0.89124 0.97489 0.21107 0.0
C1460 C 0.8421 0.02269 0.21675 0.0
N1461 N 0.85107 0.00969 0.2158 0.0
C1462 C 0.833 0.0273 0.20408 0.0
C1463 C 0.84237 0.00488 0.1898 0.0
C1464 C 0.85153 0.00089 0.20264 0.0
C1465 C 0.83301 0.01834 0.19034 0.0
H1466 H 0.84223 0.02964 0.22726 0.0
H1467 H 0.85903 0.99078 0.20211 0.0
O1468 O 0.8881 0.99457 0.26264 0.0
O1469 O 0.86222 0.0182 0.25108 0.0
O1470 O 0.88619 0.00518 0.22844 0.0
O1471 O 0.86136 0.98261 0.2416 0.0
H1472 H 0.89284 0.01459 0.28569 0.0
H1473 H 0.88222 0.96677 0.27477 0.0
H1474 H 0.89222 0.00786 0.31379 0.0
H1475 H 0.88171 0.9609 0.30308 0.0
H1476 H 0.8155 0.03095 0.27256 0.0
H1477 H 0.87268 0.03716 0.27312 0.0
H1478 H 0.83145 0.01676 0.25306 0.0
H1479 H 0.856 0.05118 0.29209 0.0
H1480 H 0.93141 0.04025 0.27217 0.0
H1481 H 0.89932 0.06905 0.24593 0.0
H1482 H 0.83031 0.95985 0.2873 0.0
H1483 H 0.84284 0.00093 0.31365 0.0
H1484 H 0.8936 0.0177 0.20135 0.0
H1485 H 0.91222 0.99707 0.24316 0.0
H1486 H 0.92064 0.02126 0.19164 0.0
H1487 H 0.93887 0.001 0.23275 0.0
H1488 H 0.86419 0.96056 0.22017 0.0
H1489 H 0.8317 0.99082 0.24351 0.0
H1490 H 0.8424 0.95015 0.20425 0.0
H1491 H 0.81046 0.97993 0.22715 0.0
H1492 H 0.91714 0.93856 0.2474 0.0
H1493 H 0.90624 0.953 0.20026 0.0
H1494 H 0.82634 0.03797 0.20498 0.0
H1495 H 0.84267 0.99747 0.17959 0.0
Li1496 Li 0.23611 0.63848 0.50391 0.0
Li1497 Li 0.2516 0.61673 0.51398 0.0
Li1498 Li 0.26279 0.63735 0.49839 0.0
Li1499 Li 0.2452 0.61841 0.48638 0.0
C1500 C 0.26439 0.64725 0.52725 0.0
N1501 N 0.28767 0.66347 0.54257 0.0
C1502 C 0.27442 0.63952 0.53751 0.0
C1503 C 0.26609 0.66331 0.52499 0.0
C1504 C 0.28614 0.6479 0.54511 0.0
C1505 C 0.27797 0.67128 0.53277 0.0
C1506 C 0.22502 0.60108 0.50424 0.0
C1507 C 0.22913 0.57335 0.50208 0.0
N1508 N 0.21366 0.57095 0.50455 0.0
C1509 C 0.20917 0.59834 0.50674 0.0
C1510 C 0.2351 0.58849 0.50187 0.0
C1511 C 0.20365 0.58302 0.50687 0.0
C1512 C 0.20531 0.64997 0.50096 0.0
N1513 N 0.21904 0.65156 0.50869 0.0
C1514 C 0.20875 0.67229 0.52406 0.0
C1515 C 0.22097 0.66241 0.52004 0.0
C1516 C 0.19431 0.67085 0.51646 0.0
C1517 C 0.19269 0.65959 0.50466 0.0
H1518 H 0.20415 0.64117 0.49199 0.0
H1519 H 0.232 0.66336 0.52602 0.0
C1520 C 0.26869 0.59619 0.5329 0.0
N1521 N 0.25447 0.60283 0.53083 0.0
C1522 C 0.27146 0.58666 0.54577 0.0
C1523 C 0.2447 0.59046 0.55376 0.0
C1524 C 0.24251 0.60009 0.54082 0.0
C1525 C 0.25942 0.58377 0.55651 0.0
H1526 H 0.27801 0.59876 0.52482 0.0
H1527 H 0.23131 0.60554 0.53882 0.0
C1528 C 0.23755 0.65334 0.47694 0.0
N1529 N 0.22006 0.67759 0.46485 0.0
C1530 C 0.22851 0.65108 0.46358 0.0
C1531 C 0.23799 0.66807 0.4839 0.0
C1532 C 0.21968 0.66345 0.45769 0.0
C1533 C 0.22898 0.68014 0.4777 0.0
C1534 C 0.27733 0.61141 0.4854 0.0
C1535 C 0.278 0.62016 0.47165 0.0
C1536 C 0.28839 0.59975 0.48806 0.0
C1537 C 0.28973 0.61705 0.46078 0.0
C1538 C 0.29992 0.59699 0.4769 0.0
N1539 N 0.30035 0.60563 0.46361 0.0
C1540 C 0.29464 0.64413 0.50227 0.0
C1541 C 0.28109 0.66164 0.48571 0.0
C1542 C 0.30853 0.65225 0.49996 0.0
N1543 N 0.28131 0.64898 0.49521 0.0
C1544 C 0.2947 0.67009 0.48305 0.0
C1545 C 0.30868 0.66538 0.49017 0.0
H1546 H 0.29447 0.63391 0.50965 0.0
H1547 H 0.27041 0.66504 0.47999 0.0
C1548 C 0.22483 0.60869 0.46315 0.0
N1549 N 0.23941 0.60612 0.46877 0.0
C1550 C 0.21958 0.60073 0.44999 0.0
C1551 C 0.24404 0.58678 0.44926 0.0
C1552 C 0.24884 0.59508 0.4624 0.0
C1553 C 0.22933 0.58978 0.44273 0.0
H1554 H 0.21731 0.61703 0.46888 0.0
H1555 H 0.26009 0.59262 0.46744 0.0
O1556 O 0.25299 0.63916 0.51951 0.0
O1557 O 0.23051 0.61604 0.50397 0.0
O1558 O 0.24616 0.6413 0.48298 0.0
O1559 O 0.26615 0.61437 0.49638 0.0
H1560 H 0.27325 0.62718 0.53958 0.0
H1561 H 0.25845 0.66957 0.51719 0.0
H1562 H 0.29402 0.64202 0.553 0.0
H1563 H 0.27948 0.68367 0.53099 0.0
H1564 H 0.2368 0.5635 0.50026 0.0
H1565 H 0.20121 0.60798 0.50854 0.0
H1566 H 0.2474 0.59035 0.49985 0.0
H1567 H 0.1914 0.58074 0.50879 0.0
H1568 H 0.21059 0.68096 0.53305 0.0
H1569 H 0.18172 0.65796 0.49864 0.0
H1570 H 0.28308 0.58206 0.54752 0.0
H1571 H 0.235 0.58838 0.56155 0.0
H1572 H 0.22843 0.63999 0.45765 0.0
H1573 H 0.24506 0.67012 0.4941 0.0
H1574 H 0.21258 0.66182 0.4474 0.0
H1575 H 0.22908 0.69152 0.48312 0.0
H1576 H 0.26959 0.62924 0.46932 0.0
H1577 H 0.28806 0.59287 0.49863 0.0
H1578 H 0.29037 0.62373 0.4501 0.0
H1579 H 0.30854 0.58798 0.47881 0.0
H1580 H 0.31903 0.64828 0.50574 0.0
H1581 H 0.29436 0.67994 0.47516 0.0
H1582 H 0.20799 0.60309 0.44556 0.0
H1583 H 0.25188 0.57835 0.44407 0.0
Li1584 Li 0.38205 0.51146 0.75061 0.0
Li1585 Li 0.36213 0.49355 0.75997 0.0
Li1586 Li 0.38125 0.48479 0.73979 0.0
Li1587 Li 0.35981 0.50266 0.73362 0.0
C1588 C 0.3991 0.48882 0.76887 0.0
N1589 N 0.4274 0.48353 0.78335 0.0
C1590 C 0.39988 0.48734 0.78508 0.0
C1591 C 0.41269 0.48737 0.76002 0.0
C1592 C 0.4143 0.48475 0.79219 0.0
C1593 C 0.42689 0.48476 0.76755 0.0
C1594 C 0.34996 0.52143 0.76427 0.0
C1595 C 0.32469 0.52408 0.77627 0.0
N1596 N 0.33118 0.5328 0.78782 0.0
C1597 C 0.35637 0.53052 0.77617 0.0
C1598 C 0.33398 0.51828 0.76422 0.0
C1599 C 0.34668 0.53613 0.788 0.0
C1600 C 0.39577 0.54064 0.74559 0.0
N1601 N 0.39494 0.52859 0.75585 0.0
C1602 C 0.4116 0.5419 0.77372 0.0
C1603 C 0.40254 0.52902 0.76974 0.0
C1604 C 0.41264 0.55455 0.76339 0.0
C1605 C 0.40462 0.55382 0.74914 0.0
H1606 H 0.38943 0.54003 0.7347 0.0
H1607 H 0.40131 0.51954 0.77791 0.0
C1608 C 0.34021 0.47595 0.77703 0.0
N1609 N 0.35127 0.48722 0.77813 0.0
C1610 C 0.3326 0.47064 0.79037 0.0
C1611 C 0.34783 0.48874 0.80572 0.0
C1612 C 0.35517 0.49366 0.79207 0.0
C1613 C 0.33648 0.47696 0.80498 0.0
H1614 H 0.33746 0.47091 0.76583 0.0
H1615 H 0.36417 0.50246 0.79261 0.0
C1616 C 0.3935 0.50775 0.71758 0.0
N1617 N 0.41627 0.51377 0.69559 0.0
C1618 C 0.38976 0.50791 0.70171 0.0
C1619 C 0.40879 0.5109 0.72226 0.0
C1620 C 0.40145 0.5109 0.69078 0.0
C1621 C 0.42014 0.51386 0.71097 0.0
C1622 C 0.34748 0.47382 0.73203 0.0
C1623 C 0.35182 0.46264 0.721 0.0
C1624 C 0.3318 0.47793 0.73361 0.0
C1625 C 0.34038 0.45591 0.71156 0.0
C1626 C 0.32071 0.47096 0.72393 0.0
N1627 N 0.3252 0.46019 0.71319 0.0
C1628 C 0.3955 0.45555 0.74226 0.0
C1629 C 0.39797 0.4672 0.71733 0.0
C1630 C 0.40325 0.4422 0.73711 0.0
N1631 N 0.39301 0.46765 0.73235 0.0
C1632 C 0.40583 0.45414 0.7117 0.0
C1633 C 0.40841 0.44133 0.72158 0.0
H1634 H 0.39121 0.45617 0.7541 0.0
H1635 H 0.39554 0.47679 0.70958 0.0
C1636 C 0.33699 0.52147 0.71891 0.0
N1637 N 0.34613 0.50863 0.71731 0.0
C1638 C 0.32721 0.52612 0.70674 0.0
C1639 C 0.33621 0.50404 0.69172 0.0
C1640 C 0.34599 0.5 0.70404 0.0
C1641 C 0.32675 0.51737 0.69286 0.0
H1642 H 0.33749 0.52823 0.72954 0.0
H1643 H 0.35357 0.49 0.70298 0.0
O1644 O 0.38503 0.49134 0.76176 0.0
O1645 O 0.35929 0.51563 0.75272 0.0
O1646 O 0.38214 0.50491 0.72842 0.0
O1647 O 0.35854 0.48062 0.74129 0.0
H1648 H 0.38946 0.48825 0.79212 0.0
H1649 H 0.41228 0.48803 0.74746 0.0
H1650 H 0.41508 0.48368 0.80473 0.0
H1651 H 0.43749 0.48363 0.76082 0.0
H1652 H 0.31232 0.52165 0.77644 0.0
H1653 H 0.3687 0.5331 0.77636 0.0
H1654 H 0.32883 0.51136 0.75503 0.0
H1655 H 0.35149 0.5431 0.79734 0.0
H1656 H 0.41735 0.54216 0.78497 0.0
H1657 H 0.40516 0.56334 0.74086 0.0
H1658 H 0.32382 0.46164 0.78928 0.0
H1659 H 0.35132 0.49376 0.81676 0.0
H1660 H 0.37799 0.50567 0.69785 0.0
H1661 H 0.41186 0.51129 0.73446 0.0
H1662 H 0.39873 0.51095 0.67846 0.0
H1663 H 0.43201 0.51629 0.71445 0.0
H1664 H 0.36388 0.45925 0.71967 0.0
H1665 H 0.32824 0.48653 0.74211 0.0
H1666 H 0.34357 0.44731 0.70291 0.0
H1667 H 0.30855 0.47411 0.72495 0.0
H1668 H 0.40476 0.43252 0.74506 0.0
H1669 H 0.40975 0.45407 0.6997 0.0
H1670 H 0.32038 0.53664 0.70809 0.0
H1671 H 0.33613 0.49676 0.68141 0.0
Li1672 Li 0.63555 0.00563 0.76366 0.0
Li1673 Li 0.61488 0.9873 0.7566 0.0
Li1674 Li 0.63269 0.99782 0.73609 0.0
Li1675 Li 0.61213 0.01372 0.74788 0.0
C1676 C 0.65174 0.97741 0.75708 0.0
N1677 N 0.68009 0.96301 0.76229 0.0
C1678 C 0.65253 0.9639 0.76616 0.0
C1679 C 0.66534 0.98347 0.75049 0.0
C1680 C 0.66698 0.95683 0.76871 0.0
C1681 C 0.67956 0.97605 0.7533 0.0
C1682 C 0.60462 0.00137 0.78218 0.0
C1683 C 0.57999 0.99393 0.79345 0.0
N1684 N 0.58733 0.99067 0.80713 0.0
C1685 C 0.61191 0.99807 0.79638 0.0
C1686 C 0.58852 -0.00058 0.78072 0.0
C1687 C 0.60296 0.99263 0.80885 0.0
C1688 C 0.65117 0.0278 0.78143 0.0
N1689 N 0.64971 0.01219 0.77929 0.0
C1690 C 0.66796 0.00712 0.7997 0.0
C1691 C 0.65772 0.00184 0.78822 0.0
C1692 C 0.66979 0.02322 0.80216 0.0
C1693 C 0.66119 0.0336 0.79284 0.0
H1694 H 0.64444 0.03575 0.77431 0.0
H1695 H 0.65606 0.98948 0.7866 0.0
C1696 C 0.59292 0.96289 0.75439 0.0
N1697 N 0.60424 0.96923 0.76346 0.0
C1698 C 0.58521 0.94939 0.75917 0.0
C1699 C 0.60098 0.94926 0.78255 0.0
C1700 C 0.60842 0.96269 0.77727 0.0
C1701 C 0.58925 0.94236 0.77341 0.0
H1702 H 0.59001 0.96818 0.74334 0.0
H1703 H 0.6176 0.9679 0.78416 0.0
C1704 C 0.64516 0.02879 0.73818 0.0
N1705 N 0.66684 0.04854 0.72484 0.0
C1706 C 0.64042 0.04023 0.72757 0.0
C1707 C 0.6609 0.02761 0.74222 0.0
C1708 C 0.65156 0.05003 0.72089 0.0
C1709 C 0.67169 0.03764 0.7353 0.0
C1710 C 0.598 0.99759 0.72503 0.0
C1711 C 0.60121 -0.0001 0.70922 0.0
C1712 C 0.58265 0.99862 0.73038 0.0
C1713 C 0.58899 0.00345 0.69904 0.0
C1714 C 0.57076 0.00221 0.71984 0.0
N1715 N 0.57415 0.00454 0.70452 0.0
C1716 C 0.64847 0.97773 0.71603 0.0
C1717 C 0.64678 0.00357 0.70641 0.0
C1718 C 0.65708 0.97315 0.70304 0.0
N1719 N 0.64377 0.99277 0.71761 0.0
C1720 C 0.65527 -0.00052 0.69314 0.0
C1721 C 0.66067 0.98411 0.69144 0.0
H1722 H 0.64557 0.96928 0.72492 0.0
H1723 H 0.64251 0.01533 0.70769 0.0
C1724 C 0.5909 0.03703 0.75689 0.0
N1725 N 0.59807 0.03044 0.74439 0.0
C1726 C 0.58102 0.0498 0.75488 0.0
C1727 C 0.58588 0.04857 0.72714 0.0
C1728 C 0.59582 0.03597 0.72971 0.0
C1729 C 0.57845 0.05571 0.73984 0.0
H1730 H 0.59306 0.03251 0.76846 0.0
H1731 H 0.60194 0.03078 0.72002 0.0
O1732 O 0.63767 0.98449 0.75453 0.0
O1733 O 0.61322 0.00651 0.76978 0.0
O1734 O 0.63435 0.01917 0.74492 0.0
O1735 O 0.60983 0.9942 0.73517 0.0
H1736 H 0.64211 0.95895 0.77123 0.0
H1737 H 0.66491 0.99364 0.74311 0.0
H1738 H 0.66777 0.94641 0.77578 0.0
H1739 H 0.69018 0.98063 0.74827 0.0
H1740 H 0.56753 0.99227 0.79246 0.0
H1741 H 0.62436 -0.00043 0.79772 0.0
H1742 H 0.5827 0.00205 0.76985 0.0
H1743 H 0.60846 0.98993 0.81988 0.0
H1744 H 0.67438 0.99868 0.80655 0.0
H1745 H 0.66194 0.04609 0.79453 0.0
H1746 H 0.57644 0.94433 0.75163 0.0
H1747 H 0.60434 0.94436 0.79369 0.0
H1748 H 0.62829 0.04145 0.72444 0.0
H1749 H 0.66476 0.0192 0.75075 0.0
H1750 H 0.64806 0.05884 0.71257 0.0
H1751 H 0.68391 0.03682 0.7383 0.0
H1752 H 0.613 -0.00095 0.70487 0.0
H1753 H 0.57997 0.99678 0.74255 0.0
H1754 H 0.5913 0.00535 0.68679 0.0
H1755 H 0.55885 0.00315 0.72383 0.0
H1756 H 0.66072 0.9611 0.70199 0.0
H1757 H 0.65775 0.00826 0.68442 0.0
H1758 H 0.5755 0.05504 0.76496 0.0
H1759 H 0.58441 0.05298 0.7154 0.0
Li1760 Li 0.7558 0.61431 0.98546 0.0
Li1761 Li 0.76392 0.63571 0.00249 0.0
Li1762 Li 0.74735 0.61527 0.01256 0.0
Li1763 Li 0.73812 0.63457 0.99363 0.0
C1764 C 0.78425 0.61039 0.00166 0.0
N1765 N 0.81545 0.60532 0.99547 0.0
C1766 C 0.79143 0.61786 0.98907 0.0
C1767 C 0.79296 0.60037 0.01111 0.0
C1768 C 0.80721 0.61515 0.98614 0.0
C1769 C 0.80871 0.59794 0.00778 0.0
C1770 C 0.75243 0.648 0.97015 0.0
C1771 C 0.74468 0.67445 0.96454 0.0
N1772 N 0.74201 0.67042 0.94944 0.0
C1773 C 0.74985 0.64418 0.95451 0.0
C1774 C 0.75005 0.66332 0.97514 0.0
C1775 C 0.74451 0.65565 0.94425 0.0
C1776 C 0.74981 0.60077 0.95678 0.0
N1777 N 0.76006 0.60024 0.96885 0.0
C1778 C 0.7744 0.57987 0.95641 0.0
C1779 C 0.77194 0.58974 0.9691 0.0
C1780 C 0.76442 0.5807 0.94345 0.0
C1781 C 0.75185 0.59116 0.94383 0.0
H1782 H 0.74002 0.6087 0.95724 0.0
H1783 H 0.77954 0.58895 0.97908 0.0
C1784 C 0.78766 0.6468 0.02205 0.0
N1785 N 0.78107 0.64863 0.00776 0.0
C1786 C 0.80052 0.65573 0.02633 0.0
C1787 C 0.8001 0.6677 0.00079 0.0
C1788 C 0.78703 0.65874 0.99711 0.0
C1789 C 0.80691 0.66627 0.01559 0.0
H1790 H 0.78301 0.63825 0.03006 0.0
H1791 H 0.78183 0.65964 0.98568 0.0
C1792 C 0.73011 0.5965 0.99242 0.0
N1793 N 0.72127 0.56563 0.99002 0.0
C1794 C 0.71533 0.59265 0.98678 0.0
C1795 C 0.74043 0.58465 0.99679 0.0
C1796 C 0.71107 0.57697 0.98567 0.0
C1797 C 0.73573 0.56912 0.99551 0.0
C1798 C 0.7493 0.6478 0.02714 0.0
C1799 C 0.75245 0.64182 0.04197 0.0
C1800 C 0.75087 0.6638 0.02445 0.0
C1801 C 0.75748 0.65188 0.05376 0.0
C1802 C 0.75595 0.67347 0.03653 0.0
N1803 N 0.75914 0.66736 0.05081 0.0
C1804 C 0.75313 0.59756 0.03971 0.0
C1805 C 0.72667 0.59885 0.03172 0.0
C1806 C 0.74913 0.58825 0.05244 0.0
N1807 N 0.7419 0.60269 0.02976 0.0
C1808 C 0.7222 0.58933 0.04409 0.0
C1809 C 0.7335 0.58399 0.05465 0.0
H1810 H 0.76513 0.6009 0.03785 0.0
H1811 H 0.71801 0.6032 0.02365 0.0
C1812 C 0.71335 0.64145 0.97368 0.0
N1813 N 0.72041 0.6459 0.98713 0.0
C1814 C 0.7003 0.64947 0.96826 0.0
C1815 C 0.70192 0.66636 0.9908 0.0
C1816 C 0.71499 0.65802 0.99575 0.0
C1817 C 0.69442 0.66211 0.97687 0.0
H1818 H 0.71792 0.63166 0.96716 0.0
H1819 H 0.72082 0.66122 0.00645 0.0
O1820 O 0.76887 0.61306 0.00499 0.0
O1821 O 0.75734 0.63684 0.98048 0.0
O1822 O 0.73444 0.61181 0.99343 0.0
O1823 O 0.74451 0.63808 0.0154 0.0
H1824 H 0.78493 0.62564 0.9816 0.0
H1825 H 0.7876 0.5945 0.0209 0.0
H1826 H 0.8129 0.62085 0.97645 0.0
H1827 H 0.81558 0.5902 0.01498 0.0
H1828 H 0.74263 0.68631 0.96832 0.0
H1829 H 0.75204 0.63253 0.95029 0.0
H1830 H 0.75221 0.66654 0.9871 0.0
H1831 H 0.74238 0.65281 0.93215 0.0
H1832 H 0.78422 0.57193 0.95659 0.0
H1833 H 0.74367 0.5919 0.93424 0.0
H1834 H 0.80569 0.65412 0.03774 0.0
H1835 H 0.80483 0.67565 0.9922 0.0
H1836 H 0.70724 0.60169 0.98329 0.0
H1837 H 0.75195 0.5874 0.00111 0.0
H1838 H 0.69966 0.57381 0.98134 0.0
H1839 H 0.74359 0.55984 -0.00114 0.0
H1840 H 0.75113 0.62955 0.04438 0.0
H1841 H 0.74827 0.66872 0.01317 0.0
H1842 H 0.76006 0.64737 0.06525 0.0
H1843 H 0.75734 0.68585 0.03455 0.0
H1844 H 0.75812 0.58433 0.06039 0.0
H1845 H 0.71 0.58642 0.04558 0.0
H1846 H 0.69473 0.64567 0.95759 0.0
H1847 H 0.69783 0.6761 0.99771 0.0
Li1848 Li 0.88007 0.51277 0.74554 0.0
Li1849 Li 0.85942 0.50345 0.76275 0.0
Li1850 Li 0.87961 0.48593 0.75327 0.0
Li1851 Li 0.85932 0.49583 0.736 0.0
C1852 C 0.89218 0.5143 0.77383 0.0
N1853 N 0.91241 0.5356 0.78704 0.0
C1854 C 0.88674 0.52508 0.78478 0.0
C1855 C 0.90793 0.51434 0.76963 0.0
C1856 C 0.89715 0.53575 0.79133 0.0
C1857 C 0.91796 0.52522 0.77643 0.0
C1858 C 0.84825 0.52422 0.73365 0.0
C1859 C 0.82329 0.52728 0.72103 0.0
N1860 N 0.82986 0.53726 0.71062 0.0
C1861 C 0.85474 0.53454 0.72284 0.0
C1862 C 0.83238 0.5206 0.73279 0.0
C1863 C 0.84524 0.54101 0.71128 0.0
C1864 C 0.90233 0.52843 0.72745 0.0
N1865 N 0.89288 0.52991 0.74006 0.0
C1866 C 0.90111 0.55621 0.74386 0.0
C1867 C 0.89196 0.54348 0.74816 0.0
C1868 C 0.91095 0.55512 0.73079 0.0
C1869 C 0.91145 0.54094 0.72255 0.0
H1870 H 0.90252 0.51763 0.72098 0.0
H1871 H 0.88404 0.54445 0.7579 0.0
C1872 C 0.85103 0.50279 0.79444 0.0
N1873 N 0.84682 0.50833 0.78021 0.0
C1874 C 0.8419 0.50601 0.80751 0.0
C1875 C 0.82419 0.52041 0.79095 0.0
C1876 C 0.83373 0.51702 0.77825 0.0
C1877 C 0.82828 0.51497 0.80587 0.0
H1878 H 0.86156 0.49595 0.79563 0.0
H1879 H 0.83069 0.5213 0.76682 0.0
C1880 C 0.89135 0.48354 0.72538 0.0
N1881 N 0.91023 0.46043 0.71329 0.0
C1882 C 0.88489 0.47155 0.71645 0.0
C1883 C 0.90741 0.48385 0.72809 0.0
C1884 C 0.89464 0.45996 0.71044 0.0
C1885 C 0.91675 0.47203 0.72191 0.0
C1886 C 0.84735 0.47575 0.76512 0.0
C1887 C 0.85364 0.46662 0.77707 0.0
C1888 C 0.83137 0.47894 0.76497 0.0
C1889 C 0.84383 0.46086 0.78871 0.0
C1890 C 0.82195 0.473 0.77685 0.0
N1891 N 0.82832 0.46416 0.78837 0.0
C1892 C 0.9044 0.46981 0.76772 0.0
C1893 C 0.88756 0.45409 0.75248 0.0
C1894 C 0.91325 0.45682 0.77186 0.0
N1895 N 0.89185 0.46821 0.75822 0.0
C1896 C 0.89606 0.44076 0.75633 0.0
C1897 C 0.90903 0.44202 0.76626 0.0
H1898 H 0.90744 0.48113 0.77227 0.0
H1899 H 0.87737 0.45317 0.7451 0.0
C1900 C 0.85111 0.49806 0.70451 0.0
N1901 N 0.84705 0.49129 0.71824 0.0
C1902 C 0.84234 0.49531 0.69111 0.0
C1903 C 0.82552 0.47846 0.7062 0.0
C1904 C 0.83461 0.48157 0.71932 0.0
C1905 C 0.82935 0.48537 0.69185 0.0
H1906 H 0.86116 0.50567 0.70403 0.0
H1907 H 0.83182 0.47615 0.73034 0.0
O1908 O 0.88214 0.50381 0.76723 0.0
O1909 O 0.85741 0.51756 0.7449 0.0
O1910 O 0.88196 0.49479 0.73167 0.0
O1911 O 0.85683 0.48181 0.75382 0.0
H1912 H 0.87458 0.52533 0.78808 0.0
H1913 H 0.91231 0.50624 0.76103 0.0
H1914 H 0.89309 0.54418 0.79978 0.0
H1915 H 0.93015 0.52544 0.77321 0.0
H1916 H 0.81104 0.52446 0.72014 0.0
H1917 H 0.86698 0.53747 0.72328 0.0
H1918 H 0.8272 0.51244 0.74089 0.0
H1919 H 0.85012 0.54897 0.70281 0.0
H1920 H 0.90041 0.56679 0.7507 0.0
H1921 H 0.91849 0.5396 0.71216 0.0
H1922 H 0.84567 0.50178 0.81879 0.0
H1923 H 0.8137 0.52718 0.78908 0.0
H1924 H 0.87247 0.47107 0.71432 0.0
H1925 H 0.91257 0.49301 0.73505 0.0
H1926 H 0.8898 0.45056 0.70357 0.0
H1927 H 0.92918 0.47206 0.724 0.0
H1928 H 0.866 0.46416 0.77747 0.0
H1929 H 0.82633 0.48619 0.75596 0.0
H1930 H 0.84855 0.45384 0.79806 0.0
H1931 H 0.80959 0.47548 0.77695 0.0
H1932 H 0.92325 0.45835 0.77941 0.0
H1933 H 0.89226 0.42955 0.75194 0.0
H1934 H 0.84564 0.50097 0.68032 0.0
H1935 H 0.81579 0.47049 0.70722 0.0
Li1936 Li 0.76512 0.36647 0.49728 0.0
Li1937 Li 0.75377 0.3869 0.51297 0.0
Li1938 Li 0.73784 0.36489 0.50383 0.0
Li1939 Li 0.74624 0.38495 0.48567 0.0
C1940 C 0.76305 0.35347 0.52697 0.0
N1941 N 0.77828 0.33091 0.54422 0.0
C1942 C 0.77166 0.35765 0.54017 0.0
C1943 C 0.76202 0.33779 0.52268 0.0
C1944 C 0.77932 0.34608 0.5487 0.0
C1945 C 0.76985 0.32656 0.53152 0.0
C1946 C 0.78227 0.39402 0.49793 0.0
C1947 C 0.80602 0.40757 0.49142 0.0
N1948 N 0.8124 0.40282 0.50514 0.0
C1949 C 0.78906 0.38931 0.51196 0.0
C1950 C 0.79079 0.40325 0.48756 0.0
C1951 C 0.8043 0.39386 0.5154 0.0
C1952 C 0.78492 0.35029 0.47749 0.0
N1953 N 0.78335 0.35471 0.49261 0.0
C1954 C 0.8074 0.34231 0.49925 0.0
C1955 C 0.79436 0.35108 0.50343 0.0
C1956 C 0.80925 0.33741 0.48373 0.0
C1957 C 0.79782 0.3416 0.47276 0.0
H1958 H 0.77614 0.35358 0.46905 0.0
H1959 H 0.79311 0.355 0.51531 0.0
C1960 C 0.75052 0.39599 0.54383 0.0
N1961 N 0.75659 0.40063 0.52998 0.0
C1962 C 0.75276 0.40498 0.55718 0.0
C1963 C 0.76703 0.42365 0.5416 0.0
C1964 C 0.76445 0.41431 0.52854 0.0
C1965 C 0.76136 0.41889 0.55622 0.0
H1966 H 0.74415 0.38513 0.54453 0.0
H1967 H 0.76896 0.41783 0.51731 0.0
C1968 C 0.74063 0.34992 0.47574 0.0
N1969 N 0.7264 0.32508 0.46097 0.0
C1970 C 0.72836 0.35251 0.46533 0.0
C1971 C 0.74588 0.33472 0.47837 0.0
C1972 C 0.72125 0.33979 0.45806 0.0
C1973 C 0.73848 0.32232 0.47086 0.0
C1974 C 0.72663 0.40228 0.50482 0.0
C1975 C 0.71162 0.40496 0.51052 0.0
C1976 C 0.73583 0.41487 0.50008 0.0
C1977 C 0.70604 0.42024 0.51142 0.0
C1978 C 0.72983 0.42997 0.50116 0.0
N1979 N 0.71519 0.43232 0.50676 0.0
C1980 C 0.72115 0.34331 0.52229 0.0
C1981 C 0.70806 0.35178 0.49949 0.0
C1982 C 0.70848 0.33405 0.52647 0.0
N1983 N 0.72079 0.35178 0.50892 0.0
C1984 C 0.69514 0.34261 0.50316 0.0
C1985 C 0.69522 0.3336 0.51684 0.0
H1986 H 0.73112 0.34401 0.52994 0.0
H1987 H 0.70783 0.3591 0.48924 0.0
C1988 C 0.75115 0.40133 0.45748 0.0
N1989 N 0.74022 0.3958 0.46752 0.0
C1990 C 0.74659 0.40876 0.44373 0.0
C1991 C 0.71966 0.40468 0.45104 0.0
C1992 C 0.72474 0.39742 0.46466 0.0
C1993 C 0.73065 0.41033 0.44031 0.0
H1994 H 0.76338 0.39972 0.46005 0.0
H1995 H 0.71634 0.39284 0.47287 0.0
O1996 O 0.75557 0.36468 0.51841 0.0
O1997 O 0.76738 0.38964 0.49426 0.0
O1998 O 0.74772 0.36224 0.48298 0.0
O1999 O 0.73222 0.38737 0.50394 0.0
H2000 H 0.77249 0.36971 0.54376 0.0
H2001 H 0.75517 0.33432 0.51271 0.0
H2002 H 0.78609 0.34916 0.55889 0.0
H2003 H 0.76918 0.31439 0.52829 0.0
H2004 H 0.81275 0.41471 0.4835 0.0
H2005 H 0.78262 0.38225 0.52013 0.0
H2006 H 0.78571 0.40704 0.47666 0.0
H2007 H 0.80969 0.39027 0.52623 0.0
H2008 H 0.81586 0.33929 0.50813 0.0
H2009 H 0.79891 0.33842 0.4606 0.0
H2010 H 0.74794 0.40101 0.56814 0.0
H2011 H 0.77382 0.43421 0.54035 0.0
H2012 H 0.72427 0.3642 0.463 0.0
H2013 H 0.75567 0.33253 0.48599 0.0
H2014 H 0.71164 0.34163 0.4501 0.0
H2015 H 0.74239 0.31049 0.47285 0.0
H2016 H 0.70437 0.39532 0.51423 0.0
H2017 H 0.74746 0.41304 0.49562 0.0
H2018 H 0.69444 0.42249 0.51582 0.0
H2019 H 0.73682 0.43982 0.49755 0.0
H2020 H 0.7089 0.32767 0.53735 0.0
H2021 H 0.68519 0.34264 0.49539 0.0
H2022 H 0.7554 0.41283 0.43567 0.0
H2023 H 0.70727 0.40581 0.4489 0.0
Li2024 Li 0.63346 0.50334 0.23365 0.0
Li2025 Li 0.61437 0.51133 0.25217 0.0
Li2026 Li 0.63383 0.49238 0.25927 0.0
Li2027 Li 0.6133 0.48551 0.24154 0.0
C2028 C 0.64064 0.52982 0.25081 0.0
N2029 N 0.64739 0.56084 0.24541 0.0
C2030 C 0.63379 0.53764 0.23824 0.0
C2031 C 0.65092 0.53778 0.26061 0.0
C2032 C 0.63735 0.55332 0.23571 0.0
C2033 C 0.65419 0.55346 0.25769 0.0
C2034 C 0.59535 0.50714 0.22624 0.0
C2035 C 0.56809 0.50586 0.23299 0.0
N2036 N 0.56432 0.51067 0.21836 0.0
C2037 C 0.5912 0.51207 0.21128 0.0
C2038 C 0.58371 0.50401 0.2372 0.0
C2039 C 0.57545 0.51379 0.20751 0.0
C2040 C 0.63904 0.50741 0.20207 0.0
N2041 N 0.64562 0.50942 0.21632 0.0
C2042 C 0.6687 0.51991 0.20486 0.0
C2043 C 0.66015 0.51552 0.21799 0.0
C2044 C 0.66208 0.51818 0.19 0.0
C2045 C 0.64707 0.51182 0.18866 0.0
H2046 H 0.6275 0.50242 0.20115 0.0
H2047 H 0.66506 0.51706 0.22949 0.0
C2048 C 0.60165 0.53012 0.27549 0.0
N2049 N 0.60272 0.52849 0.25979 0.0
C2050 C 0.59359 0.54272 0.28188 0.0
C2051 C 0.58779 0.55164 0.25577 0.0
C2052 C 0.59609 0.53896 0.2499 0.0
C2053 C 0.5865 0.55371 0.27198 0.0
H2054 H 0.60722 0.52169 0.28305 0.0
H2055 H 0.59729 0.53753 0.23745 0.0
C2056 C 0.65075 0.47639 0.23638 0.0
N2057 N 0.68096 0.4669 0.23051 0.0
C2058 C 0.65355 0.46294 0.22764 0.0
C2059 C 0.66331 0.48501 0.24215 0.0
C2060 C 0.6689 0.45833 0.2248 0.0
C2061 C 0.6785 0.48002 0.23906 0.0
C2062 C 0.60798 0.47911 0.27314 0.0
C2063 C 0.61354 0.4643 0.26921 0.0
C2064 C 0.5993 0.4811 0.28677 0.0
C2065 C 0.61031 0.45171 0.27902 0.0
C2066 C 0.59631 0.46822 0.29627 0.0
N2067 N 0.60184 0.45391 0.29223 0.0
C2068 C 0.64994 0.49493 0.28769 0.0
C2069 C 0.65124 0.4699 0.27603 0.0
C2070 C 0.65862 0.48973 0.30045 0.0
N2071 N 0.64639 0.48498 0.27589 0.0
C2072 C 0.65989 0.4642 0.28854 0.0
C2073 C 0.66357 0.47412 0.30104 0.0
H2074 H 0.64583 0.50685 0.28727 0.0
H2075 H 0.64826 0.46223 0.26649 0.0
C2076 C 0.60558 0.46274 0.22035 0.0
N2077 N 0.60049 0.46931 0.23381 0.0
C2078 C 0.59742 0.45041 0.21367 0.0
C2079 C 0.57872 0.45199 0.2347 0.0
C2080 C 0.58723 0.46438 0.24096 0.0
C2081 C 0.5839 0.44473 0.22095 0.0
H2082 H 0.61605 0.46709 0.21485 0.0
H2083 H 0.58337 0.46994 0.25159 0.0
O2084 O 0.63736 0.51446 0.25362 0.0
O2085 O 0.61077 0.50539 0.22999 0.0
O2086 O 0.63574 0.48102 0.23918 0.0
O2087 O 0.61108 0.4917 0.26385 0.0
H2088 H 0.62584 0.5317 0.23049 0.0
H2089 H 0.65633 0.53188 0.27038 0.0
H2090 H 0.63213 0.55951 0.22604 0.0
H2091 H 0.66212 0.55977 0.26519 0.0
H2092 H 0.55897 0.50348 0.24136 0.0
H2093 H 0.60007 0.51458 0.20266 0.0
H2094 H 0.58664 0.50026 0.24886 0.0
H2095 H 0.57207 0.5176 0.19597 0.0
H2096 H 0.6802 0.52491 0.20633 0.0
H2097 H 0.64167 0.51018 0.17736 0.0
H2098 H 0.59317 0.54397 0.29444 0.0
H2099 H 0.58239 0.55968 0.24767 0.0
H2100 H 0.64394 0.45613 0.2231 0.0
H2101 H 0.6614 0.49544 0.24896 0.0
H2102 H 0.67124 0.44794 0.21804 0.0
H2103 H 0.68832 0.48659 0.24344 0.0
H2104 H 0.62027 0.46251 0.25871 0.0
H2105 H 0.59493 0.4925 0.28998 0.0
H2106 H 0.61455 0.4402 0.27612 0.0
H2107 H 0.58961 0.46959 0.30686 0.0
H2108 H 0.66108 0.4977 0.30993 0.0
H2109 H 0.66364 0.45215 0.28844 0.0
H2110 H 0.60165 0.4454 0.20288 0.0
H2111 H 0.56841 0.44794 0.24074 0.0
C2112 C 0.0813 0.41145 0.27077 0.0
C2113 C 0.0761 0.42643 0.27485 0.0
C2114 C 0.07296 0.39827 0.27542 0.0
C2115 C 0.04482 0.38549 0.30522 0.0
H2116 H 0.04159 0.34874 0.27909 0.0
C2117 C 0.01158 0.33087 0.32534 0.0
C2118 C 0.01966 0.31673 0.32354 0.0
C2119 C 0.01684 0.34438 0.31794 0.0
C2120 C 0.04245 0.35891 0.28652 0.0
H2121 H 0.05779 0.43941 0.28644 0.0
H2122 H 0.04312 0.41642 0.29444 0.0
H2123 H 0.05377 0.37231 0.26878 0.0
H2124 H 0.03913 0.30548 0.31201 0.0
H2125 H 0.04842 0.32912 0.29921 0.0
H2126 H 0.03366 0.37206 0.323 0.0
C2127 C 0.05381 0.41483 0.28794 0.0
C2128 C 0.04945 0.37239 0.28064 0.0
C2129 C 0.0622 0.42799 0.28335 0.0
C2130 C 0.03278 0.31626 0.31375 0.0
C2131 C 0.038 0.32975 0.30629 0.0
C2132 C 0.03778 0.37205 0.31106 0.0
C2133 C 0.0592 0.3998 0.2842 0.0
C2134 C 0.05088 0.38578 0.29 0.0
C2135 C 0.03024 0.344 0.30854 0.0
C2136 C 0.03668 0.35856 0.30184 0.0
H2137 H 0.09206 0.40989 0.26436 0.0
H2138 H 0.07756 0.38687 0.27255 0.0
H2139 H 0.04597 0.39549 0.31284 0.0
H2140 H 0.00149 0.33161 0.33289 0.0
H2141 H 0.01055 0.35517 0.31975 0.0
C2142 C 0.92073 0.76421 0.56651 0.0
C2143 C 0.93123 0.7745 0.57376 0.0
C2144 C 0.9077 0.76995 0.55856 0.0
C2145 C 0.89176 0.80593 0.54079 0.0
H2146 H 0.85162 0.78648 0.54804 0.0
C2147 C 0.83396 0.83768 0.53008 0.0
C2148 C 0.82161 0.82937 0.52328 0.0
C2149 C 0.84765 0.83005 0.53438 0.0
C2150 C 0.86278 0.79189 0.5457 0.0
H2151 H 0.93616 0.79883 0.57854 0.0
H2152 H 0.9135 0.8088 0.56476 0.0
H2153 H 0.87513 0.77473 0.55897 0.0
H2154 H 0.81391 0.80658 0.51555 0.0
H2155 H 0.83797 0.79318 0.52311 0.0
H2156 H 0.87937 0.82331 0.52788 0.0
C2157 C 0.91548 0.79633 0.56491 0.0
C2158 C 0.87625 0.78516 0.55195 0.0
C2159 C 0.92847 0.79061 0.57283 0.0
C2160 C 0.82329 0.81328 0.52071 0.0
C2161 C 0.83698 0.8056 0.52513 0.0
C2162 C 0.87832 0.81267 0.53459 0.0
C2163 C 0.90492 0.78607 0.55771 0.0
C2164 C 0.89084 0.7923 0.54982 0.0
C2165 C 0.84929 0.81393 0.53203 0.0
C2166 C 0.86366 0.80589 0.53724 0.0
H2167 H 0.92265 0.75174 0.56689 0.0
H2168 H 0.89986 0.76176 0.553 0.0
H2169 H 0.90288 0.81153 0.53867 0.0
H2170 H 0.83307 0.85012 0.53203 0.0
H2171 H 0.85686 0.83675 0.53984 0.0
C2172 C 0.4149 0.58354 0.76575 0.0
C2173 C 0.42147 0.5687 0.76787 0.0
C2174 C 0.42261 0.59681 0.77115 0.0
C2175 C 0.45186 0.60858 0.8003 0.0
H2176 H 0.44941 0.64837 0.77896 0.0
C2177 C 0.48154 0.66387 0.82431 0.0
C2178 C 0.47213 0.67729 0.82475 0.0
C2179 C 0.47678 0.6507 0.81602 0.0
C2180 C 0.45014 0.63733 0.78506 0.0
H2181 H 0.44158 0.55613 0.77657 0.0
H2182 H 0.45521 0.57933 0.78579 0.0
H2183 H 0.43883 0.62506 0.76651 0.0
H2184 H 0.45036 0.68738 0.81672 0.0
H2185 H 0.44215 0.66444 0.80214 0.0
H2186 H 0.46306 0.62088 0.81888 0.0
C2187 C 0.44392 0.5807 0.7803 0.0
C2188 C 0.44407 0.624 0.77796 0.0
C2189 C 0.43615 0.56742 0.775 0.0
C2190 C 0.458 0.67733 0.81644 0.0
C2191 C 0.45328 0.66419 0.80809 0.0
C2192 C 0.45801 0.62189 0.80734 0.0
C2193 C 0.43712 0.59553 0.77869 0.0
C2194 C 0.44466 0.6095 0.78559 0.0
C2195 C 0.46255 0.65069 0.80793 0.0
C2196 C 0.45702 0.63643 0.79989 0.0
H2197 H 0.40351 0.58486 0.76046 0.0
H2198 H 0.41692 0.60801 0.76991 0.0
H2199 H 0.45229 0.59768 0.80664 0.0
H2200 H 0.49264 0.66355 0.83033 0.0
H2201 H 0.48424 0.64051 0.81593 0.0
C2202 C 0.57104 0.20582 0.07987 0.0
C2203 C 0.56069 0.21579 0.07204 0.0
C2204 C 0.58384 0.1995 0.07212 0.0
C2205 C 0.60926 0.20525 0.03793 0.0
H2206 H 0.62224 0.1631 0.04791 0.0
C2207 C 0.66172 0.17385 0.00856 0.0
C2208 C 0.67215 0.16692 0.01913 0.0
C2209 C 0.64735 0.17958 0.01373 0.0
C2210 C 0.61875 0.17489 0.04503 0.0
H2211 H 0.55553 0.2269 0.04994 0.0
H2212 H 0.57788 0.21566 0.03627 0.0
H2213 H 0.59826 0.1734 0.05908 0.0
H2214 H 0.67569 0.16027 0.04325 0.0
H2215 H 0.65063 0.17018 0.05225 0.0
H2216 H 0.62987 0.20662 0.02385 0.0
C2217 C 0.5762 0.21292 0.04848 0.0
C2218 C 0.60506 0.18082 0.05146 0.0
C2219 C 0.56341 0.21934 0.05628 0.0
C2220 C 0.66793 0.1657 0.0349 0.0
C2221 C 0.65354 0.17123 0.04001 0.0
C2222 C 0.62292 0.19924 0.03137 0.0
C2223 C 0.58655 0.20291 0.05632 0.0
C2224 C 0.60033 0.19619 0.04827 0.0
C2225 C 0.64312 0.17822 0.02949 0.0
C2226 C 0.62794 0.18412 0.03515 0.0
H2227 H 0.56941 0.20312 0.0921 0.0
H2228 H 0.59178 0.19214 0.07863 0.0
H2229 H 0.60602 0.21717 0.03533 0.0
H2230 H 0.66474 0.17497 0.99635 0.0
H2231 H 0.63948 0.18488 0.0054 0.0
C2232 C 0.07678 0.58271 0.23404 0.0
C2233 C 0.07009 0.56782 0.23294 0.0
C2234 C 0.06853 0.59584 0.22911 0.0
C2235 C 0.03686 0.60652 0.20223 0.0
H2236 H 0.04273 0.64747 0.22044 0.0
C2237 C 0.02555 0.6624 0.16756 0.0
C2238 C 0.01921 0.6754 0.17521 0.0
C2239 C 0.02982 0.64915 0.17595 0.0
C2240 C 0.04076 0.6361 0.21533 0.0
H2241 H 0.04922 0.55504 0.22672 0.0
H2242 H 0.03464 0.57801 0.21838 0.0
H2243 H 0.05313 0.62459 0.2337 0.0
H2244 H 0.01213 0.68466 0.19763 0.0
H2245 H 0.01949 0.66139 0.21236 0.0
H2246 H 0.02441 0.61797 0.18395 0.0
C2247 C 0.04642 0.57952 0.22267 0.0
C2248 C 0.04689 0.62299 0.22284 0.0
C2249 C 0.05473 0.56637 0.22747 0.0
C2250 C 0.01713 0.67485 0.19145 0.0
C2251 C 0.02135 0.66154 0.19987 0.0
C2252 C 0.03067 0.61959 0.19479 0.0
C2253 C 0.05334 0.59437 0.22309 0.0
C2254 C 0.04531 0.60809 0.21619 0.0
C2255 C 0.02778 0.64855 0.19221 0.0
C2256 C 0.03287 0.63456 0.20105 0.0
H2257 H 0.08867 0.58414 0.23807 0.0
H2258 H 0.07433 0.60704 0.22939 0.0
H2259 H 0.03553 0.59526 0.19668 0.0
H2260 H 0.02757 0.66258 0.15509 0.0
H2261 H 0.03507 0.63951 0.16972 0.0
C2262 C 0.57201 0.78754 0.43195 0.0
C2263 C 0.57032 0.77167 0.4283 0.0
C2264 C 0.58503 0.79279 0.44012 0.0
C2265 C 0.62567 0.7827 0.44888 0.0
H2266 H 0.62146 0.81622 0.47894 0.0
C2267 C 0.67855 0.81064 0.48037 0.0
C2268 C 0.67877 0.827 0.47968 0.0
C2269 C 0.66516 0.80241 0.47605 0.0
C2270 C 0.6228 0.80686 0.47057 0.0
H2271 H 0.58085 0.74881 0.43056 0.0
H2272 H 0.60371 0.75801 0.44491 0.0
H2273 H 0.59817 0.80426 0.46788 0.0
H2274 H 0.66509 0.84761 0.47448 0.0
H2275 H 0.64176 0.83328 0.46695 0.0
H2276 H 0.65034 0.78552 0.45142 0.0
C2277 C 0.59499 0.76639 0.44129 0.0
C2278 C 0.60949 0.80004 0.46421 0.0
C2279 C 0.58192 0.76113 0.43307 0.0
C2280 C 0.66529 0.83499 0.47496 0.0
C2281 C 0.65189 0.8268 0.47082 0.0
C2282 C 0.63901 0.78949 0.45531 0.0
C2283 C 0.59668 0.78229 0.44487 0.0
C2284 C 0.61077 0.78817 0.45299 0.0
C2285 C 0.65172 0.81043 0.4712 0.0
C2286 C 0.63769 0.8019 0.46592 0.0
H2287 H 0.56342 0.796 0.42817 0.0
H2288 H 0.58614 0.80516 0.44237 0.0
H2289 H 0.62705 0.77367 0.44017 0.0
H2290 H 0.68883 0.80422 0.4839 0.0
H2291 H 0.6653 0.78979 0.4765 0.0
C2292 C 0.46155 0.32755 0.65486 0.0
C2293 C 0.47095 0.31733 0.66358 0.0
C2294 C 0.45497 0.34069 0.6618 0.0
C2295 C 0.45928 0.36786 0.69439 0.0
H2296 H 0.41566 0.3767 0.68646 0.0
C2297 C 0.4264 0.41838 0.72476 0.0
C2298 C 0.4159 0.42694 0.71553 0.0
C2299 C 0.4332 0.40471 0.71905 0.0
C2300 C 0.42789 0.37451 0.68866 0.0
H2301 H 0.48083 0.313 0.68648 0.0
H2302 H 0.46951 0.33618 0.69853 0.0
H2303 H 0.42755 0.35351 0.67521 0.0
H2304 H 0.40419 0.42772 0.6931 0.0
H2305 H 0.41643 0.4043 0.68298 0.0
H2306 H 0.45972 0.38903 0.70759 0.0
C2307 C 0.46731 0.33396 0.6863 0.0
C2308 C 0.43468 0.36121 0.68224 0.0
C2309 C 0.47382 0.32073 0.67937 0.0
C2310 C 0.4124 0.42156 0.70045 0.0
C2311 C 0.41924 0.40797 0.69473 0.0
C2312 C 0.45251 0.38126 0.70073 0.0
C2313 C 0.45772 0.34399 0.6776 0.0
C2314 C 0.45046 0.35782 0.68493 0.0
C2315 C 0.42966 0.39934 0.70397 0.0
C2316 C 0.43677 0.3848 0.69782 0.0
H2317 H 0.45937 0.32548 0.64259 0.0
H2318 H 0.44783 0.34837 0.65476 0.0
H2319 H 0.47151 0.36558 0.69655 0.0
H2320 H 0.42946 0.42228 0.73637 0.0
H2321 H 0.44107 0.39827 0.72653 0.0
C2322 C 0.92666 0.22883 0.93836 0.0
C2323 C 0.92633 0.22882 0.92195 0.0
C2324 C 0.9133 0.22512 0.94692 0.0
C2325 C 0.87056 0.22293 0.94381 0.0
H2326 H 0.87362 0.19159 0.97625 0.0
C2327 C 0.81797 0.18724 0.96388 0.0
C2328 C 0.81667 0.18291 0.97962 0.0
C2329 C 0.83117 0.19503 0.95852 0.0
C2330 C 0.87259 0.20059 0.96745 0.0
H2331 H 0.91168 0.22469 0.90173 0.0
H2332 H 0.8884 0.2185 0.91663 0.0
H2333 H 0.89727 0.20127 0.96376 0.0
H2334 H 0.82804 0.18375 0.00219 0.0
H2335 H 0.85121 0.19743 0.99279 0.0
H2336 H 0.8459 0.22211 0.94727 0.0
C2337 C 0.89894 0.22156 0.92287 0.0
C2338 C 0.88613 0.2061 0.96028 0.0
C2339 C 0.9123 0.22513 0.91433 0.0
C2340 C 0.82878 0.1868 0.98996 0.0
C2341 C 0.84203 0.19463 0.98458 0.0
C2342 C 0.85704 0.2175 0.95102 0.0
C2343 C 0.89931 0.22147 0.93924 0.0
C2344 C 0.8852 0.21703 0.94812 0.0
C2345 C 0.84342 0.1987 0.96876 0.0
C2346 C 0.85787 0.20596 0.96263 0.0
H2347 H 0.93721 0.23183 0.94461 0.0
H2348 H 0.91387 0.22523 0.95953 0.0
H2349 H 0.86954 0.23157 0.93465 0.0
H2350 H 0.80901 0.18414 0.95554 0.0
H2351 H 0.832 0.19768 0.9462 0.0
C2352 C 0.26123 0.06652 0.41956 0.0
C2353 C 0.27126 0.07494 0.42942 0.0
C2354 C 0.26704 0.05907 0.40626 0.0
C2355 C 0.30357 0.04381 0.38968 0.0
H2356 H 0.28282 0.04806 0.34973 0.0
C2357 C 0.33472 0.03065 0.33214 0.0
C2358 C 0.32642 0.02299 0.32029 0.0
C2359 C 0.32713 0.03575 0.34558 0.0
C2360 C 0.28862 0.04656 0.36085 0.0
H2361 H 0.29513 0.08265 0.43269 0.0
H2362 H 0.30522 0.0696 0.40967 0.0
H2363 H 0.27091 0.05926 0.37307 0.0
H2364 H 0.30362 0.0147 0.31321 0.0
H2365 H 0.29035 0.02346 0.33687 0.0
H2366 H 0.32135 0.03129 0.37753 0.0
C2367 C 0.29294 0.06847 0.41237 0.0
C2368 C 0.28181 0.05298 0.3742 0.0
C2369 C 0.28715 0.07593 0.42557 0.0
C2370 C 0.31035 0.02047 0.3222 0.0
C2371 C 0.30273 0.02561 0.33567 0.0
C2372 C 0.31035 0.03738 0.37639 0.0
C2373 C 0.28299 0.05988 0.40262 0.0
C2374 C 0.28938 0.05193 0.38869 0.0
C2375 C 0.31106 0.03329 0.3475 0.0
C2376 C 0.30311 0.03895 0.36177 0.0
H2377 H 0.24895 0.06546 0.42227 0.0
H2378 H 0.25911 0.05247 0.39898 0.0
H2379 H 0.30952 0.04255 0.40076 0.0
H2380 H 0.34715 0.03261 0.33111 0.0
H2381 H 0.33385 0.04181 0.35438 0.0
C2382 C 0.18726 0.01649 0.67642 0.0
C2383 C 0.17108 0.01396 0.67594 0.0
C2384 C 0.19516 0.02191 0.66325 0.0
C2385 C 0.19163 0.02716 0.62052 0.0
H2386 H 0.21961 0.062 0.62731 0.0
C2387 C 0.22355 0.05803 0.56988 0.0
C2388 C 0.2231 0.07441 0.57024 0.0
C2389 C 0.21888 0.04934 0.58283 0.0
C2390 C 0.21183 0.05228 0.62523 0.0
H2391 H 0.15056 0.01485 0.66117 0.0
H2392 H 0.16433 0.02426 0.63824 0.0
H2393 H 0.20818 0.04864 0.64962 0.0
H2394 H 0.21735 0.0945 0.58448 0.0
H2395 H 0.20924 0.07936 0.60706 0.0
H2396 H 0.19483 0.0312 0.59611 0.0
C2397 C 0.17095 0.02186 0.64871 0.0
C2398 C 0.20543 0.04451 0.63801 0.0
C2399 C 0.16306 0.01647 0.66187 0.0
C2400 C 0.21807 0.08191 0.5839 0.0
C2401 C 0.21343 0.07323 0.59685 0.0
C2402 C 0.19807 0.03491 0.60774 0.0
C2403 C 0.18704 0.02488 0.64933 0.0
C2404 C 0.19504 0.03204 0.63579 0.0
C2405 C 0.21369 0.05686 0.59643 0.0
C2406 C 0.20801 0.04774 0.60996 0.0
H2407 H 0.19381 0.01441 0.68702 0.0
H2408 H 0.2076 0.02392 0.66401 0.0
H2409 H 0.18379 0.01748 0.61845 0.0
H2410 H 0.22761 0.05191 0.5596 0.0
H2411 H 0.21937 0.03674 0.58224 0.0
C2412 C 0.18843 0.97964 0.82003 0.0
C2413 C 0.17211 0.98111 0.82061 0.0
C2414 C 0.19695 0.9766 0.83359 0.0
C2415 C 0.19459 0.97769 0.87665 0.0
H2416 H 0.22412 0.94353 0.87473 0.0
C2417 C 0.21254 0.94191 0.93027 0.0
C2418 C 0.22766 0.93568 0.93105 0.0
C2419 C 0.20773 0.9503 0.91718 0.0
C2420 C 0.21618 0.95332 0.87544 0.0
H2421 H 0.15198 0.98056 0.83592 0.0
H2422 H 0.16683 0.97537 0.85951 0.0
H2423 H 0.21205 0.95299 0.85085 0.0
H2424 H 0.24991 0.93416 0.91919 0.0
H2425 H 0.24154 0.94891 0.89631 0.0
H2426 H 0.19844 0.97777 0.9013 0.0
C2427 C 0.17306 0.97679 0.84862 0.0
C2428 C 0.20924 0.95872 0.86174 0.0
C2429 C 0.16455 0.97976 0.83508 0.0
C2430 C 0.2381 0.93862 0.91879 0.0
C2431 C 0.23331 0.94705 0.9057 0.0
C2432 C 0.20157 0.97233 0.89035 0.0
C2433 C 0.18933 0.97504 0.84801 0.0
C2434 C 0.19809 0.9707 0.86225 0.0
C2435 C 0.21796 0.95268 0.9046 0.0
C2436 C 0.21216 0.95983 0.88994 0.0
H2437 H 0.19463 0.98087 0.80911 0.0
H2438 H 0.20949 0.97544 0.8328 0.0
H2439 H 0.18622 0.98713 0.87735 0.0
H2440 H 0.20415 0.93967 0.93944 0.0
H2441 H 0.19576 0.95426 0.91663 0.0
C2442 C 0.26698 0.93189 0.07587 0.0
C2443 C 0.26355 0.91593 0.07449 0.0
C2444 C 0.27173 0.93812 0.09015 0.0
C2445 C 0.29034 0.92626 0.12683 0.0
H2446 H 0.27799 0.96741 0.14088 0.0
C2447 C 0.31214 0.95103 0.18504 0.0
C2448 C 0.31779 0.96639 0.18459 0.0
C2449 C 0.30358 0.94502 0.17258 0.0
C2450 C 0.28159 0.95593 0.13705 0.0
H2451 H 0.26214 0.89405 0.08712 0.0
H2452 H 0.27009 0.90499 0.11208 0.0
H2453 H 0.26643 0.95654 0.11721 0.0
H2454 H 0.31854 0.98765 0.17093 0.0
H2455 H 0.30361 0.97714 0.14912 0.0
H2456 H 0.30567 0.9257 0.14645 0.0
C2457 C 0.2693 0.91265 0.10207 0.0
C2458 C 0.27498 0.94971 0.12351 0.0
C2459 C 0.26456 0.90642 0.0878 0.0
C2460 C 0.31422 0.97581 0.17167 0.0
C2461 C 0.30566 0.96979 0.15919 0.0
C2462 C 0.29692 0.93245 0.14034 0.0
C2463 C 0.27315 0.92852 0.10335 0.0
C2464 C 0.2794 0.93485 0.11819 0.0
C2465 C 0.30049 0.95425 0.15939 0.0
C2466 C 0.29272 0.94741 0.14554 0.0
H2467 H 0.26611 0.93956 0.06588 0.0
H2468 H 0.27474 0.95036 0.09071 0.0
H2469 H 0.29421 0.9149 0.1229 0.0
H2470 H 0.31446 0.94359 0.19498 0.0
H2471 H 0.2995 0.93309 0.1732 0.0
C2472 C 0.31304 0.30879 0.0377 0.0
C2473 C 0.31081 0.31283 0.02198 0.0
C2474 C 0.32548 0.29931 0.04212 0.0
C2475 C 0.36476 0.28856 0.02979 0.0
H2476 H 0.36141 0.25915 0.06397 0.0
C2477 C 0.41878 0.25862 0.05684 0.0
C2478 C 0.41941 0.2596 0.0732 0.0
C2479 C 0.405 0.26216 0.04886 0.0
C2480 C 0.36252 0.26731 0.05439 0.0
H2481 H 0.31955 0.30953 0.99848 0.0
H2482 H 0.34144 0.29302 0.00626 0.0
H2483 H 0.33784 0.27058 0.05286 0.0
H2484 H 0.40601 0.26504 0.09397 0.0
H2485 H 0.38208 0.27102 0.08011 0.0
H2486 H 0.38947 0.28567 0.03167 0.0
C2487 C 0.3336 0.29735 0.01516 0.0
C2488 C 0.34904 0.27385 0.04805 0.0
C2489 C 0.3211 0.30682 0.01072 0.0
C2490 C 0.40588 0.26386 0.0814 0.0
C2491 C 0.39213 0.26729 0.07345 0.0
C2492 C 0.37825 0.28199 0.03613 0.0
C2493 C 0.33602 0.29366 0.03094 0.0
C2494 C 0.35005 0.2849 0.03599 0.0
C2495 C 0.39158 0.26664 0.0571 0.0
C2496 C 0.37728 0.27166 0.04881 0.0
H2497 H 0.3055 0.31342 0.04671 0.0
H2498 H 0.32719 0.29694 0.05441 0.0
H2499 H 0.36594 0.29714 0.02061 0.0
H2500 H 0.42893 0.25517 0.05019 0.0
H2501 H 0.40486 0.26146 0.03625 0.0
C2502 C 0.98183 0.8255 0.17951 0.0
C2503 C 0.97496 0.81944 0.16591 0.0
C2504 C 0.9765 0.83951 0.18593 0.0
C2505 C 0.9538 0.8749 0.17589 0.0
H2506 H 0.94832 0.87856 0.22062 0.0
C2507 C 0.91529 0.92196 0.20369 0.0
C2508 C 0.92119 0.92997 0.21672 0.0
C2509 C 0.92308 0.90902 0.1977 0.0
C2510 C 0.94998 0.87776 0.20813 0.0
H2511 H 0.95731 0.82353 0.14825 0.0
H2512 H 0.94773 0.84757 0.15967 0.0
H2513 H 0.95974 0.85485 0.20973 0.0
H2514 H 0.94001 0.93058 0.23365 0.0
H2515 H 0.95345 0.90768 0.22332 0.0
H2516 H 0.94364 0.89762 0.17427 0.0
C2517 C 0.95737 0.84166 0.16528 0.0
C2518 C 0.95654 0.86421 0.20189 0.0
C2519 C 0.96272 0.82772 0.15886 0.0
C2520 C 0.93502 0.92458 0.22372 0.0
C2521 C 0.94276 0.91151 0.2178 0.0
C2522 C 0.94715 0.88836 0.18211 0.0
C2523 C 0.96421 0.84775 0.17887 0.0
C2524 C 0.9583 0.86253 0.18567 0.0
C2525 C 0.93689 0.90367 0.20468 0.0
C2526 C 0.94497 0.88983 0.19827 0.0
H2527 H 0.99121 0.81933 0.1853 0.0
H2528 H 0.9821 0.84394 0.19634 0.0
H2529 H 0.95532 0.87414 0.16338 0.0
H2530 H 0.90449 0.92553 0.19822 0.0
H2531 H 0.91815 0.90301 0.18775 0.0
C2532 C 0.17045 0.6868 0.51028 0.0
C2533 C 0.18092 0.68066 0.52132 0.0
C2534 C 0.15777 0.69587 0.51508 0.0
C2535 C 0.14332 0.71903 0.54842 0.0
H2536 H 0.1022 0.70851 0.53287 0.0
C2537 C 0.08771 0.73078 0.58308 0.0
C2538 C 0.07415 0.73552 0.57521 0.0
C2539 C 0.10112 0.72686 0.5748 0.0
C2540 C 0.11363 0.71182 0.53711 0.0
H2541 H 0.18607 0.67898 0.54604 0.0
H2542 H 0.16415 0.69482 0.55433 0.0
H2543 H 0.12517 0.6964 0.52122 0.0
H2544 H 0.06422 0.74034 0.55244 0.0
H2545 H 0.08769 0.73322 0.53792 0.0
H2546 H 0.13178 0.73404 0.56464 0.0
C2547 C 0.16588 0.6929 0.54197 0.0
C2548 C 0.12677 0.70488 0.53044 0.0
C2549 C 0.17845 0.68381 0.53721 0.0
C2550 C 0.07441 0.73652 0.55884 0.0
C2551 C 0.08784 0.73249 0.55052 0.0
C2552 C 0.13021 0.72595 0.55507 0.0
C2553 C 0.15539 0.69902 0.53098 0.0
C2554 C 0.14171 0.70807 0.53636 0.0
C2555 C 0.10128 0.72751 0.55843 0.0
C2556 C 0.11521 0.72206 0.5498 0.0
H2557 H 0.17213 0.68471 0.49795 0.0
H2558 H 0.1499 0.7005 0.50636 0.0
H2559 H 0.15472 0.72194 0.553 0.0
H2560 H 0.08785 0.72958 0.59565 0.0
H2561 H 0.1112 0.72277 0.58121 0.0
C2562 C 0.98015 0.65979 0.66272 0.0
C2563 C 0.97535 0.67481 0.66725 0.0
C2564 C 0.97485 0.64663 0.67069 0.0
C2565 C 0.9546 0.63431 0.70724 0.0
H2566 H 0.94588 0.59707 0.68314 0.0
C2567 C 0.91409 0.58399 0.72672 0.0
C2568 C 0.92014 0.56879 0.72536 0.0
C2569 C 0.92232 0.59674 0.72085 0.0
C2570 C 0.94842 0.60735 0.69002 0.0
H2571 H 0.96141 0.68763 0.68404 0.0
H2572 H 0.9514 0.66475 0.6972 0.0
H2573 H 0.95712 0.61972 0.67028 0.0
H2574 H 0.94 0.5553 0.71726 0.0
H2575 H 0.95395 0.57756 0.70637 0.0
H2576 H 0.94502 0.622 0.72679 0.0
C2577 C 0.95963 0.66311 0.68778 0.0
C2578 C 0.95495 0.62033 0.6827 0.0
C2579 C 0.96515 0.67628 0.68 0.0
C2580 C 0.93478 0.56675 0.71821 0.0
C2581 C 0.94285 0.57948 0.71208 0.0
C2582 C 0.94779 0.62141 0.71448 0.0
C2583 C 0.96437 0.64809 0.68321 0.0
C2584 C 0.95805 0.63403 0.69119 0.0
C2585 C 0.93662 0.59454 0.71326 0.0
C2586 C 0.9446 0.60788 0.7059 0.0
H2587 H 0.98782 0.65812 0.65285 0.0
H2588 H 0.97898 0.6353 0.66697 0.0
H2589 H 0.95713 0.64449 0.71426 0.0
H2590 H 0.90276 0.58606 0.73186 0.0
H2591 H 0.91723 0.60827 0.72174 0.0
C2592 C 0.18003 0.18054 0.45803 0.0
C2593 C 0.18012 0.17408 0.47309 0.0
C2594 C 0.167 0.1886 0.45254 0.0
C2595 C 0.12471 0.19209 0.45912 0.0
H2596 H 0.12866 0.22805 0.432 0.0
C2597 C 0.07103 0.22479 0.43549 0.0
C2598 C 0.07115 0.22774 0.41936 0.0
C2599 C 0.08457 0.21993 0.44312 0.0
C2600 C 0.1274 0.21799 0.43953 0.0
H2601 H 0.16658 0.17121 0.49426 0.0
H2602 H 0.14403 0.18565 0.48486 0.0
H2603 H 0.15197 0.21648 0.44355 0.0
H2604 H 0.0857 0.22811 0.39867 0.0
H2605 H 0.10933 0.21978 0.41202 0.0
H2606 H 0.10017 0.19352 0.455 0.0
C2607 C 0.15397 0.18428 0.4772 0.0
C2608 C 0.14073 0.21134 0.44611 0.0
C2609 C 0.16698 0.17616 0.48266 0.0
C2610 C 0.08524 0.22616 0.41113 0.0
C2611 C 0.09878 0.22137 0.41878 0.0
C2612 C 0.11139 0.19878 0.45261 0.0
C2613 C 0.15375 0.19044 0.46201 0.0
C2614 C 0.13956 0.19819 0.45582 0.0
C2615 C 0.09854 0.21799 0.4348 0.0
C2616 C 0.11261 0.21168 0.44259 0.0
H2617 H 0.19004 0.17932 0.45043 0.0
H2618 H 0.16717 0.19305 0.44073 0.0
H2619 H 0.12339 0.18182 0.46634 0.0
H2620 H 0.06045 0.22617 0.44223 0.0
H2621 H 0.0841 0.21761 0.45553 0.0
C2622 C 0.58393 0.4186 0.20797 0.0
C2623 C 0.5755 0.43114 0.2143 0.0
C2624 C 0.57619 0.40598 0.2013 0.0
C2625 C 0.53909 0.3849 0.20081 0.0
H2626 H 0.5548 0.36876 0.16161 0.0
C2627 C 0.50943 0.33409 0.16748 0.0
C2628 C 0.51951 0.32283 0.16112 0.0
C2629 C 0.51538 0.34792 0.17372 0.0
C2630 C 0.55035 0.37304 0.17262 0.0
H2631 H 0.55229 0.44015 0.21874 0.0
H2632 H 0.53873 0.41789 0.20719 0.0
H2633 H 0.56677 0.39177 0.17312 0.0
H2634 H 0.54369 0.31736 0.15614 0.0
H2635 H 0.55406 0.34121 0.16735 0.0
H2636 H 0.52283 0.36597 0.20043 0.0
C2637 C 0.55136 0.4179 0.20745 0.0
C2638 C 0.55719 0.38623 0.1792 0.0
C2639 C 0.55912 0.43061 0.21408 0.0
C2640 C 0.53562 0.32569 0.16114 0.0
C2641 C 0.54155 0.33947 0.16737 0.0
C2642 C 0.53226 0.37164 0.19425 0.0
C2643 C 0.55984 0.40553 0.20086 0.0
C2644 C 0.5518 0.39216 0.19347 0.0
C2645 C 0.53151 0.35078 0.17367 0.0
C2646 C 0.53798 0.36543 0.1802 0.0
H2647 H 0.59654 0.41846 0.20828 0.0
H2648 H 0.58303 0.39646 0.1966 0.0
H2649 H 0.53477 0.38918 0.21188 0.0
H2650 H 0.49696 0.33216 0.16773 0.0
H2651 H 0.50734 0.35645 0.1784 0.0
C2652 C 0.32289 0.83645 0.95335 0.0
C2653 C 0.31857 0.83466 0.96904 0.0
C2654 C 0.33679 0.83004 0.94787 0.0
C2655 C 0.36504 0.79917 0.9549 0.0
H2656 H 0.39279 0.82499 0.93028 0.0
C2657 C 0.42469 0.77664 0.93311 0.0
C2658 C 0.4293 0.78122 0.91809 0.0
C2659 C 0.41162 0.78338 0.94013 0.0
C2660 C 0.38509 0.81755 0.93696 0.0
H2661 H 0.3252 0.82463 0.99126 0.0
H2662 H 0.34952 0.81316 0.98156 0.0
H2663 H 0.36893 0.83616 0.94089 0.0
H2664 H 0.42374 0.79614 0.89848 0.0
H2665 H 0.40075 0.80762 0.91049 0.0
H2666 H 0.38088 0.78041 0.9506 0.0
C2667 C 0.34215 0.8196 0.97358 0.0
C2668 C 0.37147 0.82398 0.94308 0.0
C2669 C 0.32833 0.82621 0.97912 0.0
C2670 C 0.42058 0.79259 0.91018 0.0
C2671 C 0.40744 0.79919 0.9171 0.0
C2672 C 0.37858 0.79266 0.94861 0.0
C2673 C 0.34654 0.82156 0.95793 0.0
C2674 C 0.36127 0.81483 0.95201 0.0
C2675 C 0.4028 0.79472 0.93219 0.0
C2676 C 0.38872 0.80175 0.93945 0.0
H2677 H 0.31564 0.84303 0.94537 0.0
H2678 H 0.33986 0.8316 0.93572 0.0
H2679 H 0.35728 0.79185 0.96165 0.0
H2680 H 0.43131 0.76799 0.9395 0.0
H2681 H 0.40854 0.77982 0.95184 0.0
C2682 C 0.92258 0.42643 0.78688 0.0
C2683 C 0.91771 0.42794 0.77131 0.0
C2684 C 0.93037 0.41306 0.79185 0.0
C2685 C 0.93564 0.37171 0.78253 0.0
H2686 H 0.96959 0.37493 0.81222 0.0
C2687 C 0.96749 0.31764 0.80759 0.0
C2688 C 0.96968 0.31783 0.82383 0.0
C2689 C 0.96253 0.33107 0.79978 0.0
C2690 C 0.96009 0.37385 0.80398 0.0
H2691 H 0.91745 0.41668 0.74867 0.0
H2692 H 0.93105 0.3932 0.75741 0.0
H2693 H 0.95848 0.39854 0.80095 0.0
H2694 H 0.96883 0.33229 0.84455 0.0
H2695 H 0.96 0.3556 0.831 0.0
H2696 H 0.93707 0.347 0.78581 0.0
C2697 C 0.92869 0.40236 0.76578 0.0
C2698 C 0.95373 0.38736 0.79753 0.0
C2699 C 0.9209 0.41578 0.76078 0.0
C2700 C 0.96705 0.33173 0.83206 0.0
C2701 C 0.96218 0.34514 0.82427 0.0
C2702 C 0.94202 0.35817 0.78898 0.0
C2703 C 0.93348 0.40086 0.78138 0.0
C2704 C 0.94123 0.38645 0.78698 0.0
C2705 C 0.95981 0.34495 0.80806 0.0
C2706 C 0.95409 0.35913 0.80001 0.0
H2707 H 0.92003 0.43543 0.79536 0.0
H2708 H 0.93363 0.41213 0.80402 0.0
H2709 H 0.92592 0.37064 0.77454 0.0
H2710 H 0.96935 0.30706 0.80097 0.0
H2711 H 0.96088 0.33061 0.78727 0.0
C2712 C 0.33214 0.15502 0.53646 0.0
C2713 C 0.32191 0.16362 0.52697 0.0
C2714 C 0.3463 0.16139 0.54125 0.0
C2715 C 0.36661 0.19882 0.54675 0.0
H2716 H 0.4032 0.17233 0.54888 0.0
C2717 C 0.42734 0.22195 0.5648 0.0
C2718 C 0.43522 0.2129 0.57597 0.0
C2719 C 0.41399 0.21621 0.55742 0.0
C2720 C 0.39306 0.17985 0.5484 0.0
H2721 H 0.31852 0.18572 0.51514 0.0
H2722 H 0.34346 0.19674 0.52325 0.0
H2723 H 0.3789 0.16189 0.53852 0.0
H2724 H 0.43518 0.19073 0.58819 0.0
H2725 H 0.41209 0.18069 0.57517 0.0
H2726 H 0.38083 0.21675 0.55672 0.0
C2727 C 0.34041 0.18512 0.52712 0.0
C2728 C 0.37914 0.17387 0.54251 0.0
C2729 C 0.3262 0.17874 0.52235 0.0
C2730 C 0.42959 0.1979 0.57943 0.0
C2731 C 0.41633 0.19215 0.57199 0.0
C2732 C 0.38058 0.20482 0.55258 0.0
C2733 C 0.35063 0.17649 0.5366 0.0
C2734 C 0.36568 0.18321 0.54185 0.0
C2735 C 0.40833 0.20128 0.56099 0.0
C2736 C 0.39388 0.19532 0.55368 0.0
H2737 H 0.32929 0.14326 0.54006 0.0
H2738 H 0.35379 0.15452 0.54874 0.0
H2739 H 0.35642 0.20627 0.54656 0.0
H2740 H 0.43149 0.23346 0.5617 0.0
H2741 H 0.40814 0.22343 0.54886 0.0
C2742 C 0.52807 0.67586 0.31742 0.0
C2743 C 0.52264 0.67562 0.33288 0.0
C2744 C 0.53389 0.66233 0.31047 0.0
C2745 C 0.55015 0.62366 0.32085 0.0
H2746 H 0.54432 0.61516 0.27682 0.0
C2747 C 0.56915 0.56589 0.29221 0.0
C2748 C 0.57803 0.56735 0.2785 0.0
C2749 C 0.56157 0.57881 0.29857 0.0
C2750 C 0.54607 0.61745 0.28912 0.0
H2751 H 0.51895 0.6608 0.35308 0.0
H2752 H 0.52836 0.63716 0.34076 0.0
H2753 H 0.53218 0.63815 0.28843 0.0
H2754 H 0.58587 0.58364 0.26078 0.0
H2755 H 0.57229 0.60608 0.27172 0.0
H2756 H 0.56386 0.60283 0.32153 0.0
C2757 C 0.52848 0.64788 0.33409 0.0
C2758 C 0.53918 0.63063 0.29577 0.0
C2759 C 0.52283 0.66143 0.34108 0.0
C2760 C 0.57892 0.582 0.27119 0.0
C2761 C 0.57119 0.59488 0.27746 0.0
C2762 C 0.55687 0.61041 0.31424 0.0
C2763 C 0.5343 0.64819 0.31878 0.0
C2764 C 0.54121 0.63395 0.31171 0.0
C2765 C 0.56256 0.59343 0.29128 0.0
C2766 C 0.55497 0.60723 0.29831 0.0
H2767 H 0.5279 0.68652 0.31066 0.0
H2768 H 0.53841 0.66306 0.29871 0.0
H2769 H 0.55225 0.62599 0.33308 0.0
H2770 H 0.56795 0.55473 0.29799 0.0
H2771 H 0.55483 0.57735 0.30915 0.0
C2772 C 0.07273 0.78782 0.07328 0.0
C2773 C 0.07227 0.77202 0.07753 0.0
C2774 C 0.08514 0.79362 0.0645 0.0
C2775 C 0.12607 0.78653 0.05544 0.0
H2776 H 0.11843 0.81393 0.02029 0.0
C2777 C 0.17661 0.81074 0.01856 0.0
C2778 C 0.1756 0.82652 0.01433 0.0
C2779 C 0.1637 0.80304 0.02479 0.0
C2780 C 0.12077 0.80641 0.03016 0.0
H2781 H 0.08441 0.74991 0.07609 0.0
H2782 H 0.10623 0.7601 0.06083 0.0
H2783 H 0.09646 0.80265 0.03438 0.0
H2784 H 0.16031 0.84661 0.0132 0.0
H2785 H 0.13787 0.8333 0.02432 0.0
H2786 H 0.15033 0.79061 0.05162 0.0
C2787 C 0.09696 0.76796 0.06426 0.0
C2788 C 0.10819 0.79993 0.03819 0.0
C2789 C 0.08446 0.76213 0.07289 0.0
C2790 C 0.16135 0.83437 0.01614 0.0
C2791 C 0.14848 0.82672 0.02249 0.0
C2792 C 0.13866 0.79311 0.04751 0.0
C2793 C 0.09739 0.78376 0.05995 0.0
C2794 C 0.11072 0.79004 0.05098 0.0
C2795 C 0.14954 0.81101 0.02707 0.0
C2796 C 0.13616 0.80324 0.03485 0.0
H2797 H 0.0634 0.79566 0.07659 0.0
H2798 H 0.08526 0.80588 0.06146 0.0
H2799 H 0.12834 0.77906 0.06538 0.0
H2800 H 0.18743 0.80439 0.01712 0.0
H2801 H 0.16484 0.79086 0.02792 0.0
C2802 C 0.73329 0.92479 0.58371 0.0
C2803 C 0.72647 0.92768 0.56909 0.0
C2804 C 0.72774 0.9323 0.59703 0.0
C2805 C 0.7041 0.96563 0.6107 0.0
H2806 H 0.69678 0.93924 0.64666 0.0
C2807 C 0.66528 0.98414 0.66256 0.0
C2808 C 0.66982 0.97941 0.67757 0.0
C2809 C 0.67344 0.97895 0.64946 0.0
C2810 C 0.69897 0.94685 0.63683 0.0
H2811 H 0.70893 0.94119 0.55688 0.0
H2812 H 0.69909 0.95416 0.58021 0.0
H2813 H 0.70902 0.92832 0.62355 0.0
H2814 H 0.68687 0.96614 0.6907 0.0
H2815 H 0.70119 0.95718 0.66786 0.0
H2816 H 0.69388 0.98414 0.62398 0.0
C2817 C 0.70878 0.94615 0.58134 0.0
C2818 C 0.70599 0.94058 0.62357 0.0
C2819 C 0.7143 0.9386 0.56801 0.0
C2820 C 0.68294 0.96975 0.67925 0.0
C2821 C 0.69113 0.96461 0.66617 0.0
C2822 C 0.6971 0.97193 0.624 0.0
C2823 C 0.71527 0.94289 0.59602 0.0
C2824 C 0.70854 0.94987 0.61033 0.0
C2825 C 0.68634 0.96897 0.65111 0.0
C2826 C 0.69437 0.96257 0.63718 0.0
H2827 H 0.7426 0.91634 0.58494 0.0
H2828 H 0.73309 0.92968 0.60817 0.0
H2829 H 0.70607 0.97311 0.60072 0.0
H2830 H 0.65513 0.99147 0.66091 0.0
H2831 H 0.66934 0.98237 0.63801 0.0
C2832 C 0.8174 0.98269 0.32522 0.0
C2833 C 0.82713 0.97322 0.31606 0.0
C2834 C 0.80983 0.97655 0.33828 0.0
C2835 C 0.79816 0.93899 0.35621 0.0
H2836 H 0.79639 0.96312 0.3944 0.0
C2837 C 0.78502 0.91146 0.41582 0.0
C2838 C 0.7747 0.91939 0.42576 0.0
C2839 C 0.79021 0.91843 0.40209 0.0
C2840 C 0.79663 0.95633 0.38376 0.0
H2841 H 0.83686 0.95003 0.31359 0.0
H2842 H 0.82384 0.93937 0.33641 0.0
H2843 H 0.80775 0.97465 0.37099 0.0
H2844 H 0.76177 0.94083 0.42916 0.0
H2845 H 0.77093 0.95307 0.40506 0.0
H2846 H 0.78739 0.92056 0.3691 0.0
C2847 C 0.82171 0.95142 0.33332 0.0
C2848 C 0.80311 0.96293 0.37034 0.0
C2849 C 0.8292 0.95753 0.32025 0.0
C2850 C 0.76965 0.93443 0.42166 0.0
C2851 C 0.77497 0.94147 0.40796 0.0
C2852 C 0.79179 0.93238 0.36963 0.0
C2853 C 0.8119 0.96084 0.34247 0.0
C2854 C 0.80413 0.95425 0.35647 0.0
C2855 C 0.78529 0.93351 0.39803 0.0
C2856 C 0.79113 0.94092 0.38358 0.0
H2857 H 0.8155 0.9948 0.32217 0.0
H2858 H 0.80222 0.98407 0.34498 0.0
H2859 H 0.79847 0.93211 0.34563 0.0
H2860 H 0.78897 0.89979 0.41861 0.0
H2861 H 0.79829 0.91208 0.39473 0.0
C2862 C 0.76556 0.08405 0.08318 0.0
C2863 C 0.76991 0.07863 0.06833 0.0
C2864 C 0.77034 0.07624 0.09663 0.0
C2865 C 0.78871 0.0392 0.11059 0.0
H2866 H 0.79944 0.06484 0.14626 0.0
C2867 C 0.82946 0.02087 0.1613 0.0
C2868 C 0.82377 0.02334 0.1765 0.0
C2869 C 0.8212 0.02627 0.14836 0.0
C2870 C 0.79633 0.05754 0.13643 0.0
H2871 H 0.78234 0.06026 0.05612 0.0
H2872 H 0.79154 0.0473 0.07949 0.0
H2873 H 0.78843 0.07698 0.12312 0.0
H2874 H 0.80447 0.03295 0.18981 0.0
H2875 H 0.79051 0.04305 0.16717 0.0
H2876 H 0.79758 0.0199 0.12382 0.0
C2877 C 0.78405 0.05737 0.08079 0.0
C2878 C 0.78992 0.06445 0.12317 0.0
C2879 C 0.77899 0.06501 0.06732 0.0
C2880 C 0.80944 0.03114 0.17836 0.0
C2881 C 0.80135 0.03681 0.16542 0.0
C2882 C 0.79543 0.03234 0.12376 0.0
C2883 C 0.77991 0.06296 0.09564 0.0
C2884 C 0.78608 0.0554 0.11002 0.0
C2885 C 0.80723 0.03451 0.15034 0.0
C2886 C 0.79933 0.04148 0.13674 0.0
H2887 H 0.75876 0.09459 0.08454 0.0
H2888 H 0.76661 0.08074 0.10781 0.0
H2889 H 0.78563 0.03178 0.10086 0.0
H2890 H 0.84056 0.01519 0.15935 0.0
H2891 H 0.82603 0.02453 0.13682 0.0
C2892 C 0.68887 0.04289 0.81248 0.0
C2893 C 0.68017 0.02917 0.81469 0.0
C2894 C 0.69781 0.04905 0.82461 0.0
C2895 C 0.71632 0.03973 0.86216 0.0
H2896 H 0.70904 0.08334 0.87153 0.0
C2897 C 0.7323 0.06735 0.92136 0.0
C2898 C 0.73664 0.08314 0.9218 0.0
C2899 C 0.7276 0.06043 0.90738 0.0
C2900 C 0.71151 0.07124 0.86893 0.0
H2901 H 0.67434 0.01103 0.83135 0.0
H2902 H 0.69018 0.02167 0.85239 0.0
H2903 H 0.69709 0.07177 0.84859 0.0
H2904 H 0.73996 0.10388 0.90765 0.0
H2905 H 0.73249 0.09165 0.88325 0.0
H2906 H 0.73073 0.03917 0.88252 0.0
C2907 C 0.69011 0.02758 0.84123 0.0
C2908 C 0.7046 0.0646 0.85579 0.0
C2909 C 0.68105 0.02149 0.82915 0.0
C2910 C 0.73683 0.09166 0.90778 0.0
C2911 C 0.73231 0.0847 0.89379 0.0
C2912 C 0.72338 0.04641 0.87525 0.0
C2913 C 0.69837 0.04155 0.83914 0.0
C2914 C 0.70676 0.04875 0.8524 0.0
C2915 C 0.72729 0.0691 0.89347 0.0
C2916 C 0.72088 0.0622 0.87891 0.0
H2917 H 0.68872 0.04893 0.80139 0.0
H2918 H 0.70422 0.05975 0.82265 0.0
H2919 H 0.71829 0.0275 0.85971 0.0
H2920 H 0.73228 0.06035 0.93186 0.0
H2921 H 0.7237 0.04843 0.90763 0.0
C2922 C 0.56899 0.71831 0.93618 0.0
C2923 C 0.56824 0.71955 0.91986 0.0
C2924 C 0.5828 0.71365 0.94348 0.0
C2925 C 0.62525 0.71036 0.937 0.0
H2926 H 0.6233 0.67874 0.96925 0.0
C2927 C 0.67859 0.67424 0.95554 0.0
C2928 C 0.68042 0.67063 0.97141 0.0
C2929 C 0.66513 0.6817 0.95026 0.0
C2930 C 0.62404 0.68775 0.96044 0.0
H2931 H 0.58145 0.71729 0.89842 0.0
H2932 H 0.60541 0.70892 0.9111 0.0
H2933 H 0.59923 0.6891 0.95823 0.0
H2934 H 0.66964 0.67217 0.99423 0.0
H2935 H 0.64619 0.68542 0.98502 0.0
H2936 H 0.65006 0.70884 0.93902 0.0
C2937 C 0.59539 0.71164 0.91829 0.0
C2938 C 0.61025 0.69368 0.95413 0.0
C2939 C 0.5816 0.71623 0.91101 0.0
C2940 C 0.66862 0.6749 0.98194 0.0
C2941 C 0.65513 0.68234 0.97666 0.0
C2942 C 0.63903 0.70444 0.94331 0.0
C2943 C 0.59614 0.71025 0.93459 0.0
C2944 C 0.61072 0.70487 0.94217 0.0
C2945 C 0.6532 0.68572 0.96074 0.0
C2946 C 0.63858 0.6929 0.95492 0.0
H2947 H 0.55885 0.72072 0.9433 0.0
H2948 H 0.58307 0.71278 0.95607 0.0
H2949 H 0.62598 0.71918 0.92799 0.0
H2950 H 0.68756 0.67126 0.94717 0.0
H2951 H 0.66393 0.684 0.9379 0.0
C2952 C 0.08012 0.07226 0.78875 0.0
C2953 C 0.0785 0.06847 0.77291 0.0
C2954 C 0.07397 0.08613 0.79456 0.0
C2955 C 0.04398 0.11529 0.78833 0.0
H2956 H 0.0706 0.14178 0.81348 0.0
C2957 C 0.02293 0.17469 0.81232 0.0
C2958 C 0.02792 0.1788 0.82735 0.0
C2959 C 0.02922 0.16166 0.80482 0.0
C2960 C 0.06293 0.13444 0.80666 0.0
H2961 H 0.06904 0.07603 0.75073 0.0
H2962 H 0.05796 0.10033 0.76103 0.0
H2963 H 0.08116 0.11803 0.80207 0.0
H2964 H 0.04306 0.1724 0.84652 0.0
H2965 H 0.05373 0.14945 0.83372 0.0
H2966 H 0.02557 0.13134 0.79334 0.0
C2967 C 0.06408 0.09254 0.76887 0.0
C2968 C 0.06903 0.12089 0.80007 0.0
C2969 C 0.07046 0.07874 0.76299 0.0
C2970 C 0.03919 0.1696 0.83483 0.0
C2971 C 0.04534 0.15649 0.82744 0.0
C2972 C 0.0378 0.12876 0.79511 0.0
C2973 C 0.06592 0.0964 0.78468 0.0
C2974 C 0.05958 0.11113 0.79096 0.0
C2975 C 0.04051 0.15239 0.8123 0.0
C2976 C 0.04717 0.13843 0.80449 0.0
H2977 H 0.0864 0.0646 0.7966 0.0
H2978 H 0.07543 0.08881 0.80682 0.0
H2979 H 0.03644 0.10787 0.78143 0.0
H2980 H 0.01433 0.18169 0.80627 0.0
H2981 H 0.02539 0.15899 0.7931 0.0
C2982 C 0.91368 0.26641 0.41946 0.0
C2983 C 0.92898 0.26895 0.42478 0.0
C2984 C 0.90097 0.27242 0.42765 0.0
C2985 C 0.89059 0.30438 0.45357 0.0
H2986 H 0.85272 0.28075 0.46057 0.0
C2987 C 0.83791 0.33147 0.48514 0.0
C2988 C 0.82311 0.32821 0.47889 0.0
C2989 C 0.85102 0.32321 0.48013 0.0
C2990 C 0.86316 0.28756 0.45858 0.0
H2991 H 0.94283 0.27928 0.44327 0.0
H2992 H 0.9206 0.29005 0.45738 0.0
H2993 H 0.87529 0.26802 0.44881 0.0
H2994 H 0.81046 0.31329 0.46285 0.0
H2995 H 0.83334 0.29936 0.45366 0.0
H2996 H 0.87842 0.32405 0.46278 0.0
C2997 C 0.91852 0.28348 0.4468 0.0
C2998 C 0.87609 0.28024 0.4519 0.0
C2999 C 0.93123 0.27735 0.43868 0.0
C3000 C 0.82171 0.3163 0.46772 0.0
C3001 C 0.83482 0.30812 0.46263 0.0
C3002 C 0.87764 0.31174 0.46011 0.0
C3003 C 0.90328 0.28121 0.44127 0.0
C3004 C 0.88988 0.28862 0.44922 0.0
C3005 C 0.84966 0.31156 0.46867 0.0
C3006 C 0.86371 0.30346 0.46257 0.0
H3007 H 0.91152 0.26021 0.40867 0.0
H3008 H 0.88935 0.27066 0.42302 0.0
H3009 H 0.90101 0.31118 0.45144 0.0
H3010 H 0.83947 0.34065 0.49366 0.0
H3011 H 0.86223 0.32602 0.48519 0.0
C3012 C 0.5903 0.91592 0.78582 0.0
C3013 C 0.58157 0.92774 0.77856 0.0
C3014 C 0.58315 0.90217 0.79069 0.0
C3015 C 0.54481 0.88552 0.80085 0.0
H3016 H 0.5671 0.84637 0.79704 0.0
C3017 C 0.51815 0.82582 0.81803 0.0
C3018 C 0.52777 0.81634 0.82734 0.0
C3019 C 0.5241 0.83925 0.81097 0.0
C3020 C 0.56077 0.85723 0.79822 0.0
H3021 H 0.55843 0.93435 0.77077 0.0
H3022 H 0.54601 0.91011 0.77892 0.0
H3023 H 0.57857 0.87012 0.78652 0.0
H3024 H 0.55113 0.81379 0.83677 0.0
H3025 H 0.56151 0.83697 0.82421 0.0
H3026 H 0.527 0.87252 0.81256 0.0
C3027 C 0.55836 0.9116 0.78103 0.0
C3028 C 0.56735 0.87085 0.79225 0.0
C3029 C 0.56552 0.92542 0.7762 0.0
C3030 C 0.54347 0.82059 0.82939 0.0
C3031 C 0.54943 0.8339 0.82224 0.0
C3032 C 0.53818 0.87186 0.80673 0.0
C3033 C 0.56711 0.89982 0.78834 0.0
C3034 C 0.55957 0.8852 0.79373 0.0
C3035 C 0.53981 0.84337 0.81297 0.0
C3036 C 0.54622 0.85764 0.80569 0.0
H3037 H 0.60272 0.91722 0.78762 0.0
H3038 H 0.59019 0.89344 0.79649 0.0
H3039 H 0.53859 0.89641 0.80233 0.0
H3040 H 0.50606 0.82279 0.81606 0.0
H3041 H 0.51647 0.8463 0.80378 0.0
C3042 C 0.98066 0.17648 0.30479 0.0
C3043 C 0.98178 0.1754 0.32111 0.0
C3044 C 0.97625 0.16355 0.29592 0.0
C3045 C 0.9715 0.12059 0.29749 0.0
H3046 H 0.93894 0.12782 0.26696 0.0
C3047 C 0.94234 0.07006 0.26391 0.0
C3048 C 0.92596 0.07061 0.2636 0.0
C3049 C 0.95096 0.08305 0.26865 0.0
C3050 C 0.94806 0.12562 0.27542 0.0
H3051 H 0.97938 0.1598 0.34087 0.0
H3052 H 0.97171 0.1373 0.32545 0.0
H3053 H 0.95122 0.14994 0.27988 0.0
H3054 H 0.90582 0.08528 0.26795 0.0
H3055 H 0.92081 0.10787 0.27614 0.0
H3056 H 0.96781 0.09625 0.29356 0.0
C3057 C 0.97447 0.14806 0.31946 0.0
C3058 C 0.95522 0.13829 0.2827 0.0
C3059 C 0.97885 0.16098 0.32831 0.0
C3060 C 0.91842 0.08454 0.26778 0.0
C3061 C 0.92702 0.09751 0.27248 0.0
C3062 C 0.96435 0.10792 0.2902 0.0
C3063 C 0.9729 0.14926 0.30319 0.0
C3064 C 0.96676 0.1359 0.29408 0.0
C3065 C 0.94337 0.09686 0.27313 0.0
C3066 C 0.95229 0.1103 0.27936 0.0
H3067 H 0.98308 0.18737 0.29887 0.0
H3068 H 0.97534 0.16477 0.28338 0.0
H3069 H 0.9805 0.11839 0.30608 0.0
H3070 H 0.94851 0.05957 0.26053 0.0
H3071 H 0.96356 0.08227 0.26887 0.0
C3072 C 0.55777 0.07023 0.72527 0.0
C3073 C 0.56878 0.06977 0.73738 0.0
C3074 C 0.5498 0.08402 0.7219 0.0
C3075 C 0.55578 0.12565 0.72328 0.0
H3076 H 0.51202 0.12816 0.71228 0.0
C3077 C 0.53043 0.18205 0.6978 0.0
C3078 C 0.52028 0.18021 0.6851 0.0
C3079 C 0.53436 0.16929 0.70712 0.0
C3080 C 0.52428 0.12764 0.71522 0.0
H3081 H 0.57975 0.08315 0.7558 0.0
H3082 H 0.56591 0.10736 0.74978 0.0
H3083 H 0.52244 0.10406 0.72331 0.0
H3084 H 0.50601 0.16376 0.67234 0.0
H3085 H 0.51323 0.14138 0.68821 0.0
H3086 H 0.55797 0.14878 0.71445 0.0
C3087 C 0.56343 0.09702 0.74296 0.0
C3088 C 0.5302 0.11387 0.7216 0.0
C3089 C 0.57126 0.08318 0.74645 0.0
C3090 C 0.51375 0.16551 0.68217 0.0
C3091 C 0.51785 0.1527 0.69133 0.0
C3092 C 0.54993 0.13933 0.71673 0.0
C3093 C 0.55284 0.09763 0.73048 0.0
C3094 C 0.54606 0.11268 0.72545 0.0
C3095 C 0.52843 0.15437 0.70377 0.0
C3096 C 0.53416 0.14042 0.71235 0.0
H3097 H 0.55558 0.06001 0.71819 0.0
H3098 H 0.54179 0.08421 0.71214 0.0
H3099 H 0.56811 0.12497 0.72595 0.0
H3100 H 0.53546 0.19334 0.7004 0.0
H3101 H 0.54227 0.17109 0.71679 0.0
C3102 C 0.1672 0.34057 0.95972 0.0
C3103 C 0.17672 0.33268 0.97047 0.0
C3104 C 0.15379 0.33352 0.95384 0.0
C3105 C 0.13521 0.29533 0.94771 0.0
H3106 H 0.09785 0.32031 0.9428 0.0
C3107 C 0.07586 0.26969 0.92785 0.0
C3108 C 0.06758 0.27854 0.91681 0.0
C3109 C 0.08916 0.27581 0.93504 0.0
C3110 C 0.10823 0.31321 0.94399 0.0
H3111 H 0.17971 0.31113 0.98335 0.0
H3112 H 0.15608 0.29889 0.97324 0.0
H3113 H 0.12107 0.33191 0.95428 0.0
H3114 H 0.06707 0.30049 0.90425 0.0
H3115 H 0.09014 0.31114 0.91681 0.0
H3116 H 0.12232 0.27663 0.93732 0.0
C3117 C 0.1591 0.31049 0.96929 0.0
C3118 C 0.12153 0.31986 0.95056 0.0
C3119 C 0.17253 0.31756 0.97519 0.0
C3120 C 0.07298 0.29351 0.91296 0.0
C3121 C 0.08621 0.29961 0.92015 0.0
C3122 C 0.12187 0.28866 0.94115 0.0
C3123 C 0.14956 0.31842 0.95858 0.0
C3124 C 0.13523 0.31106 0.95231 0.0
C3125 C 0.09439 0.29088 0.93134 0.0
C3126 C 0.10831 0.2976 0.93905 0.0
H3127 H 0.17001 0.3523 0.95598 0.0
H3128 H 0.14679 0.33987 0.94545 0.0
H3129 H 0.14564 0.28828 0.94878 0.0
H3130 H 0.07191 0.25817 0.93116 0.0
H3131 H 0.09516 0.26886 0.94371 0.0
C3132 C 0.4302 0.70978 0.4361 0.0
C3133 C 0.43165 0.72541 0.43143 0.0
C3134 C 0.41744 0.70494 0.4449 0.0
C3135 C 0.37689 0.71515 0.45326 0.0
H3136 H 0.38137 0.68412 0.48586 0.0
C3137 C 0.32368 0.69007 0.48559 0.0
C3138 C 0.32342 0.67373 0.48678 0.0
C3139 C 0.3373 0.6978 0.48117 0.0
C3140 C 0.37994 0.69276 0.47676 0.0
H3141 H 0.42101 0.74832 0.43268 0.0
H3142 H 0.39859 0.73981 0.44804 0.0
H3143 H 0.40457 0.69523 0.47373 0.0
H3144 H 0.33731 0.65272 0.48454 0.0
H3145 H 0.36105 0.66619 0.47687 0.0
H3146 H 0.35227 0.71241 0.456 0.0
C3147 C 0.40731 0.73129 0.44474 0.0
C3148 C 0.39321 0.69912 0.46982 0.0
C3149 C 0.42011 0.73615 0.43592 0.0
C3150 C 0.33718 0.66533 0.48395 0.0
C3151 C 0.3508 0.67305 0.47956 0.0
C3152 C 0.36362 0.7088 0.46021 0.0
C3153 C 0.4058 0.71561 0.44924 0.0
C3154 C 0.39181 0.71014 0.45777 0.0
C3155 C 0.35094 0.68935 0.47789 0.0
C3156 C 0.36501 0.69731 0.47181 0.0
H3157 H 0.43874 0.70116 0.4326 0.0
H3158 H 0.41646 0.69272 0.44793 0.0
H3159 H 0.37543 0.72349 0.44389 0.0
H3160 H 0.31331 0.69688 0.48795 0.0
H3161 H 0.33712 0.71039 0.4802 0.0
C3162 C 0.81651 0.50835 0.8319 0.0
C3163 C 0.81869 0.51908 0.81969 0.0
C3164 C 0.80817 0.51259 0.84524 0.0
C3165 C 0.78 0.54127 0.86042 0.0
H3166 H 0.80065 0.53455 0.90007 0.0
C3167 C 0.76654 0.57805 0.91451 0.0
C3168 C 0.76751 0.57121 0.92936 0.0
C3169 C 0.77052 0.56956 0.90124 0.0
C3170 C 0.79452 0.53624 0.88916 0.0
H3171 H 0.8137 0.54266 0.81194 0.0
H3172 H 0.79896 0.5499 0.83503 0.0
H3173 H 0.81164 0.52329 0.87643 0.0
H3174 H 0.77275 0.54991 0.9419 0.0
H3175 H 0.77958 0.53496 0.91864 0.0
H3176 H 0.76302 0.55443 0.87306 0.0
C3177 C 0.80358 0.53817 0.83421 0.0
C3178 C 0.80085 0.52981 0.87561 0.0
C3179 C 0.81202 0.534 0.82097 0.0
C3180 C 0.7721 0.55554 0.93062 0.0
C3181 C 0.77601 0.54699 0.9173 0.0
C3182 C 0.7736 0.54761 0.87397 0.0
C3183 C 0.80172 0.52758 0.84655 0.0
C3184 C 0.79387 0.5326 0.86107 0.0
C3185 C 0.77548 0.55399 0.90248 0.0
C3186 C 0.78103 0.54552 0.88844 0.0
H3187 H 0.82126 0.49668 0.83119 0.0
H3188 H 0.80679 0.50417 0.85455 0.0
H3189 H 0.77425 0.5434 0.84937 0.0
H3190 H 0.76327 0.59018 0.91319 0.0
H3191 H 0.77026 0.57541 0.89006 0.0
C3192 C 0.68623 0.51904 0.1736 0.0
C3193 C 0.6706 0.5233 0.17593 0.0
C3194 C 0.69413 0.52379 0.16016 0.0
C3195 C 0.68699 0.5394 0.12035 0.0
H3196 H 0.7302 0.55225 0.12306 0.0
C3197 C 0.71921 0.56139 0.06612 0.0
C3198 C 0.7288 0.57447 0.06819 0.0
C3199 C 0.71367 0.55315 0.079 0.0
C3200 C 0.71811 0.54879 0.12211 0.0
H3201 H 0.65107 0.53614 0.16636 0.0
H3202 H 0.66491 0.54483 0.14319 0.0
H3203 H 0.71709 0.54232 0.14617 0.0
H3204 H 0.74043 0.58906 0.08517 0.0
H3205 H 0.73032 0.57508 0.10775 0.0
H3206 H 0.68765 0.5467 0.09661 0.0
C3207 C 0.67098 0.5374 0.1514 0.0
C3208 C 0.71064 0.54288 0.13533 0.0
C3209 C 0.66306 0.53251 0.16471 0.0
C3210 C 0.73313 0.57892 0.08331 0.0
C3211 C 0.72739 0.57084 0.09622 0.0
C3212 C 0.69438 0.54546 0.10722 0.0
C3213 C 0.68659 0.53303 0.14889 0.0
C3214 C 0.69491 0.53833 0.13466 0.0
C3215 C 0.71736 0.55801 0.09423 0.0
C3216 C 0.70998 0.55041 0.10796 0.0
H3217 H 0.69225 0.51183 0.18204 0.0
H3218 H 0.70607 0.52005 0.15852 0.0
H3219 H 0.67496 0.53571 0.11931 0.0
H3220 H 0.71589 0.55764 0.05452 0.0
H3221 H 0.70629 0.54311 0.077 0.0
C3222 C 0.71356 0.41013 0.41672 0.0
C3223 C 0.72545 0.4173 0.42539 0.0
C3224 C 0.70854 0.4166 0.40268 0.0
C3225 C 0.70628 0.45336 0.38125 0.0
H3226 H 0.69791 0.42633 0.34598 0.0
C3227 C 0.68399 0.47676 0.32188 0.0
C3228 C 0.67208 0.46802 0.31479 0.0
C3229 C 0.69192 0.4709 0.33487 0.0
C3230 C 0.70008 0.43402 0.35576 0.0
H3231 H 0.7414 0.43687 0.4262 0.0
H3232 H 0.73257 0.44824 0.40153 0.0
H3233 H 0.70929 0.41545 0.36963 0.0
H3234 H 0.65889 0.4465 0.31597 0.0
H3235 H 0.67261 0.43634 0.3386 0.0
H3236 H 0.69671 0.47187 0.36749 0.0
C3237 C 0.72715 0.43762 0.40567 0.0
C3238 C 0.70662 0.42779 0.36928 0.0
C3239 C 0.73227 0.43106 0.4197 0.0
C3240 C 0.66821 0.45337 0.32098 0.0
C3241 C 0.6761 0.44754 0.33395 0.0
C3242 C 0.69966 0.45959 0.36772 0.0
C3243 C 0.71524 0.43042 0.39702 0.0
C3244 C 0.70955 0.43734 0.38225 0.0
C3245 C 0.68807 0.4562 0.34102 0.0
C3246 C 0.69624 0.44993 0.35492 0.0
H3247 H 0.70821 0.39942 0.42073 0.0
H3248 H 0.69922 0.41089 0.39635 0.0
H3249 H 0.7083 0.46096 0.39112 0.0
H3250 H 0.68731 0.48803 0.31727 0.0
H3251 H 0.70118 0.47778 0.33997 0.0
C3252 C 0.82776 0.47902 0.66339 0.0
C3253 C 0.82018 0.48179 0.67764 0.0
C3254 C 0.81926 0.47477 0.6502 0.0
C3255 C 0.7828 0.45568 0.63917 0.0
H3256 H 0.79447 0.46922 0.59763 0.0
C3257 C 0.7692 0.42007 0.58431 0.0
C3258 C 0.7651 0.4279 0.57051 0.0
C3259 C 0.77363 0.42839 0.59755 0.0
C3260 C 0.7909 0.4655 0.60916 0.0
H3261 H 0.79766 0.48289 0.68907 0.0
H3262 H 0.78278 0.47536 0.66598 0.0
H3263 H 0.80654 0.48141 0.62033 0.0
H3264 H 0.76196 0.45067 0.55997 0.0
H3265 H 0.76987 0.46525 0.58314 0.0
H3266 H 0.76732 0.43963 0.628 0.0
C3267 C 0.79534 0.4763 0.6651 0.0
C3268 C 0.79793 0.47236 0.62214 0.0
C3269 C 0.80385 0.48058 0.67831 0.0
C3270 C 0.76526 0.44429 0.57035 0.0
C3271 C 0.76975 0.45264 0.58362 0.0
C3272 C 0.7758 0.44881 0.62619 0.0
C3273 C 0.80297 0.47317 0.65095 0.0
C3274 C 0.79421 0.46728 0.63727 0.0
C3275 C 0.77411 0.44475 0.5973 0.0
C3276 C 0.78004 0.45339 0.61105 0.0
H3277 H 0.84034 0.47963 0.66254 0.0
H3278 H 0.82551 0.47217 0.63954 0.0
H3279 H 0.77975 0.45144 0.65066 0.0
H3280 H 0.7695 0.40745 0.58476 0.0
H3281 H 0.77721 0.42197 0.60782 0.0
C3282 C 0.40775 0.07767 0.209 0.0
C3283 C 0.41617 0.06724 0.21838 0.0
C3284 C 0.41477 0.09123 0.20341 0.0
C3285 C 0.44826 0.11766 0.21019 0.0
H3286 H 0.43758 0.13238 0.16879 0.0
C3287 C 0.47914 0.16911 0.17864 0.0
C3288 C 0.46915 0.17998 0.17152 0.0
C3289 C 0.47317 0.15532 0.18494 0.0
C3290 C 0.44059 0.12844 0.18041 0.0
H3291 H 0.43856 0.06264 0.22913 0.0
H3292 H 0.45099 0.08619 0.21907 0.0
H3293 H 0.42654 0.10803 0.17827 0.0
H3294 H 0.44514 0.185 0.16543 0.0
H3295 H 0.43473 0.16092 0.17639 0.0
H3296 H 0.46256 0.13808 0.2121 0.0
C3297 C 0.43886 0.08409 0.2163 0.0
C3298 C 0.43423 0.11452 0.18588 0.0
C3299 C 0.43177 0.07058 0.22203 0.0
C3300 C 0.45308 0.17691 0.171 0.0
C3301 C 0.44715 0.16308 0.17712 0.0
C3302 C 0.45476 0.13153 0.20463 0.0
C3303 C 0.43043 0.09459 0.20694 0.0
C3304 C 0.43782 0.10905 0.20091 0.0
C3305 C 0.45714 0.15209 0.184 0.0
C3306 C 0.45082 0.13712 0.18977 0.0
H3307 H 0.39563 0.0755 0.20623 0.0
H3308 H 0.40781 0.0992 0.19653 0.0
H3309 H 0.45113 0.1139 0.2219 0.0
H3310 H 0.49157 0.17124 0.17923 0.0
H3311 H 0.48111 0.147 0.19015 0.0
C3312 C 0.00782 0.82682 0.68295 0.0
C3313 C 0.01871 0.81534 0.67871 0.0
C3314 C 0.01253 0.84002 0.69126 0.0
C3315 C 0.0451 0.85607 0.71484 0.0
H3316 H 0.0301 0.89593 0.69966 0.0
C3317 C 0.06632 0.92371 0.7137 0.0
C3318 C 0.07102 0.92578 0.72926 0.0
C3319 C 0.05805 0.91045 0.70927 0.0
C3320 C 0.03439 0.88489 0.70403 0.0
H3321 H 0.04309 0.8087 0.67992 0.0
H3322 H 0.0513 0.83167 0.69431 0.0
H3323 H 0.01936 0.87191 0.68897 0.0
H3324 H 0.07033 0.91576 0.75246 0.0
H3325 H 0.05584 0.89251 0.74469 0.0
H3326 H 0.06066 0.86905 0.72936 0.0
C3327 C 0.03906 0.83036 0.69151 0.0
C3328 C 0.0281 0.87112 0.69804 0.0
C3329 C 0.03435 0.81719 0.68323 0.0
C3330 C 0.06704 0.91439 0.74035 0.0
C3331 C 0.05874 0.9011 0.7359 0.0
C3332 C 0.0514 0.86984 0.72081 0.0
C3333 C 0.02825 0.84201 0.69547 0.0
C3334 C 0.03362 0.85656 0.70314 0.0
C3335 C 0.05426 0.89893 0.72028 0.0
C3336 C 0.04635 0.88439 0.71523 0.0
H3337 H 0.99565 0.82561 0.67981 0.0
H3338 H 0.0039 0.84871 0.69431 0.0
H3339 H 0.04944 0.84503 0.71915 0.0
H3340 H 0.06944 0.93213 0.70483 0.0
H3341 H 0.05505 0.90899 0.69709 0.0
C3342 C 0.47663 0.83446 0.34109 0.0
C3343 C 0.47741 0.82034 0.3328 0.0
C3344 C 0.47126 0.84801 0.33388 0.0
C3345 C 0.46288 0.8657 0.29525 0.0
H3346 H 0.43587 0.89252 0.31963 0.0
C3347 C 0.42409 0.9143 0.26886 0.0
C3348 C 0.42338 0.92851 0.27701 0.0
C3349 C 0.432 0.90153 0.27517 0.0
C3350 C 0.44355 0.88525 0.31273 0.0
H3351 H 0.4735 0.80956 0.31024 0.0
H3352 H 0.46356 0.83309 0.29784 0.0
H3353 H 0.44703 0.86935 0.33155 0.0
H3354 H 0.43108 0.94063 0.29784 0.0
H3355 H 0.44464 0.91826 0.30894 0.0
H3356 H 0.45896 0.88152 0.27629 0.0
C3357 C 0.46736 0.83373 0.30986 0.0
C3358 C 0.44998 0.87197 0.31956 0.0
C3359 C 0.47287 0.82018 0.31704 0.0
C3360 C 0.43111 0.92977 0.29141 0.0
C3361 C 0.43892 0.91698 0.29776 0.0
C3362 C 0.45632 0.87894 0.28837 0.0
C3363 C 0.46635 0.84778 0.31825 0.0
C3364 C 0.45974 0.86203 0.31092 0.0
C3365 C 0.43927 0.90269 0.28979 0.0
C3366 C 0.4466 0.88884 0.29706 0.0
H3367 H 0.47983 0.83501 0.35329 0.0
H3368 H 0.47088 0.85867 0.34063 0.0
H3369 H 0.47052 0.85842 0.28832 0.0
H3370 H 0.4181 0.91286 0.25784 0.0
H3371 H 0.43196 0.8906 0.26885 0.0
C3372 C 0.8342 0.67474 0.0101 0.0
C3373 C 0.82097 0.67526 0.01971 0.0
C3374 C 0.84796 0.68214 0.01469 0.0
C3375 C 0.86406 0.71258 0.0397 0.0
H3376 H 0.90032 0.68579 0.04303 0.0
C3377 C 0.91725 0.72932 0.07692 0.0
C3378 C 0.93204 0.72393 0.07251 0.0
C3379 C 0.90402 0.72467 0.06868 0.0
C3380 C 0.89046 0.69359 0.04187 0.0
H3381 H 0.8114 0.68435 0.04123 0.0
H3382 H 0.83542 0.6976 0.04913 0.0
H3383 H 0.87649 0.67577 0.03136 0.0
H3384 H 0.94479 0.71005 0.05574 0.0
H3385 H 0.92177 0.70238 0.0409 0.0
H3386 H 0.87796 0.73048 0.05003 0.0
C3387 C 0.83516 0.6914 0.03813 0.0
C3388 C 0.87679 0.68779 0.03523 0.0
C3389 C 0.82151 0.68376 0.03368 0.0
C3390 C 0.93346 0.7142 0.05944 0.0
C3391 C 0.92025 0.70976 0.05102 0.0
C3392 C 0.87782 0.71849 0.0461 0.0
C3393 C 0.84858 0.69041 0.02881 0.0
C3394 C 0.86341 0.69714 0.03436 0.0
C3395 C 0.90532 0.71472 0.05568 0.0
C3396 C 0.89111 0.70897 0.04756 0.0
H3397 H 0.83406 0.66816 -0.00068 0.0
H3398 H 0.85817 0.68126 0.00732 0.0
H3399 H 0.85389 0.72003 0.03902 0.0
H3400 H 0.91588 0.73672 0.08706 0.0
H3401 H 0.89274 0.7285 0.07284 0.0
C3402 C 0.58915 0.26128 0.57912 0.0
C3403 C 0.57441 0.26797 0.57655 0.0
C3404 C 0.60224 0.26681 0.57121 0.0
C3405 C 0.61451 0.29119 0.53752 0.0
H3406 H 0.65265 0.29536 0.56143 0.0
C3407 C 0.66624 0.33027 0.51927 0.0
C3408 C 0.68136 0.32433 0.52148 0.0
C3409 C 0.65326 0.32203 0.5246 0.0
C3410 C 0.64215 0.29407 0.55454 0.0
H3411 H 0.56185 0.28544 0.56323 0.0
H3412 H 0.58476 0.29552 0.54994 0.0
H3413 H 0.62984 0.2836 0.57345 0.0
H3414 H 0.69461 0.30469 0.53038 0.0
H3415 H 0.67193 0.29045 0.53992 0.0
H3416 H 0.62682 0.30219 0.51876 0.0
C3417 C 0.58618 0.2858 0.55787 0.0
C3418 C 0.62907 0.28729 0.56141 0.0
C3419 C 0.57306 0.28017 0.56568 0.0
C3420 C 0.68316 0.30975 0.52876 0.0
C3421 C 0.67019 0.30157 0.53419 0.0
C3422 C 0.62758 0.2981 0.53069 0.0
C3423 C 0.60096 0.27928 0.56064 0.0
C3424 C 0.61505 0.28585 0.55302 0.0
C3425 C 0.65514 0.30772 0.53233 0.0
C3426 C 0.6415 0.29967 0.53917 0.0
H3427 H 0.59068 0.25198 0.58751 0.0
H3428 H 0.6134 0.26136 0.57346 0.0
H3429 H 0.60399 0.29003 0.53064 0.0
H3430 H 0.66443 0.34156 0.51392 0.0
H3431 H 0.6418 0.32713 0.52317 0.0
C3432 C 0.20929 0.43037 0.07047 0.0
C3433 C 0.22483 0.42527 0.06969 0.0
C3434 C 0.20402 0.43882 0.08333 0.0
C3435 C 0.21233 0.4449 0.12476 0.0
H3436 H 0.18255 0.47866 0.1205 0.0
C3437 C 0.18648 0.47644 0.17827 0.0
C3438 C 0.17027 0.4788 0.17792 0.0
C3439 C 0.19445 0.47177 0.16485 0.0
C3440 C 0.19081 0.4692 0.12187 0.0
H3441 H 0.24712 0.42528 0.08161 0.0
H3442 H 0.23792 0.4402 0.10407 0.0
H3443 H 0.19429 0.46724 0.09724 0.0
H3444 H 0.14973 0.47816 0.16318 0.0
H3445 H 0.16359 0.47001 0.13982 0.0
H3446 H 0.20859 0.4466 0.14935 0.0
C3447 C 0.2298 0.43754 0.09477 0.0
C3448 C 0.19753 0.46268 0.10856 0.0
C3449 C 0.2351 0.42913 0.08186 0.0
C3450 C 0.16225 0.47667 0.16379 0.0
C3451 C 0.1702 0.47202 0.15039 0.0
C3452 C 0.2056 0.45142 0.13807 0.0
C3453 C 0.21416 0.44234 0.09571 0.0
C3454 C 0.20816 0.45028 0.10985 0.0
C3455 C 0.18637 0.46938 0.15079 0.0
C3456 C 0.19456 0.46346 0.13676 0.0
H3457 H 0.20116 0.42773 0.06118 0.0
H3458 H 0.19186 0.4422 0.08377 0.0
H3459 H 0.22033 0.43523 0.12613 0.0
H3460 H 0.19303 0.47821 0.18893 0.0
H3461 H 0.20693 0.47003 0.16548 0.0
C3462 C 0.32458 0.48098 0.83142 0.0
C3463 C 0.32921 0.47085 0.81941 0.0
C3464 C 0.3181 0.47508 0.84516 0.0
C3465 C 0.29922 0.4399 0.86147 0.0
H3466 H 0.31243 0.45689 0.90124 0.0
C3467 C 0.28754 0.40843 0.91944 0.0
C3468 C 0.28234 0.4175 0.93204 0.0
C3469 C 0.29277 0.41552 0.90577 0.0
C3470 C 0.30849 0.45215 0.89022 0.0
H3471 H 0.33089 0.44659 0.81247 0.0
H3472 H 0.31969 0.43632 0.83641 0.0
H3473 H 0.32223 0.46831 0.87709 0.0
H3474 H 0.2788 0.44112 0.94033 0.0
H3475 H 0.2879 0.45354 0.91634 0.0
H3476 H 0.28567 0.4236 0.87459 0.0
C3477 C 0.32075 0.44883 0.83512 0.0
C3478 C 0.31408 0.4587 0.87639 0.0
C3479 C 0.32718 0.45472 0.8214 0.0
C3480 C 0.28263 0.43383 0.93075 0.0
C3481 C 0.28795 0.44094 0.91709 0.0
C3482 C 0.29369 0.43333 0.87528 0.0
C3483 C 0.31616 0.45894 0.84717 0.0
C3484 C 0.30962 0.45254 0.86186 0.0
C3485 C 0.29297 0.43185 0.90442 0.0
C3486 C 0.29838 0.43928 0.8898 0.0
H3487 H 0.32584 0.49348 0.83015 0.0
H3488 H 0.31449 0.48318 0.85415 0.0
H3489 H 0.29532 0.43507 0.85047 0.0
H3490 H 0.2873 0.39582 0.92002 0.0
H3491 H 0.29674 0.40822 0.89627 0.0
C3492 C 0.27289 0.56184 0.57053 0.0
C3493 C 0.26248 0.57449 0.57085 0.0
C3494 C 0.277 0.55413 0.58426 0.0
C3495 C 0.27845 0.56073 0.62684 0.0
H3496 H 0.2908 0.51724 0.62727 0.0
C3497 C 0.30237 0.52959 0.68185 0.0
C3498 C 0.31693 0.52238 0.67945 0.0
C3499 C 0.29349 0.53476 0.66919 0.0
C3500 C 0.28732 0.52938 0.6273 0.0
H3501 H 0.24773 0.58851 0.58591 0.0
H3502 H 0.2543 0.57459 0.60969 0.0
H3503 H 0.27854 0.52814 0.60401 0.0
H3504 H 0.33348 0.5151 0.6617 0.0
H3505 H 0.31774 0.52363 0.63975 0.0
H3506 H 0.28726 0.56187 0.65019 0.0
C3507 C 0.25966 0.5709 0.59887 0.0
C3508 C 0.28039 0.53567 0.61397 0.0
C3509 C 0.2557 0.57875 0.58516 0.0
C3510 C 0.32221 0.52024 0.66406 0.0
C3511 C 0.31322 0.52518 0.65144 0.0
C3512 C 0.28517 0.55437 0.64024 0.0
C3513 C 0.27063 0.55873 0.59866 0.0
C3514 C 0.27623 0.55153 0.61343 0.0
C3515 C 0.29886 0.5326 0.65389 0.0
C3516 C 0.29 0.53875 0.64045 0.0
H3517 H 0.27812 0.55803 0.55969 0.0
H3518 H 0.28561 0.54493 0.58361 0.0
H3519 H 0.27564 0.57303 0.62681 0.0
H3520 H 0.29779 0.5312 0.6935 0.0
H3521 H 0.2824 0.54041 0.67135 0.0
C3522 C 0.18232 0.51671 0.32856 0.0
C3523 C 0.17466 0.5267 0.31805 0.0
C3524 C 0.19003 0.52276 0.34158 0.0
C3525 C 0.20607 0.55941 0.35791 0.0
H3526 H 0.19954 0.53907 0.39776 0.0
C3527 C 0.21697 0.59027 0.41632 0.0
C3528 C 0.2243 0.58179 0.42827 0.0
C3529 C 0.21234 0.58289 0.4026 0.0
C3530 C 0.20165 0.54475 0.38669 0.0
H3531 H 0.16906 0.55083 0.31299 0.0
H3532 H 0.18243 0.56135 0.33567 0.0
H3533 H 0.18911 0.52728 0.37407 0.0
H3534 H 0.23244 0.5589 0.43525 0.0
H3535 H 0.22435 0.54596 0.41116 0.0
H3536 H 0.2183 0.57706 0.37059 0.0
C3537 C 0.18275 0.54888 0.33372 0.0
C3538 C 0.1957 0.538 0.37311 0.0
C3539 C 0.17508 0.54285 0.32071 0.0
C3540 C 0.22691 0.56574 0.4262 0.0
C3541 C 0.22217 0.55832 0.41248 0.0
C3542 C 0.21196 0.56618 0.37148 0.0
C3543 C 0.19022 0.53891 0.34437 0.0
C3544 C 0.19764 0.54538 0.3586 0.0
C3545 C 0.21487 0.56684 0.40053 0.0
C3546 C 0.20961 0.55905 0.38603 0.0
H3547 H 0.18236 0.50422 0.32671 0.0
H3548 H 0.19585 0.51479 0.34946 0.0
H3549 H 0.20802 0.56523 0.34688 0.0
H3550 H 0.21497 0.60268 0.41752 0.0
H3551 H 0.20657 0.58972 0.39368 0.0
loop_
_geom_bond_atom_site_label_1
_geom_bond_atom_site_label_2
_geom_bond_distance
_geom_bond_site_symmetry_2
_ccdc_geom_bond_type
Li0 N17 1.990 . S
Li0 O60 1.956 . S
Li0 O61 1.970 . S
Li0 O62 1.961 1_455 S
Li1 N25 1.990 . S
Li1 O60 1.970 . S
Li1 O61 1.956 . S
Li1 O63 1.961 1_455 S
Li2 N47 1.990 . S
Li2 O60 1.961 1_655 S
Li2 O62 1.956 . S
Li2 O63 1.970 . S
Li3 N53 1.990 . S
Li3 O61 1.961 1_655 S
Li3 O62 1.970 . S
Li3 O63 1.956 . S
C4 C6 1.348 . S
C4 C7 1.356 . S
C4 O60 1.325 . S
N5 C8 1.314 . S
N5 C9 1.279 . S
C6 C4 1.348 . S
C6 C8 1.353 . S
C6 H64 0.929 . S
C7 C4 1.356 . S
C7 C9 1.358 . S
C7 H65 0.930 . S
C8 N5 1.314 . S
C8 C6 1.353 . S
C8 H66 0.930 . S
C9 N5 1.279 . S
C9 C7 1.358 . S
C9 H67 0.930 . S
C10 C13 1.348 . S
C10 C14 1.356 . S
C10 O61 1.325 . S
C11 N12 1.279 . S
C11 C14 1.358 . S
C11 H68 0.930 . S
N12 C11 1.279 . S
N12 C15 1.314 . S
C13 C10 1.348 . S
C13 C15 1.353 . S
C13 H69 0.929 . S
C14 C10 1.356 . S
C14 C11 1.358 . S
C14 H70 0.930 . S
C15 N12 1.314 . S
C15 C13 1.353 . S
C15 H71 0.930 . S
C16 N17 1.314 . S
C16 C21 1.353 . S
C16 H22 0.930 1_455 S
N17 Li0 1.990 . S
N17 C16 1.314 . S
N17 C19 1.279 . S
C18 C19 1.358 . S
C18 C20 1.356 . S
C18 H72 0.930 . S
C19 N17 1.279 . S
C19 C18 1.358 . S
C19 H23 0.930 . S
C20 C18 1.356 . S
C20 C21 1.348 . S
C21 C16 1.353 . S
C21 C20 1.348 . S
C21 H73 0.929 . S
H22 C16 0.930 1_655 S
H23 C19 0.930 . S
C24 N25 1.314 . S
C24 C26 1.353 . S
C24 H30 0.930 . S
N25 Li1 1.990 . S
N25 C24 1.314 . S
N25 C28 1.279 . S
C26 C24 1.353 . S
C26 C29 1.348 . S
C26 H74 0.929 . S
C27 C28 1.358 . S
C27 C29 1.356 . S
C27 H75 0.930 . S
C28 N25 1.279 . S
C28 C27 1.358 . S
C28 H31 0.930 . S
C29 C26 1.348 . S
C29 C27 1.356 . S
H30 C24 0.930 . S
H31 C28 0.930 . S
C32 C34 1.348 . S
C32 C35 1.356 . S
C32 O62 1.325 . S
N33 C36 1.314 . S
N33 C37 1.279 . S
C34 C32 1.348 . S
C34 C36 1.353 . S
C34 H76 0.929 . S
C35 C32 1.356 . S
C35 C37 1.358 . S
C35 H77 0.930 . S
C36 N33 1.314 . S
C36 C34 1.353 . S
C36 H78 0.930 . S
C37 N33 1.279 . S
C37 C35 1.358 . S
C37 H79 0.930 . S
C38 C39 1.348 . S
C38 C40 1.356 . S
C38 O63 1.325 . S
C39 C38 1.348 . S
C39 C41 1.353 . S
C39 H80 0.929 . S
C40 C38 1.356 . S
C40 C42 1.358 . S
C40 H81 0.930 . S
C41 C39 1.353 . S
C41 N43 1.314 . S
C41 H82 0.930 . S
C42 C40 1.358 . S
C42 N43 1.279 . S
C42 H83 0.930 . S
N43 C41 1.314 . S
N43 C42 1.279 . S
C44 C46 1.353 . S
C44 N47 1.314 . S
C44 H50 0.930 1_655 S
C45 N47 1.279 . S
C45 C48 1.358 . S
C45 H51 0.930 . S
C46 C44 1.353 . S
C46 C49 1.348 . S
C46 H84 0.929 . S
N47 Li2 1.990 . S
N47 C44 1.314 . S
N47 C45 1.279 . S
C48 C45 1.358 . S
C48 C49 1.356 . S
C48 H85 0.930 . S
C49 C46 1.348 . S
C49 C48 1.356 . S
H50 C44 0.930 1_455 S
H51 C45 0.930 . S
C52 N53 1.314 . S
C52 C54 1.353 . S
C52 H58 0.930 . S
N53 Li3 1.990 . S
N53 C52 1.314 . S
N53 C56 1.279 . S
C54 C52 1.353 . S
C54 C57 1.348 . S
C54 H86 0.929 . S
C55 C56 1.358 . S
C55 C57 1.356 . S
C55 H87 0.930 . S
C56 N53 1.279 . S
C56 C55 1.358 . S
C56 H59 0.930 . S
C57 C54 1.348 . S
C57 C55 1.356 . S
H58 C52 0.930 . S
H59 C56 0.930 . S
O60 Li0 1.956 . S
O60 Li1 1.970 . S
O60 Li2 1.961 1_455 S
O60 C4 1.325 . S
O61 Li0 1.970 . S
O61 Li1 1.956 . S
O61 Li3 1.961 1_455 S
O61 C10 1.325 . S
O62 Li0 1.961 1_655 S
O62 Li2 1.956 . S
O62 Li3 1.970 . S
O62 C32 1.325 . S
O63 Li1 1.961 1_655 S
O63 Li2 1.970 . S
O63 Li3 1.956 . S
O63 C38 1.325 . S
H64 C6 0.929 . S
H65 C7 0.930 . S
H66 C8 0.930 . S
H67 C9 0.930 . S
H68 C11 0.930 . S
H69 C13 0.929 . S
H70 C14 0.930 . S
H71 C15 0.930 . S
H72 C18 0.930 . S
H73 C21 0.929 . S
H74 C26 0.929 . S
H75 C27 0.930 . S
H76 C34 0.929 . S
H77 C35 0.930 . S
H78 C36 0.930 . S
H79 C37 0.930 . S
H80 C39 0.929 . S
H81 C40 0.930 . S
H82 C41 0.930 . S
H83 C42 0.930 . S
H84 C46 0.929 . S
H85 C48 0.930 . S
H86 C54 0.929 . S
H87 C55 0.930 . S
Li88 N105 1.990 . S
Li88 O148 1.956 1_455 S
Li88 O149 1.970 . S
Li88 O150 1.961 . S
Li89 N113 1.990 . S
Li89 O148 1.970 . S
Li89 O149 1.956 1_655 S
Li89 O151 1.961 . S
Li90 N135 1.990 . S
Li90 O148 1.961 . S
Li90 O150 1.956 1_655 S
Li90 O151 1.970 . S
Li91 N141 1.990 . S
Li91 O149 1.961 . S
Li91 O150 1.970 . S
Li91 O151 1.956 1_455 S
C92 C94 1.348 . S
C92 C95 1.356 . S
C92 O148 1.325 . S
N93 C96 1.314 . S
N93 C97 1.279 . S
C94 C92 1.348 . S
C94 C96 1.353 . S
C94 H152 0.929 . S
C95 C92 1.356 . S
C95 C97 1.358 . S
C95 H153 0.930 . S
C96 N93 1.314 . S
C96 C94 1.353 . S
C96 H154 0.930 . S
C97 N93 1.279 . S
C97 C95 1.358 . S
C97 H155 0.930 . S
C98 C101 1.348 . S
C98 C102 1.356 . S
C98 O149 1.325 . S
C99 N100 1.279 . S
C99 C102 1.358 . S
C99 H156 0.930 . S
N100 C99 1.279 . S
N100 C103 1.314 . S
C101 C98 1.348 . S
C101 C103 1.353 . S
C101 H157 0.929 . S
C102 C98 1.356 . S
C102 C99 1.358 . S
C102 H158 0.930 . S
C103 N100 1.314 . S
C103 C101 1.353 . S
C103 H159 0.930 . S
C104 N105 1.314 . S
C104 C109 1.353 . S
C104 H110 0.930 . S
N105 Li88 1.990 . S
N105 C104 1.314 . S
N105 C107 1.279 . S
C106 C107 1.358 . S
C106 C108 1.356 . S
C106 H160 0.930 . S
C107 N105 1.279 . S
C107 C106 1.358 . S
C107 H111 0.930 1_455 S
C108 C106 1.356 . S
C108 C109 1.348 . S
C109 C104 1.353 . S
C109 C108 1.348 . S
C109 H161 0.929 . S
H110 C104 0.930 . S
H111 C107 0.930 1_655 S
C112 N113 1.314 . S
C112 C114 1.353 . S
C112 H118 0.930 . S
N113 Li89 1.990 . S
N113 C112 1.314 . S
N113 C116 1.279 . S
C114 C112 1.353 . S
C114 C117 1.348 . S
C114 H162 0.929 . S
C115 C116 1.358 . S
C115 C117 1.356 . S
C115 H163 0.930 . S
C116 N113 1.279 . S
C116 C115 1.358 . S
C116 H119 0.930 . S
C117 C114 1.348 . S
C117 C115 1.356 . S
H118 C112 0.930 . S
H119 C116 0.930 . S
C120 C122 1.348 . S
C120 C123 1.356 . S
C120 O150 1.325 . S
N121 C124 1.314 . S
N121 C125 1.279 . S
C122 C120 1.348 . S
C122 C124 1.353 . S
C122 H164 0.929 . S
C123 C120 1.356 . S
C123 C125 1.358 . S
C123 H165 0.930 . S
C124 N121 1.314 . S
C124 C122 1.353 . S
C124 H166 0.930 . S
C125 N121 1.279 . S
C125 C123 1.358 . S
C125 H167 0.930 . S
C126 C127 1.348 . S
C126 C128 1.356 . S
C126 O151 1.325 . S
C127 C126 1.348 . S
C127 C129 1.353 . S
C127 H168 0.929 . S
C128 C126 1.356 . S
C128 C130 1.358 . S
C128 H169 0.930 . S
C129 C127 1.353 . S
C129 N131 1.314 . S
C129 H170 0.930 . S
C130 C128 1.358 . S
C130 N131 1.279 . S
C130 H171 0.930 . S
N131 C129 1.314 . S
N131 C130 1.279 . S
C132 C134 1.353 . S
C132 N135 1.314 . S
C132 H138 0.930 . S
C133 N135 1.279 . S
C133 C136 1.358 . S
C133 H139 0.930 1_655 S
C134 C132 1.353 . S
C134 C137 1.348 . S
C134 H172 0.929 . S
N135 Li90 1.990 . S
N135 C132 1.314 . S
N135 C133 1.279 . S
C136 C133 1.358 . S
C136 C137 1.356 . S
C136 H173 0.930 . S
C137 C134 1.348 . S
C137 C136 1.356 . S
H138 C132 0.930 . S
H139 C133 0.930 1_455 S
C140 N141 1.314 . S
C140 C142 1.353 . S
C140 H146 0.930 . S
N141 Li91 1.990 . S
N141 C140 1.314 . S
N141 C144 1.279 . S
C142 C140 1.353 . S
C142 C145 1.348 . S
C142 H174 0.929 . S
C143 C144 1.358 . S
C143 C145 1.356 . S
C143 H175 0.930 . S
C144 N141 1.279 . S
C144 C143 1.358 . S
C144 H147 0.930 . S
C145 C142 1.348 . S
C145 C143 1.356 . S
H146 C140 0.930 . S
H147 C144 0.930 . S
O148 Li88 1.956 1_655 S
O148 Li89 1.970 . S
O148 Li90 1.961 . S
O148 C92 1.325 . S
O149 Li88 1.970 . S
O149 Li89 1.956 1_455 S
O149 Li91 1.961 . S
O149 C98 1.325 . S
O150 Li88 1.961 . S
O150 Li90 1.956 1_455 S
O150 Li91 1.970 . S
O150 C120 1.325 . S
O151 Li89 1.961 . S
O151 Li90 1.970 . S
O151 Li91 1.956 1_655 S
O151 C126 1.325 . S
H152 C94 0.929 . S
H153 C95 0.930 . S
H154 C96 0.930 . S
H155 C97 0.930 . S
H156 C99 0.930 . S
H157 C101 0.929 . S
H158 C102 0.930 . S
H159 C103 0.930 . S
H160 C106 0.930 . S
H161 C109 0.929 . S
H162 C114 0.929 . S
H163 C115 0.930 . S
H164 C122 0.929 . S
H165 C123 0.930 . S
H166 C124 0.930 . S
H167 C125 0.930 . S
H168 C127 0.929 . S
H169 C128 0.930 . S
H170 C129 0.930 . S
H171 C130 0.930 . S
H172 C134 0.929 . S
H173 C136 0.930 . S
H174 C142 0.929 . S
H175 C143 0.930 . S
Li176 N193 1.990 . S
Li176 O236 1.956 . S
Li176 O237 1.970 . S
Li176 O238 1.961 . S
Li177 N201 1.990 . S
Li177 O236 1.970 . S
Li177 O237 1.956 . S
Li177 O239 1.961 . S
Li178 N223 1.990 . S
Li178 O236 1.961 . S
Li178 O238 1.956 . S
Li178 O239 1.970 . S
Li179 N229 1.990 . S
Li179 O237 1.961 . S
Li179 O238 1.970 . S
Li179 O239 1.956 . S
C180 C182 1.348 . S
C180 C183 1.356 . S
C180 O236 1.325 . S
N181 C184 1.314 . S
N181 C185 1.279 . S
C182 C180 1.348 . S
C182 C184 1.353 . S
C182 H240 0.929 . S
C183 C180 1.356 . S
C183 C185 1.358 . S
C183 H241 0.930 . S
C184 N181 1.314 . S
C184 C182 1.353 . S
C184 H242 0.930 . S
C185 N181 1.279 . S
C185 C183 1.358 . S
C185 H243 0.930 . S
C186 C189 1.348 . S
C186 C190 1.356 . S
C186 O237 1.325 . S
C187 N188 1.279 . S
C187 C190 1.358 . S
C187 H244 0.930 . S
N188 C187 1.279 . S
N188 C191 1.314 . S
C189 C186 1.348 . S
C189 C191 1.353 . S
C189 H245 0.929 . S
C190 C186 1.356 . S
C190 C187 1.358 . S
C190 H246 0.930 . S
C191 N188 1.314 . S
C191 C189 1.353 . S
C191 H247 0.930 . S
C192 N193 1.314 . S
C192 C197 1.353 . S
C192 H198 0.930 . S
N193 Li176 1.990 . S
N193 C192 1.314 . S
N193 C195 1.279 . S
C194 C195 1.358 . S
C194 C196 1.356 . S
C194 H248 0.930 . S
C195 N193 1.279 . S
C195 C194 1.358 . S
C195 H199 0.930 . S
C196 C194 1.356 . S
C196 C197 1.348 . S
C197 C192 1.353 . S
C197 C196 1.348 . S
C197 H249 0.929 . S
H198 C192 0.930 . S
H199 C195 0.930 . S
C200 N201 1.314 . S
C200 C202 1.353 . S
C200 H206 0.930 . S
N201 Li177 1.990 . S
N201 C200 1.314 . S
N201 C204 1.279 . S
C202 C200 1.353 . S
C202 C205 1.348 . S
C202 H250 0.929 . S
C203 C204 1.358 . S
C203 C205 1.356 . S
C203 H251 0.930 . S
C204 N201 1.279 . S
C204 C203 1.358 . S
C204 H207 0.930 . S
C205 C202 1.348 . S
C205 C203 1.356 . S
H206 C200 0.930 . S
H207 C204 0.930 . S
C208 C210 1.348 . S
C208 C211 1.356 . S
C208 O238 1.325 . S
N209 C212 1.314 . S
N209 C213 1.279 . S
C210 C208 1.348 . S
C210 C212 1.353 . S
C210 H252 0.929 . S
C211 C208 1.356 . S
C211 C213 1.358 . S
C211 H253 0.930 . S
C212 N209 1.314 . S
C212 C210 1.353 . S
C212 H254 0.930 . S
C213 N209 1.279 . S
C213 C211 1.358 . S
C213 H255 0.930 . S
C214 C215 1.348 . S
C214 C216 1.356 . S
C214 O239 1.325 . S
C215 C214 1.348 . S
C215 C217 1.353 . S
C215 H256 0.929 . S
C216 C214 1.356 . S
C216 C218 1.358 . S
C216 H257 0.930 . S
C217 C215 1.353 . S
C217 N219 1.314 . S
C217 H258 0.930 . S
C218 C216 1.358 . S
C218 N219 1.279 . S
C218 H259 0.930 . S
N219 C217 1.314 . S
N219 C218 1.279 . S
C220 C222 1.353 . S
C220 N223 1.314 . S
C220 H226 0.930 . S
C221 N223 1.279 . S
C221 C224 1.358 . S
C221 H227 0.930 . S
C222 C220 1.353 . S
C222 C225 1.348 . S
C222 H260 0.929 . S
N223 Li178 1.990 . S
N223 C220 1.314 . S
N223 C221 1.279 . S
C224 C221 1.358 . S
C224 C225 1.356 . S
C224 H261 0.930 . S
C225 C222 1.348 . S
C225 C224 1.356 . S
H226 C220 0.930 . S
H227 C221 0.930 . S
C228 N229 1.314 . S
C228 C230 1.353 . S
C228 H234 0.930 . S
N229 Li179 1.990 . S
N229 C228 1.314 . S
N229 C232 1.279 . S
C230 C228 1.353 . S
C230 C233 1.348 . S
C230 H262 0.929 . S
C231 C232 1.358 . S
C231 C233 1.356 . S
C231 H263 0.930 . S
C232 N229 1.279 . S
C232 C231 1.358 . S
C232 H235 0.930 . S
C233 C230 1.348 . S
C233 C231 1.356 . S
H234 C228 0.930 . S
H235 C232 0.930 . S
O236 Li176 1.956 . S
O236 Li177 1.970 . S
O236 Li178 1.961 . S
O236 C180 1.325 . S
O237 Li176 1.970 . S
O237 Li177 1.956 . S
O237 Li179 1.961 . S
O237 C186 1.325 . S
O238 Li176 1.961 . S
O238 Li178 1.956 . S
O238 Li179 1.970 . S
O238 C208 1.325 . S
O239 Li177 1.961 . S
O239 Li178 1.970 . S
O239 Li179 1.956 . S
O239 C214 1.325 . S
H240 C182 0.929 . S
H241 C183 0.930 . S
H242 C184 0.930 . S
H243 C185 0.930 . S
H244 C187 0.930 . S
H245 C189 0.929 . S
H246 C190 0.930 . S
H247 C191 0.930 . S
H248 C194 0.930 . S
H249 C197 0.929 . S
H250 C202 0.929 . S
H251 C203 0.930 . S
H252 C210 0.929 . S
H253 C211 0.930 . S
H254 C212 0.930 . S
H255 C213 0.930 . S
H256 C215 0.929 . S
H257 C216 0.930 . S
H258 C217 0.930 . S
H259 C218 0.930 . S
H260 C222 0.929 . S
H261 C224 0.930 . S
H262 C230 0.929 . S
H263 C231 0.930 . S
Li264 N281 1.990 . S
Li264 O324 1.956 . S
Li264 O325 1.970 . S
Li264 O326 1.961 . S
Li265 N289 1.990 . S
Li265 O324 1.970 . S
Li265 O325 1.956 . S
Li265 O327 1.961 . S
Li266 N311 1.990 . S
Li266 O324 1.961 . S
Li266 O326 1.956 . S
Li266 O327 1.970 . S
Li267 N317 1.990 . S
Li267 O325 1.961 . S
Li267 O326 1.970 . S
Li267 O327 1.956 . S
C268 C270 1.348 . S
C268 C271 1.356 . S
C268 O324 1.325 . S
N269 C272 1.314 . S
N269 C273 1.279 . S
C270 C268 1.348 . S
C270 C272 1.353 . S
C270 H328 0.929 . S
C271 C268 1.356 . S
C271 C273 1.358 . S
C271 H329 0.930 . S
C272 N269 1.314 . S
C272 C270 1.353 . S
C272 H330 0.930 . S
C273 N269 1.279 . S
C273 C271 1.358 . S
C273 H331 0.930 . S
C274 C277 1.348 . S
C274 C278 1.356 . S
C274 O325 1.325 . S
C275 N276 1.279 . S
C275 C278 1.358 . S
C275 H332 0.930 . S
N276 C275 1.279 . S
N276 C279 1.314 . S
C277 C274 1.348 . S
C277 C279 1.353 . S
C277 H333 0.929 . S
C278 C274 1.356 . S
C278 C275 1.358 . S
C278 H334 0.930 . S
C279 N276 1.314 . S
C279 C277 1.353 . S
C279 H335 0.930 . S
C280 N281 1.314 . S
C280 C285 1.353 . S
C280 H286 0.930 . S
N281 Li264 1.990 . S
N281 C280 1.314 . S
N281 C283 1.279 . S
C282 C283 1.358 . S
C282 C284 1.356 . S
C282 H336 0.930 . S
C283 N281 1.279 . S
C283 C282 1.358 . S
C283 H287 0.930 . S
C284 C282 1.356 . S
C284 C285 1.348 . S
C285 C280 1.353 . S
C285 C284 1.348 . S
C285 H337 0.929 . S
H286 C280 0.930 . S
H287 C283 0.930 . S
C288 N289 1.314 . S
C288 C290 1.353 . S
C288 H294 0.930 . S
N289 Li265 1.990 . S
N289 C288 1.314 . S
N289 C292 1.279 . S
C290 C288 1.353 . S
C290 C293 1.348 . S
C290 H338 0.929 . S
C291 C292 1.358 . S
C291 C293 1.356 . S
C291 H339 0.930 . S
C292 N289 1.279 . S
C292 C291 1.358 . S
C292 H295 0.930 . S
C293 C290 1.348 . S
C293 C291 1.356 . S
H294 C288 0.930 . S
H295 C292 0.930 . S
C296 C298 1.348 . S
C296 C299 1.356 . S
C296 O326 1.325 . S
N297 C300 1.314 . S
N297 C301 1.279 . S
C298 C296 1.348 . S
C298 C300 1.353 . S
C298 H340 0.929 . S
C299 C296 1.356 . S
C299 C301 1.358 . S
C299 H341 0.930 . S
C300 N297 1.314 . S
C300 C298 1.353 . S
C300 H342 0.930 . S
C301 N297 1.279 . S
C301 C299 1.358 . S
C301 H343 0.930 . S
C302 C303 1.348 . S
C302 C304 1.356 . S
C302 O327 1.325 . S
C303 C302 1.348 . S
C303 C305 1.353 . S
C303 H344 0.929 . S
C304 C302 1.356 . S
C304 C306 1.358 . S
C304 H345 0.930 . S
C305 C303 1.353 . S
C305 N307 1.314 . S
C305 H346 0.930 . S
C306 C304 1.358 . S
C306 N307 1.279 . S
C306 H347 0.930 . S
N307 C305 1.314 . S
N307 C306 1.279 . S
C308 C310 1.353 . S
C308 N311 1.314 . S
C308 H314 0.930 . S
C309 N311 1.279 . S
C309 C312 1.358 . S
C309 H315 0.930 . S
C310 C308 1.353 . S
C310 C313 1.348 . S
C310 H348 0.929 . S
N311 Li266 1.990 . S
N311 C308 1.314 . S
N311 C309 1.279 . S
C312 C309 1.358 . S
C312 C313 1.356 . S
C312 H349 0.930 . S
C313 C310 1.348 . S
C313 C312 1.356 . S
H314 C308 0.930 . S
H315 C309 0.930 . S
C316 N317 1.314 . S
C316 C318 1.353 . S
C316 H322 0.930 . S
N317 Li267 1.990 . S
N317 C316 1.314 . S
N317 C320 1.279 . S
C318 C316 1.353 . S
C318 C321 1.348 . S
C318 H350 0.929 . S
C319 C320 1.358 . S
C319 C321 1.356 . S
C319 H351 0.930 . S
C320 N317 1.279 . S
C320 C319 1.358 . S
C320 H323 0.930 . S
C321 C318 1.348 . S
C321 C319 1.356 . S
H322 C316 0.930 . S
H323 C320 0.930 . S
O324 Li264 1.956 . S
O324 Li265 1.970 . S
O324 Li266 1.961 . S
O324 C268 1.325 . S
O325 Li264 1.970 . S
O325 Li265 1.956 . S
O325 Li267 1.961 . S
O325 C274 1.325 . S
O326 Li264 1.961 . S
O326 Li266 1.956 . S
O326 Li267 1.970 . S
O326 C296 1.325 . S
O327 Li265 1.961 . S
O327 Li266 1.970 . S
O327 Li267 1.956 . S
O327 C302 1.325 . S
H328 C270 0.929 . S
H329 C271 0.930 . S
H330 C272 0.930 . S
H331 C273 0.930 . S
H332 C275 0.930 . S
H333 C277 0.929 . S
H334 C278 0.930 . S
H335 C279 0.930 . S
H336 C282 0.930 . S
H337 C285 0.929 . S
H338 C290 0.929 . S
H339 C291 0.930 . S
H340 C298 0.929 . S
H341 C299 0.930 . S
H342 C300 0.930 . S
H343 C301 0.930 . S
H344 C303 0.929 . S
H345 C304 0.930 . S
H346 C305 0.930 . S
H347 C306 0.930 . S
H348 C310 0.929 . S
H349 C312 0.930 . S
H350 C318 0.929 . S
H351 C319 0.930 . S
Li352 N369 1.990 . S
Li352 O412 1.956 . S
Li352 O413 1.970 . S
Li352 O414 1.961 1_455 S
Li353 N377 1.990 . S
Li353 O412 1.970 . S
Li353 O413 1.956 . S
Li353 O415 1.961 1_455 S
Li354 N399 1.990 . S
Li354 O412 1.961 1_655 S
Li354 O414 1.956 . S
Li354 O415 1.970 . S
Li355 N405 1.990 . S
Li355 O413 1.961 1_655 S
Li355 O414 1.970 . S
Li355 O415 1.956 . S
C356 C358 1.348 . S
C356 C359 1.356 . S
C356 O412 1.325 . S
N357 C360 1.314 . S
N357 C361 1.279 . S
C358 C356 1.348 . S
C358 C360 1.353 . S
C358 H416 0.929 . S
C359 C356 1.356 . S
C359 C361 1.358 . S
C359 H417 0.930 . S
C360 N357 1.314 . S
C360 C358 1.353 . S
C360 H418 0.930 . S
C361 N357 1.279 . S
C361 C359 1.358 . S
C361 H419 0.930 . S
C362 C365 1.348 . S
C362 C366 1.356 . S
C362 O413 1.325 . S
C363 N364 1.279 . S
C363 C366 1.358 . S
C363 H420 0.930 . S
N364 C363 1.279 . S
N364 C367 1.314 . S
C365 C362 1.348 . S
C365 C367 1.353 . S
C365 H421 0.929 . S
C366 C362 1.356 . S
C366 C363 1.358 . S
C366 H422 0.930 . S
C367 N364 1.314 . S
C367 C365 1.353 . S
C367 H423 0.930 . S
C368 N369 1.314 . S
C368 C373 1.353 . S
C368 H374 0.930 1_455 S
N369 Li352 1.990 . S
N369 C368 1.314 . S
N369 C371 1.279 . S
C370 C371 1.358 . S
C370 C372 1.356 . S
C370 H424 0.930 . S
C371 N369 1.279 . S
C371 C370 1.358 . S
C371 H375 0.930 . S
C372 C370 1.356 . S
C372 C373 1.348 . S
C373 C368 1.353 . S
C373 C372 1.348 . S
C373 H425 0.929 . S
H374 C368 0.930 1_655 S
H375 C371 0.930 . S
C376 N377 1.314 . S
C376 C378 1.353 . S
C376 H382 0.930 . S
N377 Li353 1.990 . S
N377 C376 1.314 . S
N377 C380 1.279 . S
C378 C376 1.353 . S
C378 C381 1.348 . S
C378 H426 0.929 . S
C379 C380 1.358 . S
C379 C381 1.356 . S
C379 H427 0.930 . S
C380 N377 1.279 . S
C380 C379 1.358 . S
C380 H383 0.930 . S
C381 C378 1.348 . S
C381 C379 1.356 . S
H382 C376 0.930 . S
H383 C380 0.930 . S
C384 C386 1.348 . S
C384 C387 1.356 . S
C384 O414 1.325 . S
N385 C388 1.314 . S
N385 C389 1.279 . S
C386 C384 1.348 . S
C386 C388 1.353 . S
C386 H428 0.929 . S
C387 C384 1.356 . S
C387 C389 1.358 . S
C387 H429 0.930 . S
C388 N385 1.314 . S
C388 C386 1.353 . S
C388 H430 0.930 . S
C389 N385 1.279 . S
C389 C387 1.358 . S
C389 H431 0.930 . S
C390 C391 1.348 . S
C390 C392 1.356 . S
C390 O415 1.325 . S
C391 C390 1.348 . S
C391 C393 1.353 . S
C391 H432 0.929 . S
C392 C390 1.356 . S
C392 C394 1.358 . S
C392 H433 0.930 . S
C393 C391 1.353 . S
C393 N395 1.314 . S
C393 H434 0.930 . S
C394 C392 1.358 . S
C394 N395 1.279 . S
C394 H435 0.930 . S
N395 C393 1.314 . S
N395 C394 1.279 . S
C396 C398 1.353 . S
C396 N399 1.314 . S
C396 H402 0.930 1_655 S
C397 N399 1.279 . S
C397 C400 1.358 . S
C397 H403 0.930 . S
C398 C396 1.353 . S
C398 C401 1.348 . S
C398 H436 0.929 . S
N399 Li354 1.990 . S
N399 C396 1.314 . S
N399 C397 1.279 . S
C400 C397 1.358 . S
C400 C401 1.356 . S
C400 H437 0.930 . S
C401 C398 1.348 . S
C401 C400 1.356 . S
H402 C396 0.930 1_455 S
H403 C397 0.930 . S
C404 N405 1.314 . S
C404 C406 1.353 . S
C404 H410 0.930 . S
N405 Li355 1.990 . S
N405 C404 1.314 . S
N405 C408 1.279 . S
C406 C404 1.353 . S
C406 C409 1.348 . S
C406 H438 0.929 . S
C407 C408 1.358 . S
C407 C409 1.356 . S
C407 H439 0.930 . S
C408 N405 1.279 . S
C408 C407 1.358 . S
C408 H411 0.930 . S
C409 C406 1.348 . S
C409 C407 1.356 . S
H410 C404 0.930 . S
H411 C408 0.930 . S
O412 Li352 1.956 . S
O412 Li353 1.970 . S
O412 Li354 1.961 1_455 S
O412 C356 1.325 . S
O413 Li352 1.970 . S
O413 Li353 1.956 . S
O413 Li355 1.961 1_455 S
O413 C362 1.325 . S
O414 Li352 1.961 1_655 S
O414 Li354 1.956 . S
O414 Li355 1.970 . S
O414 C384 1.325 . S
O415 Li353 1.961 1_655 S
O415 Li354 1.970 . S
O415 Li355 1.956 . S
O415 C390 1.325 . S
H416 C358 0.929 . S
H417 C359 0.930 . S
H418 C360 0.930 . S
H419 C361 0.930 . S
H420 C363 0.930 . S
H421 C365 0.929 . S
H422 C366 0.930 . S
H423 C367 0.930 . S
H424 C370 0.930 . S
H425 C373 0.929 . S
H426 C378 0.929 . S
H427 C379 0.930 . S
H428 C386 0.929 . S
H429 C387 0.930 . S
H430 C388 0.930 . S
H431 C389 0.930 . S
H432 C391 0.929 . S
H433 C392 0.930 . S
H434 C393 0.930 . S
H435 C394 0.930 . S
H436 C398 0.929 . S
H437 C400 0.930 . S
H438 C406 0.929 . S
H439 C407 0.930 . S
Li440 N457 1.990 . S
Li440 O500 1.956 . S
Li440 O501 1.970 . S
Li440 O502 1.961 . S
Li441 N465 1.990 . S
Li441 O500 1.970 . S
Li441 O501 1.956 . S
Li441 O503 1.961 . S
Li442 N487 1.990 . S
Li442 O500 1.961 . S
Li442 O502 1.956 . S
Li442 O503 1.970 . S
Li443 N493 1.990 . S
Li443 O501 1.961 . S
Li443 O502 1.970 . S
Li443 O503 1.956 . S
C444 C446 1.348 . S
C444 C447 1.356 . S
C444 O500 1.325 . S
N445 C448 1.314 . S
N445 C449 1.279 . S
C446 C444 1.348 . S
C446 C448 1.353 . S
C446 H504 0.929 . S
C447 C444 1.356 . S
C447 C449 1.358 . S
C447 H505 0.930 . S
C448 N445 1.314 . S
C448 C446 1.353 . S
C448 H506 0.930 . S
C449 N445 1.279 . S
C449 C447 1.358 . S
C449 H507 0.930 . S
C450 C453 1.348 . S
C450 C454 1.356 . S
C450 O501 1.325 . S
C451 N452 1.279 . S
C451 C454 1.358 . S
C451 H508 0.930 . S
N452 C451 1.279 . S
N452 C455 1.314 . S
C453 C450 1.348 . S
C453 C455 1.353 . S
C453 H509 0.929 . S
C454 C450 1.356 . S
C454 C451 1.358 . S
C454 H510 0.930 . S
C455 N452 1.314 . S
C455 C453 1.353 . S
C455 H511 0.930 . S
C456 N457 1.314 . S
C456 C461 1.353 . S
C456 H462 0.930 . S
N457 Li440 1.990 . S
N457 C456 1.314 . S
N457 C459 1.279 . S
C458 C459 1.358 . S
C458 C460 1.356 . S
C458 H512 0.930 . S
C459 N457 1.279 . S
C459 C458 1.358 . S
C459 H463 0.930 . S
C460 C458 1.356 . S
C460 C461 1.348 . S
C461 C456 1.353 . S
C461 C460 1.348 . S
C461 H513 0.929 . S
H462 C456 0.930 . S
H463 C459 0.930 . S
C464 N465 1.314 . S
C464 C466 1.353 . S
C464 H470 0.930 . S
N465 Li441 1.990 . S
N465 C464 1.314 . S
N465 C468 1.279 . S
C466 C464 1.353 . S
C466 C469 1.348 . S
C466 H514 0.929 . S
C467 C468 1.358 . S
C467 C469 1.356 . S
C467 H515 0.930 . S
C468 N465 1.279 . S
C468 C467 1.358 . S
C468 H471 0.930 . S
C469 C466 1.348 . S
C469 C467 1.356 . S
H470 C464 0.930 . S
H471 C468 0.930 . S
C472 C474 1.348 . S
C472 C475 1.356 . S
C472 O502 1.325 . S
N473 C476 1.314 . S
N473 C477 1.279 . S
C474 C472 1.348 . S
C474 C476 1.353 . S
C474 H516 0.929 . S
C475 C472 1.356 . S
C475 C477 1.358 . S
C475 H517 0.930 . S
C476 N473 1.314 . S
C476 C474 1.353 . S
C476 H518 0.930 . S
C477 N473 1.279 . S
C477 C475 1.358 . S
C477 H519 0.930 . S
C478 C479 1.348 . S
C478 C480 1.356 . S
C478 O503 1.325 . S
C479 C478 1.348 . S
C479 C481 1.353 . S
C479 H520 0.929 . S
C480 C478 1.356 . S
C480 C482 1.358 . S
C480 H521 0.930 . S
C481 C479 1.353 . S
C481 N483 1.314 . S
C481 H522 0.930 . S
C482 C480 1.358 . S
C482 N483 1.279 . S
C482 H523 0.930 . S
N483 C481 1.314 . S
N483 C482 1.279 . S
C484 C486 1.353 . S
C484 N487 1.314 . S
C484 H490 0.930 . S
C485 N487 1.279 . S
C485 C488 1.358 . S
C485 H491 0.930 . S
C486 C484 1.353 . S
C486 C489 1.348 . S
C486 H524 0.929 . S
N487 Li442 1.990 . S
N487 C484 1.314 . S
N487 C485 1.279 . S
C488 C485 1.358 . S
C488 C489 1.356 . S
C488 H525 0.930 . S
C489 C486 1.348 . S
C489 C488 1.356 . S
H490 C484 0.930 . S
H491 C485 0.930 . S
C492 N493 1.314 . S
C492 C494 1.353 . S
C492 H498 0.930 . S
N493 Li443 1.990 . S
N493 C492 1.314 . S
N493 C496 1.279 . S
C494 C492 1.353 . S
C494 C497 1.348 . S
C494 H526 0.929 . S
C495 C496 1.358 . S
C495 C497 1.356 . S
C495 H527 0.930 . S
C496 N493 1.279 . S
C496 C495 1.358 . S
C496 H499 0.930 . S
C497 C494 1.348 . S
C497 C495 1.356 . S
H498 C492 0.930 . S
H499 C496 0.930 . S
O500 Li440 1.956 . S
O500 Li441 1.970 . S
O500 Li442 1.961 . S
O500 C444 1.325 . S
O501 Li440 1.970 . S
O501 Li441 1.956 . S
O501 Li443 1.961 . S
O501 C450 1.325 . S
O502 Li440 1.961 . S
O502 Li442 1.956 . S
O502 Li443 1.970 . S
O502 C472 1.325 . S
O503 Li441 1.961 . S
O503 Li442 1.970 . S
O503 Li443 1.956 . S
O503 C478 1.325 . S
H504 C446 0.929 . S
H505 C447 0.930 . S
H506 C448 0.930 . S
H507 C449 0.930 . S
H508 C451 0.930 . S
H509 C453 0.929 . S
H510 C454 0.930 . S
H511 C455 0.930 . S
H512 C458 0.930 . S
H513 C461 0.929 . S
H514 C466 0.929 . S
H515 C467 0.930 . S
H516 C474 0.929 . S
H517 C475 0.930 . S
H518 C476 0.930 . S
H519 C477 0.930 . S
H520 C479 0.929 . S
H521 C480 0.930 . S
H522 C481 0.930 . S
H523 C482 0.930 . S
H524 C486 0.929 . S
H525 C488 0.930 . S
H526 C494 0.929 . S
H527 C495 0.930 . S
Li528 N545 1.990 . S
Li528 O588 1.956 . S
Li528 O589 1.970 . S
Li528 O590 1.961 . S
Li529 N553 1.990 . S
Li529 O588 1.970 . S
Li529 O589 1.956 . S
Li529 O591 1.961 . S
Li530 N575 1.990 . S
Li530 O588 1.961 . S
Li530 O590 1.956 . S
Li530 O591 1.970 . S
Li531 N581 1.990 . S
Li531 O589 1.961 . S
Li531 O590 1.970 . S
Li531 O591 1.956 . S
C532 C534 1.348 . S
C532 C535 1.356 . S
C532 O588 1.325 . S
N533 C536 1.314 . S
N533 C537 1.279 . S
C534 C532 1.348 . S
C534 C536 1.353 . S
C534 H592 0.929 . S
C535 C532 1.356 . S
C535 C537 1.358 . S
C535 H593 0.930 . S
C536 N533 1.314 . S
C536 C534 1.353 . S
C536 H594 0.930 . S
C537 N533 1.279 . S
C537 C535 1.358 . S
C537 H595 0.930 . S
C538 C541 1.348 . S
C538 C542 1.356 . S
C538 O589 1.325 . S
C539 N540 1.279 . S
C539 C542 1.358 . S
C539 H596 0.930 . S
N540 C539 1.279 . S
N540 C543 1.314 . S
C541 C538 1.348 . S
C541 C543 1.353 . S
C541 H597 0.929 . S
C542 C538 1.356 . S
C542 C539 1.358 . S
C542 H598 0.930 . S
C543 N540 1.314 . S
C543 C541 1.353 . S
C543 H599 0.930 . S
C544 N545 1.314 . S
C544 C549 1.353 . S
C544 H550 0.930 . S
N545 Li528 1.990 . S
N545 C544 1.314 . S
N545 C547 1.279 . S
C546 C547 1.358 . S
C546 C548 1.356 . S
C546 H600 0.930 . S
C547 N545 1.279 . S
C547 C546 1.358 . S
C547 H551 0.930 . S
C548 C546 1.356 . S
C548 C549 1.348 . S
C549 C544 1.353 . S
C549 C548 1.348 . S
C549 H601 0.929 . S
H550 C544 0.930 . S
H551 C547 0.930 . S
C552 N553 1.314 . S
C552 C554 1.353 . S
C552 H558 0.930 . S
N553 Li529 1.990 . S
N553 C552 1.314 . S
N553 C556 1.279 . S
C554 C552 1.353 . S
C554 C557 1.348 . S
C554 H602 0.929 . S
C555 C556 1.358 . S
C555 C557 1.356 . S
C555 H603 0.930 . S
C556 N553 1.279 . S
C556 C555 1.358 . S
C556 H559 0.930 . S
C557 C554 1.348 . S
C557 C555 1.356 . S
H558 C552 0.930 . S
H559 C556 0.930 . S
C560 C562 1.348 . S
C560 C563 1.356 . S
C560 O590 1.325 . S
N561 C564 1.314 . S
N561 C565 1.279 . S
C562 C560 1.348 . S
C562 C564 1.353 . S
C562 H604 0.929 . S
C563 C560 1.356 . S
C563 C565 1.358 . S
C563 H605 0.930 . S
C564 N561 1.314 . S
C564 C562 1.353 . S
C564 H606 0.930 . S
C565 N561 1.279 . S
C565 C563 1.358 . S
C565 H607 0.930 . S
C566 C567 1.348 . S
C566 C568 1.356 . S
C566 O591 1.325 . S
C567 C566 1.348 . S
C567 C569 1.353 . S
C567 H608 0.929 . S
C568 C566 1.356 . S
C568 C570 1.358 . S
C568 H609 0.930 . S
C569 C567 1.353 . S
C569 N571 1.314 . S
C569 H610 0.930 . S
C570 C568 1.358 . S
C570 N571 1.279 . S
C570 H611 0.930 . S
N571 C569 1.314 . S
N571 C570 1.279 . S
C572 C574 1.353 . S
C572 N575 1.314 . S
C572 H578 0.930 . S
C573 N575 1.279 . S
C573 C576 1.358 . S
C573 H579 0.930 . S
C574 C572 1.353 . S
C574 C577 1.348 . S
C574 H612 0.929 . S
N575 Li530 1.990 . S
N575 C572 1.314 . S
N575 C573 1.279 . S
C576 C573 1.358 . S
C576 C577 1.356 . S
C576 H613 0.930 . S
C577 C574 1.348 . S
C577 C576 1.356 . S
H578 C572 0.930 . S
H579 C573 0.930 . S
C580 N581 1.314 . S
C580 C582 1.353 . S
C580 H586 0.930 . S
N581 Li531 1.990 . S
N581 C580 1.314 . S
N581 C584 1.279 . S
C582 C580 1.353 . S
C582 C585 1.348 . S
C582 H614 0.929 . S
C583 C584 1.358 . S
C583 C585 1.356 . S
C583 H615 0.930 . S
C584 N581 1.279 . S
C584 C583 1.358 . S
C584 H587 0.930 . S
C585 C582 1.348 . S
C585 C583 1.356 . S
H586 C580 0.930 . S
H587 C584 0.930 . S
O588 Li528 1.956 . S
O588 Li529 1.970 . S
O588 Li530 1.961 . S
O588 C532 1.325 . S
O589 Li528 1.970 . S
O589 Li529 1.956 . S
O589 Li531 1.961 . S
O589 C538 1.325 . S
O590 Li528 1.961 . S
O590 Li530 1.956 . S
O590 Li531 1.970 . S
O590 C560 1.325 . S
O591 Li529 1.961 . S
O591 Li530 1.970 . S
O591 Li531 1.956 . S
O591 C566 1.325 . S
H592 C534 0.929 . S
H593 C535 0.930 . S
H594 C536 0.930 . S
H595 C537 0.930 . S
H596 C539 0.930 . S
H597 C541 0.929 . S
H598 C542 0.930 . S
H599 C543 0.930 . S
H600 C546 0.930 . S
H601 C549 0.929 . S
H602 C554 0.929 . S
H603 C555 0.930 . S
H604 C562 0.929 . S
H605 C563 0.930 . S
H606 C564 0.930 . S
H607 C565 0.930 . S
H608 C567 0.929 . S
H609 C568 0.930 . S
H610 C569 0.930 . S
H611 C570 0.930 . S
H612 C574 0.929 . S
H613 C576 0.930 . S
H614 C582 0.929 . S
H615 C583 0.930 . S
Li616 N633 1.990 . S
Li616 O676 1.956 1_655 S
Li616 O677 1.970 . S
Li616 O678 1.961 . S
Li617 N641 1.990 . S
Li617 O676 1.970 . S
Li617 O677 1.956 1_455 S
Li617 O679 1.961 . S
Li618 N663 1.990 . S
Li618 O676 1.961 . S
Li618 O678 1.956 1_455 S
Li618 O679 1.970 . S
Li619 N669 1.990 . S
Li619 O677 1.961 . S
Li619 O678 1.970 . S
Li619 O679 1.956 1_655 S
C620 C622 1.348 . S
C620 C623 1.356 . S
C620 O676 1.325 . S
N621 C624 1.314 . S
N621 C625 1.279 . S
C622 C620 1.348 . S
C622 C624 1.353 . S
C622 H680 0.929 . S
C623 C620 1.356 . S
C623 C625 1.358 . S
C623 H681 0.930 . S
C624 N621 1.314 . S
C624 C622 1.353 . S
C624 H682 0.930 . S
C625 N621 1.279 . S
C625 C623 1.358 . S
C625 H683 0.930 . S
C626 C629 1.348 . S
C626 C630 1.356 . S
C626 O677 1.325 . S
C627 N628 1.279 . S
C627 C630 1.358 . S
C627 H684 0.930 . S
N628 C627 1.279 . S
N628 C631 1.314 . S
C629 C626 1.348 . S
C629 C631 1.353 . S
C629 H685 0.929 . S
C630 C626 1.356 . S
C630 C627 1.358 . S
C630 H686 0.930 . S
C631 N628 1.314 . S
C631 C629 1.353 . S
C631 H687 0.930 . S
C632 N633 1.314 . S
C632 C637 1.353 . S
C632 H638 0.930 . S
N633 Li616 1.990 . S
N633 C632 1.314 . S
N633 C635 1.279 . S
C634 C635 1.358 . S
C634 C636 1.356 . S
C634 H688 0.930 . S
C635 N633 1.279 . S
C635 C634 1.358 . S
C635 H639 0.930 1_655 S
C636 C634 1.356 . S
C636 C637 1.348 . S
C637 C632 1.353 . S
C637 C636 1.348 . S
C637 H689 0.929 . S
H638 C632 0.930 . S
H639 C635 0.930 1_455 S
C640 N641 1.314 . S
C640 C642 1.353 . S
C640 H646 0.930 . S
N641 Li617 1.990 . S
N641 C640 1.314 . S
N641 C644 1.279 . S
C642 C640 1.353 . S
C642 C645 1.348 . S
C642 H690 0.929 . S
C643 C644 1.358 . S
C643 C645 1.356 . S
C643 H691 0.930 . S
C644 N641 1.279 . S
C644 C643 1.358 . S
C644 H647 0.930 . S
C645 C642 1.348 . S
C645 C643 1.356 . S
H646 C640 0.930 . S
H647 C644 0.930 . S
C648 C650 1.348 . S
C648 C651 1.356 . S
C648 O678 1.325 . S
N649 C652 1.314 . S
N649 C653 1.279 . S
C650 C648 1.348 . S
C650 C652 1.353 . S
C650 H692 0.929 . S
C651 C648 1.356 . S
C651 C653 1.358 . S
C651 H693 0.930 . S
C652 N649 1.314 . S
C652 C650 1.353 . S
C652 H694 0.930 . S
C653 N649 1.279 . S
C653 C651 1.358 . S
C653 H695 0.930 . S
C654 C655 1.348 . S
C654 C656 1.356 . S
C654 O679 1.325 . S
C655 C654 1.348 . S
C655 C657 1.353 . S
C655 H696 0.929 . S
C656 C654 1.356 . S
C656 C658 1.358 . S
C656 H697 0.930 . S
C657 C655 1.353 . S
C657 N659 1.314 . S
C657 H698 0.930 . S
C658 C656 1.358 . S
C658 N659 1.279 . S
C658 H699 0.930 . S
N659 C657 1.314 . S
N659 C658 1.279 . S
C660 C662 1.353 . S
C660 N663 1.314 . S
C660 H666 0.930 . S
C661 N663 1.279 . S
C661 C664 1.358 . S
C661 H667 0.930 1_455 S
C662 C660 1.353 . S
C662 C665 1.348 . S
C662 H700 0.929 . S
N663 Li618 1.990 . S
N663 C660 1.314 . S
N663 C661 1.279 . S
C664 C661 1.358 . S
C664 C665 1.356 . S
C664 H701 0.930 . S
C665 C662 1.348 . S
C665 C664 1.356 . S
H666 C660 0.930 . S
H667 C661 0.930 1_655 S
C668 N669 1.314 . S
C668 C670 1.353 . S
C668 H674 0.930 . S
N669 Li619 1.990 . S
N669 C668 1.314 . S
N669 C672 1.279 . S
C670 C668 1.353 . S
C670 C673 1.348 . S
C670 H702 0.929 . S
C671 C672 1.358 . S
C671 C673 1.356 . S
C671 H703 0.930 . S
C672 N669 1.279 . S
C672 C671 1.358 . S
C672 H675 0.930 . S
C673 C670 1.348 . S
C673 C671 1.356 . S
H674 C668 0.930 . S
H675 C672 0.930 . S
O676 Li616 1.956 1_455 S
O676 Li617 1.970 . S
O676 Li618 1.961 . S
O676 C620 1.325 . S
O677 Li616 1.970 . S
O677 Li617 1.956 1_655 S
O677 Li619 1.961 . S
O677 C626 1.325 . S
O678 Li616 1.961 . S
O678 Li618 1.956 1_655 S
O678 Li619 1.970 . S
O678 C648 1.325 . S
O679 Li617 1.961 . S
O679 Li618 1.970 . S
O679 Li619 1.956 1_455 S
O679 C654 1.325 . S
H680 C622 0.929 . S
H681 C623 0.930 . S
H682 C624 0.930 . S
H683 C625 0.930 . S
H684 C627 0.930 . S
H685 C629 0.929 . S
H686 C630 0.930 . S
H687 C631 0.930 . S
H688 C634 0.930 . S
H689 C637 0.929 . S
H690 C642 0.929 . S
H691 C643 0.930 . S
H692 C650 0.929 . S
H693 C651 0.930 . S
H694 C652 0.930 . S
H695 C653 0.930 . S
H696 C655 0.929 . S
H697 C656 0.930 . S
H698 C657 0.930 . S
H699 C658 0.930 . S
H700 C662 0.929 . S
H701 C664 0.930 . S
H702 C670 0.929 . S
H703 C671 0.930 . S
Li704 N721 1.990 . S
Li704 O764 1.956 . S
Li704 O765 1.970 . S
Li704 O766 1.961 1_545 S
Li705 N729 1.990 . S
Li705 O764 1.970 . S
Li705 O765 1.956 . S
Li705 O767 1.961 1_545 S
Li706 N751 1.990 . S
Li706 O764 1.961 1_565 S
Li706 O766 1.956 . S
Li706 O767 1.970 . S
Li707 N757 1.990 . S
Li707 O765 1.961 1_565 S
Li707 O766 1.970 . S
Li707 O767 1.956 . S
C708 C710 1.348 . S
C708 C711 1.356 . S
C708 O764 1.325 . S
N709 C712 1.314 . S
N709 C713 1.279 . S
C710 C708 1.348 . S
C710 C712 1.353 . S
C710 H768 0.929 . S
C711 C708 1.356 . S
C711 C713 1.358 . S
C711 H769 0.930 . S
C712 N709 1.314 . S
C712 C710 1.353 . S
C712 H770 0.930 . S
C713 N709 1.279 . S
C713 C711 1.358 . S
C713 H771 0.930 . S
C714 C717 1.348 . S
C714 C718 1.356 . S
C714 O765 1.325 . S
C715 N716 1.279 . S
C715 C718 1.358 . S
C715 H772 0.930 . S
N716 C715 1.279 . S
N716 C719 1.314 . S
C717 C714 1.348 . S
C717 C719 1.353 . S
C717 H773 0.929 . S
C718 C714 1.356 . S
C718 C715 1.358 . S
C718 H774 0.930 . S
C719 N716 1.314 . S
C719 C717 1.353 . S
C719 H775 0.930 . S
C720 N721 1.314 . S
C720 C725 1.353 . S
C720 H726 0.930 . S
N721 Li704 1.990 . S
N721 C720 1.314 . S
N721 C723 1.279 . S
C722 C723 1.358 . S
C722 C724 1.356 . S
C722 H776 0.930 . S
C723 N721 1.279 . S
C723 C722 1.358 . S
C723 H727 0.930 . S
C724 C722 1.356 . S
C724 C725 1.348 . S
C725 C720 1.353 . S
C725 C724 1.348 . S
C725 H777 0.929 . S
H726 C720 0.930 . S
H727 C723 0.930 . S
C728 N729 1.314 . S
C728 C730 1.353 . S
C728 H734 0.930 1_545 S
N729 Li705 1.990 . S
N729 C728 1.314 . S
N729 C732 1.279 . S
C730 C728 1.353 . S
C730 C733 1.348 . S
C730 H778 0.929 . S
C731 C732 1.358 . S
C731 C733 1.356 . S
C731 H779 0.930 . S
C732 N729 1.279 . S
C732 C731 1.358 . S
C732 H735 0.930 . S
C733 C730 1.348 . S
C733 C731 1.356 . S
H734 C728 0.930 1_565 S
H735 C732 0.930 . S
C736 C738 1.348 . S
C736 C739 1.356 . S
C736 O766 1.325 . S
N737 C740 1.314 . S
N737 C741 1.279 . S
C738 C736 1.348 . S
C738 C740 1.353 . S
C738 H780 0.929 . S
C739 C736 1.356 . S
C739 C741 1.358 . S
C739 H781 0.930 . S
C740 N737 1.314 . S
C740 C738 1.353 . S
C740 H782 0.930 . S
C741 N737 1.279 . S
C741 C739 1.358 . S
C741 H783 0.930 . S
C742 C743 1.348 . S
C742 C744 1.356 . S
C742 O767 1.325 . S
C743 C742 1.348 . S
C743 C745 1.353 . S
C743 H784 0.929 . S
C744 C742 1.356 . S
C744 C746 1.358 . S
C744 H785 0.930 . S
C745 C743 1.353 . S
C745 N747 1.314 . S
C745 H786 0.930 . S
C746 C744 1.358 . S
C746 N747 1.279 . S
C746 H787 0.930 . S
N747 C745 1.314 . S
N747 C746 1.279 . S
C748 C750 1.353 . S
C748 N751 1.314 . S
C748 H754 0.930 . S
C749 N751 1.279 . S
C749 C752 1.358 . S
C749 H755 0.930 . S
C750 C748 1.353 . S
C750 C753 1.348 . S
C750 H788 0.929 . S
N751 Li706 1.990 . S
N751 C748 1.314 . S
N751 C749 1.279 . S
C752 C749 1.358 . S
C752 C753 1.356 . S
C752 H789 0.930 . S
C753 C750 1.348 . S
C753 C752 1.356 . S
H754 C748 0.930 . S
H755 C749 0.930 . S
C756 N757 1.314 . S
C756 C758 1.353 . S
C756 H762 0.930 1_565 S
N757 Li707 1.990 . S
N757 C756 1.314 . S
N757 C760 1.279 . S
C758 C756 1.353 . S
C758 C761 1.348 . S
C758 H790 0.929 . S
C759 C760 1.358 . S
C759 C761 1.356 . S
C759 H791 0.930 . S
C760 N757 1.279 . S
C760 C759 1.358 . S
C760 H763 0.930 . S
C761 C758 1.348 . S
C761 C759 1.356 . S
H762 C756 0.930 1_545 S
H763 C760 0.930 . S
O764 Li704 1.956 . S
O764 Li705 1.970 . S
O764 Li706 1.961 1_545 S
O764 C708 1.325 . S
O765 Li704 1.970 . S
O765 Li705 1.956 . S
O765 Li707 1.961 1_545 S
O765 C714 1.325 . S
O766 Li704 1.961 1_565 S
O766 Li706 1.956 . S
O766 Li707 1.970 . S
O766 C736 1.325 . S
O767 Li705 1.961 1_565 S
O767 Li706 1.970 . S
O767 Li707 1.956 . S
O767 C742 1.325 . S
H768 C710 0.929 . S
H769 C711 0.930 . S
H770 C712 0.930 . S
H771 C713 0.930 . S
H772 C715 0.930 . S
H773 C717 0.929 . S
H774 C718 0.930 . S
H775 C719 0.930 . S
H776 C722 0.930 . S
H777 C725 0.929 . S
H778 C730 0.929 . S
H779 C731 0.930 . S
H780 C738 0.929 . S
H781 C739 0.930 . S
H782 C740 0.930 . S
H783 C741 0.930 . S
H784 C743 0.929 . S
H785 C744 0.930 . S
H786 C745 0.930 . S
H787 C746 0.930 . S
H788 C750 0.929 . S
H789 C752 0.930 . S
H790 C758 0.929 . S
H791 C759 0.930 . S
Li792 N809 1.990 . S
Li792 O852 1.956 . S
Li792 O853 1.970 . S
Li792 O854 1.961 . S
Li793 N817 1.990 . S
Li793 O852 1.970 . S
Li793 O853 1.956 . S
Li793 O855 1.961 . S
Li794 N839 1.990 . S
Li794 O852 1.961 . S
Li794 O854 1.956 . S
Li794 O855 1.970 . S
Li795 N845 1.990 . S
Li795 O853 1.961 . S
Li795 O854 1.970 . S
Li795 O855 1.956 . S
C796 C798 1.348 . S
C796 C799 1.356 . S
C796 O852 1.325 . S
N797 C800 1.314 . S
N797 C801 1.279 . S
C798 C796 1.348 . S
C798 C800 1.353 . S
C798 H856 0.929 . S
C799 C796 1.356 . S
C799 C801 1.358 . S
C799 H857 0.930 . S
C800 N797 1.314 . S
C800 C798 1.353 . S
C800 H858 0.930 . S
C801 N797 1.279 . S
C801 C799 1.358 . S
C801 H859 0.930 . S
C802 C805 1.348 . S
C802 C806 1.356 . S
C802 O853 1.325 . S
C803 N804 1.279 . S
C803 C806 1.358 . S
C803 H860 0.930 . S
N804 C803 1.279 . S
N804 C807 1.314 . S
C805 C802 1.348 . S
C805 C807 1.353 . S
C805 H861 0.929 . S
C806 C802 1.356 . S
C806 C803 1.358 . S
C806 H862 0.930 . S
C807 N804 1.314 . S
C807 C805 1.353 . S
C807 H863 0.930 . S
C808 N809 1.314 . S
C808 C813 1.353 . S
C808 H814 0.930 . S
N809 Li792 1.990 . S
N809 C808 1.314 . S
N809 C811 1.279 . S
C810 C811 1.358 . S
C810 C812 1.356 . S
C810 H864 0.930 . S
C811 N809 1.279 . S
C811 C810 1.358 . S
C811 H815 0.930 . S
C812 C810 1.356 . S
C812 C813 1.348 . S
C813 C808 1.353 . S
C813 C812 1.348 . S
C813 H865 0.929 . S
H814 C808 0.930 . S
H815 C811 0.930 . S
C816 N817 1.314 . S
C816 C818 1.353 . S
C816 H822 0.930 . S
N817 Li793 1.990 . S
N817 C816 1.314 . S
N817 C820 1.279 . S
C818 C816 1.353 . S
C818 C821 1.348 . S
C818 H866 0.929 . S
C819 C820 1.358 . S
C819 C821 1.356 . S
C819 H867 0.930 . S
C820 N817 1.279 . S
C820 C819 1.358 . S
C820 H823 0.930 . S
C821 C818 1.348 . S
C821 C819 1.356 . S
H822 C816 0.930 . S
H823 C820 0.930 . S
C824 C826 1.348 . S
C824 C827 1.356 . S
C824 O854 1.325 . S
N825 C828 1.314 . S
N825 C829 1.279 . S
C826 C824 1.348 . S
C826 C828 1.353 . S
C826 H868 0.929 . S
C827 C824 1.356 . S
C827 C829 1.358 . S
C827 H869 0.930 . S
C828 N825 1.314 . S
C828 C826 1.353 . S
C828 H870 0.930 . S
C829 N825 1.279 . S
C829 C827 1.358 . S
C829 H871 0.930 . S
C830 C831 1.348 . S
C830 C832 1.356 . S
C830 O855 1.325 . S
C831 C830 1.348 . S
C831 C833 1.353 . S
C831 H872 0.929 . S
C832 C830 1.356 . S
C832 C834 1.358 . S
C832 H873 0.930 . S
C833 C831 1.353 . S
C833 N835 1.314 . S
C833 H874 0.930 . S
C834 C832 1.358 . S
C834 N835 1.279 . S
C834 H875 0.930 . S
N835 C833 1.314 . S
N835 C834 1.279 . S
C836 C838 1.353 . S
C836 N839 1.314 . S
C836 H842 0.930 . S
C837 N839 1.279 . S
C837 C840 1.358 . S
C837 H843 0.930 . S
C838 C836 1.353 . S
C838 C841 1.348 . S
C838 H876 0.929 . S
N839 Li794 1.990 . S
N839 C836 1.314 . S
N839 C837 1.279 . S
C840 C837 1.358 . S
C840 C841 1.356 . S
C840 H877 0.930 . S
C841 C838 1.348 . S
C841 C840 1.356 . S
H842 C836 0.930 . S
H843 C837 0.930 . S
C844 N845 1.314 . S
C844 C846 1.353 . S
C844 H850 0.930 . S
N845 Li795 1.990 . S
N845 C844 1.314 . S
N845 C848 1.279 . S
C846 C844 1.353 . S
C846 C849 1.348 . S
C846 H878 0.929 . S
C847 C848 1.358 . S
C847 C849 1.356 . S
C847 H879 0.930 . S
C848 N845 1.279 . S
C848 C847 1.358 . S
C848 H851 0.930 . S
C849 C846 1.348 . S
C849 C847 1.356 . S
H850 C844 0.930 . S
H851 C848 0.930 . S
O852 Li792 1.956 . S
O852 Li793 1.970 . S
O852 Li794 1.961 . S
O852 C796 1.325 . S
O853 Li792 1.970 . S
O853 Li793 1.956 . S
O853 Li795 1.961 . S
O853 C802 1.325 . S
O854 Li792 1.961 . S
O854 Li794 1.956 . S
O854 Li795 1.970 . S
O854 C824 1.325 . S
O855 Li793 1.961 . S
O855 Li794 1.970 . S
O855 Li795 1.956 . S
O855 C830 1.325 . S
H856 C798 0.929 . S
H857 C799 0.930 . S
H858 C800 0.930 . S
H859 C801 0.930 . S
H860 C803 0.930 . S
H861 C805 0.929 . S
H862 C806 0.930 . S
H863 C807 0.930 . S
H864 C810 0.930 . S
H865 C813 0.929 . S
H866 C818 0.929 . S
H867 C819 0.930 . S
H868 C826 0.929 . S
H869 C827 0.930 . S
H870 C828 0.930 . S
H871 C829 0.930 . S
H872 C831 0.929 . S
H873 C832 0.930 . S
H874 C833 0.930 . S
H875 C834 0.930 . S
H876 C838 0.929 . S
H877 C840 0.930 . S
H878 C846 0.929 . S
H879 C847 0.930 . S
Li880 N897 1.990 . S
Li880 O940 1.956 . S
Li880 O941 1.970 . S
Li880 O942 1.961 1_545 S
Li881 N905 1.990 . S
Li881 O940 1.970 . S
Li881 O941 1.956 . S
Li881 O943 1.961 1_545 S
Li882 N927 1.990 . S
Li882 O940 1.961 1_565 S
Li882 O942 1.956 . S
Li882 O943 1.970 . S
Li883 N933 1.990 . S
Li883 O941 1.961 1_565 S
Li883 O942 1.970 . S
Li883 O943 1.956 . S
C884 C886 1.348 . S
C884 C887 1.356 . S
C884 O940 1.325 . S
N885 C888 1.314 . S
N885 C889 1.279 . S
C886 C884 1.348 . S
C886 C888 1.353 . S
C886 H944 0.929 . S
C887 C884 1.356 . S
C887 C889 1.358 . S
C887 H945 0.930 . S
C888 N885 1.314 . S
C888 C886 1.353 . S
C888 H946 0.930 . S
C889 N885 1.279 . S
C889 C887 1.358 . S
C889 H947 0.930 . S
C890 C893 1.348 . S
C890 C894 1.356 . S
C890 O941 1.325 . S
C891 N892 1.279 . S
C891 C894 1.358 . S
C891 H948 0.930 . S
N892 C891 1.279 . S
N892 C895 1.314 . S
C893 C890 1.348 . S
C893 C895 1.353 . S
C893 H949 0.929 . S
C894 C890 1.356 . S
C894 C891 1.358 . S
C894 H950 0.930 . S
C895 N892 1.314 . S
C895 C893 1.353 . S
C895 H951 0.930 . S
C896 N897 1.314 . S
C896 C901 1.353 . S
C896 H902 0.930 1_545 S
N897 Li880 1.990 . S
N897 C896 1.314 . S
N897 C899 1.279 . S
C898 C899 1.358 . S
C898 C900 1.356 . S
C898 H952 0.930 . S
C899 N897 1.279 . S
C899 C898 1.358 . S
C899 H903 0.930 . S
C900 C898 1.356 . S
C900 C901 1.348 . S
C901 C896 1.353 . S
C901 C900 1.348 . S
C901 H953 0.929 . S
H902 C896 0.930 1_565 S
H903 C899 0.930 . S
C904 N905 1.314 . S
C904 C906 1.353 . S
C904 H910 0.930 . S
N905 Li881 1.990 . S
N905 C904 1.314 . S
N905 C908 1.279 . S
C906 C904 1.353 . S
C906 C909 1.348 . S
C906 H954 0.929 . S
C907 C908 1.358 . S
C907 C909 1.356 . S
C907 H955 0.930 . S
C908 N905 1.279 . S
C908 C907 1.358 . S
C908 H911 0.930 . S
C909 C906 1.348 . S
C909 C907 1.356 . S
H910 C904 0.930 . S
H911 C908 0.930 . S
C912 C914 1.348 . S
C912 C915 1.356 . S
C912 O942 1.325 . S
N913 C916 1.314 . S
N913 C917 1.279 . S
C914 C912 1.348 . S
C914 C916 1.353 . S
C914 H956 0.929 . S
C915 C912 1.356 . S
C915 C917 1.358 . S
C915 H957 0.930 . S
C916 N913 1.314 . S
C916 C914 1.353 . S
C916 H958 0.930 . S
C917 N913 1.279 . S
C917 C915 1.358 . S
C917 H959 0.930 . S
C918 C919 1.348 . S
C918 C920 1.356 . S
C918 O943 1.325 . S
C919 C918 1.348 . S
C919 C921 1.353 . S
C919 H960 0.929 . S
C920 C918 1.356 . S
C920 C922 1.358 . S
C920 H961 0.930 . S
C921 C919 1.353 . S
C921 N923 1.314 . S
C921 H962 0.930 . S
C922 C920 1.358 . S
C922 N923 1.279 . S
C922 H963 0.930 . S
N923 C921 1.314 . S
N923 C922 1.279 . S
C924 C926 1.353 . S
C924 N927 1.314 . S
C924 H930 0.930 1_565 S
C925 N927 1.279 . S
C925 C928 1.358 . S
C925 H931 0.930 . S
C926 C924 1.353 . S
C926 C929 1.348 . S
C926 H964 0.929 . S
N927 Li882 1.990 . S
N927 C924 1.314 . S
N927 C925 1.279 . S
C928 C925 1.358 . S
C928 C929 1.356 . S
C928 H965 0.930 . S
C929 C926 1.348 . S
C929 C928 1.356 . S
H930 C924 0.930 1_545 S
H931 C925 0.930 . S
C932 N933 1.314 . S
C932 C934 1.353 . S
C932 H938 0.930 . S
N933 Li883 1.990 . S
N933 C932 1.314 . S
N933 C936 1.279 . S
C934 C932 1.353 . S
C934 C937 1.348 . S
C934 H966 0.929 . S
C935 C936 1.358 . S
C935 C937 1.356 . S
C935 H967 0.930 . S
C936 N933 1.279 . S
C936 C935 1.358 . S
C936 H939 0.930 . S
C937 C934 1.348 . S
C937 C935 1.356 . S
H938 C932 0.930 . S
H939 C936 0.930 . S
O940 Li880 1.956 . S
O940 Li881 1.970 . S
O940 Li882 1.961 1_545 S
O940 C884 1.325 . S
O941 Li880 1.970 . S
O941 Li881 1.956 . S
O941 Li883 1.961 1_545 S
O941 C890 1.325 . S
O942 Li880 1.961 1_565 S
O942 Li882 1.956 . S
O942 Li883 1.970 . S
O942 C912 1.325 . S
O943 Li881 1.961 1_565 S
O943 Li882 1.970 . S
O943 Li883 1.956 . S
O943 C918 1.325 . S
H944 C886 0.929 . S
H945 C887 0.930 . S
H946 C888 0.930 . S
H947 C889 0.930 . S
H948 C891 0.930 . S
H949 C893 0.929 . S
H950 C894 0.930 . S
H951 C895 0.930 . S
H952 C898 0.930 . S
H953 C901 0.929 . S
H954 C906 0.929 . S
H955 C907 0.930 . S
H956 C914 0.929 . S
H957 C915 0.930 . S
H958 C916 0.930 . S
H959 C917 0.930 . S
H960 C919 0.929 . S
H961 C920 0.930 . S
H962 C921 0.930 . S
H963 C922 0.930 . S
H964 C926 0.929 . S
H965 C928 0.930 . S
H966 C934 0.929 . S
H967 C935 0.930 . S
Li968 N985 1.990 . S
Li968 O1028 1.956 1_556 S
Li968 O1029 1.970 . S
Li968 O1030 1.961 . S
Li969 N993 1.990 . S
Li969 O1028 1.970 . S
Li969 O1029 1.956 1_554 S
Li969 O1031 1.961 . S
Li970 N1015 1.990 . S
Li970 O1028 1.961 . S
Li970 O1030 1.956 1_554 S
Li970 O1031 1.970 . S
Li971 N1021 1.990 . S
Li971 O1029 1.961 . S
Li971 O1030 1.970 . S
Li971 O1031 1.956 1_556 S
C972 C974 1.348 . S
C972 C975 1.356 . S
C972 O1028 1.325 . S
N973 C976 1.314 . S
N973 C977 1.279 . S
C974 C972 1.348 . S
C974 C976 1.353 . S
C974 H1032 0.929 . S
C975 C972 1.356 . S
C975 C977 1.358 . S
C975 H1033 0.930 . S
C976 N973 1.314 . S
C976 C974 1.353 . S
C976 H1034 0.930 . S
C977 N973 1.279 . S
C977 C975 1.358 . S
C977 H1035 0.930 . S
C978 C981 1.348 . S
C978 C982 1.356 . S
C978 O1029 1.325 . S
C979 N980 1.279 . S
C979 C982 1.358 . S
C979 H1036 0.930 . S
N980 C979 1.279 . S
N980 C983 1.314 . S
C981 C978 1.348 . S
C981 C983 1.353 . S
C981 H1037 0.929 . S
C982 C978 1.356 . S
C982 C979 1.358 . S
C982 H1038 0.930 . S
C983 N980 1.314 . S
C983 C981 1.353 . S
C983 H1039 0.930 . S
C984 N985 1.314 . S
C984 C989 1.353 . S
C984 H990 0.930 . S
N985 Li968 1.990 . S
N985 C984 1.314 . S
N985 C987 1.279 . S
C986 C987 1.358 . S
C986 C988 1.356 . S
C986 H1040 0.930 . S
C987 N985 1.279 . S
C987 C986 1.358 . S
C987 H991 0.930 1_556 S
C988 C986 1.356 . S
C988 C989 1.348 . S
C989 C984 1.353 . S
C989 C988 1.348 . S
C989 H1041 0.929 . S
H990 C984 0.930 . S
H991 C987 0.930 1_554 S
C992 N993 1.314 . S
C992 C994 1.353 . S
C992 H998 0.930 . S
N993 Li969 1.990 . S
N993 C992 1.314 . S
N993 C996 1.279 . S
C994 C992 1.353 . S
C994 C997 1.348 . S
C994 H1042 0.929 . S
C995 C996 1.358 . S
C995 C997 1.356 . S
C995 H1043 0.930 . S
C996 N993 1.279 . S
C996 C995 1.358 . S
C996 H999 0.930 . S
C997 C994 1.348 . S
C997 C995 1.356 . S
H998 C992 0.930 . S
H999 C996 0.930 . S
C1000 C1002 1.348 . S
C1000 C1003 1.356 . S
C1000 O1030 1.325 . S
N1001 C1004 1.314 . S
N1001 C1005 1.279 . S
C1002 C1000 1.348 . S
C1002 C1004 1.353 . S
C1002 H1044 0.929 . S
C1003 C1000 1.356 . S
C1003 C1005 1.358 . S
C1003 H1045 0.930 . S
C1004 N1001 1.314 . S
C1004 C1002 1.353 . S
C1004 H1046 0.930 . S
C1005 N1001 1.279 . S
C1005 C1003 1.358 . S
C1005 H1047 0.930 . S
C1006 C1007 1.348 . S
C1006 C1008 1.356 . S
C1006 O1031 1.325 . S
C1007 C1006 1.348 . S
C1007 C1009 1.353 . S
C1007 H1048 0.929 . S
C1008 C1006 1.356 . S
C1008 C1010 1.358 . S
C1008 H1049 0.930 . S
C1009 C1007 1.353 . S
C1009 N1011 1.314 . S
C1009 H1050 0.930 . S
C1010 C1008 1.358 . S
C1010 N1011 1.279 . S
C1010 H1051 0.930 . S
N1011 C1009 1.314 . S
N1011 C1010 1.279 . S
C1012 C1014 1.353 . S
C1012 N1015 1.314 . S
C1012 H1018 0.930 . S
C1013 N1015 1.279 . S
C1013 C1016 1.358 . S
C1013 H1019 0.930 1_554 S
C1014 C1012 1.353 . S
C1014 C1017 1.348 . S
C1014 H1052 0.929 . S
N1015 Li970 1.990 . S
N1015 C1012 1.314 . S
N1015 C1013 1.279 . S
C1016 C1013 1.358 . S
C1016 C1017 1.356 . S
C1016 H1053 0.930 . S
C1017 C1014 1.348 . S
C1017 C1016 1.356 . S
H1018 C1012 0.930 . S
H1019 C1013 0.930 1_556 S
C1020 N1021 1.314 . S
C1020 C1022 1.353 . S
C1020 H1026 0.930 . S
N1021 Li971 1.990 . S
N1021 C1020 1.314 . S
N1021 C1024 1.279 . S
C1022 C1020 1.353 . S
C1022 C1025 1.348 . S
C1022 H1054 0.929 . S
C1023 C1024 1.358 . S
C1023 C1025 1.356 . S
C1023 H1055 0.930 . S
C1024 N1021 1.279 . S
C1024 C1023 1.358 . S
C1024 H1027 0.930 . S
C1025 C1022 1.348 . S
C1025 C1023 1.356 . S
H1026 C1020 0.930 . S
H1027 C1024 0.930 . S
O1028 Li968 1.956 1_554 S
O1028 Li969 1.970 . S
O1028 Li970 1.961 . S
O1028 C972 1.325 . S
O1029 Li968 1.970 . S
O1029 Li969 1.956 1_556 S
O1029 Li971 1.961 . S
O1029 C978 1.325 . S
O1030 Li968 1.961 . S
O1030 Li970 1.956 1_556 S
O1030 Li971 1.970 . S
O1030 C1000 1.325 . S
O1031 Li969 1.961 . S
O1031 Li970 1.970 . S
O1031 Li971 1.956 1_554 S
O1031 C1006 1.325 . S
H1032 C974 0.929 . S
H1033 C975 0.930 . S
H1034 C976 0.930 . S
H1035 C977 0.930 . S
H1036 C979 0.930 . S
H1037 C981 0.929 . S
H1038 C982 0.930 . S
H1039 C983 0.930 . S
H1040 C986 0.930 . S
H1041 C989 0.929 . S
H1042 C994 0.929 . S
H1043 C995 0.930 . S
H1044 C1002 0.929 . S
H1045 C1003 0.930 . S
H1046 C1004 0.930 . S
H1047 C1005 0.930 . S
H1048 C1007 0.929 . S
H1049 C1008 0.930 . S
H1050 C1009 0.930 . S
H1051 C1010 0.930 . S
H1052 C1014 0.929 . S
H1053 C1016 0.930 . S
H1054 C1022 0.929 . S
H1055 C1023 0.930 . S
Li1056 N1073 1.990 . S
Li1056 O1116 1.956 . S
Li1056 O1117 1.970 . S
Li1056 O1118 1.961 1_554 S
Li1057 N1081 1.990 . S
Li1057 O1116 1.970 . S
Li1057 O1117 1.956 . S
Li1057 O1119 1.961 1_554 S
Li1058 N1103 1.990 . S
Li1058 O1116 1.961 1_556 S
Li1058 O1118 1.956 . S
Li1058 O1119 1.970 . S
Li1059 N1109 1.990 . S
Li1059 O1117 1.961 1_556 S
Li1059 O1118 1.970 . S
Li1059 O1119 1.956 . S
C1060 C1062 1.348 . S
C1060 C1063 1.356 . S
C1060 O1116 1.325 . S
N1061 C1064 1.314 . S
N1061 C1065 1.279 . S
C1062 C1060 1.348 . S
C1062 C1064 1.353 . S
C1062 H1120 0.929 . S
C1063 C1060 1.356 . S
C1063 C1065 1.358 . S
C1063 H1121 0.930 . S
C1064 N1061 1.314 . S
C1064 C1062 1.353 . S
C1064 H1122 0.930 . S
C1065 N1061 1.279 . S
C1065 C1063 1.358 . S
C1065 H1123 0.930 . S
C1066 C1069 1.348 . S
C1066 C1070 1.356 . S
C1066 O1117 1.325 . S
C1067 N1068 1.279 . S
C1067 C1070 1.358 . S
C1067 H1124 0.930 . S
N1068 C1067 1.279 . S
N1068 C1071 1.314 . S
C1069 C1066 1.348 . S
C1069 C1071 1.353 . S
C1069 H1125 0.929 . S
C1070 C1066 1.356 . S
C1070 C1067 1.358 . S
C1070 H1126 0.930 . S
C1071 N1068 1.314 . S
C1071 C1069 1.353 . S
C1071 H1127 0.930 . S
C1072 N1073 1.314 . S
C1072 C1077 1.353 . S
C1072 H1078 0.930 . S
N1073 Li1056 1.990 . S
N1073 C1072 1.314 . S
N1073 C1075 1.279 . S
C1074 C1075 1.358 . S
C1074 C1076 1.356 . S
C1074 H1128 0.930 . S
C1075 N1073 1.279 . S
C1075 C1074 1.358 . S
C1075 H1079 0.930 . S
C1076 C1074 1.356 . S
C1076 C1077 1.348 . S
C1077 C1072 1.353 . S
C1077 C1076 1.348 . S
C1077 H1129 0.929 . S
H1078 C1072 0.930 . S
H1079 C1075 0.930 . S
C1080 N1081 1.314 . S
C1080 C1082 1.353 . S
C1080 H1086 0.930 1_554 S
N1081 Li1057 1.990 . S
N1081 C1080 1.314 . S
N1081 C1084 1.279 . S
C1082 C1080 1.353 . S
C1082 C1085 1.348 . S
C1082 H1130 0.929 . S
C1083 C1084 1.358 . S
C1083 C1085 1.356 . S
C1083 H1131 0.930 . S
C1084 N1081 1.279 . S
C1084 C1083 1.358 . S
C1084 H1087 0.930 . S
C1085 C1082 1.348 . S
C1085 C1083 1.356 . S
H1086 C1080 0.930 1_556 S
H1087 C1084 0.930 . S
C1088 C1090 1.348 . S
C1088 C1091 1.356 . S
C1088 O1118 1.325 . S
N1089 C1092 1.314 . S
N1089 C1093 1.279 . S
C1090 C1088 1.348 . S
C1090 C1092 1.353 . S
C1090 H1132 0.929 . S
C1091 C1088 1.356 . S
C1091 C1093 1.358 . S
C1091 H1133 0.930 . S
C1092 N1089 1.314 . S
C1092 C1090 1.353 . S
C1092 H1134 0.930 . S
C1093 N1089 1.279 . S
C1093 C1091 1.358 . S
C1093 H1135 0.930 . S
C1094 C1095 1.348 . S
C1094 C1096 1.356 . S
C1094 O1119 1.325 . S
C1095 C1094 1.348 . S
C1095 C1097 1.353 . S
C1095 H1136 0.929 . S
C1096 C1094 1.356 . S
C1096 C1098 1.358 . S
C1096 H1137 0.930 . S
C1097 C1095 1.353 . S
C1097 N1099 1.314 . S
C1097 H1138 0.930 . S
C1098 C1096 1.358 . S
C1098 N1099 1.279 . S
C1098 H1139 0.930 . S
N1099 C1097 1.314 . S
N1099 C1098 1.279 . S
C1100 C1102 1.353 . S
C1100 N1103 1.314 . S
C1100 H1106 0.930 . S
C1101 N1103 1.279 . S
C1101 C1104 1.358 . S
C1101 H1107 0.930 . S
C1102 C1100 1.353 . S
C1102 C1105 1.348 . S
C1102 H1140 0.929 . S
N1103 Li1058 1.990 . S
N1103 C1100 1.314 . S
N1103 C1101 1.279 . S
C1104 C1101 1.358 . S
C1104 C1105 1.356 . S
C1104 H1141 0.930 . S
C1105 C1102 1.348 . S
C1105 C1104 1.356 . S
H1106 C1100 0.930 . S
H1107 C1101 0.930 . S
C1108 N1109 1.314 . S
C1108 C1110 1.353 . S
C1108 H1114 0.930 1_556 S
N1109 Li1059 1.990 . S
N1109 C1108 1.314 . S
N1109 C1112 1.279 . S
C1110 C1108 1.353 . S
C1110 C1113 1.348 . S
C1110 H1142 0.929 . S
C1111 C1112 1.358 . S
C1111 C1113 1.356 . S
C1111 H1143 0.930 . S
C1112 N1109 1.279 . S
C1112 C1111 1.358 . S
C1112 H1115 0.930 . S
C1113 C1110 1.348 . S
C1113 C1111 1.356 . S
H1114 C1108 0.930 1_554 S
H1115 C1112 0.930 . S
O1116 Li1056 1.956 . S
O1116 Li1057 1.970 . S
O1116 Li1058 1.961 1_554 S
O1116 C1060 1.325 . S
O1117 Li1056 1.970 . S
O1117 Li1057 1.956 . S
O1117 Li1059 1.961 1_554 S
O1117 C1066 1.325 . S
O1118 Li1056 1.961 1_556 S
O1118 Li1058 1.956 . S
O1118 Li1059 1.970 . S
O1118 C1088 1.325 . S
O1119 Li1057 1.961 1_556 S
O1119 Li1058 1.970 . S
O1119 Li1059 1.956 . S
O1119 C1094 1.325 . S
H1120 C1062 0.929 . S
H1121 C1063 0.930 . S
H1122 C1064 0.930 . S
H1123 C1065 0.930 . S
H1124 C1067 0.930 . S
H1125 C1069 0.929 . S
H1126 C1070 0.930 . S
H1127 C1071 0.930 . S
H1128 C1074 0.930 . S
H1129 C1077 0.929 . S
H1130 C1082 0.929 . S
H1131 C1083 0.930 . S
H1132 C1090 0.929 . S
H1133 C1091 0.930 . S
H1134 C1092 0.930 . S
H1135 C1093 0.930 . S
H1136 C1095 0.929 . S
H1137 C1096 0.930 . S
H1138 C1097 0.930 . S
H1139 C1098 0.930 . S
H1140 C1102 0.929 . S
H1141 C1104 0.930 . S
H1142 C1110 0.929 . S
H1143 C1111 0.930 . S
Li1144 N1161 1.990 . S
Li1144 O1204 1.956 . S
Li1144 O1205 1.970 . S
Li1144 O1206 1.961 1_554 S
Li1145 N1169 1.990 . S
Li1145 O1204 1.970 . S
Li1145 O1205 1.956 . S
Li1145 O1207 1.961 1_554 S
Li1146 N1191 1.990 . S
Li1146 O1204 1.961 1_556 S
Li1146 O1206 1.956 . S
Li1146 O1207 1.970 . S
Li1147 N1197 1.990 . S
Li1147 O1205 1.961 1_556 S
Li1147 O1206 1.970 . S
Li1147 O1207 1.956 . S
C1148 C1150 1.348 . S
C1148 C1151 1.356 . S
C1148 O1204 1.325 . S
N1149 C1152 1.314 . S
N1149 C1153 1.279 . S
C1150 C1148 1.348 . S
C1150 C1152 1.353 . S
C1150 H1208 0.929 . S
C1151 C1148 1.356 . S
C1151 C1153 1.358 . S
C1151 H1209 0.930 . S
C1152 N1149 1.314 . S
C1152 C1150 1.353 . S
C1152 H1210 0.930 . S
C1153 N1149 1.279 . S
C1153 C1151 1.358 . S
C1153 H1211 0.930 . S
C1154 C1157 1.348 . S
C1154 C1158 1.356 . S
C1154 O1205 1.325 . S
C1155 N1156 1.279 . S
C1155 C1158 1.358 . S
C1155 H1212 0.930 . S
N1156 C1155 1.279 . S
N1156 C1159 1.314 . S
C1157 C1154 1.348 . S
C1157 C1159 1.353 . S
C1157 H1213 0.929 . S
C1158 C1154 1.356 . S
C1158 C1155 1.358 . S
C1158 H1214 0.930 . S
C1159 N1156 1.314 . S
C1159 C1157 1.353 . S
C1159 H1215 0.930 . S
C1160 N1161 1.314 . S
C1160 C1165 1.353 . S
C1160 H1166 0.930 1_554 S
N1161 Li1144 1.990 . S
N1161 C1160 1.314 . S
N1161 C1163 1.279 . S
C1162 C1163 1.358 . S
C1162 C1164 1.356 . S
C1162 H1216 0.930 . S
C1163 N1161 1.279 . S
C1163 C1162 1.358 . S
C1163 H1167 0.930 . S
C1164 C1162 1.356 . S
C1164 C1165 1.348 . S
C1165 C1160 1.353 . S
C1165 C1164 1.348 . S
C1165 H1217 0.929 . S
H1166 C1160 0.930 1_556 S
H1167 C1163 0.930 . S
C1168 N1169 1.314 . S
C1168 C1170 1.353 . S
C1168 H1174 0.930 . S
N1169 Li1145 1.990 . S
N1169 C1168 1.314 . S
N1169 C1172 1.279 . S
C1170 C1168 1.353 . S
C1170 C1173 1.348 . S
C1170 H1218 0.929 . S
C1171 C1172 1.358 . S
C1171 C1173 1.356 . S
C1171 H1219 0.930 . S
C1172 N1169 1.279 . S
C1172 C1171 1.358 . S
C1172 H1175 0.930 . S
C1173 C1170 1.348 . S
C1173 C1171 1.356 . S
H1174 C1168 0.930 . S
H1175 C1172 0.930 . S
C1176 C1178 1.348 . S
C1176 C1179 1.356 . S
C1176 O1206 1.325 . S
N1177 C1180 1.314 . S
N1177 C1181 1.279 . S
C1178 C1176 1.348 . S
C1178 C1180 1.353 . S
C1178 H1220 0.929 . S
C1179 C1176 1.356 . S
C1179 C1181 1.358 . S
C1179 H1221 0.930 . S
C1180 N1177 1.314 . S
C1180 C1178 1.353 . S
C1180 H1222 0.930 . S
C1181 N1177 1.279 . S
C1181 C1179 1.358 . S
C1181 H1223 0.930 . S
C1182 C1183 1.348 . S
C1182 C1184 1.356 . S
C1182 O1207 1.325 . S
C1183 C1182 1.348 . S
C1183 C1185 1.353 . S
C1183 H1224 0.929 . S
C1184 C1182 1.356 . S
C1184 C1186 1.358 . S
C1184 H1225 0.930 . S
C1185 C1183 1.353 . S
C1185 N1187 1.314 . S
C1185 H1226 0.930 . S
C1186 C1184 1.358 . S
C1186 N1187 1.279 . S
C1186 H1227 0.930 . S
N1187 C1185 1.314 . S
N1187 C1186 1.279 . S
C1188 C1190 1.353 . S
C1188 N1191 1.314 . S
C1188 H1194 0.930 1_556 S
C1189 N1191 1.279 . S
C1189 C1192 1.358 . S
C1189 H1195 0.930 . S
C1190 C1188 1.353 . S
C1190 C1193 1.348 . S
C1190 H1228 0.929 . S
N1191 Li1146 1.990 . S
N1191 C1188 1.314 . S
N1191 C1189 1.279 . S
C1192 C1189 1.358 . S
C1192 C1193 1.356 . S
C1192 H1229 0.930 . S
C1193 C1190 1.348 . S
C1193 C1192 1.356 . S
H1194 C1188 0.930 1_554 S
H1195 C1189 0.930 . S
C1196 N1197 1.314 . S
C1196 C1198 1.353 . S
C1196 H1202 0.930 . S
N1197 Li1147 1.990 . S
N1197 C1196 1.314 . S
N1197 C1200 1.279 . S
C1198 C1196 1.353 . S
C1198 C1201 1.348 . S
C1198 H1230 0.929 . S
C1199 C1200 1.358 . S
C1199 C1201 1.356 . S
C1199 H1231 0.930 . S
C1200 N1197 1.279 . S
C1200 C1199 1.358 . S
C1200 H1203 0.930 . S
C1201 C1198 1.348 . S
C1201 C1199 1.356 . S
H1202 C1196 0.930 . S
H1203 C1200 0.930 . S
O1204 Li1144 1.956 . S
O1204 Li1145 1.970 . S
O1204 Li1146 1.961 1_554 S
O1204 C1148 1.325 . S
O1205 Li1144 1.970 . S
O1205 Li1145 1.956 . S
O1205 Li1147 1.961 1_554 S
O1205 C1154 1.325 . S
O1206 Li1144 1.961 1_556 S
O1206 Li1146 1.956 . S
O1206 Li1147 1.970 . S
O1206 C1176 1.325 . S
O1207 Li1145 1.961 1_556 S
O1207 Li1146 1.970 . S
O1207 Li1147 1.956 . S
O1207 C1182 1.325 . S
H1208 C1150 0.929 . S
H1209 C1151 0.930 . S
H1210 C1152 0.930 . S
H1211 C1153 0.930 . S
H1212 C1155 0.930 . S
H1213 C1157 0.929 . S
H1214 C1158 0.930 . S
H1215 C1159 0.930 . S
H1216 C1162 0.930 . S
H1217 C1165 0.929 . S
H1218 C1170 0.929 . S
H1219 C1171 0.930 . S
H1220 C1178 0.929 . S
H1221 C1179 0.930 . S
H1222 C1180 0.930 . S
H1223 C1181 0.930 . S
H1224 C1183 0.929 . S
H1225 C1184 0.930 . S
H1226 C1185 0.930 . S
H1227 C1186 0.930 . S
H1228 C1190 0.929 . S
H1229 C1192 0.930 . S
H1230 C1198 0.929 . S
H1231 C1199 0.930 . S
Li1232 N1249 1.990 . S
Li1232 O1292 1.956 . S
Li1232 O1293 1.970 . S
Li1232 O1294 1.961 . S
Li1233 N1257 1.990 . S
Li1233 O1292 1.970 . S
Li1233 O1293 1.956 . S
Li1233 O1295 1.961 . S
Li1234 N1279 1.990 . S
Li1234 O1292 1.961 . S
Li1234 O1294 1.956 . S
Li1234 O1295 1.970 . S
Li1235 N1285 1.990 . S
Li1235 O1293 1.961 . S
Li1235 O1294 1.970 . S
Li1235 O1295 1.956 . S
C1236 C1238 1.348 . S
C1236 C1239 1.356 . S
C1236 O1292 1.325 . S
N1237 C1240 1.314 . S
N1237 C1241 1.279 . S
C1238 C1236 1.348 . S
C1238 C1240 1.353 . S
C1238 H1296 0.929 . S
C1239 C1236 1.356 . S
C1239 C1241 1.358 . S
C1239 H1297 0.930 . S
C1240 N1237 1.314 . S
C1240 C1238 1.353 . S
C1240 H1298 0.930 . S
C1241 N1237 1.279 . S
C1241 C1239 1.358 . S
C1241 H1299 0.930 . S
C1242 C1245 1.348 . S
C1242 C1246 1.356 . S
C1242 O1293 1.325 . S
C1243 N1244 1.279 . S
C1243 C1246 1.358 . S
C1243 H1300 0.930 . S
N1244 C1243 1.279 . S
N1244 C1247 1.314 . S
C1245 C1242 1.348 . S
C1245 C1247 1.353 . S
C1245 H1301 0.929 . S
C1246 C1242 1.356 . S
C1246 C1243 1.358 . S
C1246 H1302 0.930 . S
C1247 N1244 1.314 . S
C1247 C1245 1.353 . S
C1247 H1303 0.930 . S
C1248 N1249 1.314 . S
C1248 C1253 1.353 . S
C1248 H1254 0.930 . S
N1249 Li1232 1.990 . S
N1249 C1248 1.314 . S
N1249 C1251 1.279 . S
C1250 C1251 1.358 . S
C1250 C1252 1.356 . S
C1250 H1304 0.930 . S
C1251 N1249 1.279 . S
C1251 C1250 1.358 . S
C1251 H1255 0.930 . S
C1252 C1250 1.356 . S
C1252 C1253 1.348 . S
C1253 C1248 1.353 . S
C1253 C1252 1.348 . S
C1253 H1305 0.929 . S
H1254 C1248 0.930 . S
H1255 C1251 0.930 . S
C1256 N1257 1.314 . S
C1256 C1258 1.353 . S
C1256 H1262 0.930 . S
N1257 Li1233 1.990 . S
N1257 C1256 1.314 . S
N1257 C1260 1.279 . S
C1258 C1256 1.353 . S
C1258 C1261 1.348 . S
C1258 H1306 0.929 . S
C1259 C1260 1.358 . S
C1259 C1261 1.356 . S
C1259 H1307 0.930 . S
C1260 N1257 1.279 . S
C1260 C1259 1.358 . S
C1260 H1263 0.930 . S
C1261 C1258 1.348 . S
C1261 C1259 1.356 . S
H1262 C1256 0.930 . S
H1263 C1260 0.930 . S
C1264 C1266 1.348 . S
C1264 C1267 1.356 . S
C1264 O1294 1.325 . S
N1265 C1268 1.314 . S
N1265 C1269 1.279 . S
C1266 C1264 1.348 . S
C1266 C1268 1.353 . S
C1266 H1308 0.929 . S
C1267 C1264 1.356 . S
C1267 C1269 1.358 . S
C1267 H1309 0.930 . S
C1268 N1265 1.314 . S
C1268 C1266 1.353 . S
C1268 H1310 0.930 . S
C1269 N1265 1.279 . S
C1269 C1267 1.358 . S
C1269 H1311 0.930 . S
C1270 C1271 1.348 . S
C1270 C1272 1.356 . S
C1270 O1295 1.325 . S
C1271 C1270 1.348 . S
C1271 C1273 1.353 . S
C1271 H1312 0.929 . S
C1272 C1270 1.356 . S
C1272 C1274 1.358 . S
C1272 H1313 0.930 . S
C1273 C1271 1.353 . S
C1273 N1275 1.314 . S
C1273 H1314 0.930 . S
C1274 C1272 1.358 . S
C1274 N1275 1.279 . S
C1274 H1315 0.930 . S
N1275 C1273 1.314 . S
N1275 C1274 1.279 . S
C1276 C1278 1.353 . S
C1276 N1279 1.314 . S
C1276 H1282 0.930 . S
C1277 N1279 1.279 . S
C1277 C1280 1.358 . S
C1277 H1283 0.930 . S
C1278 C1276 1.353 . S
C1278 C1281 1.348 . S
C1278 H1316 0.929 . S
N1279 Li1234 1.990 . S
N1279 C1276 1.314 . S
N1279 C1277 1.279 . S
C1280 C1277 1.358 . S
C1280 C1281 1.356 . S
C1280 H1317 0.930 . S
C1281 C1278 1.348 . S
C1281 C1280 1.356 . S
H1282 C1276 0.930 . S
H1283 C1277 0.930 . S
C1284 N1285 1.314 . S
C1284 C1286 1.353 . S
C1284 H1290 0.930 . S
N1285 Li1235 1.990 . S
N1285 C1284 1.314 . S
N1285 C1288 1.279 . S
C1286 C1284 1.353 . S
C1286 C1289 1.348 . S
C1286 H1318 0.929 . S
C1287 C1288 1.358 . S
C1287 C1289 1.356 . S
C1287 H1319 0.930 . S
C1288 N1285 1.279 . S
C1288 C1287 1.358 . S
C1288 H1291 0.930 . S
C1289 C1286 1.348 . S
C1289 C1287 1.356 . S
H1290 C1284 0.930 . S
H1291 C1288 0.930 . S
O1292 Li1232 1.956 . S
O1292 Li1233 1.970 . S
O1292 Li1234 1.961 . S
O1292 C1236 1.325 . S
O1293 Li1232 1.970 . S
O1293 Li1233 1.956 . S
O1293 Li1235 1.961 . S
O1293 C1242 1.325 . S
O1294 Li1232 1.961 . S
O1294 Li1234 1.956 . S
O1294 Li1235 1.970 . S
O1294 C1264 1.325 . S
O1295 Li1233 1.961 . S
O1295 Li1234 1.970 . S
O1295 Li1235 1.956 . S
O1295 C1270 1.325 . S
H1296 C1238 0.929 . S
H1297 C1239 0.930 . S
H1298 C1240 0.930 . S
H1299 C1241 0.930 . S
H1300 C1243 0.930 . S
H1301 C1245 0.929 . S
H1302 C1246 0.930 . S
H1303 C1247 0.930 . S
H1304 C1250 0.930 . S
H1305 C1253 0.929 . S
H1306 C1258 0.929 . S
H1307 C1259 0.930 . S
H1308 C1266 0.929 . S
H1309 C1267 0.930 . S
H1310 C1268 0.930 . S
H1311 C1269 0.930 . S
H1312 C1271 0.929 . S
H1313 C1272 0.930 . S
H1314 C1273 0.930 . S
H1315 C1274 0.930 . S
H1316 C1278 0.929 . S
H1317 C1280 0.930 . S
H1318 C1286 0.929 . S
H1319 C1287 0.930 . S
Li1320 N1337 1.990 . S
Li1320 O1380 1.956 . S
Li1320 O1381 1.970 . S
Li1320 O1382 1.961 . S
Li1321 N1345 1.990 . S
Li1321 O1380 1.970 . S
Li1321 O1381 1.956 . S
Li1321 O1383 1.961 . S
Li1322 N1367 1.990 . S
Li1322 O1380 1.961 . S
Li1322 O1382 1.956 . S
Li1322 O1383 1.970 . S
Li1323 N1373 1.990 . S
Li1323 O1381 1.961 . S
Li1323 O1382 1.970 . S
Li1323 O1383 1.956 . S
C1324 C1326 1.348 . S
C1324 C1327 1.356 . S
C1324 O1380 1.325 . S
N1325 C1328 1.314 . S
N1325 C1329 1.279 . S
C1326 C1324 1.348 . S
C1326 C1328 1.353 . S
C1326 H1384 0.929 . S
C1327 C1324 1.356 . S
C1327 C1329 1.358 . S
C1327 H1385 0.930 . S
C1328 N1325 1.314 . S
C1328 C1326 1.353 . S
C1328 H1386 0.930 . S
C1329 N1325 1.279 . S
C1329 C1327 1.358 . S
C1329 H1387 0.930 . S
C1330 C1333 1.348 . S
C1330 C1334 1.356 . S
C1330 O1381 1.325 . S
C1331 N1332 1.279 . S
C1331 C1334 1.358 . S
C1331 H1388 0.930 . S
N1332 C1331 1.279 . S
N1332 C1335 1.314 . S
C1333 C1330 1.348 . S
C1333 C1335 1.353 . S
C1333 H1389 0.929 . S
C1334 C1330 1.356 . S
C1334 C1331 1.358 . S
C1334 H1390 0.930 . S
C1335 N1332 1.314 . S
C1335 C1333 1.353 . S
C1335 H1391 0.930 . S
C1336 N1337 1.314 . S
C1336 C1341 1.353 . S
C1336 H1342 0.930 . S
N1337 Li1320 1.990 . S
N1337 C1336 1.314 . S
N1337 C1339 1.279 . S
C1338 C1339 1.358 . S
C1338 C1340 1.356 . S
C1338 H1392 0.930 . S
C1339 N1337 1.279 . S
C1339 C1338 1.358 . S
C1339 H1343 0.930 . S
C1340 C1338 1.356 . S
C1340 C1341 1.348 . S
C1341 C1336 1.353 . S
C1341 C1340 1.348 . S
C1341 H1393 0.929 . S
H1342 C1336 0.930 . S
H1343 C1339 0.930 . S
C1344 N1345 1.314 . S
C1344 C1346 1.353 . S
C1344 H1350 0.930 . S
N1345 Li1321 1.990 . S
N1345 C1344 1.314 . S
N1345 C1348 1.279 . S
C1346 C1344 1.353 . S
C1346 C1349 1.348 . S
C1346 H1394 0.929 . S
C1347 C1348 1.358 . S
C1347 C1349 1.356 . S
C1347 H1395 0.930 . S
C1348 N1345 1.279 . S
C1348 C1347 1.358 . S
C1348 H1351 0.930 . S
C1349 C1346 1.348 . S
C1349 C1347 1.356 . S
H1350 C1344 0.930 . S
H1351 C1348 0.930 . S
C1352 C1354 1.348 . S
C1352 C1355 1.356 . S
C1352 O1382 1.325 . S
N1353 C1356 1.314 . S
N1353 C1357 1.279 . S
C1354 C1352 1.348 . S
C1354 C1356 1.353 . S
C1354 H1396 0.929 . S
C1355 C1352 1.356 . S
C1355 C1357 1.358 . S
C1355 H1397 0.930 . S
C1356 N1353 1.314 . S
C1356 C1354 1.353 . S
C1356 H1398 0.930 . S
C1357 N1353 1.279 . S
C1357 C1355 1.358 . S
C1357 H1399 0.930 . S
C1358 C1359 1.348 . S
C1358 C1360 1.356 . S
C1358 O1383 1.325 . S
C1359 C1358 1.348 . S
C1359 C1361 1.353 . S
C1359 H1400 0.929 . S
C1360 C1358 1.356 . S
C1360 C1362 1.358 . S
C1360 H1401 0.930 . S
C1361 C1359 1.353 . S
C1361 N1363 1.314 . S
C1361 H1402 0.930 . S
C1362 C1360 1.358 . S
C1362 N1363 1.279 . S
C1362 H1403 0.930 . S
N1363 C1361 1.314 . S
N1363 C1362 1.279 . S
C1364 C1366 1.353 . S
C1364 N1367 1.314 . S
C1364 H1370 0.930 . S
C1365 N1367 1.279 . S
C1365 C1368 1.358 . S
C1365 H1371 0.930 . S
C1366 C1364 1.353 . S
C1366 C1369 1.348 . S
C1366 H1404 0.929 . S
N1367 Li1322 1.990 . S
N1367 C1364 1.314 . S
N1367 C1365 1.279 . S
C1368 C1365 1.358 . S
C1368 C1369 1.356 . S
C1368 H1405 0.930 . S
C1369 C1366 1.348 . S
C1369 C1368 1.356 . S
H1370 C1364 0.930 . S
H1371 C1365 0.930 . S
C1372 N1373 1.314 . S
C1372 C1374 1.353 . S
C1372 H1378 0.930 . S
N1373 Li1323 1.990 . S
N1373 C1372 1.314 . S
N1373 C1376 1.279 . S
C1374 C1372 1.353 . S
C1374 C1377 1.348 . S
C1374 H1406 0.929 . S
C1375 C1376 1.358 . S
C1375 C1377 1.356 . S
C1375 H1407 0.930 . S
C1376 N1373 1.279 . S
C1376 C1375 1.358 . S
C1376 H1379 0.930 . S
C1377 C1374 1.348 . S
C1377 C1375 1.356 . S
H1378 C1372 0.930 . S
H1379 C1376 0.930 . S
O1380 Li1320 1.956 . S
O1380 Li1321 1.970 . S
O1380 Li1322 1.961 . S
O1380 C1324 1.325 . S
O1381 Li1320 1.970 . S
O1381 Li1321 1.956 . S
O1381 Li1323 1.961 . S
O1381 C1330 1.325 . S
O1382 Li1320 1.961 . S
O1382 Li1322 1.956 . S
O1382 Li1323 1.970 . S
O1382 C1352 1.325 . S
O1383 Li1321 1.961 . S
O1383 Li1322 1.970 . S
O1383 Li1323 1.956 . S
O1383 C1358 1.325 . S
H1384 C1326 0.929 . S
H1385 C1327 0.930 . S
H1386 C1328 0.930 . S
H1387 C1329 0.930 . S
H1388 C1331 0.930 . S
H1389 C1333 0.929 . S
H1390 C1334 0.930 . S
H1391 C1335 0.930 . S
H1392 C1338 0.930 . S
H1393 C1341 0.929 . S
H1394 C1346 0.929 . S
H1395 C1347 0.930 . S
H1396 C1354 0.929 . S
H1397 C1355 0.930 . S
H1398 C1356 0.930 . S
H1399 C1357 0.930 . S
H1400 C1359 0.929 . S
H1401 C1360 0.930 . S
H1402 C1361 0.930 . S
H1403 C1362 0.930 . S
H1404 C1366 0.929 . S
H1405 C1368 0.930 . S
H1406 C1374 0.929 . S
H1407 C1375 0.930 . S
Li1408 N1425 1.990 . S
Li1408 O1468 1.956 1_545 S
Li1408 O1469 1.970 . S
Li1408 O1470 1.961 . S
Li1409 N1433 1.990 . S
Li1409 O1468 1.970 . S
Li1409 O1469 1.956 1_565 S
Li1409 O1471 1.961 . S
Li1410 N1455 1.990 . S
Li1410 O1468 1.961 . S
Li1410 O1470 1.956 1_565 S
Li1410 O1471 1.970 . S
Li1411 N1461 1.990 . S
Li1411 O1469 1.961 . S
Li1411 O1470 1.970 . S
Li1411 O1471 1.956 1_545 S
C1412 C1414 1.348 . S
C1412 C1415 1.356 . S
C1412 O1468 1.325 . S
N1413 C1416 1.314 . S
N1413 C1417 1.279 . S
C1414 C1412 1.348 . S
C1414 C1416 1.353 . S
C1414 H1472 0.929 . S
C1415 C1412 1.356 . S
C1415 C1417 1.358 . S
C1415 H1473 0.930 . S
C1416 N1413 1.314 . S
C1416 C1414 1.353 . S
C1416 H1474 0.930 . S
C1417 N1413 1.279 . S
C1417 C1415 1.358 . S
C1417 H1475 0.930 . S
C1418 C1421 1.348 . S
C1418 C1422 1.356 . S
C1418 O1469 1.325 . S
C1419 N1420 1.279 . S
C1419 C1422 1.358 . S
C1419 H1476 0.930 . S
N1420 C1419 1.279 . S
N1420 C1423 1.314 . S
C1421 C1418 1.348 . S
C1421 C1423 1.353 . S
C1421 H1477 0.929 . S
C1422 C1418 1.356 . S
C1422 C1419 1.358 . S
C1422 H1478 0.930 . S
C1423 N1420 1.314 . S
C1423 C1421 1.353 . S
C1423 H1479 0.930 . S
C1424 N1425 1.314 . S
C1424 C1429 1.353 . S
C1424 H1430 0.930 . S
N1425 Li1408 1.990 . S
N1425 C1424 1.314 . S
N1425 C1427 1.279 . S
C1426 C1427 1.358 . S
C1426 C1428 1.356 . S
C1426 H1480 0.930 . S
C1427 N1425 1.279 . S
C1427 C1426 1.358 . S
C1427 H1431 0.930 . S
C1428 C1426 1.356 . S
C1428 C1429 1.348 . S
C1429 C1424 1.353 . S
C1429 C1428 1.348 . S
C1429 H1481 0.929 . S
H1430 C1424 0.930 . S
H1431 C1427 0.930 . S
C1432 N1433 1.314 . S
C1432 C1434 1.353 . S
C1432 H1438 0.930 . S
N1433 Li1409 1.990 . S
N1433 C1432 1.314 . S
N1433 C1436 1.279 . S
C1434 C1432 1.353 . S
C1434 C1437 1.348 . S
C1434 H1482 0.929 . S
C1435 C1436 1.358 . S
C1435 C1437 1.356 . S
C1435 H1483 0.930 . S
C1436 N1433 1.279 . S
C1436 C1435 1.358 . S
C1436 H1439 0.930 1_565 S
C1437 C1434 1.348 . S
C1437 C1435 1.356 . S
H1438 C1432 0.930 . S
H1439 C1436 0.930 1_545 S
C1440 C1442 1.348 . S
C1440 C1443 1.356 . S
C1440 O1470 1.325 . S
N1441 C1444 1.314 . S
N1441 C1445 1.279 . S
C1442 C1440 1.348 . S
C1442 C1444 1.353 . S
C1442 H1484 0.929 . S
C1443 C1440 1.356 . S
C1443 C1445 1.358 . S
C1443 H1485 0.930 . S
C1444 N1441 1.314 . S
C1444 C1442 1.353 . S
C1444 H1486 0.930 . S
C1445 N1441 1.279 . S
C1445 C1443 1.358 . S
C1445 H1487 0.930 . S
C1446 C1447 1.348 . S
C1446 C1448 1.356 . S
C1446 O1471 1.325 . S
C1447 C1446 1.348 . S
C1447 C1449 1.353 . S
C1447 H1488 0.929 . S
C1448 C1446 1.356 . S
C1448 C1450 1.358 . S
C1448 H1489 0.930 . S
C1449 C1447 1.353 . S
C1449 N1451 1.314 . S
C1449 H1490 0.930 . S
C1450 C1448 1.358 . S
C1450 N1451 1.279 . S
C1450 H1491 0.930 . S
N1451 C1449 1.314 . S
N1451 C1450 1.279 . S
C1452 C1454 1.353 . S
C1452 N1455 1.314 . S
C1452 H1458 0.930 . S
C1453 N1455 1.279 . S
C1453 C1456 1.358 . S
C1453 H1459 0.930 . S
C1454 C1452 1.353 . S
C1454 C1457 1.348 . S
C1454 H1492 0.929 . S
N1455 Li1410 1.990 . S
N1455 C1452 1.314 . S
N1455 C1453 1.279 . S
C1456 C1453 1.358 . S
C1456 C1457 1.356 . S
C1456 H1493 0.930 . S
C1457 C1454 1.348 . S
C1457 C1456 1.356 . S
H1458 C1452 0.930 . S
H1459 C1453 0.930 . S
C1460 N1461 1.314 . S
C1460 C1462 1.353 . S
C1460 H1466 0.930 . S
N1461 Li1411 1.990 . S
N1461 C1460 1.314 . S
N1461 C1464 1.279 . S
C1462 C1460 1.353 . S
C1462 C1465 1.348 . S
C1462 H1494 0.929 . S
C1463 C1464 1.358 . S
C1463 C1465 1.356 . S
C1463 H1495 0.930 . S
C1464 N1461 1.279 . S
C1464 C1463 1.358 . S
C1464 H1467 0.930 1_545 S
C1465 C1462 1.348 . S
C1465 C1463 1.356 . S
H1466 C1460 0.930 . S
H1467 C1464 0.930 1_565 S
O1468 Li1408 1.956 1_565 S
O1468 Li1409 1.970 . S
O1468 Li1410 1.961 . S
O1468 C1412 1.325 . S
O1469 Li1408 1.970 . S
O1469 Li1409 1.956 1_545 S
O1469 Li1411 1.961 . S
O1469 C1418 1.325 . S
O1470 Li1408 1.961 . S
O1470 Li1410 1.956 1_545 S
O1470 Li1411 1.970 . S
O1470 C1440 1.325 . S
O1471 Li1409 1.961 . S
O1471 Li1410 1.970 . S
O1471 Li1411 1.956 1_565 S
O1471 C1446 1.325 . S
H1472 C1414 0.929 . S
H1473 C1415 0.930 . S
H1474 C1416 0.930 . S
H1475 C1417 0.930 . S
H1476 C1419 0.930 . S
H1477 C1421 0.929 . S
H1478 C1422 0.930 . S
H1479 C1423 0.930 . S
H1480 C1426 0.930 . S
H1481 C1429 0.929 . S
H1482 C1434 0.929 . S
H1483 C1435 0.930 . S
H1484 C1442 0.929 . S
H1485 C1443 0.930 . S
H1486 C1444 0.930 . S
H1487 C1445 0.930 . S
H1488 C1447 0.929 . S
H1489 C1448 0.930 . S
H1490 C1449 0.930 . S
H1491 C1450 0.930 . S
H1492 C1454 0.929 . S
H1493 C1456 0.930 . S
H1494 C1462 0.929 . S
H1495 C1463 0.930 . S
Li1496 N1513 1.990 . S
Li1496 O1556 1.956 . S
Li1496 O1557 1.970 . S
Li1496 O1558 1.961 . S
Li1497 N1521 1.990 . S
Li1497 O1556 1.970 . S
Li1497 O1557 1.956 . S
Li1497 O1559 1.961 . S
Li1498 N1543 1.990 . S
Li1498 O1556 1.961 . S
Li1498 O1558 1.956 . S
Li1498 O1559 1.970 . S
Li1499 N1549 1.990 . S
Li1499 O1557 1.961 . S
Li1499 O1558 1.970 . S
Li1499 O1559 1.956 . S
C1500 C1502 1.348 . S
C1500 C1503 1.356 . S
C1500 O1556 1.325 . S
N1501 C1504 1.314 . S
N1501 C1505 1.279 . S
C1502 C1500 1.348 . S
C1502 C1504 1.353 . S
C1502 H1560 0.929 . S
C1503 C1500 1.356 . S
C1503 C1505 1.358 . S
C1503 H1561 0.930 . S
C1504 N1501 1.314 . S
C1504 C1502 1.353 . S
C1504 H1562 0.930 . S
C1505 N1501 1.279 . S
C1505 C1503 1.358 . S
C1505 H1563 0.930 . S
C1506 C1509 1.348 . S
C1506 C1510 1.356 . S
C1506 O1557 1.325 . S
C1507 N1508 1.279 . S
C1507 C1510 1.358 . S
C1507 H1564 0.930 . S
N1508 C1507 1.279 . S
N1508 C1511 1.314 . S
C1509 C1506 1.348 . S
C1509 C1511 1.353 . S
C1509 H1565 0.929 . S
C1510 C1506 1.356 . S
C1510 C1507 1.358 . S
C1510 H1566 0.930 . S
C1511 N1508 1.314 . S
C1511 C1509 1.353 . S
C1511 H1567 0.930 . S
C1512 N1513 1.314 . S
C1512 C1517 1.353 . S
C1512 H1518 0.930 . S
N1513 Li1496 1.990 . S
N1513 C1512 1.314 . S
N1513 C1515 1.279 . S
C1514 C1515 1.358 . S
C1514 C1516 1.356 . S
C1514 H1568 0.930 . S
C1515 N1513 1.279 . S
C1515 C1514 1.358 . S
C1515 H1519 0.930 . S
C1516 C1514 1.356 . S
C1516 C1517 1.348 . S
C1517 C1512 1.353 . S
C1517 C1516 1.348 . S
C1517 H1569 0.929 . S
H1518 C1512 0.930 . S
H1519 C1515 0.930 . S
C1520 N1521 1.314 . S
C1520 C1522 1.353 . S
C1520 H1526 0.930 . S
N1521 Li1497 1.990 . S
N1521 C1520 1.314 . S
N1521 C1524 1.279 . S
C1522 C1520 1.353 . S
C1522 C1525 1.348 . S
C1522 H1570 0.929 . S
C1523 C1524 1.358 . S
C1523 C1525 1.356 . S
C1523 H1571 0.930 . S
C1524 N1521 1.279 . S
C1524 C1523 1.358 . S
C1524 H1527 0.930 . S
C1525 C1522 1.348 . S
C1525 C1523 1.356 . S
H1526 C1520 0.930 . S
H1527 C1524 0.930 . S
C1528 C1530 1.348 . S
C1528 C1531 1.356 . S
C1528 O1558 1.325 . S
N1529 C1532 1.314 . S
N1529 C1533 1.279 . S
C1530 C1528 1.348 . S
C1530 C1532 1.353 . S
C1530 H1572 0.929 . S
C1531 C1528 1.356 . S
C1531 C1533 1.358 . S
C1531 H1573 0.930 . S
C1532 N1529 1.314 . S
C1532 C1530 1.353 . S
C1532 H1574 0.930 . S
C1533 N1529 1.279 . S
C1533 C1531 1.358 . S
C1533 H1575 0.930 . S
C1534 C1535 1.348 . S
C1534 C1536 1.356 . S
C1534 O1559 1.325 . S
C1535 C1534 1.348 . S
C1535 C1537 1.353 . S
C1535 H1576 0.929 . S
C1536 C1534 1.356 . S
C1536 C1538 1.358 . S
C1536 H1577 0.930 . S
C1537 C1535 1.353 . S
C1537 N1539 1.314 . S
C1537 H1578 0.930 . S
C1538 C1536 1.358 . S
C1538 N1539 1.279 . S
C1538 H1579 0.930 . S
N1539 C1537 1.314 . S
N1539 C1538 1.279 . S
C1540 C1542 1.353 . S
C1540 N1543 1.314 . S
C1540 H1546 0.930 . S
C1541 N1543 1.279 . S
C1541 C1544 1.358 . S
C1541 H1547 0.930 . S
C1542 C1540 1.353 . S
C1542 C1545 1.348 . S
C1542 H1580 0.929 . S
N1543 Li1498 1.990 . S
N1543 C1540 1.314 . S
N1543 C1541 1.279 . S
C1544 C1541 1.358 . S
C1544 C1545 1.356 . S
C1544 H1581 0.930 . S
C1545 C1542 1.348 . S
C1545 C1544 1.356 . S
H1546 C1540 0.930 . S
H1547 C1541 0.930 . S
C1548 N1549 1.314 . S
C1548 C1550 1.353 . S
C1548 H1554 0.930 . S
N1549 Li1499 1.990 . S
N1549 C1548 1.314 . S
N1549 C1552 1.279 . S
C1550 C1548 1.353 . S
C1550 C1553 1.348 . S
C1550 H1582 0.929 . S
C1551 C1552 1.358 . S
C1551 C1553 1.356 . S
C1551 H1583 0.930 . S
C1552 N1549 1.279 . S
C1552 C1551 1.358 . S
C1552 H1555 0.930 . S
C1553 C1550 1.348 . S
C1553 C1551 1.356 . S
H1554 C1548 0.930 . S
H1555 C1552 0.930 . S
O1556 Li1496 1.956 . S
O1556 Li1497 1.970 . S
O1556 Li1498 1.961 . S
O1556 C1500 1.325 . S
O1557 Li1496 1.970 . S
O1557 Li1497 1.956 . S
O1557 Li1499 1.961 . S
O1557 C1506 1.325 . S
O1558 Li1496 1.961 . S
O1558 Li1498 1.956 . S
O1558 Li1499 1.970 . S
O1558 C1528 1.325 . S
O1559 Li1497 1.961 . S
O1559 Li1498 1.970 . S
O1559 Li1499 1.956 . S
O1559 C1534 1.325 . S
H1560 C1502 0.929 . S
H1561 C1503 0.930 . S
H1562 C1504 0.930 . S
H1563 C1505 0.930 . S
H1564 C1507 0.930 . S
H1565 C1509 0.929 . S
H1566 C1510 0.930 . S
H1567 C1511 0.930 . S
H1568 C1514 0.930 . S
H1569 C1517 0.929 . S
H1570 C1522 0.929 . S
H1571 C1523 0.930 . S
H1572 C1530 0.929 . S
H1573 C1531 0.930 . S
H1574 C1532 0.930 . S
H1575 C1533 0.930 . S
H1576 C1535 0.929 . S
H1577 C1536 0.930 . S
H1578 C1537 0.930 . S
H1579 C1538 0.930 . S
H1580 C1542 0.929 . S
H1581 C1544 0.930 . S
H1582 C1550 0.929 . S
H1583 C1551 0.930 . S
Li1584 N1601 1.990 . S
Li1584 O1644 1.956 . S
Li1584 O1645 1.970 . S
Li1584 O1646 1.961 . S
Li1585 N1609 1.990 . S
Li1585 O1644 1.970 . S
Li1585 O1645 1.956 . S
Li1585 O1647 1.961 . S
Li1586 N1631 1.990 . S
Li1586 O1644 1.961 . S
Li1586 O1646 1.956 . S
Li1586 O1647 1.970 . S
Li1587 N1637 1.990 . S
Li1587 O1645 1.961 . S
Li1587 O1646 1.970 . S
Li1587 O1647 1.956 . S
C1588 C1590 1.348 . S
C1588 C1591 1.356 . S
C1588 O1644 1.325 . S
N1589 C1592 1.314 . S
N1589 C1593 1.279 . S
C1590 C1588 1.348 . S
C1590 C1592 1.353 . S
C1590 H1648 0.929 . S
C1591 C1588 1.356 . S
C1591 C1593 1.358 . S
C1591 H1649 0.930 . S
C1592 N1589 1.314 . S
C1592 C1590 1.353 . S
C1592 H1650 0.930 . S
C1593 N1589 1.279 . S
C1593 C1591 1.358 . S
C1593 H1651 0.930 . S
C1594 C1597 1.348 . S
C1594 C1598 1.356 . S
C1594 O1645 1.325 . S
C1595 N1596 1.279 . S
C1595 C1598 1.358 . S
C1595 H1652 0.930 . S
N1596 C1595 1.279 . S
N1596 C1599 1.314 . S
C1597 C1594 1.348 . S
C1597 C1599 1.353 . S
C1597 H1653 0.929 . S
C1598 C1594 1.356 . S
C1598 C1595 1.358 . S
C1598 H1654 0.930 . S
C1599 N1596 1.314 . S
C1599 C1597 1.353 . S
C1599 H1655 0.930 . S
C1600 N1601 1.314 . S
C1600 C1605 1.353 . S
C1600 H1606 0.930 . S
N1601 Li1584 1.990 . S
N1601 C1600 1.314 . S
N1601 C1603 1.279 . S
C1602 C1603 1.358 . S
C1602 C1604 1.356 . S
C1602 H1656 0.930 . S
C1603 N1601 1.279 . S
C1603 C1602 1.358 . S
C1603 H1607 0.930 . S
C1604 C1602 1.356 . S
C1604 C1605 1.348 . S
C1605 C1600 1.353 . S
C1605 C1604 1.348 . S
C1605 H1657 0.929 . S
H1606 C1600 0.930 . S
H1607 C1603 0.930 . S
C1608 N1609 1.314 . S
C1608 C1610 1.353 . S
C1608 H1614 0.930 . S
N1609 Li1585 1.990 . S
N1609 C1608 1.314 . S
N1609 C1612 1.279 . S
C1610 C1608 1.353 . S
C1610 C1613 1.348 . S
C1610 H1658 0.929 . S
C1611 C1612 1.358 . S
C1611 C1613 1.356 . S
C1611 H1659 0.930 . S
C1612 N1609 1.279 . S
C1612 C1611 1.358 . S
C1612 H1615 0.930 . S
C1613 C1610 1.348 . S
C1613 C1611 1.356 . S
H1614 C1608 0.930 . S
H1615 C1612 0.930 . S
C1616 C1618 1.348 . S
C1616 C1619 1.356 . S
C1616 O1646 1.325 . S
N1617 C1620 1.314 . S
N1617 C1621 1.279 . S
C1618 C1616 1.348 . S
C1618 C1620 1.353 . S
C1618 H1660 0.929 . S
C1619 C1616 1.356 . S
C1619 C1621 1.358 . S
C1619 H1661 0.930 . S
C1620 N1617 1.314 . S
C1620 C1618 1.353 . S
C1620 H1662 0.930 . S
C1621 N1617 1.279 . S
C1621 C1619 1.358 . S
C1621 H1663 0.930 . S
C1622 C1623 1.348 . S
C1622 C1624 1.356 . S
C1622 O1647 1.325 . S
C1623 C1622 1.348 . S
C1623 C1625 1.353 . S
C1623 H1664 0.929 . S
C1624 C1622 1.356 . S
C1624 C1626 1.358 . S
C1624 H1665 0.930 . S
C1625 C1623 1.353 . S
C1625 N1627 1.314 . S
C1625 H1666 0.930 . S
C1626 C1624 1.358 . S
C1626 N1627 1.279 . S
C1626 H1667 0.930 . S
N1627 C1625 1.314 . S
N1627 C1626 1.279 . S
C1628 C1630 1.353 . S
C1628 N1631 1.314 . S
C1628 H1634 0.930 . S
C1629 N1631 1.279 . S
C1629 C1632 1.358 . S
C1629 H1635 0.930 . S
C1630 C1628 1.353 . S
C1630 C1633 1.348 . S
C1630 H1668 0.929 . S
N1631 Li1586 1.990 . S
N1631 C1628 1.314 . S
N1631 C1629 1.279 . S
C1632 C1629 1.358 . S
C1632 C1633 1.356 . S
C1632 H1669 0.930 . S
C1633 C1630 1.348 . S
C1633 C1632 1.356 . S
H1634 C1628 0.930 . S
H1635 C1629 0.930 . S
C1636 N1637 1.314 . S
C1636 C1638 1.353 . S
C1636 H1642 0.930 . S
N1637 Li1587 1.990 . S
N1637 C1636 1.314 . S
N1637 C1640 1.279 . S
C1638 C1636 1.353 . S
C1638 C1641 1.348 . S
C1638 H1670 0.929 . S
C1639 C1640 1.358 . S
C1639 C1641 1.356 . S
C1639 H1671 0.930 . S
C1640 N1637 1.279 . S
C1640 C1639 1.358 . S
C1640 H1643 0.930 . S
C1641 C1638 1.348 . S
C1641 C1639 1.356 . S
H1642 C1636 0.930 . S
H1643 C1640 0.930 . S
O1644 Li1584 1.956 . S
O1644 Li1585 1.970 . S
O1644 Li1586 1.961 . S
O1644 C1588 1.325 . S
O1645 Li1584 1.970 . S
O1645 Li1585 1.956 . S
O1645 Li1587 1.961 . S
O1645 C1594 1.325 . S
O1646 Li1584 1.961 . S
O1646 Li1586 1.956 . S
O1646 Li1587 1.970 . S
O1646 C1616 1.325 . S
O1647 Li1585 1.961 . S
O1647 Li1586 1.970 . S
O1647 Li1587 1.956 . S
O1647 C1622 1.325 . S
H1648 C1590 0.929 . S
H1649 C1591 0.930 . S
H1650 C1592 0.930 . S
H1651 C1593 0.930 . S
H1652 C1595 0.930 . S
H1653 C1597 0.929 . S
H1654 C1598 0.930 . S
H1655 C1599 0.930 . S
H1656 C1602 0.930 . S
H1657 C1605 0.929 . S
H1658 C1610 0.929 . S
H1659 C1611 0.930 . S
H1660 C1618 0.929 . S
H1661 C1619 0.930 . S
H1662 C1620 0.930 . S
H1663 C1621 0.930 . S
H1664 C1623 0.929 . S
H1665 C1624 0.930 . S
H1666 C1625 0.930 . S
H1667 C1626 0.930 . S
H1668 C1630 0.929 . S
H1669 C1632 0.930 . S
H1670 C1638 0.929 . S
H1671 C1639 0.930 . S
Li1672 N1689 1.990 . S
Li1672 O1732 1.956 1_545 S
Li1672 O1733 1.970 . S
Li1672 O1734 1.961 . S
Li1673 N1697 1.990 . S
Li1673 O1732 1.970 . S
Li1673 O1733 1.956 1_565 S
Li1673 O1735 1.961 . S
Li1674 N1719 1.990 . S
Li1674 O1732 1.961 . S
Li1674 O1734 1.956 1_565 S
Li1674 O1735 1.970 . S
Li1675 N1725 1.990 . S
Li1675 O1733 1.961 . S
Li1675 O1734 1.970 . S
Li1675 O1735 1.956 1_545 S
C1676 C1678 1.348 . S
C1676 C1679 1.356 . S
C1676 O1732 1.325 . S
N1677 C1680 1.314 . S
N1677 C1681 1.279 . S
C1678 C1676 1.348 . S
C1678 C1680 1.353 . S
C1678 H1736 0.929 . S
C1679 C1676 1.356 . S
C1679 C1681 1.358 . S
C1679 H1737 0.930 . S
C1680 N1677 1.314 . S
C1680 C1678 1.353 . S
C1680 H1738 0.930 . S
C1681 N1677 1.279 . S
C1681 C1679 1.358 . S
C1681 H1739 0.930 . S
C1682 C1685 1.348 . S
C1682 C1686 1.356 . S
C1682 O1733 1.325 . S
C1683 N1684 1.279 . S
C1683 C1686 1.358 . S
C1683 H1740 0.930 . S
N1684 C1683 1.279 . S
N1684 C1687 1.314 . S
C1685 C1682 1.348 . S
C1685 C1687 1.353 . S
C1685 H1741 0.929 . S
C1686 C1682 1.356 . S
C1686 C1683 1.358 . S
C1686 H1742 0.930 . S
C1687 N1684 1.314 . S
C1687 C1685 1.353 . S
C1687 H1743 0.930 . S
C1688 N1689 1.314 . S
C1688 C1693 1.353 . S
C1688 H1694 0.930 . S
N1689 Li1672 1.990 . S
N1689 C1688 1.314 . S
N1689 C1691 1.279 . S
C1690 C1691 1.358 . S
C1690 C1692 1.356 . S
C1690 H1744 0.930 . S
C1691 N1689 1.279 . S
C1691 C1690 1.358 . S
C1691 H1695 0.930 1_545 S
C1692 C1690 1.356 . S
C1692 C1693 1.348 . S
C1693 C1688 1.353 . S
C1693 C1692 1.348 . S
C1693 H1745 0.929 . S
H1694 C1688 0.930 . S
H1695 C1691 0.930 1_565 S
C1696 N1697 1.314 . S
C1696 C1698 1.353 . S
C1696 H1702 0.930 . S
N1697 Li1673 1.990 . S
N1697 C1696 1.314 . S
N1697 C1700 1.279 . S
C1698 C1696 1.353 . S
C1698 C1701 1.348 . S
C1698 H1746 0.929 . S
C1699 C1700 1.358 . S
C1699 C1701 1.356 . S
C1699 H1747 0.930 . S
C1700 N1697 1.279 . S
C1700 C1699 1.358 . S
C1700 H1703 0.930 . S
C1701 C1698 1.348 . S
C1701 C1699 1.356 . S
H1702 C1696 0.930 . S
H1703 C1700 0.930 . S
C1704 C1706 1.348 . S
C1704 C1707 1.356 . S
C1704 O1734 1.325 . S
N1705 C1708 1.314 . S
N1705 C1709 1.279 . S
C1706 C1704 1.348 . S
C1706 C1708 1.353 . S
C1706 H1748 0.929 . S
C1707 C1704 1.356 . S
C1707 C1709 1.358 . S
C1707 H1749 0.930 . S
C1708 N1705 1.314 . S
C1708 C1706 1.353 . S
C1708 H1750 0.930 . S
C1709 N1705 1.279 . S
C1709 C1707 1.358 . S
C1709 H1751 0.930 . S
C1710 C1711 1.348 . S
C1710 C1712 1.356 . S
C1710 O1735 1.325 . S
C1711 C1710 1.348 . S
C1711 C1713 1.353 . S
C1711 H1752 0.929 . S
C1712 C1710 1.356 . S
C1712 C1714 1.358 . S
C1712 H1753 0.930 . S
C1713 C1711 1.353 . S
C1713 N1715 1.314 . S
C1713 H1754 0.930 . S
C1714 C1712 1.358 . S
C1714 N1715 1.279 . S
C1714 H1755 0.930 . S
N1715 C1713 1.314 . S
N1715 C1714 1.279 . S
C1716 C1718 1.353 . S
C1716 N1719 1.314 . S
C1716 H1722 0.930 . S
C1717 N1719 1.279 . S
C1717 C1720 1.358 . S
C1717 H1723 0.930 1_565 S
C1718 C1716 1.353 . S
C1718 C1721 1.348 . S
C1718 H1756 0.929 . S
N1719 Li1674 1.990 . S
N1719 C1716 1.314 . S
N1719 C1717 1.279 . S
C1720 C1717 1.358 . S
C1720 C1721 1.356 . S
C1720 H1757 0.930 . S
C1721 C1718 1.348 . S
C1721 C1720 1.356 . S
H1722 C1716 0.930 . S
H1723 C1717 0.930 1_545 S
C1724 N1725 1.314 . S
C1724 C1726 1.353 . S
C1724 H1730 0.930 . S
N1725 Li1675 1.990 . S
N1725 C1724 1.314 . S
N1725 C1728 1.279 . S
C1726 C1724 1.353 . S
C1726 C1729 1.348 . S
C1726 H1758 0.929 . S
C1727 C1728 1.358 . S
C1727 C1729 1.356 . S
C1727 H1759 0.930 . S
C1728 N1725 1.279 . S
C1728 C1727 1.358 . S
C1728 H1731 0.930 . S
C1729 C1726 1.348 . S
C1729 C1727 1.356 . S
H1730 C1724 0.930 . S
H1731 C1728 0.930 . S
O1732 Li1672 1.956 1_565 S
O1732 Li1673 1.970 . S
O1732 Li1674 1.961 . S
O1732 C1676 1.325 . S
O1733 Li1672 1.970 . S
O1733 Li1673 1.956 1_545 S
O1733 Li1675 1.961 . S
O1733 C1682 1.325 . S
O1734 Li1672 1.961 . S
O1734 Li1674 1.956 1_545 S
O1734 Li1675 1.970 . S
O1734 C1704 1.325 . S
O1735 Li1673 1.961 . S
O1735 Li1674 1.970 . S
O1735 Li1675 1.956 1_565 S
O1735 C1710 1.325 . S
H1736 C1678 0.929 . S
H1737 C1679 0.930 . S
H1738 C1680 0.930 . S
H1739 C1681 0.930 . S
H1740 C1683 0.930 . S
H1741 C1685 0.929 . S
H1742 C1686 0.930 . S
H1743 C1687 0.930 . S
H1744 C1690 0.930 . S
H1745 C1693 0.929 . S
H1746 C1698 0.929 . S
H1747 C1699 0.930 . S
H1748 C1706 0.929 . S
H1749 C1707 0.930 . S
H1750 C1708 0.930 . S
H1751 C1709 0.930 . S
H1752 C1711 0.929 . S
H1753 C1712 0.930 . S
H1754 C1713 0.930 . S
H1755 C1714 0.930 . S
H1756 C1718 0.929 . S
H1757 C1720 0.930 . S
H1758 C1726 0.929 . S
H1759 C1727 0.930 . S
Li1760 N1777 1.990 . S
Li1760 O1820 1.956 1_556 S
Li1760 O1821 1.970 . S
Li1760 O1822 1.961 . S
Li1761 N1785 1.990 . S
Li1761 O1820 1.970 . S
Li1761 O1821 1.956 1_554 S
Li1761 O1823 1.961 . S
Li1762 N1807 1.990 . S
Li1762 O1820 1.961 . S
Li1762 O1822 1.956 1_554 S
Li1762 O1823 1.970 . S
Li1763 N1813 1.990 . S
Li1763 O1821 1.961 . S
Li1763 O1822 1.970 . S
Li1763 O1823 1.956 1_556 S
C1764 C1766 1.348 . S
C1764 C1767 1.356 . S
C1764 O1820 1.325 . S
N1765 C1768 1.314 . S
N1765 C1769 1.279 . S
C1766 C1764 1.348 . S
C1766 C1768 1.353 . S
C1766 H1824 0.929 . S
C1767 C1764 1.356 . S
C1767 C1769 1.358 . S
C1767 H1825 0.930 . S
C1768 N1765 1.314 . S
C1768 C1766 1.353 . S
C1768 H1826 0.930 . S
C1769 N1765 1.279 . S
C1769 C1767 1.358 . S
C1769 H1827 0.930 . S
C1770 C1773 1.348 . S
C1770 C1774 1.356 . S
C1770 O1821 1.325 . S
C1771 N1772 1.279 . S
C1771 C1774 1.358 . S
C1771 H1828 0.930 . S
N1772 C1771 1.279 . S
N1772 C1775 1.314 . S
C1773 C1770 1.348 . S
C1773 C1775 1.353 . S
C1773 H1829 0.929 . S
C1774 C1770 1.356 . S
C1774 C1771 1.358 . S
C1774 H1830 0.930 . S
C1775 N1772 1.314 . S
C1775 C1773 1.353 . S
C1775 H1831 0.930 . S
C1776 N1777 1.314 . S
C1776 C1781 1.353 . S
C1776 H1782 0.930 . S
N1777 Li1760 1.990 . S
N1777 C1776 1.314 . S
N1777 C1779 1.279 . S
C1778 C1779 1.358 . S
C1778 C1780 1.356 . S
C1778 H1832 0.930 . S
C1779 N1777 1.279 . S
C1779 C1778 1.358 . S
C1779 H1783 0.930 . S
C1780 C1778 1.356 . S
C1780 C1781 1.348 . S
C1781 C1776 1.353 . S
C1781 C1780 1.348 . S
C1781 H1833 0.929 . S
H1782 C1776 0.930 . S
H1783 C1779 0.930 . S
C1784 N1785 1.314 . S
C1784 C1786 1.353 . S
C1784 H1790 0.930 . S
N1785 Li1761 1.990 . S
N1785 C1784 1.314 . S
N1785 C1788 1.279 . S
C1786 C1784 1.353 . S
C1786 C1789 1.348 . S
C1786 H1834 0.929 . S
C1787 C1788 1.358 . S
C1787 C1789 1.356 . S
C1787 H1835 0.930 . S
C1788 N1785 1.279 . S
C1788 C1787 1.358 . S
C1788 H1791 0.930 1_554 S
C1789 C1786 1.348 . S
C1789 C1787 1.356 . S
H1790 C1784 0.930 . S
H1791 C1788 0.930 1_556 S
C1792 C1794 1.348 . S
C1792 C1795 1.356 . S
C1792 O1822 1.325 . S
N1793 C1796 1.314 . S
N1793 C1797 1.279 . S
C1794 C1792 1.348 . S
C1794 C1796 1.353 . S
C1794 H1836 0.929 . S
C1795 C1792 1.356 . S
C1795 C1797 1.358 . S
C1795 H1837 0.930 . S
C1796 N1793 1.314 . S
C1796 C1794 1.353 . S
C1796 H1838 0.930 . S
C1797 N1793 1.279 . S
C1797 C1795 1.358 . S
C1797 H1839 0.930 . S
C1798 C1799 1.348 . S
C1798 C1800 1.356 . S
C1798 O1823 1.325 . S
C1799 C1798 1.348 . S
C1799 C1801 1.353 . S
C1799 H1840 0.929 . S
C1800 C1798 1.356 . S
C1800 C1802 1.358 . S
C1800 H1841 0.930 . S
C1801 C1799 1.353 . S
C1801 N1803 1.314 . S
C1801 H1842 0.930 . S
C1802 C1800 1.358 . S
C1802 N1803 1.279 . S
C1802 H1843 0.930 . S
N1803 C1801 1.314 . S
N1803 C1802 1.279 . S
C1804 C1806 1.353 . S
C1804 N1807 1.314 . S
C1804 H1810 0.930 . S
C1805 N1807 1.279 . S
C1805 C1808 1.358 . S
C1805 H1811 0.930 . S
C1806 C1804 1.353 . S
C1806 C1809 1.348 . S
C1806 H1844 0.929 . S
N1807 Li1762 1.990 . S
N1807 C1804 1.314 . S
N1807 C1805 1.279 . S
C1808 C1805 1.358 . S
C1808 C1809 1.356 . S
C1808 H1845 0.930 . S
C1809 C1806 1.348 . S
C1809 C1808 1.356 . S
H1810 C1804 0.930 . S
H1811 C1805 0.930 . S
C1812 N1813 1.314 . S
C1812 C1814 1.353 . S
C1812 H1818 0.930 . S
N1813 Li1763 1.990 . S
N1813 C1812 1.314 . S
N1813 C1816 1.279 . S
C1814 C1812 1.353 . S
C1814 C1817 1.348 . S
C1814 H1846 0.929 . S
C1815 C1816 1.358 . S
C1815 C1817 1.356 . S
C1815 H1847 0.930 . S
C1816 N1813 1.279 . S
C1816 C1815 1.358 . S
C1816 H1819 0.930 1_556 S
C1817 C1814 1.348 . S
C1817 C1815 1.356 . S
H1818 C1812 0.930 . S
H1819 C1816 0.930 1_554 S
O1820 Li1760 1.956 1_554 S
O1820 Li1761 1.970 . S
O1820 Li1762 1.961 . S
O1820 C1764 1.325 . S
O1821 Li1760 1.970 . S
O1821 Li1761 1.956 1_556 S
O1821 Li1763 1.961 . S
O1821 C1770 1.325 . S
O1822 Li1760 1.961 . S
O1822 Li1762 1.956 1_556 S
O1822 Li1763 1.970 . S
O1822 C1792 1.325 . S
O1823 Li1761 1.961 . S
O1823 Li1762 1.970 . S
O1823 Li1763 1.956 1_554 S
O1823 C1798 1.325 . S
H1824 C1766 0.929 . S
H1825 C1767 0.930 . S
H1826 C1768 0.930 . S
H1827 C1769 0.930 . S
H1828 C1771 0.930 . S
H1829 C1773 0.929 . S
H1830 C1774 0.930 . S
H1831 C1775 0.930 . S
H1832 C1778 0.930 . S
H1833 C1781 0.929 . S
H1834 C1786 0.929 . S
H1835 C1787 0.930 . S
H1836 C1794 0.929 . S
H1837 C1795 0.930 . S
H1838 C1796 0.930 . S
H1839 C1797 0.930 . S
H1840 C1799 0.929 . S
H1841 C1800 0.930 . S
H1842 C1801 0.930 . S
H1843 C1802 0.930 . S
H1844 C1806 0.929 . S
H1845 C1808 0.930 . S
H1846 C1814 0.929 . S
H1847 C1815 0.930 . S
Li1848 N1865 1.990 . S
Li1848 O1908 1.956 . S
Li1848 O1909 1.970 . S
Li1848 O1910 1.961 . S
Li1849 N1873 1.990 . S
Li1849 O1908 1.970 . S
Li1849 O1909 1.956 . S
Li1849 O1911 1.961 . S
Li1850 N1895 1.990 . S
Li1850 O1908 1.961 . S
Li1850 O1910 1.956 . S
Li1850 O1911 1.970 . S
Li1851 N1901 1.990 . S
Li1851 O1909 1.961 . S
Li1851 O1910 1.970 . S
Li1851 O1911 1.956 . S
C1852 C1854 1.348 . S
C1852 C1855 1.356 . S
C1852 O1908 1.325 . S
N1853 C1856 1.314 . S
N1853 C1857 1.279 . S
C1854 C1852 1.348 . S
C1854 C1856 1.353 . S
C1854 H1912 0.929 . S
C1855 C1852 1.356 . S
C1855 C1857 1.358 . S
C1855 H1913 0.930 . S
C1856 N1853 1.314 . S
C1856 C1854 1.353 . S
C1856 H1914 0.930 . S
C1857 N1853 1.279 . S
C1857 C1855 1.358 . S
C1857 H1915 0.930 . S
C1858 C1861 1.348 . S
C1858 C1862 1.356 . S
C1858 O1909 1.325 . S
C1859 N1860 1.279 . S
C1859 C1862 1.358 . S
C1859 H1916 0.930 . S
N1860 C1859 1.279 . S
N1860 C1863 1.314 . S
C1861 C1858 1.348 . S
C1861 C1863 1.353 . S
C1861 H1917 0.929 . S
C1862 C1858 1.356 . S
C1862 C1859 1.358 . S
C1862 H1918 0.930 . S
C1863 N1860 1.314 . S
C1863 C1861 1.353 . S
C1863 H1919 0.930 . S
C1864 N1865 1.314 . S
C1864 C1869 1.353 . S
C1864 H1870 0.930 . S
N1865 Li1848 1.990 . S
N1865 C1864 1.314 . S
N1865 C1867 1.279 . S
C1866 C1867 1.358 . S
C1866 C1868 1.356 . S
C1866 H1920 0.930 . S
C1867 N1865 1.279 . S
C1867 C1866 1.358 . S
C1867 H1871 0.930 . S
C1868 C1866 1.356 . S
C1868 C1869 1.348 . S
C1869 C1864 1.353 . S
C1869 C1868 1.348 . S
C1869 H1921 0.929 . S
H1870 C1864 0.930 . S
H1871 C1867 0.930 . S
C1872 N1873 1.314 . S
C1872 C1874 1.353 . S
C1872 H1878 0.930 . S
N1873 Li1849 1.990 . S
N1873 C1872 1.314 . S
N1873 C1876 1.279 . S
C1874 C1872 1.353 . S
C1874 C1877 1.348 . S
C1874 H1922 0.929 . S
C1875 C1876 1.358 . S
C1875 C1877 1.356 . S
C1875 H1923 0.930 . S
C1876 N1873 1.279 . S
C1876 C1875 1.358 . S
C1876 H1879 0.930 . S
C1877 C1874 1.348 . S
C1877 C1875 1.356 . S
H1878 C1872 0.930 . S
H1879 C1876 0.930 . S
C1880 C1882 1.348 . S
C1880 C1883 1.356 . S
C1880 O1910 1.325 . S
N1881 C1884 1.314 . S
N1881 C1885 1.279 . S
C1882 C1880 1.348 . S
C1882 C1884 1.353 . S
C1882 H1924 0.929 . S
C1883 C1880 1.356 . S
C1883 C1885 1.358 . S
C1883 H1925 0.930 . S
C1884 N1881 1.314 . S
C1884 C1882 1.353 . S
C1884 H1926 0.930 . S
C1885 N1881 1.279 . S
C1885 C1883 1.358 . S
C1885 H1927 0.930 . S
C1886 C1887 1.348 . S
C1886 C1888 1.356 . S
C1886 O1911 1.325 . S
C1887 C1886 1.348 . S
C1887 C1889 1.353 . S
C1887 H1928 0.929 . S
C1888 C1886 1.356 . S
C1888 C1890 1.358 . S
C1888 H1929 0.930 . S
C1889 C1887 1.353 . S
C1889 N1891 1.314 . S
C1889 H1930 0.930 . S
C1890 C1888 1.358 . S
C1890 N1891 1.279 . S
C1890 H1931 0.930 . S
N1891 C1889 1.314 . S
N1891 C1890 1.279 . S
C1892 C1894 1.353 . S
C1892 N1895 1.314 . S
C1892 H1898 0.930 . S
C1893 N1895 1.279 . S
C1893 C1896 1.358 . S
C1893 H1899 0.930 . S
C1894 C1892 1.353 . S
C1894 C1897 1.348 . S
C1894 H1932 0.929 . S
N1895 Li1850 1.990 . S
N1895 C1892 1.314 . S
N1895 C1893 1.279 . S
C1896 C1893 1.358 . S
C1896 C1897 1.356 . S
C1896 H1933 0.930 . S
C1897 C1894 1.348 . S
C1897 C1896 1.356 . S
H1898 C1892 0.930 . S
H1899 C1893 0.930 . S
C1900 N1901 1.314 . S
C1900 C1902 1.353 . S
C1900 H1906 0.930 . S
N1901 Li1851 1.990 . S
N1901 C1900 1.314 . S
N1901 C1904 1.279 . S
C1902 C1900 1.353 . S
C1902 C1905 1.348 . S
C1902 H1934 0.929 . S
C1903 C1904 1.358 . S
C1903 C1905 1.356 . S
C1903 H1935 0.930 . S
C1904 N1901 1.279 . S
C1904 C1903 1.358 . S
C1904 H1907 0.930 . S
C1905 C1902 1.348 . S
C1905 C1903 1.356 . S
H1906 C1900 0.930 . S
H1907 C1904 0.930 . S
O1908 Li1848 1.956 . S
O1908 Li1849 1.970 . S
O1908 Li1850 1.961 . S
O1908 C1852 1.325 . S
O1909 Li1848 1.970 . S
O1909 Li1849 1.956 . S
O1909 Li1851 1.961 . S
O1909 C1858 1.325 . S
O1910 Li1848 1.961 . S
O1910 Li1850 1.956 . S
O1910 Li1851 1.970 . S
O1910 C1880 1.325 . S
O1911 Li1849 1.961 . S
O1911 Li1850 1.970 . S
O1911 Li1851 1.956 . S
O1911 C1886 1.325 . S
H1912 C1854 0.929 . S
H1913 C1855 0.930 . S
H1914 C1856 0.930 . S
H1915 C1857 0.930 . S
H1916 C1859 0.930 . S
H1917 C1861 0.929 . S
H1918 C1862 0.930 . S
H1919 C1863 0.930 . S
H1920 C1866 0.930 . S
H1921 C1869 0.929 . S
H1922 C1874 0.929 . S
H1923 C1875 0.930 . S
H1924 C1882 0.929 . S
H1925 C1883 0.930 . S
H1926 C1884 0.930 . S
H1927 C1885 0.930 . S
H1928 C1887 0.929 . S
H1929 C1888 0.930 . S
H1930 C1889 0.930 . S
H1931 C1890 0.930 . S
H1932 C1894 0.929 . S
H1933 C1896 0.930 . S
H1934 C1902 0.929 . S
H1935 C1903 0.930 . S
Li1936 N1953 1.990 . S
Li1936 O1996 1.956 . S
Li1936 O1997 1.970 . S
Li1936 O1998 1.961 . S
Li1937 N1961 1.990 . S
Li1937 O1996 1.970 . S
Li1937 O1997 1.956 . S
Li1937 O1999 1.961 . S
Li1938 N1983 1.990 . S
Li1938 O1996 1.961 . S
Li1938 O1998 1.956 . S
Li1938 O1999 1.970 . S
Li1939 N1989 1.990 . S
Li1939 O1997 1.961 . S
Li1939 O1998 1.970 . S
Li1939 O1999 1.956 . S
C1940 C1942 1.348 . S
C1940 C1943 1.356 . S
C1940 O1996 1.325 . S
N1941 C1944 1.314 . S
N1941 C1945 1.279 . S
C1942 C1940 1.348 . S
C1942 C1944 1.353 . S
C1942 H2000 0.929 . S
C1943 C1940 1.356 . S
C1943 C1945 1.358 . S
C1943 H2001 0.930 . S
C1944 N1941 1.314 . S
C1944 C1942 1.353 . S
C1944 H2002 0.930 . S
C1945 N1941 1.279 . S
C1945 C1943 1.358 . S
C1945 H2003 0.930 . S
C1946 C1949 1.348 . S
C1946 C1950 1.356 . S
C1946 O1997 1.325 . S
C1947 N1948 1.279 . S
C1947 C1950 1.358 . S
C1947 H2004 0.930 . S
N1948 C1947 1.279 . S
N1948 C1951 1.314 . S
C1949 C1946 1.348 . S
C1949 C1951 1.353 . S
C1949 H2005 0.929 . S
C1950 C1946 1.356 . S
C1950 C1947 1.358 . S
C1950 H2006 0.930 . S
C1951 N1948 1.314 . S
C1951 C1949 1.353 . S
C1951 H2007 0.930 . S
C1952 N1953 1.314 . S
C1952 C1957 1.353 . S
C1952 H1958 0.930 . S
N1953 Li1936 1.990 . S
N1953 C1952 1.314 . S
N1953 C1955 1.279 . S
C1954 C1955 1.358 . S
C1954 C1956 1.356 . S
C1954 H2008 0.930 . S
C1955 N1953 1.279 . S
C1955 C1954 1.358 . S
C1955 H1959 0.930 . S
C1956 C1954 1.356 . S
C1956 C1957 1.348 . S
C1957 C1952 1.353 . S
C1957 C1956 1.348 . S
C1957 H2009 0.929 . S
H1958 C1952 0.930 . S
H1959 C1955 0.930 . S
C1960 N1961 1.314 . S
C1960 C1962 1.353 . S
C1960 H1966 0.930 . S
N1961 Li1937 1.990 . S
N1961 C1960 1.314 . S
N1961 C1964 1.279 . S
C1962 C1960 1.353 . S
C1962 C1965 1.348 . S
C1962 H2010 0.929 . S
C1963 C1964 1.358 . S
C1963 C1965 1.356 . S
C1963 H2011 0.930 . S
C1964 N1961 1.279 . S
C1964 C1963 1.358 . S
C1964 H1967 0.930 . S
C1965 C1962 1.348 . S
C1965 C1963 1.356 . S
H1966 C1960 0.930 . S
H1967 C1964 0.930 . S
C1968 C1970 1.348 . S
C1968 C1971 1.356 . S
C1968 O1998 1.325 . S
N1969 C1972 1.314 . S
N1969 C1973 1.279 . S
C1970 C1968 1.348 . S
C1970 C1972 1.353 . S
C1970 H2012 0.929 . S
C1971 C1968 1.356 . S
C1971 C1973 1.358 . S
C1971 H2013 0.930 . S
C1972 N1969 1.314 . S
C1972 C1970 1.353 . S
C1972 H2014 0.930 . S
C1973 N1969 1.279 . S
C1973 C1971 1.358 . S
C1973 H2015 0.930 . S
C1974 C1975 1.348 . S
C1974 C1976 1.356 . S
C1974 O1999 1.325 . S
C1975 C1974 1.348 . S
C1975 C1977 1.353 . S
C1975 H2016 0.929 . S
C1976 C1974 1.356 . S
C1976 C1978 1.358 . S
C1976 H2017 0.930 . S
C1977 C1975 1.353 . S
C1977 N1979 1.314 . S
C1977 H2018 0.930 . S
C1978 C1976 1.358 . S
C1978 N1979 1.279 . S
C1978 H2019 0.930 . S
N1979 C1977 1.314 . S
N1979 C1978 1.279 . S
C1980 C1982 1.353 . S
C1980 N1983 1.314 . S
C1980 H1986 0.930 . S
C1981 N1983 1.279 . S
C1981 C1984 1.358 . S
C1981 H1987 0.930 . S
C1982 C1980 1.353 . S
C1982 C1985 1.348 . S
C1982 H2020 0.929 . S
N1983 Li1938 1.990 . S
N1983 C1980 1.314 . S
N1983 C1981 1.279 . S
C1984 C1981 1.358 . S
C1984 C1985 1.356 . S
C1984 H2021 0.930 . S
C1985 C1982 1.348 . S
C1985 C1984 1.356 . S
H1986 C1980 0.930 . S
H1987 C1981 0.930 . S
C1988 N1989 1.314 . S
C1988 C1990 1.353 . S
C1988 H1994 0.930 . S
N1989 Li1939 1.990 . S
N1989 C1988 1.314 . S
N1989 C1992 1.279 . S
C1990 C1988 1.353 . S
C1990 C1993 1.348 . S
C1990 H2022 0.929 . S
C1991 C1992 1.358 . S
C1991 C1993 1.356 . S
C1991 H2023 0.930 . S
C1992 N1989 1.279 . S
C1992 C1991 1.358 . S
C1992 H1995 0.930 . S
C1993 C1990 1.348 . S
C1993 C1991 1.356 . S
H1994 C1988 0.930 . S
H1995 C1992 0.930 . S
O1996 Li1936 1.956 . S
O1996 Li1937 1.970 . S
O1996 Li1938 1.961 . S
O1996 C1940 1.325 . S
O1997 Li1936 1.970 . S
O1997 Li1937 1.956 . S
O1997 Li1939 1.961 . S
O1997 C1946 1.325 . S
O1998 Li1936 1.961 . S
O1998 Li1938 1.956 . S
O1998 Li1939 1.970 . S
O1998 C1968 1.325 . S
O1999 Li1937 1.961 . S
O1999 Li1938 1.970 . S
O1999 Li1939 1.956 . S
O1999 C1974 1.325 . S
H2000 C1942 0.929 . S
H2001 C1943 0.930 . S
H2002 C1944 0.930 . S
H2003 C1945 0.930 . S
H2004 C1947 0.930 . S
H2005 C1949 0.929 . S
H2006 C1950 0.930 . S
H2007 C1951 0.930 . S
H2008 C1954 0.930 . S
H2009 C1957 0.929 . S
H2010 C1962 0.929 . S
H2011 C1963 0.930 . S
H2012 C1970 0.929 . S
H2013 C1971 0.930 . S
H2014 C1972 0.930 . S
H2015 C1973 0.930 . S
H2016 C1975 0.929 . S
H2017 C1976 0.930 . S
H2018 C1977 0.930 . S
H2019 C1978 0.930 . S
H2020 C1982 0.929 . S
H2021 C1984 0.930 . S
H2022 C1990 0.929 . S
H2023 C1991 0.930 . S
Li2024 N2041 1.990 . S
Li2024 O2084 1.956 . S
Li2024 O2085 1.970 . S
Li2024 O2086 1.961 . S
Li2025 N2049 1.990 . S
Li2025 O2084 1.970 . S
Li2025 O2085 1.956 . S
Li2025 O2087 1.961 . S
Li2026 N2071 1.990 . S
Li2026 O2084 1.961 . S
Li2026 O2086 1.956 . S
Li2026 O2087 1.970 . S
Li2027 N2077 1.990 . S
Li2027 O2085 1.961 . S
Li2027 O2086 1.970 . S
Li2027 O2087 1.956 . S
C2028 C2030 1.348 . S
C2028 C2031 1.356 . S
C2028 O2084 1.325 . S
N2029 C2032 1.314 . S
N2029 C2033 1.279 . S
C2030 C2028 1.348 . S
C2030 C2032 1.353 . S
C2030 H2088 0.929 . S
C2031 C2028 1.356 . S
C2031 C2033 1.358 . S
C2031 H2089 0.930 . S
C2032 N2029 1.314 . S
C2032 C2030 1.353 . S
C2032 H2090 0.930 . S
C2033 N2029 1.279 . S
C2033 C2031 1.358 . S
C2033 H2091 0.930 . S
C2034 C2037 1.348 . S
C2034 C2038 1.356 . S
C2034 O2085 1.325 . S
C2035 N2036 1.279 . S
C2035 C2038 1.358 . S
C2035 H2092 0.930 . S
N2036 C2035 1.279 . S
N2036 C2039 1.314 . S
C2037 C2034 1.348 . S
C2037 C2039 1.353 . S
C2037 H2093 0.929 . S
C2038 C2034 1.356 . S
C2038 C2035 1.358 . S
C2038 H2094 0.930 . S
C2039 N2036 1.314 . S
C2039 C2037 1.353 . S
C2039 H2095 0.930 . S
C2040 N2041 1.314 . S
C2040 C2045 1.353 . S
C2040 H2046 0.930 . S
N2041 Li2024 1.990 . S
N2041 C2040 1.314 . S
N2041 C2043 1.279 . S
C2042 C2043 1.358 . S
C2042 C2044 1.356 . S
C2042 H2096 0.930 . S
C2043 N2041 1.279 . S
C2043 C2042 1.358 . S
C2043 H2047 0.930 . S
C2044 C2042 1.356 . S
C2044 C2045 1.348 . S
C2045 C2040 1.353 . S
C2045 C2044 1.348 . S
C2045 H2097 0.929 . S
H2046 C2040 0.930 . S
H2047 C2043 0.930 . S
C2048 N2049 1.314 . S
C2048 C2050 1.353 . S
C2048 H2054 0.930 . S
N2049 Li2025 1.990 . S
N2049 C2048 1.314 . S
N2049 C2052 1.279 . S
C2050 C2048 1.353 . S
C2050 C2053 1.348 . S
C2050 H2098 0.929 . S
C2051 C2052 1.358 . S
C2051 C2053 1.356 . S
C2051 H2099 0.930 . S
C2052 N2049 1.279 . S
C2052 C2051 1.358 . S
C2052 H2055 0.930 . S
C2053 C2050 1.348 . S
C2053 C2051 1.356 . S
H2054 C2048 0.930 . S
H2055 C2052 0.930 . S
C2056 C2058 1.348 . S
C2056 C2059 1.356 . S
C2056 O2086 1.325 . S
N2057 C2060 1.314 . S
N2057 C2061 1.279 . S
C2058 C2056 1.348 . S
C2058 C2060 1.353 . S
C2058 H2100 0.929 . S
C2059 C2056 1.356 . S
C2059 C2061 1.358 . S
C2059 H2101 0.930 . S
C2060 N2057 1.314 . S
C2060 C2058 1.353 . S
C2060 H2102 0.930 . S
C2061 N2057 1.279 . S
C2061 C2059 1.358 . S
C2061 H2103 0.930 . S
C2062 C2063 1.348 . S
C2062 C2064 1.356 . S
C2062 O2087 1.325 . S
C2063 C2062 1.348 . S
C2063 C2065 1.353 . S
C2063 H2104 0.929 . S
C2064 C2062 1.356 . S
C2064 C2066 1.358 . S
C2064 H2105 0.930 . S
C2065 C2063 1.353 . S
C2065 N2067 1.314 . S
C2065 H2106 0.930 . S
C2066 C2064 1.358 . S
C2066 N2067 1.279 . S
C2066 H2107 0.930 . S
N2067 C2065 1.314 . S
N2067 C2066 1.279 . S
C2068 C2070 1.353 . S
C2068 N2071 1.314 . S
C2068 H2074 0.930 . S
C2069 N2071 1.279 . S
C2069 C2072 1.358 . S
C2069 H2075 0.930 . S
C2070 C2068 1.353 . S
C2070 C2073 1.348 . S
C2070 H2108 0.929 . S
N2071 Li2026 1.990 . S
N2071 C2068 1.314 . S
N2071 C2069 1.279 . S
C2072 C2069 1.358 . S
C2072 C2073 1.356 . S
C2072 H2109 0.930 . S
C2073 C2070 1.348 . S
C2073 C2072 1.356 . S
H2074 C2068 0.930 . S
H2075 C2069 0.930 . S
C2076 N2077 1.314 . S
C2076 C2078 1.353 . S
C2076 H2082 0.930 . S
N2077 Li2027 1.990 . S
N2077 C2076 1.314 . S
N2077 C2080 1.279 . S
C2078 C2076 1.353 . S
C2078 C2081 1.348 . S
C2078 H2110 0.929 . S
C2079 C2080 1.358 . S
C2079 C2081 1.356 . S
C2079 H2111 0.930 . S
C2080 N2077 1.279 . S
C2080 C2079 1.358 . S
C2080 H2083 0.930 . S
C2081 C2078 1.348 . S
C2081 C2079 1.356 . S
H2082 C2076 0.930 . S
H2083 C2080 0.930 . S
O2084 Li2024 1.956 . S
O2084 Li2025 1.970 . S
O2084 Li2026 1.961 . S
O2084 C2028 1.325 . S
O2085 Li2024 1.970 . S
O2085 Li2025 1.956 . S
O2085 Li2027 1.961 . S
O2085 C2034 1.325 . S
O2086 Li2024 1.961 . S
O2086 Li2026 1.956 . S
O2086 Li2027 1.970 . S
O2086 C2056 1.325 . S
O2087 Li2025 1.961 . S
O2087 Li2026 1.970 . S
O2087 Li2027 1.956 . S
O2087 C2062 1.325 . S
H2088 C2030 0.929 . S
H2089 C2031 0.930 . S
H2090 C2032 0.930 . S
H2091 C2033 0.930 . S
H2092 C2035 0.930 . S
H2093 C2037 0.929 . S
H2094 C2038 0.930 . S
H2095 C2039 0.930 . S
H2096 C2042 0.930 . S
H2097 C2045 0.929 . S
H2098 C2050 0.929 . S
H2099 C2051 0.930 . S
H2100 C2058 0.929 . S
H2101 C2059 0.930 . S
H2102 C2060 0.930 . S
H2103 C2061 0.930 . S
H2104 C2063 0.929 . S
H2105 C2064 0.930 . S
H2106 C2065 0.930 . S
H2107 C2066 0.930 . S
H2108 C2070 0.929 . S
H2109 C2072 0.930 . S
H2110 C2078 0.929 . S
H2111 C2079 0.930 . S
C2112 C2113 1.349 . S
C2112 C2114 1.327 . S
C2112 H2137 0.950 . S
C2113 C2112 1.349 . S
C2113 C2129 1.349 . S
C2114 C2112 1.327 . S
C2114 C2133 1.429 . S
C2114 H2138 0.950 . S
C2115 C2132 1.574 . S
C2115 C2134 1.368 . S
C2115 H2139 0.949 . S
H2116 C2120 0.949 . S
C2117 C2118 1.349 . S
C2117 C2119 1.327 . S
C2117 H2140 0.950 . S
C2118 C2117 1.349 . S
C2118 C2130 1.349 . S
C2119 C2117 1.327 . S
C2119 C2135 1.429 . S
C2119 H2141 0.950 . S
C2120 H2116 0.949 . S
C2120 C2128 1.574 . S
C2120 C2136 1.368 . S
H2121 C2129 0.950 . S
H2122 C2127 0.950 . S
H2123 C2128 0.949 . S
H2124 C2130 0.950 . S
H2125 C2131 0.950 . S
H2126 C2132 0.949 . S
C2127 H2122 0.950 . S
C2127 C2129 1.327 . S
C2127 C2133 1.429 . S
C2128 C2120 1.574 . S
C2128 H2123 0.949 . S
C2128 C2134 1.368 . S
C2129 C2113 1.349 . S
C2129 H2121 0.950 . S
C2129 C2127 1.327 . S
C2130 C2118 1.349 . S
C2130 H2124 0.950 . S
C2130 C2131 1.327 . S
C2131 H2125 0.950 . S
C2131 C2130 1.327 . S
C2131 C2135 1.429 . S
C2132 C2115 1.574 . S
C2132 H2126 0.949 . S
C2132 C2136 1.368 . S
C2133 C2114 1.429 . S
C2133 C2127 1.429 . S
C2133 C2134 1.523 . S
C2134 C2115 1.368 . S
C2134 C2128 1.368 . S
C2134 C2133 1.523 . S
C2135 C2119 1.429 . S
C2135 C2131 1.429 . S
C2135 C2136 1.523 . S
C2136 C2120 1.368 . S
C2136 C2132 1.368 . S
C2136 C2135 1.523 . S
H2137 C2112 0.950 . S
H2138 C2114 0.950 . S
H2139 C2115 0.949 . S
H2140 C2117 0.950 . S
H2141 C2119 0.950 . S
C2142 C2143 1.349 . S
C2142 C2144 1.327 . S
C2142 H2167 0.950 . S
C2143 C2142 1.349 . S
C2143 C2159 1.349 . S
C2144 C2142 1.327 . S
C2144 C2163 1.429 . S
C2144 H2168 0.950 . S
C2145 C2162 1.574 . S
C2145 C2164 1.368 . S
C2145 H2169 0.949 . S
H2146 C2150 0.949 . S
C2147 C2148 1.349 . S
C2147 C2149 1.327 . S
C2147 H2170 0.950 . S
C2148 C2147 1.349 . S
C2148 C2160 1.349 . S
C2149 C2147 1.327 . S
C2149 C2165 1.429 . S
C2149 H2171 0.950 . S
C2150 H2146 0.949 . S
C2150 C2158 1.574 . S
C2150 C2166 1.368 . S
H2151 C2159 0.950 . S
H2152 C2157 0.950 . S
H2153 C2158 0.949 . S
H2154 C2160 0.950 . S
H2155 C2161 0.950 . S
H2156 C2162 0.949 . S
C2157 H2152 0.950 . S
C2157 C2159 1.327 . S
C2157 C2163 1.429 . S
C2158 C2150 1.574 . S
C2158 H2153 0.949 . S
C2158 C2164 1.368 . S
C2159 C2143 1.349 . S
C2159 H2151 0.950 . S
C2159 C2157 1.327 . S
C2160 C2148 1.349 . S
C2160 H2154 0.950 . S
C2160 C2161 1.327 . S
C2161 H2155 0.950 . S
C2161 C2160 1.327 . S
C2161 C2165 1.429 . S
C2162 C2145 1.574 . S
C2162 H2156 0.949 . S
C2162 C2166 1.368 . S
C2163 C2144 1.429 . S
C2163 C2157 1.429 . S
C2163 C2164 1.523 . S
C2164 C2145 1.368 . S
C2164 C2158 1.368 . S
C2164 C2163 1.523 . S
C2165 C2149 1.429 . S
C2165 C2161 1.429 . S
C2165 C2166 1.523 . S
C2166 C2150 1.368 . S
C2166 C2162 1.368 . S
C2166 C2165 1.523 . S
H2167 C2142 0.950 . S
H2168 C2144 0.950 . S
H2169 C2145 0.949 . S
H2170 C2147 0.950 . S
H2171 C2149 0.950 . S
C2172 C2173 1.349 . S
C2172 C2174 1.327 . S
C2172 H2197 0.950 . S
C2173 C2172 1.349 . S
C2173 C2189 1.349 . S
C2174 C2172 1.327 . S
C2174 C2193 1.429 . S
C2174 H2198 0.950 . S
C2175 C2192 1.574 . S
C2175 C2194 1.368 . S
C2175 H2199 0.949 . S
H2176 C2180 0.949 . S
C2177 C2178 1.349 . S
C2177 C2179 1.327 . S
C2177 H2200 0.950 . S
C2178 C2177 1.349 . S
C2178 C2190 1.349 . S
C2179 C2177 1.327 . S
C2179 C2195 1.429 . S
C2179 H2201 0.950 . S
C2180 H2176 0.949 . S
C2180 C2188 1.574 . S
C2180 C2196 1.368 . S
H2181 C2189 0.950 . S
H2182 C2187 0.950 . S
H2183 C2188 0.949 . S
H2184 C2190 0.950 . S
H2185 C2191 0.950 . S
H2186 C2192 0.949 . S
C2187 H2182 0.950 . S
C2187 C2189 1.327 . S
C2187 C2193 1.429 . S
C2188 C2180 1.574 . S
C2188 H2183 0.949 . S
C2188 C2194 1.368 . S
C2189 C2173 1.349 . S
C2189 H2181 0.950 . S
C2189 C2187 1.327 . S
C2190 C2178 1.349 . S
C2190 H2184 0.950 . S
C2190 C2191 1.327 . S
C2191 H2185 0.950 . S
C2191 C2190 1.327 . S
C2191 C2195 1.429 . S
C2192 C2175 1.574 . S
C2192 H2186 0.949 . S
C2192 C2196 1.368 . S
C2193 C2174 1.429 . S
C2193 C2187 1.429 . S
C2193 C2194 1.523 . S
C2194 C2175 1.368 . S
C2194 C2188 1.368 . S
C2194 C2193 1.523 . S
C2195 C2179 1.429 . S
C2195 C2191 1.429 . S
C2195 C2196 1.523 . S
C2196 C2180 1.368 . S
C2196 C2192 1.368 . S
C2196 C2195 1.523 . S
H2197 C2172 0.950 . S
H2198 C2174 0.950 . S
H2199 C2175 0.949 . S
H2200 C2177 0.950 . S
H2201 C2179 0.950 . S
C2202 C2203 1.349 . S
C2202 C2204 1.327 . S
C2202 H2227 0.950 . S
C2203 C2202 1.349 . S
C2203 C2219 1.349 . S
C2204 C2202 1.327 . S
C2204 C2223 1.429 . S
C2204 H2228 0.950 . S
C2205 C2222 1.574 . S
C2205 C2224 1.368 . S
C2205 H2229 0.949 . S
H2206 C2210 0.949 . S
C2207 C2208 1.349 . S
C2207 C2209 1.327 . S
C2207 H2230 0.950 . S
C2208 C2207 1.349 . S
C2208 C2220 1.349 . S
C2209 C2207 1.327 . S
C2209 C2225 1.429 . S
C2209 H2231 0.950 . S
C2210 H2206 0.949 . S
C2210 C2218 1.574 . S
C2210 C2226 1.368 . S
H2211 C2219 0.950 . S
H2212 C2217 0.950 . S
H2213 C2218 0.949 . S
H2214 C2220 0.950 . S
H2215 C2221 0.950 . S
H2216 C2222 0.949 . S
C2217 H2212 0.950 . S
C2217 C2219 1.327 . S
C2217 C2223 1.429 . S
C2218 C2210 1.574 . S
C2218 H2213 0.949 . S
C2218 C2224 1.368 . S
C2219 C2203 1.349 . S
C2219 H2211 0.950 . S
C2219 C2217 1.327 . S
C2220 C2208 1.349 . S
C2220 H2214 0.950 . S
C2220 C2221 1.327 . S
C2221 H2215 0.950 . S
C2221 C2220 1.327 . S
C2221 C2225 1.429 . S
C2222 C2205 1.574 . S
C2222 H2216 0.949 . S
C2222 C2226 1.368 . S
C2223 C2204 1.429 . S
C2223 C2217 1.429 . S
C2223 C2224 1.523 . S
C2224 C2205 1.368 . S
C2224 C2218 1.368 . S
C2224 C2223 1.523 . S
C2225 C2209 1.429 . S
C2225 C2221 1.429 . S
C2225 C2226 1.523 . S
C2226 C2210 1.368 . S
C2226 C2222 1.368 . S
C2226 C2225 1.523 . S
H2227 C2202 0.950 . S
H2228 C2204 0.950 . S
H2229 C2205 0.949 . S
H2230 C2207 0.950 . S
H2231 C2209 0.950 . S
C2232 C2233 1.349 . S
C2232 C2234 1.327 . S
C2232 H2257 0.950 . S
C2233 C2232 1.349 . S
C2233 C2249 1.349 . S
C2234 C2232 1.327 . S
C2234 C2253 1.429 . S
C2234 H2258 0.950 . S
C2235 C2252 1.574 . S
C2235 C2254 1.368 . S
C2235 H2259 0.949 . S
H2236 C2240 0.949 . S
C2237 C2238 1.349 . S
C2237 C2239 1.327 . S
C2237 H2260 0.950 . S
C2238 C2237 1.349 . S
C2238 C2250 1.349 . S
C2239 C2237 1.327 . S
C2239 C2255 1.429 . S
C2239 H2261 0.950 . S
C2240 H2236 0.949 . S
C2240 C2248 1.574 . S
C2240 C2256 1.368 . S
H2241 C2249 0.950 . S
H2242 C2247 0.950 . S
H2243 C2248 0.949 . S
H2244 C2250 0.950 . S
H2245 C2251 0.950 . S
H2246 C2252 0.949 . S
C2247 H2242 0.950 . S
C2247 C2249 1.327 . S
C2247 C2253 1.429 . S
C2248 C2240 1.574 . S
C2248 H2243 0.949 . S
C2248 C2254 1.368 . S
C2249 C2233 1.349 . S
C2249 H2241 0.950 . S
C2249 C2247 1.327 . S
C2250 C2238 1.349 . S
C2250 H2244 0.950 . S
C2250 C2251 1.327 . S
C2251 H2245 0.950 . S
C2251 C2250 1.327 . S
C2251 C2255 1.429 . S
C2252 C2235 1.574 . S
C2252 H2246 0.949 . S
C2252 C2256 1.368 . S
C2253 C2234 1.429 . S
C2253 C2247 1.429 . S
C2253 C2254 1.523 . S
C2254 C2235 1.368 . S
C2254 C2248 1.368 . S
C2254 C2253 1.523 . S
C2255 C2239 1.429 . S
C2255 C2251 1.429 . S
C2255 C2256 1.523 . S
C2256 C2240 1.368 . S
C2256 C2252 1.368 . S
C2256 C2255 1.523 . S
H2257 C2232 0.950 . S
H2258 C2234 0.950 . S
H2259 C2235 0.949 . S
H2260 C2237 0.950 . S
H2261 C2239 0.950 . S
C2262 C2263 1.349 . S
C2262 C2264 1.327 . S
C2262 H2287 0.950 . S
C2263 C2262 1.349 . S
C2263 C2279 1.349 . S
C2264 C2262 1.327 . S
C2264 C2283 1.429 . S
C2264 H2288 0.950 . S
C2265 C2282 1.574 . S
C2265 C2284 1.368 . S
C2265 H2289 0.949 . S
H2266 C2270 0.949 . S
C2267 C2268 1.349 . S
C2267 C2269 1.327 . S
C2267 H2290 0.950 . S
C2268 C2267 1.349 . S
C2268 C2280 1.349 . S
C2269 C2267 1.327 . S
C2269 C2285 1.429 . S
C2269 H2291 0.950 . S
C2270 H2266 0.949 . S
C2270 C2278 1.574 . S
C2270 C2286 1.368 . S
H2271 C2279 0.950 . S
H2272 C2277 0.950 . S
H2273 C2278 0.949 . S
H2274 C2280 0.950 . S
H2275 C2281 0.950 . S
H2276 C2282 0.949 . S
C2277 H2272 0.950 . S
C2277 C2279 1.327 . S
C2277 C2283 1.429 . S
C2278 C2270 1.574 . S
C2278 H2273 0.949 . S
C2278 C2284 1.368 . S
C2279 C2263 1.349 . S
C2279 H2271 0.950 . S
C2279 C2277 1.327 . S
C2280 C2268 1.349 . S
C2280 H2274 0.950 . S
C2280 C2281 1.327 . S
C2281 H2275 0.950 . S
C2281 C2280 1.327 . S
C2281 C2285 1.429 . S
C2282 C2265 1.574 . S
C2282 H2276 0.949 . S
C2282 C2286 1.368 . S
C2283 C2264 1.429 . S
C2283 C2277 1.429 . S
C2283 C2284 1.523 . S
C2284 C2265 1.368 . S
C2284 C2278 1.368 . S
C2284 C2283 1.523 . S
C2285 C2269 1.429 . S
C2285 C2281 1.429 . S
C2285 C2286 1.523 . S
C2286 C2270 1.368 . S
C2286 C2282 1.368 . S
C2286 C2285 1.523 . S
H2287 C2262 0.950 . S
H2288 C2264 0.950 . S
H2289 C2265 0.949 . S
H2290 C2267 0.950 . S
H2291 C2269 0.950 . S
C2292 C2293 1.349 . S
C2292 C2294 1.327 . S
C2292 H2317 0.950 . S
C2293 C2292 1.349 . S
C2293 C2309 1.349 . S
C2294 C2292 1.327 . S
C2294 C2313 1.429 . S
C2294 H2318 0.950 . S
C2295 C2312 1.574 . S
C2295 C2314 1.368 . S
C2295 H2319 0.949 . S
H2296 C2300 0.949 . S
C2297 C2298 1.349 . S
C2297 C2299 1.327 . S
C2297 H2320 0.950 . S
C2298 C2297 1.349 . S
C2298 C2310 1.349 . S
C2299 C2297 1.327 . S
C2299 C2315 1.429 . S
C2299 H2321 0.950 . S
C2300 H2296 0.949 . S
C2300 C2308 1.574 . S
C2300 C2316 1.368 . S
H2301 C2309 0.950 . S
H2302 C2307 0.950 . S
H2303 C2308 0.949 . S
H2304 C2310 0.950 . S
H2305 C2311 0.950 . S
H2306 C2312 0.949 . S
C2307 H2302 0.950 . S
C2307 C2309 1.327 . S
C2307 C2313 1.429 . S
C2308 C2300 1.574 . S
C2308 H2303 0.949 . S
C2308 C2314 1.368 . S
C2309 C2293 1.349 . S
C2309 H2301 0.950 . S
C2309 C2307 1.327 . S
C2310 C2298 1.349 . S
C2310 H2304 0.950 . S
C2310 C2311 1.327 . S
C2311 H2305 0.950 . S
C2311 C2310 1.327 . S
C2311 C2315 1.429 . S
C2312 C2295 1.574 . S
C2312 H2306 0.949 . S
C2312 C2316 1.368 . S
C2313 C2294 1.429 . S
C2313 C2307 1.429 . S
C2313 C2314 1.523 . S
C2314 C2295 1.368 . S
C2314 C2308 1.368 . S
C2314 C2313 1.523 . S
C2315 C2299 1.429 . S
C2315 C2311 1.429 . S
C2315 C2316 1.523 . S
C2316 C2300 1.368 . S
C2316 C2312 1.368 . S
C2316 C2315 1.523 . S
H2317 C2292 0.950 . S
H2318 C2294 0.950 . S
H2319 C2295 0.949 . S
H2320 C2297 0.950 . S
H2321 C2299 0.950 . S
C2322 C2323 1.349 . S
C2322 C2324 1.327 . S
C2322 H2347 0.950 . S
C2323 C2322 1.349 . S
C2323 C2339 1.349 . S
C2324 C2322 1.327 . S
C2324 C2343 1.429 . S
C2324 H2348 0.950 . S
C2325 C2342 1.574 . S
C2325 C2344 1.368 . S
C2325 H2349 0.949 . S
H2326 C2330 0.949 . S
C2327 C2328 1.349 . S
C2327 C2329 1.327 . S
C2327 H2350 0.950 . S
C2328 C2327 1.349 . S
C2328 C2340 1.349 . S
C2329 C2327 1.327 . S
C2329 C2345 1.429 . S
C2329 H2351 0.950 . S
C2330 H2326 0.949 . S
C2330 C2338 1.574 . S
C2330 C2346 1.368 . S
H2331 C2339 0.950 . S
H2332 C2337 0.950 . S
H2333 C2338 0.949 . S
H2334 C2340 0.950 . S
H2335 C2341 0.950 . S
H2336 C2342 0.949 . S
C2337 H2332 0.950 . S
C2337 C2339 1.327 . S
C2337 C2343 1.429 . S
C2338 C2330 1.574 . S
C2338 H2333 0.949 . S
C2338 C2344 1.368 . S
C2339 C2323 1.349 . S
C2339 H2331 0.950 . S
C2339 C2337 1.327 . S
C2340 C2328 1.349 . S
C2340 H2334 0.950 . S
C2340 C2341 1.327 . S
C2341 H2335 0.950 . S
C2341 C2340 1.327 . S
C2341 C2345 1.429 . S
C2342 C2325 1.574 . S
C2342 H2336 0.949 . S
C2342 C2346 1.368 . S
C2343 C2324 1.429 . S
C2343 C2337 1.429 . S
C2343 C2344 1.523 . S
C2344 C2325 1.368 . S
C2344 C2338 1.368 . S
C2344 C2343 1.523 . S
C2345 C2329 1.429 . S
C2345 C2341 1.429 . S
C2345 C2346 1.523 . S
C2346 C2330 1.368 . S
C2346 C2342 1.368 . S
C2346 C2345 1.523 . S
H2347 C2322 0.950 . S
H2348 C2324 0.950 . S
H2349 C2325 0.949 . S
H2350 C2327 0.950 . S
H2351 C2329 0.950 . S
C2352 C2353 1.349 . S
C2352 C2354 1.327 . S
C2352 H2377 0.950 . S
C2353 C2352 1.349 . S
C2353 C2369 1.349 . S
C2354 C2352 1.327 . S
C2354 C2373 1.429 . S
C2354 H2378 0.950 . S
C2355 C2372 1.574 . S
C2355 C2374 1.368 . S
C2355 H2379 0.949 . S
H2356 C2360 0.949 . S
C2357 C2358 1.349 . S
C2357 C2359 1.327 . S
C2357 H2380 0.950 . S
C2358 C2357 1.349 . S
C2358 C2370 1.349 . S
C2359 C2357 1.327 . S
C2359 C2375 1.429 . S
C2359 H2381 0.950 . S
C2360 H2356 0.949 . S
C2360 C2368 1.574 . S
C2360 C2376 1.368 . S
H2361 C2369 0.950 . S
H2362 C2367 0.950 . S
H2363 C2368 0.949 . S
H2364 C2370 0.950 . S
H2365 C2371 0.950 . S
H2366 C2372 0.949 . S
C2367 H2362 0.950 . S
C2367 C2369 1.327 . S
C2367 C2373 1.429 . S
C2368 C2360 1.574 . S
C2368 H2363 0.949 . S
C2368 C2374 1.368 . S
C2369 C2353 1.349 . S
C2369 H2361 0.950 . S
C2369 C2367 1.327 . S
C2370 C2358 1.349 . S
C2370 H2364 0.950 . S
C2370 C2371 1.327 . S
C2371 H2365 0.950 . S
C2371 C2370 1.327 . S
C2371 C2375 1.429 . S
C2372 C2355 1.574 . S
C2372 H2366 0.949 . S
C2372 C2376 1.368 . S
C2373 C2354 1.429 . S
C2373 C2367 1.429 . S
C2373 C2374 1.523 . S
C2374 C2355 1.368 . S
C2374 C2368 1.368 . S
C2374 C2373 1.523 . S
C2375 C2359 1.429 . S
C2375 C2371 1.429 . S
C2375 C2376 1.523 . S
C2376 C2360 1.368 . S
C2376 C2372 1.368 . S
C2376 C2375 1.523 . S
H2377 C2352 0.950 . S
H2378 C2354 0.950 . S
H2379 C2355 0.949 . S
H2380 C2357 0.950 . S
H2381 C2359 0.950 . S
C2382 C2383 1.349 . S
C2382 C2384 1.327 . S
C2382 H2407 0.950 . S
C2383 C2382 1.349 . S
C2383 C2399 1.349 . S
C2384 C2382 1.327 . S
C2384 C2403 1.429 . S
C2384 H2408 0.950 . S
C2385 C2402 1.574 . S
C2385 C2404 1.368 . S
C2385 H2409 0.949 . S
H2386 C2390 0.949 . S
C2387 C2388 1.349 . S
C2387 C2389 1.327 . S
C2387 H2410 0.950 . S
C2388 C2387 1.349 . S
C2388 C2400 1.349 . S
C2389 C2387 1.327 . S
C2389 C2405 1.429 . S
C2389 H2411 0.950 . S
C2390 H2386 0.949 . S
C2390 C2398 1.574 . S
C2390 C2406 1.368 . S
H2391 C2399 0.950 . S
H2392 C2397 0.950 . S
H2393 C2398 0.949 . S
H2394 C2400 0.950 . S
H2395 C2401 0.950 . S
H2396 C2402 0.949 . S
C2397 H2392 0.950 . S
C2397 C2399 1.327 . S
C2397 C2403 1.429 . S
C2398 C2390 1.574 . S
C2398 H2393 0.949 . S
C2398 C2404 1.368 . S
C2399 C2383 1.349 . S
C2399 H2391 0.950 . S
C2399 C2397 1.327 . S
C2400 C2388 1.349 . S
C2400 H2394 0.950 . S
C2400 C2401 1.327 . S
C2401 H2395 0.950 . S
C2401 C2400 1.327 . S
C2401 C2405 1.429 . S
C2402 C2385 1.574 . S
C2402 H2396 0.949 . S
C2402 C2406 1.368 . S
C2403 C2384 1.429 . S
C2403 C2397 1.429 . S
C2403 C2404 1.523 . S
C2404 C2385 1.368 . S
C2404 C2398 1.368 . S
C2404 C2403 1.523 . S
C2405 C2389 1.429 . S
C2405 C2401 1.429 . S
C2405 C2406 1.523 . S
C2406 C2390 1.368 . S
C2406 C2402 1.368 . S
C2406 C2405 1.523 . S
H2407 C2382 0.950 . S
H2408 C2384 0.950 . S
H2409 C2385 0.949 . S
H2410 C2387 0.950 . S
H2411 C2389 0.950 . S
C2412 C2413 1.349 . S
C2412 C2414 1.327 . S
C2412 H2437 0.950 . S
C2413 C2412 1.349 . S
C2413 C2429 1.349 . S
C2414 C2412 1.327 . S
C2414 C2433 1.429 . S
C2414 H2438 0.950 . S
C2415 C2432 1.574 . S
C2415 C2434 1.368 . S
C2415 H2439 0.949 . S
H2416 C2420 0.949 . S
C2417 C2418 1.349 . S
C2417 C2419 1.327 . S
C2417 H2440 0.950 . S
C2418 C2417 1.349 . S
C2418 C2430 1.349 . S
C2419 C2417 1.327 . S
C2419 C2435 1.429 . S
C2419 H2441 0.950 . S
C2420 H2416 0.949 . S
C2420 C2428 1.574 . S
C2420 C2436 1.368 . S
H2421 C2429 0.950 . S
H2422 C2427 0.950 . S
H2423 C2428 0.949 . S
H2424 C2430 0.950 . S
H2425 C2431 0.950 . S
H2426 C2432 0.949 . S
C2427 H2422 0.950 . S
C2427 C2429 1.327 . S
C2427 C2433 1.429 . S
C2428 C2420 1.574 . S
C2428 H2423 0.949 . S
C2428 C2434 1.368 . S
C2429 C2413 1.349 . S
C2429 H2421 0.950 . S
C2429 C2427 1.327 . S
C2430 C2418 1.349 . S
C2430 H2424 0.950 . S
C2430 C2431 1.327 . S
C2431 H2425 0.950 . S
C2431 C2430 1.327 . S
C2431 C2435 1.429 . S
C2432 C2415 1.574 . S
C2432 H2426 0.949 . S
C2432 C2436 1.368 . S
C2433 C2414 1.429 . S
C2433 C2427 1.429 . S
C2433 C2434 1.523 . S
C2434 C2415 1.368 . S
C2434 C2428 1.368 . S
C2434 C2433 1.523 . S
C2435 C2419 1.429 . S
C2435 C2431 1.429 . S
C2435 C2436 1.523 . S
C2436 C2420 1.368 . S
C2436 C2432 1.368 . S
C2436 C2435 1.523 . S
H2437 C2412 0.950 . S
H2438 C2414 0.950 . S
H2439 C2415 0.949 . S
H2440 C2417 0.950 . S
H2441 C2419 0.950 . S
C2442 C2443 1.349 . S
C2442 C2444 1.327 . S
C2442 H2467 0.950 . S
C2443 C2442 1.349 . S
C2443 C2459 1.349 . S
C2444 C2442 1.327 . S
C2444 C2463 1.429 . S
C2444 H2468 0.950 . S
C2445 C2462 1.574 . S
C2445 C2464 1.368 . S
C2445 H2469 0.949 . S
H2446 C2450 0.949 . S
C2447 C2448 1.349 . S
C2447 C2449 1.327 . S
C2447 H2470 0.950 . S
C2448 C2447 1.349 . S
C2448 C2460 1.349 . S
C2449 C2447 1.327 . S
C2449 C2465 1.429 . S
C2449 H2471 0.950 . S
C2450 H2446 0.949 . S
C2450 C2458 1.574 . S
C2450 C2466 1.368 . S
H2451 C2459 0.950 . S
H2452 C2457 0.950 . S
H2453 C2458 0.949 . S
H2454 C2460 0.950 . S
H2455 C2461 0.950 . S
H2456 C2462 0.949 . S
C2457 H2452 0.950 . S
C2457 C2459 1.327 . S
C2457 C2463 1.429 . S
C2458 C2450 1.574 . S
C2458 H2453 0.949 . S
C2458 C2464 1.368 . S
C2459 C2443 1.349 . S
C2459 H2451 0.950 . S
C2459 C2457 1.327 . S
C2460 C2448 1.349 . S
C2460 H2454 0.950 . S
C2460 C2461 1.327 . S
C2461 H2455 0.950 . S
C2461 C2460 1.327 . S
C2461 C2465 1.429 . S
C2462 C2445 1.574 . S
C2462 H2456 0.949 . S
C2462 C2466 1.368 . S
C2463 C2444 1.429 . S
C2463 C2457 1.429 . S
C2463 C2464 1.523 . S
C2464 C2445 1.368 . S
C2464 C2458 1.368 . S
C2464 C2463 1.523 . S
C2465 C2449 1.429 . S
C2465 C2461 1.429 . S
C2465 C2466 1.523 . S
C2466 C2450 1.368 . S
C2466 C2462 1.368 . S
C2466 C2465 1.523 . S
H2467 C2442 0.950 . S
H2468 C2444 0.950 . S
H2469 C2445 0.949 . S
H2470 C2447 0.950 . S
H2471 C2449 0.950 . S
C2472 C2473 1.349 . S
C2472 C2474 1.327 . S
C2472 H2497 0.950 . S
C2473 C2472 1.349 . S
C2473 C2489 1.349 . S
C2474 C2472 1.327 . S
C2474 C2493 1.429 . S
C2474 H2498 0.950 . S
C2475 C2492 1.574 . S
C2475 C2494 1.368 . S
C2475 H2499 0.949 . S
H2476 C2480 0.949 . S
C2477 C2478 1.349 . S
C2477 C2479 1.327 . S
C2477 H2500 0.950 . S
C2478 C2477 1.349 . S
C2478 C2490 1.349 . S
C2479 C2477 1.327 . S
C2479 C2495 1.429 . S
C2479 H2501 0.950 . S
C2480 H2476 0.949 . S
C2480 C2488 1.574 . S
C2480 C2496 1.368 . S
H2481 C2489 0.950 . S
H2482 C2487 0.950 . S
H2483 C2488 0.949 . S
H2484 C2490 0.950 . S
H2485 C2491 0.950 . S
H2486 C2492 0.949 . S
C2487 H2482 0.950 . S
C2487 C2489 1.327 . S
C2487 C2493 1.429 . S
C2488 C2480 1.574 . S
C2488 H2483 0.949 . S
C2488 C2494 1.368 . S
C2489 C2473 1.349 . S
C2489 H2481 0.950 . S
C2489 C2487 1.327 . S
C2490 C2478 1.349 . S
C2490 H2484 0.950 . S
C2490 C2491 1.327 . S
C2491 H2485 0.950 . S
C2491 C2490 1.327 . S
C2491 C2495 1.429 . S
C2492 C2475 1.574 . S
C2492 H2486 0.949 . S
C2492 C2496 1.368 . S
C2493 C2474 1.429 . S
C2493 C2487 1.429 . S
C2493 C2494 1.523 . S
C2494 C2475 1.368 . S
C2494 C2488 1.368 . S
C2494 C2493 1.523 . S
C2495 C2479 1.429 . S
C2495 C2491 1.429 . S
C2495 C2496 1.523 . S
C2496 C2480 1.368 . S
C2496 C2492 1.368 . S
C2496 C2495 1.523 . S
H2497 C2472 0.950 . S
H2498 C2474 0.950 . S
H2499 C2475 0.949 . S
H2500 C2477 0.950 . S
H2501 C2479 0.950 . S
C2502 C2503 1.349 . S
C2502 C2504 1.327 . S
C2502 H2527 0.950 . S
C2503 C2502 1.349 . S
C2503 C2519 1.349 . S
C2504 C2502 1.327 . S
C2504 C2523 1.429 . S
C2504 H2528 0.950 . S
C2505 C2522 1.574 . S
C2505 C2524 1.368 . S
C2505 H2529 0.949 . S
H2506 C2510 0.949 . S
C2507 C2508 1.349 . S
C2507 C2509 1.327 . S
C2507 H2530 0.950 . S
C2508 C2507 1.349 . S
C2508 C2520 1.349 . S
C2509 C2507 1.327 . S
C2509 C2525 1.429 . S
C2509 H2531 0.950 . S
C2510 H2506 0.949 . S
C2510 C2518 1.574 . S
C2510 C2526 1.368 . S
H2511 C2519 0.950 . S
H2512 C2517 0.950 . S
H2513 C2518 0.949 . S
H2514 C2520 0.950 . S
H2515 C2521 0.950 . S
H2516 C2522 0.949 . S
C2517 H2512 0.950 . S
C2517 C2519 1.327 . S
C2517 C2523 1.429 . S
C2518 C2510 1.574 . S
C2518 H2513 0.949 . S
C2518 C2524 1.368 . S
C2519 C2503 1.349 . S
C2519 H2511 0.950 . S
C2519 C2517 1.327 . S
C2520 C2508 1.349 . S
C2520 H2514 0.950 . S
C2520 C2521 1.327 . S
C2521 H2515 0.950 . S
C2521 C2520 1.327 . S
C2521 C2525 1.429 . S
C2522 C2505 1.574 . S
C2522 H2516 0.949 . S
C2522 C2526 1.368 . S
C2523 C2504 1.429 . S
C2523 C2517 1.429 . S
C2523 C2524 1.523 . S
C2524 C2505 1.368 . S
C2524 C2518 1.368 . S
C2524 C2523 1.523 . S
C2525 C2509 1.429 . S
C2525 C2521 1.429 . S
C2525 C2526 1.523 . S
C2526 C2510 1.368 . S
C2526 C2522 1.368 . S
C2526 C2525 1.523 . S
H2527 C2502 0.950 . S
H2528 C2504 0.950 . S
H2529 C2505 0.949 . S
H2530 C2507 0.950 . S
H2531 C2509 0.950 . S
C2532 C2533 1.349 . S
C2532 C2534 1.327 . S
C2532 H2557 0.950 . S
C2533 C2532 1.349 . S
C2533 C2549 1.349 . S
C2534 C2532 1.327 . S
C2534 C2553 1.429 . S
C2534 H2558 0.950 . S
C2535 C2552 1.574 . S
C2535 C2554 1.368 . S
C2535 H2559 0.949 . S
H2536 C2540 0.949 . S
C2537 C2538 1.349 . S
C2537 C2539 1.327 . S
C2537 H2560 0.950 . S
C2538 C2537 1.349 . S
C2538 C2550 1.349 . S
C2539 C2537 1.327 . S
C2539 C2555 1.429 . S
C2539 H2561 0.950 . S
C2540 H2536 0.949 . S
C2540 C2548 1.574 . S
C2540 C2556 1.368 . S
H2541 C2549 0.950 . S
H2542 C2547 0.950 . S
H2543 C2548 0.949 . S
H2544 C2550 0.950 . S
H2545 C2551 0.950 . S
H2546 C2552 0.949 . S
C2547 H2542 0.950 . S
C2547 C2549 1.327 . S
C2547 C2553 1.429 . S
C2548 C2540 1.574 . S
C2548 H2543 0.949 . S
C2548 C2554 1.368 . S
C2549 C2533 1.349 . S
C2549 H2541 0.950 . S
C2549 C2547 1.327 . S
C2550 C2538 1.349 . S
C2550 H2544 0.950 . S
C2550 C2551 1.327 . S
C2551 H2545 0.950 . S
C2551 C2550 1.327 . S
C2551 C2555 1.429 . S
C2552 C2535 1.574 . S
C2552 H2546 0.949 . S
C2552 C2556 1.368 . S
C2553 C2534 1.429 . S
C2553 C2547 1.429 . S
C2553 C2554 1.523 . S
C2554 C2535 1.368 . S
C2554 C2548 1.368 . S
C2554 C2553 1.523 . S
C2555 C2539 1.429 . S
C2555 C2551 1.429 . S
C2555 C2556 1.523 . S
C2556 C2540 1.368 . S
C2556 C2552 1.368 . S
C2556 C2555 1.523 . S
H2557 C2532 0.950 . S
H2558 C2534 0.950 . S
H2559 C2535 0.949 . S
H2560 C2537 0.950 . S
H2561 C2539 0.950 . S
C2562 C2563 1.349 . S
C2562 C2564 1.327 . S
C2562 H2587 0.950 . S
C2563 C2562 1.349 . S
C2563 C2579 1.349 . S
C2564 C2562 1.327 . S
C2564 C2583 1.429 . S
C2564 H2588 0.950 . S
C2565 C2582 1.574 . S
C2565 C2584 1.368 . S
C2565 H2589 0.949 . S
H2566 C2570 0.949 . S
C2567 C2568 1.349 . S
C2567 C2569 1.327 . S
C2567 H2590 0.950 . S
C2568 C2567 1.349 . S
C2568 C2580 1.349 . S
C2569 C2567 1.327 . S
C2569 C2585 1.429 . S
C2569 H2591 0.950 . S
C2570 H2566 0.949 . S
C2570 C2578 1.574 . S
C2570 C2586 1.368 . S
H2571 C2579 0.950 . S
H2572 C2577 0.950 . S
H2573 C2578 0.949 . S
H2574 C2580 0.950 . S
H2575 C2581 0.950 . S
H2576 C2582 0.949 . S
C2577 H2572 0.950 . S
C2577 C2579 1.327 . S
C2577 C2583 1.429 . S
C2578 C2570 1.574 . S
C2578 H2573 0.949 . S
C2578 C2584 1.368 . S
C2579 C2563 1.349 . S
C2579 H2571 0.950 . S
C2579 C2577 1.327 . S
C2580 C2568 1.349 . S
C2580 H2574 0.950 . S
C2580 C2581 1.327 . S
C2581 H2575 0.950 . S
C2581 C2580 1.327 . S
C2581 C2585 1.429 . S
C2582 C2565 1.574 . S
C2582 H2576 0.949 . S
C2582 C2586 1.368 . S
C2583 C2564 1.429 . S
C2583 C2577 1.429 . S
C2583 C2584 1.523 . S
C2584 C2565 1.368 . S
C2584 C2578 1.368 . S
C2584 C2583 1.523 . S
C2585 C2569 1.429 . S
C2585 C2581 1.429 . S
C2585 C2586 1.523 . S
C2586 C2570 1.368 . S
C2586 C2582 1.368 . S
C2586 C2585 1.523 . S
H2587 C2562 0.950 . S
H2588 C2564 0.950 . S
H2589 C2565 0.949 . S
H2590 C2567 0.950 . S
H2591 C2569 0.950 . S
C2592 C2593 1.349 . S
C2592 C2594 1.327 . S
C2592 H2617 0.950 . S
C2593 C2592 1.349 . S
C2593 C2609 1.349 . S
C2594 C2592 1.327 . S
C2594 C2613 1.429 . S
C2594 H2618 0.950 . S
C2595 C2612 1.574 . S
C2595 C2614 1.368 . S
C2595 H2619 0.949 . S
H2596 C2600 0.949 . S
C2597 C2598 1.349 . S
C2597 C2599 1.327 . S
C2597 H2620 0.950 . S
C2598 C2597 1.349 . S
C2598 C2610 1.349 . S
C2599 C2597 1.327 . S
C2599 C2615 1.429 . S
C2599 H2621 0.950 . S
C2600 H2596 0.949 . S
C2600 C2608 1.574 . S
C2600 C2616 1.368 . S
H2601 C2609 0.950 . S
H2602 C2607 0.950 . S
H2603 C2608 0.949 . S
H2604 C2610 0.950 . S
H2605 C2611 0.950 . S
H2606 C2612 0.949 . S
C2607 H2602 0.950 . S
C2607 C2609 1.327 . S
C2607 C2613 1.429 . S
C2608 C2600 1.574 . S
C2608 H2603 0.949 . S
C2608 C2614 1.368 . S
C2609 C2593 1.349 . S
C2609 H2601 0.950 . S
C2609 C2607 1.327 . S
C2610 C2598 1.349 . S
C2610 H2604 0.950 . S
C2610 C2611 1.327 . S
C2611 H2605 0.950 . S
C2611 C2610 1.327 . S
C2611 C2615 1.429 . S
C2612 C2595 1.574 . S
C2612 H2606 0.949 . S
C2612 C2616 1.368 . S
C2613 C2594 1.429 . S
C2613 C2607 1.429 . S
C2613 C2614 1.523 . S
C2614 C2595 1.368 . S
C2614 C2608 1.368 . S
C2614 C2613 1.523 . S
C2615 C2599 1.429 . S
C2615 C2611 1.429 . S
C2615 C2616 1.523 . S
C2616 C2600 1.368 . S
C2616 C2612 1.368 . S
C2616 C2615 1.523 . S
H2617 C2592 0.950 . S
H2618 C2594 0.950 . S
H2619 C2595 0.949 . S
H2620 C2597 0.950 . S
H2621 C2599 0.950 . S
C2622 C2623 1.349 . S
C2622 C2624 1.327 . S
C2622 H2647 0.950 . S
C2623 C2622 1.349 . S
C2623 C2639 1.349 . S
C2624 C2622 1.327 . S
C2624 C2643 1.429 . S
C2624 H2648 0.950 . S
C2625 C2642 1.574 . S
C2625 C2644 1.368 . S
C2625 H2649 0.949 . S
H2626 C2630 0.949 . S
C2627 C2628 1.349 . S
C2627 C2629 1.327 . S
C2627 H2650 0.950 . S
C2628 C2627 1.349 . S
C2628 C2640 1.349 . S
C2629 C2627 1.327 . S
C2629 C2645 1.429 . S
C2629 H2651 0.950 . S
C2630 H2626 0.949 . S
C2630 C2638 1.574 . S
C2630 C2646 1.368 . S
H2631 C2639 0.950 . S
H2632 C2637 0.950 . S
H2633 C2638 0.949 . S
H2634 C2640 0.950 . S
H2635 C2641 0.950 . S
H2636 C2642 0.949 . S
C2637 H2632 0.950 . S
C2637 C2639 1.327 . S
C2637 C2643 1.429 . S
C2638 C2630 1.574 . S
C2638 H2633 0.949 . S
C2638 C2644 1.368 . S
C2639 C2623 1.349 . S
C2639 H2631 0.950 . S
C2639 C2637 1.327 . S
C2640 C2628 1.349 . S
C2640 H2634 0.950 . S
C2640 C2641 1.327 . S
C2641 H2635 0.950 . S
C2641 C2640 1.327 . S
C2641 C2645 1.429 . S
C2642 C2625 1.574 . S
C2642 H2636 0.949 . S
C2642 C2646 1.368 . S
C2643 C2624 1.429 . S
C2643 C2637 1.429 . S
C2643 C2644 1.523 . S
C2644 C2625 1.368 . S
C2644 C2638 1.368 . S
C2644 C2643 1.523 . S
C2645 C2629 1.429 . S
C2645 C2641 1.429 . S
C2645 C2646 1.523 . S
C2646 C2630 1.368 . S
C2646 C2642 1.368 . S
C2646 C2645 1.523 . S
H2647 C2622 0.950 . S
H2648 C2624 0.950 . S
H2649 C2625 0.949 . S
H2650 C2627 0.950 . S
H2651 C2629 0.950 . S
C2652 C2653 1.349 . S
C2652 C2654 1.327 . S
C2652 H2677 0.950 . S
C2653 C2652 1.349 . S
C2653 C2669 1.349 . S
C2654 C2652 1.327 . S
C2654 C2673 1.429 . S
C2654 H2678 0.950 . S
C2655 C2672 1.574 . S
C2655 C2674 1.368 . S
C2655 H2679 0.949 . S
H2656 C2660 0.949 . S
C2657 C2658 1.349 . S
C2657 C2659 1.327 . S
C2657 H2680 0.950 . S
C2658 C2657 1.349 . S
C2658 C2670 1.349 . S
C2659 C2657 1.327 . S
C2659 C2675 1.429 . S
C2659 H2681 0.950 . S
C2660 H2656 0.949 . S
C2660 C2668 1.574 . S
C2660 C2676 1.368 . S
H2661 C2669 0.950 . S
H2662 C2667 0.950 . S
H2663 C2668 0.949 . S
H2664 C2670 0.950 . S
H2665 C2671 0.950 . S
H2666 C2672 0.949 . S
C2667 H2662 0.950 . S
C2667 C2669 1.327 . S
C2667 C2673 1.429 . S
C2668 C2660 1.574 . S
C2668 H2663 0.949 . S
C2668 C2674 1.368 . S
C2669 C2653 1.349 . S
C2669 H2661 0.950 . S
C2669 C2667 1.327 . S
C2670 C2658 1.349 . S
C2670 H2664 0.950 . S
C2670 C2671 1.327 . S
C2671 H2665 0.950 . S
C2671 C2670 1.327 . S
C2671 C2675 1.429 . S
C2672 C2655 1.574 . S
C2672 H2666 0.949 . S
C2672 C2676 1.368 . S
C2673 C2654 1.429 . S
C2673 C2667 1.429 . S
C2673 C2674 1.523 . S
C2674 C2655 1.368 . S
C2674 C2668 1.368 . S
C2674 C2673 1.523 . S
C2675 C2659 1.429 . S
C2675 C2671 1.429 . S
C2675 C2676 1.523 . S
C2676 C2660 1.368 . S
C2676 C2672 1.368 . S
C2676 C2675 1.523 . S
H2677 C2652 0.950 . S
H2678 C2654 0.950 . S
H2679 C2655 0.949 . S
H2680 C2657 0.950 . S
H2681 C2659 0.950 . S
C2682 C2683 1.349 . S
C2682 C2684 1.327 . S
C2682 H2707 0.950 . S
C2683 C2682 1.349 . S
C2683 C2699 1.349 . S
C2684 C2682 1.327 . S
C2684 C2703 1.429 . S
C2684 H2708 0.950 . S
C2685 C2702 1.574 . S
C2685 C2704 1.368 . S
C2685 H2709 0.949 . S
H2686 C2690 0.949 . S
C2687 C2688 1.349 . S
C2687 C2689 1.327 . S
C2687 H2710 0.950 . S
C2688 C2687 1.349 . S
C2688 C2700 1.349 . S
C2689 C2687 1.327 . S
C2689 C2705 1.429 . S
C2689 H2711 0.950 . S
C2690 H2686 0.949 . S
C2690 C2698 1.574 . S
C2690 C2706 1.368 . S
H2691 C2699 0.950 . S
H2692 C2697 0.950 . S
H2693 C2698 0.949 . S
H2694 C2700 0.950 . S
H2695 C2701 0.950 . S
H2696 C2702 0.949 . S
C2697 H2692 0.950 . S
C2697 C2699 1.327 . S
C2697 C2703 1.429 . S
C2698 C2690 1.574 . S
C2698 H2693 0.949 . S
C2698 C2704 1.368 . S
C2699 C2683 1.349 . S
C2699 H2691 0.950 . S
C2699 C2697 1.327 . S
C2700 C2688 1.349 . S
C2700 H2694 0.950 . S
C2700 C2701 1.327 . S
C2701 H2695 0.950 . S
C2701 C2700 1.327 . S
C2701 C2705 1.429 . S
C2702 C2685 1.574 . S
C2702 H2696 0.949 . S
C2702 C2706 1.368 . S
C2703 C2684 1.429 . S
C2703 C2697 1.429 . S
C2703 C2704 1.523 . S
C2704 C2685 1.368 . S
C2704 C2698 1.368 . S
C2704 C2703 1.523 . S
C2705 C2689 1.429 . S
C2705 C2701 1.429 . S
C2705 C2706 1.523 . S
C2706 C2690 1.368 . S
C2706 C2702 1.368 . S
C2706 C2705 1.523 . S
H2707 C2682 0.950 . S
H2708 C2684 0.950 . S
H2709 C2685 0.949 . S
H2710 C2687 0.950 . S
H2711 C2689 0.950 . S
C2712 C2713 1.349 . S
C2712 C2714 1.327 . S
C2712 H2737 0.950 . S
C2713 C2712 1.349 . S
C2713 C2729 1.349 . S
C2714 C2712 1.327 . S
C2714 C2733 1.429 . S
C2714 H2738 0.950 . S
C2715 C2732 1.574 . S
C2715 C2734 1.368 . S
C2715 H2739 0.949 . S
H2716 C2720 0.949 . S
C2717 C2718 1.349 . S
C2717 C2719 1.327 . S
C2717 H2740 0.950 . S
C2718 C2717 1.349 . S
C2718 C2730 1.349 . S
C2719 C2717 1.327 . S
C2719 C2735 1.429 . S
C2719 H2741 0.950 . S
C2720 H2716 0.949 . S
C2720 C2728 1.574 . S
C2720 C2736 1.368 . S
H2721 C2729 0.950 . S
H2722 C2727 0.950 . S
H2723 C2728 0.949 . S
H2724 C2730 0.950 . S
H2725 C2731 0.950 . S
H2726 C2732 0.949 . S
C2727 H2722 0.950 . S
C2727 C2729 1.327 . S
C2727 C2733 1.429 . S
C2728 C2720 1.574 . S
C2728 H2723 0.949 . S
C2728 C2734 1.368 . S
C2729 C2713 1.349 . S
C2729 H2721 0.950 . S
C2729 C2727 1.327 . S
C2730 C2718 1.349 . S
C2730 H2724 0.950 . S
C2730 C2731 1.327 . S
C2731 H2725 0.950 . S
C2731 C2730 1.327 . S
C2731 C2735 1.429 . S
C2732 C2715 1.574 . S
C2732 H2726 0.949 . S
C2732 C2736 1.368 . S
C2733 C2714 1.429 . S
C2733 C2727 1.429 . S
C2733 C2734 1.523 . S
C2734 C2715 1.368 . S
C2734 C2728 1.368 . S
C2734 C2733 1.523 . S
C2735 C2719 1.429 . S
C2735 C2731 1.429 . S
C2735 C2736 1.523 . S
C2736 C2720 1.368 . S
C2736 C2732 1.368 . S
C2736 C2735 1.523 . S
H2737 C2712 0.950 . S
H2738 C2714 0.950 . S
H2739 C2715 0.949 . S
H2740 C2717 0.950 . S
H2741 C2719 0.950 . S
C2742 C2743 1.349 . S
C2742 C2744 1.327 . S
C2742 H2767 0.950 . S
C2743 C2742 1.349 . S
C2743 C2759 1.349 . S
C2744 C2742 1.327 . S
C2744 C2763 1.429 . S
C2744 H2768 0.950 . S
C2745 C2762 1.574 . S
C2745 C2764 1.368 . S
C2745 H2769 0.949 . S
H2746 C2750 0.949 . S
C2747 C2748 1.349 . S
C2747 C2749 1.327 . S
C2747 H2770 0.950 . S
C2748 C2747 1.349 . S
C2748 C2760 1.349 . S
C2749 C2747 1.327 . S
C2749 C2765 1.429 . S
C2749 H2771 0.950 . S
C2750 H2746 0.949 . S
C2750 C2758 1.574 . S
C2750 C2766 1.368 . S
H2751 C2759 0.950 . S
H2752 C2757 0.950 . S
H2753 C2758 0.949 . S
H2754 C2760 0.950 . S
H2755 C2761 0.950 . S
H2756 C2762 0.949 . S
C2757 H2752 0.950 . S
C2757 C2759 1.327 . S
C2757 C2763 1.429 . S
C2758 C2750 1.574 . S
C2758 H2753 0.949 . S
C2758 C2764 1.368 . S
C2759 C2743 1.349 . S
C2759 H2751 0.950 . S
C2759 C2757 1.327 . S
C2760 C2748 1.349 . S
C2760 H2754 0.950 . S
C2760 C2761 1.327 . S
C2761 H2755 0.950 . S
C2761 C2760 1.327 . S
C2761 C2765 1.429 . S
C2762 C2745 1.574 . S
C2762 H2756 0.949 . S
C2762 C2766 1.368 . S
C2763 C2744 1.429 . S
C2763 C2757 1.429 . S
C2763 C2764 1.523 . S
C2764 C2745 1.368 . S
C2764 C2758 1.368 . S
C2764 C2763 1.523 . S
C2765 C2749 1.429 . S
C2765 C2761 1.429 . S
C2765 C2766 1.523 . S
C2766 C2750 1.368 . S
C2766 C2762 1.368 . S
C2766 C2765 1.523 . S
H2767 C2742 0.950 . S
H2768 C2744 0.950 . S
H2769 C2745 0.949 . S
H2770 C2747 0.950 . S
H2771 C2749 0.950 . S
C2772 C2773 1.349 . S
C2772 C2774 1.327 . S
C2772 H2797 0.950 . S
C2773 C2772 1.349 . S
C2773 C2789 1.349 . S
C2774 C2772 1.327 . S
C2774 C2793 1.429 . S
C2774 H2798 0.950 . S
C2775 C2792 1.574 . S
C2775 C2794 1.368 . S
C2775 H2799 0.949 . S
H2776 C2780 0.949 . S
C2777 C2778 1.349 . S
C2777 C2779 1.327 . S
C2777 H2800 0.950 . S
C2778 C2777 1.349 . S
C2778 C2790 1.349 . S
C2779 C2777 1.327 . S
C2779 C2795 1.429 . S
C2779 H2801 0.950 . S
C2780 H2776 0.949 . S
C2780 C2788 1.574 . S
C2780 C2796 1.368 . S
H2781 C2789 0.950 . S
H2782 C2787 0.950 . S
H2783 C2788 0.949 . S
H2784 C2790 0.950 . S
H2785 C2791 0.950 . S
H2786 C2792 0.949 . S
C2787 H2782 0.950 . S
C2787 C2789 1.327 . S
C2787 C2793 1.429 . S
C2788 C2780 1.574 . S
C2788 H2783 0.949 . S
C2788 C2794 1.368 . S
C2789 C2773 1.349 . S
C2789 H2781 0.950 . S
C2789 C2787 1.327 . S
C2790 C2778 1.349 . S
C2790 H2784 0.950 . S
C2790 C2791 1.327 . S
C2791 H2785 0.950 . S
C2791 C2790 1.327 . S
C2791 C2795 1.429 . S
C2792 C2775 1.574 . S
C2792 H2786 0.949 . S
C2792 C2796 1.368 . S
C2793 C2774 1.429 . S
C2793 C2787 1.429 . S
C2793 C2794 1.523 . S
C2794 C2775 1.368 . S
C2794 C2788 1.368 . S
C2794 C2793 1.523 . S
C2795 C2779 1.429 . S
C2795 C2791 1.429 . S
C2795 C2796 1.523 . S
C2796 C2780 1.368 . S
C2796 C2792 1.368 . S
C2796 C2795 1.523 . S
H2797 C2772 0.950 . S
H2798 C2774 0.950 . S
H2799 C2775 0.949 . S
H2800 C2777 0.950 . S
H2801 C2779 0.950 . S
C2802 C2803 1.349 . S
C2802 C2804 1.327 . S
C2802 H2827 0.950 . S
C2803 C2802 1.349 . S
C2803 C2819 1.349 . S
C2804 C2802 1.327 . S
C2804 C2823 1.429 . S
C2804 H2828 0.950 . S
C2805 C2822 1.574 . S
C2805 C2824 1.368 . S
C2805 H2829 0.949 . S
H2806 C2810 0.949 . S
C2807 C2808 1.349 . S
C2807 C2809 1.327 . S
C2807 H2830 0.950 . S
C2808 C2807 1.349 . S
C2808 C2820 1.349 . S
C2809 C2807 1.327 . S
C2809 C2825 1.429 . S
C2809 H2831 0.950 . S
C2810 H2806 0.949 . S
C2810 C2818 1.574 . S
C2810 C2826 1.368 . S
H2811 C2819 0.950 . S
H2812 C2817 0.950 . S
H2813 C2818 0.949 . S
H2814 C2820 0.950 . S
H2815 C2821 0.950 . S
H2816 C2822 0.949 . S
C2817 H2812 0.950 . S
C2817 C2819 1.327 . S
C2817 C2823 1.429 . S
C2818 C2810 1.574 . S
C2818 H2813 0.949 . S
C2818 C2824 1.368 . S
C2819 C2803 1.349 . S
C2819 H2811 0.950 . S
C2819 C2817 1.327 . S
C2820 C2808 1.349 . S
C2820 H2814 0.950 . S
C2820 C2821 1.327 . S
C2821 H2815 0.950 . S
C2821 C2820 1.327 . S
C2821 C2825 1.429 . S
C2822 C2805 1.574 . S
C2822 H2816 0.949 . S
C2822 C2826 1.368 . S
C2823 C2804 1.429 . S
C2823 C2817 1.429 . S
C2823 C2824 1.523 . S
C2824 C2805 1.368 . S
C2824 C2818 1.368 . S
C2824 C2823 1.523 . S
C2825 C2809 1.429 . S
C2825 C2821 1.429 . S
C2825 C2826 1.523 . S
C2826 C2810 1.368 . S
C2826 C2822 1.368 . S
C2826 C2825 1.523 . S
H2827 C2802 0.950 . S
H2828 C2804 0.950 . S
H2829 C2805 0.949 . S
H2830 C2807 0.950 . S
H2831 C2809 0.950 . S
C2832 C2833 1.349 . S
C2832 C2834 1.327 . S
C2832 H2857 0.950 . S
C2833 C2832 1.349 . S
C2833 C2849 1.349 . S
C2834 C2832 1.327 . S
C2834 C2853 1.429 . S
C2834 H2858 0.950 . S
C2835 C2852 1.574 . S
C2835 C2854 1.368 . S
C2835 H2859 0.949 . S
H2836 C2840 0.949 . S
C2837 C2838 1.349 . S
C2837 C2839 1.327 . S
C2837 H2860 0.950 . S
C2838 C2837 1.349 . S
C2838 C2850 1.349 . S
C2839 C2837 1.327 . S
C2839 C2855 1.429 . S
C2839 H2861 0.950 . S
C2840 H2836 0.949 . S
C2840 C2848 1.574 . S
C2840 C2856 1.368 . S
H2841 C2849 0.950 . S
H2842 C2847 0.950 . S
H2843 C2848 0.949 . S
H2844 C2850 0.950 . S
H2845 C2851 0.950 . S
H2846 C2852 0.949 . S
C2847 H2842 0.950 . S
C2847 C2849 1.327 . S
C2847 C2853 1.429 . S
C2848 C2840 1.574 . S
C2848 H2843 0.949 . S
C2848 C2854 1.368 . S
C2849 C2833 1.349 . S
C2849 H2841 0.950 . S
C2849 C2847 1.327 . S
C2850 C2838 1.349 . S
C2850 H2844 0.950 . S
C2850 C2851 1.327 . S
C2851 H2845 0.950 . S
C2851 C2850 1.327 . S
C2851 C2855 1.429 . S
C2852 C2835 1.574 . S
C2852 H2846 0.949 . S
C2852 C2856 1.368 . S
C2853 C2834 1.429 . S
C2853 C2847 1.429 . S
C2853 C2854 1.523 . S
C2854 C2835 1.368 . S
C2854 C2848 1.368 . S
C2854 C2853 1.523 . S
C2855 C2839 1.429 . S
C2855 C2851 1.429 . S
C2855 C2856 1.523 . S
C2856 C2840 1.368 . S
C2856 C2852 1.368 . S
C2856 C2855 1.523 . S
H2857 C2832 0.950 . S
H2858 C2834 0.950 . S
H2859 C2835 0.949 . S
H2860 C2837 0.950 . S
H2861 C2839 0.950 . S
C2862 C2863 1.349 . S
C2862 C2864 1.327 . S
C2862 H2887 0.950 . S
C2863 C2862 1.349 . S
C2863 C2879 1.349 . S
C2864 C2862 1.327 . S
C2864 C2883 1.429 . S
C2864 H2888 0.950 . S
C2865 C2882 1.574 . S
C2865 C2884 1.368 . S
C2865 H2889 0.949 . S
H2866 C2870 0.949 . S
C2867 C2868 1.349 . S
C2867 C2869 1.327 . S
C2867 H2890 0.950 . S
C2868 C2867 1.349 . S
C2868 C2880 1.349 . S
C2869 C2867 1.327 . S
C2869 C2885 1.429 . S
C2869 H2891 0.950 . S
C2870 H2866 0.949 . S
C2870 C2878 1.574 . S
C2870 C2886 1.368 . S
H2871 C2879 0.950 . S
H2872 C2877 0.950 . S
H2873 C2878 0.949 . S
H2874 C2880 0.950 . S
H2875 C2881 0.950 . S
H2876 C2882 0.949 . S
C2877 H2872 0.950 . S
C2877 C2879 1.327 . S
C2877 C2883 1.429 . S
C2878 C2870 1.574 . S
C2878 H2873 0.949 . S
C2878 C2884 1.368 . S
C2879 C2863 1.349 . S
C2879 H2871 0.950 . S
C2879 C2877 1.327 . S
C2880 C2868 1.349 . S
C2880 H2874 0.950 . S
C2880 C2881 1.327 . S
C2881 H2875 0.950 . S
C2881 C2880 1.327 . S
C2881 C2885 1.429 . S
C2882 C2865 1.574 . S
C2882 H2876 0.949 . S
C2882 C2886 1.368 . S
C2883 C2864 1.429 . S
C2883 C2877 1.429 . S
C2883 C2884 1.523 . S
C2884 C2865 1.368 . S
C2884 C2878 1.368 . S
C2884 C2883 1.523 . S
C2885 C2869 1.429 . S
C2885 C2881 1.429 . S
C2885 C2886 1.523 . S
C2886 C2870 1.368 . S
C2886 C2882 1.368 . S
C2886 C2885 1.523 . S
H2887 C2862 0.950 . S
H2888 C2864 0.950 . S
H2889 C2865 0.949 . S
H2890 C2867 0.950 . S
H2891 C2869 0.950 . S
C2892 C2893 1.349 . S
C2892 C2894 1.327 . S
C2892 H2917 0.950 . S
C2893 C2892 1.349 . S
C2893 C2909 1.349 . S
C2894 C2892 1.327 . S
C2894 C2913 1.429 . S
C2894 H2918 0.950 . S
C2895 C2912 1.574 . S
C2895 C2914 1.368 . S
C2895 H2919 0.949 . S
H2896 C2900 0.949 . S
C2897 C2898 1.349 . S
C2897 C2899 1.327 . S
C2897 H2920 0.950 . S
C2898 C2897 1.349 . S
C2898 C2910 1.349 . S
C2899 C2897 1.327 . S
C2899 C2915 1.429 . S
C2899 H2921 0.950 . S
C2900 H2896 0.949 . S
C2900 C2908 1.574 . S
C2900 C2916 1.368 . S
H2901 C2909 0.950 . S
H2902 C2907 0.950 . S
H2903 C2908 0.949 . S
H2904 C2910 0.950 . S
H2905 C2911 0.950 . S
H2906 C2912 0.949 . S
C2907 H2902 0.950 . S
C2907 C2909 1.327 . S
C2907 C2913 1.429 . S
C2908 C2900 1.574 . S
C2908 H2903 0.949 . S
C2908 C2914 1.368 . S
C2909 C2893 1.349 . S
C2909 H2901 0.950 . S
C2909 C2907 1.327 . S
C2910 C2898 1.349 . S
C2910 H2904 0.950 . S
C2910 C2911 1.327 . S
C2911 H2905 0.950 . S
C2911 C2910 1.327 . S
C2911 C2915 1.429 . S
C2912 C2895 1.574 . S
C2912 H2906 0.949 . S
C2912 C2916 1.368 . S
C2913 C2894 1.429 . S
C2913 C2907 1.429 . S
C2913 C2914 1.523 . S
C2914 C2895 1.368 . S
C2914 C2908 1.368 . S
C2914 C2913 1.523 . S
C2915 C2899 1.429 . S
C2915 C2911 1.429 . S
C2915 C2916 1.523 . S
C2916 C2900 1.368 . S
C2916 C2912 1.368 . S
C2916 C2915 1.523 . S
H2917 C2892 0.950 . S
H2918 C2894 0.950 . S
H2919 C2895 0.949 . S
H2920 C2897 0.950 . S
H2921 C2899 0.950 . S
C2922 C2923 1.349 . S
C2922 C2924 1.327 . S
C2922 H2947 0.950 . S
C2923 C2922 1.349 . S
C2923 C2939 1.349 . S
C2924 C2922 1.327 . S
C2924 C2943 1.429 . S
C2924 H2948 0.950 . S
C2925 C2942 1.574 . S
C2925 C2944 1.368 . S
C2925 H2949 0.949 . S
H2926 C2930 0.949 . S
C2927 C2928 1.349 . S
C2927 C2929 1.327 . S
C2927 H2950 0.950 . S
C2928 C2927 1.349 . S
C2928 C2940 1.349 . S
C2929 C2927 1.327 . S
C2929 C2945 1.429 . S
C2929 H2951 0.950 . S
C2930 H2926 0.949 . S
C2930 C2938 1.574 . S
C2930 C2946 1.368 . S
H2931 C2939 0.950 . S
H2932 C2937 0.950 . S
H2933 C2938 0.949 . S
H2934 C2940 0.950 . S
H2935 C2941 0.950 . S
H2936 C2942 0.949 . S
C2937 H2932 0.950 . S
C2937 C2939 1.327 . S
C2937 C2943 1.429 . S
C2938 C2930 1.574 . S
C2938 H2933 0.949 . S
C2938 C2944 1.368 . S
C2939 C2923 1.349 . S
C2939 H2931 0.950 . S
C2939 C2937 1.327 . S
C2940 C2928 1.349 . S
C2940 H2934 0.950 . S
C2940 C2941 1.327 . S
C2941 H2935 0.950 . S
C2941 C2940 1.327 . S
C2941 C2945 1.429 . S
C2942 C2925 1.574 . S
C2942 H2936 0.949 . S
C2942 C2946 1.368 . S
C2943 C2924 1.429 . S
C2943 C2937 1.429 . S
C2943 C2944 1.523 . S
C2944 C2925 1.368 . S
C2944 C2938 1.368 . S
C2944 C2943 1.523 . S
C2945 C2929 1.429 . S
C2945 C2941 1.429 . S
C2945 C2946 1.523 . S
C2946 C2930 1.368 . S
C2946 C2942 1.368 . S
C2946 C2945 1.523 . S
H2947 C2922 0.950 . S
H2948 C2924 0.950 . S
H2949 C2925 0.949 . S
H2950 C2927 0.950 . S
H2951 C2929 0.950 . S
C2952 C2953 1.349 . S
C2952 C2954 1.327 . S
C2952 H2977 0.950 . S
C2953 C2952 1.349 . S
C2953 C2969 1.349 . S
C2954 C2952 1.327 . S
C2954 C2973 1.429 . S
C2954 H2978 0.950 . S
C2955 C2972 1.574 . S
C2955 C2974 1.368 . S
C2955 H2979 0.949 . S
H2956 C2960 0.949 . S
C2957 C2958 1.349 . S
C2957 C2959 1.327 . S
C2957 H2980 0.950 . S
C2958 C2957 1.349 . S
C2958 C2970 1.349 . S
C2959 C2957 1.327 . S
C2959 C2975 1.429 . S
C2959 H2981 0.950 . S
C2960 H2956 0.949 . S
C2960 C2968 1.574 . S
C2960 C2976 1.368 . S
H2961 C2969 0.950 . S
H2962 C2967 0.950 . S
H2963 C2968 0.949 . S
H2964 C2970 0.950 . S
H2965 C2971 0.950 . S
H2966 C2972 0.949 . S
C2967 H2962 0.950 . S
C2967 C2969 1.327 . S
C2967 C2973 1.429 . S
C2968 C2960 1.574 . S
C2968 H2963 0.949 . S
C2968 C2974 1.368 . S
C2969 C2953 1.349 . S
C2969 H2961 0.950 . S
C2969 C2967 1.327 . S
C2970 C2958 1.349 . S
C2970 H2964 0.950 . S
C2970 C2971 1.327 . S
C2971 H2965 0.950 . S
C2971 C2970 1.327 . S
C2971 C2975 1.429 . S
C2972 C2955 1.574 . S
C2972 H2966 0.949 . S
C2972 C2976 1.368 . S
C2973 C2954 1.429 . S
C2973 C2967 1.429 . S
C2973 C2974 1.523 . S
C2974 C2955 1.368 . S
C2974 C2968 1.368 . S
C2974 C2973 1.523 . S
C2975 C2959 1.429 . S
C2975 C2971 1.429 . S
C2975 C2976 1.523 . S
C2976 C2960 1.368 . S
C2976 C2972 1.368 . S
C2976 C2975 1.523 . S
H2977 C2952 0.950 . S
H2978 C2954 0.950 . S
H2979 C2955 0.949 . S
H2980 C2957 0.950 . S
H2981 C2959 0.950 . S
C2982 C2983 1.349 . S
C2982 C2984 1.327 . S
C2982 H3007 0.950 . S
C2983 C2982 1.349 . S
C2983 C2999 1.349 . S
C2984 C2982 1.327 . S
C2984 C3003 1.429 . S
C2984 H3008 0.950 . S
C2985 C3002 1.574 . S
C2985 C3004 1.368 . S
C2985 H3009 0.949 . S
H2986 C2990 0.949 . S
C2987 C2988 1.349 . S
C2987 C2989 1.327 . S
C2987 H3010 0.950 . S
C2988 C2987 1.349 . S
C2988 C3000 1.349 . S
C2989 C2987 1.327 . S
C2989 C3005 1.429 . S
C2989 H3011 0.950 . S
C2990 H2986 0.949 . S
C2990 C2998 1.574 . S
C2990 C3006 1.368 . S
H2991 C2999 0.950 . S
H2992 C2997 0.950 . S
H2993 C2998 0.949 . S
H2994 C3000 0.950 . S
H2995 C3001 0.950 . S
H2996 C3002 0.949 . S
C2997 H2992 0.950 . S
C2997 C2999 1.327 . S
C2997 C3003 1.429 . S
C2998 C2990 1.574 . S
C2998 H2993 0.949 . S
C2998 C3004 1.368 . S
C2999 C2983 1.349 . S
C2999 H2991 0.950 . S
C2999 C2997 1.327 . S
C3000 C2988 1.349 . S
C3000 H2994 0.950 . S
C3000 C3001 1.327 . S
C3001 H2995 0.950 . S
C3001 C3000 1.327 . S
C3001 C3005 1.429 . S
C3002 C2985 1.574 . S
C3002 H2996 0.949 . S
C3002 C3006 1.368 . S
C3003 C2984 1.429 . S
C3003 C2997 1.429 . S
C3003 C3004 1.523 . S
C3004 C2985 1.368 . S
C3004 C2998 1.368 . S
C3004 C3003 1.523 . S
C3005 C2989 1.429 . S
C3005 C3001 1.429 . S
C3005 C3006 1.523 . S
C3006 C2990 1.368 . S
C3006 C3002 1.368 . S
C3006 C3005 1.523 . S
H3007 C2982 0.950 . S
H3008 C2984 0.950 . S
H3009 C2985 0.949 . S
H3010 C2987 0.950 . S
H3011 C2989 0.950 . S
C3012 C3013 1.349 . S
C3012 C3014 1.327 . S
C3012 H3037 0.950 . S
C3013 C3012 1.349 . S
C3013 C3029 1.349 . S
C3014 C3012 1.327 . S
C3014 C3033 1.429 . S
C3014 H3038 0.950 . S
C3015 C3032 1.574 . S
C3015 C3034 1.368 . S
C3015 H3039 0.949 . S
H3016 C3020 0.949 . S
C3017 C3018 1.349 . S
C3017 C3019 1.327 . S
C3017 H3040 0.950 . S
C3018 C3017 1.349 . S
C3018 C3030 1.349 . S
C3019 C3017 1.327 . S
C3019 C3035 1.429 . S
C3019 H3041 0.950 . S
C3020 H3016 0.949 . S
C3020 C3028 1.574 . S
C3020 C3036 1.368 . S
H3021 C3029 0.950 . S
H3022 C3027 0.950 . S
H3023 C3028 0.949 . S
H3024 C3030 0.950 . S
H3025 C3031 0.950 . S
H3026 C3032 0.949 . S
C3027 H3022 0.950 . S
C3027 C3029 1.327 . S
C3027 C3033 1.429 . S
C3028 C3020 1.574 . S
C3028 H3023 0.949 . S
C3028 C3034 1.368 . S
C3029 C3013 1.349 . S
C3029 H3021 0.950 . S
C3029 C3027 1.327 . S
C3030 C3018 1.349 . S
C3030 H3024 0.950 . S
C3030 C3031 1.327 . S
C3031 H3025 0.950 . S
C3031 C3030 1.327 . S
C3031 C3035 1.429 . S
C3032 C3015 1.574 . S
C3032 H3026 0.949 . S
C3032 C3036 1.368 . S
C3033 C3014 1.429 . S
C3033 C3027 1.429 . S
C3033 C3034 1.523 . S
C3034 C3015 1.368 . S
C3034 C3028 1.368 . S
C3034 C3033 1.523 . S
C3035 C3019 1.429 . S
C3035 C3031 1.429 . S
C3035 C3036 1.523 . S
C3036 C3020 1.368 . S
C3036 C3032 1.368 . S
C3036 C3035 1.523 . S
H3037 C3012 0.950 . S
H3038 C3014 0.950 . S
H3039 C3015 0.949 . S
H3040 C3017 0.950 . S
H3041 C3019 0.950 . S
C3042 C3043 1.349 . S
C3042 C3044 1.327 . S
C3042 H3067 0.950 . S
C3043 C3042 1.349 . S
C3043 C3059 1.349 . S
C3044 C3042 1.327 . S
C3044 C3063 1.429 . S
C3044 H3068 0.950 . S
C3045 C3062 1.574 . S
C3045 C3064 1.368 . S
C3045 H3069 0.949 . S
H3046 C3050 0.949 . S
C3047 C3048 1.349 . S
C3047 C3049 1.327 . S
C3047 H3070 0.950 . S
C3048 C3047 1.349 . S
C3048 C3060 1.349 . S
C3049 C3047 1.327 . S
C3049 C3065 1.429 . S
C3049 H3071 0.950 . S
C3050 H3046 0.949 . S
C3050 C3058 1.574 . S
C3050 C3066 1.368 . S
H3051 C3059 0.950 . S
H3052 C3057 0.950 . S
H3053 C3058 0.949 . S
H3054 C3060 0.950 . S
H3055 C3061 0.950 . S
H3056 C3062 0.949 . S
C3057 H3052 0.950 . S
C3057 C3059 1.327 . S
C3057 C3063 1.429 . S
C3058 C3050 1.574 . S
C3058 H3053 0.949 . S
C3058 C3064 1.368 . S
C3059 C3043 1.349 . S
C3059 H3051 0.950 . S
C3059 C3057 1.327 . S
C3060 C3048 1.349 . S
C3060 H3054 0.950 . S
C3060 C3061 1.327 . S
C3061 H3055 0.950 . S
C3061 C3060 1.327 . S
C3061 C3065 1.429 . S
C3062 C3045 1.574 . S
C3062 H3056 0.949 . S
C3062 C3066 1.368 . S
C3063 C3044 1.429 . S
C3063 C3057 1.429 . S
C3063 C3064 1.523 . S
C3064 C3045 1.368 . S
C3064 C3058 1.368 . S
C3064 C3063 1.523 . S
C3065 C3049 1.429 . S
C3065 C3061 1.429 . S
C3065 C3066 1.523 . S
C3066 C3050 1.368 . S
C3066 C3062 1.368 . S
C3066 C3065 1.523 . S
H3067 C3042 0.950 . S
H3068 C3044 0.950 . S
H3069 C3045 0.949 . S
H3070 C3047 0.950 . S
H3071 C3049 0.950 . S
C3072 C3073 1.349 . S
C3072 C3074 1.327 . S
C3072 H3097 0.950 . S
C3073 C3072 1.349 . S
C3073 C3089 1.349 . S
C3074 C3072 1.327 . S
C3074 C3093 1.429 . S
C3074 H3098 0.950 . S
C3075 C3092 1.574 . S
C3075 C3094 1.368 . S
C3075 H3099 0.949 . S
H3076 C3080 0.949 . S
C3077 C3078 1.349 . S
C3077 C3079 1.327 . S
C3077 H3100 0.950 . S
C3078 C3077 1.349 . S
C3078 C3090 1.349 . S
C3079 C3077 1.327 . S
C3079 C3095 1.429 . S
C3079 H3101 0.950 . S
C3080 H3076 0.949 . S
C3080 C3088 1.574 . S
C3080 C3096 1.368 . S
H3081 C3089 0.950 . S
H3082 C3087 0.950 . S
H3083 C3088 0.949 . S
H3084 C3090 0.950 . S
H3085 C3091 0.950 . S
H3086 C3092 0.949 . S
C3087 H3082 0.950 . S
C3087 C3089 1.327 . S
C3087 C3093 1.429 . S
C3088 C3080 1.574 . S
C3088 H3083 0.949 . S
C3088 C3094 1.368 . S
C3089 C3073 1.349 . S
C3089 H3081 0.950 . S
C3089 C3087 1.327 . S
C3090 C3078 1.349 . S
C3090 H3084 0.950 . S
C3090 C3091 1.327 . S
C3091 H3085 0.950 . S
C3091 C3090 1.327 . S
C3091 C3095 1.429 . S
C3092 C3075 1.574 . S
C3092 H3086 0.949 . S
C3092 C3096 1.368 . S
C3093 C3074 1.429 . S
C3093 C3087 1.429 . S
C3093 C3094 1.523 . S
C3094 C3075 1.368 . S
C3094 C3088 1.368 . S
C3094 C3093 1.523 . S
C3095 C3079 1.429 . S
C3095 C3091 1.429 . S
C3095 C3096 1.523 . S
C3096 C3080 1.368 . S
C3096 C3092 1.368 . S
C3096 C3095 1.523 . S
H3097 C3072 0.950 . S
H3098 C3074 0.950 . S
H3099 C3075 0.949 . S
H3100 C3077 0.950 . S
H3101 C3079 0.950 . S
C3102 C3103 1.349 . S
C3102 C3104 1.327 . S
C3102 H3127 0.950 . S
C3103 C3102 1.349 . S
C3103 C3119 1.349 . S
C3104 C3102 1.327 . S
C3104 C3123 1.429 . S
C3104 H3128 0.950 . S
C3105 C3122 1.574 . S
C3105 C3124 1.368 . S
C3105 H3129 0.949 . S
H3106 C3110 0.949 . S
C3107 C3108 1.349 . S
C3107 C3109 1.327 . S
C3107 H3130 0.950 . S
C3108 C3107 1.349 . S
C3108 C3120 1.349 . S
C3109 C3107 1.327 . S
C3109 C3125 1.429 . S
C3109 H3131 0.950 . S
C3110 H3106 0.949 . S
C3110 C3118 1.574 . S
C3110 C3126 1.368 . S
H3111 C3119 0.950 . S
H3112 C3117 0.950 . S
H3113 C3118 0.949 . S
H3114 C3120 0.950 . S
H3115 C3121 0.950 . S
H3116 C3122 0.949 . S
C3117 H3112 0.950 . S
C3117 C3119 1.327 . S
C3117 C3123 1.429 . S
C3118 C3110 1.574 . S
C3118 H3113 0.949 . S
C3118 C3124 1.368 . S
C3119 C3103 1.349 . S
C3119 H3111 0.950 . S
C3119 C3117 1.327 . S
C3120 C3108 1.349 . S
C3120 H3114 0.950 . S
C3120 C3121 1.327 . S
C3121 H3115 0.950 . S
C3121 C3120 1.327 . S
C3121 C3125 1.429 . S
C3122 C3105 1.574 . S
C3122 H3116 0.949 . S
C3122 C3126 1.368 . S
C3123 C3104 1.429 . S
C3123 C3117 1.429 . S
C3123 C3124 1.523 . S
C3124 C3105 1.368 . S
C3124 C3118 1.368 . S
C3124 C3123 1.523 . S
C3125 C3109 1.429 . S
C3125 C3121 1.429 . S
C3125 C3126 1.523 . S
C3126 C3110 1.368 . S
C3126 C3122 1.368 . S
C3126 C3125 1.523 . S
H3127 C3102 0.950 . S
H3128 C3104 0.950 . S
H3129 C3105 0.949 . S
H3130 C3107 0.950 . S
H3131 C3109 0.950 . S
C3132 C3133 1.349 . S
C3132 C3134 1.327 . S
C3132 H3157 0.950 . S
C3133 C3132 1.349 . S
C3133 C3149 1.349 . S
C3134 C3132 1.327 . S
C3134 C3153 1.429 . S
C3134 H3158 0.950 . S
C3135 C3152 1.574 . S
C3135 C3154 1.368 . S
C3135 H3159 0.949 . S
H3136 C3140 0.949 . S
C3137 C3138 1.349 . S
C3137 C3139 1.327 . S
C3137 H3160 0.950 . S
C3138 C3137 1.349 . S
C3138 C3150 1.349 . S
C3139 C3137 1.327 . S
C3139 C3155 1.429 . S
C3139 H3161 0.950 . S
C3140 H3136 0.949 . S
C3140 C3148 1.574 . S
C3140 C3156 1.368 . S
H3141 C3149 0.950 . S
H3142 C3147 0.950 . S
H3143 C3148 0.949 . S
H3144 C3150 0.950 . S
H3145 C3151 0.950 . S
H3146 C3152 0.949 . S
C3147 H3142 0.950 . S
C3147 C3149 1.327 . S
C3147 C3153 1.429 . S
C3148 C3140 1.574 . S
C3148 H3143 0.949 . S
C3148 C3154 1.368 . S
C3149 C3133 1.349 . S
C3149 H3141 0.950 . S
C3149 C3147 1.327 . S
C3150 C3138 1.349 . S
C3150 H3144 0.950 . S
C3150 C3151 1.327 . S
C3151 H3145 0.950 . S
C3151 C3150 1.327 . S
C3151 C3155 1.429 . S
C3152 C3135 1.574 . S
C3152 H3146 0.949 . S
C3152 C3156 1.368 . S
C3153 C3134 1.429 . S
C3153 C3147 1.429 . S
C3153 C3154 1.523 . S
C3154 C3135 1.368 . S
C3154 C3148 1.368 . S
C3154 C3153 1.523 . S
C3155 C3139 1.429 . S
C3155 C3151 1.429 . S
C3155 C3156 1.523 . S
C3156 C3140 1.368 . S
C3156 C3152 1.368 . S
C3156 C3155 1.523 . S
H3157 C3132 0.950 . S
H3158 C3134 0.950 . S
H3159 C3135 0.949 . S
H3160 C3137 0.950 . S
H3161 C3139 0.950 . S
C3162 C3163 1.349 . S
C3162 C3164 1.327 . S
C3162 H3187 0.950 . S
C3163 C3162 1.349 . S
C3163 C3179 1.349 . S
C3164 C3162 1.327 . S
C3164 C3183 1.429 . S
C3164 H3188 0.950 . S
C3165 C3182 1.574 . S
C3165 C3184 1.368 . S
C3165 H3189 0.949 . S
H3166 C3170 0.949 . S
C3167 C3168 1.349 . S
C3167 C3169 1.327 . S
C3167 H3190 0.950 . S
C3168 C3167 1.349 . S
C3168 C3180 1.349 . S
C3169 C3167 1.327 . S
C3169 C3185 1.429 . S
C3169 H3191 0.950 . S
C3170 H3166 0.949 . S
C3170 C3178 1.574 . S
C3170 C3186 1.368 . S
H3171 C3179 0.950 . S
H3172 C3177 0.950 . S
H3173 C3178 0.949 . S
H3174 C3180 0.950 . S
H3175 C3181 0.950 . S
H3176 C3182 0.949 . S
C3177 H3172 0.950 . S
C3177 C3179 1.327 . S
C3177 C3183 1.429 . S
C3178 C3170 1.574 . S
C3178 H3173 0.949 . S
C3178 C3184 1.368 . S
C3179 C3163 1.349 . S
C3179 H3171 0.950 . S
C3179 C3177 1.327 . S
C3180 C3168 1.349 . S
C3180 H3174 0.950 . S
C3180 C3181 1.327 . S
C3181 H3175 0.950 . S
C3181 C3180 1.327 . S
C3181 C3185 1.429 . S
C3182 C3165 1.574 . S
C3182 H3176 0.949 . S
C3182 C3186 1.368 . S
C3183 C3164 1.429 . S
C3183 C3177 1.429 . S
C3183 C3184 1.523 . S
C3184 C3165 1.368 . S
C3184 C3178 1.368 . S
C3184 C3183 1.523 . S
C3185 C3169 1.429 . S
C3185 C3181 1.429 . S
C3185 C3186 1.523 . S
C3186 C3170 1.368 . S
C3186 C3182 1.368 . S
C3186 C3185 1.523 . S
H3187 C3162 0.950 . S
H3188 C3164 0.950 . S
H3189 C3165 0.949 . S
H3190 C3167 0.950 . S
H3191 C3169 0.950 . S
C3192 C3193 1.349 . S
C3192 C3194 1.327 . S
C3192 H3217 0.950 . S
C3193 C3192 1.349 . S
C3193 C3209 1.349 . S
C3194 C3192 1.327 . S
C3194 C3213 1.429 . S
C3194 H3218 0.950 . S
C3195 C3212 1.574 . S
C3195 C3214 1.368 . S
C3195 H3219 0.949 . S
H3196 C3200 0.949 . S
C3197 C3198 1.349 . S
C3197 C3199 1.327 . S
C3197 H3220 0.950 . S
C3198 C3197 1.349 . S
C3198 C3210 1.349 . S
C3199 C3197 1.327 . S
C3199 C3215 1.429 . S
C3199 H3221 0.950 . S
C3200 H3196 0.949 . S
C3200 C3208 1.574 . S
C3200 C3216 1.368 . S
H3201 C3209 0.950 . S
H3202 C3207 0.950 . S
H3203 C3208 0.949 . S
H3204 C3210 0.950 . S
H3205 C3211 0.950 . S
H3206 C3212 0.949 . S
C3207 H3202 0.950 . S
C3207 C3209 1.327 . S
C3207 C3213 1.429 . S
C3208 C3200 1.574 . S
C3208 H3203 0.949 . S
C3208 C3214 1.368 . S
C3209 C3193 1.349 . S
C3209 H3201 0.950 . S
C3209 C3207 1.327 . S
C3210 C3198 1.349 . S
C3210 H3204 0.950 . S
C3210 C3211 1.327 . S
C3211 H3205 0.950 . S
C3211 C3210 1.327 . S
C3211 C3215 1.429 . S
C3212 C3195 1.574 . S
C3212 H3206 0.949 . S
C3212 C3216 1.368 . S
C3213 C3194 1.429 . S
C3213 C3207 1.429 . S
C3213 C3214 1.523 . S
C3214 C3195 1.368 . S
C3214 C3208 1.368 . S
C3214 C3213 1.523 . S
C3215 C3199 1.429 . S
C3215 C3211 1.429 . S
C3215 C3216 1.523 . S
C3216 C3200 1.368 . S
C3216 C3212 1.368 . S
C3216 C3215 1.523 . S
H3217 C3192 0.950 . S
H3218 C3194 0.950 . S
H3219 C3195 0.949 . S
H3220 C3197 0.950 . S
H3221 C3199 0.950 . S
C3222 C3223 1.349 . S
C3222 C3224 1.327 . S
C3222 H3247 0.950 . S
C3223 C3222 1.349 . S
C3223 C3239 1.349 . S
C3224 C3222 1.327 . S
C3224 C3243 1.429 . S
C3224 H3248 0.950 . S
C3225 C3242 1.574 . S
C3225 C3244 1.368 . S
C3225 H3249 0.949 . S
H3226 C3230 0.949 . S
C3227 C3228 1.349 . S
C3227 C3229 1.327 . S
C3227 H3250 0.950 . S
C3228 C3227 1.349 . S
C3228 C3240 1.349 . S
C3229 C3227 1.327 . S
C3229 C3245 1.429 . S
C3229 H3251 0.950 . S
C3230 H3226 0.949 . S
C3230 C3238 1.574 . S
C3230 C3246 1.368 . S
H3231 C3239 0.950 . S
H3232 C3237 0.950 . S
H3233 C3238 0.949 . S
H3234 C3240 0.950 . S
H3235 C3241 0.950 . S
H3236 C3242 0.949 . S
C3237 H3232 0.950 . S
C3237 C3239 1.327 . S
C3237 C3243 1.429 . S
C3238 C3230 1.574 . S
C3238 H3233 0.949 . S
C3238 C3244 1.368 . S
C3239 C3223 1.349 . S
C3239 H3231 0.950 . S
C3239 C3237 1.327 . S
C3240 C3228 1.349 . S
C3240 H3234 0.950 . S
C3240 C3241 1.327 . S
C3241 H3235 0.950 . S
C3241 C3240 1.327 . S
C3241 C3245 1.429 . S
C3242 C3225 1.574 . S
C3242 H3236 0.949 . S
C3242 C3246 1.368 . S
C3243 C3224 1.429 . S
C3243 C3237 1.429 . S
C3243 C3244 1.523 . S
C3244 C3225 1.368 . S
C3244 C3238 1.368 . S
C3244 C3243 1.523 . S
C3245 C3229 1.429 . S
C3245 C3241 1.429 . S
C3245 C3246 1.523 . S
C3246 C3230 1.368 . S
C3246 C3242 1.368 . S
C3246 C3245 1.523 . S
H3247 C3222 0.950 . S
H3248 C3224 0.950 . S
H3249 C3225 0.949 . S
H3250 C3227 0.950 . S
H3251 C3229 0.950 . S
C3252 C3253 1.349 . S
C3252 C3254 1.327 . S
C3252 H3277 0.950 . S
C3253 C3252 1.349 . S
C3253 C3269 1.349 . S
C3254 C3252 1.327 . S
C3254 C3273 1.429 . S
C3254 H3278 0.950 . S
C3255 C3272 1.574 . S
C3255 C3274 1.368 . S
C3255 H3279 0.949 . S
H3256 C3260 0.949 . S
C3257 C3258 1.349 . S
C3257 C3259 1.327 . S
C3257 H3280 0.950 . S
C3258 C3257 1.349 . S
C3258 C3270 1.349 . S
C3259 C3257 1.327 . S
C3259 C3275 1.429 . S
C3259 H3281 0.950 . S
C3260 H3256 0.949 . S
C3260 C3268 1.574 . S
C3260 C3276 1.368 . S
H3261 C3269 0.950 . S
H3262 C3267 0.950 . S
H3263 C3268 0.949 . S
H3264 C3270 0.950 . S
H3265 C3271 0.950 . S
H3266 C3272 0.949 . S
C3267 H3262 0.950 . S
C3267 C3269 1.327 . S
C3267 C3273 1.429 . S
C3268 C3260 1.574 . S
C3268 H3263 0.949 . S
C3268 C3274 1.368 . S
C3269 C3253 1.349 . S
C3269 H3261 0.950 . S
C3269 C3267 1.327 . S
C3270 C3258 1.349 . S
C3270 H3264 0.950 . S
C3270 C3271 1.327 . S
C3271 H3265 0.950 . S
C3271 C3270 1.327 . S
C3271 C3275 1.429 . S
C3272 C3255 1.574 . S
C3272 H3266 0.949 . S
C3272 C3276 1.368 . S
C3273 C3254 1.429 . S
C3273 C3267 1.429 . S
C3273 C3274 1.523 . S
C3274 C3255 1.368 . S
C3274 C3268 1.368 . S
C3274 C3273 1.523 . S
C3275 C3259 1.429 . S
C3275 C3271 1.429 . S
C3275 C3276 1.523 . S
C3276 C3260 1.368 . S
C3276 C3272 1.368 . S
C3276 C3275 1.523 . S
H3277 C3252 0.950 . S
H3278 C3254 0.950 . S
H3279 C3255 0.949 . S
H3280 C3257 0.950 . S
H3281 C3259 0.950 . S
C3282 C3283 1.349 . S
C3282 C3284 1.327 . S
C3282 H3307 0.950 . S
C3283 C3282 1.349 . S
C3283 C3299 1.349 . S
C3284 C3282 1.327 . S
C3284 C3303 1.429 . S
C3284 H3308 0.950 . S
C3285 C3302 1.574 . S
C3285 C3304 1.368 . S
C3285 H3309 0.949 . S
H3286 C3290 0.949 . S
C3287 C3288 1.349 . S
C3287 C3289 1.327 . S
C3287 H3310 0.950 . S
C3288 C3287 1.349 . S
C3288 C3300 1.349 . S
C3289 C3287 1.327 . S
C3289 C3305 1.429 . S
C3289 H3311 0.950 . S
C3290 H3286 0.949 . S
C3290 C3298 1.574 . S
C3290 C3306 1.368 . S
H3291 C3299 0.950 . S
H3292 C3297 0.950 . S
H3293 C3298 0.949 . S
H3294 C3300 0.950 . S
H3295 C3301 0.950 . S
H3296 C3302 0.949 . S
C3297 H3292 0.950 . S
C3297 C3299 1.327 . S
C3297 C3303 1.429 . S
C3298 C3290 1.574 . S
C3298 H3293 0.949 . S
C3298 C3304 1.368 . S
C3299 C3283 1.349 . S
C3299 H3291 0.950 . S
C3299 C3297 1.327 . S
C3300 C3288 1.349 . S
C3300 H3294 0.950 . S
C3300 C3301 1.327 . S
C3301 H3295 0.950 . S
C3301 C3300 1.327 . S
C3301 C3305 1.429 . S
C3302 C3285 1.574 . S
C3302 H3296 0.949 . S
C3302 C3306 1.368 . S
C3303 C3284 1.429 . S
C3303 C3297 1.429 . S
C3303 C3304 1.523 . S
C3304 C3285 1.368 . S
C3304 C3298 1.368 . S
C3304 C3303 1.523 . S
C3305 C3289 1.429 . S
C3305 C3301 1.429 . S
C3305 C3306 1.523 . S
C3306 C3290 1.368 . S
C3306 C3302 1.368 . S
C3306 C3305 1.523 . S
H3307 C3282 0.950 . S
H3308 C3284 0.950 . S
H3309 C3285 0.949 . S
H3310 C3287 0.950 . S
H3311 C3289 0.950 . S
C3312 C3313 1.349 . S
C3312 C3314 1.327 . S
C3312 H3337 0.950 . S
C3313 C3312 1.349 . S
C3313 C3329 1.349 . S
C3314 C3312 1.327 . S
C3314 C3333 1.429 . S
C3314 H3338 0.950 . S
C3315 C3332 1.574 . S
C3315 C3334 1.368 . S
C3315 H3339 0.949 . S
H3316 C3320 0.949 . S
C3317 C3318 1.349 . S
C3317 C3319 1.327 . S
C3317 H3340 0.950 . S
C3318 C3317 1.349 . S
C3318 C3330 1.349 . S
C3319 C3317 1.327 . S
C3319 C3335 1.429 . S
C3319 H3341 0.950 . S
C3320 H3316 0.949 . S
C3320 C3328 1.574 . S
C3320 C3336 1.368 . S
H3321 C3329 0.950 . S
H3322 C3327 0.950 . S
H3323 C3328 0.949 . S
H3324 C3330 0.950 . S
H3325 C3331 0.950 . S
H3326 C3332 0.949 . S
C3327 H3322 0.950 . S
C3327 C3329 1.327 . S
C3327 C3333 1.429 . S
C3328 C3320 1.574 . S
C3328 H3323 0.949 . S
C3328 C3334 1.368 . S
C3329 C3313 1.349 . S
C3329 H3321 0.950 . S
C3329 C3327 1.327 . S
C3330 C3318 1.349 . S
C3330 H3324 0.950 . S
C3330 C3331 1.327 . S
C3331 H3325 0.950 . S
C3331 C3330 1.327 . S
C3331 C3335 1.429 . S
C3332 C3315 1.574 . S
C3332 H3326 0.949 . S
C3332 C3336 1.368 . S
C3333 C3314 1.429 . S
C3333 C3327 1.429 . S
C3333 C3334 1.523 . S
C3334 C3315 1.368 . S
C3334 C3328 1.368 . S
C3334 C3333 1.523 . S
C3335 C3319 1.429 . S
C3335 C3331 1.429 . S
C3335 C3336 1.523 . S
C3336 C3320 1.368 . S
C3336 C3332 1.368 . S
C3336 C3335 1.523 . S
H3337 C3312 0.950 . S
H3338 C3314 0.950 . S
H3339 C3315 0.949 . S
H3340 C3317 0.950 . S
H3341 C3319 0.950 . S
C3342 C3343 1.349 . S
C3342 C3344 1.327 . S
C3342 H3367 0.950 . S
C3343 C3342 1.349 . S
C3343 C3359 1.349 . S
C3344 C3342 1.327 . S
C3344 C3363 1.429 . S
C3344 H3368 0.950 . S
C3345 C3362 1.574 . S
C3345 C3364 1.368 . S
C3345 H3369 0.949 . S
H3346 C3350 0.949 . S
C3347 C3348 1.349 . S
C3347 C3349 1.327 . S
C3347 H3370 0.950 . S
C3348 C3347 1.349 . S
C3348 C3360 1.349 . S
C3349 C3347 1.327 . S
C3349 C3365 1.429 . S
C3349 H3371 0.950 . S
C3350 H3346 0.949 . S
C3350 C3358 1.574 . S
C3350 C3366 1.368 . S
H3351 C3359 0.950 . S
H3352 C3357 0.950 . S
H3353 C3358 0.949 . S
H3354 C3360 0.950 . S
H3355 C3361 0.950 . S
H3356 C3362 0.949 . S
C3357 H3352 0.950 . S
C3357 C3359 1.327 . S
C3357 C3363 1.429 . S
C3358 C3350 1.574 . S
C3358 H3353 0.949 . S
C3358 C3364 1.368 . S
C3359 C3343 1.349 . S
C3359 H3351 0.950 . S
C3359 C3357 1.327 . S
C3360 C3348 1.349 . S
C3360 H3354 0.950 . S
C3360 C3361 1.327 . S
C3361 H3355 0.950 . S
C3361 C3360 1.327 . S
C3361 C3365 1.429 . S
C3362 C3345 1.574 . S
C3362 H3356 0.949 . S
C3362 C3366 1.368 . S
C3363 C3344 1.429 . S
C3363 C3357 1.429 . S
C3363 C3364 1.523 . S
C3364 C3345 1.368 . S
C3364 C3358 1.368 . S
C3364 C3363 1.523 . S
C3365 C3349 1.429 . S
C3365 C3361 1.429 . S
C3365 C3366 1.523 . S
C3366 C3350 1.368 . S
C3366 C3362 1.368 . S
C3366 C3365 1.523 . S
H3367 C3342 0.950 . S
H3368 C3344 0.950 . S
H3369 C3345 0.949 . S
H3370 C3347 0.950 . S
H3371 C3349 0.950 . S
C3372 C3373 1.349 . S
C3372 C3374 1.327 . S
C3372 H3397 0.950 . S
C3373 C3372 1.349 . S
C3373 C3389 1.349 . S
C3374 C3372 1.327 . S
C3374 C3393 1.429 . S
C3374 H3398 0.950 . S
C3375 C3392 1.574 . S
C3375 C3394 1.368 . S
C3375 H3399 0.949 . S
H3376 C3380 0.949 . S
C3377 C3378 1.349 . S
C3377 C3379 1.327 . S
C3377 H3400 0.950 . S
C3378 C3377 1.349 . S
C3378 C3390 1.349 . S
C3379 C3377 1.327 . S
C3379 C3395 1.429 . S
C3379 H3401 0.950 . S
C3380 H3376 0.949 . S
C3380 C3388 1.574 . S
C3380 C3396 1.368 . S
H3381 C3389 0.950 . S
H3382 C3387 0.950 . S
H3383 C3388 0.949 . S
H3384 C3390 0.950 . S
H3385 C3391 0.950 . S
H3386 C3392 0.949 . S
C3387 H3382 0.950 . S
C3387 C3389 1.327 . S
C3387 C3393 1.429 . S
C3388 C3380 1.574 . S
C3388 H3383 0.949 . S
C3388 C3394 1.368 . S
C3389 C3373 1.349 . S
C3389 H3381 0.950 . S
C3389 C3387 1.327 . S
C3390 C3378 1.349 . S
C3390 H3384 0.950 . S
C3390 C3391 1.327 . S
C3391 H3385 0.950 . S
C3391 C3390 1.327 . S
C3391 C3395 1.429 . S
C3392 C3375 1.574 . S
C3392 H3386 0.949 . S
C3392 C3396 1.368 . S
C3393 C3374 1.429 . S
C3393 C3387 1.429 . S
C3393 C3394 1.523 . S
C3394 C3375 1.368 . S
C3394 C3388 1.368 . S
C3394 C3393 1.523 . S
C3395 C3379 1.429 . S
C3395 C3391 1.429 . S
C3395 C3396 1.523 . S
C3396 C3380 1.368 . S
C3396 C3392 1.368 . S
C3396 C3395 1.523 . S
H3397 C3372 0.950 . S
H3398 C3374 0.950 . S
H3399 C3375 0.949 . S
H3400 C3377 0.950 . S
H3401 C3379 0.950 . S
C3402 C3403 1.349 . S
C3402 C3404 1.327 . S
C3402 H3427 0.950 . S
C3403 C3402 1.349 . S
C3403 C3419 1.349 . S
C3404 C3402 1.327 . S
C3404 C3423 1.429 . S
C3404 H3428 0.950 . S
C3405 C3422 1.574 . S
C3405 C3424 1.368 . S
C3405 H3429 0.949 . S
H3406 C3410 0.949 . S
C3407 C3408 1.349 . S
C3407 C3409 1.327 . S
C3407 H3430 0.950 . S
C3408 C3407 1.349 . S
C3408 C3420 1.349 . S
C3409 C3407 1.327 . S
C3409 C3425 1.429 . S
C3409 H3431 0.950 . S
C3410 H3406 0.949 . S
C3410 C3418 1.574 . S
C3410 C3426 1.368 . S
H3411 C3419 0.950 . S
H3412 C3417 0.950 . S
H3413 C3418 0.949 . S
H3414 C3420 0.950 . S
H3415 C3421 0.950 . S
H3416 C3422 0.949 . S
C3417 H3412 0.950 . S
C3417 C3419 1.327 . S
C3417 C3423 1.429 . S
C3418 C3410 1.574 . S
C3418 H3413 0.949 . S
C3418 C3424 1.368 . S
C3419 C3403 1.349 . S
C3419 H3411 0.950 . S
C3419 C3417 1.327 . S
C3420 C3408 1.349 . S
C3420 H3414 0.950 . S
C3420 C3421 1.327 . S
C3421 H3415 0.950 . S
C3421 C3420 1.327 . S
C3421 C3425 1.429 . S
C3422 C3405 1.574 . S
C3422 H3416 0.949 . S
C3422 C3426 1.368 . S
C3423 C3404 1.429 . S
C3423 C3417 1.429 . S
C3423 C3424 1.523 . S
C3424 C3405 1.368 . S
C3424 C3418 1.368 . S
C3424 C3423 1.523 . S
C3425 C3409 1.429 . S
C3425 C3421 1.429 . S
C3425 C3426 1.523 . S
C3426 C3410 1.368 . S
C3426 C3422 1.368 . S
C3426 C3425 1.523 . S
H3427 C3402 0.950 . S
H3428 C3404 0.950 . S
H3429 C3405 0.949 . S
H3430 C3407 0.950 . S
H3431 C3409 0.950 . S
C3432 C3433 1.349 . S
C3432 C3434 1.327 . S
C3432 H3457 0.950 . S
C3433 C3432 1.349 . S
C3433 C3449 1.349 . S
C3434 C3432 1.327 . S
C3434 C3453 1.429 . S
C3434 H3458 0.950 . S
C3435 C3452 1.574 . S
C3435 C3454 1.368 . S
C3435 H3459 0.949 . S
H3436 C3440 0.949 . S
C3437 C3438 1.349 . S
C3437 C3439 1.327 . S
C3437 H3460 0.950 . S
C3438 C3437 1.349 . S
C3438 C3450 1.349 . S
C3439 C3437 1.327 . S
C3439 C3455 1.429 . S
C3439 H3461 0.950 . S
C3440 H3436 0.949 . S
C3440 C3448 1.574 . S
C3440 C3456 1.368 . S
H3441 C3449 0.950 . S
H3442 C3447 0.950 . S
H3443 C3448 0.949 . S
H3444 C3450 0.950 . S
H3445 C3451 0.950 . S
H3446 C3452 0.949 . S
C3447 H3442 0.950 . S
C3447 C3449 1.327 . S
C3447 C3453 1.429 . S
C3448 C3440 1.574 . S
C3448 H3443 0.949 . S
C3448 C3454 1.368 . S
C3449 C3433 1.349 . S
C3449 H3441 0.950 . S
C3449 C3447 1.327 . S
C3450 C3438 1.349 . S
C3450 H3444 0.950 . S
C3450 C3451 1.327 . S
C3451 H3445 0.950 . S
C3451 C3450 1.327 . S
C3451 C3455 1.429 . S
C3452 C3435 1.574 . S
C3452 H3446 0.949 . S
C3452 C3456 1.368 . S
C3453 C3434 1.429 . S
C3453 C3447 1.429 . S
C3453 C3454 1.523 . S
C3454 C3435 1.368 . S
C3454 C3448 1.368 . S
C3454 C3453 1.523 . S
C3455 C3439 1.429 . S
C3455 C3451 1.429 . S
C3455 C3456 1.523 . S
C3456 C3440 1.368 . S
C3456 C3452 1.368 . S
C3456 C3455 1.523 . S
H3457 C3432 0.950 . S
H3458 C3434 0.950 . S
H3459 C3435 0.949 . S
H3460 C3437 0.950 . S
H3461 C3439 0.950 . S
C3462 C3463 1.349 . S
C3462 C3464 1.327 . S
C3462 H3487 0.950 . S
C3463 C3462 1.349 . S
C3463 C3479 1.349 . S
C3464 C3462 1.327 . S
C3464 C3483 1.429 . S
C3464 H3488 0.950 . S
C3465 C3482 1.574 . S
C3465 C3484 1.368 . S
C3465 H3489 0.949 . S
H3466 C3470 0.949 . S
C3467 C3468 1.349 . S
C3467 C3469 1.327 . S
C3467 H3490 0.950 . S
C3468 C3467 1.349 . S
C3468 C3480 1.349 . S
C3469 C3467 1.327 . S
C3469 C3485 1.429 . S
C3469 H3491 0.950 . S
C3470 H3466 0.949 . S
C3470 C3478 1.574 . S
C3470 C3486 1.368 . S
H3471 C3479 0.950 . S
H3472 C3477 0.950 . S
H3473 C3478 0.949 . S
H3474 C3480 0.950 . S
H3475 C3481 0.950 . S
H3476 C3482 0.949 . S
C3477 H3472 0.950 . S
C3477 C3479 1.327 . S
C3477 C3483 1.429 . S
C3478 C3470 1.574 . S
C3478 H3473 0.949 . S
C3478 C3484 1.368 . S
C3479 C3463 1.349 . S
C3479 H3471 0.950 . S
C3479 C3477 1.327 . S
C3480 C3468 1.349 . S
C3480 H3474 0.950 . S
C3480 C3481 1.327 . S
C3481 H3475 0.950 . S
C3481 C3480 1.327 . S
C3481 C3485 1.429 . S
C3482 C3465 1.574 . S
C3482 H3476 0.949 . S
C3482 C3486 1.368 . S
C3483 C3464 1.429 . S
C3483 C3477 1.429 . S
C3483 C3484 1.523 . S
C3484 C3465 1.368 . S
C3484 C3478 1.368 . S
C3484 C3483 1.523 . S
C3485 C3469 1.429 . S
C3485 C3481 1.429 . S
C3485 C3486 1.523 . S
C3486 C3470 1.368 . S
C3486 C3482 1.368 . S
C3486 C3485 1.523 . S
H3487 C3462 0.950 . S
H3488 C3464 0.950 . S
H3489 C3465 0.949 . S
H3490 C3467 0.950 . S
H3491 C3469 0.950 . S
C3492 C3493 1.349 . S
C3492 C3494 1.327 . S
C3492 H3517 0.950 . S
C3493 C3492 1.349 . S
C3493 C3509 1.349 . S
C3494 C3492 1.327 . S
C3494 C3513 1.429 . S
C3494 H3518 0.950 . S
C3495 C3512 1.574 . S
C3495 C3514 1.368 . S
C3495 H3519 0.949 . S
H3496 C3500 0.949 . S
C3497 C3498 1.349 . S
C3497 C3499 1.327 . S
C3497 H3520 0.950 . S
C3498 C3497 1.349 . S
C3498 C3510 1.349 . S
C3499 C3497 1.327 . S
C3499 C3515 1.429 . S
C3499 H3521 0.950 . S
C3500 H3496 0.949 . S
C3500 C3508 1.574 . S
C3500 C3516 1.368 . S
H3501 C3509 0.950 . S
H3502 C3507 0.950 . S
H3503 C3508 0.949 . S
H3504 C3510 0.950 . S
H3505 C3511 0.950 . S
H3506 C3512 0.949 . S
C3507 H3502 0.950 . S
C3507 C3509 1.327 . S
C3507 C3513 1.429 . S
C3508 C3500 1.574 . S
C3508 H3503 0.949 . S
C3508 C3514 1.368 . S
C3509 C3493 1.349 . S
C3509 H3501 0.950 . S
C3509 C3507 1.327 . S
C3510 C3498 1.349 . S
C3510 H3504 0.950 . S
C3510 C3511 1.327 . S
C3511 H3505 0.950 . S
C3511 C3510 1.327 . S
C3511 C3515 1.429 . S
C3512 C3495 1.574 . S
C3512 H3506 0.949 . S
C3512 C3516 1.368 . S
C3513 C3494 1.429 . S
C3513 C3507 1.429 . S
C3513 C3514 1.523 . S
C3514 C3495 1.368 . S
C3514 C3508 1.368 . S
C3514 C3513 1.523 . S
C3515 C3499 1.429 . S
C3515 C3511 1.429 . S
C3515 C3516 1.523 . S
C3516 C3500 1.368 . S
C3516 C3512 1.368 . S
C3516 C3515 1.523 . S
H3517 C3492 0.950 . S
H3518 C3494 0.950 . S
H3519 C3495 0.949 . S
H3520 C3497 0.950 . S
H3521 C3499 0.950 . S
C3522 C3523 1.349 . S
C3522 C3524 1.327 . S
C3522 H3547 0.950 . S
C3523 C3522 1.349 . S
C3523 C3539 1.349 . S
C3524 C3522 1.327 . S
C3524 C3543 1.429 . S
C3524 H3548 0.950 . S
C3525 C3542 1.574 . S
C3525 C3544 1.368 . S
C3525 H3549 0.949 . S
H3526 C3530 0.949 . S
C3527 C3528 1.349 . S
C3527 C3529 1.327 . S
C3527 H3550 0.950 . S
C3528 C3527 1.349 . S
C3528 C3540 1.349 . S
C3529 C3527 1.327 . S
C3529 C3545 1.429 . S
C3529 H3551 0.950 . S
C3530 H3526 0.949 . S
C3530 C3538 1.574 . S
C3530 C3546 1.368 . S
H3531 C3539 0.950 . S
H3532 C3537 0.950 . S
H3533 C3538 0.949 . S
H3534 C3540 0.950 . S
H3535 C3541 0.950 . S
H3536 C3542 0.949 . S
C3537 H3532 0.950 . S
C3537 C3539 1.327 . S
C3537 C3543 1.429 . S
C3538 C3530 1.574 . S
C3538 H3533 0.949 . S
C3538 C3544 1.368 . S
C3539 C3523 1.349 . S
C3539 H3531 0.950 . S
C3539 C3537 1.327 . S
C3540 C3528 1.349 . S
C3540 H3534 0.950 . S
C3540 C3541 1.327 . S
C3541 H3535 0.950 . S
C3541 C3540 1.327 . S
C3541 C3545 1.429 . S
C3542 C3525 1.574 . S
C3542 H3536 0.949 . S
C3542 C3546 1.368 . S
C3543 C3524 1.429 . S
C3543 C3537 1.429 . S
C3543 C3544 1.523 . S
C3544 C3525 1.368 . S
C3544 C3538 1.368 . S
C3544 C3543 1.523 . S
C3545 C3529 1.429 . S
C3545 C3541 1.429 . S
C3545 C3546 1.523 . S
C3546 C3530 1.368 . S
C3546 C3542 1.368 . S
C3546 C3545 1.523 . S
H3547 C3522 0.950 . S
H3548 C3524 0.950 . S
H3549 C3525 0.949 . S
H3550 C3527 0.950 . S
H3551 C3529 0.950 . S
C2113 C1261 1.227 . S
C2118 C20 1.225 . S
C2143 C117 1.227 . S
C2148 C1349 1.234 . S
C2173 C1604 1.227 . S
C2178 C225 1.227 . S
C2203 C321 1.228 . S
C2208 C1164 1.225 . S
C2233 C1289 1.228 . S
C2238 C372 1.225 . S
C2263 C469 1.228 . S
C2268 C1377 1.228 . S
C2293 C577 1.228 . S
C2298 C1633 1.228 . S
C2323 C673 1.227 . S
C2328 C1193 1.237 . S
C2353 C849 1.227 . S
C2358 C733 1.225 . S
C2383 C900 1.228 . S
C2388 C821 1.224 . S
C2413 C929 1.227 . S
C2418 C1025 1.238 . S
C2443 C997 1.228 . S
C2448 C761 1.223 . S
C2473 C1085 1.227 . S
C2478 C293 1.224 . S
C2503 C401 1.228 . S
C2508 C1457 1.238 . S
C2533 C1516 1.227 . S
C2538 C145 1.221 . S
C2563 C137 1.237 . S
C2568 C1868 1.241 . S
C2593 C812 1.237 . S
C2598 C29 1.231 . S
C2623 C2081 1.237 . S
C2628 C284 1.237 . S
C2653 C988 1.237 . S
C2658 C233 1.241 . S
C2683 C1897 1.237 . S
C2688 C636 1.241 . S
C2713 C841 1.237 . S
C2718 C585 1.237 . S
C2743 C489 1.237 . S
C2748 C2053 1.237 . S
C2773 C381 1.237 . S
C2778 C1017 1.228 . S
C2803 C1340 1.237 . S
C2808 C1721 1.240 . S
C2833 C1437 1.237 . S
C2838 C1369 1.241 . S
C2863 C1173 1.237 . S
C2868 C1465 1.228 . S
C2893 C1692 1.237 . S
C2898 C1201 1.240 . S
C2923 C205 1.237 . S
C2928 C1817 1.240 . S
C2953 C909 1.237 . S
C2958 C665 1.228 . S
C2983 C57 1.237 . S
C2988 C1956 1.244 . S
C3013 C1701 1.227 . S
C3018 C196 1.234 . S
C3043 C49 1.228 . S
C3048 C1428 1.224 . S
C3073 C1729 1.228 . S
C3078 C548 1.221 . S
C3103 C1113 1.228 . S
C3108 C645 1.224 . S
C3133 C497 1.228 . S
C3138 C1545 1.228 . S
C3163 C1877 1.227 . S
C3168 C1780 1.234 . S
C3193 C2044 1.228 . S
C3198 C1809 1.221 . S
C3223 C1993 1.228 . S
C3228 C2073 1.228 . S
C3253 C1905 1.228 . S
C3258 C1965 1.228 . S
C3283 C724 1.237 . S
C3288 C313 1.231 . S
C3313 C108 1.237 . S
C3318 C937 1.240 . S
C3343 C460 1.237 . S
C3348 C753 1.244 . S
C3373 C1789 1.237 . S
C3378 C409 1.240 . S
C3403 C557 1.237 . S
C3408 C1985 1.237 . S
C3433 C1076 1.237 . S
C3438 C1281 1.231 . S
C3463 C1613 1.237 . S
C3468 C1105 1.243 . S
C3493 C1525 1.237 . S
C3498 C1641 1.237 . S
C3523 C1252 1.237 . S
C3528 C1553 1.237 . S
