# Generated by pormake.
# Topology ukh, (4)-cn, num edge types: 1
# Building blocks:
#     Node 0, Type 0, BuildingBlock: NAHDIM_clean_sbu_0, # of connection points: 4
#     Node 1, Type 0, BuildingBlock: NAHDIM_clean_sbu_0, # of connection points: 4
#     Node 2, Type 0, BuildingBlock: NAHDIM_clean_sbu_0, # of connection points: 4
#     Node 3, Type 0, BuildingBlock: NAHDIM_clean_sbu_0, # of connection points: 4
#     Node 4, Type 0, BuildingBlock: NAHDIM_clean_sbu_0, # of connection points: 4
#     Node 5, Type 0, BuildingBlock: NAHDIM_clean_sbu_0, # of connection points: 4
#     Node 6, Type 0, BuildingBlock: NAHDIM_clean_sbu_0, # of connection points: 4
#     Node 7, Type 0, BuildingBlock: NAHDIM_clean_sbu_0, # of connection points: 4
#     Node 8, Type 0, BuildingBlock: NAHDIM_clean_sbu_0, # of connection points: 4
#     Node 9, Type 0, BuildingBlock: NAHDIM_clean_sbu_0, # of connection points: 4
#     Node 10, Type 0, BuildingBlock: NAHDIM_clean_sbu_0, # of connection points: 4
#     Node 11, Type 0, BuildingBlock: NAHDIM_clean_sbu_0, # of connection points: 4
#     Edge 12, Type (0, 0), BuildingBlock: KIFKEQ_clean_linker_1, # of connection points: 2
#     Edge 13, Type (0, 0), BuildingBlock: KIFKEQ_clean_linker_1, # of connection points: 2
#     Edge 14, Type (0, 0), BuildingBlock: KIFKEQ_clean_linker_1, # of connection points: 2
#     Edge 15, Type (0, 0), BuildingBlock: KIFKEQ_clean_linker_1, # of connection points: 2
#     Edge 16, Type (0, 0), BuildingBlock: KIFKEQ_clean_linker_1, # of connection points: 2
#     Edge 17, Type (0, 0), BuildingBlock: KIFKEQ_clean_linker_1, # of connection points: 2
#     Edge 18, Type (0, 0), BuildingBlock: KIFKEQ_clean_linker_1, # of connection points: 2
#     Edge 19, Type (0, 0), BuildingBlock: KIFKEQ_clean_linker_1, # of connection points: 2
#     Edge 20, Type (0, 0), BuildingBlock: KIFKEQ_clean_linker_1, # of connection points: 2
#     Edge 21, Type (0, 0), BuildingBlock: KIFKEQ_clean_linker_1, # of connection points: 2
#     Edge 22, Type (0, 0), BuildingBlock: KIFKEQ_clean_linker_1, # of connection points: 2
#     Edge 23, Type (0, 0), BuildingBlock: KIFKEQ_clean_linker_1, # of connection points: 2
#     Edge 24, Type (0, 0), BuildingBlock: KIFKEQ_clean_linker_1, # of connection points: 2
#     Edge 25, Type (0, 0), BuildingBlock: KIFKEQ_clean_linker_1, # of connection points: 2
#     Edge 26, Type (0, 0), BuildingBlock: KIFKEQ_clean_linker_1, # of connection points: 2
#     Edge 27, Type (0, 0), BuildingBlock: KIFKEQ_clean_linker_1, # of connection points: 2
#     Edge 28, Type (0, 0), BuildingBlock: KIFKEQ_clean_linker_1, # of connection points: 2
#     Edge 29, Type (0, 0), BuildingBlock: KIFKEQ_clean_linker_1, # of connection points: 2
#     Edge 30, Type (0, 0), BuildingBlock: KIFKEQ_clean_linker_1, # of connection points: 2
#     Edge 31, Type (0, 0), BuildingBlock: KIFKEQ_clean_linker_1, # of connection points: 2
#     Edge 32, Type (0, 0), BuildingBlock: KIFKEQ_clean_linker_1, # of connection points: 2
#     Edge 33, Type (0, 0), BuildingBlock: KIFKEQ_clean_linker_1, # of connection points: 2
#     Edge 34, Type (0, 0), BuildingBlock: KIFKEQ_clean_linker_1, # of connection points: 2
#     Edge 35, Type (0, 0), BuildingBlock: KIFKEQ_clean_linker_1, # of connection points: 2
# Relax obj value: 0.181
# Max RMSD: 0.212
# Mean RMSD: 0.212
data_MOF--net-ukh--node1-NAHDIM_clean_sbu_0--edge1-KIFKEQ_clean_linker_1
_symmetry_space_group_name_H-M    P1
_symmetry_Int_Tables_number       1
_symmetry_cell_setting            triclinic
loop_
_symmetry_equiv_pos_as_xyz
'x, y, z'
_cell_length_a     32.772101
_cell_length_b     32.774556
_cell_length_c     60.866379
_cell_angle_alpha  89.971698
_cell_angle_beta   89.916505
_cell_angle_gamma 119.98131
loop_
_atom_site_label
_atom_site_type_symbol
_atom_site_fract_x
_atom_site_fract_y
_atom_site_fract_z
_atom_type_partial_charge
C0 C 0.36524 0.3202 0.03312 0.0
O1 O 0.32217 0.30671 0.03978 0.0
O2 O 0.26638 0.21295 0.02556 0.0
Zn3 Zn 0.32747 0.22308 0.03817 0.0
O4 O 0.32077 0.21443 0.07095 0.0
C5 C 0.33022 0.1596 0.00637 0.0
O6 O 0.31605 0.18145 0.99297 0.0
O7 O 0.37777 0.28941 0.03104 0.0
C8 C 0.30479 0.17343 0.07903 0.0
O9 O 0.29287 0.13764 0.06576 0.0
C10 C 0.22781 0.174 0.02575 0.0
O11 O 0.2264 0.13669 0.03451 0.0
O12 O 0.34089 0.17422 0.02597 0.0
C13 C 0.04772 0.38329 0.37289 0.0
O14 O 0.0183 0.34163 0.38113 0.0
O15 O 0.04934 0.28079 0.35986 0.0
Zn16 Zn 0.1021 0.33969 0.37323 0.0
O17 O 0.10258 0.32924 0.40565 0.0
C18 C 0.17464 0.35141 0.34152 0.0
O19 O 0.14369 0.34597 0.32643 0.0
O20 O 0.08914 0.39256 0.36781 0.0
C21 C 0.12024 0.30467 0.41234 0.0
O22 O 0.13634 0.28644 0.39786 0.0
C23 C 0.05299 0.24713 0.35164 0.0
O24 O 0.09414 0.24938 0.35135 0.0
O25 O 0.16476 0.35253 0.3616 0.0
C26 C 0.67099 0.05166 0.70975 0.0
O27 O 0.68326 0.02218 0.71786 0.0
O28 O 0.77472 0.05256 0.69592 0.0
Zn29 Zn 0.76889 0.10541 0.70947 0.0
O30 O 0.77966 0.1068 0.74202 0.0
C31 C 0.8322 0.17178 0.67723 0.0
O32 O 0.80949 0.13639 0.66361 0.0
O33 O 0.70312 0.09281 0.70431 0.0
C34 C 0.82085 0.1315 0.74987 0.0
O35 O 0.85646 0.15525 0.73644 0.0
C36 C 0.81317 0.052 0.69506 0.0
O37 O 0.85159 0.08754 0.70321 0.0
O38 O 0.8185 0.1672 0.69704 0.0
C39 C 0.60025 0.66617 0.02165 0.0
O40 O 0.6362 0.68311 0.00804 0.0
O41 O 0.71407 0.76498 0.03031 0.0
Zn42 Zn 0.65407 0.75648 0.04351 0.0
O43 O 0.66128 0.76455 0.0761 0.0
C44 C 0.65125 0.82262 0.01304 0.0
O45 O 0.66245 0.80014 -0.00147 0.0
O46 O 0.59993 0.69192 0.03718 0.0
C47 C 0.69959 0.79599 0.08457 0.0
O48 O 0.73572 0.82198 0.07174 0.0
C49 C 0.73173 0.74029 0.03678 0.0
O50 O 0.70994 0.70843 0.05214 0.0
O51 O 0.64335 0.80803 0.03275 0.0
C52 C 0.94563 0.62611 0.36989 0.0
O53 O 0.97433 0.6677 0.3783 0.0
O54 O 0.93689 0.72793 0.3582 0.0
Zn55 Zn 0.88767 0.66631 0.37156 0.0
O56 O 0.88561 0.67299 0.40422 0.0
C57 C 0.81794 0.66054 0.34084 0.0
O58 O 0.85265 0.67457 0.32664 0.0
O59 O 0.9039 0.61598 0.36499 0.0
C60 C 0.86651 0.69554 0.41184 0.0
O61 O 0.8498 0.71454 0.39813 0.0
C62 C 0.96838 0.76108 0.36969 0.0
O63 O 0.9692 0.75541 0.39102 0.0
O64 O 0.82417 0.65129 0.36038 0.0
C65 C 0.3266 0.95301 0.71034 0.0
O66 O 0.31381 0.98196 0.7186 0.0
O67 O 0.2188 0.94743 0.69677 0.0
Zn68 Zn 0.2281 0.89607 0.70991 0.0
O69 O 0.21392 0.88912 0.7422 0.0
C70 C 0.16704 0.8307 0.67696 0.0
O71 O 0.18838 0.86733 0.66384 0.0
O72 O 0.29491 0.91171 0.70493 0.0
C73 C 0.17128 0.87246 0.74811 0.0
O74 O 0.13901 0.86282 0.73306 0.0
C75 C 0.21043 0.97518 0.70797 0.0
O76 O 0.20786 0.97137 0.72946 0.0
O77 O 0.18104 0.83436 0.69666 0.0
C78 C 0.67004 0.62706 0.61517 0.0
O79 O 0.68211 0.66908 0.60747 0.0
O80 O 0.77451 0.72925 0.6299 0.0
Zn81 Zn 0.76817 0.67106 0.61558 0.0
O82 O 0.7797 0.68203 0.58308 0.0
C83 C 0.83095 0.66541 0.64734 0.0
O84 O 0.80924 0.67858 0.66137 0.0
O85 O 0.70227 0.61804 0.62036 0.0
C86 C 0.82079 0.69682 0.57532 0.0
O87 O 0.85558 0.70595 0.58881 0.0
C88 C 0.81207 0.76905 0.629 0.0
O89 O 0.84885 0.77287 0.61849 0.0
O90 O 0.81684 0.65717 0.62759 0.0
C91 C 0.06536 0.6652 0.97153 0.0
O92 O 0.04631 0.6816 0.9854 0.0
O93 O 0.03407 0.75004 0.9616 0.0
Zn94 Zn 0.09151 0.75171 0.94865 0.0
O95 O 0.09246 0.75909 0.91595 0.0
C96 C 0.16132 0.81956 0.97942 0.0
O97 O 0.13259 0.79301 0.99505 0.0
O98 O 0.08854 0.69035 0.9552 0.0
C99 C 0.08354 0.78867 0.90688 0.0
O100 O 0.07053 0.81321 0.91911 0.0
C101 C 0.03274 0.78563 0.96896 0.0
O102 O 0.07067 0.82747 0.96787 0.0
O103 O 0.15088 0.80733 0.95952 0.0
C104 C 0.41235 0.09769 0.27191 0.0
O105 O 0.40998 0.11753 0.25356 0.0
O106 O 0.2741 0.05398 0.29837 0.0
Zn107 Zn 0.33111 0.10541 0.2831 0.0
O108 O 0.31798 0.10481 0.25077 0.0
C109 C 0.33494 0.17347 0.3144 0.0
O110 O 0.31965 0.13786 0.32815 0.0
O111 O 0.38384 0.09164 0.28741 0.0
C112 C 0.3032 0.131 0.24292 0.0
O113 O 0.29453 0.15724 0.25628 0.0
C114 C 0.23215 0.04448 0.29454 0.0
O115 O 0.22455 0.06935 0.27989 0.0
O116 O 0.34545 0.16836 0.29492 0.0
C117 C 0.32751 0.37646 0.61309 0.0
O118 O 0.31605 0.33487 0.60506 0.0
O119 O 0.22457 0.27298 0.62733 0.0
Zn120 Zn 0.22939 0.33104 0.61356 0.0
O121 O 0.2179 0.32032 0.58119 0.0
C122 C 0.16931 0.34243 0.64568 0.0
O123 O 0.19525 0.33688 0.66051 0.0
O124 O 0.29485 0.38477 0.61841 0.0
C125 C 0.17569 0.29789 0.57432 0.0
O126 O 0.14099 0.28115 0.58863 0.0
C127 C 0.18706 0.23875 0.63513 0.0
O128 O 0.14761 0.23995 0.63444 0.0
O129 O 0.17965 0.34359 0.62551 0.0
C130 C 0.95066 0.31933 0.95897 0.0
O131 O 0.97894 0.30473 0.95168 0.0
O132 O 0.93962 0.21154 0.96749 0.0
Zn133 Zn 0.88964 0.22274 0.95458 0.0
O134 O 0.88812 0.21435 0.92181 0.0
C135 C 0.82118 0.1605 0.98623 0.0
O136 O 0.85654 0.18174 -0.0 0.0
O137 O 0.90725 0.28941 0.96164 0.0
C138 C 0.86307 0.17341 0.91374 0.0
O139 O 0.83922 0.13756 0.92703 0.0
C140 C 0.93899 0.17248 0.96783 0.0
O141 O 0.90297 0.13488 0.95939 0.0
O142 O 0.82661 0.17492 0.96652 0.0
C143 C 0.58994 0.9205 0.27074 0.0
O144 O 0.58928 0.89847 0.2526 0.0
O145 O 0.72754 0.95285 0.29451 0.0
Zn146 Zn 0.66577 0.90377 0.28153 0.0
O147 O 0.67374 0.89602 0.24941 0.0
C148 C 0.65793 0.8368 0.31456 0.0
O149 O 0.67633 0.87387 0.32747 0.0
O150 O 0.6183 0.92486 0.28598 0.0
C151 C 0.70057 0.88042 0.24345 0.0
O152 O 0.72422 0.87189 0.25841 0.0
C153 C 0.7616 0.9829 0.28288 0.0
O154 O 0.75695 0.9825 0.26144 0.0
O155 O 0.64705 0.84105 0.29503 0.0
H156 H 0.52199 0.62075 0.04747 0.0
H157 H 0.59442 0.59816 0.99355 0.0
H158 H 0.46456 0.53715 0.04817 0.0
H159 H 0.53606 0.51422 0.99399 0.0
H160 H 0.45936 0.36241 0.0232 0.0
H161 H 0.51443 0.44645 0.01817 0.0
H162 H 0.40064 0.47547 0.02747 0.0
H163 H 0.346 0.39195 0.03297 0.0
C164 C 0.52532 0.59804 0.03556 0.0
C165 C 0.56292 0.61612 0.02051 0.0
C166 C 0.4922 0.55007 0.03588 0.0
C167 C 0.49579 0.519 0.02116 0.0
C168 C 0.5327 0.5372 0.00572 0.0
C169 C 0.5659 0.58533 0.00538 0.0
C170 C 0.44612 0.38674 0.02405 0.0
C171 C 0.39843 0.37058 0.02871 0.0
C172 C 0.47758 0.43484 0.02102 0.0
C173 C 0.46193 0.46765 0.02255 0.0
C174 C 0.41397 0.4512 0.02656 0.0
C175 C 0.38262 0.40327 0.02964 0.0
H176 H 0.09914 0.47288 0.35644 0.0
H177 H 0.96224 0.37361 0.38286 0.0
H178 H 0.07442 0.53159 0.35286 0.0
H179 H 0.93801 0.43241 0.37971 0.0
H180 H 0.89438 0.53516 0.35518 0.0
H181 H 0.91945 0.4765 0.35328 0.0
H182 H 0.05687 0.57926 0.37753 0.0
H183 H 0.03228 0.63797 0.379 0.0
C184 C 0.0638 0.46357 0.36145 0.0
C185 C 0.03274 0.41868 0.37003 0.0
C186 C 0.0497 0.49724 0.35948 0.0
C187 C 0.00426 0.48667 0.36602 0.0
C188 C 0.973 0.44148 0.37422 0.0
C189 C 0.98707 0.40788 0.37619 0.0
C190 C 0.93006 0.5453 0.35991 0.0
C191 C 0.96123 0.59112 0.36738 0.0
C192 C 0.94434 0.51165 0.35893 0.0
C193 C 0.99009 0.52317 0.36535 0.0
C194 C 0.02159 0.56937 0.37222 0.0
C195 C 0.00733 0.60295 0.37322 0.0
H196 H 0.36549 0.90174 0.69466 0.0
H197 H 0.40199 0.03842 0.72081 0.0
H198 H 0.44893 0.92607 0.69225 0.0
H199 H 0.48515 0.06231 0.71878 0.0
H200 H 0.63273 0.10434 0.6951 0.0
H201 H 0.54933 0.08058 0.69301 0.0
H202 H 0.5123 0.94288 0.718 0.0
H203 H 0.59525 0.96618 0.71971 0.0
C204 C 0.39128 0.93697 0.69986 0.0
C205 C 0.3771 0.96806 0.70803 0.0
C206 C 0.43906 0.95083 0.69856 0.0
C207 C 0.47364 0.99607 0.70539 0.0
C208 C 0.45944 0.02743 0.71314 0.0
C209 C 0.41171 0.01358 0.71445 0.0
C210 C 0.60674 0.06893 0.70002 0.0
C211 C 0.62061 0.03722 0.70765 0.0
C212 C 0.55901 0.05539 0.69891 0.0
C213 C 0.52422 0.00987 0.70537 0.0
C214 C 0.53816 0.97798 0.71263 0.0
C215 C 0.58579 0.9915 0.71376 0.0
H216 H 0.63254 0.53615 0.62965 0.0
H217 H 0.59382 0.63576 0.60485 0.0
H218 H 0.54948 0.47563 0.63128 0.0
H219 H 0.5111 0.57514 0.60608 0.0
H220 H 0.36391 0.46646 0.62858 0.0
H221 H 0.44681 0.52703 0.63128 0.0
H222 H 0.48698 0.42962 0.60507 0.0
H223 H 0.40445 0.36896 0.60277 0.0
C224 C 0.60634 0.54516 0.62459 0.0
C225 C 0.61977 0.59068 0.61703 0.0
C226 C 0.55879 0.51045 0.62543 0.0
C227 C 0.52373 0.52057 0.61875 0.0
C228 C 0.53719 0.56636 0.6116 0.0
C229 C 0.58467 0.60102 0.61075 0.0
C230 C 0.39047 0.45794 0.6235 0.0
C231 C 0.3776 0.41298 0.61538 0.0
C232 C 0.43792 0.49268 0.62497 0.0
C233 C 0.47344 0.48313 0.61836 0.0
C234 C 0.46052 0.43792 0.61057 0.0
C235 C 0.41315 0.40324 0.6091 0.0
H236 H 0.90166 0.36336 0.97098 0.0
H237 H 0.0423 0.38959 0.9575 0.0
H238 H 0.93296 0.44756 0.9766 0.0
H239 H 0.07357 0.47336 0.96358 0.0
H240 H 0.09713 0.62007 0.94485 0.0
H241 H 0.07102 0.53644 0.94408 0.0
H242 H 0.98237 0.5142 0.00063 0.0
H243 H 0.00785 0.59806 0.00117 0.0
C244 C 0.93926 0.387 0.96943 0.0
C245 C 0.96942 0.36987 0.96358 0.0
C246 C 0.95725 0.4352 0.97281 0.0
C247 C 0.00575 0.46715 0.97045 0.0
C248 C 0.03597 0.44975 0.96519 0.0
C249 C 0.01802 0.40168 0.96177 0.0
C250 C 0.07252 0.59752 0.95731 0.0
C251 C 0.0543 0.61568 0.97297 0.0
C252 C 0.0577 0.54954 0.95692 0.0
C253 C 0.02438 0.51862 0.97221 0.0
C254 C 0.00754 0.53705 0.98843 0.0
C255 C 0.02243 0.58514 0.98883 0.0
H256 H 0.42261 0.0505 0.30665 0.0
H257 H 0.47037 0.09588 0.24015 0.0
H258 H 0.46525 0.00719 0.30719 0.0
H259 H 0.5134 0.05309 0.24086 0.0
H260 H 0.5318 0.92427 0.23976 0.0
H261 H 0.49112 0.9693 0.24106 0.0
H262 H 0.54531 0.01755 0.30633 0.0
H263 H 0.58567 0.97198 0.30519 0.0
C264 C 0.44271 0.05179 0.29226 0.0
C265 C 0.44282 0.07639 0.27329 0.0
C266 C 0.46721 0.02704 0.2926 0.0
C267 C 0.49217 0.02627 0.27397 0.0
C268 C 0.4937 0.05229 0.25532 0.0
C269 C 0.46936 0.07715 0.25499 0.0
C270 C 0.5348 0.94416 0.25447 0.0
C271 C 0.56212 0.94464 0.27234 0.0
C272 C 0.51181 0.9703 0.25513 0.0
C273 C 0.5155 -0.00258 0.27369 0.0
C274 C 0.5417 0.99687 0.29183 0.0
C275 C 0.56486 0.97081 0.29115 0.0
H276 H 0.27325 0.18382 0.22087 0.0
H277 H 0.32346 0.08582 0.21068 0.0
H278 H 0.27005 0.19251 0.18123 0.0
H279 H 0.3211 0.09524 0.1711 0.0
H280 H 0.27105 0.09028 0.10116 0.0
H281 H 0.26657 0.07808 0.14075 0.0
H282 H 0.32591 0.22764 0.1509 0.0
H283 H 0.32955 0.23981 0.11126 0.0
C284 C 0.28347 0.16403 0.21018 0.0
C285 C 0.29872 0.13422 0.21892 0.0
C286 C 0.2819 0.16924 0.18748 0.0
C287 C 0.29551 0.14473 0.17304 0.0
C288 C 0.30986 0.1142 0.18178 0.0
C289 C 0.31143 0.10898 0.20448 0.0
C290 C 0.28296 0.12057 0.11182 0.0
C291 C 0.30082 0.16605 0.10307 0.0
C292 C 0.28059 0.11357 0.13451 0.0
C293 C 0.29603 0.15189 0.14895 0.0
C294 C 0.31322 0.19731 0.1402 0.0
C295 C 0.31557 0.20432 0.11749 0.0
H296 H 0.16811 0.26618 0.43188 0.0
H297 H 0.0834 0.3301 0.44648 0.0
H298 H 0.17947 0.26017 0.4711 0.0
H299 H 0.095 0.32417 0.48569 0.0
H300 H 0.09045 0.26552 0.55436 0.0
H301 H 0.07463 0.26301 0.51507 0.0
H302 H 0.22236 0.31836 0.50123 0.0
H303 H 0.23832 0.32078 0.54048 0.0
C304 C 0.15167 0.27868 0.44344 0.0
C305 C 0.125 0.29879 0.43609 0.0
C306 C 0.15839 0.27543 0.46588 0.0
C307 C 0.13821 0.2918 0.4814 0.0
C308 C 0.11061 0.31088 0.47408 0.0
C309 C 0.10421 0.31451 0.45163 0.0
C310 C 0.11952 0.2768 0.54294 0.0
C311 C 0.16568 0.29353 0.55052 0.0
C312 C 0.11045 0.27558 0.52047 0.0
C313 C 0.14728 0.29063 0.50514 0.0
C314 C 0.19323 0.30617 0.51268 0.0
C315 C 0.20239 0.30778 0.53516 0.0
H316 H 0.75487 0.08869 0.78221 0.0
H317 H 0.90381 0.18314 0.77186 0.0
H318 H 0.7668 0.09815 0.82179 0.0
H319 H 0.91577 0.19189 0.81147 0.0
H320 H 0.90556 0.23988 0.88153 0.0
H321 H 0.89637 0.2282 0.84189 0.0
H322 H 0.80348 0.079 0.85197 0.0
H323 H 0.81194 0.09071 0.89158 0.0
C324 C 0.79021 0.11116 0.78837 0.0
C325 C 0.82836 0.1353 0.77389 0.0
C326 C 0.79707 0.11637 0.81106 0.0
C327 C 0.84222 0.14584 0.81974 0.0
C328 C 0.88048 0.16943 0.80526 0.0
C329 C 0.87363 0.16418 0.78257 0.0
C330 C 0.88332 0.20457 0.87529 0.0
C331 C 0.85931 0.16626 0.8897 0.0
C332 C 0.87828 0.19784 0.85258 0.0
C333 C 0.84911 0.15268 0.84382 0.0
C334 C 0.82569 0.11431 0.85824 0.0
C335 C 0.83075 0.12101 0.88093 0.0
H336 H 0.62689 0.76027 0.11391 0.0
H337 H 0.7772 0.85477 0.1089 0.0
H338 H 0.6292 0.78136 0.15244 0.0
H339 H 0.77931 0.87571 0.14763 0.0
H340 H 0.76243 0.85824 0.22419 0.0
H341 H 0.76391 0.8369 0.18581 0.0
H342 H 0.646 0.85695 0.17176 0.0
H343 H 0.64444 0.87837 0.20996 0.0
C344 C 0.66049 0.78525 0.12106 0.0
C345 C 0.70185 0.80606 0.10833 0.0
C346 C 0.66171 0.7975 0.14308 0.0
C347 C 0.70435 0.83043 0.15289 0.0
C348 C 0.74601 0.85012 0.14043 0.0
C349 C 0.74473 0.83824 0.11828 0.0
C350 C 0.73698 0.85829 0.21288 0.0
C351 C 0.70322 0.86982 0.2201 0.0
C352 C 0.73797 0.84626 0.19093 0.0
C353 C 0.70485 0.84497 0.17593 0.0
C354 C 0.67154 0.8571 0.18308 0.0
C355 C 0.67087 0.86963 0.20492 0.0
H356 H 0.75707 0.68098 0.54277 0.0
H357 H 0.90303 0.72221 0.55364 0.0
H358 H 0.76982 0.68354 0.50317 0.0
H359 H 0.91578 0.72533 0.51409 0.0
H360 H 0.90091 0.66403 0.44451 0.0
H361 H 0.89094 0.66751 0.48401 0.0
H362 H 0.81245 0.73932 0.47294 0.0
H363 H 0.82186 0.73535 0.43336 0.0
C364 C 0.79195 0.69098 0.53672 0.0
C365 C 0.82897 0.70114 0.55134 0.0
C366 C 0.79929 0.69268 0.51405 0.0
C367 C 0.84376 0.70445 0.50556 0.0
C368 C 0.88098 0.71553 0.52017 0.0
C369 C 0.8737 0.71398 0.54283 0.0
C370 C 0.88167 0.68071 0.45048 0.0
C371 C 0.86206 0.69929 0.43581 0.0
C372 C 0.8762 0.68296 0.47312 0.0
C373 C 0.85091 0.70369 0.48155 0.0
C374 C 0.8317 0.72269 0.46689 0.0
C375 C 0.83731 0.72062 0.44424 0.0
H376 H 0.12517 0.75574 0.87867 0.0
H377 H 0.06255 0.84461 0.88148 0.0
H378 H 0.14548 0.77691 0.84022 0.0
H379 H 0.083 0.86571 0.84287 0.0
H380 H 0.08623 0.84792 0.7668 0.0
H381 H 0.06282 0.82682 0.80513 0.0
H382 H 0.20223 0.85221 0.8204 0.0
H383 H 0.22578 0.87333 0.78217 0.0
C384 C 0.1154 0.7795 0.87105 0.0
C385 C 0.0924 0.79866 0.88314 0.0
C386 C 0.12735 0.79185 0.84908 0.0
C387 C 0.11616 0.82324 0.83868 0.0
C388 C 0.09189 0.84131 0.85052 0.0
C389 C 0.08033 0.82932 0.8726 0.0
C390 C 0.11194 0.84921 0.77836 0.0
C391 C 0.1578 0.86213 0.77147 0.0
C392 C 0.09856 0.83731 0.80029 0.0
C393 C 0.13063 0.8376 0.81564 0.0
C394 C 0.17665 0.85113 0.80881 0.0
C395 C 0.19018 0.8635 0.78696 0.0
H396 H 0.22908 0.88059 0.95112 0.0
H397 H 0.18214 0.86699 0.01851 0.0
H398 H 0.28411 0.96402 0.95698 0.0
H399 H 0.23656 0.9506 0.02422 0.0
H400 H 0.34553 0.10027 0.03225 0.0
H401 H 0.31726 0.01698 0.02576 0.0
H402 H 0.26854 0.0288 0.96142 0.0
H403 H 0.29736 0.11201 0.96772 0.0
C404 C 0.23106 0.89521 0.9673 0.0
C405 C 0.20066 0.86735 0.98427 0.0
C406 C 0.26251 0.94306 0.97061 0.0
C407 C 0.26422 0.96408 0.99094 0.0
C408 C 0.23637 0.93545 0.00839 0.0
C409 C 0.20495 0.88751 0.00509 0.0
C410 C 0.32985 0.08538 0.01649 0.0
C411 C 0.32298 0.1126 0.00062 0.0
C412 C 0.31343 0.03758 0.01285 0.0
C413 C 0.29005 0.01613 0.99323 0.0
C414 C 0.28666 0.04426 0.97668 0.0
C415 C 0.30299 0.09201 0.98033 0.0
H416 H 0.24486 0.36086 0.36885 0.0
H417 H 0.19448 0.32486 0.30214 0.0
H418 H 0.29891 0.33129 0.36263 0.0
H419 H 0.2479 0.29459 0.29608 0.0
H420 H 0.35188 0.24751 0.28765 0.0
H421 H 0.32729 0.30557 0.29382 0.0
H422 H 0.28021 0.24972 0.3591 0.0
H423 H 0.30534 0.19228 0.3531 0.0
C424 C 0.24604 0.3476 0.3527 0.0
C425 C 0.21472 0.34438 0.3361 0.0
C426 C 0.27689 0.33048 0.34919 0.0
C427 C 0.2771 0.30982 0.32901 0.0
C428 C 0.24882 0.31049 0.3118 0.0
C429 C 0.21798 0.3277 0.3153 0.0
C430 C 0.33736 0.24837 0.30353 0.0
C431 C 0.32983 0.21473 0.31978 0.0
C432 C 0.32308 0.28153 0.307 0.0
C433 C 0.30123 0.28187 0.32681 0.0
C434 C 0.29723 0.2507 0.34368 0.0
C435 C 0.31141 0.2175 0.3402 0.0
H436 H 0.87806 0.18783 0.6379 0.0
H437 H 0.89229 0.24603 0.70301 0.0
H438 H 0.9607 0.24332 0.63071 0.0
H439 H 0.97497 0.30215 0.69565 0.0
H440 H 0.10773 0.35193 0.61892 0.0
H441 H 0.02478 0.32408 0.62614 0.0
H442 H 0.04178 0.28885 0.69264 0.0
H443 H 0.12483 0.31742 0.68557 0.0
C444 C 0.89846 0.2133 0.65047 0.0
C445 C 0.87878 0.21192 0.67115 0.0
C446 C 0.94587 0.24538 0.64631 0.0
C447 C 0.97458 0.27679 0.66273 0.0
C448 C 0.95394 0.27787 0.6828 0.0
C449 C 0.90649 0.24582 0.68696 0.0
C450 C 0.09406 0.33934 0.63526 0.0
C451 C 0.12268 0.33607 0.65158 0.0
C452 C 0.04646 0.3232 0.63935 0.0
C453 C 0.02651 0.30351 0.65982 0.0
C454 C 0.05607 0.30405 0.6767 0.0
C455 C 0.10373 0.32025 0.67263 0.0
H456 H 0.63854 0.88143 0.04048 0.0
H457 H 0.6793 0.87054 0.97411 0.0
H458 H 0.66554 0.96464 0.03452 0.0
H459 H 0.70676 0.95373 0.96831 0.0
H460 H 0.80291 0.11297 0.02518 0.0
H461 H 0.74696 0.02999 0.03131 0.0
H462 H 0.69095 0.01944 0.96604 0.0
H463 H 0.74737 0.10246 0.95975 0.0
C464 C 0.65231 0.89648 0.02446 0.0
C465 C 0.65764 0.86958 0.00788 0.0
C466 C 0.6679 0.94421 0.0211 0.0
C467 C 0.6889 0.96591 0.00109 0.0
C468 C 0.69048 0.93804 0.9839 0.0
C469 C 0.67499 0.89033 0.98726 0.0
C470 C 0.77788 0.09334 0.01234 0.0
C471 C 0.78026 0.11411 0.99184 0.0
C472 C 0.74556 0.04574 0.01589 0.0
C473 C 0.71499 0.01799 -0.00099 0.0
C474 C 0.71462 0.03977 0.9792 0.0
C475 C 0.74685 0.0874 0.97566 0.0
H476 H 0.63636 0.76003 0.28896 0.0
H477 H 0.68754 0.81857 0.3534 0.0
H478 H 0.65993 0.70129 0.29534 0.0
H479 H 0.71138 0.76015 0.35963 0.0
H480 H 0.7963 0.68676 0.30191 0.0
H481 H 0.74129 0.71526 0.29653 0.0
H482 H 0.69223 0.67735 0.36337 0.0
H483 H 0.7476 0.64912 0.36887 0.0
C484 C 0.65151 0.75967 0.30471 0.0
C485 C 0.66099 0.79463 0.32052 0.0
C486 C 0.66515 0.72608 0.3083 0.0
C487 C 0.68817 0.72656 0.32782 0.0
C488 C 0.69352 0.75867 0.34444 0.0
C489 C 0.68008 0.79239 0.34082 0.0
C490 C 0.77292 0.68329 0.31528 0.0
C491 C 0.77705 0.66658 0.33593 0.0
C492 C 0.74113 0.69939 0.31217 0.0
C493 C 0.71288 0.69916 0.32965 0.0
C494 C 0.71407 0.67861 0.34971 0.0
C495 C 0.7457 0.66228 0.3528 0.0
H496 H 0.10765 0.75554 0.70258 0.0
H497 H 0.12127 0.81466 0.63766 0.0
H498 H 0.02478 0.69992 0.69556 0.0
H499 H 0.03843 0.75936 0.63078 0.0
H500 H 0.88997 0.6519 0.62037 0.0
H501 H 0.9727 0.67763 0.6269 0.0
H502 H 0.9599 0.71758 0.69306 0.0
H503 H 0.8772 0.69157 0.68666 0.0
C504 C 0.09334 0.75595 0.68661 0.0
C505 C 0.12084 0.79019 0.67081 0.0
C506 C 0.04579 0.72416 0.68265 0.0
C507 C 0.02493 0.72574 0.66278 0.0
C508 C 0.05349 0.75707 0.64624 0.0
C509 C 0.10099 0.789 0.65023 0.0
C510 C 0.90446 0.66507 0.6365 0.0
C511 C 0.87722 0.67055 0.65289 0.0
C512 C 0.95191 0.67993 0.64018 0.0
C513 C 0.97296 0.70023 0.66036 0.0
C514 C 0.94467 0.70184 0.67736 0.0
C515 C 0.89726 0.68716 0.67366 0.0
H516 H 0.9555 0.09831 0.96699 0.0
H517 H 0.01431 0.24185 0.98956 0.0
H518 H 0.02491 0.09697 0.98064 0.0
H519 H 0.08269 0.24007 0.00363 0.0
H520 H 0.22124 0.24222 0.00313 0.0
H521 H 0.15064 0.23964 0.98911 0.0
H522 H 0.06606 0.09802 0.01418 0.0
H523 H 0.13719 0.10012 0.02777 0.0
C524 C 0.983 0.12939 0.97502 0.0
C525 C 0.97956 0.17028 0.97705 0.0
C526 C 0.02265 0.12855 0.98292 0.0
C527 C 0.05953 0.16857 0.99304 0.0
C528 C 0.05541 0.20899 -0.0045 0.0
C529 C 0.01601 0.20989 0.98755 0.0
C530 C 0.18764 0.21043 0.00562 0.0
C531 C 0.1848 0.17145 0.01667 0.0
C532 C 0.14709 0.20906 -0.00231 0.0
C533 C 0.10263 0.16881 0.00073 0.0
C534 C 0.09981 0.12944 0.01143 0.0
C535 C 0.14053 0.13073 0.0193 0.0
H536 H 0.84572 0.04239 0.26313 0.0
H537 H 0.77679 0.0047 0.3265 0.0
H538 H 0.91729 0.10407 0.28045 0.0
H539 H 0.84833 0.06652 0.34371 0.0
H540 H 0.96111 0.22255 0.35758 0.0
H541 H 0.89162 0.15615 0.34146 0.0
H542 H 0.98005 0.1126 0.30825 0.0
H543 H 0.04995 0.1791 0.3245 0.0
C544 C 0.84589 0.04714 0.28075 0.0
C545 C 0.80554 0.01888 0.29344 0.0
C546 C 0.88694 0.08222 0.29065 0.0
C547 C 0.8882 0.09006 0.31338 0.0
C548 C 0.84811 0.06141 0.32612 0.0
C549 C 0.80726 0.02596 0.31627 0.0
C550 C 0.9658 0.19876 0.3469 0.0
C551 C 0.011 0.20608 0.34227 0.0
C552 C 0.92598 0.16061 0.33779 0.0
C553 C 0.93054 0.1293 0.32365 0.0
C554 C 0.97567 0.13644 0.31903 0.0
C555 C 0.01556 0.17431 0.3284 0.0
H556 H 0.88329 0.86082 0.62694 0.0
H557 H 0.7445 0.7716 0.65424 0.0
H558 H 0.88439 0.92976 0.64273 0.0
H559 H 0.74612 0.84021 0.67046 0.0
H560 H 0.74116 0.97585 0.6748 0.0
H561 H 0.74223 0.90836 0.65889 0.0
H562 H 0.88825 0.96777 0.67748 0.0
H563 H 0.88754 0.03609 0.69295 0.0
C564 C 0.85318 0.85586 0.63644 0.0
C565 C 0.81371 0.81076 0.63924 0.0
C566 C 0.85391 0.89536 0.64559 0.0
C567 C 0.81525 0.89054 0.65777 0.0
C568 C 0.77614 0.84529 0.66084 0.0
C569 C 0.77533 0.80589 0.65164 0.0
C570 C 0.77355 0.97462 0.67548 0.0
C571 C 0.81425 0.01132 0.68519 0.0
C572 C 0.77408 0.93573 0.66647 0.0
C573 C 0.81524 0.93248 0.66703 0.0
C574 C 0.85609 0.96939 0.67658 0.0
C575 C 0.85561 0.00843 0.68555 0.0
H576 H 0.78783 0.80653 0.00658 0.0
H577 H 0.77637 0.69034 0.04506 0.0
H578 H 0.86084 0.81787 0.99032 0.0
H579 H 0.84971 0.70213 0.02896 0.0
H580 H 0.95078 0.7033 0.97639 0.0
H581 H 0.87847 0.69295 0.9929 0.0
H582 H 0.94303 0.8436 0.00092 0.0
H583 H 0.0154 0.85415 0.98413 0.0
C584 C 0.80094 0.78348 0.01162 0.0
C585 C 0.77624 0.74744 0.02708 0.0
C586 C 0.84292 0.7902 0.0024 0.0
C587 C 0.86099 0.76089 0.00836 0.0
C588 C 0.83636 0.72493 0.02386 0.0
C589 C 0.79447 0.71834 0.03315 0.0
C590 C 0.9496 0.73428 0.98163 0.0
C591 C 0.98885 0.77958 0.97892 0.0
C592 C 0.90824 0.72828 0.99123 0.0
C593 C 0.9051 0.76744 -0.00174 0.0
C594 C 0.94426 0.81278 -0.00453 0.0
C595 C 0.98577 0.81879 0.98595 0.0
H596 H 0.04398 0.83551 0.38909 0.0
H597 H 0.97573 0.78539 0.32625 0.0
H598 H 0.10626 0.90596 0.3714 0.0
H599 H 0.03845 0.85572 0.30855 0.0
H600 H 0.13774 0.00904 0.28787 0.0
H601 H 0.07239 0.94233 0.30654 0.0
H602 H 0.17142 0.92362 0.3459 0.0
H603 H 0.23658 0.99039 0.32751 0.0
C604 C 0.04217 0.83955 0.37152 0.0
C605 C 0.00503 0.80472 0.35906 0.0
C606 C 0.07799 0.87983 0.36138 0.0
C607 C 0.07736 0.88626 0.33858 0.0
C608 C 0.03967 0.85195 0.32618 0.0
C609 C 0.00391 0.81154 0.33631 0.0
C610 C 0.14554 0.99081 0.30057 0.0
C611 C 0.19236 0.00496 0.30617 0.0
C612 C 0.10812 0.95249 0.31118 0.0
C613 C 0.11679 0.92777 0.32768 0.0
C614 C 0.16359 0.94232 0.33344 0.0
C615 C 0.20094 0.98042 0.32279 0.0
H616 H 0.22755 0.002 0.66489 0.0
H617 H 0.17977 0.03153 0.72592 0.0
H618 H 0.21961 0.06412 0.6468 0.0
H619 H 0.17187 0.09367 0.70773 0.0
H620 H 0.11942 0.1683 0.66044 0.0
H621 H 0.12299 0.10275 0.67773 0.0
H622 H 0.26122 0.15273 0.64984 0.0
H623 H 0.25785 0.21811 0.63261 0.0
C624 C 0.21521 0.02161 0.67443 0.0
C625 C 0.20448 0.01199 0.69687 0.0
C626 C 0.21085 0.05728 0.66408 0.0
C627 C 0.19521 0.08371 0.67588 0.0
C628 C 0.18364 0.07355 0.69821 0.0
C629 C 0.18846 0.0382 0.70863 0.0
C630 C 0.15047 0.16516 0.65794 0.0
C631 C 0.18836 0.19838 0.64519 0.0
C632 C 0.15258 0.12782 0.66792 0.0
C633 C 0.19236 0.1227 0.66509 0.0
C634 C 0.22994 0.15558 0.65212 0.0
C635 C 0.22808 0.19315 0.64236 0.0
loop_
_geom_bond_atom_site_label_1
_geom_bond_atom_site_label_2
_geom_bond_distance
_geom_bond_site_symmetry_2
_ccdc_geom_bond_type
C0 O1 1.160 . S
C0 O7 1.185 . S
O1 C0 1.160 . S
O2 Zn3 1.899 . S
O2 C10 1.284 . S
Zn3 O2 1.899 . S
Zn3 O4 2.032 . S
Zn3 O7 2.086 . S
Zn3 O12 1.977 . S
O4 Zn3 2.032 . S
O4 C8 1.278 . S
C5 O6 1.203 . S
C5 O12 1.267 . S
O6 C5 1.203 . S
O7 C0 1.185 . S
O7 Zn3 2.086 . S
C8 O4 1.278 . S
C8 O9 1.211 . S
O9 C8 1.211 . S
C10 O2 1.284 . S
C10 O11 1.273 . S
O11 C10 1.273 . S
O12 Zn3 1.977 . S
O12 C5 1.267 . S
C13 O14 1.160 . S
C13 O20 1.185 . S
O14 C13 1.160 . S
O15 Zn16 1.899 . S
O15 C23 1.284 . S
Zn16 O15 1.899 . S
Zn16 O17 2.032 . S
Zn16 O20 2.086 . S
Zn16 O25 1.977 . S
O17 Zn16 2.032 . S
O17 C21 1.278 . S
C18 O19 1.203 . S
C18 O25 1.267 . S
O19 C18 1.203 . S
O20 C13 1.185 . S
O20 Zn16 2.086 . S
C21 O17 1.278 . S
C21 O22 1.211 . S
O22 C21 1.211 . S
C23 O15 1.284 . S
C23 O24 1.273 . S
O24 C23 1.273 . S
O25 Zn16 1.977 . S
O25 C18 1.267 . S
C26 O27 1.160 . S
C26 O33 1.185 . S
O27 C26 1.160 . S
O28 Zn29 1.899 . S
O28 C36 1.284 . S
Zn29 O28 1.899 . S
Zn29 O30 2.032 . S
Zn29 O33 2.086 . S
Zn29 O38 1.977 . S
O30 Zn29 2.032 . S
O30 C34 1.278 . S
C31 O32 1.203 . S
C31 O38 1.267 . S
O32 C31 1.203 . S
O33 C26 1.185 . S
O33 Zn29 2.086 . S
C34 O30 1.278 . S
C34 O35 1.211 . S
O35 C34 1.211 . S
C36 O28 1.284 . S
C36 O37 1.273 . S
O37 C36 1.273 . S
O38 Zn29 1.977 . S
O38 C31 1.267 . S
C39 O40 1.160 . S
C39 O46 1.185 . S
O40 C39 1.160 . S
O41 Zn42 1.899 . S
O41 C49 1.284 . S
Zn42 O41 1.899 . S
Zn42 O43 2.032 . S
Zn42 O46 2.086 . S
Zn42 O51 1.977 . S
O43 Zn42 2.032 . S
O43 C47 1.278 . S
C44 O45 1.203 . S
C44 O51 1.267 . S
O45 C44 1.203 . S
O46 C39 1.185 . S
O46 Zn42 2.086 . S
C47 O43 1.278 . S
C47 O48 1.211 . S
O48 C47 1.211 . S
C49 O41 1.284 . S
C49 O50 1.273 . S
O50 C49 1.273 . S
O51 Zn42 1.977 . S
O51 C44 1.267 . S
C52 O53 1.160 . S
C52 O59 1.185 . S
O53 C52 1.160 . S
O54 Zn55 1.899 . S
O54 C62 1.284 . S
Zn55 O54 1.899 . S
Zn55 O56 2.032 . S
Zn55 O59 2.086 . S
Zn55 O64 1.977 . S
O56 Zn55 2.032 . S
O56 C60 1.278 . S
C57 O58 1.203 . S
C57 O64 1.267 . S
O58 C57 1.203 . S
O59 C52 1.185 . S
O59 Zn55 2.086 . S
C60 O56 1.278 . S
C60 O61 1.211 . S
O61 C60 1.211 . S
C62 O54 1.284 . S
C62 O63 1.273 . S
O63 C62 1.273 . S
O64 Zn55 1.977 . S
O64 C57 1.267 . S
C65 O66 1.160 . S
C65 O72 1.185 . S
O66 C65 1.160 . S
O67 Zn68 1.899 . S
O67 C75 1.284 . S
Zn68 O67 1.899 . S
Zn68 O69 2.032 . S
Zn68 O72 2.086 . S
Zn68 O77 1.977 . S
O69 Zn68 2.032 . S
O69 C73 1.278 . S
C70 O71 1.203 . S
C70 O77 1.267 . S
O71 C70 1.203 . S
O72 C65 1.185 . S
O72 Zn68 2.086 . S
C73 O69 1.278 . S
C73 O74 1.211 . S
O74 C73 1.211 . S
C75 O67 1.284 . S
C75 O76 1.273 . S
O76 C75 1.273 . S
O77 Zn68 1.977 . S
O77 C70 1.267 . S
C78 O79 1.160 . S
C78 O85 1.185 . S
O79 C78 1.160 . S
O80 Zn81 1.899 . S
O80 C88 1.284 . S
Zn81 O80 1.899 . S
Zn81 O82 2.032 . S
Zn81 O85 2.086 . S
Zn81 O90 1.977 . S
O82 Zn81 2.032 . S
O82 C86 1.278 . S
C83 O84 1.203 . S
C83 O90 1.267 . S
O84 C83 1.203 . S
O85 C78 1.185 . S
O85 Zn81 2.086 . S
C86 O82 1.278 . S
C86 O87 1.211 . S
O87 C86 1.211 . S
C88 O80 1.284 . S
C88 O89 1.273 . S
O89 C88 1.273 . S
O90 Zn81 1.977 . S
O90 C83 1.267 . S
C91 O92 1.160 . S
C91 O98 1.185 . S
O92 C91 1.160 . S
O93 Zn94 1.899 . S
O93 C101 1.284 . S
Zn94 O93 1.899 . S
Zn94 O95 2.032 . S
Zn94 O98 2.086 . S
Zn94 O103 1.977 . S
O95 Zn94 2.032 . S
O95 C99 1.278 . S
C96 O97 1.203 . S
C96 O103 1.267 . S
O97 C96 1.203 . S
O98 C91 1.185 . S
O98 Zn94 2.086 . S
C99 O95 1.278 . S
C99 O100 1.211 . S
O100 C99 1.211 . S
C101 O93 1.284 . S
C101 O102 1.273 . S
O102 C101 1.273 . S
O103 Zn94 1.977 . S
O103 C96 1.267 . S
C104 O105 1.160 . S
C104 O111 1.185 . S
O105 C104 1.160 . S
O106 Zn107 1.899 . S
O106 C114 1.284 . S
Zn107 O106 1.899 . S
Zn107 O108 2.032 . S
Zn107 O111 2.086 . S
Zn107 O116 1.977 . S
O108 Zn107 2.032 . S
O108 C112 1.278 . S
C109 O110 1.203 . S
C109 O116 1.267 . S
O110 C109 1.203 . S
O111 C104 1.185 . S
O111 Zn107 2.086 . S
C112 O108 1.278 . S
C112 O113 1.211 . S
O113 C112 1.211 . S
C114 O106 1.284 . S
C114 O115 1.273 . S
O115 C114 1.273 . S
O116 Zn107 1.977 . S
O116 C109 1.267 . S
C117 O118 1.160 . S
C117 O124 1.185 . S
O118 C117 1.160 . S
O119 Zn120 1.899 . S
O119 C127 1.284 . S
Zn120 O119 1.899 . S
Zn120 O121 2.032 . S
Zn120 O124 2.086 . S
Zn120 O129 1.977 . S
O121 Zn120 2.032 . S
O121 C125 1.278 . S
C122 O123 1.203 . S
C122 O129 1.267 . S
O123 C122 1.203 . S
O124 C117 1.185 . S
O124 Zn120 2.086 . S
C125 O121 1.278 . S
C125 O126 1.211 . S
O126 C125 1.211 . S
C127 O119 1.284 . S
C127 O128 1.273 . S
O128 C127 1.273 . S
O129 Zn120 1.977 . S
O129 C122 1.267 . S
C130 O131 1.160 . S
C130 O137 1.185 . S
O131 C130 1.160 . S
O132 Zn133 1.899 . S
O132 C140 1.284 . S
Zn133 O132 1.899 . S
Zn133 O134 2.032 . S
Zn133 O137 2.086 . S
Zn133 O142 1.977 . S
O134 Zn133 2.032 . S
O134 C138 1.278 . S
C135 O136 1.203 . S
C135 O142 1.267 . S
O136 C135 1.203 . S
O137 C130 1.185 . S
O137 Zn133 2.086 . S
C138 O134 1.278 . S
C138 O139 1.211 . S
O139 C138 1.211 . S
C140 O132 1.284 . S
C140 O141 1.273 . S
O141 C140 1.273 . S
O142 Zn133 1.977 . S
O142 C135 1.267 . S
C143 O144 1.160 . S
C143 O150 1.185 . S
O144 C143 1.160 . S
O145 Zn146 1.899 . S
O145 C153 1.284 . S
Zn146 O145 1.899 . S
Zn146 O147 2.032 . S
Zn146 O150 2.086 . S
Zn146 O155 1.977 . S
O147 Zn146 2.032 . S
O147 C151 1.278 . S
C148 O149 1.203 . S
C148 O155 1.267 . S
O149 C148 1.203 . S
O150 C143 1.185 . S
O150 Zn146 2.086 . S
C151 O147 1.278 . S
C151 O152 1.211 . S
O152 C151 1.211 . S
C153 O145 1.284 . S
C153 O154 1.273 . S
O154 C153 1.273 . S
O155 Zn146 1.977 . S
O155 C148 1.267 . S
H156 C164 0.950 . S
H157 C169 0.950 . S
H158 C166 0.950 . S
H159 C168 0.950 . S
H160 C170 0.950 . S
H161 C172 0.950 . S
H162 C174 0.950 . S
H163 C175 0.950 . S
C164 H156 0.950 . S
C164 C165 1.386 . S
C164 C166 1.391 . S
C165 C164 1.386 . S
C165 C169 1.393 . S
C166 H158 0.950 . S
C166 C164 1.391 . S
C166 C167 1.400 . S
C167 C166 1.400 . S
C167 C168 1.398 . S
C167 C173 1.491 . S
C168 H159 0.950 . S
C168 C167 1.398 . S
C168 C169 1.391 . S
C169 H157 0.950 . S
C169 C165 1.393 . S
C169 C168 1.391 . S
C170 H160 0.950 . S
C170 C171 1.386 . S
C170 C172 1.391 . S
C171 C170 1.386 . S
C171 C175 1.393 . S
C172 H161 0.950 . S
C172 C170 1.391 . S
C172 C173 1.400 . S
C173 C167 1.491 . S
C173 C172 1.400 . S
C173 C174 1.398 . S
C174 H162 0.950 . S
C174 C173 1.398 . S
C174 C175 1.391 . S
C175 H163 0.950 . S
C175 C171 1.393 . S
C175 C174 1.391 . S
H176 C184 0.950 . S
H177 C189 0.950 . S
H178 C186 0.950 . S
H179 C188 0.950 1_655 S
H180 C190 0.950 . S
H181 C192 0.950 . S
H182 C194 0.950 1_455 S
H183 C195 0.950 . S
C184 H176 0.950 . S
C184 C185 1.386 . S
C184 C186 1.391 . S
C185 C184 1.386 . S
C185 C189 1.393 . S
C186 H178 0.950 . S
C186 C184 1.391 . S
C186 C187 1.400 . S
C187 C186 1.400 . S
C187 C188 1.398 . S
C187 C193 1.491 1_455 S
C188 H179 0.950 1_455 S
C188 C187 1.398 . S
C188 C189 1.391 . S
C189 H177 0.950 . S
C189 C185 1.393 . S
C189 C188 1.391 . S
C190 H180 0.950 . S
C190 C191 1.386 . S
C190 C192 1.391 . S
C191 C190 1.386 . S
C191 C195 1.393 . S
C192 H181 0.950 . S
C192 C190 1.391 . S
C192 C193 1.400 . S
C193 C187 1.491 1_655 S
C193 C192 1.400 . S
C193 C194 1.398 . S
C194 H182 0.950 1_655 S
C194 C193 1.398 . S
C194 C195 1.391 . S
C195 H183 0.950 . S
C195 C191 1.393 . S
C195 C194 1.391 . S
H196 C204 0.950 . S
H197 C209 0.950 . S
H198 C206 0.950 . S
H199 C208 0.950 1_545 S
H200 C210 0.950 . S
H201 C212 0.950 . S
H202 C214 0.950 1_565 S
H203 C215 0.950 . S
C204 H196 0.950 . S
C204 C205 1.386 . S
C204 C206 1.391 . S
C205 C204 1.386 . S
C205 C209 1.393 . S
C206 H198 0.950 . S
C206 C204 1.391 . S
C206 C207 1.400 . S
C207 C206 1.400 . S
C207 C208 1.398 . S
C207 C213 1.491 1_565 S
C208 H199 0.950 1_565 S
C208 C207 1.398 . S
C208 C209 1.391 . S
C209 H197 0.950 . S
C209 C205 1.393 . S
C209 C208 1.391 . S
C210 H200 0.950 . S
C210 C211 1.386 . S
C210 C212 1.391 . S
C211 C210 1.386 . S
C211 C215 1.393 . S
C212 H201 0.950 . S
C212 C210 1.391 . S
C212 C213 1.400 . S
C213 C207 1.491 1_545 S
C213 C212 1.400 . S
C213 C214 1.398 . S
C214 H202 0.950 1_545 S
C214 C213 1.398 . S
C214 C215 1.391 . S
C215 H203 0.950 . S
C215 C211 1.393 . S
C215 C214 1.391 . S
H216 C224 0.950 . S
H217 C229 0.950 . S
H218 C226 0.950 . S
H219 C228 0.950 . S
H220 C230 0.950 . S
H221 C232 0.950 . S
H222 C234 0.950 . S
H223 C235 0.950 . S
C224 H216 0.950 . S
C224 C225 1.386 . S
C224 C226 1.391 . S
C225 C224 1.386 . S
C225 C229 1.393 . S
C226 H218 0.950 . S
C226 C224 1.391 . S
C226 C227 1.400 . S
C227 C226 1.400 . S
C227 C228 1.398 . S
C227 C233 1.491 . S
C228 H219 0.950 . S
C228 C227 1.398 . S
C228 C229 1.391 . S
C229 H217 0.950 . S
C229 C225 1.393 . S
C229 C228 1.391 . S
C230 H220 0.950 . S
C230 C231 1.386 . S
C230 C232 1.391 . S
C231 C230 1.386 . S
C231 C235 1.393 . S
C232 H221 0.950 . S
C232 C230 1.391 . S
C232 C233 1.400 . S
C233 C227 1.491 . S
C233 C232 1.400 . S
C233 C234 1.398 . S
C234 H222 0.950 . S
C234 C233 1.398 . S
C234 C235 1.391 . S
C235 H223 0.950 . S
C235 C231 1.393 . S
C235 C234 1.391 . S
H236 C244 0.950 . S
H237 C249 0.950 . S
H238 C246 0.950 . S
H239 C248 0.950 . S
H240 C250 0.950 . S
H241 C252 0.950 . S
H242 C254 0.950 . S
H243 C255 0.950 . S
C244 H236 0.950 . S
C244 C245 1.386 . S
C244 C246 1.391 . S
C245 C244 1.386 . S
C245 C249 1.393 . S
C246 H238 0.950 . S
C246 C244 1.391 . S
C246 C247 1.400 . S
C247 C246 1.400 . S
C247 C248 1.398 1_655 S
C247 C253 1.491 1_655 S
C248 H239 0.950 . S
C248 C247 1.398 1_455 S
C248 C249 1.391 1_455 S
C249 H237 0.950 . S
C249 C245 1.393 . S
C249 C248 1.391 1_655 S
C250 H240 0.950 . S
C250 C251 1.386 . S
C250 C252 1.391 . S
C251 C250 1.386 . S
C251 C255 1.393 . S
C252 H241 0.950 . S
C252 C250 1.391 . S
C252 C253 1.400 . S
C253 C247 1.491 1_455 S
C253 C252 1.400 . S
C253 C254 1.398 1_455 S
C254 H242 0.950 . S
C254 C253 1.398 1_655 S
C254 C255 1.391 1_655 S
C255 H243 0.950 . S
C255 C251 1.393 . S
C255 C254 1.391 1_455 S
H256 C264 0.950 . S
H257 C269 0.950 . S
H258 C266 0.950 . S
H259 C268 0.950 . S
H260 C270 0.950 . S
H261 C272 0.950 . S
H262 C274 0.950 . S
H263 C275 0.950 . S
C264 H256 0.950 . S
C264 C265 1.386 . S
C264 C266 1.391 . S
C265 C264 1.386 . S
C265 C269 1.393 . S
C266 H258 0.950 . S
C266 C264 1.391 . S
C266 C267 1.400 . S
C267 C266 1.400 . S
C267 C268 1.398 . S
C267 C273 1.491 1_545 S
C268 H259 0.950 . S
C268 C267 1.398 . S
C268 C269 1.391 . S
C269 H257 0.950 . S
C269 C265 1.393 . S
C269 C268 1.391 . S
C270 H260 0.950 . S
C270 C271 1.386 . S
C270 C272 1.391 . S
C271 C270 1.386 . S
C271 C275 1.393 . S
C272 H261 0.950 . S
C272 C270 1.391 . S
C272 C273 1.400 . S
C273 C267 1.491 1_565 S
C273 C272 1.400 . S
C273 C274 1.398 . S
C274 H262 0.950 . S
C274 C273 1.398 . S
C274 C275 1.391 . S
C275 H263 0.950 . S
C275 C271 1.393 . S
C275 C274 1.391 . S
H276 C284 0.950 . S
H277 C289 0.950 . S
H278 C286 0.950 . S
H279 C288 0.950 . S
H280 C290 0.950 . S
H281 C292 0.950 . S
H282 C294 0.950 . S
H283 C295 0.950 . S
C284 H276 0.950 . S
C284 C285 1.386 . S
C284 C286 1.391 . S
C285 C284 1.386 . S
C285 C289 1.393 . S
C286 H278 0.950 . S
C286 C284 1.391 . S
C286 C287 1.400 . S
C287 C286 1.400 . S
C287 C288 1.398 . S
C287 C293 1.491 . S
C288 H279 0.950 . S
C288 C287 1.398 . S
C288 C289 1.391 . S
C289 H277 0.950 . S
C289 C285 1.393 . S
C289 C288 1.391 . S
C290 H280 0.950 . S
C290 C291 1.386 . S
C290 C292 1.391 . S
C291 C290 1.386 . S
C291 C295 1.393 . S
C292 H281 0.950 . S
C292 C290 1.391 . S
C292 C293 1.400 . S
C293 C287 1.491 . S
C293 C292 1.400 . S
C293 C294 1.398 . S
C294 H282 0.950 . S
C294 C293 1.398 . S
C294 C295 1.391 . S
C295 H283 0.950 . S
C295 C291 1.393 . S
C295 C294 1.391 . S
H296 C304 0.950 . S
H297 C309 0.950 . S
H298 C306 0.950 . S
H299 C308 0.950 . S
H300 C310 0.950 . S
H301 C312 0.950 . S
H302 C314 0.950 . S
H303 C315 0.950 . S
C304 H296 0.950 . S
C304 C305 1.386 . S
C304 C306 1.391 . S
C305 C304 1.386 . S
C305 C309 1.393 . S
C306 H298 0.950 . S
C306 C304 1.391 . S
C306 C307 1.400 . S
C307 C306 1.400 . S
C307 C308 1.398 . S
C307 C313 1.491 . S
C308 H299 0.950 . S
C308 C307 1.398 . S
C308 C309 1.391 . S
C309 H297 0.950 . S
C309 C305 1.393 . S
C309 C308 1.391 . S
C310 H300 0.950 . S
C310 C311 1.386 . S
C310 C312 1.391 . S
C311 C310 1.386 . S
C311 C315 1.393 . S
C312 H301 0.950 . S
C312 C310 1.391 . S
C312 C313 1.400 . S
C313 C307 1.491 . S
C313 C312 1.400 . S
C313 C314 1.398 . S
C314 H302 0.950 . S
C314 C313 1.398 . S
C314 C315 1.391 . S
C315 H303 0.950 . S
C315 C311 1.393 . S
C315 C314 1.391 . S
H316 C324 0.950 . S
H317 C329 0.950 . S
H318 C326 0.950 . S
H319 C328 0.950 . S
H320 C330 0.950 . S
H321 C332 0.950 . S
H322 C334 0.950 . S
H323 C335 0.950 . S
C324 H316 0.950 . S
C324 C325 1.386 . S
C324 C326 1.391 . S
C325 C324 1.386 . S
C325 C329 1.393 . S
C326 H318 0.950 . S
C326 C324 1.391 . S
C326 C327 1.400 . S
C327 C326 1.400 . S
C327 C328 1.398 . S
C327 C333 1.491 . S
C328 H319 0.950 . S
C328 C327 1.398 . S
C328 C329 1.391 . S
C329 H317 0.950 . S
C329 C325 1.393 . S
C329 C328 1.391 . S
C330 H320 0.950 . S
C330 C331 1.386 . S
C330 C332 1.391 . S
C331 C330 1.386 . S
C331 C335 1.393 . S
C332 H321 0.950 . S
C332 C330 1.391 . S
C332 C333 1.400 . S
C333 C327 1.491 . S
C333 C332 1.400 . S
C333 C334 1.398 . S
C334 H322 0.950 . S
C334 C333 1.398 . S
C334 C335 1.391 . S
C335 H323 0.950 . S
C335 C331 1.393 . S
C335 C334 1.391 . S
H336 C344 0.950 . S
H337 C349 0.950 . S
H338 C346 0.950 . S
H339 C348 0.950 . S
H340 C350 0.950 . S
H341 C352 0.950 . S
H342 C354 0.950 . S
H343 C355 0.950 . S
C344 H336 0.950 . S
C344 C345 1.386 . S
C344 C346 1.391 . S
C345 C344 1.386 . S
C345 C349 1.393 . S
C346 H338 0.950 . S
C346 C344 1.391 . S
C346 C347 1.400 . S
C347 C346 1.400 . S
C347 C348 1.398 . S
C347 C353 1.491 . S
C348 H339 0.950 . S
C348 C347 1.398 . S
C348 C349 1.391 . S
C349 H337 0.950 . S
C349 C345 1.393 . S
C349 C348 1.391 . S
C350 H340 0.950 . S
C350 C351 1.386 . S
C350 C352 1.391 . S
C351 C350 1.386 . S
C351 C355 1.393 . S
C352 H341 0.950 . S
C352 C350 1.391 . S
C352 C353 1.400 . S
C353 C347 1.491 . S
C353 C352 1.400 . S
C353 C354 1.398 . S
C354 H342 0.950 . S
C354 C353 1.398 . S
C354 C355 1.391 . S
C355 H343 0.950 . S
C355 C351 1.393 . S
C355 C354 1.391 . S
H356 C364 0.950 . S
H357 C369 0.950 . S
H358 C366 0.950 . S
H359 C368 0.950 . S
H360 C370 0.950 . S
H361 C372 0.950 . S
H362 C374 0.950 . S
H363 C375 0.950 . S
C364 H356 0.950 . S
C364 C365 1.386 . S
C364 C366 1.391 . S
C365 C364 1.386 . S
C365 C369 1.393 . S
C366 H358 0.950 . S
C366 C364 1.391 . S
C366 C367 1.400 . S
C367 C366 1.400 . S
C367 C368 1.398 . S
C367 C373 1.491 . S
C368 H359 0.950 . S
C368 C367 1.398 . S
C368 C369 1.391 . S
C369 H357 0.950 . S
C369 C365 1.393 . S
C369 C368 1.391 . S
C370 H360 0.950 . S
C370 C371 1.386 . S
C370 C372 1.391 . S
C371 C370 1.386 . S
C371 C375 1.393 . S
C372 H361 0.950 . S
C372 C370 1.391 . S
C372 C373 1.400 . S
C373 C367 1.491 . S
C373 C372 1.400 . S
C373 C374 1.398 . S
C374 H362 0.950 . S
C374 C373 1.398 . S
C374 C375 1.391 . S
C375 H363 0.950 . S
C375 C371 1.393 . S
C375 C374 1.391 . S
H376 C384 0.950 . S
H377 C389 0.950 . S
H378 C386 0.950 . S
H379 C388 0.950 . S
H380 C390 0.950 . S
H381 C392 0.950 . S
H382 C394 0.950 . S
H383 C395 0.950 . S
C384 H376 0.950 . S
C384 C385 1.386 . S
C384 C386 1.391 . S
C385 C384 1.386 . S
C385 C389 1.393 . S
C386 H378 0.950 . S
C386 C384 1.391 . S
C386 C387 1.400 . S
C387 C386 1.400 . S
C387 C388 1.398 . S
C387 C393 1.491 . S
C388 H379 0.950 . S
C388 C387 1.398 . S
C388 C389 1.391 . S
C389 H377 0.950 . S
C389 C385 1.393 . S
C389 C388 1.391 . S
C390 H380 0.950 . S
C390 C391 1.386 . S
C390 C392 1.391 . S
C391 C390 1.386 . S
C391 C395 1.393 . S
C392 H381 0.950 . S
C392 C390 1.391 . S
C392 C393 1.400 . S
C393 C387 1.491 . S
C393 C392 1.400 . S
C393 C394 1.398 . S
C394 H382 0.950 . S
C394 C393 1.398 . S
C394 C395 1.391 . S
C395 H383 0.950 . S
C395 C391 1.393 . S
C395 C394 1.391 . S
H396 C404 0.950 . S
H397 C409 0.950 . S
H398 C406 0.950 . S
H399 C408 0.950 . S
H400 C410 0.950 . S
H401 C412 0.950 . S
H402 C414 0.950 . S
H403 C415 0.950 . S
C404 H396 0.950 . S
C404 C405 1.386 . S
C404 C406 1.391 . S
C405 C404 1.386 . S
C405 C409 1.393 1_556 S
C406 H398 0.950 . S
C406 C404 1.391 . S
C406 C407 1.400 . S
C407 C406 1.400 . S
C407 C408 1.398 1_556 S
C407 C413 1.491 1_566 S
C408 H399 0.950 . S
C408 C407 1.398 1_554 S
C408 C409 1.391 . S
C409 H397 0.950 . S
C409 C405 1.393 1_554 S
C409 C408 1.391 . S
C410 H400 0.950 . S
C410 C411 1.386 . S
C410 C412 1.391 . S
C411 C410 1.386 . S
C411 C415 1.393 1_554 S
C412 H401 0.950 . S
C412 C410 1.391 . S
C412 C413 1.400 . S
C413 C407 1.491 1_544 S
C413 C412 1.400 . S
C413 C414 1.398 1_554 S
C414 H402 0.950 . S
C414 C413 1.398 1_556 S
C414 C415 1.391 . S
C415 H403 0.950 . S
C415 C411 1.393 1_556 S
C415 C414 1.391 . S
H416 C424 0.950 . S
H417 C429 0.950 . S
H418 C426 0.950 . S
H419 C428 0.950 . S
H420 C430 0.950 . S
H421 C432 0.950 . S
H422 C434 0.950 . S
H423 C435 0.950 . S
C424 H416 0.950 . S
C424 C425 1.386 . S
C424 C426 1.391 . S
C425 C424 1.386 . S
C425 C429 1.393 . S
C426 H418 0.950 . S
C426 C424 1.391 . S
C426 C427 1.400 . S
C427 C426 1.400 . S
C427 C428 1.398 . S
C427 C433 1.491 . S
C428 H419 0.950 . S
C428 C427 1.398 . S
C428 C429 1.391 . S
C429 H417 0.950 . S
C429 C425 1.393 . S
C429 C428 1.391 . S
C430 H420 0.950 . S
C430 C431 1.386 . S
C430 C432 1.391 . S
C431 C430 1.386 . S
C431 C435 1.393 . S
C432 H421 0.950 . S
C432 C430 1.391 . S
C432 C433 1.400 . S
C433 C427 1.491 . S
C433 C432 1.400 . S
C433 C434 1.398 . S
C434 H422 0.950 . S
C434 C433 1.398 . S
C434 C435 1.391 . S
C435 H423 0.950 . S
C435 C431 1.393 . S
C435 C434 1.391 . S
H436 C444 0.950 . S
H437 C449 0.950 . S
H438 C446 0.950 . S
H439 C448 0.950 . S
H440 C450 0.950 . S
H441 C452 0.950 . S
H442 C454 0.950 . S
H443 C455 0.950 . S
C444 H436 0.950 . S
C444 C445 1.386 . S
C444 C446 1.391 . S
C445 C444 1.386 . S
C445 C449 1.393 . S
C446 H438 0.950 . S
C446 C444 1.391 . S
C446 C447 1.400 . S
C447 C446 1.400 . S
C447 C448 1.398 . S
C447 C453 1.491 1_655 S
C448 H439 0.950 . S
C448 C447 1.398 . S
C448 C449 1.391 . S
C449 H437 0.950 . S
C449 C445 1.393 . S
C449 C448 1.391 . S
C450 H440 0.950 . S
C450 C451 1.386 . S
C450 C452 1.391 . S
C451 C450 1.386 . S
C451 C455 1.393 . S
C452 H441 0.950 . S
C452 C450 1.391 . S
C452 C453 1.400 . S
C453 C447 1.491 1_455 S
C453 C452 1.400 . S
C453 C454 1.398 . S
C454 H442 0.950 . S
C454 C453 1.398 . S
C454 C455 1.391 . S
C455 H443 0.950 . S
C455 C451 1.393 . S
C455 C454 1.391 . S
H456 C464 0.950 . S
H457 C469 0.950 . S
H458 C466 0.950 . S
H459 C468 0.950 . S
H460 C470 0.950 . S
H461 C472 0.950 . S
H462 C474 0.950 . S
H463 C475 0.950 . S
C464 H456 0.950 . S
C464 C465 1.386 . S
C464 C466 1.391 . S
C465 C464 1.386 . S
C465 C469 1.393 . S
C466 H458 0.950 . S
C466 C464 1.391 . S
C466 C467 1.400 . S
C467 C466 1.400 . S
C467 C468 1.398 . S
C467 C473 1.491 1_564 S
C468 H459 0.950 . S
C468 C467 1.398 . S
C468 C469 1.391 . S
C469 H457 0.950 . S
C469 C465 1.393 . S
C469 C468 1.391 . S
C470 H460 0.950 . S
C470 C471 1.386 . S
C470 C472 1.391 . S
C471 C470 1.386 . S
C471 C475 1.393 . S
C472 H461 0.950 . S
C472 C470 1.391 . S
C472 C473 1.400 . S
C473 C467 1.491 1_546 S
C473 C472 1.400 . S
C473 C474 1.398 . S
C474 H462 0.950 . S
C474 C473 1.398 . S
C474 C475 1.391 . S
C475 H463 0.950 . S
C475 C471 1.393 . S
C475 C474 1.391 . S
H476 C484 0.950 . S
H477 C489 0.950 . S
H478 C486 0.950 . S
H479 C488 0.950 . S
H480 C490 0.950 . S
H481 C492 0.950 . S
H482 C494 0.950 . S
H483 C495 0.950 . S
C484 H476 0.950 . S
C484 C485 1.386 . S
C484 C486 1.391 . S
C485 C484 1.386 . S
C485 C489 1.393 . S
C486 H478 0.950 . S
C486 C484 1.391 . S
C486 C487 1.400 . S
C487 C486 1.400 . S
C487 C488 1.398 . S
C487 C493 1.491 . S
C488 H479 0.950 . S
C488 C487 1.398 . S
C488 C489 1.391 . S
C489 H477 0.950 . S
C489 C485 1.393 . S
C489 C488 1.391 . S
C490 H480 0.950 . S
C490 C491 1.386 . S
C490 C492 1.391 . S
C491 C490 1.386 . S
C491 C495 1.393 . S
C492 H481 0.950 . S
C492 C490 1.391 . S
C492 C493 1.400 . S
C493 C487 1.491 . S
C493 C492 1.400 . S
C493 C494 1.398 . S
C494 H482 0.950 . S
C494 C493 1.398 . S
C494 C495 1.391 . S
C495 H483 0.950 . S
C495 C491 1.393 . S
C495 C494 1.391 . S
H496 C504 0.950 . S
H497 C509 0.950 . S
H498 C506 0.950 . S
H499 C508 0.950 . S
H500 C510 0.950 . S
H501 C512 0.950 . S
H502 C514 0.950 . S
H503 C515 0.950 . S
C504 H496 0.950 . S
C504 C505 1.386 . S
C504 C506 1.391 . S
C505 C504 1.386 . S
C505 C509 1.393 . S
C506 H498 0.950 . S
C506 C504 1.391 . S
C506 C507 1.400 . S
C507 C506 1.400 . S
C507 C508 1.398 . S
C507 C513 1.491 1_455 S
C508 H499 0.950 . S
C508 C507 1.398 . S
C508 C509 1.391 . S
C509 H497 0.950 . S
C509 C505 1.393 . S
C509 C508 1.391 . S
C510 H500 0.950 . S
C510 C511 1.386 . S
C510 C512 1.391 . S
C511 C510 1.386 . S
C511 C515 1.393 . S
C512 H501 0.950 . S
C512 C510 1.391 . S
C512 C513 1.400 . S
C513 C507 1.491 1_655 S
C513 C512 1.400 . S
C513 C514 1.398 . S
C514 H502 0.950 . S
C514 C513 1.398 . S
C514 C515 1.391 . S
C515 H503 0.950 . S
C515 C511 1.393 . S
C515 C514 1.391 . S
H516 C524 0.950 1_655 S
H517 C529 0.950 . S
H518 C526 0.939 1_554 S
H519 C528 0.950 . S
H520 C530 0.950 . S
H521 C532 0.939 1_556 S
H522 C534 0.950 . S
H523 C535 0.950 . S
C524 H516 0.950 1_455 S
C524 C525 1.386 . S
C524 C526 1.391 . S
C525 C524 1.386 . S
C525 C529 1.393 . S
C526 H518 0.939 1_556 S
C526 C524 1.391 . S
C526 C527 1.400 . S
C527 C526 1.400 . S
C527 C528 1.398 . S
C527 C533 1.491 1_556 S
C528 H519 0.950 . S
C528 C527 1.398 . S
C528 C529 1.391 . S
C529 H517 0.950 . S
C529 C525 1.393 . S
C529 C528 1.391 . S
C530 H520 0.950 . S
C530 C531 1.386 . S
C530 C532 1.391 . S
C531 C530 1.386 . S
C531 C535 1.393 . S
C532 H521 0.939 1_554 S
C532 C530 1.391 . S
C532 C533 1.400 . S
C533 C527 1.491 1_554 S
C533 C532 1.400 . S
C533 C534 1.398 . S
C534 H522 0.950 . S
C534 C533 1.398 . S
C534 C535 1.391 . S
C535 H523 0.950 . S
C535 C531 1.393 . S
C535 C534 1.391 . S
H536 C544 0.950 . S
H537 C549 0.950 . S
H538 C546 0.950 . S
H539 C548 0.950 . S
H540 C550 0.950 . S
H541 C552 0.950 . S
H542 C554 0.950 . S
H543 C555 0.950 1_455 S
C544 H536 0.950 . S
C544 C545 1.386 . S
C544 C546 1.391 . S
C545 C544 1.386 . S
C545 C549 1.393 . S
C546 H538 0.950 . S
C546 C544 1.391 . S
C546 C547 1.400 . S
C547 C546 1.400 . S
C547 C548 1.398 . S
C547 C553 1.491 . S
C548 H539 0.950 . S
C548 C547 1.398 . S
C548 C549 1.391 . S
C549 H537 0.950 . S
C549 C545 1.393 . S
C549 C548 1.391 . S
C550 H540 0.950 . S
C550 C551 1.386 . S
C550 C552 1.391 . S
C551 C550 1.386 . S
C551 C555 1.393 . S
C552 H541 0.950 . S
C552 C550 1.391 . S
C552 C553 1.400 . S
C553 C547 1.491 . S
C553 C552 1.400 . S
C553 C554 1.398 . S
C554 H542 0.950 . S
C554 C553 1.398 . S
C554 C555 1.391 . S
C555 H543 0.950 1_655 S
C555 C551 1.393 . S
C555 C554 1.391 . S
H556 C564 0.950 . S
H557 C569 0.950 . S
H558 C566 0.950 . S
H559 C568 0.950 . S
H560 C570 0.950 . S
H561 C572 0.950 . S
H562 C574 0.950 . S
H563 C575 0.950 1_545 S
C564 H556 0.950 . S
C564 C565 1.386 . S
C564 C566 1.391 . S
C565 C564 1.386 . S
C565 C569 1.393 . S
C566 H558 0.950 . S
C566 C564 1.391 . S
C566 C567 1.400 . S
C567 C566 1.400 . S
C567 C568 1.398 . S
C567 C573 1.491 . S
C568 H559 0.950 . S
C568 C567 1.398 . S
C568 C569 1.391 . S
C569 H557 0.950 . S
C569 C565 1.393 . S
C569 C568 1.391 . S
C570 H560 0.950 . S
C570 C571 1.386 . S
C570 C572 1.391 . S
C571 C570 1.386 . S
C571 C575 1.393 . S
C572 H561 0.950 . S
C572 C570 1.391 . S
C572 C573 1.400 . S
C573 C567 1.491 . S
C573 C572 1.400 . S
C573 C574 1.398 . S
C574 H562 0.950 . S
C574 C573 1.398 . S
C574 C575 1.391 . S
C575 H563 0.950 1_565 S
C575 C571 1.393 . S
C575 C574 1.391 . S
H576 C584 0.950 . S
H577 C589 0.950 . S
H578 C586 0.950 . S
H579 C588 0.950 . S
H580 C590 0.950 . S
H581 C592 0.950 . S
H582 C594 0.950 . S
H583 C595 0.950 . S
C584 H576 0.950 . S
C584 C585 1.386 . S
C584 C586 1.391 1_554 S
C585 C584 1.386 . S
C585 C589 1.393 . S
C586 H578 0.950 . S
C586 C584 1.391 1_556 S
C586 C587 1.400 1_556 S
C587 C586 1.400 1_554 S
C587 C588 1.398 . S
C587 C593 1.491 1_554 S
C588 H579 0.950 . S
C588 C587 1.398 . S
C588 C589 1.391 . S
C589 H577 0.950 . S
C589 C585 1.393 . S
C589 C588 1.391 . S
C590 H580 0.950 . S
C590 C591 1.386 . S
C590 C592 1.391 1_556 S
C591 C590 1.386 . S
C591 C595 1.393 . S
C592 H581 0.950 . S
C592 C590 1.391 1_554 S
C592 C593 1.400 1_554 S
C593 C587 1.491 1_556 S
C593 C592 1.400 1_556 S
C593 C594 1.398 . S
C594 H582 0.950 . S
C594 C593 1.398 . S
C594 C595 1.391 . S
C595 H583 0.950 . S
C595 C591 1.393 . S
C595 C594 1.391 . S
H596 C604 0.950 . S
H597 C609 0.950 1_655 S
H598 C606 0.950 . S
H599 C608 0.950 . S
H600 C610 0.950 . S
H601 C612 0.950 . S
H602 C614 0.950 . S
H603 C615 0.950 . S
C604 H596 0.950 . S
C604 C605 1.386 . S
C604 C606 1.391 . S
C605 C604 1.386 . S
C605 C609 1.393 . S
C606 H598 0.950 . S
C606 C604 1.391 . S
C606 C607 1.400 . S
C607 C606 1.400 . S
C607 C608 1.398 . S
C607 C613 1.491 . S
C608 H599 0.950 . S
C608 C607 1.398 . S
C608 C609 1.391 . S
C609 H597 0.950 1_455 S
C609 C605 1.393 . S
C609 C608 1.391 . S
C610 H600 0.950 . S
C610 C611 1.386 . S
C610 C612 1.391 . S
C611 C610 1.386 . S
C611 C615 1.393 . S
C612 H601 0.950 . S
C612 C610 1.391 . S
C612 C613 1.400 . S
C613 C607 1.491 . S
C613 C612 1.400 . S
C613 C614 1.398 . S
C614 H602 0.950 . S
C614 C613 1.398 . S
C614 C615 1.391 . S
C615 H603 0.950 . S
C615 C611 1.393 . S
C615 C614 1.391 . S
H616 C624 0.950 . S
H617 C629 0.950 1_565 S
H618 C626 0.950 . S
H619 C628 0.950 . S
H620 C630 0.950 . S
H621 C632 0.950 . S
H622 C634 0.950 . S
H623 C635 0.950 . S
C624 H616 0.950 . S
C624 C625 1.386 . S
C624 C626 1.391 . S
C625 C624 1.386 . S
C625 C629 1.393 . S
C626 H618 0.950 . S
C626 C624 1.391 . S
C626 C627 1.400 . S
C627 C626 1.400 . S
C627 C628 1.398 . S
C627 C633 1.491 . S
C628 H619 0.950 . S
C628 C627 1.398 . S
C628 C629 1.391 . S
C629 H617 0.950 1_545 S
C629 C625 1.393 . S
C629 C628 1.391 . S
C630 H620 0.950 . S
C630 C631 1.386 . S
C630 C632 1.391 . S
C631 C630 1.386 . S
C631 C635 1.393 . S
C632 H621 0.950 . S
C632 C630 1.391 . S
C632 C633 1.400 . S
C633 C627 1.491 . S
C633 C632 1.400 . S
C633 C634 1.398 . S
C634 H622 0.950 . S
C634 C633 1.398 . S
C634 C635 1.391 . S
C635 H623 0.950 . S
C635 C631 1.393 . S
C635 C634 1.391 . S
C165 C39 1.401 . S
C171 C0 1.401 . S
C185 C13 1.381 . S
C191 C52 1.381 . S
C205 C65 1.383 . S
C211 C26 1.383 . S
C225 C78 1.383 . S
C231 C117 1.383 . S
C245 C130 1.396 . S
C251 C91 1.396 . S
C265 C104 1.380 . S
C271 C143 1.380 . S
C285 C112 1.510 . S
C291 C8 1.506 . S
C305 C21 1.512 . S
C311 C125 1.508 . S
C325 C34 1.499 . S
C331 C138 1.503 . S
C345 C47 1.514 . S
C351 C151 1.516 . S
C365 C86 1.509 . S
C371 C60 1.513 . S
C385 C99 1.515 . S
C391 C73 1.517 . S
C405 C96 0.875 . S
C411 C5 0.927 . S
C425 C18 0.873 . S
C431 C109 0.921 . S
C445 C31 0.923 . S
C451 C122 0.910 . S
C465 C44 0.887 . S
C471 C135 0.892 . S
C485 C148 0.899 . S
C491 C57 0.882 . S
C505 C70 0.885 . S
C511 C83 0.933 . S
C525 C140 1.281 1_455 S
C531 C10 1.282 . S
C545 C153 1.283 1_545 S
C551 C23 1.280 1_655 S
C565 C88 1.283 . S
C571 C36 1.280 1_565 S
C585 C49 1.279 . S
C591 C101 1.283 1_655 S
C605 C62 1.284 1_455 S
C611 C114 1.281 1_565 S
C625 C75 1.281 1_545 S
C631 C127 1.284 . S
