# Generated by pormake.
# Topology unw, (4)-cn, num edge types: 1
# Building blocks:
#     Node 0, Type 0, BuildingBlock: MUDLON_clean_sbu_0, # of connection points: 4
#     Node 1, Type 0, BuildingBlock: MUDLON_clean_sbu_0, # of connection points: 4
#     Node 2, Type 0, BuildingBlock: MUDLON_clean_sbu_0, # of connection points: 4
#     Node 3, Type 0, BuildingBlock: MUDLON_clean_sbu_0, # of connection points: 4
#     Node 4, Type 0, BuildingBlock: MUDLON_clean_sbu_0, # of connection points: 4
#     Node 5, Type 0, BuildingBlock: MUDLON_clean_sbu_0, # of connection points: 4
#     Node 6, Type 0, BuildingBlock: MUDLON_clean_sbu_0, # of connection points: 4
#     Node 7, Type 0, BuildingBlock: MUDLON_clean_sbu_0, # of connection points: 4
#     Node 8, Type 0, BuildingBlock: MUDLON_clean_sbu_0, # of connection points: 4
#     Node 9, Type 0, BuildingBlock: MUDLON_clean_sbu_0, # of connection points: 4
#     Node 10, Type 0, BuildingBlock: MUDLON_clean_sbu_0, # of connection points: 4
#     Node 11, Type 0, BuildingBlock: MUDLON_clean_sbu_0, # of connection points: 4
#     Node 12, Type 0, BuildingBlock: MUDLON_clean_sbu_0, # of connection points: 4
#     Node 13, Type 0, BuildingBlock: MUDLON_clean_sbu_0, # of connection points: 4
#     Node 14, Type 0, BuildingBlock: MUDLON_clean_sbu_0, # of connection points: 4
#     Node 15, Type 0, BuildingBlock: MUDLON_clean_sbu_0, # of connection points: 4
#     Node 16, Type 0, BuildingBlock: MUDLON_clean_sbu_0, # of connection points: 4
#     Node 17, Type 0, BuildingBlock: MUDLON_clean_sbu_0, # of connection points: 4
#     Node 18, Type 0, BuildingBlock: MUDLON_clean_sbu_0, # of connection points: 4
#     Node 19, Type 0, BuildingBlock: MUDLON_clean_sbu_0, # of connection points: 4
#     Node 20, Type 0, BuildingBlock: MUDLON_clean_sbu_0, # of connection points: 4
#     Node 21, Type 0, BuildingBlock: MUDLON_clean_sbu_0, # of connection points: 4
#     Node 22, Type 0, BuildingBlock: MUDLON_clean_sbu_0, # of connection points: 4
#     Node 23, Type 0, BuildingBlock: MUDLON_clean_sbu_0, # of connection points: 4
#     Edge 24, Type (0, 0), BuildingBlock: UVAHIK_clean_linker_0, # of connection points: 2
#     Edge 25, Type (0, 0), BuildingBlock: UVAHIK_clean_linker_0, # of connection points: 2
#     Edge 26, Type (0, 0), BuildingBlock: UVAHIK_clean_linker_0, # of connection points: 2
#     Edge 27, Type (0, 0), BuildingBlock: UVAHIK_clean_linker_0, # of connection points: 2
#     Edge 28, Type (0, 0), BuildingBlock: UVAHIK_clean_linker_0, # of connection points: 2
#     Edge 29, Type (0, 0), BuildingBlock: UVAHIK_clean_linker_0, # of connection points: 2
#     Edge 30, Type (0, 0), BuildingBlock: UVAHIK_clean_linker_0, # of connection points: 2
#     Edge 31, Type (0, 0), BuildingBlock: UVAHIK_clean_linker_0, # of connection points: 2
#     Edge 32, Type (0, 0), BuildingBlock: UVAHIK_clean_linker_0, # of connection points: 2
#     Edge 33, Type (0, 0), BuildingBlock: UVAHIK_clean_linker_0, # of connection points: 2
#     Edge 34, Type (0, 0), BuildingBlock: UVAHIK_clean_linker_0, # of connection points: 2
#     Edge 35, Type (0, 0), BuildingBlock: UVAHIK_clean_linker_0, # of connection points: 2
#     Edge 36, Type (0, 0), BuildingBlock: UVAHIK_clean_linker_0, # of connection points: 2
#     Edge 37, Type (0, 0), BuildingBlock: UVAHIK_clean_linker_0, # of connection points: 2
#     Edge 38, Type (0, 0), BuildingBlock: UVAHIK_clean_linker_0, # of connection points: 2
#     Edge 39, Type (0, 0), BuildingBlock: UVAHIK_clean_linker_0, # of connection points: 2
#     Edge 40, Type (0, 0), BuildingBlock: UVAHIK_clean_linker_0, # of connection points: 2
#     Edge 41, Type (0, 0), BuildingBlock: UVAHIK_clean_linker_0, # of connection points: 2
#     Edge 42, Type (0, 0), BuildingBlock: UVAHIK_clean_linker_0, # of connection points: 2
#     Edge 43, Type (0, 0), BuildingBlock: UVAHIK_clean_linker_0, # of connection points: 2
#     Edge 44, Type (0, 0), BuildingBlock: UVAHIK_clean_linker_0, # of connection points: 2
#     Edge 45, Type (0, 0), BuildingBlock: UVAHIK_clean_linker_0, # of connection points: 2
#     Edge 46, Type (0, 0), BuildingBlock: UVAHIK_clean_linker_0, # of connection points: 2
#     Edge 47, Type (0, 0), BuildingBlock: UVAHIK_clean_linker_0, # of connection points: 2
#     Edge 48, Type (0, 0), BuildingBlock: UVAHIK_clean_linker_0, # of connection points: 2
#     Edge 49, Type (0, 0), BuildingBlock: UVAHIK_clean_linker_0, # of connection points: 2
#     Edge 50, Type (0, 0), BuildingBlock: UVAHIK_clean_linker_0, # of connection points: 2
#     Edge 51, Type (0, 0), BuildingBlock: UVAHIK_clean_linker_0, # of connection points: 2
#     Edge 52, Type (0, 0), BuildingBlock: UVAHIK_clean_linker_0, # of connection points: 2
#     Edge 53, Type (0, 0), BuildingBlock: UVAHIK_clean_linker_0, # of connection points: 2
#     Edge 54, Type (0, 0), BuildingBlock: UVAHIK_clean_linker_0, # of connection points: 2
#     Edge 55, Type (0, 0), BuildingBlock: UVAHIK_clean_linker_0, # of connection points: 2
#     Edge 56, Type (0, 0), BuildingBlock: UVAHIK_clean_linker_0, # of connection points: 2
#     Edge 57, Type (0, 0), BuildingBlock: UVAHIK_clean_linker_0, # of connection points: 2
#     Edge 58, Type (0, 0), BuildingBlock: UVAHIK_clean_linker_0, # of connection points: 2
#     Edge 59, Type (0, 0), BuildingBlock: UVAHIK_clean_linker_0, # of connection points: 2
#     Edge 60, Type (0, 0), BuildingBlock: UVAHIK_clean_linker_0, # of connection points: 2
#     Edge 61, Type (0, 0), BuildingBlock: UVAHIK_clean_linker_0, # of connection points: 2
#     Edge 62, Type (0, 0), BuildingBlock: UVAHIK_clean_linker_0, # of connection points: 2
#     Edge 63, Type (0, 0), BuildingBlock: UVAHIK_clean_linker_0, # of connection points: 2
#     Edge 64, Type (0, 0), BuildingBlock: UVAHIK_clean_linker_0, # of connection points: 2
#     Edge 65, Type (0, 0), BuildingBlock: UVAHIK_clean_linker_0, # of connection points: 2
#     Edge 66, Type (0, 0), BuildingBlock: UVAHIK_clean_linker_0, # of connection points: 2
#     Edge 67, Type (0, 0), BuildingBlock: UVAHIK_clean_linker_0, # of connection points: 2
#     Edge 68, Type (0, 0), BuildingBlock: UVAHIK_clean_linker_0, # of connection points: 2
#     Edge 69, Type (0, 0), BuildingBlock: UVAHIK_clean_linker_0, # of connection points: 2
#     Edge 70, Type (0, 0), BuildingBlock: UVAHIK_clean_linker_0, # of connection points: 2
#     Edge 71, Type (0, 0), BuildingBlock: UVAHIK_clean_linker_0, # of connection points: 2
# Relax obj value: 0.473
# Max RMSD: 0.264
# Mean RMSD: 0.264
data_MOF--net-unw--node1-MUDLON_clean_sbu_0--edge1-UVAHIK_clean_linker_0
_symmetry_space_group_name_H-M    P1
_symmetry_Int_Tables_number       1
_symmetry_cell_setting            triclinic
loop_
_symmetry_equiv_pos_as_xyz
'x, y, z'
_cell_length_a     63.585684
_cell_length_b     63.648826
_cell_length_c     63.424225
_cell_angle_alpha  89.94949
_cell_angle_beta   89.812422
_cell_angle_gamma 90.079899
loop_
_atom_site_label
_atom_site_type_symbol
_atom_site_fract_x
_atom_site_fract_y
_atom_site_fract_z
_atom_type_partial_charge
Mg0 Mg 0.17006 0.33191 0.26062 0.0
C1 C 0.18296 0.30538 0.29703 0.0
O2 O 0.16441 0.29747 0.29256 0.0
C3 C 0.19551 0.37134 0.25302 0.0
O4 O 0.21011 0.35863 0.26017 0.0
C5 C 0.12872 0.33343 0.2848 0.0
O6 O 0.1398 0.34685 0.29593 0.0
O7 O 0.13705 0.32529 0.26845 0.0
O8 O 0.18938 0.32135 0.28679 0.0
O9 O 0.1814 0.31192 0.23515 0.0
C10 C 0.19026 0.31963 0.21888 0.0
O11 O 0.1903 0.34009 0.21624 0.0
O12 O 0.1766 0.36473 0.25222 0.0
Mg13 Mg 0.65952 0.17597 0.2478 0.0
C14 C 0.64935 0.22136 0.24602 0.0
O15 O 0.63266 0.21467 0.23589 0.0
C16 C 0.65744 0.1331 0.26777 0.0
O17 O 0.65187 0.12862 0.24835 0.0
C18 C 0.616 0.166 0.23175 0.0
O19 O 0.61433 0.15944 0.25133 0.0
O20 O 0.63383 0.17239 0.22514 0.0
O21 O 0.65888 0.2085 0.25801 0.0
O22 O 0.69149 0.1777 0.23552 0.0
C23 C 0.70582 0.16733 0.24483 0.0
O24 O 0.70055 0.14992 0.25464 0.0
O25 O 0.66012 0.15228 0.27279 0.0
Mg26 Mg 0.8594 0.64364 0.25937 0.0
C27 C 0.85071 0.68606 0.27128 0.0
O28 O 0.85992 0.67677 0.28728 0.0
C29 C 0.85381 0.60154 0.23953 0.0
O30 O 0.85861 0.59694 0.25913 0.0
C31 C 0.90042 0.64632 0.28395 0.0
O32 O 0.88897 0.63614 0.2979 0.0
O33 O 0.89267 0.64995 0.26582 0.0
O34 O 0.84691 0.67519 0.25489 0.0
O35 O 0.84454 0.63172 0.28816 0.0
C36 C 0.82549 0.63313 0.29441 0.0
O37 O 0.82069 0.62587 0.31322 0.0
O38 O 0.85398 0.62077 0.23394 0.0
Mg39 Mg 0.37573 0.86537 0.26222 0.0
C40 C 0.37791 0.82086 0.25639 0.0
O41 O 0.37997 0.82982 0.23785 0.0
C42 C 0.37936 0.90759 0.28314 0.0
O43 O 0.388 0.91144 0.26469 0.0
C44 C 0.40648 0.8661 0.22406 0.0
O45 O 0.3893 0.86782 0.21275 0.0
O46 O 0.40508 0.86695 0.24408 0.0
O47 O 0.37525 0.83256 0.27245 0.0
O48 O 0.34631 0.86711 0.2448 0.0
C49 C 0.33336 0.88207 0.2477 0.0
O50 O 0.3397 0.89891 0.25781 0.0
O51 O 0.37377 0.88884 0.28739 0.0
Mg52 Mg 0.11088 0.63614 0.7575 0.0
C53 C 0.14717 0.66127 0.74032 0.0
O54 O 0.15422 0.6576 0.75941 0.0
C55 C 0.13552 0.59577 0.75429 0.0
O56 O 0.14841 0.60831 0.74405 0.0
C57 C 0.07514 0.64484 0.72924 0.0
O58 O 0.08947 0.63719 0.7164 0.0
O59 O 0.07896 0.64498 0.74892 0.0
O60 O 0.13026 0.65239 0.73442 0.0
O61 O 0.121 0.64979 0.78717 0.0
C62 C 0.12947 0.63808 0.801 0.0
O63 O 0.12781 0.61762 0.79909 0.0
O64 O 0.11755 0.60266 0.75979 0.0
Mg65 Mg 0.35529 0.13678 0.77822 0.0
C66 C 0.35761 0.1802 0.79067 0.0
O67 O 0.36753 0.16927 0.80511 0.0
C68 C 0.34565 0.09676 0.758 0.0
O69 O 0.35389 0.09196 0.77635 0.0
C70 C 0.39754 0.13227 0.79976 0.0
O71 O 0.38542 0.1238 0.81428 0.0
O72 O 0.3895 0.13696 0.78202 0.0
O73 O 0.34891 0.17036 0.77555 0.0
O74 O 0.34113 0.12402 0.80698 0.0
C75 C 0.32165 0.12049 0.8102 0.0
O76 O 0.3159 0.11033 0.8273 0.0
O77 O 0.34456 0.11608 0.75289 0.0
Mg78 Mg 0.8731 0.37718 0.76088 0.0
C79 C 0.8369 0.35282 0.74208 0.0
O80 O 0.82903 0.35594 0.76098 0.0
C81 C 0.84982 0.41852 0.75828 0.0
O82 O 0.83655 0.4065 0.748 0.0
C83 C 0.90861 0.36268 0.73405 0.0
O84 O 0.89367 0.3664 0.72029 0.0
O85 O 0.90527 0.36724 0.75333 0.0
O86 O 0.85394 0.36201 0.73697 0.0
O87 O 0.86131 0.36286 0.78976 0.0
C88 C 0.85087 0.37379 0.80292 0.0
O89 O 0.85103 0.39433 0.80108 0.0
O90 O 0.86746 0.41089 0.76382 0.0
Mg91 Mg 0.60922 0.88794 0.7558 0.0
C92 C 0.64702 0.87165 0.77902 0.0
O93 O 0.65666 0.87963 0.76249 0.0
C94 C 0.628 0.93222 0.75933 0.0
O95 O 0.63803 0.92397 0.7754 0.0
C96 C 0.57189 0.87841 0.78194 0.0
O97 O 0.58481 0.88749 0.79526 0.0
O98 O 0.57722 0.87746 0.7626 0.0
O99 O 0.6275 0.87512 0.78148 0.0
O100 O 0.62332 0.87182 0.72901 0.0
C101 C 0.63515 0.88235 0.71669 0.0
O102 O 0.63563 0.90287 0.71856 0.0
O103 O 0.61379 0.9215 0.7502 0.0
Mg104 Mg 0.28246 0.13329 0.39727 0.0
C105 C 0.29523 0.15556 0.35852 0.0
O106 O 0.31285 0.14705 0.36513 0.0
C107 C 0.25645 0.12886 0.43692 0.0
O108 O 0.27281 0.11741 0.44215 0.0
C109 C 0.30439 0.09077 0.39409 0.0
O110 O 0.31637 0.09948 0.40849 0.0
O111 O 0.28861 0.10096 0.3872 0.0
O112 O 0.27845 0.15205 0.36887 0.0
O113 O 0.31004 0.14569 0.41368 0.0
C114 C 0.31569 0.16492 0.41371 0.0
O115 O 0.33369 0.17013 0.42237 0.0
O116 O 0.25552 0.13645 0.4184 0.0
Mg117 Mg 0.88515 0.24513 0.36693 0.0
C118 C 0.88242 0.25667 0.3229 0.0
O119 O 0.89693 0.26896 0.33097 0.0
C120 C 0.8762 0.22486 0.40856 0.0
O121 O 0.88646 0.24192 0.41408 0.0
C122 C 0.9284 0.26574 0.37006 0.0
O123 O 0.91717 0.28022 0.3796 0.0
O124 O 0.91944 0.2487 0.36455 0.0
O125 O 0.8745 0.24242 0.33455 0.0
O126 O 0.87101 0.27458 0.37739 0.0
C127 C 0.85331 0.28213 0.37175 0.0
O128 O 0.84807 0.30099 0.37829 0.0
O129 O 0.87415 0.22087 0.389 0.0
Mg130 Mg 0.75503 0.906 0.36749 0.0
C131 C 0.78332 0.87578 0.34849 0.0
O132 O 0.77328 0.86537 0.36331 0.0
C133 C 0.75769 0.95266 0.35512 0.0
O134 O 0.77294 0.9459 0.34286 0.0
C135 C 0.78037 0.8903 0.40406 0.0
O136 O 0.79507 0.89786 0.39157 0.0
O137 O 0.76119 0.89236 0.39868 0.0
O138 O 0.77973 0.89531 0.34623 0.0
O139 O 0.72836 0.89208 0.35139 0.0
C140 C 0.72478 0.90121 0.33391 0.0
O141 O 0.73569 0.91811 0.32919 0.0
O142 O 0.74888 0.93981 0.36776 0.0
Mg143 Mg 0.12522 0.77444 0.36038 0.0
C144 C 0.13003 0.73966 0.3315 0.0
O145 O 0.11572 0.75201 0.32319 0.0
C146 C 0.1534 0.77908 0.39887 0.0
O147 O 0.16577 0.76756 0.38695 0.0
C148 C 0.08309 0.75422 0.36431 0.0
O149 O 0.09464 0.7427 0.37697 0.0
O150 O 0.0913 0.77057 0.35609 0.0
O151 O 0.1374 0.74441 0.34952 0.0
O152 O 0.13924 0.7969 0.33826 0.0
C153 C 0.15716 0.79154 0.33103 0.0
O154 O 0.16567 0.77399 0.33773 0.0
O155 O 0.13506 0.78353 0.39222 0.0
Mg156 Mg 0.25169 0.87791 0.63106 0.0
C157 C 0.21468 0.84883 0.63601 0.0
O158 O 0.21947 0.84511 0.61622 0.0
C159 C 0.25518 0.91567 0.65826 0.0
O160 O 0.25135 0.90051 0.67184 0.0
C161 C 0.23506 0.87832 0.58679 0.0
O162 O 0.22266 0.89192 0.5962 0.0
O163 O 0.25029 0.87058 0.59725 0.0
O164 O 0.22423 0.86351 0.64568 0.0
O165 O 0.27581 0.8616 0.64917 0.0
C166 C 0.2914 0.87089 0.65761 0.0
O167 O 0.29603 0.89013 0.65169 0.0
O168 O 0.25503 0.91127 0.63869 0.0
Mg169 Mg 0.12951 0.22964 0.654 0.0
C170 C 0.13715 0.26645 0.68083 0.0
O171 O 0.11996 0.25828 0.68894 0.0
C172 C 0.14332 0.20156 0.61889 0.0
O173 O 0.14225 0.18847 0.63489 0.0
C174 C 0.08943 0.25296 0.65255 0.0
O175 O 0.1022 0.26434 0.64086 0.0
O176 O 0.09599 0.23533 0.65939 0.0
O177 O 0.1447 0.25851 0.66404 0.0
O178 O 0.14462 0.20769 0.67565 0.0
C179 C 0.16441 0.21082 0.67606 0.0
O180 O 0.17249 0.22493 0.66324 0.0
O181 O 0.13803 0.22063 0.62179 0.0
Mg182 Mg 0.74378 0.13816 0.62599 0.0
C183 C 0.78244 0.1634 0.63477 0.0
O184 O 0.78053 0.16674 0.61444 0.0
C185 C 0.74219 0.09548 0.64895 0.0
O186 O 0.75975 0.10198 0.65765 0.0
C187 C 0.76472 0.13303 0.58379 0.0
O188 O 0.77402 0.11838 0.595 0.0
O189 O 0.74986 0.14345 0.5923 0.0
O190 O 0.77068 0.14972 0.6435 0.0
O191 O 0.7199 0.1578 0.64065 0.0
C192 C 0.70268 0.14978 0.64707 0.0
O193 O 0.6971 0.13124 0.63994 0.0
O194 O 0.73382 0.10643 0.63445 0.0
Mg195 Mg 0.85996 0.76204 0.6271 0.0
C196 C 0.86135 0.71782 0.64569 0.0
O197 O 0.88168 0.71972 0.64256 0.0
C198 C 0.84361 0.7641 0.58161 0.0
O199 O 0.83099 0.74905 0.58811 0.0
C200 C 0.90686 0.75736 0.62961 0.0
O201 O 0.9036 0.75151 0.61002 0.0
O202 O 0.89148 0.76469 0.64014 0.0
O203 O 0.84901 0.7312 0.63744 0.0
O204 O 0.83717 0.78273 0.64199 0.0
C205 C 0.81857 0.77532 0.64163 0.0
O206 O 0.8154 0.75687 0.63295 0.0
O207 O 0.85797 0.77071 0.59386 0.0
Mg208 Mg 0.37645 0.23753 0.12402 0.0
C209 C 0.35233 0.22319 0.16177 0.0
O210 O 0.3594 0.2054 0.15407 0.0
C211 C 0.37598 0.26176 0.08372 0.0
O212 O 0.38411 0.24375 0.07774 0.0
C213 C 0.41481 0.21443 0.13904 0.0
O214 O 0.40068 0.19937 0.13875 0.0
O215 O 0.40942 0.23277 0.1331 0.0
O216 O 0.35735 0.24026 0.1526 0.0
O217 O 0.36597 0.20971 0.1067 0.0
C218 C 0.34721 0.20271 0.10576 0.0
O219 O 0.3437 0.18468 0.09633 0.0
O220 O 0.37203 0.26452 0.10319 0.0
Mg221 Mg 0.35755 0.75418 0.88209 0.0
C222 C 0.35667 0.79756 0.8613 0.0
O223 O 0.37714 0.79637 0.86357 0.0
C224 C 0.34332 0.75121 0.92897 0.0
O225 O 0.32933 0.76537 0.92358 0.0
C226 C 0.40396 0.76081 0.87888 0.0
O227 O 0.40031 0.7662 0.89856 0.0
O228 O 0.38899 0.75281 0.8683 0.0
O229 O 0.34505 0.78417 0.8707 0.0
O230 O 0.33491 0.73225 0.86885 0.0
C231 C 0.31621 0.7391 0.87095 0.0
O232 O 0.31333 0.75739 0.88007 0.0
O233 O 0.35728 0.74571 0.91564 0.0
Mg234 Mg 0.26874 0.39433 0.87314 0.0
C235 C 0.25508 0.35577 0.84918 0.0
O236 O 0.27546 0.35261 0.84929 0.0
C237 C 0.28494 0.36765 0.90795 0.0
O238 O 0.28473 0.35491 0.89169 0.0
C239 C 0.23401 0.42411 0.86318 0.0
O240 O 0.22398 0.40613 0.86472 0.0
O241 O 0.25352 0.42468 0.86766 0.0
O242 O 0.24753 0.37092 0.85986 0.0
O243 O 0.29543 0.39077 0.85198 0.0
C244 C 0.31362 0.38536 0.85815 0.0
O245 O 0.31834 0.38739 0.8782 0.0
O246 O 0.27812 0.38629 0.90549 0.0
Mg247 Mg 0.62722 0.24443 0.88002 0.0
C248 C 0.62782 0.20455 0.85327 0.0
O249 O 0.60733 0.20695 0.85399 0.0
C250 C 0.64754 0.24776 0.92351 0.0
O251 O 0.66392 0.24081 0.91296 0.0
C252 C 0.5813 0.23577 0.88135 0.0
O253 O 0.58778 0.22788 0.89935 0.0
O254 O 0.59441 0.24594 0.87007 0.0
O255 O 0.63928 0.21567 0.86535 0.0
O256 O 0.64817 0.26857 0.86711 0.0
C257 C 0.66679 0.26187 0.86392 0.0
O258 O 0.67092 0.24205 0.86781 0.0
O259 O 0.62987 0.24889 0.91419 0.0
Mg260 Mg 0.75766 0.64321 0.87135 0.0
C261 C 0.80055 0.6436 0.84918 0.0
O262 O 0.79918 0.62311 0.85099 0.0
C263 C 0.75808 0.66101 0.91658 0.0
O264 O 0.77408 0.67208 0.90955 0.0
C265 C 0.76586 0.5969 0.86984 0.0
O266 O 0.77518 0.60211 0.88755 0.0
O267 O 0.75533 0.61086 0.86013 0.0
O268 O 0.78766 0.65509 0.85932 0.0
O269 O 0.73614 0.66493 0.85601 0.0
C270 C 0.74312 0.68368 0.8567 0.0
O271 O 0.761 0.6873 0.86635 0.0
O272 O 0.74996 0.64708 0.90473 0.0
Mg273 Mg 0.63293 0.74642 0.14257 0.0
C274 C 0.63693 0.79085 0.15868 0.0
O275 O 0.61645 0.79009 0.15636 0.0
C276 C 0.64725 0.74661 0.09556 0.0
O277 O 0.64613 0.76716 0.09713 0.0
C278 C 0.58687 0.75948 0.13656 0.0
O279 O 0.5938 0.76492 0.11779 0.0
O280 O 0.59928 0.75002 0.1491 0.0
O281 O 0.64801 0.77566 0.15187 0.0
O282 O 0.64772 0.7246 0.16438 0.0
C283 C 0.66609 0.71866 0.15905 0.0
O284 O 0.67367 0.72483 0.14077 0.0
O285 O 0.64167 0.73527 0.11113 0.0
Mg286 Mg 0.28149 0.60856 0.15318 0.0
C287 C 0.31116 0.63988 0.1707 0.0
O288 O 0.30189 0.65061 0.15568 0.0
C289 C 0.25816 0.56775 0.15626 0.0
O290 O 0.24319 0.58075 0.15054 0.0
C291 C 0.30433 0.62449 0.11421 0.0
O292 O 0.32035 0.61939 0.1262 0.0
O293 O 0.28578 0.62057 0.12082 0.0
O294 O 0.30661 0.62056 0.17309 0.0
O295 O 0.2546 0.62259 0.16881 0.0
C296 C 0.2544 0.6185 0.18845 0.0
O297 O 0.26915 0.60625 0.19611 0.0
O298 O 0.27694 0.57467 0.15729 0.0
Mg299 Mg 0.75161 0.38076 0.12738 0.0
C300 C 0.77394 0.37184 0.16587 0.0
O301 O 0.78556 0.38544 0.15544 0.0
C302 C 0.72216 0.37551 0.09122 0.0
O303 O 0.73687 0.3875 0.08295 0.0
C304 C 0.77349 0.42348 0.12557 0.0
O305 O 0.78731 0.41239 0.11492 0.0
O306 O 0.75643 0.41467 0.13142 0.0
O307 O 0.756 0.36703 0.15842 0.0
O308 O 0.77741 0.36622 0.10997 0.0
C309 C 0.78206 0.34687 0.11239 0.0
O310 O 0.79911 0.33938 0.10343 0.0
O311 O 0.72288 0.37157 0.11089 0.0
C312 C 0.26754 0.53341 0.17374 0.0
C313 C 0.25257 0.54635 0.16391 0.0
C314 C 0.26153 0.51419 0.18282 0.0
C315 C 0.21451 0.48672 0.20418 0.0
H316 H 0.24984 0.43725 0.20119 0.0
C317 C 0.18664 0.40491 0.23387 0.0
C318 C 0.20151 0.39212 0.24404 0.0
C319 C 0.19278 0.42378 0.2242 0.0
C320 C 0.23987 0.45099 0.20241 0.0
H321 H 0.21967 0.54877 0.15527 0.0
H322 H 0.20934 0.51531 0.17074 0.0
H323 H 0.26096 0.46952 0.1836 0.0
H324 H 0.23447 0.38949 0.25238 0.0
H325 H 0.24506 0.42238 0.23585 0.0
H326 H 0.19345 0.46824 0.22303 0.0
C327 C 0.22564 0.52014 0.17185 0.0
C328 C 0.24627 0.46951 0.19228 0.0
C329 C 0.23162 0.5393 0.16281 0.0
C330 C 0.22258 0.39887 0.24463 0.0
C331 C 0.22871 0.41769 0.23499 0.0
C332 C 0.20812 0.46821 0.21431 0.0
C333 C 0.24042 0.50747 0.1823 0.0
C334 C 0.23366 0.48764 0.19301 0.0
C335 C 0.21396 0.43032 0.22444 0.0
C336 C 0.22072 0.45008 0.21359 0.0
H337 H 0.28378 0.53837 0.17496 0.0
H338 H 0.27333 0.50493 0.19084 0.0
H339 H 0.20455 0.50046 0.20543 0.0
H340 H 0.1703 0.40016 0.23302 0.0
H341 H 0.181 0.43298 0.21607 0.0
C342 C 0.57821 0.15808 0.22424 0.0
C343 C 0.59672 0.16896 0.21897 0.0
C344 C 0.55925 0.16268 0.21413 0.0
C345 C 0.53571 0.19162 0.16839 0.0
H346 H 0.48565 0.18873 0.20336 0.0
C347 C 0.4531 0.22398 0.14379 0.0
C348 C 0.43628 0.20995 0.14707 0.0
C349 C 0.47321 0.21938 0.15162 0.0
C350 C 0.49948 0.18953 0.19336 0.0
H351 H 0.60994 0.1929 0.19851 0.0
H352 H 0.57677 0.20143 0.1813 0.0
H353 H 0.51958 0.17965 0.21833 0.0
H354 H 0.42747 0.18013 0.16122 0.0
H355 H 0.46226 0.17242 0.1751 0.0
H356 H 0.5153 0.20212 0.14358 0.0
C357 C 0.5769 0.18897 0.19292 0.0
C358 C 0.51899 0.18416 0.20188 0.0
C359 C 0.59598 0.1841 0.20282 0.0
C360 C 0.44003 0.1913 0.15835 0.0
C361 C 0.45996 0.1869 0.16642 0.0
C362 C 0.51615 0.19729 0.15993 0.0
C363 C 0.55815 0.17861 0.19873 0.0
C364 C 0.5374 0.18482 0.18948 0.0
C365 C 0.47678 0.20086 0.1632 0.0
C366 C 0.4978 0.19606 0.17228 0.0
H367 H 0.57829 0.1462 0.23648 0.0
H368 H 0.54538 0.15386 0.21865 0.0
H369 H 0.54942 0.19217 0.15823 0.0
H370 H 0.45074 0.23845 0.13512 0.0
H371 H 0.48588 0.23048 0.14897 0.0
C372 C 0.76611 0.45547 0.14773 0.0
C373 C 0.77921 0.44475 0.13344 0.0
C374 C 0.77279 0.47422 0.15717 0.0
C375 C 0.81295 0.51699 0.15406 0.0
H376 H 0.803 0.52082 0.21426 0.0
C377 C 0.83793 0.58925 0.20518 0.0
C378 C 0.84625 0.58467 0.2252 0.0
C379 C 0.82925 0.57324 0.19268 0.0
C380 C 0.806 0.51999 0.19746 0.0
H381 H 0.80926 0.44597 0.11719 0.0
H382 H 0.82091 0.47848 0.13368 0.0
H383 H 0.78826 0.49158 0.19452 0.0
H384 H 0.85255 0.55949 0.24738 0.0
H385 H 0.83772 0.53181 0.22567 0.0
H386 H 0.83121 0.5452 0.15724 0.0
C387 C 0.8054 0.47251 0.13753 0.0
C388 C 0.79729 0.50333 0.18606 0.0
C389 C 0.79874 0.45376 0.12813 0.0
C390 C 0.84618 0.56367 0.23214 0.0
C391 C 0.8375 0.54776 0.21972 0.0
C392 C 0.82162 0.53375 0.16549 0.0
C393 C 0.79272 0.48276 0.15253 0.0
C394 C 0.80082 0.50145 0.16424 0.0
C395 C 0.82863 0.55234 0.19997 0.0
C396 C 0.81851 0.53528 0.1874 0.0
H397 H 0.75094 0.44905 0.15215 0.0
H398 H 0.76245 0.48186 0.16838 0.0
H399 H 0.81583 0.51617 0.13725 0.0
H400 H 0.83767 0.60525 0.19938 0.0
H401 H 0.82249 0.57733 0.17758 0.0
C402 C 0.56196 0.76782 0.16621 0.0
C403 C 0.56656 0.76797 0.1445 0.0
C404 C 0.54423 0.77824 0.17408 0.0
C405 C 0.50604 0.8203 0.15984 0.0
H406 H 0.47652 0.79981 0.20933 0.0
C407 C 0.42796 0.85625 0.19214 0.0
C408 C 0.42624 0.85833 0.21417 0.0
C409 C 0.44531 0.84607 0.18307 0.0
C410 C 0.48472 0.80584 0.1956 0.0
H411 H 0.55552 0.77848 0.11397 0.0
H412 H 0.52421 0.79601 0.12757 0.0
H413 H 0.50507 0.77916 0.19431 0.0
H414 H 0.44197 0.852 0.24383 0.0
H415 H 0.47206 0.83427 0.22801 0.0
H416 H 0.48526 0.84683 0.16103 0.0
C417 C 0.53464 0.78837 0.13864 0.0
C418 C 0.50116 0.794 0.18698 0.0
C419 C 0.55251 0.77811 0.13079 0.0
C420 C 0.44271 0.85071 0.22682 0.0
C421 C 0.4599 0.84036 0.21777 0.0
C422 C 0.48942 0.83203 0.16835 0.0
C423 C 0.53044 0.78894 0.16045 0.0
C424 C 0.51221 0.80112 0.16907 0.0
C425 C 0.46122 0.83755 0.19583 0.0
C426 C 0.4787 0.82504 0.18646 0.0
H427 H 0.57251 0.76034 0.17728 0.0
H428 H 0.54179 0.7785 0.19098 0.0
H429 H 0.51433 0.82654 0.14628 0.0
H430 H 0.41557 0.86189 0.18192 0.0
H431 H 0.44585 0.84413 0.16611 0.0
C432 C 0.23205 0.46265 0.85405 0.0
C433 C 0.22331 0.44235 0.8534 0.0
C434 C 0.22228 0.47934 0.84347 0.0
C435 C 0.18948 0.49041 0.79801 0.0
H436 H 0.17362 0.54216 0.82606 0.0
C437 C 0.16213 0.56676 0.7554 0.0
C438 C 0.14359 0.57587 0.76332 0.0
C439 C 0.17147 0.54976 0.76579 0.0
C440 C 0.17797 0.52777 0.81807 0.0
H441 H 0.19739 0.42375 0.84122 0.0
H442 H 0.18079 0.45269 0.82248 0.0
H443 H 0.19152 0.51441 0.84601 0.0
H444 H 0.12001 0.57388 0.78807 0.0
H445 H 0.13663 0.54452 0.80642 0.0
H446 H 0.17625 0.50387 0.77 0.0
C447 C 0.19506 0.4557 0.83127 0.0
C448 C 0.18831 0.51201 0.82942 0.0
C449 C 0.20453 0.43918 0.84215 0.0
C450 C 0.13424 0.56719 0.78149 0.0
C451 C 0.14382 0.55051 0.79211 0.0
C452 C 0.17954 0.50633 0.78656 0.0
C453 C 0.20389 0.4759 0.8317 0.0
C454 C 0.19396 0.4931 0.81953 0.0
C455 C 0.16268 0.54184 0.78453 0.0
C456 C 0.1735 0.52506 0.79654 0.0
H457 H 0.24649 0.46558 0.86257 0.0
H458 H 0.22938 0.49482 0.844 0.0
H459 H 0.19375 0.47598 0.79003 0.0
H460 H 0.16973 0.5731 0.74147 0.0
H461 H 0.18601 0.54333 0.75964 0.0
C462 C 0.55555 0.23264 0.85138 0.0
C463 C 0.56072 0.229 0.87263 0.0
C464 C 0.53755 0.2235 0.84254 0.0
C465 C 0.48721 0.19667 0.85666 0.0
H466 H 0.49249 0.17168 0.80114 0.0
C467 C 0.42612 0.13764 0.8263 0.0
C468 C 0.41847 0.14075 0.80576 0.0
C469 C 0.44391 0.14843 0.83336 0.0
C470 C 0.49071 0.17873 0.81658 0.0
H471 H 0.55051 0.21353 0.90138 0.0
H472 H 0.51944 0.19757 0.88605 0.0
H473 H 0.5217 0.19197 0.81567 0.0
H474 H 0.4243 0.15689 0.77616 0.0
H475 H 0.45552 0.17562 0.78848 0.0
H476 H 0.4564 0.18316 0.85772 0.0
C477 C 0.52909 0.20762 0.87618 0.0
C478 C 0.50742 0.19045 0.82489 0.0
C479 C 0.54702 0.21673 0.88499 0.0
C480 C 0.42977 0.15407 0.79207 0.0
C481 C 0.44767 0.16483 0.79913 0.0
C482 C 0.47061 0.18488 0.84841 0.0
C483 C 0.52427 0.21055 0.85474 0.0
C484 C 0.50598 0.19939 0.84516 0.0
C485 C 0.45458 0.16258 0.82005 0.0
C486 C 0.47222 0.17555 0.82838 0.0
H487 H 0.56577 0.24197 0.84138 0.0
H488 H 0.53417 0.22637 0.82606 0.0
H489 H 0.48532 0.20366 0.8721 0.0
H490 H 0.41793 0.12742 0.83726 0.0
H491 H 0.44909 0.14599 0.84943 0.0
C492 C 0.78759 0.5642 0.86742 0.0
C493 C 0.77151 0.5769 0.85917 0.0
C494 C 0.79515 0.54693 0.85613 0.0
C495 C 0.80371 0.50593 0.83386 0.0
H496 H 0.80791 0.5106 0.77302 0.0
C497 C 0.85296 0.44807 0.78427 0.0
C498 C 0.84253 0.43888 0.76706 0.0
C499 C 0.84425 0.46537 0.79471 0.0
C500 C 0.80674 0.50905 0.78999 0.0
H501 H 0.75012 0.58074 0.83292 0.0
H502 H 0.76274 0.5501 0.81354 0.0
H503 H 0.79184 0.53899 0.79327 0.0
H504 H 0.81534 0.44138 0.74666 0.0
H505 H 0.80043 0.47193 0.76463 0.0
H506 H 0.81916 0.47622 0.83052 0.0
C507 C 0.76998 0.55387 0.82849 0.0
C508 C 0.79738 0.52525 0.80164 0.0
C509 C 0.76256 0.57134 0.83972 0.0
C510 C 0.82377 0.44808 0.75987 0.0
C511 C 0.81523 0.46559 0.77013 0.0
C512 C 0.8133 0.4899 0.82224 0.0
C513 C 0.78668 0.54165 0.83635 0.0
C514 C 0.7958 0.52397 0.82377 0.0
C515 C 0.8251 0.47408 0.788 0.0
C516 C 0.815 0.4913 0.8002 0.0
H517 H 0.79499 0.56806 0.88228 0.0
H518 H 0.8082 0.5382 0.86265 0.0
H519 H 0.80241 0.50407 0.85078 0.0
H520 H 0.86739 0.44135 0.79029 0.0
H521 H 0.85235 0.47176 0.80828 0.0
C522 C 0.54032 0.85491 0.77677 0.0
C523 C 0.55294 0.86732 0.79004 0.0
C524 C 0.52366 0.84301 0.78512 0.0
C525 C 0.48987 0.8377 0.83298 0.0
H526 H 0.48129 0.78067 0.81329 0.0
C527 C 0.43836 0.77997 0.8795 0.0
C528 C 0.42314 0.76877 0.86804 0.0
C529 C 0.45447 0.79079 0.86911 0.0
C530 C 0.4834 0.79662 0.81884 0.0
H531 H 0.55761 0.87721 0.82243 0.0
H532 H 0.529 0.85646 0.83687 0.0
H533 H 0.50788 0.80287 0.79635 0.0
H534 H 0.41373 0.75919 0.83663 0.0
H535 H 0.44207 0.77799 0.81849 0.0
H536 H 0.4657 0.8314 0.85565 0.0
C537 C 0.53166 0.85605 0.82 0.0
C538 C 0.49857 0.80939 0.80907 0.0
C539 C 0.5482 0.86792 0.81169 0.0
C540 C 0.42519 0.76763 0.84596 0.0
C541 C 0.44143 0.77842 0.83555 0.0
C542 C 0.47488 0.82493 0.84279 0.0
C543 C 0.51924 0.84328 0.80689 0.0
C544 C 0.50217 0.83004 0.81619 0.0
C545 C 0.45587 0.79064 0.84699 0.0
C546 C 0.47161 0.80416 0.83602 0.0
H547 H 0.54355 0.85407 0.76002 0.0
H548 H 0.51428 0.83356 0.77451 0.0
H549 H 0.49182 0.85365 0.83859 0.0
H550 H 0.43738 0.7811 0.89652 0.0
H551 H 0.46561 0.79971 0.87841 0.0
C552 C 0.1515 0.20707 0.58032 0.0
C553 C 0.15179 0.1942 0.59834 0.0
C554 C 0.16017 0.19999 0.56123 0.0
C555 C 0.17851 0.15108 0.53411 0.0
H556 H 0.21073 0.18986 0.49961 0.0
C557 C 0.2401 0.12443 0.47265 0.0
C558 C 0.24084 0.13501 0.4532 0.0
C559 C 0.22681 0.13138 0.4888 0.0
C560 C 0.20155 0.1789 0.50893 0.0
H561 H 0.16153 0.16383 0.61041 0.0
H562 H 0.17701 0.15183 0.57763 0.0
H563 H 0.19219 0.2028 0.53074 0.0
H564 H 0.2279 0.16103 0.43536 0.0
H565 H 0.2048 0.17328 0.46372 0.0
H566 H 0.18857 0.12706 0.51268 0.0
C567 C 0.16963 0.16714 0.57789 0.0
C568 C 0.19086 0.18631 0.52678 0.0
C569 C 0.16084 0.17412 0.59682 0.0
C570 C 0.22763 0.15246 0.45012 0.0
C571 C 0.21452 0.15958 0.4664 0.0
C572 C 0.18937 0.14365 0.51643 0.0
C573 C 0.16944 0.17994 0.55979 0.0
C574 C 0.17944 0.17244 0.53981 0.0
C575 C 0.21412 0.14923 0.48599 0.0
C576 C 0.20124 0.15741 0.50379 0.0
H577 H 0.1446 0.2226 0.58094 0.0
H578 H 0.1595 0.21021 0.54759 0.0
H579 H 0.16949 0.13998 0.54341 0.0
H580 H 0.25009 0.11096 0.47554 0.0
H581 H 0.227 0.12317 0.50377 0.0
C582 C 0.79116 0.12844 0.55473 0.0
C583 C 0.77372 0.13928 0.56301 0.0
C584 C 0.8014 0.1356 0.53653 0.0
C585 C 0.79648 0.17057 0.48992 0.0
H586 H 0.85738 0.17205 0.49295 0.0
C587 C 0.84928 0.19784 0.41971 0.0
C588 C 0.86545 0.212 0.42496 0.0
C589 C 0.83791 0.18736 0.43556 0.0
C590 C 0.84038 0.17177 0.49183 0.0
H591 H 0.7529 0.16576 0.55801 0.0
H592 H 0.77079 0.17825 0.52615 0.0
H593 H 0.83719 0.15708 0.52202 0.0
H594 H 0.88266 0.22577 0.45099 0.0
H595 H 0.8631 0.20741 0.47845 0.0
H596 H 0.79978 0.18569 0.45982 0.0
C597 C 0.77649 0.16413 0.53377 0.0
C598 C 0.82879 0.16299 0.50843 0.0
C599 C 0.76625 0.157 0.55207 0.0
C600 C 0.87034 0.21496 0.44636 0.0
C601 C 0.85916 0.20435 0.46213 0.0
C602 C 0.80812 0.17923 0.47319 0.0
C603 C 0.79448 0.15377 0.52603 0.0
C604 C 0.80667 0.16241 0.5078 0.0
C605 C 0.84264 0.1906 0.45699 0.0
C606 C 0.83022 0.18014 0.47405 0.0
H607 H 0.79731 0.11467 0.56261 0.0
H608 H 0.81496 0.12701 0.53082 0.0
H609 H 0.77949 0.17025 0.48884 0.0
H610 H 0.84502 0.19529 0.40339 0.0
H611 H 0.8254 0.17673 0.43106 0.0
C612 C 0.77207 0.87328 0.43904 0.0
C613 C 0.78639 0.87745 0.42262 0.0
C614 C 0.77798 0.86068 0.45619 0.0
C615 C 0.81347 0.81814 0.47109 0.0
H616 H 0.80769 0.83838 0.52848 0.0
C617 C 0.82566 0.76687 0.54646 0.0
C618 C 0.83888 0.77566 0.56185 0.0
C619 C 0.81946 0.77869 0.52889 0.0
C620 C 0.80937 0.83254 0.51252 0.0
H621 H 0.81802 0.87141 0.41119 0.0
H622 H 0.82805 0.8491 0.44078 0.0
H623 H 0.79557 0.86023 0.49906 0.0
H624 H 0.85617 0.80372 0.57067 0.0
H625 H 0.84497 0.8244 0.54026 0.0
H626 H 0.82704 0.79034 0.48456 0.0
C627 C 0.81237 0.85574 0.4405 0.0
C628 C 0.80231 0.84496 0.49574 0.0
C629 C 0.80664 0.86864 0.42364 0.0
C630 C 0.84608 0.7964 0.55906 0.0
C631 C 0.83954 0.80833 0.54175 0.0
C632 C 0.82013 0.80553 0.48789 0.0
C633 C 0.79814 0.85163 0.45696 0.0
C634 C 0.80451 0.83798 0.47485 0.0
C635 C 0.826 0.79967 0.5266 0.0
C636 C 0.81837 0.81271 0.50876 0.0
H637 H 0.75636 0.87982 0.43868 0.0
H638 H 0.7667 0.8577 0.46867 0.0
H639 H 0.81527 0.81236 0.45513 0.0
H640 H 0.81982 0.75096 0.54815 0.0
H641 H 0.809 0.77165 0.51744 0.0
C642 C 0.18122 0.78205 0.42678 0.0
C643 C 0.16152 0.78821 0.41886 0.0
C644 C 0.18963 0.79161 0.44477 0.0
C645 C 0.18675 0.84052 0.47587 0.0
H646 H 0.21479 0.80796 0.51912 0.0
C647 C 0.21073 0.87679 0.55579 0.0
C648 C 0.22903 0.86959 0.56588 0.0
C649 C 0.20351 0.86722 0.53733 0.0
C650 C 0.20733 0.81737 0.50705 0.0
H651 H 0.13507 0.80908 0.42399 0.0
H652 H 0.14976 0.82576 0.45536 0.0
H653 H 0.19973 0.79018 0.48861 0.0
H654 H 0.25445 0.84701 0.56395 0.0
H655 H 0.24213 0.83061 0.53141 0.0
H656 H 0.19448 0.86772 0.49407 0.0
C657 C 0.15878 0.81361 0.44753 0.0
C658 C 0.1986 0.80713 0.48957 0.0
C659 C 0.15027 0.80393 0.42963 0.0
C660 C 0.2403 0.85297 0.55662 0.0
C661 C 0.23309 0.84342 0.53805 0.0
C662 C 0.1956 0.85077 0.49325 0.0
C663 C 0.17865 0.8077 0.45523 0.0
C664 C 0.18807 0.81856 0.47382 0.0
C665 C 0.21441 0.85022 0.52829 0.0
C666 C 0.20589 0.83935 0.5092 0.0
H667 H 0.19034 0.77001 0.41891 0.0
H668 H 0.20503 0.78676 0.45016 0.0
H669 H 0.17911 0.84986 0.46385 0.0
H670 H 0.20156 0.88949 0.56247 0.0
H671 H 0.18893 0.87278 0.53054 0.0
C672 C 0.64971 0.96522 0.76 0.0
C673 C 0.63636 0.95146 0.74905 0.0
C674 C 0.65992 0.9817 0.74944 0.0
C675 C 0.66204 0.00996 0.69711 0.0
H676 H 0.71699 0.02643 0.71743 0.0
C677 C 0.70823 0.07744 0.65736 0.0
C678 C 0.73028 0.0778 0.65846 0.0
C679 C 0.69662 0.06227 0.66831 0.0
C680 C 0.70186 0.02183 0.7112 0.0
H681 H 0.62289 0.94457 0.71847 0.0
H682 H 0.64143 0.97216 0.69991 0.0
H683 H 0.69704 1.00019 0.73648 0.0
H684 H 0.75752 0.06198 0.67123 0.0
H685 H 0.73747 0.03452 0.68909 0.0
H686 H 0.66751 0.03029 0.67095 0.0
C687 C 0.6436 0.97099 0.71678 0.0
C688 C 0.69007 0.00699 0.72252 0.0
C689 C 0.63297 0.95494 0.72746 0.0
C690 C 0.74052 0.06214 0.67015 0.0
C691 C 0.72892 0.04654 0.68063 0.0
C692 C 0.67406 0.02433 0.68549 0.0
C693 C 0.65751 0.98451 0.72751 0.0
C694 C 0.66991 1.00084 0.71571 0.0
C695 C 0.70672 0.04656 0.68022 0.0
C696 C 0.69414 0.03064 0.69238 0.0
H697 H 0.65256 0.96304 0.77669 0.0
H698 H 0.66992 0.99203 0.75852 0.0
H699 H 0.6465 0.00612 0.69138 0.0
H700 H 0.69981 0.08943 0.64872 0.0
H701 H 0.67965 0.06337 0.66783 0.0
C702 C 0.94241 0.74045 0.62932 0.0
C703 C 0.92636 0.75074 0.64056 0.0
C704 C 0.95917 0.73102 0.63994 0.0
C705 C 0.97231 0.70831 0.6918 0.0
H706 H 0.02859 0.70608 0.66825 0.0
C707 C 0.04278 0.66727 0.73349 0.0
C708 C 0.05652 0.65579 0.72046 0.0
C709 C 0.02673 0.67952 0.72469 0.0
C710 C 0.0129 0.7064 0.67495 0.0
H711 H 0.91599 0.76012 0.67179 0.0
H712 H 0.94544 0.74397 0.69027 0.0
H713 H 1.00196 0.72774 0.65133 0.0
H714 H 0.06355 0.6475 0.68801 0.0
H715 H 0.03557 0.66857 0.6728 0.0
H716 H 0.98331 0.68683 0.71537 0.0
C717 C 0.94483 0.74285 0.67325 0.0
C718 C 0.99763 0.71885 0.66526 0.0
C719 C 0.92805 0.7523 0.66262 0.0
C720 C 0.05337 0.65624 0.69853 0.0
C721 C 0.03741 0.66848 0.68977 0.0
C722 C 0.98763 0.69588 0.70155 0.0
C723 C 0.96034 0.73167 0.66207 0.0
C724 C 0.97705 0.71976 0.67338 0.0
C725 C 0.02414 0.68058 0.70268 0.0
C726 C 0.00802 0.69454 0.69305 0.0
H727 H 0.94161 0.7389 0.61234 0.0
H728 H 0.9707 0.72242 0.6308 0.0
H729 H 0.95655 0.70839 0.69834 0.0
H730 H 0.0448 0.66732 0.75044 0.0
H731 H 0.0168 0.6887 0.73508 0.0
C732 C 0.33719 0.05896 0.75194 0.0
C733 C 0.337 0.07976 0.74449 0.0
C734 C 0.32875 0.04266 0.73998 0.0
C735 C 0.29217 0.03089 0.69616 0.0
H736 H 0.31862 0.97617 0.70039 0.0
C737 C 0.2654 0.95361 0.65227 0.0
C738 C 0.26278 0.93636 0.66595 0.0
C739 C 0.27422 0.97248 0.65962 0.0
C740 C 0.31107 0.99137 0.69903 0.0
H741 H 0.32765 0.09969 0.71844 0.0
H742 H 0.31314 0.07095 0.69717 0.0
H743 H 0.33539 0.00656 0.71645 0.0
H744 H 0.26708 0.92562 0.69815 0.0
H745 H 0.28271 0.95817 0.71069 0.0
H746 H 0.26788 0.01532 0.67847 0.0
C747 C 0.31969 0.06737 0.71249 0.0
C748 C 0.3206 0.0088 0.70833 0.0
C749 C 0.32811 0.08383 0.72462 0.0
C750 C 0.26879 0.93855 0.68715 0.0
C751 C 0.27788 0.95717 0.69435 0.0
C752 C 0.28273 0.01338 0.68656 0.0
C753 C 0.31998 0.04653 0.72003 0.0
C754 C 0.31099 0.0287 0.70763 0.0
C755 C 0.28093 0.97424 0.68065 0.0
C756 C 0.29183 0.99336 0.68844 0.0
H757 H 0.34369 0.05518 0.76725 0.0
H758 H 0.32881 0.02699 0.74663 0.0
H759 H 0.28425 0.04592 0.69533 0.0
H760 H 0.26092 0.95243 0.63585 0.0
H761 H 0.27642 0.98543 0.64874 0.0
C762 C 0.05565 0.25096 0.6735 0.0
C763 C 0.06966 0.26243 0.66068 0.0
C764 C 0.03811 0.2608 0.68263 0.0
C765 C 0.01926 0.31277 0.69955 0.0
H766 H 0.96333 0.28876 0.69586 0.0
C767 C 0.94537 0.3491 0.74046 0.0
C768 C 0.92783 0.3513 0.72719 0.0
C769 C 0.963 0.33758 0.7338 0.0
C770 C 0.97889 0.29561 0.69708 0.0
H771 H 0.07591 0.29319 0.64718 0.0
H772 H 0.04559 0.3102 0.66318 0.0
H773 H 0.99336 0.2696 0.68119 0.0
H774 H 0.9151 0.34303 0.69655 0.0
H775 H 0.94556 0.32291 0.68521 0.0
H776 H 1.00476 0.33887 0.71526 0.0
C777 C 0.0482 0.29366 0.66625 0.0
C778 C 0.99606 0.28458 0.68881 0.0
C779 C 0.0655 0.28381 0.65693 0.0
C780 C 0.92833 0.34175 0.70719 0.0
C781 C 0.94573 0.33004 0.70071 0.0
C782 C 1.00212 0.32365 0.7081 0.0
C783 C 0.03443 0.28235 0.67939 0.0
C784 C 0.01638 0.29322 0.68961 0.0
C785 C 0.96324 0.32775 0.71392 0.0
C786 C 0.9817 0.31537 0.70662 0.0
H787 H 0.05843 0.23449 0.67676 0.0
H788 H 0.02775 0.25169 0.6927 0.0
H789 H 0.03478 0.31972 0.70058 0.0
H790 H 0.94546 0.35622 0.75596 0.0
H791 H 0.9763 0.33605 0.74432 0.0
C792 C 0.72943 0.97951 0.36154 0.0
C793 C 0.7484 0.9738 0.35163 0.0
C794 C 0.71918 0.99821 0.35613 0.0
C795 C 0.72627 0.0496 0.32916 0.0
H796 H 0.66653 0.04467 0.318 0.0
C797 C 0.67712 0.12023 0.2996 0.0
C798 C 0.66434 0.11596 0.28205 0.0
C799 C 0.68621 0.10379 0.31112 0.0
C800 C 0.68319 0.04633 0.32109 0.0
H801 H 0.77194 0.98384 0.32892 0.0
H802 H 0.75413 0.01642 0.31954 0.0
H803 H 0.68561 0.01477 0.3325 0.0
H804 H 0.65028 0.09105 0.26351 0.0
H805 H 0.66592 0.06249 0.28364 0.0
H806 H 0.72395 0.08097 0.31712 0.0
C807 C 0.74718 0.00647 0.33155 0.0
C808 C 0.69411 0.02925 0.32959 0.0
C809 C 0.75736 0.98772 0.33688 0.0
C810 C 0.66004 0.0949 0.27694 0.0
C811 C 0.66896 0.0785 0.28854 0.0
C812 C 0.71531 0.06674 0.32078 0.0
C813 C 0.72772 0.01173 0.34076 0.0
C814 C 0.71585 0.03055 0.33343 0.0
C815 C 0.68254 0.08272 0.30548 0.0
C816 C 0.69371 0.0652 0.31631 0.0
H817 H 0.72207 0.96921 0.373 0.0
H818 H 0.70438 1.00192 0.36374 0.0
H819 H 0.74296 0.0512 0.3321 0.0
H820 H 0.68083 0.13626 0.30394 0.0
H821 H 0.6964 0.10757 0.32424 0.0
C822 C 0.92941 0.65142 0.31017 0.0
C823 C 0.92049 0.65633 0.29053 0.0
C824 C 0.94686 0.66252 0.31766 0.0
C825 C 0.98997 0.69899 0.30151 0.0
H826 H 0.99064 0.71205 0.36122 0.0
C827 C 0.05299 0.7537 0.33857 0.0
C828 C 0.06237 0.74616 0.35716 0.0
C829 C 0.03494 0.744 0.33042 0.0
C830 C 0.99077 0.70845 0.34453 0.0
H831 H 0.92337 0.67649 0.26309 0.0
H832 H 0.95364 0.69605 0.27624 0.0
H833 H 0.96146 0.69204 0.34661 0.0
H834 H 0.05962 0.72301 0.38213 0.0
H835 H 0.02816 0.70633 0.3681 0.0
H836 H 0.01931 0.71555 0.29953 0.0
C837 C 0.94732 0.68341 0.28579 0.0
C838 C 0.97406 0.69686 0.33613 0.0
C839 C 0.92991 0.67219 0.27824 0.0
C840 C 0.0528 0.72926 0.36781 0.0
C841 C 0.0347 0.71971 0.35978 0.0
C842 C 0.00665 0.71069 0.30991 0.0
C843 C 0.95581 0.67898 0.30579 0.0
C844 C 0.97351 0.69175 0.31454 0.0
C845 C 0.02573 0.7267 0.34079 0.0
C846 C 0.00736 0.7154 0.33157 0.0
H847 H 0.92267 0.63922 0.32002 0.0
H848 H 0.95323 0.65828 0.33289 0.0
H849 H 0.99025 0.69521 0.28487 0.0
H850 H 0.06001 0.76661 0.32991 0.0
H851 H 0.02829 0.74992 0.31589 0.0
C852 C 0.36098 0.92204 0.31531 0.0
C853 C 0.37323 0.92535 0.29709 0.0
C854 C 0.35337 0.93912 0.32704 0.0
C855 C 0.34068 0.99551 0.32106 0.0
H856 H 0.3392 0.99588 0.38216 0.0
C857 C 0.29934 0.06193 0.36741 0.0
C858 C 0.31032 0.07017 0.38477 0.0
C859 C 0.30604 0.04335 0.35766 0.0
C860 C 0.33955 0.99605 0.36509 0.0
H861 H 0.38773 0.94929 0.27744 0.0
H862 H 0.37469 0.97887 0.29791 0.0
H863 H 0.35381 0.96555 0.36358 0.0
H864 H 0.33662 0.06489 0.40582 0.0
H865 H 0.34828 0.03261 0.3888 0.0
H866 H 0.3268 0.02609 0.32249 0.0
C867 C 0.37062 0.96312 0.30296 0.0
C868 C 0.34776 0.97858 0.35444 0.0
C869 C 0.37825 0.9461 0.29131 0.0
C870 C 0.32777 0.05903 0.39249 0.0
C871 C 0.33441 0.04042 0.38279 0.0
C872 C 0.33239 0.0129 0.33168 0.0
C873 C 0.35778 0.95989 0.32076 0.0
C874 C 0.34861 0.97818 0.33227 0.0
C875 C 0.32382 0.03248 0.36506 0.0
C876 C 0.33183 0.01348 0.35384 0.0
H877 H 0.35674 0.90628 0.3202 0.0
H878 H 0.34345 0.93605 0.34061 0.0
H879 H 0.34079 0.99563 0.30398 0.0
H880 H 0.2858 0.07005 0.36107 0.0
H881 H 0.29732 0.03754 0.34423 0.0
C882 C 0.09787 0.33707 0.30933 0.0
C883 C 0.10757 0.32668 0.29232 0.0
C884 C 0.07853 0.33012 0.31732 0.0
C885 C 0.04444 0.28322 0.32087 0.0
H886 H 1.00159 0.32353 0.33671 0.0
C887 C 0.96037 0.25829 0.3477 0.0
C888 C 0.95021 0.27065 0.36302 0.0
C889 C 0.97986 0.26445 0.33928 0.0
C890 C 0.01346 0.31203 0.3327 0.0
H891 H 0.10432 0.30084 0.2703 0.0
H892 H 0.07052 0.28869 0.28429 0.0
H893 H 0.03442 0.33579 0.32113 0.0
H894 H 0.95312 0.29871 0.38216 0.0
H895 H 0.98721 0.30908 0.36802 0.0
H896 H 0.02359 0.25945 0.33268 0.0
C897 C 0.07799 0.30219 0.2915 0.0
C898 C 0.0323 0.31909 0.32366 0.0
C899 C 0.09729 0.30926 0.28337 0.0
C900 C 0.96039 0.28887 0.37028 0.0
C901 C 0.97991 0.29494 0.36199 0.0
C902 C 0.02562 0.27614 0.33005 0.0
C903 C 0.06841 0.31248 0.30864 0.0
C904 C 0.04808 0.30481 0.31769 0.0
C905 C 0.98975 0.28307 0.34606 0.0
C906 C 0.00988 0.29046 0.33619 0.0
H907 H 0.10532 0.3505 0.31666 0.0
H908 H 0.07174 0.3383 0.33066 0.0
H909 H 0.05635 0.2718 0.31671 0.0
H910 H 0.95293 0.24423 0.34163 0.0
H911 H 0.98679 0.25496 0.32693 0.0
C912 C 0.75748 0.68022 0.95122 0.0
C913 C 0.74745 0.667 0.93659 0.0
C914 C 0.74663 0.68763 0.96898 0.0
C915 C 0.69366 0.70075 0.98691 0.0
H916 H 0.71696 0.6991 0.04332 0.0
C917 C 0.65995 0.74803 0.05795 0.0
C918 C 0.65715 0.73669 0.0768 0.0
C919 C 0.67042 0.73895 0.04074 0.0
C920 C 0.71025 0.69963 0.02765 0.0
H921 H 0.71821 0.65093 0.92944 0.0
H922 H 0.69925 0.66417 0.96022 0.0
H923 H 0.73675 0.68385 0.01386 0.0
H924 H 0.66318 0.70689 0.09229 0.0
H925 H 0.68175 0.69129 0.06241 0.0
H926 H 0.66733 0.71686 1.00064 0.0
C927 C 0.71553 0.66871 0.95795 0.0
C928 C 0.72162 0.69102 0.0108 0.0
C929 C 0.72647 0.661 0.94041 0.0
C930 C 0.66495 0.71604 0.07798 0.0
C931 C 0.67573 0.70713 0.06093 0.0
C932 C 0.68247 0.70971 1.0037 0.0
C933 C 0.72541 0.68229 0.9723 0.0
C934 C 0.71339 0.69139 0.99027 0.0
C935 C 0.67867 0.71851 0.04216 0.0
C936 C 0.6906 0.70916 0.02427 0.0
H937 H 0.77361 0.68516 0.94874 0.0
H938 H 0.75462 0.69813 0.97975 0.0
H939 H 0.68701 0.70142 0.97122 0.0
H940 H 0.65416 0.76396 0.05654 0.0
H941 H 0.67253 0.74812 0.02649 0.0
C942 C 0.3272 0.64759 0.0918 0.0
C943 C 0.308 0.63691 0.09466 0.0
C944 C 0.3306 0.66028 0.07409 0.0
C945 C 0.31576 0.66828 0.01932 0.0
H946 H 0.33611 0.72525 0.02724 0.0
C947 C 0.34971 0.71925 0.95133 0.0
C948 C 0.34086 0.73939 0.94908 0.0
C949 C 0.3455 0.70705 0.96925 0.0
C950 C 0.3304 0.70939 0.0248 0.0
H951 H 0.27744 0.63095 0.08085 0.0
H952 H 0.28371 0.65269 0.0494 0.0
H953 H 0.32868 0.70306 0.05801 0.0
H954 H 0.3212 0.76271 0.96431 0.0
H955 H 0.31447 0.74163 0.99599 0.0
H956 H 0.31799 0.67444 0.9861 0.0
C957 C 0.29599 0.65134 0.06111 0.0
C958 C 0.32623 0.69668 0.04238 0.0
C959 C 0.2924 0.63895 0.07911 0.0
C960 C 0.32829 0.74729 0.96555 0.0
C961 C 0.32443 0.73524 0.98369 0.0
C962 C 0.32035 0.68085 1.00173 0.0
C963 C 0.31506 0.66233 0.05855 0.0
C964 C 0.31887 0.67598 0.03984 0.0
C965 C 0.33269 0.71484 0.98556 0.0
C966 C 0.32772 0.70155 1.00427 0.0
H967 H 0.33953 0.64651 0.10349 0.0
H968 H 0.3455 0.66841 0.07247 0.0
H969 H 0.31021 0.65237 0.01689 0.0
H970 H 0.35935 0.7126 0.93892 0.0
H971 H 0.35223 0.69147 0.97035 0.0
C972 C 0.3071 0.34224 0.92788 0.0
C973 C 0.29479 0.36058 0.92791 0.0
C974 C 0.31699 0.33537 0.94621 0.0
C975 C 0.31419 0.33567 1.00338 0.0
H976 H 0.37219 0.31733 0.99907 0.0
C977 C 0.35746 0.29517 0.07315 0.0
C978 C 0.36935 0.27736 0.06763 0.0
C979 C 0.34969 0.30868 0.05752 0.0
C980 C 0.35596 0.32226 1.00057 0.0
H981 H 0.28305 0.38597 0.9474 0.0
H982 H 0.30015 0.37354 0.97987 0.0
H983 H 0.35563 0.33469 0.96919 0.0
H984 H 0.38276 0.26012 0.04135 0.0
H985 H 0.36914 0.28331 0.01433 0.0
H986 H 0.31422 0.32238 0.03445 0.0
C987 C 0.30217 0.36468 0.96543 0.0
C988 C 0.34651 0.33229 0.98346 0.0
C989 C 0.29245 0.3718 0.94688 0.0
C990 C 0.37373 0.2737 0.04622 0.0
C991 C 0.366 0.28714 0.03067 0.0
C992 C 0.32361 0.32543 0.02051 0.0
C993 C 0.31471 0.34648 0.96518 0.0
C994 C 0.32537 0.33862 0.98446 0.0
C995 C 0.3537 0.30471 0.03605 0.0
C996 C 0.34446 0.31808 0.01909 0.0
H997 H 0.30932 0.3332 0.91359 0.0
H998 H 0.3263 0.32113 0.94558 0.0
H999 H 0.29784 0.3403 1.00456 0.0
H1000 H 0.35376 0.29842 0.08951 0.0
H1001 H 0.34044 0.32216 0.06226 0.0
C1002 C 0.70621 0.36921 0.05572 0.0
C1003 C 0.70789 0.36356 0.07708 0.0
C1004 C 0.69558 0.35627 0.04146 0.0
C1005 C 0.68227 0.30084 0.03316 0.0
H1006 H 0.64958 0.32262 0.98652 0.0
C1007 C 0.66993 0.25568 0.95505 0.0
C1008 C 0.65054 0.25749 0.94461 0.0
C1009 C 0.67394 0.26715 0.97343 0.0
C1010 C 0.65844 0.3162 0.99957 0.0
H1011 H 0.69887 0.34021 0.10036 0.0
H1012 H 0.68035 0.31755 0.07538 0.0
H1013 H 0.661 0.3463 0.01451 0.0
H1014 H 0.61981 0.27221 0.94591 0.0
H1015 H 0.62685 0.29225 0.97799 0.0
H1016 H 0.68008 0.27082 0.01798 0.0
C1017 C 0.68739 0.33199 0.06968 0.0
C1018 C 0.66515 0.32983 0.01553 0.0
C1019 C 0.69785 0.34508 0.08402 0.0
C1020 C 0.63493 0.27041 0.95352 0.0
C1021 C 0.63901 0.28204 0.97183 0.0
C1022 C 0.6757 0.28724 0.01711 0.0
C1023 C 0.68649 0.33723 0.04813 0.0
C1024 C 0.67743 0.32239 0.03236 0.0
C1025 C 0.65872 0.28086 0.98179 0.0
C1026 C 0.66397 0.29481 0.99994 0.0
H1027 H 0.71375 0.38332 0.04982 0.0
H1028 H 0.69536 0.36074 0.02497 0.0
H1029 H 0.69185 0.2946 0.04578 0.0
H1030 H 0.68232 0.24589 0.94866 0.0
H1031 H 0.68935 0.26597 0.98056 0.0
C1032 C 0.1889 0.27816 0.32475 0.0
C1033 C 0.19706 0.294 0.31164 0.0
C1034 C 0.2023 0.26555 0.3367 0.0
C1035 C 0.25701 0.26079 0.35674 0.0
H1036 H 0.24227 0.20171 0.35985 0.0
C1037 C 0.31243 0.19604 0.38989 0.0
C1038 C 0.30293 0.18113 0.40319 0.0
C1039 C 0.30013 0.21067 0.379 0.0
C1040 C 0.24651 0.21819 0.35925 0.0
H1041 H 0.22567 0.30952 0.3013 0.0
H1042 H 0.24915 0.28723 0.32189 0.0
H1043 H 0.21975 0.2258 0.3405 0.0
H1044 H 0.27363 0.17107 0.41721 0.0
H1045 H 0.25194 0.19622 0.3979 0.0
H1046 H 0.28406 0.2529 0.37525 0.0
C1047 C 0.23235 0.28472 0.32317 0.0
C1048 C 0.23356 0.23205 0.34824 0.0
C1049 C 0.21889 0.29749 0.31134 0.0
C1050 C 0.28112 0.18174 0.40627 0.0
C1051 C 0.26879 0.19624 0.39535 0.0
C1052 C 0.27009 0.24685 0.36762 0.0
C1053 C 0.22423 0.2683 0.33568 0.0
C1054 C 0.23847 0.25359 0.34705 0.0
C1055 C 0.27813 0.21068 0.38137 0.0
C1056 C 0.26483 0.22545 0.36918 0.0
H1057 H 0.17213 0.2752 0.3255 0.0
H1058 H 0.19542 0.25345 0.34658 0.0
H1059 H 0.26121 0.27728 0.3563 0.0
H1060 H 0.3293 0.19596 0.3874 0.0
H1061 H 0.30774 0.22157 0.36829 0.0
C1062 C 0.83645 0.24873 0.3593 0.0
C1063 C 0.83884 0.27055 0.35763 0.0
C1064 C 0.82276 0.23787 0.34594 0.0
C1065 C 0.79202 0.24415 0.2959 0.0
H1066 H 0.76601 0.19257 0.31523 0.0
C1067 C 0.72721 0.20028 0.24889 0.0
C1068 C 0.72523 0.17842 0.2516 0.0
C1069 C 0.74233 0.21164 0.26016 0.0
C1070 C 0.77352 0.20669 0.30933 0.0
H1071 H 0.82776 0.29839 0.34151 0.0
H1072 H 0.80314 0.27978 0.31886 0.0
H1073 H 0.78819 0.21235 0.339 0.0
H1074 H 0.7392 0.15111 0.26642 0.0
H1075 H 0.76614 0.17071 0.28521 0.0
H1076 H 0.77721 0.23843 0.26619 0.0
C1077 C 0.81252 0.2707 0.32976 0.0
C1078 C 0.78629 0.21815 0.32307 0.0
C1079 C 0.82652 0.28147 0.34292 0.0
C1080 C 0.74007 0.16797 0.26418 0.0
C1081 C 0.75536 0.17928 0.27521 0.0
C1082 C 0.77942 0.23256 0.28206 0.0
C1083 C 0.81052 0.24867 0.33093 0.0
C1084 C 0.79603 0.23693 0.3165 0.0
C1085 C 0.75608 0.20136 0.27413 0.0
C1086 C 0.77008 0.21357 0.28853 0.0
H1087 H 0.84513 0.24002 0.37097 0.0
H1088 H 0.82207 0.22094 0.34728 0.0
H1089 H 0.79883 0.25863 0.29022 0.0
H1090 H 0.7162 0.20883 0.23915 0.0
H1091 H 0.74234 0.2286 0.2588 0.0
C1092 C 0.83426 0.71934 0.2571 0.0
C1093 C 0.84608 0.70883 0.27256 0.0
C1094 C 0.83011 0.74094 0.25906 0.0
C1095 C 0.84835 0.78858 0.2879 0.0
H1096 H 0.79054 0.80728 0.2837 0.0
C1097 C 0.81099 0.84937 0.34184 0.0
C1098 C 0.79664 0.86395 0.33374 0.0
C1099 C 0.82029 0.83451 0.32865 0.0
C1100 C 0.80686 0.80248 0.28444 0.0
H1101 H 0.86296 0.71281 0.30201 0.0
H1102 H 0.85566 0.74986 0.30543 0.0
H1103 H 0.8002 0.77242 0.27075 0.0
H1104 H 0.781 0.87496 0.30556 0.0
H1105 H 0.79692 0.84835 0.28236 0.0
H1106 H 0.85467 0.81801 0.30297 0.0
C1107 C 0.84981 0.74173 0.29164 0.0
C1108 C 0.81239 0.7825 0.27703 0.0
C1109 C 0.8538 0.72033 0.28978 0.0
C1110 C 0.79237 0.86408 0.31203 0.0
C1111 C 0.8013 0.84879 0.29884 0.0
C1112 C 0.84279 0.80841 0.29545 0.0
C1113 C 0.83795 0.75236 0.27635 0.0
C1114 C 0.83301 0.77498 0.27957 0.0
C1115 C 0.81498 0.83358 0.30718 0.0
C1116 C 0.82183 0.8152 0.29457 0.0
H1117 H 0.82808 0.71088 0.24367 0.0
H1118 H 0.82087 0.7487 0.24705 0.0
H1119 H 0.86449 0.78344 0.28961 0.0
H1120 H 0.81426 0.84885 0.35859 0.0
H1121 H 0.83056 0.82283 0.33556 0.0
C1122 C 0.29579 0.89342 0.25144 0.0
C1123 C 0.3105 0.87808 0.24532 0.0
C1124 C 0.2746 0.88814 0.25428 0.0
C1125 C 0.23535 0.8446 0.24791 0.0
H1126 H 0.21566 0.86386 0.3025 0.0
C1127 C 0.18421 0.79502 0.30287 0.0
C1128 C 0.16879 0.80453 0.31555 0.0
C1129 C 0.19694 0.80708 0.28963 0.0
C1130 C 0.22061 0.85867 0.287 0.0
H1131 H 0.31403 0.84565 0.23541 0.0
H1132 H 0.27737 0.83639 0.24065 0.0
H1133 H 0.24662 0.87993 0.28669 0.0
H1134 H 0.15402 0.83407 0.32374 0.0
H1135 H 0.17677 0.85542 0.30075 0.0
H1136 H 0.20998 0.82241 0.24899 0.0
C1137 C 0.28204 0.85256 0.24318 0.0
C1138 C 0.2384 0.86792 0.27786 0.0
C1139 C 0.30319 0.85786 0.24024 0.0
C1140 C 0.16579 0.82635 0.31413 0.0
C1141 C 0.17883 0.83854 0.30104 0.0
C1142 C 0.21764 0.83527 0.25713 0.0
C1143 C 0.26765 0.86739 0.25111 0.0
C1144 C 0.24646 0.86048 0.25855 0.0
C1145 C 0.19475 0.82901 0.28889 0.0
C1146 C 0.21054 0.8417 0.27712 0.0
H1147 H 0.30083 0.90922 0.25525 0.0
H1148 H 0.26386 0.90009 0.25991 0.0
H1149 H 0.24083 0.83877 0.23283 0.0
H1150 H 0.18679 0.7782 0.3035 0.0
H1151 H 0.20921 0.79927 0.28071 0.0
C1152 C 0.17075 0.69253 0.73691 0.0
C1153 C 0.15611 0.67875 0.72775 0.0
C1154 C 0.17664 0.71101 0.72658 0.0
C1155 C 0.15765 0.74773 0.68543 0.0
H1156 H 0.21331 0.77184 0.6916 0.0
C1157 C 0.19038 0.81801 0.63702 0.0
C1158 C 0.20261 0.83285 0.64789 0.0
C1159 C 0.18267 0.8002 0.64738 0.0
C1160 C 0.19762 0.7654 0.68997 0.0
H1161 H 0.13719 0.67292 0.69998 0.0
H1162 H 0.14809 0.7048 0.68158 0.0
H1163 H 0.20574 0.73751 0.70682 0.0
H1164 H 0.21523 0.84136 0.67847 0.0
H1165 H 0.20185 0.81014 0.69651 0.0
H1166 H 0.14986 0.77552 0.66797 0.0
C1167 C 0.15448 0.70169 0.69707 0.0
C1168 C 0.19326 0.74571 0.69867 0.0
C1169 C 0.1484 0.68328 0.70751 0.0
C1170 C 0.20582 0.83024 0.66965 0.0
C1171 C 0.19834 0.81228 0.67995 0.0
C1172 C 0.16211 0.76733 0.67648 0.0
C1173 C 0.16826 0.71606 0.70672 0.0
C1174 C 0.17319 0.73664 0.69662 0.0
C1175 C 0.18726 0.7968 0.66875 0.0
C1176 C 0.18211 0.7764 0.67879 0.0
H1177 H 0.17693 0.68958 0.75252 0.0
H1178 H 0.1871 0.72174 0.73465 0.0
H1179 H 0.14189 0.74147 0.68385 0.0
H1180 H 0.18763 0.81963 0.62025 0.0
H1181 H 0.17418 0.78851 0.63837 0.0
C1182 C 0.30516 0.14891 0.78908 0.0
C1183 C 0.30546 0.12785 0.79538 0.0
C1184 C 0.28887 0.15657 0.77654 0.0
C1185 C 0.24455 0.14024 0.74202 0.0
H1186 H 0.22573 0.19709 0.75325 0.0
C1187 C 0.17317 0.18045 0.70006 0.0
C1188 C 0.17835 0.20005 0.69122 0.0
C1189 C 0.18724 0.17036 0.71376 0.0
C1190 C 0.23081 0.18118 0.74996 0.0
H1191 H 0.28877 0.09824 0.79418 0.0
H1192 H 0.25989 0.11161 0.77252 0.0
H1193 H 0.25335 0.18178 0.77482 0.0
H1194 H 0.20196 0.22469 0.69022 0.0
H1195 H 0.22608 0.20739 0.71424 0.0
H1196 H 0.2217 0.13982 0.71714 0.0
C1197 C 0.27258 0.12216 0.77668 0.0
C1198 C 0.24677 0.17244 0.76219 0.0
C1199 C 0.28903 0.11451 0.78915 0.0
C1200 C 0.19756 0.20953 0.69665 0.0
C1201 C 0.21134 0.1997 0.71053 0.0
C1202 C 0.22838 0.14897 0.72988 0.0
C1203 C 0.27218 0.14338 0.77041 0.0
C1204 C 0.2542 0.15203 0.75811 0.0
C1205 C 0.20643 0.17998 0.71915 0.0
C1206 C 0.22167 0.16968 0.73347 0.0
H1207 H 0.31695 0.1597 0.79478 0.0
H1208 H 0.28925 0.17295 0.77192 0.0
H1209 H 0.24993 0.12453 0.73834 0.0
H1210 H 0.15849 0.17278 0.6961 0.0
H1211 H 0.18309 0.15517 0.72026 0.0
C1212 C 0.80674 0.19407 0.63811 0.0
C1213 C 0.79335 0.1793 0.64776 0.0
C1214 C 0.81315 0.21203 0.64901 0.0
C1215 C 0.79312 0.24695 0.68964 0.0
H1216 H 0.8485 0.27241 0.68769 0.0
C1217 C 0.81415 0.32113 0.73739 0.0
C1218 C 0.82906 0.3352 0.72905 0.0
C1219 C 0.80952 0.30238 0.72695 0.0
C1220 C 0.83285 0.26569 0.68809 0.0
H1221 H 0.77748 0.171 0.67696 0.0
H1222 H 0.78867 0.2024 0.69595 0.0
H1223 H 0.84293 0.23792 0.67184 0.0
H1224 H 0.84977 0.34128 0.70249 0.0
H1225 H 0.84114 0.30891 0.6839 0.0
H1226 H 0.7828 0.27479 0.70536 0.0
C1227 C 0.79401 0.20015 0.67987 0.0
C1228 C 0.82974 0.24585 0.67916 0.0
C1229 C 0.78779 0.18207 0.66905 0.0
C1230 C 0.83829 0.33071 0.7094 0.0
C1231 C 0.83352 0.31203 0.69886 0.0
C1232 C 0.79616 0.26685 0.69837 0.0
C1233 C 0.80614 0.21564 0.66972 0.0
C1234 C 0.80986 0.23625 0.67993 0.0
C1235 C 0.81952 0.29734 0.7078 0.0
C1236 C 0.81608 0.27648 0.69777 0.0
H1237 H 0.81135 0.19234 0.62174 0.0
H1238 H 0.8225 0.2237 0.64079 0.0
H1239 H 0.77751 0.24012 0.69007 0.0
H1240 H 0.80679 0.32403 0.75254 0.0
H1241 H 0.79879 0.29143 0.73443 0.0
C1242 C 0.80097 0.80913 0.6519 0.0
C1243 C 0.80038 0.78718 0.64983 0.0
C1244 C 0.78284 0.82017 0.6578 0.0
C1245 C 0.72464 0.81382 0.66009 0.0
H1246 H 0.72727 0.86258 0.69654 0.0
C1247 C 0.65294 0.84967 0.70361 0.0
C1248 C 0.65159 0.87171 0.7041 0.0
C1249 C 0.6705 0.83984 0.6947 0.0
C1250 C 0.72634 0.84911 0.68615 0.0
H1251 H 0.78078 0.75947 0.65332 0.0
H1252 H 0.7496 0.7785 0.6643 0.0
H1253 H 0.75967 0.8446 0.68662 0.0
H1254 H 0.66711 0.90065 0.69456 0.0
H1255 H 0.6977 0.88343 0.6792 0.0
H1256 H 0.6912 0.81802 0.66025 0.0
C1257 C 0.76368 0.78738 0.66063 0.0
C1258 C 0.7449 0.83883 0.68042 0.0
C1259 C 0.78164 0.77643 0.65451 0.0
C1260 C 0.66765 0.88364 0.69453 0.0
C1261 C 0.68526 0.87383 0.68585 0.0
C1262 C 0.70609 0.82395 0.66602 0.0
C1263 C 0.76388 0.80941 0.66195 0.0
C1264 C 0.74428 0.82094 0.66745 0.0
C1265 C 0.68708 0.85187 0.6863 0.0
C1266 C 0.70675 0.84163 0.67918 0.0
H1267 H 0.8152 0.81781 0.64828 0.0
H1268 H 0.78354 0.83715 0.65853 0.0
H1269 H 0.72357 0.80039 0.64967 0.0
H1270 H 0.64086 0.84004 0.71086 0.0
H1271 H 0.67155 0.82286 0.69528 0.0
C1272 C 0.31474 0.17612 0.33131 0.0
C1273 C 0.29543 0.16963 0.33993 0.0
C1274 C 0.31538 0.18851 0.31319 0.0
C1275 C 0.28587 0.19792 0.26531 0.0
H1276 H 0.33105 0.23774 0.25528 0.0
C1277 C 0.3297 0.20384 0.18737 0.0
C1278 C 0.33862 0.22291 0.18065 0.0
C1279 C 0.31843 0.2027 0.20621 0.0
C1280 C 0.318 0.22706 0.25781 0.0
H1281 H 0.26156 0.17191 0.33689 0.0
H1282 H 0.26269 0.19346 0.30481 0.0
H1283 H 0.32271 0.22695 0.29122 0.0
H1284 H 0.34148 0.2561 0.1877 0.0
H1285 H 0.32194 0.25404 0.22106 0.0
H1286 H 0.28174 0.1974 0.23181 0.0
C1287 C 0.27733 0.18881 0.31213 0.0
C1288 C 0.31338 0.22071 0.27841 0.0
C1289 C 0.27669 0.17649 0.33046 0.0
C1290 C 0.33499 0.24113 0.19262 0.0
C1291 C 0.32383 0.23995 0.21169 0.0
C1292 C 0.29051 0.20428 0.24469 0.0
C1293 C 0.29673 0.19469 0.30314 0.0
C1294 C 0.29796 0.2053 0.28228 0.0
C1295 C 0.31586 0.22059 0.21893 0.0
C1296 C 0.30731 0.21813 0.24064 0.0
H1297 H 0.32948 0.17135 0.33835 0.0
H1298 H 0.33059 0.19248 0.30656 0.0
H1299 H 0.27388 0.18605 0.26774 0.0
H1300 H 0.3319 0.18957 0.17834 0.0
H1301 H 0.31274 0.18748 0.21136 0.0
C1302 C 0.88093 0.2796 0.29111 0.0
C1303 C 0.87298 0.26227 0.30238 0.0
C1304 C 0.87004 0.28767 0.27388 0.0
C1305 C 0.81738 0.2959 0.25734 0.0
H1306 H 0.84215 0.31389 0.20441 0.0
C1307 C 0.77177 0.34497 0.1949 0.0
C1308 C 0.7835 0.35965 0.18324 0.0
C1309 C 0.78183 0.33131 0.20898 0.0
C1310 C 0.83503 0.3092 0.21922 0.0
H1311 H 0.84845 0.23855 0.30313 0.0
H1312 H 0.82977 0.25248 0.2723 0.0
H1313 H 0.86215 0.29127 0.22803 0.0
H1314 H 0.81474 0.37268 0.17847 0.0
H1315 H 0.832 0.34944 0.20317 0.0
H1316 H 0.79075 0.31475 0.24925 0.0
C1317 C 0.84393 0.26021 0.27761 0.0
C1318 C 0.84642 0.29604 0.23258 0.0
C1319 C 0.85478 0.25214 0.295 0.0
C1320 C 0.80521 0.36134 0.18695 0.0
C1321 C 0.8152 0.34777 0.20095 0.0
C1322 C 0.80607 0.30934 0.24412 0.0
C1323 C 0.85103 0.27854 0.26751 0.0
C1324 C 0.83783 0.28955 0.25189 0.0
C1325 C 0.80378 0.3321 0.21162 0.0
C1326 C 0.81496 0.31654 0.22509 0.0
H1327 H 0.89504 0.28766 0.2962 0.0
H1328 H 0.87589 0.30178 0.26628 0.0
H1329 H 0.81059 0.2914 0.27237 0.0
H1330 H 0.75497 0.34358 0.19259 0.0
H1331 H 0.77253 0.31964 0.21721 0.0
C1332 C 0.63307 0.82063 0.18405 0.0
C1333 C 0.64617 0.80633 0.1734 0.0
C1334 C 0.64075 0.83245 0.2009 0.0
C1335 C 0.68253 0.83051 0.24102 0.0
H1336 H 0.6639 0.88711 0.25358 0.0
C1337 C 0.7041 0.87081 0.31943 0.0
C1338 C 0.7113 0.8916 0.31758 0.0
C1339 C 0.69416 0.86098 0.3024 0.0
C1340 C 0.66932 0.87132 0.25028 0.0
H1341 H 0.67804 0.7944 0.17112 0.0
H1342 H 0.69158 0.81545 0.20018 0.0
H1343 H 0.65248 0.87016 0.22115 0.0
H1344 H 0.71267 0.91876 0.29688 0.0
H1345 H 0.69569 0.90166 0.26734 0.0
H1346 H 0.6999 0.83191 0.26979 0.0
C1347 C 0.67519 0.81706 0.19588 0.0
C1348 C 0.66263 0.86155 0.23175 0.0
C1349 C 0.66748 0.80516 0.17907 0.0
C1350 C 0.70739 0.90268 0.29882 0.0
C1351 C 0.6975 0.8929 0.28187 0.0
C1352 C 0.68927 0.84032 0.2595 0.0
C1353 C 0.66175 0.83035 0.20742 0.0
C1354 C 0.66923 0.84105 0.22684 0.0
C1355 C 0.6912 0.87179 0.28325 0.0
C1356 C 0.68283 0.86088 0.26432 0.0
H1357 H 0.61657 0.82196 0.1801 0.0
H1358 H 0.62992 0.84244 0.20946 0.0
H1359 H 0.68761 0.81457 0.23795 0.0
H1360 H 0.70687 0.86187 0.33369 0.0
H1361 H 0.68917 0.84479 0.30409 0.0
C1362 C 0.24189 0.62678 0.2248 0.0
C1363 C 0.23893 0.6282 0.2029 0.0
C1364 C 0.22807 0.63666 0.23871 0.0
C1365 C 0.18886 0.67943 0.24083 0.0
H1366 H 0.1766 0.65561 0.29587 0.0
C1367 C 0.13151 0.7191 0.29811 0.0
C1368 C 0.13937 0.72279 0.31848 0.0
C1369 C 0.14183 0.70543 0.2844 0.0
C1370 C 0.17997 0.66244 0.28057 0.0
H1371 H 0.21876 0.6406 0.1784 0.0
H1372 H 0.19417 0.65744 0.20275 0.0
H1373 H 0.19742 0.63554 0.27049 0.0
H1374 H 0.16357 0.71409 0.34084 0.0
H1375 H 0.18156 0.68989 0.3168 0.0
H1376 H 0.17125 0.70624 0.2509 0.0
C1377 C 0.20752 0.64908 0.20917 0.0
C1378 C 0.19193 0.65101 0.26604 0.0
C1379 C 0.22153 0.63935 0.1952 0.0
C1380 C 0.15714 0.71158 0.32525 0.0
C1381 C 0.16741 0.69773 0.31152 0.0
C1382 C 0.17672 0.69072 0.25526 0.0
C1383 C 0.21075 0.64805 0.23111 0.0
C1384 C 0.19675 0.65948 0.24606 0.0
C1385 C 0.16015 0.69499 0.29078 0.0
C1386 C 0.17231 0.68243 0.27533 0.0
H1387 H 0.25522 0.61842 0.23127 0.0
H1388 H 0.23135 0.63582 0.25543 0.0
H1389 H 0.19257 0.68666 0.22581 0.0
H1390 H 0.11774 0.72731 0.29243 0.0
H1391 H 0.1357 0.70335 0.26862 0.0
C1392 C 0.32843 0.80468 0.83472 0.0
C1393 C 0.34803 0.80994 0.84347 0.0
C1394 C 0.32227 0.813 0.81527 0.0
C1395 C 0.34576 0.83663 0.76687 0.0
H1396 H 0.28735 0.84443 0.75148 0.0
C1397 C 0.31773 0.87234 0.68706 0.0
C1398 C 0.30072 0.86219 0.67721 0.0
C1399 C 0.32434 0.86618 0.70719 0.0
C1400 C 0.30373 0.84217 0.75552 0.0
H1401 H 0.37578 0.82935 0.83938 0.0
H1402 H 0.36466 0.84458 0.80597 0.0
H1403 H 0.29627 0.83556 0.78775 0.0
H1404 H 0.27786 0.83703 0.6806 0.0
H1405 H 0.28933 0.82644 0.71568 0.0
H1406 H 0.35311 0.84369 0.73458 0.0
C1407 C 0.35436 0.83339 0.81369 0.0
C1408 C 0.30887 0.83705 0.77633 0.0
C1409 C 0.36064 0.82486 0.83302 0.0
C1410 C 0.29104 0.84519 0.68764 0.0
C1411 C 0.29746 0.83923 0.70785 0.0
C1412 C 0.34061 0.84204 0.74611 0.0
C1413 C 0.33541 0.82704 0.80416 0.0
C1414 C 0.32996 0.83396 0.7823 0.0
C1415 C 0.3139 0.84992 0.71802 0.0
C1416 C 0.31953 0.84462 0.74015 0.0
H1417 H 0.31836 0.79312 0.84222 0.0
H1418 H 0.30766 0.80752 0.80848 0.0
H1419 H 0.36214 0.83401 0.77063 0.0
H1420 H 0.32551 0.88552 0.67952 0.0
H1421 H 0.33704 0.87472 0.71465 0.0
C1422 C 0.2515 0.33157 0.81849 0.0
C1423 C 0.24196 0.34482 0.83343 0.0
C1424 C 0.24004 0.32382 0.80148 0.0
C1425 C 0.19237 0.33533 0.77025 0.0
H1426 H 0.20333 0.2802 0.74671 0.0
C1427 C 0.13961 0.29282 0.70962 0.0
C1428 C 0.1496 0.2811 0.69374 0.0
C1429 C 0.15143 0.30306 0.72501 0.0
C1430 C 0.20034 0.29576 0.75294 0.0
H1431 H 0.21258 0.35936 0.84287 0.0
H1432 H 0.19233 0.34519 0.8135 0.0
H1433 H 0.2217 0.29122 0.77845 0.0
H1434 H 0.17977 0.27191 0.68069 0.0
H1435 H 0.20048 0.28975 0.70776 0.0
H1436 H 0.17046 0.33947 0.74495 0.0
C1437 C 0.20887 0.34133 0.81461 0.0
C1438 C 0.21082 0.30208 0.77116 0.0
C1439 C 0.2204 0.34925 0.83158 0.0
C1440 C 0.17166 0.28094 0.69268 0.0
C1441 C 0.1835 0.29095 0.70827 0.0
C1442 C 0.18171 0.3289 0.75212 0.0
C1443 C 0.21868 0.32892 0.79908 0.0
C1444 C 0.207 0.32195 0.78005 0.0
C1445 C 0.17345 0.30153 0.72494 0.0
C1446 C 0.18563 0.30907 0.74329 0.0
H1447 H 0.26811 0.3279 0.81936 0.0
H1448 H 0.2482 0.31451 0.78975 0.0
H1449 H 0.18933 0.3509 0.7764 0.0
H1450 H 0.1226 0.29321 0.71076 0.0
H1451 H 0.14328 0.31105 0.7377 0.0
C1452 C 0.70283 0.17313 0.6789 0.0
C1453 C 0.69243 0.1582 0.66634 0.0
C1454 C 0.69537 0.17797 0.69909 0.0
C1455 C 0.66175 0.15535 0.7416 0.0
H1456 H 0.66954 0.21019 0.76696 0.0
C1457 C 0.62477 0.18173 0.82125 0.0
C1458 C 0.63732 0.19408 0.83465 0.0
C1459 C 0.63218 0.17567 0.80136 0.0
C1460 C 0.66749 0.19472 0.76016 0.0
H1461 H 0.6652 0.13774 0.66463 0.0
H1462 H 0.65169 0.14683 0.69944 0.0
H1463 H 0.67929 0.20477 0.7302 0.0
H1464 H 0.66804 0.20856 0.83811 0.0
H1465 H 0.68085 0.19804 0.80339 0.0
H1466 H 0.6494 0.14558 0.77157 0.0
C1467 C 0.66606 0.15425 0.69404 0.0
C1468 C 0.67307 0.19158 0.73905 0.0
C1469 C 0.67366 0.14923 0.67393 0.0
C1470 C 0.65794 0.19906 0.82824 0.0
C1471 C 0.66523 0.19323 0.80825 0.0
C1472 C 0.65592 0.15858 0.76265 0.0
C1473 C 0.67715 0.16821 0.70717 0.0
C1474 C 0.67038 0.17183 0.72946 0.0
C1475 C 0.65219 0.18201 0.79436 0.0
C1476 C 0.65884 0.17826 0.77219 0.0
H1477 H 0.71742 0.18024 0.67365 0.0
H1478 H 0.7045 0.18863 0.7087 0.0
H1479 H 0.65983 0.1398 0.73498 0.0
H1480 H 0.60883 0.17761 0.8257 0.0
H1481 H 0.62177 0.16702 0.79102 0.0
C1482 C 0.83454 0.70972 0.67349 0.0
C1483 C 0.85375 0.70487 0.66361 0.0
C1484 C 0.82946 0.70111 0.69312 0.0
C1485 C 0.85552 0.677 0.73977 0.0
H1486 H 0.79786 0.67071 0.7588 0.0
C1487 C 0.82679 0.64044 0.81977 0.0
C1488 C 0.81185 0.65254 0.83077 0.0
C1489 C 0.83389 0.64671 0.79981 0.0
C1490 C 0.81404 0.67251 0.75368 0.0
H1491 H 0.88187 0.68581 0.66582 0.0
H1492 H 0.8725 0.66988 0.69955 0.0
H1493 H 0.80496 0.67889 0.72195 0.0
H1494 H 0.79363 0.68137 0.82991 0.0
H1495 H 0.80576 0.69199 0.79497 0.0
H1496 H 0.86438 0.66981 0.77164 0.0
C1497 C 0.86175 0.68106 0.69259 0.0
C1498 C 0.81815 0.67728 0.73257 0.0
C1499 C 0.867 0.68997 0.67308 0.0
C1500 C 0.80519 0.67169 0.82196 0.0
C1501 C 0.81197 0.67772 0.80186 0.0
C1502 C 0.85137 0.67179 0.76084 0.0
C1503 C 0.84325 0.68709 0.70326 0.0
C1504 C 0.83895 0.67998 0.72534 0.0
C1505 C 0.82589 0.66497 0.79038 0.0
C1506 C 0.83058 0.66987 0.76803 0.0
H1507 H 0.824 0.72126 0.66676 0.0
H1508 H 0.8152 0.70643 0.70079 0.0
H1509 H 0.87173 0.67929 0.73502 0.0
H1510 H 0.83221 0.62561 0.82614 0.0
H1511 H 0.84467 0.63666 0.79124 0.0
C1512 C 0.20471 0.28437 0.20852 0.0
C1513 C 0.20312 0.30611 0.20485 0.0
C1514 C 0.21875 0.2721 0.19678 0.0
C1515 C 0.2516 0.27232 0.14808 0.0
H1516 H 0.28449 0.23078 0.1782 0.0
C1517 C 0.32721 0.23549 0.11379 0.0
C1518 C 0.32967 0.21375 0.11619 0.0
C1519 C 0.31087 0.246 0.12409 0.0
C1520 C 0.27527 0.24217 0.16954 0.0
H1521 H 0.21459 0.33184 0.18549 0.0
H1522 H 0.23914 0.31059 0.1653 0.0
H1523 H 0.25712 0.25029 0.1968 0.0
H1524 H 0.31672 0.1857 0.1306 0.0
H1525 H 0.28815 0.2041 0.14885 0.0
H1526 H 0.27013 0.2645 0.12096 0.0
C1527 C 0.2294 0.3029 0.17704 0.0
C1528 C 0.25952 0.25331 0.18016 0.0
C1529 C 0.21534 0.31514 0.18871 0.0
C1530 C 0.31519 0.20254 0.12862 0.0
C1531 C 0.29897 0.21307 0.13916 0.0
C1532 C 0.26742 0.26129 0.13752 0.0
C1533 C 0.23153 0.28128 0.18112 0.0
C1534 C 0.24756 0.26863 0.16959 0.0
C1535 C 0.29667 0.23493 0.13702 0.0
C1536 C 0.2795 0.24619 0.14816 0.0
H1537 H 0.19549 0.27689 0.2208 0.0
H1538 H 0.21971 0.25544 0.2001 0.0
H1539 H 0.24248 0.28372 0.13934 0.0
H1540 H 0.33777 0.24429 0.10376 0.0
H1541 H 0.3095 0.26286 0.12214 0.0
C1542 C 0.29825 0.70495 0.86233 0.0
C1543 C 0.29767 0.72692 0.8642 0.0
C1544 C 0.27978 0.69369 0.85803 0.0
C1545 C 0.22154 0.69983 0.86022 0.0
H1546 H 0.22126 0.6519 0.8226 0.0
C1547 C 0.14818 0.66887 0.81684 0.0
C1548 C 0.1457 0.647 0.81506 0.0
C1549 C 0.16604 0.67728 0.82647 0.0
C1550 C 0.22116 0.66508 0.8334 0.0
H1551 H 0.27771 0.75443 0.86194 0.0
H1552 H 0.24595 0.73506 0.85373 0.0
H1553 H 0.25453 0.66903 0.8311 0.0
H1554 H 0.15939 0.61681 0.82318 0.0
H1555 H 0.19062 0.63161 0.83978 0.0
H1556 H 0.18804 0.69636 0.86172 0.0
C1557 C 0.2603 0.72632 0.85638 0.0
C1558 C 0.24022 0.67489 0.83829 0.0
C1559 C 0.27858 0.73746 0.86089 0.0
C1560 C 0.1608 0.63374 0.82427 0.0
C1561 C 0.17878 0.64217 0.83364 0.0
C1562 C 0.2025 0.69018 0.85513 0.0
C1563 C 0.26052 0.70427 0.85534 0.0
C1564 C 0.24059 0.69264 0.85145 0.0
C1565 C 0.18183 0.66399 0.83429 0.0
C1566 C 0.2021 0.67291 0.84144 0.0
H1567 H 0.31276 0.69645 0.8649 0.0
H1568 H 0.28051 0.67671 0.85739 0.0
H1569 H 0.22127 0.71312 0.87087 0.0
H1570 H 0.13684 0.67949 0.8099 0.0
H1571 H 0.16805 0.69418 0.82671 0.0
C1572 C 0.31757 0.36367 0.82542 0.0
C1573 C 0.32578 0.37052 0.84484 0.0
C1574 C 0.32505 0.34531 0.81595 0.0
C1575 C 0.34896 0.29595 0.83353 0.0
H1576 H 0.34759 0.28121 0.77422 0.0
C1577 C 0.37054 0.21333 0.80678 0.0
C1578 C 0.35679 0.20334 0.79266 0.0
C1579 C 0.36917 0.23486 0.81037 0.0
C1580 C 0.34791 0.28513 0.79083 0.0
H1581 H 0.35033 0.36514 0.86787 0.0
H1582 H 0.36397 0.33367 0.85088 0.0
H1583 H 0.34288 0.31793 0.78489 0.0
H1584 H 0.33139 0.20825 0.77051 0.0
H1585 H 0.32876 0.24621 0.77708 0.0
H1586 H 0.35364 0.26332 0.8396 0.0
C1587 C 0.35105 0.34192 0.8435 0.0
C1588 C 0.34528 0.30613 0.79695 0.0
C1589 C 0.34338 0.36012 0.85313 0.0
C1590 C 0.34216 0.21555 0.78151 0.0
C1591 C 0.34072 0.23725 0.78521 0.0
C1592 C 0.35165 0.2751 0.82744 0.0
C1593 C 0.34117 0.33362 0.82549 0.0
C1594 C 0.34573 0.31178 0.81842 0.0
C1595 C 0.35393 0.24701 0.80007 0.0
C1596 C 0.35115 0.2694 0.80605 0.0
H1597 H 0.30415 0.37144 0.81842 0.0
H1598 H 0.31707 0.33949 0.80207 0.0
H1599 H 0.34873 0.2995 0.85022 0.0
H1600 H 0.38226 0.20447 0.81536 0.0
H1601 H 0.37989 0.24196 0.82155 0.0
C1602 C 0.68353 0.29769 0.86093 0.0
C1603 C 0.68433 0.27586 0.85773 0.0
C1604 C 0.70153 0.31006 0.85757 0.0
C1605 C 0.75947 0.30478 0.85534 0.0
H1606 H 0.75852 0.35822 0.82608 0.0
C1607 C 0.83235 0.34157 0.81608 0.0
C1608 C 0.83454 0.36354 0.8161 0.0
C1609 C 0.81453 0.33212 0.8249 0.0
C1610 C 0.759 0.34349 0.83462 0.0
H1611 H 0.70409 0.25009 0.84727 0.0
H1612 H 0.73502 0.27154 0.84109 0.0
H1613 H 0.72551 0.33977 0.83316 0.0
H1614 H 0.82037 0.39272 0.8267 0.0
H1615 H 0.78933 0.37614 0.84217 0.0
H1616 H 0.79294 0.30817 0.85632 0.0
C1617 C 0.72085 0.2791 0.8468 0.0
C1618 C 0.74009 0.33293 0.83864 0.0
C1619 C 0.70303 0.26683 0.85019 0.0
C1620 C 0.81916 0.37574 0.82634 0.0
C1621 C 0.80128 0.36629 0.83505 0.0
C1622 C 0.77833 0.31529 0.85129 0.0
C1623 C 0.72052 0.30076 0.85096 0.0
C1624 C 0.74018 0.3132 0.84858 0.0
C1625 C 0.7985 0.34443 0.83389 0.0
C1626 C 0.77836 0.33454 0.84049 0.0
H1627 H 0.66933 0.30505 0.8668 0.0
H1628 H 0.70079 0.32674 0.86084 0.0
H1629 H 0.76003 0.28983 0.8635 0.0
H1630 H 0.84388 0.3317 0.80831 0.0
H1631 H 0.81281 0.31523 0.82363 0.0
C1632 C 0.74355 0.71894 0.84009 0.0
C1633 C 0.7319 0.70147 0.84701 0.0
C1634 C 0.73342 0.73679 0.83252 0.0
C1635 C 0.68575 0.76699 0.838 0.0
H1636 H 0.70407 0.79388 0.7862 0.0
C1637 C 0.64496 0.84055 0.8031 0.0
C1638 C 0.65722 0.85473 0.79127 0.0
C1639 C 0.65382 0.82212 0.8111 0.0
C1640 C 0.699 0.78682 0.80091 0.0
H1641 H 0.70055 0.68877 0.85123 0.0
H1642 H 0.68262 0.72051 0.83829 0.0
H1643 H 0.7191 0.76023 0.79638 0.0
H1644 H 0.68873 0.86154 0.78004 0.0
H1645 H 0.7044 0.82988 0.79476 0.0
H1646 H 0.66614 0.79386 0.84295 0.0
C1647 C 0.69965 0.72015 0.83864 0.0
C1648 C 0.70746 0.76742 0.80658 0.0
C1649 C 0.70986 0.70201 0.84586 0.0
C1650 C 0.67883 0.85083 0.78892 0.0
C1651 C 0.68774 0.83254 0.79715 0.0
C1652 C 0.67744 0.78658 0.83246 0.0
C1653 C 0.7114 0.73772 0.83202 0.0
C1654 C 0.70102 0.75738 0.82522 0.0
C1655 C 0.67519 0.81757 0.80767 0.0
C1656 C 0.68408 0.79683 0.8139 0.0
H1657 H 0.76058 0.71891 0.84073 0.0
H1658 H 0.74284 0.75015 0.82766 0.0
H1659 H 0.68074 0.75968 0.8526 0.0
H1660 H 0.62823 0.84303 0.80516 0.0
H1661 H 0.64361 0.81097 0.81901 0.0
C1662 C 0.69868 0.69814 0.16637 0.0
C1663 C 0.67977 0.7069 0.17376 0.0
C1664 C 0.71282 0.68883 0.18031 0.0
C1665 C 0.72949 0.6903 0.2355 0.0
H1666 H 0.75985 0.63969 0.22038 0.0
C1667 C 0.7905 0.65079 0.29078 0.0
C1668 C 0.80872 0.64256 0.28125 0.0
C1669 C 0.77392 0.65838 0.27848 0.0
C1670 C 0.75169 0.65397 0.22475 0.0
H1671 H 0.66063 0.71229 0.20159 0.0
H1672 H 0.68549 0.69598 0.22607 0.0
H1673 H 0.73177 0.65236 0.19765 0.0
H1674 H 0.82334 0.6355 0.25139 0.0
H1675 H 0.79508 0.64933 0.22988 0.0
H1676 H 0.7497 0.69214 0.2624 0.0
C1677 C 0.68934 0.69645 0.20943 0.0
C1678 C 0.73552 0.66117 0.21176 0.0
C1679 C 0.67504 0.70563 0.1954 0.0
C1680 C 0.80996 0.64222 0.2592 0.0
C1681 C 0.79346 0.64982 0.24688 0.0
C1682 C 0.74574 0.68314 0.24848 0.0
C1683 C 0.70849 0.68815 0.20203 0.0
C1684 C 0.72441 0.67956 0.21683 0.0
C1685 C 0.77511 0.65778 0.25635 0.0
C1686 C 0.75722 0.66503 0.24311 0.0
H1687 H 0.7028 0.69884 0.1498 0.0
H1688 H 0.72751 0.68279 0.17412 0.0
H1689 H 0.72138 0.70467 0.2397 0.0
H1690 H 0.78896 0.65117 0.30779 0.0
H1691 H 0.75995 0.66421 0.28633 0.0
C1692 C 0.36608 0.78663 0.27267 0.0
C1693 C 0.37779 0.79767 0.25746 0.0
C1694 C 0.36317 0.76482 0.27071 0.0
C1695 C 0.38078 0.71812 0.23892 0.0
H1696 H 0.32196 0.70225 0.24168 0.0
C1697 C 0.33787 0.66715 0.17881 0.0
C1698 C 0.32452 0.65107 0.18593 0.0
C1699 C 0.34809 0.68019 0.1932 0.0
C1700 C 0.33853 0.70624 0.24128 0.0
H1701 H 0.39701 0.79449 0.22935 0.0
H1702 H 0.39189 0.7571 0.2258 0.0
H1703 H 0.33353 0.73491 0.25811 0.0
H1704 H 0.31155 0.63565 0.21352 0.0
H1705 H 0.32887 0.65922 0.23886 0.0
H1706 H 0.38526 0.69036 0.22029 0.0
C1707 C 0.38497 0.76483 0.23935 0.0
C1708 C 0.34521 0.72493 0.25076 0.0
C1709 C 0.38774 0.78643 0.24124 0.0
C1710 C 0.32204 0.64778 0.20771 0.0
C1711 C 0.33181 0.66127 0.22215 0.0
C1712 C 0.37402 0.69966 0.22913 0.0
C1713 C 0.37213 0.75377 0.25364 0.0
C1714 C 0.36625 0.73161 0.24881 0.0
C1715 C 0.34467 0.67776 0.21496 0.0
C1716 C 0.3527 0.69402 0.22953 0.0
H1717 H 0.35823 0.79495 0.28533 0.0
H1718 H 0.35334 0.75676 0.28211 0.0
H1719 H 0.39721 0.72246 0.23758 0.0
H1720 H 0.3399 0.67004 0.16209 0.0
H1721 H 0.35773 0.69296 0.18727 0.0
C1722 C 0.77773 0.3223 0.14294 0.0
C1723 C 0.76898 0.33305 0.12577 0.0
C1724 C 0.76491 0.31023 0.1563 0.0
C1725 C 0.71184 0.28534 0.16042 0.0
H1726 H 0.72191 0.28973 0.22052 0.0
C1727 C 0.65293 0.25078 0.21998 0.0
C1728 C 0.66146 0.2391 0.23673 0.0
C1729 C 0.66576 0.26369 0.20756 0.0
C1730 C 0.71893 0.28815 0.2038 0.0
H1731 H 0.7409 0.33745 0.10743 0.0
H1732 H 0.71805 0.31772 0.13135 0.0
H1733 H 0.74539 0.30719 0.19584 0.0
H1734 H 0.68984 0.23353 0.25478 0.0
H1735 H 0.71226 0.25569 0.23295 0.0
H1736 H 0.68549 0.26592 0.16833 0.0
C1737 C 0.73469 0.31865 0.13482 0.0
C1738 C 0.73247 0.29822 0.18959 0.0
C1739 C 0.74758 0.33048 0.1214 0.0
C1740 C 0.68276 0.2421 0.24187 0.0
C1741 C 0.69565 0.2549 0.22933 0.0
C1742 C 0.69833 0.27517 0.1746 0.0
C1743 C 0.7431 0.30865 0.1527 0.0
C1744 C 0.72908 0.2971 0.16772 0.0
C1745 C 0.68746 0.26523 0.21153 0.0
C1746 C 0.70162 0.27653 0.19651 0.0
H1747 H 0.79435 0.32371 0.14638 0.0
H1748 H 0.77207 0.3023 0.16957 0.0
H1749 H 0.70891 0.28372 0.14369 0.0
H1750 H 0.63653 0.24909 0.21572 0.0
H1751 H 0.65878 0.27193 0.19439 0.0
loop_
_geom_bond_atom_site_label_1
_geom_bond_atom_site_label_2
_geom_bond_distance
_geom_bond_site_symmetry_2
_ccdc_geom_bond_type
Mg0 O7 2.141 . S
Mg0 O8 2.048 . S
Mg0 O9 2.048 . S
Mg0 O12 2.141 . S
C1 O2 1.313 . S
C1 O8 1.195 . S
O2 C1 1.313 . S
C3 O4 1.245 . S
C3 O12 1.289 . S
O4 C3 1.245 . S
C5 O6 1.245 . S
C5 O7 1.289 . S
O6 C5 1.245 . S
O7 Mg0 2.141 . S
O7 C5 1.289 . S
O8 Mg0 2.048 . S
O8 C1 1.195 . S
O9 Mg0 2.048 . S
O9 C10 1.195 . S
C10 O9 1.195 . S
C10 O11 1.313 . S
O11 C10 1.313 . S
O12 Mg0 2.141 . S
O12 C3 1.289 . S
Mg13 O20 2.141 . S
Mg13 O21 2.048 . S
Mg13 O22 2.048 . S
Mg13 O25 2.141 . S
C14 O15 1.313 . S
C14 O21 1.195 . S
O15 C14 1.313 . S
C16 O17 1.245 . S
C16 O25 1.289 . S
O17 C16 1.245 . S
C18 O19 1.245 . S
C18 O20 1.289 . S
O19 C18 1.245 . S
O20 Mg13 2.141 . S
O20 C18 1.289 . S
O21 Mg13 2.048 . S
O21 C14 1.195 . S
O22 Mg13 2.048 . S
O22 C23 1.195 . S
C23 O22 1.195 . S
C23 O24 1.313 . S
O24 C23 1.313 . S
O25 Mg13 2.141 . S
O25 C16 1.289 . S
Mg26 O33 2.141 . S
Mg26 O34 2.048 . S
Mg26 O35 2.048 . S
Mg26 O38 2.141 . S
C27 O28 1.313 . S
C27 O34 1.195 . S
O28 C27 1.313 . S
C29 O30 1.245 . S
C29 O38 1.289 . S
O30 C29 1.245 . S
C31 O32 1.245 . S
C31 O33 1.289 . S
O32 C31 1.245 . S
O33 Mg26 2.141 . S
O33 C31 1.289 . S
O34 Mg26 2.048 . S
O34 C27 1.195 . S
O35 Mg26 2.048 . S
O35 C36 1.195 . S
C36 O35 1.195 . S
C36 O37 1.313 . S
O37 C36 1.313 . S
O38 Mg26 2.141 . S
O38 C29 1.289 . S
Mg39 O46 2.141 . S
Mg39 O47 2.048 . S
Mg39 O48 2.048 . S
Mg39 O51 2.141 . S
C40 O41 1.313 . S
C40 O47 1.195 . S
O41 C40 1.313 . S
C42 O43 1.245 . S
C42 O51 1.289 . S
O43 C42 1.245 . S
C44 O45 1.245 . S
C44 O46 1.289 . S
O45 C44 1.245 . S
O46 Mg39 2.141 . S
O46 C44 1.289 . S
O47 Mg39 2.048 . S
O47 C40 1.195 . S
O48 Mg39 2.048 . S
O48 C49 1.195 . S
C49 O48 1.195 . S
C49 O50 1.313 . S
O50 C49 1.313 . S
O51 Mg39 2.141 . S
O51 C42 1.289 . S
Mg52 O59 2.141 . S
Mg52 O60 2.048 . S
Mg52 O61 2.048 . S
Mg52 O64 2.141 . S
C53 O54 1.313 . S
C53 O60 1.195 . S
O54 C53 1.313 . S
C55 O56 1.245 . S
C55 O64 1.289 . S
O56 C55 1.245 . S
C57 O58 1.245 . S
C57 O59 1.289 . S
O58 C57 1.245 . S
O59 Mg52 2.141 . S
O59 C57 1.289 . S
O60 Mg52 2.048 . S
O60 C53 1.195 . S
O61 Mg52 2.048 . S
O61 C62 1.195 . S
C62 O61 1.195 . S
C62 O63 1.313 . S
O63 C62 1.313 . S
O64 Mg52 2.141 . S
O64 C55 1.289 . S
Mg65 O72 2.141 . S
Mg65 O73 2.048 . S
Mg65 O74 2.048 . S
Mg65 O77 2.141 . S
C66 O67 1.313 . S
C66 O73 1.195 . S
O67 C66 1.313 . S
C68 O69 1.245 . S
C68 O77 1.289 . S
O69 C68 1.245 . S
C70 O71 1.245 . S
C70 O72 1.289 . S
O71 C70 1.245 . S
O72 Mg65 2.141 . S
O72 C70 1.289 . S
O73 Mg65 2.048 . S
O73 C66 1.195 . S
O74 Mg65 2.048 . S
O74 C75 1.195 . S
C75 O74 1.195 . S
C75 O76 1.313 . S
O76 C75 1.313 . S
O77 Mg65 2.141 . S
O77 C68 1.289 . S
Mg78 O85 2.141 . S
Mg78 O86 2.048 . S
Mg78 O87 2.048 . S
Mg78 O90 2.141 . S
C79 O80 1.313 . S
C79 O86 1.195 . S
O80 C79 1.313 . S
C81 O82 1.245 . S
C81 O90 1.289 . S
O82 C81 1.245 . S
C83 O84 1.245 . S
C83 O85 1.289 . S
O84 C83 1.245 . S
O85 Mg78 2.141 . S
O85 C83 1.289 . S
O86 Mg78 2.048 . S
O86 C79 1.195 . S
O87 Mg78 2.048 . S
O87 C88 1.195 . S
C88 O87 1.195 . S
C88 O89 1.313 . S
O89 C88 1.313 . S
O90 Mg78 2.141 . S
O90 C81 1.289 . S
Mg91 O98 2.141 . S
Mg91 O99 2.048 . S
Mg91 O100 2.048 . S
Mg91 O103 2.141 . S
C92 O93 1.313 . S
C92 O99 1.195 . S
O93 C92 1.313 . S
C94 O95 1.245 . S
C94 O103 1.289 . S
O95 C94 1.245 . S
C96 O97 1.245 . S
C96 O98 1.289 . S
O97 C96 1.245 . S
O98 Mg91 2.141 . S
O98 C96 1.289 . S
O99 Mg91 2.048 . S
O99 C92 1.195 . S
O100 Mg91 2.048 . S
O100 C101 1.195 . S
C101 O100 1.195 . S
C101 O102 1.313 . S
O102 C101 1.313 . S
O103 Mg91 2.141 . S
O103 C94 1.289 . S
Mg104 O111 2.141 . S
Mg104 O112 2.048 . S
Mg104 O113 2.048 . S
Mg104 O116 2.141 . S
C105 O106 1.313 . S
C105 O112 1.195 . S
O106 C105 1.313 . S
C107 O108 1.245 . S
C107 O116 1.289 . S
O108 C107 1.245 . S
C109 O110 1.245 . S
C109 O111 1.289 . S
O110 C109 1.245 . S
O111 Mg104 2.141 . S
O111 C109 1.289 . S
O112 Mg104 2.048 . S
O112 C105 1.195 . S
O113 Mg104 2.048 . S
O113 C114 1.195 . S
C114 O113 1.195 . S
C114 O115 1.313 . S
O115 C114 1.313 . S
O116 Mg104 2.141 . S
O116 C107 1.289 . S
Mg117 O124 2.141 . S
Mg117 O125 2.048 . S
Mg117 O126 2.048 . S
Mg117 O129 2.141 . S
C118 O119 1.313 . S
C118 O125 1.195 . S
O119 C118 1.313 . S
C120 O121 1.245 . S
C120 O129 1.289 . S
O121 C120 1.245 . S
C122 O123 1.245 . S
C122 O124 1.289 . S
O123 C122 1.245 . S
O124 Mg117 2.141 . S
O124 C122 1.289 . S
O125 Mg117 2.048 . S
O125 C118 1.195 . S
O126 Mg117 2.048 . S
O126 C127 1.195 . S
C127 O126 1.195 . S
C127 O128 1.313 . S
O128 C127 1.313 . S
O129 Mg117 2.141 . S
O129 C120 1.289 . S
Mg130 O137 2.141 . S
Mg130 O138 2.048 . S
Mg130 O139 2.048 . S
Mg130 O142 2.141 . S
C131 O132 1.313 . S
C131 O138 1.195 . S
O132 C131 1.313 . S
C133 O134 1.245 . S
C133 O142 1.289 . S
O134 C133 1.245 . S
C135 O136 1.245 . S
C135 O137 1.289 . S
O136 C135 1.245 . S
O137 Mg130 2.141 . S
O137 C135 1.289 . S
O138 Mg130 2.048 . S
O138 C131 1.195 . S
O139 Mg130 2.048 . S
O139 C140 1.195 . S
C140 O139 1.195 . S
C140 O141 1.313 . S
O141 C140 1.313 . S
O142 Mg130 2.141 . S
O142 C133 1.289 . S
Mg143 O150 2.141 . S
Mg143 O151 2.048 . S
Mg143 O152 2.048 . S
Mg143 O155 2.141 . S
C144 O145 1.313 . S
C144 O151 1.195 . S
O145 C144 1.313 . S
C146 O147 1.245 . S
C146 O155 1.289 . S
O147 C146 1.245 . S
C148 O149 1.245 . S
C148 O150 1.289 . S
O149 C148 1.245 . S
O150 Mg143 2.141 . S
O150 C148 1.289 . S
O151 Mg143 2.048 . S
O151 C144 1.195 . S
O152 Mg143 2.048 . S
O152 C153 1.195 . S
C153 O152 1.195 . S
C153 O154 1.313 . S
O154 C153 1.313 . S
O155 Mg143 2.141 . S
O155 C146 1.289 . S
Mg156 O163 2.141 . S
Mg156 O164 2.048 . S
Mg156 O165 2.048 . S
Mg156 O168 2.141 . S
C157 O158 1.313 . S
C157 O164 1.195 . S
O158 C157 1.313 . S
C159 O160 1.245 . S
C159 O168 1.289 . S
O160 C159 1.245 . S
C161 O162 1.245 . S
C161 O163 1.289 . S
O162 C161 1.245 . S
O163 Mg156 2.141 . S
O163 C161 1.289 . S
O164 Mg156 2.048 . S
O164 C157 1.195 . S
O165 Mg156 2.048 . S
O165 C166 1.195 . S
C166 O165 1.195 . S
C166 O167 1.313 . S
O167 C166 1.313 . S
O168 Mg156 2.141 . S
O168 C159 1.289 . S
Mg169 O176 2.141 . S
Mg169 O177 2.048 . S
Mg169 O178 2.048 . S
Mg169 O181 2.141 . S
C170 O171 1.313 . S
C170 O177 1.195 . S
O171 C170 1.313 . S
C172 O173 1.245 . S
C172 O181 1.289 . S
O173 C172 1.245 . S
C174 O175 1.245 . S
C174 O176 1.289 . S
O175 C174 1.245 . S
O176 Mg169 2.141 . S
O176 C174 1.289 . S
O177 Mg169 2.048 . S
O177 C170 1.195 . S
O178 Mg169 2.048 . S
O178 C179 1.195 . S
C179 O178 1.195 . S
C179 O180 1.313 . S
O180 C179 1.313 . S
O181 Mg169 2.141 . S
O181 C172 1.289 . S
Mg182 O189 2.141 . S
Mg182 O190 2.048 . S
Mg182 O191 2.048 . S
Mg182 O194 2.141 . S
C183 O184 1.313 . S
C183 O190 1.195 . S
O184 C183 1.313 . S
C185 O186 1.245 . S
C185 O194 1.289 . S
O186 C185 1.245 . S
C187 O188 1.245 . S
C187 O189 1.289 . S
O188 C187 1.245 . S
O189 Mg182 2.141 . S
O189 C187 1.289 . S
O190 Mg182 2.048 . S
O190 C183 1.195 . S
O191 Mg182 2.048 . S
O191 C192 1.195 . S
C192 O191 1.195 . S
C192 O193 1.313 . S
O193 C192 1.313 . S
O194 Mg182 2.141 . S
O194 C185 1.289 . S
Mg195 O202 2.141 . S
Mg195 O203 2.048 . S
Mg195 O204 2.048 . S
Mg195 O207 2.141 . S
C196 O197 1.313 . S
C196 O203 1.195 . S
O197 C196 1.313 . S
C198 O199 1.245 . S
C198 O207 1.289 . S
O199 C198 1.245 . S
C200 O201 1.245 . S
C200 O202 1.289 . S
O201 C200 1.245 . S
O202 Mg195 2.141 . S
O202 C200 1.289 . S
O203 Mg195 2.048 . S
O203 C196 1.195 . S
O204 Mg195 2.048 . S
O204 C205 1.195 . S
C205 O204 1.195 . S
C205 O206 1.313 . S
O206 C205 1.313 . S
O207 Mg195 2.141 . S
O207 C198 1.289 . S
Mg208 O215 2.141 . S
Mg208 O216 2.048 . S
Mg208 O217 2.048 . S
Mg208 O220 2.141 . S
C209 O210 1.313 . S
C209 O216 1.195 . S
O210 C209 1.313 . S
C211 O212 1.245 . S
C211 O220 1.289 . S
O212 C211 1.245 . S
C213 O214 1.245 . S
C213 O215 1.289 . S
O214 C213 1.245 . S
O215 Mg208 2.141 . S
O215 C213 1.289 . S
O216 Mg208 2.048 . S
O216 C209 1.195 . S
O217 Mg208 2.048 . S
O217 C218 1.195 . S
C218 O217 1.195 . S
C218 O219 1.313 . S
O219 C218 1.313 . S
O220 Mg208 2.141 . S
O220 C211 1.289 . S
Mg221 O228 2.141 . S
Mg221 O229 2.048 . S
Mg221 O230 2.048 . S
Mg221 O233 2.141 . S
C222 O223 1.313 . S
C222 O229 1.195 . S
O223 C222 1.313 . S
C224 O225 1.245 . S
C224 O233 1.289 . S
O225 C224 1.245 . S
C226 O227 1.245 . S
C226 O228 1.289 . S
O227 C226 1.245 . S
O228 Mg221 2.141 . S
O228 C226 1.289 . S
O229 Mg221 2.048 . S
O229 C222 1.195 . S
O230 Mg221 2.048 . S
O230 C231 1.195 . S
C231 O230 1.195 . S
C231 O232 1.313 . S
O232 C231 1.313 . S
O233 Mg221 2.141 . S
O233 C224 1.289 . S
Mg234 O241 2.141 . S
Mg234 O242 2.048 . S
Mg234 O243 2.048 . S
Mg234 O246 2.141 . S
C235 O236 1.313 . S
C235 O242 1.195 . S
O236 C235 1.313 . S
C237 O238 1.245 . S
C237 O246 1.289 . S
O238 C237 1.245 . S
C239 O240 1.245 . S
C239 O241 1.289 . S
O240 C239 1.245 . S
O241 Mg234 2.141 . S
O241 C239 1.289 . S
O242 Mg234 2.048 . S
O242 C235 1.195 . S
O243 Mg234 2.048 . S
O243 C244 1.195 . S
C244 O243 1.195 . S
C244 O245 1.313 . S
O245 C244 1.313 . S
O246 Mg234 2.141 . S
O246 C237 1.289 . S
Mg247 O254 2.141 . S
Mg247 O255 2.048 . S
Mg247 O256 2.048 . S
Mg247 O259 2.141 . S
C248 O249 1.313 . S
C248 O255 1.195 . S
O249 C248 1.313 . S
C250 O251 1.245 . S
C250 O259 1.289 . S
O251 C250 1.245 . S
C252 O253 1.245 . S
C252 O254 1.289 . S
O253 C252 1.245 . S
O254 Mg247 2.141 . S
O254 C252 1.289 . S
O255 Mg247 2.048 . S
O255 C248 1.195 . S
O256 Mg247 2.048 . S
O256 C257 1.195 . S
C257 O256 1.195 . S
C257 O258 1.313 . S
O258 C257 1.313 . S
O259 Mg247 2.141 . S
O259 C250 1.289 . S
Mg260 O267 2.141 . S
Mg260 O268 2.048 . S
Mg260 O269 2.048 . S
Mg260 O272 2.141 . S
C261 O262 1.313 . S
C261 O268 1.195 . S
O262 C261 1.313 . S
C263 O264 1.245 . S
C263 O272 1.289 . S
O264 C263 1.245 . S
C265 O266 1.245 . S
C265 O267 1.289 . S
O266 C265 1.245 . S
O267 Mg260 2.141 . S
O267 C265 1.289 . S
O268 Mg260 2.048 . S
O268 C261 1.195 . S
O269 Mg260 2.048 . S
O269 C270 1.195 . S
C270 O269 1.195 . S
C270 O271 1.313 . S
O271 C270 1.313 . S
O272 Mg260 2.141 . S
O272 C263 1.289 . S
Mg273 O280 2.141 . S
Mg273 O281 2.048 . S
Mg273 O282 2.048 . S
Mg273 O285 2.141 . S
C274 O275 1.313 . S
C274 O281 1.195 . S
O275 C274 1.313 . S
C276 O277 1.245 . S
C276 O285 1.289 . S
O277 C276 1.245 . S
C278 O279 1.245 . S
C278 O280 1.289 . S
O279 C278 1.245 . S
O280 Mg273 2.141 . S
O280 C278 1.289 . S
O281 Mg273 2.048 . S
O281 C274 1.195 . S
O282 Mg273 2.048 . S
O282 C283 1.195 . S
C283 O282 1.195 . S
C283 O284 1.313 . S
O284 C283 1.313 . S
O285 Mg273 2.141 . S
O285 C276 1.289 . S
Mg286 O293 2.141 . S
Mg286 O294 2.048 . S
Mg286 O295 2.048 . S
Mg286 O298 2.141 . S
C287 O288 1.313 . S
C287 O294 1.195 . S
O288 C287 1.313 . S
C289 O290 1.245 . S
C289 O298 1.289 . S
O290 C289 1.245 . S
C291 O292 1.245 . S
C291 O293 1.289 . S
O292 C291 1.245 . S
O293 Mg286 2.141 . S
O293 C291 1.289 . S
O294 Mg286 2.048 . S
O294 C287 1.195 . S
O295 Mg286 2.048 . S
O295 C296 1.195 . S
C296 O295 1.195 . S
C296 O297 1.313 . S
O297 C296 1.313 . S
O298 Mg286 2.141 . S
O298 C289 1.289 . S
Mg299 O306 2.141 . S
Mg299 O307 2.048 . S
Mg299 O308 2.048 . S
Mg299 O311 2.141 . S
C300 O301 1.313 . S
C300 O307 1.195 . S
O301 C300 1.313 . S
C302 O303 1.245 . S
C302 O311 1.289 . S
O303 C302 1.245 . S
C304 O305 1.245 . S
C304 O306 1.289 . S
O305 C304 1.245 . S
O306 Mg299 2.141 . S
O306 C304 1.289 . S
O307 Mg299 2.048 . S
O307 C300 1.195 . S
O308 Mg299 2.048 . S
O308 C309 1.195 . S
C309 O308 1.195 . S
C309 O310 1.313 . S
O310 C309 1.313 . S
O311 Mg299 2.141 . S
O311 C302 1.289 . S
C312 C313 1.349 . S
C312 C314 1.327 . S
C312 H337 0.950 . S
C313 C312 1.349 . S
C313 C329 1.349 . S
C314 C312 1.327 . S
C314 C333 1.429 . S
C314 H338 0.950 . S
C315 C332 1.574 . S
C315 C334 1.368 . S
C315 H339 0.949 . S
H316 C320 0.949 . S
C317 C318 1.349 . S
C317 C319 1.327 . S
C317 H340 0.950 . S
C318 C317 1.349 . S
C318 C330 1.349 . S
C319 C317 1.327 . S
C319 C335 1.429 . S
C319 H341 0.950 . S
C320 H316 0.949 . S
C320 C328 1.574 . S
C320 C336 1.368 . S
H321 C329 0.950 . S
H322 C327 0.950 . S
H323 C328 0.949 . S
H324 C330 0.950 . S
H325 C331 0.950 . S
H326 C332 0.949 . S
C327 H322 0.950 . S
C327 C329 1.327 . S
C327 C333 1.429 . S
C328 C320 1.574 . S
C328 H323 0.949 . S
C328 C334 1.368 . S
C329 C313 1.349 . S
C329 H321 0.950 . S
C329 C327 1.327 . S
C330 C318 1.349 . S
C330 H324 0.950 . S
C330 C331 1.327 . S
C331 H325 0.950 . S
C331 C330 1.327 . S
C331 C335 1.429 . S
C332 C315 1.574 . S
C332 H326 0.949 . S
C332 C336 1.368 . S
C333 C314 1.429 . S
C333 C327 1.429 . S
C333 C334 1.523 . S
C334 C315 1.368 . S
C334 C328 1.368 . S
C334 C333 1.523 . S
C335 C319 1.429 . S
C335 C331 1.429 . S
C335 C336 1.523 . S
C336 C320 1.368 . S
C336 C332 1.368 . S
C336 C335 1.523 . S
H337 C312 0.950 . S
H338 C314 0.950 . S
H339 C315 0.949 . S
H340 C317 0.950 . S
H341 C319 0.950 . S
C342 C343 1.349 . S
C342 C344 1.327 . S
C342 H367 0.950 . S
C343 C342 1.349 . S
C343 C359 1.349 . S
C344 C342 1.327 . S
C344 C363 1.429 . S
C344 H368 0.950 . S
C345 C362 1.574 . S
C345 C364 1.368 . S
C345 H369 0.949 . S
H346 C350 0.949 . S
C347 C348 1.349 . S
C347 C349 1.327 . S
C347 H370 0.950 . S
C348 C347 1.349 . S
C348 C360 1.349 . S
C349 C347 1.327 . S
C349 C365 1.429 . S
C349 H371 0.950 . S
C350 H346 0.949 . S
C350 C358 1.574 . S
C350 C366 1.368 . S
H351 C359 0.950 . S
H352 C357 0.950 . S
H353 C358 0.949 . S
H354 C360 0.950 . S
H355 C361 0.950 . S
H356 C362 0.949 . S
C357 H352 0.950 . S
C357 C359 1.327 . S
C357 C363 1.429 . S
C358 C350 1.574 . S
C358 H353 0.949 . S
C358 C364 1.368 . S
C359 C343 1.349 . S
C359 H351 0.950 . S
C359 C357 1.327 . S
C360 C348 1.349 . S
C360 H354 0.950 . S
C360 C361 1.327 . S
C361 H355 0.950 . S
C361 C360 1.327 . S
C361 C365 1.429 . S
C362 C345 1.574 . S
C362 H356 0.949 . S
C362 C366 1.368 . S
C363 C344 1.429 . S
C363 C357 1.429 . S
C363 C364 1.523 . S
C364 C345 1.368 . S
C364 C358 1.368 . S
C364 C363 1.523 . S
C365 C349 1.429 . S
C365 C361 1.429 . S
C365 C366 1.523 . S
C366 C350 1.368 . S
C366 C362 1.368 . S
C366 C365 1.523 . S
H367 C342 0.950 . S
H368 C344 0.950 . S
H369 C345 0.949 . S
H370 C347 0.950 . S
H371 C349 0.950 . S
C372 C373 1.349 . S
C372 C374 1.327 . S
C372 H397 0.950 . S
C373 C372 1.349 . S
C373 C389 1.349 . S
C374 C372 1.327 . S
C374 C393 1.429 . S
C374 H398 0.950 . S
C375 C392 1.574 . S
C375 C394 1.368 . S
C375 H399 0.949 . S
H376 C380 0.949 . S
C377 C378 1.349 . S
C377 C379 1.327 . S
C377 H400 0.950 . S
C378 C377 1.349 . S
C378 C390 1.349 . S
C379 C377 1.327 . S
C379 C395 1.429 . S
C379 H401 0.950 . S
C380 H376 0.949 . S
C380 C388 1.574 . S
C380 C396 1.368 . S
H381 C389 0.950 . S
H382 C387 0.950 . S
H383 C388 0.949 . S
H384 C390 0.950 . S
H385 C391 0.950 . S
H386 C392 0.949 . S
C387 H382 0.950 . S
C387 C389 1.327 . S
C387 C393 1.429 . S
C388 C380 1.574 . S
C388 H383 0.949 . S
C388 C394 1.368 . S
C389 C373 1.349 . S
C389 H381 0.950 . S
C389 C387 1.327 . S
C390 C378 1.349 . S
C390 H384 0.950 . S
C390 C391 1.327 . S
C391 H385 0.950 . S
C391 C390 1.327 . S
C391 C395 1.429 . S
C392 C375 1.574 . S
C392 H386 0.949 . S
C392 C396 1.368 . S
C393 C374 1.429 . S
C393 C387 1.429 . S
C393 C394 1.523 . S
C394 C375 1.368 . S
C394 C388 1.368 . S
C394 C393 1.523 . S
C395 C379 1.429 . S
C395 C391 1.429 . S
C395 C396 1.523 . S
C396 C380 1.368 . S
C396 C392 1.368 . S
C396 C395 1.523 . S
H397 C372 0.950 . S
H398 C374 0.950 . S
H399 C375 0.949 . S
H400 C377 0.950 . S
H401 C379 0.950 . S
C402 C403 1.349 . S
C402 C404 1.327 . S
C402 H427 0.950 . S
C403 C402 1.349 . S
C403 C419 1.349 . S
C404 C402 1.327 . S
C404 C423 1.429 . S
C404 H428 0.950 . S
C405 C422 1.574 . S
C405 C424 1.368 . S
C405 H429 0.949 . S
H406 C410 0.949 . S
C407 C408 1.349 . S
C407 C409 1.327 . S
C407 H430 0.950 . S
C408 C407 1.349 . S
C408 C420 1.349 . S
C409 C407 1.327 . S
C409 C425 1.429 . S
C409 H431 0.950 . S
C410 H406 0.949 . S
C410 C418 1.574 . S
C410 C426 1.368 . S
H411 C419 0.950 . S
H412 C417 0.950 . S
H413 C418 0.949 . S
H414 C420 0.950 . S
H415 C421 0.950 . S
H416 C422 0.949 . S
C417 H412 0.950 . S
C417 C419 1.327 . S
C417 C423 1.429 . S
C418 C410 1.574 . S
C418 H413 0.949 . S
C418 C424 1.368 . S
C419 C403 1.349 . S
C419 H411 0.950 . S
C419 C417 1.327 . S
C420 C408 1.349 . S
C420 H414 0.950 . S
C420 C421 1.327 . S
C421 H415 0.950 . S
C421 C420 1.327 . S
C421 C425 1.429 . S
C422 C405 1.574 . S
C422 H416 0.949 . S
C422 C426 1.368 . S
C423 C404 1.429 . S
C423 C417 1.429 . S
C423 C424 1.523 . S
C424 C405 1.368 . S
C424 C418 1.368 . S
C424 C423 1.523 . S
C425 C409 1.429 . S
C425 C421 1.429 . S
C425 C426 1.523 . S
C426 C410 1.368 . S
C426 C422 1.368 . S
C426 C425 1.523 . S
H427 C402 0.950 . S
H428 C404 0.950 . S
H429 C405 0.949 . S
H430 C407 0.950 . S
H431 C409 0.950 . S
C432 C433 1.349 . S
C432 C434 1.327 . S
C432 H457 0.950 . S
C433 C432 1.349 . S
C433 C449 1.349 . S
C434 C432 1.327 . S
C434 C453 1.429 . S
C434 H458 0.950 . S
C435 C452 1.574 . S
C435 C454 1.368 . S
C435 H459 0.949 . S
H436 C440 0.949 . S
C437 C438 1.349 . S
C437 C439 1.327 . S
C437 H460 0.950 . S
C438 C437 1.349 . S
C438 C450 1.349 . S
C439 C437 1.327 . S
C439 C455 1.429 . S
C439 H461 0.950 . S
C440 H436 0.949 . S
C440 C448 1.574 . S
C440 C456 1.368 . S
H441 C449 0.950 . S
H442 C447 0.950 . S
H443 C448 0.949 . S
H444 C450 0.950 . S
H445 C451 0.950 . S
H446 C452 0.949 . S
C447 H442 0.950 . S
C447 C449 1.327 . S
C447 C453 1.429 . S
C448 C440 1.574 . S
C448 H443 0.949 . S
C448 C454 1.368 . S
C449 C433 1.349 . S
C449 H441 0.950 . S
C449 C447 1.327 . S
C450 C438 1.349 . S
C450 H444 0.950 . S
C450 C451 1.327 . S
C451 H445 0.950 . S
C451 C450 1.327 . S
C451 C455 1.429 . S
C452 C435 1.574 . S
C452 H446 0.949 . S
C452 C456 1.368 . S
C453 C434 1.429 . S
C453 C447 1.429 . S
C453 C454 1.523 . S
C454 C435 1.368 . S
C454 C448 1.368 . S
C454 C453 1.523 . S
C455 C439 1.429 . S
C455 C451 1.429 . S
C455 C456 1.523 . S
C456 C440 1.368 . S
C456 C452 1.368 . S
C456 C455 1.523 . S
H457 C432 0.950 . S
H458 C434 0.950 . S
H459 C435 0.949 . S
H460 C437 0.950 . S
H461 C439 0.950 . S
C462 C463 1.349 . S
C462 C464 1.327 . S
C462 H487 0.950 . S
C463 C462 1.349 . S
C463 C479 1.349 . S
C464 C462 1.327 . S
C464 C483 1.429 . S
C464 H488 0.950 . S
C465 C482 1.574 . S
C465 C484 1.368 . S
C465 H489 0.949 . S
H466 C470 0.949 . S
C467 C468 1.349 . S
C467 C469 1.327 . S
C467 H490 0.950 . S
C468 C467 1.349 . S
C468 C480 1.349 . S
C469 C467 1.327 . S
C469 C485 1.429 . S
C469 H491 0.950 . S
C470 H466 0.949 . S
C470 C478 1.574 . S
C470 C486 1.368 . S
H471 C479 0.950 . S
H472 C477 0.950 . S
H473 C478 0.949 . S
H474 C480 0.950 . S
H475 C481 0.950 . S
H476 C482 0.949 . S
C477 H472 0.950 . S
C477 C479 1.327 . S
C477 C483 1.429 . S
C478 C470 1.574 . S
C478 H473 0.949 . S
C478 C484 1.368 . S
C479 C463 1.349 . S
C479 H471 0.950 . S
C479 C477 1.327 . S
C480 C468 1.349 . S
C480 H474 0.950 . S
C480 C481 1.327 . S
C481 H475 0.950 . S
C481 C480 1.327 . S
C481 C485 1.429 . S
C482 C465 1.574 . S
C482 H476 0.949 . S
C482 C486 1.368 . S
C483 C464 1.429 . S
C483 C477 1.429 . S
C483 C484 1.523 . S
C484 C465 1.368 . S
C484 C478 1.368 . S
C484 C483 1.523 . S
C485 C469 1.429 . S
C485 C481 1.429 . S
C485 C486 1.523 . S
C486 C470 1.368 . S
C486 C482 1.368 . S
C486 C485 1.523 . S
H487 C462 0.950 . S
H488 C464 0.950 . S
H489 C465 0.949 . S
H490 C467 0.950 . S
H491 C469 0.950 . S
C492 C493 1.349 . S
C492 C494 1.327 . S
C492 H517 0.950 . S
C493 C492 1.349 . S
C493 C509 1.349 . S
C494 C492 1.327 . S
C494 C513 1.429 . S
C494 H518 0.950 . S
C495 C512 1.574 . S
C495 C514 1.368 . S
C495 H519 0.949 . S
H496 C500 0.949 . S
C497 C498 1.349 . S
C497 C499 1.327 . S
C497 H520 0.950 . S
C498 C497 1.349 . S
C498 C510 1.349 . S
C499 C497 1.327 . S
C499 C515 1.429 . S
C499 H521 0.950 . S
C500 H496 0.949 . S
C500 C508 1.574 . S
C500 C516 1.368 . S
H501 C509 0.950 . S
H502 C507 0.950 . S
H503 C508 0.949 . S
H504 C510 0.950 . S
H505 C511 0.950 . S
H506 C512 0.949 . S
C507 H502 0.950 . S
C507 C509 1.327 . S
C507 C513 1.429 . S
C508 C500 1.574 . S
C508 H503 0.949 . S
C508 C514 1.368 . S
C509 C493 1.349 . S
C509 H501 0.950 . S
C509 C507 1.327 . S
C510 C498 1.349 . S
C510 H504 0.950 . S
C510 C511 1.327 . S
C511 H505 0.950 . S
C511 C510 1.327 . S
C511 C515 1.429 . S
C512 C495 1.574 . S
C512 H506 0.949 . S
C512 C516 1.368 . S
C513 C494 1.429 . S
C513 C507 1.429 . S
C513 C514 1.523 . S
C514 C495 1.368 . S
C514 C508 1.368 . S
C514 C513 1.523 . S
C515 C499 1.429 . S
C515 C511 1.429 . S
C515 C516 1.523 . S
C516 C500 1.368 . S
C516 C512 1.368 . S
C516 C515 1.523 . S
H517 C492 0.950 . S
H518 C494 0.950 . S
H519 C495 0.949 . S
H520 C497 0.950 . S
H521 C499 0.950 . S
C522 C523 1.349 . S
C522 C524 1.327 . S
C522 H547 0.950 . S
C523 C522 1.349 . S
C523 C539 1.349 . S
C524 C522 1.327 . S
C524 C543 1.429 . S
C524 H548 0.950 . S
C525 C542 1.574 . S
C525 C544 1.368 . S
C525 H549 0.949 . S
H526 C530 0.949 . S
C527 C528 1.349 . S
C527 C529 1.327 . S
C527 H550 0.950 . S
C528 C527 1.349 . S
C528 C540 1.349 . S
C529 C527 1.327 . S
C529 C545 1.429 . S
C529 H551 0.950 . S
C530 H526 0.949 . S
C530 C538 1.574 . S
C530 C546 1.368 . S
H531 C539 0.950 . S
H532 C537 0.950 . S
H533 C538 0.949 . S
H534 C540 0.950 . S
H535 C541 0.950 . S
H536 C542 0.949 . S
C537 H532 0.950 . S
C537 C539 1.327 . S
C537 C543 1.429 . S
C538 C530 1.574 . S
C538 H533 0.949 . S
C538 C544 1.368 . S
C539 C523 1.349 . S
C539 H531 0.950 . S
C539 C537 1.327 . S
C540 C528 1.349 . S
C540 H534 0.950 . S
C540 C541 1.327 . S
C541 H535 0.950 . S
C541 C540 1.327 . S
C541 C545 1.429 . S
C542 C525 1.574 . S
C542 H536 0.949 . S
C542 C546 1.368 . S
C543 C524 1.429 . S
C543 C537 1.429 . S
C543 C544 1.523 . S
C544 C525 1.368 . S
C544 C538 1.368 . S
C544 C543 1.523 . S
C545 C529 1.429 . S
C545 C541 1.429 . S
C545 C546 1.523 . S
C546 C530 1.368 . S
C546 C542 1.368 . S
C546 C545 1.523 . S
H547 C522 0.950 . S
H548 C524 0.950 . S
H549 C525 0.949 . S
H550 C527 0.950 . S
H551 C529 0.950 . S
C552 C553 1.349 . S
C552 C554 1.327 . S
C552 H577 0.950 . S
C553 C552 1.349 . S
C553 C569 1.349 . S
C554 C552 1.327 . S
C554 C573 1.429 . S
C554 H578 0.950 . S
C555 C572 1.574 . S
C555 C574 1.368 . S
C555 H579 0.949 . S
H556 C560 0.949 . S
C557 C558 1.349 . S
C557 C559 1.327 . S
C557 H580 0.950 . S
C558 C557 1.349 . S
C558 C570 1.349 . S
C559 C557 1.327 . S
C559 C575 1.429 . S
C559 H581 0.950 . S
C560 H556 0.949 . S
C560 C568 1.574 . S
C560 C576 1.368 . S
H561 C569 0.950 . S
H562 C567 0.950 . S
H563 C568 0.949 . S
H564 C570 0.950 . S
H565 C571 0.950 . S
H566 C572 0.949 . S
C567 H562 0.950 . S
C567 C569 1.327 . S
C567 C573 1.429 . S
C568 C560 1.574 . S
C568 H563 0.949 . S
C568 C574 1.368 . S
C569 C553 1.349 . S
C569 H561 0.950 . S
C569 C567 1.327 . S
C570 C558 1.349 . S
C570 H564 0.950 . S
C570 C571 1.327 . S
C571 H565 0.950 . S
C571 C570 1.327 . S
C571 C575 1.429 . S
C572 C555 1.574 . S
C572 H566 0.949 . S
C572 C576 1.368 . S
C573 C554 1.429 . S
C573 C567 1.429 . S
C573 C574 1.523 . S
C574 C555 1.368 . S
C574 C568 1.368 . S
C574 C573 1.523 . S
C575 C559 1.429 . S
C575 C571 1.429 . S
C575 C576 1.523 . S
C576 C560 1.368 . S
C576 C572 1.368 . S
C576 C575 1.523 . S
H577 C552 0.950 . S
H578 C554 0.950 . S
H579 C555 0.949 . S
H580 C557 0.950 . S
H581 C559 0.950 . S
C582 C583 1.349 . S
C582 C584 1.327 . S
C582 H607 0.950 . S
C583 C582 1.349 . S
C583 C599 1.349 . S
C584 C582 1.327 . S
C584 C603 1.429 . S
C584 H608 0.950 . S
C585 C602 1.574 . S
C585 C604 1.368 . S
C585 H609 0.949 . S
H586 C590 0.949 . S
C587 C588 1.349 . S
C587 C589 1.327 . S
C587 H610 0.950 . S
C588 C587 1.349 . S
C588 C600 1.349 . S
C589 C587 1.327 . S
C589 C605 1.429 . S
C589 H611 0.950 . S
C590 H586 0.949 . S
C590 C598 1.574 . S
C590 C606 1.368 . S
H591 C599 0.950 . S
H592 C597 0.950 . S
H593 C598 0.949 . S
H594 C600 0.950 . S
H595 C601 0.950 . S
H596 C602 0.949 . S
C597 H592 0.950 . S
C597 C599 1.327 . S
C597 C603 1.429 . S
C598 C590 1.574 . S
C598 H593 0.949 . S
C598 C604 1.368 . S
C599 C583 1.349 . S
C599 H591 0.950 . S
C599 C597 1.327 . S
C600 C588 1.349 . S
C600 H594 0.950 . S
C600 C601 1.327 . S
C601 H595 0.950 . S
C601 C600 1.327 . S
C601 C605 1.429 . S
C602 C585 1.574 . S
C602 H596 0.949 . S
C602 C606 1.368 . S
C603 C584 1.429 . S
C603 C597 1.429 . S
C603 C604 1.523 . S
C604 C585 1.368 . S
C604 C598 1.368 . S
C604 C603 1.523 . S
C605 C589 1.429 . S
C605 C601 1.429 . S
C605 C606 1.523 . S
C606 C590 1.368 . S
C606 C602 1.368 . S
C606 C605 1.523 . S
H607 C582 0.950 . S
H608 C584 0.950 . S
H609 C585 0.949 . S
H610 C587 0.950 . S
H611 C589 0.950 . S
C612 C613 1.349 . S
C612 C614 1.327 . S
C612 H637 0.950 . S
C613 C612 1.349 . S
C613 C629 1.349 . S
C614 C612 1.327 . S
C614 C633 1.429 . S
C614 H638 0.950 . S
C615 C632 1.574 . S
C615 C634 1.368 . S
C615 H639 0.949 . S
H616 C620 0.949 . S
C617 C618 1.349 . S
C617 C619 1.327 . S
C617 H640 0.950 . S
C618 C617 1.349 . S
C618 C630 1.349 . S
C619 C617 1.327 . S
C619 C635 1.429 . S
C619 H641 0.950 . S
C620 H616 0.949 . S
C620 C628 1.574 . S
C620 C636 1.368 . S
H621 C629 0.950 . S
H622 C627 0.950 . S
H623 C628 0.949 . S
H624 C630 0.950 . S
H625 C631 0.950 . S
H626 C632 0.949 . S
C627 H622 0.950 . S
C627 C629 1.327 . S
C627 C633 1.429 . S
C628 C620 1.574 . S
C628 H623 0.949 . S
C628 C634 1.368 . S
C629 C613 1.349 . S
C629 H621 0.950 . S
C629 C627 1.327 . S
C630 C618 1.349 . S
C630 H624 0.950 . S
C630 C631 1.327 . S
C631 H625 0.950 . S
C631 C630 1.327 . S
C631 C635 1.429 . S
C632 C615 1.574 . S
C632 H626 0.949 . S
C632 C636 1.368 . S
C633 C614 1.429 . S
C633 C627 1.429 . S
C633 C634 1.523 . S
C634 C615 1.368 . S
C634 C628 1.368 . S
C634 C633 1.523 . S
C635 C619 1.429 . S
C635 C631 1.429 . S
C635 C636 1.523 . S
C636 C620 1.368 . S
C636 C632 1.368 . S
C636 C635 1.523 . S
H637 C612 0.950 . S
H638 C614 0.950 . S
H639 C615 0.949 . S
H640 C617 0.950 . S
H641 C619 0.950 . S
C642 C643 1.349 . S
C642 C644 1.327 . S
C642 H667 0.950 . S
C643 C642 1.349 . S
C643 C659 1.349 . S
C644 C642 1.327 . S
C644 C663 1.429 . S
C644 H668 0.950 . S
C645 C662 1.574 . S
C645 C664 1.368 . S
C645 H669 0.949 . S
H646 C650 0.949 . S
C647 C648 1.349 . S
C647 C649 1.327 . S
C647 H670 0.950 . S
C648 C647 1.349 . S
C648 C660 1.349 . S
C649 C647 1.327 . S
C649 C665 1.429 . S
C649 H671 0.950 . S
C650 H646 0.949 . S
C650 C658 1.574 . S
C650 C666 1.368 . S
H651 C659 0.950 . S
H652 C657 0.950 . S
H653 C658 0.949 . S
H654 C660 0.950 . S
H655 C661 0.950 . S
H656 C662 0.949 . S
C657 H652 0.950 . S
C657 C659 1.327 . S
C657 C663 1.429 . S
C658 C650 1.574 . S
C658 H653 0.949 . S
C658 C664 1.368 . S
C659 C643 1.349 . S
C659 H651 0.950 . S
C659 C657 1.327 . S
C660 C648 1.349 . S
C660 H654 0.950 . S
C660 C661 1.327 . S
C661 H655 0.950 . S
C661 C660 1.327 . S
C661 C665 1.429 . S
C662 C645 1.574 . S
C662 H656 0.949 . S
C662 C666 1.368 . S
C663 C644 1.429 . S
C663 C657 1.429 . S
C663 C664 1.523 . S
C664 C645 1.368 . S
C664 C658 1.368 . S
C664 C663 1.523 . S
C665 C649 1.429 . S
C665 C661 1.429 . S
C665 C666 1.523 . S
C666 C650 1.368 . S
C666 C662 1.368 . S
C666 C665 1.523 . S
H667 C642 0.950 . S
H668 C644 0.950 . S
H669 C645 0.949 . S
H670 C647 0.950 . S
H671 C649 0.950 . S
C672 C673 1.349 . S
C672 C674 1.327 . S
C672 H697 0.950 . S
C673 C672 1.349 . S
C673 C689 1.349 . S
C674 C672 1.327 . S
C674 C693 1.429 . S
C674 H698 0.950 . S
C675 C692 1.574 1_565 S
C675 C694 1.368 . S
C675 H699 0.949 . S
H676 C680 0.949 . S
C677 C678 1.349 . S
C677 C679 1.327 . S
C677 H700 0.950 . S
C678 C677 1.349 . S
C678 C690 1.349 . S
C679 C677 1.327 . S
C679 C695 1.429 . S
C679 H701 0.950 . S
C680 H676 0.949 . S
C680 C688 1.574 1_545 S
C680 C696 1.368 . S
H681 C689 0.950 . S
H682 C687 0.950 . S
H683 C688 0.949 . S
H684 C690 0.950 . S
H685 C691 0.950 . S
H686 C692 0.949 . S
C687 H682 0.950 . S
C687 C689 1.327 . S
C687 C693 1.429 . S
C688 C680 1.574 1_565 S
C688 H683 0.949 . S
C688 C694 1.368 . S
C689 C673 1.349 . S
C689 H681 0.950 . S
C689 C687 1.327 . S
C690 C678 1.349 . S
C690 H684 0.950 . S
C690 C691 1.327 . S
C691 H685 0.950 . S
C691 C690 1.327 . S
C691 C695 1.429 . S
C692 C675 1.574 1_545 S
C692 H686 0.949 . S
C692 C696 1.368 . S
C693 C674 1.429 . S
C693 C687 1.429 . S
C693 C694 1.523 . S
C694 C675 1.368 . S
C694 C688 1.368 . S
C694 C693 1.523 . S
C695 C679 1.429 . S
C695 C691 1.429 . S
C695 C696 1.523 . S
C696 C680 1.368 . S
C696 C692 1.368 . S
C696 C695 1.523 . S
H697 C672 0.950 . S
H698 C674 0.950 . S
H699 C675 0.949 . S
H700 C677 0.950 . S
H701 C679 0.950 . S
C702 C703 1.349 . S
C702 C704 1.327 . S
C702 H727 0.950 . S
C703 C702 1.349 . S
C703 C719 1.349 . S
C704 C702 1.327 . S
C704 C723 1.429 . S
C704 H728 0.950 . S
C705 C722 1.574 1_655 S
C705 C724 1.368 . S
C705 H729 0.949 . S
H706 C710 0.949 . S
C707 C708 1.349 . S
C707 C709 1.327 . S
C707 H730 0.950 . S
C708 C707 1.349 . S
C708 C720 1.349 . S
C709 C707 1.327 . S
C709 C725 1.429 . S
C709 H731 0.950 . S
C710 H706 0.949 . S
C710 C718 1.574 1_455 S
C710 C726 1.368 . S
H711 C719 0.950 . S
H712 C717 0.950 . S
H713 C718 0.949 . S
H714 C720 0.950 . S
H715 C721 0.950 . S
H716 C722 0.949 . S
C717 H712 0.950 . S
C717 C719 1.327 . S
C717 C723 1.429 . S
C718 C710 1.574 1_655 S
C718 H713 0.949 . S
C718 C724 1.368 . S
C719 C703 1.349 . S
C719 H711 0.950 . S
C719 C717 1.327 . S
C720 C708 1.349 . S
C720 H714 0.950 . S
C720 C721 1.327 . S
C721 H715 0.950 . S
C721 C720 1.327 . S
C721 C725 1.429 . S
C722 C705 1.574 1_455 S
C722 H716 0.949 . S
C722 C726 1.368 . S
C723 C704 1.429 . S
C723 C717 1.429 . S
C723 C724 1.523 . S
C724 C705 1.368 . S
C724 C718 1.368 . S
C724 C723 1.523 . S
C725 C709 1.429 . S
C725 C721 1.429 . S
C725 C726 1.523 . S
C726 C710 1.368 . S
C726 C722 1.368 . S
C726 C725 1.523 . S
H727 C702 0.950 . S
H728 C704 0.950 . S
H729 C705 0.949 . S
H730 C707 0.950 . S
H731 C709 0.950 . S
C732 C733 1.349 . S
C732 C734 1.327 . S
C732 H757 0.950 . S
C733 C732 1.349 . S
C733 C749 1.349 . S
C734 C732 1.327 . S
C734 C753 1.429 . S
C734 H758 0.950 . S
C735 C752 1.574 1_545 S
C735 C754 1.368 . S
C735 H759 0.949 . S
H736 C740 0.949 . S
C737 C738 1.349 . S
C737 C739 1.327 . S
C737 H760 0.950 . S
C738 C737 1.349 . S
C738 C750 1.349 . S
C739 C737 1.327 . S
C739 C755 1.429 . S
C739 H761 0.950 . S
C740 H736 0.949 . S
C740 C748 1.574 1_565 S
C740 C756 1.368 . S
H741 C749 0.950 . S
H742 C747 0.950 . S
H743 C748 0.949 . S
H744 C750 0.950 . S
H745 C751 0.950 . S
H746 C752 0.949 . S
C747 H742 0.950 . S
C747 C749 1.327 . S
C747 C753 1.429 . S
C748 C740 1.574 1_545 S
C748 H743 0.949 . S
C748 C754 1.368 . S
C749 C733 1.349 . S
C749 H741 0.950 . S
C749 C747 1.327 . S
C750 C738 1.349 . S
C750 H744 0.950 . S
C750 C751 1.327 . S
C751 H745 0.950 . S
C751 C750 1.327 . S
C751 C755 1.429 . S
C752 C735 1.574 1_565 S
C752 H746 0.949 . S
C752 C756 1.368 . S
C753 C734 1.429 . S
C753 C747 1.429 . S
C753 C754 1.523 . S
C754 C735 1.368 . S
C754 C748 1.368 . S
C754 C753 1.523 . S
C755 C739 1.429 . S
C755 C751 1.429 . S
C755 C756 1.523 . S
C756 C740 1.368 . S
C756 C752 1.368 . S
C756 C755 1.523 . S
H757 C732 0.950 . S
H758 C734 0.950 . S
H759 C735 0.949 . S
H760 C737 0.950 . S
H761 C739 0.950 . S
C762 C763 1.349 . S
C762 C764 1.327 . S
C762 H787 0.950 . S
C763 C762 1.349 . S
C763 C779 1.349 . S
C764 C762 1.327 . S
C764 C783 1.429 . S
C764 H788 0.950 . S
C765 C782 1.574 . S
C765 C784 1.368 . S
C765 H789 0.949 . S
H766 C770 0.949 . S
C767 C768 1.349 . S
C767 C769 1.327 . S
C767 H790 0.950 . S
C768 C767 1.349 . S
C768 C780 1.349 . S
C769 C767 1.327 . S
C769 C785 1.429 . S
C769 H791 0.950 . S
C770 H766 0.949 . S
C770 C778 1.574 . S
C770 C786 1.368 . S
H771 C779 0.950 . S
H772 C777 0.950 . S
H773 C778 0.949 . S
H774 C780 0.950 . S
H775 C781 0.950 . S
H776 C782 0.949 . S
C777 H772 0.950 . S
C777 C779 1.327 . S
C777 C783 1.429 . S
C778 C770 1.574 . S
C778 H773 0.949 . S
C778 C784 1.368 1_655 S
C779 C763 1.349 . S
C779 H771 0.950 . S
C779 C777 1.327 . S
C780 C768 1.349 . S
C780 H774 0.950 . S
C780 C781 1.327 . S
C781 H775 0.950 . S
C781 C780 1.327 . S
C781 C785 1.429 . S
C782 C765 1.574 . S
C782 H776 0.949 . S
C782 C786 1.368 1_455 S
C783 C764 1.429 . S
C783 C777 1.429 . S
C783 C784 1.523 . S
C784 C765 1.368 . S
C784 C778 1.368 1_455 S
C784 C783 1.523 . S
C785 C769 1.429 . S
C785 C781 1.429 . S
C785 C786 1.523 . S
C786 C770 1.368 . S
C786 C782 1.368 1_655 S
C786 C785 1.523 . S
H787 C762 0.950 . S
H788 C764 0.950 . S
H789 C765 0.949 . S
H790 C767 0.950 . S
H791 C769 0.950 . S
C792 C793 1.349 . S
C792 C794 1.327 . S
C792 H817 0.950 . S
C793 C792 1.349 . S
C793 C809 1.349 . S
C794 C792 1.327 . S
C794 C813 1.429 . S
C794 H818 0.950 . S
C795 C812 1.574 . S
C795 C814 1.368 1_545 S
C795 H819 0.949 . S
H796 C800 0.949 . S
C797 C798 1.349 . S
C797 C799 1.327 . S
C797 H820 0.950 . S
C798 C797 1.349 . S
C798 C810 1.349 . S
C799 C797 1.327 . S
C799 C815 1.429 . S
C799 H821 0.950 . S
C800 H796 0.949 . S
C800 C808 1.574 . S
C800 C816 1.368 1_565 S
H801 C809 0.950 . S
H802 C807 0.950 . S
H803 C808 0.949 . S
H804 C810 0.950 . S
H805 C811 0.950 . S
H806 C812 0.949 . S
C807 H802 0.950 . S
C807 C809 1.327 . S
C807 C813 1.429 . S
C808 C800 1.574 . S
C808 H803 0.949 . S
C808 C814 1.368 . S
C809 C793 1.349 . S
C809 H801 0.950 . S
C809 C807 1.327 . S
C810 C798 1.349 . S
C810 H804 0.950 . S
C810 C811 1.327 . S
C811 H805 0.950 . S
C811 C810 1.327 . S
C811 C815 1.429 . S
C812 C795 1.574 . S
C812 H806 0.949 . S
C812 C816 1.368 . S
C813 C794 1.429 . S
C813 C807 1.429 . S
C813 C814 1.523 . S
C814 C795 1.368 1_565 S
C814 C808 1.368 . S
C814 C813 1.523 . S
C815 C799 1.429 . S
C815 C811 1.429 . S
C815 C816 1.523 . S
C816 C800 1.368 1_545 S
C816 C812 1.368 . S
C816 C815 1.523 . S
H817 C792 0.950 . S
H818 C794 0.950 . S
H819 C795 0.949 . S
H820 C797 0.950 . S
H821 C799 0.950 . S
C822 C823 1.349 . S
C822 C824 1.327 . S
C822 H847 0.950 . S
C823 C822 1.349 . S
C823 C839 1.349 . S
C824 C822 1.327 . S
C824 C843 1.429 . S
C824 H848 0.950 . S
C825 C842 1.582 . S
C825 C844 1.361 1_455 S
C825 H849 0.949 . S
H826 C830 0.949 . S
C827 C828 1.349 . S
C827 C829 1.327 . S
C827 H850 0.950 . S
C828 C827 1.349 . S
C828 C840 1.349 . S
C829 C827 1.327 . S
C829 C845 1.429 . S
C829 H851 0.950 . S
C830 H826 0.949 . S
C830 C838 1.582 . S
C830 C846 1.361 1_655 S
H831 C839 0.950 . S
H832 C837 0.950 . S
H833 C838 0.949 . S
H834 C840 0.950 . S
H835 C841 0.950 . S
H836 C842 0.949 . S
C837 H832 0.950 . S
C837 C839 1.327 . S
C837 C843 1.429 . S
C838 C830 1.582 . S
C838 H833 0.949 . S
C838 C844 1.368 . S
C839 C823 1.349 . S
C839 H831 0.950 . S
C839 C837 1.327 . S
C840 C828 1.349 . S
C840 H834 0.950 . S
C840 C841 1.327 . S
C841 H835 0.950 . S
C841 C840 1.327 . S
C841 C845 1.429 . S
C842 C825 1.582 . S
C842 H836 0.949 . S
C842 C846 1.368 . S
C843 C824 1.429 . S
C843 C837 1.429 . S
C843 C844 1.523 . S
C844 C825 1.361 1_655 S
C844 C838 1.368 . S
C844 C843 1.523 . S
C845 C829 1.429 . S
C845 C841 1.429 . S
C845 C846 1.523 . S
C846 C830 1.361 1_455 S
C846 C842 1.368 . S
C846 C845 1.523 . S
H847 C822 0.950 . S
H848 C824 0.950 . S
H849 C825 0.949 . S
H850 C827 0.950 . S
H851 C829 0.950 . S
C852 C853 1.349 . S
C852 C854 1.327 . S
C852 H877 0.950 . S
C853 C852 1.349 . S
C853 C869 1.349 . S
C854 C852 1.327 . S
C854 C873 1.429 . S
C854 H878 0.950 . S
C855 C872 1.574 1_565 S
C855 C874 1.368 . S
C855 H879 0.949 . S
H856 C860 0.949 . S
C857 C858 1.349 . S
C857 C859 1.327 . S
C857 H880 0.950 . S
C858 C857 1.349 . S
C858 C870 1.349 . S
C859 C857 1.327 . S
C859 C875 1.429 . S
C859 H881 0.950 . S
C860 H856 0.949 . S
C860 C868 1.574 1_545 S
C860 C876 1.368 . S
H861 C869 0.950 . S
H862 C867 0.950 . S
H863 C868 0.949 . S
H864 C870 0.950 . S
H865 C871 0.950 . S
H866 C872 0.949 . S
C867 H862 0.950 . S
C867 C869 1.327 . S
C867 C873 1.429 . S
C868 C860 1.574 1_565 S
C868 H863 0.949 . S
C868 C874 1.368 . S
C869 C853 1.349 . S
C869 H861 0.950 . S
C869 C867 1.327 . S
C870 C858 1.349 . S
C870 H864 0.950 . S
C870 C871 1.327 . S
C871 H865 0.950 . S
C871 C870 1.327 . S
C871 C875 1.429 . S
C872 C855 1.574 1_545 S
C872 H866 0.949 . S
C872 C876 1.368 . S
C873 C854 1.429 . S
C873 C867 1.429 . S
C873 C874 1.523 . S
C874 C855 1.368 . S
C874 C868 1.368 . S
C874 C873 1.523 . S
C875 C859 1.429 . S
C875 C871 1.429 . S
C875 C876 1.523 . S
C876 C860 1.368 . S
C876 C872 1.368 . S
C876 C875 1.523 . S
H877 C852 0.950 . S
H878 C854 0.950 . S
H879 C855 0.949 . S
H880 C857 0.950 . S
H881 C859 0.950 . S
C882 C883 1.349 . S
C882 C884 1.327 . S
C882 H907 0.950 . S
C883 C882 1.349 . S
C883 C899 1.349 . S
C884 C882 1.327 . S
C884 C903 1.429 . S
C884 H908 0.950 . S
C885 C902 1.574 1_455 S
C885 C904 1.368 . S
C885 H909 0.949 . S
H886 C890 0.949 . S
C887 C888 1.349 . S
C887 C889 1.327 . S
C887 H910 0.950 . S
C888 C887 1.349 . S
C888 C900 1.349 . S
C889 C887 1.327 . S
C889 C905 1.429 . S
C889 H911 0.950 . S
C890 H886 0.949 . S
C890 C898 1.574 1_655 S
C890 C906 1.368 . S
H891 C899 0.950 . S
H892 C897 0.950 . S
H893 C898 0.949 . S
H894 C900 0.950 . S
H895 C901 0.950 . S
H896 C902 0.949 . S
C897 H892 0.950 . S
C897 C899 1.327 . S
C897 C903 1.429 . S
C898 C890 1.574 1_455 S
C898 H893 0.949 . S
C898 C904 1.368 . S
C899 C883 1.349 . S
C899 H891 0.950 . S
C899 C897 1.327 . S
C900 C888 1.349 . S
C900 H894 0.950 . S
C900 C901 1.327 . S
C901 H895 0.950 . S
C901 C900 1.327 . S
C901 C905 1.429 . S
C902 C885 1.574 1_655 S
C902 H896 0.949 . S
C902 C906 1.368 . S
C903 C884 1.429 . S
C903 C897 1.429 . S
C903 C904 1.523 . S
C904 C885 1.368 . S
C904 C898 1.368 . S
C904 C903 1.523 . S
C905 C889 1.429 . S
C905 C901 1.429 . S
C905 C906 1.523 . S
C906 C890 1.368 . S
C906 C902 1.368 . S
C906 C905 1.523 . S
H907 C882 0.950 . S
H908 C884 0.950 . S
H909 C885 0.949 . S
H910 C887 0.950 . S
H911 C889 0.950 . S
C912 C913 1.349 . S
C912 C914 1.327 . S
C912 H937 0.950 . S
C913 C912 1.349 . S
C913 C929 1.349 . S
C914 C912 1.327 . S
C914 C933 1.429 . S
C914 H938 0.950 . S
C915 C932 1.574 . S
C915 C934 1.368 . S
C915 H939 0.949 . S
H916 C920 0.949 . S
C917 C918 1.349 . S
C917 C919 1.327 . S
C917 H940 0.950 . S
C918 C917 1.349 . S
C918 C930 1.349 . S
C919 C917 1.327 . S
C919 C935 1.429 . S
C919 H941 0.950 . S
C920 H916 0.949 . S
C920 C928 1.574 . S
C920 C936 1.368 . S
H921 C929 0.950 . S
H922 C927 0.950 . S
H923 C928 0.949 . S
H924 C930 0.950 . S
H925 C931 0.950 . S
H926 C932 0.949 . S
C927 H922 0.950 . S
C927 C929 1.327 . S
C927 C933 1.429 . S
C928 C920 1.574 . S
C928 H923 0.949 . S
C928 C934 1.368 1_554 S
C929 C913 1.349 . S
C929 H921 0.950 . S
C929 C927 1.327 . S
C930 C918 1.349 . S
C930 H924 0.950 . S
C930 C931 1.327 . S
C931 H925 0.950 . S
C931 C930 1.327 . S
C931 C935 1.429 . S
C932 C915 1.574 . S
C932 H926 0.949 . S
C932 C936 1.368 1_556 S
C933 C914 1.429 . S
C933 C927 1.429 . S
C933 C934 1.523 . S
C934 C915 1.368 . S
C934 C928 1.368 1_556 S
C934 C933 1.523 . S
C935 C919 1.429 . S
C935 C931 1.429 . S
C935 C936 1.523 . S
C936 C920 1.368 . S
C936 C932 1.368 1_554 S
C936 C935 1.523 . S
H937 C912 0.950 . S
H938 C914 0.950 . S
H939 C915 0.949 . S
H940 C917 0.950 . S
H941 C919 0.950 . S
C942 C943 1.349 . S
C942 C944 1.327 . S
C942 H967 0.950 . S
C943 C942 1.349 . S
C943 C959 1.349 . S
C944 C942 1.327 . S
C944 C963 1.429 . S
C944 H968 0.950 . S
C945 C962 1.574 . S
C945 C964 1.368 1_556 S
C945 H969 0.949 . S
H946 C950 0.949 . S
C947 C948 1.349 . S
C947 C949 1.327 . S
C947 H970 0.950 . S
C948 C947 1.349 . S
C948 C960 1.349 . S
C949 C947 1.327 . S
C949 C965 1.429 . S
C949 H971 0.950 . S
C950 H946 0.949 . S
C950 C958 1.574 . S
C950 C966 1.368 1_554 S
H951 C959 0.950 . S
H952 C957 0.950 . S
H953 C958 0.949 . S
H954 C960 0.950 . S
H955 C961 0.950 . S
H956 C962 0.949 . S
C957 H952 0.950 . S
C957 C959 1.327 . S
C957 C963 1.429 . S
C958 C950 1.574 . S
C958 H953 0.949 . S
C958 C964 1.368 . S
C959 C943 1.349 . S
C959 H951 0.950 . S
C959 C957 1.327 . S
C960 C948 1.349 . S
C960 H954 0.950 . S
C960 C961 1.327 . S
C961 H955 0.950 . S
C961 C960 1.327 . S
C961 C965 1.429 . S
C962 C945 1.574 . S
C962 H956 0.949 . S
C962 C966 1.368 . S
C963 C944 1.429 . S
C963 C957 1.429 . S
C963 C964 1.523 . S
C964 C945 1.368 1_554 S
C964 C958 1.368 . S
C964 C963 1.523 . S
C965 C949 1.429 . S
C965 C961 1.429 . S
C965 C966 1.523 . S
C966 C950 1.368 1_556 S
C966 C962 1.368 . S
C966 C965 1.523 . S
H967 C942 0.950 . S
H968 C944 0.950 . S
H969 C945 0.949 . S
H970 C947 0.950 . S
H971 C949 0.950 . S
C972 C973 1.349 . S
C972 C974 1.327 . S
C972 H997 0.950 . S
C973 C972 1.349 . S
C973 C989 1.349 . S
C974 C972 1.327 . S
C974 C993 1.429 . S
C974 H998 0.950 . S
C975 C992 1.557 1_556 S
C975 C994 1.384 . S
C975 H999 0.950 . S
H976 C980 0.950 . S
C977 C978 1.349 . S
C977 C979 1.327 . S
C977 H1000 0.950 . S
C978 C977 1.349 . S
C978 C990 1.349 . S
C979 C977 1.327 . S
C979 C995 1.429 . S
C979 H1001 0.950 . S
C980 H976 0.950 . S
C980 C988 1.557 1_554 S
C980 C996 1.384 . S
H981 C989 0.950 . S
H982 C987 0.950 . S
H983 C988 0.949 . S
H984 C990 0.950 . S
H985 C991 0.950 . S
H986 C992 0.949 . S
C987 H982 0.950 . S
C987 C989 1.327 . S
C987 C993 1.429 . S
C988 C980 1.557 1_556 S
C988 H983 0.949 . S
C988 C994 1.368 . S
C989 C973 1.349 . S
C989 H981 0.950 . S
C989 C987 1.327 . S
C990 C978 1.349 . S
C990 H984 0.950 . S
C990 C991 1.327 . S
C991 H985 0.950 . S
C991 C990 1.327 . S
C991 C995 1.429 . S
C992 C975 1.557 1_554 S
C992 H986 0.949 . S
C992 C996 1.368 . S
C993 C974 1.429 . S
C993 C987 1.429 . S
C993 C994 1.523 . S
C994 C975 1.384 . S
C994 C988 1.368 . S
C994 C993 1.523 . S
C995 C979 1.429 . S
C995 C991 1.429 . S
C995 C996 1.523 . S
C996 C980 1.384 . S
C996 C992 1.368 . S
C996 C995 1.523 . S
H997 C972 0.950 . S
H998 C974 0.950 . S
H999 C975 0.950 . S
H1000 C977 0.950 . S
H1001 C979 0.950 . S
C1002 C1003 1.349 . S
C1002 C1004 1.327 . S
C1002 H1027 0.950 . S
C1003 C1002 1.349 . S
C1003 C1019 1.349 . S
C1004 C1002 1.327 . S
C1004 C1023 1.429 . S
C1004 H1028 0.950 . S
C1005 C1022 1.574 . S
C1005 C1024 1.368 . S
C1005 H1029 0.949 . S
H1006 C1010 0.949 . S
C1007 C1008 1.349 . S
C1007 C1009 1.327 . S
C1007 H1030 0.950 . S
C1008 C1007 1.349 . S
C1008 C1020 1.349 . S
C1009 C1007 1.327 . S
C1009 C1025 1.429 . S
C1009 H1031 0.950 . S
C1010 H1006 0.949 . S
C1010 C1018 1.574 . S
C1010 C1026 1.368 . S
H1011 C1019 0.950 . S
H1012 C1017 0.950 . S
H1013 C1018 0.949 . S
H1014 C1020 0.950 . S
H1015 C1021 0.950 . S
H1016 C1022 0.949 . S
C1017 H1012 0.950 . S
C1017 C1019 1.327 . S
C1017 C1023 1.429 . S
C1018 C1010 1.574 . S
C1018 H1013 0.949 . S
C1018 C1024 1.368 1_556 S
C1019 C1003 1.349 . S
C1019 H1011 0.950 . S
C1019 C1017 1.327 . S
C1020 C1008 1.349 . S
C1020 H1014 0.950 . S
C1020 C1021 1.327 . S
C1021 H1015 0.950 . S
C1021 C1020 1.327 . S
C1021 C1025 1.429 . S
C1022 C1005 1.574 . S
C1022 H1016 0.949 . S
C1022 C1026 1.368 1_554 S
C1023 C1004 1.429 . S
C1023 C1017 1.429 . S
C1023 C1024 1.523 . S
C1024 C1005 1.368 . S
C1024 C1018 1.368 1_554 S
C1024 C1023 1.523 . S
C1025 C1009 1.429 . S
C1025 C1021 1.429 . S
C1025 C1026 1.523 . S
C1026 C1010 1.368 . S
C1026 C1022 1.368 1_556 S
C1026 C1025 1.523 . S
H1027 C1002 0.950 . S
H1028 C1004 0.950 . S
H1029 C1005 0.949 . S
H1030 C1007 0.950 . S
H1031 C1009 0.950 . S
C1032 C1033 1.349 . S
C1032 C1034 1.327 . S
C1032 H1057 0.950 . S
C1033 C1032 1.349 . S
C1033 C1049 1.349 . S
C1034 C1032 1.327 . S
C1034 C1053 1.429 . S
C1034 H1058 0.950 . S
C1035 C1052 1.574 . S
C1035 C1054 1.368 . S
C1035 H1059 0.949 . S
H1036 C1040 0.949 . S
C1037 C1038 1.349 . S
C1037 C1039 1.327 . S
C1037 H1060 0.950 . S
C1038 C1037 1.349 . S
C1038 C1050 1.349 . S
C1039 C1037 1.327 . S
C1039 C1055 1.429 . S
C1039 H1061 0.950 . S
C1040 H1036 0.949 . S
C1040 C1048 1.574 . S
C1040 C1056 1.368 . S
H1041 C1049 0.950 . S
H1042 C1047 0.950 . S
H1043 C1048 0.949 . S
H1044 C1050 0.950 . S
H1045 C1051 0.950 . S
H1046 C1052 0.949 . S
C1047 H1042 0.950 . S
C1047 C1049 1.327 . S
C1047 C1053 1.429 . S
C1048 C1040 1.574 . S
C1048 H1043 0.949 . S
C1048 C1054 1.368 . S
C1049 C1033 1.349 . S
C1049 H1041 0.950 . S
C1049 C1047 1.327 . S
C1050 C1038 1.349 . S
C1050 H1044 0.950 . S
C1050 C1051 1.327 . S
C1051 H1045 0.950 . S
C1051 C1050 1.327 . S
C1051 C1055 1.429 . S
C1052 C1035 1.574 . S
C1052 H1046 0.949 . S
C1052 C1056 1.368 . S
C1053 C1034 1.429 . S
C1053 C1047 1.429 . S
C1053 C1054 1.523 . S
C1054 C1035 1.368 . S
C1054 C1048 1.368 . S
C1054 C1053 1.523 . S
C1055 C1039 1.429 . S
C1055 C1051 1.429 . S
C1055 C1056 1.523 . S
C1056 C1040 1.368 . S
C1056 C1052 1.368 . S
C1056 C1055 1.523 . S
H1057 C1032 0.950 . S
H1058 C1034 0.950 . S
H1059 C1035 0.949 . S
H1060 C1037 0.950 . S
H1061 C1039 0.950 . S
C1062 C1063 1.349 . S
C1062 C1064 1.327 . S
C1062 H1087 0.950 . S
C1063 C1062 1.349 . S
C1063 C1079 1.349 . S
C1064 C1062 1.327 . S
C1064 C1083 1.429 . S
C1064 H1088 0.950 . S
C1065 C1082 1.574 . S
C1065 C1084 1.368 . S
C1065 H1089 0.949 . S
H1066 C1070 0.949 . S
C1067 C1068 1.349 . S
C1067 C1069 1.327 . S
C1067 H1090 0.950 . S
C1068 C1067 1.349 . S
C1068 C1080 1.349 . S
C1069 C1067 1.327 . S
C1069 C1085 1.429 . S
C1069 H1091 0.950 . S
C1070 H1066 0.949 . S
C1070 C1078 1.574 . S
C1070 C1086 1.368 . S
H1071 C1079 0.950 . S
H1072 C1077 0.950 . S
H1073 C1078 0.949 . S
H1074 C1080 0.950 . S
H1075 C1081 0.950 . S
H1076 C1082 0.949 . S
C1077 H1072 0.950 . S
C1077 C1079 1.327 . S
C1077 C1083 1.429 . S
C1078 C1070 1.574 . S
C1078 H1073 0.949 . S
C1078 C1084 1.368 . S
C1079 C1063 1.349 . S
C1079 H1071 0.950 . S
C1079 C1077 1.327 . S
C1080 C1068 1.349 . S
C1080 H1074 0.950 . S
C1080 C1081 1.327 . S
C1081 H1075 0.950 . S
C1081 C1080 1.327 . S
C1081 C1085 1.429 . S
C1082 C1065 1.574 . S
C1082 H1076 0.949 . S
C1082 C1086 1.368 . S
C1083 C1064 1.429 . S
C1083 C1077 1.429 . S
C1083 C1084 1.523 . S
C1084 C1065 1.368 . S
C1084 C1078 1.368 . S
C1084 C1083 1.523 . S
C1085 C1069 1.429 . S
C1085 C1081 1.429 . S
C1085 C1086 1.523 . S
C1086 C1070 1.368 . S
C1086 C1082 1.368 . S
C1086 C1085 1.523 . S
H1087 C1062 0.950 . S
H1088 C1064 0.950 . S
H1089 C1065 0.949 . S
H1090 C1067 0.950 . S
H1091 C1069 0.950 . S
C1092 C1093 1.349 . S
C1092 C1094 1.327 . S
C1092 H1117 0.950 . S
C1093 C1092 1.349 . S
C1093 C1109 1.349 . S
C1094 C1092 1.327 . S
C1094 C1113 1.429 . S
C1094 H1118 0.950 . S
C1095 C1112 1.574 . S
C1095 C1114 1.368 . S
C1095 H1119 0.949 . S
H1096 C1100 0.949 . S
C1097 C1098 1.349 . S
C1097 C1099 1.327 . S
C1097 H1120 0.950 . S
C1098 C1097 1.349 . S
C1098 C1110 1.349 . S
C1099 C1097 1.327 . S
C1099 C1115 1.429 . S
C1099 H1121 0.950 . S
C1100 H1096 0.949 . S
C1100 C1108 1.574 . S
C1100 C1116 1.368 . S
H1101 C1109 0.950 . S
H1102 C1107 0.950 . S
H1103 C1108 0.949 . S
H1104 C1110 0.950 . S
H1105 C1111 0.950 . S
H1106 C1112 0.949 . S
C1107 H1102 0.950 . S
C1107 C1109 1.327 . S
C1107 C1113 1.429 . S
C1108 C1100 1.574 . S
C1108 H1103 0.949 . S
C1108 C1114 1.368 . S
C1109 C1093 1.349 . S
C1109 H1101 0.950 . S
C1109 C1107 1.327 . S
C1110 C1098 1.349 . S
C1110 H1104 0.950 . S
C1110 C1111 1.327 . S
C1111 H1105 0.950 . S
C1111 C1110 1.327 . S
C1111 C1115 1.429 . S
C1112 C1095 1.574 . S
C1112 H1106 0.949 . S
C1112 C1116 1.368 . S
C1113 C1094 1.429 . S
C1113 C1107 1.429 . S
C1113 C1114 1.523 . S
C1114 C1095 1.368 . S
C1114 C1108 1.368 . S
C1114 C1113 1.523 . S
C1115 C1099 1.429 . S
C1115 C1111 1.429 . S
C1115 C1116 1.523 . S
C1116 C1100 1.368 . S
C1116 C1112 1.368 . S
C1116 C1115 1.523 . S
H1117 C1092 0.950 . S
H1118 C1094 0.950 . S
H1119 C1095 0.949 . S
H1120 C1097 0.950 . S
H1121 C1099 0.950 . S
C1122 C1123 1.349 . S
C1122 C1124 1.327 . S
C1122 H1147 0.950 . S
C1123 C1122 1.349 . S
C1123 C1139 1.349 . S
C1124 C1122 1.327 . S
C1124 C1143 1.429 . S
C1124 H1148 0.950 . S
C1125 C1142 1.574 . S
C1125 C1144 1.368 . S
C1125 H1149 0.949 . S
H1126 C1130 0.949 . S
C1127 C1128 1.349 . S
C1127 C1129 1.327 . S
C1127 H1150 0.950 . S
C1128 C1127 1.349 . S
C1128 C1140 1.349 . S
C1129 C1127 1.327 . S
C1129 C1145 1.429 . S
C1129 H1151 0.950 . S
C1130 H1126 0.949 . S
C1130 C1138 1.574 . S
C1130 C1146 1.368 . S
H1131 C1139 0.950 . S
H1132 C1137 0.950 . S
H1133 C1138 0.949 . S
H1134 C1140 0.950 . S
H1135 C1141 0.950 . S
H1136 C1142 0.949 . S
C1137 H1132 0.950 . S
C1137 C1139 1.327 . S
C1137 C1143 1.429 . S
C1138 C1130 1.574 . S
C1138 H1133 0.949 . S
C1138 C1144 1.368 . S
C1139 C1123 1.349 . S
C1139 H1131 0.950 . S
C1139 C1137 1.327 . S
C1140 C1128 1.349 . S
C1140 H1134 0.950 . S
C1140 C1141 1.327 . S
C1141 H1135 0.950 . S
C1141 C1140 1.327 . S
C1141 C1145 1.429 . S
C1142 C1125 1.574 . S
C1142 H1136 0.949 . S
C1142 C1146 1.368 . S
C1143 C1124 1.429 . S
C1143 C1137 1.429 . S
C1143 C1144 1.523 . S
C1144 C1125 1.368 . S
C1144 C1138 1.368 . S
C1144 C1143 1.523 . S
C1145 C1129 1.429 . S
C1145 C1141 1.429 . S
C1145 C1146 1.523 . S
C1146 C1130 1.368 . S
C1146 C1142 1.368 . S
C1146 C1145 1.523 . S
H1147 C1122 0.950 . S
H1148 C1124 0.950 . S
H1149 C1125 0.949 . S
H1150 C1127 0.950 . S
H1151 C1129 0.950 . S
C1152 C1153 1.349 . S
C1152 C1154 1.327 . S
C1152 H1177 0.950 . S
C1153 C1152 1.349 . S
C1153 C1169 1.349 . S
C1154 C1152 1.327 . S
C1154 C1173 1.429 . S
C1154 H1178 0.950 . S
C1155 C1172 1.574 . S
C1155 C1174 1.368 . S
C1155 H1179 0.949 . S
H1156 C1160 0.949 . S
C1157 C1158 1.349 . S
C1157 C1159 1.327 . S
C1157 H1180 0.950 . S
C1158 C1157 1.349 . S
C1158 C1170 1.349 . S
C1159 C1157 1.327 . S
C1159 C1175 1.429 . S
C1159 H1181 0.950 . S
C1160 H1156 0.949 . S
C1160 C1168 1.574 . S
C1160 C1176 1.368 . S
H1161 C1169 0.950 . S
H1162 C1167 0.950 . S
H1163 C1168 0.949 . S
H1164 C1170 0.950 . S
H1165 C1171 0.950 . S
H1166 C1172 0.949 . S
C1167 H1162 0.950 . S
C1167 C1169 1.327 . S
C1167 C1173 1.429 . S
C1168 C1160 1.574 . S
C1168 H1163 0.949 . S
C1168 C1174 1.368 . S
C1169 C1153 1.349 . S
C1169 H1161 0.950 . S
C1169 C1167 1.327 . S
C1170 C1158 1.349 . S
C1170 H1164 0.950 . S
C1170 C1171 1.327 . S
C1171 H1165 0.950 . S
C1171 C1170 1.327 . S
C1171 C1175 1.429 . S
C1172 C1155 1.574 . S
C1172 H1166 0.949 . S
C1172 C1176 1.368 . S
C1173 C1154 1.429 . S
C1173 C1167 1.429 . S
C1173 C1174 1.523 . S
C1174 C1155 1.368 . S
C1174 C1168 1.368 . S
C1174 C1173 1.523 . S
C1175 C1159 1.429 . S
C1175 C1171 1.429 . S
C1175 C1176 1.523 . S
C1176 C1160 1.368 . S
C1176 C1172 1.368 . S
C1176 C1175 1.523 . S
H1177 C1152 0.950 . S
H1178 C1154 0.950 . S
H1179 C1155 0.949 . S
H1180 C1157 0.950 . S
H1181 C1159 0.950 . S
C1182 C1183 1.349 . S
C1182 C1184 1.327 . S
C1182 H1207 0.950 . S
C1183 C1182 1.349 . S
C1183 C1199 1.349 . S
C1184 C1182 1.327 . S
C1184 C1203 1.429 . S
C1184 H1208 0.950 . S
C1185 C1202 1.574 . S
C1185 C1204 1.368 . S
C1185 H1209 0.949 . S
H1186 C1190 0.949 . S
C1187 C1188 1.349 . S
C1187 C1189 1.327 . S
C1187 H1210 0.950 . S
C1188 C1187 1.349 . S
C1188 C1200 1.349 . S
C1189 C1187 1.327 . S
C1189 C1205 1.429 . S
C1189 H1211 0.950 . S
C1190 H1186 0.949 . S
C1190 C1198 1.574 . S
C1190 C1206 1.368 . S
H1191 C1199 0.950 . S
H1192 C1197 0.950 . S
H1193 C1198 0.949 . S
H1194 C1200 0.950 . S
H1195 C1201 0.950 . S
H1196 C1202 0.949 . S
C1197 H1192 0.950 . S
C1197 C1199 1.327 . S
C1197 C1203 1.429 . S
C1198 C1190 1.574 . S
C1198 H1193 0.949 . S
C1198 C1204 1.368 . S
C1199 C1183 1.349 . S
C1199 H1191 0.950 . S
C1199 C1197 1.327 . S
C1200 C1188 1.349 . S
C1200 H1194 0.950 . S
C1200 C1201 1.327 . S
C1201 H1195 0.950 . S
C1201 C1200 1.327 . S
C1201 C1205 1.429 . S
C1202 C1185 1.574 . S
C1202 H1196 0.949 . S
C1202 C1206 1.368 . S
C1203 C1184 1.429 . S
C1203 C1197 1.429 . S
C1203 C1204 1.523 . S
C1204 C1185 1.368 . S
C1204 C1198 1.368 . S
C1204 C1203 1.523 . S
C1205 C1189 1.429 . S
C1205 C1201 1.429 . S
C1205 C1206 1.523 . S
C1206 C1190 1.368 . S
C1206 C1202 1.368 . S
C1206 C1205 1.523 . S
H1207 C1182 0.950 . S
H1208 C1184 0.950 . S
H1209 C1185 0.949 . S
H1210 C1187 0.950 . S
H1211 C1189 0.950 . S
C1212 C1213 1.349 . S
C1212 C1214 1.327 . S
C1212 H1237 0.950 . S
C1213 C1212 1.349 . S
C1213 C1229 1.349 . S
C1214 C1212 1.327 . S
C1214 C1233 1.429 . S
C1214 H1238 0.950 . S
C1215 C1232 1.574 . S
C1215 C1234 1.368 . S
C1215 H1239 0.949 . S
H1216 C1220 0.949 . S
C1217 C1218 1.349 . S
C1217 C1219 1.327 . S
C1217 H1240 0.950 . S
C1218 C1217 1.349 . S
C1218 C1230 1.349 . S
C1219 C1217 1.327 . S
C1219 C1235 1.429 . S
C1219 H1241 0.950 . S
C1220 H1216 0.949 . S
C1220 C1228 1.574 . S
C1220 C1236 1.368 . S
H1221 C1229 0.950 . S
H1222 C1227 0.950 . S
H1223 C1228 0.949 . S
H1224 C1230 0.950 . S
H1225 C1231 0.950 . S
H1226 C1232 0.949 . S
C1227 H1222 0.950 . S
C1227 C1229 1.327 . S
C1227 C1233 1.429 . S
C1228 C1220 1.574 . S
C1228 H1223 0.949 . S
C1228 C1234 1.368 . S
C1229 C1213 1.349 . S
C1229 H1221 0.950 . S
C1229 C1227 1.327 . S
C1230 C1218 1.349 . S
C1230 H1224 0.950 . S
C1230 C1231 1.327 . S
C1231 H1225 0.950 . S
C1231 C1230 1.327 . S
C1231 C1235 1.429 . S
C1232 C1215 1.574 . S
C1232 H1226 0.949 . S
C1232 C1236 1.368 . S
C1233 C1214 1.429 . S
C1233 C1227 1.429 . S
C1233 C1234 1.523 . S
C1234 C1215 1.368 . S
C1234 C1228 1.368 . S
C1234 C1233 1.523 . S
C1235 C1219 1.429 . S
C1235 C1231 1.429 . S
C1235 C1236 1.523 . S
C1236 C1220 1.368 . S
C1236 C1232 1.368 . S
C1236 C1235 1.523 . S
H1237 C1212 0.950 . S
H1238 C1214 0.950 . S
H1239 C1215 0.949 . S
H1240 C1217 0.950 . S
H1241 C1219 0.950 . S
C1242 C1243 1.349 . S
C1242 C1244 1.327 . S
C1242 H1267 0.950 . S
C1243 C1242 1.349 . S
C1243 C1259 1.349 . S
C1244 C1242 1.327 . S
C1244 C1263 1.429 . S
C1244 H1268 0.950 . S
C1245 C1262 1.574 . S
C1245 C1264 1.368 . S
C1245 H1269 0.949 . S
H1246 C1250 0.949 . S
C1247 C1248 1.349 . S
C1247 C1249 1.327 . S
C1247 H1270 0.950 . S
C1248 C1247 1.349 . S
C1248 C1260 1.349 . S
C1249 C1247 1.327 . S
C1249 C1265 1.429 . S
C1249 H1271 0.950 . S
C1250 H1246 0.949 . S
C1250 C1258 1.574 . S
C1250 C1266 1.368 . S
H1251 C1259 0.950 . S
H1252 C1257 0.950 . S
H1253 C1258 0.949 . S
H1254 C1260 0.950 . S
H1255 C1261 0.950 . S
H1256 C1262 0.949 . S
C1257 H1252 0.950 . S
C1257 C1259 1.327 . S
C1257 C1263 1.429 . S
C1258 C1250 1.574 . S
C1258 H1253 0.949 . S
C1258 C1264 1.368 . S
C1259 C1243 1.349 . S
C1259 H1251 0.950 . S
C1259 C1257 1.327 . S
C1260 C1248 1.349 . S
C1260 H1254 0.950 . S
C1260 C1261 1.327 . S
C1261 H1255 0.950 . S
C1261 C1260 1.327 . S
C1261 C1265 1.429 . S
C1262 C1245 1.574 . S
C1262 H1256 0.949 . S
C1262 C1266 1.368 . S
C1263 C1244 1.429 . S
C1263 C1257 1.429 . S
C1263 C1264 1.523 . S
C1264 C1245 1.368 . S
C1264 C1258 1.368 . S
C1264 C1263 1.523 . S
C1265 C1249 1.429 . S
C1265 C1261 1.429 . S
C1265 C1266 1.523 . S
C1266 C1250 1.368 . S
C1266 C1262 1.368 . S
C1266 C1265 1.523 . S
H1267 C1242 0.950 . S
H1268 C1244 0.950 . S
H1269 C1245 0.949 . S
H1270 C1247 0.950 . S
H1271 C1249 0.950 . S
C1272 C1273 1.349 . S
C1272 C1274 1.327 . S
C1272 H1297 0.950 . S
C1273 C1272 1.349 . S
C1273 C1289 1.349 . S
C1274 C1272 1.327 . S
C1274 C1293 1.429 . S
C1274 H1298 0.950 . S
C1275 C1292 1.574 . S
C1275 C1294 1.368 . S
C1275 H1299 0.949 . S
H1276 C1280 0.949 . S
C1277 C1278 1.349 . S
C1277 C1279 1.327 . S
C1277 H1300 0.950 . S
C1278 C1277 1.349 . S
C1278 C1290 1.349 . S
C1279 C1277 1.327 . S
C1279 C1295 1.429 . S
C1279 H1301 0.950 . S
C1280 H1276 0.949 . S
C1280 C1288 1.574 . S
C1280 C1296 1.368 . S
H1281 C1289 0.950 . S
H1282 C1287 0.950 . S
H1283 C1288 0.949 . S
H1284 C1290 0.950 . S
H1285 C1291 0.950 . S
H1286 C1292 0.949 . S
C1287 H1282 0.950 . S
C1287 C1289 1.327 . S
C1287 C1293 1.429 . S
C1288 C1280 1.574 . S
C1288 H1283 0.949 . S
C1288 C1294 1.368 . S
C1289 C1273 1.349 . S
C1289 H1281 0.950 . S
C1289 C1287 1.327 . S
C1290 C1278 1.349 . S
C1290 H1284 0.950 . S
C1290 C1291 1.327 . S
C1291 H1285 0.950 . S
C1291 C1290 1.327 . S
C1291 C1295 1.429 . S
C1292 C1275 1.574 . S
C1292 H1286 0.949 . S
C1292 C1296 1.368 . S
C1293 C1274 1.429 . S
C1293 C1287 1.429 . S
C1293 C1294 1.523 . S
C1294 C1275 1.368 . S
C1294 C1288 1.368 . S
C1294 C1293 1.523 . S
C1295 C1279 1.429 . S
C1295 C1291 1.429 . S
C1295 C1296 1.523 . S
C1296 C1280 1.368 . S
C1296 C1292 1.368 . S
C1296 C1295 1.523 . S
H1297 C1272 0.950 . S
H1298 C1274 0.950 . S
H1299 C1275 0.949 . S
H1300 C1277 0.950 . S
H1301 C1279 0.950 . S
C1302 C1303 1.349 . S
C1302 C1304 1.327 . S
C1302 H1327 0.950 . S
C1303 C1302 1.349 . S
C1303 C1319 1.349 . S
C1304 C1302 1.327 . S
C1304 C1323 1.429 . S
C1304 H1328 0.950 . S
C1305 C1322 1.574 . S
C1305 C1324 1.368 . S
C1305 H1329 0.949 . S
H1306 C1310 0.949 . S
C1307 C1308 1.349 . S
C1307 C1309 1.327 . S
C1307 H1330 0.950 . S
C1308 C1307 1.349 . S
C1308 C1320 1.349 . S
C1309 C1307 1.327 . S
C1309 C1325 1.429 . S
C1309 H1331 0.950 . S
C1310 H1306 0.949 . S
C1310 C1318 1.574 . S
C1310 C1326 1.368 . S
H1311 C1319 0.950 . S
H1312 C1317 0.950 . S
H1313 C1318 0.949 . S
H1314 C1320 0.950 . S
H1315 C1321 0.950 . S
H1316 C1322 0.949 . S
C1317 H1312 0.950 . S
C1317 C1319 1.327 . S
C1317 C1323 1.429 . S
C1318 C1310 1.574 . S
C1318 H1313 0.949 . S
C1318 C1324 1.368 . S
C1319 C1303 1.349 . S
C1319 H1311 0.950 . S
C1319 C1317 1.327 . S
C1320 C1308 1.349 . S
C1320 H1314 0.950 . S
C1320 C1321 1.327 . S
C1321 H1315 0.950 . S
C1321 C1320 1.327 . S
C1321 C1325 1.429 . S
C1322 C1305 1.574 . S
C1322 H1316 0.949 . S
C1322 C1326 1.368 . S
C1323 C1304 1.429 . S
C1323 C1317 1.429 . S
C1323 C1324 1.523 . S
C1324 C1305 1.368 . S
C1324 C1318 1.368 . S
C1324 C1323 1.523 . S
C1325 C1309 1.429 . S
C1325 C1321 1.429 . S
C1325 C1326 1.523 . S
C1326 C1310 1.368 . S
C1326 C1322 1.368 . S
C1326 C1325 1.523 . S
H1327 C1302 0.950 . S
H1328 C1304 0.950 . S
H1329 C1305 0.949 . S
H1330 C1307 0.950 . S
H1331 C1309 0.950 . S
C1332 C1333 1.349 . S
C1332 C1334 1.327 . S
C1332 H1357 0.950 . S
C1333 C1332 1.349 . S
C1333 C1349 1.349 . S
C1334 C1332 1.327 . S
C1334 C1353 1.429 . S
C1334 H1358 0.950 . S
C1335 C1352 1.574 . S
C1335 C1354 1.368 . S
C1335 H1359 0.949 . S
H1336 C1340 0.949 . S
C1337 C1338 1.349 . S
C1337 C1339 1.327 . S
C1337 H1360 0.950 . S
C1338 C1337 1.349 . S
C1338 C1350 1.349 . S
C1339 C1337 1.327 . S
C1339 C1355 1.429 . S
C1339 H1361 0.950 . S
C1340 H1336 0.949 . S
C1340 C1348 1.574 . S
C1340 C1356 1.368 . S
H1341 C1349 0.950 . S
H1342 C1347 0.950 . S
H1343 C1348 0.949 . S
H1344 C1350 0.950 . S
H1345 C1351 0.950 . S
H1346 C1352 0.949 . S
C1347 H1342 0.950 . S
C1347 C1349 1.327 . S
C1347 C1353 1.429 . S
C1348 C1340 1.574 . S
C1348 H1343 0.949 . S
C1348 C1354 1.368 . S
C1349 C1333 1.349 . S
C1349 H1341 0.950 . S
C1349 C1347 1.327 . S
C1350 C1338 1.349 . S
C1350 H1344 0.950 . S
C1350 C1351 1.327 . S
C1351 H1345 0.950 . S
C1351 C1350 1.327 . S
C1351 C1355 1.429 . S
C1352 C1335 1.574 . S
C1352 H1346 0.949 . S
C1352 C1356 1.368 . S
C1353 C1334 1.429 . S
C1353 C1347 1.429 . S
C1353 C1354 1.523 . S
C1354 C1335 1.368 . S
C1354 C1348 1.368 . S
C1354 C1353 1.523 . S
C1355 C1339 1.429 . S
C1355 C1351 1.429 . S
C1355 C1356 1.523 . S
C1356 C1340 1.368 . S
C1356 C1352 1.368 . S
C1356 C1355 1.523 . S
H1357 C1332 0.950 . S
H1358 C1334 0.950 . S
H1359 C1335 0.949 . S
H1360 C1337 0.950 . S
H1361 C1339 0.950 . S
C1362 C1363 1.349 . S
C1362 C1364 1.327 . S
C1362 H1387 0.950 . S
C1363 C1362 1.349 . S
C1363 C1379 1.349 . S
C1364 C1362 1.327 . S
C1364 C1383 1.429 . S
C1364 H1388 0.950 . S
C1365 C1382 1.574 . S
C1365 C1384 1.368 . S
C1365 H1389 0.949 . S
H1366 C1370 0.949 . S
C1367 C1368 1.349 . S
C1367 C1369 1.327 . S
C1367 H1390 0.950 . S
C1368 C1367 1.349 . S
C1368 C1380 1.349 . S
C1369 C1367 1.327 . S
C1369 C1385 1.429 . S
C1369 H1391 0.950 . S
C1370 H1366 0.949 . S
C1370 C1378 1.574 . S
C1370 C1386 1.368 . S
H1371 C1379 0.950 . S
H1372 C1377 0.950 . S
H1373 C1378 0.949 . S
H1374 C1380 0.950 . S
H1375 C1381 0.950 . S
H1376 C1382 0.949 . S
C1377 H1372 0.950 . S
C1377 C1379 1.327 . S
C1377 C1383 1.429 . S
C1378 C1370 1.574 . S
C1378 H1373 0.949 . S
C1378 C1384 1.368 . S
C1379 C1363 1.349 . S
C1379 H1371 0.950 . S
C1379 C1377 1.327 . S
C1380 C1368 1.349 . S
C1380 H1374 0.950 . S
C1380 C1381 1.327 . S
C1381 H1375 0.950 . S
C1381 C1380 1.327 . S
C1381 C1385 1.429 . S
C1382 C1365 1.574 . S
C1382 H1376 0.949 . S
C1382 C1386 1.368 . S
C1383 C1364 1.429 . S
C1383 C1377 1.429 . S
C1383 C1384 1.523 . S
C1384 C1365 1.368 . S
C1384 C1378 1.368 . S
C1384 C1383 1.523 . S
C1385 C1369 1.429 . S
C1385 C1381 1.429 . S
C1385 C1386 1.523 . S
C1386 C1370 1.368 . S
C1386 C1382 1.368 . S
C1386 C1385 1.523 . S
H1387 C1362 0.950 . S
H1388 C1364 0.950 . S
H1389 C1365 0.949 . S
H1390 C1367 0.950 . S
H1391 C1369 0.950 . S
C1392 C1393 1.349 . S
C1392 C1394 1.327 . S
C1392 H1417 0.950 . S
C1393 C1392 1.349 . S
C1393 C1409 1.349 . S
C1394 C1392 1.327 . S
C1394 C1413 1.429 . S
C1394 H1418 0.950 . S
C1395 C1412 1.574 . S
C1395 C1414 1.368 . S
C1395 H1419 0.949 . S
H1396 C1400 0.949 . S
C1397 C1398 1.349 . S
C1397 C1399 1.327 . S
C1397 H1420 0.950 . S
C1398 C1397 1.349 . S
C1398 C1410 1.349 . S
C1399 C1397 1.327 . S
C1399 C1415 1.429 . S
C1399 H1421 0.950 . S
C1400 H1396 0.949 . S
C1400 C1408 1.574 . S
C1400 C1416 1.368 . S
H1401 C1409 0.950 . S
H1402 C1407 0.950 . S
H1403 C1408 0.949 . S
H1404 C1410 0.950 . S
H1405 C1411 0.950 . S
H1406 C1412 0.949 . S
C1407 H1402 0.950 . S
C1407 C1409 1.327 . S
C1407 C1413 1.429 . S
C1408 C1400 1.574 . S
C1408 H1403 0.949 . S
C1408 C1414 1.368 . S
C1409 C1393 1.349 . S
C1409 H1401 0.950 . S
C1409 C1407 1.327 . S
C1410 C1398 1.349 . S
C1410 H1404 0.950 . S
C1410 C1411 1.327 . S
C1411 H1405 0.950 . S
C1411 C1410 1.327 . S
C1411 C1415 1.429 . S
C1412 C1395 1.574 . S
C1412 H1406 0.949 . S
C1412 C1416 1.368 . S
C1413 C1394 1.429 . S
C1413 C1407 1.429 . S
C1413 C1414 1.523 . S
C1414 C1395 1.368 . S
C1414 C1408 1.368 . S
C1414 C1413 1.523 . S
C1415 C1399 1.429 . S
C1415 C1411 1.429 . S
C1415 C1416 1.523 . S
C1416 C1400 1.368 . S
C1416 C1412 1.368 . S
C1416 C1415 1.523 . S
H1417 C1392 0.950 . S
H1418 C1394 0.950 . S
H1419 C1395 0.949 . S
H1420 C1397 0.950 . S
H1421 C1399 0.950 . S
C1422 C1423 1.349 . S
C1422 C1424 1.327 . S
C1422 H1447 0.950 . S
C1423 C1422 1.349 . S
C1423 C1439 1.349 . S
C1424 C1422 1.327 . S
C1424 C1443 1.429 . S
C1424 H1448 0.950 . S
C1425 C1442 1.574 . S
C1425 C1444 1.368 . S
C1425 H1449 0.949 . S
H1426 C1430 0.949 . S
C1427 C1428 1.349 . S
C1427 C1429 1.327 . S
C1427 H1450 0.950 . S
C1428 C1427 1.349 . S
C1428 C1440 1.349 . S
C1429 C1427 1.327 . S
C1429 C1445 1.429 . S
C1429 H1451 0.950 . S
C1430 H1426 0.949 . S
C1430 C1438 1.574 . S
C1430 C1446 1.368 . S
H1431 C1439 0.950 . S
H1432 C1437 0.950 . S
H1433 C1438 0.949 . S
H1434 C1440 0.950 . S
H1435 C1441 0.950 . S
H1436 C1442 0.949 . S
C1437 H1432 0.950 . S
C1437 C1439 1.327 . S
C1437 C1443 1.429 . S
C1438 C1430 1.574 . S
C1438 H1433 0.949 . S
C1438 C1444 1.368 . S
C1439 C1423 1.349 . S
C1439 H1431 0.950 . S
C1439 C1437 1.327 . S
C1440 C1428 1.349 . S
C1440 H1434 0.950 . S
C1440 C1441 1.327 . S
C1441 H1435 0.950 . S
C1441 C1440 1.327 . S
C1441 C1445 1.429 . S
C1442 C1425 1.574 . S
C1442 H1436 0.949 . S
C1442 C1446 1.368 . S
C1443 C1424 1.429 . S
C1443 C1437 1.429 . S
C1443 C1444 1.523 . S
C1444 C1425 1.368 . S
C1444 C1438 1.368 . S
C1444 C1443 1.523 . S
C1445 C1429 1.429 . S
C1445 C1441 1.429 . S
C1445 C1446 1.523 . S
C1446 C1430 1.368 . S
C1446 C1442 1.368 . S
C1446 C1445 1.523 . S
H1447 C1422 0.950 . S
H1448 C1424 0.950 . S
H1449 C1425 0.949 . S
H1450 C1427 0.950 . S
H1451 C1429 0.950 . S
C1452 C1453 1.349 . S
C1452 C1454 1.327 . S
C1452 H1477 0.950 . S
C1453 C1452 1.349 . S
C1453 C1469 1.349 . S
C1454 C1452 1.327 . S
C1454 C1473 1.429 . S
C1454 H1478 0.950 . S
C1455 C1472 1.574 . S
C1455 C1474 1.368 . S
C1455 H1479 0.949 . S
H1456 C1460 0.949 . S
C1457 C1458 1.349 . S
C1457 C1459 1.327 . S
C1457 H1480 0.950 . S
C1458 C1457 1.349 . S
C1458 C1470 1.349 . S
C1459 C1457 1.327 . S
C1459 C1475 1.429 . S
C1459 H1481 0.950 . S
C1460 H1456 0.949 . S
C1460 C1468 1.574 . S
C1460 C1476 1.368 . S
H1461 C1469 0.950 . S
H1462 C1467 0.950 . S
H1463 C1468 0.949 . S
H1464 C1470 0.950 . S
H1465 C1471 0.950 . S
H1466 C1472 0.949 . S
C1467 H1462 0.950 . S
C1467 C1469 1.327 . S
C1467 C1473 1.429 . S
C1468 C1460 1.574 . S
C1468 H1463 0.949 . S
C1468 C1474 1.368 . S
C1469 C1453 1.349 . S
C1469 H1461 0.950 . S
C1469 C1467 1.327 . S
C1470 C1458 1.349 . S
C1470 H1464 0.950 . S
C1470 C1471 1.327 . S
C1471 H1465 0.950 . S
C1471 C1470 1.327 . S
C1471 C1475 1.429 . S
C1472 C1455 1.574 . S
C1472 H1466 0.949 . S
C1472 C1476 1.368 . S
C1473 C1454 1.429 . S
C1473 C1467 1.429 . S
C1473 C1474 1.523 . S
C1474 C1455 1.368 . S
C1474 C1468 1.368 . S
C1474 C1473 1.523 . S
C1475 C1459 1.429 . S
C1475 C1471 1.429 . S
C1475 C1476 1.523 . S
C1476 C1460 1.368 . S
C1476 C1472 1.368 . S
C1476 C1475 1.523 . S
H1477 C1452 0.950 . S
H1478 C1454 0.950 . S
H1479 C1455 0.949 . S
H1480 C1457 0.950 . S
H1481 C1459 0.950 . S
C1482 C1483 1.349 . S
C1482 C1484 1.327 . S
C1482 H1507 0.950 . S
C1483 C1482 1.349 . S
C1483 C1499 1.349 . S
C1484 C1482 1.327 . S
C1484 C1503 1.429 . S
C1484 H1508 0.950 . S
C1485 C1502 1.574 . S
C1485 C1504 1.368 . S
C1485 H1509 0.949 . S
H1486 C1490 0.949 . S
C1487 C1488 1.349 . S
C1487 C1489 1.327 . S
C1487 H1510 0.950 . S
C1488 C1487 1.349 . S
C1488 C1500 1.349 . S
C1489 C1487 1.327 . S
C1489 C1505 1.429 . S
C1489 H1511 0.950 . S
C1490 H1486 0.949 . S
C1490 C1498 1.574 . S
C1490 C1506 1.368 . S
H1491 C1499 0.950 . S
H1492 C1497 0.950 . S
H1493 C1498 0.949 . S
H1494 C1500 0.950 . S
H1495 C1501 0.950 . S
H1496 C1502 0.949 . S
C1497 H1492 0.950 . S
C1497 C1499 1.327 . S
C1497 C1503 1.429 . S
C1498 C1490 1.574 . S
C1498 H1493 0.949 . S
C1498 C1504 1.368 . S
C1499 C1483 1.349 . S
C1499 H1491 0.950 . S
C1499 C1497 1.327 . S
C1500 C1488 1.349 . S
C1500 H1494 0.950 . S
C1500 C1501 1.327 . S
C1501 H1495 0.950 . S
C1501 C1500 1.327 . S
C1501 C1505 1.429 . S
C1502 C1485 1.574 . S
C1502 H1496 0.949 . S
C1502 C1506 1.368 . S
C1503 C1484 1.429 . S
C1503 C1497 1.429 . S
C1503 C1504 1.523 . S
C1504 C1485 1.368 . S
C1504 C1498 1.368 . S
C1504 C1503 1.523 . S
C1505 C1489 1.429 . S
C1505 C1501 1.429 . S
C1505 C1506 1.523 . S
C1506 C1490 1.368 . S
C1506 C1502 1.368 . S
C1506 C1505 1.523 . S
H1507 C1482 0.950 . S
H1508 C1484 0.950 . S
H1509 C1485 0.949 . S
H1510 C1487 0.950 . S
H1511 C1489 0.950 . S
C1512 C1513 1.349 . S
C1512 C1514 1.327 . S
C1512 H1537 0.950 . S
C1513 C1512 1.349 . S
C1513 C1529 1.349 . S
C1514 C1512 1.327 . S
C1514 C1533 1.429 . S
C1514 H1538 0.950 . S
C1515 C1532 1.574 . S
C1515 C1534 1.368 . S
C1515 H1539 0.949 . S
H1516 C1520 0.949 . S
C1517 C1518 1.349 . S
C1517 C1519 1.327 . S
C1517 H1540 0.950 . S
C1518 C1517 1.349 . S
C1518 C1530 1.349 . S
C1519 C1517 1.327 . S
C1519 C1535 1.429 . S
C1519 H1541 0.950 . S
C1520 H1516 0.949 . S
C1520 C1528 1.574 . S
C1520 C1536 1.368 . S
H1521 C1529 0.950 . S
H1522 C1527 0.950 . S
H1523 C1528 0.949 . S
H1524 C1530 0.950 . S
H1525 C1531 0.950 . S
H1526 C1532 0.949 . S
C1527 H1522 0.950 . S
C1527 C1529 1.327 . S
C1527 C1533 1.429 . S
C1528 C1520 1.574 . S
C1528 H1523 0.949 . S
C1528 C1534 1.368 . S
C1529 C1513 1.349 . S
C1529 H1521 0.950 . S
C1529 C1527 1.327 . S
C1530 C1518 1.349 . S
C1530 H1524 0.950 . S
C1530 C1531 1.327 . S
C1531 H1525 0.950 . S
C1531 C1530 1.327 . S
C1531 C1535 1.429 . S
C1532 C1515 1.574 . S
C1532 H1526 0.949 . S
C1532 C1536 1.368 . S
C1533 C1514 1.429 . S
C1533 C1527 1.429 . S
C1533 C1534 1.523 . S
C1534 C1515 1.368 . S
C1534 C1528 1.368 . S
C1534 C1533 1.523 . S
C1535 C1519 1.429 . S
C1535 C1531 1.429 . S
C1535 C1536 1.523 . S
C1536 C1520 1.368 . S
C1536 C1532 1.368 . S
C1536 C1535 1.523 . S
H1537 C1512 0.950 . S
H1538 C1514 0.950 . S
H1539 C1515 0.949 . S
H1540 C1517 0.950 . S
H1541 C1519 0.950 . S
C1542 C1543 1.349 . S
C1542 C1544 1.327 . S
C1542 H1567 0.950 . S
C1543 C1542 1.349 . S
C1543 C1559 1.349 . S
C1544 C1542 1.327 . S
C1544 C1563 1.429 . S
C1544 H1568 0.950 . S
C1545 C1562 1.574 . S
C1545 C1564 1.368 . S
C1545 H1569 0.949 . S
H1546 C1550 0.949 . S
C1547 C1548 1.349 . S
C1547 C1549 1.327 . S
C1547 H1570 0.950 . S
C1548 C1547 1.349 . S
C1548 C1560 1.349 . S
C1549 C1547 1.327 . S
C1549 C1565 1.429 . S
C1549 H1571 0.950 . S
C1550 H1546 0.949 . S
C1550 C1558 1.574 . S
C1550 C1566 1.368 . S
H1551 C1559 0.950 . S
H1552 C1557 0.950 . S
H1553 C1558 0.949 . S
H1554 C1560 0.950 . S
H1555 C1561 0.950 . S
H1556 C1562 0.949 . S
C1557 H1552 0.950 . S
C1557 C1559 1.327 . S
C1557 C1563 1.429 . S
C1558 C1550 1.574 . S
C1558 H1553 0.949 . S
C1558 C1564 1.368 . S
C1559 C1543 1.349 . S
C1559 H1551 0.950 . S
C1559 C1557 1.327 . S
C1560 C1548 1.349 . S
C1560 H1554 0.950 . S
C1560 C1561 1.327 . S
C1561 H1555 0.950 . S
C1561 C1560 1.327 . S
C1561 C1565 1.429 . S
C1562 C1545 1.574 . S
C1562 H1556 0.949 . S
C1562 C1566 1.368 . S
C1563 C1544 1.429 . S
C1563 C1557 1.429 . S
C1563 C1564 1.523 . S
C1564 C1545 1.368 . S
C1564 C1558 1.368 . S
C1564 C1563 1.523 . S
C1565 C1549 1.429 . S
C1565 C1561 1.429 . S
C1565 C1566 1.523 . S
C1566 C1550 1.368 . S
C1566 C1562 1.368 . S
C1566 C1565 1.523 . S
H1567 C1542 0.950 . S
H1568 C1544 0.950 . S
H1569 C1545 0.949 . S
H1570 C1547 0.950 . S
H1571 C1549 0.950 . S
C1572 C1573 1.349 . S
C1572 C1574 1.327 . S
C1572 H1597 0.950 . S
C1573 C1572 1.349 . S
C1573 C1589 1.349 . S
C1574 C1572 1.327 . S
C1574 C1593 1.429 . S
C1574 H1598 0.950 . S
C1575 C1592 1.574 . S
C1575 C1594 1.368 . S
C1575 H1599 0.949 . S
H1576 C1580 0.949 . S
C1577 C1578 1.349 . S
C1577 C1579 1.327 . S
C1577 H1600 0.950 . S
C1578 C1577 1.349 . S
C1578 C1590 1.349 . S
C1579 C1577 1.327 . S
C1579 C1595 1.429 . S
C1579 H1601 0.950 . S
C1580 H1576 0.949 . S
C1580 C1588 1.574 . S
C1580 C1596 1.368 . S
H1581 C1589 0.950 . S
H1582 C1587 0.950 . S
H1583 C1588 0.949 . S
H1584 C1590 0.950 . S
H1585 C1591 0.950 . S
H1586 C1592 0.949 . S
C1587 H1582 0.950 . S
C1587 C1589 1.327 . S
C1587 C1593 1.429 . S
C1588 C1580 1.574 . S
C1588 H1583 0.949 . S
C1588 C1594 1.368 . S
C1589 C1573 1.349 . S
C1589 H1581 0.950 . S
C1589 C1587 1.327 . S
C1590 C1578 1.349 . S
C1590 H1584 0.950 . S
C1590 C1591 1.327 . S
C1591 H1585 0.950 . S
C1591 C1590 1.327 . S
C1591 C1595 1.429 . S
C1592 C1575 1.574 . S
C1592 H1586 0.949 . S
C1592 C1596 1.368 . S
C1593 C1574 1.429 . S
C1593 C1587 1.429 . S
C1593 C1594 1.523 . S
C1594 C1575 1.368 . S
C1594 C1588 1.368 . S
C1594 C1593 1.523 . S
C1595 C1579 1.429 . S
C1595 C1591 1.429 . S
C1595 C1596 1.523 . S
C1596 C1580 1.368 . S
C1596 C1592 1.368 . S
C1596 C1595 1.523 . S
H1597 C1572 0.950 . S
H1598 C1574 0.950 . S
H1599 C1575 0.949 . S
H1600 C1577 0.950 . S
H1601 C1579 0.950 . S
C1602 C1603 1.349 . S
C1602 C1604 1.327 . S
C1602 H1627 0.950 . S
C1603 C1602 1.349 . S
C1603 C1619 1.349 . S
C1604 C1602 1.327 . S
C1604 C1623 1.429 . S
C1604 H1628 0.950 . S
C1605 C1622 1.574 . S
C1605 C1624 1.368 . S
C1605 H1629 0.949 . S
H1606 C1610 0.949 . S
C1607 C1608 1.349 . S
C1607 C1609 1.327 . S
C1607 H1630 0.950 . S
C1608 C1607 1.349 . S
C1608 C1620 1.349 . S
C1609 C1607 1.327 . S
C1609 C1625 1.429 . S
C1609 H1631 0.950 . S
C1610 H1606 0.949 . S
C1610 C1618 1.574 . S
C1610 C1626 1.368 . S
H1611 C1619 0.950 . S
H1612 C1617 0.950 . S
H1613 C1618 0.949 . S
H1614 C1620 0.950 . S
H1615 C1621 0.950 . S
H1616 C1622 0.949 . S
C1617 H1612 0.950 . S
C1617 C1619 1.327 . S
C1617 C1623 1.429 . S
C1618 C1610 1.574 . S
C1618 H1613 0.949 . S
C1618 C1624 1.368 . S
C1619 C1603 1.349 . S
C1619 H1611 0.950 . S
C1619 C1617 1.327 . S
C1620 C1608 1.349 . S
C1620 H1614 0.950 . S
C1620 C1621 1.327 . S
C1621 H1615 0.950 . S
C1621 C1620 1.327 . S
C1621 C1625 1.429 . S
C1622 C1605 1.574 . S
C1622 H1616 0.949 . S
C1622 C1626 1.368 . S
C1623 C1604 1.429 . S
C1623 C1617 1.429 . S
C1623 C1624 1.523 . S
C1624 C1605 1.368 . S
C1624 C1618 1.368 . S
C1624 C1623 1.523 . S
C1625 C1609 1.429 . S
C1625 C1621 1.429 . S
C1625 C1626 1.523 . S
C1626 C1610 1.368 . S
C1626 C1622 1.368 . S
C1626 C1625 1.523 . S
H1627 C1602 0.950 . S
H1628 C1604 0.950 . S
H1629 C1605 0.949 . S
H1630 C1607 0.950 . S
H1631 C1609 0.950 . S
C1632 C1633 1.349 . S
C1632 C1634 1.327 . S
C1632 H1657 0.950 . S
C1633 C1632 1.349 . S
C1633 C1649 1.349 . S
C1634 C1632 1.327 . S
C1634 C1653 1.429 . S
C1634 H1658 0.950 . S
C1635 C1652 1.574 . S
C1635 C1654 1.368 . S
C1635 H1659 0.949 . S
H1636 C1640 0.949 . S
C1637 C1638 1.349 . S
C1637 C1639 1.327 . S
C1637 H1660 0.950 . S
C1638 C1637 1.349 . S
C1638 C1650 1.349 . S
C1639 C1637 1.327 . S
C1639 C1655 1.429 . S
C1639 H1661 0.950 . S
C1640 H1636 0.949 . S
C1640 C1648 1.574 . S
C1640 C1656 1.368 . S
H1641 C1649 0.950 . S
H1642 C1647 0.950 . S
H1643 C1648 0.949 . S
H1644 C1650 0.950 . S
H1645 C1651 0.950 . S
H1646 C1652 0.949 . S
C1647 H1642 0.950 . S
C1647 C1649 1.327 . S
C1647 C1653 1.429 . S
C1648 C1640 1.574 . S
C1648 H1643 0.949 . S
C1648 C1654 1.368 . S
C1649 C1633 1.349 . S
C1649 H1641 0.950 . S
C1649 C1647 1.327 . S
C1650 C1638 1.349 . S
C1650 H1644 0.950 . S
C1650 C1651 1.327 . S
C1651 H1645 0.950 . S
C1651 C1650 1.327 . S
C1651 C1655 1.429 . S
C1652 C1635 1.574 . S
C1652 H1646 0.949 . S
C1652 C1656 1.368 . S
C1653 C1634 1.429 . S
C1653 C1647 1.429 . S
C1653 C1654 1.523 . S
C1654 C1635 1.368 . S
C1654 C1648 1.368 . S
C1654 C1653 1.523 . S
C1655 C1639 1.429 . S
C1655 C1651 1.429 . S
C1655 C1656 1.523 . S
C1656 C1640 1.368 . S
C1656 C1652 1.368 . S
C1656 C1655 1.523 . S
H1657 C1632 0.950 . S
H1658 C1634 0.950 . S
H1659 C1635 0.949 . S
H1660 C1637 0.950 . S
H1661 C1639 0.950 . S
C1662 C1663 1.349 . S
C1662 C1664 1.327 . S
C1662 H1687 0.950 . S
C1663 C1662 1.349 . S
C1663 C1679 1.349 . S
C1664 C1662 1.327 . S
C1664 C1683 1.429 . S
C1664 H1688 0.950 . S
C1665 C1682 1.574 . S
C1665 C1684 1.368 . S
C1665 H1689 0.949 . S
H1666 C1670 0.949 . S
C1667 C1668 1.349 . S
C1667 C1669 1.327 . S
C1667 H1690 0.950 . S
C1668 C1667 1.349 . S
C1668 C1680 1.349 . S
C1669 C1667 1.327 . S
C1669 C1685 1.429 . S
C1669 H1691 0.950 . S
C1670 H1666 0.949 . S
C1670 C1678 1.574 . S
C1670 C1686 1.368 . S
H1671 C1679 0.950 . S
H1672 C1677 0.950 . S
H1673 C1678 0.949 . S
H1674 C1680 0.950 . S
H1675 C1681 0.950 . S
H1676 C1682 0.949 . S
C1677 H1672 0.950 . S
C1677 C1679 1.327 . S
C1677 C1683 1.429 . S
C1678 C1670 1.574 . S
C1678 H1673 0.949 . S
C1678 C1684 1.368 . S
C1679 C1663 1.349 . S
C1679 H1671 0.950 . S
C1679 C1677 1.327 . S
C1680 C1668 1.349 . S
C1680 H1674 0.950 . S
C1680 C1681 1.327 . S
C1681 H1675 0.950 . S
C1681 C1680 1.327 . S
C1681 C1685 1.429 . S
C1682 C1665 1.574 . S
C1682 H1676 0.949 . S
C1682 C1686 1.368 . S
C1683 C1664 1.429 . S
C1683 C1677 1.429 . S
C1683 C1684 1.523 . S
C1684 C1665 1.368 . S
C1684 C1678 1.368 . S
C1684 C1683 1.523 . S
C1685 C1669 1.429 . S
C1685 C1681 1.429 . S
C1685 C1686 1.523 . S
C1686 C1670 1.368 . S
C1686 C1682 1.368 . S
C1686 C1685 1.523 . S
H1687 C1662 0.950 . S
H1688 C1664 0.950 . S
H1689 C1665 0.949 . S
H1690 C1667 0.950 . S
H1691 C1669 0.950 . S
C1692 C1693 1.349 . S
C1692 C1694 1.327 . S
C1692 H1717 0.950 . S
C1693 C1692 1.349 . S
C1693 C1709 1.349 . S
C1694 C1692 1.327 . S
C1694 C1713 1.429 . S
C1694 H1718 0.950 . S
C1695 C1712 1.574 . S
C1695 C1714 1.368 . S
C1695 H1719 0.949 . S
H1696 C1700 0.949 . S
C1697 C1698 1.349 . S
C1697 C1699 1.327 . S
C1697 H1720 0.950 . S
C1698 C1697 1.349 . S
C1698 C1710 1.349 . S
C1699 C1697 1.327 . S
C1699 C1715 1.429 . S
C1699 H1721 0.950 . S
C1700 H1696 0.949 . S
C1700 C1708 1.574 . S
C1700 C1716 1.368 . S
H1701 C1709 0.950 . S
H1702 C1707 0.950 . S
H1703 C1708 0.949 . S
H1704 C1710 0.950 . S
H1705 C1711 0.950 . S
H1706 C1712 0.949 . S
C1707 H1702 0.950 . S
C1707 C1709 1.327 . S
C1707 C1713 1.429 . S
C1708 C1700 1.574 . S
C1708 H1703 0.949 . S
C1708 C1714 1.368 . S
C1709 C1693 1.349 . S
C1709 H1701 0.950 . S
C1709 C1707 1.327 . S
C1710 C1698 1.349 . S
C1710 H1704 0.950 . S
C1710 C1711 1.327 . S
C1711 H1705 0.950 . S
C1711 C1710 1.327 . S
C1711 C1715 1.429 . S
C1712 C1695 1.574 . S
C1712 H1706 0.949 . S
C1712 C1716 1.368 . S
C1713 C1694 1.429 . S
C1713 C1707 1.429 . S
C1713 C1714 1.523 . S
C1714 C1695 1.368 . S
C1714 C1708 1.368 . S
C1714 C1713 1.523 . S
C1715 C1699 1.429 . S
C1715 C1711 1.429 . S
C1715 C1716 1.523 . S
C1716 C1700 1.368 . S
C1716 C1712 1.368 . S
C1716 C1715 1.523 . S
H1717 C1692 0.950 . S
H1718 C1694 0.950 . S
H1719 C1695 0.949 . S
H1720 C1697 0.950 . S
H1721 C1699 0.950 . S
C1722 C1723 1.349 . S
C1722 C1724 1.327 . S
C1722 H1747 0.950 . S
C1723 C1722 1.349 . S
C1723 C1739 1.349 . S
C1724 C1722 1.327 . S
C1724 C1743 1.429 . S
C1724 H1748 0.950 . S
C1725 C1742 1.574 . S
C1725 C1744 1.368 . S
C1725 H1749 0.949 . S
H1726 C1730 0.949 . S
C1727 C1728 1.349 . S
C1727 C1729 1.327 . S
C1727 H1750 0.950 . S
C1728 C1727 1.349 . S
C1728 C1740 1.349 . S
C1729 C1727 1.327 . S
C1729 C1745 1.429 . S
C1729 H1751 0.950 . S
C1730 H1726 0.949 . S
C1730 C1738 1.574 . S
C1730 C1746 1.368 . S
H1731 C1739 0.950 . S
H1732 C1737 0.950 . S
H1733 C1738 0.949 . S
H1734 C1740 0.950 . S
H1735 C1741 0.950 . S
H1736 C1742 0.949 . S
C1737 H1732 0.950 . S
C1737 C1739 1.327 . S
C1737 C1743 1.429 . S
C1738 C1730 1.574 . S
C1738 H1733 0.949 . S
C1738 C1744 1.368 . S
C1739 C1723 1.349 . S
C1739 H1731 0.950 . S
C1739 C1737 1.327 . S
C1740 C1728 1.349 . S
C1740 H1734 0.950 . S
C1740 C1741 1.327 . S
C1741 H1735 0.950 . S
C1741 C1740 1.327 . S
C1741 C1745 1.429 . S
C1742 C1725 1.574 . S
C1742 H1736 0.949 . S
C1742 C1746 1.368 . S
C1743 C1724 1.429 . S
C1743 C1737 1.429 . S
C1743 C1744 1.523 . S
C1744 C1725 1.368 . S
C1744 C1738 1.368 . S
C1744 C1743 1.523 . S
C1745 C1729 1.429 . S
C1745 C1741 1.429 . S
C1745 C1746 1.523 . S
C1746 C1730 1.368 . S
C1746 C1742 1.368 . S
C1746 C1745 1.523 . S
H1747 C1722 0.950 . S
H1748 C1724 0.950 . S
H1749 C1725 0.949 . S
H1750 C1727 0.950 . S
H1751 C1729 0.950 . S
C313 C289 1.903 . S
C318 C3 1.903 . S
C343 C18 1.937 . S
C348 C213 1.937 . S
C373 C304 1.937 . S
C378 C29 1.903 . S
C403 C278 1.937 . S
C408 C44 1.937 . S
C433 C239 1.937 . S
C438 C55 1.903 . S
C463 C252 1.937 . S
C468 C70 1.937 . S
C493 C265 1.937 . S
C498 C81 1.903 . S
C523 C96 1.937 . S
C528 C226 1.937 . S
C553 C172 1.903 . S
C558 C107 1.903 . S
C583 C187 1.937 . S
C588 C120 1.903 . S
C613 C135 1.937 . S
C618 C198 1.903 . S
C643 C146 1.903 . S
C648 C161 1.937 . S
C673 C94 1.903 . S
C678 C185 1.903 . S
C703 C200 1.937 . S
C708 C57 1.937 . S
C733 C68 1.903 . S
C738 C159 1.903 . S
C763 C174 1.937 . S
C768 C83 1.937 . S
C793 C133 1.903 . S
C798 C16 1.903 . S
C823 C31 1.937 . S
C828 C148 1.937 . S
C853 C42 1.903 . S
C858 C109 1.937 . S
C883 C5 1.937 . S
C888 C122 1.937 . S
C913 C263 1.903 . S
C918 C276 1.903 . S
C943 C291 1.937 . S
C948 C224 1.903 . S
C973 C237 1.903 . S
C978 C211 1.903 . S
C1003 C302 1.903 . S
C1008 C250 1.903 . S
C1033 C1 0.782 . S
C1038 C114 0.786 . S
C1063 C127 0.786 . S
C1068 C23 0.786 . S
C1093 C27 0.782 . S
C1098 C131 0.782 . S
C1123 C49 0.786 . S
C1128 C153 0.786 . S
C1153 C53 0.782 . S
C1158 C157 0.782 . S
C1183 C75 0.786 . S
C1188 C179 0.786 . S
C1213 C183 0.782 . S
C1218 C79 0.782 . S
C1243 C205 0.786 . S
C1248 C101 0.786 . S
C1273 C105 0.782 . S
C1278 C209 0.782 . S
C1303 C118 0.782 . S
C1308 C300 0.782 . S
C1333 C274 0.782 . S
C1338 C140 0.786 . S
C1363 C296 0.786 . S
C1368 C144 0.782 . S
C1393 C222 0.782 . S
C1398 C166 0.786 . S
C1423 C235 0.782 . S
C1428 C170 0.782 . S
C1453 C192 0.786 . S
C1458 C248 0.782 . S
C1483 C196 0.782 . S
C1488 C261 0.782 . S
C1513 C10 0.786 . S
C1518 C218 0.786 . S
C1543 C231 0.786 . S
C1548 C62 0.786 . S
C1573 C244 0.786 . S
C1578 C66 0.782 . S
C1603 C257 0.786 . S
C1608 C88 0.786 . S
C1633 C270 0.786 . S
C1638 C92 0.782 . S
C1663 C283 0.786 . S
C1668 C36 0.786 . S
C1693 C40 0.782 . S
C1698 C287 0.782 . S
C1723 C309 0.786 . S
C1728 C14 0.782 . S
