# Generated by pormake.
# Topology sow, (4)-cn, num edge types: 1
# Building blocks:
#     Node 0, Type 0, BuildingBlock: CEKHIL_clean_sbu_0, # of connection points: 4
#     Node 1, Type 0, BuildingBlock: CEKHIL_clean_sbu_0, # of connection points: 4
#     Node 2, Type 0, BuildingBlock: CEKHIL_clean_sbu_0, # of connection points: 4
#     Node 3, Type 0, BuildingBlock: CEKHIL_clean_sbu_0, # of connection points: 4
#     Node 4, Type 0, BuildingBlock: CEKHIL_clean_sbu_0, # of connection points: 4
#     Node 5, Type 0, BuildingBlock: CEKHIL_clean_sbu_0, # of connection points: 4
#     Node 6, Type 0, BuildingBlock: CEKHIL_clean_sbu_0, # of connection points: 4
#     Node 7, Type 0, BuildingBlock: CEKHIL_clean_sbu_0, # of connection points: 4
#     Edge 8, Type (0, 0), BuildingBlock: EZIPEK_clean_linker_0, # of connection points: 2
#     Edge 9, Type (0, 0), BuildingBlock: EZIPEK_clean_linker_0, # of connection points: 2
#     Edge 10, Type (0, 0), BuildingBlock: EZIPEK_clean_linker_0, # of connection points: 2
#     Edge 11, Type (0, 0), BuildingBlock: EZIPEK_clean_linker_0, # of connection points: 2
#     Edge 12, Type (0, 0), BuildingBlock: EZIPEK_clean_linker_0, # of connection points: 2
#     Edge 13, Type (0, 0), BuildingBlock: EZIPEK_clean_linker_0, # of connection points: 2
#     Edge 14, Type (0, 0), BuildingBlock: EZIPEK_clean_linker_0, # of connection points: 2
#     Edge 15, Type (0, 0), BuildingBlock: EZIPEK_clean_linker_0, # of connection points: 2
#     Edge 16, Type (0, 0), BuildingBlock: EZIPEK_clean_linker_0, # of connection points: 2
#     Edge 17, Type (0, 0), BuildingBlock: EZIPEK_clean_linker_0, # of connection points: 2
#     Edge 18, Type (0, 0), BuildingBlock: EZIPEK_clean_linker_0, # of connection points: 2
#     Edge 19, Type (0, 0), BuildingBlock: EZIPEK_clean_linker_0, # of connection points: 2
#     Edge 20, Type (0, 0), BuildingBlock: EZIPEK_clean_linker_0, # of connection points: 2
#     Edge 21, Type (0, 0), BuildingBlock: EZIPEK_clean_linker_0, # of connection points: 2
#     Edge 22, Type (0, 0), BuildingBlock: EZIPEK_clean_linker_0, # of connection points: 2
#     Edge 23, Type (0, 0), BuildingBlock: EZIPEK_clean_linker_0, # of connection points: 2
# Relax obj value: 0.168
# Max RMSD: 0.209
# Mean RMSD: 0.209
data_MOF--net-sow--node1-CEKHIL_clean_sbu_0--edge1-EZIPEK_clean_linker_0
_symmetry_space_group_name_H-M    P1
_symmetry_Int_Tables_number       1
_symmetry_cell_setting            triclinic
loop_
_symmetry_equiv_pos_as_xyz
'x, y, z'
_cell_length_a     28.540906
_cell_length_b     15.849598
_cell_length_c     17.015288
_cell_angle_alpha  89.944901
_cell_angle_beta   89.931923
_cell_angle_gamma 90.029052
loop_
_atom_site_label
_atom_site_type_symbol
_atom_site_fract_x
_atom_site_fract_y
_atom_site_fract_z
_atom_type_partial_charge
Co0 Co 0.11334 0.2621 0.06047 0.0
O1 O 0.16385 0.23097 0.99109 0.0
O2 O 0.13551 0.36021 1.00346 0.0
C3 C 0.06466 0.1549 0.02686 0.0
O4 O 0.06108 0.31865 0.12269 0.0
Co5 Co 0.08188 0.13743 0.19371 0.0
O6 O 0.03445 0.22642 0.21341 0.0
C7 C 0.16709 0.23932 0.214 0.0
C8 C 0.16417 0.30906 0.96795 0.0
C9 C 0.03376 0.2984 0.17972 0.0
O10 O 0.15818 0.28266 0.15134 0.0
O11 O 0.14469 0.17256 0.23357 0.0
O12 O 0.06732 0.22184 0.98301 0.0
O13 O 0.09437 0.15146 0.08356 0.0
Co14 Co 0.345 0.33641 0.56539 0.0
O15 O 0.31032 0.39561 0.48497 0.0
O16 O 0.30504 0.25849 0.51026 0.0
C17 C 0.41544 0.39395 0.53596 0.0
O18 O 0.37511 0.25096 0.63881 0.0
Co19 Co 0.39598 0.43204 0.69952 0.0
O20 O 0.41916 0.31891 0.72818 0.0
C21 C 0.29629 0.38418 0.71918 0.0
C22 C 0.29284 0.32246 0.46714 0.0
C23 C 0.40306 0.25154 0.69774 0.0
O24 O 0.29446 0.35865 0.64716 0.0
O25 O 0.33322 0.41594 0.74979 0.0
O26 O 0.39966 0.33032 0.496 0.0
O27 O 0.387 0.4254 0.58726 0.0
Co28 Co 0.60648 0.23971 0.96455 0.0
O29 O 0.65794 0.27834 0.0284 0.0
O30 O 0.63229 0.14651 0.02328 0.0
C31 C 0.55643 0.34433 0.99762 0.0
O32 O 0.55419 0.17578 0.90944 0.0
Co33 Co 0.5675 0.35401 0.82903 0.0
O34 O 0.51968 0.26362 0.82279 0.0
C35 C 0.65457 0.25724 0.80493 0.0
C36 C 0.66053 0.20146 0.05448 0.0
C37 C 0.52285 0.19258 0.85775 0.0
O38 O 0.64958 0.21861 0.87139 0.0
O39 O 0.62855 0.31831 0.78227 0.0
O40 O 0.56168 0.27991 0.04397 0.0
O41 O 0.58428 0.3471 0.93815 0.0
Co42 Co 0.83823 0.16064 0.46105 0.0
O43 O 0.79869 0.10269 0.53588 0.0
O44 O 0.79947 0.24113 0.51571 0.0
C45 C 0.90506 0.09328 0.49427 0.0
O46 O 0.87426 0.24463 0.39305 0.0
Co47 Co 0.89083 0.06332 0.32836 0.0
O48 O 0.92041 0.17367 0.30847 0.0
C49 C 0.79372 0.12407 0.30184 0.0
C50 C 0.78349 0.17703 0.55511 0.0
C51 C 0.9052 0.24204 0.33825 0.0
O52 O 0.79009 0.14762 0.37424 0.0
O53 O 0.83067 0.08987 0.27354 0.0
O54 O 0.89028 0.15665 0.53569 0.0
O55 O 0.87735 0.06797 0.43925 0.0
Co56 Co 0.88111 0.77799 0.95544 0.0
O57 O 0.82998 0.80716 0.02487 0.0
O58 O 0.85903 0.67882 0.0101 0.0
C59 C 0.92915 0.88488 0.99159 0.0
O60 O 0.93377 0.72127 0.89353 0.0
Co61 Co 0.91722 0.89973 0.82443 0.0
O62 O 0.9685 0.81725 0.81512 0.0
C63 C 0.83535 0.78833 0.79347 0.0
C64 C 0.82976 0.72833 0.04603 0.0
C65 C 0.9657 0.74349 0.8444 0.0
O66 O 0.83613 0.75937 0.8645 0.0
O67 O 0.86451 0.84334 0.76802 0.0
O68 O 0.92636 0.81699 0.03415 0.0
O69 O 0.90028 0.8893 0.93356 0.0
Co70 Co 0.65579 0.64269 0.45203 0.0
O71 O 0.70172 0.59825 0.52501 0.0
O72 O 0.6874 0.73325 0.50456 0.0
C73 C 0.5946 0.55993 0.48811 0.0
O74 O 0.61247 0.71633 0.38593 0.0
Co75 Co 0.61043 0.53311 0.32091 0.0
O76 O 0.57567 0.63716 0.29535 0.0
C77 C 0.70197 0.61554 0.29152 0.0
C78 C 0.71024 0.67634 0.54375 0.0
C79 C 0.58418 0.70782 0.32788 0.0
O80 O 0.70334 0.64205 0.36322 0.0
O81 O 0.66831 0.57089 0.26441 0.0
O82 O 0.60602 0.62558 0.52935 0.0
O83 O 0.62339 0.54065 0.43217 0.0
Co84 Co 0.37521 0.73032 0.03053 0.0
O85 O 0.33084 0.7083 0.94789 0.0
O86 O 0.36488 0.83135 0.96915 0.0
C87 C 0.42103 0.61567 0.01006 0.0
O88 O 0.42295 0.77757 0.10781 0.0
Co89 Co 0.38556 0.60262 0.17002 0.0
O90 O 0.434 0.68347 0.20536 0.0
C91 C 0.30834 0.72623 0.17085 0.0
C92 C 0.33678 0.78619 0.92625 0.0
C93 C 0.44224 0.75431 0.17253 0.0
O94 O 0.32292 0.76021 0.10636 0.0
O95 O 0.32617 0.65986 0.2013 0.0
O96 O 0.42596 0.68266 0.96693 0.0
O97 O 0.38575 0.6166 0.05754 0.0
Co98 Co 0.15143 0.85126 0.5376 0.0
O99 O 0.18399 0.90341 0.45089 0.0
O100 O 0.18205 0.76598 0.47517 0.0
C101 C 0.08379 0.92347 0.52152 0.0
O102 O 0.12046 0.77295 0.61736 0.0
Co103 Co 0.11744 0.95839 0.67979 0.0
O104 O 0.09043 0.85036 0.71608 0.0
C105 C 0.21389 0.88992 0.67878 0.0
C106 C 0.1955 0.82751 0.42983 0.0
C107 C 0.09836 0.77978 0.68286 0.0
O108 O 0.20827 0.86114 0.60854 0.0
O109 O 0.18266 0.93285 0.71497 0.0
O110 O 0.09266 0.85742 0.47908 0.0
O111 O 0.11737 0.94847 0.56675 0.0
C112 C 0.2463 0.43315 0.8323 0.0
C113 C 0.25538 0.37169 0.77318 0.0
C114 C 0.19357 0.28362 0.83097 0.0
C115 C 0.19283 0.33554 0.89892 0.0
N116 N 0.22387 0.45675 0.96759 0.0
N117 N 0.24155 0.22872 0.72661 0.0
C118 C 0.22029 0.41011 0.90038 0.0
C119 C 0.22974 0.29453 0.7745 0.0
N120 N 0.26189 0.51398 0.82288 0.0
N121 N 0.15927 0.22475 0.81934 0.0
H122 H 0.27035 0.22846 0.68918 0.0
H123 H 0.22552 0.16989 0.73071 0.0
H124 H 0.13091 0.21737 0.85742 0.0
H125 H 0.15592 0.19087 0.76716 0.0
H126 H 0.25298 0.56286 0.86101 0.0
H127 H 0.27907 0.53382 0.77203 0.0
H128 H 0.24732 0.50679 0.97349 0.0
H129 H 0.20703 0.44058 0.01984 0.0
C130 C 0.24735 0.28713 0.25937 0.0
C131 C 0.19909 0.27374 0.27489 0.0
C132 C 0.21219 0.29678 0.41595 0.0
C133 C 0.26017 0.31186 0.40046 0.0
N134 N 0.32248 0.33736 0.30743 0.0
N135 N 0.13357 0.28843 0.36397 0.0
C136 C 0.27738 0.31276 0.32197 0.0
C137 C 0.18095 0.28545 0.35211 0.0
N138 N 0.26493 0.27076 0.18619 0.0
N139 N 0.1965 0.29185 0.49184 0.0
H140 H 0.10936 0.28216 0.31856 0.0
H141 H 0.11819 0.30536 0.41719 0.0
H142 H 0.21764 0.30472 0.54036 0.0
H143 H 0.16332 0.26979 0.50704 0.0
H144 H 0.30056 0.26998 0.17316 0.0
H145 H 0.24396 0.25214 0.13915 0.0
H146 H 0.33568 0.34796 0.25122 0.0
H147 H 0.34595 0.35333 0.35193 0.0
C148 C 0.74532 0.08013 0.18534 0.0
C149 C 0.75468 0.14033 0.24532 0.0
C150 C 0.69438 0.23192 0.18819 0.0
C151 C 0.69205 0.17903 0.12084 0.0
N152 N 0.72312 0.05944 0.04982 0.0
N153 N 0.74384 0.28356 0.29247 0.0
C154 C 0.71952 0.10467 0.11789 0.0
C155 C 0.73061 0.21897 0.24417 0.0
N156 N 0.76012 0.99874 0.19346 0.0
N157 N 0.66139 0.29304 0.20024 0.0
H158 H 0.77298 0.28148 0.32905 0.0
H159 H 0.7289 0.34334 0.28981 0.0
H160 H 0.63284 0.30205 0.16302 0.0
H161 H 0.65926 0.32787 0.25205 0.0
H162 H 0.75072 0.95084 0.15458 0.0
H163 H 0.77701 0.97745 0.24393 0.0
H164 H 0.74647 0.00939 0.04305 0.0
H165 H 0.70687 0.07739 0.99759 0.0
C166 C 0.73708 0.22622 0.75963 0.0
C167 C 0.68813 0.22467 0.74562 0.0
C168 C 0.70181 0.18955 0.60682 0.0
C169 C 0.75058 0.18875 0.62133 0.0
N170 N 0.81483 0.1891 0.71322 0.0
N171 N 0.62353 0.18528 0.66169 0.0
C172 C 0.76827 0.2014 0.69845 0.0
C173 C 0.67041 0.2003 0.67082 0.0
N174 N 0.75384 0.25573 0.82964 0.0
N175 N 0.68552 0.18225 0.53155 0.0
H176 H 0.59951 0.19106 0.70758 0.0
H177 H 0.60896 0.15951 0.61104 0.0
H178 H 0.70744 0.1715 0.48347 0.0
H179 H 0.65073 0.19248 0.51587 0.0
H180 H 0.78914 0.26779 0.84013 0.0
H181 H 0.73209 0.27404 0.87584 0.0
H182 H 0.82909 0.18864 0.76952 0.0
H183 H 0.83876 0.17245 0.66956 0.0
C184 C 0.77681 0.61773 0.10656 0.0
C185 C 0.79939 0.69738 0.11143 0.0
C186 C 0.75755 0.72531 0.23462 0.0
C187 C 0.7392 0.64182 0.23447 0.0
N188 N 0.74501 0.501 0.18059 0.0
N189 N 0.82294 0.81265 0.19596 0.0
C190 C 0.75312 0.58556 0.17363 0.0
C191 C 0.79346 0.74689 0.18034 0.0
N192 N 0.77571 0.57423 0.03731 0.0
N193 N 0.73909 0.7861 0.28236 0.0
H194 H 0.85151 0.82791 0.16047 0.0
H195 H 0.82247 0.84474 0.24942 0.0
H196 H 0.70911 0.7778 0.31631 0.0
H197 H 0.75015 0.84855 0.28078 0.0
H198 H 0.75602 0.51937 0.02991 0.0
H199 H 0.78969 0.59768 0.98507 0.0
H200 H 0.75787 0.45691 0.14056 0.0
H201 H 0.73063 0.47442 0.23115 0.0
C202 C 0.76444 0.78173 0.60669 0.0
C203 C 0.74281 0.70106 0.60871 0.0
C204 C 0.78507 0.67215 0.73159 0.0
C205 C 0.79966 0.75798 0.73562 0.0
N206 N 0.78653 0.89994 0.68696 0.0
N207 N 0.7225 0.58016 0.69025 0.0
C208 C 0.784 0.81464 0.67642 0.0
C209 C 0.75004 0.64899 0.67609 0.0
N210 N 0.76864 0.82589 0.53807 0.0
N211 N 0.80561 0.61154 0.77702 0.0
H212 H 0.69332 0.56477 0.6566 0.0
H213 H 0.72501 0.54504 0.74195 0.0
H214 H 0.83382 0.62311 0.81416 0.0
H215 H 0.7981 0.54753 0.77031 0.0
H216 H 0.78691 0.88283 0.53463 0.0
H217 H 0.76005 0.80041 0.48348 0.0
H218 H 0.7728 0.94265 0.64635 0.0
H219 H 0.79647 0.92715 0.74022 0.0
C220 C 0.29686 0.90332 0.84787 0.0
C221 C 0.31395 0.81921 0.85347 0.0
C222 C 0.27259 0.78304 0.73184 0.0
C223 C 0.25644 0.86771 0.72533 0.0
N224 N 0.27024 0.01287 0.75933 0.0
N225 N 0.33459 0.69358 0.78061 0.0
C226 C 0.27465 0.92939 0.77729 0.0
C227 C 0.30724 0.76371 0.78886 0.0
N228 N 0.29832 0.95687 0.91068 0.0
N229 N 0.25327 0.71944 0.68847 0.0
H230 H 0.36255 0.6803 0.81805 0.0
H231 H 0.33339 0.65529 0.73084 0.0
H232 H 0.22644 0.72752 0.64799 0.0
H233 H 0.26138 0.65619 0.69794 0.0
H234 H 0.28236 0.01603 0.91006 0.0
H235 H 0.31054 0.93967 0.96595 0.0
H236 H 0.28602 0.06051 0.79226 0.0
H237 H 0.25564 0.03273 0.70621 0.0
C238 C 0.22978 0.72639 0.2355 0.0
C239 C 0.27234 0.76893 0.21914 0.0
C240 C 0.2632 0.85423 0.33805 0.0
C241 C 0.22064 0.81144 0.35494 0.0
N242 N 0.1566 0.72558 0.30787 0.0
N243 N 0.32188 0.88997 0.24055 0.0
C244 C 0.20176 0.75317 0.29994 0.0
C245 C 0.28618 0.83902 0.2653 0.0
N246 N 0.21691 0.65892 0.19048 0.0
N247 N 0.28366 0.90444 0.39361 0.0
H248 H 0.33996 0.88007 0.18814 0.0
H249 H 0.33052 0.94655 0.26807 0.0
H250 H 0.26921 0.91474 0.44905 0.0
H251 H 0.31725 0.9294 0.38775 0.0
H252 H 0.18956 0.6183 0.20516 0.0
H253 H 0.23519 0.64166 0.1398 0.0
H254 H 0.1396 0.68904 0.26582 0.0
H255 H 0.13445 0.74616 0.35271 0.0
C256 C 0.00157 0.37768 0.2901 0.0
C257 C -0.00121 0.35912 0.20919 0.0
C258 C 0.91591 0.33021 0.221 0.0
C259 C 0.92311 0.32046 0.30276 0.0
N260 N 0.96224 0.37154 0.41748 0.0
N261 N 0.95053 0.37096 0.09549 0.0
C262 C 0.96227 0.35881 0.33835 0.0
C263 C 0.95444 0.35523 0.17379 0.0
N264 N 0.043 0.40591 0.31968 0.0
N265 N 0.87404 0.30706 0.18916 0.0
H266 H 0.97986 0.38849 0.06242 0.0
H267 H 0.91869 0.37226 0.06569 0.0
H268 H 0.84588 0.2892 0.22481 0.0
H269 H 0.86771 0.30447 0.12896 0.0
H270 H 0.04912 0.41726 0.37899 0.0
H271 H 0.07118 0.41895 0.28227 0.0
H272 H 0.98995 0.39832 0.44834 0.0
H273 H 0.93252 0.35825 0.45119 0.0
C274 C 0.40761 0.16391 0.81637 0.0
C275 C 0.41729 0.17184 0.73514 0.0
C276 C 0.49265 0.10422 0.75404 0.0
C277 C 0.48909 0.12734 0.83371 0.0
N278 N 0.43846 0.12445 0.94495 0.0
N279 N 0.45837 0.11738 0.62327 0.0
C280 C 0.44421 0.13628 0.86638 0.0
C281 C 0.45587 0.12843 0.70253 0.0
N282 N 0.36562 0.19114 0.84489 0.0
N283 N 0.53312 0.06808 0.72845 0.0
H284 H 0.43064 0.13492 0.58677 0.0
H285 H 0.4866 0.08955 0.59454 0.0
H286 H 0.55997 0.05394 0.76808 0.0
H287 H 0.53942 0.05052 0.6705 0.0
H288 H 0.35756 0.19431 0.9045 0.0
H289 H 0.33906 0.2112 0.80701 0.0
H290 H 0.40616 0.12764 0.97329 0.0
H291 H 0.46677 0.10628 0.98004 0.0
C292 C 0.08355 0.69721 0.80293 0.0
C293 C 0.07745 0.70476 0.72076 0.0
C294 C -0.004 0.66342 0.73278 0.0
C295 C -0.00058 0.68133 0.81388 0.0
N296 N 0.04641 0.66685 0.92896 0.0
N297 N 0.03746 0.64952 0.60821 0.0
C298 C 0.04367 0.67987 0.85006 0.0
C299 C 0.03696 0.67029 0.68584 0.0
N300 N 0.1262 0.71503 0.83483 0.0
N301 N 0.95289 0.64973 0.7008 0.0
H302 H 0.06799 0.65487 0.57472 0.0
H303 H 0.00931 0.62134 0.57952 0.0
H304 H 0.92309 0.64505 0.73631 0.0
H305 H 0.94679 0.64496 0.64065 0.0
H306 H 0.13235 0.71877 0.89503 0.0
H307 H 0.15526 0.72725 0.7991 0.0
H308 H 0.07789 0.66236 0.95953 0.0
H309 H 0.01624 0.65443 0.96191 0.0
C310 C 0.47702 0.81577 0.29277 0.0
C311 C 0.47855 0.80733 0.20995 0.0
C312 C 0.56313 0.79537 0.21338 0.0
C313 C 0.55956 0.78177 0.29528 0.0
N314 N 0.52233 0.82957 0.41311 0.0
N315 N 0.5232 0.8406 0.09432 0.0
C316 C 0.51953 0.81044 0.33534 0.0
C317 C 0.52194 0.81607 0.171 0.0
N318 N 0.43482 0.8211 0.32994 0.0
N319 N 0.60481 0.78117 0.17653 0.0
H320 H 0.4927 0.85722 0.06427 0.0
H321 H 0.55424 0.85145 0.06366 0.0
H322 H 0.63509 0.76722 0.20849 0.0
H323 H 0.60883 0.78125 0.11568 0.0
H324 H 0.43097 0.81826 0.39078 0.0
H325 H 0.40365 0.82584 0.2982 0.0
H326 H 0.49451 0.85477 0.44507 0.0
H327 H 0.55428 0.82671 0.44287 0.0
C328 C 0.98089 0.10394 0.02135 0.0
C329 C 0.02961 0.0867 0.01485 0.0
C330 C 0.01295 0.9354 0.99968 0.0
C331 C 0.96421 0.9527 0.00538 0.0
N332 N 0.90184 0.04925 0.03684 0.0
N333 N 0.09187 0.98999 0.98308 0.0
C334 C 0.94816 0.03606 0.01969 0.0
C335 C 0.04563 0.0033 1.00075 0.0
N336 N 0.96587 0.18546 0.02769 0.0
N337 N 0.02813 0.85386 0.99473 0.0
H338 H 0.11662 0.03839 0.98109 0.0
H339 H 0.1053 0.93282 0.96329 0.0
H340 H 0.00545 0.80275 0.99121 0.0
H341 H 0.06301 0.83575 0.99997 0.0
H342 H 0.931 0.20392 0.02332 0.0
H343 H 0.98871 0.23628 0.0321 0.0
H344 H 0.88819 0.10638 0.0563 0.0
H345 H 0.87713 0.00076 0.03849 0.0
C346 C 0.54775 0.42854 0.51757 0.0
C347 C 0.54883 0.51602 0.49888 0.0
C348 C 0.46277 0.51798 0.49292 0.0
C349 C 0.46157 0.4334 0.51944 0.0
N350 N 0.50212 0.30937 0.56472 0.0
N351 N 0.5067 0.64699 0.48009 0.0
C352 C 0.50387 0.38862 0.53319 0.0
C353 C 0.50616 0.56158 0.49011 0.0
N354 N 0.58864 0.38378 0.52142 0.0
N355 N 0.42257 0.55567 0.4667 0.0
H356 H 0.53732 0.68159 0.474 0.0
H357 H 0.47683 0.6845 0.48395 0.0
H358 H 0.39013 0.52532 0.46628 0.0
H359 H 0.42205 0.61366 0.43784 0.0
H360 H 0.59001 0.3183 0.52539 0.0
H361 H 0.62162 0.41161 0.51661 0.0
H362 H 0.53129 0.27682 0.58534 0.0
H363 H 0.47069 0.27805 0.5753 0.0
C364 C 0.50387 0.56258 0.02469 0.0
C365 C 0.45573 0.54569 0.00977 0.0
C366 C 0.47274 0.39391 0.00426 0.0
C367 C 0.52132 0.41179 0.01073 0.0
N368 N 0.58411 0.51244 0.025 0.0
N369 N 0.39531 0.44692 0.97278 0.0
C370 C 0.5371 0.496 0.02032 0.0
C371 C 0.44031 0.46165 0.99687 0.0
N372 N 0.51767 0.64166 0.0464 0.0
N373 N 0.45749 0.31225 0.00511 0.0
H374 H 0.37078 0.49487 0.96464 0.0
H375 H 0.3834 0.38837 0.95357 0.0
H376 H 0.48018 0.26106 0.00878 0.0
H377 H 0.42231 0.29536 0.00918 0.0
H378 H 0.55076 0.65587 0.06832 0.0
H379 H 0.49492 0.69262 0.04796 0.0
H380 H 0.59844 0.57267 0.02042 0.0
H381 H 0.60936 0.46523 0.0303 0.0
C382 C 0.03661 0.05356 0.49391 0.0
C383 C 0.03806 0.9678 0.51778 0.0
C384 C 0.95217 0.96535 0.5286 0.0
C385 C 0.95097 0.05213 0.50803 0.0
N386 N 0.99199 0.18295 0.48419 0.0
N387 N -0.00147 0.84481 0.56853 0.0
C388 C 0.99322 0.09761 0.49522 0.0
C389 C -0.00386 0.92432 0.53778 0.0
N390 N 0.07623 0.09154 0.46542 0.0
N391 N 0.91113 0.92205 0.5394 0.0
H392 H 0.02987 0.81212 0.5739 0.0
H393 H 0.97026 0.81326 0.59371 0.0
H394 H 0.8784 0.95123 0.54082 0.0
H395 H 0.90908 0.85666 0.54393 0.0
H396 H 0.07639 0.15042 0.43828 0.0
H397 H 0.10859 0.06123 0.46214 0.0
H398 H 0.02172 0.22105 0.48346 0.0
H399 H 0.96095 0.21709 0.48194 0.0
loop_
_geom_bond_atom_site_label_1
_geom_bond_atom_site_label_2
_geom_bond_distance
_geom_bond_site_symmetry_2
_ccdc_geom_bond_type
Co0 O1 2.216 1_554 S
Co0 O2 2.091 1_554 S
Co0 O4 2.004 . S
Co0 O10 2.021 . S
Co0 O12 2.137 1_554 S
Co0 O13 2.244 . S
O1 Co0 2.216 1_556 S
O1 C8 1.247 . S
O2 Co0 2.091 1_556 S
O2 C8 1.261 . S
C3 O12 1.247 1_554 S
C3 O13 1.272 . S
O4 Co0 2.004 . S
O4 C9 1.259 . S
Co5 O6 2.061 . S
Co5 O11 2.052 . S
Co5 O13 2.135 . S
O6 Co5 2.061 . S
O6 C9 1.235 . S
C7 O10 1.238 . S
C7 O11 1.241 . S
C8 O1 1.247 . S
C8 O2 1.261 . S
C9 O4 1.259 . S
C9 O6 1.235 . S
O10 Co0 2.021 . S
O10 C7 1.238 . S
O11 Co5 2.052 . S
O11 C7 1.241 . S
O12 Co0 2.137 1_556 S
O12 C3 1.247 1_556 S
O13 Co0 2.244 . S
O13 C3 1.272 . S
O13 Co5 2.135 . S
Co14 O15 2.216 . S
Co14 O16 2.091 . S
Co14 O18 2.004 . S
Co14 O24 2.021 . S
Co14 O26 2.137 . S
Co14 O27 2.244 . S
O15 Co14 2.216 . S
O15 C22 1.247 . S
O16 Co14 2.091 . S
O16 C22 1.261 . S
C17 O26 1.247 . S
C17 O27 1.272 . S
O18 Co14 2.004 . S
O18 C23 1.259 . S
Co19 O20 2.061 . S
Co19 O25 2.052 . S
Co19 O27 2.135 . S
O20 Co19 2.061 . S
O20 C23 1.235 . S
C21 O24 1.238 . S
C21 O25 1.241 . S
C22 O15 1.247 . S
C22 O16 1.261 . S
C23 O18 1.259 . S
C23 O20 1.235 . S
O24 Co14 2.021 . S
O24 C21 1.238 . S
O25 Co19 2.052 . S
O25 C21 1.241 . S
O26 Co14 2.137 . S
O26 C17 1.247 . S
O27 Co14 2.244 . S
O27 C17 1.272 . S
O27 Co19 2.135 . S
Co28 O29 2.216 1_556 S
Co28 O30 2.091 1_556 S
Co28 O32 2.004 . S
Co28 O38 2.021 . S
Co28 O40 2.137 1_556 S
Co28 O41 2.244 . S
O29 Co28 2.216 1_554 S
O29 C36 1.247 . S
O30 Co28 2.091 1_554 S
O30 C36 1.261 . S
C31 O40 1.247 1_556 S
C31 O41 1.272 . S
O32 Co28 2.004 . S
O32 C37 1.259 . S
Co33 O34 2.061 . S
Co33 O39 2.052 . S
Co33 O41 2.135 . S
O34 Co33 2.061 . S
O34 C37 1.235 . S
C35 O38 1.238 . S
C35 O39 1.241 . S
C36 O29 1.247 . S
C36 O30 1.261 . S
C37 O32 1.259 . S
C37 O34 1.235 . S
O38 Co28 2.021 . S
O38 C35 1.238 . S
O39 Co33 2.052 . S
O39 C35 1.241 . S
O40 Co28 2.137 1_554 S
O40 C31 1.247 1_554 S
O41 Co28 2.244 . S
O41 C31 1.272 . S
O41 Co33 2.135 . S
Co42 O43 2.216 . S
Co42 O44 2.091 . S
Co42 O46 2.004 . S
Co42 O52 2.021 . S
Co42 O54 2.137 . S
Co42 O55 2.244 . S
O43 Co42 2.216 . S
O43 C50 1.247 . S
O44 Co42 2.091 . S
O44 C50 1.261 . S
C45 O54 1.247 . S
C45 O55 1.272 . S
O46 Co42 2.004 . S
O46 C51 1.259 . S
Co47 O48 2.061 . S
Co47 O53 2.052 . S
Co47 O55 2.135 . S
O48 Co47 2.061 . S
O48 C51 1.235 . S
C49 O52 1.238 . S
C49 O53 1.241 . S
C50 O43 1.247 . S
C50 O44 1.261 . S
C51 O46 1.259 . S
C51 O48 1.235 . S
O52 Co42 2.021 . S
O52 C49 1.238 . S
O53 Co47 2.052 . S
O53 C49 1.241 . S
O54 Co42 2.137 . S
O54 C45 1.247 . S
O55 Co42 2.244 . S
O55 C45 1.272 . S
O55 Co47 2.135 . S
Co56 O57 2.216 1_556 S
Co56 O58 2.091 1_556 S
Co56 O60 2.004 . S
Co56 O66 2.021 . S
Co56 O68 2.137 1_556 S
Co56 O69 2.244 . S
O57 Co56 2.216 1_554 S
O57 C64 1.247 . S
O58 Co56 2.091 1_554 S
O58 C64 1.261 . S
C59 O68 1.247 1_556 S
C59 O69 1.272 . S
O60 Co56 2.004 . S
O60 C65 1.259 . S
Co61 O62 2.061 . S
Co61 O67 2.052 . S
Co61 O69 2.135 . S
O62 Co61 2.061 . S
O62 C65 1.235 . S
C63 O66 1.238 . S
C63 O67 1.241 . S
C64 O57 1.247 . S
C64 O58 1.261 . S
C65 O60 1.259 . S
C65 O62 1.235 . S
O66 Co56 2.021 . S
O66 C63 1.238 . S
O67 Co61 2.052 . S
O67 C63 1.241 . S
O68 Co56 2.137 1_554 S
O68 C59 1.247 1_554 S
O69 Co56 2.244 . S
O69 C59 1.272 . S
O69 Co61 2.135 . S
Co70 O71 2.216 . S
Co70 O72 2.091 . S
Co70 O74 2.004 . S
Co70 O80 2.021 . S
Co70 O82 2.137 . S
Co70 O83 2.244 . S
O71 Co70 2.216 . S
O71 C78 1.247 . S
O72 Co70 2.091 . S
O72 C78 1.261 . S
C73 O82 1.247 . S
C73 O83 1.272 . S
O74 Co70 2.004 . S
O74 C79 1.259 . S
Co75 O76 2.061 . S
Co75 O81 2.052 . S
Co75 O83 2.135 . S
O76 Co75 2.061 . S
O76 C79 1.235 . S
C77 O80 1.238 . S
C77 O81 1.241 . S
C78 O71 1.247 . S
C78 O72 1.261 . S
C79 O74 1.259 . S
C79 O76 1.235 . S
O80 Co70 2.021 . S
O80 C77 1.238 . S
O81 Co75 2.052 . S
O81 C77 1.241 . S
O82 Co70 2.137 . S
O82 C73 1.247 . S
O83 Co70 2.244 . S
O83 C73 1.272 . S
O83 Co75 2.135 . S
Co84 O85 2.216 1_554 S
Co84 O86 2.091 1_554 S
Co84 O88 2.004 . S
Co84 O94 2.021 . S
Co84 O96 2.137 1_554 S
Co84 O97 2.244 . S
O85 Co84 2.216 1_556 S
O85 C92 1.247 . S
O86 Co84 2.091 1_556 S
O86 C92 1.261 . S
C87 O96 1.247 1_554 S
C87 O97 1.272 . S
O88 Co84 2.004 . S
O88 C93 1.259 . S
Co89 O90 2.061 . S
Co89 O95 2.052 . S
Co89 O97 2.135 . S
O90 Co89 2.061 . S
O90 C93 1.235 . S
C91 O94 1.238 . S
C91 O95 1.241 . S
C92 O85 1.247 . S
C92 O86 1.261 . S
C93 O88 1.259 . S
C93 O90 1.235 . S
O94 Co84 2.021 . S
O94 C91 1.238 . S
O95 Co89 2.052 . S
O95 C91 1.241 . S
O96 Co84 2.137 1_556 S
O96 C87 1.247 1_556 S
O97 Co84 2.244 . S
O97 C87 1.272 . S
O97 Co89 2.135 . S
Co98 O99 2.216 . S
Co98 O100 2.091 . S
Co98 O102 2.004 . S
Co98 O108 2.021 . S
Co98 O110 2.137 . S
Co98 O111 2.244 . S
O99 Co98 2.216 . S
O99 C106 1.247 . S
O100 Co98 2.091 . S
O100 C106 1.261 . S
C101 O110 1.247 . S
C101 O111 1.272 . S
O102 Co98 2.004 . S
O102 C107 1.259 . S
Co103 O104 2.061 . S
Co103 O109 2.052 . S
Co103 O111 2.135 . S
O104 Co103 2.061 . S
O104 C107 1.235 . S
C105 O108 1.238 . S
C105 O109 1.241 . S
C106 O99 1.247 . S
C106 O100 1.261 . S
C107 O102 1.259 . S
C107 O104 1.235 . S
O108 Co98 2.021 . S
O108 C105 1.238 . S
O109 Co103 2.052 . S
O109 C105 1.241 . S
O110 Co98 2.137 . S
O110 C101 1.247 . S
O111 Co98 2.244 . S
O111 C101 1.272 . S
O111 Co103 2.135 . S
C112 C113 1.363 . S
C112 C118 1.379 . S
C112 N120 1.356 . S
C113 C112 1.363 . S
C113 C119 1.363 . S
C114 C115 1.363 . S
C114 C119 1.379 . S
C114 N121 1.356 . S
C115 C114 1.363 . S
C115 C118 1.363 . S
N116 C118 1.356 . S
N116 H128 0.984 . S
N116 H129 0.985 . S
N117 C119 1.356 . S
N117 H122 0.984 . S
N117 H123 0.985 . S
C118 C112 1.379 . S
C118 C115 1.363 . S
C118 N116 1.356 . S
C119 C113 1.363 . S
C119 C114 1.379 . S
C119 N117 1.356 . S
N120 C112 1.356 . S
N120 H126 0.984 . S
N120 H127 0.984 . S
N121 C114 1.356 . S
N121 H124 0.984 . S
N121 H125 0.985 . S
H122 N117 0.984 . S
H123 N117 0.985 . S
H124 N121 0.984 . S
H125 N121 0.985 . S
H126 N120 0.984 . S
H127 N120 0.984 . S
H128 N116 0.984 . S
H129 N116 0.985 . S
C130 C131 1.363 . S
C130 C136 1.379 . S
C130 N138 1.356 . S
C131 C130 1.363 . S
C131 C137 1.363 . S
C132 C133 1.363 . S
C132 C137 1.379 . S
C132 N139 1.356 . S
C133 C132 1.363 . S
C133 C136 1.363 . S
N134 C136 1.356 . S
N134 H146 0.984 . S
N134 H147 0.985 . S
N135 C137 1.356 . S
N135 H140 0.984 . S
N135 H141 0.985 . S
C136 C130 1.379 . S
C136 C133 1.363 . S
C136 N134 1.356 . S
C137 C131 1.363 . S
C137 C132 1.379 . S
C137 N135 1.356 . S
N138 C130 1.356 . S
N138 H144 0.984 . S
N138 H145 0.984 . S
N139 C132 1.356 . S
N139 H142 0.984 . S
N139 H143 0.985 . S
H140 N135 0.984 . S
H141 N135 0.985 . S
H142 N139 0.984 . S
H143 N139 0.985 . S
H144 N138 0.984 . S
H145 N138 0.984 . S
H146 N134 0.984 . S
H147 N134 0.985 . S
C148 C149 1.363 . S
C148 C154 1.379 . S
C148 N156 1.356 . S
C149 C148 1.363 . S
C149 C155 1.363 . S
C150 C151 1.363 . S
C150 C155 1.379 . S
C150 N157 1.356 . S
C151 C150 1.363 . S
C151 C154 1.363 . S
N152 C154 1.356 . S
N152 H164 0.984 . S
N152 H165 0.985 . S
N153 C155 1.356 . S
N153 H158 0.984 . S
N153 H159 0.985 . S
C154 C148 1.379 . S
C154 C151 1.363 . S
C154 N152 1.356 . S
C155 C149 1.363 . S
C155 C150 1.379 . S
C155 N153 1.356 . S
N156 C148 1.356 . S
N156 H162 0.984 . S
N156 H163 0.984 . S
N157 C150 1.356 . S
N157 H160 0.984 . S
N157 H161 0.985 . S
H158 N153 0.984 . S
H159 N153 0.985 . S
H160 N157 0.984 . S
H161 N157 0.985 . S
H162 N156 0.984 . S
H163 N156 0.984 . S
H164 N152 0.984 . S
H165 N152 0.985 . S
C166 C167 1.363 . S
C166 C172 1.379 . S
C166 N174 1.356 . S
C167 C166 1.363 . S
C167 C173 1.363 . S
C168 C169 1.363 . S
C168 C173 1.379 . S
C168 N175 1.356 . S
C169 C168 1.363 . S
C169 C172 1.363 . S
N170 C172 1.356 . S
N170 H182 0.984 . S
N170 H183 0.985 . S
N171 C173 1.356 . S
N171 H176 0.984 . S
N171 H177 0.985 . S
C172 C166 1.379 . S
C172 C169 1.363 . S
C172 N170 1.356 . S
C173 C167 1.363 . S
C173 C168 1.379 . S
C173 N171 1.356 . S
N174 C166 1.356 . S
N174 H180 0.984 . S
N174 H181 0.984 . S
N175 C168 1.356 . S
N175 H178 0.984 . S
N175 H179 0.985 . S
H176 N171 0.984 . S
H177 N171 0.985 . S
H178 N175 0.984 . S
H179 N175 0.985 . S
H180 N174 0.984 . S
H181 N174 0.984 . S
H182 N170 0.984 . S
H183 N170 0.985 . S
C184 C185 1.363 . S
C184 C190 1.379 . S
C184 N192 1.356 . S
C185 C184 1.363 . S
C185 C191 1.363 . S
C186 C187 1.363 . S
C186 C191 1.379 . S
C186 N193 1.356 . S
C187 C186 1.363 . S
C187 C190 1.363 . S
N188 C190 1.356 . S
N188 H200 0.984 . S
N188 H201 0.985 . S
N189 C191 1.356 . S
N189 H194 0.984 . S
N189 H195 0.985 . S
C190 C184 1.379 . S
C190 C187 1.363 . S
C190 N188 1.356 . S
C191 C185 1.363 . S
C191 C186 1.379 . S
C191 N189 1.356 . S
N192 C184 1.356 . S
N192 H198 0.984 . S
N192 H199 0.984 . S
N193 C186 1.356 . S
N193 H196 0.984 . S
N193 H197 0.985 . S
H194 N189 0.984 . S
H195 N189 0.985 . S
H196 N193 0.984 . S
H197 N193 0.985 . S
H198 N192 0.984 . S
H199 N192 0.984 . S
H200 N188 0.984 . S
H201 N188 0.985 . S
C202 C203 1.363 . S
C202 C208 1.379 . S
C202 N210 1.356 . S
C203 C202 1.363 . S
C203 C209 1.363 . S
C204 C205 1.363 . S
C204 C209 1.379 . S
C204 N211 1.356 . S
C205 C204 1.363 . S
C205 C208 1.363 . S
N206 C208 1.356 . S
N206 H218 0.984 . S
N206 H219 0.985 . S
N207 C209 1.356 . S
N207 H212 0.984 . S
N207 H213 0.985 . S
C208 C202 1.379 . S
C208 C205 1.363 . S
C208 N206 1.356 . S
C209 C203 1.363 . S
C209 C204 1.379 . S
C209 N207 1.356 . S
N210 C202 1.356 . S
N210 H216 0.984 . S
N210 H217 0.984 . S
N211 C204 1.356 . S
N211 H214 0.984 . S
N211 H215 0.985 . S
H212 N207 0.984 . S
H213 N207 0.985 . S
H214 N211 0.984 . S
H215 N211 0.985 . S
H216 N210 0.984 . S
H217 N210 0.984 . S
H218 N206 0.984 . S
H219 N206 0.985 . S
C220 C221 1.363 . S
C220 C226 1.379 . S
C220 N228 1.356 . S
C221 C220 1.363 . S
C221 C227 1.363 . S
C222 C223 1.363 . S
C222 C227 1.379 . S
C222 N229 1.356 . S
C223 C222 1.363 . S
C223 C226 1.363 . S
N224 C226 1.356 . S
N224 H236 0.984 . S
N224 H237 0.985 . S
N225 C227 1.356 . S
N225 H230 0.984 . S
N225 H231 0.985 . S
C226 C220 1.379 . S
C226 C223 1.363 . S
C226 N224 1.356 . S
C227 C221 1.363 . S
C227 C222 1.379 . S
C227 N225 1.356 . S
N228 C220 1.356 . S
N228 H234 0.984 . S
N228 H235 0.984 . S
N229 C222 1.356 . S
N229 H232 0.984 . S
N229 H233 0.985 . S
H230 N225 0.984 . S
H231 N225 0.985 . S
H232 N229 0.984 . S
H233 N229 0.985 . S
H234 N228 0.984 . S
H235 N228 0.984 . S
H236 N224 0.984 . S
H237 N224 0.985 . S
C238 C239 1.363 . S
C238 C244 1.379 . S
C238 N246 1.356 . S
C239 C238 1.363 . S
C239 C245 1.363 . S
C240 C241 1.363 . S
C240 C245 1.379 . S
C240 N247 1.356 . S
C241 C240 1.363 . S
C241 C244 1.363 . S
N242 C244 1.356 . S
N242 H254 0.984 . S
N242 H255 0.985 . S
N243 C245 1.356 . S
N243 H248 0.984 . S
N243 H249 0.985 . S
C244 C238 1.379 . S
C244 C241 1.363 . S
C244 N242 1.356 . S
C245 C239 1.363 . S
C245 C240 1.379 . S
C245 N243 1.356 . S
N246 C238 1.356 . S
N246 H252 0.984 . S
N246 H253 0.984 . S
N247 C240 1.356 . S
N247 H250 0.984 . S
N247 H251 0.985 . S
H248 N243 0.984 . S
H249 N243 0.985 . S
H250 N247 0.984 . S
H251 N247 0.985 . S
H252 N246 0.984 . S
H253 N246 0.984 . S
H254 N242 0.984 . S
H255 N242 0.985 . S
C256 C257 1.363 . S
C256 C262 1.379 . S
C256 N264 1.356 . S
C257 C256 1.363 . S
C257 C263 1.363 1_455 S
C258 C259 1.363 . S
C258 C263 1.379 . S
C258 N265 1.356 . S
C259 C258 1.363 . S
C259 C262 1.363 1_655 S
N260 C262 1.356 1_655 S
N260 H272 0.985 1_655 S
N260 H273 0.984 . S
N261 C263 1.356 1_455 S
N261 H266 0.983 . S
N261 H267 0.986 1_455 S
C262 C256 1.379 . S
C262 C259 1.363 1_455 S
C262 N260 1.356 1_455 S
C263 C257 1.363 1_655 S
C263 C258 1.379 . S
C263 N261 1.356 1_655 S
N264 C256 1.356 . S
N264 H270 0.984 . S
N264 H271 0.984 . S
N265 C258 1.356 . S
N265 H268 0.984 . S
N265 H269 0.985 . S
H266 N261 0.983 . S
H267 N261 0.986 1_655 S
H268 N265 0.984 . S
H269 N265 0.985 . S
H270 N264 0.984 . S
H271 N264 0.984 . S
H272 N260 0.985 1_455 S
H273 N260 0.984 . S
C274 C275 1.363 . S
C274 C280 1.379 . S
C274 N282 1.356 . S
C275 C274 1.363 . S
C275 C281 1.363 . S
C276 C277 1.363 . S
C276 C281 1.379 . S
C276 N283 1.356 . S
C277 C276 1.363 . S
C277 C280 1.363 . S
N278 C280 1.356 . S
N278 H290 0.984 1_545 S
N278 H291 0.985 . S
N279 C281 1.356 . S
N279 H284 0.984 . S
N279 H285 0.985 . S
C280 C274 1.379 . S
C280 C277 1.363 . S
C280 N278 1.356 . S
C281 C275 1.363 . S
C281 C276 1.379 . S
C281 N279 1.356 . S
N282 C274 1.356 . S
N282 H288 0.984 1_545 S
N282 H289 0.984 . S
N283 C276 1.356 . S
N283 H286 0.984 . S
N283 H287 0.985 . S
H284 N279 0.984 . S
H285 N279 0.985 . S
H286 N283 0.984 . S
H287 N283 0.985 . S
H288 N282 0.984 1_565 S
H289 N282 0.984 . S
H290 N278 0.984 1_565 S
H291 N278 0.985 . S
C292 C293 1.363 . S
C292 C298 1.379 . S
C292 N300 1.356 . S
C293 C292 1.363 . S
C293 C299 1.363 1_455 S
C294 C295 1.363 . S
C294 C299 1.379 . S
C294 N301 1.356 . S
C295 C294 1.363 . S
C295 C298 1.363 1_655 S
N296 C298 1.356 1_655 S
N296 H308 0.984 1_655 S
N296 H309 0.985 . S
N297 C299 1.356 1_455 S
N297 H302 0.985 . S
N297 H303 0.984 1_455 S
C298 C292 1.379 . S
C298 C295 1.363 1_455 S
C298 N296 1.356 1_455 S
C299 C293 1.363 1_655 S
C299 C294 1.379 . S
C299 N297 1.356 1_655 S
N300 C292 1.356 . S
N300 H306 0.984 . S
N300 H307 0.984 . S
N301 C294 1.356 . S
N301 H304 0.984 . S
N301 H305 0.985 . S
H302 N297 0.985 . S
H303 N297 0.984 1_655 S
H304 N301 0.984 . S
H305 N301 0.985 . S
H306 N300 0.984 . S
H307 N300 0.984 . S
H308 N296 0.984 1_455 S
H309 N296 0.985 . S
C310 C311 1.363 . S
C310 C316 1.379 . S
C310 N318 1.356 . S
C311 C310 1.363 . S
C311 C317 1.363 . S
C312 C313 1.363 . S
C312 C317 1.379 . S
C312 N319 1.356 . S
C313 C312 1.363 . S
C313 C316 1.363 . S
N314 C316 1.356 . S
N314 H326 0.984 . S
N314 H327 0.985 . S
N315 C317 1.356 . S
N315 H320 0.984 . S
N315 H321 0.985 1_565 S
C316 C310 1.379 . S
C316 C313 1.363 . S
C316 N314 1.356 . S
C317 C311 1.363 . S
C317 C312 1.379 . S
C317 N315 1.356 . S
N318 C310 1.356 . S
N318 H324 0.984 . S
N318 H325 0.984 . S
N319 C312 1.356 . S
N319 H322 0.984 . S
N319 H323 0.985 1_565 S
H320 N315 0.984 . S
H321 N315 0.985 1_545 S
H322 N319 0.984 . S
H323 N319 0.985 1_545 S
H324 N318 0.984 . S
H325 N318 0.984 . S
H326 N314 0.984 . S
H327 N314 0.985 . S
C328 C329 1.363 1_556 S
C328 C334 1.379 1_455 S
C328 N336 1.356 . S
C329 C328 1.363 1_554 S
C329 C335 1.363 1_545 S
C330 C331 1.363 1_554 S
C330 C335 1.379 1_655 S
C330 N337 1.356 . S
C331 C330 1.363 1_556 S
C331 C334 1.363 1_565 S
N332 C334 1.356 . S
N332 H344 0.984 . S
N332 H345 0.985 1_545 S
N333 C335 1.356 . S
N333 H338 0.984 1_565 S
N333 H339 0.985 . S
C334 C328 1.379 1_655 S
C334 C331 1.363 1_545 S
C334 N332 1.356 . S
C335 C329 1.363 1_565 S
C335 C330 1.379 1_455 S
C335 N333 1.356 . S
N336 C328 1.356 . S
N336 H342 0.984 1_455 S
N336 H343 0.984 . S
N337 C330 1.356 . S
N337 H340 0.984 . S
N337 H341 0.985 1_655 S
H338 N333 0.984 1_545 S
H339 N333 0.985 . S
H340 N337 0.984 . S
H341 N337 0.985 1_455 S
H342 N336 0.984 1_655 S
H343 N336 0.984 . S
H344 N332 0.984 . S
H345 N332 0.985 1_565 S
C346 C347 1.363 . S
C346 C352 1.379 . S
C346 N354 1.356 . S
C347 C346 1.363 . S
C347 C353 1.363 . S
C348 C349 1.363 . S
C348 C353 1.379 . S
C348 N355 1.356 . S
C349 C348 1.363 . S
C349 C352 1.363 . S
N350 C352 1.356 . S
N350 H362 0.984 . S
N350 H363 0.985 . S
N351 C353 1.356 . S
N351 H356 0.984 . S
N351 H357 0.985 . S
C352 C346 1.379 . S
C352 C349 1.363 . S
C352 N350 1.356 . S
C353 C347 1.363 . S
C353 C348 1.379 . S
C353 N351 1.356 . S
N354 C346 1.356 . S
N354 H360 0.984 . S
N354 H361 0.984 . S
N355 C348 1.356 . S
N355 H358 0.984 . S
N355 H359 0.985 . S
H356 N351 0.984 . S
H357 N351 0.985 . S
H358 N355 0.984 . S
H359 N355 0.985 . S
H360 N354 0.984 . S
H361 N354 0.984 . S
H362 N350 0.984 . S
H363 N350 0.985 . S
C364 C365 1.363 . S
C364 C370 1.379 . S
C364 N372 1.356 . S
C365 C364 1.363 . S
C365 C371 1.363 1_554 S
C366 C367 1.363 . S
C366 C371 1.379 . S
C366 N373 1.356 . S
C367 C366 1.363 . S
C367 C370 1.363 1_556 S
N368 C370 1.356 . S
N368 H380 0.984 . S
N368 H381 0.985 . S
N369 C371 1.356 . S
N369 H374 0.984 . S
N369 H375 0.985 . S
C370 C364 1.379 . S
C370 C367 1.363 1_554 S
C370 N368 1.356 . S
C371 C365 1.363 1_556 S
C371 C366 1.379 . S
C371 N369 1.356 . S
N372 C364 1.356 . S
N372 H378 0.984 . S
N372 H379 0.984 . S
N373 C366 1.356 . S
N373 H376 0.984 . S
N373 H377 0.985 . S
H374 N369 0.984 . S
H375 N369 0.985 . S
H376 N373 0.984 . S
H377 N373 0.985 . S
H378 N372 0.984 . S
H379 N372 0.984 . S
H380 N368 0.984 . S
H381 N368 0.985 . S
C382 C383 1.363 . S
C382 C388 1.379 1_465 S
C382 N390 1.356 . S
C383 C382 1.363 . S
C383 C389 1.363 . S
C384 C385 1.363 . S
C384 C389 1.379 1_645 S
C384 N391 1.356 . S
C385 C384 1.363 . S
C385 C388 1.363 . S
N386 C388 1.356 . S
N386 H398 0.984 . S
N386 H399 0.985 . S
N387 C389 1.356 . S
N387 H392 0.984 . S
N387 H393 0.985 . S
C388 C382 1.379 1_645 S
C388 C385 1.363 . S
C388 N386 1.356 . S
C389 C383 1.363 . S
C389 C384 1.379 1_465 S
C389 N387 1.356 . S
N390 C382 1.356 . S
N390 H396 0.984 1_565 S
N390 H397 0.984 . S
N391 C384 1.356 . S
N391 H394 0.984 . S
N391 H395 0.985 1_545 S
H392 N387 0.984 . S
H393 N387 0.985 . S
H394 N391 0.984 . S
H395 N391 0.985 1_565 S
H396 N390 0.984 1_545 S
H397 N390 0.984 . S
H398 N386 0.984 . S
H399 N386 0.985 . S
C113 C21 1.618 . S
C115 C8 1.645 . S
C131 C7 1.617 . S
C133 C22 1.645 . S
C149 C49 1.618 . S
C151 C36 1.645 . S
C167 C35 1.617 . S
C169 C50 1.645 . S
C185 C64 1.645 . S
C187 C77 1.618 . S
C203 C78 1.645 . S
C205 C63 1.617 . S
C221 C92 1.645 . S
C223 C105 1.618 . S
C239 C91 1.617 . S
C241 C106 1.645 . S
C257 C9 0.811 . S
C259 C51 0.811 . S
C275 C23 0.811 . S
C277 C37 0.811 . S
C293 C107 0.811 . S
C295 C65 0.811 . S
C311 C93 0.811 . S
C313 C79 0.811 . S
C329 C3 1.579 . S
C331 C59 1.579 . S
C347 C73 1.579 . S
C349 C17 1.579 . S
C365 C87 1.579 . S
C367 C31 1.579 . S
C383 C101 1.579 . S
C385 C45 1.579 . S
