# Generated by pormake.
# Topology gis, (4)-cn, num edge types: 1
# Building blocks:
#     Node 0, Type 0, BuildingBlock: CEKHIL_clean_sbu_0, # of connection points: 4
#     Node 1, Type 0, BuildingBlock: CEKHIL_clean_sbu_0, # of connection points: 4
#     Node 2, Type 0, BuildingBlock: CEKHIL_clean_sbu_0, # of connection points: 4
#     Node 3, Type 0, BuildingBlock: CEKHIL_clean_sbu_0, # of connection points: 4
#     Node 4, Type 0, BuildingBlock: CEKHIL_clean_sbu_0, # of connection points: 4
#     Node 5, Type 0, BuildingBlock: CEKHIL_clean_sbu_0, # of connection points: 4
#     Node 6, Type 0, BuildingBlock: CEKHIL_clean_sbu_0, # of connection points: 4
#     Node 7, Type 0, BuildingBlock: CEKHIL_clean_sbu_0, # of connection points: 4
#     Node 8, Type 0, BuildingBlock: CEKHIL_clean_sbu_0, # of connection points: 4
#     Node 9, Type 0, BuildingBlock: CEKHIL_clean_sbu_0, # of connection points: 4
#     Node 10, Type 0, BuildingBlock: CEKHIL_clean_sbu_0, # of connection points: 4
#     Node 11, Type 0, BuildingBlock: CEKHIL_clean_sbu_0, # of connection points: 4
#     Node 12, Type 0, BuildingBlock: CEKHIL_clean_sbu_0, # of connection points: 4
#     Node 13, Type 0, BuildingBlock: CEKHIL_clean_sbu_0, # of connection points: 4
#     Node 14, Type 0, BuildingBlock: CEKHIL_clean_sbu_0, # of connection points: 4
#     Node 15, Type 0, BuildingBlock: CEKHIL_clean_sbu_0, # of connection points: 4
#     Edge 16, Type (0, 0), BuildingBlock: KIFKEQ_clean_linker_1, # of connection points: 2
#     Edge 17, Type (0, 0), BuildingBlock: KIFKEQ_clean_linker_1, # of connection points: 2
#     Edge 18, Type (0, 0), BuildingBlock: KIFKEQ_clean_linker_1, # of connection points: 2
#     Edge 19, Type (0, 0), BuildingBlock: KIFKEQ_clean_linker_1, # of connection points: 2
#     Edge 20, Type (0, 0), BuildingBlock: KIFKEQ_clean_linker_1, # of connection points: 2
#     Edge 21, Type (0, 0), BuildingBlock: KIFKEQ_clean_linker_1, # of connection points: 2
#     Edge 22, Type (0, 0), BuildingBlock: KIFKEQ_clean_linker_1, # of connection points: 2
#     Edge 23, Type (0, 0), BuildingBlock: KIFKEQ_clean_linker_1, # of connection points: 2
#     Edge 24, Type (0, 0), BuildingBlock: KIFKEQ_clean_linker_1, # of connection points: 2
#     Edge 25, Type (0, 0), BuildingBlock: KIFKEQ_clean_linker_1, # of connection points: 2
#     Edge 26, Type (0, 0), BuildingBlock: KIFKEQ_clean_linker_1, # of connection points: 2
#     Edge 27, Type (0, 0), BuildingBlock: KIFKEQ_clean_linker_1, # of connection points: 2
#     Edge 28, Type (0, 0), BuildingBlock: KIFKEQ_clean_linker_1, # of connection points: 2
#     Edge 29, Type (0, 0), BuildingBlock: KIFKEQ_clean_linker_1, # of connection points: 2
#     Edge 30, Type (0, 0), BuildingBlock: KIFKEQ_clean_linker_1, # of connection points: 2
#     Edge 31, Type (0, 0), BuildingBlock: KIFKEQ_clean_linker_1, # of connection points: 2
#     Edge 32, Type (0, 0), BuildingBlock: KIFKEQ_clean_linker_1, # of connection points: 2
#     Edge 33, Type (0, 0), BuildingBlock: KIFKEQ_clean_linker_1, # of connection points: 2
#     Edge 34, Type (0, 0), BuildingBlock: KIFKEQ_clean_linker_1, # of connection points: 2
#     Edge 35, Type (0, 0), BuildingBlock: KIFKEQ_clean_linker_1, # of connection points: 2
#     Edge 36, Type (0, 0), BuildingBlock: KIFKEQ_clean_linker_1, # of connection points: 2
#     Edge 37, Type (0, 0), BuildingBlock: KIFKEQ_clean_linker_1, # of connection points: 2
#     Edge 38, Type (0, 0), BuildingBlock: KIFKEQ_clean_linker_1, # of connection points: 2
#     Edge 39, Type (0, 0), BuildingBlock: KIFKEQ_clean_linker_1, # of connection points: 2
#     Edge 40, Type (0, 0), BuildingBlock: KIFKEQ_clean_linker_1, # of connection points: 2
#     Edge 41, Type (0, 0), BuildingBlock: KIFKEQ_clean_linker_1, # of connection points: 2
#     Edge 42, Type (0, 0), BuildingBlock: KIFKEQ_clean_linker_1, # of connection points: 2
#     Edge 43, Type (0, 0), BuildingBlock: KIFKEQ_clean_linker_1, # of connection points: 2
#     Edge 44, Type (0, 0), BuildingBlock: KIFKEQ_clean_linker_1, # of connection points: 2
#     Edge 45, Type (0, 0), BuildingBlock: KIFKEQ_clean_linker_1, # of connection points: 2
#     Edge 46, Type (0, 0), BuildingBlock: KIFKEQ_clean_linker_1, # of connection points: 2
#     Edge 47, Type (0, 0), BuildingBlock: KIFKEQ_clean_linker_1, # of connection points: 2
# Relax obj value: 0.063
# Max RMSD: 0.132
# Mean RMSD: 0.126
data_MOF--net-gis--node1-CEKHIL_clean_sbu_0--edge1-KIFKEQ_clean_linker_1
_symmetry_space_group_name_H-M    P1
_symmetry_Int_Tables_number       1
_symmetry_cell_setting            triclinic
loop_
_symmetry_equiv_pos_as_xyz
'x, y, z'
_cell_length_a     55.499709
_cell_length_b     52.193943
_cell_length_c     35.748159
_cell_angle_alpha  90.405991
_cell_angle_beta   90.399902
_cell_angle_gamma 90.009705
loop_
_atom_site_label
_atom_site_type_symbol
_atom_site_fract_x
_atom_site_fract_y
_atom_site_fract_z
_atom_type_partial_charge
Co0 Co 0.14363 0.60184 0.13038 0.0
O1 O 0.17799 0.60564 0.13257 0.0
O2 O 0.15439 0.60319 0.18211 0.0
C3 C 0.14314 0.57043 0.08693 0.0
O4 O 0.10742 0.59711 0.13813 0.0
Co5 Co 0.117 0.61465 0.05615 0.0
O6 O 0.09017 0.59637 0.08091 0.0
C7 C 0.13477 0.65656 0.10427 0.0
C8 C 0.17604 0.60547 0.16866 0.0
C9 C 0.08922 0.59318 0.11622 0.0
O10 O 0.13984 0.64014 0.12978 0.0
O11 O 0.12733 0.65019 0.0715 0.0
O12 O 0.14688 0.56511 0.12194 0.0
O13 O 0.14232 0.59454 0.07902 0.0
Co14 Co 0.64457 0.89091 0.36922 0.0
O15 O 0.67908 0.89064 0.36676 0.0
O16 O 0.65484 0.88906 0.31737 0.0
C17 C 0.64179 0.92354 0.41037 0.0
O18 O 0.60786 0.89177 0.36193 0.0
Co19 Co 0.62066 0.87771 0.44465 0.0
O20 O 0.5915 0.89116 0.41932 0.0
C21 C 0.64037 0.83606 0.39847 0.0
C22 C 0.67676 0.88943 0.33073 0.0
C23 C 0.58959 0.89367 0.38396 0.0
O24 O 0.64452 0.85234 0.37243 0.0
O25 O 0.63228 0.84252 0.43063 0.0
O26 O 0.64428 0.928 0.37493 0.0
O27 O 0.64358 0.89981 0.42014 0.0
Co28 Co 0.36199 0.39675 0.63374 0.0
O29 O 0.32758 0.39282 0.63364 0.0
O30 O 0.35074 0.39216 0.68438 0.0
C31 C 0.36276 0.43065 0.59519 0.0
O32 O 0.39804 0.401 0.64445 0.0
Co33 Co 0.39081 0.39015 0.55999 0.0
O34 O 0.41629 0.40791 0.5894 0.0
C35 C 0.37186 0.34458 0.59873 0.0
C36 C 0.32924 0.39079 0.6697 0.0
C37 C 0.41644 0.40776 0.62504 0.0
O38 O 0.36571 0.35859 0.62685 0.0
O39 O 0.38058 0.35379 0.56857 0.0
O40 O 0.35864 0.43397 0.63063 0.0
O41 O 0.36411 0.40714 0.584 0.0
Co42 Co 0.86274 0.09876 0.85872 0.0
O43 O 0.8283 0.1026 0.86022 0.0
O44 O 0.85008 0.10268 0.80853 0.0
C45 C 0.8645 0.06552 0.89835 0.0
O46 O 0.89849 0.09449 0.84637 0.0
Co47 Co 0.89368 0.1059 0.9313 0.0
O48 O 0.91902 0.08963 0.90051 0.0
C49 C 0.87309 0.15095 0.89273 0.0
C50 C 0.82896 0.10413 0.82405 0.0
C51 C 0.91777 0.08902 0.86494 0.0
O52 O 0.86661 0.13694 0.86464 0.0
O53 O 0.88231 0.14181 0.92275 0.0
O54 O 0.8595 0.06156 0.8632 0.0
O55 O 0.86626 0.08916 0.90856 0.0
Co56 Co 0.14396 0.39388 0.85743 0.0
O57 O 0.17846 0.39131 0.85731 0.0
O58 O 0.15522 0.38899 0.80674 0.0
C59 C 0.14206 0.42834 0.89567 0.0
O60 O 0.10778 0.39657 0.84709 0.0
Co61 Co 0.11634 0.38682 0.9323 0.0
O62 O 0.08889 0.40028 0.90256 0.0
C63 C 0.13823 0.34226 0.89444 0.0
C64 C 0.17679 0.38869 0.82129 0.0
C65 C 0.0889 0.40084 0.86693 0.0
O66 O 0.14153 0.35566 0.86483 0.0
O67 O 0.13065 0.35181 0.92529 0.0
O68 O 0.146 0.43132 0.86017 0.0
O69 O 0.14169 0.40495 0.90702 0.0
Co70 Co 0.85964 0.89657 0.13505 0.0
O71 O 0.82516 0.89605 0.13755 0.0
O72 O 0.8494 0.89459 0.1869 0.0
C73 C 0.86205 0.92888 0.09392 0.0
O74 O 0.89641 0.89746 0.14187 0.0
Co75 Co 0.88307 0.88379 0.0579 0.0
O76 O 0.91274 0.89512 0.08436 0.0
C77 C 0.85993 0.84333 0.10164 0.0
C78 C 0.82748 0.89465 0.17353 0.0
C79 C 0.91472 0.89811 0.11972 0.0
O80 O 0.85979 0.85807 0.13062 0.0
O81 O 0.86596 0.85094 0.06905 0.0
O82 O 0.85949 0.93389 0.12934 0.0
O83 O 0.86064 0.90505 0.0847 0.0
Co84 Co 0.36063 0.60372 0.36354 0.0
O85 O 0.32619 0.60715 0.36236 0.0
O86 O 0.34932 0.60519 0.31218 0.0
C87 C 0.36178 0.57215 0.40599 0.0
O88 O 0.39674 0.59942 0.35443 0.0
Co89 Co 0.38854 0.61598 0.43706 0.0
O90 O 0.41499 0.59777 0.41081 0.0
C91 C 0.36973 0.65823 0.39123 0.0
C92 C 0.32778 0.60707 0.3262 0.0
C93 C 0.4153 0.59516 0.37533 0.0
O94 O 0.36414 0.64203 0.36534 0.0
O95 O 0.37789 0.6516 0.42335 0.0
O96 O 0.35775 0.56694 0.37092 0.0
O97 O 0.36266 0.59622 0.41463 0.0
Co98 Co 0.64318 0.10423 0.633 0.0
O99 O 0.67761 0.10637 0.63563 0.0
O100 O 0.65357 0.1072 0.68484 0.0
C101 C 0.64165 0.07111 0.59251 0.0
O102 O 0.60671 0.10158 0.64024 0.0
Co103 Co 0.61763 0.11514 0.55756 0.0
O104 O 0.59046 0.09772 0.58262 0.0
C105 C 0.63578 0.1584 0.60273 0.0
C106 C 0.67538 0.10791 0.67162 0.0
C107 C 0.58887 0.09646 0.61811 0.0
O108 O 0.64131 0.14263 0.62889 0.0
O109 O 0.62727 0.15122 0.57095 0.0
O110 O 0.64462 0.06711 0.62806 0.0
O111 O 0.64214 0.09482 0.58228 0.0
Co112 Co 0.86163 0.39517 0.86302 0.0
O113 O 0.82722 0.39254 0.86167 0.0
O114 O 0.85048 0.39226 0.81156 0.0
C115 C 0.86307 0.42794 0.90403 0.0
O116 O 0.89798 0.39838 0.85475 0.0
Co117 Co 0.88833 0.3854 0.93884 0.0
O118 O 0.91525 0.40187 0.91186 0.0
C119 C 0.86676 0.34247 0.89629 0.0
C120 C 0.82888 0.39139 0.82558 0.0
C121 C 0.9162 0.40324 0.87629 0.0
O122 O 0.86406 0.35681 0.86746 0.0
O123 O 0.87391 0.35088 0.92823 0.0
O124 O 0.85946 0.43241 0.86872 0.0
O125 O 0.86337 0.40416 0.91336 0.0
Co126 Co 0.36039 0.10027 0.63755 0.0
O127 O 0.32577 0.10081 0.63764 0.0
O128 O 0.3488 0.10474 0.6882 0.0
C129 C 0.36405 0.06609 0.59907 0.0
O130 O 0.39666 0.0994 0.64795 0.0
Co131 Co 0.38771 0.10893 0.56264 0.0
O132 O 0.41554 0.09634 0.59237 0.0
C133 C 0.36449 0.15242 0.60105 0.0
C134 C 0.32724 0.10363 0.67365 0.0
C135 C 0.41563 0.09582 0.62801 0.0
O136 O 0.36118 0.13863 0.63029 0.0
O137 O 0.37256 0.14341 0.57017 0.0
O138 O 0.3601 0.06268 0.63449 0.0
O139 O 0.36329 0.08952 0.58802 0.0
Co140 Co 0.63933 0.59294 0.35071 0.0
O141 O 0.63785 0.55707 0.36231 0.0
O142 O 0.63307 0.58871 0.40334 0.0
C143 C 0.67322 0.59179 0.31683 0.0
O144 O 0.64049 0.63193 0.34927 0.0
Co145 Co 0.63284 0.61045 0.2691 0.0
O146 O 0.64253 0.64446 0.28934 0.0
C147 C 0.59024 0.59432 0.31063 0.0
C148 C 0.6339 0.5642 0.39658 0.0
C149 C 0.64302 0.64939 0.32432 0.0
O150 O 0.60374 0.59294 0.33989 0.0
O151 O 0.59858 0.59925 0.27816 0.0
O152 O 0.67416 0.59233 0.35311 0.0
O153 O 0.65192 0.58885 0.30219 0.0
Co154 Co 0.13751 0.89986 0.15146 0.0
O155 O 0.13948 0.93546 0.13881 0.0
O156 O 0.12992 0.90426 0.09904 0.0
C157 C 0.17257 0.89823 0.18346 0.0
O158 O 0.13488 0.86102 0.15341 0.0
Co159 Co 0.13278 0.88234 0.23265 0.0
O160 O 0.14266 0.84854 0.21216 0.0
C161 C 0.08958 0.90126 0.19384 0.0
C162 C 0.13384 0.92853 0.10492 0.0
C163 C 0.13971 0.84355 0.17752 0.0
O164 O 0.10245 0.90396 0.16437 0.0
O165 O 0.0983 0.89354 0.22504 0.0
O166 O 0.17212 0.89648 0.14722 0.0
O167 O 0.1521 0.90328 0.19925 0.0
Co168 Co 0.86217 0.60041 0.13749 0.0
O169 O 0.82766 0.60162 0.13513 0.0
O170 O 0.84914 0.60421 0.18745 0.0
C171 C 0.86574 0.56687 0.09824 0.0
O172 O 0.89822 0.59851 0.15013 0.0
Co173 Co 0.89199 0.60902 0.06494 0.0
O174 O 0.91783 0.59329 0.09554 0.0
C175 C 0.86885 0.65287 0.10324 0.0
C176 C 0.82803 0.60355 0.17127 0.0
C177 C 0.91725 0.59308 0.13115 0.0
O178 O 0.86368 0.63872 0.13141 0.0
O179 O 0.87835 0.64411 0.0732 0.0
O180 O 0.86115 0.56305 0.13336 0.0
O181 O 0.86602 0.59044 0.08782 0.0
Co182 Co 0.14366 0.09705 0.86695 0.0
O183 O 0.17815 0.0997 0.86622 0.0
O184 O 0.15467 0.10118 0.81596 0.0
C185 C 0.14227 0.06346 0.90616 0.0
O186 O 0.10734 0.09368 0.85731 0.0
Co187 Co 0.11613 0.10511 0.94181 0.0
O188 O 0.09007 0.08764 0.91338 0.0
C189 C 0.13516 0.14987 0.90137 0.0
C190 C 0.17634 0.10162 0.83018 0.0
C191 C 0.08924 0.08736 0.87773 0.0
O192 O 0.14092 0.13547 0.87341 0.0
O193 O 0.12671 0.14108 0.93197 0.0
O194 O 0.14602 0.05964 0.87071 0.0
O195 O 0.14177 0.0871 0.91678 0.0
Co196 Co 0.6392 0.40238 0.64511 0.0
O197 O 0.63949 0.43812 0.63264 0.0
O198 O 0.63175 0.40644 0.59263 0.0
C199 C 0.67396 0.40181 0.67761 0.0
O200 O 0.63813 0.36343 0.64752 0.0
Co201 Co 0.63423 0.38611 0.72736 0.0
O202 O 0.64156 0.35138 0.70754 0.0
C203 C 0.59134 0.40434 0.68751 0.0
C204 C 0.63411 0.43092 0.59878 0.0
C205 C 0.64059 0.34609 0.6727 0.0
O206 O 0.604 0.4049 0.65758 0.0
O207 O 0.60033 0.39894 0.71958 0.0
O208 O 0.67396 0.40049 0.64133 0.0
O209 O 0.65326 0.4064 0.6929 0.0
Co210 Co 0.3676 0.90189 0.35194 0.0
O211 O 0.36625 0.93756 0.36516 0.0
O212 O 0.37562 0.9063 0.40429 0.0
C213 C 0.33233 0.90061 0.32045 0.0
O214 O 0.36965 0.863 0.34928 0.0
Co215 Co 0.37154 0.88416 0.27024 0.0
O216 O 0.36123 0.85062 0.29042 0.0
C217 C 0.41529 0.9022 0.30889 0.0
C218 C 0.37206 0.93062 0.39885 0.0
C219 C 0.36437 0.84561 0.32491 0.0
O220 O 0.40262 0.90536 0.33853 0.0
O221 O 0.40629 0.89451 0.2777 0.0
O222 O 0.33297 0.89907 0.35666 0.0
O223 O 0.35276 0.90535 0.30444 0.0
H224 H 0.11951 0.82223 0.11471 0.0
H225 H 0.16254 0.80387 0.21203 0.0
H226 H 0.11923 0.77723 0.09631 0.0
H227 H 0.16334 0.7591 0.19278 0.0
H228 H 0.13609 0.67817 0.17386 0.0
H229 H 0.13818 0.7233 0.19019 0.0
H230 H 0.14158 0.7425 0.07283 0.0
H231 H 0.1383 0.6972 0.0565 0.0
C232 C 0.12921 0.80861 0.13187 0.0
C233 C 0.14085 0.81654 0.16499 0.0
C234 C 0.12919 0.78279 0.12121 0.0
C235 C 0.14114 0.76438 0.14313 0.0
C236 C 0.15344 0.77256 0.17565 0.0
C237 C 0.15311 0.79828 0.18661 0.0
C238 C 0.13736 0.692 0.15151 0.0
C239 C 0.13697 0.68408 0.11387 0.0
C240 C 0.13873 0.71795 0.16089 0.0
C241 C 0.14015 0.73668 0.13288 0.0
C242 C 0.14011 0.7287 0.09517 0.0
C243 C 0.13836 0.70271 0.08577 0.0
H244 H 0.45141 0.87955 0.26812 0.0
H245 H 0.43886 0.93352 0.35797 0.0
H246 H 0.49465 0.88044 0.2822 0.0
H247 H 0.48185 0.93521 0.37106 0.0
H248 H 0.5482 0.89988 0.4233 0.0
H249 H 0.50766 0.90503 0.40021 0.0
H250 H 0.53346 0.90326 0.28648 0.0
H251 H 0.57478 0.89732 0.30992 0.0
C252 C 0.45795 0.89211 0.2902 0.0
C253 C 0.44168 0.90613 0.31236 0.0
C254 C 0.48275 0.89268 0.29822 0.0
C255 C 0.49172 0.90748 0.32831 0.0
C256 C 0.47554 0.92301 0.3484 0.0
C257 C 0.45086 0.92216 0.34078 0.0
C258 C 0.5455 0.90069 0.3933 0.0
C259 C 0.56496 0.89814 0.36853 0.0
C260 C 0.52208 0.90392 0.38001 0.0
C261 C 0.51719 0.90491 0.34144 0.0
C262 C 0.53657 0.90251 0.31639 0.0
C263 C 0.56026 0.89923 0.32981 0.0
H264 H 0.38816 0.30844 0.54966 0.0
H265 H 0.34874 0.31682 0.65296 0.0
H266 H 0.38317 0.26244 0.55235 0.0
H267 H 0.34322 0.27035 0.65511 0.0
H268 H 0.36616 0.18362 0.66309 0.0
H269 H 0.36576 0.23051 0.66412 0.0
H270 H 0.35233 0.23083 0.54489 0.0
H271 H 0.35357 0.18431 0.54372 0.0
C272 C 0.37825 0.30051 0.57286 0.0
C273 C 0.36879 0.31642 0.60102 0.0
C274 C 0.37522 0.27405 0.57425 0.0
C275 C 0.3625 0.2627 0.60368 0.0
C276 C 0.35319 0.2785 0.63214 0.0
C277 C 0.35631 0.30512 0.63083 0.0
C278 C 0.36276 0.19378 0.63726 0.0
C279 C 0.36033 0.18035 0.60322 0.0
C280 C 0.36248 0.22062 0.63785 0.0
C281 C 0.35953 0.23441 0.60444 0.0
C282 C 0.35538 0.22082 0.57094 0.0
C283 C 0.35596 0.19414 0.57029 0.0
H284 H 0.05624 0.05401 0.90348 0.0
H285 H 0.06883 0.10709 0.8137 0.0
H286 H 0.01442 0.05031 0.88496 0.0
H287 H 0.02644 0.1031 0.79429 0.0
H288 H 0.94676 0.12431 0.83354 0.0
H289 H 0.98986 0.11919 0.82277 0.0
H290 H 0.98334 0.03791 0.84296 0.0
H291 H 0.94044 0.04357 0.85554 0.0
C292 C 0.05013 0.06438 0.87903 0.0
C293 C 0.06569 0.0811 0.86037 0.0
C294 C 0.0261 0.06207 0.86807 0.0
C295 C 0.01687 0.07652 0.83816 0.0
C296 C 0.0329 0.09189 0.81768 0.0
C297 C 0.05719 0.09404 0.82857 0.0
C298 C 0.95445 0.10523 0.83403 0.0
C299 C 0.94048 0.08431 0.84526 0.0
C300 C 0.97917 0.10223 0.82785 0.0
C301 C 0.99024 0.0782 0.83279 0.0
C302 C 0.97552 0.05679 0.83978 0.0
C303 C 0.95092 0.0599 0.84656 0.0
H304 H 0.13619 0.31025 0.83324 0.0
H305 H 0.14983 0.31116 0.95234 0.0
H306 H 0.13786 0.26338 0.83319 0.0
H307 H 0.15243 0.26473 0.95211 0.0
H308 H 0.11902 0.18612 0.95019 0.0
H309 H 0.12272 0.2321 0.94623 0.0
H310 H 0.16147 0.22423 0.84234 0.0
H311 H 0.15717 0.17759 0.84575 0.0
C312 C 0.14001 0.30046 0.85923 0.0
C313 C 0.14239 0.31431 0.89293 0.0
C314 C 0.14107 0.27364 0.85919 0.0
C315 C 0.1448 0.26028 0.89279 0.0
C316 C 0.14879 0.27435 0.92593 0.0
C317 C 0.1474 0.301 0.92606 0.0
C318 C 0.12844 0.19402 0.92648 0.0
C319 C 0.13788 0.17804 0.89836 0.0
C320 C 0.13073 0.22051 0.92436 0.0
C321 C 0.14271 0.2319 0.89425 0.0
C322 C 0.15206 0.21605 0.86585 0.0
C323 C 0.14967 0.18934 0.86788 0.0
H324 H 0.95631 0.90076 0.08014 0.0
H325 H 0.92985 0.90316 0.19362 0.0
H326 H 0.99706 0.90453 0.10289 0.0
H327 H 0.97148 0.90768 0.21667 0.0
H328 H 0.05279 0.8809 0.23546 0.0
H329 H 0.00955 0.88306 0.2216 0.0
H330 H 0.0239 0.9348 0.13063 0.0
H331 H 0.06684 0.93191 0.14356 0.0
C332 C 0.95908 0.90238 0.11009 0.0
C333 C 0.93956 0.90168 0.13499 0.0
C334 C 0.98265 0.9048 0.12316 0.0
C335 C 0.98766 0.90679 0.16163 0.0
C336 C 0.96825 0.90615 0.18683 0.0
C337 C 0.9444 0.90368 0.17362 0.0
C338 C 0.04661 0.89307 0.21292 0.0
C339 C 0.06328 0.90587 0.19018 0.0
C340 C 0.02182 0.89437 0.20505 0.0
C341 C 0.01325 0.90867 0.17448 0.0
C342 C 0.02988 0.923 0.1537 0.0
C343 C 0.05454 0.92145 0.16122 0.0
H344 H 0.36692 0.68045 0.32261 0.0
H345 H 0.36715 0.69841 0.44079 0.0
H346 H 0.36455 0.72571 0.30821 0.0
H347 H 0.36358 0.74386 0.42644 0.0
H348 H 0.38536 0.82384 0.38629 0.0
H349 H 0.38558 0.77873 0.40323 0.0
H350 H 0.33945 0.76157 0.30828 0.0
H351 H 0.34032 0.80643 0.29044 0.0
C352 C 0.36612 0.69407 0.34557 0.0
C353 C 0.36729 0.68582 0.38286 0.0
C354 C 0.36458 0.7201 0.33731 0.0
C355 C 0.36376 0.73858 0.36612 0.0
C356 C 0.36457 0.73026 0.40349 0.0
C357 C 0.36648 0.70418 0.41176 0.0
C358 C 0.37518 0.81041 0.36919 0.0
C359 C 0.36302 0.81861 0.33684 0.0
C360 C 0.37518 0.78453 0.37901 0.0
C361 C 0.36267 0.76635 0.35701 0.0
C362 C 0.34979 0.77484 0.32539 0.0
C363 C 0.35015 0.80061 0.31525 0.0
H364 H 0.55572 0.0644 0.58805 0.0
H365 H 0.56766 0.11546 0.68183 0.0
H366 H 0.51362 0.06061 0.60447 0.0
H367 H 0.52499 0.11156 0.6988 0.0
H368 H 0.43976 0.05122 0.63554 0.0
H369 H 0.48302 0.04667 0.64699 0.0
H370 H 0.48823 0.12812 0.66817 0.0
H371 H 0.4448 0.13225 0.65801 0.0
C372 C 0.54939 0.07434 0.61281 0.0
C373 C 0.56488 0.09042 0.63343 0.0
C374 C 0.52523 0.072 0.6225 0.0
C375 C 0.51581 0.08584 0.65296 0.0
C376 C 0.53166 0.10077 0.67505 0.0
C377 C 0.55608 0.10287 0.66553 0.0
C378 C 0.45007 0.06787 0.64433 0.0
C379 C 0.43914 0.09203 0.64618 0.0
C380 C 0.47484 0.06536 0.65053 0.0
C381 C 0.4892 0.08711 0.65778 0.0
C382 C 0.47776 0.11094 0.66295 0.0
C383 C 0.45289 0.11336 0.65712 0.0
H384 H 0.88884 0.18657 0.94313 0.0
H385 H 0.85033 0.17908 0.83795 0.0
H386 H 0.88376 0.23249 0.94125 0.0
H387 H 0.84482 0.22563 0.83657 0.0
H388 H 0.87003 0.31252 0.83321 0.0
H389 H 0.86879 0.26565 0.83017 0.0
H390 H 0.85168 0.26337 0.94785 0.0
H391 H 0.8537 0.30981 0.95112 0.0
C392 C 0.87911 0.19467 0.91966 0.0
C393 C 0.86991 0.17904 0.89075 0.0
C394 C 0.87604 0.22107 0.91875 0.0
C395 C 0.86356 0.23265 0.88905 0.0
C396 C 0.85454 0.2172 0.85979 0.0
C397 C 0.85766 0.19058 0.86065 0.0
C398 C 0.86567 0.30193 0.85823 0.0
C399 C 0.86249 0.3147 0.89258 0.0
C400 C 0.86487 0.27515 0.85646 0.0
C401 C 0.86064 0.26085 0.88896 0.0
C402 C 0.85567 0.27384 0.92257 0.0
C403 C 0.85676 0.30044 0.92443 0.0
H404 H 0.65008 0.66833 0.39544 0.0
H405 H 0.6416 0.69202 0.28045 0.0
H406 H 0.65258 0.71314 0.41497 0.0
H407 H 0.64327 0.73654 0.30003 0.0
H408 H 0.66489 0.81475 0.33984 0.0
H409 H 0.66856 0.76955 0.32372 0.0
H410 H 0.62711 0.74974 0.42127 0.0
H411 H 0.62416 0.79486 0.43809 0.0
C412 C 0.64874 0.68305 0.37433 0.0
C413 C 0.64558 0.67652 0.33638 0.0
C414 C 0.65006 0.70877 0.38555 0.0
C415 C 0.64809 0.72853 0.35911 0.0
C416 C 0.64529 0.72191 0.32114 0.0
C417 C 0.64416 0.69627 0.30991 0.0
C418 C 0.65672 0.80075 0.35803 0.0
C419 C 0.64408 0.80848 0.39013 0.0
C420 C 0.65872 0.7748 0.34868 0.0
C421 C 0.64793 0.75594 0.37096 0.0
C422 C 0.6359 0.76366 0.40367 0.0
C423 C 0.63409 0.7896 0.41322 0.0
H424 H 0.84863 0.68044 0.16106 0.0
H425 H 0.87789 0.68845 0.04987 0.0
H426 H 0.84116 0.72667 0.16343 0.0
H427 H 0.87092 0.73406 0.05266 0.0
H428 H 0.84115 0.81109 0.04931 0.0
H429 H 0.83845 0.76465 0.05237 0.0
H430 H 0.86474 0.76693 0.16643 0.0
H431 H 0.8666 0.81371 0.16374 0.0
C432 C 0.85343 0.69197 0.13717 0.0
C433 C 0.86387 0.6807 0.10527 0.0
C434 C 0.84919 0.71841 0.13859 0.0
C435 C 0.8552 0.73395 0.10808 0.0
C436 C 0.86554 0.72258 0.0763 0.0
C437 C 0.86975 0.69635 0.07487 0.0
C438 C 0.84596 0.8017 0.07525 0.0
C439 C 0.85455 0.81589 0.10603 0.0
C440 C 0.84448 0.77512 0.07698 0.0
C441 C 0.85197 0.76212 0.10932 0.0
C442 C 0.85884 0.77642 0.14112 0.0
C443 C 0.86 0.80317 0.13955 0.0
H444 H 0.63935 0.30396 0.71755 0.0
H445 H 0.64396 0.32623 0.60156 0.0
H446 H 0.6395 0.2592 0.69894 0.0
H447 H 0.64486 0.28117 0.58295 0.0
H448 H 0.61671 0.19871 0.56363 0.0
H449 H 0.61919 0.24415 0.57938 0.0
H450 H 0.66463 0.22638 0.67439 0.0
H451 H 0.66152 0.181 0.65939 0.0
C452 C 0.64066 0.29934 0.68805 0.0
C453 C 0.6416 0.31877 0.66106 0.0
C454 C 0.6409 0.27358 0.67737 0.0
C455 C 0.64229 0.2665 0.63942 0.0
C456 C 0.64347 0.28592 0.61239 0.0
C457 C 0.64308 0.31177 0.62308 0.0
C458 C 0.62736 0.20452 0.58774 0.0
C459 C 0.63872 0.18617 0.61044 0.0
C460 C 0.62889 0.23061 0.59667 0.0
C461 C 0.64196 0.23896 0.62835 0.0
C462 C 0.65397 0.22062 0.65028 0.0
C463 C 0.65228 0.19457 0.64155 0.0
H464 H 0.0591 0.365 0.83707 0.0
H465 H 0.06572 0.44601 0.85867 0.0
H466 H 0.01587 0.37009 0.82616 0.0
H467 H 0.02266 0.45155 0.84628 0.0
H468 H 0.94934 0.43596 0.90458 0.0
H469 H 0.99143 0.43913 0.88798 0.0
H470 H 0.9796 0.38674 0.79544 0.0
H471 H 0.93695 0.38341 0.81273 0.0
C472 C 0.05141 0.38408 0.83763 0.0
C473 C 0.06553 0.40514 0.84857 0.0
C474 C 0.02665 0.38706 0.83133 0.0
C475 C 0.01567 0.41119 0.83597 0.0
C476 C 0.03044 0.43263 0.84319 0.0
C477 C 0.05511 0.42957 0.84993 0.0
C478 C 0.95557 0.42561 0.88011 0.0
C479 C 0.93997 0.40924 0.8602 0.0
C480 C 0.97973 0.42758 0.8703 0.0
C481 C 0.98904 0.41308 0.84042 0.0
C482 C 0.97304 0.398 0.8188 0.0
C483 C 0.94862 0.39623 0.82847 0.0
H484 H 0.55414 0.59297 0.25694 0.0
H485 H 0.56642 0.58822 0.37626 0.0
H486 H 0.51073 0.58858 0.26717 0.0
H487 H 0.52366 0.58483 0.38638 0.0
H488 H 0.44895 0.56201 0.40104 0.0
H489 H 0.4904 0.55754 0.3803 0.0
H490 H 0.4767 0.61174 0.29174 0.0
H491 H 0.43467 0.61501 0.31156 0.0
C492 C 0.54765 0.59095 0.28527 0.0
C493 C 0.56387 0.5909 0.31572 0.0
C494 C 0.52276 0.58855 0.29115 0.0
C495 C 0.51359 0.58609 0.32759 0.0
C496 C 0.52993 0.58597 0.35783 0.0
C497 C 0.55462 0.58818 0.35199 0.0
C498 C 0.45469 0.5725 0.37662 0.0
C499 C 0.43874 0.58904 0.35813 0.0
C500 C 0.47851 0.57015 0.36488 0.0
C501 C 0.48718 0.58484 0.33496 0.0
C502 C 0.47071 0.6001 0.31484 0.0
C503 C 0.44663 0.60203 0.32618 0.0
H504 H 0.56655 0.41675 0.62417 0.0
H505 H 0.55637 0.40263 0.74206 0.0
H506 H 0.52363 0.42143 0.6158 0.0
H507 H 0.51286 0.40822 0.73373 0.0
H508 H 0.43669 0.38339 0.68503 0.0
H509 H 0.47882 0.38618 0.7054 0.0
H510 H 0.49028 0.44807 0.62776 0.0
H511 H 0.4487 0.44426 0.60634 0.0
C512 C 0.55519 0.41499 0.64854 0.0
C513 C 0.56505 0.40918 0.6838 0.0
C514 C 0.53043 0.41796 0.64377 0.0
C515 C 0.51466 0.41545 0.67414 0.0
C516 C 0.52446 0.41013 0.70968 0.0
C517 C 0.54941 0.40706 0.71448 0.0
C518 C 0.44814 0.39796 0.67308 0.0
C519 C 0.43964 0.41336 0.64377 0.0
C520 C 0.47228 0.39961 0.68474 0.0
C521 C 0.48814 0.41694 0.66757 0.0
C522 C 0.47882 0.43393 0.64075 0.0
C523 C 0.45494 0.43194 0.62866 0.0
H524 H 0.06958 0.60823 0.18328 0.0
H525 H 0.05505 0.56342 0.08373 0.0
H526 H 0.02729 0.60358 0.202 0.0
H527 H 0.01333 0.55887 0.10194 0.0
H528 H 0.94054 0.54783 0.13443 0.0
H529 H 0.98379 0.5423 0.14445 0.0
H530 H 0.98982 0.62219 0.17566 0.0
H531 H 0.94634 0.62724 0.16692 0.0
C532 C 0.05753 0.59681 0.16599 0.0
C533 C 0.06549 0.58637 0.13189 0.0
C534 C 0.03332 0.59428 0.17656 0.0
C535 C 0.01685 0.5809 0.15348 0.0
C536 C 0.02544 0.569 0.12076 0.0
C537 C 0.04938 0.57179 0.11007 0.0
C538 C 0.951 0.56381 0.14528 0.0
C539 C 0.94026 0.58789 0.15014 0.0
C540 C 0.97579 0.56076 0.15062 0.0
C541 C 0.99038 0.58195 0.15998 0.0
C542 C 0.97916 0.60544 0.16862 0.0
C543 C 0.95424 0.60837 0.1637 0.0
H544 H 0.15076 0.51943 0.09554 0.0
H545 H 0.12951 0.57566 0.01366 0.0
H546 H 0.1483 0.48596 0.0482 0.0
H547 H 0.12606 0.54189 0.96622 0.0
H548 H 0.15236 0.47884 0.88401 0.0
H549 H 0.15056 0.51379 0.92968 0.0
H550 H 0.12129 0.46171 0.0112 0.0
H551 H 0.12414 0.42676 0.96616 0.0
C552 C 0.14525 0.52458 0.06746 0.0
C553 C 0.1404 0.55016 0.05826 0.0
C554 C 0.14364 0.50534 0.04029 0.0
C555 C 0.13686 0.51115 0.00332 0.0
C556 C 0.13164 0.53676 0.99427 0.0
C557 C 0.13348 0.55609 0.02147 0.0
C558 C 0.14538 0.47499 0.91163 0.0
C559 C 0.13867 0.45006 0.92171 0.0
C560 C 0.14421 0.49503 0.93777 0.0
C561 C 0.13604 0.49054 0.97434 0.0
C562 C 0.12826 0.46576 0.98365 0.0
C563 C 0.12974 0.44573 0.95774 0.0
H564 H 0.68036 0.90163 0.25646 0.0
H565 H 0.7221 0.87597 0.35137 0.0
H566 H 0.71699 0.90328 0.21908 0.0
H567 H 0.75842 0.87628 0.31387 0.0
H568 H 0.82357 0.9041 0.24896 0.0
H569 H 0.78692 0.903 0.28644 0.0
H570 H 0.74616 0.87883 0.18882 0.0
H571 H 0.78238 0.88123 0.15144 0.0
C572 C 0.69732 0.89598 0.26912 0.0
C573 C 0.69838 0.88877 0.30681 0.0
C574 C 0.71836 0.8968 0.24771 0.0
C575 C 0.74087 0.89001 0.26339 0.0
C576 C 0.74165 0.88225 0.30095 0.0
C577 C 0.72074 0.88184 0.32242 0.0
C578 C 0.80674 0.89854 0.23568 0.0
C579 C 0.80583 0.89288 0.19729 0.0
C580 C 0.7857 0.89777 0.25713 0.0
C581 C 0.76338 0.8909 0.24074 0.0
C582 C 0.76276 0.88479 0.20239 0.0
C583 C 0.78364 0.88596 0.18095 0.0
H584 H 0.38051 0.42867 0.52455 0.0
H585 H 0.35198 0.48111 0.60705 0.0
H586 H 0.38337 0.46339 0.47985 0.0
H587 H 0.35381 0.51581 0.56173 0.0
H588 H 0.37559 0.57733 0.47923 0.0
H589 H 0.37884 0.5436 0.52601 0.0
H590 H 0.35648 0.48767 0.44295 0.0
H591 H 0.35418 0.52113 0.3962 0.0
C592 C 0.37483 0.44766 0.53311 0.0
C593 C 0.36584 0.45217 0.56916 0.0
C594 C 0.37632 0.46755 0.5074 0.0
C595 C 0.36852 0.49237 0.51696 0.0
C596 C 0.3602 0.49702 0.55349 0.0
C597 C 0.359 0.47712 0.57941 0.0
C598 C 0.37156 0.55777 0.47102 0.0
C599 C 0.36461 0.55183 0.43412 0.0
C600 C 0.37328 0.53847 0.49785 0.0
C601 C 0.36792 0.51288 0.48832 0.0
C602 C 0.3612 0.50704 0.4512 0.0
C603 C 0.3597 0.52627 0.4244 0.0
H604 H 0.71954 0.1246 0.65129 0.0
H605 H 0.68016 0.09596 0.74592 0.0
H606 H 0.75626 0.12579 0.68853 0.0
H607 H 0.71731 0.09589 0.7831 0.0
H608 H 0.78452 0.11762 0.84931 0.0
H609 H 0.74713 0.12068 0.81359 0.0
H610 H 0.78514 0.09807 0.71344 0.0
H611 H 0.82268 0.09624 0.749 0.0
C612 C 0.71879 0.11845 0.68015 0.0
C613 C 0.69703 0.11005 0.69569 0.0
C614 C 0.73992 0.11893 0.70146 0.0
C615 C 0.73997 0.11059 0.73876 0.0
C616 C 0.71799 0.10272 0.7546 0.0
C617 C 0.69668 0.10264 0.73332 0.0
C618 C 0.78488 0.11348 0.81958 0.0
C619 C 0.80653 0.10674 0.8019 0.0
C620 C 0.76338 0.11503 0.79913 0.0
C621 C 0.76297 0.10958 0.76055 0.0
C622 C 0.78475 0.1029 0.74293 0.0
C623 C 0.80631 0.1017 0.76332 0.0
H624 H 0.85595 0.47924 0.89526 0.0
H625 H 0.87905 0.42273 0.97561 0.0
H626 H 0.85947 0.51256 0.94311 0.0
H627 H 0.88357 0.45606 0.02299 0.0
H628 H 0.85607 0.51612 0.10754 0.0
H629 H 0.85802 0.4824 0.06011 0.0
H630 H 0.88675 0.53666 0.98114 0.0
H631 H 0.88384 0.57045 0.02808 0.0
C632 C 0.86214 0.47404 0.92299 0.0
C633 C 0.86703 0.44843 0.93183 0.0
C634 C 0.86432 0.49312 0.95037 0.0
C635 C 0.87171 0.48695 0.98697 0.0
C636 C 0.87739 0.46139 0.99531 0.0
C637 C 0.87494 0.44232 0.96808 0.0
C638 C 0.86303 0.5207 0.08015 0.0
C639 C 0.86958 0.54587 0.07133 0.0
C640 C 0.86427 0.5014 0.053 0.0
C641 C 0.87236 0.5069 0.01669 0.0
C642 C 0.87994 0.5319 0.00854 0.0
C643 C 0.87843 0.55122 0.03553 0.0
H644 H 0.1796 0.11492 0.75626 0.0
H645 H 0.22253 0.09244 0.85173 0.0
H646 H 0.21607 0.11767 0.71862 0.0
H647 H 0.25867 0.09394 0.81404 0.0
H648 H 0.32305 0.11869 0.74691 0.0
H649 H 0.2864 0.12051 0.7842 0.0
H650 H 0.24524 0.09204 0.68949 0.0
H651 H 0.28157 0.09146 0.65205 0.0
C652 C 0.19681 0.11044 0.76911 0.0
C653 C 0.1982 0.10351 0.80692 0.0
C654 C 0.21774 0.11186 0.74753 0.0
C655 C 0.24046 0.10602 0.76318 0.0
C656 C 0.24168 0.09911 0.80109 0.0
C657 C 0.22086 0.09804 0.8227 0.0
C658 C 0.30612 0.11296 0.73412 0.0
C659 C 0.3052 0.10494 0.6966 0.0
C660 C 0.28509 0.11384 0.75551 0.0
C661 C 0.26272 0.10636 0.73999 0.0
C662 C 0.26194 0.09843 0.70232 0.0
C663 C 0.28286 0.09789 0.68087 0.0
H664 H 0.61912 0.51476 0.3892 0.0
H665 H 0.64268 0.57066 0.47107 0.0
H666 H 0.61616 0.48256 0.43787 0.0
H667 H 0.64139 0.53821 0.51953 0.0
H668 H 0.62129 0.48086 0.60629 0.0
H669 H 0.61819 0.51299 0.55757 0.0
H670 H 0.63915 0.45616 0.47522 0.0
H671 H 0.64056 0.42378 0.5239 0.0
C672 C 0.62379 0.52007 0.41769 0.0
C673 C 0.63114 0.54514 0.42645 0.0
C674 C 0.62231 0.50157 0.44561 0.0
C675 C 0.62871 0.50755 0.48284 0.0
C676 C 0.63584 0.53285 0.49147 0.0
C677 C 0.63676 0.5515 0.46366 0.0
C678 C 0.62501 0.47527 0.57766 0.0
C679 C 0.63122 0.4499 0.56878 0.0
C680 C 0.62344 0.49374 0.54969 0.0
C681 C 0.62866 0.48742 0.51227 0.0
C682 C 0.63458 0.46181 0.50348 0.0
C683 C 0.63556 0.4432 0.5314 0.0
H684 H 0.32339 0.91079 0.2465 0.0
H685 H 0.28918 0.88491 0.34756 0.0
H686 H 0.28456 0.90925 0.21393 0.0
H687 H 0.25065 0.88253 0.31493 0.0
H688 H 0.18129 0.90988 0.25722 0.0
H689 H 0.2201 0.90958 0.28986 0.0
H690 H 0.2544 0.88113 0.18963 0.0
H691 H 0.21586 0.88227 0.15689 0.0
C692 C 0.30763 0.90449 0.2616 0.0
C693 C 0.30932 0.89811 0.2996 0.0
C694 C 0.28537 0.90348 0.24294 0.0
C695 C 0.26436 0.89588 0.26183 0.0
C696 C 0.26628 0.88896 0.29965 0.0
C697 C 0.28845 0.89015 0.31831 0.0
C698 C 0.19712 0.90343 0.24231 0.0
C699 C 0.19554 0.89623 0.20448 0.0
C700 C 0.21938 0.90315 0.26101 0.0
C701 C 0.2405 0.89546 0.24234 0.0
C702 C 0.23868 0.88766 0.20472 0.0
C703 C 0.21651 0.88813 0.18601 0.0
H704 H 0.62782 0.02225 0.60752 0.0
H705 H 0.64806 0.07202 0.5171 0.0
H706 H 0.62423 0.98645 0.56378 0.0
H707 H 0.64592 0.03605 0.47354 0.0
H708 H 0.62541 0.97166 0.39657 0.0
H709 H 0.62182 0.00718 0.4407 0.0
H710 H 0.64803 0.95834 0.52943 0.0
H711 H 0.65017 0.92256 0.48552 0.0
C712 C 0.63159 0.02547 0.57823 0.0
C713 C 0.63833 0.04983 0.56566 0.0
C714 C 0.62971 0.00491 0.55315 0.0
C715 C 0.63498 0.00815 0.51501 0.0
C716 C 0.64131 0.03278 0.50248 0.0
C717 C 0.64273 0.05343 0.52749 0.0
C718 C 0.63014 0.96853 0.42563 0.0
C719 C 0.63818 0.94445 0.43766 0.0
C720 C 0.62828 0.98894 0.45092 0.0
C721 C 0.63489 0.98585 0.48871 0.0
C722 C 0.64242 0.96147 0.50077 0.0
C723 C 0.64382 0.94094 0.47557 0.0
H724 H 0.28512 0.37451 0.64628 0.0
H725 H 0.32401 0.40042 0.74446 0.0
H726 H 0.24835 0.37144 0.6826 0.0
H727 H 0.28697 0.3987 0.78061 0.0
H728 H 0.22145 0.37441 0.84466 0.0
H729 H 0.25827 0.37236 0.80831 0.0
H730 H 0.21869 0.39688 0.71021 0.0
H731 H 0.18162 0.39757 0.74643 0.0
C732 C 0.28575 0.37964 0.67569 0.0
C733 C 0.3074 0.38774 0.69257 0.0
C734 C 0.26461 0.37809 0.69649 0.0
C735 C 0.2645 0.38501 0.73458 0.0
C736 C 0.28634 0.3928 0.75153 0.0
C737 C 0.3076 0.39394 0.73081 0.0
C738 C 0.22061 0.37915 0.81522 0.0
C739 C 0.19869 0.38619 0.79835 0.0
C740 C 0.24178 0.37819 0.7944 0.0
C741 C 0.24164 0.38467 0.75628 0.0
C742 C 0.21953 0.39136 0.73932 0.0
C743 C 0.19825 0.3919 0.76007 0.0
H744 H 0.88409 0.06901 0.96802 0.0
H745 H 0.85227 0.01513 0.88985 0.0
H746 H 0.88687 0.03567 0.01494 0.0
H747 H 0.85405 0.98186 0.9374 0.0
H748 H 0.87542 0.92217 0.02148 0.0
H749 H 0.8794 0.95473 0.97354 0.0
H750 H 0.8602 0.01312 0.05444 0.0
H751 H 0.85722 0.98056 0.1027 0.0
C752 C 0.87772 0.04998 0.96085 0.0
C753 C 0.86783 0.04465 0.92538 0.0
C754 C 0.87915 0.03091 0.98786 0.0
C755 C 0.87043 0.00615 0.98016 0.0
C756 C 0.86119 0.00065 0.94419 0.0
C757 C 0.86004 0.0197 0.91697 0.0
C758 C 0.87229 0.94201 0.02907 0.0
C759 C 0.86591 0.94887 0.06575 0.0
C760 C 0.87441 0.96065 0.00153 0.0
C761 C 0.86995 0.98653 0.01 0.0
C762 C 0.8641 0.99341 0.047 0.0
C763 C 0.86224 0.97477 0.07466 0.0
H764 H 0.22064 0.62108 0.14808 0.0
H765 H 0.18058 0.59418 0.24318 0.0
H766 H 0.25711 0.62294 0.18595 0.0
H767 H 0.21741 0.59494 0.28098 0.0
H768 H 0.28274 0.62073 0.34809 0.0
H769 H 0.24605 0.62179 0.31058 0.0
H770 H 0.28624 0.5964 0.21396 0.0
H771 H 0.32318 0.59645 0.25138 0.0
C772 C 0.21967 0.61544 0.17714 0.0
C773 C 0.19775 0.60744 0.19267 0.0
C774 C 0.24066 0.61631 0.19882 0.0
C775 C 0.24038 0.60889 0.23653 0.0
C776 C 0.21832 0.60113 0.25219 0.0
C777 C 0.19719 0.60058 0.23053 0.0
C778 C 0.28376 0.61551 0.31876 0.0
C779 C 0.30584 0.60851 0.30264 0.0
C780 C 0.26265 0.61591 0.29729 0.0
C781 C 0.26303 0.60904 0.25921 0.0
C782 C 0.28525 0.6022 0.24304 0.0
C783 C 0.30645 0.60211 0.26448 0.0
H784 H 0.35566 0.01476 0.60818 0.0
H785 H 0.38412 0.0698 0.53042 0.0
H786 H 0.35995 0.98093 0.56085 0.0
H787 H 0.38935 0.03616 0.48405 0.0
H788 H 0.36176 0.98134 0.39507 0.0
H789 H 0.36224 0.01272 0.44529 0.0
H790 H 0.38672 0.9548 0.52259 0.0
H791 H 0.3855 0.92291 0.47199 0.0
C792 C 0.36323 0.01951 0.58126 0.0
C793 C 0.3692 0.04494 0.57274 0.0
C794 C 0.36581 0.00014 0.55422 0.0
C795 C 0.37462 0.00592 0.51841 0.0
C796 C 0.38188 0.03115 0.51093 0.0
C797 C 0.37901 0.05045 0.53764 0.0
C798 C 0.36739 0.97525 0.42269 0.0
C799 C 0.37363 0.94965 0.42955 0.0
C800 C 0.36783 0.99332 0.45152 0.0
C801 C 0.37474 0.98636 0.48798 0.0
C802 C 0.38115 0.96074 0.49488 0.0
C803 C 0.38059 0.94253 0.4659 0.0
H804 H 0.82091 0.61729 0.24456 0.0
H805 H 0.7837 0.58994 0.14561 0.0
H806 H 0.78306 0.6165 0.27896 0.0
H807 H 0.7463 0.58777 0.18012 0.0
H808 H 0.67756 0.60502 0.24304 0.0
H809 H 0.71485 0.61036 0.20794 0.0
H810 H 0.75599 0.58803 0.30565 0.0
H811 H 0.71898 0.58412 0.34079 0.0
C812 C 0.80466 0.611 0.23026 0.0
C813 C 0.80527 0.6037 0.19246 0.0
C814 C 0.78295 0.61036 0.24997 0.0
C815 C 0.76148 0.60194 0.23246 0.0
C816 C 0.76223 0.59482 0.19449 0.0
C817 C 0.78379 0.59588 0.17471 0.0
C818 C 0.69463 0.60131 0.25684 0.0
C819 C 0.69539 0.59419 0.29458 0.0
C820 C 0.71603 0.60426 0.23676 0.0
C821 C 0.7386 0.59971 0.2539 0.0
C822 C 0.73913 0.59233 0.29163 0.0
C823 C 0.71784 0.58983 0.31175 0.0
H824 H 0.14564 0.97888 0.10947 0.0
H825 H 0.12027 0.92103 0.03163 0.0
H826 H 0.14592 0.01018 0.05978 0.0
H827 H 0.11979 0.95285 0.98159 0.0
H828 H 0.15076 0.01209 0.89646 0.0
H829 H 0.14685 0.97843 0.94347 0.0
H830 H 0.119 0.03418 0.02202 0.0
H831 H 0.12386 0.06761 0.97599 0.0
C832 C 0.13983 0.97291 0.08176 0.0
C833 C 0.13286 0.9475 0.0745 0.0
C834 C 0.13984 0.99093 0.05324 0.0
C835 C 0.13265 0.98412 0.01671 0.0
C836 C 0.12559 0.95867 0.00937 0.0
C837 C 0.12572 0.9405 0.03803 0.0
C838 C 0.14367 0.017 0.92375 0.0
C839 C 0.13794 0.0425 0.93275 0.0
C840 C 0.1413 0.99774 0.95058 0.0
C841 C 0.13295 0.00369 0.98671 0.0
C842 C 0.1261 0.02903 0.99484 0.0
C843 C 0.12876 0.04821 0.96833 0.0
H844 H 0.71702 0.38428 0.65229 0.0
H845 H 0.68165 0.41193 0.75192 0.0
H846 H 0.75457 0.3797 0.68714 0.0
H847 H 0.71949 0.40836 0.78663 0.0
H848 H 0.78418 0.3777 0.84798 0.0
H849 H 0.7469 0.37846 0.81207 0.0
H850 H 0.78607 0.40412 0.71512 0.0
H851 H 0.82369 0.40233 0.75101 0.0
C852 C 0.71732 0.3895 0.68167 0.0
C853 C 0.69642 0.39849 0.69942 0.0
C854 C 0.73891 0.38704 0.7016 0.0
C855 C 0.74018 0.39374 0.7397 0.0
C856 C 0.71914 0.40261 0.75747 0.0
C857 C 0.69746 0.40482 0.73758 0.0
C858 C 0.78487 0.38331 0.81888 0.0
C859 C 0.80683 0.39005 0.8023 0.0
C860 C 0.76343 0.38396 0.79836 0.0
C861 C 0.76333 0.39167 0.76079 0.0
C862 C 0.78546 0.39783 0.7439 0.0
C863 C 0.80703 0.39689 0.76442 0.0
loop_
_geom_bond_atom_site_label_1
_geom_bond_atom_site_label_2
_geom_bond_distance
_geom_bond_site_symmetry_2
_ccdc_geom_bond_type
Co0 O1 2.216 . S
Co0 O2 2.091 . S
Co0 O4 2.004 . S
Co0 O10 2.021 . S
Co0 O12 2.137 . S
Co0 O13 2.244 . S
O1 Co0 2.216 . S
O1 C8 1.247 . S
O2 Co0 2.091 . S
O2 C8 1.261 . S
C3 O12 1.247 . S
C3 O13 1.272 . S
O4 Co0 2.004 . S
O4 C9 1.259 . S
Co5 O6 2.061 . S
Co5 O11 2.052 . S
Co5 O13 2.135 . S
O6 Co5 2.061 . S
O6 C9 1.235 . S
C7 O10 1.238 . S
C7 O11 1.241 . S
C8 O1 1.247 . S
C8 O2 1.261 . S
C9 O4 1.259 . S
C9 O6 1.235 . S
O10 Co0 2.021 . S
O10 C7 1.238 . S
O11 Co5 2.052 . S
O11 C7 1.241 . S
O12 Co0 2.137 . S
O12 C3 1.247 . S
O13 Co0 2.244 . S
O13 C3 1.272 . S
O13 Co5 2.135 . S
Co14 O15 2.216 . S
Co14 O16 2.091 . S
Co14 O18 2.004 . S
Co14 O24 2.021 . S
Co14 O26 2.137 . S
Co14 O27 2.244 . S
O15 Co14 2.216 . S
O15 C22 1.247 . S
O16 Co14 2.091 . S
O16 C22 1.261 . S
C17 O26 1.247 . S
C17 O27 1.272 . S
O18 Co14 2.004 . S
O18 C23 1.259 . S
Co19 O20 2.061 . S
Co19 O25 2.052 . S
Co19 O27 2.135 . S
O20 Co19 2.061 . S
O20 C23 1.235 . S
C21 O24 1.238 . S
C21 O25 1.241 . S
C22 O15 1.247 . S
C22 O16 1.261 . S
C23 O18 1.259 . S
C23 O20 1.235 . S
O24 Co14 2.021 . S
O24 C21 1.238 . S
O25 Co19 2.052 . S
O25 C21 1.241 . S
O26 Co14 2.137 . S
O26 C17 1.247 . S
O27 Co14 2.244 . S
O27 C17 1.272 . S
O27 Co19 2.135 . S
Co28 O29 2.216 . S
Co28 O30 2.091 . S
Co28 O32 2.004 . S
Co28 O38 2.021 . S
Co28 O40 2.137 . S
Co28 O41 2.244 . S
O29 Co28 2.216 . S
O29 C36 1.247 . S
O30 Co28 2.091 . S
O30 C36 1.261 . S
C31 O40 1.247 . S
C31 O41 1.272 . S
O32 Co28 2.004 . S
O32 C37 1.259 . S
Co33 O34 2.061 . S
Co33 O39 2.052 . S
Co33 O41 2.135 . S
O34 Co33 2.061 . S
O34 C37 1.235 . S
C35 O38 1.238 . S
C35 O39 1.241 . S
C36 O29 1.247 . S
C36 O30 1.261 . S
C37 O32 1.259 . S
C37 O34 1.235 . S
O38 Co28 2.021 . S
O38 C35 1.238 . S
O39 Co33 2.052 . S
O39 C35 1.241 . S
O40 Co28 2.137 . S
O40 C31 1.247 . S
O41 Co28 2.244 . S
O41 C31 1.272 . S
O41 Co33 2.135 . S
Co42 O43 2.216 . S
Co42 O44 2.091 . S
Co42 O46 2.004 . S
Co42 O52 2.021 . S
Co42 O54 2.137 . S
Co42 O55 2.244 . S
O43 Co42 2.216 . S
O43 C50 1.247 . S
O44 Co42 2.091 . S
O44 C50 1.261 . S
C45 O54 1.247 . S
C45 O55 1.272 . S
O46 Co42 2.004 . S
O46 C51 1.259 . S
Co47 O48 2.061 . S
Co47 O53 2.052 . S
Co47 O55 2.135 . S
O48 Co47 2.061 . S
O48 C51 1.235 . S
C49 O52 1.238 . S
C49 O53 1.241 . S
C50 O43 1.247 . S
C50 O44 1.261 . S
C51 O46 1.259 . S
C51 O48 1.235 . S
O52 Co42 2.021 . S
O52 C49 1.238 . S
O53 Co47 2.052 . S
O53 C49 1.241 . S
O54 Co42 2.137 . S
O54 C45 1.247 . S
O55 Co42 2.244 . S
O55 C45 1.272 . S
O55 Co47 2.135 . S
Co56 O57 2.216 . S
Co56 O58 2.091 . S
Co56 O60 2.004 . S
Co56 O66 2.021 . S
Co56 O68 2.137 . S
Co56 O69 2.244 . S
O57 Co56 2.216 . S
O57 C64 1.247 . S
O58 Co56 2.091 . S
O58 C64 1.261 . S
C59 O68 1.247 . S
C59 O69 1.272 . S
O60 Co56 2.004 . S
O60 C65 1.259 . S
Co61 O62 2.061 . S
Co61 O67 2.052 . S
Co61 O69 2.135 . S
O62 Co61 2.061 . S
O62 C65 1.235 . S
C63 O66 1.238 . S
C63 O67 1.241 . S
C64 O57 1.247 . S
C64 O58 1.261 . S
C65 O60 1.259 . S
C65 O62 1.235 . S
O66 Co56 2.021 . S
O66 C63 1.238 . S
O67 Co61 2.052 . S
O67 C63 1.241 . S
O68 Co56 2.137 . S
O68 C59 1.247 . S
O69 Co56 2.244 . S
O69 C59 1.272 . S
O69 Co61 2.135 . S
Co70 O71 2.216 . S
Co70 O72 2.091 . S
Co70 O74 2.004 . S
Co70 O80 2.021 . S
Co70 O82 2.137 . S
Co70 O83 2.244 . S
O71 Co70 2.216 . S
O71 C78 1.247 . S
O72 Co70 2.091 . S
O72 C78 1.261 . S
C73 O82 1.247 . S
C73 O83 1.272 . S
O74 Co70 2.004 . S
O74 C79 1.259 . S
Co75 O76 2.061 . S
Co75 O81 2.052 . S
Co75 O83 2.135 . S
O76 Co75 2.061 . S
O76 C79 1.235 . S
C77 O80 1.238 . S
C77 O81 1.241 . S
C78 O71 1.247 . S
C78 O72 1.261 . S
C79 O74 1.259 . S
C79 O76 1.235 . S
O80 Co70 2.021 . S
O80 C77 1.238 . S
O81 Co75 2.052 . S
O81 C77 1.241 . S
O82 Co70 2.137 . S
O82 C73 1.247 . S
O83 Co70 2.244 . S
O83 C73 1.272 . S
O83 Co75 2.135 . S
Co84 O85 2.216 . S
Co84 O86 2.091 . S
Co84 O88 2.004 . S
Co84 O94 2.021 . S
Co84 O96 2.137 . S
Co84 O97 2.244 . S
O85 Co84 2.216 . S
O85 C92 1.247 . S
O86 Co84 2.091 . S
O86 C92 1.261 . S
C87 O96 1.247 . S
C87 O97 1.272 . S
O88 Co84 2.004 . S
O88 C93 1.259 . S
Co89 O90 2.061 . S
Co89 O95 2.052 . S
Co89 O97 2.135 . S
O90 Co89 2.061 . S
O90 C93 1.235 . S
C91 O94 1.238 . S
C91 O95 1.241 . S
C92 O85 1.247 . S
C92 O86 1.261 . S
C93 O88 1.259 . S
C93 O90 1.235 . S
O94 Co84 2.021 . S
O94 C91 1.238 . S
O95 Co89 2.052 . S
O95 C91 1.241 . S
O96 Co84 2.137 . S
O96 C87 1.247 . S
O97 Co84 2.244 . S
O97 C87 1.272 . S
O97 Co89 2.135 . S
Co98 O99 2.216 . S
Co98 O100 2.091 . S
Co98 O102 2.004 . S
Co98 O108 2.021 . S
Co98 O110 2.137 . S
Co98 O111 2.244 . S
O99 Co98 2.216 . S
O99 C106 1.247 . S
O100 Co98 2.091 . S
O100 C106 1.261 . S
C101 O110 1.247 . S
C101 O111 1.272 . S
O102 Co98 2.004 . S
O102 C107 1.259 . S
Co103 O104 2.061 . S
Co103 O109 2.052 . S
Co103 O111 2.135 . S
O104 Co103 2.061 . S
O104 C107 1.235 . S
C105 O108 1.238 . S
C105 O109 1.241 . S
C106 O99 1.247 . S
C106 O100 1.261 . S
C107 O102 1.259 . S
C107 O104 1.235 . S
O108 Co98 2.021 . S
O108 C105 1.238 . S
O109 Co103 2.052 . S
O109 C105 1.241 . S
O110 Co98 2.137 . S
O110 C101 1.247 . S
O111 Co98 2.244 . S
O111 C101 1.272 . S
O111 Co103 2.135 . S
Co112 O113 2.216 . S
Co112 O114 2.091 . S
Co112 O116 2.004 . S
Co112 O122 2.021 . S
Co112 O124 2.137 . S
Co112 O125 2.244 . S
O113 Co112 2.216 . S
O113 C120 1.247 . S
O114 Co112 2.091 . S
O114 C120 1.261 . S
C115 O124 1.247 . S
C115 O125 1.272 . S
O116 Co112 2.004 . S
O116 C121 1.259 . S
Co117 O118 2.061 . S
Co117 O123 2.052 . S
Co117 O125 2.135 . S
O118 Co117 2.061 . S
O118 C121 1.235 . S
C119 O122 1.238 . S
C119 O123 1.241 . S
C120 O113 1.247 . S
C120 O114 1.261 . S
C121 O116 1.259 . S
C121 O118 1.235 . S
O122 Co112 2.021 . S
O122 C119 1.238 . S
O123 Co117 2.052 . S
O123 C119 1.241 . S
O124 Co112 2.137 . S
O124 C115 1.247 . S
O125 Co112 2.244 . S
O125 C115 1.272 . S
O125 Co117 2.135 . S
Co126 O127 2.216 . S
Co126 O128 2.091 . S
Co126 O130 2.004 . S
Co126 O136 2.021 . S
Co126 O138 2.137 . S
Co126 O139 2.244 . S
O127 Co126 2.216 . S
O127 C134 1.247 . S
O128 Co126 2.091 . S
O128 C134 1.261 . S
C129 O138 1.247 . S
C129 O139 1.272 . S
O130 Co126 2.004 . S
O130 C135 1.259 . S
Co131 O132 2.061 . S
Co131 O137 2.052 . S
Co131 O139 2.135 . S
O132 Co131 2.061 . S
O132 C135 1.235 . S
C133 O136 1.238 . S
C133 O137 1.241 . S
C134 O127 1.247 . S
C134 O128 1.261 . S
C135 O130 1.259 . S
C135 O132 1.235 . S
O136 Co126 2.021 . S
O136 C133 1.238 . S
O137 Co131 2.052 . S
O137 C133 1.241 . S
O138 Co126 2.137 . S
O138 C129 1.247 . S
O139 Co126 2.244 . S
O139 C129 1.272 . S
O139 Co131 2.135 . S
Co140 O141 2.216 . S
Co140 O142 2.091 . S
Co140 O144 2.004 . S
Co140 O150 2.021 . S
Co140 O152 2.137 . S
Co140 O153 2.244 . S
O141 Co140 2.216 . S
O141 C148 1.247 . S
O142 Co140 2.091 . S
O142 C148 1.261 . S
C143 O152 1.247 . S
C143 O153 1.272 . S
O144 Co140 2.004 . S
O144 C149 1.259 . S
Co145 O146 2.061 . S
Co145 O151 2.052 . S
Co145 O153 2.135 . S
O146 Co145 2.061 . S
O146 C149 1.235 . S
C147 O150 1.238 . S
C147 O151 1.241 . S
C148 O141 1.247 . S
C148 O142 1.261 . S
C149 O144 1.259 . S
C149 O146 1.235 . S
O150 Co140 2.021 . S
O150 C147 1.238 . S
O151 Co145 2.052 . S
O151 C147 1.241 . S
O152 Co140 2.137 . S
O152 C143 1.247 . S
O153 Co140 2.244 . S
O153 C143 1.272 . S
O153 Co145 2.135 . S
Co154 O155 2.216 . S
Co154 O156 2.091 . S
Co154 O158 2.004 . S
Co154 O164 2.021 . S
Co154 O166 2.137 . S
Co154 O167 2.244 . S
O155 Co154 2.216 . S
O155 C162 1.247 . S
O156 Co154 2.091 . S
O156 C162 1.261 . S
C157 O166 1.247 . S
C157 O167 1.272 . S
O158 Co154 2.004 . S
O158 C163 1.259 . S
Co159 O160 2.061 . S
Co159 O165 2.052 . S
Co159 O167 2.135 . S
O160 Co159 2.061 . S
O160 C163 1.235 . S
C161 O164 1.238 . S
C161 O165 1.241 . S
C162 O155 1.247 . S
C162 O156 1.261 . S
C163 O158 1.259 . S
C163 O160 1.235 . S
O164 Co154 2.021 . S
O164 C161 1.238 . S
O165 Co159 2.052 . S
O165 C161 1.241 . S
O166 Co154 2.137 . S
O166 C157 1.247 . S
O167 Co154 2.244 . S
O167 C157 1.272 . S
O167 Co159 2.135 . S
Co168 O169 2.216 . S
Co168 O170 2.091 . S
Co168 O172 2.004 . S
Co168 O178 2.021 . S
Co168 O180 2.137 . S
Co168 O181 2.244 . S
O169 Co168 2.216 . S
O169 C176 1.247 . S
O170 Co168 2.091 . S
O170 C176 1.261 . S
C171 O180 1.247 . S
C171 O181 1.272 . S
O172 Co168 2.004 . S
O172 C177 1.259 . S
Co173 O174 2.061 . S
Co173 O179 2.052 . S
Co173 O181 2.135 . S
O174 Co173 2.061 . S
O174 C177 1.235 . S
C175 O178 1.238 . S
C175 O179 1.241 . S
C176 O169 1.247 . S
C176 O170 1.261 . S
C177 O172 1.259 . S
C177 O174 1.235 . S
O178 Co168 2.021 . S
O178 C175 1.238 . S
O179 Co173 2.052 . S
O179 C175 1.241 . S
O180 Co168 2.137 . S
O180 C171 1.247 . S
O181 Co168 2.244 . S
O181 C171 1.272 . S
O181 Co173 2.135 . S
Co182 O183 2.216 . S
Co182 O184 2.091 . S
Co182 O186 2.004 . S
Co182 O192 2.021 . S
Co182 O194 2.137 . S
Co182 O195 2.244 . S
O183 Co182 2.216 . S
O183 C190 1.247 . S
O184 Co182 2.091 . S
O184 C190 1.261 . S
C185 O194 1.247 . S
C185 O195 1.272 . S
O186 Co182 2.004 . S
O186 C191 1.259 . S
Co187 O188 2.061 . S
Co187 O193 2.052 . S
Co187 O195 2.135 . S
O188 Co187 2.061 . S
O188 C191 1.235 . S
C189 O192 1.238 . S
C189 O193 1.241 . S
C190 O183 1.247 . S
C190 O184 1.261 . S
C191 O186 1.259 . S
C191 O188 1.235 . S
O192 Co182 2.021 . S
O192 C189 1.238 . S
O193 Co187 2.052 . S
O193 C189 1.241 . S
O194 Co182 2.137 . S
O194 C185 1.247 . S
O195 Co182 2.244 . S
O195 C185 1.272 . S
O195 Co187 2.135 . S
Co196 O197 2.216 . S
Co196 O198 2.091 . S
Co196 O200 2.004 . S
Co196 O206 2.021 . S
Co196 O208 2.137 . S
Co196 O209 2.244 . S
O197 Co196 2.216 . S
O197 C204 1.247 . S
O198 Co196 2.091 . S
O198 C204 1.261 . S
C199 O208 1.247 . S
C199 O209 1.272 . S
O200 Co196 2.004 . S
O200 C205 1.259 . S
Co201 O202 2.061 . S
Co201 O207 2.052 . S
Co201 O209 2.135 . S
O202 Co201 2.061 . S
O202 C205 1.235 . S
C203 O206 1.238 . S
C203 O207 1.241 . S
C204 O197 1.247 . S
C204 O198 1.261 . S
C205 O200 1.259 . S
C205 O202 1.235 . S
O206 Co196 2.021 . S
O206 C203 1.238 . S
O207 Co201 2.052 . S
O207 C203 1.241 . S
O208 Co196 2.137 . S
O208 C199 1.247 . S
O209 Co196 2.244 . S
O209 C199 1.272 . S
O209 Co201 2.135 . S
Co210 O211 2.216 . S
Co210 O212 2.091 . S
Co210 O214 2.004 . S
Co210 O220 2.021 . S
Co210 O222 2.137 . S
Co210 O223 2.244 . S
O211 Co210 2.216 . S
O211 C218 1.247 . S
O212 Co210 2.091 . S
O212 C218 1.261 . S
C213 O222 1.247 . S
C213 O223 1.272 . S
O214 Co210 2.004 . S
O214 C219 1.259 . S
Co215 O216 2.061 . S
Co215 O221 2.052 . S
Co215 O223 2.135 . S
O216 Co215 2.061 . S
O216 C219 1.235 . S
C217 O220 1.238 . S
C217 O221 1.241 . S
C218 O211 1.247 . S
C218 O212 1.261 . S
C219 O214 1.259 . S
C219 O216 1.235 . S
O220 Co210 2.021 . S
O220 C217 1.238 . S
O221 Co215 2.052 . S
O221 C217 1.241 . S
O222 Co210 2.137 . S
O222 C213 1.247 . S
O223 Co210 2.244 . S
O223 C213 1.272 . S
O223 Co215 2.135 . S
H224 C232 0.950 . S
H225 C237 0.950 . S
H226 C234 0.950 . S
H227 C236 0.950 . S
H228 C238 0.950 . S
H229 C240 0.950 . S
H230 C242 0.950 . S
H231 C243 0.950 . S
C232 H224 0.950 . S
C232 C233 1.386 . S
C232 C234 1.391 . S
C233 C232 1.386 . S
C233 C237 1.393 . S
C234 H226 0.950 . S
C234 C232 1.391 . S
C234 C235 1.400 . S
C235 C234 1.400 . S
C235 C236 1.398 . S
C235 C241 1.491 . S
C236 H227 0.950 . S
C236 C235 1.398 . S
C236 C237 1.391 . S
C237 H225 0.950 . S
C237 C233 1.393 . S
C237 C236 1.391 . S
C238 H228 0.950 . S
C238 C239 1.386 . S
C238 C240 1.391 . S
C239 C238 1.386 . S
C239 C243 1.393 . S
C240 H229 0.950 . S
C240 C238 1.391 . S
C240 C241 1.400 . S
C241 C235 1.491 . S
C241 C240 1.400 . S
C241 C242 1.398 . S
C242 H230 0.950 . S
C242 C241 1.398 . S
C242 C243 1.391 . S
C243 H231 0.950 . S
C243 C239 1.393 . S
C243 C242 1.391 . S
H244 C252 0.950 . S
H245 C257 0.950 . S
H246 C254 0.950 . S
H247 C256 0.950 . S
H248 C258 0.950 . S
H249 C260 0.950 . S
H250 C262 0.950 . S
H251 C263 0.950 . S
C252 H244 0.950 . S
C252 C253 1.386 . S
C252 C254 1.391 . S
C253 C252 1.386 . S
C253 C257 1.393 . S
C254 H246 0.950 . S
C254 C252 1.391 . S
C254 C255 1.400 . S
C255 C254 1.400 . S
C255 C256 1.398 . S
C255 C261 1.491 . S
C256 H247 0.950 . S
C256 C255 1.398 . S
C256 C257 1.391 . S
C257 H245 0.950 . S
C257 C253 1.393 . S
C257 C256 1.391 . S
C258 H248 0.950 . S
C258 C259 1.386 . S
C258 C260 1.391 . S
C259 C258 1.386 . S
C259 C263 1.393 . S
C260 H249 0.950 . S
C260 C258 1.391 . S
C260 C261 1.400 . S
C261 C255 1.491 . S
C261 C260 1.400 . S
C261 C262 1.398 . S
C262 H250 0.950 . S
C262 C261 1.398 . S
C262 C263 1.391 . S
C263 H251 0.950 . S
C263 C259 1.393 . S
C263 C262 1.391 . S
H264 C272 0.950 . S
H265 C277 0.950 . S
H266 C274 0.950 . S
H267 C276 0.950 . S
H268 C278 0.950 . S
H269 C280 0.950 . S
H270 C282 0.950 . S
H271 C283 0.950 . S
C272 H264 0.950 . S
C272 C273 1.386 . S
C272 C274 1.391 . S
C273 C272 1.386 . S
C273 C277 1.393 . S
C274 H266 0.950 . S
C274 C272 1.391 . S
C274 C275 1.400 . S
C275 C274 1.400 . S
C275 C276 1.398 . S
C275 C281 1.491 . S
C276 H267 0.950 . S
C276 C275 1.398 . S
C276 C277 1.391 . S
C277 H265 0.950 . S
C277 C273 1.393 . S
C277 C276 1.391 . S
C278 H268 0.950 . S
C278 C279 1.386 . S
C278 C280 1.391 . S
C279 C278 1.386 . S
C279 C283 1.393 . S
C280 H269 0.950 . S
C280 C278 1.391 . S
C280 C281 1.400 . S
C281 C275 1.491 . S
C281 C280 1.400 . S
C281 C282 1.398 . S
C282 H270 0.950 . S
C282 C281 1.398 . S
C282 C283 1.391 . S
C283 H271 0.950 . S
C283 C279 1.393 . S
C283 C282 1.391 . S
H284 C292 0.950 . S
H285 C297 0.950 . S
H286 C294 0.950 . S
H287 C296 0.950 . S
H288 C298 0.950 . S
H289 C300 0.950 . S
H290 C302 0.950 . S
H291 C303 0.950 . S
C292 H284 0.950 . S
C292 C293 1.386 . S
C292 C294 1.391 . S
C293 C292 1.386 . S
C293 C297 1.393 . S
C294 H286 0.950 . S
C294 C292 1.391 . S
C294 C295 1.400 . S
C295 C294 1.400 . S
C295 C296 1.398 . S
C295 C301 1.491 1_455 S
C296 H287 0.950 . S
C296 C295 1.398 . S
C296 C297 1.391 . S
C297 H285 0.950 . S
C297 C293 1.393 . S
C297 C296 1.391 . S
C298 H288 0.950 . S
C298 C299 1.386 . S
C298 C300 1.391 . S
C299 C298 1.386 . S
C299 C303 1.393 . S
C300 H289 0.950 . S
C300 C298 1.391 . S
C300 C301 1.400 . S
C301 C295 1.491 1_655 S
C301 C300 1.400 . S
C301 C302 1.398 . S
C302 H290 0.950 . S
C302 C301 1.398 . S
C302 C303 1.391 . S
C303 H291 0.950 . S
C303 C299 1.393 . S
C303 C302 1.391 . S
H304 C312 0.950 . S
H305 C317 0.950 . S
H306 C314 0.950 . S
H307 C316 0.950 . S
H308 C318 0.950 . S
H309 C320 0.950 . S
H310 C322 0.950 . S
H311 C323 0.950 . S
C312 H304 0.950 . S
C312 C313 1.386 . S
C312 C314 1.391 . S
C313 C312 1.386 . S
C313 C317 1.393 . S
C314 H306 0.950 . S
C314 C312 1.391 . S
C314 C315 1.400 . S
C315 C314 1.400 . S
C315 C316 1.398 . S
C315 C321 1.491 . S
C316 H307 0.950 . S
C316 C315 1.398 . S
C316 C317 1.391 . S
C317 H305 0.950 . S
C317 C313 1.393 . S
C317 C316 1.391 . S
C318 H308 0.950 . S
C318 C319 1.386 . S
C318 C320 1.391 . S
C319 C318 1.386 . S
C319 C323 1.393 . S
C320 H309 0.950 . S
C320 C318 1.391 . S
C320 C321 1.400 . S
C321 C315 1.491 . S
C321 C320 1.400 . S
C321 C322 1.398 . S
C322 H310 0.950 . S
C322 C321 1.398 . S
C322 C323 1.391 . S
C323 H311 0.950 . S
C323 C319 1.393 . S
C323 C322 1.391 . S
H324 C332 0.950 . S
H325 C337 0.950 . S
H326 C334 0.950 . S
H327 C336 0.950 . S
H328 C338 0.950 . S
H329 C340 0.950 . S
H330 C342 0.950 . S
H331 C343 0.950 . S
C332 H324 0.950 . S
C332 C333 1.386 . S
C332 C334 1.391 . S
C333 C332 1.386 . S
C333 C337 1.393 . S
C334 H326 0.950 . S
C334 C332 1.391 . S
C334 C335 1.400 . S
C335 C334 1.400 . S
C335 C336 1.398 . S
C335 C341 1.491 1_655 S
C336 H327 0.950 . S
C336 C335 1.398 . S
C336 C337 1.391 . S
C337 H325 0.950 . S
C337 C333 1.393 . S
C337 C336 1.391 . S
C338 H328 0.950 . S
C338 C339 1.386 . S
C338 C340 1.391 . S
C339 C338 1.386 . S
C339 C343 1.393 . S
C340 H329 0.950 . S
C340 C338 1.391 . S
C340 C341 1.400 . S
C341 C335 1.491 1_455 S
C341 C340 1.400 . S
C341 C342 1.398 . S
C342 H330 0.950 . S
C342 C341 1.398 . S
C342 C343 1.391 . S
C343 H331 0.950 . S
C343 C339 1.393 . S
C343 C342 1.391 . S
H344 C352 0.950 . S
H345 C357 0.950 . S
H346 C354 0.950 . S
H347 C356 0.950 . S
H348 C358 0.950 . S
H349 C360 0.950 . S
H350 C362 0.950 . S
H351 C363 0.950 . S
C352 H344 0.950 . S
C352 C353 1.386 . S
C352 C354 1.391 . S
C353 C352 1.386 . S
C353 C357 1.393 . S
C354 H346 0.950 . S
C354 C352 1.391 . S
C354 C355 1.400 . S
C355 C354 1.400 . S
C355 C356 1.398 . S
C355 C361 1.491 . S
C356 H347 0.950 . S
C356 C355 1.398 . S
C356 C357 1.391 . S
C357 H345 0.950 . S
C357 C353 1.393 . S
C357 C356 1.391 . S
C358 H348 0.950 . S
C358 C359 1.386 . S
C358 C360 1.391 . S
C359 C358 1.386 . S
C359 C363 1.393 . S
C360 H349 0.950 . S
C360 C358 1.391 . S
C360 C361 1.400 . S
C361 C355 1.491 . S
C361 C360 1.400 . S
C361 C362 1.398 . S
C362 H350 0.950 . S
C362 C361 1.398 . S
C362 C363 1.391 . S
C363 H351 0.950 . S
C363 C359 1.393 . S
C363 C362 1.391 . S
H364 C372 0.950 . S
H365 C377 0.950 . S
H366 C374 0.950 . S
H367 C376 0.950 . S
H368 C378 0.950 . S
H369 C380 0.950 . S
H370 C382 0.950 . S
H371 C383 0.950 . S
C372 H364 0.950 . S
C372 C373 1.386 . S
C372 C374 1.391 . S
C373 C372 1.386 . S
C373 C377 1.393 . S
C374 H366 0.950 . S
C374 C372 1.391 . S
C374 C375 1.400 . S
C375 C374 1.400 . S
C375 C376 1.398 . S
C375 C381 1.491 . S
C376 H367 0.950 . S
C376 C375 1.398 . S
C376 C377 1.391 . S
C377 H365 0.950 . S
C377 C373 1.393 . S
C377 C376 1.391 . S
C378 H368 0.950 . S
C378 C379 1.386 . S
C378 C380 1.391 . S
C379 C378 1.386 . S
C379 C383 1.393 . S
C380 H369 0.950 . S
C380 C378 1.391 . S
C380 C381 1.400 . S
C381 C375 1.491 . S
C381 C380 1.400 . S
C381 C382 1.398 . S
C382 H370 0.950 . S
C382 C381 1.398 . S
C382 C383 1.391 . S
C383 H371 0.950 . S
C383 C379 1.393 . S
C383 C382 1.391 . S
H384 C392 0.950 . S
H385 C397 0.950 . S
H386 C394 0.950 . S
H387 C396 0.950 . S
H388 C398 0.950 . S
H389 C400 0.950 . S
H390 C402 0.950 . S
H391 C403 0.950 . S
C392 H384 0.950 . S
C392 C393 1.386 . S
C392 C394 1.391 . S
C393 C392 1.386 . S
C393 C397 1.393 . S
C394 H386 0.950 . S
C394 C392 1.391 . S
C394 C395 1.400 . S
C395 C394 1.400 . S
C395 C396 1.398 . S
C395 C401 1.491 . S
C396 H387 0.950 . S
C396 C395 1.398 . S
C396 C397 1.391 . S
C397 H385 0.950 . S
C397 C393 1.393 . S
C397 C396 1.391 . S
C398 H388 0.950 . S
C398 C399 1.386 . S
C398 C400 1.391 . S
C399 C398 1.386 . S
C399 C403 1.393 . S
C400 H389 0.950 . S
C400 C398 1.391 . S
C400 C401 1.400 . S
C401 C395 1.491 . S
C401 C400 1.400 . S
C401 C402 1.398 . S
C402 H390 0.950 . S
C402 C401 1.398 . S
C402 C403 1.391 . S
C403 H391 0.950 . S
C403 C399 1.393 . S
C403 C402 1.391 . S
H404 C412 0.950 . S
H405 C417 0.950 . S
H406 C414 0.950 . S
H407 C416 0.950 . S
H408 C418 0.950 . S
H409 C420 0.950 . S
H410 C422 0.950 . S
H411 C423 0.950 . S
C412 H404 0.950 . S
C412 C413 1.386 . S
C412 C414 1.391 . S
C413 C412 1.386 . S
C413 C417 1.393 . S
C414 H406 0.950 . S
C414 C412 1.391 . S
C414 C415 1.400 . S
C415 C414 1.400 . S
C415 C416 1.398 . S
C415 C421 1.491 . S
C416 H407 0.950 . S
C416 C415 1.398 . S
C416 C417 1.391 . S
C417 H405 0.950 . S
C417 C413 1.393 . S
C417 C416 1.391 . S
C418 H408 0.950 . S
C418 C419 1.386 . S
C418 C420 1.391 . S
C419 C418 1.386 . S
C419 C423 1.393 . S
C420 H409 0.950 . S
C420 C418 1.391 . S
C420 C421 1.400 . S
C421 C415 1.491 . S
C421 C420 1.400 . S
C421 C422 1.398 . S
C422 H410 0.950 . S
C422 C421 1.398 . S
C422 C423 1.391 . S
C423 H411 0.950 . S
C423 C419 1.393 . S
C423 C422 1.391 . S
H424 C432 0.950 . S
H425 C437 0.950 . S
H426 C434 0.950 . S
H427 C436 0.950 . S
H428 C438 0.950 . S
H429 C440 0.950 . S
H430 C442 0.950 . S
H431 C443 0.950 . S
C432 H424 0.950 . S
C432 C433 1.386 . S
C432 C434 1.391 . S
C433 C432 1.386 . S
C433 C437 1.393 . S
C434 H426 0.950 . S
C434 C432 1.391 . S
C434 C435 1.400 . S
C435 C434 1.400 . S
C435 C436 1.398 . S
C435 C441 1.491 . S
C436 H427 0.950 . S
C436 C435 1.398 . S
C436 C437 1.391 . S
C437 H425 0.950 . S
C437 C433 1.393 . S
C437 C436 1.391 . S
C438 H428 0.950 . S
C438 C439 1.386 . S
C438 C440 1.391 . S
C439 C438 1.386 . S
C439 C443 1.393 . S
C440 H429 0.950 . S
C440 C438 1.391 . S
C440 C441 1.400 . S
C441 C435 1.491 . S
C441 C440 1.400 . S
C441 C442 1.398 . S
C442 H430 0.950 . S
C442 C441 1.398 . S
C442 C443 1.391 . S
C443 H431 0.950 . S
C443 C439 1.393 . S
C443 C442 1.391 . S
H444 C452 0.950 . S
H445 C457 0.950 . S
H446 C454 0.950 . S
H447 C456 0.950 . S
H448 C458 0.950 . S
H449 C460 0.950 . S
H450 C462 0.950 . S
H451 C463 0.950 . S
C452 H444 0.950 . S
C452 C453 1.386 . S
C452 C454 1.391 . S
C453 C452 1.386 . S
C453 C457 1.393 . S
C454 H446 0.950 . S
C454 C452 1.391 . S
C454 C455 1.400 . S
C455 C454 1.400 . S
C455 C456 1.398 . S
C455 C461 1.491 . S
C456 H447 0.950 . S
C456 C455 1.398 . S
C456 C457 1.391 . S
C457 H445 0.950 . S
C457 C453 1.393 . S
C457 C456 1.391 . S
C458 H448 0.950 . S
C458 C459 1.386 . S
C458 C460 1.391 . S
C459 C458 1.386 . S
C459 C463 1.393 . S
C460 H449 0.950 . S
C460 C458 1.391 . S
C460 C461 1.400 . S
C461 C455 1.491 . S
C461 C460 1.400 . S
C461 C462 1.398 . S
C462 H450 0.950 . S
C462 C461 1.398 . S
C462 C463 1.391 . S
C463 H451 0.950 . S
C463 C459 1.393 . S
C463 C462 1.391 . S
H464 C472 0.950 . S
H465 C477 0.950 . S
H466 C474 0.950 . S
H467 C476 0.950 . S
H468 C478 0.950 . S
H469 C480 0.950 . S
H470 C482 0.950 . S
H471 C483 0.950 . S
C472 H464 0.950 . S
C472 C473 1.386 . S
C472 C474 1.391 . S
C473 C472 1.386 . S
C473 C477 1.393 . S
C474 H466 0.950 . S
C474 C472 1.391 . S
C474 C475 1.400 . S
C475 C474 1.400 . S
C475 C476 1.398 . S
C475 C481 1.491 1_455 S
C476 H467 0.950 . S
C476 C475 1.398 . S
C476 C477 1.391 . S
C477 H465 0.950 . S
C477 C473 1.393 . S
C477 C476 1.391 . S
C478 H468 0.950 . S
C478 C479 1.386 . S
C478 C480 1.391 . S
C479 C478 1.386 . S
C479 C483 1.393 . S
C480 H469 0.950 . S
C480 C478 1.391 . S
C480 C481 1.400 . S
C481 C475 1.491 1_655 S
C481 C480 1.400 . S
C481 C482 1.398 . S
C482 H470 0.950 . S
C482 C481 1.398 . S
C482 C483 1.391 . S
C483 H471 0.950 . S
C483 C479 1.393 . S
C483 C482 1.391 . S
H484 C492 0.950 . S
H485 C497 0.950 . S
H486 C494 0.950 . S
H487 C496 0.950 . S
H488 C498 0.950 . S
H489 C500 0.950 . S
H490 C502 0.950 . S
H491 C503 0.950 . S
C492 H484 0.950 . S
C492 C493 1.386 . S
C492 C494 1.391 . S
C493 C492 1.386 . S
C493 C497 1.393 . S
C494 H486 0.950 . S
C494 C492 1.391 . S
C494 C495 1.400 . S
C495 C494 1.400 . S
C495 C496 1.398 . S
C495 C501 1.491 . S
C496 H487 0.950 . S
C496 C495 1.398 . S
C496 C497 1.391 . S
C497 H485 0.950 . S
C497 C493 1.393 . S
C497 C496 1.391 . S
C498 H488 0.950 . S
C498 C499 1.386 . S
C498 C500 1.391 . S
C499 C498 1.386 . S
C499 C503 1.393 . S
C500 H489 0.950 . S
C500 C498 1.391 . S
C500 C501 1.400 . S
C501 C495 1.491 . S
C501 C500 1.400 . S
C501 C502 1.398 . S
C502 H490 0.950 . S
C502 C501 1.398 . S
C502 C503 1.391 . S
C503 H491 0.950 . S
C503 C499 1.393 . S
C503 C502 1.391 . S
H504 C512 0.950 . S
H505 C517 0.950 . S
H506 C514 0.950 . S
H507 C516 0.950 . S
H508 C518 0.950 . S
H509 C520 0.950 . S
H510 C522 0.950 . S
H511 C523 0.950 . S
C512 H504 0.950 . S
C512 C513 1.386 . S
C512 C514 1.391 . S
C513 C512 1.386 . S
C513 C517 1.393 . S
C514 H506 0.950 . S
C514 C512 1.391 . S
C514 C515 1.400 . S
C515 C514 1.400 . S
C515 C516 1.398 . S
C515 C521 1.491 . S
C516 H507 0.950 . S
C516 C515 1.398 . S
C516 C517 1.391 . S
C517 H505 0.950 . S
C517 C513 1.393 . S
C517 C516 1.391 . S
C518 H508 0.950 . S
C518 C519 1.386 . S
C518 C520 1.391 . S
C519 C518 1.386 . S
C519 C523 1.393 . S
C520 H509 0.950 . S
C520 C518 1.391 . S
C520 C521 1.400 . S
C521 C515 1.491 . S
C521 C520 1.400 . S
C521 C522 1.398 . S
C522 H510 0.950 . S
C522 C521 1.398 . S
C522 C523 1.391 . S
C523 H511 0.950 . S
C523 C519 1.393 . S
C523 C522 1.391 . S
H524 C532 0.950 . S
H525 C537 0.950 . S
H526 C534 0.950 . S
H527 C536 0.950 . S
H528 C538 0.950 . S
H529 C540 0.950 . S
H530 C542 0.950 . S
H531 C543 0.950 . S
C532 H524 0.950 . S
C532 C533 1.386 . S
C532 C534 1.391 . S
C533 C532 1.386 . S
C533 C537 1.393 . S
C534 H526 0.950 . S
C534 C532 1.391 . S
C534 C535 1.400 . S
C535 C534 1.400 . S
C535 C536 1.398 . S
C535 C541 1.491 1_455 S
C536 H527 0.950 . S
C536 C535 1.398 . S
C536 C537 1.391 . S
C537 H525 0.950 . S
C537 C533 1.393 . S
C537 C536 1.391 . S
C538 H528 0.950 . S
C538 C539 1.386 . S
C538 C540 1.391 . S
C539 C538 1.386 . S
C539 C543 1.393 . S
C540 H529 0.950 . S
C540 C538 1.391 . S
C540 C541 1.400 . S
C541 C535 1.491 1_655 S
C541 C540 1.400 . S
C541 C542 1.398 . S
C542 H530 0.950 . S
C542 C541 1.398 . S
C542 C543 1.391 . S
C543 H531 0.950 . S
C543 C539 1.393 . S
C543 C542 1.391 . S
H544 C552 0.950 . S
H545 C557 0.950 . S
H546 C554 0.950 . S
H547 C556 0.950 1_556 S
H548 C558 0.950 . S
H549 C560 0.950 . S
H550 C562 0.950 1_554 S
H551 C563 0.950 . S
C552 H544 0.950 . S
C552 C553 1.386 . S
C552 C554 1.391 . S
C553 C552 1.386 . S
C553 C557 1.393 . S
C554 H546 0.950 . S
C554 C552 1.391 . S
C554 C555 1.400 . S
C555 C554 1.400 . S
C555 C556 1.398 . S
C555 C561 1.491 1_554 S
C556 H547 0.950 1_554 S
C556 C555 1.398 . S
C556 C557 1.391 . S
C557 H545 0.950 . S
C557 C553 1.393 . S
C557 C556 1.391 . S
C558 H548 0.950 . S
C558 C559 1.386 . S
C558 C560 1.391 . S
C559 C558 1.386 . S
C559 C563 1.393 . S
C560 H549 0.950 . S
C560 C558 1.391 . S
C560 C561 1.400 . S
C561 C555 1.491 1_556 S
C561 C560 1.400 . S
C561 C562 1.398 . S
C562 H550 0.950 1_556 S
C562 C561 1.398 . S
C562 C563 1.391 . S
C563 H551 0.950 . S
C563 C559 1.393 . S
C563 C562 1.391 . S
H564 C572 0.950 . S
H565 C577 0.950 . S
H566 C574 0.950 . S
H567 C576 0.950 . S
H568 C578 0.950 . S
H569 C580 0.950 . S
H570 C582 0.950 . S
H571 C583 0.950 . S
C572 H564 0.950 . S
C572 C573 1.386 . S
C572 C574 1.391 . S
C573 C572 1.386 . S
C573 C577 1.393 . S
C574 H566 0.950 . S
C574 C572 1.391 . S
C574 C575 1.400 . S
C575 C574 1.400 . S
C575 C576 1.398 . S
C575 C581 1.491 . S
C576 H567 0.950 . S
C576 C575 1.398 . S
C576 C577 1.391 . S
C577 H565 0.950 . S
C577 C573 1.393 . S
C577 C576 1.391 . S
C578 H568 0.950 . S
C578 C579 1.386 . S
C578 C580 1.391 . S
C579 C578 1.386 . S
C579 C583 1.393 . S
C580 H569 0.950 . S
C580 C578 1.391 . S
C580 C581 1.400 . S
C581 C575 1.491 . S
C581 C580 1.400 . S
C581 C582 1.398 . S
C582 H570 0.950 . S
C582 C581 1.398 . S
C582 C583 1.391 . S
C583 H571 0.950 . S
C583 C579 1.393 . S
C583 C582 1.391 . S
H584 C592 0.950 . S
H585 C597 0.950 . S
H586 C594 0.950 . S
H587 C596 0.950 . S
H588 C598 0.950 . S
H589 C600 0.950 . S
H590 C602 0.950 . S
H591 C603 0.950 . S
C592 H584 0.950 . S
C592 C593 1.386 . S
C592 C594 1.391 . S
C593 C592 1.386 . S
C593 C597 1.393 . S
C594 H586 0.950 . S
C594 C592 1.391 . S
C594 C595 1.400 . S
C595 C594 1.400 . S
C595 C596 1.398 . S
C595 C601 1.491 . S
C596 H587 0.950 . S
C596 C595 1.398 . S
C596 C597 1.391 . S
C597 H585 0.950 . S
C597 C593 1.393 . S
C597 C596 1.391 . S
C598 H588 0.950 . S
C598 C599 1.386 . S
C598 C600 1.391 . S
C599 C598 1.386 . S
C599 C603 1.393 . S
C600 H589 0.950 . S
C600 C598 1.391 . S
C600 C601 1.400 . S
C601 C595 1.491 . S
C601 C600 1.400 . S
C601 C602 1.398 . S
C602 H590 0.950 . S
C602 C601 1.398 . S
C602 C603 1.391 . S
C603 H591 0.950 . S
C603 C599 1.393 . S
C603 C602 1.391 . S
H604 C612 0.950 . S
H605 C617 0.950 . S
H606 C614 0.950 . S
H607 C616 0.950 . S
H608 C618 0.950 . S
H609 C620 0.950 . S
H610 C622 0.950 . S
H611 C623 0.950 . S
C612 H604 0.950 . S
C612 C613 1.386 . S
C612 C614 1.391 . S
C613 C612 1.386 . S
C613 C617 1.393 . S
C614 H606 0.950 . S
C614 C612 1.391 . S
C614 C615 1.400 . S
C615 C614 1.400 . S
C615 C616 1.398 . S
C615 C621 1.491 . S
C616 H607 0.950 . S
C616 C615 1.398 . S
C616 C617 1.391 . S
C617 H605 0.950 . S
C617 C613 1.393 . S
C617 C616 1.391 . S
C618 H608 0.950 . S
C618 C619 1.386 . S
C618 C620 1.391 . S
C619 C618 1.386 . S
C619 C623 1.393 . S
C620 H609 0.950 . S
C620 C618 1.391 . S
C620 C621 1.400 . S
C621 C615 1.491 . S
C621 C620 1.400 . S
C621 C622 1.398 . S
C622 H610 0.950 . S
C622 C621 1.398 . S
C622 C623 1.391 . S
C623 H611 0.950 . S
C623 C619 1.393 . S
C623 C622 1.391 . S
H624 C632 0.950 . S
H625 C637 0.950 . S
H626 C634 0.950 . S
H627 C636 0.950 1_554 S
H628 C638 0.950 . S
H629 C640 0.950 . S
H630 C642 0.950 1_556 S
H631 C643 0.950 . S
C632 H624 0.950 . S
C632 C633 1.386 . S
C632 C634 1.391 . S
C633 C632 1.386 . S
C633 C637 1.393 . S
C634 H626 0.950 . S
C634 C632 1.391 . S
C634 C635 1.400 . S
C635 C634 1.400 . S
C635 C636 1.398 . S
C635 C641 1.491 1_556 S
C636 H627 0.950 1_556 S
C636 C635 1.398 . S
C636 C637 1.391 . S
C637 H625 0.950 . S
C637 C633 1.393 . S
C637 C636 1.391 . S
C638 H628 0.950 . S
C638 C639 1.386 . S
C638 C640 1.391 . S
C639 C638 1.386 . S
C639 C643 1.393 . S
C640 H629 0.950 . S
C640 C638 1.391 . S
C640 C641 1.400 . S
C641 C635 1.491 1_554 S
C641 C640 1.400 . S
C641 C642 1.398 . S
C642 H630 0.950 1_554 S
C642 C641 1.398 . S
C642 C643 1.391 . S
C643 H631 0.950 . S
C643 C639 1.393 . S
C643 C642 1.391 . S
H644 C652 0.950 . S
H645 C657 0.950 . S
H646 C654 0.950 . S
H647 C656 0.950 . S
H648 C658 0.950 . S
H649 C660 0.950 . S
H650 C662 0.950 . S
H651 C663 0.950 . S
C652 H644 0.950 . S
C652 C653 1.386 . S
C652 C654 1.391 . S
C653 C652 1.386 . S
C653 C657 1.393 . S
C654 H646 0.950 . S
C654 C652 1.391 . S
C654 C655 1.400 . S
C655 C654 1.400 . S
C655 C656 1.398 . S
C655 C661 1.491 . S
C656 H647 0.950 . S
C656 C655 1.398 . S
C656 C657 1.391 . S
C657 H645 0.950 . S
C657 C653 1.393 . S
C657 C656 1.391 . S
C658 H648 0.950 . S
C658 C659 1.386 . S
C658 C660 1.391 . S
C659 C658 1.386 . S
C659 C663 1.393 . S
C660 H649 0.950 . S
C660 C658 1.391 . S
C660 C661 1.400 . S
C661 C655 1.491 . S
C661 C660 1.400 . S
C661 C662 1.398 . S
C662 H650 0.950 . S
C662 C661 1.398 . S
C662 C663 1.391 . S
C663 H651 0.950 . S
C663 C659 1.393 . S
C663 C662 1.391 . S
H664 C672 0.950 . S
H665 C677 0.950 . S
H666 C674 0.950 . S
H667 C676 0.950 . S
H668 C678 0.950 . S
H669 C680 0.950 . S
H670 C682 0.950 . S
H671 C683 0.950 . S
C672 H664 0.950 . S
C672 C673 1.386 . S
C672 C674 1.391 . S
C673 C672 1.386 . S
C673 C677 1.393 . S
C674 H666 0.950 . S
C674 C672 1.391 . S
C674 C675 1.400 . S
C675 C674 1.400 . S
C675 C676 1.398 . S
C675 C681 1.491 . S
C676 H667 0.950 . S
C676 C675 1.398 . S
C676 C677 1.391 . S
C677 H665 0.950 . S
C677 C673 1.393 . S
C677 C676 1.391 . S
C678 H668 0.950 . S
C678 C679 1.386 . S
C678 C680 1.391 . S
C679 C678 1.386 . S
C679 C683 1.393 . S
C680 H669 0.950 . S
C680 C678 1.391 . S
C680 C681 1.400 . S
C681 C675 1.491 . S
C681 C680 1.400 . S
C681 C682 1.398 . S
C682 H670 0.950 . S
C682 C681 1.398 . S
C682 C683 1.391 . S
C683 H671 0.950 . S
C683 C679 1.393 . S
C683 C682 1.391 . S
H684 C692 0.950 . S
H685 C697 0.950 . S
H686 C694 0.950 . S
H687 C696 0.950 . S
H688 C698 0.950 . S
H689 C700 0.950 . S
H690 C702 0.950 . S
H691 C703 0.950 . S
C692 H684 0.950 . S
C692 C693 1.386 . S
C692 C694 1.391 . S
C693 C692 1.386 . S
C693 C697 1.393 . S
C694 H686 0.950 . S
C694 C692 1.391 . S
C694 C695 1.400 . S
C695 C694 1.400 . S
C695 C696 1.398 . S
C695 C701 1.491 . S
C696 H687 0.950 . S
C696 C695 1.398 . S
C696 C697 1.391 . S
C697 H685 0.950 . S
C697 C693 1.393 . S
C697 C696 1.391 . S
C698 H688 0.950 . S
C698 C699 1.386 . S
C698 C700 1.391 . S
C699 C698 1.386 . S
C699 C703 1.393 . S
C700 H689 0.950 . S
C700 C698 1.391 . S
C700 C701 1.400 . S
C701 C695 1.491 . S
C701 C700 1.400 . S
C701 C702 1.398 . S
C702 H690 0.950 . S
C702 C701 1.398 . S
C702 C703 1.391 . S
C703 H691 0.950 . S
C703 C699 1.393 . S
C703 C702 1.391 . S
H704 C712 0.950 . S
H705 C717 0.950 . S
H706 C714 0.950 . S
H707 C716 0.950 . S
H708 C718 0.950 . S
H709 C720 0.950 . S
H710 C722 0.950 . S
H711 C723 0.950 . S
C712 H704 0.950 . S
C712 C713 1.386 . S
C712 C714 1.391 . S
C713 C712 1.386 . S
C713 C717 1.393 . S
C714 H706 0.950 . S
C714 C712 1.391 . S
C714 C715 1.400 . S
C715 C714 1.400 . S
C715 C716 1.398 . S
C715 C721 1.491 1_545 S
C716 H707 0.950 . S
C716 C715 1.398 . S
C716 C717 1.391 . S
C717 H705 0.950 . S
C717 C713 1.393 . S
C717 C716 1.391 . S
C718 H708 0.950 . S
C718 C719 1.386 . S
C718 C720 1.391 . S
C719 C718 1.386 . S
C719 C723 1.393 . S
C720 H709 0.950 . S
C720 C718 1.391 . S
C720 C721 1.400 . S
C721 C715 1.491 1_565 S
C721 C720 1.400 . S
C721 C722 1.398 . S
C722 H710 0.950 . S
C722 C721 1.398 . S
C722 C723 1.391 . S
C723 H711 0.950 . S
C723 C719 1.393 . S
C723 C722 1.391 . S
H724 C732 0.950 . S
H725 C737 0.950 . S
H726 C734 0.950 . S
H727 C736 0.950 . S
H728 C738 0.950 . S
H729 C740 0.950 . S
H730 C742 0.950 . S
H731 C743 0.950 . S
C732 H724 0.950 . S
C732 C733 1.386 . S
C732 C734 1.391 . S
C733 C732 1.386 . S
C733 C737 1.393 . S
C734 H726 0.950 . S
C734 C732 1.391 . S
C734 C735 1.400 . S
C735 C734 1.400 . S
C735 C736 1.398 . S
C735 C741 1.491 . S
C736 H727 0.950 . S
C736 C735 1.398 . S
C736 C737 1.391 . S
C737 H725 0.950 . S
C737 C733 1.393 . S
C737 C736 1.391 . S
C738 H728 0.950 . S
C738 C739 1.386 . S
C738 C740 1.391 . S
C739 C738 1.386 . S
C739 C743 1.393 . S
C740 H729 0.950 . S
C740 C738 1.391 . S
C740 C741 1.400 . S
C741 C735 1.491 . S
C741 C740 1.400 . S
C741 C742 1.398 . S
C742 H730 0.950 . S
C742 C741 1.398 . S
C742 C743 1.391 . S
C743 H731 0.950 . S
C743 C739 1.393 . S
C743 C742 1.391 . S
H744 C752 0.950 . S
H745 C757 0.950 . S
H746 C754 0.950 . S
H747 C756 0.950 1_565 S
H748 C758 0.950 . S
H749 C760 0.950 1_556 S
H750 C762 0.950 1_545 S
H751 C763 0.950 . S
C752 H744 0.950 . S
C752 C753 1.386 . S
C752 C754 1.391 1_556 S
C753 C752 1.386 . S
C753 C757 1.393 . S
C754 H746 0.950 . S
C754 C752 1.391 1_554 S
C754 C755 1.400 1_554 S
C755 C754 1.400 1_556 S
C755 C756 1.398 . S
C755 C761 1.491 1_546 S
C756 H747 0.950 1_545 S
C756 C755 1.398 . S
C756 C757 1.391 . S
C757 H745 0.950 . S
C757 C753 1.393 . S
C757 C756 1.391 . S
C758 H748 0.950 . S
C758 C759 1.386 . S
C758 C760 1.391 . S
C759 C758 1.386 . S
C759 C763 1.393 . S
C760 H749 0.950 1_554 S
C760 C758 1.391 . S
C760 C761 1.400 . S
C761 C755 1.491 1_564 S
C761 C760 1.400 . S
C761 C762 1.398 . S
C762 H750 0.950 1_565 S
C762 C761 1.398 . S
C762 C763 1.391 . S
C763 H751 0.950 . S
C763 C759 1.393 . S
C763 C762 1.391 . S
H764 C772 0.950 . S
H765 C777 0.950 . S
H766 C774 0.950 . S
H767 C776 0.950 . S
H768 C778 0.950 . S
H769 C780 0.950 . S
H770 C782 0.950 . S
H771 C783 0.950 . S
C772 H764 0.950 . S
C772 C773 1.386 . S
C772 C774 1.391 . S
C773 C772 1.386 . S
C773 C777 1.393 . S
C774 H766 0.950 . S
C774 C772 1.391 . S
C774 C775 1.400 . S
C775 C774 1.400 . S
C775 C776 1.398 . S
C775 C781 1.491 . S
C776 H767 0.950 . S
C776 C775 1.398 . S
C776 C777 1.391 . S
C777 H765 0.950 . S
C777 C773 1.393 . S
C777 C776 1.391 . S
C778 H768 0.950 . S
C778 C779 1.386 . S
C778 C780 1.391 . S
C779 C778 1.386 . S
C779 C783 1.393 . S
C780 H769 0.950 . S
C780 C778 1.391 . S
C780 C781 1.400 . S
C781 C775 1.491 . S
C781 C780 1.400 . S
C781 C782 1.398 . S
C782 H770 0.950 . S
C782 C781 1.398 . S
C782 C783 1.391 . S
C783 H771 0.950 . S
C783 C779 1.393 . S
C783 C782 1.391 . S
H784 C792 0.950 . S
H785 C797 0.950 . S
H786 C794 0.950 . S
H787 C796 0.950 . S
H788 C798 0.950 . S
H789 C800 0.950 1_545 S
H790 C802 0.950 . S
H791 C803 0.950 . S
C792 H784 0.950 . S
C792 C793 1.386 . S
C792 C794 1.391 . S
C793 C792 1.386 . S
C793 C797 1.393 . S
C794 H786 0.950 . S
C794 C792 1.391 . S
C794 C795 1.400 . S
C795 C794 1.400 . S
C795 C796 1.398 . S
C795 C801 1.491 1_545 S
C796 H787 0.950 . S
C796 C795 1.398 . S
C796 C797 1.391 . S
C797 H785 0.950 . S
C797 C793 1.393 . S
C797 C796 1.391 . S
C798 H788 0.950 . S
C798 C799 1.386 . S
C798 C800 1.391 . S
C799 C798 1.386 . S
C799 C803 1.393 . S
C800 H789 0.950 1_565 S
C800 C798 1.391 . S
C800 C801 1.400 . S
C801 C795 1.491 1_565 S
C801 C800 1.400 . S
C801 C802 1.398 . S
C802 H790 0.950 . S
C802 C801 1.398 . S
C802 C803 1.391 . S
C803 H791 0.950 . S
C803 C799 1.393 . S
C803 C802 1.391 . S
H804 C812 0.950 . S
H805 C817 0.950 . S
H806 C814 0.950 . S
H807 C816 0.950 . S
H808 C818 0.950 . S
H809 C820 0.950 . S
H810 C822 0.950 . S
H811 C823 0.950 . S
C812 H804 0.950 . S
C812 C813 1.386 . S
C812 C814 1.391 . S
C813 C812 1.386 . S
C813 C817 1.393 . S
C814 H806 0.950 . S
C814 C812 1.391 . S
C814 C815 1.400 . S
C815 C814 1.400 . S
C815 C816 1.398 . S
C815 C821 1.491 . S
C816 H807 0.950 . S
C816 C815 1.398 . S
C816 C817 1.391 . S
C817 H805 0.950 . S
C817 C813 1.393 . S
C817 C816 1.391 . S
C818 H808 0.950 . S
C818 C819 1.386 . S
C818 C820 1.391 . S
C819 C818 1.386 . S
C819 C823 1.393 . S
C820 H809 0.950 . S
C820 C818 1.391 . S
C820 C821 1.400 . S
C821 C815 1.491 . S
C821 C820 1.400 . S
C821 C822 1.398 . S
C822 H810 0.950 . S
C822 C821 1.398 . S
C822 C823 1.391 . S
C823 H811 0.950 . S
C823 C819 1.393 . S
C823 C822 1.391 . S
H824 C832 0.950 . S
H825 C837 0.950 . S
H826 C834 0.950 1_545 S
H827 C836 0.950 1_556 S
H828 C838 0.950 . S
H829 C840 0.950 . S
H830 C842 0.950 1_554 S
H831 C843 0.950 . S
C832 H824 0.950 . S
C832 C833 1.386 . S
C832 C834 1.391 . S
C833 C832 1.386 . S
C833 C837 1.393 . S
C834 H826 0.950 1_565 S
C834 C832 1.391 . S
C834 C835 1.400 . S
C835 C834 1.400 . S
C835 C836 1.398 . S
C835 C841 1.491 1_564 S
C836 H827 0.950 1_554 S
C836 C835 1.398 . S
C836 C837 1.391 . S
C837 H825 0.950 . S
C837 C833 1.393 . S
C837 C836 1.391 . S
C838 H828 0.950 . S
C838 C839 1.386 . S
C838 C840 1.391 . S
C839 C838 1.386 . S
C839 C843 1.393 . S
C840 H829 0.950 . S
C840 C838 1.391 . S
C840 C841 1.400 . S
C841 C835 1.491 1_546 S
C841 C840 1.400 . S
C841 C842 1.398 . S
C842 H830 0.950 1_556 S
C842 C841 1.398 . S
C842 C843 1.391 . S
C843 H831 0.950 . S
C843 C839 1.393 . S
C843 C842 1.391 . S
H844 C852 0.950 . S
H845 C857 0.950 . S
H846 C854 0.950 . S
H847 C856 0.950 . S
H848 C858 0.950 . S
H849 C860 0.950 . S
H850 C862 0.950 . S
H851 C863 0.950 . S
C852 H844 0.950 . S
C852 C853 1.386 . S
C852 C854 1.391 . S
C853 C852 1.386 . S
C853 C857 1.393 . S
C854 H846 0.950 . S
C854 C852 1.391 . S
C854 C855 1.400 . S
C855 C854 1.400 . S
C855 C856 1.398 . S
C855 C861 1.491 . S
C856 H847 0.950 . S
C856 C855 1.398 . S
C856 C857 1.391 . S
C857 H845 0.950 . S
C857 C853 1.393 . S
C857 C856 1.391 . S
C858 H848 0.950 . S
C858 C859 1.386 . S
C858 C860 1.391 . S
C859 C858 1.386 . S
C859 C863 1.393 . S
C860 H849 0.950 . S
C860 C858 1.391 . S
C860 C861 1.400 . S
C861 C855 1.491 . S
C861 C860 1.400 . S
C861 C862 1.398 . S
C862 H850 0.950 . S
C862 C861 1.398 . S
C862 C863 1.391 . S
C863 H851 0.950 . S
C863 C859 1.393 . S
C863 C862 1.391 . S
C233 C163 1.408 . S
C239 C7 1.400 . S
C253 C217 1.377 . S
C259 C23 1.356 . S
C273 C35 1.392 . S
C279 C133 1.409 . S
C293 C191 1.257 . S
C299 C51 1.275 . S
C313 C63 1.393 . S
C319 C189 1.384 . S
C333 C79 1.361 . S
C339 C161 1.377 . S
C353 C91 1.422 . S
C359 C219 1.410 . S
C373 C107 1.251 . S
C379 C135 1.249 . S
C393 C49 1.424 . S
C399 C119 1.440 . S
C413 C149 1.367 . S
C419 C21 1.361 . S
C433 C175 1.446 . S
C439 C77 1.461 . S
C453 C205 1.352 . S
C459 C105 1.359 . S
C473 C65 1.307 . S
C479 C121 1.330 . S
C493 C147 1.317 . S
C499 C93 1.283 . S
C513 C203 1.318 . S
C519 C37 1.314 . S
C533 C9 1.294 . S
C539 C177 1.324 . S
C553 C3 1.314 . S
C559 C59 1.318 . S
C573 C22 1.283 . S
C579 C78 1.284 . S
C593 C31 1.430 . S
C599 C87 1.426 . S
C613 C106 1.224 . S
C619 C50 1.230 . S
C633 C115 1.361 . S
C639 C171 1.356 . S
C653 C190 1.207 . S
C659 C134 1.209 . S
C673 C148 1.262 . S
C679 C204 1.261 . S
C693 C213 1.335 . S
C699 C157 1.341 . S
C713 C101 1.361 . S
C719 C17 1.363 . S
C733 C36 1.304 . S
C739 C64 1.307 . S
C753 C45 1.379 . S
C759 C73 1.375 . S
C773 C8 1.206 . S
C779 C92 1.208 . S
C793 C129 1.305 . S
C799 C218 1.304 . S
C813 C176 1.289 . S
C819 C143 1.282 . S
C833 C162 1.325 . S
C839 C185 1.311 . S
C853 C199 1.259 . S
C859 C120 1.268 . S
