# Generated by pormake.
# Topology hjm, (4)-cn, num edge types: 1
# Building blocks:
#     Node 0, Type 0, BuildingBlock: GALJAG_clean_sbu_0, # of connection points: 4
#     Node 1, Type 0, BuildingBlock: GALJAG_clean_sbu_0, # of connection points: 4
#     Node 2, Type 0, BuildingBlock: GALJAG_clean_sbu_0, # of connection points: 4
#     Node 3, Type 0, BuildingBlock: GALJAG_clean_sbu_0, # of connection points: 4
#     Node 4, Type 0, BuildingBlock: GALJAG_clean_sbu_0, # of connection points: 4
#     Node 5, Type 0, BuildingBlock: GALJAG_clean_sbu_0, # of connection points: 4
#     Node 6, Type 0, BuildingBlock: GALJAG_clean_sbu_0, # of connection points: 4
#     Node 7, Type 0, BuildingBlock: GALJAG_clean_sbu_0, # of connection points: 4
#     Edge 8, Type (0, 0), BuildingBlock: FUNLAD_clean_linker_1, # of connection points: 2
#     Edge 9, Type (0, 0), BuildingBlock: FUNLAD_clean_linker_1, # of connection points: 2
#     Edge 10, Type (0, 0), BuildingBlock: FUNLAD_clean_linker_1, # of connection points: 2
#     Edge 11, Type (0, 0), BuildingBlock: FUNLAD_clean_linker_1, # of connection points: 2
#     Edge 12, Type (0, 0), BuildingBlock: FUNLAD_clean_linker_1, # of connection points: 2
#     Edge 13, Type (0, 0), BuildingBlock: FUNLAD_clean_linker_1, # of connection points: 2
#     Edge 14, Type (0, 0), BuildingBlock: FUNLAD_clean_linker_1, # of connection points: 2
#     Edge 15, Type (0, 0), BuildingBlock: FUNLAD_clean_linker_1, # of connection points: 2
#     Edge 16, Type (0, 0), BuildingBlock: FUNLAD_clean_linker_1, # of connection points: 2
#     Edge 17, Type (0, 0), BuildingBlock: FUNLAD_clean_linker_1, # of connection points: 2
#     Edge 18, Type (0, 0), BuildingBlock: FUNLAD_clean_linker_1, # of connection points: 2
#     Edge 19, Type (0, 0), BuildingBlock: FUNLAD_clean_linker_1, # of connection points: 2
#     Edge 20, Type (0, 0), BuildingBlock: FUNLAD_clean_linker_1, # of connection points: 2
#     Edge 21, Type (0, 0), BuildingBlock: FUNLAD_clean_linker_1, # of connection points: 2
#     Edge 22, Type (0, 0), BuildingBlock: FUNLAD_clean_linker_1, # of connection points: 2
#     Edge 23, Type (0, 0), BuildingBlock: FUNLAD_clean_linker_1, # of connection points: 2
# Relax obj value: 0.069
# Max RMSD: 0.136
# Mean RMSD: 0.136
data_MOF--net-hjm--node1-GALJAG_clean_sbu_0--edge1-FUNLAD_clean_linker_1
_symmetry_space_group_name_H-M    P1
_symmetry_Int_Tables_number       1
_symmetry_cell_setting            triclinic
loop_
_symmetry_equiv_pos_as_xyz
'x, y, z'
_cell_length_a     26.268404
_cell_length_b     21.986537
_cell_length_c     26.379157
_cell_angle_alpha  90.01006
_cell_angle_beta   68.616724
_cell_angle_gamma 89.949401
loop_
_atom_site_label
_atom_site_type_symbol
_atom_site_fract_x
_atom_site_fract_y
_atom_site_fract_z
_atom_type_partial_charge
In0 In 0.20072 0.22682 0.30467 0.0
O1 O 0.13687 0.30268 0.32961 0.0
O2 O 0.1909 0.29554 0.37281 0.0
C3 C 0.21378 0.22222 0.19794 0.0
C4 C 0.13666 0.13305 0.35791 0.0
C5 C 0.30418 0.23143 0.30206 0.0
O6 O 0.19723 0.26901 0.22676 0.0
O7 O 0.22263 0.17701 0.22291 0.0
O8 O 0.26868 0.1962 0.33323 0.0
O9 O 0.28742 0.26558 0.27293 0.0
C10 C 0.15106 0.32286 0.36725 0.0
O11 O 0.1879 0.12907 0.3367 0.0
O12 O 0.11735 0.18341 0.35088 0.0
In13 In 0.82453 0.25174 0.21692 0.0
O14 O 0.82639 0.35606 0.21203 0.0
O15 O 0.88651 0.30665 0.14935 0.0
C16 C 0.81655 0.24239 0.32129 0.0
C17 C 0.89247 0.16035 0.16561 0.0
C18 C 0.7226 0.24831 0.21419 0.0
O19 O 0.83424 0.28979 0.29337 0.0
O20 O 0.80426 0.19935 0.29629 0.0
O21 O 0.76469 0.25178 0.17159 0.0
O22 O 0.73185 0.2454 0.25768 0.0
C23 C 0.86711 0.35782 0.16805 0.0
O24 O 0.84534 0.16619 0.16376 0.0
O25 O 0.90464 0.19932 0.19435 0.0
In26 In 0.81398 0.72871 0.67272 0.0
O27 O 0.88334 0.65969 0.64093 0.0
O28 O 0.82354 0.66006 0.60432 0.0
C29 C 0.81581 0.72838 0.77445 0.0
C30 C 0.86222 0.8314 0.62087 0.0
C31 C 0.70547 0.72338 0.69323 0.0
O32 O 0.80983 0.68074 0.75066 0.0
O33 O 0.82294 0.7762 0.74637 0.0
O34 O 0.73811 0.75235 0.65339 0.0
O35 O 0.7276 0.69534 0.72145 0.0
C36 C 0.86714 0.63726 0.60551 0.0
O37 O 0.81182 0.82847 0.6488 0.0
O38 O 0.88861 0.78322 0.62007 0.0
In39 In 0.18472 0.75145 0.83086 0.0
O40 O 0.16451 0.82522 0.89619 0.0
O41 O 0.12996 0.83351 0.83508 0.0
C42 C 0.28387 0.72949 0.83608 0.0
C43 C 0.11656 0.66295 0.88755 0.0
C44 C 0.20192 0.75507 0.72344 0.0
O45 O 0.26836 0.78228 0.82954 0.0
O46 O 0.249 0.68826 0.84161 0.0
O47 O 0.15755 0.73695 0.75853 0.0
O48 O 0.23718 0.77216 0.74238 0.0
C49 C 0.13345 0.85463 0.87811 0.0
O50 O 0.15111 0.65431 0.84026 0.0
O51 O 0.11671 0.71561 0.9063 0.0
In52 In 0.68817 0.70668 0.29602 0.0
O53 O 0.62568 0.78449 0.31422 0.0
O54 O 0.66534 0.76879 0.37025 0.0
C55 C 0.70352 0.68234 0.19169 0.0
C56 C 0.6258 0.61201 0.34882 0.0
C57 C 0.79418 0.73243 0.27695 0.0
O58 O 0.68353 0.73214 0.21423 0.0
O59 O 0.71437 0.64422 0.2221 0.0
O60 O 0.76809 0.69343 0.31205 0.0
O61 O 0.76683 0.75852 0.2528 0.0
C62 C 0.63065 0.79932 0.35839 0.0
O63 O 0.67253 0.62175 0.35068 0.0
O64 O 0.61147 0.64889 0.32001 0.0
In65 In 0.30741 0.82308 0.20586 0.0
O66 O 0.37312 0.88998 0.207 0.0
O67 O 0.32583 0.91346 0.15943 0.0
C68 C 0.30826 0.79576 0.30549 0.0
C69 C 0.36681 0.7491 0.12396 0.0
C70 C 0.1999 0.81854 0.21973 0.0
O71 O 0.27724 0.83553 0.29785 0.0
O72 O 0.33923 0.76953 0.26292 0.0
O73 O 0.2328 0.77636 0.19684 0.0
O74 O 0.22128 0.86339 0.23392 0.0
C75 C 0.36445 0.92745 0.17494 0.0
O76 O 0.34274 0.73007 0.17201 0.0
O77 O 0.35932 0.80456 0.11683 0.0
In78 In 0.31563 0.20608 0.67774 0.0
O79 O 0.38038 0.13342 0.63895 0.0
O80 O 0.32018 0.14891 0.60401 0.0
C81 C 0.31426 0.18282 0.77895 0.0
C82 C 0.38001 0.3012 0.62712 0.0
C83 C 0.20625 0.21171 0.70323 0.0
O84 O 0.33436 0.14608 0.73996 0.0
O85 O 0.29597 0.23152 0.76674 0.0
O86 O 0.2356 0.25881 0.69553 0.0
O87 O 0.23201 0.16219 0.69691 0.0
C88 C 0.36243 0.12018 0.60196 0.0
O89 O 0.34639 0.27682 0.60945 0.0
O90 O 0.37972 0.27962 0.67142 0.0
In91 In 0.68781 0.31992 0.84335 0.0
O92 O 0.63191 0.23769 0.85695 0.0
O93 O 0.65006 0.26932 0.92471 0.0
C94 C 0.71478 0.32409 0.73424 0.0
C95 C 0.6188 0.41323 0.88646 0.0
C96 C 0.7905 0.31139 0.84352 0.0
O97 O 0.69994 0.27577 0.7613 0.0
O98 O 0.71469 0.37061 0.76212 0.0
O99 O 0.76386 0.36045 0.85325 0.0
O100 O 0.7646 0.26601 0.83629 0.0
C101 C 0.62424 0.23192 0.90672 0.0
O102 O 0.66444 0.40847 0.89191 0.0
O103 O 0.60838 0.37175 0.85874 0.0
H104 H 0.12333 0.04218 0.39566 0.0
C105 C 0.10295 0.08391 0.39151 0.0
H106 H 0.02787 0.13174 0.41577 0.0
H107 H 0.90519 0.87352 0.4787 0.0
H108 H 0.8934 0.89264 0.39297 0.0
H109 H 0.93711 0.98119 0.3364 0.0
H110 H 0.99395 0.05023 0.36442 0.0
C111 C 0.04915 0.0906 0.41956 0.0
C112 C 0.01755 0.0419 0.45686 0.0
C113 C 0.98342 0.00292 0.44059 0.0
C114 C 0.95737 0.95263 0.47384 0.0
C115 C 0.92523 0.91297 0.45549 0.0
C116 C 0.91822 0.92333 0.40631 0.0
C117 C 0.94296 0.97305 0.37434 0.0
C118 C 0.97542 0.01238 0.39094 0.0
H119 H 0.86149 0.92558 0.59199 0.0
C120 C 0.88736 0.88627 0.5897 0.0
H121 H 0.96688 0.84924 0.55497 0.0
H122 H 0.0741 0.11314 0.50336 0.0
H123 H 0.08404 0.09583 0.59019 0.0
H124 H 0.03952 0.0082 0.64757 0.0
H125 H 0.98469 0.93729 0.61852 0.0
C126 C 0.94032 0.88787 0.55721 0.0
C127 C 0.96467 0.94237 0.52386 0.0
C128 C 0.99695 0.98294 0.54119 0.0
C129 C 0.0231 0.03306 0.50784 0.0
C130 C 0.05424 0.07363 0.52662 0.0
C131 C 0.06001 0.06444 0.5765 0.0
C132 C 0.03493 0.0151 0.60883 0.0
C133 C 0.00367 0.9747 0.59163 0.0
H134 H 0.07117 0.92614 0.8906 0.0
C135 C 0.09855 0.90518 0.90804 0.0
H136 H 0.12081 0.89818 0.97696 0.0
H137 H 0.97725 0.15636 0.02568 0.0
H138 H 0.05001 0.19744 0.94715 0.0
H139 H 0.12379 0.13139 0.88821 0.0
H140 H 0.12532 0.02386 0.90755 0.0
C141 C 0.09547 0.92112 0.95821 0.0
C142 C 0.05125 0.96188 0.99301 0.0
C143 C 0.05076 0.02464 0.98063 0.0
C144 C 0.00844 0.06288 0.01485 0.0
C145 C 0.00882 0.12537 1.00159 0.0
C146 C 0.05019 0.14955 0.95643 0.0
C147 C 0.0917 0.11234 0.92324 0.0
C148 C 0.09207 0.05059 0.93487 0.0
H149 H 0.97233 0.11391 0.13737 0.0
C150 C 0.93248 0.11488 0.13358 0.0
H151 H 0.88333 0.07854 0.09284 0.0
H152 H 0.03888 0.84311 0.02744 0.0
H153 H 0.96493 0.80198 0.10495 0.0
H154 H 0.89042 0.86811 0.1626 0.0
H155 H 0.89038 0.97632 0.14421 0.0
C156 C 0.92284 0.07839 0.09731 0.0
C157 C 0.96657 0.03823 0.06108 0.0
C158 C 0.96626 0.97532 0.07261 0.0
C159 C 0.00897 0.93718 0.03896 0.0
C160 C 0.00766 0.87439 0.05166 0.0
C161 C 0.96531 0.85006 0.09593 0.0
C162 C 0.92336 0.88729 0.1284 0.0
C163 C 0.92382 0.94929 0.11737 0.0
H164 H 0.44251 0.3719 0.61775 0.0
C165 C 0.41908 0.34862 0.59712 0.0
H166 H 0.4082 0.33491 0.52245 0.0
H167 H 0.52929 0.60484 0.48078 0.0
H168 H 0.44286 0.64223 0.54436 0.0
H169 H 0.36897 0.57122 0.59438 0.0
H170 H 0.38116 0.46223 0.58082 0.0
C171 C 0.42908 0.36044 0.54435 0.0
C172 C 0.47274 0.40377 0.51287 0.0
C173 C 0.46467 0.46736 0.52079 0.0
C174 C 0.50664 0.50842 0.49067 0.0
C175 C 0.49813 0.57162 0.50087 0.0
C176 C 0.44884 0.59373 0.53773 0.0
C177 C 0.40728 0.55374 0.56593 0.0
C178 C 0.41492 0.49126 0.55787 0.0
H179 H 0.54933 0.55972 0.37462 0.0
C180 C 0.58834 0.56395 0.37991 0.0
H181 H 0.63729 0.53162 0.42248 0.0
H182 H 0.50123 0.28466 0.48759 0.0
H183 H 0.58661 0.24734 0.42138 0.0
H184 H 0.65894 0.3186 0.36843 0.0
H185 H 0.64601 0.42771 0.38073 0.0
C186 C 0.59835 0.52894 0.41693 0.0
C187 C 0.55597 0.48588 0.45135 0.0
C188 C 0.56411 0.4223 0.44366 0.0
C189 C 0.52237 0.38122 0.47424 0.0
C190 C 0.53151 0.31792 0.46542 0.0
C191 C 0.58035 0.29586 0.4276 0.0
C192 C 0.62108 0.33598 0.39779 0.0
C193 C 0.61312 0.3985 0.40524 0.0
H194 H 0.43056 0.73441 0.04309 0.0
C195 C 0.40525 0.71168 0.08033 0.0
H196 H 0.38841 0.62987 0.12478 0.0
H197 H 0.54993 0.55698 0.86818 0.0
H198 H 0.47859 0.59741 0.83968 0.0
H199 H 0.39584 0.64418 0.90638 0.0
H200 H 0.38501 0.65319 1.00127 0.0
C201 C 0.41257 0.65217 0.08686 0.0
C202 C 0.45888 0.61764 0.04704 0.0
C203 C 0.46306 0.61004 0.9922 0.0
C204 C 0.50873 0.57884 0.95455 0.0
C205 C 0.51431 0.57659 0.89912 0.0
C206 C 0.47393 0.60011 0.88213 0.0
C207 C 0.42751 0.62677 0.9196 0.0
C208 C 0.42202 0.63208 0.97396 0.0
H209 H 0.53584 0.45157 0.91927 0.0
C210 C 0.57815 0.46002 0.91436 0.0
H211 H 0.63346 0.5184 0.9312 0.0
H212 H 0.46629 0.62855 0.14776 0.0
H213 H 0.53626 0.58549 0.17639 0.0
H214 H 0.61152 0.52471 0.11297 0.0
H215 H 0.61756 0.50711 0.02053 0.0
C216 C 0.59115 0.51023 0.93601 0.0
C217 C 0.5478 0.55093 0.97272 0.0
C218 C 0.54399 0.55914 0.02735 0.0
C219 C 0.49978 0.59292 0.06436 0.0
C220 C 0.4981 0.6021 0.11817 0.0
C221 C 0.53819 0.57784 0.13518 0.0
C222 C 0.5806 0.54372 0.09947 0.0
C223 C 0.58357 0.5341 0.04629 0.0
H224 H 0.87168 0.45789 0.15926 0.0
C225 C 0.88995 0.41522 0.14047 0.0
H226 H 0.94954 0.37286 0.07291 0.0
H227 H 0.98489 0.58736 0.90754 0.0
H228 H 0.93055 0.51908 0.87572 0.0
H229 H 0.8868 0.42869 0.92932 0.0
H230 H 0.89654 0.40677 0.01547 0.0
C231 C 0.93248 0.41546 0.09285 0.0
C232 C 0.95515 0.4727 0.0634 0.0
C233 C 0.94917 0.48482 0.0131 0.0
C234 C 0.97486 0.5365 0.98194 0.0
C235 C 0.96727 0.5481 0.93234 0.0
C236 C 0.9359 0.50941 0.91371 0.0
C237 C 0.9112 0.4586 0.94392 0.0
C238 C 0.91741 0.44637 0.99316 0.0
H239 H 0.08826 0.5681 0.90385 0.0
C240 C 0.08032 0.61443 0.91911 0.0
H241 H 0.03136 0.67216 0.98197 0.0
H242 H 0.97564 0.46227 0.15796 0.0
H243 H 0.02655 0.53279 0.19155 0.0
H244 H 0.06793 0.62487 0.13946 0.0
H245 H 0.05994 0.64576 0.05248 0.0
C246 C 0.03901 0.62597 0.9663 0.0
C247 C 0.00685 0.5757 1.00106 0.0
C248 C 0.01028 0.56549 0.05284 0.0
C249 C 0.98515 0.51333 0.08368 0.0
C250 C 0.99223 0.50213 0.1336 0.0
C251 C 0.02165 0.5422 0.15334 0.0
C252 C 0.04511 0.59388 0.1239 0.0
C253 C 0.04004 0.60537 0.07402 0.0
H254 H 0.13695 0.38712 0.43532 0.0
C255 C 0.12179 0.37231 0.40411 0.0
H256 H 0.05882 0.38027 0.37263 0.0
H257 H 0.8857 0.47165 0.59681 0.0
H258 H 0.85557 0.36777 0.59477 0.0
H259 H 0.91093 0.29626 0.52422 0.0
H260 H 0.99575 0.32811 0.45452 0.0
C261 C 0.07569 0.39675 0.40206 0.0
C262 C 0.04269 0.44086 0.44402 0.0
C263 C 0.99209 0.42208 0.48344 0.0
C264 C 0.96021 0.46354 0.52406 0.0
C265 C 0.9109 0.44268 0.56417 0.0
C266 C 0.89327 0.383 0.56375 0.0
C267 C 0.9243 0.34272 0.52394 0.0
C268 C 0.97306 0.36169 0.48415 0.0
H269 H 0.88126 0.57326 0.53716 0.0
C270 C 0.89768 0.58976 0.56692 0.0
H271 H 0.96326 0.58611 0.59504 0.0
H272 H 0.13658 0.49232 0.37306 0.0
H273 H 0.16853 0.59509 0.37686 0.0
H274 H 0.11421 0.66651 0.44819 0.0
H275 H 0.0273 0.63587 0.51583 0.0
C276 C 0.94566 0.56816 0.56668 0.0
C277 C 0.97875 0.52404 0.52473 0.0
C278 C 0.02979 0.54254 0.48578 0.0
C279 C 0.06155 0.5011 0.44506 0.0
C280 C 0.11144 0.52144 0.40563 0.0
C281 C 0.13012 0.58045 0.40711 0.0
C282 C 0.0995 0.62069 0.44725 0.0
C283 C 0.04975 0.60238 0.48598 0.0
H284 H 0.56706 0.15527 0.92069 0.0
C285 C 0.58585 0.18631 0.94081 0.0
H286 H 0.58793 0.21599 0.01616 0.0
H287 H 0.35088 0.11453 0.15099 0.0
H288 H 0.33841 0.22332 0.16639 0.0
H289 H 0.41243 0.29506 0.11864 0.0
H290 H 0.49953 0.25865 0.05505 0.0
C291 C 0.57141 0.18351 0.99517 0.0
C292 C 0.5286 0.13983 0.02803 0.0
C293 C 0.4779 0.16203 0.06506 0.0
C294 C 0.43497 0.12072 0.0925 0.0
C295 C 0.38468 0.14401 0.12895 0.0
C296 C 0.377 0.20629 0.13824 0.0
C297 C 0.41875 0.24669 0.11136 0.0
C298 C 0.46858 0.22514 0.07498 0.0
H299 H 0.43553 0.9848 0.16628 0.0
C300 C 0.40143 0.97911 0.15271 0.0
H301 H 0.36462 0.00911 0.09794 0.0
H302 H 0.62353 0.08125 0.96755 0.0
H303 H 0.63558 0.97264 0.9515 0.0
H304 H 0.55912 0.90167 0.99387 0.0
H305 H 0.47064 0.93877 0.05342 0.0
C306 C 0.3983 0.01408 0.11225 0.0
C307 C 0.44296 0.05738 0.08333 0.0
C308 C 0.49389 0.03505 0.04697 0.0
C309 C 0.53715 0.07618 0.02038 0.0
C310 C 0.5885 0.05232 0.98678 0.0
C311 C 0.59613 0.98999 0.97759 0.0
C312 C 0.55317 0.95002 1.00161 0.0
C313 C 0.50261 0.97198 0.03596 0.0
H314 H 0.60455 0.85536 0.43258 0.0
C315 C 0.59676 0.846 0.39558 0.0
H316 H 0.54716 0.86641 0.35011 0.0
H317 H 0.4019 0.9468 0.607 0.0
H318 H 0.39246 0.83813 0.62405 0.0
H319 H 0.43938 0.7647 0.55125 0.0
H320 H 0.49688 0.7995 0.46122 0.0
C321 C 0.55518 0.87432 0.38718 0.0
C322 C 0.51974 0.91784 0.4283 0.0
C323 C 0.4853 0.89666 0.48034 0.0
C324 C 0.45711 0.93894 0.52189 0.0
C325 C 0.42415 0.91663 0.5739 0.0
C326 C 0.41822 0.85437 0.5842 0.0
C327 C 0.44466 0.81302 0.54321 0.0
C328 C 0.47784 0.83364 0.49183 0.0
H329 H 0.37275 0.06996 0.52643 0.0
C330 C 0.3896 0.0765 0.55805 0.0
H331 H 0.45125 0.051 0.5875 0.0
H332 H 0.57688 0.97279 0.33112 0.0
H333 H 0.5824 0.08124 0.31251 0.0
H334 H 0.5334 0.1548 0.38437 0.0
H335 H 0.47866 0.12045 0.47538 0.0
C336 C 0.43478 0.04609 0.55544 0.0
C337 C 0.46184 0.00219 0.51081 0.0
C338 C 0.49364 0.02324 0.4578 0.0
C339 C 0.52236 0.98089 0.41641 0.0
C340 C 0.55431 0.00303 0.36403 0.0
C341 C 0.55782 0.06514 0.35278 0.0
C342 C 0.5302 0.10656 0.39327 0.0
C343 C 0.49868 0.08616 0.4453 0.0
H344 H 0.33849 0.74859 0.36305 0.0
C345 C 0.30864 0.78115 0.35986 0.0
H346 H 0.24406 0.84081 0.4017 0.0
H347 H 0.24934 0.65761 0.60057 0.0
H348 H 0.22789 0.57547 0.55022 0.0
H349 H 0.22416 0.59358 0.45933 0.0
H350 H 0.24365 0.6932 0.41754 0.0
C351 C 0.27289 0.80696 0.40497 0.0
C352 C 0.27402 0.79499 0.46008 0.0
C353 C 0.26 0.73691 0.48475 0.0
C354 C 0.25879 0.72731 0.53853 0.0
C355 C 0.24821 0.66804 0.56093 0.0
C356 C 0.2362 0.6204 0.53232 0.0
C357 C 0.23436 0.63053 0.48105 0.0
C358 C 0.24602 0.68798 0.45736 0.0
H359 H 0.17649 0.74863 0.65267 0.0
C360 C 0.2111 0.757 0.66498 0.0
H361 H 0.295 0.77867 0.63933 0.0
H362 H 0.30724 0.91016 0.42313 0.0
H363 H 0.32466 0.9932 0.4752 0.0
H364 H 0.31411 0.97863 0.57131 0.0
H365 H 0.28893 0.88082 0.61493 0.0
C366 C 0.26046 0.76921 0.62717 0.0
C367 C 0.26796 0.77669 0.56878 0.0
C368 C 0.28256 0.83445 0.54389 0.0
C369 C 0.28639 0.84336 0.48924 0.0
C370 C 0.30239 0.90122 0.46497 0.0
C371 C 0.31265 0.94926 0.49432 0.0
C372 C 0.30699 0.94107 0.54829 0.0
C373 C 0.29236 0.88449 0.57292 0.0
H374 H 0.81507 0.7724 0.84987 0.0
C375 C 0.80889 0.72954 0.83239 0.0
H376 H 0.78007 0.63923 0.84828 0.0
H377 H 0.81874 0.71542 0.07617 0.0
H378 H 0.91548 0.70842 0.02189 0.0
H379 H 0.94715 0.69136 0.92281 0.0
H380 H 0.88215 0.67972 0.87749 0.0
C381 C 0.78931 0.68126 0.86485 0.0
C382 C 0.77072 0.68719 0.92499 0.0
C383 C 0.80918 0.69174 0.95103 0.0
C384 C 0.7908 0.70068 0.00831 0.0
C385 C 0.83021 0.70706 0.03303 0.0
C386 C 0.88596 0.70347 1.0023 0.0
C387 C 0.9038 0.6938 0.9465 0.0
C388 C 0.86607 0.68763 0.92097 0.0
H389 H 0.73422 0.62656 0.11711 0.0
C390 C 0.71754 0.6708 0.13321 0.0
H391 H 0.69737 0.75896 0.11461 0.0
H392 H 0.68616 0.67815 0.8878 0.0
H393 H 0.58952 0.68727 0.94179 0.0
H394 H 0.55788 0.70657 0.04054 0.0
H395 H 0.62246 0.71234 0.08674 0.0
C396 C 0.71438 0.71467 0.09912 0.0
C397 C 0.73392 0.70433 0.03939 0.0
C398 C 0.69554 0.69993 0.01328 0.0
C399 C 0.71391 0.69049 0.9561 0.0
C400 C 0.6746 0.68572 0.93109 0.0
C401 C 0.61895 0.69111 0.96154 0.0
C402 C 0.60111 0.7015 0.01723 0.0
C403 C 0.63866 0.7051 0.04316 0.0
H404 H 0.78843 0.19698 0.40116 0.0
C405 C 0.80647 0.23854 0.37985 0.0
H406 H 0.83083 0.32845 0.38737 0.0
H407 H 0.66026 0.349 0.62914 0.0
H408 H 0.62146 0.41786 0.58133 0.0
H409 H 0.66228 0.42804 0.48162 0.0
H410 H 0.74051 0.36703 0.42868 0.0
C411 C 0.81491 0.28587 0.40795 0.0
C412 C 0.79494 0.28448 0.46846 0.0
C413 C 0.75005 0.32175 0.4988 0.0
C414 C 0.72804 0.31801 0.55659 0.0
C415 C 0.68058 0.35233 0.58549 0.0
C416 C 0.65738 0.39157 0.55849 0.0
C417 C 0.68014 0.39696 0.50227 0.0
C418 C 0.72541 0.362 0.47247 0.0
H419 H 0.74763 0.36941 0.65435 0.0
C420 C 0.73274 0.32634 0.6745 0.0
H421 H 0.71843 0.2335 0.66458 0.0
H422 H 0.88338 0.20962 0.42265 0.0
H423 H 0.9234 0.14196 0.47052 0.0
H424 H 0.88685 0.13727 0.57081 0.0
H425 H 0.80959 0.19963 0.62384 0.0
C426 C 0.73178 0.27706 0.64473 0.0
C427 C 0.75274 0.27921 0.5841 0.0
C428 C 0.79786 0.24217 0.55371 0.0
C429 C 0.81899 0.2448 0.49583 0.0
C430 C 0.86482 0.20832 0.46657 0.0
C431 C 0.88853 0.16964 0.49356 0.0
C432 C 0.86793 0.16699 0.55004 0.0
C433 C 0.82336 0.20294 0.57998 0.0
H434 H 0.20987 0.26106 0.12251 0.0
C435 C 0.22419 0.22226 0.13915 0.0
H436 H 0.26781 0.13941 0.12174 0.0
H437 H 0.23399 0.09718 0.89837 0.0
H438 H 0.19063 0.00838 0.95068 0.0
H439 H 0.17784 0.99944 0.04753 0.0
H440 H 0.2112 0.07767 0.09223 0.0
C441 C 0.25355 0.17852 0.10548 0.0
C442 C 0.26586 0.18144 0.04563 0.0
C443 C 0.24602 0.13536 0.02003 0.0
C444 C 0.25289 0.14092 0.96408 0.0
C445 C 0.23119 0.09493 0.94021 0.0
C446 C 0.20543 0.04402 0.96998 0.0
C447 C 0.19853 0.03876 0.0245 0.0
C448 C 0.21806 0.08398 0.04959 0.0
H449 H 0.33369 0.12981 0.84094 0.0
C450 C 0.3117 0.16921 0.83465 0.0
H451 H 0.26063 0.24349 0.8709 0.0
H452 H 0.32021 0.27038 0.07851 0.0
H453 H 0.37161 0.35414 0.02428 0.0
H454 H 0.38118 0.3656 0.9282 0.0
H455 H 0.34011 0.29261 0.88569 0.0
C456 C 0.28181 0.20346 0.87737 0.0
C457 C 0.28011 0.19244 0.93376 0.0
C458 C 0.30317 0.23632 0.95848 0.0
C459 C 0.29671 0.23042 0.01419 0.0
C460 C 0.3223 0.27356 0.03696 0.0
C461 C 0.3523 0.32173 1.00612 0.0
C462 C 0.35774 0.32813 0.95204 0.0
C463 C 0.33368 0.28604 0.92824 0.0
H464 H 0.37185 0.19913 0.32554 0.0
C465 C 0.36118 0.23053 0.29915 0.0
H466 H 0.39018 0.29772 0.23801 0.0
H467 H 0.59799 0.35446 0.2993 0.0
H468 H 0.54191 0.44274 0.33848 0.0
H469 H 0.44658 0.44879 0.3431 0.0
H470 H 0.40696 0.36695 0.30778 0.0
C471 C 0.40019 0.26517 0.26396 0.0
C472 C 0.45773 0.26132 0.26096 0.0
C473 C 0.48008 0.30936 0.28199 0.0
C474 C 0.5346 0.30521 0.28053 0.0
C475 C 0.55631 0.35448 0.3008 0.0
C476 C 0.52466 0.40556 0.32314 0.0
C477 C 0.47103 0.40904 0.32558 0.0
C478 C 0.44882 0.36175 0.30516 0.0
H479 H 0.66221 0.25204 0.17398 0.0
C480 C 0.66699 0.24927 0.21315 0.0
H481 H 0.62712 0.24753 0.29862 0.0
H482 H 0.42884 0.16337 0.21323 0.0
H483 H 0.48426 0.07438 0.17564 0.0
H484 H 0.57679 0.06431 0.17795 0.0
H485 H 0.61499 0.14385 0.21677 0.0
C486 C 0.62264 0.24802 0.25925 0.0
C487 C 0.56644 0.25273 0.25857 0.0
C488 C 0.54411 0.20464 0.23742 0.0
C489 C 0.48999 0.20942 0.23782 0.0
C490 C 0.46932 0.16171 0.21481 0.0
C491 C 0.50068 0.1103 0.19309 0.0
C492 C 0.55286 0.10474 0.19426 0.0
C493 C 0.57444 0.15104 0.21635 0.0
H494 H 0.63013 0.75462 0.68297 0.0
C495 C 0.64581 0.72631 0.70779 0.0
H496 H 0.62625 0.67179 0.77819 0.0
H497 H 0.39629 0.79255 0.90194 0.0
H498 H 0.44532 0.81435 0.9621 0.0
H499 H 0.54313 0.78921 0.93499 0.0
H500 H 0.59256 0.74161 0.84791 0.0
C501 C 0.61077 0.69848 0.75223 0.0
C502 C 0.55068 0.70907 0.77037 0.0
C503 C 0.52263 0.73736 0.82143 0.0
C504 C 0.46634 0.75264 0.83691 0.0
C505 C 0.43917 0.78054 0.8881 0.0
C506 C 0.46677 0.79318 0.92303 0.0
C507 C 0.52184 0.7789 0.90778 0.0
C508 C 0.54972 0.75153 0.8576 0.0
H509 H 0.35052 0.66785 0.83467 0.0
C510 C 0.34019 0.7152 0.83134 0.0
H511 H 0.37044 0.80486 0.81329 0.0
H512 H 0.58867 0.64373 0.67524 0.0
H513 H 0.53954 0.62253 0.61513 0.0
H514 H 0.44427 0.65706 0.63855 0.0
H515 H 0.39731 0.7114 0.72235 0.0
C516 C 0.37988 0.7573 0.81685 0.0
C517 C 0.43823 0.73961 0.80147 0.0
C518 C 0.4659 0.71022 0.75098 0.0
C519 C 0.52171 0.69333 0.73614 0.0
C520 C 0.5472 0.66041 0.68719 0.0
C521 C 0.51933 0.64743 0.65254 0.0
C522 C 0.46566 0.66661 0.66576 0.0
C523 C 0.43905 0.69758 0.71429 0.0
H524 H 0.11463 0.8466 0.26322 0.0
C525 C 0.14031 0.81425 0.23376 0.0
H526 H 0.14287 0.73795 0.18474 0.0
H527 H 0.91241 0.62749 0.31195 0.0
H528 H 0.97356 0.54702 0.31624 0.0
H529 H 0.07303 0.56408 0.28472 0.0
H530 H 0.11205 0.66124 0.24744 0.0
C531 C 0.11709 0.77087 0.21345 0.0
C532 C 0.05644 0.76202 0.23404 0.0
C533 C 0.03403 0.70511 0.25694 0.0
C534 C 0.97637 0.69595 0.27714 0.0
C535 C 0.95558 0.63778 0.29748 0.0
C536 C 0.99028 0.59097 0.30012 0.0
C537 C 0.04628 0.60052 0.28223 0.0
C538 C 0.06814 0.65664 0.26069 0.0
H539 H 0.8741 0.76578 0.2224 0.0
C540 C 0.85294 0.74505 0.26192 0.0
H541 H 0.85944 0.71254 0.33432 0.0
H542 H 0.08444 0.87325 0.18403 0.0
H543 H 0.0232 0.9581 0.19111 0.0
H544 H 0.92418 0.94816 0.2426 0.0
H545 H 0.88552 0.85218 0.28417 0.0
C546 C 0.88055 0.73332 0.29483 0.0
C547 C 0.94083 0.74449 0.27671 0.0
C548 C 0.9632 0.80258 0.25724 0.0
C549 C 0.02086 0.81022 0.23274 0.0
C550 C 0.04144 0.86636 0.20711 0.0
C551 C 0.00669 0.91531 0.2104 0.0
C552 C 0.95092 0.90959 0.23905 0.0
C553 C 0.92918 0.85399 0.26214 0.0
H554 H 0.12481 0.17031 0.72365 0.0
C555 C 0.14621 0.21333 0.72015 0.0
H556 H 0.13803 0.30829 0.73237 0.0
H557 H 0.8981 0.22972 0.71915 0.0
H558 H 0.94948 0.20811 0.62412 0.0
H559 H 0.05017 0.21321 0.58728 0.0
H560 H 0.10009 0.23965 0.64539 0.0
C561 C 0.11737 0.26527 0.73331 0.0
C562 C 0.05642 0.26463 0.75465 0.0
C563 C 0.0278 0.24901 0.7201 0.0
C564 C 0.96965 0.24657 0.74134 0.0
C565 C 0.9422 0.23167 0.70559 0.0
C566 C 0.97118 0.21939 0.65076 0.0
C567 C 0.02787 0.2222 0.63004 0.0
C568 C 0.05604 0.23704 0.664 0.0
H569 H 0.86929 0.35194 0.83737 0.0
C570 C 0.84922 0.30947 0.83475 0.0
H571 H 0.85945 0.21669 0.81341 0.0
H572 H 0.0985 0.29888 0.83123 0.0
H573 H 0.04721 0.32045 0.92649 0.0
H574 H 0.9468 0.31133 0.96432 0.0
H575 H 0.89678 0.28291 0.9068 0.0
C576 C 0.87915 0.25861 0.81816 0.0
C577 C 0.94011 0.26019 0.79704 0.0
C578 C 0.96878 0.27578 0.83159 0.0
C579 C 0.02691 0.27901 0.81012 0.0
C580 C 0.05442 0.29553 0.84535 0.0
C581 C 0.02551 0.30791 0.90016 0.0
C582 C 0.96894 0.30299 0.92144 0.0
C583 C 0.9407 0.28697 0.88783 0.0
loop_
_geom_bond_atom_site_label_1
_geom_bond_atom_site_label_2
_geom_bond_distance
_geom_bond_site_symmetry_2
_ccdc_geom_bond_type
In0 O1 2.294 . S
In0 O2 2.326 . S
In0 O6 2.266 . S
In0 O7 2.326 . S
In0 O8 2.266 . S
In0 O9 2.326 . S
In0 O11 2.294 . S
In0 O12 2.326 . S
O1 In0 2.294 . S
O1 C10 1.240 . S
O2 In0 2.326 . S
O2 C10 1.252 . S
C3 O6 1.252 . S
C3 O7 1.260 . S
C4 O11 1.240 . S
C4 O12 1.252 . S
C5 O8 1.252 . S
C5 O9 1.260 . S
O6 In0 2.266 . S
O6 C3 1.252 . S
O7 In0 2.326 . S
O7 C3 1.260 . S
O8 In0 2.266 . S
O8 C5 1.252 . S
O9 In0 2.326 . S
O9 C5 1.260 . S
C10 O1 1.240 . S
C10 O2 1.252 . S
O11 In0 2.294 . S
O11 C4 1.240 . S
O12 In0 2.326 . S
O12 C4 1.252 . S
In13 O14 2.294 . S
In13 O15 2.326 . S
In13 O19 2.266 . S
In13 O20 2.326 . S
In13 O21 2.266 . S
In13 O22 2.326 . S
In13 O24 2.294 . S
In13 O25 2.326 . S
O14 In13 2.294 . S
O14 C23 1.240 . S
O15 In13 2.326 . S
O15 C23 1.252 . S
C16 O19 1.252 . S
C16 O20 1.260 . S
C17 O24 1.240 . S
C17 O25 1.252 . S
C18 O21 1.252 . S
C18 O22 1.260 . S
O19 In13 2.266 . S
O19 C16 1.252 . S
O20 In13 2.326 . S
O20 C16 1.260 . S
O21 In13 2.266 . S
O21 C18 1.252 . S
O22 In13 2.326 . S
O22 C18 1.260 . S
C23 O14 1.240 . S
C23 O15 1.252 . S
O24 In13 2.294 . S
O24 C17 1.240 . S
O25 In13 2.326 . S
O25 C17 1.252 . S
In26 O27 2.294 . S
In26 O28 2.326 . S
In26 O32 2.266 . S
In26 O33 2.326 . S
In26 O34 2.266 . S
In26 O35 2.326 . S
In26 O37 2.294 . S
In26 O38 2.326 . S
O27 In26 2.294 . S
O27 C36 1.240 . S
O28 In26 2.326 . S
O28 C36 1.252 . S
C29 O32 1.252 . S
C29 O33 1.260 . S
C30 O37 1.240 . S
C30 O38 1.252 . S
C31 O34 1.252 . S
C31 O35 1.260 . S
O32 In26 2.266 . S
O32 C29 1.252 . S
O33 In26 2.326 . S
O33 C29 1.260 . S
O34 In26 2.266 . S
O34 C31 1.252 . S
O35 In26 2.326 . S
O35 C31 1.260 . S
C36 O27 1.240 . S
C36 O28 1.252 . S
O37 In26 2.294 . S
O37 C30 1.240 . S
O38 In26 2.326 . S
O38 C30 1.252 . S
In39 O40 2.294 . S
In39 O41 2.326 . S
In39 O45 2.266 . S
In39 O46 2.326 . S
In39 O47 2.266 . S
In39 O48 2.326 . S
In39 O50 2.294 . S
In39 O51 2.326 . S
O40 In39 2.294 . S
O40 C49 1.240 . S
O41 In39 2.326 . S
O41 C49 1.252 . S
C42 O45 1.252 . S
C42 O46 1.260 . S
C43 O50 1.240 . S
C43 O51 1.252 . S
C44 O47 1.252 . S
C44 O48 1.260 . S
O45 In39 2.266 . S
O45 C42 1.252 . S
O46 In39 2.326 . S
O46 C42 1.260 . S
O47 In39 2.266 . S
O47 C44 1.252 . S
O48 In39 2.326 . S
O48 C44 1.260 . S
C49 O40 1.240 . S
C49 O41 1.252 . S
O50 In39 2.294 . S
O50 C43 1.240 . S
O51 In39 2.326 . S
O51 C43 1.252 . S
In52 O53 2.294 . S
In52 O54 2.326 . S
In52 O58 2.266 . S
In52 O59 2.326 . S
In52 O60 2.266 . S
In52 O61 2.326 . S
In52 O63 2.294 . S
In52 O64 2.326 . S
O53 In52 2.294 . S
O53 C62 1.240 . S
O54 In52 2.326 . S
O54 C62 1.252 . S
C55 O58 1.252 . S
C55 O59 1.260 . S
C56 O63 1.240 . S
C56 O64 1.252 . S
C57 O60 1.252 . S
C57 O61 1.260 . S
O58 In52 2.266 . S
O58 C55 1.252 . S
O59 In52 2.326 . S
O59 C55 1.260 . S
O60 In52 2.266 . S
O60 C57 1.252 . S
O61 In52 2.326 . S
O61 C57 1.260 . S
C62 O53 1.240 . S
C62 O54 1.252 . S
O63 In52 2.294 . S
O63 C56 1.240 . S
O64 In52 2.326 . S
O64 C56 1.252 . S
In65 O66 2.294 . S
In65 O67 2.326 . S
In65 O71 2.266 . S
In65 O72 2.326 . S
In65 O73 2.266 . S
In65 O74 2.326 . S
In65 O76 2.294 . S
In65 O77 2.326 . S
O66 In65 2.294 . S
O66 C75 1.240 . S
O67 In65 2.326 . S
O67 C75 1.252 . S
C68 O71 1.252 . S
C68 O72 1.260 . S
C69 O76 1.240 . S
C69 O77 1.252 . S
C70 O73 1.252 . S
C70 O74 1.260 . S
O71 In65 2.266 . S
O71 C68 1.252 . S
O72 In65 2.326 . S
O72 C68 1.260 . S
O73 In65 2.266 . S
O73 C70 1.252 . S
O74 In65 2.326 . S
O74 C70 1.260 . S
C75 O66 1.240 . S
C75 O67 1.252 . S
O76 In65 2.294 . S
O76 C69 1.240 . S
O77 In65 2.326 . S
O77 C69 1.252 . S
In78 O79 2.294 . S
In78 O80 2.326 . S
In78 O84 2.266 . S
In78 O85 2.326 . S
In78 O86 2.266 . S
In78 O87 2.326 . S
In78 O89 2.294 . S
In78 O90 2.326 . S
O79 In78 2.294 . S
O79 C88 1.240 . S
O80 In78 2.326 . S
O80 C88 1.252 . S
C81 O84 1.252 . S
C81 O85 1.260 . S
C82 O89 1.240 . S
C82 O90 1.252 . S
C83 O86 1.252 . S
C83 O87 1.260 . S
O84 In78 2.266 . S
O84 C81 1.252 . S
O85 In78 2.326 . S
O85 C81 1.260 . S
O86 In78 2.266 . S
O86 C83 1.252 . S
O87 In78 2.326 . S
O87 C83 1.260 . S
C88 O79 1.240 . S
C88 O80 1.252 . S
O89 In78 2.294 . S
O89 C82 1.240 . S
O90 In78 2.326 . S
O90 C82 1.252 . S
In91 O92 2.294 . S
In91 O93 2.326 . S
In91 O97 2.266 . S
In91 O98 2.326 . S
In91 O99 2.266 . S
In91 O100 2.326 . S
In91 O102 2.294 . S
In91 O103 2.326 . S
O92 In91 2.294 . S
O92 C101 1.240 . S
O93 In91 2.326 . S
O93 C101 1.252 . S
C94 O97 1.252 . S
C94 O98 1.260 . S
C95 O102 1.240 . S
C95 O103 1.252 . S
C96 O99 1.252 . S
C96 O100 1.260 . S
O97 In91 2.266 . S
O97 C94 1.252 . S
O98 In91 2.326 . S
O98 C94 1.260 . S
O99 In91 2.266 . S
O99 C96 1.252 . S
O100 In91 2.326 . S
O100 C96 1.260 . S
C101 O92 1.240 . S
C101 O93 1.252 . S
O102 In91 2.294 . S
O102 C95 1.240 . S
O103 In91 2.326 . S
O103 C95 1.252 . S
H104 C105 0.951 . S
C105 H104 0.951 . S
C105 C111 1.265 . S
H106 C111 0.950 . S
H107 C115 0.949 . S
H108 C116 0.950 . S
H109 C117 0.951 . S
H110 C118 0.951 . S
C111 C105 1.265 . S
C111 H106 0.950 . S
C111 C112 1.478 . S
C112 C111 1.478 . S
C112 C113 1.397 1_455 S
C112 C129 1.394 . S
C113 C112 1.397 1_655 S
C113 C114 1.438 1_545 S
C113 C118 1.429 . S
C114 C113 1.438 1_565 S
C114 C115 1.428 . S
C114 C127 1.394 . S
C115 H107 0.949 . S
C115 C114 1.428 . S
C115 C116 1.345 . S
C116 H108 0.950 . S
C116 C115 1.345 . S
C116 C117 1.424 1_565 S
C117 H109 0.951 . S
C117 C116 1.424 1_545 S
C117 C118 1.347 . S
C118 H110 0.951 . S
C118 C113 1.429 . S
C118 C117 1.347 . S
H119 C120 0.951 . S
C120 H119 0.951 . S
C120 C126 1.265 . S
H121 C126 0.950 . S
H122 C130 0.949 . S
H123 C131 0.950 . S
H124 C132 0.951 . S
H125 C133 0.951 . S
C126 C120 1.265 . S
C126 H121 0.950 . S
C126 C127 1.478 . S
C127 C114 1.394 . S
C127 C126 1.478 . S
C127 C128 1.397 1_655 S
C128 C127 1.397 1_455 S
C128 C129 1.438 1_565 S
C128 C133 1.429 . S
C129 C112 1.394 . S
C129 C128 1.438 1_545 S
C129 C130 1.428 . S
C130 H122 0.949 . S
C130 C129 1.428 . S
C130 C131 1.345 . S
C131 H123 0.950 . S
C131 C130 1.345 . S
C131 C132 1.424 1_545 S
C132 H124 0.951 . S
C132 C131 1.424 1_565 S
C132 C133 1.347 . S
C133 H125 0.951 . S
C133 C128 1.429 . S
C133 C132 1.347 . S
H134 C135 0.951 . S
C135 H134 0.951 . S
C135 C141 1.265 . S
H136 C141 0.950 . S
H137 C145 0.946 1_554 S
H138 C146 0.950 . S
H139 C147 0.951 . S
H140 C148 0.951 1_565 S
C141 C135 1.265 . S
C141 H136 0.950 . S
C141 C142 1.478 . S
C142 C141 1.478 . S
C142 C143 1.397 1_565 S
C142 C159 1.394 1_455 S
C143 C142 1.397 1_545 S
C143 C144 1.438 1_556 S
C143 C148 1.429 . S
C144 C143 1.438 1_554 S
C144 C145 1.429 1_554 S
C144 C157 1.394 1_455 S
C145 H137 0.946 1_556 S
C145 C144 1.429 1_556 S
C145 C146 1.346 . S
C146 H138 0.950 . S
C146 C145 1.346 . S
C146 C147 1.424 . S
C147 H139 0.951 . S
C147 C146 1.424 . S
C147 C148 1.347 . S
C148 H140 0.951 1_545 S
C148 C143 1.429 . S
C148 C147 1.347 . S
H149 C150 0.951 . S
C150 H149 0.951 . S
C150 C156 1.265 . S
H151 C156 0.950 . S
H152 C160 0.946 1_556 S
H153 C161 0.950 . S
H154 C162 0.951 . S
H155 C163 0.951 1_545 S
C156 C150 1.265 . S
C156 H151 0.950 . S
C156 C157 1.478 . S
C157 C144 1.394 1_655 S
C157 C156 1.478 . S
C157 C158 1.397 1_545 S
C158 C157 1.397 1_565 S
C158 C159 1.438 1_554 S
C158 C163 1.429 . S
C159 C142 1.394 1_655 S
C159 C158 1.438 1_556 S
C159 C160 1.429 1_556 S
C160 H152 0.946 1_554 S
C160 C159 1.429 1_554 S
C160 C161 1.346 . S
C161 H153 0.950 . S
C161 C160 1.346 . S
C161 C162 1.424 . S
C162 H154 0.951 . S
C162 C161 1.424 . S
C162 C163 1.347 . S
C163 H155 0.951 1_565 S
C163 C158 1.429 . S
C163 C162 1.347 . S
H164 C165 0.951 . S
C165 H164 0.951 . S
C165 C171 1.265 . S
H166 C171 0.950 . S
H167 C175 0.949 . S
H168 C176 0.950 . S
H169 C177 0.951 . S
H170 C178 0.951 . S
C171 C165 1.265 . S
C171 H166 0.950 . S
C171 C172 1.478 . S
C172 C171 1.478 . S
C172 C173 1.397 . S
C172 C189 1.394 . S
C173 C172 1.397 . S
C173 C174 1.438 . S
C173 C178 1.429 . S
C174 C173 1.438 . S
C174 C175 1.428 . S
C174 C187 1.394 . S
C175 H167 0.949 . S
C175 C174 1.428 . S
C175 C176 1.345 . S
C176 H168 0.950 . S
C176 C175 1.345 . S
C176 C177 1.424 . S
C177 H169 0.951 . S
C177 C176 1.424 . S
C177 C178 1.347 . S
C178 H170 0.951 . S
C178 C173 1.429 . S
C178 C177 1.347 . S
H179 C180 0.951 . S
C180 H179 0.951 . S
C180 C186 1.265 . S
H181 C186 0.950 . S
H182 C190 0.949 . S
H183 C191 0.950 . S
H184 C192 0.951 . S
H185 C193 0.951 . S
C186 C180 1.265 . S
C186 H181 0.950 . S
C186 C187 1.478 . S
C187 C174 1.394 . S
C187 C186 1.478 . S
C187 C188 1.397 . S
C188 C187 1.397 . S
C188 C189 1.438 . S
C188 C193 1.429 . S
C189 C172 1.394 . S
C189 C188 1.438 . S
C189 C190 1.428 . S
C190 H182 0.949 . S
C190 C189 1.428 . S
C190 C191 1.345 . S
C191 H183 0.950 . S
C191 C190 1.345 . S
C191 C192 1.424 . S
C192 H184 0.951 . S
C192 C191 1.424 . S
C192 C193 1.347 . S
C193 H185 0.951 . S
C193 C188 1.429 . S
C193 C192 1.347 . S
H194 C195 0.951 . S
C195 H194 0.951 . S
C195 C201 1.265 . S
H196 C201 0.950 . S
H197 C205 0.949 . S
H198 C206 0.950 . S
H199 C207 0.951 . S
H200 C208 0.951 1_554 S
C201 C195 1.265 . S
C201 H196 0.950 . S
C201 C202 1.478 . S
C202 C201 1.478 . S
C202 C203 1.397 1_554 S
C202 C219 1.394 . S
C203 C202 1.397 1_556 S
C203 C204 1.438 . S
C203 C208 1.429 . S
C204 C203 1.438 . S
C204 C205 1.428 . S
C204 C217 1.394 . S
C205 H197 0.949 . S
C205 C204 1.428 . S
C205 C206 1.345 . S
C206 H198 0.950 . S
C206 C205 1.345 . S
C206 C207 1.424 . S
C207 H199 0.951 . S
C207 C206 1.424 . S
C207 C208 1.347 . S
C208 H200 0.951 1_556 S
C208 C203 1.429 . S
C208 C207 1.347 . S
H209 C210 0.951 . S
C210 H209 0.951 . S
C210 C216 1.265 . S
H211 C216 0.950 . S
H212 C220 0.949 . S
H213 C221 0.950 . S
H214 C222 0.951 . S
H215 C223 0.951 1_556 S
C216 C210 1.265 . S
C216 H211 0.950 . S
C216 C217 1.478 . S
C217 C204 1.394 . S
C217 C216 1.478 . S
C217 C218 1.397 1_556 S
C218 C217 1.397 1_554 S
C218 C219 1.438 . S
C218 C223 1.429 . S
C219 C202 1.394 . S
C219 C218 1.438 . S
C219 C220 1.428 . S
C220 H212 0.949 . S
C220 C219 1.428 . S
C220 C221 1.345 . S
C221 H213 0.950 . S
C221 C220 1.345 . S
C221 C222 1.424 . S
C222 H214 0.951 . S
C222 C221 1.424 . S
C222 C223 1.347 . S
C223 H215 0.951 1_554 S
C223 C218 1.429 . S
C223 C222 1.347 . S
H224 C225 0.951 . S
C225 H224 0.951 . S
C225 C231 1.265 . S
H226 C231 0.950 . S
H227 C235 0.949 . S
H228 C236 0.947 . S
H229 C237 0.951 . S
H230 C238 0.951 . S
C231 C225 1.265 . S
C231 H226 0.950 . S
C231 C232 1.478 . S
C232 C231 1.478 . S
C232 C233 1.397 1_554 S
C232 C249 1.394 . S
C233 C232 1.397 1_556 S
C233 C234 1.438 1_655 S
C233 C238 1.429 . S
C234 C233 1.438 1_455 S
C234 C235 1.428 . S
C234 C247 1.394 . S
C235 H227 0.949 . S
C235 C234 1.428 . S
C235 C236 1.356 . S
C236 H228 0.947 . S
C236 C235 1.356 . S
C236 C237 1.416 1_455 S
C237 H229 0.951 . S
C237 C236 1.416 1_655 S
C237 C238 1.347 . S
C238 H230 0.951 . S
C238 C233 1.429 . S
C238 C237 1.347 . S
H239 C240 0.951 . S
C240 H239 0.951 . S
C240 C246 1.265 . S
H241 C246 0.950 . S
H242 C250 0.949 . S
H243 C251 0.947 . S
H244 C252 0.951 . S
H245 C253 0.951 . S
C246 C240 1.265 . S
C246 H241 0.950 . S
C246 C247 1.478 . S
C247 C234 1.394 . S
C247 C246 1.478 . S
C247 C248 1.397 1_556 S
C248 C247 1.397 1_554 S
C248 C249 1.438 1_455 S
C248 C253 1.429 . S
C249 C232 1.394 . S
C249 C248 1.438 1_655 S
C249 C250 1.428 . S
C250 H242 0.949 . S
C250 C249 1.428 . S
C250 C251 1.356 . S
C251 H243 0.947 . S
C251 C250 1.356 . S
C251 C252 1.416 1_655 S
C252 H244 0.951 . S
C252 C251 1.416 1_455 S
C252 C253 1.347 . S
C253 H245 0.951 . S
C253 C248 1.429 . S
C253 C252 1.347 . S
H254 C255 0.951 . S
C255 H254 0.951 . S
C255 C261 1.265 . S
H256 C261 0.950 . S
H257 C265 0.949 . S
H258 C266 0.950 . S
H259 C267 0.951 . S
H260 C268 0.951 . S
C261 C255 1.265 . S
C261 H256 0.950 . S
C261 C262 1.478 . S
C262 C261 1.478 . S
C262 C263 1.397 1_455 S
C262 C279 1.394 . S
C263 C262 1.397 1_655 S
C263 C264 1.438 . S
C263 C268 1.429 . S
C264 C263 1.438 . S
C264 C265 1.428 . S
C264 C277 1.394 . S
C265 H257 0.949 . S
C265 C264 1.428 . S
C265 C266 1.345 . S
C266 H258 0.950 . S
C266 C265 1.345 . S
C266 C267 1.424 . S
C267 H259 0.951 . S
C267 C266 1.424 . S
C267 C268 1.347 . S
C268 H260 0.951 . S
C268 C263 1.429 . S
C268 C267 1.347 . S
H269 C270 0.951 . S
C270 H269 0.951 . S
C270 C276 1.265 . S
H271 C276 0.950 . S
H272 C280 0.949 . S
H273 C281 0.950 . S
H274 C282 0.951 . S
H275 C283 0.951 . S
C276 C270 1.265 . S
C276 H271 0.950 . S
C276 C277 1.478 . S
C277 C264 1.394 . S
C277 C276 1.478 . S
C277 C278 1.397 1_655 S
C278 C277 1.397 1_455 S
C278 C279 1.438 . S
C278 C283 1.429 . S
C279 C262 1.394 . S
C279 C278 1.438 . S
C279 C280 1.428 . S
C280 H272 0.949 . S
C280 C279 1.428 . S
C280 C281 1.345 . S
C281 H273 0.950 . S
C281 C280 1.345 . S
C281 C282 1.424 . S
C282 H274 0.951 . S
C282 C281 1.424 . S
C282 C283 1.347 . S
C283 H275 0.951 . S
C283 C278 1.429 . S
C283 C282 1.347 . S
H284 C285 0.951 . S
C285 H284 0.951 . S
C285 C291 1.265 . S
H286 C291 0.950 . S
H287 C295 0.949 1_565 S
H288 C296 0.950 . S
H289 C297 0.951 . S
H290 C298 0.951 . S
C291 C285 1.265 . S
C291 H286 0.950 . S
C291 C292 1.478 . S
C292 C291 1.478 . S
C292 C293 1.397 1_556 S
C292 C309 1.394 1_545 S
C293 C292 1.397 1_554 S
C293 C294 1.438 . S
C293 C298 1.429 . S
C294 C293 1.438 . S
C294 C295 1.428 . S
C294 C307 1.394 1_545 S
C295 H287 0.949 1_545 S
C295 C294 1.428 . S
C295 C296 1.345 . S
C296 H288 0.950 . S
C296 C295 1.345 . S
C296 C297 1.424 . S
C297 H289 0.951 . S
C297 C296 1.424 . S
C297 C298 1.347 . S
C298 H290 0.951 . S
C298 C293 1.429 . S
C298 C297 1.347 . S
H299 C300 0.951 . S
C300 H299 0.951 . S
C300 C306 1.265 . S
H301 C306 0.950 . S
H302 C310 0.949 1_545 S
H303 C311 0.950 . S
H304 C312 0.951 . S
H305 C313 0.951 . S
C306 C300 1.265 . S
C306 H301 0.950 . S
C306 C307 1.478 . S
C307 C294 1.394 1_565 S
C307 C306 1.478 . S
C307 C308 1.397 1_554 S
C308 C307 1.397 1_556 S
C308 C309 1.438 . S
C308 C313 1.429 . S
C309 C292 1.394 1_565 S
C309 C308 1.438 . S
C309 C310 1.428 . S
C310 H302 0.949 1_565 S
C310 C309 1.428 . S
C310 C311 1.345 . S
C311 H303 0.950 . S
C311 C310 1.345 . S
C311 C312 1.424 . S
C312 H304 0.951 . S
C312 C311 1.424 . S
C312 C313 1.347 . S
C313 H305 0.951 . S
C313 C308 1.429 . S
C313 C312 1.347 . S
H314 C315 0.951 . S
C315 H314 0.951 . S
C315 C321 1.265 . S
H316 C321 0.950 . S
H317 C325 0.949 1_545 S
H318 C326 0.950 . S
H319 C327 0.951 . S
H320 C328 0.951 . S
C321 C315 1.265 . S
C321 H316 0.950 . S
C321 C322 1.478 . S
C322 C321 1.478 . S
C322 C323 1.397 . S
C322 C339 1.394 1_565 S
C323 C322 1.397 . S
C323 C324 1.438 . S
C323 C328 1.429 . S
C324 C323 1.438 . S
C324 C325 1.428 . S
C324 C337 1.394 1_565 S
C325 H317 0.949 1_565 S
C325 C324 1.428 . S
C325 C326 1.345 . S
C326 H318 0.950 . S
C326 C325 1.345 . S
C326 C327 1.424 . S
C327 H319 0.951 . S
C327 C326 1.424 . S
C327 C328 1.347 . S
C328 H320 0.951 . S
C328 C323 1.429 . S
C328 C327 1.347 . S
H329 C330 0.951 . S
C330 H329 0.951 . S
C330 C336 1.265 . S
H331 C336 0.950 . S
H332 C340 0.949 1_565 S
H333 C341 0.950 . S
H334 C342 0.951 . S
H335 C343 0.951 . S
C336 C330 1.265 . S
C336 H331 0.950 . S
C336 C337 1.478 . S
C337 C324 1.394 1_545 S
C337 C336 1.478 . S
C337 C338 1.397 . S
C338 C337 1.397 . S
C338 C339 1.438 . S
C338 C343 1.429 . S
C339 C322 1.394 1_545 S
C339 C338 1.438 . S
C339 C340 1.428 . S
C340 H332 0.949 1_545 S
C340 C339 1.428 . S
C340 C341 1.345 . S
C341 H333 0.950 . S
C341 C340 1.345 . S
C341 C342 1.424 . S
C342 H334 0.951 . S
C342 C341 1.424 . S
C342 C343 1.347 . S
C343 H335 0.951 . S
C343 C338 1.429 . S
C343 C342 1.347 . S
H344 C345 0.951 . S
C345 H344 0.951 . S
C345 C351 1.265 . S
H346 C351 0.950 . S
H347 C355 0.949 . S
H348 C356 0.950 . S
H349 C357 0.951 . S
H350 C358 0.951 . S
C351 C345 1.265 . S
C351 H346 0.950 . S
C351 C352 1.478 . S
C352 C351 1.478 . S
C352 C353 1.397 . S
C352 C369 1.394 . S
C353 C352 1.397 . S
C353 C354 1.438 . S
C353 C358 1.429 . S
C354 C353 1.438 . S
C354 C355 1.428 . S
C354 C367 1.394 . S
C355 H347 0.949 . S
C355 C354 1.428 . S
C355 C356 1.345 . S
C356 H348 0.950 . S
C356 C355 1.345 . S
C356 C357 1.424 . S
C357 H349 0.951 . S
C357 C356 1.424 . S
C357 C358 1.347 . S
C358 H350 0.951 . S
C358 C353 1.429 . S
C358 C357 1.347 . S
H359 C360 0.951 . S
C360 H359 0.951 . S
C360 C366 1.265 . S
H361 C366 0.950 . S
H362 C370 0.949 . S
H363 C371 0.950 . S
H364 C372 0.951 . S
H365 C373 0.951 . S
C366 C360 1.265 . S
C366 H361 0.950 . S
C366 C367 1.478 . S
C367 C354 1.394 . S
C367 C366 1.478 . S
C367 C368 1.397 . S
C368 C367 1.397 . S
C368 C369 1.438 . S
C368 C373 1.429 . S
C369 C352 1.394 . S
C369 C368 1.438 . S
C369 C370 1.428 . S
C370 H362 0.949 . S
C370 C369 1.428 . S
C370 C371 1.345 . S
C371 H363 0.950 . S
C371 C370 1.345 . S
C371 C372 1.424 . S
C372 H364 0.951 . S
C372 C371 1.424 . S
C372 C373 1.347 . S
C373 H365 0.951 . S
C373 C368 1.429 . S
C373 C372 1.347 . S
H374 C375 0.951 . S
C375 H374 0.951 . S
C375 C381 1.265 . S
H376 C381 0.950 . S
H377 C385 0.949 . S
H378 C386 0.950 . S
H379 C387 0.951 . S
H380 C388 0.951 . S
C381 C375 1.265 . S
C381 H376 0.950 . S
C381 C382 1.478 . S
C382 C381 1.478 . S
C382 C383 1.397 . S
C382 C399 1.394 . S
C383 C382 1.397 . S
C383 C384 1.438 1_556 S
C383 C388 1.429 . S
C384 C383 1.438 1_554 S
C384 C385 1.428 . S
C384 C397 1.394 . S
C385 H377 0.949 . S
C385 C384 1.428 . S
C385 C386 1.345 . S
C386 H378 0.950 . S
C386 C385 1.345 . S
C386 C387 1.424 1_554 S
C387 H379 0.951 . S
C387 C386 1.424 1_556 S
C387 C388 1.347 . S
C388 H380 0.951 . S
C388 C383 1.429 . S
C388 C387 1.347 . S
H389 C390 0.951 . S
C390 H389 0.951 . S
C390 C396 1.265 . S
H391 C396 0.950 . S
H392 C400 0.949 . S
H393 C401 0.950 . S
H394 C402 0.951 . S
H395 C403 0.951 . S
C396 C390 1.265 . S
C396 H391 0.950 . S
C396 C397 1.478 . S
C397 C384 1.394 . S
C397 C396 1.478 . S
C397 C398 1.397 . S
C398 C397 1.397 . S
C398 C399 1.438 1_554 S
C398 C403 1.429 . S
C399 C382 1.394 . S
C399 C398 1.438 1_556 S
C399 C400 1.428 . S
C400 H392 0.949 . S
C400 C399 1.428 . S
C400 C401 1.345 . S
C401 H393 0.950 . S
C401 C400 1.345 . S
C401 C402 1.424 1_556 S
C402 H394 0.951 . S
C402 C401 1.424 1_554 S
C402 C403 1.347 . S
C403 H395 0.951 . S
C403 C398 1.429 . S
C403 C402 1.347 . S
H404 C405 0.951 . S
C405 H404 0.951 . S
C405 C411 1.265 . S
H406 C411 0.950 . S
H407 C415 0.949 . S
H408 C416 0.950 . S
H409 C417 0.951 . S
H410 C418 0.951 . S
C411 C405 1.265 . S
C411 H406 0.950 . S
C411 C412 1.478 . S
C412 C411 1.478 . S
C412 C413 1.397 . S
C412 C429 1.394 . S
C413 C412 1.397 . S
C413 C414 1.438 . S
C413 C418 1.429 . S
C414 C413 1.438 . S
C414 C415 1.428 . S
C414 C427 1.394 . S
C415 H407 0.949 . S
C415 C414 1.428 . S
C415 C416 1.345 . S
C416 H408 0.950 . S
C416 C415 1.345 . S
C416 C417 1.424 . S
C417 H409 0.951 . S
C417 C416 1.424 . S
C417 C418 1.347 . S
C418 H410 0.951 . S
C418 C413 1.429 . S
C418 C417 1.347 . S
H419 C420 0.951 . S
C420 H419 0.951 . S
C420 C426 1.265 . S
H421 C426 0.950 . S
H422 C430 0.949 . S
H423 C431 0.950 . S
H424 C432 0.951 . S
H425 C433 0.951 . S
C426 C420 1.265 . S
C426 H421 0.950 . S
C426 C427 1.478 . S
C427 C414 1.394 . S
C427 C426 1.478 . S
C427 C428 1.397 . S
C428 C427 1.397 . S
C428 C429 1.438 . S
C428 C433 1.429 . S
C429 C412 1.394 . S
C429 C428 1.438 . S
C429 C430 1.428 . S
C430 H422 0.949 . S
C430 C429 1.428 . S
C430 C431 1.345 . S
C431 H423 0.950 . S
C431 C430 1.345 . S
C431 C432 1.424 . S
C432 H424 0.951 . S
C432 C431 1.424 . S
C432 C433 1.347 . S
C433 H425 0.951 . S
C433 C428 1.429 . S
C433 C432 1.347 . S
H434 C435 0.951 . S
C435 H434 0.951 . S
C435 C441 1.265 . S
H436 C441 0.950 . S
H437 C445 0.949 . S
H438 C446 0.950 . S
H439 C447 0.951 . S
H440 C448 0.951 . S
C441 C435 1.265 . S
C441 H436 0.950 . S
C441 C442 1.478 . S
C442 C441 1.478 . S
C442 C443 1.397 . S
C442 C459 1.394 . S
C443 C442 1.397 . S
C443 C444 1.438 1_554 S
C443 C448 1.429 . S
C444 C443 1.438 1_556 S
C444 C445 1.428 . S
C444 C457 1.394 . S
C445 H437 0.949 . S
C445 C444 1.428 . S
C445 C446 1.345 . S
C446 H438 0.950 . S
C446 C445 1.345 . S
C446 C447 1.424 1_556 S
C447 H439 0.951 . S
C447 C446 1.424 1_554 S
C447 C448 1.347 . S
C448 H440 0.951 . S
C448 C443 1.429 . S
C448 C447 1.347 . S
H449 C450 0.951 . S
C450 H449 0.951 . S
C450 C456 1.265 . S
H451 C456 0.950 . S
H452 C460 0.949 . S
H453 C461 0.950 . S
H454 C462 0.951 . S
H455 C463 0.951 . S
C456 C450 1.265 . S
C456 H451 0.950 . S
C456 C457 1.478 . S
C457 C444 1.394 . S
C457 C456 1.478 . S
C457 C458 1.397 . S
C458 C457 1.397 . S
C458 C459 1.438 1_556 S
C458 C463 1.429 . S
C459 C442 1.394 . S
C459 C458 1.438 1_554 S
C459 C460 1.428 . S
C460 H452 0.949 . S
C460 C459 1.428 . S
C460 C461 1.345 . S
C461 H453 0.950 . S
C461 C460 1.345 . S
C461 C462 1.424 1_554 S
C462 H454 0.951 . S
C462 C461 1.424 1_556 S
C462 C463 1.347 . S
C463 H455 0.951 . S
C463 C458 1.429 . S
C463 C462 1.347 . S
H464 C465 0.951 . S
C465 H464 0.951 . S
C465 C471 1.265 . S
H466 C471 0.950 . S
H467 C475 0.949 . S
H468 C476 0.950 . S
H469 C477 0.951 . S
H470 C478 0.951 . S
C471 C465 1.265 . S
C471 H466 0.950 . S
C471 C472 1.478 . S
C472 C471 1.478 . S
C472 C473 1.397 . S
C472 C489 1.394 . S
C473 C472 1.397 . S
C473 C474 1.438 . S
C473 C478 1.429 . S
C474 C473 1.438 . S
C474 C475 1.428 . S
C474 C487 1.394 . S
C475 H467 0.949 . S
C475 C474 1.428 . S
C475 C476 1.345 . S
C476 H468 0.950 . S
C476 C475 1.345 . S
C476 C477 1.424 . S
C477 H469 0.951 . S
C477 C476 1.424 . S
C477 C478 1.347 . S
C478 H470 0.951 . S
C478 C473 1.429 . S
C478 C477 1.347 . S
H479 C480 0.951 . S
C480 H479 0.951 . S
C480 C486 1.265 . S
H481 C486 0.950 . S
H482 C490 0.949 . S
H483 C491 0.950 . S
H484 C492 0.951 . S
H485 C493 0.951 . S
C486 C480 1.265 . S
C486 H481 0.950 . S
C486 C487 1.478 . S
C487 C474 1.394 . S
C487 C486 1.478 . S
C487 C488 1.397 . S
C488 C487 1.397 . S
C488 C489 1.438 . S
C488 C493 1.429 . S
C489 C472 1.394 . S
C489 C488 1.438 . S
C489 C490 1.428 . S
C490 H482 0.949 . S
C490 C489 1.428 . S
C490 C491 1.345 . S
C491 H483 0.950 . S
C491 C490 1.345 . S
C491 C492 1.424 . S
C492 H484 0.951 . S
C492 C491 1.424 . S
C492 C493 1.347 . S
C493 H485 0.951 . S
C493 C488 1.429 . S
C493 C492 1.347 . S
H494 C495 0.951 . S
C495 H494 0.951 . S
C495 C501 1.265 . S
H496 C501 0.950 . S
H497 C505 0.949 . S
H498 C506 0.950 . S
H499 C507 0.951 . S
H500 C508 0.951 . S
C501 C495 1.265 . S
C501 H496 0.950 . S
C501 C502 1.478 . S
C502 C501 1.478 . S
C502 C503 1.397 . S
C502 C519 1.394 . S
C503 C502 1.397 . S
C503 C504 1.438 . S
C503 C508 1.429 . S
C504 C503 1.438 . S
C504 C505 1.428 . S
C504 C517 1.394 . S
C505 H497 0.949 . S
C505 C504 1.428 . S
C505 C506 1.345 . S
C506 H498 0.950 . S
C506 C505 1.345 . S
C506 C507 1.424 . S
C507 H499 0.951 . S
C507 C506 1.424 . S
C507 C508 1.347 . S
C508 H500 0.951 . S
C508 C503 1.429 . S
C508 C507 1.347 . S
H509 C510 0.951 . S
C510 H509 0.951 . S
C510 C516 1.265 . S
H511 C516 0.950 . S
H512 C520 0.949 . S
H513 C521 0.950 . S
H514 C522 0.951 . S
H515 C523 0.951 . S
C516 C510 1.265 . S
C516 H511 0.950 . S
C516 C517 1.478 . S
C517 C504 1.394 . S
C517 C516 1.478 . S
C517 C518 1.397 . S
C518 C517 1.397 . S
C518 C519 1.438 . S
C518 C523 1.429 . S
C519 C502 1.394 . S
C519 C518 1.438 . S
C519 C520 1.428 . S
C520 H512 0.949 . S
C520 C519 1.428 . S
C520 C521 1.345 . S
C521 H513 0.950 . S
C521 C520 1.345 . S
C521 C522 1.424 . S
C522 H514 0.951 . S
C522 C521 1.424 . S
C522 C523 1.347 . S
C523 H515 0.951 . S
C523 C518 1.429 . S
C523 C522 1.347 . S
H524 C525 0.951 . S
C525 H524 0.951 . S
C525 C531 1.265 . S
H526 C531 0.950 . S
H527 C535 0.949 . S
H528 C536 0.950 . S
H529 C537 0.951 . S
H530 C538 0.951 . S
C531 C525 1.265 . S
C531 H526 0.950 . S
C531 C532 1.478 . S
C532 C531 1.478 . S
C532 C533 1.397 . S
C532 C549 1.394 . S
C533 C532 1.397 . S
C533 C534 1.438 1_455 S
C533 C538 1.429 . S
C534 C533 1.438 1_655 S
C534 C535 1.428 . S
C534 C547 1.394 . S
C535 H527 0.949 . S
C535 C534 1.428 . S
C535 C536 1.345 . S
C536 H528 0.950 . S
C536 C535 1.345 . S
C536 C537 1.424 1_655 S
C537 H529 0.951 . S
C537 C536 1.424 1_455 S
C537 C538 1.347 . S
C538 H530 0.951 . S
C538 C533 1.429 . S
C538 C537 1.347 . S
H539 C540 0.951 . S
C540 H539 0.951 . S
C540 C546 1.265 . S
H541 C546 0.950 . S
H542 C550 0.949 . S
H543 C551 0.950 . S
H544 C552 0.951 . S
H545 C553 0.951 . S
C546 C540 1.265 . S
C546 H541 0.950 . S
C546 C547 1.478 . S
C547 C534 1.394 . S
C547 C546 1.478 . S
C547 C548 1.397 . S
C548 C547 1.397 . S
C548 C549 1.438 1_655 S
C548 C553 1.429 . S
C549 C532 1.394 . S
C549 C548 1.438 1_455 S
C549 C550 1.428 . S
C550 H542 0.949 . S
C550 C549 1.428 . S
C550 C551 1.345 . S
C551 H543 0.950 . S
C551 C550 1.345 . S
C551 C552 1.424 1_455 S
C552 H544 0.951 . S
C552 C551 1.424 1_655 S
C552 C553 1.347 . S
C553 H545 0.951 . S
C553 C548 1.429 . S
C553 C552 1.347 . S
H554 C555 0.951 . S
C555 H554 0.951 . S
C555 C561 1.265 . S
H556 C561 0.950 . S
H557 C565 0.949 . S
H558 C566 0.950 . S
H559 C567 0.951 . S
H560 C568 0.951 . S
C561 C555 1.265 . S
C561 H556 0.950 . S
C561 C562 1.478 . S
C562 C561 1.478 . S
C562 C563 1.397 . S
C562 C579 1.394 . S
C563 C562 1.397 . S
C563 C564 1.438 1_455 S
C563 C568 1.429 . S
C564 C563 1.438 1_655 S
C564 C565 1.428 . S
C564 C577 1.394 . S
C565 H557 0.949 . S
C565 C564 1.428 . S
C565 C566 1.345 . S
C566 H558 0.950 . S
C566 C565 1.345 . S
C566 C567 1.424 1_655 S
C567 H559 0.951 . S
C567 C566 1.424 1_455 S
C567 C568 1.347 . S
C568 H560 0.951 . S
C568 C563 1.429 . S
C568 C567 1.347 . S
H569 C570 0.951 . S
C570 H569 0.951 . S
C570 C576 1.265 . S
H571 C576 0.950 . S
H572 C580 0.949 . S
H573 C581 0.950 . S
H574 C582 0.951 . S
H575 C583 0.951 . S
C576 C570 1.265 . S
C576 H571 0.950 . S
C576 C577 1.478 . S
C577 C564 1.394 . S
C577 C576 1.478 . S
C577 C578 1.397 . S
C578 C577 1.397 . S
C578 C579 1.438 1_655 S
C578 C583 1.429 . S
C579 C562 1.394 . S
C579 C578 1.438 1_455 S
C579 C580 1.428 . S
C580 H572 0.949 . S
C580 C579 1.428 . S
C580 C581 1.345 . S
C581 H573 0.950 . S
C581 C580 1.345 . S
C581 C582 1.424 1_455 S
C582 H574 0.951 . S
C582 C581 1.424 1_655 S
C582 C583 1.347 . S
C583 H575 0.951 . S
C583 C578 1.429 . S
C583 C582 1.347 . S
C105 C4 1.847 . S
C120 C30 1.847 . S
C135 C49 1.866 . S
C150 C17 1.866 . S
C165 C82 1.866 . S
C180 C56 1.866 . S
C195 C69 1.856 . S
C210 C95 1.856 . S
C225 C23 1.229 . S
C240 C43 1.229 . S
C255 C10 1.232 . S
C270 C36 1.232 . S
C285 C101 1.188 . S
C300 C75 1.188 . S
C315 C62 1.243 . S
C330 C88 1.243 . S
C345 C68 1.521 . S
C360 C44 1.521 . S
C375 C29 1.519 . S
C390 C55 1.519 . S
C405 C16 1.517 . S
C420 C94 1.517 . S
C435 C3 1.519 . S
C450 C81 1.519 . S
C465 C5 1.540 . S
C480 C18 1.544 . S
C495 C31 1.537 . S
C510 C42 1.547 . S
C525 C70 1.540 . S
C540 C57 1.540 . S
C555 C83 1.548 . S
C570 C96 1.533 . S
