# Generated by pormake.
# Topology whz, (6)-cn, num edge types: 1
# Building blocks:
#     Node 0, Type 0, BuildingBlock: JUFBIX_clean_sbu_0, # of connection points: 6
#     Node 1, Type 0, BuildingBlock: JUFBIX_clean_sbu_0, # of connection points: 6
#     Node 2, Type 0, BuildingBlock: JUFBIX_clean_sbu_0, # of connection points: 6
#     Node 3, Type 0, BuildingBlock: JUFBIX_clean_sbu_0, # of connection points: 6
#     Node 4, Type 0, BuildingBlock: JUFBIX_clean_sbu_0, # of connection points: 6
#     Node 5, Type 0, BuildingBlock: JUFBIX_clean_sbu_0, # of connection points: 6
#     Node 6, Type 0, BuildingBlock: JUFBIX_clean_sbu_0, # of connection points: 6
#     Node 7, Type 0, BuildingBlock: JUFBIX_clean_sbu_0, # of connection points: 6
#     Node 8, Type 0, BuildingBlock: JUFBIX_clean_sbu_0, # of connection points: 6
#     Node 9, Type 0, BuildingBlock: JUFBIX_clean_sbu_0, # of connection points: 6
#     Node 10, Type 0, BuildingBlock: JUFBIX_clean_sbu_0, # of connection points: 6
#     Node 11, Type 0, BuildingBlock: JUFBIX_clean_sbu_0, # of connection points: 6
#     Node 12, Type 0, BuildingBlock: JUFBIX_clean_sbu_0, # of connection points: 6
#     Node 13, Type 0, BuildingBlock: JUFBIX_clean_sbu_0, # of connection points: 6
#     Node 14, Type 0, BuildingBlock: JUFBIX_clean_sbu_0, # of connection points: 6
#     Node 15, Type 0, BuildingBlock: JUFBIX_clean_sbu_0, # of connection points: 6
#     Edge 16, Type (0, 0), BuildingBlock: XIVTED_clean_linker_0, # of connection points: 2
#     Edge 17, Type (0, 0), BuildingBlock: XIVTED_clean_linker_0, # of connection points: 2
#     Edge 18, Type (0, 0), BuildingBlock: XIVTED_clean_linker_0, # of connection points: 2
#     Edge 19, Type (0, 0), BuildingBlock: XIVTED_clean_linker_0, # of connection points: 2
#     Edge 20, Type (0, 0), BuildingBlock: XIVTED_clean_linker_0, # of connection points: 2
#     Edge 21, Type (0, 0), BuildingBlock: XIVTED_clean_linker_0, # of connection points: 2
#     Edge 22, Type (0, 0), BuildingBlock: XIVTED_clean_linker_0, # of connection points: 2
#     Edge 23, Type (0, 0), BuildingBlock: XIVTED_clean_linker_0, # of connection points: 2
#     Edge 24, Type (0, 0), BuildingBlock: XIVTED_clean_linker_0, # of connection points: 2
#     Edge 25, Type (0, 0), BuildingBlock: XIVTED_clean_linker_0, # of connection points: 2
#     Edge 26, Type (0, 0), BuildingBlock: XIVTED_clean_linker_0, # of connection points: 2
#     Edge 27, Type (0, 0), BuildingBlock: XIVTED_clean_linker_0, # of connection points: 2
#     Edge 28, Type (0, 0), BuildingBlock: XIVTED_clean_linker_0, # of connection points: 2
#     Edge 29, Type (0, 0), BuildingBlock: XIVTED_clean_linker_0, # of connection points: 2
#     Edge 30, Type (0, 0), BuildingBlock: XIVTED_clean_linker_0, # of connection points: 2
#     Edge 31, Type (0, 0), BuildingBlock: XIVTED_clean_linker_0, # of connection points: 2
#     Edge 32, Type (0, 0), BuildingBlock: XIVTED_clean_linker_0, # of connection points: 2
#     Edge 33, Type (0, 0), BuildingBlock: XIVTED_clean_linker_0, # of connection points: 2
#     Edge 34, Type (0, 0), BuildingBlock: XIVTED_clean_linker_0, # of connection points: 2
#     Edge 35, Type (0, 0), BuildingBlock: XIVTED_clean_linker_0, # of connection points: 2
#     Edge 36, Type (0, 0), BuildingBlock: XIVTED_clean_linker_0, # of connection points: 2
#     Edge 37, Type (0, 0), BuildingBlock: XIVTED_clean_linker_0, # of connection points: 2
#     Edge 38, Type (0, 0), BuildingBlock: XIVTED_clean_linker_0, # of connection points: 2
#     Edge 39, Type (0, 0), BuildingBlock: XIVTED_clean_linker_0, # of connection points: 2
#     Edge 40, Type (0, 0), BuildingBlock: XIVTED_clean_linker_0, # of connection points: 2
#     Edge 41, Type (0, 0), BuildingBlock: XIVTED_clean_linker_0, # of connection points: 2
#     Edge 42, Type (0, 0), BuildingBlock: XIVTED_clean_linker_0, # of connection points: 2
#     Edge 43, Type (0, 0), BuildingBlock: XIVTED_clean_linker_0, # of connection points: 2
#     Edge 44, Type (0, 0), BuildingBlock: XIVTED_clean_linker_0, # of connection points: 2
#     Edge 45, Type (0, 0), BuildingBlock: XIVTED_clean_linker_0, # of connection points: 2
#     Edge 46, Type (0, 0), BuildingBlock: XIVTED_clean_linker_0, # of connection points: 2
#     Edge 47, Type (0, 0), BuildingBlock: XIVTED_clean_linker_0, # of connection points: 2
#     Edge 48, Type (0, 0), BuildingBlock: XIVTED_clean_linker_0, # of connection points: 2
#     Edge 49, Type (0, 0), BuildingBlock: XIVTED_clean_linker_0, # of connection points: 2
#     Edge 50, Type (0, 0), BuildingBlock: XIVTED_clean_linker_0, # of connection points: 2
#     Edge 51, Type (0, 0), BuildingBlock: XIVTED_clean_linker_0, # of connection points: 2
#     Edge 52, Type (0, 0), BuildingBlock: XIVTED_clean_linker_0, # of connection points: 2
#     Edge 53, Type (0, 0), BuildingBlock: XIVTED_clean_linker_0, # of connection points: 2
#     Edge 54, Type (0, 0), BuildingBlock: XIVTED_clean_linker_0, # of connection points: 2
#     Edge 55, Type (0, 0), BuildingBlock: XIVTED_clean_linker_0, # of connection points: 2
#     Edge 56, Type (0, 0), BuildingBlock: XIVTED_clean_linker_0, # of connection points: 2
#     Edge 57, Type (0, 0), BuildingBlock: XIVTED_clean_linker_0, # of connection points: 2
#     Edge 58, Type (0, 0), BuildingBlock: XIVTED_clean_linker_0, # of connection points: 2
#     Edge 59, Type (0, 0), BuildingBlock: XIVTED_clean_linker_0, # of connection points: 2
#     Edge 60, Type (0, 0), BuildingBlock: XIVTED_clean_linker_0, # of connection points: 2
#     Edge 61, Type (0, 0), BuildingBlock: XIVTED_clean_linker_0, # of connection points: 2
#     Edge 62, Type (0, 0), BuildingBlock: XIVTED_clean_linker_0, # of connection points: 2
#     Edge 63, Type (0, 0), BuildingBlock: XIVTED_clean_linker_0, # of connection points: 2
# Relax obj value: 0.407
# Max RMSD: 0.257
# Mean RMSD: 0.257
data_MOF--net-whz--node1-JUFBIX_clean_sbu_0--edge1-XIVTED_clean_linker_0
_symmetry_space_group_name_H-M    P1
_symmetry_Int_Tables_number       1
_symmetry_cell_setting            triclinic
loop_
_symmetry_equiv_pos_as_xyz
'x, y, z'
_cell_length_a     40.736594
_cell_length_b     40.865777
_cell_length_c     45.774458
_cell_angle_alpha  90.022402
_cell_angle_beta   89.962959
_cell_angle_gamma 90.083763
loop_
_atom_site_label
_atom_site_type_symbol
_atom_site_fract_x
_atom_site_fract_y
_atom_site_fract_z
_atom_type_partial_charge
Co0 Co 0.26365 0.13868 0.13859 0.0
C1 C 0.31622 0.09606 0.1481 0.0
Co2 Co 0.31169 0.15705 0.1223 0.0
C3 C 0.19477 0.11738 0.14586 0.0
C4 C 0.22505 0.11064 0.18358 0.0
N5 N 0.22562 0.12232 0.15601 0.0
N6 N 0.17529 0.10289 0.16611 0.0
C7 C 0.19439 0.09897 0.18985 0.0
H8 H 0.18713 0.12318 0.12382 0.0
H9 H 0.24592 0.10992 0.19815 0.0
C10 C 0.25866 0.20027 0.1158 0.0
N11 N 0.35087 0.17374 0.1056 0.0
C12 C 0.37799 0.18747 0.11798 0.0
C13 C 0.3555 0.17789 0.07664 0.0
N14 N 0.39888 0.20016 0.09778 0.0
C15 C 0.38469 0.19375 0.07184 0.0
C16 C 0.27187 0.12294 0.08139 0.0
O17 O 0.24233 0.17807 0.12879 0.0
O18 O 0.28875 0.19524 0.10953 0.0
O19 O 0.30031 0.13513 0.08579 0.0
O20 O 0.25173 0.12118 0.10249 0.0
O21 O 0.33404 0.11842 0.1367 0.0
H22 H 0.33822 0.17106 0.0598 0.0
H23 H 0.38165 0.18952 0.14132 0.0
O24 O 0.28531 0.09983 0.14873 0.0
O25 O 0.27544 0.15709 0.17438 0.0
O26 O 0.32091 0.17914 0.15816 0.0
C27 C 0.3003 0.175 0.17868 0.0
H28 H 0.18687 0.08807 0.21034 0.0
H29 H 0.39441 0.20059 0.05069 0.0
Co30 Co 0.62923 0.5134 0.38823 0.0
C31 C 0.66579 0.57072 0.39687 0.0
Co32 Co 0.60539 0.5585 0.3724 0.0
C33 C 0.65578 0.44692 0.39496 0.0
C34 C 0.6667 0.47956 0.43025 0.0
N35 N 0.65095 0.47791 0.40435 0.0
N36 N 0.67417 0.42949 0.41401 0.0
C37 C 0.68089 0.45002 0.43622 0.0
H38 H 0.6466 0.43761 0.37438 0.0
H39 H 0.66796 0.50108 0.44398 0.0
C40 C 0.56808 0.50119 0.36641 0.0
N41 N 0.5834 0.59513 0.35752 0.0
C42 C 0.57646 0.62436 0.37017 0.0
C43 C 0.56723 0.59577 0.33182 0.0
N44 N 0.55617 0.64275 0.35348 0.0
C45 C 0.5504 0.62478 0.32937 0.0
C46 C 0.64171 0.52428 0.33007 0.0
O47 O 0.59181 0.48727 0.37947 0.0
O48 O 0.57022 0.53142 0.3601 0.0
O49 O 0.6269 0.55128 0.33498 0.0
O50 O 0.64628 0.50439 0.35102 0.0
O51 O 0.64093 0.58531 0.38616 0.0
H52 H 0.56678 0.57586 0.31624 0.0
H53 H 0.58488 0.63137 0.39171 0.0
O54 O 0.66612 0.5397 0.39734 0.0
O55 O 0.61122 0.52192 0.425 0.0
O56 O 0.58329 0.56389 0.40903 0.0
C57 C 0.58996 0.54387 0.42943 0.0
H58 H 0.69492 0.44406 0.45557 0.0
H59 H 0.5348 0.63202 0.31136 0.0
Co60 Co 0.25056 0.87464 0.63856 0.0
C61 C 0.19214 0.90997 0.645 0.0
Co62 Co 0.20602 0.8489 0.62315 0.0
C63 C 0.31653 0.90255 0.64623 0.0
C64 C 0.28252 0.91398 0.68041 0.0
N65 N 0.2852 0.89761 0.65491 0.0
N66 N 0.3332 0.92159 0.66536 0.0
C67 C 0.31181 0.92864 0.68687 0.0
H68 H 0.32666 0.89286 0.62615 0.0
H69 H 0.2605 0.91521 0.6936 0.0
C70 C 0.26434 0.8129 0.61974 0.0
N71 N 0.17021 0.82565 0.60816 0.0
C72 C 0.14049 0.8191 0.6202 0.0
C73 C 0.17077 0.80801 0.58324 0.0
N74 N 0.12293 0.79766 0.60392 0.0
C75 C 0.14195 0.79071 0.58068 0.0
C76 C 0.24108 0.88412 0.58011 0.0
O77 O 0.27786 0.83806 0.63083 0.0
O78 O 0.23391 0.81343 0.61363 0.0
O79 O 0.21459 0.86819 0.58493 0.0
O80 O 0.25993 0.89095 0.60137 0.0
O81 O 0.17821 0.88467 0.63442 0.0
H82 H 0.19137 0.80692 0.56835 0.0
H83 H 0.13251 0.82866 0.64108 0.0
O84 O 0.22318 0.91078 0.6465 0.0
O85 O 0.2417 0.85724 0.67562 0.0
O86 O 0.19938 0.82902 0.66045 0.0
C87 C 0.21946 0.83637 0.68066 0.0
H88 H 0.31702 0.94311 0.70613 0.0
H89 H 0.13555 0.77398 0.56323 0.0
Co90 Co 0.88799 0.49442 0.882 0.0
C91 C 0.85375 0.43593 0.89312 0.0
Co92 Co 0.91449 0.44907 0.86992 0.0
C93 C 0.85919 0.56025 0.88614 0.0
C94 C 0.84884 0.52888 0.92245 0.0
N95 N 0.86469 0.5298 0.89656 0.0
N96 N 0.84027 0.57804 0.90455 0.0
C97 C 0.83389 0.55829 0.92738 0.0
H98 H 0.86851 0.56899 0.86541 0.0
H99 H 0.84829 0.50803 0.93701 0.0
C100 C 0.94971 0.50764 0.86218 0.0
N101 N 0.93825 0.41301 0.85654 0.0
C102 C 0.94422 0.38358 0.86908 0.0
C103 C 0.95662 0.41307 0.83199 0.0
N104 N 0.96602 0.36577 0.85345 0.0
C105 C 0.97382 0.38427 0.83016 0.0
C106 C 0.87738 0.47903 0.82504 0.0
O107 O 0.92382 0.52189 0.87108 0.0
O108 O 0.94983 0.47672 0.85929 0.0
O109 O 0.89563 0.45479 0.83159 0.0
O110 O 0.8694 0.49953 0.84467 0.0
O111 O 0.87878 0.4216 0.8824 0.0
H112 H 0.95815 0.43324 0.81675 0.0
H113 H 0.93386 0.37592 0.88977 0.0
O114 O 0.85283 0.46692 0.89325 0.0
O115 O 0.9074 0.48947 0.91908 0.0
O116 O 0.93393 0.44483 0.9073 0.0
C117 C 0.9275 0.46708 0.92581 0.0
H118 H 0.81982 0.56479 0.94659 0.0
H119 H 0.99095 0.37744 0.81311 0.0
Co120 Co 0.70396 0.84996 0.88325 0.0
C121 C 0.75649 0.80668 0.89076 0.0
Co122 Co 0.75207 0.86788 0.86728 0.0
C123 C 0.63553 0.82523 0.88707 0.0
C124 C 0.66048 0.82738 0.92817 0.0
N125 N 0.66456 0.83397 0.89952 0.0
N126 N 0.61363 0.81401 0.90705 0.0
C127 C 0.62941 0.81546 0.93285 0.0
H128 H 0.63048 0.82722 0.86393 0.0
H129 H 0.67913 0.83049 0.94475 0.0
C130 C 0.70012 0.91069 0.85692 0.0
N131 N 0.79023 0.88396 0.85012 0.0
C132 C 0.8205 0.89001 0.86101 0.0
C133 C 0.79143 0.895 0.82234 0.0
N134 N 0.84021 0.90459 0.84104 0.0
C135 C 0.82194 0.90744 0.8167 0.0
C136 C 0.71611 0.83103 0.82716 0.0
O137 O 0.68198 0.8885 0.86816 0.0
O138 O 0.73097 0.90669 0.85673 0.0
O139 O 0.74071 0.84925 0.83151 0.0
O140 O 0.69519 0.82715 0.84748 0.0
O141 O 0.77306 0.82852 0.87753 0.0
H142 H 0.77101 0.89503 0.80726 0.0
H143 H 0.82747 0.88515 0.88341 0.0
O144 O 0.72641 0.81197 0.89677 0.0
O145 O 0.71475 0.87226 0.91981 0.0
O146 O 0.76363 0.88558 0.90339 0.0
C147 C 0.74331 0.88416 0.92437 0.0
H148 H 0.61937 0.80776 0.95365 0.0
H149 H 0.82987 0.91828 0.79631 0.0
Co150 Co 0.41074 0.45321 0.63307 0.0
C151 C 0.45462 0.50352 0.64523 0.0
Co152 Co 0.39394 0.50259 0.61947 0.0
C153 C 0.43385 0.38443 0.6337 0.0
C154 C 0.42905 0.40585 0.67617 0.0
N155 N 0.42469 0.41242 0.64753 0.0
N156 N 0.44309 0.36082 0.65279 0.0
C157 C 0.43997 0.37435 0.67943 0.0
H158 H 0.43361 0.38134 0.61022 0.0
H159 H 0.42517 0.42304 0.69379 0.0
C160 C 0.35038 0.45307 0.6048 0.0
N161 N 0.3809 0.54279 0.60463 0.0
C162 C 0.37681 0.57171 0.61845 0.0
C163 C 0.37431 0.54919 0.57628 0.0
N164 N 0.36852 0.59578 0.59969 0.0
C165 C 0.36694 0.58175 0.57317 0.0
C166 C 0.4317 0.46867 0.57831 0.0
O167 O 0.37146 0.43401 0.61648 0.0
O168 O 0.35533 0.48373 0.60535 0.0
O169 O 0.41475 0.49376 0.58402 0.0
O170 O 0.43378 0.4459 0.59713 0.0
O171 O 0.43291 0.52136 0.63341 0.0
H172 H 0.37454 0.53127 0.55889 0.0
H173 H 0.37998 0.57515 0.64173 0.0
O174 O 0.44963 0.47294 0.64812 0.0
O175 O 0.38806 0.46247 0.66981 0.0
O176 O 0.37401 0.51159 0.65513 0.0
C177 C 0.3753 0.49032 0.67522 0.0
H178 H 0.44591 0.36245 0.69989 0.0
H179 H 0.3599 0.59401 0.55316 0.0
Co180 Co 0.80848 0.15976 0.38257 0.0
C181 C 0.75567 0.20082 0.39556 0.0
Co182 Co 0.75938 0.13993 0.37066 0.0
C183 C 0.87528 0.18967 0.38243 0.0
C184 C 0.85429 0.18318 0.42491 0.0
N185 N 0.84865 0.17694 0.39638 0.0
N186 N 0.89679 0.20372 0.40131 0.0
C187 C 0.88356 0.19929 0.42797 0.0
H188 H 0.87799 0.19024 0.35891 0.0
H189 H 0.83747 0.17786 0.44255 0.0
C190 C 0.81148 0.09934 0.35517 0.0
N191 N 0.71966 0.12405 0.35661 0.0
C192 C 0.69032 0.12051 0.37008 0.0
C193 C 0.71414 0.11501 0.32865 0.0
N194 N 0.66682 0.11026 0.35137 0.0
C195 C 0.6817 0.10678 0.32534 0.0
C196 C 0.79016 0.17893 0.32826 0.0
O197 O 0.82983 0.12163 0.36607 0.0
O198 O 0.78052 0.10258 0.35645 0.0
O199 O 0.766 0.16088 0.33482 0.0
O200 O 0.81355 0.18237 0.34638 0.0
O201 O 0.73839 0.17803 0.38458 0.0
H202 H 0.73256 0.11452 0.31163 0.0
H203 H 0.68615 0.12578 0.39296 0.0
O204 O 0.7866 0.19715 0.39768 0.0
O205 O 0.80153 0.13763 0.41936 0.0
O206 O 0.75271 0.11948 0.40688 0.0
C207 C 0.77512 0.1226 0.42591 0.0
H208 H 0.89395 0.20791 0.44834 0.0
H209 H 0.67004 0.09818 0.30552 0.0
Co210 Co 0.09778 0.55656 0.13597 0.0
C211 C 0.06489 0.49719 0.14557 0.0
Co212 Co 0.12511 0.51204 0.12257 0.0
C213 C 0.06821 0.62221 0.13646 0.0
C214 C 0.05539 0.59322 0.17373 0.0
N215 N 0.07373 0.59274 0.14917 0.0
N216 N 0.04674 0.64062 0.15198 0.0
C217 C 0.03869 0.62238 0.17539 0.0
H218 H 0.07884 0.62959 0.1158 0.0
H219 H 0.05374 0.57331 0.18923 0.0
C220 C 0.15759 0.57096 0.11065 0.0
N221 N 0.14896 0.47684 0.10806 0.0
C222 C 0.15532 0.44663 0.1187 0.0
C223 C 0.16459 0.47786 0.08207 0.0
N224 N 0.1746 0.42911 0.10035 0.0
C225 C 0.18029 0.44878 0.07732 0.0
C226 C 0.08333 0.53751 0.08015 0.0
O227 O 0.13211 0.58461 0.12127 0.0
O228 O 0.15959 0.54003 0.11097 0.0
O229 O 0.10521 0.51643 0.08576 0.0
O230 O 0.0762 0.55889 0.09928 0.0
O231 O 0.09 0.48412 0.13388 0.0
H232 H 0.16456 0.49857 0.06736 0.0
H233 H 0.14643 0.43788 0.13958 0.0
O234 O 0.06405 0.52802 0.1493 0.0
O235 O 0.11872 0.55265 0.17341 0.0
O236 O 0.14418 0.50757 0.15985 0.0
C237 C 0.13709 0.52835 0.17955 0.0
H238 H 0.02191 0.62969 0.19254 0.0
H239 H 0.19447 0.44244 0.05813 0.0
Co240 Co 0.76431 0.63901 0.63921 0.0
C241 C 0.81799 0.59789 0.64835 0.0
Co242 Co 0.81187 0.65966 0.62469 0.0
C243 C 0.69695 0.61471 0.64324 0.0
C244 C 0.72397 0.6106 0.68318 0.0
N245 N 0.72665 0.6208 0.65518 0.0
N246 N 0.676 0.6018 0.66297 0.0
C247 C 0.69282 0.59924 0.68807 0.0
H248 H 0.69074 0.61975 0.6207 0.0
H249 H 0.74358 0.61101 0.69909 0.0
C250 C 0.75743 0.70107 0.61843 0.0
N251 N 0.85021 0.67856 0.60964 0.0
C252 C 0.8796 0.68503 0.62233 0.0
C253 C 0.85177 0.69354 0.58339 0.0
N254 N 0.89894 0.70386 0.60508 0.0
C255 C 0.88147 0.70919 0.58063 0.0
C256 C 0.77464 0.62619 0.58162 0.0
O257 O 0.74135 0.67745 0.62941 0.0
O258 O 0.78802 0.69786 0.61362 0.0
O259 O 0.80224 0.63994 0.58673 0.0
O260 O 0.75458 0.6219 0.6025 0.0
O261 O 0.83533 0.62096 0.63751 0.0
H262 H 0.83189 0.69433 0.56775 0.0
H263 H 0.88598 0.67766 0.64432 0.0
O264 O 0.78706 0.60105 0.64926 0.0
O265 O 0.77383 0.65717 0.67565 0.0
O266 O 0.81973 0.68007 0.66167 0.0
C267 C 0.7981 0.67539 0.68124 0.0
H268 H 0.68343 0.58901 0.70824 0.0
H269 H 0.8894 0.72401 0.56233 0.0
Co270 Co 0.12487 0.01136 0.88687 0.0
C271 C 0.16405 0.06602 0.89601 0.0
Co272 Co 0.10335 0.05703 0.86988 0.0
C273 C 0.14782 0.94435 0.89156 0.0
C274 C 0.15309 0.97143 0.93135 0.0
N275 N 0.14296 0.97422 0.90335 0.0
N276 N 0.15999 0.92313 0.91131 0.0
C277 C 0.16331 0.93996 0.93635 0.0
H278 H 0.1422 0.93813 0.86912 0.0
H279 H 0.15308 0.99106 0.94721 0.0
C280 C 0.06341 1.00214 0.8635 0.0
N281 N 0.08428 0.09458 0.85418 0.0
C282 C 0.07721 0.12365 0.86696 0.0
C283 C 0.06986 0.09609 0.82769 0.0
N284 N 0.05848 0.14278 0.84958 0.0
C285 C 0.05388 0.12551 0.82488 0.0
C286 C 0.13917 0.02053 0.82888 0.0
O287 O 0.08638 0.98762 0.87703 0.0
O288 O 0.06668 0.03221 0.85706 0.0
O289 O 0.12513 0.04803 0.83305 0.0
O290 O 0.14275 1.0011 0.85029 0.0
O291 O 0.14038 0.08155 0.88418 0.0
H292 H 0.0697 0.07639 0.81189 0.0
H293 H 0.08409 0.12991 0.88911 0.0
O294 O 0.16287 0.03501 0.89719 0.0
O295 O 0.10615 0.02141 0.92296 0.0
O296 O 0.08086 0.06452 0.90597 0.0
C297 C 0.08636 0.04479 0.92683 0.0
H298 H 0.17314 0.93032 0.95656 0.0
H299 H 0.03938 0.13339 0.80637 0.0
Co300 Co 0.75142 0.37386 0.13726 0.0
C301 C 0.6962 0.41251 0.14581 0.0
Co302 Co 0.70578 0.35157 0.1203 0.0
C303 C 0.82034 0.39246 0.14553 0.0
C304 C 0.78805 0.41005 0.1789 0.0
N305 N 0.78848 0.39274 0.15384 0.0
N306 N 0.83976 0.40894 0.16456 0.0
C307 C 0.81926 0.42009 0.18545 0.0
H308 H 0.82901 0.38014 0.12608 0.0
H309 H 0.7663 0.41511 0.19169 0.0
C310 C 0.76101 0.31216 0.1147 0.0
N311 N 0.66772 0.33235 0.10439 0.0
C312 C 0.63849 0.32387 0.11663 0.0
C313 C 0.66494 0.32318 0.07619 0.0
N314 N 0.61766 0.31029 0.09691 0.0
C315 C 0.63439 0.30994 0.07153 0.0
C316 C 0.74291 0.38707 0.07913 0.0
O317 O 0.77513 0.33516 0.12858 0.0
O318 O 0.73102 0.31519 0.10739 0.0
O319 O 0.71503 0.37356 0.08343 0.0
O320 O 0.76242 0.3906 0.10052 0.0
O321 O 0.68085 0.3883 0.13469 0.0
H322 H 0.68406 0.32568 0.05995 0.0
H323 H 0.63246 0.32794 0.13937 0.0
O324 O 0.72732 0.41202 0.14633 0.0
O325 O 0.74088 0.35629 0.17369 0.0
O326 O 0.69866 0.32924 0.15645 0.0
C327 C 0.71811 0.33561 0.17744 0.0
H328 H 0.82604 0.43506 0.20399 0.0
H329 H 0.6253 0.30032 0.05103 0.0
Co330 Co 0.38444 0.99547 0.38426 0.0
C331 C 0.3515 0.93613 0.39492 0.0
Co332 Co 0.4125 0.95068 0.37265 0.0
C333 C 0.35998 0.06288 0.3903 0.0
C334 C 0.33926 0.02897 0.42076 0.0
N335 N 0.36 0.03086 0.39784 0.0
N336 N 0.34002 0.08089 0.40774 0.0
C337 C 0.32684 0.05931 0.42668 0.0
H338 H 0.37504 0.07284 0.37297 0.0
H339 H 0.33398 0.00698 0.43305 0.0
C340 C 0.44651 0.00988 0.36544 0.0
N341 N 0.43753 0.91475 0.36019 0.0
C342 C 0.44309 0.88509 0.37257 0.0
C343 C 0.45691 0.91514 0.33626 0.0
N344 N 0.46557 0.86748 0.35745 0.0
C345 C 0.47424 0.88639 0.33466 0.0
C346 C 0.37553 0.97928 0.32699 0.0
O347 O 0.42015 0.02347 0.37404 0.0
O348 O 0.44739 0.97901 0.36234 0.0
O349 O 0.39423 0.95542 0.33381 0.0
O350 O 0.36698 0.99977 0.34646 0.0
O351 O 0.37725 0.9225 0.38483 0.0
H352 H 0.45885 0.93542 0.32118 0.0
H353 H 0.43176 0.87703 0.39273 0.0
O354 O 0.34959 0.96709 0.39472 0.0
O355 O 0.40254 0.99139 0.42188 0.0
O356 O 0.43115 0.94778 0.41058 0.0
C357 C 0.42347 0.96987 0.42894 0.0
H358 H 0.30939 0.06483 0.44379 0.0
H359 H 0.49193 0.87981 0.318 0.0
Co360 Co 0.20604 0.34854 0.38244 0.0
C361 C 0.26175 0.31026 0.39386 0.0
Co362 Co 0.25371 0.37089 0.36994 0.0
C363 C 0.1384 0.32188 0.38298 0.0
C364 C 0.1631 0.31925 0.42421 0.0
N365 N 0.16726 0.3292 0.39635 0.0
N366 N 0.1165 0.30829 0.40171 0.0
C367 C 0.13205 0.30673 0.42759 0.0
H368 H 0.13333 0.32699 0.36023 0.0
H369 H 0.18153 0.32099 0.44113 0.0
C370 C 0.19883 0.40887 0.35614 0.0
N371 N 0.29143 0.39029 0.35493 0.0
C372 C 0.32158 0.39618 0.3662 0.0
C373 C 0.29246 0.40313 0.32778 0.0
N374 N 0.34101 0.41244 0.34704 0.0
C375 C 0.32267 0.41657 0.32288 0.0
C376 C 0.22442 0.33083 0.32769 0.0
O377 O 0.18183 0.38528 0.36644 0.0
O378 O 0.22984 0.40722 0.35731 0.0
O379 O 0.24743 0.35048 0.3338 0.0
O380 O 0.20181 0.32579 0.34631 0.0
O381 O 0.27755 0.33381 0.38233 0.0
H382 H 0.27223 0.40311 0.31248 0.0
H383 H 0.32879 0.38953 0.38816 0.0
O384 O 0.23076 0.31247 0.39712 0.0
O385 O 0.21191 0.37083 0.41929 0.0
O386 O 0.26001 0.39079 0.40646 0.0
C387 C 0.23777 0.38693 0.42562 0.0
H388 H 0.12168 0.297 0.44758 0.0
H389 H 0.33054 0.42855 0.30298 0.0
Co390 Co 0.91504 0.95351 0.13391 0.0
C391 C 0.94941 0.01196 0.14395 0.0
Co392 Co 0.88852 0.99873 0.12123 0.0
C393 C 0.94396 0.8873 0.13402 0.0
C394 C 0.95664 0.91608 0.17146 0.0
N395 N 0.9386 0.91682 0.14675 0.0
N396 N 0.96507 0.86868 0.14969 0.0
C397 C 0.97303 0.88679 0.1732 0.0
H398 H 0.93346 0.88003 0.11329 0.0
H399 H 0.95827 0.93591 0.18707 0.0
C400 C 0.85511 0.94035 0.1086 0.0
N401 N 0.86541 0.03472 0.10732 0.0
C402 C 0.8643 0.0663 0.11615 0.0
C403 C 0.84666 0.03374 0.08306 0.0
N404 N 0.8456 0.08493 0.09819 0.0
C405 C 0.83437 0.06422 0.07756 0.0
C406 C 0.92924 0.97326 0.07817 0.0
O407 O 0.88039 0.92623 0.11904 0.0
O408 O 0.8534 0.9713 0.10954 0.0
O409 O 0.90772 0.99452 0.08428 0.0
O410 O 0.93648 0.95154 0.09698 0.0
O411 O 0.92456 0.0259 0.13265 0.0
H412 H 0.84258 0.01225 0.06975 0.0
H413 H 0.8776 0.0755 0.13489 0.0
O414 O 0.94921 0.9811 0.14734 0.0
O415 O 0.89412 0.95721 0.17154 0.0
O416 O 0.86977 1.00309 0.15858 0.0
C417 C 0.87619 0.98176 0.17796 0.0
H418 H 0.98953 0.87928 0.19047 0.0
H419 H 0.8182 0.07043 0.05967 0.0
Co420 Co 0.3079 0.66026 0.88547 0.0
C421 C 0.25472 0.70113 0.89399 0.0
Co422 Co 0.26059 0.63991 0.86925 0.0
C423 C 0.37424 0.69056 0.88862 0.0
C424 C 0.35204 0.68214 0.93032 0.0
N425 N 0.34721 0.67723 0.90148 0.0
N426 N 0.39527 0.70374 0.90841 0.0
C427 C 0.38127 0.69809 0.93459 0.0
H428 H 0.37771 0.69199 0.86521 0.0
H429 H 0.33482 0.67581 0.94738 0.0
C430 C 0.31383 0.59969 0.85806 0.0
N431 N 0.22189 0.62426 0.85288 0.0
C432 C 0.19196 0.62027 0.86516 0.0
C433 C 0.21775 0.61578 0.82459 0.0
N434 N 0.16943 0.61019 0.84548 0.0
C435 C 0.18552 0.60737 0.81996 0.0
C436 C 0.29467 0.67897 0.8294 0.0
O437 O 0.33029 0.62233 0.87059 0.0
O438 O 0.28277 0.60201 0.85669 0.0
O439 O 0.27037 0.66034 0.83384 0.0
O440 O 0.31592 0.68285 0.84946 0.0
O441 O 0.23872 0.67832 0.8816 0.0
H442 H 0.23696 0.61573 0.80827 0.0
H443 H 0.18667 0.62505 0.88794 0.0
O444 O 0.28527 0.69774 0.89874 0.0
O445 O 0.29749 0.63807 0.92223 0.0
O446 O 0.25054 0.62037 0.90484 0.0
C447 C 0.26994 0.62381 0.92627 0.0
H448 H 0.39115 0.70557 0.9555 0.0
H449 H 0.17488 0.599 0.79961 0.0
Co450 Co 0.60148 0.05936 0.6352 0.0
C451 C 0.56168 0.00558 0.64865 0.0
Co452 Co 0.62184 0.0109 0.6227 0.0
C453 C 0.5707 0.12521 0.63553 0.0
C454 C 0.57733 0.10423 0.67795 0.0
N455 N 0.58377 0.09886 0.64941 0.0
N456 N 0.5562 0.14632 0.65441 0.0
C457 C 0.56068 0.13312 0.68105 0.0
H458 H 0.57018 0.12797 0.61201 0.0
H459 H 0.58289 0.08745 0.6955 0.0
C460 C 0.66127 0.06376 0.60681 0.0
N461 N 0.6386 0.97205 0.60791 0.0
C462 C 0.64482 0.94312 0.62107 0.0
C463 C 0.64655 0.96722 0.57956 0.0
N464 N 0.65561 0.92055 0.60179 0.0
C465 C 0.65669 0.93555 0.57572 0.0
C466 C 0.58112 0.04103 0.58114 0.0
O467 O 0.63892 0.0817 0.6181 0.0
O468 O 0.65837 0.03289 0.60803 0.0
O469 O 0.59971 0.01724 0.58726 0.0
O470 O 0.57781 0.06418 0.59943 0.0
O471 O 0.58458 0.98888 0.63715 0.0
H472 H 0.6452 0.98563 0.56264 0.0
H473 H 0.6412 0.93856 0.64415 0.0
O474 O 0.56481 0.03648 0.65084 0.0
O475 O 0.62467 0.05276 0.67166 0.0
O476 O 0.6434 1.00455 0.65849 0.0
C477 C 0.6404 0.0267 0.67773 0.0
H478 H 0.55168 0.14323 0.7014 0.0
H479 H 0.66494 0.92451 0.5555 0.0
H480 H 0.32142 0.23819 0.1832 0.0
H481 H 0.20429 0.26751 0.3211 0.0
H482 H 0.27445 0.16064 0.23166 0.0
H483 H 0.25794 0.34478 0.278 0.0
H484 H 0.22775 0.2282 0.28663 0.0
H485 H 0.3005 0.27771 0.2188 0.0
C486 C 0.30783 0.22937 0.20197 0.0
C487 C 0.29948 0.19623 0.20451 0.0
C488 C 0.23408 0.25384 0.28449 0.0
C489 C 0.27432 0.24116 0.2444 0.0
C490 C 0.22013 0.27633 0.30378 0.0
C491 C 0.22924 0.30934 0.30234 0.0
C492 C 0.25714 0.26458 0.26369 0.0
C493 C 0.25038 0.31944 0.27983 0.0
C494 C 0.29529 0.25196 0.22195 0.0
C495 C 0.28126 0.18609 0.22892 0.0
N496 N 0.26389 0.29709 0.26155 0.0
N497 N 0.26883 0.20854 0.24768 0.0
H498 H 0.49524 0.44802 0.57389 0.0
H499 H 0.5263 0.56394 0.43542 0.0
H500 H 0.41837 0.49699 0.52628 0.0
H501 H 0.60352 0.51205 0.4802 0.0
H502 H 0.48667 0.54157 0.47022 0.0
H503 H 0.53538 0.46929 0.53875 0.0
C504 C 0.4867 0.46217 0.55539 0.0
C505 C 0.45354 0.47073 0.55284 0.0
C506 C 0.51236 0.5354 0.47267 0.0
C507 C 0.49918 0.49629 0.51349 0.0
C508 C 0.53507 0.5487 0.45313 0.0
C509 C 0.5682 0.53975 0.45488 0.0
C510 C 0.52294 0.51307 0.49406 0.0
C511 C 0.57813 0.51946 0.47802 0.0
C512 C 0.50964 0.4749 0.5357 0.0
C513 C 0.44379 0.48986 0.52893 0.0
N514 N 0.55554 0.5065 0.49651 0.0
N515 N 0.46654 0.50233 0.51038 0.0
H516 H 0.24903 0.85221 0.73206 0.0
H517 H 0.27039 0.66431 0.77596 0.0
H518 H 0.20199 0.77224 0.68686 0.0
H519 H 0.31122 0.74366 0.82638 0.0
H520 H 0.24889 0.70376 0.74092 0.0
H521 H 0.27184 0.81336 0.76711 0.0
C522 C 0.2427 0.82654 0.73005 0.0
C523 C 0.22356 0.8154 0.70654 0.0
C524 C 0.26297 0.71261 0.75937 0.0
C525 C 0.2506 0.77074 0.74587 0.0
C526 C 0.27575 0.69006 0.77908 0.0
C527 C 0.29268 0.7008 0.80398 0.0
C528 C 0.26697 0.74619 0.76469 0.0
C529 C 0.29866 0.73439 0.80723 0.0
C530 C 0.25613 0.80434 0.7498 0.0
C531 C 0.21633 0.78191 0.70481 0.0
N532 N 0.28538 0.756 0.78799 0.0
N533 N 0.23026 0.76069 0.72397 0.0
H534 H 0.98698 0.43926 0.93801 0.0
H535 H 0.02297 0.56413 0.06898 0.0
H536 H 0.91535 0.50702 0.97218 0.0
H537 H 0.09495 0.49739 0.03375 0.0
H538 H 0.98342 0.54444 0.03288 0.0
H539 H 0.02617 0.45844 0.97463 0.0
C540 C 0.97921 0.45754 0.9537 0.0
C541 C 0.94795 0.47169 0.95199 0.0
C542 C 0.00798 0.53434 0.03288 0.0
C543 C 0.99287 0.49444 0.99327 0.0
C544 C 0.0307 0.54592 0.05322 0.0
C545 C 0.06221 0.53225 0.05446 0.0
C546 C 0.01691 0.50896 0.01373 0.0
C547 C 0.07081 0.50847 0.03368 0.0
C548 C 1.00175 0.46885 0.97432 0.0
C549 C 0.93931 0.49558 0.97265 0.0
N550 N 0.04819 0.49736 0.01434 0.0
N551 N 0.96176 0.50644 0.99225 0.0
H552 H 0.69936 0.76647 0.82473 0.0
H553 H 0.81558 0.73958 0.68563 0.0
H554 H 0.74065 0.84502 0.77361 0.0
H555 H 0.77027 0.66058 0.73343 0.0
H556 H 0.79099 0.77857 0.71974 0.0
H557 H 0.72334 0.72703 0.79059 0.0
C558 C 0.71227 0.77543 0.80563 0.0
C559 C 0.71805 0.80897 0.80189 0.0
C560 C 0.78689 0.75265 0.72309 0.0
C561 C 0.74683 0.76421 0.76369 0.0
C562 C 0.80159 0.73037 0.70402 0.0
C563 C 0.79498 0.69687 0.70682 0.0
C564 C 0.76554 0.74122 0.74503 0.0
C565 C 0.77596 0.68629 0.73061 0.0
C566 C 0.72663 0.75293 0.78652 0.0
C567 C 0.73566 0.81929 0.77719 0.0
N568 N 0.76154 0.70841 0.74859 0.0
N569 N 0.74986 0.79699 0.75926 0.0
H570 H 0.69629 0.27261 0.18311 0.0
H571 H 0.81316 0.24123 0.32087 0.0
H572 H 0.74778 0.3492 0.22919 0.0
H573 H 0.7565 0.16555 0.27864 0.0
H574 H 0.79194 0.28081 0.28546 0.0
H575 H 0.71681 0.23301 0.2187 0.0
C576 C 0.711 0.28126 0.20126 0.0
C577 C 0.72052 0.31415 0.20314 0.0
C578 C 0.7845 0.25544 0.28371 0.0
C579 C 0.7451 0.26898 0.24316 0.0
C580 C 0.79713 0.23277 0.30356 0.0
C581 C 0.7865 0.20019 0.30261 0.0
C582 C 0.76121 0.24527 0.26289 0.0
C583 C 0.76519 0.19056 0.28011 0.0
C584 C 0.72322 0.25858 0.22127 0.0
C585 C 0.74004 0.32397 0.22687 0.0
N586 N 0.75297 0.21306 0.2613 0.0
N587 N 0.75206 0.30141 0.24573 0.0
H588 H 0.91407 0.00862 0.02967 0.0
H589 H 0.10148 0.0191 0.9797 0.0
H590 H 0.99241 0.95325 0.06931 0.0
H591 H 0.02259 0.0647 0.93193 0.0
H592 H 0.06205 0.99986 0.01588 0.0
H593 H 0.95312 0.03092 0.99443 0.0
C594 C 0.93938 1.00055 0.03049 0.0
C595 C 0.95008 0.97909 0.05245 0.0
C596 C 0.05335 0.01445 0.99773 0.0
C597 C 0.995 1.00531 0.01284 0.0
C598 C 0.07591 0.02587 0.97732 0.0
C599 C 0.06518 0.04335 0.95276 0.0
C600 C 0.01981 0.02047 0.99349 0.0
C601 C 0.03185 0.05144 0.95066 0.0
C602 C 0.9617 0.0136 0.0106 0.0
C603 C 0.98309 0.96954 0.05262 0.0
N604 N 0.01018 0.03948 0.97059 0.0
N605 N 1.0045 0.98306 0.03332 0.0
H606 H 0.40909 0.00916 0.47541 0.0
H607 H 0.59474 0.00837 0.53115 0.0
H608 H 0.48454 0.94583 0.44103 0.0
H609 H 0.51834 0.06362 0.57381 0.0
H610 H 0.55499 0.98901 0.49539 0.0
H611 H 0.44816 0.03014 0.51131 0.0
C612 C 0.43368 0.99911 0.47587 0.0
C613 C 0.44362 0.97574 0.45516 0.0
C614 C 0.54688 0.00564 0.51234 0.0
C615 C 0.48864 1.00038 0.49558 0.0
C616 C 0.56966 0.01705 0.53253 0.0
C617 C 0.55974 0.03756 0.55545 0.0
C618 C 0.51382 0.01466 0.51513 0.0
C619 C 0.527 0.04804 0.55629 0.0
C620 C 0.45605 0.01137 0.49616 0.0
C621 C 0.47576 0.96368 0.45667 0.0
N622 N 0.50503 0.03613 0.53657 0.0
N623 N 0.49724 0.97643 0.4763 0.0
H624 H 0.2258 0.04553 0.91072 0.0
H625 H 0.20891 0.12529 0.06272 0.0
H626 H 0.15622 0.12307 0.92612 0.0
H627 H 0.30715 0.10659 0.03158 0.0
H628 H 0.18824 0.11837 0.01324 0.0
H629 H 0.25687 0.06335 0.95386 0.0
C630 C 0.21772 0.06702 0.92256 0.0
C631 C 0.18833 0.08283 0.91483 0.0
C632 C 0.21434 0.11586 0.01718 0.0
C633 C 0.22294 0.10232 0.96469 0.0
C634 C 0.22617 0.11933 0.04551 0.0
C635 C 0.25984 0.11615 0.05142 0.0
C636 C 0.23606 0.10831 0.99443 0.0
C637 C 0.281 0.10901 0.028 0.0
C638 C 0.23537 0.07702 0.94723 0.0
C639 C 0.17879 0.11029 0.93113 0.0
N640 N 0.26869 0.1048 1.00049 0.0
N641 N 0.19554 0.11861 0.95575 0.0
H642 H 0.65769 0.56007 0.28043 0.0
H643 H 0.63882 0.40464 0.1759 0.0
H644 H 0.6382 0.46197 0.31069 0.0
H645 H 0.71664 0.47426 0.16065 0.0
H646 H 0.62187 0.4364 0.21872 0.0
H647 H 0.66542 0.53805 0.23045 0.0
C648 C 0.65508 0.53404 0.27659 0.0
C649 C 0.64792 0.51274 0.29982 0.0
C650 C 0.64209 0.44516 0.20547 0.0
C651 C 0.65502 0.48791 0.24301 0.0
C652 C 0.65152 0.4273 0.1808 0.0
C653 C 0.6793 0.43671 0.16472 0.0
C654 C 0.66018 0.47293 0.21384 0.0
C655 C 0.69514 0.4661 0.17251 0.0
C656 C 0.65933 0.52158 0.24818 0.0
C657 C 0.64436 0.47924 0.2936 0.0
N658 N 0.68559 0.48303 0.19672 0.0
N659 N 0.64768 0.46797 0.26587 0.0
H660 H 0.30462 0.88662 0.56328 0.0
H661 H 0.28715 0.95091 0.40588 0.0
H662 H 0.20645 0.89186 0.5282 0.0
H663 H 0.36336 0.88245 0.42872 0.0
H664 H 0.25581 0.93343 0.449 0.0
H665 H 0.32672 0.89119 0.51407 0.0
C666 C 0.28762 0.88913 0.54522 0.0
C667 C 0.25355 0.88927 0.54997 0.0
C668 C 0.27889 0.92155 0.44401 0.0
C669 C 0.27902 0.8944 0.49325 0.0
C670 C 0.29672 0.93132 0.41933 0.0
C671 C 0.32797 0.91811 0.41368 0.0
C672 C 0.29289 0.89916 0.46354 0.0
C673 C 0.33935 0.89314 0.43207 0.0
C674 C 0.30033 0.89126 0.51707 0.0
C675 C 0.23285 0.89191 0.52552 0.0
N676 N 0.32226 0.88514 0.45661 0.0
N677 N 0.24594 0.89493 0.49813 0.0
H678 H 0.78705 0.54211 0.66515 0.0
H679 H 0.91943 0.47866 0.77878 0.0
H680 H 0.88068 0.59128 0.67111 0.0
H681 H 0.8189 0.49861 0.80205 0.0
H682 H 0.90904 0.50145 0.72973 0.0
H683 H 0.80335 0.50607 0.70497 0.0
C684 C 0.81149 0.54474 0.67418 0.0
C685 C 0.83233 0.57025 0.66504 0.0
C686 C 0.88922 0.50013 0.74547 0.0
C687 C 0.85105 0.52863 0.71056 0.0
C688 C 0.89495 0.48691 0.77323 0.0
C689 C 0.86982 0.48655 0.79426 0.0
C690 C 0.8579 0.51202 0.7386 0.0
C691 C 0.83879 0.49826 0.78635 0.0
C692 C 0.82061 0.52421 0.69702 0.0
C693 C 0.86381 0.57209 0.67749 0.0
N694 N 0.83364 0.51036 0.75907 0.0
N695 N 0.87211 0.5518 0.70001 0.0
H696 H 0.86591 0.88472 0.07689 0.0
H697 H 0.70805 0.90083 0.97413 0.0
H698 H 0.79214 0.9577 0.09468 0.0
H699 H 0.80616 0.88107 0.94322 0.0
H700 H 0.73055 0.90863 0.02387 0.0
H701 H 0.83449 0.86735 0.03396 0.0
C702 C 0.8425 0.89625 0.07246 0.0
C703 C 0.83175 0.92284 0.08929 0.0
C704 C 0.74692 0.90249 0.00605 0.0
C705 C 0.79595 0.90335 0.04005 0.0
C706 C 0.73419 0.89823 0.97775 0.0
C707 C 0.75531 0.89088 0.95439 0.0
C708 C 0.78071 0.89814 0.01099 0.0
C709 C 0.78896 0.88733 0.96038 0.0
C710 C 0.82481 0.88662 0.04774 0.0
C711 C 0.80137 0.93718 0.08218 0.0
N712 N 0.80051 0.89075 0.988 0.0
N713 N 0.78466 0.9275 0.05789 0.0
H714 H 0.37476 0.60283 0.83322 0.0
H715 H 0.3501 0.45435 0.7216 0.0
H716 H 0.2891 0.54095 0.83925 0.0
H717 H 0.38582 0.55018 0.69792 0.0
H718 H 0.33998 0.47483 0.77177 0.0
H719 H 0.39352 0.57057 0.79135 0.0
C720 C 0.3605 0.58175 0.82647 0.0
C721 C 0.33014 0.5748 0.83955 0.0
C722 C 0.3502 0.49111 0.75546 0.0
C723 C 0.35138 0.53803 0.79159 0.0
C724 C 0.35581 0.47954 0.72696 0.0
C725 C 0.36814 0.50081 0.7055 0.0
C726 C 0.35826 0.52365 0.76253 0.0
C727 C 0.3756 0.53313 0.7136 0.0
C728 C 0.37105 0.56358 0.80238 0.0
C729 C 0.31253 0.54731 0.82959 0.0
N730 N 0.37074 0.54345 0.7414 0.0
N731 N 0.3232 0.5301 0.80594 0.0
H732 H 0.78187 0.16135 0.47378 0.0
H733 H 0.71419 0.03088 0.58594 0.0
H734 H 0.74964 0.0655 0.44679 0.0
H735 H 0.66827 0.12604 0.58345 0.0
H736 H 0.74838 0.04642 0.54454 0.0
H737 H 0.75982 0.15059 0.52309 0.0
C738 C 0.77106 0.1377 0.47854 0.0
C739 C 0.76783 0.11402 0.45647 0.0
C740 C 0.73135 0.06411 0.55355 0.0
C741 C 0.74314 0.10171 0.51231 0.0
C742 C 0.71184 0.05542 0.57726 0.0
C743 C 0.68776 0.07701 0.58794 0.0
C744 C 0.72745 0.09486 0.54072 0.0
C745 C 0.68633 0.10858 0.57586 0.0
C746 C 0.75825 0.13181 0.50643 0.0
C747 C 0.75285 0.08416 0.46335 0.0
N748 N 0.70569 0.11651 0.55255 0.0
N749 N 0.74124 0.07874 0.49078 0.0
H750 H 0.22945 0.46439 0.33824 0.0
H751 H 0.09567 0.52771 0.22614 0.0
H752 H 0.13638 0.41409 0.3324 0.0
H753 H 0.19612 0.50921 0.20168 0.0
H754 H 0.10681 0.50406 0.27471 0.0
H755 H 0.21271 0.50017 0.29844 0.0
C756 C 0.20508 0.46135 0.32916 0.0
C757 C 0.18449 0.43568 0.33841 0.0
C758 C 0.12645 0.50589 0.25883 0.0
C759 C 0.16524 0.47711 0.29294 0.0
C760 C 0.1203 0.51964 0.23137 0.0
C761 C 0.14522 0.52069 0.21015 0.0
C762 C 0.15793 0.49412 0.26522 0.0
C763 C 0.17643 0.5091 0.21758 0.0
C764 C 0.1957 0.48178 0.30635 0.0
C765 C 0.15308 0.43339 0.3259 0.0
N766 N 0.18197 0.49646 0.24459 0.0
N767 N 0.14448 0.45365 0.30346 0.0
H768 H 0.71199 0.63025 0.56293 0.0
H769 H 0.72844 0.55193 0.41034 0.0
H770 H 0.80996 0.61132 0.53131 0.0
H771 H 0.65719 0.62753 0.42735 0.0
H772 H 0.75994 0.57023 0.45303 0.0
H773 H 0.69107 0.6244 0.51347 0.0
C774 C 0.72915 0.62451 0.54557 0.0
C775 C 0.76278 0.62082 0.55137 0.0
C776 C 0.73797 0.58342 0.44684 0.0
C777 C 0.73872 0.61419 0.49435 0.0
C778 C 0.72004 0.57313 0.42242 0.0
C779 C 0.69003 0.58816 0.41532 0.0
C780 C 0.72528 0.60826 0.46467 0.0
C781 C 0.68019 0.6153 0.4319 0.0
C782 C 0.71717 0.62164 0.51725 0.0
C783 C 0.78383 0.61409 0.52779 0.0
N784 N 0.69728 0.6239 0.45626 0.0
N785 N 0.77136 0.6104 0.50026 0.0
H786 H 0.14195 0.9571 0.81201 0.0
H787 H 0.20792 0.97397 0.65533 0.0
H788 H 0.14902 0.05511 0.77739 0.0
H789 H 0.13697 0.89958 0.67739 0.0
H790 H 0.19058 0.00558 0.69826 0.0
H791 H 0.14665 0.93534 0.76275 0.0
C792 C 0.14495 0.97413 0.79407 0.0
C793 C 0.14545 0.00807 0.79895 0.0
C794 C 0.1781 0.98288 0.6931 0.0
C795 C 0.15065 0.98299 0.74218 0.0
C796 C 0.18777 0.96493 0.66852 0.0
C797 C 0.17387 0.93406 0.6628 0.0
C798 C 0.15512 0.96933 0.71243 0.0
C799 C 0.1482 0.9233 0.68084 0.0
C800 C 0.14712 0.96162 0.76588 0.0
C801 C 0.14878 0.02881 0.77462 0.0
N802 N 0.14033 0.94045 0.70533 0.0
N803 N 0.15176 0.01591 0.74719 0.0
H804 H 0.80667 0.38983 0.06247 0.0
H805 H 0.78964 0.45163 0.90385 0.0
H806 H 0.70858 0.39597 0.02726 0.0
H807 H 0.8652 0.383 0.92789 0.0
H808 H 0.75831 0.43568 0.94746 0.0
H809 H 0.82884 0.39395 0.01329 0.0
C810 C 0.78969 0.3925 0.04442 0.0
C811 C 0.7556 0.39291 0.04914 0.0
C812 C 0.78124 0.42342 0.94265 0.0
C813 C 0.7812 0.39747 0.9924 0.0
C814 C 0.79903 0.43229 0.91769 0.0
C815 C 0.83008 0.41855 0.91219 0.0
C816 C 0.7951 0.40143 0.96261 0.0
C817 C 0.84131 0.39401 0.93109 0.0
C818 C 0.80246 0.39436 0.01627 0.0
C819 C 0.73499 0.39582 0.02464 0.0
N820 N 0.82427 0.38689 0.95588 0.0
N821 N 0.74814 0.39847 0.99725 0.0
H822 H 0.37955 0.08826 0.16907 0.0
H823 H 0.31577 0.99545 0.30496 0.0
H824 H 0.28386 0.04272 0.16899 0.0
H825 H 0.41668 0.98103 0.27992 0.0
H826 H 0.30405 0.01628 0.25586 0.0
H827 H 0.3958 0.05175 0.20937 0.0
C828 C 0.36232 0.07 0.17682 0.0
C829 C 0.33014 0.06891 0.16581 0.0
C830 C 0.32864 0.00797 0.2609 0.0
C831 C 0.34822 0.02803 0.21229 0.0
C832 C 0.33527 0.99605 0.28885 0.0
C833 C 0.36706 0.98609 0.29624 0.0
C834 C 0.35426 0.01117 0.24051 0.0
C835 C 0.3917 0.98796 0.27478 0.0
C836 C 0.37155 0.04933 0.19992 0.0
C837 C 0.30879 0.04486 0.17699 0.0
N838 N 0.38497 1.00095 0.248 0.0
N839 N 0.31791 0.02601 0.19998 0.0
H840 H 0.30181 0.4888 0.57952 0.0
H841 H 0.23006 0.35096 0.47523 0.0
H842 H 0.33776 0.38971 0.58632 0.0
H843 H 0.26224 0.44529 0.44425 0.0
H844 H 0.25081 0.36494 0.52432 0.0
H845 H 0.26705 0.47218 0.53886 0.0
C846 C 0.30185 0.46331 0.57302 0.0
C847 C 0.32332 0.44072 0.5861 0.0
C848 C 0.25263 0.38269 0.50683 0.0
C849 C 0.28308 0.42169 0.53962 0.0
C850 C 0.2406 0.37495 0.47902 0.0
C851 C 0.24432 0.39721 0.45589 0.0
C852 C 0.26746 0.41322 0.5115 0.0
C853 C 0.2588 0.42762 0.46161 0.0
C854 C 0.28203 0.45397 0.54971 0.0
C855 C 0.32182 0.40797 0.57678 0.0
N856 N 0.26972 0.43482 0.48891 0.0
N857 N 0.30228 0.39945 0.55379 0.0
H858 H 0.91559 0.98029 0.22599 0.0
H859 H 0.77753 0.04766 0.333 0.0
H860 H 0.81661 1.00106 0.19857 0.0
H861 H 0.87476 0.0899 0.33439 0.0
H862 H 0.79439 0.01183 0.29325 0.0
H863 H 0.90266 1.00293 0.27464 0.0
C864 C 0.89088 0.98864 0.23056 0.0
C865 C 0.86694 0.98859 0.20848 0.0
C866 C 0.81219 0.02848 0.30269 0.0
C867 C 0.85216 0.01404 0.26363 0.0
C868 C 0.80272 0.04894 0.32548 0.0
C869 C 0.82462 0.07237 0.33681 0.0
C870 C 0.84397 0.0309 0.2913 0.0
C871 C 0.85702 0.0724 0.32623 0.0
C872 C 0.8837 1.00181 0.25809 0.0
C873 C 0.83559 1.00045 0.21512 0.0
N874 N 0.86568 0.0522 0.30375 0.0
N875 N 0.82904 0.01258 0.24215 0.0
H876 H 0.22225 0.55706 0.10075 0.0
H877 H 0.20616 0.61778 0.94214 0.0
H878 H 0.14514 0.62346 0.07562 0.0
H879 H 0.30389 0.61636 0.97861 0.0
H880 H 0.18342 0.61282 0.99096 0.0
H881 H 0.254 0.5741 0.05771 0.0
C882 C 0.21255 0.57613 0.08677 0.0
C883 C 0.18098 0.5889 0.09177 0.0
C884 C 0.20985 0.61362 0.98834 0.0
C885 C 0.21652 0.60729 0.04205 0.0
C886 C 0.22299 0.61596 0.96038 0.0
C887 C 0.25714 0.61717 0.9561 0.0
C888 C 0.23081 0.61165 0.01248 0.0
C889 C 0.27746 0.61526 0.98087 0.0
C890 C 0.23061 0.58565 0.06217 0.0
C891 C 0.16941 0.61317 0.07276 0.0
N892 N 0.26398 0.61212 0.0081 0.0
N893 N 0.18677 0.62091 0.04831 0.0
H894 H 0.69898 1.00277 0.69666 0.0
H895 H 0.63676 0.91989 0.83645 0.0
H896 H 0.60311 0.03172 0.72684 0.0
H897 H 0.7338 0.96255 0.83486 0.0
H898 H 0.62116 0.95609 0.79569 0.0
H899 H 0.71137 0.98198 0.74576 0.0
C900 C 0.68086 1.00533 0.71384 0.0
C901 C 0.65029 0.01945 0.708 0.0
C902 C 0.64558 0.95792 0.8049 0.0
C903 C 0.66357 0.99445 0.76355 0.0
C904 C 0.65444 0.93745 0.82823 0.0
C905 C 0.68677 0.9378 0.83889 0.0
C906 C 0.66944 0.97817 0.79195 0.0
C907 C 0.70873 0.96096 0.82713 0.0
C908 C 0.68784 0.99344 0.74174 0.0
C909 C 0.62724 0.02156 0.73079 0.0
N910 N 0.69995 0.97953 0.80386 0.0
N911 N 0.63406 0.00853 0.75751 0.0
H912 H 0.44434 0.19509 0.14176 0.0
H913 H 0.5675 0.3176 0.05926 0.0
H914 H 0.42178 0.24897 0.06338 0.0
H915 H 0.59175 0.2761 0.14295 0.0
H916 H 0.51308 0.29327 0.06243 0.0
H917 H 0.49707 0.22488 0.14499 0.0
C918 C 0.45028 0.2133 0.12542 0.0
C919 C 0.42873 0.21904 0.10197 0.0
C920 C 0.53002 0.28949 0.08032 0.0
C921 C 0.48892 0.25309 0.10545 0.0
C922 C 0.56122 0.30342 0.07845 0.0
C923 C 0.58431 0.29875 0.10076 0.0
C924 C 0.52152 0.27017 0.1046 0.0
C925 C 0.57462 0.28041 0.12532 0.0
C926 C 0.48041 0.23022 0.12721 0.0
C927 C 0.43779 0.24296 0.08142 0.0
N928 N 0.54406 0.26644 0.12646 0.0
N929 N 0.46702 0.2588 0.08357 0.0
H930 H 0.49324 0.6612 0.34507 0.0
H931 H 0.52935 0.84998 0.3574 0.0
H932 H 0.58665 0.6962 0.37614 0.0
H933 H 0.43186 0.81209 0.37075 0.0
H934 H 0.55139 0.79431 0.36171 0.0
H935 H 0.4703 0.71622 0.35159 0.0
C936 C 0.50882 0.68051 0.35347 0.0
C937 C 0.5419 0.67424 0.36 0.0
C938 C 0.52523 0.79817 0.36413 0.0
C939 C 0.516 0.73738 0.36705 0.0
C940 C 0.51268 0.82986 0.36161 0.0
C941 C 0.47878 0.83553 0.36378 0.0
C942 C 0.50366 0.77171 0.36802 0.0
C943 C 0.45815 0.8087 0.36919 0.0
C944 C 0.49571 0.71183 0.35732 0.0
C945 C 0.56102 0.70004 0.37099 0.0
N946 N 0.47083 0.77784 0.37062 0.0
N947 N 0.54796 0.73063 0.37371 0.0
H948 H 0.91577 0.76741 0.60058 0.0
H949 H 0.10567 0.73413 0.59869 0.0
H950 H 0.95391 0.67266 0.62335 0.0
H951 H 0.06804 0.82878 0.62273 0.0
H952 H 0.05048 0.71085 0.6046 0.0
H953 H 0.97106 0.79074 0.60572 0.0
C954 C 0.93586 0.75166 0.60702 0.0
C955 C 0.93045 0.71814 0.61161 0.0
C956 C 0.05434 0.73662 0.60894 0.0
C957 C 0.99378 0.74437 0.61683 0.0
C958 C 0.08573 0.74992 0.60543 0.0
C959 C 0.09128 0.78341 0.61016 0.0
C960 C 0.02804 0.75713 0.61646 0.0
C961 C 0.06471 0.80283 0.61902 0.0
C962 C 0.96731 0.76494 0.61002 0.0
C963 C 0.95717 0.69865 0.61985 0.0
N964 N 0.03409 0.78954 0.6214 0.0
N965 N 0.98785 0.71192 0.62171 0.0
H966 H 0.02991 0.34897 0.85292 0.0
H967 H 0.99563 0.16071 0.84054 0.0
H968 H 0.93292 0.31054 0.86784 0.0
H969 H 0.08821 0.19584 0.87338 0.0
H970 H 0.97215 0.21544 0.84751 0.0
H971 H 0.05245 0.29354 0.85775 0.0
C972 C 0.01348 0.32877 0.85759 0.0
C973 C 0.97958 0.33412 0.86001 0.0
C974 C 0.99748 0.21111 0.85355 0.0
C975 C 1.00495 0.27074 0.86484 0.0
C976 C 0.01089 0.18001 0.84943 0.0
C977 C 0.04388 0.17396 0.85631 0.0
C978 C 0.01746 0.23661 0.86387 0.0
C979 C 0.06265 0.19963 0.86794 0.0
C980 C 0.0263 0.29726 0.86042 0.0
C981 C 0.9592 0.3073 0.86604 0.0
N982 N 0.04935 0.23005 0.87088 0.0
N983 N 0.97212 0.2766 0.86772 0.0
H984 H 0.56216 0.82519 0.94251 0.0
H985 H 0.44106 0.69668 0.86493 0.0
H986 H 0.5891 0.7761 0.86279 0.0
H987 H 0.41753 0.75434 0.94095 0.0
H988 H 0.4937 0.7265 0.86083 0.0
H989 H 0.50772 0.80087 0.93961 0.0
C990 C 0.55646 0.80935 0.92424 0.0
C991 C 0.5803 0.80254 0.903 0.0
C992 C 0.47685 0.73267 0.87828 0.0
C993 C 0.51754 0.77392 0.89952 0.0
C994 C 0.44677 0.71574 0.88054 0.0
C995 C 0.425 0.72258 0.90362 0.0
C996 C 0.48503 0.7567 0.89914 0.0
C997 C 0.43374 0.74755 0.92324 0.0
C998 C 0.52527 0.79541 0.92252 0.0
C999 C 0.57137 0.7821 0.87956 0.0
N1000 N 0.4629 0.76342 0.92063 0.0
N1001 N 0.5408 0.76817 0.8786 0.0
H1002 H 0.42598 0.30665 0.68226 0.0
H1003 H 0.56673 0.19345 0.613 0.0
H1004 H 0.48674 0.3402 0.61134 0.0
H1005 H 0.5009 0.1649 0.68217 0.0
H1006 H 0.53583 0.24517 0.60777 0.0
H1007 H 0.4506 0.2526 0.67832 0.0
C1008 C 0.44438 0.30241 0.66561 0.0
C1009 C 0.45444 0.32794 0.64723 0.0
C1010 C 0.52806 0.22739 0.62389 0.0
C1011 C 0.48353 0.26585 0.64274 0.0
C1012 C 0.54559 0.19788 0.62677 0.0
C1013 C 0.53668 0.17508 0.64836 0.0
C1014 C 0.50136 0.23386 0.64261 0.0
C1015 C 0.50912 0.18203 0.66569 0.0
C1016 C 0.45855 0.27151 0.66333 0.0
C1017 C 0.47823 0.32107 0.62583 0.0
N1018 N 0.4927 0.21067 0.66254 0.0
N1019 N 0.49234 0.29075 0.6244 0.0
H1020 H 0.06462 0.32166 0.43578 0.0
H1021 H 0.94382 0.19276 0.35968 0.0
H1022 H 0.09215 0.27158 0.35677 0.0
H1023 H 0.91692 0.25798 0.42965 0.0
H1024 H 0.99689 0.22185 0.35533 0.0
H1025 H 0.00934 0.29943 0.43151 0.0
C1026 C 0.05878 0.30614 0.41732 0.0
C1027 C 0.08293 0.2984 0.39667 0.0
C1028 C 0.97916 0.22993 0.3714 0.0
C1029 C 0.01945 0.27204 0.39169 0.0
C1030 C 0.94887 0.21342 0.37379 0.0
C1031 C 0.92615 0.22259 0.39541 0.0
C1032 C 0.98654 0.25576 0.39074 0.0
C1033 C 0.93395 0.24952 0.41316 0.0
C1034 C 0.02717 0.29338 0.41481 0.0
C1035 C 0.07407 0.27825 0.37304 0.0
N1036 N 0.96338 0.26484 0.41058 0.0
N1037 N 0.04311 0.26535 0.37137 0.0
H1038 H 0.98397 0.66105 0.15691 0.0
H1039 H 0.02798 0.84861 0.15309 0.0
H1040 H 0.08082 0.69358 0.13276 0.0
H1041 H 0.9304 0.81516 0.13274 0.0
H1042 H 0.04818 0.7923 0.14824 0.0
H1043 H 0.96361 0.71713 0.15079 0.0
C1044 C 1.00086 0.68005 0.15007 0.0
C1045 C 0.03413 0.67277 0.14538 0.0
C1046 C 0.02243 0.79729 0.14443 0.0
C1047 C 0.01118 0.73708 0.13886 0.0
C1048 C 0.01091 0.82934 0.14727 0.0
C1049 C 0.97751 0.83643 0.14329 0.0
C1050 C 1.00023 0.77187 0.13836 0.0
C1051 C 0.95634 0.81066 0.13577 0.0
C1052 C 0.98923 0.71197 0.14646 0.0
C1053 C 0.055 0.6982 0.13642 0.0
N1054 N 0.96794 0.7794 0.13404 0.0
N1055 N 0.04331 0.72935 0.13393 0.0
H1056 H 0.19789 0.22201 0.13279 0.0
H1057 H 0.23197 0.40546 0.07974 0.0
H1058 H 0.2863 0.25328 0.08875 0.0
H1059 H 0.14567 0.37794 0.12854 0.0
H1060 H 0.25114 0.34919 0.08191 0.0
H1061 H 0.17682 0.27794 0.12965 0.0
C1062 C 0.21273 0.24052 0.12215 0.0
C1063 C 0.24396 0.23291 0.11102 0.0
C1064 C 0.22801 0.35532 0.09221 0.0
C1065 C 0.2201 0.29702 0.10769 0.0
C1066 C 0.21699 0.38749 0.09089 0.0
C1067 C 0.18701 0.39635 0.10376 0.0
C1068 C 0.20896 0.33157 0.10647 0.0
C1069 C 0.16898 0.37215 0.11847 0.0
C1070 C 0.20074 0.27249 0.12055 0.0
C1071 C 0.26211 0.25796 0.09764 0.0
N1072 N 0.18016 0.34075 0.11931 0.0
N1073 N 0.24996 0.28885 0.09644 0.0
H1074 H 0.36655 0.46725 0.32351 0.0
H1075 H 0.54649 0.44293 0.38992 0.0
H1076 H 0.39036 0.38597 0.37964 0.0
H1077 H 0.51782 0.52089 0.33171 0.0
H1078 H 0.49094 0.41976 0.38582 0.0
H1079 H 0.4228 0.48614 0.32662 0.0
C1080 C 0.38375 0.45325 0.33644 0.0
C1081 C 0.37384 0.42474 0.35103 0.0
C1082 C 0.497 0.44177 0.3738 0.0
C1083 C 0.43881 0.44649 0.35496 0.0
C1084 C 0.52872 0.45486 0.37594 0.0
C1085 C 0.53673 0.48395 0.3612 0.0
C1086 C 0.47334 0.45795 0.35679 0.0
C1087 C 0.51273 0.49855 0.3436 0.0
C1088 C 0.41598 0.46412 0.3383 0.0
C1089 C 0.39706 0.40811 0.36812 0.0
N1090 N 0.4822 0.48549 0.34202 0.0
N1091 N 0.42863 0.41916 0.36954 0.0
H1092 H 0.23943 0.7523 0.62774 0.0
H1093 H 0.38693 0.65025 0.57078 0.0
H1094 H 0.3298 0.80292 0.60801 0.0
H1095 H 0.32861 0.6159 0.64307 0.0
H1096 H 0.36465 0.70561 0.57811 0.0
H1097 H 0.26894 0.70032 0.62666 0.0
C1098 C 0.26547 0.75239 0.62288 0.0
C1099 C 0.28225 0.78179 0.61765 0.0
C1100 C 0.35724 0.68603 0.59264 0.0
C1101 C 0.31595 0.72255 0.61637 0.0
C1102 C 0.36979 0.65463 0.58845 0.0
C1103 C 0.35945 0.6288 0.60639 0.0
C1104 C 0.33348 0.69115 0.61432 0.0
C1105 C 0.33724 0.63537 0.62899 0.0
C1106 C 0.28229 0.72282 0.62263 0.0
C1107 C 0.31608 0.78066 0.61201 0.0
N1108 N 0.32442 0.66585 0.63197 0.0
N1109 N 0.33186 0.75132 0.61108 0.0
H1110 H 0.00996 0.48403 0.87442 0.0
H1111 H 0.11716 0.62493 0.81174 0.0
H1112 H 0.96072 0.57171 0.84561 0.0
H1113 H 0.14565 0.57455 0.89035 0.0
H1114 H 0.06104 0.60334 0.81745 0.0
H1115 H 0.06217 0.51328 0.87332 0.0
C1116 C 0.01021 0.5094 0.86752 0.0
C1117 C 0.98107 0.52546 0.85979 0.0
C1118 C 0.0795 0.59752 0.83365 0.0
C1119 C 0.04078 0.55891 0.85849 0.0
C1120 C 0.11136 0.60965 0.83037 0.0
C1121 C 0.13582 0.60134 0.85062 0.0
C1122 C 0.07254 0.57619 0.85681 0.0
C1123 C 0.12733 0.58157 0.87443 0.0
C1124 C 0.03994 0.52611 0.86725 0.0
C1125 C 0.98274 0.5585 0.85158 0.0
N1126 N 0.09649 0.56909 0.87658 0.0
N1127 N 0.01232 0.57414 0.85072 0.0
H1128 H 0.72894 0.75523 0.91997 0.0
H1129 H 0.87039 0.62827 0.87607 0.0
H1130 H 0.81632 0.78352 0.87281 0.0
H1131 H 0.78396 0.6034 0.92587 0.0
H1132 H 0.85148 0.68528 0.87406 0.0
H1133 H 0.74996 0.69959 0.9232 0.0
C1134 C 0.75273 0.74983 0.91056 0.0
C1135 C 0.77085 0.77406 0.89606 0.0
C1136 C 0.83672 0.66728 0.88544 0.0
C1137 C 0.79494 0.71016 0.89928 0.0
C1138 C 0.84737 0.63476 0.88637 0.0
C1139 C 0.82885 0.61115 0.90135 0.0
C1140 C 0.80729 0.67606 0.89947 0.0
C1141 C 0.79933 0.62088 0.91455 0.0
C1142 C 0.76469 0.71797 0.91229 0.0
C1143 C 0.80154 0.76559 0.88424 0.0
N1144 N 0.78953 0.65252 0.91332 0.0
N1145 N 0.81254 0.73426 0.88594 0.0
H1146 H 0.65474 0.56131 0.62052 0.0
H1147 H 0.46782 0.56466 0.66571 0.0
H1148 H 0.62338 0.61594 0.69596 0.0
H1149 H 0.51429 0.47523 0.63761 0.0
H1150 H 0.52215 0.5905 0.6695 0.0
H1151 H 0.59968 0.53645 0.61746 0.0
C1152 C 0.63596 0.56844 0.63601 0.0
C1153 C 0.64314 0.59056 0.65846 0.0
C1154 C 0.52033 0.56514 0.66279 0.0
C1155 C 0.58096 0.56269 0.6552 0.0
C1156 C 0.48954 0.55042 0.66075 0.0
C1157 C 0.48686 0.51776 0.65171 0.0
C1158 C 0.54831 0.54731 0.65479 0.0
C1159 C 0.51553 0.50033 0.64514 0.0
C1160 C 0.6049 0.5541 0.63451 0.0
C1161 C 0.61844 0.59888 0.67841 0.0
N1162 N 0.54518 0.51549 0.64641 0.0
N1163 N 0.58824 0.58505 0.67625 0.0
H1164 H 0.6934 0.22184 0.38297 0.0
H1165 H 0.73058 0.40472 0.43554 0.0
H1166 H 0.78433 0.25302 0.42271 0.0
H1167 H 0.6437 0.37846 0.38702 0.0
H1168 H 0.74842 0.34805 0.43399 0.0
H1169 H 0.6722 0.27756 0.38808 0.0
C1170 C 0.70872 0.24026 0.39317 0.0
C1171 C 0.74076 0.23282 0.40233 0.0
C1172 C 0.72543 0.35454 0.42366 0.0
C1173 C 0.71678 0.29655 0.4079 0.0
C1174 C 0.71515 0.38693 0.42464 0.0
C1175 C 0.68547 0.39627 0.41157 0.0
C1176 C 0.70594 0.33109 0.4095 0.0
C1177 C 0.66683 0.37228 0.3972 0.0
C1178 C 0.69668 0.2721 0.39586 0.0
C1179 C 0.75956 0.25767 0.41524 0.0
N1180 N 0.67733 0.34067 0.39662 0.0
N1181 N 0.74734 0.28843 0.4175 0.0
H1182 H 0.87978 0.40429 0.11671 0.0
H1183 H 0.02068 0.50742 0.18905 0.0
H1184 H 0.88041 0.42698 0.20891 0.0
H1185 H 0.04143 0.44382 0.11615 0.0
H1186 H 0.9676 0.48027 0.1953 0.0
H1187 H 0.9378 0.41997 0.11417 0.0
C1188 C 0.89201 0.41217 0.13647 0.0
C1189 C 0.87471 0.41491 0.16295 0.0
C1190 C 0.98396 0.47189 0.17821 0.0
C1191 C 0.9409 0.43332 0.15999 0.0
C1192 C 0.01419 0.48736 0.17465 0.0
C1193 C 0.03538 0.47769 0.15216 0.0
C1194 C 0.97445 0.44719 0.15861 0.0
C1195 C 0.02581 0.45172 0.13395 0.0
C1196 C 0.92515 0.42114 0.13496 0.0
C1197 C 0.89213 0.42541 0.18778 0.0
N1198 N 0.99571 0.43768 0.13723 0.0
N1199 N 0.92402 0.43464 0.18559 0.0
H1200 H 0.78601 0.76091 0.62351 0.0
H1201 H 0.6352 0.86639 0.57392 0.0
H1202 H 0.693 0.71407 0.60634 0.0
H1203 H 0.70061 0.90076 0.64109 0.0
H1204 H 0.65879 0.81126 0.57868 0.0
H1205 H 0.75867 0.81425 0.6222 0.0
C1206 C 0.75992 0.76193 0.61902 0.0
C1207 C 0.74168 0.73318 0.61479 0.0
C1208 C 0.66763 0.83079 0.59263 0.0
C1209 C 0.71049 0.79383 0.61333 0.0
C1210 C 0.65423 0.86201 0.58995 0.0
C1211 C 0.66598 0.88769 0.60733 0.0
C1212 C 0.69362 0.82568 0.61215 0.0
C1213 C 0.69081 0.88128 0.62763 0.0
C1214 C 0.74434 0.79226 0.61865 0.0
C1215 C 0.70786 0.73576 0.6096 0.0
N1216 N 0.70429 0.85091 0.62919 0.0
N1217 N 0.69332 0.76567 0.60871 0.0
H1218 H 0.88827 0.88154 0.87688 0.0
H1219 H 0.01304 0.02354 0.82943 0.0
H1220 H 0.86658 0.95729 0.81421 0.0
H1221 H 0.04186 0.94308 0.88482 0.0
H1222 H 0.95905 0.9988 0.82394 0.0
H1223 H 0.9443 0.90354 0.88144 0.0
C1224 C 0.89526 0.90279 0.86419 0.0
C1225 C 0.87285 0.91741 0.84494 0.0
C1226 C 0.97718 0.98636 0.83717 0.0
C1227 C 0.93655 0.9425 0.84986 0.0
C1228 C 0.00809 1.00048 0.84025 0.0
C1229 C 0.03198 0.98538 0.85763 0.0
C1230 C 0.96987 0.95698 0.85176 0.0
C1231 C 0.02416 0.95549 0.87113 0.0
C1232 C 0.92722 0.91518 0.86662 0.0
C1233 C 0.88316 0.94479 0.82887 0.0
N1234 N 0.99364 0.94234 0.86808 0.0
N1235 N 0.91415 0.9564 0.83171 0.0
H1236 H 0.85093 0.12504 0.14579 0.0
H1237 H 0.74799 0.26669 0.07268 0.0
H1238 H 0.82471 0.12466 0.05435 0.0
H1239 H 0.81215 0.28626 0.14561 0.0
H1240 H 0.77277 0.21251 0.06766 0.0
H1241 H 0.83454 0.18271 0.14846 0.0
C1242 C 0.84205 0.13697 0.12625 0.0
C1243 C 0.83865 0.11954 0.09995 0.0
C1244 C 0.78169 0.2288 0.08456 0.0
C1245 C 0.81945 0.18523 0.10303 0.0
C1246 C 0.76753 0.25966 0.08744 0.0
C1247 C 0.77814 0.28094 0.10951 0.0
C1248 C 0.80608 0.21885 0.10432 0.0
C1249 C 0.80349 0.27062 0.12813 0.0
C1250 C 0.83265 0.16987 0.12782 0.0
C1251 C 0.82685 0.1365 0.07536 0.0
N1252 N 0.81634 0.24006 0.12539 0.0
N1253 N 0.81735 0.16817 0.07761 0.0
H1254 H 0.45629 0.07418 0.34921 0.0
H1255 H 0.64425 0.07482 0.39686 0.0
H1256 H 0.50693 0.98784 0.37923 0.0
H1257 H 0.61356 0.12632 0.31951 0.0
H1258 H 0.58809 0.0535 0.40251 0.0
H1259 H 0.50929 0.10372 0.3487 0.0
C1260 C 0.47849 0.06153 0.35562 0.0
C1261 C 0.47747 0.02846 0.36376 0.0
C1262 C 0.59362 0.06994 0.3846 0.0
C1263 C 0.53715 0.06209 0.36444 0.0
C1264 C 0.62542 0.08221 0.38154 0.0
C1265 C 0.63329 0.10206 0.35762 0.0
C1266 C 0.56954 0.07821 0.36393 0.0
C1267 C 0.60826 0.11079 0.33807 0.0
C1268 C 0.50851 0.07831 0.35541 0.0
C1269 C 0.50678 0.01316 0.37225 0.0
N1270 N 0.57738 0.09875 0.34159 0.0
N1271 N 0.53537 0.03016 0.37258 0.0
H1272 H 0.24346 0.26335 0.43299 0.0
H1273 H 0.35149 0.12375 0.36298 0.0
H1274 H 0.31674 0.28555 0.36782 0.0
H1275 H 0.31497 0.11848 0.45151 0.0
H1276 H 0.33696 0.18194 0.36195 0.0
H1277 H 0.26678 0.20851 0.43806 0.0
C1278 C 0.26474 0.25678 0.42005 0.0
C1279 C 0.2783 0.27897 0.40007 0.0
C1280 C 0.33241 0.1679 0.38161 0.0
C1281 C 0.30454 0.21614 0.40517 0.0
C1282 C 0.34072 0.13468 0.38224 0.0
C1283 C 0.33393 0.11573 0.40716 0.0
C1284 C 0.31687 0.18211 0.4059 0.0
C1285 C 0.3198 0.1315 0.43143 0.0
C1286 C 0.27804 0.22553 0.42293 0.0
C1287 C 0.30578 0.26921 0.38369 0.0
N1288 N 0.31141 0.16355 0.43005 0.0
N1289 N 0.31773 0.23828 0.38627 0.0
H1290 H 0.96996 0.07136 0.122 0.0
H1291 H 0.14788 0.05134 0.19388 0.0
H1292 H 0.99881 0.99329 0.17995 0.0
H1293 H 0.12656 0.12748 0.13149 0.0
H1294 H 0.09155 0.03287 0.19096 0.0
H1295 H 0.02484 0.09585 0.12771 0.0
C1296 C 0.98759 0.05974 0.13633 0.0
C1297 C 0.97989 0.03019 0.15046 0.0
C1298 C 0.09894 0.0537 0.17789 0.0
C1299 C 0.04249 0.05771 0.15676 0.0
C1300 C 0.13124 0.06442 0.17968 0.0
C1301 C 0.14199 0.09129 0.16315 0.0
C1302 C 0.07683 0.06974 0.1593 0.0
C1303 C 0.11932 0.1066 0.14452 0.0
C1304 C 0.01894 0.07355 0.13935 0.0
C1305 C 1.00371 0.01596 0.1685 0.0
N1306 N 0.08769 0.09564 0.14311 0.0
N1307 N 0.03385 0.02975 0.171 0.0
H1308 H 0.19808 0.90047 0.86778 0.0
H1309 H 0.19108 0.71358 0.90954 0.0
H1310 H 0.1448 0.87108 0.94473 0.0
H1311 H 0.28277 0.76079 0.888 0.0
H1312 H 0.16495 0.76784 0.91285 0.0
H1313 H 0.22032 0.84465 0.86369 0.0
C1314 C 0.19067 0.88198 0.8834 0.0
C1315 C 0.16983 0.88997 0.90662 0.0
C1316 C 0.19081 0.76608 0.90757 0.0
C1317 C 0.19454 0.82684 0.90203 0.0
C1318 C 0.20566 0.73537 0.90576 0.0
C1319 C 0.23911 0.73298 0.89889 0.0
C1320 C 0.20939 0.79415 0.90138 0.0
C1321 C 0.25702 0.76175 0.89384 0.0
C1322 C 0.20345 0.85046 0.88124 0.0
C1323 C 0.16101 0.86555 0.92665 0.0
N1324 N 0.24181 0.79122 0.89481 0.0
N1325 N 0.17333 0.83484 0.92386 0.0
H1326 H 0.35737 0.97804 0.6873 0.0
H1327 H 0.54155 0.94313 0.63604 0.0
H1328 H 0.3852 0.89131 0.63962 0.0
H1329 H 0.50927 0.03292 0.67662 0.0
H1330 H 0.48599 0.92105 0.64122 0.0
H1331 H 0.41414 0.99618 0.68675 0.0
C1332 C 0.37552 0.96268 0.67682 0.0
C1333 C 0.36657 0.93298 0.66365 0.0
C1334 C 0.49119 0.94546 0.6492 0.0
C1335 C 0.43189 0.95384 0.66269 0.0
C1336 C 0.52294 0.95801 0.64647 0.0
C1337 C 0.52999 0.99001 0.65578 0.0
C1338 C 0.46644 0.96504 0.66141 0.0
C1339 C 0.50491 0.00821 0.669 0.0
C1340 C 0.40798 0.97314 0.67641 0.0
C1341 C 0.39105 0.91447 0.64983 0.0
N1342 N 0.47423 0.99553 0.67125 0.0
N1343 N 0.42271 0.92518 0.64976 0.0
loop_
_geom_bond_atom_site_label_1
_geom_bond_atom_site_label_2
_geom_bond_distance
_geom_bond_site_symmetry_2
_ccdc_geom_bond_type
Co0 N5 2.057 . S
Co0 O17 2.021 . S
Co0 O20 2.062 . S
Co0 O24 2.117 . S
Co0 O25 2.020 . S
C1 O21 1.259 . S
C1 O24 1.258 . S
Co2 N11 2.057 . S
Co2 O18 2.117 . S
Co2 O19 2.020 . S
Co2 O21 2.021 . S
Co2 O26 2.062 . S
C3 N5 1.316 . S
C3 N6 1.347 . S
C3 H8 0.931 . S
C4 N5 1.375 . S
C4 C7 1.350 . S
C4 H9 0.930 . S
N5 Co0 2.057 . S
N5 C3 1.316 . S
N5 C4 1.375 . S
N6 C3 1.347 . S
N6 C7 1.373 . S
C7 C4 1.350 . S
C7 N6 1.373 . S
C7 H28 0.931 . S
H8 C3 0.931 . S
H9 C4 0.930 . S
C10 O17 1.259 . S
C10 O18 1.258 . S
N11 Co2 2.057 . S
N11 C12 1.316 . S
N11 C13 1.375 . S
C12 N11 1.316 . S
C12 N14 1.347 . S
C12 H23 0.931 . S
C13 N11 1.375 . S
C13 C15 1.350 . S
C13 H22 0.930 . S
N14 C12 1.347 . S
N14 C15 1.373 . S
C15 C13 1.350 . S
C15 N14 1.373 . S
C15 H29 0.931 . S
C16 O19 1.256 . S
C16 O20 1.255 . S
O17 Co0 2.021 . S
O17 C10 1.259 . S
O18 Co2 2.117 . S
O18 C10 1.258 . S
O19 Co2 2.020 . S
O19 C16 1.256 . S
O20 Co0 2.062 . S
O20 C16 1.255 . S
O21 C1 1.259 . S
O21 Co2 2.021 . S
H22 C13 0.930 . S
H23 C12 0.931 . S
O24 Co0 2.117 . S
O24 C1 1.258 . S
O25 Co0 2.020 . S
O25 C27 1.256 . S
O26 Co2 2.062 . S
O26 C27 1.255 . S
C27 O25 1.256 . S
C27 O26 1.255 . S
H28 C7 0.931 . S
H29 C15 0.931 . S
Co30 N35 2.057 . S
Co30 O47 2.021 . S
Co30 O50 2.062 . S
Co30 O54 2.117 . S
Co30 O55 2.020 . S
C31 O51 1.259 . S
C31 O54 1.258 . S
Co32 N41 2.057 . S
Co32 O48 2.117 . S
Co32 O49 2.020 . S
Co32 O51 2.021 . S
Co32 O56 2.062 . S
C33 N35 1.316 . S
C33 N36 1.347 . S
C33 H38 0.931 . S
C34 N35 1.375 . S
C34 C37 1.350 . S
C34 H39 0.930 . S
N35 Co30 2.057 . S
N35 C33 1.316 . S
N35 C34 1.375 . S
N36 C33 1.347 . S
N36 C37 1.373 . S
C37 C34 1.350 . S
C37 N36 1.373 . S
C37 H58 0.931 . S
H38 C33 0.931 . S
H39 C34 0.930 . S
C40 O47 1.259 . S
C40 O48 1.258 . S
N41 Co32 2.057 . S
N41 C42 1.316 . S
N41 C43 1.375 . S
C42 N41 1.316 . S
C42 N44 1.347 . S
C42 H53 0.931 . S
C43 N41 1.375 . S
C43 C45 1.350 . S
C43 H52 0.930 . S
N44 C42 1.347 . S
N44 C45 1.373 . S
C45 C43 1.350 . S
C45 N44 1.373 . S
C45 H59 0.931 . S
C46 O49 1.256 . S
C46 O50 1.255 . S
O47 Co30 2.021 . S
O47 C40 1.259 . S
O48 Co32 2.117 . S
O48 C40 1.258 . S
O49 Co32 2.020 . S
O49 C46 1.256 . S
O50 Co30 2.062 . S
O50 C46 1.255 . S
O51 C31 1.259 . S
O51 Co32 2.021 . S
H52 C43 0.930 . S
H53 C42 0.931 . S
O54 Co30 2.117 . S
O54 C31 1.258 . S
O55 Co30 2.020 . S
O55 C57 1.256 . S
O56 Co32 2.062 . S
O56 C57 1.255 . S
C57 O55 1.256 . S
C57 O56 1.255 . S
H58 C37 0.931 . S
H59 C45 0.931 . S
Co60 N65 2.057 . S
Co60 O77 2.021 . S
Co60 O80 2.062 . S
Co60 O84 2.117 . S
Co60 O85 2.020 . S
C61 O81 1.259 . S
C61 O84 1.258 . S
Co62 N71 2.057 . S
Co62 O78 2.117 . S
Co62 O79 2.020 . S
Co62 O81 2.021 . S
Co62 O86 2.062 . S
C63 N65 1.316 . S
C63 N66 1.347 . S
C63 H68 0.931 . S
C64 N65 1.375 . S
C64 C67 1.350 . S
C64 H69 0.930 . S
N65 Co60 2.057 . S
N65 C63 1.316 . S
N65 C64 1.375 . S
N66 C63 1.347 . S
N66 C67 1.373 . S
C67 C64 1.350 . S
C67 N66 1.373 . S
C67 H88 0.931 . S
H68 C63 0.931 . S
H69 C64 0.930 . S
C70 O77 1.259 . S
C70 O78 1.258 . S
N71 Co62 2.057 . S
N71 C72 1.316 . S
N71 C73 1.375 . S
C72 N71 1.316 . S
C72 N74 1.347 . S
C72 H83 0.931 . S
C73 N71 1.375 . S
C73 C75 1.350 . S
C73 H82 0.930 . S
N74 C72 1.347 . S
N74 C75 1.373 . S
C75 C73 1.350 . S
C75 N74 1.373 . S
C75 H89 0.931 . S
C76 O79 1.256 . S
C76 O80 1.255 . S
O77 Co60 2.021 . S
O77 C70 1.259 . S
O78 Co62 2.117 . S
O78 C70 1.258 . S
O79 Co62 2.020 . S
O79 C76 1.256 . S
O80 Co60 2.062 . S
O80 C76 1.255 . S
O81 C61 1.259 . S
O81 Co62 2.021 . S
H82 C73 0.930 . S
H83 C72 0.931 . S
O84 Co60 2.117 . S
O84 C61 1.258 . S
O85 Co60 2.020 . S
O85 C87 1.256 . S
O86 Co62 2.062 . S
O86 C87 1.255 . S
C87 O85 1.256 . S
C87 O86 1.255 . S
H88 C67 0.931 . S
H89 C75 0.931 . S
Co90 N95 2.057 . S
Co90 O107 2.021 . S
Co90 O110 2.062 . S
Co90 O114 2.117 . S
Co90 O115 2.020 . S
C91 O111 1.259 . S
C91 O114 1.258 . S
Co92 N101 2.057 . S
Co92 O108 2.117 . S
Co92 O109 2.020 . S
Co92 O111 2.021 . S
Co92 O116 2.062 . S
C93 N95 1.316 . S
C93 N96 1.347 . S
C93 H98 0.931 . S
C94 N95 1.375 . S
C94 C97 1.350 . S
C94 H99 0.930 . S
N95 Co90 2.057 . S
N95 C93 1.316 . S
N95 C94 1.375 . S
N96 C93 1.347 . S
N96 C97 1.373 . S
C97 C94 1.350 . S
C97 N96 1.373 . S
C97 H118 0.931 . S
H98 C93 0.931 . S
H99 C94 0.930 . S
C100 O107 1.259 . S
C100 O108 1.258 . S
N101 Co92 2.057 . S
N101 C102 1.316 . S
N101 C103 1.375 . S
C102 N101 1.316 . S
C102 N104 1.347 . S
C102 H113 0.931 . S
C103 N101 1.375 . S
C103 C105 1.350 . S
C103 H112 0.930 . S
N104 C102 1.347 . S
N104 C105 1.373 . S
C105 C103 1.350 . S
C105 N104 1.373 . S
C105 H119 0.931 . S
C106 O109 1.256 . S
C106 O110 1.255 . S
O107 Co90 2.021 . S
O107 C100 1.259 . S
O108 Co92 2.117 . S
O108 C100 1.258 . S
O109 Co92 2.020 . S
O109 C106 1.256 . S
O110 Co90 2.062 . S
O110 C106 1.255 . S
O111 C91 1.259 . S
O111 Co92 2.021 . S
H112 C103 0.930 . S
H113 C102 0.931 . S
O114 Co90 2.117 . S
O114 C91 1.258 . S
O115 Co90 2.020 . S
O115 C117 1.256 . S
O116 Co92 2.062 . S
O116 C117 1.255 . S
C117 O115 1.256 . S
C117 O116 1.255 . S
H118 C97 0.931 . S
H119 C105 0.931 . S
Co120 N125 2.057 . S
Co120 O137 2.021 . S
Co120 O140 2.062 . S
Co120 O144 2.117 . S
Co120 O145 2.020 . S
C121 O141 1.259 . S
C121 O144 1.258 . S
Co122 N131 2.057 . S
Co122 O138 2.117 . S
Co122 O139 2.020 . S
Co122 O141 2.021 . S
Co122 O146 2.062 . S
C123 N125 1.316 . S
C123 N126 1.347 . S
C123 H128 0.931 . S
C124 N125 1.375 . S
C124 C127 1.350 . S
C124 H129 0.930 . S
N125 Co120 2.057 . S
N125 C123 1.316 . S
N125 C124 1.375 . S
N126 C123 1.347 . S
N126 C127 1.373 . S
C127 C124 1.350 . S
C127 N126 1.373 . S
C127 H148 0.931 . S
H128 C123 0.931 . S
H129 C124 0.930 . S
C130 O137 1.259 . S
C130 O138 1.258 . S
N131 Co122 2.057 . S
N131 C132 1.316 . S
N131 C133 1.375 . S
C132 N131 1.316 . S
C132 N134 1.347 . S
C132 H143 0.931 . S
C133 N131 1.375 . S
C133 C135 1.350 . S
C133 H142 0.930 . S
N134 C132 1.347 . S
N134 C135 1.373 . S
C135 C133 1.350 . S
C135 N134 1.373 . S
C135 H149 0.931 . S
C136 O139 1.256 . S
C136 O140 1.255 . S
O137 Co120 2.021 . S
O137 C130 1.259 . S
O138 Co122 2.117 . S
O138 C130 1.258 . S
O139 Co122 2.020 . S
O139 C136 1.256 . S
O140 Co120 2.062 . S
O140 C136 1.255 . S
O141 C121 1.259 . S
O141 Co122 2.021 . S
H142 C133 0.930 . S
H143 C132 0.931 . S
O144 Co120 2.117 . S
O144 C121 1.258 . S
O145 Co120 2.020 . S
O145 C147 1.256 . S
O146 Co122 2.062 . S
O146 C147 1.255 . S
C147 O145 1.256 . S
C147 O146 1.255 . S
H148 C127 0.931 . S
H149 C135 0.931 . S
Co150 N155 2.057 . S
Co150 O167 2.021 . S
Co150 O170 2.062 . S
Co150 O174 2.117 . S
Co150 O175 2.020 . S
C151 O171 1.259 . S
C151 O174 1.258 . S
Co152 N161 2.057 . S
Co152 O168 2.117 . S
Co152 O169 2.020 . S
Co152 O171 2.021 . S
Co152 O176 2.062 . S
C153 N155 1.316 . S
C153 N156 1.347 . S
C153 H158 0.931 . S
C154 N155 1.375 . S
C154 C157 1.350 . S
C154 H159 0.930 . S
N155 Co150 2.057 . S
N155 C153 1.316 . S
N155 C154 1.375 . S
N156 C153 1.347 . S
N156 C157 1.373 . S
C157 C154 1.350 . S
C157 N156 1.373 . S
C157 H178 0.931 . S
H158 C153 0.931 . S
H159 C154 0.930 . S
C160 O167 1.259 . S
C160 O168 1.258 . S
N161 Co152 2.057 . S
N161 C162 1.316 . S
N161 C163 1.375 . S
C162 N161 1.316 . S
C162 N164 1.347 . S
C162 H173 0.931 . S
C163 N161 1.375 . S
C163 C165 1.350 . S
C163 H172 0.930 . S
N164 C162 1.347 . S
N164 C165 1.373 . S
C165 C163 1.350 . S
C165 N164 1.373 . S
C165 H179 0.931 . S
C166 O169 1.256 . S
C166 O170 1.255 . S
O167 Co150 2.021 . S
O167 C160 1.259 . S
O168 Co152 2.117 . S
O168 C160 1.258 . S
O169 Co152 2.020 . S
O169 C166 1.256 . S
O170 Co150 2.062 . S
O170 C166 1.255 . S
O171 C151 1.259 . S
O171 Co152 2.021 . S
H172 C163 0.930 . S
H173 C162 0.931 . S
O174 Co150 2.117 . S
O174 C151 1.258 . S
O175 Co150 2.020 . S
O175 C177 1.256 . S
O176 Co152 2.062 . S
O176 C177 1.255 . S
C177 O175 1.256 . S
C177 O176 1.255 . S
H178 C157 0.931 . S
H179 C165 0.931 . S
Co180 N185 2.057 . S
Co180 O197 2.021 . S
Co180 O200 2.062 . S
Co180 O204 2.117 . S
Co180 O205 2.020 . S
C181 O201 1.259 . S
C181 O204 1.258 . S
Co182 N191 2.057 . S
Co182 O198 2.117 . S
Co182 O199 2.020 . S
Co182 O201 2.021 . S
Co182 O206 2.062 . S
C183 N185 1.316 . S
C183 N186 1.347 . S
C183 H188 0.931 . S
C184 N185 1.375 . S
C184 C187 1.350 . S
C184 H189 0.930 . S
N185 Co180 2.057 . S
N185 C183 1.316 . S
N185 C184 1.375 . S
N186 C183 1.347 . S
N186 C187 1.373 . S
C187 C184 1.350 . S
C187 N186 1.373 . S
C187 H208 0.931 . S
H188 C183 0.931 . S
H189 C184 0.930 . S
C190 O197 1.259 . S
C190 O198 1.258 . S
N191 Co182 2.057 . S
N191 C192 1.316 . S
N191 C193 1.375 . S
C192 N191 1.316 . S
C192 N194 1.347 . S
C192 H203 0.931 . S
C193 N191 1.375 . S
C193 C195 1.350 . S
C193 H202 0.930 . S
N194 C192 1.347 . S
N194 C195 1.373 . S
C195 C193 1.350 . S
C195 N194 1.373 . S
C195 H209 0.931 . S
C196 O199 1.256 . S
C196 O200 1.255 . S
O197 Co180 2.021 . S
O197 C190 1.259 . S
O198 Co182 2.117 . S
O198 C190 1.258 . S
O199 Co182 2.020 . S
O199 C196 1.256 . S
O200 Co180 2.062 . S
O200 C196 1.255 . S
O201 C181 1.259 . S
O201 Co182 2.021 . S
H202 C193 0.930 . S
H203 C192 0.931 . S
O204 Co180 2.117 . S
O204 C181 1.258 . S
O205 Co180 2.020 . S
O205 C207 1.256 . S
O206 Co182 2.062 . S
O206 C207 1.255 . S
C207 O205 1.256 . S
C207 O206 1.255 . S
H208 C187 0.931 . S
H209 C195 0.931 . S
Co210 N215 2.057 . S
Co210 O227 2.021 . S
Co210 O230 2.062 . S
Co210 O234 2.117 . S
Co210 O235 2.020 . S
C211 O231 1.259 . S
C211 O234 1.258 . S
Co212 N221 2.057 . S
Co212 O228 2.117 . S
Co212 O229 2.020 . S
Co212 O231 2.021 . S
Co212 O236 2.062 . S
C213 N215 1.316 . S
C213 N216 1.347 . S
C213 H218 0.931 . S
C214 N215 1.375 . S
C214 C217 1.350 . S
C214 H219 0.930 . S
N215 Co210 2.057 . S
N215 C213 1.316 . S
N215 C214 1.375 . S
N216 C213 1.347 . S
N216 C217 1.373 . S
C217 C214 1.350 . S
C217 N216 1.373 . S
C217 H238 0.931 . S
H218 C213 0.931 . S
H219 C214 0.930 . S
C220 O227 1.259 . S
C220 O228 1.258 . S
N221 Co212 2.057 . S
N221 C222 1.316 . S
N221 C223 1.375 . S
C222 N221 1.316 . S
C222 N224 1.347 . S
C222 H233 0.931 . S
C223 N221 1.375 . S
C223 C225 1.350 . S
C223 H232 0.930 . S
N224 C222 1.347 . S
N224 C225 1.373 . S
C225 C223 1.350 . S
C225 N224 1.373 . S
C225 H239 0.931 . S
C226 O229 1.256 . S
C226 O230 1.255 . S
O227 Co210 2.021 . S
O227 C220 1.259 . S
O228 Co212 2.117 . S
O228 C220 1.258 . S
O229 Co212 2.020 . S
O229 C226 1.256 . S
O230 Co210 2.062 . S
O230 C226 1.255 . S
O231 C211 1.259 . S
O231 Co212 2.021 . S
H232 C223 0.930 . S
H233 C222 0.931 . S
O234 Co210 2.117 . S
O234 C211 1.258 . S
O235 Co210 2.020 . S
O235 C237 1.256 . S
O236 Co212 2.062 . S
O236 C237 1.255 . S
C237 O235 1.256 . S
C237 O236 1.255 . S
H238 C217 0.931 . S
H239 C225 0.931 . S
Co240 N245 2.057 . S
Co240 O257 2.021 . S
Co240 O260 2.062 . S
Co240 O264 2.117 . S
Co240 O265 2.020 . S
C241 O261 1.259 . S
C241 O264 1.258 . S
Co242 N251 2.057 . S
Co242 O258 2.117 . S
Co242 O259 2.020 . S
Co242 O261 2.021 . S
Co242 O266 2.062 . S
C243 N245 1.316 . S
C243 N246 1.347 . S
C243 H248 0.931 . S
C244 N245 1.375 . S
C244 C247 1.350 . S
C244 H249 0.930 . S
N245 Co240 2.057 . S
N245 C243 1.316 . S
N245 C244 1.375 . S
N246 C243 1.347 . S
N246 C247 1.373 . S
C247 C244 1.350 . S
C247 N246 1.373 . S
C247 H268 0.931 . S
H248 C243 0.931 . S
H249 C244 0.930 . S
C250 O257 1.259 . S
C250 O258 1.258 . S
N251 Co242 2.057 . S
N251 C252 1.316 . S
N251 C253 1.375 . S
C252 N251 1.316 . S
C252 N254 1.347 . S
C252 H263 0.931 . S
C253 N251 1.375 . S
C253 C255 1.350 . S
C253 H262 0.930 . S
N254 C252 1.347 . S
N254 C255 1.373 . S
C255 C253 1.350 . S
C255 N254 1.373 . S
C255 H269 0.931 . S
C256 O259 1.256 . S
C256 O260 1.255 . S
O257 Co240 2.021 . S
O257 C250 1.259 . S
O258 Co242 2.117 . S
O258 C250 1.258 . S
O259 Co242 2.020 . S
O259 C256 1.256 . S
O260 Co240 2.062 . S
O260 C256 1.255 . S
O261 C241 1.259 . S
O261 Co242 2.021 . S
H262 C253 0.930 . S
H263 C252 0.931 . S
O264 Co240 2.117 . S
O264 C241 1.258 . S
O265 Co240 2.020 . S
O265 C267 1.256 . S
O266 Co242 2.062 . S
O266 C267 1.255 . S
C267 O265 1.256 . S
C267 O266 1.255 . S
H268 C247 0.931 . S
H269 C255 0.931 . S
Co270 N275 2.057 . S
Co270 O287 2.021 . S
Co270 O290 2.062 . S
Co270 O294 2.117 1_565 S
Co270 O295 2.020 . S
C271 O291 1.259 . S
C271 O294 1.258 . S
Co272 N281 2.057 . S
Co272 O288 2.117 . S
Co272 O289 2.020 . S
Co272 O291 2.021 . S
Co272 O296 2.062 . S
C273 N275 1.316 . S
C273 N276 1.347 . S
C273 H278 0.931 . S
C274 N275 1.375 . S
C274 C277 1.350 . S
C274 H279 0.930 . S
N275 Co270 2.057 . S
N275 C273 1.316 . S
N275 C274 1.375 . S
N276 C273 1.347 . S
N276 C277 1.373 . S
C277 C274 1.350 . S
C277 N276 1.373 . S
C277 H298 0.931 . S
H278 C273 0.931 . S
H279 C274 0.930 . S
C280 O287 1.259 . S
C280 O288 1.258 1_565 S
N281 Co272 2.057 . S
N281 C282 1.316 . S
N281 C283 1.375 . S
C282 N281 1.316 . S
C282 N284 1.347 . S
C282 H293 0.931 . S
C283 N281 1.375 . S
C283 C285 1.350 . S
C283 H292 0.930 . S
N284 C282 1.347 . S
N284 C285 1.373 . S
C285 C283 1.350 . S
C285 N284 1.373 . S
C285 H299 0.931 . S
C286 O289 1.256 . S
C286 O290 1.255 1_545 S
O287 Co270 2.021 . S
O287 C280 1.259 . S
O288 Co272 2.117 . S
O288 C280 1.258 1_545 S
O289 Co272 2.020 . S
O289 C286 1.256 . S
O290 Co270 2.062 . S
O290 C286 1.255 1_565 S
O291 C271 1.259 . S
O291 Co272 2.021 . S
H292 C283 0.930 . S
H293 C282 0.931 . S
O294 Co270 2.117 1_545 S
O294 C271 1.258 . S
O295 Co270 2.020 . S
O295 C297 1.256 1_565 S
O296 Co272 2.062 . S
O296 C297 1.255 . S
C297 O295 1.256 1_545 S
C297 O296 1.255 . S
H298 C277 0.931 . S
H299 C285 0.931 . S
Co300 N305 2.057 . S
Co300 O317 2.021 . S
Co300 O320 2.062 . S
Co300 O324 2.117 . S
Co300 O325 2.020 . S
C301 O321 1.259 . S
C301 O324 1.258 . S
Co302 N311 2.057 . S
Co302 O318 2.117 . S
Co302 O319 2.020 . S
Co302 O321 2.021 . S
Co302 O326 2.062 . S
C303 N305 1.316 . S
C303 N306 1.347 . S
C303 H308 0.931 . S
C304 N305 1.375 . S
C304 C307 1.350 . S
C304 H309 0.930 . S
N305 Co300 2.057 . S
N305 C303 1.316 . S
N305 C304 1.375 . S
N306 C303 1.347 . S
N306 C307 1.373 . S
C307 C304 1.350 . S
C307 N306 1.373 . S
C307 H328 0.931 . S
H308 C303 0.931 . S
H309 C304 0.930 . S
C310 O317 1.259 . S
C310 O318 1.258 . S
N311 Co302 2.057 . S
N311 C312 1.316 . S
N311 C313 1.375 . S
C312 N311 1.316 . S
C312 N314 1.347 . S
C312 H323 0.931 . S
C313 N311 1.375 . S
C313 C315 1.350 . S
C313 H322 0.930 . S
N314 C312 1.347 . S
N314 C315 1.373 . S
C315 C313 1.350 . S
C315 N314 1.373 . S
C315 H329 0.931 . S
C316 O319 1.256 . S
C316 O320 1.255 . S
O317 Co300 2.021 . S
O317 C310 1.259 . S
O318 Co302 2.117 . S
O318 C310 1.258 . S
O319 Co302 2.020 . S
O319 C316 1.256 . S
O320 Co300 2.062 . S
O320 C316 1.255 . S
O321 C301 1.259 . S
O321 Co302 2.021 . S
H322 C313 0.930 . S
H323 C312 0.931 . S
O324 Co300 2.117 . S
O324 C301 1.258 . S
O325 Co300 2.020 . S
O325 C327 1.256 . S
O326 Co302 2.062 . S
O326 C327 1.255 . S
C327 O325 1.256 . S
C327 O326 1.255 . S
H328 C307 0.931 . S
H329 C315 0.931 . S
Co330 N335 2.057 . S
Co330 O347 2.021 . S
Co330 O350 2.062 . S
Co330 O354 2.117 1_545 S
Co330 O355 2.020 . S
C331 O351 1.259 . S
C331 O354 1.258 . S
Co332 N341 2.057 . S
Co332 O348 2.117 . S
Co332 O349 2.020 . S
Co332 O351 2.021 . S
Co332 O356 2.062 . S
C333 N335 1.316 . S
C333 N336 1.347 . S
C333 H338 0.931 . S
C334 N335 1.375 . S
C334 C337 1.350 . S
C334 H339 0.930 . S
N335 Co330 2.057 . S
N335 C333 1.316 . S
N335 C334 1.375 . S
N336 C333 1.347 . S
N336 C337 1.373 . S
C337 C334 1.350 . S
C337 N336 1.373 . S
C337 H358 0.931 . S
H338 C333 0.931 . S
H339 C334 0.930 . S
C340 O347 1.259 . S
C340 O348 1.258 1_545 S
N341 Co332 2.057 . S
N341 C342 1.316 . S
N341 C343 1.375 . S
C342 N341 1.316 . S
C342 N344 1.347 . S
C342 H353 0.931 . S
C343 N341 1.375 . S
C343 C345 1.350 . S
C343 H352 0.930 . S
N344 C342 1.347 . S
N344 C345 1.373 . S
C345 C343 1.350 . S
C345 N344 1.373 . S
C345 H359 0.931 . S
C346 O349 1.256 . S
C346 O350 1.255 1_565 S
O347 Co330 2.021 . S
O347 C340 1.259 . S
O348 Co332 2.117 . S
O348 C340 1.258 1_565 S
O349 Co332 2.020 . S
O349 C346 1.256 . S
O350 Co330 2.062 . S
O350 C346 1.255 1_545 S
O351 C331 1.259 . S
O351 Co332 2.021 . S
H352 C343 0.930 . S
H353 C342 0.931 . S
O354 Co330 2.117 1_565 S
O354 C331 1.258 . S
O355 Co330 2.020 . S
O355 C357 1.256 1_545 S
O356 Co332 2.062 . S
O356 C357 1.255 . S
C357 O355 1.256 1_565 S
C357 O356 1.255 . S
H358 C337 0.931 . S
H359 C345 0.931 . S
Co360 N365 2.057 . S
Co360 O377 2.021 . S
Co360 O380 2.062 . S
Co360 O384 2.117 . S
Co360 O385 2.020 . S
C361 O381 1.259 . S
C361 O384 1.258 . S
Co362 N371 2.057 . S
Co362 O378 2.117 . S
Co362 O379 2.020 . S
Co362 O381 2.021 . S
Co362 O386 2.062 . S
C363 N365 1.316 . S
C363 N366 1.347 . S
C363 H368 0.931 . S
C364 N365 1.375 . S
C364 C367 1.350 . S
C364 H369 0.930 . S
N365 Co360 2.057 . S
N365 C363 1.316 . S
N365 C364 1.375 . S
N366 C363 1.347 . S
N366 C367 1.373 . S
C367 C364 1.350 . S
C367 N366 1.373 . S
C367 H388 0.931 . S
H368 C363 0.931 . S
H369 C364 0.930 . S
C370 O377 1.259 . S
C370 O378 1.258 . S
N371 Co362 2.057 . S
N371 C372 1.316 . S
N371 C373 1.375 . S
C372 N371 1.316 . S
C372 N374 1.347 . S
C372 H383 0.931 . S
C373 N371 1.375 . S
C373 C375 1.350 . S
C373 H382 0.930 . S
N374 C372 1.347 . S
N374 C375 1.373 . S
C375 C373 1.350 . S
C375 N374 1.373 . S
C375 H389 0.931 . S
C376 O379 1.256 . S
C376 O380 1.255 . S
O377 Co360 2.021 . S
O377 C370 1.259 . S
O378 Co362 2.117 . S
O378 C370 1.258 . S
O379 Co362 2.020 . S
O379 C376 1.256 . S
O380 Co360 2.062 . S
O380 C376 1.255 . S
O381 C361 1.259 . S
O381 Co362 2.021 . S
H382 C373 0.930 . S
H383 C372 0.931 . S
O384 Co360 2.117 . S
O384 C361 1.258 . S
O385 Co360 2.020 . S
O385 C387 1.256 . S
O386 Co362 2.062 . S
O386 C387 1.255 . S
C387 O385 1.256 . S
C387 O386 1.255 . S
H388 C367 0.931 . S
H389 C375 0.931 . S
Co390 N395 2.057 . S
Co390 O407 2.021 . S
Co390 O410 2.062 . S
Co390 O414 2.117 . S
Co390 O415 2.020 . S
C391 O411 1.259 . S
C391 O414 1.258 1_545 S
Co392 N401 2.057 . S
Co392 O408 2.117 1_545 S
Co392 O409 2.020 . S
Co392 O411 2.021 . S
Co392 O416 2.062 . S
C393 N395 1.316 . S
C393 N396 1.347 . S
C393 H398 0.931 . S
C394 N395 1.375 . S
C394 C397 1.350 . S
C394 H399 0.930 . S
N395 Co390 2.057 . S
N395 C393 1.316 . S
N395 C394 1.375 . S
N396 C393 1.347 . S
N396 C397 1.373 . S
C397 C394 1.350 . S
C397 N396 1.373 . S
C397 H418 0.931 . S
H398 C393 0.931 . S
H399 C394 0.930 . S
C400 O407 1.259 . S
C400 O408 1.258 . S
N401 Co392 2.057 . S
N401 C402 1.316 . S
N401 C403 1.375 . S
C402 N401 1.316 . S
C402 N404 1.347 . S
C402 H413 0.931 . S
C403 N401 1.375 . S
C403 C405 1.350 . S
C403 H412 0.930 . S
N404 C402 1.347 . S
N404 C405 1.373 . S
C405 C403 1.350 . S
C405 N404 1.373 . S
C405 H419 0.931 . S
C406 O409 1.256 1_565 S
C406 O410 1.255 . S
O407 Co390 2.021 . S
O407 C400 1.259 . S
O408 Co392 2.117 1_565 S
O408 C400 1.258 . S
O409 Co392 2.020 . S
O409 C406 1.256 1_545 S
O410 Co390 2.062 . S
O410 C406 1.255 . S
O411 C391 1.259 . S
O411 Co392 2.021 . S
H412 C403 0.930 . S
H413 C402 0.931 . S
O414 Co390 2.117 . S
O414 C391 1.258 1_565 S
O415 Co390 2.020 . S
O415 C417 1.256 . S
O416 Co392 2.062 . S
O416 C417 1.255 1_545 S
C417 O415 1.256 . S
C417 O416 1.255 1_565 S
H418 C397 0.931 . S
H419 C405 0.931 . S
Co420 N425 2.057 . S
Co420 O437 2.021 . S
Co420 O440 2.062 . S
Co420 O444 2.117 . S
Co420 O445 2.020 . S
C421 O441 1.259 . S
C421 O444 1.258 . S
Co422 N431 2.057 . S
Co422 O438 2.117 . S
Co422 O439 2.020 . S
Co422 O441 2.021 . S
Co422 O446 2.062 . S
C423 N425 1.316 . S
C423 N426 1.347 . S
C423 H428 0.931 . S
C424 N425 1.375 . S
C424 C427 1.350 . S
C424 H429 0.930 . S
N425 Co420 2.057 . S
N425 C423 1.316 . S
N425 C424 1.375 . S
N426 C423 1.347 . S
N426 C427 1.373 . S
C427 C424 1.350 . S
C427 N426 1.373 . S
C427 H448 0.931 . S
H428 C423 0.931 . S
H429 C424 0.930 . S
C430 O437 1.259 . S
C430 O438 1.258 . S
N431 Co422 2.057 . S
N431 C432 1.316 . S
N431 C433 1.375 . S
C432 N431 1.316 . S
C432 N434 1.347 . S
C432 H443 0.931 . S
C433 N431 1.375 . S
C433 C435 1.350 . S
C433 H442 0.930 . S
N434 C432 1.347 . S
N434 C435 1.373 . S
C435 C433 1.350 . S
C435 N434 1.373 . S
C435 H449 0.931 . S
C436 O439 1.256 . S
C436 O440 1.255 . S
O437 Co420 2.021 . S
O437 C430 1.259 . S
O438 Co422 2.117 . S
O438 C430 1.258 . S
O439 Co422 2.020 . S
O439 C436 1.256 . S
O440 Co420 2.062 . S
O440 C436 1.255 . S
O441 C421 1.259 . S
O441 Co422 2.021 . S
H442 C433 0.930 . S
H443 C432 0.931 . S
O444 Co420 2.117 . S
O444 C421 1.258 . S
O445 Co420 2.020 . S
O445 C447 1.256 . S
O446 Co422 2.062 . S
O446 C447 1.255 . S
C447 O445 1.256 . S
C447 O446 1.255 . S
H448 C427 0.931 . S
H449 C435 0.931 . S
Co450 N455 2.057 . S
Co450 O467 2.021 . S
Co450 O470 2.062 . S
Co450 O474 2.117 . S
Co450 O475 2.020 . S
C451 O471 1.259 . S
C451 O474 1.258 1_565 S
Co452 N461 2.057 . S
Co452 O468 2.117 1_565 S
Co452 O469 2.020 . S
Co452 O471 2.021 . S
Co452 O476 2.062 . S
C453 N455 1.316 . S
C453 N456 1.347 . S
C453 H458 0.931 . S
C454 N455 1.375 . S
C454 C457 1.350 . S
C454 H459 0.930 . S
N455 Co450 2.057 . S
N455 C453 1.316 . S
N455 C454 1.375 . S
N456 C453 1.347 . S
N456 C457 1.373 . S
C457 C454 1.350 . S
C457 N456 1.373 . S
C457 H478 0.931 . S
H458 C453 0.931 . S
H459 C454 0.930 . S
C460 O467 1.259 . S
C460 O468 1.258 . S
N461 Co452 2.057 . S
N461 C462 1.316 . S
N461 C463 1.375 . S
C462 N461 1.316 . S
C462 N464 1.347 . S
C462 H473 0.931 . S
C463 N461 1.375 . S
C463 C465 1.350 . S
C463 H472 0.930 . S
N464 C462 1.347 . S
N464 C465 1.373 . S
C465 C463 1.350 . S
C465 N464 1.373 . S
C465 H479 0.931 . S
C466 O469 1.256 1_545 S
C466 O470 1.255 . S
O467 Co450 2.021 . S
O467 C460 1.259 . S
O468 Co452 2.117 1_545 S
O468 C460 1.258 . S
O469 Co452 2.020 . S
O469 C466 1.256 1_565 S
O470 Co450 2.062 . S
O470 C466 1.255 . S
O471 C451 1.259 . S
O471 Co452 2.021 . S
H472 C463 0.930 . S
H473 C462 0.931 . S
O474 Co450 2.117 . S
O474 C451 1.258 1_545 S
O475 Co450 2.020 . S
O475 C477 1.256 . S
O476 Co452 2.062 . S
O476 C477 1.255 1_565 S
C477 O475 1.256 . S
C477 O476 1.255 1_545 S
H478 C457 0.931 . S
H479 C465 0.931 . S
H480 C486 0.930 . S
H481 C490 0.930 . S
H482 C495 0.929 . S
H483 C493 0.929 . S
H484 C488 0.929 . S
H485 C494 0.929 . S
C486 H480 0.930 . S
C486 C487 1.367 . S
C486 C494 1.378 . S
C487 C486 1.367 . S
C487 C495 1.433 . S
C488 H484 0.929 . S
C488 C490 1.378 . S
C488 C492 1.350 . S
C489 C492 1.463 . S
C489 C494 1.350 . S
C489 N497 1.427 . S
C490 H481 0.930 . S
C490 C488 1.378 . S
C490 C491 1.367 . S
C491 C490 1.367 . S
C491 C493 1.433 . S
C492 C488 1.350 . S
C492 C489 1.463 . S
C492 N496 1.427 . S
C493 H483 0.929 . S
C493 C491 1.433 . S
C493 N496 1.384 . S
C494 H485 0.929 . S
C494 C486 1.378 . S
C494 C489 1.350 . S
C495 H482 0.929 . S
C495 C487 1.433 . S
C495 N497 1.384 . S
N496 C492 1.427 . S
N496 C493 1.384 . S
N497 C489 1.427 . S
N497 C495 1.384 . S
H498 C504 0.930 . S
H499 C508 0.930 . S
H500 C513 0.929 . S
H501 C511 0.929 . S
H502 C506 0.929 . S
H503 C512 0.929 . S
C504 H498 0.930 . S
C504 C505 1.367 . S
C504 C512 1.378 . S
C505 C504 1.367 . S
C505 C513 1.433 . S
C506 H502 0.929 . S
C506 C508 1.378 . S
C506 C510 1.350 . S
C507 C510 1.463 . S
C507 C512 1.350 . S
C507 N515 1.427 . S
C508 H499 0.930 . S
C508 C506 1.378 . S
C508 C509 1.367 . S
C509 C508 1.367 . S
C509 C511 1.433 . S
C510 C506 1.350 . S
C510 C507 1.463 . S
C510 N514 1.427 . S
C511 H501 0.929 . S
C511 C509 1.433 . S
C511 N514 1.384 . S
C512 H503 0.929 . S
C512 C504 1.378 . S
C512 C507 1.350 . S
C513 H500 0.929 . S
C513 C505 1.433 . S
C513 N515 1.384 . S
N514 C510 1.427 . S
N514 C511 1.384 . S
N515 C507 1.427 . S
N515 C513 1.384 . S
H516 C522 0.930 . S
H517 C526 0.930 . S
H518 C531 0.929 . S
H519 C529 0.929 . S
H520 C524 0.929 . S
H521 C530 0.929 . S
C522 H516 0.930 . S
C522 C523 1.367 . S
C522 C530 1.378 . S
C523 C522 1.367 . S
C523 C531 1.433 . S
C524 H520 0.929 . S
C524 C526 1.378 . S
C524 C528 1.350 . S
C525 C528 1.463 . S
C525 C530 1.350 . S
C525 N533 1.427 . S
C526 H517 0.930 . S
C526 C524 1.378 . S
C526 C527 1.367 . S
C527 C526 1.367 . S
C527 C529 1.433 . S
C528 C524 1.350 . S
C528 C525 1.463 . S
C528 N532 1.427 . S
C529 H519 0.929 . S
C529 C527 1.433 . S
C529 N532 1.384 . S
C530 H521 0.929 . S
C530 C522 1.378 . S
C530 C525 1.350 . S
C531 H518 0.929 . S
C531 C523 1.433 . S
C531 N533 1.384 . S
N532 C528 1.427 . S
N532 C529 1.384 . S
N533 C525 1.427 . S
N533 C531 1.384 . S
H534 C540 0.930 . S
H535 C544 0.930 . S
H536 C549 0.929 . S
H537 C547 0.929 . S
H538 C542 0.929 1_655 S
H539 C548 0.929 1_455 S
C540 H534 0.930 . S
C540 C541 1.367 . S
C540 C548 1.378 . S
C541 C540 1.367 . S
C541 C549 1.433 . S
C542 H538 0.929 1_455 S
C542 C544 1.378 . S
C542 C546 1.350 . S
C543 C546 1.463 1_656 S
C543 C548 1.350 . S
C543 N551 1.427 . S
C544 H535 0.930 . S
C544 C542 1.378 . S
C544 C545 1.367 . S
C545 C544 1.367 . S
C545 C547 1.433 . S
C546 C542 1.350 . S
C546 C543 1.463 1_454 S
C546 N550 1.427 . S
C547 H537 0.929 . S
C547 C545 1.433 . S
C547 N550 1.384 . S
C548 H539 0.929 1_655 S
C548 C540 1.378 . S
C548 C543 1.350 . S
C549 H536 0.929 . S
C549 C541 1.433 . S
C549 N551 1.384 . S
N550 C546 1.427 . S
N550 C547 1.384 . S
N551 C543 1.427 . S
N551 C549 1.384 . S
H552 C558 0.930 . S
H553 C562 0.930 . S
H554 C567 0.929 . S
H555 C565 0.929 . S
H556 C560 0.929 . S
H557 C566 0.929 . S
C558 H552 0.930 . S
C558 C559 1.367 . S
C558 C566 1.378 . S
C559 C558 1.367 . S
C559 C567 1.433 . S
C560 H556 0.929 . S
C560 C562 1.378 . S
C560 C564 1.350 . S
C561 C564 1.463 . S
C561 C566 1.350 . S
C561 N569 1.427 . S
C562 H553 0.930 . S
C562 C560 1.378 . S
C562 C563 1.367 . S
C563 C562 1.367 . S
C563 C565 1.433 . S
C564 C560 1.350 . S
C564 C561 1.463 . S
C564 N568 1.427 . S
C565 H555 0.929 . S
C565 C563 1.433 . S
C565 N568 1.384 . S
C566 H557 0.929 . S
C566 C558 1.378 . S
C566 C561 1.350 . S
C567 H554 0.929 . S
C567 C559 1.433 . S
C567 N569 1.384 . S
N568 C564 1.427 . S
N568 C565 1.384 . S
N569 C561 1.427 . S
N569 C567 1.384 . S
H570 C576 0.930 . S
H571 C580 0.930 . S
H572 C585 0.929 . S
H573 C583 0.929 . S
H574 C578 0.929 . S
H575 C584 0.929 . S
C576 H570 0.930 . S
C576 C577 1.367 . S
C576 C584 1.378 . S
C577 C576 1.367 . S
C577 C585 1.433 . S
C578 H574 0.929 . S
C578 C580 1.378 . S
C578 C582 1.350 . S
C579 C582 1.463 . S
C579 C584 1.350 . S
C579 N587 1.427 . S
C580 H571 0.930 . S
C580 C578 1.378 . S
C580 C581 1.367 . S
C581 C580 1.367 . S
C581 C583 1.433 . S
C582 C578 1.350 . S
C582 C579 1.463 . S
C582 N586 1.427 . S
C583 H573 0.929 . S
C583 C581 1.433 . S
C583 N586 1.384 . S
C584 H575 0.929 . S
C584 C576 1.378 . S
C584 C579 1.350 . S
C585 H572 0.929 . S
C585 C577 1.433 . S
C585 N587 1.384 . S
N586 C582 1.427 . S
N586 C583 1.384 . S
N587 C579 1.427 . S
N587 C585 1.384 . S
H588 C594 0.930 . S
H589 C598 0.930 . S
H590 C603 0.929 . S
H591 C601 0.929 . S
H592 C596 0.929 . S
H593 C602 0.929 . S
C594 H588 0.930 . S
C594 C595 1.367 . S
C594 C602 1.378 1_554 S
C595 C594 1.367 . S
C595 C603 1.433 . S
C596 H592 0.929 . S
C596 C598 1.378 1_554 S
C596 C600 1.350 1_554 S
C597 C600 1.463 1_664 S
C597 C602 1.350 1_554 S
C597 N605 1.427 . S
C598 H589 0.930 . S
C598 C596 1.378 1_556 S
C598 C599 1.367 . S
C599 C598 1.367 . S
C599 C601 1.433 . S
C600 C596 1.350 1_556 S
C600 C597 1.463 1_446 S
C600 N604 1.427 . S
C601 H591 0.929 . S
C601 C599 1.433 . S
C601 N604 1.384 . S
C602 H593 0.929 . S
C602 C594 1.378 1_556 S
C602 C597 1.350 1_556 S
C603 H590 0.929 . S
C603 C595 1.433 . S
C603 N605 1.384 . S
N604 C600 1.427 . S
N604 C601 1.384 . S
N605 C597 1.427 . S
N605 C603 1.384 . S
H606 C612 0.930 . S
H607 C616 0.930 . S
H608 C621 0.929 . S
H609 C619 0.929 . S
H610 C614 0.929 . S
H611 C620 0.929 . S
C612 H606 0.930 . S
C612 C613 1.367 1_545 S
C612 C620 1.378 . S
C613 C612 1.367 1_565 S
C613 C621 1.433 . S
C614 H610 0.929 . S
C614 C616 1.378 . S
C614 C618 1.350 1_565 S
C615 C618 1.463 1_565 S
C615 C620 1.350 1_565 S
C615 N623 1.427 . S
C616 H607 0.930 . S
C616 C614 1.378 . S
C616 C617 1.367 1_565 S
C617 C616 1.367 1_545 S
C617 C619 1.433 . S
C618 C614 1.350 1_545 S
C618 C615 1.463 1_545 S
C618 N622 1.427 . S
C619 H609 0.929 . S
C619 C617 1.433 . S
C619 N622 1.384 . S
C620 H611 0.929 . S
C620 C612 1.378 . S
C620 C615 1.350 1_545 S
C621 H608 0.929 . S
C621 C613 1.433 . S
C621 N623 1.384 . S
N622 C618 1.427 . S
N622 C619 1.384 . S
N623 C615 1.427 . S
N623 C621 1.384 . S
H624 C630 0.930 . S
H625 C634 0.930 . S
H626 C639 0.929 . S
H627 C637 0.929 . S
H628 C632 0.929 . S
H629 C638 0.929 . S
C630 H624 0.930 . S
C630 C631 1.367 . S
C630 C638 1.378 . S
C631 C630 1.367 . S
C631 C639 1.433 . S
C632 H628 0.929 . S
C632 C634 1.378 . S
C632 C636 1.350 . S
C633 C636 1.463 1_556 S
C633 C638 1.350 . S
C633 N641 1.427 . S
C634 H625 0.930 . S
C634 C632 1.378 . S
C634 C635 1.367 . S
C635 C634 1.367 . S
C635 C637 1.433 . S
C636 C632 1.350 . S
C636 C633 1.463 1_554 S
C636 N640 1.427 . S
C637 H627 0.929 . S
C637 C635 1.433 . S
C637 N640 1.384 . S
C638 H629 0.929 . S
C638 C630 1.378 . S
C638 C633 1.350 . S
C639 H626 0.929 . S
C639 C631 1.433 . S
C639 N641 1.384 . S
N640 C636 1.427 . S
N640 C637 1.384 . S
N641 C633 1.427 . S
N641 C639 1.384 . S
H642 C648 0.930 . S
H643 C652 0.930 . S
H644 C657 0.929 . S
H645 C655 0.929 . S
H646 C650 0.929 . S
H647 C656 0.929 . S
C648 H642 0.930 . S
C648 C649 1.367 . S
C648 C656 1.378 . S
C649 C648 1.367 . S
C649 C657 1.433 . S
C650 H646 0.929 . S
C650 C652 1.378 . S
C650 C654 1.350 . S
C651 C654 1.463 . S
C651 C656 1.350 . S
C651 N659 1.427 . S
C652 H643 0.930 . S
C652 C650 1.378 . S
C652 C653 1.367 . S
C653 C652 1.367 . S
C653 C655 1.433 . S
C654 C650 1.350 . S
C654 C651 1.463 . S
C654 N658 1.427 . S
C655 H645 0.929 . S
C655 C653 1.433 . S
C655 N658 1.384 . S
C656 H647 0.929 . S
C656 C648 1.378 . S
C656 C651 1.350 . S
C657 H644 0.929 . S
C657 C649 1.433 . S
C657 N659 1.384 . S
N658 C654 1.427 . S
N658 C655 1.384 . S
N659 C651 1.427 . S
N659 C657 1.384 . S
H660 C666 0.930 . S
H661 C670 0.930 . S
H662 C675 0.929 . S
H663 C673 0.929 . S
H664 C668 0.929 . S
H665 C674 0.929 . S
C666 H660 0.930 . S
C666 C667 1.367 . S
C666 C674 1.378 . S
C667 C666 1.367 . S
C667 C675 1.433 . S
C668 H664 0.929 . S
C668 C670 1.378 . S
C668 C672 1.350 . S
C669 C672 1.463 . S
C669 C674 1.350 . S
C669 N677 1.427 . S
C670 H661 0.930 . S
C670 C668 1.378 . S
C670 C671 1.367 . S
C671 C670 1.367 . S
C671 C673 1.433 . S
C672 C668 1.350 . S
C672 C669 1.463 . S
C672 N676 1.427 . S
C673 H663 0.929 . S
C673 C671 1.433 . S
C673 N676 1.384 . S
C674 H665 0.929 . S
C674 C666 1.378 . S
C674 C669 1.350 . S
C675 H662 0.929 . S
C675 C667 1.433 . S
C675 N677 1.384 . S
N676 C672 1.427 . S
N676 C673 1.384 . S
N677 C669 1.427 . S
N677 C675 1.384 . S
H678 C684 0.930 . S
H679 C688 0.930 . S
H680 C693 0.929 . S
H681 C691 0.929 . S
H682 C686 0.929 . S
H683 C692 0.929 . S
C684 H678 0.930 . S
C684 C685 1.367 . S
C684 C692 1.378 . S
C685 C684 1.367 . S
C685 C693 1.433 . S
C686 H682 0.929 . S
C686 C688 1.378 . S
C686 C690 1.350 . S
C687 C690 1.463 . S
C687 C692 1.350 . S
C687 N695 1.427 . S
C688 H679 0.930 . S
C688 C686 1.378 . S
C688 C689 1.367 . S
C689 C688 1.367 . S
C689 C691 1.433 . S
C690 C686 1.350 . S
C690 C687 1.463 . S
C690 N694 1.427 . S
C691 H681 0.929 . S
C691 C689 1.433 . S
C691 N694 1.384 . S
C692 H683 0.929 . S
C692 C684 1.378 . S
C692 C687 1.350 . S
C693 H680 0.929 . S
C693 C685 1.433 . S
C693 N695 1.384 . S
N694 C690 1.427 . S
N694 C691 1.384 . S
N695 C687 1.427 . S
N695 C693 1.384 . S
H696 C702 0.930 . S
H697 C706 0.930 . S
H698 C711 0.929 . S
H699 C709 0.929 . S
H700 C704 0.929 1_554 S
H701 C710 0.904 1_556 S
C702 H696 0.930 . S
C702 C703 1.367 . S
C702 C710 1.378 . S
C703 C702 1.367 . S
C703 C711 1.433 . S
C704 H700 0.929 1_556 S
C704 C706 1.378 . S
C704 C708 1.350 . S
C705 C708 1.463 1_554 S
C705 C710 1.350 . S
C705 N713 1.427 . S
C706 H697 0.930 . S
C706 C704 1.378 . S
C706 C707 1.367 . S
C707 C706 1.367 . S
C707 C709 1.433 . S
C708 C704 1.350 . S
C708 C705 1.463 1_556 S
C708 N712 1.427 . S
C709 H699 0.929 . S
C709 C707 1.433 . S
C709 N712 1.384 . S
C710 H701 0.904 1_554 S
C710 C702 1.378 . S
C710 C705 1.350 . S
C711 H698 0.929 . S
C711 C703 1.433 . S
C711 N713 1.384 . S
N712 C708 1.427 . S
N712 C709 1.384 . S
N713 C705 1.427 . S
N713 C711 1.384 . S
H714 C720 0.930 . S
H715 C724 0.930 . S
H716 C729 0.929 . S
H717 C727 0.929 . S
H718 C722 0.929 . S
H719 C728 0.929 . S
C720 H714 0.930 . S
C720 C721 1.367 . S
C720 C728 1.378 . S
C721 C720 1.367 . S
C721 C729 1.433 . S
C722 H718 0.929 . S
C722 C724 1.378 . S
C722 C726 1.350 . S
C723 C726 1.463 . S
C723 C728 1.350 . S
C723 N731 1.427 . S
C724 H715 0.930 . S
C724 C722 1.378 . S
C724 C725 1.367 . S
C725 C724 1.367 . S
C725 C727 1.433 . S
C726 C722 1.350 . S
C726 C723 1.463 . S
C726 N730 1.427 . S
C727 H717 0.929 . S
C727 C725 1.433 . S
C727 N730 1.384 . S
C728 H719 0.929 . S
C728 C720 1.378 . S
C728 C723 1.350 . S
C729 H716 0.929 . S
C729 C721 1.433 . S
C729 N731 1.384 . S
N730 C726 1.427 . S
N730 C727 1.384 . S
N731 C723 1.427 . S
N731 C729 1.384 . S
H732 C738 0.930 . S
H733 C742 0.930 . S
H734 C747 0.929 . S
H735 C745 0.929 . S
H736 C740 0.929 . S
H737 C746 0.929 . S
C738 H732 0.930 . S
C738 C739 1.367 . S
C738 C746 1.378 . S
C739 C738 1.367 . S
C739 C747 1.433 . S
C740 H736 0.929 . S
C740 C742 1.378 . S
C740 C744 1.350 . S
C741 C744 1.463 . S
C741 C746 1.350 . S
C741 N749 1.427 . S
C742 H733 0.930 . S
C742 C740 1.378 . S
C742 C743 1.367 . S
C743 C742 1.367 . S
C743 C745 1.433 . S
C744 C740 1.350 . S
C744 C741 1.463 . S
C744 N748 1.427 . S
C745 H735 0.929 . S
C745 C743 1.433 . S
C745 N748 1.384 . S
C746 H737 0.929 . S
C746 C738 1.378 . S
C746 C741 1.350 . S
C747 H734 0.929 . S
C747 C739 1.433 . S
C747 N749 1.384 . S
N748 C744 1.427 . S
N748 C745 1.384 . S
N749 C741 1.427 . S
N749 C747 1.384 . S
H750 C756 0.930 . S
H751 C760 0.930 . S
H752 C765 0.929 . S
H753 C763 0.929 . S
H754 C758 0.929 . S
H755 C764 0.929 . S
C756 H750 0.930 . S
C756 C757 1.367 . S
C756 C764 1.378 . S
C757 C756 1.367 . S
C757 C765 1.433 . S
C758 H754 0.929 . S
C758 C760 1.378 . S
C758 C762 1.350 . S
C759 C762 1.463 . S
C759 C764 1.350 . S
C759 N767 1.427 . S
C760 H751 0.930 . S
C760 C758 1.378 . S
C760 C761 1.367 . S
C761 C760 1.367 . S
C761 C763 1.433 . S
C762 C758 1.350 . S
C762 C759 1.463 . S
C762 N766 1.427 . S
C763 H753 0.929 . S
C763 C761 1.433 . S
C763 N766 1.384 . S
C764 H755 0.929 . S
C764 C756 1.378 . S
C764 C759 1.350 . S
C765 H752 0.929 . S
C765 C757 1.433 . S
C765 N767 1.384 . S
N766 C762 1.427 . S
N766 C763 1.384 . S
N767 C759 1.427 . S
N767 C765 1.384 . S
H768 C774 0.930 . S
H769 C778 0.930 . S
H770 C783 0.929 . S
H771 C781 0.929 . S
H772 C776 0.929 . S
H773 C782 0.929 . S
C774 H768 0.930 . S
C774 C775 1.367 . S
C774 C782 1.378 . S
C775 C774 1.367 . S
C775 C783 1.433 . S
C776 H772 0.929 . S
C776 C778 1.378 . S
C776 C780 1.350 . S
C777 C780 1.463 . S
C777 C782 1.350 . S
C777 N785 1.427 . S
C778 H769 0.930 . S
C778 C776 1.378 . S
C778 C779 1.367 . S
C779 C778 1.367 . S
C779 C781 1.433 . S
C780 C776 1.350 . S
C780 C777 1.463 . S
C780 N784 1.427 . S
C781 H771 0.929 . S
C781 C779 1.433 . S
C781 N784 1.384 . S
C782 H773 0.929 . S
C782 C774 1.378 . S
C782 C777 1.350 . S
C783 H770 0.929 . S
C783 C775 1.433 . S
C783 N785 1.384 . S
N784 C780 1.427 . S
N784 C781 1.384 . S
N785 C777 1.427 . S
N785 C783 1.384 . S
H786 C792 0.930 . S
H787 C796 0.930 . S
H788 C801 0.929 . S
H789 C799 0.929 . S
H790 C794 0.929 . S
H791 C800 0.929 . S
C792 H786 0.930 . S
C792 C793 1.367 1_565 S
C792 C800 1.378 . S
C793 C792 1.367 1_545 S
C793 C801 1.433 . S
C794 H790 0.929 . S
C794 C796 1.378 . S
C794 C798 1.350 . S
C795 C798 1.463 . S
C795 C800 1.350 . S
C795 N803 1.427 1_565 S
C796 H787 0.930 . S
C796 C794 1.378 . S
C796 C797 1.367 . S
C797 C796 1.367 . S
C797 C799 1.433 . S
C798 C794 1.350 . S
C798 C795 1.463 . S
C798 N802 1.427 . S
C799 H789 0.929 . S
C799 C797 1.433 . S
C799 N802 1.384 . S
C800 H791 0.929 . S
C800 C792 1.378 . S
C800 C795 1.350 . S
C801 H788 0.929 . S
C801 C793 1.433 . S
C801 N803 1.384 . S
N802 C798 1.427 . S
N802 C799 1.384 . S
N803 C795 1.427 1_545 S
N803 C801 1.384 . S
H804 C810 0.930 . S
H805 C814 0.930 . S
H806 C819 0.929 . S
H807 C817 0.929 . S
H808 C812 0.929 . S
H809 C818 0.929 . S
C810 H804 0.930 . S
C810 C811 1.367 . S
C810 C818 1.378 . S
C811 C810 1.367 . S
C811 C819 1.433 . S
C812 H808 0.929 . S
C812 C814 1.378 . S
C812 C816 1.350 . S
C813 C816 1.463 1_554 S
C813 C818 1.350 . S
C813 N821 1.427 . S
C814 H805 0.930 . S
C814 C812 1.378 . S
C814 C815 1.367 . S
C815 C814 1.367 . S
C815 C817 1.433 . S
C816 C812 1.350 . S
C816 C813 1.463 1_556 S
C816 N820 1.427 . S
C817 H807 0.929 . S
C817 C815 1.433 . S
C817 N820 1.384 . S
C818 H809 0.929 . S
C818 C810 1.378 . S
C818 C813 1.350 . S
C819 H806 0.929 . S
C819 C811 1.433 . S
C819 N821 1.384 . S
N820 C816 1.427 . S
N820 C817 1.384 . S
N821 C813 1.427 . S
N821 C819 1.384 . S
H822 C828 0.930 . S
H823 C832 0.930 1_565 S
H824 C837 0.929 . S
H825 C835 0.929 . S
H826 C830 0.929 . S
H827 C836 0.929 . S
C828 H822 0.930 . S
C828 C829 1.367 . S
C828 C836 1.378 . S
C829 C828 1.367 . S
C829 C837 1.433 . S
C830 H826 0.929 . S
C830 C832 1.378 . S
C830 C834 1.350 . S
C831 C834 1.463 . S
C831 C836 1.350 . S
C831 N839 1.427 . S
C832 H823 0.930 1_545 S
C832 C830 1.378 . S
C832 C833 1.367 1_545 S
C833 C832 1.367 1_565 S
C833 C835 1.433 . S
C834 C830 1.350 . S
C834 C831 1.463 . S
C834 N838 1.427 . S
C835 H825 0.929 . S
C835 C833 1.433 . S
C835 N838 1.384 1_565 S
C836 H827 0.929 . S
C836 C828 1.378 . S
C836 C831 1.350 . S
C837 H824 0.929 . S
C837 C829 1.433 . S
C837 N839 1.384 . S
N838 C834 1.427 . S
N838 C835 1.384 1_545 S
N839 C831 1.427 . S
N839 C837 1.384 . S
H840 C846 0.930 . S
H841 C850 0.930 . S
H842 C855 0.929 . S
H843 C853 0.929 . S
H844 C848 0.929 . S
H845 C854 0.929 . S
C846 H840 0.930 . S
C846 C847 1.367 . S
C846 C854 1.378 . S
C847 C846 1.367 . S
C847 C855 1.433 . S
C848 H844 0.929 . S
C848 C850 1.378 . S
C848 C852 1.350 . S
C849 C852 1.463 . S
C849 C854 1.350 . S
C849 N857 1.427 . S
C850 H841 0.930 . S
C850 C848 1.378 . S
C850 C851 1.367 . S
C851 C850 1.367 . S
C851 C853 1.433 . S
C852 C848 1.350 . S
C852 C849 1.463 . S
C852 N856 1.427 . S
C853 H843 0.929 . S
C853 C851 1.433 . S
C853 N856 1.384 . S
C854 H845 0.929 . S
C854 C846 1.378 . S
C854 C849 1.350 . S
C855 H842 0.929 . S
C855 C847 1.433 . S
C855 N857 1.384 . S
N856 C852 1.427 . S
N856 C853 1.384 . S
N857 C849 1.427 . S
N857 C855 1.384 . S
H858 C864 0.930 . S
H859 C868 0.930 . S
H860 C873 0.929 . S
H861 C871 0.929 . S
H862 C866 0.929 . S
H863 C872 0.924 1_565 S
C864 H858 0.930 . S
C864 C865 1.367 . S
C864 C872 1.378 1_565 S
C865 C864 1.367 . S
C865 C873 1.433 1_565 S
C866 H862 0.929 . S
C866 C868 1.378 . S
C866 C870 1.350 . S
C867 C870 1.463 . S
C867 C872 1.350 . S
C867 N875 1.427 . S
C868 H859 0.930 . S
C868 C866 1.378 . S
C868 C869 1.367 . S
C869 C868 1.367 . S
C869 C871 1.433 . S
C870 C866 1.350 . S
C870 C867 1.463 . S
C870 N874 1.427 . S
C871 H861 0.929 . S
C871 C869 1.433 . S
C871 N874 1.384 . S
C872 H863 0.924 1_545 S
C872 C864 1.378 1_545 S
C872 C867 1.350 . S
C873 H860 0.929 . S
C873 C865 1.433 1_545 S
C873 N875 1.384 . S
N874 C870 1.427 . S
N874 C871 1.384 . S
N875 C867 1.427 . S
N875 C873 1.384 . S
H876 C882 0.930 . S
H877 C886 0.930 . S
H878 C891 0.929 . S
H879 C889 0.929 . S
H880 C884 0.929 . S
H881 C890 0.929 . S
C882 H876 0.930 . S
C882 C883 1.367 . S
C882 C890 1.378 . S
C883 C882 1.367 . S
C883 C891 1.433 . S
C884 H880 0.929 . S
C884 C886 1.378 . S
C884 C888 1.350 . S
C885 C888 1.463 1_554 S
C885 C890 1.350 . S
C885 N893 1.427 . S
C886 H877 0.930 . S
C886 C884 1.378 . S
C886 C887 1.367 . S
C887 C886 1.367 . S
C887 C889 1.433 . S
C888 C884 1.350 . S
C888 C885 1.463 1_556 S
C888 N892 1.427 . S
C889 H879 0.929 . S
C889 C887 1.433 . S
C889 N892 1.384 . S
C890 H881 0.929 . S
C890 C882 1.378 . S
C890 C885 1.350 . S
C891 H878 0.929 . S
C891 C883 1.433 . S
C891 N893 1.384 . S
N892 C888 1.427 . S
N892 C889 1.384 . S
N893 C885 1.427 . S
N893 C891 1.384 . S
H894 C900 0.930 . S
H895 C904 0.930 . S
H896 C909 0.929 . S
H897 C907 0.929 . S
H898 C902 0.929 . S
H899 C908 0.929 . S
C900 H894 0.930 . S
C900 C901 1.367 1_565 S
C900 C908 1.378 . S
C901 C900 1.367 1_545 S
C901 C909 1.433 . S
C902 H898 0.929 . S
C902 C904 1.378 . S
C902 C906 1.350 . S
C903 C906 1.463 . S
C903 C908 1.350 . S
C903 N911 1.427 1_565 S
C904 H895 0.930 . S
C904 C902 1.378 . S
C904 C905 1.367 . S
C905 C904 1.367 . S
C905 C907 1.433 . S
C906 C902 1.350 . S
C906 C903 1.463 . S
C906 N910 1.427 . S
C907 H897 0.929 . S
C907 C905 1.433 . S
C907 N910 1.384 . S
C908 H899 0.929 . S
C908 C900 1.378 . S
C908 C903 1.350 . S
C909 H896 0.929 . S
C909 C901 1.433 . S
C909 N911 1.384 . S
N910 C906 1.427 . S
N910 C907 1.384 . S
N911 C903 1.427 1_545 S
N911 C909 1.384 . S
H912 C918 0.930 . S
H913 C922 0.930 . S
H914 C927 0.929 . S
H915 C925 0.929 . S
H916 C920 0.929 . S
H917 C926 0.929 . S
C918 H912 0.930 . S
C918 C919 1.367 . S
C918 C926 1.378 . S
C919 C918 1.367 . S
C919 C927 1.433 . S
C920 H916 0.929 . S
C920 C922 1.378 . S
C920 C924 1.350 . S
C921 C924 1.463 . S
C921 C926 1.350 . S
C921 N929 1.427 . S
C922 H913 0.930 . S
C922 C920 1.378 . S
C922 C923 1.367 . S
C923 C922 1.367 . S
C923 C925 1.433 . S
C924 C920 1.350 . S
C924 C921 1.463 . S
C924 N928 1.427 . S
C925 H915 0.929 . S
C925 C923 1.433 . S
C925 N928 1.384 . S
C926 H917 0.929 . S
C926 C918 1.378 . S
C926 C921 1.350 . S
C927 H914 0.929 . S
C927 C919 1.433 . S
C927 N929 1.384 . S
N928 C924 1.427 . S
N928 C925 1.384 . S
N929 C921 1.427 . S
N929 C927 1.384 . S
H930 C936 0.930 . S
H931 C940 0.930 . S
H932 C945 0.929 . S
H933 C943 0.929 . S
H934 C938 0.929 . S
H935 C944 0.929 . S
C936 H930 0.930 . S
C936 C937 1.367 . S
C936 C944 1.378 . S
C937 C936 1.367 . S
C937 C945 1.433 . S
C938 H934 0.929 . S
C938 C940 1.378 . S
C938 C942 1.350 . S
C939 C942 1.463 . S
C939 C944 1.350 . S
C939 N947 1.427 . S
C940 H931 0.930 . S
C940 C938 1.378 . S
C940 C941 1.367 . S
C941 C940 1.367 . S
C941 C943 1.433 . S
C942 C938 1.350 . S
C942 C939 1.463 . S
C942 N946 1.427 . S
C943 H933 0.929 . S
C943 C941 1.433 . S
C943 N946 1.384 . S
C944 H935 0.929 . S
C944 C936 1.378 . S
C944 C939 1.350 . S
C945 H932 0.929 . S
C945 C937 1.433 . S
C945 N947 1.384 . S
N946 C942 1.427 . S
N946 C943 1.384 . S
N947 C939 1.427 . S
N947 C945 1.384 . S
H948 C954 0.930 . S
H949 C958 0.930 . S
H950 C963 0.929 . S
H951 C961 0.929 . S
H952 C956 0.929 . S
H953 C962 0.929 . S
C954 H948 0.930 . S
C954 C955 1.367 . S
C954 C962 1.378 . S
C955 C954 1.367 . S
C955 C963 1.433 . S
C956 H952 0.929 . S
C956 C958 1.378 . S
C956 C960 1.350 . S
C957 C960 1.463 1_655 S
C957 C962 1.350 . S
C957 N965 1.427 . S
C958 H949 0.930 . S
C958 C956 1.378 . S
C958 C959 1.367 . S
C959 C958 1.367 . S
C959 C961 1.433 . S
C960 C956 1.350 . S
C960 C957 1.463 1_455 S
C960 N964 1.427 . S
C961 H951 0.929 . S
C961 C959 1.433 . S
C961 N964 1.384 . S
C962 H953 0.929 . S
C962 C954 1.378 . S
C962 C957 1.350 . S
C963 H950 0.929 . S
C963 C955 1.433 . S
C963 N965 1.384 . S
N964 C960 1.427 . S
N964 C961 1.384 . S
N965 C957 1.427 . S
N965 C963 1.384 . S
H966 C972 0.930 1_455 S
H967 C976 0.930 1_655 S
H968 C981 0.929 . S
H969 C979 0.929 . S
H970 C974 0.929 . S
H971 C980 0.929 . S
C972 H966 0.930 1_655 S
C972 C973 1.367 . S
C972 C980 1.378 1_655 S
C973 C972 1.367 . S
C973 C981 1.433 . S
C974 H970 0.929 . S
C974 C976 1.378 1_655 S
C974 C978 1.350 1_655 S
C975 C978 1.463 1_655 S
C975 C980 1.350 1_655 S
C975 N983 1.427 . S
C976 H967 0.930 1_455 S
C976 C974 1.378 1_455 S
C976 C977 1.367 . S
C977 C976 1.367 . S
C977 C979 1.433 . S
C978 C974 1.350 1_455 S
C978 C975 1.463 1_455 S
C978 N982 1.427 . S
C979 H969 0.929 . S
C979 C977 1.433 . S
C979 N982 1.384 . S
C980 H971 0.929 . S
C980 C972 1.378 1_455 S
C980 C975 1.350 1_455 S
C981 H968 0.929 . S
C981 C973 1.433 . S
C981 N983 1.384 . S
N982 C978 1.427 . S
N982 C979 1.384 . S
N983 C975 1.427 . S
N983 C981 1.384 . S
H984 C990 0.930 . S
H985 C994 0.930 . S
H986 C999 0.929 . S
H987 C997 0.929 . S
H988 C992 0.929 . S
H989 C998 0.929 . S
C990 H984 0.930 . S
C990 C991 1.367 . S
C990 C998 1.378 . S
C991 C990 1.367 . S
C991 C999 1.433 . S
C992 H988 0.929 . S
C992 C994 1.378 . S
C992 C996 1.350 . S
C993 C996 1.463 . S
C993 C998 1.350 . S
C993 N1001 1.427 . S
C994 H985 0.930 . S
C994 C992 1.378 . S
C994 C995 1.367 . S
C995 C994 1.367 . S
C995 C997 1.433 . S
C996 C992 1.350 . S
C996 C993 1.463 . S
C996 N1000 1.427 . S
C997 H987 0.929 . S
C997 C995 1.433 . S
C997 N1000 1.384 . S
C998 H989 0.929 . S
C998 C990 1.378 . S
C998 C993 1.350 . S
C999 H986 0.929 . S
C999 C991 1.433 . S
C999 N1001 1.384 . S
N1000 C996 1.427 . S
N1000 C997 1.384 . S
N1001 C993 1.427 . S
N1001 C999 1.384 . S
H1002 C1008 0.930 . S
H1003 C1012 0.930 . S
H1004 C1017 0.929 . S
H1005 C1015 0.929 . S
H1006 C1010 0.929 . S
H1007 C1016 0.929 . S
C1008 H1002 0.930 . S
C1008 C1009 1.367 . S
C1008 C1016 1.378 . S
C1009 C1008 1.367 . S
C1009 C1017 1.433 . S
C1010 H1006 0.929 . S
C1010 C1012 1.378 . S
C1010 C1014 1.350 . S
C1011 C1014 1.463 . S
C1011 C1016 1.350 . S
C1011 N1019 1.427 . S
C1012 H1003 0.930 . S
C1012 C1010 1.378 . S
C1012 C1013 1.367 . S
C1013 C1012 1.367 . S
C1013 C1015 1.433 . S
C1014 C1010 1.350 . S
C1014 C1011 1.463 . S
C1014 N1018 1.427 . S
C1015 H1005 0.929 . S
C1015 C1013 1.433 . S
C1015 N1018 1.384 . S
C1016 H1007 0.929 . S
C1016 C1008 1.378 . S
C1016 C1011 1.350 . S
C1017 H1004 0.929 . S
C1017 C1009 1.433 . S
C1017 N1019 1.384 . S
N1018 C1014 1.427 . S
N1018 C1015 1.384 . S
N1019 C1011 1.427 . S
N1019 C1017 1.384 . S
H1020 C1026 0.930 . S
H1021 C1030 0.930 . S
H1022 C1035 0.929 . S
H1023 C1033 0.929 . S
H1024 C1028 0.929 . S
H1025 C1034 0.929 . S
C1026 H1020 0.930 . S
C1026 C1027 1.367 . S
C1026 C1034 1.378 . S
C1027 C1026 1.367 . S
C1027 C1035 1.433 . S
C1028 H1024 0.929 . S
C1028 C1030 1.378 . S
C1028 C1032 1.350 . S
C1029 C1032 1.463 1_455 S
C1029 C1034 1.350 . S
C1029 N1037 1.427 . S
C1030 H1021 0.930 . S
C1030 C1028 1.378 . S
C1030 C1031 1.367 . S
C1031 C1030 1.367 . S
C1031 C1033 1.433 . S
C1032 C1028 1.350 . S
C1032 C1029 1.463 1_655 S
C1032 N1036 1.427 . S
C1033 H1023 0.929 . S
C1033 C1031 1.433 . S
C1033 N1036 1.384 . S
C1034 H1025 0.929 . S
C1034 C1026 1.378 . S
C1034 C1029 1.350 . S
C1035 H1022 0.929 . S
C1035 C1027 1.433 . S
C1035 N1037 1.384 . S
N1036 C1032 1.427 . S
N1036 C1033 1.384 . S
N1037 C1029 1.427 . S
N1037 C1035 1.384 . S
H1038 C1044 0.930 1_655 S
H1039 C1048 0.930 1_455 S
H1040 C1053 0.929 . S
H1041 C1051 0.929 . S
H1042 C1046 0.929 . S
H1043 C1052 0.929 . S
C1044 H1038 0.930 1_455 S
C1044 C1045 1.367 . S
C1044 C1052 1.378 1_455 S
C1045 C1044 1.367 . S
C1045 C1053 1.433 . S
C1046 H1042 0.929 . S
C1046 C1048 1.378 1_455 S
C1046 C1050 1.350 1_455 S
C1047 C1050 1.463 1_455 S
C1047 C1052 1.350 1_455 S
C1047 N1055 1.427 . S
C1048 H1039 0.930 1_655 S
C1048 C1046 1.378 1_655 S
C1048 C1049 1.367 . S
C1049 C1048 1.367 . S
C1049 C1051 1.433 . S
C1050 C1046 1.350 1_655 S
C1050 C1047 1.463 1_655 S
C1050 N1054 1.427 . S
C1051 H1041 0.929 . S
C1051 C1049 1.433 . S
C1051 N1054 1.384 . S
C1052 H1043 0.929 . S
C1052 C1044 1.378 1_655 S
C1052 C1047 1.350 1_655 S
C1053 H1040 0.929 . S
C1053 C1045 1.433 . S
C1053 N1055 1.384 . S
N1054 C1050 1.427 . S
N1054 C1051 1.384 . S
N1055 C1047 1.427 . S
N1055 C1053 1.384 . S
H1056 C1062 0.930 . S
H1057 C1066 0.930 . S
H1058 C1071 0.929 . S
H1059 C1069 0.929 . S
H1060 C1064 0.929 . S
H1061 C1070 0.929 . S
C1062 H1056 0.930 . S
C1062 C1063 1.367 . S
C1062 C1070 1.378 . S
C1063 C1062 1.367 . S
C1063 C1071 1.433 . S
C1064 H1060 0.929 . S
C1064 C1066 1.378 . S
C1064 C1068 1.350 . S
C1065 C1068 1.463 . S
C1065 C1070 1.350 . S
C1065 N1073 1.427 . S
C1066 H1057 0.930 . S
C1066 C1064 1.378 . S
C1066 C1067 1.367 . S
C1067 C1066 1.367 . S
C1067 C1069 1.433 . S
C1068 C1064 1.350 . S
C1068 C1065 1.463 . S
C1068 N1072 1.427 . S
C1069 H1059 0.929 . S
C1069 C1067 1.433 . S
C1069 N1072 1.384 . S
C1070 H1061 0.929 . S
C1070 C1062 1.378 . S
C1070 C1065 1.350 . S
C1071 H1058 0.929 . S
C1071 C1063 1.433 . S
C1071 N1073 1.384 . S
N1072 C1068 1.427 . S
N1072 C1069 1.384 . S
N1073 C1065 1.427 . S
N1073 C1071 1.384 . S
H1074 C1080 0.930 . S
H1075 C1084 0.930 . S
H1076 C1089 0.929 . S
H1077 C1087 0.929 . S
H1078 C1082 0.929 . S
H1079 C1088 0.929 . S
C1080 H1074 0.930 . S
C1080 C1081 1.367 . S
C1080 C1088 1.378 . S
C1081 C1080 1.367 . S
C1081 C1089 1.433 . S
C1082 H1078 0.929 . S
C1082 C1084 1.378 . S
C1082 C1086 1.350 . S
C1083 C1086 1.463 . S
C1083 C1088 1.350 . S
C1083 N1091 1.427 . S
C1084 H1075 0.930 . S
C1084 C1082 1.378 . S
C1084 C1085 1.367 . S
C1085 C1084 1.367 . S
C1085 C1087 1.433 . S
C1086 C1082 1.350 . S
C1086 C1083 1.463 . S
C1086 N1090 1.427 . S
C1087 H1077 0.929 . S
C1087 C1085 1.433 . S
C1087 N1090 1.384 . S
C1088 H1079 0.929 . S
C1088 C1080 1.378 . S
C1088 C1083 1.350 . S
C1089 H1076 0.929 . S
C1089 C1081 1.433 . S
C1089 N1091 1.384 . S
N1090 C1086 1.427 . S
N1090 C1087 1.384 . S
N1091 C1083 1.427 . S
N1091 C1089 1.384 . S
H1092 C1098 0.930 . S
H1093 C1102 0.930 . S
H1094 C1107 0.929 . S
H1095 C1105 0.929 . S
H1096 C1100 0.929 . S
H1097 C1106 0.929 . S
C1098 H1092 0.930 . S
C1098 C1099 1.367 . S
C1098 C1106 1.378 . S
C1099 C1098 1.367 . S
C1099 C1107 1.433 . S
C1100 H1096 0.929 . S
C1100 C1102 1.378 . S
C1100 C1104 1.350 . S
C1101 C1104 1.463 . S
C1101 C1106 1.350 . S
C1101 N1109 1.427 . S
C1102 H1093 0.930 . S
C1102 C1100 1.378 . S
C1102 C1103 1.367 . S
C1103 C1102 1.367 . S
C1103 C1105 1.433 . S
C1104 C1100 1.350 . S
C1104 C1101 1.463 . S
C1104 N1108 1.427 . S
C1105 H1095 0.929 . S
C1105 C1103 1.433 . S
C1105 N1108 1.384 . S
C1106 H1097 0.929 . S
C1106 C1098 1.378 . S
C1106 C1101 1.350 . S
C1107 H1094 0.929 . S
C1107 C1099 1.433 . S
C1107 N1109 1.384 . S
N1108 C1104 1.427 . S
N1108 C1105 1.384 . S
N1109 C1101 1.427 . S
N1109 C1107 1.384 . S
H1110 C1116 0.930 . S
H1111 C1120 0.930 . S
H1112 C1125 0.929 . S
H1113 C1123 0.929 . S
H1114 C1118 0.929 . S
H1115 C1124 0.929 . S
C1116 H1110 0.930 . S
C1116 C1117 1.367 . S
C1116 C1124 1.378 1_655 S
C1117 C1116 1.367 . S
C1117 C1125 1.433 . S
C1118 H1114 0.929 . S
C1118 C1120 1.378 . S
C1118 C1122 1.350 . S
C1119 C1122 1.463 . S
C1119 C1124 1.350 . S
C1119 N1127 1.427 . S
C1120 H1111 0.930 . S
C1120 C1118 1.378 . S
C1120 C1121 1.367 . S
C1121 C1120 1.367 . S
C1121 C1123 1.433 . S
C1122 C1118 1.350 . S
C1122 C1119 1.463 . S
C1122 N1126 1.427 . S
C1123 H1113 0.929 . S
C1123 C1121 1.433 . S
C1123 N1126 1.384 . S
C1124 H1115 0.929 . S
C1124 C1116 1.378 1_455 S
C1124 C1119 1.350 . S
C1125 H1112 0.929 . S
C1125 C1117 1.433 . S
C1125 N1127 1.384 1_655 S
N1126 C1122 1.427 . S
N1126 C1123 1.384 . S
N1127 C1119 1.427 . S
N1127 C1125 1.384 1_455 S
H1128 C1134 0.930 . S
H1129 C1138 0.930 . S
H1130 C1143 0.929 . S
H1131 C1141 0.929 . S
H1132 C1136 0.929 . S
H1133 C1142 0.929 . S
C1134 H1128 0.930 . S
C1134 C1135 1.367 . S
C1134 C1142 1.378 . S
C1135 C1134 1.367 . S
C1135 C1143 1.433 . S
C1136 H1132 0.929 . S
C1136 C1138 1.378 . S
C1136 C1140 1.350 . S
C1137 C1140 1.463 . S
C1137 C1142 1.350 . S
C1137 N1145 1.427 . S
C1138 H1129 0.930 . S
C1138 C1136 1.378 . S
C1138 C1139 1.367 . S
C1139 C1138 1.367 . S
C1139 C1141 1.433 . S
C1140 C1136 1.350 . S
C1140 C1137 1.463 . S
C1140 N1144 1.427 . S
C1141 H1131 0.929 . S
C1141 C1139 1.433 . S
C1141 N1144 1.384 . S
C1142 H1133 0.929 . S
C1142 C1134 1.378 . S
C1142 C1137 1.350 . S
C1143 H1130 0.929 . S
C1143 C1135 1.433 . S
C1143 N1145 1.384 . S
N1144 C1140 1.427 . S
N1144 C1141 1.384 . S
N1145 C1137 1.427 . S
N1145 C1143 1.384 . S
H1146 C1152 0.930 . S
H1147 C1156 0.930 . S
H1148 C1161 0.929 . S
H1149 C1159 0.929 . S
H1150 C1154 0.929 . S
H1151 C1160 0.929 . S
C1152 H1146 0.930 . S
C1152 C1153 1.367 . S
C1152 C1160 1.378 . S
C1153 C1152 1.367 . S
C1153 C1161 1.433 . S
C1154 H1150 0.929 . S
C1154 C1156 1.378 . S
C1154 C1158 1.350 . S
C1155 C1158 1.463 . S
C1155 C1160 1.350 . S
C1155 N1163 1.427 . S
C1156 H1147 0.930 . S
C1156 C1154 1.378 . S
C1156 C1157 1.367 . S
C1157 C1156 1.367 . S
C1157 C1159 1.433 . S
C1158 C1154 1.350 . S
C1158 C1155 1.463 . S
C1158 N1162 1.427 . S
C1159 H1149 0.929 . S
C1159 C1157 1.433 . S
C1159 N1162 1.384 . S
C1160 H1151 0.929 . S
C1160 C1152 1.378 . S
C1160 C1155 1.350 . S
C1161 H1148 0.929 . S
C1161 C1153 1.433 . S
C1161 N1163 1.384 . S
N1162 C1158 1.427 . S
N1162 C1159 1.384 . S
N1163 C1155 1.427 . S
N1163 C1161 1.384 . S
H1164 C1170 0.930 . S
H1165 C1174 0.930 . S
H1166 C1179 0.929 . S
H1167 C1177 0.929 . S
H1168 C1172 0.929 . S
H1169 C1178 0.929 . S
C1170 H1164 0.930 . S
C1170 C1171 1.367 . S
C1170 C1178 1.378 . S
C1171 C1170 1.367 . S
C1171 C1179 1.433 . S
C1172 H1168 0.929 . S
C1172 C1174 1.378 . S
C1172 C1176 1.350 . S
C1173 C1176 1.463 . S
C1173 C1178 1.350 . S
C1173 N1181 1.427 . S
C1174 H1165 0.930 . S
C1174 C1172 1.378 . S
C1174 C1175 1.367 . S
C1175 C1174 1.367 . S
C1175 C1177 1.433 . S
C1176 C1172 1.350 . S
C1176 C1173 1.463 . S
C1176 N1180 1.427 . S
C1177 H1167 0.929 . S
C1177 C1175 1.433 . S
C1177 N1180 1.384 . S
C1178 H1169 0.929 . S
C1178 C1170 1.378 . S
C1178 C1173 1.350 . S
C1179 H1166 0.929 . S
C1179 C1171 1.433 . S
C1179 N1181 1.384 . S
N1180 C1176 1.427 . S
N1180 C1177 1.384 . S
N1181 C1173 1.427 . S
N1181 C1179 1.384 . S
H1182 C1188 0.930 . S
H1183 C1192 0.930 . S
H1184 C1197 0.929 . S
H1185 C1195 0.929 . S
H1186 C1190 0.929 . S
H1187 C1196 0.929 . S
C1188 H1182 0.930 . S
C1188 C1189 1.367 . S
C1188 C1196 1.378 . S
C1189 C1188 1.367 . S
C1189 C1197 1.433 . S
C1190 H1186 0.929 . S
C1190 C1192 1.378 1_655 S
C1190 C1194 1.350 . S
C1191 C1194 1.463 . S
C1191 C1196 1.350 . S
C1191 N1199 1.427 . S
C1192 H1183 0.930 . S
C1192 C1190 1.378 1_455 S
C1192 C1193 1.367 . S
C1193 C1192 1.367 . S
C1193 C1195 1.433 . S
C1194 C1190 1.350 . S
C1194 C1191 1.463 . S
C1194 N1198 1.427 . S
C1195 H1185 0.929 . S
C1195 C1193 1.433 . S
C1195 N1198 1.384 1_455 S
C1196 H1187 0.929 . S
C1196 C1188 1.378 . S
C1196 C1191 1.350 . S
C1197 H1184 0.929 . S
C1197 C1189 1.433 . S
C1197 N1199 1.384 . S
N1198 C1194 1.427 . S
N1198 C1195 1.384 1_655 S
N1199 C1191 1.427 . S
N1199 C1197 1.384 . S
H1200 C1206 0.930 . S
H1201 C1210 0.930 . S
H1202 C1215 0.929 . S
H1203 C1213 0.929 . S
H1204 C1208 0.929 . S
H1205 C1214 0.929 . S
C1206 H1200 0.930 . S
C1206 C1207 1.367 . S
C1206 C1214 1.378 . S
C1207 C1206 1.367 . S
C1207 C1215 1.433 . S
C1208 H1204 0.929 . S
C1208 C1210 1.378 . S
C1208 C1212 1.350 . S
C1209 C1212 1.463 . S
C1209 C1214 1.350 . S
C1209 N1217 1.427 . S
C1210 H1201 0.930 . S
C1210 C1208 1.378 . S
C1210 C1211 1.367 . S
C1211 C1210 1.367 . S
C1211 C1213 1.433 . S
C1212 C1208 1.350 . S
C1212 C1209 1.463 . S
C1212 N1216 1.427 . S
C1213 H1203 0.929 . S
C1213 C1211 1.433 . S
C1213 N1216 1.384 . S
C1214 H1205 0.929 . S
C1214 C1206 1.378 . S
C1214 C1209 1.350 . S
C1215 H1202 0.929 . S
C1215 C1207 1.433 . S
C1215 N1217 1.384 . S
N1216 C1212 1.427 . S
N1216 C1213 1.384 . S
N1217 C1209 1.427 . S
N1217 C1215 1.384 . S
H1218 C1224 0.930 . S
H1219 C1228 0.951 . S
H1220 C1233 0.929 . S
H1221 C1231 0.929 . S
H1222 C1226 0.929 . S
H1223 C1232 0.929 . S
C1224 H1218 0.930 . S
C1224 C1225 1.367 . S
C1224 C1232 1.378 . S
C1225 C1224 1.367 . S
C1225 C1233 1.433 . S
C1226 H1222 0.929 . S
C1226 C1228 1.369 1_665 S
C1226 C1230 1.350 . S
C1227 C1230 1.463 . S
C1227 C1232 1.350 . S
C1227 N1235 1.427 . S
C1228 H1219 0.951 . S
C1228 C1226 1.369 1_445 S
C1228 C1229 1.356 1_545 S
C1229 C1228 1.356 1_565 S
C1229 C1231 1.433 . S
C1230 C1226 1.350 . S
C1230 C1227 1.463 . S
C1230 N1234 1.427 . S
C1231 H1221 0.929 . S
C1231 C1229 1.433 . S
C1231 N1234 1.384 1_455 S
C1232 H1223 0.929 . S
C1232 C1224 1.378 . S
C1232 C1227 1.350 . S
C1233 H1220 0.929 . S
C1233 C1225 1.433 . S
C1233 N1235 1.384 . S
N1234 C1230 1.427 . S
N1234 C1231 1.384 1_655 S
N1235 C1227 1.427 . S
N1235 C1233 1.384 . S
H1236 C1242 0.930 . S
H1237 C1246 0.930 . S
H1238 C1251 0.929 . S
H1239 C1249 0.929 . S
H1240 C1244 0.929 . S
H1241 C1250 0.929 . S
C1242 H1236 0.930 . S
C1242 C1243 1.367 . S
C1242 C1250 1.378 . S
C1243 C1242 1.367 . S
C1243 C1251 1.433 . S
C1244 H1240 0.929 . S
C1244 C1246 1.378 . S
C1244 C1248 1.350 . S
C1245 C1248 1.463 . S
C1245 C1250 1.350 . S
C1245 N1253 1.427 . S
C1246 H1237 0.930 . S
C1246 C1244 1.378 . S
C1246 C1247 1.367 . S
C1247 C1246 1.367 . S
C1247 C1249 1.433 . S
C1248 C1244 1.350 . S
C1248 C1245 1.463 . S
C1248 N1252 1.427 . S
C1249 H1239 0.929 . S
C1249 C1247 1.433 . S
C1249 N1252 1.384 . S
C1250 H1241 0.929 . S
C1250 C1242 1.378 . S
C1250 C1245 1.350 . S
C1251 H1238 0.929 . S
C1251 C1243 1.433 . S
C1251 N1253 1.384 . S
N1252 C1248 1.427 . S
N1252 C1249 1.384 . S
N1253 C1245 1.427 . S
N1253 C1251 1.384 . S
H1254 C1260 0.930 . S
H1255 C1264 0.930 . S
H1256 C1269 0.929 1_565 S
H1257 C1267 0.929 . S
H1258 C1262 0.929 . S
H1259 C1268 0.929 . S
C1260 H1254 0.930 . S
C1260 C1261 1.367 . S
C1260 C1268 1.378 . S
C1261 C1260 1.367 . S
C1261 C1269 1.433 . S
C1262 H1258 0.929 . S
C1262 C1264 1.378 . S
C1262 C1266 1.350 . S
C1263 C1266 1.463 . S
C1263 C1268 1.350 . S
C1263 N1271 1.427 . S
C1264 H1255 0.930 . S
C1264 C1262 1.378 . S
C1264 C1265 1.367 . S
C1265 C1264 1.367 . S
C1265 C1267 1.433 . S
C1266 C1262 1.350 . S
C1266 C1263 1.463 . S
C1266 N1270 1.427 . S
C1267 H1257 0.929 . S
C1267 C1265 1.433 . S
C1267 N1270 1.384 . S
C1268 H1259 0.929 . S
C1268 C1260 1.378 . S
C1268 C1263 1.350 . S
C1269 H1256 0.929 1_545 S
C1269 C1261 1.433 . S
C1269 N1271 1.384 . S
N1270 C1266 1.427 . S
N1270 C1267 1.384 . S
N1271 C1263 1.427 . S
N1271 C1269 1.384 . S
H1272 C1278 0.930 . S
H1273 C1282 0.930 . S
H1274 C1287 0.929 . S
H1275 C1285 0.929 . S
H1276 C1280 0.929 . S
H1277 C1286 0.929 . S
C1278 H1272 0.930 . S
C1278 C1279 1.367 . S
C1278 C1286 1.378 . S
C1279 C1278 1.367 . S
C1279 C1287 1.433 . S
C1280 H1276 0.929 . S
C1280 C1282 1.378 . S
C1280 C1284 1.350 . S
C1281 C1284 1.463 . S
C1281 C1286 1.350 . S
C1281 N1289 1.427 . S
C1282 H1273 0.930 . S
C1282 C1280 1.378 . S
C1282 C1283 1.367 . S
C1283 C1282 1.367 . S
C1283 C1285 1.433 . S
C1284 C1280 1.350 . S
C1284 C1281 1.463 . S
C1284 N1288 1.427 . S
C1285 H1275 0.929 . S
C1285 C1283 1.433 . S
C1285 N1288 1.384 . S
C1286 H1277 0.929 . S
C1286 C1278 1.378 . S
C1286 C1281 1.350 . S
C1287 H1274 0.929 . S
C1287 C1279 1.433 . S
C1287 N1289 1.384 . S
N1288 C1284 1.427 . S
N1288 C1285 1.384 . S
N1289 C1281 1.427 . S
N1289 C1287 1.384 . S
H1290 C1296 0.930 . S
H1291 C1300 0.930 . S
H1292 C1305 0.929 . S
H1293 C1303 0.929 . S
H1294 C1298 0.929 . S
H1295 C1304 0.929 . S
C1296 H1290 0.930 . S
C1296 C1297 1.367 . S
C1296 C1304 1.378 1_655 S
C1297 C1296 1.367 . S
C1297 C1305 1.433 1_545 S
C1298 H1294 0.929 . S
C1298 C1300 1.378 . S
C1298 C1302 1.350 . S
C1299 C1302 1.463 . S
C1299 C1304 1.350 . S
C1299 N1307 1.427 . S
C1300 H1291 0.930 . S
C1300 C1298 1.378 . S
C1300 C1301 1.367 . S
C1301 C1300 1.367 . S
C1301 C1303 1.433 . S
C1302 C1298 1.350 . S
C1302 C1299 1.463 . S
C1302 N1306 1.427 . S
C1303 H1293 0.929 . S
C1303 C1301 1.433 . S
C1303 N1306 1.384 . S
C1304 H1295 0.929 . S
C1304 C1296 1.378 1_455 S
C1304 C1299 1.350 . S
C1305 H1292 0.929 . S
C1305 C1297 1.433 1_565 S
C1305 N1307 1.384 1_665 S
N1306 C1302 1.427 . S
N1306 C1303 1.384 . S
N1307 C1299 1.427 . S
N1307 C1305 1.384 1_445 S
H1308 C1314 0.930 . S
H1309 C1318 0.930 . S
H1310 C1323 0.929 . S
H1311 C1321 0.929 . S
H1312 C1316 0.929 . S
H1313 C1322 0.929 . S
C1314 H1308 0.930 . S
C1314 C1315 1.367 . S
C1314 C1322 1.378 . S
C1315 C1314 1.367 . S
C1315 C1323 1.433 . S
C1316 H1312 0.929 . S
C1316 C1318 1.378 . S
C1316 C1320 1.350 . S
C1317 C1320 1.463 . S
C1317 C1322 1.350 . S
C1317 N1325 1.427 . S
C1318 H1309 0.930 . S
C1318 C1316 1.378 . S
C1318 C1319 1.367 . S
C1319 C1318 1.367 . S
C1319 C1321 1.433 . S
C1320 C1316 1.350 . S
C1320 C1317 1.463 . S
C1320 N1324 1.427 . S
C1321 H1311 0.929 . S
C1321 C1319 1.433 . S
C1321 N1324 1.384 . S
C1322 H1313 0.929 . S
C1322 C1314 1.378 . S
C1322 C1317 1.350 . S
C1323 H1310 0.929 . S
C1323 C1315 1.433 . S
C1323 N1325 1.384 . S
N1324 C1320 1.427 . S
N1324 C1321 1.384 . S
N1325 C1317 1.427 . S
N1325 C1323 1.384 . S
H1326 C1332 0.930 . S
H1327 C1336 0.930 . S
H1328 C1341 0.929 . S
H1329 C1339 0.929 . S
H1330 C1334 0.929 . S
H1331 C1340 0.929 . S
C1332 H1326 0.930 . S
C1332 C1333 1.367 . S
C1332 C1340 1.378 . S
C1333 C1332 1.367 . S
C1333 C1341 1.433 . S
C1334 H1330 0.929 . S
C1334 C1336 1.378 . S
C1334 C1338 1.350 . S
C1335 C1338 1.463 . S
C1335 C1340 1.350 . S
C1335 N1343 1.427 . S
C1336 H1327 0.930 . S
C1336 C1334 1.378 . S
C1336 C1337 1.367 . S
C1337 C1336 1.367 . S
C1337 C1339 1.433 . S
C1338 C1334 1.350 . S
C1338 C1335 1.463 . S
C1338 N1342 1.427 . S
C1339 H1329 0.929 . S
C1339 C1337 1.433 . S
C1339 N1342 1.384 . S
C1340 H1331 0.929 . S
C1340 C1332 1.378 . S
C1340 C1335 1.350 . S
C1341 H1328 0.929 . S
C1341 C1333 1.433 . S
C1341 N1343 1.384 . S
N1342 C1338 1.427 . S
N1342 C1339 1.384 . S
N1343 C1335 1.427 . S
N1343 C1341 1.384 . S
C487 C27 0.899 . S
C491 C376 0.899 . S
C505 C166 0.905 . S
C509 C57 0.905 . S
C523 C87 0.883 . S
C527 C436 0.883 . S
C541 C117 0.897 . S
C545 C226 0.897 . S
C559 C136 0.894 . S
C563 C267 0.894 . S
C577 C327 0.904 . S
C581 C196 0.904 . S
C595 C406 0.903 . S
C599 C297 0.903 . S
C613 C357 0.887 . S
C617 C466 0.887 . S
C631 C271 1.541 . S
C635 C16 1.511 . S
C649 C46 1.525 . S
C653 C301 1.532 . S
C667 C76 1.513 . S
C671 C331 1.542 . S
C685 C241 1.532 . S
C689 C106 1.519 . S
C703 C400 1.533 . S
C707 C147 1.517 . S
C721 C430 1.531 . S
C725 C177 1.525 . S
C739 C207 1.513 . S
C743 C460 1.536 . S
C757 C370 1.535 . S
C761 C237 1.514 . S
C775 C256 1.513 . S
C779 C31 1.542 . S
C793 C286 1.511 . S
C797 C61 1.540 . S
C811 C316 1.514 . S
C815 C91 1.542 . S
C829 C1 1.538 . S
C833 C346 1.521 . S
C847 C160 1.532 . S
C851 C387 1.518 . S
C865 C417 1.519 . S
C869 C190 1.532 . S
C883 C220 1.542 . S
C887 C447 1.514 . S
C901 C477 1.516 . S
C905 C130 1.541 . S
C919 N14 1.336 . S
C923 N314 1.329 . S
C937 N44 1.323 . S
C941 N344 1.328 . S
C955 N254 1.324 . S
C959 N74 1.326 . S
C973 N104 1.324 . S
C977 N284 1.326 . S
C991 N126 1.329 . S
C995 N426 1.336 . S
C1009 N156 1.330 . S
C1013 N456 1.336 . S
C1027 N366 1.330 . S
C1031 N186 1.336 . S
C1045 N216 1.326 . S
C1049 N396 1.324 . S
C1063 C10 1.143 . S
C1067 N224 1.165 . S
C1081 N374 1.166 . S
C1085 C40 1.147 . S
C1099 C70 1.145 . S
C1103 N164 1.172 . S
C1117 C100 1.142 . S
C1121 N434 1.168 . S
C1135 C121 1.154 . S
C1139 N96 1.177 . S
C1153 N246 1.174 . S
C1157 C151 1.159 . S
C1171 C181 1.146 . S
C1175 N36 1.165 . S
C1189 N306 1.177 . S
C1193 C211 1.160 . S
C1207 C250 1.142 . S
C1211 N464 1.169 . S
C1225 N134 1.178 . S
C1229 C280 1.156 . S
C1243 N404 1.178 . S
C1247 C310 1.159 . S
C1261 C340 1.157 . S
C1265 N194 1.173 . S
C1279 C361 1.159 . S
C1283 N336 1.177 . S
C1297 C391 1.147 . S
C1301 N6 1.166 . S
C1315 N276 1.171 . S
C1319 C421 1.155 . S
C1333 N66 1.166 . S
C1337 C451 1.141 . S
