# Generated by pormake.
# Topology som, (6)-cn, num edge types: 1
# Building blocks:
#     Node 0, Type 0, BuildingBlock: BETGAK_clean_sbu_0, # of connection points: 6
#     Node 1, Type 0, BuildingBlock: BETGAK_clean_sbu_0, # of connection points: 6
#     Node 2, Type 0, BuildingBlock: BETGAK_clean_sbu_0, # of connection points: 6
#     Node 3, Type 0, BuildingBlock: BETGAK_clean_sbu_0, # of connection points: 6
#     Node 4, Type 0, BuildingBlock: BETGAK_clean_sbu_0, # of connection points: 6
#     Node 5, Type 0, BuildingBlock: BETGAK_clean_sbu_0, # of connection points: 6
#     Node 6, Type 0, BuildingBlock: BETGAK_clean_sbu_0, # of connection points: 6
#     Node 7, Type 0, BuildingBlock: BETGAK_clean_sbu_0, # of connection points: 6
#     Node 8, Type 0, BuildingBlock: BETGAK_clean_sbu_0, # of connection points: 6
#     Node 9, Type 0, BuildingBlock: BETGAK_clean_sbu_0, # of connection points: 6
#     Node 10, Type 0, BuildingBlock: BETGAK_clean_sbu_0, # of connection points: 6
#     Node 11, Type 0, BuildingBlock: BETGAK_clean_sbu_0, # of connection points: 6
#     Node 12, Type 0, BuildingBlock: BETGAK_clean_sbu_0, # of connection points: 6
#     Node 13, Type 0, BuildingBlock: BETGAK_clean_sbu_0, # of connection points: 6
#     Node 14, Type 0, BuildingBlock: BETGAK_clean_sbu_0, # of connection points: 6
#     Node 15, Type 0, BuildingBlock: BETGAK_clean_sbu_0, # of connection points: 6
#     Node 16, Type 0, BuildingBlock: BETGAK_clean_sbu_0, # of connection points: 6
#     Node 17, Type 0, BuildingBlock: BETGAK_clean_sbu_0, # of connection points: 6
#     Node 18, Type 0, BuildingBlock: BETGAK_clean_sbu_0, # of connection points: 6
#     Node 19, Type 0, BuildingBlock: BETGAK_clean_sbu_0, # of connection points: 6
#     Node 20, Type 0, BuildingBlock: BETGAK_clean_sbu_0, # of connection points: 6
#     Node 21, Type 0, BuildingBlock: BETGAK_clean_sbu_0, # of connection points: 6
#     Node 22, Type 0, BuildingBlock: BETGAK_clean_sbu_0, # of connection points: 6
#     Node 23, Type 0, BuildingBlock: BETGAK_clean_sbu_0, # of connection points: 6
#     Node 24, Type 0, BuildingBlock: BETGAK_clean_sbu_0, # of connection points: 6
#     Node 25, Type 0, BuildingBlock: BETGAK_clean_sbu_0, # of connection points: 6
#     Node 26, Type 0, BuildingBlock: BETGAK_clean_sbu_0, # of connection points: 6
#     Node 27, Type 0, BuildingBlock: BETGAK_clean_sbu_0, # of connection points: 6
#     Node 28, Type 0, BuildingBlock: BETGAK_clean_sbu_0, # of connection points: 6
#     Node 29, Type 0, BuildingBlock: BETGAK_clean_sbu_0, # of connection points: 6
#     Node 30, Type 0, BuildingBlock: BETGAK_clean_sbu_0, # of connection points: 6
#     Node 31, Type 0, BuildingBlock: BETGAK_clean_sbu_0, # of connection points: 6
#     Edge 32, Type (0, 0), BuildingBlock: AJUNOK_clean_linker_0, # of connection points: 2
#     Edge 33, Type (0, 0), BuildingBlock: AJUNOK_clean_linker_0, # of connection points: 2
#     Edge 34, Type (0, 0), BuildingBlock: AJUNOK_clean_linker_0, # of connection points: 2
#     Edge 35, Type (0, 0), BuildingBlock: AJUNOK_clean_linker_0, # of connection points: 2
#     Edge 36, Type (0, 0), BuildingBlock: AJUNOK_clean_linker_0, # of connection points: 2
#     Edge 37, Type (0, 0), BuildingBlock: AJUNOK_clean_linker_0, # of connection points: 2
#     Edge 38, Type (0, 0), BuildingBlock: AJUNOK_clean_linker_0, # of connection points: 2
#     Edge 39, Type (0, 0), BuildingBlock: AJUNOK_clean_linker_0, # of connection points: 2
#     Edge 40, Type (0, 0), BuildingBlock: AJUNOK_clean_linker_0, # of connection points: 2
#     Edge 41, Type (0, 0), BuildingBlock: AJUNOK_clean_linker_0, # of connection points: 2
#     Edge 42, Type (0, 0), BuildingBlock: AJUNOK_clean_linker_0, # of connection points: 2
#     Edge 43, Type (0, 0), BuildingBlock: AJUNOK_clean_linker_0, # of connection points: 2
#     Edge 44, Type (0, 0), BuildingBlock: AJUNOK_clean_linker_0, # of connection points: 2
#     Edge 45, Type (0, 0), BuildingBlock: AJUNOK_clean_linker_0, # of connection points: 2
#     Edge 46, Type (0, 0), BuildingBlock: AJUNOK_clean_linker_0, # of connection points: 2
#     Edge 47, Type (0, 0), BuildingBlock: AJUNOK_clean_linker_0, # of connection points: 2
#     Edge 48, Type (0, 0), BuildingBlock: AJUNOK_clean_linker_0, # of connection points: 2
#     Edge 49, Type (0, 0), BuildingBlock: AJUNOK_clean_linker_0, # of connection points: 2
#     Edge 50, Type (0, 0), BuildingBlock: AJUNOK_clean_linker_0, # of connection points: 2
#     Edge 51, Type (0, 0), BuildingBlock: AJUNOK_clean_linker_0, # of connection points: 2
#     Edge 52, Type (0, 0), BuildingBlock: AJUNOK_clean_linker_0, # of connection points: 2
#     Edge 53, Type (0, 0), BuildingBlock: AJUNOK_clean_linker_0, # of connection points: 2
#     Edge 54, Type (0, 0), BuildingBlock: AJUNOK_clean_linker_0, # of connection points: 2
#     Edge 55, Type (0, 0), BuildingBlock: AJUNOK_clean_linker_0, # of connection points: 2
#     Edge 56, Type (0, 0), BuildingBlock: AJUNOK_clean_linker_0, # of connection points: 2
#     Edge 57, Type (0, 0), BuildingBlock: AJUNOK_clean_linker_0, # of connection points: 2
#     Edge 58, Type (0, 0), BuildingBlock: AJUNOK_clean_linker_0, # of connection points: 2
#     Edge 59, Type (0, 0), BuildingBlock: AJUNOK_clean_linker_0, # of connection points: 2
#     Edge 60, Type (0, 0), BuildingBlock: AJUNOK_clean_linker_0, # of connection points: 2
#     Edge 61, Type (0, 0), BuildingBlock: AJUNOK_clean_linker_0, # of connection points: 2
#     Edge 62, Type (0, 0), BuildingBlock: AJUNOK_clean_linker_0, # of connection points: 2
#     Edge 63, Type (0, 0), BuildingBlock: AJUNOK_clean_linker_0, # of connection points: 2
#     Edge 64, Type (0, 0), BuildingBlock: AJUNOK_clean_linker_0, # of connection points: 2
#     Edge 65, Type (0, 0), BuildingBlock: AJUNOK_clean_linker_0, # of connection points: 2
#     Edge 66, Type (0, 0), BuildingBlock: AJUNOK_clean_linker_0, # of connection points: 2
#     Edge 67, Type (0, 0), BuildingBlock: AJUNOK_clean_linker_0, # of connection points: 2
#     Edge 68, Type (0, 0), BuildingBlock: AJUNOK_clean_linker_0, # of connection points: 2
#     Edge 69, Type (0, 0), BuildingBlock: AJUNOK_clean_linker_0, # of connection points: 2
#     Edge 70, Type (0, 0), BuildingBlock: AJUNOK_clean_linker_0, # of connection points: 2
#     Edge 71, Type (0, 0), BuildingBlock: AJUNOK_clean_linker_0, # of connection points: 2
#     Edge 72, Type (0, 0), BuildingBlock: AJUNOK_clean_linker_0, # of connection points: 2
#     Edge 73, Type (0, 0), BuildingBlock: AJUNOK_clean_linker_0, # of connection points: 2
#     Edge 74, Type (0, 0), BuildingBlock: AJUNOK_clean_linker_0, # of connection points: 2
#     Edge 75, Type (0, 0), BuildingBlock: AJUNOK_clean_linker_0, # of connection points: 2
#     Edge 76, Type (0, 0), BuildingBlock: AJUNOK_clean_linker_0, # of connection points: 2
#     Edge 77, Type (0, 0), BuildingBlock: AJUNOK_clean_linker_0, # of connection points: 2
#     Edge 78, Type (0, 0), BuildingBlock: AJUNOK_clean_linker_0, # of connection points: 2
#     Edge 79, Type (0, 0), BuildingBlock: AJUNOK_clean_linker_0, # of connection points: 2
#     Edge 80, Type (0, 0), BuildingBlock: AJUNOK_clean_linker_0, # of connection points: 2
#     Edge 81, Type (0, 0), BuildingBlock: AJUNOK_clean_linker_0, # of connection points: 2
#     Edge 82, Type (0, 0), BuildingBlock: AJUNOK_clean_linker_0, # of connection points: 2
#     Edge 83, Type (0, 0), BuildingBlock: AJUNOK_clean_linker_0, # of connection points: 2
#     Edge 84, Type (0, 0), BuildingBlock: AJUNOK_clean_linker_0, # of connection points: 2
#     Edge 85, Type (0, 0), BuildingBlock: AJUNOK_clean_linker_0, # of connection points: 2
#     Edge 86, Type (0, 0), BuildingBlock: AJUNOK_clean_linker_0, # of connection points: 2
#     Edge 87, Type (0, 0), BuildingBlock: AJUNOK_clean_linker_0, # of connection points: 2
#     Edge 88, Type (0, 0), BuildingBlock: AJUNOK_clean_linker_0, # of connection points: 2
#     Edge 89, Type (0, 0), BuildingBlock: AJUNOK_clean_linker_0, # of connection points: 2
#     Edge 90, Type (0, 0), BuildingBlock: AJUNOK_clean_linker_0, # of connection points: 2
#     Edge 91, Type (0, 0), BuildingBlock: AJUNOK_clean_linker_0, # of connection points: 2
#     Edge 92, Type (0, 0), BuildingBlock: AJUNOK_clean_linker_0, # of connection points: 2
#     Edge 93, Type (0, 0), BuildingBlock: AJUNOK_clean_linker_0, # of connection points: 2
#     Edge 94, Type (0, 0), BuildingBlock: AJUNOK_clean_linker_0, # of connection points: 2
#     Edge 95, Type (0, 0), BuildingBlock: AJUNOK_clean_linker_0, # of connection points: 2
#     Edge 96, Type (0, 0), BuildingBlock: AJUNOK_clean_linker_0, # of connection points: 2
#     Edge 97, Type (0, 0), BuildingBlock: AJUNOK_clean_linker_0, # of connection points: 2
#     Edge 98, Type (0, 0), BuildingBlock: AJUNOK_clean_linker_0, # of connection points: 2
#     Edge 99, Type (0, 0), BuildingBlock: AJUNOK_clean_linker_0, # of connection points: 2
#     Edge 100, Type (0, 0), BuildingBlock: AJUNOK_clean_linker_0, # of connection points: 2
#     Edge 101, Type (0, 0), BuildingBlock: AJUNOK_clean_linker_0, # of connection points: 2
#     Edge 102, Type (0, 0), BuildingBlock: AJUNOK_clean_linker_0, # of connection points: 2
#     Edge 103, Type (0, 0), BuildingBlock: AJUNOK_clean_linker_0, # of connection points: 2
#     Edge 104, Type (0, 0), BuildingBlock: AJUNOK_clean_linker_0, # of connection points: 2
#     Edge 105, Type (0, 0), BuildingBlock: AJUNOK_clean_linker_0, # of connection points: 2
#     Edge 106, Type (0, 0), BuildingBlock: AJUNOK_clean_linker_0, # of connection points: 2
#     Edge 107, Type (0, 0), BuildingBlock: AJUNOK_clean_linker_0, # of connection points: 2
#     Edge 108, Type (0, 0), BuildingBlock: AJUNOK_clean_linker_0, # of connection points: 2
#     Edge 109, Type (0, 0), BuildingBlock: AJUNOK_clean_linker_0, # of connection points: 2
#     Edge 110, Type (0, 0), BuildingBlock: AJUNOK_clean_linker_0, # of connection points: 2
#     Edge 111, Type (0, 0), BuildingBlock: AJUNOK_clean_linker_0, # of connection points: 2
#     Edge 112, Type (0, 0), BuildingBlock: AJUNOK_clean_linker_0, # of connection points: 2
#     Edge 113, Type (0, 0), BuildingBlock: AJUNOK_clean_linker_0, # of connection points: 2
#     Edge 114, Type (0, 0), BuildingBlock: AJUNOK_clean_linker_0, # of connection points: 2
#     Edge 115, Type (0, 0), BuildingBlock: AJUNOK_clean_linker_0, # of connection points: 2
#     Edge 116, Type (0, 0), BuildingBlock: AJUNOK_clean_linker_0, # of connection points: 2
#     Edge 117, Type (0, 0), BuildingBlock: AJUNOK_clean_linker_0, # of connection points: 2
#     Edge 118, Type (0, 0), BuildingBlock: AJUNOK_clean_linker_0, # of connection points: 2
#     Edge 119, Type (0, 0), BuildingBlock: AJUNOK_clean_linker_0, # of connection points: 2
#     Edge 120, Type (0, 0), BuildingBlock: AJUNOK_clean_linker_0, # of connection points: 2
#     Edge 121, Type (0, 0), BuildingBlock: AJUNOK_clean_linker_0, # of connection points: 2
#     Edge 122, Type (0, 0), BuildingBlock: AJUNOK_clean_linker_0, # of connection points: 2
#     Edge 123, Type (0, 0), BuildingBlock: AJUNOK_clean_linker_0, # of connection points: 2
#     Edge 124, Type (0, 0), BuildingBlock: AJUNOK_clean_linker_0, # of connection points: 2
#     Edge 125, Type (0, 0), BuildingBlock: AJUNOK_clean_linker_0, # of connection points: 2
#     Edge 126, Type (0, 0), BuildingBlock: AJUNOK_clean_linker_0, # of connection points: 2
#     Edge 127, Type (0, 0), BuildingBlock: AJUNOK_clean_linker_0, # of connection points: 2
# Relax obj value: 0.063
# Max RMSD: 0.132
# Mean RMSD: 0.132
data_MOF--net-som--node1-BETGAK_clean_sbu_0--edge1-AJUNOK_clean_linker_0
_symmetry_space_group_name_H-M    P1
_symmetry_Int_Tables_number       1
_symmetry_cell_setting            triclinic
loop_
_symmetry_equiv_pos_as_xyz
'x, y, z'
_cell_length_a     21.267636
_cell_length_b     39.545565
_cell_length_c     77.572664
_cell_angle_alpha  90.233835
_cell_angle_beta   89.964568
_cell_angle_gamma 89.882411
loop_
_atom_site_label
_atom_site_type_symbol
_atom_site_fract_x
_atom_site_fract_y
_atom_site_fract_z
_atom_type_partial_charge
La0 La 1.00564 0.51439 0.11841 0.0
La1 La 0.13335 0.47697 0.11618 0.0
C2 C 0.89369 0.53513 0.11628 0.0
C3 C 0.82946 0.52158 0.1138 0.0
C4 C 0.80374 0.49752 0.12509 0.0
C5 C 0.74059 0.48801 0.12364 0.0
C6 C 0.70184 0.50232 0.1109 0.0
C7 C 0.72851 0.52513 0.09913 0.0
C8 C 0.79154 0.53479 0.10063 0.0
C9 C 0.07568 0.51166 0.14698 0.0
C10 C 1.007 0.43462 0.11882 0.0
C11 C 0.23918 0.45535 0.12586 0.0
C12 C 0.30561 0.4586 0.12091 0.0
C13 C 0.32383 0.47862 0.10689 0.0
C14 C 0.38769 0.48437 0.10359 0.0
C15 C 0.43421 0.47043 0.11437 0.0
C16 C 0.4155 0.44947 0.12804 0.0
C17 C 0.35178 0.44369 0.13129 0.0
C18 C 0.09173 0.48636 0.08436 0.0
C19 C 0.12137 0.55751 0.11007 0.0
O20 O 0.92191 0.52807 0.13084 0.0
O21 O 0.9321 0.53356 0.10308 0.0
O22 O 1.04217 0.53754 0.14236 0.0
O23 O 0.0678 0.48865 0.1359 0.0
O24 O 0.97447 0.46265 0.11676 0.0
O25 O 0.0693 0.43416 0.1204 0.0
O26 O 0.20225 0.43871 0.11529 0.0
O27 O 0.21296 0.48314 0.13165 0.0
O28 O 0.14421 0.47167 0.08833 0.0
O29 O 0.06532 0.49524 0.09836 0.0
O30 O 0.15743 0.53138 0.1146 0.0
O31 O 0.06001 0.55512 0.10842 0.0
H32 H 0.8318 0.48673 0.13534 0.0
H33 H 0.72148 0.47035 0.1329 0.0
H34 H 0.70036 0.53593 0.0889 0.0
H35 H 0.81031 0.55325 0.09173 0.0
H36 H 0.28869 0.49042 0.09877 0.0
H37 H 0.40065 0.5001 0.09276 0.0
H38 H 0.45011 0.43854 0.13662 0.0
H39 H 0.33848 0.42838 0.14226 0.0
La40 La 0.33671 0.73725 0.11461 0.0
La41 La 0.20938 0.77441 0.11111 0.0
C42 C 0.44992 0.71861 0.11635 0.0
C43 C 0.51319 0.73189 0.11215 0.0
C44 C 0.53625 0.76157 0.11994 0.0
C45 C 0.59861 0.7716 0.11742 0.0
C46 C 0.63933 0.75232 0.10699 0.0
C47 C 0.6156 0.72325 0.09876 0.0
C48 C 0.55323 0.71314 0.10133 0.0
C49 C 0.26117 0.73948 0.14209 0.0
C50 C 0.33564 0.81625 0.11294 0.0
C51 C 0.10327 0.79743 0.11981 0.0
C52 C 1.0368 0.79388 0.11488 0.0
C53 C 1.01711 0.76817 0.1036 0.0
C54 C 0.95291 0.76309 0.10049 0.0
C55 C 0.90742 0.78366 0.10859 0.0
C56 C 0.92769 0.80983 0.11958 0.0
C57 C 0.99179 0.8149 0.12266 0.0
C58 C 0.25567 0.76388 0.07973 0.0
C59 C 0.22375 0.69349 0.10543 0.0
O60 O 0.41958 0.7336 0.12895 0.0
O61 O 0.4128 0.71074 0.10345 0.0
O62 O 0.29437 0.71351 0.13749 0.0
O63 O 0.27175 0.76286 0.13152 0.0
O64 O 0.36539 0.78815 0.10887 0.0
O65 O 0.27443 0.81649 0.11651 0.0
O66 O 0.14066 0.81254 0.10882 0.0
O67 O 0.12918 0.7705 0.12658 0.0
O68 O 0.2021 0.77826 0.08295 0.0
O69 O 0.27983 0.75593 0.09408 0.0
O70 O 0.18689 0.7195 0.11 0.0
O71 O 0.28484 0.69676 0.10339 0.0
H72 H 0.50681 0.77655 0.12845 0.0
H73 H 0.6156 0.7937 0.12425 0.0
H74 H 0.6457 0.70792 0.09059 0.0
H75 H 0.53675 0.69011 0.09523 0.0
H76 H 0.05126 0.75155 0.09756 0.0
H77 H 0.93875 0.74274 0.09196 0.0
H78 H 0.89396 0.8256 0.12633 0.0
H79 H 1.00613 0.83463 0.13155 0.0
La80 La 0.99239 0.73142 0.22366 0.0
La81 La 0.11959 0.76808 0.22725 0.0
C82 C 0.88081 0.70967 0.2231 0.0
C83 C 0.81604 0.72031 0.22706 0.0
C84 C 0.7662 0.70003 0.22138 0.0
C85 C 0.70402 0.71036 0.2239 0.0
C86 C 0.69053 0.74142 0.23197 0.0
C87 C 0.74056 0.76152 0.23793 0.0
C88 C 0.80295 0.75085 0.23561 0.0
C89 C 0.06541 0.73516 0.19562 0.0
C90 C 0.99402 0.81082 0.22554 0.0
C91 C 0.22732 0.78921 0.21912 0.0
C92 C 0.29369 0.78339 0.22416 0.0
C93 C 0.33101 0.81049 0.22987 0.0
C94 C 0.39526 0.8058 0.23319 0.0
C95 C 0.42369 0.77399 0.23059 0.0
C96 C 0.38578 0.74679 0.22525 0.0
C97 C 0.32168 0.75136 0.22214 0.0
C98 C 0.07531 0.75697 0.25867 0.0
C99 C 0.10647 0.68725 0.23223 0.0
O100 O 0.90783 0.72509 0.21017 0.0
O101 O 0.91922 0.70544 0.23612 0.0
O102 O 1.03205 0.70913 0.19984 0.0
O103 O 0.05619 0.75774 0.20684 0.0
O104 O 0.96301 0.78278 0.22887 0.0
O105 O 0.05553 0.81078 0.22234 0.0
O106 O 0.19062 0.80494 0.23017 0.0
O107 O 0.19878 0.76387 0.21154 0.0
O108 O 0.12731 0.7725 0.25525 0.0
O109 O 0.04986 0.74899 0.24444 0.0
O110 O 0.14339 0.71335 0.22827 0.0
O111 O 1.04523 0.69025 0.2337 0.0
H112 H 0.77541 0.67636 0.21475 0.0
H113 H 0.66637 0.69447 0.21913 0.0
H114 H 0.73136 0.78539 0.24437 0.0
H115 H 0.84094 0.76639 0.24035 0.0
H116 H 0.31067 0.83544 0.2315 0.0
H117 H 0.42265 0.82713 0.23768 0.0
H118 H 0.40603 0.72201 0.22298 0.0
H119 H 0.29452 0.72985 0.21775 0.0
La120 La 0.33734 0.51303 0.23006 0.0
La121 La 0.21266 0.47155 0.23181 0.0
C122 C 0.44792 0.53588 0.23228 0.0
C123 C 0.51354 0.52345 0.23289 0.0
C124 C 0.56092 0.54332 0.22554 0.0
C125 C 0.62362 0.53264 0.2258 0.0
C126 C 0.64062 0.50173 0.23343 0.0
C127 C 0.59294 0.48168 0.24077 0.0
C128 C 0.5299 0.49242 0.24047 0.0
C129 C 0.267 0.50941 0.20174 0.0
C130 C 0.34296 0.43276 0.22847 0.0
C131 C 0.10708 0.44901 0.2223 0.0
C132 C 1.03945 0.45629 0.22565 0.0
C133 C 1.00142 0.43244 0.23407 0.0
C134 C 0.93683 0.43837 0.23638 0.0
C135 C 0.90871 0.4682 0.23018 0.0
C136 C 0.94697 0.49211 0.22188 0.0
C137 C 1.01131 0.48624 0.2196 0.0
C138 C 0.2526 0.48413 0.26365 0.0
C139 C 0.21666 0.55283 0.23748 0.0
O140 O 0.41818 0.53141 0.21769 0.0
O141 O 0.41186 0.52996 0.24566 0.0
O142 O 0.29828 0.53593 0.20659 0.0
O143 O 0.27753 0.48605 0.21241 0.0
O144 O 0.37228 0.4618 0.23049 0.0
O145 O 0.28057 0.43019 0.22761 0.0
O146 O 0.14024 0.43547 0.23477 0.0
O147 O 0.13867 0.47233 0.21411 0.0
O148 O 0.20265 0.46698 0.25984 0.0
O149 O 0.27787 0.49281 0.24956 0.0
O150 O 0.18408 0.52547 0.23278 0.0
O151 O 0.2779 0.55211 0.24001 0.0
H152 H 0.54937 0.56725 0.21955 0.0
H153 H 0.65891 0.54855 0.21989 0.0
H154 H 0.60442 0.45796 0.24695 0.0
H155 H 0.49412 0.47656 0.24619 0.0
H156 H 1.02156 0.40903 0.23876 0.0
H157 H 0.90901 0.41967 0.24309 0.0
H158 H 0.92685 0.51521 0.21681 0.0
H159 H 1.03872 0.50508 0.21285 0.0
La160 La 0.97121 0.52042 0.9812 0.0
La161 La 0.09687 0.48111 0.97787 0.0
C162 C 0.86558 0.54264 0.97157 0.0
C163 C 0.79806 0.53926 0.97542 0.0
C164 C 0.77641 0.52208 0.99006 0.0
C165 C 0.71172 0.51694 0.99253 0.0
C166 C 0.66772 0.52881 0.98037 0.0
C167 C 0.69008 0.54603 0.96576 0.0
C168 C 0.75446 0.55128 0.96337 0.0
C169 C 1.01553 0.51013 1.01271 0.0
C170 C 0.98064 0.43958 0.98743 0.0
C171 C 0.20912 0.45989 0.97697 0.0
C172 C 0.27415 0.47312 0.9789 0.0
C173 C 0.30418 0.48971 0.96516 0.0
C174 C 0.36666 0.5003 0.96663 0.0
C175 C 0.40095 0.49432 0.98178 0.0
C176 C 0.37138 0.47747 0.99548 0.0
C177 C 0.30857 0.46706 0.99407 0.0
C178 C 1.02244 0.4844 0.95027 0.0
C179 C 0.09892 0.561 0.97765 0.0
O180 O 0.90115 0.55803 0.98298 0.0
O181 O 0.89257 0.51558 0.9652 0.0
O182 O 0.96368 0.52596 1.00919 0.0
O183 O 1.04034 0.50107 0.99848 0.0
O184 O 0.94537 0.46623 0.98315 0.0
O185 O 1.04234 0.44113 0.98865 0.0
O186 O 0.17744 0.46963 0.9634 0.0
O187 O 0.17365 0.45889 0.99076 0.0
O188 O 0.05391 0.45779 0.9548 0.0
O189 O 1.03398 0.50754 0.961 0.0
O190 O 0.12962 0.53257 0.98038 0.0
O191 O 1.03662 0.56234 0.97615 0.0
H192 H 0.80948 0.51216 0.99939 0.0
H193 H 0.69612 0.50346 1.00387 0.0
H194 H 0.65797 0.55454 0.95585 0.0
H195 H 0.77039 0.56403 0.95182 0.0
H196 H 0.27977 0.49417 0.95314 0.0
H197 H 0.3887 0.51254 0.95572 0.0
H198 H 0.3969 0.47233 1.00726 0.0
H199 H 0.28722 0.45381 1.00477 0.0
La200 La 0.88384 0.22417 0.98088 0.0
La201 La 0.75726 0.26216 0.97778 0.0
C202 C 0.98946 0.20233 0.97104 0.0
C203 C 0.05717 0.20475 0.97472 0.0
C204 C 0.08027 0.21415 0.991 0.0
C205 C 0.14522 0.21789 0.9936 0.0
C206 C 0.18785 0.21228 0.97996 0.0
C207 C 0.16406 0.20296 0.96372 0.0
C208 C 0.0995 0.19913 0.96116 0.0
C209 C 0.83879 0.23341 1.01247 0.0
C210 C 0.8712 0.30487 0.98785 0.0
C211 C 0.64422 0.28177 0.97622 0.0
C212 C 0.57984 0.26787 0.97839 0.0
C213 C 0.54495 0.25833 0.96377 0.0
C214 C 0.48319 0.24677 0.96539 0.0
C215 C 0.45447 0.24481 0.98165 0.0
C216 C 0.48878 0.25466 0.9963 0.0
C217 C 0.551 0.26597 0.9947 0.0
C218 C 0.83231 0.26007 0.95023 0.0
C219 C 0.75762 0.18262 0.97702 0.0
O220 O 0.95362 0.18644 0.98215 0.0
O221 O 0.96313 0.22994 0.96519 0.0
O222 O 0.89126 0.21819 1.00885 0.0
O223 O 0.81384 0.24236 0.9983 0.0
O224 O 0.90753 0.27878 0.98313 0.0
O225 O 0.80975 0.30222 0.98927 0.0
O226 O 0.67639 0.27058 0.96298 0.0
O227 O 0.67953 0.28517 0.98995 0.0
O228 O 0.80038 0.2864 0.95503 0.0
O229 O 0.82109 0.23667 0.96073 0.0
O230 O 0.72678 0.21051 0.98092 0.0
O231 O 0.81966 0.18208 0.97489 0.0
H232 H 1.04818 0.21898 1.00158 0.0
H233 H 0.16212 0.22528 1.00622 0.0
H234 H 0.19526 0.1995 0.95281 0.0
H235 H 0.08243 0.19238 0.94844 0.0
H236 H 0.5652 0.26008 0.95099 0.0
H237 H 0.45736 0.23996 0.95386 0.0
H238 H 0.4674 0.25364 1.00896 0.0
H239 H 0.5761 0.2736 1.00621 0.0
La240 La 0.97095 0.22437 0.86424 0.0
La241 La 0.09776 0.26255 0.86774 0.0
C242 C 0.86421 0.20232 0.87277 0.0
C243 C 0.79806 0.20856 0.86797 0.0
C244 C 0.75302 0.18319 0.87051 0.0
C245 C 0.6891 0.18988 0.86774 0.0
C246 C 0.66916 0.22215 0.86246 0.0
C247 C 0.71462 0.24725 0.85949 0.0
C248 C 0.77849 0.24047 0.86213 0.0
C249 C 1.01671 0.23493 0.8329 0.0
C250 C 0.98155 0.30478 0.85811 0.0
C251 C 0.20885 0.28501 0.86829 0.0
C252 C 0.2737 0.2742 0.86426 0.0
C253 C 0.319 0.29875 0.86046 0.0
C254 C 0.38225 0.2897 0.85851 0.0
C255 C 0.40155 0.25584 0.86036 0.0
C256 C 0.35559 0.2311 0.86364 0.0
C257 C 0.29223 0.24021 0.86547 0.0
C258 C 1.02283 0.2599 0.8953 0.0
C259 C 0.09788 0.18272 0.86651 0.0
O260 O 0.90022 0.18745 0.86127 0.0
O261 O 0.89272 0.22752 0.88047 0.0
O262 O 0.9636 0.22029 0.83616 0.0
O263 O 1.04108 0.24318 0.84723 0.0
O264 O 0.94577 0.27862 0.86267 0.0
O265 O 1.0431 0.30244 0.85676 0.0
O266 O 0.18162 0.27005 0.88134 0.0
O267 O 0.17034 0.28928 0.85531 0.0
O268 O 0.05556 0.28607 0.89091 0.0
O269 O 1.03374 0.23672 0.88454 0.0
O270 O 0.12941 0.21099 0.86413 0.0
O271 O 1.03577 0.18193 0.86858 0.0
H272 H 0.76711 0.15848 0.87511 0.0
H273 H 0.65509 0.1702 0.87036 0.0
H274 H 0.7006 0.27229 0.85535 0.0
H275 H 0.8124 0.26045 0.86005 0.0
H276 H 0.3057 0.32514 0.85947 0.0
H277 H 0.41632 0.30932 0.85585 0.0
H278 H 0.36879 0.2049 0.86547 0.0
H279 H 0.25806 0.22088 0.86838 0.0
La280 La 0.88268 0.52014 0.86447 0.0
La281 La 0.75647 0.4817 0.86794 0.0
C282 C 0.98915 0.54258 0.87306 0.0
C283 C 0.05559 0.53706 0.86822 0.0
C284 C 0.09915 0.56333 0.87026 0.0
C285 C 0.16332 0.55756 0.8674 0.0
C286 C 0.18524 0.5253 0.86252 0.0
C287 C 0.14118 0.49917 0.86017 0.0
C288 C 0.07703 0.50505 0.86291 0.0
C289 C 0.83685 0.50926 0.83313 0.0
C290 C 0.87208 0.43933 0.85847 0.0
C291 C 0.6443 0.46133 0.86956 0.0
C292 C 0.58018 0.47296 0.86527 0.0
C293 C 0.5345 0.44906 0.86066 0.0
C294 C 0.47169 0.45879 0.85849 0.0
C295 C 0.45336 0.49272 0.86079 0.0
C296 C 0.49966 0.5168 0.86491 0.0
C297 C 0.56244 0.50702 0.86714 0.0
C298 C 0.83109 0.48517 0.89558 0.0
C299 C 0.75533 0.56102 0.86575 0.0
O300 O 0.95271 0.5575 0.86174 0.0
O301 O 0.9613 0.51698 0.88051 0.0
O302 O 0.88962 0.52433 0.83636 0.0
O303 O 0.81295 0.50092 0.84746 0.0
O304 O 0.90785 0.46577 0.86275 0.0
O305 O 0.8104 0.44119 0.85722 0.0
O306 O 0.67292 0.47768 0.88199 0.0
O307 O 0.68217 0.45408 0.85671 0.0
O308 O 0.79884 0.45884 0.89113 0.0
O309 O 0.81997 0.50814 0.8848 0.0
O310 O 0.72628 0.53254 0.86201 0.0
O311 O 0.81642 0.56189 0.86946 0.0
H312 H 0.08378 0.58812 0.87449 0.0
H313 H 0.19597 0.57824 0.86927 0.0
H314 H 0.15643 0.47383 0.85684 0.0
H315 H 1.04439 0.4843 0.86143 0.0
H316 H 0.54703 0.4226 0.85933 0.0
H317 H 0.43709 0.43948 0.8557 0.0
H318 H 0.48709 0.54314 0.86672 0.0
H319 H 0.59668 0.52588 0.87087 0.0
La320 La 1.00713 0.01336 0.61288 0.0
La321 La 0.12508 0.97431 0.60954 0.0
C322 C 0.89658 0.03697 0.61184 0.0
C323 C 0.83044 0.02509 0.61272 0.0
C324 C 0.80014 0.02058 0.62868 0.0
C325 C 0.73622 0.0123 0.62939 0.0
C326 C 0.70099 0.0086 0.61417 0.0
C327 C 0.73156 0.01232 0.59823 0.0
C328 C 0.79542 0.02065 0.59751 0.0
C329 C 0.07802 0.00983 0.64117 0.0
C330 C 1.00058 0.93386 0.61508 0.0
C331 C 0.23592 0.95177 0.61308 0.0
C332 C 0.30197 0.96382 0.61347 0.0
C333 C 0.33604 0.96853 0.59811 0.0
C334 C 0.39991 0.9769 0.5986 0.0
C335 C 0.4313 0.98072 0.61443 0.0
C336 C 0.39718 0.97631 0.62979 0.0
C337 C 0.33327 0.96791 0.62931 0.0
C338 C 0.06249 0.97861 0.58013 0.0
C339 C 0.12228 0.05565 0.60527 0.0
O340 O 0.93028 0.03502 0.6259 0.0
O341 O 0.92919 0.02863 0.59815 0.0
O342 O 1.048 0.0366 0.63621 0.0
O343 O 0.06631 0.98632 0.63064 0.0
O344 O 0.97183 0.96225 0.61121 0.0
O345 O 0.06257 0.93265 0.61695 0.0
O346 O 0.20609 0.95296 0.59838 0.0
O347 O 0.19958 0.96057 0.62592 0.0
O348 O 0.09324 0.95225 0.58534 0.0
O349 O 0.06829 0.00174 0.59139 0.0
O350 O 0.15545 0.02831 0.60958 0.0
O351 O 0.06146 0.05381 0.60278 0.0
H352 H 0.82549 0.02395 0.64066 0.0
H353 H 0.71426 0.00893 0.64186 0.0
H354 H 0.7056 0.00974 0.58629 0.0
H355 H 0.81706 0.02432 0.58501 0.0
H356 H 0.31373 0.96518 0.58568 0.0
H357 H 0.42494 0.98023 0.58656 0.0
H358 H 0.4203 0.97842 0.64218 0.0
H359 H 0.30869 0.96386 0.64137 0.0
La360 La 0.35085 0.23001 0.61931 0.0
La361 La 0.22664 0.2697 0.61527 0.0
C362 C 0.46385 0.21089 0.6221 0.0
C363 C 0.52867 0.22338 0.61868 0.0
C364 C 0.56001 0.24346 0.63099 0.0
C365 C 0.6229 0.25267 0.62863 0.0
C366 C 0.65642 0.24183 0.614 0.0
C367 C 0.625 0.22225 0.60153 0.0
C368 C 0.56187 0.21303 0.60387 0.0
C369 C 0.27481 0.23453 0.64663 0.0
C370 C 0.3547 0.3091 0.61672 0.0
C371 C 0.12016 0.29229 0.62406 0.0
C372 C 0.05327 0.28865 0.61951 0.0
C373 C 1.0339 0.26914 0.60532 0.0
C374 C 0.96975 0.26279 0.60257 0.0
C375 C 0.92403 0.27544 0.6141 0.0
C376 C 0.94397 0.29576 0.62799 0.0
C377 C 1.00785 0.30225 0.63065 0.0
C378 C 0.27204 0.25805 0.58401 0.0
C379 C 0.23633 0.18859 0.60914 0.0
O380 O 0.43222 0.22627 0.63433 0.0
O381 O 0.42803 0.2032 0.60889 0.0
O382 O 0.30594 0.20768 0.64226 0.0
O383 O 0.28744 0.25735 0.6359 0.0
O384 O 0.38186 0.28018 0.61286 0.0
O385 O 0.29366 0.31092 0.62041 0.0
O386 O 0.15726 0.3076 0.61305 0.0
O387 O 0.14626 0.26524 0.63059 0.0
O388 O 0.22042 0.27434 0.58728 0.0
O389 O 0.29612 0.24936 0.59832 0.0
O390 O 0.20114 0.21545 0.61327 0.0
O391 O 0.29812 0.18968 0.60832 0.0
H392 H 0.53641 0.2516 0.64267 0.0
H393 H 0.64589 0.26759 0.63852 0.0
H394 H 0.6494 0.21383 0.59003 0.0
H395 H 0.53947 0.19725 0.59424 0.0
H396 H 0.06839 0.25823 0.59663 0.0
H397 H 0.95606 0.24767 0.59153 0.0
H398 H 0.9103 0.3057 0.63719 0.0
H399 H 1.02197 0.31705 0.64178 0.0
La400 La 1.00801 0.23384 0.72844 0.0
La401 La 0.13412 0.27389 0.72997 0.0
C402 C 0.89783 0.21063 0.73097 0.0
C403 C 0.83216 0.22264 0.73163 0.0
C404 C 0.78433 0.20063 0.72634 0.0
C405 C 0.72167 0.21128 0.72624 0.0
C406 C 0.70532 0.24429 0.73139 0.0
C407 C 0.7534 0.26633 0.73684 0.0
C408 C 0.81635 0.25556 0.73699 0.0
C409 C 0.07775 0.23667 0.6999 0.0
C410 C 1.00463 0.3139 0.72639 0.0
C411 C 0.23987 0.29575 0.72038 0.0
C412 C 0.3072 0.289 0.72407 0.0
C413 C 0.34722 0.31553 0.72907 0.0
C414 C 0.41198 0.30993 0.73111 0.0
C415 C 0.43792 0.27769 0.72807 0.0
C416 C 0.39766 0.25109 0.72338 0.0
C417 C 0.33316 0.25662 0.72143 0.0
C418 C 0.09457 0.26229 0.7619 0.0
C419 C 0.127 0.19306 0.73601 0.0
O420 O 0.92716 0.21485 0.7163 0.0
O421 O 0.93383 0.21745 0.74423 0.0
O422 O 1.04643 0.21028 0.70482 0.0
O423 O 0.06817 0.26002 0.71071 0.0
O424 O 0.97417 0.28529 0.72866 0.0
O425 O 0.06717 0.3157 0.72554 0.0
O426 O 0.20607 0.31046 0.73244 0.0
O427 O 0.20911 0.27137 0.71269 0.0
O428 O 0.14574 0.27817 0.75796 0.0
O429 O 0.06839 0.254 0.74784 0.0
O430 O 0.16072 0.2196 0.73084 0.0
O431 O 0.06611 0.19494 0.7389 0.0
H432 H 0.79553 0.17513 0.72218 0.0
H433 H 0.68582 0.19358 0.72213 0.0
H434 H 0.74259 0.29209 0.74061 0.0
H435 H 0.8526 0.27302 0.74109 0.0
H436 H 0.3286 0.34078 0.73102 0.0
H437 H 0.44201 0.331 0.73454 0.0
H438 H 0.41626 0.22595 0.72105 0.0
H439 H 0.30395 0.23559 0.71747 0.0
La440 La 0.34441 0.01263 0.72353 0.0
La441 La 0.21695 0.97663 0.72747 0.0
C442 C 0.45573 0.03454 0.72251 0.0
C443 C 0.52035 0.02456 0.72706 0.0
C444 C 0.56501 0.04983 0.73021 0.0
C445 C 0.62822 0.04138 0.73265 0.0
C446 C 0.64807 0.00744 0.7319 0.0
C447 C 0.60269 0.98205 0.72932 0.0
C448 C 0.53931 0.99056 0.72704 0.0
C449 C 0.26907 0.00996 0.696 0.0
C450 C 0.34201 0.93329 0.72515 0.0
C451 C 0.10962 0.95508 0.71925 0.0
C452 C 1.04392 0.96126 0.72443 0.0
C453 C 0.99905 0.93566 0.72225 0.0
C454 C 0.93531 0.94227 0.72531 0.0
C455 C 0.91551 0.97471 0.73046 0.0
C456 C 0.96079 2e-05 0.73312 0.0
C457 C 1.02451 0.99331 0.73025 0.0
C458 C 0.26337 0.98649 0.75878 0.0
C459 C 0.23171 0.05702 0.7333 0.0
O460 O 0.429 0.01761 0.70996 0.0
O461 O 0.41689 0.04073 0.73523 0.0
O462 O 0.30251 0.03595 0.70033 0.0
O463 O 0.27919 0.98706 0.70686 0.0
O464 O 0.37448 0.96117 0.72778 0.0
O465 O 0.28001 0.93337 0.72287 0.0
O466 O 0.14613 0.93985 0.73041 0.0
O467 O 0.13778 0.98047 0.7117 0.0
O468 O 0.2096 0.97261 0.75547 0.0
O469 O 0.28826 0.99466 0.7445 0.0
O470 O 0.19415 0.03141 0.72889 0.0
O471 O 0.29277 0.05326 0.73485 0.0
H472 H 0.55126 0.07623 0.73031 0.0
H473 H 0.66187 0.0615 0.73475 0.0
H474 H 0.6164 0.95573 0.72836 0.0
H475 H 0.50551 0.97071 0.72472 0.0
H476 H 1.01305 0.91086 0.71765 0.0
H477 H 0.90127 0.92244 0.72296 0.0
H478 H 0.94669 0.0252 0.73712 0.0
H479 H 0.05835 0.01345 0.73206 0.0
La480 La 0.97075 0.01841 0.47583 0.0
La481 La 0.09681 0.97861 0.47332 0.0
C482 C 0.86501 0.04026 0.46611 0.0
C483 C 0.79791 0.03608 0.47026 0.0
C484 C 0.77806 0.02012 0.48544 0.0
C485 C 0.71399 0.01363 0.48819 0.0
C486 C 0.66891 0.02258 0.47569 0.0
C487 C 0.68928 0.03916 0.46068 0.0
C488 C 0.75306 0.04579 0.45801 0.0
C489 C 1.01328 0.00785 0.50747 0.0
C490 C 0.9792 0.93773 0.48228 0.0
C491 C 0.2083 0.95663 0.47463 0.0
C492 C 0.27372 0.96944 0.47613 0.0
C493 C 0.30381 0.98518 0.46214 0.0
C494 C 0.36704 0.99469 0.46324 0.0
C495 C 0.4019 0.98841 0.47828 0.0
C496 C 0.37177 0.97306 0.49234 0.0
C497 C 0.3084 0.96362 0.49127 0.0
C498 C 1.02384 0.98099 0.44538 0.0
C499 C 0.09894 0.05871 0.47216 0.0
O500 O 0.90059 0.05601 0.47739 0.0
O501 O 0.89246 0.01334 0.45975 0.0
O502 O 0.96217 0.02419 0.50379 0.0
O503 O 1.03852 -0.00118 0.49335 0.0
O504 O 0.94425 0.96439 0.47787 0.0
O505 O 1.04077 0.93904 0.48371 0.0
O506 O 0.1782 0.96307 0.46028 0.0
O507 O 0.17174 0.95952 0.48818 0.0
O508 O 0.05661 0.95488 0.45003 0.0
O509 O 1.03449 0.00449 0.45602 0.0
O510 O 0.12974 0.03017 0.47451 0.0
O511 O 1.03654 0.06022 0.47096 0.0
H512 H 0.81212 0.01217 0.49499 0.0
H513 H 0.69984 0.00142 0.50004 0.0
H514 H 0.65605 0.04613 0.45073 0.0
H515 H 0.76759 0.05776 0.44611 0.0
H516 H 0.27895 0.98973 0.45019 0.0
H517 H 0.38916 0.00625 0.45215 0.0
H518 H 0.39732 0.96821 0.50415 0.0
H519 H 0.28676 0.95123 0.50219 0.0
La520 La 0.87932 0.72275 0.47799 0.0
La521 La 0.75317 0.76157 0.47564 0.0
C522 C 0.9848 0.70098 0.46798 0.0
C523 C 0.05213 0.70492 0.47189 0.0
C524 C 0.07338 0.71544 0.48818 0.0
C525 C 0.13764 0.72123 0.491 0.0
C526 C 0.18144 0.71696 0.47753 0.0
C527 C 0.15967 0.70593 0.46134 0.0
C528 C 0.09573 0.70001 0.45857 0.0
C529 C 0.83791 0.73388 0.50977 0.0
C530 C 0.86912 0.80369 0.48427 0.0
C531 C 0.64113 0.78288 0.47613 0.0
C532 C 0.57599 0.76978 0.47784 0.0
C533 C 0.54261 0.75894 0.46317 0.0
C534 C 0.47974 0.74903 0.46445 0.0
C535 C 0.4484 0.75002 0.48038 0.0
C536 C 0.48163 0.76058 0.4951 0.0
C537 C 0.54476 0.77043 0.49384 0.0
C538 C 0.82504 0.75812 0.44744 0.0
C539 C 0.752 0.6816 0.4754 0.0
O540 O 0.94951 0.68524 0.47928 0.0
O541 O 0.95729 0.72791 0.46176 0.0
O542 O 0.88914 0.71768 0.50595 0.0
O543 O 0.81192 0.74241 0.49572 0.0
O544 O 0.90441 0.77723 0.47954 0.0
O545 O 0.8079 0.80153 0.48615 0.0
O546 O 0.6717 0.77462 0.46207 0.0
O547 O 0.67752 0.7822 0.48977 0.0
O548 O 0.79362 0.78467 0.45223 0.0
O549 O 0.81465 0.73509 0.45824 0.0
O550 O 0.72168 0.71005 0.47849 0.0
O551 O 0.81404 0.68059 0.47315 0.0
H552 H 1.04032 0.71958 0.49861 0.0
H553 H 0.15299 0.72913 0.5037 0.0
H554 H 0.19195 0.7027 0.45065 0.0
H555 H 0.0801 0.69223 0.44586 0.0
H556 H 0.56471 0.75856 0.45059 0.0
H557 H 0.45514 0.74125 0.45287 0.0
H558 H 0.45869 0.76135 0.50756 0.0
H559 H 0.5688 0.77904 0.50535 0.0
La560 La 0.9641 0.72315 0.36107 0.0
La561 La 0.08413 0.76098 0.36354 0.0
C562 C 0.85423 0.7008 0.36625 0.0
C563 C 0.78794 0.71135 0.36503 0.0
C564 C 0.76723 0.73466 0.35265 0.0
C565 C 0.70343 0.74343 0.35166 0.0
C566 C 0.65949 0.72909 0.36307 0.0
C567 C 0.68076 0.70599 0.37551 0.0
C568 C 0.74435 0.69729 0.37649 0.0
C569 C 1.02322 0.72733 0.33111 0.0
C570 C 0.96827 0.80438 0.35673 0.0
C571 C 0.194 0.78484 0.36134 0.0
C572 C 0.26048 0.77403 0.36058 0.0
C573 C 0.28517 0.7498 0.37193 0.0
C574 C 0.34961 0.74235 0.37182 0.0
C575 C 0.3905 0.75896 0.36037 0.0
C576 C 0.36511 0.78226 0.34863 0.0
C577 C 0.30085 0.78982 0.3488 0.0
C578 C 1.01552 0.75759 0.39234 0.0
C579 C 0.08812 0.68174 0.36608 0.0
O580 O 0.88526 0.69668 0.35185 0.0
O581 O 0.88798 0.71604 0.37796 0.0
O582 O 0.99088 0.70156 0.33628 0.0
O583 O 1.02016 0.7502 0.3426 0.0
O584 O 0.93415 0.77708 0.36032 0.0
O585 O 1.02946 0.80264 0.35477 0.0
O586 O 0.16403 0.78044 0.37589 0.0
O587 O 0.1589 0.77772 0.34797 0.0
O588 O 1.04597 0.78414 0.38734 0.0
O589 O 1.02587 0.7343 0.38158 0.0
O590 O 0.11771 0.70936 0.36134 0.0
O591 O 1.02669 0.68198 0.36902 0.0
H592 H 0.80019 0.7458 0.34367 0.0
H593 H 0.68831 0.76095 0.3418 0.0
H594 H 0.64815 0.69475 0.38455 0.0
H595 H 0.75951 0.67937 0.38618 0.0
H596 H 0.25498 0.73709 0.3811 0.0
H597 H 0.36772 0.72418 0.38099 0.0
H598 H 0.39498 0.79477 0.33932 0.0
H599 H 0.28276 0.80845 0.33987 0.0
La600 La 0.87646 0.02011 0.36194 0.0
La601 La 0.75 0.98241 0.36484 0.0
C602 C 0.98271 0.04137 0.37155 0.0
C603 C 0.05089 0.03596 0.36855 0.0
C604 C 0.08484 0.05531 0.35654 0.0
C605 C 0.15034 0.0517 0.35512 0.0
C606 C 0.18293 0.02909 0.36585 0.0
C607 C 0.14875 0.00937 0.37756 0.0
C608 C 0.08376 0.01291 0.37899 0.0
C609 C 0.83184 0.01102 0.33033 0.0
C610 C 0.86311 0.9398 0.35481 0.0
C611 C 0.63876 0.96083 0.36688 0.0
C612 C 0.57358 0.97257 0.3648 0.0
C613 C 0.52714 0.95789 0.37514 0.0
C614 C 0.46547 0.96985 0.37467 0.0
C615 C 0.44896 0.99683 0.36385 0.0
C616 C 0.49508 0.01099 0.35307 0.0
C617 C 0.55727 -0.00095 0.35362 0.0
C618 C 0.82573 0.98295 0.39232 0.0
C619 C 0.74952 0.06164 0.36452 0.0
O620 O 0.94888 0.05646 0.35967 0.0
O621 O 0.95276 0.01604 0.37854 0.0
O622 O 0.88479 0.02558 0.33395 0.0
O623 O 0.80682 0.00219 0.34448 0.0
O624 O 0.89959 0.96541 0.35995 0.0
O625 O 0.80225 0.94328 0.35259 0.0
O626 O 0.66947 0.97434 0.37978 0.0
O627 O 0.67367 0.95771 0.35303 0.0
O628 O 0.79352 0.95713 0.38716 0.0
O629 O 0.8143 0.00702 0.38218 0.0
O630 O 0.7193 0.03361 0.36069 0.0
O631 O 0.81113 0.06203 0.36756 0.0
H632 H 0.06104 0.07361 0.34849 0.0
H633 H 0.1757 0.06716 0.34596 0.0
H634 H 0.17246 0.99126 0.38576 0.0
H635 H 0.05943 -0.00212 0.38854 0.0
H636 H 0.53885 0.93743 0.38382 0.0
H637 H 0.43056 0.95808 0.38285 0.0
H638 H 0.48334 0.03173 0.34458 0.0
H639 H 0.5926 0.01074 0.34556 0.0
La640 La 0.51109 0.50977 0.61609 0.0
La641 La 0.6396 0.472 0.61547 0.0
C642 C 0.39944 0.53026 0.61252 0.0
C643 C 0.33526 0.51593 0.61168 0.0
C644 C 0.31395 0.49221 0.6238 0.0
C645 C 0.25136 0.48123 0.6236 0.0
C646 C 0.20885 0.49359 0.61123 0.0
C647 C 0.23082 0.51668 0.59887 0.0
C648 C 0.29331 0.52771 0.5991 0.0
C649 C 0.57782 0.50734 0.64521 0.0
C650 C 0.51217 0.42996 0.61795 0.0
C651 C 0.74373 0.44998 0.62632 0.0
C652 C 0.81105 0.45264 0.62215 0.0
C653 C 0.83205 0.47199 0.60818 0.0
C654 C 0.8966 0.47648 0.60536 0.0
C655 C 0.94116 0.46168 0.61646 0.0
C656 C 0.91963 0.44195 0.6303 0.0
C657 C 0.85519 0.43745 0.63309 0.0
C658 C 0.60248 0.4819 0.58325 0.0
C659 C 0.62749 0.5526 0.60978 0.0
O660 O 0.42847 0.52842 0.62737 0.0
O661 O 0.43706 0.52381 0.59952 0.0
O662 O 0.54525 0.53333 0.64025 0.0
O663 O 0.57074 0.48422 0.63418 0.0
O664 O 0.47993 0.45798 0.61552 0.0
O665 O 0.57447 0.42955 0.61971 0.0
O666 O 0.70809 0.43351 0.61534 0.0
O667 O 0.71715 0.47792 0.63179 0.0
O668 O 0.65408 0.46678 0.58764 0.0
O669 O 0.57447 0.49059 0.597 0.0
O670 O 0.66312 0.52669 0.61489 0.0
O671 O 0.56739 0.54958 0.60619 0.0
H672 H 0.34517 0.48277 0.63371 0.0
H673 H 0.23577 0.46396 0.63352 0.0
H674 H 0.19939 0.52654 0.58911 0.0
H675 H 0.3086 0.54603 0.58964 0.0
H676 H 0.79856 0.48414 0.59968 0.0
H677 H 0.91171 0.49182 0.59459 0.0
H678 H 0.95252 0.4309 0.63933 0.0
H679 H 0.83976 0.42279 0.64408 0.0
La680 La 0.84248 0.73206 0.61563 0.0
La681 La 0.72317 0.76992 0.61143 0.0
C682 C 0.95273 0.70784 0.61537 0.0
C683 C 1.01909 0.71862 0.6167 0.0
C684 C 0.06101 0.6989 0.62637 0.0
C685 C 0.12482 0.70726 0.62725 0.0
C686 C 0.14811 0.73561 0.61846 0.0
C687 C 0.1059 0.7556 0.6089 0.0
C688 C 1.04192 0.74725 0.60806 0.0
C689 C 0.76844 0.73514 0.64338 0.0
C690 C 0.8461 0.81192 0.61691 0.0
C691 C 0.61251 0.79328 0.61384 0.0
C692 C 0.54611 0.78267 0.61497 0.0
C693 C 0.50088 0.80155 0.60603 0.0
C694 C 0.43723 0.79314 0.60703 0.0
C695 C 0.41722 0.76564 0.61704 0.0
C696 C 0.46271 0.74651 0.62594 0.0
C697 C 0.52668 0.755 0.62495 0.0
C698 C 0.78854 0.76511 0.58241 0.0
C699 C 0.72793 0.68874 0.60826 0.0
O700 O 0.91849 0.71103 0.62928 0.0
O701 O 0.92164 0.71632 0.60148 0.0
O702 O 0.80115 0.70899 0.63878 0.0
O703 O 0.78006 0.7587 0.63295 0.0
O704 O 0.87685 0.78351 0.61412 0.0
O705 O 0.78399 0.81245 0.61835 0.0
O706 O 0.64115 0.78755 0.59923 0.0
O707 O 0.64894 0.78734 0.62706 0.0
O708 O 0.75696 0.79142 0.5874 0.0
O709 O 0.78251 0.74231 0.59375 0.0
O710 O 0.69415 0.71602 0.61232 0.0
O711 O 0.78882 0.69079 0.60566 0.0
H712 H 1.0445 0.67659 0.63305 0.0
H713 H 0.15624 0.69099 0.63444 0.0
H714 H 0.12247 0.77765 0.60203 0.0
H715 H 1.01058 0.76291 0.6005 0.0
H716 H 0.51481 0.82308 0.59833 0.0
H717 H 0.40345 0.80849 0.60012 0.0
H718 H 0.44892 0.72482 0.63352 0.0
H719 H 0.56077 0.74006 0.63197 0.0
La720 La 0.49599 0.7321 0.7242 0.0
La721 La 0.62223 0.76921 0.72761 0.0
C722 C 0.38252 0.71422 0.72206 0.0
C723 C 0.31909 0.72808 0.72586 0.0
C724 C 0.29364 0.75464 0.71602 0.0
C725 C 0.23127 0.76492 0.71838 0.0
C726 C 0.19286 0.74907 0.73067 0.0
C727 C 0.21874 0.72312 0.7408 0.0
C728 C 0.28116 0.71273 0.73841 0.0
C729 C 0.57047 0.73429 0.69649 0.0
C730 C 0.49579 0.81099 0.72701 0.0
C731 C 0.72795 0.79183 0.7185 0.0
C732 C 0.79471 0.78919 0.72326 0.0
C733 C 0.8152 0.7665 0.73595 0.0
C734 C 0.87965 0.76198 0.73898 0.0
C735 C 0.92454 0.78009 0.72939 0.0
C736 C 0.90344 0.80323 0.71693 0.0
C737 C 0.83915 0.80775 0.71394 0.0
C738 C 0.57822 0.75905 0.75915 0.0
C739 C 0.60858 0.68842 0.73364 0.0
O740 O 0.41387 0.72859 0.70954 0.0
O741 O 0.41881 0.70645 0.73513 0.0
O742 O 0.53799 0.70827 0.70117 0.0
O743 O 0.55992 0.75775 0.70716 0.0
O744 O 0.4669 0.78263 0.73067 0.0
O745 O 0.5566 0.81153 0.72296 0.0
O746 O 0.69042 0.80762 0.72929 0.0
O747 O 0.70269 0.76417 0.7123 0.0
O748 O 0.63111 0.77371 0.75563 0.0
O749 O 0.55282 0.75069 0.74495 0.0
O750 O 0.64539 0.71433 0.72913 0.0
O751 O 0.54734 0.69158 0.73537 0.0
H752 H 0.32123 0.76694 0.70614 0.0
H753 H 0.21248 0.78449 0.71011 0.0
H754 H 0.19029 0.71045 0.75038 0.0
H755 H 0.2993 0.69205 0.74608 0.0
H756 H 0.78147 0.75174 0.74318 0.0
H757 H 0.89445 0.74397 0.74865 0.0
H758 H 0.93663 0.81692 0.709 0.0
H759 H 0.82417 0.82505 0.70394 0.0
La760 La 0.83786 0.51313 0.7288 0.0
La761 La 0.71239 0.47266 0.73046 0.0
C762 C 0.948 0.53681 0.73021 0.0
C763 C 1.01399 0.52545 0.73157 0.0
C764 C 0.0606 0.54439 0.72329 0.0
C765 C 0.12334 0.53387 0.72356 0.0
C766 C 0.14103 0.50398 0.73208 0.0
C767 C 0.0942 0.48511 0.74055 0.0
C768 C 1.03122 0.49588 0.74037 0.0
C769 C 0.76791 0.50929 0.7003 0.0
C770 C 0.8418 0.43288 0.72799 0.0
C771 C 0.60634 0.4509 0.72099 0.0
C772 C 0.53899 0.45826 0.72459 0.0
C773 C 0.50052 0.43395 0.73252 0.0
C774 C 0.43585 0.43985 0.73469 0.0
C775 C 0.40837 0.47007 0.72882 0.0
C776 C 0.44698 0.49449 0.72111 0.0
C777 C 0.51136 0.48872 0.71903 0.0
C778 C 0.75276 0.48454 0.76235 0.0
C779 C 0.71833 0.55363 0.7364 0.0
O780 O 0.91921 0.52895 0.71585 0.0
O781 O 0.91158 0.53319 0.74373 0.0
O782 O 0.79839 0.53599 0.70521 0.0
O783 O 0.77814 0.48622 0.71112 0.0
O784 O 0.8714 0.46163 0.73093 0.0
O785 O 0.77975 0.43126 0.72572 0.0
O786 O 0.63988 0.43648 0.73313 0.0
O787 O 0.63772 0.4747 0.7131 0.0
O788 O 0.70178 0.46835 0.75849 0.0
O789 O 0.7782 0.493 0.74825 0.0
O790 O 0.68523 0.52674 0.73134 0.0
O791 O 0.7794 0.55228 0.73912 0.0
H792 H 1.04836 0.56733 0.71645 0.0
H793 H 0.15816 0.54921 0.71708 0.0
H794 H 0.10596 0.46172 0.747 0.0
H795 H 0.99598 0.48104 0.74695 0.0
H796 H 0.52024 0.41009 0.73673 0.0
H797 H 0.40705 0.4204 0.74049 0.0
H798 H 0.42716 0.51807 0.71655 0.0
H799 H 0.53915 0.50802 0.71276 0.0
La800 La 0.48073 0.5147 0.48271 0.0
La801 La 0.59947 0.47865 0.47572 0.0
C802 C 0.3693 0.53734 0.48219 0.0
C803 C 0.30316 0.52612 0.48155 0.0
C804 C 0.25951 0.54187 0.49252 0.0
C805 C 0.19585 0.53337 0.49179 0.0
C806 C 0.17438 0.50882 0.48006 0.0
C807 C 0.21815 0.49296 0.46904 0.0
C808 C 0.28212 0.50143 0.46981 0.0
C809 C 0.55239 0.51045 0.51052 0.0
C810 C 0.48928 0.43348 0.48542 0.0
C811 C 0.70952 0.45524 0.47213 0.0
C812 C 0.77603 0.46552 0.47304 0.0
C813 C 0.8196 0.44943 0.46217 0.0
C814 C 0.88356 0.45725 0.46318 0.0
C815 C 0.9053 0.48117 0.4752 0.0
C816 C 0.86132 0.4979 0.48583 0.0
C817 C 0.79714 0.49015 0.48476 0.0
C818 C 0.51795 0.48109 0.44958 0.0
C819 C 0.60172 0.55786 0.47684 0.0
O820 O 0.40036 0.53086 0.49631 0.0
O821 O 0.40386 0.53279 0.46843 0.0
O822 O 0.5183 0.53633 0.50634 0.0
O823 O 0.54564 0.48781 0.49902 0.0
O824 O 0.453 0.46041 0.48257 0.0
O825 O 0.5507 0.43617 0.48593 0.0
O826 O 0.67637 0.46784 0.45952 0.0
O827 O 0.67786 0.45445 0.4866 0.0
O828 O 0.5521 0.45516 0.45347 0.0
O829 O 0.53171 0.50469 0.45987 0.0
O830 O 0.63304 0.52974 0.47966 0.0
O831 O 0.53962 0.55771 0.47535 0.0
H832 H 0.2746 0.56122 0.50154 0.0
H833 H 0.16316 0.54655 0.50017 0.0
H834 H 0.20288 0.47395 0.45987 0.0
H835 H 0.31485 0.48894 0.46116 0.0
H836 H 0.80419 0.43038 0.45303 0.0
H837 H 0.91626 0.44397 0.45484 0.0
H838 H 0.87659 0.51695 0.49497 0.0
H839 H 0.76423 0.50311 0.49317 0.0
La840 La 0.38568 0.21879 0.4805 0.0
La841 La 0.25935 0.25902 0.47984 0.0
C842 C 0.49184 0.19792 0.47054 0.0
C843 C 0.55891 0.20511 0.47442 0.0
C844 C 0.59821 0.17965 0.48103 0.0
C845 C 0.66268 0.18557 0.48343 0.0
C846 C 0.68908 0.21698 0.47909 0.0
C847 C 0.64961 0.24255 0.47273 0.0
C848 C 0.58538 0.23676 0.47046 0.0
C849 C 0.34665 0.22912 0.5127 0.0
C850 C 0.37877 0.29933 0.48738 0.0
C851 C 0.14921 0.28261 0.48243 0.0
C852 C 0.08325 0.27121 0.48325 0.0
C853 C 1.03664 0.2916 0.47587 0.0
C854 C 0.97384 0.28133 0.47584 0.0
C855 C 0.95612 0.25026 0.48314 0.0
C856 C 1.00298 0.22987 0.49067 0.0
C857 C 0.06601 0.24037 0.49082 0.0
C858 C 0.32803 0.25665 0.45105 0.0
C859 C 0.25687 0.17885 0.47699 0.0
O860 O 0.45837 0.1824 0.48233 0.0
O861 O 0.46028 0.22235 0.46317 0.0
O862 O 0.39738 0.21299 0.50843 0.0
O863 O 0.32041 0.23816 0.49881 0.0
O864 O 0.4121 0.27281 0.48187 0.0
O865 O 0.3179 0.29776 0.49037 0.0
O866 O 0.17807 0.27752 0.46774 0.0
O867 O 0.18554 0.27626 0.49568 0.0
O868 O 0.29709 0.28303 0.45632 0.0
O869 O 0.31867 0.23318 0.46166 0.0
O870 O 0.2264 0.20725 0.48038 0.0
O871 O 0.3191 0.17763 0.475 0.0
H872 H 0.5793 0.15494 0.48402 0.0
H873 H 0.69221 0.1653 0.48818 0.0
H874 H 0.66865 0.26705 0.46937 0.0
H875 H 0.55682 0.25703 0.46529 0.0
H876 H 1.0489 0.31554 0.47002 0.0
H877 H 0.93898 0.2978 0.4701 0.0
H878 H 0.99119 0.20556 0.49616 0.0
H879 H 0.10124 0.22438 0.4967 0.0
La880 La 0.46252 0.22234 0.36523 0.0
La881 La 0.59 0.26138 0.36783 0.0
C882 C 0.35558 0.2007 0.37384 0.0
C883 C 0.28924 0.20731 0.36903 0.0
C884 C 0.24742 0.18023 0.36677 0.0
C885 C 0.1835 0.18624 0.36349 0.0
C886 C 0.1601 0.21949 0.36241 0.0
C887 C 0.20234 0.24654 0.36452 0.0
C888 C 0.26611 0.24054 0.3677 0.0
C889 C 0.50529 0.23463 0.33366 0.0
C890 C 0.47185 0.30327 0.3604 0.0
C891 C 0.70076 0.28419 0.36627 0.0
C892 C 0.76602 0.27312 0.36306 0.0
C893 C 0.81461 0.29676 0.36486 0.0
C894 C 0.87741 0.28685 0.363 0.0
C895 C 0.89293 0.25298 0.35941 0.0
C896 C 0.84411 0.22931 0.35744 0.0
C897 C 0.78104 0.23939 0.35909 0.0
C898 C 0.51823 0.25768 0.396 0.0
C899 C 0.59039 0.18139 0.36803 0.0
O900 O 0.39138 0.18553 0.36237 0.0
O901 O 0.38488 0.22551 0.38165 0.0
O902 O 0.4533 0.21909 0.33713 0.0
O903 O 0.53047 0.24224 0.34795 0.0
O904 O 0.43692 0.27656 0.36459 0.0
O905 O 0.53323 0.30177 0.3584 0.0
O906 O 0.67448 0.27309 0.38042 0.0
O907 O 0.66188 0.28377 0.35315 0.0
O908 O 0.55132 0.28387 0.39174 0.0
O909 O 0.52779 0.23493 0.38489 0.0
O910 O 0.6214 0.2097 0.36535 0.0
O911 O 0.52809 0.18015 0.36969 0.0
H912 H 0.264 0.1544 0.36783 0.0
H913 H 0.15226 0.16484 0.36193 0.0
H914 H 0.18584 0.27246 0.36425 0.0
H915 H 0.29698 0.26198 0.36954 0.0
H916 H 0.80402 0.32289 0.36799 0.0
H917 H 0.91401 0.30553 0.36485 0.0
H918 H 0.85478 0.20305 0.35465 0.0
H919 H 0.7442 0.22083 0.35746 0.0
La920 La 0.36539 0.51816 0.36555 0.0
La921 La 0.24574 0.48017 0.36903 0.0
C922 C 0.47639 0.5399 0.36923 0.0
C923 C 0.54135 0.52696 0.37099 0.0
C924 C 0.56717 0.50403 0.35902 0.0
C925 C 0.63073 0.49499 0.35995 0.0
C926 C 0.66957 0.50841 0.37294 0.0
C927 C 0.64316 0.53046 0.38523 0.0
C928 C 0.57968 0.53967 0.38424 0.0
C929 C 0.3017 0.51454 0.33631 0.0
C930 C 0.3607 0.43722 0.36081 0.0
C931 C 0.13619 0.45555 0.36765 0.0
C932 C 0.06926 0.46548 0.36884 0.0
C933 C 1.04556 0.4843 0.38283 0.0
C934 C 0.98118 0.49165 0.38397 0.0
C935 C 0.93924 0.48013 0.37121 0.0
C936 C 0.96335 0.46153 0.3572 0.0
C937 C 1.02756 0.45427 0.35605 0.0
C938 C 0.31851 0.48235 0.397 0.0
C939 C 0.24181 0.56006 0.37106 0.0
O940 O 0.44882 0.53574 0.35432 0.0
O941 O 0.43797 0.53448 0.38207 0.0
O942 O 0.33405 0.54041 0.34145 0.0
O943 O 0.30666 0.49141 0.34751 0.0
O944 O 0.39461 0.46404 0.36545 0.0
O945 O 0.29987 0.43973 0.3584 0.0
O946 O 0.16996 0.45718 0.38171 0.0
O947 O 0.16733 0.46597 0.35412 0.0
O948 O 0.28628 0.4563 0.39209 0.0
O949 O 0.3071 0.50616 0.3867 0.0
O950 O 0.21112 0.53164 0.36846 0.0
O951 O 0.30407 0.56098 0.372 0.0
H952 H 0.53871 0.49367 0.34871 0.0
H953 H 0.64981 0.47779 0.35038 0.0
H954 H 0.6721 0.54154 0.39525 0.0
H955 H 0.56089 0.55748 0.39357 0.0
H956 H 0.07662 0.49326 0.39292 0.0
H957 H 0.96437 0.50664 0.39475 0.0
H958 H 0.93232 0.45208 0.34722 0.0
H959 H 1.04463 0.43945 0.34523 0.0
La960 La 0.50483 0.01568 0.11447 0.0
La961 La 0.62244 0.97545 0.11018 0.0
C962 C 0.3945 0.03986 0.11373 0.0
C963 C 0.32775 0.02872 0.11426 0.0
C964 C 0.28853 0.04073 0.12753 0.0
C965 C 0.22438 0.0328 0.12779 0.0
C966 C 0.19752 0.01289 0.11467 0.0
C967 C 0.23709 0.00011 0.1016 0.0
C968 C 0.30145 0.00799 0.10136 0.0
C969 C 0.57659 0.00987 0.14245 0.0
C970 C 0.49638 0.93589 0.11481 0.0
C971 C 0.73279 0.95157 0.113 0.0
C972 C 0.79893 0.96311 0.11394 0.0
C973 C 0.84237 0.94431 0.12359 0.0
C974 C 0.90603 0.95335 0.12394 0.0
C975 C 0.9278 0.9815 0.11466 0.0
C976 C 0.88396 0.00049 0.10508 0.0
C977 C 0.82018 0.99144 0.10476 0.0
C978 C 0.55941 0.98369 0.081 0.0
C979 C 0.62275 0.05728 0.1083 0.0
O980 O 0.42731 0.03608 0.12785 0.0
O981 O 0.42764 0.03277 0.09993 0.0
O982 O 0.54508 0.03668 0.13827 0.0
O983 O 0.56454 0.98705 0.13152 0.0
O984 O 0.46825 0.96494 0.11198 0.0
O985 O 0.55844 0.93369 0.11631 0.0
O986 O 0.70356 0.95577 0.09835 0.0
O987 O 0.69649 0.95864 0.12613 0.0
O988 O 0.58848 0.95627 0.08553 0.0
O989 O 0.56653 0.0054 0.0929 0.0
O990 O 0.65453 0.02892 0.11153 0.0
O991 O 0.56147 0.05702 0.1061 0.0
H992 H 0.30741 0.05672 0.13764 0.0
H993 H 0.19574 0.04232 0.13829 0.0
H994 H 0.21797 0.98458 0.09134 0.0
H995 H 0.3303 -0.00178 0.09096 0.0
H996 H 0.82714 0.92227 0.13071 0.0
H997 H 0.93833 0.93827 0.1315 0.0
H998 H 0.89914 0.0219 0.09749 0.0
H999 H 0.78771 0.00626 0.09711 0.0
La1000 La 0.85175 0.23402 0.11824 0.0
La1001 La 0.72485 0.27177 0.11609 0.0
C1002 C 0.96404 0.21321 0.11748 0.0
C1003 C 1.02798 0.22692 0.11509 0.0
C1004 C 0.07456 0.20648 0.10758 0.0
C1005 C 0.13705 0.21748 0.10688 0.0
C1006 C 0.15416 0.24909 0.11378 0.0
C1007 C 0.10691 0.27006 0.12072 0.0
C1008 C 1.04446 0.25904 0.12143 0.0
C1009 C 0.78314 0.23871 0.14707 0.0
C1010 C 0.8516 0.31357 0.11656 0.0
C1011 C 0.61917 0.29434 0.12547 0.0
C1012 C 0.55233 0.29128 0.12071 0.0
C1013 C 0.50987 0.3164 0.12603 0.0
C1014 C 0.44513 0.31191 0.12378 0.0
C1015 C 0.42168 0.28204 0.11628 0.0
C1016 C 0.4646 0.25762 0.1102 0.0
C1017 C 0.52939 0.26217 0.11241 0.0
C1018 C 0.76429 0.25991 0.08416 0.0
C1019 C 0.7362 0.19067 0.11137 0.0
O1020 O 0.93464 0.22275 0.13151 0.0
O1021 O 0.92679 0.21269 0.10402 0.0
O1022 O 0.81534 0.21238 0.14241 0.0
O1023 O 0.79097 0.26119 0.13578 0.0
O1024 O 0.88196 0.28509 0.11377 0.0
O1025 O 0.7903 0.31435 0.12006 0.0
O1026 O 0.65636 0.31037 0.11478 0.0
O1027 O 0.64522 0.26688 0.1316 0.0
O1028 O 0.71253 0.27524 0.08822 0.0
O1029 O 0.79143 0.25188 0.09813 0.0
O1030 O 0.70063 0.21717 0.11578 0.0
O1031 O 0.79705 0.19304 0.10871 0.0
H1032 H 0.06294 0.18155 0.1027 0.0
H1033 H 0.17239 0.20071 0.10151 0.0
H1034 H 0.11835 0.29485 0.12579 0.0
H1035 H 1.00936 0.27533 0.12727 0.0
H1036 H 0.52665 0.33906 0.13242 0.0
H1037 H 0.41332 0.33151 0.12823 0.0
H1038 H 0.44794 0.23437 0.10437 0.0
H1039 H 0.56141 0.24244 0.1082 0.0
La1040 La 0.51197 0.23574 0.22814 0.0
La1041 La 0.63736 0.27491 0.2323 0.0
C1042 C 0.40163 0.2126 0.22596 0.0
C1043 C 0.33566 0.2219 0.22934 0.0
C1044 C 0.28814 0.20178 0.22223 0.0
C1045 C 0.2251 0.21128 0.22377 0.0
C1046 C 0.20812 0.24133 0.23238 0.0
C1047 C 0.25593 0.26111 0.2399 0.0
C1048 C 0.31923 0.25132 0.23847 0.0
C1049 C 0.58812 0.23995 0.20083 0.0
C1050 C 0.50901 0.31525 0.23069 0.0
C1051 C 0.74412 0.29788 0.22434 0.0
C1052 C 0.81098 0.28953 0.22782 0.0
C1053 C 0.85125 0.31391 0.23504 0.0
C1054 C 0.91567 0.30715 0.237 0.0
C1055 C 0.94098 0.27597 0.23161 0.0
C1056 C 0.90048 0.25143 0.22467 0.0
C1057 C 0.83631 0.25806 0.22283 0.0
C1058 C 0.59062 0.26262 0.2634 0.0
C1059 C 0.6281 0.1937 0.23698 0.0
O1060 O 0.42964 0.22944 0.21366 0.0
O1061 O 0.43846 0.20771 0.23927 0.0
O1062 O 0.55654 0.21334 0.20508 0.0
O1063 O 0.57589 0.26281 0.21169 0.0
O1064 O 0.47972 0.28649 0.23364 0.0
O1065 O 0.57072 0.31667 0.22784 0.0
O1066 O 0.71026 0.31003 0.2371 0.0
O1067 O 0.71282 0.27587 0.21511 0.0
O1068 O 0.64325 0.278 0.26049 0.0
O1069 O 0.56741 0.25468 0.2489 0.0
O1070 O 0.66318 0.22047 0.23281 0.0
O1071 O 0.5667 0.19575 0.23889 0.0
H1072 H 0.29988 0.17893 0.21515 0.0
H1073 H 0.18954 0.19523 0.21803 0.0
H1074 H 0.24469 0.28462 0.24642 0.0
H1075 H 0.35539 0.26693 0.24416 0.0
H1076 H 0.83313 0.33849 0.23881 0.0
H1077 H 0.94599 0.32668 0.24218 0.0
H1078 H 0.91869 0.22715 0.22047 0.0
H1079 H 0.80692 0.2387 0.21711 0.0
La1080 La 0.84227 0.01201 0.2248 0.0
La1081 La 0.71381 0.97604 0.22688 0.0
C1082 C 0.95387 0.0335 0.22616 0.0
C1083 C 1.01825 0.02123 0.22917 0.0
C1084 C 0.0684 0.04346 0.22645 0.0
C1085 C 0.13038 0.03229 0.22816 0.0
C1086 C 0.14342 -0.00147 0.23249 0.0
C1087 C 0.09301 0.97633 0.23553 0.0
C1088 C 1.03076 0.98768 0.23396 0.0
C1089 C 0.7716 0.01007 0.19627 0.0
C1090 C 0.83969 0.93272 0.22415 0.0
C1091 C 0.60722 0.95465 0.21784 0.0
C1092 C 0.5406 0.95918 0.22289 0.0
C1093 C 0.50295 0.93078 0.22616 0.0
C1094 C 0.43853 0.93452 0.22951 0.0
C1095 C 0.41038 0.96677 0.22942 0.0
C1096 C 0.44866 0.99519 0.2266 0.0
C1097 C 0.51296 0.99149 0.22343 0.0
C1098 C 0.75476 0.98609 0.25882 0.0
C1099 C 0.72856 0.05662 0.23285 0.0
O1100 O 0.92674 0.02281 0.21203 0.0
O1101 O 0.91537 0.03359 0.23936 0.0
O1102 O 0.80512 0.03574 0.20113 0.0
O1103 O 0.77943 0.98691 0.20716 0.0
O1104 O 0.87195 0.96033 0.22736 0.0
O1105 O 0.7775 0.93279 0.22213 0.0
O1106 O 0.64392 0.9384 0.2286 0.0
O1107 O 0.63506 0.98096 0.21104 0.0
O1108 O 0.7021 0.97182 0.25476 0.0
O1109 O 0.78197 0.99399 0.24484 0.0
O1110 O 0.69142 0.03112 0.22794 0.0
O1111 O 0.78904 0.05256 0.23546 0.0
H1112 H 0.05962 0.06943 0.22272 0.0
H1113 H 0.16827 0.04987 0.22565 0.0
H1114 H 0.10178 0.95028 0.23908 0.0
H1115 H 0.99261 0.97023 0.23629 0.0
H1116 H 0.52318 0.90562 0.22585 0.0
H1117 H 0.41077 0.91216 0.23205 0.0
H1118 H 0.42855 0.02038 0.22634 0.0
H1119 H 0.54061 0.01395 0.22102 0.0
La1120 La 0.47728 0.02064 0.97839 0.0
La1121 La 0.59509 0.98188 0.97364 0.0
C1122 C 0.36649 0.04406 0.97608 0.0
C1123 C 0.30054 0.03238 0.97499 0.0
C1124 C 0.27745 0.00634 0.98551 0.0
C1125 C 0.21373 -0.00263 0.98494 0.0
C1126 C 0.17185 0.01417 0.97381 0.0
C1127 C 0.19538 0.03995 0.96317 0.0
C1128 C 0.25902 0.04889 0.96375 0.0
C1129 C 0.54244 0.01494 1.00731 0.0
C1130 C 0.47981 0.93912 0.98116 0.0
C1131 C 0.70546 0.95779 0.97308 0.0
C1132 C 0.77207 0.96863 0.97402 0.0
C1133 C 0.79599 0.99465 0.96359 0.0
C1134 C 0.86045 0.00215 0.96369 0.0
C1135 C 0.9023 0.9838 0.97417 0.0
C1136 C 0.87775 0.95858 0.98499 0.0
C1137 C 0.81349 0.951 0.98483 0.0
C1138 C 0.52062 0.98644 0.94601 0.0
C1139 C 0.60163 0.06148 0.97409 0.0
O1140 O 0.39607 0.0393 0.99062 0.0
O1141 O 0.40259 0.03779 0.96283 0.0
O1142 O 0.51193 0.04165 1.00244 0.0
O1143 O 0.53592 0.99227 0.99581 0.0
O1144 O 0.44659 0.96692 0.9778 0.0
O1145 O 0.54123 0.94019 0.98278 0.0
O1146 O 0.67364 0.96614 0.95931 0.0
O1147 O 0.67168 0.96073 0.98712 0.0
O1148 O 0.55168 0.95964 0.9504 0.0
O1149 O 0.53361 0.00952 0.95669 0.0
O1150 O 0.63053 0.03274 0.97723 0.0
O1151 O 0.53985 0.06265 0.97181 0.0
H1152 H 0.30835 0.99331 0.99438 0.0
H1153 H 0.19695 0.97782 0.99352 0.0
H1154 H 0.16446 0.05326 0.95441 0.0
H1155 H 0.27572 0.06911 0.95555 0.0
H1156 H 0.76519 0.00878 0.95514 0.0
H1157 H 0.87778 0.02179 0.95524 0.0
H1158 H 0.90829 0.9446 0.99357 0.0
H1159 H 0.79622 0.93091 0.99302 0.0
La1160 La 0.38259 0.72378 0.97757 0.0
La1161 La 0.25512 0.76116 0.97473 0.0
C1162 C 0.48909 0.70141 0.96885 0.0
C1163 C 0.55527 0.70697 0.97378 0.0
C1164 C 0.59923 0.68086 0.97155 0.0
C1165 C 0.66322 0.68666 0.97454 0.0
C1166 C 0.68453 0.7188 0.97972 0.0
C1167 C 0.64005 0.74474 0.98229 0.0
C1168 C 0.57603 0.73883 0.97946 0.0
C1169 C 0.3405 0.73635 1.0092 0.0
C1170 C 0.36991 0.8047 0.9823 0.0
C1171 C 0.14342 0.78277 0.97436 0.0
C1172 C 0.07895 0.77122 0.97805 0.0
C1173 C 1.03288 0.79515 0.98246 0.0
C1174 C 0.97002 0.78546 0.98432 0.0
C1175 C 0.95208 0.75155 0.98188 0.0
C1176 C 0.99869 0.72747 0.97784 0.0
C1177 C 0.06155 0.73722 0.97592 0.0
C1178 C 0.32766 0.75722 0.94658 0.0
C1179 C 0.25613 0.68179 0.97695 0.0
O1180 O 0.45274 0.68632 0.98011 0.0
O1181 O 0.46107 0.72709 0.96149 0.0
O1182 O 0.39299 0.72127 1.0056 0.0
O1183 O 0.31442 0.7436 0.99501 0.0
O1184 O 0.40604 0.77846 0.9778 0.0
O1185 O 0.30916 0.80175 0.98498 0.0
O1186 O 0.17139 0.76856 0.96113 0.0
O1187 O 0.18145 0.78675 0.98751 0.0
O1188 O 0.29529 0.78359 0.95109 0.0
O1189 O 0.31781 0.73457 0.95762 0.0
O1190 O 0.22563 0.71013 0.98018 0.0
O1191 O 0.31739 0.6813 0.9734 0.0
H1192 H 0.5843 0.65618 0.96708 0.0
H1193 H 0.69621 0.66611 0.97252 0.0
H1194 H 0.65487 0.76999 0.98587 0.0
H1195 H 0.54299 0.75945 0.98119 0.0
H1196 H 1.04523 0.82158 0.98394 0.0
H1197 H 0.93513 0.80474 0.98704 0.0
H1198 H 0.98632 0.70117 0.97589 0.0
H1199 H 0.09619 0.71841 0.97231 0.0
La1200 La 0.46538 0.72146 0.86272 0.0
La1201 La 0.59208 0.76064 0.86402 0.0
C1202 C 0.36095 0.69948 0.87333 0.0
C1203 C 0.29337 0.70296 0.86955 0.0
C1204 C 0.27185 0.72055 0.85502 0.0
C1205 C 0.20722 0.72583 0.85254 0.0
C1206 C 0.16306 0.7137 0.86457 0.0
C1207 C 0.18521 0.69601 0.87906 0.0
C1208 C 0.24963 0.69063 0.88148 0.0
C1209 C 0.50341 0.73265 0.83063 0.0
C1210 C 0.47418 0.80229 0.85666 0.0
C1211 C 0.70318 0.78245 0.86117 0.0
C1212 C 0.7685 0.76922 0.86085 0.0
C1213 C 0.79364 0.751 0.87478 0.0
C1214 C 0.85658 0.74052 0.87463 0.0
C1215 C 0.89583 0.74803 0.86057 0.0
C1216 C 0.87067 0.7662 0.84664 0.0
C1217 C 0.80765 0.77661 0.84677 0.0
C1218 C 0.52302 0.75743 0.89276 0.0
C1219 C 0.59427 0.68061 0.86617 0.0
O1220 O 0.396 0.68355 0.86196 0.0
O1221 O 0.3882 0.72678 0.87926 0.0
O1222 O 0.45215 0.71706 0.83482 0.0
O1223 O 0.53071 0.74099 0.84455 0.0
O1224 O 0.44003 0.77593 0.86188 0.0
O1225 O 0.53496 0.80005 0.85371 0.0
O1226 O 0.67258 0.78067 0.87579 0.0
O1227 O 0.66727 0.77506 0.84796 0.0
O1228 O 0.55444 0.78387 0.88792 0.0
O1229 O 0.53232 0.73443 0.88177 0.0
O1230 O 0.62548 0.70906 0.86412 0.0
O1231 O 0.53171 0.67925 0.86693 0.0
H1232 H 0.30501 0.73066 0.84578 0.0
H1233 H 0.19178 0.73963 0.84127 0.0
H1234 H 0.1529 0.6872 0.88885 0.0
H1235 H 0.26545 0.67753 0.89294 0.0
H1236 H 0.76507 0.7453 0.88595 0.0
H1237 H 0.875 0.72723 0.88572 0.0
H1238 H 0.89983 0.7724 0.83565 0.0
H1239 H 0.78967 0.79088 0.83594 0.0
La1240 La 0.38229 0.01972 0.86221 0.0
La1241 La 0.25528 0.98207 0.86376 0.0
C1242 C 0.48654 0.04225 0.87261 0.0
C1243 C 0.55401 0.03916 0.86867 0.0
C1244 C 0.57714 0.0125 0.85847 0.0
C1245 C 0.64208 0.00763 0.85663 0.0
C1246 C 0.68483 0.02923 0.86504 0.0
C1247 C 0.66127 0.05669 0.87466 0.0
C1248 C 0.59642 0.06151 0.8765 0.0
C1249 C 0.34416 0.0086 0.83015 0.0
C1250 C 0.37022 0.93871 0.8564 0.0
C1251 C 0.14338 0.96101 0.86276 0.0
C1252 C 0.07914 0.97498 0.86137 0.0
C1253 C 0.06181 0.005 0.86992 0.0
C1254 C 0.99909 0.01584 0.86993 0.0
C1255 C 0.95257 0.99687 0.86141 0.0
C1256 C 0.97055 0.9676 0.85229 0.0
C1257 C 1.03322 0.95672 0.85233 0.0
C1258 C 0.32423 0.98615 0.89254 0.0
C1259 C 0.25452 0.06165 0.86304 0.0
O1260 O 0.45105 0.05801 0.86137 0.0
O1261 O 0.45983 0.01484 0.87853 0.0
O1262 O 0.39609 0.02357 0.83434 0.0
O1263 O 0.31653 0.0005 0.84403 0.0
O1264 O 0.40583 0.96467 0.86163 0.0
O1265 O 0.31005 0.94221 0.85311 0.0
O1266 O 0.17383 0.96794 0.877 0.0
O1267 O 0.17955 0.96298 0.84913 0.0
O1268 O 0.29366 0.95948 0.88761 0.0
O1269 O 0.31509 0.00879 0.88146 0.0
O1270 O 0.22409 0.03325 0.86032 0.0
O1271 O 0.31615 0.06236 0.86615 0.0
H1272 H 0.54505 0.99489 0.85237 0.0
H1273 H 0.65888 0.98627 0.84914 0.0
H1274 H 0.69302 0.07416 0.88099 0.0
H1275 H 0.57939 0.08221 0.88444 0.0
H1276 H 0.09645 0.01974 0.87688 0.0
H1277 H 0.98685 0.03889 0.87675 0.0
H1278 H 0.93574 0.95247 0.84563 0.0
H1279 H 1.04553 0.93348 0.84568 0.0
C1280 C 0.90959 0.40266 0.1264 0.0
C1281 C 0.97019 0.40294 0.11896 0.0
C1282 C 0.87063 0.37407 0.1253 0.0
C1283 C 0.89049 0.34483 0.11651 0.0
H1284 H 0.89212 0.42478 0.13317 0.0
H1285 H 0.8251 0.3748 0.13156 0.0
S1286 S 1.04209 0.33451 0.09289 0.0
N1287 N 1.04648 0.37257 0.1016 0.0
N1288 N 0.97327 0.31928 0.09886 0.0
C1289 C 0.95049 0.34529 0.10855 0.0
C1290 C 0.99039 0.37417 0.10999 0.0
C1291 C 0.47957 0.87352 0.11136 0.0
C1292 C 0.45552 0.90548 0.11563 0.0
C1293 C 0.4401 0.84522 0.11042 0.0
C1294 C 0.37483 0.84745 0.11391 0.0
H1295 H 0.52892 0.87044 0.10824 0.0
H1296 H 0.46143 0.82137 0.10677 0.0
S1297 S 0.28915 0.92525 0.12692 0.0
N1298 N 0.36255 0.93766 0.12424 0.0
N1299 N 0.28887 0.88438 0.12253 0.0
C1300 C 0.35044 0.87918 0.1186 0.0
C1301 C 0.39061 0.90814 0.11947 0.0
C1302 C 0.85533 0.87134 0.23057 0.0
C1303 C 0.87694 0.90113 0.22294 0.0
C1304 C 0.89425 0.84273 0.2316 0.0
C1305 C 0.95608 0.84252 0.22484 0.0
H1306 H 0.80898 0.87047 0.23635 0.0
H1307 H 0.8757 0.82076 0.23804 0.0
S1308 S 1.03279 0.91384 0.20222 0.0
N1309 N 0.96272 0.92852 0.20762 0.0
N1310 N 1.03547 0.87468 0.20948 0.0
C1311 C 0.97765 0.87207 0.21682 0.0
C1312 C 0.93812 0.90128 0.21584 0.0
C1313 C 0.36509 0.37213 0.23541 0.0
C1314 C 0.38392 0.40239 0.22767 0.0
C1315 C 0.4067 0.34469 0.23668 0.0
C1316 C 0.46863 0.34607 0.23005 0.0
H1317 H 0.31866 0.36998 0.24105 0.0
H1318 H 0.39003 0.32228 0.24313 0.0
S1319 S 0.5393 0.41916 0.20742 0.0
N1320 N 0.46779 0.43198 0.21259 0.0
N1321 N 0.54541 0.3802 0.21482 0.0
C1322 C 0.48768 0.37611 0.22202 0.0
C1323 C 0.44542 0.4042 0.22082 0.0
C1324 C 0.11745 0.62239 0.98389 0.0
C1325 C 0.13773 0.59202 0.97636 0.0
C1326 C 0.15682 0.65083 0.98431 0.0
C1327 C 0.21778 0.65029 0.97697 0.0
H1328 H 0.07164 0.62393 0.98997 0.0
H1329 H 0.13922 0.67338 0.99065 0.0
S1330 S 0.2907 0.57749 0.95429 0.0
N1331 N 0.22144 0.56332 0.9606 0.0
N1332 N 0.2947 0.61697 0.96115 0.0
C1333 C 0.23803 0.62018 0.96909 0.0
C1334 C 0.19815 0.59109 0.9688 0.0
C1335 C 0.74307 0.1198 0.9795 0.0
C1336 C 0.71931 0.15155 0.97482 0.0
C1337 C 0.70468 0.09095 0.97904 0.0
C1338 C 0.64101 0.09261 0.97378 0.0
H1339 H 0.791 0.11737 0.98406 0.0
H1340 H 0.72516 0.06722 0.98316 0.0
S1341 S 0.55922 0.16909 0.95779 0.0
N1342 N 0.63006 0.18251 0.96309 0.0
N1343 N 0.55832 0.12834 0.96225 0.0
C1344 C 0.61763 0.124 0.96836 0.0
C1345 C 0.65664 0.1534 0.96887 0.0
C1346 C 0.19614 0.15062 0.87351 0.0
C1347 C 0.13521 0.15107 0.86632 0.0
C1348 C 0.23541 0.1221 0.87208 0.0
C1349 C 0.21519 0.09289 0.86336 0.0
H1350 H 0.21344 0.17245 0.88048 0.0
H1351 H 0.28135 0.12278 0.87809 0.0
S1352 S 0.06069 0.08213 0.84129 0.0
N1353 N 0.05725 0.12043 0.84977 0.0
N1354 N 0.13034 0.06702 0.84667 0.0
C1355 C 0.15426 0.09327 0.85594 0.0
C1356 C 0.11436 0.12221 0.85758 0.0
C1357 C 0.61495 0.61969 0.85911 0.0
C1358 C 0.63317 0.64954 0.86751 0.0
C1359 C 0.65552 0.59166 0.85834 0.0
C1360 C 0.71566 0.59211 0.86614 0.0
H1361 H 0.57003 0.61836 0.85256 0.0
H1362 H 0.6396 0.56953 0.85134 0.0
S1363 S 0.783 0.66336 0.89116 0.0
N1364 N 0.71383 0.67743 0.88466 0.0
N1365 N 0.78939 0.6246 0.88338 0.0
C1366 C 0.73372 0.6216 0.87493 0.0
C1367 C 0.6926 0.65025 0.87562 0.0
C1368 C 0.98785 0.87079 0.61678 0.0
C1369 C 0.96073 0.90315 0.61699 0.0
C1370 C 0.9503 0.84166 0.61718 0.0
C1371 C 0.88391 0.84357 0.61784 0.0
H1372 H 1.03839 0.86782 0.61588 0.0
H1373 H 0.97392 0.8174 0.6167 0.0
S1374 S 0.78942 0.92242 0.62018 0.0
N1375 N 0.86295 0.93545 0.61914 0.0
N1376 N 0.79307 0.88075 0.6197 0.0
C1377 C 0.85624 0.87579 0.61869 0.0
C1378 C 0.89441 0.90551 0.6183 0.0
C1379 C 0.37163 0.37118 0.62215 0.0
C1380 C 0.39594 0.33959 0.61718 0.0
C1381 C 0.41018 0.39991 0.62281 0.0
C1382 C 0.47482 0.39832 0.61864 0.0
H1383 H 0.32242 0.37388 0.6255 0.0
H1384 H 0.38881 0.4237 0.62656 0.0
S1385 S 0.56236 0.32203 0.60458 0.0
N1386 N 0.4899 0.30865 0.60783 0.0
N1387 N 0.56132 0.36273 0.60929 0.0
C1388 C 0.50008 0.36694 0.61387 0.0
C1389 C 0.46092 0.33763 0.61304 0.0
C1390 C 0.98522 0.37541 0.73222 0.0
C1391 C 0.96487 0.34471 0.72513 0.0
C1392 C 0.94468 0.4034 0.73317 0.0
C1393 C 0.88216 0.40204 0.72696 0.0
H1394 H 1.03201 0.37754 0.73763 0.0
H1395 H 0.96258 0.42617 0.73912 0.0
S1396 S 0.8084 0.32832 0.70538 0.0
N1397 N 0.87964 0.31511 0.71052 0.0
N1398 N 0.8038 0.36774 0.71236 0.0
C1399 C 0.8619 0.37171 0.71935 0.0
C1400 C 0.90318 0.34314 0.71839 0.0
C1401 C 0.47834 0.87204 0.71924 0.0
C1402 C 0.45629 0.8422 0.72689 0.0
C1403 C 0.44007 0.90096 0.71827 0.0
C1404 C 0.37828 0.90128 0.72491 0.0
H1405 H 0.52518 0.87304 0.71378 0.0
H1406 H 0.45894 0.92325 0.71212 0.0
S1407 S 0.29805 0.83043 0.74676 0.0
N1408 N 0.368 0.81527 0.74166 0.0
N1409 N 0.297 0.86963 0.73956 0.0
C1410 C 0.35533 0.87173 0.73247 0.0
C1411 C 0.39417 0.84228 0.73359 0.0
C1412 C 0.11463 0.1203 0.47841 0.0
C1413 C 0.13773 0.08986 0.47158 0.0
C1414 C 0.15374 0.14865 0.4801 0.0
C1415 C 0.21756 0.14791 0.47495 0.0
H1416 H 0.06668 0.12194 0.48306 0.0
H1417 H 0.13364 0.17119 0.4858 0.0
S1418 S 0.29871 0.07528 0.45426 0.0
N1419 N 0.2271 0.06127 0.45826 0.0
N1420 N 0.30018 0.11462 0.46141 0.0
C1421 C 0.24055 0.11792 0.46751 0.0
C1422 C 0.20076 0.08897 0.46581 0.0
C1423 C 0.74146 0.61827 0.47651 0.0
C1424 C 0.71337 0.65019 0.47465 0.0
C1425 C 0.70492 0.58875 0.47705 0.0
C1426 C 0.63862 0.58979 0.47567 0.0
H1427 H 0.79196 0.61604 0.47795 0.0
H1428 H 0.72923 0.5649 0.47873 0.0
S1429 S 0.54195 0.66683 0.46924 0.0
N1430 N 0.61483 0.68086 0.47038 0.0
N1431 N 0.54691 0.62548 0.47152 0.0
C1432 C 0.61005 0.62145 0.47333 0.0
C1433 C 0.64715 0.65155 0.47279 0.0
C1434 C 0.22934 0.62229 0.36619 0.0
C1435 C 0.20384 0.59157 0.37181 0.0
C1436 C 0.19151 0.65119 0.36454 0.0
C1437 C 0.1266 0.65064 0.3685 0.0
H1438 H 0.27832 0.62377 0.36243 0.0
H1439 H 0.21351 0.67403 0.35981 0.0
S1440 S 1.03872 0.57732 0.38579 0.0
N1441 N 0.11084 0.56294 0.3828 0.0
N1442 N 1.04004 0.61721 0.37966 0.0
C1443 C 0.10118 0.6204 0.37484 0.0
C1444 C 0.13969 0.59094 0.37651 0.0
C1445 C 0.64802 0.09228 0.35947 0.0
C1446 C 0.71037 0.09276 0.36585 0.0
C1447 C 0.60814 0.12041 0.36094 0.0
C1448 C 0.62906 0.15029 0.36877 0.0
H1449 H 0.62965 0.07005 0.35304 0.0
H1450 H 0.56146 0.11911 0.35539 0.0
S1451 S 0.78509 0.16414 0.38917 0.0
N1452 N 0.78915 0.12532 0.38133 0.0
N1453 N 0.7142 0.17815 0.38423 0.0
C1454 C 0.69046 0.15095 0.37567 0.0
C1455 C 0.73115 0.12229 0.37415 0.0
C1456 C 0.15572 0.4811 0.16557 0.0
C1457 C 0.1213 0.51074 0.16178 0.0
C1458 C 0.2024 0.4806 0.17854 0.0
C1459 C 0.21608 0.50963 0.18843 0.0
H1460 H 0.14737 0.45819 0.15823 0.0
H1461 H 0.22856 0.45747 0.18068 0.0
S1462 S 0.12972 0.59101 0.18668 0.0
N1463 N 0.09809 0.56823 0.17104 0.0
N1464 N 0.18509 0.56715 0.19524 0.0
C1465 C 0.17944 0.53869 0.18551 0.0
C1466 C 0.13203 0.53922 0.17235 0.0
C1467 C 0.19192 0.76782 0.16446 0.0
C1468 C 0.2089 0.73873 0.155 0.0
C1469 C 0.1445 0.76676 0.17723 0.0
C1470 C 0.11228 0.73654 0.18112 0.0
H1471 H 0.21628 0.79143 0.16222 0.0
H1472 H 0.1338 0.7897 0.18434 0.0
S1473 S 0.13001 0.65544 0.15728 0.0
N1474 N 0.18372 0.68025 0.1487 0.0
N1475 N 0.09507 0.67813 0.17245 0.0
C1476 C 0.12634 0.70789 0.17094 0.0
C1477 C 0.17467 0.70897 0.15804 0.0
C1478 C 0.90349 0.45551 0.91631 0.0
C1479 C 0.87974 0.48597 0.90952 0.0
C1480 C 0.94993 0.45531 0.92927 0.0
C1481 C 0.97418 0.48557 0.93622 0.0
H1482 H 0.88647 0.43149 0.91145 0.0
H1483 H 0.96647 0.43116 0.93403 0.0
S1484 S 0.92764 0.57227 0.92308 0.0
N1485 N 0.88387 0.54731 0.91091 0.0
N1486 N 0.97103 0.54696 0.93513 0.0
C1487 C 0.95085 0.51624 0.92956 0.0
C1488 C 0.90363 0.51643 0.91631 0.0
C1489 C 0.95022 0.28953 0.91618 0.0
C1490 C 0.97457 0.25913 0.90935 0.0
C1491 C 0.9039 0.28958 0.92921 0.0
C1492 C 0.88044 0.25922 0.93614 0.0
H1493 H 0.96663 0.31358 0.91131 0.0
H1494 H 0.88679 0.31366 0.934 0.0
S1495 S 0.929 0.17268 0.92292 0.0
N1496 N 0.97199 0.19779 0.91071 0.0
N1497 N 0.8851 0.19785 0.93501 0.0
C1498 C 0.90445 0.22864 0.92943 0.0
C1499 C 0.95151 0.2286 0.91615 0.0
C1500 C 0.15293 0.0393 0.66141 0.0
C1501 C 0.1264 0.00897 0.6552 0.0
C1502 C 0.19939 0.03933 0.67439 0.0
C1503 C 0.22092 0.00906 0.6819 0.0
H1504 H 0.13812 0.06331 0.65609 0.0
H1505 H 0.2181 0.06338 0.6787 0.0
S1506 S 0.16635 0.92272 0.67045 0.0
N1507 N 0.1248 0.94779 0.65782 0.0
N1508 N 0.21226 0.94779 0.68194 0.0
C1509 C 0.19489 0.97854 0.67578 0.0
C1510 C 0.1476 0.97851 0.66256 0.0
C1511 C 0.20122 0.20588 0.66747 0.0
C1512 C 0.22469 0.23597 0.66023 0.0
C1513 C 0.15315 0.20632 0.68002 0.0
C1514 C 0.12666 0.23689 0.68599 0.0
H1515 H 0.21988 0.18166 0.66335 0.0
H1516 H 0.13726 0.18247 0.68526 0.0
S1517 S 0.17078 0.32279 0.67119 0.0
N1518 N 0.21772 0.29732 0.66018 0.0
N1519 N 0.1267 0.29808 0.68332 0.0
C1520 C 0.14926 0.26715 0.67875 0.0
C1521 C 0.19857 0.26672 0.66608 0.0
C1522 C 0.94851 0.01173 0.42554 0.0
C1523 C 0.9742 0.9811 0.43162 0.0
C1524 C 0.90011 0.0122 0.41307 0.0
C1525 C 0.87608 0.98208 0.40587 0.0
H1526 H 0.9655 0.03559 0.4306 0.0
H1527 H 0.88163 0.0364 0.40895 0.0
S1528 S 0.9281 0.8951 0.41696 0.0
N1529 N 0.97182 0.91981 0.42926 0.0
N1530 N 0.88264 0.92071 0.4057 0.0
C1531 C 0.90176 0.95132 0.41173 0.0
C1532 C 0.95061 0.95083 0.42451 0.0
C1533 C 0.94249 0.78731 0.41313 0.0
C1534 C 0.96769 0.75688 0.40654 0.0
C1535 C 0.89606 0.78742 0.42614 0.0
C1536 C 0.87312 0.75713 0.43328 0.0
H1537 H 0.95826 0.81133 0.40806 0.0
H1538 H 0.87844 0.81154 0.43074 0.0
S1539 S 0.92413 0.67056 0.42081 0.0
N1540 N 0.9668 0.69559 0.40848 0.0
N1541 N 0.8792 0.69576 0.43259 0.0
C1542 C 0.8979 0.72652 0.4268 0.0
C1543 C 0.94531 0.72642 0.41359 0.0
C1544 C 0.64692 0.53782 0.66672 0.0
C1545 C 0.62532 0.50722 0.65949 0.0
C1546 C 0.69346 0.5383 0.6797 0.0
C1547 C 0.72005 0.50818 0.68613 0.0
H1548 H 0.62826 0.56169 0.66219 0.0
H1549 H 0.70823 0.56251 0.68486 0.0
S1550 S 0.67979 0.4213 0.67168 0.0
N1551 N 0.63382 0.44593 0.66001 0.0
N1552 N 0.72161 0.44689 0.68402 0.0
C1553 C 0.69894 0.47745 0.67898 0.0
C1554 C 0.65139 0.47694 0.66585 0.0
C1555 C 0.69393 0.76502 0.66396 0.0
C1556 C 0.71696 0.73478 0.6566 0.0
C1557 C 0.64635 0.76478 0.6767 0.0
C1558 C 0.6196 0.7343 0.68259 0.0
H1559 H 0.71341 0.78906 0.66001 0.0
H1560 H 0.63072 0.78868 0.68208 0.0
S1561 S 0.66057 0.64823 0.66673 0.0
N1562 N 0.70726 0.67356 0.65575 0.0
N1563 N 0.61844 0.67312 0.67941 0.0
C1564 C 0.64129 0.70399 0.67502 0.0
C1565 C 0.68987 0.70421 0.66217 0.0
C1566 C 0.39212 0.5121 0.4178 0.0
C1567 C 0.36881 0.48188 0.41053 0.0
C1568 C 0.44002 0.51182 0.43044 0.0
C1569 C 0.46671 0.4813 0.43631 0.0
H1570 H 0.3731 0.5362 0.41372 0.0
H1571 H 0.45663 0.53573 0.43552 0.0
S1572 S 0.42246 0.39511 0.42146 0.0
N1573 N 0.37646 0.42055 0.41028 0.0
N1574 N 0.46561 0.42 0.43381 0.0
C1575 C 0.44368 0.45095 0.42915 0.0
C1576 C 0.3949 0.45123 0.41638 0.0
C1577 C 0.40077 0.28674 0.43048 0.0
C1578 C 0.37545 0.25626 0.43676 0.0
C1579 C 0.44725 0.28694 0.41749 0.0
C1580 C 0.47006 0.25669 0.41009 0.0
H1581 H 0.38514 0.3107 0.4358 0.0
H1582 H 0.46507 0.31107 0.41311 0.0
S1583 S 0.4191 0.17004 0.42184 0.0
N1584 N 0.37622 0.19499 0.43431 0.0
N1585 N 0.46406 0.19533 0.41028 0.0
C1586 C 0.44516 0.22605 0.41627 0.0
C1587 C 0.39761 0.22586 0.42941 0.0
C1588 C 0.69378 0.97973 0.17681 0.0
C1589 C 0.72487 0.00981 0.18173 0.0
C1590 C 0.64673 0.97955 0.16391 0.0
C1591 C 0.62883 0.00946 0.1554 0.0
H1592 H 0.70511 0.95619 0.18319 0.0
H1593 H 0.6233 0.95599 0.16086 0.0
S1594 S 0.70237 0.0936 0.16122 0.0
N1595 N 0.73869 0.06948 0.17542 0.0
N1596 N 0.65067 0.06908 0.15152 0.0
C1597 C 0.66151 0.03925 0.15962 0.0
C1598 C 0.70952 0.03943 0.17261 0.0
C1599 C 0.70129 0.26916 0.16537 0.0
C1600 C 0.73724 0.23988 0.16182 0.0
C1601 C 0.65363 0.26932 0.1781 0.0
C1602 C 0.64065 0.24034 0.18799 0.0
H1603 H 0.70901 0.29195 0.15797 0.0
H1604 H 0.62601 0.29208 0.17999 0.0
S1605 S 0.73289 0.16079 0.18742 0.0
N1606 N 0.76383 0.18338 0.17171 0.0
N1607 N 0.6751 0.18384 0.19546 0.0
C1608 C 0.67938 0.2119 0.1855 0.0
C1609 C 0.72769 0.2117 0.17257 0.0
C1610 C 0.39608 0.9569 0.91368 0.0
C1611 C 0.37263 0.98717 0.9066 0.0
C1612 C 0.44386 0.95702 0.92629 0.0
C1613 C 0.47008 0.98742 0.93255 0.0
H1614 H 0.37808 0.93278 0.90924 0.0
H1615 H 0.46021 0.93299 0.93124 0.0
S1616 S 0.42518 0.07372 0.91842 0.0
N1617 N 0.37876 0.04853 0.90714 0.0
N1618 N 0.46919 0.04868 0.93044 0.0
C1619 C 0.44682 0.01789 0.92567 0.0
C1620 C 0.39791 0.01778 0.91288 0.0
C1621 C 0.4489 0.78703 0.91338 0.0
C1622 C 0.47443 0.75671 0.90678 0.0
C1623 C 0.40119 0.78694 0.92605 0.0
C1624 C 0.37731 0.75652 0.93284 0.0
H1625 H 0.46528 0.81112 0.90855 0.0
H1626 H 0.38323 0.81098 0.93067 0.0
S1627 S 0.42842 0.67014 0.92013 0.0
N1628 N 0.47251 0.69535 0.90828 0.0
N1629 N 0.38289 0.69519 0.93182 0.0
C1630 C 0.40253 0.72603 0.92638 0.0
C1631 C 0.45115 0.72612 0.91351 0.0
C1632 C 0.13379 0.65309 0.1078 0.0
C1633 C 0.19798 0.65858 0.10472 0.0
C1634 C 0.1097 0.62031 0.10921 0.0
C1635 C 0.1488 0.59156 0.10771 0.0
H1636 H 0.10193 0.67423 0.10958 0.0
H1637 H 0.06003 0.61764 0.11196 0.0
S1638 S 0.31971 0.59154 0.09849 0.0
N1639 N 0.30007 0.63192 0.09925 0.0
N1640 N 0.25413 0.57055 0.10215 0.0
C1641 C 0.21272 0.59649 0.1042 0.0
C1642 C 0.2374 0.6299 0.10259 0.0
C1643 C 0.19756 0.6484 0.23746 0.0
C1644 C 0.13309 0.65285 0.23447 0.0
C1645 C 0.22342 0.61598 0.2392 0.0
C1646 C 0.186 0.58659 0.23782 0.0
H1647 H 0.22848 0.67007 0.23839 0.0
H1648 H 0.27371 0.61411 0.24118 0.0
S1649 S 1.01385 0.58435 0.23029 0.0
N1650 N 1.03174 0.62492 0.23044 0.0
N1651 N 0.08068 0.56429 0.23373 0.0
C1652 C 0.12118 0.5907 0.23518 0.0
C1653 C 0.0947 0.62371 0.23347 0.0
C1654 C 0.96352 0.34407 0.98747 0.0
C1655 C 0.89873 0.33923 0.98987 0.0
C1656 C 0.9895 0.37657 0.98729 0.0
C1657 C 0.95177 0.40571 0.98934 0.0
H1658 H 0.99443 0.32269 0.98524 0.0
H1659 H 1.03951 0.37876 0.9849 0.0
S1660 S 0.78026 0.40725 0.99773 0.0
N1661 N 0.79779 0.36675 0.99574 0.0
N1662 N 0.84716 0.42763 0.99507 0.0
C1663 C 0.88736 0.40135 0.9924 0.0
C1664 C 0.86076 0.3682 0.99278 0.0
C1665 C 0.86394 0.37669 0.86081 0.0
C1666 C 0.90029 0.40532 0.8567 0.0
C1667 C 0.88983 0.34415 0.86055 0.0
C1668 C 0.95309 0.33884 0.85608 0.0
H1669 H 0.81543 0.37946 0.86486 0.0
H1670 H 0.86037 0.3232 0.86444 0.0
S1671 S 0.06606 0.40523 0.84209 0.0
N1672 N 1.00084 0.42615 0.8466 0.0
N1673 N 0.05012 0.3651 0.84586 0.0
C1674 C 0.9892 0.36721 0.8511 0.0
C1675 C 0.96272 0.40041 0.85152 0.0
C1676 C 0.21575 0.09346 0.60816 0.0
C1677 C 0.15164 0.08956 0.60442 0.0
C1678 C 0.24284 0.12561 0.6092 0.0
C1679 C 0.20677 0.15517 0.6067 0.0
H1680 H 0.24507 0.07161 0.61072 0.0
H1681 H 0.29221 0.12723 0.61252 0.0
S1682 S 1.03787 0.15912 0.59524 0.0
N1683 N 0.05334 0.11839 0.59707 0.0
N1684 N 0.10477 0.17857 0.59933 0.0
C1685 C 0.14314 0.15173 0.60244 0.0
C1686 C 0.11549 0.11901 0.6012 0.0
C1687 C 0.11634 0.13013 0.73643 0.0
C1688 C 0.15562 0.15889 0.73683 0.0
C1689 C 0.14113 0.09733 0.73565 0.0
C1690 C 0.20629 0.09183 0.7354 0.0
H1691 H 0.06565 0.13281 0.73621 0.0
H1692 H 0.10884 0.07622 0.73499 0.0
S1693 S 0.32979 0.1586 0.73731 0.0
N1694 N 0.2628 0.17966 0.73771 0.0
N1695 N 0.31013 0.1183 0.73632 0.0
C1696 C 0.24629 0.12041 0.73633 0.0
C1697 C 0.22081 0.15383 0.73701 0.0
C1698 C 0.96133 0.84251 0.48232 0.0
C1699 C 0.89719 0.83789 0.48579 0.0
C1700 C 0.98735 0.87491 0.48166 0.0
C1701 C 0.95024 0.90408 0.4843 0.0
H1702 H 0.99156 0.82105 0.47962 0.0
H1703 H 1.0368 0.87702 0.47849 0.0
S1704 S 0.78095 0.90619 0.49544 0.0
N1705 N 0.79776 0.86564 0.49325 0.0
N1706 N 0.84729 0.92639 0.49164 0.0
C1707 C 0.88659 0.89997 0.48835 0.0
C1708 C 0.85997 0.86693 0.48924 0.0
C1709 C 0.9784 0.86703 0.35637 0.0
C1710 C 0.93947 0.83824 0.35524 0.0
C1711 C 0.95362 0.89971 0.35565 0.0
C1712 C 0.8889 0.90505 0.35364 0.0
H1713 H 1.02866 0.86448 0.35823 0.0
H1714 H 0.9855 0.92089 0.35701 0.0
S1715 S 0.76675 0.83797 0.34925 0.0
N1716 N 0.83339 0.81704 0.35149 0.0
N1717 N 0.78597 0.87836 0.34993 0.0
C1718 C 0.84936 0.87638 0.35203 0.0
C1719 C 0.87482 0.84303 0.35293 0.0
C1720 C 0.71367 0.5935 0.60352 0.0
C1721 C 0.65278 0.5872 0.6095 0.0
C1722 C 0.73655 0.62663 0.60263 0.0
C1723 C 0.69964 0.65459 0.60793 0.0
H1724 H 0.74343 0.5728 0.59927 0.0
H1725 H 0.78396 0.63018 0.59787 0.0
S1726 S 0.53823 0.65079 0.62592 0.0
N1727 N 0.55659 0.61109 0.62158 0.0
N1728 N 0.59991 0.67322 0.62005 0.0
C1729 C 0.63879 0.64843 0.61413 0.0
C1730 C 0.61537 0.61475 0.61493 0.0
C1731 C 0.72636 0.61671 0.73784 0.0
C1732 C 0.68832 0.58748 0.73725 0.0
C1733 C 0.70035 0.64921 0.73694 0.0
C1734 C 0.63516 0.65391 0.7356 0.0
H1735 H 0.77708 0.61463 0.73851 0.0
H1736 H 0.73172 0.67076 0.73711 0.0
S1737 S 0.51435 0.58573 0.73433 0.0
N1738 N 0.58194 0.56546 0.73584 0.0
N1739 N 0.53254 0.62626 0.73418 0.0
C1740 C 0.59628 0.62488 0.73547 0.0
C1741 C 0.62296 0.59178 0.73628 0.0
C1742 C 0.39662 0.39469 0.48668 0.0
C1743 C 0.46199 0.39921 0.48734 0.0
C1744 C 0.37029 0.3623 0.48728 0.0
C1745 C 0.40828 0.33309 0.48841 0.0
H1746 H 0.36544 0.41622 0.48537 0.0
H1747 H 0.31964 0.36022 0.4863 0.0
S1748 S 0.58201 0.33087 0.49167 0.0
N1749 N 0.56433 0.37139 0.49015 0.0
N1750 N 0.51417 0.31078 0.49105 0.0
C1751 C 0.47354 0.33719 0.48953 0.0
C1752 C 0.50054 0.37016 0.48907 0.0
C1753 C 0.47881 0.36573 0.36385 0.0
C1754 C 0.44296 0.33707 0.35937 0.0
C1755 C 0.45249 0.39818 0.36383 0.0
C1756 C 0.38942 0.40321 0.35918 0.0
H1757 H 0.52731 0.36305 0.3679 0.0
H1758 H 0.48148 0.41927 0.36785 0.0
S1759 S 0.27721 0.33641 0.34488 0.0
N1760 N 0.34275 0.31577 0.34923 0.0
N1761 N 0.29262 0.37657 0.34889 0.0
C1762 C 0.35359 0.37471 0.35409 0.0
C1763 C 0.38047 0.34168 0.3543 0.0
C1764 C 0.619 0.11999 0.10449 0.0
C1765 C 0.65445 0.09061 0.10815 0.0
C1766 C 0.64545 0.1523 0.10565 0.0
C1767 C 0.7086 0.1565 0.11027 0.0
H1768 H 0.56991 0.11822 0.1009 0.0
H1769 H 0.61632 0.17408 0.10279 0.0
S1770 S 0.82172 0.08823 0.12162 0.0
N1771 N 0.75601 0.06816 0.11688 0.0
N1772 N 0.80603 0.12876 0.11895 0.0
C1773 C 0.7449 0.12743 0.11385 0.0
C1774 C 0.71781 0.09453 0.11278 0.0
C1775 C 0.61594 0.13068 0.23815 0.0
C1776 C 0.65591 0.1592 0.2374 0.0
C1777 C 0.63944 0.09763 0.23671 0.0
C1778 C 0.70396 0.09165 0.23464 0.0
H1779 H 0.56555 0.13373 0.23946 0.0
H1780 H 0.60673 0.07669 0.23718 0.0
S1781 S 0.8291 0.15737 0.232 0.0
N1782 N 0.76342 0.17899 0.23468 0.0
N1783 N 0.80798 0.11726 0.23184 0.0
C1784 C 0.74473 0.11992 0.23411 0.0
C1785 C 0.72066 0.15354 0.23556 0.0
C1786 C 0.46153 0.84392 0.9842 0.0
C1787 C 0.3964 0.83926 0.98297 0.0
C1788 C 0.48753 0.87636 0.98402 0.0
C1789 C 0.44953 0.90553 0.98241 0.0
H1790 H 0.49282 0.82236 0.98523 0.0
H1791 H 0.53822 0.87837 0.98486 0.0
S1792 S 0.27578 0.90718 0.97866 0.0
N1793 N 0.2939 0.86671 0.98012 0.0
N1794 N 0.34331 0.92752 0.97967 0.0
C1795 C 0.38423 0.90128 0.98131 0.0
C1796 C 0.35755 0.86822 0.98163 0.0
C1797 C 0.48545 0.86523 0.85537 0.0
C1798 C 0.44593 0.83653 0.85557 0.0
C1799 C 0.4609 0.89815 0.85547 0.0
C1800 C 0.39581 0.90376 0.85557 0.0
H1801 H 0.53611 0.86243 0.85552 0.0
H1802 H 0.49324 0.91928 0.85556 0.0
S1803 S 0.27173 0.83717 0.8558 0.0
N1804 N 0.33855 0.81594 0.85562 0.0
N1805 N 0.29176 0.87745 0.85575 0.0
C1806 C 0.35559 0.8752 0.8555 0.0
C1807 C 0.38078 0.84171 0.85553 0.0
C1808 C 0.61232 0.46091 0.11197 0.0
C1809 C 0.6333 0.49452 0.11047 0.0
C1810 C 0.54795 0.45324 0.11274 0.0
C1811 C 0.50193 0.47886 0.11204 0.0
H1812 H 0.64598 0.44036 0.11266 0.0
H1813 H 0.53408 0.42702 0.11403 0.0
S1814 S 0.53201 0.57106 0.10895 0.0
N1815 N 0.60269 0.55372 0.10878 0.0
N1816 N 0.48201 0.5393 0.11021 0.0
C1817 C 0.52223 0.51254 0.11038 0.0
C1818 C 0.58774 0.52036 0.10961 0.0
C1819 C 0.75291 0.73538 0.10833 0.0
C1820 C 0.70748 0.76086 0.10587 0.0
C1821 C 0.81731 0.74289 0.1087 0.0
C1822 C 0.83909 0.77622 0.10666 0.0
H1823 H 0.73853 0.7095 0.11057 0.0
H1824 H 0.8502 0.72254 0.1112 0.0
S1825 S 0.74011 0.8517 0.09801 0.0
N1826 N 0.68922 0.82046 0.10004 0.0
N1827 N 0.81028 0.8346 0.1008 0.0
C1828 C 0.79437 0.80182 0.10363 0.0
C1829 C 0.72868 0.79415 0.10322 0.0
C1830 C 0.57935 0.73111 0.24102 0.0
C1831 C 0.62411 0.75271 0.23358 0.0
C1832 C 0.5151 0.73907 0.24074 0.0
C1833 C 0.49279 0.76877 0.23281 0.0
H1834 H 0.59406 0.70746 0.24678 0.0
H1835 H 0.48244 0.72135 0.24645 0.0
S1836 S 0.59155 0.83408 0.21173 0.0
N1837 N 0.64244 0.80555 0.21859 0.0
N1838 N 0.52155 0.82025 0.21761 0.0
C1839 C 0.53747 0.79117 0.22582 0.0
C1840 C 0.6031 0.78318 0.2263 0.0
C1841 C 0.8189 0.50696 0.23766 0.0
C1842 C 0.83982 0.47483 0.23221 0.0
C1843 C 0.75465 0.51497 0.23844 0.0
C1844 C 0.70823 0.49125 0.23381 0.0
H1845 H 0.85258 0.52626 0.24123 0.0
H1846 H 0.74122 0.54015 0.24259 0.0
S1847 S 0.7377 0.40344 0.21865 0.0
N1848 N 0.8086 0.41898 0.22217 0.0
N1849 N 0.68792 0.43403 0.22369 0.0
C1850 C 0.72832 0.45873 0.22873 0.0
C1851 C 0.79396 0.45054 0.22792 0.0
C1852 C 0.57881 0.48879 0.98669 0.0
C1853 C 0.59911 0.52155 0.98227 0.0
C1854 C 0.51461 0.48046 0.98705 0.0
C1855 C 0.46819 0.50448 0.98289 0.0
H1856 H 0.61285 0.46907 0.98932 0.0
H1857 H 0.50131 0.4547 0.99001 0.0
S1858 S 0.49535 0.59476 0.97261 0.0
N1859 N 0.56662 0.57897 0.97532 0.0
N1860 N 0.44636 0.56301 0.97567 0.0
C1861 C 0.48753 0.53758 0.97909 0.0
C1862 C 0.55279 0.54618 0.97886 0.0
C1863 C 0.34285 0.25577 0.99052 0.0
C1864 C 0.38774 0.23407 0.98302 0.0
C1865 C 0.27845 0.24793 0.9901 0.0
C1866 C 0.25664 0.218 0.98222 0.0
H1867 H 0.35737 0.27966 0.99612 0.0
H1868 H 0.24535 0.26612 0.99533 0.0
S1869 S 0.3564 0.15033 0.96315 0.0
N1870 N 0.40674 0.17992 0.96907 0.0
N1871 N 0.28615 0.16479 0.96854 0.0
C1872 C 0.30157 0.19522 0.97556 0.0
C1873 C 0.36695 0.20335 0.97588 0.0
C1874 C 0.57708 0.25897 0.86987 0.0
C1875 C 0.60102 0.23045 0.86117 0.0
C1876 C 0.51287 0.26701 0.86939 0.0
C1877 C 0.46981 0.24698 0.8601 0.0
H1878 H 0.6081 0.27488 0.87744 0.0
H1879 H 0.49666 0.28879 0.87666 0.0
S1880 S 0.50945 0.17099 0.83398 0.0
N1881 N 0.57731 0.18293 0.84234 0.0
N1882 N 0.45662 0.19827 0.8412 0.0
C1883 C 0.49334 0.21867 0.85108 0.0
C1884 C 0.55884 0.21037 0.85166 0.0
C1885 C 0.29523 0.52994 0.87401 0.0
C1886 C 0.25406 0.51839 0.86106 0.0
C1887 C 0.35961 0.52218 0.87358 0.0
C1888 C 0.38563 0.50249 0.86019 0.0
H1889 H 0.27729 0.54431 0.88487 0.0
H1890 H 0.38892 0.53085 0.88412 0.0
S1891 S 0.29955 0.46889 0.82224 0.0
N1892 N 0.24496 0.48828 0.83378 0.0
N1893 N 0.36591 0.47359 0.83301 0.0
C1894 C 0.3454 0.49156 0.84689 0.0
C1895 C 0.27976 0.49952 0.84732 0.0
C1896 C 0.54164 0.96913 0.60448 0.0
C1897 C 0.49995 0.98811 0.61482 0.0
C1898 C 0.60648 0.97568 0.60448 0.0
C1899 C 0.63228 0.00147 0.61482 0.0
H1900 H 0.52405 0.94883 0.59641 0.0
H1901 H 0.63674 0.96029 0.59639 0.0
S1902 S 0.54303 0.05986 0.64339 0.0
N1903 N 0.48891 0.03464 0.63516 0.0
N1904 N 0.61064 0.04701 0.63515 0.0
C1905 C 0.59112 0.02073 0.62517 0.0
C1906 C 0.52507 0.01405 0.62517 0.0
C1907 C 0.74521 0.28364 0.61484 0.0
C1908 C 0.72449 0.25023 0.61225 0.0
C1909 C 0.8095 0.29172 0.61479 0.0
C1910 C 0.85594 0.26669 0.61226 0.0
H1911 H 0.71141 0.3037 0.61713 0.0
H1912 H 0.82297 0.31778 0.617 0.0
S1913 S 0.82638 0.1751 0.60532 0.0
N1914 N 0.7555 0.19188 0.60711 0.0
N1915 N 0.87616 0.20686 0.60727 0.0
C1916 C 0.83573 0.23323 0.60935 0.0
C1917 C 0.77017 0.22506 0.6093 0.0
C1918 C 0.60197 0.24759 0.71594 0.0
C1919 C 0.63825 0.25539 0.7306 0.0
C1920 C 0.53775 0.25547 0.71517 0.0
C1921 C 0.50699 0.27167 0.72898 0.0
H1922 H 0.62334 0.23505 0.70495 0.0
H1923 H 0.51182 0.24867 0.70365 0.0
S1924 S 0.57991 0.29743 0.7704 0.0
N1925 N 0.63824 0.28021 0.75934 0.0
N1926 N 0.51752 0.29538 0.75777 0.0
C1927 C 0.54276 0.28033 0.74359 0.0
C1928 C 0.60832 0.27213 0.74442 0.0
C1929 C 0.82326 0.01028 0.72223 0.0
C1930 C 0.84755 0.98299 0.7317 0.0
C1931 C 0.75899 0.01807 0.72254 0.0
C1932 C 0.71637 -0.00096 0.73244 0.0
H1933 H 0.85402 0.02529 0.71419 0.0
H1934 H 0.7424 0.03877 0.71465 0.0
S1935 S 0.75732 0.92668 0.76066 0.0
N1936 N 0.82491 0.9378 0.75186 0.0
N1937 N 0.70401 0.95281 0.75276 0.0
C1938 C 0.74034 0.97206 0.74227 0.0
C1939 C 0.80589 0.96397 0.74183 0.0
C1940 C 0.55428 0.03794 0.47367 0.0
C1941 C 0.60099 0.01397 0.47781 0.0
C1942 C 0.49013 0.02968 0.47417 0.0
C1943 C 0.46994 -0.00281 0.47897 0.0
H1944 H 0.56744 0.06327 0.46984 0.0
H1945 H 0.456 0.04885 0.47068 0.0
S1946 S 0.57273 0.92482 0.49048 0.0
N1947 N 0.6221 0.95599 0.48649 0.0
N1948 N 0.50164 0.94075 0.4877 0.0
C1949 C 0.5159 0.97312 0.4834 0.0
C1950 C 0.5813 0.98144 0.48278 0.0
C1951 C 0.35966 0.71026 0.47402 0.0
C1952 C 0.38069 0.74081 0.48133 0.0
C1953 C 0.29545 0.70227 0.4734 0.0
C1954 C 0.24954 0.72463 0.47995 0.0
H1955 H 0.39313 0.69252 0.46855 0.0
H1956 H 0.28157 0.67855 0.46751 0.0
S1957 S 0.28015 0.80839 0.50001 0.0
N1958 N 0.35072 0.79362 0.4952 0.0
N1959 N 0.22999 0.77893 0.49382 0.0
C1960 C 0.27009 0.75506 0.48756 0.0
C1961 C 0.3356 0.76308 0.48828 0.0
C1962 C 0.48171 0.71857 0.36137 0.0
C1963 C 0.45943 0.75208 0.36077 0.0
C1964 C 0.54632 0.71143 0.36196 0.0
C1965 C 0.59134 0.7375 0.36195 0.0
H1966 H 0.44893 0.69764 0.36125 0.0
H1967 H 0.56119 0.68522 0.36231 0.0
S1968 S 0.5578 0.82958 0.3617 0.0
N1969 N 0.48775 0.81168 0.361 0.0
N1970 N 0.60907 0.79817 0.36201 0.0
C1971 C 0.56981 0.77111 0.36143 0.0
C1972 C 0.50398 0.77842 0.36087 0.0
C1973 C 0.28291 0.01846 0.34937 0.0
C1974 C 0.25247 0.02569 0.36508 0.0
C1975 C 0.34745 0.01067 0.34888 0.0
C1976 C 0.38345 0.00983 0.36409 0.0
H1977 H 0.25613 0.01732 0.33751 0.0
H1978 H 0.36863 0.00375 0.33665 0.0
S1979 S 0.3282 0.03219 0.40805 0.0
N1980 N 0.26486 0.03546 0.39586 0.0
N1981 N 0.38564 0.02066 0.39494 0.0
C1982 C 0.35431 0.01903 0.37969 0.0
C1983 C 0.28896 0.027 0.38018 0.0
C1984 C 0.09466 0.50966 0.61064 0.0
C1985 C 0.14093 0.48424 0.61182 0.0
C1986 C 1.03043 0.50201 0.61182 0.0
C1987 C 1.00962 0.46861 0.61427 0.0
H1988 H 0.10822 0.53588 0.60919 0.0
H1989 H 0.99684 0.52261 0.61126 0.0
S1990 S 0.11114 0.39229 0.61668 0.0
N1991 N 0.1611 0.42393 0.61453 0.0
N1992 N 1.04037 0.40957 0.61679 0.0
C1993 C 0.05524 0.4428 0.61511 0.0
C1994 C 0.12077 0.4506 0.61389 0.0
C1995 C 0.31316 0.75589 0.60261 0.0
C1996 C 0.34898 0.75711 0.61787 0.0
C1997 C 0.24841 0.7492 0.60297 0.0
C1998 C 0.21669 0.74336 0.61859 0.0
H1999 H 0.33548 0.75994 0.59024 0.0
H2000 H 0.22312 0.74814 0.59086 0.0
S2001 S 0.28768 0.74589 0.66229 0.0
N2002 N 0.34716 0.75334 0.64915 0.0
N2003 N 0.22554 0.7406 0.64981 0.0
C2004 C 0.25177 0.74467 0.63397 0.0
C2005 C 0.3178 0.75155 0.63361 0.0
C2006 C 1.0149 0.73942 0.73141 0.0
C2007 C 0.99306 0.77305 0.73137 0.0
C2008 C 0.07943 0.73196 0.7317 0.0
C2009 C 0.12481 0.75783 0.73196 0.0
H2010 H 0.98194 0.71863 0.73058 0.0
H2011 H 0.09387 0.7057 0.73111 0.0
S2012 S 0.09237 0.85 0.73407 0.0
N2013 N 1.02204 0.83244 0.73312 0.0
N2014 N 0.14323 0.8184 0.73359 0.0
C2015 C 0.10363 0.79155 0.73257 0.0
C2016 C 1.03788 0.79916 0.7323 0.0
C2017 C 0.24173 0.49397 0.71595 0.0
C2018 C 0.20809 0.49265 0.73159 0.0
C2019 C 0.30592 0.48595 0.71518 0.0
C2020 C 0.3393 0.47604 0.72997 0.0
H2021 H 0.21833 0.50152 0.70418 0.0
H2022 H 0.32978 0.48773 0.70287 0.0
S2023 S 0.27396 0.46851 0.77411 0.0
N2024 N 0.2135 0.48066 0.76228 0.0
N2025 N 0.33409 0.4651 0.76072 0.0
C2026 C 0.30618 0.47378 0.74562 0.0
C2027 C 0.24067 0.48217 0.74645 0.0
C2028 C 1.01008 0.49461 0.46192 0.0
C2029 C 0.97387 0.4881 0.47674 0.0
C2030 C 0.07498 0.50078 0.46305 0.0
C2031 C 0.10615 0.50064 0.47906 0.0
H2032 H 0.98792 0.49537 0.44935 0.0
H2033 H 0.10071 0.50632 0.45135 0.0
S2034 S 1.03405 0.4816 0.52149 0.0
N2035 N 0.97485 0.47968 0.50776 0.0
N2036 N 0.09659 0.49124 0.50989 0.0
C2037 C 0.07072 0.49347 0.49392 0.0
C2038 C 1.00471 0.48723 0.49277 0.0
C2039 C 0.85496 0.24319 0.46692 0.0
C2040 C 0.88901 0.23931 0.48236 0.0
C2041 C 0.79081 0.23535 0.46597 0.0
C2042 C 0.75795 0.22304 0.48036 0.0
H2043 H 0.87802 0.25258 0.45545 0.0
H2044 H 0.76659 0.23908 0.45383 0.0
S2045 S 0.82433 0.20858 0.5239 0.0
N2046 N 0.88443 0.22256 0.51248 0.0
N2047 N 0.76392 0.20728 0.51054 0.0
C2048 C 0.79142 0.21833 0.4958 0.0
C2049 C 0.85687 0.22656 0.49683 0.0
C2050 C 1.04688 0.20841 0.37002 0.0
C2051 C 0.09142 0.22612 0.36008 0.0
C2052 C 0.98248 0.21635 0.36925 0.0
C2053 C 0.96013 0.24243 0.35858 0.0
H2054 H 0.0621 0.18907 0.37895 0.0
H2055 H 0.95025 0.20285 0.37755 0.0
S2056 S 0.05556 0.29326 0.32822 0.0
N2057 N 0.10722 0.26851 0.33786 0.0
N2058 N 0.98658 0.28377 0.33669 0.0
C2059 C 1.00363 0.25932 0.34804 0.0
C2060 C 0.06908 0.25111 0.34872 0.0
C2061 C 0.83832 0.49889 0.35748 0.0
C2062 C 0.87058 0.48765 0.37224 0.0
C2063 C 0.77348 0.50532 0.35784 0.0
C2064 C 0.73816 0.50095 0.373 0.0
H2065 H 0.86351 0.50302 0.34553 0.0
H2066 H 0.75091 0.51421 0.34619 0.0
S2067 S 0.79891 0.47041 0.41497 0.0
N2068 N 0.86143 0.47121 0.40234 0.0
N2069 N 0.73965 0.48379 0.40304 0.0
C2070 C 0.76959 0.48975 0.38788 0.0
C2071 C 0.8357 0.483 0.38749 0.0
C2072 C 1.04199 0.96485 0.11213 0.0
C2073 C 0.99628 0.99029 0.11466 0.0
C2074 C 0.10662 0.97236 0.11201 0.0
C2075 C 0.12847 0.0056 0.11458 0.0
H2076 H 1.02768 0.93888 0.11005 0.0
H2077 H 0.13982 0.95187 0.11011 0.0
S2078 S 1.02851 0.08154 0.12173 0.0
N2079 N 0.97787 0.05012 0.11995 0.0
N2080 N 0.09882 0.06433 0.11938 0.0
C2081 C 0.0833 0.0313 0.11708 0.0
C2082 C 1.01749 0.02365 0.11717 0.0
C2083 C 0.2601 0.25578 0.09975 0.0
C2084 C 0.22153 0.25933 0.11441 0.0
C2085 C 0.32446 0.26366 0.10034 0.0
C2086 C 0.35276 0.27545 0.11563 0.0
H2087 H 0.24038 0.24676 0.08771 0.0
H2088 H 0.35234 0.26047 0.08876 0.0
S2089 S 0.27354 0.28692 0.15791 0.0
N2090 N 0.21712 0.27406 0.14485 0.0
N2091 N 0.33768 0.28889 0.14596 0.0
C2092 C 0.31473 0.27909 0.13038 0.0
C2093 C 0.2493 0.27104 0.12977 0.0
C2094 C 1.04094 0.25824 0.2172 0.0
C2095 C 1.00983 0.2693 0.2322 0.0
C2096 C 0.10505 0.25006 0.21738 0.0
C2097 C 0.14088 0.25228 0.23261 0.0
H2098 H 1.01539 0.25585 0.20517 0.0
H2099 H 0.12673 0.24179 0.20544 0.0
S2100 S 0.08126 0.27936 0.27551 0.0
N2101 N 1.01936 0.28216 0.26273 0.0
N2102 N 0.1399 0.2662 0.26319 0.0
C2103 C 0.11052 0.26376 0.24769 0.0
C2104 C 1.04505 0.27236 0.24746 0.0
C2105 C 0.3183 -0.00218 0.24215 0.0
C2106 C 0.34121 0.97129 0.23171 0.0
C2107 C 0.254 0.00553 0.24287 0.0
C2108 C 0.20982 0.98687 0.23331 0.0
H2109 H 0.35054 0.0133 0.24955 0.0
H2110 H 0.23883 0.02679 0.25071 0.0
S2111 S 0.24436 0.91424 0.20441 0.0
N2112 N 0.31384 0.92579 0.21186 0.0
N2113 N 0.19287 0.94003 0.21351 0.0
C2114 C 0.2315 0.95938 0.2234 0.0
C2115 C 0.29716 0.95164 0.22254 0.0
C2116 C 0.99336 0.0244 0.97463 0.0
C2117 C 0.97131 0.99088 0.97382 0.0
C2118 C 0.05803 0.03165 0.97454 0.0
C2119 C 0.10343 0.0057 0.97363 0.0
H2120 H 0.96038 0.04523 0.97562 0.0
H2121 H 0.07261 0.05783 0.97546 0.0
S2122 S 0.07059 0.91387 0.96966 0.0
N2123 N 1.00034 0.93158 0.97096 0.0
N2124 N 0.12155 0.94523 0.97086 0.0
C2125 C 0.08206 0.97211 0.97251 0.0
C2126 C 1.01621 0.96471 0.97258 0.0
C2127 C 0.8589 0.72248 0.96878 0.0
C2128 C 0.88448 0.74179 0.98233 0.0
C2129 C 0.79463 0.71468 0.96825 0.0
C2130 C 0.7532 0.72579 0.98127 0.0
H2131 H 0.88847 0.71413 0.9582 0.0
H2132 H 0.77699 0.70061 0.95726 0.0
S2133 S 0.79767 0.77413 1.02052 0.0
N2134 N 0.86417 0.76988 1.00971 0.0
N2135 N 0.74343 0.75504 1.00879 0.0
C2136 C 0.77849 0.74428 0.99517 0.0
C2137 C 0.84401 0.75231 0.99568 0.0
C2138 C 0.07444 0.75404 0.85831 0.0
C2139 C 0.09451 0.72115 0.86259 0.0
C2140 C 1.01027 0.76233 0.85738 0.0
C2141 C 0.96348 0.73812 0.86077 0.0
H2142 H 0.10859 0.77385 0.85612 0.0
H2143 H 0.99721 0.78816 0.85443 0.0
S2144 S 0.99036 0.6476 0.87073 0.0
N2145 N 0.06177 0.66356 0.86891 0.0
N2146 N 0.94143 0.67935 0.86737 0.0
C2147 C 0.98271 0.70495 0.86461 0.0
C2148 C 1.04804 0.69643 0.86546 0.0
C2149 C 0.78334 0.01572 0.84842 0.0
C2150 C 0.75366 0.02231 0.86431 0.0
C2151 C 0.84779 0.00805 0.84755 0.0
C2152 C 0.88505 0.00667 0.86253 0.0
H2153 H 0.75653 0.01657 0.83656 0.0
H2154 H 0.86867 0.00316 0.83504 0.0
S2155 S 0.82912 0.01934 0.90743 0.0
N2156 N 0.76595 0.02533 0.89545 0.0
N2157 N 0.8868 0.011 0.89379 0.0
C2158 C 0.85589 0.01307 0.8785 0.0
C2159 C 0.79033 0.02085 0.87939 0.0
C2160 C 1.02187 0.51385 0.06197 0.0
C2161 C 0.07097 0.4916 0.06617 0.0
C2162 C 1.00512 0.51969 1.04463 0.0
C2163 C 1.03669 0.50357 1.03077 0.0
H2164 H 0.9968 0.52716 0.07208 0.0
H2165 H 0.96703 0.53719 1.04209 0.0
S2166 S 0.16616 0.44143 1.03488 0.0
N2167 N 0.14966 0.45238 0.05494 0.0
N2168 N 0.11738 0.46332 1.0227 0.0
C2169 C 0.08511 0.48097 1.03485 0.0
C2170 C 0.10236 0.47501 0.05243 0.0
C2171 C 0.25868 0.75611 1.03064 0.0
C2172 C 0.31959 0.74422 1.02713 0.0
C2173 C 0.23887 0.76229 0.04771 0.0
C2174 C 0.2791 0.75686 0.06195 0.0
H2175 H 0.2259 0.76031 1.02018 0.0
H2176 H 0.19126 0.77123 0.04975 0.0
S2177 S 0.44467 0.72815 0.05968 0.0
N2178 N 0.42107 0.72857 1.03941 0.0
N2179 N 0.38351 0.7406 0.07119 0.0
C2180 C 0.34032 0.74559 0.05858 0.0
C2181 C 0.36059 0.73919 1.04126 0.0
C2182 C 0.06637 0.7637 0.30746 0.0
C2183 C 1.03435 0.73428 0.31243 0.0
C2184 C 0.07693 0.77111 0.28999 0.0
C2185 C 0.05485 0.74986 0.27665 0.0
H2186 H 0.08419 0.781 0.31714 0.0
H2187 H 0.1034 0.79367 0.28691 0.0
S2188 S 0.96689 0.67003 0.28254 0.0
N2189 N 0.97983 0.68371 0.30238 0.0
N2190 N 0.9987 0.69837 0.26964 0.0
C2191 C 1.02144 0.7208 0.28135 0.0
C2192 C 1.01158 0.71281 0.2992 0.0
C2193 C 0.25007 0.47025 0.29496 0.0
C2194 C 0.27111 0.4919 0.28175 0.0
C2195 C 0.25985 0.47779 0.31247 0.0
C2196 C 0.29004 0.50774 0.31762 0.0
H2197 H 0.2253 0.44716 0.29173 0.0
H2198 H 0.24317 0.4601 0.32206 0.0
S2199 S 0.35321 0.5735 0.28814 0.0
N2200 N 0.32355 0.54459 0.27507 0.0
N2201 N 0.34098 0.55945 0.30788 0.0
C2202 C 0.31131 0.52975 0.30452 0.0
C2203 C 0.30224 0.52166 0.28664 0.0
C2204 C 0.85168 0.2261 1.04447 0.0
C2205 C 0.81781 0.24031 1.03055 0.0
C2206 C 0.83517 0.23258 0.0618 0.0
C2207 C 0.784 0.25357 0.06593 0.0
H2208 H 0.89157 0.20972 1.04198 0.0
H2209 H 0.86233 0.22088 0.07197 0.0
S2210 S 0.68145 0.29817 1.03442 0.0
N2211 N 0.73199 0.27706 1.02232 0.0
N2212 N 0.70034 0.28929 0.05453 0.0
C2213 C 0.75006 0.26812 0.05212 0.0
C2214 C 0.76702 0.26149 1.03455 0.0
C2215 C 0.99675 0.23724 0.8011 0.0
C2216 C 1.03866 0.24214 0.81504 0.0
C2217 C 1.01483 0.24328 0.78393 0.0
C2218 C 0.07564 0.25448 0.77996 0.0
H2219 H 0.94908 0.22883 0.80347 0.0
H2220 H 0.98069 0.23964 0.77376 0.0
S2221 S 0.20479 0.2689 0.81152 0.0
N2222 N 0.14457 0.25707 0.82349 0.0
N2223 N 0.17891 0.26893 0.79146 0.0
C2224 C 0.11832 0.25902 0.79377 0.0
C2225 C 0.09981 0.25275 0.81123 0.0
C2226 C 0.85377 0.50872 0.80115 0.0
C2227 C 0.81349 0.50271 0.81532 0.0
C2228 C 0.83409 0.50333 0.78403 0.0
C2229 C 0.77326 0.49169 0.78037 0.0
H2230 H 0.90134 0.51752 0.80329 0.0
H2231 H 0.86699 0.50784 0.77365 0.0
S2232 S 0.64809 0.47423 0.8127 0.0
N2233 N 0.70913 0.48608 0.82438 0.0
N2234 N 0.67179 0.47556 0.79244 0.0
C2235 C 0.73221 0.48602 0.79443 0.0
C2236 C 0.75236 0.4916 0.81183 0.0
C2237 C 1.02043 0.015 0.5563 0.0
C2238 C 0.05156 0.98535 0.56142 0.0
C2239 C 1.01054 0.02227 0.53878 0.0
C2240 C 1.03246 0.00063 0.52555 0.0
H2241 H 1.00286 0.03261 0.5659 0.0
H2242 H 0.98484 0.04507 0.53557 0.0
S2243 S 0.11809 0.92 0.53189 0.0
N2244 N 0.10495 0.9341 0.55165 0.0
N2245 N 0.08732 0.94845 0.51884 0.0
C2246 C 0.06484 0.97127 0.53043 0.0
C2247 C 0.074 0.96344 0.54831 0.0
C2248 C 0.27481 0.25585 0.53484 0.0
C2249 C 0.32787 0.23616 0.53091 0.0
C2250 C 0.25797 0.26279 0.55205 0.0
C2251 C 0.29349 0.25043 0.5661 0.0
H2252 H 0.24619 0.26608 0.52459 0.0
H2253 H 0.21641 0.27805 0.55433 0.0
S2254 S 0.43712 0.19778 0.56286 0.0
N2255 N 0.41632 0.20438 0.54265 0.0
N2256 N 0.38432 0.2177 0.57478 0.0
C2257 C 0.34672 0.23085 0.56236 0.0
C2258 C 0.36394 0.22367 0.54485 0.0
C2259 C 0.26441 0.99018 0.80795 0.0
C2260 C 0.32461 0.0023 0.81194 0.0
C2261 C 0.24564 0.98535 0.79071 0.0
C2262 C 0.2862 0.99241 0.77672 0.0
H2263 H 0.23134 0.98471 0.81818 0.0
H2264 H 0.19851 0.9761 0.78836 0.0
S2265 S 0.45006 0.02298 0.78017 0.0
N2266 N 0.42576 0.02031 0.80035 0.0
N2267 N 0.39005 0.01086 0.76818 0.0
C2268 C 0.3467 0.00409 0.78053 0.0
C2269 C 0.36594 0.0091 0.79806 0.0
C2270 C 0.84249 0.72076 0.5412 0.0
C2271 C 0.8192 0.74156 0.52789 0.0
C2272 C 0.83243 0.72849 0.5587 0.0
C2273 C 0.79981 0.75784 0.56372 0.0
H2274 H 0.86929 0.69823 0.53806 0.0
H2275 H 0.851 0.71151 0.56838 0.0
S2276 S 0.72941 0.82108 0.53394 0.0
N2277 N 0.7614 0.7926 0.521 0.0
N2278 N 0.74368 0.80793 0.55374 0.0
C2279 C 0.77611 0.77894 0.55052 0.0
C2280 C 0.78537 0.77059 0.53267 0.0
C2281 C 0.83384 0.0055 0.28112 0.0
C2282 C 0.774 0.99296 0.27702 0.0
C2283 C 0.85163 0.01114 0.2984 0.0
C2284 C 0.8104 0.00448 0.31231 0.0
H2285 H 0.86731 0.01073 0.27095 0.0
H2286 H 0.89848 0.02068 0.30087 0.0
S2287 S 0.6471 0.97322 0.30853 0.0
N2288 N 0.67248 0.97509 0.28844 0.0
N2289 N 0.70635 0.98605 0.32061 0.0
C2290 C 0.75031 0.9924 0.30836 0.0
C2291 C 0.73207 0.98658 0.29082 0.0
C2292 C 0.5525 0.51723 0.55985 0.0
C2293 C 0.58465 0.48788 0.56494 0.0
C2294 C 0.5436 0.52469 0.54223 0.0
C2295 C 0.56558 0.50282 0.52904 0.0
H2296 H 0.53589 0.53505 0.56948 0.0
H2297 H 0.51897 0.54778 0.53896 0.0
S2298 S 0.64972 0.42177 0.53572 0.0
N2299 N 0.63708 0.43637 0.55539 0.0
N2300 N 0.61896 0.45002 0.52257 0.0
C2301 C 0.59651 0.47308 0.53406 0.0
C2302 C 0.60632 0.46573 0.55191 0.0
C2303 C 0.58036 0.75383 0.80829 0.0
C2304 C 0.52162 0.73995 0.81241 0.0
C2305 C 0.59763 0.75982 0.79104 0.0
C2306 C 0.55694 0.75223 0.77713 0.0
H2307 H 0.61348 0.75981 0.81842 0.0
H2308 H 0.64372 0.77039 0.78859 0.0
S2309 S 0.39635 0.71714 0.7809 0.0
N2310 N 0.42157 0.71973 0.801 0.0
N2311 N 0.45446 0.73128 0.76882 0.0
C2312 C 0.49784 0.73879 0.78107 0.0
C2313 C 0.48013 0.73261 0.79861 0.0
C2314 C 0.58765 0.25358 0.31234 0.0
C2315 C 0.52627 0.24259 0.31579 0.0
C2316 C 0.60759 0.25973 0.29533 0.0
C2317 C 0.56707 0.25512 0.28106 0.0
H2318 H 0.62073 0.25701 0.3228 0.0
H2319 H 0.65556 0.26802 0.29334 0.0
S2320 S 0.40026 0.22902 0.28319 0.0
N2321 N 0.42401 0.22872 0.30345 0.0
N2322 N 0.46191 0.24063 0.27172 0.0
C2323 C 0.50542 0.24468 0.28436 0.0
C2324 C 0.48497 0.23836 0.30164 0.0
C2325 C 0.55653 0.96668 0.04972 0.0
C2326 C 0.55245 0.99238 0.06235 0.0
C2327 C 0.55546 0.9741 1.03197 0.0
C2328 C 0.55033 0.0076 1.02606 0.0
H2329 H 0.56087 0.94047 0.05356 0.0
H2330 H 0.55773 0.95335 1.02282 0.0
S2331 S 0.54016 0.08442 0.05373 0.0
N2332 N 0.54398 0.05285 0.06754 0.0
N2333 N 0.54266 0.06686 1.03439 0.0
C2334 C 0.54683 0.03358 1.03856 0.0
C2335 C 0.54753 0.02598 0.05661 0.0
loop_
_geom_bond_atom_site_label_1
_geom_bond_atom_site_label_2
_geom_bond_distance
_geom_bond_site_symmetry_2
_ccdc_geom_bond_type
La0 C2 2.928 . S
La0 O20 2.521 . S
La0 O21 2.628 . S
La0 O22 2.554 . S
La0 O23 2.757 1_655 S
La0 O24 2.470 . S
La0 O29 2.482 1_655 S
La0 O31 2.503 1_655 S
La1 C11 2.928 . S
La1 O23 2.482 . S
La1 O25 2.503 . S
La1 O26 2.521 . S
La1 O27 2.628 . S
La1 O28 2.554 . S
La1 O29 2.757 . S
La1 O30 2.470 . S
C2 La0 2.928 . S
C2 C3 1.503 . S
C2 O20 1.261 . S
C2 O21 1.243 . S
C3 C2 1.503 . S
C3 C4 1.394 . S
C3 C8 1.373 . S
C4 C3 1.394 . S
C4 C5 1.380 . S
C4 H32 0.930 . S
C5 C4 1.380 . S
C5 C6 1.376 . S
C5 H33 0.930 . S
C6 C5 1.376 . S
C6 C7 1.370 . S
C7 C6 1.370 . S
C7 C8 1.396 . S
C7 H34 0.929 . S
C8 C3 1.373 . S
C8 C7 1.396 . S
C8 H35 0.929 . S
C9 O22 1.240 1_455 S
C9 O23 1.289 . S
C10 O24 1.258 . S
C10 O25 1.256 1_655 S
C11 La1 2.928 . S
C11 C12 1.503 . S
C11 O26 1.261 . S
C11 O27 1.243 . S
C12 C11 1.503 . S
C12 C13 1.394 . S
C12 C17 1.373 . S
C13 C12 1.394 . S
C13 C14 1.380 . S
C13 H36 0.930 . S
C14 C13 1.380 . S
C14 C15 1.376 . S
C14 H37 0.930 . S
C15 C14 1.376 . S
C15 C16 1.370 . S
C16 C15 1.370 . S
C16 C17 1.396 . S
C16 H38 0.929 . S
C17 C12 1.373 . S
C17 C16 1.396 . S
C17 H39 0.929 . S
C18 O28 1.240 . S
C18 O29 1.289 . S
C19 O30 1.258 . S
C19 O31 1.256 . S
O20 La0 2.521 . S
O20 C2 1.261 . S
O21 La0 2.628 . S
O21 C2 1.243 . S
O22 La0 2.554 . S
O22 C9 1.240 1_655 S
O23 La0 2.757 1_455 S
O23 La1 2.482 . S
O23 C9 1.289 . S
O24 La0 2.470 . S
O24 C10 1.258 . S
O25 La1 2.503 . S
O25 C10 1.256 1_455 S
O26 La1 2.521 . S
O26 C11 1.261 . S
O27 La1 2.628 . S
O27 C11 1.243 . S
O28 La1 2.554 . S
O28 C18 1.240 . S
O29 La0 2.482 1_455 S
O29 La1 2.757 . S
O29 C18 1.289 . S
O30 La1 2.470 . S
O30 C19 1.258 . S
O31 La0 2.503 1_455 S
O31 C19 1.256 . S
H32 C4 0.930 . S
H33 C5 0.930 . S
H34 C7 0.929 . S
H35 C8 0.929 . S
H36 C13 0.930 . S
H37 C14 0.930 . S
H38 C16 0.929 . S
H39 C17 0.929 . S
La40 C42 2.928 . S
La40 O60 2.521 . S
La40 O61 2.628 . S
La40 O62 2.554 . S
La40 O63 2.757 . S
La40 O64 2.470 . S
La40 O69 2.482 . S
La40 O71 2.503 . S
La41 C51 2.928 . S
La41 O63 2.482 . S
La41 O65 2.503 . S
La41 O66 2.521 . S
La41 O67 2.628 . S
La41 O68 2.554 . S
La41 O69 2.757 . S
La41 O70 2.470 . S
C42 La40 2.928 . S
C42 C43 1.503 . S
C42 O60 1.261 . S
C42 O61 1.243 . S
C43 C42 1.503 . S
C43 C44 1.394 . S
C43 C48 1.373 . S
C44 C43 1.394 . S
C44 C45 1.380 . S
C44 H72 0.930 . S
C45 C44 1.380 . S
C45 C46 1.376 . S
C45 H73 0.930 . S
C46 C45 1.376 . S
C46 C47 1.370 . S
C47 C46 1.370 . S
C47 C48 1.396 . S
C47 H74 0.929 . S
C48 C43 1.373 . S
C48 C47 1.396 . S
C48 H75 0.929 . S
C49 O62 1.240 . S
C49 O63 1.289 . S
C50 O64 1.258 . S
C50 O65 1.256 . S
C51 La41 2.928 . S
C51 C52 1.503 1_455 S
C51 O66 1.261 . S
C51 O67 1.243 . S
C52 C51 1.503 1_655 S
C52 C53 1.394 . S
C52 C57 1.373 . S
C53 C52 1.394 . S
C53 C54 1.380 . S
C53 H76 0.930 . S
C54 C53 1.380 . S
C54 C55 1.376 . S
C54 H77 0.930 . S
C55 C54 1.376 . S
C55 C56 1.370 . S
C56 C55 1.370 . S
C56 C57 1.396 . S
C56 H78 0.929 . S
C57 C52 1.373 . S
C57 C56 1.396 . S
C57 H79 0.929 . S
C58 O68 1.240 . S
C58 O69 1.289 . S
C59 O70 1.258 . S
C59 O71 1.256 . S
O60 La40 2.521 . S
O60 C42 1.261 . S
O61 La40 2.628 . S
O61 C42 1.243 . S
O62 La40 2.554 . S
O62 C49 1.240 . S
O63 La40 2.757 . S
O63 La41 2.482 . S
O63 C49 1.289 . S
O64 La40 2.470 . S
O64 C50 1.258 . S
O65 La41 2.503 . S
O65 C50 1.256 . S
O66 La41 2.521 . S
O66 C51 1.261 . S
O67 La41 2.628 . S
O67 C51 1.243 . S
O68 La41 2.554 . S
O68 C58 1.240 . S
O69 La40 2.482 . S
O69 La41 2.757 . S
O69 C58 1.289 . S
O70 La41 2.470 . S
O70 C59 1.258 . S
O71 La40 2.503 . S
O71 C59 1.256 . S
H72 C44 0.930 . S
H73 C45 0.930 . S
H74 C47 0.929 . S
H75 C48 0.929 . S
H76 C53 0.930 . S
H77 C54 0.930 . S
H78 C56 0.929 . S
H79 C57 0.929 . S
La80 C82 2.928 . S
La80 O100 2.521 . S
La80 O101 2.628 . S
La80 O102 2.554 . S
La80 O103 2.757 1_655 S
La80 O104 2.470 . S
La80 O109 2.482 1_655 S
La80 O111 2.503 1_655 S
La81 C91 2.928 . S
La81 O103 2.482 . S
La81 O105 2.503 . S
La81 O106 2.521 . S
La81 O107 2.628 . S
La81 O108 2.554 . S
La81 O109 2.757 . S
La81 O110 2.470 . S
C82 La80 2.928 . S
C82 C83 1.503 . S
C82 O100 1.261 . S
C82 O101 1.243 . S
C83 C82 1.503 . S
C83 C84 1.394 . S
C83 C88 1.373 . S
C84 C83 1.394 . S
C84 C85 1.380 . S
C84 H112 0.930 . S
C85 C84 1.380 . S
C85 C86 1.376 . S
C85 H113 0.930 . S
C86 C85 1.376 . S
C86 C87 1.370 . S
C87 C86 1.370 . S
C87 C88 1.396 . S
C87 H114 0.929 . S
C88 C83 1.373 . S
C88 C87 1.396 . S
C88 H115 0.929 . S
C89 O102 1.240 1_455 S
C89 O103 1.289 . S
C90 O104 1.258 . S
C90 O105 1.256 1_655 S
C91 La81 2.928 . S
C91 C92 1.503 . S
C91 O106 1.261 . S
C91 O107 1.243 . S
C92 C91 1.503 . S
C92 C93 1.394 . S
C92 C97 1.373 . S
C93 C92 1.394 . S
C93 C94 1.380 . S
C93 H116 0.930 . S
C94 C93 1.380 . S
C94 C95 1.376 . S
C94 H117 0.930 . S
C95 C94 1.376 . S
C95 C96 1.370 . S
C96 C95 1.370 . S
C96 C97 1.396 . S
C96 H118 0.929 . S
C97 C92 1.373 . S
C97 C96 1.396 . S
C97 H119 0.929 . S
C98 O108 1.240 . S
C98 O109 1.289 . S
C99 O110 1.258 . S
C99 O111 1.256 . S
O100 La80 2.521 . S
O100 C82 1.261 . S
O101 La80 2.628 . S
O101 C82 1.243 . S
O102 La80 2.554 . S
O102 C89 1.240 1_655 S
O103 La80 2.757 1_455 S
O103 La81 2.482 . S
O103 C89 1.289 . S
O104 La80 2.470 . S
O104 C90 1.258 . S
O105 La81 2.503 . S
O105 C90 1.256 1_455 S
O106 La81 2.521 . S
O106 C91 1.261 . S
O107 La81 2.628 . S
O107 C91 1.243 . S
O108 La81 2.554 . S
O108 C98 1.240 . S
O109 La80 2.482 1_455 S
O109 La81 2.757 . S
O109 C98 1.289 . S
O110 La81 2.470 . S
O110 C99 1.258 . S
O111 La80 2.503 1_455 S
O111 C99 1.256 . S
H112 C84 0.930 . S
H113 C85 0.930 . S
H114 C87 0.929 . S
H115 C88 0.929 . S
H116 C93 0.930 . S
H117 C94 0.930 . S
H118 C96 0.929 . S
H119 C97 0.929 . S
La120 C122 2.928 . S
La120 O140 2.521 . S
La120 O141 2.628 . S
La120 O142 2.554 . S
La120 O143 2.757 . S
La120 O144 2.470 . S
La120 O149 2.482 . S
La120 O151 2.503 . S
La121 C131 2.928 . S
La121 O143 2.482 . S
La121 O145 2.503 . S
La121 O146 2.521 . S
La121 O147 2.628 . S
La121 O148 2.554 . S
La121 O149 2.757 . S
La121 O150 2.470 . S
C122 La120 2.928 . S
C122 C123 1.503 . S
C122 O140 1.261 . S
C122 O141 1.243 . S
C123 C122 1.503 . S
C123 C124 1.394 . S
C123 C128 1.373 . S
C124 C123 1.394 . S
C124 C125 1.380 . S
C124 H152 0.930 . S
C125 C124 1.380 . S
C125 C126 1.376 . S
C125 H153 0.930 . S
C126 C125 1.376 . S
C126 C127 1.370 . S
C127 C126 1.370 . S
C127 C128 1.396 . S
C127 H154 0.929 . S
C128 C123 1.373 . S
C128 C127 1.396 . S
C128 H155 0.929 . S
C129 O142 1.240 . S
C129 O143 1.289 . S
C130 O144 1.258 . S
C130 O145 1.256 . S
C131 La121 2.928 . S
C131 C132 1.503 1_455 S
C131 O146 1.261 . S
C131 O147 1.243 . S
C132 C131 1.503 1_655 S
C132 C133 1.394 . S
C132 C137 1.373 . S
C133 C132 1.394 . S
C133 C134 1.380 . S
C133 H156 0.930 . S
C134 C133 1.380 . S
C134 C135 1.376 . S
C134 H157 0.930 . S
C135 C134 1.376 . S
C135 C136 1.370 . S
C136 C135 1.370 . S
C136 C137 1.396 . S
C136 H158 0.929 . S
C137 C132 1.373 . S
C137 C136 1.396 . S
C137 H159 0.929 . S
C138 O148 1.240 . S
C138 O149 1.289 . S
C139 O150 1.258 . S
C139 O151 1.256 . S
O140 La120 2.521 . S
O140 C122 1.261 . S
O141 La120 2.628 . S
O141 C122 1.243 . S
O142 La120 2.554 . S
O142 C129 1.240 . S
O143 La120 2.757 . S
O143 La121 2.482 . S
O143 C129 1.289 . S
O144 La120 2.470 . S
O144 C130 1.258 . S
O145 La121 2.503 . S
O145 C130 1.256 . S
O146 La121 2.521 . S
O146 C131 1.261 . S
O147 La121 2.628 . S
O147 C131 1.243 . S
O148 La121 2.554 . S
O148 C138 1.240 . S
O149 La120 2.482 . S
O149 La121 2.757 . S
O149 C138 1.289 . S
O150 La121 2.470 . S
O150 C139 1.258 . S
O151 La120 2.503 . S
O151 C139 1.256 . S
H152 C124 0.930 . S
H153 C125 0.930 . S
H154 C127 0.929 . S
H155 C128 0.929 . S
H156 C133 0.930 . S
H157 C134 0.930 . S
H158 C136 0.929 . S
H159 C137 0.929 . S
La160 C162 2.928 . S
La160 O180 2.521 . S
La160 O181 2.628 . S
La160 O182 2.554 . S
La160 O183 2.757 . S
La160 O184 2.470 . S
La160 O189 2.482 . S
La160 O191 2.503 . S
La161 C171 2.928 . S
La161 O183 2.482 1_455 S
La161 O185 2.503 1_455 S
La161 O186 2.521 . S
La161 O187 2.628 . S
La161 O188 2.554 . S
La161 O189 2.757 1_455 S
La161 O190 2.470 . S
C162 La160 2.928 . S
C162 C163 1.503 . S
C162 O180 1.261 . S
C162 O181 1.243 . S
C163 C162 1.503 . S
C163 C164 1.394 . S
C163 C168 1.373 . S
C164 C163 1.394 . S
C164 C165 1.380 . S
C164 H192 0.930 . S
C165 C164 1.380 . S
C165 C166 1.376 . S
C165 H193 0.930 . S
C166 C165 1.376 . S
C166 C167 1.370 . S
C167 C166 1.370 . S
C167 C168 1.396 . S
C167 H194 0.929 . S
C168 C163 1.373 . S
C168 C167 1.396 . S
C168 H195 0.929 . S
C169 O182 1.240 . S
C169 O183 1.289 . S
C170 O184 1.258 . S
C170 O185 1.256 . S
C171 La161 2.928 . S
C171 C172 1.503 . S
C171 O186 1.261 . S
C171 O187 1.243 . S
C172 C171 1.503 . S
C172 C173 1.394 . S
C172 C177 1.373 . S
C173 C172 1.394 . S
C173 C174 1.380 . S
C173 H196 0.930 . S
C174 C173 1.380 . S
C174 C175 1.376 . S
C174 H197 0.930 . S
C175 C174 1.376 . S
C175 C176 1.370 . S
C176 C175 1.370 . S
C176 C177 1.396 . S
C176 H198 0.929 . S
C177 C172 1.373 . S
C177 C176 1.396 . S
C177 H199 0.929 . S
C178 O188 1.240 1_655 S
C178 O189 1.289 . S
C179 O190 1.258 . S
C179 O191 1.256 1_455 S
O180 La160 2.521 . S
O180 C162 1.261 . S
O181 La160 2.628 . S
O181 C162 1.243 . S
O182 La160 2.554 . S
O182 C169 1.240 . S
O183 La160 2.757 . S
O183 La161 2.482 1_655 S
O183 C169 1.289 . S
O184 La160 2.470 . S
O184 C170 1.258 . S
O185 La161 2.503 1_655 S
O185 C170 1.256 . S
O186 La161 2.521 . S
O186 C171 1.261 . S
O187 La161 2.628 . S
O187 C171 1.243 . S
O188 La161 2.554 . S
O188 C178 1.240 1_455 S
O189 La160 2.482 . S
O189 La161 2.757 1_655 S
O189 C178 1.289 . S
O190 La161 2.470 . S
O190 C179 1.258 . S
O191 La160 2.503 . S
O191 C179 1.256 1_655 S
H192 C164 0.930 . S
H193 C165 0.930 . S
H194 C167 0.929 . S
H195 C168 0.929 . S
H196 C173 0.930 . S
H197 C174 0.930 . S
H198 C176 0.929 . S
H199 C177 0.929 . S
La200 C202 2.928 . S
La200 O220 2.521 . S
La200 O221 2.628 . S
La200 O222 2.554 . S
La200 O223 2.757 . S
La200 O224 2.470 . S
La200 O229 2.482 . S
La200 O231 2.503 . S
La201 C211 2.928 . S
La201 O223 2.482 . S
La201 O225 2.503 . S
La201 O226 2.521 . S
La201 O227 2.628 . S
La201 O228 2.554 . S
La201 O229 2.757 . S
La201 O230 2.470 . S
C202 La200 2.928 . S
C202 C203 1.503 1_655 S
C202 O220 1.261 . S
C202 O221 1.243 . S
C203 C202 1.503 1_455 S
C203 C204 1.394 . S
C203 C208 1.373 . S
C204 C203 1.394 . S
C204 C205 1.380 . S
C204 H232 0.930 . S
C205 C204 1.380 . S
C205 C206 1.376 . S
C205 H233 0.930 . S
C206 C205 1.376 . S
C206 C207 1.370 . S
C207 C206 1.370 . S
C207 C208 1.396 . S
C207 H234 0.929 . S
C208 C203 1.373 . S
C208 C207 1.396 . S
C208 H235 0.929 . S
C209 O222 1.240 . S
C209 O223 1.289 . S
C210 O224 1.258 . S
C210 O225 1.256 . S
C211 La201 2.928 . S
C211 C212 1.503 . S
C211 O226 1.261 . S
C211 O227 1.243 . S
C212 C211 1.503 . S
C212 C213 1.394 . S
C212 C217 1.373 . S
C213 C212 1.394 . S
C213 C214 1.380 . S
C213 H236 0.930 . S
C214 C213 1.380 . S
C214 C215 1.376 . S
C214 H237 0.930 . S
C215 C214 1.376 . S
C215 C216 1.370 . S
C216 C215 1.370 . S
C216 C217 1.396 . S
C216 H238 0.929 . S
C217 C212 1.373 . S
C217 C216 1.396 . S
C217 H239 0.929 . S
C218 O228 1.240 . S
C218 O229 1.289 . S
C219 O230 1.258 . S
C219 O231 1.256 . S
O220 La200 2.521 . S
O220 C202 1.261 . S
O221 La200 2.628 . S
O221 C202 1.243 . S
O222 La200 2.554 . S
O222 C209 1.240 . S
O223 La200 2.757 . S
O223 La201 2.482 . S
O223 C209 1.289 . S
O224 La200 2.470 . S
O224 C210 1.258 . S
O225 La201 2.503 . S
O225 C210 1.256 . S
O226 La201 2.521 . S
O226 C211 1.261 . S
O227 La201 2.628 . S
O227 C211 1.243 . S
O228 La201 2.554 . S
O228 C218 1.240 . S
O229 La200 2.482 . S
O229 La201 2.757 . S
O229 C218 1.289 . S
O230 La201 2.470 . S
O230 C219 1.258 . S
O231 La200 2.503 . S
O231 C219 1.256 . S
H232 C204 0.930 . S
H233 C205 0.930 . S
H234 C207 0.929 . S
H235 C208 0.929 . S
H236 C213 0.930 . S
H237 C214 0.930 . S
H238 C216 0.929 . S
H239 C217 0.929 . S
La240 C242 2.928 . S
La240 O260 2.521 . S
La240 O261 2.628 . S
La240 O262 2.554 . S
La240 O263 2.757 . S
La240 O264 2.470 . S
La240 O269 2.482 . S
La240 O271 2.503 . S
La241 C251 2.928 . S
La241 O263 2.482 1_455 S
La241 O265 2.503 1_455 S
La241 O266 2.521 . S
La241 O267 2.628 . S
La241 O268 2.554 . S
La241 O269 2.757 1_455 S
La241 O270 2.470 . S
C242 La240 2.928 . S
C242 C243 1.503 . S
C242 O260 1.261 . S
C242 O261 1.243 . S
C243 C242 1.503 . S
C243 C244 1.394 . S
C243 C248 1.373 . S
C244 C243 1.394 . S
C244 C245 1.380 . S
C244 H272 0.930 . S
C245 C244 1.380 . S
C245 C246 1.376 . S
C245 H273 0.930 . S
C246 C245 1.376 . S
C246 C247 1.370 . S
C247 C246 1.370 . S
C247 C248 1.396 . S
C247 H274 0.929 . S
C248 C243 1.373 . S
C248 C247 1.396 . S
C248 H275 0.929 . S
C249 O262 1.240 . S
C249 O263 1.289 . S
C250 O264 1.258 . S
C250 O265 1.256 . S
C251 La241 2.928 . S
C251 C252 1.503 . S
C251 O266 1.261 . S
C251 O267 1.243 . S
C252 C251 1.503 . S
C252 C253 1.394 . S
C252 C257 1.373 . S
C253 C252 1.394 . S
C253 C254 1.380 . S
C253 H276 0.930 . S
C254 C253 1.380 . S
C254 C255 1.376 . S
C254 H277 0.930 . S
C255 C254 1.376 . S
C255 C256 1.370 . S
C256 C255 1.370 . S
C256 C257 1.396 . S
C256 H278 0.929 . S
C257 C252 1.373 . S
C257 C256 1.396 . S
C257 H279 0.929 . S
C258 O268 1.240 1_655 S
C258 O269 1.289 . S
C259 O270 1.258 . S
C259 O271 1.256 1_455 S
O260 La240 2.521 . S
O260 C242 1.261 . S
O261 La240 2.628 . S
O261 C242 1.243 . S
O262 La240 2.554 . S
O262 C249 1.240 . S
O263 La240 2.757 . S
O263 La241 2.482 1_655 S
O263 C249 1.289 . S
O264 La240 2.470 . S
O264 C250 1.258 . S
O265 La241 2.503 1_655 S
O265 C250 1.256 . S
O266 La241 2.521 . S
O266 C251 1.261 . S
O267 La241 2.628 . S
O267 C251 1.243 . S
O268 La241 2.554 . S
O268 C258 1.240 1_455 S
O269 La240 2.482 . S
O269 La241 2.757 1_655 S
O269 C258 1.289 . S
O270 La241 2.470 . S
O270 C259 1.258 . S
O271 La240 2.503 . S
O271 C259 1.256 1_655 S
H272 C244 0.930 . S
H273 C245 0.930 . S
H274 C247 0.929 . S
H275 C248 0.929 . S
H276 C253 0.930 . S
H277 C254 0.930 . S
H278 C256 0.929 . S
H279 C257 0.929 . S
La280 C282 2.928 . S
La280 O300 2.521 . S
La280 O301 2.628 . S
La280 O302 2.554 . S
La280 O303 2.757 . S
La280 O304 2.470 . S
La280 O309 2.482 . S
La280 O311 2.503 . S
La281 C291 2.928 . S
La281 O303 2.482 . S
La281 O305 2.503 . S
La281 O306 2.521 . S
La281 O307 2.628 . S
La281 O308 2.554 . S
La281 O309 2.757 . S
La281 O310 2.470 . S
C282 La280 2.928 . S
C282 C283 1.503 1_655 S
C282 O300 1.261 . S
C282 O301 1.243 . S
C283 C282 1.503 1_455 S
C283 C284 1.394 . S
C283 C288 1.373 . S
C284 C283 1.394 . S
C284 C285 1.380 . S
C284 H312 0.930 . S
C285 C284 1.380 . S
C285 C286 1.376 . S
C285 H313 0.930 . S
C286 C285 1.376 . S
C286 C287 1.370 . S
C287 C286 1.370 . S
C287 C288 1.396 . S
C287 H314 0.929 . S
C288 C283 1.373 . S
C288 C287 1.396 . S
C288 H315 0.929 . S
C289 O302 1.240 . S
C289 O303 1.289 . S
C290 O304 1.258 . S
C290 O305 1.256 . S
C291 La281 2.928 . S
C291 C292 1.503 . S
C291 O306 1.261 . S
C291 O307 1.243 . S
C292 C291 1.503 . S
C292 C293 1.394 . S
C292 C297 1.373 . S
C293 C292 1.394 . S
C293 C294 1.380 . S
C293 H316 0.930 . S
C294 C293 1.380 . S
C294 C295 1.376 . S
C294 H317 0.930 . S
C295 C294 1.376 . S
C295 C296 1.370 . S
C296 C295 1.370 . S
C296 C297 1.396 . S
C296 H318 0.929 . S
C297 C292 1.373 . S
C297 C296 1.396 . S
C297 H319 0.929 . S
C298 O308 1.240 . S
C298 O309 1.289 . S
C299 O310 1.258 . S
C299 O311 1.256 . S
O300 La280 2.521 . S
O300 C282 1.261 . S
O301 La280 2.628 . S
O301 C282 1.243 . S
O302 La280 2.554 . S
O302 C289 1.240 . S
O303 La280 2.757 . S
O303 La281 2.482 . S
O303 C289 1.289 . S
O304 La280 2.470 . S
O304 C290 1.258 . S
O305 La281 2.503 . S
O305 C290 1.256 . S
O306 La281 2.521 . S
O306 C291 1.261 . S
O307 La281 2.628 . S
O307 C291 1.243 . S
O308 La281 2.554 . S
O308 C298 1.240 . S
O309 La280 2.482 . S
O309 La281 2.757 . S
O309 C298 1.289 . S
O310 La281 2.470 . S
O310 C299 1.258 . S
O311 La280 2.503 . S
O311 C299 1.256 . S
H312 C284 0.930 . S
H313 C285 0.930 . S
H314 C287 0.929 . S
H315 C288 0.929 . S
H316 C293 0.930 . S
H317 C294 0.930 . S
H318 C296 0.929 . S
H319 C297 0.929 . S
La320 C322 2.928 . S
La320 O340 2.521 . S
La320 O341 2.628 1_545 S
La320 O342 2.554 . S
La320 O343 2.757 1_645 S
La320 O344 2.470 1_545 S
La320 O349 2.482 1_645 S
La320 O351 2.503 1_655 S
La321 C331 2.928 . S
La321 O343 2.482 . S
La321 O345 2.503 . S
La321 O346 2.521 . S
La321 O347 2.628 . S
La321 O348 2.554 . S
La321 O349 2.757 . S
La321 O350 2.470 1_565 S
C322 La320 2.928 . S
C322 C323 1.503 1_545 S
C322 O340 1.261 . S
C322 O341 1.243 1_545 S
C323 C322 1.503 1_565 S
C323 C324 1.394 1_565 S
C323 C328 1.373 . S
C324 C323 1.394 1_545 S
C324 C325 1.380 1_545 S
C324 H352 0.930 . S
C325 C324 1.380 1_565 S
C325 C326 1.376 . S
C325 H353 0.928 1_565 S
C326 C325 1.376 . S
C326 C327 1.370 . S
C327 C326 1.370 . S
C327 C328 1.396 . S
C327 H354 0.929 . S
C328 C323 1.373 . S
C328 C327 1.396 . S
C328 H355 0.929 . S
C329 O342 1.240 1_465 S
C329 O343 1.289 . S
C330 O344 1.258 . S
C330 O345 1.256 1_655 S
C331 La321 2.928 . S
C331 C332 1.503 . S
C331 O346 1.261 . S
C331 O347 1.243 . S
C332 C331 1.503 . S
C332 C333 1.394 . S
C332 C337 1.365 1_565 S
C333 C332 1.394 . S
C333 C334 1.380 . S
C333 H356 0.930 . S
C334 C333 1.380 . S
C334 C335 1.375 1_565 S
C334 H357 0.930 . S
C335 C334 1.375 1_545 S
C335 C336 1.371 . S
C336 C335 1.371 . S
C336 C337 1.400 . S
C336 H358 0.929 . S
C337 C332 1.365 1_545 S
C337 C336 1.400 . S
C337 H359 0.934 . S
C338 O348 1.240 . S
C338 O349 1.289 . S
C339 O350 1.258 . S
C339 O351 1.256 . S
O340 La320 2.521 . S
O340 C322 1.261 . S
O341 La320 2.628 1_565 S
O341 C322 1.243 1_565 S
O342 La320 2.554 . S
O342 C329 1.240 1_645 S
O343 La320 2.757 1_465 S
O343 La321 2.482 . S
O343 C329 1.289 . S
O344 La320 2.470 1_565 S
O344 C330 1.258 . S
O345 La321 2.503 . S
O345 C330 1.256 1_455 S
O346 La321 2.521 . S
O346 C331 1.261 . S
O347 La321 2.628 . S
O347 C331 1.243 . S
O348 La321 2.554 . S
O348 C338 1.240 . S
O349 La320 2.482 1_465 S
O349 La321 2.757 . S
O349 C338 1.289 . S
O350 La321 2.470 1_545 S
O350 C339 1.258 . S
O351 La320 2.503 1_455 S
O351 C339 1.256 . S
H352 C324 0.930 . S
H353 C325 0.928 1_545 S
H354 C327 0.929 . S
H355 C328 0.929 . S
H356 C333 0.930 . S
H357 C334 0.930 . S
H358 C336 0.929 . S
H359 C337 0.934 . S
La360 C362 2.928 . S
La360 O380 2.521 . S
La360 O381 2.628 . S
La360 O382 2.554 . S
La360 O383 2.757 . S
La360 O384 2.470 . S
La360 O389 2.482 . S
La360 O391 2.503 . S
La361 C371 2.928 . S
La361 O383 2.482 . S
La361 O385 2.503 . S
La361 O386 2.521 . S
La361 O387 2.628 . S
La361 O388 2.554 . S
La361 O389 2.757 . S
La361 O390 2.470 . S
C362 La360 2.928 . S
C362 C363 1.503 . S
C362 O380 1.261 . S
C362 O381 1.243 . S
C363 C362 1.503 . S
C363 C364 1.394 . S
C363 C368 1.373 . S
C364 C363 1.394 . S
C364 C365 1.380 . S
C364 H392 0.930 . S
C365 C364 1.380 . S
C365 C366 1.376 . S
C365 H393 0.930 . S
C366 C365 1.376 . S
C366 C367 1.370 . S
C367 C366 1.370 . S
C367 C368 1.396 . S
C367 H394 0.929 . S
C368 C363 1.373 . S
C368 C367 1.396 . S
C368 H395 0.929 . S
C369 O382 1.240 . S
C369 O383 1.289 . S
C370 O384 1.258 . S
C370 O385 1.256 . S
C371 La361 2.928 . S
C371 C372 1.503 1_455 S
C371 O386 1.261 . S
C371 O387 1.243 . S
C372 C371 1.503 1_655 S
C372 C373 1.394 . S
C372 C377 1.373 . S
C373 C372 1.394 . S
C373 C374 1.380 . S
C373 H396 0.930 . S
C374 C373 1.380 . S
C374 C375 1.376 . S
C374 H397 0.930 . S
C375 C374 1.376 . S
C375 C376 1.370 . S
C376 C375 1.370 . S
C376 C377 1.396 . S
C376 H398 0.929 . S
C377 C372 1.373 . S
C377 C376 1.396 . S
C377 H399 0.929 . S
C378 O388 1.240 . S
C378 O389 1.289 . S
C379 O390 1.258 . S
C379 O391 1.256 . S
O380 La360 2.521 . S
O380 C362 1.261 . S
O381 La360 2.628 . S
O381 C362 1.243 . S
O382 La360 2.554 . S
O382 C369 1.240 . S
O383 La360 2.757 . S
O383 La361 2.482 . S
O383 C369 1.289 . S
O384 La360 2.470 . S
O384 C370 1.258 . S
O385 La361 2.503 . S
O385 C370 1.256 . S
O386 La361 2.521 . S
O386 C371 1.261 . S
O387 La361 2.628 . S
O387 C371 1.243 . S
O388 La361 2.554 . S
O388 C378 1.240 . S
O389 La360 2.482 . S
O389 La361 2.757 . S
O389 C378 1.289 . S
O390 La361 2.470 . S
O390 C379 1.258 . S
O391 La360 2.503 . S
O391 C379 1.256 . S
H392 C364 0.930 . S
H393 C365 0.930 . S
H394 C367 0.929 . S
H395 C368 0.929 . S
H396 C373 0.930 . S
H397 C374 0.930 . S
H398 C376 0.929 . S
H399 C377 0.929 . S
La400 C402 2.928 . S
La400 O420 2.521 . S
La400 O421 2.628 . S
La400 O422 2.554 . S
La400 O423 2.757 1_655 S
La400 O424 2.470 . S
La400 O429 2.482 1_655 S
La400 O431 2.503 1_655 S
La401 C411 2.928 . S
La401 O423 2.482 . S
La401 O425 2.503 . S
La401 O426 2.521 . S
La401 O427 2.628 . S
La401 O428 2.554 . S
La401 O429 2.757 . S
La401 O430 2.470 . S
C402 La400 2.928 . S
C402 C403 1.503 . S
C402 O420 1.261 . S
C402 O421 1.243 . S
C403 C402 1.503 . S
C403 C404 1.394 . S
C403 C408 1.373 . S
C404 C403 1.394 . S
C404 C405 1.380 . S
C404 H432 0.930 . S
C405 C404 1.380 . S
C405 C406 1.376 . S
C405 H433 0.930 . S
C406 C405 1.376 . S
C406 C407 1.370 . S
C407 C406 1.370 . S
C407 C408 1.396 . S
C407 H434 0.929 . S
C408 C403 1.373 . S
C408 C407 1.396 . S
C408 H435 0.929 . S
C409 O422 1.240 1_455 S
C409 O423 1.289 . S
C410 O424 1.258 . S
C410 O425 1.256 1_655 S
C411 La401 2.928 . S
C411 C412 1.503 . S
C411 O426 1.261 . S
C411 O427 1.243 . S
C412 C411 1.503 . S
C412 C413 1.394 . S
C412 C417 1.373 . S
C413 C412 1.394 . S
C413 C414 1.380 . S
C413 H436 0.930 . S
C414 C413 1.380 . S
C414 C415 1.376 . S
C414 H437 0.930 . S
C415 C414 1.376 . S
C415 C416 1.370 . S
C416 C415 1.370 . S
C416 C417 1.396 . S
C416 H438 0.929 . S
C417 C412 1.373 . S
C417 C416 1.396 . S
C417 H439 0.929 . S
C418 O428 1.240 . S
C418 O429 1.289 . S
C419 O430 1.258 . S
C419 O431 1.256 . S
O420 La400 2.521 . S
O420 C402 1.261 . S
O421 La400 2.628 . S
O421 C402 1.243 . S
O422 La400 2.554 . S
O422 C409 1.240 1_655 S
O423 La400 2.757 1_455 S
O423 La401 2.482 . S
O423 C409 1.289 . S
O424 La400 2.470 . S
O424 C410 1.258 . S
O425 La401 2.503 . S
O425 C410 1.256 1_455 S
O426 La401 2.521 . S
O426 C411 1.261 . S
O427 La401 2.628 . S
O427 C411 1.243 . S
O428 La401 2.554 . S
O428 C418 1.240 . S
O429 La400 2.482 1_455 S
O429 La401 2.757 . S
O429 C418 1.289 . S
O430 La401 2.470 . S
O430 C419 1.258 . S
O431 La400 2.503 1_455 S
O431 C419 1.256 . S
H432 C404 0.930 . S
H433 C405 0.930 . S
H434 C407 0.929 . S
H435 C408 0.929 . S
H436 C413 0.930 . S
H437 C414 0.930 . S
H438 C416 0.929 . S
H439 C417 0.929 . S
La440 C442 2.928 . S
La440 O460 2.521 . S
La440 O461 2.628 1_545 S
La440 O462 2.554 . S
La440 O463 2.757 1_545 S
La440 O464 2.470 1_545 S
La440 O469 2.482 1_545 S
La440 O471 2.503 . S
La441 C451 2.928 . S
La441 O463 2.482 . S
La441 O465 2.503 . S
La441 O466 2.521 . S
La441 O467 2.628 . S
La441 O468 2.554 . S
La441 O469 2.757 . S
La441 O470 2.470 1_565 S
C442 La440 2.928 . S
C442 C443 1.503 1_545 S
C442 O460 1.261 . S
C442 O461 1.243 1_545 S
C443 C442 1.503 1_565 S
C443 C444 1.394 1_565 S
C443 C448 1.373 . S
C444 C443 1.394 1_545 S
C444 C445 1.380 1_545 S
C444 H472 0.930 . S
C445 C444 1.380 1_565 S
C445 C446 1.376 . S
C445 H473 0.928 1_565 S
C446 C445 1.376 . S
C446 C447 1.370 . S
C447 C446 1.370 . S
C447 C448 1.396 . S
C447 H474 0.929 . S
C448 C443 1.373 . S
C448 C447 1.396 . S
C448 H475 0.929 . S
C449 O462 1.240 1_565 S
C449 O463 1.289 . S
C450 O464 1.258 . S
C450 O465 1.256 . S
C451 La441 2.928 . S
C451 C452 1.503 1_455 S
C451 O466 1.261 . S
C451 O467 1.243 . S
C452 C451 1.503 1_655 S
C452 C453 1.394 . S
C452 C457 1.365 1_565 S
C453 C452 1.394 . S
C453 C454 1.380 . S
C453 H476 0.930 . S
C454 C453 1.380 . S
C454 C455 1.375 1_565 S
C454 H477 0.930 . S
C455 C454 1.375 1_545 S
C455 C456 1.371 . S
C456 C455 1.371 . S
C456 C457 1.400 . S
C456 H478 0.929 . S
C457 C452 1.365 1_545 S
C457 C456 1.400 . S
C457 H479 0.934 . S
C458 O468 1.240 . S
C458 O469 1.289 . S
C459 O470 1.258 . S
C459 O471 1.256 . S
O460 La440 2.521 . S
O460 C442 1.261 . S
O461 La440 2.628 1_565 S
O461 C442 1.243 1_565 S
O462 La440 2.554 . S
O462 C449 1.240 1_545 S
O463 La440 2.757 1_565 S
O463 La441 2.482 . S
O463 C449 1.289 . S
O464 La440 2.470 1_565 S
O464 C450 1.258 . S
O465 La441 2.503 . S
O465 C450 1.256 . S
O466 La441 2.521 . S
O466 C451 1.261 . S
O467 La441 2.628 . S
O467 C451 1.243 . S
O468 La441 2.554 . S
O468 C458 1.240 . S
O469 La440 2.482 1_565 S
O469 La441 2.757 . S
O469 C458 1.289 . S
O470 La441 2.470 1_545 S
O470 C459 1.258 . S
O471 La440 2.503 . S
O471 C459 1.256 . S
H472 C444 0.930 . S
H473 C445 0.928 1_545 S
H474 C447 0.929 . S
H475 C448 0.929 . S
H476 C453 0.930 . S
H477 C454 0.930 . S
H478 C456 0.929 . S
H479 C457 0.934 . S
La480 C482 2.928 . S
La480 O500 2.521 . S
La480 O501 2.628 . S
La480 O502 2.554 . S
La480 O503 2.757 . S
La480 O504 2.470 1_545 S
La480 O509 2.482 . S
La480 O511 2.503 . S
La481 C491 2.928 . S
La481 O503 2.482 1_465 S
La481 O505 2.503 1_455 S
La481 O506 2.521 . S
La481 O507 2.628 1_565 S
La481 O508 2.554 . S
La481 O509 2.757 1_465 S
La481 O510 2.470 1_565 S
C482 La480 2.928 . S
C482 C483 1.503 . S
C482 O500 1.261 . S
C482 O501 1.243 . S
C483 C482 1.503 . S
C483 C484 1.394 . S
C483 C488 1.365 1_545 S
C484 C483 1.394 . S
C484 C485 1.380 . S
C484 H512 0.930 . S
C485 C484 1.380 . S
C485 C486 1.375 1_545 S
C485 H513 0.930 . S
C486 C485 1.375 1_565 S
C486 C487 1.371 . S
C487 C486 1.371 . S
C487 C488 1.400 . S
C487 H514 0.929 . S
C488 C483 1.365 1_565 S
C488 C487 1.400 . S
C488 H515 0.934 . S
C489 O502 1.240 . S
C489 O503 1.289 . S
C490 O504 1.258 . S
C490 O505 1.256 . S
C491 La481 2.928 . S
C491 C492 1.503 1_565 S
C491 O506 1.261 . S
C491 O507 1.243 1_565 S
C492 C491 1.503 1_545 S
C492 C493 1.394 1_545 S
C492 C497 1.373 . S
C493 C492 1.394 1_565 S
C493 C494 1.380 1_565 S
C493 H516 0.930 . S
C494 C493 1.380 1_545 S
C494 C495 1.376 . S
C494 H517 0.928 1_545 S
C495 C494 1.376 . S
C495 C496 1.370 . S
C496 C495 1.370 . S
C496 C497 1.396 . S
C496 H518 0.929 . S
C497 C492 1.373 . S
C497 C496 1.396 . S
C497 H519 0.929 . S
C498 O508 1.240 1_645 S
C498 O509 1.289 . S
C499 O510 1.258 . S
C499 O511 1.256 1_455 S
O500 La480 2.521 . S
O500 C482 1.261 . S
O501 La480 2.628 . S
O501 C482 1.243 . S
O502 La480 2.554 . S
O502 C489 1.240 . S
O503 La480 2.757 . S
O503 La481 2.482 1_645 S
O503 C489 1.289 . S
O504 La480 2.470 1_565 S
O504 C490 1.258 . S
O505 La481 2.503 1_655 S
O505 C490 1.256 . S
O506 La481 2.521 . S
O506 C491 1.261 . S
O507 La481 2.628 1_545 S
O507 C491 1.243 1_545 S
O508 La481 2.554 . S
O508 C498 1.240 1_465 S
O509 La480 2.482 . S
O509 La481 2.757 1_645 S
O509 C498 1.289 . S
O510 La481 2.470 1_545 S
O510 C499 1.258 . S
O511 La480 2.503 . S
O511 C499 1.256 1_655 S
H512 C484 0.930 . S
H513 C485 0.930 . S
H514 C487 0.929 . S
H515 C488 0.934 . S
H516 C493 0.930 . S
H517 C494 0.928 1_565 S
H518 C496 0.929 . S
H519 C497 0.929 . S
La520 C522 2.928 . S
La520 O540 2.521 . S
La520 O541 2.628 . S
La520 O542 2.554 . S
La520 O543 2.757 . S
La520 O544 2.470 . S
La520 O549 2.482 . S
La520 O551 2.503 . S
La521 C531 2.928 . S
La521 O543 2.482 . S
La521 O545 2.503 . S
La521 O546 2.521 . S
La521 O547 2.628 . S
La521 O548 2.554 . S
La521 O549 2.757 . S
La521 O550 2.470 . S
C522 La520 2.928 . S
C522 C523 1.503 1_655 S
C522 O540 1.261 . S
C522 O541 1.243 . S
C523 C522 1.503 1_455 S
C523 C524 1.394 . S
C523 C528 1.373 . S
C524 C523 1.394 . S
C524 C525 1.380 . S
C524 H552 0.930 . S
C525 C524 1.380 . S
C525 C526 1.376 . S
C525 H553 0.930 . S
C526 C525 1.376 . S
C526 C527 1.370 . S
C527 C526 1.370 . S
C527 C528 1.396 . S
C527 H554 0.929 . S
C528 C523 1.373 . S
C528 C527 1.396 . S
C528 H555 0.929 . S
C529 O542 1.240 . S
C529 O543 1.289 . S
C530 O544 1.258 . S
C530 O545 1.256 . S
C531 La521 2.928 . S
C531 C532 1.503 . S
C531 O546 1.261 . S
C531 O547 1.243 . S
C532 C531 1.503 . S
C532 C533 1.394 . S
C532 C537 1.373 . S
C533 C532 1.394 . S
C533 C534 1.380 . S
C533 H556 0.930 . S
C534 C533 1.380 . S
C534 C535 1.376 . S
C534 H557 0.930 . S
C535 C534 1.376 . S
C535 C536 1.370 . S
C536 C535 1.370 . S
C536 C537 1.396 . S
C536 H558 0.929 . S
C537 C532 1.373 . S
C537 C536 1.396 . S
C537 H559 0.929 . S
C538 O548 1.240 . S
C538 O549 1.289 . S
C539 O550 1.258 . S
C539 O551 1.256 . S
O540 La520 2.521 . S
O540 C522 1.261 . S
O541 La520 2.628 . S
O541 C522 1.243 . S
O542 La520 2.554 . S
O542 C529 1.240 . S
O543 La520 2.757 . S
O543 La521 2.482 . S
O543 C529 1.289 . S
O544 La520 2.470 . S
O544 C530 1.258 . S
O545 La521 2.503 . S
O545 C530 1.256 . S
O546 La521 2.521 . S
O546 C531 1.261 . S
O547 La521 2.628 . S
O547 C531 1.243 . S
O548 La521 2.554 . S
O548 C538 1.240 . S
O549 La520 2.482 . S
O549 La521 2.757 . S
O549 C538 1.289 . S
O550 La521 2.470 . S
O550 C539 1.258 . S
O551 La520 2.503 . S
O551 C539 1.256 . S
H552 C524 0.930 . S
H553 C525 0.930 . S
H554 C527 0.929 . S
H555 C528 0.929 . S
H556 C533 0.930 . S
H557 C534 0.930 . S
H558 C536 0.929 . S
H559 C537 0.929 . S
La560 C562 2.928 . S
La560 O580 2.521 . S
La560 O581 2.628 . S
La560 O582 2.554 . S
La560 O583 2.757 . S
La560 O584 2.470 . S
La560 O589 2.482 . S
La560 O591 2.503 . S
La561 C571 2.928 . S
La561 O583 2.482 1_455 S
La561 O585 2.503 1_455 S
La561 O586 2.521 . S
La561 O587 2.628 . S
La561 O588 2.554 . S
La561 O589 2.757 1_455 S
La561 O590 2.470 . S
C562 La560 2.928 . S
C562 C563 1.503 . S
C562 O580 1.261 . S
C562 O581 1.243 . S
C563 C562 1.503 . S
C563 C564 1.394 . S
C563 C568 1.373 . S
C564 C563 1.394 . S
C564 C565 1.380 . S
C564 H592 0.930 . S
C565 C564 1.380 . S
C565 C566 1.376 . S
C565 H593 0.930 . S
C566 C565 1.376 . S
C566 C567 1.370 . S
C567 C566 1.370 . S
C567 C568 1.396 . S
C567 H594 0.929 . S
C568 C563 1.373 . S
C568 C567 1.396 . S
C568 H595 0.929 . S
C569 O582 1.240 . S
C569 O583 1.289 . S
C570 O584 1.258 . S
C570 O585 1.256 . S
C571 La561 2.928 . S
C571 C572 1.503 . S
C571 O586 1.261 . S
C571 O587 1.243 . S
C572 C571 1.503 . S
C572 C573 1.394 . S
C572 C577 1.373 . S
C573 C572 1.394 . S
C573 C574 1.380 . S
C573 H596 0.930 . S
C574 C573 1.380 . S
C574 C575 1.376 . S
C574 H597 0.930 . S
C575 C574 1.376 . S
C575 C576 1.370 . S
C576 C575 1.370 . S
C576 C577 1.396 . S
C576 H598 0.929 . S
C577 C572 1.373 . S
C577 C576 1.396 . S
C577 H599 0.929 . S
C578 O588 1.240 1_655 S
C578 O589 1.289 . S
C579 O590 1.258 . S
C579 O591 1.256 1_455 S
O580 La560 2.521 . S
O580 C562 1.261 . S
O581 La560 2.628 . S
O581 C562 1.243 . S
O582 La560 2.554 . S
O582 C569 1.240 . S
O583 La560 2.757 . S
O583 La561 2.482 1_655 S
O583 C569 1.289 . S
O584 La560 2.470 . S
O584 C570 1.258 . S
O585 La561 2.503 1_655 S
O585 C570 1.256 . S
O586 La561 2.521 . S
O586 C571 1.261 . S
O587 La561 2.628 . S
O587 C571 1.243 . S
O588 La561 2.554 . S
O588 C578 1.240 1_455 S
O589 La560 2.482 . S
O589 La561 2.757 1_655 S
O589 C578 1.289 . S
O590 La561 2.470 . S
O590 C579 1.258 . S
O591 La560 2.503 . S
O591 C579 1.256 1_655 S
H592 C564 0.930 . S
H593 C565 0.930 . S
H594 C567 0.929 . S
H595 C568 0.929 . S
H596 C573 0.930 . S
H597 C574 0.930 . S
H598 C576 0.929 . S
H599 C577 0.929 . S
La600 C602 2.928 . S
La600 O620 2.521 . S
La600 O621 2.628 . S
La600 O622 2.554 . S
La600 O623 2.757 . S
La600 O624 2.470 1_545 S
La600 O629 2.482 . S
La600 O631 2.503 . S
La601 C611 2.928 . S
La601 O623 2.482 1_565 S
La601 O625 2.503 . S
La601 O626 2.521 . S
La601 O627 2.628 1_565 S
La601 O628 2.554 . S
La601 O629 2.757 1_565 S
La601 O630 2.470 1_565 S
C602 La600 2.928 . S
C602 C603 1.503 1_655 S
C602 O620 1.261 . S
C602 O621 1.243 . S
C603 C602 1.503 1_455 S
C603 C604 1.394 . S
C603 C608 1.365 1_545 S
C604 C603 1.394 . S
C604 C605 1.380 . S
C604 H632 0.930 . S
C605 C604 1.380 . S
C605 C606 1.375 1_545 S
C605 H633 0.930 . S
C606 C605 1.375 1_565 S
C606 C607 1.371 . S
C607 C606 1.371 . S
C607 C608 1.400 . S
C607 H634 0.929 . S
C608 C603 1.365 1_565 S
C608 C607 1.400 . S
C608 H635 0.934 . S
C609 O622 1.240 . S
C609 O623 1.289 . S
C610 O624 1.258 . S
C610 O625 1.256 . S
C611 La601 2.928 . S
C611 C612 1.503 1_565 S
C611 O626 1.261 . S
C611 O627 1.243 1_565 S
C612 C611 1.503 1_545 S
C612 C613 1.394 1_545 S
C612 C617 1.373 . S
C613 C612 1.394 1_565 S
C613 C614 1.380 1_565 S
C613 H636 0.930 . S
C614 C613 1.380 1_545 S
C614 C615 1.376 . S
C614 H637 0.928 1_545 S
C615 C614 1.376 . S
C615 C616 1.370 . S
C616 C615 1.370 . S
C616 C617 1.396 . S
C616 H638 0.929 . S
C617 C612 1.373 . S
C617 C616 1.396 . S
C617 H639 0.929 . S
C618 O628 1.240 1_545 S
C618 O629 1.289 . S
C619 O630 1.258 . S
C619 O631 1.256 . S
O620 La600 2.521 . S
O620 C602 1.261 . S
O621 La600 2.628 . S
O621 C602 1.243 . S
O622 La600 2.554 . S
O622 C609 1.240 . S
O623 La600 2.757 . S
O623 La601 2.482 1_545 S
O623 C609 1.289 . S
O624 La600 2.470 1_565 S
O624 C610 1.258 . S
O625 La601 2.503 . S
O625 C610 1.256 . S
O626 La601 2.521 . S
O626 C611 1.261 . S
O627 La601 2.628 1_545 S
O627 C611 1.243 1_545 S
O628 La601 2.554 . S
O628 C618 1.240 1_565 S
O629 La600 2.482 . S
O629 La601 2.757 1_545 S
O629 C618 1.289 . S
O630 La601 2.470 1_545 S
O630 C619 1.258 . S
O631 La600 2.503 . S
O631 C619 1.256 . S
H632 C604 0.930 . S
H633 C605 0.930 . S
H634 C607 0.929 . S
H635 C608 0.934 . S
H636 C613 0.930 . S
H637 C614 0.928 1_565 S
H638 C616 0.929 . S
H639 C617 0.929 . S
La640 C642 2.928 . S
La640 O660 2.521 . S
La640 O661 2.628 . S
La640 O662 2.554 . S
La640 O663 2.757 . S
La640 O664 2.470 . S
La640 O669 2.482 . S
La640 O671 2.503 . S
La641 C651 2.928 . S
La641 O663 2.482 . S
La641 O665 2.503 . S
La641 O666 2.521 . S
La641 O667 2.628 . S
La641 O668 2.554 . S
La641 O669 2.757 . S
La641 O670 2.470 . S
C642 La640 2.928 . S
C642 C643 1.503 . S
C642 O660 1.261 . S
C642 O661 1.243 . S
C643 C642 1.503 . S
C643 C644 1.394 . S
C643 C648 1.373 . S
C644 C643 1.394 . S
C644 C645 1.380 . S
C644 H672 0.930 . S
C645 C644 1.380 . S
C645 C646 1.376 . S
C645 H673 0.930 . S
C646 C645 1.376 . S
C646 C647 1.370 . S
C647 C646 1.370 . S
C647 C648 1.396 . S
C647 H674 0.929 . S
C648 C643 1.373 . S
C648 C647 1.396 . S
C648 H675 0.929 . S
C649 O662 1.240 . S
C649 O663 1.289 . S
C650 O664 1.258 . S
C650 O665 1.256 . S
C651 La641 2.928 . S
C651 C652 1.503 . S
C651 O666 1.261 . S
C651 O667 1.243 . S
C652 C651 1.503 . S
C652 C653 1.394 . S
C652 C657 1.373 . S
C653 C652 1.394 . S
C653 C654 1.380 . S
C653 H676 0.930 . S
C654 C653 1.380 . S
C654 C655 1.376 . S
C654 H677 0.930 . S
C655 C654 1.376 . S
C655 C656 1.370 . S
C656 C655 1.370 . S
C656 C657 1.396 . S
C656 H678 0.929 . S
C657 C652 1.373 . S
C657 C656 1.396 . S
C657 H679 0.929 . S
C658 O668 1.240 . S
C658 O669 1.289 . S
C659 O670 1.258 . S
C659 O671 1.256 . S
O660 La640 2.521 . S
O660 C642 1.261 . S
O661 La640 2.628 . S
O661 C642 1.243 . S
O662 La640 2.554 . S
O662 C649 1.240 . S
O663 La640 2.757 . S
O663 La641 2.482 . S
O663 C649 1.289 . S
O664 La640 2.470 . S
O664 C650 1.258 . S
O665 La641 2.503 . S
O665 C650 1.256 . S
O666 La641 2.521 . S
O666 C651 1.261 . S
O667 La641 2.628 . S
O667 C651 1.243 . S
O668 La641 2.554 . S
O668 C658 1.240 . S
O669 La640 2.482 . S
O669 La641 2.757 . S
O669 C658 1.289 . S
O670 La641 2.470 . S
O670 C659 1.258 . S
O671 La640 2.503 . S
O671 C659 1.256 . S
H672 C644 0.930 . S
H673 C645 0.930 . S
H674 C647 0.929 . S
H675 C648 0.929 . S
H676 C653 0.930 . S
H677 C654 0.930 . S
H678 C656 0.929 . S
H679 C657 0.929 . S
La680 C682 2.928 . S
La680 O700 2.521 . S
La680 O701 2.628 . S
La680 O702 2.554 . S
La680 O703 2.757 . S
La680 O704 2.470 . S
La680 O709 2.482 . S
La680 O711 2.503 . S
La681 C691 2.928 . S
La681 O703 2.482 . S
La681 O705 2.503 . S
La681 O706 2.521 . S
La681 O707 2.628 . S
La681 O708 2.554 . S
La681 O709 2.757 . S
La681 O710 2.470 . S
C682 La680 2.928 . S
C682 C683 1.503 . S
C682 O700 1.261 . S
C682 O701 1.243 . S
C683 C682 1.503 . S
C683 C684 1.394 1_655 S
C683 C688 1.373 1_655 S
C684 C683 1.394 1_455 S
C684 C685 1.380 . S
C684 H712 0.930 1_455 S
C685 C684 1.380 . S
C685 C686 1.376 . S
C685 H713 0.930 . S
C686 C685 1.376 . S
C686 C687 1.370 . S
C687 C686 1.370 . S
C687 C688 1.396 . S
C687 H714 0.929 . S
C688 C683 1.373 1_455 S
C688 C687 1.396 . S
C688 H715 0.929 1_455 S
C689 O702 1.240 . S
C689 O703 1.289 . S
C690 O704 1.258 . S
C690 O705 1.256 . S
C691 La681 2.928 . S
C691 C692 1.503 . S
C691 O706 1.261 . S
C691 O707 1.243 . S
C692 C691 1.503 . S
C692 C693 1.394 . S
C692 C697 1.373 . S
C693 C692 1.394 . S
C693 C694 1.380 . S
C693 H716 0.930 . S
C694 C693 1.380 . S
C694 C695 1.376 . S
C694 H717 0.930 . S
C695 C694 1.376 . S
C695 C696 1.370 . S
C696 C695 1.370 . S
C696 C697 1.396 . S
C696 H718 0.929 . S
C697 C692 1.373 . S
C697 C696 1.396 . S
C697 H719 0.929 . S
C698 O708 1.240 . S
C698 O709 1.289 . S
C699 O710 1.258 . S
C699 O711 1.256 . S
O700 La680 2.521 . S
O700 C682 1.261 . S
O701 La680 2.628 . S
O701 C682 1.243 . S
O702 La680 2.554 . S
O702 C689 1.240 . S
O703 La680 2.757 . S
O703 La681 2.482 . S
O703 C689 1.289 . S
O704 La680 2.470 . S
O704 C690 1.258 . S
O705 La681 2.503 . S
O705 C690 1.256 . S
O706 La681 2.521 . S
O706 C691 1.261 . S
O707 La681 2.628 . S
O707 C691 1.243 . S
O708 La681 2.554 . S
O708 C698 1.240 . S
O709 La680 2.482 . S
O709 La681 2.757 . S
O709 C698 1.289 . S
O710 La681 2.470 . S
O710 C699 1.258 . S
O711 La680 2.503 . S
O711 C699 1.256 . S
H712 C684 0.930 1_655 S
H713 C685 0.930 . S
H714 C687 0.929 . S
H715 C688 0.929 1_655 S
H716 C693 0.930 . S
H717 C694 0.930 . S
H718 C696 0.929 . S
H719 C697 0.929 . S
La720 C722 2.928 . S
La720 O740 2.521 . S
La720 O741 2.628 . S
La720 O742 2.554 . S
La720 O743 2.757 . S
La720 O744 2.470 . S
La720 O749 2.482 . S
La720 O751 2.503 . S
La721 C731 2.928 . S
La721 O743 2.482 . S
La721 O745 2.503 . S
La721 O746 2.521 . S
La721 O747 2.628 . S
La721 O748 2.554 . S
La721 O749 2.757 . S
La721 O750 2.470 . S
C722 La720 2.928 . S
C722 C723 1.503 . S
C722 O740 1.261 . S
C722 O741 1.243 . S
C723 C722 1.503 . S
C723 C724 1.394 . S
C723 C728 1.373 . S
C724 C723 1.394 . S
C724 C725 1.380 . S
C724 H752 0.930 . S
C725 C724 1.380 . S
C725 C726 1.376 . S
C725 H753 0.930 . S
C726 C725 1.376 . S
C726 C727 1.370 . S
C727 C726 1.370 . S
C727 C728 1.396 . S
C727 H754 0.929 . S
C728 C723 1.373 . S
C728 C727 1.396 . S
C728 H755 0.929 . S
C729 O742 1.240 . S
C729 O743 1.289 . S
C730 O744 1.258 . S
C730 O745 1.256 . S
C731 La721 2.928 . S
C731 C732 1.503 . S
C731 O746 1.261 . S
C731 O747 1.243 . S
C732 C731 1.503 . S
C732 C733 1.394 . S
C732 C737 1.373 . S
C733 C732 1.394 . S
C733 C734 1.380 . S
C733 H756 0.930 . S
C734 C733 1.380 . S
C734 C735 1.376 . S
C734 H757 0.930 . S
C735 C734 1.376 . S
C735 C736 1.370 . S
C736 C735 1.370 . S
C736 C737 1.396 . S
C736 H758 0.929 . S
C737 C732 1.373 . S
C737 C736 1.396 . S
C737 H759 0.929 . S
C738 O748 1.240 . S
C738 O749 1.289 . S
C739 O750 1.258 . S
C739 O751 1.256 . S
O740 La720 2.521 . S
O740 C722 1.261 . S
O741 La720 2.628 . S
O741 C722 1.243 . S
O742 La720 2.554 . S
O742 C729 1.240 . S
O743 La720 2.757 . S
O743 La721 2.482 . S
O743 C729 1.289 . S
O744 La720 2.470 . S
O744 C730 1.258 . S
O745 La721 2.503 . S
O745 C730 1.256 . S
O746 La721 2.521 . S
O746 C731 1.261 . S
O747 La721 2.628 . S
O747 C731 1.243 . S
O748 La721 2.554 . S
O748 C738 1.240 . S
O749 La720 2.482 . S
O749 La721 2.757 . S
O749 C738 1.289 . S
O750 La721 2.470 . S
O750 C739 1.258 . S
O751 La720 2.503 . S
O751 C739 1.256 . S
H752 C724 0.930 . S
H753 C725 0.930 . S
H754 C727 0.929 . S
H755 C728 0.929 . S
H756 C733 0.930 . S
H757 C734 0.930 . S
H758 C736 0.929 . S
H759 C737 0.929 . S
La760 C762 2.928 . S
La760 O780 2.521 . S
La760 O781 2.628 . S
La760 O782 2.554 . S
La760 O783 2.757 . S
La760 O784 2.470 . S
La760 O789 2.482 . S
La760 O791 2.503 . S
La761 C771 2.928 . S
La761 O783 2.482 . S
La761 O785 2.503 . S
La761 O786 2.521 . S
La761 O787 2.628 . S
La761 O788 2.554 . S
La761 O789 2.757 . S
La761 O790 2.470 . S
C762 La760 2.928 . S
C762 C763 1.503 . S
C762 O780 1.261 . S
C762 O781 1.243 . S
C763 C762 1.503 . S
C763 C764 1.394 1_655 S
C763 C768 1.373 1_655 S
C764 C763 1.394 1_455 S
C764 C765 1.380 . S
C764 H792 0.930 1_455 S
C765 C764 1.380 . S
C765 C766 1.376 . S
C765 H793 0.930 . S
C766 C765 1.376 . S
C766 C767 1.370 . S
C767 C766 1.370 . S
C767 C768 1.396 . S
C767 H794 0.929 . S
C768 C763 1.373 1_455 S
C768 C767 1.396 . S
C768 H795 0.929 1_455 S
C769 O782 1.240 . S
C769 O783 1.289 . S
C770 O784 1.258 . S
C770 O785 1.256 . S
C771 La761 2.928 . S
C771 C772 1.503 . S
C771 O786 1.261 . S
C771 O787 1.243 . S
C772 C771 1.503 . S
C772 C773 1.394 . S
C772 C777 1.373 . S
C773 C772 1.394 . S
C773 C774 1.380 . S
C773 H796 0.930 . S
C774 C773 1.380 . S
C774 C775 1.376 . S
C774 H797 0.930 . S
C775 C774 1.376 . S
C775 C776 1.370 . S
C776 C775 1.370 . S
C776 C777 1.396 . S
C776 H798 0.929 . S
C777 C772 1.373 . S
C777 C776 1.396 . S
C777 H799 0.929 . S
C778 O788 1.240 . S
C778 O789 1.289 . S
C779 O790 1.258 . S
C779 O791 1.256 . S
O780 La760 2.521 . S
O780 C762 1.261 . S
O781 La760 2.628 . S
O781 C762 1.243 . S
O782 La760 2.554 . S
O782 C769 1.240 . S
O783 La760 2.757 . S
O783 La761 2.482 . S
O783 C769 1.289 . S
O784 La760 2.470 . S
O784 C770 1.258 . S
O785 La761 2.503 . S
O785 C770 1.256 . S
O786 La761 2.521 . S
O786 C771 1.261 . S
O787 La761 2.628 . S
O787 C771 1.243 . S
O788 La761 2.554 . S
O788 C778 1.240 . S
O789 La760 2.482 . S
O789 La761 2.757 . S
O789 C778 1.289 . S
O790 La761 2.470 . S
O790 C779 1.258 . S
O791 La760 2.503 . S
O791 C779 1.256 . S
H792 C764 0.930 1_655 S
H793 C765 0.930 . S
H794 C767 0.929 . S
H795 C768 0.929 1_655 S
H796 C773 0.930 . S
H797 C774 0.930 . S
H798 C776 0.929 . S
H799 C777 0.929 . S
La800 C802 2.928 . S
La800 O820 2.521 . S
La800 O821 2.628 . S
La800 O822 2.554 . S
La800 O823 2.757 . S
La800 O824 2.470 . S
La800 O829 2.482 . S
La800 O831 2.503 . S
La801 C811 2.928 . S
La801 O823 2.482 . S
La801 O825 2.503 . S
La801 O826 2.521 . S
La801 O827 2.628 . S
La801 O828 2.554 . S
La801 O829 2.757 . S
La801 O830 2.470 . S
C802 La800 2.928 . S
C802 C803 1.503 . S
C802 O820 1.261 . S
C802 O821 1.243 . S
C803 C802 1.503 . S
C803 C804 1.394 . S
C803 C808 1.373 . S
C804 C803 1.394 . S
C804 C805 1.380 . S
C804 H832 0.930 . S
C805 C804 1.380 . S
C805 C806 1.376 . S
C805 H833 0.930 . S
C806 C805 1.376 . S
C806 C807 1.370 . S
C807 C806 1.370 . S
C807 C808 1.396 . S
C807 H834 0.929 . S
C808 C803 1.373 . S
C808 C807 1.396 . S
C808 H835 0.929 . S
C809 O822 1.240 . S
C809 O823 1.289 . S
C810 O824 1.258 . S
C810 O825 1.256 . S
C811 La801 2.928 . S
C811 C812 1.503 . S
C811 O826 1.261 . S
C811 O827 1.243 . S
C812 C811 1.503 . S
C812 C813 1.394 . S
C812 C817 1.373 . S
C813 C812 1.394 . S
C813 C814 1.380 . S
C813 H836 0.930 . S
C814 C813 1.380 . S
C814 C815 1.376 . S
C814 H837 0.930 . S
C815 C814 1.376 . S
C815 C816 1.370 . S
C816 C815 1.370 . S
C816 C817 1.396 . S
C816 H838 0.929 . S
C817 C812 1.373 . S
C817 C816 1.396 . S
C817 H839 0.929 . S
C818 O828 1.240 . S
C818 O829 1.289 . S
C819 O830 1.258 . S
C819 O831 1.256 . S
O820 La800 2.521 . S
O820 C802 1.261 . S
O821 La800 2.628 . S
O821 C802 1.243 . S
O822 La800 2.554 . S
O822 C809 1.240 . S
O823 La800 2.757 . S
O823 La801 2.482 . S
O823 C809 1.289 . S
O824 La800 2.470 . S
O824 C810 1.258 . S
O825 La801 2.503 . S
O825 C810 1.256 . S
O826 La801 2.521 . S
O826 C811 1.261 . S
O827 La801 2.628 . S
O827 C811 1.243 . S
O828 La801 2.554 . S
O828 C818 1.240 . S
O829 La800 2.482 . S
O829 La801 2.757 . S
O829 C818 1.289 . S
O830 La801 2.470 . S
O830 C819 1.258 . S
O831 La800 2.503 . S
O831 C819 1.256 . S
H832 C804 0.930 . S
H833 C805 0.930 . S
H834 C807 0.929 . S
H835 C808 0.929 . S
H836 C813 0.930 . S
H837 C814 0.930 . S
H838 C816 0.929 . S
H839 C817 0.929 . S
La840 C842 2.928 . S
La840 O860 2.521 . S
La840 O861 2.628 . S
La840 O862 2.554 . S
La840 O863 2.757 . S
La840 O864 2.470 . S
La840 O869 2.482 . S
La840 O871 2.503 . S
La841 C851 2.928 . S
La841 O863 2.482 . S
La841 O865 2.503 . S
La841 O866 2.521 . S
La841 O867 2.628 . S
La841 O868 2.554 . S
La841 O869 2.757 . S
La841 O870 2.470 . S
C842 La840 2.928 . S
C842 C843 1.503 . S
C842 O860 1.261 . S
C842 O861 1.243 . S
C843 C842 1.503 . S
C843 C844 1.394 . S
C843 C848 1.373 . S
C844 C843 1.394 . S
C844 C845 1.380 . S
C844 H872 0.930 . S
C845 C844 1.380 . S
C845 C846 1.376 . S
C845 H873 0.930 . S
C846 C845 1.376 . S
C846 C847 1.370 . S
C847 C846 1.370 . S
C847 C848 1.396 . S
C847 H874 0.929 . S
C848 C843 1.373 . S
C848 C847 1.396 . S
C848 H875 0.929 . S
C849 O862 1.240 . S
C849 O863 1.289 . S
C850 O864 1.258 . S
C850 O865 1.256 . S
C851 La841 2.928 . S
C851 C852 1.503 . S
C851 O866 1.261 . S
C851 O867 1.243 . S
C852 C851 1.503 . S
C852 C853 1.394 1_455 S
C852 C857 1.373 1_455 S
C853 C852 1.394 1_655 S
C853 C854 1.380 . S
C853 H876 0.930 1_655 S
C854 C853 1.380 . S
C854 C855 1.376 . S
C854 H877 0.930 . S
C855 C854 1.376 . S
C855 C856 1.370 . S
C856 C855 1.370 . S
C856 C857 1.396 . S
C856 H878 0.929 . S
C857 C852 1.373 1_655 S
C857 C856 1.396 . S
C857 H879 0.929 1_655 S
C858 O868 1.240 . S
C858 O869 1.289 . S
C859 O870 1.258 . S
C859 O871 1.256 . S
O860 La840 2.521 . S
O860 C842 1.261 . S
O861 La840 2.628 . S
O861 C842 1.243 . S
O862 La840 2.554 . S
O862 C849 1.240 . S
O863 La840 2.757 . S
O863 La841 2.482 . S
O863 C849 1.289 . S
O864 La840 2.470 . S
O864 C850 1.258 . S
O865 La841 2.503 . S
O865 C850 1.256 . S
O866 La841 2.521 . S
O866 C851 1.261 . S
O867 La841 2.628 . S
O867 C851 1.243 . S
O868 La841 2.554 . S
O868 C858 1.240 . S
O869 La840 2.482 . S
O869 La841 2.757 . S
O869 C858 1.289 . S
O870 La841 2.470 . S
O870 C859 1.258 . S
O871 La840 2.503 . S
O871 C859 1.256 . S
H872 C844 0.930 . S
H873 C845 0.930 . S
H874 C847 0.929 . S
H875 C848 0.929 . S
H876 C853 0.930 1_455 S
H877 C854 0.930 . S
H878 C856 0.929 . S
H879 C857 0.929 1_455 S
La880 C882 2.928 . S
La880 O900 2.521 . S
La880 O901 2.628 . S
La880 O902 2.554 . S
La880 O903 2.757 . S
La880 O904 2.470 . S
La880 O909 2.482 . S
La880 O911 2.503 . S
La881 C891 2.928 . S
La881 O903 2.482 . S
La881 O905 2.503 . S
La881 O906 2.521 . S
La881 O907 2.628 . S
La881 O908 2.554 . S
La881 O909 2.757 . S
La881 O910 2.470 . S
C882 La880 2.928 . S
C882 C883 1.503 . S
C882 O900 1.261 . S
C882 O901 1.243 . S
C883 C882 1.503 . S
C883 C884 1.394 . S
C883 C888 1.373 . S
C884 C883 1.394 . S
C884 C885 1.380 . S
C884 H912 0.930 . S
C885 C884 1.380 . S
C885 C886 1.376 . S
C885 H913 0.930 . S
C886 C885 1.376 . S
C886 C887 1.370 . S
C887 C886 1.370 . S
C887 C888 1.396 . S
C887 H914 0.929 . S
C888 C883 1.373 . S
C888 C887 1.396 . S
C888 H915 0.929 . S
C889 O902 1.240 . S
C889 O903 1.289 . S
C890 O904 1.258 . S
C890 O905 1.256 . S
C891 La881 2.928 . S
C891 C892 1.503 . S
C891 O906 1.261 . S
C891 O907 1.243 . S
C892 C891 1.503 . S
C892 C893 1.394 . S
C892 C897 1.373 . S
C893 C892 1.394 . S
C893 C894 1.380 . S
C893 H916 0.930 . S
C894 C893 1.380 . S
C894 C895 1.376 . S
C894 H917 0.930 . S
C895 C894 1.376 . S
C895 C896 1.370 . S
C896 C895 1.370 . S
C896 C897 1.396 . S
C896 H918 0.929 . S
C897 C892 1.373 . S
C897 C896 1.396 . S
C897 H919 0.929 . S
C898 O908 1.240 . S
C898 O909 1.289 . S
C899 O910 1.258 . S
C899 O911 1.256 . S
O900 La880 2.521 . S
O900 C882 1.261 . S
O901 La880 2.628 . S
O901 C882 1.243 . S
O902 La880 2.554 . S
O902 C889 1.240 . S
O903 La880 2.757 . S
O903 La881 2.482 . S
O903 C889 1.289 . S
O904 La880 2.470 . S
O904 C890 1.258 . S
O905 La881 2.503 . S
O905 C890 1.256 . S
O906 La881 2.521 . S
O906 C891 1.261 . S
O907 La881 2.628 . S
O907 C891 1.243 . S
O908 La881 2.554 . S
O908 C898 1.240 . S
O909 La880 2.482 . S
O909 La881 2.757 . S
O909 C898 1.289 . S
O910 La881 2.470 . S
O910 C899 1.258 . S
O911 La880 2.503 . S
O911 C899 1.256 . S
H912 C884 0.930 . S
H913 C885 0.930 . S
H914 C887 0.929 . S
H915 C888 0.929 . S
H916 C893 0.930 . S
H917 C894 0.930 . S
H918 C896 0.929 . S
H919 C897 0.929 . S
La920 C922 2.928 . S
La920 O940 2.521 . S
La920 O941 2.628 . S
La920 O942 2.554 . S
La920 O943 2.757 . S
La920 O944 2.470 . S
La920 O949 2.482 . S
La920 O951 2.503 . S
La921 C931 2.928 . S
La921 O943 2.482 . S
La921 O945 2.503 . S
La921 O946 2.521 . S
La921 O947 2.628 . S
La921 O948 2.554 . S
La921 O949 2.757 . S
La921 O950 2.470 . S
C922 La920 2.928 . S
C922 C923 1.503 . S
C922 O940 1.261 . S
C922 O941 1.243 . S
C923 C922 1.503 . S
C923 C924 1.394 . S
C923 C928 1.373 . S
C924 C923 1.394 . S
C924 C925 1.380 . S
C924 H952 0.930 . S
C925 C924 1.380 . S
C925 C926 1.376 . S
C925 H953 0.930 . S
C926 C925 1.376 . S
C926 C927 1.370 . S
C927 C926 1.370 . S
C927 C928 1.396 . S
C927 H954 0.929 . S
C928 C923 1.373 . S
C928 C927 1.396 . S
C928 H955 0.929 . S
C929 O942 1.240 . S
C929 O943 1.289 . S
C930 O944 1.258 . S
C930 O945 1.256 . S
C931 La921 2.928 . S
C931 C932 1.503 . S
C931 O946 1.261 . S
C931 O947 1.243 . S
C932 C931 1.503 . S
C932 C933 1.394 1_455 S
C932 C937 1.373 1_455 S
C933 C932 1.394 1_655 S
C933 C934 1.380 . S
C933 H956 0.930 1_655 S
C934 C933 1.380 . S
C934 C935 1.376 . S
C934 H957 0.930 . S
C935 C934 1.376 . S
C935 C936 1.370 . S
C936 C935 1.370 . S
C936 C937 1.396 . S
C936 H958 0.929 . S
C937 C932 1.373 1_655 S
C937 C936 1.396 . S
C937 H959 0.929 1_655 S
C938 O948 1.240 . S
C938 O949 1.289 . S
C939 O950 1.258 . S
C939 O951 1.256 . S
O940 La920 2.521 . S
O940 C922 1.261 . S
O941 La920 2.628 . S
O941 C922 1.243 . S
O942 La920 2.554 . S
O942 C929 1.240 . S
O943 La920 2.757 . S
O943 La921 2.482 . S
O943 C929 1.289 . S
O944 La920 2.470 . S
O944 C930 1.258 . S
O945 La921 2.503 . S
O945 C930 1.256 . S
O946 La921 2.521 . S
O946 C931 1.261 . S
O947 La921 2.628 . S
O947 C931 1.243 . S
O948 La921 2.554 . S
O948 C938 1.240 . S
O949 La920 2.482 . S
O949 La921 2.757 . S
O949 C938 1.289 . S
O950 La921 2.470 . S
O950 C939 1.258 . S
O951 La920 2.503 . S
O951 C939 1.256 . S
H952 C924 0.930 . S
H953 C925 0.930 . S
H954 C927 0.929 . S
H955 C928 0.929 . S
H956 C933 0.930 1_455 S
H957 C934 0.930 . S
H958 C936 0.929 . S
H959 C937 0.929 1_455 S
La960 C962 2.928 . S
La960 O980 2.521 . S
La960 O981 2.628 1_545 S
La960 O982 2.554 . S
La960 O983 2.757 1_545 S
La960 O984 2.470 1_545 S
La960 O989 2.482 1_545 S
La960 O991 2.503 . S
La961 C971 2.928 . S
La961 O983 2.482 . S
La961 O985 2.503 . S
La961 O986 2.521 . S
La961 O987 2.628 . S
La961 O988 2.554 . S
La961 O989 2.757 . S
La961 O990 2.470 1_565 S
C962 La960 2.928 . S
C962 C963 1.503 1_545 S
C962 O980 1.261 . S
C962 O981 1.243 1_545 S
C963 C962 1.503 1_565 S
C963 C964 1.394 1_565 S
C963 C968 1.373 . S
C964 C963 1.394 1_545 S
C964 C965 1.380 1_545 S
C964 H992 0.930 . S
C965 C964 1.380 1_565 S
C965 C966 1.376 . S
C965 H993 0.928 1_565 S
C966 C965 1.376 . S
C966 C967 1.370 . S
C967 C966 1.370 . S
C967 C968 1.396 . S
C967 H994 0.929 . S
C968 C963 1.373 . S
C968 C967 1.396 . S
C968 H995 0.929 . S
C969 O982 1.240 1_565 S
C969 O983 1.289 . S
C970 O984 1.258 . S
C970 O985 1.256 . S
C971 La961 2.928 . S
C971 C972 1.503 . S
C971 O986 1.261 . S
C971 O987 1.243 . S
C972 C971 1.503 . S
C972 C973 1.394 . S
C972 C977 1.365 1_565 S
C973 C972 1.394 . S
C973 C974 1.380 . S
C973 H996 0.930 . S
C974 C973 1.380 . S
C974 C975 1.375 1_565 S
C974 H997 0.930 . S
C975 C974 1.375 1_545 S
C975 C976 1.371 . S
C976 C975 1.371 . S
C976 C977 1.400 . S
C976 H998 0.929 . S
C977 C972 1.365 1_545 S
C977 C976 1.400 . S
C977 H999 0.934 . S
C978 O988 1.240 . S
C978 O989 1.289 . S
C979 O990 1.258 . S
C979 O991 1.256 . S
O980 La960 2.521 . S
O980 C962 1.261 . S
O981 La960 2.628 1_565 S
O981 C962 1.243 1_565 S
O982 La960 2.554 . S
O982 C969 1.240 1_545 S
O983 La960 2.757 1_565 S
O983 La961 2.482 . S
O983 C969 1.289 . S
O984 La960 2.470 1_565 S
O984 C970 1.258 . S
O985 La961 2.503 . S
O985 C970 1.256 . S
O986 La961 2.521 . S
O986 C971 1.261 . S
O987 La961 2.628 . S
O987 C971 1.243 . S
O988 La961 2.554 . S
O988 C978 1.240 . S
O989 La960 2.482 1_565 S
O989 La961 2.757 . S
O989 C978 1.289 . S
O990 La961 2.470 1_545 S
O990 C979 1.258 . S
O991 La960 2.503 . S
O991 C979 1.256 . S
H992 C964 0.930 . S
H993 C965 0.928 1_545 S
H994 C967 0.929 . S
H995 C968 0.929 . S
H996 C973 0.930 . S
H997 C974 0.930 . S
H998 C976 0.929 . S
H999 C977 0.934 . S
La1000 C1002 2.928 . S
La1000 O1020 2.521 . S
La1000 O1021 2.628 . S
La1000 O1022 2.554 . S
La1000 O1023 2.757 . S
La1000 O1024 2.470 . S
La1000 O1029 2.482 . S
La1000 O1031 2.503 . S
La1001 C1011 2.928 . S
La1001 O1023 2.482 . S
La1001 O1025 2.503 . S
La1001 O1026 2.521 . S
La1001 O1027 2.628 . S
La1001 O1028 2.554 . S
La1001 O1029 2.757 . S
La1001 O1030 2.470 . S
C1002 La1000 2.928 . S
C1002 C1003 1.503 . S
C1002 O1020 1.261 . S
C1002 O1021 1.243 . S
C1003 C1002 1.503 . S
C1003 C1004 1.394 1_655 S
C1003 C1008 1.373 1_655 S
C1004 C1003 1.394 1_455 S
C1004 C1005 1.380 . S
C1004 H1032 0.930 1_455 S
C1005 C1004 1.380 . S
C1005 C1006 1.376 . S
C1005 H1033 0.930 . S
C1006 C1005 1.376 . S
C1006 C1007 1.370 . S
C1007 C1006 1.370 . S
C1007 C1008 1.396 . S
C1007 H1034 0.929 . S
C1008 C1003 1.373 1_455 S
C1008 C1007 1.396 . S
C1008 H1035 0.929 1_455 S
C1009 O1022 1.240 . S
C1009 O1023 1.289 . S
C1010 O1024 1.258 . S
C1010 O1025 1.256 . S
C1011 La1001 2.928 . S
C1011 C1012 1.503 . S
C1011 O1026 1.261 . S
C1011 O1027 1.243 . S
C1012 C1011 1.503 . S
C1012 C1013 1.394 . S
C1012 C1017 1.373 . S
C1013 C1012 1.394 . S
C1013 C1014 1.380 . S
C1013 H1036 0.930 . S
C1014 C1013 1.380 . S
C1014 C1015 1.376 . S
C1014 H1037 0.930 . S
C1015 C1014 1.376 . S
C1015 C1016 1.370 . S
C1016 C1015 1.370 . S
C1016 C1017 1.396 . S
C1016 H1038 0.929 . S
C1017 C1012 1.373 . S
C1017 C1016 1.396 . S
C1017 H1039 0.929 . S
C1018 O1028 1.240 . S
C1018 O1029 1.289 . S
C1019 O1030 1.258 . S
C1019 O1031 1.256 . S
O1020 La1000 2.521 . S
O1020 C1002 1.261 . S
O1021 La1000 2.628 . S
O1021 C1002 1.243 . S
O1022 La1000 2.554 . S
O1022 C1009 1.240 . S
O1023 La1000 2.757 . S
O1023 La1001 2.482 . S
O1023 C1009 1.289 . S
O1024 La1000 2.470 . S
O1024 C1010 1.258 . S
O1025 La1001 2.503 . S
O1025 C1010 1.256 . S
O1026 La1001 2.521 . S
O1026 C1011 1.261 . S
O1027 La1001 2.628 . S
O1027 C1011 1.243 . S
O1028 La1001 2.554 . S
O1028 C1018 1.240 . S
O1029 La1000 2.482 . S
O1029 La1001 2.757 . S
O1029 C1018 1.289 . S
O1030 La1001 2.470 . S
O1030 C1019 1.258 . S
O1031 La1000 2.503 . S
O1031 C1019 1.256 . S
H1032 C1004 0.930 1_655 S
H1033 C1005 0.930 . S
H1034 C1007 0.929 . S
H1035 C1008 0.929 1_655 S
H1036 C1013 0.930 . S
H1037 C1014 0.930 . S
H1038 C1016 0.929 . S
H1039 C1017 0.929 . S
La1040 C1042 2.928 . S
La1040 O1060 2.521 . S
La1040 O1061 2.628 . S
La1040 O1062 2.554 . S
La1040 O1063 2.757 . S
La1040 O1064 2.470 . S
La1040 O1069 2.482 . S
La1040 O1071 2.503 . S
La1041 C1051 2.928 . S
La1041 O1063 2.482 . S
La1041 O1065 2.503 . S
La1041 O1066 2.521 . S
La1041 O1067 2.628 . S
La1041 O1068 2.554 . S
La1041 O1069 2.757 . S
La1041 O1070 2.470 . S
C1042 La1040 2.928 . S
C1042 C1043 1.503 . S
C1042 O1060 1.261 . S
C1042 O1061 1.243 . S
C1043 C1042 1.503 . S
C1043 C1044 1.394 . S
C1043 C1048 1.373 . S
C1044 C1043 1.394 . S
C1044 C1045 1.380 . S
C1044 H1072 0.930 . S
C1045 C1044 1.380 . S
C1045 C1046 1.376 . S
C1045 H1073 0.930 . S
C1046 C1045 1.376 . S
C1046 C1047 1.370 . S
C1047 C1046 1.370 . S
C1047 C1048 1.396 . S
C1047 H1074 0.929 . S
C1048 C1043 1.373 . S
C1048 C1047 1.396 . S
C1048 H1075 0.929 . S
C1049 O1062 1.240 . S
C1049 O1063 1.289 . S
C1050 O1064 1.258 . S
C1050 O1065 1.256 . S
C1051 La1041 2.928 . S
C1051 C1052 1.503 . S
C1051 O1066 1.261 . S
C1051 O1067 1.243 . S
C1052 C1051 1.503 . S
C1052 C1053 1.394 . S
C1052 C1057 1.373 . S
C1053 C1052 1.394 . S
C1053 C1054 1.380 . S
C1053 H1076 0.930 . S
C1054 C1053 1.380 . S
C1054 C1055 1.376 . S
C1054 H1077 0.930 . S
C1055 C1054 1.376 . S
C1055 C1056 1.370 . S
C1056 C1055 1.370 . S
C1056 C1057 1.396 . S
C1056 H1078 0.929 . S
C1057 C1052 1.373 . S
C1057 C1056 1.396 . S
C1057 H1079 0.929 . S
C1058 O1068 1.240 . S
C1058 O1069 1.289 . S
C1059 O1070 1.258 . S
C1059 O1071 1.256 . S
O1060 La1040 2.521 . S
O1060 C1042 1.261 . S
O1061 La1040 2.628 . S
O1061 C1042 1.243 . S
O1062 La1040 2.554 . S
O1062 C1049 1.240 . S
O1063 La1040 2.757 . S
O1063 La1041 2.482 . S
O1063 C1049 1.289 . S
O1064 La1040 2.470 . S
O1064 C1050 1.258 . S
O1065 La1041 2.503 . S
O1065 C1050 1.256 . S
O1066 La1041 2.521 . S
O1066 C1051 1.261 . S
O1067 La1041 2.628 . S
O1067 C1051 1.243 . S
O1068 La1041 2.554 . S
O1068 C1058 1.240 . S
O1069 La1040 2.482 . S
O1069 La1041 2.757 . S
O1069 C1058 1.289 . S
O1070 La1041 2.470 . S
O1070 C1059 1.258 . S
O1071 La1040 2.503 . S
O1071 C1059 1.256 . S
H1072 C1044 0.930 . S
H1073 C1045 0.930 . S
H1074 C1047 0.929 . S
H1075 C1048 0.929 . S
H1076 C1053 0.930 . S
H1077 C1054 0.930 . S
H1078 C1056 0.929 . S
H1079 C1057 0.929 . S
La1080 C1082 2.928 . S
La1080 O1100 2.521 . S
La1080 O1101 2.628 1_545 S
La1080 O1102 2.554 . S
La1080 O1103 2.757 1_545 S
La1080 O1104 2.470 1_545 S
La1080 O1109 2.482 1_545 S
La1080 O1111 2.503 . S
La1081 C1091 2.928 . S
La1081 O1103 2.482 . S
La1081 O1105 2.503 . S
La1081 O1106 2.521 . S
La1081 O1107 2.628 . S
La1081 O1108 2.554 . S
La1081 O1109 2.757 . S
La1081 O1110 2.470 1_565 S
C1082 La1080 2.928 . S
C1082 C1083 1.503 1_545 S
C1082 O1100 1.261 . S
C1082 O1101 1.243 1_545 S
C1083 C1082 1.503 1_565 S
C1083 C1084 1.394 1_665 S
C1083 C1088 1.373 1_655 S
C1084 C1083 1.394 1_445 S
C1084 C1085 1.380 1_545 S
C1084 H1112 0.930 1_455 S
C1085 C1084 1.380 1_565 S
C1085 C1086 1.376 . S
C1085 H1113 0.928 1_565 S
C1086 C1085 1.376 . S
C1086 C1087 1.370 . S
C1087 C1086 1.370 . S
C1087 C1088 1.396 . S
C1087 H1114 0.929 . S
C1088 C1083 1.373 1_455 S
C1088 C1087 1.396 . S
C1088 H1115 0.929 1_455 S
C1089 O1102 1.240 1_565 S
C1089 O1103 1.289 . S
C1090 O1104 1.258 . S
C1090 O1105 1.256 . S
C1091 La1081 2.928 . S
C1091 C1092 1.503 . S
C1091 O1106 1.261 . S
C1091 O1107 1.243 . S
C1092 C1091 1.503 . S
C1092 C1093 1.394 . S
C1092 C1097 1.365 1_565 S
C1093 C1092 1.394 . S
C1093 C1094 1.380 . S
C1093 H1116 0.930 . S
C1094 C1093 1.380 . S
C1094 C1095 1.375 1_565 S
C1094 H1117 0.930 . S
C1095 C1094 1.375 1_545 S
C1095 C1096 1.371 . S
C1096 C1095 1.371 . S
C1096 C1097 1.400 . S
C1096 H1118 0.929 . S
C1097 C1092 1.365 1_545 S
C1097 C1096 1.400 . S
C1097 H1119 0.934 . S
C1098 O1108 1.240 . S
C1098 O1109 1.289 . S
C1099 O1110 1.258 . S
C1099 O1111 1.256 . S
O1100 La1080 2.521 . S
O1100 C1082 1.261 . S
O1101 La1080 2.628 1_565 S
O1101 C1082 1.243 1_565 S
O1102 La1080 2.554 . S
O1102 C1089 1.240 1_545 S
O1103 La1080 2.757 1_565 S
O1103 La1081 2.482 . S
O1103 C1089 1.289 . S
O1104 La1080 2.470 1_565 S
O1104 C1090 1.258 . S
O1105 La1081 2.503 . S
O1105 C1090 1.256 . S
O1106 La1081 2.521 . S
O1106 C1091 1.261 . S
O1107 La1081 2.628 . S
O1107 C1091 1.243 . S
O1108 La1081 2.554 . S
O1108 C1098 1.240 . S
O1109 La1080 2.482 1_565 S
O1109 La1081 2.757 . S
O1109 C1098 1.289 . S
O1110 La1081 2.470 1_545 S
O1110 C1099 1.258 . S
O1111 La1080 2.503 . S
O1111 C1099 1.256 . S
H1112 C1084 0.930 1_655 S
H1113 C1085 0.928 1_545 S
H1114 C1087 0.929 . S
H1115 C1088 0.929 1_655 S
H1116 C1093 0.930 . S
H1117 C1094 0.930 . S
H1118 C1096 0.929 . S
H1119 C1097 0.934 . S
La1120 C1122 2.928 . S
La1120 O1140 2.521 . S
La1120 O1141 2.628 . S
La1120 O1142 2.554 . S
La1120 O1143 2.757 . S
La1120 O1144 2.470 1_545 S
La1120 O1149 2.482 . S
La1120 O1151 2.503 . S
La1121 C1131 2.928 . S
La1121 O1143 2.482 1_565 S
La1121 O1145 2.503 . S
La1121 O1146 2.521 . S
La1121 O1147 2.628 1_565 S
La1121 O1148 2.554 . S
La1121 O1149 2.757 1_565 S
La1121 O1150 2.470 1_565 S
C1122 La1120 2.928 . S
C1122 C1123 1.503 . S
C1122 O1140 1.261 . S
C1122 O1141 1.243 . S
C1123 C1122 1.503 . S
C1123 C1124 1.394 . S
C1123 C1128 1.365 1_545 S
C1124 C1123 1.394 . S
C1124 C1125 1.380 . S
C1124 H1152 0.930 . S
C1125 C1124 1.380 . S
C1125 C1126 1.375 1_545 S
C1125 H1153 0.930 . S
C1126 C1125 1.375 1_565 S
C1126 C1127 1.371 . S
C1127 C1126 1.371 . S
C1127 C1128 1.400 . S
C1127 H1154 0.929 . S
C1128 C1123 1.365 1_565 S
C1128 C1127 1.400 . S
C1128 H1155 0.934 . S
C1129 O1142 1.240 . S
C1129 O1143 1.289 . S
C1130 O1144 1.258 . S
C1130 O1145 1.256 . S
C1131 La1121 2.928 . S
C1131 C1132 1.503 1_565 S
C1131 O1146 1.261 . S
C1131 O1147 1.243 1_565 S
C1132 C1131 1.503 1_545 S
C1132 C1133 1.394 1_545 S
C1132 C1137 1.373 . S
C1133 C1132 1.394 1_565 S
C1133 C1134 1.380 1_565 S
C1133 H1156 0.930 . S
C1134 C1133 1.380 1_545 S
C1134 C1135 1.376 . S
C1134 H1157 0.928 1_545 S
C1135 C1134 1.376 . S
C1135 C1136 1.370 . S
C1136 C1135 1.370 . S
C1136 C1137 1.396 . S
C1136 H1158 0.929 . S
C1137 C1132 1.373 . S
C1137 C1136 1.396 . S
C1137 H1159 0.929 . S
C1138 O1148 1.240 1_545 S
C1138 O1149 1.289 . S
C1139 O1150 1.258 . S
C1139 O1151 1.256 . S
O1140 La1120 2.521 . S
O1140 C1122 1.261 . S
O1141 La1120 2.628 . S
O1141 C1122 1.243 . S
O1142 La1120 2.554 . S
O1142 C1129 1.240 . S
O1143 La1120 2.757 . S
O1143 La1121 2.482 1_545 S
O1143 C1129 1.289 . S
O1144 La1120 2.470 1_565 S
O1144 C1130 1.258 . S
O1145 La1121 2.503 . S
O1145 C1130 1.256 . S
O1146 La1121 2.521 . S
O1146 C1131 1.261 . S
O1147 La1121 2.628 1_545 S
O1147 C1131 1.243 1_545 S
O1148 La1121 2.554 . S
O1148 C1138 1.240 1_565 S
O1149 La1120 2.482 . S
O1149 La1121 2.757 1_545 S
O1149 C1138 1.289 . S
O1150 La1121 2.470 1_545 S
O1150 C1139 1.258 . S
O1151 La1120 2.503 . S
O1151 C1139 1.256 . S
H1152 C1124 0.930 . S
H1153 C1125 0.930 . S
H1154 C1127 0.929 . S
H1155 C1128 0.934 . S
H1156 C1133 0.930 . S
H1157 C1134 0.928 1_565 S
H1158 C1136 0.929 . S
H1159 C1137 0.929 . S
La1160 C1162 2.928 . S
La1160 O1180 2.521 . S
La1160 O1181 2.628 . S
La1160 O1182 2.554 . S
La1160 O1183 2.757 . S
La1160 O1184 2.470 . S
La1160 O1189 2.482 . S
La1160 O1191 2.503 . S
La1161 C1171 2.928 . S
La1161 O1183 2.482 . S
La1161 O1185 2.503 . S
La1161 O1186 2.521 . S
La1161 O1187 2.628 . S
La1161 O1188 2.554 . S
La1161 O1189 2.757 . S
La1161 O1190 2.470 . S
C1162 La1160 2.928 . S
C1162 C1163 1.503 . S
C1162 O1180 1.261 . S
C1162 O1181 1.243 . S
C1163 C1162 1.503 . S
C1163 C1164 1.394 . S
C1163 C1168 1.373 . S
C1164 C1163 1.394 . S
C1164 C1165 1.380 . S
C1164 H1192 0.930 . S
C1165 C1164 1.380 . S
C1165 C1166 1.376 . S
C1165 H1193 0.930 . S
C1166 C1165 1.376 . S
C1166 C1167 1.370 . S
C1167 C1166 1.370 . S
C1167 C1168 1.396 . S
C1167 H1194 0.929 . S
C1168 C1163 1.373 . S
C1168 C1167 1.396 . S
C1168 H1195 0.929 . S
C1169 O1182 1.240 . S
C1169 O1183 1.289 . S
C1170 O1184 1.258 . S
C1170 O1185 1.256 . S
C1171 La1161 2.928 . S
C1171 C1172 1.503 . S
C1171 O1186 1.261 . S
C1171 O1187 1.243 . S
C1172 C1171 1.503 . S
C1172 C1173 1.394 1_455 S
C1172 C1177 1.373 1_455 S
C1173 C1172 1.394 1_655 S
C1173 C1174 1.380 . S
C1173 H1196 0.930 1_655 S
C1174 C1173 1.380 . S
C1174 C1175 1.376 . S
C1174 H1197 0.930 . S
C1175 C1174 1.376 . S
C1175 C1176 1.370 . S
C1176 C1175 1.370 . S
C1176 C1177 1.396 . S
C1176 H1198 0.929 . S
C1177 C1172 1.373 1_655 S
C1177 C1176 1.396 . S
C1177 H1199 0.929 1_655 S
C1178 O1188 1.240 . S
C1178 O1189 1.289 . S
C1179 O1190 1.258 . S
C1179 O1191 1.256 . S
O1180 La1160 2.521 . S
O1180 C1162 1.261 . S
O1181 La1160 2.628 . S
O1181 C1162 1.243 . S
O1182 La1160 2.554 . S
O1182 C1169 1.240 . S
O1183 La1160 2.757 . S
O1183 La1161 2.482 . S
O1183 C1169 1.289 . S
O1184 La1160 2.470 . S
O1184 C1170 1.258 . S
O1185 La1161 2.503 . S
O1185 C1170 1.256 . S
O1186 La1161 2.521 . S
O1186 C1171 1.261 . S
O1187 La1161 2.628 . S
O1187 C1171 1.243 . S
O1188 La1161 2.554 . S
O1188 C1178 1.240 . S
O1189 La1160 2.482 . S
O1189 La1161 2.757 . S
O1189 C1178 1.289 . S
O1190 La1161 2.470 . S
O1190 C1179 1.258 . S
O1191 La1160 2.503 . S
O1191 C1179 1.256 . S
H1192 C1164 0.930 . S
H1193 C1165 0.930 . S
H1194 C1167 0.929 . S
H1195 C1168 0.929 . S
H1196 C1173 0.930 1_455 S
H1197 C1174 0.930 . S
H1198 C1176 0.929 . S
H1199 C1177 0.929 1_455 S
La1200 C1202 2.928 . S
La1200 O1220 2.521 . S
La1200 O1221 2.628 . S
La1200 O1222 2.554 . S
La1200 O1223 2.757 . S
La1200 O1224 2.470 . S
La1200 O1229 2.482 . S
La1200 O1231 2.503 . S
La1201 C1211 2.928 . S
La1201 O1223 2.482 . S
La1201 O1225 2.503 . S
La1201 O1226 2.521 . S
La1201 O1227 2.628 . S
La1201 O1228 2.554 . S
La1201 O1229 2.757 . S
La1201 O1230 2.470 . S
C1202 La1200 2.928 . S
C1202 C1203 1.503 . S
C1202 O1220 1.261 . S
C1202 O1221 1.243 . S
C1203 C1202 1.503 . S
C1203 C1204 1.394 . S
C1203 C1208 1.373 . S
C1204 C1203 1.394 . S
C1204 C1205 1.380 . S
C1204 H1232 0.930 . S
C1205 C1204 1.380 . S
C1205 C1206 1.376 . S
C1205 H1233 0.930 . S
C1206 C1205 1.376 . S
C1206 C1207 1.370 . S
C1207 C1206 1.370 . S
C1207 C1208 1.396 . S
C1207 H1234 0.929 . S
C1208 C1203 1.373 . S
C1208 C1207 1.396 . S
C1208 H1235 0.929 . S
C1209 O1222 1.240 . S
C1209 O1223 1.289 . S
C1210 O1224 1.258 . S
C1210 O1225 1.256 . S
C1211 La1201 2.928 . S
C1211 C1212 1.503 . S
C1211 O1226 1.261 . S
C1211 O1227 1.243 . S
C1212 C1211 1.503 . S
C1212 C1213 1.394 . S
C1212 C1217 1.373 . S
C1213 C1212 1.394 . S
C1213 C1214 1.380 . S
C1213 H1236 0.930 . S
C1214 C1213 1.380 . S
C1214 C1215 1.376 . S
C1214 H1237 0.930 . S
C1215 C1214 1.376 . S
C1215 C1216 1.370 . S
C1216 C1215 1.370 . S
C1216 C1217 1.396 . S
C1216 H1238 0.929 . S
C1217 C1212 1.373 . S
C1217 C1216 1.396 . S
C1217 H1239 0.929 . S
C1218 O1228 1.240 . S
C1218 O1229 1.289 . S
C1219 O1230 1.258 . S
C1219 O1231 1.256 . S
O1220 La1200 2.521 . S
O1220 C1202 1.261 . S
O1221 La1200 2.628 . S
O1221 C1202 1.243 . S
O1222 La1200 2.554 . S
O1222 C1209 1.240 . S
O1223 La1200 2.757 . S
O1223 La1201 2.482 . S
O1223 C1209 1.289 . S
O1224 La1200 2.470 . S
O1224 C1210 1.258 . S
O1225 La1201 2.503 . S
O1225 C1210 1.256 . S
O1226 La1201 2.521 . S
O1226 C1211 1.261 . S
O1227 La1201 2.628 . S
O1227 C1211 1.243 . S
O1228 La1201 2.554 . S
O1228 C1218 1.240 . S
O1229 La1200 2.482 . S
O1229 La1201 2.757 . S
O1229 C1218 1.289 . S
O1230 La1201 2.470 . S
O1230 C1219 1.258 . S
O1231 La1200 2.503 . S
O1231 C1219 1.256 . S
H1232 C1204 0.930 . S
H1233 C1205 0.930 . S
H1234 C1207 0.929 . S
H1235 C1208 0.929 . S
H1236 C1213 0.930 . S
H1237 C1214 0.930 . S
H1238 C1216 0.929 . S
H1239 C1217 0.929 . S
La1240 C1242 2.928 . S
La1240 O1260 2.521 . S
La1240 O1261 2.628 . S
La1240 O1262 2.554 . S
La1240 O1263 2.757 . S
La1240 O1264 2.470 1_545 S
La1240 O1269 2.482 . S
La1240 O1271 2.503 . S
La1241 C1251 2.928 . S
La1241 O1263 2.482 1_565 S
La1241 O1265 2.503 . S
La1241 O1266 2.521 . S
La1241 O1267 2.628 1_565 S
La1241 O1268 2.554 . S
La1241 O1269 2.757 1_565 S
La1241 O1270 2.470 1_565 S
C1242 La1240 2.928 . S
C1242 C1243 1.503 . S
C1242 O1260 1.261 . S
C1242 O1261 1.243 . S
C1243 C1242 1.503 . S
C1243 C1244 1.394 . S
C1243 C1248 1.365 1_545 S
C1244 C1243 1.394 . S
C1244 C1245 1.380 . S
C1244 H1272 0.930 . S
C1245 C1244 1.380 . S
C1245 C1246 1.375 1_545 S
C1245 H1273 0.930 . S
C1246 C1245 1.375 1_565 S
C1246 C1247 1.371 . S
C1247 C1246 1.371 . S
C1247 C1248 1.400 . S
C1247 H1274 0.929 . S
C1248 C1243 1.365 1_565 S
C1248 C1247 1.400 . S
C1248 H1275 0.934 . S
C1249 O1262 1.240 . S
C1249 O1263 1.289 . S
C1250 O1264 1.258 . S
C1250 O1265 1.256 . S
C1251 La1241 2.928 . S
C1251 C1252 1.503 1_565 S
C1251 O1266 1.261 . S
C1251 O1267 1.243 1_565 S
C1252 C1251 1.503 1_545 S
C1252 C1253 1.394 1_445 S
C1252 C1257 1.373 1_455 S
C1253 C1252 1.394 1_665 S
C1253 C1254 1.380 1_565 S
C1253 H1276 0.930 1_655 S
C1254 C1253 1.380 1_545 S
C1254 C1255 1.376 . S
C1254 H1277 0.928 1_545 S
C1255 C1254 1.376 . S
C1255 C1256 1.370 . S
C1256 C1255 1.370 . S
C1256 C1257 1.396 . S
C1256 H1278 0.929 . S
C1257 C1252 1.373 1_655 S
C1257 C1256 1.396 . S
C1257 H1279 0.929 1_655 S
C1258 O1268 1.240 1_545 S
C1258 O1269 1.289 . S
C1259 O1270 1.258 . S
C1259 O1271 1.256 . S
O1260 La1240 2.521 . S
O1260 C1242 1.261 . S
O1261 La1240 2.628 . S
O1261 C1242 1.243 . S
O1262 La1240 2.554 . S
O1262 C1249 1.240 . S
O1263 La1240 2.757 . S
O1263 La1241 2.482 1_545 S
O1263 C1249 1.289 . S
O1264 La1240 2.470 1_565 S
O1264 C1250 1.258 . S
O1265 La1241 2.503 . S
O1265 C1250 1.256 . S
O1266 La1241 2.521 . S
O1266 C1251 1.261 . S
O1267 La1241 2.628 1_545 S
O1267 C1251 1.243 1_545 S
O1268 La1241 2.554 . S
O1268 C1258 1.240 1_565 S
O1269 La1240 2.482 . S
O1269 La1241 2.757 1_545 S
O1269 C1258 1.289 . S
O1270 La1241 2.470 1_545 S
O1270 C1259 1.258 . S
O1271 La1240 2.503 . S
O1271 C1259 1.256 . S
H1272 C1244 0.930 . S
H1273 C1245 0.930 . S
H1274 C1247 0.929 . S
H1275 C1248 0.934 . S
H1276 C1253 0.930 1_455 S
H1277 C1254 0.928 1_565 S
H1278 C1256 0.929 . S
H1279 C1257 0.929 1_455 S
C1280 C1281 1.369 . S
C1280 C1282 1.419 . S
C1280 H1284 0.930 . S
C1281 C1280 1.369 . S
C1281 C1290 1.429 . S
C1282 C1280 1.419 . S
C1282 C1283 1.363 . S
C1282 H1285 0.929 . S
C1283 C1282 1.363 . S
C1283 C1289 1.428 . S
H1284 C1280 0.930 . S
H1285 C1282 0.929 . S
S1286 N1287 1.613 . S
S1286 N1288 1.610 . S
N1287 S1286 1.613 . S
N1287 C1290 1.350 . S
N1288 S1286 1.610 . S
N1288 C1289 1.351 . S
C1289 C1283 1.428 . S
C1289 N1288 1.351 . S
C1289 C1290 1.434 . S
C1290 C1281 1.429 . S
C1290 N1287 1.350 . S
C1290 C1289 1.434 . S
C1291 C1292 1.369 . S
C1291 C1293 1.419 . S
C1291 H1295 0.930 . S
C1292 C1291 1.369 . S
C1292 C1301 1.429 . S
C1293 C1291 1.419 . S
C1293 C1294 1.363 . S
C1293 H1296 0.929 . S
C1294 C1293 1.363 . S
C1294 C1300 1.428 . S
H1295 C1291 0.930 . S
H1296 C1293 0.929 . S
S1297 N1298 1.613 . S
S1297 N1299 1.610 . S
N1298 S1297 1.613 . S
N1298 C1301 1.350 . S
N1299 S1297 1.610 . S
N1299 C1300 1.351 . S
C1300 C1294 1.428 . S
C1300 N1299 1.351 . S
C1300 C1301 1.434 . S
C1301 C1292 1.429 . S
C1301 N1298 1.350 . S
C1301 C1300 1.434 . S
C1302 C1303 1.369 . S
C1302 C1304 1.419 . S
C1302 H1306 0.930 . S
C1303 C1302 1.369 . S
C1303 C1312 1.429 . S
C1304 C1302 1.419 . S
C1304 C1305 1.363 . S
C1304 H1307 0.929 . S
C1305 C1304 1.363 . S
C1305 C1311 1.428 . S
H1306 C1302 0.930 . S
H1307 C1304 0.929 . S
S1308 N1309 1.613 . S
S1308 N1310 1.610 . S
N1309 S1308 1.613 . S
N1309 C1312 1.350 . S
N1310 S1308 1.610 . S
N1310 C1311 1.351 . S
C1311 C1305 1.428 . S
C1311 N1310 1.351 . S
C1311 C1312 1.434 . S
C1312 C1303 1.429 . S
C1312 N1309 1.350 . S
C1312 C1311 1.434 . S
C1313 C1314 1.369 . S
C1313 C1315 1.419 . S
C1313 H1317 0.930 . S
C1314 C1313 1.369 . S
C1314 C1323 1.429 . S
C1315 C1313 1.419 . S
C1315 C1316 1.363 . S
C1315 H1318 0.929 . S
C1316 C1315 1.363 . S
C1316 C1322 1.428 . S
H1317 C1313 0.930 . S
H1318 C1315 0.929 . S
S1319 N1320 1.613 . S
S1319 N1321 1.610 . S
N1320 S1319 1.613 . S
N1320 C1323 1.350 . S
N1321 S1319 1.610 . S
N1321 C1322 1.351 . S
C1322 C1316 1.428 . S
C1322 N1321 1.351 . S
C1322 C1323 1.434 . S
C1323 C1314 1.429 . S
C1323 N1320 1.350 . S
C1323 C1322 1.434 . S
C1324 C1325 1.369 . S
C1324 C1326 1.419 . S
C1324 H1328 0.930 . S
C1325 C1324 1.369 . S
C1325 C1334 1.429 . S
C1326 C1324 1.419 . S
C1326 C1327 1.363 . S
C1326 H1329 0.929 . S
C1327 C1326 1.363 . S
C1327 C1333 1.428 . S
H1328 C1324 0.930 . S
H1329 C1326 0.929 . S
S1330 N1331 1.613 . S
S1330 N1332 1.610 . S
N1331 S1330 1.613 . S
N1331 C1334 1.350 . S
N1332 S1330 1.610 . S
N1332 C1333 1.351 . S
C1333 C1327 1.428 . S
C1333 N1332 1.351 . S
C1333 C1334 1.434 . S
C1334 C1325 1.429 . S
C1334 N1331 1.350 . S
C1334 C1333 1.434 . S
C1335 C1336 1.369 . S
C1335 C1337 1.419 . S
C1335 H1339 0.930 . S
C1336 C1335 1.369 . S
C1336 C1345 1.429 . S
C1337 C1335 1.419 . S
C1337 C1338 1.363 . S
C1337 H1340 0.929 . S
C1338 C1337 1.363 . S
C1338 C1344 1.428 . S
H1339 C1335 0.930 . S
H1340 C1337 0.929 . S
S1341 N1342 1.613 . S
S1341 N1343 1.610 . S
N1342 S1341 1.613 . S
N1342 C1345 1.350 . S
N1343 S1341 1.610 . S
N1343 C1344 1.351 . S
C1344 C1338 1.428 . S
C1344 N1343 1.351 . S
C1344 C1345 1.434 . S
C1345 C1336 1.429 . S
C1345 N1342 1.350 . S
C1345 C1344 1.434 . S
C1346 C1347 1.369 . S
C1346 C1348 1.419 . S
C1346 H1350 0.930 . S
C1347 C1346 1.369 . S
C1347 C1356 1.429 . S
C1348 C1346 1.419 . S
C1348 C1349 1.363 . S
C1348 H1351 0.929 . S
C1349 C1348 1.363 . S
C1349 C1355 1.428 . S
H1350 C1346 0.930 . S
H1351 C1348 0.929 . S
S1352 N1353 1.613 . S
S1352 N1354 1.610 . S
N1353 S1352 1.613 . S
N1353 C1356 1.350 . S
N1354 S1352 1.610 . S
N1354 C1355 1.351 . S
C1355 C1349 1.428 . S
C1355 N1354 1.351 . S
C1355 C1356 1.434 . S
C1356 C1347 1.429 . S
C1356 N1353 1.350 . S
C1356 C1355 1.434 . S
C1357 C1358 1.369 . S
C1357 C1359 1.419 . S
C1357 H1361 0.930 . S
C1358 C1357 1.369 . S
C1358 C1367 1.429 . S
C1359 C1357 1.419 . S
C1359 C1360 1.363 . S
C1359 H1362 0.929 . S
C1360 C1359 1.363 . S
C1360 C1366 1.428 . S
H1361 C1357 0.930 . S
H1362 C1359 0.929 . S
S1363 N1364 1.613 . S
S1363 N1365 1.610 . S
N1364 S1363 1.613 . S
N1364 C1367 1.350 . S
N1365 S1363 1.610 . S
N1365 C1366 1.351 . S
C1366 C1360 1.428 . S
C1366 N1365 1.351 . S
C1366 C1367 1.434 . S
C1367 C1358 1.429 . S
C1367 N1364 1.350 . S
C1367 C1366 1.434 . S
C1368 C1369 1.369 . S
C1368 C1370 1.419 . S
C1368 H1372 0.930 . S
C1369 C1368 1.369 . S
C1369 C1378 1.429 . S
C1370 C1368 1.419 . S
C1370 C1371 1.363 . S
C1370 H1373 0.929 . S
C1371 C1370 1.363 . S
C1371 C1377 1.428 . S
H1372 C1368 0.930 . S
H1373 C1370 0.929 . S
S1374 N1375 1.613 . S
S1374 N1376 1.610 . S
N1375 S1374 1.613 . S
N1375 C1378 1.350 . S
N1376 S1374 1.610 . S
N1376 C1377 1.351 . S
C1377 C1371 1.428 . S
C1377 N1376 1.351 . S
C1377 C1378 1.434 . S
C1378 C1369 1.429 . S
C1378 N1375 1.350 . S
C1378 C1377 1.434 . S
C1379 C1380 1.369 . S
C1379 C1381 1.419 . S
C1379 H1383 0.930 . S
C1380 C1379 1.369 . S
C1380 C1389 1.429 . S
C1381 C1379 1.419 . S
C1381 C1382 1.363 . S
C1381 H1384 0.929 . S
C1382 C1381 1.363 . S
C1382 C1388 1.428 . S
H1383 C1379 0.930 . S
H1384 C1381 0.929 . S
S1385 N1386 1.613 . S
S1385 N1387 1.610 . S
N1386 S1385 1.613 . S
N1386 C1389 1.350 . S
N1387 S1385 1.610 . S
N1387 C1388 1.351 . S
C1388 C1382 1.428 . S
C1388 N1387 1.351 . S
C1388 C1389 1.434 . S
C1389 C1380 1.429 . S
C1389 N1386 1.350 . S
C1389 C1388 1.434 . S
C1390 C1391 1.369 . S
C1390 C1392 1.419 . S
C1390 H1394 0.930 . S
C1391 C1390 1.369 . S
C1391 C1400 1.429 . S
C1392 C1390 1.419 . S
C1392 C1393 1.363 . S
C1392 H1395 0.929 . S
C1393 C1392 1.363 . S
C1393 C1399 1.428 . S
H1394 C1390 0.930 . S
H1395 C1392 0.929 . S
S1396 N1397 1.613 . S
S1396 N1398 1.610 . S
N1397 S1396 1.613 . S
N1397 C1400 1.350 . S
N1398 S1396 1.610 . S
N1398 C1399 1.351 . S
C1399 C1393 1.428 . S
C1399 N1398 1.351 . S
C1399 C1400 1.434 . S
C1400 C1391 1.429 . S
C1400 N1397 1.350 . S
C1400 C1399 1.434 . S
C1401 C1402 1.369 . S
C1401 C1403 1.419 . S
C1401 H1405 0.930 . S
C1402 C1401 1.369 . S
C1402 C1411 1.429 . S
C1403 C1401 1.419 . S
C1403 C1404 1.363 . S
C1403 H1406 0.929 . S
C1404 C1403 1.363 . S
C1404 C1410 1.428 . S
H1405 C1401 0.930 . S
H1406 C1403 0.929 . S
S1407 N1408 1.613 . S
S1407 N1409 1.610 . S
N1408 S1407 1.613 . S
N1408 C1411 1.350 . S
N1409 S1407 1.610 . S
N1409 C1410 1.351 . S
C1410 C1404 1.428 . S
C1410 N1409 1.351 . S
C1410 C1411 1.434 . S
C1411 C1402 1.429 . S
C1411 N1408 1.350 . S
C1411 C1410 1.434 . S
C1412 C1413 1.369 . S
C1412 C1414 1.419 . S
C1412 H1416 0.930 . S
C1413 C1412 1.369 . S
C1413 C1422 1.429 . S
C1414 C1412 1.419 . S
C1414 C1415 1.363 . S
C1414 H1417 0.929 . S
C1415 C1414 1.363 . S
C1415 C1421 1.428 . S
H1416 C1412 0.930 . S
H1417 C1414 0.929 . S
S1418 N1419 1.613 . S
S1418 N1420 1.610 . S
N1419 S1418 1.613 . S
N1419 C1422 1.350 . S
N1420 S1418 1.610 . S
N1420 C1421 1.351 . S
C1421 C1415 1.428 . S
C1421 N1420 1.351 . S
C1421 C1422 1.434 . S
C1422 C1413 1.429 . S
C1422 N1419 1.350 . S
C1422 C1421 1.434 . S
C1423 C1424 1.369 . S
C1423 C1425 1.419 . S
C1423 H1427 0.930 . S
C1424 C1423 1.369 . S
C1424 C1433 1.429 . S
C1425 C1423 1.419 . S
C1425 C1426 1.363 . S
C1425 H1428 0.929 . S
C1426 C1425 1.363 . S
C1426 C1432 1.428 . S
H1427 C1423 0.930 . S
H1428 C1425 0.929 . S
S1429 N1430 1.613 . S
S1429 N1431 1.610 . S
N1430 S1429 1.613 . S
N1430 C1433 1.350 . S
N1431 S1429 1.610 . S
N1431 C1432 1.351 . S
C1432 C1426 1.428 . S
C1432 N1431 1.351 . S
C1432 C1433 1.434 . S
C1433 C1424 1.429 . S
C1433 N1430 1.350 . S
C1433 C1432 1.434 . S
C1434 C1435 1.369 . S
C1434 C1436 1.419 . S
C1434 H1438 0.930 . S
C1435 C1434 1.369 . S
C1435 C1444 1.429 . S
C1436 C1434 1.419 . S
C1436 C1437 1.363 . S
C1436 H1439 0.929 . S
C1437 C1436 1.363 . S
C1437 C1443 1.428 . S
H1438 C1434 0.930 . S
H1439 C1436 0.929 . S
S1440 N1441 1.613 . S
S1440 N1442 1.610 . S
N1441 S1440 1.613 . S
N1441 C1444 1.350 . S
N1442 S1440 1.610 . S
N1442 C1443 1.351 . S
C1443 C1437 1.428 . S
C1443 N1442 1.351 . S
C1443 C1444 1.434 . S
C1444 C1435 1.429 . S
C1444 N1441 1.350 . S
C1444 C1443 1.434 . S
C1445 C1446 1.369 . S
C1445 C1447 1.419 . S
C1445 H1449 0.930 . S
C1446 C1445 1.369 . S
C1446 C1455 1.429 . S
C1447 C1445 1.419 . S
C1447 C1448 1.363 . S
C1447 H1450 0.929 . S
C1448 C1447 1.363 . S
C1448 C1454 1.428 . S
H1449 C1445 0.930 . S
H1450 C1447 0.929 . S
S1451 N1452 1.613 . S
S1451 N1453 1.610 . S
N1452 S1451 1.613 . S
N1452 C1455 1.350 . S
N1453 S1451 1.610 . S
N1453 C1454 1.351 . S
C1454 C1448 1.428 . S
C1454 N1453 1.351 . S
C1454 C1455 1.434 . S
C1455 C1446 1.429 . S
C1455 N1452 1.350 . S
C1455 C1454 1.434 . S
C1456 C1457 1.369 . S
C1456 C1458 1.419 . S
C1456 H1460 0.930 . S
C1457 C1456 1.369 . S
C1457 C1466 1.429 . S
C1458 C1456 1.419 . S
C1458 C1459 1.363 . S
C1458 H1461 0.929 . S
C1459 C1458 1.363 . S
C1459 C1465 1.428 . S
H1460 C1456 0.930 . S
H1461 C1458 0.929 . S
S1462 N1463 1.613 . S
S1462 N1464 1.610 . S
N1463 S1462 1.613 . S
N1463 C1466 1.350 . S
N1464 S1462 1.610 . S
N1464 C1465 1.351 . S
C1465 C1459 1.428 . S
C1465 N1464 1.351 . S
C1465 C1466 1.434 . S
C1466 C1457 1.429 . S
C1466 N1463 1.350 . S
C1466 C1465 1.434 . S
C1467 C1468 1.369 . S
C1467 C1469 1.419 . S
C1467 H1471 0.930 . S
C1468 C1467 1.369 . S
C1468 C1477 1.429 . S
C1469 C1467 1.419 . S
C1469 C1470 1.363 . S
C1469 H1472 0.929 . S
C1470 C1469 1.363 . S
C1470 C1476 1.428 . S
H1471 C1467 0.930 . S
H1472 C1469 0.929 . S
S1473 N1474 1.613 . S
S1473 N1475 1.610 . S
N1474 S1473 1.613 . S
N1474 C1477 1.350 . S
N1475 S1473 1.610 . S
N1475 C1476 1.351 . S
C1476 C1470 1.428 . S
C1476 N1475 1.351 . S
C1476 C1477 1.434 . S
C1477 C1468 1.429 . S
C1477 N1474 1.350 . S
C1477 C1476 1.434 . S
C1478 C1479 1.369 . S
C1478 C1480 1.419 . S
C1478 H1482 0.930 . S
C1479 C1478 1.369 . S
C1479 C1488 1.429 . S
C1480 C1478 1.419 . S
C1480 C1481 1.363 . S
C1480 H1483 0.929 . S
C1481 C1480 1.363 . S
C1481 C1487 1.428 . S
H1482 C1478 0.930 . S
H1483 C1480 0.929 . S
S1484 N1485 1.613 . S
S1484 N1486 1.610 . S
N1485 S1484 1.613 . S
N1485 C1488 1.350 . S
N1486 S1484 1.610 . S
N1486 C1487 1.351 . S
C1487 C1481 1.428 . S
C1487 N1486 1.351 . S
C1487 C1488 1.434 . S
C1488 C1479 1.429 . S
C1488 N1485 1.350 . S
C1488 C1487 1.434 . S
C1489 C1490 1.369 . S
C1489 C1491 1.419 . S
C1489 H1493 0.930 . S
C1490 C1489 1.369 . S
C1490 C1499 1.429 . S
C1491 C1489 1.419 . S
C1491 C1492 1.363 . S
C1491 H1494 0.929 . S
C1492 C1491 1.363 . S
C1492 C1498 1.428 . S
H1493 C1489 0.930 . S
H1494 C1491 0.929 . S
S1495 N1496 1.613 . S
S1495 N1497 1.610 . S
N1496 S1495 1.613 . S
N1496 C1499 1.350 . S
N1497 S1495 1.610 . S
N1497 C1498 1.351 . S
C1498 C1492 1.428 . S
C1498 N1497 1.351 . S
C1498 C1499 1.434 . S
C1499 C1490 1.429 . S
C1499 N1496 1.350 . S
C1499 C1498 1.434 . S
C1500 C1501 1.369 1_545 S
C1500 C1502 1.419 . S
C1500 H1504 0.930 . S
C1501 C1500 1.369 1_565 S
C1501 C1510 1.429 . S
C1502 C1500 1.419 . S
C1502 C1503 1.363 1_545 S
C1502 H1505 0.929 . S
C1503 C1502 1.363 1_565 S
C1503 C1509 1.428 . S
H1504 C1500 0.930 . S
H1505 C1502 0.929 . S
S1506 N1507 1.613 . S
S1506 N1508 1.610 . S
N1507 S1506 1.613 . S
N1507 C1510 1.350 . S
N1508 S1506 1.610 . S
N1508 C1509 1.351 . S
C1509 C1503 1.428 . S
C1509 N1508 1.351 . S
C1509 C1510 1.434 . S
C1510 C1501 1.429 . S
C1510 N1507 1.350 . S
C1510 C1509 1.434 . S
C1511 C1512 1.369 . S
C1511 C1513 1.419 . S
C1511 H1515 0.930 . S
C1512 C1511 1.369 . S
C1512 C1521 1.429 . S
C1513 C1511 1.419 . S
C1513 C1514 1.363 . S
C1513 H1516 0.929 . S
C1514 C1513 1.363 . S
C1514 C1520 1.428 . S
H1515 C1511 0.930 . S
H1516 C1513 0.929 . S
S1517 N1518 1.613 . S
S1517 N1519 1.610 . S
N1518 S1517 1.613 . S
N1518 C1521 1.350 . S
N1519 S1517 1.610 . S
N1519 C1520 1.351 . S
C1520 C1514 1.428 . S
C1520 N1519 1.351 . S
C1520 C1521 1.434 . S
C1521 C1512 1.429 . S
C1521 N1518 1.350 . S
C1521 C1520 1.434 . S
C1522 C1523 1.369 . S
C1522 C1524 1.419 . S
C1522 H1526 0.930 . S
C1523 C1522 1.369 . S
C1523 C1532 1.429 1_545 S
C1524 C1522 1.419 . S
C1524 C1525 1.363 . S
C1524 H1527 0.929 . S
C1525 C1524 1.363 . S
C1525 C1531 1.428 1_545 S
H1526 C1522 0.930 . S
H1527 C1524 0.929 . S
S1528 N1529 1.613 . S
S1528 N1530 1.610 . S
N1529 S1528 1.613 . S
N1529 C1532 1.350 . S
N1530 S1528 1.610 . S
N1530 C1531 1.351 . S
C1531 C1525 1.428 1_565 S
C1531 N1530 1.351 . S
C1531 C1532 1.434 . S
C1532 C1523 1.429 1_565 S
C1532 N1529 1.350 . S
C1532 C1531 1.434 . S
C1533 C1534 1.369 . S
C1533 C1535 1.419 . S
C1533 H1537 0.930 . S
C1534 C1533 1.369 . S
C1534 C1543 1.429 . S
C1535 C1533 1.419 . S
C1535 C1536 1.363 . S
C1535 H1538 0.929 . S
C1536 C1535 1.363 . S
C1536 C1542 1.428 . S
H1537 C1533 0.930 . S
H1538 C1535 0.929 . S
S1539 N1540 1.613 . S
S1539 N1541 1.610 . S
N1540 S1539 1.613 . S
N1540 C1543 1.350 . S
N1541 S1539 1.610 . S
N1541 C1542 1.351 . S
C1542 C1536 1.428 . S
C1542 N1541 1.351 . S
C1542 C1543 1.434 . S
C1543 C1534 1.429 . S
C1543 N1540 1.350 . S
C1543 C1542 1.434 . S
C1544 C1545 1.369 . S
C1544 C1546 1.419 . S
C1544 H1548 0.930 . S
C1545 C1544 1.369 . S
C1545 C1554 1.429 . S
C1546 C1544 1.419 . S
C1546 C1547 1.363 . S
C1546 H1549 0.929 . S
C1547 C1546 1.363 . S
C1547 C1553 1.428 . S
H1548 C1544 0.930 . S
H1549 C1546 0.929 . S
S1550 N1551 1.613 . S
S1550 N1552 1.610 . S
N1551 S1550 1.613 . S
N1551 C1554 1.350 . S
N1552 S1550 1.610 . S
N1552 C1553 1.351 . S
C1553 C1547 1.428 . S
C1553 N1552 1.351 . S
C1553 C1554 1.434 . S
C1554 C1545 1.429 . S
C1554 N1551 1.350 . S
C1554 C1553 1.434 . S
C1555 C1556 1.369 . S
C1555 C1557 1.419 . S
C1555 H1559 0.930 . S
C1556 C1555 1.369 . S
C1556 C1565 1.429 . S
C1557 C1555 1.419 . S
C1557 C1558 1.363 . S
C1557 H1560 0.929 . S
C1558 C1557 1.363 . S
C1558 C1564 1.428 . S
H1559 C1555 0.930 . S
H1560 C1557 0.929 . S
S1561 N1562 1.613 . S
S1561 N1563 1.610 . S
N1562 S1561 1.613 . S
N1562 C1565 1.350 . S
N1563 S1561 1.610 . S
N1563 C1564 1.351 . S
C1564 C1558 1.428 . S
C1564 N1563 1.351 . S
C1564 C1565 1.434 . S
C1565 C1556 1.429 . S
C1565 N1562 1.350 . S
C1565 C1564 1.434 . S
C1566 C1567 1.369 . S
C1566 C1568 1.419 . S
C1566 H1570 0.930 . S
C1567 C1566 1.369 . S
C1567 C1576 1.429 . S
C1568 C1566 1.419 . S
C1568 C1569 1.363 . S
C1568 H1571 0.929 . S
C1569 C1568 1.363 . S
C1569 C1575 1.428 . S
H1570 C1566 0.930 . S
H1571 C1568 0.929 . S
S1572 N1573 1.613 . S
S1572 N1574 1.610 . S
N1573 S1572 1.613 . S
N1573 C1576 1.350 . S
N1574 S1572 1.610 . S
N1574 C1575 1.351 . S
C1575 C1569 1.428 . S
C1575 N1574 1.351 . S
C1575 C1576 1.434 . S
C1576 C1567 1.429 . S
C1576 N1573 1.350 . S
C1576 C1575 1.434 . S
C1577 C1578 1.369 . S
C1577 C1579 1.419 . S
C1577 H1581 0.930 . S
C1578 C1577 1.369 . S
C1578 C1587 1.429 . S
C1579 C1577 1.419 . S
C1579 C1580 1.363 . S
C1579 H1582 0.929 . S
C1580 C1579 1.363 . S
C1580 C1586 1.428 . S
H1581 C1577 0.930 . S
H1582 C1579 0.929 . S
S1583 N1584 1.613 . S
S1583 N1585 1.610 . S
N1584 S1583 1.613 . S
N1584 C1587 1.350 . S
N1585 S1583 1.610 . S
N1585 C1586 1.351 . S
C1586 C1580 1.428 . S
C1586 N1585 1.351 . S
C1586 C1587 1.434 . S
C1587 C1578 1.429 . S
C1587 N1584 1.350 . S
C1587 C1586 1.434 . S
C1588 C1589 1.369 . S
C1588 C1590 1.419 . S
C1588 H1592 0.930 . S
C1589 C1588 1.369 . S
C1589 C1598 1.429 . S
C1590 C1588 1.419 . S
C1590 C1591 1.363 . S
C1590 H1593 0.929 . S
C1591 C1590 1.363 . S
C1591 C1597 1.428 . S
H1592 C1588 0.930 . S
H1593 C1590 0.929 . S
S1594 N1595 1.613 1_545 S
S1594 N1596 1.610 1_545 S
N1595 S1594 1.613 1_565 S
N1595 C1598 1.350 . S
N1596 S1594 1.610 1_565 S
N1596 C1597 1.351 . S
C1597 C1591 1.428 . S
C1597 N1596 1.351 . S
C1597 C1598 1.434 . S
C1598 C1589 1.429 . S
C1598 N1595 1.350 . S
C1598 C1597 1.434 . S
C1599 C1600 1.369 . S
C1599 C1601 1.419 . S
C1599 H1603 0.930 . S
C1600 C1599 1.369 . S
C1600 C1609 1.429 . S
C1601 C1599 1.419 . S
C1601 C1602 1.363 . S
C1601 H1604 0.929 . S
C1602 C1601 1.363 . S
C1602 C1608 1.428 . S
H1603 C1599 0.930 . S
H1604 C1601 0.929 . S
S1605 N1606 1.613 . S
S1605 N1607 1.610 . S
N1606 S1605 1.613 . S
N1606 C1609 1.350 . S
N1607 S1605 1.610 . S
N1607 C1608 1.351 . S
C1608 C1602 1.428 . S
C1608 N1607 1.351 . S
C1608 C1609 1.434 . S
C1609 C1600 1.429 . S
C1609 N1606 1.350 . S
C1609 C1608 1.434 . S
C1610 C1611 1.369 1_565 S
C1610 C1612 1.419 . S
C1610 H1614 0.930 . S
C1611 C1610 1.369 1_545 S
C1611 C1620 1.429 . S
C1612 C1610 1.419 . S
C1612 C1613 1.363 1_565 S
C1612 H1615 0.929 . S
C1613 C1612 1.363 1_545 S
C1613 C1619 1.428 . S
H1614 C1610 0.930 . S
H1615 C1612 0.929 . S
S1616 N1617 1.613 . S
S1616 N1618 1.610 . S
N1617 S1616 1.613 . S
N1617 C1620 1.350 . S
N1618 S1616 1.610 . S
N1618 C1619 1.351 . S
C1619 C1613 1.428 . S
C1619 N1618 1.351 . S
C1619 C1620 1.434 . S
C1620 C1611 1.429 . S
C1620 N1617 1.350 . S
C1620 C1619 1.434 . S
C1621 C1622 1.369 . S
C1621 C1623 1.419 . S
C1621 H1625 0.930 . S
C1622 C1621 1.369 . S
C1622 C1631 1.429 . S
C1623 C1621 1.419 . S
C1623 C1624 1.363 . S
C1623 H1626 0.929 . S
C1624 C1623 1.363 . S
C1624 C1630 1.428 . S
H1625 C1621 0.930 . S
H1626 C1623 0.929 . S
S1627 N1628 1.613 . S
S1627 N1629 1.610 . S
N1628 S1627 1.613 . S
N1628 C1631 1.350 . S
N1629 S1627 1.610 . S
N1629 C1630 1.351 . S
C1630 C1624 1.428 . S
C1630 N1629 1.351 . S
C1630 C1631 1.434 . S
C1631 C1622 1.429 . S
C1631 N1628 1.350 . S
C1631 C1630 1.434 . S
C1632 C1633 1.369 . S
C1632 C1634 1.419 . S
C1632 H1636 0.930 . S
C1633 C1632 1.369 . S
C1633 C1642 1.429 . S
C1634 C1632 1.419 . S
C1634 C1635 1.363 . S
C1634 H1637 0.929 . S
C1635 C1634 1.363 . S
C1635 C1641 1.428 . S
H1636 C1632 0.930 . S
H1637 C1634 0.929 . S
S1638 N1639 1.613 . S
S1638 N1640 1.610 . S
N1639 S1638 1.613 . S
N1639 C1642 1.350 . S
N1640 S1638 1.610 . S
N1640 C1641 1.351 . S
C1641 C1635 1.428 . S
C1641 N1640 1.351 . S
C1641 C1642 1.434 . S
C1642 C1633 1.429 . S
C1642 N1639 1.350 . S
C1642 C1641 1.434 . S
C1643 C1644 1.369 . S
C1643 C1645 1.419 . S
C1643 H1647 0.930 . S
C1644 C1643 1.369 . S
C1644 C1653 1.429 . S
C1645 C1643 1.419 . S
C1645 C1646 1.363 . S
C1645 H1648 0.929 . S
C1646 C1645 1.363 . S
C1646 C1652 1.428 . S
H1647 C1643 0.930 . S
H1648 C1645 0.929 . S
S1649 N1650 1.613 1_655 S
S1649 N1651 1.610 1_655 S
N1650 S1649 1.613 1_455 S
N1650 C1653 1.350 . S
N1651 S1649 1.610 1_455 S
N1651 C1652 1.351 . S
C1652 C1646 1.428 . S
C1652 N1651 1.351 . S
C1652 C1653 1.434 . S
C1653 C1644 1.429 . S
C1653 N1650 1.350 . S
C1653 C1652 1.434 . S
C1654 C1655 1.369 . S
C1654 C1656 1.419 . S
C1654 H1658 0.930 . S
C1655 C1654 1.369 . S
C1655 C1664 1.429 . S
C1656 C1654 1.419 . S
C1656 C1657 1.363 . S
C1656 H1659 0.929 . S
C1657 C1656 1.363 . S
C1657 C1663 1.428 . S
H1658 C1654 0.930 . S
H1659 C1656 0.929 . S
S1660 N1661 1.613 . S
S1660 N1662 1.610 . S
N1661 S1660 1.613 . S
N1661 C1664 1.350 . S
N1662 S1660 1.610 . S
N1662 C1663 1.351 . S
C1663 C1657 1.428 . S
C1663 N1662 1.351 . S
C1663 C1664 1.434 . S
C1664 C1655 1.429 . S
C1664 N1661 1.350 . S
C1664 C1663 1.434 . S
C1665 C1666 1.369 . S
C1665 C1667 1.419 . S
C1665 H1669 0.930 . S
C1666 C1665 1.369 . S
C1666 C1675 1.429 . S
C1667 C1665 1.419 . S
C1667 C1668 1.363 . S
C1667 H1670 0.929 . S
C1668 C1667 1.363 . S
C1668 C1674 1.428 . S
H1669 C1665 0.930 . S
H1670 C1667 0.929 . S
S1671 N1672 1.613 . S
S1671 N1673 1.610 . S
N1672 S1671 1.613 . S
N1672 C1675 1.350 . S
N1673 S1671 1.610 . S
N1673 C1674 1.351 . S
C1674 C1668 1.428 . S
C1674 N1673 1.351 . S
C1674 C1675 1.434 . S
C1675 C1666 1.429 . S
C1675 N1672 1.350 . S
C1675 C1674 1.434 . S
C1676 C1677 1.369 . S
C1676 C1678 1.419 . S
C1676 H1680 0.930 . S
C1677 C1676 1.369 . S
C1677 C1686 1.429 . S
C1678 C1676 1.419 . S
C1678 C1679 1.363 . S
C1678 H1681 0.929 . S
C1679 C1678 1.363 . S
C1679 C1685 1.428 . S
H1680 C1676 0.930 . S
H1681 C1678 0.929 . S
S1682 N1683 1.613 . S
S1682 N1684 1.610 . S
N1683 S1682 1.613 . S
N1683 C1686 1.350 . S
N1684 S1682 1.610 . S
N1684 C1685 1.351 . S
C1685 C1679 1.428 . S
C1685 N1684 1.351 . S
C1685 C1686 1.434 . S
C1686 C1677 1.429 . S
C1686 N1683 1.350 . S
C1686 C1685 1.434 . S
C1687 C1688 1.369 . S
C1687 C1689 1.419 . S
C1687 H1691 0.930 . S
C1688 C1687 1.369 . S
C1688 C1697 1.429 . S
C1689 C1687 1.419 . S
C1689 C1690 1.363 . S
C1689 H1692 0.929 . S
C1690 C1689 1.363 . S
C1690 C1696 1.428 . S
H1691 C1687 0.930 . S
H1692 C1689 0.929 . S
S1693 N1694 1.613 . S
S1693 N1695 1.610 . S
N1694 S1693 1.613 . S
N1694 C1697 1.350 . S
N1695 S1693 1.610 . S
N1695 C1696 1.351 . S
C1696 C1690 1.428 . S
C1696 N1695 1.351 . S
C1696 C1697 1.434 . S
C1697 C1688 1.429 . S
C1697 N1694 1.350 . S
C1697 C1696 1.434 . S
C1698 C1699 1.369 . S
C1698 C1700 1.419 . S
C1698 H1702 0.930 . S
C1699 C1698 1.369 . S
C1699 C1708 1.429 . S
C1700 C1698 1.419 . S
C1700 C1701 1.363 . S
C1700 H1703 0.929 . S
C1701 C1700 1.363 . S
C1701 C1707 1.428 . S
H1702 C1698 0.930 . S
H1703 C1700 0.929 . S
S1704 N1705 1.613 . S
S1704 N1706 1.610 . S
N1705 S1704 1.613 . S
N1705 C1708 1.350 . S
N1706 S1704 1.610 . S
N1706 C1707 1.351 . S
C1707 C1701 1.428 . S
C1707 N1706 1.351 . S
C1707 C1708 1.434 . S
C1708 C1699 1.429 . S
C1708 N1705 1.350 . S
C1708 C1707 1.434 . S
C1709 C1710 1.369 . S
C1709 C1711 1.419 . S
C1709 H1713 0.930 . S
C1710 C1709 1.369 . S
C1710 C1719 1.429 . S
C1711 C1709 1.419 . S
C1711 C1712 1.363 . S
C1711 H1714 0.929 . S
C1712 C1711 1.363 . S
C1712 C1718 1.428 . S
H1713 C1709 0.930 . S
H1714 C1711 0.929 . S
S1715 N1716 1.613 . S
S1715 N1717 1.610 . S
N1716 S1715 1.613 . S
N1716 C1719 1.350 . S
N1717 S1715 1.610 . S
N1717 C1718 1.351 . S
C1718 C1712 1.428 . S
C1718 N1717 1.351 . S
C1718 C1719 1.434 . S
C1719 C1710 1.429 . S
C1719 N1716 1.350 . S
C1719 C1718 1.434 . S
C1720 C1721 1.369 . S
C1720 C1722 1.419 . S
C1720 H1724 0.930 . S
C1721 C1720 1.369 . S
C1721 C1730 1.429 . S
C1722 C1720 1.419 . S
C1722 C1723 1.363 . S
C1722 H1725 0.929 . S
C1723 C1722 1.363 . S
C1723 C1729 1.428 . S
H1724 C1720 0.930 . S
H1725 C1722 0.929 . S
S1726 N1727 1.613 . S
S1726 N1728 1.610 . S
N1727 S1726 1.613 . S
N1727 C1730 1.350 . S
N1728 S1726 1.610 . S
N1728 C1729 1.351 . S
C1729 C1723 1.428 . S
C1729 N1728 1.351 . S
C1729 C1730 1.434 . S
C1730 C1721 1.429 . S
C1730 N1727 1.350 . S
C1730 C1729 1.434 . S
C1731 C1732 1.369 . S
C1731 C1733 1.419 . S
C1731 H1735 0.930 . S
C1732 C1731 1.369 . S
C1732 C1741 1.429 . S
C1733 C1731 1.419 . S
C1733 C1734 1.363 . S
C1733 H1736 0.929 . S
C1734 C1733 1.363 . S
C1734 C1740 1.428 . S
H1735 C1731 0.930 . S
H1736 C1733 0.929 . S
S1737 N1738 1.613 . S
S1737 N1739 1.610 . S
N1738 S1737 1.613 . S
N1738 C1741 1.350 . S
N1739 S1737 1.610 . S
N1739 C1740 1.351 . S
C1740 C1734 1.428 . S
C1740 N1739 1.351 . S
C1740 C1741 1.434 . S
C1741 C1732 1.429 . S
C1741 N1738 1.350 . S
C1741 C1740 1.434 . S
C1742 C1743 1.369 . S
C1742 C1744 1.419 . S
C1742 H1746 0.930 . S
C1743 C1742 1.369 . S
C1743 C1752 1.429 . S
C1744 C1742 1.419 . S
C1744 C1745 1.363 . S
C1744 H1747 0.929 . S
C1745 C1744 1.363 . S
C1745 C1751 1.428 . S
H1746 C1742 0.930 . S
H1747 C1744 0.929 . S
S1748 N1749 1.613 . S
S1748 N1750 1.610 . S
N1749 S1748 1.613 . S
N1749 C1752 1.350 . S
N1750 S1748 1.610 . S
N1750 C1751 1.351 . S
C1751 C1745 1.428 . S
C1751 N1750 1.351 . S
C1751 C1752 1.434 . S
C1752 C1743 1.429 . S
C1752 N1749 1.350 . S
C1752 C1751 1.434 . S
C1753 C1754 1.369 . S
C1753 C1755 1.419 . S
C1753 H1757 0.930 . S
C1754 C1753 1.369 . S
C1754 C1763 1.429 . S
C1755 C1753 1.419 . S
C1755 C1756 1.363 . S
C1755 H1758 0.929 . S
C1756 C1755 1.363 . S
C1756 C1762 1.428 . S
H1757 C1753 0.930 . S
H1758 C1755 0.929 . S
S1759 N1760 1.613 . S
S1759 N1761 1.610 . S
N1760 S1759 1.613 . S
N1760 C1763 1.350 . S
N1761 S1759 1.610 . S
N1761 C1762 1.351 . S
C1762 C1756 1.428 . S
C1762 N1761 1.351 . S
C1762 C1763 1.434 . S
C1763 C1754 1.429 . S
C1763 N1760 1.350 . S
C1763 C1762 1.434 . S
C1764 C1765 1.369 . S
C1764 C1766 1.419 . S
C1764 H1768 0.930 . S
C1765 C1764 1.369 . S
C1765 C1774 1.429 . S
C1766 C1764 1.419 . S
C1766 C1767 1.363 . S
C1766 H1769 0.929 . S
C1767 C1766 1.363 . S
C1767 C1773 1.428 . S
H1768 C1764 0.930 . S
H1769 C1766 0.929 . S
S1770 N1771 1.613 . S
S1770 N1772 1.610 . S
N1771 S1770 1.613 . S
N1771 C1774 1.350 . S
N1772 S1770 1.610 . S
N1772 C1773 1.351 . S
C1773 C1767 1.428 . S
C1773 N1772 1.351 . S
C1773 C1774 1.434 . S
C1774 C1765 1.429 . S
C1774 N1771 1.350 . S
C1774 C1773 1.434 . S
C1775 C1776 1.369 . S
C1775 C1777 1.419 . S
C1775 H1779 0.930 . S
C1776 C1775 1.369 . S
C1776 C1785 1.429 . S
C1777 C1775 1.419 . S
C1777 C1778 1.363 . S
C1777 H1780 0.929 . S
C1778 C1777 1.363 . S
C1778 C1784 1.428 . S
H1779 C1775 0.930 . S
H1780 C1777 0.929 . S
S1781 N1782 1.613 . S
S1781 N1783 1.610 . S
N1782 S1781 1.613 . S
N1782 C1785 1.350 . S
N1783 S1781 1.610 . S
N1783 C1784 1.351 . S
C1784 C1778 1.428 . S
C1784 N1783 1.351 . S
C1784 C1785 1.434 . S
C1785 C1776 1.429 . S
C1785 N1782 1.350 . S
C1785 C1784 1.434 . S
C1786 C1787 1.369 . S
C1786 C1788 1.419 . S
C1786 H1790 0.930 . S
C1787 C1786 1.369 . S
C1787 C1796 1.429 . S
C1788 C1786 1.419 . S
C1788 C1789 1.363 . S
C1788 H1791 0.929 . S
C1789 C1788 1.363 . S
C1789 C1795 1.428 . S
H1790 C1786 0.930 . S
H1791 C1788 0.929 . S
S1792 N1793 1.613 . S
S1792 N1794 1.610 . S
N1793 S1792 1.613 . S
N1793 C1796 1.350 . S
N1794 S1792 1.610 . S
N1794 C1795 1.351 . S
C1795 C1789 1.428 . S
C1795 N1794 1.351 . S
C1795 C1796 1.434 . S
C1796 C1787 1.429 . S
C1796 N1793 1.350 . S
C1796 C1795 1.434 . S
C1797 C1798 1.369 . S
C1797 C1799 1.419 . S
C1797 H1801 0.930 . S
C1798 C1797 1.369 . S
C1798 C1807 1.429 . S
C1799 C1797 1.419 . S
C1799 C1800 1.363 . S
C1799 H1802 0.929 . S
C1800 C1799 1.363 . S
C1800 C1806 1.428 . S
H1801 C1797 0.930 . S
H1802 C1799 0.929 . S
S1803 N1804 1.613 . S
S1803 N1805 1.610 . S
N1804 S1803 1.613 . S
N1804 C1807 1.350 . S
N1805 S1803 1.610 . S
N1805 C1806 1.351 . S
C1806 C1800 1.428 . S
C1806 N1805 1.351 . S
C1806 C1807 1.434 . S
C1807 C1798 1.429 . S
C1807 N1804 1.350 . S
C1807 C1806 1.434 . S
C1808 C1809 1.369 . S
C1808 C1810 1.419 . S
C1808 H1812 0.930 . S
C1809 C1808 1.369 . S
C1809 C1818 1.429 . S
C1810 C1808 1.419 . S
C1810 C1811 1.363 . S
C1810 H1813 0.929 . S
C1811 C1810 1.363 . S
C1811 C1817 1.428 . S
H1812 C1808 0.930 . S
H1813 C1810 0.929 . S
S1814 N1815 1.613 . S
S1814 N1816 1.610 . S
N1815 S1814 1.613 . S
N1815 C1818 1.350 . S
N1816 S1814 1.610 . S
N1816 C1817 1.351 . S
C1817 C1811 1.428 . S
C1817 N1816 1.351 . S
C1817 C1818 1.434 . S
C1818 C1809 1.429 . S
C1818 N1815 1.350 . S
C1818 C1817 1.434 . S
C1819 C1820 1.369 . S
C1819 C1821 1.419 . S
C1819 H1823 0.930 . S
C1820 C1819 1.369 . S
C1820 C1829 1.429 . S
C1821 C1819 1.419 . S
C1821 C1822 1.363 . S
C1821 H1824 0.929 . S
C1822 C1821 1.363 . S
C1822 C1828 1.428 . S
H1823 C1819 0.930 . S
H1824 C1821 0.929 . S
S1825 N1826 1.613 . S
S1825 N1827 1.610 . S
N1826 S1825 1.613 . S
N1826 C1829 1.350 . S
N1827 S1825 1.610 . S
N1827 C1828 1.351 . S
C1828 C1822 1.428 . S
C1828 N1827 1.351 . S
C1828 C1829 1.434 . S
C1829 C1820 1.429 . S
C1829 N1826 1.350 . S
C1829 C1828 1.434 . S
C1830 C1831 1.369 . S
C1830 C1832 1.419 . S
C1830 H1834 0.930 . S
C1831 C1830 1.369 . S
C1831 C1840 1.429 . S
C1832 C1830 1.419 . S
C1832 C1833 1.363 . S
C1832 H1835 0.929 . S
C1833 C1832 1.363 . S
C1833 C1839 1.428 . S
H1834 C1830 0.930 . S
H1835 C1832 0.929 . S
S1836 N1837 1.613 . S
S1836 N1838 1.610 . S
N1837 S1836 1.613 . S
N1837 C1840 1.350 . S
N1838 S1836 1.610 . S
N1838 C1839 1.351 . S
C1839 C1833 1.428 . S
C1839 N1838 1.351 . S
C1839 C1840 1.434 . S
C1840 C1831 1.429 . S
C1840 N1837 1.350 . S
C1840 C1839 1.434 . S
C1841 C1842 1.369 . S
C1841 C1843 1.419 . S
C1841 H1845 0.930 . S
C1842 C1841 1.369 . S
C1842 C1851 1.429 . S
C1843 C1841 1.419 . S
C1843 C1844 1.363 . S
C1843 H1846 0.929 . S
C1844 C1843 1.363 . S
C1844 C1850 1.428 . S
H1845 C1841 0.930 . S
H1846 C1843 0.929 . S
S1847 N1848 1.613 . S
S1847 N1849 1.610 . S
N1848 S1847 1.613 . S
N1848 C1851 1.350 . S
N1849 S1847 1.610 . S
N1849 C1850 1.351 . S
C1850 C1844 1.428 . S
C1850 N1849 1.351 . S
C1850 C1851 1.434 . S
C1851 C1842 1.429 . S
C1851 N1848 1.350 . S
C1851 C1850 1.434 . S
C1852 C1853 1.369 . S
C1852 C1854 1.419 . S
C1852 H1856 0.930 . S
C1853 C1852 1.369 . S
C1853 C1862 1.429 . S
C1854 C1852 1.419 . S
C1854 C1855 1.363 . S
C1854 H1857 0.929 . S
C1855 C1854 1.363 . S
C1855 C1861 1.428 . S
H1856 C1852 0.930 . S
H1857 C1854 0.929 . S
S1858 N1859 1.613 . S
S1858 N1860 1.610 . S
N1859 S1858 1.613 . S
N1859 C1862 1.350 . S
N1860 S1858 1.610 . S
N1860 C1861 1.351 . S
C1861 C1855 1.428 . S
C1861 N1860 1.351 . S
C1861 C1862 1.434 . S
C1862 C1853 1.429 . S
C1862 N1859 1.350 . S
C1862 C1861 1.434 . S
C1863 C1864 1.369 . S
C1863 C1865 1.419 . S
C1863 H1867 0.930 . S
C1864 C1863 1.369 . S
C1864 C1873 1.429 . S
C1865 C1863 1.419 . S
C1865 C1866 1.363 . S
C1865 H1868 0.929 . S
C1866 C1865 1.363 . S
C1866 C1872 1.428 . S
H1867 C1863 0.930 . S
H1868 C1865 0.929 . S
S1869 N1870 1.613 . S
S1869 N1871 1.610 . S
N1870 S1869 1.613 . S
N1870 C1873 1.350 . S
N1871 S1869 1.610 . S
N1871 C1872 1.351 . S
C1872 C1866 1.428 . S
C1872 N1871 1.351 . S
C1872 C1873 1.434 . S
C1873 C1864 1.429 . S
C1873 N1870 1.350 . S
C1873 C1872 1.434 . S
C1874 C1875 1.369 . S
C1874 C1876 1.419 . S
C1874 H1878 0.930 . S
C1875 C1874 1.369 . S
C1875 C1884 1.429 . S
C1876 C1874 1.419 . S
C1876 C1877 1.363 . S
C1876 H1879 0.929 . S
C1877 C1876 1.363 . S
C1877 C1883 1.428 . S
H1878 C1874 0.930 . S
H1879 C1876 0.929 . S
S1880 N1881 1.613 . S
S1880 N1882 1.610 . S
N1881 S1880 1.613 . S
N1881 C1884 1.350 . S
N1882 S1880 1.610 . S
N1882 C1883 1.351 . S
C1883 C1877 1.428 . S
C1883 N1882 1.351 . S
C1883 C1884 1.434 . S
C1884 C1875 1.429 . S
C1884 N1881 1.350 . S
C1884 C1883 1.434 . S
C1885 C1886 1.369 . S
C1885 C1887 1.419 . S
C1885 H1889 0.930 . S
C1886 C1885 1.369 . S
C1886 C1895 1.429 . S
C1887 C1885 1.419 . S
C1887 C1888 1.363 . S
C1887 H1890 0.929 . S
C1888 C1887 1.363 . S
C1888 C1894 1.428 . S
H1889 C1885 0.930 . S
H1890 C1887 0.929 . S
S1891 N1892 1.613 . S
S1891 N1893 1.610 . S
N1892 S1891 1.613 . S
N1892 C1895 1.350 . S
N1893 S1891 1.610 . S
N1893 C1894 1.351 . S
C1894 C1888 1.428 . S
C1894 N1893 1.351 . S
C1894 C1895 1.434 . S
C1895 C1886 1.429 . S
C1895 N1892 1.350 . S
C1895 C1894 1.434 . S
C1896 C1897 1.369 . S
C1896 C1898 1.419 . S
C1896 H1900 0.930 . S
C1897 C1896 1.369 . S
C1897 C1906 1.429 1_565 S
C1898 C1896 1.419 . S
C1898 C1899 1.363 . S
C1898 H1901 0.929 . S
C1899 C1898 1.363 . S
C1899 C1905 1.428 1_565 S
H1900 C1896 0.930 . S
H1901 C1898 0.929 . S
S1902 N1903 1.613 . S
S1902 N1904 1.610 . S
N1903 S1902 1.613 . S
N1903 C1906 1.350 . S
N1904 S1902 1.610 . S
N1904 C1905 1.351 . S
C1905 C1899 1.428 1_545 S
C1905 N1904 1.351 . S
C1905 C1906 1.434 . S
C1906 C1897 1.429 1_545 S
C1906 N1903 1.350 . S
C1906 C1905 1.434 . S
C1907 C1908 1.369 . S
C1907 C1909 1.419 . S
C1907 H1911 0.930 . S
C1908 C1907 1.369 . S
C1908 C1917 1.429 . S
C1909 C1907 1.419 . S
C1909 C1910 1.363 . S
C1909 H1912 0.929 . S
C1910 C1909 1.363 . S
C1910 C1916 1.428 . S
H1911 C1907 0.930 . S
H1912 C1909 0.929 . S
S1913 N1914 1.613 . S
S1913 N1915 1.610 . S
N1914 S1913 1.613 . S
N1914 C1917 1.350 . S
N1915 S1913 1.610 . S
N1915 C1916 1.351 . S
C1916 C1910 1.428 . S
C1916 N1915 1.351 . S
C1916 C1917 1.434 . S
C1917 C1908 1.429 . S
C1917 N1914 1.350 . S
C1917 C1916 1.434 . S
C1918 C1919 1.369 . S
C1918 C1920 1.419 . S
C1918 H1922 0.930 . S
C1919 C1918 1.369 . S
C1919 C1928 1.429 . S
C1920 C1918 1.419 . S
C1920 C1921 1.363 . S
C1920 H1923 0.929 . S
C1921 C1920 1.363 . S
C1921 C1927 1.428 . S
H1922 C1918 0.930 . S
H1923 C1920 0.929 . S
S1924 N1925 1.613 . S
S1924 N1926 1.610 . S
N1925 S1924 1.613 . S
N1925 C1928 1.350 . S
N1926 S1924 1.610 . S
N1926 C1927 1.351 . S
C1927 C1921 1.428 . S
C1927 N1926 1.351 . S
C1927 C1928 1.434 . S
C1928 C1919 1.429 . S
C1928 N1925 1.350 . S
C1928 C1927 1.434 . S
C1929 C1930 1.366 1_545 S
C1929 C1931 1.413 1_545 S
C1929 H1933 0.940 . S
C1930 C1929 1.366 1_565 S
C1930 C1939 1.429 . S
C1931 C1929 1.413 1_565 S
C1931 C1932 1.363 . S
C1931 H1934 0.929 . S
C1932 C1931 1.363 . S
C1932 C1938 1.428 . S
H1933 C1929 0.940 . S
H1934 C1931 0.929 . S
S1935 N1936 1.613 . S
S1935 N1937 1.610 . S
N1936 S1935 1.613 . S
N1936 C1939 1.350 . S
N1937 S1935 1.610 . S
N1937 C1938 1.351 . S
C1938 C1932 1.428 . S
C1938 N1937 1.351 . S
C1938 C1939 1.434 . S
C1939 C1930 1.429 . S
C1939 N1936 1.350 . S
C1939 C1938 1.434 . S
C1940 C1941 1.369 . S
C1940 C1942 1.419 . S
C1940 H1944 0.930 . S
C1941 C1940 1.369 . S
C1941 C1950 1.429 1_545 S
C1942 C1940 1.419 . S
C1942 C1943 1.363 . S
C1942 H1945 0.929 . S
C1943 C1942 1.363 . S
C1943 C1949 1.428 1_545 S
H1944 C1940 0.930 . S
H1945 C1942 0.929 . S
S1946 N1947 1.613 . S
S1946 N1948 1.610 . S
N1947 S1946 1.613 . S
N1947 C1950 1.350 . S
N1948 S1946 1.610 . S
N1948 C1949 1.351 . S
C1949 C1943 1.428 1_565 S
C1949 N1948 1.351 . S
C1949 C1950 1.434 . S
C1950 C1941 1.429 1_565 S
C1950 N1947 1.350 . S
C1950 C1949 1.434 . S
C1951 C1952 1.369 . S
C1951 C1953 1.419 . S
C1951 H1955 0.930 . S
C1952 C1951 1.369 . S
C1952 C1961 1.429 . S
C1953 C1951 1.419 . S
C1953 C1954 1.363 . S
C1953 H1956 0.929 . S
C1954 C1953 1.363 . S
C1954 C1960 1.428 . S
H1955 C1951 0.930 . S
H1956 C1953 0.929 . S
S1957 N1958 1.613 . S
S1957 N1959 1.610 . S
N1958 S1957 1.613 . S
N1958 C1961 1.350 . S
N1959 S1957 1.610 . S
N1959 C1960 1.351 . S
C1960 C1954 1.428 . S
C1960 N1959 1.351 . S
C1960 C1961 1.434 . S
C1961 C1952 1.429 . S
C1961 N1958 1.350 . S
C1961 C1960 1.434 . S
C1962 C1963 1.369 . S
C1962 C1964 1.419 . S
C1962 H1966 0.930 . S
C1963 C1962 1.369 . S
C1963 C1972 1.429 . S
C1964 C1962 1.419 . S
C1964 C1965 1.363 . S
C1964 H1967 0.929 . S
C1965 C1964 1.363 . S
C1965 C1971 1.428 . S
H1966 C1962 0.930 . S
H1967 C1964 0.929 . S
S1968 N1969 1.613 . S
S1968 N1970 1.610 . S
N1969 S1968 1.613 . S
N1969 C1972 1.350 . S
N1970 S1968 1.610 . S
N1970 C1971 1.351 . S
C1971 C1965 1.428 . S
C1971 N1970 1.351 . S
C1971 C1972 1.434 . S
C1972 C1963 1.429 . S
C1972 N1969 1.350 . S
C1972 C1971 1.434 . S
C1973 C1974 1.369 . S
C1973 C1975 1.419 . S
C1973 H1977 0.930 1_545 S
C1974 C1973 1.369 . S
C1974 C1983 1.429 . S
C1975 C1973 1.419 . S
C1975 C1976 1.363 . S
C1975 H1978 0.929 . S
C1976 C1975 1.363 . S
C1976 C1982 1.428 . S
H1977 C1973 0.930 1_565 S
H1978 C1975 0.929 . S
S1979 N1980 1.613 . S
S1979 N1981 1.610 . S
N1980 S1979 1.613 . S
N1980 C1983 1.350 . S
N1981 S1979 1.610 . S
N1981 C1982 1.351 . S
C1982 C1976 1.428 . S
C1982 N1981 1.351 . S
C1982 C1983 1.434 . S
C1983 C1974 1.429 . S
C1983 N1980 1.350 . S
C1983 C1982 1.434 . S
C1984 C1985 1.369 . S
C1984 C1986 1.419 . S
C1984 H1988 0.930 . S
C1985 C1984 1.369 . S
C1985 C1994 1.429 . S
C1986 C1984 1.419 . S
C1986 C1987 1.363 1_455 S
C1986 H1989 0.929 . S
C1987 C1986 1.363 1_655 S
C1987 C1993 1.428 . S
H1988 C1984 0.930 . S
H1989 C1986 0.929 . S
S1990 N1991 1.613 1_655 S
S1990 N1992 1.610 . S
N1991 S1990 1.613 1_455 S
N1991 C1994 1.350 . S
N1992 S1990 1.610 . S
N1992 C1993 1.351 . S
C1993 C1987 1.428 . S
C1993 N1992 1.351 . S
C1993 C1994 1.434 1_655 S
C1994 C1985 1.429 . S
C1994 N1991 1.350 . S
C1994 C1993 1.434 1_455 S
C1995 C1996 1.369 . S
C1995 C1997 1.419 . S
C1995 H1999 0.930 . S
C1996 C1995 1.369 . S
C1996 C2005 1.429 . S
C1997 C1995 1.419 . S
C1997 C1998 1.363 . S
C1997 H2000 0.929 . S
C1998 C1997 1.363 . S
C1998 C2004 1.428 . S
H1999 C1995 0.930 . S
H2000 C1997 0.929 . S
S2001 N2002 1.613 . S
S2001 N2003 1.610 . S
N2002 S2001 1.613 . S
N2002 C2005 1.350 . S
N2003 S2001 1.610 . S
N2003 C2004 1.351 . S
C2004 C1998 1.428 . S
C2004 N2003 1.351 . S
C2004 C2005 1.434 . S
C2005 C1996 1.429 . S
C2005 N2002 1.350 . S
C2005 C2004 1.434 . S
C2006 C2007 1.369 1_455 S
C2006 C2008 1.419 . S
C2006 H2010 0.930 . S
C2007 C2006 1.369 1_655 S
C2007 C2016 1.429 . S
C2008 C2006 1.419 . S
C2008 C2009 1.363 . S
C2008 H2011 0.929 . S
C2009 C2008 1.363 . S
C2009 C2015 1.428 . S
H2010 C2006 0.930 . S
H2011 C2008 0.929 . S
S2012 N2013 1.613 . S
S2012 N2014 1.610 1_655 S
N2013 S2012 1.613 . S
N2013 C2016 1.350 . S
N2014 S2012 1.610 1_455 S
N2014 C2015 1.351 . S
C2015 C2009 1.428 . S
C2015 N2014 1.351 . S
C2015 C2016 1.434 1_455 S
C2016 C2007 1.429 . S
C2016 N2013 1.350 . S
C2016 C2015 1.434 1_655 S
C2017 C2018 1.369 . S
C2017 C2019 1.419 . S
C2017 H2021 0.930 . S
C2018 C2017 1.369 . S
C2018 C2027 1.429 . S
C2019 C2017 1.419 . S
C2019 C2020 1.363 . S
C2019 H2022 0.929 . S
C2020 C2019 1.363 . S
C2020 C2026 1.428 . S
H2021 C2017 0.930 . S
H2022 C2019 0.929 . S
S2023 N2024 1.613 . S
S2023 N2025 1.610 . S
N2024 S2023 1.613 . S
N2024 C2027 1.350 . S
N2025 S2023 1.610 . S
N2025 C2026 1.351 . S
C2026 C2020 1.428 . S
C2026 N2025 1.351 . S
C2026 C2027 1.434 . S
C2027 C2018 1.429 . S
C2027 N2024 1.350 . S
C2027 C2026 1.434 . S
C2028 C2029 1.369 . S
C2028 C2030 1.419 1_655 S
C2028 H2032 0.930 . S
C2029 C2028 1.369 . S
C2029 C2038 1.429 . S
C2030 C2028 1.419 1_455 S
C2030 C2031 1.363 . S
C2030 H2033 0.929 . S
C2031 C2030 1.363 . S
C2031 C2037 1.428 1_455 S
H2032 C2028 0.930 . S
H2033 C2030 0.929 . S
S2034 N2035 1.613 . S
S2034 N2036 1.610 . S
N2035 S2034 1.613 . S
N2035 C2038 1.350 . S
N2036 S2034 1.610 . S
N2036 C2037 1.351 . S
C2037 C2031 1.428 1_655 S
C2037 N2036 1.351 . S
C2037 C2038 1.434 . S
C2038 C2029 1.429 . S
C2038 N2035 1.350 . S
C2038 C2037 1.434 . S
C2039 C2040 1.369 . S
C2039 C2041 1.419 . S
C2039 H2043 0.930 . S
C2040 C2039 1.369 . S
C2040 C2049 1.429 . S
C2041 C2039 1.419 . S
C2041 C2042 1.363 . S
C2041 H2044 0.929 . S
C2042 C2041 1.363 . S
C2042 C2048 1.428 . S
H2043 C2039 0.930 . S
H2044 C2041 0.929 . S
S2045 N2046 1.613 . S
S2045 N2047 1.610 . S
N2046 S2045 1.613 . S
N2046 C2049 1.350 . S
N2047 S2045 1.610 . S
N2047 C2048 1.351 . S
C2048 C2042 1.428 . S
C2048 N2047 1.351 . S
C2048 C2049 1.434 . S
C2049 C2040 1.429 . S
C2049 N2046 1.350 . S
C2049 C2048 1.434 . S
C2050 C2051 1.369 . S
C2050 C2052 1.419 1_455 S
C2050 H2054 0.930 . S
C2051 C2050 1.369 . S
C2051 C2060 1.429 1_455 S
C2052 C2050 1.419 1_655 S
C2052 C2053 1.363 . S
C2052 H2055 0.929 . S
C2053 C2052 1.363 . S
C2053 C2059 1.428 . S
H2054 C2050 0.930 . S
H2055 C2052 0.929 . S
S2056 N2057 1.613 . S
S2056 N2058 1.610 . S
N2057 S2056 1.613 . S
N2057 C2060 1.350 . S
N2058 S2056 1.610 . S
N2058 C2059 1.351 . S
C2059 C2053 1.428 . S
C2059 N2058 1.351 . S
C2059 C2060 1.434 . S
C2060 C2051 1.429 1_655 S
C2060 N2057 1.350 . S
C2060 C2059 1.434 . S
C2061 C2062 1.369 . S
C2061 C2063 1.419 . S
C2061 H2065 0.930 . S
C2062 C2061 1.369 . S
C2062 C2071 1.429 . S
C2063 C2061 1.419 . S
C2063 C2064 1.363 . S
C2063 H2066 0.929 . S
C2064 C2063 1.363 . S
C2064 C2070 1.428 . S
H2065 C2061 0.930 . S
H2066 C2063 0.929 . S
S2067 N2068 1.613 . S
S2067 N2069 1.610 . S
N2068 S2067 1.613 . S
N2068 C2071 1.350 . S
N2069 S2067 1.610 . S
N2069 C2070 1.351 . S
C2070 C2064 1.428 . S
C2070 N2069 1.351 . S
C2070 C2071 1.434 . S
C2071 C2062 1.429 . S
C2071 N2068 1.350 . S
C2071 C2070 1.434 . S
C2072 C2073 1.369 1_455 S
C2072 C2074 1.419 . S
C2072 H2076 0.930 1_455 S
C2073 C2072 1.369 1_655 S
C2073 C2082 1.429 1_665 S
C2074 C2072 1.419 . S
C2074 C2075 1.363 . S
C2074 H2077 0.929 . S
C2075 C2074 1.363 . S
C2075 C2081 1.428 1_565 S
H2076 C2072 0.930 1_655 S
H2077 C2074 0.929 . S
S2078 N2079 1.613 1_455 S
S2078 N2080 1.610 . S
N2079 S2078 1.613 1_655 S
N2079 C2082 1.350 1_655 S
N2080 S2078 1.610 . S
N2080 C2081 1.351 . S
C2081 C2075 1.428 1_545 S
C2081 N2080 1.351 . S
C2081 C2082 1.434 . S
C2082 C2073 1.429 1_445 S
C2082 N2079 1.350 1_455 S
C2082 C2081 1.434 . S
C2083 C2084 1.369 . S
C2083 C2085 1.419 . S
C2083 H2087 0.930 . S
C2084 C2083 1.369 . S
C2084 C2093 1.429 . S
C2085 C2083 1.419 . S
C2085 C2086 1.363 . S
C2085 H2088 0.929 . S
C2086 C2085 1.363 . S
C2086 C2092 1.428 . S
H2087 C2083 0.930 . S
H2088 C2085 0.929 . S
S2089 N2090 1.613 . S
S2089 N2091 1.610 . S
N2090 S2089 1.613 . S
N2090 C2093 1.350 . S
N2091 S2089 1.610 . S
N2091 C2092 1.351 . S
C2092 C2086 1.428 . S
C2092 N2091 1.351 . S
C2092 C2093 1.434 . S
C2093 C2084 1.429 . S
C2093 N2090 1.350 . S
C2093 C2092 1.434 . S
C2094 C2095 1.369 . S
C2094 C2096 1.419 1_655 S
C2094 H2098 0.930 . S
C2095 C2094 1.369 . S
C2095 C2104 1.429 1_655 S
C2096 C2094 1.419 1_455 S
C2096 C2097 1.363 . S
C2096 H2099 0.929 . S
C2097 C2096 1.363 . S
C2097 C2103 1.428 . S
H2098 C2094 0.930 . S
H2099 C2096 0.929 . S
S2100 N2101 1.613 . S
S2100 N2102 1.610 . S
N2101 S2100 1.613 . S
N2101 C2104 1.350 . S
N2102 S2100 1.610 . S
N2102 C2103 1.351 . S
C2103 C2097 1.428 . S
C2103 N2102 1.351 . S
C2103 C2104 1.434 . S
C2104 C2095 1.429 1_455 S
C2104 N2101 1.350 . S
C2104 C2103 1.434 . S
C2105 C2106 1.369 1_545 S
C2105 C2107 1.419 . S
C2105 H2109 0.930 . S
C2106 C2105 1.369 1_565 S
C2106 C2115 1.429 . S
C2107 C2105 1.419 . S
C2107 C2108 1.363 1_545 S
C2107 H2110 0.929 . S
C2108 C2107 1.363 1_565 S
C2108 C2114 1.428 . S
H2109 C2105 0.930 . S
H2110 C2107 0.929 . S
S2111 N2112 1.613 . S
S2111 N2113 1.610 . S
N2112 S2111 1.613 . S
N2112 C2115 1.350 . S
N2113 S2111 1.610 . S
N2113 C2114 1.351 . S
C2114 C2108 1.428 . S
C2114 N2113 1.351 . S
C2114 C2115 1.434 . S
C2115 C2106 1.429 . S
C2115 N2112 1.350 . S
C2115 C2114 1.434 . S
C2116 C2117 1.369 . S
C2116 C2118 1.419 1_655 S
C2116 H2120 0.930 . S
C2117 C2116 1.369 . S
C2117 C2126 1.429 1_545 S
C2118 C2116 1.419 1_455 S
C2118 C2119 1.363 . S
C2118 H2121 0.929 . S
C2119 C2118 1.363 . S
C2119 C2125 1.428 1_445 S
H2120 C2116 0.930 . S
H2121 C2118 0.929 . S
S2122 N2123 1.613 . S
S2122 N2124 1.610 . S
N2123 S2122 1.613 . S
N2123 C2126 1.350 . S
N2124 S2122 1.610 . S
N2124 C2125 1.351 . S
C2125 C2119 1.428 1_665 S
C2125 N2124 1.351 . S
C2125 C2126 1.434 . S
C2126 C2117 1.429 1_565 S
C2126 N2123 1.350 . S
C2126 C2125 1.434 . S
C2127 C2128 1.369 . S
C2127 C2129 1.419 . S
C2127 H2131 0.930 . S
C2128 C2127 1.369 . S
C2128 C2137 1.429 . S
C2129 C2127 1.419 . S
C2129 C2130 1.363 . S
C2129 H2132 0.929 . S
C2130 C2129 1.363 . S
C2130 C2136 1.428 . S
H2131 C2127 0.930 . S
H2132 C2129 0.929 . S
S2133 N2134 1.613 . S
S2133 N2135 1.610 . S
N2134 S2133 1.613 . S
N2134 C2137 1.350 . S
N2135 S2133 1.610 . S
N2135 C2136 1.351 . S
C2136 C2130 1.428 . S
C2136 N2135 1.351 . S
C2136 C2137 1.434 . S
C2137 C2128 1.429 . S
C2137 N2134 1.350 . S
C2137 C2136 1.434 . S
C2138 C2139 1.369 1_655 S
C2138 C2140 1.419 . S
C2138 H2142 0.930 . S
C2139 C2138 1.369 1_455 S
C2139 C2148 1.429 . S
C2140 C2138 1.419 . S
C2140 C2141 1.363 . S
C2140 H2143 0.929 . S
C2141 C2140 1.363 . S
C2141 C2147 1.428 . S
H2142 C2138 0.930 . S
H2143 C2140 0.929 . S
S2144 N2145 1.613 . S
S2144 N2146 1.610 1_455 S
N2145 S2144 1.613 . S
N2145 C2148 1.350 . S
N2146 S2144 1.610 1_655 S
N2146 C2147 1.351 . S
C2147 C2141 1.428 . S
C2147 N2146 1.351 . S
C2147 C2148 1.434 1_655 S
C2148 C2139 1.429 . S
C2148 N2145 1.350 . S
C2148 C2147 1.434 1_455 S
C2149 C2150 1.369 . S
C2149 C2151 1.419 . S
C2149 H2153 0.930 . S
C2150 C2149 1.369 . S
C2150 C2159 1.429 1_545 S
C2151 C2149 1.419 . S
C2151 C2152 1.363 . S
C2151 H2154 0.929 . S
C2152 C2151 1.363 . S
C2152 C2158 1.428 1_545 S
H2153 C2149 0.930 . S
H2154 C2151 0.929 . S
S2155 N2156 1.613 . S
S2155 N2157 1.610 . S
N2156 S2155 1.613 . S
N2156 C2159 1.350 . S
N2157 S2155 1.610 . S
N2157 C2158 1.351 . S
C2158 C2152 1.428 1_565 S
C2158 N2157 1.351 . S
C2158 C2159 1.434 . S
C2159 C2150 1.429 1_565 S
C2159 N2156 1.350 . S
C2159 C2158 1.434 . S
C2160 C2161 1.369 1_655 S
C2160 C2162 1.419 1_554 S
C2160 H2164 0.930 . S
C2161 C2160 1.369 1_455 S
C2161 C2170 1.429 . S
C2162 C2160 1.419 1_556 S
C2162 C2163 1.363 . S
C2162 H2165 0.929 . S
C2163 C2162 1.363 . S
C2163 C2169 1.428 1_655 S
H2164 C2160 0.930 . S
H2165 C2162 0.929 . S
S2166 N2167 1.613 1_556 S
S2166 N2168 1.610 . S
N2167 S2166 1.613 1_554 S
N2167 C2170 1.350 . S
N2168 S2166 1.610 . S
N2168 C2169 1.351 . S
C2169 C2163 1.428 1_455 S
C2169 N2168 1.351 . S
C2169 C2170 1.434 1_556 S
C2170 C2161 1.429 . S
C2170 N2167 1.350 . S
C2170 C2169 1.434 1_554 S
C2171 C2172 1.369 . S
C2171 C2173 1.419 1_556 S
C2171 H2175 0.930 . S
C2172 C2171 1.369 . S
C2172 C2181 1.429 . S
C2173 C2171 1.419 1_554 S
C2173 C2174 1.363 . S
C2173 H2176 0.929 . S
C2174 C2173 1.363 . S
C2174 C2180 1.428 . S
H2175 C2171 0.930 . S
H2176 C2173 0.929 . S
S2177 N2178 1.613 1_554 S
S2177 N2179 1.610 . S
N2178 S2177 1.613 1_556 S
N2178 C2181 1.350 . S
N2179 S2177 1.610 . S
N2179 C2180 1.351 . S
C2180 C2174 1.428 . S
C2180 N2179 1.351 . S
C2180 C2181 1.434 1_554 S
C2181 C2172 1.429 . S
C2181 N2178 1.350 . S
C2181 C2180 1.434 1_556 S
C2182 C2183 1.369 1_455 S
C2182 C2184 1.419 . S
C2182 H2186 0.930 . S
C2183 C2182 1.369 1_655 S
C2183 C2192 1.429 . S
C2184 C2182 1.419 . S
C2184 C2185 1.363 . S
C2184 H2187 0.929 . S
C2185 C2184 1.363 . S
C2185 C2191 1.428 1_455 S
H2186 C2182 0.930 . S
H2187 C2184 0.929 . S
S2188 N2189 1.613 . S
S2188 N2190 1.610 . S
N2189 S2188 1.613 . S
N2189 C2192 1.350 . S
N2190 S2188 1.610 . S
N2190 C2191 1.351 . S
C2191 C2185 1.428 1_655 S
C2191 N2190 1.351 . S
C2191 C2192 1.434 . S
C2192 C2183 1.429 . S
C2192 N2189 1.350 . S
C2192 C2191 1.434 . S
C2193 C2194 1.369 . S
C2193 C2195 1.419 . S
C2193 H2197 0.930 . S
C2194 C2193 1.369 . S
C2194 C2203 1.429 . S
C2195 C2193 1.419 . S
C2195 C2196 1.363 . S
C2195 H2198 0.929 . S
C2196 C2195 1.363 . S
C2196 C2202 1.428 . S
H2197 C2193 0.930 . S
H2198 C2195 0.929 . S
S2199 N2200 1.613 . S
S2199 N2201 1.610 . S
N2200 S2199 1.613 . S
N2200 C2203 1.350 . S
N2201 S2199 1.610 . S
N2201 C2202 1.351 . S
C2202 C2196 1.428 . S
C2202 N2201 1.351 . S
C2202 C2203 1.434 . S
C2203 C2194 1.429 . S
C2203 N2200 1.350 . S
C2203 C2202 1.434 . S
C2204 C2205 1.369 . S
C2204 C2206 1.419 1_556 S
C2204 H2208 0.930 . S
C2205 C2204 1.369 . S
C2205 C2214 1.429 . S
C2206 C2204 1.419 1_554 S
C2206 C2207 1.363 . S
C2206 H2209 0.929 . S
C2207 C2206 1.363 . S
C2207 C2213 1.428 . S
H2208 C2204 0.930 . S
H2209 C2206 0.929 . S
S2210 N2211 1.613 . S
S2210 N2212 1.610 1_556 S
N2211 S2210 1.613 . S
N2211 C2214 1.350 . S
N2212 S2210 1.610 1_554 S
N2212 C2213 1.351 . S
C2213 C2207 1.428 . S
C2213 N2212 1.351 . S
C2213 C2214 1.434 1_554 S
C2214 C2205 1.429 . S
C2214 N2211 1.350 . S
C2214 C2213 1.434 1_556 S
C2215 C2216 1.369 . S
C2215 C2217 1.419 . S
C2215 H2219 0.930 . S
C2216 C2215 1.369 . S
C2216 C2225 1.429 1_655 S
C2217 C2215 1.419 . S
C2217 C2218 1.363 1_655 S
C2217 H2220 0.929 . S
C2218 C2217 1.363 1_455 S
C2218 C2224 1.428 . S
H2219 C2215 0.930 . S
H2220 C2217 0.929 . S
S2221 N2222 1.613 . S
S2221 N2223 1.610 . S
N2222 S2221 1.613 . S
N2222 C2225 1.350 . S
N2223 S2221 1.610 . S
N2223 C2224 1.351 . S
C2224 C2218 1.428 . S
C2224 N2223 1.351 . S
C2224 C2225 1.434 . S
C2225 C2216 1.429 1_455 S
C2225 N2222 1.350 . S
C2225 C2224 1.434 . S
C2226 C2227 1.369 . S
C2226 C2228 1.419 . S
C2226 H2230 0.930 . S
C2227 C2226 1.369 . S
C2227 C2236 1.429 . S
C2228 C2226 1.419 . S
C2228 C2229 1.363 . S
C2228 H2231 0.929 . S
C2229 C2228 1.363 . S
C2229 C2235 1.428 . S
H2230 C2226 0.930 . S
H2231 C2228 0.929 . S
S2232 N2233 1.613 . S
S2232 N2234 1.610 . S
N2233 S2232 1.613 . S
N2233 C2236 1.350 . S
N2234 S2232 1.610 . S
N2234 C2235 1.351 . S
C2235 C2229 1.428 . S
C2235 N2234 1.351 . S
C2235 C2236 1.434 . S
C2236 C2227 1.429 . S
C2236 N2233 1.350 . S
C2236 C2235 1.434 . S
C2237 C2238 1.369 1_655 S
C2237 C2239 1.419 . S
C2237 H2241 0.930 . S
C2238 C2237 1.369 1_455 S
C2238 C2247 1.429 1_565 S
C2239 C2237 1.419 . S
C2239 C2240 1.363 1_565 S
C2239 H2242 0.929 . S
C2240 C2239 1.363 1_545 S
C2240 C2246 1.428 1_655 S
H2241 C2237 0.930 . S
H2242 C2239 0.929 . S
S2243 N2244 1.613 . S
S2243 N2245 1.610 . S
N2244 S2243 1.613 . S
N2244 C2247 1.350 . S
N2245 S2243 1.610 . S
N2245 C2246 1.351 . S
C2246 C2240 1.428 1_455 S
C2246 N2245 1.351 . S
C2246 C2247 1.434 . S
C2247 C2238 1.429 1_545 S
C2247 N2244 1.350 . S
C2247 C2246 1.434 . S
C2248 C2249 1.369 . S
C2248 C2250 1.419 . S
C2248 H2252 0.930 . S
C2249 C2248 1.369 . S
C2249 C2258 1.429 . S
C2250 C2248 1.419 . S
C2250 C2251 1.363 . S
C2250 H2253 0.929 . S
C2251 C2250 1.363 . S
C2251 C2257 1.428 . S
H2252 C2248 0.930 . S
H2253 C2250 0.929 . S
S2254 N2255 1.613 . S
S2254 N2256 1.610 . S
N2255 S2254 1.613 . S
N2255 C2258 1.350 . S
N2256 S2254 1.610 . S
N2256 C2257 1.351 . S
C2257 C2251 1.428 . S
C2257 N2256 1.351 . S
C2257 C2258 1.434 . S
C2258 C2249 1.429 . S
C2258 N2255 1.350 . S
C2258 C2257 1.434 . S
C2259 C2260 1.369 1_565 S
C2259 C2261 1.419 . S
C2259 H2263 0.930 . S
C2260 C2259 1.369 1_545 S
C2260 C2269 1.429 . S
C2261 C2259 1.419 . S
C2261 C2262 1.363 . S
C2261 H2264 0.929 . S
C2262 C2261 1.363 . S
C2262 C2268 1.428 1_565 S
H2263 C2259 0.930 . S
H2264 C2261 0.929 . S
S2265 N2266 1.613 . S
S2265 N2267 1.610 . S
N2266 S2265 1.613 . S
N2266 C2269 1.350 . S
N2267 S2265 1.610 . S
N2267 C2268 1.351 . S
C2268 C2262 1.428 1_545 S
C2268 N2267 1.351 . S
C2268 C2269 1.434 . S
C2269 C2260 1.429 . S
C2269 N2266 1.350 . S
C2269 C2268 1.434 . S
C2270 C2271 1.369 . S
C2270 C2272 1.419 . S
C2270 H2274 0.930 . S
C2271 C2270 1.369 . S
C2271 C2280 1.429 . S
C2272 C2270 1.419 . S
C2272 C2273 1.363 . S
C2272 H2275 0.929 . S
C2273 C2272 1.363 . S
C2273 C2279 1.428 . S
H2274 C2270 0.930 . S
H2275 C2272 0.929 . S
S2276 N2277 1.613 . S
S2276 N2278 1.610 . S
N2277 S2276 1.613 . S
N2277 C2280 1.350 . S
N2278 S2276 1.610 . S
N2278 C2279 1.351 . S
C2279 C2273 1.428 . S
C2279 N2278 1.351 . S
C2279 C2280 1.434 . S
C2280 C2271 1.429 . S
C2280 N2277 1.350 . S
C2280 C2279 1.434 . S
C2281 C2282 1.369 1_545 S
C2281 C2283 1.419 . S
C2281 H2285 0.930 . S
C2282 C2281 1.369 1_565 S
C2282 C2291 1.429 . S
C2283 C2281 1.419 . S
C2283 C2284 1.363 . S
C2283 H2286 0.929 . S
C2284 C2283 1.363 . S
C2284 C2290 1.428 1_545 S
H2285 C2281 0.930 . S
H2286 C2283 0.929 . S
S2287 N2288 1.613 . S
S2287 N2289 1.610 . S
N2288 S2287 1.613 . S
N2288 C2291 1.350 . S
N2289 S2287 1.610 . S
N2289 C2290 1.351 . S
C2290 C2284 1.428 1_565 S
C2290 N2289 1.351 . S
C2290 C2291 1.434 . S
C2291 C2282 1.429 . S
C2291 N2288 1.350 . S
C2291 C2290 1.434 . S
C2292 C2293 1.369 . S
C2292 C2294 1.419 . S
C2292 H2296 0.930 . S
C2293 C2292 1.369 . S
C2293 C2302 1.429 . S
C2294 C2292 1.419 . S
C2294 C2295 1.363 . S
C2294 H2297 0.929 . S
C2295 C2294 1.363 . S
C2295 C2301 1.428 . S
H2296 C2292 0.930 . S
H2297 C2294 0.929 . S
S2298 N2299 1.613 . S
S2298 N2300 1.610 . S
N2299 S2298 1.613 . S
N2299 C2302 1.350 . S
N2300 S2298 1.610 . S
N2300 C2301 1.351 . S
C2301 C2295 1.428 . S
C2301 N2300 1.351 . S
C2301 C2302 1.434 . S
C2302 C2293 1.429 . S
C2302 N2299 1.350 . S
C2302 C2301 1.434 . S
C2303 C2304 1.369 . S
C2303 C2305 1.419 . S
C2303 H2307 0.930 . S
C2304 C2303 1.369 . S
C2304 C2313 1.429 . S
C2305 C2303 1.419 . S
C2305 C2306 1.363 . S
C2305 H2308 0.929 . S
C2306 C2305 1.363 . S
C2306 C2312 1.428 . S
H2307 C2303 0.930 . S
H2308 C2305 0.929 . S
S2309 N2310 1.613 . S
S2309 N2311 1.610 . S
N2310 S2309 1.613 . S
N2310 C2313 1.350 . S
N2311 S2309 1.610 . S
N2311 C2312 1.351 . S
C2312 C2306 1.428 . S
C2312 N2311 1.351 . S
C2312 C2313 1.434 . S
C2313 C2304 1.429 . S
C2313 N2310 1.350 . S
C2313 C2312 1.434 . S
C2314 C2315 1.369 . S
C2314 C2316 1.419 . S
C2314 H2318 0.930 . S
C2315 C2314 1.369 . S
C2315 C2324 1.429 . S
C2316 C2314 1.419 . S
C2316 C2317 1.363 . S
C2316 H2319 0.929 . S
C2317 C2316 1.363 . S
C2317 C2323 1.428 . S
H2318 C2314 0.930 . S
H2319 C2316 0.929 . S
S2320 N2321 1.613 . S
S2320 N2322 1.610 . S
N2321 S2320 1.613 . S
N2321 C2324 1.350 . S
N2322 S2320 1.610 . S
N2322 C2323 1.351 . S
C2323 C2317 1.428 . S
C2323 N2322 1.351 . S
C2323 C2324 1.434 . S
C2324 C2315 1.429 . S
C2324 N2321 1.350 . S
C2324 C2323 1.434 . S
C2325 C2326 1.369 . S
C2325 C2327 1.419 1_554 S
C2325 H2329 0.930 . S
C2326 C2325 1.369 . S
C2326 C2335 1.429 1_565 S
C2327 C2325 1.419 1_556 S
C2327 C2328 1.363 1_565 S
C2327 H2330 0.929 . S
C2328 C2327 1.363 1_545 S
C2328 C2334 1.428 . S
H2329 C2325 0.930 . S
H2330 C2327 0.929 . S
S2331 N2332 1.608 . S
S2331 N2333 1.616 1_554 S
N2332 S2331 1.608 . S
N2332 C2335 1.350 . S
N2333 S2331 1.616 1_556 S
N2333 C2334 1.351 . S
C2334 C2328 1.428 . S
C2334 N2333 1.351 . S
C2334 C2335 1.434 1_556 S
C2335 C2326 1.429 1_545 S
C2335 N2332 1.350 . S
C2335 C2334 1.434 1_554 S
C1281 C10 1.653 . S
C1283 C1010 1.653 . S
C1292 C970 1.650 . S
C1294 C50 1.650 . S
C1303 C1090 1.649 . S
C1305 C90 1.650 . S
C1314 C130 1.649 . S
C1316 C1050 1.650 . S
C1325 C179 1.651 . S
C1327 C1179 1.652 . S
C1336 C219 1.651 . S
C1338 C1139 1.652 . S
C1347 C259 1.652 . S
C1349 C1259 1.651 . S
C1358 C1219 1.650 . S
C1360 C299 1.651 . S
C1369 C330 1.649 . S
C1371 C690 1.650 . S
C1380 C370 1.652 . S
C1382 C650 1.653 . S
C1391 C410 1.649 . S
C1393 C770 1.650 . S
C1402 C730 1.650 . S
C1404 C450 1.652 . S
C1413 C499 1.650 . S
C1415 C859 1.651 . S
C1424 C539 1.650 . S
C1426 C819 1.651 . S
C1435 C939 1.652 . S
C1437 C579 1.652 . S
C1446 C619 1.649 . S
C1448 C899 1.650 . S
C1457 C9 1.710 . S
C1459 C129 1.710 . S
C1468 C49 1.710 . S
C1470 C89 1.711 . S
C1479 C298 1.713 . S
C1481 C178 1.712 . S
C1490 C258 1.713 . S
C1492 C218 1.712 . S
C1501 C329 1.714 . S
C1503 C449 1.713 . S
C1512 C369 1.713 . S
C1514 C409 1.713 . S
C1523 C498 1.710 . S
C1525 C618 1.711 . S
C1534 C578 1.712 . S
C1536 C538 1.713 . S
C1545 C649 1.714 . S
C1547 C769 1.713 . S
C1556 C689 1.709 . S
C1558 C729 1.710 . S
C1567 C938 1.712 . S
C1569 C818 1.711 . S
C1578 C858 1.714 . S
C1580 C898 1.713 . S
C1589 C1089 1.711 . S
C1591 C969 1.711 . S
C1600 C1009 1.709 . S
C1602 C1049 1.710 . S
C1611 C1258 1.714 . S
C1613 C1138 1.714 . S
C1622 C1218 1.714 . S
C1624 C1178 1.713 . S
C1633 C59 1.517 . S
C1635 C19 1.525 . S
C1644 C99 1.517 . S
C1646 C139 1.524 . S
C1655 C210 1.524 . S
C1657 C170 1.524 . S
C1666 C290 1.527 . S
C1668 C250 1.520 . S
C1677 C339 1.518 . S
C1679 C379 1.522 . S
C1688 C419 1.524 . S
C1690 C459 1.518 . S
C1699 C530 1.517 . S
C1701 C490 1.525 . S
C1710 C570 1.523 . S
C1712 C610 1.518 . S
C1721 C659 1.517 . S
C1723 C699 1.525 . S
C1732 C779 1.526 . S
C1734 C739 1.522 . S
C1743 C810 1.517 . S
C1745 C850 1.523 . S
C1754 C890 1.519 . S
C1756 C930 1.520 . S
C1765 C979 1.526 . S
C1767 C1019 1.521 . S
C1776 C1059 1.524 . S
C1778 C1099 1.518 . S
C1787 C1170 1.517 . S
C1789 C1130 1.526 . S
C1798 C1210 1.525 . S
C1800 C1250 1.518 . S
C1809 C6 1.596 . S
C1811 C15 1.602 . S
C1820 C46 1.602 . S
C1822 C55 1.597 . S
C1831 C86 1.600 . S
C1833 C95 1.599 . S
C1842 C135 1.596 . S
C1844 C126 1.602 . S
C1853 C166 1.597 . S
C1855 C175 1.602 . S
C1864 C215 1.603 . S
C1866 C206 1.596 . S
C1875 C246 1.603 . S
C1877 C255 1.597 . S
C1886 C286 1.599 . S
C1888 C295 1.599 . S
C1897 C335 1.600 1_565 S
C1899 C326 1.599 . S
C1908 C366 1.595 . S
C1910 C375 1.602 . S
C1919 C406 1.596 . S
C1921 C415 1.602 . S
C1930 C455 1.600 1_565 S
C1932 C446 1.598 . S
C1941 C486 1.603 1_545 S
C1943 C495 1.597 . S
C1952 C535 1.595 . S
C1954 C526 1.602 . S
C1963 C575 1.596 . S
C1965 C566 1.602 . S
C1974 C606 1.595 1_545 S
C1976 C615 1.602 . S
C1985 C646 1.603 . S
C1987 C655 1.596 . S
C1996 C695 1.598 . S
C1998 C686 1.601 . S
C2007 C735 1.597 . S
C2009 C726 1.602 . S
C2018 C766 1.595 . S
C2020 C775 1.602 . S
C2029 C815 1.596 . S
C2031 C806 1.602 . S
C2040 C855 1.596 . S
C2042 C846 1.602 . S
C2051 C886 1.602 . S
C2053 C895 1.598 . S
C2062 C935 1.598 . S
C2064 C926 1.600 . S
C2073 C975 1.601 1_565 S
C2075 C966 1.598 . S
C2084 C1006 1.599 . S
C2086 C1015 1.599 . S
C2095 C1055 1.603 . S
C2097 C1046 1.596 . S
C2106 C1095 1.597 1_565 S
C2108 C1086 1.601 . S
C2117 C1135 1.595 . S
C2119 C1126 1.602 1_545 S
C2128 C1175 1.597 . S
C2130 C1166 1.601 . S
C2139 C1206 1.596 . S
C2141 C1215 1.602 . S
C2150 C1246 1.597 1_545 S
C2152 C1255 1.601 . S
C2161 C18 1.472 . S
C2163 C169 1.481 . S
C2172 C1169 1.474 . S
C2174 C58 1.480 . S
C2183 C569 1.473 . S
C2185 C98 1.481 . S
C2194 C138 1.480 . S
C2196 C929 1.475 . S
C2205 C209 1.480 . S
C2207 C1018 1.475 . S
C2216 C249 1.482 . S
C2218 C418 1.474 . S
C2227 C289 1.480 . S
C2229 C778 1.475 . S
C2238 C338 1.475 . S
C2240 C489 1.479 . S
C2249 C849 1.478 . S
C2251 C378 1.478 . S
C2260 C1249 1.477 . S
C2262 C458 1.477 . S
C2271 C529 1.482 . S
C2273 C698 1.474 . S
C2282 C1098 1.475 . S
C2284 C609 1.478 . S
C2293 C658 1.476 . S
C2295 C809 1.478 . S
C2304 C1209 1.475 . S
C2306 C738 1.479 . S
C2315 C889 1.477 . S
C2317 C1058 1.478 . S
C2326 C978 1.476 . S
C2328 C1129 1.478 . S
