# Generated by pormake.
# Topology ukv, (4)-cn, num edge types: 1
# Building blocks:
#     Node 0, Type 0, BuildingBlock: CEKHIL_clean_sbu_0, # of connection points: 4
#     Node 1, Type 0, BuildingBlock: CEKHIL_clean_sbu_0, # of connection points: 4
#     Node 2, Type 0, BuildingBlock: CEKHIL_clean_sbu_0, # of connection points: 4
#     Node 3, Type 0, BuildingBlock: CEKHIL_clean_sbu_0, # of connection points: 4
#     Node 4, Type 0, BuildingBlock: CEKHIL_clean_sbu_0, # of connection points: 4
#     Node 5, Type 0, BuildingBlock: CEKHIL_clean_sbu_0, # of connection points: 4
#     Node 6, Type 0, BuildingBlock: CEKHIL_clean_sbu_0, # of connection points: 4
#     Node 7, Type 0, BuildingBlock: CEKHIL_clean_sbu_0, # of connection points: 4
#     Node 8, Type 0, BuildingBlock: CEKHIL_clean_sbu_0, # of connection points: 4
#     Node 9, Type 0, BuildingBlock: CEKHIL_clean_sbu_0, # of connection points: 4
#     Node 10, Type 0, BuildingBlock: CEKHIL_clean_sbu_0, # of connection points: 4
#     Node 11, Type 0, BuildingBlock: CEKHIL_clean_sbu_0, # of connection points: 4
#     Node 12, Type 0, BuildingBlock: CEKHIL_clean_sbu_0, # of connection points: 4
#     Node 13, Type 0, BuildingBlock: CEKHIL_clean_sbu_0, # of connection points: 4
#     Node 14, Type 0, BuildingBlock: CEKHIL_clean_sbu_0, # of connection points: 4
#     Node 15, Type 0, BuildingBlock: CEKHIL_clean_sbu_0, # of connection points: 4
#     Node 16, Type 0, BuildingBlock: CEKHIL_clean_sbu_0, # of connection points: 4
#     Node 17, Type 0, BuildingBlock: CEKHIL_clean_sbu_0, # of connection points: 4
#     Node 18, Type 0, BuildingBlock: CEKHIL_clean_sbu_0, # of connection points: 4
#     Node 19, Type 0, BuildingBlock: CEKHIL_clean_sbu_0, # of connection points: 4
#     Node 20, Type 0, BuildingBlock: CEKHIL_clean_sbu_0, # of connection points: 4
#     Node 21, Type 0, BuildingBlock: CEKHIL_clean_sbu_0, # of connection points: 4
#     Node 22, Type 0, BuildingBlock: CEKHIL_clean_sbu_0, # of connection points: 4
#     Node 23, Type 0, BuildingBlock: CEKHIL_clean_sbu_0, # of connection points: 4
#     Node 24, Type 0, BuildingBlock: CEKHIL_clean_sbu_0, # of connection points: 4
#     Node 25, Type 0, BuildingBlock: CEKHIL_clean_sbu_0, # of connection points: 4
#     Node 26, Type 0, BuildingBlock: CEKHIL_clean_sbu_0, # of connection points: 4
#     Node 27, Type 0, BuildingBlock: CEKHIL_clean_sbu_0, # of connection points: 4
#     Node 28, Type 0, BuildingBlock: CEKHIL_clean_sbu_0, # of connection points: 4
#     Node 29, Type 0, BuildingBlock: CEKHIL_clean_sbu_0, # of connection points: 4
#     Node 30, Type 0, BuildingBlock: CEKHIL_clean_sbu_0, # of connection points: 4
#     Node 31, Type 0, BuildingBlock: CEKHIL_clean_sbu_0, # of connection points: 4
#     Node 32, Type 0, BuildingBlock: CEKHIL_clean_sbu_0, # of connection points: 4
#     Node 33, Type 0, BuildingBlock: CEKHIL_clean_sbu_0, # of connection points: 4
#     Node 34, Type 0, BuildingBlock: CEKHIL_clean_sbu_0, # of connection points: 4
#     Node 35, Type 0, BuildingBlock: CEKHIL_clean_sbu_0, # of connection points: 4
#     Edge 36, Type (0, 0), None
#     Edge 37, Type (0, 0), None
#     Edge 38, Type (0, 0), None
#     Edge 39, Type (0, 0), None
#     Edge 40, Type (0, 0), None
#     Edge 41, Type (0, 0), None
#     Edge 42, Type (0, 0), None
#     Edge 43, Type (0, 0), None
#     Edge 44, Type (0, 0), None
#     Edge 45, Type (0, 0), None
#     Edge 46, Type (0, 0), None
#     Edge 47, Type (0, 0), None
#     Edge 48, Type (0, 0), None
#     Edge 49, Type (0, 0), None
#     Edge 50, Type (0, 0), None
#     Edge 51, Type (0, 0), None
#     Edge 52, Type (0, 0), None
#     Edge 53, Type (0, 0), None
#     Edge 54, Type (0, 0), None
#     Edge 55, Type (0, 0), None
#     Edge 56, Type (0, 0), None
#     Edge 57, Type (0, 0), None
#     Edge 58, Type (0, 0), None
#     Edge 59, Type (0, 0), None
#     Edge 60, Type (0, 0), None
#     Edge 61, Type (0, 0), None
#     Edge 62, Type (0, 0), None
#     Edge 63, Type (0, 0), None
#     Edge 64, Type (0, 0), None
#     Edge 65, Type (0, 0), None
#     Edge 66, Type (0, 0), None
#     Edge 67, Type (0, 0), None
#     Edge 68, Type (0, 0), None
#     Edge 69, Type (0, 0), None
#     Edge 70, Type (0, 0), None
#     Edge 71, Type (0, 0), None
#     Edge 72, Type (0, 0), None
#     Edge 73, Type (0, 0), None
#     Edge 74, Type (0, 0), None
#     Edge 75, Type (0, 0), None
#     Edge 76, Type (0, 0), None
#     Edge 77, Type (0, 0), None
#     Edge 78, Type (0, 0), None
#     Edge 79, Type (0, 0), None
#     Edge 80, Type (0, 0), None
#     Edge 81, Type (0, 0), None
#     Edge 82, Type (0, 0), None
#     Edge 83, Type (0, 0), None
#     Edge 84, Type (0, 0), None
#     Edge 85, Type (0, 0), None
#     Edge 86, Type (0, 0), None
#     Edge 87, Type (0, 0), None
#     Edge 88, Type (0, 0), None
#     Edge 89, Type (0, 0), None
#     Edge 90, Type (0, 0), None
#     Edge 91, Type (0, 0), None
#     Edge 92, Type (0, 0), None
#     Edge 93, Type (0, 0), None
#     Edge 94, Type (0, 0), None
#     Edge 95, Type (0, 0), None
#     Edge 96, Type (0, 0), None
#     Edge 97, Type (0, 0), None
#     Edge 98, Type (0, 0), None
#     Edge 99, Type (0, 0), None
#     Edge 100, Type (0, 0), None
#     Edge 101, Type (0, 0), None
#     Edge 102, Type (0, 0), None
#     Edge 103, Type (0, 0), None
#     Edge 104, Type (0, 0), None
#     Edge 105, Type (0, 0), None
#     Edge 106, Type (0, 0), None
#     Edge 107, Type (0, 0), None
# Relax obj value: 0.211
# Max RMSD: 0.438
# Mean RMSD: 0.215
data_MOF--net-ukv--node1-CEKHIL_clean_sbu_0--edge1-none
_symmetry_space_group_name_H-M    P1
_symmetry_Int_Tables_number       1
_symmetry_cell_setting            triclinic
loop_
_symmetry_equiv_pos_as_xyz
'x, y, z'
_cell_length_a     37.51671
_cell_length_b     37.719633
_cell_length_c     10.088869
_cell_angle_alpha  93.396872
_cell_angle_beta   86.707449
_cell_angle_gamma 125.60596
loop_
_atom_site_label
_atom_site_type_symbol
_atom_site_fract_x
_atom_site_fract_y
_atom_site_fract_z
_atom_type_partial_charge
Co0 Co 0.28084 0.05926 0.04749 0.0
O1 O 0.2939 0.03175 0.17265 0.0
O2 O 0.23663 0.99602 0.04413 0.0
C3 C 0.34963 0.10365 0.95886 0.0
O4 O 0.25949 0.07712 0.89913 0.0
Co5 Co 0.32269 0.15852 0.07077 0.0
O6 O 0.28428 0.14759 0.92845 0.0
C7 C 0.24814 0.09941 0.24567 0.0
C8 C 0.259 0.99463 0.13492 0.0
C9 C 0.26221 0.11121 0.86571 0.0
O10 O 0.24489 0.06628 0.18896 0.0
O11 O 0.27795 0.13871 0.21574 0.0
O12 O 0.32421 0.06294 0.92004 0.0
O13 O 0.33475 0.11496 0.0584 0.0
Co14 Co 0.90698 0.25421 0.13756 0.0
O15 O 0.95556 0.28758 0.26365 0.0
O16 O 0.94119 0.22897 0.16886 0.0
C17 C 0.95514 0.26742 0.95374 0.0
O18 O 0.8588 0.21689 -0.0008 0.0
Co19 Co 0.89115 0.27814 0.12282 0.0
O20 O 0.84251 0.26212 -0.00337 0.0
C21 C 0.84296 0.21811 0.32743 0.0
C22 C 0.96439 0.25979 0.25484 0.0
C23 C 0.83433 0.2263 0.95252 0.0
O24 O 0.86934 0.21128 0.27307 0.0
O25 O 0.84509 0.24969 0.27953 0.0
O26 O 0.93646 0.2325 0.02007 0.0
O27 O 0.94746 0.29467 0.00588 0.0
Co28 Co 0.85782 0.77961 0.04491 0.0
O29 O 0.81268 0.76468 0.17946 0.0
O30 O 0.86333 0.83159 0.11189 0.0
C31 C 0.81328 0.72496 0.89858 0.0
O32 O 0.90591 0.80772 0.90149 0.0
Co33 Co 0.88645 0.71828 0.95225 0.0
O34 O 0.93993 0.77946 0.94515 0.0
C35 C 0.90889 0.76108 0.21599 0.0
C36 C 0.82908 0.806 0.18669 0.0
C37 C 0.93281 0.79854 0.86446 0.0
O38 O 0.89778 0.78611 0.18589 0.0
O39 O 0.90379 0.73028 0.13999 0.0
O40 O 0.81483 0.76037 0.90828 0.0
O41 O 0.83608 0.72195 -0.01745 0.0
Co42 Co 0.06492 0.28531 0.40758 0.0
O43 O 0.04204 0.30033 0.27292 0.0
O44 O 1.00137 0.24613 0.41153 0.0
C45 C 0.1137 0.35369 0.48755 0.0
O46 O 0.07819 0.26281 0.56321 0.0
Co47 Co 0.16259 0.31775 0.3861 0.0
O48 O 0.14831 0.28428 0.5448 0.0
C49 C 0.09764 0.2426 0.22176 0.0
C50 C 1.00348 0.26819 0.31327 0.0
C51 C 0.11092 0.26397 0.60312 0.0
O52 O 0.06689 0.24397 0.27758 0.0
O53 O 0.13799 0.27008 0.24824 0.0
O54 O 0.07264 0.33228 0.52437 0.0
O55 O 0.12305 0.33531 0.39352 0.0
Co56 Co 0.7778 0.84878 0.40535 0.0
O57 O 0.76702 0.8046 0.27287 0.0
O58 O 0.83236 0.85725 0.34936 0.0
C59 C 0.72155 0.80272 0.5461 0.0
O60 O 0.80159 0.89668 0.54956 0.0
Co61 Co 0.71248 0.87269 0.48097 0.0
O62 O 0.77163 0.92874 0.49867 0.0
C63 C 0.76284 0.90227 0.22956 0.0
C64 C 0.80896 0.82295 0.27237 0.0
C65 C 0.79275 0.92423 0.57966 0.0
O66 O 0.785 0.88773 0.25976 0.0
O67 O 0.73158 0.89777 0.3023 0.0
O68 O 0.75833 0.80656 0.54438 0.0
O69 O 0.71824 0.82398 0.45755 0.0
Co70 Co 0.24651 0.90189 0.30479 0.0
O71 O 0.28192 0.95027 0.1892 0.0
O72 O 0.2136 0.9234 0.24213 0.0
C73 C 0.29036 0.93252 0.47454 0.0
O74 O 0.20556 0.85202 0.44273 0.0
Co75 Co 0.27619 0.84704 0.33373 0.0
O76 O 0.24138 0.82368 0.49716 0.0
C77 C 0.22035 0.82115 0.11283 0.0
C78 C 0.24997 0.95375 0.18358 0.0
C79 C 0.21025 0.82754 0.51796 0.0
O80 O 0.22555 0.85709 0.1489 0.0
O81 O 0.23985 0.80885 0.175 0.0
O82 O 0.2668 0.94403 0.43863 0.0
O83 O 0.29524 0.90785 0.38652 0.0
Co84 Co 0.74077 0.9596 0.90981 0.0
O85 O 0.72773 0.98712 0.78462 0.0
O86 O 0.785 0.02284 0.91315 0.0
C87 C 0.67198 0.91523 -0.00159 0.0
O88 O 0.76211 0.94172 0.05821 0.0
Co89 Co 0.69891 0.86034 0.88674 0.0
O90 O 0.7376 0.87135 0.02828 0.0
C91 C 0.77348 0.91941 0.71186 0.0
C92 C 0.76264 0.02423 0.82235 0.0
C93 C 0.75957 0.9077 0.09122 0.0
O94 O 0.7767 0.95256 0.76835 0.0
O95 O 0.74366 0.88011 0.74182 0.0
O96 O 0.69741 0.95594 0.03722 0.0
O97 O 0.68686 0.90391 0.89891 0.0
Co98 Co 0.11468 0.76467 0.81969 0.0
O99 O 0.06611 0.7313 0.69361 0.0
O100 O 0.08047 0.7899 0.78839 0.0
C101 C 0.06652 0.75145 0.00351 0.0
O102 O 0.16286 0.80198 0.95805 0.0
Co103 Co 0.13051 0.74074 0.83443 0.0
O104 O 0.17915 0.75675 0.96062 0.0
C105 C 0.1787 0.80076 0.62982 0.0
C106 C 0.05727 0.75908 0.70241 0.0
C107 C 0.18733 0.79257 0.00476 0.0
O108 O 0.15233 0.80759 0.68419 0.0
O109 O 0.17657 0.76918 0.67771 0.0
O110 O 0.0852 0.78637 0.93718 0.0
O111 O 0.0742 0.7242 0.95137 0.0
Co112 Co 0.16384 0.23927 0.91234 0.0
O113 O 0.20898 0.25417 0.77778 0.0
O114 O 0.1583 0.18727 0.84537 0.0
C115 C 0.20841 0.29391 0.05864 0.0
O116 O 0.11576 0.2112 0.05578 0.0
Co117 Co 0.13526 0.30061 0.00509 0.0
O118 O 0.0817 0.23948 0.01215 0.0
C119 C 0.11271 0.25777 0.74146 0.0
C120 C 0.19255 0.21285 0.77057 0.0
C121 C 0.08879 0.22031 0.09258 0.0
O122 O 0.1239 0.23279 0.77136 0.0
O123 O 0.11783 0.28859 0.81745 0.0
O124 O 0.20683 0.25849 0.04895 0.0
O125 O 0.18562 0.29694 0.97469 0.0
Co126 Co 0.95674 0.73355 0.54966 0.0
O127 O 0.97963 0.71854 0.68433 0.0
O128 O 0.02029 0.77274 0.54572 0.0
C129 C 0.90797 0.66517 0.46972 0.0
O130 O 0.94345 0.75604 0.39403 0.0
Co131 Co 0.85905 0.70108 0.57114 0.0
O132 O 0.87336 0.73468 0.41271 0.0
C133 C 0.92401 0.77629 0.73524 0.0
C134 C 0.01818 0.75069 0.64398 0.0
C135 C 0.91075 0.75497 0.35436 0.0
O136 O 0.95476 0.77488 0.67966 0.0
O137 O 0.88365 0.74881 0.7088 0.0
O138 O 0.94903 0.68658 0.43289 0.0
O139 O 0.89861 0.68354 0.56374 0.0
Co140 Co 0.24381 0.17005 0.55187 0.0
O141 O 0.2546 0.21424 0.68432 0.0
O142 O 0.18925 0.16156 0.60796 0.0
C143 C 0.30003 0.21611 0.41108 0.0
O144 O 0.22002 0.12213 0.40771 0.0
Co145 Co 0.30911 0.14614 0.476 0.0
O146 O 0.24999 0.09002 0.45854 0.0
C147 C 0.25877 0.11651 0.7274 0.0
C148 C 0.21266 0.19588 0.6849 0.0
C149 C 0.2288 0.09452 0.37782 0.0
O150 O 0.23666 0.13113 0.69748 0.0
O151 O 0.29001 0.12099 0.65457 0.0
O152 O 0.26324 0.21225 0.41283 0.0
O153 O 0.30336 0.19485 0.49959 0.0
Co154 Co 0.77514 0.11698 0.65246 0.0
O155 O 0.73972 0.0686 0.76805 0.0
O156 O 0.80805 0.09546 0.71512 0.0
C157 C 0.7313 0.08636 0.48271 0.0
O158 O 0.81609 0.16685 0.51453 0.0
Co159 Co 0.74547 0.17184 0.62352 0.0
O160 O 0.78028 0.19519 0.46009 0.0
C161 C 0.80131 0.19773 0.84442 0.0
C162 C 0.77168 0.06512 0.77367 0.0
C163 C 0.8114 0.19133 0.43928 0.0
O164 O 0.7961 0.16179 0.80836 0.0
O165 O 0.78181 0.21003 0.78225 0.0
O166 O 0.75485 0.07484 0.51862 0.0
O167 O 0.72642 0.11103 0.57073 0.0
Co168 Co 0.94778 0.39265 0.38188 0.0
O169 O 0.96098 0.36509 0.50633 0.0
O170 O 0.90343 0.32943 0.37894 0.0
C171 C 0.0164 0.43686 0.29197 0.0
O172 O 0.92627 0.4106 0.23426 0.0
Co173 Co 0.98983 0.4919 0.40501 0.0
O174 O 0.95066 0.4809 0.265 0.0
C175 C 0.91563 0.43305 0.58121 0.0
C176 C 0.92595 0.328 0.46908 0.0
C177 C 0.92876 0.44463 0.20163 0.0
O178 O 0.91219 0.39984 0.52436 0.0
O179 O 0.94544 0.47231 0.55089 0.0
O180 O 0.99082 0.39613 0.25338 0.0
O181 O 1.00181 0.44828 0.39203 0.0
Co182 Co 0.57343 0.58746 0.47036 0.0
O183 O 0.62195 0.62076 0.59662 0.0
O184 O 0.60756 0.56215 0.50175 0.0
C185 C 0.62166 0.60069 0.28672 0.0
O186 O 0.52532 0.55021 0.33186 0.0
Co187 Co 0.55767 0.61144 0.45573 0.0
O188 O 0.50898 0.59541 0.32966 0.0
C189 C 0.50948 0.55146 0.6604 0.0
C190 C 0.63073 0.59293 0.58786 0.0
C191 C 0.50082 0.55961 0.28536 0.0
O192 O 0.53573 0.54451 0.60571 0.0
O193 O 0.5117 0.58311 0.61273 0.0
O194 O 0.60293 0.56575 0.35298 0.0
O195 O 0.61398 0.62794 0.33884 0.0
Co196 Co 0.52461 0.11296 0.3782 0.0
O197 O 0.47934 0.09796 0.51232 0.0
O198 O 0.53006 0.16492 0.44517 0.0
C199 C 0.48014 0.05839 0.23155 0.0
O200 O 0.57282 0.14113 0.23514 0.0
Co201 Co 0.55326 0.05167 0.28595 0.0
O202 O 0.60679 0.11281 0.27887 0.0
C203 C 0.57581 0.09456 0.54953 0.0
C204 C 0.49572 0.13927 0.51958 0.0
C205 C 0.59972 0.13194 0.19819 0.0
O206 O 0.56445 0.1194 0.51957 0.0
O207 O 0.57088 0.06385 0.47345 0.0
O208 O 0.48177 0.09383 0.24122 0.0
O209 O 0.50285 0.0553 0.3157 0.0
Co210 Co 0.73106 0.61831 0.74139 0.0
O211 O 0.70833 0.63336 0.60638 0.0
O212 O 0.66751 0.57918 0.74497 0.0
C213 C 0.77982 0.68668 0.82142 0.0
O214 O 0.74421 0.59579 0.8973 0.0
Co215 Co 0.82869 0.65063 0.72028 0.0
O216 O 0.8143 0.61716 0.87905 0.0
C217 C 0.76376 0.57549 0.55593 0.0
C218 C 0.66973 0.60125 0.64656 0.0
C219 C 0.7769 0.59691 0.93733 0.0
O220 O 0.73303 0.57691 0.61167 0.0
O221 O 0.80412 0.60295 0.58243 0.0
O222 O 0.73875 0.6653 0.85798 0.0
O223 O 0.78921 0.66828 0.72754 0.0
Co224 Co 0.44405 0.18188 0.73702 0.0
O225 O 0.43346 0.13765 0.60505 0.0
O226 O 0.49872 0.19054 0.68152 0.0
C227 C 0.38781 0.13582 0.87784 0.0
O228 O 0.46769 0.22991 0.88074 0.0
Co229 Co 0.37842 0.20548 0.8119 0.0
O230 O 0.43746 0.26168 0.82955 0.0
C231 C 0.42888 0.23506 0.56057 0.0
C232 C 0.47544 0.15615 0.60477 0.0
C233 C 0.45871 0.25736 0.91059 0.0
O234 O 0.45111 0.22062 0.59093 0.0
O235 O 0.39756 0.2305 0.63317 0.0
O236 O 0.42466 0.13982 0.87651 0.0
O237 O 0.38444 0.15694 0.78895 0.0
Co238 Co 0.91346 0.23521 0.63868 0.0
O239 O 0.94889 0.28365 0.5233 0.0
O240 O 0.88053 0.25671 0.57599 0.0
C241 C 0.95715 0.26581 0.80849 0.0
O242 O 0.8725 0.1853 0.77642 0.0
Co243 Co 0.94312 0.18044 0.66759 0.0
O244 O 0.9084 0.15709 0.83116 0.0
C245 C 0.88734 0.15451 0.44666 0.0
C246 C 0.91692 0.28711 0.51761 0.0
C247 C 0.87724 0.16089 0.85183 0.0
O248 O 0.8926 0.19049 0.48257 0.0
O249 O 0.90678 0.14219 0.50901 0.0
O250 O 0.93352 0.27723 0.7727 0.0
O251 O 0.96227 0.24128 0.72053 0.0
Co252 Co 0.40699 0.2927 0.24156 0.0
O253 O 0.39401 0.3204 0.11692 0.0
O254 O 0.4513 0.35593 0.24536 0.0
C255 C 0.33822 0.24833 0.33023 0.0
O256 O 0.42831 0.27465 0.38945 0.0
Co257 Co 0.36494 0.19338 0.21781 0.0
O258 O 0.4036 0.20423 0.35925 0.0
C259 C 0.43946 0.25252 0.0428 0.0
C260 C 0.42896 0.35745 0.1548 0.0
C261 C 0.42567 0.24056 0.42225 0.0
O262 O 0.44283 0.2857 0.09967 0.0
O263 O 0.40957 0.21323 0.07255 0.0
O264 O 0.36369 0.28902 0.36932 0.0
O265 O 0.35304 0.23706 0.23044 0.0
Co266 Co 0.78166 0.09806 0.15357 0.0
O267 O 0.73304 0.0647 0.0276 0.0
O268 O 0.74746 0.12333 0.1223 0.0
C269 C 0.73358 0.08489 0.33741 0.0
O270 O 0.82989 0.13537 0.2918 0.0
Co271 Co 0.7975 0.0741 0.16833 0.0
O272 O 0.84611 0.09009 0.29459 0.0
C273 C 0.84568 0.13412 0.96369 0.0
C274 C 0.72423 0.0925 0.03637 0.0
C275 C 0.85432 0.12593 0.33859 0.0
O276 O 0.81929 0.14095 0.01796 0.0
O277 O 0.84358 0.10257 0.01168 0.0
O278 O 0.75224 0.11983 0.27117 0.0
O279 O 0.74122 0.05761 0.28532 0.0
Co280 Co 0.82993 0.57228 0.24629 0.0
O281 O 0.87508 0.58733 0.11167 0.0
O282 O 0.82454 0.52036 0.17903 0.0
C283 C 0.87448 0.6269 0.3926 0.0
O284 O 0.78188 0.54409 0.38981 0.0
Co285 Co 0.80116 0.63343 0.33937 0.0
O286 O 0.74769 0.57225 0.3464 0.0
C287 C 0.77865 0.59067 0.07566 0.0
C288 C 0.85878 0.54604 0.10432 0.0
C289 C 0.75489 0.55316 0.42679 0.0
O290 O 0.78992 0.56574 0.10546 0.0
O291 O 0.7837 0.62143 0.15176 0.0
O292 O 0.87294 0.5915 0.38277 0.0
O293 O 0.85162 0.62991 0.30884 0.0
Co294 Co 0.62374 0.06704 0.88322 0.0
O295 O 0.64659 0.05198 0.01793 0.0
O296 O 0.68731 0.10624 0.87955 0.0
C297 C 0.57499 0.99868 0.80301 0.0
O298 O 0.61046 0.08956 0.72755 0.0
Co299 Co 0.52605 0.03456 0.90461 0.0
O300 O 0.54037 0.06821 0.74634 0.0
C301 C 0.59096 0.10972 0.06891 0.0
C302 C 0.68517 0.08415 0.9778 0.0
C303 C 0.57774 0.08848 0.68791 0.0
O304 O 0.62173 0.10833 0.01333 0.0
O305 O 0.55061 0.08224 0.04239 0.0
O306 O 0.61606 0.02011 0.7663 0.0
O307 O 0.56562 0.01702 0.8971 0.0
Co308 Co 0.9108 0.50374 0.88708 0.0
O309 O 0.92115 0.54786 0.01913 0.0
O310 O 0.856 0.49492 0.94209 0.0
C311 C 0.96711 0.54994 0.74669 0.0
O312 O 0.8875 0.45581 0.74305 0.0
Co313 Co 0.97667 0.48046 0.81311 0.0
O314 O 0.91786 0.42408 0.79429 0.0
C315 C 0.92563 0.45023 0.06331 0.0
C316 C 0.87917 0.52927 0.01909 0.0
C317 C 0.89647 0.42833 0.71355 0.0
O318 O 0.90364 0.46495 0.03316 0.0
O319 O 0.95699 0.45479 -0.00905 0.0
O320 O 0.9302 0.54584 0.74769 0.0
O321 O 0.97049 0.52888 0.83576 0.0
Co322 Co 0.44162 0.4503 -0.01467 0.0
O323 O 0.40617 0.40195 0.10094 0.0
O324 O 0.47448 0.42874 0.04797 0.0
C325 C 0.39775 0.41966 0.81559 0.0
O326 O 0.48259 0.50015 0.84737 0.0
Co327 Co 0.41195 0.50518 0.95642 0.0
O328 O 0.44684 0.52859 0.79315 0.0
C329 C 0.46781 0.53105 0.17728 0.0
C330 C 0.43809 0.3984 0.10649 0.0
C331 C 0.47794 0.52469 0.77227 0.0
O332 O 0.46264 0.49513 0.14115 0.0
O333 O 0.44827 0.54333 0.11522 0.0
O334 O 0.42127 0.40812 0.85158 0.0
O335 O 0.39292 0.44437 0.90356 0.0
Co336 Co 0.61459 0.72614 0.71572 0.0
O337 O 0.62759 0.69844 0.84027 0.0
O338 O 0.57027 0.66291 0.71192 0.0
C339 C 0.68335 0.77051 0.62695 0.0
O340 O 0.59325 0.7442 0.56791 0.0
Co341 Co 0.65666 0.82547 0.73966 0.0
O342 O 0.61825 0.81471 0.59759 0.0
C343 C 0.58218 0.76631 0.91477 0.0
C344 C 0.59263 0.66139 0.80241 0.0
C345 C 0.59608 0.77835 0.53475 0.0
O346 O 0.57877 0.73315 0.85768 0.0
O347 O 0.61206 0.80561 0.88501 0.0
O348 O 0.65787 0.72982 0.58786 0.0
O349 O 0.66855 0.78178 0.72681 0.0
Co350 Co 0.23999 0.92081 0.80368 0.0
O351 O 0.28861 0.95418 0.92965 0.0
O352 O 0.27419 0.89555 0.83494 0.0
C353 C 0.28807 0.93398 0.61984 0.0
O354 O 0.19176 0.8835 0.66546 0.0
Co355 Co 0.22415 0.94477 0.78892 0.0
O356 O 0.17553 0.92877 0.66266 0.0
C357 C 0.17597 0.88475 -0.00644 0.0
C358 C 0.29742 0.92637 0.92087 0.0
C359 C 0.16732 0.89293 0.61869 0.0
O360 O 0.20236 0.87792 0.93929 0.0
O361 O 0.17807 0.91629 0.94557 0.0
O362 O 0.26942 0.89905 0.68608 0.0
O363 O 0.28042 0.96126 0.67193 0.0
Co364 Co 0.19173 0.44659 0.71099 0.0
O365 O 0.14657 0.43152 0.84559 0.0
O366 O 0.1971 0.4985 0.77824 0.0
C367 C 0.14719 0.39197 0.56465 0.0
O368 O 0.23978 0.47481 0.56749 0.0
Co369 Co 0.22051 0.38543 0.61803 0.0
O370 O 0.27391 0.44665 0.61096 0.0
C371 C 0.24293 0.42817 0.88183 0.0
C372 C 0.16286 0.47282 0.85295 0.0
C373 C 0.2667 0.46567 0.53031 0.0
O374 O 0.23174 0.45315 0.85183 0.0
O375 O 0.2379 0.39741 0.80573 0.0
O376 O 0.14872 0.42736 0.57448 0.0
O377 O 0.17005 0.38897 0.64844 0.0
Co378 Co 0.3979 0.95181 0.07404 0.0
O379 O 0.37506 0.96688 0.93933 0.0
O380 O 0.33433 0.91263 0.0777 0.0
C381 C 0.44666 0.02015 0.15429 0.0
O382 O 0.41116 0.92928 0.22971 0.0
Co383 Co 0.49557 0.98425 0.05262 0.0
O384 O 0.48129 0.95076 0.21125 0.0
C385 C 0.43065 0.90915 0.88812 0.0
C386 C 0.33648 0.93472 -0.02054 0.0
C387 C 0.44391 0.93047 0.26963 0.0
O388 O 0.39989 0.91051 0.94394 0.0
O389 O 0.471 0.93662 0.91467 0.0
O390 O 0.40559 0.99875 0.19096 0.0
O391 O 0.45603 1.00181 0.06017 0.0
Co392 Co 0.11085 0.51512 0.07022 0.0
O393 O 0.1005 0.47101 0.93814 0.0
O394 O 0.16565 0.52393 0.01523 0.0
C395 C 0.05453 0.46892 0.21059 0.0
O396 O 0.13417 0.56304 0.21427 0.0
Co397 Co 0.04497 0.53842 0.14403 0.0
O398 O 0.10383 0.59473 0.16299 0.0
C399 C 0.096 0.56857 0.89375 0.0
C400 C 0.14247 0.48958 0.9382 0.0
C401 C 0.12513 0.59047 0.24399 0.0
O402 O 0.11804 0.55394 0.92416 0.0
O403 O 0.06461 0.56398 0.96604 0.0
O404 O 0.09143 0.47302 0.20961 0.0
O405 O 0.05116 0.48999 0.12151 0.0
Co406 Co 0.58002 0.56851 0.97165 0.0
O407 O 0.61548 0.61694 0.8563 0.0
O408 O 0.54713 0.59005 0.90896 0.0
C409 C 0.62372 0.5991 0.14148 0.0
O410 O 0.53905 0.51859 0.10936 0.0
Co411 Co 0.60971 0.51375 0.00053 0.0
O412 O 0.5749 0.49031 0.16389 0.0
C413 C 0.55391 0.48782 0.77962 0.0
C414 C 0.58353 0.62044 0.85064 0.0
C415 C 0.54375 0.49413 0.18463 0.0
O416 O 0.55913 0.52377 0.81559 0.0
O417 O 0.5734 0.47552 0.84187 0.0
O418 O 0.60011 0.61054 0.10565 0.0
O419 O 0.62881 0.57456 0.05352 0.0
Co420 Co 0.07385 0.62622 0.57546 0.0
O421 O 0.06066 0.65378 0.45097 0.0
O422 O 0.1182 0.68944 0.57839 0.0
C423 C 1.00523 0.58202 0.66534 0.0
O424 O 0.09535 0.60826 0.72314 0.0
Co425 Co 0.03181 0.52697 0.5525 0.0
O426 O 0.07121 0.53805 0.69187 0.0
C427 C 0.10604 0.58579 0.37639 0.0
C428 C 0.09569 0.69086 0.48822 0.0
C429 C 0.09302 0.57429 0.7554 0.0
O430 O 0.10944 0.61901 0.43301 0.0
O431 O 0.07623 0.54654 0.40671 0.0
O432 O 0.03081 0.62274 0.70392 0.0
O433 O 0.01983 0.57059 0.5653 0.0
Co434 Co 0.44829 0.43142 0.48664 0.0
O435 O 0.39973 0.39811 0.36055 0.0
O436 O 0.41418 0.45676 0.45532 0.0
C437 C 0.40015 0.41825 0.6703 0.0
O438 O 0.49645 0.46867 0.62497 0.0
Co439 Co 0.46406 0.40741 0.50124 0.0
O440 O 0.51272 0.42343 0.62739 0.0
C441 C 0.51221 0.46737 0.29649 0.0
C442 C 0.39096 0.42596 0.36931 0.0
C443 C 0.52091 0.45924 0.67157 0.0
O444 O 0.48597 0.47434 0.35116 0.0
O445 O 0.51 0.43573 0.3442 0.0
O446 O 0.41885 0.4532 0.60413 0.0
O447 O 0.40779 0.39096 0.61826 0.0
Co448 Co 0.49702 0.90592 0.57907 0.0
O449 O 0.54228 0.92089 0.44494 0.0
O450 O 0.49154 0.85394 0.51208 0.0
C451 C 0.54152 0.96047 0.72566 0.0
O452 O 0.44881 0.87777 0.72215 0.0
Co453 Co 0.4684 0.9672 0.67148 0.0
O454 O 0.41479 0.90609 0.67848 0.0
C455 C 0.44576 0.92429 0.40797 0.0
C456 C 0.52589 0.87958 0.43767 0.0
C457 C 0.42184 0.88689 0.75889 0.0
O458 O 0.45719 0.89949 0.43772 0.0
O459 O 0.45071 0.95501 0.48407 0.0
O460 O 0.53986 0.925 0.71603 0.0
O461 O 0.51881 0.96358 0.64157 0.0
Co462 Co 0.29061 0.40055 0.21587 0.0
O463 O 0.31336 0.38551 0.35085 0.0
O464 O 0.35416 0.43971 0.21228 0.0
C465 C 0.24187 0.33218 0.13583 0.0
O466 O 0.27743 0.42305 0.05997 0.0
Co467 Co 0.19296 0.36817 0.23699 0.0
O468 O 0.20737 0.40178 0.07851 0.0
C469 C 0.25787 0.44338 0.40112 0.0
C470 C 0.35195 0.41765 0.31068 0.0
C471 C 0.24476 0.42202 0.0202 0.0
O472 O 0.28861 0.44193 0.34561 0.0
O473 O 0.21752 0.41591 0.37466 0.0
O474 O 0.28294 0.35358 0.09926 0.0
O475 O 0.23247 0.35057 0.22973 0.0
Co476 Co 0.57758 0.83698 0.22026 0.0
O477 O 0.58815 0.88121 0.3522 0.0
O478 O 0.52289 0.8283 0.27577 0.0
C479 C 0.63381 0.88306 0.07946 0.0
O480 O 0.55396 0.78895 0.07656 0.0
Co481 Co 0.64321 0.8134 0.14522 0.0
O482 O 0.58422 0.75714 0.1277 0.0
C483 C 0.59272 0.78374 0.39646 0.0
C484 C 0.54617 0.8627 0.3525 0.0
C485 C 0.56288 0.76143 0.04694 0.0
O486 O 0.57055 0.79827 0.36637 0.0
O487 O 0.62402 0.78828 0.3238 0.0
O488 O 0.59694 0.87903 0.08076 0.0
O489 O 0.63719 0.86194 0.16832 0.0
Co490 Co 0.10819 0.78365 0.31858 0.0
O491 O 0.07276 0.73522 0.43396 0.0
O492 O 0.14111 0.76215 0.38128 0.0
C493 C 0.0645 0.75306 0.14876 0.0
O494 O 0.14915 0.83357 0.18083 0.0
Co495 Co 0.07853 0.83842 0.28966 0.0
O496 O 0.11325 0.86177 0.12609 0.0
C497 C 0.13431 0.86435 0.51059 0.0
C498 C 0.10473 0.73176 0.43966 0.0
C499 C 0.14441 0.85798 0.10542 0.0
O500 O 0.12905 0.82838 0.47468 0.0
O501 O 0.11487 0.87667 0.44825 0.0
O502 O 0.08813 0.74163 0.18456 0.0
O503 O 0.05939 0.77758 0.23672 0.0
loop_
_geom_bond_atom_site_label_1
_geom_bond_atom_site_label_2
_geom_bond_distance
_geom_bond_site_symmetry_2
_ccdc_geom_bond_type
Co0 O1 2.216 1_556 S
Co0 O2 2.091 1_545 S
Co0 O4 2.004 . S
Co0 O10 2.021 1_556 S
Co0 O12 2.137 . S
Co0 O13 2.244 . S
O1 Co0 2.216 1_554 S
O1 C8 1.247 1_545 S
O2 Co0 2.091 1_565 S
O2 C8 1.261 1_556 S
C3 O12 1.247 . S
C3 O13 1.272 . S
O4 Co0 2.004 . S
O4 C9 1.259 . S
Co5 O6 2.061 1_554 S
Co5 O11 2.052 . S
Co5 O13 2.135 1_554 S
O6 Co5 2.061 1_556 S
O6 C9 1.235 . S
C7 O10 1.238 . S
C7 O11 1.241 . S
C8 O1 1.247 1_565 S
C8 O2 1.261 1_554 S
C9 O4 1.259 . S
C9 O6 1.235 . S
O10 Co0 2.021 1_554 S
O10 C7 1.238 . S
O11 Co5 2.052 . S
O11 C7 1.241 . S
O12 Co0 2.137 . S
O12 C3 1.247 . S
O13 Co0 2.244 . S
O13 C3 1.272 . S
O13 Co5 2.135 1_556 S
Co14 O15 2.216 . S
Co14 O16 2.091 . S
Co14 O18 2.004 . S
Co14 O24 2.021 . S
Co14 O26 2.137 . S
Co14 O27 2.244 . S
O15 Co14 2.216 . S
O15 C22 1.247 . S
O16 Co14 2.091 . S
O16 C22 1.261 . S
C17 O26 1.247 . S
C17 O27 1.272 . S
O18 Co14 2.004 . S
O18 C23 1.259 . S
Co19 O20 2.061 . S
Co19 O25 2.052 . S
Co19 O27 2.135 . S
O20 Co19 2.061 . S
O20 C23 1.235 . S
C21 O24 1.238 . S
C21 O25 1.241 . S
C22 O15 1.247 . S
C22 O16 1.261 . S
C23 O18 1.259 . S
C23 O20 1.235 . S
O24 Co14 2.021 . S
O24 C21 1.238 . S
O25 Co19 2.052 . S
O25 C21 1.241 . S
O26 Co14 2.137 . S
O26 C17 1.247 . S
O27 Co14 2.244 . S
O27 C17 1.272 . S
O27 Co19 2.135 . S
Co28 O29 2.216 . S
Co28 O30 2.091 . S
Co28 O32 2.004 1_554 S
Co28 O38 2.021 . S
Co28 O40 2.137 1_554 S
Co28 O41 2.244 . S
O29 Co28 2.216 . S
O29 C36 1.247 . S
O30 Co28 2.091 . S
O30 C36 1.261 . S
C31 O40 1.247 . S
C31 O41 1.272 1_556 S
O32 Co28 2.004 1_556 S
O32 C37 1.259 . S
Co33 O34 2.061 1_554 S
Co33 O39 2.052 . S
Co33 O41 2.135 . S
O34 Co33 2.061 1_556 S
O34 C37 1.235 . S
C35 O38 1.238 . S
C35 O39 1.241 . S
C36 O29 1.247 . S
C36 O30 1.261 . S
C37 O32 1.259 . S
C37 O34 1.235 . S
O38 Co28 2.021 . S
O38 C35 1.238 . S
O39 Co33 2.052 . S
O39 C35 1.241 . S
O40 Co28 2.137 1_556 S
O40 C31 1.247 . S
O41 Co28 2.244 . S
O41 C31 1.272 1_554 S
O41 Co33 2.135 . S
Co42 O43 2.216 . S
Co42 O44 2.091 1_455 S
Co42 O46 2.004 . S
Co42 O52 2.021 . S
Co42 O54 2.137 . S
Co42 O55 2.244 . S
O43 Co42 2.216 . S
O43 C50 1.247 1_455 S
O44 Co42 2.091 1_655 S
O44 C50 1.261 . S
C45 O54 1.247 . S
C45 O55 1.272 . S
O46 Co42 2.004 . S
O46 C51 1.259 . S
Co47 O48 2.061 . S
Co47 O53 2.052 . S
Co47 O55 2.135 . S
O48 Co47 2.061 . S
O48 C51 1.235 . S
C49 O52 1.238 . S
C49 O53 1.241 . S
C50 O43 1.247 1_655 S
C50 O44 1.261 . S
C51 O46 1.259 . S
C51 O48 1.235 . S
O52 Co42 2.021 . S
O52 C49 1.238 . S
O53 Co47 2.052 . S
O53 C49 1.241 . S
O54 Co42 2.137 . S
O54 C45 1.247 . S
O55 Co42 2.244 . S
O55 C45 1.272 . S
O55 Co47 2.135 . S
Co56 O57 2.216 . S
Co56 O58 2.091 . S
Co56 O60 2.004 . S
Co56 O66 2.021 . S
Co56 O68 2.137 . S
Co56 O69 2.244 . S
O57 Co56 2.216 . S
O57 C64 1.247 . S
O58 Co56 2.091 . S
O58 C64 1.261 . S
C59 O68 1.247 . S
C59 O69 1.272 . S
O60 Co56 2.004 . S
O60 C65 1.259 . S
Co61 O62 2.061 . S
Co61 O67 2.052 . S
Co61 O69 2.135 . S
O62 Co61 2.061 . S
O62 C65 1.235 . S
C63 O66 1.238 . S
C63 O67 1.241 . S
C64 O57 1.247 . S
C64 O58 1.261 . S
C65 O60 1.259 . S
C65 O62 1.235 . S
O66 Co56 2.021 . S
O66 C63 1.238 . S
O67 Co61 2.052 . S
O67 C63 1.241 . S
O68 Co56 2.137 . S
O68 C59 1.247 . S
O69 Co56 2.244 . S
O69 C59 1.272 . S
O69 Co61 2.135 . S
Co70 O71 2.216 . S
Co70 O72 2.091 . S
Co70 O74 2.004 . S
Co70 O80 2.021 . S
Co70 O82 2.137 . S
Co70 O83 2.244 . S
O71 Co70 2.216 . S
O71 C78 1.247 . S
O72 Co70 2.091 . S
O72 C78 1.261 . S
C73 O82 1.247 . S
C73 O83 1.272 . S
O74 Co70 2.004 . S
O74 C79 1.259 . S
Co75 O76 2.061 . S
Co75 O81 2.052 . S
Co75 O83 2.135 . S
O76 Co75 2.061 . S
O76 C79 1.235 . S
C77 O80 1.238 . S
C77 O81 1.241 . S
C78 O71 1.247 . S
C78 O72 1.261 . S
C79 O74 1.259 . S
C79 O76 1.235 . S
O80 Co70 2.021 . S
O80 C77 1.238 . S
O81 Co75 2.052 . S
O81 C77 1.241 . S
O82 Co70 2.137 . S
O82 C73 1.247 . S
O83 Co70 2.244 . S
O83 C73 1.272 . S
O83 Co75 2.135 . S
Co84 O85 2.216 1_554 S
Co84 O86 2.091 1_565 S
Co84 O88 2.004 . S
Co84 O94 2.021 1_554 S
Co84 O96 2.137 . S
Co84 O97 2.244 . S
O85 Co84 2.216 1_556 S
O85 C92 1.247 1_565 S
O86 Co84 2.091 1_545 S
O86 C92 1.261 1_554 S
C87 O96 1.247 . S
C87 O97 1.272 . S
O88 Co84 2.004 . S
O88 C93 1.259 . S
Co89 O90 2.061 1_556 S
Co89 O95 2.052 . S
Co89 O97 2.135 1_556 S
O90 Co89 2.061 1_554 S
O90 C93 1.235 . S
C91 O94 1.238 . S
C91 O95 1.241 . S
C92 O85 1.247 1_545 S
C92 O86 1.261 1_556 S
C93 O88 1.259 . S
C93 O90 1.235 . S
O94 Co84 2.021 1_556 S
O94 C91 1.238 . S
O95 Co89 2.052 . S
O95 C91 1.241 . S
O96 Co84 2.137 . S
O96 C87 1.247 . S
O97 Co84 2.244 . S
O97 C87 1.272 . S
O97 Co89 2.135 1_554 S
Co98 O99 2.216 . S
Co98 O100 2.091 . S
Co98 O102 2.004 . S
Co98 O108 2.021 . S
Co98 O110 2.137 . S
Co98 O111 2.244 . S
O99 Co98 2.216 . S
O99 C106 1.247 . S
O100 Co98 2.091 . S
O100 C106 1.261 . S
C101 O110 1.247 . S
C101 O111 1.272 . S
O102 Co98 2.004 . S
O102 C107 1.259 . S
Co103 O104 2.061 . S
Co103 O109 2.052 . S
Co103 O111 2.135 . S
O104 Co103 2.061 . S
O104 C107 1.235 . S
C105 O108 1.238 . S
C105 O109 1.241 . S
C106 O99 1.247 . S
C106 O100 1.261 . S
C107 O102 1.259 . S
C107 O104 1.235 . S
O108 Co98 2.021 . S
O108 C105 1.238 . S
O109 Co103 2.052 . S
O109 C105 1.241 . S
O110 Co98 2.137 . S
O110 C101 1.247 . S
O111 Co98 2.244 . S
O111 C101 1.272 . S
O111 Co103 2.135 . S
Co112 O113 2.216 . S
Co112 O114 2.091 . S
Co112 O116 2.004 1_556 S
Co112 O122 2.021 . S
Co112 O124 2.137 1_556 S
Co112 O125 2.244 . S
O113 Co112 2.216 . S
O113 C120 1.247 . S
O114 Co112 2.091 . S
O114 C120 1.261 . S
C115 O124 1.247 . S
C115 O125 1.272 1_554 S
O116 Co112 2.004 1_554 S
O116 C121 1.259 . S
Co117 O118 2.061 1_556 S
Co117 O123 2.052 . S
Co117 O125 2.135 . S
O118 Co117 2.061 1_554 S
O118 C121 1.235 . S
C119 O122 1.238 . S
C119 O123 1.241 . S
C120 O113 1.247 . S
C120 O114 1.261 . S
C121 O116 1.259 . S
C121 O118 1.235 . S
O122 Co112 2.021 . S
O122 C119 1.238 . S
O123 Co117 2.052 . S
O123 C119 1.241 . S
O124 Co112 2.137 1_554 S
O124 C115 1.247 . S
O125 Co112 2.244 . S
O125 C115 1.272 1_556 S
O125 Co117 2.135 . S
Co126 O127 2.216 . S
Co126 O128 2.091 1_655 S
Co126 O130 2.004 . S
Co126 O136 2.021 . S
Co126 O138 2.137 . S
Co126 O139 2.244 . S
O127 Co126 2.216 . S
O127 C134 1.247 1_655 S
O128 Co126 2.091 1_455 S
O128 C134 1.261 . S
C129 O138 1.247 . S
C129 O139 1.272 . S
O130 Co126 2.004 . S
O130 C135 1.259 . S
Co131 O132 2.061 . S
Co131 O137 2.052 . S
Co131 O139 2.135 . S
O132 Co131 2.061 . S
O132 C135 1.235 . S
C133 O136 1.238 . S
C133 O137 1.241 . S
C134 O127 1.247 1_455 S
C134 O128 1.261 . S
C135 O130 1.259 . S
C135 O132 1.235 . S
O136 Co126 2.021 . S
O136 C133 1.238 . S
O137 Co131 2.052 . S
O137 C133 1.241 . S
O138 Co126 2.137 . S
O138 C129 1.247 . S
O139 Co126 2.244 . S
O139 C129 1.272 . S
O139 Co131 2.135 . S
Co140 O141 2.216 . S
Co140 O142 2.091 . S
Co140 O144 2.004 . S
Co140 O150 2.021 . S
Co140 O152 2.137 . S
Co140 O153 2.244 . S
O141 Co140 2.216 . S
O141 C148 1.247 . S
O142 Co140 2.091 . S
O142 C148 1.261 . S
C143 O152 1.247 . S
C143 O153 1.272 . S
O144 Co140 2.004 . S
O144 C149 1.259 . S
Co145 O146 2.061 . S
Co145 O151 2.052 . S
Co145 O153 2.135 . S
O146 Co145 2.061 . S
O146 C149 1.235 . S
C147 O150 1.238 . S
C147 O151 1.241 . S
C148 O141 1.247 . S
C148 O142 1.261 . S
C149 O144 1.259 . S
C149 O146 1.235 . S
O150 Co140 2.021 . S
O150 C147 1.238 . S
O151 Co145 2.052 . S
O151 C147 1.241 . S
O152 Co140 2.137 . S
O152 C143 1.247 . S
O153 Co140 2.244 . S
O153 C143 1.272 . S
O153 Co145 2.135 . S
Co154 O155 2.216 . S
Co154 O156 2.091 . S
Co154 O158 2.004 . S
Co154 O164 2.021 . S
Co154 O166 2.137 . S
Co154 O167 2.244 . S
O155 Co154 2.216 . S
O155 C162 1.247 . S
O156 Co154 2.091 . S
O156 C162 1.261 . S
C157 O166 1.247 . S
C157 O167 1.272 . S
O158 Co154 2.004 . S
O158 C163 1.259 . S
Co159 O160 2.061 . S
Co159 O165 2.052 . S
Co159 O167 2.135 . S
O160 Co159 2.061 . S
O160 C163 1.235 . S
C161 O164 1.238 . S
C161 O165 1.241 . S
C162 O155 1.247 . S
C162 O156 1.261 . S
C163 O158 1.259 . S
C163 O160 1.235 . S
O164 Co154 2.021 . S
O164 C161 1.238 . S
O165 Co159 2.052 . S
O165 C161 1.241 . S
O166 Co154 2.137 . S
O166 C157 1.247 . S
O167 Co154 2.244 . S
O167 C157 1.272 . S
O167 Co159 2.135 . S
Co168 O169 2.216 . S
Co168 O170 2.091 . S
Co168 O172 2.004 . S
Co168 O178 2.021 . S
Co168 O180 2.137 . S
Co168 O181 2.244 . S
O169 Co168 2.216 . S
O169 C176 1.247 . S
O170 Co168 2.091 . S
O170 C176 1.261 . S
C171 O180 1.247 1_455 S
C171 O181 1.272 1_455 S
O172 Co168 2.004 . S
O172 C177 1.259 . S
Co173 O174 2.061 . S
Co173 O179 2.052 . S
Co173 O181 2.135 . S
O174 Co173 2.061 . S
O174 C177 1.235 . S
C175 O178 1.238 . S
C175 O179 1.241 . S
C176 O169 1.247 . S
C176 O170 1.261 . S
C177 O172 1.259 . S
C177 O174 1.235 . S
O178 Co168 2.021 . S
O178 C175 1.238 . S
O179 Co173 2.052 . S
O179 C175 1.241 . S
O180 Co168 2.137 . S
O180 C171 1.247 1_655 S
O181 Co168 2.244 . S
O181 C171 1.272 1_655 S
O181 Co173 2.135 . S
Co182 O183 2.216 . S
Co182 O184 2.091 . S
Co182 O186 2.004 . S
Co182 O192 2.021 . S
Co182 O194 2.137 . S
Co182 O195 2.244 . S
O183 Co182 2.216 . S
O183 C190 1.247 . S
O184 Co182 2.091 . S
O184 C190 1.261 . S
C185 O194 1.247 . S
C185 O195 1.272 . S
O186 Co182 2.004 . S
O186 C191 1.259 . S
Co187 O188 2.061 . S
Co187 O193 2.052 . S
Co187 O195 2.135 . S
O188 Co187 2.061 . S
O188 C191 1.235 . S
C189 O192 1.238 . S
C189 O193 1.241 . S
C190 O183 1.247 . S
C190 O184 1.261 . S
C191 O186 1.259 . S
C191 O188 1.235 . S
O192 Co182 2.021 . S
O192 C189 1.238 . S
O193 Co187 2.052 . S
O193 C189 1.241 . S
O194 Co182 2.137 . S
O194 C185 1.247 . S
O195 Co182 2.244 . S
O195 C185 1.272 . S
O195 Co187 2.135 . S
Co196 O197 2.216 . S
Co196 O198 2.091 . S
Co196 O200 2.004 . S
Co196 O206 2.021 . S
Co196 O208 2.137 . S
Co196 O209 2.244 . S
O197 Co196 2.216 . S
O197 C204 1.247 . S
O198 Co196 2.091 . S
O198 C204 1.261 . S
C199 O208 1.247 . S
C199 O209 1.272 . S
O200 Co196 2.004 . S
O200 C205 1.259 . S
Co201 O202 2.061 . S
Co201 O207 2.052 . S
Co201 O209 2.135 . S
O202 Co201 2.061 . S
O202 C205 1.235 . S
C203 O206 1.238 . S
C203 O207 1.241 . S
C204 O197 1.247 . S
C204 O198 1.261 . S
C205 O200 1.259 . S
C205 O202 1.235 . S
O206 Co196 2.021 . S
O206 C203 1.238 . S
O207 Co201 2.052 . S
O207 C203 1.241 . S
O208 Co196 2.137 . S
O208 C199 1.247 . S
O209 Co196 2.244 . S
O209 C199 1.272 . S
O209 Co201 2.135 . S
Co210 O211 2.216 . S
Co210 O212 2.091 . S
Co210 O214 2.004 . S
Co210 O220 2.021 . S
Co210 O222 2.137 . S
Co210 O223 2.244 . S
O211 Co210 2.216 . S
O211 C218 1.247 . S
O212 Co210 2.091 . S
O212 C218 1.261 . S
C213 O222 1.247 . S
C213 O223 1.272 . S
O214 Co210 2.004 . S
O214 C219 1.259 1_556 S
Co215 O216 2.061 . S
Co215 O221 2.052 . S
Co215 O223 2.135 . S
O216 Co215 2.061 . S
O216 C219 1.235 1_556 S
C217 O220 1.238 . S
C217 O221 1.241 . S
C218 O211 1.247 . S
C218 O212 1.261 . S
C219 O214 1.259 1_554 S
C219 O216 1.235 1_554 S
O220 Co210 2.021 . S
O220 C217 1.238 . S
O221 Co215 2.052 . S
O221 C217 1.241 . S
O222 Co210 2.137 . S
O222 C213 1.247 . S
O223 Co210 2.244 . S
O223 C213 1.272 . S
O223 Co215 2.135 . S
Co224 O225 2.216 . S
Co224 O226 2.091 . S
Co224 O228 2.004 . S
Co224 O234 2.021 . S
Co224 O236 2.137 . S
Co224 O237 2.244 . S
O225 Co224 2.216 . S
O225 C232 1.247 . S
O226 Co224 2.091 . S
O226 C232 1.261 . S
C227 O236 1.247 . S
C227 O237 1.272 . S
O228 Co224 2.004 . S
O228 C233 1.258 1_556 S
Co229 O230 2.061 . S
Co229 O235 2.052 . S
Co229 O237 2.135 . S
O230 Co229 2.061 . S
O230 C233 1.233 1_556 S
C231 O234 1.238 . S
C231 O235 1.241 . S
C232 O225 1.247 . S
C232 O226 1.261 . S
C233 O228 1.258 1_554 S
C233 O230 1.233 1_554 S
O234 Co224 2.021 . S
O234 C231 1.238 . S
O235 Co229 2.052 . S
O235 C231 1.241 . S
O236 Co224 2.137 . S
O236 C227 1.247 . S
O237 Co224 2.244 . S
O237 C227 1.272 . S
O237 Co229 2.135 . S
Co238 O239 2.216 . S
Co238 O240 2.091 . S
Co238 O242 2.004 . S
Co238 O248 2.021 . S
Co238 O250 2.137 . S
Co238 O251 2.244 . S
O239 Co238 2.216 . S
O239 C246 1.247 . S
O240 Co238 2.091 . S
O240 C246 1.261 . S
C241 O250 1.247 . S
C241 O251 1.272 . S
O242 Co238 2.004 . S
O242 C247 1.259 . S
Co243 O244 2.061 . S
Co243 O249 2.052 . S
Co243 O251 2.135 . S
O244 Co243 2.061 . S
O244 C247 1.235 . S
C245 O248 1.238 . S
C245 O249 1.241 . S
C246 O239 1.247 . S
C246 O240 1.261 . S
C247 O242 1.259 . S
C247 O244 1.235 . S
O248 Co238 2.021 . S
O248 C245 1.238 . S
O249 Co243 2.052 . S
O249 C245 1.241 . S
O250 Co238 2.137 . S
O250 C241 1.247 . S
O251 Co238 2.244 . S
O251 C241 1.272 . S
O251 Co243 2.135 . S
Co252 O253 2.216 . S
Co252 O254 2.091 . S
Co252 O256 2.004 . S
Co252 O262 2.021 . S
Co252 O264 2.137 . S
Co252 O265 2.244 . S
O253 Co252 2.216 . S
O253 C260 1.247 . S
O254 Co252 2.091 . S
O254 C260 1.261 . S
C255 O264 1.247 . S
C255 O265 1.272 . S
O256 Co252 2.004 . S
O256 C261 1.259 . S
Co257 O258 2.061 . S
Co257 O263 2.052 . S
Co257 O265 2.135 . S
O258 Co257 2.061 . S
O258 C261 1.235 . S
C259 O262 1.238 . S
C259 O263 1.241 . S
C260 O253 1.247 . S
C260 O254 1.261 . S
C261 O256 1.259 . S
C261 O258 1.235 . S
O262 Co252 2.021 . S
O262 C259 1.238 . S
O263 Co257 2.052 . S
O263 C259 1.241 . S
O264 Co252 2.137 . S
O264 C255 1.247 . S
O265 Co252 2.244 . S
O265 C255 1.272 . S
O265 Co257 2.135 . S
Co266 O267 2.216 . S
Co266 O268 2.091 . S
Co266 O270 2.004 . S
Co266 O276 2.021 1_554 S
Co266 O278 2.137 . S
Co266 O279 2.244 . S
O267 Co266 2.216 . S
O267 C274 1.247 . S
O268 Co266 2.091 . S
O268 C274 1.261 . S
C269 O278 1.247 . S
C269 O279 1.272 . S
O270 Co266 2.004 . S
O270 C275 1.259 . S
Co271 O272 2.061 . S
Co271 O277 2.052 . S
Co271 O279 2.135 . S
O272 Co271 2.061 . S
O272 C275 1.235 . S
C273 O276 1.238 . S
C273 O277 1.241 1_556 S
C274 O267 1.247 . S
C274 O268 1.261 . S
C275 O270 1.259 . S
C275 O272 1.235 . S
O276 Co266 2.021 1_556 S
O276 C273 1.238 . S
O277 Co271 2.052 . S
O277 C273 1.241 1_554 S
O278 Co266 2.137 . S
O278 C269 1.247 . S
O279 Co266 2.244 . S
O279 C269 1.272 . S
O279 Co271 2.135 . S
Co280 O281 2.216 . S
Co280 O282 2.091 . S
Co280 O284 2.004 . S
Co280 O290 2.021 . S
Co280 O292 2.137 . S
Co280 O293 2.244 . S
O281 Co280 2.216 . S
O281 C288 1.247 . S
O282 Co280 2.091 . S
O282 C288 1.261 . S
C283 O292 1.247 . S
C283 O293 1.272 . S
O284 Co280 2.004 . S
O284 C289 1.259 . S
Co285 O286 2.061 . S
Co285 O291 2.052 . S
Co285 O293 2.135 . S
O286 Co285 2.061 . S
O286 C289 1.235 . S
C287 O290 1.238 . S
C287 O291 1.241 . S
C288 O281 1.247 . S
C288 O282 1.261 . S
C289 O284 1.259 . S
C289 O286 1.235 . S
O290 Co280 2.021 . S
O290 C287 1.238 . S
O291 Co285 2.052 . S
O291 C287 1.241 . S
O292 Co280 2.137 . S
O292 C283 1.247 . S
O293 Co280 2.244 . S
O293 C283 1.272 . S
O293 Co285 2.135 . S
Co294 O295 2.216 . S
Co294 O296 2.091 . S
Co294 O298 2.004 . S
Co294 O304 2.021 . S
Co294 O306 2.137 . S
Co294 O307 2.244 . S
O295 Co294 2.216 . S
O295 C302 1.247 . S
O296 Co294 2.091 . S
O296 C302 1.261 . S
C297 O306 1.247 1_565 S
C297 O307 1.272 1_565 S
O298 Co294 2.004 . S
O298 C303 1.259 . S
Co299 O300 2.061 . S
Co299 O305 2.052 1_556 S
Co299 O307 2.135 . S
O300 Co299 2.061 . S
O300 C303 1.235 . S
C301 O304 1.238 1_554 S
C301 O305 1.241 . S
C302 O295 1.247 . S
C302 O296 1.261 . S
C303 O298 1.259 . S
C303 O300 1.235 . S
O304 Co294 2.021 . S
O304 C301 1.238 1_556 S
O305 Co299 2.052 1_554 S
O305 C301 1.241 . S
O306 Co294 2.137 . S
O306 C297 1.247 1_545 S
O307 Co294 2.244 . S
O307 C297 1.272 1_545 S
O307 Co299 2.135 . S
Co308 O309 2.216 1_556 S
Co308 O310 2.091 . S
Co308 O312 2.004 . S
Co308 O318 2.021 1_556 S
Co308 O320 2.137 . S
Co308 O321 2.244 . S
O309 Co308 2.216 1_554 S
O309 C316 1.247 . S
O310 Co308 2.091 . S
O310 C316 1.261 1_556 S
C311 O320 1.247 . S
C311 O321 1.272 . S
O312 Co308 2.004 . S
O312 C317 1.259 . S
Co313 O314 2.061 . S
Co313 O319 2.052 1_556 S
Co313 O321 2.135 . S
O314 Co313 2.061 . S
O314 C317 1.235 . S
C315 O318 1.238 . S
C315 O319 1.241 . S
C316 O309 1.247 . S
C316 O310 1.261 1_554 S
C317 O312 1.259 . S
C317 O314 1.235 . S
O318 Co308 2.021 1_554 S
O318 C315 1.238 . S
O319 Co313 2.052 1_554 S
O319 C315 1.241 . S
O320 Co308 2.137 . S
O320 C311 1.247 . S
O321 Co308 2.244 . S
O321 C311 1.272 . S
O321 Co313 2.135 . S
Co322 O323 2.216 1_556 S
Co322 O324 2.091 1_556 S
Co322 O326 2.004 . S
Co322 O332 2.021 1_556 S
Co322 O334 2.137 . S
Co322 O335 2.244 . S
O323 Co322 2.216 1_554 S
O323 C330 1.247 . S
O324 Co322 2.091 1_554 S
O324 C330 1.261 . S
C325 O334 1.247 . S
C325 O335 1.272 . S
O326 Co322 2.004 . S
O326 C331 1.259 . S
Co327 O328 2.061 . S
Co327 O333 2.052 1_556 S
Co327 O335 2.135 . S
O328 Co327 2.061 . S
O328 C331 1.235 . S
C329 O332 1.238 . S
C329 O333 1.241 . S
C330 O323 1.247 . S
C330 O324 1.261 . S
C331 O326 1.259 . S
C331 O328 1.235 . S
O332 Co322 2.021 1_554 S
O332 C329 1.238 . S
O333 Co327 2.052 1_554 S
O333 C329 1.241 . S
O334 Co322 2.137 . S
O334 C325 1.247 . S
O335 Co322 2.244 . S
O335 C325 1.272 . S
O335 Co327 2.135 . S
Co336 O337 2.216 . S
Co336 O338 2.091 . S
Co336 O340 2.004 . S
Co336 O346 2.021 . S
Co336 O348 2.137 . S
Co336 O349 2.244 . S
O337 Co336 2.216 . S
O337 C344 1.247 . S
O338 Co336 2.091 . S
O338 C344 1.261 . S
C339 O348 1.247 . S
C339 O349 1.272 . S
O340 Co336 2.004 . S
O340 C345 1.259 . S
Co341 O342 2.061 . S
Co341 O347 2.052 . S
Co341 O349 2.135 . S
O342 Co341 2.061 . S
O342 C345 1.235 . S
C343 O346 1.238 . S
C343 O347 1.241 . S
C344 O337 1.247 . S
C344 O338 1.261 . S
C345 O340 1.259 . S
C345 O342 1.235 . S
O346 Co336 2.021 . S
O346 C343 1.238 . S
O347 Co341 2.052 . S
O347 C343 1.241 . S
O348 Co336 2.137 . S
O348 C339 1.247 . S
O349 Co336 2.244 . S
O349 C339 1.272 . S
O349 Co341 2.135 . S
Co350 O351 2.216 . S
Co350 O352 2.091 . S
Co350 O354 2.004 . S
Co350 O360 2.021 1_556 S
Co350 O362 2.137 . S
Co350 O363 2.244 . S
O351 Co350 2.216 . S
O351 C358 1.247 . S
O352 Co350 2.091 . S
O352 C358 1.261 . S
C353 O362 1.247 . S
C353 O363 1.272 . S
O354 Co350 2.004 . S
O354 C359 1.259 . S
Co355 O356 2.061 . S
Co355 O361 2.052 . S
Co355 O363 2.135 . S
O356 Co355 2.061 . S
O356 C359 1.235 . S
C357 O360 1.238 . S
C357 O361 1.241 1_554 S
C358 O351 1.247 . S
C358 O352 1.261 . S
C359 O354 1.259 . S
C359 O356 1.235 . S
O360 Co350 2.021 1_554 S
O360 C357 1.238 . S
O361 Co355 2.052 . S
O361 C357 1.241 1_556 S
O362 Co350 2.137 . S
O362 C353 1.247 . S
O363 Co350 2.244 . S
O363 C353 1.272 . S
O363 Co355 2.135 . S
Co364 O365 2.216 . S
Co364 O366 2.091 . S
Co364 O368 2.004 . S
Co364 O374 2.021 . S
Co364 O376 2.137 . S
Co364 O377 2.244 . S
O365 Co364 2.216 . S
O365 C372 1.247 . S
O366 Co364 2.091 . S
O366 C372 1.261 . S
C367 O376 1.247 . S
C367 O377 1.272 . S
O368 Co364 2.004 . S
O368 C373 1.259 . S
Co369 O370 2.061 . S
Co369 O375 2.052 . S
Co369 O377 2.135 . S
O370 Co369 2.061 . S
O370 C373 1.235 . S
C371 O374 1.238 . S
C371 O375 1.241 . S
C372 O365 1.247 . S
C372 O366 1.261 . S
C373 O368 1.259 . S
C373 O370 1.235 . S
O374 Co364 2.021 . S
O374 C371 1.238 . S
O375 Co369 2.052 . S
O375 C371 1.241 . S
O376 Co364 2.137 . S
O376 C367 1.247 . S
O377 Co364 2.244 . S
O377 C367 1.272 . S
O377 Co369 2.135 . S
Co378 O379 2.216 . S
Co378 O380 2.091 . S
Co378 O382 2.004 . S
Co378 O388 2.021 . S
Co378 O390 2.137 . S
Co378 O391 2.244 . S
O379 Co378 2.216 . S
O379 C386 1.247 . S
O380 Co378 2.091 . S
O380 C386 1.261 . S
C381 O390 1.247 1_545 S
C381 O391 1.272 1_545 S
O382 Co378 2.004 . S
O382 C387 1.259 . S
Co383 O384 2.061 . S
Co383 O389 2.052 1_554 S
Co383 O391 2.135 . S
O384 Co383 2.061 . S
O384 C387 1.235 . S
C385 O388 1.238 1_556 S
C385 O389 1.241 . S
C386 O379 1.247 . S
C386 O380 1.261 . S
C387 O382 1.259 . S
C387 O384 1.235 . S
O388 Co378 2.021 . S
O388 C385 1.238 1_554 S
O389 Co383 2.052 1_556 S
O389 C385 1.241 . S
O390 Co378 2.137 . S
O390 C381 1.247 1_565 S
O391 Co378 2.244 . S
O391 C381 1.272 1_565 S
O391 Co383 2.135 . S
Co392 O393 2.216 1_554 S
Co392 O394 2.091 . S
Co392 O396 2.004 . S
Co392 O402 2.021 1_554 S
Co392 O404 2.137 . S
Co392 O405 2.244 . S
O393 Co392 2.216 1_556 S
O393 C400 1.247 . S
O394 Co392 2.091 . S
O394 C400 1.261 1_554 S
C395 O404 1.247 . S
C395 O405 1.272 . S
O396 Co392 2.004 . S
O396 C401 1.259 . S
Co397 O398 2.061 . S
Co397 O403 2.052 1_554 S
Co397 O405 2.135 . S
O398 Co397 2.061 . S
O398 C401 1.235 . S
C399 O402 1.238 . S
C399 O403 1.241 . S
C400 O393 1.247 . S
C400 O394 1.261 1_556 S
C401 O396 1.259 . S
C401 O398 1.235 . S
O402 Co392 2.021 1_556 S
O402 C399 1.238 . S
O403 Co397 2.052 1_556 S
O403 C399 1.241 . S
O404 Co392 2.137 . S
O404 C395 1.247 . S
O405 Co392 2.244 . S
O405 C395 1.272 . S
O405 Co397 2.135 . S
Co406 O407 2.216 1_554 S
Co406 O408 2.091 1_554 S
Co406 O410 2.004 . S
Co406 O416 2.021 1_554 S
Co406 O418 2.137 . S
Co406 O419 2.244 . S
O407 Co406 2.216 1_556 S
O407 C414 1.247 . S
O408 Co406 2.091 1_556 S
O408 C414 1.261 . S
C409 O418 1.247 . S
C409 O419 1.272 . S
O410 Co406 2.004 . S
O410 C415 1.259 . S
Co411 O412 2.061 . S
Co411 O417 2.052 1_554 S
Co411 O419 2.135 . S
O412 Co411 2.061 . S
O412 C415 1.235 . S
C413 O416 1.238 . S
C413 O417 1.241 . S
C414 O407 1.247 . S
C414 O408 1.261 . S
C415 O410 1.259 . S
C415 O412 1.235 . S
O416 Co406 2.021 1_556 S
O416 C413 1.238 . S
O417 Co411 2.052 1_556 S
O417 C413 1.241 . S
O418 Co406 2.137 . S
O418 C409 1.247 . S
O419 Co406 2.244 . S
O419 C409 1.272 . S
O419 Co411 2.135 . S
Co420 O421 2.216 . S
Co420 O422 2.091 . S
Co420 O424 2.004 . S
Co420 O430 2.021 . S
Co420 O432 2.137 . S
Co420 O433 2.244 . S
O421 Co420 2.216 . S
O421 C428 1.247 . S
O422 Co420 2.091 . S
O422 C428 1.261 . S
C423 O432 1.247 1_655 S
C423 O433 1.272 1_655 S
O424 Co420 2.004 . S
O424 C429 1.259 . S
Co425 O426 2.061 . S
Co425 O431 2.052 . S
Co425 O433 2.135 . S
O426 Co425 2.061 . S
O426 C429 1.235 . S
C427 O430 1.238 . S
C427 O431 1.241 . S
C428 O421 1.247 . S
C428 O422 1.261 . S
C429 O424 1.259 . S
C429 O426 1.235 . S
O430 Co420 2.021 . S
O430 C427 1.238 . S
O431 Co425 2.052 . S
O431 C427 1.241 . S
O432 Co420 2.137 . S
O432 C423 1.247 1_455 S
O433 Co420 2.244 . S
O433 C423 1.272 1_455 S
O433 Co425 2.135 . S
Co434 O435 2.216 . S
Co434 O436 2.091 . S
Co434 O438 2.004 . S
Co434 O444 2.021 . S
Co434 O446 2.137 . S
Co434 O447 2.244 . S
O435 Co434 2.216 . S
O435 C442 1.247 . S
O436 Co434 2.091 . S
O436 C442 1.261 . S
C437 O446 1.247 . S
C437 O447 1.272 . S
O438 Co434 2.004 . S
O438 C443 1.259 . S
Co439 O440 2.061 . S
Co439 O445 2.052 . S
Co439 O447 2.135 . S
O440 Co439 2.061 . S
O440 C443 1.235 . S
C441 O444 1.238 . S
C441 O445 1.241 . S
C442 O435 1.247 . S
C442 O436 1.261 . S
C443 O438 1.259 . S
C443 O440 1.235 . S
O444 Co434 2.021 . S
O444 C441 1.238 . S
O445 Co439 2.052 . S
O445 C441 1.241 . S
O446 Co434 2.137 . S
O446 C437 1.247 . S
O447 Co434 2.244 . S
O447 C437 1.272 . S
O447 Co439 2.135 . S
Co448 O449 2.216 . S
Co448 O450 2.091 . S
Co448 O452 2.004 . S
Co448 O458 2.021 . S
Co448 O460 2.137 . S
Co448 O461 2.244 . S
O449 Co448 2.216 . S
O449 C456 1.247 . S
O450 Co448 2.091 . S
O450 C456 1.261 . S
C451 O460 1.247 . S
C451 O461 1.272 . S
O452 Co448 2.004 . S
O452 C457 1.259 . S
Co453 O454 2.061 . S
Co453 O459 2.052 . S
Co453 O461 2.135 . S
O454 Co453 2.061 . S
O454 C457 1.235 . S
C455 O458 1.238 . S
C455 O459 1.241 . S
C456 O449 1.247 . S
C456 O450 1.261 . S
C457 O452 1.259 . S
C457 O454 1.235 . S
O458 Co448 2.021 . S
O458 C455 1.238 . S
O459 Co453 2.052 . S
O459 C455 1.241 . S
O460 Co448 2.137 . S
O460 C451 1.247 . S
O461 Co448 2.244 . S
O461 C451 1.272 . S
O461 Co453 2.135 . S
Co462 O463 2.216 . S
Co462 O464 2.091 . S
Co462 O466 2.004 . S
Co462 O472 2.021 . S
Co462 O474 2.137 . S
Co462 O475 2.244 . S
O463 Co462 2.216 . S
O463 C470 1.247 . S
O464 Co462 2.091 . S
O464 C470 1.261 . S
C465 O474 1.247 . S
C465 O475 1.272 . S
O466 Co462 2.004 . S
O466 C471 1.259 1_554 S
Co467 O468 2.061 . S
Co467 O473 2.052 . S
Co467 O475 2.135 . S
O468 Co467 2.061 . S
O468 C471 1.235 1_554 S
C469 O472 1.238 . S
C469 O473 1.241 . S
C470 O463 1.247 . S
C470 O464 1.261 . S
C471 O466 1.259 1_556 S
C471 O468 1.235 1_556 S
O472 Co462 2.021 . S
O472 C469 1.238 . S
O473 Co467 2.052 . S
O473 C469 1.241 . S
O474 Co462 2.137 . S
O474 C465 1.247 . S
O475 Co462 2.244 . S
O475 C465 1.272 . S
O475 Co467 2.135 . S
Co476 O477 2.216 . S
Co476 O478 2.091 . S
Co476 O480 2.004 . S
Co476 O486 2.021 . S
Co476 O488 2.137 . S
Co476 O489 2.244 . S
O477 Co476 2.216 . S
O477 C484 1.247 . S
O478 Co476 2.091 . S
O478 C484 1.261 . S
C479 O488 1.247 . S
C479 O489 1.272 . S
O480 Co476 2.004 . S
O480 C485 1.258 1_554 S
Co481 O482 2.061 . S
Co481 O487 2.052 . S
Co481 O489 2.135 . S
O482 Co481 2.061 . S
O482 C485 1.233 1_554 S
C483 O486 1.238 . S
C483 O487 1.241 . S
C484 O477 1.247 . S
C484 O478 1.261 . S
C485 O480 1.258 1_556 S
C485 O482 1.233 1_556 S
O486 Co476 2.021 . S
O486 C483 1.238 . S
O487 Co481 2.052 . S
O487 C483 1.241 . S
O488 Co476 2.137 . S
O488 C479 1.247 . S
O489 Co476 2.244 . S
O489 C479 1.272 . S
O489 Co481 2.135 . S
Co490 O491 2.216 . S
Co490 O492 2.091 . S
Co490 O494 2.004 . S
Co490 O500 2.021 . S
Co490 O502 2.137 . S
Co490 O503 2.244 . S
O491 Co490 2.216 . S
O491 C498 1.247 . S
O492 Co490 2.091 . S
O492 C498 1.261 . S
C493 O502 1.247 . S
C493 O503 1.272 . S
O494 Co490 2.004 . S
O494 C499 1.259 . S
Co495 O496 2.061 . S
Co495 O501 2.052 . S
Co495 O503 2.135 . S
O496 Co495 2.061 . S
O496 C499 1.235 . S
C497 O500 1.238 . S
C497 O501 1.241 . S
C498 O491 1.247 . S
C498 O492 1.261 . S
C499 O494 1.259 . S
C499 O496 1.235 . S
O500 Co490 2.021 . S
O500 C497 1.238 . S
O501 Co495 2.052 . S
O501 C497 1.241 . S
O502 Co490 2.137 . S
O502 C493 1.247 . S
O503 Co490 2.244 . S
O503 C493 1.272 . S
O503 Co495 2.135 . S
C78 C8 1.504 . S
C22 C50 1.481 . S
C64 C36 1.569 . S
C92 C162 1.505 . S
C106 C134 1.481 . S
C148 C120 1.569 . S
C246 C176 1.504 . S
C190 C218 1.504 . S
C232 C204 1.514 . S
C260 C330 1.521 . S
C274 C302 1.487 1_554 S
C288 C316 1.552 . S
C344 C414 1.521 . S
C386 C358 1.487 1_554 S
C372 C400 1.552 . S
C428 C498 1.504 . S
C442 C470 1.504 . S
C456 C484 1.514 . S
C147 C9 1.195 . S
C161 C23 2.559 1_556 S
C133 C37 1.265 . S
C119 C51 1.177 . S
C65 C91 1.277 . S
C79 C105 2.571 . S
C93 C63 1.195 . S
C107 C77 2.559 1_556 S
C121 C49 1.265 . S
C35 C135 1.177 . S
C7 C149 1.277 . S
C163 C21 2.571 . S
C177 C315 1.195 . S
C191 C329 2.666 . S
C301 C205 1.250 . S
C219 C287 1.188 . S
C233 C259 1.251 . S
C247 C273 2.568 . S
C261 C231 1.210 . S
C245 C275 2.556 . S
C217 C289 1.287 . S
C303 C203 1.185 . S
C175 C317 1.265 . S
C189 C331 2.515 . S
C483 C345 1.210 . S
C359 C497 2.556 . S
C373 C469 1.287 . S
C455 C387 1.185 . S
C427 C401 1.265 . S
C441 C415 2.515 . S
C429 C399 1.195 . S
C413 C443 2.666 . S
C457 C385 1.250 . S
C371 C471 1.188 . S
C343 C485 1.252 . S
C357 C499 2.568 . S
C227 C3 1.608 . S
C17 C241 3.724 1_554 S
C213 C31 1.625 . S
C367 C45 1.613 . S
C59 C339 1.605 . S
C73 C353 3.726 . S
C87 C479 1.608 . S
C493 C101 3.724 1_554 S
C465 C115 1.625 . S
C283 C129 1.613 . S
C143 C255 1.605 . S
C157 C269 3.726 . S
C171 C395 1.621 . S
C409 C185 3.687 . S
C381 C199 1.609 . S
C297 C451 1.609 . S
C423 C311 1.621 . S
C437 C325 3.687 . S
