# Generated by pormake.
# Topology uop, (4)-cn, num edge types: 1
# Building blocks:
#     Node 0, Type 0, BuildingBlock: QUQFOY_clean_sbu_1, # of connection points: 4
#     Node 1, Type 0, BuildingBlock: QUQFOY_clean_sbu_1, # of connection points: 4
#     Node 2, Type 0, BuildingBlock: QUQFOY_clean_sbu_1, # of connection points: 4
#     Node 3, Type 0, BuildingBlock: QUQFOY_clean_sbu_1, # of connection points: 4
#     Node 4, Type 0, BuildingBlock: QUQFOY_clean_sbu_1, # of connection points: 4
#     Node 5, Type 0, BuildingBlock: QUQFOY_clean_sbu_1, # of connection points: 4
#     Node 6, Type 0, BuildingBlock: QUQFOY_clean_sbu_1, # of connection points: 4
#     Node 7, Type 0, BuildingBlock: QUQFOY_clean_sbu_1, # of connection points: 4
#     Node 8, Type 0, BuildingBlock: QUQFOY_clean_sbu_1, # of connection points: 4
#     Node 9, Type 0, BuildingBlock: QUQFOY_clean_sbu_1, # of connection points: 4
#     Node 10, Type 0, BuildingBlock: QUQFOY_clean_sbu_1, # of connection points: 4
#     Node 11, Type 0, BuildingBlock: QUQFOY_clean_sbu_1, # of connection points: 4
#     Edge 12, Type (0, 0), BuildingBlock: TEMPAE_clean_linker_10, # of connection points: 2
#     Edge 13, Type (0, 0), BuildingBlock: TEMPAE_clean_linker_10, # of connection points: 2
#     Edge 14, Type (0, 0), BuildingBlock: TEMPAE_clean_linker_10, # of connection points: 2
#     Edge 15, Type (0, 0), BuildingBlock: TEMPAE_clean_linker_10, # of connection points: 2
#     Edge 16, Type (0, 0), BuildingBlock: TEMPAE_clean_linker_10, # of connection points: 2
#     Edge 17, Type (0, 0), BuildingBlock: TEMPAE_clean_linker_10, # of connection points: 2
#     Edge 18, Type (0, 0), BuildingBlock: TEMPAE_clean_linker_10, # of connection points: 2
#     Edge 19, Type (0, 0), BuildingBlock: TEMPAE_clean_linker_10, # of connection points: 2
#     Edge 20, Type (0, 0), BuildingBlock: TEMPAE_clean_linker_10, # of connection points: 2
#     Edge 21, Type (0, 0), BuildingBlock: TEMPAE_clean_linker_10, # of connection points: 2
#     Edge 22, Type (0, 0), BuildingBlock: TEMPAE_clean_linker_10, # of connection points: 2
#     Edge 23, Type (0, 0), BuildingBlock: TEMPAE_clean_linker_10, # of connection points: 2
#     Edge 24, Type (0, 0), BuildingBlock: TEMPAE_clean_linker_10, # of connection points: 2
#     Edge 25, Type (0, 0), BuildingBlock: TEMPAE_clean_linker_10, # of connection points: 2
#     Edge 26, Type (0, 0), BuildingBlock: TEMPAE_clean_linker_10, # of connection points: 2
#     Edge 27, Type (0, 0), BuildingBlock: TEMPAE_clean_linker_10, # of connection points: 2
#     Edge 28, Type (0, 0), BuildingBlock: TEMPAE_clean_linker_10, # of connection points: 2
#     Edge 29, Type (0, 0), BuildingBlock: TEMPAE_clean_linker_10, # of connection points: 2
#     Edge 30, Type (0, 0), BuildingBlock: TEMPAE_clean_linker_10, # of connection points: 2
#     Edge 31, Type (0, 0), BuildingBlock: TEMPAE_clean_linker_10, # of connection points: 2
#     Edge 32, Type (0, 0), BuildingBlock: TEMPAE_clean_linker_10, # of connection points: 2
#     Edge 33, Type (0, 0), BuildingBlock: TEMPAE_clean_linker_10, # of connection points: 2
#     Edge 34, Type (0, 0), BuildingBlock: TEMPAE_clean_linker_10, # of connection points: 2
#     Edge 35, Type (0, 0), BuildingBlock: TEMPAE_clean_linker_10, # of connection points: 2
# Relax obj value: 0.098
# Max RMSD: 0.122
# Mean RMSD: 0.122
data_MOF--net-uop--node1-QUQFOY_clean_sbu_1--edge1-TEMPAE_clean_linker_10
_symmetry_space_group_name_H-M    P1
_symmetry_Int_Tables_number       1
_symmetry_cell_setting            triclinic
loop_
_symmetry_equiv_pos_as_xyz
'x, y, z'
_cell_length_a     33.187359
_cell_length_b     33.246817
_cell_length_c     53.200429
_cell_angle_alpha  90.024753
_cell_angle_beta   90.045421
_cell_angle_gamma 119.826
loop_
_atom_site_label
_atom_site_type_symbol
_atom_site_fract_x
_atom_site_fract_y
_atom_site_fract_z
_atom_type_partial_charge
O0 O 0.20758 0.43842 0.22118 0.0
Cd1 Cd 0.22297 0.38556 0.22341 0.0
Cd2 Cd 0.25701 0.42789 0.26676 0.0
O3 O 0.22099 0.46335 0.26039 0.0
O4 O 0.18185 0.34232 0.19705 0.0
O5 O 0.17477 0.32408 0.23747 0.0
C6 C 0.15906 0.31347 0.21478 0.0
C7 C 0.25832 0.38609 0.3021 0.0
C8 C 0.20692 0.46479 0.23827 0.0
C9 C 0.32411 0.43687 0.22652 0.0
O10 O 0.31683 0.45387 0.24623 0.0
O11 O 0.29059 0.40304 0.21526 0.0
O12 O 0.27692 0.43068 0.3027 0.0
O13 O 0.23518 0.36484 0.28214 0.0
O14 O 0.7864 0.23033 0.54924 0.0
Cd15 Cd 0.85054 0.2363 0.55417 0.0
Cd16 Cd 0.83627 0.25831 0.59879 0.0
O17 O 0.76561 0.22395 0.58901 0.0
O18 O 0.8537 0.19587 0.52769 0.0
O19 O 0.85525 0.18314 0.56853 0.0
C20 C 0.85381 0.16972 0.54559 0.0
C21 C 0.87491 0.25398 0.63483 0.0
C22 C 0.75568 0.22237 0.56572 0.0
C23 C 0.90309 0.33374 0.56429 0.0
O24 O 0.87433 0.32233 0.58232 0.0
O25 O 0.90493 0.30268 0.55125 0.0
O26 O 0.84815 0.27187 0.63572 0.0
O27 O 0.87546 0.23381 0.61414 0.0
O28 O 0.56045 0.77214 0.8901 0.0
Cd29 Cd 0.61262 0.83865 0.89763 0.0
Cd30 Cd 0.56866 0.82054 0.94092 0.0
O31 O 0.53641 0.75142 0.92918 0.0
O32 O 0.66532 0.8521 0.87459 0.0
O33 O 0.66681 0.8421 0.91574 0.0
C34 C 0.68633 0.84801 0.89403 0.0
C35 C 0.61059 0.85916 0.97715 0.0
C36 C 0.53503 0.74119 0.90592 0.0
C37 C 0.56036 0.88677 0.90695 0.0
O38 O 0.54147 0.85685 0.92423 0.0
O39 O 0.59549 0.89045 0.89528 0.0
O40 O 0.56625 0.83106 0.97806 0.0
O41 O 0.63158 0.86115 0.95635 0.0
O42 O 0.77466 0.5432 0.22893 0.0
Cd43 Cd 0.75885 0.59566 0.23064 0.0
Cd44 Cd 0.72626 0.55551 0.27512 0.0
O45 O 0.76001 0.51786 0.26804 0.0
O46 O 0.79795 0.63705 0.2032 0.0
O47 O 0.80759 0.65839 0.24318 0.0
C48 C 0.82171 0.66738 0.22017 0.0
C49 C 0.72867 0.59903 0.31046 0.0
C50 C 0.77447 0.51646 0.24602 0.0
C51 C 0.65734 0.54627 0.23565 0.0
O52 O 0.66506 0.53118 0.25595 0.0
O53 O 0.69089 0.57719 0.22295 0.0
O54 O 0.70899 0.55436 0.31138 0.0
O55 O 0.75106 0.61929 0.29018 0.0
O56 O 0.22677 0.78944 0.55814 0.0
Cd57 Cd 0.15804 0.77254 0.55966 0.0
Cd58 Cd 0.16757 0.74133 0.60359 0.0
O59 O 0.23896 0.77917 0.59779 0.0
O60 O 0.15526 0.81001 0.53144 0.0
O61 O 0.14349 0.82163 0.57108 0.0
C62 C 0.14882 0.83474 0.54787 0.0
C63 C 0.12222 0.73919 0.63799 0.0
C64 C 0.25422 0.79215 0.57556 0.0
C65 C 0.11229 0.67204 0.56384 0.0
O66 O 0.13689 0.68094 0.58354 0.0
O67 O 0.10983 0.7042 0.55229 0.0
O68 O 0.14975 0.72225 0.63948 0.0
O69 O 0.12378 0.76133 0.61768 0.0
O70 O 0.45042 0.22208 0.89205 0.0
Cd71 Cd 0.39277 0.15757 0.89623 0.0
Cd72 Cd 0.42767 0.17148 0.94096 0.0
O73 O 0.46177 0.24222 0.93201 0.0
O74 O 0.35108 0.15414 0.86851 0.0
O75 O 0.33329 0.15204 0.90885 0.0
C76 C 0.32313 0.15356 0.88554 0.0
C77 C 0.38381 0.13109 0.97632 0.0
C78 C 0.47124 0.25266 0.90887 0.0
C79 C 0.44002 0.10707 0.90649 0.0
O80 O 0.45683 0.1361 0.92441 0.0
O81 O 0.40611 0.10378 0.89375 0.0
O82 O 0.42812 0.15881 0.97785 0.0
O83 O 0.36371 0.1302 0.95531 0.0
O84 O 0.55522 0.78786 0.51876 0.0
Cd85 Cd 0.60705 0.77099 0.51603 0.0
Cd86 Cd 0.56448 0.73956 0.47272 0.0
O87 O 0.53135 0.7777 0.47937 0.0
O88 O 0.65019 0.80985 0.543 0.0
O89 O 0.66917 0.81918 0.50267 0.0
C90 C 0.67949 0.83349 0.5256 0.0
C91 C 0.60628 0.73697 0.43775 0.0
C92 C 0.52986 0.79065 0.50174 0.0
C93 C 0.55277 0.67049 0.51202 0.0
O94 O 0.53582 0.67928 0.4928 0.0
O95 O 0.58789 0.70277 0.52316 0.0
O96 O 0.56185 0.72029 0.43672 0.0
O97 O 0.62757 0.75918 0.45792 0.0
O98 O 0.78646 0.55929 0.85581 0.0
Cd99 Cd 0.84949 0.61508 0.84621 0.0
Cd100 Cd 0.8283 0.57119 0.80374 0.0
O101 O 0.75975 0.54009 0.81711 0.0
O102 O 0.86189 0.66823 0.86866 0.0
O103 O 0.84516 0.66512 0.82806 0.0
C104 C 0.85294 0.68617 0.84942 0.0
C105 C 0.86523 0.61234 0.76706 0.0
C106 C 0.75304 0.5353 0.84085 0.0
C107 C 0.89947 0.56656 0.83525 0.0
O108 O 0.86638 0.54496 0.81979 0.0
O109 O 0.90462 0.60297 0.84603 0.0
O110 O 0.83678 0.56811 0.76638 0.0
O111 O 0.86836 0.63365 0.7879 0.0
O112 O 0.20551 0.76899 0.18487 0.0
Cd113 Cd 0.22056 0.83709 0.18354 0.0
Cd114 Cd 0.25417 0.82956 0.13976 0.0
O115 O 0.21801 0.75817 0.14537 0.0
O116 O 0.1814 0.8382 0.21138 0.0
O117 O 0.17052 0.85011 0.17165 0.0
C118 C 0.15662 0.84413 0.19473 0.0
C119 C 0.2559 0.87367 0.10479 0.0
C120 C 0.20446 0.74233 0.16746 0.0
C121 C 0.32148 0.88536 0.18045 0.0
O122 O 0.31393 0.86167 0.1605 0.0
O123 O 0.28828 0.88633 0.19178 0.0
O124 O 0.27441 0.84748 0.10399 0.0
O125 O 0.23268 0.87157 0.12476 0.0
O126 O 0.44468 0.22884 0.5187 0.0
Cd127 Cd 0.38708 0.2357 0.51342 0.0
Cd128 Cd 0.42607 0.26103 0.46937 0.0
O129 O 0.46248 0.2266 0.47903 0.0
O130 O 0.34376 0.1957 0.54 0.0
O131 O 0.32862 0.18285 0.49926 0.0
C132 C 0.31696 0.16969 0.52225 0.0
C133 C 0.38445 0.25762 0.43293 0.0
C134 C 0.46898 0.22275 0.50234 0.0
C135 C 0.43217 0.33407 0.50504 0.0
O136 O 0.45042 0.32415 0.48681 0.0
O137 O 0.39917 0.302 0.51746 0.0
O138 O 0.42911 0.27594 0.43258 0.0
O139 O 0.36303 0.23667 0.45329 0.0
O140 O 0.23635 0.44523 0.8429 0.0
Cd141 Cd 0.16772 0.39396 0.84082 0.0
Cd142 Cd 0.17873 0.43199 0.7959 0.0
O143 O 0.24989 0.46641 0.8031 0.0
O144 O 0.16336 0.35408 0.86961 0.0
O145 O 0.15371 0.33027 0.83006 0.0
C146 C 0.15779 0.32275 0.8535 0.0
C147 C 0.13526 0.38644 0.76167 0.0
C148 C 0.26434 0.46929 0.82561 0.0
C149 C 0.12053 0.44752 0.8332 0.0
O150 O 0.14563 0.46183 0.81364 0.0
O151 O 0.11908 0.41467 0.84613 0.0
O152 O 0.16256 0.43065 0.75944 0.0
O153 O 0.13633 0.36742 0.78269 0.0
O154 O 0.77425 0.21253 0.1895 0.0
Cd155 Cd 0.75915 0.14473 0.18659 0.0
Cd156 Cd 0.73165 0.15574 0.14166 0.0
O157 O 0.76583 0.22654 0.14986 0.0
O158 O 0.79785 0.14025 0.2137 0.0
O159 O 0.80884 0.13275 0.1733 0.0
C160 C 0.82261 0.1361 0.19632 0.0
C161 C 0.73502 0.11521 0.10632 0.0
C162 C 0.77702 0.24055 0.17247 0.0
C163 C 0.6587 0.09463 0.17882 0.0
O164 O 0.66889 0.11949 0.15919 0.0
O165 O 0.69062 0.09495 0.19221 0.0
O166 O 0.71664 0.14148 0.10505 0.0
O167 O 0.75595 0.11593 0.12699 0.0
C168 C 0.21923 0.67563 0.16461 0.0
C169 C 0.19334 0.69475 0.17449 0.0
C170 C 0.21665 0.63568 0.1753 0.0
C171 C 0.18656 0.61368 0.19595 0.0
C172 C 0.15797 0.63109 0.2048 0.0
C173 C 0.16222 0.67176 0.19423 0.0
C174 C 0.2482 0.61867 0.16547 0.0
C175 C 0.12432 0.60795 0.22616 0.0
C176 C 0.16414 0.49229 0.21104 0.0
C177 C 0.19539 0.50089 0.23085 0.0
C178 C 0.15914 0.52821 0.20033 0.0
C179 C 0.18709 0.57419 0.20912 0.0
C180 C 0.2174 0.58278 0.22979 0.0
C181 C 0.22074 0.5459 0.24062 0.0
C182 C 0.12528 0.51719 0.17896 0.0
C183 C 0.24829 0.63134 0.23955 0.0
H184 H 0.24383 0.69365 0.14963 0.0
H185 H 0.14213 0.68646 0.20194 0.0
H186 H 0.27315 0.62212 0.18038 0.0
H187 H 0.22771 0.5814 0.16047 0.0
H188 H 0.26812 0.63833 0.14867 0.0
H189 H 0.10069 0.6223 0.22875 0.0
H190 H 0.10309 0.57007 0.2228 0.0
H191 H 0.14384 0.61287 0.2439 0.0
H192 H 0.14444 0.4575 0.20343 0.0
H193 H 0.24542 0.55286 0.25566 0.0
H194 H 0.14461 0.53203 0.16123 0.0
H195 H 0.10331 0.53317 0.18235 0.0
H196 H 0.10235 0.47926 0.17632 0.0
H197 H 0.27277 0.65295 0.22457 0.0
H198 H 0.26871 0.63204 0.25627 0.0
H199 H 0.22719 0.64754 0.24465 0.0
C200 C 0.66833 0.18589 0.56784 0.0
C201 C 0.71101 0.21759 0.55707 0.0
C202 C 0.62641 0.18127 0.55844 0.0
C203 C 0.62757 0.21027 0.53851 0.0
C204 C 0.6708 0.24263 0.52789 0.0
C205 C 0.7117 0.24529 0.537 0.0
C206 C 0.58093 0.14547 0.5698 0.0
C207 C 0.67414 0.2756 0.50738 0.0
C208 C 0.52261 0.18939 0.49888 0.0
C209 C 0.50832 0.21727 0.51135 0.0
C210 C 0.5599 0.18469 0.50824 0.0
C211 C 0.58441 0.20987 0.52997 0.0
C212 C 0.57005 0.23821 0.54244 0.0
C213 C 0.53188 0.24091 0.53324 0.0
C214 C 0.57332 0.15311 0.49482 0.0
C215 C 0.59611 0.26721 0.56499 0.0
H216 H 0.66767 0.16414 0.58319 0.0
H217 H 0.74471 0.27016 0.52874 0.0
H218 H 0.56414 0.16285 0.57947 0.0
H219 H 0.55686 0.12335 0.55477 0.0
H220 H 0.58554 0.12296 0.58357 0.0
H221 H 0.71048 0.2987 0.50113 0.0
H222 H 0.65317 0.25594 0.49088 0.0
H223 H 0.6598 0.29747 0.51422 0.0
H224 H 0.50426 0.17078 0.48209 0.0
H225 H 0.52129 0.26292 0.54285 0.0
H226 H 0.57571 0.1291 0.50844 0.0
H227 H 0.60807 0.17391 0.48613 0.0
H228 H 0.54806 0.1324 0.47986 0.0
H229 H 0.59738 0.24486 0.58006 0.0
H230 H 0.58006 0.28698 0.57273 0.0
H231 H 0.6325 0.29215 0.55964 0.0
C232 C 0.51087 0.67637 0.87517 0.0
C233 C 0.50033 0.69492 0.89621 0.0
C234 C 0.47634 0.63662 0.86289 0.0
C235 C 0.42977 0.61586 0.87128 0.0
C236 C 0.41924 0.63362 0.89303 0.0
C237 C 0.45481 0.67252 0.90545 0.0
C238 C 0.48947 0.61785 0.84042 0.0
C239 C 0.36996 0.61313 0.90238 0.0
C240 C 0.33034 0.55073 0.82489 0.0
C241 C 0.31185 0.50492 0.83315 0.0
C242 C 0.36958 0.58712 0.83667 0.0
C243 C 0.39161 0.5772 0.85668 0.0
C244 C 0.37504 0.5305 0.86373 0.0
C245 C 0.33487 0.49505 0.85222 0.0
C246 C 0.38549 0.63642 0.82884 0.0
C247 C 0.39839 0.51811 0.88425 0.0
H248 H 0.54609 0.69363 0.86796 0.0
H249 H 0.4464 0.68716 0.92147 0.0
H250 H 0.47463 0.57981 0.8422 0.0
H251 H 0.47485 0.62413 0.82309 0.0
H252 H 0.52772 0.63433 0.83817 0.0
H253 H 0.36767 0.63024 0.91984 0.0
H254 H 0.3482 0.61673 0.88769 0.0
H255 H 0.35499 0.57557 0.90613 0.0
H256 H 0.31212 0.55855 0.8105 0.0
H257 H 0.32049 0.45961 0.85871 0.0
H258 H 0.42306 0.65476 0.8243 0.0
H259 H 0.38053 0.65529 0.84466 0.0
H260 H 0.36609 0.63822 0.81225 0.0
H261 H 0.43655 0.53647 0.88137 0.0
H262 H 0.3854 0.48022 0.88504 0.0
H263 H 0.39183 0.52929 0.90271 0.0
C264 C 0.75891 0.4347 0.24755 0.0
C265 C 0.78571 0.48015 0.23865 0.0
C266 C 0.76207 0.39792 0.23644 0.0
C267 C 0.79365 0.40701 0.21638 0.0
C268 C 0.82299 0.45332 0.20852 0.0
C269 C 0.81816 0.48918 0.21948 0.0
C270 C 0.72972 0.34901 0.2452 0.0
C271 C 0.85818 0.46484 0.18784 0.0
C272 C 0.81757 0.30901 0.20089 0.0
C273 C 0.78792 0.28769 0.18034 0.0
C274 C 0.82159 0.34919 0.21203 0.0
C275 C 0.79424 0.36782 0.20287 0.0
C276 C 0.7656 0.34749 0.18147 0.0
C277 C 0.76324 0.30798 0.17026 0.0
C278 C 0.85369 0.37055 0.23423 0.0
C279 C 0.73541 0.36585 0.17128 0.0
H280 H 0.73328 0.42745 0.26207 0.0
H281 H 0.83895 0.52431 0.21252 0.0
H282 H 0.70604 0.32863 0.22962 0.0
H283 H 0.74977 0.33176 0.25046 0.0
H284 H 0.70842 0.34787 0.26157 0.0
H285 H 0.88188 0.5028 0.18594 0.0
H286 H 0.87928 0.44799 0.19147 0.0
H287 H 0.83998 0.45126 0.16967 0.0
H288 H 0.83672 0.2934 0.20876 0.0
H289 H 0.73976 0.29124 0.15463 0.0
H290 H 0.83294 0.3651 0.25152 0.0
H291 H 0.87585 0.40852 0.23158 0.0
H292 H 0.87646 0.35528 0.23718 0.0
H293 H 0.70966 0.36209 0.18573 0.0
H294 H 0.71645 0.34733 0.15399 0.0
H295 H 0.75678 0.40333 0.16696 0.0
C296 C 0.50389 0.83393 0.52952 0.0
C297 C 0.49447 0.80296 0.5095 0.0
C298 C 0.46842 0.83917 0.54072 0.0
C299 C 0.42209 0.81169 0.53223 0.0
C300 C 0.41272 0.78176 0.51132 0.0
C301 C 0.44916 0.77823 0.49999 0.0
C302 C 0.48028 0.87267 0.56232 0.0
C303 C 0.36375 0.75132 0.50188 0.0
C304 C 0.32168 0.77846 0.57774 0.0
C305 C 0.30205 0.80424 0.56837 0.0
C306 C 0.36158 0.78153 0.56659 0.0
C307 C 0.38303 0.81203 0.54604 0.0
C308 C 0.36522 0.84062 0.53779 0.0
C309 C 0.32455 0.83583 0.54877 0.0
C310 C 0.37897 0.74992 0.57577 0.0
C311 C 0.38783 0.87474 0.51658 0.0
H312 H 0.53893 0.8531 0.53694 0.0
H313 H 0.4416 0.75374 0.48479 0.0
H314 H 0.46406 0.89457 0.55953 0.0
H315 H 0.46624 0.85311 0.58006 0.0
H316 H 0.51838 0.89559 0.56454 0.0
H317 H 0.36245 0.73126 0.48489 0.0
H318 H 0.34247 0.72661 0.51684 0.0
H319 H 0.34753 0.77263 0.49732 0.0
H320 H 0.30398 0.75347 0.59259 0.0
H321 H 0.30939 0.85577 0.54145 0.0
H322 H 0.41645 0.77032 0.58046 0.0
H323 H 0.37506 0.72528 0.56061 0.0
H324 H 0.35982 0.72974 0.59261 0.0
H325 H 0.4259 0.8957 0.51961 0.0
H326 H 0.37355 0.89854 0.51465 0.0
H327 H 0.38217 0.85571 0.49862 0.0
C328 C 0.54434 0.29657 0.88502 0.0
C329 C 0.51117 0.2974 0.90096 0.0
C330 C 0.5817 0.33757 0.87565 0.0
C331 C 0.58536 0.38075 0.88168 0.0
C332 C 0.55159 0.38185 0.89761 0.0
C333 C 0.51514 0.34007 0.90742 0.0
C334 C 0.61755 0.33458 0.85949 0.0
C335 C 0.55361 0.42706 0.90394 0.0
C336 C 0.70743 0.48367 0.87639 0.0
C337 C 0.70822 0.49889 0.85165 0.0
C338 C 0.66723 0.44651 0.88669 0.0
C339 C 0.62606 0.42441 0.87219 0.0
C340 C 0.62581 0.44106 0.84765 0.0
C341 C 0.66708 0.47768 0.83751 0.0
C342 C 0.66971 0.42922 0.91259 0.0
C343 C 0.58231 0.41921 0.83181 0.0
H344 H 0.54122 0.26349 0.88004 0.0
H345 H 0.48907 0.34061 0.91945 0.0
H346 H 0.61884 0.34943 0.84066 0.0
H347 H 0.6525 0.35524 0.86807 0.0
H348 H 0.61016 0.29834 0.85706 0.0
H349 H 0.52392 0.42197 0.91581 0.0
H350 H 0.58639 0.45027 0.91401 0.0
H351 H 0.55355 0.44504 0.88638 0.0
H352 H 0.739 0.49954 0.88751 0.0
H353 H 0.66722 0.48939 0.81849 0.0
H354 H 0.66504 0.39385 0.91111 0.0
H355 H 0.64133 0.42679 0.92462 0.0
H356 H 0.7034 0.45199 0.92206 0.0
H357 H 0.5743 0.38401 0.82588 0.0
H358 H 0.58595 0.43991 0.8147 0.0
H359 H 0.5523 0.41534 0.84292 0.0
C360 C 0.59793 0.54199 0.20479 0.0
C361 C 0.60874 0.52795 0.22746 0.0
C362 C 0.55152 0.52643 0.19805 0.0
C363 C 0.51552 0.49684 0.21459 0.0
C364 C 0.52624 0.48095 0.2369 0.0
C365 C 0.57262 0.49652 0.24298 0.0
C366 C 0.54126 0.54334 0.17387 0.0
C367 C 0.4889 0.4495 0.25518 0.0
C368 C 0.406 0.50026 0.22602 0.0
C369 C 0.37241 0.45594 0.21793 0.0
C370 C 0.45327 0.51616 0.2226 0.0
C371 C 0.46721 0.48692 0.21082 0.0
C372 C 0.43343 0.4442 0.20023 0.0
C373 C 0.3861 0.42906 0.20393 0.0
C374 C 0.48813 0.56219 0.23398 0.0
C375 C 0.44717 0.4127 0.18699 0.0
H376 H 0.62568 0.56584 0.19253 0.0
H377 H 0.58051 0.48505 0.26041 0.0
H378 H 0.51011 0.51522 0.16445 0.0
H379 H 0.53399 0.5718 0.17807 0.0
H380 H 0.57108 0.55682 0.16066 0.0
H381 H 0.50293 0.43803 0.27086 0.0
H382 H 0.47184 0.468 0.2633 0.0
H383 H 0.46178 0.41832 0.24534 0.0
H384 H 0.39544 0.52168 0.23627 0.0
H385 H 0.36014 0.39503 0.19734 0.0
H386 H 0.5169 0.58246 0.22067 0.0
H387 H 0.50344 0.55605 0.2511 0.0
H388 H 0.47203 0.58333 0.23933 0.0
H389 H 0.47816 0.43295 0.17499 0.0
H390 H 0.41842 0.38654 0.17518 0.0
H391 H 0.45627 0.39406 0.20118 0.0
C392 C 0.04489 0.60749 0.54129 0.0
C393 C 0.08583 0.62356 0.55529 0.0
C394 C 0.01576 0.5598 0.53716 0.0
C395 C 0.02829 0.52809 0.54722 0.0
C396 C 0.07174 0.54465 0.5592 0.0
C397 C 0.09993 0.59223 0.56314 0.0
C398 C 0.9699 0.54327 0.52398 0.0
C399 C 0.08658 0.51203 0.57006 0.0
C400 C 0.93595 0.41654 0.57586 0.0
C401 C 0.93384 0.38338 0.55882 0.0
C402 C 0.96531 0.46383 0.57167 0.0
C403 C 0.99311 0.47845 0.54977 0.0
C404 C 0.99016 0.44539 0.53201 0.0
C405 C 0.96066 0.398 0.53684 0.0
C406 C 0.96779 0.49802 0.59123 0.0
C407 C 0.01901 0.45998 0.50835 0.0
H408 H 0.0342 0.63175 0.53496 0.0
H409 H 0.1322 0.60472 0.57345 0.0
H410 H 0.96209 0.51389 0.5112 0.0
H411 H 0.94172 0.53073 0.53816 0.0
H412 H 0.96948 0.57147 0.51299 0.0
H413 H 0.12387 0.53038 0.57545 0.0
H414 H 0.06564 0.49509 0.58708 0.0
H415 H 0.08037 0.48429 0.55643 0.0
H416 H 0.91528 0.40557 0.59287 0.0
H417 H 0.95877 0.3725 0.52348 0.0
H418 H 0.96148 0.5246 0.5824 0.0
H419 H 0.00304 0.51629 0.59968 0.0
H420 H 0.9421 0.48099 0.60657 0.0
H421 H 0.01663 0.48847 0.49889 0.0
H422 H 0.00802 0.43075 0.49492 0.0
H423 H 0.05604 0.47337 0.5132 0.0
C424 C 0.44056 0.04212 0.88278 0.0
C425 C 0.46026 0.07729 0.90095 0.0
C426 C 0.45794 0.01176 0.87901 0.0
C427 C 0.49558 0.01678 0.89386 0.0
C428 C 0.51712 0.05376 0.91121 0.0
C429 C 0.49923 0.08357 0.91452 0.0
C430 C 0.4345 0.97291 0.86016 0.0
C431 C 0.55729 0.06019 0.92748 0.0
C432 C 0.50295 0.91258 0.91485 0.0
C433 C 0.54149 0.9177 0.9013 0.0
C434 C 0.48626 0.94335 0.91156 0.0
C435 C 0.50841 0.98006 0.89415 0.0
C436 C 0.54576 0.98414 0.87941 0.0
C437 C 0.56207 0.9529 0.88324 0.0
C438 C 0.44645 0.93795 0.92776 0.0
C439 C 0.56973 0.02264 0.86046 0.0
H440 H 0.41076 0.03741 0.87202 0.0
H441 H 0.51513 0.11107 0.92834 0.0
H442 H 0.46069 0.96976 0.84867 0.0
H443 H 0.41374 0.9396 0.87023 0.0
H444 H 0.41095 0.97813 0.84742 0.0
H445 H 0.57289 0.09319 0.93825 0.0
H446 H 0.54506 0.03106 0.94102 0.0
H447 H 0.58475 0.05979 0.9158 0.0
H448 H 0.48645 0.88521 0.92865 0.0
H449 H 0.59159 0.95676 0.87252 0.0
H450 H 0.41882 0.93779 0.91595 0.0
H451 H 0.45896 0.96782 0.94085 0.0
H452 H 0.43092 0.90556 0.93904 0.0
H453 H 0.54384 0.02583 0.8487 0.0
H454 H 0.5933 0.01699 0.84798 0.0
H455 H 0.59053 0.05609 0.87044 0.0
C456 C 0.48651 0.5902 0.51283 0.0
C457 C 0.53206 0.62192 0.5202 0.0
C458 C 0.4685 0.54258 0.51587 0.0
C459 C 0.49688 0.52642 0.52648 0.0
C460 C 0.54122 0.55839 0.53623 0.0
C461 C 0.5584 0.6061 0.53299 0.0
C462 C 0.42088 0.50967 0.50539 0.0
C463 C 0.57208 0.54227 0.54803 0.0
C464 C 0.43815 0.39595 0.53429 0.0
C465 C 0.45004 0.38319 0.51154 0.0
C466 C 0.45504 0.44284 0.54018 0.0
C467 C 0.4837 0.47729 0.52269 0.0
C468 C 0.49655 0.46454 0.49997 0.0
C469 C 0.47973 0.4177 0.49475 0.0
C470 C 0.44125 0.45539 0.56472 0.0
C471 C 0.52671 0.50027 0.48067 0.0
H472 H 0.46562 0.60247 0.50347 0.0
H473 H 0.59347 0.63065 0.53894 0.0
H474 H 0.4246 0.49408 0.4877 0.0
H475 H 0.40064 0.48096 0.51872 0.0
H476 H 0.40083 0.52747 0.5012 0.0
H477 H 0.60061 0.57024 0.55916 0.0
H478 H 0.55174 0.51192 0.5604 0.0
H479 H 0.58781 0.53134 0.53302 0.0
H480 H 0.41561 0.36938 0.54746 0.0
H481 H 0.48913 0.40812 0.47715 0.0
H482 H 0.41652 0.468 0.56102 0.0
H483 H 0.47205 0.48389 0.57418 0.0
H484 H 0.42447 0.42533 0.57771 0.0
H485 H 0.5086 0.51835 0.47338 0.0
H486 H 0.5352 0.48464 0.46451 0.0
H487 H 0.55966 0.52682 0.48941 0.0
C488 C 0.92791 0.51172 0.82594 0.0
C489 C 0.93175 0.549 0.84016 0.0
C490 C 0.95919 0.49557 0.82914 0.0
C491 C 0.9951 0.51699 0.84716 0.0
C492 C -0.00189 0.5533 0.86239 0.0
C493 C 0.96645 0.56915 0.8586 0.0
C494 C 0.95504 0.45697 0.81235 0.0
C495 C 0.03571 0.57647 0.88198 0.0
C496 C 0.05663 0.44849 0.85789 0.0
C497 C 0.09222 0.46883 0.84 0.0
C498 C 0.0264 0.46599 0.86194 0.0
C499 C 0.03208 0.50445 0.84771 0.0
C500 C 0.0699 0.52696 0.83096 0.0
C501 C 0.09951 0.50892 0.82735 0.0
C502 C 0.98673 0.44157 0.88022 0.0
C503 C 0.07716 0.56809 0.8154 0.0
H504 H 0.90106 0.49574 0.81174 0.0
H505 H 0.96928 0.59765 0.86984 0.0
H506 H 0.98583 0.47036 0.79987 0.0
H507 H 0.95421 0.42871 0.82382 0.0
H508 H 0.92337 0.4421 0.80042 0.0
H509 H 0.02939 0.59944 0.89456 0.0
H510 H 0.03831 0.55012 0.89357 0.0
H511 H 0.06972 0.59764 0.87258 0.0
H512 H 0.05115 0.4178 0.86792 0.0
H513 H 0.12751 0.52543 0.81384 0.0
H514 H 0.9539 0.42085 0.86963 0.0
H515 H 0.98263 0.46703 0.89182 0.0
H516 H 0.9918 0.41785 0.89286 0.0
H517 H 0.04893 0.55664 0.80127 0.0
H518 H 0.11094 0.58456 0.80533 0.0
H519 H 0.07572 0.59458 0.82744 0.0
C520 C 0.40158 0.89837 0.18264 0.0
C521 C 0.36959 0.91217 0.18968 0.0
C522 C 0.44904 0.92695 0.18705 0.0
C523 C 0.46483 0.97055 0.19863 0.0
C524 C 0.43235 0.98266 0.20805 0.0
C525 C 0.38477 0.95312 0.20347 0.0
C526 C 0.48243 0.91245 0.17692 0.0
C527 C 0.448 0.02857 0.22087 0.0
C528 C 0.59545 0.03994 0.20795 0.0
C529 C 0.6092 0.06512 0.18541 0.0
C530 C 0.54815 0.01075 0.21342 0.0
C531 C 0.51429 0.00636 0.19575 0.0
C532 C 0.52805 0.0329 0.1734 0.0
C533 C 0.57521 0.062 0.16859 0.0
C534 C 0.53457 0.98342 0.23759 0.0
C535 C 0.49307 0.02902 0.15391 0.0
H536 H 0.38973 0.86606 0.17254 0.0
H537 H 0.35997 0.96354 0.20921 0.0
H538 H 0.49947 0.93284 0.15976 0.0
H539 H 0.51008 0.91953 0.19082 0.0
H540 H 0.4646 0.87504 0.17193 0.0
H541 H 0.41936 0.02853 0.2317 0.0
H542 H 0.47755 0.03726 0.23374 0.0
H543 H 0.46005 0.05634 0.20649 0.0
H544 H 0.62156 0.04259 0.22116 0.0
H545 H 0.58539 0.08148 0.15118 0.0
H546 H 0.52396 0.94674 0.23352 0.0
H547 H 0.50448 0.98382 0.2464 0.0
H548 H 0.56375 0.99713 0.25127 0.0
H549 H 0.47504 0.99346 0.14591 0.0
H550 H 0.50945 0.05403 0.13823 0.0
H551 H 0.46631 0.0352 0.16266 0.0
C552 C 0.25731 0.31485 0.3191 0.0
C553 C 0.26786 0.36101 0.32244 0.0
C554 C 0.27216 0.29298 0.33656 0.0
C555 C 0.29798 0.31765 0.35803 0.0
C556 C 0.30701 0.36358 0.36201 0.0
C557 C 0.29204 0.38467 0.3442 0.0
C558 C 0.26184 0.2441 0.33148 0.0
C559 C 0.33399 0.39114 0.38471 0.0
C560 C 0.31368 0.25655 0.41498 0.0
C561 C 0.35966 0.26608 0.41195 0.0
C562 C 0.29254 0.27164 0.39719 0.0
C563 C 0.31776 0.29667 0.37569 0.0
C564 C 0.36332 0.30428 0.37191 0.0
C565 C 0.3837 0.28909 0.39006 0.0
C566 C 0.24398 0.26276 0.40205 0.0
C567 C 0.39141 0.33032 0.34919 0.0
H568 H 0.23892 0.29626 0.30233 0.0
H569 H 0.30043 0.4203 0.34703 0.0
H570 H 0.29476 0.24413 0.32782 0.0
H571 H 0.24552 0.22191 0.34818 0.0
H572 H 0.23847 0.22838 0.31505 0.0
H573 H 0.33553 0.42524 0.38597 0.0
H574 H 0.318 0.37137 0.40217 0.0
H575 H 0.37 0.39724 0.38384 0.0
H576 H 0.29479 0.23907 0.43184 0.0
H577 H 0.41919 0.29669 0.38747 0.0
H578 H 0.22181 0.24722 0.38522 0.0
H579 H 0.24512 0.29612 0.40585 0.0
H580 H 0.22748 0.23935 0.41834 0.0
H581 H 0.3712 0.31495 0.33173 0.0
H582 H 0.42472 0.33012 0.34791 0.0
H583 H 0.39924 0.36685 0.35008 0.0
C584 C 0.90944 0.28698 0.67711 0.0
C585 C 0.90867 0.26232 0.6555 0.0
C586 C 0.94584 0.30239 0.69474 0.0
C587 C 0.98268 0.29311 0.69077 0.0
C588 C 0.98089 0.26618 0.66968 0.0
C589 C 0.94398 0.25111 0.65235 0.0
C590 C 0.94597 0.33061 0.71702 0.0
C591 C 0.0192 0.25526 0.66471 0.0
C592 C 0.09884 0.38162 0.71954 0.0
C593 C 0.09987 0.35979 0.74193 0.0
C594 C 0.0618 0.35964 0.70239 0.0
C595 C 0.02451 0.31459 0.70765 0.0
C596 C 0.02626 0.29155 0.72968 0.0
C597 C 0.06387 0.31434 0.74651 0.0
C598 C 0.0617 0.38551 0.67908 0.0
C599 C 0.98742 0.24356 0.73605 0.0
H600 H 0.88245 0.2959 0.67981 0.0
H601 H 0.94395 0.23224 0.63572 0.0
H602 H 0.95132 0.31616 0.73468 0.0
H603 H 0.97521 0.36668 0.71525 0.0
H604 H 0.91312 0.33165 0.71858 0.0
H605 H 0.0105 0.23015 0.64905 0.0
H606 H 0.0516 0.28764 0.65985 0.0
H607 H 0.02644 0.24086 0.68183 0.0
H608 H 0.12635 0.41668 0.71574 0.0
H609 H 0.06407 0.29714 0.76378 0.0
H610 H 0.03247 0.3927 0.67999 0.0
H611 H 0.05635 0.364 0.66211 0.0
H612 H 0.09457 0.41896 0.67685 0.0
H613 H 0.95536 0.24492 0.74021 0.0
H614 H 0.99583 0.22868 0.7526 0.0
H615 H 0.97972 0.2199 0.7198 0.0
C616 C 0.61147 0.89234 1.01979 0.0
C617 C 0.63536 0.89269 0.99795 0.0
C618 C 0.63196 0.9283 1.03765 0.0
C619 C 0.67748 0.96586 1.03364 0.0
C620 C 0.70258 0.96531 1.01223 0.0
C621 C 0.68132 0.92878 0.99471 0.0
C622 C 0.60399 0.92713 0.06029 0.0
C623 C 0.75113 0.00447 1.00715 0.0
C624 C 0.70303 0.08019 0.06401 0.0
C625 C 0.72682 0.08096 0.08601 0.0
C626 C 0.6883 0.04385 0.04645 0.0
C627 C 0.69731 0.00701 0.05092 0.0
C628 C 0.72307 0.00859 0.07253 0.0
C629 C 0.73757 0.0455 0.08976 0.0
C630 C 0.66139 0.04398 1.02358 0.0
C631 C 0.73359 0.97023 0.07804 0.0
H632 H 0.576 0.86475 1.02253 0.0
H633 H 0.70015 0.92963 0.9779 0.0
H634 H 0.62426 0.93226 0.07777 0.0
H635 H 0.59624 0.95592 0.0591 0.0
H636 H 0.57065 0.89393 0.06177 0.0
H637 H 0.76763 0.99686 0.99108 0.0
H638 H 0.74998 0.03655 1.00288 0.0
H639 H 0.77333 0.0116 1.02404 0.0
H640 H 0.69449 0.1073 0.06087 0.0
H641 H 0.7557 0.04552 0.10672 0.0
H642 H 0.62536 0.01436 1.02457 0.0
H643 H 0.67739 0.03953 1.00626 0.0
H644 H 0.65989 0.07652 1.02193 0.0
H645 H 0.70077 0.9377 0.08208 0.0
H646 H 0.75728 0.9784 0.09439 0.0
H647 H 0.74961 0.96359 0.06142 0.0
C648 C 0.67635 0.7346 0.42147 0.0
C649 C 0.63082 0.72601 0.41771 0.0
C650 C 0.69732 0.71809 0.40442 0.0
C651 C 0.67237 0.69253 0.38295 0.0
C652 C 0.62719 0.68554 0.37851 0.0
C653 C 0.607 0.70219 0.39591 0.0
C654 C 0.74544 0.7263 0.40996 0.0
C655 C 0.59937 0.65888 0.3558 0.0
C656 C 0.7323 0.67171 0.32712 0.0
C657 C 0.72069 0.62532 0.33076 0.0
C658 C 0.71823 0.69459 0.34434 0.0
C659 C 0.69208 0.67071 0.36585 0.0
C660 C 0.68224 0.62463 0.37022 0.0
C661 C 0.69648 0.60253 0.35265 0.0
C662 C 0.7295 0.74364 0.33888 0.0
C663 C 0.6549 0.59789 0.39299 0.0
H664 H 0.69505 0.7527 0.43828 0.0
H665 H 0.57185 0.69529 0.39277 0.0
H666 H 0.74365 0.69275 0.41413 0.0
H667 H 0.76818 0.74131 0.3933 0.0
H668 H 0.76172 0.74991 0.42623 0.0
H669 H 0.56614 0.65914 0.3541 0.0
H670 H 0.61986 0.67372 0.3384 0.0
H671 H 0.59143 0.62234 0.35708 0.0
H672 H 0.75076 0.68966 0.31025 0.0
H673 H 0.6873 0.56674 0.35571 0.0
H674 H 0.7456 0.76603 0.35557 0.0
H675 H 0.69698 0.74413 0.3347 0.0
H676 H 0.7534 0.7588 0.32263 0.0
H677 H 0.67069 0.61818 0.41036 0.0
H678 H 0.65316 0.56376 0.39472 0.0
H679 H 0.61896 0.59193 0.39174 0.0
C680 C 0.08551 0.70462 0.67959 0.0
C681 C 0.08646 0.72885 0.65777 0.0
C682 C 0.04868 0.68904 0.6969 0.0
C683 C 0.0115 0.69759 0.69236 0.0
C684 C 0.01297 0.72334 0.6708 0.0
C685 C 0.05039 0.73871 0.65382 0.0
C686 C 0.04891 0.66212 0.7197 0.0
C687 C 0.97418 0.73327 0.66519 0.0
C688 C 0.89727 0.61235 0.72417 0.0
C689 C 0.89811 0.63663 0.74595 0.0
C690 C 0.93287 0.63249 0.70607 0.0
C691 C 0.97053 0.67806 0.70979 0.0
C692 C 0.97041 0.70353 0.73112 0.0
C693 C 0.93426 0.68262 0.74886 0.0
C694 C 0.93123 0.60414 0.68352 0.0
C695 C 0.00971 0.75212 0.7359 0.0
H696 H 0.11306 0.69672 0.68288 0.0
H697 H 0.05052 0.75712 0.63699 0.0
H698 H 0.04486 0.67828 0.73706 0.0
H699 H 0.01905 0.62625 0.71878 0.0
H700 H 0.08138 0.66036 0.72122 0.0
H701 H 0.9818 0.75619 0.64859 0.0
H702 H 0.94158 0.70024 0.66157 0.0
H703 H 0.96786 0.74989 0.68165 0.0
H704 H 0.86966 0.57684 0.72168 0.0
H705 H 0.93549 0.70178 0.76561 0.0
H706 H 0.95993 0.59619 0.68471 0.0
H707 H 0.93629 0.62413 0.66597 0.0
H708 H 0.89783 0.57096 0.68218 0.0
H709 H 0.042 0.75112 0.73996 0.0
H710 H 0.00249 0.76884 0.75202 0.0
H711 H 0.01633 0.77397 0.71896 0.0
C712 C 0.2537 0.94339 0.08784 0.0
C713 C 0.26555 0.90859 0.08464 0.0
C714 C 0.26848 0.9803 0.0706 0.0
C715 C 0.29567 0.98255 0.04954 0.0
C716 C 0.30606 0.94648 0.04568 0.0
C717 C 0.29101 0.91014 0.06323 0.0
C718 C 0.25654 0.01787 0.07549 0.0
C719 C 0.33462 0.94712 1.02344 0.0
C720 C 0.31294 0.06024 0.99285 0.0
C721 C 0.35829 0.09708 0.99677 0.0
C722 C 0.29139 0.02359 1.01026 0.0
C723 C 0.31559 0.02368 1.03225 0.0
C724 C 0.36045 0.06194 1.03691 0.0
C725 C 0.38121 0.09798 1.01915 0.0
C726 C 0.24358 0.98366 1.0045 0.0
C727 C 0.38748 0.06384 0.06015 0.0
H728 H 0.23426 0.94277 0.10434 0.0
H729 H 0.30041 0.88354 0.0605 0.0
H730 H 0.28873 0.05091 0.07975 0.0
H731 H 0.24078 0.02378 0.0585 0.0
H732 H 0.23212 0.00932 0.09149 0.0
H733 H 0.33724 0.91514 1.02221 0.0
H734 H 0.3192 0.95094 1.00572 0.0
H735 H 0.37021 0.97739 1.0249 0.0
H736 H 0.2949 0.05895 0.97561 0.0
H737 H 0.41621 0.12616 1.02245 0.0
H738 H 0.22033 0.9761 1.02093 0.0
H739 H 0.24583 0.95203 1.00066 0.0
H740 H 0.22761 0.99069 0.98794 0.0
H741 H 0.36612 0.05822 0.07722 0.0
H742 H 0.42027 0.09748 0.06204 0.0
H743 H 0.39616 0.03565 0.05944 0.0
C744 C 0.89392 0.17325 0.22232 0.0
C745 C 0.86949 0.14401 0.20219 0.0
C746 C 0.94196 0.19183 0.22473 0.0
C747 C 0.96582 0.17918 0.2072 0.0
C748 C 0.94036 0.14532 0.18864 0.0
C749 C 0.89252 0.12901 0.18589 0.0
C750 C 0.96765 0.2286 0.24447 0.0
C751 C 0.96405 0.12861 0.17068 0.0
C752 C 0.0847 0.27897 0.1916 0.0
C753 C 0.1124 0.27386 0.20975 0.0
C754 C 0.0372 0.24697 0.18976 0.0
C755 C 0.01731 0.20761 0.20567 0.0
C756 C 0.04614 0.19993 0.22234 0.0
C757 C 0.09325 0.23394 0.22473 0.0
C758 C 0.00774 0.2576 0.17228 0.0
C759 C 0.02699 0.15718 0.23859 0.0
H760 H 0.87628 0.18503 0.23495 0.0
H761 H 0.87358 0.10591 0.17048 0.0
H762 H 0.98985 0.21961 0.25599 0.0
H763 H 0.99075 0.26228 0.23518 0.0
H764 H 0.94373 0.23318 0.25721 0.0
H765 H 0.93893 0.09472 0.16216 0.0
H766 H 0.98048 0.15411 0.15527 0.0
H767 H 0.99177 0.12509 0.18038 0.0
H768 H 0.09937 0.31001 0.18012 0.0
H769 H 0.11478 0.22977 0.23865 0.0
H770 H 0.98207 0.26232 0.18338 0.0
H771 H 0.98805 0.22832 0.15918 0.0
H772 H 0.0288 0.28947 0.16102 0.0
H773 H 0.01316 0.16326 0.25627 0.0
H774 H 0.05454 0.14891 0.24369 0.0
H775 H -0.00168 0.12672 0.22899 0.0
C776 C 0.86137 0.10018 0.55568 0.0
C777 C 0.84448 0.12243 0.54008 0.0
C778 C 0.84556 0.05256 0.55289 0.0
C779 C 0.81018 0.02648 0.53513 0.0
C780 C 0.79486 0.04947 0.51855 0.0
C781 C 0.81308 0.09738 0.52087 0.0
C782 C 0.86485 0.0299 0.56989 0.0
C783 C 0.7561 0.02303 0.49989 0.0
C784 C 0.75826 0.90067 0.51574 0.0
C785 C 0.71909 0.87978 0.53132 0.0
C786 C 0.79144 0.94789 0.51854 0.0
C787 C 0.78364 0.97499 0.53634 0.0
C788 C 0.74546 0.95326 0.55302 0.0
C789 C 0.7143 0.90572 0.55065 0.0
C790 C 0.83328 0.96918 0.50151 0.0
C791 C 0.73487 0.98085 0.57182 0.0
H792 H 0.88602 0.11971 0.57042 0.0
H793 H 0.79975 0.11454 0.50892 0.0
H794 H 0.84183 0.01475 0.58642 0.0
H795 H 0.86682 0.00151 0.56002 0.0
H796 H 0.90002 0.05545 0.57688 0.0
H797 H 0.74914 0.04633 0.48796 0.0
H798 H 0.76467 0.00161 0.48745 0.0
H799 H 0.72372 -0.00086 0.5101 0.0
H800 H 0.76227 0.88051 0.50093 0.0
H801 H 0.68392 0.88971 0.56266 0.0
H802 H 0.86442 0.99585 0.51165 0.0
H803 H 0.82672 0.98633 0.48542 0.0
H804 H 0.84083 0.9425 0.49389 0.0
H805 H 0.76517 0.00113 0.58425 0.0
H806 H 0.70437 0.95843 0.58376 0.0
H807 H 0.72769 0.00585 0.56174 0.0
C808 C 0.80557 0.72282 0.84035 0.0
C809 C 0.84376 0.72483 0.8527 0.0
C810 C 0.78863 0.75229 0.84728 0.0
C811 C 0.81192 0.78609 0.86622 0.0
C812 C 0.85342 0.79139 0.87688 0.0
C813 C 0.86814 0.75969 0.87053 0.0
C814 C 0.74347 0.74431 0.83592 0.0
C815 C 0.88085 0.82876 0.89596 0.0
C816 C 0.75843 0.86315 0.87126 0.0
C817 C 0.72662 0.84126 0.8908 0.0
C818 C 0.79053 0.84897 0.86478 0.0
C819 C 0.78865 0.81039 0.87718 0.0
C820 C 0.75842 0.79017 0.89793 0.0
C821 C 0.72855 0.80667 0.90484 0.0
C822 C 0.82427 0.87337 0.84364 0.0
C823 C 0.75416 0.7481 0.91127 0.0
H824 H 0.7865 0.69558 0.8267 0.0
H825 H 0.89796 0.76142 0.87994 0.0
H826 H 0.71668 0.73353 0.85084 0.0
H827 H 0.74794 0.77681 0.82758 0.0
H828 H 0.73027 0.71715 0.8211 0.0
H829 H 0.91752 0.83665 0.89685 0.0
H830 H 0.88029 0.8611 0.89149 0.0
H831 H 0.86532 0.817 0.91485 0.0
H832 H 0.75717 0.89022 0.86053 0.0
H833 H 0.70368 0.78951 0.91984 0.0
H834 H 0.8101 0.85386 0.82589 0.0
H835 H 0.85811 0.87529 0.84735 0.0
H836 H 0.83023 0.90904 0.84085 0.0
H837 H 0.74102 0.71852 0.89794 0.0
H838 H 0.73015 0.73761 0.92758 0.0
H839 H 0.78858 0.75496 0.91804 0.0
C840 C 0.89345 0.70186 0.19465 0.0
C841 C 0.86768 0.70706 0.21393 0.0
C842 C 0.94071 0.73381 0.19159 0.0
C843 C 0.96228 0.77316 0.20751 0.0
C844 C 0.93521 0.78107 0.2253 0.0
C845 C 0.88836 0.74718 0.2288 0.0
C846 C 0.96829 0.72304 0.17287 0.0
C847 C 0.95617 0.8239 0.24159 0.0
C848 C 0.0863 0.80587 0.22137 0.0
C849 C 0.10982 0.83569 0.20131 0.0
C850 C 0.03848 0.7875 0.22461 0.0
C851 C 0.01388 0.80094 0.20803 0.0
C852 C 0.03846 0.83512 0.18951 0.0
C853 C 0.08609 0.85127 0.18591 0.0
C854 C 0.01372 0.75029 0.24422 0.0
C855 C 0.01404 0.85251 0.1725 0.0
H856 H 0.87763 0.67075 0.18319 0.0
H857 H 0.86832 0.75151 0.24357 0.0
H858 H 0.9874 0.75259 0.15987 0.0
H859 H 0.99441 0.71747 0.18296 0.0
H860 H 0.94596 0.69159 0.16153 0.0
H861 H 0.92918 0.83169 0.24847 0.0
H862 H 0.973 0.81836 0.25821 0.0
H863 H 0.98301 0.85445 0.2312 0.0
H864 H 0.10445 0.79364 0.23332 0.0
H865 H 0.10431 0.8748 0.17055 0.0
H866 H 0.98978 0.71693 0.23483 0.0
H867 H 0.99249 0.75925 0.25658 0.0
H868 H 0.0382 0.74504 0.25616 0.0
H869 H 0.99733 0.82782 0.15675 0.0
H870 H 0.0388 0.88688 0.16438 0.0
H871 H 0.98648 0.85534 0.18282 0.0
C872 C 0.18727 0.90502 0.52138 0.0
C873 C 0.15629 0.88092 0.54092 0.0
C874 C 0.20457 0.95255 0.51798 0.0
C875 C 0.18883 0.97615 0.5338 0.0
C876 C 0.15363 0.95087 0.55174 0.0
C877 C 0.13863 0.90363 0.5556 0.0
C878 C 0.24301 0.97814 0.49907 0.0
C879 C 0.13384 0.97417 0.56788 0.0
C880 C 0.28377 0.09826 0.54784 0.0
C881 C 0.27843 0.1229 0.52801 0.0
C882 C 0.25314 0.05072 0.55078 0.0
C883 C 0.21494 0.0277 0.53416 0.0
C884 C 0.20677 0.0535 0.51567 0.0
C885 C 0.23946 0.1007 0.51232 0.0
C886 C 0.26422 0.02452 0.57025 0.0
C887 C 0.16501 0.03089 0.49856 0.0
H888 H 0.20116 0.88763 0.51004 0.0
H889 H 0.11426 0.88492 0.57056 0.0
H890 H 0.23392 -0.00157 0.48607 0.0
H891 H 0.27538 0.00299 0.50903 0.0
H892 H 0.25025 0.95437 0.48775 0.0
H893 H 0.09926 0.94865 0.57551 0.0
H894 H 0.15741 0.99168 0.58397 0.0
H895 H 0.13047 0.00088 0.55703 0.0
H896 H 0.31408 0.11535 0.55989 0.0
H897 H 0.23508 0.11991 0.49712 0.0
H898 H 0.27176 -0.00076 0.56076 0.0
H899 H 0.23403 0.00465 0.58277 0.0
H900 H 0.29465 0.04784 0.58204 0.0
H901 H 0.17241 0.01417 0.48256 0.0
H902 H 0.15648 0.05677 0.49078 0.0
H903 H 0.1342 0.00371 0.50864 0.0
C904 C 0.19503 0.29097 0.88123 0.0
C905 C 0.16484 0.28403 0.86118 0.0
C906 C 0.212 0.26053 0.88544 0.0
C907 C 0.19669 0.22094 0.86991 0.0
C908 C 0.16227 0.21108 0.8514 0.0
C909 C 0.14762 0.24349 0.84676 0.0
C910 C 0.24964 0.2733 0.90493 0.0
C911 C 0.14294 0.16782 0.83552 0.0
C912 C 0.29152 0.1918 0.85848 0.0
C913 C 0.28503 0.16217 0.87866 0.0
C914 C 0.26134 0.20923 0.85456 0.0
C915 C 0.22246 0.19496 0.87056 0.0
C916 C 0.21316 0.16132 0.88939 0.0
C917 C 0.24536 0.14625 0.89371 0.0
C918 C 0.27359 0.24611 0.83474 0.0
C919 C 0.17068 0.14314 0.90586 0.0
H920 H 0.20861 0.32239 0.89236 0.0
H921 H 0.12387 0.23782 0.8314 0.0
H922 H 0.23989 0.2442 0.91818 0.0
H923 H 0.28234 0.28025 0.89553 0.0
H924 H 0.25658 0.30452 0.91592 0.0
H925 H 0.10876 0.15905 0.82727 0.0
H926 H 0.16716 0.17327 0.81986 0.0
H927 H 0.1389 0.1379 0.84675 0.0
H928 H 0.32236 0.20437 0.84691 0.0
H929 H 0.24009 0.12294 0.90919 0.0
H930 H 0.28113 0.27917 0.84387 0.0
H931 H 0.24395 0.23604 0.82177 0.0
H932 H 0.30437 0.2524 0.82348 0.0
H933 H 0.17747 0.16774 0.92152 0.0
H934 H 0.16164 0.109 0.91415 0.0
H935 H 0.14038 0.13953 0.8951 0.0
loop_
_geom_bond_atom_site_label_1
_geom_bond_atom_site_label_2
_geom_bond_distance
_geom_bond_site_symmetry_2
_ccdc_geom_bond_type
O0 Cd1 2.223 . S
O0 C8 1.315 . S
Cd1 O0 2.223 . S
Cd1 O4 2.297 . S
Cd1 O5 2.439 . S
Cd1 O11 2.240 . S
Cd2 O3 2.240 . S
Cd2 O10 2.223 . S
Cd2 O12 2.297 . S
Cd2 O13 2.439 . S
O3 Cd2 2.240 . S
O3 C8 1.279 . S
O4 Cd1 2.297 . S
O4 C6 1.247 . S
O5 Cd1 2.439 . S
O5 C6 1.208 . S
C6 O4 1.247 . S
C6 O5 1.208 . S
C7 O12 1.247 . S
C7 O13 1.208 . S
C8 O0 1.315 . S
C8 O3 1.279 . S
C9 O10 1.315 . S
C9 O11 1.279 . S
O10 Cd2 2.223 . S
O10 C9 1.315 . S
O11 Cd1 2.240 . S
O11 C9 1.279 . S
O12 Cd2 2.297 . S
O12 C7 1.247 . S
O13 Cd2 2.439 . S
O13 C7 1.208 . S
O14 Cd15 2.223 . S
O14 C22 1.315 . S
Cd15 O14 2.223 . S
Cd15 O18 2.297 . S
Cd15 O19 2.439 . S
Cd15 O25 2.240 . S
Cd16 O17 2.240 . S
Cd16 O24 2.223 . S
Cd16 O26 2.297 . S
Cd16 O27 2.439 . S
O17 Cd16 2.240 . S
O17 C22 1.279 . S
O18 Cd15 2.297 . S
O18 C20 1.247 . S
O19 Cd15 2.439 . S
O19 C20 1.208 . S
C20 O18 1.247 . S
C20 O19 1.208 . S
C21 O26 1.247 . S
C21 O27 1.208 . S
C22 O14 1.315 . S
C22 O17 1.279 . S
C23 O24 1.315 . S
C23 O25 1.279 . S
O24 Cd16 2.223 . S
O24 C23 1.315 . S
O25 Cd15 2.240 . S
O25 C23 1.279 . S
O26 Cd16 2.297 . S
O26 C21 1.247 . S
O27 Cd16 2.439 . S
O27 C21 1.208 . S
O28 Cd29 2.223 . S
O28 C36 1.315 . S
Cd29 O28 2.223 . S
Cd29 O32 2.297 . S
Cd29 O33 2.439 . S
Cd29 O39 2.240 . S
Cd30 O31 2.240 . S
Cd30 O38 2.223 . S
Cd30 O40 2.297 . S
Cd30 O41 2.439 . S
O31 Cd30 2.240 . S
O31 C36 1.279 . S
O32 Cd29 2.297 . S
O32 C34 1.247 . S
O33 Cd29 2.439 . S
O33 C34 1.208 . S
C34 O32 1.247 . S
C34 O33 1.208 . S
C35 O40 1.247 . S
C35 O41 1.208 . S
C36 O28 1.315 . S
C36 O31 1.279 . S
C37 O38 1.315 . S
C37 O39 1.279 . S
O38 Cd30 2.223 . S
O38 C37 1.315 . S
O39 Cd29 2.240 . S
O39 C37 1.279 . S
O40 Cd30 2.297 . S
O40 C35 1.247 . S
O41 Cd30 2.439 . S
O41 C35 1.208 . S
O42 Cd43 2.223 . S
O42 C50 1.315 . S
Cd43 O42 2.223 . S
Cd43 O46 2.297 . S
Cd43 O47 2.439 . S
Cd43 O53 2.240 . S
Cd44 O45 2.240 . S
Cd44 O52 2.223 . S
Cd44 O54 2.297 . S
Cd44 O55 2.439 . S
O45 Cd44 2.240 . S
O45 C50 1.279 . S
O46 Cd43 2.297 . S
O46 C48 1.247 . S
O47 Cd43 2.439 . S
O47 C48 1.208 . S
C48 O46 1.247 . S
C48 O47 1.208 . S
C49 O54 1.247 . S
C49 O55 1.208 . S
C50 O42 1.315 . S
C50 O45 1.279 . S
C51 O52 1.315 . S
C51 O53 1.279 . S
O52 Cd44 2.223 . S
O52 C51 1.315 . S
O53 Cd43 2.240 . S
O53 C51 1.279 . S
O54 Cd44 2.297 . S
O54 C49 1.247 . S
O55 Cd44 2.439 . S
O55 C49 1.208 . S
O56 Cd57 2.223 . S
O56 C64 1.315 . S
Cd57 O56 2.223 . S
Cd57 O60 2.297 . S
Cd57 O61 2.439 . S
Cd57 O67 2.240 . S
Cd58 O59 2.240 . S
Cd58 O66 2.223 . S
Cd58 O68 2.297 . S
Cd58 O69 2.439 . S
O59 Cd58 2.240 . S
O59 C64 1.279 . S
O60 Cd57 2.297 . S
O60 C62 1.247 . S
O61 Cd57 2.439 . S
O61 C62 1.208 . S
C62 O60 1.247 . S
C62 O61 1.208 . S
C63 O68 1.247 . S
C63 O69 1.208 . S
C64 O56 1.315 . S
C64 O59 1.279 . S
C65 O66 1.315 . S
C65 O67 1.279 . S
O66 Cd58 2.223 . S
O66 C65 1.315 . S
O67 Cd57 2.240 . S
O67 C65 1.279 . S
O68 Cd58 2.297 . S
O68 C63 1.247 . S
O69 Cd58 2.439 . S
O69 C63 1.208 . S
O70 Cd71 2.223 . S
O70 C78 1.315 . S
Cd71 O70 2.223 . S
Cd71 O74 2.297 . S
Cd71 O75 2.439 . S
Cd71 O81 2.240 . S
Cd72 O73 2.240 . S
Cd72 O80 2.223 . S
Cd72 O82 2.297 . S
Cd72 O83 2.439 . S
O73 Cd72 2.240 . S
O73 C78 1.279 . S
O74 Cd71 2.297 . S
O74 C76 1.247 . S
O75 Cd71 2.439 . S
O75 C76 1.208 . S
C76 O74 1.247 . S
C76 O75 1.208 . S
C77 O82 1.247 . S
C77 O83 1.208 . S
C78 O70 1.315 . S
C78 O73 1.279 . S
C79 O80 1.315 . S
C79 O81 1.279 . S
O80 Cd72 2.223 . S
O80 C79 1.315 . S
O81 Cd71 2.240 . S
O81 C79 1.279 . S
O82 Cd72 2.297 . S
O82 C77 1.247 . S
O83 Cd72 2.439 . S
O83 C77 1.208 . S
O84 Cd85 2.223 . S
O84 C92 1.315 . S
Cd85 O84 2.223 . S
Cd85 O88 2.297 . S
Cd85 O89 2.439 . S
Cd85 O95 2.240 . S
Cd86 O87 2.240 . S
Cd86 O94 2.223 . S
Cd86 O96 2.297 . S
Cd86 O97 2.439 . S
O87 Cd86 2.240 . S
O87 C92 1.279 . S
O88 Cd85 2.297 . S
O88 C90 1.247 . S
O89 Cd85 2.439 . S
O89 C90 1.208 . S
C90 O88 1.247 . S
C90 O89 1.208 . S
C91 O96 1.247 . S
C91 O97 1.208 . S
C92 O84 1.315 . S
C92 O87 1.279 . S
C93 O94 1.315 . S
C93 O95 1.279 . S
O94 Cd86 2.223 . S
O94 C93 1.315 . S
O95 Cd85 2.240 . S
O95 C93 1.279 . S
O96 Cd86 2.297 . S
O96 C91 1.247 . S
O97 Cd86 2.439 . S
O97 C91 1.208 . S
O98 Cd99 2.223 . S
O98 C106 1.315 . S
Cd99 O98 2.223 . S
Cd99 O102 2.297 . S
Cd99 O103 2.439 . S
Cd99 O109 2.240 . S
Cd100 O101 2.240 . S
Cd100 O108 2.223 . S
Cd100 O110 2.297 . S
Cd100 O111 2.439 . S
O101 Cd100 2.240 . S
O101 C106 1.279 . S
O102 Cd99 2.297 . S
O102 C104 1.247 . S
O103 Cd99 2.439 . S
O103 C104 1.208 . S
C104 O102 1.247 . S
C104 O103 1.208 . S
C105 O110 1.247 . S
C105 O111 1.208 . S
C106 O98 1.315 . S
C106 O101 1.279 . S
C107 O108 1.315 . S
C107 O109 1.279 . S
O108 Cd100 2.223 . S
O108 C107 1.315 . S
O109 Cd99 2.240 . S
O109 C107 1.279 . S
O110 Cd100 2.297 . S
O110 C105 1.247 . S
O111 Cd100 2.439 . S
O111 C105 1.208 . S
O112 Cd113 2.223 . S
O112 C120 1.315 . S
Cd113 O112 2.223 . S
Cd113 O116 2.297 . S
Cd113 O117 2.439 . S
Cd113 O123 2.240 . S
Cd114 O115 2.240 . S
Cd114 O122 2.223 . S
Cd114 O124 2.297 . S
Cd114 O125 2.439 . S
O115 Cd114 2.240 . S
O115 C120 1.279 . S
O116 Cd113 2.297 . S
O116 C118 1.247 . S
O117 Cd113 2.439 . S
O117 C118 1.208 . S
C118 O116 1.247 . S
C118 O117 1.208 . S
C119 O124 1.247 . S
C119 O125 1.208 . S
C120 O112 1.315 . S
C120 O115 1.279 . S
C121 O122 1.315 . S
C121 O123 1.279 . S
O122 Cd114 2.223 . S
O122 C121 1.315 . S
O123 Cd113 2.240 . S
O123 C121 1.279 . S
O124 Cd114 2.297 . S
O124 C119 1.247 . S
O125 Cd114 2.439 . S
O125 C119 1.208 . S
O126 Cd127 2.223 . S
O126 C134 1.315 . S
Cd127 O126 2.223 . S
Cd127 O130 2.297 . S
Cd127 O131 2.439 . S
Cd127 O137 2.240 . S
Cd128 O129 2.240 . S
Cd128 O136 2.223 . S
Cd128 O138 2.297 . S
Cd128 O139 2.439 . S
O129 Cd128 2.240 . S
O129 C134 1.279 . S
O130 Cd127 2.297 . S
O130 C132 1.247 . S
O131 Cd127 2.439 . S
O131 C132 1.208 . S
C132 O130 1.247 . S
C132 O131 1.208 . S
C133 O138 1.247 . S
C133 O139 1.208 . S
C134 O126 1.315 . S
C134 O129 1.279 . S
C135 O136 1.315 . S
C135 O137 1.279 . S
O136 Cd128 2.223 . S
O136 C135 1.315 . S
O137 Cd127 2.240 . S
O137 C135 1.279 . S
O138 Cd128 2.297 . S
O138 C133 1.247 . S
O139 Cd128 2.439 . S
O139 C133 1.208 . S
O140 Cd141 2.223 . S
O140 C148 1.315 . S
Cd141 O140 2.223 . S
Cd141 O144 2.297 . S
Cd141 O145 2.439 . S
Cd141 O151 2.240 . S
Cd142 O143 2.240 . S
Cd142 O150 2.223 . S
Cd142 O152 2.297 . S
Cd142 O153 2.439 . S
O143 Cd142 2.240 . S
O143 C148 1.279 . S
O144 Cd141 2.297 . S
O144 C146 1.247 . S
O145 Cd141 2.439 . S
O145 C146 1.208 . S
C146 O144 1.247 . S
C146 O145 1.208 . S
C147 O152 1.247 . S
C147 O153 1.208 . S
C148 O140 1.315 . S
C148 O143 1.279 . S
C149 O150 1.315 . S
C149 O151 1.279 . S
O150 Cd142 2.223 . S
O150 C149 1.315 . S
O151 Cd141 2.240 . S
O151 C149 1.279 . S
O152 Cd142 2.297 . S
O152 C147 1.247 . S
O153 Cd142 2.439 . S
O153 C147 1.208 . S
O154 Cd155 2.223 . S
O154 C162 1.315 . S
Cd155 O154 2.223 . S
Cd155 O158 2.297 . S
Cd155 O159 2.439 . S
Cd155 O165 2.240 . S
Cd156 O157 2.240 . S
Cd156 O164 2.223 . S
Cd156 O166 2.297 . S
Cd156 O167 2.439 . S
O157 Cd156 2.240 . S
O157 C162 1.279 . S
O158 Cd155 2.297 . S
O158 C160 1.247 . S
O159 Cd155 2.439 . S
O159 C160 1.208 . S
C160 O158 1.247 . S
C160 O159 1.208 . S
C161 O166 1.247 . S
C161 O167 1.208 . S
C162 O154 1.315 . S
C162 O157 1.279 . S
C163 O164 1.315 . S
C163 O165 1.279 . S
O164 Cd156 2.223 . S
O164 C163 1.315 . S
O165 Cd155 2.240 . S
O165 C163 1.279 . S
O166 Cd156 2.297 . S
O166 C161 1.247 . S
O167 Cd156 2.439 . S
O167 C161 1.208 . S
C168 C169 1.391 . S
C168 C170 1.394 . S
C168 H184 0.931 . S
C169 C168 1.391 . S
C169 C173 1.376 . S
C170 C168 1.394 . S
C170 C171 1.369 . S
C170 C174 1.531 . S
C171 C170 1.369 . S
C171 C172 1.410 . S
C171 C179 1.503 . S
C172 C171 1.410 . S
C172 C173 1.392 . S
C172 C175 1.511 . S
C173 C169 1.376 . S
C173 C172 1.392 . S
C173 H185 0.929 . S
C174 C170 1.531 . S
C174 H186 0.960 . S
C174 H187 0.962 . S
C174 H188 0.960 . S
C175 C172 1.511 . S
C175 H189 0.961 . S
C175 H190 0.961 . S
C175 H191 0.961 . S
C176 C177 1.370 . S
C176 C178 1.363 . S
C176 H192 0.931 . S
C177 C176 1.370 . S
C177 C181 1.408 . S
C178 C176 1.363 . S
C178 C179 1.370 . S
C178 C182 1.524 . S
C179 C171 1.503 . S
C179 C178 1.370 . S
C179 C180 1.403 . S
C180 C179 1.403 . S
C180 C181 1.404 . S
C180 C183 1.539 . S
C181 C177 1.408 . S
C181 C180 1.404 . S
C181 H193 0.930 . S
C182 C178 1.524 . S
C182 H194 0.956 . S
C182 H195 0.961 . S
C182 H196 0.961 . S
C183 C180 1.539 . S
C183 H197 0.958 . S
C183 H198 0.961 . S
C183 H199 0.960 . S
H184 C168 0.931 . S
H185 C173 0.929 . S
H186 C174 0.960 . S
H187 C174 0.962 . S
H188 C174 0.960 . S
H189 C175 0.961 . S
H190 C175 0.961 . S
H191 C175 0.961 . S
H192 C176 0.931 . S
H193 C181 0.930 . S
H194 C182 0.956 . S
H195 C182 0.961 . S
H196 C182 0.961 . S
H197 C183 0.958 . S
H198 C183 0.961 . S
H199 C183 0.960 . S
C200 C201 1.391 . S
C200 C202 1.394 . S
C200 H216 0.931 . S
C201 C200 1.391 . S
C201 C205 1.376 . S
C202 C200 1.394 . S
C202 C203 1.369 . S
C202 C206 1.531 . S
C203 C202 1.369 . S
C203 C204 1.410 . S
C203 C211 1.503 . S
C204 C203 1.410 . S
C204 C205 1.392 . S
C204 C207 1.511 . S
C205 C201 1.376 . S
C205 C204 1.392 . S
C205 H217 0.929 . S
C206 C202 1.531 . S
C206 H218 0.960 . S
C206 H219 0.962 . S
C206 H220 0.960 . S
C207 C204 1.511 . S
C207 H221 0.961 . S
C207 H222 0.961 . S
C207 H223 0.961 . S
C208 C209 1.370 . S
C208 C210 1.363 . S
C208 H224 0.931 . S
C209 C208 1.370 . S
C209 C213 1.408 . S
C210 C208 1.363 . S
C210 C211 1.370 . S
C210 C214 1.524 . S
C211 C203 1.503 . S
C211 C210 1.370 . S
C211 C212 1.403 . S
C212 C211 1.403 . S
C212 C213 1.404 . S
C212 C215 1.539 . S
C213 C209 1.408 . S
C213 C212 1.404 . S
C213 H225 0.930 . S
C214 C210 1.524 . S
C214 H226 0.956 . S
C214 H227 0.961 . S
C214 H228 0.961 . S
C215 C212 1.539 . S
C215 H229 0.958 . S
C215 H230 0.961 . S
C215 H231 0.960 . S
H216 C200 0.931 . S
H217 C205 0.929 . S
H218 C206 0.960 . S
H219 C206 0.962 . S
H220 C206 0.960 . S
H221 C207 0.961 . S
H222 C207 0.961 . S
H223 C207 0.961 . S
H224 C208 0.931 . S
H225 C213 0.930 . S
H226 C214 0.956 . S
H227 C214 0.961 . S
H228 C214 0.961 . S
H229 C215 0.958 . S
H230 C215 0.961 . S
H231 C215 0.960 . S
C232 C233 1.391 . S
C232 C234 1.394 . S
C232 H248 0.931 . S
C233 C232 1.391 . S
C233 C237 1.376 . S
C234 C232 1.394 . S
C234 C235 1.369 . S
C234 C238 1.531 . S
C235 C234 1.369 . S
C235 C236 1.410 . S
C235 C243 1.503 . S
C236 C235 1.410 . S
C236 C237 1.392 . S
C236 C239 1.511 . S
C237 C233 1.376 . S
C237 C236 1.392 . S
C237 H249 0.929 . S
C238 C234 1.531 . S
C238 H250 0.960 . S
C238 H251 0.962 . S
C238 H252 0.960 . S
C239 C236 1.511 . S
C239 H253 0.961 . S
C239 H254 0.961 . S
C239 H255 0.961 . S
C240 C241 1.370 . S
C240 C242 1.363 . S
C240 H256 0.931 . S
C241 C240 1.370 . S
C241 C245 1.408 . S
C242 C240 1.363 . S
C242 C243 1.370 . S
C242 C246 1.524 . S
C243 C235 1.503 . S
C243 C242 1.370 . S
C243 C244 1.403 . S
C244 C243 1.403 . S
C244 C245 1.404 . S
C244 C247 1.539 . S
C245 C241 1.408 . S
C245 C244 1.404 . S
C245 H257 0.930 . S
C246 C242 1.524 . S
C246 H258 0.956 . S
C246 H259 0.961 . S
C246 H260 0.961 . S
C247 C244 1.539 . S
C247 H261 0.958 . S
C247 H262 0.961 . S
C247 H263 0.960 . S
H248 C232 0.931 . S
H249 C237 0.929 . S
H250 C238 0.960 . S
H251 C238 0.962 . S
H252 C238 0.960 . S
H253 C239 0.961 . S
H254 C239 0.961 . S
H255 C239 0.961 . S
H256 C240 0.931 . S
H257 C245 0.930 . S
H258 C246 0.956 . S
H259 C246 0.961 . S
H260 C246 0.961 . S
H261 C247 0.958 . S
H262 C247 0.961 . S
H263 C247 0.960 . S
C264 C265 1.391 . S
C264 C266 1.394 . S
C264 H280 0.931 . S
C265 C264 1.391 . S
C265 C269 1.376 . S
C266 C264 1.394 . S
C266 C267 1.369 . S
C266 C270 1.531 . S
C267 C266 1.369 . S
C267 C268 1.410 . S
C267 C275 1.503 . S
C268 C267 1.410 . S
C268 C269 1.392 . S
C268 C271 1.511 . S
C269 C265 1.376 . S
C269 C268 1.392 . S
C269 H281 0.929 . S
C270 C266 1.531 . S
C270 H282 0.960 . S
C270 H283 0.962 . S
C270 H284 0.960 . S
C271 C268 1.511 . S
C271 H285 0.961 . S
C271 H286 0.961 . S
C271 H287 0.961 . S
C272 C273 1.370 . S
C272 C274 1.363 . S
C272 H288 0.931 . S
C273 C272 1.370 . S
C273 C277 1.408 . S
C274 C272 1.363 . S
C274 C275 1.370 . S
C274 C278 1.524 . S
C275 C267 1.503 . S
C275 C274 1.370 . S
C275 C276 1.403 . S
C276 C275 1.403 . S
C276 C277 1.404 . S
C276 C279 1.539 . S
C277 C273 1.408 . S
C277 C276 1.404 . S
C277 H289 0.930 . S
C278 C274 1.524 . S
C278 H290 0.956 . S
C278 H291 0.961 . S
C278 H292 0.961 . S
C279 C276 1.539 . S
C279 H293 0.958 . S
C279 H294 0.961 . S
C279 H295 0.960 . S
H280 C264 0.931 . S
H281 C269 0.929 . S
H282 C270 0.960 . S
H283 C270 0.962 . S
H284 C270 0.960 . S
H285 C271 0.961 . S
H286 C271 0.961 . S
H287 C271 0.961 . S
H288 C272 0.931 . S
H289 C277 0.930 . S
H290 C278 0.956 . S
H291 C278 0.961 . S
H292 C278 0.961 . S
H293 C279 0.958 . S
H294 C279 0.961 . S
H295 C279 0.960 . S
C296 C297 1.391 . S
C296 C298 1.394 . S
C296 H312 0.931 . S
C297 C296 1.391 . S
C297 C301 1.376 . S
C298 C296 1.394 . S
C298 C299 1.369 . S
C298 C302 1.531 . S
C299 C298 1.369 . S
C299 C300 1.410 . S
C299 C307 1.503 . S
C300 C299 1.410 . S
C300 C301 1.392 . S
C300 C303 1.511 . S
C301 C297 1.376 . S
C301 C300 1.392 . S
C301 H313 0.929 . S
C302 C298 1.531 . S
C302 H314 0.960 . S
C302 H315 0.962 . S
C302 H316 0.960 . S
C303 C300 1.511 . S
C303 H317 0.961 . S
C303 H318 0.961 . S
C303 H319 0.961 . S
C304 C305 1.370 . S
C304 C306 1.363 . S
C304 H320 0.931 . S
C305 C304 1.370 . S
C305 C309 1.408 . S
C306 C304 1.363 . S
C306 C307 1.370 . S
C306 C310 1.524 . S
C307 C299 1.503 . S
C307 C306 1.370 . S
C307 C308 1.403 . S
C308 C307 1.403 . S
C308 C309 1.404 . S
C308 C311 1.539 . S
C309 C305 1.408 . S
C309 C308 1.404 . S
C309 H321 0.930 . S
C310 C306 1.524 . S
C310 H322 0.956 . S
C310 H323 0.961 . S
C310 H324 0.961 . S
C311 C308 1.539 . S
C311 H325 0.958 . S
C311 H326 0.961 . S
C311 H327 0.960 . S
H312 C296 0.931 . S
H313 C301 0.929 . S
H314 C302 0.960 . S
H315 C302 0.962 . S
H316 C302 0.960 . S
H317 C303 0.961 . S
H318 C303 0.961 . S
H319 C303 0.961 . S
H320 C304 0.931 . S
H321 C309 0.930 . S
H322 C310 0.956 . S
H323 C310 0.961 . S
H324 C310 0.961 . S
H325 C311 0.958 . S
H326 C311 0.961 . S
H327 C311 0.960 . S
C328 C329 1.391 . S
C328 C330 1.394 . S
C328 H344 0.931 . S
C329 C328 1.391 . S
C329 C333 1.376 . S
C330 C328 1.394 . S
C330 C331 1.369 . S
C330 C334 1.531 . S
C331 C330 1.369 . S
C331 C332 1.410 . S
C331 C339 1.503 . S
C332 C331 1.410 . S
C332 C333 1.392 . S
C332 C335 1.511 . S
C333 C329 1.376 . S
C333 C332 1.392 . S
C333 H345 0.929 . S
C334 C330 1.531 . S
C334 H346 0.960 . S
C334 H347 0.962 . S
C334 H348 0.960 . S
C335 C332 1.511 . S
C335 H349 0.961 . S
C335 H350 0.961 . S
C335 H351 0.961 . S
C336 C337 1.370 . S
C336 C338 1.363 . S
C336 H352 0.931 . S
C337 C336 1.370 . S
C337 C341 1.408 . S
C338 C336 1.363 . S
C338 C339 1.370 . S
C338 C342 1.524 . S
C339 C331 1.503 . S
C339 C338 1.370 . S
C339 C340 1.403 . S
C340 C339 1.403 . S
C340 C341 1.404 . S
C340 C343 1.539 . S
C341 C337 1.408 . S
C341 C340 1.404 . S
C341 H353 0.930 . S
C342 C338 1.524 . S
C342 H354 0.956 . S
C342 H355 0.961 . S
C342 H356 0.961 . S
C343 C340 1.539 . S
C343 H357 0.958 . S
C343 H358 0.961 . S
C343 H359 0.960 . S
H344 C328 0.931 . S
H345 C333 0.929 . S
H346 C334 0.960 . S
H347 C334 0.962 . S
H348 C334 0.960 . S
H349 C335 0.961 . S
H350 C335 0.961 . S
H351 C335 0.961 . S
H352 C336 0.931 . S
H353 C341 0.930 . S
H354 C342 0.956 . S
H355 C342 0.961 . S
H356 C342 0.961 . S
H357 C343 0.958 . S
H358 C343 0.961 . S
H359 C343 0.960 . S
C360 C361 1.391 . S
C360 C362 1.394 . S
C360 H376 0.931 . S
C361 C360 1.391 . S
C361 C365 1.376 . S
C362 C360 1.394 . S
C362 C363 1.369 . S
C362 C366 1.531 . S
C363 C362 1.369 . S
C363 C364 1.410 . S
C363 C371 1.503 . S
C364 C363 1.410 . S
C364 C365 1.392 . S
C364 C367 1.511 . S
C365 C361 1.376 . S
C365 C364 1.392 . S
C365 H377 0.929 . S
C366 C362 1.531 . S
C366 H378 0.960 . S
C366 H379 0.962 . S
C366 H380 0.960 . S
C367 C364 1.511 . S
C367 H381 0.961 . S
C367 H382 0.961 . S
C367 H383 0.961 . S
C368 C369 1.370 . S
C368 C370 1.363 . S
C368 H384 0.931 . S
C369 C368 1.370 . S
C369 C373 1.408 . S
C370 C368 1.363 . S
C370 C371 1.370 . S
C370 C374 1.524 . S
C371 C363 1.503 . S
C371 C370 1.370 . S
C371 C372 1.403 . S
C372 C371 1.403 . S
C372 C373 1.404 . S
C372 C375 1.539 . S
C373 C369 1.408 . S
C373 C372 1.404 . S
C373 H385 0.930 . S
C374 C370 1.524 . S
C374 H386 0.956 . S
C374 H387 0.961 . S
C374 H388 0.961 . S
C375 C372 1.539 . S
C375 H389 0.958 . S
C375 H390 0.961 . S
C375 H391 0.960 . S
H376 C360 0.931 . S
H377 C365 0.929 . S
H378 C366 0.960 . S
H379 C366 0.962 . S
H380 C366 0.960 . S
H381 C367 0.961 . S
H382 C367 0.961 . S
H383 C367 0.961 . S
H384 C368 0.931 . S
H385 C373 0.930 . S
H386 C374 0.956 . S
H387 C374 0.961 . S
H388 C374 0.961 . S
H389 C375 0.958 . S
H390 C375 0.961 . S
H391 C375 0.960 . S
C392 C393 1.391 . S
C392 C394 1.394 1_455 S
C392 H408 0.931 . S
C393 C392 1.391 . S
C393 C397 1.376 . S
C394 C392 1.394 1_655 S
C394 C395 1.369 1_655 S
C394 C398 1.531 . S
C395 C394 1.369 1_455 S
C395 C396 1.410 . S
C395 C403 1.503 1_455 S
C396 C395 1.410 . S
C396 C397 1.392 . S
C396 C399 1.511 . S
C397 C393 1.376 . S
C397 C396 1.392 . S
C397 H409 0.929 . S
C398 C394 1.531 . S
C398 H410 0.960 . S
C398 H411 0.962 . S
C398 H412 0.960 . S
C399 C396 1.511 . S
C399 H413 0.961 . S
C399 H414 0.961 . S
C399 H415 0.961 . S
C400 C401 1.370 . S
C400 C402 1.363 . S
C400 H416 0.931 . S
C401 C400 1.370 . S
C401 C405 1.408 . S
C402 C400 1.363 . S
C402 C403 1.370 . S
C402 C406 1.524 . S
C403 C395 1.503 1_655 S
C403 C402 1.370 . S
C403 C404 1.403 . S
C404 C403 1.403 . S
C404 C405 1.404 . S
C404 C407 1.539 1_655 S
C405 C401 1.408 . S
C405 C404 1.404 . S
C405 H417 0.930 . S
C406 C402 1.524 . S
C406 H418 0.956 . S
C406 H419 0.961 . S
C406 H420 0.961 . S
C407 C404 1.539 1_455 S
C407 H421 0.958 . S
C407 H422 0.961 . S
C407 H423 0.960 . S
H408 C392 0.931 . S
H409 C397 0.929 . S
H410 C398 0.960 . S
H411 C398 0.962 . S
H412 C398 0.960 . S
H413 C399 0.961 . S
H414 C399 0.961 . S
H415 C399 0.961 . S
H416 C400 0.931 . S
H417 C405 0.930 . S
H418 C406 0.956 . S
H419 C406 0.961 . S
H420 C406 0.961 . S
H421 C407 0.958 . S
H422 C407 0.961 . S
H423 C407 0.960 . S
C424 C425 1.391 . S
C424 C426 1.394 . S
C424 H440 0.931 . S
C425 C424 1.391 . S
C425 C429 1.376 . S
C426 C424 1.394 . S
C426 C427 1.369 . S
C426 C430 1.531 1_545 S
C427 C426 1.369 . S
C427 C428 1.410 . S
C427 C435 1.503 1_545 S
C428 C427 1.410 . S
C428 C429 1.392 . S
C428 C431 1.511 . S
C429 C425 1.376 . S
C429 C428 1.392 . S
C429 H441 0.929 . S
C430 C426 1.531 1_565 S
C430 H442 0.960 . S
C430 H443 0.962 . S
C430 H444 0.960 . S
C431 C428 1.511 . S
C431 H445 0.961 . S
C431 H446 0.961 . S
C431 H447 0.961 . S
C432 C433 1.370 . S
C432 C434 1.363 . S
C432 H448 0.931 . S
C433 C432 1.370 . S
C433 C437 1.408 . S
C434 C432 1.363 . S
C434 C435 1.370 . S
C434 C438 1.524 . S
C435 C427 1.503 1_565 S
C435 C434 1.370 . S
C435 C436 1.405 1_565 S
C436 C435 1.405 1_545 S
C436 C437 1.392 1_545 S
C436 C439 1.548 . S
C437 C433 1.408 . S
C437 C436 1.392 1_565 S
C437 H449 0.930 . S
C438 C434 1.524 . S
C438 H450 0.956 . S
C438 H451 0.961 . S
C438 H452 0.961 . S
C439 C436 1.548 . S
C439 H453 0.958 . S
C439 H454 0.961 . S
C439 H455 0.960 . S
H440 C424 0.931 . S
H441 C429 0.929 . S
H442 C430 0.960 . S
H443 C430 0.962 . S
H444 C430 0.960 . S
H445 C431 0.961 . S
H446 C431 0.961 . S
H447 C431 0.961 . S
H448 C432 0.931 . S
H449 C437 0.930 . S
H450 C438 0.956 . S
H451 C438 0.961 . S
H452 C438 0.961 . S
H453 C439 0.958 . S
H454 C439 0.961 . S
H455 C439 0.960 . S
C456 C457 1.391 . S
C456 C458 1.394 . S
C456 H472 0.931 . S
C457 C456 1.391 . S
C457 C461 1.376 . S
C458 C456 1.394 . S
C458 C459 1.369 . S
C458 C462 1.531 . S
C459 C458 1.369 . S
C459 C460 1.410 . S
C459 C467 1.503 . S
C460 C459 1.410 . S
C460 C461 1.392 . S
C460 C463 1.511 . S
C461 C457 1.376 . S
C461 C460 1.392 . S
C461 H473 0.929 . S
C462 C458 1.531 . S
C462 H474 0.960 . S
C462 H475 0.962 . S
C462 H476 0.960 . S
C463 C460 1.511 . S
C463 H477 0.961 . S
C463 H478 0.961 . S
C463 H479 0.961 . S
C464 C465 1.370 . S
C464 C466 1.363 . S
C464 H480 0.931 . S
C465 C464 1.370 . S
C465 C469 1.408 . S
C466 C464 1.363 . S
C466 C467 1.370 . S
C466 C470 1.524 . S
C467 C459 1.503 . S
C467 C466 1.370 . S
C467 C468 1.403 . S
C468 C467 1.403 . S
C468 C469 1.404 . S
C468 C471 1.539 . S
C469 C465 1.408 . S
C469 C468 1.404 . S
C469 H481 0.930 . S
C470 C466 1.524 . S
C470 H482 0.956 . S
C470 H483 0.961 . S
C470 H484 0.961 . S
C471 C468 1.539 . S
C471 H485 0.958 . S
C471 H486 0.961 . S
C471 H487 0.960 . S
H472 C456 0.931 . S
H473 C461 0.929 . S
H474 C462 0.960 . S
H475 C462 0.962 . S
H476 C462 0.960 . S
H477 C463 0.961 . S
H478 C463 0.961 . S
H479 C463 0.961 . S
H480 C464 0.931 . S
H481 C469 0.930 . S
H482 C470 0.956 . S
H483 C470 0.961 . S
H484 C470 0.961 . S
H485 C471 0.958 . S
H486 C471 0.961 . S
H487 C471 0.960 . S
C488 C489 1.391 . S
C488 C490 1.394 . S
C488 H504 0.931 . S
C489 C488 1.391 . S
C489 C493 1.376 . S
C490 C488 1.394 . S
C490 C491 1.369 . S
C490 C494 1.531 . S
C491 C490 1.369 . S
C491 C492 1.410 1_655 S
C491 C499 1.503 1_655 S
C492 C491 1.410 1_455 S
C492 C493 1.392 1_455 S
C492 C495 1.511 . S
C493 C489 1.376 . S
C493 C492 1.392 1_655 S
C493 H505 0.929 . S
C494 C490 1.531 . S
C494 H506 0.960 . S
C494 H507 0.962 . S
C494 H508 0.960 . S
C495 C492 1.511 . S
C495 H509 0.961 . S
C495 H510 0.961 . S
C495 H511 0.961 . S
C496 C497 1.370 . S
C496 C498 1.363 . S
C496 H512 0.931 . S
C497 C496 1.370 . S
C497 C501 1.408 . S
C498 C496 1.363 . S
C498 C499 1.370 . S
C498 C502 1.524 1_455 S
C499 C491 1.503 1_455 S
C499 C498 1.370 . S
C499 C500 1.403 . S
C500 C499 1.403 . S
C500 C501 1.404 . S
C500 C503 1.539 . S
C501 C497 1.408 . S
C501 C500 1.404 . S
C501 H513 0.930 . S
C502 C498 1.524 1_655 S
C502 H514 0.956 . S
C502 H515 0.961 . S
C502 H516 0.961 . S
C503 C500 1.539 . S
C503 H517 0.958 . S
C503 H518 0.961 . S
C503 H519 0.960 . S
H504 C488 0.931 . S
H505 C493 0.929 . S
H506 C494 0.960 . S
H507 C494 0.962 . S
H508 C494 0.960 . S
H509 C495 0.961 . S
H510 C495 0.961 . S
H511 C495 0.961 . S
H512 C496 0.931 . S
H513 C501 0.930 . S
H514 C502 0.956 . S
H515 C502 0.961 . S
H516 C502 0.961 . S
H517 C503 0.958 . S
H518 C503 0.961 . S
H519 C503 0.960 . S
C520 C521 1.391 . S
C520 C522 1.394 . S
C520 H536 0.931 . S
C521 C520 1.391 . S
C521 C525 1.376 . S
C522 C520 1.394 . S
C522 C523 1.369 . S
C522 C526 1.531 . S
C523 C522 1.369 . S
C523 C524 1.410 1_565 S
C523 C531 1.503 1_565 S
C524 C523 1.410 1_545 S
C524 C525 1.392 1_545 S
C524 C527 1.511 . S
C525 C521 1.376 . S
C525 C524 1.392 1_565 S
C525 H537 0.929 1_565 S
C526 C522 1.531 . S
C526 H538 0.960 . S
C526 H539 0.962 . S
C526 H540 0.960 . S
C527 C524 1.511 . S
C527 H541 0.961 . S
C527 H542 0.961 . S
C527 H543 0.961 . S
C528 C529 1.370 . S
C528 C530 1.363 . S
C528 H544 0.931 . S
C529 C528 1.370 . S
C529 C533 1.408 . S
C530 C528 1.363 . S
C530 C531 1.370 . S
C530 C534 1.524 . S
C531 C523 1.503 1_545 S
C531 C530 1.370 . S
C531 C532 1.403 . S
C532 C531 1.403 . S
C532 C533 1.404 . S
C532 C535 1.539 . S
C533 C529 1.408 . S
C533 C532 1.404 . S
C533 H545 0.930 . S
C534 C530 1.524 . S
C534 H546 0.956 1_545 S
C534 H547 0.961 . S
C534 H548 0.961 . S
C535 C532 1.539 . S
C535 H549 0.958 1_545 S
C535 H550 0.961 . S
C535 H551 0.960 . S
H536 C520 0.931 . S
H537 C525 0.929 1_545 S
H538 C526 0.960 . S
H539 C526 0.962 . S
H540 C526 0.960 . S
H541 C527 0.961 . S
H542 C527 0.961 . S
H543 C527 0.961 . S
H544 C528 0.931 . S
H545 C533 0.930 . S
H546 C534 0.956 1_565 S
H547 C534 0.961 . S
H548 C534 0.961 . S
H549 C535 0.958 1_565 S
H550 C535 0.961 . S
H551 C535 0.960 . S
C552 C553 1.391 . S
C552 C554 1.394 . S
C552 H568 0.931 . S
C553 C552 1.391 . S
C553 C557 1.376 . S
C554 C552 1.394 . S
C554 C555 1.369 . S
C554 C558 1.531 . S
C555 C554 1.369 . S
C555 C556 1.410 . S
C555 C563 1.503 . S
C556 C555 1.410 . S
C556 C557 1.392 . S
C556 C559 1.511 . S
C557 C553 1.376 . S
C557 C556 1.392 . S
C557 H569 0.929 . S
C558 C554 1.531 . S
C558 H570 0.960 . S
C558 H571 0.962 . S
C558 H572 0.960 . S
C559 C556 1.511 . S
C559 H573 0.961 . S
C559 H574 0.961 . S
C559 H575 0.961 . S
C560 C561 1.370 . S
C560 C562 1.363 . S
C560 H576 0.931 . S
C561 C560 1.370 . S
C561 C565 1.408 . S
C562 C560 1.363 . S
C562 C563 1.370 . S
C562 C566 1.524 . S
C563 C555 1.503 . S
C563 C562 1.370 . S
C563 C564 1.403 . S
C564 C563 1.403 . S
C564 C565 1.404 . S
C564 C567 1.539 . S
C565 C561 1.408 . S
C565 C564 1.404 . S
C565 H577 0.930 . S
C566 C562 1.524 . S
C566 H578 0.956 . S
C566 H579 0.961 . S
C566 H580 0.961 . S
C567 C564 1.539 . S
C567 H581 0.958 . S
C567 H582 0.961 . S
C567 H583 0.960 . S
H568 C552 0.931 . S
H569 C557 0.929 . S
H570 C558 0.960 . S
H571 C558 0.962 . S
H572 C558 0.960 . S
H573 C559 0.961 . S
H574 C559 0.961 . S
H575 C559 0.961 . S
H576 C560 0.931 . S
H577 C565 0.930 . S
H578 C566 0.956 . S
H579 C566 0.961 . S
H580 C566 0.961 . S
H581 C567 0.958 . S
H582 C567 0.961 . S
H583 C567 0.960 . S
C584 C585 1.391 . S
C584 C586 1.397 . S
C584 H600 0.931 . S
C585 C584 1.391 . S
C585 C589 1.376 . S
C586 C584 1.397 . S
C586 C587 1.369 . S
C586 C590 1.527 1_655 S
C587 C586 1.369 . S
C587 C588 1.410 . S
C587 C595 1.503 1_655 S
C588 C587 1.410 . S
C588 C589 1.392 . S
C588 C591 1.511 . S
C589 C585 1.376 . S
C589 C588 1.392 . S
C589 H601 0.929 . S
C590 C586 1.527 1_455 S
C590 H602 0.960 . S
C590 H603 0.962 . S
C590 H604 0.960 . S
C591 C588 1.511 . S
C591 H605 0.961 . S
C591 H606 0.961 . S
C591 H607 0.961 . S
C592 C593 1.370 . S
C592 C594 1.363 . S
C592 H608 0.931 . S
C593 C592 1.370 . S
C593 C597 1.408 . S
C594 C592 1.363 . S
C594 C595 1.370 . S
C594 C598 1.524 . S
C595 C587 1.503 1_455 S
C595 C594 1.370 . S
C595 C596 1.403 1_455 S
C596 C595 1.403 1_655 S
C596 C597 1.404 1_655 S
C596 C599 1.539 . S
C597 C593 1.408 . S
C597 C596 1.404 1_455 S
C597 H609 0.930 1_455 S
C598 C594 1.524 . S
C598 H610 0.956 . S
C598 H611 0.961 . S
C598 H612 0.961 . S
C599 C596 1.539 . S
C599 H613 0.958 . S
C599 H614 0.961 . S
C599 H615 0.960 . S
H600 C584 0.931 . S
H601 C589 0.929 . S
H602 C590 0.960 . S
H603 C590 0.962 . S
H604 C590 0.960 . S
H605 C591 0.961 . S
H606 C591 0.961 . S
H607 C591 0.961 . S
H608 C592 0.931 . S
H609 C597 0.930 1_655 S
H610 C598 0.956 . S
H611 C598 0.961 . S
H612 C598 0.961 . S
H613 C599 0.958 . S
H614 C599 0.961 . S
H615 C599 0.960 . S
C616 C617 1.391 . S
C616 C618 1.394 . S
C616 H632 0.931 . S
C617 C616 1.391 . S
C617 C621 1.376 . S
C618 C616 1.394 . S
C618 C619 1.369 . S
C618 C622 1.531 1_556 S
C619 C618 1.369 . S
C619 C620 1.410 . S
C619 C627 1.503 1_566 S
C620 C619 1.410 . S
C620 C621 1.392 . S
C620 C623 1.511 1_565 S
C621 C617 1.376 . S
C621 C620 1.392 . S
C621 H633 0.929 . S
C622 C618 1.531 1_554 S
C622 H634 0.960 . S
C622 H635 0.962 . S
C622 H636 0.960 1_554 S
C623 C620 1.511 1_545 S
C623 H637 0.961 . S
C623 H638 0.961 . S
C623 H639 0.961 . S
C624 C625 1.370 . S
C624 C626 1.363 . S
C624 H640 0.931 . S
C625 C624 1.370 . S
C625 C629 1.408 . S
C626 C624 1.363 . S
C626 C627 1.370 . S
C626 C630 1.524 1_554 S
C627 C619 1.503 1_544 S
C627 C626 1.370 . S
C627 C628 1.403 1_545 S
C628 C627 1.403 1_565 S
C628 C629 1.404 1_565 S
C628 C631 1.539 . S
C629 C625 1.408 . S
C629 C628 1.404 1_545 S
C629 H641 0.930 1_545 S
C630 C626 1.524 1_556 S
C630 H642 0.956 . S
C630 H643 0.961 . S
C630 H644 0.961 1_556 S
C631 C628 1.539 . S
C631 H645 0.958 . S
C631 H646 0.961 . S
C631 H647 0.960 . S
H632 C616 0.931 . S
H633 C621 0.929 . S
H634 C622 0.960 . S
H635 C622 0.962 . S
H636 C622 0.960 1_556 S
H637 C623 0.961 . S
H638 C623 0.961 . S
H639 C623 0.961 . S
H640 C624 0.931 . S
H641 C629 0.930 1_565 S
H642 C630 0.956 . S
H643 C630 0.961 . S
H644 C630 0.961 1_554 S
H645 C631 0.958 . S
H646 C631 0.961 . S
H647 C631 0.960 . S
C648 C649 1.391 . S
C648 C650 1.394 . S
C648 H664 0.931 . S
C649 C648 1.391 . S
C649 C653 1.376 . S
C650 C648 1.394 . S
C650 C651 1.369 . S
C650 C654 1.531 . S
C651 C650 1.369 . S
C651 C652 1.410 . S
C651 C659 1.503 . S
C652 C651 1.410 . S
C652 C653 1.392 . S
C652 C655 1.511 . S
C653 C649 1.376 . S
C653 C652 1.392 . S
C653 H665 0.929 . S
C654 C650 1.531 . S
C654 H666 0.960 . S
C654 H667 0.962 . S
C654 H668 0.960 . S
C655 C652 1.511 . S
C655 H669 0.961 . S
C655 H670 0.961 . S
C655 H671 0.961 . S
C656 C657 1.370 . S
C656 C658 1.363 . S
C656 H672 0.931 . S
C657 C656 1.370 . S
C657 C661 1.408 . S
C658 C656 1.363 . S
C658 C659 1.370 . S
C658 C662 1.524 . S
C659 C651 1.503 . S
C659 C658 1.370 . S
C659 C660 1.403 . S
C660 C659 1.403 . S
C660 C661 1.404 . S
C660 C663 1.539 . S
C661 C657 1.408 . S
C661 C660 1.404 . S
C661 H673 0.930 . S
C662 C658 1.524 . S
C662 H674 0.956 . S
C662 H675 0.961 . S
C662 H676 0.961 . S
C663 C660 1.539 . S
C663 H677 0.958 . S
C663 H678 0.961 . S
C663 H679 0.960 . S
H664 C648 0.931 . S
H665 C653 0.929 . S
H666 C654 0.960 . S
H667 C654 0.962 . S
H668 C654 0.960 . S
H669 C655 0.961 . S
H670 C655 0.961 . S
H671 C655 0.961 . S
H672 C656 0.931 . S
H673 C661 0.930 . S
H674 C662 0.956 . S
H675 C662 0.961 . S
H676 C662 0.961 . S
H677 C663 0.958 . S
H678 C663 0.961 . S
H679 C663 0.960 . S
C680 C681 1.391 . S
C680 C682 1.394 . S
C680 H696 0.931 . S
C681 C680 1.391 . S
C681 C685 1.376 . S
C682 C680 1.394 . S
C682 C683 1.369 . S
C682 C686 1.531 . S
C683 C682 1.369 . S
C683 C684 1.410 1_455 S
C683 C691 1.503 1_455 S
C684 C683 1.410 1_655 S
C684 C685 1.392 1_655 S
C684 C687 1.511 . S
C685 C681 1.376 . S
C685 C684 1.392 1_455 S
C685 H697 0.929 1_455 S
C686 C682 1.531 . S
C686 H698 0.960 . S
C686 H699 0.962 . S
C686 H700 0.960 . S
C687 C684 1.511 . S
C687 H701 0.961 . S
C687 H702 0.961 . S
C687 H703 0.961 . S
C688 C689 1.370 . S
C688 C690 1.363 . S
C688 H704 0.931 . S
C689 C688 1.370 . S
C689 C693 1.408 . S
C690 C688 1.363 . S
C690 C691 1.370 . S
C690 C694 1.524 . S
C691 C683 1.503 1_655 S
C691 C690 1.370 . S
C691 C692 1.403 . S
C692 C691 1.403 . S
C692 C693 1.404 . S
C692 C695 1.539 1_655 S
C693 C689 1.408 . S
C693 C692 1.404 . S
C693 H705 0.930 . S
C694 C690 1.524 . S
C694 H706 0.956 1_655 S
C694 H707 0.961 . S
C694 H708 0.961 . S
C695 C692 1.539 1_455 S
C695 H709 0.958 . S
C695 H710 0.961 1_455 S
C695 H711 0.960 . S
H696 C680 0.931 . S
H697 C685 0.929 1_655 S
H698 C686 0.960 . S
H699 C686 0.962 . S
H700 C686 0.960 . S
H701 C687 0.961 . S
H702 C687 0.961 . S
H703 C687 0.961 . S
H704 C688 0.931 . S
H705 C693 0.930 . S
H706 C694 0.956 1_455 S
H707 C694 0.961 . S
H708 C694 0.961 . S
H709 C695 0.958 . S
H710 C695 0.961 1_655 S
H711 C695 0.960 . S
C712 C713 1.391 . S
C712 C714 1.394 1_565 S
C712 H728 0.931 . S
C713 C712 1.391 . S
C713 C717 1.376 . S
C714 C712 1.394 1_545 S
C714 C715 1.357 1_545 S
C714 C718 1.531 . S
C715 C714 1.357 1_565 S
C715 C716 1.430 . S
C715 C723 1.496 1_564 S
C716 C715 1.430 . S
C716 C717 1.392 . S
C716 C719 1.511 . S
C717 C713 1.376 . S
C717 C716 1.392 . S
C717 H729 0.929 . S
C718 C714 1.531 . S
C718 H730 0.960 . S
C718 H731 0.962 . S
C718 H732 0.960 . S
C719 C716 1.511 . S
C719 H733 0.961 . S
C719 H734 0.961 1_554 S
C719 H735 0.961 . S
C720 C721 1.370 . S
C720 C722 1.363 1_545 S
C720 H736 0.931 1_545 S
C721 C720 1.370 . S
C721 C725 1.408 . S
C722 C720 1.363 1_565 S
C722 C723 1.370 1_565 S
C722 C726 1.524 . S
C723 C715 1.496 1_546 S
C723 C722 1.370 1_545 S
C723 C724 1.403 . S
C724 C723 1.403 . S
C724 C725 1.404 . S
C724 C727 1.539 1_556 S
C725 C721 1.408 . S
C725 C724 1.404 . S
C725 H737 0.930 . S
C726 C722 1.524 . S
C726 H738 0.956 . S
C726 H739 0.961 . S
C726 H740 0.961 . S
C727 C724 1.539 1_554 S
C727 H741 0.958 . S
C727 H742 0.961 1_554 S
C727 H743 0.960 . S
H728 C712 0.931 . S
H729 C717 0.929 . S
H730 C718 0.960 . S
H731 C718 0.962 . S
H732 C718 0.960 . S
H733 C719 0.961 . S
H734 C719 0.961 1_556 S
H735 C719 0.961 . S
H736 C720 0.931 1_565 S
H737 C725 0.930 . S
H738 C726 0.956 . S
H739 C726 0.961 . S
H740 C726 0.961 . S
H741 C727 0.958 . S
H742 C727 0.961 1_556 S
H743 C727 0.960 . S
C744 C745 1.391 . S
C744 C746 1.394 . S
C744 H760 0.931 . S
C745 C744 1.391 . S
C745 C749 1.376 . S
C746 C744 1.394 . S
C746 C747 1.369 . S
C746 C750 1.531 . S
C747 C746 1.369 . S
C747 C748 1.410 . S
C747 C755 1.503 1_655 S
C748 C747 1.410 . S
C748 C749 1.392 . S
C748 C751 1.511 . S
C749 C745 1.376 . S
C749 C748 1.392 . S
C749 H761 0.929 . S
C750 C746 1.531 . S
C750 H762 0.960 . S
C750 H763 0.962 . S
C750 H764 0.960 . S
C751 C748 1.511 . S
C751 H765 0.961 . S
C751 H766 0.961 1_655 S
C751 H767 0.961 . S
C752 C753 1.370 . S
C752 C754 1.363 . S
C752 H768 0.931 . S
C753 C752 1.370 . S
C753 C757 1.408 . S
C754 C752 1.363 . S
C754 C755 1.370 . S
C754 C758 1.524 . S
C755 C747 1.503 1_455 S
C755 C754 1.370 . S
C755 C756 1.403 . S
C756 C755 1.403 . S
C756 C757 1.404 . S
C756 C759 1.539 . S
C757 C753 1.408 . S
C757 C756 1.404 . S
C757 H769 0.930 . S
C758 C754 1.524 . S
C758 H770 0.956 . S
C758 H771 0.961 . S
C758 H772 0.961 . S
C759 C756 1.539 . S
C759 H773 0.958 . S
C759 H774 0.961 . S
C759 H775 0.960 1_455 S
H760 C744 0.931 . S
H761 C749 0.929 . S
H762 C750 0.960 . S
H763 C750 0.962 . S
H764 C750 0.960 . S
H765 C751 0.961 . S
H766 C751 0.961 1_455 S
H767 C751 0.961 . S
H768 C752 0.931 . S
H769 C757 0.930 . S
H770 C758 0.956 . S
H771 C758 0.961 . S
H772 C758 0.961 . S
H773 C759 0.958 . S
H774 C759 0.961 . S
H775 C759 0.960 1_655 S
C776 C777 1.391 . S
C776 C778 1.394 . S
C776 H792 0.931 . S
C777 C776 1.391 . S
C777 C781 1.376 . S
C778 C776 1.394 . S
C778 C779 1.369 . S
C778 C782 1.531 . S
C779 C778 1.369 . S
C779 C780 1.410 . S
C779 C787 1.503 1_545 S
C780 C779 1.410 . S
C780 C781 1.392 . S
C780 C783 1.511 . S
C781 C777 1.376 . S
C781 C780 1.392 . S
C781 H793 0.929 . S
C782 C778 1.531 . S
C782 H794 0.960 1_545 S
C782 H795 0.962 . S
C782 H796 0.960 . S
C783 C780 1.511 . S
C783 H797 0.961 . S
C783 H798 0.961 1_545 S
C783 H799 0.961 . S
C784 C785 1.370 . S
C784 C786 1.363 . S
C784 H800 0.931 . S
C785 C784 1.370 . S
C785 C789 1.408 . S
C786 C784 1.363 . S
C786 C787 1.370 . S
C786 C790 1.524 . S
C787 C779 1.503 1_565 S
C787 C786 1.370 . S
C787 C788 1.403 . S
C788 C787 1.403 . S
C788 C789 1.404 . S
C788 C791 1.539 . S
C789 C785 1.408 . S
C789 C788 1.404 . S
C789 H801 0.930 . S
C790 C786 1.524 . S
C790 H802 0.956 1_565 S
C790 H803 0.961 1_565 S
C790 H804 0.961 . S
C791 C788 1.539 . S
C791 H805 0.958 . S
C791 H806 0.961 . S
C791 H807 0.960 . S
H792 C776 0.931 . S
H793 C781 0.929 . S
H794 C782 0.960 1_565 S
H795 C782 0.962 . S
H796 C782 0.960 . S
H797 C783 0.961 . S
H798 C783 0.961 1_565 S
H799 C783 0.961 . S
H800 C784 0.931 . S
H801 C789 0.930 . S
H802 C790 0.956 1_545 S
H803 C790 0.961 1_545 S
H804 C790 0.961 . S
H805 C791 0.958 . S
H806 C791 0.961 . S
H807 C791 0.960 . S
C808 C809 1.391 . S
C808 C810 1.394 . S
C808 H824 0.931 . S
C809 C808 1.391 . S
C809 C813 1.376 . S
C810 C808 1.394 . S
C810 C811 1.369 . S
C810 C814 1.531 . S
C811 C810 1.369 . S
C811 C812 1.410 . S
C811 C819 1.503 . S
C812 C811 1.410 . S
C812 C813 1.392 . S
C812 C815 1.511 . S
C813 C809 1.376 . S
C813 C812 1.392 . S
C813 H825 0.929 . S
C814 C810 1.531 . S
C814 H826 0.960 . S
C814 H827 0.962 . S
C814 H828 0.960 . S
C815 C812 1.511 . S
C815 H829 0.961 . S
C815 H830 0.961 . S
C815 H831 0.961 . S
C816 C817 1.370 . S
C816 C818 1.363 . S
C816 H832 0.931 . S
C817 C816 1.370 . S
C817 C821 1.408 . S
C818 C816 1.363 . S
C818 C819 1.370 . S
C818 C822 1.524 . S
C819 C811 1.503 . S
C819 C818 1.370 . S
C819 C820 1.403 . S
C820 C819 1.403 . S
C820 C821 1.404 . S
C820 C823 1.539 . S
C821 C817 1.408 . S
C821 C820 1.404 . S
C821 H833 0.930 . S
C822 C818 1.524 . S
C822 H834 0.956 . S
C822 H835 0.961 . S
C822 H836 0.961 . S
C823 C820 1.539 . S
C823 H837 0.958 . S
C823 H838 0.961 . S
C823 H839 0.960 . S
H824 C808 0.931 . S
H825 C813 0.929 . S
H826 C814 0.960 . S
H827 C814 0.962 . S
H828 C814 0.960 . S
H829 C815 0.961 . S
H830 C815 0.961 . S
H831 C815 0.961 . S
H832 C816 0.931 . S
H833 C821 0.930 . S
H834 C822 0.956 . S
H835 C822 0.961 . S
H836 C822 0.961 . S
H837 C823 0.958 . S
H838 C823 0.961 . S
H839 C823 0.960 . S
C840 C841 1.391 . S
C840 C842 1.394 . S
C840 H856 0.931 . S
C841 C840 1.391 . S
C841 C845 1.376 . S
C842 C840 1.394 . S
C842 C843 1.369 . S
C842 C846 1.531 . S
C843 C842 1.369 . S
C843 C844 1.410 . S
C843 C851 1.503 1_655 S
C844 C843 1.410 . S
C844 C845 1.392 . S
C844 C847 1.511 . S
C845 C841 1.376 . S
C845 C844 1.392 . S
C845 H857 0.929 . S
C846 C842 1.531 . S
C846 H858 0.960 . S
C846 H859 0.962 . S
C846 H860 0.960 . S
C847 C844 1.511 . S
C847 H861 0.961 . S
C847 H862 0.961 1_655 S
C847 H863 0.961 . S
C848 C849 1.370 . S
C848 C850 1.363 . S
C848 H864 0.931 . S
C849 C848 1.370 . S
C849 C853 1.408 . S
C850 C848 1.363 . S
C850 C851 1.370 . S
C850 C854 1.524 . S
C851 C843 1.503 1_455 S
C851 C850 1.370 . S
C851 C852 1.403 . S
C852 C851 1.403 . S
C852 C853 1.404 . S
C852 C855 1.539 . S
C853 C849 1.408 . S
C853 C852 1.404 . S
C853 H865 0.930 . S
C854 C850 1.524 . S
C854 H866 0.956 . S
C854 H867 0.961 . S
C854 H868 0.961 . S
C855 C852 1.539 . S
C855 H869 0.958 . S
C855 H870 0.961 . S
C855 H871 0.960 1_455 S
H856 C840 0.931 . S
H857 C845 0.929 . S
H858 C846 0.960 . S
H859 C846 0.962 . S
H860 C846 0.960 . S
H861 C847 0.961 . S
H862 C847 0.961 1_455 S
H863 C847 0.961 . S
H864 C848 0.931 . S
H865 C853 0.930 . S
H866 C854 0.956 . S
H867 C854 0.961 . S
H868 C854 0.961 . S
H869 C855 0.958 . S
H870 C855 0.961 . S
H871 C855 0.960 1_655 S
C872 C873 1.391 . S
C872 C874 1.394 . S
C872 H888 0.931 . S
C873 C872 1.391 . S
C873 C877 1.376 . S
C874 C872 1.394 . S
C874 C875 1.369 . S
C874 C878 1.531 . S
C875 C874 1.369 . S
C875 C876 1.410 . S
C875 C883 1.503 1_565 S
C876 C875 1.410 . S
C876 C877 1.392 . S
C876 C879 1.511 . S
C877 C873 1.376 . S
C877 C876 1.392 . S
C877 H889 0.929 . S
C878 C874 1.531 . S
C878 H890 0.960 . S
C878 H891 0.962 . S
C878 H892 0.960 . S
C879 C876 1.511 . S
C879 H893 0.961 . S
C879 H894 0.961 1_565 S
C879 H895 0.961 . S
C880 C881 1.370 . S
C880 C882 1.363 . S
C880 H896 0.931 . S
C881 C880 1.370 . S
C881 C885 1.408 . S
C882 C880 1.363 . S
C882 C883 1.370 . S
C882 C886 1.524 . S
C883 C875 1.503 1_545 S
C883 C882 1.370 . S
C883 C884 1.403 . S
C884 C883 1.403 . S
C884 C885 1.404 . S
C884 C887 1.539 . S
C885 C881 1.408 . S
C885 C884 1.404 . S
C885 H897 0.930 . S
C886 C882 1.524 . S
C886 H898 0.956 . S
C886 H899 0.961 . S
C886 H900 0.961 . S
C887 C884 1.539 . S
C887 H901 0.958 . S
C887 H902 0.961 . S
C887 H903 0.960 1_545 S
H888 C872 0.931 . S
H889 C877 0.929 . S
H890 C878 0.960 . S
H891 C878 0.962 . S
H892 C878 0.960 . S
H893 C879 0.961 . S
H894 C879 0.961 1_545 S
H895 C879 0.961 . S
H896 C880 0.931 . S
H897 C885 0.930 . S
H898 C886 0.956 . S
H899 C886 0.961 . S
H900 C886 0.961 . S
H901 C887 0.958 . S
H902 C887 0.961 . S
H903 C887 0.960 1_565 S
C904 C905 1.391 . S
C904 C906 1.394 . S
C904 H920 0.931 . S
C905 C904 1.391 . S
C905 C909 1.376 . S
C906 C904 1.394 . S
C906 C907 1.369 . S
C906 C910 1.531 . S
C907 C906 1.369 . S
C907 C908 1.410 . S
C907 C915 1.503 . S
C908 C907 1.410 . S
C908 C909 1.392 . S
C908 C911 1.511 . S
C909 C905 1.376 . S
C909 C908 1.392 . S
C909 H921 0.929 . S
C910 C906 1.531 . S
C910 H922 0.960 . S
C910 H923 0.962 . S
C910 H924 0.960 . S
C911 C908 1.511 . S
C911 H925 0.961 . S
C911 H926 0.961 . S
C911 H927 0.961 . S
C912 C913 1.370 . S
C912 C914 1.363 . S
C912 H928 0.931 . S
C913 C912 1.370 . S
C913 C917 1.408 . S
C914 C912 1.363 . S
C914 C915 1.370 . S
C914 C918 1.524 . S
C915 C907 1.503 . S
C915 C914 1.370 . S
C915 C916 1.403 . S
C916 C915 1.403 . S
C916 C917 1.404 . S
C916 C919 1.539 . S
C917 C913 1.408 . S
C917 C916 1.404 . S
C917 H929 0.930 . S
C918 C914 1.524 . S
C918 H930 0.956 . S
C918 H931 0.961 . S
C918 H932 0.961 . S
C919 C916 1.539 . S
C919 H933 0.958 . S
C919 H934 0.961 . S
C919 H935 0.960 . S
H920 C904 0.931 . S
H921 C909 0.929 . S
H922 C910 0.960 . S
H923 C910 0.962 . S
H924 C910 0.960 . S
H925 C911 0.961 . S
H926 C911 0.961 . S
H927 C911 0.961 . S
H928 C912 0.931 . S
H929 C917 0.930 . S
H930 C918 0.956 . S
H931 C918 0.961 . S
H932 C918 0.961 . S
H933 C919 0.958 . S
H934 C919 0.961 . S
H935 C919 0.960 . S
C169 C120 2.140 . S
C177 C8 2.147 . S
C201 C22 2.148 . S
C209 C134 2.145 . S
C233 C36 2.143 . S
C241 C148 2.141 . S
C265 C50 2.129 . S
C273 C162 2.143 . S
C297 C92 2.132 . S
C305 C64 2.139 . S
C329 C78 2.129 . S
C337 C106 2.142 . S
C361 C51 0.795 . S
C369 C9 0.792 . S
C393 C65 0.823 . S
C401 C23 0.799 . S
C425 C79 0.806 . S
C433 C37 0.796 . S
C457 C93 0.699 . S
C465 C135 0.738 . S
C489 C107 0.731 . S
C497 C149 0.742 . S
C521 C121 0.700 . S
C529 C163 0.738 . S
C553 C7 1.541 . S
C561 C133 1.517 . S
C585 C21 1.487 . S
C593 C147 1.519 . S
C617 C35 1.519 . S
C625 C161 1.531 . S
C649 C91 1.517 . S
C657 C49 1.508 . S
C681 C63 1.537 . S
C689 C105 1.530 . S
C713 C119 1.519 . S
C721 C77 1.508 . S
C745 C160 1.214 . S
C753 C6 1.218 . S
C777 C20 1.216 . S
C785 C90 1.211 . S
C809 C104 1.203 . S
C817 C34 1.216 . S
C841 C48 1.216 . S
C849 C118 1.218 . S
C873 C62 1.213 . S
C881 C132 1.218 . S
C905 C146 1.208 . S
C913 C76 1.218 . S
