# Generated by pormake.
# Topology fnl, (5)-cn, num edge types: 1
# Building blocks:
#     Node 0, Type 0, BuildingBlock: BEQFEK_clean_sbu_0, # of connection points: 5
#     Node 1, Type 0, BuildingBlock: BEQFEK_clean_sbu_0, # of connection points: 5
#     Node 2, Type 0, BuildingBlock: BEQFEK_clean_sbu_0, # of connection points: 5
#     Node 3, Type 0, BuildingBlock: BEQFEK_clean_sbu_0, # of connection points: 5
#     Node 4, Type 0, BuildingBlock: BEQFEK_clean_sbu_0, # of connection points: 5
#     Node 5, Type 0, BuildingBlock: BEQFEK_clean_sbu_0, # of connection points: 5
#     Node 6, Type 0, BuildingBlock: BEQFEK_clean_sbu_0, # of connection points: 5
#     Node 7, Type 0, BuildingBlock: BEQFEK_clean_sbu_0, # of connection points: 5
#     Node 8, Type 0, BuildingBlock: BEQFEK_clean_sbu_0, # of connection points: 5
#     Node 9, Type 0, BuildingBlock: BEQFEK_clean_sbu_0, # of connection points: 5
#     Node 10, Type 0, BuildingBlock: BEQFEK_clean_sbu_0, # of connection points: 5
#     Node 11, Type 0, BuildingBlock: BEQFEK_clean_sbu_0, # of connection points: 5
#     Node 12, Type 0, BuildingBlock: BEQFEK_clean_sbu_0, # of connection points: 5
#     Node 13, Type 0, BuildingBlock: BEQFEK_clean_sbu_0, # of connection points: 5
#     Node 14, Type 0, BuildingBlock: BEQFEK_clean_sbu_0, # of connection points: 5
#     Node 15, Type 0, BuildingBlock: BEQFEK_clean_sbu_0, # of connection points: 5
#     Edge 16, Type (0, 0), BuildingBlock: AJUNOK_clean_linker_0, # of connection points: 2
#     Edge 17, Type (0, 0), BuildingBlock: AJUNOK_clean_linker_0, # of connection points: 2
#     Edge 18, Type (0, 0), BuildingBlock: AJUNOK_clean_linker_0, # of connection points: 2
#     Edge 19, Type (0, 0), BuildingBlock: AJUNOK_clean_linker_0, # of connection points: 2
#     Edge 20, Type (0, 0), BuildingBlock: AJUNOK_clean_linker_0, # of connection points: 2
#     Edge 21, Type (0, 0), BuildingBlock: AJUNOK_clean_linker_0, # of connection points: 2
#     Edge 22, Type (0, 0), BuildingBlock: AJUNOK_clean_linker_0, # of connection points: 2
#     Edge 23, Type (0, 0), BuildingBlock: AJUNOK_clean_linker_0, # of connection points: 2
#     Edge 24, Type (0, 0), BuildingBlock: AJUNOK_clean_linker_0, # of connection points: 2
#     Edge 25, Type (0, 0), BuildingBlock: AJUNOK_clean_linker_0, # of connection points: 2
#     Edge 26, Type (0, 0), BuildingBlock: AJUNOK_clean_linker_0, # of connection points: 2
#     Edge 27, Type (0, 0), BuildingBlock: AJUNOK_clean_linker_0, # of connection points: 2
#     Edge 28, Type (0, 0), BuildingBlock: AJUNOK_clean_linker_0, # of connection points: 2
#     Edge 29, Type (0, 0), BuildingBlock: AJUNOK_clean_linker_0, # of connection points: 2
#     Edge 30, Type (0, 0), BuildingBlock: AJUNOK_clean_linker_0, # of connection points: 2
#     Edge 31, Type (0, 0), BuildingBlock: AJUNOK_clean_linker_0, # of connection points: 2
#     Edge 32, Type (0, 0), BuildingBlock: AJUNOK_clean_linker_0, # of connection points: 2
#     Edge 33, Type (0, 0), BuildingBlock: AJUNOK_clean_linker_0, # of connection points: 2
#     Edge 34, Type (0, 0), BuildingBlock: AJUNOK_clean_linker_0, # of connection points: 2
#     Edge 35, Type (0, 0), BuildingBlock: AJUNOK_clean_linker_0, # of connection points: 2
#     Edge 36, Type (0, 0), BuildingBlock: AJUNOK_clean_linker_0, # of connection points: 2
#     Edge 37, Type (0, 0), BuildingBlock: AJUNOK_clean_linker_0, # of connection points: 2
#     Edge 38, Type (0, 0), BuildingBlock: AJUNOK_clean_linker_0, # of connection points: 2
#     Edge 39, Type (0, 0), BuildingBlock: AJUNOK_clean_linker_0, # of connection points: 2
#     Edge 40, Type (0, 0), BuildingBlock: AJUNOK_clean_linker_0, # of connection points: 2
#     Edge 41, Type (0, 0), BuildingBlock: AJUNOK_clean_linker_0, # of connection points: 2
#     Edge 42, Type (0, 0), BuildingBlock: AJUNOK_clean_linker_0, # of connection points: 2
#     Edge 43, Type (0, 0), BuildingBlock: AJUNOK_clean_linker_0, # of connection points: 2
#     Edge 44, Type (0, 0), BuildingBlock: AJUNOK_clean_linker_0, # of connection points: 2
#     Edge 45, Type (0, 0), BuildingBlock: AJUNOK_clean_linker_0, # of connection points: 2
#     Edge 46, Type (0, 0), BuildingBlock: AJUNOK_clean_linker_0, # of connection points: 2
#     Edge 47, Type (0, 0), BuildingBlock: AJUNOK_clean_linker_0, # of connection points: 2
#     Edge 48, Type (0, 0), BuildingBlock: AJUNOK_clean_linker_0, # of connection points: 2
#     Edge 49, Type (0, 0), BuildingBlock: AJUNOK_clean_linker_0, # of connection points: 2
#     Edge 50, Type (0, 0), BuildingBlock: AJUNOK_clean_linker_0, # of connection points: 2
#     Edge 51, Type (0, 0), BuildingBlock: AJUNOK_clean_linker_0, # of connection points: 2
#     Edge 52, Type (0, 0), BuildingBlock: AJUNOK_clean_linker_0, # of connection points: 2
#     Edge 53, Type (0, 0), BuildingBlock: AJUNOK_clean_linker_0, # of connection points: 2
#     Edge 54, Type (0, 0), BuildingBlock: AJUNOK_clean_linker_0, # of connection points: 2
#     Edge 55, Type (0, 0), BuildingBlock: AJUNOK_clean_linker_0, # of connection points: 2
# Relax obj value: 0.413
# Max RMSD: 0.243
# Mean RMSD: 0.243
data_MOF--net-fnl--node1-BEQFEK_clean_sbu_0--edge1-AJUNOK_clean_linker_0
_symmetry_space_group_name_H-M    P1
_symmetry_Int_Tables_number       1
_symmetry_cell_setting            triclinic
loop_
_symmetry_equiv_pos_as_xyz
'x, y, z'
_cell_length_a     28.496674
_cell_length_b     28.555143
_cell_length_c     75.841312
_cell_angle_alpha  90.217773
_cell_angle_beta   90.03625
_cell_angle_gamma 90.069299
loop_
_atom_site_label
_atom_site_type_symbol
_atom_site_fract_x
_atom_site_fract_y
_atom_site_fract_z
_atom_type_partial_charge
Co0 Co 0.01642 0.08196 0.07911 0.0
Co1 Co 0.00319 0.17939 0.09511 0.0
C2 C 0.92842 0.1105 0.10049 0.0
O3 O 0.95544 0.0836 0.09175 0.0
O4 O 0.9401 0.15328 0.10317 0.0
C5 C 0.9839 0.02527 0.05097 0.0
O6 O 0.95134 0.05712 0.04858 0.0
C7 C 0.98866 0.28278 0.1008 0.0
C8 C 0.06244 0.30371 0.10531 0.0
C9 C 0.01777 0.3217 0.10326 0.0
N10 N 0.01544 0.24391 0.101 0.0
N11 N 0.05932 0.25688 0.10393 0.0
C12 C 0.93638 0.28202 0.09903 0.0
H13 H 0.92187 0.25128 0.1061 0.0
H14 H 0.9267 0.2783 0.08495 0.0
H15 H 0.92069 0.31472 0.10434 0.0
C16 C 0.04261 0.13265 0.04823 0.0
N17 N 0.02891 0.13238 0.06511 0.0
N18 N 0.01241 0.17332 0.06973 0.0
C19 C 0.01053 0.19991 0.05492 0.0
C20 C 0.02974 0.17447 0.04083 0.0
C21 C 0.06689 0.09304 0.03904 0.0
H22 H 0.07859 0.066 0.0485 0.0
H23 H 0.04318 0.07804 0.02889 0.0
H24 H 0.09842 0.10625 0.03209 0.0
O25 O 0.06638 0.07514 0.0955 0.0
O26 O 0.05394 0.14308 0.1091 0.0
H27 H 0.00716 0.2708 0.06393 0.0
H28 H 0.99394 0.26316 0.04072 0.0
C29 C 0.98982 0.24785 0.05407 0.0
H30 H 0.95199 0.2458 0.05739 0.0
H31 H 0.08761 0.23374 0.10433 0.0
O32 O 0.0127 0.02872 0.06372 0.0
C33 C 0.0762 0.10428 0.10757 0.0
Co34 Co 0.34179 0.89261 0.33197 0.0
Co35 Co 0.24851 0.92732 0.34631 0.0
C36 C 0.30057 0.83865 0.35931 0.0
O37 O 0.32576 0.83833 0.34565 0.0
O38 O 0.2707 0.87159 0.36182 0.0
C39 C 0.41598 0.83655 0.31784 0.0
O40 O 0.39239 0.79919 0.32263 0.0
C41 C 0.14503 0.92017 0.3504 0.0
C42 C 0.12777 0.99143 0.35977 0.0
C43 C 0.10765 0.94881 0.35533 0.0
N44 N 0.18511 0.94493 0.35183 0.0
N45 N 0.17442 0.98744 0.35748 0.0
C46 C 0.14331 0.86958 0.34525 0.0
H47 H 0.17806 0.85296 0.34732 0.0
H48 H 0.13424 0.86649 0.33108 0.0
H49 H 0.11599 0.85098 0.35297 0.0
C50 C 0.30156 0.9089 0.29809 0.0
N51 N 0.29757 0.90695 0.31564 0.0
N52 N 0.25572 0.92053 0.32072 0.0
C53 C 0.23096 0.93123 0.30595 0.0
C54 C 0.25953 0.92347 0.29122 0.0
C55 C 0.34636 0.90097 0.28811 0.0
H56 H 0.37467 0.92271 0.29396 0.0
H57 H 0.35637 0.86355 0.28905 0.0
H58 H 0.34326 0.91045 0.274 0.0
O59 O 0.35685 0.94766 0.34689 0.0
O60 O 0.28953 0.98028 0.35456 0.0
H61 H 0.17754 0.97568 0.31673 0.0
H62 H 0.17349 0.96636 0.29304 0.0
C63 C 0.182 0.94989 0.30589 0.0
H64 H 0.15716 0.92063 0.30815 0.0
H65 H 0.19898 0.014 0.35961 0.0
O66 O 0.39864 0.87692 0.32012 0.0
C67 C 0.33428 0.9806 0.35439 0.0
Co68 Co 0.51855 0.2719 0.58554 0.0
Co69 Co 0.50959 0.1681 0.59684 0.0
C70 C 0.59432 0.22762 0.6069 0.0
O71 O 0.57643 0.26141 0.59844 0.0
O72 O 0.57286 0.18819 0.60811 0.0
C73 C 0.52964 0.37082 0.567 0.0
O74 O 0.57094 0.38332 0.56094 0.0
C75 C 0.52407 0.06343 0.59969 0.0
C76 C 0.45008 0.04068 0.60127 0.0
C77 C 0.4955 0.02362 0.60073 0.0
N78 N 0.49641 0.10181 0.59937 0.0
N79 N 0.45233 0.08764 0.60039 0.0
C80 C 0.57651 0.06551 0.59994 0.0
H81 H 0.58837 0.09643 0.60763 0.0
H82 H 0.58957 0.06964 0.58625 0.0
H83 H 0.59164 0.03323 0.60573 0.0
C84 C 0.50472 0.23415 0.55033 0.0
N85 N 0.50958 0.22802 0.5678 0.0
N86 N 0.50638 0.18336 0.57172 0.0
C87 C 0.49972 0.15939 0.5564 0.0
C88 C 0.49785 0.19127 0.54243 0.0
C89 C 0.50864 0.28032 0.54114 0.0
H90 H 0.54324 0.29611 0.5442 0.0
H91 H 0.50588 0.27704 0.52661 0.0
H92 H 0.48034 0.30382 0.54587 0.0
O93 O 0.46405 0.27488 0.601 0.0
O94 O 0.45683 0.20161 0.61033 0.0
H95 H 0.49148 0.09565 0.54124 0.0
H96 H 0.52511 0.09037 0.56146 0.0
C97 C 0.49445 0.10742 0.55516 0.0
H98 H 0.46263 0.09653 0.5625 0.0
H99 H 0.42354 0.11019 0.60027 0.0
O100 O 0.52514 0.33161 0.57435 0.0
C101 C 0.44304 0.24422 0.61013 0.0
Co102 Co 0.16288 0.42505 0.83101 0.0
Co103 Co 0.26292 0.42502 0.8464 0.0
C104 C 0.1964 0.50087 0.85663 0.0
O105 O 0.16668 0.48157 0.84636 0.0
O106 O 0.23779 0.48396 0.85842 0.0
C107 C 0.10201 0.46159 0.80475 0.0
O108 O 0.1326 0.49548 0.80254 0.0
C109 C 0.3665 0.43588 0.85291 0.0
C110 C 0.3858 0.36094 0.85401 0.0
C111 C 0.40464 0.40554 0.85454 0.0
N112 N 0.32711 0.40996 0.85151 0.0
N113 N 0.3391 0.36532 0.85235 0.0
C114 C 0.36754 0.48798 0.85108 0.0
H115 H 0.3363 0.50023 0.84367 0.0
H116 H 0.40023 0.49944 0.8444 0.0
H117 H 0.3664 0.50416 0.86439 0.0
C118 C 0.21177 0.40939 0.79819 0.0
N119 N 0.2124 0.41742 0.81561 0.0
N120 N 0.25548 0.42522 0.82094 0.0
C121 C 0.28336 0.42616 0.8064 0.0
C122 C 0.2558 0.41663 0.79155 0.0
C123 C 0.17167 0.38859 0.78812 0.0
H124 H 0.14642 0.37162 0.79719 0.0
H125 H 0.15447 0.41618 0.78017 0.0
H126 H 0.1848 0.36181 0.77869 0.0
O127 O 0.15636 0.36959 0.84511 0.0
O128 O 0.22686 0.37088 0.85751 0.0
H129 H 0.35267 0.40822 0.81463 0.0
H130 H 0.34973 0.43551 0.79314 0.0
C131 C 0.33493 0.4355 0.80667 0.0
H132 H 0.34163 0.46985 0.81306 0.0
H133 H 0.3154 0.3376 0.85118 0.0
O134 O 0.10757 0.43114 0.8167 0.0
C135 C 0.18626 0.35248 0.85564 0.0
Co136 Co -0.0023 0.26719 0.92505 0.0
Co137 Co 0.00304 0.16623 0.91063 0.0
C138 C 0.92421 0.229 0.89966 0.0
O139 O 0.94132 0.2606 0.90967 0.0
O140 O 0.94394 0.18892 0.89825 0.0
C141 C 0.96484 0.33101 0.95178 0.0
O142 O 0.93291 0.3001 0.95628 0.0
C143 C 0.99324 0.06281 0.90548 0.0
C144 C 0.06743 0.0447 0.90024 0.0
C145 C 0.02335 0.02536 0.90231 0.0
N146 N 0.01878 0.10248 0.90551 0.0
N147 N 0.06296 0.09125 0.90225 0.0
C148 C 0.94103 0.06126 0.90749 0.0
H149 H 0.92548 0.09572 0.90418 0.0
H150 H 0.93176 0.05298 0.9213 0.0
H151 H 0.92594 0.03348 0.8989 0.0
C152 C 0.01962 0.22133 0.95796 0.0
N153 N 0.00766 0.21902 0.94088 0.0
N154 N 0.00239 0.1752 0.93603 0.0
C155 C 0.00633 0.14831 0.95071 0.0
C156 C 0.01719 0.1773 0.96503 0.0
C157 C 0.04079 0.26332 0.96676 0.0
H158 H 0.05384 0.28816 0.95673 0.0
H159 H 0.01463 0.27982 0.97563 0.0
H160 H 0.0712 0.2533 0.97502 0.0
O161 O 0.05344 0.27413 0.91093 0.0
O162 O 0.05721 0.20248 0.89966 0.0
H163 H 0.02851 0.08094 0.94162 0.0
H164 H 0.00917 0.08216 0.96438 0.0
C165 C 0.00271 0.09616 0.95096 0.0
H166 H 0.96713 0.08569 0.94655 0.0
H167 H 0.09044 0.11537 0.90175 0.0
O168 O 0.99158 0.32406 0.93867 0.0
C169 C 0.07346 0.24397 0.90124 0.0
Co170 Co 0.15819 0.90534 0.17735 0.0
Co171 Co 0.25984 0.91854 0.16137 0.0
C172 C 0.20108 0.83777 0.15044 0.0
O173 O 0.17014 0.85521 0.16047 0.0
O174 O 0.24129 0.85731 0.14894 0.0
C175 C 0.07155 0.88353 0.19991 0.0
O176 O 0.05309 0.85222 0.2105 0.0
C177 C 0.36409 0.91392 0.15562 0.0
C178 C 0.37943 0.98842 0.15052 0.0
C179 C 0.4009 0.94523 0.15247 0.0
N180 N 0.32327 0.93785 0.1557 0.0
N181 N 0.3329 0.98226 0.15245 0.0
C182 C 0.3676 0.86288 0.15973 0.0
H183 H 0.33504 0.85044 0.16625 0.0
H184 H 0.39847 0.85605 0.16827 0.0
H185 H 0.37212 0.84299 0.14725 0.0
C186 C 0.20556 0.92802 0.20925 0.0
N187 N 0.20794 0.91754 0.19208 0.0
N188 N 0.25177 0.91792 0.18673 0.0
C189 C 0.27912 0.92581 0.20111 0.0
C190 C 0.25015 0.93298 0.21574 0.0
C191 C 0.16089 0.93457 0.21932 0.0
H192 H 0.13469 0.95208 0.21081 0.0
H193 H 0.14743 0.89989 0.22349 0.0
H194 H 0.16627 0.95628 0.2313 0.0
O195 O 0.14661 0.96406 0.16459 0.0
O196 O 0.21713 0.96981 0.15197 0.0
H197 H 0.34298 0.95638 0.19193 0.0
H198 H 0.34586 0.93423 0.21426 0.0
C199 C 0.33148 0.92788 0.20085 0.0
H200 H 0.34547 0.89444 0.19559 0.0
H201 H 0.30774 0.00875 0.15203 0.0
O202 O 0.11034 0.87437 0.19252 0.0
C203 C 0.17526 0.98497 0.15434 0.0
Co204 Co 0.51022 0.08755 0.42729 0.0
Co205 Co 0.50454 0.18689 0.41145 0.0
C206 C 0.58888 0.12613 0.40459 0.0
O207 O 0.57049 0.09556 0.41463 0.0
O208 O 0.56804 0.16517 0.40166 0.0
C209 C 0.54531 0.02628 0.45383 0.0
O210 O 0.57914 0.05668 0.45666 0.0
C211 C 0.51367 0.29056 0.40495 0.0
C212 C 0.43888 0.3084 0.40121 0.0
C213 C 0.48319 0.32811 0.40206 0.0
N214 N 0.48822 0.25076 0.40569 0.0
N215 N 0.44365 0.26189 0.4033 0.0
C216 C 0.56524 0.2926 0.40851 0.0
H217 H 0.57609 0.26251 0.41678 0.0
H218 H 0.57484 0.32612 0.41505 0.0
H219 H 0.58444 0.29003 0.39583 0.0
C220 C 0.48488 0.13539 0.45957 0.0
N221 N 0.49435 0.13634 0.44224 0.0
N222 N 0.49964 0.17971 0.43697 0.0
C223 C 0.49722 0.20772 0.4515 0.0
C224 C 0.4882 0.17987 0.46628 0.0
C225 C 0.46812 0.09355 0.46959 0.0
H226 H 0.45276 0.06723 0.4605 0.0
H227 H 0.49754 0.07847 0.47726 0.0
H228 H 0.44084 0.10414 0.47926 0.0
O229 O 0.46134 0.07612 0.41026 0.0
O230 O 0.45581 0.14665 0.39823 0.0
H231 H 0.47851 0.27561 0.44211 0.0
H232 H 0.49922 0.27481 0.46472 0.0
C233 C 0.504 0.25958 0.45135 0.0
H234 H 0.53978 0.26776 0.44651 0.0
H235 H 0.41614 0.23775 0.40362 0.0
O236 O 0.51568 0.03249 0.44158 0.0
C237 C 0.44297 0.10378 0.39923 0.0
Co238 Co 0.35123 0.44848 0.67379 0.0
Co239 Co 0.25012 0.43219 0.66092 0.0
C240 C 0.30758 0.51844 0.65029 0.0
O241 O 0.34145 0.50349 0.65954 0.0
O242 O 0.26925 0.49486 0.64887 0.0
C243 C 0.44172 0.43697 0.67414 0.0
O244 O 0.434 0.44234 0.65718 0.0
C245 C 0.14576 0.44148 0.65677 0.0
C246 C 0.12667 0.36678 0.65385 0.0
C247 C 0.10767 0.41127 0.6546 0.0
N248 N 0.18534 0.41577 0.65717 0.0
N249 N 0.17349 0.37124 0.6553 0.0
C250 C 0.1446 0.49321 0.65982 0.0
H251 H 0.17422 0.50389 0.66847 0.0
H252 H 0.1107 0.50402 0.66578 0.0
H253 H 0.14882 0.5113 0.647 0.0
C254 C 0.31114 0.44171 0.70839 0.0
N255 N 0.30619 0.44286 0.69083 0.0
N256 N 0.26264 0.43358 0.6863 0.0
C257 C 0.23818 0.42564 0.70136 0.0
C258 C 0.26867 0.43013 0.71576 0.0
C259 C 0.35617 0.45136 0.71796 0.0
H260 H 0.37278 0.4834 0.71257 0.0
H261 H 0.35053 0.45638 0.73232 0.0
H262 H 0.38045 0.42147 0.71596 0.0
O263 O 0.35562 0.38979 0.66018 0.0
O264 O 0.28507 0.37836 0.64913 0.0
H265 H 0.17592 0.40473 0.71558 0.0
H266 H 0.1661 0.44063 0.69627 0.0
C267 C 0.18758 0.41196 0.70189 0.0
H268 H 0.18206 0.38041 0.69356 0.0
H269 H 0.1974 0.3436 0.65539 0.0
O270 O 0.41138 0.45165 0.68492 0.0
C271 C 0.32764 0.36569 0.6509 0.0
Co272 Co 0.66237 0.40985 0.67321 0.0
Co273 Co 0.76363 0.42293 0.66019 0.0
C274 C 0.70908 0.33691 0.65048 0.0
O275 O 0.67588 0.35389 0.65951 0.0
O276 O 0.7479 0.35912 0.64895 0.0
C277 C 0.5971 0.35326 0.69119 0.0
O278 O 0.62816 0.31951 0.68993 0.0
C279 C 0.86825 0.41563 0.65608 0.0
C280 C 0.88604 0.49016 0.6522 0.0
C281 C 0.90599 0.44611 0.65352 0.0
N282 N 0.82819 0.44078 0.65631 0.0
N283 N 0.83933 0.48525 0.65393 0.0
C284 C 0.86992 0.36344 0.65764 0.0
H285 H 0.83649 0.34768 0.65309 0.0
H286 H 0.87507 0.35383 0.67166 0.0
H287 H 0.89949 0.34894 0.64983 0.0
C288 C 0.7006 0.4317 0.70709 0.0
N289 N 0.70637 0.42419 0.68979 0.0
N290 N 0.75096 0.42585 0.68554 0.0
C291 C 0.77557 0.43245 0.7007 0.0
C292 C 0.74389 0.43648 0.71474 0.0
C293 C 0.65414 0.43432 0.71632 0.0
H294 H 0.62808 0.45243 0.7079 0.0
H295 H 0.64167 0.39837 0.71919 0.0
H296 H 0.65687 0.45349 0.72902 0.0
O297 O 0.65134 0.46272 0.65767 0.0
O298 O 0.72345 0.47139 0.64695 0.0
H299 H 0.84062 0.46432 0.69355 0.0
H300 H 0.83989 0.43967 0.71556 0.0
C301 C 0.82786 0.43483 0.70174 0.0
H302 H 0.84295 0.40212 0.69625 0.0
H303 H 0.81494 0.51247 0.65369 0.0
O304 O 0.60611 0.39373 0.68518 0.0
C305 C 0.68017 0.48343 0.6476 0.0
Co306 Co 0.85065 0.93855 0.1712 0.0
Co307 Co 0.74688 0.92573 0.16003 0.0
C308 C 0.80719 0.00118 0.14401 0.0
O309 O 0.84038 0.98681 0.15365 0.0
O310 O 0.76664 0.98179 0.14457 0.0
C311 C 0.9267 0.99264 0.18603 0.0
O312 O 0.89975 0.02984 0.18667 0.0
C313 C 0.64315 0.9365 0.15345 0.0
C314 C 0.6189 0.8657 0.1608 0.0
C315 C 0.60282 0.90897 0.15529 0.0
N316 N 0.68085 0.91066 0.15799 0.0
N317 N 0.66589 0.86832 0.16221 0.0
C318 C 0.64651 0.9853 0.14647 0.0
H319 H 0.67642 0.98782 0.13717 0.0
H320 H 0.65349 0.0098 0.15756 0.0
H321 H 0.61378 0.99569 0.13959 0.0
C322 C 0.81266 0.93663 0.20655 0.0
N323 N 0.80663 0.93754 0.189 0.0
N324 N 0.76187 0.93383 0.18505 0.0
C325 C 0.7376 0.93188 0.20044 0.0
C326 C 0.76934 0.93387 0.21451 0.0
C327 C 0.85933 0.93287 0.21555 0.0
H328 H 0.88345 0.91085 0.20762 0.0
H329 H 0.87468 0.96836 0.21702 0.0
H330 H 0.85587 0.9172 0.22886 0.0
O331 O 0.85437 0.87701 0.16004 0.0
O332 O 0.78134 0.8687 0.15026 0.0
H333 H 0.67512 0.89091 0.19894 0.0
H334 H 0.6729 0.93744 0.21507 0.0
C335 C 0.68543 0.92768 0.20169 0.0
H336 H 0.66857 0.95036 0.19168 0.0
H337 H 0.68785 0.84128 0.16634 0.0
O338 O 0.9113 0.95339 0.18063 0.0
C339 C 0.82342 0.85367 0.15174 0.0
Co340 Co 0.84664 0.42327 0.8284 0.0
Co341 Co 0.74813 0.42357 0.84508 0.0
C342 C 0.81719 0.34527 0.85265 0.0
O343 O 0.84513 0.36545 0.84204 0.0
O344 O 0.7764 0.36273 0.8557 0.0
C345 C 0.92347 0.40623 0.80303 0.0
O346 O 0.90685 0.36591 0.7974 0.0
C347 C 0.64445 0.40981 0.85213 0.0
C348 C 0.62529 0.48378 0.85684 0.0
C349 C 0.60636 0.4393 0.85561 0.0
N350 N 0.68372 0.43613 0.85126 0.0
N351 N 0.67172 0.48018 0.85422 0.0
C352 C 0.64403 0.35765 0.85029 0.0
H353 H 0.67916 0.34311 0.8534 0.0
H354 H 0.63519 0.34795 0.83652 0.0
H355 H 0.61714 0.34213 0.85911 0.0
C356 C 0.7956 0.44122 0.79606 0.0
N357 N 0.79653 0.43138 0.81335 0.0
N358 N 0.75359 0.4266 0.81938 0.0
C359 C 0.72388 0.43012 0.80542 0.0
C360 C 0.7501 0.43964 0.79029 0.0
C361 C 0.83717 0.4544 0.78507 0.0
H362 H 0.86247 0.47474 0.79304 0.0
H363 H 0.85349 0.4223 0.77962 0.0
H364 H 0.82701 0.47649 0.77373 0.0
O365 O 0.85156 0.4763 0.8435 0.0
O366 O 0.7823 0.47942 0.85632 0.0
H367 H 0.65794 0.4524 0.81584 0.0
H368 H 0.6552 0.43075 0.79338 0.0
C369 C 0.67175 0.42581 0.8065 0.0
H370 H 0.66255 0.39073 0.81164 0.0
H371 H 0.69516 0.50825 0.85399 0.0
O372 O 0.90371 0.42801 0.81548 0.0
C373 C 0.82336 0.4961 0.85394 0.0
Co374 Co 0.66323 0.94722 0.33187 0.0
Co375 Co 0.76433 0.93591 0.34551 0.0
C376 C 0.70105 0.01541 0.35832 0.0
O377 O 0.66926 0.00043 0.34799 0.0
O378 O 0.741 0.99462 0.35933 0.0
C379 C 0.57413 0.93528 0.33242 0.0
O380 O 0.58481 0.94272 0.34905 0.0
C381 C 0.86846 0.94542 0.35161 0.0
C382 C 0.88782 0.87054 0.34993 0.0
C383 C 0.90648 0.91482 0.35213 0.0
N384 N 0.82907 0.92004 0.34924 0.0
N385 N 0.84111 0.87535 0.34844 0.0
C386 C 0.86987 -0.00228 0.35185 0.0
H387 H 0.83774 0.01221 0.34565 0.0
H388 H 0.90164 0.01061 0.34492 0.0
H389 H 0.87145 0.01005 0.36573 0.0
C390 C 0.70599 0.94452 0.29751 0.0
N391 N 0.70952 0.94588 0.31513 0.0
N392 N 0.75331 0.94003 0.32007 0.0
C393 C 0.77953 0.93495 0.30525 0.0
C394 C 0.74997 0.93718 0.29054 0.0
C395 C 0.66076 0.94892 0.28758 0.0
H396 H 0.64134 0.9801 0.29237 0.0
H397 H 0.66653 0.95227 0.27317 0.0
H398 H 0.63884 0.91748 0.29008 0.0
O399 O 0.66106 0.88655 0.34404 0.0
O400 O 0.73143 0.87945 0.35568 0.0
H401 H 0.83766 0.89072 0.31121 0.0
H402 H 0.84538 0.92563 0.29156 0.0
C403 C 0.83107 0.92543 0.30517 0.0
H404 H 0.84937 0.95218 0.31329 0.0
H405 H 0.81741 0.84801 0.34633 0.0
O406 O 0.60285 0.9483 0.32074 0.0
C407 C 0.6902 0.86368 0.35314 0.0
Co408 Co 0.47628 0.58452 0.57953 0.0
Co409 Co 0.50205 0.68158 0.59449 0.0
C410 C 0.41212 0.63092 0.60487 0.0
O411 O 0.42344 0.59861 0.59427 0.0
O412 O 0.43895 0.66664 0.60708 0.0
C413 C 0.41915 0.51473 0.56197 0.0
O414 O 0.38089 0.53811 0.56589 0.0
C415 C 0.49951 0.78554 0.59956 0.0
C416 C 0.57524 0.80105 0.60171 0.0
C417 C 0.5316 0.82221 0.60109 0.0
N418 N 0.52325 0.74474 0.59918 0.0
N419 N 0.56847 0.75445 0.60067 0.0
C420 C 0.44769 0.78934 0.59691 0.0
H421 H 0.43376 0.75701 0.59062 0.0
H422 H 0.43923 0.82032 0.5887 0.0
H423 H 0.43051 0.79389 0.60993 0.0
C424 C 0.49261 0.62745 0.54584 0.0
N425 N 0.48898 0.63051 0.56343 0.0
N426 N 0.49937 0.67301 0.56886 0.0
C427 C 0.50953 0.69894 0.55436 0.0
C428 C 0.50524 0.67048 0.53938 0.0
C429 C 0.48704 0.58313 0.53537 0.0
H430 H 0.44958 0.57271 0.53537 0.0
H431 H 0.49833 0.58725 0.52147 0.0
H432 H 0.50815 0.55486 0.54144 0.0
O433 O 0.53204 0.56964 0.59358 0.0
O434 O 0.55211 0.63831 0.60498 0.0
H435 H 0.55726 0.75212 0.5629 0.0
H436 H 0.53183 0.76236 0.54135 0.0
C437 C 0.52495 0.74895 0.55482 0.0
H438 H 0.49733 0.77049 0.56118 0.0
H439 H 0.59495 0.72925 0.60035 0.0
O440 O 0.45911 0.52906 0.56704 0.0
C441 C 0.55925 0.59433 0.60311 0.0
Co442 Co 0.00742 0.77026 0.08446 0.0
Co443 Co 0.00416 0.66603 0.09482 0.0
C444 C 0.08549 0.7287 0.1057 0.0
O445 O 0.06657 0.76225 0.09731 0.0
O446 O 0.06588 0.68816 0.10648 0.0
C447 C 0.03177 0.85383 0.0656 0.0
O448 O 0.07424 0.83715 0.06318 0.0
C449 C 0.01548 0.56078 0.09865 0.0
C450 C 0.94106 0.54117 0.09483 0.0
C451 C 0.98515 0.52244 0.09755 0.0
N452 N 0.99011 0.60024 0.09653 0.0
N453 N 0.94573 0.58793 0.0944 0.0
C454 C 0.06767 0.55985 0.10048 0.0
H455 H 0.08324 0.59257 0.0952 0.0
H456 H 0.08246 0.52891 0.09354 0.0
H457 H 0.07682 0.55717 0.11467 0.0
C458 C 0.99496 0.73323 0.04862 0.0
N459 N 0.00034 0.72738 0.06612 0.0
N460 N 0.00161 0.6825 0.06987 0.0
C461 C -0.00113 0.65828 0.05446 0.0
C462 C 0.99414 0.68997 0.0406 0.0
C463 C 0.99177 0.77948 0.03944 0.0
H464 H 0.02729 0.795 0.03863 0.0
H465 H 0.97891 0.77643 0.02573 0.0
H466 H 0.96754 0.8029 0.04668 0.0
O467 O 0.95386 0.76883 0.09992 0.0
O468 O 0.9502 0.69524 0.10865 0.0
H469 H 0.96601 0.59175 0.05773 0.0
H470 H 0.00552 0.59466 0.03918 0.0
C471 C -6e-05 0.60609 0.05302 0.0
H472 H 0.02818 0.59196 0.06155 0.0
H473 H 0.91851 0.61166 0.09226 0.0
O474 O 0.00282 0.83173 0.07501 0.0
C475 C 0.93433 0.73692 0.10876 0.0
Co476 Co 0.52247 0.77277 0.42476 0.0
Co477 Co 0.50817 0.67344 0.40943 0.0
C478 C 0.43431 0.74535 0.40366 0.0
O479 O 0.46083 0.77307 0.41237 0.0
O480 O 0.44652 0.70257 0.4011 0.0
C481 C 0.50581 0.84385 0.45086 0.0
O482 O 0.46723 0.82158 0.4553 0.0
C483 C 0.49025 0.56906 0.40323 0.0
C484 C 0.56435 0.54722 0.40098 0.0
C485 C 0.51908 0.52973 0.40096 0.0
N486 N 0.51774 0.60755 0.40452 0.0
N487 N 0.56184 0.59383 0.40308 0.0
C488 C 0.43783 0.57037 0.40366 0.0
H489 H 0.42498 0.60582 0.40016 0.0
H490 H 0.4255 0.56207 0.41715 0.0
H491 H 0.42304 0.54387 0.39445 0.0
C492 C 0.53971 0.72226 0.45735 0.0
N493 N 0.52979 0.72303 0.44004 0.0
N494 N 0.5158 0.68149 0.43479 0.0
C495 C 0.51227 0.65397 0.44928 0.0
C496 C 0.52765 0.67931 0.464 0.0
C497 C 0.56213 0.76117 0.4676 0.0
H498 H 0.58166 0.78466 0.45868 0.0
H499 H 0.53499 0.78056 0.47512 0.0
H500 H 0.58721 0.74689 0.47739 0.0
O501 O 0.57266 0.77346 0.40832 0.0
O502 O 0.56151 0.70508 0.39516 0.0
H503 H 0.51788 0.58218 0.44172 0.0
H504 H 0.48929 0.59149 0.46274 0.0
C505 C 0.49345 0.60515 0.44915 0.0
H506 H 0.45916 0.60459 0.44224 0.0
H507 H 0.59059 0.61639 0.40392 0.0
O508 O 0.53011 0.82985 0.43793 0.0
C509 C 0.58393 0.74373 0.39673 0.0
Co510 Co 0.99598 0.5842 0.92497 0.0
Co511 Co 0.00519 0.68381 0.91009 0.0
C512 C 0.07861 0.61329 0.90145 0.0
O513 O 0.05562 0.58426 0.91089 0.0
O514 O 0.06445 0.65561 0.8995 0.0
C515 C 0.01399 0.51162 0.95052 0.0
O516 O 0.0533 0.5326 0.95503 0.0
C517 C 0.0191 0.78723 0.90371 0.0
C518 C 0.9443 0.80787 0.90456 0.0
C519 C 0.98917 0.8256 0.90313 0.0
N520 N 0.99274 0.74835 0.9055 0.0
N521 N 0.94816 0.76117 0.90575 0.0
C522 C 0.07148 0.78808 0.90415 0.0
H523 H 0.08567 0.75264 0.90686 0.0
H524 H 0.08365 0.81318 0.9144 0.0
H525 H 0.08484 0.80057 0.89125 0.0
C526 C 0.98423 0.63401 0.95838 0.0
N527 N 0.99206 0.63339 0.94091 0.0
N528 N 0.00224 0.67574 0.93546 0.0
C529 C 0.00455 0.70421 0.94981 0.0
C530 C 0.99341 0.67806 0.96474 0.0
C531 C 0.96288 0.5951 0.96882 0.0
H532 H 0.94205 0.5721 0.96009 0.0
H533 H 0.99081 0.57531 0.9757 0.0
H534 H 0.9391 0.60914 0.97914 0.0
O535 O 0.94173 0.58384 0.90985 0.0
O536 O 0.95103 0.65269 0.89718 0.0
H537 H 0.98689 0.7744 0.94298 0.0
H538 H 0.02212 0.76946 0.96271 0.0
C539 C 0.01627 0.75518 0.94925 0.0
H540 H 0.04805 0.76055 0.94107 0.0
H541 H 0.9202 0.73802 0.90748 0.0
O542 O 0.98965 0.52679 0.93782 0.0
C543 C 0.92857 0.61443 0.89895 0.0
C544 C 0.02306 0.45292 0.11193 0.0
C545 C 0.99512 0.47152 0.0984 0.0
C546 C 0.0292 0.40428 0.11361 0.0
C547 C 0.00741 0.37252 0.1019 0.0
H548 H 0.03943 0.47595 0.1215 0.0
H549 H 0.05101 0.39138 0.12424 0.0
S550 S 0.93585 0.40412 0.06286 0.0
N551 N 0.94829 0.45479 0.07233 0.0
N552 N 0.96096 0.36381 0.07521 0.0
C553 C 0.98059 0.39088 0.08801 0.0
C554 C 0.97412 0.44026 0.08636 0.0
C555 C 0.03609 0.91404 0.34101 0.0
C556 C 0.05645 0.93899 0.3551 0.0
C557 C 0.98743 0.9069 0.34012 0.0
C558 C 0.95725 0.92516 0.35309 0.0
H559 H 0.05761 0.90087 0.33035 0.0
H560 H 0.9732 0.8874 0.32905 0.0
S561 S 0.99283 0.98995 0.39331 0.0
N562 N 0.04259 0.98001 0.38278 0.0
N563 N 0.95107 0.96677 0.38092 0.0
C564 C 0.97696 0.94977 0.3673 0.0
C565 C 0.02656 0.95675 0.36832 0.0
C566 C 0.48169 0.94248 0.61206 0.0
C567 C 0.50755 0.97281 0.60108 0.0
C568 C 0.48925 0.89384 0.61192 0.0
C569 C 0.52305 0.87354 0.60081 0.0
H570 H 0.45524 0.9565 0.62087 0.0
H571 H 0.46889 0.87206 0.62074 0.0
S572 S 0.5966 0.9361 0.56814 0.0
N573 N 0.56547 0.97789 0.57764 0.0
N574 N 0.58098 0.8869 0.57791 0.0
C575 C 0.54891 0.90322 0.58967 0.0
C576 C 0.54082 0.9527 0.58965 0.0
C577 C 0.4861 0.38955 0.84412 0.0
C578 C 0.45566 0.41563 0.85497 0.0
C579 C 0.53485 0.39643 0.84463 0.0
C580 C 0.55517 0.42913 0.85626 0.0
H581 H 0.47203 0.36402 0.83492 0.0
H582 H 0.55639 0.37693 0.83546 0.0
S583 S 0.49103 0.50366 0.88844 0.0
N584 N 0.44939 0.47358 0.87832 0.0
N585 N 0.54091 0.48672 0.87938 0.0
C586 C 0.52505 0.45498 0.86737 0.0
C587 C 0.47537 0.44813 0.86674 0.0
C588 C 0.02359 0.89704 0.88929 0.0
C589 C 0.00057 0.87586 0.90354 0.0
C590 C 0.03017 0.94577 0.88887 0.0
C591 C 0.01365 0.97462 0.90262 0.0
H592 H 0.03557 0.876 0.87827 0.0
H593 H 0.04789 0.96108 0.87764 0.0
S594 S 0.95705 0.93483 0.94393 0.0
N595 N 0.96462 0.88642 0.93229 0.0
N596 N 0.97805 0.97774 0.9317 0.0
C597 C 0.99207 0.95349 0.91719 0.0
C598 C 0.98523 0.90409 0.91759 0.0
C599 C 0.47236 0.89635 0.14536 0.0
C600 C 0.4527 0.93722 0.15266 0.0
C601 C 0.52106 0.88839 0.14579 0.0
C602 C 0.55224 0.92116 0.15336 0.0
H603 H 0.45014 0.87037 0.13914 0.0
H604 H 0.53444 0.85607 0.14022 0.0
S605 S 0.51862 0.03298 0.17494 0.0
N606 N 0.46849 0.01071 0.16789 0.0
N607 N 0.55947 0.99516 0.16902 0.0
C608 C 0.53312 0.96228 0.16061 0.0
C609 C 0.48358 0.97048 0.16012 0.0
C610 C 0.46399 0.41062 0.41082 0.0
C611 C 0.49283 0.3793 0.40136 0.0
C612 C 0.47147 0.45931 0.41028 0.0
C613 C 0.50766 0.47872 0.40002 0.0
H614 H 0.43593 0.39729 0.41903 0.0
H615 H 0.44972 0.48148 0.41846 0.0
S616 S 0.58954 0.41218 0.37119 0.0
N617 N 0.55651 0.37146 0.38035 0.0
N618 N 0.57078 0.46256 0.37926 0.0
C619 C 0.53585 0.44772 0.39009 0.0
C620 C 0.52837 0.39819 0.39075 0.0
C621 C 0.97731 0.40292 0.66444 0.0
C622 C 0.95735 0.43639 0.65312 0.0
C623 C 0.02597 0.39532 0.66483 0.0
C624 C 0.05671 0.42156 0.65423 0.0
H625 H 0.95552 0.38316 0.6734 0.0
H626 H 0.03975 0.36914 0.67375 0.0
S627 S 0.02248 0.51117 0.62147 0.0
N628 N 0.97237 0.49453 0.63043 0.0
N629 N 0.06374 0.48034 0.63137 0.0
C630 C 0.03741 0.45481 0.64276 0.0
C631 C 0.98781 0.46229 0.64221 0.0
C632 C 0.0661 0.17923 0.01109 0.0
C633 C 0.02536 0.18043 0.02154 0.0
C634 C 0.0635 0.17307 0.99276 0.0
C635 C 0.02004 0.16836 0.98417 0.0
H636 H 0.10034 0.18222 0.01721 0.0
H637 H 0.09563 0.17394 0.98513 0.0
S638 S 0.90318 0.16742 0.00551 0.0
N639 N 0.94041 0.1741 0.02205 0.0
N640 N 0.93544 0.16486 0.98743 0.0
C641 C 0.9791 0.16907 0.99445 0.0
C642 C 0.98175 0.17484 0.01315 0.0
C643 C 0.25076 0.96992 0.26353 0.0
C644 C 0.25048 0.92637 0.2721 0.0
C645 C 0.25489 0.97251 0.24507 0.0
C646 C 0.26019 0.93171 0.23477 0.0
H647 H 0.24889 0.00201 0.27116 0.0
H648 H 0.25266 0.00639 0.23875 0.0
S649 S 0.26175 0.80968 0.25097 0.0
N650 N 0.25553 0.8419 0.26894 0.0
N651 N 0.26415 0.84696 0.2344 0.0
C652 C 0.26022 0.88827 0.24324 0.0
C653 C 0.25497 0.88554 0.26185 0.0
C654 C 0.53081 0.16791 0.51322 0.0
C655 C 0.49262 0.18424 0.52313 0.0
C656 C 0.53041 0.17015 0.49471 0.0
C657 C 0.49207 0.18933 0.48545 0.0
H658 H 0.56159 0.15426 0.51982 0.0
H659 H 0.5599 0.15571 0.48751 0.0
S660 S 0.38341 0.23658 0.50534 0.0
N661 N 0.4155 0.22038 0.52242 0.0
N662 N 0.41466 0.22386 0.4876 0.0
C663 C 0.45372 0.20571 0.49521 0.0
C664 C 0.45401 0.2033 0.51405 0.0
C665 C 0.23962 0.45845 0.74483 0.0
C666 C 0.26121 0.42314 0.73485 0.0
C667 C 0.24119 0.45763 0.76332 0.0
C668 C 0.26481 0.42177 0.77246 0.0
H669 H 0.22245 0.48745 0.7383 0.0
H670 H 0.22293 0.4848 0.77059 0.0
S671 S 0.32577 0.32061 0.75233 0.0
N672 N 0.30655 0.35115 0.73533 0.0
N673 N 0.30862 0.34933 0.77015 0.0
C674 C 0.28622 0.38615 0.76264 0.0
C675 C 0.28459 0.38692 0.74381 0.0
C676 C 0.73875 0.48017 0.76167 0.0
C677 C 0.73815 0.43825 0.77137 0.0
C678 C 0.74464 0.47973 0.74327 0.0
C679 C 0.75068 0.43741 0.73402 0.0
H680 H 0.73699 0.51355 0.76848 0.0
H681 H 0.74364 0.51258 0.73618 0.0
S682 S 0.74952 0.31831 0.75315 0.0
N683 N 0.74296 0.35351 0.77031 0.0
N684 N 0.75298 0.35265 0.73571 0.0
C685 C 0.74904 0.39538 0.74351 0.0
C686 C 0.74288 0.39581 0.76217 0.0
C687 C 0.77925 0.97195 0.24387 0.0
C688 C 0.76171 0.93414 0.23385 0.0
C689 C 0.7783 0.9714 0.26236 0.0
C690 C 0.76023 0.93277 0.27149 0.0
H691 H 0.79392 0.00224 0.23729 0.0
H692 H 0.79045 0.00193 0.26956 0.0
S693 S 0.71283 0.82375 0.2516 0.0
N694 N 0.7279 0.8561 0.23447 0.0
N695 N 0.72558 0.85522 0.26931 0.0
C696 C 0.74335 0.89437 0.26168 0.0
C697 C 0.74416 0.89501 0.24283 0.0
C698 C 0.4789 0.68487 0.49106 0.0
C699 C 0.52126 0.67113 0.48307 0.0
C700 C 0.47502 0.68854 0.50948 0.0
C701 C 0.51365 0.67965 0.5205 0.0
H702 H 0.44887 0.69378 0.48298 0.0
H703 H 0.44127 0.69722 0.51519 0.0
S704 S 0.6322 0.64285 0.50606 0.0
N705 N 0.60253 0.64911 0.48749 0.0
N706 N 0.59519 0.65566 0.52214 0.0
C707 C 0.55618 0.66616 0.51265 0.0
C708 C 0.55999 0.66202 0.49393 0.0
C709 C 0.03471 0.67439 0.99348 0.0
C710 C 0.99533 0.68908 0.98374 0.0
C711 C 0.03335 0.67178 0.01198 0.0
C712 C 0.99217 0.68266 0.02128 0.0
H713 H 0.06636 0.66361 0.98669 0.0
H714 H 0.06484 0.66196 0.01906 0.0
S715 S 0.87925 0.72124 1.00191 0.0
N716 N 0.91405 0.71377 0.98471 0.0
N717 N 0.91103 0.70807 0.01944 0.0
C718 C 0.95242 0.69663 0.01166 0.0
C719 C 0.95416 0.70023 0.99291 0.0
C720 C 0.11788 0.05029 0.14961 0.0
C721 C 0.15783 0.02535 0.1439 0.0
C722 C 0.09439 0.08145 0.13836 0.0
C723 C 0.10992 0.0884 0.12101 0.0
H724 H 0.10291 0.04354 0.16248 0.0
H725 H 0.06153 0.09661 0.14272 0.0
S726 S 0.21696 0.03849 0.10059 0.0
N727 N 0.21554 0.0154 0.12051 0.0
N728 N 0.17071 0.07313 0.09937 0.0
C729 C 0.1522 0.06735 0.11573 0.0
C730 C 0.17643 0.03607 0.1272 0.0
C731 C 0.33895 0.04914 0.37563 0.0
C732 C 0.36129 0.01807 0.36378 0.0
C733 C 0.36512 0.08024 0.38631 0.0
C734 C 0.41433 0.08178 0.38526 0.0
H735 H 0.30124 0.04788 0.37733 0.0
H736 H 0.34699 0.10131 0.39606 0.0
S737 S 0.48991 0.01115 0.35572 0.0
N738 N 0.43608 0.99371 0.35107 0.0
N739 N 0.48426 0.0518 0.37107 0.0
C740 C 0.4368 0.05285 0.37292 0.0
C741 C 0.41057 0.02118 0.36217 0.0
C742 C 0.41092 0.2665 0.63953 0.0
C743 C 0.40389 0.26096 0.62132 0.0
C744 C 0.38352 0.29816 0.64936 0.0
C745 C 0.34721 0.32432 0.64143 0.0
H746 H 0.44042 0.24964 0.64588 0.0
H747 H 0.3927 0.30427 0.66304 0.0
S748 S 0.3091 0.31494 0.59484 0.0
N749 N 0.35461 0.27935 0.59621 0.0
N750 N 0.30157 0.33693 0.61482 0.0
C751 C 0.33651 0.31487 0.6237 0.0
C752 C 0.36528 0.28366 0.6136 0.0
C753 C 0.11162 0.25294 0.87196 0.0
C754 C 0.11293 0.26019 0.89027 0.0
C755 C 0.13934 0.28023 0.86068 0.0
C756 C 0.17 0.31472 0.86738 0.0
H757 H 0.08591 0.22937 0.86624 0.0
H758 H 0.13431 0.27664 0.84657 0.0
S759 S 0.19184 0.34131 0.91451 0.0
N760 N 0.15116 0.30004 0.91474 0.0
N761 N 0.20423 0.35034 0.89352 0.0
C762 C 0.17526 0.3186 0.88572 0.0
C763 C 0.14636 0.29157 0.89719 0.0
C764 C 0.90904 0.26063 0.86999 0.0
C765 C 0.89042 0.24516 0.88605 0.0
C766 C 0.88318 0.28954 0.85869 0.0
C767 C 0.83733 0.30496 0.86293 0.0
H768 H 0.94533 0.25329 0.86672 0.0
H769 H 0.90088 0.30227 0.84702 0.0
S770 S 0.76888 0.26518 0.90174 0.0
N771 N 0.82106 0.24101 0.90452 0.0
N772 N 0.77177 0.29506 0.88313 0.0
C773 C 0.81658 0.28581 0.87817 0.0
C774 C 0.84335 0.2563 0.88981 0.0
C775 C 0.63661 0.23385 0.63571 0.0
C776 C 0.63721 0.23914 0.6173 0.0
C777 C 0.6656 0.26162 0.6466 0.0
C778 C 0.69664 0.29532 0.63951 0.0
H779 H 0.60994 0.21229 0.64183 0.0
H780 H 0.66023 0.26004 0.66072 0.0
S781 S 0.71759 0.31617 0.59201 0.0
N782 N 0.67626 0.27556 0.59239 0.0
N783 N 0.73078 0.3271 0.61284 0.0
C784 C 0.70168 0.29656 0.62112 0.0
C785 C 0.67186 0.26869 0.61003 0.0
C786 C 0.65673 0.08964 0.36398 0.0
C787 C 0.68684 0.05433 0.37044 0.0
C788 C 0.62914 0.11739 0.37535 0.0
C789 C 0.62975 0.11038 0.3937 0.0
H790 H 0.65167 0.09339 0.34989 0.0
H791 H 0.60381 0.14109 0.36958 0.0
S792 S 0.70733 0.02756 0.41758 0.0
N793 N 0.71977 0.01833 0.39657 0.0
N794 N 0.66742 0.06948 0.41793 0.0
C795 C 0.66283 0.07823 0.40041 0.0
C796 C 0.69152 0.05053 0.38882 0.0
C797 C 0.84401 0.01467 0.11507 0.0
C798 C 0.82139 0.034 0.12984 0.0
C799 C 0.87547 0.04107 0.10489 0.0
C800 C 0.8863 0.08822 0.10904 0.0
H801 H 0.84065 0.97754 0.11229 0.0
H802 H 0.8938 0.02309 0.09435 0.0
S803 S 0.83042 0.15735 0.14485 0.0
N804 N 0.80774 0.10438 0.14703 0.0
N805 N 0.86625 0.15462 0.12775 0.0
C806 C 0.8606 0.10919 0.12285 0.0
C807 C 0.82855 0.08192 0.13331 0.0
C808 C 0.64536 0.56126 0.63969 0.0
C809 C 0.66005 0.51617 0.63457 0.0
C810 C 0.61531 0.58801 0.62889 0.0
C811 C 0.59776 0.56993 0.61285 0.0
H812 H 0.65531 0.57499 0.6525 0.0
H813 H 0.60347 0.62177 0.63368 0.0
S814 S 0.62785 0.45396 0.59339 0.0
N815 N 0.65692 0.45551 0.61222 0.0
N816 N 0.60029 0.50466 0.59204 0.0
C817 C 0.61411 0.52552 0.60734 0.0
C818 C 0.64515 0.49889 0.61819 0.0
C819 C 0.90926 0.58876 0.8689 0.0
C820 C 0.89347 0.59961 0.88589 0.0
C821 C 0.88387 0.55814 0.85809 0.0
C822 C 0.84163 0.5372 0.86387 0.0
H823 H 0.94362 0.6003 0.86456 0.0
H824 H 0.89933 0.54838 0.84555 0.0
S825 S 0.78033 0.5639 0.90579 0.0
N826 N 0.82986 0.59392 0.90703 0.0
N827 N 0.78114 0.53688 0.88648 0.0
C828 C 0.8228 0.5523 0.88003 0.0
C829 C 0.84912 0.58324 0.89115 0.0
C830 C 0.9012 0.75255 0.13851 0.0
C831 C 0.89494 0.75144 0.12015 0.0
C832 C 0.87425 0.78273 0.14912 0.0
C833 C 0.83964 0.81203 0.14175 0.0
H834 H 0.93019 0.73382 0.14445 0.0
H835 H 0.88297 0.78576 0.16299 0.0
S836 S 0.80561 0.81681 0.09465 0.0
N837 N 0.84875 0.77827 0.09527 0.0
N838 N 0.79721 0.83378 0.11525 0.0
C839 C 0.82981 0.80735 0.12369 0.0
C840 C 0.85779 0.77736 0.11287 0.0
C841 C 0.68507 0.81507 0.38034 0.0
C842 C 0.67298 0.82164 0.36258 0.0
C843 C 0.65919 0.78445 0.39101 0.0
C844 C 0.62087 0.75869 0.38425 0.0
H845 H 0.71169 0.83686 0.38645 0.0
H846 H 0.66664 0.78399 0.40502 0.0
S847 S 0.58274 0.75494 0.33759 0.0
N848 N 0.6255 0.79407 0.33795 0.0
N849 N 0.57768 0.73566 0.35803 0.0
C850 C 0.61232 0.76055 0.36606 0.0
C851 C 0.63809 0.79242 0.35522 0.0
C852 C 0.36707 0.74127 0.38169 0.0
C853 C 0.39112 0.76564 0.39515 0.0
C854 C 0.33265 0.76352 0.37127 0.0
C855 C 0.31987 0.81068 0.37413 0.0
H856 H 0.37713 0.70578 0.37833 0.0
H857 H 0.31839 0.74472 0.36004 0.0
S858 S 0.3696 0.88974 0.40821 0.0
N859 N 0.39701 0.83956 0.41129 0.0
N860 N 0.33262 0.88028 0.39184 0.0
C861 C 0.34107 0.83432 0.38831 0.0
C862 C 0.37656 0.81215 0.39874 0.0
C863 C 0.19077 0.79865 0.12095 0.0
C864 C 0.18567 0.79728 0.13938 0.0
C865 C 0.16149 0.77158 0.10988 0.0
C866 C 0.12674 0.74146 0.1168 0.0
H867 H 0.21389 0.82426 0.11501 0.0
H868 H 0.16337 0.77722 0.09577 0.0
S869 S 0.10397 0.72041 0.16418 0.0
N870 N 0.1468 0.75942 0.16405 0.0
N871 N 0.09271 0.70846 0.14328 0.0
C872 C 0.12489 0.73615 0.13517 0.0
C873 C 0.15412 0.76408 0.14643 0.0
C874 C 0.11991 0.60143 0.87249 0.0
C875 C 0.11856 0.59435 0.89084 0.0
C876 C 0.14862 0.57365 0.86149 0.0
C877 C 0.17827 0.5387 0.86844 0.0
H878 H 0.09573 0.62577 0.86641 0.0
H879 H 0.14549 0.57764 0.84734 0.0
S880 S 0.19177 0.50998 0.9158 0.0
N881 N 0.1521 0.55213 0.91556 0.0
N882 N 0.20712 0.50149 0.89503 0.0
C883 C 0.18012 0.53409 0.88687 0.0
C884 C 0.15 0.56145 0.89803 0.0
C885 C 0.31007 0.56013 0.6213 0.0
C886 C 0.31776 0.56092 0.63958 0.0
C887 C 0.33639 0.58908 0.61002 0.0
C888 C 0.37152 0.61973 0.61655 0.0
H889 H 0.2877 0.53348 0.61552 0.0
H890 H 0.33279 0.58366 0.59593 0.0
S891 S 0.39629 0.64303 0.6637 0.0
N892 N 0.3559 0.60149 0.66393 0.0
N893 N 0.40559 0.65514 0.64271 0.0
C894 C 0.37456 0.62548 0.63488 0.0
C895 C 0.34772 0.59609 0.64639 0.0
C896 C 0.94983 0.94946 0.05121 0.0
C897 C 0.98095 0.97961 0.04266 0.0
C898 C 0.96628 0.90731 0.05799 0.0
C899 C 0.01332 0.89333 0.05536 0.0
H900 H 0.91604 0.9622 0.05572 0.0
H901 H 0.94292 0.88769 0.06647 0.0
S902 S 0.09823 0.94964 0.02519 0.0
N903 N 0.05286 0.98556 0.02576 0.0
N904 N 0.08422 0.90515 0.03802 0.0
C905 C 0.04051 0.91823 0.04319 0.0
C906 C 0.02345 0.96127 0.03643 0.0
C907 C 0.48893 0.86389 0.30545 0.0
C908 C 0.46669 0.83691 0.31843 0.0
C909 C 0.5247 0.89505 0.31004 0.0
C910 C 0.53931 0.89956 0.32768 0.0
H911 H 0.47415 0.86588 0.2923 0.0
H912 H 0.53866 0.91791 0.29994 0.0
S913 S 0.49963 0.82718 0.36546 0.0
N914 N 0.4677 0.8091 0.34859 0.0
N915 N 0.53498 0.8677 0.35745 0.0
C916 C 0.52164 0.86795 0.34023 0.0
C917 C 0.48593 0.8357 0.33541 0.0
C918 C 0.485 0.42152 0.54652 0.0
C919 C 0.48751 0.39767 0.56262 0.0
C920 C 0.44925 0.45393 0.54347 0.0
C921 C 0.41785 0.46564 0.55707 0.0
H922 H 0.51239 0.41743 0.53673 0.0
H923 H 0.45205 0.4762 0.53198 0.0
S924 S 0.40182 0.4039 0.59928 0.0
N925 N 0.44874 0.3795 0.59037 0.0
N926 N 0.38268 0.44221 0.5847 0.0
C927 C 0.41425 0.43547 0.5715 0.0
C928 C 0.4502 0.40203 0.57462 0.0
C929 C 0.04662 0.415 0.7875 0.0
C930 C 0.0589 0.45899 0.79459 0.0
C931 C 0.00028 0.39933 0.78803 0.0
C932 C 0.96568 0.42771 0.79555 0.0
H933 H 0.0734 0.38996 0.78393 0.0
H934 H 0.99292 0.36316 0.78465 0.0
S935 S 0.97845 0.55201 0.8096 0.0
N936 N 0.03219 0.5349 0.80466 0.0
N937 N 0.94433 0.50668 0.80524 0.0
C938 C 0.97634 0.47513 0.79924 0.0
C939 C 0.02352 0.49072 0.79874 0.0
C940 C 0.01728 0.38862 0.96544 0.0
C941 C 0.97103 0.37478 0.96139 0.0
C942 C 0.03057 0.43553 0.96443 0.0
C943 C -0.00229 0.46911 0.9593 0.0
H944 H 0.04472 0.3629 0.96701 0.0
H945 H 0.06752 0.44428 0.96533 0.0
S946 S 0.86926 0.45186 0.95397 0.0
N947 N 0.8904 0.39874 0.95715 0.0
N948 N 0.91478 0.48752 0.95526 0.0
C949 C 0.94981 0.45663 0.9587 0.0
C950 C 0.93646 0.40891 0.95985 0.0
C951 C 0.0225 0.94858 0.21107 0.0
C952 C 0.04702 0.9278 0.197 0.0
C953 C 0.98749 0.98174 0.20786 0.0
C954 C 0.97623 0.99418 0.1905 0.0
H955 H 0.02716 0.93583 0.2244 0.0
H956 H 0.9645 0.99166 0.21862 0.0
S957 S 0.03517 0.95629 0.14963 0.0
N958 N 0.06065 0.9258 0.16542 0.0
N959 N -0.00183 0.99179 0.15972 0.0
C960 C 0.00628 0.98032 0.17684 0.0
C961 C 0.04037 0.94508 0.17993 0.0
C962 C 0.48686 0.91808 0.46607 0.0
C963 C 0.5208 0.88667 0.45991 0.0
C964 C 0.4979 0.96549 0.46773 0.0
C965 C 0.54285 0.98199 0.46318 0.0
H966 H 0.45053 0.90737 0.46735 0.0
H967 H 0.46946 0.98981 0.47005 0.0
S968 S 0.64751 0.91094 0.45305 0.0
N969 N 0.60402 0.87287 0.45442 0.0
N970 N 0.6241 0.96256 0.45739 0.0
C971 C 0.57895 0.94982 0.46062 0.0
C972 C 0.56789 0.90162 0.45886 0.0
C973 C 0.52281 0.37039 0.70412 0.0
C974 C 0.54753 0.34283 0.69194 0.0
C975 C 0.48735 0.40027 0.69829 0.0
C976 C 0.47485 0.40147 0.68034 0.0
H977 H 0.53657 0.37546 0.71732 0.0
H978 H 0.47241 0.42498 0.70759 0.0
S979 S 0.51793 0.32147 0.64524 0.0
N980 N 0.54794 0.30689 0.663 0.0
N981 N 0.48175 0.36337 0.6516 0.0
C982 C 0.49317 0.36704 0.66896 0.0
C983 C 0.52821 0.33592 0.67516 0.0
loop_
_geom_bond_atom_site_label_1
_geom_bond_atom_site_label_2
_geom_bond_distance
_geom_bond_site_symmetry_2
_ccdc_geom_bond_type
Co0 O3 1.970 1_455 S
Co0 N17 1.989 . S
Co0 O25 1.967 . S
Co0 O32 1.920 . S
Co1 O4 1.966 1_455 S
Co1 N10 2.022 . S
Co1 N18 1.993 . S
Co1 O26 1.941 . S
C2 O3 1.258 . S
C2 O4 1.263 . S
O3 Co0 1.970 1_655 S
O3 C2 1.258 . S
O4 Co1 1.966 1_655 S
O4 C2 1.263 . S
C5 O6 1.235 1_565 S
C5 O32 1.289 1_665 S
O6 C5 1.235 1_545 S
C7 C9 1.400 . S
C7 N10 1.351 1_655 S
C7 C12 1.501 . S
C8 C9 1.387 1_455 S
C8 N11 1.341 . S
C9 C7 1.400 . S
C9 C8 1.387 1_655 S
N10 Co1 2.022 . S
N10 C7 1.351 1_455 S
N10 N11 1.365 . S
N11 C8 1.341 . S
N11 N10 1.365 . S
N11 H31 0.862 . S
C12 C7 1.501 . S
C12 H13 0.961 . S
C12 H14 0.961 . S
C12 H15 0.960 . S
H13 C12 0.961 . S
H14 C12 0.961 . S
H15 C12 0.960 . S
C16 N17 1.342 . S
C16 C20 1.401 . S
C16 C21 1.499 . S
N17 Co0 1.989 . S
N17 C16 1.342 . S
N17 N18 1.388 . S
N18 Co1 1.993 . S
N18 N17 1.388 . S
N18 C19 1.346 . S
C19 N18 1.346 . S
C19 C20 1.396 . S
C19 C29 1.510 . S
C20 C16 1.401 . S
C20 C19 1.396 . S
C21 C16 1.499 . S
C21 H22 0.959 . S
C21 H23 0.960 . S
C21 H24 0.961 . S
H22 C21 0.959 . S
H23 C21 0.960 . S
H24 C21 0.961 . S
O25 Co0 1.967 . S
O25 C33 1.258 . S
O26 Co1 1.941 . S
O26 C33 1.266 . S
H27 C29 0.959 . S
H28 C29 0.961 1_655 S
C29 C19 1.510 . S
C29 H27 0.959 . S
C29 H28 0.961 1_455 S
C29 H30 0.960 . S
H30 C29 0.960 . S
H31 N11 0.862 . S
O32 Co0 1.920 . S
O32 C5 1.289 1_445 S
C33 O25 1.258 . S
C33 O26 1.266 . S
Co34 O37 1.970 . S
Co34 N51 1.989 . S
Co34 O59 1.967 . S
Co34 O66 1.920 . S
Co35 O38 1.966 . S
Co35 N44 2.022 . S
Co35 N52 1.993 . S
Co35 O60 1.941 . S
C36 O37 1.258 . S
C36 O38 1.263 . S
O37 Co34 1.970 . S
O37 C36 1.258 . S
O38 Co35 1.966 . S
O38 C36 1.263 . S
C39 O40 1.235 . S
C39 O66 1.289 . S
O40 C39 1.235 . S
C41 C43 1.400 . S
C41 N44 1.351 . S
C41 C46 1.501 . S
C42 C43 1.387 . S
C42 N45 1.341 . S
C43 C41 1.400 . S
C43 C42 1.387 . S
N44 Co35 2.022 . S
N44 C41 1.351 . S
N44 N45 1.365 . S
N45 C42 1.341 . S
N45 N44 1.365 . S
N45 H65 0.862 1_565 S
C46 C41 1.501 . S
C46 H47 0.961 . S
C46 H48 0.961 . S
C46 H49 0.960 . S
H47 C46 0.961 . S
H48 C46 0.961 . S
H49 C46 0.960 . S
C50 N51 1.342 . S
C50 C54 1.401 . S
C50 C55 1.499 . S
N51 Co34 1.989 . S
N51 C50 1.342 . S
N51 N52 1.388 . S
N52 Co35 1.993 . S
N52 N51 1.388 . S
N52 C53 1.346 . S
C53 N52 1.346 . S
C53 C54 1.396 . S
C53 C63 1.510 . S
C54 C50 1.401 . S
C54 C53 1.396 . S
C55 C50 1.499 . S
C55 H56 0.959 . S
C55 H57 0.960 . S
C55 H58 0.961 . S
H56 C55 0.959 . S
H57 C55 0.960 . S
H58 C55 0.961 . S
O59 Co34 1.967 . S
O59 C67 1.258 1_565 S
O60 Co35 1.941 . S
O60 C67 1.266 1_565 S
H61 C63 0.959 . S
H62 C63 0.961 . S
C63 C53 1.510 . S
C63 H61 0.959 . S
C63 H62 0.961 . S
C63 H64 0.960 . S
H64 C63 0.960 . S
H65 N45 0.862 1_545 S
O66 Co34 1.920 . S
O66 C39 1.289 . S
C67 O59 1.258 1_545 S
C67 O60 1.266 1_545 S
Co68 O71 1.970 . S
Co68 N85 1.989 . S
Co68 O93 1.967 . S
Co68 O100 1.920 . S
Co69 O72 1.966 . S
Co69 N78 2.022 . S
Co69 N86 1.993 . S
Co69 O94 1.941 . S
C70 O71 1.258 . S
C70 O72 1.263 . S
O71 Co68 1.970 . S
O71 C70 1.258 . S
O72 Co69 1.966 . S
O72 C70 1.263 . S
C73 O74 1.235 . S
C73 O100 1.289 . S
O74 C73 1.235 . S
C75 C77 1.400 . S
C75 N78 1.351 . S
C75 C80 1.501 . S
C76 C77 1.387 . S
C76 N79 1.341 . S
C77 C75 1.400 . S
C77 C76 1.387 . S
N78 Co69 2.022 . S
N78 C75 1.351 . S
N78 N79 1.365 . S
N79 C76 1.341 . S
N79 N78 1.365 . S
N79 H99 0.862 . S
C80 C75 1.501 . S
C80 H81 0.961 . S
C80 H82 0.961 . S
C80 H83 0.960 . S
H81 C80 0.961 . S
H82 C80 0.961 . S
H83 C80 0.960 . S
C84 N85 1.342 . S
C84 C88 1.401 . S
C84 C89 1.499 . S
N85 Co68 1.989 . S
N85 C84 1.342 . S
N85 N86 1.388 . S
N86 Co69 1.993 . S
N86 N85 1.388 . S
N86 C87 1.346 . S
C87 N86 1.346 . S
C87 C88 1.396 . S
C87 C97 1.510 . S
C88 C84 1.401 . S
C88 C87 1.396 . S
C89 C84 1.499 . S
C89 H90 0.959 . S
C89 H91 0.960 . S
C89 H92 0.961 . S
H90 C89 0.959 . S
H91 C89 0.960 . S
H92 C89 0.961 . S
O93 Co68 1.967 . S
O93 C101 1.258 . S
O94 Co69 1.941 . S
O94 C101 1.266 . S
H95 C97 0.959 . S
H96 C97 0.961 . S
C97 C87 1.510 . S
C97 H95 0.959 . S
C97 H96 0.961 . S
C97 H98 0.960 . S
H98 C97 0.960 . S
H99 N79 0.862 . S
O100 Co68 1.920 . S
O100 C73 1.289 . S
C101 O93 1.258 . S
C101 O94 1.266 . S
Co102 O105 1.970 . S
Co102 N119 1.989 . S
Co102 O127 1.967 . S
Co102 O134 1.920 . S
Co103 O106 1.966 . S
Co103 N112 2.022 . S
Co103 N120 1.993 . S
Co103 O128 1.941 . S
C104 O105 1.258 . S
C104 O106 1.263 . S
O105 Co102 1.970 . S
O105 C104 1.258 . S
O106 Co103 1.966 . S
O106 C104 1.263 . S
C107 O108 1.235 . S
C107 O134 1.289 . S
O108 C107 1.235 . S
C109 C111 1.400 . S
C109 N112 1.351 . S
C109 C114 1.501 . S
C110 C111 1.387 . S
C110 N113 1.341 . S
C111 C109 1.400 . S
C111 C110 1.387 . S
N112 Co103 2.022 . S
N112 C109 1.351 . S
N112 N113 1.365 . S
N113 C110 1.341 . S
N113 N112 1.365 . S
N113 H133 0.862 . S
C114 C109 1.501 . S
C114 H115 0.961 . S
C114 H116 0.961 . S
C114 H117 0.960 . S
H115 C114 0.961 . S
H116 C114 0.961 . S
H117 C114 0.960 . S
C118 N119 1.342 . S
C118 C122 1.401 . S
C118 C123 1.499 . S
N119 Co102 1.989 . S
N119 C118 1.342 . S
N119 N120 1.388 . S
N120 Co103 1.993 . S
N120 N119 1.388 . S
N120 C121 1.346 . S
C121 N120 1.346 . S
C121 C122 1.396 . S
C121 C131 1.510 . S
C122 C118 1.401 . S
C122 C121 1.396 . S
C123 C118 1.499 . S
C123 H124 0.959 . S
C123 H125 0.960 . S
C123 H126 0.961 . S
H124 C123 0.959 . S
H125 C123 0.960 . S
H126 C123 0.961 . S
O127 Co102 1.967 . S
O127 C135 1.258 . S
O128 Co103 1.941 . S
O128 C135 1.266 . S
H129 C131 0.959 . S
H130 C131 0.961 . S
C131 C121 1.510 . S
C131 H129 0.959 . S
C131 H130 0.961 . S
C131 H132 0.960 . S
H132 C131 0.960 . S
H133 N113 0.862 . S
O134 Co102 1.920 . S
O134 C107 1.289 . S
C135 O127 1.258 . S
C135 O128 1.266 . S
Co136 O139 1.970 1_455 S
Co136 N153 1.989 . S
Co136 O161 1.967 . S
Co136 O168 1.920 . S
Co137 O140 1.966 1_455 S
Co137 N146 2.022 . S
Co137 N154 1.993 . S
Co137 O162 1.941 . S
C138 O139 1.258 . S
C138 O140 1.263 . S
O139 Co136 1.970 1_655 S
O139 C138 1.258 . S
O140 Co137 1.966 1_655 S
O140 C138 1.263 . S
C141 O142 1.235 . S
C141 O168 1.289 1_655 S
O142 C141 1.235 . S
C143 C145 1.400 . S
C143 N146 1.351 1_655 S
C143 C148 1.501 . S
C144 C145 1.387 1_455 S
C144 N147 1.341 . S
C145 C143 1.400 . S
C145 C144 1.387 1_655 S
N146 Co137 2.022 . S
N146 C143 1.351 1_455 S
N146 N147 1.365 . S
N147 C144 1.341 . S
N147 N146 1.365 . S
N147 H167 0.862 . S
C148 C143 1.501 . S
C148 H149 0.961 . S
C148 H150 0.961 . S
C148 H151 0.960 . S
H149 C148 0.961 . S
H150 C148 0.961 . S
H151 C148 0.960 . S
C152 N153 1.342 . S
C152 C156 1.401 . S
C152 C157 1.499 . S
N153 Co136 1.989 . S
N153 C152 1.342 . S
N153 N154 1.388 . S
N154 Co137 1.993 . S
N154 N153 1.388 . S
N154 C155 1.346 . S
C155 N154 1.346 . S
C155 C156 1.396 . S
C155 C165 1.510 . S
C156 C152 1.401 . S
C156 C155 1.396 . S
C157 C152 1.499 . S
C157 H158 0.959 . S
C157 H159 0.960 . S
C157 H160 0.961 . S
H158 C157 0.959 . S
H159 C157 0.960 . S
H160 C157 0.961 . S
O161 Co136 1.967 . S
O161 C169 1.258 . S
O162 Co137 1.941 . S
O162 C169 1.266 . S
H163 C165 0.959 . S
H164 C165 0.961 1_655 S
C165 C155 1.510 . S
C165 H163 0.959 . S
C165 H164 0.961 1_455 S
C165 H166 0.960 . S
H166 C165 0.960 . S
H167 N147 0.862 . S
O168 Co136 1.920 . S
O168 C141 1.289 1_455 S
C169 O161 1.258 . S
C169 O162 1.266 . S
Co170 O173 1.970 . S
Co170 N187 1.989 . S
Co170 O195 1.967 . S
Co170 O202 1.920 . S
Co171 O174 1.966 . S
Co171 N180 2.022 . S
Co171 N188 1.993 . S
Co171 O196 1.941 . S
C172 O173 1.258 . S
C172 O174 1.263 . S
O173 Co170 1.970 . S
O173 C172 1.258 . S
O174 Co171 1.966 . S
O174 C172 1.263 . S
C175 O176 1.235 . S
C175 O202 1.289 . S
O176 C175 1.235 . S
C177 C179 1.400 . S
C177 N180 1.351 . S
C177 C182 1.501 . S
C178 C179 1.387 . S
C178 N181 1.341 . S
C179 C177 1.400 . S
C179 C178 1.387 . S
N180 Co171 2.022 . S
N180 C177 1.351 . S
N180 N181 1.365 . S
N181 C178 1.341 . S
N181 N180 1.365 . S
N181 H201 0.862 1_565 S
C182 C177 1.501 . S
C182 H183 0.961 . S
C182 H184 0.961 . S
C182 H185 0.960 . S
H183 C182 0.961 . S
H184 C182 0.961 . S
H185 C182 0.960 . S
C186 N187 1.342 . S
C186 C190 1.401 . S
C186 C191 1.499 . S
N187 Co170 1.989 . S
N187 C186 1.342 . S
N187 N188 1.388 . S
N188 Co171 1.993 . S
N188 N187 1.388 . S
N188 C189 1.346 . S
C189 N188 1.346 . S
C189 C190 1.396 . S
C189 C199 1.510 . S
C190 C186 1.401 . S
C190 C189 1.396 . S
C191 C186 1.499 . S
C191 H192 0.959 . S
C191 H193 0.960 . S
C191 H194 0.961 . S
H192 C191 0.959 . S
H193 C191 0.960 . S
H194 C191 0.961 . S
O195 Co170 1.967 . S
O195 C203 1.258 1_565 S
O196 Co171 1.941 . S
O196 C203 1.266 1_565 S
H197 C199 0.959 . S
H198 C199 0.961 . S
C199 C189 1.510 . S
C199 H197 0.959 . S
C199 H198 0.961 . S
C199 H200 0.960 . S
H200 C199 0.960 . S
H201 N181 0.862 1_545 S
O202 Co170 1.920 . S
O202 C175 1.289 . S
C203 O195 1.258 1_545 S
C203 O196 1.266 1_545 S
Co204 O207 1.970 . S
Co204 N221 1.989 . S
Co204 O229 1.967 . S
Co204 O236 1.920 . S
Co205 O208 1.966 . S
Co205 N214 2.022 . S
Co205 N222 1.993 . S
Co205 O230 1.941 . S
C206 O207 1.258 . S
C206 O208 1.263 . S
O207 Co204 1.970 . S
O207 C206 1.258 . S
O208 Co205 1.966 . S
O208 C206 1.263 . S
C209 O210 1.235 1_565 S
C209 O236 1.289 1_565 S
O210 C209 1.235 1_545 S
C211 C213 1.400 . S
C211 N214 1.351 . S
C211 C216 1.501 . S
C212 C213 1.387 . S
C212 N215 1.341 . S
C213 C211 1.400 . S
C213 C212 1.387 . S
N214 Co205 2.022 . S
N214 C211 1.351 . S
N214 N215 1.365 . S
N215 C212 1.341 . S
N215 N214 1.365 . S
N215 H235 0.862 . S
C216 C211 1.501 . S
C216 H217 0.961 . S
C216 H218 0.961 . S
C216 H219 0.960 . S
H217 C216 0.961 . S
H218 C216 0.961 . S
H219 C216 0.960 . S
C220 N221 1.342 . S
C220 C224 1.401 . S
C220 C225 1.499 . S
N221 Co204 1.989 . S
N221 C220 1.342 . S
N221 N222 1.388 . S
N222 Co205 1.993 . S
N222 N221 1.388 . S
N222 C223 1.346 . S
C223 N222 1.346 . S
C223 C224 1.396 . S
C223 C233 1.510 . S
C224 C220 1.401 . S
C224 C223 1.396 . S
C225 C220 1.499 . S
C225 H226 0.959 . S
C225 H227 0.960 . S
C225 H228 0.961 . S
H226 C225 0.959 . S
H227 C225 0.960 . S
H228 C225 0.961 . S
O229 Co204 1.967 . S
O229 C237 1.258 . S
O230 Co205 1.941 . S
O230 C237 1.266 . S
H231 C233 0.959 . S
H232 C233 0.961 . S
C233 C223 1.510 . S
C233 H231 0.959 . S
C233 H232 0.961 . S
C233 H234 0.960 . S
H234 C233 0.960 . S
H235 N215 0.862 . S
O236 Co204 1.920 . S
O236 C209 1.289 1_545 S
C237 O229 1.258 . S
C237 O230 1.266 . S
Co238 O241 1.970 . S
Co238 N255 1.989 . S
Co238 O263 1.967 . S
Co238 O270 1.920 . S
Co239 O242 1.966 . S
Co239 N248 2.022 . S
Co239 N256 1.993 . S
Co239 O264 1.941 . S
C240 O241 1.258 . S
C240 O242 1.263 . S
O241 Co238 1.970 . S
O241 C240 1.258 . S
O242 Co239 1.966 . S
O242 C240 1.263 . S
C243 O244 1.235 . S
C243 O270 1.289 . S
O244 C243 1.235 . S
C245 C247 1.400 . S
C245 N248 1.351 . S
C245 C250 1.501 . S
C246 C247 1.387 . S
C246 N249 1.341 . S
C247 C245 1.400 . S
C247 C246 1.387 . S
N248 Co239 2.022 . S
N248 C245 1.351 . S
N248 N249 1.365 . S
N249 C246 1.341 . S
N249 N248 1.365 . S
N249 H269 0.862 . S
C250 C245 1.501 . S
C250 H251 0.961 . S
C250 H252 0.961 . S
C250 H253 0.960 . S
H251 C250 0.961 . S
H252 C250 0.961 . S
H253 C250 0.960 . S
C254 N255 1.342 . S
C254 C258 1.401 . S
C254 C259 1.499 . S
N255 Co238 1.989 . S
N255 C254 1.342 . S
N255 N256 1.388 . S
N256 Co239 1.993 . S
N256 N255 1.388 . S
N256 C257 1.346 . S
C257 N256 1.346 . S
C257 C258 1.396 . S
C257 C267 1.510 . S
C258 C254 1.401 . S
C258 C257 1.396 . S
C259 C254 1.499 . S
C259 H260 0.959 . S
C259 H261 0.960 . S
C259 H262 0.961 . S
H260 C259 0.959 . S
H261 C259 0.960 . S
H262 C259 0.961 . S
O263 Co238 1.967 . S
O263 C271 1.258 . S
O264 Co239 1.941 . S
O264 C271 1.266 . S
H265 C267 0.959 . S
H266 C267 0.961 . S
C267 C257 1.510 . S
C267 H265 0.959 . S
C267 H266 0.961 . S
C267 H268 0.960 . S
H268 C267 0.960 . S
H269 N249 0.862 . S
O270 Co238 1.920 . S
O270 C243 1.289 . S
C271 O263 1.258 . S
C271 O264 1.266 . S
Co272 O275 1.970 . S
Co272 N289 1.989 . S
Co272 O297 1.967 . S
Co272 O304 1.920 . S
Co273 O276 1.966 . S
Co273 N282 2.022 . S
Co273 N290 1.993 . S
Co273 O298 1.941 . S
C274 O275 1.258 . S
C274 O276 1.263 . S
O275 Co272 1.970 . S
O275 C274 1.258 . S
O276 Co273 1.966 . S
O276 C274 1.263 . S
C277 O278 1.235 . S
C277 O304 1.289 . S
O278 C277 1.235 . S
C279 C281 1.400 . S
C279 N282 1.351 . S
C279 C284 1.501 . S
C280 C281 1.387 . S
C280 N283 1.341 . S
C281 C279 1.400 . S
C281 C280 1.387 . S
N282 Co273 2.022 . S
N282 C279 1.351 . S
N282 N283 1.365 . S
N283 C280 1.341 . S
N283 N282 1.365 . S
N283 H303 0.862 . S
C284 C279 1.501 . S
C284 H285 0.961 . S
C284 H286 0.961 . S
C284 H287 0.960 . S
H285 C284 0.961 . S
H286 C284 0.961 . S
H287 C284 0.960 . S
C288 N289 1.342 . S
C288 C292 1.401 . S
C288 C293 1.499 . S
N289 Co272 1.989 . S
N289 C288 1.342 . S
N289 N290 1.388 . S
N290 Co273 1.993 . S
N290 N289 1.388 . S
N290 C291 1.346 . S
C291 N290 1.346 . S
C291 C292 1.396 . S
C291 C301 1.510 . S
C292 C288 1.401 . S
C292 C291 1.396 . S
C293 C288 1.499 . S
C293 H294 0.959 . S
C293 H295 0.960 . S
C293 H296 0.961 . S
H294 C293 0.959 . S
H295 C293 0.960 . S
H296 C293 0.961 . S
O297 Co272 1.967 . S
O297 C305 1.258 . S
O298 Co273 1.941 . S
O298 C305 1.266 . S
H299 C301 0.959 . S
H300 C301 0.961 . S
C301 C291 1.510 . S
C301 H299 0.959 . S
C301 H300 0.961 . S
C301 H302 0.960 . S
H302 C301 0.960 . S
H303 N283 0.862 . S
O304 Co272 1.920 . S
O304 C277 1.289 . S
C305 O297 1.258 . S
C305 O298 1.266 . S
Co306 O309 1.970 . S
Co306 N323 1.989 . S
Co306 O331 1.967 . S
Co306 O338 1.920 . S
Co307 O310 1.966 . S
Co307 N316 2.022 . S
Co307 N324 1.993 . S
Co307 O332 1.941 . S
C308 O309 1.258 . S
C308 O310 1.263 . S
O309 Co306 1.970 . S
O309 C308 1.258 . S
O310 Co307 1.966 . S
O310 C308 1.263 . S
C311 O312 1.235 . S
C311 O338 1.289 . S
O312 C311 1.235 . S
C313 C315 1.400 . S
C313 N316 1.351 . S
C313 C318 1.479 1_565 S
C314 C315 1.387 . S
C314 N317 1.341 . S
C315 C313 1.400 . S
C315 C314 1.387 . S
N316 Co307 2.022 . S
N316 C313 1.351 . S
N316 N317 1.365 . S
N317 C314 1.341 . S
N317 N316 1.365 . S
N317 H337 0.862 . S
C318 C313 1.479 1_545 S
C318 H319 0.959 1_545 S
C318 H320 0.979 . S
C318 H321 0.965 . S
H319 C318 0.959 1_565 S
H320 C318 0.979 . S
H321 C318 0.965 . S
C322 N323 1.342 . S
C322 C326 1.401 . S
C322 C327 1.499 . S
N323 Co306 1.989 . S
N323 C322 1.342 . S
N323 N324 1.388 . S
N324 Co307 1.993 . S
N324 N323 1.388 . S
N324 C325 1.346 . S
C325 N324 1.346 . S
C325 C326 1.396 . S
C325 C335 1.510 . S
C326 C322 1.401 . S
C326 C325 1.396 . S
C327 C322 1.499 . S
C327 H328 0.959 . S
C327 H329 0.960 . S
C327 H330 0.961 . S
H328 C327 0.959 . S
H329 C327 0.960 . S
H330 C327 0.961 . S
O331 Co306 1.967 . S
O331 C339 1.258 . S
O332 Co307 1.941 . S
O332 C339 1.266 . S
H333 C335 0.959 . S
H334 C335 0.961 . S
C335 C325 1.510 . S
C335 H333 0.959 . S
C335 H334 0.961 . S
C335 H336 0.960 . S
H336 C335 0.960 . S
H337 N317 0.862 . S
O338 Co306 1.920 . S
O338 C311 1.289 . S
C339 O331 1.258 . S
C339 O332 1.266 . S
Co340 O343 1.970 . S
Co340 N357 1.989 . S
Co340 O365 1.967 . S
Co340 O372 1.920 . S
Co341 O344 1.966 . S
Co341 N350 2.022 . S
Co341 N358 1.993 . S
Co341 O366 1.941 . S
C342 O343 1.258 . S
C342 O344 1.263 . S
O343 Co340 1.970 . S
O343 C342 1.258 . S
O344 Co341 1.966 . S
O344 C342 1.263 . S
C345 O346 1.235 . S
C345 O372 1.289 . S
O346 C345 1.235 . S
C347 C349 1.400 . S
C347 N350 1.351 . S
C347 C352 1.501 . S
C348 C349 1.387 . S
C348 N351 1.341 . S
C349 C347 1.400 . S
C349 C348 1.387 . S
N350 Co341 2.022 . S
N350 C347 1.351 . S
N350 N351 1.365 . S
N351 C348 1.341 . S
N351 N350 1.365 . S
N351 H371 0.862 . S
C352 C347 1.501 . S
C352 H353 0.961 . S
C352 H354 0.961 . S
C352 H355 0.960 . S
H353 C352 0.961 . S
H354 C352 0.961 . S
H355 C352 0.960 . S
C356 N357 1.342 . S
C356 C360 1.401 . S
C356 C361 1.499 . S
N357 Co340 1.989 . S
N357 C356 1.342 . S
N357 N358 1.388 . S
N358 Co341 1.993 . S
N358 N357 1.388 . S
N358 C359 1.346 . S
C359 N358 1.346 . S
C359 C360 1.396 . S
C359 C369 1.510 . S
C360 C356 1.401 . S
C360 C359 1.396 . S
C361 C356 1.499 . S
C361 H362 0.959 . S
C361 H363 0.960 . S
C361 H364 0.961 . S
H362 C361 0.959 . S
H363 C361 0.960 . S
H364 C361 0.961 . S
O365 Co340 1.967 . S
O365 C373 1.258 . S
O366 Co341 1.941 . S
O366 C373 1.266 . S
H367 C369 0.959 . S
H368 C369 0.961 . S
C369 C359 1.510 . S
C369 H367 0.959 . S
C369 H368 0.961 . S
C369 H370 0.960 . S
H370 C369 0.960 . S
H371 N351 0.862 . S
O372 Co340 1.920 . S
O372 C345 1.289 . S
C373 O365 1.258 . S
C373 O366 1.266 . S
Co374 O377 1.970 . S
Co374 N391 1.989 . S
Co374 O399 1.967 . S
Co374 O406 1.920 . S
Co375 O378 1.966 . S
Co375 N384 2.022 . S
Co375 N392 1.993 . S
Co375 O400 1.941 . S
C376 O377 1.258 . S
C376 O378 1.263 . S
O377 Co374 1.970 . S
O377 C376 1.258 . S
O378 Co375 1.966 . S
O378 C376 1.263 . S
C379 O380 1.235 . S
C379 O406 1.289 . S
O380 C379 1.235 . S
C381 C383 1.400 . S
C381 N384 1.351 . S
C381 C386 1.501 1_565 S
C382 C383 1.387 . S
C382 N385 1.341 . S
C383 C381 1.400 . S
C383 C382 1.387 . S
N384 Co375 2.022 . S
N384 C381 1.351 . S
N384 N385 1.365 . S
N385 C382 1.341 . S
N385 N384 1.365 . S
N385 H405 0.862 . S
C386 C381 1.501 1_545 S
C386 H387 0.960 1_545 S
C386 H388 0.961 . S
C386 H389 0.960 . S
H387 C386 0.960 1_565 S
H388 C386 0.961 . S
H389 C386 0.960 . S
C390 N391 1.342 . S
C390 C394 1.401 . S
C390 C395 1.499 . S
N391 Co374 1.989 . S
N391 C390 1.342 . S
N391 N392 1.388 . S
N392 Co375 1.993 . S
N392 N391 1.388 . S
N392 C393 1.346 . S
C393 N392 1.346 . S
C393 C394 1.396 . S
C393 C403 1.510 . S
C394 C390 1.401 . S
C394 C393 1.396 . S
C395 C390 1.499 . S
C395 H396 0.959 . S
C395 H397 0.960 . S
C395 H398 0.961 . S
H396 C395 0.959 . S
H397 C395 0.960 . S
H398 C395 0.961 . S
O399 Co374 1.967 . S
O399 C407 1.258 . S
O400 Co375 1.941 . S
O400 C407 1.266 . S
H401 C403 0.959 . S
H402 C403 0.961 . S
C403 C393 1.510 . S
C403 H401 0.959 . S
C403 H402 0.961 . S
C403 H404 0.960 . S
H404 C403 0.960 . S
H405 N385 0.862 . S
O406 Co374 1.920 . S
O406 C379 1.289 . S
C407 O399 1.258 . S
C407 O400 1.266 . S
Co408 O411 1.970 . S
Co408 N425 1.989 . S
Co408 O433 1.967 . S
Co408 O440 1.920 . S
Co409 O412 1.966 . S
Co409 N418 2.022 . S
Co409 N426 1.993 . S
Co409 O434 1.941 . S
C410 O411 1.258 . S
C410 O412 1.263 . S
O411 Co408 1.970 . S
O411 C410 1.258 . S
O412 Co409 1.966 . S
O412 C410 1.263 . S
C413 O414 1.235 . S
C413 O440 1.289 . S
O414 C413 1.235 . S
C415 C417 1.400 . S
C415 N418 1.351 . S
C415 C420 1.501 . S
C416 C417 1.387 . S
C416 N419 1.341 . S
C417 C415 1.400 . S
C417 C416 1.387 . S
N418 Co409 2.022 . S
N418 C415 1.351 . S
N418 N419 1.365 . S
N419 C416 1.341 . S
N419 N418 1.365 . S
N419 H439 0.862 . S
C420 C415 1.501 . S
C420 H421 0.961 . S
C420 H422 0.961 . S
C420 H423 0.960 . S
H421 C420 0.961 . S
H422 C420 0.961 . S
H423 C420 0.960 . S
C424 N425 1.342 . S
C424 C428 1.401 . S
C424 C429 1.499 . S
N425 Co408 1.989 . S
N425 C424 1.342 . S
N425 N426 1.388 . S
N426 Co409 1.993 . S
N426 N425 1.388 . S
N426 C427 1.346 . S
C427 N426 1.346 . S
C427 C428 1.396 . S
C427 C437 1.510 . S
C428 C424 1.401 . S
C428 C427 1.396 . S
C429 C424 1.499 . S
C429 H430 0.959 . S
C429 H431 0.960 . S
C429 H432 0.961 . S
H430 C429 0.959 . S
H431 C429 0.960 . S
H432 C429 0.961 . S
O433 Co408 1.967 . S
O433 C441 1.258 . S
O434 Co409 1.941 . S
O434 C441 1.266 . S
H435 C437 0.959 . S
H436 C437 0.961 . S
C437 C427 1.510 . S
C437 H435 0.959 . S
C437 H436 0.961 . S
C437 H438 0.960 . S
H438 C437 0.960 . S
H439 N419 0.862 . S
O440 Co408 1.920 . S
O440 C413 1.289 . S
C441 O433 1.258 . S
C441 O434 1.266 . S
Co442 O445 1.970 . S
Co442 N459 1.989 . S
Co442 O467 1.967 1_455 S
Co442 O474 1.920 . S
Co443 O446 1.966 1_655 S
Co443 N452 2.022 . S
Co443 N460 1.993 1_655 S
Co443 O468 1.941 . S
C444 O445 1.258 . S
C444 O446 1.263 . S
O445 Co442 1.970 . S
O445 C444 1.258 . S
O446 Co443 1.966 1_455 S
O446 C444 1.263 . S
C447 O448 1.235 . S
C447 O474 1.289 . S
O448 C447 1.235 . S
C449 C451 1.400 . S
C449 N452 1.351 1_455 S
C449 C454 1.501 . S
C450 C451 1.387 1_655 S
C450 N453 1.341 . S
C451 C449 1.400 . S
C451 C450 1.387 1_455 S
N452 Co443 2.022 . S
N452 C449 1.351 1_655 S
N452 N453 1.365 . S
N453 C450 1.341 . S
N453 N452 1.365 . S
N453 H473 0.862 . S
C454 C449 1.501 . S
C454 H455 0.961 . S
C454 H456 0.961 . S
C454 H457 0.960 . S
H455 C454 0.961 . S
H456 C454 0.961 . S
H457 C454 0.960 . S
C458 N459 1.342 1_655 S
C458 C462 1.401 . S
C458 C463 1.499 . S
N459 Co442 1.989 . S
N459 C458 1.342 1_455 S
N459 N460 1.388 . S
N460 Co443 1.993 1_455 S
N460 N459 1.388 . S
N460 C461 1.346 1_455 S
C461 N460 1.346 1_655 S
C461 C462 1.396 . S
C461 C471 1.510 . S
C462 C458 1.401 . S
C462 C461 1.396 . S
C463 C458 1.499 . S
C463 H464 0.959 . S
C463 H465 0.960 1_655 S
C463 H466 0.961 . S
H464 C463 0.959 . S
H465 C463 0.960 1_455 S
H466 C463 0.961 . S
O467 Co442 1.967 1_655 S
O467 C475 1.258 . S
O468 Co443 1.941 . S
O468 C475 1.266 . S
H469 C471 0.965 . S
H470 C471 0.956 1_455 S
C471 C461 1.510 . S
C471 H469 0.965 . S
C471 H470 0.956 1_655 S
C471 H472 0.959 1_655 S
H472 C471 0.959 1_455 S
H473 N453 0.862 . S
O474 Co442 1.920 . S
O474 C447 1.289 . S
C475 O467 1.258 . S
C475 O468 1.266 . S
Co476 O479 1.970 . S
Co476 N493 1.989 . S
Co476 O501 1.967 . S
Co476 O508 1.920 . S
Co477 O480 1.966 . S
Co477 N486 2.022 . S
Co477 N494 1.993 . S
Co477 O502 1.941 . S
C478 O479 1.258 . S
C478 O480 1.263 . S
O479 Co476 1.970 . S
O479 C478 1.258 . S
O480 Co477 1.966 . S
O480 C478 1.263 . S
C481 O482 1.235 . S
C481 O508 1.289 . S
O482 C481 1.235 . S
C483 C485 1.400 . S
C483 N486 1.351 . S
C483 C488 1.501 . S
C484 C485 1.387 . S
C484 N487 1.341 . S
C485 C483 1.400 . S
C485 C484 1.387 . S
N486 Co477 2.022 . S
N486 C483 1.351 . S
N486 N487 1.365 . S
N487 C484 1.341 . S
N487 N486 1.365 . S
N487 H507 0.862 . S
C488 C483 1.501 . S
C488 H489 0.961 . S
C488 H490 0.961 . S
C488 H491 0.960 . S
H489 C488 0.961 . S
H490 C488 0.961 . S
H491 C488 0.960 . S
C492 N493 1.342 . S
C492 C496 1.401 . S
C492 C497 1.499 . S
N493 Co476 1.989 . S
N493 C492 1.342 . S
N493 N494 1.388 . S
N494 Co477 1.993 . S
N494 N493 1.388 . S
N494 C495 1.346 . S
C495 N494 1.346 . S
C495 C496 1.396 . S
C495 C505 1.510 . S
C496 C492 1.401 . S
C496 C495 1.396 . S
C497 C492 1.499 . S
C497 H498 0.959 . S
C497 H499 0.960 . S
C497 H500 0.961 . S
H498 C497 0.959 . S
H499 C497 0.960 . S
H500 C497 0.961 . S
O501 Co476 1.967 . S
O501 C509 1.258 . S
O502 Co477 1.941 . S
O502 C509 1.266 . S
H503 C505 0.959 . S
H504 C505 0.961 . S
C505 C495 1.510 . S
C505 H503 0.959 . S
C505 H504 0.961 . S
C505 H506 0.960 . S
H506 C505 0.960 . S
H507 N487 0.862 . S
O508 Co476 1.920 . S
O508 C481 1.289 . S
C509 O501 1.258 . S
C509 O502 1.266 . S
Co510 O513 1.970 . S
Co510 N527 1.989 . S
Co510 O535 1.967 1_455 S
Co510 O542 1.920 . S
Co511 O514 1.966 1_655 S
Co511 N520 2.022 . S
Co511 N528 1.993 1_655 S
Co511 O536 1.941 . S
C512 O513 1.258 . S
C512 O514 1.263 . S
O513 Co510 1.970 . S
O513 C512 1.258 . S
O514 Co511 1.966 1_455 S
O514 C512 1.263 . S
C515 O516 1.235 . S
C515 O542 1.289 . S
O516 C515 1.235 . S
C517 C519 1.400 . S
C517 N520 1.351 1_455 S
C517 C522 1.501 . S
C518 C519 1.387 1_655 S
C518 N521 1.341 . S
C519 C517 1.400 . S
C519 C518 1.387 1_455 S
N520 Co511 2.022 . S
N520 C517 1.351 1_655 S
N520 N521 1.365 . S
N521 C518 1.341 . S
N521 N520 1.365 . S
N521 H541 0.862 . S
C522 C517 1.501 . S
C522 H523 0.961 . S
C522 H524 0.961 . S
C522 H525 0.960 . S
H523 C522 0.961 . S
H524 C522 0.961 . S
H525 C522 0.960 . S
C526 N527 1.342 1_655 S
C526 C530 1.401 . S
C526 C531 1.499 . S
N527 Co510 1.989 . S
N527 C526 1.342 1_455 S
N527 N528 1.388 . S
N528 Co511 1.993 1_455 S
N528 N527 1.388 . S
N528 C529 1.346 1_455 S
C529 N528 1.346 1_655 S
C529 C530 1.396 . S
C529 C539 1.510 . S
C530 C526 1.401 . S
C530 C529 1.396 . S
C531 C526 1.499 . S
C531 H532 0.959 . S
C531 H533 0.960 1_655 S
C531 H534 0.961 . S
H532 C531 0.959 . S
H533 C531 0.960 1_455 S
H534 C531 0.961 . S
O535 Co510 1.967 1_655 S
O535 C543 1.258 . S
O536 Co511 1.941 . S
O536 C543 1.266 . S
H537 C539 0.964 . S
H538 C539 0.957 1_455 S
C539 C529 1.510 . S
C539 H537 0.964 . S
C539 H538 0.957 1_655 S
C539 H540 0.959 1_655 S
H540 C539 0.959 1_455 S
H541 N521 0.862 . S
O542 Co510 1.920 . S
O542 C515 1.289 . S
C543 O535 1.258 . S
C543 O536 1.266 . S
C544 C545 1.369 . S
C544 C546 1.419 . S
C544 H548 0.930 . S
C545 C544 1.369 . S
C545 C554 1.429 1_455 S
C546 C544 1.419 . S
C546 C547 1.363 1_455 S
C546 H549 0.929 . S
C547 C546 1.363 1_655 S
C547 C553 1.428 . S
H548 C544 0.930 . S
H549 C546 0.929 . S
S550 N551 1.613 . S
S550 N552 1.610 . S
N551 S550 1.613 . S
N551 C554 1.350 . S
N552 S550 1.610 . S
N552 C553 1.351 . S
C553 C547 1.428 . S
C553 N552 1.351 . S
C553 C554 1.434 . S
C554 C545 1.429 1_655 S
C554 N551 1.350 . S
C554 C553 1.434 . S
C555 C556 1.369 . S
C555 C557 1.419 1_455 S
C555 H559 0.930 . S
C556 C555 1.369 . S
C556 C565 1.429 . S
C557 C555 1.419 1_655 S
C557 C558 1.363 . S
C557 H560 0.929 . S
C558 C557 1.363 . S
C558 C564 1.428 . S
H559 C555 0.930 . S
H560 C557 0.929 . S
S561 N562 1.613 . S
S561 N563 1.610 1_455 S
N562 S561 1.613 . S
N562 C565 1.350 . S
N563 S561 1.610 1_655 S
N563 C564 1.351 . S
C564 C558 1.428 . S
C564 N563 1.351 . S
C564 C565 1.434 1_655 S
C565 C556 1.429 . S
C565 N562 1.350 . S
C565 C564 1.434 1_455 S
C566 C567 1.369 . S
C566 C568 1.419 . S
C566 H570 0.930 . S
C567 C566 1.369 . S
C567 C576 1.429 . S
C568 C566 1.419 . S
C568 C569 1.363 . S
C568 H571 0.929 . S
C569 C568 1.363 . S
C569 C575 1.428 . S
H570 C566 0.930 . S
H571 C568 0.929 . S
S572 N573 1.613 . S
S572 N574 1.610 . S
N573 S572 1.613 . S
N573 C576 1.350 . S
N574 S572 1.610 . S
N574 C575 1.351 . S
C575 C569 1.428 . S
C575 N574 1.351 . S
C575 C576 1.434 . S
C576 C567 1.429 . S
C576 N573 1.350 . S
C576 C575 1.434 . S
C577 C578 1.369 . S
C577 C579 1.419 . S
C577 H581 0.930 . S
C578 C577 1.369 . S
C578 C587 1.429 . S
C579 C577 1.419 . S
C579 C580 1.363 . S
C579 H582 0.929 . S
C580 C579 1.363 . S
C580 C586 1.428 . S
H581 C577 0.930 . S
H582 C579 0.929 . S
S583 N584 1.613 . S
S583 N585 1.610 . S
N584 S583 1.613 . S
N584 C587 1.350 . S
N585 S583 1.610 . S
N585 C586 1.351 . S
C586 C580 1.428 . S
C586 N585 1.351 . S
C586 C587 1.434 . S
C587 C578 1.429 . S
C587 N584 1.350 . S
C587 C586 1.434 . S
C588 C589 1.369 . S
C588 C590 1.419 . S
C588 H592 0.930 . S
C589 C588 1.369 . S
C589 C598 1.429 . S
C590 C588 1.419 . S
C590 C591 1.363 1_455 S
C590 H593 0.929 . S
C591 C590 1.363 1_655 S
C591 C597 1.428 . S
H592 C588 0.930 . S
H593 C590 0.929 . S
S594 N595 1.613 1_655 S
S594 N596 1.610 . S
N595 S594 1.613 1_455 S
N595 C598 1.350 . S
N596 S594 1.610 . S
N596 C597 1.351 . S
C597 C591 1.428 . S
C597 N596 1.351 . S
C597 C598 1.434 1_655 S
C598 C589 1.429 . S
C598 N595 1.350 . S
C598 C597 1.434 1_455 S
C599 C600 1.369 . S
C599 C601 1.419 . S
C599 H603 0.930 . S
C600 C599 1.369 . S
C600 C609 1.429 . S
C601 C599 1.419 . S
C601 C602 1.363 . S
C601 H604 0.929 . S
C602 C601 1.363 . S
C602 C608 1.428 . S
H603 C599 0.930 . S
H604 C601 0.929 . S
S605 N606 1.613 1_545 S
S605 N607 1.610 . S
N606 S605 1.613 1_565 S
N606 C609 1.350 . S
N607 S605 1.610 . S
N607 C608 1.351 1_545 S
C608 C602 1.428 . S
C608 N607 1.351 1_565 S
C608 C609 1.434 . S
C609 C600 1.429 . S
C609 N606 1.350 . S
C609 C608 1.434 . S
C610 C611 1.369 . S
C610 C612 1.419 . S
C610 H614 0.930 . S
C611 C610 1.369 . S
C611 C620 1.429 . S
C612 C610 1.419 . S
C612 C613 1.363 . S
C612 H615 0.929 . S
C613 C612 1.363 . S
C613 C619 1.428 . S
H614 C610 0.930 . S
H615 C612 0.929 . S
S616 N617 1.613 . S
S616 N618 1.610 . S
N617 S616 1.613 . S
N617 C620 1.350 . S
N618 S616 1.610 . S
N618 C619 1.351 . S
C619 C613 1.428 . S
C619 N618 1.351 . S
C619 C620 1.434 . S
C620 C611 1.429 . S
C620 N617 1.350 . S
C620 C619 1.434 . S
C621 C622 1.369 . S
C621 C623 1.419 1_655 S
C621 H625 0.930 . S
C622 C621 1.369 . S
C622 C631 1.429 . S
C623 C621 1.419 1_455 S
C623 C624 1.363 . S
C623 H626 0.929 . S
C624 C623 1.363 . S
C624 C630 1.428 . S
H625 C621 0.930 . S
H626 C623 0.929 . S
S627 N628 1.613 . S
S627 N629 1.610 1_655 S
N628 S627 1.613 . S
N628 C631 1.350 . S
N629 S627 1.610 1_455 S
N629 C630 1.351 . S
C630 C624 1.428 . S
C630 N629 1.351 . S
C630 C631 1.434 1_455 S
C631 C622 1.429 . S
C631 N628 1.350 . S
C631 C630 1.434 1_655 S
C632 C633 1.369 . S
C632 C634 1.419 1_554 S
C632 H636 0.930 . S
C633 C632 1.369 . S
C633 C642 1.429 1_455 S
C634 C632 1.419 1_556 S
C634 C635 1.363 . S
C634 H637 0.929 . S
C635 C634 1.363 . S
C635 C641 1.428 1_455 S
H636 C632 0.930 . S
H637 C634 0.929 . S
S638 N639 1.596 1_556 S
S638 N640 1.627 . S
N639 S638 1.596 1_554 S
N639 C642 1.350 . S
N640 S638 1.627 . S
N640 C641 1.351 . S
C641 C635 1.428 1_655 S
C641 N640 1.351 . S
C641 C642 1.434 1_556 S
C642 C633 1.429 1_655 S
C642 N639 1.350 . S
C642 C641 1.434 1_554 S
C643 C644 1.369 . S
C643 C645 1.419 . S
C643 H647 0.930 1_565 S
C644 C643 1.369 . S
C644 C653 1.429 . S
C645 C643 1.419 . S
C645 C646 1.363 . S
C645 H648 0.929 1_565 S
C646 C645 1.363 . S
C646 C652 1.428 . S
H647 C643 0.930 1_545 S
H648 C645 0.929 1_545 S
S649 N650 1.613 . S
S649 N651 1.610 . S
N650 S649 1.613 . S
N650 C653 1.350 . S
N651 S649 1.610 . S
N651 C652 1.351 . S
C652 C646 1.428 . S
C652 N651 1.351 . S
C652 C653 1.434 . S
C653 C644 1.429 . S
C653 N650 1.350 . S
C653 C652 1.434 . S
C654 C655 1.369 . S
C654 C656 1.419 . S
C654 H658 0.930 . S
C655 C654 1.369 . S
C655 C664 1.429 . S
C656 C654 1.419 . S
C656 C657 1.363 . S
C656 H659 0.929 . S
C657 C656 1.363 . S
C657 C663 1.428 . S
H658 C654 0.930 . S
H659 C656 0.929 . S
S660 N661 1.613 . S
S660 N662 1.610 . S
N661 S660 1.613 . S
N661 C664 1.350 . S
N662 S660 1.610 . S
N662 C663 1.351 . S
C663 C657 1.428 . S
C663 N662 1.351 . S
C663 C664 1.434 . S
C664 C655 1.429 . S
C664 N661 1.350 . S
C664 C663 1.434 . S
C665 C666 1.369 . S
C665 C667 1.419 . S
C665 H669 0.930 . S
C666 C665 1.369 . S
C666 C675 1.429 . S
C667 C665 1.419 . S
C667 C668 1.363 . S
C667 H670 0.929 . S
C668 C667 1.363 . S
C668 C674 1.428 . S
H669 C665 0.930 . S
H670 C667 0.929 . S
S671 N672 1.613 . S
S671 N673 1.610 . S
N672 S671 1.613 . S
N672 C675 1.350 . S
N673 S671 1.610 . S
N673 C674 1.351 . S
C674 C668 1.428 . S
C674 N673 1.351 . S
C674 C675 1.434 . S
C675 C666 1.429 . S
C675 N672 1.350 . S
C675 C674 1.434 . S
C676 C677 1.369 . S
C676 C678 1.419 . S
C676 H680 0.930 . S
C677 C676 1.369 . S
C677 C686 1.429 . S
C678 C676 1.419 . S
C678 C679 1.363 . S
C678 H681 0.929 . S
C679 C678 1.363 . S
C679 C685 1.428 . S
H680 C676 0.930 . S
H681 C678 0.929 . S
S682 N683 1.613 . S
S682 N684 1.610 . S
N683 S682 1.613 . S
N683 C686 1.350 . S
N684 S682 1.610 . S
N684 C685 1.351 . S
C685 C679 1.428 . S
C685 N684 1.351 . S
C685 C686 1.434 . S
C686 C677 1.429 . S
C686 N683 1.350 . S
C686 C685 1.434 . S
C687 C688 1.369 . S
C687 C689 1.419 . S
C687 H691 0.930 . S
C688 C687 1.369 . S
C688 C697 1.429 . S
C689 C687 1.419 . S
C689 C690 1.363 . S
C689 H692 0.929 . S
C690 C689 1.363 . S
C690 C696 1.428 . S
H691 C687 0.930 . S
H692 C689 0.929 . S
S693 N694 1.613 . S
S693 N695 1.610 . S
N694 S693 1.613 . S
N694 C697 1.350 . S
N695 S693 1.610 . S
N695 C696 1.351 . S
C696 C690 1.428 . S
C696 N695 1.351 . S
C696 C697 1.434 . S
C697 C688 1.429 . S
C697 N694 1.350 . S
C697 C696 1.434 . S
C698 C699 1.369 . S
C698 C700 1.419 . S
C698 H702 0.930 . S
C699 C698 1.369 . S
C699 C708 1.429 . S
C700 C698 1.419 . S
C700 C701 1.363 . S
C700 H703 0.929 . S
C701 C700 1.363 . S
C701 C707 1.428 . S
H702 C698 0.930 . S
H703 C700 0.929 . S
S704 N705 1.613 . S
S704 N706 1.610 . S
N705 S704 1.613 . S
N705 C708 1.350 . S
N706 S704 1.610 . S
N706 C707 1.351 . S
C707 C701 1.428 . S
C707 N706 1.351 . S
C707 C708 1.434 . S
C708 C699 1.429 . S
C708 N705 1.350 . S
C708 C707 1.434 . S
C709 C710 1.369 1_455 S
C709 C711 1.419 1_556 S
C709 H713 0.930 . S
C710 C709 1.369 1_655 S
C710 C719 1.429 . S
C711 C709 1.419 1_554 S
C711 C712 1.363 1_455 S
C711 H714 0.929 . S
C712 C711 1.363 1_655 S
C712 C718 1.428 . S
H713 C709 0.930 . S
H714 C711 0.929 . S
S715 N716 1.632 . S
S715 N717 1.592 1_556 S
N716 S715 1.632 . S
N716 C719 1.350 . S
N717 S715 1.592 1_554 S
N717 C718 1.351 . S
C718 C712 1.428 . S
C718 N717 1.351 . S
C718 C719 1.434 1_554 S
C719 C710 1.429 . S
C719 N716 1.350 . S
C719 C718 1.434 1_556 S
C720 C721 1.369 . S
C720 C722 1.419 . S
C720 H724 0.930 . S
C721 C720 1.369 . S
C721 C730 1.429 . S
C722 C720 1.419 . S
C722 C723 1.363 . S
C722 H725 0.929 . S
C723 C722 1.363 . S
C723 C729 1.428 . S
H724 C720 0.930 . S
H725 C722 0.929 . S
S726 N727 1.613 . S
S726 N728 1.610 . S
N727 S726 1.613 . S
N727 C730 1.350 . S
N728 S726 1.610 . S
N728 C729 1.351 . S
C729 C723 1.428 . S
C729 N728 1.351 . S
C729 C730 1.434 . S
C730 C721 1.429 . S
C730 N727 1.350 . S
C730 C729 1.434 . S
C731 C732 1.369 . S
C731 C733 1.419 . S
C731 H735 0.930 . S
C732 C731 1.369 . S
C732 C741 1.429 . S
C733 C731 1.419 . S
C733 C734 1.363 . S
C733 H736 0.929 . S
C734 C733 1.363 . S
C734 C740 1.428 . S
H735 C731 0.930 . S
H736 C733 0.929 . S
S737 N738 1.613 . S
S737 N739 1.610 1_565 S
N738 S737 1.613 . S
N738 C741 1.350 1_565 S
N739 S737 1.610 1_545 S
N739 C740 1.351 . S
C740 C734 1.428 . S
C740 N739 1.351 . S
C740 C741 1.434 . S
C741 C732 1.429 . S
C741 N738 1.350 1_545 S
C741 C740 1.434 . S
C742 C743 1.369 . S
C742 C744 1.419 . S
C742 H746 0.930 . S
C743 C742 1.369 . S
C743 C752 1.429 . S
C744 C742 1.419 . S
C744 C745 1.363 . S
C744 H747 0.929 . S
C745 C744 1.363 . S
C745 C751 1.428 . S
H746 C742 0.930 . S
H747 C744 0.929 . S
S748 N749 1.613 . S
S748 N750 1.610 . S
N749 S748 1.613 . S
N749 C752 1.350 . S
N750 S748 1.610 . S
N750 C751 1.351 . S
C751 C745 1.428 . S
C751 N750 1.351 . S
C751 C752 1.434 . S
C752 C743 1.429 . S
C752 N749 1.350 . S
C752 C751 1.434 . S
C753 C754 1.369 . S
C753 C755 1.419 . S
C753 H757 0.930 . S
C754 C753 1.369 . S
C754 C763 1.429 . S
C755 C753 1.419 . S
C755 C756 1.363 . S
C755 H758 0.929 . S
C756 C755 1.363 . S
C756 C762 1.428 . S
H757 C753 0.930 . S
H758 C755 0.929 . S
S759 N760 1.613 . S
S759 N761 1.610 . S
N760 S759 1.613 . S
N760 C763 1.350 . S
N761 S759 1.610 . S
N761 C762 1.351 . S
C762 C756 1.428 . S
C762 N761 1.351 . S
C762 C763 1.434 . S
C763 C754 1.429 . S
C763 N760 1.350 . S
C763 C762 1.434 . S
C764 C765 1.369 . S
C764 C766 1.419 . S
C764 H768 0.930 . S
C765 C764 1.369 . S
C765 C774 1.429 . S
C766 C764 1.419 . S
C766 C767 1.363 . S
C766 H769 0.929 . S
C767 C766 1.363 . S
C767 C773 1.428 . S
H768 C764 0.930 . S
H769 C766 0.929 . S
S770 N771 1.613 . S
S770 N772 1.610 . S
N771 S770 1.613 . S
N771 C774 1.350 . S
N772 S770 1.610 . S
N772 C773 1.351 . S
C773 C767 1.428 . S
C773 N772 1.351 . S
C773 C774 1.434 . S
C774 C765 1.429 . S
C774 N771 1.350 . S
C774 C773 1.434 . S
C775 C776 1.369 . S
C775 C777 1.419 . S
C775 H779 0.930 . S
C776 C775 1.369 . S
C776 C785 1.429 . S
C777 C775 1.419 . S
C777 C778 1.363 . S
C777 H780 0.929 . S
C778 C777 1.363 . S
C778 C784 1.428 . S
H779 C775 0.930 . S
H780 C777 0.929 . S
S781 N782 1.613 . S
S781 N783 1.610 . S
N782 S781 1.613 . S
N782 C785 1.350 . S
N783 S781 1.610 . S
N783 C784 1.351 . S
C784 C778 1.428 . S
C784 N783 1.351 . S
C784 C785 1.434 . S
C785 C776 1.429 . S
C785 N782 1.350 . S
C785 C784 1.434 . S
C786 C787 1.369 . S
C786 C788 1.419 . S
C786 H790 0.930 . S
C787 C786 1.369 . S
C787 C796 1.429 . S
C788 C786 1.419 . S
C788 C789 1.363 . S
C788 H791 0.929 . S
C789 C788 1.363 . S
C789 C795 1.428 . S
H790 C786 0.930 . S
H791 C788 0.929 . S
S792 N793 1.613 . S
S792 N794 1.610 . S
N793 S792 1.613 . S
N793 C796 1.350 . S
N794 S792 1.610 . S
N794 C795 1.351 . S
C795 C789 1.428 . S
C795 N794 1.351 . S
C795 C796 1.434 . S
C796 C787 1.429 . S
C796 N793 1.350 . S
C796 C795 1.434 . S
C797 C798 1.369 . S
C797 C799 1.419 . S
C797 H801 0.930 1_545 S
C798 C797 1.369 . S
C798 C807 1.429 . S
C799 C797 1.419 . S
C799 C800 1.363 . S
C799 H802 0.929 . S
C800 C799 1.363 . S
C800 C806 1.428 . S
H801 C797 0.930 1_565 S
H802 C799 0.929 . S
S803 N804 1.613 . S
S803 N805 1.610 . S
N804 S803 1.613 . S
N804 C807 1.350 . S
N805 S803 1.610 . S
N805 C806 1.351 . S
C806 C800 1.428 . S
C806 N805 1.351 . S
C806 C807 1.434 . S
C807 C798 1.429 . S
C807 N804 1.350 . S
C807 C806 1.434 . S
C808 C809 1.369 . S
C808 C810 1.419 . S
C808 H812 0.930 . S
C809 C808 1.369 . S
C809 C818 1.429 . S
C810 C808 1.419 . S
C810 C811 1.363 . S
C810 H813 0.929 . S
C811 C810 1.363 . S
C811 C817 1.428 . S
H812 C808 0.930 . S
H813 C810 0.929 . S
S814 N815 1.613 . S
S814 N816 1.610 . S
N815 S814 1.613 . S
N815 C818 1.350 . S
N816 S814 1.610 . S
N816 C817 1.351 . S
C817 C811 1.428 . S
C817 N816 1.351 . S
C817 C818 1.434 . S
C818 C809 1.429 . S
C818 N815 1.350 . S
C818 C817 1.434 . S
C819 C820 1.369 . S
C819 C821 1.419 . S
C819 H823 0.930 . S
C820 C819 1.369 . S
C820 C829 1.429 . S
C821 C819 1.419 . S
C821 C822 1.363 . S
C821 H824 0.929 . S
C822 C821 1.363 . S
C822 C828 1.428 . S
H823 C819 0.930 . S
H824 C821 0.929 . S
S825 N826 1.613 . S
S825 N827 1.610 . S
N826 S825 1.613 . S
N826 C829 1.350 . S
N827 S825 1.610 . S
N827 C828 1.351 . S
C828 C822 1.428 . S
C828 N827 1.351 . S
C828 C829 1.434 . S
C829 C820 1.429 . S
C829 N826 1.350 . S
C829 C828 1.434 . S
C830 C831 1.369 . S
C830 C832 1.419 . S
C830 H834 0.930 . S
C831 C830 1.369 . S
C831 C840 1.429 . S
C832 C830 1.419 . S
C832 C833 1.363 . S
C832 H835 0.929 . S
C833 C832 1.363 . S
C833 C839 1.428 . S
H834 C830 0.930 . S
H835 C832 0.929 . S
S836 N837 1.613 . S
S836 N838 1.610 . S
N837 S836 1.613 . S
N837 C840 1.350 . S
N838 S836 1.610 . S
N838 C839 1.351 . S
C839 C833 1.428 . S
C839 N838 1.351 . S
C839 C840 1.434 . S
C840 C831 1.429 . S
C840 N837 1.350 . S
C840 C839 1.434 . S
C841 C842 1.369 . S
C841 C843 1.419 . S
C841 H845 0.930 . S
C842 C841 1.369 . S
C842 C851 1.429 . S
C843 C841 1.419 . S
C843 C844 1.363 . S
C843 H846 0.929 . S
C844 C843 1.363 . S
C844 C850 1.428 . S
H845 C841 0.930 . S
H846 C843 0.929 . S
S847 N848 1.613 . S
S847 N849 1.610 . S
N848 S847 1.613 . S
N848 C851 1.350 . S
N849 S847 1.610 . S
N849 C850 1.351 . S
C850 C844 1.428 . S
C850 N849 1.351 . S
C850 C851 1.434 . S
C851 C842 1.429 . S
C851 N848 1.350 . S
C851 C850 1.434 . S
C852 C853 1.369 . S
C852 C854 1.419 . S
C852 H856 0.930 . S
C853 C852 1.369 . S
C853 C862 1.429 . S
C854 C852 1.419 . S
C854 C855 1.363 . S
C854 H857 0.929 . S
C855 C854 1.363 . S
C855 C861 1.428 . S
H856 C852 0.930 . S
H857 C854 0.929 . S
S858 N859 1.613 . S
S858 N860 1.610 . S
N859 S858 1.613 . S
N859 C862 1.350 . S
N860 S858 1.610 . S
N860 C861 1.351 . S
C861 C855 1.428 . S
C861 N860 1.351 . S
C861 C862 1.434 . S
C862 C853 1.429 . S
C862 N859 1.350 . S
C862 C861 1.434 . S
C863 C864 1.369 . S
C863 C865 1.419 . S
C863 H867 0.930 . S
C864 C863 1.369 . S
C864 C873 1.429 . S
C865 C863 1.419 . S
C865 C866 1.363 . S
C865 H868 0.929 . S
C866 C865 1.363 . S
C866 C872 1.428 . S
H867 C863 0.930 . S
H868 C865 0.929 . S
S869 N870 1.613 . S
S869 N871 1.610 . S
N870 S869 1.613 . S
N870 C873 1.350 . S
N871 S869 1.610 . S
N871 C872 1.351 . S
C872 C866 1.428 . S
C872 N871 1.351 . S
C872 C873 1.434 . S
C873 C864 1.429 . S
C873 N870 1.350 . S
C873 C872 1.434 . S
C874 C875 1.369 . S
C874 C876 1.419 . S
C874 H878 0.930 . S
C875 C874 1.369 . S
C875 C884 1.429 . S
C876 C874 1.419 . S
C876 C877 1.363 . S
C876 H879 0.929 . S
C877 C876 1.363 . S
C877 C883 1.428 . S
H878 C874 0.930 . S
H879 C876 0.929 . S
S880 N881 1.613 . S
S880 N882 1.610 . S
N881 S880 1.613 . S
N881 C884 1.350 . S
N882 S880 1.610 . S
N882 C883 1.351 . S
C883 C877 1.428 . S
C883 N882 1.351 . S
C883 C884 1.434 . S
C884 C875 1.429 . S
C884 N881 1.350 . S
C884 C883 1.434 . S
C885 C886 1.369 . S
C885 C887 1.419 . S
C885 H889 0.930 . S
C886 C885 1.369 . S
C886 C895 1.429 . S
C887 C885 1.419 . S
C887 C888 1.363 . S
C887 H890 0.929 . S
C888 C887 1.363 . S
C888 C894 1.428 . S
H889 C885 0.930 . S
H890 C887 0.929 . S
S891 N892 1.613 . S
S891 N893 1.610 . S
N892 S891 1.613 . S
N892 C895 1.350 . S
N893 S891 1.610 . S
N893 C894 1.351 . S
C894 C888 1.428 . S
C894 N893 1.351 . S
C894 C895 1.434 . S
C895 C886 1.429 . S
C895 N892 1.350 . S
C895 C894 1.434 . S
C896 C897 1.369 . S
C896 C898 1.419 . S
C896 H900 0.930 . S
C897 C896 1.369 . S
C897 C906 1.429 1_655 S
C898 C896 1.419 . S
C898 C899 1.363 1_655 S
C898 H901 0.929 . S
C899 C898 1.363 1_455 S
C899 C905 1.428 . S
H900 C896 0.930 . S
H901 C898 0.929 . S
S902 N903 1.613 . S
S902 N904 1.610 . S
N903 S902 1.613 . S
N903 C906 1.350 . S
N904 S902 1.610 . S
N904 C905 1.351 . S
C905 C899 1.428 . S
C905 N904 1.351 . S
C905 C906 1.434 . S
C906 C897 1.429 1_455 S
C906 N903 1.350 . S
C906 C905 1.434 . S
C907 C908 1.369 . S
C907 C909 1.419 . S
C907 H911 0.930 . S
C908 C907 1.369 . S
C908 C917 1.429 . S
C909 C907 1.419 . S
C909 C910 1.363 . S
C909 H912 0.929 . S
C910 C909 1.363 . S
C910 C916 1.428 . S
H911 C907 0.930 . S
H912 C909 0.929 . S
S913 N914 1.613 . S
S913 N915 1.610 . S
N914 S913 1.613 . S
N914 C917 1.350 . S
N915 S913 1.610 . S
N915 C916 1.351 . S
C916 C910 1.428 . S
C916 N915 1.351 . S
C916 C917 1.434 . S
C917 C908 1.429 . S
C917 N914 1.350 . S
C917 C916 1.434 . S
C918 C919 1.369 . S
C918 C920 1.419 . S
C918 H922 0.930 . S
C919 C918 1.369 . S
C919 C928 1.429 . S
C920 C918 1.419 . S
C920 C921 1.363 . S
C920 H923 0.929 . S
C921 C920 1.363 . S
C921 C927 1.428 . S
H922 C918 0.930 . S
H923 C920 0.929 . S
S924 N925 1.613 . S
S924 N926 1.610 . S
N925 S924 1.613 . S
N925 C928 1.350 . S
N926 S924 1.610 . S
N926 C927 1.351 . S
C927 C921 1.428 . S
C927 N926 1.351 . S
C927 C928 1.434 . S
C928 C919 1.429 . S
C928 N925 1.350 . S
C928 C927 1.434 . S
C929 C930 1.369 . S
C929 C931 1.419 . S
C929 H933 0.930 . S
C930 C929 1.369 . S
C930 C939 1.429 . S
C931 C929 1.419 . S
C931 C932 1.363 1_455 S
C931 H934 0.929 . S
C932 C931 1.363 1_655 S
C932 C938 1.428 . S
H933 C929 0.930 . S
H934 C931 0.929 . S
S935 N936 1.613 1_655 S
S935 N937 1.610 . S
N936 S935 1.613 1_455 S
N936 C939 1.350 . S
N937 S935 1.610 . S
N937 C938 1.351 . S
C938 C932 1.428 . S
C938 N937 1.351 . S
C938 C939 1.434 1_655 S
C939 C930 1.429 . S
C939 N936 1.350 . S
C939 C938 1.434 1_455 S
C940 C941 1.369 1_455 S
C940 C942 1.419 . S
C940 H944 0.930 . S
C941 C940 1.369 1_655 S
C941 C950 1.429 . S
C942 C940 1.419 . S
C942 C943 1.363 . S
C942 H945 0.929 . S
C943 C942 1.363 . S
C943 C949 1.428 1_455 S
H944 C940 0.930 . S
H945 C942 0.929 . S
S946 N947 1.613 . S
S946 N948 1.610 . S
N947 S946 1.613 . S
N947 C950 1.350 . S
N948 S946 1.610 . S
N948 C949 1.351 . S
C949 C943 1.428 1_655 S
C949 N948 1.351 . S
C949 C950 1.434 . S
C950 C941 1.429 . S
C950 N947 1.350 . S
C950 C949 1.434 . S
C951 C952 1.369 . S
C951 C953 1.419 1_455 S
C951 H955 0.930 . S
C952 C951 1.369 . S
C952 C961 1.429 . S
C953 C951 1.419 1_655 S
C953 C954 1.363 . S
C953 H956 0.929 . S
C954 C953 1.363 . S
C954 C960 1.428 . S
H955 C951 0.930 . S
H956 C953 0.929 . S
S957 N958 1.613 . S
S957 N959 1.610 1_455 S
N958 S957 1.613 . S
N958 C961 1.350 . S
N959 S957 1.610 1_655 S
N959 C960 1.351 . S
C960 C954 1.428 . S
C960 N959 1.351 . S
C960 C961 1.434 1_655 S
C961 C952 1.429 . S
C961 N958 1.350 . S
C961 C960 1.434 1_455 S
C962 C963 1.369 . S
C962 C964 1.419 . S
C962 H966 0.930 . S
C963 C962 1.369 . S
C963 C972 1.429 . S
C964 C962 1.419 . S
C964 C965 1.363 . S
C964 H967 0.929 . S
C965 C964 1.363 . S
C965 C971 1.428 . S
H966 C962 0.930 . S
H967 C964 0.929 . S
S968 N969 1.613 . S
S968 N970 1.610 . S
N969 S968 1.613 . S
N969 C972 1.350 . S
N970 S968 1.610 . S
N970 C971 1.351 . S
C971 C965 1.428 . S
C971 N970 1.351 . S
C971 C972 1.434 . S
C972 C963 1.429 . S
C972 N969 1.350 . S
C972 C971 1.434 . S
C973 C974 1.369 . S
C973 C975 1.419 . S
C973 H977 0.930 . S
C974 C973 1.369 . S
C974 C983 1.429 . S
C975 C973 1.419 . S
C975 C976 1.363 . S
C975 H978 0.929 . S
C976 C975 1.363 . S
C976 C982 1.428 . S
H977 C973 0.930 . S
H978 C975 0.929 . S
S979 N980 1.613 . S
S979 N981 1.610 . S
N980 S979 1.613 . S
N980 C983 1.350 . S
N981 S979 1.610 . S
N981 C982 1.351 . S
C982 C976 1.428 . S
C982 N981 1.351 . S
C982 C983 1.434 . S
C983 C974 1.429 . S
C983 N980 1.350 . S
C983 C982 1.434 . S
C545 C451 1.208 . S
C547 C9 1.222 . S
C556 C43 1.219 . S
C558 C383 1.217 . S
C567 C77 1.220 1_565 S
C569 C417 1.213 . S
C578 C111 1.226 . S
C580 C349 1.211 . S
C589 C519 1.212 . S
C591 C145 1.221 1_565 S
C600 C179 1.207 . S
C602 C315 1.224 . S
C611 C213 1.227 . S
C613 C485 1.210 . S
C622 C281 1.214 . S
C624 C247 1.220 . S
C633 C20 1.618 . S
C635 C156 1.621 . S
C644 C54 1.618 . S
C646 C190 1.621 . S
C655 C88 1.620 . S
C657 C224 1.623 . S
C666 C258 1.621 . S
C668 C122 1.623 . S
C677 C360 1.619 . S
C679 C292 1.620 . S
C688 C326 1.623 . S
C690 C394 1.620 . S
C699 C496 1.623 . S
C701 C428 1.620 . S
C710 C530 1.623 . S
C712 C462 1.621 . S
C721 C203 1.317 . S
C723 C33 1.316 . S
C732 C67 1.310 . S
C734 C237 1.310 . S
C743 C101 1.313 . S
C745 C271 1.315 . S
C754 C169 1.309 . S
C756 C135 1.311 . S
C765 C138 1.619 . S
C767 C342 1.618 . S
C776 C70 1.610 . S
C778 C274 1.616 . S
C787 C376 1.621 1_545 S
C789 C206 1.613 . S
C798 C308 1.621 1_545 S
C800 C2 1.617 . S
C809 C305 1.310 . S
C811 C441 1.310 . S
C820 C543 1.316 . S
C822 C373 1.316 . S
C831 C475 1.311 . S
C833 C339 1.314 . S
C842 C407 1.310 . S
C844 C509 1.312 . S
C853 C478 1.611 . S
C855 C36 1.613 . S
C864 C172 1.610 . S
C866 C444 1.617 . S
C875 C512 1.612 . S
C877 C104 1.619 . S
C886 C240 1.613 . S
C888 C410 1.620 . S
C897 C5 0.690 . S
C899 C447 0.695 . S
C908 C39 0.688 . S
C910 C379 0.688 . S
C919 C73 0.687 . S
C921 C413 0.687 . S
C930 C107 0.694 . S
C932 C345 0.685 . S
C941 C141 0.697 . S
C943 C515 0.686 . S
C952 C175 0.683 . S
C954 C311 0.691 . S
C963 C481 0.688 . S
C965 C209 0.696 . S
C974 C277 0.685 . S
C976 C243 0.688 . S
