# Generated by pormake.
# Topology snl, (6)-cn, num edge types: 1
# Building blocks:
#     Node 0, Type 0, BuildingBlock: KUMBOL_clean_sbu_1, # of connection points: 6
#     Node 1, Type 0, BuildingBlock: KUMBOL_clean_sbu_1, # of connection points: 6
#     Node 2, Type 0, BuildingBlock: KUMBOL_clean_sbu_1, # of connection points: 6
#     Node 3, Type 0, BuildingBlock: KUMBOL_clean_sbu_1, # of connection points: 6
#     Node 4, Type 0, BuildingBlock: KUMBOL_clean_sbu_1, # of connection points: 6
#     Node 5, Type 0, BuildingBlock: KUMBOL_clean_sbu_1, # of connection points: 6
#     Node 6, Type 0, BuildingBlock: KUMBOL_clean_sbu_1, # of connection points: 6
#     Node 7, Type 0, BuildingBlock: KUMBOL_clean_sbu_1, # of connection points: 6
#     Node 8, Type 0, BuildingBlock: KUMBOL_clean_sbu_1, # of connection points: 6
#     Node 9, Type 0, BuildingBlock: KUMBOL_clean_sbu_1, # of connection points: 6
#     Node 10, Type 0, BuildingBlock: KUMBOL_clean_sbu_1, # of connection points: 6
#     Node 11, Type 0, BuildingBlock: KUMBOL_clean_sbu_1, # of connection points: 6
#     Node 12, Type 0, BuildingBlock: KUMBOL_clean_sbu_1, # of connection points: 6
#     Node 13, Type 0, BuildingBlock: KUMBOL_clean_sbu_1, # of connection points: 6
#     Node 14, Type 0, BuildingBlock: KUMBOL_clean_sbu_1, # of connection points: 6
#     Node 15, Type 0, BuildingBlock: KUMBOL_clean_sbu_1, # of connection points: 6
#     Edge 16, Type (0, 0), BuildingBlock: ZUJKAS_clean_linker_0, # of connection points: 2
#     Edge 17, Type (0, 0), BuildingBlock: ZUJKAS_clean_linker_0, # of connection points: 2
#     Edge 18, Type (0, 0), BuildingBlock: ZUJKAS_clean_linker_0, # of connection points: 2
#     Edge 19, Type (0, 0), BuildingBlock: ZUJKAS_clean_linker_0, # of connection points: 2
#     Edge 20, Type (0, 0), BuildingBlock: ZUJKAS_clean_linker_0, # of connection points: 2
#     Edge 21, Type (0, 0), BuildingBlock: ZUJKAS_clean_linker_0, # of connection points: 2
#     Edge 22, Type (0, 0), BuildingBlock: ZUJKAS_clean_linker_0, # of connection points: 2
#     Edge 23, Type (0, 0), BuildingBlock: ZUJKAS_clean_linker_0, # of connection points: 2
#     Edge 24, Type (0, 0), BuildingBlock: ZUJKAS_clean_linker_0, # of connection points: 2
#     Edge 25, Type (0, 0), BuildingBlock: ZUJKAS_clean_linker_0, # of connection points: 2
#     Edge 26, Type (0, 0), BuildingBlock: ZUJKAS_clean_linker_0, # of connection points: 2
#     Edge 27, Type (0, 0), BuildingBlock: ZUJKAS_clean_linker_0, # of connection points: 2
#     Edge 28, Type (0, 0), BuildingBlock: ZUJKAS_clean_linker_0, # of connection points: 2
#     Edge 29, Type (0, 0), BuildingBlock: ZUJKAS_clean_linker_0, # of connection points: 2
#     Edge 30, Type (0, 0), BuildingBlock: ZUJKAS_clean_linker_0, # of connection points: 2
#     Edge 31, Type (0, 0), BuildingBlock: ZUJKAS_clean_linker_0, # of connection points: 2
#     Edge 32, Type (0, 0), BuildingBlock: ZUJKAS_clean_linker_0, # of connection points: 2
#     Edge 33, Type (0, 0), BuildingBlock: ZUJKAS_clean_linker_0, # of connection points: 2
#     Edge 34, Type (0, 0), BuildingBlock: ZUJKAS_clean_linker_0, # of connection points: 2
#     Edge 35, Type (0, 0), BuildingBlock: ZUJKAS_clean_linker_0, # of connection points: 2
#     Edge 36, Type (0, 0), BuildingBlock: ZUJKAS_clean_linker_0, # of connection points: 2
#     Edge 37, Type (0, 0), BuildingBlock: ZUJKAS_clean_linker_0, # of connection points: 2
#     Edge 38, Type (0, 0), BuildingBlock: ZUJKAS_clean_linker_0, # of connection points: 2
#     Edge 39, Type (0, 0), BuildingBlock: ZUJKAS_clean_linker_0, # of connection points: 2
#     Edge 40, Type (0, 0), BuildingBlock: ZUJKAS_clean_linker_0, # of connection points: 2
#     Edge 41, Type (0, 0), BuildingBlock: ZUJKAS_clean_linker_0, # of connection points: 2
#     Edge 42, Type (0, 0), BuildingBlock: ZUJKAS_clean_linker_0, # of connection points: 2
#     Edge 43, Type (0, 0), BuildingBlock: ZUJKAS_clean_linker_0, # of connection points: 2
#     Edge 44, Type (0, 0), BuildingBlock: ZUJKAS_clean_linker_0, # of connection points: 2
#     Edge 45, Type (0, 0), BuildingBlock: ZUJKAS_clean_linker_0, # of connection points: 2
#     Edge 46, Type (0, 0), BuildingBlock: ZUJKAS_clean_linker_0, # of connection points: 2
#     Edge 47, Type (0, 0), BuildingBlock: ZUJKAS_clean_linker_0, # of connection points: 2
#     Edge 48, Type (0, 0), BuildingBlock: ZUJKAS_clean_linker_0, # of connection points: 2
#     Edge 49, Type (0, 0), BuildingBlock: ZUJKAS_clean_linker_0, # of connection points: 2
#     Edge 50, Type (0, 0), BuildingBlock: ZUJKAS_clean_linker_0, # of connection points: 2
#     Edge 51, Type (0, 0), BuildingBlock: ZUJKAS_clean_linker_0, # of connection points: 2
#     Edge 52, Type (0, 0), BuildingBlock: ZUJKAS_clean_linker_0, # of connection points: 2
#     Edge 53, Type (0, 0), BuildingBlock: ZUJKAS_clean_linker_0, # of connection points: 2
#     Edge 54, Type (0, 0), BuildingBlock: ZUJKAS_clean_linker_0, # of connection points: 2
#     Edge 55, Type (0, 0), BuildingBlock: ZUJKAS_clean_linker_0, # of connection points: 2
#     Edge 56, Type (0, 0), BuildingBlock: ZUJKAS_clean_linker_0, # of connection points: 2
#     Edge 57, Type (0, 0), BuildingBlock: ZUJKAS_clean_linker_0, # of connection points: 2
#     Edge 58, Type (0, 0), BuildingBlock: ZUJKAS_clean_linker_0, # of connection points: 2
#     Edge 59, Type (0, 0), BuildingBlock: ZUJKAS_clean_linker_0, # of connection points: 2
#     Edge 60, Type (0, 0), BuildingBlock: ZUJKAS_clean_linker_0, # of connection points: 2
#     Edge 61, Type (0, 0), BuildingBlock: ZUJKAS_clean_linker_0, # of connection points: 2
#     Edge 62, Type (0, 0), BuildingBlock: ZUJKAS_clean_linker_0, # of connection points: 2
#     Edge 63, Type (0, 0), BuildingBlock: ZUJKAS_clean_linker_0, # of connection points: 2
# Relax obj value: 0.164
# Max RMSD: 0.225
# Mean RMSD: 0.221
data_MOF--net-snl--node1-KUMBOL_clean_sbu_1--edge1-ZUJKAS_clean_linker_0
_symmetry_space_group_name_H-M    P1
_symmetry_Int_Tables_number       1
_symmetry_cell_setting            triclinic
loop_
_symmetry_equiv_pos_as_xyz
'x, y, z'
_cell_length_a     75.085952
_cell_length_b     75.009231
_cell_length_c     29.545363
_cell_angle_alpha  90.218422
_cell_angle_beta   90.412361
_cell_angle_gamma 89.991144
loop_
_atom_site_label
_atom_site_type_symbol
_atom_site_fract_x
_atom_site_fract_y
_atom_site_fract_z
_atom_type_partial_charge
C0 C 0.13512 0.57915 0.21429 0.0
C1 C 0.16516 0.5714 0.23695 0.0
C2 C 0.15227 0.58433 0.22557 0.0
C3 C 0.16082 0.55321 0.2337 0.0
C4 C 0.13037 0.56098 0.21353 0.0
C5 C 0.14344 0.54801 0.22202 0.0
N6 N 0.12284 0.59201 0.20601 0.0
C7 C 0.10523 0.58782 0.2011 0.0
C8 C 0.11251 0.55647 0.20559 0.0
C9 C 0.09983 0.56997 0.20017 0.0
Gd10 Gd 0.14365 0.63739 0.07689 0.0
Gd11 Gd 0.13312 0.62153 0.2049 0.0
N12 N 0.15589 0.60203 0.22915 0.0
C13 C 0.18174 0.57715 0.25328 0.0
C14 C 0.1713 0.60759 0.24953 0.0
C15 C 0.18465 0.59532 0.26061 0.0
H16 H 0.17333 0.62151 0.25746 0.0
H17 H 0.19709 0.59985 0.27533 0.0
H18 H 0.10765 0.65914 0.04166 0.0
H19 H 0.09549 0.59829 0.19655 0.0
H20 H 0.0982 0.69029 0.02709 0.0
H21 H 0.19202 0.56766 0.26238 0.0
H22 H 0.17063 0.54308 0.24172 0.0
H23 H 0.18897 0.63838 0.07268 0.0
H24 H 0.1083 0.54266 0.20476 0.0
H25 H 0.08594 0.56664 0.19506 0.0
H26 H 0.15091 0.72486 0.05737 0.0
H27 H 0.14013 0.53395 0.22102 0.0
H28 H 0.20537 0.69288 0.08134 0.0
H29 H 0.21283 0.66076 0.07934 0.0
N30 N 0.16795 0.65746 0.07661 0.0
C31 C 0.1637 0.67503 0.07364 0.0
C32 C 0.18542 0.6523 0.07562 0.0
C33 C 0.19478 0.68308 0.07965 0.0
C34 C 0.19904 0.66497 0.07855 0.0
C35 C 0.17697 0.68834 0.07562 0.0
H36 H 0.18207 0.71678 0.07359 0.0
N37 N 0.13393 0.66643 0.06121 0.0
C38 C 0.1462 0.67963 0.06467 0.0
C39 C 0.12388 0.70141 0.04413 0.0
C40 C 0.14143 0.69756 0.05715 0.0
C41 C 0.11705 0.66992 0.04621 0.0
C42 C 0.1117 0.68749 0.03795 0.0
O43 O 0.12886 0.60321 0.14331 0.0
O44 O 0.15248 0.61011 0.09918 0.0
O45 O 0.13157 0.62314 0.02013 0.0
O46 O 0.15396 0.64041 1.00878 0.0
O47 O 0.15916 0.63578 0.19169 0.0
O48 O 0.16651 0.62611 0.12035 0.0
O49 O 0.12858 0.65503 0.12617 0.0
O50 O 0.14205 0.65024 0.1944 0.0
O51 O 0.13376 0.61984 0.27926 0.0
O52 O 0.11147 0.63254 0.24416 0.0
O53 O 0.11451 0.62926 0.08788 0.0
O54 O 0.10847 0.62945 0.16557 0.0
C55 C 0.14094 0.5984 0.11358 0.0
C56 C 0.17117 0.63149 0.16141 0.0
C57 C 0.15011 0.61644 0.95796 0.0
C58 C 0.15352 0.60636 0.87943 0.0
C59 C 0.16834 0.59063 0.94125 0.0
C60 C 0.16126 0.60262 0.97255 0.0
C61 C 0.16458 0.59247 0.89508 0.0
C62 C 0.14625 0.61827 0.91152 0.0
C63 C 0.14274 0.62929 0.99058 0.0
C64 C 0.15438 0.71096 0.06199 0.0
C65 C 0.17211 0.70636 0.07139 0.0
H66 H 0.11968 0.71502 0.03799 0.0
C67 C 0.13519 0.6612 0.1643 0.0
C68 C 0.10335 0.62907 0.12265 0.0
C69 C 0.10975 0.63208 0.32634 0.0
C70 C 0.10962 0.63326 0.40933 0.0
C71 C 0.08456 0.64495 0.36609 0.0
C72 C 0.09293 0.64032 0.32581 0.0
C73 C 0.09283 0.64154 0.40751 0.0
C74 C 0.118 0.62836 0.36844 0.0
C75 C 0.11859 0.62807 0.28274 0.0
H76 H 0.17696 0.57997 0.95275 0.0
H77 H 0.16459 0.60125 1.00805 0.0
H78 H 0.17065 0.58322 0.8716 0.0
H79 H 0.13751 0.62894 0.90056 0.0
H80 H 0.07161 0.65129 0.36521 0.0
H81 H 0.08623 0.64331 0.29414 0.0
H82 H 0.08599 0.64524 0.43831 0.0
H83 H 0.131 0.62209 0.36943 0.0
C84 C 0.68425 0.8838 0.4811 0.0
C85 C 0.69256 0.91308 0.50908 0.0
C86 C 0.67964 0.90126 0.49135 0.0
C87 C 0.71025 0.90729 0.51436 0.0
C88 C 0.70182 0.87771 0.48805 0.0
C89 C 0.71486 0.88964 0.50397 0.0
N90 N 0.67142 0.87264 0.4651 0.0
C91 C 0.6748 0.8549 0.45902 0.0
C92 C 0.70567 0.85976 0.47932 0.0
C93 C 0.69204 0.84825 0.46529 0.0
Gd94 Gd 0.63006 0.89378 0.3249 0.0
Gd95 Gd 0.64294 0.88482 0.45558 0.0
N96 N 0.66235 0.90635 0.48661 0.0
C97 C 0.68717 0.93015 0.52248 0.0
C98 C 0.65681 0.92237 0.50346 0.0
C99 C 0.66915 0.9347 0.5204 0.0
H100 H 0.64282 0.92559 0.50474 0.0
H101 H 0.66471 0.94757 0.5326 0.0
H102 H 0.61175 0.85537 0.29353 0.0
H103 H 0.66422 0.846 0.4485 0.0
H104 H 0.58195 0.84363 0.27251 0.0
H105 H 0.69668 0.93964 0.53619 0.0
H106 H 0.72037 0.91624 0.52757 0.0
H107 H 0.62588 0.93908 0.32312 0.0
H108 H 0.71901 0.85457 0.48419 0.0
H109 H 0.6948 0.83427 0.45943 0.0
H110 H 0.54368 0.89482 0.28127 0.0
H111 H 0.72848 0.88528 0.50909 0.0
H112 H 0.57058 0.95146 0.31185 0.0
H113 H 0.60182 0.96118 0.32184 0.0
N114 N 0.60843 0.91661 0.32104 0.0
C115 C 0.59147 0.91108 0.31229 0.0
C116 C 0.6123 0.93443 0.32194 0.0
C117 C 0.58107 0.94158 0.31414 0.0
C118 C 0.59867 0.94711 0.31994 0.0
C119 C 0.57734 0.92342 0.30882 0.0
H120 H 0.5491 0.92667 0.2957 0.0
N121 N 0.6023 0.88159 0.30614 0.0
C122 C 0.58838 0.89312 0.30371 0.0
C123 C 0.56887 0.86899 0.28111 0.0
C124 C 0.5712 0.88707 0.29171 0.0
C125 C 0.60035 0.86416 0.29357 0.0
C126 C 0.58356 0.85754 0.28153 0.0
O127 O 0.66438 0.88123 0.40076 0.0
O128 O 0.65746 0.90226 0.34734 0.0
O129 O 0.64263 0.88101 0.26694 0.0
O130 O 0.62819 0.90555 0.25803 0.0
O131 O 0.63056 0.91135 0.43724 0.0
O132 O 0.64119 0.91742 0.36614 0.0
O133 O 0.61075 0.88045 0.37342 0.0
O134 O 0.61505 0.89519 0.44001 0.0
O135 O 0.64175 0.88619 0.52976 0.0
O136 O 0.63035 0.8635 0.49306 0.0
O137 O 0.64049 0.86567 0.33962 0.0
O138 O 0.63443 0.86046 0.41561 0.0
C139 C 0.66902 0.89164 0.36689 0.0
C140 C 0.63621 0.92273 0.40687 0.0
C141 C 0.65117 0.89971 0.20632 0.0
C142 C 0.66116 0.90237 0.12781 0.0
C143 C 0.67779 0.91659 0.18933 0.0
C144 C 0.66554 0.91025 0.22074 0.0
C145 C 0.67563 0.91275 0.14325 0.0
C146 C 0.64905 0.89577 0.16001 0.0
C147 C 0.63778 0.89337 0.23864 0.0
C148 C 0.55702 0.89924 0.28995 0.0
C149 C 0.56009 0.91737 0.29836 0.0
H150 H 0.55588 0.86383 0.27179 0.0
C151 C 0.60423 0.88798 0.4099 0.0
C152 C 0.6379 0.8548 0.37424 0.0
C153 C 0.62774 0.86279 0.57518 0.0
C154 C 0.62621 0.86254 0.65809 0.0
C155 C 0.61111 0.83963 0.61371 0.0
C156 C 0.61712 0.84737 0.57383 0.0
C157 C 0.61555 0.84715 0.6555 0.0
C158 C 0.63241 0.87028 0.61762 0.0
C159 C 0.63342 0.87103 0.53211 0.0
H160 H 0.68886 0.92473 0.20064 0.0
H161 H 0.66719 0.91367 0.25618 0.0
H162 H 0.68509 0.9183 0.11967 0.0
H163 H 0.63791 0.88756 0.1492 0.0
H164 H 0.60294 0.82776 0.61223 0.0
H165 H 0.61333 0.84131 0.54185 0.0
H166 H 0.61079 0.84079 0.68596 0.0
H167 H 0.64055 0.88219 0.6192 0.0
C168 C 0.40609 0.43208 0.7285 0.0
C169 C 0.38374 0.45526 0.73733 0.0
C170 C 0.3883 0.43737 0.72814 0.0
C171 C 0.39723 0.4677 0.747 0.0
C172 C 0.41965 0.44459 0.73787 0.0
C173 C 0.41512 0.4624 0.74717 0.0
N174 N 0.41013 0.41479 0.7191 0.0
C175 C 0.42735 0.40901 0.71983 0.0
C176 C 0.4374 0.43884 0.73755 0.0
C177 C 0.44125 0.42096 0.72866 0.0
Gd178 Gd 0.37088 0.37919 0.58302 0.0
Gd179 Gd 0.38579 0.3959 0.70634 0.0
N180 N 0.37555 0.4252 0.71664 0.0
C181 C 0.36578 0.4602 0.73571 0.0
C182 C 0.35798 0.42985 0.71641 0.0
C183 C 0.35285 0.44742 0.7254 0.0
H184 H 0.34782 0.42009 0.70995 0.0
H185 H 0.33891 0.45106 0.72472 0.0
H186 H 0.41248 0.36617 0.55025 0.0
H187 H 0.43033 0.39508 0.7151 0.0
H188 H 0.42887 0.33833 0.5391 0.0
H189 H 0.36175 0.47382 0.74247 0.0
H190 H 0.39398 0.48151 0.75402 0.0
H191 H 0.32825 0.36747 0.59651 0.0
H192 H 0.44819 0.44805 0.74455 0.0
H193 H 0.45489 0.41632 0.72922 0.0
H194 H 0.38442 0.29295 0.55164 0.0
H195 H 0.42537 0.47218 0.75445 0.0
H196 H 0.32439 0.31087 0.58059 0.0
H197 H 0.31012 0.34001 0.59547 0.0
N198 N 0.3526 0.35389 0.5841 0.0
C199 C 0.36069 0.33808 0.57489 0.0
C200 C 0.33466 0.35478 0.59087 0.0
C201 C 0.33243 0.32286 0.58126 0.0
C202 C 0.32433 0.33928 0.58986 0.0
C203 C 0.35079 0.3221 0.57353 0.0
H204 H 0.35208 0.29351 0.56381 0.0
N205 N 0.38828 0.35349 0.56945 0.0
C206 C 0.37904 0.33783 0.56818 0.0
C207 C 0.40602 0.3217 0.55063 0.0
C208 C 0.38774 0.32151 0.55932 0.0
C209 C 0.4057 0.3538 0.55643 0.0
C210 C 0.41495 0.33795 0.54834 0.0
O211 O 0.38711 0.41694 0.64999 0.0
O212 O 0.36677 0.40864 0.59464 0.0
O213 O 0.3797 0.38306 0.51344 0.0
O214 O 0.3519 0.37894 0.52735 0.0
O215 O 0.35696 0.38786 0.69627 0.0
O216 O 0.34844 0.39275 0.62174 0.0
O217 O 0.36722 0.36139 0.6445 0.0
O218 O 0.39149 0.3668 0.6893 0.0
O219 O 0.37078 0.39073 0.76756 0.0
O220 O 0.39942 0.39325 0.77108 0.0
O221 O 0.39948 0.38976 0.59329 0.0
O222 O 0.40633 0.38114 0.66597 0.0
C223 C 0.37751 0.42046 0.61338 0.0
C224 C 0.34462 0.3905 0.66501 0.0
C225 C 0.35881 0.39465 0.46044 0.0
C226 C 0.35914 0.4028 0.38025 0.0
C227 C 0.34331 0.42119 0.43485 0.0
C228 C 0.348 0.40947 0.46953 0.0
C229 C 0.34884 0.41793 0.39053 0.0
C230 C 0.36424 0.3913 0.41572 0.0
C231 C 0.36371 0.38196 0.49645 0.0
C232 C 0.37792 0.30558 0.55825 0.0
C233 C 0.35949 0.30589 0.56506 0.0
H234 H 0.41318 0.30945 0.54378 0.0
C235 C 0.37983 0.35563 0.67165 0.0
C236 C 0.41131 0.38581 0.62519 0.0
C237 C 0.38574 0.37538 0.82626 0.0
C238 C 0.38483 0.36551 0.90515 0.0
C239 C 0.38994 0.34416 0.8441 0.0
C240 C 0.38882 0.3578 0.81219 0.0
C241 C 0.38803 0.34795 0.8902 0.0
C242 C 0.38367 0.37917 0.87256 0.0
C243 C 0.38492 0.39001 0.79335 0.0
H244 H 0.33509 0.43268 0.44221 0.0
H245 H 0.34309 0.41191 0.50337 0.0
H246 H 0.34457 0.42696 0.36407 0.0
H247 H 0.3723 0.37965 0.40851 0.0
H248 H 0.39242 0.33061 0.8331 0.0
H249 H 0.39045 0.35465 0.77667 0.0
H250 H 0.38934 0.33712 0.91412 0.0
H251 H 0.381 0.39278 0.88299 0.0
C252 C 0.90736 0.08457 0.82058 0.0
C253 C 0.88496 0.06242 0.80087 0.0
C254 C 0.88994 0.08026 0.80896 0.0
C255 C 0.89764 0.04882 0.80637 0.0
C256 C 0.92028 0.071 0.82427 0.0
C257 C 0.91525 0.0531 0.81818 0.0
N258 N 0.91186 0.10207 0.82553 0.0
C259 C 0.92936 0.10685 0.82898 0.0
C260 C 0.93801 0.07586 0.83229 0.0
C261 C 0.94261 0.09387 0.83375 0.0
Gd262 Gd 0.87452 0.13643 0.94673 0.0
Gd263 Gd 0.88819 0.12269 0.81908 0.0
N264 N 0.87784 0.09367 0.80507 0.0
C265 C 0.86744 0.05883 0.78697 0.0
C266 C 0.86097 0.0904 0.78966 0.0
C267 C 0.85546 0.07291 0.78085 0.0
H268 H 0.85176 0.10131 0.78479 0.0
H269 H 0.84199 0.07029 0.76938 0.0
H270 H 0.91432 0.14541 0.99718 0.0
H271 H 0.9333 0.12062 0.82677 0.0
H272 H 0.93006 0.17117 0.02939 0.0
H273 H 0.86311 0.04529 0.78028 0.0
H274 H 0.89404 0.035 0.80082 0.0
H275 H 0.83252 0.14948 0.93119 0.0
H276 H 0.94835 0.06584 0.83537 0.0
H277 H 0.95641 0.09777 0.83755 0.0
H278 H 0.88646 0.21777 0.02883 0.0
H279 H 0.92497 0.0425 0.82132 0.0
H280 H 0.82796 0.2039 0.97345 0.0
H281 H 0.81426 0.17651 0.94184 0.0
N282 N 0.85649 0.16176 0.95398 0.0
C283 C 0.86417 0.17646 0.97258 0.0
C284 C 0.83872 0.16148 0.94396 0.0
C285 C 0.83608 0.19214 0.96822 0.0
C286 C 0.8283 0.17672 0.95033 0.0
C287 C 0.85416 0.19208 0.98014 0.0
H288 H 0.85489 0.21907 1.00642 0.0
N289 N 0.89094 0.16007 0.97952 0.0
C290 C 0.88197 0.17566 0.98516 0.0
C291 C 0.90789 0.18904 0.02049 0.0
C292 C 0.8902 0.19055 1.00588 0.0
C293 C 0.90777 0.15819 0.99686 0.0
C294 C 0.91663 0.17271 0.01643 0.0
O295 O 0.87615 0.1028 0.86947 0.0
O296 O 0.89044 0.11197 0.93233 0.0
O297 O 0.87623 0.13441 0.01995 0.0
O298 O 0.85554 0.12019 0.98379 0.0
O299 O 0.86048 0.13337 0.82759 0.0
O300 O 0.85217 0.12529 0.90035 0.0
O301 O 0.86978 0.15657 0.89121 0.0
O302 O 0.89204 0.15197 0.83916 0.0
O303 O 0.87564 0.12863 0.75384 0.0
O304 O 0.90392 0.12441 0.75787 0.0
O305 O 0.90383 0.12971 0.9329 0.0
O306 O 0.90935 0.1378 0.85893 0.0
C307 C 0.88306 0.09913 0.90931 0.0
C308 C 0.84828 0.12906 0.85741 0.0
C309 C 0.84926 0.13045 0.05874 0.0
C310 C 0.84299 0.13582 0.13908 0.0
C311 C 0.82054 0.1422 0.08139 0.0
C312 C 0.83211 0.13651 0.04752 0.0
C313 C 0.82589 0.14188 0.12676 0.0
C314 C 0.8546 0.13007 0.10461 0.0
C315 C 0.86192 0.12481 0.02333 0.0
C316 C 0.88036 0.20622 0.01292 0.0
C317 C 0.86238 0.20697 1.00018 0.0
H318 H 0.91468 0.20018 0.03644 0.0
C319 C 0.88144 0.16269 0.86227 0.0
C320 C 0.91466 0.13567 0.90121 0.0
C321 C 0.88938 0.11452 0.69119 0.0
C322 C 0.88254 0.10921 0.61095 0.0
C323 C 0.89384 0.08516 0.65815 0.0
C324 C 0.89479 0.09667 0.69516 0.0
C325 C 0.88775 0.09132 0.6164 0.0
C326 C 0.8834 0.12082 0.64875 0.0
C327 C 0.89026 0.1265 0.73111 0.0
H328 H 0.80733 0.14683 0.07245 0.0
H329 H 0.82762 0.13686 0.01266 0.0
H330 H 0.8165 0.14614 0.15228 0.0
H331 H 0.8679 0.12555 0.1133 0.0
H332 H 0.89804 0.07142 0.66172 0.0
H333 H 0.89997 0.09163 0.72674 0.0
H334 H 0.88749 0.08214 0.58801 0.0
H335 H 0.87935 0.13462 0.64525 0.0
C336 C 0.18742 0.38173 0.96443 0.0
C337 C 0.1976 0.41101 0.98778 0.0
C338 C 0.18365 0.39924 0.97598 0.0
C339 C 0.21534 0.40515 0.98521 0.0
C340 C 0.20513 0.37554 0.9637 0.0
C341 C 0.2191 0.38745 0.9732 0.0
N342 N 0.17364 0.37062 0.95462 0.0
C343 C 0.17642 0.35281 0.94794 0.0
C344 C 0.2082 0.35749 0.95426 0.0
C345 C 0.19376 0.34602 0.94702 0.0
Gd346 Gd 0.12981 0.39394 0.82667 0.0
Gd347 Gd 0.14507 0.38323 0.95449 0.0
N348 N 0.16633 0.40442 0.97849 0.0
C349 C 0.19325 0.42808 1.00345 0.0
C350 C 0.16205 0.42043 0.99765 0.0
C351 C 0.17539 0.43265 1.00933 0.0
H352 H 0.14838 0.42372 1.00482 0.0
H353 H 0.1719 0.44546 0.02362 0.0
H354 H 0.10983 0.35664 0.79324 0.0
H355 H 0.16524 0.344 0.94223 0.0
H356 H 0.07941 0.34611 0.77393 0.0
H357 H 0.20355 0.43751 0.01296 0.0
H358 H 0.22623 0.41407 0.99367 0.0
H359 H 0.12752 0.43922 0.82225 0.0
H360 H 0.22163 0.3522 0.9534 0.0
H361 H 0.19599 0.33199 0.94062 0.0
H362 H 0.04305 0.39845 0.78913 0.0
H363 H 0.23283 0.38301 0.97235 0.0
H364 H 0.07259 0.45397 0.81766 0.0
H365 H 0.10437 0.46239 0.82315 0.0
N366 N 0.10907 0.41759 0.82262 0.0
C367 C 0.09178 0.41277 0.8162 0.0
C368 C 0.11371 0.43522 0.82249 0.0
C369 C 0.08269 0.44366 0.81879 0.0
C370 C 0.10061 0.44847 0.82196 0.0
C371 C 0.0781 0.42566 0.81438 0.0
H372 H 0.04976 0.42997 0.80499 0.0
N373 N 0.10143 0.38303 0.80838 0.0
C374 C 0.08789 0.395 0.80785 0.0
C375 C 0.06729 0.37178 0.78548 0.0
C376 C 0.07037 0.38964 0.79705 0.0
C377 C 0.09874 0.36581 0.79478 0.0
C378 C 0.08159 0.35986 0.78374 0.0
O379 O 0.16357 0.37953 0.89352 0.0
O380 O 0.1567 0.40346 0.8503 0.0
O381 O 0.14383 0.38131 0.77088 0.0
O382 O 0.12783 0.40465 0.75851 0.0
O383 O 0.13193 0.41004 0.94241 0.0
O384 O 0.14047 0.41725 0.86995 0.0
O385 O 0.11104 0.38018 0.87533 0.0
O386 O 0.11668 0.39321 0.94384 0.0
O387 O 0.14648 0.38448 0.02897 0.0
O388 O 0.13445 0.36164 0.99437 0.0
O389 O 0.13887 0.36507 0.83913 0.0
O390 O 0.1346 0.3594 0.91574 0.0
C391 C 0.16853 0.39215 0.86548 0.0
C392 C 0.13564 0.42198 0.91132 0.0
C393 C 0.15176 0.39947 0.7089 0.0
C394 C 0.16197 0.40248 0.63065 0.0
C395 C 0.179 0.41551 0.69316 0.0
C396 C 0.1665 0.40928 0.72407 0.0
C397 C 0.17677 0.41221 0.64684 0.0
C398 C 0.14955 0.39606 0.66234 0.0
C399 C 0.13842 0.39285 0.741 0.0
C400 C 0.05661 0.40232 0.79714 0.0
C401 C 0.06045 0.42027 0.80614 0.0
H402 H 0.05401 0.36714 0.77698 0.0
C403 C 0.10533 0.38695 0.91357 0.0
C404 C 0.1368 0.35397 0.87361 0.0
C405 C 0.13452 0.36046 0.07656 0.0
C406 C 0.13314 0.36061 0.15944 0.0
C407 C 0.12112 0.33561 0.11653 0.0
C408 C 0.12601 0.34376 0.0762 0.0
C409 C 0.12454 0.34399 0.15782 0.0
C410 C 0.13831 0.36879 0.11858 0.0
C411 C 0.13857 0.36915 0.0328 0.0
H412 H 0.19038 0.42309 0.7051 0.0
H413 H 0.16823 0.4122 0.7597 0.0
H414 H 0.18648 0.4176 0.62369 0.0
H415 H 0.13819 0.38828 0.65098 0.0
H416 H 0.11453 0.32277 0.11576 0.0
H417 H 0.12294 0.337 0.04463 0.0
H418 H 0.12057 0.33739 0.18871 0.0
H419 H 0.1448 0.38169 0.11952 0.0
C420 C 0.83262 0.86162 0.06374 0.0
C421 C 0.80925 0.88398 0.05935 0.0
C422 C 0.82742 0.87945 0.06324 0.0
C423 C 0.79641 0.87041 0.05603 0.0
C424 C 0.81975 0.84798 0.06037 0.0
C425 C 0.80164 0.85248 0.05653 0.0
N426 N 0.8502 0.85763 0.06859 0.0
C427 C 0.8559 0.84038 0.06821 0.0
C428 C 0.82547 0.83021 0.06125 0.0
C429 C 0.84363 0.8264 0.06494 0.0
Gd430 Gd 0.88589 0.89818 0.19711 0.0
Gd431 Gd 0.86959 0.88198 0.07492 0.0
N432 N 0.8401 0.89233 0.06832 0.0
C433 C 0.8045 0.90202 0.05919 0.0
C434 C 0.83561 0.90992 0.06616 0.0
C435 C 0.81776 0.91503 0.06216 0.0
H436 H 0.84567 0.92009 0.06689 0.0
H437 H 0.81424 0.92902 0.06107 0.0
H438 H 0.90711 0.85861 0.21373 0.0
H439 H 0.86994 0.83741 0.06943 0.0
H440 H 0.93768 0.84761 0.22161 0.0
H441 H 0.79068 0.90604 0.05628 0.0
H442 H 0.78238 0.87364 0.05315 0.0
H443 H 0.88877 0.9427 0.2001 0.0
H444 H 0.81599 0.81935 0.05877 0.0
H445 H 0.8482 0.81271 0.06498 0.0
H446 H 0.97322 0.9006 0.22772 0.0
H447 H 0.79157 0.84217 0.05402 0.0
H448 H 0.94363 0.95699 0.21581 0.0
H449 H 0.91208 0.96578 0.20607 0.0
N450 N 0.90697 0.92108 0.20443 0.0
C451 C 0.92417 0.91595 0.21089 0.0
C452 C 0.90252 0.93871 0.20327 0.0
C453 C 0.93346 0.9468 0.21284 0.0
C454 C 0.91567 0.95182 0.20719 0.0
C455 C 0.93791 0.92869 0.21494 0.0
H456 H 0.96632 0.9326 0.22391 0.0
N457 N 0.91458 0.88584 0.20724 0.0
C458 C 0.92809 0.89783 0.21241 0.0
C459 C 0.94932 0.87382 0.22074 0.0
C460 C 0.94584 0.89211 0.21863 0.0
C461 C 0.91781 0.86806 0.21248 0.0
C462 C 0.9352 0.86176 0.21828 0.0
O463 O 0.85036 0.87947 0.13489 0.0
O464 O 0.85688 0.90321 0.1811 0.0
O465 O 0.88317 0.88516 0.26219 0.0
O466 O 0.88217 0.91383 0.25855 0.0
O467 O 0.87813 0.91072 0.08262 0.0
O468 O 0.87207 0.91987 0.15579 0.0
O469 O 0.90479 0.9018 0.13806 0.0
O470 O 0.89931 0.87829 0.08994 0.0
O471 O 0.87109 0.89563 1.01038 0.0
O472 O 0.8729 0.86692 0.01251 0.0
O473 O 0.87749 0.86888 0.18687 0.0
O474 O 0.88584 0.86225 0.11395 0.0
C475 C 0.84559 0.89127 0.16572 0.0
C476 C 0.87502 0.92336 0.1126 0.0
C477 C 0.86655 0.89996 0.31807 0.0
C478 C 0.85706 0.89803 0.397 0.0
C479 C 0.83511 0.90017 0.33609 0.0
C480 C 0.8487 0.90068 0.30417 0.0
C481 C 0.83921 0.89885 0.38217 0.0
C482 C 0.8707 0.89865 0.36442 0.0
C483 C 0.88095 0.89995 0.28458 0.0
C484 C 0.95953 0.90478 0.22279 0.0
C485 C 0.95559 0.923 0.22078 0.0
H486 H 0.96277 0.8689 0.22532 0.0
C487 C 0.91033 0.88994 0.1086 0.0
C488 C 0.88185 0.85721 0.15509 0.0
C489 C 0.88804 0.88164 0.95372 0.0
C490 C 0.89734 0.88412 0.87475 0.0
C491 C 0.91944 0.88186 0.9353 0.0
C492 C 0.90594 0.88101 0.96743 0.0
C493 C 0.91523 0.8834 0.88933 0.0
C494 C 0.88379 0.88319 0.90747 0.0
C495 C 0.87367 0.88105 0.98724 0.0
H496 H 0.82134 0.90079 0.32508 0.0
H497 H 0.84537 0.90156 0.26869 0.0
H498 H 0.8284 0.89867 0.40622 0.0
H499 H 0.88453 0.89775 0.37494 0.0
H500 H 0.93324 0.88131 0.94607 0.0
H501 H 0.90946 0.87988 1.00289 0.0
H502 H 0.92599 0.88381 0.86515 0.0
H503 H 0.86993 0.88397 0.89714 0.0
C504 C 0.38734 0.57694 0.30528 0.0
C505 C 0.35744 0.56683 0.28768 0.0
C506 C 0.36954 0.58077 0.29701 0.0
C507 C 0.3633 0.54904 0.28944 0.0
C508 C 0.3935 0.5592 0.30465 0.0
C509 C 0.3813 0.54524 0.29779 0.0
N510 N 0.39877 0.59069 0.31272 0.0
C511 C 0.41668 0.58786 0.31602 0.0
C512 C 0.41179 0.55607 0.31009 0.0
C513 C 0.42346 0.57048 0.31517 0.0
Gd514 Gd 0.37716 0.63677 0.43983 0.0
Gd515 Gd 0.38648 0.61935 0.3132 0.0
N516 N 0.36439 0.59813 0.29464 0.0
C517 C 0.34001 0.5712 0.27484 0.0
C518 C 0.34803 0.60237 0.27728 0.0
C519 C 0.33541 0.58906 0.26861 0.0
H520 H 0.34474 0.61597 0.26904 0.0
H521 H 0.32228 0.59256 0.2562 0.0
H522 H 0.41436 0.65781 0.47014 0.0
H523 H 0.42567 0.59902 0.3199 0.0
H524 H 0.42482 0.68881 0.48259 0.0
H525 H 0.3303 0.56089 0.26743 0.0
H526 H 0.35414 0.53816 0.28287 0.0
H527 H 0.33191 0.63907 0.44658 0.0
H528 H 0.41706 0.54262 0.30967 0.0
H529 H 0.43763 0.56821 0.31859 0.0
H530 H 0.37255 0.7245 0.45755 0.0
H531 H 0.38573 0.53149 0.29779 0.0
H532 H 0.317 0.69395 0.43832 0.0
H533 H 0.30865 0.66208 0.44116 0.0
N534 N 0.35342 0.65748 0.44076 0.0
C535 C 0.35822 0.67494 0.44322 0.0
C536 C 0.33584 0.65284 0.44302 0.0
C537 C 0.32732 0.68386 0.43935 0.0
C538 C 0.32256 0.66589 0.44089 0.0
C539 C 0.34531 0.68861 0.44207 0.0
H540 H 0.34099 0.71719 0.44424 0.0
N541 N 0.38797 0.66563 0.45312 0.0
C542 C 0.37597 0.67912 0.45063 0.0
C543 C 0.39916 0.70045 0.46814 0.0
C544 C 0.38131 0.69697 0.45722 0.0
C545 C 0.40517 0.66879 0.46621 0.0
C546 C 0.41109 0.68628 0.4733 0.0
O547 O 0.39101 0.60148 0.3752 0.0
O548 O 0.3679 0.6092 0.42047 0.0
O549 O 0.38918 0.62304 0.49734 0.0
O550 O 0.36759 0.64144 0.50795 0.0
O551 O 0.36038 0.6335 0.32614 0.0
O552 O 0.35354 0.62545 0.39902 0.0
O553 O 0.39145 0.65401 0.38861 0.0
O554 O 0.37739 0.64813 0.32171 0.0
O555 O 0.38393 0.61556 0.24043 0.0
O556 O 0.40678 0.62936 0.26776 0.0
O557 O 0.40591 0.62764 0.42735 0.0
O558 O 0.41126 0.62906 0.34955 0.0
C559 C 0.37907 0.59712 0.4057 0.0
C560 C 0.34862 0.6302 0.35775 0.0
C561 C 0.37076 0.61841 0.56094 0.0
C562 C 0.36763 0.61017 0.64062 0.0
C563 C 0.35003 0.59521 0.58207 0.0
C564 C 0.35781 0.60582 0.54892 0.0
C565 C 0.35482 0.59738 0.62759 0.0
C566 C 0.3757 0.62051 0.60662 0.0
C567 C 0.37849 0.63021 0.52671 0.0
C568 C 0.36865 0.71067 0.45347 0.0
C569 C 0.35069 0.70651 0.44574 0.0
H570 H 0.40379 0.71399 0.47343 0.0
C571 C 0.3844 0.65958 0.35054 0.0
C572 C 0.4168 0.6283 0.39211 0.0
C573 C 0.39556 0.63878 0.19658 0.0
C574 C 0.39197 0.64695 0.11681 0.0
C575 C 0.38984 0.66954 0.17606 0.0
C576 C 0.39289 0.65664 0.20909 0.0
C577 C 0.38932 0.66478 0.13033 0.0
C578 C 0.39511 0.634 0.15048 0.0
C579 C 0.39799 0.6249 0.23128 0.0
H580 H 0.34 0.5855 0.57259 0.0
H581 H 0.35352 0.60446 0.51406 0.0
H582 H 0.3481 0.58936 0.65262 0.0
H583 H 0.38573 0.63032 0.61558 0.0
H584 H 0.38768 0.68328 0.18598 0.0
H585 H 0.39304 0.66062 0.24435 0.0
H586 H 0.38651 0.67505 0.10564 0.0
H587 H 0.39726 0.6202 0.14098 0.0
C588 C 0.63176 0.08178 0.70447 0.0
C589 C 0.66103 0.07068 0.72481 0.0
C590 C 0.64957 0.08499 0.71422 0.0
C591 C 0.65453 0.05311 0.72294 0.0
C592 C 0.62498 0.06426 0.70437 0.0
C593 C 0.63654 0.04992 0.71277 0.0
N594 N 0.621 0.09589 0.69516 0.0
C595 C 0.6031 0.09362 0.68898 0.0
C596 C 0.60675 0.06173 0.6963 0.0
C597 C 0.59573 0.0765 0.68917 0.0
Gd598 Gd 0.64464 0.13858 0.5666 0.0
Gd599 Gd 0.63447 0.12411 0.69517 0.0
N600 N 0.65543 0.10215 0.71591 0.0
C601 C 0.6785 0.07448 0.73851 0.0
C602 C 0.67186 0.10592 0.73355 0.0
C603 C 0.68381 0.0922 0.74384 0.0
H604 H 0.6757 0.1195 0.74071 0.0
H605 H 0.697 0.09531 0.75662 0.0
H606 H 0.60789 0.15974 0.53438 0.0
H607 H 0.59462 0.10504 0.6832 0.0
H608 H 0.59828 0.19051 0.51588 0.0
H609 H 0.68772 0.06387 0.74695 0.0
H610 H 0.66319 0.04194 0.73045 0.0
H611 H 0.68988 0.13919 0.56071 0.0
H612 H 0.60102 0.04847 0.69606 0.0
H613 H 0.58158 0.07469 0.68355 0.0
H614 H 0.65191 0.2251 0.52956 0.0
H615 H 0.63164 0.03633 0.71228 0.0
H616 H 0.70654 0.19357 0.55447 0.0
H617 H 0.71384 0.16151 0.56005 0.0
N618 N 0.66895 0.15845 0.56167 0.0
C619 C 0.6647 0.17589 0.55536 0.0
C620 C 0.68638 0.15316 0.56082 0.0
C621 C 0.69589 0.18385 0.55624 0.0
C622 C 0.70007 0.16577 0.55946 0.0
C623 C 0.67805 0.18908 0.55269 0.0
H624 H 0.68331 0.21721 0.54283 0.0
N625 N 0.6346 0.16728 0.54877 0.0
C626 C 0.64703 0.1804 0.54788 0.0
C627 C 0.62439 0.20177 0.52672 0.0
C628 C 0.64221 0.19809 0.53747 0.0
C629 C 0.61743 0.17053 0.53568 0.0
C630 C 0.612 0.18787 0.52515 0.0
O631 O 0.63008 0.10537 0.63429 0.0
O632 O 0.65369 0.11149 0.58956 0.0
O633 O 0.63118 0.12472 0.51127 0.0
O634 O 0.65478 0.14006 0.49796 0.0
O635 O 0.66106 0.13715 0.68151 0.0
O636 O 0.66779 0.12755 0.60955 0.0
O637 O 0.63148 0.15801 0.61507 0.0
O638 O 0.64421 0.1526 0.68412 0.0
O639 O 0.63831 0.12337 0.76831 0.0
O640 O 0.61395 0.13396 0.74047 0.0
O641 O 0.61577 0.13025 0.58101 0.0
O642 O 0.6106 0.13526 0.65785 0.0
C643 C 0.6423 0.09998 0.60556 0.0
C644 C 0.67276 0.13287 0.65045 0.0
C645 C 0.64855 0.11614 0.4484 0.0
C646 C 0.64976 0.10493 0.37048 0.0
C647 C 0.66424 0.08867 0.43188 0.0
C648 C 0.65875 0.10159 0.46291 0.0
C649 C 0.65981 0.09029 0.38603 0.0
C650 C 0.64414 0.11782 0.40223 0.0
C651 C 0.64256 0.12975 0.48087 0.0
C652 C 0.65536 0.21138 0.53691 0.0
C653 C 0.67325 0.20688 0.54457 0.0
H654 H 0.62016 0.2152 0.51856 0.0
C655 C 0.63828 0.16383 0.65335 0.0
C656 C 0.60496 0.13306 0.61572 0.0
C657 C 0.61247 0.11983 0.81254 0.0
C658 C 0.60934 0.11094 0.89196 0.0
C659 C 0.58756 0.10137 0.8354 0.0
C660 C 0.59679 0.11048 0.80184 0.0
C661 C 0.59375 0.10156 0.88005 0.0
C662 C 0.61863 0.12011 0.85778 0.0
C663 C 0.6225 0.12938 0.77714 0.0
H664 H 0.67209 0.07743 0.44334 0.0
H665 H 0.66251 0.10035 0.49813 0.0
H666 H 0.66453 0.08022 0.36264 0.0
H667 H 0.6362 0.12909 0.39119 0.0
H668 H 0.57548 0.09422 0.82682 0.0
H669 H 0.59156 0.11028 0.76767 0.0
H670 H 0.58612 0.09461 0.90545 0.0
H671 H 0.63074 0.12729 0.86621 0.0
C672 C 0.92274 0.4182 0.79906 0.0
C673 C 0.94633 0.39747 0.77976 0.0
C674 C 0.92868 0.40086 0.79326 0.0
C675 C 0.95817 0.41177 0.77436 0.0
C676 C 0.93447 0.43263 0.79234 0.0
C677 C 0.95233 0.4293 0.78125 0.0
N678 N 0.90515 0.42097 0.80706 0.0
C679 C 0.89824 0.43782 0.80478 0.0
C680 C 0.92769 0.44998 0.79441 0.0
C681 C 0.90943 0.45257 0.79993 0.0
Gd682 Gd 0.87319 0.38453 0.94456 0.0
Gd683 Gd 0.88763 0.39517 0.81674 0.0
N684 N 0.91679 0.38736 0.7973 0.0
C685 C 0.95131 0.37988 0.76998 0.0
C686 C 0.92117 0.37038 0.78478 0.0
C687 C 0.93859 0.36631 0.77186 0.0
H688 H 0.91124 0.35995 0.78576 0.0
H689 H 0.94217 0.35276 0.76313 0.0
H690 H 0.86696 0.42633 0.98597 0.0
H691 H 0.88403 0.44 0.80632 0.0
H692 H 0.84209 0.44724 0.99692 0.0
H693 H 0.96475 0.37674 0.75953 0.0
H694 H 0.97175 0.40946 0.76368 0.0
H695 H 0.85531 0.34413 0.93389 0.0
H696 H 0.93628 0.46142 0.78961 0.0
H697 H 0.90391 0.4659 0.79944 0.0
H698 H 0.79005 0.4118 0.96803 0.0
H699 H 0.96153 0.44021 0.77599 0.0
H700 H 0.79848 0.34941 0.93906 0.0
H701 H 0.82526 0.33043 0.93114 0.0
N702 N 0.84538 0.37043 0.94234 0.0
C703 C 0.83092 0.38098 0.94937 0.0
C704 C 0.84362 0.35241 0.93747 0.0
C705 C 0.81159 0.35544 0.94052 0.0
C706 C 0.82668 0.34467 0.93596 0.0
C707 C 0.81359 0.37381 0.94772 0.0
H708 H 0.78544 0.37991 0.95195 0.0
N709 N 0.85056 0.40534 0.9608 0.0
C710 C 0.83359 0.39901 0.95791 0.0
C711 C 0.82203 0.428 0.97819 0.0
C712 C 0.81886 0.41025 0.96579 0.0
C713 C 0.85365 0.42208 0.97736 0.0
C714 C 0.83951 0.43382 0.98497 0.0
O715 O 0.90797 0.38277 0.86443 0.0
O716 O 0.90195 0.39382 0.93535 0.0
O717 O 0.8698 0.38821 0.01706 0.0
O718 O 0.88214 0.36424 0.99196 0.0
O719 O 0.88097 0.3659 0.83193 0.0
O720 O 0.88544 0.36095 0.90913 0.0
O721 O 0.85539 0.3796 0.88215 0.0
O722 O 0.86058 0.40399 0.83964 0.0
O723 O 0.87351 0.38028 0.76449 0.0
O724 O 0.88775 0.40419 0.74668 0.0
O725 O 0.88655 0.41106 0.93287 0.0
O726 O 0.87683 0.41789 0.8611 0.0
C727 C 0.91337 0.38855 0.90426 0.0
C728 C 0.88382 0.35524 0.86702 0.0
C729 C 0.89173 0.37522 0.06359 0.0
C730 C 0.89925 0.37876 0.14407 0.0
C731 C 0.92265 0.37728 0.08734 0.0
C732 C 0.90991 0.37557 0.05298 0.0
C733 C 0.91742 0.37881 0.13248 0.0
C734 C 0.88647 0.37688 0.10908 0.0
C735 C 0.87808 0.37361 0.02763 0.0
C736 C 0.80151 0.40331 0.96256 0.0
C737 C 0.79889 0.38513 0.95357 0.0
H738 H 0.81109 0.43707 0.98456 0.0
C739 C 0.84942 0.39215 0.85498 0.0
C740 C 0.88304 0.42281 0.90116 0.0
C741 C 0.86422 0.39524 0.69783 0.0
C742 C 0.85533 0.39633 0.618 0.0
C743 C 0.83402 0.40343 0.67721 0.0
C744 C 0.84703 0.40041 0.71033 0.0
C745 C 0.83808 0.40135 0.63136 0.0
C746 C 0.86836 0.39333 0.65171 0.0
C747 C 0.87792 0.3911 0.73211 0.0
H748 H 0.93666 0.37742 0.07895 0.0
H749 H 0.91427 0.37454 0.01819 0.0
H750 H 0.92766 0.37985 0.15833 0.0
H751 H 0.87239 0.37703 0.11697 0.0
H752 H 0.82073 0.40737 0.68711 0.0
H753 H 0.84371 0.402 0.74559 0.0
H754 H 0.82779 0.40389 0.60633 0.0
H755 H 0.88164 0.38913 0.64217 0.0
C756 C 0.42181 0.10054 0.71697 0.0
C757 C 0.44492 0.12235 0.73311 0.0
C758 C 0.42731 0.11823 0.71981 0.0
C759 C 0.45691 0.10851 0.74299 0.0
C760 C 0.43393 0.08662 0.72622 0.0
C761 C 0.4515 0.09071 0.73904 0.0
N762 N 0.40459 0.09694 0.70564 0.0
C763 C 0.39857 0.07977 0.7038 0.0
C764 C 0.42796 0.06898 0.72298 0.0
C765 C 0.41019 0.06556 0.71184 0.0
Gd766 Gd 0.37129 0.13836 0.57171 0.0
Gd767 Gd 0.38621 0.12181 0.69394 0.0
N768 N 0.41543 0.1314 0.70967 0.0
C769 C 0.4499 0.14027 0.73669 0.0
C770 C 0.42012 0.14888 0.71455 0.0
C771 C 0.43745 0.15358 0.72737 0.0
H772 H 0.41053 0.15933 0.70995 0.0
H773 H 0.44109 0.16747 0.7309 0.0
H774 H 0.35074 0.09851 0.5548 0.0
H775 H 0.38468 0.07701 0.69751 0.0
H776 H 0.32024 0.08702 0.54823 0.0
H777 H 0.46326 0.14398 0.74717 0.0
H778 H 0.47042 0.11143 0.7538 0.0
H779 H 0.36769 0.18283 0.57464 0.0
H780 H 0.43688 0.05794 0.72971 0.0
H781 H 0.40535 0.05198 0.71017 0.0
H782 H 0.28369 0.13941 0.55066 0.0
H783 H 0.46096 0.0802 0.74656 0.0
H784 H 0.3124 0.19622 0.56439 0.0
H785 H 0.34387 0.20553 0.57245 0.0
N786 N 0.34983 0.16097 0.56956 0.0
C787 C 0.33268 0.15554 0.56352 0.0
C788 C 0.35398 0.17864 0.57217 0.0
C789 C 0.32279 0.18621 0.56555 0.0
C790 C 0.34054 0.19152 0.57039 0.0
C791 C 0.31866 0.16805 0.56197 0.0
H792 H 0.29008 0.17149 0.55625 0.0
N793 N 0.34284 0.1255 0.56342 0.0
C794 C 0.32907 0.13733 0.56051 0.0
C795 C 0.30818 0.11302 0.55217 0.0
C796 C 0.31135 0.13135 0.55562 0.0
C797 C 0.33986 0.10772 0.55731 0.0
C798 C 0.32252 0.10118 0.55243 0.0
O799 O 0.40748 0.12032 0.64016 0.0
O800 O 0.40115 0.14156 0.58568 0.0
O801 O 0.37211 0.12661 0.50442 0.0
O802 O 0.37435 0.15514 0.51243 0.0
O803 O 0.38018 0.15177 0.68399 0.0
O804 O 0.38728 0.15864 0.61004 0.0
O805 O 0.35266 0.14143 0.63282 0.0
O806 O 0.35788 0.11623 0.67338 0.0
O807 O 0.37871 0.13609 0.75529 0.0
O808 O 0.38373 0.10777 0.75768 0.0
O809 O 0.38174 0.11021 0.57797 0.0
O810 O 0.37325 0.10069 0.64859 0.0
C811 C 0.41241 0.13104 0.6075 0.0
C812 C 0.38458 0.16342 0.65225 0.0
C813 C 0.38876 0.142 0.44979 0.0
C814 C 0.39739 0.13985 0.37015 0.0
C815 C 0.41987 0.14414 0.42919 0.0
C816 C 0.40669 0.14408 0.46226 0.0
C817 C 0.4153 0.14209 0.38351 0.0
C818 C 0.38417 0.13985 0.40385 0.0
C819 C 0.37471 0.14178 0.48425 0.0
C820 C 0.29738 0.14379 0.55422 0.0
C821 C 0.30102 0.16207 0.55735 0.0
H822 H 0.29476 0.10789 0.54837 0.0
C823 C 0.34708 0.12897 0.66065 0.0
C824 C 0.37818 0.0973 0.60653 0.0
C825 C 0.3653 0.1197 0.81448 0.0
C826 C 0.35622 0.12046 0.89386 0.0
C827 C 0.33546 0.11072 0.83503 0.0
C828 C 0.34843 0.11336 0.80211 0.0
C829 C 0.33925 0.11431 0.88057 0.0
C830 C 0.36918 0.12319 0.86029 0.0
C831 C 0.37935 0.1219 0.78057 0.0
H832 H 0.43369 0.14584 0.43898 0.0
H833 H 0.41048 0.14567 0.49746 0.0
H834 H 0.42581 0.14248 0.35864 0.0
H835 H 0.37031 0.13791 0.39455 0.0
H836 H 0.32254 0.10556 0.8253 0.0
H837 H 0.34547 0.1102 0.76719 0.0
H838 H 0.32906 0.11181 0.90551 0.0
H839 H 0.38232 0.12799 0.86974 0.0
C840 C 0.59275 0.60674 0.31744 0.0
C841 C 0.57289 0.63205 0.30944 0.0
C842 C 0.59021 0.62507 0.31528 0.0
C843 C 0.55825 0.62044 0.30687 0.0
C844 C 0.57808 0.59503 0.3148 0.0
C845 C 0.56083 0.60199 0.30961 0.0
N846 N 0.60957 0.60037 0.32321 0.0
C847 C 0.61272 0.58247 0.32505 0.0
C848 C 0.58118 0.57667 0.31762 0.0
C849 C 0.59859 0.57037 0.32256 0.0
Gd850 Gd 0.64964 0.63661 0.45057 0.0
Gd851 Gd 0.63242 0.62161 0.32809 0.0
N852 N 0.60464 0.63604 0.31862 0.0
C853 C 0.57079 0.65051 0.30567 0.0
C854 C 0.60271 0.65389 0.31094 0.0
C855 C 0.58581 0.66143 0.30563 0.0
H856 H 0.61408 0.66239 0.30691 0.0
H857 H 0.58441 0.67564 0.30049 0.0
H858 H 0.67318 0.59814 0.45737 0.0
H859 H 0.62615 0.57749 0.32782 0.0
H860 H 0.70449 0.58879 0.46124 0.0
H861 H 0.55771 0.65638 0.30128 0.0
H862 H 0.54487 0.6256 0.30252 0.0
H863 H 0.64998 0.68115 0.45758 0.0
H864 H 0.57026 0.56725 0.31576 0.0
H865 H 0.60114 0.55618 0.32425 0.0
H866 H 0.73714 0.6437 0.46861 0.0
H867 H 0.5494 0.5932 0.3076 0.0
H868 H 0.70422 0.69844 0.46629 0.0
H869 H 0.67206 0.70553 0.46168 0.0
N870 N 0.66943 0.66065 0.45728 0.0
C871 C 0.68699 0.65642 0.46131 0.0
C872 C 0.66398 0.67798 0.45823 0.0
C873 C 0.69458 0.68772 0.46407 0.0
C874 C 0.67645 0.69178 0.46128 0.0
C875 C 0.70006 0.66987 0.46432 0.0
H876 H 0.72837 0.67529 0.46915 0.0
N877 N 0.67905 0.62585 0.45624 0.0
C878 C 0.69195 0.63853 0.46108 0.0
C879 C 0.7146 0.61565 0.46321 0.0
C880 C 0.71009 0.63375 0.46383 0.0
C881 C 0.68334 0.60819 0.45778 0.0
C882 C 0.70115 0.60283 0.46069 0.0
O883 O 0.61456 0.61693 0.38839 0.0
O884 O 0.62 0.64058 0.43573 0.0
O885 O 0.64763 0.62267 0.51459 0.0
O886 O 0.64686 0.65144 0.51349 0.0
O887 O 0.64147 0.65072 0.33957 0.0
O888 O 0.63338 0.65683 0.41295 0.0
O889 O 0.66851 0.63946 0.39029 0.0
O890 O 0.66146 0.6163 0.34267 0.0
O891 O 0.63502 0.63385 0.262 0.0
O892 O 0.63521 0.60523 0.26751 0.0
O893 O 0.64146 0.60773 0.44187 0.0
O894 O 0.64608 0.59916 0.36735 0.0
C895 C 0.60902 0.62877 0.41776 0.0
C896 C 0.63726 0.66221 0.37199 0.0
C897 C 0.63096 0.63698 0.57125 0.0
C898 C 0.6213 0.63486 0.64992 0.0
C899 C 0.59949 0.63755 0.58886 0.0
C900 C 0.61314 0.63804 0.55707 0.0
C901 C 0.60349 0.63598 0.63494 0.0
C902 C 0.63499 0.63539 0.61756 0.0
C903 C 0.6455 0.63721 0.53819 0.0
C904 C 0.72313 0.64713 0.46672 0.0
C905 C 0.71813 0.66513 0.467 0.0
H906 H 0.72839 0.61144 0.46519 0.0
C907 C 0.67298 0.62786 0.3588 0.0
C908 C 0.64389 0.59533 0.41073 0.0
C909 C 0.65087 0.61804 0.20659 0.0
C910 C 0.66012 0.61964 0.12749 0.0
C911 C 0.6822 0.61639 0.18772 0.0
C912 C 0.66871 0.61647 0.21997 0.0
C913 C 0.67797 0.61797 0.14178 0.0
C914 C 0.6466 0.61961 0.16039 0.0
C915 C 0.63666 0.61879 0.24051 0.0
H916 H 0.58575 0.63843 0.57774 0.0
H917 H 0.60979 0.63922 0.52154 0.0
H918 H 0.59263 0.63586 0.65888 0.0
H919 H 0.64879 0.63429 0.62824 0.0
H920 H 0.69597 0.61515 0.19837 0.0
H921 H 0.67211 0.61541 0.25534 0.0
H922 H 0.68868 0.61771 0.11742 0.0
H923 H 0.63279 0.62117 0.15024 0.0
C924 C 0.16289 0.84147 0.05736 0.0
C925 C 0.14008 0.81955 0.03956 0.0
C926 C 0.14513 0.83717 0.05035 0.0
C927 C 0.15308 0.80611 0.03824 0.0
C928 C 0.17608 0.82814 0.05383 0.0
C929 C 0.17104 0.8104 0.04541 0.0
N930 N 0.16736 0.85886 0.06391 0.0
C931 C 0.18483 0.86396 0.06235 0.0
C932 C 0.19399 0.83317 0.05677 0.0
C933 C 0.19838 0.85121 0.06017 0.0
Gd934 Gd 0.13383 0.89328 0.19912 0.0
Gd935 Gd 0.1433 0.87897 0.07031 0.0
N936 N 0.13286 0.85042 0.05189 0.0
C937 C 0.12218 0.81608 0.02914 0.0
C938 C 0.1156 0.84738 0.03912 0.0
C939 C 0.10994 0.83012 0.02825 0.0
H940 H 0.10617 0.85827 0.0383 0.0
H941 H 0.09616 0.82764 0.01922 0.0
H942 H 0.17467 0.89488 0.24869 0.0
H943 H 0.18847 0.87789 0.06236 0.0
H944 H 0.19749 0.91753 0.26637 0.0
H945 H 0.11777 0.80271 0.0207 0.0
H946 H 0.14944 0.79244 0.03061 0.0
H947 H 0.09522 0.91485 0.19093 0.0
H948 H 0.20452 0.82334 0.05433 0.0
H949 H 0.2122 0.85532 0.06025 0.0
H950 H 0.16795 0.97317 0.23811 0.0
H951 H 0.18099 0.79997 0.04301 0.0
H952 H 0.10555 0.97095 0.20233 0.0
H953 H 0.08428 0.94606 0.19098 0.0
N954 N 0.12224 0.92228 0.20131 0.0
C955 C 0.13393 0.93563 0.21051 0.0
C956 C 0.10447 0.92571 0.19624 0.0
C957 C 0.11035 0.95733 0.20259 0.0
C958 C 0.09829 0.94331 0.19619 0.0
C959 C 0.12838 0.95357 0.2105 0.0
H960 H 0.13697 0.98098 0.2188 0.0
N961 N 0.1559 0.91365 0.22319 0.0
C962 C 0.15138 0.93118 0.221 0.0
C963 C 0.18076 0.93961 0.24716 0.0
C964 C 0.16375 0.94465 0.23232 0.0
C965 C 0.17183 0.90871 0.24185 0.0
C966 C 0.18467 0.92155 0.2529 0.0
O967 O 0.12979 0.85993 0.11883 0.0
O968 O 0.14345 0.86484 0.18692 0.0
O969 O 0.13536 0.89436 0.27362 0.0
O970 O 0.11247 0.88237 0.23914 0.0
O971 O 0.11435 0.88745 0.08422 0.0
O972 O 0.10939 0.88358 0.16141 0.0
O973 O 0.12942 0.91215 0.13889 0.0
O974 O 0.153 0.90573 0.09442 0.0
O975 O 0.13056 0.89402 0.01615 0.0
O976 O 0.15278 0.87691 1.00117 0.0
O977 O 0.16028 0.8798 0.18497 0.0
O978 O 0.16691 0.88939 0.11312 0.0
C979 C 0.1369 0.85379 0.15632 0.0
C980 C 0.10359 0.88557 0.11943 0.0
C981 C 0.11156 0.88209 0.32131 0.0
C982 C 0.11164 0.88118 0.40429 0.0
C983 C 0.08705 0.86824 0.36143 0.0
C984 C 0.09513 0.87311 0.32103 0.0
C985 C 0.09524 0.87215 0.40272 0.0
C986 C 0.11973 0.8863 0.36328 0.0
C987 C 0.12007 0.88639 0.27753 0.0
C988 C 0.15856 0.96263 0.23012 0.0
C989 C 0.1409 0.96709 0.21925 0.0
H990 H 0.19066 0.94953 0.25616 0.0
C991 C 0.14177 0.9174 0.1105 0.0
C992 C 0.17198 0.88399 0.15381 0.0
C993 C 0.14837 0.9015 0.95319 0.0
C994 C 0.15207 0.91163 0.87502 0.0
C995 C 0.16548 0.92815 0.93786 0.0
C996 C 0.15867 0.91587 0.96861 0.0
C997 C 0.16228 0.92606 0.89146 0.0
C998 C 0.14506 0.89943 0.90653 0.0
C999 C 0.14136 0.88827 0.9851 0.0
H1000 H 0.0744 0.86132 0.36073 0.0
H1001 H 0.08849 0.86971 0.28948 0.0
H1002 H 0.08863 0.86827 0.43362 0.0
H1003 H 0.13243 0.89317 0.36409 0.0
H1004 H 0.17346 0.93922 0.94999 0.0
H1005 H 0.16156 0.91745 1.00431 0.0
H1006 H 0.16812 0.93557 0.86844 0.0
H1007 H 0.13697 0.88833 0.89493 0.0
C1008 C 0.92354 0.60559 0.2047 0.0
C1009 C 0.94549 0.62811 0.22466 0.0
C1010 C 0.9279 0.62327 0.213 0.0
C1011 C 0.95885 0.61503 0.22544 0.0
C1012 C 0.93678 0.59229 0.20774 0.0
C1013 C 0.9545 0.59715 0.21704 0.0
N1014 N 0.90616 0.60126 0.19747 0.0
C1015 C 0.90098 0.58378 0.19775 0.0
C1016 C 0.93169 0.57442 0.20347 0.0
C1017 C 0.91366 0.57015 0.1993 0.0
Gd1018 Gd 0.87174 0.63653 0.06382 0.0
Gd1019 Gd 0.88617 0.6255 0.19268 0.0
N1020 N 0.91472 0.63564 0.21196 0.0
C1021 C 0.94899 0.64588 0.23652 0.0
C1022 C 0.91778 0.65273 0.22611 0.0
C1023 C 0.93502 0.65818 0.23793 0.0
H1024 H 0.90693 0.66219 0.22735 0.0
H1025 H 0.93751 0.67183 0.24809 0.0
H1026 H 0.86983 0.59588 0.0136 0.0
H1027 H 0.88705 0.5802 0.19723 0.0
H1028 H 0.84706 0.57329 0.99515 0.0
H1029 H 0.96234 0.65012 0.2457 0.0
H1030 H 0.9725 0.61852 0.23368 0.0
H1031 H 0.85059 0.67529 0.07275 0.0
H1032 H 0.94146 0.56382 0.20546 0.0
H1033 H 0.90949 0.55634 0.19819 0.0
H1034 H 0.79168 0.60331 0.02257 0.0
H1035 H 0.96486 0.58712 0.2191 0.0
H1036 H 0.79447 0.66564 0.05918 0.0
H1037 H 0.81952 0.6866 0.07172 0.0
N1038 N 0.84289 0.64838 0.06155 0.0
C1039 C 0.82946 0.63686 0.05176 0.0
C1040 C 0.83965 0.66618 0.06692 0.0
C1041 C 0.80802 0.66068 0.0593 0.0
C1042 C 0.82213 0.67256 0.06639 0.0
C1043 C 0.8116 0.64261 0.0513 0.0
H1044 H 0.78415 0.63434 0.04212 0.0
N1045 N 0.85122 0.61468 0.03932 0.0
C1046 C 0.83375 0.61938 0.04113 0.0
C1047 C 0.8251 0.59016 0.01424 0.0
C1048 C 0.8202 0.60718 0.02925 0.0
C1049 C 0.85604 0.59878 0.02041 0.0
C1050 C 0.84312 0.58609 1.00885 0.0
O1051 O 0.90524 0.6396 0.14527 0.0
O1052 O 0.9002 0.627 0.07583 0.0
O1053 O 0.87084 0.63525 0.98938 0.0
O1054 O 0.88232 0.6583 0.0243 0.0
O1055 O 0.8775 0.65444 0.18034 0.0
O1056 O 0.88154 0.66036 0.10359 0.0
O1057 O 0.85285 0.64036 0.12388 0.0
O1058 O 0.85932 0.6164 0.16762 0.0
O1059 O 0.87144 0.63776 0.24794 0.0
O1060 O 0.88821 0.61506 0.26102 0.0
O1061 O 0.88538 0.61013 0.07693 0.0
O1062 O 0.87568 0.60256 0.14806 0.0
C1063 C 0.91126 0.63314 0.10699 0.0
C1064 C 0.87935 0.6656 0.1459 0.0
C1065 C 0.88267 0.65937 0.94203 0.0
C1066 C 0.88377 0.6593 0.85904 0.0
C1067 C 0.89595 0.68426 0.90199 0.0
C1068 C 0.89121 0.67605 0.94236 0.0
C1069 C 0.89234 0.67596 0.86068 0.0
C1070 C 0.87878 0.65108 0.90002 0.0
C1071 C 0.87852 0.65071 0.98576 0.0
C1072 C 0.80228 0.61257 0.03101 0.0
C1073 C 0.79799 0.63025 0.042 0.0
H1074 H 0.81511 0.58039 1.00481 0.0
C1075 C 0.84771 0.62792 0.15226 0.0
C1076 C 0.88131 0.59806 0.10728 0.0
C1077 C 0.86418 0.61953 0.31053 0.0
C1078 C 0.85428 0.61623 0.38899 0.0
C1079 C 0.8381 0.60178 0.32703 0.0
C1080 C 0.85014 0.60865 0.29583 0.0
C1081 C 0.84014 0.60546 0.37322 0.0
C1082 C 0.86621 0.62332 0.35698 0.0
C1083 C 0.87721 0.62655 0.27818 0.0
H1084 H 0.90251 0.6971 0.90273 0.0
H1085 H 0.89435 0.68277 0.97394 0.0
H1086 H 0.89611 0.68269 0.82981 0.0
H1087 H 0.87227 0.63819 0.89919 0.0
H1088 H 0.82727 0.59336 0.31544 0.0
H1089 H 0.84867 0.60534 0.26037 0.0
H1090 H 0.83086 0.59953 0.39661 0.0
H1091 H 0.87708 0.63183 0.36803 0.0
C1092 C 0.09238 0.10293 0.81553 0.0
C1093 C 0.07082 0.12679 0.80621 0.0
C1094 C 0.0885 0.12106 0.81377 0.0
C1095 C 0.0572 0.11413 0.80064 0.0
C1096 C 0.07866 0.09021 0.81042 0.0
C1097 C 0.06108 0.09591 0.803 0.0
N1098 N 0.1095 0.09775 0.82303 0.0
C1099 C 0.11388 0.0801 0.8245 0.0
C1100 C 0.08303 0.07209 0.81293 0.0
C1101 C 0.10073 0.06703 0.81984 0.0
Gd1102 Gd 0.14764 0.1359 0.95255 0.0
Gd1103 Gd 0.13058 0.12067 0.83048 0.0
N1104 N 0.10195 0.13306 0.81991 0.0
C1105 C 0.06734 0.14508 0.8042 0.0
C1106 C 0.09873 0.15086 0.81494 0.0
C1107 C 0.0814 0.15715 0.80808 0.0
H1108 H 0.1094 0.16036 0.81474 0.0
H1109 H 0.07893 0.17131 0.80494 0.0
H1110 H 0.16913 0.09631 0.96372 0.0
H1111 H 0.12758 0.07605 0.82813 0.0
H1112 H 0.19988 0.08534 0.9677 0.0
H1113 H 0.05393 0.15 0.79869 0.0
H1114 H 0.0436 0.1183 0.79427 0.0
H1115 H 0.15037 0.1804 0.95581 0.0
H1116 H 0.07287 0.06192 0.80921 0.0
H1117 H 0.10427 0.05305 0.82117 0.0
H1118 H 0.2354 0.13846 0.96981 0.0
H1119 H 0.0504 0.08632 0.79884 0.0
H1120 H 0.20545 0.19482 0.964 0.0
H1121 H 0.17372 0.20357 0.95876 0.0
N1122 N 0.1687 0.15888 0.95719 0.0
C1123 C 0.18601 0.15375 0.96146 0.0
C1124 C 0.16418 0.17648 0.95689 0.0
C1125 C 0.19525 0.18461 0.96237 0.0
C1126 C 0.17737 0.18961 0.95921 0.0
C1127 C 0.19978 0.16651 0.96367 0.0
H1128 H 0.22832 0.17046 0.96821 0.0
N1129 N 0.17644 0.12358 0.95844 0.0
C1130 C 0.19 0.13561 0.96215 0.0
C1131 C 0.21141 0.11161 0.96649 0.0
C1132 C 0.20786 0.12992 0.96541 0.0
C1133 C 0.1798 0.10577 0.96212 0.0
C1134 C 0.1973 0.09951 0.96543 0.0
O1135 O 0.11158 0.11755 0.88929 0.0
O1136 O 0.11802 0.14043 0.93864 0.0
O1137 O 0.14576 0.12286 0.01788 0.0
O1138 O 0.14539 0.15159 0.01422 0.0
O1139 O 0.13853 0.15015 0.84116 0.0
O1140 O 0.13174 0.15657 0.91551 0.0
O1141 O 0.16606 0.13915 0.89144 0.0
O1142 O 0.15954 0.11524 0.84612 0.0
O1143 O 0.13538 0.13384 0.7662 0.0
O1144 O 0.13216 0.10529 0.76824 0.0
O1145 O 0.13804 0.10741 0.94431 0.0
O1146 O 0.14443 0.09877 0.87109 0.0
C1147 C 0.10655 0.1294 0.91935 0.0
C1148 C 0.13486 0.16172 0.87388 0.0
C1149 C 0.12957 0.1382 0.07376 0.0
C1150 C 0.12017 0.13669 0.15278 0.0
C1151 C 0.09827 0.14061 0.09234 0.0
C1152 C 0.11177 0.14028 0.06013 0.0
C1153 C 0.10239 0.13887 0.13832 0.0
C1154 C 0.13371 0.13638 0.11996 0.0
C1155 C 0.14394 0.13773 0.04024 0.0
C1156 C 0.2216 0.14261 0.9675 0.0
C1157 C 0.21757 0.16084 0.96664 0.0
H1158 H 0.22495 0.1067 0.969 0.0
C1159 C 0.17082 0.12734 0.86071 0.0
C1160 C 0.14104 0.0949 0.91384 0.0
C1161 C 0.14933 0.11696 0.7089 0.0
C1162 C 0.15855 0.11804 0.62974 0.0
C1163 C 0.17954 0.1091 0.68863 0.0
C1164 C 0.16642 0.11128 0.72137 0.0
C1165 C 0.17571 0.11251 0.64312 0.0
C1166 C 0.14542 0.1203 0.66314 0.0
C1167 C 0.13533 0.11904 0.74299 0.0
H1168 H 0.08455 0.1423 0.08165 0.0
H1169 H 0.10832 0.14166 0.0247 0.0
H1170 H 0.09166 0.13946 0.16256 0.0
H1171 H 0.14748 0.13448 0.13017 0.0
H1172 H 0.19264 0.10451 0.69851 0.0
H1173 H 0.16945 0.10834 0.7563 0.0
H1174 H 0.18605 0.11041 0.6183 0.0
H1175 H 0.13215 0.12469 0.65363 0.0
C1176 C 0.66175 0.34126 0.5694 0.0
C1177 C 0.63838 0.31976 0.55336 0.0
C1178 C 0.64399 0.33745 0.56115 0.0
C1179 C 0.65079 0.30581 0.55682 0.0
C1180 C 0.67443 0.32738 0.57029 0.0
C1181 C 0.66877 0.30961 0.56544 0.0
N1182 N 0.66679 0.35862 0.57323 0.0
C1183 C 0.68445 0.36301 0.57234 0.0
C1184 C 0.69247 0.33182 0.57413 0.0
C1185 C 0.69752 0.34973 0.57412 0.0
Gd1186 Gd 0.63329 0.39606 0.70224 0.0
Gd1187 Gd 0.6434 0.37971 0.57506 0.0
N1188 N 0.63223 0.35117 0.55934 0.0
C1189 C 0.62051 0.31669 0.54182 0.0
C1190 C 0.61501 0.34842 0.54584 0.0
C1191 C 0.60884 0.33111 0.5374 0.0
H1192 H 0.606 0.35959 0.54257 0.0
H1193 H 0.59509 0.32891 0.5277 0.0
H1194 H 0.67341 0.39844 0.75437 0.0
H1195 H 0.68861 0.37675 0.56995 0.0
H1196 H 0.69559 0.42142 0.77407 0.0
H1197 H 0.61568 0.30329 0.53556 0.0
H1198 H 0.64668 0.29208 0.55193 0.0
H1199 H 0.59459 0.41718 0.68951 0.0
H1200 H 0.70263 0.32156 0.57499 0.0
H1201 H 0.71148 0.35333 0.57481 0.0
H1202 H 0.66598 0.47657 0.74091 0.0
H1203 H 0.67828 0.29875 0.56678 0.0
H1204 H 0.60415 0.47343 0.69954 0.0
H1205 H 0.58333 0.44824 0.6873 0.0
N1206 N 0.6214 0.42496 0.70162 0.0
C1207 C 0.63283 0.4385 0.71119 0.0
C1208 C 0.60367 0.42816 0.69495 0.0
C1209 C 0.60911 0.45987 0.70062 0.0
C1210 C 0.5973 0.44568 0.69371 0.0
C1211 C 0.62707 0.45637 0.71016 0.0
H1212 H 0.6352 0.48392 0.71857 0.0
N1213 N 0.65486 0.41686 0.72652 0.0
C1214 C 0.65018 0.43432 0.72332 0.0
C1215 C 0.67904 0.44321 0.75211 0.0
C1216 C 0.66222 0.44798 0.7354 0.0
C1217 C 0.67059 0.41219 0.74666 0.0
C1218 C 0.68306 0.42523 0.75877 0.0
O1219 O 0.6292 0.36195 0.62516 0.0
O1220 O 0.64296 0.3675 0.69267 0.0
O1221 O 0.63428 0.39777 0.7767 0.0
O1222 O 0.61159 0.38557 0.74179 0.0
O1223 O 0.61462 0.38923 0.58686 0.0
O1224 O 0.60912 0.38615 0.66399 0.0
O1225 O 0.62973 0.41434 0.64057 0.0
O1226 O 0.65329 0.40671 0.59702 0.0
O1227 O 0.63115 0.39361 0.51829 0.0
O1228 O 0.65382 0.37661 0.50703 0.0
O1229 O 0.6599 0.38257 0.6904 0.0
O1230 O 0.667 0.39046 0.61738 0.0
C1231 C 0.63629 0.35617 0.66299 0.0
C1232 C 0.60361 0.38798 0.62174 0.0
C1233 C 0.61009 0.38604 0.8239 0.0
C1234 C 0.61016 0.38451 0.90675 0.0
C1235 C 0.58471 0.3736 0.86354 0.0
C1236 C 0.59307 0.37821 0.82331 0.0
C1237 C 0.5932 0.37661 0.90493 0.0
C1238 C 0.61854 0.38942 0.86599 0.0
C1239 C 0.61894 0.38988 0.7803 0.0
C1240 C 0.65684 0.46589 0.73228 0.0
C1241 C 0.6393 0.47007 0.71968 0.0
H1242 H 0.68866 0.45329 0.76196 0.0
C1243 C 0.64226 0.41884 0.61185 0.0
C1244 C 0.6718 0.38604 0.6591 0.0
C1245 C 0.64972 0.40049 0.45648 0.0
C1246 C 0.65311 0.41049 0.37813 0.0
C1247 C 0.66737 0.4267 0.44026 0.0
C1248 C 0.66049 0.4146 0.47136 0.0
C1249 C 0.66377 0.42468 0.39402 0.0
C1250 C 0.64603 0.39848 0.40999 0.0
C1251 C 0.64247 0.38756 0.48883 0.0
H1252 H 0.57163 0.36755 0.86262 0.0
H1253 H 0.58621 0.3755 0.79165 0.0
H1254 H 0.58642 0.37288 0.93573 0.0
H1255 H 0.63168 0.39537 0.86706 0.0
H1256 H 0.67569 0.43759 0.45199 0.0
H1257 H 0.66366 0.41612 0.50692 0.0
H1258 H 0.66966 0.43404 0.37068 0.0
H1259 H 0.63756 0.3876 0.39881 0.0
C1260 C 0.42655 0.91132 0.3227 0.0
C1261 C 0.44894 0.88869 0.30863 0.0
C1262 C 0.43102 0.89371 0.31473 0.0
C1263 C 0.46243 0.90152 0.31374 0.0
C1264 C 0.43998 0.92445 0.32505 0.0
C1265 C 0.45795 0.91937 0.32212 0.0
N1266 N 0.40902 0.91578 0.32447 0.0
C1267 C 0.40408 0.93331 0.32269 0.0
C1268 C 0.4349 0.94235 0.32821 0.0
C1269 C 0.41687 0.94682 0.32594 0.0
Gd1270 Gd 0.37099 0.88117 0.44969 0.0
Gd1271 Gd 0.38866 0.89171 0.32416 0.0
N1272 N 0.41772 0.88155 0.31111 0.0
C1273 C 0.45269 0.87099 0.29682 0.0
C1274 C 0.42115 0.86451 0.29726 0.0
C1275 C 0.4387 0.85891 0.29045 0.0
H1276 H 0.41031 0.85518 0.29255 0.0
H1277 H 0.44144 0.84529 0.28051 0.0
H1278 H 0.36625 0.92237 0.4952 0.0
H1279 H 0.39026 0.937 0.31864 0.0
H1280 H 0.34234 0.94436 0.50665 0.0
H1281 H 0.46629 0.8666 0.2918 0.0
H1282 H 0.47631 0.89787 0.31018 0.0
H1283 H 0.35133 0.84164 0.43887 0.0
H1284 H 0.44479 0.95285 0.33015 0.0
H1285 H 0.41281 0.96066 0.32602 0.0
H1286 H 0.28894 0.91208 0.47046 0.0
H1287 H 0.46846 0.92923 0.32461 0.0
H1288 H 0.29477 0.84945 0.44055 0.0
H1289 H 0.32076 0.82927 0.4345 0.0
N1290 N 0.34254 0.86838 0.44628 0.0
C1291 C 0.3285 0.87955 0.45233 0.0
C1292 C 0.34001 0.85045 0.44156 0.0
C1293 C 0.30812 0.85489 0.44265 0.0
C1294 C 0.32276 0.84345 0.43918 0.0
C1295 C 0.31088 0.87316 0.44979 0.0
H1296 H 0.283 0.88053 0.45272 0.0
N1297 N 0.34913 0.90274 0.46651 0.0
C1298 C 0.33191 0.89734 0.46182 0.0
C1299 C 0.32157 0.92656 0.48403 0.0
C1300 C 0.31767 0.90919 0.46972 0.0
C1301 C 0.35285 0.91901 0.4851 0.0
C1302 C 0.33923 0.93134 0.49286 0.0
O1303 O 0.40612 0.8773 0.37526 0.0
O1304 O 0.39996 0.89018 0.44339 0.0
O1305 O 0.36715 0.88395 0.52236 0.0
O1306 O 0.37972 0.86036 0.49576 0.0
O1307 O 0.3798 0.86272 0.33591 0.0
O1308 O 0.38162 0.85688 0.41345 0.0
O1309 O 0.35371 0.87695 0.38602 0.0
O1310 O 0.36093 0.90063 0.34225 0.0
O1311 O 0.37641 0.87861 0.26603 0.0
O1312 O 0.39179 0.90249 0.25636 0.0
O1313 O 0.38498 0.90748 0.43892 0.0
O1314 O 0.37713 0.9149 0.366 0.0
C1315 C 0.41155 0.88394 0.41405 0.0
C1316 C 0.38054 0.85156 0.37081 0.0
C1317 C 0.38953 0.8709 0.56755 0.0
C1318 C 0.39766 0.87489 0.64755 0.0
C1319 C 0.42065 0.87217 0.59004 0.0
C1320 C 0.40767 0.87058 0.55629 0.0
C1321 C 0.41575 0.87423 0.63526 0.0
C1322 C 0.3846 0.87311 0.61316 0.0
C1323 C 0.37568 0.86938 0.532 0.0
C1324 C 0.30004 0.90311 0.46506 0.0
C1325 C 0.29665 0.88513 0.45514 0.0
H1326 H 0.31103 0.93607 0.4906 0.0
C1327 C 0.34903 0.88925 0.35656 0.0
C1328 C 0.38177 0.91953 0.40771 0.0
C1329 C 0.36914 0.89634 0.20271 0.0
C1330 C 0.35993 0.89819 0.12323 0.0
C1331 C 0.34113 0.9104 0.18263 0.0
C1332 C 0.35357 0.90525 0.21541 0.0
C1333 C 0.34421 0.90682 0.13686 0.0
C1334 C 0.37237 0.89296 0.15662 0.0
C1335 C 0.38205 0.8903 0.23706 0.0
H1336 H 0.4346 0.87177 0.58112 0.0
H1337 H 0.41181 0.86911 0.52143 0.0
H1338 H 0.42618 0.87514 0.66064 0.0
H1339 H 0.37059 0.87376 0.6216 0.0
H1340 H 0.32912 0.91727 0.19271 0.0
H1341 H 0.35112 0.90821 0.25062 0.0
H1342 H 0.33445 0.91114 0.11205 0.0
H1343 H 0.38445 0.88606 0.14685 0.0
H1344 H 0.14823 0.5802 0.81518 0.0
H1345 H 0.1437 0.58377 0.73375 0.0
H1346 H 0.14509 0.64091 0.74976 0.0
H1347 H 0.15055 0.63748 0.83083 0.0
H1348 H 0.11731 0.59912 0.68685 0.0
H1349 H 0.18011 0.63448 0.64878 0.0
H1350 H 0.17628 0.62379 0.70244 0.0
H1351 H 0.16734 0.64564 0.69143 0.0
C1352 C 0.14786 0.59355 0.8014 0.0
C1353 C 0.14994 0.60854 0.82984 0.0
C1354 C 0.14514 0.59557 0.75474 0.0
C1355 C 0.14442 0.6126 0.73526 0.0
C1356 C 0.14606 0.6276 0.76364 0.0
H1357 H 0.11386 0.6569 0.47878 0.0
H1358 H 0.12381 0.65078 0.55625 0.0
C1359 C 0.1489 0.62561 0.81027 0.0
C1360 C 0.14141 0.61467 0.68556 0.0
H1361 H 0.15775 0.63469 0.5906 0.0
C1362 C 0.12628 0.60672 0.66575 0.0
C1363 C 0.15314 0.62452 0.65779 0.0
C1364 C 0.17022 0.63244 0.67608 0.0
C1365 C 0.12226 0.60886 0.61951 0.0
C1366 C 0.13372 0.61912 0.59216 0.0
C1367 C 0.14899 0.62683 0.61165 0.0
C1368 C 0.12938 0.62291 0.54396 0.0
C1369 C 0.10547 0.60064 0.60043 0.0
C1370 C 0.12973 0.60938 0.51092 0.0
C1371 C 0.12416 0.61289 0.46636 0.0
C1372 C 0.118 0.62994 0.45434 0.0
C1373 C 0.11838 0.64359 0.48715 0.0
C1374 C 0.12409 0.64013 0.53139 0.0
H1375 H 0.09673 0.59526 0.62733 0.0
H1376 H 0.09784 0.61063 0.58053 0.0
H1377 H 0.10903 0.58954 0.57723 0.0
H1378 H 0.13392 0.59603 0.51985 0.0
H1379 H 0.12394 0.60211 0.44187 0.0
H1380 H 0.62968 0.90104 0.07971 0.0
H1381 H 0.6254 0.89549 0.99885 0.0
H1382 H 0.68223 0.8914 0.98188 0.0
H1383 H 0.68661 0.89598 0.06307 0.0
H1384 H 0.63633 0.91439 0.92667 0.0
H1385 H 0.66588 0.84668 0.91866 0.0
H1386 H 0.66072 0.85753 0.97156 0.0
H1387 H 0.68074 0.86316 0.9417 0.0
C1388 C 0.64129 0.8986 0.05906 0.0
C1389 C 0.6585 0.89883 0.07831 0.0
C1390 C 0.63881 0.8956 0.01262 0.0
C1391 C 0.65346 0.89275 0.98419 0.0
C1392 C 0.67067 0.89317 1.00312 0.0
H1393 H 0.65903 0.87243 0.69114 0.0
H1394 H 0.66656 0.88155 0.76905 0.0
C1395 C 0.67316 0.89604 0.04962 0.0
C1396 C 0.65067 0.88972 0.93471 0.0
H1397 H 0.65834 0.86012 0.84862 0.0
C1398 C 0.64115 0.90251 0.90968 0.0
C1399 C 0.65698 0.87423 0.91232 0.0
C1400 C 0.6665 0.85953 0.93747 0.0
C1401 C 0.63776 0.90024 0.86312 0.0
C1402 C 0.64395 0.88473 0.84092 0.0
C1403 C 0.65373 0.87208 0.86565 0.0
C1404 C 0.63939 0.88076 0.79285 0.0
C1405 C 0.6276 0.91449 0.83794 0.0
C1406 C 0.62164 0.87743 0.78034 0.0
C1407 C 0.61735 0.87217 0.73614 0.0
C1408 C 0.63072 0.87015 0.70337 0.0
C1409 C 0.64844 0.87404 0.71552 0.0
C1410 C 0.65276 0.87914 0.76003 0.0
H1411 H 0.62772 0.92739 0.85656 0.0
H1412 H 0.63325 0.91658 0.80373 0.0
H1413 H 0.61353 0.91022 0.83373 0.0
H1414 H 0.61113 0.87837 0.80517 0.0
H1415 H 0.60357 0.86935 0.72776 0.0
H1416 H 0.37126 0.42572 0.31522 0.0
H1417 H 0.37656 0.41925 0.23498 0.0
H1418 H 0.36266 0.36421 0.25659 0.0
H1419 H 0.35721 0.37056 0.33673 0.0
H1420 H 0.40055 0.39083 0.1945 0.0
H1421 H 0.32853 0.38373 0.15249 0.0
H1422 H 0.33632 0.39561 0.20212 0.0
H1423 H 0.33664 0.3717 0.20104 0.0
C1424 C 0.36936 0.41223 0.3029 0.0
C1425 C 0.36375 0.39866 0.33236 0.0
C1426 C 0.37247 0.40855 0.25712 0.0
C1427 C 0.36983 0.3913 0.23982 0.0
C1428 C 0.36464 0.37764 0.26925 0.0
H1429 H 0.36843 0.34522 0.96998 0.0
H1430 H 0.36583 0.35142 0.05082 0.0
C1431 C 0.36167 0.38127 0.3151 0.0
C1432 C 0.37211 0.38766 0.19078 0.0
H1433 H 0.34891 0.37758 0.09419 0.0
C1434 C 0.38929 0.38797 0.17244 0.0
C1435 C 0.35739 0.38388 0.16224 0.0
C1436 C 0.33863 0.38379 0.18016 0.0
C1437 C 0.39219 0.38424 0.12636 0.0
C1438 C 0.37742 0.3806 0.09759 0.0
C1439 C 0.36023 0.38036 0.1161 0.0
C1440 C 0.37945 0.37681 0.04832 0.0
C1441 C 0.41108 0.38373 0.10935 0.0
C1442 C 0.38782 0.38908 0.01965 0.0
C1443 C 0.3896 0.38543 0.97337 0.0
C1444 C 0.38282 0.36953 0.95448 0.0
C1445 C 0.37415 0.35743 0.98325 0.0
C1446 C 0.3725 0.36103 0.02955 0.0
H1447 H 0.42077 0.38148 0.13735 0.0
H1448 H 0.41284 0.37308 0.08358 0.0
H1449 H 0.41432 0.39672 0.09357 0.0
H1450 H 0.3929 0.40156 0.03297 0.0
H1451 H 0.39649 0.39503 0.95254 0.0
H1452 H 0.89289 0.13938 0.56567 0.0
H1453 H 0.88601 0.14737 0.48682 0.0
H1454 H 0.85295 0.10061 0.47386 0.0
H1455 H 0.85949 0.09278 0.5524 0.0
H1456 H 0.89362 0.12665 0.40991 0.0
H1457 H 0.8212 0.13971 0.42113 0.0
H1458 H 0.83555 0.13902 0.47041 0.0
H1459 H 0.82757 0.11867 0.44501 0.0
C1460 C 0.88383 0.13105 0.54628 0.0
C1461 C 0.87674 0.11545 0.5653 0.0
C1462 C 0.88002 0.13554 0.50114 0.0
C1463 C 0.86884 0.12467 0.47445 0.0
C1464 C 0.86137 0.10937 0.49386 0.0
H1465 H 0.86164 0.10971 0.18409 0.0
H1466 H 0.86893 0.10834 0.26489 0.0
C1467 C 0.86523 0.10484 0.53872 0.0
C1468 C 0.86573 0.12858 0.42563 0.0
H1469 H 0.83278 0.13485 0.34689 0.0
C1470 C 0.88034 0.12864 0.39617 0.0
C1471 C 0.84843 0.13135 0.40767 0.0
C1472 C 0.8323 0.13237 0.43773 0.0
C1473 C 0.87804 0.13076 0.34916 0.0
C1474 C 0.86064 0.13264 0.33097 0.0
C1475 C 0.84611 0.13321 0.36065 0.0
C1476 C 0.85713 0.13387 0.28133 0.0
C1477 C 0.8943 0.13107 0.31947 0.0
C1478 C 0.84788 0.14856 0.26353 0.0
C1479 C 0.84365 0.14935 0.21736 0.0
C1480 C 0.84847 0.13541 0.18781 0.0
C1481 C 0.85795 0.12081 0.20563 0.0
C1482 C 0.86215 0.12001 0.2519 0.0
H1483 H 0.90647 0.13468 0.33904 0.0
H1484 H 0.89638 0.1176 0.30477 0.0
H1485 H 0.89263 0.14067 0.29123 0.0
H1486 H 0.84385 0.15941 0.28548 0.0
H1487 H 0.83656 0.16091 0.20479 0.0
H1488 H 0.16492 0.37146 0.19662 0.0
H1489 H 0.17049 0.38023 0.27584 0.0
H1490 H 0.11414 0.37754 0.30221 0.0
H1491 H 0.10866 0.36828 0.22386 0.0
H1492 H 0.15971 0.40719 0.33221 0.0
H1493 H 0.1333 0.34289 0.39419 0.0
H1494 H 0.13762 0.34686 0.33513 0.0
H1495 H 0.11737 0.35482 0.36049 0.0
C1496 C 0.15375 0.37304 0.21927 0.0
C1497 C 0.13639 0.36904 0.20434 0.0
C1498 C 0.15693 0.37797 0.26452 0.0
C1499 C 0.14278 0.37904 0.29542 0.0
C1500 C 0.12533 0.37625 0.27952 0.0
H1501 H 0.13066 0.40214 0.58156 0.0
H1502 H 0.12664 0.3968 0.50041 0.0
C1503 C 0.12219 0.37112 0.23465 0.0
C1504 C 0.14621 0.38238 0.34452 0.0
H1505 H 0.13871 0.36528 0.44989 0.0
C1506 C 0.15523 0.39797 0.35791 0.0
C1507 C 0.14048 0.37028 0.37821 0.0
C1508 C 0.13183 0.35269 0.36633 0.0
C1509 C 0.15819 0.40201 0.40396 0.0
C1510 C 0.15208 0.3901 0.43748 0.0
C1511 C 0.14324 0.37446 0.42414 0.0
C1512 C 0.1547 0.39359 0.48668 0.0
C1513 C 0.16751 0.41915 0.41656 0.0
C1514 C 0.17181 0.39329 0.50609 0.0
C1515 C 0.17416 0.39606 0.55268 0.0
C1516 C 0.15944 0.39925 0.58096 0.0
C1517 C 0.14231 0.39948 0.56121 0.0
C1518 C 0.13997 0.39658 0.51468 0.0
H1519 H 0.16836 0.42844 0.38746 0.0
H1520 H 0.16048 0.42594 0.44474 0.0
H1521 H 0.18125 0.4161 0.42828 0.0
H1522 H 0.18334 0.39066 0.48527 0.0
H1523 H 0.18752 0.39543 0.56659 0.0
H1524 H 0.87075 0.86731 0.82656 0.0
H1525 H 0.86404 0.86975 0.74557 0.0
H1526 H 0.90715 0.90718 0.73064 0.0
H1527 H 0.91386 0.90494 0.8115 0.0
H1528 H 0.85494 0.89978 0.69403 0.0
H1529 H 0.91802 0.86968 0.63365 0.0
H1530 H 0.91079 0.86795 0.6916 0.0
H1531 H 0.921 0.88813 0.67187 0.0
C1532 C 0.87873 0.87616 0.80614 0.0
C1533 C 0.89294 0.88583 0.8256 0.0
C1534 C 0.87493 0.87747 0.75979 0.0
C1535 C 0.88529 0.88839 0.73186 0.0
C1536 C 0.89925 0.89832 0.75128 0.0
H1537 H 0.8837 0.9148 0.44512 0.0
H1538 H 0.89031 0.9125 0.52618 0.0
C1539 C 0.90307 0.89702 0.79758 0.0
C1540 C 0.88133 0.88962 0.68256 0.0
H1541 H 0.89925 0.88268 0.57791 0.0
C1542 C 0.86458 0.89596 0.66862 0.0
C1543 C 0.89396 0.88468 0.64942 0.0
C1544 C 0.9119 0.87707 0.66224 0.0
C1545 C 0.86023 0.8978 0.6225 0.0
C1546 C 0.87285 0.89285 0.58936 0.0
C1547 C 0.8896 0.88651 0.60331 0.0
C1548 C 0.8689 0.89405 0.54005 0.0
C1549 C 0.8423 0.90543 0.6097 0.0
C1550 C 0.85487 0.8842 0.52069 0.0
C1551 C 0.8511 0.88543 0.47435 0.0
C1552 C 0.86136 0.89647 0.44622 0.0
C1553 C 0.87562 0.90607 0.46563 0.0
C1554 C 0.87936 0.90484 0.51202 0.0
H1555 H 0.83623 0.91289 0.63825 0.0
H1556 H 0.84339 0.91449 0.58021 0.0
H1557 H 0.83316 0.89437 0.60031 0.0
H1558 H 0.8469 0.87544 0.54139 0.0
H1559 H 0.84026 0.87756 0.46047 0.0
H1560 H 0.3745 0.64193 0.68402 0.0
H1561 H 0.38064 0.64694 0.76426 0.0
H1562 H 0.37543 0.5906 0.7893 0.0
H1563 H 0.3703 0.5853 0.70867 0.0
H1564 H 0.35949 0.64102 0.83459 0.0
H1565 H 0.4209 0.60088 0.85656 0.0
H1566 H 0.41193 0.60632 0.8015 0.0
H1567 H 0.40269 0.58822 0.83356 0.0
C1568 C 0.37509 0.63051 0.70628 0.0
C1569 C 0.37199 0.61317 0.68952 0.0
C1570 C 0.37844 0.63344 0.75236 0.0
C1571 C 0.37876 0.61914 0.78291 0.0
C1572 C 0.37567 0.60182 0.76639 0.0
H1573 H 0.37731 0.61686 0.07805 0.0
H1574 H 0.3747 0.60959 0.99733 0.0
C1575 C 0.37246 0.59885 0.72022 0.0
C1576 C 0.38142 0.62252 0.83222 0.0
H1577 H 0.40703 0.61129 0.9241 0.0
C1578 C 0.36995 0.63457 0.85401 0.0
C1579 C 0.39509 0.61413 0.85774 0.0
C1580 C 0.40847 0.6018 0.83609 0.0
C1581 C 0.37166 0.6383 0.90046 0.0
C1582 C 0.38516 0.62977 0.92589 0.0
C1583 C 0.39662 0.6177 0.90441 0.0
C1584 C 0.38772 0.63362 0.97473 0.0
C1585 C 0.359 0.65128 0.92236 0.0
C1586 C 0.39617 0.64939 0.98861 0.0
C1587 C 0.39788 0.65351 0.03465 0.0
C1588 C 0.39107 0.64197 0.06784 0.0
C1589 C 0.3829 0.62597 0.05363 0.0
C1590 C 0.3813 0.62182 1.0075 0.0
H1591 H 0.34806 0.65535 0.89908 0.0
H1592 H 0.35312 0.64528 0.95314 0.0
H1593 H 0.36643 0.66339 0.93308 0.0
H1594 H 0.4013 0.6586 0.96375 0.0
H1595 H 0.40454 0.66578 0.0442 0.0
H1596 H 0.6218 0.13942 0.94186 0.0
H1597 H 0.62943 0.14009 0.0227 0.0
H1598 H 0.61827 0.08384 0.03192 0.0
H1599 H 0.61061 0.08309 0.95143 0.0
H1600 H 0.60159 0.10329 0.09823 0.0
H1601 H 0.67312 0.12183 0.09061 0.0
H1602 H 0.65833 0.13666 0.0611 0.0
H1603 H 0.66083 0.11408 0.04161 0.0
C1604 C 0.62129 0.12713 0.96093 0.0
C1605 C 0.61553 0.11121 0.94012 0.0
C1606 C 0.62567 0.12753 1.00719 0.0
C1607 C 0.62457 0.11198 0.03346 0.0
C1608 C 0.61919 0.09602 0.01248 0.0
H1609 H 0.63936 0.07865 0.31115 0.0
H1610 H 0.63311 0.08129 0.23017 0.0
C1611 C 0.61476 0.09563 0.96642 0.0
C1612 C 0.6281 0.11235 0.08319 0.0
H1613 H 0.66019 0.12051 0.16341 0.0
C1614 C 0.61442 0.10704 0.11242 0.0
C1615 C 0.64479 0.11738 0.10185 0.0
C1616 C 0.66018 0.12267 0.07225 0.0
C1617 C 0.61696 0.10657 0.15959 0.0
C1618 C 0.63375 0.11124 0.1782 0.0
C1619 C 0.64734 0.1169 0.14913 0.0
C1620 C 0.6376 0.10976 0.22758 0.0
C1621 C 0.60156 0.10123 0.18914 0.0
C1622 C 0.64257 0.12482 0.25308 0.0
C1623 C 0.6463 0.12333 0.2995 0.0
C1624 C 0.64531 0.1067 0.32132 0.0
C1625 C 0.6404 0.09164 0.29551 0.0
C1626 C 0.63664 0.09315 0.24922 0.0
H1627 H 0.58858 0.10296 0.1714 0.0
H1628 H 0.60292 0.08695 0.1982 0.0
H1629 H 0.60139 0.10917 0.22094 0.0
H1630 H 0.64352 0.13775 0.23707 0.0
H1631 H 0.65027 0.13516 0.31812 0.0
H1632 H 0.87171 0.36208 0.18826 0.0
H1633 H 0.8634 0.36495 0.26796 0.0
H1634 H 0.9063 0.40222 0.28975 0.0
H1635 H 0.91442 0.39989 0.21003 0.0
H1636 H 0.90397 0.37249 0.35425 0.0
H1637 H 0.84015 0.40924 0.33202 0.0
H1638 H 0.84318 0.38964 0.2976 0.0
H1639 H 0.8571 0.40875 0.28894 0.0
C1640 C 0.87922 0.37113 0.20972 0.0
C1641 C 0.89378 0.38073 0.19244 0.0
C1642 C 0.87448 0.37269 0.25538 0.0
C1643 C 0.88417 0.38387 0.28473 0.0
C1644 C 0.89865 0.39349 0.26771 0.0
H1645 H 0.88499 0.40797 0.57341 0.0
H1646 H 0.89196 0.40462 0.49307 0.0
C1647 C 0.90334 0.39204 0.22209 0.0
C1648 C 0.87958 0.38522 0.33349 0.0
H1649 H 0.84783 0.40051 0.40625 0.0
C1650 C 0.8917 0.37863 0.3657 0.0
C1651 C 0.86353 0.39311 0.34827 0.0
C1652 C 0.85024 0.40073 0.31508 0.0
C1653 C 0.88814 0.37956 0.41232 0.0
C1654 C 0.87223 0.38778 0.42729 0.0
C1655 C 0.86004 0.39425 0.39493 0.0
C1656 C 0.868 0.38989 0.47627 0.0
C1657 C 0.9013 0.37131 0.44495 0.0
C1658 C 0.85193 0.38326 0.49356 0.0
C1659 C 0.84781 0.38536 0.53944 0.0
C1660 C 0.85969 0.39413 0.56912 0.0
C1661 C 0.8757 0.40087 0.55167 0.0
C1662 C 0.87973 0.39891 0.50571 0.0
H1663 H 0.90959 0.361 0.42814 0.0
H1664 H 0.91038 0.38182 0.45808 0.0
H1665 H 0.89443 0.36512 0.47409 0.0
H1666 H 0.84261 0.37632 0.47158 0.0
H1667 H 0.83543 0.37989 0.55181 0.0
H1668 H 0.36862 0.15368 0.32403 0.0
H1669 H 0.36105 0.15004 0.24383 0.0
H1670 H 0.40817 0.1181 0.22473 0.0
H1671 H 0.41541 0.12098 0.30509 0.0
H1672 H 0.37955 0.16022 0.16927 0.0
H1673 H 0.3706 0.0869 0.16658 0.0
H1674 H 0.37197 0.09952 0.2186 0.0
H1675 H 0.3919 0.0936 0.18861 0.0
C1676 C 0.37722 0.14561 0.30299 0.0
C1677 C 0.3926 0.13756 0.32128 0.0
C1678 C 0.37294 0.14366 0.257 0.0
C1679 C 0.38388 0.13357 0.22827 0.0
C1680 C 0.3993 0.12564 0.24631 0.0
H1681 H 0.38649 0.11076 0.93992 0.0
H1682 H 0.39313 0.11469 0.02064 0.0
C1683 C 0.40355 0.12751 0.29227 0.0
C1684 C 0.37947 0.13179 0.17921 0.0
H1685 H 0.37206 0.10126 0.0949 0.0
C1686 C 0.37778 0.14733 0.1531 0.0
C1687 C 0.37716 0.11497 0.15802 0.0
C1688 C 0.37782 0.0978 0.18446 0.0
C1689 C 0.37422 0.14649 0.10633 0.0
C1690 C 0.37215 0.12967 0.08513 0.0
C1691 C 0.37375 0.11414 0.11119 0.0
C1692 C 0.36826 0.12789 0.03592 0.0
C1693 C 0.37311 0.16358 0.0797 0.0
C1694 C 0.35205 0.13395 0.01771 0.0
C1695 C 0.34821 0.13172 0.97158 0.0
C1696 C 0.36053 0.1234 0.94267 0.0
C1697 C 0.37681 0.11744 0.96105 0.0
C1698 C 0.38058 0.11957 1.00723 0.0
H1699 H 0.37876 0.17506 0.09883 0.0
H1700 H 0.38026 0.16225 0.04709 0.0
H1701 H 0.35893 0.16655 0.07196 0.0
H1702 H 0.34225 0.1402 0.03933 0.0
H1703 H 0.33559 0.13655 0.9585 0.0
H1704 H 0.67744 0.63963 0.06405 0.0
H1705 H 0.67051 0.64228 0.98334 0.0
H1706 H 0.62599 0.60659 0.99907 0.0
H1707 H 0.63286 0.60381 0.07985 0.0
H1708 H 0.66926 0.6157 0.91779 0.0
H1709 H 0.60348 0.64882 0.93338 0.0
H1710 H 0.61898 0.64719 0.98016 0.0
H1711 H 0.60542 0.62838 0.96446 0.0
C1712 C 0.6662 0.63228 0.05035 0.0
C1713 C 0.65569 0.62152 0.0785 0.0
C1714 C 0.66222 0.63388 1.00423 0.0
C1715 C 0.64759 0.62484 0.98526 0.0
C1716 C 0.6371 0.61402 0.01315 0.0
H1717 H 0.60411 0.61456 0.71308 0.0
H1718 H 0.61082 0.61207 0.79396 0.0
C1719 C 0.64105 0.61244 0.05933 0.0
C1720 C 0.64366 0.62634 0.93605 0.0
H1721 H 0.61168 0.63908 0.8599 0.0
C1722 C 0.65671 0.62089 0.90511 0.0
C1723 C 0.62725 0.63308 0.91956 0.0
C1724 C 0.61302 0.63986 0.95105 0.0
C1725 C 0.65369 0.62172 0.85817 0.0
C1726 C 0.63729 0.62845 0.84169 0.0
C1727 C 0.62423 0.63389 0.8726 0.0
C1728 C 0.63339 0.62996 0.79249 0.0
C1729 C 0.66794 0.61501 0.82663 0.0
C1730 C 0.64374 0.641 0.76484 0.0
C1731 C 0.63989 0.64252 0.7186 0.0
C1732 C 0.62553 0.63312 0.69908 0.0
C1733 C 0.61513 0.62215 0.72702 0.0
C1734 C 0.619 0.62064 0.77324 0.0
H1735 H 0.67761 0.60619 0.84431 0.0
H1736 H 0.662 0.60756 0.79769 0.0
H1737 H 0.6754 0.62654 0.81294 0.0
H1738 H 0.65467 0.64863 0.77915 0.0
H1739 H 0.64798 0.65133 0.6983 0.0
H1740 H 0.11718 0.85802 0.47373 0.0
H1741 H 0.12666 0.86496 0.55126 0.0
H1742 H 0.13384 0.92005 0.51464 0.0
H1743 H 0.12432 0.91315 0.4366 0.0
H1744 H 0.15946 0.88286 0.58628 0.0
H1745 H 0.0964 0.91934 0.62119 0.0
H1746 H 0.0985 0.90394 0.57439 0.0
H1747 H 0.10861 0.92556 0.57147 0.0
C1748 C 0.12098 0.87159 0.48206 0.0
C1749 C 0.1199 0.88508 0.44919 0.0
C1750 C 0.12642 0.87552 0.52633 0.0
C1751 C 0.13072 0.89305 0.53886 0.0
C1752 C 0.1304 0.90645 0.50573 0.0
H1753 H 0.14611 0.93741 0.81063 0.0
H1754 H 0.14231 0.93347 0.729 0.0
C1755 C 0.12511 0.90249 0.46115 0.0
C1756 C 0.13468 0.89725 0.5871 0.0
H1757 H 0.1169 0.91675 0.68122 0.0
C1758 C 0.15023 0.89037 0.60704 0.0
C1759 C 0.12262 0.90704 0.61408 0.0
C1760 C 0.10551 0.91435 0.59453 0.0
C1761 C 0.15406 0.89303 0.65328 0.0
C1762 C 0.14174 0.90239 0.68066 0.0
C1763 C 0.12633 0.90954 0.66041 0.0
C1764 C 0.14439 0.90471 0.73044 0.0
C1765 C 0.17141 0.88599 0.67209 0.0
C1766 C 0.14657 0.88986 0.75881 0.0
C1767 C 0.14898 0.89207 0.80555 0.0
C1768 C 0.14905 0.90921 0.82524 0.0
C1769 C 0.14649 0.92403 0.79677 0.0
C1770 C 0.14418 0.9218 0.75 0.0
H1771 H 0.18152 0.88437 0.6451 0.0
H1772 H 0.17691 0.89499 0.69865 0.0
H1773 H 0.16911 0.8727 0.68732 0.0
H1774 H 0.14632 0.87649 0.74484 0.0
H1775 H 0.15105 0.88033 0.82613 0.0
H1776 H 0.90709 0.65463 0.78979 0.0
H1777 H 0.90055 0.64479 0.71236 0.0
H1778 H 0.84582 0.63555 0.74856 0.0
H1779 H 0.85232 0.64544 0.82648 0.0
H1780 H 0.884 0.61124 0.67783 0.0
H1781 H 0.84502 0.67274 0.64113 0.0
H1782 H 0.86046 0.67136 0.68815 0.0
H1783 H 0.83927 0.66039 0.69106 0.0
C1784 C 0.89369 0.65032 0.78139 0.0
C1785 C 0.88018 0.65092 0.81412 0.0
C1786 C 0.88999 0.64467 0.73717 0.0
C1787 C 0.87266 0.63967 0.72453 0.0
C1788 C 0.85926 0.63953 0.75752 0.0
H1789 H 0.82852 0.62172 0.45339 0.0
H1790 H 0.83253 0.62604 0.53482 0.0
C1791 C 0.863 0.64504 0.80206 0.0
C1792 C 0.86862 0.63543 0.67632 0.0
H1793 H 0.84831 0.65213 0.58169 0.0
C1794 C 0.87611 0.62011 0.6568 0.0
C1795 C 0.85833 0.64702 0.64899 0.0
C1796 C 0.85035 0.66388 0.66806 0.0
C1797 C 0.87354 0.61602 0.61067 0.0
C1798 C 0.86365 0.62788 0.58293 0.0
C1799 C 0.85593 0.64306 0.60276 0.0
C1800 C 0.86131 0.62494 0.53323 0.0
C1801 C 0.88123 0.59889 0.59239 0.0
C1802 C 0.87614 0.62315 0.5048 0.0
C1803 C 0.87389 0.62042 0.45817 0.0
C1804 C 0.85673 0.61966 0.43862 0.0
C1805 C 0.84192 0.62187 0.46713 0.0
C1806 C 0.84419 0.62448 0.51379 0.0
H1807 H 0.8833 0.58893 0.61968 0.0
H1808 H 0.87244 0.59294 0.566 0.0
H1809 H 0.89439 0.60167 0.57708 0.0
H1810 H 0.88951 0.62393 0.51864 0.0
H1811 H 0.88563 0.61864 0.43759 0.0
H1812 H 0.17885 0.13495 0.5662 0.0
H1813 H 0.1722 0.1389 0.48561 0.0
H1814 H 0.12224 0.11142 0.50225 0.0
H1815 H 0.12875 0.10752 0.58282 0.0
H1816 H 0.16676 0.11368 0.42028 0.0
H1817 H 0.10648 0.15586 0.43596 0.0
H1818 H 0.12132 0.15168 0.48305 0.0
H1819 H 0.10497 0.13531 0.46659 0.0
C1820 C 0.16643 0.12977 0.55271 0.0
C1821 C 0.15429 0.121 0.58103 0.0
C1822 C 0.16262 0.13209 0.50666 0.0
C1823 C 0.14659 0.12572 0.48795 0.0
C1824 C 0.13448 0.11687 0.51608 0.0
H1825 H 0.10174 0.11814 0.21723 0.0
H1826 H 0.10854 0.11565 0.29803 0.0
C1827 C 0.13824 0.11463 0.56217 0.0
C1828 C 0.14286 0.12772 0.43872 0.0
H1829 H 0.11253 0.1441 0.36267 0.0
C1830 C 0.15497 0.12045 0.40769 0.0
C1831 C 0.12746 0.13655 0.42226 0.0
C1832 C 0.11439 0.14545 0.45366 0.0
C1833 C 0.15192 0.12142 0.36077 0.0
C1834 C 0.13645 0.13007 0.3444 0.0
C1835 C 0.12436 0.13741 0.37534 0.0
C1836 C 0.1325 0.13158 0.29524 0.0
C1837 C 0.16508 0.11282 0.32908 0.0
C1838 C 0.14363 0.14152 0.26691 0.0
C1839 C 0.13971 0.1431 0.22071 0.0
C1840 C 0.12453 0.13482 0.2019 0.0
C1841 C 0.1134 0.1249 0.23055 0.0
C1842 C 0.11731 0.12337 0.27674 0.0
H1843 H 0.17403 0.10335 0.347 0.0
H1844 H 0.15806 0.10558 0.30137 0.0
H1845 H 0.17344 0.12331 0.31357 0.0
H1846 H 0.15524 0.14824 0.28065 0.0
H1847 H 0.1484 0.15111 0.19992 0.0
H1848 H 0.64721 0.43639 0.31394 0.0
H1849 H 0.642 0.4324 0.23266 0.0
H1850 H 0.64558 0.37543 0.24837 0.0
H1851 H 0.65127 0.37923 0.32943 0.0
H1852 H 0.66441 0.41326 0.16618 0.0
H1853 H 0.59654 0.38467 0.18405 0.0
H1854 H 0.60732 0.39725 0.22873 0.0
H1855 H 0.61366 0.37454 0.21818 0.0
C1856 C 0.64708 0.42299 0.30017 0.0
C1857 C 0.64961 0.40812 0.32855 0.0
C1858 C 0.64402 0.42075 0.25365 0.0
C1859 C 0.64326 0.40362 0.23453 0.0
C1860 C 0.64587 0.38876 0.26254 0.0
H1861 H 0.61582 0.35981 0.97226 0.0
H1862 H 0.62571 0.36486 0.05028 0.0
C1863 C 0.64903 0.39098 0.30899 0.0
C1864 C 0.63959 0.40124 0.18537 0.0
H1865 H 0.60884 0.38458 0.1108 0.0
C1866 C 0.65225 0.40705 0.15393 0.0
C1867 C 0.62372 0.39313 0.16955 0.0
C1868 C 0.60942 0.38714 0.20174 0.0
C1869 C 0.64968 0.40452 0.10706 0.0
C1870 C 0.63379 0.39636 0.09118 0.0
C1871 C 0.62106 0.39076 0.1228 0.0
C1872 C 0.62999 0.39321 0.04215 0.0
C1873 C 0.66423 0.41013 0.0752 0.0
C1874 C 0.62948 0.40736 0.011 0.0
C1875 C 0.62407 0.40441 0.966 0.0
C1876 C 0.61875 0.38732 0.95168 0.0
C1877 C 0.61981 0.37312 0.98246 0.0
C1878 C 0.62541 0.37601 0.02709 0.0
H1879 H 0.67731 0.41118 0.09287 0.0
H1880 H 0.66553 0.40057 0.04662 0.0
H1881 H 0.66097 0.42343 0.06113 0.0
H1882 H 0.63255 0.42082 0.02187 0.0
H1883 H 0.62314 0.41562 0.94311 0.0
H1884 H 0.39079 0.90397 0.07668 0.0
H1885 H 0.39606 0.89975 0.99563 0.0
H1886 H 0.34237 0.88032 0.97834 0.0
H1887 H 0.33692 0.88493 0.05912 0.0
H1888 H 0.39563 0.87099 0.94269 0.0
H1889 H 0.34346 0.91753 0.88168 0.0
H1890 H 0.35008 0.91638 0.94039 0.0
H1891 H 0.33478 0.90025 0.91702 0.0
C1892 C 0.38013 0.89875 0.0556 0.0
C1893 C 0.36339 0.89492 0.07428 0.0
C1894 C 0.38313 0.89639 1.00922 0.0
C1895 C 0.36951 0.89008 0.98049 0.0
C1896 C 0.35294 0.88575 0.99936 0.0
H1897 H 0.36985 0.85961 0.69399 0.0
H1898 H 0.3625 0.86319 0.77424 0.0
C1899 C 0.34986 0.8883 0.04563 0.0
C1900 C 0.37278 0.88778 0.93105 0.0
H1901 H 0.35748 0.89953 0.82585 0.0
C1902 C 0.3873 0.87729 0.91724 0.0
C1903 C 0.36196 0.89603 0.89759 0.0
C1904 C 0.34681 0.90832 0.90985 0.0
C1905 C 0.39118 0.87474 0.87118 0.0
C1906 C 0.38029 0.88286 0.83795 0.0
C1907 C 0.36572 0.89322 0.8515 0.0
C1908 C 0.38428 0.8812 0.78896 0.0
C1909 C 0.40688 0.86332 0.85815 0.0
C1910 C 0.39874 0.89041 0.77053 0.0
C1911 C 0.40284 0.8886 0.72463 0.0
C1912 C 0.39263 0.87743 0.69607 0.0
C1913 C 0.37792 0.86846 0.71465 0.0
C1914 C 0.37375 0.87039 0.76061 0.0
H1915 H 0.41233 0.85576 0.8874 0.0
H1916 H 0.40301 0.85376 0.83104 0.0
H1917 H 0.4176 0.87196 0.84467 0.0
H1918 H 0.40688 0.899 0.79175 0.0
H1919 H 0.414 0.89606 0.71153 0.0
H1920 H 0.16083 0.68162 0.2061 0.0
H1921 H 0.16172 0.71432 0.21268 0.0
H1922 H 0.11072 0.71758 0.14513 0.0
H1923 H 0.10961 0.68506 0.13988 0.0
H1924 H 0.16235 0.7393 0.14805 0.0
H1925 H 0.10184 0.75017 0.24976 0.0
H1926 H 0.11156 0.72837 0.24236 0.0
H1927 H 0.09706 0.73754 0.19951 0.0
C1928 C 0.14965 0.68934 0.19363 0.0
C1929 C 0.13513 0.68078 0.17254 0.0
C1930 C 0.15022 0.70805 0.19704 0.0
C1931 C 0.13615 0.71857 0.18006 0.0
C1932 C 0.12154 0.70991 0.15965 0.0
H1933 H 0.11225 0.82937 0.12843 0.0
H1934 H 0.11329 0.79692 0.13591 0.0
C1935 C 0.12099 0.69128 0.15623 0.0
C1936 C 0.13703 0.73855 0.1817 0.0
H1937 H 0.1133 0.77575 0.21132 0.0
C1938 C 0.15171 0.74725 0.16242 0.0
C1939 C 0.12323 0.74908 0.20054 0.0
C1940 C 0.10764 0.74081 0.22463 0.0
C1941 C 0.15264 0.76601 0.1599 0.0
C1942 C 0.13854 0.77652 0.17738 0.0
C1943 C 0.12406 0.76781 0.19753 0.0
C1944 C 0.13813 0.79645 0.17352 0.0
C1945 C 0.1685 0.77436 0.13725 0.0
C1946 C 0.15157 0.80724 0.19275 0.0
C1947 C 0.15101 0.82591 0.18825 0.0
C1948 C 0.13702 0.83418 0.16433 0.0
C1949 C 0.12338 0.82341 0.14628 0.0
C1950 C 0.12391 0.80482 0.1508 0.0
H1951 H 0.17535 0.76479 0.11445 0.0
H1952 H 0.16451 0.7862 0.11736 0.0
H1953 H 0.17819 0.77872 0.16357 0.0
H1954 H 0.16251 0.80124 0.21125 0.0
H1955 H 0.16172 0.83384 0.20262 0.0
H1956 H 0.58009 0.86287 0.38237 0.0
H1957 H 0.54764 0.86343 0.38966 0.0
H1958 H 0.55121 0.91313 0.46293 0.0
H1959 H 0.58378 0.9128 0.45455 0.0
H1960 H 0.52639 0.86338 0.46462 0.0
H1961 H 0.51435 0.92512 0.36649 0.0
H1962 H 0.53587 0.9145 0.3693 0.0
H1963 H 0.52844 0.92825 0.41528 0.0
C1964 C 0.57397 0.87399 0.39975 0.0
C1965 C 0.58456 0.8879 0.4173 0.0
C1966 C 0.55537 0.87426 0.40414 0.0
C1967 C 0.54676 0.88846 0.42623 0.0
C1968 C 0.55737 0.90218 0.44488 0.0
H1969 H 0.43142 0.90988 0.45688 0.0
H1970 H 0.46408 0.91115 0.46471 0.0
C1971 C 0.57604 0.90189 0.44052 0.0
C1972 C 0.52678 0.88859 0.43012 0.0
H1973 H 0.48917 0.9119 0.40077 0.0
C1974 C 0.51829 0.87403 0.45067 0.0
C1975 C 0.51603 0.90253 0.4125 0.0
C1976 C 0.52408 0.91843 0.38929 0.0
C1977 C 0.49957 0.87299 0.45397 0.0
C1978 C 0.48879 0.88663 0.43499 0.0
C1979 C 0.49728 0.90139 0.4153 0.0
C1980 C 0.4688 0.88546 0.43331 0.0
C1981 C 0.4916 0.85734 0.47853 0.0
C1982 C 0.46036 0.87062 0.41335 0.0
C1983 C 0.44176 0.86985 0.40921 0.0
C1984 C 0.43102 0.88399 0.42436 0.0
C1985 C 0.43932 0.89869 0.44531 0.0
C1986 C 0.45802 0.89948 0.4494 0.0
H1987 H 0.50107 0.85181 0.50391 0.0
H1988 H 0.47911 0.86111 0.49607 0.0
H1989 H 0.48852 0.8466 0.45377 0.0
H1990 H 0.46818 0.85981 0.39947 0.0
H1991 H 0.43577 0.85834 0.39293 0.0
H1992 H 0.35239 0.33208 0.67815 0.0
H1993 H 0.35387 0.29959 0.68383 0.0
H1994 H 0.41121 0.30234 0.68969 0.0
H1995 H 0.40969 0.33501 0.68466 0.0
H1996 H 0.3679 0.27689 0.62532 0.0
H1997 H 0.40192 0.26728 0.7902 0.0
H1998 H 0.39275 0.28849 0.77313 0.0
H1999 H 0.4141 0.28138 0.75247 0.0
C2000 C 0.36532 0.32578 0.68142 0.0
C2001 C 0.38092 0.33614 0.68098 0.0
C2002 C 0.36616 0.30716 0.68464 0.0
C2003 C 0.38264 0.29832 0.68772 0.0
C2004 C 0.39828 0.30871 0.68845 0.0
H2005 H 0.4018 0.1891 0.60413 0.0
H2006 H 0.40149 0.22131 0.61584 0.0
C2007 C 0.39743 0.32743 0.68551 0.0
C2008 C 0.38332 0.2783 0.68686 0.0
H2009 H 0.39925 0.24151 0.7427 0.0
C2010 C 0.37476 0.26925 0.65108 0.0
C2011 C 0.39197 0.26807 0.72085 0.0
C2012 C 0.40055 0.27677 0.76159 0.0
C2013 C 0.37497 0.25052 0.64762 0.0
C2014 C 0.38415 0.24034 0.68061 0.0
C2015 C 0.39235 0.24927 0.71713 0.0
C2016 C 0.38563 0.22048 0.67658 0.0
C2017 C 0.36514 0.24175 0.60878 0.0
C2018 C 0.37738 0.20905 0.70777 0.0
C2019 C 0.37752 0.19042 0.70113 0.0
C2020 C 0.38595 0.18288 0.66316 0.0
C2021 C 0.39493 0.19437 0.63338 0.0
C2022 C 0.39475 0.21287 0.63997 0.0
H2023 H 0.35543 0.25095 0.59259 0.0
H2024 H 0.37485 0.23752 0.58271 0.0
H2025 H 0.35794 0.22971 0.62049 0.0
H2026 H 0.37032 0.21456 0.73643 0.0
H2027 H 0.37051 0.18202 0.72481 0.0
H2028 H 0.93867 0.15692 0.85816 0.0
H2029 H 0.97105 0.15771 0.86802 0.0
H2030 H 0.9673 0.11921 0.97547 0.0
H2031 H 0.93478 0.11856 0.96612 0.0
H2032 H 0.99256 0.14564 0.99435 0.0
H2033 H 1.00289 0.1179 0.8223 0.0
H2034 H 0.99034 0.13826 0.82264 0.0
H2035 H 0.98127 0.11861 0.84842 0.0
C2036 C 0.94471 0.14873 0.88419 0.0
C2037 C 0.9341 0.13757 0.9111 0.0
C2038 C 0.96327 0.14912 0.88964 0.0
C2039 C 0.97177 0.13823 0.92183 0.0
C2040 C 0.96114 0.12768 0.95021 0.0
H2041 H 0.08162 0.10315 0.91273 0.0
H2042 H 0.04928 0.10598 0.9167 0.0
C2043 C 0.94251 0.12735 0.94492 0.0
C2044 C 0.9917 0.13733 0.92455 0.0
H2045 H 0.02863 0.12737 0.86225 0.0
C2046 C 1.00045 0.14163 0.96545 0.0
C2047 C 1.00211 0.13193 0.88705 0.0
C2048 C 0.9937 0.12624 0.84274 0.0
C2049 C 0.0192 0.14085 0.96962 0.0
C2050 C 0.02956 0.13575 0.93183 0.0
C2051 C 0.02078 0.13138 0.89114 0.0
C2052 C 0.04943 0.13404 0.9338 0.0
C2053 C 0.02775 0.14508 0.01472 0.0
C2054 C 0.06051 0.14882 0.94266 0.0
C2055 C 0.07917 0.14723 0.9403 0.0
C2056 C 0.0871 0.13086 0.92862 0.0
C2057 C 0.07598 0.116 0.92141 0.0
C2058 C 0.05744 0.11759 0.92371 0.0
H2059 H 0.01794 0.1448 0.04268 0.0
H2060 H 0.03861 0.13549 0.02248 0.0
H2061 H 0.03364 0.15863 0.0135 0.0
H2062 H 0.05473 0.16175 0.94977 0.0
H2063 H 0.08733 0.15897 0.9456 0.0
H2064 H 0.12653 0.32787 0.93234 0.0
H2065 H 0.12623 0.29569 0.92086 0.0
H2066 H 0.14587 0.30254 0.78541 0.0
H2067 H 0.14612 0.33511 0.79645 0.0
H2068 H 0.10725 0.27576 0.84756 0.0
H2069 H 0.18071 0.26545 0.84945 0.0
H2070 H 0.17057 0.285 0.8742 0.0
H2071 H 0.17165 0.28273 0.81387 0.0
C2072 C 0.13082 0.32267 0.89995 0.0
C2073 C 0.1364 0.33425 0.86534 0.0
C2074 C 0.13061 0.30417 0.89348 0.0
C2075 C 0.13616 0.2966 0.85246 0.0
C2076 C 0.14168 0.30803 0.81757 0.0
H2077 H 0.1495 0.18052 0.80283 0.0
H2078 H 0.14931 0.21303 0.7915 0.0
C2079 C 0.14174 0.32667 0.82387 0.0
C2080 C 0.13587 0.27676 0.84675 0.0
H2081 H 0.16271 0.23985 0.84473 0.0
C2082 C 0.11938 0.26792 0.84648 0.0
C2083 C 0.15166 0.26648 0.84502 0.0
C2084 C 0.16972 0.27527 0.84583 0.0
C2085 C 0.11825 0.24917 0.84532 0.0
C2086 C 0.13406 0.2388 0.84584 0.0
C2087 C 0.15057 0.24767 0.84448 0.0
C2088 C 0.13371 0.21889 0.85108 0.0
C2089 C 0.10005 0.24068 0.84346 0.0
C2090 C 0.1251 0.21122 0.88829 0.0
C2091 C 0.12508 0.19273 0.89456 0.0
C2092 C 0.13395 0.18128 0.86428 0.0
C2093 C 0.14248 0.18889 0.82671 0.0
C2094 C 0.14245 0.20751 0.82036 0.0
H2095 H 0.09013 0.2497 0.82739 0.0
H2096 H 0.10024 0.2279 0.82435 0.0
H2097 H 0.09551 0.23797 0.87843 0.0
H2098 H 0.11861 0.21957 0.91318 0.0
H2099 H 0.11831 0.18742 0.92382 0.0
H2100 H 0.0838 0.89566 0.04406 0.0
H2101 H 0.05116 0.89653 0.03617 0.0
H2102 H 0.04595 0.87491 0.17036 0.0
H2103 H 0.07818 0.87449 0.17895 0.0
H2104 H 0.02464 0.87193 0.03829 0.0
H2105 H 0.01528 0.91825 0.18202 0.0
H2106 H 0.03695 0.9136 0.15883 0.0
H2107 H 0.02706 0.89856 0.19888 0.0
C2108 C 0.0757 0.8911 0.07188 0.0
C2109 C 0.08378 0.88525 0.11237 0.0
C2110 C 0.05698 0.89158 0.06733 0.0
C2111 C 0.04589 0.88621 0.10311 0.0
C2112 C 0.05401 0.8797 0.14272 0.0
H2113 H 0.93132 0.86062 0.09099 0.0
H2114 H 0.96396 0.85956 0.08687 0.0
C2115 C 0.0726 0.87937 0.14745 0.0
C2116 C 0.02592 0.88746 0.09964 0.0
H2117 H 0.98928 0.90347 0.15478 0.0
C2118 C 0.01692 0.87891 0.06367 0.0
C2119 C 0.01566 0.89682 0.13213 0.0
C2120 C 0.02424 0.90749 0.16983 0.0
C2121 C 0.99811 0.87909 0.06001 0.0
C2122 C 0.98783 0.88769 0.09385 0.0
C2123 C 0.99691 0.89658 0.12913 0.0
C2124 C 0.96775 0.88812 0.09323 0.0
C2125 C 0.98954 0.8704 0.01922 0.0
C2126 C 0.9587 0.90439 0.09897 0.0
C2127 C 0.94008 0.90494 0.10213 0.0
C2128 C 0.92986 0.88925 0.09935 0.0
C2129 C 0.93876 0.87299 0.09236 0.0
C2130 C 0.95749 0.8724 0.08988 0.0
H2131 H 0.9989 0.86969 0.9903 0.0
H2132 H 0.98568 0.85655 0.02788 0.0
H2133 H 0.97743 0.87773 1.00822 0.0
H2134 H 0.96608 0.91676 0.10182 0.0
H2135 H 0.93368 0.9177 0.10767 0.0
H2136 H 0.35757 0.67937 0.31237 0.0
H2137 H 0.35603 0.71204 0.30601 0.0
H2138 H 0.40888 0.71624 0.36311 0.0
H2139 H 0.41047 0.68374 0.36896 0.0
H2140 H 0.35762 0.73657 0.37478 0.0
H2141 H 0.41261 0.74947 0.2558 0.0
H2142 H 0.40327 0.72753 0.26368 0.0
H2143 H 0.41952 0.73616 0.30311 0.0
C2144 C 0.36899 0.68729 0.32252 0.0
C2145 C 0.38416 0.67902 0.3411 0.0
C2146 C 0.36807 0.70596 0.3192 0.0
C2147 C 0.38243 0.71672 0.33352 0.0
C2148 C 0.39777 0.70835 0.35083 0.0
H2149 H 0.38297 0.82477 0.43336 0.0
H2150 H 0.3825 0.7927 0.42091 0.0
C2151 C 0.39862 0.68974 0.35448 0.0
C2152 C 0.38105 0.73665 0.33325 0.0
H2153 H 0.40236 0.77459 0.29888 0.0
C2154 C 0.36733 0.74485 0.35782 0.0
C2155 C 0.39351 0.7476 0.3106 0.0
C2156 C 0.40795 0.73975 0.28142 0.0
C2157 C 0.36615 0.76354 0.3619 0.0
C2158 C 0.37918 0.77447 0.34131 0.0
C2159 C 0.39247 0.7663 0.31514 0.0
C2160 C 0.37963 0.79427 0.34816 0.0
C2161 C 0.35091 0.7714 0.38833 0.0
C2162 C 0.37875 0.80609 0.3113 0.0
C2163 C 0.37909 0.82467 0.31828 0.0
C2164 C 0.38049 0.83186 0.3623 0.0
C2165 C 0.38172 0.81991 0.39893 0.0
C2166 C 0.38134 0.80144 0.39193 0.0
H2167 H 0.33944 0.76206 0.3898 0.0
H2168 H 0.35539 0.77406 0.42358 0.0
H2169 H 0.34631 0.78415 0.37328 0.0
H2170 H 0.37758 0.80094 0.27711 0.0
H2171 H 0.3782 0.83338 0.28919 0.0
H2172 H 0.58522 0.12004 0.54354 0.0
H2173 H 0.5527 0.12051 0.53414 0.0
H2174 H 0.54793 0.14986 0.6593 0.0
H2175 H 0.5801 0.1488 0.66965 0.0
H2176 H 0.5256 0.12413 0.65972 0.0
H2177 H 0.5178 0.15746 0.49395 0.0
H2178 H 0.53138 0.13781 0.49108 0.0
H2179 H 0.53882 0.1567 0.52386 0.0
C2180 C 0.57723 0.12675 0.56879 0.0
C2181 C 0.58535 0.1343 0.60746 0.0
C2182 C 0.55859 0.12714 0.5632 0.0
C2183 C 0.54767 0.13544 0.59567 0.0
C2184 C 0.55589 0.14334 0.63366 0.0
H2185 H 0.43285 0.15926 0.57788 0.0
H2186 H 0.46555 0.16036 0.57242 0.0
C2187 C 0.57439 0.14271 0.63958 0.0
C2188 C 0.52769 0.13487 0.59252 0.0
H2189 H 0.4916 0.14437 0.52492 0.0
C2190 C 0.51825 0.12864 0.63016 0.0
C2191 C 0.51786 0.14092 0.55433 0.0
C2192 C 0.52696 0.14877 0.51369 0.0
C2193 C 0.49954 0.1283 0.63092 0.0
C2194 C 0.48964 0.13366 0.59219 0.0
C2195 C 0.49903 0.14004 0.5545 0.0
C2196 C 0.46963 0.13272 0.59078 0.0
C2197 C 0.49061 0.12278 0.67415 0.0
C2198 C 0.46083 0.11673 0.60121 0.0
C2199 C 0.44226 0.11618 0.60503 0.0
C2200 C 0.43184 0.13148 0.59728 0.0
C2201 C 0.44047 0.14723 0.58392 0.0
C2202 C 0.4592 0.14786 0.58089 0.0
H2203 H 0.49944 0.12485 0.70407 0.0
H2204 H 0.4782 0.13046 0.67938 0.0
H2205 H 0.48729 0.10838 0.67235 0.0
H2206 H 0.46836 0.10468 0.60751 0.0
H2207 H 0.43606 0.10376 0.61485 0.0
H2208 H 0.90983 0.18318 0.83538 0.0
H2209 H 0.91116 0.21588 0.83038 0.0
H2210 H 0.85567 0.21903 0.86619 0.0
H2211 H 0.85439 0.18662 0.87192 0.0
H2212 H 0.8939 0.24152 0.78078 0.0
H2213 H 0.87776 0.25032 0.96194 0.0
H2214 H 0.88383 0.2291 0.93777 0.0
H2215 H 0.86138 0.23736 0.93203 0.0
C2216 C 0.8979 0.19087 0.84181 0.0
C2217 C 0.88208 0.1823 0.85476 0.0
C2218 C 0.89867 0.20958 0.839 0.0
C2219 C 0.88363 0.22006 0.84891 0.0
C2220 C 0.86762 0.21139 0.85967 0.0
H2221 H 0.86968 0.33496 0.79757 0.0
H2222 H 0.87019 0.30236 0.79014 0.0
C2223 C 0.8669 0.19279 0.86286 0.0
C2224 C 0.88467 0.24001 0.84947 0.0
H2225 H 0.87677 0.2763 0.91671 0.0
C2226 C 0.89024 0.24914 0.81056 0.0
C2227 C 0.88023 0.25006 0.88848 0.0
C2228 C 0.87563 0.24124 0.93261 0.0
C2229 C 0.89117 0.26795 0.80946 0.0
C2230 C 0.88597 0.27798 0.84798 0.0
C2231 C 0.88061 0.26877 0.88691 0.0
C2232 C 0.8865 0.29795 0.84986 0.0
C2233 C 0.89816 0.2768 0.76743 0.0
C2234 C 0.8952 0.30652 0.88619 0.0
C2235 C 0.89456 0.32507 0.89103 0.0
C2236 C 0.88535 0.33566 0.8594 0.0
C2237 C 0.87704 0.32721 0.82227 0.0
C2238 C 0.87743 0.30854 0.81784 0.0
H2239 H 0.90649 0.26752 0.7472 0.0
H2240 H 0.88676 0.281 0.74587 0.0
H2241 H 0.90621 0.28877 0.77599 0.0
H2242 H 0.90232 0.2988 0.9114 0.0
H2243 H 0.90122 0.3311 0.91989 0.0
H2244 H 0.64897 0.83571 0.29897 0.0
H2245 H 0.64921 0.80311 0.28873 0.0
H2246 H 0.62744 0.79655 0.4221 0.0
H2247 H 0.62727 0.82877 0.43287 0.0
H2248 H 0.66658 0.77544 0.35354 0.0
H2249 H 0.59345 0.76828 0.33042 0.0
H2250 H 0.60505 0.78892 0.31954 0.0
H2251 H 0.60061 0.78228 0.37666 0.0
C2252 C 0.64421 0.82734 0.3261 0.0
C2253 C 0.63808 0.83503 0.36673 0.0
C2254 C 0.6444 0.80868 0.32023 0.0
C2255 C 0.63823 0.79734 0.35454 0.0
C2256 C 0.63214 0.80498 0.39498 0.0
H2257 H 0.61913 0.68771 0.41886 0.0
H2258 H 0.62007 0.71998 0.40966 0.0
C2259 C 0.63211 0.82351 0.40107 0.0
C2260 C 0.63807 0.7775 0.34886 0.0
H2261 H 0.60985 0.74174 0.34319 0.0
C2262 C 0.65421 0.76804 0.35058 0.0
C2263 C 0.62194 0.76783 0.34539 0.0
C2264 C 0.60424 0.77728 0.34255 0.0
C2265 C 0.6546 0.7492 0.35088 0.0
C2266 C 0.63839 0.73948 0.3482 0.0
C2267 C 0.6223 0.74904 0.34515 0.0
C2268 C 0.63766 0.71953 0.35199 0.0
C2269 C 0.6723 0.73992 0.35648 0.0
C2270 C 0.64691 0.70821 0.32204 0.0
C2271 C 0.64649 0.68955 0.3275 0.0
C2272 C 0.63678 0.68182 0.36295 0.0
C2273 C 0.62699 0.69316 0.39159 0.0
C2274 C 0.62746 0.71169 0.38627 0.0
H2275 H 0.68282 0.74916 0.369 0.0
H2276 H 0.67126 0.7286 0.38043 0.0
H2277 H 0.67659 0.73458 0.32323 0.0
H2278 H 0.6545 0.71378 0.29451 0.0
H2279 H 0.65406 0.68124 0.3046 0.0
H2280 H 0.86986 0.68403 0.22348 0.0
H2281 H 0.86862 0.71656 0.2342 0.0
H2282 H 0.88817 0.72403 0.09878 0.0
H2283 H 0.88906 0.69195 0.08746 0.0
H2284 H 0.89398 0.74312 0.23062 0.0
H2285 H 0.84399 0.75441 0.09555 0.0
H2286 H 0.84895 0.73245 0.11698 0.0
H2287 H 0.86291 0.74244 0.07471 0.0
C2288 C 0.87388 0.69262 0.196 0.0
C2289 C 0.87934 0.68525 0.15441 0.0
C2290 C 0.87316 0.71123 0.20217 0.0
C2291 C 0.87787 0.72285 0.1669 0.0
C2292 C 0.88392 0.71547 0.12607 0.0
H2293 H 0.90069 0.8315 0.11113 0.0
H2294 H 0.89877 0.7992 0.12006 0.0
C2295 C 0.88452 0.69699 0.11978 0.0
C2296 C 0.87668 0.74267 0.17217 0.0
H2297 H 0.86079 0.78011 0.11957 0.0
C2298 C 0.88647 0.75118 0.20682 0.0
C2299 C 0.86676 0.75332 0.1414 0.0
C2300 C 0.85491 0.74517 0.1054 0.0
C2301 C 0.88735 0.76995 0.20991 0.0
C2302 C 0.87822 0.78048 0.17763 0.0
C2303 C 0.86789 0.77202 0.14415 0.0
C2304 C 0.88027 0.80022 0.17568 0.0
C2305 C 0.89857 0.77852 0.24645 0.0
C2306 C 0.87068 0.81162 0.2045 0.0
C2307 C 0.87165 0.83025 0.19928 0.0
C2308 C 0.88217 0.83773 0.16496 0.0
C2309 C 0.89228 0.82621 0.13753 0.0
C2310 C 0.89123 0.80772 0.1426 0.0
H2311 H 0.90518 0.76851 0.26854 0.0
H2312 H 0.90892 0.78705 0.23087 0.0
H2313 H 0.89009 0.78726 0.2677 0.0
H2314 H 0.86208 0.80611 0.23017 0.0
H2315 H 0.8637 0.83872 0.22093 0.0
H2316 H 0.61391 0.18845 0.62563 0.0
H2317 H 0.61508 0.22087 0.63438 0.0
H2318 H 0.66388 0.21609 0.71114 0.0
H2319 H 0.66294 0.18349 0.7014 0.0
H2320 H 0.61504 0.24181 0.71164 0.0
H2321 H 0.67709 0.25265 0.61469 0.0
H2322 H 0.66601 0.23134 0.61651 0.0
H2323 H 0.67968 0.23847 0.6632 0.0
C2324 C 0.62496 0.1943 0.64413 0.0
C2325 C 0.63845 0.1834 0.6623 0.0
C2326 C 0.62557 0.21287 0.64936 0.0
C2327 C 0.6397 0.22108 0.67285 0.0
C2328 C 0.65299 0.21018 0.69213 0.0
H2329 H 0.66224 0.3362 0.7048 0.0
H2330 H 0.66336 0.30353 0.71204 0.0
C2331 C 0.65235 0.19152 0.68699 0.0
C2332 C 0.64021 0.241 0.67732 0.0
H2333 H 0.66392 0.27817 0.64794 0.0
C2334 C 0.62578 0.24973 0.69783 0.0
C2335 C 0.65428 0.25147 0.65981 0.0
C2336 C 0.6701 0.24306 0.63697 0.0
C2337 C 0.62495 0.26847 0.70106 0.0
C2338 C 0.63868 0.27897 0.68201 0.0
C2339 C 0.65334 0.27024 0.66247 0.0
C2340 C 0.6377 0.29893 0.68015 0.0
C2341 C 0.60943 0.27676 0.72551 0.0
C2342 C 0.62295 0.30738 0.65996 0.0
C2343 C 0.62225 0.32598 0.65626 0.0
C2344 C 0.6364 0.33666 0.67194 0.0
C2345 C 0.65106 0.32833 0.69282 0.0
C2346 C 0.65176 0.30964 0.69658 0.0
H2347 H 0.60381 0.26747 0.7509 0.0
H2348 H 0.61335 0.2893 0.74301 0.0
H2349 H 0.59871 0.27984 0.70068 0.0
H2350 H 0.61213 0.29957 0.64582 0.0
H2351 H 0.61077 0.33201 0.64008 0.0
H2352 H 0.93269 0.4103 0.96205 0.0
H2353 H 0.96532 0.41127 0.97181 0.0
H2354 H 0.97054 0.36691 0.87971 0.0
H2355 H 0.93825 0.3658 0.8704 0.0
H2356 H 0.99158 0.38559 0.9997 0.0
H2357 H 1.00152 0.40522 0.82109 0.0
H2358 H 0.98044 0.40733 0.8496 0.0
H2359 H 0.98743 0.38606 0.82753 0.0
C2360 C 0.94082 0.40067 0.94424 0.0
C2361 C 0.93287 0.38826 0.91446 0.0
C2362 C 0.95948 0.40125 0.94978 0.0
C2363 C 0.97052 0.38944 0.92566 0.0
C2364 C 0.96245 0.3765 0.89777 0.0
H2365 H 0.08055 0.36306 0.88371 0.0
H2366 H 0.04815 0.36469 0.89065 0.0
C2367 C 0.94393 0.37593 0.89227 0.0
C2368 C 0.99044 0.39074 0.92812 0.0
H2369 H 0.02714 0.39545 0.86124 0.0
C2370 C 0.99936 0.38795 0.96954 0.0
C2371 C 1.00072 0.39398 0.88896 0.0
C2372 C 0.99209 0.39849 0.84428 0.0
C2373 C 0.01818 0.38754 0.9722 0.0
C2374 C 0.02835 0.39004 0.93253 0.0
C2375 C 0.01941 0.39333 0.89156 0.0
C2376 C 0.04821 0.38857 0.93189 0.0
C2377 C 0.0271 0.38383 0.01704 0.0
C2378 C 0.05919 0.4014 0.95293 0.0
C2379 C 0.07784 0.40061 0.94846 0.0
C2380 C 0.08583 0.38702 0.92262 0.0
C2381 C 0.07482 0.37389 0.90303 0.0
C2382 C 0.05627 0.37474 0.90725 0.0
H2383 H 0.01742 0.37967 0.04323 0.0
H2384 H 0.03731 0.37322 0.01317 0.0
H2385 H 0.03399 0.39606 0.0291 0.0
H2386 H 0.05332 0.41234 0.97165 0.0
H2387 H 0.08594 0.41096 0.96383 0.0
H2388 H 0.44287 0.63633 0.33122 0.0
H2389 H 0.47498 0.63687 0.34289 0.0
H2390 H 0.46801 0.62207 0.48246 0.0
H2391 H 0.43555 0.62199 0.47138 0.0
H2392 H 0.49384 0.64718 0.47462 0.0
H2393 H 0.50643 0.59378 0.34942 0.0
H2394 H 0.49458 0.61212 0.3248 0.0
H2395 H 0.48432 0.59913 0.36866 0.0
C2396 C 0.44806 0.63313 0.36451 0.0
C2397 C 0.43648 0.6289 0.40023 0.0
C2398 C 0.46654 0.63336 0.37105 0.0
C2399 C 0.47409 0.62907 0.41326 0.0
C2400 C 0.46259 0.62529 0.44942 0.0
H2401 H 0.58676 0.60057 0.42703 0.0
H2402 H 0.55431 0.6008 0.43181 0.0
C2403 C 0.444 0.62521 0.443 0.0
C2404 C 0.49393 0.62848 0.41918 0.0
H2405 H 0.53164 0.61036 0.37421 0.0
C2406 C 0.50212 0.63907 0.45278 0.0
C2407 C 0.50485 0.61765 0.39142 0.0
C2408 C 0.49709 0.60489 0.35691 0.0
C2409 C 0.52081 0.63949 0.45848 0.0
C2410 C 0.53178 0.62938 0.42902 0.0
C2411 C 0.52348 0.61844 0.39633 0.0
C2412 C 0.55179 0.62958 0.43148 0.0
C2413 C 0.52851 0.65043 0.49684 0.0
C2414 C 0.56154 0.64564 0.43057 0.0
C2415 C 0.58027 0.6455 0.42917 0.0
C2416 C 0.58962 0.62929 0.42729 0.0
C2417 C 0.57993 0.61328 0.42884 0.0
C2418 C 0.56131 0.61342 0.43126 0.0
H2419 H 0.5187 0.65222 0.52448 0.0
H2420 H 0.54068 0.64415 0.51117 0.0
H2421 H 0.53201 0.66387 0.48411 0.0
H2422 H 0.5547 0.65832 0.42912 0.0
H2423 H 0.58737 0.65803 0.42688 0.0
H2424 H 0.43749 0.36729 0.66898 0.0
H2425 H 0.46968 0.36914 0.65874 0.0
H2426 H 0.46202 0.40573 0.54832 0.0
H2427 H 0.4295 0.40422 0.55896 0.0
H2428 H 0.49 0.37137 0.5434 0.0
H2429 H 0.49757 0.42055 0.6836 0.0
H2430 H 0.48286 0.40193 0.6925 0.0
H2431 H 0.47718 0.41844 0.65111 0.0
C2432 C 0.44257 0.37576 0.64243 0.0
C2433 C 0.43084 0.38586 0.61531 0.0
C2434 C 0.46103 0.37673 0.63652 0.0
C2435 C 0.46833 0.38765 0.60299 0.0
C2436 C 0.4567 0.39723 0.57449 0.0
H2437 H 0.58442 0.39593 0.54364 0.0
H2438 H 0.55185 0.39694 0.53428 0.0
C2439 C 0.43811 0.39633 0.58056 0.0
C2440 C 0.48811 0.38949 0.59969 0.0
H2441 H 0.52393 0.40774 0.6549 0.0
C2442 C 0.49746 0.37951 0.56729 0.0
C2443 C 0.49783 0.39997 0.6311 0.0
C2444 C 0.48844 0.41096 0.66651 0.0
C2445 C 0.5163 0.37923 0.56662 0.0
C2446 C 0.52609 0.3895 0.5987 0.0
C2447 C 0.51659 0.39987 0.6302 0.0
C2448 C 0.54605 0.38872 0.60284 0.0
C2449 C 0.5255 0.36725 0.533 0.0
C2450 C 0.55385 0.38412 0.64452 0.0
C2451 C 0.57237 0.38376 0.65007 0.0
C2452 C 0.58384 0.38798 0.61406 0.0
C2453 C 0.57608 0.39248 0.57206 0.0
C2454 C 0.5574 0.39296 0.5666 0.0
H2455 H 0.51628 0.35713 0.51844 0.0
H2456 H 0.53065 0.37544 0.50477 0.0
H2457 H 0.53694 0.36025 0.54901 0.0
H2458 H 0.54555 0.38077 0.6731 0.0
H2459 H 0.57766 0.38016 0.68298 0.0
H2460 H 0.08521 0.63127 0.04078 0.0
H2461 H 0.05279 0.63134 0.02834 0.0
H2462 H 0.04456 0.62653 0.17194 0.0
H2463 H 0.07658 0.6265 0.18478 0.0
H2464 H 0.02355 0.60267 0.11858 0.0
H2465 H 0.01791 0.67275 0.05928 0.0
H2466 H 0.03373 0.65875 0.03059 0.0
H2467 H 0.03738 0.66459 0.08886 0.0
C2468 C 0.07651 0.63024 0.06974 0.0
C2469 C 0.08369 0.62892 0.11382 0.0
C2470 C 0.05795 0.63036 0.06256 0.0
C2471 C 0.04616 0.62909 0.09926 0.0
C2472 C 0.05331 0.62754 0.14306 0.0
H2473 H 0.93611 0.6566 0.13899 0.0
H2474 H 0.96852 0.6547 0.13318 0.0
C2475 C 0.07174 0.62755 0.15029 0.0
C2476 C 0.02638 0.62928 0.09279 0.0
H2477 H 0.99135 0.65624 0.06404 0.0
C2478 C 0.0165 0.61433 0.10626 0.0
C2479 C 0.01715 0.64453 0.07708 0.0
C2480 C 0.02699 0.66116 0.06335 0.0
C2481 C 0.99773 0.61429 0.10522 0.0
C2482 C 0.98843 0.62961 0.08987 0.0
C2483 C 0.99836 0.64446 0.07568 0.0
C2484 C 0.9685 0.63098 0.09123 0.0
C2485 C 0.98812 0.59799 0.1221 0.0
C2486 C 0.95745 0.61853 0.06886 0.0
C2487 C 0.93881 0.61946 0.07282 0.0
C2488 C 0.93083 0.63291 0.09908 0.0
C2489 C 0.94186 0.6458 0.11957 0.0
C2490 C 0.96043 0.64482 0.11586 0.0
H2491 H 0.99666 0.58991 0.14502 0.0
H2492 H 0.97582 0.60166 0.14036 0.0
H2493 H 0.98432 0.58949 0.09275 0.0
H2494 H 0.96323 0.60795 0.04873 0.0
H2495 H 0.93069 0.60939 0.05634 0.0
H2496 H 0.16799 0.58054 0.07146 0.0
H2497 H 0.16681 0.55169 0.03241 0.0
H2498 H 0.11165 0.54607 0.06924 0.0
H2499 H 0.1126 0.57528 0.10666 0.0
H2500 H 0.15985 0.51829 0.0633 0.0
H2501 H 0.10909 0.53625 0.93428 0.0
H2502 H 0.12022 0.55274 0.969 0.0
H2503 H 0.10191 0.54013 0.99128 0.0
C2504 C 0.15554 0.57326 0.07082 0.0
C2505 C 0.14034 0.58037 0.0919 0.0
C2506 C 0.15491 0.55667 0.04866 0.0
C2507 C 0.13905 0.54671 0.04689 0.0
C2508 C 0.12395 0.55359 0.06897 0.0
H2509 H 0.115 0.4372 0.97638 0.0
H2510 H 0.11619 0.46771 1.006 0.0
C2511 C 0.12457 0.57023 0.09101 0.0
C2512 C 0.13847 0.52903 0.02286 0.0
H2513 H 0.11652 0.50538 0.93992 0.0
C2514 C 0.15047 0.51557 0.03607 0.0
C2515 C 0.12631 0.52535 0.98698 0.0
C2516 C 0.11377 0.53942 0.96916 0.0
C2517 C 0.1503 0.49858 0.01544 0.0
C2518 C 0.13787 0.49479 0.98052 0.0
C2519 C 0.12604 0.50825 0.96672 0.0
C2520 C 0.13647 0.47661 0.95979 0.0
C2521 C 0.16314 0.48452 0.03174 0.0
C2522 C 0.14726 0.47145 0.92322 0.0
C2523 C 0.14655 0.45392 0.90593 0.0
C2524 C 0.13514 0.44118 0.92517 0.0
C2525 C 0.12401 0.44661 0.96087 0.0
C2526 C 0.12466 0.46407 0.9779 0.0
H2527 H 0.17246 0.48967 0.05805 0.0
H2528 H 0.15554 0.47318 0.04604 0.0
H2529 H 0.17098 0.47933 1.00282 0.0
H2530 H 0.15649 0.48089 0.90869 0.0
H2531 H 0.15537 0.45018 0.87866 0.0
H2532 H 0.70143 0.89876 0.40707 0.0
H2533 H 0.73104 0.89792 0.37236 0.0
H2534 H 0.70721 0.88154 0.2457 0.0
H2535 H 0.67776 0.8819 0.28093 0.0
H2536 H 0.75053 0.87101 0.33017 0.0
H2537 H 0.73588 0.9249 0.20755 0.0
H2538 H 0.72149 0.92007 0.25461 0.0
H2539 H 0.7206 0.90652 0.20429 0.0
C2540 C 0.70256 0.89456 0.37223 0.0
C2541 C 0.6872 0.89027 0.34694 0.0
C2542 C 0.71951 0.89428 0.35211 0.0
C2543 C 0.72151 0.88995 0.30598 0.0
C2544 C 0.70616 0.88533 0.28098 0.0
H2545 H 0.8216 0.86348 0.16629 0.0
H2546 H 0.79166 0.86295 0.19913 0.0
C2547 C 0.68926 0.88553 0.30118 0.0
C2548 C 0.73956 0.89031 0.28405 0.0
H2549 H 0.7633 0.90952 0.19821 0.0
C2550 C 0.75328 0.87944 0.30132 0.0
C2551 C 0.74339 0.90143 0.24657 0.0
C2552 C 0.72964 0.91402 0.22735 0.0
C2553 C 0.77044 0.87917 0.2819 0.0
C2554 C 0.77413 0.88999 0.24384 0.0
C2555 C 0.76052 0.90106 0.227 0.0
C2556 C 0.79217 0.89038 0.22204 0.0
C2557 C 0.78464 0.86754 0.30284 0.0
C2558 C 0.80239 0.9061 0.22249 0.0
C2559 C 0.81953 0.90644 0.20365 0.0
C2560 C 0.82693 0.89109 0.18357 0.0
C2561 C 0.81644 0.87553 0.18171 0.0
C2562 C 0.79932 0.87517 0.20081 0.0
H2563 H 0.78091 0.863 0.33725 0.0
H2564 H 0.78661 0.85558 0.28124 0.0
H2565 H 0.79752 0.87477 0.30508 0.0
H2566 H 0.79722 0.91807 0.23825 0.0
H2567 H 0.82707 0.91873 0.20522 0.0
H2568 H 0.39371 0.45125 0.64631 0.0
H2569 H 0.39301 0.48113 0.6142 0.0
H2570 H 0.36554 0.46053 0.49646 0.0
H2571 H 0.36469 0.43119 0.53096 0.0
H2572 H 0.40605 0.49672 0.54895 0.0
H2573 H 0.33398 0.50085 0.51457 0.0
H2574 H 0.3435 0.48275 0.54641 0.0
H2575 H 0.34311 0.48209 0.48528 0.0
C2576 C 0.38687 0.45316 0.61455 0.0
C2577 C 0.37832 0.43876 0.59272 0.0
C2578 C 0.38674 0.47034 0.59556 0.0
C2579 C 0.37856 0.47359 0.55326 0.0
C2580 C 0.37107 0.45894 0.53011 0.0
H2581 H 0.40462 0.57087 0.39979 0.0
H2582 H 0.40431 0.54111 0.43272 0.0
C2583 C 0.3707 0.44194 0.54984 0.0
C2584 C 0.37841 0.49203 0.5328 0.0
H2585 H 0.35215 0.52193 0.47568 0.0
C2586 C 0.39415 0.50225 0.53343 0.0
C2587 C 0.36291 0.49975 0.51311 0.0
C2588 C 0.34491 0.49086 0.51529 0.0
C2589 C 0.3949 0.51956 0.51477 0.0
C2590 C 0.37974 0.52673 0.49218 0.0
C2591 C 0.36395 0.51659 0.49209 0.0
C2592 C 0.37969 0.54479 0.46958 0.0
C2593 C 0.41186 0.5301 0.52124 0.0
C2594 C 0.36545 0.55675 0.47614 0.0
C2595 C 0.3651 0.57344 0.45473 0.0
C2596 C 0.3792 0.57899 0.42698 0.0
C2597 C 0.39342 0.56707 0.42031 0.0
C2598 C 0.39345 0.55009 0.44032 0.0
H2599 H 0.41924 0.52571 0.55198 0.0
H2600 H 0.42069 0.52783 0.49183 0.0
H2601 H 0.40916 0.54459 0.52448 0.0
H2602 H 0.35451 0.55322 0.49805 0.0
H2603 H 0.35368 0.58198 0.45987 0.0
H2604 H 0.81976 0.10812 0.88375 0.0
H2605 H 0.79006 0.1066 0.84767 0.0
H2606 H 0.8047 0.14931 0.75805 0.0
H2607 H 0.83422 0.15041 0.79252 0.0
H2608 H 0.76267 0.12846 0.83678 0.0
H2609 H 0.78838 0.11393 0.66629 0.0
H2610 H 0.8025 0.11352 0.71591 0.0
H2611 H 0.79776 0.13427 0.68765 0.0
C2612 C 0.81655 0.11723 0.85654 0.0
C2613 C 0.82947 0.12921 0.84069 0.0
C2614 C 0.79959 0.11631 0.83572 0.0
C2615 C 0.7952 0.12743 0.79883 0.0
C2616 C 0.80783 0.14005 0.78497 0.0
H2617 H 0.68939 0.15662 0.70578 0.0
H2618 H 0.71898 0.15433 0.74018 0.0
C2619 C 0.82473 0.14078 0.80515 0.0
C2620 C 0.77748 0.1262 0.77493 0.0
H2621 H 0.75821 0.1247 0.6694 0.0
C2622 C 0.76174 0.12745 0.80021 0.0
C2623 C 0.776 0.12441 0.72714 0.0
C2624 C 0.79207 0.12125 0.69777 0.0
C2625 C 0.74481 0.12779 0.77916 0.0
C2626 C 0.74343 0.12747 0.73116 0.0
C2627 C 0.75911 0.12537 0.70601 0.0
C2628 C 0.72594 0.12961 0.70663 0.0
C2629 C 0.72855 0.12825 0.80888 0.0
C2630 C 0.72027 0.11724 0.67344 0.0
C2631 C 0.70342 0.11886 0.65253 0.0
C2632 C 0.69185 0.1328 0.66467 0.0
C2633 C 0.69793 0.14563 0.696 0.0
C2634 C 0.71479 0.14418 0.71625 0.0
H2635 H 0.73134 0.12219 0.84246 0.0
H2636 H 0.72458 0.14231 0.81475 0.0
H2637 H 0.71717 0.12106 0.79301 0.0
H2638 H 0.72862 0.10598 0.66482 0.0
H2639 H 0.69906 0.10868 0.62883 0.0
H2640 H 0.8588 0.57031 0.12844 0.0
H2641 H 0.85802 0.54057 0.09309 0.0
H2642 H 0.90509 0.55346 0.01702 0.0
H2643 H 0.90553 0.58316 0.05108 0.0
H2644 H 0.88095 0.53929 0.96252 0.0
H2645 H 0.88678 0.49634 0.11419 0.0
H2646 H 0.86825 0.51142 0.11612 0.0
H2647 H 0.89061 0.52007 0.11651 0.0
C2648 C 0.8692 0.56659 0.10498 0.0
C2649 C 0.88226 0.57905 0.0927 0.0
C2650 C 0.86875 0.54957 0.08466 0.0
C2651 C 0.88158 0.54456 0.05236 0.0
C2652 C 0.89497 0.55688 0.04151 0.0
H2653 H 0.90674 0.4381 0.9589 0.0
H2654 H 0.90575 0.46788 0.9924 0.0
C2655 C 0.89529 0.57386 0.06129 0.0
C2656 C 0.88085 0.52692 0.0282 0.0
H2657 H 0.88099 0.48177 0.04441 0.0
C2658 C 0.88096 0.52671 0.98052 0.0
C2659 C 0.881 0.51041 0.05136 0.0
C2660 C 0.88182 0.50949 0.10234 0.0
C2661 C 0.88144 0.51064 0.95559 0.0
C2662 C 0.88132 0.49413 0.97873 0.0
C2663 C 0.88099 0.49434 0.0264 0.0
C2664 C 0.88251 0.47649 0.95468 0.0
C2665 C 0.88272 0.51158 0.90471 0.0
C2666 C 0.87004 0.47131 0.92119 0.0
C2667 C 0.87082 0.45426 0.90117 0.0
C2668 C 0.88387 0.44192 0.91492 0.0
C2669 C 0.89655 0.4473 0.94748 0.0
C2670 C 0.89591 0.46433 0.96695 0.0
H2671 H 0.88763 0.52479 0.89335 0.0
H2672 H 0.89176 0.50111 0.89139 0.0
H2673 H 0.86931 0.50949 0.88964 0.0
H2674 H 0.85931 0.4802 0.91164 0.0
H2675 H 0.86065 0.45039 0.87687 0.0
H2676 H 0.19461 0.15525 0.86178 0.0
H2677 H 0.22423 0.15655 0.82745 0.0
H2678 H 0.21843 0.10223 0.78166 0.0
H2679 H 0.1891 0.10067 0.81717 0.0
H2680 H 0.25515 0.13589 0.84125 0.0
H2681 H 0.23074 0.12935 0.66481 0.0
H2682 H 0.21587 0.13292 0.71172 0.0
H2683 H 0.22434 0.11095 0.69969 0.0
C2684 C 0.19967 0.14352 0.84468 0.0
C2685 C 0.18922 0.12796 0.84151 0.0
C2686 C 0.21663 0.14431 0.82486 0.0
C2687 C 0.22352 0.12963 0.8009 0.0
C2688 C 0.21332 0.11391 0.79887 0.0
H2689 H 0.3282 0.10182 0.69957 0.0
H2690 H 0.29856 0.10305 0.7337 0.0
C2691 C 0.19648 0.11306 0.81914 0.0
C2692 C 0.24137 0.13065 0.77846 0.0
H2693 H 0.26225 0.1263 0.67608 0.0
C2694 C 0.25664 0.13394 0.80509 0.0
C2695 C 0.24348 0.12821 0.73112 0.0
C2696 C 0.22771 0.12535 0.70009 0.0
C2697 C 0.27382 0.13434 0.78597 0.0
C2698 C 0.27592 0.13137 0.73898 0.0
C2699 C 0.26068 0.12849 0.71214 0.0
C2700 C 0.2939 0.13073 0.7175 0.0
C2701 C 0.28974 0.13757 0.81624 0.0
C2702 C 0.30116 0.14584 0.69651 0.0
C2703 C 0.31829 0.14527 0.67755 0.0
C2704 C 0.32852 0.12952 0.67886 0.0
C2705 C 0.32092 0.11428 0.69868 0.0
C2706 C 0.30391 0.11492 0.71807 0.0
H2707 H 0.28583 0.14222 0.85051 0.0
H2708 H 0.29728 0.12495 0.81979 0.0
H2709 H 0.29876 0.14757 0.80098 0.0
H2710 H 0.29366 0.15817 0.69539 0.0
H2711 H 0.32365 0.15727 0.66261 0.0
H2712 H 0.63457 0.58329 0.49433 0.0
H2713 H 0.63512 0.5531 0.5236 0.0
H2714 H 0.65351 0.53353 0.39489 0.0
H2715 H 0.65313 0.56415 0.3648 0.0
H2716 H 0.62547 0.51224 0.43581 0.0
H2717 H 0.68063 0.52526 0.55698 0.0
H2718 H 0.66274 0.54106 0.56092 0.0
H2719 H 0.67571 0.53987 0.51009 0.0
C2720 C 0.63882 0.57269 0.47187 0.0
C2721 C 0.6439 0.57637 0.42695 0.0
C2722 C 0.63915 0.55532 0.48894 0.0
C2723 C 0.64461 0.54096 0.46188 0.0
C2724 C 0.64932 0.54438 0.41663 0.0
H2725 H 0.67062 0.43579 0.57382 0.0
H2726 H 0.67119 0.46469 0.53557 0.0
C2727 C 0.64907 0.56192 0.3994 0.0
C2728 C 0.64538 0.52257 0.48158 0.0
H2729 H 0.66407 0.49856 0.56818 0.0
C2730 C 0.63401 0.50921 0.4645 0.0
C2731 C 0.65662 0.51844 0.51888 0.0
C2732 C 0.66975 0.53184 0.5376 0.0
C2733 C 0.63322 0.49213 0.48449 0.0
C2734 C 0.64391 0.48829 0.52303 0.0
C2735 C 0.65567 0.50148 0.53914 0.0
C2736 C 0.64336 0.47061 0.54664 0.0
C2737 C 0.62106 0.47827 0.46386 0.0
C2738 C 0.62762 0.46427 0.56659 0.0
C2739 C 0.62726 0.44764 0.58849 0.0
C2740 C 0.64264 0.43697 0.59103 0.0
C2741 C 0.65846 0.44354 0.572 0.0
C2742 C 0.65883 0.46013 0.5502 0.0
H2743 H 0.61725 0.48167 0.42852 0.0
H2744 H 0.62748 0.46493 0.46398 0.0
H2745 H 0.60869 0.47744 0.48409 0.0
H2746 H 0.61557 0.47219 0.5653 0.0
H2747 H 0.61484 0.443 0.60261 0.0
H2748 H 0.3253 0.86138 0.35065 0.0
H2749 H 0.29576 0.86097 0.3146 0.0
H2750 H 0.30235 0.91582 0.27541 0.0
H2751 H 0.33153 0.91655 0.31336 0.0
H2752 H 0.26506 0.88582 0.33198 0.0
H2753 H 0.2894 0.88737 0.15489 0.0
H2754 H 0.30361 0.88129 0.20199 0.0
H2755 H 0.298 0.90423 0.19257 0.0
C2756 C 0.32038 0.87345 0.33501 0.0
C2757 C 0.33089 0.88899 0.33502 0.0
C2758 C 0.30351 0.87315 0.31401 0.0
C2759 C 0.29683 0.88829 0.29163 0.0
C2760 C 0.30724 0.90387 0.29181 0.0
H2761 H 0.19894 0.90725 0.13088 0.0
H2762 H 0.22916 0.90865 0.1637 0.0
C2763 C 0.32398 0.90425 0.31348 0.0
C2764 C 0.2789 0.88785 0.26882 0.0
H2765 H 0.2582 0.88874 0.16504 0.0
C2766 C 0.26356 0.88641 0.29547 0.0
C2767 C 0.27684 0.88888 0.22119 0.0
C2768 C 0.2928 0.8904 0.19076 0.0
C2769 C 0.24633 0.88613 0.27604 0.0
C2770 C 0.24421 0.88658 0.22817 0.0
C2771 C 0.25961 0.88824 0.20156 0.0
C2772 C 0.22621 0.88514 0.20538 0.0
C2773 C 0.23056 0.88589 0.30744 0.0
C2774 C 0.21454 0.87112 0.21603 0.0
C2775 C 0.19726 0.87045 0.19773 0.0
C2776 C 0.19122 0.88351 0.1672 0.0
C2777 C 0.2032 0.89693 0.15408 0.0
C2778 C 0.22048 0.89777 0.17311 0.0
H2779 H 0.23399 0.89179 0.34094 0.0
H2780 H 0.21909 0.89334 0.29306 0.0
H2781 H 0.22642 0.87189 0.31319 0.0
H2782 H 0.21868 0.86076 0.23924 0.0
H2783 H 0.18845 0.85983 0.2082 0.0
H2784 H 0.61165 0.94014 0.45759 0.0
H2785 H 0.61292 0.97052 0.48758 0.0
H2786 H 0.66249 0.97909 0.41807 0.0
H2787 H 0.66085 0.94871 0.38663 0.0
H2788 H 0.63572 0.98468 0.54398 0.0
H2789 H 0.63818 0.02463 0.38687 0.0
H2790 H 0.63294 1.00116 0.38635 0.0
H2791 H 0.65574 1.00848 0.39036 0.0
C2792 C 0.62265 0.94863 0.44792 0.0
C2793 C 0.6361 0.94203 0.41947 0.0
C2794 C 0.62342 0.96602 0.46535 0.0
C2795 C 0.63772 0.97739 0.45508 0.0
C2796 C 0.65105 0.97091 0.42583 0.0
H2797 H 0.66936 0.08181 0.56431 0.0
H2798 H 0.66833 0.05237 0.52804 0.0
C2799 C 0.65014 0.9535 0.40782 0.0
C2800 C 0.63894 0.99551 0.47707 0.0
H2801 H 0.64378 0.04018 0.45587 0.0
C2802 C 0.63737 0.99678 0.52449 0.0
C2803 C 0.64114 0.01149 0.4521 0.0
C2804 C 0.64192 0.01144 0.40109 0.0
C2805 C 0.63804 0.01333 0.54734 0.0
C2806 C 0.6403 0.02922 0.52237 0.0
C2807 C 0.64206 0.02802 0.4751 0.0
C2808 C 0.64083 0.04718 0.54477 0.0
C2809 C 0.63658 0.01371 0.59825 0.0
C2810 C 0.62571 0.05425 0.56624 0.0
C2811 C 0.62618 0.07126 0.58637 0.0
C2812 C 0.64183 0.08159 0.58587 0.0
C2813 C 0.65701 0.07435 0.56492 0.0
C2814 C 0.65647 0.05747 0.54425 0.0
H2815 H 0.63852 1.00028 0.61326 0.0
H2816 H 0.64655 0.02298 0.61325 0.0
H2817 H 0.62316 0.01856 0.60776 0.0
H2818 H 0.6134 0.04672 0.56673 0.0
H2819 H 0.61416 0.07648 0.60143 0.0
H2820 H 0.18679 0.42056 0.83172 0.0
H2821 H 0.21587 0.42067 0.79442 0.0
H2822 H 0.22058 0.36407 0.81584 0.0
H2823 H 0.19141 0.36388 0.85319 0.0
H2824 H 0.25049 0.40749 0.83224 0.0
H2825 H 0.22877 0.37302 0.67437 0.0
H2826 H 0.21347 0.38487 0.71063 0.0
H2827 H 0.22171 0.36338 0.72705 0.0
C2828 C 0.19401 0.40812 0.82852 0.0
C2829 C 0.1867 0.39219 0.84526 0.0
C2830 C 0.21066 0.40821 0.8072 0.0
C2831 C 0.22037 0.39235 0.80168 0.0
C2832 C 0.21327 0.37645 0.8191 0.0
H2833 H 0.33208 0.37699 0.74409 0.0
H2834 H 0.30205 0.37787 0.77399 0.0
C2835 C 0.19665 0.37638 0.84083 0.0
C2836 C 0.23804 0.39256 0.77844 0.0
H2837 H 0.2597 0.37842 0.68307 0.0
C2838 C 0.25249 0.40115 0.79961 0.0
C2839 C 0.24062 0.38463 0.73539 0.0
C2840 C 0.22535 0.37604 0.71011 0.0
C2841 C 0.26949 0.4016 0.77963 0.0
C2842 C 0.27232 0.393 0.73739 0.0
C2843 C 0.2577 0.38488 0.71552 0.0
C2844 C 0.29052 0.39168 0.71676 0.0
C2845 C 0.28423 0.41148 0.80397 0.0
C2846 C 0.29417 0.3984 0.67327 0.0
C2847 C 0.31158 0.39777 0.65551 0.0
C2848 C 0.32569 0.39038 0.68091 0.0
C2849 C 0.32175 0.38312 0.72366 0.0
C2850 C 0.30448 0.38367 0.74109 0.0
H2851 H 0.27886 0.42175 0.82739 0.0
H2852 H 0.29212 0.4019 0.82446 0.0
H2853 H 0.29332 0.41808 0.77972 0.0
H2854 H 0.28363 0.40451 0.65347 0.0
H2855 H 0.31405 0.40341 0.62246 0.0
H2856 H 0.86385 0.95469 0.15464 0.0
H2857 H 0.86451 0.98507 0.1234 0.0
H2858 H 0.8866 0.96458 0.99938 0.0
H2859 H 0.88655 0.9347 0.03038 0.0
H2860 H 0.90412 0.99369 0.02585 0.0
H2861 H 0.8315 1.00734 0.02994 0.0
H2862 H 0.84115 1.00167 0.0838 0.0
H2863 H 0.84061 0.98537 0.03906 0.0
C2864 C 0.86896 0.9567 0.12087 0.0
C2865 C 0.87519 0.94212 0.09532 0.0
C2866 C 0.86913 0.97407 0.10276 0.0
C2867 C 0.87539 0.9772 0.0586 0.0
C2868 C 0.88166 0.96265 0.03339 0.0
H2869 H 0.86204 0.07058 0.88305 0.0
H2870 H 0.86023 0.04109 0.91875 0.0
C2871 C 0.88156 0.94544 0.05134 0.0
C2872 C 0.87596 0.9955 0.03828 0.0
H2873 H 0.85012 0.031 1.00614 0.0
C2874 C 0.89229 1.00183 0.02172 0.0
C2875 C 0.86051 1.00611 0.03196 0.0
C2876 C 0.8424 0.99976 0.0467 0.0
C2877 C 0.89363 0.01833 0.99937 0.0
C2878 C 0.87829 0.02915 0.9941 0.0
C2879 C 0.86191 0.02281 1.01035 0.0
C2880 C 0.87913 0.04714 0.97231 0.0
C2881 C 0.91144 0.02378 0.98055 0.0
C2882 C 0.89017 0.0605 0.99056 0.0
C2883 C 0.89138 0.07722 0.96989 0.0
C2884 C 0.88149 0.08116 0.93048 0.0
C2885 C 0.87014 0.06791 0.91268 0.0
C2886 C 0.86896 0.05109 0.93338 0.0
H2887 H 0.92036 0.01212 0.97574 0.0
H2888 H 0.90985 0.0307 0.94758 0.0
H2889 H 0.91807 0.03307 1.00464 0.0
H2890 H 0.89786 0.05802 0.02103 0.0
H2891 H 0.90018 0.08709 0.98488 0.0
H2892 H 0.19833 0.6082 0.14055 0.0
H2893 H 0.22814 0.60698 0.17565 0.0
H2894 H 0.21676 0.65527 0.24971 0.0
H2895 H 0.18692 0.65605 0.21627 0.0
H2896 H 0.25676 0.62698 0.17793 0.0
H2897 H 0.23141 0.62472 0.35268 0.0
H2898 H 0.21679 0.62319 0.30421 0.0
H2899 H 0.22417 0.64462 0.32472 0.0
C2900 C 0.20233 0.61865 0.16389 0.0
C2901 C 0.19022 0.63213 0.17594 0.0
C2902 C 0.21934 0.6179 0.18425 0.0
C2903 C 0.22465 0.6307 0.21675 0.0
C2904 C 0.2129 0.64479 0.22634 0.0
H2905 H 0.3336 0.65352 0.29886 0.0
H2906 H 0.30357 0.65303 0.26668 0.0
C2907 C 0.19587 0.64537 0.20667 0.0
C2908 C 0.24241 0.62948 0.24044 0.0
H2909 H 0.26254 0.63127 0.34499 0.0
C2910 C 0.25795 0.62778 0.21448 0.0
C2911 C 0.2442 0.63014 0.28837 0.0
C2912 C 0.22823 0.63056 0.31908 0.0
C2913 C 0.27503 0.62736 0.23469 0.0
C2914 C 0.27684 0.62915 0.28237 0.0
C2915 C 0.26131 0.63019 0.30848 0.0
C2916 C 0.2947 0.63031 0.30543 0.0
C2917 C 0.29097 0.62476 0.20455 0.0
C2918 C 0.29957 0.61849 0.34042 0.0
C2919 C 0.31678 0.61902 0.35978 0.0
C2920 C 0.32946 0.63135 0.34435 0.0
C2921 C 0.32422 0.64373 0.31117 0.0
C2922 C 0.30707 0.64332 0.29229 0.0
H2923 H 0.28724 0.61782 0.17257 0.0
H2924 H 0.2965 0.63797 0.19548 0.0
H2925 H 0.30156 0.61693 0.22177 0.0
H2926 H 0.29026 0.60844 0.35168 0.0
H2927 H 0.32043 0.60925 0.38507 0.0
H2928 H 0.40145 0.9335 0.47676 0.0
H2929 H 0.40022 0.96336 0.50907 0.0
H2930 H 0.36341 0.97933 0.40408 0.0
H2931 H 0.36401 0.9489 0.37257 0.0
H2932 H 0.40898 0.99475 0.48244 0.0
H2933 H 0.3362 0.99597 0.51191 0.0
H2934 H 0.34772 0.97608 0.49418 0.0
H2935 H 0.34186 0.99292 0.4535 0.0
C2936 C 0.39308 0.94334 0.46033 0.0
C2937 C 0.38266 0.93866 0.42226 0.0
C2938 C 0.39239 0.96052 0.47895 0.0
C2939 C 0.38137 0.97371 0.46 0.0
C2940 C 0.37161 0.96936 0.42046 0.0
H2941 H 0.39385 0.08621 0.52846 0.0
H2942 H 0.39419 0.05666 0.49458 0.0
C2943 C 0.37218 0.95201 0.40191 0.0
C2944 C 0.38045 0.99185 0.48196 0.0
H2945 H 0.35194 0.02282 0.52712 0.0
C2946 C 0.39646 1.00081 0.49216 0.0
C2947 C 0.3642 0.99984 0.49573 0.0
C2948 C 0.34652 0.99065 0.48872 0.0
C2949 C 0.39671 0.01734 0.51505 0.0
C2950 C 0.38045 0.02564 0.52729 0.0
C2951 C 0.36443 0.01663 0.51763 0.0
C2952 C 0.37987 0.04384 0.54873 0.0
C2953 C 0.41452 0.02553 0.52684 0.0
C2954 C 0.37117 0.04692 0.59019 0.0
C2955 C 0.37073 0.06411 0.60974 0.0
C2956 C 0.37896 0.07863 0.58819 0.0
C2957 C 0.38747 0.07544 0.54653 0.0
C2958 C 0.38781 0.05841 0.52706 0.0
H2959 H 0.42515 0.01526 0.52888 0.0
H2960 H 0.41828 0.0351 0.50001 0.0
H2961 H 0.41404 0.03279 0.55964 0.0
H2962 H 0.36474 0.036 0.60753 0.0
H2963 H 0.3637 0.06606 0.64122 0.0
H2964 H 0.83012 0.60066 0.19398 0.0
H2965 H 0.80087 0.60138 0.23026 0.0
H2966 H 0.79421 0.65615 0.19019 0.0
H2967 H 0.82386 0.65577 0.1557 0.0
H2968 H 0.7888 0.62826 0.30222 0.0
H2969 H 0.74817 0.6273 0.14382 0.0
H2970 H 0.77079 0.61908 0.14578 0.0
H2971 H 0.76665 0.6426 0.14689 0.0
C2972 C 0.82252 0.61293 0.19321 0.0
C2973 C 0.82943 0.62819 0.17197 0.0
C2974 C 0.80574 0.61328 0.21382 0.0
C2975 C 0.79527 0.62879 0.21294 0.0
C2976 C 0.80197 0.64398 0.19111 0.0
H2977 H 0.69781 0.65483 0.36253 0.0
H2978 H 0.7277 0.6552 0.32943 0.0
C2979 C 0.81889 0.64371 0.17107 0.0
C2980 C 0.77743 0.62906 0.23519 0.0
H2981 H 0.73261 0.62938 0.21282 0.0
C2982 C 0.77651 0.62859 0.28269 0.0
C2983 C 0.76139 0.62936 0.20975 0.0
C2984 C 0.76162 0.62952 0.15871 0.0
C2985 C 0.76002 0.62855 0.30532 0.0
C2986 C 0.74397 0.62889 0.27988 0.0
C2987 C 0.74489 0.62921 0.23236 0.0
C2988 C 0.72611 0.62847 0.30196 0.0
C2989 C 0.75978 0.62783 0.35632 0.0
C2990 C 0.71529 0.61327 0.29817 0.0
C2991 C 0.69832 0.6129 0.31776 0.0
C2992 C 0.69153 0.6279 0.3407 0.0
C2993 C 0.70254 0.64303 0.34514 0.0
C2994 C 0.71964 0.64329 0.32608 0.0
H2995 H 0.77317 0.62504 0.37086 0.0
H2996 H 0.75508 0.64082 0.36984 0.0
H2997 H 0.75035 0.61742 0.36791 0.0
H2998 H 0.71999 0.60163 0.27999 0.0
H2999 H 0.6904 0.6009 0.31436 0.0
H3000 H 0.15303 0.064 0.87119 0.0
H3001 H 0.15316 0.03348 0.90153 0.0
H3002 H 0.1292 0.05253 0.02463 0.0
H3003 H 0.12883 0.0827 0.99481 0.0
H3004 H 0.15835 0.03052 0.04084 0.0
H3005 H 0.11114 0.99867 0.91955 0.0
H3006 H 0.12957 0.01027 0.89466 0.0
H3007 H 0.11306 0.02257 0.92541 0.0
C3008 C 0.14753 0.06165 0.9044 0.0
C3009 C 0.14079 0.07596 0.93018 0.0
C3010 C 0.14762 0.04415 0.9218 0.0
C3011 C 0.14103 0.04055 0.96541 0.0
C3012 C 0.13435 0.05482 0.99099 0.0
H3013 H 0.11356 0.94065 0.10157 0.0
H3014 H 0.11357 0.97037 0.06671 0.0
C3015 C 0.13416 0.07218 0.97368 0.0
C3016 C 0.14147 0.02218 0.98551 0.0
H3017 H 0.12462 0.97989 0.97415 0.0
C3018 C 0.15103 0.01946 0.02606 0.0
C3019 C 0.13173 1.00769 0.96682 0.0
C3020 C 0.12065 0.00987 0.92442 0.0
C3021 C 0.15121 1.00279 0.04805 0.0
C3022 C 0.14167 0.98826 0.02907 0.0
C3023 C 0.132 0.99096 0.98871 0.0
C3024 C 0.14164 0.9702 0.05073 0.0
C3025 C 0.16134 1.00093 0.09207 0.0
C3026 C 0.15739 0.96012 0.05364 0.0
C3027 C 0.15741 0.94318 0.07369 0.0
C3028 C 0.14168 0.93581 0.09131 0.0
C3029 C 0.12594 0.94596 0.08877 0.0
C3030 C 0.1259 0.96291 0.06847 0.0
H3031 H 0.16475 0.01409 0.10714 0.0
H3032 H 0.15349 0.9932 0.11697 0.0
H3033 H 0.17393 0.9936 0.08583 0.0
H3034 H 0.16968 0.96529 0.03995 0.0
H3035 H 0.16979 0.93578 0.07523 0.0
H3036 H 0.68677 0.36681 0.72764 0.0
H3037 H 0.71729 0.36816 0.75696 0.0
H3038 H 0.73123 0.40517 0.65194 0.0
H3039 H 0.70042 0.4041 0.62255 0.0
H3040 H 0.75659 0.37053 0.67918 0.0
H3041 H 0.73824 0.41866 0.81512 0.0
H3042 H 0.72262 0.40144 0.79906 0.0
H3043 H 0.72761 0.41899 0.76008 0.0
C3044 C 0.69632 0.37518 0.71045 0.0
C3045 C 0.69103 0.38548 0.67288 0.0
C3046 C 0.7138 0.37591 0.72733 0.0
C3047 C 0.72657 0.38685 0.70696 0.0
C3048 C 0.72161 0.39664 0.66831 0.0
H3049 H 0.82924 0.41974 0.82317 0.0
H3050 H 0.79994 0.41844 0.78617 0.0
C3051 C 0.70401 0.39597 0.65141 0.0
C3052 C 0.74481 0.38842 0.72747 0.0
H3053 H 0.76739 0.40728 0.81665 0.0
C3054 C 0.75898 0.37862 0.70911 0.0
C3055 C 0.74801 0.39903 0.76638 0.0
C3056 C 0.73341 0.41023 0.78657 0.0
C3057 C 0.77616 0.37898 0.729 0.0
C3058 C 0.77924 0.38919 0.76886 0.0
C3059 C 0.7651 0.39928 0.78653 0.0
C3060 C 0.79704 0.38985 0.79228 0.0
C3061 C 0.79095 0.36863 0.70672 0.0
C3062 C 0.80517 0.3743 0.80924 0.0
C3063 C 0.82198 0.37503 0.83045 0.0
C3064 C 0.83107 0.39134 0.83532 0.0
C3065 C 0.82268 0.40694 0.81963 0.0
C3066 C 0.8059 0.40621 0.79846 0.0
H3067 H 0.7878 0.36558 0.67071 0.0
H3068 H 0.80371 0.37609 0.70834 0.0
H3069 H 0.79282 0.35579 0.72469 0.0
H3070 H 0.79851 0.36155 0.80604 0.0
H3071 H 0.82803 0.36277 0.84217 0.0
loop_
_geom_bond_atom_site_label_1
_geom_bond_atom_site_label_2
_geom_bond_distance
_geom_bond_site_symmetry_2
_ccdc_geom_bond_type
C0 C2 1.422 . S
C0 C4 1.415 . S
C0 N6 1.369 . S
C1 C2 1.421 . S
C1 C3 1.417 . S
C1 C13 1.422 . S
C2 C0 1.422 . S
C2 C1 1.421 . S
C2 N12 1.359 . S
C3 C1 1.417 . S
C3 C5 1.329 . S
C3 H22 0.930 . S
C4 C0 1.415 . S
C4 C5 1.437 . S
C4 C8 1.413 . S
C5 C3 1.329 . S
C5 C4 1.437 . S
C5 H27 0.929 . S
N6 C0 1.369 . S
N6 C7 1.338 . S
N6 Gd11 2.622 . S
C7 N6 1.338 . S
C7 C9 1.378 . S
C7 H19 0.929 . S
C8 C4 1.413 . S
C8 C9 1.348 . S
C8 H24 0.931 . S
C9 C7 1.378 . S
C9 C8 1.348 . S
C9 H25 0.930 . S
Gd10 N30 2.622 . S
Gd10 N37 2.570 . S
Gd10 O44 2.353 . S
Gd10 O45 2.468 1_554 S
Gd10 O46 2.427 1_554 S
Gd10 O48 2.388 . S
Gd10 O49 2.386 . S
Gd10 O53 2.307 . S
Gd10 C63 2.805 1_554 S
Gd11 N6 2.622 . S
Gd11 N12 2.570 . S
Gd11 O43 2.386 . S
Gd11 O47 2.307 . S
Gd11 O50 2.353 . S
Gd11 O51 2.468 . S
Gd11 O52 2.427 . S
Gd11 O54 2.388 . S
Gd11 C75 2.805 . S
N12 C2 1.359 . S
N12 Gd11 2.570 . S
N12 C14 1.343 . S
C13 C1 1.422 . S
C13 C15 1.321 . S
C13 H21 0.931 . S
C14 N12 1.343 . S
C14 C15 1.390 . S
C14 H16 0.931 . S
C15 C13 1.321 . S
C15 C14 1.390 . S
C15 H17 0.930 . S
H16 C14 0.931 . S
H17 C15 0.930 . S
H18 C41 0.931 . S
H19 C7 0.929 . S
H20 C42 0.930 . S
H21 C13 0.931 . S
H22 C3 0.930 . S
H23 C32 0.929 . S
H24 C8 0.931 . S
H25 C9 0.930 . S
H26 C64 0.930 1_556 S
H27 C5 0.929 . S
H28 C33 0.931 . S
H29 C34 0.930 . S
N30 Gd10 2.622 . S
N30 C31 1.369 . S
N30 C32 1.338 . S
C31 N30 1.369 . S
C31 C35 1.415 . S
C31 C38 1.422 . S
C32 H23 0.929 . S
C32 N30 1.338 . S
C32 C34 1.378 . S
C33 H28 0.931 . S
C33 C34 1.348 . S
C33 C35 1.413 . S
C34 H29 0.930 . S
C34 C32 1.378 . S
C34 C33 1.348 . S
C35 C31 1.415 . S
C35 C33 1.413 . S
C35 C65 1.437 . S
H36 C65 0.929 . S
N37 Gd10 2.570 . S
N37 C38 1.359 . S
N37 C41 1.343 . S
C38 C31 1.422 . S
C38 N37 1.359 . S
C38 C40 1.421 . S
C39 C40 1.422 . S
C39 C42 1.321 . S
C39 H66 0.931 1_554 S
C40 C38 1.421 . S
C40 C39 1.422 . S
C40 C64 1.417 . S
C41 H18 0.931 . S
C41 N37 1.343 . S
C41 C42 1.390 . S
C42 H20 0.930 . S
C42 C39 1.321 . S
C42 C41 1.390 . S
O43 Gd11 2.386 . S
O43 C55 1.265 . S
O44 Gd10 2.353 . S
O44 C55 1.242 . S
O45 Gd10 2.468 1_556 S
O45 C63 1.263 . S
O46 Gd10 2.427 1_556 S
O46 C63 1.252 . S
O47 Gd11 2.307 . S
O47 C56 1.261 . S
O48 Gd10 2.388 . S
O48 C56 1.252 . S
O49 Gd10 2.386 . S
O49 C67 1.265 . S
O50 Gd11 2.353 . S
O50 C67 1.242 . S
O51 Gd11 2.468 . S
O51 C75 1.263 . S
O52 Gd11 2.427 . S
O52 C75 1.252 . S
O53 Gd10 2.307 . S
O53 C68 1.261 . S
O54 Gd11 2.388 . S
O54 C68 1.252 . S
C55 O43 1.265 . S
C55 O44 1.242 . S
C56 O47 1.261 . S
C56 O48 1.252 . S
C57 C60 1.394 . S
C57 C62 1.370 . S
C57 C63 1.500 . S
C58 C61 1.383 . S
C58 C62 1.395 . S
C59 C60 1.396 . S
C59 C61 1.365 . S
C59 H76 0.929 . S
C60 C57 1.394 . S
C60 C59 1.396 . S
C60 H77 0.930 . S
C61 C58 1.383 . S
C61 C59 1.365 . S
C61 H78 0.931 . S
C62 C57 1.370 . S
C62 C58 1.395 . S
C62 H79 0.930 . S
C63 Gd10 2.805 1_556 S
C63 O45 1.263 . S
C63 O46 1.252 . S
C63 C57 1.500 . S
C64 H26 0.930 1_554 S
C64 C40 1.417 . S
C64 C65 1.329 . S
C65 C35 1.437 . S
C65 H36 0.929 . S
C65 C64 1.329 . S
H66 C39 0.931 1_556 S
C67 O49 1.265 . S
C67 O50 1.242 . S
C68 O53 1.261 . S
C68 O54 1.252 . S
C69 C72 1.394 . S
C69 C74 1.370 . S
C69 C75 1.500 . S
C70 C73 1.383 . S
C70 C74 1.395 . S
C71 C72 1.396 . S
C71 C73 1.365 . S
C71 H80 0.929 . S
C72 C69 1.394 . S
C72 C71 1.396 . S
C72 H81 0.930 . S
C73 C70 1.383 . S
C73 C71 1.365 . S
C73 H82 0.931 . S
C74 C69 1.370 . S
C74 C70 1.395 . S
C74 H83 0.930 . S
C75 Gd11 2.805 . S
C75 O51 1.263 . S
C75 O52 1.252 . S
C75 C69 1.500 . S
H76 C59 0.929 . S
H77 C60 0.930 . S
H78 C61 0.931 . S
H79 C62 0.930 . S
H80 C71 0.929 . S
H81 C72 0.930 . S
H82 C73 0.931 . S
H83 C74 0.930 . S
C84 C86 1.422 . S
C84 C88 1.415 . S
C84 N90 1.369 . S
C85 C86 1.421 . S
C85 C87 1.417 . S
C85 C97 1.422 . S
C86 C84 1.422 . S
C86 C85 1.421 . S
C86 N96 1.359 . S
C87 C85 1.417 . S
C87 C89 1.329 . S
C87 H106 0.930 . S
C88 C84 1.415 . S
C88 C89 1.437 . S
C88 C92 1.413 . S
C89 C87 1.329 . S
C89 C88 1.437 . S
C89 H111 0.929 . S
N90 C84 1.369 . S
N90 C91 1.338 . S
N90 Gd95 2.622 . S
C91 N90 1.338 . S
C91 C93 1.378 . S
C91 H103 0.929 . S
C92 C88 1.413 . S
C92 C93 1.348 . S
C92 H108 0.931 . S
C93 C91 1.378 . S
C93 C92 1.348 . S
C93 H109 0.930 . S
Gd94 N114 2.622 . S
Gd94 N121 2.570 . S
Gd94 O128 2.353 . S
Gd94 O129 2.468 . S
Gd94 O130 2.427 . S
Gd94 O132 2.388 . S
Gd94 O133 2.386 . S
Gd94 O137 2.307 . S
Gd94 C147 2.805 . S
Gd95 N90 2.622 . S
Gd95 N96 2.570 . S
Gd95 O127 2.386 . S
Gd95 O131 2.307 . S
Gd95 O134 2.353 . S
Gd95 O135 2.468 . S
Gd95 O136 2.427 . S
Gd95 O138 2.388 . S
Gd95 C159 2.805 . S
N96 C86 1.359 . S
N96 Gd95 2.570 . S
N96 C98 1.343 . S
C97 C85 1.422 . S
C97 C99 1.321 . S
C97 H105 0.931 . S
C98 N96 1.343 . S
C98 C99 1.390 . S
C98 H100 0.931 . S
C99 C97 1.321 . S
C99 C98 1.390 . S
C99 H101 0.930 . S
H100 C98 0.931 . S
H101 C99 0.930 . S
H102 C125 0.931 . S
H103 C91 0.929 . S
H104 C126 0.930 . S
H105 C97 0.931 . S
H106 C87 0.930 . S
H107 C116 0.929 . S
H108 C92 0.931 . S
H109 C93 0.930 . S
H110 C148 0.930 . S
H111 C89 0.929 . S
H112 C117 0.931 . S
H113 C118 0.930 . S
N114 Gd94 2.622 . S
N114 C115 1.369 . S
N114 C116 1.338 . S
C115 N114 1.369 . S
C115 C119 1.415 . S
C115 C122 1.422 . S
C116 H107 0.929 . S
C116 N114 1.338 . S
C116 C118 1.378 . S
C117 H112 0.931 . S
C117 C118 1.348 . S
C117 C119 1.413 . S
C118 H113 0.930 . S
C118 C116 1.378 . S
C118 C117 1.348 . S
C119 C115 1.415 . S
C119 C117 1.413 . S
C119 C149 1.437 . S
H120 C149 0.929 . S
N121 Gd94 2.570 . S
N121 C122 1.359 . S
N121 C125 1.343 . S
C122 C115 1.422 . S
C122 N121 1.359 . S
C122 C124 1.421 . S
C123 C124 1.422 . S
C123 C126 1.321 . S
C123 H150 0.931 . S
C124 C122 1.421 . S
C124 C123 1.422 . S
C124 C148 1.417 . S
C125 H102 0.931 . S
C125 N121 1.343 . S
C125 C126 1.390 . S
C126 H104 0.930 . S
C126 C123 1.321 . S
C126 C125 1.390 . S
O127 Gd95 2.386 . S
O127 C139 1.265 . S
O128 Gd94 2.353 . S
O128 C139 1.242 . S
O129 Gd94 2.468 . S
O129 C147 1.263 . S
O130 Gd94 2.427 . S
O130 C147 1.252 . S
O131 Gd95 2.307 . S
O131 C140 1.261 . S
O132 Gd94 2.388 . S
O132 C140 1.252 . S
O133 Gd94 2.386 . S
O133 C151 1.265 . S
O134 Gd95 2.353 . S
O134 C151 1.242 . S
O135 Gd95 2.468 . S
O135 C159 1.263 . S
O136 Gd95 2.427 . S
O136 C159 1.252 . S
O137 Gd94 2.307 . S
O137 C152 1.261 . S
O138 Gd95 2.388 . S
O138 C152 1.252 . S
C139 O127 1.265 . S
C139 O128 1.242 . S
C140 O131 1.261 . S
C140 O132 1.252 . S
C141 C144 1.394 . S
C141 C146 1.370 . S
C141 C147 1.500 . S
C142 C145 1.383 . S
C142 C146 1.395 . S
C143 C144 1.396 . S
C143 C145 1.365 . S
C143 H160 0.929 . S
C144 C141 1.394 . S
C144 C143 1.396 . S
C144 H161 0.930 . S
C145 C142 1.383 . S
C145 C143 1.365 . S
C145 H162 0.931 . S
C146 C141 1.370 . S
C146 C142 1.395 . S
C146 H163 0.930 . S
C147 Gd94 2.805 . S
C147 O129 1.263 . S
C147 O130 1.252 . S
C147 C141 1.500 . S
C148 H110 0.930 . S
C148 C124 1.417 . S
C148 C149 1.329 . S
C149 C119 1.437 . S
C149 H120 0.929 . S
C149 C148 1.329 . S
H150 C123 0.931 . S
C151 O133 1.265 . S
C151 O134 1.242 . S
C152 O137 1.261 . S
C152 O138 1.252 . S
C153 C156 1.394 . S
C153 C158 1.370 . S
C153 C159 1.500 . S
C154 C157 1.383 . S
C154 C158 1.395 . S
C155 C156 1.396 . S
C155 C157 1.365 . S
C155 H164 0.929 . S
C156 C153 1.394 . S
C156 C155 1.396 . S
C156 H165 0.930 . S
C157 C154 1.383 . S
C157 C155 1.365 . S
C157 H166 0.931 . S
C158 C153 1.370 . S
C158 C154 1.395 . S
C158 H167 0.930 . S
C159 Gd95 2.805 . S
C159 O135 1.263 . S
C159 O136 1.252 . S
C159 C153 1.500 . S
H160 C143 0.929 . S
H161 C144 0.930 . S
H162 C145 0.931 . S
H163 C146 0.930 . S
H164 C155 0.929 . S
H165 C156 0.930 . S
H166 C157 0.931 . S
H167 C158 0.930 . S
C168 C170 1.422 . S
C168 C172 1.415 . S
C168 N174 1.369 . S
C169 C170 1.421 . S
C169 C171 1.417 . S
C169 C181 1.422 . S
C170 C168 1.422 . S
C170 C169 1.421 . S
C170 N180 1.359 . S
C171 C169 1.417 . S
C171 C173 1.329 . S
C171 H190 0.930 . S
C172 C168 1.415 . S
C172 C173 1.437 . S
C172 C176 1.413 . S
C173 C171 1.329 . S
C173 C172 1.437 . S
C173 H195 0.929 . S
N174 C168 1.369 . S
N174 C175 1.338 . S
N174 Gd179 2.622 . S
C175 N174 1.338 . S
C175 C177 1.378 . S
C175 H187 0.929 . S
C176 C172 1.413 . S
C176 C177 1.348 . S
C176 H192 0.931 . S
C177 C175 1.378 . S
C177 C176 1.348 . S
C177 H193 0.930 . S
Gd178 N198 2.622 . S
Gd178 N205 2.570 . S
Gd178 O212 2.353 . S
Gd178 O213 2.468 . S
Gd178 O214 2.427 . S
Gd178 O216 2.388 . S
Gd178 O217 2.386 . S
Gd178 O221 2.307 . S
Gd178 C231 2.805 . S
Gd179 N174 2.622 . S
Gd179 N180 2.570 . S
Gd179 O211 2.386 . S
Gd179 O215 2.307 . S
Gd179 O218 2.353 . S
Gd179 O219 2.468 . S
Gd179 O220 2.427 . S
Gd179 O222 2.388 . S
Gd179 C243 2.805 . S
N180 C170 1.359 . S
N180 Gd179 2.570 . S
N180 C182 1.343 . S
C181 C169 1.422 . S
C181 C183 1.321 . S
C181 H189 0.931 . S
C182 N180 1.343 . S
C182 C183 1.390 . S
C182 H184 0.931 . S
C183 C181 1.321 . S
C183 C182 1.390 . S
C183 H185 0.930 . S
H184 C182 0.931 . S
H185 C183 0.930 . S
H186 C209 0.931 . S
H187 C175 0.929 . S
H188 C210 0.930 . S
H189 C181 0.931 . S
H190 C171 0.930 . S
H191 C200 0.929 . S
H192 C176 0.931 . S
H193 C177 0.930 . S
H194 C232 0.930 . S
H195 C173 0.929 . S
H196 C201 0.931 . S
H197 C202 0.930 . S
N198 Gd178 2.622 . S
N198 C199 1.369 . S
N198 C200 1.338 . S
C199 N198 1.369 . S
C199 C203 1.415 . S
C199 C206 1.422 . S
C200 H191 0.929 . S
C200 N198 1.338 . S
C200 C202 1.378 . S
C201 H196 0.931 . S
C201 C202 1.348 . S
C201 C203 1.413 . S
C202 H197 0.930 . S
C202 C200 1.378 . S
C202 C201 1.348 . S
C203 C199 1.415 . S
C203 C201 1.413 . S
C203 C233 1.437 . S
H204 C233 0.929 . S
N205 Gd178 2.570 . S
N205 C206 1.359 . S
N205 C209 1.343 . S
C206 C199 1.422 . S
C206 N205 1.359 . S
C206 C208 1.421 . S
C207 C208 1.422 . S
C207 C210 1.321 . S
C207 H234 0.931 . S
C208 C206 1.421 . S
C208 C207 1.422 . S
C208 C232 1.417 . S
C209 H186 0.931 . S
C209 N205 1.343 . S
C209 C210 1.390 . S
C210 H188 0.930 . S
C210 C207 1.321 . S
C210 C209 1.390 . S
O211 Gd179 2.386 . S
O211 C223 1.265 . S
O212 Gd178 2.353 . S
O212 C223 1.242 . S
O213 Gd178 2.468 . S
O213 C231 1.263 . S
O214 Gd178 2.427 . S
O214 C231 1.252 . S
O215 Gd179 2.307 . S
O215 C224 1.261 . S
O216 Gd178 2.388 . S
O216 C224 1.252 . S
O217 Gd178 2.386 . S
O217 C235 1.265 . S
O218 Gd179 2.353 . S
O218 C235 1.242 . S
O219 Gd179 2.468 . S
O219 C243 1.263 . S
O220 Gd179 2.427 . S
O220 C243 1.252 . S
O221 Gd178 2.307 . S
O221 C236 1.261 . S
O222 Gd179 2.388 . S
O222 C236 1.252 . S
C223 O211 1.265 . S
C223 O212 1.242 . S
C224 O215 1.261 . S
C224 O216 1.252 . S
C225 C228 1.394 . S
C225 C230 1.370 . S
C225 C231 1.500 . S
C226 C229 1.383 . S
C226 C230 1.395 . S
C227 C228 1.396 . S
C227 C229 1.365 . S
C227 H244 0.929 . S
C228 C225 1.394 . S
C228 C227 1.396 . S
C228 H245 0.930 . S
C229 C226 1.383 . S
C229 C227 1.365 . S
C229 H246 0.931 . S
C230 C225 1.370 . S
C230 C226 1.395 . S
C230 H247 0.930 . S
C231 Gd178 2.805 . S
C231 O213 1.263 . S
C231 O214 1.252 . S
C231 C225 1.500 . S
C232 H194 0.930 . S
C232 C208 1.417 . S
C232 C233 1.329 . S
C233 C203 1.437 . S
C233 H204 0.929 . S
C233 C232 1.329 . S
H234 C207 0.931 . S
C235 O217 1.265 . S
C235 O218 1.242 . S
C236 O221 1.261 . S
C236 O222 1.252 . S
C237 C240 1.394 . S
C237 C242 1.370 . S
C237 C243 1.500 . S
C238 C241 1.383 . S
C238 C242 1.395 . S
C239 C240 1.396 . S
C239 C241 1.365 . S
C239 H248 0.929 . S
C240 C237 1.394 . S
C240 C239 1.396 . S
C240 H249 0.930 . S
C241 C238 1.383 . S
C241 C239 1.365 . S
C241 H250 0.931 . S
C242 C237 1.370 . S
C242 C238 1.395 . S
C242 H251 0.930 . S
C243 Gd179 2.805 . S
C243 O219 1.263 . S
C243 O220 1.252 . S
C243 C237 1.500 . S
H244 C227 0.929 . S
H245 C228 0.930 . S
H246 C229 0.931 . S
H247 C230 0.930 . S
H248 C239 0.929 . S
H249 C240 0.930 . S
H250 C241 0.931 . S
H251 C242 0.930 . S
C252 C254 1.422 . S
C252 C256 1.415 . S
C252 N258 1.369 . S
C253 C254 1.421 . S
C253 C255 1.417 . S
C253 C265 1.422 . S
C254 C252 1.422 . S
C254 C253 1.421 . S
C254 N264 1.359 . S
C255 C253 1.417 . S
C255 C257 1.329 . S
C255 H274 0.930 . S
C256 C252 1.415 . S
C256 C257 1.437 . S
C256 C260 1.413 . S
C257 C255 1.329 . S
C257 C256 1.437 . S
C257 H279 0.929 . S
N258 C252 1.369 . S
N258 C259 1.338 . S
N258 Gd263 2.622 . S
C259 N258 1.338 . S
C259 C261 1.378 . S
C259 H271 0.929 . S
C260 C256 1.413 . S
C260 C261 1.348 . S
C260 H276 0.931 . S
C261 C259 1.378 . S
C261 C260 1.348 . S
C261 H277 0.930 . S
Gd262 N282 2.622 . S
Gd262 N289 2.570 . S
Gd262 O296 2.353 . S
Gd262 O297 2.468 1_556 S
Gd262 O298 2.427 1_556 S
Gd262 O300 2.388 . S
Gd262 O301 2.386 . S
Gd262 O305 2.307 . S
Gd262 C315 2.805 1_556 S
Gd263 N258 2.622 . S
Gd263 N264 2.570 . S
Gd263 O295 2.386 . S
Gd263 O299 2.307 . S
Gd263 O302 2.353 . S
Gd263 O303 2.468 . S
Gd263 O304 2.427 . S
Gd263 O306 2.388 . S
Gd263 C327 2.805 . S
N264 C254 1.359 . S
N264 Gd263 2.570 . S
N264 C266 1.343 . S
C265 C253 1.422 . S
C265 C267 1.321 . S
C265 H273 0.931 . S
C266 N264 1.343 . S
C266 C267 1.390 . S
C266 H268 0.931 . S
C267 C265 1.321 . S
C267 C266 1.390 . S
C267 H269 0.930 . S
H268 C266 0.931 . S
H269 C267 0.930 . S
H270 C293 0.931 . S
H271 C259 0.929 . S
H272 C294 0.930 . S
H273 C265 0.931 . S
H274 C255 0.930 . S
H275 C284 0.929 . S
H276 C260 0.931 . S
H277 C261 0.930 . S
H278 C316 0.923 1_554 S
H279 C257 0.929 . S
H280 C285 0.931 . S
H281 C286 0.930 . S
N282 Gd262 2.622 . S
N282 C283 1.369 . S
N282 C284 1.338 . S
C283 N282 1.369 . S
C283 C287 1.415 . S
C283 C290 1.422 . S
C284 H275 0.929 . S
C284 N282 1.338 . S
C284 C286 1.378 . S
C285 H280 0.931 . S
C285 C286 1.348 . S
C285 C287 1.413 . S
C286 H281 0.930 . S
C286 C284 1.378 . S
C286 C285 1.348 . S
C287 C283 1.415 . S
C287 C285 1.413 . S
C287 C317 1.437 . S
H288 C317 0.929 . S
N289 Gd262 2.570 . S
N289 C290 1.359 . S
N289 C293 1.343 . S
C290 C283 1.422 . S
C290 N289 1.359 . S
C290 C292 1.421 . S
C291 C292 1.422 . S
C291 C294 1.322 . S
C291 H318 0.930 1_556 S
C292 C290 1.421 . S
C292 C291 1.422 . S
C292 C316 1.421 . S
C293 H270 0.931 . S
C293 N289 1.343 . S
C293 C294 1.390 . S
C294 H272 0.930 . S
C294 C291 1.322 . S
C294 C293 1.390 . S
O295 Gd263 2.386 . S
O295 C307 1.265 . S
O296 Gd262 2.353 . S
O296 C307 1.242 . S
O297 Gd262 2.468 1_554 S
O297 C315 1.263 . S
O298 Gd262 2.427 1_554 S
O298 C315 1.252 . S
O299 Gd263 2.307 . S
O299 C308 1.261 . S
O300 Gd262 2.388 . S
O300 C308 1.252 . S
O301 Gd262 2.386 . S
O301 C319 1.265 . S
O302 Gd263 2.353 . S
O302 C319 1.242 . S
O303 Gd263 2.468 . S
O303 C327 1.263 . S
O304 Gd263 2.427 . S
O304 C327 1.252 . S
O305 Gd262 2.307 . S
O305 C320 1.261 . S
O306 Gd263 2.388 . S
O306 C320 1.252 . S
C307 O295 1.265 . S
C307 O296 1.242 . S
C308 O299 1.261 . S
C308 O300 1.252 . S
C309 C312 1.394 . S
C309 C314 1.370 . S
C309 C315 1.500 . S
C310 C313 1.383 . S
C310 C314 1.395 . S
C311 C312 1.396 . S
C311 C313 1.365 . S
C311 H328 0.929 . S
C312 C309 1.394 . S
C312 C311 1.396 . S
C312 H329 0.930 . S
C313 C310 1.383 . S
C313 C311 1.365 . S
C313 H330 0.931 . S
C314 C309 1.370 . S
C314 C310 1.395 . S
C314 H331 0.930 . S
C315 Gd262 2.805 1_554 S
C315 O297 1.263 . S
C315 O298 1.252 . S
C315 C309 1.500 . S
C316 H278 0.923 1_556 S
C316 C292 1.421 . S
C316 C317 1.333 . S
C317 C287 1.437 . S
C317 H288 0.929 . S
C317 C316 1.333 . S
H318 C291 0.930 1_554 S
C319 O301 1.265 . S
C319 O302 1.242 . S
C320 O305 1.261 . S
C320 O306 1.252 . S
C321 C324 1.394 . S
C321 C326 1.370 . S
C321 C327 1.500 . S
C322 C325 1.383 . S
C322 C326 1.395 . S
C323 C324 1.396 . S
C323 C325 1.365 . S
C323 H332 0.929 . S
C324 C321 1.394 . S
C324 C323 1.396 . S
C324 H333 0.930 . S
C325 C322 1.383 . S
C325 C323 1.365 . S
C325 H334 0.931 . S
C326 C321 1.370 . S
C326 C322 1.395 . S
C326 H335 0.930 . S
C327 Gd263 2.805 . S
C327 O303 1.263 . S
C327 O304 1.252 . S
C327 C321 1.500 . S
H328 C311 0.929 . S
H329 C312 0.930 . S
H330 C313 0.931 . S
H331 C314 0.930 . S
H332 C323 0.929 . S
H333 C324 0.930 . S
H334 C325 0.931 . S
H335 C326 0.930 . S
C336 C338 1.422 . S
C336 C340 1.415 . S
C336 N342 1.369 . S
C337 C338 1.421 . S
C337 C339 1.417 . S
C337 C349 1.422 . S
C338 C336 1.422 . S
C338 C337 1.421 . S
C338 N348 1.359 . S
C339 C337 1.417 . S
C339 C341 1.329 . S
C339 H358 0.930 1_556 S
C340 C336 1.415 . S
C340 C341 1.437 . S
C340 C344 1.413 . S
C341 C339 1.329 . S
C341 C340 1.437 . S
C341 H363 0.929 . S
N342 C336 1.369 . S
N342 C343 1.338 . S
N342 Gd347 2.622 . S
C343 N342 1.338 . S
C343 C345 1.378 . S
C343 H355 0.929 . S
C344 C340 1.413 . S
C344 C345 1.348 . S
C344 H360 0.931 . S
C345 C343 1.378 . S
C345 C344 1.348 . S
C345 H361 0.930 . S
Gd346 N366 2.622 . S
Gd346 N373 2.570 . S
Gd346 O380 2.353 . S
Gd346 O381 2.468 . S
Gd346 O382 2.427 . S
Gd346 O384 2.388 . S
Gd346 O385 2.386 . S
Gd346 O389 2.307 . S
Gd346 C399 2.805 . S
Gd347 N342 2.622 . S
Gd347 N348 2.570 . S
Gd347 O379 2.386 . S
Gd347 O383 2.307 . S
Gd347 O386 2.353 . S
Gd347 O387 2.468 1_556 S
Gd347 O388 2.427 1_556 S
Gd347 O390 2.388 . S
Gd347 C411 2.805 1_556 S
N348 C338 1.359 . S
N348 Gd347 2.570 . S
N348 C350 1.343 . S
C349 C337 1.422 . S
C349 C351 1.321 . S
C349 H357 0.931 1_556 S
C350 N348 1.343 . S
C350 C351 1.390 . S
C350 H352 0.931 . S
C351 C349 1.321 . S
C351 C350 1.390 . S
C351 H353 0.930 . S
H352 C350 0.931 . S
H353 C351 0.930 . S
H354 C377 0.931 . S
H355 C343 0.929 . S
H356 C378 0.930 . S
H357 C349 0.931 1_554 S
H358 C339 0.930 1_554 S
H359 C368 0.929 . S
H360 C344 0.931 . S
H361 C345 0.930 . S
H362 C400 0.930 . S
H363 C341 0.929 . S
H364 C369 0.931 . S
H365 C370 0.930 . S
N366 Gd346 2.622 . S
N366 C367 1.369 . S
N366 C368 1.338 . S
C367 N366 1.369 . S
C367 C371 1.415 . S
C367 C374 1.422 . S
C368 H359 0.929 . S
C368 N366 1.338 . S
C368 C370 1.378 . S
C369 H364 0.931 . S
C369 C370 1.348 . S
C369 C371 1.413 . S
C370 H365 0.930 . S
C370 C368 1.378 . S
C370 C369 1.348 . S
C371 C367 1.415 . S
C371 C369 1.413 . S
C371 C401 1.437 . S
H372 C401 0.929 . S
N373 Gd346 2.570 . S
N373 C374 1.359 . S
N373 C377 1.343 . S
C374 C367 1.422 . S
C374 N373 1.359 . S
C374 C376 1.421 . S
C375 C376 1.422 . S
C375 C378 1.321 . S
C375 H402 0.931 . S
C376 C374 1.421 . S
C376 C375 1.422 . S
C376 C400 1.417 . S
C377 H354 0.931 . S
C377 N373 1.343 . S
C377 C378 1.390 . S
C378 H356 0.930 . S
C378 C375 1.321 . S
C378 C377 1.390 . S
O379 Gd347 2.386 . S
O379 C391 1.265 . S
O380 Gd346 2.353 . S
O380 C391 1.242 . S
O381 Gd346 2.468 . S
O381 C399 1.263 . S
O382 Gd346 2.427 . S
O382 C399 1.252 . S
O383 Gd347 2.307 . S
O383 C392 1.261 . S
O384 Gd346 2.388 . S
O384 C392 1.252 . S
O385 Gd346 2.386 . S
O385 C403 1.265 . S
O386 Gd347 2.353 . S
O386 C403 1.242 . S
O387 Gd347 2.468 1_554 S
O387 C411 1.263 . S
O388 Gd347 2.427 1_554 S
O388 C411 1.252 . S
O389 Gd346 2.307 . S
O389 C404 1.261 . S
O390 Gd347 2.388 . S
O390 C404 1.252 . S
C391 O379 1.265 . S
C391 O380 1.242 . S
C392 O383 1.261 . S
C392 O384 1.252 . S
C393 C396 1.394 . S
C393 C398 1.370 . S
C393 C399 1.500 . S
C394 C397 1.383 . S
C394 C398 1.395 . S
C395 C396 1.396 . S
C395 C397 1.365 . S
C395 H412 0.929 . S
C396 C393 1.394 . S
C396 C395 1.396 . S
C396 H413 0.930 . S
C397 C394 1.383 . S
C397 C395 1.365 . S
C397 H414 0.931 . S
C398 C393 1.370 . S
C398 C394 1.395 . S
C398 H415 0.930 . S
C399 Gd346 2.805 . S
C399 O381 1.263 . S
C399 O382 1.252 . S
C399 C393 1.500 . S
C400 H362 0.930 . S
C400 C376 1.417 . S
C400 C401 1.329 . S
C401 C371 1.437 . S
C401 H372 0.929 . S
C401 C400 1.329 . S
H402 C375 0.931 . S
C403 O385 1.265 . S
C403 O386 1.242 . S
C404 O389 1.261 . S
C404 O390 1.252 . S
C405 C408 1.394 . S
C405 C410 1.370 . S
C405 C411 1.500 . S
C406 C409 1.383 . S
C406 C410 1.395 . S
C407 C408 1.396 . S
C407 C409 1.365 . S
C407 H416 0.929 . S
C408 C405 1.394 . S
C408 C407 1.396 . S
C408 H417 0.930 . S
C409 C406 1.383 . S
C409 C407 1.365 . S
C409 H418 0.931 . S
C410 C405 1.370 . S
C410 C406 1.395 . S
C410 H419 0.930 . S
C411 Gd347 2.805 1_554 S
C411 O387 1.263 . S
C411 O388 1.252 . S
C411 C405 1.500 . S
H412 C395 0.929 . S
H413 C396 0.930 . S
H414 C397 0.931 . S
H415 C398 0.930 . S
H416 C407 0.929 . S
H417 C408 0.930 . S
H418 C409 0.931 . S
H419 C410 0.930 . S
C420 C422 1.422 . S
C420 C424 1.415 . S
C420 N426 1.369 . S
C421 C422 1.421 . S
C421 C423 1.417 . S
C421 C433 1.422 . S
C422 C420 1.422 . S
C422 C421 1.421 . S
C422 N432 1.359 . S
C423 C421 1.417 . S
C423 C425 1.329 . S
C423 H442 0.930 1_554 S
C424 C420 1.415 . S
C424 C425 1.437 . S
C424 C428 1.413 . S
C425 C423 1.329 . S
C425 C424 1.437 . S
C425 H447 0.929 . S
N426 C420 1.369 . S
N426 C427 1.338 . S
N426 Gd431 2.622 . S
C427 N426 1.338 . S
C427 C429 1.378 . S
C427 H439 0.929 . S
C428 C424 1.413 . S
C428 C429 1.348 . S
C428 H444 0.931 . S
C429 C427 1.378 . S
C429 C428 1.348 . S
C429 H445 0.930 . S
Gd430 N450 2.622 . S
Gd430 N457 2.570 . S
Gd430 O464 2.353 . S
Gd430 O465 2.468 . S
Gd430 O466 2.427 . S
Gd430 O468 2.388 . S
Gd430 O469 2.386 . S
Gd430 O473 2.307 . S
Gd430 C483 2.805 . S
Gd431 N426 2.622 . S
Gd431 N432 2.570 . S
Gd431 O463 2.386 . S
Gd431 O467 2.307 . S
Gd431 O470 2.353 . S
Gd431 O471 2.468 1_554 S
Gd431 O472 2.427 1_554 S
Gd431 O474 2.388 . S
Gd431 C495 2.805 1_554 S
N432 C422 1.359 . S
N432 Gd431 2.570 . S
N432 C434 1.343 . S
C433 C421 1.422 . S
C433 C435 1.321 . S
C433 H441 0.931 1_554 S
C434 N432 1.343 . S
C434 C435 1.390 . S
C434 H436 0.931 . S
C435 C433 1.321 . S
C435 C434 1.390 . S
C435 H437 0.930 . S
H436 C434 0.931 . S
H437 C435 0.930 . S
H438 C461 0.931 . S
H439 C427 0.929 . S
H440 C462 0.930 . S
H441 C433 0.931 1_556 S
H442 C423 0.930 1_556 S
H443 C452 0.929 . S
H444 C428 0.931 . S
H445 C429 0.930 . S
H446 C484 0.930 . S
H447 C425 0.929 . S
H448 C453 0.931 . S
H449 C454 0.930 . S
N450 Gd430 2.622 . S
N450 C451 1.369 . S
N450 C452 1.338 . S
C451 N450 1.369 . S
C451 C455 1.415 . S
C451 C458 1.422 . S
C452 H443 0.929 . S
C452 N450 1.338 . S
C452 C454 1.378 . S
C453 H448 0.931 . S
C453 C454 1.348 . S
C453 C455 1.413 . S
C454 H449 0.930 . S
C454 C452 1.378 . S
C454 C453 1.348 . S
C455 C451 1.415 . S
C455 C453 1.413 . S
C455 C485 1.437 . S
H456 C485 0.929 . S
N457 Gd430 2.570 . S
N457 C458 1.359 . S
N457 C461 1.343 . S
C458 C451 1.422 . S
C458 N457 1.359 . S
C458 C460 1.421 . S
C459 C460 1.422 . S
C459 C462 1.321 . S
C459 H486 0.931 . S
C460 C458 1.421 . S
C460 C459 1.422 . S
C460 C484 1.417 . S
C461 H438 0.931 . S
C461 N457 1.343 . S
C461 C462 1.390 . S
C462 H440 0.930 . S
C462 C459 1.321 . S
C462 C461 1.390 . S
O463 Gd431 2.386 . S
O463 C475 1.265 . S
O464 Gd430 2.353 . S
O464 C475 1.242 . S
O465 Gd430 2.468 . S
O465 C483 1.263 . S
O466 Gd430 2.427 . S
O466 C483 1.252 . S
O467 Gd431 2.307 . S
O467 C476 1.261 . S
O468 Gd430 2.388 . S
O468 C476 1.252 . S
O469 Gd430 2.386 . S
O469 C487 1.265 . S
O470 Gd431 2.353 . S
O470 C487 1.242 . S
O471 Gd431 2.468 1_556 S
O471 C495 1.263 . S
O472 Gd431 2.427 1_556 S
O472 C495 1.252 . S
O473 Gd430 2.307 . S
O473 C488 1.261 . S
O474 Gd431 2.388 . S
O474 C488 1.252 . S
C475 O463 1.265 . S
C475 O464 1.242 . S
C476 O467 1.261 . S
C476 O468 1.252 . S
C477 C480 1.394 . S
C477 C482 1.370 . S
C477 C483 1.500 . S
C478 C481 1.383 . S
C478 C482 1.395 . S
C479 C480 1.396 . S
C479 C481 1.365 . S
C479 H496 0.929 . S
C480 C477 1.394 . S
C480 C479 1.396 . S
C480 H497 0.930 . S
C481 C478 1.383 . S
C481 C479 1.365 . S
C481 H498 0.931 . S
C482 C477 1.370 . S
C482 C478 1.395 . S
C482 H499 0.930 . S
C483 Gd430 2.805 . S
C483 O465 1.263 . S
C483 O466 1.252 . S
C483 C477 1.500 . S
C484 H446 0.930 . S
C484 C460 1.417 . S
C484 C485 1.329 . S
C485 C455 1.437 . S
C485 H456 0.929 . S
C485 C484 1.329 . S
H486 C459 0.931 . S
C487 O469 1.265 . S
C487 O470 1.242 . S
C488 O473 1.261 . S
C488 O474 1.252 . S
C489 C492 1.394 . S
C489 C494 1.370 . S
C489 C495 1.500 . S
C490 C493 1.383 . S
C490 C494 1.395 . S
C491 C492 1.396 . S
C491 C493 1.365 . S
C491 H500 0.929 . S
C492 C489 1.394 . S
C492 C491 1.396 . S
C492 H501 0.930 . S
C493 C490 1.383 . S
C493 C491 1.365 . S
C493 H502 0.931 . S
C494 C489 1.370 . S
C494 C490 1.395 . S
C494 H503 0.930 . S
C495 Gd431 2.805 1_556 S
C495 O471 1.263 . S
C495 O472 1.252 . S
C495 C489 1.500 . S
H496 C479 0.929 . S
H497 C480 0.930 . S
H498 C481 0.931 . S
H499 C482 0.930 . S
H500 C491 0.929 . S
H501 C492 0.930 . S
H502 C493 0.931 . S
H503 C494 0.930 . S
C504 C506 1.422 . S
C504 C508 1.415 . S
C504 N510 1.369 . S
C505 C506 1.421 . S
C505 C507 1.417 . S
C505 C517 1.422 . S
C506 C504 1.422 . S
C506 C505 1.421 . S
C506 N516 1.359 . S
C507 C505 1.417 . S
C507 C509 1.329 . S
C507 H526 0.930 . S
C508 C504 1.415 . S
C508 C509 1.437 . S
C508 C512 1.413 . S
C509 C507 1.329 . S
C509 C508 1.437 . S
C509 H531 0.929 . S
N510 C504 1.369 . S
N510 C511 1.338 . S
N510 Gd515 2.622 . S
C511 N510 1.338 . S
C511 C513 1.378 . S
C511 H523 0.929 . S
C512 C508 1.413 . S
C512 C513 1.348 . S
C512 H528 0.931 . S
C513 C511 1.378 . S
C513 C512 1.348 . S
C513 H529 0.930 . S
Gd514 N534 2.622 . S
Gd514 N541 2.570 . S
Gd514 O548 2.353 . S
Gd514 O549 2.468 . S
Gd514 O550 2.427 . S
Gd514 O552 2.388 . S
Gd514 O553 2.386 . S
Gd514 O557 2.307 . S
Gd514 C567 2.805 . S
Gd515 N510 2.622 . S
Gd515 N516 2.570 . S
Gd515 O547 2.386 . S
Gd515 O551 2.307 . S
Gd515 O554 2.353 . S
Gd515 O555 2.468 . S
Gd515 O556 2.427 . S
Gd515 O558 2.388 . S
Gd515 C579 2.805 . S
N516 C506 1.359 . S
N516 Gd515 2.570 . S
N516 C518 1.343 . S
C517 C505 1.422 . S
C517 C519 1.321 . S
C517 H525 0.931 . S
C518 N516 1.343 . S
C518 C519 1.390 . S
C518 H520 0.931 . S
C519 C517 1.321 . S
C519 C518 1.390 . S
C519 H521 0.930 . S
H520 C518 0.931 . S
H521 C519 0.930 . S
H522 C545 0.931 . S
H523 C511 0.929 . S
H524 C546 0.930 . S
H525 C517 0.931 . S
H526 C507 0.930 . S
H527 C536 0.929 . S
H528 C512 0.931 . S
H529 C513 0.930 . S
H530 C568 0.930 . S
H531 C509 0.929 . S
H532 C537 0.931 . S
H533 C538 0.930 . S
N534 Gd514 2.622 . S
N534 C535 1.369 . S
N534 C536 1.338 . S
C535 N534 1.369 . S
C535 C539 1.415 . S
C535 C542 1.422 . S
C536 H527 0.929 . S
C536 N534 1.338 . S
C536 C538 1.378 . S
C537 H532 0.931 . S
C537 C538 1.348 . S
C537 C539 1.413 . S
C538 H533 0.930 . S
C538 C536 1.378 . S
C538 C537 1.348 . S
C539 C535 1.415 . S
C539 C537 1.413 . S
C539 C569 1.437 . S
H540 C569 0.929 . S
N541 Gd514 2.570 . S
N541 C542 1.359 . S
N541 C545 1.343 . S
C542 C535 1.422 . S
C542 N541 1.359 . S
C542 C544 1.421 . S
C543 C544 1.422 . S
C543 C546 1.321 . S
C543 H570 0.931 . S
C544 C542 1.421 . S
C544 C543 1.422 . S
C544 C568 1.417 . S
C545 H522 0.931 . S
C545 N541 1.343 . S
C545 C546 1.390 . S
C546 H524 0.930 . S
C546 C543 1.321 . S
C546 C545 1.390 . S
O547 Gd515 2.386 . S
O547 C559 1.265 . S
O548 Gd514 2.353 . S
O548 C559 1.242 . S
O549 Gd514 2.468 . S
O549 C567 1.263 . S
O550 Gd514 2.427 . S
O550 C567 1.252 . S
O551 Gd515 2.307 . S
O551 C560 1.261 . S
O552 Gd514 2.388 . S
O552 C560 1.252 . S
O553 Gd514 2.386 . S
O553 C571 1.265 . S
O554 Gd515 2.353 . S
O554 C571 1.242 . S
O555 Gd515 2.468 . S
O555 C579 1.263 . S
O556 Gd515 2.427 . S
O556 C579 1.252 . S
O557 Gd514 2.307 . S
O557 C572 1.261 . S
O558 Gd515 2.388 . S
O558 C572 1.252 . S
C559 O547 1.265 . S
C559 O548 1.242 . S
C560 O551 1.261 . S
C560 O552 1.252 . S
C561 C564 1.394 . S
C561 C566 1.370 . S
C561 C567 1.500 . S
C562 C565 1.383 . S
C562 C566 1.395 . S
C563 C564 1.396 . S
C563 C565 1.365 . S
C563 H580 0.929 . S
C564 C561 1.394 . S
C564 C563 1.396 . S
C564 H581 0.930 . S
C565 C562 1.383 . S
C565 C563 1.365 . S
C565 H582 0.931 . S
C566 C561 1.370 . S
C566 C562 1.395 . S
C566 H583 0.930 . S
C567 Gd514 2.805 . S
C567 O549 1.263 . S
C567 O550 1.252 . S
C567 C561 1.500 . S
C568 H530 0.930 . S
C568 C544 1.417 . S
C568 C569 1.329 . S
C569 C539 1.437 . S
C569 H540 0.929 . S
C569 C568 1.329 . S
H570 C543 0.931 . S
C571 O553 1.265 . S
C571 O554 1.242 . S
C572 O557 1.261 . S
C572 O558 1.252 . S
C573 C576 1.394 . S
C573 C578 1.370 . S
C573 C579 1.500 . S
C574 C577 1.383 . S
C574 C578 1.395 . S
C575 C576 1.396 . S
C575 C577 1.365 . S
C575 H584 0.929 . S
C576 C573 1.394 . S
C576 C575 1.396 . S
C576 H585 0.930 . S
C577 C574 1.383 . S
C577 C575 1.365 . S
C577 H586 0.931 . S
C578 C573 1.370 . S
C578 C574 1.395 . S
C578 H587 0.930 . S
C579 Gd515 2.805 . S
C579 O555 1.263 . S
C579 O556 1.252 . S
C579 C573 1.500 . S
H580 C563 0.929 . S
H581 C564 0.930 . S
H582 C565 0.931 . S
H583 C566 0.930 . S
H584 C575 0.929 . S
H585 C576 0.930 . S
H586 C577 0.931 . S
H587 C578 0.930 . S
C588 C590 1.422 . S
C588 C592 1.415 . S
C588 N594 1.369 . S
C589 C590 1.421 . S
C589 C591 1.417 . S
C589 C601 1.422 . S
C590 C588 1.422 . S
C590 C589 1.421 . S
C590 N600 1.359 . S
C591 C589 1.417 . S
C591 C593 1.329 . S
C591 H610 0.930 . S
C592 C588 1.415 . S
C592 C593 1.437 . S
C592 C596 1.413 . S
C593 C591 1.329 . S
C593 C592 1.437 . S
C593 H615 0.929 . S
N594 C588 1.369 . S
N594 C595 1.338 . S
N594 Gd599 2.622 . S
C595 N594 1.338 . S
C595 C597 1.378 . S
C595 H607 0.929 . S
C596 C592 1.413 . S
C596 C597 1.348 . S
C596 H612 0.931 . S
C597 C595 1.378 . S
C597 C596 1.348 . S
C597 H613 0.930 . S
Gd598 N618 2.622 . S
Gd598 N625 2.570 . S
Gd598 O632 2.353 . S
Gd598 O633 2.468 . S
Gd598 O634 2.427 . S
Gd598 O636 2.388 . S
Gd598 O637 2.386 . S
Gd598 O641 2.307 . S
Gd598 C651 2.805 . S
Gd599 N594 2.622 . S
Gd599 N600 2.570 . S
Gd599 O631 2.386 . S
Gd599 O635 2.307 . S
Gd599 O638 2.353 . S
Gd599 O639 2.468 . S
Gd599 O640 2.427 . S
Gd599 O642 2.388 . S
Gd599 C663 2.805 . S
N600 C590 1.359 . S
N600 Gd599 2.570 . S
N600 C602 1.343 . S
C601 C589 1.422 . S
C601 C603 1.321 . S
C601 H609 0.931 . S
C602 N600 1.343 . S
C602 C603 1.390 . S
C602 H604 0.931 . S
C603 C601 1.321 . S
C603 C602 1.390 . S
C603 H605 0.930 . S
H604 C602 0.931 . S
H605 C603 0.930 . S
H606 C629 0.931 . S
H607 C595 0.929 . S
H608 C630 0.930 . S
H609 C601 0.931 . S
H610 C591 0.930 . S
H611 C620 0.929 . S
H612 C596 0.931 . S
H613 C597 0.930 . S
H614 C652 0.930 . S
H615 C593 0.929 . S
H616 C621 0.931 . S
H617 C622 0.930 . S
N618 Gd598 2.622 . S
N618 C619 1.369 . S
N618 C620 1.338 . S
C619 N618 1.369 . S
C619 C623 1.415 . S
C619 C626 1.422 . S
C620 H611 0.929 . S
C620 N618 1.338 . S
C620 C622 1.378 . S
C621 H616 0.931 . S
C621 C622 1.348 . S
C621 C623 1.413 . S
C622 H617 0.930 . S
C622 C620 1.378 . S
C622 C621 1.348 . S
C623 C619 1.415 . S
C623 C621 1.413 . S
C623 C653 1.437 . S
H624 C653 0.929 . S
N625 Gd598 2.570 . S
N625 C626 1.359 . S
N625 C629 1.343 . S
C626 C619 1.422 . S
C626 N625 1.359 . S
C626 C628 1.421 . S
C627 C628 1.422 . S
C627 C630 1.321 . S
C627 H654 0.931 . S
C628 C626 1.421 . S
C628 C627 1.422 . S
C628 C652 1.417 . S
C629 H606 0.931 . S
C629 N625 1.343 . S
C629 C630 1.390 . S
C630 H608 0.930 . S
C630 C627 1.321 . S
C630 C629 1.390 . S
O631 Gd599 2.386 . S
O631 C643 1.265 . S
O632 Gd598 2.353 . S
O632 C643 1.242 . S
O633 Gd598 2.468 . S
O633 C651 1.263 . S
O634 Gd598 2.427 . S
O634 C651 1.252 . S
O635 Gd599 2.307 . S
O635 C644 1.261 . S
O636 Gd598 2.388 . S
O636 C644 1.252 . S
O637 Gd598 2.386 . S
O637 C655 1.265 . S
O638 Gd599 2.353 . S
O638 C655 1.242 . S
O639 Gd599 2.468 . S
O639 C663 1.263 . S
O640 Gd599 2.427 . S
O640 C663 1.252 . S
O641 Gd598 2.307 . S
O641 C656 1.261 . S
O642 Gd599 2.388 . S
O642 C656 1.252 . S
C643 O631 1.265 . S
C643 O632 1.242 . S
C644 O635 1.261 . S
C644 O636 1.252 . S
C645 C648 1.394 . S
C645 C650 1.370 . S
C645 C651 1.500 . S
C646 C649 1.383 . S
C646 C650 1.395 . S
C647 C648 1.396 . S
C647 C649 1.365 . S
C647 H664 0.929 . S
C648 C645 1.394 . S
C648 C647 1.396 . S
C648 H665 0.930 . S
C649 C646 1.383 . S
C649 C647 1.365 . S
C649 H666 0.931 . S
C650 C645 1.370 . S
C650 C646 1.395 . S
C650 H667 0.930 . S
C651 Gd598 2.805 . S
C651 O633 1.263 . S
C651 O634 1.252 . S
C651 C645 1.500 . S
C652 H614 0.930 . S
C652 C628 1.417 . S
C652 C653 1.329 . S
C653 C623 1.437 . S
C653 H624 0.929 . S
C653 C652 1.329 . S
H654 C627 0.931 . S
C655 O637 1.265 . S
C655 O638 1.242 . S
C656 O641 1.261 . S
C656 O642 1.252 . S
C657 C660 1.394 . S
C657 C662 1.370 . S
C657 C663 1.500 . S
C658 C661 1.383 . S
C658 C662 1.395 . S
C659 C660 1.396 . S
C659 C661 1.365 . S
C659 H668 0.929 . S
C660 C657 1.394 . S
C660 C659 1.396 . S
C660 H669 0.930 . S
C661 C658 1.383 . S
C661 C659 1.365 . S
C661 H670 0.931 . S
C662 C657 1.370 . S
C662 C658 1.395 . S
C662 H671 0.930 . S
C663 Gd599 2.805 . S
C663 O639 1.263 . S
C663 O640 1.252 . S
C663 C657 1.500 . S
H664 C647 0.929 . S
H665 C648 0.930 . S
H666 C649 0.931 . S
H667 C650 0.930 . S
H668 C659 0.929 . S
H669 C660 0.930 . S
H670 C661 0.931 . S
H671 C662 0.930 . S
C672 C674 1.422 . S
C672 C676 1.415 . S
C672 N678 1.369 . S
C673 C674 1.421 . S
C673 C675 1.417 . S
C673 C685 1.422 . S
C674 C672 1.422 . S
C674 C673 1.421 . S
C674 N684 1.359 . S
C675 C673 1.417 . S
C675 C677 1.329 . S
C675 H694 0.930 . S
C676 C672 1.415 . S
C676 C677 1.437 . S
C676 C680 1.413 . S
C677 C675 1.329 . S
C677 C676 1.437 . S
C677 H699 0.929 . S
N678 C672 1.369 . S
N678 C679 1.338 . S
N678 Gd683 2.622 . S
C679 N678 1.338 . S
C679 C681 1.378 . S
C679 H691 0.929 . S
C680 C676 1.413 . S
C680 C681 1.348 . S
C680 H696 0.931 . S
C681 C679 1.378 . S
C681 C680 1.348 . S
C681 H697 0.930 . S
Gd682 N702 2.622 . S
Gd682 N709 2.570 . S
Gd682 O716 2.353 . S
Gd682 O717 2.468 1_556 S
Gd682 O718 2.427 1_556 S
Gd682 O720 2.388 . S
Gd682 O721 2.386 . S
Gd682 O725 2.307 . S
Gd682 C735 2.805 1_556 S
Gd683 N678 2.622 . S
Gd683 N684 2.570 . S
Gd683 O715 2.386 . S
Gd683 O719 2.307 . S
Gd683 O722 2.353 . S
Gd683 O723 2.468 . S
Gd683 O724 2.427 . S
Gd683 O726 2.388 . S
Gd683 C747 2.805 . S
N684 C674 1.359 . S
N684 Gd683 2.570 . S
N684 C686 1.343 . S
C685 C673 1.422 . S
C685 C687 1.321 . S
C685 H693 0.931 . S
C686 N684 1.343 . S
C686 C687 1.390 . S
C686 H688 0.931 . S
C687 C685 1.321 . S
C687 C686 1.390 . S
C687 H689 0.930 . S
H688 C686 0.931 . S
H689 C687 0.930 . S
H690 C713 0.931 . S
H691 C679 0.929 . S
H692 C714 0.930 . S
H693 C685 0.931 . S
H694 C675 0.930 . S
H695 C704 0.929 . S
H696 C680 0.931 . S
H697 C681 0.930 . S
H698 C736 0.930 1_554 S
H699 C677 0.929 . S
H700 C705 0.931 . S
H701 C706 0.930 . S
N702 Gd682 2.622 . S
N702 C703 1.369 . S
N702 C704 1.338 . S
C703 N702 1.369 . S
C703 C707 1.415 . S
C703 C710 1.422 . S
C704 H695 0.929 . S
C704 N702 1.338 . S
C704 C706 1.378 . S
C705 H700 0.931 . S
C705 C706 1.348 . S
C705 C707 1.413 . S
C706 H701 0.930 . S
C706 C704 1.378 . S
C706 C705 1.348 . S
C707 C703 1.415 . S
C707 C705 1.413 . S
C707 C737 1.437 . S
H708 C737 0.929 . S
N709 Gd682 2.570 . S
N709 C710 1.359 . S
N709 C713 1.343 . S
C710 C703 1.422 . S
C710 N709 1.359 . S
C710 C712 1.421 . S
C711 C712 1.422 . S
C711 C714 1.321 . S
C711 H738 0.931 1_556 S
C712 C710 1.421 . S
C712 C711 1.422 . S
C712 C736 1.417 . S
C713 H690 0.931 . S
C713 N709 1.343 . S
C713 C714 1.390 . S
C714 H692 0.930 . S
C714 C711 1.321 . S
C714 C713 1.390 . S
O715 Gd683 2.386 . S
O715 C727 1.265 . S
O716 Gd682 2.353 . S
O716 C727 1.242 . S
O717 Gd682 2.468 1_554 S
O717 C735 1.263 . S
O718 Gd682 2.427 1_554 S
O718 C735 1.252 . S
O719 Gd683 2.307 . S
O719 C728 1.261 . S
O720 Gd682 2.388 . S
O720 C728 1.252 . S
O721 Gd682 2.386 . S
O721 C739 1.265 . S
O722 Gd683 2.353 . S
O722 C739 1.242 . S
O723 Gd683 2.468 . S
O723 C747 1.263 . S
O724 Gd683 2.427 . S
O724 C747 1.252 . S
O725 Gd682 2.307 . S
O725 C740 1.261 . S
O726 Gd683 2.388 . S
O726 C740 1.252 . S
C727 O715 1.265 . S
C727 O716 1.242 . S
C728 O719 1.261 . S
C728 O720 1.252 . S
C729 C732 1.394 . S
C729 C734 1.370 . S
C729 C735 1.500 . S
C730 C733 1.383 . S
C730 C734 1.395 . S
C731 C732 1.396 . S
C731 C733 1.365 . S
C731 H748 0.929 . S
C732 C729 1.394 . S
C732 C731 1.396 . S
C732 H749 0.930 . S
C733 C730 1.383 . S
C733 C731 1.365 . S
C733 H750 0.931 . S
C734 C729 1.370 . S
C734 C730 1.395 . S
C734 H751 0.930 . S
C735 Gd682 2.805 1_554 S
C735 O717 1.263 . S
C735 O718 1.252 . S
C735 C729 1.500 . S
C736 H698 0.930 1_556 S
C736 C712 1.417 . S
C736 C737 1.329 . S
C737 C707 1.437 . S
C737 H708 0.929 . S
C737 C736 1.329 . S
H738 C711 0.931 1_554 S
C739 O721 1.265 . S
C739 O722 1.242 . S
C740 O725 1.261 . S
C740 O726 1.252 . S
C741 C744 1.394 . S
C741 C746 1.370 . S
C741 C747 1.500 . S
C742 C745 1.383 . S
C742 C746 1.395 . S
C743 C744 1.396 . S
C743 C745 1.365 . S
C743 H752 0.929 . S
C744 C741 1.394 . S
C744 C743 1.396 . S
C744 H753 0.930 . S
C745 C742 1.383 . S
C745 C743 1.365 . S
C745 H754 0.931 . S
C746 C741 1.370 . S
C746 C742 1.395 . S
C746 H755 0.930 . S
C747 Gd683 2.805 . S
C747 O723 1.263 . S
C747 O724 1.252 . S
C747 C741 1.500 . S
H748 C731 0.929 . S
H749 C732 0.930 . S
H750 C733 0.931 . S
H751 C734 0.930 . S
H752 C743 0.929 . S
H753 C744 0.930 . S
H754 C745 0.931 . S
H755 C746 0.930 . S
C756 C758 1.422 . S
C756 C760 1.415 . S
C756 N762 1.369 . S
C757 C758 1.421 . S
C757 C759 1.417 . S
C757 C769 1.422 . S
C758 C756 1.422 . S
C758 C757 1.421 . S
C758 N768 1.359 . S
C759 C757 1.417 . S
C759 C761 1.329 . S
C759 H778 0.930 . S
C760 C756 1.415 . S
C760 C761 1.437 . S
C760 C764 1.413 . S
C761 C759 1.329 . S
C761 C760 1.437 . S
C761 H783 0.929 . S
N762 C756 1.369 . S
N762 C763 1.338 . S
N762 Gd767 2.622 . S
C763 N762 1.338 . S
C763 C765 1.378 . S
C763 H775 0.929 . S
C764 C760 1.413 . S
C764 C765 1.348 . S
C764 H780 0.931 . S
C765 C763 1.378 . S
C765 C764 1.348 . S
C765 H781 0.930 . S
Gd766 N786 2.622 . S
Gd766 N793 2.570 . S
Gd766 O800 2.353 . S
Gd766 O801 2.468 . S
Gd766 O802 2.427 . S
Gd766 O804 2.388 . S
Gd766 O805 2.386 . S
Gd766 O809 2.307 . S
Gd766 C819 2.805 . S
Gd767 N762 2.622 . S
Gd767 N768 2.570 . S
Gd767 O799 2.386 . S
Gd767 O803 2.307 . S
Gd767 O806 2.353 . S
Gd767 O807 2.468 . S
Gd767 O808 2.427 . S
Gd767 O810 2.388 . S
Gd767 C831 2.805 . S
N768 C758 1.359 . S
N768 Gd767 2.570 . S
N768 C770 1.343 . S
C769 C757 1.422 . S
C769 C771 1.321 . S
C769 H777 0.931 . S
C770 N768 1.343 . S
C770 C771 1.390 . S
C770 H772 0.931 . S
C771 C769 1.321 . S
C771 C770 1.390 . S
C771 H773 0.930 . S
H772 C770 0.931 . S
H773 C771 0.930 . S
H774 C797 0.931 . S
H775 C763 0.929 . S
H776 C798 0.930 . S
H777 C769 0.931 . S
H778 C759 0.930 . S
H779 C788 0.929 . S
H780 C764 0.931 . S
H781 C765 0.930 . S
H782 C820 0.930 . S
H783 C761 0.929 . S
H784 C789 0.931 . S
H785 C790 0.930 . S
N786 Gd766 2.622 . S
N786 C787 1.369 . S
N786 C788 1.338 . S
C787 N786 1.369 . S
C787 C791 1.415 . S
C787 C794 1.422 . S
C788 H779 0.929 . S
C788 N786 1.338 . S
C788 C790 1.378 . S
C789 H784 0.931 . S
C789 C790 1.348 . S
C789 C791 1.413 . S
C790 H785 0.930 . S
C790 C788 1.378 . S
C790 C789 1.348 . S
C791 C787 1.415 . S
C791 C789 1.413 . S
C791 C821 1.437 . S
H792 C821 0.929 . S
N793 Gd766 2.570 . S
N793 C794 1.359 . S
N793 C797 1.343 . S
C794 C787 1.422 . S
C794 N793 1.359 . S
C794 C796 1.421 . S
C795 C796 1.422 . S
C795 C798 1.321 . S
C795 H822 0.931 . S
C796 C794 1.421 . S
C796 C795 1.422 . S
C796 C820 1.417 . S
C797 H774 0.931 . S
C797 N793 1.343 . S
C797 C798 1.390 . S
C798 H776 0.930 . S
C798 C795 1.321 . S
C798 C797 1.390 . S
O799 Gd767 2.386 . S
O799 C811 1.265 . S
O800 Gd766 2.353 . S
O800 C811 1.242 . S
O801 Gd766 2.468 . S
O801 C819 1.263 . S
O802 Gd766 2.427 . S
O802 C819 1.252 . S
O803 Gd767 2.307 . S
O803 C812 1.261 . S
O804 Gd766 2.388 . S
O804 C812 1.252 . S
O805 Gd766 2.386 . S
O805 C823 1.265 . S
O806 Gd767 2.353 . S
O806 C823 1.242 . S
O807 Gd767 2.468 . S
O807 C831 1.263 . S
O808 Gd767 2.427 . S
O808 C831 1.252 . S
O809 Gd766 2.307 . S
O809 C824 1.261 . S
O810 Gd767 2.388 . S
O810 C824 1.252 . S
C811 O799 1.265 . S
C811 O800 1.242 . S
C812 O803 1.261 . S
C812 O804 1.252 . S
C813 C816 1.394 . S
C813 C818 1.370 . S
C813 C819 1.500 . S
C814 C817 1.383 . S
C814 C818 1.395 . S
C815 C816 1.396 . S
C815 C817 1.365 . S
C815 H832 0.929 . S
C816 C813 1.394 . S
C816 C815 1.396 . S
C816 H833 0.930 . S
C817 C814 1.383 . S
C817 C815 1.365 . S
C817 H834 0.931 . S
C818 C813 1.370 . S
C818 C814 1.395 . S
C818 H835 0.930 . S
C819 Gd766 2.805 . S
C819 O801 1.263 . S
C819 O802 1.252 . S
C819 C813 1.500 . S
C820 H782 0.930 . S
C820 C796 1.417 . S
C820 C821 1.329 . S
C821 C791 1.437 . S
C821 H792 0.929 . S
C821 C820 1.329 . S
H822 C795 0.931 . S
C823 O805 1.265 . S
C823 O806 1.242 . S
C824 O809 1.261 . S
C824 O810 1.252 . S
C825 C828 1.394 . S
C825 C830 1.370 . S
C825 C831 1.500 . S
C826 C829 1.383 . S
C826 C830 1.395 . S
C827 C828 1.396 . S
C827 C829 1.365 . S
C827 H836 0.929 . S
C828 C825 1.394 . S
C828 C827 1.396 . S
C828 H837 0.930 . S
C829 C826 1.383 . S
C829 C827 1.365 . S
C829 H838 0.931 . S
C830 C825 1.370 . S
C830 C826 1.395 . S
C830 H839 0.930 . S
C831 Gd767 2.805 . S
C831 O807 1.263 . S
C831 O808 1.252 . S
C831 C825 1.500 . S
H832 C815 0.929 . S
H833 C816 0.930 . S
H834 C817 0.931 . S
H835 C818 0.930 . S
H836 C827 0.929 . S
H837 C828 0.930 . S
H838 C829 0.931 . S
H839 C830 0.930 . S
C840 C842 1.422 . S
C840 C844 1.415 . S
C840 N846 1.369 . S
C841 C842 1.421 . S
C841 C843 1.417 . S
C841 C853 1.422 . S
C842 C840 1.422 . S
C842 C841 1.421 . S
C842 N852 1.359 . S
C843 C841 1.417 . S
C843 C845 1.329 . S
C843 H862 0.930 . S
C844 C840 1.415 . S
C844 C845 1.437 . S
C844 C848 1.413 . S
C845 C843 1.329 . S
C845 C844 1.437 . S
C845 H867 0.929 . S
N846 C840 1.369 . S
N846 C847 1.338 . S
N846 Gd851 2.622 . S
C847 N846 1.338 . S
C847 C849 1.378 . S
C847 H859 0.929 . S
C848 C844 1.413 . S
C848 C849 1.348 . S
C848 H864 0.931 . S
C849 C847 1.378 . S
C849 C848 1.348 . S
C849 H865 0.930 . S
Gd850 N870 2.622 . S
Gd850 N877 2.570 . S
Gd850 O884 2.353 . S
Gd850 O885 2.468 . S
Gd850 O886 2.427 . S
Gd850 O888 2.388 . S
Gd850 O889 2.386 . S
Gd850 O893 2.307 . S
Gd850 C903 2.805 . S
Gd851 N846 2.622 . S
Gd851 N852 2.570 . S
Gd851 O883 2.386 . S
Gd851 O887 2.307 . S
Gd851 O890 2.353 . S
Gd851 O891 2.468 . S
Gd851 O892 2.427 . S
Gd851 O894 2.388 . S
Gd851 C915 2.805 . S
N852 C842 1.359 . S
N852 Gd851 2.570 . S
N852 C854 1.343 . S
C853 C841 1.422 . S
C853 C855 1.321 . S
C853 H861 0.931 . S
C854 N852 1.343 . S
C854 C855 1.390 . S
C854 H856 0.931 . S
C855 C853 1.321 . S
C855 C854 1.390 . S
C855 H857 0.930 . S
H856 C854 0.931 . S
H857 C855 0.930 . S
H858 C881 0.931 . S
H859 C847 0.929 . S
H860 C882 0.930 . S
H861 C853 0.931 . S
H862 C843 0.930 . S
H863 C872 0.929 . S
H864 C848 0.931 . S
H865 C849 0.930 . S
H866 C904 0.930 . S
H867 C845 0.929 . S
H868 C873 0.931 . S
H869 C874 0.930 . S
N870 Gd850 2.622 . S
N870 C871 1.369 . S
N870 C872 1.338 . S
C871 N870 1.369 . S
C871 C875 1.415 . S
C871 C878 1.422 . S
C872 H863 0.929 . S
C872 N870 1.338 . S
C872 C874 1.378 . S
C873 H868 0.931 . S
C873 C874 1.348 . S
C873 C875 1.413 . S
C874 H869 0.930 . S
C874 C872 1.378 . S
C874 C873 1.348 . S
C875 C871 1.415 . S
C875 C873 1.413 . S
C875 C905 1.437 . S
H876 C905 0.929 . S
N877 Gd850 2.570 . S
N877 C878 1.359 . S
N877 C881 1.343 . S
C878 C871 1.422 . S
C878 N877 1.359 . S
C878 C880 1.421 . S
C879 C880 1.422 . S
C879 C882 1.321 . S
C879 H906 0.931 . S
C880 C878 1.421 . S
C880 C879 1.422 . S
C880 C904 1.417 . S
C881 H858 0.931 . S
C881 N877 1.343 . S
C881 C882 1.390 . S
C882 H860 0.930 . S
C882 C879 1.321 . S
C882 C881 1.390 . S
O883 Gd851 2.386 . S
O883 C895 1.265 . S
O884 Gd850 2.353 . S
O884 C895 1.242 . S
O885 Gd850 2.468 . S
O885 C903 1.263 . S
O886 Gd850 2.427 . S
O886 C903 1.252 . S
O887 Gd851 2.307 . S
O887 C896 1.261 . S
O888 Gd850 2.388 . S
O888 C896 1.252 . S
O889 Gd850 2.386 . S
O889 C907 1.265 . S
O890 Gd851 2.353 . S
O890 C907 1.242 . S
O891 Gd851 2.468 . S
O891 C915 1.263 . S
O892 Gd851 2.427 . S
O892 C915 1.252 . S
O893 Gd850 2.307 . S
O893 C908 1.261 . S
O894 Gd851 2.388 . S
O894 C908 1.252 . S
C895 O883 1.265 . S
C895 O884 1.242 . S
C896 O887 1.261 . S
C896 O888 1.252 . S
C897 C900 1.394 . S
C897 C902 1.370 . S
C897 C903 1.500 . S
C898 C901 1.383 . S
C898 C902 1.395 . S
C899 C900 1.396 . S
C899 C901 1.365 . S
C899 H916 0.929 . S
C900 C897 1.394 . S
C900 C899 1.396 . S
C900 H917 0.930 . S
C901 C898 1.383 . S
C901 C899 1.365 . S
C901 H918 0.931 . S
C902 C897 1.370 . S
C902 C898 1.395 . S
C902 H919 0.930 . S
C903 Gd850 2.805 . S
C903 O885 1.263 . S
C903 O886 1.252 . S
C903 C897 1.500 . S
C904 H866 0.930 . S
C904 C880 1.417 . S
C904 C905 1.329 . S
C905 C875 1.437 . S
C905 H876 0.929 . S
C905 C904 1.329 . S
H906 C879 0.931 . S
C907 O889 1.265 . S
C907 O890 1.242 . S
C908 O893 1.261 . S
C908 O894 1.252 . S
C909 C912 1.394 . S
C909 C914 1.370 . S
C909 C915 1.500 . S
C910 C913 1.383 . S
C910 C914 1.395 . S
C911 C912 1.396 . S
C911 C913 1.365 . S
C911 H920 0.929 . S
C912 C909 1.394 . S
C912 C911 1.396 . S
C912 H921 0.930 . S
C913 C910 1.383 . S
C913 C911 1.365 . S
C913 H922 0.931 . S
C914 C909 1.370 . S
C914 C910 1.395 . S
C914 H923 0.930 . S
C915 Gd851 2.805 . S
C915 O891 1.263 . S
C915 O892 1.252 . S
C915 C909 1.500 . S
H916 C899 0.929 . S
H917 C900 0.930 . S
H918 C901 0.931 . S
H919 C902 0.930 . S
H920 C911 0.929 . S
H921 C912 0.930 . S
H922 C913 0.931 . S
H923 C914 0.930 . S
C924 C926 1.422 . S
C924 C928 1.415 . S
C924 N930 1.369 . S
C925 C926 1.421 . S
C925 C927 1.420 . S
C925 C937 1.422 1_554 S
C926 C924 1.422 . S
C926 C925 1.421 . S
C926 N936 1.359 . S
C927 C925 1.420 . S
C927 C929 1.332 . S
C927 H946 0.924 1_554 S
C928 C924 1.415 . S
C928 C929 1.437 . S
C928 C932 1.413 . S
C929 C927 1.332 . S
C929 C928 1.437 . S
C929 H951 0.929 . S
N930 C924 1.369 . S
N930 C931 1.338 . S
N930 Gd935 2.622 . S
C931 N930 1.338 . S
C931 C933 1.378 . S
C931 H943 0.929 . S
C932 C928 1.413 . S
C932 C933 1.348 . S
C932 H948 0.931 . S
C933 C931 1.378 . S
C933 C932 1.348 . S
C933 H949 0.930 . S
Gd934 N954 2.622 . S
Gd934 N961 2.570 . S
Gd934 O968 2.353 . S
Gd934 O969 2.468 . S
Gd934 O970 2.427 . S
Gd934 O972 2.388 . S
Gd934 O973 2.386 . S
Gd934 O977 2.307 . S
Gd934 C987 2.805 . S
Gd935 N930 2.622 . S
Gd935 N936 2.570 . S
Gd935 O967 2.386 . S
Gd935 O971 2.307 . S
Gd935 O974 2.353 . S
Gd935 O975 2.468 1_554 S
Gd935 O976 2.427 1_554 S
Gd935 O978 2.388 . S
Gd935 C999 2.805 1_554 S
N936 C926 1.359 . S
N936 Gd935 2.570 . S
N936 C938 1.343 . S
C937 C925 1.422 1_556 S
C937 C939 1.321 1_556 S
C937 H945 0.930 . S
C938 N936 1.343 . S
C938 C939 1.390 . S
C938 H940 0.931 . S
C939 C937 1.321 1_554 S
C939 C938 1.390 . S
C939 H941 0.933 . S
H940 C938 0.931 . S
H941 C939 0.933 . S
H942 C965 0.931 . S
H943 C931 0.929 . S
H944 C966 0.930 . S
H945 C937 0.930 . S
H946 C927 0.924 1_556 S
H947 C956 0.929 . S
H948 C932 0.931 . S
H949 C933 0.930 . S
H950 C988 0.930 . S
H951 C929 0.929 . S
H952 C957 0.931 . S
H953 C958 0.930 . S
N954 Gd934 2.622 . S
N954 C955 1.369 . S
N954 C956 1.338 . S
C955 N954 1.369 . S
C955 C959 1.415 . S
C955 C962 1.422 . S
C956 H947 0.929 . S
C956 N954 1.338 . S
C956 C958 1.378 . S
C957 H952 0.931 . S
C957 C958 1.348 . S
C957 C959 1.413 . S
C958 H953 0.930 . S
C958 C956 1.378 . S
C958 C957 1.348 . S
C959 C955 1.415 . S
C959 C957 1.413 . S
C959 C989 1.437 . S
H960 C989 0.929 . S
N961 Gd934 2.570 . S
N961 C962 1.359 . S
N961 C965 1.343 . S
C962 C955 1.422 . S
C962 N961 1.359 . S
C962 C964 1.421 . S
C963 C964 1.422 . S
C963 C966 1.321 . S
C963 H990 0.931 . S
C964 C962 1.421 . S
C964 C963 1.422 . S
C964 C988 1.417 . S
C965 H942 0.931 . S
C965 N961 1.343 . S
C965 C966 1.390 . S
C966 H944 0.930 . S
C966 C963 1.321 . S
C966 C965 1.390 . S
O967 Gd935 2.386 . S
O967 C979 1.265 . S
O968 Gd934 2.353 . S
O968 C979 1.242 . S
O969 Gd934 2.468 . S
O969 C987 1.263 . S
O970 Gd934 2.427 . S
O970 C987 1.252 . S
O971 Gd935 2.307 . S
O971 C980 1.261 . S
O972 Gd934 2.388 . S
O972 C980 1.252 . S
O973 Gd934 2.386 . S
O973 C991 1.265 . S
O974 Gd935 2.353 . S
O974 C991 1.242 . S
O975 Gd935 2.468 1_556 S
O975 C999 1.263 . S
O976 Gd935 2.427 1_556 S
O976 C999 1.252 . S
O977 Gd934 2.307 . S
O977 C992 1.261 . S
O978 Gd935 2.388 . S
O978 C992 1.252 . S
C979 O967 1.265 . S
C979 O968 1.242 . S
C980 O971 1.261 . S
C980 O972 1.252 . S
C981 C984 1.394 . S
C981 C986 1.370 . S
C981 C987 1.500 . S
C982 C985 1.383 . S
C982 C986 1.395 . S
C983 C984 1.396 . S
C983 C985 1.365 . S
C983 H1000 0.929 . S
C984 C981 1.394 . S
C984 C983 1.396 . S
C984 H1001 0.930 . S
C985 C982 1.383 . S
C985 C983 1.365 . S
C985 H1002 0.931 . S
C986 C981 1.370 . S
C986 C982 1.395 . S
C986 H1003 0.930 . S
C987 Gd934 2.805 . S
C987 O969 1.263 . S
C987 O970 1.252 . S
C987 C981 1.500 . S
C988 H950 0.930 . S
C988 C964 1.417 . S
C988 C989 1.329 . S
C989 C959 1.437 . S
C989 H960 0.929 . S
C989 C988 1.329 . S
H990 C963 0.931 . S
C991 O973 1.265 . S
C991 O974 1.242 . S
C992 O977 1.261 . S
C992 O978 1.252 . S
C993 C996 1.394 . S
C993 C998 1.370 . S
C993 C999 1.500 . S
C994 C997 1.383 . S
C994 C998 1.395 . S
C995 C996 1.396 . S
C995 C997 1.365 . S
C995 H1004 0.929 . S
C996 C993 1.394 . S
C996 C995 1.396 . S
C996 H1005 0.930 . S
C997 C994 1.383 . S
C997 C995 1.365 . S
C997 H1006 0.931 . S
C998 C993 1.370 . S
C998 C994 1.395 . S
C998 H1007 0.930 . S
C999 Gd935 2.805 1_556 S
C999 O975 1.263 . S
C999 O976 1.252 . S
C999 C993 1.500 . S
H1000 C983 0.929 . S
H1001 C984 0.930 . S
H1002 C985 0.931 . S
H1003 C986 0.930 . S
H1004 C995 0.929 . S
H1005 C996 0.930 . S
H1006 C997 0.931 . S
H1007 C998 0.930 . S
C1008 C1010 1.422 . S
C1008 C1012 1.415 . S
C1008 N1014 1.369 . S
C1009 C1010 1.421 . S
C1009 C1011 1.417 . S
C1009 C1021 1.422 . S
C1010 C1008 1.422 . S
C1010 C1009 1.421 . S
C1010 N1020 1.359 . S
C1011 C1009 1.417 . S
C1011 C1013 1.329 . S
C1011 H1030 0.930 . S
C1012 C1008 1.415 . S
C1012 C1013 1.437 . S
C1012 C1016 1.413 . S
C1013 C1011 1.329 . S
C1013 C1012 1.437 . S
C1013 H1035 0.929 . S
N1014 C1008 1.369 . S
N1014 C1015 1.338 . S
N1014 Gd1019 2.622 . S
C1015 N1014 1.338 . S
C1015 C1017 1.378 . S
C1015 H1027 0.929 . S
C1016 C1012 1.413 . S
C1016 C1017 1.348 . S
C1016 H1032 0.931 . S
C1017 C1015 1.378 . S
C1017 C1016 1.348 . S
C1017 H1033 0.930 . S
Gd1018 N1038 2.622 . S
Gd1018 N1045 2.570 . S
Gd1018 O1052 2.353 . S
Gd1018 O1053 2.468 1_554 S
Gd1018 O1054 2.427 1_554 S
Gd1018 O1056 2.388 . S
Gd1018 O1057 2.386 . S
Gd1018 O1061 2.307 . S
Gd1018 C1071 2.805 1_554 S
Gd1019 N1014 2.622 . S
Gd1019 N1020 2.570 . S
Gd1019 O1051 2.386 . S
Gd1019 O1055 2.307 . S
Gd1019 O1058 2.353 . S
Gd1019 O1059 2.468 . S
Gd1019 O1060 2.427 . S
Gd1019 O1062 2.388 . S
Gd1019 C1083 2.805 . S
N1020 C1010 1.359 . S
N1020 Gd1019 2.570 . S
N1020 C1022 1.343 . S
C1021 C1009 1.422 . S
C1021 C1023 1.321 . S
C1021 H1029 0.931 . S
C1022 N1020 1.343 . S
C1022 C1023 1.390 . S
C1022 H1024 0.931 . S
C1023 C1021 1.321 . S
C1023 C1022 1.390 . S
C1023 H1025 0.930 . S
H1024 C1022 0.931 . S
H1025 C1023 0.930 . S
H1026 C1049 0.931 . S
H1027 C1015 0.929 . S
H1028 C1050 0.930 1_556 S
H1029 C1021 0.931 . S
H1030 C1011 0.930 . S
H1031 C1040 0.929 . S
H1032 C1016 0.931 . S
H1033 C1017 0.930 . S
H1034 C1072 0.933 . S
H1035 C1013 0.929 . S
H1036 C1041 0.931 . S
H1037 C1042 0.930 . S
N1038 Gd1018 2.622 . S
N1038 C1039 1.369 . S
N1038 C1040 1.338 . S
C1039 N1038 1.369 . S
C1039 C1043 1.415 . S
C1039 C1046 1.422 . S
C1040 H1031 0.929 . S
C1040 N1038 1.338 . S
C1040 C1042 1.378 . S
C1041 H1036 0.931 . S
C1041 C1042 1.348 . S
C1041 C1043 1.413 . S
C1042 H1037 0.930 . S
C1042 C1040 1.378 . S
C1042 C1041 1.348 . S
C1043 C1039 1.415 . S
C1043 C1041 1.413 . S
C1043 C1073 1.437 . S
H1044 C1073 0.929 . S
N1045 Gd1018 2.570 . S
N1045 C1046 1.359 . S
N1045 C1049 1.343 . S
C1046 C1039 1.422 . S
C1046 N1045 1.359 . S
C1046 C1048 1.421 . S
C1047 C1048 1.422 1_556 S
C1047 C1050 1.321 1_556 S
C1047 H1074 0.931 . S
C1048 C1046 1.421 . S
C1048 C1047 1.422 1_554 S
C1048 C1072 1.416 1_554 S
C1049 H1026 0.931 . S
C1049 N1045 1.343 . S
C1049 C1050 1.390 . S
C1050 H1028 0.930 1_554 S
C1050 C1047 1.321 1_554 S
C1050 C1049 1.390 . S
O1051 Gd1019 2.386 . S
O1051 C1063 1.265 . S
O1052 Gd1018 2.353 . S
O1052 C1063 1.242 . S
O1053 Gd1018 2.468 1_556 S
O1053 C1071 1.263 . S
O1054 Gd1018 2.427 1_556 S
O1054 C1071 1.252 . S
O1055 Gd1019 2.307 . S
O1055 C1064 1.261 . S
O1056 Gd1018 2.388 . S
O1056 C1064 1.252 . S
O1057 Gd1018 2.386 . S
O1057 C1075 1.265 . S
O1058 Gd1019 2.353 . S
O1058 C1075 1.242 . S
O1059 Gd1019 2.468 . S
O1059 C1083 1.263 . S
O1060 Gd1019 2.427 . S
O1060 C1083 1.252 . S
O1061 Gd1018 2.307 . S
O1061 C1076 1.261 . S
O1062 Gd1019 2.388 . S
O1062 C1076 1.252 . S
C1063 O1051 1.265 . S
C1063 O1052 1.242 . S
C1064 O1055 1.261 . S
C1064 O1056 1.252 . S
C1065 C1068 1.394 . S
C1065 C1070 1.370 . S
C1065 C1071 1.500 . S
C1066 C1069 1.383 . S
C1066 C1070 1.395 . S
C1067 C1068 1.396 . S
C1067 C1069 1.365 . S
C1067 H1084 0.929 . S
C1068 C1065 1.394 . S
C1068 C1067 1.396 . S
C1068 H1085 0.930 . S
C1069 C1066 1.383 . S
C1069 C1067 1.365 . S
C1069 H1086 0.931 . S
C1070 C1065 1.370 . S
C1070 C1066 1.395 . S
C1070 H1087 0.930 . S
C1071 Gd1018 2.805 1_556 S
C1071 O1053 1.263 . S
C1071 O1054 1.252 . S
C1071 C1065 1.500 . S
C1072 H1034 0.933 . S
C1072 C1048 1.416 1_556 S
C1072 C1073 1.327 1_556 S
C1073 C1043 1.437 . S
C1073 H1044 0.929 . S
C1073 C1072 1.327 1_554 S
H1074 C1047 0.931 . S
C1075 O1057 1.265 . S
C1075 O1058 1.242 . S
C1076 O1061 1.261 . S
C1076 O1062 1.252 . S
C1077 C1080 1.394 . S
C1077 C1082 1.370 . S
C1077 C1083 1.500 . S
C1078 C1081 1.383 . S
C1078 C1082 1.395 . S
C1079 C1080 1.396 . S
C1079 C1081 1.365 . S
C1079 H1088 0.929 . S
C1080 C1077 1.394 . S
C1080 C1079 1.396 . S
C1080 H1089 0.930 . S
C1081 C1078 1.383 . S
C1081 C1079 1.365 . S
C1081 H1090 0.931 . S
C1082 C1077 1.370 . S
C1082 C1078 1.395 . S
C1082 H1091 0.930 . S
C1083 Gd1019 2.805 . S
C1083 O1059 1.263 . S
C1083 O1060 1.252 . S
C1083 C1077 1.500 . S
H1084 C1067 0.929 . S
H1085 C1068 0.930 . S
H1086 C1069 0.931 . S
H1087 C1070 0.930 . S
H1088 C1079 0.929 . S
H1089 C1080 0.930 . S
H1090 C1081 0.931 . S
H1091 C1082 0.930 . S
C1092 C1094 1.422 . S
C1092 C1096 1.415 . S
C1092 N1098 1.369 . S
C1093 C1094 1.421 . S
C1093 C1095 1.417 . S
C1093 C1105 1.422 . S
C1094 C1092 1.422 . S
C1094 C1093 1.421 . S
C1094 N1104 1.359 . S
C1095 C1093 1.417 . S
C1095 C1097 1.329 . S
C1095 H1114 0.930 . S
C1096 C1092 1.415 . S
C1096 C1097 1.437 . S
C1096 C1100 1.413 . S
C1097 C1095 1.329 . S
C1097 C1096 1.437 . S
C1097 H1119 0.929 . S
N1098 C1092 1.369 . S
N1098 C1099 1.338 . S
N1098 Gd1103 2.622 . S
C1099 N1098 1.338 . S
C1099 C1101 1.378 . S
C1099 H1111 0.929 . S
C1100 C1096 1.413 . S
C1100 C1101 1.348 . S
C1100 H1116 0.931 . S
C1101 C1099 1.378 . S
C1101 C1100 1.348 . S
C1101 H1117 0.930 . S
Gd1102 N1122 2.622 . S
Gd1102 N1129 2.570 . S
Gd1102 O1136 2.353 . S
Gd1102 O1137 2.468 1_556 S
Gd1102 O1138 2.427 1_556 S
Gd1102 O1140 2.388 . S
Gd1102 O1141 2.386 . S
Gd1102 O1145 2.307 . S
Gd1102 C1155 2.805 1_556 S
Gd1103 N1098 2.622 . S
Gd1103 N1104 2.570 . S
Gd1103 O1135 2.386 . S
Gd1103 O1139 2.307 . S
Gd1103 O1142 2.353 . S
Gd1103 O1143 2.468 . S
Gd1103 O1144 2.427 . S
Gd1103 O1146 2.388 . S
Gd1103 C1167 2.805 . S
N1104 C1094 1.359 . S
N1104 Gd1103 2.570 . S
N1104 C1106 1.343 . S
C1105 C1093 1.422 . S
C1105 C1107 1.321 . S
C1105 H1113 0.931 . S
C1106 N1104 1.343 . S
C1106 C1107 1.390 . S
C1106 H1108 0.931 . S
C1107 C1105 1.321 . S
C1107 C1106 1.390 . S
C1107 H1109 0.930 . S
H1108 C1106 0.931 . S
H1109 C1107 0.930 . S
H1110 C1133 0.931 . S
H1111 C1099 0.929 . S
H1112 C1134 0.930 . S
H1113 C1105 0.931 . S
H1114 C1095 0.930 . S
H1115 C1124 0.929 . S
H1116 C1100 0.931 . S
H1117 C1101 0.930 . S
H1118 C1156 0.930 1_554 S
H1119 C1097 0.929 . S
H1120 C1125 0.931 . S
H1121 C1126 0.930 . S
N1122 Gd1102 2.622 . S
N1122 C1123 1.369 . S
N1122 C1124 1.338 . S
C1123 N1122 1.369 . S
C1123 C1127 1.415 . S
C1123 C1130 1.422 . S
C1124 H1115 0.929 . S
C1124 N1122 1.338 . S
C1124 C1126 1.378 . S
C1125 H1120 0.931 . S
C1125 C1126 1.348 . S
C1125 C1127 1.413 . S
C1126 H1121 0.930 . S
C1126 C1124 1.378 . S
C1126 C1125 1.348 . S
C1127 C1123 1.415 . S
C1127 C1125 1.413 . S
C1127 C1157 1.437 . S
H1128 C1157 0.929 . S
N1129 Gd1102 2.570 . S
N1129 C1130 1.359 . S
N1129 C1133 1.343 . S
C1130 C1123 1.422 . S
C1130 N1129 1.359 . S
C1130 C1132 1.421 . S
C1131 C1132 1.422 . S
C1131 C1134 1.321 . S
C1131 H1158 0.931 1_556 S
C1132 C1130 1.421 . S
C1132 C1131 1.422 . S
C1132 C1156 1.417 . S
C1133 H1110 0.931 . S
C1133 N1129 1.343 . S
C1133 C1134 1.390 . S
C1134 H1112 0.930 . S
C1134 C1131 1.321 . S
C1134 C1133 1.390 . S
O1135 Gd1103 2.386 . S
O1135 C1147 1.265 . S
O1136 Gd1102 2.353 . S
O1136 C1147 1.242 . S
O1137 Gd1102 2.468 1_554 S
O1137 C1155 1.263 . S
O1138 Gd1102 2.427 1_554 S
O1138 C1155 1.252 . S
O1139 Gd1103 2.307 . S
O1139 C1148 1.261 . S
O1140 Gd1102 2.388 . S
O1140 C1148 1.252 . S
O1141 Gd1102 2.386 . S
O1141 C1159 1.265 . S
O1142 Gd1103 2.353 . S
O1142 C1159 1.242 . S
O1143 Gd1103 2.468 . S
O1143 C1167 1.263 . S
O1144 Gd1103 2.427 . S
O1144 C1167 1.252 . S
O1145 Gd1102 2.307 . S
O1145 C1160 1.261 . S
O1146 Gd1103 2.388 . S
O1146 C1160 1.252 . S
C1147 O1135 1.265 . S
C1147 O1136 1.242 . S
C1148 O1139 1.261 . S
C1148 O1140 1.252 . S
C1149 C1152 1.394 . S
C1149 C1154 1.370 . S
C1149 C1155 1.500 . S
C1150 C1153 1.383 . S
C1150 C1154 1.395 . S
C1151 C1152 1.396 . S
C1151 C1153 1.365 . S
C1151 H1168 0.929 . S
C1152 C1149 1.394 . S
C1152 C1151 1.396 . S
C1152 H1169 0.930 . S
C1153 C1150 1.383 . S
C1153 C1151 1.365 . S
C1153 H1170 0.931 . S
C1154 C1149 1.370 . S
C1154 C1150 1.395 . S
C1154 H1171 0.930 . S
C1155 Gd1102 2.805 1_554 S
C1155 O1137 1.263 . S
C1155 O1138 1.252 . S
C1155 C1149 1.500 . S
C1156 H1118 0.930 1_556 S
C1156 C1132 1.417 . S
C1156 C1157 1.329 . S
C1157 C1127 1.437 . S
C1157 H1128 0.929 . S
C1157 C1156 1.329 . S
H1158 C1131 0.931 1_554 S
C1159 O1141 1.265 . S
C1159 O1142 1.242 . S
C1160 O1145 1.261 . S
C1160 O1146 1.252 . S
C1161 C1164 1.394 . S
C1161 C1166 1.370 . S
C1161 C1167 1.500 . S
C1162 C1165 1.383 . S
C1162 C1166 1.395 . S
C1163 C1164 1.396 . S
C1163 C1165 1.365 . S
C1163 H1172 0.929 . S
C1164 C1161 1.394 . S
C1164 C1163 1.396 . S
C1164 H1173 0.930 . S
C1165 C1162 1.383 . S
C1165 C1163 1.365 . S
C1165 H1174 0.931 . S
C1166 C1161 1.370 . S
C1166 C1162 1.395 . S
C1166 H1175 0.930 . S
C1167 Gd1103 2.805 . S
C1167 O1143 1.263 . S
C1167 O1144 1.252 . S
C1167 C1161 1.500 . S
H1168 C1151 0.929 . S
H1169 C1152 0.930 . S
H1170 C1153 0.931 . S
H1171 C1154 0.930 . S
H1172 C1163 0.929 . S
H1173 C1164 0.930 . S
H1174 C1165 0.931 . S
H1175 C1166 0.930 . S
C1176 C1178 1.422 . S
C1176 C1180 1.415 . S
C1176 N1182 1.369 . S
C1177 C1178 1.421 . S
C1177 C1179 1.417 . S
C1177 C1189 1.422 . S
C1178 C1176 1.422 . S
C1178 C1177 1.421 . S
C1178 N1188 1.359 . S
C1179 C1177 1.417 . S
C1179 C1181 1.329 . S
C1179 H1198 0.930 . S
C1180 C1176 1.415 . S
C1180 C1181 1.437 . S
C1180 C1184 1.413 . S
C1181 C1179 1.329 . S
C1181 C1180 1.437 . S
C1181 H1203 0.929 . S
N1182 C1176 1.369 . S
N1182 C1183 1.338 . S
N1182 Gd1187 2.622 . S
C1183 N1182 1.338 . S
C1183 C1185 1.378 . S
C1183 H1195 0.929 . S
C1184 C1180 1.413 . S
C1184 C1185 1.348 . S
C1184 H1200 0.931 . S
C1185 C1183 1.378 . S
C1185 C1184 1.348 . S
C1185 H1201 0.930 . S
Gd1186 N1206 2.622 . S
Gd1186 N1213 2.570 . S
Gd1186 O1220 2.353 . S
Gd1186 O1221 2.468 . S
Gd1186 O1222 2.427 . S
Gd1186 O1224 2.388 . S
Gd1186 O1225 2.386 . S
Gd1186 O1229 2.307 . S
Gd1186 C1239 2.805 . S
Gd1187 N1182 2.622 . S
Gd1187 N1188 2.570 . S
Gd1187 O1219 2.386 . S
Gd1187 O1223 2.307 . S
Gd1187 O1226 2.353 . S
Gd1187 O1227 2.468 . S
Gd1187 O1228 2.427 . S
Gd1187 O1230 2.388 . S
Gd1187 C1251 2.805 . S
N1188 C1178 1.359 . S
N1188 Gd1187 2.570 . S
N1188 C1190 1.343 . S
C1189 C1177 1.422 . S
C1189 C1191 1.321 . S
C1189 H1197 0.931 . S
C1190 N1188 1.343 . S
C1190 C1191 1.390 . S
C1190 H1192 0.931 . S
C1191 C1189 1.321 . S
C1191 C1190 1.390 . S
C1191 H1193 0.930 . S
H1192 C1190 0.931 . S
H1193 C1191 0.930 . S
H1194 C1217 0.931 . S
H1195 C1183 0.929 . S
H1196 C1218 0.930 . S
H1197 C1189 0.931 . S
H1198 C1179 0.930 . S
H1199 C1208 0.929 . S
H1200 C1184 0.931 . S
H1201 C1185 0.930 . S
H1202 C1240 0.930 . S
H1203 C1181 0.929 . S
H1204 C1209 0.931 . S
H1205 C1210 0.930 . S
N1206 Gd1186 2.622 . S
N1206 C1207 1.369 . S
N1206 C1208 1.338 . S
C1207 N1206 1.369 . S
C1207 C1211 1.415 . S
C1207 C1214 1.422 . S
C1208 H1199 0.929 . S
C1208 N1206 1.338 . S
C1208 C1210 1.378 . S
C1209 H1204 0.931 . S
C1209 C1210 1.348 . S
C1209 C1211 1.413 . S
C1210 H1205 0.930 . S
C1210 C1208 1.378 . S
C1210 C1209 1.348 . S
C1211 C1207 1.415 . S
C1211 C1209 1.413 . S
C1211 C1241 1.437 . S
H1212 C1241 0.929 . S
N1213 Gd1186 2.570 . S
N1213 C1214 1.359 . S
N1213 C1217 1.343 . S
C1214 C1207 1.422 . S
C1214 N1213 1.359 . S
C1214 C1216 1.421 . S
C1215 C1216 1.422 . S
C1215 C1218 1.321 . S
C1215 H1242 0.931 . S
C1216 C1214 1.421 . S
C1216 C1215 1.422 . S
C1216 C1240 1.417 . S
C1217 H1194 0.931 . S
C1217 N1213 1.343 . S
C1217 C1218 1.390 . S
C1218 H1196 0.930 . S
C1218 C1215 1.321 . S
C1218 C1217 1.390 . S
O1219 Gd1187 2.386 . S
O1219 C1231 1.265 . S
O1220 Gd1186 2.353 . S
O1220 C1231 1.242 . S
O1221 Gd1186 2.468 . S
O1221 C1239 1.263 . S
O1222 Gd1186 2.427 . S
O1222 C1239 1.252 . S
O1223 Gd1187 2.307 . S
O1223 C1232 1.261 . S
O1224 Gd1186 2.388 . S
O1224 C1232 1.252 . S
O1225 Gd1186 2.386 . S
O1225 C1243 1.265 . S
O1226 Gd1187 2.353 . S
O1226 C1243 1.242 . S
O1227 Gd1187 2.468 . S
O1227 C1251 1.263 . S
O1228 Gd1187 2.427 . S
O1228 C1251 1.252 . S
O1229 Gd1186 2.307 . S
O1229 C1244 1.261 . S
O1230 Gd1187 2.388 . S
O1230 C1244 1.252 . S
C1231 O1219 1.265 . S
C1231 O1220 1.242 . S
C1232 O1223 1.261 . S
C1232 O1224 1.252 . S
C1233 C1236 1.394 . S
C1233 C1238 1.370 . S
C1233 C1239 1.500 . S
C1234 C1237 1.383 . S
C1234 C1238 1.395 . S
C1235 C1236 1.396 . S
C1235 C1237 1.365 . S
C1235 H1252 0.929 . S
C1236 C1233 1.394 . S
C1236 C1235 1.396 . S
C1236 H1253 0.930 . S
C1237 C1234 1.383 . S
C1237 C1235 1.365 . S
C1237 H1254 0.931 . S
C1238 C1233 1.370 . S
C1238 C1234 1.395 . S
C1238 H1255 0.930 . S
C1239 Gd1186 2.805 . S
C1239 O1221 1.263 . S
C1239 O1222 1.252 . S
C1239 C1233 1.500 . S
C1240 H1202 0.930 . S
C1240 C1216 1.417 . S
C1240 C1241 1.329 . S
C1241 C1211 1.437 . S
C1241 H1212 0.929 . S
C1241 C1240 1.329 . S
H1242 C1215 0.931 . S
C1243 O1225 1.265 . S
C1243 O1226 1.242 . S
C1244 O1229 1.261 . S
C1244 O1230 1.252 . S
C1245 C1248 1.394 . S
C1245 C1250 1.370 . S
C1245 C1251 1.500 . S
C1246 C1249 1.383 . S
C1246 C1250 1.395 . S
C1247 C1248 1.396 . S
C1247 C1249 1.365 . S
C1247 H1256 0.929 . S
C1248 C1245 1.394 . S
C1248 C1247 1.396 . S
C1248 H1257 0.930 . S
C1249 C1246 1.383 . S
C1249 C1247 1.365 . S
C1249 H1258 0.931 . S
C1250 C1245 1.370 . S
C1250 C1246 1.395 . S
C1250 H1259 0.930 . S
C1251 Gd1187 2.805 . S
C1251 O1227 1.263 . S
C1251 O1228 1.252 . S
C1251 C1245 1.500 . S
H1252 C1235 0.929 . S
H1253 C1236 0.930 . S
H1254 C1237 0.931 . S
H1255 C1238 0.930 . S
H1256 C1247 0.929 . S
H1257 C1248 0.930 . S
H1258 C1249 0.931 . S
H1259 C1250 0.930 . S
C1260 C1262 1.422 . S
C1260 C1264 1.415 . S
C1260 N1266 1.369 . S
C1261 C1262 1.421 . S
C1261 C1263 1.417 . S
C1261 C1273 1.422 . S
C1262 C1260 1.422 . S
C1262 C1261 1.421 . S
C1262 N1272 1.359 . S
C1263 C1261 1.417 . S
C1263 C1265 1.329 . S
C1263 H1282 0.930 . S
C1264 C1260 1.415 . S
C1264 C1265 1.437 . S
C1264 C1268 1.413 . S
C1265 C1263 1.329 . S
C1265 C1264 1.437 . S
C1265 H1287 0.929 . S
N1266 C1260 1.369 . S
N1266 C1267 1.338 . S
N1266 Gd1271 2.622 . S
C1267 N1266 1.338 . S
C1267 C1269 1.378 . S
C1267 H1279 0.929 . S
C1268 C1264 1.413 . S
C1268 C1269 1.348 . S
C1268 H1284 0.931 . S
C1269 C1267 1.378 . S
C1269 C1268 1.348 . S
C1269 H1285 0.930 . S
Gd1270 N1290 2.622 . S
Gd1270 N1297 2.570 . S
Gd1270 O1304 2.353 . S
Gd1270 O1305 2.468 . S
Gd1270 O1306 2.427 . S
Gd1270 O1308 2.388 . S
Gd1270 O1309 2.386 . S
Gd1270 O1313 2.307 . S
Gd1270 C1323 2.805 . S
Gd1271 N1266 2.622 . S
Gd1271 N1272 2.570 . S
Gd1271 O1303 2.386 . S
Gd1271 O1307 2.307 . S
Gd1271 O1310 2.353 . S
Gd1271 O1311 2.468 . S
Gd1271 O1312 2.427 . S
Gd1271 O1314 2.388 . S
Gd1271 C1335 2.805 . S
N1272 C1262 1.359 . S
N1272 Gd1271 2.570 . S
N1272 C1274 1.343 . S
C1273 C1261 1.422 . S
C1273 C1275 1.321 . S
C1273 H1281 0.931 . S
C1274 N1272 1.343 . S
C1274 C1275 1.390 . S
C1274 H1276 0.931 . S
C1275 C1273 1.321 . S
C1275 C1274 1.390 . S
C1275 H1277 0.930 . S
H1276 C1274 0.931 . S
H1277 C1275 0.930 . S
H1278 C1301 0.931 . S
H1279 C1267 0.929 . S
H1280 C1302 0.930 . S
H1281 C1273 0.931 . S
H1282 C1263 0.930 . S
H1283 C1292 0.929 . S
H1284 C1268 0.931 . S
H1285 C1269 0.930 . S
H1286 C1324 0.930 . S
H1287 C1265 0.929 . S
H1288 C1293 0.931 . S
H1289 C1294 0.930 . S
N1290 Gd1270 2.622 . S
N1290 C1291 1.369 . S
N1290 C1292 1.338 . S
C1291 N1290 1.369 . S
C1291 C1295 1.415 . S
C1291 C1298 1.422 . S
C1292 H1283 0.929 . S
C1292 N1290 1.338 . S
C1292 C1294 1.378 . S
C1293 H1288 0.931 . S
C1293 C1294 1.348 . S
C1293 C1295 1.413 . S
C1294 H1289 0.930 . S
C1294 C1292 1.378 . S
C1294 C1293 1.348 . S
C1295 C1291 1.415 . S
C1295 C1293 1.413 . S
C1295 C1325 1.437 . S
H1296 C1325 0.929 . S
N1297 Gd1270 2.570 . S
N1297 C1298 1.359 . S
N1297 C1301 1.343 . S
C1298 C1291 1.422 . S
C1298 N1297 1.359 . S
C1298 C1300 1.421 . S
C1299 C1300 1.422 . S
C1299 C1302 1.321 . S
C1299 H1326 0.931 . S
C1300 C1298 1.421 . S
C1300 C1299 1.422 . S
C1300 C1324 1.417 . S
C1301 H1278 0.931 . S
C1301 N1297 1.343 . S
C1301 C1302 1.390 . S
C1302 H1280 0.930 . S
C1302 C1299 1.321 . S
C1302 C1301 1.390 . S
O1303 Gd1271 2.386 . S
O1303 C1315 1.265 . S
O1304 Gd1270 2.353 . S
O1304 C1315 1.242 . S
O1305 Gd1270 2.468 . S
O1305 C1323 1.263 . S
O1306 Gd1270 2.427 . S
O1306 C1323 1.252 . S
O1307 Gd1271 2.307 . S
O1307 C1316 1.261 . S
O1308 Gd1270 2.388 . S
O1308 C1316 1.252 . S
O1309 Gd1270 2.386 . S
O1309 C1327 1.265 . S
O1310 Gd1271 2.353 . S
O1310 C1327 1.242 . S
O1311 Gd1271 2.468 . S
O1311 C1335 1.263 . S
O1312 Gd1271 2.427 . S
O1312 C1335 1.252 . S
O1313 Gd1270 2.307 . S
O1313 C1328 1.261 . S
O1314 Gd1271 2.388 . S
O1314 C1328 1.252 . S
C1315 O1303 1.265 . S
C1315 O1304 1.242 . S
C1316 O1307 1.261 . S
C1316 O1308 1.252 . S
C1317 C1320 1.394 . S
C1317 C1322 1.370 . S
C1317 C1323 1.500 . S
C1318 C1321 1.383 . S
C1318 C1322 1.395 . S
C1319 C1320 1.396 . S
C1319 C1321 1.365 . S
C1319 H1336 0.929 . S
C1320 C1317 1.394 . S
C1320 C1319 1.396 . S
C1320 H1337 0.930 . S
C1321 C1318 1.383 . S
C1321 C1319 1.365 . S
C1321 H1338 0.931 . S
C1322 C1317 1.370 . S
C1322 C1318 1.395 . S
C1322 H1339 0.930 . S
C1323 Gd1270 2.805 . S
C1323 O1305 1.263 . S
C1323 O1306 1.252 . S
C1323 C1317 1.500 . S
C1324 H1286 0.930 . S
C1324 C1300 1.417 . S
C1324 C1325 1.329 . S
C1325 C1295 1.437 . S
C1325 H1296 0.929 . S
C1325 C1324 1.329 . S
H1326 C1299 0.931 . S
C1327 O1309 1.265 . S
C1327 O1310 1.242 . S
C1328 O1313 1.261 . S
C1328 O1314 1.252 . S
C1329 C1332 1.394 . S
C1329 C1334 1.370 . S
C1329 C1335 1.500 . S
C1330 C1333 1.383 . S
C1330 C1334 1.395 . S
C1331 C1332 1.396 . S
C1331 C1333 1.365 . S
C1331 H1340 0.929 . S
C1332 C1329 1.394 . S
C1332 C1331 1.396 . S
C1332 H1341 0.930 . S
C1333 C1330 1.383 . S
C1333 C1331 1.365 . S
C1333 H1342 0.931 . S
C1334 C1329 1.370 . S
C1334 C1330 1.395 . S
C1334 H1343 0.930 . S
C1335 Gd1271 2.805 . S
C1335 O1311 1.263 . S
C1335 O1312 1.252 . S
C1335 C1329 1.500 . S
H1336 C1319 0.929 . S
H1337 C1320 0.930 . S
H1338 C1321 0.931 . S
H1339 C1322 0.930 . S
H1340 C1331 0.929 . S
H1341 C1332 0.930 . S
H1342 C1333 0.931 . S
H1343 C1334 0.930 . S
H1344 C1352 0.929 . S
H1345 C1354 0.930 . S
H1346 C1356 0.930 . S
H1347 C1359 0.929 . S
H1348 C1362 0.930 . S
H1349 C1364 0.960 . S
H1350 C1364 0.960 . S
H1351 C1364 0.960 . S
C1352 H1344 0.929 . S
C1352 C1353 1.377 . S
C1352 C1354 1.384 . S
C1353 C1352 1.377 . S
C1353 C1359 1.390 . S
C1354 H1345 0.930 . S
C1354 C1352 1.384 . S
C1354 C1355 1.372 . S
C1355 C1354 1.372 . S
C1355 C1356 1.400 . S
C1355 C1360 1.490 . S
C1356 H1346 0.930 . S
C1356 C1355 1.400 . S
C1356 C1359 1.386 . S
H1357 C1373 0.930 . S
H1358 C1374 0.931 . S
C1359 H1347 0.929 . S
C1359 C1353 1.390 . S
C1359 C1356 1.386 . S
C1360 C1355 1.490 . S
C1360 C1362 1.395 . S
C1360 C1363 1.403 . S
H1361 C1367 0.930 . S
C1362 H1348 0.930 . S
C1362 C1360 1.395 . S
C1362 C1365 1.403 . S
C1363 C1360 1.403 . S
C1363 C1364 1.524 . S
C1363 C1367 1.400 . S
C1364 H1349 0.960 . S
C1364 H1350 0.960 . S
C1364 H1351 0.960 . S
C1364 C1363 1.524 . S
C1365 C1362 1.403 . S
C1365 C1366 1.392 . S
C1365 C1369 1.495 . S
C1366 C1365 1.392 . S
C1366 C1367 1.385 . S
C1366 C1368 1.478 . S
C1367 H1361 0.930 . S
C1367 C1363 1.400 . S
C1367 C1366 1.385 . S
C1368 C1366 1.478 . S
C1368 C1370 1.381 . S
C1368 C1374 1.383 . S
C1369 C1365 1.495 . S
C1369 H1375 0.959 . S
C1369 H1376 0.961 . S
C1369 H1377 0.960 . S
C1370 C1368 1.381 . S
C1370 C1371 1.394 . S
C1370 H1378 0.930 . S
C1371 C1370 1.394 . S
C1371 C1372 1.383 . S
C1371 H1379 0.929 . S
C1372 C1371 1.383 . S
C1372 C1373 1.377 . S
C1373 H1357 0.930 . S
C1373 C1372 1.377 . S
C1373 C1374 1.379 . S
C1374 H1358 0.931 . S
C1374 C1368 1.383 . S
C1374 C1373 1.379 . S
H1375 C1369 0.959 . S
H1376 C1369 0.961 . S
H1377 C1369 0.960 . S
H1378 C1370 0.930 . S
H1379 C1371 0.929 . S
H1380 C1388 0.929 . S
H1381 C1390 0.935 . S
H1382 C1392 0.930 . S
H1383 C1395 0.929 . S
H1384 C1398 0.930 . S
H1385 C1400 0.960 . S
H1386 C1400 0.960 . S
H1387 C1400 0.960 . S
C1388 H1380 0.929 . S
C1388 C1389 1.377 . S
C1388 C1390 1.370 1_554 S
C1389 C1388 1.377 . S
C1389 C1395 1.390 . S
C1390 H1381 0.935 . S
C1390 C1388 1.370 1_556 S
C1390 C1391 1.381 . S
C1391 C1390 1.381 . S
C1391 C1392 1.400 . S
C1391 C1396 1.490 . S
C1392 H1382 0.930 . S
C1392 C1391 1.400 . S
C1392 C1395 1.386 1_556 S
H1393 C1409 0.930 . S
H1394 C1410 0.931 . S
C1395 H1383 0.929 . S
C1395 C1389 1.390 . S
C1395 C1392 1.386 1_554 S
C1396 C1391 1.490 . S
C1396 C1398 1.395 . S
C1396 C1399 1.403 . S
H1397 C1403 0.930 . S
C1398 H1384 0.930 . S
C1398 C1396 1.395 . S
C1398 C1401 1.403 . S
C1399 C1396 1.403 . S
C1399 C1400 1.524 . S
C1399 C1403 1.400 . S
C1400 H1385 0.960 . S
C1400 H1386 0.960 . S
C1400 H1387 0.960 . S
C1400 C1399 1.524 . S
C1401 C1398 1.403 . S
C1401 C1402 1.392 . S
C1401 C1405 1.495 . S
C1402 C1401 1.392 . S
C1402 C1403 1.385 . S
C1402 C1404 1.478 . S
C1403 H1397 0.930 . S
C1403 C1399 1.400 . S
C1403 C1402 1.385 . S
C1404 C1402 1.478 . S
C1404 C1406 1.381 . S
C1404 C1410 1.383 . S
C1405 C1401 1.495 . S
C1405 H1411 0.959 . S
C1405 H1412 0.961 . S
C1405 H1413 0.960 . S
C1406 C1404 1.381 . S
C1406 C1407 1.394 . S
C1406 H1414 0.930 . S
C1407 C1406 1.394 . S
C1407 C1408 1.383 . S
C1407 H1415 0.929 . S
C1408 C1407 1.383 . S
C1408 C1409 1.377 . S
C1409 H1393 0.930 . S
C1409 C1408 1.377 . S
C1409 C1410 1.379 . S
C1410 H1394 0.931 . S
C1410 C1404 1.383 . S
C1410 C1409 1.379 . S
H1411 C1405 0.959 . S
H1412 C1405 0.961 . S
H1413 C1405 0.960 . S
H1414 C1406 0.930 . S
H1415 C1407 0.929 . S
H1416 C1424 0.929 . S
H1417 C1426 0.930 . S
H1418 C1428 0.930 . S
H1419 C1431 0.929 . S
H1420 C1434 0.930 . S
H1421 C1436 0.960 . S
H1422 C1436 0.960 . S
H1423 C1436 0.960 . S
C1424 H1416 0.929 . S
C1424 C1425 1.377 . S
C1424 C1426 1.384 . S
C1425 C1424 1.377 . S
C1425 C1431 1.390 . S
C1426 H1417 0.930 . S
C1426 C1424 1.384 . S
C1426 C1427 1.372 . S
C1427 C1426 1.372 . S
C1427 C1428 1.400 . S
C1427 C1432 1.490 . S
C1428 H1418 0.930 . S
C1428 C1427 1.400 . S
C1428 C1431 1.386 . S
H1429 C1445 0.930 . S
H1430 C1446 0.931 . S
C1431 H1419 0.929 . S
C1431 C1425 1.390 . S
C1431 C1428 1.386 . S
C1432 C1427 1.490 . S
C1432 C1434 1.395 . S
C1432 C1435 1.403 . S
H1433 C1439 0.930 . S
C1434 H1420 0.930 . S
C1434 C1432 1.395 . S
C1434 C1437 1.403 . S
C1435 C1432 1.403 . S
C1435 C1436 1.524 . S
C1435 C1439 1.400 . S
C1436 H1421 0.960 . S
C1436 H1422 0.960 . S
C1436 H1423 0.960 . S
C1436 C1435 1.524 . S
C1437 C1434 1.403 . S
C1437 C1438 1.392 . S
C1437 C1441 1.495 . S
C1438 C1437 1.392 . S
C1438 C1439 1.385 . S
C1438 C1440 1.478 . S
C1439 H1433 0.930 . S
C1439 C1435 1.400 . S
C1439 C1438 1.385 . S
C1440 C1438 1.478 . S
C1440 C1442 1.381 . S
C1440 C1446 1.383 . S
C1441 C1437 1.495 . S
C1441 H1447 0.959 . S
C1441 H1448 0.961 . S
C1441 H1449 0.960 . S
C1442 C1440 1.381 . S
C1442 C1443 1.394 1_554 S
C1442 H1450 0.930 . S
C1443 C1442 1.394 1_556 S
C1443 C1444 1.383 . S
C1443 H1451 0.929 . S
C1444 C1443 1.383 . S
C1444 C1445 1.377 . S
C1445 H1429 0.930 . S
C1445 C1444 1.377 . S
C1445 C1446 1.379 1_556 S
C1446 H1430 0.931 . S
C1446 C1440 1.383 . S
C1446 C1445 1.379 1_554 S
H1447 C1441 0.959 . S
H1448 C1441 0.961 . S
H1449 C1441 0.960 . S
H1450 C1442 0.930 . S
H1451 C1443 0.929 . S
H1452 C1460 0.929 . S
H1453 C1462 0.930 . S
H1454 C1464 0.930 . S
H1455 C1467 0.929 . S
H1456 C1470 0.930 . S
H1457 C1472 0.960 . S
H1458 C1472 0.960 . S
H1459 C1472 0.960 . S
C1460 H1452 0.929 . S
C1460 C1461 1.377 . S
C1460 C1462 1.384 . S
C1461 C1460 1.377 . S
C1461 C1467 1.390 . S
C1462 H1453 0.930 . S
C1462 C1460 1.384 . S
C1462 C1463 1.372 . S
C1463 C1462 1.372 . S
C1463 C1464 1.400 . S
C1463 C1468 1.490 . S
C1464 H1454 0.930 . S
C1464 C1463 1.400 . S
C1464 C1467 1.386 . S
H1465 C1481 0.930 . S
H1466 C1482 0.931 . S
C1467 H1455 0.929 . S
C1467 C1461 1.390 . S
C1467 C1464 1.386 . S
C1468 C1463 1.490 . S
C1468 C1470 1.395 . S
C1468 C1471 1.403 . S
H1469 C1475 0.930 . S
C1470 H1456 0.930 . S
C1470 C1468 1.395 . S
C1470 C1473 1.403 . S
C1471 C1468 1.403 . S
C1471 C1472 1.524 . S
C1471 C1475 1.400 . S
C1472 H1457 0.960 . S
C1472 H1458 0.960 . S
C1472 H1459 0.960 . S
C1472 C1471 1.524 . S
C1473 C1470 1.403 . S
C1473 C1474 1.392 . S
C1473 C1477 1.495 . S
C1474 C1473 1.392 . S
C1474 C1475 1.385 . S
C1474 C1476 1.478 . S
C1475 H1469 0.930 . S
C1475 C1471 1.400 . S
C1475 C1474 1.385 . S
C1476 C1474 1.478 . S
C1476 C1478 1.381 . S
C1476 C1482 1.383 . S
C1477 C1473 1.495 . S
C1477 H1483 0.959 . S
C1477 H1484 0.961 . S
C1477 H1485 0.960 . S
C1478 C1476 1.381 . S
C1478 C1479 1.394 . S
C1478 H1486 0.930 . S
C1479 C1478 1.394 . S
C1479 C1480 1.383 . S
C1479 H1487 0.929 . S
C1480 C1479 1.383 . S
C1480 C1481 1.377 . S
C1481 H1465 0.930 . S
C1481 C1480 1.377 . S
C1481 C1482 1.379 . S
C1482 H1466 0.931 . S
C1482 C1476 1.383 . S
C1482 C1481 1.379 . S
H1483 C1477 0.959 . S
H1484 C1477 0.961 . S
H1485 C1477 0.960 . S
H1486 C1478 0.930 . S
H1487 C1479 0.929 . S
H1488 C1496 0.929 . S
H1489 C1498 0.930 . S
H1490 C1500 0.930 . S
H1491 C1503 0.929 . S
H1492 C1506 0.930 . S
H1493 C1508 0.960 . S
H1494 C1508 0.960 . S
H1495 C1508 0.960 . S
C1496 H1488 0.929 . S
C1496 C1497 1.377 . S
C1496 C1498 1.384 . S
C1497 C1496 1.377 . S
C1497 C1503 1.390 . S
C1498 H1489 0.930 . S
C1498 C1496 1.384 . S
C1498 C1499 1.372 . S
C1499 C1498 1.372 . S
C1499 C1500 1.400 . S
C1499 C1504 1.490 . S
C1500 H1490 0.930 . S
C1500 C1499 1.400 . S
C1500 C1503 1.386 . S
H1501 C1517 0.930 . S
H1502 C1518 0.931 . S
C1503 H1491 0.929 . S
C1503 C1497 1.390 . S
C1503 C1500 1.386 . S
C1504 C1499 1.490 . S
C1504 C1506 1.395 . S
C1504 C1507 1.403 . S
H1505 C1511 0.930 . S
C1506 H1492 0.930 . S
C1506 C1504 1.395 . S
C1506 C1509 1.403 . S
C1507 C1504 1.403 . S
C1507 C1508 1.524 . S
C1507 C1511 1.400 . S
C1508 H1493 0.960 . S
C1508 H1494 0.960 . S
C1508 H1495 0.960 . S
C1508 C1507 1.524 . S
C1509 C1506 1.403 . S
C1509 C1510 1.392 . S
C1509 C1513 1.495 . S
C1510 C1509 1.392 . S
C1510 C1511 1.385 . S
C1510 C1512 1.478 . S
C1511 H1505 0.930 . S
C1511 C1507 1.400 . S
C1511 C1510 1.385 . S
C1512 C1510 1.478 . S
C1512 C1514 1.381 . S
C1512 C1518 1.383 . S
C1513 C1509 1.495 . S
C1513 H1519 0.959 . S
C1513 H1520 0.961 . S
C1513 H1521 0.960 . S
C1514 C1512 1.381 . S
C1514 C1515 1.394 . S
C1514 H1522 0.930 . S
C1515 C1514 1.394 . S
C1515 C1516 1.383 . S
C1515 H1523 0.929 . S
C1516 C1515 1.383 . S
C1516 C1517 1.377 . S
C1517 H1501 0.930 . S
C1517 C1516 1.377 . S
C1517 C1518 1.379 . S
C1518 H1502 0.931 . S
C1518 C1512 1.383 . S
C1518 C1517 1.379 . S
H1519 C1513 0.959 . S
H1520 C1513 0.961 . S
H1521 C1513 0.960 . S
H1522 C1514 0.930 . S
H1523 C1515 0.929 . S
H1524 C1532 0.929 . S
H1525 C1534 0.930 . S
H1526 C1536 0.930 . S
H1527 C1539 0.929 . S
H1528 C1542 0.930 . S
H1529 C1544 0.960 . S
H1530 C1544 0.960 . S
H1531 C1544 0.960 . S
C1532 H1524 0.929 . S
C1532 C1533 1.377 . S
C1532 C1534 1.384 . S
C1533 C1532 1.377 . S
C1533 C1539 1.390 . S
C1534 H1525 0.930 . S
C1534 C1532 1.384 . S
C1534 C1535 1.372 . S
C1535 C1534 1.372 . S
C1535 C1536 1.400 . S
C1535 C1540 1.490 . S
C1536 H1526 0.930 . S
C1536 C1535 1.400 . S
C1536 C1539 1.386 . S
H1537 C1553 0.930 . S
H1538 C1554 0.931 . S
C1539 H1527 0.929 . S
C1539 C1533 1.390 . S
C1539 C1536 1.386 . S
C1540 C1535 1.490 . S
C1540 C1542 1.395 . S
C1540 C1543 1.403 . S
H1541 C1547 0.930 . S
C1542 H1528 0.930 . S
C1542 C1540 1.395 . S
C1542 C1545 1.403 . S
C1543 C1540 1.403 . S
C1543 C1544 1.524 . S
C1543 C1547 1.400 . S
C1544 H1529 0.960 . S
C1544 H1530 0.960 . S
C1544 H1531 0.960 . S
C1544 C1543 1.524 . S
C1545 C1542 1.403 . S
C1545 C1546 1.392 . S
C1545 C1549 1.495 . S
C1546 C1545 1.392 . S
C1546 C1547 1.385 . S
C1546 C1548 1.478 . S
C1547 H1541 0.930 . S
C1547 C1543 1.400 . S
C1547 C1546 1.385 . S
C1548 C1546 1.478 . S
C1548 C1550 1.381 . S
C1548 C1554 1.383 . S
C1549 C1545 1.495 . S
C1549 H1555 0.959 . S
C1549 H1556 0.961 . S
C1549 H1557 0.960 . S
C1550 C1548 1.381 . S
C1550 C1551 1.394 . S
C1550 H1558 0.930 . S
C1551 C1550 1.394 . S
C1551 C1552 1.383 . S
C1551 H1559 0.929 . S
C1552 C1551 1.383 . S
C1552 C1553 1.377 . S
C1553 H1537 0.930 . S
C1553 C1552 1.377 . S
C1553 C1554 1.379 . S
C1554 H1538 0.931 . S
C1554 C1548 1.383 . S
C1554 C1553 1.379 . S
H1555 C1549 0.959 . S
H1556 C1549 0.961 . S
H1557 C1549 0.960 . S
H1558 C1550 0.930 . S
H1559 C1551 0.929 . S
H1560 C1568 0.929 . S
H1561 C1570 0.930 . S
H1562 C1572 0.930 . S
H1563 C1575 0.929 . S
H1564 C1578 0.930 . S
H1565 C1580 0.960 . S
H1566 C1580 0.960 . S
H1567 C1580 0.960 . S
C1568 H1560 0.929 . S
C1568 C1569 1.377 . S
C1568 C1570 1.384 . S
C1569 C1568 1.377 . S
C1569 C1575 1.390 . S
C1570 H1561 0.930 . S
C1570 C1568 1.384 . S
C1570 C1571 1.372 . S
C1571 C1570 1.372 . S
C1571 C1572 1.400 . S
C1571 C1576 1.490 . S
C1572 H1562 0.930 . S
C1572 C1571 1.400 . S
C1572 C1575 1.386 . S
H1573 C1589 0.930 . S
H1574 C1590 0.931 . S
C1575 H1563 0.929 . S
C1575 C1569 1.390 . S
C1575 C1572 1.386 . S
C1576 C1571 1.490 . S
C1576 C1578 1.395 . S
C1576 C1579 1.403 . S
H1577 C1583 0.930 . S
C1578 H1564 0.930 . S
C1578 C1576 1.395 . S
C1578 C1581 1.403 . S
C1579 C1576 1.403 . S
C1579 C1580 1.524 . S
C1579 C1583 1.400 . S
C1580 H1565 0.960 . S
C1580 H1566 0.960 . S
C1580 H1567 0.960 . S
C1580 C1579 1.524 . S
C1581 C1578 1.403 . S
C1581 C1582 1.392 . S
C1581 C1585 1.495 . S
C1582 C1581 1.392 . S
C1582 C1583 1.385 . S
C1582 C1584 1.478 . S
C1583 H1577 0.930 . S
C1583 C1579 1.400 . S
C1583 C1582 1.385 . S
C1584 C1582 1.478 . S
C1584 C1586 1.381 . S
C1584 C1590 1.383 . S
C1585 C1581 1.495 . S
C1585 H1591 0.959 . S
C1585 H1592 0.961 . S
C1585 H1593 0.960 . S
C1586 C1584 1.381 . S
C1586 C1587 1.394 1_556 S
C1586 H1594 0.930 . S
C1587 C1586 1.394 1_554 S
C1587 C1588 1.383 . S
C1587 H1595 0.929 . S
C1588 C1587 1.383 . S
C1588 C1589 1.377 . S
C1589 H1573 0.930 . S
C1589 C1588 1.377 . S
C1589 C1590 1.379 1_554 S
C1590 H1574 0.931 . S
C1590 C1584 1.383 . S
C1590 C1589 1.379 1_556 S
H1591 C1585 0.959 . S
H1592 C1585 0.961 . S
H1593 C1585 0.960 . S
H1594 C1586 0.930 . S
H1595 C1587 0.929 . S
H1596 C1604 0.929 . S
H1597 C1606 0.930 . S
H1598 C1608 0.930 . S
H1599 C1611 0.929 . S
H1600 C1614 0.930 . S
H1601 C1616 0.960 . S
H1602 C1616 0.960 . S
H1603 C1616 0.960 . S
C1604 H1596 0.929 . S
C1604 C1605 1.377 . S
C1604 C1606 1.384 1_556 S
C1605 C1604 1.377 . S
C1605 C1611 1.390 . S
C1606 H1597 0.930 . S
C1606 C1604 1.384 1_554 S
C1606 C1607 1.372 . S
C1607 C1606 1.372 . S
C1607 C1608 1.400 . S
C1607 C1612 1.490 . S
C1608 H1598 0.930 . S
C1608 C1607 1.400 . S
C1608 C1611 1.386 1_554 S
H1609 C1625 0.930 . S
H1610 C1626 0.931 . S
C1611 H1599 0.929 . S
C1611 C1605 1.390 . S
C1611 C1608 1.386 1_556 S
C1612 C1607 1.490 . S
C1612 C1614 1.395 . S
C1612 C1615 1.403 . S
H1613 C1619 0.930 . S
C1614 H1600 0.930 . S
C1614 C1612 1.395 . S
C1614 C1617 1.403 . S
C1615 C1612 1.403 . S
C1615 C1616 1.524 . S
C1615 C1619 1.400 . S
C1616 H1601 0.960 . S
C1616 H1602 0.960 . S
C1616 H1603 0.960 . S
C1616 C1615 1.524 . S
C1617 C1614 1.403 . S
C1617 C1618 1.392 . S
C1617 C1621 1.495 . S
C1618 C1617 1.392 . S
C1618 C1619 1.385 . S
C1618 C1620 1.478 . S
C1619 H1613 0.930 . S
C1619 C1615 1.400 . S
C1619 C1618 1.385 . S
C1620 C1618 1.478 . S
C1620 C1622 1.381 . S
C1620 C1626 1.383 . S
C1621 C1617 1.495 . S
C1621 H1627 0.959 . S
C1621 H1628 0.961 . S
C1621 H1629 0.960 . S
C1622 C1620 1.381 . S
C1622 C1623 1.394 . S
C1622 H1630 0.930 . S
C1623 C1622 1.394 . S
C1623 C1624 1.383 . S
C1623 H1631 0.929 . S
C1624 C1623 1.383 . S
C1624 C1625 1.377 . S
C1625 H1609 0.930 . S
C1625 C1624 1.377 . S
C1625 C1626 1.379 . S
C1626 H1610 0.931 . S
C1626 C1620 1.383 . S
C1626 C1625 1.379 . S
H1627 C1621 0.959 . S
H1628 C1621 0.961 . S
H1629 C1621 0.960 . S
H1630 C1622 0.930 . S
H1631 C1623 0.929 . S
H1632 C1640 0.929 . S
H1633 C1642 0.930 . S
H1634 C1644 0.930 . S
H1635 C1647 0.929 . S
H1636 C1650 0.930 . S
H1637 C1652 0.960 . S
H1638 C1652 0.960 . S
H1639 C1652 0.960 . S
C1640 H1632 0.929 . S
C1640 C1641 1.377 . S
C1640 C1642 1.384 . S
C1641 C1640 1.377 . S
C1641 C1647 1.390 . S
C1642 H1633 0.930 . S
C1642 C1640 1.384 . S
C1642 C1643 1.372 . S
C1643 C1642 1.372 . S
C1643 C1644 1.400 . S
C1643 C1648 1.490 . S
C1644 H1634 0.930 . S
C1644 C1643 1.400 . S
C1644 C1647 1.386 . S
H1645 C1661 0.930 . S
H1646 C1662 0.931 . S
C1647 H1635 0.929 . S
C1647 C1641 1.390 . S
C1647 C1644 1.386 . S
C1648 C1643 1.490 . S
C1648 C1650 1.395 . S
C1648 C1651 1.403 . S
H1649 C1655 0.930 . S
C1650 H1636 0.930 . S
C1650 C1648 1.395 . S
C1650 C1653 1.403 . S
C1651 C1648 1.403 . S
C1651 C1652 1.524 . S
C1651 C1655 1.400 . S
C1652 H1637 0.960 . S
C1652 H1638 0.960 . S
C1652 H1639 0.960 . S
C1652 C1651 1.524 . S
C1653 C1650 1.403 . S
C1653 C1654 1.392 . S
C1653 C1657 1.495 . S
C1654 C1653 1.392 . S
C1654 C1655 1.385 . S
C1654 C1656 1.478 . S
C1655 H1649 0.930 . S
C1655 C1651 1.400 . S
C1655 C1654 1.385 . S
C1656 C1654 1.478 . S
C1656 C1658 1.381 . S
C1656 C1662 1.383 . S
C1657 C1653 1.495 . S
C1657 H1663 0.959 . S
C1657 H1664 0.961 . S
C1657 H1665 0.960 . S
C1658 C1656 1.381 . S
C1658 C1659 1.394 . S
C1658 H1666 0.930 . S
C1659 C1658 1.394 . S
C1659 C1660 1.383 . S
C1659 H1667 0.929 . S
C1660 C1659 1.383 . S
C1660 C1661 1.377 . S
C1661 H1645 0.930 . S
C1661 C1660 1.377 . S
C1661 C1662 1.379 . S
C1662 H1646 0.931 . S
C1662 C1656 1.383 . S
C1662 C1661 1.379 . S
H1663 C1657 0.959 . S
H1664 C1657 0.961 . S
H1665 C1657 0.960 . S
H1666 C1658 0.930 . S
H1667 C1659 0.929 . S
H1668 C1676 0.929 . S
H1669 C1678 0.930 . S
H1670 C1680 0.930 . S
H1671 C1683 0.929 . S
H1672 C1686 0.930 . S
H1673 C1688 0.960 . S
H1674 C1688 0.960 . S
H1675 C1688 0.960 . S
C1676 H1668 0.929 . S
C1676 C1677 1.377 . S
C1676 C1678 1.384 . S
C1677 C1676 1.377 . S
C1677 C1683 1.390 . S
C1678 H1669 0.930 . S
C1678 C1676 1.384 . S
C1678 C1679 1.372 . S
C1679 C1678 1.372 . S
C1679 C1680 1.400 . S
C1679 C1684 1.490 . S
C1680 H1670 0.930 . S
C1680 C1679 1.400 . S
C1680 C1683 1.386 . S
H1681 C1697 0.930 . S
H1682 C1698 0.931 . S
C1683 H1671 0.929 . S
C1683 C1677 1.390 . S
C1683 C1680 1.386 . S
C1684 C1679 1.490 . S
C1684 C1686 1.395 . S
C1684 C1687 1.403 . S
H1685 C1691 0.930 . S
C1686 H1672 0.930 . S
C1686 C1684 1.395 . S
C1686 C1689 1.403 . S
C1687 C1684 1.403 . S
C1687 C1688 1.524 . S
C1687 C1691 1.400 . S
C1688 H1673 0.960 . S
C1688 H1674 0.960 . S
C1688 H1675 0.960 . S
C1688 C1687 1.524 . S
C1689 C1686 1.403 . S
C1689 C1690 1.392 . S
C1689 C1693 1.495 . S
C1690 C1689 1.392 . S
C1690 C1691 1.385 . S
C1690 C1692 1.478 . S
C1691 H1685 0.930 . S
C1691 C1687 1.400 . S
C1691 C1690 1.385 . S
C1692 C1690 1.478 . S
C1692 C1694 1.381 . S
C1692 C1698 1.383 . S
C1693 C1689 1.495 . S
C1693 H1699 0.959 . S
C1693 H1700 0.961 . S
C1693 H1701 0.960 . S
C1694 C1692 1.381 . S
C1694 C1695 1.394 1_554 S
C1694 H1702 0.930 . S
C1695 C1694 1.394 1_556 S
C1695 C1696 1.383 . S
C1695 H1703 0.929 . S
C1696 C1695 1.383 . S
C1696 C1697 1.377 . S
C1697 H1681 0.930 . S
C1697 C1696 1.377 . S
C1697 C1698 1.379 1_556 S
C1698 H1682 0.931 . S
C1698 C1692 1.383 . S
C1698 C1697 1.379 1_554 S
H1699 C1693 0.959 . S
H1700 C1693 0.961 . S
H1701 C1693 0.960 . S
H1702 C1694 0.930 . S
H1703 C1695 0.929 . S
H1704 C1712 0.929 . S
H1705 C1714 0.930 . S
H1706 C1716 0.930 . S
H1707 C1719 0.929 . S
H1708 C1722 0.930 . S
H1709 C1724 0.960 . S
H1710 C1724 0.960 . S
H1711 C1724 0.960 . S
C1712 H1704 0.929 . S
C1712 C1713 1.377 . S
C1712 C1714 1.384 1_554 S
C1713 C1712 1.377 . S
C1713 C1719 1.390 . S
C1714 H1705 0.930 . S
C1714 C1712 1.384 1_556 S
C1714 C1715 1.372 . S
C1715 C1714 1.372 . S
C1715 C1716 1.400 . S
C1715 C1720 1.490 . S
C1716 H1706 0.930 . S
C1716 C1715 1.400 . S
C1716 C1719 1.386 1_556 S
H1717 C1733 0.930 . S
H1718 C1734 0.931 . S
C1719 H1707 0.929 . S
C1719 C1713 1.390 . S
C1719 C1716 1.386 1_554 S
C1720 C1715 1.490 . S
C1720 C1722 1.395 . S
C1720 C1723 1.403 . S
H1721 C1727 0.930 . S
C1722 H1708 0.930 . S
C1722 C1720 1.395 . S
C1722 C1725 1.403 . S
C1723 C1720 1.403 . S
C1723 C1724 1.524 . S
C1723 C1727 1.400 . S
C1724 H1709 0.960 . S
C1724 H1710 0.960 . S
C1724 H1711 0.960 . S
C1724 C1723 1.524 . S
C1725 C1722 1.403 . S
C1725 C1726 1.392 . S
C1725 C1729 1.495 . S
C1726 C1725 1.392 . S
C1726 C1727 1.385 . S
C1726 C1728 1.478 . S
C1727 H1721 0.930 . S
C1727 C1723 1.400 . S
C1727 C1726 1.385 . S
C1728 C1726 1.478 . S
C1728 C1730 1.381 . S
C1728 C1734 1.383 . S
C1729 C1725 1.495 . S
C1729 H1735 0.959 . S
C1729 H1736 0.961 . S
C1729 H1737 0.960 . S
C1730 C1728 1.381 . S
C1730 C1731 1.394 . S
C1730 H1738 0.930 . S
C1731 C1730 1.394 . S
C1731 C1732 1.383 . S
C1731 H1739 0.929 . S
C1732 C1731 1.383 . S
C1732 C1733 1.377 . S
C1733 H1717 0.930 . S
C1733 C1732 1.377 . S
C1733 C1734 1.379 . S
C1734 H1718 0.931 . S
C1734 C1728 1.383 . S
C1734 C1733 1.379 . S
H1735 C1729 0.959 . S
H1736 C1729 0.961 . S
H1737 C1729 0.960 . S
H1738 C1730 0.930 . S
H1739 C1731 0.929 . S
H1740 C1748 0.929 . S
H1741 C1750 0.930 . S
H1742 C1752 0.930 . S
H1743 C1755 0.929 . S
H1744 C1758 0.930 . S
H1745 C1760 0.960 . S
H1746 C1760 0.960 . S
H1747 C1760 0.960 . S
C1748 H1740 0.929 . S
C1748 C1749 1.377 . S
C1748 C1750 1.384 . S
C1749 C1748 1.377 . S
C1749 C1755 1.390 . S
C1750 H1741 0.930 . S
C1750 C1748 1.384 . S
C1750 C1751 1.372 . S
C1751 C1750 1.372 . S
C1751 C1752 1.400 . S
C1751 C1756 1.490 . S
C1752 H1742 0.930 . S
C1752 C1751 1.400 . S
C1752 C1755 1.386 . S
H1753 C1769 0.930 . S
H1754 C1770 0.931 . S
C1755 H1743 0.929 . S
C1755 C1749 1.390 . S
C1755 C1752 1.386 . S
C1756 C1751 1.490 . S
C1756 C1758 1.395 . S
C1756 C1759 1.403 . S
H1757 C1763 0.930 . S
C1758 H1744 0.930 . S
C1758 C1756 1.395 . S
C1758 C1761 1.403 . S
C1759 C1756 1.403 . S
C1759 C1760 1.524 . S
C1759 C1763 1.400 . S
C1760 H1745 0.960 . S
C1760 H1746 0.960 . S
C1760 H1747 0.960 . S
C1760 C1759 1.524 . S
C1761 C1758 1.403 . S
C1761 C1762 1.392 . S
C1761 C1765 1.495 . S
C1762 C1761 1.392 . S
C1762 C1763 1.385 . S
C1762 C1764 1.478 . S
C1763 H1757 0.930 . S
C1763 C1759 1.400 . S
C1763 C1762 1.385 . S
C1764 C1762 1.478 . S
C1764 C1766 1.381 . S
C1764 C1770 1.383 . S
C1765 C1761 1.495 . S
C1765 H1771 0.959 . S
C1765 H1772 0.961 . S
C1765 H1773 0.960 . S
C1766 C1764 1.381 . S
C1766 C1767 1.394 . S
C1766 H1774 0.930 . S
C1767 C1766 1.394 . S
C1767 C1768 1.383 . S
C1767 H1775 0.929 . S
C1768 C1767 1.383 . S
C1768 C1769 1.377 . S
C1769 H1753 0.930 . S
C1769 C1768 1.377 . S
C1769 C1770 1.379 . S
C1770 H1754 0.931 . S
C1770 C1764 1.383 . S
C1770 C1769 1.379 . S
H1771 C1765 0.959 . S
H1772 C1765 0.961 . S
H1773 C1765 0.960 . S
H1774 C1766 0.930 . S
H1775 C1767 0.929 . S
H1776 C1784 0.929 . S
H1777 C1786 0.930 . S
H1778 C1788 0.930 . S
H1779 C1791 0.929 . S
H1780 C1794 0.930 . S
H1781 C1796 0.960 . S
H1782 C1796 0.960 . S
H1783 C1796 0.960 . S
C1784 H1776 0.929 . S
C1784 C1785 1.377 . S
C1784 C1786 1.384 . S
C1785 C1784 1.377 . S
C1785 C1791 1.390 . S
C1786 H1777 0.930 . S
C1786 C1784 1.384 . S
C1786 C1787 1.372 . S
C1787 C1786 1.372 . S
C1787 C1788 1.400 . S
C1787 C1792 1.490 . S
C1788 H1778 0.930 . S
C1788 C1787 1.400 . S
C1788 C1791 1.386 . S
H1789 C1805 0.930 . S
H1790 C1806 0.931 . S
C1791 H1779 0.929 . S
C1791 C1785 1.390 . S
C1791 C1788 1.386 . S
C1792 C1787 1.490 . S
C1792 C1794 1.395 . S
C1792 C1795 1.403 . S
H1793 C1799 0.930 . S
C1794 H1780 0.930 . S
C1794 C1792 1.395 . S
C1794 C1797 1.403 . S
C1795 C1792 1.403 . S
C1795 C1796 1.524 . S
C1795 C1799 1.400 . S
C1796 H1781 0.960 . S
C1796 H1782 0.960 . S
C1796 H1783 0.960 . S
C1796 C1795 1.524 . S
C1797 C1794 1.403 . S
C1797 C1798 1.392 . S
C1797 C1801 1.495 . S
C1798 C1797 1.392 . S
C1798 C1799 1.385 . S
C1798 C1800 1.478 . S
C1799 H1793 0.930 . S
C1799 C1795 1.400 . S
C1799 C1798 1.385 . S
C1800 C1798 1.478 . S
C1800 C1802 1.381 . S
C1800 C1806 1.383 . S
C1801 C1797 1.495 . S
C1801 H1807 0.959 . S
C1801 H1808 0.961 . S
C1801 H1809 0.960 . S
C1802 C1800 1.381 . S
C1802 C1803 1.394 . S
C1802 H1810 0.930 . S
C1803 C1802 1.394 . S
C1803 C1804 1.383 . S
C1803 H1811 0.929 . S
C1804 C1803 1.383 . S
C1804 C1805 1.377 . S
C1805 H1789 0.930 . S
C1805 C1804 1.377 . S
C1805 C1806 1.379 . S
C1806 H1790 0.931 . S
C1806 C1800 1.383 . S
C1806 C1805 1.379 . S
H1807 C1801 0.959 . S
H1808 C1801 0.961 . S
H1809 C1801 0.960 . S
H1810 C1802 0.930 . S
H1811 C1803 0.929 . S
H1812 C1820 0.929 . S
H1813 C1822 0.930 . S
H1814 C1824 0.930 . S
H1815 C1827 0.929 . S
H1816 C1830 0.930 . S
H1817 C1832 0.960 . S
H1818 C1832 0.960 . S
H1819 C1832 0.960 . S
C1820 H1812 0.929 . S
C1820 C1821 1.377 . S
C1820 C1822 1.384 . S
C1821 C1820 1.377 . S
C1821 C1827 1.390 . S
C1822 H1813 0.930 . S
C1822 C1820 1.384 . S
C1822 C1823 1.372 . S
C1823 C1822 1.372 . S
C1823 C1824 1.400 . S
C1823 C1828 1.490 . S
C1824 H1814 0.930 . S
C1824 C1823 1.400 . S
C1824 C1827 1.386 . S
H1825 C1841 0.930 . S
H1826 C1842 0.931 . S
C1827 H1815 0.929 . S
C1827 C1821 1.390 . S
C1827 C1824 1.386 . S
C1828 C1823 1.490 . S
C1828 C1830 1.395 . S
C1828 C1831 1.403 . S
H1829 C1835 0.930 . S
C1830 H1816 0.930 . S
C1830 C1828 1.395 . S
C1830 C1833 1.403 . S
C1831 C1828 1.403 . S
C1831 C1832 1.524 . S
C1831 C1835 1.400 . S
C1832 H1817 0.960 . S
C1832 H1818 0.960 . S
C1832 H1819 0.960 . S
C1832 C1831 1.524 . S
C1833 C1830 1.403 . S
C1833 C1834 1.392 . S
C1833 C1837 1.495 . S
C1834 C1833 1.392 . S
C1834 C1835 1.385 . S
C1834 C1836 1.478 . S
C1835 H1829 0.930 . S
C1835 C1831 1.400 . S
C1835 C1834 1.385 . S
C1836 C1834 1.478 . S
C1836 C1838 1.381 . S
C1836 C1842 1.383 . S
C1837 C1833 1.495 . S
C1837 H1843 0.959 . S
C1837 H1844 0.961 . S
C1837 H1845 0.960 . S
C1838 C1836 1.381 . S
C1838 C1839 1.394 . S
C1838 H1846 0.930 . S
C1839 C1838 1.394 . S
C1839 C1840 1.383 . S
C1839 H1847 0.929 . S
C1840 C1839 1.383 . S
C1840 C1841 1.377 . S
C1841 H1825 0.930 . S
C1841 C1840 1.377 . S
C1841 C1842 1.379 . S
C1842 H1826 0.931 . S
C1842 C1836 1.383 . S
C1842 C1841 1.379 . S
H1843 C1837 0.959 . S
H1844 C1837 0.961 . S
H1845 C1837 0.960 . S
H1846 C1838 0.930 . S
H1847 C1839 0.929 . S
H1848 C1856 0.929 . S
H1849 C1858 0.930 . S
H1850 C1860 0.930 . S
H1851 C1863 0.929 . S
H1852 C1866 0.930 . S
H1853 C1868 0.960 . S
H1854 C1868 0.960 . S
H1855 C1868 0.960 . S
C1856 H1848 0.929 . S
C1856 C1857 1.377 . S
C1856 C1858 1.384 . S
C1857 C1856 1.377 . S
C1857 C1863 1.390 . S
C1858 H1849 0.930 . S
C1858 C1856 1.384 . S
C1858 C1859 1.372 . S
C1859 C1858 1.372 . S
C1859 C1860 1.400 . S
C1859 C1864 1.490 . S
C1860 H1850 0.930 . S
C1860 C1859 1.400 . S
C1860 C1863 1.386 . S
H1861 C1877 0.930 . S
H1862 C1878 0.931 . S
C1863 H1851 0.929 . S
C1863 C1857 1.390 . S
C1863 C1860 1.386 . S
C1864 C1859 1.490 . S
C1864 C1866 1.395 . S
C1864 C1867 1.403 . S
H1865 C1871 0.930 . S
C1866 H1852 0.930 . S
C1866 C1864 1.395 . S
C1866 C1869 1.403 . S
C1867 C1864 1.403 . S
C1867 C1868 1.524 . S
C1867 C1871 1.400 . S
C1868 H1853 0.960 . S
C1868 H1854 0.960 . S
C1868 H1855 0.960 . S
C1868 C1867 1.524 . S
C1869 C1866 1.403 . S
C1869 C1870 1.392 . S
C1869 C1873 1.495 . S
C1870 C1869 1.392 . S
C1870 C1871 1.385 . S
C1870 C1872 1.478 . S
C1871 H1865 0.930 . S
C1871 C1867 1.400 . S
C1871 C1870 1.385 . S
C1872 C1870 1.478 . S
C1872 C1874 1.381 . S
C1872 C1878 1.383 . S
C1873 C1869 1.495 . S
C1873 H1879 0.959 . S
C1873 H1880 0.961 . S
C1873 H1881 0.960 . S
C1874 C1872 1.381 . S
C1874 C1875 1.394 1_554 S
C1874 H1882 0.930 . S
C1875 C1874 1.394 1_556 S
C1875 C1876 1.383 . S
C1875 H1883 0.929 . S
C1876 C1875 1.383 . S
C1876 C1877 1.377 . S
C1877 H1861 0.930 . S
C1877 C1876 1.377 . S
C1877 C1878 1.379 1_556 S
C1878 H1862 0.931 . S
C1878 C1872 1.383 . S
C1878 C1877 1.379 1_554 S
H1879 C1873 0.959 . S
H1880 C1873 0.961 . S
H1881 C1873 0.960 . S
H1882 C1874 0.930 . S
H1883 C1875 0.929 . S
H1884 C1892 0.929 . S
H1885 C1894 0.937 . S
H1886 C1896 0.930 . S
H1887 C1899 0.929 . S
H1888 C1902 0.930 . S
H1889 C1904 0.960 . S
H1890 C1904 0.960 . S
H1891 C1904 0.960 . S
C1892 H1884 0.929 . S
C1892 C1893 1.377 . S
C1892 C1894 1.359 1_554 S
C1893 C1892 1.377 . S
C1893 C1899 1.390 . S
C1894 H1885 0.937 . S
C1894 C1892 1.359 1_556 S
C1894 C1895 1.389 . S
C1895 C1894 1.389 . S
C1895 C1896 1.400 . S
C1895 C1900 1.490 . S
C1896 H1886 0.930 . S
C1896 C1895 1.400 . S
C1896 C1899 1.386 1_556 S
H1897 C1913 0.930 . S
H1898 C1914 0.931 . S
C1899 H1887 0.929 . S
C1899 C1893 1.390 . S
C1899 C1896 1.386 1_554 S
C1900 C1895 1.490 . S
C1900 C1902 1.395 . S
C1900 C1903 1.403 . S
H1901 C1907 0.930 . S
C1902 H1888 0.930 . S
C1902 C1900 1.395 . S
C1902 C1905 1.403 . S
C1903 C1900 1.403 . S
C1903 C1904 1.524 . S
C1903 C1907 1.400 . S
C1904 H1889 0.960 . S
C1904 H1890 0.960 . S
C1904 H1891 0.960 . S
C1904 C1903 1.524 . S
C1905 C1902 1.403 . S
C1905 C1906 1.392 . S
C1905 C1909 1.495 . S
C1906 C1905 1.392 . S
C1906 C1907 1.385 . S
C1906 C1908 1.478 . S
C1907 H1901 0.930 . S
C1907 C1903 1.400 . S
C1907 C1906 1.385 . S
C1908 C1906 1.478 . S
C1908 C1910 1.381 . S
C1908 C1914 1.383 . S
C1909 C1905 1.495 . S
C1909 H1915 0.959 . S
C1909 H1916 0.961 . S
C1909 H1917 0.960 . S
C1910 C1908 1.381 . S
C1910 C1911 1.394 . S
C1910 H1918 0.930 . S
C1911 C1910 1.394 . S
C1911 C1912 1.383 . S
C1911 H1919 0.929 . S
C1912 C1911 1.383 . S
C1912 C1913 1.377 . S
C1913 H1897 0.930 . S
C1913 C1912 1.377 . S
C1913 C1914 1.379 . S
C1914 H1898 0.931 . S
C1914 C1908 1.383 . S
C1914 C1913 1.379 . S
H1915 C1909 0.959 . S
H1916 C1909 0.961 . S
H1917 C1909 0.960 . S
H1918 C1910 0.930 . S
H1919 C1911 0.929 . S
H1920 C1928 0.929 . S
H1921 C1930 0.930 . S
H1922 C1932 0.930 . S
H1923 C1935 0.929 . S
H1924 C1938 0.930 . S
H1925 C1940 0.960 . S
H1926 C1940 0.960 . S
H1927 C1940 0.960 . S
C1928 H1920 0.929 . S
C1928 C1929 1.377 . S
C1928 C1930 1.384 . S
C1929 C1928 1.377 . S
C1929 C1935 1.390 . S
C1930 H1921 0.930 . S
C1930 C1928 1.384 . S
C1930 C1931 1.372 . S
C1931 C1930 1.372 . S
C1931 C1932 1.400 . S
C1931 C1936 1.490 . S
C1932 H1922 0.930 . S
C1932 C1931 1.400 . S
C1932 C1935 1.386 . S
H1933 C1949 0.930 . S
H1934 C1950 0.931 . S
C1935 H1923 0.929 . S
C1935 C1929 1.390 . S
C1935 C1932 1.386 . S
C1936 C1931 1.490 . S
C1936 C1938 1.395 . S
C1936 C1939 1.403 . S
H1937 C1943 0.930 . S
C1938 H1924 0.930 . S
C1938 C1936 1.395 . S
C1938 C1941 1.403 . S
C1939 C1936 1.403 . S
C1939 C1940 1.524 . S
C1939 C1943 1.400 . S
C1940 H1925 0.960 . S
C1940 H1926 0.960 . S
C1940 H1927 0.960 . S
C1940 C1939 1.524 . S
C1941 C1938 1.403 . S
C1941 C1942 1.392 . S
C1941 C1945 1.495 . S
C1942 C1941 1.392 . S
C1942 C1943 1.385 . S
C1942 C1944 1.478 . S
C1943 H1937 0.930 . S
C1943 C1939 1.400 . S
C1943 C1942 1.385 . S
C1944 C1942 1.478 . S
C1944 C1946 1.381 . S
C1944 C1950 1.383 . S
C1945 C1941 1.495 . S
C1945 H1951 0.959 . S
C1945 H1952 0.961 . S
C1945 H1953 0.960 . S
C1946 C1944 1.381 . S
C1946 C1947 1.394 . S
C1946 H1954 0.930 . S
C1947 C1946 1.394 . S
C1947 C1948 1.383 . S
C1947 H1955 0.929 . S
C1948 C1947 1.383 . S
C1948 C1949 1.377 . S
C1949 H1933 0.930 . S
C1949 C1948 1.377 . S
C1949 C1950 1.379 . S
C1950 H1934 0.931 . S
C1950 C1944 1.383 . S
C1950 C1949 1.379 . S
H1951 C1945 0.959 . S
H1952 C1945 0.961 . S
H1953 C1945 0.960 . S
H1954 C1946 0.930 . S
H1955 C1947 0.929 . S
H1956 C1964 0.929 . S
H1957 C1966 0.930 . S
H1958 C1968 0.930 . S
H1959 C1971 0.929 . S
H1960 C1974 0.930 . S
H1961 C1976 0.960 . S
H1962 C1976 0.960 . S
H1963 C1976 0.960 . S
C1964 H1956 0.929 . S
C1964 C1965 1.377 . S
C1964 C1966 1.384 . S
C1965 C1964 1.377 . S
C1965 C1971 1.390 . S
C1966 H1957 0.930 . S
C1966 C1964 1.384 . S
C1966 C1967 1.372 . S
C1967 C1966 1.372 . S
C1967 C1968 1.400 . S
C1967 C1972 1.490 . S
C1968 H1958 0.930 . S
C1968 C1967 1.400 . S
C1968 C1971 1.386 . S
H1969 C1985 0.930 . S
H1970 C1986 0.931 . S
C1971 H1959 0.929 . S
C1971 C1965 1.390 . S
C1971 C1968 1.386 . S
C1972 C1967 1.490 . S
C1972 C1974 1.395 . S
C1972 C1975 1.403 . S
H1973 C1979 0.930 . S
C1974 H1960 0.930 . S
C1974 C1972 1.395 . S
C1974 C1977 1.403 . S
C1975 C1972 1.403 . S
C1975 C1976 1.524 . S
C1975 C1979 1.400 . S
C1976 H1961 0.960 . S
C1976 H1962 0.960 . S
C1976 H1963 0.960 . S
C1976 C1975 1.524 . S
C1977 C1974 1.403 . S
C1977 C1978 1.392 . S
C1977 C1981 1.495 . S
C1978 C1977 1.392 . S
C1978 C1979 1.385 . S
C1978 C1980 1.478 . S
C1979 H1973 0.930 . S
C1979 C1975 1.400 . S
C1979 C1978 1.385 . S
C1980 C1978 1.478 . S
C1980 C1982 1.381 . S
C1980 C1986 1.383 . S
C1981 C1977 1.495 . S
C1981 H1987 0.959 . S
C1981 H1988 0.961 . S
C1981 H1989 0.960 . S
C1982 C1980 1.381 . S
C1982 C1983 1.394 . S
C1982 H1990 0.930 . S
C1983 C1982 1.394 . S
C1983 C1984 1.383 . S
C1983 H1991 0.929 . S
C1984 C1983 1.383 . S
C1984 C1985 1.377 . S
C1985 H1969 0.930 . S
C1985 C1984 1.377 . S
C1985 C1986 1.379 . S
C1986 H1970 0.931 . S
C1986 C1980 1.383 . S
C1986 C1985 1.379 . S
H1987 C1981 0.959 . S
H1988 C1981 0.961 . S
H1989 C1981 0.960 . S
H1990 C1982 0.930 . S
H1991 C1983 0.929 . S
H1992 C2000 0.929 . S
H1993 C2002 0.930 . S
H1994 C2004 0.930 . S
H1995 C2007 0.929 . S
H1996 C2010 0.930 . S
H1997 C2012 0.960 . S
H1998 C2012 0.960 . S
H1999 C2012 0.960 . S
C2000 H1992 0.929 . S
C2000 C2001 1.377 . S
C2000 C2002 1.384 . S
C2001 C2000 1.377 . S
C2001 C2007 1.390 . S
C2002 H1993 0.930 . S
C2002 C2000 1.384 . S
C2002 C2003 1.372 . S
C2003 C2002 1.372 . S
C2003 C2004 1.400 . S
C2003 C2008 1.490 . S
C2004 H1994 0.930 . S
C2004 C2003 1.400 . S
C2004 C2007 1.386 . S
H2005 C2021 0.930 . S
H2006 C2022 0.931 . S
C2007 H1995 0.929 . S
C2007 C2001 1.390 . S
C2007 C2004 1.386 . S
C2008 C2003 1.490 . S
C2008 C2010 1.395 . S
C2008 C2011 1.403 . S
H2009 C2015 0.930 . S
C2010 H1996 0.930 . S
C2010 C2008 1.395 . S
C2010 C2013 1.403 . S
C2011 C2008 1.403 . S
C2011 C2012 1.524 . S
C2011 C2015 1.400 . S
C2012 H1997 0.960 . S
C2012 H1998 0.960 . S
C2012 H1999 0.960 . S
C2012 C2011 1.524 . S
C2013 C2010 1.403 . S
C2013 C2014 1.392 . S
C2013 C2017 1.495 . S
C2014 C2013 1.392 . S
C2014 C2015 1.385 . S
C2014 C2016 1.478 . S
C2015 H2009 0.930 . S
C2015 C2011 1.400 . S
C2015 C2014 1.385 . S
C2016 C2014 1.478 . S
C2016 C2018 1.381 . S
C2016 C2022 1.383 . S
C2017 C2013 1.495 . S
C2017 H2023 0.959 . S
C2017 H2024 0.961 . S
C2017 H2025 0.960 . S
C2018 C2016 1.381 . S
C2018 C2019 1.394 . S
C2018 H2026 0.930 . S
C2019 C2018 1.394 . S
C2019 C2020 1.383 . S
C2019 H2027 0.929 . S
C2020 C2019 1.383 . S
C2020 C2021 1.377 . S
C2021 H2005 0.930 . S
C2021 C2020 1.377 . S
C2021 C2022 1.379 . S
C2022 H2006 0.931 . S
C2022 C2016 1.383 . S
C2022 C2021 1.379 . S
H2023 C2017 0.959 . S
H2024 C2017 0.961 . S
H2025 C2017 0.960 . S
H2026 C2018 0.930 . S
H2027 C2019 0.929 . S
H2028 C2036 0.929 . S
H2029 C2038 0.930 . S
H2030 C2040 0.930 . S
H2031 C2043 0.929 . S
H2032 C2046 0.930 . S
H2033 C2048 0.960 . S
H2034 C2048 0.960 . S
H2035 C2048 0.960 . S
C2036 H2028 0.929 . S
C2036 C2037 1.377 . S
C2036 C2038 1.384 . S
C2037 C2036 1.377 . S
C2037 C2043 1.390 . S
C2038 H2029 0.930 . S
C2038 C2036 1.384 . S
C2038 C2039 1.372 . S
C2039 C2038 1.372 . S
C2039 C2040 1.400 . S
C2039 C2044 1.490 . S
C2040 H2030 0.930 . S
C2040 C2039 1.400 . S
C2040 C2043 1.386 . S
H2041 C2057 0.930 . S
H2042 C2058 0.931 . S
C2043 H2031 0.929 . S
C2043 C2037 1.390 . S
C2043 C2040 1.386 . S
C2044 C2039 1.490 . S
C2044 C2046 1.395 . S
C2044 C2047 1.403 . S
H2045 C2051 0.930 . S
C2046 H2032 0.930 . S
C2046 C2044 1.395 . S
C2046 C2049 1.403 1_655 S
C2047 C2044 1.403 . S
C2047 C2048 1.524 . S
C2047 C2051 1.400 1_655 S
C2048 H2033 0.960 . S
C2048 H2034 0.960 . S
C2048 H2035 0.960 . S
C2048 C2047 1.524 . S
C2049 C2046 1.403 1_455 S
C2049 C2050 1.392 . S
C2049 C2053 1.495 . S
C2050 C2049 1.392 . S
C2050 C2051 1.385 . S
C2050 C2052 1.478 . S
C2051 H2045 0.930 . S
C2051 C2047 1.400 1_455 S
C2051 C2050 1.385 . S
C2052 C2050 1.478 . S
C2052 C2054 1.381 . S
C2052 C2058 1.383 . S
C2053 C2049 1.495 . S
C2053 H2059 0.959 1_556 S
C2053 H2060 0.961 . S
C2053 H2061 0.960 1_556 S
C2054 C2052 1.381 . S
C2054 C2055 1.394 . S
C2054 H2062 0.930 . S
C2055 C2054 1.394 . S
C2055 C2056 1.383 . S
C2055 H2063 0.929 . S
C2056 C2055 1.383 . S
C2056 C2057 1.377 . S
C2057 H2041 0.930 . S
C2057 C2056 1.377 . S
C2057 C2058 1.379 . S
C2058 H2042 0.931 . S
C2058 C2052 1.383 . S
C2058 C2057 1.379 . S
H2059 C2053 0.959 1_554 S
H2060 C2053 0.961 . S
H2061 C2053 0.960 1_554 S
H2062 C2054 0.930 . S
H2063 C2055 0.929 . S
H2064 C2072 0.929 . S
H2065 C2074 0.930 . S
H2066 C2076 0.930 . S
H2067 C2079 0.929 . S
H2068 C2082 0.930 . S
H2069 C2084 0.960 . S
H2070 C2084 0.960 . S
H2071 C2084 0.960 . S
C2072 H2064 0.929 . S
C2072 C2073 1.377 . S
C2072 C2074 1.384 . S
C2073 C2072 1.377 . S
C2073 C2079 1.390 . S
C2074 H2065 0.930 . S
C2074 C2072 1.384 . S
C2074 C2075 1.372 . S
C2075 C2074 1.372 . S
C2075 C2076 1.400 . S
C2075 C2080 1.490 . S
C2076 H2066 0.930 . S
C2076 C2075 1.400 . S
C2076 C2079 1.386 . S
H2077 C2093 0.930 . S
H2078 C2094 0.931 . S
C2079 H2067 0.929 . S
C2079 C2073 1.390 . S
C2079 C2076 1.386 . S
C2080 C2075 1.490 . S
C2080 C2082 1.395 . S
C2080 C2083 1.403 . S
H2081 C2087 0.930 . S
C2082 H2068 0.930 . S
C2082 C2080 1.395 . S
C2082 C2085 1.403 . S
C2083 C2080 1.403 . S
C2083 C2084 1.524 . S
C2083 C2087 1.400 . S
C2084 H2069 0.960 . S
C2084 H2070 0.960 . S
C2084 H2071 0.960 . S
C2084 C2083 1.524 . S
C2085 C2082 1.403 . S
C2085 C2086 1.392 . S
C2085 C2089 1.495 . S
C2086 C2085 1.392 . S
C2086 C2087 1.385 . S
C2086 C2088 1.478 . S
C2087 H2081 0.930 . S
C2087 C2083 1.400 . S
C2087 C2086 1.385 . S
C2088 C2086 1.478 . S
C2088 C2090 1.381 . S
C2088 C2094 1.383 . S
C2089 C2085 1.495 . S
C2089 H2095 0.959 . S
C2089 H2096 0.961 . S
C2089 H2097 0.960 . S
C2090 C2088 1.381 . S
C2090 C2091 1.394 . S
C2090 H2098 0.930 . S
C2091 C2090 1.394 . S
C2091 C2092 1.383 . S
C2091 H2099 0.929 . S
C2092 C2091 1.383 . S
C2092 C2093 1.377 . S
C2093 H2077 0.930 . S
C2093 C2092 1.377 . S
C2093 C2094 1.379 . S
C2094 H2078 0.931 . S
C2094 C2088 1.383 . S
C2094 C2093 1.379 . S
H2095 C2089 0.959 . S
H2096 C2089 0.961 . S
H2097 C2089 0.960 . S
H2098 C2090 0.930 . S
H2099 C2091 0.929 . S
H2100 C2108 0.929 . S
H2101 C2110 0.930 . S
H2102 C2112 0.930 . S
H2103 C2115 0.929 . S
H2104 C2118 0.930 . S
H2105 C2120 0.960 . S
H2106 C2120 0.960 . S
H2107 C2120 0.960 . S
C2108 H2100 0.929 . S
C2108 C2109 1.377 . S
C2108 C2110 1.384 . S
C2109 C2108 1.377 . S
C2109 C2115 1.390 . S
C2110 H2101 0.930 . S
C2110 C2108 1.384 . S
C2110 C2111 1.372 . S
C2111 C2110 1.372 . S
C2111 C2112 1.400 . S
C2111 C2116 1.490 . S
C2112 H2102 0.930 . S
C2112 C2111 1.400 . S
C2112 C2115 1.386 . S
H2113 C2129 0.930 . S
H2114 C2130 0.931 . S
C2115 H2103 0.929 . S
C2115 C2109 1.390 . S
C2115 C2112 1.386 . S
C2116 C2111 1.490 . S
C2116 C2118 1.395 . S
C2116 C2119 1.403 . S
H2117 C2123 0.930 . S
C2118 H2104 0.930 . S
C2118 C2116 1.395 . S
C2118 C2121 1.403 1_455 S
C2119 C2116 1.403 . S
C2119 C2120 1.524 . S
C2119 C2123 1.400 1_455 S
C2120 H2105 0.960 . S
C2120 H2106 0.960 . S
C2120 H2107 0.960 . S
C2120 C2119 1.524 . S
C2121 C2118 1.403 1_655 S
C2121 C2122 1.392 . S
C2121 C2125 1.495 . S
C2122 C2121 1.392 . S
C2122 C2123 1.385 . S
C2122 C2124 1.478 . S
C2123 H2117 0.930 . S
C2123 C2119 1.400 1_655 S
C2123 C2122 1.385 . S
C2124 C2122 1.478 . S
C2124 C2126 1.381 . S
C2124 C2130 1.383 . S
C2125 C2121 1.495 . S
C2125 H2131 0.959 1_554 S
C2125 H2132 0.961 1_554 S
C2125 H2133 0.960 . S
C2126 C2124 1.381 . S
C2126 C2127 1.394 . S
C2126 H2134 0.930 . S
C2127 C2126 1.394 . S
C2127 C2128 1.383 . S
C2127 H2135 0.929 . S
C2128 C2127 1.383 . S
C2128 C2129 1.377 . S
C2129 H2113 0.930 . S
C2129 C2128 1.377 . S
C2129 C2130 1.379 . S
C2130 H2114 0.931 . S
C2130 C2124 1.383 . S
C2130 C2129 1.379 . S
H2131 C2125 0.959 1_556 S
H2132 C2125 0.961 1_556 S
H2133 C2125 0.960 . S
H2134 C2126 0.930 . S
H2135 C2127 0.929 . S
H2136 C2144 0.929 . S
H2137 C2146 0.930 . S
H2138 C2148 0.930 . S
H2139 C2151 0.929 . S
H2140 C2154 0.930 . S
H2141 C2156 0.960 . S
H2142 C2156 0.960 . S
H2143 C2156 0.960 . S
C2144 H2136 0.929 . S
C2144 C2145 1.377 . S
C2144 C2146 1.384 . S
C2145 C2144 1.377 . S
C2145 C2151 1.390 . S
C2146 H2137 0.930 . S
C2146 C2144 1.384 . S
C2146 C2147 1.372 . S
C2147 C2146 1.372 . S
C2147 C2148 1.400 . S
C2147 C2152 1.490 . S
C2148 H2138 0.930 . S
C2148 C2147 1.400 . S
C2148 C2151 1.386 . S
H2149 C2165 0.930 . S
H2150 C2166 0.931 . S
C2151 H2139 0.929 . S
C2151 C2145 1.390 . S
C2151 C2148 1.386 . S
C2152 C2147 1.490 . S
C2152 C2154 1.395 . S
C2152 C2155 1.403 . S
H2153 C2159 0.930 . S
C2154 H2140 0.930 . S
C2154 C2152 1.395 . S
C2154 C2157 1.403 . S
C2155 C2152 1.403 . S
C2155 C2156 1.524 . S
C2155 C2159 1.400 . S
C2156 H2141 0.960 . S
C2156 H2142 0.960 . S
C2156 H2143 0.960 . S
C2156 C2155 1.524 . S
C2157 C2154 1.403 . S
C2157 C2158 1.392 . S
C2157 C2161 1.495 . S
C2158 C2157 1.392 . S
C2158 C2159 1.385 . S
C2158 C2160 1.478 . S
C2159 H2153 0.930 . S
C2159 C2155 1.400 . S
C2159 C2158 1.385 . S
C2160 C2158 1.478 . S
C2160 C2162 1.381 . S
C2160 C2166 1.383 . S
C2161 C2157 1.495 . S
C2161 H2167 0.959 . S
C2161 H2168 0.961 . S
C2161 H2169 0.960 . S
C2162 C2160 1.381 . S
C2162 C2163 1.394 . S
C2162 H2170 0.930 . S
C2163 C2162 1.394 . S
C2163 C2164 1.383 . S
C2163 H2171 0.929 . S
C2164 C2163 1.383 . S
C2164 C2165 1.377 . S
C2165 H2149 0.930 . S
C2165 C2164 1.377 . S
C2165 C2166 1.379 . S
C2166 H2150 0.931 . S
C2166 C2160 1.383 . S
C2166 C2165 1.379 . S
H2167 C2161 0.959 . S
H2168 C2161 0.961 . S
H2169 C2161 0.960 . S
H2170 C2162 0.930 . S
H2171 C2163 0.929 . S
H2172 C2180 0.929 . S
H2173 C2182 0.930 . S
H2174 C2184 0.930 . S
H2175 C2187 0.929 . S
H2176 C2190 0.930 . S
H2177 C2192 0.960 . S
H2178 C2192 0.960 . S
H2179 C2192 0.960 . S
C2180 H2172 0.929 . S
C2180 C2181 1.377 . S
C2180 C2182 1.384 . S
C2181 C2180 1.377 . S
C2181 C2187 1.390 . S
C2182 H2173 0.930 . S
C2182 C2180 1.384 . S
C2182 C2183 1.372 . S
C2183 C2182 1.372 . S
C2183 C2184 1.400 . S
C2183 C2188 1.490 . S
C2184 H2174 0.930 . S
C2184 C2183 1.400 . S
C2184 C2187 1.386 . S
H2185 C2201 0.930 . S
H2186 C2202 0.931 . S
C2187 H2175 0.929 . S
C2187 C2181 1.390 . S
C2187 C2184 1.386 . S
C2188 C2183 1.490 . S
C2188 C2190 1.395 . S
C2188 C2191 1.403 . S
H2189 C2195 0.930 . S
C2190 H2176 0.930 . S
C2190 C2188 1.395 . S
C2190 C2193 1.403 . S
C2191 C2188 1.403 . S
C2191 C2192 1.524 . S
C2191 C2195 1.400 . S
C2192 H2177 0.960 . S
C2192 H2178 0.960 . S
C2192 H2179 0.960 . S
C2192 C2191 1.524 . S
C2193 C2190 1.403 . S
C2193 C2194 1.392 . S
C2193 C2197 1.495 . S
C2194 C2193 1.392 . S
C2194 C2195 1.385 . S
C2194 C2196 1.478 . S
C2195 H2189 0.930 . S
C2195 C2191 1.400 . S
C2195 C2194 1.385 . S
C2196 C2194 1.478 . S
C2196 C2198 1.381 . S
C2196 C2202 1.383 . S
C2197 C2193 1.495 . S
C2197 H2203 0.959 . S
C2197 H2204 0.961 . S
C2197 H2205 0.960 . S
C2198 C2196 1.381 . S
C2198 C2199 1.394 . S
C2198 H2206 0.930 . S
C2199 C2198 1.394 . S
C2199 C2200 1.383 . S
C2199 H2207 0.929 . S
C2200 C2199 1.383 . S
C2200 C2201 1.377 . S
C2201 H2185 0.930 . S
C2201 C2200 1.377 . S
C2201 C2202 1.379 . S
C2202 H2186 0.931 . S
C2202 C2196 1.383 . S
C2202 C2201 1.379 . S
H2203 C2197 0.959 . S
H2204 C2197 0.961 . S
H2205 C2197 0.960 . S
H2206 C2198 0.930 . S
H2207 C2199 0.929 . S
H2208 C2216 0.929 . S
H2209 C2218 0.930 . S
H2210 C2220 0.930 . S
H2211 C2223 0.929 . S
H2212 C2226 0.930 . S
H2213 C2228 0.960 . S
H2214 C2228 0.960 . S
H2215 C2228 0.960 . S
C2216 H2208 0.929 . S
C2216 C2217 1.377 . S
C2216 C2218 1.384 . S
C2217 C2216 1.377 . S
C2217 C2223 1.390 . S
C2218 H2209 0.930 . S
C2218 C2216 1.384 . S
C2218 C2219 1.372 . S
C2219 C2218 1.372 . S
C2219 C2220 1.400 . S
C2219 C2224 1.490 . S
C2220 H2210 0.930 . S
C2220 C2219 1.400 . S
C2220 C2223 1.386 . S
H2221 C2237 0.930 . S
H2222 C2238 0.931 . S
C2223 H2211 0.929 . S
C2223 C2217 1.390 . S
C2223 C2220 1.386 . S
C2224 C2219 1.490 . S
C2224 C2226 1.395 . S
C2224 C2227 1.403 . S
H2225 C2231 0.930 . S
C2226 H2212 0.930 . S
C2226 C2224 1.395 . S
C2226 C2229 1.403 . S
C2227 C2224 1.403 . S
C2227 C2228 1.524 . S
C2227 C2231 1.400 . S
C2228 H2213 0.960 . S
C2228 H2214 0.960 . S
C2228 H2215 0.960 . S
C2228 C2227 1.524 . S
C2229 C2226 1.403 . S
C2229 C2230 1.392 . S
C2229 C2233 1.495 . S
C2230 C2229 1.392 . S
C2230 C2231 1.385 . S
C2230 C2232 1.478 . S
C2231 H2225 0.930 . S
C2231 C2227 1.400 . S
C2231 C2230 1.385 . S
C2232 C2230 1.478 . S
C2232 C2234 1.381 . S
C2232 C2238 1.383 . S
C2233 C2229 1.495 . S
C2233 H2239 0.959 . S
C2233 H2240 0.961 . S
C2233 H2241 0.960 . S
C2234 C2232 1.381 . S
C2234 C2235 1.394 . S
C2234 H2242 0.930 . S
C2235 C2234 1.394 . S
C2235 C2236 1.383 . S
C2235 H2243 0.929 . S
C2236 C2235 1.383 . S
C2236 C2237 1.377 . S
C2237 H2221 0.930 . S
C2237 C2236 1.377 . S
C2237 C2238 1.379 . S
C2238 H2222 0.931 . S
C2238 C2232 1.383 . S
C2238 C2237 1.379 . S
H2239 C2233 0.959 . S
H2240 C2233 0.961 . S
H2241 C2233 0.960 . S
H2242 C2234 0.930 . S
H2243 C2235 0.929 . S
H2244 C2252 0.929 . S
H2245 C2254 0.930 . S
H2246 C2256 0.930 . S
H2247 C2259 0.929 . S
H2248 C2262 0.930 . S
H2249 C2264 0.960 . S
H2250 C2264 0.960 . S
H2251 C2264 0.960 . S
C2252 H2244 0.929 . S
C2252 C2253 1.377 . S
C2252 C2254 1.384 . S
C2253 C2252 1.377 . S
C2253 C2259 1.390 . S
C2254 H2245 0.930 . S
C2254 C2252 1.384 . S
C2254 C2255 1.372 . S
C2255 C2254 1.372 . S
C2255 C2256 1.400 . S
C2255 C2260 1.490 . S
C2256 H2246 0.930 . S
C2256 C2255 1.400 . S
C2256 C2259 1.386 . S
H2257 C2273 0.930 . S
H2258 C2274 0.931 . S
C2259 H2247 0.929 . S
C2259 C2253 1.390 . S
C2259 C2256 1.386 . S
C2260 C2255 1.490 . S
C2260 C2262 1.395 . S
C2260 C2263 1.403 . S
H2261 C2267 0.930 . S
C2262 H2248 0.930 . S
C2262 C2260 1.395 . S
C2262 C2265 1.403 . S
C2263 C2260 1.403 . S
C2263 C2264 1.524 . S
C2263 C2267 1.400 . S
C2264 H2249 0.960 . S
C2264 H2250 0.960 . S
C2264 H2251 0.960 . S
C2264 C2263 1.524 . S
C2265 C2262 1.403 . S
C2265 C2266 1.392 . S
C2265 C2269 1.495 . S
C2266 C2265 1.392 . S
C2266 C2267 1.385 . S
C2266 C2268 1.478 . S
C2267 H2261 0.930 . S
C2267 C2263 1.400 . S
C2267 C2266 1.385 . S
C2268 C2266 1.478 . S
C2268 C2270 1.381 . S
C2268 C2274 1.383 . S
C2269 C2265 1.495 . S
C2269 H2275 0.959 . S
C2269 H2276 0.961 . S
C2269 H2277 0.960 . S
C2270 C2268 1.381 . S
C2270 C2271 1.394 . S
C2270 H2278 0.930 . S
C2271 C2270 1.394 . S
C2271 C2272 1.383 . S
C2271 H2279 0.929 . S
C2272 C2271 1.383 . S
C2272 C2273 1.377 . S
C2273 H2257 0.930 . S
C2273 C2272 1.377 . S
C2273 C2274 1.379 . S
C2274 H2258 0.931 . S
C2274 C2268 1.383 . S
C2274 C2273 1.379 . S
H2275 C2269 0.959 . S
H2276 C2269 0.961 . S
H2277 C2269 0.960 . S
H2278 C2270 0.930 . S
H2279 C2271 0.929 . S
H2280 C2288 0.929 . S
H2281 C2290 0.930 . S
H2282 C2292 0.930 . S
H2283 C2295 0.929 . S
H2284 C2298 0.930 . S
H2285 C2300 0.960 . S
H2286 C2300 0.960 . S
H2287 C2300 0.960 . S
C2288 H2280 0.929 . S
C2288 C2289 1.377 . S
C2288 C2290 1.384 . S
C2289 C2288 1.377 . S
C2289 C2295 1.390 . S
C2290 H2281 0.930 . S
C2290 C2288 1.384 . S
C2290 C2291 1.372 . S
C2291 C2290 1.372 . S
C2291 C2292 1.400 . S
C2291 C2296 1.490 . S
C2292 H2282 0.930 . S
C2292 C2291 1.400 . S
C2292 C2295 1.386 . S
H2293 C2309 0.930 . S
H2294 C2310 0.931 . S
C2295 H2283 0.929 . S
C2295 C2289 1.390 . S
C2295 C2292 1.386 . S
C2296 C2291 1.490 . S
C2296 C2298 1.395 . S
C2296 C2299 1.403 . S
H2297 C2303 0.930 . S
C2298 H2284 0.930 . S
C2298 C2296 1.395 . S
C2298 C2301 1.403 . S
C2299 C2296 1.403 . S
C2299 C2300 1.524 . S
C2299 C2303 1.400 . S
C2300 H2285 0.960 . S
C2300 H2286 0.960 . S
C2300 H2287 0.960 . S
C2300 C2299 1.524 . S
C2301 C2298 1.403 . S
C2301 C2302 1.392 . S
C2301 C2305 1.495 . S
C2302 C2301 1.392 . S
C2302 C2303 1.385 . S
C2302 C2304 1.478 . S
C2303 H2297 0.930 . S
C2303 C2299 1.400 . S
C2303 C2302 1.385 . S
C2304 C2302 1.478 . S
C2304 C2306 1.381 . S
C2304 C2310 1.383 . S
C2305 C2301 1.495 . S
C2305 H2311 0.959 . S
C2305 H2312 0.961 . S
C2305 H2313 0.960 . S
C2306 C2304 1.381 . S
C2306 C2307 1.394 . S
C2306 H2314 0.930 . S
C2307 C2306 1.394 . S
C2307 C2308 1.383 . S
C2307 H2315 0.929 . S
C2308 C2307 1.383 . S
C2308 C2309 1.377 . S
C2309 H2293 0.930 . S
C2309 C2308 1.377 . S
C2309 C2310 1.379 . S
C2310 H2294 0.931 . S
C2310 C2304 1.383 . S
C2310 C2309 1.379 . S
H2311 C2305 0.959 . S
H2312 C2305 0.961 . S
H2313 C2305 0.960 . S
H2314 C2306 0.930 . S
H2315 C2307 0.929 . S
H2316 C2324 0.929 . S
H2317 C2326 0.930 . S
H2318 C2328 0.930 . S
H2319 C2331 0.929 . S
H2320 C2334 0.930 . S
H2321 C2336 0.960 . S
H2322 C2336 0.960 . S
H2323 C2336 0.960 . S
C2324 H2316 0.929 . S
C2324 C2325 1.377 . S
C2324 C2326 1.384 . S
C2325 C2324 1.377 . S
C2325 C2331 1.390 . S
C2326 H2317 0.930 . S
C2326 C2324 1.384 . S
C2326 C2327 1.372 . S
C2327 C2326 1.372 . S
C2327 C2328 1.400 . S
C2327 C2332 1.490 . S
C2328 H2318 0.930 . S
C2328 C2327 1.400 . S
C2328 C2331 1.386 . S
H2329 C2345 0.930 . S
H2330 C2346 0.931 . S
C2331 H2319 0.929 . S
C2331 C2325 1.390 . S
C2331 C2328 1.386 . S
C2332 C2327 1.490 . S
C2332 C2334 1.395 . S
C2332 C2335 1.403 . S
H2333 C2339 0.930 . S
C2334 H2320 0.930 . S
C2334 C2332 1.395 . S
C2334 C2337 1.403 . S
C2335 C2332 1.403 . S
C2335 C2336 1.524 . S
C2335 C2339 1.400 . S
C2336 H2321 0.960 . S
C2336 H2322 0.960 . S
C2336 H2323 0.960 . S
C2336 C2335 1.524 . S
C2337 C2334 1.403 . S
C2337 C2338 1.392 . S
C2337 C2341 1.495 . S
C2338 C2337 1.392 . S
C2338 C2339 1.385 . S
C2338 C2340 1.478 . S
C2339 H2333 0.930 . S
C2339 C2335 1.400 . S
C2339 C2338 1.385 . S
C2340 C2338 1.478 . S
C2340 C2342 1.381 . S
C2340 C2346 1.383 . S
C2341 C2337 1.495 . S
C2341 H2347 0.959 . S
C2341 H2348 0.961 . S
C2341 H2349 0.960 . S
C2342 C2340 1.381 . S
C2342 C2343 1.394 . S
C2342 H2350 0.930 . S
C2343 C2342 1.394 . S
C2343 C2344 1.383 . S
C2343 H2351 0.929 . S
C2344 C2343 1.383 . S
C2344 C2345 1.377 . S
C2345 H2329 0.930 . S
C2345 C2344 1.377 . S
C2345 C2346 1.379 . S
C2346 H2330 0.931 . S
C2346 C2340 1.383 . S
C2346 C2345 1.379 . S
H2347 C2341 0.959 . S
H2348 C2341 0.961 . S
H2349 C2341 0.960 . S
H2350 C2342 0.930 . S
H2351 C2343 0.929 . S
H2352 C2360 0.929 . S
H2353 C2362 0.930 . S
H2354 C2364 0.930 . S
H2355 C2367 0.929 . S
H2356 C2370 0.930 . S
H2357 C2372 0.960 . S
H2358 C2372 0.960 . S
H2359 C2372 0.960 . S
C2360 H2352 0.929 . S
C2360 C2361 1.377 . S
C2360 C2362 1.384 . S
C2361 C2360 1.377 . S
C2361 C2367 1.390 . S
C2362 H2353 0.930 . S
C2362 C2360 1.384 . S
C2362 C2363 1.372 . S
C2363 C2362 1.372 . S
C2363 C2364 1.400 . S
C2363 C2368 1.490 . S
C2364 H2354 0.930 . S
C2364 C2363 1.400 . S
C2364 C2367 1.386 . S
H2365 C2381 0.930 . S
H2366 C2382 0.931 . S
C2367 H2355 0.929 . S
C2367 C2361 1.390 . S
C2367 C2364 1.386 . S
C2368 C2363 1.490 . S
C2368 C2370 1.395 . S
C2368 C2371 1.403 . S
H2369 C2375 0.930 . S
C2370 H2356 0.930 . S
C2370 C2368 1.395 . S
C2370 C2373 1.403 1_655 S
C2371 C2368 1.403 . S
C2371 C2372 1.524 . S
C2371 C2375 1.400 1_655 S
C2372 H2357 0.960 . S
C2372 H2358 0.960 . S
C2372 H2359 0.960 . S
C2372 C2371 1.524 . S
C2373 C2370 1.403 1_455 S
C2373 C2374 1.392 . S
C2373 C2377 1.473 1_556 S
C2374 C2373 1.392 . S
C2374 C2375 1.385 . S
C2374 C2376 1.478 . S
C2375 H2369 0.930 . S
C2375 C2371 1.400 1_455 S
C2375 C2374 1.385 . S
C2376 C2374 1.478 . S
C2376 C2378 1.381 . S
C2376 C2382 1.383 . S
C2377 C2373 1.473 1_554 S
C2377 H2383 0.977 . S
C2377 H2384 0.958 1_554 S
C2377 H2385 0.968 . S
C2378 C2376 1.381 . S
C2378 C2379 1.394 . S
C2378 H2386 0.930 . S
C2379 C2378 1.394 . S
C2379 C2380 1.383 . S
C2379 H2387 0.929 . S
C2380 C2379 1.383 . S
C2380 C2381 1.377 . S
C2381 H2365 0.930 . S
C2381 C2380 1.377 . S
C2381 C2382 1.379 . S
C2382 H2366 0.931 . S
C2382 C2376 1.383 . S
C2382 C2381 1.379 . S
H2383 C2377 0.977 . S
H2384 C2377 0.958 1_556 S
H2385 C2377 0.968 . S
H2386 C2378 0.930 . S
H2387 C2379 0.929 . S
H2388 C2396 0.929 . S
H2389 C2398 0.930 . S
H2390 C2400 0.930 . S
H2391 C2403 0.929 . S
H2392 C2406 0.930 . S
H2393 C2408 0.960 . S
H2394 C2408 0.960 . S
H2395 C2408 0.960 . S
C2396 H2388 0.929 . S
C2396 C2397 1.377 . S
C2396 C2398 1.384 . S
C2397 C2396 1.377 . S
C2397 C2403 1.390 . S
C2398 H2389 0.930 . S
C2398 C2396 1.384 . S
C2398 C2399 1.372 . S
C2399 C2398 1.372 . S
C2399 C2400 1.400 . S
C2399 C2404 1.490 . S
C2400 H2390 0.930 . S
C2400 C2399 1.400 . S
C2400 C2403 1.386 . S
H2401 C2417 0.930 . S
H2402 C2418 0.931 . S
C2403 H2391 0.929 . S
C2403 C2397 1.390 . S
C2403 C2400 1.386 . S
C2404 C2399 1.490 . S
C2404 C2406 1.395 . S
C2404 C2407 1.403 . S
H2405 C2411 0.930 . S
C2406 H2392 0.930 . S
C2406 C2404 1.395 . S
C2406 C2409 1.403 . S
C2407 C2404 1.403 . S
C2407 C2408 1.524 . S
C2407 C2411 1.400 . S
C2408 H2393 0.960 . S
C2408 H2394 0.960 . S
C2408 H2395 0.960 . S
C2408 C2407 1.524 . S
C2409 C2406 1.403 . S
C2409 C2410 1.392 . S
C2409 C2413 1.495 . S
C2410 C2409 1.392 . S
C2410 C2411 1.385 . S
C2410 C2412 1.478 . S
C2411 H2405 0.930 . S
C2411 C2407 1.400 . S
C2411 C2410 1.385 . S
C2412 C2410 1.478 . S
C2412 C2414 1.381 . S
C2412 C2418 1.383 . S
C2413 C2409 1.495 . S
C2413 H2419 0.959 . S
C2413 H2420 0.961 . S
C2413 H2421 0.960 . S
C2414 C2412 1.381 . S
C2414 C2415 1.394 . S
C2414 H2422 0.930 . S
C2415 C2414 1.394 . S
C2415 C2416 1.383 . S
C2415 H2423 0.929 . S
C2416 C2415 1.383 . S
C2416 C2417 1.377 . S
C2417 H2401 0.930 . S
C2417 C2416 1.377 . S
C2417 C2418 1.379 . S
C2418 H2402 0.931 . S
C2418 C2412 1.383 . S
C2418 C2417 1.379 . S
H2419 C2413 0.959 . S
H2420 C2413 0.961 . S
H2421 C2413 0.960 . S
H2422 C2414 0.930 . S
H2423 C2415 0.929 . S
H2424 C2432 0.929 . S
H2425 C2434 0.930 . S
H2426 C2436 0.930 . S
H2427 C2439 0.929 . S
H2428 C2442 0.930 . S
H2429 C2444 0.960 . S
H2430 C2444 0.960 . S
H2431 C2444 0.960 . S
C2432 H2424 0.929 . S
C2432 C2433 1.377 . S
C2432 C2434 1.384 . S
C2433 C2432 1.377 . S
C2433 C2439 1.390 . S
C2434 H2425 0.930 . S
C2434 C2432 1.384 . S
C2434 C2435 1.372 . S
C2435 C2434 1.372 . S
C2435 C2436 1.400 . S
C2435 C2440 1.490 . S
C2436 H2426 0.930 . S
C2436 C2435 1.400 . S
C2436 C2439 1.386 . S
H2437 C2453 0.930 . S
H2438 C2454 0.931 . S
C2439 H2427 0.929 . S
C2439 C2433 1.390 . S
C2439 C2436 1.386 . S
C2440 C2435 1.490 . S
C2440 C2442 1.395 . S
C2440 C2443 1.403 . S
H2441 C2447 0.930 . S
C2442 H2428 0.930 . S
C2442 C2440 1.395 . S
C2442 C2445 1.403 . S
C2443 C2440 1.403 . S
C2443 C2444 1.524 . S
C2443 C2447 1.400 . S
C2444 H2429 0.960 . S
C2444 H2430 0.960 . S
C2444 H2431 0.960 . S
C2444 C2443 1.524 . S
C2445 C2442 1.403 . S
C2445 C2446 1.392 . S
C2445 C2449 1.495 . S
C2446 C2445 1.392 . S
C2446 C2447 1.385 . S
C2446 C2448 1.478 . S
C2447 H2441 0.930 . S
C2447 C2443 1.400 . S
C2447 C2446 1.385 . S
C2448 C2446 1.478 . S
C2448 C2450 1.381 . S
C2448 C2454 1.383 . S
C2449 C2445 1.495 . S
C2449 H2455 0.959 . S
C2449 H2456 0.961 . S
C2449 H2457 0.960 . S
C2450 C2448 1.381 . S
C2450 C2451 1.394 . S
C2450 H2458 0.930 . S
C2451 C2450 1.394 . S
C2451 C2452 1.383 . S
C2451 H2459 0.929 . S
C2452 C2451 1.383 . S
C2452 C2453 1.377 . S
C2453 H2437 0.930 . S
C2453 C2452 1.377 . S
C2453 C2454 1.379 . S
C2454 H2438 0.931 . S
C2454 C2448 1.383 . S
C2454 C2453 1.379 . S
H2455 C2449 0.959 . S
H2456 C2449 0.961 . S
H2457 C2449 0.960 . S
H2458 C2450 0.930 . S
H2459 C2451 0.929 . S
H2460 C2468 0.929 . S
H2461 C2470 0.930 . S
H2462 C2472 0.930 . S
H2463 C2475 0.929 . S
H2464 C2478 0.930 . S
H2465 C2480 0.960 . S
H2466 C2480 0.960 . S
H2467 C2480 0.960 . S
C2468 H2460 0.929 . S
C2468 C2469 1.377 . S
C2468 C2470 1.384 . S
C2469 C2468 1.377 . S
C2469 C2475 1.390 . S
C2470 H2461 0.930 . S
C2470 C2468 1.384 . S
C2470 C2471 1.372 . S
C2471 C2470 1.372 . S
C2471 C2472 1.400 . S
C2471 C2476 1.490 . S
C2472 H2462 0.930 . S
C2472 C2471 1.400 . S
C2472 C2475 1.386 . S
H2473 C2489 0.930 . S
H2474 C2490 0.931 . S
C2475 H2463 0.929 . S
C2475 C2469 1.390 . S
C2475 C2472 1.386 . S
C2476 C2471 1.490 . S
C2476 C2478 1.395 . S
C2476 C2479 1.403 . S
H2477 C2483 0.930 . S
C2478 H2464 0.930 . S
C2478 C2476 1.395 . S
C2478 C2481 1.403 1_455 S
C2479 C2476 1.403 . S
C2479 C2480 1.524 . S
C2479 C2483 1.400 1_455 S
C2480 H2465 0.960 . S
C2480 H2466 0.960 . S
C2480 H2467 0.960 . S
C2480 C2479 1.524 . S
C2481 C2478 1.403 1_655 S
C2481 C2482 1.392 . S
C2481 C2485 1.495 . S
C2482 C2481 1.392 . S
C2482 C2483 1.385 . S
C2482 C2484 1.478 . S
C2483 H2477 0.930 . S
C2483 C2479 1.400 1_655 S
C2483 C2482 1.385 . S
C2484 C2482 1.478 . S
C2484 C2486 1.381 . S
C2484 C2490 1.383 . S
C2485 C2481 1.495 . S
C2485 H2491 0.959 . S
C2485 H2492 0.961 . S
C2485 H2493 0.960 . S
C2486 C2484 1.381 . S
C2486 C2487 1.394 . S
C2486 H2494 0.930 . S
C2487 C2486 1.394 . S
C2487 C2488 1.383 . S
C2487 H2495 0.929 . S
C2488 C2487 1.383 . S
C2488 C2489 1.377 . S
C2489 H2473 0.930 . S
C2489 C2488 1.377 . S
C2489 C2490 1.379 . S
C2490 H2474 0.931 . S
C2490 C2484 1.383 . S
C2490 C2489 1.379 . S
H2491 C2485 0.959 . S
H2492 C2485 0.961 . S
H2493 C2485 0.960 . S
H2494 C2486 0.930 . S
H2495 C2487 0.929 . S
H2496 C2504 0.929 . S
H2497 C2506 0.930 . S
H2498 C2508 0.930 . S
H2499 C2511 0.929 . S
H2500 C2514 0.930 . S
H2501 C2516 0.960 . S
H2502 C2516 0.960 . S
H2503 C2516 0.960 . S
C2504 H2496 0.929 . S
C2504 C2505 1.377 . S
C2504 C2506 1.384 . S
C2505 C2504 1.377 . S
C2505 C2511 1.390 . S
C2506 H2497 0.930 . S
C2506 C2504 1.384 . S
C2506 C2507 1.372 . S
C2507 C2506 1.372 . S
C2507 C2508 1.400 . S
C2507 C2512 1.490 . S
C2508 H2498 0.930 . S
C2508 C2507 1.400 . S
C2508 C2511 1.386 . S
H2509 C2525 0.930 . S
H2510 C2526 0.931 . S
C2511 H2499 0.929 . S
C2511 C2505 1.390 . S
C2511 C2508 1.386 . S
C2512 C2507 1.490 . S
C2512 C2514 1.395 . S
C2512 C2515 1.403 1_554 S
H2513 C2519 0.930 . S
C2514 H2500 0.930 . S
C2514 C2512 1.395 . S
C2514 C2517 1.403 . S
C2515 C2512 1.403 1_556 S
C2515 C2516 1.524 . S
C2515 C2519 1.400 . S
C2516 H2501 0.960 . S
C2516 H2502 0.960 . S
C2516 H2503 0.960 . S
C2516 C2515 1.524 . S
C2517 C2514 1.403 . S
C2517 C2518 1.392 1_554 S
C2517 C2521 1.495 . S
C2518 C2517 1.392 1_556 S
C2518 C2519 1.385 . S
C2518 C2520 1.478 . S
C2519 H2513 0.930 . S
C2519 C2515 1.400 . S
C2519 C2518 1.385 . S
C2520 C2518 1.478 . S
C2520 C2522 1.381 . S
C2520 C2526 1.383 . S
C2521 C2517 1.495 . S
C2521 H2527 0.959 . S
C2521 H2528 0.961 . S
C2521 H2529 0.960 . S
C2522 C2520 1.381 . S
C2522 C2523 1.394 . S
C2522 H2530 0.930 . S
C2523 C2522 1.394 . S
C2523 C2524 1.383 . S
C2523 H2531 0.929 . S
C2524 C2523 1.383 . S
C2524 C2525 1.377 . S
C2525 H2509 0.930 . S
C2525 C2524 1.377 . S
C2525 C2526 1.379 . S
C2526 H2510 0.931 . S
C2526 C2520 1.383 . S
C2526 C2525 1.379 . S
H2527 C2521 0.959 . S
H2528 C2521 0.961 . S
H2529 C2521 0.960 . S
H2530 C2522 0.930 . S
H2531 C2523 0.929 . S
H2532 C2540 0.929 . S
H2533 C2542 0.930 . S
H2534 C2544 0.930 . S
H2535 C2547 0.929 . S
H2536 C2550 0.930 . S
H2537 C2552 0.960 . S
H2538 C2552 0.960 . S
H2539 C2552 0.960 . S
C2540 H2532 0.929 . S
C2540 C2541 1.377 . S
C2540 C2542 1.384 . S
C2541 C2540 1.377 . S
C2541 C2547 1.390 . S
C2542 H2533 0.930 . S
C2542 C2540 1.384 . S
C2542 C2543 1.372 . S
C2543 C2542 1.372 . S
C2543 C2544 1.400 . S
C2543 C2548 1.490 . S
C2544 H2534 0.930 . S
C2544 C2543 1.400 . S
C2544 C2547 1.386 . S
H2545 C2561 0.930 . S
H2546 C2562 0.931 . S
C2547 H2535 0.929 . S
C2547 C2541 1.390 . S
C2547 C2544 1.386 . S
C2548 C2543 1.490 . S
C2548 C2550 1.395 . S
C2548 C2551 1.403 . S
H2549 C2555 0.930 . S
C2550 H2536 0.930 . S
C2550 C2548 1.395 . S
C2550 C2553 1.403 . S
C2551 C2548 1.403 . S
C2551 C2552 1.524 . S
C2551 C2555 1.400 . S
C2552 H2537 0.960 . S
C2552 H2538 0.960 . S
C2552 H2539 0.960 . S
C2552 C2551 1.524 . S
C2553 C2550 1.403 . S
C2553 C2554 1.392 . S
C2553 C2557 1.495 . S
C2554 C2553 1.392 . S
C2554 C2555 1.385 . S
C2554 C2556 1.478 . S
C2555 H2549 0.930 . S
C2555 C2551 1.400 . S
C2555 C2554 1.385 . S
C2556 C2554 1.478 . S
C2556 C2558 1.381 . S
C2556 C2562 1.383 . S
C2557 C2553 1.495 . S
C2557 H2563 0.959 . S
C2557 H2564 0.961 . S
C2557 H2565 0.960 . S
C2558 C2556 1.381 . S
C2558 C2559 1.394 . S
C2558 H2566 0.930 . S
C2559 C2558 1.394 . S
C2559 C2560 1.383 . S
C2559 H2567 0.929 . S
C2560 C2559 1.383 . S
C2560 C2561 1.377 . S
C2561 H2545 0.930 . S
C2561 C2560 1.377 . S
C2561 C2562 1.379 . S
C2562 H2546 0.931 . S
C2562 C2556 1.383 . S
C2562 C2561 1.379 . S
H2563 C2557 0.959 . S
H2564 C2557 0.961 . S
H2565 C2557 0.960 . S
H2566 C2558 0.930 . S
H2567 C2559 0.929 . S
H2568 C2576 0.929 . S
H2569 C2578 0.930 . S
H2570 C2580 0.930 . S
H2571 C2583 0.929 . S
H2572 C2586 0.930 . S
H2573 C2588 0.960 . S
H2574 C2588 0.960 . S
H2575 C2588 0.960 . S
C2576 H2568 0.929 . S
C2576 C2577 1.377 . S
C2576 C2578 1.384 . S
C2577 C2576 1.377 . S
C2577 C2583 1.390 . S
C2578 H2569 0.930 . S
C2578 C2576 1.384 . S
C2578 C2579 1.372 . S
C2579 C2578 1.372 . S
C2579 C2580 1.400 . S
C2579 C2584 1.490 . S
C2580 H2570 0.930 . S
C2580 C2579 1.400 . S
C2580 C2583 1.386 . S
H2581 C2597 0.930 . S
H2582 C2598 0.931 . S
C2583 H2571 0.929 . S
C2583 C2577 1.390 . S
C2583 C2580 1.386 . S
C2584 C2579 1.490 . S
C2584 C2586 1.395 . S
C2584 C2587 1.403 . S
H2585 C2591 0.930 . S
C2586 H2572 0.930 . S
C2586 C2584 1.395 . S
C2586 C2589 1.403 . S
C2587 C2584 1.403 . S
C2587 C2588 1.524 . S
C2587 C2591 1.400 . S
C2588 H2573 0.960 . S
C2588 H2574 0.960 . S
C2588 H2575 0.960 . S
C2588 C2587 1.524 . S
C2589 C2586 1.403 . S
C2589 C2590 1.392 . S
C2589 C2593 1.495 . S
C2590 C2589 1.392 . S
C2590 C2591 1.385 . S
C2590 C2592 1.478 . S
C2591 H2585 0.930 . S
C2591 C2587 1.400 . S
C2591 C2590 1.385 . S
C2592 C2590 1.478 . S
C2592 C2594 1.381 . S
C2592 C2598 1.383 . S
C2593 C2589 1.495 . S
C2593 H2599 0.959 . S
C2593 H2600 0.961 . S
C2593 H2601 0.960 . S
C2594 C2592 1.381 . S
C2594 C2595 1.394 . S
C2594 H2602 0.930 . S
C2595 C2594 1.394 . S
C2595 C2596 1.383 . S
C2595 H2603 0.929 . S
C2596 C2595 1.383 . S
C2596 C2597 1.377 . S
C2597 H2581 0.930 . S
C2597 C2596 1.377 . S
C2597 C2598 1.379 . S
C2598 H2582 0.931 . S
C2598 C2592 1.383 . S
C2598 C2597 1.379 . S
H2599 C2593 0.959 . S
H2600 C2593 0.961 . S
H2601 C2593 0.960 . S
H2602 C2594 0.930 . S
H2603 C2595 0.929 . S
H2604 C2612 0.929 . S
H2605 C2614 0.930 . S
H2606 C2616 0.930 . S
H2607 C2619 0.929 . S
H2608 C2622 0.930 . S
H2609 C2624 0.960 . S
H2610 C2624 0.960 . S
H2611 C2624 0.960 . S
C2612 H2604 0.929 . S
C2612 C2613 1.377 . S
C2612 C2614 1.384 . S
C2613 C2612 1.377 . S
C2613 C2619 1.390 . S
C2614 H2605 0.930 . S
C2614 C2612 1.384 . S
C2614 C2615 1.372 . S
C2615 C2614 1.372 . S
C2615 C2616 1.400 . S
C2615 C2620 1.490 . S
C2616 H2606 0.930 . S
C2616 C2615 1.400 . S
C2616 C2619 1.386 . S
H2617 C2633 0.930 . S
H2618 C2634 0.931 . S
C2619 H2607 0.929 . S
C2619 C2613 1.390 . S
C2619 C2616 1.386 . S
C2620 C2615 1.490 . S
C2620 C2622 1.395 . S
C2620 C2623 1.403 . S
H2621 C2627 0.930 . S
C2622 H2608 0.930 . S
C2622 C2620 1.395 . S
C2622 C2625 1.403 . S
C2623 C2620 1.403 . S
C2623 C2624 1.524 . S
C2623 C2627 1.400 . S
C2624 H2609 0.960 . S
C2624 H2610 0.960 . S
C2624 H2611 0.960 . S
C2624 C2623 1.524 . S
C2625 C2622 1.403 . S
C2625 C2626 1.392 . S
C2625 C2629 1.495 . S
C2626 C2625 1.392 . S
C2626 C2627 1.385 . S
C2626 C2628 1.478 . S
C2627 H2621 0.930 . S
C2627 C2623 1.400 . S
C2627 C2626 1.385 . S
C2628 C2626 1.478 . S
C2628 C2630 1.381 . S
C2628 C2634 1.383 . S
C2629 C2625 1.495 . S
C2629 H2635 0.959 . S
C2629 H2636 0.961 . S
C2629 H2637 0.960 . S
C2630 C2628 1.381 . S
C2630 C2631 1.394 . S
C2630 H2638 0.930 . S
C2631 C2630 1.394 . S
C2631 C2632 1.383 . S
C2631 H2639 0.929 . S
C2632 C2631 1.383 . S
C2632 C2633 1.377 . S
C2633 H2617 0.930 . S
C2633 C2632 1.377 . S
C2633 C2634 1.379 . S
C2634 H2618 0.931 . S
C2634 C2628 1.383 . S
C2634 C2633 1.379 . S
H2635 C2629 0.959 . S
H2636 C2629 0.961 . S
H2637 C2629 0.960 . S
H2638 C2630 0.930 . S
H2639 C2631 0.929 . S
H2640 C2648 0.929 . S
H2641 C2650 0.930 . S
H2642 C2652 0.930 . S
H2643 C2655 0.929 . S
H2644 C2658 0.930 . S
H2645 C2660 0.960 . S
H2646 C2660 0.960 . S
H2647 C2660 0.960 . S
C2648 H2640 0.929 . S
C2648 C2649 1.377 . S
C2648 C2650 1.384 . S
C2649 C2648 1.377 . S
C2649 C2655 1.390 . S
C2650 H2641 0.930 . S
C2650 C2648 1.384 . S
C2650 C2651 1.372 . S
C2651 C2650 1.372 . S
C2651 C2652 1.400 . S
C2651 C2656 1.490 . S
C2652 H2642 0.930 . S
C2652 C2651 1.400 . S
C2652 C2655 1.386 . S
H2653 C2669 0.930 . S
H2654 C2670 0.931 . S
C2655 H2643 0.929 . S
C2655 C2649 1.390 . S
C2655 C2652 1.386 . S
C2656 C2651 1.490 . S
C2656 C2658 1.395 1_554 S
C2656 C2659 1.403 . S
H2657 C2663 0.930 . S
C2658 H2644 0.930 . S
C2658 C2656 1.395 1_556 S
C2658 C2661 1.403 . S
C2659 C2656 1.403 . S
C2659 C2660 1.524 . S
C2659 C2663 1.400 . S
C2660 H2645 0.960 . S
C2660 H2646 0.960 . S
C2660 H2647 0.960 . S
C2660 C2659 1.524 . S
C2661 C2658 1.403 . S
C2661 C2662 1.392 . S
C2661 C2665 1.495 . S
C2662 C2661 1.392 . S
C2662 C2663 1.385 1_556 S
C2662 C2664 1.478 . S
C2663 H2657 0.930 . S
C2663 C2659 1.400 . S
C2663 C2662 1.385 1_554 S
C2664 C2662 1.478 . S
C2664 C2666 1.381 . S
C2664 C2670 1.383 . S
C2665 C2661 1.495 . S
C2665 H2671 0.959 . S
C2665 H2672 0.961 . S
C2665 H2673 0.960 . S
C2666 C2664 1.381 . S
C2666 C2667 1.394 . S
C2666 H2674 0.930 . S
C2667 C2666 1.394 . S
C2667 C2668 1.383 . S
C2667 H2675 0.929 . S
C2668 C2667 1.383 . S
C2668 C2669 1.377 . S
C2669 H2653 0.930 . S
C2669 C2668 1.377 . S
C2669 C2670 1.379 . S
C2670 H2654 0.931 . S
C2670 C2664 1.383 . S
C2670 C2669 1.379 . S
H2671 C2665 0.959 . S
H2672 C2665 0.961 . S
H2673 C2665 0.960 . S
H2674 C2666 0.930 . S
H2675 C2667 0.929 . S
H2676 C2684 0.929 . S
H2677 C2686 0.930 . S
H2678 C2688 0.930 . S
H2679 C2691 0.929 . S
H2680 C2694 0.930 . S
H2681 C2696 0.960 . S
H2682 C2696 0.960 . S
H2683 C2696 0.960 . S
C2684 H2676 0.929 . S
C2684 C2685 1.377 . S
C2684 C2686 1.384 . S
C2685 C2684 1.377 . S
C2685 C2691 1.390 . S
C2686 H2677 0.930 . S
C2686 C2684 1.384 . S
C2686 C2687 1.372 . S
C2687 C2686 1.372 . S
C2687 C2688 1.400 . S
C2687 C2692 1.490 . S
C2688 H2678 0.930 . S
C2688 C2687 1.400 . S
C2688 C2691 1.386 . S
H2689 C2705 0.930 . S
H2690 C2706 0.931 . S
C2691 H2679 0.929 . S
C2691 C2685 1.390 . S
C2691 C2688 1.386 . S
C2692 C2687 1.490 . S
C2692 C2694 1.395 . S
C2692 C2695 1.403 . S
H2693 C2699 0.930 . S
C2694 H2680 0.930 . S
C2694 C2692 1.395 . S
C2694 C2697 1.403 . S
C2695 C2692 1.403 . S
C2695 C2696 1.524 . S
C2695 C2699 1.400 . S
C2696 H2681 0.960 . S
C2696 H2682 0.960 . S
C2696 H2683 0.960 . S
C2696 C2695 1.524 . S
C2697 C2694 1.403 . S
C2697 C2698 1.392 . S
C2697 C2701 1.495 . S
C2698 C2697 1.392 . S
C2698 C2699 1.385 . S
C2698 C2700 1.478 . S
C2699 H2693 0.930 . S
C2699 C2695 1.400 . S
C2699 C2698 1.385 . S
C2700 C2698 1.478 . S
C2700 C2702 1.381 . S
C2700 C2706 1.383 . S
C2701 C2697 1.495 . S
C2701 H2707 0.959 . S
C2701 H2708 0.961 . S
C2701 H2709 0.960 . S
C2702 C2700 1.381 . S
C2702 C2703 1.394 . S
C2702 H2710 0.930 . S
C2703 C2702 1.394 . S
C2703 C2704 1.383 . S
C2703 H2711 0.929 . S
C2704 C2703 1.383 . S
C2704 C2705 1.377 . S
C2705 H2689 0.930 . S
C2705 C2704 1.377 . S
C2705 C2706 1.379 . S
C2706 H2690 0.931 . S
C2706 C2700 1.383 . S
C2706 C2705 1.379 . S
H2707 C2701 0.959 . S
H2708 C2701 0.961 . S
H2709 C2701 0.960 . S
H2710 C2702 0.930 . S
H2711 C2703 0.929 . S
H2712 C2720 0.929 . S
H2713 C2722 0.930 . S
H2714 C2724 0.930 . S
H2715 C2727 0.929 . S
H2716 C2730 0.930 . S
H2717 C2732 0.960 . S
H2718 C2732 0.960 . S
H2719 C2732 0.960 . S
C2720 H2712 0.929 . S
C2720 C2721 1.377 . S
C2720 C2722 1.384 . S
C2721 C2720 1.377 . S
C2721 C2727 1.390 . S
C2722 H2713 0.930 . S
C2722 C2720 1.384 . S
C2722 C2723 1.372 . S
C2723 C2722 1.372 . S
C2723 C2724 1.400 . S
C2723 C2728 1.490 . S
C2724 H2714 0.930 . S
C2724 C2723 1.400 . S
C2724 C2727 1.386 . S
H2725 C2741 0.930 . S
H2726 C2742 0.931 . S
C2727 H2715 0.929 . S
C2727 C2721 1.390 . S
C2727 C2724 1.386 . S
C2728 C2723 1.490 . S
C2728 C2730 1.395 . S
C2728 C2731 1.403 . S
H2729 C2735 0.930 . S
C2730 H2716 0.930 . S
C2730 C2728 1.395 . S
C2730 C2733 1.403 . S
C2731 C2728 1.403 . S
C2731 C2732 1.524 . S
C2731 C2735 1.400 . S
C2732 H2717 0.960 . S
C2732 H2718 0.960 . S
C2732 H2719 0.960 . S
C2732 C2731 1.524 . S
C2733 C2730 1.403 . S
C2733 C2734 1.392 . S
C2733 C2737 1.495 . S
C2734 C2733 1.392 . S
C2734 C2735 1.385 . S
C2734 C2736 1.478 . S
C2735 H2729 0.930 . S
C2735 C2731 1.400 . S
C2735 C2734 1.385 . S
C2736 C2734 1.478 . S
C2736 C2738 1.381 . S
C2736 C2742 1.383 . S
C2737 C2733 1.495 . S
C2737 H2743 0.959 . S
C2737 H2744 0.961 . S
C2737 H2745 0.960 . S
C2738 C2736 1.381 . S
C2738 C2739 1.394 . S
C2738 H2746 0.930 . S
C2739 C2738 1.394 . S
C2739 C2740 1.383 . S
C2739 H2747 0.929 . S
C2740 C2739 1.383 . S
C2740 C2741 1.377 . S
C2741 H2725 0.930 . S
C2741 C2740 1.377 . S
C2741 C2742 1.379 . S
C2742 H2726 0.931 . S
C2742 C2736 1.383 . S
C2742 C2741 1.379 . S
H2743 C2737 0.959 . S
H2744 C2737 0.961 . S
H2745 C2737 0.960 . S
H2746 C2738 0.930 . S
H2747 C2739 0.929 . S
H2748 C2756 0.929 . S
H2749 C2758 0.930 . S
H2750 C2760 0.930 . S
H2751 C2763 0.929 . S
H2752 C2766 0.930 . S
H2753 C2768 0.960 . S
H2754 C2768 0.960 . S
H2755 C2768 0.960 . S
C2756 H2748 0.929 . S
C2756 C2757 1.377 . S
C2756 C2758 1.384 . S
C2757 C2756 1.377 . S
C2757 C2763 1.390 . S
C2758 H2749 0.930 . S
C2758 C2756 1.384 . S
C2758 C2759 1.372 . S
C2759 C2758 1.372 . S
C2759 C2760 1.400 . S
C2759 C2764 1.490 . S
C2760 H2750 0.930 . S
C2760 C2759 1.400 . S
C2760 C2763 1.386 . S
H2761 C2777 0.930 . S
H2762 C2778 0.931 . S
C2763 H2751 0.929 . S
C2763 C2757 1.390 . S
C2763 C2760 1.386 . S
C2764 C2759 1.490 . S
C2764 C2766 1.395 . S
C2764 C2767 1.403 . S
H2765 C2771 0.930 . S
C2766 H2752 0.930 . S
C2766 C2764 1.395 . S
C2766 C2769 1.403 . S
C2767 C2764 1.403 . S
C2767 C2768 1.524 . S
C2767 C2771 1.400 . S
C2768 H2753 0.960 . S
C2768 H2754 0.960 . S
C2768 H2755 0.960 . S
C2768 C2767 1.524 . S
C2769 C2766 1.403 . S
C2769 C2770 1.392 . S
C2769 C2773 1.495 . S
C2770 C2769 1.392 . S
C2770 C2771 1.385 . S
C2770 C2772 1.478 . S
C2771 H2765 0.930 . S
C2771 C2767 1.400 . S
C2771 C2770 1.385 . S
C2772 C2770 1.478 . S
C2772 C2774 1.381 . S
C2772 C2778 1.383 . S
C2773 C2769 1.495 . S
C2773 H2779 0.959 . S
C2773 H2780 0.961 . S
C2773 H2781 0.960 . S
C2774 C2772 1.381 . S
C2774 C2775 1.394 . S
C2774 H2782 0.930 . S
C2775 C2774 1.394 . S
C2775 C2776 1.383 . S
C2775 H2783 0.929 . S
C2776 C2775 1.383 . S
C2776 C2777 1.377 . S
C2777 H2761 0.930 . S
C2777 C2776 1.377 . S
C2777 C2778 1.379 . S
C2778 H2762 0.931 . S
C2778 C2772 1.383 . S
C2778 C2777 1.379 . S
H2779 C2773 0.959 . S
H2780 C2773 0.961 . S
H2781 C2773 0.960 . S
H2782 C2774 0.930 . S
H2783 C2775 0.929 . S
H2784 C2792 0.929 . S
H2785 C2794 0.930 . S
H2786 C2796 0.930 . S
H2787 C2799 0.929 . S
H2788 C2802 0.930 . S
H2789 C2804 0.974 . S
H2790 C2804 0.960 . S
H2791 C2804 0.960 . S
C2792 H2784 0.929 . S
C2792 C2793 1.377 . S
C2792 C2794 1.384 . S
C2793 C2792 1.377 . S
C2793 C2799 1.390 . S
C2794 H2785 0.930 . S
C2794 C2792 1.384 . S
C2794 C2795 1.372 . S
C2795 C2794 1.372 . S
C2795 C2796 1.400 . S
C2795 C2800 1.490 . S
C2796 H2786 0.930 . S
C2796 C2795 1.400 . S
C2796 C2799 1.386 . S
H2797 C2813 0.930 . S
H2798 C2814 0.931 . S
C2799 H2787 0.929 . S
C2799 C2793 1.390 . S
C2799 C2796 1.386 . S
C2800 C2795 1.490 . S
C2800 C2802 1.395 . S
C2800 C2803 1.403 . S
H2801 C2807 0.930 . S
C2802 H2788 0.930 . S
C2802 C2800 1.395 . S
C2802 C2805 1.403 1_565 S
C2803 C2800 1.403 . S
C2803 C2804 1.524 . S
C2803 C2807 1.400 1_565 S
C2804 H2789 0.974 . S
C2804 H2790 0.960 . S
C2804 H2791 0.960 . S
C2804 C2803 1.524 . S
C2805 C2802 1.403 1_545 S
C2805 C2806 1.392 . S
C2805 C2809 1.495 . S
C2806 C2805 1.392 . S
C2806 C2807 1.385 . S
C2806 C2808 1.478 . S
C2807 H2801 0.930 . S
C2807 C2803 1.400 1_545 S
C2807 C2806 1.385 . S
C2808 C2806 1.478 . S
C2808 C2810 1.381 . S
C2808 C2814 1.383 . S
C2809 C2805 1.495 . S
C2809 H2815 0.920 1_545 S
C2809 H2816 0.961 . S
C2809 H2817 0.960 . S
C2810 C2808 1.381 . S
C2810 C2811 1.394 . S
C2810 H2818 0.930 . S
C2811 C2810 1.394 . S
C2811 C2812 1.383 . S
C2811 H2819 0.929 . S
C2812 C2811 1.383 . S
C2812 C2813 1.377 . S
C2813 H2797 0.930 . S
C2813 C2812 1.377 . S
C2813 C2814 1.379 . S
C2814 H2798 0.931 . S
C2814 C2808 1.383 . S
C2814 C2813 1.379 . S
H2815 C2809 0.920 1_565 S
H2816 C2809 0.961 . S
H2817 C2809 0.960 . S
H2818 C2810 0.930 . S
H2819 C2811 0.929 . S
H2820 C2828 0.929 . S
H2821 C2830 0.930 . S
H2822 C2832 0.930 . S
H2823 C2835 0.929 . S
H2824 C2838 0.930 . S
H2825 C2840 0.960 . S
H2826 C2840 0.960 . S
H2827 C2840 0.960 . S
C2828 H2820 0.929 . S
C2828 C2829 1.377 . S
C2828 C2830 1.384 . S
C2829 C2828 1.377 . S
C2829 C2835 1.390 . S
C2830 H2821 0.930 . S
C2830 C2828 1.384 . S
C2830 C2831 1.372 . S
C2831 C2830 1.372 . S
C2831 C2832 1.400 . S
C2831 C2836 1.490 . S
C2832 H2822 0.930 . S
C2832 C2831 1.400 . S
C2832 C2835 1.386 . S
H2833 C2849 0.930 . S
H2834 C2850 0.931 . S
C2835 H2823 0.929 . S
C2835 C2829 1.390 . S
C2835 C2832 1.386 . S
C2836 C2831 1.490 . S
C2836 C2838 1.395 . S
C2836 C2839 1.403 . S
H2837 C2843 0.930 . S
C2838 H2824 0.930 . S
C2838 C2836 1.395 . S
C2838 C2841 1.403 . S
C2839 C2836 1.403 . S
C2839 C2840 1.524 . S
C2839 C2843 1.400 . S
C2840 H2825 0.960 . S
C2840 H2826 0.960 . S
C2840 H2827 0.960 . S
C2840 C2839 1.524 . S
C2841 C2838 1.403 . S
C2841 C2842 1.392 . S
C2841 C2845 1.495 . S
C2842 C2841 1.392 . S
C2842 C2843 1.385 . S
C2842 C2844 1.478 . S
C2843 H2837 0.930 . S
C2843 C2839 1.400 . S
C2843 C2842 1.385 . S
C2844 C2842 1.478 . S
C2844 C2846 1.381 . S
C2844 C2850 1.383 . S
C2845 C2841 1.495 . S
C2845 H2851 0.959 . S
C2845 H2852 0.961 . S
C2845 H2853 0.960 . S
C2846 C2844 1.381 . S
C2846 C2847 1.394 . S
C2846 H2854 0.930 . S
C2847 C2846 1.394 . S
C2847 C2848 1.383 . S
C2847 H2855 0.929 . S
C2848 C2847 1.383 . S
C2848 C2849 1.377 . S
C2849 H2833 0.930 . S
C2849 C2848 1.377 . S
C2849 C2850 1.379 . S
C2850 H2834 0.931 . S
C2850 C2844 1.383 . S
C2850 C2849 1.379 . S
H2851 C2845 0.959 . S
H2852 C2845 0.961 . S
H2853 C2845 0.960 . S
H2854 C2846 0.930 . S
H2855 C2847 0.929 . S
H2856 C2864 0.929 . S
H2857 C2866 0.930 . S
H2858 C2868 0.930 1_556 S
H2859 C2871 0.929 . S
H2860 C2874 0.930 . S
H2861 C2876 0.960 1_556 S
H2862 C2876 0.960 . S
H2863 C2876 0.960 1_556 S
C2864 H2856 0.929 . S
C2864 C2865 1.377 . S
C2864 C2866 1.384 . S
C2865 C2864 1.377 . S
C2865 C2871 1.390 . S
C2866 H2857 0.930 . S
C2866 C2864 1.384 . S
C2866 C2867 1.372 . S
C2867 C2866 1.372 . S
C2867 C2868 1.400 . S
C2867 C2872 1.490 . S
C2868 H2858 0.930 1_554 S
C2868 C2867 1.400 . S
C2868 C2871 1.386 . S
H2869 C2885 0.930 . S
H2870 C2886 0.931 . S
C2871 H2859 0.929 . S
C2871 C2865 1.390 . S
C2871 C2868 1.386 . S
C2872 C2867 1.490 . S
C2872 C2874 1.395 . S
C2872 C2875 1.403 . S
H2873 C2879 0.930 . S
C2874 H2860 0.930 . S
C2874 C2872 1.395 . S
C2874 C2877 1.403 1_565 S
C2875 C2872 1.403 . S
C2875 C2876 1.524 . S
C2875 C2879 1.400 1_564 S
C2876 H2861 0.960 1_554 S
C2876 H2862 0.960 . S
C2876 H2863 0.960 1_554 S
C2876 C2875 1.524 . S
C2877 C2874 1.403 1_545 S
C2877 C2878 1.392 1_554 S
C2877 C2881 1.495 . S
C2878 C2877 1.392 1_556 S
C2878 C2879 1.385 . S
C2878 C2880 1.478 . S
C2879 H2873 0.930 . S
C2879 C2875 1.400 1_546 S
C2879 C2878 1.385 . S
C2880 C2878 1.478 . S
C2880 C2882 1.381 . S
C2880 C2886 1.383 . S
C2881 C2877 1.495 . S
C2881 H2887 0.959 . S
C2881 H2888 0.961 1_554 S
C2881 H2889 0.960 . S
C2882 C2880 1.381 . S
C2882 C2883 1.394 . S
C2882 H2890 0.930 1_556 S
C2883 C2882 1.394 . S
C2883 C2884 1.383 . S
C2883 H2891 0.929 . S
C2884 C2883 1.383 . S
C2884 C2885 1.377 . S
C2885 H2869 0.930 . S
C2885 C2884 1.377 . S
C2885 C2886 1.379 . S
C2886 H2870 0.931 . S
C2886 C2880 1.383 . S
C2886 C2885 1.379 . S
H2887 C2881 0.959 . S
H2888 C2881 0.961 1_556 S
H2889 C2881 0.960 . S
H2890 C2882 0.930 1_554 S
H2891 C2883 0.929 . S
H2892 C2900 0.929 . S
H2893 C2902 0.930 . S
H2894 C2904 0.930 . S
H2895 C2907 0.929 . S
H2896 C2910 0.930 . S
H2897 C2912 0.960 . S
H2898 C2912 0.960 . S
H2899 C2912 0.960 . S
C2900 H2892 0.929 . S
C2900 C2901 1.377 . S
C2900 C2902 1.384 . S
C2901 C2900 1.377 . S
C2901 C2907 1.390 . S
C2902 H2893 0.930 . S
C2902 C2900 1.384 . S
C2902 C2903 1.372 . S
C2903 C2902 1.372 . S
C2903 C2904 1.400 . S
C2903 C2908 1.490 . S
C2904 H2894 0.930 . S
C2904 C2903 1.400 . S
C2904 C2907 1.386 . S
H2905 C2921 0.930 . S
H2906 C2922 0.931 . S
C2907 H2895 0.929 . S
C2907 C2901 1.390 . S
C2907 C2904 1.386 . S
C2908 C2903 1.490 . S
C2908 C2910 1.395 . S
C2908 C2911 1.403 . S
H2909 C2915 0.930 . S
C2910 H2896 0.930 . S
C2910 C2908 1.395 . S
C2910 C2913 1.403 . S
C2911 C2908 1.403 . S
C2911 C2912 1.524 . S
C2911 C2915 1.400 . S
C2912 H2897 0.960 . S
C2912 H2898 0.960 . S
C2912 H2899 0.960 . S
C2912 C2911 1.524 . S
C2913 C2910 1.403 . S
C2913 C2914 1.392 . S
C2913 C2917 1.495 . S
C2914 C2913 1.392 . S
C2914 C2915 1.385 . S
C2914 C2916 1.478 . S
C2915 H2909 0.930 . S
C2915 C2911 1.400 . S
C2915 C2914 1.385 . S
C2916 C2914 1.478 . S
C2916 C2918 1.381 . S
C2916 C2922 1.383 . S
C2917 C2913 1.495 . S
C2917 H2923 0.959 . S
C2917 H2924 0.961 . S
C2917 H2925 0.960 . S
C2918 C2916 1.381 . S
C2918 C2919 1.394 . S
C2918 H2926 0.930 . S
C2919 C2918 1.394 . S
C2919 C2920 1.383 . S
C2919 H2927 0.929 . S
C2920 C2919 1.383 . S
C2920 C2921 1.377 . S
C2921 H2905 0.930 . S
C2921 C2920 1.377 . S
C2921 C2922 1.379 . S
C2922 H2906 0.931 . S
C2922 C2916 1.383 . S
C2922 C2921 1.379 . S
H2923 C2917 0.959 . S
H2924 C2917 0.961 . S
H2925 C2917 0.960 . S
H2926 C2918 0.930 . S
H2927 C2919 0.929 . S
H2928 C2936 0.929 . S
H2929 C2938 0.930 . S
H2930 C2940 0.930 . S
H2931 C2943 0.929 . S
H2932 C2946 0.930 . S
H2933 C2948 0.960 . S
H2934 C2948 0.960 . S
H2935 C2948 0.960 . S
C2936 H2928 0.929 . S
C2936 C2937 1.377 . S
C2936 C2938 1.384 . S
C2937 C2936 1.377 . S
C2937 C2943 1.390 . S
C2938 H2929 0.930 . S
C2938 C2936 1.384 . S
C2938 C2939 1.372 . S
C2939 C2938 1.372 . S
C2939 C2940 1.400 . S
C2939 C2944 1.490 . S
C2940 H2930 0.930 . S
C2940 C2939 1.400 . S
C2940 C2943 1.386 . S
H2941 C2957 0.930 . S
H2942 C2958 0.931 . S
C2943 H2931 0.929 . S
C2943 C2937 1.390 . S
C2943 C2940 1.386 . S
C2944 C2939 1.490 . S
C2944 C2946 1.395 . S
C2944 C2947 1.403 . S
H2945 C2951 0.930 . S
C2946 H2932 0.930 . S
C2946 C2944 1.395 . S
C2946 C2949 1.403 1_565 S
C2947 C2944 1.403 . S
C2947 C2948 1.524 . S
C2947 C2951 1.400 1_565 S
C2948 H2933 0.960 . S
C2948 H2934 0.960 . S
C2948 H2935 0.960 . S
C2948 C2947 1.524 . S
C2949 C2946 1.403 1_545 S
C2949 C2950 1.392 . S
C2949 C2953 1.495 . S
C2950 C2949 1.392 . S
C2950 C2951 1.385 . S
C2950 C2952 1.478 . S
C2951 H2945 0.930 . S
C2951 C2947 1.400 1_545 S
C2951 C2950 1.385 . S
C2952 C2950 1.478 . S
C2952 C2954 1.381 . S
C2952 C2958 1.383 . S
C2953 C2949 1.495 . S
C2953 H2959 0.959 . S
C2953 H2960 0.961 . S
C2953 H2961 0.960 . S
C2954 C2952 1.381 . S
C2954 C2955 1.394 . S
C2954 H2962 0.930 . S
C2955 C2954 1.394 . S
C2955 C2956 1.383 . S
C2955 H2963 0.929 . S
C2956 C2955 1.383 . S
C2956 C2957 1.377 . S
C2957 H2941 0.930 . S
C2957 C2956 1.377 . S
C2957 C2958 1.379 . S
C2958 H2942 0.931 . S
C2958 C2952 1.383 . S
C2958 C2957 1.379 . S
H2959 C2953 0.959 . S
H2960 C2953 0.961 . S
H2961 C2953 0.960 . S
H2962 C2954 0.930 . S
H2963 C2955 0.929 . S
H2964 C2972 0.929 . S
H2965 C2974 0.930 . S
H2966 C2976 0.930 . S
H2967 C2979 0.929 . S
H2968 C2982 0.930 . S
H2969 C2984 0.960 . S
H2970 C2984 0.960 . S
H2971 C2984 0.960 . S
C2972 H2964 0.929 . S
C2972 C2973 1.377 . S
C2972 C2974 1.384 . S
C2973 C2972 1.377 . S
C2973 C2979 1.390 . S
C2974 H2965 0.930 . S
C2974 C2972 1.384 . S
C2974 C2975 1.372 . S
C2975 C2974 1.372 . S
C2975 C2976 1.400 . S
C2975 C2980 1.490 . S
C2976 H2966 0.930 . S
C2976 C2975 1.400 . S
C2976 C2979 1.386 . S
H2977 C2993 0.930 . S
H2978 C2994 0.931 . S
C2979 H2967 0.929 . S
C2979 C2973 1.390 . S
C2979 C2976 1.386 . S
C2980 C2975 1.490 . S
C2980 C2982 1.395 . S
C2980 C2983 1.403 . S
H2981 C2987 0.930 . S
C2982 H2968 0.930 . S
C2982 C2980 1.395 . S
C2982 C2985 1.403 . S
C2983 C2980 1.403 . S
C2983 C2984 1.524 . S
C2983 C2987 1.400 . S
C2984 H2969 0.960 . S
C2984 H2970 0.960 . S
C2984 H2971 0.960 . S
C2984 C2983 1.524 . S
C2985 C2982 1.403 . S
C2985 C2986 1.392 . S
C2985 C2989 1.495 . S
C2986 C2985 1.392 . S
C2986 C2987 1.385 . S
C2986 C2988 1.478 . S
C2987 H2981 0.930 . S
C2987 C2983 1.400 . S
C2987 C2986 1.385 . S
C2988 C2986 1.478 . S
C2988 C2990 1.381 . S
C2988 C2994 1.383 . S
C2989 C2985 1.495 . S
C2989 H2995 0.959 . S
C2989 H2996 0.961 . S
C2989 H2997 0.960 . S
C2990 C2988 1.381 . S
C2990 C2991 1.394 . S
C2990 H2998 0.930 . S
C2991 C2990 1.394 . S
C2991 C2992 1.383 . S
C2991 H2999 0.929 . S
C2992 C2991 1.383 . S
C2992 C2993 1.377 . S
C2993 H2977 0.930 . S
C2993 C2992 1.377 . S
C2993 C2994 1.379 . S
C2994 H2978 0.931 . S
C2994 C2988 1.383 . S
C2994 C2993 1.379 . S
H2995 C2989 0.959 . S
H2996 C2989 0.961 . S
H2997 C2989 0.960 . S
H2998 C2990 0.930 . S
H2999 C2991 0.929 . S
H3000 C3008 0.929 . S
H3001 C3010 0.930 . S
H3002 C3012 0.930 . S
H3003 C3015 0.929 . S
H3004 C3018 0.930 . S
H3005 C3020 0.960 1_565 S
H3006 C3020 0.960 . S
H3007 C3020 0.960 . S
C3008 H3000 0.929 . S
C3008 C3009 1.377 . S
C3008 C3010 1.384 . S
C3009 C3008 1.377 . S
C3009 C3015 1.390 . S
C3010 H3001 0.930 . S
C3010 C3008 1.384 . S
C3010 C3011 1.372 . S
C3011 C3010 1.372 . S
C3011 C3012 1.400 . S
C3011 C3016 1.490 . S
C3012 H3002 0.930 . S
C3012 C3011 1.400 . S
C3012 C3015 1.386 . S
H3013 C3029 0.930 . S
H3014 C3030 0.931 . S
C3015 H3003 0.929 . S
C3015 C3009 1.390 . S
C3015 C3012 1.386 . S
C3016 C3011 1.490 . S
C3016 C3018 1.395 1_556 S
C3016 C3019 1.403 . S
H3017 C3023 0.930 . S
C3018 H3004 0.930 . S
C3018 C3016 1.395 1_554 S
C3018 C3021 1.403 1_545 S
C3019 C3016 1.403 . S
C3019 C3020 1.524 . S
C3019 C3023 1.400 1_545 S
C3020 H3005 0.960 1_545 S
C3020 H3006 0.960 . S
C3020 H3007 0.960 . S
C3020 C3019 1.524 . S
C3021 C3018 1.403 1_565 S
C3021 C3022 1.392 . S
C3021 C3025 1.495 . S
C3022 C3021 1.392 . S
C3022 C3023 1.385 1_554 S
C3022 C3024 1.478 . S
C3023 H3017 0.930 . S
C3023 C3019 1.400 1_565 S
C3023 C3022 1.385 1_556 S
C3024 C3022 1.478 . S
C3024 C3026 1.381 . S
C3024 C3030 1.383 . S
C3025 C3021 1.495 . S
C3025 H3031 0.959 1_565 S
C3025 H3032 0.961 . S
C3025 H3033 0.960 . S
C3026 C3024 1.381 . S
C3026 C3027 1.394 . S
C3026 H3034 0.930 . S
C3027 C3026 1.394 . S
C3027 C3028 1.383 . S
C3027 H3035 0.929 . S
C3028 C3027 1.383 . S
C3028 C3029 1.377 . S
C3029 H3013 0.930 . S
C3029 C3028 1.377 . S
C3029 C3030 1.379 . S
C3030 H3014 0.931 . S
C3030 C3024 1.383 . S
C3030 C3029 1.379 . S
H3031 C3025 0.959 1_545 S
H3032 C3025 0.961 . S
H3033 C3025 0.960 . S
H3034 C3026 0.930 . S
H3035 C3027 0.929 . S
H3036 C3044 0.929 . S
H3037 C3046 0.930 . S
H3038 C3048 0.930 . S
H3039 C3051 0.929 . S
H3040 C3054 0.930 . S
H3041 C3056 0.960 . S
H3042 C3056 0.960 . S
H3043 C3056 0.960 . S
C3044 H3036 0.929 . S
C3044 C3045 1.377 . S
C3044 C3046 1.384 . S
C3045 C3044 1.377 . S
C3045 C3051 1.390 . S
C3046 H3037 0.930 . S
C3046 C3044 1.384 . S
C3046 C3047 1.372 . S
C3047 C3046 1.372 . S
C3047 C3048 1.400 . S
C3047 C3052 1.490 . S
C3048 H3038 0.930 . S
C3048 C3047 1.400 . S
C3048 C3051 1.386 . S
H3049 C3065 0.930 . S
H3050 C3066 0.931 . S
C3051 H3039 0.929 . S
C3051 C3045 1.390 . S
C3051 C3048 1.386 . S
C3052 C3047 1.490 . S
C3052 C3054 1.395 . S
C3052 C3055 1.403 . S
H3053 C3059 0.930 . S
C3054 H3040 0.930 . S
C3054 C3052 1.395 . S
C3054 C3057 1.403 . S
C3055 C3052 1.403 . S
C3055 C3056 1.524 . S
C3055 C3059 1.400 . S
C3056 H3041 0.960 . S
C3056 H3042 0.960 . S
C3056 H3043 0.960 . S
C3056 C3055 1.524 . S
C3057 C3054 1.403 . S
C3057 C3058 1.392 . S
C3057 C3061 1.495 . S
C3058 C3057 1.392 . S
C3058 C3059 1.385 . S
C3058 C3060 1.478 . S
C3059 H3053 0.930 . S
C3059 C3055 1.400 . S
C3059 C3058 1.385 . S
C3060 C3058 1.478 . S
C3060 C3062 1.381 . S
C3060 C3066 1.383 . S
C3061 C3057 1.495 . S
C3061 H3067 0.959 . S
C3061 H3068 0.961 . S
C3061 H3069 0.960 . S
C3062 C3060 1.381 . S
C3062 C3063 1.394 . S
C3062 H3070 0.930 . S
C3063 C3062 1.394 . S
C3063 C3064 1.383 . S
C3063 H3071 0.929 . S
C3064 C3063 1.383 . S
C3064 C3065 1.377 . S
C3065 H3049 0.930 . S
C3065 C3064 1.377 . S
C3065 C3066 1.379 . S
C3066 H3050 0.931 . S
C3066 C3060 1.383 . S
C3066 C3065 1.379 . S
H3067 C3061 0.959 . S
H3068 C3061 0.961 . S
H3069 C3061 0.960 . S
H3070 C3062 0.930 . S
H3071 C3063 0.929 . S
C1353 C58 1.596 . S
C1372 C70 1.559 . S
C1389 C142 1.592 . S
C1408 C154 1.623 . S
C1425 C226 1.575 . S
C1444 C238 1.538 . S
C1461 C322 1.595 . S
C1480 C310 1.633 . S
C1497 C406 1.577 . S
C1516 C394 1.571 . S
C1533 C490 1.569 . S
C1552 C478 1.552 . S
C1569 C562 1.599 . S
C1588 C574 1.594 . S
C1605 C658 1.604 . S
C1624 C646 1.640 . S
C1641 C730 1.601 . S
C1660 C742 1.617 . S
C1677 C814 1.584 . S
C1696 C826 1.616 . S
C1713 C910 1.589 . S
C1732 C898 1.591 . S
C1749 C982 1.591 . S
C1768 C994 1.548 . S
C1785 C1066 1.579 . S
C1804 C1078 1.538 . S
C1821 C1162 1.588 . S
C1840 C1150 1.613 . S
C1857 C1246 1.599 . S
C1876 C1234 1.618 . S
C1893 C1330 1.593 . S
C1912 C1318 1.614 . S
C1929 C67 1.755 . S
C1948 C979 1.746 . S
C1965 C151 1.758 . S
C1984 C1315 1.768 . S
C2001 C235 1.771 . S
C2020 C812 1.692 . S
C2037 C320 1.722 . S
C2056 C1147 1.783 . S
C2073 C404 1.703 . S
C2092 C1148 1.718 . S
C2109 C980 1.701 . S
C2128 C487 1.766 . S
C2145 C571 1.762 . S
C2164 C1316 1.699 . S
C2181 C656 1.714 . S
C2200 C811 1.750 . S
C2217 C319 1.769 . S
C2236 C728 1.732 . S
C2253 C152 1.711 . S
C2272 C896 1.704 . S
C2289 C1064 1.720 . S
C2308 C488 1.743 . S
C2325 C655 1.758 . S
C2344 C1231 1.767 . S
C2361 C727 1.767 . S
C2380 C403 1.779 . S
C2397 C572 1.715 . S
C2416 C895 1.787 . S
C2433 C236 1.714 . S
C2452 C1232 1.733 . S
C2469 C68 1.724 . S
C2488 C1063 1.758 . S
C2505 C55 1.619 . S
C2524 C392 1.624 . S
C2541 C139 1.644 . S
C2560 C475 1.627 . S
C2577 C223 1.640 . S
C2596 C559 1.623 . S
C2613 C308 1.637 . S
C2632 C644 1.643 . S
C2649 C1076 1.638 . S
C2668 C740 1.628 . S
C2685 C1159 1.644 . S
C2704 C823 1.639 . S
C2721 C908 1.656 . S
C2740 C1243 1.637 . S
C2757 C1327 1.610 . S
C2776 C992 1.621 . S
C2793 C140 1.616 . S
C2812 C643 1.608 . S
C2829 C391 1.660 . S
C2848 C224 1.667 . S
C2865 C476 1.655 . S
C2884 C307 1.642 . S
C2901 C56 1.635 . S
C2920 C560 1.639 . S
C2937 C1328 1.638 . S
C2956 C824 1.640 . S
C2973 C1075 1.666 . S
C2992 C907 1.668 . S
C3009 C1160 1.633 . S
C3028 C991 1.640 . S
C3045 C1244 1.620 . S
C3064 C739 1.602 . S
