# Generated by pormake.
# Topology smc, (6)-cn, num edge types: 1
# Building blocks:
#     Node 0, Type 0, BuildingBlock: JUFBIX_clean_sbu_0, # of connection points: 6
#     Node 1, Type 0, BuildingBlock: JUFBIX_clean_sbu_0, # of connection points: 6
#     Node 2, Type 0, BuildingBlock: JUFBIX_clean_sbu_0, # of connection points: 6
#     Node 3, Type 0, BuildingBlock: JUFBIX_clean_sbu_0, # of connection points: 6
#     Node 4, Type 0, BuildingBlock: JUFBIX_clean_sbu_0, # of connection points: 6
#     Node 5, Type 0, BuildingBlock: JUFBIX_clean_sbu_0, # of connection points: 6
#     Node 6, Type 0, BuildingBlock: JUFBIX_clean_sbu_0, # of connection points: 6
#     Node 7, Type 0, BuildingBlock: JUFBIX_clean_sbu_0, # of connection points: 6
#     Node 8, Type 0, BuildingBlock: JUFBIX_clean_sbu_0, # of connection points: 6
#     Edge 9, Type (0, 0), BuildingBlock: EYOCIG_clean_linker_4, # of connection points: 2
#     Edge 10, Type (0, 0), BuildingBlock: EYOCIG_clean_linker_4, # of connection points: 2
#     Edge 11, Type (0, 0), BuildingBlock: EYOCIG_clean_linker_4, # of connection points: 2
#     Edge 12, Type (0, 0), BuildingBlock: EYOCIG_clean_linker_4, # of connection points: 2
#     Edge 13, Type (0, 0), BuildingBlock: EYOCIG_clean_linker_4, # of connection points: 2
#     Edge 14, Type (0, 0), BuildingBlock: EYOCIG_clean_linker_4, # of connection points: 2
#     Edge 15, Type (0, 0), BuildingBlock: EYOCIG_clean_linker_4, # of connection points: 2
#     Edge 16, Type (0, 0), BuildingBlock: EYOCIG_clean_linker_4, # of connection points: 2
#     Edge 17, Type (0, 0), BuildingBlock: EYOCIG_clean_linker_4, # of connection points: 2
#     Edge 18, Type (0, 0), BuildingBlock: EYOCIG_clean_linker_4, # of connection points: 2
#     Edge 19, Type (0, 0), BuildingBlock: EYOCIG_clean_linker_4, # of connection points: 2
#     Edge 20, Type (0, 0), BuildingBlock: EYOCIG_clean_linker_4, # of connection points: 2
#     Edge 21, Type (0, 0), BuildingBlock: EYOCIG_clean_linker_4, # of connection points: 2
#     Edge 22, Type (0, 0), BuildingBlock: EYOCIG_clean_linker_4, # of connection points: 2
#     Edge 23, Type (0, 0), BuildingBlock: EYOCIG_clean_linker_4, # of connection points: 2
#     Edge 24, Type (0, 0), BuildingBlock: EYOCIG_clean_linker_4, # of connection points: 2
#     Edge 25, Type (0, 0), BuildingBlock: EYOCIG_clean_linker_4, # of connection points: 2
#     Edge 26, Type (0, 0), BuildingBlock: EYOCIG_clean_linker_4, # of connection points: 2
#     Edge 27, Type (0, 0), BuildingBlock: EYOCIG_clean_linker_4, # of connection points: 2
#     Edge 28, Type (0, 0), BuildingBlock: EYOCIG_clean_linker_4, # of connection points: 2
#     Edge 29, Type (0, 0), BuildingBlock: EYOCIG_clean_linker_4, # of connection points: 2
#     Edge 30, Type (0, 0), BuildingBlock: EYOCIG_clean_linker_4, # of connection points: 2
#     Edge 31, Type (0, 0), BuildingBlock: EYOCIG_clean_linker_4, # of connection points: 2
#     Edge 32, Type (0, 0), BuildingBlock: EYOCIG_clean_linker_4, # of connection points: 2
#     Edge 33, Type (0, 0), BuildingBlock: EYOCIG_clean_linker_4, # of connection points: 2
#     Edge 34, Type (0, 0), BuildingBlock: EYOCIG_clean_linker_4, # of connection points: 2
#     Edge 35, Type (0, 0), BuildingBlock: EYOCIG_clean_linker_4, # of connection points: 2
# Relax obj value: 0.534
# Max RMSD: 0.324
# Mean RMSD: 0.314
data_MOF--net-smc--node1-JUFBIX_clean_sbu_0--edge1-EYOCIG_clean_linker_4
_symmetry_space_group_name_H-M    P1
_symmetry_Int_Tables_number       1
_symmetry_cell_setting            triclinic
loop_
_symmetry_equiv_pos_as_xyz
'x, y, z'
_cell_length_a     23.302953
_cell_length_b     28.330806
_cell_length_c     31.458071
_cell_angle_alpha  89.57911
_cell_angle_beta   90.414823
_cell_angle_gamma 119.35984
loop_
_atom_site_label
_atom_site_type_symbol
_atom_site_fract_x
_atom_site_fract_y
_atom_site_fract_z
_atom_type_partial_charge
Co0 Co 0.08537 0.50472 1.0325 0.0
C1 C 1.02932 0.43356 0.96313 0.0
Co2 Co 1.02321 0.42021 0.05016 0.0
C3 C 0.15446 0.62002 0.04459 0.0
C4 C 0.15332 0.59796 0.97942 0.0
N5 N 0.13515 0.57685 1.01886 0.0
N6 N 0.18316 0.66655 1.02239 0.0
C7 C 0.18268 0.65326 0.98158 0.0
H8 H 0.14468 0.61742 0.07837 0.0
H9 H 0.14401 0.57494 0.95053 0.0
C10 C 0.08107 0.47877 0.12015 0.0
N11 N 0.96778 0.34734 0.06331 0.0
C12 C 0.90902 0.31627 0.04397 0.0
C13 C 0.96633 0.31886 0.09831 0.0
N14 N 0.87123 0.27042 0.06569 0.0
C15 C 0.90663 0.2715 0.09989 0.0
C16 C 0.16367 0.45749 1.0382 0.0
O17 O 0.10998 0.51831 0.0939 0.0
O18 O 1.03432 0.4349 0.10713 0.0
O19 O 0.10959 0.41545 0.05079 0.0
O20 O 0.16014 0.49808 1.02516 0.0
O21 O 1.01042 0.40062 0.99351 0.0
H22 H 1.00365 0.33354 0.12293 0.0
H23 H 0.89184 0.32929 1.01659 0.0
O24 O 0.06061 0.48432 0.97141 0.0
O25 O 1.0126 0.51755 1.0398 0.0
O26 O 0.94363 0.43206 0.04985 0.0
C27 C 0.954 0.48083 0.04593 0.0
H28 H 0.1999 0.68147 0.95513 0.0
H29 H 0.88875 0.24224 0.12562 0.0
Co30 Co 0.60099 0.53288 0.06002 0.0
C31 C 0.62589 0.60186 0.12549 0.0
Co32 Co 0.64083 0.61272 1.03711 0.0
C33 C 0.56047 0.42431 0.04771 0.0
C34 C 0.54976 0.43928 0.11304 0.0
N35 N 0.56995 0.46368 0.07477 0.0
N36 N 0.53394 0.3768 0.06709 0.0
C37 C 0.52662 0.38495 0.10812 0.0
H38 H 0.56613 0.42832 1.01364 0.0
H39 H 0.54826 0.45867 0.14212 0.0
C40 C 0.62487 0.55291 0.97041 0.0
N41 N 0.67688 0.6847 1.02357 0.0
C42 C 0.67545 0.72115 0.04986 0.0
C43 C 0.69817 0.7111 0.98602 0.0
N44 N 0.6939 0.76815 1.03056 0.0
C45 C 0.70757 0.76273 0.99018 0.0
C46 C 0.73561 0.57773 0.05313 0.0
O47 O 0.61207 0.51804 0.9997 0.0
O48 O 0.63069 0.59767 0.98017 0.0
O49 O 0.73083 0.61663 1.03507 0.0
O50 O 0.68512 0.54151 0.07131 0.0
O51 O 0.65424 0.63246 0.09467 0.0
H52 H 0.70103 0.69291 0.9566 0.0
H53 H 0.65259 0.71183 0.08089 0.0
O54 O 0.59323 0.55137 0.11881 0.0
O55 O 0.51261 0.51744 0.04936 0.0
O56 O 0.54715 0.60313 1.03843 0.0
C57 C 0.49845 0.55451 0.0426 0.0
H58 H 0.50083 0.35352 0.13161 0.0
H59 H 0.71614 0.79141 0.96476 0.0
Co60 Co 0.4648 0.98471 1.02845 0.0
C61 C 0.44348 0.03636 0.96196 0.0
Co62 Co 0.41854 0.02857 0.04942 0.0
C63 C 0.51498 0.91417 0.04175 0.0
C64 C 0.52383 0.93787 0.97626 0.0
N65 N 0.50141 0.9438 1.01427 0.0
N66 N 0.5455 0.89135 1.02271 0.0
C67 C 0.55184 0.9055 0.98162 0.0
H68 H 0.50788 0.912 0.07573 0.0
H69 H 0.52292 0.95754 0.94692 0.0
C70 C 0.43571 0.97876 0.11616 0.0
N71 N 0.37854 0.06676 0.06363 0.0
C72 C 0.3804 0.10581 1.03874 0.0
C73 C 0.35411 0.07177 0.10114 0.0
N74 N 0.35998 0.13562 0.05901 0.0
C75 C 0.34381 0.11546 0.09851 0.0
C76 C 0.33231 0.92287 1.03154 0.0
O77 O 0.45192 0.95742 0.08683 0.0
O78 O 0.42616 0.01742 0.10696 0.0
O79 O 0.33511 0.96412 0.04894 0.0
O80 O 0.38332 0.92611 1.0151 0.0
O81 O 0.40943 0.04098 0.99077 0.0
H82 H 0.35026 0.04901 0.12974 0.0
H83 H 0.40612 0.11822 1.00869 0.0
O84 O 0.47607 0.01262 0.97081 0.0
O85 O 0.5484 0.04199 0.04188 0.0
O86 O 0.50372 0.09351 0.05087 0.0
C87 C 0.55477 0.08827 0.04828 0.0
H88 H 0.57862 0.89622 0.95819 0.0
H89 H 0.33395 0.13494 0.12474 0.0
Co90 Co 0.74684 0.82348 0.36652 0.0
C91 C 0.68178 0.75466 0.29623 0.0
Co92 Co 0.67239 0.7376 0.38162 0.0
C93 C 0.82135 0.94569 0.3771 0.0
C94 C 0.82048 0.92051 0.31318 0.0
N95 N 0.80333 0.9002 0.35292 0.0
N96 N 0.84859 0.99252 0.35371 0.0
C97 C 0.84777 0.97621 0.31364 0.0
H98 H 0.81135 0.94425 0.41078 0.0
H99 H 0.81076 0.89635 0.28487 0.0
C100 C 0.7403 0.79907 0.45168 0.0
N101 N 0.61874 0.66818 0.39765 0.0
C102 C 0.56983 0.63058 0.37425 0.0
C103 C 0.61691 0.64342 0.43503 0.0
N104 N 0.53771 0.58428 0.3956 0.0
C105 C 0.56572 0.59147 0.43398 0.0
C106 C 0.79492 0.75462 0.3692 0.0
O107 O 0.76937 0.83875 0.42609 0.0
O108 O 0.6948 0.75461 0.43829 0.0
O109 O 0.73622 0.72043 0.37653 0.0
O110 O 0.81297 0.80467 0.36267 0.0
O111 O 0.65183 0.72047 0.32513 0.0
H112 H 0.6485 0.6622 0.46217 0.0
H113 H 0.55377 0.63812 0.34381 0.0
O114 O 0.72391 0.80348 0.30609 0.0
O115 O 0.67844 0.83752 0.37164 0.0
O116 O 0.60536 0.75265 0.38656 0.0
C117 C 0.62022 0.80113 0.37992 0.0
H118 H 0.86353 1.00265 0.28609 0.0
H119 H 0.54696 0.56301 0.46024 0.0
Co120 Co 0.22683 0.90269 0.3736 0.0
C121 C 0.30196 0.9138 0.30551 0.0
Co122 Co 0.32413 0.93093 0.39274 0.0
C123 C 0.10496 0.89572 0.38333 0.0
C124 C 0.11091 0.86315 0.3235 0.0
N125 N 0.14497 0.88582 0.35936 0.0
N126 N 0.04479 0.87338 0.36698 0.0
C127 C 0.04917 0.85638 0.32794 0.0
H128 H 0.11549 0.91073 0.41553 0.0
H129 H 0.12735 0.84829 0.29736 0.0
C130 C 0.26035 0.93269 0.46142 0.0
N131 N 0.4092 0.95627 0.40388 0.0
C132 C 0.44575 0.94068 0.38226 0.0
C133 C 0.44759 0.98721 0.43601 0.0
N134 N 0.50422 0.95823 0.40045 0.0
C135 C 0.50666 0.98757 0.43434 0.0
C136 C 0.29685 0.01514 0.37455 0.0
O137 O 0.21473 0.91845 0.43375 0.0
O138 O 0.31036 0.92973 0.45122 0.0
O139 O 0.3413 1.00731 0.39153 0.0
O140 O 0.24658 0.97452 0.36025 0.0
O141 O 0.3445 0.93596 0.3341 0.0
H142 H 0.43157 1.00391 0.46111 0.0
H143 H 0.42635 0.91031 0.35743 0.0
O144 O 0.24207 0.89135 0.31557 0.0
O145 O 0.19948 0.82546 0.38608 0.0
O146 O 0.30315 0.85011 0.39432 0.0
C147 C 0.243 0.81096 0.39144 0.0
H148 H 1.00759 0.83114 0.30771 0.0
H149 H 0.54405 1.00154 0.45896 0.0
Co150 Co 0.1365 0.31366 0.366 0.0
C151 C 0.12219 0.37201 0.29673 0.0
Co152 Co 0.09776 0.37246 0.38286 0.0
C153 C 0.18477 0.23214 0.37681 0.0
C154 C 0.1986 0.26642 0.31451 0.0
N155 N 0.1727 0.26687 0.35276 0.0
N156 N 0.2164 0.21063 0.35458 0.0
C157 C 0.22486 0.23225 0.31557 0.0
H158 H 0.17157 0.22337 0.41 0.0
H159 H 0.19993 0.29022 0.28723 0.0
C160 C 0.10472 0.31395 0.4523 0.0
N161 N 0.0836 0.43647 0.39524 0.0
C162 C 0.11803 0.48836 0.37753 0.0
C163 C 0.05906 0.44604 0.43088 0.0
N164 N 0.11535 0.52868 0.4005 0.0
C165 C 0.07758 0.5009 0.4339 0.0
C166 C 1.00151 0.25994 0.36719 0.0
O167 O 0.12611 0.29266 0.42526 0.0
O168 O 0.09589 0.35356 0.44144 0.0
O169 O 1.00497 0.30604 0.37776 0.0
O170 O 0.05315 0.2586 0.35707 0.0
O171 O 0.09863 0.38864 0.3253 0.0
H172 H 1.03333 0.41586 0.45518 0.0
H173 H 0.1486 0.49707 0.34963 0.0
O174 O 0.1426 0.33859 0.30633 0.0
O175 O 0.21953 0.36732 0.37532 0.0
O176 O 0.185 0.42562 0.38706 0.0
C177 C 0.23071 0.41459 0.38252 0.0
H178 H 0.24905 0.22424 0.28957 0.0
H179 H 0.06633 0.51935 0.46022 0.0
Co180 Co 0.41529 0.17108 0.69744 0.0
C181 C 0.35626 0.09994 0.62828 0.0
Co182 Co 0.35432 0.08675 0.71524 0.0
C183 C 0.48523 0.28572 0.70941 0.0
C184 C 0.48348 0.26379 0.64412 0.0
N185 N 0.465 0.24268 0.68352 0.0
N186 N 0.51476 0.33223 0.68738 0.0
C187 C 0.51394 0.31913 0.64648 0.0
H188 H 0.47547 0.28315 0.74319 0.0
H189 H 0.47368 0.24075 0.61519 0.0
C190 C 0.41206 0.14625 0.78489 0.0
N191 N 0.29911 0.01394 0.72885 0.0
C192 C 0.23976 0.98271 0.71022 0.0
C193 C 0.2987 0.98571 0.76375 0.0
N194 N 0.2026 0.93701 0.7323 0.0
C195 C 0.23906 0.93835 0.76599 0.0
C196 C 0.49487 0.12443 0.70281 0.0
O197 O 0.44118 0.18532 0.75838 0.0
O198 O 0.36608 0.10189 0.77205 0.0
O199 O 0.44112 0.0823 0.71573 0.0
O200 O 0.49029 0.16434 0.68916 0.0
O201 O 0.3403 0.06679 0.65847 0.0
H202 H 0.33677 1.00055 0.78789 0.0
H203 H 0.22183 0.99549 0.68307 0.0
O204 O 0.38797 0.15063 0.63672 0.0
O205 O 0.34323 0.18422 0.70574 0.0
O206 O 0.27459 0.09856 0.71535 0.0
C207 C 0.28477 0.14732 0.71186 0.0
H208 H 0.53154 0.34749 0.62014 0.0
H209 H 0.22201 0.90923 0.79182 0.0
Co210 Co 0.93481 0.20226 0.72781 0.0
C211 C 0.96118 0.27225 0.79376 0.0
Co212 Co 0.97377 0.28143 0.70463 0.0
C213 C 0.89641 0.09395 0.71556 0.0
C214 C 0.88201 0.1082 0.7804 0.0
N215 N 0.90358 0.13292 0.74238 0.0
N216 N 0.87038 0.04642 0.73491 0.0
C217 C 0.86064 0.05408 0.77561 0.0
H218 H 0.90441 0.0983 0.68167 0.0
H219 H 0.87885 0.12728 0.80921 0.0
C220 C 0.95861 0.22264 0.63749 0.0
N221 N 1.0103 0.35312 0.69084 0.0
C222 C 1.00935 0.38979 0.71702 0.0
C223 C 1.03324 0.37965 0.65351 0.0
N224 N 1.02999 0.43721 0.69793 0.0
C225 C 0.04425 0.43174 0.65771 0.0
C226 C 0.06871 0.24624 0.72028 0.0
O227 O 0.94646 0.18758 0.66669 0.0
O228 O 0.96253 0.26654 0.6477 0.0
O229 O 0.0636 0.28478 0.70186 0.0
O230 O 1.01868 0.21063 0.73921 0.0
O231 O 0.98876 0.3019 0.76233 0.0
H232 H 0.03651 0.36141 0.62422 0.0
H233 H 0.98565 0.38056 0.74779 0.0
O234 O 0.92761 0.22151 0.78746 0.0
O235 O 0.84604 0.18656 0.71707 0.0
O236 O 0.87997 0.27213 0.7065 0.0
C237 C 0.83137 0.22336 0.71041 0.0
H238 H 0.83506 0.02239 0.79895 0.0
H239 H 0.05448 0.46089 0.6324 0.0
Co240 Co 0.79718 0.64851 0.69788 0.0
C241 C 0.77668 0.69961 0.6318 0.0
Co242 Co 0.74943 0.6915 0.71922 0.0
C243 C 0.84645 0.57744 0.71064 0.0
C244 C 0.85628 0.60207 0.64535 0.0
N245 N 0.83321 0.60737 0.68335 0.0
N246 N 0.87761 0.5552 0.69159 0.0
C247 C 0.88452 0.5699 0.6506 0.0
H248 H 0.83931 0.57518 0.74462 0.0
H249 H 0.85612 0.62229 0.61615 0.0
C250 C 0.76417 0.63935 0.78567 0.0
N251 N 0.71033 0.73103 0.73241 0.0
C252 C 0.71376 0.77021 0.70683 0.0
C253 C 0.68887 0.73891 0.77008 0.0
N254 N 0.69815 0.80318 0.72698 0.0
C255 C 0.68247 0.78451 0.76689 0.0
C256 C 0.66386 0.58739 0.69962 0.0
O257 O 0.78346 0.6207 0.75599 0.0
O258 O 0.75376 0.67797 0.77739 0.0
O259 O 0.66602 0.62833 0.71704 0.0
O260 O 0.71546 0.59044 0.68427 0.0
O261 O 0.74292 0.7048 0.66045 0.0
H262 H 0.68545 0.71719 0.79919 0.0
H263 H 0.73852 0.78095 0.67643 0.0
O264 O 0.80915 0.67604 0.6408 0.0
O265 O 0.88095 0.70554 0.71147 0.0
O266 O 0.83524 0.75599 0.72206 0.0
C267 C 0.8867 0.75146 0.71868 0.0
H268 H 0.91235 0.56159 0.62731 0.0
H269 H 0.67636 0.80628 0.79303 0.0
C270 C 0.36564 0.51577 0.04081 0.0
C271 C 0.42688 0.53846 0.04087 0.0
C272 C 0.29299 0.4866 0.04145 0.0
C273 C 0.23197 0.46591 0.04198 0.0
C274 C 0.61264 0.85352 0.05887 0.0
C275 C 0.58021 0.87117 0.04438 0.0
C276 C 0.65175 0.83 0.05845 0.0
C277 C 0.67179 0.8022 0.04466 0.0
C278 C 0.24641 0.82179 0.04335 0.0
C279 C 0.2795 0.87003 0.04025 0.0
C280 C 0.22009 0.76544 0.04344 0.0
C281 C 0.20191 0.71858 1.03677 0.0
C282 C 0.41333 0.23324 1.03354 0.0
C283 C 0.38604 0.18907 0.0479 0.0
C284 C 0.46068 0.28644 1.03146 0.0
C285 C 0.49621 0.32965 0.04537 0.0
C286 C 0.67752 0.16748 0.05191 0.0
C287 C 0.61998 0.13385 0.05067 0.0
C288 C 0.74584 0.20399 0.05443 0.0
C289 C 0.80381 0.23508 0.05915 0.0
C290 C 0.86735 0.51899 0.0484 0.0
C291 C 0.9022 0.49712 0.04787 0.0
C292 C 0.82838 0.54687 0.04838 0.0
C293 C 0.79128 0.56664 0.04815 0.0
C294 C 0.8917 0.75289 0.40046 0.0
C295 C 0.84023 0.74042 0.38504 0.0
C296 C 0.95096 0.79805 0.40706 0.0
C297 C 0.99643 0.83727 0.39347 0.0
C298 C 0.25879 0.14167 0.3727 0.0
C299 C 0.2377 0.17326 0.36708 0.0
C300 C 0.28209 0.10297 0.37533 0.0
C301 C 0.29555 0.06626 0.37679 0.0
C302 C 0.91415 0.15497 0.37191 0.0
C303 C 0.94409 0.20511 0.37169 0.0
C304 C 0.88848 0.09636 0.37036 0.0
C305 C 0.8691 0.04751 0.36549 0.0
C306 C 0.20073 0.6997 0.39279 0.0
C307 C 0.22261 0.75043 0.39243 0.0
C308 C 0.17262 0.63894 0.39313 0.0
C309 C 0.14753 0.58788 0.3948 0.0
C310 C 0.35243 0.48395 0.37752 0.0
C311 C 0.29527 0.45569 0.3805 0.0
C312 C 0.41921 0.51476 0.37849 0.0
C313 C 0.47397 0.5469 0.38637 0.0
C314 C 0.5457 0.89183 0.39073 0.0
C315 C 0.53285 0.92619 0.39823 0.0
C316 C 0.55213 0.84696 0.38513 0.0
C317 C 0.57301 0.81681 0.38374 0.0
C318 C 0.69799 0.18396 0.70755 0.0
C319 C 0.75941 0.20676 0.70816 0.0
C320 C 0.62506 0.15479 0.70738 0.0
C321 C 0.56385 0.13394 0.70729 0.0
C322 C 0.98931 0.49944 0.72674 0.0
C323 C 1.00927 0.47215 0.71194 0.0
C324 C 0.94828 0.52106 0.72797 0.0
C325 C 0.91411 0.53695 0.71345 0.0
C326 C 0.57735 0.48665 0.70989 0.0
C327 C 0.61051 0.5348 0.70737 0.0
C328 C 0.55145 0.43055 0.70936 0.0
C329 C 0.53344 0.38397 0.70207 0.0
C330 C 0.7587 0.9011 0.70132 0.0
C331 C 0.72918 0.85677 0.71525 0.0
C332 C 0.80465 0.95475 0.69941 0.0
C333 C 0.83688 0.99867 0.71313 0.0
C334 C 1.00885 0.83217 0.72107 0.0
C335 C 0.95159 0.79769 0.72046 0.0
C336 C 0.07703 0.86967 0.72259 0.0
C337 C 0.13506 0.90126 0.72647 0.0
C338 C 0.19856 0.18576 0.71476 0.0
C339 C 0.23296 0.16352 0.71406 0.0
C340 C 0.16033 0.21425 0.71488 0.0
C341 C 0.1238 0.23454 0.71482 0.0
C342 C 0.12628 0.42143 0.22425 0.0
C343 C 0.12789 0.39524 0.25466 0.0
C344 C 0.12028 0.45348 0.19088 0.0
C345 C 0.11039 0.47438 0.15975 0.0
C346 C 0.65858 0.70167 0.22449 0.0
C347 C 0.67449 0.73306 0.25395 0.0
C348 C 0.64084 0.65991 0.19386 0.0
C349 C 0.62926 0.6273 0.16575 0.0
C350 C 0.38619 0.93715 0.19044 0.0
C351 C 0.41122 0.95197 0.15604 0.0
C352 C 0.35083 0.92366 0.22893 0.0
C353 C 0.32335 0.91674 0.26255 0.0
C354 C 0.4505 0.09158 0.892 0.0
C355 C 0.45078 0.06491 0.9223 0.0
C356 C 0.44723 0.12357 0.85781 0.0
C357 C 0.43938 0.1437 0.82562 0.0
C358 C 1.00098 0.37656 0.89223 0.0
C359 C 1.01775 0.40981 0.92083 0.0
C360 C 0.98128 0.33331 0.86198 0.0
C361 C 0.96734 0.29941 0.83416 0.0
C362 C 0.71242 0.58652 0.85738 0.0
C363 C 0.73728 0.60859 0.82415 0.0
C364 C 0.67739 0.56261 0.89541 0.0
C365 C 0.65088 0.5501 0.92976 0.0
C366 C 0.7764 0.77986 0.52532 0.0
C367 C 0.76708 0.79738 0.49246 0.0
C368 C 0.7815 0.75076 0.56055 0.0
C369 C 0.7826 0.72599 0.59164 0.0
C370 C 0.28627 1.00294 0.52466 0.0
C371 C 0.26847 0.97009 0.49571 0.0
C372 C 0.31372 0.04474 0.55644 0.0
C373 C 0.33671 0.07673 0.5859 0.0
C374 C 1.01396 0.23697 0.56255 0.0
C375 C 0.9864 0.22197 0.59664 0.0
C376 C 0.04963 0.26289 0.52479 0.0
C377 C 0.07528 0.28517 0.49155 0.0
loop_
_geom_bond_atom_site_label_1
_geom_bond_atom_site_label_2
_geom_bond_distance
_geom_bond_site_symmetry_2
_ccdc_geom_bond_type
Co0 N5 2.057 1_554 S
Co0 O17 2.021 . S
Co0 O20 2.062 . S
Co0 O24 2.117 1_554 S
Co0 O25 2.020 1_455 S
C1 O21 1.259 . S
C1 O24 1.258 1_655 S
Co2 N11 2.057 . S
Co2 O18 2.117 . S
Co2 O19 2.020 1_655 S
Co2 O21 2.021 1_554 S
Co2 O26 2.062 . S
C3 N5 1.316 1_554 S
C3 N6 1.347 1_554 S
C3 H8 0.931 . S
C4 N5 1.375 . S
C4 C7 1.350 . S
C4 H9 0.930 . S
N5 Co0 2.057 1_556 S
N5 C3 1.316 1_556 S
N5 C4 1.375 . S
N6 C3 1.347 1_556 S
N6 C7 1.373 . S
C7 C4 1.350 . S
C7 N6 1.373 . S
C7 H28 0.931 . S
H8 C3 0.931 . S
H9 C4 0.930 . S
C10 O17 1.259 . S
C10 O18 1.258 1_455 S
N11 Co2 2.057 . S
N11 C12 1.316 1_554 S
N11 C13 1.375 . S
C12 N11 1.316 1_556 S
C12 N14 1.347 1_556 S
C12 H23 0.931 . S
C13 N11 1.375 . S
C13 C15 1.350 . S
C13 H22 0.930 . S
N14 C12 1.347 1_554 S
N14 C15 1.373 . S
C15 C13 1.350 . S
C15 N14 1.373 . S
C15 H29 0.931 . S
C16 O19 1.255 . S
C16 O20 1.257 . S
O17 Co0 2.021 . S
O17 C10 1.259 . S
O18 Co2 2.117 . S
O18 C10 1.258 1_655 S
O19 Co2 2.020 1_455 S
O19 C16 1.255 . S
O20 Co0 2.062 . S
O20 C16 1.257 . S
O21 C1 1.259 . S
O21 Co2 2.021 1_556 S
H22 C13 0.930 . S
H23 C12 0.931 . S
O24 Co0 2.117 1_556 S
O24 C1 1.258 1_455 S
O25 Co0 2.020 1_655 S
O25 C27 1.256 . S
O26 Co2 2.062 . S
O26 C27 1.255 . S
C27 O25 1.256 . S
C27 O26 1.255 . S
H28 C7 0.931 . S
H29 C15 0.931 . S
Co30 N35 2.057 . S
Co30 O47 2.021 1_554 S
Co30 O50 2.062 . S
Co30 O54 2.117 . S
Co30 O55 2.020 . S
C31 O51 1.259 . S
C31 O54 1.258 . S
Co32 N41 2.057 1_554 S
Co32 O48 2.117 1_554 S
Co32 O49 2.020 . S
Co32 O51 2.021 . S
Co32 O56 2.062 . S
C33 N35 1.316 . S
C33 N36 1.347 . S
C33 H38 0.931 1_554 S
C34 N35 1.375 . S
C34 C37 1.350 . S
C34 H39 0.930 . S
N35 Co30 2.057 . S
N35 C33 1.316 . S
N35 C34 1.375 . S
N36 C33 1.347 . S
N36 C37 1.373 . S
C37 C34 1.350 . S
C37 N36 1.373 . S
C37 H58 0.931 . S
H38 C33 0.931 1_556 S
H39 C34 0.930 . S
C40 O47 1.259 . S
C40 O48 1.258 . S
N41 Co32 2.057 1_556 S
N41 C42 1.316 1_556 S
N41 C43 1.375 . S
C42 N41 1.316 1_554 S
C42 N44 1.347 1_554 S
C42 H53 0.931 . S
C43 N41 1.375 . S
C43 C45 1.350 . S
C43 H52 0.930 . S
N44 C42 1.347 1_556 S
N44 C45 1.373 . S
C45 C43 1.350 . S
C45 N44 1.373 . S
C45 H59 0.931 . S
C46 O49 1.256 . S
C46 O50 1.255 . S
O47 Co30 2.021 1_556 S
O47 C40 1.259 . S
O48 Co32 2.117 1_556 S
O48 C40 1.258 . S
O49 Co32 2.020 . S
O49 C46 1.256 . S
O50 Co30 2.062 . S
O50 C46 1.255 . S
O51 C31 1.259 . S
O51 Co32 2.021 . S
H52 C43 0.930 . S
H53 C42 0.931 . S
O54 Co30 2.117 . S
O54 C31 1.258 . S
O55 Co30 2.020 . S
O55 C57 1.256 . S
O56 Co32 2.062 . S
O56 C57 1.255 . S
C57 O55 1.256 . S
C57 O56 1.255 . S
H58 C37 0.931 . S
H59 C45 0.931 . S
Co60 N65 2.057 1_554 S
Co60 O77 2.021 . S
Co60 O80 2.062 . S
Co60 O84 2.117 1_554 S
Co60 O85 2.020 1_565 S
C61 O81 1.259 . S
C61 O84 1.258 1_545 S
Co62 N71 2.057 . S
Co62 O78 2.117 . S
Co62 O79 2.020 1_544 S
Co62 O81 2.021 1_554 S
Co62 O86 2.062 . S
C63 N65 1.316 1_554 S
C63 N66 1.347 1_554 S
C63 H68 0.931 . S
C64 N65 1.375 . S
C64 C67 1.350 . S
C64 H69 0.930 . S
N65 Co60 2.057 1_556 S
N65 C63 1.316 1_556 S
N65 C64 1.375 . S
N66 C63 1.347 1_556 S
N66 C67 1.373 . S
C67 C64 1.350 . S
C67 N66 1.373 . S
C67 H88 0.931 . S
H68 C63 0.931 . S
H69 C64 0.930 . S
C70 O77 1.259 . S
C70 O78 1.258 1_565 S
N71 Co62 2.057 . S
N71 C72 1.316 1_554 S
N71 C73 1.375 . S
C72 N71 1.316 1_556 S
C72 N74 1.347 1_556 S
C72 H83 0.931 . S
C73 N71 1.375 . S
C73 C75 1.350 . S
C73 H82 0.930 . S
N74 C72 1.347 1_554 S
N74 C75 1.373 . S
C75 C73 1.350 . S
C75 N74 1.373 . S
C75 H89 0.931 . S
C76 O79 1.256 1_554 S
C76 O80 1.255 . S
O77 Co60 2.021 . S
O77 C70 1.259 . S
O78 Co62 2.117 . S
O78 C70 1.258 1_545 S
O79 Co62 2.020 1_566 S
O79 C76 1.256 1_556 S
O80 Co60 2.062 . S
O80 C76 1.255 . S
O81 C61 1.259 . S
O81 Co62 2.021 1_556 S
H82 C73 0.930 . S
H83 C72 0.931 . S
O84 Co60 2.117 1_556 S
O84 C61 1.258 1_565 S
O85 Co60 2.020 1_545 S
O85 C87 1.256 . S
O86 Co62 2.062 . S
O86 C87 1.255 . S
C87 O85 1.256 . S
C87 O86 1.255 . S
H88 C67 0.931 . S
H89 C75 0.931 . S
Co90 N95 2.057 . S
Co90 O107 2.021 . S
Co90 O110 2.062 . S
Co90 O114 2.117 . S
Co90 O115 2.020 . S
C91 O111 1.259 . S
C91 O114 1.258 . S
Co92 N101 2.057 . S
Co92 O108 2.117 . S
Co92 O109 2.020 . S
Co92 O111 2.021 . S
Co92 O116 2.062 . S
C93 N95 1.316 . S
C93 N96 1.347 1_565 S
C93 H98 0.931 . S
C94 N95 1.375 . S
C94 C97 1.350 . S
C94 H99 0.930 . S
N95 Co90 2.057 . S
N95 C93 1.316 . S
N95 C94 1.375 . S
N96 C93 1.347 1_545 S
N96 C97 1.373 1_545 S
C97 C94 1.350 . S
C97 N96 1.373 1_565 S
C97 H118 0.931 1_565 S
H98 C93 0.931 . S
H99 C94 0.930 . S
C100 O107 1.259 . S
C100 O108 1.258 . S
N101 Co92 2.057 . S
N101 C102 1.316 . S
N101 C103 1.375 . S
C102 N101 1.316 . S
C102 N104 1.347 . S
C102 H113 0.931 . S
C103 N101 1.375 . S
C103 C105 1.350 . S
C103 H112 0.930 . S
N104 C102 1.347 . S
N104 C105 1.373 . S
C105 C103 1.350 . S
C105 N104 1.373 . S
C105 H119 0.931 . S
C106 O109 1.256 . S
C106 O110 1.255 . S
O107 Co90 2.021 . S
O107 C100 1.259 . S
O108 Co92 2.117 . S
O108 C100 1.258 . S
O109 Co92 2.020 . S
O109 C106 1.256 . S
O110 Co90 2.062 . S
O110 C106 1.255 . S
O111 C91 1.259 . S
O111 Co92 2.021 . S
H112 C103 0.930 . S
H113 C102 0.931 . S
O114 Co90 2.117 . S
O114 C91 1.258 . S
O115 Co90 2.020 . S
O115 C117 1.256 . S
O116 Co92 2.062 . S
O116 C117 1.255 . S
C117 O115 1.256 . S
C117 O116 1.255 . S
H118 C97 0.931 1_545 S
H119 C105 0.931 . S
Co120 N125 2.057 . S
Co120 O137 2.021 . S
Co120 O140 2.062 . S
Co120 O144 2.117 . S
Co120 O145 2.020 . S
C121 O141 1.259 . S
C121 O144 1.258 . S
Co122 N131 2.057 . S
Co122 O138 2.117 . S
Co122 O139 2.020 . S
Co122 O141 2.021 . S
Co122 O146 2.062 . S
C123 N125 1.316 . S
C123 N126 1.347 1_455 S
C123 H128 0.931 . S
C124 N125 1.375 . S
C124 C127 1.350 1_455 S
C124 H129 0.930 . S
N125 Co120 2.057 . S
N125 C123 1.316 . S
N125 C124 1.375 . S
N126 C123 1.347 1_655 S
N126 C127 1.373 . S
C127 C124 1.350 1_655 S
C127 N126 1.373 . S
C127 H148 0.931 . S
H128 C123 0.931 . S
H129 C124 0.930 . S
C130 O137 1.259 . S
C130 O138 1.258 . S
N131 Co122 2.057 . S
N131 C132 1.316 . S
N131 C133 1.375 . S
C132 N131 1.316 . S
C132 N134 1.347 . S
C132 H143 0.931 . S
C133 N131 1.375 . S
C133 C135 1.350 . S
C133 H142 0.930 . S
N134 C132 1.347 . S
N134 C135 1.373 . S
C135 C133 1.350 . S
C135 N134 1.373 . S
C135 H149 0.931 . S
C136 O139 1.256 . S
C136 O140 1.255 . S
O137 Co120 2.021 . S
O137 C130 1.259 . S
O138 Co122 2.117 . S
O138 C130 1.258 . S
O139 Co122 2.020 . S
O139 C136 1.256 . S
O140 Co120 2.062 . S
O140 C136 1.255 . S
O141 C121 1.259 . S
O141 Co122 2.021 . S
H142 C133 0.930 . S
H143 C132 0.931 . S
O144 Co120 2.117 . S
O144 C121 1.258 . S
O145 Co120 2.020 . S
O145 C147 1.256 . S
O146 Co122 2.062 . S
O146 C147 1.255 . S
C147 O145 1.256 . S
C147 O146 1.255 . S
H148 C127 0.931 . S
H149 C135 0.931 . S
Co150 N155 2.057 . S
Co150 O167 2.021 . S
Co150 O170 2.062 . S
Co150 O174 2.117 . S
Co150 O175 2.020 . S
C151 O171 1.259 . S
C151 O174 1.258 . S
Co152 N161 2.057 . S
Co152 O168 2.117 . S
Co152 O169 2.020 . S
Co152 O171 2.021 . S
Co152 O176 2.062 . S
C153 N155 1.316 . S
C153 N156 1.347 . S
C153 H158 0.931 . S
C154 N155 1.375 . S
C154 C157 1.350 . S
C154 H159 0.930 . S
N155 Co150 2.057 . S
N155 C153 1.316 . S
N155 C154 1.375 . S
N156 C153 1.347 . S
N156 C157 1.373 . S
C157 C154 1.350 . S
C157 N156 1.373 . S
C157 H178 0.931 . S
H158 C153 0.931 . S
H159 C154 0.930 . S
C160 O167 1.259 . S
C160 O168 1.258 . S
N161 Co152 2.057 . S
N161 C162 1.316 . S
N161 C163 1.375 . S
C162 N161 1.316 . S
C162 N164 1.347 . S
C162 H173 0.931 . S
C163 N161 1.375 . S
C163 C165 1.350 . S
C163 H172 0.930 . S
N164 C162 1.347 . S
N164 C165 1.373 . S
C165 C163 1.350 . S
C165 N164 1.373 . S
C165 H179 0.931 . S
C166 O169 1.257 1_655 S
C166 O170 1.252 1_655 S
O167 Co150 2.021 . S
O167 C160 1.259 . S
O168 Co152 2.117 . S
O168 C160 1.258 . S
O169 Co152 2.020 . S
O169 C166 1.257 1_455 S
O170 Co150 2.062 . S
O170 C166 1.252 1_455 S
O171 C151 1.259 . S
O171 Co152 2.021 . S
H172 C163 0.930 . S
H173 C162 0.931 . S
O174 Co150 2.117 . S
O174 C151 1.258 . S
O175 Co150 2.020 . S
O175 C177 1.256 . S
O176 Co152 2.062 . S
O176 C177 1.255 . S
C177 O175 1.256 . S
C177 O176 1.255 . S
H178 C157 0.931 . S
H179 C165 0.931 . S
Co180 N185 2.057 . S
Co180 O197 2.021 . S
Co180 O200 2.062 . S
Co180 O204 2.117 . S
Co180 O205 2.020 . S
C181 O201 1.259 . S
C181 O204 1.258 . S
Co182 N191 2.057 1_545 S
Co182 O198 2.117 . S
Co182 O199 2.020 . S
Co182 O201 2.021 . S
Co182 O206 2.062 . S
C183 N185 1.316 . S
C183 N186 1.347 . S
C183 H188 0.931 . S
C184 N185 1.375 . S
C184 C187 1.350 . S
C184 H189 0.930 . S
N185 Co180 2.057 . S
N185 C183 1.316 . S
N185 C184 1.375 . S
N186 C183 1.347 . S
N186 C187 1.373 . S
C187 C184 1.350 . S
C187 N186 1.373 . S
C187 H208 0.931 . S
H188 C183 0.931 . S
H189 C184 0.930 . S
C190 O197 1.259 . S
C190 O198 1.258 . S
N191 Co182 2.057 1_565 S
N191 C192 1.316 . S
N191 C193 1.375 . S
C192 N191 1.316 . S
C192 N194 1.347 . S
C192 H203 0.931 . S
C193 N191 1.375 . S
C193 C195 1.350 . S
C193 H202 0.930 . S
N194 C192 1.347 . S
N194 C195 1.373 . S
C195 C193 1.350 . S
C195 N194 1.373 . S
C195 H209 0.931 . S
C196 O199 1.256 . S
C196 O200 1.255 . S
O197 Co180 2.021 . S
O197 C190 1.259 . S
O198 Co182 2.117 . S
O198 C190 1.258 . S
O199 Co182 2.020 . S
O199 C196 1.256 . S
O200 Co180 2.062 . S
O200 C196 1.255 . S
O201 C181 1.259 . S
O201 Co182 2.021 . S
H202 C193 0.930 . S
H203 C192 0.931 . S
O204 Co180 2.117 . S
O204 C181 1.258 . S
O205 Co180 2.020 . S
O205 C207 1.256 . S
O206 Co182 2.062 . S
O206 C207 1.255 . S
C207 O205 1.256 . S
C207 O206 1.255 . S
H208 C187 0.931 . S
H209 C195 0.931 . S
Co210 N215 2.057 . S
Co210 O227 2.021 . S
Co210 O230 2.062 . S
Co210 O234 2.117 . S
Co210 O235 2.020 . S
C211 O231 1.259 . S
C211 O234 1.258 . S
Co212 N221 2.057 . S
Co212 O228 2.117 . S
Co212 O229 2.020 1_655 S
Co212 O231 2.021 . S
Co212 O236 2.062 . S
C213 N215 1.316 . S
C213 N216 1.347 . S
C213 H218 0.931 . S
C214 N215 1.375 . S
C214 C217 1.350 . S
C214 H219 0.930 . S
N215 Co210 2.057 . S
N215 C213 1.316 . S
N215 C214 1.375 . S
N216 C213 1.347 . S
N216 C217 1.373 . S
C217 C214 1.350 . S
C217 N216 1.373 . S
C217 H238 0.931 . S
H218 C213 0.931 . S
H219 C214 0.930 . S
C220 O227 1.259 . S
C220 O228 1.258 . S
N221 Co212 2.057 . S
N221 C222 1.316 . S
N221 C223 1.375 . S
C222 N221 1.316 . S
C222 N224 1.347 . S
C222 H233 0.931 . S
C223 N221 1.375 . S
C223 C225 1.350 . S
C223 H232 0.930 . S
N224 C222 1.347 . S
N224 C225 1.373 . S
C225 C223 1.350 . S
C225 N224 1.373 . S
C225 H239 0.931 . S
C226 O229 1.256 . S
C226 O230 1.255 1_455 S
O227 Co210 2.021 . S
O227 C220 1.259 . S
O228 Co212 2.117 . S
O228 C220 1.258 . S
O229 Co212 2.020 1_455 S
O229 C226 1.256 . S
O230 Co210 2.062 . S
O230 C226 1.255 1_655 S
O231 C211 1.259 . S
O231 Co212 2.021 . S
H232 C223 0.930 . S
H233 C222 0.931 . S
O234 Co210 2.117 . S
O234 C211 1.258 . S
O235 Co210 2.020 . S
O235 C237 1.256 . S
O236 Co212 2.062 . S
O236 C237 1.255 . S
C237 O235 1.256 . S
C237 O236 1.255 . S
H238 C217 0.931 . S
H239 C225 0.931 . S
Co240 N245 2.057 . S
Co240 O257 2.021 . S
Co240 O260 2.062 . S
Co240 O264 2.117 . S
Co240 O265 2.020 . S
C241 O261 1.259 . S
C241 O264 1.258 . S
Co242 N251 2.057 . S
Co242 O258 2.117 . S
Co242 O259 2.020 . S
Co242 O261 2.021 . S
Co242 O266 2.062 . S
C243 N245 1.316 . S
C243 N246 1.347 . S
C243 H248 0.931 . S
C244 N245 1.375 . S
C244 C247 1.350 . S
C244 H249 0.930 . S
N245 Co240 2.057 . S
N245 C243 1.316 . S
N245 C244 1.375 . S
N246 C243 1.347 . S
N246 C247 1.373 . S
C247 C244 1.350 . S
C247 N246 1.373 . S
C247 H268 0.931 . S
H248 C243 0.931 . S
H249 C244 0.930 . S
C250 O257 1.259 . S
C250 O258 1.258 . S
N251 Co242 2.057 . S
N251 C252 1.316 . S
N251 C253 1.375 . S
C252 N251 1.316 . S
C252 N254 1.347 . S
C252 H263 0.931 . S
C253 N251 1.375 . S
C253 C255 1.350 . S
C253 H262 0.930 . S
N254 C252 1.347 . S
N254 C255 1.373 . S
C255 C253 1.350 . S
C255 N254 1.373 . S
C255 H269 0.931 . S
C256 O259 1.256 . S
C256 O260 1.255 . S
O257 Co240 2.021 . S
O257 C250 1.259 . S
O258 Co242 2.117 . S
O258 C250 1.258 . S
O259 Co242 2.020 . S
O259 C256 1.256 . S
O260 Co240 2.062 . S
O260 C256 1.255 . S
O261 C241 1.259 . S
O261 Co242 2.021 . S
H262 C253 0.930 . S
H263 C252 0.931 . S
O264 Co240 2.117 . S
O264 C241 1.258 . S
O265 Co240 2.020 . S
O265 C267 1.256 . S
O266 Co242 2.062 . S
O266 C267 1.255 . S
C267 O265 1.256 . S
C267 O266 1.255 . S
H268 C247 0.931 . S
H269 C255 0.931 . S
C270 C271 1.170 1_556 S
C270 C272 1.380 . S
C271 C270 1.170 1_554 S
C272 C270 1.380 . S
C272 C273 1.170 . S
C273 C272 1.170 . S
C274 C275 1.170 . S
C274 C276 1.380 . S
C275 C274 1.170 . S
C276 C274 1.380 . S
C276 C277 1.170 . S
C277 C276 1.170 . S
C278 C279 1.170 . S
C278 C280 1.381 . S
C279 C278 1.170 . S
C280 C278 1.381 . S
C280 C281 1.170 . S
C281 C280 1.170 . S
C282 C283 1.170 . S
C282 C284 1.380 . S
C283 C282 1.170 . S
C284 C282 1.380 . S
C284 C285 1.170 . S
C285 C284 1.170 . S
C286 C287 1.170 . S
C286 C288 1.380 . S
C287 C286 1.170 . S
C288 C286 1.380 . S
C288 C289 1.170 . S
C289 C288 1.170 . S
C290 C291 1.170 . S
C290 C292 1.380 . S
C291 C290 1.170 . S
C292 C290 1.380 . S
C292 C293 1.170 . S
C293 C292 1.170 . S
C294 C295 1.170 . S
C294 C296 1.380 . S
C295 C294 1.170 . S
C296 C294 1.380 . S
C296 C297 1.170 . S
C297 C296 1.170 . S
C298 C299 1.170 . S
C298 C300 1.380 . S
C299 C298 1.170 . S
C300 C298 1.380 . S
C300 C301 1.170 . S
C301 C300 1.170 . S
C302 C303 1.170 . S
C302 C304 1.380 . S
C303 C302 1.170 . S
C304 C302 1.380 . S
C304 C305 1.170 . S
C305 C304 1.170 . S
C306 C307 1.170 . S
C306 C308 1.380 . S
C307 C306 1.170 . S
C308 C306 1.380 . S
C308 C309 1.170 . S
C309 C308 1.170 . S
C310 C311 1.170 . S
C310 C312 1.380 . S
C311 C310 1.170 . S
C312 C310 1.380 . S
C312 C313 1.170 . S
C313 C312 1.170 . S
C314 C315 1.170 . S
C314 C316 1.380 . S
C315 C314 1.170 . S
C316 C314 1.380 . S
C316 C317 1.170 . S
C317 C316 1.170 . S
C318 C319 1.170 . S
C318 C320 1.380 . S
C319 C318 1.170 . S
C320 C318 1.380 . S
C320 C321 1.170 . S
C321 C320 1.170 . S
C322 C323 1.170 . S
C322 C324 1.380 . S
C323 C322 1.170 . S
C324 C322 1.380 . S
C324 C325 1.170 . S
C325 C324 1.170 . S
C326 C327 1.170 . S
C326 C328 1.380 . S
C327 C326 1.170 . S
C328 C326 1.380 . S
C328 C329 1.170 . S
C329 C328 1.170 . S
C330 C331 1.170 . S
C330 C332 1.380 . S
C331 C330 1.170 . S
C332 C330 1.380 . S
C332 C333 1.170 . S
C333 C332 1.170 . S
C334 C335 1.170 . S
C334 C336 1.380 1_655 S
C335 C334 1.170 . S
C336 C334 1.380 1_455 S
C336 C337 1.170 . S
C337 C336 1.170 . S
C338 C339 1.170 . S
C338 C340 1.380 . S
C339 C338 1.170 . S
C340 C338 1.380 . S
C340 C341 1.170 . S
C341 C340 1.170 . S
C342 C343 1.170 . S
C342 C344 1.380 . S
C343 C342 1.170 . S
C344 C342 1.380 . S
C344 C345 1.170 . S
C345 C344 1.170 . S
C346 C347 1.170 . S
C346 C348 1.380 . S
C347 C346 1.170 . S
C348 C346 1.380 . S
C348 C349 1.170 . S
C349 C348 1.170 . S
C350 C351 1.170 . S
C350 C352 1.380 . S
C351 C350 1.170 . S
C352 C350 1.380 . S
C352 C353 1.170 . S
C353 C352 1.170 . S
C354 C355 1.170 . S
C354 C356 1.380 . S
C355 C354 1.170 . S
C356 C354 1.380 . S
C356 C357 1.170 . S
C357 C356 1.170 . S
C358 C359 1.170 . S
C358 C360 1.380 . S
C359 C358 1.170 . S
C360 C358 1.380 . S
C360 C361 1.170 . S
C361 C360 1.170 . S
C362 C363 1.170 . S
C362 C364 1.380 . S
C363 C362 1.170 . S
C364 C362 1.380 . S
C364 C365 1.170 . S
C365 C364 1.170 . S
C366 C367 1.170 . S
C366 C368 1.380 . S
C367 C366 1.170 . S
C368 C366 1.380 . S
C368 C369 1.170 . S
C369 C368 1.170 . S
C370 C371 1.170 . S
C370 C372 1.380 1_565 S
C371 C370 1.170 . S
C372 C370 1.380 1_545 S
C372 C373 1.170 . S
C373 C372 1.170 . S
C374 C375 1.170 . S
C374 C376 1.380 1_655 S
C375 C374 1.170 . S
C376 C374 1.380 1_455 S
C376 C377 1.170 . S
C377 C376 1.170 . S
C271 C57 1.922 . S
C273 C16 1.862 1_556 S
C275 N66 0.582 . S
C277 N44 0.666 . S
C279 C76 1.300 1_556 S
C281 N6 1.362 . S
C283 N74 0.852 . S
C285 N36 0.764 . S
C287 C87 1.115 . S
C289 N14 1.130 . S
C291 C27 2.163 . S
C293 C46 2.114 . S
C295 C106 0.568 . S
C297 N126 0.548 . S
C299 N156 1.505 . S
C301 C136 1.514 1_545 S
C303 C166 1.363 . S
C305 N96 1.419 . S
C307 C147 2.060 . S
C309 N164 2.016 . S
C311 C177 1.025 . S
C313 N104 1.008 . S
C315 N134 1.154 . S
C317 C117 1.231 . S
C319 C237 1.941 . S
C321 C196 1.905 . S
C323 N224 0.670 . S
C325 N246 0.597 . S
C327 C256 1.285 . S
C329 N186 1.356 . S
C331 N254 0.820 . S
C333 N216 0.882 1_565 S
C335 C267 1.123 . S
C337 N194 1.072 . S
C339 C207 2.162 . S
C341 C226 2.067 . S
C343 C151 2.055 . S
C345 C10 2.152 . S
C347 C91 2.198 . S
C349 C31 2.174 . S
C351 C70 1.949 . S
C353 C121 1.872 . S
C355 C61 2.031 . S
C357 C190 2.138 . S
C359 C1 2.180 . S
C361 C211 2.223 . S
C363 C250 1.922 . S
C365 C40 1.922 . S
C367 C100 2.126 . S
C369 C241 2.044 . S
C371 C130 2.294 . S
C373 C181 2.194 . S
C375 C220 1.952 . S
C377 C160 1.953 . S
