# Generated by pormake.
# Topology wna, (6)-cn, num edge types: 1
# Building blocks:
#     Node 0, Type 0, BuildingBlock: CUWYAW_clean_sbu_0, # of connection points: 6
#     Node 1, Type 0, BuildingBlock: CUWYAW_clean_sbu_0, # of connection points: 6
#     Node 2, Type 0, BuildingBlock: CUWYAW_clean_sbu_0, # of connection points: 6
#     Node 3, Type 0, BuildingBlock: CUWYAW_clean_sbu_0, # of connection points: 6
#     Node 4, Type 0, BuildingBlock: CUWYAW_clean_sbu_0, # of connection points: 6
#     Node 5, Type 0, BuildingBlock: CUWYAW_clean_sbu_0, # of connection points: 6
#     Node 6, Type 0, BuildingBlock: CUWYAW_clean_sbu_0, # of connection points: 6
#     Node 7, Type 0, BuildingBlock: CUWYAW_clean_sbu_0, # of connection points: 6
#     Node 8, Type 0, BuildingBlock: CUWYAW_clean_sbu_0, # of connection points: 6
#     Node 9, Type 0, BuildingBlock: CUWYAW_clean_sbu_0, # of connection points: 6
#     Node 10, Type 0, BuildingBlock: CUWYAW_clean_sbu_0, # of connection points: 6
#     Node 11, Type 0, BuildingBlock: CUWYAW_clean_sbu_0, # of connection points: 6
#     Node 12, Type 0, BuildingBlock: CUWYAW_clean_sbu_0, # of connection points: 6
#     Node 13, Type 0, BuildingBlock: CUWYAW_clean_sbu_0, # of connection points: 6
#     Node 14, Type 0, BuildingBlock: CUWYAW_clean_sbu_0, # of connection points: 6
#     Node 15, Type 0, BuildingBlock: CUWYAW_clean_sbu_0, # of connection points: 6
#     Node 16, Type 0, BuildingBlock: CUWYAW_clean_sbu_0, # of connection points: 6
#     Node 17, Type 0, BuildingBlock: CUWYAW_clean_sbu_0, # of connection points: 6
#     Node 18, Type 0, BuildingBlock: CUWYAW_clean_sbu_0, # of connection points: 6
#     Node 19, Type 0, BuildingBlock: CUWYAW_clean_sbu_0, # of connection points: 6
#     Node 20, Type 0, BuildingBlock: CUWYAW_clean_sbu_0, # of connection points: 6
#     Node 21, Type 0, BuildingBlock: CUWYAW_clean_sbu_0, # of connection points: 6
#     Node 22, Type 0, BuildingBlock: CUWYAW_clean_sbu_0, # of connection points: 6
#     Node 23, Type 0, BuildingBlock: CUWYAW_clean_sbu_0, # of connection points: 6
#     Node 24, Type 0, BuildingBlock: CUWYAW_clean_sbu_0, # of connection points: 6
#     Node 25, Type 0, BuildingBlock: CUWYAW_clean_sbu_0, # of connection points: 6
#     Node 26, Type 0, BuildingBlock: CUWYAW_clean_sbu_0, # of connection points: 6
#     Node 27, Type 0, BuildingBlock: CUWYAW_clean_sbu_0, # of connection points: 6
#     Node 28, Type 0, BuildingBlock: CUWYAW_clean_sbu_0, # of connection points: 6
#     Node 29, Type 0, BuildingBlock: CUWYAW_clean_sbu_0, # of connection points: 6
#     Node 30, Type 0, BuildingBlock: CUWYAW_clean_sbu_0, # of connection points: 6
#     Node 31, Type 0, BuildingBlock: CUWYAW_clean_sbu_0, # of connection points: 6
#     Node 32, Type 0, BuildingBlock: CUWYAW_clean_sbu_0, # of connection points: 6
#     Node 33, Type 0, BuildingBlock: CUWYAW_clean_sbu_0, # of connection points: 6
#     Node 34, Type 0, BuildingBlock: CUWYAW_clean_sbu_0, # of connection points: 6
#     Node 35, Type 0, BuildingBlock: CUWYAW_clean_sbu_0, # of connection points: 6
#     Edge 36, Type (0, 0), BuildingBlock: KIFKEQ_clean_linker_1, # of connection points: 2
#     Edge 37, Type (0, 0), BuildingBlock: KIFKEQ_clean_linker_1, # of connection points: 2
#     Edge 38, Type (0, 0), BuildingBlock: KIFKEQ_clean_linker_1, # of connection points: 2
#     Edge 39, Type (0, 0), BuildingBlock: KIFKEQ_clean_linker_1, # of connection points: 2
#     Edge 40, Type (0, 0), BuildingBlock: KIFKEQ_clean_linker_1, # of connection points: 2
#     Edge 41, Type (0, 0), BuildingBlock: KIFKEQ_clean_linker_1, # of connection points: 2
#     Edge 42, Type (0, 0), BuildingBlock: KIFKEQ_clean_linker_1, # of connection points: 2
#     Edge 43, Type (0, 0), BuildingBlock: KIFKEQ_clean_linker_1, # of connection points: 2
#     Edge 44, Type (0, 0), BuildingBlock: KIFKEQ_clean_linker_1, # of connection points: 2
#     Edge 45, Type (0, 0), BuildingBlock: KIFKEQ_clean_linker_1, # of connection points: 2
#     Edge 46, Type (0, 0), BuildingBlock: KIFKEQ_clean_linker_1, # of connection points: 2
#     Edge 47, Type (0, 0), BuildingBlock: KIFKEQ_clean_linker_1, # of connection points: 2
#     Edge 48, Type (0, 0), BuildingBlock: KIFKEQ_clean_linker_1, # of connection points: 2
#     Edge 49, Type (0, 0), BuildingBlock: KIFKEQ_clean_linker_1, # of connection points: 2
#     Edge 50, Type (0, 0), BuildingBlock: KIFKEQ_clean_linker_1, # of connection points: 2
#     Edge 51, Type (0, 0), BuildingBlock: KIFKEQ_clean_linker_1, # of connection points: 2
#     Edge 52, Type (0, 0), BuildingBlock: KIFKEQ_clean_linker_1, # of connection points: 2
#     Edge 53, Type (0, 0), BuildingBlock: KIFKEQ_clean_linker_1, # of connection points: 2
#     Edge 54, Type (0, 0), BuildingBlock: KIFKEQ_clean_linker_1, # of connection points: 2
#     Edge 55, Type (0, 0), BuildingBlock: KIFKEQ_clean_linker_1, # of connection points: 2
#     Edge 56, Type (0, 0), BuildingBlock: KIFKEQ_clean_linker_1, # of connection points: 2
#     Edge 57, Type (0, 0), BuildingBlock: KIFKEQ_clean_linker_1, # of connection points: 2
#     Edge 58, Type (0, 0), BuildingBlock: KIFKEQ_clean_linker_1, # of connection points: 2
#     Edge 59, Type (0, 0), BuildingBlock: KIFKEQ_clean_linker_1, # of connection points: 2
#     Edge 60, Type (0, 0), BuildingBlock: KIFKEQ_clean_linker_1, # of connection points: 2
#     Edge 61, Type (0, 0), BuildingBlock: KIFKEQ_clean_linker_1, # of connection points: 2
#     Edge 62, Type (0, 0), BuildingBlock: KIFKEQ_clean_linker_1, # of connection points: 2
#     Edge 63, Type (0, 0), BuildingBlock: KIFKEQ_clean_linker_1, # of connection points: 2
#     Edge 64, Type (0, 0), BuildingBlock: KIFKEQ_clean_linker_1, # of connection points: 2
#     Edge 65, Type (0, 0), BuildingBlock: KIFKEQ_clean_linker_1, # of connection points: 2
#     Edge 66, Type (0, 0), BuildingBlock: KIFKEQ_clean_linker_1, # of connection points: 2
#     Edge 67, Type (0, 0), BuildingBlock: KIFKEQ_clean_linker_1, # of connection points: 2
#     Edge 68, Type (0, 0), BuildingBlock: KIFKEQ_clean_linker_1, # of connection points: 2
#     Edge 69, Type (0, 0), BuildingBlock: KIFKEQ_clean_linker_1, # of connection points: 2
#     Edge 70, Type (0, 0), BuildingBlock: KIFKEQ_clean_linker_1, # of connection points: 2
#     Edge 71, Type (0, 0), BuildingBlock: KIFKEQ_clean_linker_1, # of connection points: 2
#     Edge 72, Type (0, 0), BuildingBlock: KIFKEQ_clean_linker_1, # of connection points: 2
#     Edge 73, Type (0, 0), BuildingBlock: KIFKEQ_clean_linker_1, # of connection points: 2
#     Edge 74, Type (0, 0), BuildingBlock: KIFKEQ_clean_linker_1, # of connection points: 2
#     Edge 75, Type (0, 0), BuildingBlock: KIFKEQ_clean_linker_1, # of connection points: 2
#     Edge 76, Type (0, 0), BuildingBlock: KIFKEQ_clean_linker_1, # of connection points: 2
#     Edge 77, Type (0, 0), BuildingBlock: KIFKEQ_clean_linker_1, # of connection points: 2
#     Edge 78, Type (0, 0), BuildingBlock: KIFKEQ_clean_linker_1, # of connection points: 2
#     Edge 79, Type (0, 0), BuildingBlock: KIFKEQ_clean_linker_1, # of connection points: 2
#     Edge 80, Type (0, 0), BuildingBlock: KIFKEQ_clean_linker_1, # of connection points: 2
#     Edge 81, Type (0, 0), BuildingBlock: KIFKEQ_clean_linker_1, # of connection points: 2
#     Edge 82, Type (0, 0), BuildingBlock: KIFKEQ_clean_linker_1, # of connection points: 2
#     Edge 83, Type (0, 0), BuildingBlock: KIFKEQ_clean_linker_1, # of connection points: 2
#     Edge 84, Type (0, 0), BuildingBlock: KIFKEQ_clean_linker_1, # of connection points: 2
#     Edge 85, Type (0, 0), BuildingBlock: KIFKEQ_clean_linker_1, # of connection points: 2
#     Edge 86, Type (0, 0), BuildingBlock: KIFKEQ_clean_linker_1, # of connection points: 2
#     Edge 87, Type (0, 0), BuildingBlock: KIFKEQ_clean_linker_1, # of connection points: 2
#     Edge 88, Type (0, 0), BuildingBlock: KIFKEQ_clean_linker_1, # of connection points: 2
#     Edge 89, Type (0, 0), BuildingBlock: KIFKEQ_clean_linker_1, # of connection points: 2
#     Edge 90, Type (0, 0), BuildingBlock: KIFKEQ_clean_linker_1, # of connection points: 2
#     Edge 91, Type (0, 0), BuildingBlock: KIFKEQ_clean_linker_1, # of connection points: 2
#     Edge 92, Type (0, 0), BuildingBlock: KIFKEQ_clean_linker_1, # of connection points: 2
#     Edge 93, Type (0, 0), BuildingBlock: KIFKEQ_clean_linker_1, # of connection points: 2
#     Edge 94, Type (0, 0), BuildingBlock: KIFKEQ_clean_linker_1, # of connection points: 2
#     Edge 95, Type (0, 0), BuildingBlock: KIFKEQ_clean_linker_1, # of connection points: 2
#     Edge 96, Type (0, 0), BuildingBlock: KIFKEQ_clean_linker_1, # of connection points: 2
#     Edge 97, Type (0, 0), BuildingBlock: KIFKEQ_clean_linker_1, # of connection points: 2
#     Edge 98, Type (0, 0), BuildingBlock: KIFKEQ_clean_linker_1, # of connection points: 2
#     Edge 99, Type (0, 0), BuildingBlock: KIFKEQ_clean_linker_1, # of connection points: 2
#     Edge 100, Type (0, 0), BuildingBlock: KIFKEQ_clean_linker_1, # of connection points: 2
#     Edge 101, Type (0, 0), BuildingBlock: KIFKEQ_clean_linker_1, # of connection points: 2
#     Edge 102, Type (0, 0), BuildingBlock: KIFKEQ_clean_linker_1, # of connection points: 2
#     Edge 103, Type (0, 0), BuildingBlock: KIFKEQ_clean_linker_1, # of connection points: 2
#     Edge 104, Type (0, 0), BuildingBlock: KIFKEQ_clean_linker_1, # of connection points: 2
#     Edge 105, Type (0, 0), BuildingBlock: KIFKEQ_clean_linker_1, # of connection points: 2
#     Edge 106, Type (0, 0), BuildingBlock: KIFKEQ_clean_linker_1, # of connection points: 2
#     Edge 107, Type (0, 0), BuildingBlock: KIFKEQ_clean_linker_1, # of connection points: 2
#     Edge 108, Type (0, 0), BuildingBlock: KIFKEQ_clean_linker_1, # of connection points: 2
#     Edge 109, Type (0, 0), BuildingBlock: KIFKEQ_clean_linker_1, # of connection points: 2
#     Edge 110, Type (0, 0), BuildingBlock: KIFKEQ_clean_linker_1, # of connection points: 2
#     Edge 111, Type (0, 0), BuildingBlock: KIFKEQ_clean_linker_1, # of connection points: 2
#     Edge 112, Type (0, 0), BuildingBlock: KIFKEQ_clean_linker_1, # of connection points: 2
#     Edge 113, Type (0, 0), BuildingBlock: KIFKEQ_clean_linker_1, # of connection points: 2
#     Edge 114, Type (0, 0), BuildingBlock: KIFKEQ_clean_linker_1, # of connection points: 2
#     Edge 115, Type (0, 0), BuildingBlock: KIFKEQ_clean_linker_1, # of connection points: 2
#     Edge 116, Type (0, 0), BuildingBlock: KIFKEQ_clean_linker_1, # of connection points: 2
#     Edge 117, Type (0, 0), BuildingBlock: KIFKEQ_clean_linker_1, # of connection points: 2
#     Edge 118, Type (0, 0), BuildingBlock: KIFKEQ_clean_linker_1, # of connection points: 2
#     Edge 119, Type (0, 0), BuildingBlock: KIFKEQ_clean_linker_1, # of connection points: 2
#     Edge 120, Type (0, 0), BuildingBlock: KIFKEQ_clean_linker_1, # of connection points: 2
#     Edge 121, Type (0, 0), BuildingBlock: KIFKEQ_clean_linker_1, # of connection points: 2
#     Edge 122, Type (0, 0), BuildingBlock: KIFKEQ_clean_linker_1, # of connection points: 2
#     Edge 123, Type (0, 0), BuildingBlock: KIFKEQ_clean_linker_1, # of connection points: 2
#     Edge 124, Type (0, 0), BuildingBlock: KIFKEQ_clean_linker_1, # of connection points: 2
#     Edge 125, Type (0, 0), BuildingBlock: KIFKEQ_clean_linker_1, # of connection points: 2
#     Edge 126, Type (0, 0), BuildingBlock: KIFKEQ_clean_linker_1, # of connection points: 2
#     Edge 127, Type (0, 0), BuildingBlock: KIFKEQ_clean_linker_1, # of connection points: 2
#     Edge 128, Type (0, 0), BuildingBlock: KIFKEQ_clean_linker_1, # of connection points: 2
#     Edge 129, Type (0, 0), BuildingBlock: KIFKEQ_clean_linker_1, # of connection points: 2
#     Edge 130, Type (0, 0), BuildingBlock: KIFKEQ_clean_linker_1, # of connection points: 2
#     Edge 131, Type (0, 0), BuildingBlock: KIFKEQ_clean_linker_1, # of connection points: 2
#     Edge 132, Type (0, 0), BuildingBlock: KIFKEQ_clean_linker_1, # of connection points: 2
#     Edge 133, Type (0, 0), BuildingBlock: KIFKEQ_clean_linker_1, # of connection points: 2
#     Edge 134, Type (0, 0), BuildingBlock: KIFKEQ_clean_linker_1, # of connection points: 2
#     Edge 135, Type (0, 0), BuildingBlock: KIFKEQ_clean_linker_1, # of connection points: 2
#     Edge 136, Type (0, 0), BuildingBlock: KIFKEQ_clean_linker_1, # of connection points: 2
#     Edge 137, Type (0, 0), BuildingBlock: KIFKEQ_clean_linker_1, # of connection points: 2
#     Edge 138, Type (0, 0), BuildingBlock: KIFKEQ_clean_linker_1, # of connection points: 2
#     Edge 139, Type (0, 0), BuildingBlock: KIFKEQ_clean_linker_1, # of connection points: 2
#     Edge 140, Type (0, 0), BuildingBlock: KIFKEQ_clean_linker_1, # of connection points: 2
#     Edge 141, Type (0, 0), BuildingBlock: KIFKEQ_clean_linker_1, # of connection points: 2
#     Edge 142, Type (0, 0), BuildingBlock: KIFKEQ_clean_linker_1, # of connection points: 2
#     Edge 143, Type (0, 0), BuildingBlock: KIFKEQ_clean_linker_1, # of connection points: 2
# Relax obj value: 0.146
# Max RMSD: 0.225
# Mean RMSD: 0.208
data_MOF--net-wna--node1-CUWYAW_clean_sbu_0--edge1-KIFKEQ_clean_linker_1
_symmetry_space_group_name_H-M    P1
_symmetry_Int_Tables_number       1
_symmetry_cell_setting            triclinic
loop_
_symmetry_equiv_pos_as_xyz
'x, y, z'
_cell_length_a     41.695545
_cell_length_b     41.672164
_cell_length_c     153.53452
_cell_angle_alpha  90.006029
_cell_angle_beta   90.005343
_cell_angle_gamma 119.96274
loop_
_atom_site_label
_atom_site_type_symbol
_atom_site_fract_x
_atom_site_fract_y
_atom_site_fract_z
_atom_type_partial_charge
C0 C 0.11588 0.2255 0.2073 0.0
Eu1 Eu 0.11691 0.24458 0.19094 0.0
C2 C 0.09551 0.21678 0.21573 0.0
C3 C 0.07906 0.23697 0.21883 0.0
C4 C 0.06326 0.23024 0.22721 0.0
C5 C 0.06376 0.20336 0.23272 0.0
C6 C 0.07947 0.18268 0.22946 0.0
C7 C 0.09508 0.18932 0.2211 0.0
C8 C 0.0982 0.2966 0.18602 0.0
C9 C 0.03863 0.18858 0.18138 0.0
C10 C 0.10716 0.27317 0.15577 0.0
Eu11 Eu 0.11038 0.25068 0.17153 0.0
C12 C 0.12414 0.28739 0.14705 0.0
C13 C 0.13104 0.26548 0.14121 0.0
C14 C 0.14049 0.27637 0.1325 0.0
C15 C 0.14312 0.30939 0.12935 0.0
C16 C 0.13776 0.332 0.13532 0.0
C17 C 0.1283 0.32109 0.14403 0.0
C18 C 0.12298 0.19489 0.17597 0.0
C19 C 0.1932 0.2949 0.18051 0.0
O20 O 0.10163 0.20159 0.20094 0.0
O21 O 0.1322 0.25972 0.20455 0.0
O22 O 0.11923 0.30003 0.19255 0.0
O23 O 0.08629 0.26505 0.18267 0.0
O24 O 0.06068 0.19435 0.1881 0.0
O25 O 0.04999 0.21129 0.17462 0.0
O26 O 0.1184 0.2953 0.16255 0.0
O27 O 0.09718 0.23895 0.15779 0.0
O28 O 0.10393 0.19459 0.16926 0.0
O29 O 0.13773 0.22627 0.17967 0.0
O30 O 0.17211 0.29216 0.17374 0.0
O31 O 0.1783 0.27554 0.18769 0.0
H32 H 0.07909 0.25845 0.21486 0.0
H33 H 0.05167 0.24691 0.22948 0.0
H34 H 0.07985 0.1613 0.2334 0.0
H35 H 0.1076 0.17338 0.2189 0.0
H36 H 0.12771 0.23912 0.14327 0.0
H37 H 0.14406 0.25799 0.12813 0.0
H38 H 0.14016 0.35793 0.13323 0.0
H39 H 0.12282 0.33843 0.14832 0.0
C40 C 0.79732 0.90293 0.20783 0.0
Eu41 Eu 0.77521 0.87756 0.19208 0.0
C42 C 0.8024 0.8906 0.21658 0.0
C43 C 0.77272 0.86235 0.22127 0.0
C44 C 0.77813 0.85276 0.2297 0.0
C45 C 0.81333 0.87118 0.23367 0.0
C46 C 0.84301 0.89905 0.22888 0.0
C47 C 0.83757 0.90865 0.22048 0.0
C48 C 0.72471 0.80414 0.18844 0.0
C49 C 0.82729 0.85395 0.18142 0.0
C50 C 0.74738 0.83724 0.15568 0.0
Eu51 Eu 0.76279 0.86472 0.17146 0.0
C52 C 0.73394 0.83865 0.14679 0.0
C53 C 0.74783 0.87183 0.14204 0.0
C54 C 0.73747 0.8714 0.1333 0.0
C55 C 0.71305 0.83779 0.12908 0.0
C56 C 0.69871 0.8048 0.13395 0.0
C57 C 0.70901 0.80528 0.14267 0.0
C58 C 0.80772 0.93631 0.17658 0.0
C59 C 0.72037 0.89991 0.18163 0.0
O60 O 0.81974 0.90476 0.20163 0.0
O61 O 0.76347 0.89087 0.20503 0.0
O62 O 0.73551 0.81744 0.19619 0.0
O63 O 0.74106 0.83084 0.18323 0.0
O64 O 0.82093 0.86577 0.18887 0.0
O65 O 0.80707 0.8489 0.1743 0.0
O66 O 0.7234 0.82467 0.16209 0.0
O67 O 0.78001 0.86408 0.15808 0.0
O68 O 0.78721 0.92683 0.16961 0.0
O69 O 0.80522 0.90771 0.18008 0.0
O70 O 0.71794 0.87809 0.17505 0.0
O71 O 0.74385 0.9073 0.18819 0.0
H72 H 0.74519 0.8479 0.21848 0.0
H73 H 0.75447 0.83144 0.23318 0.0
H74 H 0.87065 0.91347 0.23161 0.0
H75 H 0.86097 0.93055 0.21704 0.0
H76 H 0.76718 0.89803 0.14503 0.0
H77 H 0.74874 0.89746 0.12984 0.0
H78 H 0.68039 0.77828 0.13097 0.0
H79 H 0.69824 0.77925 0.14613 0.0
C80 C 0.12463 0.9026 0.20729 0.0
Eu81 Eu 0.14135 0.89994 0.1909 0.0
C82 C 0.13869 0.9232 0.21567 0.0
C83 C 0.16331 0.91823 0.22102 0.0
C84 C 0.17282 0.9343 0.22935 0.0
C85 C 0.1578 0.95563 0.23261 0.0
C86 C 0.13386 0.96126 0.22715 0.0
C87 C 0.12438 0.9452 0.21883 0.0
C88 C 0.21186 0.91767 0.18603 0.0
C89 C 0.16447 0.97765 0.18126 0.0
C90 C 0.17875 0.9075 0.15576 0.0
Eu91 Eu 0.15394 0.90522 0.17159 0.0
C92 C 0.17467 0.89023 0.147 0.0
C93 C 0.15155 0.89238 0.14062 0.0
C94 C 0.15269 0.8823 0.13195 0.0
C95 C 0.17708 0.86987 0.12937 0.0
C96 C 0.19919 0.86642 0.13584 0.0
C97 C 0.19812 0.87661 0.14452 0.0
C98 C 0.08566 0.89361 0.17589 0.0
C99 C 0.11493 0.8234 0.18084 0.0
O100 O 0.11693 0.91861 0.20094 0.0
O101 O 0.13886 0.88281 0.20446 0.0
O102 O 0.19409 0.8968 0.19257 0.0
O103 O 0.19253 0.92979 0.18265 0.0
O104 O 0.14686 0.95561 0.18787 0.0
O105 O 0.17654 0.96602 0.17468 0.0
O106 O 0.18881 0.89521 0.16248 0.0
O107 O 0.15593 0.91915 0.15787 0.0
O108 O 0.10462 0.91216 0.16917 0.0
O109 O 0.10195 0.87872 0.17968 0.0
O110 O 0.13575 0.84407 0.17429 0.0
O111 O 0.1083 0.83892 0.1876 0.0
H112 H 0.17457 0.90109 0.21888 0.0
H113 H 0.19098 0.92889 0.23335 0.0
H114 H 0.12214 0.97793 0.22933 0.0
H115 H 0.10508 0.94935 0.21494 0.0
H116 H 0.13356 0.90331 0.14222 0.0
H117 H 0.13554 0.88587 0.1272 0.0
H118 H 0.2179 0.8564 0.13419 0.0
H119 H 0.21667 0.87505 0.14922 0.0
C120 C 0.2293 0.11139 0.31995 0.0
Eu121 Eu 0.2484 0.11353 0.33634 0.0
C122 C 0.22217 0.09051 0.31161 0.0
C123 C 0.25057 0.0888 0.30704 0.0
C124 C 0.24403 0.07243 0.29874 0.0
C125 C 0.20895 0.05734 0.29477 0.0
C126 C 0.18043 0.05844 0.29945 0.0
C127 C 0.187 0.07485 0.30772 0.0
C128 C 0.30037 0.0947 0.34125 0.0
C129 C 0.19262 0.0358 0.34592 0.0
C130 C 0.27661 0.10477 0.37151 0.0
Eu131 Eu 0.25468 0.10773 0.35566 0.0
C132 C 0.29024 0.12177 0.38026 0.0
C133 C 0.26615 0.12349 0.38643 0.0
C134 C 0.27716 0.13292 0.39514 0.0
C135 C 0.3125 0.14073 0.39796 0.0
C136 C 0.33708 0.14051 0.39168 0.0
C137 C 0.32606 0.13104 0.38298 0.0
C138 C 0.1988 0.12032 0.3512 0.0
C139 C 0.29918 0.18998 0.34656 0.0
O140 O 0.20544 0.0961 0.32629 0.0
O141 O 0.26336 0.13016 0.32279 0.0
O142 O 0.30369 0.11563 0.33471 0.0
O143 O 0.26893 0.08296 0.34463 0.0
O144 O 0.19783 0.05792 0.33927 0.0
O145 O 0.21586 0.04716 0.35257 0.0
O146 O 0.29902 0.11633 0.36479 0.0
O147 O 0.24241 0.09429 0.36939 0.0
O148 O 0.19862 0.10144 0.35792 0.0
O149 O 0.23013 0.13499 0.34749 0.0
O150 O 0.29727 0.16906 0.35328 0.0
O151 O 0.27862 0.17483 0.33955 0.0
H152 H 0.27808 0.10068 0.3098 0.0
H153 H 0.26659 0.07172 0.29543 0.0
H154 H 0.1532 0.04767 0.2966 0.0
H155 H 0.16467 0.07616 0.311 0.0
H156 H 0.23816 0.11603 0.38464 0.0
H157 H 0.25722 0.13236 0.39975 0.0
H158 H 0.36474 0.14696 0.39353 0.0
H159 H 0.34517 0.12958 0.37844 0.0
C160 C 0.90381 0.12065 0.3198 0.0
Eu161 Eu 0.9026 0.13878 0.33615 0.0
C162 C 0.92467 0.13239 0.31143 0.0
C163 C 0.94194 0.16921 0.30845 0.0
C164 C 0.95867 0.17856 0.30016 0.0
C165 C 0.95854 0.15134 0.29466 0.0
C166 C 0.94161 0.11465 0.29778 0.0
C167 C 0.92498 0.10539 0.30603 0.0
C168 C 0.92113 0.20948 0.34104 0.0
C169 C 0.98088 0.16143 0.3457 0.0
C170 C 0.9124 0.17728 0.37138 0.0
Eu171 Eu 0.90909 0.15162 0.35559 0.0
C172 C 0.89589 0.17506 0.38015 0.0
C173 C 0.8878 0.14575 0.38594 0.0
C174 C 0.87873 0.14745 0.39469 0.0
C175 C 0.87771 0.1786 0.39792 0.0
C176 C 0.88435 0.20716 0.39201 0.0
C177 C 0.89339 0.20544 0.38328 0.0
C178 C 0.89677 0.08331 0.35115 0.0
C179 C 0.82641 0.11304 0.34656 0.0
O180 O 0.91763 0.11068 0.3262 0.0
O181 O 0.88768 0.13881 0.32252 0.0
O182 O 0.90014 0.19179 0.3345 0.0
O183 O 0.93308 0.18991 0.34441 0.0
O184 O 0.95883 0.14492 0.339 0.0
O185 O 0.9695 0.17292 0.35243 0.0
O186 O 0.90132 0.18836 0.36461 0.0
O187 O 0.92199 0.15276 0.36936 0.0
O188 O 0.91576 0.10208 0.35786 0.0
O189 O 0.88193 0.09986 0.34745 0.0
O190 O 0.84745 0.13155 0.35332 0.0
O191 O 0.8413 0.10835 0.33941 0.0
H192 H 0.94212 0.19067 0.31246 0.0
H193 H 0.97179 0.20719 0.29809 0.0
H194 H 0.94024 0.09268 0.29375 0.0
H195 H 0.91155 0.07674 0.30812 0.0
H196 H 0.88985 0.12206 0.38381 0.0
H197 H 0.87415 0.12499 0.399 0.0
H198 H 0.88321 0.23132 0.39417 0.0
H199 H 0.89982 0.22865 0.37903 0.0
C200 C 0.89537 0.78858 0.32 0.0
Eu201 Eu 0.87812 0.76893 0.33634 0.0
C202 C 0.88144 0.79637 0.31177 0.0
C203 C 0.854 0.76766 0.30668 0.0
C204 C 0.84406 0.77513 0.29851 0.0
C205 C 0.86131 0.81148 0.29517 0.0
C206 C 0.88821 0.84023 0.30036 0.0
C207 C 0.8982 0.83275 0.30852 0.0
C208 C 0.80738 0.71678 0.34114 0.0
C209 C 0.85566 0.82445 0.34589 0.0
C210 C 0.83973 0.73977 0.37139 0.0
Eu211 Eu 0.8654 0.76222 0.35564 0.0
C212 C 0.84273 0.72561 0.38006 0.0
C213 C 0.87477 0.74442 0.38522 0.0
C214 C 0.87465 0.73427 0.39395 0.0
C215 C 0.84248 0.70514 0.39776 0.0
C216 C 0.81095 0.68551 0.39246 0.0
C217 C 0.81111 0.69567 0.38374 0.0
C218 C 0.93389 0.81816 0.35131 0.0
C219 C 0.9035 0.71794 0.34654 0.0
O220 O 0.90446 0.81222 0.32641 0.0
O221 O 0.8797 0.75435 0.32275 0.0
O222 O 0.82516 0.71349 0.33463 0.0
O223 O 0.82687 0.74822 0.34453 0.0
O224 O 0.87265 0.81929 0.33925 0.0
O225 O 0.84383 0.80123 0.35255 0.0
O226 O 0.82888 0.71759 0.36462 0.0
O227 O 0.86399 0.77394 0.36938 0.0
O228 O 0.91501 0.81827 0.35801 0.0
O229 O 0.91737 0.7869 0.34756 0.0
O230 O 0.88436 0.71973 0.35325 0.0
O231 O 0.90906 0.73864 0.33955 0.0
H232 H 0.8406 0.73925 0.30893 0.0
H233 H 0.8229 0.7523 0.29478 0.0
H234 H 0.90252 0.86849 0.298 0.0
H235 H 0.91982 0.85543 0.31219 0.0
H236 H 0.8996 0.76774 0.3826 0.0
H237 H 0.89967 0.74967 0.39776 0.0
H238 H 0.7855 0.66326 0.39513 0.0
H239 H 0.78585 0.68103 0.37997 0.0
C240 C 0.91349 0.73646 0.87127 0.0
Eu241 Eu 0.90998 0.76227 0.85596 0.0
C242 C 0.89726 0.72271 0.88003 0.0
C243 C 0.88698 0.74301 0.88556 0.0
C244 C 0.87782 0.73263 0.89432 0.0
C245 C 0.87899 0.70189 0.89777 0.0
C246 C 0.88772 0.68077 0.8921 0.0
C247 C 0.89676 0.69109 0.88336 0.0
C248 C 0.8993 0.81945 0.85165 0.0
C249 C 0.82828 0.72003 0.84636 0.0
C250 C 0.90154 0.79623 0.81979 0.0
Eu251 Eu 0.90479 0.7735 0.83544 0.0
C252 C 0.92056 0.80293 0.81119 0.0
C253 C 0.91587 0.7735 0.80581 0.0
C254 C 0.93231 0.78033 0.79753 0.0
C255 C 0.95385 0.81678 0.79436 0.0
C256 C 0.95881 0.84615 0.79981 0.0
C257 C 0.94231 0.83931 0.80807 0.0
C258 C 0.93267 0.72657 0.83874 0.0
C259 C 0.98138 0.82506 0.84583 0.0
O260 O 0.89873 0.71519 0.86444 0.0
O261 O 0.92678 0.77162 0.86955 0.0
O262 O 0.91486 0.81754 0.85881 0.0
O263 O 0.886 0.789 0.84757 0.0
O264 O 0.84802 0.72377 0.8535 0.0
O265 O 0.84374 0.73777 0.83898 0.0
O266 O 0.92019 0.81879 0.8262 0.0
O267 O 0.88102 0.76177 0.82238 0.0
O268 O 0.92687 0.73514 0.83103 0.0
O269 O 0.9227 0.74292 0.844 0.0
O270 O 0.95939 0.82279 0.83936 0.0
O271 O 0.97015 0.80002 0.85216 0.0
H272 H 0.88733 0.76769 0.88321 0.0
H273 H 0.87146 0.74971 0.89847 0.0
H274 H 0.88828 0.65657 0.89446 0.0
H275 H 0.90479 0.67507 0.87928 0.0
H276 H 0.89907 0.74506 0.80794 0.0
H277 H 0.92734 0.7569 0.79353 0.0
H278 H 0.9756 0.87462 0.7977 0.0
H279 H 0.94635 0.86261 0.81201 0.0
C280 C 0.28078 0.17882 0.8714 0.0
Eu281 Eu 0.25629 0.15096 0.85589 0.0
C282 C 0.29164 0.17391 0.88035 0.0
C283 C 0.26578 0.14758 0.88616 0.0
C284 C 0.27476 0.1475 0.89498 0.0
C285 C 0.30981 0.17377 0.89824 0.0
C286 C 0.33608 0.19917 0.89233 0.0
C287 C 0.32705 0.1993 0.88352 0.0
C288 C 0.20103 0.08276 0.85109 0.0
C289 C 0.30139 0.11466 0.84618 0.0
C290 C 0.22522 0.11068 0.8195 0.0
Eu291 Eu 0.247 0.1366 0.83522 0.0
C292 C 0.21771 0.12228 0.81094 0.0
C293 C 0.23746 0.15924 0.80807 0.0
C294 C 0.23057 0.16909 0.79981 0.0
C295 C 0.20375 0.14222 0.7942 0.0
C296 C 0.18373 0.10535 0.7972 0.0
C297 C 0.19066 0.09558 0.80545 0.0
C298 C 0.29249 0.21108 0.83885 0.0
C299 C 0.19406 0.16002 0.84559 0.0
O300 O 0.30276 0.18361 0.86481 0.0
O301 O 0.24571 0.15999 0.86928 0.0
O302 O 0.20238 0.09822 0.85854 0.0
O303 O 0.23154 0.10149 0.84716 0.0
O304 O 0.29557 0.12858 0.85342 0.0
O305 O 0.28492 0.11361 0.83867 0.0
O306 O 0.20228 0.10579 0.82588 0.0
O307 O 0.25984 0.12658 0.82208 0.0
O308 O 0.28431 0.19723 0.83108 0.0
O309 O 0.27632 0.1845 0.84407 0.0
O310 O 0.19712 0.14115 0.83903 0.0
O311 O 0.21839 0.17313 0.85207 0.0
H312 H 0.23816 0.12768 0.88398 0.0
H313 H 0.25396 0.12711 0.89927 0.0
H314 H 0.3632 0.22008 0.89457 0.0
H315 H 0.34739 0.2203 0.87925 0.0
H316 H 0.25847 0.18046 0.81218 0.0
H317 H 0.24683 0.19767 0.79774 0.0
H318 H 0.16239 0.08393 0.79321 0.0
H319 H 0.17492 0.06694 0.80752 0.0
C320 C 0.84381 0.10679 0.87089 0.0
Eu321 Eu 0.86913 0.11067 0.85506 0.0
C322 C 0.8451 0.12331 0.87957 0.0
C323 C 0.87801 0.14207 0.88443 0.0
C324 C 0.87725 0.152 0.89315 0.0
C325 C 0.84355 0.14323 0.89726 0.0
C326 C 0.8109 0.1255 0.89224 0.0
C327 C 0.81171 0.11573 0.88354 0.0
C328 C 0.93757 0.12472 0.85022 0.0
C329 C 0.90527 0.1924 0.84581 0.0
C330 C 0.89611 0.11438 0.81907 0.0
Eu331 Eu 0.88009 0.11612 0.83555 0.0
C332 C 0.88366 0.09249 0.81084 0.0
C333 C 0.84897 0.08168 0.80706 0.0
C334 C 0.83959 0.06418 0.79887 0.0
C335 C 0.86461 0.05702 0.79425 0.0
C336 C 0.89902 0.06738 0.79816 0.0
C337 C 0.90837 0.08487 0.80632 0.0
C338 C 0.80981 0.09674 0.84094 0.0
C339 C 0.8607 0.03906 0.84528 0.0
O340 O 0.83104 0.11604 0.86411 0.0
O341 O 0.87014 0.09974 0.86888 0.0
O342 O 0.92099 0.10755 0.8573 0.0
O343 O 0.91966 0.13815 0.84659 0.0
O344 O 0.88548 0.17142 0.85245 0.0
O345 O 0.91165 0.17731 0.83892 0.0
O346 O 0.90793 0.10191 0.82539 0.0
O347 O 0.87759 0.12993 0.82193 0.0
O348 O 0.827 0.11885 0.83452 0.0
O349 O 0.82999 0.08497 0.84404 0.0
O350 O 0.87585 0.06071 0.83844 0.0
O351 O 0.84956 0.05043 0.85208 0.0
H352 H 0.90421 0.14817 0.88157 0.0
H353 H 0.9031 0.16616 0.8967 0.0
H354 H 0.7843 0.11769 0.89513 0.0
H355 H 0.78586 0.10079 0.88 0.0
H356 H 0.82926 0.0872 0.81035 0.0
H357 H 0.81265 0.05623 0.79616 0.0
H358 H 0.91934 0.06297 0.7948 0.0
H359 H 0.93546 0.09327 0.80901 0.0
C360 C 0.74977 0.9142 0.65521 0.0
Eu361 Eu 0.77079 0.90927 0.67099 0.0
C362 C 0.73057 0.89742 0.64686 0.0
C363 C 0.73532 0.87047 0.64247 0.0
C364 C 0.72205 0.85983 0.63392 0.0
C365 C 0.70386 0.87601 0.62954 0.0
C366 C 0.69806 0.90199 0.63412 0.0
C367 C 0.71122 0.91249 0.64265 0.0
C368 C 0.82809 0.90018 0.67614 0.0
C369 C 0.72579 0.82684 0.68023 0.0
C370 C 0.79873 0.89696 0.70735 0.0
Eu371 Eu 0.77797 0.90224 0.69159 0.0
C372 C 0.80463 0.91451 0.71606 0.0
C373 C 0.79168 0.93893 0.7181 0.0
C374 C 0.79698 0.95443 0.72649 0.0
C375 C 0.8153 0.94579 0.73302 0.0
C376 C 0.82849 0.92157 0.73086 0.0
C377 C 0.82321 0.90618 0.72249 0.0
C378 C 0.7306 0.92889 0.68784 0.0
C379 C 0.83137 0.98044 0.68165 0.0
O380 O 0.73055 0.91208 0.66217 0.0
O381 O 0.78011 0.91357 0.65701 0.0
O382 O 0.82842 0.91883 0.66932 0.0
O383 O 0.79631 0.88471 0.67968 0.0
O384 O 0.7313 0.84726 0.67311 0.0
O385 O 0.74206 0.84165 0.68778 0.0
O386 O 0.82195 0.91666 0.70116 0.0
O387 O 0.76446 0.87779 0.70457 0.0
O388 O 0.73743 0.92201 0.69563 0.0
O389 O 0.74865 0.92041 0.68273 0.0
O390 O 0.82704 0.95831 0.68828 0.0
O391 O 0.80863 0.96926 0.67485 0.0
H392 H 0.75026 0.85843 0.64553 0.0
H393 H 0.72654 0.83928 0.63071 0.0
H394 H 0.68474 0.91556 0.63099 0.0
H395 H 0.70764 0.93372 0.64582 0.0
H396 H 0.77723 0.94579 0.71324 0.0
H397 H 0.78611 0.97265 0.72789 0.0
H398 H 0.84331 0.91469 0.73561 0.0
H399 H 0.8336 0.88756 0.72106 0.0
C400 C 0.1229 0.85562 0.65575 0.0
Eu401 Eu 0.11836 0.87061 0.672 0.0
C402 C 0.12626 0.84896 0.64636 0.0
C403 C 0.14086 0.87876 0.64046 0.0
C404 C 0.14522 0.87332 0.63164 0.0
C405 C 0.13531 0.83791 0.62843 0.0
C406 C 0.12026 0.80794 0.63433 0.0
C407 C 0.11575 0.8134 0.64318 0.0
C408 C 0.12421 0.93457 0.67788 0.0
C409 C 0.19836 0.90386 0.68217 0.0
C410 C 0.12287 0.90381 0.70841 0.0
Eu411 Eu 0.12199 0.88059 0.69255 0.0
C412 C 0.10284 0.89125 0.71686 0.0
C413 C 0.09942 0.86027 0.72137 0.0
C414 C 0.08216 0.85042 0.72956 0.0
C415 C 0.06776 0.87121 0.73346 0.0
C416 C 0.0709 0.90192 0.72888 0.0
C417 C 0.08825 0.91181 0.72071 0.0
C418 C 0.09882 0.80779 0.6883 0.0
C419 C 0.04472 0.85683 0.68187 0.0
O420 O 0.10487 0.82932 0.66152 0.0
O421 O 0.13809 0.8893 0.65887 0.0
O422 O 0.10503 0.91658 0.6711 0.0
O423 O 0.14085 0.9189 0.68111 0.0
O424 O 0.17812 0.88669 0.6752 0.0
O425 O 0.18325 0.90773 0.6894 0.0
O426 O 0.10535 0.90897 0.70195 0.0
O427 O 0.143 0.88936 0.70587 0.0
O428 O 0.10392 0.82042 0.69618 0.0
O429 O 0.10721 0.83464 0.68327 0.0
O430 O 0.06529 0.87179 0.68891 0.0
O431 O 0.05762 0.84849 0.67483 0.0
H432 H 0.149 0.9065 0.64266 0.0
H433 H 0.15612 0.897 0.62732 0.0
H434 H 0.11261 0.78031 0.63215 0.0
H435 H 0.10451 0.78988 0.64756 0.0
H436 H 0.1103 0.84374 0.7186 0.0
H437 H 0.07991 0.82635 0.73283 0.0
H438 H 0.0607 0.91897 0.73168 0.0
H439 H 0.09075 0.936 0.71744 0.0
C440 C 0.18421 0.27733 0.65667 0.0
Eu441 Eu 0.15636 0.25503 0.67228 0.0
C442 C 0.17974 0.28847 0.64771 0.0
C443 C 0.1528 0.26307 0.64192 0.0
C444 C 0.1528 0.27216 0.63311 0.0
C445 C 0.17975 0.30687 0.62981 0.0
C446 C 0.20585 0.33268 0.63569 0.0
C447 C 0.2059 0.32353 0.64449 0.0
C448 C 0.08781 0.2018 0.67734 0.0
C449 C 0.12166 0.30305 0.68143 0.0
C450 C 0.11631 0.22936 0.70875 0.0
Eu451 Eu 0.14226 0.24925 0.69296 0.0
C452 C 0.12729 0.22128 0.71732 0.0
C453 C 0.1645 0.23821 0.71997 0.0
C454 C 0.17389 0.23022 0.72817 0.0
C455 C 0.14633 0.20496 0.73389 0.0
C456 C 0.10914 0.18805 0.73115 0.0
C457 C 0.09981 0.19612 0.72298 0.0
C458 C 0.21702 0.29201 0.68916 0.0
C459 C 0.1612 0.19182 0.68316 0.0
O460 O 0.19076 0.30012 0.66319 0.0
O461 O 0.16371 0.24254 0.65891 0.0
O462 O 0.103 0.20135 0.66998 0.0
O463 O 0.10705 0.2329 0.68101 0.0
O464 O 0.13479 0.29546 0.67428 0.0
O465 O 0.12078 0.28789 0.68912 0.0
O466 O 0.1101 0.20572 0.70244 0.0
O467 O 0.13371 0.26389 0.70607 0.0
O468 O 0.20335 0.28531 0.69695 0.0
O469 O 0.19016 0.27575 0.68403 0.0
O470 O 0.14285 0.19713 0.68948 0.0
O471 O 0.17637 0.21567 0.67663 0.0
H472 H 0.1323 0.2357 0.64413 0.0
H473 H 0.13187 0.25172 0.62884 0.0
H474 H 0.22732 0.3595 0.63342 0.0
H475 H 0.22738 0.34351 0.64873 0.0
H476 H 0.1863 0.25758 0.71571 0.0
H477 H 0.20284 0.24348 0.72998 0.0
H478 H 0.08704 0.16891 0.73537 0.0
H479 H 0.07093 0.18276 0.7211 0.0
C480 C 0.79038 0.55797 0.54104 0.0
Eu481 Eu 0.78593 0.57737 0.52509 0.0
C482 C 0.7719 0.55188 0.54967 0.0
C483 C 0.76543 0.57867 0.55359 0.0
C484 C 0.74949 0.57272 0.56192 0.0
C485 C 0.73949 0.53979 0.56655 0.0
C486 C 0.74571 0.51295 0.56254 0.0
C487 C 0.76172 0.51897 0.55424 0.0
C488 C 0.75975 0.62463 0.52079 0.0
C489 C 0.70732 0.52268 0.51537 0.0
C490 C 0.77342 0.59887 0.48834 0.0
Eu491 Eu 0.77838 0.5813 0.50445 0.0
C492 C 0.79018 0.61802 0.48 0.0
C493 C 0.81718 0.61321 0.47564 0.0
C494 C 0.8276 0.626 0.46707 0.0
C495 C 0.8112 0.64378 0.46262 0.0
C496 C 0.78529 0.64981 0.46715 0.0
C497 C 0.77494 0.63707 0.47571 0.0
C498 C 0.78649 0.52452 0.51044 0.0
C499 C 0.86099 0.6279 0.51358 0.0
O500 O 0.77184 0.53409 0.53485 0.0
O501 O 0.80957 0.5921 0.53815 0.0
O502 O 0.76679 0.61889 0.52867 0.0
O503 O 0.76783 0.60566 0.51587 0.0
O504 O 0.72957 0.52793 0.52205 0.0
O505 O 0.71847 0.54464 0.50844 0.0
O506 O 0.77226 0.6178 0.49505 0.0
O507 O 0.77719 0.57063 0.49058 0.0
O508 O 0.76656 0.52236 0.50372 0.0
O509 O 0.80305 0.55721 0.51345 0.0
O510 O 0.84033 0.62167 0.50648 0.0
O511 O 0.84642 0.61242 0.52122 0.0
H512 H 0.77283 0.60432 0.55023 0.0
H513 H 0.74476 0.59385 0.56472 0.0
H514 H 0.73894 0.4875 0.56591 0.0
H515 H 0.76659 0.49795 0.55142 0.0
H516 H 0.82938 0.59851 0.47875 0.0
H517 H 0.8481 0.62138 0.46388 0.0
H518 H 0.77163 0.6629 0.46396 0.0
H519 H 0.75368 0.64067 0.47885 0.0
C520 C 0.46503 0.23831 0.54116 0.0
Eu521 Eu 0.44277 0.21178 0.5255 0.0
C522 C 0.47133 0.22697 0.54987 0.0
C523 C 0.4552 0.18955 0.5523 0.0
C524 C 0.46073 0.17978 0.56071 0.0
C525 C 0.48244 0.20722 0.56689 0.0
C526 C 0.49885 0.24463 0.56434 0.0
C527 C 0.49334 0.25431 0.55595 0.0
C528 C 0.39481 0.13753 0.52189 0.0
C529 C 0.49396 0.18532 0.51532 0.0
C530 C 0.40857 0.16746 0.48939 0.0
Eu531 Eu 0.43296 0.19585 0.50485 0.0
C532 C 0.39388 0.1694 0.48069 0.0
C533 C 0.41254 0.20062 0.47526 0.0
C534 C 0.40178 0.1993 0.46652 0.0
C535 C 0.37227 0.16665 0.46298 0.0
C536 C 0.35273 0.13605 0.46856 0.0
C537 C 0.36344 0.13743 0.47727 0.0
C538 C 0.49025 0.26326 0.50951 0.0
C539 C 0.39068 0.23576 0.5143 0.0
O540 O 0.48766 0.24115 0.53488 0.0
O541 O 0.43058 0.22362 0.53853 0.0
O542 O 0.40179 0.15145 0.52966 0.0
O543 O 0.41303 0.164 0.51679 0.0
O544 O 0.4914 0.20476 0.52183 0.0
O545 O 0.46971 0.17248 0.50882 0.0
O546 O 0.38707 0.15835 0.49626 0.0
O547 O 0.44319 0.19137 0.49115 0.0
O548 O 0.48903 0.24576 0.50239 0.0
O549 O 0.45929 0.24618 0.51337 0.0
O550 O 0.39435 0.21941 0.50721 0.0
O551 O 0.40824 0.23812 0.52171 0.0
H552 H 0.43807 0.16791 0.54772 0.0
H553 H 0.44736 0.15072 0.56242 0.0
H554 H 0.51629 0.2666 0.5688 0.0
H555 H 0.5062 0.28335 0.55422 0.0
H556 H 0.43633 0.22564 0.47766 0.0
H557 H 0.41769 0.22336 0.46245 0.0
H558 H 0.32946 0.11066 0.46615 0.0
H559 H 0.34871 0.11286 0.48127 0.0
C560 C 0.79066 0.22843 0.54168 0.0
Eu561 Eu 0.80751 0.22798 0.52521 0.0
C562 C 0.80289 0.24965 0.54998 0.0
C563 C 0.83995 0.26756 0.55279 0.0
C564 C 0.84987 0.28506 0.56098 0.0
C565 C 0.82298 0.28509 0.56656 0.0
C566 C 0.78601 0.26744 0.56363 0.0
C567 C 0.77618 0.25004 0.55547 0.0
C568 C 0.87829 0.24906 0.51991 0.0
C569 C 0.82461 0.30495 0.51585 0.0
C570 C 0.84394 0.24016 0.48976 0.0
Eu571 Eu 0.81869 0.23535 0.50565 0.0
C572 C 0.84203 0.22419 0.48093 0.0
C573 C 0.81339 0.21732 0.47503 0.0
C574 C 0.81545 0.20872 0.46627 0.0
C575 C 0.8463 0.20696 0.46311 0.0
C576 C 0.87418 0.21243 0.46912 0.0
C577 C 0.87211 0.22101 0.47787 0.0
C578 C 0.74987 0.21968 0.51063 0.0
C579 C 0.78344 0.15268 0.51464 0.0
O580 O 0.77941 0.24165 0.53541 0.0
O581 O 0.80932 0.21311 0.53877 0.0
O582 O 0.8615 0.22743 0.52642 0.0
O583 O 0.85773 0.26027 0.51673 0.0
O584 O 0.80932 0.28215 0.52248 0.0
O585 O 0.83724 0.29531 0.50901 0.0
O586 O 0.85594 0.22949 0.49643 0.0
O587 O 0.8187 0.24856 0.49193 0.0
O588 O 0.76621 0.23759 0.5036 0.0
O589 O 0.76826 0.20639 0.51408 0.0
O590 O 0.80213 0.17427 0.50795 0.0
O591 O 0.77756 0.16702 0.52173 0.0
H592 H 0.8612 0.26773 0.54869 0.0
H593 H 0.87868 0.2987 0.56291 0.0
H594 H 0.76431 0.2662 0.56774 0.0
H595 H 0.74736 0.23616 0.55351 0.0
H596 H 0.78998 0.21996 0.4771 0.0
H597 H 0.79354 0.20506 0.46188 0.0
H598 H 0.89808 0.21072 0.46702 0.0
H599 H 0.89484 0.22653 0.48219 0.0
C600 C 0.90229 0.45136 0.6529 0.0
Eu601 Eu 0.92009 0.45225 0.66936 0.0
C602 C 0.89304 0.43016 0.6446 0.0
C603 C 0.91278 0.41306 0.64161 0.0
C604 C 0.90558 0.39643 0.63332 0.0
C605 C 0.87865 0.39668 0.6278 0.0
C606 C 0.85838 0.41303 0.63095 0.0
C607 C 0.86551 0.4295 0.63921 0.0
C608 C 0.972 0.43392 0.67454 0.0
C609 C 0.86418 0.37333 0.6786 0.0
C610 C 0.94609 0.44119 0.70458 0.0
Eu611 Eu 0.92486 0.44501 0.68871 0.0
C612 C 0.96024 0.45773 0.71334 0.0
C613 C 0.93865 0.46522 0.71915 0.0
C614 C 0.9493 0.47422 0.7279 0.0
C615 C 0.98172 0.47577 0.73111 0.0
C616 C 1.00403 0.46978 0.72518 0.0
C617 C 0.99337 0.4608 0.71644 0.0
C618 C 0.86895 0.45712 0.6841 0.0
C619 C 0.96973 0.52805 0.67986 0.0
O620 O 0.87801 0.43854 0.65922 0.0
O621 O 0.93629 0.46643 0.65576 0.0
O622 O 0.97643 0.45614 0.6682 0.0
O623 O 0.93999 0.4213 0.67764 0.0
O624 O 0.87006 0.39561 0.67193 0.0
O625 O 0.88652 0.38463 0.68543 0.0
O626 O 0.96853 0.45182 0.69787 0.0
O627 O 0.91227 0.43227 0.70246 0.0
O628 O 0.86831 0.43758 0.69073 0.0
O629 O 0.90063 0.47249 0.68053 0.0
O630 O 0.96676 0.50674 0.6866 0.0
O631 O 0.95048 0.51343 0.67266 0.0
H632 H 0.93428 0.41322 0.6456 0.0
H633 H 0.92193 0.38436 0.63114 0.0
H634 H 0.83697 0.41324 0.627 0.0
H635 H 0.84991 0.4425 0.64133 0.0
H636 H 0.91271 0.46271 0.71703 0.0
H637 H 0.93115 0.47829 0.73223 0.0
H638 H 0.02951 0.47135 0.72732 0.0
H639 H 1.01044 0.45482 0.71218 0.0
C640 C 0.57481 0.4591 0.65296 0.0
Eu641 Eu 0.57235 0.47478 0.66944 0.0
C642 C 0.59658 0.47311 0.64472 0.0
C643 C 0.58824 0.49318 0.63864 0.0
C644 C 0.60558 0.5026 0.63045 0.0
C645 C 0.63159 0.49199 0.62806 0.0
C646 C 0.64046 0.47257 0.63423 0.0
C647 C 0.62316 0.46318 0.64242 0.0
C648 C 0.59086 0.54526 0.67456 0.0
C649 C 0.65051 0.49699 0.6789 0.0
C650 C 0.58176 0.51139 0.70457 0.0
Eu651 Eu 0.57846 0.48652 0.68871 0.0
C652 C 0.56469 0.50972 0.71319 0.0
C653 C 0.54511 0.47647 0.71789 0.0
C654 C 0.53462 0.47676 0.72659 0.0
C655 C 0.54363 0.51031 0.73082 0.0
C656 C 0.56216 0.54333 0.72595 0.0
C657 C 0.57249 0.54299 0.71727 0.0
C658 C 0.56691 0.41858 0.68415 0.0
C659 C 0.49601 0.44776 0.67968 0.0
O660 O 0.58862 0.44876 0.6593 0.0
O661 O 0.55702 0.47539 0.65584 0.0
O662 O 0.56851 0.52734 0.66825 0.0
O663 O 0.60318 0.52568 0.67772 0.0
O664 O 0.62845 0.48055 0.6722 0.0
O665 O 0.639 0.50818 0.68566 0.0
O666 O 0.57297 0.5245 0.69778 0.0
O667 O 0.58873 0.48501 0.70255 0.0
O668 O 0.58616 0.43749 0.69081 0.0
O669 O 0.55158 0.43483 0.68053 0.0
O670 O 0.51704 0.46772 0.6863 0.0
O671 O 0.51123 0.44216 0.67271 0.0
H672 H 0.56749 0.50078 0.6401 0.0
H673 H 0.59755 0.51711 0.62588 0.0
H674 H 0.66067 0.46431 0.63271 0.0
H675 H 0.63005 0.44738 0.64687 0.0
H676 H 0.5388 0.45035 0.71494 0.0
H677 H 0.51985 0.45066 0.73002 0.0
H678 H 0.57018 0.56981 0.72894 0.0
H679 H 0.58804 0.56908 0.71385 0.0
C680 C 0.56429 0.12079 0.65294 0.0
Eu681 Eu 0.54881 0.10347 0.66946 0.0
C682 C 0.55201 0.13073 0.64476 0.0
C683 C 0.51602 0.10902 0.6414 0.0
C684 C 0.50652 0.11725 0.63324 0.0
C685 C 0.53274 0.14737 0.62823 0.0
C686 C 0.5685 0.16935 0.63173 0.0
C687 C 0.57795 0.1611 0.63986 0.0
C688 C 0.47888 0.05201 0.67496 0.0
C689 C 0.52689 0.16009 0.67881 0.0
C690 C 0.51404 0.07836 0.70471 0.0
Eu691 Eu 0.53832 0.09948 0.6888 0.0
C692 C 0.51646 0.06359 0.71338 0.0
C693 C 0.54506 0.08517 0.71929 0.0
C694 C 0.54327 0.07386 0.72798 0.0
C695 C 0.51274 0.04078 0.73102 0.0
C696 C 0.48499 0.0185 0.72498 0.0
C697 C 0.48679 0.02981 0.7163 0.0
C698 C 0.60588 0.15532 0.68395 0.0
C699 C 0.57611 0.05443 0.67983 0.0
O700 O 0.57714 0.14513 0.65924 0.0
O701 O 0.5449 0.08687 0.65583 0.0
O702 O 0.49621 0.04696 0.6686 0.0
O703 O 0.49863 0.08421 0.67792 0.0
O704 O 0.54256 0.15376 0.67205 0.0
O705 O 0.51643 0.13807 0.68568 0.0
O706 O 0.50134 0.0561 0.69797 0.0
O707 O 0.53943 0.11202 0.70259 0.0
O708 O 0.58734 0.15617 0.69064 0.0
O709 O 0.58945 0.12349 0.68044 0.0
O710 O 0.55833 0.05771 0.68665 0.0
O711 O 0.57986 0.07314 0.67258 0.0
H712 H 0.49535 0.08537 0.645 0.0
H713 H 0.47857 0.09995 0.63086 0.0
H714 H 0.5897 0.1924 0.62806 0.0
H715 H 0.606 0.17806 0.64223 0.0
H716 H 0.56816 0.11159 0.71731 0.0
H717 H 0.56505 0.09199 0.73241 0.0
H718 H 0.46136 0.99254 0.72701 0.0
H719 H 0.46411 0.01273 0.71196 0.0
C720 C 0.57564 0.07296 0.20471 0.0
Eu721 Eu 0.5733 0.09484 0.18884 0.0
C722 C 0.55881 0.05879 0.21342 0.0
C723 C 0.54526 0.07731 0.21859 0.0
C724 C 0.53569 0.06733 0.22735 0.0
C725 C 0.53959 0.03871 0.23119 0.0
C726 C 0.55183 0.01937 0.22588 0.0
C727 C 0.56131 0.02931 0.21713 0.0
C728 C 0.55974 0.14965 0.18387 0.0
C729 C 0.49279 0.04982 0.1792 0.0
C730 C 0.5732 0.11919 0.15278 0.0
Eu731 Eu 0.57001 0.10105 0.16929 0.0
C732 C 0.5943 0.12591 0.14447 0.0
C733 C 0.59011 0.09638 0.1392 0.0
C734 C 0.60649 0.10296 0.13091 0.0
C735 C 0.62746 0.13925 0.12761 0.0
C736 C 0.63227 0.16878 0.13297 0.0
C737 C 0.61584 0.16219 0.14125 0.0
C738 C 0.58852 0.0495 0.17478 0.0
C739 C 0.64595 0.15785 0.17943 0.0
O740 O 0.56517 0.05062 0.19798 0.0
O741 O 0.58482 0.10689 0.20263 0.0
O742 O 0.57579 0.14955 0.19109 0.0
O743 O 0.54691 0.11855 0.18015 0.0
O744 O 0.5131 0.05055 0.18593 0.0
O745 O 0.50852 0.07176 0.17241 0.0
O746 O 0.58814 0.1434 0.15908 0.0
O747 O 0.55428 0.08525 0.15571 0.0
O748 O 0.56811 0.04571 0.16808 0.0
O749 O 0.59977 0.08114 0.17803 0.0
O750 O 0.62518 0.15183 0.17246 0.0
O751 O 0.63376 0.13526 0.1862 0.0
H752 H 0.54315 0.10029 0.21596 0.0
H753 H 0.52578 0.08251 0.23115 0.0
H754 H 0.55573 0.99753 0.22856 0.0
H755 H 0.57221 0.01492 0.21336 0.0
H756 H 0.57348 0.06801 0.14139 0.0
H757 H 0.60251 0.07947 0.12706 0.0
H758 H 0.64771 0.19708 0.13067 0.0
H759 H 0.61915 0.18557 0.14505 0.0
C760 C 0.94463 0.50951 0.20461 0.0
Eu761 Eu 0.92189 0.48334 0.1889 0.0
C762 C 0.95955 0.50786 0.2133 0.0
C763 C 0.94442 0.47502 0.21821 0.0
C764 C 0.95493 0.47566 0.22695 0.0
C765 C 0.98069 0.50916 0.231 0.0
C766 C 0.99663 0.5417 0.22593 0.0
C767 C 0.9862 0.541 0.21721 0.0
C768 C 0.86707 0.41473 0.18431 0.0
C769 C 0.96619 0.44614 0.17948 0.0
C770 C 0.89575 0.45483 0.15298 0.0
Eu771 Eu 0.91485 0.47148 0.16937 0.0
C772 C 0.88808 0.46868 0.1447 0.0
C773 C 0.91656 0.48902 0.13867 0.0
C774 C 0.90869 0.4983 0.13046 0.0
C775 C 0.87205 0.4873 0.12801 0.0
C776 C 0.84368 0.46762 0.13413 0.0
C777 C 0.85156 0.45836 0.14234 0.0
C778 C 0.96641 0.54203 0.17446 0.0
C779 C 0.85805 0.49136 0.17926 0.0
O780 O 0.96648 0.5208 0.19779 0.0
O781 O 0.9107 0.4842 0.2027 0.0
O782 O 0.86732 0.43148 0.19144 0.0
O783 O 0.898 0.43251 0.18051 0.0
O784 O 0.96567 0.4663 0.18613 0.0
O785 O 0.94422 0.4396 0.17268 0.0
O786 O 0.87197 0.44555 0.15937 0.0
O787 O 0.92993 0.47057 0.15577 0.0
O788 O 0.96998 0.52481 0.16785 0.0
O789 O 0.93495 0.52201 0.1778 0.0
O790 O 0.86395 0.47566 0.17246 0.0
O791 O 0.88101 0.50287 0.18599 0.0
H792 H 0.92367 0.44902 0.2154 0.0
H793 H 0.94246 0.44988 0.23055 0.0
H794 H 0.01609 0.56816 0.22878 0.0
H795 H 0.99791 0.56682 0.21363 0.0
H796 H 0.94494 0.49695 0.14018 0.0
H797 H 0.93128 0.51303 0.12592 0.0
H798 H 0.8152 0.45907 0.13257 0.0
H799 H 0.82883 0.44234 0.14676 0.0
C800 C 0.50308 0.43767 0.20473 0.0
Eu801 Eu 0.53181 0.44135 0.18934 0.0
C802 C 0.50607 0.45437 0.21348 0.0
C803 C 0.53576 0.4625 0.21913 0.0
C804 C 0.53473 0.47194 0.22787 0.0
C805 C 0.50393 0.47332 0.2312 0.0
C806 C 0.47507 0.46678 0.2254 0.0
C807 C 0.47612 0.45736 0.21668 0.0
C808 C 0.5993 0.45159 0.18489 0.0
C809 C 0.57167 0.52384 0.17997 0.0
C810 C 0.57367 0.45121 0.15312 0.0
Eu811 Eu 0.5478 0.44766 0.16881 0.0
C812 C 0.56164 0.43296 0.14444 0.0
C813 C 0.53186 0.43185 0.13986 0.0
C814 C 0.52253 0.4164 0.13147 0.0
C815 C 0.54269 0.40162 0.12742 0.0
C816 C 0.5721 0.40229 0.1321 0.0
C817 C 0.58146 0.41781 0.14047 0.0
C818 C 0.47331 0.42063 0.17228 0.0
C819 C 0.52222 0.3701 0.17896 0.0
O820 O 0.49562 0.45174 0.19791 0.0
O821 O 0.52527 0.42484 0.20294 0.0
O822 O 0.58154 0.43529 0.19196 0.0
O823 O 0.5825 0.46559 0.18092 0.0
O824 O 0.55621 0.50365 0.18709 0.0
O825 O 0.57322 0.50866 0.17247 0.0
O826 O 0.57705 0.43187 0.15944 0.0
O827 O 0.55995 0.47182 0.1558 0.0
O828 O 0.48749 0.42758 0.16454 0.0
O829 O 0.49967 0.42936 0.17744 0.0
O830 O 0.54156 0.39222 0.17247 0.0
O831 O 0.50892 0.38129 0.18541 0.0
H832 H 0.55917 0.46018 0.21691 0.0
H833 H 0.55738 0.47651 0.23212 0.0
H834 H 0.45121 0.46823 0.22765 0.0
H835 H 0.45273 0.451 0.2125 0.0
H836 H 0.51601 0.44335 0.1427 0.0
H837 H 0.5 0.41686 0.12808 0.0
H838 H 0.58794 0.39067 0.12932 0.0
H839 H 0.60455 0.41827 0.14383 0.0
C840 C 0.41023 0.24282 0.98946 0.0
Eu841 Eu 0.4337 0.24044 1.00518 0.0
C842 C 0.39655 0.22563 0.98072 0.0
C843 C 0.42084 0.22475 0.97447 0.0
C844 C 0.40957 0.21488 0.9658 0.0
C845 C 0.3737 0.20572 0.96307 0.0
C846 C 0.349 0.20523 0.96942 0.0
C847 C 0.36032 0.21518 0.9781 0.0
C848 C 0.48996 0.22801 1.00927 0.0
C849 C 0.391 0.15869 0.01454 0.0
C850 C 0.46197 0.23825 0.04084 0.0
Eu851 Eu 0.44186 0.23527 0.02452 0.0
C852 C 0.46931 0.25962 0.04913 0.0
C853 C 0.44024 0.25639 0.05442 0.0
C854 C 0.44749 0.27346 0.06264 0.0
C855 C 0.48398 0.29417 0.06582 0.0
C856 C 0.51303 0.29796 0.06044 0.0
C857 C 0.50578 0.28084 0.05223 0.0
C858 C 0.38923 0.25347 0.01974 0.0
C859 C 0.49685 0.31253 0.01474 0.0
O860 O 0.38828 0.23053 0.99625 0.0
O861 O 0.44478 0.25441 0.99145 0.0
O862 O 0.4892 0.24606 1.00248 0.0
O863 O 0.45919 0.21375 1.01322 0.0
O864 O 0.39077 0.17936 1.00798 0.0
O865 O 0.41339 0.17418 0.02125 0.0
O866 O 0.48538 0.25348 0.03442 0.0
O867 O 0.42777 0.21884 0.03812 0.0
O868 O 0.38619 0.23254 0.02627 0.0
O869 O 0.4206 0.26541 0.01634 0.0
O870 O 0.49215 0.29054 0.02138 0.0
O871 O 0.47306 0.30113 1.00818 0.0
H872 H 0.44915 0.23312 0.97619 0.0
H873 H 0.42965 0.21608 0.96114 0.0
H874 H 0.32096 0.19774 0.96766 0.0
H875 H 0.34103 0.21599 0.98269 0.0
H876 H 0.41175 0.24008 0.05229 0.0
H877 H 0.42438 0.27026 0.06651 0.0
H878 H 0.54144 0.31319 0.06267 0.0
H879 H 0.52878 0.28344 0.0484 0.0
C880 C 0.77665 0.17261 0.98869 0.0
Eu881 Eu 0.78042 0.19797 1.00452 0.0
C882 C 0.79335 0.17396 0.98003 0.0
C883 C 0.81227 0.20693 0.9752 0.0
C884 C 0.82237 0.20623 0.96649 0.0
C885 C 0.81363 0.17254 0.96237 0.0
C886 C 0.79578 0.13982 0.96736 0.0
C887 C 0.78583 0.14057 0.97605 0.0
C888 C 0.79335 0.26643 1.00905 0.0
C889 C 0.86274 0.23524 1.01357 0.0
C890 C 0.78482 0.22562 0.04034 0.0
Eu891 Eu 0.7867 0.20974 0.02384 0.0
C892 C 0.76362 0.21207 0.04866 0.0
C893 C 0.76229 0.18242 0.05337 0.0
C894 C 0.74597 0.17299 0.06168 0.0
C895 C 0.73068 0.19305 0.06555 0.0
C896 C 0.73127 0.22209 0.06071 0.0
C897 C 0.74757 0.23149 0.05242 0.0
C898 C 0.76795 0.13929 0.01866 0.0
C899 C 0.70879 0.18841 0.01436 0.0
O900 O 0.78573 0.15977 0.99548 0.0
O901 O 0.76966 0.199 0.99068 0.0
O902 O 0.77409 0.24777 1.00236 0.0
O903 O 0.80796 0.24962 1.01274 0.0
O904 O 0.84168 0.2162 1.00687 0.0
O905 O 0.8478 0.24091 0.02058 0.0
O906 O 0.77072 0.2359 0.03406 0.0
O907 O 0.80228 0.2091 0.0374 0.0
O908 O 0.79021 0.15702 0.025 0.0
O909 O 0.75563 0.15897 0.01556 0.0
O910 O 0.7309 0.20464 0.02106 0.0
O911 O 0.72006 0.17702 1.00759 0.0
H912 H 0.81835 0.23313 0.97806 0.0
H913 H 0.83663 0.23213 0.96295 0.0
H914 H 0.788 0.11323 0.96446 0.0
H915 H 0.77078 0.11467 0.97957 0.0
H916 H 0.77468 0.16702 0.05075 0.0
H917 H 0.74649 0.15073 0.06519 0.0
H918 H 0.71931 0.23785 0.06336 0.0
H919 H 0.74837 0.25465 0.04901 0.0
C920 C 0.85256 0.611 0.98934 0.0
Eu921 Eu 0.8239 0.58586 1.00472 0.0
C922 C 0.84852 0.62371 0.98054 0.0
C923 C 0.82188 0.59935 0.97455 0.0
C924 C 0.82263 0.60983 0.96583 0.0
C925 C 0.85014 0.64487 0.96284 0.0
C926 C 0.87574 0.66972 0.96895 0.0
C927 C 0.87499 0.65923 0.97766 0.0
C928 C 0.75623 0.52888 1.00913 0.0
C929 C 0.78415 0.62873 0.01405 0.0
C930 C 0.78098 0.55369 0.04087 0.0
Eu931 Eu 0.80748 0.57622 0.02525 0.0
C932 C 0.79291 0.54737 0.04953 0.0
C933 C 0.82606 0.57401 0.05349 0.0
C934 C 0.83575 0.56792 0.06185 0.0
C935 C 0.81265 0.53498 0.06644 0.0
C936 C 0.77972 0.50824 0.06238 0.0
C937 C 0.77 0.51441 0.05406 0.0
C938 C 0.88187 0.62377 0.02184 0.0
C939 C 0.83383 0.52474 0.01522 0.0
O940 O 0.85884 0.63261 0.9961 0.0
O941 O 0.8319 0.57584 0.99122 0.0
O942 O 0.77408 0.53013 1.00208 0.0
O943 O 0.7731 0.55967 1.01309 0.0
O944 O 0.79909 0.62346 1.0069 0.0
O945 O 0.78295 0.61243 0.02159 0.0
O946 O 0.77779 0.53106 0.03455 0.0
O947 O 0.79498 0.58808 0.03823 0.0
O948 O 0.86767 0.6164 0.02958 0.0
O949 O 0.85566 0.60606 0.01666 0.0
O950 O 0.81366 0.52708 0.02157 0.0
O951 O 0.84762 0.54957 1.00885 0.0
H952 H 0.80126 0.57161 0.97651 0.0
H953 H 0.80263 0.58976 0.96135 0.0
H954 H 0.89693 0.69717 0.96696 0.0
H955 H 0.89607 0.67852 0.98208 0.0
H956 H 0.84445 0.59965 0.05016 0.0
H957 H 0.86154 0.58895 0.06468 0.0
H958 H 0.76094 0.48276 0.06572 0.0
H959 H 0.74422 0.49349 0.05118 0.0
C960 C 0.45039 0.89665 0.87378 0.0
Eu961 Eu 0.45243 0.91419 0.85726 0.0
C962 C 0.42982 0.89072 0.88215 0.0
C963 C 0.43909 0.92034 0.88793 0.0
C964 C 0.42293 0.91413 0.89623 0.0
C965 C 0.39716 0.87809 0.89904 0.0
C966 C 0.38734 0.84856 0.89319 0.0
C967 C 0.40353 0.85477 0.88488 0.0
C968 C 0.43397 0.96615 0.85211 0.0
C969 C 0.37434 0.85796 0.84787 0.0
C970 C 0.44308 0.94138 0.82217 0.0
Eu971 Eu 0.44612 0.91953 0.83801 0.0
C972 C 0.46055 0.95622 0.81353 0.0
C973 C 0.46833 0.93491 0.8077 0.0
C974 C 0.47823 0.94628 0.79902 0.0
C975 C 0.48041 0.97915 0.79593 0.0
C976 C 0.47419 1.00118 0.80189 0.0
C977 C 0.4643 0.9898 0.81055 0.0
C978 C 0.458 0.86331 0.84252 0.0
C979 C 0.52865 0.96364 0.84701 0.0
O980 O 0.4348 0.87226 0.86755 0.0
O981 O 0.4695 0.9304 0.87076 0.0
O982 O 0.45616 0.97054 0.85845 0.0
O983 O 0.42156 0.93421 0.84898 0.0
O984 O 0.39661 0.86351 0.85451 0.0
O985 O 0.38562 0.8808 0.84113 0.0
O986 O 0.45294 0.96343 0.82895 0.0
O987 O 0.43433 0.90751 0.82422 0.0
O988 O 0.4387 0.86302 0.83587 0.0
O989 O 0.47326 0.89482 0.84618 0.0
O990 O 0.50764 0.96193 0.84032 0.0
O991 O 0.51351 0.94314 0.85402 0.0
H992 H 0.4595 0.94837 0.88612 0.0
H993 H 0.43088 0.9377 0.90047 0.0
H994 H 0.36803 0.82036 0.89512 0.0
H995 H 0.39616 0.83118 0.88069 0.0
H996 H 0.46534 0.90865 0.80972 0.0
H997 H 0.48246 0.92836 0.79465 0.0
H998 H 0.47622 0.02698 0.79983 0.0
H999 H 0.45814 1.00667 0.81484 0.0
C1000 C 0.12627 0.56248 0.87418 0.0
Eu1001 Eu 0.10659 0.54434 0.85786 0.0
C1002 C 0.13477 0.55034 0.88255 0.0
C1003 C 0.11508 0.51339 0.88544 0.0
C1004 C 0.12213 0.50362 0.89371 0.0
C1005 C 0.14903 0.53055 0.89929 0.0
C1006 C 0.16889 0.56739 0.89628 0.0
C1007 C 0.16186 0.57707 0.88804 0.0
C1008 C 0.05426 0.47359 0.85302 0.0
C1009 C 0.16168 0.5216 0.84816 0.0
C1010 C 0.07638 0.5057 0.82272 0.0
Eu1011 Eu 0.09922 0.53139 0.83847 0.0
C1012 C 0.06209 0.50821 0.81399 0.0
C1013 C 0.08369 0.5372 0.80817 0.0
C1014 C 0.07285 0.53559 0.79943 0.0
C1015 C 0.04022 0.50486 0.79626 0.0
C1016 C 0.01791 0.47669 0.80221 0.0
C1017 C 0.02875 0.47832 0.81093 0.0
C1018 C 0.15546 0.59977 0.84277 0.0
C1019 C 0.0559 0.57027 0.84767 0.0
O1020 O 0.14992 0.57143 0.86778 0.0
O1021 O 0.09196 0.54528 0.87148 0.0
O1022 O 0.0511 0.49127 0.85958 0.0
O1023 O 0.08562 0.49315 0.84961 0.0
O1024 O 0.15667 0.53848 0.85486 0.0
O1025 O 0.1383 0.50982 0.84152 0.0
O1026 O 0.05437 0.49495 0.82951 0.0
O1027 O 0.11061 0.52988 0.82471 0.0
O1028 O 0.15518 0.58096 0.83602 0.0
O1029 O 0.12433 0.5833 0.84657 0.0
O1030 O 0.05676 0.55026 0.84103 0.0
O1031 O 0.07714 0.57616 0.85458 0.0
H1032 H 0.09398 0.49215 0.88135 0.0
H1033 H 0.10656 0.4749 0.8957 0.0
H1034 H 0.18935 0.58913 0.90037 0.0
H1035 H 0.17719 0.6058 0.88602 0.0
H1036 H 0.10977 0.56051 0.81025 0.0
H1037 H 0.09101 0.5577 0.79508 0.0
H1038 H 0.99227 0.45289 0.80009 0.0
H1039 H 0.01167 0.45537 0.81521 0.0
C1040 C 0.4589 0.56962 0.8737 0.0
Eu1041 Eu 0.47575 0.56717 0.85732 0.0
C1042 C 0.47302 0.59009 0.88208 0.0
C1043 C 0.49899 0.58637 0.8872 0.0
C1044 C 0.5087 0.60233 0.89553 0.0
C1045 C 0.49259 0.62231 0.89901 0.0
C1046 C 0.46728 0.62671 0.89377 0.0
C1047 C 0.45758 0.61075 0.88545 0.0
C1048 C 0.54651 0.58571 0.85245 0.0
C1049 C 0.4977 0.64461 0.84762 0.0
C1050 C 0.51334 0.57513 0.82223 0.0
Eu1051 Eu 0.48794 0.57226 0.83801 0.0
C1052 C 0.5117 0.55828 0.81359 0.0
C1053 C 0.47874 0.5399 0.80873 0.0
C1054 C 0.47928 0.52976 0.80002 0.0
C1055 C 0.51282 0.53793 0.79592 0.0
C1056 C 0.5455 0.55521 0.80093 0.0
C1057 C 0.54489 0.5652 0.80962 0.0
C1058 C 0.41974 0.56051 0.8424 0.0
C1059 C 0.44938 0.49036 0.84729 0.0
O1060 O 0.45133 0.5858 0.86737 0.0
O1061 O 0.47307 0.54981 0.87085 0.0
O1062 O 0.5289 0.56489 0.859 0.0
O1063 O 0.52681 0.59737 0.84903 0.0
O1064 O 0.48085 0.62272 0.85431 0.0
O1065 O 0.50937 0.63296 0.84097 0.0
O1066 O 0.52538 0.56537 0.82905 0.0
O1067 O 0.48764 0.58318 0.82417 0.0
O1068 O 0.43854 0.57916 0.83566 0.0
O1069 O 0.43618 0.5457 0.84616 0.0
O1070 O 0.46933 0.51102 0.84063 0.0
O1071 O 0.44351 0.50594 0.85415 0.0
H1072 H 0.51118 0.57031 0.88488 0.0
H1073 H 0.52794 0.5979 0.89937 0.0
H1074 H 0.45469 0.64235 0.89612 0.0
H1075 H 0.43726 0.6139 0.88172 0.0
H1076 H 0.45269 0.53431 0.81159 0.0
H1077 H 0.45341 0.51594 0.79647 0.0
H1078 H 0.57198 0.56256 0.79804 0.0
H1079 H 0.57079 0.57982 0.81316 0.0
C1080 C 0.5691 0.77973 0.98607 0.0
Eu1081 Eu 0.586 0.78175 1.00262 0.0
C1082 C 0.56126 0.7581 0.97783 0.0
C1083 C 0.58967 0.75736 0.97303 0.0
C1084 C 0.58257 0.74064 0.96478 0.0
C1085 C 0.54692 0.72426 0.96107 0.0
C1086 C 0.51839 0.72429 0.96598 0.0
C1087 C 0.5255 0.74107 0.97421 0.0
C1088 C 0.63682 0.7628 1.00826 0.0
C1089 C 0.52814 0.70428 1.01223 0.0
C1090 C 0.60962 0.77288 0.03811 0.0
Eu1091 Eu 0.58956 0.77628 0.02211 0.0
C1092 C 0.62592 0.78975 0.0467 0.0
C1093 C 0.61245 0.80882 0.05168 0.0
C1094 C 0.62412 0.81902 0.06034 0.0
C1095 C 0.64939 0.81022 0.06426 0.0
C1096 C 0.66369 0.79225 0.05912 0.0
C1097 C 0.65211 0.78218 0.05048 0.0
C1098 C 0.53492 0.78898 0.01665 0.0
C1099 C 0.63609 0.85815 1.0129 0.0
O1100 O 0.54444 0.76635 0.99231 0.0
O1101 O 0.60296 0.79657 0.98908 0.0
O1102 O 0.64174 0.78454 1.00177 0.0
O1103 O 0.60477 0.75093 1.01131 0.0
O1104 O 0.53509 0.72586 1.00536 0.0
O1105 O 0.54983 0.71594 0.01917 0.0
O1106 O 0.63126 0.77917 0.03137 0.0
O1107 O 0.57731 0.76854 0.03599 0.0
O1108 O 0.53299 0.77051 0.02362 0.0
O1109 O 0.56707 0.80361 1.01343 0.0
O1110 O 0.63325 0.83729 0.01972 0.0
O1111 O 0.61618 0.84301 1.0058 0.0
H1112 H 0.61763 0.77038 0.97556 0.0
H1113 H 0.60518 0.74077 0.96127 0.0
H1114 H 0.49069 0.71247 0.96333 0.0
H1115 H 0.50312 0.74163 0.97766 0.0
H1116 H 0.59209 0.81494 0.04898 0.0
H1117 H 0.61289 0.83337 0.064 0.0
H1118 H 0.68272 0.78442 0.06187 0.0
H1119 H 0.66254 0.76701 0.04685 0.0
C1120 C 0.23864 0.79181 0.98611 0.0
Eu1121 Eu 0.237 0.80712 1.00266 0.0
C1122 C 0.25947 0.80623 0.97777 0.0
C1123 C 0.25189 0.8283 0.97214 0.0
C1124 C 0.26818 0.83814 0.96385 0.0
C1125 C 0.29241 0.82607 0.9609 0.0
C1126 C 0.30058 0.80465 0.96661 0.0
C1127 C 0.28424 0.79477 0.97491 0.0
C1128 C 0.2563 0.87719 1.00818 0.0
C1129 C 0.31462 0.82626 1.01214 0.0
C1130 C 0.24694 0.84064 0.03819 0.0
Eu1131 Eu 0.24355 0.81678 0.02222 0.0
C1132 C 0.22981 0.83647 0.04695 0.0
C1133 C 0.22502 0.80805 0.05268 0.0
C1134 C 0.21528 0.80829 0.06143 0.0
C1135 C 0.2101 0.83698 0.0647 0.0
C1136 C 0.21341 0.86454 0.05886 0.0
C1137 C 0.22328 0.86436 0.05012 0.0
C1138 C 0.22974 0.74887 0.01691 0.0
C1139 C 0.16098 0.78052 1.01325 0.0
O1140 O 0.25357 0.78209 0.99232 0.0
O1141 O 0.22034 0.80728 0.98917 0.0
O1142 O 0.23527 0.86053 1.00158 0.0
O1143 O 0.26797 0.85694 1.01132 0.0
O1144 O 0.29252 0.81128 1.00536 0.0
O1145 O 0.30368 0.83711 0.01906 0.0
O1146 O 0.23537 0.85209 0.03158 0.0
O1147 O 0.25734 0.81698 0.03589 0.0
O1148 O 0.24731 0.76498 0.024 0.0
O1149 O 0.21583 0.76689 1.01358 0.0
O1150 O 0.18217 0.79802 0.02007 0.0
O1151 O 0.17569 0.7765 1.00598 0.0
H1152 H 0.23268 0.83737 0.97405 0.0
H1153 H 0.26155 0.85509 0.95972 0.0
H1154 H 0.31866 0.79437 0.96458 0.0
H1155 H 0.29027 0.77723 0.97899 0.0
H1156 H 0.23003 0.78621 0.05051 0.0
H1157 H 0.21242 0.78625 0.06567 0.0
H1158 H 0.21005 0.8873 0.06112 0.0
H1159 H 0.22734 0.88699 0.04592 0.0
C1160 C 0.2318 0.45456 0.98641 0.0
Eu1161 Eu 0.21425 0.43599 1.00281 0.0
C1162 C 0.22006 0.46316 0.97799 0.0
C1163 C 0.1834 0.44305 0.97493 0.0
C1164 C 0.17423 0.44978 0.96656 0.0
C1165 C 0.20154 0.47659 0.96104 0.0
C1166 C 0.23796 0.4972 0.96426 0.0
C1167 C 0.24702 0.49056 0.97261 0.0
C1168 C 0.14377 0.38381 1.00777 0.0
C1169 C 0.19156 0.49141 1.01239 0.0
C1170 C 0.17627 0.40717 0.03795 0.0
Eu1171 Eu 0.20158 0.42931 0.02214 0.0
C1172 C 0.17827 0.39217 0.04663 0.0
C1173 C 0.20744 0.41299 0.05247 0.0
C1174 C 0.20548 0.40174 0.06118 0.0
C1175 C 0.17422 0.36947 0.0643 0.0
C1176 C 0.14584 0.34788 0.05833 0.0
C1177 C 0.14781 0.35914 0.04963 0.0
C1178 C 0.26981 0.4856 0.01774 0.0
C1179 C 0.24018 0.38575 1.01307 0.0
O1180 O 0.2416 0.47866 0.99274 0.0
O1181 O 0.21396 0.42039 0.98922 0.0
O1182 O 0.16184 0.37965 1.00144 0.0
O1183 O 0.16315 0.41555 1.01101 0.0
O1184 O 0.20777 0.48586 1.00563 0.0
O1185 O 0.18044 0.46867 0.01914 0.0
O1186 O 0.1641 0.38526 0.03114 0.0
O1187 O 0.20167 0.44094 0.03595 0.0
O1188 O 0.25101 0.48557 0.02446 0.0
O1189 O 0.25345 0.45427 0.01403 0.0
O1190 O 0.21952 0.38607 0.01961 0.0
O1191 O 0.24679 0.40756 1.00624 0.0
H1192 H 0.16201 0.42164 0.97892 0.0
H1193 H 0.14596 0.43319 0.96432 0.0
H1194 H 0.25965 0.51853 0.96032 0.0
H1195 H 0.27548 0.50644 0.9748 0.0
H1196 H 0.23119 0.43883 0.05043 0.0
H1197 H 0.22778 0.41935 0.06555 0.0
H1198 H 0.12162 0.32253 0.06041 0.0
H1199 H 0.12471 0.34267 0.04534 0.0
C1200 C 0.24444 0.40575 0.53835 0.0
Eu1201 Eu 0.24125 0.42765 0.5225 0.0
C1202 C 0.22794 0.39264 0.54718 0.0
C1203 C 0.22893 0.41764 0.55349 0.0
C1204 C 0.21965 0.40671 0.56221 0.0
C1205 C 0.20923 0.37047 0.56491 0.0
C1206 C 0.20695 0.34512 0.55851 0.0
C1207 C 0.21631 0.35609 0.5498 0.0
C1208 C 0.22705 0.48211 0.51773 0.0
C1209 C 0.15969 0.38276 0.5131 0.0
C1210 C 0.23867 0.45284 0.48655 0.0
Eu1211 Eu 0.2361 0.43394 0.50297 0.0
C1212 C 0.25929 0.45919 0.4782 0.0
C1213 C 0.25707 0.42967 0.47326 0.0
C1214 C 0.27341 0.43593 0.46497 0.0
C1215 C 0.29236 0.47184 0.46137 0.0
C1216 C 0.29512 0.50137 0.46641 0.0
C1217 C 0.27874 0.4951 0.47468 0.0
C1218 C 0.25583 0.38284 0.50812 0.0
C1219 C 0.31216 0.49142 0.51284 0.0
O1220 O 0.23201 0.38317 0.53167 0.0
O1221 O 0.25561 0.44011 0.5362 0.0
O1222 O 0.24362 0.48237 0.52489 0.0
O1223 O 0.21396 0.45096 0.51406 0.0
O1224 O 0.18051 0.38346 0.51974 0.0
O1225 O 0.17496 0.40465 0.50628 0.0
O1226 O 0.25476 0.4767 0.49286 0.0
O1227 O 0.21889 0.41891 0.48943 0.0
O1228 O 0.23519 0.37917 0.50148 0.0
O1229 O 0.26692 0.41429 0.51145 0.0
O1230 O 0.28971 0.48608 0.50625 0.0
O1231 O 0.30174 0.46743 0.51934 0.0
H1232 H 0.23832 0.44621 0.55179 0.0
H1233 H 0.22226 0.42729 0.5669 0.0
H1234 H 0.19847 0.3168 0.56025 0.0
H1235 H 0.21569 0.33621 0.54515 0.0
H1236 H 0.24214 0.40158 0.47572 0.0
H1237 H 0.27105 0.41251 0.46136 0.0
H1238 H 0.30893 0.52932 0.46386 0.0
H1239 H 0.2805 0.51837 0.47824 0.0
C1240 C 0.60631 0.84269 0.53795 0.0
Eu1241 Eu 0.5904 0.81402 0.5223 0.0
C1242 C 0.61856 0.84069 0.54696 0.0
C1243 C 0.59845 0.80956 0.55233 0.0
C1244 C 0.60813 0.81036 0.56114 0.0
C1245 C 0.63811 0.84231 0.56481 0.0
C1246 C 0.65864 0.87304 0.55933 0.0
C1247 C 0.64896 0.87222 0.55055 0.0
C1248 C 0.54596 0.74207 0.51749 0.0
C1249 C 0.63309 0.77773 0.51243 0.0
C1250 C 0.55674 0.77524 0.48582 0.0
Eu1251 Eu 0.57909 0.80019 0.50161 0.0
C1252 C 0.55049 0.78789 0.47722 0.0
C1253 C 0.57957 0.81611 0.47237 0.0
C1254 C 0.57292 0.82628 0.46412 0.0
C1255 C 0.53702 0.80861 0.46051 0.0
C1256 C 0.50803 0.78056 0.46541 0.0
C1257 C 0.5147 0.77032 0.47363 0.0
C1258 C 0.62965 0.87355 0.50526 0.0
C1259 C 0.52684 0.8248 0.51198 0.0
O1260 O 0.63065 0.85339 0.53162 0.0
O1261 O 0.57301 0.81739 0.53549 0.0
O1262 O 0.56535 0.75246 0.52463 0.0
O1263 O 0.54867 0.77019 0.51364 0.0
O1264 O 0.63406 0.79861 0.51908 0.0
O1265 O 0.61128 0.77135 0.50556 0.0
O1266 O 0.53431 0.772 0.49216 0.0
O1267 O 0.59091 0.78827 0.4885 0.0
O1268 O 0.61938 0.86024 0.49749 0.0
O1269 O 0.61262 0.84696 0.51045 0.0
O1270 O 0.53358 0.81274 0.50461 0.0
O1271 O 0.5466 0.83 0.51918 0.0
H1272 H 0.57476 0.78483 0.5498 0.0
H1273 H 0.59193 0.78592 0.56508 0.0
H1274 H 0.68151 0.89837 0.56189 0.0
H1275 H 0.66465 0.89682 0.54662 0.0
H1276 H 0.60751 0.83028 0.47492 0.0
H1277 H 0.59591 0.84826 0.4606 0.0
H1278 H 0.48014 0.76586 0.46283 0.0
H1279 H 0.49178 0.74825 0.47715 0.0
C1280 C 0.17461 0.77047 0.53758 0.0
Eu1281 Eu 0.20089 0.77471 0.52186 0.0
C1282 C 0.17703 0.78678 0.54636 0.0
C1283 C 0.20055 0.78579 0.5528 0.0
C1284 C 0.19791 0.79464 0.56148 0.0
C1285 C 0.1716 0.80465 0.564 0.0
C1286 C 0.14908 0.80704 0.55748 0.0
C1287 C 0.15165 0.79806 0.54879 0.0
C1288 C 0.2692 0.78707 0.5175 0.0
C1289 C 0.23974 0.85786 0.51314 0.0
C1290 C 0.22956 0.78028 0.48618 0.0
Eu1291 Eu 0.21318 0.7818 0.50264 0.0
C1292 C 0.21599 0.75909 0.47787 0.0
C1293 C 0.18548 0.7566 0.47333 0.0
C1294 C 0.17586 0.74015 0.46504 0.0
C1295 C 0.19656 0.72589 0.46104 0.0
C1296 C 0.22647 0.72759 0.46571 0.0
C1297 C 0.23607 0.74403 0.47399 0.0
C1298 C 0.14241 0.76261 0.50769 0.0
C1299 C 0.19156 0.70343 0.51201 0.0
O1300 O 0.1641 0.78229 0.53084 0.0
O1301 O 0.19886 0.76053 0.53554 0.0
O1302 O 0.25019 0.76782 0.52415 0.0
O1303 O 0.25293 0.80221 0.51378 0.0
O1304 O 0.22114 0.83656 0.51984 0.0
O1305 O 0.24429 0.8431 0.50594 0.0
O1306 O 0.23956 0.76595 0.49246 0.0
O1307 O 0.21312 0.79784 0.4891 0.0
O1308 O 0.16033 0.78514 0.50141 0.0
O1309 O 0.1621 0.75032 0.51079 0.0
O1310 O 0.20779 0.72559 0.50531 0.0
O1311 O 0.1799 0.71453 0.51874 0.0
H1312 H 0.22003 0.77664 0.55122 0.0
H1313 H 0.21545 0.79196 0.56628 0.0
H1314 H 0.12891 0.81522 0.5591 0.0
H1315 H 0.13277 0.79866 0.54403 0.0
H1316 H 0.16953 0.76817 0.47607 0.0
H1317 H 0.1529 0.73976 0.46165 0.0
H1318 H 0.24274 0.71641 0.46296 0.0
H1319 H 0.25985 0.74571 0.47728 0.0
C1320 C 0.07662 0.5775 0.32238 0.0
Eu1321 Eu 0.09851 0.57348 0.33816 0.0
C1322 C 0.06099 0.56065 0.31376 0.0
C1323 C 0.07395 0.54045 0.30905 0.0
C1324 C 0.06309 0.53016 0.30035 0.0
C1325 C 0.03915 0.53998 0.29612 0.0
C1326 C 0.02533 0.55913 0.301 0.0
C1327 C 0.03611 0.56927 0.30968 0.0
C1328 C 0.15434 0.56076 0.34247 0.0
C1329 C 0.0548 0.49112 0.34714 0.0
C1330 C 0.12231 0.56856 0.37389 0.0
Eu1331 Eu 0.1047 0.56706 0.35741 0.0
C1332 C 0.12874 0.58923 0.38226 0.0
C1333 C 0.09906 0.5836 0.38766 0.0
C1334 C 0.10551 0.59989 0.39595 0.0
C1335 C 0.14181 0.62217 0.39912 0.0
C1336 C 0.17146 0.62833 0.39364 0.0
C1337 C 0.16501 0.612 0.38535 0.0
C1338 C 0.05297 0.58608 0.35239 0.0
C1339 C 0.16159 0.64476 0.34797 0.0
O1340 O 0.05494 0.56862 0.32921 0.0
O1341 O 0.10992 0.58419 0.32432 0.0
O1342 O 0.15451 0.57985 0.33579 0.0
O1343 O 0.12312 0.54604 0.34623 0.0
O1344 O 0.05501 0.51225 0.34064 0.0
O1345 O 0.07677 0.50622 0.35394 0.0
O1346 O 0.14668 0.58401 0.36766 0.0
O1347 O 0.08849 0.54984 0.3709 0.0
O1348 O 0.04838 0.5634 0.35864 0.0
O1349 O 0.08488 0.59843 0.34926 0.0
O1350 O 0.1557 0.62251 0.35463 0.0
O1351 O 0.13866 0.63381 0.34125 0.0
H1352 H 0.09332 0.53352 0.312 0.0
H1353 H 0.07388 0.5149 0.29691 0.0
H1354 H 1.00734 0.56776 0.29801 0.0
H1355 H 0.02611 0.5853 0.3131 0.0
H1356 H 0.07072 0.56597 0.38555 0.0
H1357 H 0.08192 0.59483 0.3999 0.0
H1358 H 0.19979 0.64481 0.39586 0.0
H1359 H 0.18853 0.61644 0.38145 0.0
C1360 C 0.44099 0.50451 0.32263 0.0
Eu1361 Eu 0.44404 0.52976 0.33843 0.0
C1362 C 0.45819 0.5074 0.31395 0.0
C1363 C 0.46421 0.53571 0.30803 0.0
C1364 C 0.47371 0.53417 0.29933 0.0
C1365 C 0.47727 0.50421 0.29628 0.0
C1366 C 0.47287 0.47682 0.30232 0.0
C1367 C 0.46335 0.47835 0.31101 0.0
C1368 C 0.45687 0.59849 0.34272 0.0
C1369 C 0.52614 0.56813 0.34749 0.0
C1370 C 0.44803 0.55805 0.3741 0.0
Eu1371 Eu 0.45 0.54205 0.35763 0.0
C1372 C 0.42719 0.54408 0.38244 0.0
C1373 C 0.42864 0.51634 0.38737 0.0
C1374 C 0.41246 0.50667 0.39568 0.0
C1375 C 0.39455 0.52461 0.39933 0.0
C1376 C 0.39237 0.5517 0.39428 0.0
C1377 C 0.40853 0.56133 0.38598 0.0
C1378 C 0.43129 0.47133 0.35259 0.0
C1379 C 0.37225 0.52027 0.34813 0.0
O1380 O 0.45181 0.49317 0.3294 0.0
O1381 O 0.43131 0.52894 0.32468 0.0
O1382 O 0.43788 0.57958 0.33604 0.0
O1383 O 0.47139 0.58184 0.34651 0.0
O1384 O 0.50513 0.54727 0.34098 0.0
O1385 O 0.51091 0.57497 0.35427 0.0
O1386 O 0.43288 0.56719 0.36783 0.0
O1387 O 0.46658 0.54267 0.37116 0.0
O1388 O 0.45384 0.4894 0.35886 0.0
O1389 O 0.41893 0.49088 0.34946 0.0
O1390 O 0.39446 0.53733 0.35476 0.0
O1391 O 0.38353 0.50816 0.3415 0.0
H1392 H 0.46009 0.55832 0.31002 0.0
H1393 H 0.47652 0.55564 0.2949 0.0
H1394 H 0.476 0.45365 0.30028 0.0
H1395 H 0.45856 0.45592 0.31536 0.0
H1396 H 0.44311 0.50268 0.38492 0.0
H1397 H 0.41514 0.48599 0.39937 0.0
H1398 H 0.37834 0.56575 0.39676 0.0
H1399 H 0.40715 0.58302 0.38241 0.0
C1400 C 0.51675 0.94234 0.32238 0.0
Eu1401 Eu 0.48863 0.9187 0.33788 0.0
C1402 C 0.51605 0.95847 0.31381 0.0
C1403 C 0.48279 0.94961 0.30954 0.0
C1404 C 0.48314 0.96087 0.30089 0.0
C1405 C 0.51673 0.98106 0.29628 0.0
C1406 C 0.54994 0.9907 0.30071 0.0
C1407 C 0.54955 0.9796 0.30934 0.0
C1408 C 0.42153 0.8612 0.34255 0.0
C1409 C 0.44872 0.96109 0.34731 0.0
C1410 C 0.44754 0.88637 0.3742 0.0
Eu1411 Eu 0.47279 0.90913 0.35849 0.0
C1412 C 0.45987 0.87944 0.38277 0.0
C1413 C 0.48793 0.90825 0.38772 0.0
C1414 C 0.49751 0.90125 0.396 0.0
C1415 C 0.47928 0.86528 0.39958 0.0
C1416 C 0.45161 0.83648 0.39454 0.0
C1417 C 0.44201 0.8435 0.38628 0.0
C1418 C 0.54697 0.95717 0.3549 0.0
C1419 C 0.49897 0.85759 0.34832 0.0
O1420 O 0.52805 0.96351 0.32932 0.0
O1421 O 0.49035 0.90858 0.32406 0.0
O1422 O 0.43948 0.86215 0.33555 0.0
O1423 O 0.43815 0.89228 0.34639 0.0
O1424 O 0.46525 0.9575 0.34024 0.0
O1425 O 0.44625 0.94347 0.35473 0.0
O1426 O 0.44351 0.86384 0.36777 0.0
O1427 O 0.46142 0.92085 0.37163 0.0
O1428 O 0.53302 0.95026 0.36266 0.0
O1429 O 0.52055 0.93891 0.3498 0.0
O1430 O 0.47949 0.86031 0.35479 0.0
O1431 O 0.51204 0.88195 0.34185 0.0
H1432 H 0.4565 0.93316 0.31282 0.0
H1433 H 0.457 0.95336 0.29779 0.0
H1434 H 0.57636 1.00561 0.29742 0.0
H1435 H 0.57554 0.98634 0.31244 0.0
H1436 H 0.50223 0.93635 0.38526 0.0
H1437 H 0.51863 0.9243 0.39968 0.0
H1438 H 0.43731 0.8083 0.39695 0.0
H1439 H 0.42024 0.82072 0.38266 0.0
H1440 H 0.10664 0.13696 0.16533 0.0
H1441 H 0.16391 0.18801 0.18926 0.0
H1442 H 0.12337 0.08923 0.16687 0.0
H1443 H 0.18068 0.13937 0.19085 0.0
H1444 H 0.152 0.01408 0.1945 0.0
H1445 H 0.14729 0.07003 0.19352 0.0
H1446 H 0.17853 0.08125 0.16642 0.0
H1447 H 0.18311 0.02514 0.16736 0.0
C1448 C 0.12303 0.13811 0.17093 0.0
C1449 C 0.13404 0.16639 0.17717 0.0
C1450 C 0.13288 0.11081 0.17176 0.0
C1451 C 0.15373 0.11063 0.17893 0.0
C1452 C 0.16463 0.13877 0.18525 0.0
C1453 C 0.15511 0.16661 0.18434 0.0
C1454 C 0.1585 0.02879 0.18836 0.0
C1455 C 0.16762 0.01483 0.18098 0.0
C1456 C 0.15597 0.06103 0.18782 0.0
C1457 C 0.16214 0.07993 0.17987 0.0
C1458 C 0.17313 0.06706 0.17261 0.0
C1459 C 0.17599 0.035 0.17317 0.0
H1460 H 0.99074 0.15833 0.16758 0.0
H1461 H 1.00246 0.14069 0.19483 0.0
H1462 H 0.93357 0.09882 0.16698 0.0
H1463 H 0.94466 0.08181 0.19433 0.0
H1464 H 0.81796 1.00037 0.16923 0.0
H1465 H 0.87077 0.06279 0.17092 0.0
H1466 H 0.9203 0.02096 0.1891 0.0
H1467 H 0.86679 0.95894 0.18761 0.0
C1468 C 0.98078 0.14212 0.17349 0.0
C1469 C 1.00143 0.15442 0.18124 0.0
C1470 C 0.94777 0.10788 0.17316 0.0
C1471 C 0.93426 0.08501 0.18059 0.0
C1472 C 0.95435 0.09804 0.18841 0.0
C1473 C 0.98748 0.13212 0.18872 0.0
C1474 C 0.83998 1.00467 0.17367 0.0
C1475 C 0.83822 0.97469 0.17827 0.0
C1476 C 0.8705 0.04047 0.17458 0.0
C1477 C 0.9003 0.04726 0.18009 0.0
C1478 C 0.89789 0.01723 0.18488 0.0
C1479 C 0.86721 0.98148 0.184 0.0
H1480 H 0.03565 0.84847 0.1884 0.0
H1481 H 0.04676 0.91605 0.16603 0.0
H1482 H 0.97046 0.83233 0.18984 0.0
H1483 H 0.98257 0.90022 0.16746 0.0
H1484 H 0.87296 0.85754 0.19472 0.0
H1485 H 0.9336 0.86255 0.19357 0.0
H1486 H 0.91975 0.84804 0.16572 0.0
H1487 H 0.85924 0.84351 0.16683 0.0
C1488 C 0.0242 0.85979 0.1838 0.0
C1489 C 0.04633 0.88341 0.17708 0.0
C1490 C 0.98693 0.85062 0.18462 0.0
C1491 C 0.97105 0.8646 0.17869 0.0
C1492 C 0.99346 0.88824 0.17202 0.0
C1493 C 0.03049 0.89757 0.17125 0.0
C1494 C 0.88249 0.85481 0.18835 0.0
C1495 C 0.86117 0.8505 0.18085 0.0
C1496 C 0.91731 0.85752 0.18771 0.0
C1497 C 0.93187 0.85621 0.17955 0.0
C1498 C 0.90968 0.84984 0.1721 0.0
C1499 C 0.87478 0.84694 0.17275 0.0
H1500 H 0.19104 0.15999 0.33771 0.0
H1501 H 0.14095 0.10423 0.36183 0.0
H1502 H 0.14186 0.17593 0.33598 0.0
H1503 H 0.0927 0.12015 0.36016 0.0
H1504 H 0.02885 0.18027 0.35949 0.0
H1505 H 0.08464 0.17527 0.36042 0.0
H1506 H 0.07217 0.14225 0.33343 0.0
H1507 H 0.0164 0.14736 0.33246 0.0
C1508 C 0.16974 0.15134 0.34264 0.0
C1509 C 0.17 0.13097 0.34992 0.0
C1510 C 0.14156 0.16036 0.34165 0.0
C1511 C 0.11353 0.14967 0.34799 0.0
C1512 C 0.11415 0.12947 0.35524 0.0
C1513 C 0.14178 0.1201 0.35617 0.0
C1514 C 0.0383 0.17261 0.3537 0.0
C1515 C 0.01783 0.16396 0.34592 0.0
C1516 C 0.07021 0.1695 0.35425 0.0
C1517 C 0.0827 0.15796 0.34702 0.0
C1518 C 0.06347 0.15136 0.3391 0.0
C1519 C 0.03134 0.15414 0.33857 0.0
H1520 H 0.86913 0.87362 0.33262 0.0
H1521 H 0.83688 0.85361 0.3597 0.0
H1522 H 0.87402 0.93441 0.33355 0.0
H1523 H 0.84167 0.91437 0.36059 0.0
H1524 H 0.8565 0.03562 0.33777 0.0
H1525 H 0.84026 0.97036 0.33613 0.0
H1526 H 0.89699 0.9775 0.3602 0.0
H1527 H 0.91323 0.0418 0.36178 0.0
C1528 C 0.86244 0.88186 0.33874 0.0
C1529 C 0.85291 0.85873 0.34611 0.0
C1530 C 0.86508 0.91671 0.33925 0.0
C1531 C 0.85862 0.92945 0.34716 0.0
C1532 C 0.84731 0.90558 0.35442 0.0
C1533 C 0.84433 0.87061 0.35389 0.0
C1534 C 0.8653 0.02304 0.3427 0.0
C1535 C 0.88604 0.04384 0.34991 0.0
C1536 C 0.85609 0.98578 0.34176 0.0
C1537 C 0.86696 0.96857 0.34809 0.0
C1538 C 0.88752 0.98954 0.35529 0.0
C1539 C 0.89708 0.02661 0.35616 0.0
H1540 H 0.97545 0.87591 0.362 0.0
H1541 H 0.98145 0.82582 0.3379 0.0
H1542 H 0.03966 0.92407 0.36039 0.0
H1543 H 0.04657 0.87487 0.33623 0.0
H1544 H 0.14313 1.00019 0.3327 0.0
H1545 H 0.08234 0.94443 0.33368 0.0
H1546 H 0.10285 0.93216 0.36069 0.0
H1547 H 0.16361 0.988 0.35975 0.0
C1548 C 0.99058 0.87506 0.35635 0.0
C1549 C 0.97332 0.84691 0.35009 0.0
C1550 C 0.02759 0.90263 0.35547 0.0
C1551 C 0.04848 0.9032 0.34824 0.0
C1552 C 0.03123 0.87519 0.34189 0.0
C1553 C 0.99404 0.8471 0.34284 0.0
C1554 C 0.13498 0.9853 0.33882 0.0
C1555 C 0.15826 0.99886 0.34617 0.0
C1556 C 0.10014 0.95318 0.33936 0.0
C1557 C 0.08753 0.93401 0.34728 0.0
C1558 C 0.11152 0.94656 0.35451 0.0
C1559 C 0.14649 0.97848 0.35396 0.0
H1560 H 0.86223 0.82854 0.83774 0.0
H1561 H 0.91764 0.87887 0.86189 0.0
H1562 H 0.84792 0.87875 0.83571 0.0
H1563 H 0.90338 0.92818 0.85992 0.0
H1564 H 0.87592 1.00406 0.8321 0.0
H1565 H 0.88169 0.94861 0.83313 0.0
H1566 H 0.84817 0.93599 0.86009 0.0
H1567 H 0.84251 0.99138 0.85909 0.0
C1568 C 0.87131 0.85022 0.8426 0.0
C1569 C 0.89087 0.8496 0.85 0.0
C1570 C 0.86319 0.87896 0.84144 0.0
C1571 C 0.87405 0.90723 0.84772 0.0
C1572 C 0.89388 0.90652 0.85504 0.0
C1573 C 0.90228 0.87828 0.85614 0.0
C1574 C 0.86922 0.98917 0.83822 0.0
C1575 C 0.85901 1.00248 0.84554 0.0
C1576 C 0.87239 0.95725 0.83879 0.0
C1577 C 0.8658 0.93806 0.84671 0.0
C1578 C 0.85397 0.95042 0.85391 0.0
C1579 C 0.8505 0.9821 0.85333 0.0
H1580 H 0.15322 0.05264 0.83744 0.0
H1581 H 0.18773 0.02431 0.86126 0.0
H1582 H 0.10293 0.98875 0.83596 0.0
H1583 H 0.13927 0.95986 0.8596 0.0
H1584 H 0.02183 0.86005 0.86036 0.0
H1585 H 0.07716 0.92085 0.86119 0.0
H1586 H 0.08079 0.92733 0.83305 0.0
H1587 H 0.0241 0.86755 0.83234 0.0
C1588 C 0.15063 0.03234 0.84221 0.0
C1589 C 0.17436 0.04323 0.84943 0.0
C1590 C 0.1218 0.99552 0.84138 0.0
C1591 C 0.1164 0.96853 0.84769 0.0
C1592 C 0.14152 0.97958 0.85471 0.0
C1593 C 0.16972 0.0165 0.85562 0.0
C1594 C 0.03485 0.87425 0.85436 0.0
C1595 C 0.0185 0.85894 0.84629 0.0
C1596 C 0.06682 0.9093 0.85481 0.0
C1597 C 0.08384 0.92975 0.84718 0.0
C1598 C 0.0683 0.91331 0.8391 0.0
C1599 C 0.03591 0.87866 0.83867 0.0
H1600 H 0.96771 0.10664 0.83673 0.0
H1601 H 0.99577 0.17013 0.86045 0.0
H1602 H 0.03141 0.1196 0.83539 0.0
H1603 H 0.06018 0.18557 0.85892 0.0
H1604 H 0.15875 0.16579 0.86002 0.0
H1605 H 0.09839 0.16139 0.86069 0.0
H1606 H 0.09294 0.15861 0.83254 0.0
H1607 H 0.15225 0.16065 0.83198 0.0
C1608 C 0.98796 0.12436 0.84151 0.0
C1609 C 0.97708 0.13757 0.84865 0.0
C1610 C 0.02465 0.13201 0.84076 0.0
C1611 C 0.05152 0.15361 0.84708 0.0
C1612 C 0.04051 0.16811 0.85402 0.0
C1613 C 1.00366 0.15973 0.85486 0.0
C1614 C 0.14485 0.16479 0.85398 0.0
C1615 C 0.16028 0.16345 0.84596 0.0
C1616 C 0.11009 0.16237 0.85434 0.0
C1617 C 0.09007 0.15929 0.84666 0.0
C1618 C 0.10664 0.15988 0.83862 0.0
C1619 C 0.141 0.16149 0.83828 0.0
H1620 H 0.89059 0.92329 0.66672 0.0
H1621 H 0.83278 0.85604 0.68901 0.0
H1622 H 0.93857 0.90699 0.66837 0.0
H1623 H 0.88171 0.83972 0.69074 0.0
H1624 H 1.00551 0.86424 0.69533 0.0
H1625 H 0.95061 0.87087 0.69437 0.0
H1626 H 0.94559 0.85148 0.66667 0.0
H1627 H 1.00049 0.84497 0.66759 0.0
C1628 C 0.88808 0.90493 0.672 0.0
C1629 C 0.85766 0.8908 0.67771 0.0
C1630 C 0.91557 0.89535 0.6729 0.0
C1631 C 0.9138 0.87158 0.6796 0.0
C1632 C 0.88383 0.85801 0.68548 0.0
C1633 C 0.85585 0.86733 0.68451 0.0
C1634 C 0.99236 0.86072 0.68904 0.0
C1635 C 1.00776 0.85433 0.68152 0.0
C1636 C 0.96074 0.8644 0.68851 0.0
C1637 C 0.94392 0.86218 0.68043 0.0
C1638 C 0.95818 0.85389 0.67298 0.0
C1639 C 0.98956 0.84986 0.67352 0.0
H1640 H 0.11779 0.13108 0.69302 0.0
H1641 H 0.20307 0.17048 0.67327 0.0
H1642 H 0.11194 0.07017 0.69239 0.0
H1643 H 0.19743 0.10872 0.67285 0.0
H1644 H 0.18821 0.99361 0.6843 0.0
H1645 H 0.20162 0.05812 0.68583 0.0
H1646 H 0.09054 0.02477 0.67747 0.0
H1647 H 0.07757 0.96107 0.67568 0.0
C1648 C 0.13585 0.12708 0.68863 0.0
C1649 C 0.16095 0.15593 0.68317 0.0
C1650 C 0.13235 0.09201 0.68829 0.0
C1651 C 0.15427 0.08482 0.6826 0.0
C1652 C 0.18042 0.11375 0.67735 0.0
C1653 C 0.18351 0.14897 0.67756 0.0
C1654 C 0.16666 1.00015 0.68288 0.0
C1655 C 0.13179 0.97243 0.67991 0.0
C1656 C 0.17444 0.03699 0.68367 0.0
C1657 C 0.14715 0.04632 0.6817 0.0
C1658 C 0.11205 0.0183 0.67899 0.0
C1659 C 0.10462 0.98189 0.67801 0.0
H1660 H 0.86627 0.02439 0.66752 0.0
H1661 H 0.87414 0.02036 0.69548 0.0
H1662 H 0.92656 0.08047 0.66711 0.0
H1663 H 0.93366 0.0775 0.69517 0.0
H1664 H 0.05924 0.15058 0.69033 0.0
H1665 H 0.99545 0.09986 0.69172 0.0
H1666 H 0.96403 0.14308 0.66973 0.0
H1667 H 0.02829 0.19236 0.66815 0.0
C1668 C 0.88043 0.03603 0.67361 0.0
C1669 C 0.8653 0.01772 0.68152 0.0
C1670 C 0.91518 0.06844 0.6734 0.0
C1671 C 0.93561 0.08385 0.68111 0.0
C1672 C 0.9195 0.06629 0.68906 0.0
C1673 C 0.88504 0.03359 0.68925 0.0
C1674 C 0.03839 0.1495 0.68593 0.0
C1675 C 0.04844 0.17548 0.6792 0.0
C1676 C 1.00169 0.12041 0.68671 0.0
C1677 C 0.9741 0.11683 0.6808 0.0
C1678 C 0.98429 0.1441 0.67429 0.0
C1679 C 0.02106 0.17274 0.67345 0.0
H1680 H 0.86373 0.36704 0.5055 0.0
H1681 H 0.78358 0.32313 0.52637 0.0
H1682 H 0.85777 0.42294 0.5052 0.0
H1683 H 0.77722 0.37808 0.52586 0.0
H1684 H 0.73886 0.45108 0.50946 0.0
H1685 H 0.75189 0.40045 0.51145 0.0
H1686 H 0.86537 0.47934 0.51778 0.0
H1687 H 0.85192 0.53037 0.51607 0.0
C1688 C 0.84523 0.36941 0.51007 0.0
C1689 C 0.82421 0.34052 0.51596 0.0
C1690 C 0.84196 0.40143 0.50992 0.0
C1691 C 0.81707 0.40476 0.51552 0.0
C1692 C 0.79666 0.37626 0.52149 0.0
C1693 C 0.80044 0.34478 0.52177 0.0
C1694 C 0.76645 0.4576 0.51141 0.0
C1695 C 0.7943 0.49455 0.51268 0.0
C1696 C 0.77391 0.42866 0.51252 0.0
C1697 C 0.80967 0.43604 0.5147 0.0
C1698 C 0.83762 0.473 0.51605 0.0
C1699 C 0.82986 0.50206 0.51516 0.0
H1700 H 0.49791 0.30979 0.52323 0.0
H1701 H 0.54975 0.30473 0.49933 0.0
H1702 H 0.54705 0.37483 0.52515 0.0
H1703 H 0.59791 0.36881 0.50118 0.0
H1704 H 0.65917 0.4927 0.50163 0.0
H1705 H 0.60415 0.43141 0.50076 0.0
H1706 H 0.61703 0.41209 0.52781 0.0
H1707 H 0.67211 0.47351 0.52872 0.0
C1708 C 0.51969 0.3225 0.51841 0.0
C1709 C 0.51981 0.30214 0.51112 0.0
C1710 C 0.5478 0.35967 0.5195 0.0
C1711 C 0.57614 0.37723 0.51324 0.0
C1712 C 0.57617 0.35654 0.50603 0.0
C1713 C 0.54859 0.31959 0.50501 0.0
C1714 C 0.64997 0.47579 0.50745 0.0
C1715 C 0.67042 0.48813 0.51523 0.0
C1716 C 0.61851 0.44047 0.50694 0.0
C1717 C 0.6064 0.4166 0.51419 0.0
C1718 C 0.62549 0.42975 0.52211 0.0
C1719 C 0.6572 0.46499 0.52261 0.0
H1720 H 0.53583 0.18507 0.52897 0.0
H1721 H 0.52854 0.17775 0.50095 0.0
H1722 H 0.59498 0.18673 0.52845 0.0
H1723 H 0.58868 0.18159 0.50032 0.0
H1724 H 0.69115 0.1724 0.50076 0.0
H1725 H 0.62675 0.15704 0.50233 0.0
H1726 H 0.65652 0.226 0.52536 0.0
H1727 H 0.72027 0.23912 0.52397 0.0
C1728 C 0.54683 0.1836 0.52269 0.0
C1729 C 0.5274 0.18122 0.515 0.0
C1730 C 0.58109 0.18499 0.52237 0.0
C1731 C 0.59739 0.18485 0.51434 0.0
C1732 C 0.57718 0.18121 0.50666 0.0
C1733 C 0.54253 0.17909 0.507 0.0
C1734 C 0.68348 0.18342 0.50626 0.0
C1735 C 0.71036 0.20647 0.51232 0.0
C1736 C 0.64664 0.1751 0.50712 0.0
C1737 C 0.63593 0.19046 0.51393 0.0
C1738 C 0.66307 0.21293 0.52011 0.0
C1739 C 0.69978 0.22063 0.51933 0.0
H1740 H 0.86169 0.49779 0.67077 0.0
H1741 H 0.81054 0.43984 0.69461 0.0
H1742 H 0.8124 0.51363 0.66909 0.0
H1743 H 0.76227 0.45573 0.693 0.0
H1744 H 0.69858 0.51588 0.69265 0.0
H1745 H 0.75467 0.51138 0.69349 0.0
H1746 H 0.74231 0.47917 0.66644 0.0
H1747 H 0.6862 0.48372 0.66557 0.0
C1748 C 0.84014 0.48865 0.67565 0.0
C1749 C 0.84011 0.46769 0.68283 0.0
C1750 C 0.81193 0.49762 0.6747 0.0
C1751 C 0.78362 0.48631 0.68098 0.0
C1752 C 0.78395 0.46552 0.68814 0.0
C1753 C 0.81159 0.45618 0.68902 0.0
C1754 C 0.70811 0.5085 0.68683 0.0
C1755 C 0.68758 0.49986 0.67907 0.0
C1756 C 0.7402 0.50572 0.68733 0.0
C1757 C 0.75278 0.49453 0.68006 0.0
C1758 C 0.7335 0.48801 0.67215 0.0
C1759 C 0.70119 0.49046 0.67167 0.0
H1760 H 0.54046 0.20914 0.66545 0.0
H1761 H 0.50813 0.18951 0.69253 0.0
H1762 H 0.54538 0.27003 0.66634 0.0
H1763 H 0.51301 0.25025 0.69338 0.0
H1764 H 0.58463 0.37748 0.69458 0.0
H1765 H 0.56897 0.31337 0.6929 0.0
H1766 H 0.51089 0.30585 0.66903 0.0
H1767 H 0.5265 0.37088 0.67078 0.0
C1768 C 0.53376 0.21747 0.67156 0.0
C1769 C 0.5242 0.19442 0.67895 0.0
C1770 C 0.53643 0.25236 0.67204 0.0
C1771 C 0.52999 0.26519 0.67995 0.0
C1772 C 0.51864 0.24139 0.68721 0.0
C1773 C 0.51564 0.20643 0.68671 0.0
C1774 C 0.56832 0.36225 0.68898 0.0
C1775 C 0.55666 0.37928 0.68283 0.0
C1776 C 0.55912 0.32531 0.68805 0.0
C1777 C 0.53832 0.30428 0.68089 0.0
C1778 C 0.52691 0.32132 0.67464 0.0
C1779 C 0.53575 0.35845 0.67564 0.0
H1780 H 0.8152 0.33799 0.66523 0.0
H1781 H 0.83501 0.32483 0.69227 0.0
H1782 H 0.75444 0.28193 0.66609 0.0
H1783 H 0.77438 0.26891 0.69308 0.0
H1784 H 0.65342 0.16209 0.67056 0.0
H1785 H 0.71851 0.21129 0.66878 0.0
H1786 H 0.71135 0.26235 0.69261 0.0
H1787 H 0.64726 0.21423 0.69432 0.0
C1788 C 0.80694 0.32283 0.67132 0.0
C1789 C 0.82999 0.33622 0.67871 0.0
C1790 C 0.77213 0.29057 0.67178 0.0
C1791 C 0.75937 0.27116 0.67967 0.0
C1792 C 0.7832 0.28349 0.68693 0.0
C1793 C 0.81809 0.3155 0.68645 0.0
C1794 C 0.66595 0.18383 0.6754 0.0
C1795 C 0.64521 0.18414 0.68259 0.0
C1796 C 0.70311 0.21199 0.67438 0.0
C1797 C 0.72027 0.2405 0.68062 0.0
C1798 C 0.69933 0.2405 0.68778 0.0
C1799 C 0.66238 0.21293 0.68872 0.0
H1800 H 0.57393 0.19516 0.16991 0.0
H1801 H 0.51732 0.16486 0.19457 0.0
H1802 H 0.5607 0.24576 0.16851 0.0
H1803 H 0.50128 0.21332 0.193 0.0
H1804 H 0.51867 0.33043 0.19346 0.0
H1805 H 0.52396 0.27503 0.19423 0.0
H1806 H 0.52288 0.26954 0.16607 0.0
H1807 H 0.52028 0.32657 0.16542 0.0
C1808 C 0.55764 0.19875 0.1749 0.0
C1809 C 0.54657 0.17618 0.18232 0.0
C1810 C 0.54982 0.22775 0.17412 0.0
C1811 C 0.53001 0.2344 0.18068 0.0
C1812 C 0.51747 0.21025 0.1879 0.0
C1813 C 0.52617 0.18198 0.18877 0.0
C1814 C 0.51899 0.31701 0.18745 0.0
C1815 C 0.51904 0.33295 0.17939 0.0
C1816 C 0.52192 0.28493 0.18786 0.0
C1817 C 0.52413 0.26726 0.18021 0.0
C1818 C 0.52231 0.28246 0.17214 0.0
C1819 C 0.52031 0.31506 0.17174 0.0
H1820 H 0.8502 0.35749 0.19523 0.0
H1821 H 0.82263 0.38359 0.17019 0.0
H1822 H 0.80128 0.29325 0.19366 0.0
H1823 H 0.77156 0.32004 0.16878 0.0
H1824 H 0.69048 0.19847 0.16589 0.0
H1825 H 0.74765 0.25796 0.16657 0.0
H1826 H 0.73911 0.25611 0.19468 0.0
H1827 H 0.68365 0.19569 0.19394 0.0
C1828 C 0.83355 0.34922 0.18936 0.0
C1829 C 0.84018 0.37523 0.18281 0.0
C1830 C 0.80507 0.31245 0.18849 0.0
C1831 C 0.78156 0.30095 0.18115 0.0
C1832 C 0.78908 0.32718 0.17448 0.0
C1833 C 0.81831 0.36379 0.17527 0.0
C1834 C 0.7013 0.2106 0.17222 0.0
C1835 C 0.68261 0.19225 0.17986 0.0
C1836 C 0.73398 0.24505 0.17262 0.0
C1837 C 0.74841 0.26259 0.18068 0.0
C1838 C 0.7298 0.24363 0.18833 0.0
C1839 C 0.69766 0.20882 0.18793 0.0
H1840 H 0.82784 0.50837 0.19317 0.0
H1841 H 0.80886 0.47787 0.16598 0.0
H1842 H 0.76682 0.5029 0.19406 0.0
H1843 H 0.74779 0.47225 0.16691 0.0
H1844 H 0.64659 0.49025 0.17126 0.0
H1845 H 0.71143 0.50533 0.16952 0.0
H1846 H 0.70382 0.44813 0.19354 0.0
H1847 H 0.63997 0.4331 0.19523 0.0
C1848 C 0.81098 0.50109 0.18735 0.0
C1849 C 0.8233 0.4933 0.17953 0.0
C1850 C 0.77585 0.49771 0.18786 0.0
C1851 C 0.75218 0.48673 0.18057 0.0
C1852 C 0.76529 0.48091 0.17263 0.0
C1853 C 0.80031 0.48398 0.17213 0.0
C1854 C 0.65892 0.48097 0.17614 0.0
C1855 C 0.63817 0.46063 0.1834 0.0
C1856 C 0.69598 0.48956 0.17515 0.0
C1857 C 0.71303 0.47839 0.18146 0.0
C1858 C 0.69197 0.45789 0.18866 0.0
C1859 C 0.65514 0.44902 0.18958 0.0
H1860 H 0.66038 0.16916 1.00066 0.0
H1861 H 0.67379 0.20287 0.02764 0.0
H1862 H 0.60441 0.17385 0.99982 0.0
H1863 H 0.61786 0.2077 0.02677 0.0
H1864 H 0.49871 0.18911 0.02277 0.0
H1865 H 0.54822 0.17361 0.0244 0.0
H1866 H 0.59597 0.2287 1.00005 0.0
H1867 H 0.54734 0.24416 0.99848 0.0
C1868 C 0.65113 0.17697 1.00645 0.0
C1869 C 0.67188 0.18592 0.01419 0.0
C1870 C 0.61912 0.17988 1.00596 0.0
C1871 C 0.60684 0.19155 1.01321 0.0
C1872 C 0.6264 0.19848 0.02108 0.0
C1873 C 0.65862 0.19587 0.02156 0.0
C1874 C 0.51978 0.19771 0.01778 0.0
C1875 C 0.51903 0.21774 1.01049 0.0
C1876 C 0.54813 0.18894 0.01871 0.0
C1877 C 0.57585 0.19956 1.0123 0.0
C1878 C 0.57475 0.21943 1.00503 0.0
C1879 C 0.54692 0.22853 1.00416 0.0
H1880 H 0.83309 0.31335 0.02258 0.0
H1881 H 0.77833 0.30898 0.99838 0.0
H1882 H 0.8496 0.37858 0.02439 0.0
H1883 H 0.79485 0.37334 1.00012 0.0
H1884 H 0.85414 0.49735 1.0013 0.0
H1885 H 0.84972 0.43677 1.00011 0.0
H1886 H 0.81586 0.41412 0.02702 0.0
H1887 H 0.82035 0.47462 0.02824 0.0
C1888 C 0.82481 0.32633 0.01764 0.0
C1889 C 0.80446 0.306 1.01033 0.0
C1890 C 0.83418 0.3636 0.01867 0.0
C1891 C 0.82388 0.38135 1.01235 0.0
C1892 C 0.80386 0.36089 1.00503 0.0
C1893 C 0.79412 0.32378 1.00407 0.0
C1894 C 0.84651 0.47983 1.00702 0.0
C1895 C 0.83734 0.49087 0.01484 0.0
C1896 C 0.8437 0.44495 1.00632 0.0
C1897 C 0.83204 0.42037 1.01345 0.0
C1898 C 0.82507 0.43234 0.02141 0.0
C1899 C 0.82749 0.46704 0.02209 0.0
H1900 H 0.5267 0.35942 1.00077 0.0
H1901 H 0.5457 0.34868 0.028 0.0
H1902 H 0.58793 0.41474 0.99982 0.0
H1903 H 0.60689 0.40377 0.02701 0.0
H1904 H 0.70905 0.5214 0.02264 0.0
H1905 H 0.6438 0.47273 0.02432 0.0
H1906 H 0.65066 0.42217 1.00037 0.0
H1907 H 0.71498 0.46999 0.99874 0.0
C1908 C 0.54358 0.36919 1.00659 0.0
C1909 C 0.53129 0.34935 0.01444 0.0
C1910 C 0.57883 0.40076 1.00603 0.0
C1911 C 0.60254 0.41347 1.01332 0.0
C1912 C 0.58936 0.3949 0.02129 0.0
C1913 C 0.55427 0.36315 0.02183 0.0
C1914 C 0.69647 0.49981 0.01776 0.0
C1915 C 0.71714 0.49963 1.01055 0.0
C1916 C 0.65917 0.47198 0.01871 0.0
C1917 C 0.64182 0.44381 1.01241 0.0
C1918 C 0.66278 0.44379 1.00525 0.0
C1919 C 0.69986 0.47114 1.00436 0.0
H1920 H 0.49902 0.85597 0.85573 0.0
H1921 H 0.44052 0.80499 0.83193 0.0
H1922 H 0.51495 0.8067 0.85729 0.0
H1923 H 0.45644 0.75667 0.83343 0.0
H1924 H 0.48538 0.68102 0.86091 0.0
H1925 H 0.4809 0.73714 0.85999 0.0
H1926 H 0.51135 0.7482 0.83283 0.0
H1927 H 0.51573 0.69197 0.83372 0.0
C1928 C 0.48978 0.83445 0.85083 0.0
C1929 C 0.46862 0.83446 0.8437 0.0
C1930 C 0.49881 0.80625 0.85172 0.0
C1931 C 0.48733 0.77796 0.84542 0.0
C1932 C 0.46638 0.77834 0.8383 0.0
C1933 C 0.457 0.806 0.83749 0.0
C1934 C 0.49172 0.69571 0.85477 0.0
C1935 C 0.50062 0.6817 0.84736 0.0
C1936 C 0.48933 0.72805 0.85426 0.0
C1937 C 0.4954 0.74699 0.84632 0.0
C1938 C 0.50604 0.73399 0.83903 0.0
C1939 C 0.50878 0.70185 0.83955 0.0
H1940 H 0.16389 0.64744 0.85626 0.0
H1941 H 0.213 0.64104 0.83204 0.0
H1942 H 0.21334 0.71247 0.8579 0.0
H1943 H 0.26151 0.70512 0.83362 0.0
H1944 H 0.32581 0.82898 0.83418 0.0
H1945 H 0.26972 0.76841 0.83336 0.0
H1946 H 0.28319 0.748 0.8603 0.0
H1947 H 0.33925 0.80865 0.86116 0.0
C1948 C 0.18504 0.65992 0.85128 0.0
C1949 C 0.18444 0.63913 0.84401 0.0
C1950 C 0.21335 0.69705 0.85222 0.0
C1951 C 0.24117 0.71415 0.84583 0.0
C1952 C 0.24022 0.69317 0.83858 0.0
C1953 C 0.21245 0.65623 0.83771 0.0
C1954 C 0.31652 0.81194 0.83998 0.0
C1955 C 0.33733 0.82369 0.84771 0.0
C1956 C 0.28444 0.77707 0.8395 0.0
C1957 C 0.27215 0.75315 0.84674 0.0
C1958 C 0.29175 0.76575 0.85461 0.0
C1959 C 0.32404 0.80051 0.85508 0.0
H1960 H 0.37224 0.521 0.85586 0.0
H1961 H 0.37838 0.57731 0.83179 0.0
H1962 H 0.30734 0.50561 0.85761 0.0
H1963 H 0.31438 0.56194 0.83348 0.0
H1964 H 0.19038 0.50288 0.83425 0.0
H1965 H 0.25096 0.50742 0.83321 0.0
H1966 H 0.27196 0.53968 0.86025 0.0
H1967 H 0.21134 0.53503 0.86132 0.0
C1968 C 0.35973 0.52989 0.85094 0.0
C1969 C 0.38043 0.55026 0.84368 0.0
C1970 C 0.32266 0.52118 0.85194 0.0
C1971 C 0.30549 0.5322 0.84563 0.0
C1972 C 0.32636 0.55238 0.83838 0.0
C1973 C 0.36326 0.56144 0.83745 0.0
C1974 C 0.20756 0.51028 0.84002 0.0
C1975 C 0.19596 0.51884 0.84785 0.0
C1976 C 0.24245 0.51313 0.83941 0.0
C1977 C 0.26654 0.5243 0.84663 0.0
C1978 C 0.2541 0.53084 0.85458 0.0
C1979 C 0.21934 0.52833 0.85517 0.0
H1980 H 0.53113 0.8468 0.02372 0.0
H1981 H 0.47627 0.75603 1.00571 0.0
H1982 H 0.48111 0.86108 0.02207 0.0
H1983 H 0.42566 0.76931 1.00416 0.0
H1984 H 0.34957 0.81412 0.99849 0.0
H1985 H 0.40585 0.81009 0.99882 0.0
H1986 H 0.4181 0.83638 0.02628 0.0
H1987 H 0.36236 0.84148 0.02587 0.0
C1988 C 0.50854 0.83032 0.0193 0.0
C1989 C 0.50762 0.8007 0.01474 0.0
C1990 C 0.47964 0.83816 0.01842 0.0
C1991 C 0.44903 0.81631 1.013 0.0
C1992 C 0.44887 0.78718 1.00828 0.0
C1993 C 0.47781 0.77943 1.00917 0.0
C1994 C 0.3645 0.81954 1.00458 0.0
C1995 C 0.35125 0.82806 1.01216 0.0
C1996 C 0.39673 0.81693 1.00479 0.0
C1997 C 0.41658 0.82252 1.01259 0.0
C1998 C 0.40397 0.8323 0.02011 0.0
C1999 C 0.37182 0.83512 0.01989 0.0
H2000 H 0.18053 0.69 0.02644 0.0
H2001 H 0.25081 0.71952 1.00385 0.0
H2002 H 0.16457 0.62537 0.02484 0.0
H2003 H 0.2369 0.65544 1.00243 0.0
H2004 H 0.1935 0.53406 0.99863 0.0
H2005 H 0.19641 0.59387 0.99907 0.0
H2006 H 0.18931 0.58735 0.02718 0.0
H2007 H 0.18443 0.52675 0.02665 0.0
C2008 C 0.19223 0.68237 0.02107 0.0
C2009 C 0.21652 0.7094 0.01521 0.0
C2010 C 0.18352 0.64542 0.0202 0.0
C2011 C 0.19964 0.63477 1.01355 0.0
C2012 C 0.22331 0.66205 1.00755 0.0
C2013 C 0.23148 0.69891 1.00835 0.0
C2014 C 0.19193 0.54517 1.0049 0.0
C2015 C 0.1887 0.52556 1.01261 0.0
C2016 C 0.19399 0.57977 1.00517 0.0
C2017 C 0.19356 0.5961 1.01317 0.0
C2018 C 0.18916 0.57577 0.02086 0.0
C2019 C 0.18647 0.54088 0.02058 0.0
H2020 H 0.31729 0.4934 1.00428 0.0
H2021 H 0.31086 0.54424 0.02822 0.0
H2022 H 0.38211 0.5431 1.00249 0.0
H2023 H 0.37474 0.59298 0.02649 0.0
H2024 H 0.49862 0.65629 0.02598 0.0
H2025 H 0.4379 0.60058 0.02686 0.0
H2026 H 0.41771 0.6133 0.99986 0.0
H2027 H 0.4786 0.66913 0.99894 0.0
C2028 C 0.32972 0.515 1.00916 0.0
C2029 C 0.309 0.51479 0.01641 0.0
C2030 C 0.36672 0.54345 1.00813 0.0
C2031 C 0.38375 0.5718 0.01441 0.0
C2032 C 0.36282 0.57129 0.02162 0.0
C2033 C 0.32601 0.54337 0.02258 0.0
C2034 C 0.4816 0.64698 0.02018 0.0
C2035 C 0.49354 0.66751 1.01241 0.0
C2036 C 0.44664 0.61509 0.0207 0.0
C2037 C 0.42276 0.60267 1.01345 0.0
C2038 C 0.43546 0.62199 1.00555 0.0
C2039 C 0.47036 0.65412 1.00504 0.0
H2040 H 0.24962 0.53203 0.50451 0.0
H2041 H 0.17902 0.49428 0.52709 0.0
H2042 H 0.23721 0.58308 0.50275 0.0
H2043 H 0.16426 0.54358 0.5251 0.0
H2044 H 0.18363 0.66125 0.52633 0.0
H2045 H 0.18867 0.60581 0.52716 0.0
H2046 H 0.199 0.60623 0.49912 0.0
H2047 H 0.19616 0.66321 0.4984 0.0
C2048 C 0.23058 0.53419 0.50895 0.0
C2049 C 0.21514 0.50934 0.51591 0.0
C2050 C 0.22324 0.56339 0.50794 0.0
C2051 C 0.19981 0.56806 0.51381 0.0
C2052 C 0.18317 0.54183 0.52056 0.0
C2053 C 0.19118 0.51318 0.52166 0.0
C2054 C 0.18649 0.64924 0.52032 0.0
C2055 C 0.1895 0.66676 0.5123 0.0
C2056 C 0.18923 0.61713 0.52078 0.0
C2057 C 0.19438 0.60107 0.51321 0.0
C2058 C 0.1959 0.61793 0.50513 0.0
C2059 C 0.19387 0.6505 0.5047 0.0
H2060 H 0.50275 0.71227 0.50296 0.0
H2061 H 0.51895 0.68499 0.52907 0.0
H2062 H 0.44936 0.65029 0.50126 0.0
H2063 H 0.4644 0.62415 0.52769 0.0
H2064 H 0.37521 0.50671 0.52196 0.0
H2065 H 0.43404 0.56499 0.52235 0.0
H2066 H 0.38865 0.61408 0.50501 0.0
H2067 H 0.33131 0.55554 0.50424 0.0
C2068 C 0.49482 0.693 0.50834 0.0
C2069 C 0.51503 0.70362 0.51614 0.0
C2070 C 0.46387 0.65743 0.50743 0.0
C2071 C 0.45175 0.63175 0.51437 0.0
C2072 C 0.47274 0.64243 0.52211 0.0
C2073 C 0.50408 0.67766 0.52294 0.0
C2074 C 0.37808 0.52995 0.51818 0.0
C2075 C 0.34859 0.52632 0.51304 0.0
C2076 C 0.4118 0.56362 0.51844 0.0
C2077 C 0.41665 0.59486 0.51372 0.0
C2078 C 0.38687 0.59087 0.50858 0.0
C2079 C 0.3536 0.55711 0.50818 0.0
H2080 H 0.49586 0.83812 0.52633 0.0
H2081 H 0.48042 0.81899 0.49859 0.0
H2082 H 0.43564 0.83418 0.52735 0.0
H2083 H 0.42 0.81467 0.49966 0.0
H2084 H 0.31859 0.83074 0.5047 0.0
H2085 H 0.38362 0.84635 0.50312 0.0
H2086 H 0.37267 0.78126 0.52598 0.0
H2087 H 0.30868 0.76588 0.52752 0.0
C2088 C 0.48 0.83368 0.52042 0.0
C2089 C 0.49306 0.82851 0.5124 0.0
C2090 C 0.44527 0.83116 0.52102 0.0
C2091 C 0.42266 0.82356 0.5136 0.0
C2092 C 0.43665 0.82065 0.5055 0.0
C2093 C 0.47133 0.82298 0.5049 0.0
C2094 C 0.33028 0.81996 0.50938 0.0
C2095 C 0.30851 0.79723 0.51625 0.0
C2096 C 0.36744 0.82881 0.50847 0.0
C2097 C 0.38358 0.81545 0.51449 0.0
C2098 C 0.36156 0.79274 0.52133 0.0
C2099 C 0.32464 0.78367 0.52217 0.0
H2100 H 0.21225 0.57706 0.33184 0.0
H2101 H 0.1619 0.52096 0.35592 0.0
H2102 H 0.26053 0.56114 0.33354 0.0
H2103 H 0.21108 0.50507 0.35768 0.0
H2104 H 0.33678 0.53467 0.3613 0.0
H2105 H 0.28088 0.5395 0.36026 0.0
H2106 H 0.26842 0.50567 0.33333 0.0
H2107 H 0.32434 0.50089 0.33433 0.0
C2108 C 0.21138 0.56112 0.3375 0.0
C2109 C 0.18313 0.55016 0.34374 0.0
C2110 C 0.23901 0.55175 0.33843 0.0
C2111 C 0.23952 0.53149 0.34569 0.0
C2112 C 0.21142 0.52068 0.352 0.0
C2113 C 0.18327 0.52968 0.351 0.0
C2114 C 0.32181 0.52765 0.35518 0.0
C2115 C 0.33533 0.51768 0.34787 0.0
C2116 C 0.28962 0.53027 0.35461 0.0
C2117 C 0.27037 0.52334 0.34669 0.0
C2118 C 0.28288 0.51165 0.3395 0.0
C2119 C 0.31485 0.50869 0.34009 0.0
H2120 H 0.49816 0.6464 0.35595 0.0
H2121 H 0.44047 0.64019 0.3321 0.0
H2122 H 0.51509 0.7118 0.35756 0.0
H2123 H 0.45737 0.70475 0.33365 0.0
H2124 H 0.51709 0.82887 0.33428 0.0
H2125 H 0.51216 0.76803 0.33319 0.0
H2126 H 0.48228 0.74788 0.36037 0.0
H2127 H 0.48734 0.80864 0.36149 0.0
C2128 C 0.48928 0.659 0.35105 0.0
C2129 C 0.46803 0.63812 0.3439 0.0
C2130 C 0.49891 0.69638 0.35196 0.0
C2131 C 0.48792 0.71368 0.34568 0.0
C2132 C 0.46694 0.69266 0.33853 0.0
C2133 C 0.45698 0.65544 0.33768 0.0
C2134 C 0.51025 0.81185 0.34007 0.0
C2135 C 0.50235 0.82366 0.34795 0.0
C2136 C 0.50713 0.77681 0.33943 0.0
C2137 C 0.49641 0.75285 0.34667 0.0
C2138 C 0.49074 0.7656 0.35468 0.0
C2139 C 0.49348 0.80045 0.3553 0.0
H2140 H 0.20993 0.68041 0.3614 0.0
H2141 H 0.19297 0.6915 0.33406 0.0
H2142 H 0.27153 0.73526 0.36056 0.0
H2143 H 0.25454 0.7463 0.33325 0.0
H2144 H 0.3738 0.85437 0.3559 0.0
H2145 H 0.30871 0.8052 0.35763 0.0
H2146 H 0.31717 0.75238 0.33425 0.0
H2147 H 0.38134 0.80058 0.33258 0.0
C2148 C 0.21904 0.69487 0.35524 0.0
C2149 C 0.19647 0.68128 0.34777 0.0
C2150 C 0.25435 0.72644 0.35478 0.0
C2151 C 0.26816 0.74495 0.34683 0.0
C2152 C 0.24492 0.73239 0.33946 0.0
C2153 C 0.20948 0.70108 0.33993 0.0
C2154 C 0.36163 0.83214 0.35117 0.0
C2155 C 0.38268 0.83149 0.34408 0.0
C2156 C 0.32443 0.80403 0.35215 0.0
C2157 C 0.30756 0.77515 0.34599 0.0
C2158 C 0.32895 0.77456 0.339 0.0
C2159 C 0.36593 0.80215 0.33808 0.0
H2160 H 0.24575 0.32174 0.1935 0.0
H2161 H 0.23451 0.31608 0.16554 0.0
H2162 H 0.31301 0.35464 0.19204 0.0
H2163 H 0.30122 0.34657 0.164 0.0
H2164 H 0.42273 0.42504 0.16207 0.0
H2165 H 0.35679 0.39859 0.16441 0.0
H2166 H 0.36641 0.35373 0.18905 0.0
H2167 H 0.4334 0.38297 0.18687 0.0
C2168 C 0.25765 0.32743 0.18702 0.0
C2169 C 0.23451 0.31645 0.17964 0.0
C2170 C 0.29647 0.34609 0.18616 0.0
C2171 C 0.31349 0.35378 0.17789 0.0
C2172 C 0.28999 0.34247 0.17052 0.0
C2173 C 0.25131 0.32457 0.17139 0.0
C2174 C 0.4108 0.40987 0.16804 0.0
C2175 C 0.43338 0.40614 0.17428 0.0
C2176 C 0.37259 0.3941 0.16936 0.0
C2177 C 0.3552 0.37299 0.17687 0.0
C2178 C 0.37819 0.36992 0.18321 0.0
C2179 C 0.41679 0.38658 0.18197 0.0
H2180 H 0.62821 0.04855 0.189 0.0
H2181 H 0.58832 0.99762 0.16392 0.0
H2182 H 0.65708 0.0106 0.19124 0.0
H2183 H 0.61901 0.96163 0.16578 0.0
H2184 H 0.65562 0.87996 0.17281 0.0
H2185 H 0.62191 0.9136 0.17181 0.0
H2186 H 0.70452 1.00033 0.18806 0.0
H2187 H 0.7365 0.9653 0.18947 0.0
C2188 C 0.62582 0.02936 0.18394 0.0
C2189 C 0.60585 0.02611 0.1763 0.0
C2190 C 0.64272 0.00769 0.18516 0.0
C2191 C 0.64084 0.98261 0.17869 0.0
C2192 C 0.62072 0.97963 0.17105 0.0
C2193 C 0.60323 1.00068 0.16992 0.0
C2194 C 0.66633 0.90606 0.17623 0.0
C2195 C 0.69874 0.91971 0.18125 0.0
C2196 C 0.64716 0.92576 0.17559 0.0
C2197 C 0.66024 0.96032 0.17978 0.0
C2198 C 0.6927 0.97372 0.18485 0.0
C2199 C 0.71137 0.9536 0.18563 0.0
H2200 H 0.05044 0.77398 0.18884 0.0
H2201 H 0.13377 0.77919 0.17135 0.0
H2202 H 0.01569 0.70711 0.18743 0.0
H2203 H 0.10049 0.71178 0.17035 0.0
H2204 H 0.01652 0.59302 0.16319 0.0
H2205 H 0.05223 0.65986 0.16477 0.0
H2206 H 1.0068 0.65025 0.19061 0.0
H2207 H 0.96897 0.58339 0.18864 0.0
C2208 C 0.06173 0.76071 0.1848 0.0
C2209 C 0.09498 0.78211 0.18021 0.0
C2210 C 0.04181 0.72199 0.18402 0.0
C2211 C 0.05485 0.7031 0.17878 0.0
C2212 C 0.08866 0.72473 0.17431 0.0
C2213 C 0.10814 0.76362 0.17493 0.0
C2214 C 0.01418 0.60524 0.16922 0.0
C2215 C 0.98976 0.5828 0.17578 0.0
C2216 C 0.03506 0.64385 0.17018 0.0
C2217 C 0.03293 0.66138 0.17784 0.0
C2218 C 1.00895 0.63852 0.18451 0.0
C2219 C 0.98738 0.5999 0.18344 0.0
H2220 H 0.31305 0.24129 0.33376 0.0
H2221 H 0.33577 0.23287 0.36083 0.0
H2222 H 0.34654 0.30854 0.33489 0.0
H2223 H 0.36835 0.30024 0.36206 0.0
H2224 H 0.37291 0.42613 0.34204 0.0
H2225 H 0.34261 0.35892 0.34053 0.0
H2226 H 0.42152 0.35698 0.35846 0.0
H2227 H 0.4509 0.42409 0.36015 0.0
C2228 C 0.32518 0.25373 0.33997 0.0
C2229 C 0.32155 0.23135 0.3472 0.0
C2230 C 0.34423 0.29253 0.34065 0.0
C2231 C 0.36018 0.31036 0.34859 0.0
C2232 C 0.35701 0.2879 0.35579 0.0
C2233 C 0.33809 0.24905 0.3551 0.0
C2234 C 0.38385 0.41134 0.34563 0.0
C2235 C 0.41428 0.43055 0.35124 0.0
C2236 C 0.36658 0.37266 0.34473 0.0
C2237 C 0.37934 0.35197 0.34938 0.0
C2238 C 0.41028 0.3715 0.35488 0.0
C2239 C 0.42742 0.41016 0.3558 0.0
H2240 H 0.59677 0.01405 0.36479 0.0
H2241 H 0.58704 0.9585 0.34044 0.0
H2242 H 0.66259 0.05414 0.36238 0.0
H2243 H 0.65393 0.99693 0.3382 0.0
H2244 H 0.77401 0.08624 0.33356 0.0
H2245 H 0.70676 0.05168 0.33499 0.0
H2246 H 0.71833 0.05778 0.36304 0.0
H2247 H 0.78505 0.09414 0.36151 0.0
C2248 C 0.60888 0.01036 0.3589 0.0
C2249 C 0.58664 0.98308 0.35281 0.0
C2250 C 0.647 0.03315 0.35754 0.0
C2251 C 0.66459 0.02879 0.35016 0.0
C2252 C 0.64193 1.00181 0.34394 0.0
C2253 C 0.60341 0.97951 0.34522 0.0
C2254 C 0.76207 0.08052 0.34003 0.0
C2255 C 0.78513 0.09334 0.34741 0.0
C2256 C 0.72327 0.06026 0.34087 0.0
C2257 C 0.70623 0.05151 0.34915 0.0
C2258 C 0.72964 0.06443 0.35652 0.0
C2259 C 0.7683 0.08528 0.35566 0.0
H2260 H 0.90985 0.68123 0.36079 0.0
H2261 H 0.94085 0.70417 0.33372 0.0
H2262 H 0.94475 0.64871 0.36197 0.0
H2263 H 0.97472 0.67078 0.3348 0.0
H2264 H 0.06617 0.64473 0.34191 0.0
H2265 H 0.02917 0.67498 0.34045 0.0
H2266 H 0.94831 0.5955 0.35828 0.0
H2267 H 0.98609 0.56616 0.35991 0.0
C2268 C 0.9237 0.67897 0.35505 0.0
C2269 C 0.92249 0.69556 0.34717 0.0
C2270 C 0.94369 0.66009 0.35571 0.0
C2271 C 0.96298 0.65704 0.3485 0.0
C2272 C 0.96102 0.67301 0.34057 0.0
C2273 C 0.94123 0.69201 0.33992 0.0
C2274 C 0.04041 0.63366 0.34548 0.0
C2275 C 0.02921 0.60309 0.35105 0.0
C2276 C 0.01896 0.65089 0.34462 0.0
C2277 C 0.98549 0.63795 0.34926 0.0
C2278 C 0.97409 0.60687 0.35471 0.0
C2279 C 0.99565 0.58976 0.3556 0.0
H2280 H 0.59779 0.58964 0.86413 0.0
H2281 H 0.58781 0.62188 0.83806 0.0
H2282 H 0.66464 0.62123 0.86262 0.0
H2283 H 0.65458 0.651 0.83616 0.0
H2284 H 0.77832 0.73109 0.83724 0.0
H2285 H 0.71145 0.6989 0.83863 0.0
H2286 H 0.71728 0.62554 0.85773 0.0
H2287 H 0.78455 0.66007 0.85675 0.0
C2288 C 0.60994 0.60297 0.85799 0.0
C2289 C 0.58737 0.60324 0.85122 0.0
C2290 C 0.6486 0.62099 0.85706 0.0
C2291 C 0.66609 0.63912 0.84924 0.0
C2292 C 0.64304 0.63846 0.84239 0.0
C2293 C 0.60441 0.62128 0.84342 0.0
C2294 C 0.76526 0.70798 0.84172 0.0
C2295 C 0.78696 0.69824 0.84688 0.0
C2296 C 0.72652 0.6891 0.8425 0.0
C2297 C 0.70788 0.65906 0.84831 0.0
C2298 C 0.72987 0.64888 0.85332 0.0
C2299 C 0.76874 0.66849 0.85271 0.0
H2300 H 0.3349 0.10484 0.86057 0.0
H2301 H 0.31942 0.08164 0.833 0.0
H2302 H 0.36788 0.07052 0.86165 0.0
H2303 H 0.35324 0.04805 0.83403 0.0
H2304 H 0.37765 0.95447 0.84098 0.0
H2305 H 0.34764 0.9917 0.83935 0.0
H2306 H 0.42312 0.06983 0.85823 0.0
H2307 H 0.45233 0.03199 0.85999 0.0
C2308 C 0.33888 0.09285 0.8547 0.0
C2309 C 0.32426 0.09614 0.8467 0.0
C2310 C 0.35806 0.07319 0.85531 0.0
C2311 C 0.36335 0.0562 0.84794 0.0
C2312 C 0.34932 0.06011 0.8399 0.0
C2313 C 0.33009 0.07973 0.83929 0.0
C2314 C 0.38791 0.9797 0.84475 0.0
C2315 C 0.41728 0.99011 0.85065 0.0
C2316 C 0.37082 1.00126 0.84378 0.0
C2317 C 0.38266 0.03393 0.84868 0.0
C2318 C 0.41263 0.04463 0.85445 0.0
C2319 C 0.42965 0.02304 0.85542 0.0
H2320 H 0.96863 0.2427 0.83756 0.0
H2321 H 0.88699 0.23579 0.85585 0.0
H2322 H 1.00331 0.30938 0.83924 0.0
H2323 H 0.92015 0.30314 0.85712 0.0
H2324 H 1.00454 0.42214 0.86435 0.0
H2325 H 0.96847 0.35529 0.86259 0.0
H2326 H 0.01207 0.36623 0.83649 0.0
H2327 H 0.05024 0.43283 0.83864 0.0
C2328 C 0.95764 0.25556 0.84183 0.0
C2329 C 0.92489 0.23369 0.84655 0.0
C2330 C 0.97753 0.29422 0.84276 0.0
C2331 C 0.96496 0.31266 0.84831 0.0
C2332 C 0.93162 0.29058 0.85292 0.0
C2333 C 0.91219 0.25171 0.85214 0.0
C2334 C 1.00636 0.41017 0.85823 0.0
C2335 C 0.03041 0.43288 0.85165 0.0
C2336 C 0.9853 0.37156 0.85717 0.0
C2337 C 0.98688 0.35437 0.84938 0.0
C2338 C 1.01039 0.37759 0.8427 0.0
C2339 C 0.03215 0.41611 0.84387 0.0
H2340 H 0.64742 0.58994 0.68562 0.0
H2341 H 0.57368 0.59317 0.6664 0.0
H2342 H 0.67834 0.65728 0.68705 0.0
H2343 H 0.60387 0.66041 0.66795 0.0
H2344 H 0.7072 0.77548 0.69331 0.0
H2345 H 0.67312 0.70822 0.69224 0.0
H2346 H 0.65952 0.71636 0.66459 0.0
H2347 H 0.69292 0.78377 0.6657 0.0
C2348 C 0.63756 0.60502 0.68176 0.0
C2349 C 0.60813 0.58609 0.67587 0.0
C2350 C 0.65519 0.64375 0.68261 0.0
C2351 C 0.64388 0.66476 0.6776 0.0
C2352 C 0.61394 0.64555 0.67182 0.0
C2353 C 0.59635 0.60684 0.67097 0.0
C2354 C 0.69679 0.76306 0.68699 0.0
C2355 C 0.70301 0.78544 0.67959 0.0
C2356 C 0.67737 0.72424 0.68636 0.0
C2357 C 0.66353 0.70638 0.67831 0.0
C2358 C 0.66924 0.72879 0.67093 0.0
C2359 C 0.68864 0.76767 0.67156 0.0
H2360 H 0.43114 0.9844 0.66784 0.0
H2361 H 0.43484 0.06557 0.68586 0.0
H2362 H 0.36438 0.94655 0.67 0.0
H2363 H 0.36787 0.02844 0.68784 0.0
H2364 H 0.25022 0.94073 0.69499 0.0
H2365 H 0.31752 0.9741 0.69372 0.0
H2366 H 0.30789 0.94364 0.66655 0.0
H2367 H 0.24078 0.90943 0.6679 0.0
C2368 C 0.41766 0.99417 0.67228 0.0
C2369 C 0.4384 0.02811 0.67665 0.0
C2370 C 0.37919 0.97257 0.67347 0.0
C2371 C 0.36018 0.98428 0.67906 0.0
C2372 C 0.38123 0.01802 0.68356 0.0
C2373 C 0.41975 0.03955 0.68239 0.0
C2374 C 0.26241 0.9408 0.68876 0.0
C2375 C 0.23972 0.92216 0.68156 0.0
C2376 C 0.30121 0.96033 0.688 0.0
C2377 C 0.31865 0.96199 0.68001 0.0
C2378 C 0.29587 0.94276 0.67286 0.0
C2379 C 0.25711 0.92314 0.67363 0.0
H2380 H 0.03724 0.45161 0.66645 0.0
H2381 H 0.96137 0.37886 0.68597 0.0
H2382 H 0.07545 0.42284 0.66833 0.0
H2383 H 0.99907 0.34942 0.68775 0.0
H2384 H 0.11062 0.33404 0.66668 0.0
H2385 H 0.07604 0.36677 0.66531 0.0
H2386 H 0.0565 0.35728 0.69305 0.0
H2387 H 0.09038 0.32393 0.69441 0.0
C2388 C 0.02874 0.42947 0.67116 0.0
C2389 C 0.99617 0.4175 0.67605 0.0
C2390 C 0.05054 0.41272 0.6722 0.0
C2391 C 0.04047 0.38351 0.67816 0.0
C2392 C 1.00813 0.37204 0.68316 0.0
C2393 C 0.98632 0.38881 0.68211 0.0
C2394 C 0.09926 0.33916 0.67251 0.0
C2395 C 0.1034 0.3261 0.68066 0.0
C2396 C 0.07943 0.35814 0.67173 0.0
C2397 C 0.0631 0.36467 0.67906 0.0
C2398 C 0.06799 0.35231 0.68722 0.0
C2399 C 0.0878 0.33336 0.68801 0.0
H2400 H 0.91266 0.64719 0.52661 0.0
H2401 H 0.9037 0.65983 0.49895 0.0
H2402 H 0.97985 0.68102 0.52545 0.0
H2403 H 0.97108 0.69306 0.49775 0.0
H2404 H 0.09786 0.70616 0.5188 0.0
H2405 H 0.03055 0.67521 0.52026 0.0
H2406 H 0.02715 0.74906 0.50101 0.0
H2407 H 0.09435 0.77932 0.49945 0.0
C2408 C 0.92492 0.6572 0.52026 0.0
C2409 C 0.90236 0.65058 0.51288 0.0
C2410 C 0.9637 0.67646 0.51958 0.0
C2411 C 0.98136 0.6898 0.51149 0.0
C2412 C 0.95879 0.68372 0.50412 0.0
C2413 C 0.91994 0.66443 0.5048 0.0
C2414 C 0.08273 0.71587 0.51491 0.0
C2415 C 0.10157 0.74517 0.50899 0.0
C2416 C 0.04402 0.69823 0.51577 0.0
C2417 C 0.02295 0.70937 0.51074 0.0
C2418 C 0.04206 0.73913 0.50491 0.0
C2419 C 0.08075 0.75675 0.50405 0.0
H2420 H 0.40197 0.29697 0.52337 0.0
H2421 H 0.33096 0.21985 0.50384 0.0
H2422 H 0.36982 0.33177 0.52198 0.0
H2423 H 0.29654 0.25276 0.50287 0.0
H2424 H 0.26101 0.33642 0.49642 0.0
H2425 H 0.29287 0.30147 0.49794 0.0
H2426 H 0.32159 0.34055 0.52448 0.0
H2427 H 0.292 0.37794 0.52258 0.0
C2428 C 0.37891 0.287 0.51888 0.0
C2429 C 0.36913 0.25555 0.51371 0.0
C2430 C 0.36006 0.30693 0.51811 0.0
C2431 C 0.33007 0.2956 0.5123 0.0
C2432 C 0.31987 0.26344 0.50727 0.0
C2433 C 0.33943 0.24411 0.50788 0.0
C2434 C 0.27418 0.33755 0.50258 0.0
C2435 C 0.27398 0.36008 0.50937 0.0
C2436 C 0.29234 0.31705 0.50351 0.0
C2437 C 0.31017 0.31751 0.51137 0.0
C2438 C 0.3092 0.33969 0.51824 0.0
C2439 C 0.29181 0.36101 0.51721 0.0
H2440 H 0.65465 0.90901 0.52119 0.0
H2441 H 0.66011 0.92952 0.49358 0.0
H2442 H 0.69477 0.97552 0.52381 0.0
H2443 H 0.69851 0.99549 0.4961 0.0
H2444 H 0.79063 0.11117 0.5016 0.0
H2445 H 0.75661 0.04402 0.49985 0.0
H2446 H 0.69766 0.03331 0.52381 0.0
H2447 H 0.73274 0.10013 0.52571 0.0
C2448 C 0.66437 0.92765 0.51569 0.0
C2449 C 0.65423 0.91377 0.50719 0.0
C2450 C 0.68723 0.96597 0.51717 0.0
C2451 C 0.70037 0.99146 0.51017 0.0
C2452 C 0.68998 0.97719 0.50168 0.0
C2453 C 0.6675 0.9391 0.50023 0.0
C2454 C 0.77067 0.09447 0.50654 0.0
C2455 C 0.76453 0.11137 0.51378 0.0
C2456 C 0.75079 0.05577 0.50551 0.0
C2457 C 0.72378 0.03268 0.51163 0.0
C2458 C 0.71836 0.04968 0.51898 0.0
C2459 C 0.73847 0.08831 0.52005 0.0
H2460 H 0.0591 0.76843 0.67383 0.0
H2461 H 0.10551 0.75725 0.69793 0.0
H2462 H 0.02919 0.70136 0.67156 0.0
H2463 H 0.07818 0.69121 0.6955 0.0
H2464 H 0.99294 0.56947 0.69481 0.0
H2465 H 0.02474 0.63636 0.69631 0.0
H2466 H 0.02989 0.64768 0.66826 0.0
H2467 H 0.99591 0.58038 0.66685 0.0
C2468 C 0.06362 0.75172 0.67853 0.0
C2469 C 0.08455 0.76813 0.68607 0.0
C2470 C 0.04652 0.71309 0.67725 0.0
C2471 C 0.05047 0.68999 0.6834 0.0
C2472 C 0.07306 0.7072 0.69072 0.0
C2473 C 0.08931 0.74542 0.69208 0.0
C2474 C 1.00105 0.58621 0.68896 0.0
C2475 C 0.99184 0.56931 0.68072 0.0
C2476 C 0.01968 0.62493 0.6898 0.0
C2477 C 0.03054 0.64829 0.68241 0.0
C2478 C 0.02172 0.63119 0.67415 0.0
C2479 C 1.00243 0.59236 0.67332 0.0
H2480 H 0.25219 0.31454 0.67313 0.0
H2481 H 0.27326 0.3222 0.70075 0.0
H2482 H 0.3188 0.35436 0.67042 0.0
H2483 H 0.33917 0.36036 0.69814 0.0
H2484 H 0.45338 0.45451 0.69245 0.0
H2485 H 0.38635 0.41905 0.69416 0.0
H2486 H 0.37758 0.35841 0.67061 0.0
H2487 H 0.44446 0.39488 0.66875 0.0
C2488 C 0.27101 0.32459 0.67861 0.0
C2489 C 0.25729 0.31533 0.68715 0.0
C2490 C 0.30933 0.34731 0.67708 0.0
C2491 C 0.33489 0.36119 0.68406 0.0
C2492 C 0.32078 0.35131 0.69257 0.0
C2493 C 0.28274 0.32897 0.69408 0.0
C2494 C 0.43717 0.43384 0.68759 0.0
C2495 C 0.45465 0.42766 0.68048 0.0
C2496 C 0.39853 0.41313 0.6886 0.0
C2497 C 0.37602 0.38523 0.68258 0.0
C2498 C 0.39353 0.37972 0.67536 0.0
C2499 C 0.43216 0.40064 0.67431 0.0
H2500 H 0.6741 0.92238 0.69775 0.0
H2501 H 0.72986 0.96846 0.67345 0.0
H2502 H 0.6346 0.94889 0.69544 0.0
H2503 H 0.69184 0.99753 0.67129 0.0
H2504 H 0.6022 0.02831 0.66678 0.0
H2505 H 0.63671 0.99549 0.66814 0.0
H2506 H 0.63201 1.00177 0.69619 0.0
H2507 H 0.59578 0.03241 0.69475 0.0
C2508 C 0.67795 0.93838 0.69189 0.0
C2509 C 0.70511 0.94324 0.68578 0.0
C2510 C 0.65549 0.95415 0.69059 0.0
C2511 C 0.66003 0.97631 0.68324 0.0
C2512 C 0.68688 0.98048 0.67701 0.0
C2513 C 0.7089 0.96388 0.67823 0.0
C2514 C 0.60823 0.02227 0.67323 0.0
C2515 C 0.59584 0.03284 0.68065 0.0
C2516 C 0.62845 1.00366 0.67403 0.0
C2517 C 0.63753 0.99552 0.68229 0.0
C2518 C 0.62508 1.00633 0.68969 0.0
C2519 C 0.6043 0.02428 0.68888 0.0
H2520 H 0.25257 0.95431 0.17166 0.0
H2521 H 0.26318 0.91907 0.19735 0.0
H2522 H 0.31918 0.98277 0.16953 0.0
H2523 H 0.32999 0.94979 0.1956 0.0
H2524 H 0.44919 0.98755 0.18895 0.0
H2525 H 0.38189 0.95326 0.19008 0.0
H2526 H 0.37601 0.03097 0.17237 0.0
H2527 H 0.4428 0.06317 0.17083 0.0
C2528 C 0.26928 0.95288 0.17688 0.0
C2529 C 0.25251 0.93433 0.18465 0.0
C2530 C 0.30778 0.96964 0.17572 0.0
C2531 C 0.33093 0.96925 0.1824 0.0
C2532 C 0.31374 0.95041 0.19018 0.0
C2533 C 0.27516 0.93289 0.19124 0.0
C2534 C 0.43337 0.99699 0.18524 0.0
C2535 C 0.45151 0.02801 0.17976 0.0
C2536 C 0.39453 0.9775 0.18594 0.0
C2537 C 0.37259 0.989 0.18136 0.0
C2538 C 0.39112 0.02023 0.17588 0.0
C2539 C 0.4298 0.03908 0.17503 0.0
H2540 H 0.95207 0.38227 0.17127 0.0
H2541 H 0.02857 0.46449 0.18922 0.0
H2542 H 0.98397 0.34738 0.17277 0.0
H2543 H 0.0626 0.43109 0.19029 0.0
H2544 H 0.09722 0.34665 0.19735 0.0
H2545 H 0.06643 0.38275 0.19574 0.0
H2546 H 0.0317 0.33823 0.16978 0.0
H2547 H 0.06026 0.30003 0.17179 0.0
C2548 C 0.97627 0.39333 0.17543 0.0
C2549 C 0.98769 0.42631 0.18012 0.0
C2550 C 0.99497 0.37332 0.17625 0.0
C2551 C 0.02642 0.38597 0.18165 0.0
C2552 C 0.03821 0.41954 0.18621 0.0
C2553 C 0.01886 0.4391 0.18554 0.0
C2554 C 0.08297 0.34461 0.1913 0.0
C2555 C 0.08112 0.32031 0.18471 0.0
C2556 C 0.06542 0.3657 0.19032 0.0
C2557 C 0.04611 0.36391 0.18261 0.0
C2558 C 0.04523 0.3401 0.17593 0.0
C2559 C 0.06203 0.31831 0.17701 0.0
H2560 H 0.5678 0.56647 0.19316 0.0
H2561 H 0.61999 0.57571 0.16829 0.0
H2562 H 0.60184 0.63358 0.19462 0.0
H2563 H 0.65531 0.64288 0.16989 0.0
H2564 H 0.69763 0.76801 0.17259 0.0
H2565 H 0.65836 0.70114 0.17014 0.0
H2566 H 0.6603 0.68219 0.19776 0.0
H2567 H 0.69775 0.74826 0.20013 0.0
C2568 C 0.5866 0.58277 0.18799 0.0
C2569 C 0.59106 0.56531 0.18062 0.0
C2570 C 0.60652 0.62152 0.18885 0.0
C2571 C 0.63206 0.64427 0.18244 0.0
C2572 C 0.63583 0.62676 0.17496 0.0
C2573 C 0.61558 0.58797 0.17406 0.0
C2574 C 0.68938 0.74948 0.17811 0.0
C2575 C 0.70076 0.76371 0.18655 0.0
C2576 C 0.66699 0.71097 0.17672 0.0
C2577 C 0.65555 0.68565 0.18375 0.0
C2578 C 0.66738 0.70028 0.19216 0.0
C2579 C 0.68935 0.73849 0.19353 0.0
H2580 H 0.25747 0.92856 0.997 0.0
H2581 H 0.29577 0.91829 0.02236 0.0
H2582 H 0.28905 0.99534 0.9986 0.0
H2583 H 0.32536 0.98525 0.02434 0.0
H2584 H 0.40587 0.10901 0.02251 0.0
H2585 H 0.37337 0.04209 0.02114 0.0
H2586 H 0.29311 0.04732 1.00421 0.0
H2587 H 0.3276 0.11472 1.00516 0.0
C2588 C 0.27222 0.94062 1.00301 0.0
C2589 C 0.27416 0.91801 1.00954 0.0
C2590 C 0.29022 0.97923 1.00398 0.0
C2591 C 0.31013 0.99663 1.01163 0.0
C2592 C 0.31127 0.97361 0.01826 0.0
C2593 C 0.29393 0.93495 0.01718 0.0
C2594 C 0.38121 0.09585 0.01851 0.0
C2595 C 0.36943 0.1174 0.01394 0.0
C2596 C 0.36219 0.05711 0.01776 0.0
C2597 C 0.33012 0.03836 1.01256 0.0
C2598 C 0.31799 0.06014 1.00813 0.0
C2599 C 0.33762 0.09904 1.00872 0.0
H2600 H 0.0985 0.39637 0.01844 0.0
H2601 H 0.09673 0.31745 1.0 0.0
H2602 H 0.03133 0.35951 0.01986 0.0
H2603 H 0.02962 0.27974 1.0016 0.0
H2604 H 0.9139 0.27136 0.02644 0.0
H2605 H 0.98108 0.30482 0.02536 0.0
H2606 H 0.97296 0.2767 0.99805 0.0
H2607 H 0.90558 0.24215 0.99923 0.0
C2608 C 0.08377 0.37087 0.01476 0.0
C2609 C 0.10304 0.35997 1.00909 0.0
C2610 C 0.04512 0.34949 0.01561 0.0
C2611 C 0.02453 0.31638 1.01084 0.0
C2612 C 0.0441 0.30525 1.00528 0.0
C2613 C 0.08275 0.32675 1.00441 0.0
C2614 C 0.92636 0.27206 0.02021 0.0
C2615 C 0.90404 0.25395 1.01292 0.0
C2616 C 0.96512 0.29162 0.01956 0.0
C2617 C 0.98296 0.29399 1.0116 0.0
C2618 C 0.96058 0.2753 1.00434 0.0
C2619 C 0.92173 0.25552 1.005 0.0
H2620 H 0.75005 0.64568 0.02714 0.0
H2621 H 0.77401 0.66199 0.99961 0.0
H2622 H 0.71622 0.67919 0.02612 0.0
H2623 H 0.73944 0.69481 0.99855 0.0
H2624 H 0.62375 0.70535 0.01925 0.0
H2625 H 0.66012 0.67428 0.02076 0.0
H2626 H 0.73942 0.75034 1.00217 0.0
H2627 H 0.70259 0.78061 1.00054 0.0
C2628 C 0.7482 0.65642 0.02085 0.0
C2629 C 0.76498 0.65099 1.01346 0.0
C2630 C 0.72844 0.67549 0.02025 0.0
C2631 C 0.72475 0.68979 1.01224 0.0
C2632 C 0.74194 0.68475 1.00487 0.0
C2633 C 0.76174 0.66569 1.00547 0.0
C2634 C 0.64906 0.71551 0.01553 0.0
C2635 C 0.66012 0.74537 1.00974 0.0
C2636 C 0.6701 0.69779 0.01641 0.0
C2637 C 0.70283 0.70949 1.01155 0.0
C2638 C 0.71415 0.73993 1.00591 0.0
C2639 C 0.69312 0.75756 1.00502 0.0
H2640 H 0.76508 0.03773 0.85145 0.0
H2641 H 0.76225 0.11624 0.83363 0.0
H2642 H 0.6978 1.00688 0.85297 0.0
H2643 H 0.69523 0.08636 0.83532 0.0
H2644 H 0.5716 1.00051 0.83276 0.0
H2645 H 0.63895 0.03306 0.83156 0.0
H2646 H 0.64704 0.01018 0.85866 0.0
H2647 H 0.57983 0.97675 0.85977 0.0
C2648 C 0.75011 0.04867 0.84793 0.0
C2649 C 0.7691 0.07938 0.8424 0.0
C2650 C 0.71141 0.03108 0.84883 0.0
C2651 C 0.69055 0.04382 0.84424 0.0
C2652 C 0.70988 0.07509 0.83884 0.0
C2653 C 0.74851 0.09252 0.83792 0.0
C2654 C 0.58772 1.00257 0.83848 0.0
C2655 C 0.56999 0.9858 0.84635 0.0
C2656 C 0.62656 0.02148 0.83781 0.0
C2657 C 0.64895 0.02439 0.84501 0.0
C2658 C 0.63108 0.00811 0.85291 0.0
C2659 C 0.59231 0.98908 0.85357 0.0
H2660 H 0.95543 0.69387 0.82695 0.0
H2661 H 0.9465 0.70433 0.85465 0.0
H2662 H 0.98298 0.6553 0.8294 0.0
H2663 H 0.97291 0.66411 0.8572 0.0
H2664 H 0.05822 0.62402 0.85846 0.0
H2665 H 0.02736 0.66012 0.85668 0.0
H2666 H 0.97293 0.59731 0.83356 0.0
H2667 H 1.005 0.56222 0.83518 0.0
C2668 C 0.95898 0.68754 0.8336 0.0
C2669 C 0.94856 0.70214 0.8406 0.0
C2670 C 0.97458 0.665 0.83502 0.0
C2671 C 0.98012 0.65593 0.84352 0.0
C2672 C 0.96954 0.67055 0.85056 0.0
C2673 C 0.95406 0.69344 0.84911 0.0
C2674 C 0.03949 0.61769 0.85301 0.0
C2675 C 0.03439 0.59017 0.84694 0.0
C2676 C 0.02151 0.6384 0.85201 0.0
C2677 C 0.9976 0.63216 0.84493 0.0
C2678 C 0.99168 0.60378 0.839 0.0
C2679 C 1.00991 0.58329 0.83996 0.0
H2680 H 0.32288 0.26656 0.82709 0.0
H2681 H 0.31671 0.24694 0.85477 0.0
H2682 H 0.36173 0.33253 0.82949 0.0
H2683 H 0.35721 0.31371 0.85726 0.0
H2684 H 0.3971 0.43955 0.85842 0.0
H2685 H 0.36087 0.3725 0.85685 0.0
H2686 H 0.42086 0.37971 0.8333 0.0
H2687 H 0.45612 0.44693 0.83473 0.0
C2688 C 0.33016 0.27637 0.83373 0.0
C2689 C 0.31669 0.25134 0.84074 0.0
C2690 C 0.35289 0.31444 0.83511 0.0
C2691 C 0.3633 0.32899 0.84357 0.0
C2692 C 0.34972 0.30385 0.85063 0.0
C2693 C 0.32663 0.26547 0.84923 0.0
C2694 C 0.40278 0.42688 0.85293 0.0
C2695 C 0.42952 0.44896 0.84667 0.0
C2696 C 0.38202 0.38816 0.85205 0.0
C2697 C 0.3874 0.37018 0.8449 0.0
C2698 C 0.41508 0.39229 0.8388 0.0
C2699 C 0.43564 0.43102 0.83965 0.0
H2700 H 0.67178 0.90129 0.02721 0.0
H2701 H 0.65102 0.90912 0.99996 0.0
H2702 H 0.70433 0.96871 0.02834 0.0
H2703 H 0.68437 0.97639 1.00101 0.0
H2704 H 0.70981 0.09406 1.00801 0.0
H2705 H 0.67958 0.02677 1.00656 0.0
H2706 H 0.75815 0.02515 0.02465 0.0
H2707 H 0.78749 0.09224 0.02627 0.0
C2708 C 0.67453 0.91734 0.02142 0.0
C2709 C 0.65856 0.89949 1.0135 0.0
C2710 C 0.69341 0.9562 0.02206 0.0
C2711 C 0.69704 0.97846 0.01478 0.0
C2712 C 0.68168 0.96049 1.00682 0.0
C2713 C 0.66271 0.9217 1.0062 0.0
C2714 C 0.72069 0.07931 1.01165 0.0
C2715 C 0.75099 0.09857 0.01728 0.0
C2716 C 0.70347 0.04061 1.01078 0.0
C2717 C 0.71615 0.02004 0.01551 0.0
C2718 C 0.74699 0.03962 0.02102 0.0
C2719 C 0.76409 0.07827 0.0219 0.0
H2720 H 0.93218 0.67855 0.03212 0.0
H2721 H 0.92155 0.62696 1.00715 0.0
H2722 H 0.99794 0.71888 0.02969 0.0
H2723 H 0.98839 0.66557 1.00487 0.0
H2724 H 0.10816 0.75594 1.00035 0.0
H2725 H 0.04095 0.72099 1.00192 0.0
H2726 H 0.05365 0.72233 0.02991 0.0
H2727 H 0.12027 0.75909 0.02828 0.0
C2728 C 0.94409 0.67574 0.02609 0.0
C2729 C 0.92163 0.64952 0.01984 0.0
C2730 C 0.98217 0.69867 0.02472 0.0
C2731 C 0.99946 0.69549 0.01714 0.0
C2732 C 0.97659 0.66952 1.01077 0.0
C2733 C 0.93813 0.6471 1.01207 0.0
C2734 C 0.09646 0.74911 1.00684 0.0
C2735 C 0.11978 0.76071 0.01419 0.0
C2736 C 0.05771 0.72862 1.00776 0.0
C2737 C 0.04102 0.71843 0.01606 0.0
C2738 C 0.06469 0.73013 0.02339 0.0
C2739 C 0.10329 0.75122 0.02247 0.0
H2740 H 0.30428 0.39996 1.00501 0.0
H2741 H 0.22161 0.32343 0.02286 0.0
H2742 H 0.33896 0.36786 1.00656 0.0
H2743 H 0.25485 0.28925 0.024 0.0
H2744 H 0.33933 0.25454 0.03112 0.0
H2745 H 0.30329 0.28544 0.02951 0.0
H2746 H 0.34728 0.31956 1.00349 0.0
H2747 H 0.38535 0.29087 1.00549 0.0
C2748 C 0.2931 0.37573 1.00916 0.0
C2749 C 0.26004 0.36433 0.0138 0.0
C2750 C 0.31298 0.35692 1.01002 0.0
C2751 C 0.3001 0.32539 0.01539 0.0
C2752 C 0.26652 0.31368 0.01993 0.0
C2753 C 0.24707 0.33312 0.01922 0.0
C2754 C 0.34124 0.26867 0.02506 0.0
C2755 C 0.36537 0.27036 0.01845 0.0
C2756 C 0.32021 0.28628 0.02408 0.0
C2757 C 0.32194 0.3055 0.01636 0.0
C2758 C 0.34551 0.30614 1.00965 0.0
C2759 C 0.36721 0.28926 1.01073 0.0
H2760 H 0.11581 0.32007 0.52276 0.0
H2761 H 0.10987 0.39711 0.50502 0.0
H2762 H 0.04847 0.28595 0.52385 0.0
H2763 H 0.04312 0.36511 0.50654 0.0
H2764 H 0.91919 0.28842 0.5057 0.0
H2765 H 0.98598 0.31763 0.50361 0.0
H2766 H 0.9966 0.28197 0.5294 0.0
H2767 H 0.92989 0.25065 0.53108 0.0
C2768 C 0.1001 0.32989 0.51914 0.0
C2769 C 0.11839 0.36124 0.51376 0.0
C2770 C 0.06123 0.3105 0.51981 0.0
C2771 C 0.03939 0.32243 0.51532 0.0
C2772 C 0.0581 0.35404 0.50997 0.0
C2773 C 0.09679 0.37278 0.50914 0.0
C2774 C 0.93592 0.28664 0.51087 0.0
C2775 C 0.91911 0.26708 0.51854 0.0
C2776 C 0.97452 0.30378 0.50973 0.0
C2777 C 0.99768 0.30271 0.51634 0.0
C2778 C 0.98042 0.28308 0.52402 0.0
C2779 C 0.94184 0.26524 0.52505 0.0
H2780 H 0.66032 0.76269 0.52712 0.0
H2781 H 0.65415 0.74695 0.49927 0.0
H2782 H 0.69131 0.72695 0.52852 0.0
H2783 H 0.68749 0.71281 0.50055 0.0
H2784 H 0.71671 0.62139 0.50673 0.0
H2785 H 0.68742 0.65912 0.50435 0.0
H2786 H 0.74364 0.72414 0.52713 0.0
H2787 H 0.77022 0.68489 0.52973 0.0
C2788 C 0.66632 0.75226 0.52124 0.0
C2789 C 0.65482 0.75806 0.51308 0.0
C2790 C 0.6845 0.73174 0.52203 0.0
C2791 C 0.6927 0.71686 0.51465 0.0
C2792 C 0.6815 0.72311 0.50644 0.0
C2793 C 0.66258 0.74309 0.50568 0.0
C2794 C 0.72289 0.644 0.51115 0.0
C2795 C 0.74561 0.65002 0.51844 0.0
C2796 C 0.70616 0.66585 0.5098 0.0
C2797 C 0.71231 0.69474 0.51562 0.0
C2798 C 0.73674 0.7016 0.52264 0.0
C2799 C 0.75256 0.6793 0.52409 0.0
H2800 H 0.2662 0.91076 0.50024 0.0
H2801 H 0.2592 0.89874 0.52817 0.0
H2802 H 0.30064 0.978 0.5018 0.0
H2803 H 0.29549 0.96545 0.52982 0.0
H2804 H 0.33884 0.08704 0.53187 0.0
H2805 H 0.2991 0.02117 0.5294 0.0
H2806 H 0.3551 0.03102 0.50498 0.0
H2807 H 0.39312 0.09792 0.50729 0.0
C2808 C 0.27212 0.92248 0.50673 0.0
C2809 C 0.25955 0.89914 0.51407 0.0
C2810 C 0.29232 0.96128 0.50765 0.0
C2811 C 0.30128 0.97806 0.51596 0.0
C2812 C 0.28867 0.95437 0.52329 0.0
C2813 C 0.26786 0.91571 0.52236 0.0
C2814 C 0.34233 0.07517 0.52592 0.0
C2815 C 0.36915 0.09777 0.51978 0.0
C2816 C 0.31976 0.03702 0.52453 0.0
C2817 C 0.32386 0.01973 0.51704 0.0
C2818 C 0.3504 0.04275 0.51079 0.0
C2819 C 0.37248 0.08129 0.51211 0.0
H2820 H 0.06937 0.44132 0.35512 0.0
H2821 H 0.99207 0.44726 0.33747 0.0
H2822 H 0.03701 0.37451 0.35371 0.0
H2823 H 0.95765 0.37979 0.33647 0.0
H2824 H 0.92193 0.26014 0.32961 0.0
H2825 H 0.95321 0.32711 0.33106 0.0
H2826 H 0.98879 0.31819 0.35698 0.0
H2827 H 0.95965 0.2513 0.35515 0.0
C2828 C 0.04493 0.42823 0.35104 0.0
C2829 C 0.03337 0.44984 0.34642 0.0
C2830 C 0.02597 0.38952 0.35027 0.0
C2831 C 0.99412 0.37078 0.345 0.0
C2832 C 0.9823 0.39261 0.34047 0.0
C2833 C 1.00189 0.43153 0.34109 0.0
C2834 C 0.93646 0.27255 0.33562 0.0
C2835 C 0.93839 0.25031 0.34226 0.0
C2836 C 0.9543 0.31124 0.33651 0.0
C2837 C 0.97402 0.32901 0.34415 0.0
C2838 C 0.97495 0.30631 0.35088 0.0
C2839 C 0.95782 0.26766 0.3499 0.0
H2840 H 0.7658 0.7134 0.3553 0.0
H2841 H 0.75667 0.66678 0.32975 0.0
H2842 H 0.69903 0.67546 0.3572 0.0
H2843 H 0.68976 0.63088 0.33127 0.0
H2844 H 0.57002 0.54931 0.33782 0.0
H2845 H 0.63743 0.58254 0.33676 0.0
H2846 H 0.64255 0.66714 0.354 0.0
H2847 H 0.57581 0.63251 0.35548 0.0
C2848 C 0.7494 0.69516 0.35006 0.0
C2849 C 0.76662 0.69311 0.34239 0.0
C2850 C 0.71081 0.67353 0.35108 0.0
C2851 C 0.68805 0.64982 0.34437 0.0
C2852 C 0.7057 0.64791 0.3367 0.0
C2853 C 0.74433 0.66886 0.33577 0.0
C2854 C 0.58571 0.57488 0.34143 0.0
C2855 C 0.56739 0.588 0.34678 0.0
C2856 C 0.62458 0.59432 0.34077 0.0
C2857 C 0.64634 0.62802 0.34528 0.0
C2858 C 0.62759 0.64106 0.35057 0.0
C2859 C 0.58892 0.62121 0.35138 0.0
H2860 H 0.34742 0.09063 0.32952 0.0
H2861 H 0.30582 0.05864 0.35563 0.0
H2862 H 0.38284 0.05914 0.33098 0.0
H2863 H 0.3436 0.02953 0.35748 0.0
H2864 H 0.38736 0.94952 0.35632 0.0
H2865 H 0.35244 0.98149 0.35492 0.0
H2866 H 0.43145 0.05512 0.33586 0.0
H2867 H 0.46453 0.02084 0.33685 0.0
C2868 C 0.34639 0.07735 0.33566 0.0
C2869 C 0.32368 0.07711 0.34245 0.0
C2870 C 0.36712 0.05939 0.33655 0.0
C2871 C 0.36668 0.04134 0.34437 0.0
C2872 C 0.34442 0.04202 0.35125 0.0
C2873 C 0.32289 0.05916 0.35025 0.0
C2874 C 0.39732 0.97263 0.35184 0.0
C2875 C 0.42885 0.98255 0.3467 0.0
C2876 C 0.37732 0.99139 0.35106 0.0
C2877 C 0.38863 0.02147 0.34527 0.0
C2878 C 0.42081 0.03176 0.34026 0.0
C2879 C 0.44024 0.01228 0.34087 0.0
H2880 H 0.11149 0.34067 0.07441 0.0
H2881 H 0.22794 0.37604 0.07589 0.0
H2882 H 0.10488 0.32587 0.08986 0.0
H2883 H 0.22158 0.36258 0.09148 0.0
H2884 H 0.18845 0.29994 0.11775 0.0
H2885 H 0.19598 0.3133 0.10216 0.0
H2886 H 0.12023 0.35537 0.10379 0.0
H2887 H 0.11158 0.3407 0.11924 0.0
C2888 C 0.13573 0.3451 0.078 0.0
C2889 C 0.17027 0.35951 0.07381 0.0
C2890 C 0.13202 0.33708 0.08694 0.0
C2891 C 0.16271 0.3432 0.09201 0.0
C2892 C 0.1972 0.35719 0.08782 0.0
C2893 C 0.20094 0.36531 0.07886 0.0
C2894 C 0.1732 0.31183 0.11478 0.0
C2895 C 0.14938 0.31918 0.11984 0.0
C2896 C 0.17783 0.31988 0.10583 0.0
C2897 C 0.15864 0.33536 0.10163 0.0
C2898 C 0.13512 0.343 0.10671 0.0
C2899 C 0.13056 0.33504 0.11565 0.0
H2900 H 0.60505 0.80621 0.07802 0.0
H2901 H 0.7166 0.83158 0.07216 0.0
H2902 H 0.62045 0.81595 0.09345 0.0
H2903 H 0.73143 0.83936 0.08762 0.0
H2904 H 0.75773 0.88033 0.11557 0.0
H2905 H 0.74265 0.87685 0.10014 0.0
H2906 H 0.63191 0.7878 0.1055 0.0
H2907 H 0.64638 0.79261 0.12095 0.0
C2908 C 0.63298 0.81413 0.07998 0.0
C2909 C 0.65947 0.81801 0.07375 0.0
C2910 C 0.64171 0.8192 0.0889 0.0
C2911 C 0.6772 0.82823 0.09189 0.0
C2912 C 0.70389 0.83279 0.08563 0.0
C2913 C 0.6952 0.82782 0.07672 0.0
C2914 C 0.72994 0.86042 0.1135 0.0
C2915 C 0.70339 0.83673 0.1196 0.0
C2916 C 0.7214 0.85805 0.10459 0.0
C2917 C 0.68603 0.83188 0.10147 0.0
C2918 C 0.65933 0.80861 0.10759 0.0
C2919 C 0.66783 0.81104 0.11649 0.0
H2920 H 0.24013 0.88443 0.1204 0.0
H2921 H 0.12251 0.83885 0.11679 0.0
H2922 H 0.2467 0.87478 0.10502 0.0
H2923 H 0.12926 0.82963 0.10135 0.0
H2924 H 0.16348 0.85775 0.07241 0.0
H2925 H 0.15498 0.86435 0.08792 0.0
H2926 H 0.23226 0.82733 0.09415 0.0
H2927 H 0.24156 0.82179 0.07867 0.0
C2928 C 0.2155 0.87184 0.11638 0.0
C2929 C 0.18073 0.8624 0.11994 0.0
C2930 C 0.21932 0.86638 0.10751 0.0
C2931 C 0.18855 0.85143 0.10188 0.0
C2932 C 0.15372 0.84173 0.10543 0.0
C2933 C 0.14986 0.84705 0.11432 0.0
C2934 C 0.17877 0.85112 0.07708 0.0
C2935 C 0.20324 0.83922 0.07423 0.0
C2936 C 0.17361 0.85456 0.086 0.0
C2937 C 0.19296 0.84646 0.09235 0.0
C2938 C 0.21715 0.83424 0.08949 0.0
C2939 C 0.22215 0.8306 0.08058 0.0
H2940 H 0.37143 0.21923 0.45216 0.0
H2941 H 0.35268 0.10753 0.45206 0.0
H2942 H 0.3584 0.2146 0.43654 0.0
H2943 H 0.33846 0.10247 0.43659 0.0
H2944 H 0.35273 0.11667 0.40731 0.0
H2945 H 0.3678 0.12449 0.42274 0.0
H2946 H 0.30929 0.18487 0.42583 0.0
H2947 H 0.2954 0.17831 0.41025 0.0
C2948 C 0.36449 0.19366 0.44883 0.0
C2949 C 0.36309 0.16376 0.45345 0.0
C2950 C 0.35664 0.19086 0.43987 0.0
C2951 C 0.34743 0.15818 0.43523 0.0
C2952 C 0.3459 0.12829 0.43986 0.0
C2953 C 0.35359 0.13102 0.44881 0.0
C2954 C 0.34352 0.13217 0.41121 0.0
C2955 C 0.32284 0.14689 0.40744 0.0
C2956 C 0.35176 0.13621 0.42014 0.0
C2957 C 0.33959 0.1551 0.42562 0.0
C2958 C 0.3194 0.17036 0.42184 0.0
C2959 C 0.31108 0.16625 0.41289 0.0
H2960 H 0.9112 0.24102 0.40819 0.0
H2961 H 0.83076 0.12432 0.40944 0.0
H2962 H 0.90257 0.24707 0.42365 0.0
H2963 H 0.82316 0.13013 0.42504 0.0
H2964 H 0.79227 0.16176 0.45133 0.0
H2965 H 0.79882 0.15492 0.43573 0.0
H2966 H 0.91621 0.23177 0.43763 0.0
H2967 H 0.90946 0.2397 0.45309 0.0
C2968 C 0.89145 0.21659 0.41173 0.0
C2969 C 0.87162 0.18216 0.40746 0.0
C2970 C 0.88687 0.21999 0.42068 0.0
C2971 C 0.86228 0.18908 0.4257 0.0
C2972 C 0.84214 0.15468 0.42143 0.0
C2973 C 0.84681 0.15126 0.41246 0.0
C2974 C 0.81947 0.17742 0.44842 0.0
C2975 C 0.85029 0.20131 0.45357 0.0
C2976 C 0.82331 0.17317 0.43946 0.0
C2977 C 0.85807 0.19283 0.43533 0.0
C2978 C 0.88888 0.21649 0.44049 0.0
C2979 C 0.88507 0.22065 0.44944 0.0
H2980 H 0.8742 0.75354 0.41147 0.0
H2981 H 0.80719 0.63683 0.40578 0.0
H2982 H 0.86982 0.73965 0.42698 0.0
H2983 H 0.80142 0.62307 0.42131 0.0
H2984 H 0.82288 0.60582 0.44947 0.0
H2985 H 0.83339 0.62123 0.43404 0.0
H2986 H 0.82664 0.71987 0.43875 0.0
H2987 H 0.81785 0.70535 0.45424 0.0
C2988 C 0.85874 0.72485 0.4135 0.0
C2989 C 0.84109 0.69637 0.40729 0.0
C2990 C 0.85579 0.7169 0.42244 0.0
C2991 C 0.83508 0.68019 0.42548 0.0
C2992 C 0.81793 0.65165 0.41927 0.0
C2993 C 0.82088 0.65961 0.41033 0.0
C2994 C 0.82429 0.63117 0.44727 0.0
C2995 C 0.81947 0.65427 0.45318 0.0
C2996 C 0.82982 0.63977 0.43836 0.0
C2997 C 0.8307 0.67175 0.43506 0.0
C2998 C 0.82652 0.69519 0.441 0.0
C2999 C 0.82101 0.6866 0.44991 0.0
H3000 H 0.82809 0.70421 0.90888 0.0
H3001 H 0.91733 0.67989 0.90838 0.0
H3002 H 0.82069 0.69158 0.92454 0.0
H3003 H 0.90921 0.66623 0.92389 0.0
H3004 H 0.91351 0.68311 0.95314 0.0
H3005 H 0.91946 0.69746 0.93767 0.0
H3006 H 0.80045 0.64173 0.93528 0.0
H3007 H 0.79446 0.62844 0.95089 0.0
C3008 C 0.8461 0.69613 0.91209 0.0
C3009 C 0.87327 0.69303 0.90731 0.0
C3010 C 0.84163 0.68854 0.92107 0.0
C3011 C 0.86442 0.67796 0.92554 0.0
C3012 C 0.89143 0.67474 0.92074 0.0
C3013 C 0.89577 0.68212 0.91178 0.0
C3014 C 0.88853 0.67435 0.94938 0.0
C3015 C 0.85347 0.65464 0.95335 0.0
C3016 C 0.89196 0.68218 0.94044 0.0
C3017 C 0.86046 0.67057 0.93515 0.0
C3018 C 0.82537 0.65135 0.93913 0.0
C3019 C 0.82192 0.64339 0.94809 0.0
H3020 H 0.26412 0.16462 0.91208 0.0
H3021 H 0.37502 0.1881 0.90619 0.0
H3022 H 0.2783 0.16993 0.92759 0.0
H3023 H 0.38959 0.19459 0.92172 0.0
H3024 H 0.39291 0.16977 0.95079 0.0
H3025 H 0.37723 0.16069 0.93533 0.0
H3026 H 0.31416 0.21643 0.93836 0.0
H3027 H 0.33005 0.22585 0.95376 0.0
C3028 C 0.29149 0.17064 0.91408 0.0
C3029 C 0.31835 0.17584 0.90781 0.0
C3030 C 0.29979 0.17416 0.92301 0.0
C3031 C 0.3352 0.18288 0.92598 0.0
C3032 C 0.36192 0.18755 0.91972 0.0
C3033 C 0.35366 0.18419 0.91078 0.0
C3034 C 0.37586 0.18031 0.94817 0.0
C3035 C 0.3628 0.19854 0.95362 0.0
C3036 C 0.36685 0.17508 0.93927 0.0
C3037 C 0.34436 0.18778 0.93553 0.0
C3038 C 0.33101 0.20567 0.94099 0.0
C3039 C 0.34011 0.21101 0.94987 0.0
H3040 H 0.79832 0.16449 0.90553 0.0
H3041 H 0.88504 0.13913 0.91076 0.0
H3042 H 0.79269 0.17239 0.92104 0.0
H3043 H 0.88084 0.14908 0.92624 0.0
H3044 H 0.83491 0.12728 0.9541 0.0
H3045 H 0.843 0.12178 0.93859 0.0
H3046 H 0.81994 0.21015 0.9334 0.0
H3047 H 0.80982 0.21423 0.94887 0.0
C3048 C 0.81637 0.16074 0.90996 0.0
C3049 C 0.84203 0.15092 0.90679 0.0
C3050 C 0.81347 0.1658 0.91891 0.0
C3051 C 0.83624 0.16138 0.92501 0.0
C3052 C 0.86239 0.15225 0.92182 0.0
C3053 C 0.8652 0.14707 0.91287 0.0
C3054 C 0.83126 0.14542 0.94967 0.0
C3055 C 0.82146 0.1711 0.95284 0.0
C3056 C 0.83642 0.14259 0.94072 0.0
C3057 C 0.83211 0.16544 0.93463 0.0
C3058 C 0.82302 0.19162 0.93782 0.0
C3059 C 0.81774 0.19436 0.94676 0.0
H3060 H 0.70682 0.87632 0.57264 0.0
H3061 H 0.59027 0.81294 0.57873 0.0
H3062 H 0.72151 0.88273 0.58811 0.0
H3063 H 0.60505 0.81782 0.5942 0.0
H3064 H 0.6421 0.86996 0.62136 0.0
H3065 H 0.62646 0.86075 0.60594 0.0
H3066 H 0.72351 0.85167 0.60088 0.0
H3067 H 0.74017 0.86279 0.61623 0.0
C3068 C 0.68424 0.86359 0.57726 0.0
C3069 C 0.64726 0.84422 0.57435 0.0
C3070 C 0.69273 0.86687 0.58618 0.0
C3071 C 0.66455 0.85085 0.5925 0.0
C3072 C 0.62759 0.831 0.58958 0.0
C3073 C 0.61909 0.82774 0.58066 0.0
C3074 C 0.66031 0.86625 0.61697 0.0
C3075 C 0.6926 0.86737 0.62013 0.0
C3076 C 0.65104 0.86046 0.6081 0.0
C3077 C 0.67368 0.85551 0.60207 0.0
C3078 C 0.70557 0.85589 0.60525 0.0
C3079 C 0.71488 0.86175 0.61413 0.0
H3080 H 0.22488 0.83766 0.57674 0.0
H3081 H 0.10674 0.78507 0.57275 0.0
H3082 H 0.21621 0.84428 0.59218 0.0
H3083 H 0.09827 0.7935 0.58809 0.0
H3084 H 0.09075 0.77941 0.61765 0.0
H3085 H 0.09995 0.77143 0.60229 0.0
H3086 H 0.20097 0.87739 0.60231 0.0
H3087 H 0.19281 0.88441 0.61773 0.0
C3088 C 0.19702 0.82759 0.57913 0.0
C3089 C 0.16656 0.81077 0.57342 0.0
C3090 C 0.19206 0.8318 0.58801 0.0
C3091 C 0.15648 0.81944 0.59146 0.0
C3092 C 0.12605 0.80294 0.58574 0.0
C3093 C 0.13101 0.79863 0.57687 0.0
C3094 C 0.1152 0.80081 0.61442 0.0
C3095 C 0.14093 0.83263 0.619 0.0
C3096 C 0.12024 0.79647 0.60554 0.0
C3097 C 0.15117 0.82382 0.60097 0.0
C3098 C 0.177 0.85549 0.60558 0.0
C3099 C 0.17202 0.85977 0.61444 0.0
H3100 H 0.1763 0.39207 0.57747 0.0
H3101 H 0.22747 0.32484 0.57402 0.0
H3102 H 0.16794 0.37655 0.59293 0.0
H3103 H 0.21881 0.30914 0.58943 0.0
H3104 H 0.16811 0.26061 0.6159 0.0
H3105 H 0.17293 0.27483 0.6004 0.0
H3106 H 0.20225 0.38746 0.6064 0.0
H3107 H 0.19621 0.37288 0.62192 0.0
C3108 C 0.18593 0.3741 0.57998 0.0
C3109 C 0.20255 0.35976 0.57439 0.0
C3110 C 0.18112 0.36517 0.58889 0.0
C3111 C 0.19265 0.34152 0.59251 0.0
C3112 C 0.20896 0.32692 0.58691 0.0
C3113 C 0.21387 0.33592 0.57801 0.0
C3114 C 0.17506 0.2883 0.61394 0.0
C3115 C 0.18168 0.31551 0.62024 0.0
C3116 C 0.17831 0.29662 0.60501 0.0
C3117 C 0.18816 0.3324 0.60207 0.0
C3118 C 0.19429 0.3595 0.60836 0.0
C3119 C 0.1912 0.35122 0.6173 0.0
H3120 H 0.97348 0.5219 0.74271 0.0
H3121 H 0.01113 0.4425 0.74127 0.0
H3122 H 0.98648 0.52895 0.75832 0.0
H3123 H 0.02542 0.45062 0.75675 0.0
H3124 H 1.01017 0.44209 0.78612 0.0
H3125 H 0.99573 0.43592 0.77065 0.0
H3126 H 0.03555 0.55333 0.76905 0.0
H3127 H 0.04869 0.55929 0.78466 0.0
C3128 C 0.98461 0.50598 0.74569 0.0
C3129 C 0.99121 0.48162 0.74064 0.0
C3130 C 0.99245 0.51033 0.75466 0.0
C3131 C 1.00696 0.4903 0.75888 0.0
C3132 C 0.01382 0.46619 0.75381 0.0
C3133 C 1.00608 0.46192 0.74486 0.0
C3134 C 0.01538 0.46659 0.78253 0.0
C3135 C 0.03056 0.50121 0.78673 0.0
C3136 C 1.00755 0.46312 0.77358 0.0
C3137 C 0.01463 0.49413 0.76851 0.0
C3138 C 0.02941 0.52871 0.77271 0.0
C3139 C 0.03734 0.53221 0.78168 0.0
H3140 H 0.54605 0.46737 0.74419 0.0
H3141 H 0.52284 0.55574 0.73917 0.0
H3142 H 0.53548 0.47083 0.75967 0.0
H3143 H 0.51434 0.56061 0.75468 0.0
H3144 H 0.47185 0.54297 0.78243 0.0
H3145 H 0.47602 0.5332 0.76694 0.0
H3146 H 0.56283 0.5079 0.77212 0.0
H3147 H 0.55719 0.51561 0.78764 0.0
C3148 C 0.53844 0.48741 0.74635 0.0
C3149 C 0.5354 0.51128 0.74033 0.0
C3150 C 0.53291 0.48979 0.75529 0.0
C3151 C 0.52424 0.5162 0.75854 0.0
C3152 C 0.52057 0.53963 0.7525 0.0
C3153 C 0.52597 0.53716 0.74355 0.0
C3154 C 0.49137 0.53462 0.78031 0.0
C3155 C 0.51419 0.53018 0.78639 0.0
C3156 C 0.49417 0.52954 0.77136 0.0
C3157 C 0.51998 0.51996 0.76816 0.0
C3158 C 0.54233 0.51488 0.77426 0.0
C3159 C 0.53943 0.51982 0.78321 0.0
H3160 H 0.56679 0.04916 0.74271 0.0
H3161 H 0.44956 0.00984 0.74097 0.0
H3162 H 0.5602 0.03534 0.75829 0.0
H3163 H 0.44279 0.99478 0.75641 0.0
H3164 H 0.44804 0.00942 0.78577 0.0
H3165 H 0.45707 0.02453 0.77034 0.0
H3166 H 0.53524 0.9854 0.76888 0.0
H3167 H 0.52726 0.97155 0.78445 0.0
C3168 C 0.53958 0.03748 0.74562 0.0
C3169 C 0.50874 0.03066 0.74051 0.0
C3170 C 0.53573 0.02918 0.75457 0.0
C3171 C 0.50096 0.01402 0.75868 0.0
C3172 C 0.47012 1.00689 0.75354 0.0
C3173 C 0.47394 0.01508 0.74461 0.0
C3174 C 0.46763 1.00451 0.78222 0.0
C3175 C 0.48698 0.98931 0.78644 0.0
C3176 C 0.47242 0.01273 0.7733 0.0
C3177 C 0.49672 1.006 0.76828 0.0
C3178 C 0.51648 0.99123 0.77251 0.0
C3179 C 0.5116 0.98292 0.78145 0.0
H3180 H 0.55503 0.08737 0.24481 0.0
H3181 H 0.50917 0.97084 0.23941 0.0
H3182 H 0.54664 0.07414 0.26034 0.0
H3183 H 0.50261 0.95782 0.25497 0.0
H3184 H 0.46717 0.94002 0.28332 0.0
H3185 H 0.46986 0.95437 0.26787 0.0
H3186 H 0.5717 0.0573 0.2721 0.0
H3187 H 0.56788 0.04397 0.2876 0.0
C3188 C 0.54288 0.05884 0.2469 0.0
C3189 C 0.53282 0.03025 0.24076 0.0
C3190 C 0.53856 0.05128 0.25587 0.0
C3191 C 0.52413 0.01486 0.25901 0.0
C3192 C 0.51347 0.98618 0.25286 0.0
C3193 C 0.5177 0.99374 0.24389 0.0
C3194 C 0.4898 0.96608 0.28101 0.0
C3195 C 0.51733 0.99071 0.28681 0.0
C3196 C 0.49166 0.97409 0.27208 0.0
C3197 C 0.52115 1.00696 0.26863 0.0
C3198 C 0.5483 0.03188 0.27445 0.0
C3199 C 0.54637 0.02395 0.28338 0.0
H3200 H 0.97333 0.5207 0.28776 0.0
H3201 H 0.08396 0.54128 0.28275 0.0
H3202 H 0.95992 0.51232 0.27224 0.0
H3203 H 0.06985 0.53085 0.26727 0.0
H3204 H 0.04754 0.55284 0.23926 0.0
H3205 H 0.06088 0.55862 0.25479 0.0
H3206 H 0.94819 0.47353 0.26003 0.0
H3207 H 0.93431 0.46922 0.24453 0.0
C3208 C 0.99483 0.52329 0.28338 0.0
C3209 C 0.02988 0.53192 0.28661 0.0
C3210 C 0.98692 0.51795 0.27443 0.0
C3211 C 0.01373 0.52091 0.26839 0.0
C3212 C 0.04855 0.52883 0.27164 0.0
C3213 C 0.0565 0.53429 0.28059 0.0
C3214 C 0.02544 0.53549 0.24371 0.0
C3215 C 0.98971 0.51067 0.24054 0.0
C3216 C 0.03327 0.53847 0.25266 0.0
C3217 C 1.00568 0.51663 0.25877 0.0
C3218 C 0.97014 0.49128 0.25559 0.0
C3219 C 0.96228 0.48839 0.24664 0.0
H3220 H 0.44225 0.43931 0.2416 0.0
H3221 H 0.55866 0.52083 0.24252 0.0
H3222 H 0.43696 0.44789 0.25709 0.0
H3223 H 0.55362 0.52844 0.25816 0.0
H3224 H 0.52133 0.55875 0.28452 0.0
H3225 H 0.52807 0.55235 0.2689 0.0
H3226 H 0.45421 0.43432 0.27091 0.0
H3227 H 0.44637 0.44085 0.28638 0.0
C3228 C 0.46676 0.45929 0.24508 0.0
C3229 C 0.50088 0.47946 0.24073 0.0
C3230 C 0.46381 0.46384 0.25403 0.0
C3231 C 0.49489 0.48871 0.25895 0.0
C3232 C 0.52899 0.50922 0.2546 0.0
C3233 C 0.53197 0.50458 0.24562 0.0
C3234 C 0.50637 0.53144 0.28163 0.0
C3235 C 0.48328 0.50036 0.28678 0.0
C3236 C 0.51054 0.52771 0.27266 0.0
C3237 C 0.49158 0.49281 0.26857 0.0
C3238 C 0.46888 0.46173 0.27376 0.0
C3239 C 0.46479 0.46543 0.2827 0.0
H3240 H 0.95858 0.20126 0.28279 0.0
H3241 H 0.99658 0.12272 0.28598 0.0
H3242 H 0.98464 0.21532 0.26813 0.0
H3243 H 0.02092 0.13538 0.27123 0.0
H3244 H 0.09271 0.19035 0.2475 0.0
H3245 H 0.06858 0.17948 0.26228 0.0
H3246 H 0.97669 0.19171 0.25364 0.0
H3247 H 1.0012 0.20301 0.23882 0.0
C3248 C 0.97259 0.18703 0.28041 0.0
C3249 C 0.97529 0.16075 0.28567 0.0
C3250 C 0.98716 0.19476 0.27191 0.0
C3251 C 1.00498 0.17652 0.26838 0.0
C3252 C 1.00789 0.15045 0.27368 0.0
C3253 C 0.99339 0.14277 0.28216 0.0
C3254 C 0.06717 0.19044 0.24871 0.0
C3255 C 0.04888 0.19733 0.24187 0.0
C3256 C 0.05323 0.18414 0.25724 0.0
C3257 C 0.02038 0.18438 0.25926 0.0
C3258 C 1.00227 0.19173 0.25243 0.0
C3259 C 0.01634 0.19817 0.24389 0.0
H3260 H 0.85434 0.87072 0.28976 0.0
H3261 H 0.84776 0.77013 0.28023 0.0
H3262 H 0.84162 0.88443 0.27516 0.0
H3263 H 0.83526 0.78391 0.26561 0.0
H3264 H 0.78153 0.8027 0.24164 0.0
H3265 H 0.79097 0.78793 0.25646 0.0
H3266 H 0.86896 0.90356 0.26112 0.0
H3267 H 0.85824 0.9185 0.24648 0.0
C3268 C 0.85041 0.85158 0.28455 0.0
C3269 C 0.85219 0.81929 0.28624 0.0
C3270 C 0.84313 0.85949 0.27614 0.0
C3271 C 0.83748 0.83541 0.26912 0.0
C3272 C 0.83886 0.80291 0.27083 0.0
C3273 C 0.84606 0.79497 0.27925 0.0
C3274 C 0.80037 0.82508 0.24585 0.0
C3275 C 0.81911 0.86186 0.24278 0.0
C3276 C 0.80616 0.81653 0.25435 0.0
C3277 C 0.83083 0.84447 0.26006 0.0
C3278 C 0.84942 0.88124 0.257 0.0
C3279 C 0.84363 0.88979 0.24851 0.0
H3280 H 0.14693 0.99609 0.2883 0.0
H3281 H 0.2557 0.08265 0.28059 0.0
H3282 H 0.13525 0.97176 0.27349 0.0
H3283 H 0.244 0.05834 0.26577 0.0
H3284 H 0.22363 0.98496 0.24171 0.0
H3285 H 0.23618 0.00807 0.25665 0.0
H3286 H 0.1235 0.98515 0.25909 0.0
H3287 H 0.11057 0.96069 0.24432 0.0
C3288 C 0.16834 0.01014 0.28345 0.0
C3289 C 0.20228 0.04151 0.28571 0.0
C3290 C 0.1616 0.99615 0.27491 0.0
C3291 C 0.18856 0.01306 0.26835 0.0
C3292 C 0.22269 0.04415 0.27063 0.0
C3293 C 0.22943 0.05814 0.27917 0.0
C3294 C 0.20139 0.98452 0.24545 0.0
C3295 C 0.16603 0.97086 0.24173 0.0
C3296 C 0.20873 0.99821 0.25402 0.0
C3297 C 0.18091 0.99857 0.25916 0.0
C3298 C 0.14559 0.98498 0.25542 0.0
C3299 C 0.13828 0.97137 0.24686 0.0
H3300 H 0.98407 0.78021 0.78564 0.0
H3301 H 0.96139 0.87001 0.78261 0.0
H3302 H 1.00995 0.79157 0.77098 0.0
H3303 H 0.98882 0.88247 0.76815 0.0
H3304 H 1.00612 0.87293 0.73918 0.0
H3305 H 0.97859 0.85911 0.75367 0.0
H3306 H 0.06194 0.8338 0.76241 0.0
H3307 H 0.08929 0.84738 0.74789 0.0
C3308 C 0.98453 0.80238 0.78187 0.0
C3309 C 0.97049 0.82412 0.78539 0.0
C3310 C 0.99986 0.80922 0.77347 0.0
C3311 C 1.00162 0.83801 0.7683 0.0
C3312 C 0.98761 0.85975 0.77183 0.0
C3313 C 0.97228 0.8529 0.78022 0.0
C3314 C 0.01875 0.86462 0.7442 0.0
C3315 C 0.05011 0.86145 0.74231 0.0
C3316 C 1.00295 0.85671 0.75254 0.0
C3317 C 0.01802 0.84547 0.7593 0.0
C3318 C 0.04913 0.84186 0.75739 0.0
C3319 C 0.06489 0.84968 0.74903 0.0
H3320 H 0.1153 0.13761 0.74225 0.0
H3321 H 0.19945 0.25224 0.74553 0.0
H3322 H 0.12945 0.12346 0.75665 0.0
H3323 H 0.21455 0.23779 0.75984 0.0
H3324 H 0.20346 0.20553 0.78899 0.0
H3325 H 0.19087 0.22102 0.77453 0.0
H3326 H 0.17558 0.11734 0.76462 0.0
H3327 H 0.18828 0.10194 0.77903 0.0
C3328 C 0.13684 0.15989 0.74603 0.0
C3329 C 0.15606 0.19617 0.74267 0.0
C3330 C 0.1453 0.15165 0.75428 0.0
C3331 C 0.17325 0.1794 0.75948 0.0
C3332 C 0.1926 0.21569 0.75611 0.0
C3333 C 0.18421 0.22392 0.74783 0.0
C3334 C 0.1978 0.18615 0.78372 0.0
C3335 C 0.19674 0.1523 0.78527 0.0
C3336 C 0.19054 0.19507 0.77539 0.0
C3337 C 0.18196 0.17042 0.76835 0.0
C3338 C 0.18132 0.13678 0.76988 0.0
C3339 C 0.18861 0.1279 0.77819 0.0
H3340 H 0.88137 1.0062 0.78731 0.0
H3341 H 0.82712 0.06832 0.78088 0.0
H3342 H 0.86912 0.98013 0.77269 0.0
H3343 H 0.8135 0.04101 0.76634 0.0
H3344 H 0.83175 0.01611 0.73798 0.0
H3345 H 0.84216 0.04212 0.75264 0.0
H3346 H 0.82112 0.93746 0.76329 0.0
H3347 H 0.81077 0.91155 0.74867 0.0
C3348 C 0.86677 0.01433 0.7828 0.0
C3349 C 0.85541 0.03961 0.78535 0.0
C3350 C 0.8593 0.99895 0.7744 0.0
C3351 C 0.84021 0.00829 0.76825 0.0
C3352 C 0.82861 0.03337 0.77082 0.0
C3353 C 0.83603 0.04872 0.77923 0.0
C3354 C 0.82895 0.99848 0.74344 0.0
C3355 C 0.82061 0.96167 0.74206 0.0
C3356 C 0.83494 0.01345 0.75189 0.0
C3357 C 0.83275 0.99209 0.75922 0.0
C3358 C 0.82387 0.95514 0.75783 0.0
C3359 C 0.8179 0.9402 0.7494 0.0
H3360 H 0.64688 0.44743 0.61769 0.0
H3361 H 0.65403 0.55444 0.61797 0.0
H3362 H 0.67314 0.45967 0.6031 0.0
H3363 H 0.67894 0.56607 0.6032 0.0
H3364 H 0.75789 0.59005 0.57995 0.0
H3365 H 0.73251 0.57922 0.59467 0.0
H3366 H 0.65833 0.46437 0.58829 0.0
H3367 H 0.68376 0.47517 0.5736 0.0
C3368 C 0.6542 0.4737 0.61468 0.0
C3369 C 0.6483 0.49993 0.6191 0.0
C3370 C 0.66885 0.48053 0.60621 0.0
C3371 C 0.67812 0.51384 0.60187 0.0
C3372 C 0.67251 0.54023 0.60631 0.0
C3373 C 0.65778 0.53336 0.61478 0.0
C3374 C 0.73589 0.56255 0.58164 0.0
C3375 C 0.72309 0.5335 0.57553 0.0
C3376 C 0.72128 0.55631 0.59012 0.0
C3377 C 0.69337 0.52082 0.59276 0.0
C3378 C 0.68028 0.49191 0.5866 0.0
C3379 C 0.6949 0.49814 0.57814 0.0
H3380 H 0.48932 0.09804 0.61548 0.0
H3381 H 0.55493 0.21528 0.6207 0.0
H3382 H 0.47544 0.11144 0.60094 0.0
H3383 H 0.54237 0.22864 0.60606 0.0
H3384 H 0.48483 0.24212 0.58229 0.0
H3385 H 0.49532 0.22718 0.59696 0.0
H3386 H 0.50287 0.13442 0.58689 0.0
H3387 H 0.49228 0.14938 0.57218 0.0
C3388 C 0.50068 0.1267 0.61357 0.0
C3389 C 0.52332 0.15551 0.61934 0.0
C3390 C 0.49309 0.13441 0.60515 0.0
C3391 C 0.5078 0.17119 0.60223 0.0
C3392 C 0.53013 0.19996 0.60805 0.0
C3393 C 0.53775 0.19226 0.61645 0.0
C3394 C 0.48902 0.21868 0.58317 0.0
C3395 C 0.4879 0.19718 0.57596 0.0
C3396 C 0.49507 0.21007 0.59162 0.0
C3397 C 0.50021 0.17964 0.59319 0.0
C3398 C 0.49858 0.15778 0.58601 0.0
C3399 C 0.4925 0.1664 0.57753 0.0
H3400 H 0.87746 0.33323 0.62208 0.0
H3401 H 0.86541 0.4245 0.61286 0.0
H3402 H 0.86543 0.30726 0.60739 0.0
H3403 H 0.85374 0.39885 0.59821 0.0
H3404 H 0.79486 0.32395 0.57503 0.0
H3405 H 0.80853 0.34994 0.58963 0.0
H3406 H 0.88881 0.31418 0.59284 0.0
H3407 H 0.87381 0.28655 0.57833 0.0
C3408 C 0.8726 0.348 0.61692 0.0
C3409 C 0.87214 0.3809 0.61874 0.0
C3410 C 0.86573 0.33309 0.60846 0.0
C3411 C 0.85831 0.35069 0.60154 0.0
C3412 C 0.85846 0.3839 0.60335 0.0
C3413 C 0.86521 0.3987 0.6118 0.0
C3414 C 0.81522 0.32125 0.57885 0.0
C3415 C 0.83301 0.30283 0.57543 0.0
C3416 C 0.82346 0.33668 0.58724 0.0
C3417 C 0.84991 0.33437 0.59251 0.0
C3418 C 0.86798 0.31624 0.58907 0.0
C3419 C 0.85971 0.30076 0.58066 0.0
H3420 H 0.69042 0.12492 0.07356 0.0
H3421 H 0.73611 0.24188 0.07833 0.0
H3422 H 0.66684 0.11158 0.08845 0.0
H3423 H 0.71125 0.22846 0.09306 0.0
H3424 H 0.6946 0.19601 0.12182 0.0
H3425 H 0.71928 0.20833 0.10704 0.0
H3426 H 0.62081 0.11091 0.09793 0.0
H3427 H 0.59618 0.09857 0.11271 0.0
C3428 C 0.69549 0.14786 0.07776 0.0
C3429 C 0.71527 0.18454 0.07465 0.0
C3430 C 0.68154 0.14014 0.08631 0.0
C3431 C 0.687 0.16887 0.09204 0.0
C3432 C 0.70677 0.20553 0.08893 0.0
C3433 C 0.72065 0.21323 0.08039 0.0
C3434 C 0.67804 0.17728 0.11667 0.0
C3435 C 0.64325 0.14625 0.11854 0.0
C3436 C 0.69223 0.18439 0.10815 0.0
C3437 C 0.67212 0.16076 0.1012 0.0
C3438 C 0.63749 0.12953 0.10308 0.0
C3439 C 0.6233 0.1224 0.11161 0.0
H3440 H 0.81271 0.44236 0.11757 0.0
H3441 H 0.91171 0.54989 0.11796 0.0
H3442 H 0.79874 0.45449 0.10296 0.0
H3443 H 0.89854 0.56142 0.10317 0.0
H3444 H 0.84367 0.58504 0.07988 0.0
H3445 H 0.85801 0.57417 0.09462 0.0
H3446 H 0.81841 0.45953 0.08817 0.0
H3447 H 0.80392 0.47037 0.07347 0.0
C3448 C 0.83149 0.46871 0.11457 0.0
C3449 C 0.86335 0.49513 0.11903 0.0
C3450 C 0.82371 0.47549 0.1061 0.0
C3451 C 0.84753 0.50892 0.10179 0.0
C3452 C 0.87929 0.53548 0.10626 0.0
C3453 C 0.88709 0.52867 0.11474 0.0
C3454 C 0.83835 0.55758 0.08157 0.0
C3455 C 0.82247 0.5286 0.07544 0.0
C3456 C 0.8466 0.55131 0.09005 0.0
C3457 C 0.8393 0.51588 0.09267 0.0
C3458 C 0.82379 0.48702 0.0865 0.0
C3459 C 0.81549 0.49327 0.07803 0.0
H3460 H 0.47404 0.36127 0.11968 0.0
H3461 H 0.59056 0.40678 0.11441 0.0
H3462 H 0.45953 0.33695 0.10488 0.0
H3463 H 0.57596 0.38098 0.09978 0.0
H3464 H 0.54135 0.36166 0.07121 0.0
H3465 H 0.55487 0.3877 0.08585 0.0
H3466 H 0.45787 0.2903 0.09555 0.0
H3467 H 0.44427 0.26439 0.08089 0.0
C3468 C 0.49664 0.36618 0.11538 0.0
C3469 C 0.53355 0.38612 0.11833 0.0
C3470 C 0.48825 0.35177 0.10689 0.0
C3471 C 0.51649 0.35682 0.10105 0.0
C3472 C 0.55338 0.3768 0.104 0.0
C3473 C 0.56176 0.39122 0.11248 0.0
C3474 C 0.52296 0.34565 0.07646 0.0
C3475 C 0.49168 0.31079 0.0748 0.0
C3476 C 0.53077 0.36061 0.0849 0.0
C3477 C 0.50761 0.34119 0.09197 0.0
C3478 C 0.47613 0.30647 0.09029 0.0
C3479 C 0.46828 0.29154 0.08185 0.0
H3480 H 0.43257 0.91197 0.91431 0.0
H3481 H 0.32624 0.82838 0.90447 0.0
H3482 H 0.40753 0.90065 0.92904 0.0
H3483 H 0.30158 0.81605 0.91925 0.0
H3484 H 0.25816 0.82795 0.94573 0.0
H3485 H 0.28328 0.84153 0.931 0.0
H3486 H 0.38698 0.85589 0.94061 0.0
H3487 H 0.36231 0.84371 0.9554 0.0
C3488 C 0.40378 0.89127 0.91526 0.0
C3489 C 0.38152 0.87122 0.90812 0.0
C3490 C 0.3895 0.88441 0.92376 0.0
C3491 C 0.35244 0.85732 0.92542 0.0
C3492 C 0.33011 0.8374 0.91827 0.0
C3493 C 0.34443 0.8442 0.90977 0.0
C3494 C 0.2865 0.83447 0.94474 0.0
C3495 C 0.30812 0.83478 0.95183 0.0
C3496 C 0.3008 0.84181 0.93624 0.0
C3497 C 0.33725 0.84977 0.93454 0.0
C3498 C 0.35895 0.85028 0.94163 0.0
C3499 C 0.34461 0.84285 0.95013 0.0
H3500 H 0.13959 0.47757 0.95502 0.0
H3501 H 0.24313 0.48901 0.94624 0.0
H3502 H 0.12642 0.48919 0.94021 0.0
H3503 H 0.22991 0.50019 0.93148 0.0
H3504 H 0.21549 0.5584 0.90796 0.0
H3505 H 0.22691 0.5451 0.92268 0.0
H3506 H 0.1106 0.46569 0.92568 0.0
H3507 H 0.09888 0.4804 0.91105 0.0
C3508 C 0.15942 0.4822 0.94993 0.0
C3509 C 0.19263 0.48264 0.95191 0.0
C3510 C 0.15183 0.48883 0.9414 0.0
C3511 C 0.17715 0.49596 0.93456 0.0
C3512 C 0.21003 0.49572 0.93654 0.0
C3513 C 0.21765 0.48924 0.94505 0.0
C3514 C 0.19218 0.53833 0.91176 0.0
C3515 C 0.15616 0.5207 0.90824 0.0
C3516 C 0.19885 0.53028 0.92022 0.0
C3517 C 0.16976 0.50418 0.92547 0.0
C3518 C 0.13375 0.48626 0.92193 0.0
C3519 C 0.12706 0.49436 0.91345 0.0
H3520 H 0.55944 0.65409 0.9077 0.0
H3521 H 0.44515 0.62468 0.91111 0.0
H3522 H 0.57272 0.67715 0.92263 0.0
H3523 H 0.45876 0.64913 0.92588 0.0
H3524 H 0.48567 0.66139 0.95492 0.0
H3525 H 0.47315 0.63683 0.94013 0.0
H3526 H 0.57914 0.72663 0.93181 0.0
H3527 H 0.59168 0.75111 0.94661 0.0
C3528 C 0.53709 0.65251 0.91161 0.0
C3529 C 0.50117 0.63744 0.90812 0.0
C3530 C 0.54482 0.66617 0.92018 0.0
C3531 C 0.51687 0.66511 0.92553 0.0
C3532 C 0.48098 0.65008 0.92203 0.0
C3533 C 0.47327 0.63647 0.91348 0.0
C3534 C 0.50628 0.67606 0.94994 0.0
C3535 C 0.53972 0.70836 0.95203 0.0
C3536 C 0.49906 0.66196 0.94142 0.0
C3537 C 0.52502 0.67971 0.9347 0.0
C3538 C 0.55864 0.71179 0.9368 0.0
C3539 C 0.56587 0.72587 0.94533 0.0
H3540 H 0.35779 0.53032 0.45539 0.0
H3541 H 0.26291 0.4285 0.44675 0.0
H3542 H 0.38231 0.54229 0.4406 0.0
H3543 H 0.28742 0.44049 0.43195 0.0
H3544 H 0.35862 0.45697 0.4077 0.0
H3545 H 0.33533 0.44374 0.42261 0.0
H3546 H 0.3716 0.55956 0.4265 0.0
H3547 H 0.39616 0.57297 0.41174 0.0
C3548 C 0.34198 0.51053 0.45034 0.0
C3549 C 0.30821 0.47844 0.45233 0.0
C3550 C 0.35607 0.51744 0.44182 0.0
C3551 C 0.33687 0.49251 0.435 0.0
C3552 C 0.30335 0.46016 0.43701 0.0
C3553 C 0.28925 0.45324 0.44554 0.0
C3554 C 0.36195 0.4797 0.41175 0.0
C3555 C 0.37934 0.51609 0.40844 0.0
C3556 C 0.34818 0.47203 0.4203 0.0
C3557 C 0.35149 0.50052 0.42584 0.0
C3558 C 0.36886 0.53688 0.42252 0.0
C3559 C 0.38254 0.54453 0.41397 0.0
H3560 H 0.54753 0.89633 0.40768 0.0
H3561 H 0.43196 0.81738 0.412 0.0
H3562 H 0.56198 0.88465 0.42233 0.0
H3563 H 0.44662 0.80444 0.42644 0.0
H3564 H 0.47746 0.8149 0.45513 0.0
H3565 H 0.4644 0.82947 0.44066 0.0
H3566 H 0.56676 0.84002 0.43118 0.0
H3567 H 0.57994 0.82571 0.4457 0.0
C3568 C 0.52513 0.87649 0.41173 0.0
C3569 C 0.4885 0.85785 0.40856 0.0
C3570 C 0.53352 0.86942 0.42013 0.0
C3571 C 0.50555 0.84353 0.42565 0.0
C3572 C 0.46896 0.82493 0.42248 0.0
C3573 C 0.46057 0.832 0.4141 0.0
C3574 C 0.49715 0.82011 0.44996 0.0
C3575 C 0.52973 0.81889 0.45164 0.0
C3576 C 0.48961 0.82845 0.44162 0.0
C3577 C 0.51433 0.83577 0.43465 0.0
C3578 C 0.54719 0.83506 0.43636 0.0
C3579 C 0.55479 0.82681 0.44472 0.0
H3580 H 0.24515 0.73341 0.44802 0.0
H3581 H 0.12817 0.68341 0.45333 0.0
H3582 H 0.2314 0.70838 0.43331 0.0
H3583 H 0.11441 0.6596 0.43846 0.0
H3584 H 0.10297 0.5896 0.41414 0.0
H3585 H 0.11546 0.6144 0.42891 0.0
H3586 H 0.20909 0.71546 0.41949 0.0
H3587 H 0.19663 0.69064 0.40473 0.0
C3588 C 0.21643 0.71696 0.44608 0.0
C3589 C 0.18783 0.71041 0.45196 0.0
C3590 C 0.20852 0.70298 0.43756 0.0
C3591 C 0.17173 0.68196 0.43461 0.0
C3592 C 0.14309 0.67532 0.44048 0.0
C3593 C 0.15101 0.68937 0.44901 0.0
C3594 C 0.12597 0.61731 0.41518 0.0
C3595 C 0.14877 0.63798 0.40817 0.0
C3596 C 0.13318 0.63159 0.42369 0.0
C3597 C 0.16343 0.667 0.42547 0.0
C3598 C 0.18597 0.68783 0.41845 0.0
C3599 C 0.17877 0.67356 0.40994 0.0
loop_
_geom_bond_atom_site_label_1
_geom_bond_atom_site_label_2
_geom_bond_distance
_geom_bond_site_symmetry_2
_ccdc_geom_bond_type
C0 Eu1 2.835 . S
C0 C2 1.500 . S
C0 O20 1.257 . S
C0 O21 1.260 . S
Eu1 C0 2.835 . S
Eu1 O20 2.473 . S
Eu1 O21 2.480 . S
Eu1 O22 2.430 . S
Eu1 O23 2.670 . S
Eu1 O24 2.394 . S
Eu1 O29 2.355 . S
Eu1 O31 2.374 . S
C2 C0 1.500 . S
C2 C3 1.377 . S
C2 C7 1.377 . S
C3 C2 1.377 . S
C3 C4 1.395 . S
C3 H32 0.931 . S
C4 C3 1.395 . S
C4 C5 1.383 . S
C4 H33 0.931 . S
C5 C4 1.383 . S
C5 C6 1.394 . S
C6 C5 1.394 . S
C6 C7 1.378 . S
C6 H34 0.931 . S
C7 C2 1.377 . S
C7 C6 1.378 . S
C7 H35 0.931 . S
C8 O22 1.259 . S
C8 O23 1.270 . S
C9 O24 1.251 . S
C9 O25 1.251 . S
C10 Eu11 2.835 . S
C10 C12 1.500 . S
C10 O26 1.257 . S
C10 O27 1.260 . S
Eu11 C10 2.835 . S
Eu11 O23 2.355 . S
Eu11 O25 2.374 . S
Eu11 O26 2.473 . S
Eu11 O27 2.480 . S
Eu11 O28 2.430 . S
Eu11 O29 2.670 . S
Eu11 O30 2.394 . S
C12 C10 1.500 . S
C12 C13 1.377 . S
C12 C17 1.377 . S
C13 C12 1.377 . S
C13 C14 1.395 . S
C13 H36 0.931 . S
C14 C13 1.395 . S
C14 C15 1.383 . S
C14 H37 0.931 . S
C15 C14 1.383 . S
C15 C16 1.394 . S
C16 C15 1.394 . S
C16 C17 1.378 . S
C16 H38 0.931 . S
C17 C12 1.377 . S
C17 C16 1.378 . S
C17 H39 0.931 . S
C18 O28 1.259 . S
C18 O29 1.270 . S
C19 O30 1.251 . S
C19 O31 1.251 . S
O20 C0 1.257 . S
O20 Eu1 2.473 . S
O21 C0 1.260 . S
O21 Eu1 2.480 . S
O22 Eu1 2.430 . S
O22 C8 1.259 . S
O23 Eu1 2.670 . S
O23 C8 1.270 . S
O23 Eu11 2.355 . S
O24 Eu1 2.394 . S
O24 C9 1.251 . S
O25 C9 1.251 . S
O25 Eu11 2.374 . S
O26 C10 1.257 . S
O26 Eu11 2.473 . S
O27 C10 1.260 . S
O27 Eu11 2.480 . S
O28 Eu11 2.430 . S
O28 C18 1.259 . S
O29 Eu1 2.355 . S
O29 Eu11 2.670 . S
O29 C18 1.270 . S
O30 Eu11 2.394 . S
O30 C19 1.251 . S
O31 Eu1 2.374 . S
O31 C19 1.251 . S
H32 C3 0.931 . S
H33 C4 0.931 . S
H34 C6 0.931 . S
H35 C7 0.931 . S
H36 C13 0.931 . S
H37 C14 0.931 . S
H38 C16 0.931 . S
H39 C17 0.931 . S
C40 Eu41 2.835 . S
C40 C42 1.500 . S
C40 O60 1.257 . S
C40 O61 1.260 . S
Eu41 C40 2.835 . S
Eu41 O60 2.473 . S
Eu41 O61 2.480 . S
Eu41 O62 2.430 . S
Eu41 O63 2.670 . S
Eu41 O64 2.394 . S
Eu41 O69 2.355 . S
Eu41 O71 2.374 . S
C42 C40 1.500 . S
C42 C43 1.377 . S
C42 C47 1.377 . S
C43 C42 1.377 . S
C43 C44 1.395 . S
C43 H72 0.931 . S
C44 C43 1.395 . S
C44 C45 1.383 . S
C44 H73 0.931 . S
C45 C44 1.383 . S
C45 C46 1.394 . S
C46 C45 1.394 . S
C46 C47 1.378 . S
C46 H74 0.931 . S
C47 C42 1.377 . S
C47 C46 1.378 . S
C47 H75 0.931 . S
C48 O62 1.259 . S
C48 O63 1.270 . S
C49 O64 1.251 . S
C49 O65 1.251 . S
C50 Eu51 2.835 . S
C50 C52 1.500 . S
C50 O66 1.257 . S
C50 O67 1.260 . S
Eu51 C50 2.835 . S
Eu51 O63 2.355 . S
Eu51 O65 2.374 . S
Eu51 O66 2.473 . S
Eu51 O67 2.480 . S
Eu51 O68 2.430 . S
Eu51 O69 2.670 . S
Eu51 O70 2.394 . S
C52 C50 1.500 . S
C52 C53 1.377 . S
C52 C57 1.377 . S
C53 C52 1.377 . S
C53 C54 1.395 . S
C53 H76 0.931 . S
C54 C53 1.395 . S
C54 C55 1.383 . S
C54 H77 0.931 . S
C55 C54 1.383 . S
C55 C56 1.394 . S
C56 C55 1.394 . S
C56 C57 1.378 . S
C56 H78 0.931 . S
C57 C52 1.377 . S
C57 C56 1.378 . S
C57 H79 0.931 . S
C58 O68 1.259 . S
C58 O69 1.270 . S
C59 O70 1.251 . S
C59 O71 1.251 . S
O60 C40 1.257 . S
O60 Eu41 2.473 . S
O61 C40 1.260 . S
O61 Eu41 2.480 . S
O62 Eu41 2.430 . S
O62 C48 1.259 . S
O63 Eu41 2.670 . S
O63 C48 1.270 . S
O63 Eu51 2.355 . S
O64 Eu41 2.394 . S
O64 C49 1.251 . S
O65 C49 1.251 . S
O65 Eu51 2.374 . S
O66 C50 1.257 . S
O66 Eu51 2.473 . S
O67 C50 1.260 . S
O67 Eu51 2.480 . S
O68 Eu51 2.430 . S
O68 C58 1.259 . S
O69 Eu41 2.355 . S
O69 Eu51 2.670 . S
O69 C58 1.270 . S
O70 Eu51 2.394 . S
O70 C59 1.251 . S
O71 Eu41 2.374 . S
O71 C59 1.251 . S
H72 C43 0.931 . S
H73 C44 0.931 . S
H74 C46 0.931 . S
H75 C47 0.931 . S
H76 C53 0.931 . S
H77 C54 0.931 . S
H78 C56 0.931 . S
H79 C57 0.931 . S
C80 Eu81 2.835 . S
C80 C82 1.500 . S
C80 O100 1.257 . S
C80 O101 1.260 . S
Eu81 C80 2.835 . S
Eu81 O100 2.473 . S
Eu81 O101 2.480 . S
Eu81 O102 2.430 . S
Eu81 O103 2.670 . S
Eu81 O104 2.394 . S
Eu81 O109 2.355 . S
Eu81 O111 2.374 . S
C82 C80 1.500 . S
C82 C83 1.377 . S
C82 C87 1.377 . S
C83 C82 1.377 . S
C83 C84 1.395 . S
C83 H112 0.931 . S
C84 C83 1.395 . S
C84 C85 1.383 . S
C84 H113 0.931 . S
C85 C84 1.383 . S
C85 C86 1.394 . S
C86 C85 1.394 . S
C86 C87 1.378 . S
C86 H114 0.931 . S
C87 C82 1.377 . S
C87 C86 1.378 . S
C87 H115 0.931 . S
C88 O102 1.259 . S
C88 O103 1.270 . S
C89 O104 1.251 . S
C89 O105 1.251 . S
C90 Eu91 2.835 . S
C90 C92 1.500 . S
C90 O106 1.257 . S
C90 O107 1.260 . S
Eu91 C90 2.835 . S
Eu91 O103 2.355 . S
Eu91 O105 2.374 . S
Eu91 O106 2.473 . S
Eu91 O107 2.480 . S
Eu91 O108 2.430 . S
Eu91 O109 2.670 . S
Eu91 O110 2.394 . S
C92 C90 1.500 . S
C92 C93 1.377 . S
C92 C97 1.377 . S
C93 C92 1.377 . S
C93 C94 1.395 . S
C93 H116 0.931 . S
C94 C93 1.395 . S
C94 C95 1.383 . S
C94 H117 0.931 . S
C95 C94 1.383 . S
C95 C96 1.394 . S
C96 C95 1.394 . S
C96 C97 1.378 . S
C96 H118 0.931 . S
C97 C92 1.377 . S
C97 C96 1.378 . S
C97 H119 0.931 . S
C98 O108 1.259 . S
C98 O109 1.270 . S
C99 O110 1.251 . S
C99 O111 1.251 . S
O100 C80 1.257 . S
O100 Eu81 2.473 . S
O101 C80 1.260 . S
O101 Eu81 2.480 . S
O102 Eu81 2.430 . S
O102 C88 1.259 . S
O103 Eu81 2.670 . S
O103 C88 1.270 . S
O103 Eu91 2.355 . S
O104 Eu81 2.394 . S
O104 C89 1.251 . S
O105 C89 1.251 . S
O105 Eu91 2.374 . S
O106 C90 1.257 . S
O106 Eu91 2.473 . S
O107 C90 1.260 . S
O107 Eu91 2.480 . S
O108 Eu91 2.430 . S
O108 C98 1.259 . S
O109 Eu81 2.355 . S
O109 Eu91 2.670 . S
O109 C98 1.270 . S
O110 Eu91 2.394 . S
O110 C99 1.251 . S
O111 Eu81 2.374 . S
O111 C99 1.251 . S
H112 C83 0.931 . S
H113 C84 0.931 . S
H114 C86 0.931 . S
H115 C87 0.931 . S
H116 C93 0.931 . S
H117 C94 0.931 . S
H118 C96 0.931 . S
H119 C97 0.931 . S
C120 Eu121 2.835 . S
C120 C122 1.500 . S
C120 O140 1.257 . S
C120 O141 1.260 . S
Eu121 C120 2.835 . S
Eu121 O140 2.473 . S
Eu121 O141 2.480 . S
Eu121 O142 2.430 . S
Eu121 O143 2.670 . S
Eu121 O144 2.394 . S
Eu121 O149 2.355 . S
Eu121 O151 2.374 . S
C122 C120 1.500 . S
C122 C123 1.377 . S
C122 C127 1.377 . S
C123 C122 1.377 . S
C123 C124 1.395 . S
C123 H152 0.931 . S
C124 C123 1.395 . S
C124 C125 1.383 . S
C124 H153 0.931 . S
C125 C124 1.383 . S
C125 C126 1.394 . S
C126 C125 1.394 . S
C126 C127 1.378 . S
C126 H154 0.931 . S
C127 C122 1.377 . S
C127 C126 1.378 . S
C127 H155 0.931 . S
C128 O142 1.259 . S
C128 O143 1.270 . S
C129 O144 1.251 . S
C129 O145 1.251 . S
C130 Eu131 2.835 . S
C130 C132 1.500 . S
C130 O146 1.257 . S
C130 O147 1.260 . S
Eu131 C130 2.835 . S
Eu131 O143 2.355 . S
Eu131 O145 2.374 . S
Eu131 O146 2.473 . S
Eu131 O147 2.480 . S
Eu131 O148 2.430 . S
Eu131 O149 2.670 . S
Eu131 O150 2.394 . S
C132 C130 1.500 . S
C132 C133 1.377 . S
C132 C137 1.377 . S
C133 C132 1.377 . S
C133 C134 1.395 . S
C133 H156 0.931 . S
C134 C133 1.395 . S
C134 C135 1.383 . S
C134 H157 0.931 . S
C135 C134 1.383 . S
C135 C136 1.394 . S
C136 C135 1.394 . S
C136 C137 1.378 . S
C136 H158 0.931 . S
C137 C132 1.377 . S
C137 C136 1.378 . S
C137 H159 0.931 . S
C138 O148 1.259 . S
C138 O149 1.270 . S
C139 O150 1.251 . S
C139 O151 1.251 . S
O140 C120 1.257 . S
O140 Eu121 2.473 . S
O141 C120 1.260 . S
O141 Eu121 2.480 . S
O142 Eu121 2.430 . S
O142 C128 1.259 . S
O143 Eu121 2.670 . S
O143 C128 1.270 . S
O143 Eu131 2.355 . S
O144 Eu121 2.394 . S
O144 C129 1.251 . S
O145 C129 1.251 . S
O145 Eu131 2.374 . S
O146 C130 1.257 . S
O146 Eu131 2.473 . S
O147 C130 1.260 . S
O147 Eu131 2.480 . S
O148 Eu131 2.430 . S
O148 C138 1.259 . S
O149 Eu121 2.355 . S
O149 Eu131 2.670 . S
O149 C138 1.270 . S
O150 Eu131 2.394 . S
O150 C139 1.251 . S
O151 Eu121 2.374 . S
O151 C139 1.251 . S
H152 C123 0.931 . S
H153 C124 0.931 . S
H154 C126 0.931 . S
H155 C127 0.931 . S
H156 C133 0.931 . S
H157 C134 0.931 . S
H158 C136 0.931 . S
H159 C137 0.931 . S
C160 Eu161 2.835 . S
C160 C162 1.500 . S
C160 O180 1.257 . S
C160 O181 1.260 . S
Eu161 C160 2.835 . S
Eu161 O180 2.473 . S
Eu161 O181 2.480 . S
Eu161 O182 2.430 . S
Eu161 O183 2.670 . S
Eu161 O184 2.394 . S
Eu161 O189 2.355 . S
Eu161 O191 2.374 . S
C162 C160 1.500 . S
C162 C163 1.377 . S
C162 C167 1.377 . S
C163 C162 1.377 . S
C163 C164 1.395 . S
C163 H192 0.931 . S
C164 C163 1.395 . S
C164 C165 1.383 . S
C164 H193 0.931 . S
C165 C164 1.383 . S
C165 C166 1.394 . S
C166 C165 1.394 . S
C166 C167 1.378 . S
C166 H194 0.931 . S
C167 C162 1.377 . S
C167 C166 1.378 . S
C167 H195 0.931 . S
C168 O182 1.259 . S
C168 O183 1.270 . S
C169 O184 1.251 . S
C169 O185 1.251 . S
C170 Eu171 2.835 . S
C170 C172 1.500 . S
C170 O186 1.257 . S
C170 O187 1.260 . S
Eu171 C170 2.835 . S
Eu171 O183 2.355 . S
Eu171 O185 2.374 . S
Eu171 O186 2.473 . S
Eu171 O187 2.480 . S
Eu171 O188 2.430 . S
Eu171 O189 2.670 . S
Eu171 O190 2.394 . S
C172 C170 1.500 . S
C172 C173 1.377 . S
C172 C177 1.377 . S
C173 C172 1.377 . S
C173 C174 1.395 . S
C173 H196 0.931 . S
C174 C173 1.395 . S
C174 C175 1.383 . S
C174 H197 0.931 . S
C175 C174 1.383 . S
C175 C176 1.394 . S
C176 C175 1.394 . S
C176 C177 1.378 . S
C176 H198 0.931 . S
C177 C172 1.377 . S
C177 C176 1.378 . S
C177 H199 0.931 . S
C178 O188 1.259 . S
C178 O189 1.270 . S
C179 O190 1.251 . S
C179 O191 1.251 . S
O180 C160 1.257 . S
O180 Eu161 2.473 . S
O181 C160 1.260 . S
O181 Eu161 2.480 . S
O182 Eu161 2.430 . S
O182 C168 1.259 . S
O183 Eu161 2.670 . S
O183 C168 1.270 . S
O183 Eu171 2.355 . S
O184 Eu161 2.394 . S
O184 C169 1.251 . S
O185 C169 1.251 . S
O185 Eu171 2.374 . S
O186 C170 1.257 . S
O186 Eu171 2.473 . S
O187 C170 1.260 . S
O187 Eu171 2.480 . S
O188 Eu171 2.430 . S
O188 C178 1.259 . S
O189 Eu161 2.355 . S
O189 Eu171 2.670 . S
O189 C178 1.270 . S
O190 Eu171 2.394 . S
O190 C179 1.251 . S
O191 Eu161 2.374 . S
O191 C179 1.251 . S
H192 C163 0.931 . S
H193 C164 0.931 . S
H194 C166 0.931 . S
H195 C167 0.931 . S
H196 C173 0.931 . S
H197 C174 0.931 . S
H198 C176 0.931 . S
H199 C177 0.931 . S
C200 Eu201 2.835 . S
C200 C202 1.500 . S
C200 O220 1.257 . S
C200 O221 1.260 . S
Eu201 C200 2.835 . S
Eu201 O220 2.473 . S
Eu201 O221 2.480 . S
Eu201 O222 2.430 . S
Eu201 O223 2.670 . S
Eu201 O224 2.394 . S
Eu201 O229 2.355 . S
Eu201 O231 2.374 . S
C202 C200 1.500 . S
C202 C203 1.377 . S
C202 C207 1.377 . S
C203 C202 1.377 . S
C203 C204 1.395 . S
C203 H232 0.931 . S
C204 C203 1.395 . S
C204 C205 1.383 . S
C204 H233 0.931 . S
C205 C204 1.383 . S
C205 C206 1.394 . S
C206 C205 1.394 . S
C206 C207 1.378 . S
C206 H234 0.931 . S
C207 C202 1.377 . S
C207 C206 1.378 . S
C207 H235 0.931 . S
C208 O222 1.259 . S
C208 O223 1.270 . S
C209 O224 1.251 . S
C209 O225 1.251 . S
C210 Eu211 2.835 . S
C210 C212 1.500 . S
C210 O226 1.257 . S
C210 O227 1.260 . S
Eu211 C210 2.835 . S
Eu211 O223 2.355 . S
Eu211 O225 2.374 . S
Eu211 O226 2.473 . S
Eu211 O227 2.480 . S
Eu211 O228 2.430 . S
Eu211 O229 2.670 . S
Eu211 O230 2.394 . S
C212 C210 1.500 . S
C212 C213 1.377 . S
C212 C217 1.377 . S
C213 C212 1.377 . S
C213 C214 1.395 . S
C213 H236 0.931 . S
C214 C213 1.395 . S
C214 C215 1.383 . S
C214 H237 0.931 . S
C215 C214 1.383 . S
C215 C216 1.394 . S
C216 C215 1.394 . S
C216 C217 1.378 . S
C216 H238 0.931 . S
C217 C212 1.377 . S
C217 C216 1.378 . S
C217 H239 0.931 . S
C218 O228 1.259 . S
C218 O229 1.270 . S
C219 O230 1.251 . S
C219 O231 1.251 . S
O220 C200 1.257 . S
O220 Eu201 2.473 . S
O221 C200 1.260 . S
O221 Eu201 2.480 . S
O222 Eu201 2.430 . S
O222 C208 1.259 . S
O223 Eu201 2.670 . S
O223 C208 1.270 . S
O223 Eu211 2.355 . S
O224 Eu201 2.394 . S
O224 C209 1.251 . S
O225 C209 1.251 . S
O225 Eu211 2.374 . S
O226 C210 1.257 . S
O226 Eu211 2.473 . S
O227 C210 1.260 . S
O227 Eu211 2.480 . S
O228 Eu211 2.430 . S
O228 C218 1.259 . S
O229 Eu201 2.355 . S
O229 Eu211 2.670 . S
O229 C218 1.270 . S
O230 Eu211 2.394 . S
O230 C219 1.251 . S
O231 Eu201 2.374 . S
O231 C219 1.251 . S
H232 C203 0.931 . S
H233 C204 0.931 . S
H234 C206 0.931 . S
H235 C207 0.931 . S
H236 C213 0.931 . S
H237 C214 0.931 . S
H238 C216 0.931 . S
H239 C217 0.931 . S
C240 Eu241 2.835 . S
C240 C242 1.500 . S
C240 O260 1.257 . S
C240 O261 1.260 . S
Eu241 C240 2.835 . S
Eu241 O260 2.473 . S
Eu241 O261 2.480 . S
Eu241 O262 2.430 . S
Eu241 O263 2.670 . S
Eu241 O264 2.394 . S
Eu241 O269 2.355 . S
Eu241 O271 2.374 . S
C242 C240 1.500 . S
C242 C243 1.377 . S
C242 C247 1.377 . S
C243 C242 1.377 . S
C243 C244 1.395 . S
C243 H272 0.931 . S
C244 C243 1.395 . S
C244 C245 1.383 . S
C244 H273 0.931 . S
C245 C244 1.383 . S
C245 C246 1.394 . S
C246 C245 1.394 . S
C246 C247 1.378 . S
C246 H274 0.931 . S
C247 C242 1.377 . S
C247 C246 1.378 . S
C247 H275 0.931 . S
C248 O262 1.259 . S
C248 O263 1.270 . S
C249 O264 1.251 . S
C249 O265 1.251 . S
C250 Eu251 2.835 . S
C250 C252 1.500 . S
C250 O266 1.257 . S
C250 O267 1.260 . S
Eu251 C250 2.835 . S
Eu251 O263 2.355 . S
Eu251 O265 2.374 . S
Eu251 O266 2.473 . S
Eu251 O267 2.480 . S
Eu251 O268 2.430 . S
Eu251 O269 2.670 . S
Eu251 O270 2.394 . S
C252 C250 1.500 . S
C252 C253 1.377 . S
C252 C257 1.377 . S
C253 C252 1.377 . S
C253 C254 1.395 . S
C253 H276 0.931 . S
C254 C253 1.395 . S
C254 C255 1.383 . S
C254 H277 0.931 . S
C255 C254 1.383 . S
C255 C256 1.394 . S
C256 C255 1.394 . S
C256 C257 1.378 . S
C256 H278 0.931 . S
C257 C252 1.377 . S
C257 C256 1.378 . S
C257 H279 0.931 . S
C258 O268 1.259 . S
C258 O269 1.270 . S
C259 O270 1.251 . S
C259 O271 1.251 . S
O260 C240 1.257 . S
O260 Eu241 2.473 . S
O261 C240 1.260 . S
O261 Eu241 2.480 . S
O262 Eu241 2.430 . S
O262 C248 1.259 . S
O263 Eu241 2.670 . S
O263 C248 1.270 . S
O263 Eu251 2.355 . S
O264 Eu241 2.394 . S
O264 C249 1.251 . S
O265 C249 1.251 . S
O265 Eu251 2.374 . S
O266 C250 1.257 . S
O266 Eu251 2.473 . S
O267 C250 1.260 . S
O267 Eu251 2.480 . S
O268 Eu251 2.430 . S
O268 C258 1.259 . S
O269 Eu241 2.355 . S
O269 Eu251 2.670 . S
O269 C258 1.270 . S
O270 Eu251 2.394 . S
O270 C259 1.251 . S
O271 Eu241 2.374 . S
O271 C259 1.251 . S
H272 C243 0.931 . S
H273 C244 0.931 . S
H274 C246 0.931 . S
H275 C247 0.931 . S
H276 C253 0.931 . S
H277 C254 0.931 . S
H278 C256 0.931 . S
H279 C257 0.931 . S
C280 Eu281 2.835 . S
C280 C282 1.500 . S
C280 O300 1.257 . S
C280 O301 1.260 . S
Eu281 C280 2.835 . S
Eu281 O300 2.473 . S
Eu281 O301 2.480 . S
Eu281 O302 2.430 . S
Eu281 O303 2.670 . S
Eu281 O304 2.394 . S
Eu281 O309 2.355 . S
Eu281 O311 2.374 . S
C282 C280 1.500 . S
C282 C283 1.377 . S
C282 C287 1.377 . S
C283 C282 1.377 . S
C283 C284 1.395 . S
C283 H312 0.931 . S
C284 C283 1.395 . S
C284 C285 1.383 . S
C284 H313 0.931 . S
C285 C284 1.383 . S
C285 C286 1.394 . S
C286 C285 1.394 . S
C286 C287 1.378 . S
C286 H314 0.931 . S
C287 C282 1.377 . S
C287 C286 1.378 . S
C287 H315 0.931 . S
C288 O302 1.259 . S
C288 O303 1.270 . S
C289 O304 1.251 . S
C289 O305 1.251 . S
C290 Eu291 2.835 . S
C290 C292 1.500 . S
C290 O306 1.257 . S
C290 O307 1.260 . S
Eu291 C290 2.835 . S
Eu291 O303 2.355 . S
Eu291 O305 2.374 . S
Eu291 O306 2.473 . S
Eu291 O307 2.480 . S
Eu291 O308 2.430 . S
Eu291 O309 2.670 . S
Eu291 O310 2.394 . S
C292 C290 1.500 . S
C292 C293 1.377 . S
C292 C297 1.377 . S
C293 C292 1.377 . S
C293 C294 1.395 . S
C293 H316 0.931 . S
C294 C293 1.395 . S
C294 C295 1.383 . S
C294 H317 0.931 . S
C295 C294 1.383 . S
C295 C296 1.394 . S
C296 C295 1.394 . S
C296 C297 1.378 . S
C296 H318 0.931 . S
C297 C292 1.377 . S
C297 C296 1.378 . S
C297 H319 0.931 . S
C298 O308 1.259 . S
C298 O309 1.270 . S
C299 O310 1.251 . S
C299 O311 1.251 . S
O300 C280 1.257 . S
O300 Eu281 2.473 . S
O301 C280 1.260 . S
O301 Eu281 2.480 . S
O302 Eu281 2.430 . S
O302 C288 1.259 . S
O303 Eu281 2.670 . S
O303 C288 1.270 . S
O303 Eu291 2.355 . S
O304 Eu281 2.394 . S
O304 C289 1.251 . S
O305 C289 1.251 . S
O305 Eu291 2.374 . S
O306 C290 1.257 . S
O306 Eu291 2.473 . S
O307 C290 1.260 . S
O307 Eu291 2.480 . S
O308 Eu291 2.430 . S
O308 C298 1.259 . S
O309 Eu281 2.355 . S
O309 Eu291 2.670 . S
O309 C298 1.270 . S
O310 Eu291 2.394 . S
O310 C299 1.251 . S
O311 Eu281 2.374 . S
O311 C299 1.251 . S
H312 C283 0.931 . S
H313 C284 0.931 . S
H314 C286 0.931 . S
H315 C287 0.931 . S
H316 C293 0.931 . S
H317 C294 0.931 . S
H318 C296 0.931 . S
H319 C297 0.931 . S
C320 Eu321 2.835 . S
C320 C322 1.500 . S
C320 O340 1.257 . S
C320 O341 1.260 . S
Eu321 C320 2.835 . S
Eu321 O340 2.473 . S
Eu321 O341 2.480 . S
Eu321 O342 2.430 . S
Eu321 O343 2.670 . S
Eu321 O344 2.394 . S
Eu321 O349 2.355 . S
Eu321 O351 2.374 . S
C322 C320 1.500 . S
C322 C323 1.377 . S
C322 C327 1.377 . S
C323 C322 1.377 . S
C323 C324 1.395 . S
C323 H352 0.931 . S
C324 C323 1.395 . S
C324 C325 1.383 . S
C324 H353 0.931 . S
C325 C324 1.383 . S
C325 C326 1.394 . S
C326 C325 1.394 . S
C326 C327 1.378 . S
C326 H354 0.931 . S
C327 C322 1.377 . S
C327 C326 1.378 . S
C327 H355 0.931 . S
C328 O342 1.259 . S
C328 O343 1.270 . S
C329 O344 1.251 . S
C329 O345 1.251 . S
C330 Eu331 2.835 . S
C330 C332 1.500 . S
C330 O346 1.257 . S
C330 O347 1.260 . S
Eu331 C330 2.835 . S
Eu331 O343 2.355 . S
Eu331 O345 2.374 . S
Eu331 O346 2.473 . S
Eu331 O347 2.480 . S
Eu331 O348 2.430 . S
Eu331 O349 2.670 . S
Eu331 O350 2.394 . S
C332 C330 1.500 . S
C332 C333 1.377 . S
C332 C337 1.377 . S
C333 C332 1.377 . S
C333 C334 1.395 . S
C333 H356 0.931 . S
C334 C333 1.395 . S
C334 C335 1.383 . S
C334 H357 0.931 . S
C335 C334 1.383 . S
C335 C336 1.394 . S
C336 C335 1.394 . S
C336 C337 1.378 . S
C336 H358 0.931 . S
C337 C332 1.377 . S
C337 C336 1.378 . S
C337 H359 0.931 . S
C338 O348 1.259 . S
C338 O349 1.270 . S
C339 O350 1.251 . S
C339 O351 1.251 . S
O340 C320 1.257 . S
O340 Eu321 2.473 . S
O341 C320 1.260 . S
O341 Eu321 2.480 . S
O342 Eu321 2.430 . S
O342 C328 1.259 . S
O343 Eu321 2.670 . S
O343 C328 1.270 . S
O343 Eu331 2.355 . S
O344 Eu321 2.394 . S
O344 C329 1.251 . S
O345 C329 1.251 . S
O345 Eu331 2.374 . S
O346 C330 1.257 . S
O346 Eu331 2.473 . S
O347 C330 1.260 . S
O347 Eu331 2.480 . S
O348 Eu331 2.430 . S
O348 C338 1.259 . S
O349 Eu321 2.355 . S
O349 Eu331 2.670 . S
O349 C338 1.270 . S
O350 Eu331 2.394 . S
O350 C339 1.251 . S
O351 Eu321 2.374 . S
O351 C339 1.251 . S
H352 C323 0.931 . S
H353 C324 0.931 . S
H354 C326 0.931 . S
H355 C327 0.931 . S
H356 C333 0.931 . S
H357 C334 0.931 . S
H358 C336 0.931 . S
H359 C337 0.931 . S
C360 Eu361 2.835 . S
C360 C362 1.500 . S
C360 O380 1.257 . S
C360 O381 1.260 . S
Eu361 C360 2.835 . S
Eu361 O380 2.473 . S
Eu361 O381 2.480 . S
Eu361 O382 2.430 . S
Eu361 O383 2.670 . S
Eu361 O384 2.394 . S
Eu361 O389 2.355 . S
Eu361 O391 2.374 . S
C362 C360 1.500 . S
C362 C363 1.377 . S
C362 C367 1.377 . S
C363 C362 1.377 . S
C363 C364 1.395 . S
C363 H392 0.931 . S
C364 C363 1.395 . S
C364 C365 1.383 . S
C364 H393 0.931 . S
C365 C364 1.383 . S
C365 C366 1.394 . S
C366 C365 1.394 . S
C366 C367 1.378 . S
C366 H394 0.931 . S
C367 C362 1.377 . S
C367 C366 1.378 . S
C367 H395 0.931 . S
C368 O382 1.259 . S
C368 O383 1.270 . S
C369 O384 1.251 . S
C369 O385 1.251 . S
C370 Eu371 2.835 . S
C370 C372 1.500 . S
C370 O386 1.257 . S
C370 O387 1.260 . S
Eu371 C370 2.835 . S
Eu371 O383 2.355 . S
Eu371 O385 2.374 . S
Eu371 O386 2.473 . S
Eu371 O387 2.480 . S
Eu371 O388 2.430 . S
Eu371 O389 2.670 . S
Eu371 O390 2.394 . S
C372 C370 1.500 . S
C372 C373 1.377 . S
C372 C377 1.377 . S
C373 C372 1.377 . S
C373 C374 1.395 . S
C373 H396 0.931 . S
C374 C373 1.395 . S
C374 C375 1.383 . S
C374 H397 0.931 . S
C375 C374 1.383 . S
C375 C376 1.394 . S
C376 C375 1.394 . S
C376 C377 1.378 . S
C376 H398 0.931 . S
C377 C372 1.377 . S
C377 C376 1.378 . S
C377 H399 0.931 . S
C378 O388 1.259 . S
C378 O389 1.270 . S
C379 O390 1.251 . S
C379 O391 1.251 . S
O380 C360 1.257 . S
O380 Eu361 2.473 . S
O381 C360 1.260 . S
O381 Eu361 2.480 . S
O382 Eu361 2.430 . S
O382 C368 1.259 . S
O383 Eu361 2.670 . S
O383 C368 1.270 . S
O383 Eu371 2.355 . S
O384 Eu361 2.394 . S
O384 C369 1.251 . S
O385 C369 1.251 . S
O385 Eu371 2.374 . S
O386 C370 1.257 . S
O386 Eu371 2.473 . S
O387 C370 1.260 . S
O387 Eu371 2.480 . S
O388 Eu371 2.430 . S
O388 C378 1.259 . S
O389 Eu361 2.355 . S
O389 Eu371 2.670 . S
O389 C378 1.270 . S
O390 Eu371 2.394 . S
O390 C379 1.251 . S
O391 Eu361 2.374 . S
O391 C379 1.251 . S
H392 C363 0.931 . S
H393 C364 0.931 . S
H394 C366 0.931 . S
H395 C367 0.931 . S
H396 C373 0.931 . S
H397 C374 0.931 . S
H398 C376 0.931 . S
H399 C377 0.931 . S
C400 Eu401 2.835 . S
C400 C402 1.500 . S
C400 O420 1.257 . S
C400 O421 1.260 . S
Eu401 C400 2.835 . S
Eu401 O420 2.473 . S
Eu401 O421 2.480 . S
Eu401 O422 2.430 . S
Eu401 O423 2.670 . S
Eu401 O424 2.394 . S
Eu401 O429 2.355 . S
Eu401 O431 2.374 . S
C402 C400 1.500 . S
C402 C403 1.377 . S
C402 C407 1.377 . S
C403 C402 1.377 . S
C403 C404 1.395 . S
C403 H432 0.931 . S
C404 C403 1.395 . S
C404 C405 1.383 . S
C404 H433 0.931 . S
C405 C404 1.383 . S
C405 C406 1.394 . S
C406 C405 1.394 . S
C406 C407 1.378 . S
C406 H434 0.931 . S
C407 C402 1.377 . S
C407 C406 1.378 . S
C407 H435 0.931 . S
C408 O422 1.259 . S
C408 O423 1.270 . S
C409 O424 1.251 . S
C409 O425 1.251 . S
C410 Eu411 2.835 . S
C410 C412 1.500 . S
C410 O426 1.257 . S
C410 O427 1.260 . S
Eu411 C410 2.835 . S
Eu411 O423 2.355 . S
Eu411 O425 2.374 . S
Eu411 O426 2.473 . S
Eu411 O427 2.480 . S
Eu411 O428 2.430 . S
Eu411 O429 2.670 . S
Eu411 O430 2.394 . S
C412 C410 1.500 . S
C412 C413 1.377 . S
C412 C417 1.377 . S
C413 C412 1.377 . S
C413 C414 1.395 . S
C413 H436 0.931 . S
C414 C413 1.395 . S
C414 C415 1.383 . S
C414 H437 0.931 . S
C415 C414 1.383 . S
C415 C416 1.394 . S
C416 C415 1.394 . S
C416 C417 1.378 . S
C416 H438 0.931 . S
C417 C412 1.377 . S
C417 C416 1.378 . S
C417 H439 0.931 . S
C418 O428 1.259 . S
C418 O429 1.270 . S
C419 O430 1.251 . S
C419 O431 1.251 . S
O420 C400 1.257 . S
O420 Eu401 2.473 . S
O421 C400 1.260 . S
O421 Eu401 2.480 . S
O422 Eu401 2.430 . S
O422 C408 1.259 . S
O423 Eu401 2.670 . S
O423 C408 1.270 . S
O423 Eu411 2.355 . S
O424 Eu401 2.394 . S
O424 C409 1.251 . S
O425 C409 1.251 . S
O425 Eu411 2.374 . S
O426 C410 1.257 . S
O426 Eu411 2.473 . S
O427 C410 1.260 . S
O427 Eu411 2.480 . S
O428 Eu411 2.430 . S
O428 C418 1.259 . S
O429 Eu401 2.355 . S
O429 Eu411 2.670 . S
O429 C418 1.270 . S
O430 Eu411 2.394 . S
O430 C419 1.251 . S
O431 Eu401 2.374 . S
O431 C419 1.251 . S
H432 C403 0.931 . S
H433 C404 0.931 . S
H434 C406 0.931 . S
H435 C407 0.931 . S
H436 C413 0.931 . S
H437 C414 0.931 . S
H438 C416 0.931 . S
H439 C417 0.931 . S
C440 Eu441 2.835 . S
C440 C442 1.500 . S
C440 O460 1.257 . S
C440 O461 1.260 . S
Eu441 C440 2.835 . S
Eu441 O460 2.473 . S
Eu441 O461 2.480 . S
Eu441 O462 2.430 . S
Eu441 O463 2.670 . S
Eu441 O464 2.394 . S
Eu441 O469 2.355 . S
Eu441 O471 2.374 . S
C442 C440 1.500 . S
C442 C443 1.377 . S
C442 C447 1.377 . S
C443 C442 1.377 . S
C443 C444 1.395 . S
C443 H472 0.931 . S
C444 C443 1.395 . S
C444 C445 1.383 . S
C444 H473 0.931 . S
C445 C444 1.383 . S
C445 C446 1.394 . S
C446 C445 1.394 . S
C446 C447 1.378 . S
C446 H474 0.931 . S
C447 C442 1.377 . S
C447 C446 1.378 . S
C447 H475 0.931 . S
C448 O462 1.259 . S
C448 O463 1.270 . S
C449 O464 1.251 . S
C449 O465 1.251 . S
C450 Eu451 2.835 . S
C450 C452 1.500 . S
C450 O466 1.257 . S
C450 O467 1.260 . S
Eu451 C450 2.835 . S
Eu451 O463 2.355 . S
Eu451 O465 2.374 . S
Eu451 O466 2.473 . S
Eu451 O467 2.480 . S
Eu451 O468 2.430 . S
Eu451 O469 2.670 . S
Eu451 O470 2.394 . S
C452 C450 1.500 . S
C452 C453 1.377 . S
C452 C457 1.377 . S
C453 C452 1.377 . S
C453 C454 1.395 . S
C453 H476 0.931 . S
C454 C453 1.395 . S
C454 C455 1.383 . S
C454 H477 0.931 . S
C455 C454 1.383 . S
C455 C456 1.394 . S
C456 C455 1.394 . S
C456 C457 1.378 . S
C456 H478 0.931 . S
C457 C452 1.377 . S
C457 C456 1.378 . S
C457 H479 0.931 . S
C458 O468 1.259 . S
C458 O469 1.270 . S
C459 O470 1.251 . S
C459 O471 1.251 . S
O460 C440 1.257 . S
O460 Eu441 2.473 . S
O461 C440 1.260 . S
O461 Eu441 2.480 . S
O462 Eu441 2.430 . S
O462 C448 1.259 . S
O463 Eu441 2.670 . S
O463 C448 1.270 . S
O463 Eu451 2.355 . S
O464 Eu441 2.394 . S
O464 C449 1.251 . S
O465 C449 1.251 . S
O465 Eu451 2.374 . S
O466 C450 1.257 . S
O466 Eu451 2.473 . S
O467 C450 1.260 . S
O467 Eu451 2.480 . S
O468 Eu451 2.430 . S
O468 C458 1.259 . S
O469 Eu441 2.355 . S
O469 Eu451 2.670 . S
O469 C458 1.270 . S
O470 Eu451 2.394 . S
O470 C459 1.251 . S
O471 Eu441 2.374 . S
O471 C459 1.251 . S
H472 C443 0.931 . S
H473 C444 0.931 . S
H474 C446 0.931 . S
H475 C447 0.931 . S
H476 C453 0.931 . S
H477 C454 0.931 . S
H478 C456 0.931 . S
H479 C457 0.931 . S
C480 Eu481 2.835 . S
C480 C482 1.500 . S
C480 O500 1.257 . S
C480 O501 1.260 . S
Eu481 C480 2.835 . S
Eu481 O500 2.473 . S
Eu481 O501 2.480 . S
Eu481 O502 2.430 . S
Eu481 O503 2.670 . S
Eu481 O504 2.394 . S
Eu481 O509 2.355 . S
Eu481 O511 2.374 . S
C482 C480 1.500 . S
C482 C483 1.377 . S
C482 C487 1.377 . S
C483 C482 1.377 . S
C483 C484 1.395 . S
C483 H512 0.931 . S
C484 C483 1.395 . S
C484 C485 1.383 . S
C484 H513 0.931 . S
C485 C484 1.383 . S
C485 C486 1.394 . S
C486 C485 1.394 . S
C486 C487 1.378 . S
C486 H514 0.931 . S
C487 C482 1.377 . S
C487 C486 1.378 . S
C487 H515 0.931 . S
C488 O502 1.259 . S
C488 O503 1.270 . S
C489 O504 1.251 . S
C489 O505 1.251 . S
C490 Eu491 2.835 . S
C490 C492 1.500 . S
C490 O506 1.257 . S
C490 O507 1.260 . S
Eu491 C490 2.835 . S
Eu491 O503 2.355 . S
Eu491 O505 2.374 . S
Eu491 O506 2.473 . S
Eu491 O507 2.480 . S
Eu491 O508 2.430 . S
Eu491 O509 2.670 . S
Eu491 O510 2.394 . S
C492 C490 1.500 . S
C492 C493 1.377 . S
C492 C497 1.377 . S
C493 C492 1.377 . S
C493 C494 1.395 . S
C493 H516 0.931 . S
C494 C493 1.395 . S
C494 C495 1.383 . S
C494 H517 0.931 . S
C495 C494 1.383 . S
C495 C496 1.394 . S
C496 C495 1.394 . S
C496 C497 1.378 . S
C496 H518 0.931 . S
C497 C492 1.377 . S
C497 C496 1.378 . S
C497 H519 0.931 . S
C498 O508 1.259 . S
C498 O509 1.270 . S
C499 O510 1.251 . S
C499 O511 1.251 . S
O500 C480 1.257 . S
O500 Eu481 2.473 . S
O501 C480 1.260 . S
O501 Eu481 2.480 . S
O502 Eu481 2.430 . S
O502 C488 1.259 . S
O503 Eu481 2.670 . S
O503 C488 1.270 . S
O503 Eu491 2.355 . S
O504 Eu481 2.394 . S
O504 C489 1.251 . S
O505 C489 1.251 . S
O505 Eu491 2.374 . S
O506 C490 1.257 . S
O506 Eu491 2.473 . S
O507 C490 1.260 . S
O507 Eu491 2.480 . S
O508 Eu491 2.430 . S
O508 C498 1.259 . S
O509 Eu481 2.355 . S
O509 Eu491 2.670 . S
O509 C498 1.270 . S
O510 Eu491 2.394 . S
O510 C499 1.251 . S
O511 Eu481 2.374 . S
O511 C499 1.251 . S
H512 C483 0.931 . S
H513 C484 0.931 . S
H514 C486 0.931 . S
H515 C487 0.931 . S
H516 C493 0.931 . S
H517 C494 0.931 . S
H518 C496 0.931 . S
H519 C497 0.931 . S
C520 Eu521 2.835 . S
C520 C522 1.500 . S
C520 O540 1.257 . S
C520 O541 1.260 . S
Eu521 C520 2.835 . S
Eu521 O540 2.473 . S
Eu521 O541 2.480 . S
Eu521 O542 2.430 . S
Eu521 O543 2.670 . S
Eu521 O544 2.394 . S
Eu521 O549 2.355 . S
Eu521 O551 2.374 . S
C522 C520 1.500 . S
C522 C523 1.377 . S
C522 C527 1.377 . S
C523 C522 1.377 . S
C523 C524 1.395 . S
C523 H552 0.931 . S
C524 C523 1.395 . S
C524 C525 1.383 . S
C524 H553 0.931 . S
C525 C524 1.383 . S
C525 C526 1.394 . S
C526 C525 1.394 . S
C526 C527 1.378 . S
C526 H554 0.931 . S
C527 C522 1.377 . S
C527 C526 1.378 . S
C527 H555 0.931 . S
C528 O542 1.259 . S
C528 O543 1.270 . S
C529 O544 1.251 . S
C529 O545 1.251 . S
C530 Eu531 2.835 . S
C530 C532 1.500 . S
C530 O546 1.257 . S
C530 O547 1.260 . S
Eu531 C530 2.835 . S
Eu531 O543 2.355 . S
Eu531 O545 2.374 . S
Eu531 O546 2.473 . S
Eu531 O547 2.480 . S
Eu531 O548 2.430 . S
Eu531 O549 2.670 . S
Eu531 O550 2.394 . S
C532 C530 1.500 . S
C532 C533 1.377 . S
C532 C537 1.377 . S
C533 C532 1.377 . S
C533 C534 1.395 . S
C533 H556 0.931 . S
C534 C533 1.395 . S
C534 C535 1.383 . S
C534 H557 0.931 . S
C535 C534 1.383 . S
C535 C536 1.394 . S
C536 C535 1.394 . S
C536 C537 1.378 . S
C536 H558 0.931 . S
C537 C532 1.377 . S
C537 C536 1.378 . S
C537 H559 0.931 . S
C538 O548 1.259 . S
C538 O549 1.270 . S
C539 O550 1.251 . S
C539 O551 1.251 . S
O540 C520 1.257 . S
O540 Eu521 2.473 . S
O541 C520 1.260 . S
O541 Eu521 2.480 . S
O542 Eu521 2.430 . S
O542 C528 1.259 . S
O543 Eu521 2.670 . S
O543 C528 1.270 . S
O543 Eu531 2.355 . S
O544 Eu521 2.394 . S
O544 C529 1.251 . S
O545 C529 1.251 . S
O545 Eu531 2.374 . S
O546 C530 1.257 . S
O546 Eu531 2.473 . S
O547 C530 1.260 . S
O547 Eu531 2.480 . S
O548 Eu531 2.430 . S
O548 C538 1.259 . S
O549 Eu521 2.355 . S
O549 Eu531 2.670 . S
O549 C538 1.270 . S
O550 Eu531 2.394 . S
O550 C539 1.251 . S
O551 Eu521 2.374 . S
O551 C539 1.251 . S
H552 C523 0.931 . S
H553 C524 0.931 . S
H554 C526 0.931 . S
H555 C527 0.931 . S
H556 C533 0.931 . S
H557 C534 0.931 . S
H558 C536 0.931 . S
H559 C537 0.931 . S
C560 Eu561 2.835 . S
C560 C562 1.500 . S
C560 O580 1.257 . S
C560 O581 1.260 . S
Eu561 C560 2.835 . S
Eu561 O580 2.473 . S
Eu561 O581 2.480 . S
Eu561 O582 2.430 . S
Eu561 O583 2.670 . S
Eu561 O584 2.394 . S
Eu561 O589 2.355 . S
Eu561 O591 2.374 . S
C562 C560 1.500 . S
C562 C563 1.377 . S
C562 C567 1.377 . S
C563 C562 1.377 . S
C563 C564 1.395 . S
C563 H592 0.931 . S
C564 C563 1.395 . S
C564 C565 1.383 . S
C564 H593 0.931 . S
C565 C564 1.383 . S
C565 C566 1.394 . S
C566 C565 1.394 . S
C566 C567 1.378 . S
C566 H594 0.931 . S
C567 C562 1.377 . S
C567 C566 1.378 . S
C567 H595 0.931 . S
C568 O582 1.259 . S
C568 O583 1.270 . S
C569 O584 1.251 . S
C569 O585 1.251 . S
C570 Eu571 2.835 . S
C570 C572 1.500 . S
C570 O586 1.257 . S
C570 O587 1.260 . S
Eu571 C570 2.835 . S
Eu571 O583 2.355 . S
Eu571 O585 2.374 . S
Eu571 O586 2.473 . S
Eu571 O587 2.480 . S
Eu571 O588 2.430 . S
Eu571 O589 2.670 . S
Eu571 O590 2.394 . S
C572 C570 1.500 . S
C572 C573 1.377 . S
C572 C577 1.377 . S
C573 C572 1.377 . S
C573 C574 1.395 . S
C573 H596 0.931 . S
C574 C573 1.395 . S
C574 C575 1.383 . S
C574 H597 0.931 . S
C575 C574 1.383 . S
C575 C576 1.394 . S
C576 C575 1.394 . S
C576 C577 1.378 . S
C576 H598 0.931 . S
C577 C572 1.377 . S
C577 C576 1.378 . S
C577 H599 0.931 . S
C578 O588 1.259 . S
C578 O589 1.270 . S
C579 O590 1.251 . S
C579 O591 1.251 . S
O580 C560 1.257 . S
O580 Eu561 2.473 . S
O581 C560 1.260 . S
O581 Eu561 2.480 . S
O582 Eu561 2.430 . S
O582 C568 1.259 . S
O583 Eu561 2.670 . S
O583 C568 1.270 . S
O583 Eu571 2.355 . S
O584 Eu561 2.394 . S
O584 C569 1.251 . S
O585 C569 1.251 . S
O585 Eu571 2.374 . S
O586 C570 1.257 . S
O586 Eu571 2.473 . S
O587 C570 1.260 . S
O587 Eu571 2.480 . S
O588 Eu571 2.430 . S
O588 C578 1.259 . S
O589 Eu561 2.355 . S
O589 Eu571 2.670 . S
O589 C578 1.270 . S
O590 Eu571 2.394 . S
O590 C579 1.251 . S
O591 Eu561 2.374 . S
O591 C579 1.251 . S
H592 C563 0.931 . S
H593 C564 0.931 . S
H594 C566 0.931 . S
H595 C567 0.931 . S
H596 C573 0.931 . S
H597 C574 0.931 . S
H598 C576 0.931 . S
H599 C577 0.931 . S
C600 Eu601 2.835 . S
C600 C602 1.500 . S
C600 O620 1.257 . S
C600 O621 1.260 . S
Eu601 C600 2.835 . S
Eu601 O620 2.473 . S
Eu601 O621 2.480 . S
Eu601 O622 2.430 . S
Eu601 O623 2.670 . S
Eu601 O624 2.394 . S
Eu601 O629 2.355 . S
Eu601 O631 2.374 . S
C602 C600 1.500 . S
C602 C603 1.377 . S
C602 C607 1.377 . S
C603 C602 1.377 . S
C603 C604 1.395 . S
C603 H632 0.931 . S
C604 C603 1.395 . S
C604 C605 1.383 . S
C604 H633 0.931 . S
C605 C604 1.383 . S
C605 C606 1.394 . S
C606 C605 1.394 . S
C606 C607 1.378 . S
C606 H634 0.931 . S
C607 C602 1.377 . S
C607 C606 1.378 . S
C607 H635 0.931 . S
C608 O622 1.259 . S
C608 O623 1.270 . S
C609 O624 1.251 . S
C609 O625 1.251 . S
C610 Eu611 2.835 . S
C610 C612 1.500 . S
C610 O626 1.257 . S
C610 O627 1.260 . S
Eu611 C610 2.835 . S
Eu611 O623 2.355 . S
Eu611 O625 2.374 . S
Eu611 O626 2.473 . S
Eu611 O627 2.480 . S
Eu611 O628 2.430 . S
Eu611 O629 2.670 . S
Eu611 O630 2.394 . S
C612 C610 1.500 . S
C612 C613 1.377 . S
C612 C617 1.377 . S
C613 C612 1.377 . S
C613 C614 1.395 . S
C613 H636 0.931 . S
C614 C613 1.395 . S
C614 C615 1.383 . S
C614 H637 0.931 . S
C615 C614 1.383 . S
C615 C616 1.394 1_655 S
C616 C615 1.394 1_455 S
C616 C617 1.378 1_455 S
C616 H638 0.931 . S
C617 C612 1.377 . S
C617 C616 1.378 1_655 S
C617 H639 0.931 1_655 S
C618 O628 1.259 . S
C618 O629 1.270 . S
C619 O630 1.251 . S
C619 O631 1.251 . S
O620 C600 1.257 . S
O620 Eu601 2.473 . S
O621 C600 1.260 . S
O621 Eu601 2.480 . S
O622 Eu601 2.430 . S
O622 C608 1.259 . S
O623 Eu601 2.670 . S
O623 C608 1.270 . S
O623 Eu611 2.355 . S
O624 Eu601 2.394 . S
O624 C609 1.251 . S
O625 C609 1.251 . S
O625 Eu611 2.374 . S
O626 C610 1.257 . S
O626 Eu611 2.473 . S
O627 C610 1.260 . S
O627 Eu611 2.480 . S
O628 Eu611 2.430 . S
O628 C618 1.259 . S
O629 Eu601 2.355 . S
O629 Eu611 2.670 . S
O629 C618 1.270 . S
O630 Eu611 2.394 . S
O630 C619 1.251 . S
O631 Eu601 2.374 . S
O631 C619 1.251 . S
H632 C603 0.931 . S
H633 C604 0.931 . S
H634 C606 0.931 . S
H635 C607 0.931 . S
H636 C613 0.931 . S
H637 C614 0.931 . S
H638 C616 0.931 . S
H639 C617 0.931 1_455 S
C640 Eu641 2.835 . S
C640 C642 1.500 . S
C640 O660 1.257 . S
C640 O661 1.260 . S
Eu641 C640 2.835 . S
Eu641 O660 2.473 . S
Eu641 O661 2.480 . S
Eu641 O662 2.430 . S
Eu641 O663 2.670 . S
Eu641 O664 2.394 . S
Eu641 O669 2.355 . S
Eu641 O671 2.374 . S
C642 C640 1.500 . S
C642 C643 1.377 . S
C642 C647 1.377 . S
C643 C642 1.377 . S
C643 C644 1.395 . S
C643 H672 0.931 . S
C644 C643 1.395 . S
C644 C645 1.383 . S
C644 H673 0.931 . S
C645 C644 1.383 . S
C645 C646 1.394 . S
C646 C645 1.394 . S
C646 C647 1.378 . S
C646 H674 0.931 . S
C647 C642 1.377 . S
C647 C646 1.378 . S
C647 H675 0.931 . S
C648 O662 1.259 . S
C648 O663 1.270 . S
C649 O664 1.251 . S
C649 O665 1.251 . S
C650 Eu651 2.835 . S
C650 C652 1.500 . S
C650 O666 1.257 . S
C650 O667 1.260 . S
Eu651 C650 2.835 . S
Eu651 O663 2.355 . S
Eu651 O665 2.374 . S
Eu651 O666 2.473 . S
Eu651 O667 2.480 . S
Eu651 O668 2.430 . S
Eu651 O669 2.670 . S
Eu651 O670 2.394 . S
C652 C650 1.500 . S
C652 C653 1.377 . S
C652 C657 1.377 . S
C653 C652 1.377 . S
C653 C654 1.395 . S
C653 H676 0.931 . S
C654 C653 1.395 . S
C654 C655 1.383 . S
C654 H677 0.931 . S
C655 C654 1.383 . S
C655 C656 1.394 . S
C656 C655 1.394 . S
C656 C657 1.378 . S
C656 H678 0.931 . S
C657 C652 1.377 . S
C657 C656 1.378 . S
C657 H679 0.931 . S
C658 O668 1.259 . S
C658 O669 1.270 . S
C659 O670 1.251 . S
C659 O671 1.251 . S
O660 C640 1.257 . S
O660 Eu641 2.473 . S
O661 C640 1.260 . S
O661 Eu641 2.480 . S
O662 Eu641 2.430 . S
O662 C648 1.259 . S
O663 Eu641 2.670 . S
O663 C648 1.270 . S
O663 Eu651 2.355 . S
O664 Eu641 2.394 . S
O664 C649 1.251 . S
O665 C649 1.251 . S
O665 Eu651 2.374 . S
O666 C650 1.257 . S
O666 Eu651 2.473 . S
O667 C650 1.260 . S
O667 Eu651 2.480 . S
O668 Eu651 2.430 . S
O668 C658 1.259 . S
O669 Eu641 2.355 . S
O669 Eu651 2.670 . S
O669 C658 1.270 . S
O670 Eu651 2.394 . S
O670 C659 1.251 . S
O671 Eu641 2.374 . S
O671 C659 1.251 . S
H672 C643 0.931 . S
H673 C644 0.931 . S
H674 C646 0.931 . S
H675 C647 0.931 . S
H676 C653 0.931 . S
H677 C654 0.931 . S
H678 C656 0.931 . S
H679 C657 0.931 . S
C680 Eu681 2.835 . S
C680 C682 1.500 . S
C680 O700 1.257 . S
C680 O701 1.260 . S
Eu681 C680 2.835 . S
Eu681 O700 2.473 . S
Eu681 O701 2.480 . S
Eu681 O702 2.430 . S
Eu681 O703 2.670 . S
Eu681 O704 2.394 . S
Eu681 O709 2.355 . S
Eu681 O711 2.374 . S
C682 C680 1.500 . S
C682 C683 1.377 . S
C682 C687 1.377 . S
C683 C682 1.377 . S
C683 C684 1.395 . S
C683 H712 0.931 . S
C684 C683 1.395 . S
C684 C685 1.383 . S
C684 H713 0.931 . S
C685 C684 1.383 . S
C685 C686 1.394 . S
C686 C685 1.394 . S
C686 C687 1.378 . S
C686 H714 0.931 . S
C687 C682 1.377 . S
C687 C686 1.378 . S
C687 H715 0.931 . S
C688 O702 1.259 . S
C688 O703 1.270 . S
C689 O704 1.251 . S
C689 O705 1.251 . S
C690 Eu691 2.835 . S
C690 C692 1.500 . S
C690 O706 1.257 . S
C690 O707 1.260 . S
Eu691 C690 2.835 . S
Eu691 O703 2.355 . S
Eu691 O705 2.374 . S
Eu691 O706 2.473 . S
Eu691 O707 2.480 . S
Eu691 O708 2.430 . S
Eu691 O709 2.670 . S
Eu691 O710 2.394 . S
C692 C690 1.500 . S
C692 C693 1.377 . S
C692 C697 1.377 . S
C693 C692 1.377 . S
C693 C694 1.395 . S
C693 H716 0.931 . S
C694 C693 1.395 . S
C694 C695 1.383 . S
C694 H717 0.931 . S
C695 C694 1.383 . S
C695 C696 1.394 1_545 S
C696 C695 1.394 1_565 S
C696 C697 1.378 1_565 S
C696 H718 0.931 . S
C697 C692 1.377 . S
C697 C696 1.378 1_545 S
C697 H719 0.931 1_545 S
C698 O708 1.259 . S
C698 O709 1.270 . S
C699 O710 1.251 . S
C699 O711 1.251 . S
O700 C680 1.257 . S
O700 Eu681 2.473 . S
O701 C680 1.260 . S
O701 Eu681 2.480 . S
O702 Eu681 2.430 . S
O702 C688 1.259 . S
O703 Eu681 2.670 . S
O703 C688 1.270 . S
O703 Eu691 2.355 . S
O704 Eu681 2.394 . S
O704 C689 1.251 . S
O705 C689 1.251 . S
O705 Eu691 2.374 . S
O706 C690 1.257 . S
O706 Eu691 2.473 . S
O707 C690 1.260 . S
O707 Eu691 2.480 . S
O708 Eu691 2.430 . S
O708 C698 1.259 . S
O709 Eu681 2.355 . S
O709 Eu691 2.670 . S
O709 C698 1.270 . S
O710 Eu691 2.394 . S
O710 C699 1.251 . S
O711 Eu681 2.374 . S
O711 C699 1.251 . S
H712 C683 0.931 . S
H713 C684 0.931 . S
H714 C686 0.931 . S
H715 C687 0.931 . S
H716 C693 0.931 . S
H717 C694 0.931 . S
H718 C696 0.931 . S
H719 C697 0.931 1_565 S
C720 Eu721 2.835 . S
C720 C722 1.500 . S
C720 O740 1.257 . S
C720 O741 1.260 . S
Eu721 C720 2.835 . S
Eu721 O740 2.473 . S
Eu721 O741 2.480 . S
Eu721 O742 2.430 . S
Eu721 O743 2.670 . S
Eu721 O744 2.394 . S
Eu721 O749 2.355 . S
Eu721 O751 2.374 . S
C722 C720 1.500 . S
C722 C723 1.377 . S
C722 C727 1.377 . S
C723 C722 1.377 . S
C723 C724 1.395 . S
C723 H752 0.931 . S
C724 C723 1.395 . S
C724 C725 1.383 . S
C724 H753 0.931 . S
C725 C724 1.383 . S
C725 C726 1.383 1_545 S
C726 C725 1.383 1_565 S
C726 C727 1.374 1_565 S
C726 H754 0.945 . S
C727 C722 1.377 . S
C727 C726 1.374 1_545 S
C727 H755 0.931 . S
C728 O742 1.259 . S
C728 O743 1.270 . S
C729 O744 1.251 . S
C729 O745 1.251 . S
C730 Eu731 2.835 . S
C730 C732 1.500 . S
C730 O746 1.257 . S
C730 O747 1.260 . S
Eu731 C730 2.835 . S
Eu731 O743 2.355 . S
Eu731 O745 2.374 . S
Eu731 O746 2.473 . S
Eu731 O747 2.480 . S
Eu731 O748 2.430 . S
Eu731 O749 2.670 . S
Eu731 O750 2.394 . S
C732 C730 1.500 . S
C732 C733 1.377 . S
C732 C737 1.377 . S
C733 C732 1.377 . S
C733 C734 1.395 . S
C733 H756 0.931 . S
C734 C733 1.395 . S
C734 C735 1.383 . S
C734 H757 0.931 . S
C735 C734 1.383 . S
C735 C736 1.394 . S
C736 C735 1.394 . S
C736 C737 1.378 . S
C736 H758 0.931 . S
C737 C732 1.377 . S
C737 C736 1.378 . S
C737 H759 0.931 . S
C738 O748 1.259 . S
C738 O749 1.270 . S
C739 O750 1.251 . S
C739 O751 1.251 . S
O740 C720 1.257 . S
O740 Eu721 2.473 . S
O741 C720 1.260 . S
O741 Eu721 2.480 . S
O742 Eu721 2.430 . S
O742 C728 1.259 . S
O743 Eu721 2.670 . S
O743 C728 1.270 . S
O743 Eu731 2.355 . S
O744 Eu721 2.394 . S
O744 C729 1.251 . S
O745 C729 1.251 . S
O745 Eu731 2.374 . S
O746 C730 1.257 . S
O746 Eu731 2.473 . S
O747 C730 1.260 . S
O747 Eu731 2.480 . S
O748 Eu731 2.430 . S
O748 C738 1.259 . S
O749 Eu721 2.355 . S
O749 Eu731 2.670 . S
O749 C738 1.270 . S
O750 Eu731 2.394 . S
O750 C739 1.251 . S
O751 Eu721 2.374 . S
O751 C739 1.251 . S
H752 C723 0.931 . S
H753 C724 0.931 . S
H754 C726 0.945 . S
H755 C727 0.931 . S
H756 C733 0.931 . S
H757 C734 0.931 . S
H758 C736 0.931 . S
H759 C737 0.931 . S
C760 Eu761 2.835 . S
C760 C762 1.500 . S
C760 O780 1.257 . S
C760 O781 1.260 . S
Eu761 C760 2.835 . S
Eu761 O780 2.473 . S
Eu761 O781 2.480 . S
Eu761 O782 2.430 . S
Eu761 O783 2.670 . S
Eu761 O784 2.394 . S
Eu761 O789 2.355 . S
Eu761 O791 2.374 . S
C762 C760 1.500 . S
C762 C763 1.377 . S
C762 C767 1.377 . S
C763 C762 1.377 . S
C763 C764 1.395 . S
C763 H792 0.931 . S
C764 C763 1.395 . S
C764 C765 1.383 . S
C764 H793 0.931 . S
C765 C764 1.383 . S
C765 C766 1.393 1_655 S
C766 C765 1.393 1_455 S
C766 C767 1.375 1_455 S
C766 H794 0.934 . S
C767 C762 1.377 . S
C767 C766 1.375 1_655 S
C767 H795 0.931 . S
C768 O782 1.259 . S
C768 O783 1.270 . S
C769 O784 1.251 . S
C769 O785 1.251 . S
C770 Eu771 2.835 . S
C770 C772 1.500 . S
C770 O786 1.257 . S
C770 O787 1.260 . S
Eu771 C770 2.835 . S
Eu771 O783 2.355 . S
Eu771 O785 2.374 . S
Eu771 O786 2.473 . S
Eu771 O787 2.480 . S
Eu771 O788 2.430 . S
Eu771 O789 2.670 . S
Eu771 O790 2.394 . S
C772 C770 1.500 . S
C772 C773 1.377 . S
C772 C777 1.377 . S
C773 C772 1.377 . S
C773 C774 1.395 . S
C773 H796 0.931 . S
C774 C773 1.395 . S
C774 C775 1.383 . S
C774 H797 0.931 . S
C775 C774 1.383 . S
C775 C776 1.394 . S
C776 C775 1.394 . S
C776 C777 1.378 . S
C776 H798 0.931 . S
C777 C772 1.377 . S
C777 C776 1.378 . S
C777 H799 0.931 . S
C778 O788 1.259 . S
C778 O789 1.270 . S
C779 O790 1.251 . S
C779 O791 1.251 . S
O780 C760 1.257 . S
O780 Eu761 2.473 . S
O781 C760 1.260 . S
O781 Eu761 2.480 . S
O782 Eu761 2.430 . S
O782 C768 1.259 . S
O783 Eu761 2.670 . S
O783 C768 1.270 . S
O783 Eu771 2.355 . S
O784 Eu761 2.394 . S
O784 C769 1.251 . S
O785 C769 1.251 . S
O785 Eu771 2.374 . S
O786 C770 1.257 . S
O786 Eu771 2.473 . S
O787 C770 1.260 . S
O787 Eu771 2.480 . S
O788 Eu771 2.430 . S
O788 C778 1.259 . S
O789 Eu761 2.355 . S
O789 Eu771 2.670 . S
O789 C778 1.270 . S
O790 Eu771 2.394 . S
O790 C779 1.251 . S
O791 Eu761 2.374 . S
O791 C779 1.251 . S
H792 C763 0.931 . S
H793 C764 0.931 . S
H794 C766 0.934 . S
H795 C767 0.931 . S
H796 C773 0.931 . S
H797 C774 0.931 . S
H798 C776 0.931 . S
H799 C777 0.931 . S
C800 Eu801 2.835 . S
C800 C802 1.500 . S
C800 O820 1.257 . S
C800 O821 1.260 . S
Eu801 C800 2.835 . S
Eu801 O820 2.473 . S
Eu801 O821 2.480 . S
Eu801 O822 2.430 . S
Eu801 O823 2.670 . S
Eu801 O824 2.394 . S
Eu801 O829 2.355 . S
Eu801 O831 2.374 . S
C802 C800 1.500 . S
C802 C803 1.377 . S
C802 C807 1.377 . S
C803 C802 1.377 . S
C803 C804 1.395 . S
C803 H832 0.931 . S
C804 C803 1.395 . S
C804 C805 1.383 . S
C804 H833 0.931 . S
C805 C804 1.383 . S
C805 C806 1.394 . S
C806 C805 1.394 . S
C806 C807 1.378 . S
C806 H834 0.931 . S
C807 C802 1.377 . S
C807 C806 1.378 . S
C807 H835 0.931 . S
C808 O822 1.259 . S
C808 O823 1.270 . S
C809 O824 1.251 . S
C809 O825 1.251 . S
C810 Eu811 2.835 . S
C810 C812 1.500 . S
C810 O826 1.257 . S
C810 O827 1.260 . S
Eu811 C810 2.835 . S
Eu811 O823 2.355 . S
Eu811 O825 2.374 . S
Eu811 O826 2.473 . S
Eu811 O827 2.480 . S
Eu811 O828 2.430 . S
Eu811 O829 2.670 . S
Eu811 O830 2.394 . S
C812 C810 1.500 . S
C812 C813 1.377 . S
C812 C817 1.377 . S
C813 C812 1.377 . S
C813 C814 1.395 . S
C813 H836 0.931 . S
C814 C813 1.395 . S
C814 C815 1.383 . S
C814 H837 0.931 . S
C815 C814 1.383 . S
C815 C816 1.394 . S
C816 C815 1.394 . S
C816 C817 1.378 . S
C816 H838 0.931 . S
C817 C812 1.377 . S
C817 C816 1.378 . S
C817 H839 0.931 . S
C818 O828 1.259 . S
C818 O829 1.270 . S
C819 O830 1.251 . S
C819 O831 1.251 . S
O820 C800 1.257 . S
O820 Eu801 2.473 . S
O821 C800 1.260 . S
O821 Eu801 2.480 . S
O822 Eu801 2.430 . S
O822 C808 1.259 . S
O823 Eu801 2.670 . S
O823 C808 1.270 . S
O823 Eu811 2.355 . S
O824 Eu801 2.394 . S
O824 C809 1.251 . S
O825 C809 1.251 . S
O825 Eu811 2.374 . S
O826 C810 1.257 . S
O826 Eu811 2.473 . S
O827 C810 1.260 . S
O827 Eu811 2.480 . S
O828 Eu811 2.430 . S
O828 C818 1.259 . S
O829 Eu801 2.355 . S
O829 Eu811 2.670 . S
O829 C818 1.270 . S
O830 Eu811 2.394 . S
O830 C819 1.251 . S
O831 Eu801 2.374 . S
O831 C819 1.251 . S
H832 C803 0.931 . S
H833 C804 0.931 . S
H834 C806 0.931 . S
H835 C807 0.931 . S
H836 C813 0.931 . S
H837 C814 0.931 . S
H838 C816 0.931 . S
H839 C817 0.931 . S
C840 Eu841 2.835 . S
C840 C842 1.500 . S
C840 O860 1.257 . S
C840 O861 1.260 . S
Eu841 C840 2.835 . S
Eu841 O860 2.473 . S
Eu841 O861 2.480 . S
Eu841 O862 2.430 . S
Eu841 O863 2.670 1_556 S
Eu841 O864 2.394 . S
Eu841 O869 2.355 . S
Eu841 O871 2.374 . S
C842 C840 1.500 . S
C842 C843 1.377 . S
C842 C847 1.377 . S
C843 C842 1.377 . S
C843 C844 1.395 . S
C843 H872 0.931 . S
C844 C843 1.395 . S
C844 C845 1.383 . S
C844 H873 0.931 . S
C845 C844 1.383 . S
C845 C846 1.394 . S
C846 C845 1.394 . S
C846 C847 1.378 . S
C846 H874 0.931 . S
C847 C842 1.377 . S
C847 C846 1.378 . S
C847 H875 0.931 . S
C848 O862 1.259 . S
C848 O863 1.270 1_556 S
C849 O864 1.251 . S
C849 O865 1.251 1_556 S
C850 Eu851 2.835 . S
C850 C852 1.500 . S
C850 O866 1.257 . S
C850 O867 1.260 . S
Eu851 C850 2.835 . S
Eu851 O863 2.355 . S
Eu851 O865 2.374 . S
Eu851 O866 2.473 . S
Eu851 O867 2.480 . S
Eu851 O868 2.430 . S
Eu851 O869 2.670 1_554 S
Eu851 O870 2.394 . S
C852 C850 1.500 . S
C852 C853 1.377 . S
C852 C857 1.377 . S
C853 C852 1.377 . S
C853 C854 1.395 . S
C853 H876 0.931 . S
C854 C853 1.395 . S
C854 C855 1.383 . S
C854 H877 0.931 . S
C855 C854 1.383 . S
C855 C856 1.394 . S
C856 C855 1.394 . S
C856 C857 1.378 . S
C856 H878 0.931 . S
C857 C852 1.377 . S
C857 C856 1.378 . S
C857 H879 0.931 . S
C858 O868 1.259 . S
C858 O869 1.270 1_554 S
C859 O870 1.251 . S
C859 O871 1.251 1_554 S
O860 C840 1.257 . S
O860 Eu841 2.473 . S
O861 C840 1.260 . S
O861 Eu841 2.480 . S
O862 Eu841 2.430 . S
O862 C848 1.259 . S
O863 Eu841 2.670 1_554 S
O863 C848 1.270 1_554 S
O863 Eu851 2.355 . S
O864 Eu841 2.394 . S
O864 C849 1.251 . S
O865 C849 1.251 1_554 S
O865 Eu851 2.374 . S
O866 C850 1.257 . S
O866 Eu851 2.473 . S
O867 C850 1.260 . S
O867 Eu851 2.480 . S
O868 Eu851 2.430 . S
O868 C858 1.259 . S
O869 Eu841 2.355 . S
O869 Eu851 2.670 1_556 S
O869 C858 1.270 1_556 S
O870 Eu851 2.394 . S
O870 C859 1.251 . S
O871 Eu841 2.374 . S
O871 C859 1.251 1_556 S
H872 C843 0.931 . S
H873 C844 0.931 . S
H874 C846 0.931 . S
H875 C847 0.931 . S
H876 C853 0.931 . S
H877 C854 0.931 . S
H878 C856 0.931 . S
H879 C857 0.931 . S
C880 Eu881 2.835 . S
C880 C882 1.500 . S
C880 O900 1.257 . S
C880 O901 1.260 . S
Eu881 C880 2.835 . S
Eu881 O900 2.473 . S
Eu881 O901 2.480 . S
Eu881 O902 2.430 . S
Eu881 O903 2.670 1_556 S
Eu881 O904 2.394 . S
Eu881 O909 2.355 . S
Eu881 O911 2.374 . S
C882 C880 1.500 . S
C882 C883 1.377 . S
C882 C887 1.377 . S
C883 C882 1.377 . S
C883 C884 1.395 . S
C883 H912 0.931 . S
C884 C883 1.395 . S
C884 C885 1.383 . S
C884 H913 0.931 . S
C885 C884 1.383 . S
C885 C886 1.394 . S
C886 C885 1.394 . S
C886 C887 1.378 . S
C886 H914 0.931 . S
C887 C882 1.377 . S
C887 C886 1.378 . S
C887 H915 0.931 . S
C888 O902 1.259 . S
C888 O903 1.270 1_556 S
C889 O904 1.251 . S
C889 O905 1.251 1_556 S
C890 Eu891 2.835 . S
C890 C892 1.500 . S
C890 O906 1.257 . S
C890 O907 1.260 . S
Eu891 C890 2.835 . S
Eu891 O903 2.355 . S
Eu891 O905 2.374 . S
Eu891 O906 2.473 . S
Eu891 O907 2.480 . S
Eu891 O908 2.430 . S
Eu891 O909 2.670 1_554 S
Eu891 O910 2.394 . S
C892 C890 1.500 . S
C892 C893 1.377 . S
C892 C897 1.377 . S
C893 C892 1.377 . S
C893 C894 1.395 . S
C893 H916 0.931 . S
C894 C893 1.395 . S
C894 C895 1.383 . S
C894 H917 0.931 . S
C895 C894 1.383 . S
C895 C896 1.394 . S
C896 C895 1.394 . S
C896 C897 1.378 . S
C896 H918 0.931 . S
C897 C892 1.377 . S
C897 C896 1.378 . S
C897 H919 0.931 . S
C898 O908 1.259 . S
C898 O909 1.270 1_554 S
C899 O910 1.251 . S
C899 O911 1.251 1_554 S
O900 C880 1.257 . S
O900 Eu881 2.473 . S
O901 C880 1.260 . S
O901 Eu881 2.480 . S
O902 Eu881 2.430 . S
O902 C888 1.259 . S
O903 Eu881 2.670 1_554 S
O903 C888 1.270 1_554 S
O903 Eu891 2.355 . S
O904 Eu881 2.394 . S
O904 C889 1.251 . S
O905 C889 1.251 1_554 S
O905 Eu891 2.374 . S
O906 C890 1.257 . S
O906 Eu891 2.473 . S
O907 C890 1.260 . S
O907 Eu891 2.480 . S
O908 Eu891 2.430 . S
O908 C898 1.259 . S
O909 Eu881 2.355 . S
O909 Eu891 2.670 1_556 S
O909 C898 1.270 1_556 S
O910 Eu891 2.394 . S
O910 C899 1.251 . S
O911 Eu881 2.374 . S
O911 C899 1.251 1_556 S
H912 C883 0.931 . S
H913 C884 0.931 . S
H914 C886 0.931 . S
H915 C887 0.931 . S
H916 C893 0.931 . S
H917 C894 0.931 . S
H918 C896 0.931 . S
H919 C897 0.931 . S
C920 Eu921 2.835 . S
C920 C922 1.500 . S
C920 O940 1.257 . S
C920 O941 1.260 . S
Eu921 C920 2.835 . S
Eu921 O940 2.473 . S
Eu921 O941 2.480 . S
Eu921 O942 2.430 . S
Eu921 O943 2.670 1_556 S
Eu921 O944 2.394 . S
Eu921 O949 2.355 . S
Eu921 O951 2.374 . S
C922 C920 1.500 . S
C922 C923 1.377 . S
C922 C927 1.377 . S
C923 C922 1.377 . S
C923 C924 1.395 . S
C923 H952 0.931 . S
C924 C923 1.395 . S
C924 C925 1.383 . S
C924 H953 0.931 . S
C925 C924 1.383 . S
C925 C926 1.394 . S
C926 C925 1.394 . S
C926 C927 1.378 . S
C926 H954 0.931 . S
C927 C922 1.377 . S
C927 C926 1.378 . S
C927 H955 0.931 . S
C928 O942 1.259 . S
C928 O943 1.270 1_556 S
C929 O944 1.251 . S
C929 O945 1.251 1_556 S
C930 Eu931 2.835 . S
C930 C932 1.500 . S
C930 O946 1.257 . S
C930 O947 1.260 . S
Eu931 C930 2.835 . S
Eu931 O943 2.355 . S
Eu931 O945 2.374 . S
Eu931 O946 2.473 . S
Eu931 O947 2.480 . S
Eu931 O948 2.430 . S
Eu931 O949 2.670 1_554 S
Eu931 O950 2.394 . S
C932 C930 1.500 . S
C932 C933 1.377 . S
C932 C937 1.377 . S
C933 C932 1.377 . S
C933 C934 1.395 . S
C933 H956 0.931 . S
C934 C933 1.395 . S
C934 C935 1.383 . S
C934 H957 0.931 . S
C935 C934 1.383 . S
C935 C936 1.394 . S
C936 C935 1.394 . S
C936 C937 1.378 . S
C936 H958 0.931 . S
C937 C932 1.377 . S
C937 C936 1.378 . S
C937 H959 0.931 . S
C938 O948 1.259 . S
C938 O949 1.270 1_554 S
C939 O950 1.251 . S
C939 O951 1.251 1_554 S
O940 C920 1.257 . S
O940 Eu921 2.473 . S
O941 C920 1.260 . S
O941 Eu921 2.480 . S
O942 Eu921 2.430 . S
O942 C928 1.259 . S
O943 Eu921 2.670 1_554 S
O943 C928 1.270 1_554 S
O943 Eu931 2.355 . S
O944 Eu921 2.394 . S
O944 C929 1.251 . S
O945 C929 1.251 1_554 S
O945 Eu931 2.374 . S
O946 C930 1.257 . S
O946 Eu931 2.473 . S
O947 C930 1.260 . S
O947 Eu931 2.480 . S
O948 Eu931 2.430 . S
O948 C938 1.259 . S
O949 Eu921 2.355 . S
O949 Eu931 2.670 1_556 S
O949 C938 1.270 1_556 S
O950 Eu931 2.394 . S
O950 C939 1.251 . S
O951 Eu921 2.374 . S
O951 C939 1.251 1_556 S
H952 C923 0.931 . S
H953 C924 0.931 . S
H954 C926 0.931 . S
H955 C927 0.931 . S
H956 C933 0.931 . S
H957 C934 0.931 . S
H958 C936 0.931 . S
H959 C937 0.931 . S
C960 Eu961 2.835 . S
C960 C962 1.500 . S
C960 O980 1.257 . S
C960 O981 1.260 . S
Eu961 C960 2.835 . S
Eu961 O980 2.473 . S
Eu961 O981 2.480 . S
Eu961 O982 2.430 . S
Eu961 O983 2.670 . S
Eu961 O984 2.394 . S
Eu961 O989 2.355 . S
Eu961 O991 2.374 . S
C962 C960 1.500 . S
C962 C963 1.377 . S
C962 C967 1.377 . S
C963 C962 1.377 . S
C963 C964 1.395 . S
C963 H992 0.931 . S
C964 C963 1.395 . S
C964 C965 1.383 . S
C964 H993 0.931 . S
C965 C964 1.383 . S
C965 C966 1.394 . S
C966 C965 1.394 . S
C966 C967 1.378 . S
C966 H994 0.931 . S
C967 C962 1.377 . S
C967 C966 1.378 . S
C967 H995 0.931 . S
C968 O982 1.259 . S
C968 O983 1.270 . S
C969 O984 1.251 . S
C969 O985 1.251 . S
C970 Eu971 2.835 . S
C970 C972 1.500 . S
C970 O986 1.257 . S
C970 O987 1.260 . S
Eu971 C970 2.835 . S
Eu971 O983 2.355 . S
Eu971 O985 2.374 . S
Eu971 O986 2.473 . S
Eu971 O987 2.480 . S
Eu971 O988 2.430 . S
Eu971 O989 2.670 . S
Eu971 O990 2.394 . S
C972 C970 1.500 . S
C972 C973 1.377 . S
C972 C977 1.377 . S
C973 C972 1.377 . S
C973 C974 1.395 . S
C973 H996 0.931 . S
C974 C973 1.395 . S
C974 C975 1.383 . S
C974 H997 0.931 . S
C975 C974 1.383 . S
C975 C976 1.383 1_565 S
C976 C975 1.383 1_545 S
C976 C977 1.374 1_545 S
C976 H998 0.945 . S
C977 C972 1.377 . S
C977 C976 1.374 1_565 S
C977 H999 0.931 . S
C978 O988 1.259 . S
C978 O989 1.270 . S
C979 O990 1.251 . S
C979 O991 1.251 . S
O980 C960 1.257 . S
O980 Eu961 2.473 . S
O981 C960 1.260 . S
O981 Eu961 2.480 . S
O982 Eu961 2.430 . S
O982 C968 1.259 . S
O983 Eu961 2.670 . S
O983 C968 1.270 . S
O983 Eu971 2.355 . S
O984 Eu961 2.394 . S
O984 C969 1.251 . S
O985 C969 1.251 . S
O985 Eu971 2.374 . S
O986 C970 1.257 . S
O986 Eu971 2.473 . S
O987 C970 1.260 . S
O987 Eu971 2.480 . S
O988 Eu971 2.430 . S
O988 C978 1.259 . S
O989 Eu961 2.355 . S
O989 Eu971 2.670 . S
O989 C978 1.270 . S
O990 Eu971 2.394 . S
O990 C979 1.251 . S
O991 Eu961 2.374 . S
O991 C979 1.251 . S
H992 C963 0.931 . S
H993 C964 0.931 . S
H994 C966 0.931 . S
H995 C967 0.931 . S
H996 C973 0.931 . S
H997 C974 0.931 . S
H998 C976 0.945 . S
H999 C977 0.931 . S
C1000 Eu1001 2.835 . S
C1000 C1002 1.500 . S
C1000 O1020 1.257 . S
C1000 O1021 1.260 . S
Eu1001 C1000 2.835 . S
Eu1001 O1020 2.473 . S
Eu1001 O1021 2.480 . S
Eu1001 O1022 2.430 . S
Eu1001 O1023 2.670 . S
Eu1001 O1024 2.394 . S
Eu1001 O1029 2.355 . S
Eu1001 O1031 2.374 . S
C1002 C1000 1.500 . S
C1002 C1003 1.377 . S
C1002 C1007 1.377 . S
C1003 C1002 1.377 . S
C1003 C1004 1.395 . S
C1003 H1032 0.931 . S
C1004 C1003 1.395 . S
C1004 C1005 1.383 . S
C1004 H1033 0.931 . S
C1005 C1004 1.383 . S
C1005 C1006 1.394 . S
C1006 C1005 1.394 . S
C1006 C1007 1.378 . S
C1006 H1034 0.931 . S
C1007 C1002 1.377 . S
C1007 C1006 1.378 . S
C1007 H1035 0.931 . S
C1008 O1022 1.259 . S
C1008 O1023 1.270 . S
C1009 O1024 1.251 . S
C1009 O1025 1.251 . S
C1010 Eu1011 2.835 . S
C1010 C1012 1.500 . S
C1010 O1026 1.257 . S
C1010 O1027 1.260 . S
Eu1011 C1010 2.835 . S
Eu1011 O1023 2.355 . S
Eu1011 O1025 2.374 . S
Eu1011 O1026 2.473 . S
Eu1011 O1027 2.480 . S
Eu1011 O1028 2.430 . S
Eu1011 O1029 2.670 . S
Eu1011 O1030 2.394 . S
C1012 C1010 1.500 . S
C1012 C1013 1.377 . S
C1012 C1017 1.377 . S
C1013 C1012 1.377 . S
C1013 C1014 1.395 . S
C1013 H1036 0.931 . S
C1014 C1013 1.395 . S
C1014 C1015 1.383 . S
C1014 H1037 0.931 . S
C1015 C1014 1.383 . S
C1015 C1016 1.393 1_455 S
C1016 C1015 1.393 1_655 S
C1016 C1017 1.375 1_655 S
C1016 H1038 0.934 . S
C1017 C1012 1.377 . S
C1017 C1016 1.375 1_455 S
C1017 H1039 0.931 . S
C1018 O1028 1.259 . S
C1018 O1029 1.270 . S
C1019 O1030 1.251 . S
C1019 O1031 1.251 . S
O1020 C1000 1.257 . S
O1020 Eu1001 2.473 . S
O1021 C1000 1.260 . S
O1021 Eu1001 2.480 . S
O1022 Eu1001 2.430 . S
O1022 C1008 1.259 . S
O1023 Eu1001 2.670 . S
O1023 C1008 1.270 . S
O1023 Eu1011 2.355 . S
O1024 Eu1001 2.394 . S
O1024 C1009 1.251 . S
O1025 C1009 1.251 . S
O1025 Eu1011 2.374 . S
O1026 C1010 1.257 . S
O1026 Eu1011 2.473 . S
O1027 C1010 1.260 . S
O1027 Eu1011 2.480 . S
O1028 Eu1011 2.430 . S
O1028 C1018 1.259 . S
O1029 Eu1001 2.355 . S
O1029 Eu1011 2.670 . S
O1029 C1018 1.270 . S
O1030 Eu1011 2.394 . S
O1030 C1019 1.251 . S
O1031 Eu1001 2.374 . S
O1031 C1019 1.251 . S
H1032 C1003 0.931 . S
H1033 C1004 0.931 . S
H1034 C1006 0.931 . S
H1035 C1007 0.931 . S
H1036 C1013 0.931 . S
H1037 C1014 0.931 . S
H1038 C1016 0.934 . S
H1039 C1017 0.931 . S
C1040 Eu1041 2.835 . S
C1040 C1042 1.500 . S
C1040 O1060 1.257 . S
C1040 O1061 1.260 . S
Eu1041 C1040 2.835 . S
Eu1041 O1060 2.473 . S
Eu1041 O1061 2.480 . S
Eu1041 O1062 2.430 . S
Eu1041 O1063 2.670 . S
Eu1041 O1064 2.394 . S
Eu1041 O1069 2.355 . S
Eu1041 O1071 2.374 . S
C1042 C1040 1.500 . S
C1042 C1043 1.377 . S
C1042 C1047 1.377 . S
C1043 C1042 1.377 . S
C1043 C1044 1.395 . S
C1043 H1072 0.931 . S
C1044 C1043 1.395 . S
C1044 C1045 1.383 . S
C1044 H1073 0.931 . S
C1045 C1044 1.383 . S
C1045 C1046 1.394 . S
C1046 C1045 1.394 . S
C1046 C1047 1.378 . S
C1046 H1074 0.931 . S
C1047 C1042 1.377 . S
C1047 C1046 1.378 . S
C1047 H1075 0.931 . S
C1048 O1062 1.259 . S
C1048 O1063 1.270 . S
C1049 O1064 1.251 . S
C1049 O1065 1.251 . S
C1050 Eu1051 2.835 . S
C1050 C1052 1.500 . S
C1050 O1066 1.257 . S
C1050 O1067 1.260 . S
Eu1051 C1050 2.835 . S
Eu1051 O1063 2.355 . S
Eu1051 O1065 2.374 . S
Eu1051 O1066 2.473 . S
Eu1051 O1067 2.480 . S
Eu1051 O1068 2.430 . S
Eu1051 O1069 2.670 . S
Eu1051 O1070 2.394 . S
C1052 C1050 1.500 . S
C1052 C1053 1.377 . S
C1052 C1057 1.377 . S
C1053 C1052 1.377 . S
C1053 C1054 1.395 . S
C1053 H1076 0.931 . S
C1054 C1053 1.395 . S
C1054 C1055 1.383 . S
C1054 H1077 0.931 . S
C1055 C1054 1.383 . S
C1055 C1056 1.394 . S
C1056 C1055 1.394 . S
C1056 C1057 1.378 . S
C1056 H1078 0.931 . S
C1057 C1052 1.377 . S
C1057 C1056 1.378 . S
C1057 H1079 0.931 . S
C1058 O1068 1.259 . S
C1058 O1069 1.270 . S
C1059 O1070 1.251 . S
C1059 O1071 1.251 . S
O1060 C1040 1.257 . S
O1060 Eu1041 2.473 . S
O1061 C1040 1.260 . S
O1061 Eu1041 2.480 . S
O1062 Eu1041 2.430 . S
O1062 C1048 1.259 . S
O1063 Eu1041 2.670 . S
O1063 C1048 1.270 . S
O1063 Eu1051 2.355 . S
O1064 Eu1041 2.394 . S
O1064 C1049 1.251 . S
O1065 C1049 1.251 . S
O1065 Eu1051 2.374 . S
O1066 C1050 1.257 . S
O1066 Eu1051 2.473 . S
O1067 C1050 1.260 . S
O1067 Eu1051 2.480 . S
O1068 Eu1051 2.430 . S
O1068 C1058 1.259 . S
O1069 Eu1041 2.355 . S
O1069 Eu1051 2.670 . S
O1069 C1058 1.270 . S
O1070 Eu1051 2.394 . S
O1070 C1059 1.251 . S
O1071 Eu1041 2.374 . S
O1071 C1059 1.251 . S
H1072 C1043 0.931 . S
H1073 C1044 0.931 . S
H1074 C1046 0.931 . S
H1075 C1047 0.931 . S
H1076 C1053 0.931 . S
H1077 C1054 0.931 . S
H1078 C1056 0.931 . S
H1079 C1057 0.931 . S
C1080 Eu1081 2.835 . S
C1080 C1082 1.500 . S
C1080 O1100 1.257 . S
C1080 O1101 1.260 . S
Eu1081 C1080 2.835 . S
Eu1081 O1100 2.473 . S
Eu1081 O1101 2.480 . S
Eu1081 O1102 2.430 . S
Eu1081 O1103 2.670 1_556 S
Eu1081 O1104 2.394 . S
Eu1081 O1109 2.355 . S
Eu1081 O1111 2.374 . S
C1082 C1080 1.500 . S
C1082 C1083 1.377 . S
C1082 C1087 1.377 . S
C1083 C1082 1.377 . S
C1083 C1084 1.395 . S
C1083 H1112 0.931 . S
C1084 C1083 1.395 . S
C1084 C1085 1.383 . S
C1084 H1113 0.931 . S
C1085 C1084 1.383 . S
C1085 C1086 1.394 . S
C1086 C1085 1.394 . S
C1086 C1087 1.378 . S
C1086 H1114 0.931 . S
C1087 C1082 1.377 . S
C1087 C1086 1.378 . S
C1087 H1115 0.931 . S
C1088 O1102 1.259 . S
C1088 O1103 1.270 1_556 S
C1089 O1104 1.251 . S
C1089 O1105 1.251 1_556 S
C1090 Eu1091 2.835 . S
C1090 C1092 1.500 . S
C1090 O1106 1.257 . S
C1090 O1107 1.260 . S
Eu1091 C1090 2.835 . S
Eu1091 O1103 2.355 . S
Eu1091 O1105 2.374 . S
Eu1091 O1106 2.473 . S
Eu1091 O1107 2.480 . S
Eu1091 O1108 2.430 . S
Eu1091 O1109 2.670 1_554 S
Eu1091 O1110 2.394 . S
C1092 C1090 1.500 . S
C1092 C1093 1.377 . S
C1092 C1097 1.377 . S
C1093 C1092 1.377 . S
C1093 C1094 1.395 . S
C1093 H1116 0.931 . S
C1094 C1093 1.395 . S
C1094 C1095 1.383 . S
C1094 H1117 0.931 . S
C1095 C1094 1.383 . S
C1095 C1096 1.394 . S
C1096 C1095 1.394 . S
C1096 C1097 1.378 . S
C1096 H1118 0.931 . S
C1097 C1092 1.377 . S
C1097 C1096 1.378 . S
C1097 H1119 0.931 . S
C1098 O1108 1.259 . S
C1098 O1109 1.270 1_554 S
C1099 O1110 1.251 . S
C1099 O1111 1.251 1_554 S
O1100 C1080 1.257 . S
O1100 Eu1081 2.473 . S
O1101 C1080 1.260 . S
O1101 Eu1081 2.480 . S
O1102 Eu1081 2.430 . S
O1102 C1088 1.259 . S
O1103 Eu1081 2.670 1_554 S
O1103 C1088 1.270 1_554 S
O1103 Eu1091 2.355 . S
O1104 Eu1081 2.394 . S
O1104 C1089 1.251 . S
O1105 C1089 1.251 1_554 S
O1105 Eu1091 2.374 . S
O1106 C1090 1.257 . S
O1106 Eu1091 2.473 . S
O1107 C1090 1.260 . S
O1107 Eu1091 2.480 . S
O1108 Eu1091 2.430 . S
O1108 C1098 1.259 . S
O1109 Eu1081 2.355 . S
O1109 Eu1091 2.670 1_556 S
O1109 C1098 1.270 1_556 S
O1110 Eu1091 2.394 . S
O1110 C1099 1.251 . S
O1111 Eu1081 2.374 . S
O1111 C1099 1.251 1_556 S
H1112 C1083 0.931 . S
H1113 C1084 0.931 . S
H1114 C1086 0.931 . S
H1115 C1087 0.931 . S
H1116 C1093 0.931 . S
H1117 C1094 0.931 . S
H1118 C1096 0.931 . S
H1119 C1097 0.931 . S
C1120 Eu1121 2.835 . S
C1120 C1122 1.500 . S
C1120 O1140 1.257 . S
C1120 O1141 1.260 . S
Eu1121 C1120 2.835 . S
Eu1121 O1140 2.473 . S
Eu1121 O1141 2.480 . S
Eu1121 O1142 2.430 . S
Eu1121 O1143 2.670 1_556 S
Eu1121 O1144 2.394 . S
Eu1121 O1149 2.355 . S
Eu1121 O1151 2.374 . S
C1122 C1120 1.500 . S
C1122 C1123 1.377 . S
C1122 C1127 1.377 . S
C1123 C1122 1.377 . S
C1123 C1124 1.395 . S
C1123 H1152 0.931 . S
C1124 C1123 1.395 . S
C1124 C1125 1.383 . S
C1124 H1153 0.931 . S
C1125 C1124 1.383 . S
C1125 C1126 1.394 . S
C1126 C1125 1.394 . S
C1126 C1127 1.378 . S
C1126 H1154 0.931 . S
C1127 C1122 1.377 . S
C1127 C1126 1.378 . S
C1127 H1155 0.931 . S
C1128 O1142 1.259 . S
C1128 O1143 1.270 1_556 S
C1129 O1144 1.251 . S
C1129 O1145 1.251 1_556 S
C1130 Eu1131 2.835 . S
C1130 C1132 1.500 . S
C1130 O1146 1.257 . S
C1130 O1147 1.260 . S
Eu1131 C1130 2.835 . S
Eu1131 O1143 2.355 . S
Eu1131 O1145 2.374 . S
Eu1131 O1146 2.473 . S
Eu1131 O1147 2.480 . S
Eu1131 O1148 2.430 . S
Eu1131 O1149 2.670 1_554 S
Eu1131 O1150 2.394 . S
C1132 C1130 1.500 . S
C1132 C1133 1.377 . S
C1132 C1137 1.377 . S
C1133 C1132 1.377 . S
C1133 C1134 1.395 . S
C1133 H1156 0.931 . S
C1134 C1133 1.395 . S
C1134 C1135 1.383 . S
C1134 H1157 0.931 . S
C1135 C1134 1.383 . S
C1135 C1136 1.394 . S
C1136 C1135 1.394 . S
C1136 C1137 1.378 . S
C1136 H1158 0.931 . S
C1137 C1132 1.377 . S
C1137 C1136 1.378 . S
C1137 H1159 0.931 . S
C1138 O1148 1.259 . S
C1138 O1149 1.270 1_554 S
C1139 O1150 1.251 . S
C1139 O1151 1.251 1_554 S
O1140 C1120 1.257 . S
O1140 Eu1121 2.473 . S
O1141 C1120 1.260 . S
O1141 Eu1121 2.480 . S
O1142 Eu1121 2.430 . S
O1142 C1128 1.259 . S
O1143 Eu1121 2.670 1_554 S
O1143 C1128 1.270 1_554 S
O1143 Eu1131 2.355 . S
O1144 Eu1121 2.394 . S
O1144 C1129 1.251 . S
O1145 C1129 1.251 1_554 S
O1145 Eu1131 2.374 . S
O1146 C1130 1.257 . S
O1146 Eu1131 2.473 . S
O1147 C1130 1.260 . S
O1147 Eu1131 2.480 . S
O1148 Eu1131 2.430 . S
O1148 C1138 1.259 . S
O1149 Eu1121 2.355 . S
O1149 Eu1131 2.670 1_556 S
O1149 C1138 1.270 1_556 S
O1150 Eu1131 2.394 . S
O1150 C1139 1.251 . S
O1151 Eu1121 2.374 . S
O1151 C1139 1.251 1_556 S
H1152 C1123 0.931 . S
H1153 C1124 0.931 . S
H1154 C1126 0.931 . S
H1155 C1127 0.931 . S
H1156 C1133 0.931 . S
H1157 C1134 0.931 . S
H1158 C1136 0.931 . S
H1159 C1137 0.931 . S
C1160 Eu1161 2.835 . S
C1160 C1162 1.500 . S
C1160 O1180 1.257 . S
C1160 O1181 1.260 . S
Eu1161 C1160 2.835 . S
Eu1161 O1180 2.473 . S
Eu1161 O1181 2.480 . S
Eu1161 O1182 2.430 . S
Eu1161 O1183 2.670 1_556 S
Eu1161 O1184 2.394 . S
Eu1161 O1189 2.355 . S
Eu1161 O1191 2.374 . S
C1162 C1160 1.500 . S
C1162 C1163 1.377 . S
C1162 C1167 1.377 . S
C1163 C1162 1.377 . S
C1163 C1164 1.395 . S
C1163 H1192 0.931 . S
C1164 C1163 1.395 . S
C1164 C1165 1.383 . S
C1164 H1193 0.931 . S
C1165 C1164 1.383 . S
C1165 C1166 1.394 . S
C1166 C1165 1.394 . S
C1166 C1167 1.378 . S
C1166 H1194 0.931 . S
C1167 C1162 1.377 . S
C1167 C1166 1.378 . S
C1167 H1195 0.931 . S
C1168 O1182 1.259 . S
C1168 O1183 1.270 1_556 S
C1169 O1184 1.251 . S
C1169 O1185 1.251 1_556 S
C1170 Eu1171 2.835 . S
C1170 C1172 1.500 . S
C1170 O1186 1.257 . S
C1170 O1187 1.260 . S
Eu1171 C1170 2.835 . S
Eu1171 O1183 2.355 . S
Eu1171 O1185 2.374 . S
Eu1171 O1186 2.473 . S
Eu1171 O1187 2.480 . S
Eu1171 O1188 2.430 . S
Eu1171 O1189 2.670 1_554 S
Eu1171 O1190 2.394 . S
C1172 C1170 1.500 . S
C1172 C1173 1.377 . S
C1172 C1177 1.377 . S
C1173 C1172 1.377 . S
C1173 C1174 1.395 . S
C1173 H1196 0.931 . S
C1174 C1173 1.395 . S
C1174 C1175 1.383 . S
C1174 H1197 0.931 . S
C1175 C1174 1.383 . S
C1175 C1176 1.394 . S
C1176 C1175 1.394 . S
C1176 C1177 1.378 . S
C1176 H1198 0.931 . S
C1177 C1172 1.377 . S
C1177 C1176 1.378 . S
C1177 H1199 0.931 . S
C1178 O1188 1.259 . S
C1178 O1189 1.270 1_554 S
C1179 O1190 1.251 . S
C1179 O1191 1.251 1_554 S
O1180 C1160 1.257 . S
O1180 Eu1161 2.473 . S
O1181 C1160 1.260 . S
O1181 Eu1161 2.480 . S
O1182 Eu1161 2.430 . S
O1182 C1168 1.259 . S
O1183 Eu1161 2.670 1_554 S
O1183 C1168 1.270 1_554 S
O1183 Eu1171 2.355 . S
O1184 Eu1161 2.394 . S
O1184 C1169 1.251 . S
O1185 C1169 1.251 1_554 S
O1185 Eu1171 2.374 . S
O1186 C1170 1.257 . S
O1186 Eu1171 2.473 . S
O1187 C1170 1.260 . S
O1187 Eu1171 2.480 . S
O1188 Eu1171 2.430 . S
O1188 C1178 1.259 . S
O1189 Eu1161 2.355 . S
O1189 Eu1171 2.670 1_556 S
O1189 C1178 1.270 1_556 S
O1190 Eu1171 2.394 . S
O1190 C1179 1.251 . S
O1191 Eu1161 2.374 . S
O1191 C1179 1.251 1_556 S
H1192 C1163 0.931 . S
H1193 C1164 0.931 . S
H1194 C1166 0.931 . S
H1195 C1167 0.931 . S
H1196 C1173 0.931 . S
H1197 C1174 0.931 . S
H1198 C1176 0.931 . S
H1199 C1177 0.931 . S
C1200 Eu1201 2.835 . S
C1200 C1202 1.500 . S
C1200 O1220 1.257 . S
C1200 O1221 1.260 . S
Eu1201 C1200 2.835 . S
Eu1201 O1220 2.473 . S
Eu1201 O1221 2.480 . S
Eu1201 O1222 2.430 . S
Eu1201 O1223 2.670 . S
Eu1201 O1224 2.394 . S
Eu1201 O1229 2.355 . S
Eu1201 O1231 2.374 . S
C1202 C1200 1.500 . S
C1202 C1203 1.377 . S
C1202 C1207 1.377 . S
C1203 C1202 1.377 . S
C1203 C1204 1.395 . S
C1203 H1232 0.931 . S
C1204 C1203 1.395 . S
C1204 C1205 1.383 . S
C1204 H1233 0.931 . S
C1205 C1204 1.383 . S
C1205 C1206 1.394 . S
C1206 C1205 1.394 . S
C1206 C1207 1.378 . S
C1206 H1234 0.931 . S
C1207 C1202 1.377 . S
C1207 C1206 1.378 . S
C1207 H1235 0.931 . S
C1208 O1222 1.259 . S
C1208 O1223 1.270 . S
C1209 O1224 1.251 . S
C1209 O1225 1.251 . S
C1210 Eu1211 2.835 . S
C1210 C1212 1.500 . S
C1210 O1226 1.257 . S
C1210 O1227 1.260 . S
Eu1211 C1210 2.835 . S
Eu1211 O1223 2.355 . S
Eu1211 O1225 2.374 . S
Eu1211 O1226 2.473 . S
Eu1211 O1227 2.480 . S
Eu1211 O1228 2.430 . S
Eu1211 O1229 2.670 . S
Eu1211 O1230 2.394 . S
C1212 C1210 1.500 . S
C1212 C1213 1.377 . S
C1212 C1217 1.377 . S
C1213 C1212 1.377 . S
C1213 C1214 1.395 . S
C1213 H1236 0.931 . S
C1214 C1213 1.395 . S
C1214 C1215 1.383 . S
C1214 H1237 0.931 . S
C1215 C1214 1.383 . S
C1215 C1216 1.394 . S
C1216 C1215 1.394 . S
C1216 C1217 1.378 . S
C1216 H1238 0.931 . S
C1217 C1212 1.377 . S
C1217 C1216 1.378 . S
C1217 H1239 0.931 . S
C1218 O1228 1.259 . S
C1218 O1229 1.270 . S
C1219 O1230 1.251 . S
C1219 O1231 1.251 . S
O1220 C1200 1.257 . S
O1220 Eu1201 2.473 . S
O1221 C1200 1.260 . S
O1221 Eu1201 2.480 . S
O1222 Eu1201 2.430 . S
O1222 C1208 1.259 . S
O1223 Eu1201 2.670 . S
O1223 C1208 1.270 . S
O1223 Eu1211 2.355 . S
O1224 Eu1201 2.394 . S
O1224 C1209 1.251 . S
O1225 C1209 1.251 . S
O1225 Eu1211 2.374 . S
O1226 C1210 1.257 . S
O1226 Eu1211 2.473 . S
O1227 C1210 1.260 . S
O1227 Eu1211 2.480 . S
O1228 Eu1211 2.430 . S
O1228 C1218 1.259 . S
O1229 Eu1201 2.355 . S
O1229 Eu1211 2.670 . S
O1229 C1218 1.270 . S
O1230 Eu1211 2.394 . S
O1230 C1219 1.251 . S
O1231 Eu1201 2.374 . S
O1231 C1219 1.251 . S
H1232 C1203 0.931 . S
H1233 C1204 0.931 . S
H1234 C1206 0.931 . S
H1235 C1207 0.931 . S
H1236 C1213 0.931 . S
H1237 C1214 0.931 . S
H1238 C1216 0.931 . S
H1239 C1217 0.931 . S
C1240 Eu1241 2.835 . S
C1240 C1242 1.500 . S
C1240 O1260 1.257 . S
C1240 O1261 1.260 . S
Eu1241 C1240 2.835 . S
Eu1241 O1260 2.473 . S
Eu1241 O1261 2.480 . S
Eu1241 O1262 2.430 . S
Eu1241 O1263 2.670 . S
Eu1241 O1264 2.394 . S
Eu1241 O1269 2.355 . S
Eu1241 O1271 2.374 . S
C1242 C1240 1.500 . S
C1242 C1243 1.377 . S
C1242 C1247 1.377 . S
C1243 C1242 1.377 . S
C1243 C1244 1.395 . S
C1243 H1272 0.931 . S
C1244 C1243 1.395 . S
C1244 C1245 1.383 . S
C1244 H1273 0.931 . S
C1245 C1244 1.383 . S
C1245 C1246 1.394 . S
C1246 C1245 1.394 . S
C1246 C1247 1.378 . S
C1246 H1274 0.931 . S
C1247 C1242 1.377 . S
C1247 C1246 1.378 . S
C1247 H1275 0.931 . S
C1248 O1262 1.259 . S
C1248 O1263 1.270 . S
C1249 O1264 1.251 . S
C1249 O1265 1.251 . S
C1250 Eu1251 2.835 . S
C1250 C1252 1.500 . S
C1250 O1266 1.257 . S
C1250 O1267 1.260 . S
Eu1251 C1250 2.835 . S
Eu1251 O1263 2.355 . S
Eu1251 O1265 2.374 . S
Eu1251 O1266 2.473 . S
Eu1251 O1267 2.480 . S
Eu1251 O1268 2.430 . S
Eu1251 O1269 2.670 . S
Eu1251 O1270 2.394 . S
C1252 C1250 1.500 . S
C1252 C1253 1.377 . S
C1252 C1257 1.377 . S
C1253 C1252 1.377 . S
C1253 C1254 1.395 . S
C1253 H1276 0.931 . S
C1254 C1253 1.395 . S
C1254 C1255 1.383 . S
C1254 H1277 0.931 . S
C1255 C1254 1.383 . S
C1255 C1256 1.394 . S
C1256 C1255 1.394 . S
C1256 C1257 1.378 . S
C1256 H1278 0.931 . S
C1257 C1252 1.377 . S
C1257 C1256 1.378 . S
C1257 H1279 0.931 . S
C1258 O1268 1.259 . S
C1258 O1269 1.270 . S
C1259 O1270 1.251 . S
C1259 O1271 1.251 . S
O1260 C1240 1.257 . S
O1260 Eu1241 2.473 . S
O1261 C1240 1.260 . S
O1261 Eu1241 2.480 . S
O1262 Eu1241 2.430 . S
O1262 C1248 1.259 . S
O1263 Eu1241 2.670 . S
O1263 C1248 1.270 . S
O1263 Eu1251 2.355 . S
O1264 Eu1241 2.394 . S
O1264 C1249 1.251 . S
O1265 C1249 1.251 . S
O1265 Eu1251 2.374 . S
O1266 C1250 1.257 . S
O1266 Eu1251 2.473 . S
O1267 C1250 1.260 . S
O1267 Eu1251 2.480 . S
O1268 Eu1251 2.430 . S
O1268 C1258 1.259 . S
O1269 Eu1241 2.355 . S
O1269 Eu1251 2.670 . S
O1269 C1258 1.270 . S
O1270 Eu1251 2.394 . S
O1270 C1259 1.251 . S
O1271 Eu1241 2.374 . S
O1271 C1259 1.251 . S
H1272 C1243 0.931 . S
H1273 C1244 0.931 . S
H1274 C1246 0.931 . S
H1275 C1247 0.931 . S
H1276 C1253 0.931 . S
H1277 C1254 0.931 . S
H1278 C1256 0.931 . S
H1279 C1257 0.931 . S
C1280 Eu1281 2.835 . S
C1280 C1282 1.500 . S
C1280 O1300 1.257 . S
C1280 O1301 1.260 . S
Eu1281 C1280 2.835 . S
Eu1281 O1300 2.473 . S
Eu1281 O1301 2.480 . S
Eu1281 O1302 2.430 . S
Eu1281 O1303 2.670 . S
Eu1281 O1304 2.394 . S
Eu1281 O1309 2.355 . S
Eu1281 O1311 2.374 . S
C1282 C1280 1.500 . S
C1282 C1283 1.377 . S
C1282 C1287 1.377 . S
C1283 C1282 1.377 . S
C1283 C1284 1.395 . S
C1283 H1312 0.931 . S
C1284 C1283 1.395 . S
C1284 C1285 1.383 . S
C1284 H1313 0.931 . S
C1285 C1284 1.383 . S
C1285 C1286 1.394 . S
C1286 C1285 1.394 . S
C1286 C1287 1.378 . S
C1286 H1314 0.931 . S
C1287 C1282 1.377 . S
C1287 C1286 1.378 . S
C1287 H1315 0.931 . S
C1288 O1302 1.259 . S
C1288 O1303 1.270 . S
C1289 O1304 1.251 . S
C1289 O1305 1.251 . S
C1290 Eu1291 2.835 . S
C1290 C1292 1.500 . S
C1290 O1306 1.257 . S
C1290 O1307 1.260 . S
Eu1291 C1290 2.835 . S
Eu1291 O1303 2.355 . S
Eu1291 O1305 2.374 . S
Eu1291 O1306 2.473 . S
Eu1291 O1307 2.480 . S
Eu1291 O1308 2.430 . S
Eu1291 O1309 2.670 . S
Eu1291 O1310 2.394 . S
C1292 C1290 1.500 . S
C1292 C1293 1.377 . S
C1292 C1297 1.377 . S
C1293 C1292 1.377 . S
C1293 C1294 1.395 . S
C1293 H1316 0.931 . S
C1294 C1293 1.395 . S
C1294 C1295 1.383 . S
C1294 H1317 0.931 . S
C1295 C1294 1.383 . S
C1295 C1296 1.394 . S
C1296 C1295 1.394 . S
C1296 C1297 1.378 . S
C1296 H1318 0.931 . S
C1297 C1292 1.377 . S
C1297 C1296 1.378 . S
C1297 H1319 0.931 . S
C1298 O1308 1.259 . S
C1298 O1309 1.270 . S
C1299 O1310 1.251 . S
C1299 O1311 1.251 . S
O1300 C1280 1.257 . S
O1300 Eu1281 2.473 . S
O1301 C1280 1.260 . S
O1301 Eu1281 2.480 . S
O1302 Eu1281 2.430 . S
O1302 C1288 1.259 . S
O1303 Eu1281 2.670 . S
O1303 C1288 1.270 . S
O1303 Eu1291 2.355 . S
O1304 Eu1281 2.394 . S
O1304 C1289 1.251 . S
O1305 C1289 1.251 . S
O1305 Eu1291 2.374 . S
O1306 C1290 1.257 . S
O1306 Eu1291 2.473 . S
O1307 C1290 1.260 . S
O1307 Eu1291 2.480 . S
O1308 Eu1291 2.430 . S
O1308 C1298 1.259 . S
O1309 Eu1281 2.355 . S
O1309 Eu1291 2.670 . S
O1309 C1298 1.270 . S
O1310 Eu1291 2.394 . S
O1310 C1299 1.251 . S
O1311 Eu1281 2.374 . S
O1311 C1299 1.251 . S
H1312 C1283 0.931 . S
H1313 C1284 0.931 . S
H1314 C1286 0.931 . S
H1315 C1287 0.931 . S
H1316 C1293 0.931 . S
H1317 C1294 0.931 . S
H1318 C1296 0.931 . S
H1319 C1297 0.931 . S
C1320 Eu1321 2.835 . S
C1320 C1322 1.500 . S
C1320 O1340 1.257 . S
C1320 O1341 1.260 . S
Eu1321 C1320 2.835 . S
Eu1321 O1340 2.473 . S
Eu1321 O1341 2.480 . S
Eu1321 O1342 2.430 . S
Eu1321 O1343 2.670 . S
Eu1321 O1344 2.394 . S
Eu1321 O1349 2.355 . S
Eu1321 O1351 2.374 . S
C1322 C1320 1.500 . S
C1322 C1323 1.377 . S
C1322 C1327 1.377 . S
C1323 C1322 1.377 . S
C1323 C1324 1.395 . S
C1323 H1352 0.931 . S
C1324 C1323 1.395 . S
C1324 C1325 1.383 . S
C1324 H1353 0.931 . S
C1325 C1324 1.383 . S
C1325 C1326 1.394 1_455 S
C1326 C1325 1.394 1_655 S
C1326 C1327 1.378 1_655 S
C1326 H1354 0.931 . S
C1327 C1322 1.377 . S
C1327 C1326 1.378 1_455 S
C1327 H1355 0.931 1_455 S
C1328 O1342 1.259 . S
C1328 O1343 1.270 . S
C1329 O1344 1.251 . S
C1329 O1345 1.251 . S
C1330 Eu1331 2.835 . S
C1330 C1332 1.500 . S
C1330 O1346 1.257 . S
C1330 O1347 1.260 . S
Eu1331 C1330 2.835 . S
Eu1331 O1343 2.355 . S
Eu1331 O1345 2.374 . S
Eu1331 O1346 2.473 . S
Eu1331 O1347 2.480 . S
Eu1331 O1348 2.430 . S
Eu1331 O1349 2.670 . S
Eu1331 O1350 2.394 . S
C1332 C1330 1.500 . S
C1332 C1333 1.377 . S
C1332 C1337 1.377 . S
C1333 C1332 1.377 . S
C1333 C1334 1.395 . S
C1333 H1356 0.931 . S
C1334 C1333 1.395 . S
C1334 C1335 1.383 . S
C1334 H1357 0.931 . S
C1335 C1334 1.383 . S
C1335 C1336 1.394 . S
C1336 C1335 1.394 . S
C1336 C1337 1.378 . S
C1336 H1358 0.931 . S
C1337 C1332 1.377 . S
C1337 C1336 1.378 . S
C1337 H1359 0.931 . S
C1338 O1348 1.259 . S
C1338 O1349 1.270 . S
C1339 O1350 1.251 . S
C1339 O1351 1.251 . S
O1340 C1320 1.257 . S
O1340 Eu1321 2.473 . S
O1341 C1320 1.260 . S
O1341 Eu1321 2.480 . S
O1342 Eu1321 2.430 . S
O1342 C1328 1.259 . S
O1343 Eu1321 2.670 . S
O1343 C1328 1.270 . S
O1343 Eu1331 2.355 . S
O1344 Eu1321 2.394 . S
O1344 C1329 1.251 . S
O1345 C1329 1.251 . S
O1345 Eu1331 2.374 . S
O1346 C1330 1.257 . S
O1346 Eu1331 2.473 . S
O1347 C1330 1.260 . S
O1347 Eu1331 2.480 . S
O1348 Eu1331 2.430 . S
O1348 C1338 1.259 . S
O1349 Eu1321 2.355 . S
O1349 Eu1331 2.670 . S
O1349 C1338 1.270 . S
O1350 Eu1331 2.394 . S
O1350 C1339 1.251 . S
O1351 Eu1321 2.374 . S
O1351 C1339 1.251 . S
H1352 C1323 0.931 . S
H1353 C1324 0.931 . S
H1354 C1326 0.931 . S
H1355 C1327 0.931 1_655 S
H1356 C1333 0.931 . S
H1357 C1334 0.931 . S
H1358 C1336 0.931 . S
H1359 C1337 0.931 . S
C1360 Eu1361 2.835 . S
C1360 C1362 1.500 . S
C1360 O1380 1.257 . S
C1360 O1381 1.260 . S
Eu1361 C1360 2.835 . S
Eu1361 O1380 2.473 . S
Eu1361 O1381 2.480 . S
Eu1361 O1382 2.430 . S
Eu1361 O1383 2.670 . S
Eu1361 O1384 2.394 . S
Eu1361 O1389 2.355 . S
Eu1361 O1391 2.374 . S
C1362 C1360 1.500 . S
C1362 C1363 1.377 . S
C1362 C1367 1.377 . S
C1363 C1362 1.377 . S
C1363 C1364 1.395 . S
C1363 H1392 0.931 . S
C1364 C1363 1.395 . S
C1364 C1365 1.383 . S
C1364 H1393 0.931 . S
C1365 C1364 1.383 . S
C1365 C1366 1.394 . S
C1366 C1365 1.394 . S
C1366 C1367 1.378 . S
C1366 H1394 0.931 . S
C1367 C1362 1.377 . S
C1367 C1366 1.378 . S
C1367 H1395 0.931 . S
C1368 O1382 1.259 . S
C1368 O1383 1.270 . S
C1369 O1384 1.251 . S
C1369 O1385 1.251 . S
C1370 Eu1371 2.835 . S
C1370 C1372 1.500 . S
C1370 O1386 1.257 . S
C1370 O1387 1.260 . S
Eu1371 C1370 2.835 . S
Eu1371 O1383 2.355 . S
Eu1371 O1385 2.374 . S
Eu1371 O1386 2.473 . S
Eu1371 O1387 2.480 . S
Eu1371 O1388 2.430 . S
Eu1371 O1389 2.670 . S
Eu1371 O1390 2.394 . S
C1372 C1370 1.500 . S
C1372 C1373 1.377 . S
C1372 C1377 1.377 . S
C1373 C1372 1.377 . S
C1373 C1374 1.395 . S
C1373 H1396 0.931 . S
C1374 C1373 1.395 . S
C1374 C1375 1.383 . S
C1374 H1397 0.931 . S
C1375 C1374 1.383 . S
C1375 C1376 1.394 . S
C1376 C1375 1.394 . S
C1376 C1377 1.378 . S
C1376 H1398 0.931 . S
C1377 C1372 1.377 . S
C1377 C1376 1.378 . S
C1377 H1399 0.931 . S
C1378 O1388 1.259 . S
C1378 O1389 1.270 . S
C1379 O1390 1.251 . S
C1379 O1391 1.251 . S
O1380 C1360 1.257 . S
O1380 Eu1361 2.473 . S
O1381 C1360 1.260 . S
O1381 Eu1361 2.480 . S
O1382 Eu1361 2.430 . S
O1382 C1368 1.259 . S
O1383 Eu1361 2.670 . S
O1383 C1368 1.270 . S
O1383 Eu1371 2.355 . S
O1384 Eu1361 2.394 . S
O1384 C1369 1.251 . S
O1385 C1369 1.251 . S
O1385 Eu1371 2.374 . S
O1386 C1370 1.257 . S
O1386 Eu1371 2.473 . S
O1387 C1370 1.260 . S
O1387 Eu1371 2.480 . S
O1388 Eu1371 2.430 . S
O1388 C1378 1.259 . S
O1389 Eu1361 2.355 . S
O1389 Eu1371 2.670 . S
O1389 C1378 1.270 . S
O1390 Eu1371 2.394 . S
O1390 C1379 1.251 . S
O1391 Eu1361 2.374 . S
O1391 C1379 1.251 . S
H1392 C1363 0.931 . S
H1393 C1364 0.931 . S
H1394 C1366 0.931 . S
H1395 C1367 0.931 . S
H1396 C1373 0.931 . S
H1397 C1374 0.931 . S
H1398 C1376 0.931 . S
H1399 C1377 0.931 . S
C1400 Eu1401 2.835 . S
C1400 C1402 1.500 . S
C1400 O1420 1.257 . S
C1400 O1421 1.260 . S
Eu1401 C1400 2.835 . S
Eu1401 O1420 2.473 . S
Eu1401 O1421 2.480 . S
Eu1401 O1422 2.430 . S
Eu1401 O1423 2.670 . S
Eu1401 O1424 2.394 . S
Eu1401 O1429 2.355 . S
Eu1401 O1431 2.374 . S
C1402 C1400 1.500 . S
C1402 C1403 1.377 . S
C1402 C1407 1.377 . S
C1403 C1402 1.377 . S
C1403 C1404 1.395 . S
C1403 H1432 0.931 . S
C1404 C1403 1.395 . S
C1404 C1405 1.383 . S
C1404 H1433 0.931 . S
C1405 C1404 1.383 . S
C1405 C1406 1.394 1_565 S
C1406 C1405 1.394 1_545 S
C1406 C1407 1.378 1_545 S
C1406 H1434 0.931 . S
C1407 C1402 1.377 . S
C1407 C1406 1.378 1_565 S
C1407 H1435 0.931 1_565 S
C1408 O1422 1.259 . S
C1408 O1423 1.270 . S
C1409 O1424 1.251 . S
C1409 O1425 1.251 . S
C1410 Eu1411 2.835 . S
C1410 C1412 1.500 . S
C1410 O1426 1.257 . S
C1410 O1427 1.260 . S
Eu1411 C1410 2.835 . S
Eu1411 O1423 2.355 . S
Eu1411 O1425 2.374 . S
Eu1411 O1426 2.473 . S
Eu1411 O1427 2.480 . S
Eu1411 O1428 2.430 . S
Eu1411 O1429 2.670 . S
Eu1411 O1430 2.394 . S
C1412 C1410 1.500 . S
C1412 C1413 1.377 . S
C1412 C1417 1.377 . S
C1413 C1412 1.377 . S
C1413 C1414 1.395 . S
C1413 H1436 0.931 . S
C1414 C1413 1.395 . S
C1414 C1415 1.383 . S
C1414 H1437 0.931 . S
C1415 C1414 1.383 . S
C1415 C1416 1.394 . S
C1416 C1415 1.394 . S
C1416 C1417 1.378 . S
C1416 H1438 0.931 . S
C1417 C1412 1.377 . S
C1417 C1416 1.378 . S
C1417 H1439 0.931 . S
C1418 O1428 1.259 . S
C1418 O1429 1.270 . S
C1419 O1430 1.251 . S
C1419 O1431 1.251 . S
O1420 C1400 1.257 . S
O1420 Eu1401 2.473 . S
O1421 C1400 1.260 . S
O1421 Eu1401 2.480 . S
O1422 Eu1401 2.430 . S
O1422 C1408 1.259 . S
O1423 Eu1401 2.670 . S
O1423 C1408 1.270 . S
O1423 Eu1411 2.355 . S
O1424 Eu1401 2.394 . S
O1424 C1409 1.251 . S
O1425 C1409 1.251 . S
O1425 Eu1411 2.374 . S
O1426 C1410 1.257 . S
O1426 Eu1411 2.473 . S
O1427 C1410 1.260 . S
O1427 Eu1411 2.480 . S
O1428 Eu1411 2.430 . S
O1428 C1418 1.259 . S
O1429 Eu1401 2.355 . S
O1429 Eu1411 2.670 . S
O1429 C1418 1.270 . S
O1430 Eu1411 2.394 . S
O1430 C1419 1.251 . S
O1431 Eu1401 2.374 . S
O1431 C1419 1.251 . S
H1432 C1403 0.931 . S
H1433 C1404 0.931 . S
H1434 C1406 0.931 . S
H1435 C1407 0.931 1_545 S
H1436 C1413 0.931 . S
H1437 C1414 0.931 . S
H1438 C1416 0.931 . S
H1439 C1417 0.931 . S
H1440 C1448 0.950 . S
H1441 C1453 0.950 . S
H1442 C1450 0.950 . S
H1443 C1452 0.950 . S
H1444 C1454 0.972 . S
H1445 C1456 0.950 . S
H1446 C1458 0.950 . S
H1447 C1459 0.950 . S
C1448 H1440 0.950 . S
C1448 C1449 1.386 . S
C1448 C1450 1.391 . S
C1449 C1448 1.386 . S
C1449 C1453 1.393 . S
C1450 H1442 0.950 . S
C1450 C1448 1.391 . S
C1450 C1451 1.400 . S
C1451 C1450 1.400 . S
C1451 C1452 1.398 . S
C1451 C1457 1.491 . S
C1452 H1443 0.950 . S
C1452 C1451 1.398 . S
C1452 C1453 1.391 . S
C1453 H1441 0.950 . S
C1453 C1449 1.393 . S
C1453 C1452 1.391 . S
C1454 H1444 0.972 . S
C1454 C1455 1.386 1_545 S
C1454 C1456 1.391 . S
C1455 C1454 1.386 1_565 S
C1455 C1459 1.393 . S
C1456 H1445 0.950 . S
C1456 C1454 1.391 . S
C1456 C1457 1.400 . S
C1457 C1451 1.491 . S
C1457 C1456 1.400 . S
C1457 C1458 1.398 . S
C1458 H1446 0.950 . S
C1458 C1457 1.398 . S
C1458 C1459 1.391 1_545 S
C1459 H1447 0.950 . S
C1459 C1455 1.393 . S
C1459 C1458 1.391 1_565 S
H1460 C1468 0.950 . S
H1461 C1473 0.950 1_455 S
H1462 C1470 0.950 . S
H1463 C1472 0.950 . S
H1464 C1474 0.950 . S
H1465 C1476 0.950 . S
H1466 C1478 0.950 . S
H1467 C1479 0.950 1_565 S
C1468 H1460 0.950 . S
C1468 C1469 1.386 . S
C1468 C1470 1.391 1_455 S
C1469 C1468 1.386 . S
C1469 C1473 1.393 1_455 S
C1470 H1462 0.950 . S
C1470 C1468 1.391 1_655 S
C1470 C1471 1.400 . S
C1471 C1470 1.400 . S
C1471 C1472 1.398 . S
C1471 C1477 1.491 . S
C1472 H1463 0.950 . S
C1472 C1471 1.398 . S
C1472 C1473 1.391 . S
C1473 H1461 0.950 1_655 S
C1473 C1469 1.393 1_655 S
C1473 C1472 1.391 . S
C1474 H1464 0.950 . S
C1474 C1475 1.386 . S
C1474 C1476 1.391 . S
C1475 C1474 1.386 . S
C1475 C1479 1.393 . S
C1476 H1465 0.950 . S
C1476 C1474 1.391 . S
C1476 C1477 1.400 . S
C1477 C1471 1.491 . S
C1477 C1476 1.400 . S
C1477 C1478 1.398 . S
C1478 H1466 0.950 . S
C1478 C1477 1.398 . S
C1478 C1479 1.391 . S
C1479 H1467 0.950 1_545 S
C1479 C1475 1.393 . S
C1479 C1478 1.391 . S
H1480 C1488 0.950 . S
H1481 C1493 0.950 . S
H1482 C1490 0.950 . S
H1483 C1492 0.950 . S
H1484 C1494 0.950 . S
H1485 C1496 0.950 . S
H1486 C1498 0.950 . S
H1487 C1499 0.950 . S
C1488 H1480 0.950 . S
C1488 C1489 1.386 . S
C1488 C1490 1.391 . S
C1489 C1488 1.386 . S
C1489 C1493 1.393 1_655 S
C1490 H1482 0.950 . S
C1490 C1488 1.391 . S
C1490 C1491 1.400 . S
C1491 C1490 1.400 . S
C1491 C1492 1.398 . S
C1491 C1497 1.491 . S
C1492 H1483 0.950 . S
C1492 C1491 1.398 . S
C1492 C1493 1.391 1_655 S
C1493 H1481 0.950 . S
C1493 C1489 1.393 1_455 S
C1493 C1492 1.391 1_455 S
C1494 H1484 0.950 . S
C1494 C1495 1.386 . S
C1494 C1496 1.391 . S
C1495 C1494 1.386 . S
C1495 C1499 1.393 . S
C1496 H1485 0.950 . S
C1496 C1494 1.391 . S
C1496 C1497 1.400 . S
C1497 C1491 1.491 . S
C1497 C1496 1.400 . S
C1497 C1498 1.398 . S
C1498 H1486 0.950 . S
C1498 C1497 1.398 . S
C1498 C1499 1.391 . S
C1499 H1487 0.950 . S
C1499 C1495 1.393 . S
C1499 C1498 1.391 . S
H1500 C1508 0.950 . S
H1501 C1513 0.950 . S
H1502 C1510 0.950 . S
H1503 C1512 0.950 . S
H1504 C1514 0.950 . S
H1505 C1516 0.950 . S
H1506 C1518 0.950 . S
H1507 C1519 0.938 1_655 S
C1508 H1500 0.950 . S
C1508 C1509 1.386 . S
C1508 C1510 1.391 . S
C1509 C1508 1.386 . S
C1509 C1513 1.393 . S
C1510 H1502 0.950 . S
C1510 C1508 1.391 . S
C1510 C1511 1.400 . S
C1511 C1510 1.400 . S
C1511 C1512 1.398 . S
C1511 C1517 1.491 . S
C1512 H1503 0.950 . S
C1512 C1511 1.398 . S
C1512 C1513 1.391 . S
C1513 H1501 0.950 . S
C1513 C1509 1.393 . S
C1513 C1512 1.391 . S
C1514 H1504 0.950 . S
C1514 C1515 1.386 . S
C1514 C1516 1.391 1_655 S
C1515 C1514 1.386 . S
C1515 C1519 1.393 1_655 S
C1516 H1505 0.950 . S
C1516 C1514 1.391 1_455 S
C1516 C1517 1.400 . S
C1517 C1511 1.491 . S
C1517 C1516 1.400 . S
C1517 C1518 1.398 . S
C1518 H1506 0.950 . S
C1518 C1517 1.398 . S
C1518 C1519 1.391 . S
C1519 H1507 0.938 1_455 S
C1519 C1515 1.393 1_455 S
C1519 C1518 1.391 . S
H1520 C1528 0.950 . S
H1521 C1533 0.950 . S
H1522 C1530 0.950 . S
H1523 C1532 0.950 . S
H1524 C1534 0.950 . S
H1525 C1536 0.950 . S
H1526 C1538 0.950 . S
H1527 C1539 0.950 . S
C1528 H1520 0.950 . S
C1528 C1529 1.386 . S
C1528 C1530 1.391 . S
C1529 C1528 1.386 . S
C1529 C1533 1.393 . S
C1530 H1522 0.950 . S
C1530 C1528 1.391 . S
C1530 C1531 1.400 . S
C1531 C1530 1.400 . S
C1531 C1532 1.398 . S
C1531 C1537 1.491 . S
C1532 H1523 0.950 . S
C1532 C1531 1.398 . S
C1532 C1533 1.391 . S
C1533 H1521 0.950 . S
C1533 C1529 1.393 . S
C1533 C1532 1.391 . S
C1534 H1524 0.950 . S
C1534 C1535 1.386 . S
C1534 C1536 1.391 . S
C1535 C1534 1.386 . S
C1535 C1539 1.393 1_565 S
C1536 H1525 0.950 . S
C1536 C1534 1.391 . S
C1536 C1537 1.400 . S
C1537 C1531 1.491 . S
C1537 C1536 1.400 . S
C1537 C1538 1.398 . S
C1538 H1526 0.950 . S
C1538 C1537 1.398 . S
C1538 C1539 1.391 1_565 S
C1539 H1527 0.950 . S
C1539 C1535 1.393 1_545 S
C1539 C1538 1.391 1_545 S
H1540 C1548 0.950 1_655 S
H1541 C1553 0.950 . S
H1542 C1550 0.950 . S
H1543 C1552 0.950 . S
H1544 C1554 0.950 1_545 S
H1545 C1556 0.950 . S
H1546 C1558 0.950 . S
H1547 C1559 0.950 . S
C1548 H1540 0.950 1_455 S
C1548 C1549 1.386 . S
C1548 C1550 1.391 . S
C1549 C1548 1.386 . S
C1549 C1553 1.393 . S
C1550 H1542 0.950 . S
C1550 C1548 1.391 . S
C1550 C1551 1.400 . S
C1551 C1550 1.400 . S
C1551 C1552 1.398 . S
C1551 C1557 1.491 . S
C1552 H1543 0.950 . S
C1552 C1551 1.398 . S
C1552 C1553 1.391 . S
C1553 H1541 0.950 . S
C1553 C1549 1.393 . S
C1553 C1552 1.391 . S
C1554 H1544 0.950 1_565 S
C1554 C1555 1.386 1_565 S
C1554 C1556 1.391 . S
C1555 C1554 1.386 1_545 S
C1555 C1559 1.393 . S
C1556 H1545 0.950 . S
C1556 C1554 1.391 . S
C1556 C1557 1.400 . S
C1557 C1551 1.491 . S
C1557 C1556 1.400 . S
C1557 C1558 1.398 . S
C1558 H1546 0.950 . S
C1558 C1557 1.398 . S
C1558 C1559 1.391 1_565 S
C1559 H1547 0.950 . S
C1559 C1555 1.393 . S
C1559 C1558 1.391 1_545 S
H1560 C1568 0.950 . S
H1561 C1573 0.950 . S
H1562 C1570 0.950 . S
H1563 C1572 0.950 . S
H1564 C1574 0.950 . S
H1565 C1576 0.950 . S
H1566 C1578 0.950 . S
H1567 C1579 0.937 1_545 S
C1568 H1560 0.950 . S
C1568 C1569 1.386 . S
C1568 C1570 1.391 . S
C1569 C1568 1.386 . S
C1569 C1573 1.393 . S
C1570 H1562 0.950 . S
C1570 C1568 1.391 . S
C1570 C1571 1.400 . S
C1571 C1570 1.400 . S
C1571 C1572 1.398 . S
C1571 C1577 1.491 . S
C1572 H1563 0.950 . S
C1572 C1571 1.398 . S
C1572 C1573 1.391 . S
C1573 H1561 0.950 . S
C1573 C1569 1.393 . S
C1573 C1572 1.391 . S
C1574 H1564 0.950 . S
C1574 C1575 1.386 . S
C1574 C1576 1.391 1_545 S
C1575 C1574 1.386 . S
C1575 C1579 1.384 1_545 S
C1576 H1565 0.950 . S
C1576 C1574 1.391 1_565 S
C1576 C1577 1.400 . S
C1577 C1571 1.491 . S
C1577 C1576 1.400 . S
C1577 C1578 1.398 . S
C1578 H1566 0.950 . S
C1578 C1577 1.398 . S
C1578 C1579 1.413 . S
C1579 H1567 0.937 1_565 S
C1579 C1575 1.384 1_565 S
C1579 C1578 1.413 . S
H1580 C1588 0.950 1_545 S
H1581 C1593 0.950 . S
H1582 C1590 0.950 . S
H1583 C1592 0.950 . S
H1584 C1594 0.950 1_655 S
H1585 C1596 0.950 . S
H1586 C1598 0.950 . S
H1587 C1599 0.950 . S
C1588 H1580 0.950 1_565 S
C1588 C1589 1.386 . S
C1588 C1590 1.391 . S
C1589 C1588 1.386 . S
C1589 C1593 1.393 . S
C1590 H1582 0.950 . S
C1590 C1588 1.391 . S
C1590 C1591 1.400 . S
C1591 C1590 1.400 . S
C1591 C1592 1.398 . S
C1591 C1597 1.491 . S
C1592 H1583 0.950 . S
C1592 C1591 1.398 . S
C1592 C1593 1.391 . S
C1593 H1581 0.950 . S
C1593 C1589 1.393 . S
C1593 C1592 1.391 . S
C1594 H1584 0.950 1_455 S
C1594 C1595 1.386 1_455 S
C1594 C1596 1.391 . S
C1595 C1594 1.386 1_655 S
C1595 C1599 1.393 . S
C1596 H1585 0.950 . S
C1596 C1594 1.391 . S
C1596 C1597 1.400 . S
C1597 C1591 1.491 . S
C1597 C1596 1.400 . S
C1597 C1598 1.398 . S
C1598 H1586 0.950 . S
C1598 C1597 1.398 . S
C1598 C1599 1.391 1_455 S
C1599 H1587 0.950 . S
C1599 C1595 1.393 . S
C1599 C1598 1.391 1_655 S
H1600 C1608 0.950 . S
H1601 C1613 0.950 . S
H1602 C1610 0.950 . S
H1603 C1612 0.950 . S
H1604 C1614 0.950 . S
H1605 C1616 0.950 . S
H1606 C1618 0.950 . S
H1607 C1619 0.950 . S
C1608 H1600 0.950 . S
C1608 C1609 1.386 . S
C1608 C1610 1.391 . S
C1609 C1608 1.386 . S
C1609 C1613 1.393 . S
C1610 H1602 0.950 . S
C1610 C1608 1.391 . S
C1610 C1611 1.400 . S
C1611 C1610 1.400 . S
C1611 C1612 1.398 . S
C1611 C1617 1.491 . S
C1612 H1603 0.950 . S
C1612 C1611 1.398 . S
C1612 C1613 1.391 . S
C1613 H1601 0.950 . S
C1613 C1609 1.393 . S
C1613 C1612 1.391 . S
C1614 H1604 0.950 . S
C1614 C1615 1.386 . S
C1614 C1616 1.391 . S
C1615 C1614 1.386 . S
C1615 C1619 1.393 . S
C1616 H1605 0.950 . S
C1616 C1614 1.391 . S
C1616 C1617 1.400 . S
C1617 C1611 1.491 . S
C1617 C1616 1.400 . S
C1617 C1618 1.398 . S
C1618 H1606 0.950 . S
C1618 C1617 1.398 . S
C1618 C1619 1.391 . S
C1619 H1607 0.950 . S
C1619 C1615 1.393 . S
C1619 C1618 1.391 . S
H1620 C1628 0.950 . S
H1621 C1633 0.950 . S
H1622 C1630 0.950 . S
H1623 C1632 0.950 . S
H1624 C1634 0.950 . S
H1625 C1636 0.950 . S
H1626 C1638 0.950 . S
H1627 C1639 0.950 . S
C1628 H1620 0.950 . S
C1628 C1629 1.386 . S
C1628 C1630 1.391 . S
C1629 C1628 1.386 . S
C1629 C1633 1.393 . S
C1630 H1622 0.950 . S
C1630 C1628 1.391 . S
C1630 C1631 1.400 . S
C1631 C1630 1.400 . S
C1631 C1632 1.398 . S
C1631 C1637 1.491 . S
C1632 H1623 0.950 . S
C1632 C1631 1.398 . S
C1632 C1633 1.391 . S
C1633 H1621 0.950 . S
C1633 C1629 1.393 . S
C1633 C1632 1.391 . S
C1634 H1624 0.950 . S
C1634 C1635 1.386 1_655 S
C1634 C1636 1.391 . S
C1635 C1634 1.386 1_455 S
C1635 C1639 1.393 . S
C1636 H1625 0.950 . S
C1636 C1634 1.391 . S
C1636 C1637 1.400 . S
C1637 C1631 1.491 . S
C1637 C1636 1.400 . S
C1637 C1638 1.398 . S
C1638 H1626 0.950 . S
C1638 C1637 1.398 . S
C1638 C1639 1.391 1_655 S
C1639 H1627 0.950 . S
C1639 C1635 1.393 . S
C1639 C1638 1.391 1_455 S
H1640 C1648 0.950 . S
H1641 C1653 0.950 . S
H1642 C1650 0.950 . S
H1643 C1652 0.950 . S
H1644 C1654 0.950 . S
H1645 C1656 0.950 . S
H1646 C1658 0.950 . S
H1647 C1659 0.970 . S
C1648 H1640 0.950 . S
C1648 C1649 1.386 . S
C1648 C1650 1.391 . S
C1649 C1648 1.386 . S
C1649 C1653 1.393 . S
C1650 H1642 0.950 . S
C1650 C1648 1.391 . S
C1650 C1651 1.400 . S
C1651 C1650 1.400 . S
C1651 C1652 1.398 . S
C1651 C1657 1.491 . S
C1652 H1643 0.950 . S
C1652 C1651 1.398 . S
C1652 C1653 1.391 . S
C1653 H1641 0.950 . S
C1653 C1649 1.393 . S
C1653 C1652 1.391 . S
C1654 H1644 0.950 . S
C1654 C1655 1.386 . S
C1654 C1656 1.391 . S
C1655 C1654 1.386 . S
C1655 C1659 1.405 1_545 S
C1656 H1645 0.950 . S
C1656 C1654 1.391 . S
C1656 C1657 1.400 . S
C1657 C1651 1.491 . S
C1657 C1656 1.400 . S
C1657 C1658 1.398 . S
C1658 H1646 0.950 . S
C1658 C1657 1.398 . S
C1658 C1659 1.359 1_545 S
C1659 H1647 0.970 . S
C1659 C1655 1.405 1_565 S
C1659 C1658 1.359 1_565 S
H1660 C1668 0.950 1_565 S
H1661 C1673 0.950 . S
H1662 C1670 0.950 . S
H1663 C1672 0.950 . S
H1664 C1674 0.950 1_455 S
H1665 C1676 0.950 . S
H1666 C1678 0.950 . S
H1667 C1679 0.950 . S
C1668 H1660 0.950 1_545 S
C1668 C1669 1.380 1_545 S
C1668 C1670 1.397 . S
C1669 C1668 1.380 1_565 S
C1669 C1673 1.393 . S
C1670 H1662 0.950 . S
C1670 C1668 1.397 . S
C1670 C1671 1.400 . S
C1671 C1670 1.400 . S
C1671 C1672 1.398 . S
C1671 C1677 1.491 . S
C1672 H1663 0.950 . S
C1672 C1671 1.398 . S
C1672 C1673 1.391 1_545 S
C1673 H1661 0.950 . S
C1673 C1669 1.393 . S
C1673 C1672 1.391 1_565 S
C1674 H1664 0.950 1_655 S
C1674 C1675 1.386 . S
C1674 C1676 1.391 . S
C1675 C1674 1.386 . S
C1675 C1679 1.393 . S
C1676 H1665 0.950 . S
C1676 C1674 1.391 . S
C1676 C1677 1.400 . S
C1677 C1671 1.491 . S
C1677 C1676 1.400 . S
C1677 C1678 1.398 . S
C1678 H1666 0.950 . S
C1678 C1677 1.398 . S
C1678 C1679 1.391 . S
C1679 H1667 0.950 . S
C1679 C1675 1.393 . S
C1679 C1678 1.391 . S
H1680 C1688 0.950 . S
H1681 C1693 0.950 . S
H1682 C1690 0.950 . S
H1683 C1692 0.950 . S
H1684 C1694 0.950 . S
H1685 C1696 0.950 . S
H1686 C1698 0.950 . S
H1687 C1699 0.950 . S
C1688 H1680 0.950 . S
C1688 C1689 1.386 . S
C1688 C1690 1.391 . S
C1689 C1688 1.386 . S
C1689 C1693 1.393 . S
C1690 H1682 0.950 . S
C1690 C1688 1.391 . S
C1690 C1691 1.400 . S
C1691 C1690 1.400 . S
C1691 C1692 1.398 . S
C1691 C1697 1.491 . S
C1692 H1683 0.950 . S
C1692 C1691 1.398 . S
C1692 C1693 1.391 . S
C1693 H1681 0.950 . S
C1693 C1689 1.393 . S
C1693 C1692 1.391 . S
C1694 H1684 0.950 . S
C1694 C1695 1.386 . S
C1694 C1696 1.391 . S
C1695 C1694 1.386 . S
C1695 C1699 1.393 . S
C1696 H1685 0.950 . S
C1696 C1694 1.391 . S
C1696 C1697 1.400 . S
C1697 C1691 1.491 . S
C1697 C1696 1.400 . S
C1697 C1698 1.398 . S
C1698 H1686 0.950 . S
C1698 C1697 1.398 . S
C1698 C1699 1.391 . S
C1699 H1687 0.950 . S
C1699 C1695 1.393 . S
C1699 C1698 1.391 . S
H1700 C1708 0.950 . S
H1701 C1713 0.950 . S
H1702 C1710 0.950 . S
H1703 C1712 0.950 . S
H1704 C1714 0.950 . S
H1705 C1716 0.950 . S
H1706 C1718 0.950 . S
H1707 C1719 0.950 . S
C1708 H1700 0.950 . S
C1708 C1709 1.386 . S
C1708 C1710 1.391 . S
C1709 C1708 1.386 . S
C1709 C1713 1.393 . S
C1710 H1702 0.950 . S
C1710 C1708 1.391 . S
C1710 C1711 1.400 . S
C1711 C1710 1.400 . S
C1711 C1712 1.398 . S
C1711 C1717 1.491 . S
C1712 H1703 0.950 . S
C1712 C1711 1.398 . S
C1712 C1713 1.391 . S
C1713 H1701 0.950 . S
C1713 C1709 1.393 . S
C1713 C1712 1.391 . S
C1714 H1704 0.950 . S
C1714 C1715 1.386 . S
C1714 C1716 1.391 . S
C1715 C1714 1.386 . S
C1715 C1719 1.393 . S
C1716 H1705 0.950 . S
C1716 C1714 1.391 . S
C1716 C1717 1.400 . S
C1717 C1711 1.491 . S
C1717 C1716 1.400 . S
C1717 C1718 1.398 . S
C1718 H1706 0.950 . S
C1718 C1717 1.398 . S
C1718 C1719 1.391 . S
C1719 H1707 0.950 . S
C1719 C1715 1.393 . S
C1719 C1718 1.391 . S
H1720 C1728 0.950 . S
H1721 C1733 0.950 . S
H1722 C1730 0.950 . S
H1723 C1732 0.950 . S
H1724 C1734 0.950 . S
H1725 C1736 0.950 . S
H1726 C1738 0.950 . S
H1727 C1739 0.950 . S
C1728 H1720 0.950 . S
C1728 C1729 1.386 . S
C1728 C1730 1.391 . S
C1729 C1728 1.386 . S
C1729 C1733 1.393 . S
C1730 H1722 0.950 . S
C1730 C1728 1.391 . S
C1730 C1731 1.400 . S
C1731 C1730 1.400 . S
C1731 C1732 1.398 . S
C1731 C1737 1.491 . S
C1732 H1723 0.950 . S
C1732 C1731 1.398 . S
C1732 C1733 1.391 . S
C1733 H1721 0.950 . S
C1733 C1729 1.393 . S
C1733 C1732 1.391 . S
C1734 H1724 0.950 . S
C1734 C1735 1.386 . S
C1734 C1736 1.391 . S
C1735 C1734 1.386 . S
C1735 C1739 1.393 . S
C1736 H1725 0.950 . S
C1736 C1734 1.391 . S
C1736 C1737 1.400 . S
C1737 C1731 1.491 . S
C1737 C1736 1.400 . S
C1737 C1738 1.398 . S
C1738 H1726 0.950 . S
C1738 C1737 1.398 . S
C1738 C1739 1.391 . S
C1739 H1727 0.950 . S
C1739 C1735 1.393 . S
C1739 C1738 1.391 . S
H1740 C1748 0.950 . S
H1741 C1753 0.950 . S
H1742 C1750 0.950 . S
H1743 C1752 0.950 . S
H1744 C1754 0.950 . S
H1745 C1756 0.950 . S
H1746 C1758 0.950 . S
H1747 C1759 0.950 . S
C1748 H1740 0.950 . S
C1748 C1749 1.386 . S
C1748 C1750 1.391 . S
C1749 C1748 1.386 . S
C1749 C1753 1.393 . S
C1750 H1742 0.950 . S
C1750 C1748 1.391 . S
C1750 C1751 1.400 . S
C1751 C1750 1.400 . S
C1751 C1752 1.398 . S
C1751 C1757 1.491 . S
C1752 H1743 0.950 . S
C1752 C1751 1.398 . S
C1752 C1753 1.391 . S
C1753 H1741 0.950 . S
C1753 C1749 1.393 . S
C1753 C1752 1.391 . S
C1754 H1744 0.950 . S
C1754 C1755 1.386 . S
C1754 C1756 1.391 . S
C1755 C1754 1.386 . S
C1755 C1759 1.393 . S
C1756 H1745 0.950 . S
C1756 C1754 1.391 . S
C1756 C1757 1.400 . S
C1757 C1751 1.491 . S
C1757 C1756 1.400 . S
C1757 C1758 1.398 . S
C1758 H1746 0.950 . S
C1758 C1757 1.398 . S
C1758 C1759 1.391 . S
C1759 H1747 0.950 . S
C1759 C1755 1.393 . S
C1759 C1758 1.391 . S
H1760 C1768 0.950 . S
H1761 C1773 0.950 . S
H1762 C1770 0.950 . S
H1763 C1772 0.950 . S
H1764 C1774 0.950 . S
H1765 C1776 0.950 . S
H1766 C1778 0.950 . S
H1767 C1779 0.950 . S
C1768 H1760 0.950 . S
C1768 C1769 1.386 . S
C1768 C1770 1.391 . S
C1769 C1768 1.386 . S
C1769 C1773 1.393 . S
C1770 H1762 0.950 . S
C1770 C1768 1.391 . S
C1770 C1771 1.400 . S
C1771 C1770 1.400 . S
C1771 C1772 1.398 . S
C1771 C1777 1.491 . S
C1772 H1763 0.950 . S
C1772 C1771 1.398 . S
C1772 C1773 1.391 . S
C1773 H1761 0.950 . S
C1773 C1769 1.393 . S
C1773 C1772 1.391 . S
C1774 H1764 0.950 . S
C1774 C1775 1.386 . S
C1774 C1776 1.391 . S
C1775 C1774 1.386 . S
C1775 C1779 1.393 . S
C1776 H1765 0.950 . S
C1776 C1774 1.391 . S
C1776 C1777 1.400 . S
C1777 C1771 1.491 . S
C1777 C1776 1.400 . S
C1777 C1778 1.398 . S
C1778 H1766 0.950 . S
C1778 C1777 1.398 . S
C1778 C1779 1.391 . S
C1779 H1767 0.950 . S
C1779 C1775 1.393 . S
C1779 C1778 1.391 . S
H1780 C1788 0.950 . S
H1781 C1793 0.950 . S
H1782 C1790 0.950 . S
H1783 C1792 0.950 . S
H1784 C1794 0.950 . S
H1785 C1796 0.950 . S
H1786 C1798 0.950 . S
H1787 C1799 0.950 . S
C1788 H1780 0.950 . S
C1788 C1789 1.386 . S
C1788 C1790 1.391 . S
C1789 C1788 1.386 . S
C1789 C1793 1.393 . S
C1790 H1782 0.950 . S
C1790 C1788 1.391 . S
C1790 C1791 1.400 . S
C1791 C1790 1.400 . S
C1791 C1792 1.398 . S
C1791 C1797 1.491 . S
C1792 H1783 0.950 . S
C1792 C1791 1.398 . S
C1792 C1793 1.391 . S
C1793 H1781 0.950 . S
C1793 C1789 1.393 . S
C1793 C1792 1.391 . S
C1794 H1784 0.950 . S
C1794 C1795 1.386 . S
C1794 C1796 1.391 . S
C1795 C1794 1.386 . S
C1795 C1799 1.393 . S
C1796 H1785 0.950 . S
C1796 C1794 1.391 . S
C1796 C1797 1.400 . S
C1797 C1791 1.491 . S
C1797 C1796 1.400 . S
C1797 C1798 1.398 . S
C1798 H1786 0.950 . S
C1798 C1797 1.398 . S
C1798 C1799 1.391 . S
C1799 H1787 0.950 . S
C1799 C1795 1.393 . S
C1799 C1798 1.391 . S
H1800 C1808 0.950 . S
H1801 C1813 0.950 . S
H1802 C1810 0.950 . S
H1803 C1812 0.950 . S
H1804 C1814 0.950 . S
H1805 C1816 0.950 . S
H1806 C1818 0.950 . S
H1807 C1819 0.950 . S
C1808 H1800 0.950 . S
C1808 C1809 1.386 . S
C1808 C1810 1.391 . S
C1809 C1808 1.386 . S
C1809 C1813 1.393 . S
C1810 H1802 0.950 . S
C1810 C1808 1.391 . S
C1810 C1811 1.400 . S
C1811 C1810 1.400 . S
C1811 C1812 1.398 . S
C1811 C1817 1.491 . S
C1812 H1803 0.950 . S
C1812 C1811 1.398 . S
C1812 C1813 1.391 . S
C1813 H1801 0.950 . S
C1813 C1809 1.393 . S
C1813 C1812 1.391 . S
C1814 H1804 0.950 . S
C1814 C1815 1.386 . S
C1814 C1816 1.391 . S
C1815 C1814 1.386 . S
C1815 C1819 1.393 . S
C1816 H1805 0.950 . S
C1816 C1814 1.391 . S
C1816 C1817 1.400 . S
C1817 C1811 1.491 . S
C1817 C1816 1.400 . S
C1817 C1818 1.398 . S
C1818 H1806 0.950 . S
C1818 C1817 1.398 . S
C1818 C1819 1.391 . S
C1819 H1807 0.950 . S
C1819 C1815 1.393 . S
C1819 C1818 1.391 . S
H1820 C1828 0.950 . S
H1821 C1833 0.950 . S
H1822 C1830 0.950 . S
H1823 C1832 0.950 . S
H1824 C1834 0.950 . S
H1825 C1836 0.950 . S
H1826 C1838 0.950 . S
H1827 C1839 0.950 . S
C1828 H1820 0.950 . S
C1828 C1829 1.386 . S
C1828 C1830 1.391 . S
C1829 C1828 1.386 . S
C1829 C1833 1.393 . S
C1830 H1822 0.950 . S
C1830 C1828 1.391 . S
C1830 C1831 1.400 . S
C1831 C1830 1.400 . S
C1831 C1832 1.398 . S
C1831 C1837 1.491 . S
C1832 H1823 0.950 . S
C1832 C1831 1.398 . S
C1832 C1833 1.391 . S
C1833 H1821 0.950 . S
C1833 C1829 1.393 . S
C1833 C1832 1.391 . S
C1834 H1824 0.950 . S
C1834 C1835 1.386 . S
C1834 C1836 1.391 . S
C1835 C1834 1.386 . S
C1835 C1839 1.393 . S
C1836 H1825 0.950 . S
C1836 C1834 1.391 . S
C1836 C1837 1.400 . S
C1837 C1831 1.491 . S
C1837 C1836 1.400 . S
C1837 C1838 1.398 . S
C1838 H1826 0.950 . S
C1838 C1837 1.398 . S
C1838 C1839 1.391 . S
C1839 H1827 0.950 . S
C1839 C1835 1.393 . S
C1839 C1838 1.391 . S
H1840 C1848 0.950 . S
H1841 C1853 0.950 . S
H1842 C1850 0.950 . S
H1843 C1852 0.950 . S
H1844 C1854 0.950 . S
H1845 C1856 0.950 . S
H1846 C1858 0.950 . S
H1847 C1859 0.950 . S
C1848 H1840 0.950 . S
C1848 C1849 1.386 . S
C1848 C1850 1.391 . S
C1849 C1848 1.386 . S
C1849 C1853 1.393 . S
C1850 H1842 0.950 . S
C1850 C1848 1.391 . S
C1850 C1851 1.400 . S
C1851 C1850 1.400 . S
C1851 C1852 1.398 . S
C1851 C1857 1.491 . S
C1852 H1843 0.950 . S
C1852 C1851 1.398 . S
C1852 C1853 1.391 . S
C1853 H1841 0.950 . S
C1853 C1849 1.393 . S
C1853 C1852 1.391 . S
C1854 H1844 0.950 . S
C1854 C1855 1.386 . S
C1854 C1856 1.391 . S
C1855 C1854 1.386 . S
C1855 C1859 1.393 . S
C1856 H1845 0.950 . S
C1856 C1854 1.391 . S
C1856 C1857 1.400 . S
C1857 C1851 1.491 . S
C1857 C1856 1.400 . S
C1857 C1858 1.398 . S
C1858 H1846 0.950 . S
C1858 C1857 1.398 . S
C1858 C1859 1.391 . S
C1859 H1847 0.950 . S
C1859 C1855 1.393 . S
C1859 C1858 1.391 . S
H1860 C1868 0.950 . S
H1861 C1873 0.950 . S
H1862 C1870 0.950 . S
H1863 C1872 0.950 . S
H1864 C1874 0.950 . S
H1865 C1876 0.950 . S
H1866 C1878 0.950 . S
H1867 C1879 0.950 . S
C1868 H1860 0.950 . S
C1868 C1869 1.386 1_556 S
C1868 C1870 1.391 . S
C1869 C1868 1.386 1_554 S
C1869 C1873 1.393 . S
C1870 H1862 0.950 . S
C1870 C1868 1.391 . S
C1870 C1871 1.400 1_556 S
C1871 C1870 1.400 1_554 S
C1871 C1872 1.398 . S
C1871 C1877 1.491 . S
C1872 H1863 0.950 . S
C1872 C1871 1.398 . S
C1872 C1873 1.391 . S
C1873 H1861 0.950 . S
C1873 C1869 1.393 . S
C1873 C1872 1.391 . S
C1874 H1864 0.950 . S
C1874 C1875 1.386 . S
C1874 C1876 1.391 . S
C1875 C1874 1.386 . S
C1875 C1879 1.393 1_554 S
C1876 H1865 0.950 . S
C1876 C1874 1.391 . S
C1876 C1877 1.400 . S
C1877 C1871 1.491 . S
C1877 C1876 1.400 . S
C1877 C1878 1.398 1_554 S
C1878 H1866 0.950 . S
C1878 C1877 1.398 1_556 S
C1878 C1879 1.391 . S
C1879 H1867 0.950 . S
C1879 C1875 1.393 1_556 S
C1879 C1878 1.391 . S
H1880 C1888 0.950 . S
H1881 C1893 0.950 . S
H1882 C1890 0.950 . S
H1883 C1892 0.995 . S
H1884 C1894 0.942 1_556 S
H1885 C1896 0.931 1_556 S
H1886 C1898 0.950 . S
H1887 C1899 0.950 . S
C1888 H1880 0.950 . S
C1888 C1889 1.429 . S
C1888 C1890 1.391 . S
C1889 C1888 1.429 . S
C1889 C1893 1.365 1_554 S
C1890 H1882 0.950 . S
C1890 C1888 1.391 . S
C1890 C1891 1.400 . S
C1891 C1890 1.400 . S
C1891 C1892 1.363 1_554 S
C1891 C1897 1.491 . S
C1892 H1883 0.995 . S
C1892 C1891 1.363 1_556 S
C1892 C1893 1.402 . S
C1893 H1881 0.950 . S
C1893 C1889 1.365 1_556 S
C1893 C1892 1.402 . S
C1894 H1884 0.942 1_554 S
C1894 C1895 1.386 . S
C1894 C1896 1.397 . S
C1895 C1894 1.386 . S
C1895 C1899 1.393 . S
C1896 H1885 0.931 1_554 S
C1896 C1894 1.397 . S
C1896 C1897 1.419 . S
C1897 C1891 1.491 . S
C1897 C1896 1.419 . S
C1897 C1898 1.398 . S
C1898 H1886 0.950 . S
C1898 C1897 1.398 . S
C1898 C1899 1.391 . S
C1899 H1887 0.950 . S
C1899 C1895 1.393 . S
C1899 C1898 1.391 . S
H1900 C1908 0.954 . S
H1901 C1913 0.950 . S
H1902 C1910 0.933 1_556 S
H1903 C1912 0.950 . S
H1904 C1914 0.950 . S
H1905 C1916 0.950 . S
H1906 C1918 0.945 . S
H1907 C1919 0.933 1_556 S
C1908 H1900 0.954 . S
C1908 C1909 1.386 . S
C1908 C1910 1.402 . S
C1909 C1908 1.386 . S
C1909 C1913 1.393 . S
C1910 H1902 0.933 1_554 S
C1910 C1908 1.402 . S
C1910 C1911 1.427 . S
C1911 C1910 1.427 . S
C1911 C1912 1.398 . S
C1911 C1917 1.491 . S
C1912 H1903 0.950 . S
C1912 C1911 1.398 . S
C1912 C1913 1.391 . S
C1913 H1901 0.950 . S
C1913 C1909 1.393 . S
C1913 C1912 1.391 . S
C1914 H1904 0.950 . S
C1914 C1915 1.386 . S
C1914 C1916 1.391 . S
C1915 C1914 1.386 . S
C1915 C1919 1.399 . S
C1916 H1905 0.950 . S
C1916 C1914 1.391 . S
C1916 C1917 1.400 . S
C1917 C1911 1.491 . S
C1917 C1916 1.400 . S
C1917 C1918 1.420 . S
C1918 H1906 0.945 . S
C1918 C1917 1.420 . S
C1918 C1919 1.389 . S
C1919 H1907 0.933 1_554 S
C1919 C1915 1.399 . S
C1919 C1918 1.389 . S
H1920 C1928 0.950 . S
H1921 C1933 0.950 . S
H1922 C1930 0.950 . S
H1923 C1932 0.950 . S
H1924 C1934 0.950 . S
H1925 C1936 0.950 . S
H1926 C1938 0.950 . S
H1927 C1939 0.950 . S
C1928 H1920 0.950 . S
C1928 C1929 1.386 . S
C1928 C1930 1.391 . S
C1929 C1928 1.386 . S
C1929 C1933 1.393 . S
C1930 H1922 0.950 . S
C1930 C1928 1.391 . S
C1930 C1931 1.400 . S
C1931 C1930 1.400 . S
C1931 C1932 1.398 . S
C1931 C1937 1.491 . S
C1932 H1923 0.950 . S
C1932 C1931 1.398 . S
C1932 C1933 1.391 . S
C1933 H1921 0.950 . S
C1933 C1929 1.393 . S
C1933 C1932 1.391 . S
C1934 H1924 0.950 . S
C1934 C1935 1.386 . S
C1934 C1936 1.391 . S
C1935 C1934 1.386 . S
C1935 C1939 1.393 . S
C1936 H1925 0.950 . S
C1936 C1934 1.391 . S
C1936 C1937 1.400 . S
C1937 C1931 1.491 . S
C1937 C1936 1.400 . S
C1937 C1938 1.398 . S
C1938 H1926 0.950 . S
C1938 C1937 1.398 . S
C1938 C1939 1.391 . S
C1939 H1927 0.950 . S
C1939 C1935 1.393 . S
C1939 C1938 1.391 . S
H1940 C1948 0.950 . S
H1941 C1953 0.950 . S
H1942 C1950 0.950 . S
H1943 C1952 0.950 . S
H1944 C1954 0.950 . S
H1945 C1956 0.950 . S
H1946 C1958 0.950 . S
H1947 C1959 0.950 . S
C1948 H1940 0.950 . S
C1948 C1949 1.386 . S
C1948 C1950 1.391 . S
C1949 C1948 1.386 . S
C1949 C1953 1.393 . S
C1950 H1942 0.950 . S
C1950 C1948 1.391 . S
C1950 C1951 1.400 . S
C1951 C1950 1.400 . S
C1951 C1952 1.398 . S
C1951 C1957 1.491 . S
C1952 H1943 0.950 . S
C1952 C1951 1.398 . S
C1952 C1953 1.391 . S
C1953 H1941 0.950 . S
C1953 C1949 1.393 . S
C1953 C1952 1.391 . S
C1954 H1944 0.950 . S
C1954 C1955 1.386 . S
C1954 C1956 1.391 . S
C1955 C1954 1.386 . S
C1955 C1959 1.393 . S
C1956 H1945 0.950 . S
C1956 C1954 1.391 . S
C1956 C1957 1.400 . S
C1957 C1951 1.491 . S
C1957 C1956 1.400 . S
C1957 C1958 1.398 . S
C1958 H1946 0.950 . S
C1958 C1957 1.398 . S
C1958 C1959 1.391 . S
C1959 H1947 0.950 . S
C1959 C1955 1.393 . S
C1959 C1958 1.391 . S
H1960 C1968 0.950 . S
H1961 C1973 0.950 . S
H1962 C1970 0.950 . S
H1963 C1972 0.950 . S
H1964 C1974 0.950 . S
H1965 C1976 0.950 . S
H1966 C1978 0.950 . S
H1967 C1979 0.950 . S
C1968 H1960 0.950 . S
C1968 C1969 1.386 . S
C1968 C1970 1.391 . S
C1969 C1968 1.386 . S
C1969 C1973 1.393 . S
C1970 H1962 0.950 . S
C1970 C1968 1.391 . S
C1970 C1971 1.400 . S
C1971 C1970 1.400 . S
C1971 C1972 1.398 . S
C1971 C1977 1.491 . S
C1972 H1963 0.950 . S
C1972 C1971 1.398 . S
C1972 C1973 1.391 . S
C1973 H1961 0.950 . S
C1973 C1969 1.393 . S
C1973 C1972 1.391 . S
C1974 H1964 0.950 . S
C1974 C1975 1.386 . S
C1974 C1976 1.391 . S
C1975 C1974 1.386 . S
C1975 C1979 1.393 . S
C1976 H1965 0.950 . S
C1976 C1974 1.391 . S
C1976 C1977 1.400 . S
C1977 C1971 1.491 . S
C1977 C1976 1.400 . S
C1977 C1978 1.398 . S
C1978 H1966 0.950 . S
C1978 C1977 1.398 . S
C1978 C1979 1.391 . S
C1979 H1967 0.950 . S
C1979 C1975 1.393 . S
C1979 C1978 1.391 . S
H1980 C1988 0.950 . S
H1981 C1993 0.950 . S
H1982 C1990 0.950 . S
H1983 C1992 0.950 . S
H1984 C1994 0.950 . S
H1985 C1996 0.950 . S
H1986 C1998 0.950 . S
H1987 C1999 0.950 . S
C1988 H1980 0.950 . S
C1988 C1989 1.386 1_554 S
C1988 C1990 1.391 . S
C1989 C1988 1.386 1_556 S
C1989 C1993 1.393 . S
C1990 H1982 0.950 . S
C1990 C1988 1.391 . S
C1990 C1991 1.400 1_554 S
C1991 C1990 1.400 1_556 S
C1991 C1992 1.398 . S
C1991 C1997 1.491 . S
C1992 H1983 0.950 . S
C1992 C1991 1.398 . S
C1992 C1993 1.391 . S
C1993 H1981 0.950 . S
C1993 C1989 1.393 . S
C1993 C1992 1.391 . S
C1994 H1984 0.950 . S
C1994 C1995 1.386 . S
C1994 C1996 1.391 . S
C1995 C1994 1.386 . S
C1995 C1999 1.393 1_556 S
C1996 H1985 0.950 . S
C1996 C1994 1.391 . S
C1996 C1997 1.400 . S
C1997 C1991 1.491 . S
C1997 C1996 1.400 . S
C1997 C1998 1.398 1_556 S
C1998 H1986 0.950 . S
C1998 C1997 1.398 1_554 S
C1998 C1999 1.391 . S
C1999 H1987 0.950 . S
C1999 C1995 1.393 1_554 S
C1999 C1998 1.391 . S
H2000 C2008 0.950 . S
H2001 C2013 0.950 . S
H2002 C2010 0.950 . S
H2003 C2012 0.950 . S
H2004 C2014 0.950 . S
H2005 C2016 0.950 . S
H2006 C2018 0.950 . S
H2007 C2019 0.950 . S
C2008 H2000 0.950 . S
C2008 C2009 1.386 1_554 S
C2008 C2010 1.391 . S
C2009 C2008 1.386 1_556 S
C2009 C2013 1.393 . S
C2010 H2002 0.950 . S
C2010 C2008 1.391 . S
C2010 C2011 1.400 1_554 S
C2011 C2010 1.400 1_556 S
C2011 C2012 1.398 . S
C2011 C2017 1.491 . S
C2012 H2003 0.950 . S
C2012 C2011 1.398 . S
C2012 C2013 1.391 . S
C2013 H2001 0.950 . S
C2013 C2009 1.393 . S
C2013 C2012 1.391 . S
C2014 H2004 0.950 . S
C2014 C2015 1.386 . S
C2014 C2016 1.391 . S
C2015 C2014 1.386 . S
C2015 C2019 1.393 1_556 S
C2016 H2005 0.950 . S
C2016 C2014 1.391 . S
C2016 C2017 1.400 . S
C2017 C2011 1.491 . S
C2017 C2016 1.400 . S
C2017 C2018 1.398 1_556 S
C2018 H2006 0.950 . S
C2018 C2017 1.398 1_554 S
C2018 C2019 1.391 . S
C2019 H2007 0.950 . S
C2019 C2015 1.393 1_554 S
C2019 C2018 1.391 . S
H2020 C2028 0.950 . S
H2021 C2033 0.981 . S
H2022 C2030 0.950 . S
H2023 C2032 0.954 . S
H2024 C2034 0.943 1_554 S
H2025 C2036 0.946 . S
H2026 C2038 0.950 . S
H2027 C2039 0.950 . S
C2028 H2020 0.950 . S
C2028 C2029 1.386 . S
C2028 C2030 1.391 . S
C2029 C2028 1.386 . S
C2029 C2033 1.373 1_556 S
C2030 H2022 0.950 . S
C2030 C2028 1.391 . S
C2030 C2031 1.400 . S
C2031 C2030 1.400 . S
C2031 C2032 1.394 1_556 S
C2031 C2037 1.491 . S
C2032 H2023 0.954 . S
C2032 C2031 1.394 1_554 S
C2032 C2033 1.389 . S
C2033 H2021 0.981 . S
C2033 C2029 1.373 1_554 S
C2033 C2032 1.389 . S
C2034 H2024 0.943 1_556 S
C2034 C2035 1.394 . S
C2034 C2036 1.391 1_556 S
C2035 C2034 1.394 . S
C2035 C2039 1.393 . S
C2036 H2025 0.946 . S
C2036 C2034 1.391 1_554 S
C2036 C2037 1.403 1_554 S
C2037 C2031 1.491 . S
C2037 C2036 1.403 1_556 S
C2037 C2038 1.398 . S
C2038 H2026 0.950 . S
C2038 C2037 1.398 . S
C2038 C2039 1.391 . S
C2039 H2027 0.950 . S
C2039 C2035 1.393 . S
C2039 C2038 1.391 . S
H2040 C2048 0.950 . S
H2041 C2053 0.950 . S
H2042 C2050 0.950 . S
H2043 C2052 0.950 . S
H2044 C2054 0.950 . S
H2045 C2056 0.950 . S
H2046 C2058 0.950 . S
H2047 C2059 0.950 . S
C2048 H2040 0.950 . S
C2048 C2049 1.386 . S
C2048 C2050 1.391 . S
C2049 C2048 1.386 . S
C2049 C2053 1.393 . S
C2050 H2042 0.950 . S
C2050 C2048 1.391 . S
C2050 C2051 1.400 . S
C2051 C2050 1.400 . S
C2051 C2052 1.398 . S
C2051 C2057 1.491 . S
C2052 H2043 0.950 . S
C2052 C2051 1.398 . S
C2052 C2053 1.391 . S
C2053 H2041 0.950 . S
C2053 C2049 1.393 . S
C2053 C2052 1.391 . S
C2054 H2044 0.950 . S
C2054 C2055 1.386 . S
C2054 C2056 1.391 . S
C2055 C2054 1.386 . S
C2055 C2059 1.393 . S
C2056 H2045 0.950 . S
C2056 C2054 1.391 . S
C2056 C2057 1.400 . S
C2057 C2051 1.491 . S
C2057 C2056 1.400 . S
C2057 C2058 1.398 . S
C2058 H2046 0.950 . S
C2058 C2057 1.398 . S
C2058 C2059 1.391 . S
C2059 H2047 0.950 . S
C2059 C2055 1.393 . S
C2059 C2058 1.391 . S
H2060 C2068 0.950 . S
H2061 C2073 0.950 . S
H2062 C2070 0.950 . S
H2063 C2072 0.950 . S
H2064 C2074 0.950 . S
H2065 C2076 0.950 . S
H2066 C2078 0.950 . S
H2067 C2079 0.950 . S
C2068 H2060 0.950 . S
C2068 C2069 1.386 . S
C2068 C2070 1.391 . S
C2069 C2068 1.386 . S
C2069 C2073 1.393 . S
C2070 H2062 0.950 . S
C2070 C2068 1.391 . S
C2070 C2071 1.400 . S
C2071 C2070 1.400 . S
C2071 C2072 1.398 . S
C2071 C2077 1.491 . S
C2072 H2063 0.950 . S
C2072 C2071 1.398 . S
C2072 C2073 1.391 . S
C2073 H2061 0.950 . S
C2073 C2069 1.393 . S
C2073 C2072 1.391 . S
C2074 H2064 0.950 . S
C2074 C2075 1.386 . S
C2074 C2076 1.391 . S
C2075 C2074 1.386 . S
C2075 C2079 1.393 . S
C2076 H2065 0.950 . S
C2076 C2074 1.391 . S
C2076 C2077 1.400 . S
C2077 C2071 1.491 . S
C2077 C2076 1.400 . S
C2077 C2078 1.398 . S
C2078 H2066 0.950 . S
C2078 C2077 1.398 . S
C2078 C2079 1.391 . S
C2079 H2067 0.950 . S
C2079 C2075 1.393 . S
C2079 C2078 1.391 . S
H2080 C2088 0.950 . S
H2081 C2093 0.950 . S
H2082 C2090 0.950 . S
H2083 C2092 0.950 . S
H2084 C2094 0.950 . S
H2085 C2096 0.950 . S
H2086 C2098 0.950 . S
H2087 C2099 0.950 . S
C2088 H2080 0.950 . S
C2088 C2089 1.386 . S
C2088 C2090 1.391 . S
C2089 C2088 1.386 . S
C2089 C2093 1.393 . S
C2090 H2082 0.950 . S
C2090 C2088 1.391 . S
C2090 C2091 1.400 . S
C2091 C2090 1.400 . S
C2091 C2092 1.398 . S
C2091 C2097 1.491 . S
C2092 H2083 0.950 . S
C2092 C2091 1.398 . S
C2092 C2093 1.391 . S
C2093 H2081 0.950 . S
C2093 C2089 1.393 . S
C2093 C2092 1.391 . S
C2094 H2084 0.950 . S
C2094 C2095 1.386 . S
C2094 C2096 1.391 . S
C2095 C2094 1.386 . S
C2095 C2099 1.393 . S
C2096 H2085 0.950 . S
C2096 C2094 1.391 . S
C2096 C2097 1.400 . S
C2097 C2091 1.491 . S
C2097 C2096 1.400 . S
C2097 C2098 1.398 . S
C2098 H2086 0.950 . S
C2098 C2097 1.398 . S
C2098 C2099 1.391 . S
C2099 H2087 0.950 . S
C2099 C2095 1.393 . S
C2099 C2098 1.391 . S
H2100 C2108 0.950 . S
H2101 C2113 0.950 . S
H2102 C2110 0.950 . S
H2103 C2112 0.950 . S
H2104 C2114 0.950 . S
H2105 C2116 0.950 . S
H2106 C2118 0.950 . S
H2107 C2119 0.950 . S
C2108 H2100 0.950 . S
C2108 C2109 1.386 . S
C2108 C2110 1.391 . S
C2109 C2108 1.386 . S
C2109 C2113 1.393 . S
C2110 H2102 0.950 . S
C2110 C2108 1.391 . S
C2110 C2111 1.400 . S
C2111 C2110 1.400 . S
C2111 C2112 1.398 . S
C2111 C2117 1.491 . S
C2112 H2103 0.950 . S
C2112 C2111 1.398 . S
C2112 C2113 1.391 . S
C2113 H2101 0.950 . S
C2113 C2109 1.393 . S
C2113 C2112 1.391 . S
C2114 H2104 0.950 . S
C2114 C2115 1.386 . S
C2114 C2116 1.391 . S
C2115 C2114 1.386 . S
C2115 C2119 1.393 . S
C2116 H2105 0.950 . S
C2116 C2114 1.391 . S
C2116 C2117 1.400 . S
C2117 C2111 1.491 . S
C2117 C2116 1.400 . S
C2117 C2118 1.398 . S
C2118 H2106 0.950 . S
C2118 C2117 1.398 . S
C2118 C2119 1.391 . S
C2119 H2107 0.950 . S
C2119 C2115 1.393 . S
C2119 C2118 1.391 . S
H2120 C2128 0.950 . S
H2121 C2133 0.950 . S
H2122 C2130 0.950 . S
H2123 C2132 0.950 . S
H2124 C2134 0.950 . S
H2125 C2136 0.950 . S
H2126 C2138 0.950 . S
H2127 C2139 0.950 . S
C2128 H2120 0.950 . S
C2128 C2129 1.386 . S
C2128 C2130 1.391 . S
C2129 C2128 1.386 . S
C2129 C2133 1.393 . S
C2130 H2122 0.950 . S
C2130 C2128 1.391 . S
C2130 C2131 1.400 . S
C2131 C2130 1.400 . S
C2131 C2132 1.398 . S
C2131 C2137 1.491 . S
C2132 H2123 0.950 . S
C2132 C2131 1.398 . S
C2132 C2133 1.391 . S
C2133 H2121 0.950 . S
C2133 C2129 1.393 . S
C2133 C2132 1.391 . S
C2134 H2124 0.950 . S
C2134 C2135 1.386 . S
C2134 C2136 1.391 . S
C2135 C2134 1.386 . S
C2135 C2139 1.393 . S
C2136 H2125 0.950 . S
C2136 C2134 1.391 . S
C2136 C2137 1.400 . S
C2137 C2131 1.491 . S
C2137 C2136 1.400 . S
C2137 C2138 1.398 . S
C2138 H2126 0.950 . S
C2138 C2137 1.398 . S
C2138 C2139 1.391 . S
C2139 H2127 0.950 . S
C2139 C2135 1.393 . S
C2139 C2138 1.391 . S
H2140 C2148 0.950 . S
H2141 C2153 0.950 . S
H2142 C2150 0.950 . S
H2143 C2152 0.950 . S
H2144 C2154 0.950 . S
H2145 C2156 0.950 . S
H2146 C2158 0.950 . S
H2147 C2159 0.950 . S
C2148 H2140 0.950 . S
C2148 C2149 1.386 . S
C2148 C2150 1.391 . S
C2149 C2148 1.386 . S
C2149 C2153 1.393 . S
C2150 H2142 0.950 . S
C2150 C2148 1.391 . S
C2150 C2151 1.400 . S
C2151 C2150 1.400 . S
C2151 C2152 1.398 . S
C2151 C2157 1.491 . S
C2152 H2143 0.950 . S
C2152 C2151 1.398 . S
C2152 C2153 1.391 . S
C2153 H2141 0.950 . S
C2153 C2149 1.393 . S
C2153 C2152 1.391 . S
C2154 H2144 0.950 . S
C2154 C2155 1.386 . S
C2154 C2156 1.391 . S
C2155 C2154 1.386 . S
C2155 C2159 1.393 . S
C2156 H2145 0.950 . S
C2156 C2154 1.391 . S
C2156 C2157 1.400 . S
C2157 C2151 1.491 . S
C2157 C2156 1.400 . S
C2157 C2158 1.398 . S
C2158 H2146 0.950 . S
C2158 C2157 1.398 . S
C2158 C2159 1.391 . S
C2159 H2147 0.950 . S
C2159 C2155 1.393 . S
C2159 C2158 1.391 . S
H2160 C2168 0.950 . S
H2161 C2173 0.950 . S
H2162 C2170 0.950 . S
H2163 C2172 0.950 . S
H2164 C2174 0.950 . S
H2165 C2176 0.950 . S
H2166 C2178 0.950 . S
H2167 C2179 0.950 . S
C2168 H2160 0.950 . S
C2168 C2169 1.386 . S
C2168 C2170 1.391 . S
C2169 C2168 1.386 . S
C2169 C2173 1.393 . S
C2170 H2162 0.950 . S
C2170 C2168 1.391 . S
C2170 C2171 1.400 . S
C2171 C2170 1.400 . S
C2171 C2172 1.398 . S
C2171 C2177 1.491 . S
C2172 H2163 0.950 . S
C2172 C2171 1.398 . S
C2172 C2173 1.391 . S
C2173 H2161 0.950 . S
C2173 C2169 1.393 . S
C2173 C2172 1.391 . S
C2174 H2164 0.950 . S
C2174 C2175 1.386 . S
C2174 C2176 1.391 . S
C2175 C2174 1.386 . S
C2175 C2179 1.393 . S
C2176 H2165 0.950 . S
C2176 C2174 1.391 . S
C2176 C2177 1.400 . S
C2177 C2171 1.491 . S
C2177 C2176 1.400 . S
C2177 C2178 1.398 . S
C2178 H2166 0.950 . S
C2178 C2177 1.398 . S
C2178 C2179 1.391 . S
C2179 H2167 0.950 . S
C2179 C2175 1.393 . S
C2179 C2178 1.391 . S
H2180 C2188 0.950 . S
H2181 C2193 0.950 . S
H2182 C2190 0.950 . S
H2183 C2192 0.950 . S
H2184 C2194 0.950 . S
H2185 C2196 0.950 . S
H2186 C2198 0.950 1_545 S
H2187 C2199 0.950 . S
C2188 H2180 0.950 . S
C2188 C2189 1.386 . S
C2188 C2190 1.391 . S
C2189 C2188 1.386 . S
C2189 C2193 1.393 1_545 S
C2190 H2182 0.950 . S
C2190 C2188 1.391 . S
C2190 C2191 1.400 1_545 S
C2191 C2190 1.400 1_565 S
C2191 C2192 1.398 . S
C2191 C2197 1.491 . S
C2192 H2183 0.950 . S
C2192 C2191 1.398 . S
C2192 C2193 1.391 . S
C2193 H2181 0.950 . S
C2193 C2189 1.393 1_565 S
C2193 C2192 1.391 . S
C2194 H2184 0.950 . S
C2194 C2195 1.386 . S
C2194 C2196 1.391 . S
C2195 C2194 1.386 . S
C2195 C2199 1.393 . S
C2196 H2185 0.950 . S
C2196 C2194 1.391 . S
C2196 C2197 1.400 . S
C2197 C2191 1.491 . S
C2197 C2196 1.400 . S
C2197 C2198 1.398 . S
C2198 H2186 0.950 1_565 S
C2198 C2197 1.398 . S
C2198 C2199 1.391 . S
C2199 H2187 0.950 . S
C2199 C2195 1.393 . S
C2199 C2198 1.391 . S
H2200 C2208 0.950 . S
H2201 C2213 0.950 . S
H2202 C2210 0.950 1_655 S
H2203 C2212 0.950 . S
H2204 C2214 0.950 . S
H2205 C2216 0.950 . S
H2206 C2218 0.950 . S
H2207 C2219 0.950 . S
C2208 H2200 0.950 . S
C2208 C2209 1.386 . S
C2208 C2210 1.391 . S
C2209 C2208 1.386 . S
C2209 C2213 1.393 . S
C2210 H2202 0.950 1_455 S
C2210 C2208 1.391 . S
C2210 C2211 1.400 . S
C2211 C2210 1.400 . S
C2211 C2212 1.398 . S
C2211 C2217 1.491 . S
C2212 H2203 0.950 . S
C2212 C2211 1.398 . S
C2212 C2213 1.391 . S
C2213 H2201 0.950 . S
C2213 C2209 1.393 . S
C2213 C2212 1.391 . S
C2214 H2204 0.950 . S
C2214 C2215 1.386 1_455 S
C2214 C2216 1.391 . S
C2215 C2214 1.386 1_655 S
C2215 C2219 1.393 . S
C2216 H2205 0.950 . S
C2216 C2214 1.391 . S
C2216 C2217 1.400 . S
C2217 C2211 1.491 . S
C2217 C2216 1.400 . S
C2217 C2218 1.398 1_455 S
C2218 H2206 0.950 . S
C2218 C2217 1.398 1_655 S
C2218 C2219 1.391 . S
C2219 H2207 0.950 . S
C2219 C2215 1.393 . S
C2219 C2218 1.391 . S
H2220 C2228 0.950 . S
H2221 C2233 0.950 . S
H2222 C2230 0.950 . S
H2223 C2232 0.950 . S
H2224 C2234 0.950 . S
H2225 C2236 0.950 . S
H2226 C2238 0.950 . S
H2227 C2239 0.950 . S
C2228 H2220 0.950 . S
C2228 C2229 1.386 . S
C2228 C2230 1.391 . S
C2229 C2228 1.386 . S
C2229 C2233 1.393 . S
C2230 H2222 0.950 . S
C2230 C2228 1.391 . S
C2230 C2231 1.400 . S
C2231 C2230 1.400 . S
C2231 C2232 1.398 . S
C2231 C2237 1.491 . S
C2232 H2223 0.950 . S
C2232 C2231 1.398 . S
C2232 C2233 1.391 . S
C2233 H2221 0.950 . S
C2233 C2229 1.393 . S
C2233 C2232 1.391 . S
C2234 H2224 0.950 . S
C2234 C2235 1.386 . S
C2234 C2236 1.391 . S
C2235 C2234 1.386 . S
C2235 C2239 1.393 . S
C2236 H2225 0.950 . S
C2236 C2234 1.391 . S
C2236 C2237 1.400 . S
C2237 C2231 1.491 . S
C2237 C2236 1.400 . S
C2237 C2238 1.398 . S
C2238 H2226 0.950 . S
C2238 C2237 1.398 . S
C2238 C2239 1.391 . S
C2239 H2227 0.950 . S
C2239 C2235 1.393 . S
C2239 C2238 1.391 . S
H2240 C2248 0.950 . S
H2241 C2253 0.950 . S
H2242 C2250 0.950 . S
H2243 C2252 0.950 . S
H2244 C2254 0.950 . S
H2245 C2256 0.950 1_565 S
H2246 C2258 0.950 . S
H2247 C2259 0.950 . S
C2248 H2240 0.950 . S
C2248 C2249 1.386 1_545 S
C2248 C2250 1.391 . S
C2249 C2248 1.386 1_565 S
C2249 C2253 1.393 . S
C2250 H2242 0.950 . S
C2250 C2248 1.391 . S
C2250 C2251 1.400 . S
C2251 C2250 1.400 . S
C2251 C2252 1.398 1_545 S
C2251 C2257 1.491 . S
C2252 H2243 0.950 . S
C2252 C2251 1.398 1_565 S
C2252 C2253 1.391 . S
C2253 H2241 0.950 . S
C2253 C2249 1.393 . S
C2253 C2252 1.391 . S
C2254 H2244 0.950 . S
C2254 C2255 1.386 . S
C2254 C2256 1.391 . S
C2255 C2254 1.386 . S
C2255 C2259 1.393 . S
C2256 H2245 0.950 1_545 S
C2256 C2254 1.391 . S
C2256 C2257 1.400 . S
C2257 C2251 1.491 . S
C2257 C2256 1.400 . S
C2257 C2258 1.398 . S
C2258 H2246 0.950 . S
C2258 C2257 1.398 . S
C2258 C2259 1.391 . S
C2259 H2247 0.950 . S
C2259 C2255 1.393 . S
C2259 C2258 1.391 . S
H2260 C2268 0.950 . S
H2261 C2273 0.950 . S
H2262 C2270 0.950 . S
H2263 C2272 0.950 . S
H2264 C2274 0.950 . S
H2265 C2276 0.950 . S
H2266 C2278 0.950 . S
H2267 C2279 0.950 . S
C2268 H2260 0.950 . S
C2268 C2269 1.386 . S
C2268 C2270 1.391 . S
C2269 C2268 1.386 . S
C2269 C2273 1.393 . S
C2270 H2262 0.950 . S
C2270 C2268 1.391 . S
C2270 C2271 1.400 . S
C2271 C2270 1.400 . S
C2271 C2272 1.398 . S
C2271 C2277 1.491 . S
C2272 H2263 0.950 . S
C2272 C2271 1.398 . S
C2272 C2273 1.391 . S
C2273 H2261 0.950 . S
C2273 C2269 1.393 . S
C2273 C2272 1.391 . S
C2274 H2264 0.950 . S
C2274 C2275 1.386 . S
C2274 C2276 1.391 1_455 S
C2275 C2274 1.386 . S
C2275 C2279 1.393 . S
C2276 H2265 0.950 . S
C2276 C2274 1.391 1_655 S
C2276 C2277 1.400 . S
C2277 C2271 1.491 . S
C2277 C2276 1.400 . S
C2277 C2278 1.398 . S
C2278 H2266 0.950 . S
C2278 C2277 1.398 . S
C2278 C2279 1.391 1_655 S
C2279 H2267 0.950 . S
C2279 C2275 1.393 . S
C2279 C2278 1.391 1_455 S
H2280 C2288 0.950 . S
H2281 C2293 0.950 . S
H2282 C2290 0.950 . S
H2283 C2292 0.950 . S
H2284 C2294 0.950 . S
H2285 C2296 0.950 . S
H2286 C2298 0.950 . S
H2287 C2299 0.950 . S
C2288 H2280 0.950 . S
C2288 C2289 1.386 . S
C2288 C2290 1.391 . S
C2289 C2288 1.386 . S
C2289 C2293 1.393 . S
C2290 H2282 0.950 . S
C2290 C2288 1.391 . S
C2290 C2291 1.400 . S
C2291 C2290 1.400 . S
C2291 C2292 1.398 . S
C2291 C2297 1.491 . S
C2292 H2283 0.950 . S
C2292 C2291 1.398 . S
C2292 C2293 1.391 . S
C2293 H2281 0.950 . S
C2293 C2289 1.393 . S
C2293 C2292 1.391 . S
C2294 H2284 0.950 . S
C2294 C2295 1.386 . S
C2294 C2296 1.391 . S
C2295 C2294 1.386 . S
C2295 C2299 1.393 . S
C2296 H2285 0.950 . S
C2296 C2294 1.391 . S
C2296 C2297 1.400 . S
C2297 C2291 1.491 . S
C2297 C2296 1.400 . S
C2297 C2298 1.398 . S
C2298 H2286 0.950 . S
C2298 C2297 1.398 . S
C2298 C2299 1.391 . S
C2299 H2287 0.950 . S
C2299 C2295 1.393 . S
C2299 C2298 1.391 . S
H2300 C2308 0.950 . S
H2301 C2313 0.950 . S
H2302 C2310 0.950 . S
H2303 C2312 0.950 . S
H2304 C2314 0.950 . S
H2305 C2316 0.950 . S
H2306 C2318 0.950 . S
H2307 C2319 0.950 . S
C2308 H2300 0.950 . S
C2308 C2309 1.386 . S
C2308 C2310 1.391 . S
C2309 C2308 1.386 . S
C2309 C2313 1.393 . S
C2310 H2302 0.950 . S
C2310 C2308 1.391 . S
C2310 C2311 1.400 . S
C2311 C2310 1.400 . S
C2311 C2312 1.398 . S
C2311 C2317 1.491 . S
C2312 H2303 0.950 . S
C2312 C2311 1.398 . S
C2312 C2313 1.391 . S
C2313 H2301 0.950 . S
C2313 C2309 1.393 . S
C2313 C2312 1.391 . S
C2314 H2304 0.950 . S
C2314 C2315 1.386 1_545 S
C2314 C2316 1.391 . S
C2315 C2314 1.386 1_565 S
C2315 C2319 1.393 . S
C2316 H2305 0.950 . S
C2316 C2314 1.391 . S
C2316 C2317 1.400 . S
C2317 C2311 1.491 . S
C2317 C2316 1.400 . S
C2317 C2318 1.398 1_545 S
C2318 H2306 0.950 . S
C2318 C2317 1.398 1_565 S
C2318 C2319 1.391 . S
C2319 H2307 0.950 . S
C2319 C2315 1.393 . S
C2319 C2318 1.391 . S
H2320 C2328 0.950 . S
H2321 C2333 0.950 . S
H2322 C2330 0.950 . S
H2323 C2332 0.950 . S
H2324 C2334 0.950 . S
H2325 C2336 0.950 . S
H2326 C2338 0.950 . S
H2327 C2339 0.950 . S
C2328 H2320 0.950 . S
C2328 C2329 1.386 . S
C2328 C2330 1.391 . S
C2329 C2328 1.386 . S
C2329 C2333 1.393 . S
C2330 H2322 0.950 . S
C2330 C2328 1.391 . S
C2330 C2331 1.400 . S
C2331 C2330 1.400 . S
C2331 C2332 1.398 . S
C2331 C2337 1.491 . S
C2332 H2323 0.950 . S
C2332 C2331 1.398 . S
C2332 C2333 1.391 . S
C2333 H2321 0.950 . S
C2333 C2329 1.393 . S
C2333 C2332 1.391 . S
C2334 H2324 0.950 . S
C2334 C2335 1.386 . S
C2334 C2336 1.391 . S
C2335 C2334 1.386 . S
C2335 C2339 1.393 1_455 S
C2336 H2325 0.950 . S
C2336 C2334 1.391 . S
C2336 C2337 1.400 1_455 S
C2337 C2331 1.491 . S
C2337 C2336 1.400 1_655 S
C2337 C2338 1.398 . S
C2338 H2326 0.950 . S
C2338 C2337 1.398 . S
C2338 C2339 1.391 . S
C2339 H2327 0.950 . S
C2339 C2335 1.393 1_655 S
C2339 C2338 1.391 . S
H2340 C2348 0.950 . S
H2341 C2353 0.950 . S
H2342 C2350 0.950 . S
H2343 C2352 0.950 . S
H2344 C2354 0.950 . S
H2345 C2356 0.950 . S
H2346 C2358 0.950 . S
H2347 C2359 0.950 . S
C2348 H2340 0.950 . S
C2348 C2349 1.386 . S
C2348 C2350 1.391 . S
C2349 C2348 1.386 . S
C2349 C2353 1.393 . S
C2350 H2342 0.950 . S
C2350 C2348 1.391 . S
C2350 C2351 1.400 . S
C2351 C2350 1.400 . S
C2351 C2352 1.398 . S
C2351 C2357 1.491 . S
C2352 H2343 0.950 . S
C2352 C2351 1.398 . S
C2352 C2353 1.391 . S
C2353 H2341 0.950 . S
C2353 C2349 1.393 . S
C2353 C2352 1.391 . S
C2354 H2344 0.950 . S
C2354 C2355 1.386 . S
C2354 C2356 1.391 . S
C2355 C2354 1.386 . S
C2355 C2359 1.393 . S
C2356 H2345 0.950 . S
C2356 C2354 1.391 . S
C2356 C2357 1.400 . S
C2357 C2351 1.491 . S
C2357 C2356 1.400 . S
C2357 C2358 1.398 . S
C2358 H2346 0.950 . S
C2358 C2357 1.398 . S
C2358 C2359 1.391 . S
C2359 H2347 0.950 . S
C2359 C2355 1.393 . S
C2359 C2358 1.391 . S
H2360 C2368 0.950 . S
H2361 C2373 0.950 . S
H2362 C2370 0.950 . S
H2363 C2372 0.950 . S
H2364 C2374 0.950 . S
H2365 C2376 0.950 . S
H2366 C2378 0.950 . S
H2367 C2379 0.950 . S
C2368 H2360 0.950 . S
C2368 C2369 1.386 . S
C2368 C2370 1.391 . S
C2369 C2368 1.386 . S
C2369 C2373 1.393 1_545 S
C2370 H2362 0.950 . S
C2370 C2368 1.391 . S
C2370 C2371 1.400 1_545 S
C2371 C2370 1.400 1_565 S
C2371 C2372 1.398 . S
C2371 C2377 1.491 . S
C2372 H2363 0.950 . S
C2372 C2371 1.398 . S
C2372 C2373 1.391 . S
C2373 H2361 0.950 . S
C2373 C2369 1.393 1_565 S
C2373 C2372 1.391 . S
C2374 H2364 0.950 . S
C2374 C2375 1.386 . S
C2374 C2376 1.391 . S
C2375 C2374 1.386 . S
C2375 C2379 1.393 . S
C2376 H2365 0.950 . S
C2376 C2374 1.391 . S
C2376 C2377 1.400 . S
C2377 C2371 1.491 . S
C2377 C2376 1.400 . S
C2377 C2378 1.398 . S
C2378 H2366 0.950 . S
C2378 C2377 1.398 . S
C2378 C2379 1.391 . S
C2379 H2367 0.950 . S
C2379 C2375 1.393 . S
C2379 C2378 1.391 . S
H2380 C2388 0.950 . S
H2381 C2393 0.950 . S
H2382 C2390 0.950 . S
H2383 C2392 0.950 . S
H2384 C2394 0.950 . S
H2385 C2396 0.950 . S
H2386 C2398 0.950 . S
H2387 C2399 0.950 . S
C2388 H2380 0.950 . S
C2388 C2389 1.386 1_455 S
C2388 C2390 1.391 . S
C2389 C2388 1.386 1_655 S
C2389 C2393 1.393 . S
C2390 H2382 0.950 . S
C2390 C2388 1.391 . S
C2390 C2391 1.400 . S
C2391 C2390 1.400 . S
C2391 C2392 1.398 1_455 S
C2391 C2397 1.491 . S
C2392 H2383 0.950 . S
C2392 C2391 1.398 1_655 S
C2392 C2393 1.391 . S
C2393 H2381 0.950 . S
C2393 C2389 1.393 . S
C2393 C2392 1.391 . S
C2394 H2384 0.950 . S
C2394 C2395 1.386 . S
C2394 C2396 1.391 . S
C2395 C2394 1.386 . S
C2395 C2399 1.393 . S
C2396 H2385 0.950 . S
C2396 C2394 1.391 . S
C2396 C2397 1.400 . S
C2397 C2391 1.491 . S
C2397 C2396 1.400 . S
C2397 C2398 1.398 . S
C2398 H2386 0.950 . S
C2398 C2397 1.398 . S
C2398 C2399 1.391 . S
C2399 H2387 0.950 . S
C2399 C2395 1.393 . S
C2399 C2398 1.391 . S
H2400 C2408 0.950 . S
H2401 C2413 0.950 . S
H2402 C2410 0.950 . S
H2403 C2412 0.950 . S
H2404 C2414 0.950 . S
H2405 C2416 0.950 . S
H2406 C2418 0.950 . S
H2407 C2419 0.950 . S
C2408 H2400 0.950 . S
C2408 C2409 1.386 . S
C2408 C2410 1.391 . S
C2409 C2408 1.386 . S
C2409 C2413 1.393 . S
C2410 H2402 0.950 . S
C2410 C2408 1.391 . S
C2410 C2411 1.386 1_655 S
C2411 C2410 1.386 1_455 S
C2411 C2412 1.398 1_455 S
C2411 C2417 1.504 . S
C2412 H2403 0.950 . S
C2412 C2411 1.398 1_655 S
C2412 C2413 1.391 . S
C2413 H2401 0.950 . S
C2413 C2409 1.393 . S
C2413 C2412 1.391 . S
C2414 H2404 0.950 . S
C2414 C2415 1.386 . S
C2414 C2416 1.391 . S
C2415 C2414 1.386 . S
C2415 C2419 1.393 . S
C2416 H2405 0.950 . S
C2416 C2414 1.391 . S
C2416 C2417 1.400 . S
C2417 C2411 1.504 . S
C2417 C2416 1.400 . S
C2417 C2418 1.398 . S
C2418 H2406 0.950 . S
C2418 C2417 1.398 . S
C2418 C2419 1.391 . S
C2419 H2407 0.950 . S
C2419 C2415 1.393 . S
C2419 C2418 1.391 . S
H2420 C2428 0.950 . S
H2421 C2433 0.950 . S
H2422 C2430 0.950 . S
H2423 C2432 0.950 . S
H2424 C2434 0.950 . S
H2425 C2436 0.950 . S
H2426 C2438 0.950 . S
H2427 C2439 0.950 . S
C2428 H2420 0.950 . S
C2428 C2429 1.386 . S
C2428 C2430 1.391 . S
C2429 C2428 1.386 . S
C2429 C2433 1.393 . S
C2430 H2422 0.950 . S
C2430 C2428 1.391 . S
C2430 C2431 1.400 . S
C2431 C2430 1.400 . S
C2431 C2432 1.398 . S
C2431 C2437 1.491 . S
C2432 H2423 0.950 . S
C2432 C2431 1.398 . S
C2432 C2433 1.391 . S
C2433 H2421 0.950 . S
C2433 C2429 1.393 . S
C2433 C2432 1.391 . S
C2434 H2424 0.950 . S
C2434 C2435 1.386 . S
C2434 C2436 1.391 . S
C2435 C2434 1.386 . S
C2435 C2439 1.393 . S
C2436 H2425 0.950 . S
C2436 C2434 1.391 . S
C2436 C2437 1.400 . S
C2437 C2431 1.491 . S
C2437 C2436 1.400 . S
C2437 C2438 1.398 . S
C2438 H2426 0.950 . S
C2438 C2437 1.398 . S
C2438 C2439 1.391 . S
C2439 H2427 0.950 . S
C2439 C2435 1.393 . S
C2439 C2438 1.391 . S
H2440 C2448 0.950 . S
H2441 C2453 0.950 . S
H2442 C2450 0.950 . S
H2443 C2452 0.950 . S
H2444 C2454 0.950 . S
H2445 C2456 0.950 . S
H2446 C2458 0.950 . S
H2447 C2459 0.950 . S
C2448 H2440 0.950 . S
C2448 C2449 1.386 . S
C2448 C2450 1.391 . S
C2449 C2448 1.386 . S
C2449 C2453 1.393 . S
C2450 H2442 0.950 . S
C2450 C2448 1.391 . S
C2450 C2451 1.400 . S
C2451 C2450 1.400 . S
C2451 C2452 1.398 . S
C2451 C2457 1.500 . S
C2452 H2443 0.950 . S
C2452 C2451 1.398 . S
C2452 C2453 1.391 . S
C2453 H2441 0.950 . S
C2453 C2449 1.393 . S
C2453 C2452 1.391 . S
C2454 H2444 0.950 . S
C2454 C2455 1.386 . S
C2454 C2456 1.391 . S
C2455 C2454 1.386 . S
C2455 C2459 1.393 . S
C2456 H2445 0.950 . S
C2456 C2454 1.391 . S
C2456 C2457 1.399 1_545 S
C2457 C2451 1.500 . S
C2457 C2456 1.399 1_565 S
C2457 C2458 1.390 1_565 S
C2458 H2446 0.950 . S
C2458 C2457 1.390 1_545 S
C2458 C2459 1.391 . S
C2459 H2447 0.950 . S
C2459 C2455 1.393 . S
C2459 C2458 1.391 . S
H2460 C2468 0.950 . S
H2461 C2473 0.950 . S
H2462 C2470 0.950 . S
H2463 C2472 0.950 . S
H2464 C2474 0.950 . S
H2465 C2476 0.950 . S
H2466 C2478 0.950 . S
H2467 C2479 0.950 . S
C2468 H2460 0.950 . S
C2468 C2469 1.386 . S
C2468 C2470 1.391 . S
C2469 C2468 1.386 . S
C2469 C2473 1.393 . S
C2470 H2462 0.950 . S
C2470 C2468 1.391 . S
C2470 C2471 1.400 . S
C2471 C2470 1.400 . S
C2471 C2472 1.398 . S
C2471 C2477 1.491 . S
C2472 H2463 0.950 . S
C2472 C2471 1.398 . S
C2472 C2473 1.391 . S
C2473 H2461 0.950 . S
C2473 C2469 1.393 . S
C2473 C2472 1.391 . S
C2474 H2464 0.950 . S
C2474 C2475 1.386 1_455 S
C2474 C2476 1.391 . S
C2475 C2474 1.386 1_655 S
C2475 C2479 1.393 . S
C2476 H2465 0.950 . S
C2476 C2474 1.391 . S
C2476 C2477 1.400 . S
C2477 C2471 1.491 . S
C2477 C2476 1.400 . S
C2477 C2478 1.398 . S
C2478 H2466 0.950 . S
C2478 C2477 1.398 . S
C2478 C2479 1.391 1_455 S
C2479 H2467 0.950 . S
C2479 C2475 1.393 . S
C2479 C2478 1.391 1_655 S
H2480 C2488 0.950 . S
H2481 C2493 0.950 . S
H2482 C2490 0.950 . S
H2483 C2492 0.950 . S
H2484 C2494 0.950 . S
H2485 C2496 0.950 . S
H2486 C2498 0.950 . S
H2487 C2499 0.950 . S
C2488 H2480 0.950 . S
C2488 C2489 1.386 . S
C2488 C2490 1.391 . S
C2489 C2488 1.386 . S
C2489 C2493 1.393 . S
C2490 H2482 0.950 . S
C2490 C2488 1.391 . S
C2490 C2491 1.400 . S
C2491 C2490 1.400 . S
C2491 C2492 1.398 . S
C2491 C2497 1.491 . S
C2492 H2483 0.950 . S
C2492 C2491 1.398 . S
C2492 C2493 1.391 . S
C2493 H2481 0.950 . S
C2493 C2489 1.393 . S
C2493 C2492 1.391 . S
C2494 H2484 0.950 . S
C2494 C2495 1.386 . S
C2494 C2496 1.391 . S
C2495 C2494 1.386 . S
C2495 C2499 1.393 . S
C2496 H2485 0.950 . S
C2496 C2494 1.391 . S
C2496 C2497 1.400 . S
C2497 C2491 1.491 . S
C2497 C2496 1.400 . S
C2497 C2498 1.398 . S
C2498 H2486 0.950 . S
C2498 C2497 1.398 . S
C2498 C2499 1.391 . S
C2499 H2487 0.950 . S
C2499 C2495 1.393 . S
C2499 C2498 1.391 . S
H2500 C2508 0.950 . S
H2501 C2513 0.950 . S
H2502 C2510 0.950 . S
H2503 C2512 0.950 . S
H2504 C2514 0.950 . S
H2505 C2516 0.950 1_545 S
H2506 C2518 0.950 . S
H2507 C2519 0.950 . S
C2508 H2500 0.950 . S
C2508 C2509 1.386 . S
C2508 C2510 1.391 . S
C2509 C2508 1.386 . S
C2509 C2513 1.393 . S
C2510 H2502 0.950 . S
C2510 C2508 1.391 . S
C2510 C2511 1.400 . S
C2511 C2510 1.400 . S
C2511 C2512 1.398 . S
C2511 C2517 1.491 . S
C2512 H2503 0.950 . S
C2512 C2511 1.398 . S
C2512 C2513 1.391 . S
C2513 H2501 0.950 . S
C2513 C2509 1.393 . S
C2513 C2512 1.391 . S
C2514 H2504 0.950 . S
C2514 C2515 1.386 . S
C2514 C2516 1.391 1_545 S
C2515 C2514 1.386 . S
C2515 C2519 1.393 1_545 S
C2516 H2505 0.950 1_565 S
C2516 C2514 1.391 1_565 S
C2516 C2517 1.400 . S
C2517 C2511 1.491 . S
C2517 C2516 1.400 . S
C2517 C2518 1.398 . S
C2518 H2506 0.950 . S
C2518 C2517 1.398 . S
C2518 C2519 1.391 . S
C2519 H2507 0.950 . S
C2519 C2515 1.393 1_565 S
C2519 C2518 1.391 . S
H2520 C2528 0.950 . S
H2521 C2533 0.950 . S
H2522 C2530 0.950 . S
H2523 C2532 0.950 . S
H2524 C2534 0.950 . S
H2525 C2536 0.950 . S
H2526 C2538 0.950 . S
H2527 C2539 0.950 . S
C2528 H2520 0.950 . S
C2528 C2529 1.386 . S
C2528 C2530 1.391 . S
C2529 C2528 1.386 . S
C2529 C2533 1.393 . S
C2530 H2522 0.950 . S
C2530 C2528 1.391 . S
C2530 C2531 1.400 . S
C2531 C2530 1.400 . S
C2531 C2532 1.398 . S
C2531 C2537 1.491 . S
C2532 H2523 0.950 . S
C2532 C2531 1.398 . S
C2532 C2533 1.391 . S
C2533 H2521 0.950 . S
C2533 C2529 1.393 . S
C2533 C2532 1.391 . S
C2534 H2524 0.950 . S
C2534 C2535 1.386 1_565 S
C2534 C2536 1.391 . S
C2535 C2534 1.386 1_545 S
C2535 C2539 1.393 . S
C2536 H2525 0.950 . S
C2536 C2534 1.391 . S
C2536 C2537 1.400 . S
C2537 C2531 1.491 . S
C2537 C2536 1.400 . S
C2537 C2538 1.398 1_565 S
C2538 H2526 0.950 . S
C2538 C2537 1.398 1_545 S
C2538 C2539 1.391 . S
C2539 H2527 0.950 . S
C2539 C2535 1.393 . S
C2539 C2538 1.391 . S
H2540 C2548 0.950 . S
H2541 C2553 0.950 . S
H2542 C2550 0.950 . S
H2543 C2552 0.950 . S
H2544 C2554 0.950 . S
H2545 C2556 0.950 . S
H2546 C2558 0.950 . S
H2547 C2559 0.950 . S
C2548 H2540 0.950 . S
C2548 C2549 1.386 . S
C2548 C2550 1.391 . S
C2549 C2548 1.386 . S
C2549 C2553 1.393 1_655 S
C2550 H2542 0.950 . S
C2550 C2548 1.391 . S
C2550 C2551 1.400 1_655 S
C2551 C2550 1.400 1_455 S
C2551 C2552 1.398 . S
C2551 C2557 1.491 . S
C2552 H2543 0.950 . S
C2552 C2551 1.398 . S
C2552 C2553 1.391 . S
C2553 H2541 0.950 . S
C2553 C2549 1.393 1_455 S
C2553 C2552 1.391 . S
C2554 H2544 0.950 . S
C2554 C2555 1.386 . S
C2554 C2556 1.391 . S
C2555 C2554 1.386 . S
C2555 C2559 1.393 . S
C2556 H2545 0.950 . S
C2556 C2554 1.391 . S
C2556 C2557 1.400 . S
C2557 C2551 1.491 . S
C2557 C2556 1.400 . S
C2557 C2558 1.398 . S
C2558 H2546 0.950 . S
C2558 C2557 1.398 . S
C2558 C2559 1.391 . S
C2559 H2547 0.950 . S
C2559 C2555 1.393 . S
C2559 C2558 1.391 . S
H2560 C2568 0.950 . S
H2561 C2573 0.950 . S
H2562 C2570 0.950 . S
H2563 C2572 0.950 . S
H2564 C2574 0.950 . S
H2565 C2576 0.950 . S
H2566 C2578 0.950 . S
H2567 C2579 0.950 . S
C2568 H2560 0.950 . S
C2568 C2569 1.386 . S
C2568 C2570 1.391 . S
C2569 C2568 1.386 . S
C2569 C2573 1.393 . S
C2570 H2562 0.950 . S
C2570 C2568 1.391 . S
C2570 C2571 1.400 . S
C2571 C2570 1.400 . S
C2571 C2572 1.398 . S
C2571 C2577 1.491 . S
C2572 H2563 0.950 . S
C2572 C2571 1.398 . S
C2572 C2573 1.391 . S
C2573 H2561 0.950 . S
C2573 C2569 1.393 . S
C2573 C2572 1.391 . S
C2574 H2564 0.950 . S
C2574 C2575 1.386 . S
C2574 C2576 1.391 . S
C2575 C2574 1.386 . S
C2575 C2579 1.393 . S
C2576 H2565 0.950 . S
C2576 C2574 1.391 . S
C2576 C2577 1.400 . S
C2577 C2571 1.491 . S
C2577 C2576 1.400 . S
C2577 C2578 1.398 . S
C2578 H2566 0.950 . S
C2578 C2577 1.398 . S
C2578 C2579 1.391 . S
C2579 H2567 0.950 . S
C2579 C2575 1.393 . S
C2579 C2578 1.391 . S
H2580 C2588 0.950 . S
H2581 C2593 0.950 . S
H2582 C2590 0.950 . S
H2583 C2592 0.950 . S
H2584 C2594 0.950 . S
H2585 C2596 0.950 . S
H2586 C2598 0.950 . S
H2587 C2599 0.950 . S
C2588 H2580 0.950 . S
C2588 C2589 1.323 1_556 S
C2588 C2590 1.391 . S
C2589 C2588 1.323 1_554 S
C2589 C2593 1.450 . S
C2590 H2582 0.950 . S
C2590 C2588 1.391 . S
C2590 C2591 1.486 . S
C2591 C2590 1.486 . S
C2591 C2592 1.308 1_556 S
C2591 C2597 1.503 1_565 S
C2592 H2583 0.950 . S
C2592 C2591 1.308 1_554 S
C2592 C2593 1.391 . S
C2593 H2581 0.950 . S
C2593 C2589 1.450 . S
C2593 C2592 1.391 . S
C2594 H2584 0.950 . S
C2594 C2595 1.386 1_554 S
C2594 C2596 1.391 . S
C2595 C2594 1.386 1_556 S
C2595 C2599 1.393 . S
C2596 H2585 0.950 . S
C2596 C2594 1.391 . S
C2596 C2597 1.400 1_554 S
C2597 C2591 1.503 1_545 S
C2597 C2596 1.400 1_556 S
C2597 C2598 1.398 . S
C2598 H2586 0.950 . S
C2598 C2597 1.398 . S
C2598 C2599 1.391 . S
C2599 H2587 0.950 . S
C2599 C2595 1.393 . S
C2599 C2598 1.391 . S
H2600 C2608 0.950 . S
H2601 C2613 0.950 . S
H2602 C2610 0.950 . S
H2603 C2612 0.950 . S
H2604 C2614 0.959 . S
H2605 C2616 1.001 . S
H2606 C2618 0.950 . S
H2607 C2619 0.950 . S
C2608 H2600 0.950 . S
C2608 C2609 1.371 1_556 S
C2608 C2610 1.391 . S
C2609 C2608 1.371 1_554 S
C2609 C2613 1.404 . S
C2610 H2602 0.950 . S
C2610 C2608 1.391 . S
C2610 C2611 1.439 . S
C2611 C2610 1.439 . S
C2611 C2612 1.365 1_556 S
C2611 C2617 1.502 1_455 S
C2612 H2603 0.950 . S
C2612 C2611 1.365 1_554 S
C2612 C2613 1.391 . S
C2613 H2601 0.950 . S
C2613 C2609 1.404 . S
C2613 C2612 1.391 . S
C2614 H2604 0.959 . S
C2614 C2615 1.375 1_554 S
C2614 C2616 1.388 . S
C2615 C2614 1.375 1_556 S
C2615 C2619 1.393 . S
C2616 H2605 1.001 . S
C2616 C2614 1.388 . S
C2616 C2617 1.372 1_554 S
C2617 C2611 1.502 1_655 S
C2617 C2616 1.372 1_556 S
C2617 C2618 1.398 . S
C2618 H2606 0.950 . S
C2618 C2617 1.398 . S
C2618 C2619 1.391 . S
C2619 H2607 0.950 . S
C2619 C2615 1.393 . S
C2619 C2618 1.391 . S
H2620 C2628 0.949 1_554 S
H2621 C2633 0.950 . S
H2622 C2630 0.946 1_554 S
H2623 C2632 0.950 . S
H2624 C2634 0.950 . S
H2625 C2636 0.950 . S
H2626 C2638 0.950 . S
H2627 C2639 0.950 . S
C2628 H2620 0.949 1_556 S
C2628 C2629 1.386 . S
C2628 C2630 1.393 . S
C2629 C2628 1.386 . S
C2629 C2633 1.393 . S
C2630 H2622 0.946 1_556 S
C2630 C2628 1.393 . S
C2630 C2631 1.403 . S
C2631 C2630 1.403 . S
C2631 C2632 1.398 . S
C2631 C2637 1.507 . S
C2632 H2623 0.950 . S
C2632 C2631 1.398 . S
C2632 C2633 1.391 . S
C2633 H2621 0.950 . S
C2633 C2629 1.393 . S
C2633 C2632 1.391 . S
C2634 H2624 0.950 . S
C2634 C2635 1.360 1_556 S
C2634 C2636 1.391 . S
C2635 C2634 1.360 1_554 S
C2635 C2639 1.419 . S
C2636 H2625 0.950 . S
C2636 C2634 1.391 . S
C2636 C2637 1.426 . S
C2637 C2631 1.507 . S
C2637 C2636 1.426 . S
C2637 C2638 1.367 1_556 S
C2638 H2626 0.950 . S
C2638 C2637 1.367 1_554 S
C2638 C2639 1.391 . S
C2639 H2627 0.950 . S
C2639 C2635 1.419 . S
C2639 C2638 1.391 . S
H2640 C2648 0.950 . S
H2641 C2653 0.950 . S
H2642 C2650 0.950 . S
H2643 C2652 0.950 . S
H2644 C2654 0.950 . S
H2645 C2656 0.950 . S
H2646 C2658 0.950 . S
H2647 C2659 0.950 . S
C2648 H2640 0.950 . S
C2648 C2649 1.386 . S
C2648 C2650 1.391 . S
C2649 C2648 1.386 . S
C2649 C2653 1.393 . S
C2650 H2642 0.950 . S
C2650 C2648 1.391 . S
C2650 C2651 1.400 . S
C2651 C2650 1.400 . S
C2651 C2652 1.398 . S
C2651 C2657 1.491 . S
C2652 H2643 0.950 . S
C2652 C2651 1.398 . S
C2652 C2653 1.391 . S
C2653 H2641 0.950 . S
C2653 C2649 1.393 . S
C2653 C2652 1.391 . S
C2654 H2644 0.950 . S
C2654 C2655 1.386 1_545 S
C2654 C2656 1.391 . S
C2655 C2654 1.386 1_565 S
C2655 C2659 1.393 . S
C2656 H2645 0.950 . S
C2656 C2654 1.391 . S
C2656 C2657 1.400 . S
C2657 C2651 1.491 . S
C2657 C2656 1.400 . S
C2657 C2658 1.398 1_545 S
C2658 H2646 0.950 . S
C2658 C2657 1.398 1_565 S
C2658 C2659 1.391 . S
C2659 H2647 0.950 . S
C2659 C2655 1.393 . S
C2659 C2658 1.391 . S
H2660 C2668 0.950 . S
H2661 C2673 0.950 . S
H2662 C2670 0.950 . S
H2663 C2672 0.950 . S
H2664 C2674 0.950 . S
H2665 C2676 0.950 1_455 S
H2666 C2678 0.950 . S
H2667 C2679 0.950 . S
C2668 H2660 0.950 . S
C2668 C2669 1.386 . S
C2668 C2670 1.391 . S
C2669 C2668 1.386 . S
C2669 C2673 1.393 . S
C2670 H2662 0.950 . S
C2670 C2668 1.391 . S
C2670 C2671 1.400 . S
C2671 C2670 1.400 . S
C2671 C2672 1.398 . S
C2671 C2677 1.491 . S
C2672 H2663 0.950 . S
C2672 C2671 1.398 . S
C2672 C2673 1.391 . S
C2673 H2661 0.950 . S
C2673 C2669 1.393 . S
C2673 C2672 1.391 . S
C2674 H2664 0.950 . S
C2674 C2675 1.386 . S
C2674 C2676 1.391 1_455 S
C2675 C2674 1.386 . S
C2675 C2679 1.393 1_455 S
C2676 H2665 0.950 1_655 S
C2676 C2674 1.391 1_655 S
C2676 C2677 1.400 . S
C2677 C2671 1.491 . S
C2677 C2676 1.400 . S
C2677 C2678 1.398 . S
C2678 H2666 0.950 . S
C2678 C2677 1.398 . S
C2678 C2679 1.391 . S
C2679 H2667 0.950 . S
C2679 C2675 1.393 1_655 S
C2679 C2678 1.391 . S
H2680 C2688 0.950 . S
H2681 C2693 0.950 . S
H2682 C2690 0.950 . S
H2683 C2692 0.950 . S
H2684 C2694 0.950 . S
H2685 C2696 0.950 . S
H2686 C2698 0.950 . S
H2687 C2699 0.950 . S
C2688 H2680 0.950 . S
C2688 C2689 1.386 . S
C2688 C2690 1.391 . S
C2689 C2688 1.386 . S
C2689 C2693 1.393 . S
C2690 H2682 0.950 . S
C2690 C2688 1.391 . S
C2690 C2691 1.400 . S
C2691 C2690 1.400 . S
C2691 C2692 1.398 . S
C2691 C2697 1.491 . S
C2692 H2683 0.950 . S
C2692 C2691 1.398 . S
C2692 C2693 1.391 . S
C2693 H2681 0.950 . S
C2693 C2689 1.393 . S
C2693 C2692 1.391 . S
C2694 H2684 0.950 . S
C2694 C2695 1.386 . S
C2694 C2696 1.391 . S
C2695 C2694 1.386 . S
C2695 C2699 1.393 . S
C2696 H2685 0.950 . S
C2696 C2694 1.391 . S
C2696 C2697 1.400 . S
C2697 C2691 1.491 . S
C2697 C2696 1.400 . S
C2697 C2698 1.398 . S
C2698 H2686 0.950 . S
C2698 C2697 1.398 . S
C2698 C2699 1.391 . S
C2699 H2687 0.950 . S
C2699 C2695 1.393 . S
C2699 C2698 1.391 . S
H2700 C2708 0.950 . S
H2701 C2713 0.950 . S
H2702 C2710 0.950 . S
H2703 C2712 0.950 . S
H2704 C2714 0.950 . S
H2705 C2716 0.950 . S
H2706 C2718 0.950 . S
H2707 C2719 0.950 . S
C2708 H2700 0.950 . S
C2708 C2709 1.386 . S
C2708 C2710 1.391 . S
C2709 C2708 1.386 . S
C2709 C2713 1.393 1_554 S
C2710 H2702 0.950 . S
C2710 C2708 1.391 . S
C2710 C2711 1.400 . S
C2711 C2710 1.400 . S
C2711 C2712 1.398 1_554 S
C2711 C2717 1.508 1_565 S
C2712 H2703 0.950 . S
C2712 C2711 1.398 1_556 S
C2712 C2713 1.391 . S
C2713 H2701 0.950 . S
C2713 C2709 1.393 1_556 S
C2713 C2712 1.391 . S
C2714 H2704 0.950 . S
C2714 C2715 1.432 . S
C2714 C2716 1.391 . S
C2715 C2714 1.432 . S
C2715 C2719 1.343 1_556 S
C2716 H2705 0.950 . S
C2716 C2714 1.391 . S
C2716 C2717 1.281 1_556 S
C2717 C2711 1.508 1_545 S
C2717 C2716 1.281 1_554 S
C2717 C2718 1.510 . S
C2718 H2706 0.950 . S
C2718 C2717 1.510 . S
C2718 C2719 1.391 . S
C2719 H2707 0.950 . S
C2719 C2715 1.343 1_554 S
C2719 C2718 1.391 . S
H2720 C2728 0.950 . S
H2721 C2733 0.950 . S
H2722 C2730 0.950 . S
H2723 C2732 0.950 . S
H2724 C2734 0.950 . S
H2725 C2736 0.950 . S
H2726 C2738 0.950 . S
H2727 C2739 0.950 . S
C2728 H2720 0.950 . S
C2728 C2729 1.349 1_554 S
C2728 C2730 1.391 . S
C2729 C2728 1.349 1_556 S
C2729 C2733 1.426 . S
C2730 H2722 0.950 . S
C2730 C2728 1.391 . S
C2730 C2731 1.472 . S
C2731 C2730 1.472 . S
C2731 C2732 1.327 1_554 S
C2731 C2737 1.502 1_655 S
C2732 H2723 0.950 . S
C2732 C2731 1.327 1_556 S
C2732 C2733 1.391 . S
C2733 H2721 0.950 . S
C2733 C2729 1.426 . S
C2733 C2732 1.391 . S
C2734 H2724 0.950 . S
C2734 C2735 1.386 1_556 S
C2734 C2736 1.391 . S
C2735 C2734 1.386 1_554 S
C2735 C2739 1.393 . S
C2736 H2725 0.950 . S
C2736 C2734 1.391 . S
C2736 C2737 1.400 1_556 S
C2737 C2731 1.502 1_455 S
C2737 C2736 1.400 1_554 S
C2737 C2738 1.398 . S
C2738 H2726 0.950 . S
C2738 C2737 1.398 . S
C2738 C2739 1.391 . S
C2739 H2727 0.950 . S
C2739 C2735 1.393 . S
C2739 C2738 1.391 . S
H2740 C2748 0.950 . S
H2741 C2753 0.950 . S
H2742 C2750 0.929 1_556 S
H2743 C2752 0.950 . S
H2744 C2754 0.975 . S
H2745 C2756 0.950 . S
H2746 C2758 0.950 . S
H2747 C2759 0.950 . S
C2748 H2740 0.950 . S
C2748 C2749 1.386 . S
C2748 C2750 1.408 . S
C2749 C2748 1.386 . S
C2749 C2753 1.393 . S
C2750 H2742 0.929 1_554 S
C2750 C2748 1.408 . S
C2750 C2751 1.419 . S
C2751 C2750 1.419 . S
C2751 C2752 1.398 . S
C2751 C2757 1.507 . S
C2752 H2743 0.950 . S
C2752 C2751 1.398 . S
C2752 C2753 1.391 . S
C2753 H2741 0.950 . S
C2753 C2749 1.393 . S
C2753 C2752 1.391 . S
C2754 H2744 0.975 . S
C2754 C2755 1.358 1_554 S
C2754 C2756 1.411 . S
C2755 C2754 1.358 1_556 S
C2755 C2759 1.411 . S
C2756 H2745 0.950 . S
C2756 C2754 1.411 . S
C2756 C2757 1.417 . S
C2757 C2751 1.507 . S
C2757 C2756 1.417 . S
C2757 C2758 1.376 1_554 S
C2758 H2746 0.950 . S
C2758 C2757 1.376 1_556 S
C2758 C2759 1.391 . S
C2759 H2747 0.950 . S
C2759 C2755 1.411 . S
C2759 C2758 1.391 . S
H2760 C2768 0.950 . S
H2761 C2773 0.950 . S
H2762 C2770 0.950 . S
H2763 C2772 0.950 . S
H2764 C2774 0.950 . S
H2765 C2776 0.950 . S
H2766 C2778 0.950 . S
H2767 C2779 0.950 . S
C2768 H2760 0.950 . S
C2768 C2769 1.386 . S
C2768 C2770 1.391 . S
C2769 C2768 1.386 . S
C2769 C2773 1.393 . S
C2770 H2762 0.950 . S
C2770 C2768 1.391 . S
C2770 C2771 1.391 1_455 S
C2771 C2770 1.391 1_655 S
C2771 C2772 1.399 1_655 S
C2771 C2777 1.499 . S
C2772 H2763 0.950 . S
C2772 C2771 1.399 1_455 S
C2772 C2773 1.391 . S
C2773 H2761 0.950 . S
C2773 C2769 1.393 . S
C2773 C2772 1.391 . S
C2774 H2764 0.950 . S
C2774 C2775 1.386 . S
C2774 C2776 1.391 . S
C2775 C2774 1.386 . S
C2775 C2779 1.393 . S
C2776 H2765 0.950 . S
C2776 C2774 1.391 . S
C2776 C2777 1.400 . S
C2777 C2771 1.499 . S
C2777 C2776 1.400 . S
C2777 C2778 1.398 . S
C2778 H2766 0.950 . S
C2778 C2777 1.398 . S
C2778 C2779 1.391 . S
C2779 H2767 0.950 . S
C2779 C2775 1.393 . S
C2779 C2778 1.391 . S
H2780 C2788 0.950 . S
H2781 C2793 0.950 . S
H2782 C2790 0.950 . S
H2783 C2792 0.950 . S
H2784 C2794 0.950 . S
H2785 C2796 0.950 . S
H2786 C2798 0.950 . S
H2787 C2799 0.950 . S
C2788 H2780 0.950 . S
C2788 C2789 1.386 . S
C2788 C2790 1.391 . S
C2789 C2788 1.386 . S
C2789 C2793 1.393 . S
C2790 H2782 0.950 . S
C2790 C2788 1.391 . S
C2790 C2791 1.400 . S
C2791 C2790 1.400 . S
C2791 C2792 1.398 . S
C2791 C2797 1.491 . S
C2792 H2783 0.950 . S
C2792 C2791 1.398 . S
C2792 C2793 1.391 . S
C2793 H2781 0.950 . S
C2793 C2789 1.393 . S
C2793 C2792 1.391 . S
C2794 H2784 0.950 . S
C2794 C2795 1.386 . S
C2794 C2796 1.391 . S
C2795 C2794 1.386 . S
C2795 C2799 1.393 . S
C2796 H2785 0.950 . S
C2796 C2794 1.391 . S
C2796 C2797 1.400 . S
C2797 C2791 1.491 . S
C2797 C2796 1.400 . S
C2797 C2798 1.398 . S
C2798 H2786 0.950 . S
C2798 C2797 1.398 . S
C2798 C2799 1.391 . S
C2799 H2787 0.950 . S
C2799 C2795 1.393 . S
C2799 C2798 1.391 . S
H2800 C2808 0.950 . S
H2801 C2813 0.950 . S
H2802 C2810 0.950 . S
H2803 C2812 0.950 . S
H2804 C2814 0.950 . S
H2805 C2816 0.950 . S
H2806 C2818 0.950 . S
H2807 C2819 0.950 . S
C2808 H2800 0.950 . S
C2808 C2809 1.386 . S
C2808 C2810 1.391 . S
C2809 C2808 1.386 . S
C2809 C2813 1.393 . S
C2810 H2802 0.950 . S
C2810 C2808 1.391 . S
C2810 C2811 1.391 1_565 S
C2811 C2810 1.391 1_545 S
C2811 C2812 1.395 1_545 S
C2811 C2817 1.502 . S
C2812 H2803 0.950 . S
C2812 C2811 1.395 1_565 S
C2812 C2813 1.391 . S
C2813 H2801 0.950 . S
C2813 C2809 1.393 . S
C2813 C2812 1.391 . S
C2814 H2804 0.950 . S
C2814 C2815 1.386 . S
C2814 C2816 1.391 . S
C2815 C2814 1.386 . S
C2815 C2819 1.393 . S
C2816 H2805 0.950 . S
C2816 C2814 1.391 . S
C2816 C2817 1.400 . S
C2817 C2811 1.502 . S
C2817 C2816 1.400 . S
C2817 C2818 1.398 . S
C2818 H2806 0.950 . S
C2818 C2817 1.398 . S
C2818 C2819 1.391 . S
C2819 H2807 0.950 . S
C2819 C2815 1.393 . S
C2819 C2818 1.391 . S
H2820 C2828 0.950 . S
H2821 C2833 0.950 . S
H2822 C2830 0.950 . S
H2823 C2832 0.950 . S
H2824 C2834 0.950 . S
H2825 C2836 0.950 . S
H2826 C2838 0.950 . S
H2827 C2839 0.950 . S
C2828 H2820 0.950 . S
C2828 C2829 1.386 . S
C2828 C2830 1.391 . S
C2829 C2828 1.386 . S
C2829 C2833 1.393 1_455 S
C2830 H2822 0.950 . S
C2830 C2828 1.391 . S
C2830 C2831 1.400 1_455 S
C2831 C2830 1.400 1_655 S
C2831 C2832 1.398 . S
C2831 C2837 1.491 . S
C2832 H2823 0.950 . S
C2832 C2831 1.398 . S
C2832 C2833 1.391 . S
C2833 H2821 0.950 . S
C2833 C2829 1.393 1_655 S
C2833 C2832 1.391 . S
C2834 H2824 0.950 . S
C2834 C2835 1.386 . S
C2834 C2836 1.391 . S
C2835 C2834 1.386 . S
C2835 C2839 1.393 . S
C2836 H2825 0.950 . S
C2836 C2834 1.391 . S
C2836 C2837 1.400 . S
C2837 C2831 1.491 . S
C2837 C2836 1.400 . S
C2837 C2838 1.398 . S
C2838 H2826 0.950 . S
C2838 C2837 1.398 . S
C2838 C2839 1.391 . S
C2839 H2827 0.950 . S
C2839 C2835 1.393 . S
C2839 C2838 1.391 . S
H2840 C2848 0.950 . S
H2841 C2853 0.950 . S
H2842 C2850 0.950 . S
H2843 C2852 0.950 . S
H2844 C2854 0.950 . S
H2845 C2856 0.950 . S
H2846 C2858 0.950 . S
H2847 C2859 0.950 . S
C2848 H2840 0.950 . S
C2848 C2849 1.386 . S
C2848 C2850 1.391 . S
C2849 C2848 1.386 . S
C2849 C2853 1.393 . S
C2850 H2842 0.950 . S
C2850 C2848 1.391 . S
C2850 C2851 1.400 . S
C2851 C2850 1.400 . S
C2851 C2852 1.398 . S
C2851 C2857 1.491 . S
C2852 H2843 0.950 . S
C2852 C2851 1.398 . S
C2852 C2853 1.391 . S
C2853 H2841 0.950 . S
C2853 C2849 1.393 . S
C2853 C2852 1.391 . S
C2854 H2844 0.950 . S
C2854 C2855 1.386 . S
C2854 C2856 1.391 . S
C2855 C2854 1.386 . S
C2855 C2859 1.393 . S
C2856 H2845 0.950 . S
C2856 C2854 1.391 . S
C2856 C2857 1.400 . S
C2857 C2851 1.491 . S
C2857 C2856 1.400 . S
C2857 C2858 1.398 . S
C2858 H2846 0.950 . S
C2858 C2857 1.398 . S
C2858 C2859 1.391 . S
C2859 H2847 0.950 . S
C2859 C2855 1.393 . S
C2859 C2858 1.391 . S
H2860 C2868 0.950 . S
H2861 C2873 0.950 . S
H2862 C2870 0.950 . S
H2863 C2872 0.950 . S
H2864 C2874 0.950 . S
H2865 C2876 0.950 . S
H2866 C2878 0.950 . S
H2867 C2879 0.950 . S
C2868 H2860 0.950 . S
C2868 C2869 1.386 . S
C2868 C2870 1.391 . S
C2869 C2868 1.386 . S
C2869 C2873 1.393 . S
C2870 H2862 0.950 . S
C2870 C2868 1.391 . S
C2870 C2871 1.400 . S
C2871 C2870 1.400 . S
C2871 C2872 1.398 . S
C2871 C2877 1.491 . S
C2872 H2863 0.950 . S
C2872 C2871 1.398 . S
C2872 C2873 1.391 . S
C2873 H2861 0.950 . S
C2873 C2869 1.393 . S
C2873 C2872 1.391 . S
C2874 H2864 0.950 . S
C2874 C2875 1.386 1_545 S
C2874 C2876 1.391 . S
C2875 C2874 1.386 1_565 S
C2875 C2879 1.393 . S
C2876 H2865 0.950 . S
C2876 C2874 1.391 . S
C2876 C2877 1.400 . S
C2877 C2871 1.491 . S
C2877 C2876 1.400 . S
C2877 C2878 1.398 . S
C2878 H2866 0.950 . S
C2878 C2877 1.398 . S
C2878 C2879 1.391 1_545 S
C2879 H2867 0.950 . S
C2879 C2875 1.393 . S
C2879 C2878 1.391 1_565 S
H2880 C2888 0.950 . S
H2881 C2893 0.950 . S
H2882 C2890 0.950 . S
H2883 C2892 0.950 . S
H2884 C2894 0.950 . S
H2885 C2896 0.950 . S
H2886 C2898 0.950 . S
H2887 C2899 0.950 . S
C2888 H2880 0.950 . S
C2888 C2889 1.386 . S
C2888 C2890 1.391 . S
C2889 C2888 1.386 . S
C2889 C2893 1.393 . S
C2890 H2882 0.950 . S
C2890 C2888 1.391 . S
C2890 C2891 1.400 . S
C2891 C2890 1.400 . S
C2891 C2892 1.398 . S
C2891 C2897 1.491 . S
C2892 H2883 0.950 . S
C2892 C2891 1.398 . S
C2892 C2893 1.391 . S
C2893 H2881 0.950 . S
C2893 C2889 1.393 . S
C2893 C2892 1.391 . S
C2894 H2884 0.950 . S
C2894 C2895 1.386 . S
C2894 C2896 1.391 . S
C2895 C2894 1.386 . S
C2895 C2899 1.393 . S
C2896 H2885 0.950 . S
C2896 C2894 1.391 . S
C2896 C2897 1.400 . S
C2897 C2891 1.491 . S
C2897 C2896 1.400 . S
C2897 C2898 1.398 . S
C2898 H2886 0.950 . S
C2898 C2897 1.398 . S
C2898 C2899 1.391 . S
C2899 H2887 0.950 . S
C2899 C2895 1.393 . S
C2899 C2898 1.391 . S
H2900 C2908 0.950 . S
H2901 C2913 0.950 . S
H2902 C2910 0.950 . S
H2903 C2912 0.950 . S
H2904 C2914 0.950 . S
H2905 C2916 0.950 . S
H2906 C2918 0.950 . S
H2907 C2919 0.950 . S
C2908 H2900 0.950 . S
C2908 C2909 1.386 . S
C2908 C2910 1.391 . S
C2909 C2908 1.386 . S
C2909 C2913 1.393 . S
C2910 H2902 0.950 . S
C2910 C2908 1.391 . S
C2910 C2911 1.400 . S
C2911 C2910 1.400 . S
C2911 C2912 1.398 . S
C2911 C2917 1.491 . S
C2912 H2903 0.950 . S
C2912 C2911 1.398 . S
C2912 C2913 1.391 . S
C2913 H2901 0.950 . S
C2913 C2909 1.393 . S
C2913 C2912 1.391 . S
C2914 H2904 0.950 . S
C2914 C2915 1.386 . S
C2914 C2916 1.391 . S
C2915 C2914 1.386 . S
C2915 C2919 1.393 . S
C2916 H2905 0.950 . S
C2916 C2914 1.391 . S
C2916 C2917 1.400 . S
C2917 C2911 1.491 . S
C2917 C2916 1.400 . S
C2917 C2918 1.398 . S
C2918 H2906 0.950 . S
C2918 C2917 1.398 . S
C2918 C2919 1.391 . S
C2919 H2907 0.950 . S
C2919 C2915 1.393 . S
C2919 C2918 1.391 . S
H2920 C2928 0.950 . S
H2921 C2933 0.950 . S
H2922 C2930 0.950 . S
H2923 C2932 0.950 . S
H2924 C2934 0.950 . S
H2925 C2936 0.950 . S
H2926 C2938 0.950 . S
H2927 C2939 0.950 . S
C2928 H2920 0.950 . S
C2928 C2929 1.386 . S
C2928 C2930 1.391 . S
C2929 C2928 1.386 . S
C2929 C2933 1.393 . S
C2930 H2922 0.950 . S
C2930 C2928 1.391 . S
C2930 C2931 1.400 . S
C2931 C2930 1.400 . S
C2931 C2932 1.398 . S
C2931 C2937 1.491 . S
C2932 H2923 0.950 . S
C2932 C2931 1.398 . S
C2932 C2933 1.391 . S
C2933 H2921 0.950 . S
C2933 C2929 1.393 . S
C2933 C2932 1.391 . S
C2934 H2924 0.950 . S
C2934 C2935 1.386 . S
C2934 C2936 1.391 . S
C2935 C2934 1.386 . S
C2935 C2939 1.393 . S
C2936 H2925 0.950 . S
C2936 C2934 1.391 . S
C2936 C2937 1.400 . S
C2937 C2931 1.491 . S
C2937 C2936 1.400 . S
C2937 C2938 1.398 . S
C2938 H2926 0.950 . S
C2938 C2937 1.398 . S
C2938 C2939 1.391 . S
C2939 H2927 0.950 . S
C2939 C2935 1.393 . S
C2939 C2938 1.391 . S
H2940 C2948 0.950 . S
H2941 C2953 0.950 . S
H2942 C2950 0.950 . S
H2943 C2952 0.950 . S
H2944 C2954 0.950 . S
H2945 C2956 0.950 . S
H2946 C2958 0.950 . S
H2947 C2959 0.950 . S
C2948 H2940 0.950 . S
C2948 C2949 1.386 . S
C2948 C2950 1.391 . S
C2949 C2948 1.386 . S
C2949 C2953 1.393 . S
C2950 H2942 0.950 . S
C2950 C2948 1.391 . S
C2950 C2951 1.400 . S
C2951 C2950 1.400 . S
C2951 C2952 1.398 . S
C2951 C2957 1.491 . S
C2952 H2943 0.950 . S
C2952 C2951 1.398 . S
C2952 C2953 1.391 . S
C2953 H2941 0.950 . S
C2953 C2949 1.393 . S
C2953 C2952 1.391 . S
C2954 H2944 0.950 . S
C2954 C2955 1.386 . S
C2954 C2956 1.391 . S
C2955 C2954 1.386 . S
C2955 C2959 1.393 . S
C2956 H2945 0.950 . S
C2956 C2954 1.391 . S
C2956 C2957 1.400 . S
C2957 C2951 1.491 . S
C2957 C2956 1.400 . S
C2957 C2958 1.398 . S
C2958 H2946 0.950 . S
C2958 C2957 1.398 . S
C2958 C2959 1.391 . S
C2959 H2947 0.950 . S
C2959 C2955 1.393 . S
C2959 C2958 1.391 . S
H2960 C2968 0.950 . S
H2961 C2973 0.950 . S
H2962 C2970 0.950 . S
H2963 C2972 0.950 . S
H2964 C2974 0.950 . S
H2965 C2976 0.950 . S
H2966 C2978 0.950 . S
H2967 C2979 0.950 . S
C2968 H2960 0.950 . S
C2968 C2969 1.386 . S
C2968 C2970 1.391 . S
C2969 C2968 1.386 . S
C2969 C2973 1.393 . S
C2970 H2962 0.950 . S
C2970 C2968 1.391 . S
C2970 C2971 1.400 . S
C2971 C2970 1.400 . S
C2971 C2972 1.398 . S
C2971 C2977 1.491 . S
C2972 H2963 0.950 . S
C2972 C2971 1.398 . S
C2972 C2973 1.391 . S
C2973 H2961 0.950 . S
C2973 C2969 1.393 . S
C2973 C2972 1.391 . S
C2974 H2964 0.950 . S
C2974 C2975 1.386 . S
C2974 C2976 1.391 . S
C2975 C2974 1.386 . S
C2975 C2979 1.393 . S
C2976 H2965 0.950 . S
C2976 C2974 1.391 . S
C2976 C2977 1.400 . S
C2977 C2971 1.491 . S
C2977 C2976 1.400 . S
C2977 C2978 1.398 . S
C2978 H2966 0.950 . S
C2978 C2977 1.398 . S
C2978 C2979 1.391 . S
C2979 H2967 0.950 . S
C2979 C2975 1.393 . S
C2979 C2978 1.391 . S
H2980 C2988 0.950 . S
H2981 C2993 0.950 . S
H2982 C2990 0.950 . S
H2983 C2992 0.950 . S
H2984 C2994 0.950 . S
H2985 C2996 0.950 . S
H2986 C2998 0.950 . S
H2987 C2999 0.950 . S
C2988 H2980 0.950 . S
C2988 C2989 1.386 . S
C2988 C2990 1.391 . S
C2989 C2988 1.386 . S
C2989 C2993 1.393 . S
C2990 H2982 0.950 . S
C2990 C2988 1.391 . S
C2990 C2991 1.400 . S
C2991 C2990 1.400 . S
C2991 C2992 1.398 . S
C2991 C2997 1.491 . S
C2992 H2983 0.950 . S
C2992 C2991 1.398 . S
C2992 C2993 1.391 . S
C2993 H2981 0.950 . S
C2993 C2989 1.393 . S
C2993 C2992 1.391 . S
C2994 H2984 0.950 . S
C2994 C2995 1.386 . S
C2994 C2996 1.391 . S
C2995 C2994 1.386 . S
C2995 C2999 1.393 . S
C2996 H2985 0.950 . S
C2996 C2994 1.391 . S
C2996 C2997 1.400 . S
C2997 C2991 1.491 . S
C2997 C2996 1.400 . S
C2997 C2998 1.398 . S
C2998 H2986 0.950 . S
C2998 C2997 1.398 . S
C2998 C2999 1.391 . S
C2999 H2987 0.950 . S
C2999 C2995 1.393 . S
C2999 C2998 1.391 . S
H3000 C3008 0.950 . S
H3001 C3013 0.950 . S
H3002 C3010 0.950 . S
H3003 C3012 0.950 . S
H3004 C3014 0.950 . S
H3005 C3016 0.950 . S
H3006 C3018 0.950 . S
H3007 C3019 0.950 . S
C3008 H3000 0.950 . S
C3008 C3009 1.386 . S
C3008 C3010 1.391 . S
C3009 C3008 1.386 . S
C3009 C3013 1.393 . S
C3010 H3002 0.950 . S
C3010 C3008 1.391 . S
C3010 C3011 1.400 . S
C3011 C3010 1.400 . S
C3011 C3012 1.398 . S
C3011 C3017 1.491 . S
C3012 H3003 0.950 . S
C3012 C3011 1.398 . S
C3012 C3013 1.391 . S
C3013 H3001 0.950 . S
C3013 C3009 1.393 . S
C3013 C3012 1.391 . S
C3014 H3004 0.950 . S
C3014 C3015 1.386 . S
C3014 C3016 1.391 . S
C3015 C3014 1.386 . S
C3015 C3019 1.393 . S
C3016 H3005 0.950 . S
C3016 C3014 1.391 . S
C3016 C3017 1.400 . S
C3017 C3011 1.491 . S
C3017 C3016 1.400 . S
C3017 C3018 1.398 . S
C3018 H3006 0.950 . S
C3018 C3017 1.398 . S
C3018 C3019 1.391 . S
C3019 H3007 0.950 . S
C3019 C3015 1.393 . S
C3019 C3018 1.391 . S
H3020 C3028 0.950 . S
H3021 C3033 0.950 . S
H3022 C3030 0.950 . S
H3023 C3032 0.950 . S
H3024 C3034 0.950 . S
H3025 C3036 0.950 . S
H3026 C3038 0.950 . S
H3027 C3039 0.950 . S
C3028 H3020 0.950 . S
C3028 C3029 1.386 . S
C3028 C3030 1.391 . S
C3029 C3028 1.386 . S
C3029 C3033 1.393 . S
C3030 H3022 0.950 . S
C3030 C3028 1.391 . S
C3030 C3031 1.400 . S
C3031 C3030 1.400 . S
C3031 C3032 1.398 . S
C3031 C3037 1.491 . S
C3032 H3023 0.950 . S
C3032 C3031 1.398 . S
C3032 C3033 1.391 . S
C3033 H3021 0.950 . S
C3033 C3029 1.393 . S
C3033 C3032 1.391 . S
C3034 H3024 0.950 . S
C3034 C3035 1.386 . S
C3034 C3036 1.391 . S
C3035 C3034 1.386 . S
C3035 C3039 1.393 . S
C3036 H3025 0.950 . S
C3036 C3034 1.391 . S
C3036 C3037 1.400 . S
C3037 C3031 1.491 . S
C3037 C3036 1.400 . S
C3037 C3038 1.398 . S
C3038 H3026 0.950 . S
C3038 C3037 1.398 . S
C3038 C3039 1.391 . S
C3039 H3027 0.950 . S
C3039 C3035 1.393 . S
C3039 C3038 1.391 . S
H3040 C3048 0.950 . S
H3041 C3053 0.950 . S
H3042 C3050 0.950 . S
H3043 C3052 0.950 . S
H3044 C3054 0.950 . S
H3045 C3056 0.950 . S
H3046 C3058 0.950 . S
H3047 C3059 0.950 . S
C3048 H3040 0.950 . S
C3048 C3049 1.386 . S
C3048 C3050 1.391 . S
C3049 C3048 1.386 . S
C3049 C3053 1.393 . S
C3050 H3042 0.950 . S
C3050 C3048 1.391 . S
C3050 C3051 1.400 . S
C3051 C3050 1.400 . S
C3051 C3052 1.398 . S
C3051 C3057 1.491 . S
C3052 H3043 0.950 . S
C3052 C3051 1.398 . S
C3052 C3053 1.391 . S
C3053 H3041 0.950 . S
C3053 C3049 1.393 . S
C3053 C3052 1.391 . S
C3054 H3044 0.950 . S
C3054 C3055 1.386 . S
C3054 C3056 1.391 . S
C3055 C3054 1.386 . S
C3055 C3059 1.393 . S
C3056 H3045 0.950 . S
C3056 C3054 1.391 . S
C3056 C3057 1.400 . S
C3057 C3051 1.491 . S
C3057 C3056 1.400 . S
C3057 C3058 1.398 . S
C3058 H3046 0.950 . S
C3058 C3057 1.398 . S
C3058 C3059 1.391 . S
C3059 H3047 0.950 . S
C3059 C3055 1.393 . S
C3059 C3058 1.391 . S
H3060 C3068 0.950 . S
H3061 C3073 0.950 . S
H3062 C3070 0.950 . S
H3063 C3072 0.950 . S
H3064 C3074 0.950 . S
H3065 C3076 0.950 . S
H3066 C3078 0.950 . S
H3067 C3079 0.950 . S
C3068 H3060 0.950 . S
C3068 C3069 1.386 . S
C3068 C3070 1.391 . S
C3069 C3068 1.386 . S
C3069 C3073 1.393 . S
C3070 H3062 0.950 . S
C3070 C3068 1.391 . S
C3070 C3071 1.400 . S
C3071 C3070 1.400 . S
C3071 C3072 1.398 . S
C3071 C3077 1.491 . S
C3072 H3063 0.950 . S
C3072 C3071 1.398 . S
C3072 C3073 1.391 . S
C3073 H3061 0.950 . S
C3073 C3069 1.393 . S
C3073 C3072 1.391 . S
C3074 H3064 0.950 . S
C3074 C3075 1.386 . S
C3074 C3076 1.391 . S
C3075 C3074 1.386 . S
C3075 C3079 1.393 . S
C3076 H3065 0.950 . S
C3076 C3074 1.391 . S
C3076 C3077 1.400 . S
C3077 C3071 1.491 . S
C3077 C3076 1.400 . S
C3077 C3078 1.398 . S
C3078 H3066 0.950 . S
C3078 C3077 1.398 . S
C3078 C3079 1.391 . S
C3079 H3067 0.950 . S
C3079 C3075 1.393 . S
C3079 C3078 1.391 . S
H3080 C3088 0.950 . S
H3081 C3093 0.950 . S
H3082 C3090 0.950 . S
H3083 C3092 0.950 . S
H3084 C3094 0.950 . S
H3085 C3096 0.950 . S
H3086 C3098 0.950 . S
H3087 C3099 0.950 . S
C3088 H3080 0.950 . S
C3088 C3089 1.386 . S
C3088 C3090 1.391 . S
C3089 C3088 1.386 . S
C3089 C3093 1.393 . S
C3090 H3082 0.950 . S
C3090 C3088 1.391 . S
C3090 C3091 1.400 . S
C3091 C3090 1.400 . S
C3091 C3092 1.398 . S
C3091 C3097 1.491 . S
C3092 H3083 0.950 . S
C3092 C3091 1.398 . S
C3092 C3093 1.391 . S
C3093 H3081 0.950 . S
C3093 C3089 1.393 . S
C3093 C3092 1.391 . S
C3094 H3084 0.950 . S
C3094 C3095 1.386 . S
C3094 C3096 1.391 . S
C3095 C3094 1.386 . S
C3095 C3099 1.393 . S
C3096 H3085 0.950 . S
C3096 C3094 1.391 . S
C3096 C3097 1.400 . S
C3097 C3091 1.491 . S
C3097 C3096 1.400 . S
C3097 C3098 1.398 . S
C3098 H3086 0.950 . S
C3098 C3097 1.398 . S
C3098 C3099 1.391 . S
C3099 H3087 0.950 . S
C3099 C3095 1.393 . S
C3099 C3098 1.391 . S
H3100 C3108 0.950 . S
H3101 C3113 0.950 . S
H3102 C3110 0.950 . S
H3103 C3112 0.950 . S
H3104 C3114 0.950 . S
H3105 C3116 0.950 . S
H3106 C3118 0.950 . S
H3107 C3119 0.950 . S
C3108 H3100 0.950 . S
C3108 C3109 1.386 . S
C3108 C3110 1.391 . S
C3109 C3108 1.386 . S
C3109 C3113 1.393 . S
C3110 H3102 0.950 . S
C3110 C3108 1.391 . S
C3110 C3111 1.400 . S
C3111 C3110 1.400 . S
C3111 C3112 1.398 . S
C3111 C3117 1.491 . S
C3112 H3103 0.950 . S
C3112 C3111 1.398 . S
C3112 C3113 1.391 . S
C3113 H3101 0.950 . S
C3113 C3109 1.393 . S
C3113 C3112 1.391 . S
C3114 H3104 0.950 . S
C3114 C3115 1.386 . S
C3114 C3116 1.391 . S
C3115 C3114 1.386 . S
C3115 C3119 1.393 . S
C3116 H3105 0.950 . S
C3116 C3114 1.391 . S
C3116 C3117 1.400 . S
C3117 C3111 1.491 . S
C3117 C3116 1.400 . S
C3117 C3118 1.398 . S
C3118 H3106 0.950 . S
C3118 C3117 1.398 . S
C3118 C3119 1.391 . S
C3119 H3107 0.950 . S
C3119 C3115 1.393 . S
C3119 C3118 1.391 . S
H3120 C3128 0.950 . S
H3121 C3133 0.950 . S
H3122 C3130 0.950 . S
H3123 C3132 0.950 . S
H3124 C3134 0.950 1_655 S
H3125 C3136 0.945 . S
H3126 C3138 0.950 . S
H3127 C3139 0.950 . S
C3128 H3120 0.950 . S
C3128 C3129 1.386 1_455 S
C3128 C3130 1.391 . S
C3129 C3128 1.386 1_655 S
C3129 C3133 1.393 . S
C3130 H3122 0.950 . S
C3130 C3128 1.391 . S
C3130 C3131 1.400 . S
C3131 C3130 1.400 . S
C3131 C3132 1.398 1_455 S
C3131 C3137 1.491 . S
C3132 H3123 0.950 . S
C3132 C3131 1.398 1_655 S
C3132 C3133 1.391 . S
C3133 H3121 0.950 . S
C3133 C3129 1.393 . S
C3133 C3132 1.391 . S
C3134 H3124 0.950 1_455 S
C3134 C3135 1.386 . S
C3134 C3136 1.390 1_455 S
C3135 C3134 1.386 . S
C3135 C3139 1.393 . S
C3136 H3125 0.945 . S
C3136 C3134 1.390 1_655 S
C3136 C3137 1.406 1_655 S
C3137 C3131 1.491 . S
C3137 C3136 1.406 1_455 S
C3137 C3138 1.398 . S
C3138 H3126 0.950 . S
C3138 C3137 1.398 . S
C3138 C3139 1.391 . S
C3139 H3127 0.950 . S
C3139 C3135 1.393 . S
C3139 C3138 1.391 . S
H3140 C3148 0.950 . S
H3141 C3153 0.950 . S
H3142 C3150 0.950 . S
H3143 C3152 0.950 . S
H3144 C3154 0.950 . S
H3145 C3156 0.950 . S
H3146 C3158 0.950 . S
H3147 C3159 0.950 . S
C3148 H3140 0.950 . S
C3148 C3149 1.386 . S
C3148 C3150 1.391 . S
C3149 C3148 1.386 . S
C3149 C3153 1.393 . S
C3150 H3142 0.950 . S
C3150 C3148 1.391 . S
C3150 C3151 1.400 . S
C3151 C3150 1.400 . S
C3151 C3152 1.398 . S
C3151 C3157 1.491 . S
C3152 H3143 0.950 . S
C3152 C3151 1.398 . S
C3152 C3153 1.391 . S
C3153 H3141 0.950 . S
C3153 C3149 1.393 . S
C3153 C3152 1.391 . S
C3154 H3144 0.950 . S
C3154 C3155 1.386 . S
C3154 C3156 1.391 . S
C3155 C3154 1.386 . S
C3155 C3159 1.393 . S
C3156 H3145 0.950 . S
C3156 C3154 1.391 . S
C3156 C3157 1.400 . S
C3157 C3151 1.491 . S
C3157 C3156 1.400 . S
C3157 C3158 1.398 . S
C3158 H3146 0.950 . S
C3158 C3157 1.398 . S
C3158 C3159 1.391 . S
C3159 H3147 0.950 . S
C3159 C3155 1.393 . S
C3159 C3158 1.391 . S
H3160 C3168 0.950 . S
H3161 C3173 0.950 . S
H3162 C3170 0.950 . S
H3163 C3172 0.950 . S
H3164 C3174 0.950 . S
H3165 C3176 0.950 1_545 S
H3166 C3178 0.950 . S
H3167 C3179 0.950 . S
C3168 H3160 0.950 . S
C3168 C3169 1.386 1_565 S
C3168 C3170 1.391 . S
C3169 C3168 1.386 1_545 S
C3169 C3173 1.393 . S
C3170 H3162 0.950 . S
C3170 C3168 1.391 . S
C3170 C3171 1.400 . S
C3171 C3170 1.400 . S
C3171 C3172 1.398 1_565 S
C3171 C3177 1.491 . S
C3172 H3163 0.950 . S
C3172 C3171 1.398 1_545 S
C3172 C3173 1.391 . S
C3173 H3161 0.950 . S
C3173 C3169 1.393 . S
C3173 C3172 1.391 . S
C3174 H3164 0.950 . S
C3174 C3175 1.386 . S
C3174 C3176 1.391 . S
C3175 C3174 1.386 . S
C3175 C3179 1.393 . S
C3176 H3165 0.950 1_565 S
C3176 C3174 1.391 . S
C3176 C3177 1.400 . S
C3177 C3171 1.491 . S
C3177 C3176 1.400 . S
C3177 C3178 1.398 . S
C3178 H3166 0.950 . S
C3178 C3177 1.398 . S
C3178 C3179 1.391 . S
C3179 H3167 0.950 . S
C3179 C3175 1.393 . S
C3179 C3178 1.391 . S
H3180 C3188 0.950 . S
H3181 C3193 0.950 . S
H3182 C3190 0.950 . S
H3183 C3192 0.950 . S
H3184 C3194 0.950 . S
H3185 C3196 0.950 . S
H3186 C3198 0.950 . S
H3187 C3199 0.950 . S
C3188 H3180 0.950 . S
C3188 C3189 1.386 . S
C3188 C3190 1.391 . S
C3189 C3188 1.386 . S
C3189 C3193 1.393 1_545 S
C3190 H3182 0.950 . S
C3190 C3188 1.391 . S
C3190 C3191 1.400 . S
C3191 C3190 1.400 . S
C3191 C3192 1.398 1_545 S
C3191 C3197 1.491 . S
C3192 H3183 0.950 . S
C3192 C3191 1.398 1_565 S
C3192 C3193 1.391 . S
C3193 H3181 0.950 . S
C3193 C3189 1.393 1_565 S
C3193 C3192 1.391 . S
C3194 H3184 0.950 . S
C3194 C3195 1.386 . S
C3194 C3196 1.391 . S
C3195 C3194 1.386 . S
C3195 C3199 1.393 1_565 S
C3196 H3185 0.950 . S
C3196 C3194 1.391 . S
C3196 C3197 1.400 1_565 S
C3197 C3191 1.491 . S
C3197 C3196 1.400 1_545 S
C3197 C3198 1.398 . S
C3198 H3186 0.950 . S
C3198 C3197 1.398 . S
C3198 C3199 1.391 . S
C3199 H3187 0.950 . S
C3199 C3195 1.393 1_545 S
C3199 C3198 1.391 . S
H3200 C3208 0.950 . S
H3201 C3213 0.950 . S
H3202 C3210 0.950 . S
H3203 C3212 0.950 . S
H3204 C3214 0.950 . S
H3205 C3216 0.950 . S
H3206 C3218 0.950 . S
H3207 C3219 0.950 . S
C3208 H3200 0.950 . S
C3208 C3209 1.386 1_655 S
C3208 C3210 1.391 . S
C3209 C3208 1.386 1_455 S
C3209 C3213 1.393 . S
C3210 H3202 0.950 . S
C3210 C3208 1.391 . S
C3210 C3211 1.400 . S
C3211 C3210 1.400 . S
C3211 C3212 1.398 1_655 S
C3211 C3217 1.491 . S
C3212 H3203 0.950 . S
C3212 C3211 1.398 1_455 S
C3212 C3213 1.391 . S
C3213 H3201 0.950 . S
C3213 C3209 1.393 . S
C3213 C3212 1.391 . S
C3214 H3204 0.950 . S
C3214 C3215 1.386 1_455 S
C3214 C3216 1.391 . S
C3215 C3214 1.386 1_655 S
C3215 C3219 1.393 . S
C3216 H3205 0.950 . S
C3216 C3214 1.391 . S
C3216 C3217 1.400 1_455 S
C3217 C3211 1.491 . S
C3217 C3216 1.400 1_655 S
C3217 C3218 1.398 . S
C3218 H3206 0.950 . S
C3218 C3217 1.398 . S
C3218 C3219 1.391 . S
C3219 H3207 0.950 . S
C3219 C3215 1.393 . S
C3219 C3218 1.391 . S
H3220 C3228 0.950 . S
H3221 C3233 0.950 . S
H3222 C3230 0.950 . S
H3223 C3232 0.950 . S
H3224 C3234 0.950 . S
H3225 C3236 0.950 . S
H3226 C3238 0.950 . S
H3227 C3239 0.950 . S
C3228 H3220 0.950 . S
C3228 C3229 1.386 . S
C3228 C3230 1.391 . S
C3229 C3228 1.386 . S
C3229 C3233 1.393 . S
C3230 H3222 0.950 . S
C3230 C3228 1.391 . S
C3230 C3231 1.400 . S
C3231 C3230 1.400 . S
C3231 C3232 1.398 . S
C3231 C3237 1.491 . S
C3232 H3223 0.950 . S
C3232 C3231 1.398 . S
C3232 C3233 1.391 . S
C3233 H3221 0.950 . S
C3233 C3229 1.393 . S
C3233 C3232 1.391 . S
C3234 H3224 0.950 . S
C3234 C3235 1.386 . S
C3234 C3236 1.391 . S
C3235 C3234 1.386 . S
C3235 C3239 1.393 . S
C3236 H3225 0.950 . S
C3236 C3234 1.391 . S
C3236 C3237 1.400 . S
C3237 C3231 1.491 . S
C3237 C3236 1.400 . S
C3237 C3238 1.398 . S
C3238 H3226 0.950 . S
C3238 C3237 1.398 . S
C3238 C3239 1.391 . S
C3239 H3227 0.950 . S
C3239 C3235 1.393 . S
C3239 C3238 1.391 . S
H3240 C3248 0.950 . S
H3241 C3253 0.950 . S
H3242 C3250 0.950 . S
H3243 C3252 0.950 1_455 S
H3244 C3254 0.950 . S
H3245 C3256 0.950 . S
H3246 C3258 0.950 1_655 S
H3247 C3259 0.950 . S
C3248 H3240 0.950 . S
C3248 C3249 1.386 . S
C3248 C3250 1.391 . S
C3249 C3248 1.386 . S
C3249 C3253 1.393 . S
C3250 H3242 0.950 . S
C3250 C3248 1.391 . S
C3250 C3251 1.400 . S
C3251 C3250 1.400 . S
C3251 C3252 1.398 . S
C3251 C3257 1.491 1_655 S
C3252 H3243 0.950 1_655 S
C3252 C3251 1.398 . S
C3252 C3253 1.391 . S
C3253 H3241 0.950 . S
C3253 C3249 1.393 . S
C3253 C3252 1.391 . S
C3254 H3244 0.950 . S
C3254 C3255 1.386 . S
C3254 C3256 1.391 . S
C3255 C3254 1.386 . S
C3255 C3259 1.393 . S
C3256 H3245 0.950 . S
C3256 C3254 1.391 . S
C3256 C3257 1.400 . S
C3257 C3251 1.491 1_455 S
C3257 C3256 1.400 . S
C3257 C3258 1.398 . S
C3258 H3246 0.950 1_455 S
C3258 C3257 1.398 . S
C3258 C3259 1.391 . S
C3259 H3247 0.950 . S
C3259 C3255 1.393 . S
C3259 C3258 1.391 . S
H3260 C3268 0.950 . S
H3261 C3273 0.950 . S
H3262 C3270 0.950 . S
H3263 C3272 0.950 . S
H3264 C3274 0.950 . S
H3265 C3276 0.950 . S
H3266 C3278 0.950 . S
H3267 C3279 0.950 . S
C3268 H3260 0.950 . S
C3268 C3269 1.386 . S
C3268 C3270 1.391 . S
C3269 C3268 1.386 . S
C3269 C3273 1.393 . S
C3270 H3262 0.950 . S
C3270 C3268 1.391 . S
C3270 C3271 1.400 . S
C3271 C3270 1.400 . S
C3271 C3272 1.398 . S
C3271 C3277 1.491 . S
C3272 H3263 0.950 . S
C3272 C3271 1.398 . S
C3272 C3273 1.391 . S
C3273 H3261 0.950 . S
C3273 C3269 1.393 . S
C3273 C3272 1.391 . S
C3274 H3264 0.950 . S
C3274 C3275 1.386 . S
C3274 C3276 1.391 . S
C3275 C3274 1.386 . S
C3275 C3279 1.393 . S
C3276 H3265 0.950 . S
C3276 C3274 1.391 . S
C3276 C3277 1.400 . S
C3277 C3271 1.491 . S
C3277 C3276 1.400 . S
C3277 C3278 1.398 . S
C3278 H3266 0.950 . S
C3278 C3277 1.398 . S
C3278 C3279 1.391 . S
C3279 H3267 0.950 . S
C3279 C3275 1.393 . S
C3279 C3278 1.391 . S
H3280 C3288 0.950 . S
H3281 C3293 0.950 . S
H3282 C3290 0.950 1_565 S
H3283 C3292 0.950 . S
H3284 C3294 0.950 . S
H3285 C3296 0.950 1_545 S
H3286 C3298 0.950 . S
H3287 C3299 0.950 . S
C3288 H3280 0.950 . S
C3288 C3289 1.386 . S
C3288 C3290 1.391 . S
C3289 C3288 1.386 . S
C3289 C3293 1.393 . S
C3290 H3282 0.950 1_545 S
C3290 C3288 1.391 . S
C3290 C3291 1.400 . S
C3291 C3290 1.400 . S
C3291 C3292 1.398 . S
C3291 C3297 1.491 1_545 S
C3292 H3283 0.950 . S
C3292 C3291 1.398 . S
C3292 C3293 1.391 . S
C3293 H3281 0.950 . S
C3293 C3289 1.393 . S
C3293 C3292 1.391 . S
C3294 H3284 0.950 . S
C3294 C3295 1.386 . S
C3294 C3296 1.391 . S
C3295 C3294 1.386 . S
C3295 C3299 1.393 . S
C3296 H3285 0.950 1_565 S
C3296 C3294 1.391 . S
C3296 C3297 1.400 . S
C3297 C3291 1.491 1_565 S
C3297 C3296 1.400 . S
C3297 C3298 1.398 . S
C3298 H3286 0.950 . S
C3298 C3297 1.398 . S
C3298 C3299 1.391 . S
C3299 H3287 0.950 . S
C3299 C3295 1.393 . S
C3299 C3298 1.391 . S
H3300 C3308 0.950 . S
H3301 C3313 0.950 . S
H3302 C3310 0.950 . S
H3303 C3312 0.950 . S
H3304 C3314 0.950 . S
H3305 C3316 0.950 . S
H3306 C3318 0.950 . S
H3307 C3319 0.950 . S
C3308 H3300 0.950 . S
C3308 C3309 1.386 . S
C3308 C3310 1.391 . S
C3309 C3308 1.386 . S
C3309 C3313 1.393 . S
C3310 H3302 0.950 . S
C3310 C3308 1.391 . S
C3310 C3311 1.400 . S
C3311 C3310 1.400 . S
C3311 C3312 1.398 . S
C3311 C3317 1.491 1_655 S
C3312 H3303 0.950 . S
C3312 C3311 1.398 . S
C3312 C3313 1.391 . S
C3313 H3301 0.950 . S
C3313 C3309 1.393 . S
C3313 C3312 1.391 . S
C3314 H3304 0.950 . S
C3314 C3315 1.386 . S
C3314 C3316 1.391 . S
C3315 C3314 1.386 . S
C3315 C3319 1.393 . S
C3316 H3305 0.950 . S
C3316 C3314 1.391 . S
C3316 C3317 1.400 . S
C3317 C3311 1.491 1_455 S
C3317 C3316 1.400 . S
C3317 C3318 1.398 . S
C3318 H3306 0.950 . S
C3318 C3317 1.398 . S
C3318 C3319 1.391 . S
C3319 H3307 0.950 . S
C3319 C3315 1.393 . S
C3319 C3318 1.391 . S
H3320 C3328 0.950 . S
H3321 C3333 0.950 . S
H3322 C3330 0.950 . S
H3323 C3332 0.950 . S
H3324 C3334 0.950 . S
H3325 C3336 0.950 . S
H3326 C3338 0.950 . S
H3327 C3339 0.950 . S
C3328 H3320 0.950 . S
C3328 C3329 1.386 . S
C3328 C3330 1.391 . S
C3329 C3328 1.386 . S
C3329 C3333 1.393 . S
C3330 H3322 0.950 . S
C3330 C3328 1.391 . S
C3330 C3331 1.400 . S
C3331 C3330 1.400 . S
C3331 C3332 1.398 . S
C3331 C3337 1.491 . S
C3332 H3323 0.950 . S
C3332 C3331 1.398 . S
C3332 C3333 1.391 . S
C3333 H3321 0.950 . S
C3333 C3329 1.393 . S
C3333 C3332 1.391 . S
C3334 H3324 0.950 . S
C3334 C3335 1.386 . S
C3334 C3336 1.391 . S
C3335 C3334 1.386 . S
C3335 C3339 1.393 . S
C3336 H3325 0.950 . S
C3336 C3334 1.391 . S
C3336 C3337 1.400 . S
C3337 C3331 1.491 . S
C3337 C3336 1.400 . S
C3337 C3338 1.398 . S
C3338 H3326 0.950 . S
C3338 C3337 1.398 . S
C3338 C3339 1.391 . S
C3339 H3327 0.950 . S
C3339 C3335 1.393 . S
C3339 C3338 1.391 . S
H3340 C3348 0.950 . S
H3341 C3353 0.950 . S
H3342 C3350 0.944 1_565 S
H3343 C3352 0.950 . S
H3344 C3354 0.950 . S
H3345 C3356 0.939 1_545 S
H3346 C3358 0.950 . S
H3347 C3359 0.950 . S
C3348 H3340 0.950 . S
C3348 C3349 1.386 . S
C3348 C3350 1.394 . S
C3349 C3348 1.386 . S
C3349 C3353 1.393 . S
C3350 H3342 0.944 1_545 S
C3350 C3348 1.394 . S
C3350 C3351 1.404 . S
C3351 C3350 1.404 . S
C3351 C3352 1.398 . S
C3351 C3357 1.491 1_545 S
C3352 H3343 0.950 . S
C3352 C3351 1.398 . S
C3352 C3353 1.391 . S
C3353 H3341 0.950 . S
C3353 C3349 1.393 . S
C3353 C3352 1.391 . S
C3354 H3344 0.950 . S
C3354 C3355 1.386 . S
C3354 C3356 1.396 . S
C3355 C3354 1.386 . S
C3355 C3359 1.393 . S
C3356 H3345 0.939 1_565 S
C3356 C3354 1.396 . S
C3356 C3357 1.407 . S
C3357 C3351 1.491 1_565 S
C3357 C3356 1.407 . S
C3357 C3358 1.398 . S
C3358 H3346 0.950 . S
C3358 C3357 1.398 . S
C3358 C3359 1.391 . S
C3359 H3347 0.950 . S
C3359 C3355 1.393 . S
C3359 C3358 1.391 . S
H3360 C3368 0.950 . S
H3361 C3373 0.950 . S
H3362 C3370 0.950 . S
H3363 C3372 0.950 . S
H3364 C3374 0.950 . S
H3365 C3376 0.950 . S
H3366 C3378 0.950 . S
H3367 C3379 0.950 . S
C3368 H3360 0.950 . S
C3368 C3369 1.386 . S
C3368 C3370 1.391 . S
C3369 C3368 1.386 . S
C3369 C3373 1.393 . S
C3370 H3362 0.950 . S
C3370 C3368 1.391 . S
C3370 C3371 1.400 . S
C3371 C3370 1.400 . S
C3371 C3372 1.398 . S
C3371 C3377 1.491 . S
C3372 H3363 0.950 . S
C3372 C3371 1.398 . S
C3372 C3373 1.391 . S
C3373 H3361 0.950 . S
C3373 C3369 1.393 . S
C3373 C3372 1.391 . S
C3374 H3364 0.950 . S
C3374 C3375 1.386 . S
C3374 C3376 1.391 . S
C3375 C3374 1.386 . S
C3375 C3379 1.393 . S
C3376 H3365 0.950 . S
C3376 C3374 1.391 . S
C3376 C3377 1.400 . S
C3377 C3371 1.491 . S
C3377 C3376 1.400 . S
C3377 C3378 1.398 . S
C3378 H3366 0.950 . S
C3378 C3377 1.398 . S
C3378 C3379 1.391 . S
C3379 H3367 0.950 . S
C3379 C3375 1.393 . S
C3379 C3378 1.391 . S
H3380 C3388 0.950 . S
H3381 C3393 0.950 . S
H3382 C3390 0.950 . S
H3383 C3392 0.950 . S
H3384 C3394 0.950 . S
H3385 C3396 0.950 . S
H3386 C3398 0.950 . S
H3387 C3399 0.950 . S
C3388 H3380 0.950 . S
C3388 C3389 1.386 . S
C3388 C3390 1.391 . S
C3389 C3388 1.386 . S
C3389 C3393 1.393 . S
C3390 H3382 0.950 . S
C3390 C3388 1.391 . S
C3390 C3391 1.400 . S
C3391 C3390 1.400 . S
C3391 C3392 1.398 . S
C3391 C3397 1.491 . S
C3392 H3383 0.950 . S
C3392 C3391 1.398 . S
C3392 C3393 1.391 . S
C3393 H3381 0.950 . S
C3393 C3389 1.393 . S
C3393 C3392 1.391 . S
C3394 H3384 0.950 . S
C3394 C3395 1.386 . S
C3394 C3396 1.391 . S
C3395 C3394 1.386 . S
C3395 C3399 1.393 . S
C3396 H3385 0.950 . S
C3396 C3394 1.391 . S
C3396 C3397 1.400 . S
C3397 C3391 1.491 . S
C3397 C3396 1.400 . S
C3397 C3398 1.398 . S
C3398 H3386 0.950 . S
C3398 C3397 1.398 . S
C3398 C3399 1.391 . S
C3399 H3387 0.950 . S
C3399 C3395 1.393 . S
C3399 C3398 1.391 . S
H3400 C3408 0.950 . S
H3401 C3413 0.950 . S
H3402 C3410 0.950 . S
H3403 C3412 0.950 . S
H3404 C3414 0.950 . S
H3405 C3416 0.950 . S
H3406 C3418 0.950 . S
H3407 C3419 0.950 . S
C3408 H3400 0.950 . S
C3408 C3409 1.386 . S
C3408 C3410 1.391 . S
C3409 C3408 1.386 . S
C3409 C3413 1.393 . S
C3410 H3402 0.950 . S
C3410 C3408 1.391 . S
C3410 C3411 1.400 . S
C3411 C3410 1.400 . S
C3411 C3412 1.398 . S
C3411 C3417 1.491 . S
C3412 H3403 0.950 . S
C3412 C3411 1.398 . S
C3412 C3413 1.391 . S
C3413 H3401 0.950 . S
C3413 C3409 1.393 . S
C3413 C3412 1.391 . S
C3414 H3404 0.950 . S
C3414 C3415 1.386 . S
C3414 C3416 1.391 . S
C3415 C3414 1.386 . S
C3415 C3419 1.393 . S
C3416 H3405 0.950 . S
C3416 C3414 1.391 . S
C3416 C3417 1.400 . S
C3417 C3411 1.491 . S
C3417 C3416 1.400 . S
C3417 C3418 1.398 . S
C3418 H3406 0.950 . S
C3418 C3417 1.398 . S
C3418 C3419 1.391 . S
C3419 H3407 0.950 . S
C3419 C3415 1.393 . S
C3419 C3418 1.391 . S
H3420 C3428 0.950 . S
H3421 C3433 0.950 . S
H3422 C3430 0.950 . S
H3423 C3432 0.950 . S
H3424 C3434 0.950 . S
H3425 C3436 0.950 . S
H3426 C3438 0.950 . S
H3427 C3439 0.950 . S
C3428 H3420 0.950 . S
C3428 C3429 1.386 . S
C3428 C3430 1.391 . S
C3429 C3428 1.386 . S
C3429 C3433 1.393 . S
C3430 H3422 0.950 . S
C3430 C3428 1.391 . S
C3430 C3431 1.400 . S
C3431 C3430 1.400 . S
C3431 C3432 1.398 . S
C3431 C3437 1.491 . S
C3432 H3423 0.950 . S
C3432 C3431 1.398 . S
C3432 C3433 1.391 . S
C3433 H3421 0.950 . S
C3433 C3429 1.393 . S
C3433 C3432 1.391 . S
C3434 H3424 0.950 . S
C3434 C3435 1.386 . S
C3434 C3436 1.391 . S
C3435 C3434 1.386 . S
C3435 C3439 1.393 . S
C3436 H3425 0.950 . S
C3436 C3434 1.391 . S
C3436 C3437 1.400 . S
C3437 C3431 1.491 . S
C3437 C3436 1.400 . S
C3437 C3438 1.398 . S
C3438 H3426 0.950 . S
C3438 C3437 1.398 . S
C3438 C3439 1.391 . S
C3439 H3427 0.950 . S
C3439 C3435 1.393 . S
C3439 C3438 1.391 . S
H3440 C3448 0.950 . S
H3441 C3453 0.950 . S
H3442 C3450 0.950 . S
H3443 C3452 0.950 . S
H3444 C3454 0.950 . S
H3445 C3456 0.950 . S
H3446 C3458 0.950 . S
H3447 C3459 0.950 . S
C3448 H3440 0.950 . S
C3448 C3449 1.386 . S
C3448 C3450 1.391 . S
C3449 C3448 1.386 . S
C3449 C3453 1.393 . S
C3450 H3442 0.950 . S
C3450 C3448 1.391 . S
C3450 C3451 1.400 . S
C3451 C3450 1.400 . S
C3451 C3452 1.398 . S
C3451 C3457 1.491 . S
C3452 H3443 0.950 . S
C3452 C3451 1.398 . S
C3452 C3453 1.391 . S
C3453 H3441 0.950 . S
C3453 C3449 1.393 . S
C3453 C3452 1.391 . S
C3454 H3444 0.950 . S
C3454 C3455 1.386 . S
C3454 C3456 1.391 . S
C3455 C3454 1.386 . S
C3455 C3459 1.393 . S
C3456 H3445 0.950 . S
C3456 C3454 1.391 . S
C3456 C3457 1.400 . S
C3457 C3451 1.491 . S
C3457 C3456 1.400 . S
C3457 C3458 1.398 . S
C3458 H3446 0.950 . S
C3458 C3457 1.398 . S
C3458 C3459 1.391 . S
C3459 H3447 0.950 . S
C3459 C3455 1.393 . S
C3459 C3458 1.391 . S
H3460 C3468 0.950 . S
H3461 C3473 0.950 . S
H3462 C3470 0.950 . S
H3463 C3472 0.950 . S
H3464 C3474 0.950 . S
H3465 C3476 0.950 . S
H3466 C3478 0.950 . S
H3467 C3479 0.950 . S
C3468 H3460 0.950 . S
C3468 C3469 1.386 . S
C3468 C3470 1.391 . S
C3469 C3468 1.386 . S
C3469 C3473 1.393 . S
C3470 H3462 0.950 . S
C3470 C3468 1.391 . S
C3470 C3471 1.400 . S
C3471 C3470 1.400 . S
C3471 C3472 1.398 . S
C3471 C3477 1.491 . S
C3472 H3463 0.950 . S
C3472 C3471 1.398 . S
C3472 C3473 1.391 . S
C3473 H3461 0.950 . S
C3473 C3469 1.393 . S
C3473 C3472 1.391 . S
C3474 H3464 0.950 . S
C3474 C3475 1.386 . S
C3474 C3476 1.391 . S
C3475 C3474 1.386 . S
C3475 C3479 1.393 . S
C3476 H3465 0.950 . S
C3476 C3474 1.391 . S
C3476 C3477 1.400 . S
C3477 C3471 1.491 . S
C3477 C3476 1.400 . S
C3477 C3478 1.398 . S
C3478 H3466 0.950 . S
C3478 C3477 1.398 . S
C3478 C3479 1.391 . S
C3479 H3467 0.950 . S
C3479 C3475 1.393 . S
C3479 C3478 1.391 . S
H3480 C3488 0.950 . S
H3481 C3493 0.950 . S
H3482 C3490 0.950 . S
H3483 C3492 0.950 . S
H3484 C3494 0.950 . S
H3485 C3496 0.950 . S
H3486 C3498 0.950 . S
H3487 C3499 0.950 . S
C3488 H3480 0.950 . S
C3488 C3489 1.386 . S
C3488 C3490 1.391 . S
C3489 C3488 1.386 . S
C3489 C3493 1.393 . S
C3490 H3482 0.950 . S
C3490 C3488 1.391 . S
C3490 C3491 1.400 . S
C3491 C3490 1.400 . S
C3491 C3492 1.398 . S
C3491 C3497 1.491 . S
C3492 H3483 0.950 . S
C3492 C3491 1.398 . S
C3492 C3493 1.391 . S
C3493 H3481 0.950 . S
C3493 C3489 1.393 . S
C3493 C3492 1.391 . S
C3494 H3484 0.950 . S
C3494 C3495 1.386 . S
C3494 C3496 1.391 . S
C3495 C3494 1.386 . S
C3495 C3499 1.393 . S
C3496 H3485 0.950 . S
C3496 C3494 1.391 . S
C3496 C3497 1.400 . S
C3497 C3491 1.491 . S
C3497 C3496 1.400 . S
C3497 C3498 1.398 . S
C3498 H3486 0.950 . S
C3498 C3497 1.398 . S
C3498 C3499 1.391 . S
C3499 H3487 0.950 . S
C3499 C3495 1.393 . S
C3499 C3498 1.391 . S
H3500 C3508 0.950 . S
H3501 C3513 0.950 . S
H3502 C3510 0.950 . S
H3503 C3512 0.950 . S
H3504 C3514 0.950 . S
H3505 C3516 0.950 . S
H3506 C3518 0.950 . S
H3507 C3519 0.950 . S
C3508 H3500 0.950 . S
C3508 C3509 1.386 . S
C3508 C3510 1.391 . S
C3509 C3508 1.386 . S
C3509 C3513 1.393 . S
C3510 H3502 0.950 . S
C3510 C3508 1.391 . S
C3510 C3511 1.400 . S
C3511 C3510 1.400 . S
C3511 C3512 1.398 . S
C3511 C3517 1.491 . S
C3512 H3503 0.950 . S
C3512 C3511 1.398 . S
C3512 C3513 1.391 . S
C3513 H3501 0.950 . S
C3513 C3509 1.393 . S
C3513 C3512 1.391 . S
C3514 H3504 0.950 . S
C3514 C3515 1.386 . S
C3514 C3516 1.391 . S
C3515 C3514 1.386 . S
C3515 C3519 1.393 . S
C3516 H3505 0.950 . S
C3516 C3514 1.391 . S
C3516 C3517 1.400 . S
C3517 C3511 1.491 . S
C3517 C3516 1.400 . S
C3517 C3518 1.398 . S
C3518 H3506 0.950 . S
C3518 C3517 1.398 . S
C3518 C3519 1.391 . S
C3519 H3507 0.950 . S
C3519 C3515 1.393 . S
C3519 C3518 1.391 . S
H3520 C3528 0.950 . S
H3521 C3533 0.950 . S
H3522 C3530 0.950 . S
H3523 C3532 0.950 . S
H3524 C3534 0.950 . S
H3525 C3536 0.950 . S
H3526 C3538 0.950 . S
H3527 C3539 0.950 . S
C3528 H3520 0.950 . S
C3528 C3529 1.386 . S
C3528 C3530 1.391 . S
C3529 C3528 1.386 . S
C3529 C3533 1.393 . S
C3530 H3522 0.950 . S
C3530 C3528 1.391 . S
C3530 C3531 1.400 . S
C3531 C3530 1.400 . S
C3531 C3532 1.398 . S
C3531 C3537 1.491 . S
C3532 H3523 0.950 . S
C3532 C3531 1.398 . S
C3532 C3533 1.391 . S
C3533 H3521 0.950 . S
C3533 C3529 1.393 . S
C3533 C3532 1.391 . S
C3534 H3524 0.950 . S
C3534 C3535 1.386 . S
C3534 C3536 1.391 . S
C3535 C3534 1.386 . S
C3535 C3539 1.393 . S
C3536 H3525 0.950 . S
C3536 C3534 1.391 . S
C3536 C3537 1.400 . S
C3537 C3531 1.491 . S
C3537 C3536 1.400 . S
C3537 C3538 1.398 . S
C3538 H3526 0.950 . S
C3538 C3537 1.398 . S
C3538 C3539 1.391 . S
C3539 H3527 0.950 . S
C3539 C3535 1.393 . S
C3539 C3538 1.391 . S
H3540 C3548 0.950 . S
H3541 C3553 0.950 . S
H3542 C3550 0.950 . S
H3543 C3552 0.950 . S
H3544 C3554 0.950 . S
H3545 C3556 0.950 . S
H3546 C3558 0.950 . S
H3547 C3559 0.950 . S
C3548 H3540 0.950 . S
C3548 C3549 1.386 . S
C3548 C3550 1.391 . S
C3549 C3548 1.386 . S
C3549 C3553 1.393 . S
C3550 H3542 0.950 . S
C3550 C3548 1.391 . S
C3550 C3551 1.400 . S
C3551 C3550 1.400 . S
C3551 C3552 1.398 . S
C3551 C3557 1.491 . S
C3552 H3543 0.950 . S
C3552 C3551 1.398 . S
C3552 C3553 1.391 . S
C3553 H3541 0.950 . S
C3553 C3549 1.393 . S
C3553 C3552 1.391 . S
C3554 H3544 0.950 . S
C3554 C3555 1.386 . S
C3554 C3556 1.391 . S
C3555 C3554 1.386 . S
C3555 C3559 1.393 . S
C3556 H3545 0.950 . S
C3556 C3554 1.391 . S
C3556 C3557 1.400 . S
C3557 C3551 1.491 . S
C3557 C3556 1.400 . S
C3557 C3558 1.398 . S
C3558 H3546 0.950 . S
C3558 C3557 1.398 . S
C3558 C3559 1.391 . S
C3559 H3547 0.950 . S
C3559 C3555 1.393 . S
C3559 C3558 1.391 . S
H3560 C3568 0.950 . S
H3561 C3573 0.950 . S
H3562 C3570 0.950 . S
H3563 C3572 0.950 . S
H3564 C3574 0.950 . S
H3565 C3576 0.950 . S
H3566 C3578 0.950 . S
H3567 C3579 0.950 . S
C3568 H3560 0.950 . S
C3568 C3569 1.386 . S
C3568 C3570 1.391 . S
C3569 C3568 1.386 . S
C3569 C3573 1.393 . S
C3570 H3562 0.950 . S
C3570 C3568 1.391 . S
C3570 C3571 1.400 . S
C3571 C3570 1.400 . S
C3571 C3572 1.398 . S
C3571 C3577 1.491 . S
C3572 H3563 0.950 . S
C3572 C3571 1.398 . S
C3572 C3573 1.391 . S
C3573 H3561 0.950 . S
C3573 C3569 1.393 . S
C3573 C3572 1.391 . S
C3574 H3564 0.950 . S
C3574 C3575 1.386 . S
C3574 C3576 1.391 . S
C3575 C3574 1.386 . S
C3575 C3579 1.393 . S
C3576 H3565 0.950 . S
C3576 C3574 1.391 . S
C3576 C3577 1.400 . S
C3577 C3571 1.491 . S
C3577 C3576 1.400 . S
C3577 C3578 1.398 . S
C3578 H3566 0.950 . S
C3578 C3577 1.398 . S
C3578 C3579 1.391 . S
C3579 H3567 0.950 . S
C3579 C3575 1.393 . S
C3579 C3578 1.391 . S
H3580 C3588 0.950 . S
H3581 C3593 0.950 . S
H3582 C3590 0.950 . S
H3583 C3592 0.950 . S
H3584 C3594 0.950 . S
H3585 C3596 0.950 . S
H3586 C3598 0.950 . S
H3587 C3599 0.950 . S
C3588 H3580 0.950 . S
C3588 C3589 1.386 . S
C3588 C3590 1.391 . S
C3589 C3588 1.386 . S
C3589 C3593 1.393 . S
C3590 H3582 0.950 . S
C3590 C3588 1.391 . S
C3590 C3591 1.400 . S
C3591 C3590 1.400 . S
C3591 C3592 1.398 . S
C3591 C3597 1.491 . S
C3592 H3583 0.950 . S
C3592 C3591 1.398 . S
C3592 C3593 1.391 . S
C3593 H3581 0.950 . S
C3593 C3589 1.393 . S
C3593 C3592 1.391 . S
C3594 H3584 0.950 . S
C3594 C3595 1.386 . S
C3594 C3596 1.391 . S
C3595 C3594 1.386 . S
C3595 C3599 1.393 . S
C3596 H3585 0.950 . S
C3596 C3594 1.391 . S
C3596 C3597 1.400 . S
C3597 C3591 1.491 . S
C3597 C3596 1.400 . S
C3597 C3598 1.398 . S
C3598 H3586 0.950 . S
C3598 C3597 1.398 . S
C3598 C3599 1.391 . S
C3599 H3587 0.950 . S
C3599 C3595 1.393 . S
C3599 C3598 1.391 . S
C1449 C18 1.606 . S
C1455 C89 1.718 . S
C1469 C9 1.719 . S
C1475 C58 1.607 1_545 S
C1489 C98 1.621 1_655 S
C1495 C49 1.704 . S
C1509 C138 1.683 . S
C1515 C169 1.783 . S
C1529 C209 1.793 . S
C1535 C178 1.671 1_565 S
C1549 C218 1.692 1_455 S
C1555 C129 1.793 . S
C1569 C248 1.594 . S
C1575 C339 1.713 . S
C1589 C288 1.626 1_565 S
C1595 C259 1.709 . S
C1609 C328 1.615 1_455 S
C1615 C299 1.715 . S
C1629 C368 1.695 . S
C1635 C419 1.781 . S
C1649 C459 1.782 . S
C1655 C408 1.698 1_545 S
C1669 C379 1.792 . S
C1675 C448 1.671 1_655 S
C1689 C569 1.774 . S
C1695 C498 1.689 . S
C1709 C538 1.666 . S
C1715 C489 1.776 . S
C1729 C529 1.781 . S
C1735 C578 1.659 . S
C1749 C618 1.713 . S
C1755 C649 1.802 . S
C1769 C689 1.804 . S
C1775 C658 1.702 . S
C1789 C609 1.812 . S
C1795 C698 1.691 . S
C1809 C728 1.650 . S
C1815 C819 1.752 . S
C1829 C768 1.630 . S
C1835 C739 1.749 . S
C1849 C779 1.740 . S
C1855 C808 1.652 . S
C1869 C899 1.633 . S
C1875 C848 1.550 1_554 S
C1889 C888 1.516 1_554 S
C1895 C939 1.645 . S
C1909 C859 1.632 . S
C1915 C928 1.559 1_554 S
C1929 C978 1.655 . S
C1935 C1049 1.740 . S
C1949 C1018 1.652 . S
C1955 C969 1.741 . S
C1969 C1058 1.645 . S
C1975 C1009 1.741 . S
C1989 C1098 1.567 1_556 S
C1995 C1129 1.636 . S
C2009 C1138 1.566 1_556 S
C2015 C1169 1.633 . S
C2029 C1178 1.557 1_556 S
C2035 C1089 1.632 . S
C2049 C1208 1.689 . S
C2055 C1299 1.776 . S
C2069 C1248 1.677 . S
C2075 C1219 1.784 . S
C2089 C1259 1.771 . S
C2095 C1288 1.681 . S
C2109 C1328 1.706 . S
C2115 C1379 1.803 . S
C2129 C1368 1.709 . S
C2135 C1419 1.814 . S
C2149 C1339 1.806 . S
C2155 C1408 1.721 . S
C2169 C19 1.778 . S
C2175 C818 1.785 . S
C2189 C738 1.787 . S
C2195 C59 1.786 . S
C2209 C99 1.788 . S
C2215 C778 1.786 . S
C2229 C139 1.676 . S
C2235 C1378 1.667 . S
C2249 C1418 1.665 . S
C2255 C179 1.686 . S
C2269 C219 1.692 . S
C2275 C1338 1.672 . S
C2289 C1048 1.787 . S
C2295 C249 1.787 . S
C2309 C289 1.774 . S
C2315 C968 1.776 . S
C2329 C329 1.789 . S
C2335 C1008 1.783 . S
C2349 C648 1.666 . S
C2355 C369 1.676 . S
C2369 C688 1.674 . S
C2375 C409 1.675 . S
C2389 C608 1.679 . S
C2395 C449 1.693 . S
C2409 C499 1.725 . S
C2415 C1298 1.719 . S
C2429 C539 1.738 . S
C2435 C1218 1.735 . S
C2449 C1258 1.736 . S
C2455 C579 1.737 . S
C2469 C418 1.718 . S
C2475 C619 1.716 . S
C2489 C458 1.723 . S
C2495 C659 1.720 . S
C2509 C378 1.705 . S
C2515 C699 1.725 . S
C2529 C88 1.766 . S
C2535 C729 1.771 . S
C2549 C769 1.773 . S
C2555 C8 1.765 . S
C2569 C809 1.776 . S
C2575 C48 1.782 . S
C2589 C1128 1.726 1_554 S
C2595 C849 1.746 . S
C2609 C1168 1.721 1_554 S
C2615 C889 1.746 . S
C2629 C929 1.765 . S
C2635 C1088 1.727 1_554 S
C2649 C338 1.783 . S
C2655 C979 1.776 . S
C2669 C258 1.766 . S
C2675 C1019 1.779 . S
C2689 C298 1.777 . S
C2695 C1059 1.784 . S
C2709 C1099 1.766 . S
C2715 C898 1.722 1_556 S
C2729 C938 1.720 1_556 S
C2735 C1139 1.758 . S
C2749 C1179 1.763 . S
C2755 C858 1.727 1_556 S
C2769 C1209 1.737 . S
C2775 C568 1.736 . S
C2789 C1249 1.728 . S
C2795 C488 1.733 . S
C2809 C1289 1.736 . S
C2815 C528 1.718 . S
C2829 C1329 1.718 . S
C2835 C168 1.705 . S
C2849 C208 1.704 . S
C2855 C1369 1.716 . S
C2869 C128 1.712 . S
C2875 C1409 1.713 . S
C2889 C1175 2.253 . S
C2895 C15 2.241 . S
C2909 C1095 2.242 . S
C2915 C55 2.237 . S
C2929 C95 2.257 . S
C2935 C1135 2.232 . S
C2949 C535 2.480 . S
C2955 C135 2.477 . S
C2969 C175 2.487 . S
C2975 C575 2.489 . S
C2989 C215 2.480 . S
C2995 C495 2.487 . S
C3009 C245 2.255 . S
C3015 C925 2.238 . S
C3029 C285 2.252 . S
C3035 C845 2.226 . S
C3049 C325 2.247 . S
C3055 C885 2.234 . S
C3069 C1245 2.480 . S
C3075 C365 2.484 . S
C3089 C1285 2.489 . S
C3095 C405 2.486 . S
C3109 C1205 2.488 . S
C3115 C445 2.483 . S
C3129 C615 2.531 . S
C3135 C1015 2.533 . S
C3149 C655 2.532 . S
C3155 C1055 2.540 . S
C3169 C695 2.531 . S
C3175 C975 2.534 . S
C3189 C725 2.541 . S
C3195 C1405 2.532 . S
C3209 C1325 2.531 . S
C3215 C765 2.539 . S
C3229 C805 2.534 . S
C3235 C1365 2.530 . S
C3249 C165 1.171 . S
C3255 C5 1.174 . S
C3269 C205 1.177 . S
C3275 C45 1.174 . S
C3289 C125 1.179 . S
C3295 C85 1.176 . S
C3309 C255 1.177 . S
C3315 C415 1.177 . S
C3329 C455 1.168 . S
C3335 C295 1.174 . S
C3349 C335 1.169 . S
C3355 C375 1.177 . S
C3369 C645 1.255 . S
C3375 C485 1.260 . S
C3389 C685 1.254 . S
C3395 C525 1.254 . S
C3409 C605 1.257 . S
C3415 C565 1.254 . S
C3429 C895 1.502 . S
C3435 C735 1.538 . S
C3449 C775 1.521 . S
C3455 C935 1.519 . S
C3469 C815 1.518 . S
C3475 C855 1.524 . S
C3489 C965 1.516 . S
C3495 C1125 1.530 . S
C3509 C1165 1.512 . S
C3515 C1005 1.532 . S
C3529 C1045 1.522 . S
C3535 C1085 1.517 . S
C3549 C1215 1.250 . S
C3555 C1375 1.260 . S
C3569 C1415 1.254 . S
C3575 C1255 1.261 . S
C3589 C1295 1.262 . S
C3595 C1335 1.250 . S
