# Generated by pormake.
# Topology vmg, (6)-cn, num edge types: 1
# Building blocks:
#     Node 0, Type 0, BuildingBlock: VOLQOD_clean_sbu_1, # of connection points: 6
#     Node 1, Type 0, BuildingBlock: VOLQOD_clean_sbu_1, # of connection points: 6
#     Node 2, Type 0, BuildingBlock: VOLQOD_clean_sbu_1, # of connection points: 6
#     Node 3, Type 0, BuildingBlock: VOLQOD_clean_sbu_1, # of connection points: 6
#     Node 4, Type 0, BuildingBlock: VOLQOD_clean_sbu_1, # of connection points: 6
#     Node 5, Type 0, BuildingBlock: VOLQOD_clean_sbu_1, # of connection points: 6
#     Node 6, Type 0, BuildingBlock: VOLQOD_clean_sbu_1, # of connection points: 6
#     Node 7, Type 0, BuildingBlock: VOLQOD_clean_sbu_1, # of connection points: 6
#     Edge 8, Type (0, 0), BuildingBlock: TEMPAE_clean_linker_10, # of connection points: 2
#     Edge 9, Type (0, 0), BuildingBlock: TEMPAE_clean_linker_10, # of connection points: 2
#     Edge 10, Type (0, 0), BuildingBlock: TEMPAE_clean_linker_10, # of connection points: 2
#     Edge 11, Type (0, 0), BuildingBlock: TEMPAE_clean_linker_10, # of connection points: 2
#     Edge 12, Type (0, 0), BuildingBlock: TEMPAE_clean_linker_10, # of connection points: 2
#     Edge 13, Type (0, 0), BuildingBlock: TEMPAE_clean_linker_10, # of connection points: 2
#     Edge 14, Type (0, 0), BuildingBlock: TEMPAE_clean_linker_10, # of connection points: 2
#     Edge 15, Type (0, 0), BuildingBlock: TEMPAE_clean_linker_10, # of connection points: 2
#     Edge 16, Type (0, 0), BuildingBlock: TEMPAE_clean_linker_10, # of connection points: 2
#     Edge 17, Type (0, 0), BuildingBlock: TEMPAE_clean_linker_10, # of connection points: 2
#     Edge 18, Type (0, 0), BuildingBlock: TEMPAE_clean_linker_10, # of connection points: 2
#     Edge 19, Type (0, 0), BuildingBlock: TEMPAE_clean_linker_10, # of connection points: 2
#     Edge 20, Type (0, 0), BuildingBlock: TEMPAE_clean_linker_10, # of connection points: 2
#     Edge 21, Type (0, 0), BuildingBlock: TEMPAE_clean_linker_10, # of connection points: 2
#     Edge 22, Type (0, 0), BuildingBlock: TEMPAE_clean_linker_10, # of connection points: 2
#     Edge 23, Type (0, 0), BuildingBlock: TEMPAE_clean_linker_10, # of connection points: 2
#     Edge 24, Type (0, 0), BuildingBlock: TEMPAE_clean_linker_10, # of connection points: 2
#     Edge 25, Type (0, 0), BuildingBlock: TEMPAE_clean_linker_10, # of connection points: 2
#     Edge 26, Type (0, 0), BuildingBlock: TEMPAE_clean_linker_10, # of connection points: 2
#     Edge 27, Type (0, 0), BuildingBlock: TEMPAE_clean_linker_10, # of connection points: 2
#     Edge 28, Type (0, 0), BuildingBlock: TEMPAE_clean_linker_10, # of connection points: 2
#     Edge 29, Type (0, 0), BuildingBlock: TEMPAE_clean_linker_10, # of connection points: 2
#     Edge 30, Type (0, 0), BuildingBlock: TEMPAE_clean_linker_10, # of connection points: 2
#     Edge 31, Type (0, 0), BuildingBlock: TEMPAE_clean_linker_10, # of connection points: 2
# Relax obj value: 0.364
# Max RMSD: 0.272
# Mean RMSD: 0.272
data_MOF--net-vmg--node1-VOLQOD_clean_sbu_1--edge1-TEMPAE_clean_linker_10
_symmetry_space_group_name_H-M    P1
_symmetry_Int_Tables_number       1
_symmetry_cell_setting            triclinic
loop_
_symmetry_equiv_pos_as_xyz
'x, y, z'
_cell_length_a     29.085961
_cell_length_b     47.81596
_cell_length_c     28.111517
_cell_angle_alpha  90.126433
_cell_angle_beta   97.187774
_cell_angle_gamma 89.995318
loop_
_atom_site_label
_atom_site_type_symbol
_atom_site_fract_x
_atom_site_fract_y
_atom_site_fract_z
_atom_type_partial_charge
O0 O 0.12826 0.43627 0.1076 0.0
Zn1 Zn 0.19567 0.434 0.13295 0.0
O2 O 0.21408 0.39585 0.13098 0.0
Zn3 Zn 0.22597 0.37972 0.19313 0.0
Zn4 Zn 0.168 0.37526 0.09138 0.0
Zn5 Zn 0.27042 0.39368 0.10492 0.0
O6 O 0.28825 0.36 0.20102 0.0
O7 O 0.32158 0.39139 0.15805 0.0
O8 O 0.21071 0.44977 0.20054 0.0
O9 O 0.23335 0.411 0.24056 0.0
O10 O 0.1705 0.35672 0.20638 0.0
O11 O 0.12869 0.35562 0.13436 0.0
O12 O 0.19784 0.3456 0.05404 0.0
O13 O 0.22661 0.45571 0.08414 0.0
O14 O 0.27203 0.35741 0.07114 0.0
O15 O 0.27698 0.42548 0.0601 0.0
C16 C 0.10968 0.42487 0.06876 0.0
C17 C 0.32439 0.3722 0.18963 0.0
C18 C 0.13402 0.34968 0.17884 0.0
C19 C 0.22643 0.43729 0.23936 0.0
C20 C 0.24077 0.34072 0.05265 0.0
C21 C 0.25667 0.44912 0.05668 0.0
O22 O 0.12636 0.40268 0.05213 0.0
O23 O 0.83394 0.45119 0.38001 0.0
Zn24 Zn 0.76793 0.4419 0.3574 0.0
O25 O 0.75936 0.40195 0.35959 0.0
Zn26 Zn 0.74163 0.3866 0.29613 0.0
Zn27 Zn 0.8152 0.38395 0.38977 0.0
Zn28 Zn 0.7103 0.39466 0.3972 0.0
O29 O 0.68269 0.36377 0.29409 0.0
O30 O 0.65352 0.38305 0.3559 0.0
O31 O 0.74847 0.45698 0.29057 0.0
O32 O 0.72703 0.41815 0.24985 0.0
O33 O 0.795 0.36484 0.2737 0.0
O34 O 0.84574 0.36411 0.3399 0.0
O35 O 0.80098 0.35396 0.43608 0.0
O36 O 0.73437 0.46131 0.40676 0.0
O37 O 0.72557 0.36098 0.43615 0.0
O38 O 0.69845 0.42684 0.43986 0.0
C39 C 0.86487 0.43846 0.40798 0.0
C40 C 0.64929 0.36741 0.31891 0.0
C41 C 0.83413 0.35779 0.2961 0.0
C42 C 0.73196 0.44461 0.2519 0.0
C43 C 0.76205 0.3469 0.44858 0.0
C44 C 0.71013 0.45244 0.43834 0.0
O45 O 0.86072 0.4128 0.41904 0.0
O46 O 0.82633 0.53744 0.87452 0.0
Zn47 Zn 0.76303 0.55321 0.85624 0.0
O48 O 0.76494 0.59368 0.86071 0.0
Zn49 Zn 0.74697 0.61081 0.79829 0.0
Zn50 Zn 0.82643 0.60562 0.88679 0.0
Zn51 Zn 0.72283 0.60544 0.90446 0.0
O52 O 0.68849 0.63392 0.79871 0.0
O53 O 0.66545 0.62044 0.86761 0.0
O54 O 0.7392 0.5403 0.78913 0.0
O55 O 0.72991 0.58054 0.7495 0.0
O56 O 0.80078 0.63234 0.77561 0.0
O57 O 0.85613 0.62458 0.83633 0.0
O58 O 0.82475 0.63531 0.93675 0.0
O59 O 0.72751 0.53665 0.90663 0.0
O60 O 0.75006 0.63671 0.94573 0.0
O61 O 0.70753 0.57395 0.94652 0.0
C62 C 0.8628 0.54711 0.8987 0.0
C63 C 0.65788 0.63302 0.82752 0.0
C64 C 0.84248 0.63493 0.79546 0.0
C65 C 0.72801 0.55394 0.75046 0.0
C66 C 0.79111 0.64603 0.95523 0.0
C67 C 0.71035 0.54755 0.94188 0.0
O68 O 0.86677 0.57295 0.90972 0.0
O69 O 0.14699 0.54307 0.61603 0.0
Zn70 Zn 0.21428 0.55101 0.63702 0.0
O71 O 0.22549 0.59033 0.63322 0.0
Zn72 Zn 0.23846 0.60731 0.69521 0.0
Zn73 Zn 0.17208 0.60634 0.59795 0.0
Zn74 Zn 0.27614 0.59706 0.59802 0.0
O75 O 0.29994 0.62807 0.69994 0.0
O76 O 0.33223 0.60404 0.64458 0.0
O77 O 0.23324 0.53671 0.70446 0.0
O78 O 0.24806 0.57671 0.7441 0.0
O79 O 0.18275 0.63009 0.71056 0.0
O80 O 0.13422 0.62401 0.64341 0.0
O81 O 0.18949 0.638 0.55839 0.0
O82 O 0.24547 0.53117 0.58634 0.0
O83 O 0.2656 0.6327 0.56105 0.0
O84 O 0.28279 0.56509 0.55305 0.0
C85 C 0.12391 0.55304 0.57835 0.0
C86 C 0.33553 0.62044 0.68071 0.0
C87 C 0.14321 0.63349 0.68583 0.0
C88 C 0.24539 0.55011 0.74337 0.0
C89 C 0.22863 0.6464 0.54856 0.0
C90 C 0.26866 0.53987 0.55367 0.0
O91 O 0.13418 0.57654 0.56111 0.0
O92 O 0.63516 0.93669 0.11455 0.0
Zn93 Zn 0.70304 0.93484 0.13816 0.0
O94 O 0.72215 0.89677 0.1362 0.0
Zn95 Zn 0.73594 0.88107 0.19854 0.0
Zn96 Zn 0.67543 0.87571 0.09819 0.0
Zn97 Zn 0.77761 0.8947 0.10825 0.0
O98 O 0.79809 0.86131 0.20449 0.0
O99 O 0.83036 0.89219 0.15968 0.0
O100 O 0.7191 0.9509 0.20545 0.0
O101 O 0.74412 0.9126 0.24562 0.0
O102 O 0.68152 0.8578 0.2138 0.0
O103 O 0.63821 0.85568 0.14268 0.0
O104 O 0.70427 0.84644 0.05937 0.0
O105 O 0.73239 0.95661 0.08816 0.0
O106 O 0.7785 0.85859 0.07369 0.0
O107 O 0.78277 0.92664 0.06336 0.0
C108 C 0.61559 0.92482 0.07659 0.0
C109 C 0.83388 0.87301 0.1913 0.0
C110 C 0.64482 0.85009 0.18728 0.0
C111 C 0.7362 0.9388 0.24417 0.0
C112 C 0.74693 0.84184 0.05608 0.0
C113 C 0.76201 0.95014 0.06012 0.0
O114 O 0.63204 0.90257 0.05997 0.0
O115 O 0.34647 0.9469 0.37908 0.0
Zn116 Zn 0.27886 0.93926 0.35976 0.0
O117 O 0.26719 0.89981 0.36363 0.0
Zn118 Zn 0.25111 0.88359 0.30099 0.0
Zn119 Zn 0.32135 0.88228 0.39691 0.0
Zn120 Zn 0.21701 0.89371 0.39986 0.0
O121 O 0.19222 0.86066 0.299 0.0
O122 O 0.16093 0.88266 0.35701 0.0
O123 O 0.25797 0.95378 0.29281 0.0
O124 O 0.23674 0.91451 0.25333 0.0
O125 O 0.30596 0.862 0.28153 0.0
O126 O 0.35524 0.86296 0.34894 0.0
O127 O 0.305 0.8523 0.44169 0.0
O128 O 0.24768 0.95963 0.41018 0.0
O129 O 0.22962 0.85997 0.43997 0.0
O130 O 0.20633 0.92675 0.44107 0.0
C131 C 0.37258 0.93555 0.41348 0.0
C132 C 0.15777 0.86569 0.32177 0.0
C133 C 0.34502 0.85595 0.30521 0.0
C134 C 0.24141 0.941 0.25455 0.0
C135 C 0.26561 0.8456 0.45331 0.0
C136 C 0.22125 0.95177 0.44057 0.0
O137 O 0.36357 0.91156 0.42973 0.0
O138 O 0.33138 0.03569 0.88 0.0
Zn139 Zn 0.26811 0.05108 0.86003 0.0
O140 O 0.26915 0.09147 0.8656 0.0
Zn141 Zn 0.2526 0.1092 0.80351 0.0
Zn142 Zn 0.32969 0.10371 0.8939 0.0
Zn143 Zn 0.22548 0.10231 0.90818 0.0
O144 O 0.19331 0.13173 0.80299 0.0
O145 O 0.16833 0.11657 0.87001 0.0
O146 O 0.24628 0.0387 0.79206 0.0
O147 O 0.23758 0.07933 0.75354 0.0
O148 O 0.30692 0.13146 0.78334 0.0
O149 O 0.36094 0.12314 0.84505 0.0
O150 O 0.32568 0.13326 0.94364 0.0
O151 O 0.23168 0.03366 0.90891 0.0
O152 O 0.25039 0.13399 0.94985 0.0
O153 O 0.21078 0.07038 0.94966 0.0
C154 C 0.36677 0.04545 0.90596 0.0
C155 C 0.16164 0.12979 0.83047 0.0
C156 C 0.34824 0.13395 0.80433 0.0
C157 C 0.23604 0.05271 0.7536 0.0
C158 C 0.29101 0.14373 0.96066 0.0
C159 C 0.21413 0.04405 0.94434 0.0
O160 O 0.3698 0.07119 0.9178 0.0
O161 O 0.65626 0.04193 0.61413 0.0
Zn162 Zn 0.72106 0.05258 0.63953 0.0
O163 O 0.72748 0.09261 0.63669 0.0
Zn164 Zn 0.74264 0.10914 0.69944 0.0
Zn165 Zn 0.67177 0.10898 0.60511 0.0
Zn166 Zn 0.7764 0.10065 0.59935 0.0
O167 O 0.80426 0.12964 0.70354 0.0
O168 O 0.83381 0.10841 0.64348 0.0
O169 O 0.73792 0.03831 0.70747 0.0
O170 O 0.75253 0.07818 0.74752 0.0
O171 O 0.6887 0.13232 0.71833 0.0
O172 O 0.63768 0.12736 0.65294 0.0
O173 O 0.68647 0.14032 0.56287 0.0
O174 O 0.75627 0.03351 0.59115 0.0
O175 O 0.76244 0.13581 0.56246 0.0
O176 O 0.78446 0.06929 0.55375 0.0
C177 C 0.62651 0.05385 0.58368 0.0
C178 C 0.83865 0.12338 0.68136 0.0
C179 C 0.64861 0.13646 0.6953 0.0
C180 C 0.74968 0.0516 0.74656 0.0
C181 C 0.72475 0.14896 0.55097 0.0
C182 C 0.77566 0.0433 0.55649 0.0
O183 O 0.62993 0.0795 0.57231 0.0
C184 C 0.57049 0.35404 0.33574 0.0
C185 C 0.60346 0.35505 0.30339 0.0
C186 C 0.52386 0.34881 0.31973 0.0
C187 C 0.51014 0.34458 0.27023 0.0
C188 C 0.54411 0.34173 0.23858 0.0
C189 C 0.59068 0.34712 0.25558 0.0
C190 C 0.48879 0.35143 0.35482 0.0
C191 C 0.53074 0.33631 0.18579 0.0
C192 C 0.38177 0.33693 0.22604 0.0
C193 C 0.37058 0.3646 0.21301 0.0
C194 C 0.42734 0.32972 0.24457 0.0
C195 C 0.46172 0.35084 0.25052 0.0
C196 C 0.44998 0.37891 0.23844 0.0
C197 C 0.40465 0.38535 0.21953 0.0
C198 C 0.43886 0.29954 0.2562 0.0
C199 C 0.48533 0.40225 0.2452 0.0
H200 H 0.58054 0.35921 0.37318 0.0
H201 H 0.61625 0.34725 0.23063 0.0
H202 H 0.47238 0.3724 0.35103 0.0
H203 H 0.46097 0.33559 0.34743 0.0
H204 H 0.50514 0.34906 0.39249 0.0
H205 H 0.56066 0.32873 0.16838 0.0
H206 H 0.50236 0.3207 0.17994 0.0
H207 H 0.518 0.35602 0.16798 0.0
H208 H 0.35534 0.32086 0.2203 0.0
H209 H 0.39576 0.40679 0.20975 0.0
H210 H 0.4617 0.29768 0.29073 0.0
H211 H 0.45787 0.29062 0.22786 0.0
H212 H 0.4072 0.28679 0.25803 0.0
H213 H 0.50089 0.40334 0.28326 0.0
H214 H 0.47003 0.42298 0.23483 0.0
H215 H 0.51375 0.39811 0.22324 0.0
C216 C 0.5998 0.65676 0.76745 0.0
C217 C 0.61041 0.64316 0.81162 0.0
C218 C 0.55355 0.66054 0.74742 0.0
C219 C 0.51757 0.64983 0.77168 0.0
C220 C 0.52799 0.63888 0.81846 0.0
C221 C 0.57433 0.63598 0.8381 0.0
C222 C 0.54343 0.67366 0.69848 0.0
C223 C 0.49063 0.62726 0.84562 0.0
C224 C 0.38903 0.65466 0.72709 0.0
C225 C 0.38208 0.62936 0.70193 0.0
C226 C 0.43357 0.66262 0.7479 0.0
C227 C 0.47131 0.64427 0.74484 0.0
C228 C 0.46436 0.61889 0.71888 0.0
C229 C 0.41997 0.61197 0.69723 0.0
C230 C 0.43979 0.69023 0.77399 0.0
C231 C 0.50348 0.59843 0.71541 0.0
H232 H 0.62747 0.66304 0.74726 0.0
H233 H 0.58211 0.62597 0.87274 0.0
H234 H 0.53631 0.65698 0.67105 0.0
H235 H 0.51227 0.68721 0.69653 0.0
H236 H 0.57317 0.68629 0.68937 0.0
H237 H 0.50379 0.62262 0.8836 0.0
H238 H 0.46134 0.64213 0.84486 0.0
H239 H 0.47691 0.60759 0.82818 0.0
H240 H 0.35976 0.66828 0.73027 0.0
H241 H 0.41465 0.59234 0.67793 0.0
H242 H 0.47348 0.70003 0.76916 0.0
H243 H 0.43922 0.68677 0.8129 0.0
H244 H 0.41146 0.70506 0.76146 0.0
H245 H 0.53171 0.60864 0.69875 0.0
H246 H 0.49204 0.57959 0.69391 0.0
H247 H 0.51821 0.59156 0.75184 0.0
C248 C 0.07801 0.85367 0.33696 0.0
C249 C 0.11205 0.85335 0.30577 0.0
C250 C 0.03157 0.84866 0.31991 0.0
C251 C 0.01917 0.84322 0.27056 0.0
C252 C 0.05409 0.83889 0.24047 0.0
C253 C 0.10047 0.84417 0.25844 0.0
C254 C -0.00458 0.8528 0.35343 0.0
C255 C 0.04204 0.83185 0.18806 0.0
C256 C 0.8905 0.83715 0.22709 0.0
C257 C 0.88051 0.86474 0.21259 0.0
C258 C 0.93601 0.82926 0.24458 0.0
C259 C 0.97143 0.84975 0.2489 0.0
C260 C 0.96111 0.87768 0.23463 0.0
C261 C 0.91588 0.88471 0.21623 0.0
C262 C 0.94574 0.79922 0.25874 0.0
C263 C -0.00231 0.90036 0.23928 0.0
H264 H 0.08715 0.85976 0.37413 0.0
H265 H 0.12688 0.84322 0.23448 0.0
H266 H 0.97853 0.87345 0.34631 0.0
H267 H 0.96814 0.83654 0.34739 0.0
H268 H 0.01076 0.8522 0.39165 0.0
H269 H 0.07226 0.82307 0.17255 0.0
H270 H 0.01302 0.81664 0.1828 0.0
H271 H 0.03073 0.85114 0.16801 0.0
H272 H 0.86306 0.82166 0.22372 0.0
H273 H 0.908 0.90608 0.20519 0.0
H274 H 0.94478 0.79696 0.29786 0.0
H275 H 0.98051 0.79252 0.25079 0.0
H276 H 0.91928 0.78491 0.24002 0.0
H277 H 0.01309 0.90247 0.27728 0.0
H278 H 0.98356 0.92102 0.22678 0.0
H279 H 0.02602 0.89475 0.21803 0.0
C280 C 0.10488 0.1551 0.77109 0.0
C281 C 0.11431 0.13987 0.81378 0.0
C282 C 0.05901 0.15972 0.75049 0.0
C283 C 0.0222 0.14817 0.77254 0.0
C284 C 0.03144 0.13516 0.81783 0.0
C285 C 0.0774 0.13146 0.83817 0.0
C286 C 0.05015 0.17496 0.7033 0.0
C287 C 0.9932 0.12244 0.84252 0.0
C288 C 0.89386 0.15586 0.72965 0.0
C289 C 0.88582 0.13167 0.7016 0.0
C290 C 0.93886 0.16278 0.75053 0.0
C291 C 0.97593 0.14441 0.74462 0.0
C292 C 0.96795 0.12032 0.71537 0.0
C293 C 0.92312 0.11451 0.69368 0.0
C294 C 0.94626 0.18916 0.78004 0.0
C295 C 0.00629 0.09983 0.70886 0.0
H296 H 0.1332 0.16226 0.75256 0.0
H297 H 0.08425 0.12009 0.87162 0.0
H298 H 0.04298 0.15956 0.67373 0.0
H299 H 0.01938 0.18876 0.70254 0.0
H300 H 0.08049 0.18776 0.69638 0.0
H301 H 0.00567 0.11562 0.87966 0.0
H302 H 0.96457 0.13759 0.84392 0.0
H303 H 0.97874 0.10397 0.82181 0.0
H304 H 0.86504 0.16934 0.73529 0.0
H305 H 0.91694 0.09574 0.67211 0.0
H306 H 0.98005 0.19901 0.77579 0.0
H307 H 0.94629 0.18403 0.81849 0.0
H308 H 0.91818 0.20459 0.76997 0.0
H309 H 0.03508 0.11063 0.69406 0.0
H310 H 0.99422 0.08229 0.68446 0.0
H311 H 0.02049 0.09096 0.74412 0.0
C312 C 0.29389 0.30022 0.06364 0.0
C313 C 0.25522 0.31297 0.0376 0.0
C314 C 0.30513 0.27237 0.0551 0.0
C315 C 0.27789 0.2573 0.01858 0.0
C316 C 0.24004 0.27048 0.99066 0.0
C317 C 0.22855 0.29811 0.00119 0.0
C318 C 0.34472 0.25873 0.08663 0.0
C319 C 0.21111 0.25522 0.95038 0.0
C320 C 0.32362 0.19152 0.96639 0.0
C321 C 0.29583 0.17113 0.98438 0.0
C322 C 0.31937 0.21973 0.97851 0.0
C323 C 0.28771 0.22741 0.01055 0.0
C324 C 0.2627 0.20655 0.03214 0.0
C325 C 0.26641 0.17861 0.01804 0.0
C326 C 0.34583 0.24143 0.95396 0.0
C327 C 0.23002 0.2139 0.06798 0.0
H328 H 0.31405 0.31158 0.09252 0.0
H329 H 0.19864 0.30803 0.98122 0.0
H330 H 0.33116 0.24149 0.10728 0.0
H331 H 0.36971 0.24937 0.06447 0.0
H332 H 0.36356 0.27373 0.11232 0.0
H333 H 0.18559 0.2692 0.92952 0.0
H334 H 0.23378 0.24588 0.92562 0.0
H335 H 0.19202 0.23785 0.96517 0.0
H336 H 0.34586 0.18577 0.93973 0.0
H337 H 0.24495 0.16276 0.03185 0.0
H338 H 0.36344 0.25637 0.98044 0.0
H339 H 0.32122 0.25365 0.92871 0.0
H340 H 0.37217 0.23187 0.93352 0.0
H341 H 0.24692 0.22851 0.09552 0.0
H342 H 0.21832 0.19508 0.08622 0.0
H343 H 0.19904 0.22462 0.04941 0.0
C344 C 0.79076 0.30648 0.50036 0.0
C345 C 0.75639 0.31883 0.4679 0.0
C346 C 0.78595 0.27871 0.51515 0.0
C347 C 0.74695 0.26293 0.49518 0.0
C348 C 0.71252 0.27535 0.462 0.0
C349 C 0.71726 0.30331 0.44948 0.0
C350 C 0.82239 0.26628 0.552 0.0
C351 C 0.67123 0.25893 0.43876 0.0
C352 C 0.7551 0.18389 0.49736 0.0
C353 C 0.7273 0.17751 0.53298 0.0
C354 C 0.76156 0.21174 0.48424 0.0
C355 C 0.74144 0.23346 0.50908 0.0
C356 C 0.71391 0.22701 0.54561 0.0
C357 C 0.70639 0.19901 0.55645 0.0
C358 C 0.78954 0.21793 0.44374 0.0
C359 C 0.69313 0.24966 0.57383 0.0
H360 H 0.82107 0.31855 0.51426 0.0
H361 H 0.69113 0.31271 0.42347 0.0
H362 H 0.80594 0.25787 0.58254 0.0
H363 H 0.83975 0.24854 0.53607 0.0
H364 H 0.84914 0.28183 0.56593 0.0
H365 H 0.64865 0.2715 0.41206 0.0
H366 H 0.68318 0.24016 0.42052 0.0
H367 H 0.6501 0.2515 0.46642 0.0
H368 H 0.77157 0.16709 0.47977 0.0
H369 H 0.68589 0.19393 0.58495 0.0
H370 H 0.82021 0.2308 0.45701 0.0
H371 H 0.76837 0.23023 0.41558 0.0
H372 H 0.8016 0.19857 0.42721 0.0
H373 H 0.72068 0.26418 0.58965 0.0
H374 H 0.67508 0.24104 0.60315 0.0
H375 H 0.66792 0.26214 0.54974 0.0
C376 C 0.73313 0.79989 0.00339 0.0
C377 C 0.76097 0.81438 0.0394 0.0
C378 C 0.74417 0.77243 0.99141 0.0
C379 C 0.78285 0.75901 0.01749 0.0
C380 C 0.81138 0.77373 0.05349 0.0
C381 C 0.80049 0.80145 0.06348 0.0
C382 C 0.71382 0.75757 0.95171 0.0
C383 C 0.85194 0.75981 0.08308 0.0
C384 C 0.76997 0.68044 0.01512 0.0
C385 C 0.79754 0.67315 0.97966 0.0
C386 C 0.76758 0.70823 0.03044 0.0
C387 C 0.79199 0.72916 0.00832 0.0
C388 C 0.82192 0.72163 0.97445 0.0
C389 C 0.82492 0.69353 0.96107 0.0
C390 C 0.73675 0.71539 0.06814 0.0
C391 C 0.84769 0.74342 0.94934 0.0
H392 H 0.70259 0.80996 0.98491 0.0
H393 H 0.82159 0.81253 0.09203 0.0
H394 H 0.73537 0.74838 0.92574 0.0
H395 H 0.6952 0.74012 0.96687 0.0
H396 H 0.6878 0.77177 0.93211 0.0
H397 H 0.87199 0.77465 0.10814 0.0
H398 H 0.83916 0.74257 0.10429 0.0
H399 H 0.87564 0.75041 0.05951 0.0
H400 H 0.74886 0.66459 0.02942 0.0
H401 H 0.84574 0.68792 0.93307 0.0
H402 H 0.70534 0.72639 0.05119 0.0
H403 H 0.75493 0.72969 0.09542 0.0
H404 H 0.72564 0.69646 0.08649 0.0
H405 H 0.82248 0.75585 0.92508 0.0
H406 H 0.87313 0.73391 0.92773 0.0
H407 H 0.86621 0.75815 0.97558 0.0
C408 C 0.26008 0.68236 0.49734 0.0
C409 C 0.23249 0.67531 0.53279 0.0
C410 C 0.26618 0.71047 0.48541 0.0
C411 C 0.24596 0.7317 0.5113 0.0
C412 C 0.21901 0.72454 0.54795 0.0
C413 C 0.21183 0.69635 0.55757 0.0
C414 C 0.29364 0.71745 0.44485 0.0
C415 C 0.19826 0.74662 0.57738 0.0
C416 C 0.29401 0.80512 0.50479 0.0
C417 C 0.25935 0.81766 0.4729 0.0
C418 C 0.28965 0.77718 0.51875 0.0
C419 C 0.25077 0.76141 0.4985 0.0
C420 C 0.2158 0.77408 0.46623 0.0
C421 C 0.22011 0.80223 0.45455 0.0
C422 C 0.32659 0.7645 0.55478 0.0
C423 C 0.17455 0.7577 0.44283 0.0
H424 H 0.27632 0.66591 0.47873 0.0
H425 H 0.19146 0.69073 0.58592 0.0
H426 H 0.2719 0.72981 0.41721 0.0
H427 H 0.324 0.73054 0.45825 0.0
H428 H 0.30612 0.69843 0.42765 0.0
H429 H 0.18099 0.73745 0.6068 0.0
H430 H 0.22566 0.76124 0.59319 0.0
H431 H 0.17238 0.75911 0.55412 0.0
H432 H 0.32441 0.81712 0.51864 0.0
H433 H 0.19374 0.81179 0.429 0.0
H434 H 0.34438 0.74733 0.53781 0.0
H435 H 0.31057 0.75528 0.58496 0.0
H436 H 0.35295 0.78012 0.56941 0.0
H437 H 0.18656 0.73937 0.42347 0.0
H438 H 0.15139 0.77053 0.41705 0.0
H439 H 0.15402 0.74959 0.47049 0.0
C440 C 0.88853 0.4993 0.92463 0.0
C441 C 0.8996 0.5274 0.91737 0.0
C442 C 0.92188 0.48071 0.9464 0.0
C443 C 0.96752 0.49037 0.96035 0.0
C444 C 0.97945 0.51839 0.95116 0.0
C445 C 0.94511 0.53671 0.93023 0.0
C446 C 0.90774 0.45111 0.95643 0.0
C447 C 0.02811 0.52922 0.96476 0.0
C448 C 0.04115 0.45616 0.06452 0.0
C449 C 0.07048 0.43924 0.04094 0.0
C450 C 0.00654 0.47227 0.03857 0.0
C451 C 0.0019 0.47183 0.98786 0.0
C452 C 0.03078 0.45433 0.9638 0.0
C453 C 0.06455 0.43796 0.99074 0.0
C454 C 0.97566 0.49024 0.06545 0.0
C455 C 0.02716 0.4537 0.90976 0.0
H456 H 0.85325 0.49207 0.91505 0.0
H457 H 0.95379 0.55836 0.92426 0.0
H458 H 0.93137 0.43595 0.94202 0.0
H459 H 0.91053 0.44777 0.99574 0.0
H460 H 0.87162 0.44642 0.9406 0.0
H461 H 0.03264 0.55074 0.95124 0.0
H462 H 0.03644 0.52942 0.00437 0.0
H463 H 0.05351 0.51522 0.95037 0.0
H464 H 0.0456 0.45701 0.10337 0.0
H465 H 0.08759 0.42509 0.9725 0.0
H466 H 0.93869 0.48568 0.05303 0.0
H467 H 0.98161 0.51264 0.05805 0.0
H468 H 0.98203 0.4869 0.10482 0.0
H469 H 0.99109 0.44894 0.89408 0.0
H470 H 0.0507 0.43796 0.89659 0.0
H471 H 0.03597 0.47459 0.89637 0.0
C472 C 0.07898 0.53646 0.50259 0.0
C473 C 0.08647 0.53617 0.55277 0.0
C474 C 0.0449 0.51946 0.47754 0.0
C475 C 0.01692 0.50252 0.50351 0.0
C476 C 0.02424 0.5023 0.55425 0.0
C477 C 0.0595 0.51888 0.57831 0.0
C478 C 0.03883 0.51963 0.4234 0.0
C479 C 0.9943 0.48497 0.58308 0.0
C480 C 0.89823 0.48289 0.44216 0.0
C481 C 0.9045 0.4547 0.43092 0.0
C482 C 0.93458 0.49864 0.46602 0.0
C483 C 0.97852 0.48604 0.4777 0.0
C484 C 0.98538 0.45772 0.4655 0.0
C485 C 0.94792 0.44219 0.44282 0.0
C486 C 0.92569 0.52859 0.47952 0.0
C487 C 0.03216 0.44388 0.47645 0.0
H488 H 0.10052 0.5495 0.4829 0.0
H489 H 0.06546 0.51871 0.61717 0.0
H490 H 0.04078 0.49798 0.4095 0.0
H491 H 0.0041 0.52796 0.40969 0.0
H492 H 0.06549 0.53256 0.40873 0.0
H493 H 0.00472 0.48708 0.62232 0.0
H494 H 0.95755 0.49147 0.57482 0.0
H495 H -0.00372 0.46259 0.57315 0.0
H496 H 0.86442 0.49246 0.43348 0.0
H497 H 0.95268 0.4204 0.43387 0.0
H498 H 0.94876 0.54285 0.46236 0.0
H499 H 0.93375 0.53137 0.51888 0.0
H500 H 0.88919 0.53502 0.4686 0.0
H501 H 0.05881 0.45617 0.46061 0.0
H502 H 0.03222 0.42215 0.46241 0.0
H503 H 0.04255 0.44337 0.51577 0.0
C504 C 0.56824 0.93689 -0.00066 0.0
C505 C 0.57553 0.93875 0.04946 0.0
C506 C 0.53379 0.95293 0.97277 0.0
C507 C 0.50558 0.97069 0.99716 0.0
C508 C 0.51146 0.97163 0.04787 0.0
C509 C 0.54678 0.95585 0.07343 0.0
C510 C 0.52885 0.95175 0.91869 0.0
C511 C 0.48128 0.98987 0.07511 0.0
C512 C 0.44886 0.03518 0.93808 0.0
C513 C 0.40329 0.02589 0.92569 0.0
C514 C 0.4831 0.01698 0.95955 0.0
C515 C 0.47097 0.98916 0.96988 0.0
C516 C 0.42515 0.97957 0.95674 0.0
C517 C 0.39192 -0.00199 0.93428 0.0
C518 C 0.53196 0.02771 0.97224 0.0
C519 C 0.41077 0.95022 0.96812 0.0
H520 H 0.59082 0.92386 0.98078 0.0
H521 H 0.55227 0.95714 0.11224 0.0
H522 H 0.49249 0.947 0.90402 0.0
H523 H 0.53748 0.97247 0.90444 0.0
H524 H 0.55186 0.93578 0.90532 0.0
H525 H 0.48831 0.98671 0.11449 0.0
H526 H 0.48733 0.01221 0.06726 0.0
H527 H 0.44414 0.98541 0.06341 0.0
H528 H 0.45769 0.05669 0.93111 0.0
H529 H 0.35653 0.99087 0.92512 0.0
H530 H 0.55694 0.01353 0.95758 0.0
H531 H 0.54091 0.02807 0.01177 0.0
H532 H 0.53646 0.04913 0.95831 0.0
H533 H 0.43363 0.93472 0.9534 0.0
H534 H 0.37428 0.94567 0.95345 0.0
H535 H 0.41461 0.94728 0.00756 0.0
C536 C 0.43558 0.97053 0.41111 0.0
C537 C 0.41195 0.95163 0.43731 0.0
C538 C 0.47145 0.98713 0.43399 0.0
C539 C 0.48275 0.98529 0.48433 0.0
C540 C 0.45888 0.96626 0.51093 0.0
C541 C 0.42413 0.94932 0.48692 0.0
C542 C 0.49714 0.00665 0.40439 0.0
C543 C 0.46941 0.9642 0.56481 0.0
C544 C 0.59984 0.00973 0.54324 0.0
C545 C 0.58949 0.03668 0.55832 0.0
C546 C 0.56555 0.99298 0.51812 0.0
C547 C 0.51966 0.00322 0.50929 0.0
C548 C 0.50896 0.03039 0.52484 0.0
C549 C 0.54437 0.04706 0.54856 0.0
C550 C 0.57849 0.96447 0.50072 0.0
C551 C 0.46009 0.04165 0.51704 0.0
H552 H 0.42613 0.9722 0.37266 0.0
H553 H 0.40536 0.93494 0.50722 0.0
H554 H 0.4921 0.02862 0.41539 0.0
H555 H 0.53488 0.00228 0.41075 0.0
H556 H 0.48535 0.00468 0.36539 0.0
H557 H 0.44698 0.9487 0.5802 0.0
H558 H 0.50613 0.95813 0.57493 0.0
H559 H 0.46448 0.98491 0.58134 0.0
H560 H 0.63509 0.00197 0.55023 0.0
H561 H 0.53663 0.06794 0.56045 0.0
H562 H 0.5702 0.96324 0.46116 0.0
H563 H 0.55795 0.94804 0.51619 0.0
H564 H 0.61588 0.95975 0.51043 0.0
H565 H 0.44758 0.04241 0.47814 0.0
H566 H 0.45747 0.06296 0.53231 0.0
H567 H 0.43655 0.02749 0.53382 0.0
C568 C 0.06095 0.3219 0.17323 0.0
C569 C 0.09324 0.33945 0.19979 0.0
C570 C 0.01682 0.31764 0.18728 0.0
C571 C 0.00429 0.33233 0.22748 0.0
C572 C 0.03787 0.34867 0.25606 0.0
C573 C 0.08228 0.35157 0.24231 0.0
C574 C 0.98285 0.2989 0.15735 0.0
C575 C 0.02578 0.36513 0.29874 0.0
C576 C 0.88318 0.36026 0.23056 0.0
C577 C 0.87017 0.34586 0.26998 0.0
C578 C 0.92585 0.35477 0.2141 0.0
C579 C 0.95513 0.33368 0.23668 0.0
C580 C 0.93953 0.317 0.27295 0.0
C581 C 0.89762 0.32376 0.29007 0.0
C582 C 0.94148 0.37343 0.17591 0.0
C583 C 0.96857 0.2934 0.29616 0.0
H584 H 0.06953 0.31243 0.14038 0.0
H585 H 0.10706 0.36539 0.26257 0.0
H586 H 0.96182 0.28672 0.18035 0.0
H587 H 0.95874 0.31184 0.13285 0.0
H588 H 0.00075 0.28416 0.13522 0.0
H589 H 0.05633 0.376 0.31813 0.0
H590 H -0.00092 0.38103 0.28659 0.0
H591 H 0.01092 0.35116 0.32429 0.0
H592 H 0.86208 0.37757 0.21557 0.0
H593 H 0.88734 0.31265 0.32063 0.0
H594 H 0.95362 0.36073 0.14692 0.0
H595 H 0.97112 0.38645 0.19182 0.0
H596 H 0.91344 0.38755 0.15983 0.0
H597 H 0.9855 0.28159 0.2691 0.0
H598 H 0.94748 0.27871 0.31502 0.0
H599 H -0.0037 0.30206 0.32281 0.0
C600 C 0.09089 0.63308 0.7486 0.0
C601 C 0.10436 0.64548 0.70758 0.0
C602 C 0.04643 0.63773 0.76138 0.0
C603 C 0.0156 0.65592 0.73315 0.0
C604 C 0.03109 0.67076 0.69472 0.0
C605 C 0.07507 0.66487 0.68169 0.0
C606 C 0.03108 0.62118 0.80231 0.0
C607 C 0.00016 0.69127 0.66519 0.0
C608 C 0.89121 0.63252 0.72999 0.0
C609 C 0.8783 0.64697 0.76946 0.0
C610 C 0.93509 0.63668 0.71543 0.0
C611 C 0.96587 0.65633 0.74031 0.0
C612 C 0.9506 0.67325 0.77656 0.0
C613 C 0.90721 0.66793 0.79147 0.0
C614 C 0.95018 0.61795 0.67692 0.0
C615 C 0.98148 0.69527 0.8024 0.0
H616 H 0.11344 0.61777 0.76805 0.0
H617 H 0.08571 0.67439 0.64981 0.0
H618 H 0.01633 0.63528 0.82784 0.0
H619 H 0.00342 0.60627 0.78815 0.0
H620 H 0.05999 0.60915 0.82222 0.0
H621 H 0.0204 0.70544 0.64441 0.0
H622 H 0.975 0.67969 0.63949 0.0
H623 H 0.9801 0.70408 0.68833 0.0
H624 H 0.86902 0.61597 0.71372 0.0
H625 H 0.89711 0.67891 0.82235 0.0
H626 H 0.97749 0.60342 0.69318 0.0
H627 H 0.96528 0.63049 0.64962 0.0
H628 H 0.92103 0.60536 0.65864 0.0
H629 H 0.00713 0.68513 0.82947 0.0
H630 H 0.96127 0.71054 0.82122 0.0
H631 H 0.00096 0.70672 0.77704 0.0
C632 C 0.39487 0.85813 0.24034 0.0
C633 C 0.38232 0.84432 0.28053 0.0
C634 C 0.43785 0.85292 0.22439 0.0
C635 C 0.46794 0.83265 0.24829 0.0
C636 C 0.45299 0.81652 0.2856 0.0
C637 C 0.41072 0.82307 0.30217 0.0
C638 C 0.45278 0.87102 0.18509 0.0
C639 C 0.48292 0.79375 0.31026 0.0
C640 C 0.57339 0.821 0.1844 0.0
C641 C 0.60508 0.8395 0.20953 0.0
C642 C 0.52975 0.81635 0.19935 0.0
C643 C 0.51704 0.83158 0.23889 0.0
C644 C 0.55015 0.84885 0.26617 0.0
C645 C 0.59416 0.85216 0.25162 0.0
C646 C 0.49634 0.79661 0.17092 0.0
C647 C 0.5378 0.86593 0.30806 0.0
H648 H 0.37301 0.8748 0.22412 0.0
H649 H 0.40076 0.81239 0.3333 0.0
H650 H 0.4822 0.88448 0.20007 0.0
H651 H 0.46499 0.85789 0.15666 0.0
H652 H 0.42434 0.88469 0.16845 0.0
H653 H 0.46235 0.77915 0.3299 0.0
H654 H 0.50044 0.78166 0.28399 0.0
H655 H 0.51018 0.80323 0.33648 0.0
H656 H 0.58197 0.81112 0.15189 0.0
H657 H 0.61849 0.86669 0.27076 0.0
H658 H 0.47143 0.80876 0.14594 0.0
H659 H 0.47616 0.78458 0.19493 0.0
H660 H 0.51462 0.78171 0.14941 0.0
H661 H 0.51058 0.88138 0.29521 0.0
H662 H 0.56811 0.8774 0.32666 0.0
H663 H 0.52353 0.8523 0.33447 0.0
C664 C 0.59806 0.13522 0.75955 0.0
C665 C 0.61106 0.1485 0.71908 0.0
C666 C 0.55372 0.13939 0.77301 0.0
C667 C 0.52253 0.15793 0.74604 0.0
C668 C 0.53771 0.17378 0.70855 0.0
C669 C 0.58159 0.16841 0.69481 0.0
C670 C 0.53877 0.12183 0.81297 0.0
C671 C 0.5064 0.19469 0.68044 0.0
C672 C 0.39851 0.13318 0.73999 0.0
C673 C 0.3847 0.14665 0.77999 0.0
C674 C 0.4426 0.13808 0.72642 0.0
C675 C 0.4727 0.15748 0.75287 0.0
C676 C 0.4566 0.1734 0.7899 0.0
C677 C 0.41301 0.16733 0.80375 0.0
C678 C 0.45856 0.12042 0.68698 0.0
C679 C 0.48671 0.19515 0.81748 0.0
H680 H 0.62071 0.11951 0.77773 0.0
H681 H 0.59181 0.17859 0.66332 0.0
H682 H 0.52332 0.13518 0.83908 0.0
H683 H 0.51176 0.10675 0.79786 0.0
H684 H 0.56805 0.10991 0.83243 0.0
H685 H 0.52641 0.20955 0.66068 0.0
H686 H 0.4815 0.18349 0.65392 0.0
H687 H 0.48609 0.20671 0.70441 0.0
H688 H 0.37677 0.11684 0.72233 0.0
H689 H 0.40222 0.17755 0.83501 0.0
H690 H 0.48639 0.10603 0.70252 0.0
H691 H 0.47326 0.1338 0.66049 0.0
H692 H 0.42997 0.10774 0.66786 0.0
H693 H 0.51215 0.18468 0.84434 0.0
H694 H 0.46587 0.20982 0.83677 0.0
H695 H 0.50643 0.20731 0.79322 0.0
C696 C 0.2998 0.46291 0.98868 0.0
C697 C 0.26289 0.46738 0.01551 0.0
C698 C 0.30185 0.47697 0.9452 0.0
C699 C 0.26576 0.49556 0.92788 0.0
C700 C 0.22939 0.50098 0.95571 0.0
C701 C 0.22862 0.48701 -0.00061 0.0
C702 C 0.34164 0.47109 0.91692 0.0
C703 C 0.19002 0.52049 0.93827 0.0
C704 C 0.27846 0.54819 0.8297 0.0
C705 C 0.25457 0.5349 0.78937 0.0
C706 C 0.28397 0.53518 0.8747 0.0
C707 C 0.26459 0.50839 0.87964 0.0
C708 C 0.24168 0.49447 0.83883 0.0
C709 C 0.23724 0.50783 0.79406 0.0
C710 C 0.30928 0.55047 0.91721 0.0
C711 C 0.22027 0.46594 0.8428 0.0
H712 H 0.32647 0.44784 0.00099 0.0
H713 H 0.19976 0.49043 0.01965 0.0
H714 H 0.32867 0.45981 0.88338 0.0
H715 H 0.35729 0.49096 0.90648 0.0
H716 H 0.36907 0.45821 0.93741 0.0
H717 H 0.16535 0.52328 0.96506 0.0
H718 H 0.20373 0.54128 0.92977 0.0
H719 H 0.17067 0.51209 0.90474 0.0
H720 H 0.2924 0.56902 0.82626 0.0
H721 H 0.21866 0.49747 0.7631 0.0
H722 H 0.33643 0.53687 0.93633 0.0
H723 H 0.28467 0.55583 0.94296 0.0
H724 H 0.32577 0.57007 0.9066 0.0
H725 H 0.24653 0.45102 0.85978 0.0
H726 H 0.20549 0.45743 0.80735 0.0
H727 H 0.19223 0.46719 0.86611 0.0
C728 C 0.73335 0.49276 0.49218 0.0
C729 C 0.70203 0.47104 0.47855 0.0
C730 C 0.73231 0.50711 0.53557 0.0
C731 C 0.6983 0.50007 0.56543 0.0
C732 C 0.66446 0.47959 0.55017 0.0
C733 C 0.66713 0.465 0.50717 0.0
C734 C 0.76952 0.52849 0.55085 0.0
C735 C 0.6268 0.47215 0.58032 0.0
C736 C 0.73385 0.51208 0.69836 0.0
C737 C 0.71559 0.53873 0.70483 0.0
C738 C 0.72734 0.49892 0.65337 0.0
C739 C 0.70094 0.51246 0.61427 0.0
C740 C 0.6802 0.53866 0.62131 0.0
C741 C 0.6883 0.55168 0.66639 0.0
C742 C 0.75069 0.47117 0.64713 0.0
C743 C 0.65075 0.55336 0.58089 0.0
H744 H 0.76069 0.49738 0.47046 0.0
H745 H 0.6427 0.44832 0.49664 0.0
H746 H 0.75372 0.54855 0.5602 0.0
H747 H 0.79155 0.52101 0.58343 0.0
H748 H 0.79209 0.5325 0.52249 0.0
H749 H 0.59953 0.45885 0.56041 0.0
H750 H 0.64206 0.46063 0.6127 0.0
H751 H 0.61041 0.49136 0.59267 0.0
H752 H 0.75517 0.50209 0.7279 0.0
H753 H 0.67373 0.57219 0.6714 0.0
H754 H 0.77652 0.47352 0.6215 0.0
H755 H 0.72489 0.45547 0.63184 0.0
H756 H 0.76865 0.46296 0.68148 0.0
H757 H 0.67291 0.56058 0.55398 0.0
H758 H 0.63243 0.57178 0.59367 0.0
H759 H 0.62471 0.53876 0.56241 0.0
C760 C 0.68591 0.45112 0.17169 0.0
C761 C 0.72016 0.46086 0.20746 0.0
C762 C 0.6771 0.46485 0.12745 0.0
C763 C 0.70413 0.48838 0.11838 0.0
C764 C 0.73794 0.49874 0.15486 0.0
C765 C 0.74511 0.48504 0.19927 0.0
C766 C 0.63986 0.45371 0.08997 0.0
C767 C 0.76804 0.5235 0.14626 0.0
C768 C 0.72662 0.50486 0.99161 0.0
C769 C 0.70126 0.52963 0.98243 0.0
C770 C 0.72658 0.49067 0.03517 0.0
C771 C 0.69954 0.50109 0.06982 0.0
C772 C 0.67112 0.52486 0.05924 0.0
C773 C 0.67281 0.53911 0.01587 0.0
C774 C 0.75795 0.46563 0.04534 0.0
C775 C 0.64075 0.53607 0.09468 0.0
H776 H 0.66623 0.43255 0.17817 0.0
H777 H 0.77178 0.4925 0.22678 0.0
H778 H 0.61672 0.47091 0.07531 0.0
H779 H 0.65597 0.44466 0.05968 0.0
H780 H 0.61853 0.43727 0.10452 0.0
H781 H 0.7918 0.52942 0.17878 0.0
H782 H 0.78913 0.5185 0.11706 0.0
H783 H 0.74619 0.54183 0.13451 0.0
H784 H 0.74906 0.49758 0.96613 0.0
H785 H 0.65301 0.55819 0.00881 0.0
H786 H 0.73808 0.44756 0.05663 0.0
H787 H 0.78532 0.47059 0.07534 0.0
H788 H 0.77494 0.45934 0.0137 0.0
H789 H 0.62082 0.51887 0.10888 0.0
H790 H 0.61607 0.55215 0.07844 0.0
H791 H 0.6627 0.54565 0.12556 0.0
C792 C 0.21491 0.47827 0.29244 0.0
C793 C 0.23775 0.45323 0.28442 0.0
C794 C 0.22345 0.49217 0.33678 0.0
C795 C 0.25627 0.481 0.37338 0.0
C796 C 0.28069 0.45633 0.36471 0.0
C797 C 0.27084 0.44262 0.32052 0.0
C798 C 0.19629 0.51827 0.34503 0.0
C799 C 0.31647 0.44405 0.40248 0.0
C800 C 0.2997 0.52974 0.47621 0.0
C801 C 0.27153 0.52199 0.51104 0.0
C802 C 0.29619 0.516 0.43169 0.0
C803 C 0.26328 0.4943 0.42159 0.0
C804 C 0.23607 0.48566 0.45726 0.0
C805 C 0.24083 0.49943 0.50168 0.0
C806 C 0.32644 0.52539 0.39484 0.0
C807 C 0.2003 0.46275 0.44775 0.0
H808 H 0.18925 0.48647 0.26468 0.0
H809 H 0.28908 0.42345 0.31426 0.0
H810 H 0.17464 0.51457 0.37423 0.0
H811 H 0.22025 0.53572 0.35664 0.0
H812 H 0.17333 0.52481 0.31238 0.0
H813 H 0.33481 0.42591 0.38879 0.0
H814 H 0.34247 0.46015 0.4157 0.0
H815 H 0.29951 0.43707 0.43362 0.0
H816 H 0.3235 0.54714 0.48315 0.0
H817 H 0.21856 0.49343 0.5281 0.0
H818 H 0.30461 0.5349 0.36387 0.0
H819 H 0.34446 0.5072 0.38105 0.0
H820 H 0.35279 0.54098 0.4096 0.0
H821 H 0.17337 0.46917 0.4183 0.0
H822 H 0.18306 0.45786 0.47985 0.0
H823 H 0.21663 0.44339 0.43596 0.0
C824 C 0.80404 0.96414 0.99145 0.0
C825 C 0.76734 0.96837 0.01865 0.0
C826 C 0.80547 0.9782 0.94787 0.0
C827 C 0.76897 -0.00343 0.93081 0.0
C828 C 0.73271 0.00169 0.95893 0.0
C829 C 0.73255 0.98771 0.00271 0.0
C830 C 0.84514 0.97262 0.91927 0.0
C831 C 0.69293 0.02098 0.94179 0.0
C832 C 0.7817 0.04958 0.83318 0.0
C833 C 0.75827 0.03631 0.79257 0.0
C834 C 0.78682 0.0365 0.87812 0.0
C835 C 0.76754 0.00965 0.88273 0.0
C836 C 0.74495 -0.0042 0.84168 0.0
C837 C 0.74087 0.00924 0.79697 0.0
C838 C 0.81177 0.05174 0.92089 0.0
C839 C 0.72366 0.9672 0.8453 0.0
H840 H 0.83111 0.94928 0.00361 0.0
H841 H 0.70382 0.99092 0.02325 0.0
H842 H 0.83208 0.96161 0.88549 0.0
H843 H 0.86069 0.99261 0.90925 0.0
H844 H 0.87267 0.95963 0.93934 0.0
H845 H 0.66828 0.02346 0.96868 0.0
H846 H 0.70624 0.04192 0.9335 0.0
H847 H 0.67369 0.0126 0.9082 0.0
H848 H 0.79566 0.07042 0.82999 0.0
H849 H 0.7226 -0.00109 0.76581 0.0
H850 H 0.83925 0.03826 0.93974 0.0
H851 H 0.78705 0.05667 0.94676 0.0
H852 H 0.82778 0.07157 0.91063 0.0
H853 H 0.75002 0.95227 0.86203 0.0
H854 H 0.70885 0.95884 0.80976 0.0
H855 H 0.69568 0.96828 0.8687 0.0
C856 C 0.24205 0.01098 0.70109 0.0
C857 C 0.22487 0.03795 0.7073 0.0
C858 C 0.23638 -0.00194 0.65587 0.0
C859 C 0.21204 0.01221 0.61619 0.0
C860 C 0.19254 0.03882 0.6228 0.0
C861 C 0.19967 0.05153 0.66819 0.0
C862 C 0.25826 0.9698 0.65014 0.0
C863 C 0.16536 0.05423 0.58167 0.0
C864 C 0.24642 0.99145 0.49534 0.0
C865 C 0.21367 0.97066 0.48062 0.0
C866 C 0.24529 0.00587 0.53866 0.0
C867 C 0.20988 -0.00018 0.56739 0.0
C868 C 0.1748 0.98031 0.55103 0.0
C869 C 0.17743 0.96568 0.50808 0.0
C870 C 0.28373 0.02625 0.55511 0.0
C871 C 0.13575 0.9739 0.57998 0.0
H872 H 0.26174 0.00046 0.73113 0.0
H873 H 0.18591 0.07229 0.67293 0.0
H874 H 0.23183 0.9547 0.63399 0.0
H875 H 0.28502 0.97154 0.62541 0.0
H876 H 0.27476 0.96121 0.68482 0.0
H877 H 0.14819 0.07325 0.59383 0.0
H878 H 0.18887 0.0606 0.55547 0.0
H879 H 0.13855 0.04035 0.56255 0.0
H880 H 0.27475 -0.00474 0.47452 0.0
H881 H 0.15187 0.94973 0.49671 0.0
H882 H 0.3046 0.01812 0.58793 0.0
H883 H 0.26911 0.04666 0.56449 0.0
H884 H 0.30719 0.02977 0.5274 0.0
H885 H 0.14943 0.96212 0.61267 0.0
H886 H 0.10806 0.96121 0.55937 0.0
H887 H 0.12027 0.99353 0.59183 0.0
C888 C 0.19498 0.94653 0.17425 0.0
C889 C 0.22902 0.95683 0.20973 0.0
C890 C 0.18536 0.96004 0.12986 0.0
C891 C 0.21134 0.98394 0.12034 0.0
C892 C 0.24503 0.9948 0.15647 0.0
C893 C 0.25302 0.9813 0.20102 0.0
C894 C 0.14829 0.94834 0.09277 0.0
C895 C 0.27403 0.01998 0.14739 0.0
C896 C 0.23191 0.0012 0.99326 0.0
C897 C 0.20565 0.02567 0.98454 0.0
C898 C 0.23274 0.98679 0.03672 0.0
C899 C 0.20565 -0.00333 0.07175 0.0
C900 C 0.17625 0.02006 0.06158 0.0
C901 C 0.17708 0.03455 0.0183 0.0
C902 C 0.26514 0.96219 0.04643 0.0
C903 C 0.1458 0.03068 0.09742 0.0
H904 H 0.17601 0.92775 0.18111 0.0
H905 H 0.27953 0.98921 0.22828 0.0
H906 H 0.12422 0.96517 0.07841 0.0
H907 H 0.16444 0.93967 0.06221 0.0
H908 H 0.12795 0.93149 0.10756 0.0
H909 H 0.29801 0.02616 0.17959 0.0
H910 H 0.2948 0.01533 0.11778 0.0
H911 H 0.25137 0.03802 0.13601 0.0
H912 H 0.25445 0.99439 0.96755 0.0
H913 H 0.15659 0.0534 0.0116 0.0
H914 H 0.24618 0.94382 0.05807 0.0
H915 H 0.29269 0.9675 0.07605 0.0
H916 H 0.28187 0.95619 0.01447 0.0
H917 H 0.12683 0.01313 0.11185 0.0
H918 H 0.12028 0.04638 0.08144 0.0
H919 H 0.16762 0.04056 0.12809 0.0
C920 C 0.75139 0.00152 0.5063 0.0
C921 C 0.7797 0.02526 0.51432 0.0
C922 C 0.7472 0.98734 0.46226 0.0
C923 C 0.77258 -0.00319 0.4256 0.0
C924 C 0.80332 0.01972 0.43444 0.0
C925 C 0.80621 0.03385 0.47857 0.0
C926 C 0.71361 0.9632 0.45414 0.0
C927 C 0.83179 0.02998 0.39662 0.0
C928 C 0.78207 0.94543 0.32436 0.0
C929 C 0.74746 0.95507 0.2889 0.0
C930 C 0.79176 0.9594 0.36836 0.0
C931 C 0.76556 0.98327 0.37755 0.0
C932 C 0.7311 0.99343 0.34158 0.0
C933 C 0.72281 0.97936 0.29738 0.0
C934 C 0.82931 0.94822 0.40542 0.0
C935 C 0.70196 0.0186 0.35038 0.0
H936 H 0.7303 0.99492 0.53342 0.0
H937 H 0.82815 0.05217 0.48453 0.0
H938 H 0.68404 0.9693 0.42732 0.0
H939 H 0.7305 0.94483 0.43955 0.0
H940 H 0.6998 0.95684 0.4876 0.0
H941 H 0.85703 0.04637 0.41058 0.0
H942 H 0.85095 0.01234 0.38257 0.0
H943 H 0.80854 0.03877 0.366 0.0
H944 H 0.80162 0.92681 0.31775 0.0
H945 H 0.69592 0.98678 0.27014 0.0
H946 H 0.81374 0.94066 0.43709 0.0
H947 H 0.85407 0.96511 0.41796 0.0
H948 H 0.84882 0.93071 0.39133 0.0
H949 H 0.6817 0.01425 0.38048 0.0
H950 H 0.67752 0.02432 0.3183 0.0
H951 H 0.72453 0.03684 0.36097 0.0
loop_
_geom_bond_atom_site_label_1
_geom_bond_atom_site_label_2
_geom_bond_distance
_geom_bond_site_symmetry_2
_ccdc_geom_bond_type
O0 Zn1 1.953 . S
O0 C16 1.225 . S
Zn1 O0 1.953 . S
Zn1 O2 1.949 . S
Zn1 O8 1.919 . S
Zn1 O13 1.924 . S
O2 Zn1 1.949 . S
O2 Zn3 1.923 . S
O2 Zn4 1.950 . S
O2 Zn5 1.945 . S
Zn3 O2 1.923 . S
Zn3 O6 1.933 . S
Zn3 O9 1.941 . S
Zn3 O10 1.965 . S
Zn4 O2 1.950 . S
Zn4 O11 1.938 . S
Zn4 O12 1.906 . S
Zn4 O22 1.953 . S
Zn5 O2 1.945 . S
Zn5 O7 1.932 . S
Zn5 O14 1.977 . S
Zn5 O15 1.910 . S
O6 Zn3 1.933 . S
O6 C17 1.226 . S
O7 Zn5 1.932 . S
O7 C17 1.307 . S
O8 Zn1 1.919 . S
O8 C19 1.253 . S
O9 Zn3 1.941 . S
O9 C19 1.283 . S
O10 Zn3 1.965 . S
O10 C18 1.303 . S
O11 Zn4 1.938 . S
O11 C18 1.247 . S
O12 Zn4 1.906 . S
O12 C20 1.304 . S
O13 Zn1 1.924 . S
O13 C21 1.311 . S
O14 Zn5 1.977 . S
O14 C20 1.272 . S
O15 Zn5 1.910 . S
O15 C21 1.231 . S
C16 O0 1.225 . S
C16 O22 1.298 . S
C17 O6 1.226 . S
C17 O7 1.307 . S
C18 O10 1.303 . S
C18 O11 1.247 . S
C19 O8 1.253 . S
C19 O9 1.283 . S
C20 O12 1.304 . S
C20 O14 1.272 . S
C21 O13 1.311 . S
C21 O15 1.231 . S
O22 Zn4 1.953 . S
O22 C16 1.298 . S
O23 Zn24 1.953 . S
O23 C39 1.225 . S
Zn24 O23 1.953 . S
Zn24 O25 1.949 . S
Zn24 O31 1.919 . S
Zn24 O36 1.924 . S
O25 Zn24 1.949 . S
O25 Zn26 1.923 . S
O25 Zn27 1.950 . S
O25 Zn28 1.945 . S
Zn26 O25 1.923 . S
Zn26 O29 1.933 . S
Zn26 O32 1.941 . S
Zn26 O33 1.965 . S
Zn27 O25 1.950 . S
Zn27 O34 1.938 . S
Zn27 O35 1.906 . S
Zn27 O45 1.953 . S
Zn28 O25 1.945 . S
Zn28 O30 1.932 . S
Zn28 O37 1.977 . S
Zn28 O38 1.910 . S
O29 Zn26 1.933 . S
O29 C40 1.226 . S
O30 Zn28 1.932 . S
O30 C40 1.307 . S
O31 Zn24 1.919 . S
O31 C42 1.253 . S
O32 Zn26 1.941 . S
O32 C42 1.283 . S
O33 Zn26 1.965 . S
O33 C41 1.303 . S
O34 Zn27 1.938 . S
O34 C41 1.247 . S
O35 Zn27 1.906 . S
O35 C43 1.304 . S
O36 Zn24 1.924 . S
O36 C44 1.311 . S
O37 Zn28 1.977 . S
O37 C43 1.272 . S
O38 Zn28 1.910 . S
O38 C44 1.231 . S
C39 O23 1.225 . S
C39 O45 1.298 . S
C40 O29 1.226 . S
C40 O30 1.307 . S
C41 O33 1.303 . S
C41 O34 1.247 . S
C42 O31 1.253 . S
C42 O32 1.283 . S
C43 O35 1.304 . S
C43 O37 1.272 . S
C44 O36 1.311 . S
C44 O38 1.231 . S
O45 Zn27 1.953 . S
O45 C39 1.298 . S
O46 Zn47 1.953 . S
O46 C62 1.225 . S
Zn47 O46 1.953 . S
Zn47 O48 1.949 . S
Zn47 O54 1.919 . S
Zn47 O59 1.924 . S
O48 Zn47 1.949 . S
O48 Zn49 1.923 . S
O48 Zn50 1.950 . S
O48 Zn51 1.945 . S
Zn49 O48 1.923 . S
Zn49 O52 1.933 . S
Zn49 O55 1.941 . S
Zn49 O56 1.965 . S
Zn50 O48 1.950 . S
Zn50 O57 1.938 . S
Zn50 O58 1.906 . S
Zn50 O68 1.953 . S
Zn51 O48 1.945 . S
Zn51 O53 1.932 . S
Zn51 O60 1.977 . S
Zn51 O61 1.910 . S
O52 Zn49 1.933 . S
O52 C63 1.226 . S
O53 Zn51 1.932 . S
O53 C63 1.307 . S
O54 Zn47 1.919 . S
O54 C65 1.253 . S
O55 Zn49 1.941 . S
O55 C65 1.283 . S
O56 Zn49 1.965 . S
O56 C64 1.303 . S
O57 Zn50 1.938 . S
O57 C64 1.247 . S
O58 Zn50 1.906 . S
O58 C66 1.304 . S
O59 Zn47 1.924 . S
O59 C67 1.311 . S
O60 Zn51 1.977 . S
O60 C66 1.272 . S
O61 Zn51 1.910 . S
O61 C67 1.231 . S
C62 O46 1.225 . S
C62 O68 1.298 . S
C63 O52 1.226 . S
C63 O53 1.307 . S
C64 O56 1.303 . S
C64 O57 1.247 . S
C65 O54 1.253 . S
C65 O55 1.283 . S
C66 O58 1.304 . S
C66 O60 1.272 . S
C67 O59 1.311 . S
C67 O61 1.231 . S
O68 Zn50 1.953 . S
O68 C62 1.298 . S
O69 Zn70 1.953 . S
O69 C85 1.225 . S
Zn70 O69 1.953 . S
Zn70 O71 1.949 . S
Zn70 O77 1.919 . S
Zn70 O82 1.924 . S
O71 Zn70 1.949 . S
O71 Zn72 1.923 . S
O71 Zn73 1.950 . S
O71 Zn74 1.945 . S
Zn72 O71 1.923 . S
Zn72 O75 1.933 . S
Zn72 O78 1.941 . S
Zn72 O79 1.965 . S
Zn73 O71 1.950 . S
Zn73 O80 1.938 . S
Zn73 O81 1.906 . S
Zn73 O91 1.953 . S
Zn74 O71 1.945 . S
Zn74 O76 1.932 . S
Zn74 O83 1.977 . S
Zn74 O84 1.910 . S
O75 Zn72 1.933 . S
O75 C86 1.226 . S
O76 Zn74 1.932 . S
O76 C86 1.307 . S
O77 Zn70 1.919 . S
O77 C88 1.253 . S
O78 Zn72 1.941 . S
O78 C88 1.283 . S
O79 Zn72 1.965 . S
O79 C87 1.303 . S
O80 Zn73 1.938 . S
O80 C87 1.247 . S
O81 Zn73 1.906 . S
O81 C89 1.304 . S
O82 Zn70 1.924 . S
O82 C90 1.311 . S
O83 Zn74 1.977 . S
O83 C89 1.272 . S
O84 Zn74 1.910 . S
O84 C90 1.231 . S
C85 O69 1.225 . S
C85 O91 1.298 . S
C86 O75 1.226 . S
C86 O76 1.307 . S
C87 O79 1.303 . S
C87 O80 1.247 . S
C88 O77 1.253 . S
C88 O78 1.283 . S
C89 O81 1.304 . S
C89 O83 1.272 . S
C90 O82 1.311 . S
C90 O84 1.231 . S
O91 Zn73 1.953 . S
O91 C85 1.298 . S
O92 Zn93 1.953 . S
O92 C108 1.225 . S
Zn93 O92 1.953 . S
Zn93 O94 1.949 . S
Zn93 O100 1.919 . S
Zn93 O105 1.924 . S
O94 Zn93 1.949 . S
O94 Zn95 1.923 . S
O94 Zn96 1.950 . S
O94 Zn97 1.945 . S
Zn95 O94 1.923 . S
Zn95 O98 1.933 . S
Zn95 O101 1.941 . S
Zn95 O102 1.965 . S
Zn96 O94 1.950 . S
Zn96 O103 1.938 . S
Zn96 O104 1.906 . S
Zn96 O114 1.953 . S
Zn97 O94 1.945 . S
Zn97 O99 1.932 . S
Zn97 O106 1.977 . S
Zn97 O107 1.910 . S
O98 Zn95 1.933 . S
O98 C109 1.226 . S
O99 Zn97 1.932 . S
O99 C109 1.307 . S
O100 Zn93 1.919 . S
O100 C111 1.253 . S
O101 Zn95 1.941 . S
O101 C111 1.283 . S
O102 Zn95 1.965 . S
O102 C110 1.303 . S
O103 Zn96 1.938 . S
O103 C110 1.247 . S
O104 Zn96 1.906 . S
O104 C112 1.304 . S
O105 Zn93 1.924 . S
O105 C113 1.311 . S
O106 Zn97 1.977 . S
O106 C112 1.272 . S
O107 Zn97 1.910 . S
O107 C113 1.231 . S
C108 O92 1.225 . S
C108 O114 1.298 . S
C109 O98 1.226 . S
C109 O99 1.307 . S
C110 O102 1.303 . S
C110 O103 1.247 . S
C111 O100 1.253 . S
C111 O101 1.283 . S
C112 O104 1.304 . S
C112 O106 1.272 . S
C113 O105 1.311 . S
C113 O107 1.231 . S
O114 Zn96 1.953 . S
O114 C108 1.298 . S
O115 Zn116 1.953 . S
O115 C131 1.225 . S
Zn116 O115 1.953 . S
Zn116 O117 1.949 . S
Zn116 O123 1.919 . S
Zn116 O128 1.924 . S
O117 Zn116 1.949 . S
O117 Zn118 1.923 . S
O117 Zn119 1.950 . S
O117 Zn120 1.945 . S
Zn118 O117 1.923 . S
Zn118 O121 1.933 . S
Zn118 O124 1.941 . S
Zn118 O125 1.965 . S
Zn119 O117 1.950 . S
Zn119 O126 1.938 . S
Zn119 O127 1.906 . S
Zn119 O137 1.953 . S
Zn120 O117 1.945 . S
Zn120 O122 1.932 . S
Zn120 O129 1.977 . S
Zn120 O130 1.910 . S
O121 Zn118 1.933 . S
O121 C132 1.226 . S
O122 Zn120 1.932 . S
O122 C132 1.307 . S
O123 Zn116 1.919 . S
O123 C134 1.253 . S
O124 Zn118 1.941 . S
O124 C134 1.283 . S
O125 Zn118 1.965 . S
O125 C133 1.303 . S
O126 Zn119 1.938 . S
O126 C133 1.247 . S
O127 Zn119 1.906 . S
O127 C135 1.304 . S
O128 Zn116 1.924 . S
O128 C136 1.311 . S
O129 Zn120 1.977 . S
O129 C135 1.272 . S
O130 Zn120 1.910 . S
O130 C136 1.231 . S
C131 O115 1.225 . S
C131 O137 1.298 . S
C132 O121 1.226 . S
C132 O122 1.307 . S
C133 O125 1.303 . S
C133 O126 1.247 . S
C134 O123 1.253 . S
C134 O124 1.283 . S
C135 O127 1.304 . S
C135 O129 1.272 . S
C136 O128 1.311 . S
C136 O130 1.231 . S
O137 Zn119 1.953 . S
O137 C131 1.298 . S
O138 Zn139 1.953 . S
O138 C154 1.225 . S
Zn139 O138 1.953 . S
Zn139 O140 1.949 . S
Zn139 O146 1.919 . S
Zn139 O151 1.924 . S
O140 Zn139 1.949 . S
O140 Zn141 1.923 . S
O140 Zn142 1.950 . S
O140 Zn143 1.945 . S
Zn141 O140 1.923 . S
Zn141 O144 1.933 . S
Zn141 O147 1.941 . S
Zn141 O148 1.965 . S
Zn142 O140 1.950 . S
Zn142 O149 1.938 . S
Zn142 O150 1.906 . S
Zn142 O160 1.953 . S
Zn143 O140 1.945 . S
Zn143 O145 1.932 . S
Zn143 O152 1.977 . S
Zn143 O153 1.910 . S
O144 Zn141 1.933 . S
O144 C155 1.226 . S
O145 Zn143 1.932 . S
O145 C155 1.307 . S
O146 Zn139 1.919 . S
O146 C157 1.253 . S
O147 Zn141 1.941 . S
O147 C157 1.283 . S
O148 Zn141 1.965 . S
O148 C156 1.303 . S
O149 Zn142 1.938 . S
O149 C156 1.247 . S
O150 Zn142 1.906 . S
O150 C158 1.304 . S
O151 Zn139 1.924 . S
O151 C159 1.311 . S
O152 Zn143 1.977 . S
O152 C158 1.272 . S
O153 Zn143 1.910 . S
O153 C159 1.231 . S
C154 O138 1.225 . S
C154 O160 1.298 . S
C155 O144 1.226 . S
C155 O145 1.307 . S
C156 O148 1.303 . S
C156 O149 1.247 . S
C157 O146 1.253 . S
C157 O147 1.283 . S
C158 O150 1.304 . S
C158 O152 1.272 . S
C159 O151 1.311 . S
C159 O153 1.231 . S
O160 Zn142 1.953 . S
O160 C154 1.298 . S
O161 Zn162 1.953 . S
O161 C177 1.225 . S
Zn162 O161 1.953 . S
Zn162 O163 1.949 . S
Zn162 O169 1.919 . S
Zn162 O174 1.924 . S
O163 Zn162 1.949 . S
O163 Zn164 1.923 . S
O163 Zn165 1.950 . S
O163 Zn166 1.945 . S
Zn164 O163 1.923 . S
Zn164 O167 1.933 . S
Zn164 O170 1.941 . S
Zn164 O171 1.965 . S
Zn165 O163 1.950 . S
Zn165 O172 1.938 . S
Zn165 O173 1.906 . S
Zn165 O183 1.953 . S
Zn166 O163 1.945 . S
Zn166 O168 1.932 . S
Zn166 O175 1.977 . S
Zn166 O176 1.910 . S
O167 Zn164 1.933 . S
O167 C178 1.226 . S
O168 Zn166 1.932 . S
O168 C178 1.307 . S
O169 Zn162 1.919 . S
O169 C180 1.253 . S
O170 Zn164 1.941 . S
O170 C180 1.283 . S
O171 Zn164 1.965 . S
O171 C179 1.303 . S
O172 Zn165 1.938 . S
O172 C179 1.247 . S
O173 Zn165 1.906 . S
O173 C181 1.304 . S
O174 Zn162 1.924 . S
O174 C182 1.311 . S
O175 Zn166 1.977 . S
O175 C181 1.272 . S
O176 Zn166 1.910 . S
O176 C182 1.231 . S
C177 O161 1.225 . S
C177 O183 1.298 . S
C178 O167 1.226 . S
C178 O168 1.307 . S
C179 O171 1.303 . S
C179 O172 1.247 . S
C180 O169 1.253 . S
C180 O170 1.283 . S
C181 O173 1.304 . S
C181 O175 1.272 . S
C182 O174 1.311 . S
C182 O176 1.231 . S
O183 Zn165 1.953 . S
O183 C177 1.298 . S
C184 C185 1.391 . S
C184 C186 1.394 . S
C184 H200 0.931 . S
C185 C184 1.391 . S
C185 C189 1.376 . S
C186 C184 1.394 . S
C186 C187 1.369 . S
C186 C190 1.531 . S
C187 C186 1.369 . S
C187 C188 1.410 . S
C187 C195 1.503 . S
C188 C187 1.410 . S
C188 C189 1.392 . S
C188 C191 1.511 . S
C189 C185 1.376 . S
C189 C188 1.392 . S
C189 H201 0.929 . S
C190 C186 1.531 . S
C190 H202 0.960 . S
C190 H203 0.962 . S
C190 H204 0.960 . S
C191 C188 1.511 . S
C191 H205 0.961 . S
C191 H206 0.961 . S
C191 H207 0.961 . S
C192 C193 1.370 . S
C192 C194 1.363 . S
C192 H208 0.931 . S
C193 C192 1.370 . S
C193 C197 1.408 . S
C194 C192 1.363 . S
C194 C195 1.370 . S
C194 C198 1.524 . S
C195 C187 1.503 . S
C195 C194 1.370 . S
C195 C196 1.403 . S
C196 C195 1.403 . S
C196 C197 1.404 . S
C196 C199 1.539 . S
C197 C193 1.408 . S
C197 C196 1.404 . S
C197 H209 0.930 . S
C198 C194 1.524 . S
C198 H210 0.956 . S
C198 H211 0.961 . S
C198 H212 0.961 . S
C199 C196 1.539 . S
C199 H213 0.958 . S
C199 H214 0.961 . S
C199 H215 0.960 . S
H200 C184 0.931 . S
H201 C189 0.929 . S
H202 C190 0.960 . S
H203 C190 0.962 . S
H204 C190 0.960 . S
H205 C191 0.961 . S
H206 C191 0.961 . S
H207 C191 0.961 . S
H208 C192 0.931 . S
H209 C197 0.930 . S
H210 C198 0.956 . S
H211 C198 0.961 . S
H212 C198 0.961 . S
H213 C199 0.958 . S
H214 C199 0.961 . S
H215 C199 0.960 . S
C216 C217 1.391 . S
C216 C218 1.394 . S
C216 H232 0.931 . S
C217 C216 1.391 . S
C217 C221 1.376 . S
C218 C216 1.394 . S
C218 C219 1.369 . S
C218 C222 1.531 . S
C219 C218 1.369 . S
C219 C220 1.410 . S
C219 C227 1.503 . S
C220 C219 1.410 . S
C220 C221 1.392 . S
C220 C223 1.511 . S
C221 C217 1.376 . S
C221 C220 1.392 . S
C221 H233 0.929 . S
C222 C218 1.531 . S
C222 H234 0.960 . S
C222 H235 0.962 . S
C222 H236 0.960 . S
C223 C220 1.511 . S
C223 H237 0.961 . S
C223 H238 0.961 . S
C223 H239 0.961 . S
C224 C225 1.370 . S
C224 C226 1.363 . S
C224 H240 0.931 . S
C225 C224 1.370 . S
C225 C229 1.408 . S
C226 C224 1.363 . S
C226 C227 1.370 . S
C226 C230 1.524 . S
C227 C219 1.503 . S
C227 C226 1.370 . S
C227 C228 1.403 . S
C228 C227 1.403 . S
C228 C229 1.404 . S
C228 C231 1.539 . S
C229 C225 1.408 . S
C229 C228 1.404 . S
C229 H241 0.930 . S
C230 C226 1.524 . S
C230 H242 0.956 . S
C230 H243 0.961 . S
C230 H244 0.961 . S
C231 C228 1.539 . S
C231 H245 0.958 . S
C231 H246 0.961 . S
C231 H247 0.960 . S
H232 C216 0.931 . S
H233 C221 0.929 . S
H234 C222 0.960 . S
H235 C222 0.962 . S
H236 C222 0.960 . S
H237 C223 0.961 . S
H238 C223 0.961 . S
H239 C223 0.961 . S
H240 C224 0.931 . S
H241 C229 0.930 . S
H242 C230 0.956 . S
H243 C230 0.961 . S
H244 C230 0.961 . S
H245 C231 0.958 . S
H246 C231 0.961 . S
H247 C231 0.960 . S
C248 C249 1.391 . S
C248 C250 1.394 . S
C248 H264 0.931 . S
C249 C248 1.391 . S
C249 C253 1.376 . S
C250 C248 1.394 . S
C250 C251 1.369 . S
C250 C254 1.531 . S
C251 C250 1.369 . S
C251 C252 1.410 . S
C251 C259 1.503 1_455 S
C252 C251 1.410 . S
C252 C253 1.392 . S
C252 C255 1.511 . S
C253 C249 1.376 . S
C253 C252 1.392 . S
C253 H265 0.929 . S
C254 C250 1.531 . S
C254 H266 0.960 1_455 S
C254 H267 0.962 1_455 S
C254 H268 0.960 . S
C255 C252 1.511 . S
C255 H269 0.961 . S
C255 H270 0.961 . S
C255 H271 0.961 . S
C256 C257 1.370 . S
C256 C258 1.363 . S
C256 H272 0.931 . S
C257 C256 1.370 . S
C257 C261 1.408 . S
C258 C256 1.363 . S
C258 C259 1.370 . S
C258 C262 1.524 . S
C259 C251 1.503 1_655 S
C259 C258 1.370 . S
C259 C260 1.403 . S
C260 C259 1.403 . S
C260 C261 1.404 . S
C260 C263 1.539 . S
C261 C257 1.408 . S
C261 C260 1.404 . S
C261 H273 0.930 . S
C262 C258 1.524 . S
C262 H274 0.956 . S
C262 H275 0.961 . S
C262 H276 0.961 . S
C263 C260 1.539 . S
C263 H277 0.958 . S
C263 H278 0.961 . S
C263 H279 0.960 1_655 S
H264 C248 0.931 . S
H265 C253 0.929 . S
H266 C254 0.960 1_655 S
H267 C254 0.962 1_655 S
H268 C254 0.960 . S
H269 C255 0.961 . S
H270 C255 0.961 . S
H271 C255 0.961 . S
H272 C256 0.931 . S
H273 C261 0.930 . S
H274 C262 0.956 . S
H275 C262 0.961 . S
H276 C262 0.961 . S
H277 C263 0.958 . S
H278 C263 0.961 . S
H279 C263 0.960 1_455 S
C280 C281 1.391 . S
C280 C282 1.394 . S
C280 H296 0.931 . S
C281 C280 1.391 . S
C281 C285 1.376 . S
C282 C280 1.394 . S
C282 C283 1.369 . S
C282 C286 1.531 . S
C283 C282 1.369 . S
C283 C284 1.410 . S
C283 C291 1.503 1_455 S
C284 C283 1.410 . S
C284 C285 1.392 . S
C284 C287 1.511 . S
C285 C281 1.376 . S
C285 C284 1.392 . S
C285 H297 0.929 . S
C286 C282 1.531 . S
C286 H298 0.960 . S
C286 H299 0.962 . S
C286 H300 0.960 . S
C287 C284 1.511 . S
C287 H301 0.961 . S
C287 H302 0.961 1_455 S
C287 H303 0.961 1_455 S
C288 C289 1.370 . S
C288 C290 1.363 . S
C288 H304 0.931 . S
C289 C288 1.370 . S
C289 C293 1.408 . S
C290 C288 1.363 . S
C290 C291 1.370 . S
C290 C294 1.524 . S
C291 C283 1.503 1_655 S
C291 C290 1.370 . S
C291 C292 1.403 . S
C292 C291 1.403 . S
C292 C293 1.404 . S
C292 C295 1.539 . S
C293 C289 1.408 . S
C293 C292 1.404 . S
C293 H305 0.930 . S
C294 C290 1.524 . S
C294 H306 0.956 1_655 S
C294 H307 0.961 1_655 S
C294 H308 0.961 . S
C295 C292 1.539 . S
C295 H309 0.958 . S
C295 H310 0.961 . S
C295 H311 0.960 . S
H296 C280 0.931 . S
H297 C285 0.929 . S
H298 C286 0.960 . S
H299 C286 0.962 . S
H300 C286 0.960 . S
H301 C287 0.961 . S
H302 C287 0.961 1_655 S
H303 C287 0.961 1_655 S
H304 C288 0.931 . S
H305 C293 0.930 . S
H306 C294 0.956 1_455 S
H307 C294 0.961 1_455 S
H308 C294 0.961 . S
H309 C295 0.958 . S
H310 C295 0.961 . S
H311 C295 0.960 . S
C312 C313 1.391 . S
C312 C314 1.394 . S
C312 H328 0.931 . S
C313 C312 1.391 . S
C313 C317 1.376 . S
C314 C312 1.394 . S
C314 C315 1.369 . S
C314 C318 1.531 . S
C315 C314 1.369 . S
C315 C316 1.410 1_554 S
C315 C323 1.503 1_554 S
C316 C315 1.410 1_556 S
C316 C317 1.392 1_556 S
C316 C319 1.511 . S
C317 C313 1.376 . S
C317 C316 1.392 1_554 S
C317 H329 0.929 1_554 S
C318 C314 1.531 . S
C318 H330 0.960 . S
C318 H331 0.962 . S
C318 H332 0.960 . S
C319 C316 1.511 . S
C319 H333 0.961 . S
C319 H334 0.961 . S
C319 H335 0.961 . S
C320 C321 1.370 . S
C320 C322 1.363 . S
C320 H336 0.931 . S
C321 C320 1.370 . S
C321 C325 1.408 . S
C322 C320 1.363 . S
C322 C323 1.370 . S
C322 C326 1.524 . S
C323 C315 1.503 1_556 S
C323 C322 1.370 . S
C323 C324 1.403 1_556 S
C324 C323 1.403 1_554 S
C324 C325 1.404 1_554 S
C324 C327 1.539 . S
C325 C321 1.408 . S
C325 C324 1.404 1_556 S
C325 H337 0.930 1_556 S
C326 C322 1.524 . S
C326 H338 0.956 . S
C326 H339 0.961 . S
C326 H340 0.961 . S
C327 C324 1.539 . S
C327 H341 0.958 . S
C327 H342 0.961 . S
C327 H343 0.960 . S
H328 C312 0.931 . S
H329 C317 0.929 1_556 S
H330 C318 0.960 . S
H331 C318 0.962 . S
H332 C318 0.960 . S
H333 C319 0.961 . S
H334 C319 0.961 . S
H335 C319 0.961 . S
H336 C320 0.931 . S
H337 C325 0.930 1_554 S
H338 C326 0.956 . S
H339 C326 0.961 . S
H340 C326 0.961 . S
H341 C327 0.958 . S
H342 C327 0.961 . S
H343 C327 0.960 . S
C344 C345 1.391 . S
C344 C346 1.394 . S
C344 H360 0.931 . S
C345 C344 1.391 . S
C345 C349 1.376 . S
C346 C344 1.394 . S
C346 C347 1.369 . S
C346 C350 1.531 . S
C347 C346 1.369 . S
C347 C348 1.410 . S
C347 C355 1.503 . S
C348 C347 1.410 . S
C348 C349 1.392 . S
C348 C351 1.511 . S
C349 C345 1.376 . S
C349 C348 1.392 . S
C349 H361 0.929 . S
C350 C346 1.531 . S
C350 H362 0.960 . S
C350 H363 0.962 . S
C350 H364 0.960 . S
C351 C348 1.511 . S
C351 H365 0.961 . S
C351 H366 0.961 . S
C351 H367 0.961 . S
C352 C353 1.370 . S
C352 C354 1.363 . S
C352 H368 0.931 . S
C353 C352 1.370 . S
C353 C357 1.408 . S
C354 C352 1.363 . S
C354 C355 1.370 . S
C354 C358 1.524 . S
C355 C347 1.503 . S
C355 C354 1.370 . S
C355 C356 1.403 . S
C356 C355 1.403 . S
C356 C357 1.404 . S
C356 C359 1.539 . S
C357 C353 1.408 . S
C357 C356 1.404 . S
C357 H369 0.930 . S
C358 C354 1.524 . S
C358 H370 0.956 . S
C358 H371 0.961 . S
C358 H372 0.961 . S
C359 C356 1.539 . S
C359 H373 0.958 . S
C359 H374 0.961 . S
C359 H375 0.960 . S
H360 C344 0.931 . S
H361 C349 0.929 . S
H362 C350 0.960 . S
H363 C350 0.962 . S
H364 C350 0.960 . S
H365 C351 0.961 . S
H366 C351 0.961 . S
H367 C351 0.961 . S
H368 C352 0.931 . S
H369 C357 0.930 . S
H370 C358 0.956 . S
H371 C358 0.961 . S
H372 C358 0.961 . S
H373 C359 0.958 . S
H374 C359 0.961 . S
H375 C359 0.960 . S
C376 C377 1.391 . S
C376 C378 1.394 1_554 S
C376 H392 0.931 1_554 S
C377 C376 1.391 . S
C377 C381 1.376 . S
C378 C376 1.394 1_556 S
C378 C379 1.373 . S
C378 C382 1.531 . S
C379 C378 1.373 . S
C379 C380 1.397 1_556 S
C379 C387 1.510 . S
C380 C379 1.397 1_554 S
C380 C381 1.392 . S
C380 C383 1.511 . S
C381 C377 1.376 . S
C381 C380 1.392 . S
C381 H393 0.929 . S
C382 C378 1.531 . S
C382 H394 0.960 . S
C382 H395 0.962 . S
C382 H396 0.960 . S
C383 C380 1.511 . S
C383 H397 0.961 . S
C383 H398 0.961 . S
C383 H399 0.961 . S
C384 C385 1.380 . S
C384 C386 1.360 1_556 S
C384 H400 0.924 1_556 S
C385 C384 1.380 . S
C385 C389 1.408 . S
C386 C384 1.360 1_554 S
C386 C387 1.370 1_554 S
C386 C390 1.524 . S
C387 C379 1.510 . S
C387 C386 1.370 1_556 S
C387 C388 1.403 . S
C388 C387 1.403 . S
C388 C389 1.404 . S
C388 C391 1.539 . S
C389 C385 1.408 . S
C389 C388 1.404 . S
C389 H401 0.930 . S
C390 C386 1.524 . S
C390 H402 0.956 . S
C390 H403 0.961 . S
C390 H404 0.961 . S
C391 C388 1.539 . S
C391 H405 0.958 . S
C391 H406 0.961 . S
C391 H407 0.960 . S
H392 C376 0.931 1_556 S
H393 C381 0.929 . S
H394 C382 0.960 . S
H395 C382 0.962 . S
H396 C382 0.960 . S
H397 C383 0.961 . S
H398 C383 0.961 . S
H399 C383 0.961 . S
H400 C384 0.924 1_554 S
H401 C389 0.930 . S
H402 C390 0.956 . S
H403 C390 0.961 . S
H404 C390 0.961 . S
H405 C391 0.958 . S
H406 C391 0.961 . S
H407 C391 0.960 . S
C408 C409 1.391 . S
C408 C410 1.394 . S
C408 H424 0.931 . S
C409 C408 1.391 . S
C409 C413 1.376 . S
C410 C408 1.394 . S
C410 C411 1.369 . S
C410 C414 1.531 . S
C411 C410 1.369 . S
C411 C412 1.410 . S
C411 C419 1.503 . S
C412 C411 1.410 . S
C412 C413 1.392 . S
C412 C415 1.511 . S
C413 C409 1.376 . S
C413 C412 1.392 . S
C413 H425 0.929 . S
C414 C410 1.531 . S
C414 H426 0.960 . S
C414 H427 0.962 . S
C414 H428 0.960 . S
C415 C412 1.511 . S
C415 H429 0.961 . S
C415 H430 0.961 . S
C415 H431 0.961 . S
C416 C417 1.370 . S
C416 C418 1.363 . S
C416 H432 0.931 . S
C417 C416 1.370 . S
C417 C421 1.408 . S
C418 C416 1.363 . S
C418 C419 1.370 . S
C418 C422 1.524 . S
C419 C411 1.503 . S
C419 C418 1.370 . S
C419 C420 1.403 . S
C420 C419 1.403 . S
C420 C421 1.404 . S
C420 C423 1.539 . S
C421 C417 1.408 . S
C421 C420 1.404 . S
C421 H433 0.930 . S
C422 C418 1.524 . S
C422 H434 0.956 . S
C422 H435 0.961 . S
C422 H436 0.961 . S
C423 C420 1.539 . S
C423 H437 0.958 . S
C423 H438 0.961 . S
C423 H439 0.960 . S
H424 C408 0.931 . S
H425 C413 0.929 . S
H426 C414 0.960 . S
H427 C414 0.962 . S
H428 C414 0.960 . S
H429 C415 0.961 . S
H430 C415 0.961 . S
H431 C415 0.961 . S
H432 C416 0.931 . S
H433 C421 0.930 . S
H434 C422 0.956 . S
H435 C422 0.961 . S
H436 C422 0.961 . S
H437 C423 0.958 . S
H438 C423 0.961 . S
H439 C423 0.960 . S
C440 C441 1.391 . S
C440 C442 1.394 . S
C440 H456 0.931 . S
C441 C440 1.391 . S
C441 C445 1.376 . S
C442 C440 1.394 . S
C442 C443 1.369 . S
C442 C446 1.531 . S
C443 C442 1.369 . S
C443 C444 1.414 . S
C443 C451 1.498 1_656 S
C444 C443 1.414 . S
C444 C445 1.402 . S
C444 C447 1.497 1_655 S
C445 C441 1.376 . S
C445 C444 1.402 . S
C445 H457 0.929 . S
C446 C442 1.531 . S
C446 H458 0.960 . S
C446 H459 0.956 1_556 S
C446 H460 0.960 . S
C447 C444 1.497 1_455 S
C447 H461 0.961 1_556 S
C447 H462 0.961 1_556 S
C447 H463 0.961 . S
C448 C449 1.370 . S
C448 C450 1.363 . S
C448 H464 0.931 . S
C449 C448 1.370 . S
C449 C453 1.408 1_554 S
C450 C448 1.363 . S
C450 C451 1.388 . S
C450 C454 1.524 1_455 S
C451 C443 1.498 1_454 S
C451 C450 1.388 . S
C451 C452 1.390 1_554 S
C452 C451 1.390 1_556 S
C452 C453 1.404 . S
C452 C455 1.539 . S
C453 C449 1.408 1_556 S
C453 C452 1.404 . S
C453 H465 0.930 . S
C454 C450 1.524 1_655 S
C454 H466 0.956 . S
C454 H467 0.961 1_655 S
C454 H468 0.961 1_655 S
C455 C452 1.539 . S
C455 H469 0.958 . S
C455 H470 0.961 . S
C455 H471 0.960 . S
H456 C440 0.931 . S
H457 C445 0.929 . S
H458 C446 0.960 . S
H459 C446 0.956 1_554 S
H460 C446 0.960 . S
H461 C447 0.961 1_554 S
H462 C447 0.961 1_554 S
H463 C447 0.961 . S
H464 C448 0.931 . S
H465 C453 0.930 . S
H466 C454 0.956 . S
H467 C454 0.961 1_455 S
H468 C454 0.961 1_455 S
H469 C455 0.958 . S
H470 C455 0.961 . S
H471 C455 0.960 . S
C472 C473 1.391 . S
C472 C474 1.394 . S
C472 H488 0.931 . S
C473 C472 1.391 . S
C473 C477 1.376 . S
C474 C472 1.394 . S
C474 C475 1.369 . S
C474 C478 1.531 . S
C475 C474 1.369 . S
C475 C476 1.410 . S
C475 C483 1.503 1_455 S
C476 C475 1.410 . S
C476 C477 1.392 . S
C476 C479 1.511 . S
C477 C473 1.376 . S
C477 C476 1.392 . S
C477 H489 0.929 . S
C478 C474 1.531 . S
C478 H490 0.960 . S
C478 H491 0.962 1_455 S
C478 H492 0.960 . S
C479 C476 1.511 . S
C479 H493 0.961 . S
C479 H494 0.961 1_455 S
C479 H495 0.961 . S
C480 C481 1.370 . S
C480 C482 1.363 . S
C480 H496 0.931 . S
C481 C480 1.370 . S
C481 C485 1.408 . S
C482 C480 1.363 . S
C482 C483 1.370 . S
C482 C486 1.524 . S
C483 C475 1.503 1_655 S
C483 C482 1.370 . S
C483 C484 1.403 1_655 S
C484 C483 1.403 1_455 S
C484 C485 1.404 1_455 S
C484 C487 1.539 . S
C485 C481 1.408 . S
C485 C484 1.404 1_655 S
C485 H497 0.930 . S
C486 C482 1.524 . S
C486 H498 0.956 . S
C486 H499 0.961 . S
C486 H500 0.961 . S
C487 C484 1.539 . S
C487 H501 0.958 . S
C487 H502 0.961 . S
C487 H503 0.960 . S
H488 C472 0.931 . S
H489 C477 0.929 . S
H490 C478 0.960 . S
H491 C478 0.962 1_655 S
H492 C478 0.960 . S
H493 C479 0.961 . S
H494 C479 0.961 1_655 S
H495 C479 0.961 . S
H496 C480 0.931 . S
H497 C485 0.930 . S
H498 C486 0.956 . S
H499 C486 0.961 . S
H500 C486 0.961 . S
H501 C487 0.958 . S
H502 C487 0.961 . S
H503 C487 0.960 . S
C504 C505 1.391 1_556 S
C504 C506 1.394 . S
C504 H520 0.931 . S
C505 C504 1.391 1_554 S
C505 C509 1.376 . S
C506 C504 1.394 . S
C506 C507 1.369 1_556 S
C506 C510 1.531 . S
C507 C506 1.369 1_554 S
C507 C508 1.410 . S
C507 C515 1.503 1_564 S
C508 C507 1.410 . S
C508 C509 1.392 . S
C508 C511 1.511 . S
C509 C505 1.376 . S
C509 C508 1.392 . S
C509 H521 0.929 . S
C510 C506 1.531 . S
C510 H522 0.960 . S
C510 H523 0.962 1_565 S
C510 H524 0.960 . S
C511 C508 1.511 . S
C511 H525 0.961 . S
C511 H526 0.963 . S
C511 H527 0.961 . S
C512 C513 1.370 . S
C512 C514 1.363 . S
C512 H528 0.931 . S
C513 C512 1.370 . S
C513 C517 1.408 . S
C514 C512 1.363 . S
C514 C515 1.370 . S
C514 C518 1.524 1_556 S
C515 C507 1.503 1_546 S
C515 C514 1.370 . S
C515 C516 1.403 . S
C516 C515 1.403 . S
C516 C517 1.404 . S
C516 C519 1.539 1_545 S
C517 C513 1.408 . S
C517 C516 1.404 . S
C517 H529 0.930 . S
C518 C514 1.524 1_554 S
C518 H530 0.956 . S
C518 H531 0.961 . S
C518 H532 0.961 . S
C519 C516 1.539 1_565 S
C519 H533 0.958 . S
C519 H534 0.961 . S
C519 H535 0.960 . S
H520 C504 0.931 . S
H521 C509 0.929 . S
H522 C510 0.960 . S
H523 C510 0.962 1_545 S
H524 C510 0.960 . S
H525 C511 0.961 . S
H526 C511 0.963 . S
H527 C511 0.961 . S
H528 C512 0.931 . S
H529 C517 0.930 . S
H530 C518 0.956 . S
H531 C518 0.961 . S
H532 C518 0.961 . S
H533 C519 0.958 . S
H534 C519 0.961 . S
H535 C519 0.960 . S
C536 C537 1.391 . S
C536 C538 1.394 . S
C536 H552 0.931 . S
C537 C536 1.391 . S
C537 C541 1.376 . S
C538 C536 1.394 . S
C538 C539 1.369 . S
C538 C542 1.531 . S
C539 C538 1.369 . S
C539 C540 1.410 . S
C539 C547 1.503 1_565 S
C540 C539 1.410 . S
C540 C541 1.392 . S
C540 C543 1.511 . S
C541 C537 1.376 . S
C541 C540 1.392 . S
C541 H553 0.929 . S
C542 C538 1.531 . S
C542 H554 0.960 1_565 S
C542 H555 0.962 . S
C542 H556 0.960 . S
C543 C540 1.511 . S
C543 H557 0.961 . S
C543 H558 0.961 . S
C543 H559 0.961 1_565 S
C544 C545 1.370 . S
C544 C546 1.363 . S
C544 H560 0.931 . S
C545 C544 1.370 . S
C545 C549 1.408 . S
C546 C544 1.363 . S
C546 C547 1.370 . S
C546 C550 1.524 1_545 S
C547 C539 1.503 1_545 S
C547 C546 1.370 . S
C547 C548 1.403 . S
C548 C547 1.403 . S
C548 C549 1.404 . S
C548 C551 1.539 . S
C549 C545 1.408 . S
C549 C548 1.404 . S
C549 H561 0.930 . S
C550 C546 1.524 1_565 S
C550 H562 0.956 . S
C550 H563 0.961 . S
C550 H564 0.961 . S
C551 C548 1.539 . S
C551 H565 0.958 . S
C551 H566 0.961 . S
C551 H567 0.960 . S
H552 C536 0.931 . S
H553 C541 0.929 . S
H554 C542 0.960 1_545 S
H555 C542 0.962 . S
H556 C542 0.960 . S
H557 C543 0.961 . S
H558 C543 0.961 . S
H559 C543 0.961 1_545 S
H560 C544 0.931 . S
H561 C549 0.930 . S
H562 C550 0.956 . S
H563 C550 0.961 . S
H564 C550 0.961 . S
H565 C551 0.958 . S
H566 C551 0.961 . S
H567 C551 0.960 . S
C568 C569 1.391 . S
C568 C570 1.394 . S
C568 H584 0.931 . S
C569 C568 1.391 . S
C569 C573 1.376 . S
C570 C568 1.394 . S
C570 C571 1.369 . S
C570 C574 1.547 . S
C571 C570 1.369 . S
C571 C572 1.410 . S
C571 C579 1.503 1_455 S
C572 C571 1.410 . S
C572 C573 1.392 . S
C572 C575 1.511 . S
C573 C569 1.376 . S
C573 C572 1.392 . S
C573 H585 0.929 . S
C574 C570 1.547 . S
C574 H586 0.943 1_455 S
C574 H587 0.950 1_455 S
C574 H588 0.974 . S
C575 C572 1.511 . S
C575 H589 0.961 . S
C575 H590 0.961 . S
C575 H591 0.961 . S
C576 C577 1.370 . S
C576 C578 1.363 . S
C576 H592 0.931 . S
C577 C576 1.370 . S
C577 C581 1.408 . S
C578 C576 1.363 . S
C578 C579 1.370 . S
C578 C582 1.524 . S
C579 C571 1.503 1_655 S
C579 C578 1.370 . S
C579 C580 1.403 . S
C580 C579 1.403 . S
C580 C581 1.404 . S
C580 C583 1.539 1_655 S
C581 C577 1.408 . S
C581 C580 1.404 . S
C581 H593 0.930 . S
C582 C578 1.524 . S
C582 H594 0.956 . S
C582 H595 0.961 . S
C582 H596 0.961 . S
C583 C580 1.539 1_455 S
C583 H597 0.958 . S
C583 H598 0.961 1_455 S
C583 H599 0.960 . S
H584 C568 0.931 . S
H585 C573 0.929 . S
H586 C574 0.943 1_655 S
H587 C574 0.950 1_655 S
H588 C574 0.974 . S
H589 C575 0.961 . S
H590 C575 0.961 . S
H591 C575 0.961 . S
H592 C576 0.931 . S
H593 C581 0.930 . S
H594 C582 0.956 . S
H595 C582 0.961 . S
H596 C582 0.961 . S
H597 C583 0.958 . S
H598 C583 0.961 1_655 S
H599 C583 0.960 . S
C600 C601 1.391 . S
C600 C602 1.394 . S
C600 H616 0.931 . S
C601 C600 1.391 . S
C601 C605 1.376 . S
C602 C600 1.394 . S
C602 C603 1.369 . S
C602 C606 1.531 . S
C603 C602 1.369 . S
C603 C604 1.410 . S
C603 C611 1.503 1_455 S
C604 C603 1.410 . S
C604 C605 1.392 . S
C604 C607 1.511 . S
C605 C601 1.376 . S
C605 C604 1.392 . S
C605 H617 0.929 . S
C606 C602 1.531 . S
C606 H618 0.960 . S
C606 H619 0.962 1_455 S
C606 H620 0.960 . S
C607 C604 1.511 . S
C607 H621 0.961 . S
C607 H622 0.961 . S
C607 H623 0.961 . S
C608 C609 1.370 . S
C608 C610 1.363 . S
C608 H624 0.931 . S
C609 C608 1.370 . S
C609 C613 1.408 . S
C610 C608 1.363 . S
C610 C611 1.370 . S
C610 C614 1.524 . S
C611 C603 1.503 1_655 S
C611 C610 1.370 . S
C611 C612 1.403 . S
C612 C611 1.403 . S
C612 C613 1.404 . S
C612 C615 1.539 1_655 S
C613 C609 1.408 . S
C613 C612 1.404 . S
C613 H625 0.930 . S
C614 C610 1.524 . S
C614 H626 0.956 . S
C614 H627 0.961 . S
C614 H628 0.961 . S
C615 C612 1.539 1_455 S
C615 H629 0.958 . S
C615 H630 0.961 . S
C615 H631 0.960 . S
H616 C600 0.931 . S
H617 C605 0.929 . S
H618 C606 0.960 . S
H619 C606 0.962 1_655 S
H620 C606 0.960 . S
H621 C607 0.961 . S
H622 C607 0.961 . S
H623 C607 0.961 . S
H624 C608 0.931 . S
H625 C613 0.930 . S
H626 C614 0.956 . S
H627 C614 0.961 . S
H628 C614 0.961 . S
H629 C615 0.958 . S
H630 C615 0.961 . S
H631 C615 0.960 . S
C632 C633 1.391 . S
C632 C634 1.394 . S
C632 H648 0.931 . S
C633 C632 1.391 . S
C633 C637 1.376 . S
C634 C632 1.394 . S
C634 C635 1.369 . S
C634 C638 1.531 . S
C635 C634 1.369 . S
C635 C636 1.410 . S
C635 C643 1.503 . S
C636 C635 1.410 . S
C636 C637 1.392 . S
C636 C639 1.511 . S
C637 C633 1.376 . S
C637 C636 1.392 . S
C637 H649 0.929 . S
C638 C634 1.531 . S
C638 H650 0.960 . S
C638 H651 0.962 . S
C638 H652 0.960 . S
C639 C636 1.511 . S
C639 H653 0.961 . S
C639 H654 0.961 . S
C639 H655 0.961 . S
C640 C641 1.370 . S
C640 C642 1.363 . S
C640 H656 0.931 . S
C641 C640 1.370 . S
C641 C645 1.408 . S
C642 C640 1.363 . S
C642 C643 1.370 . S
C642 C646 1.524 . S
C643 C635 1.503 . S
C643 C642 1.370 . S
C643 C644 1.403 . S
C644 C643 1.403 . S
C644 C645 1.404 . S
C644 C647 1.539 . S
C645 C641 1.408 . S
C645 C644 1.404 . S
C645 H657 0.930 . S
C646 C642 1.524 . S
C646 H658 0.956 . S
C646 H659 0.961 . S
C646 H660 0.961 . S
C647 C644 1.539 . S
C647 H661 0.958 . S
C647 H662 0.961 . S
C647 H663 0.960 . S
H648 C632 0.931 . S
H649 C637 0.929 . S
H650 C638 0.960 . S
H651 C638 0.962 . S
H652 C638 0.960 . S
H653 C639 0.961 . S
H654 C639 0.961 . S
H655 C639 0.961 . S
H656 C640 0.931 . S
H657 C645 0.930 . S
H658 C646 0.956 . S
H659 C646 0.961 . S
H660 C646 0.961 . S
H661 C647 0.958 . S
H662 C647 0.961 . S
H663 C647 0.960 . S
C664 C665 1.391 . S
C664 C666 1.394 . S
C664 H680 0.931 . S
C665 C664 1.391 . S
C665 C669 1.376 . S
C666 C664 1.394 . S
C666 C667 1.369 . S
C666 C670 1.531 . S
C667 C666 1.369 . S
C667 C668 1.410 . S
C667 C675 1.503 . S
C668 C667 1.410 . S
C668 C669 1.392 . S
C668 C671 1.511 . S
C669 C665 1.376 . S
C669 C668 1.392 . S
C669 H681 0.929 . S
C670 C666 1.531 . S
C670 H682 0.960 . S
C670 H683 0.962 . S
C670 H684 0.960 . S
C671 C668 1.511 . S
C671 H685 0.961 . S
C671 H686 0.961 . S
C671 H687 0.961 . S
C672 C673 1.370 . S
C672 C674 1.363 . S
C672 H688 0.931 . S
C673 C672 1.370 . S
C673 C677 1.408 . S
C674 C672 1.363 . S
C674 C675 1.370 . S
C674 C678 1.524 . S
C675 C667 1.503 . S
C675 C674 1.370 . S
C675 C676 1.403 . S
C676 C675 1.403 . S
C676 C677 1.404 . S
C676 C679 1.539 . S
C677 C673 1.408 . S
C677 C676 1.404 . S
C677 H689 0.930 . S
C678 C674 1.524 . S
C678 H690 0.956 . S
C678 H691 0.961 . S
C678 H692 0.961 . S
C679 C676 1.539 . S
C679 H693 0.958 . S
C679 H694 0.961 . S
C679 H695 0.960 . S
H680 C664 0.931 . S
H681 C669 0.929 . S
H682 C670 0.960 . S
H683 C670 0.962 . S
H684 C670 0.960 . S
H685 C671 0.961 . S
H686 C671 0.961 . S
H687 C671 0.961 . S
H688 C672 0.931 . S
H689 C677 0.930 . S
H690 C678 0.956 . S
H691 C678 0.961 . S
H692 C678 0.961 . S
H693 C679 0.958 . S
H694 C679 0.961 . S
H695 C679 0.960 . S
C696 C697 1.391 . S
C696 C698 1.394 . S
C696 H712 0.931 . S
C697 C696 1.391 . S
C697 C701 1.376 . S
C698 C696 1.394 . S
C698 C699 1.369 . S
C698 C702 1.531 . S
C699 C698 1.369 . S
C699 C700 1.410 . S
C699 C707 1.503 . S
C700 C699 1.410 . S
C700 C701 1.392 . S
C700 C703 1.511 . S
C701 C697 1.376 . S
C701 C700 1.392 . S
C701 H713 0.929 . S
C702 C698 1.531 . S
C702 H714 0.960 . S
C702 H715 0.962 . S
C702 H716 0.960 . S
C703 C700 1.511 . S
C703 H717 0.961 . S
C703 H718 0.961 . S
C703 H719 0.961 . S
C704 C705 1.370 . S
C704 C706 1.363 . S
C704 H720 0.931 . S
C705 C704 1.370 . S
C705 C709 1.408 . S
C706 C704 1.363 . S
C706 C707 1.370 . S
C706 C710 1.524 . S
C707 C699 1.503 . S
C707 C706 1.370 . S
C707 C708 1.403 . S
C708 C707 1.403 . S
C708 C709 1.404 . S
C708 C711 1.539 . S
C709 C705 1.408 . S
C709 C708 1.404 . S
C709 H721 0.930 . S
C710 C706 1.524 . S
C710 H722 0.956 . S
C710 H723 0.961 . S
C710 H724 0.961 . S
C711 C708 1.539 . S
C711 H725 0.958 . S
C711 H726 0.961 . S
C711 H727 0.960 . S
H712 C696 0.931 . S
H713 C701 0.929 . S
H714 C702 0.960 . S
H715 C702 0.962 . S
H716 C702 0.960 . S
H717 C703 0.961 . S
H718 C703 0.961 . S
H719 C703 0.961 . S
H720 C704 0.931 . S
H721 C709 0.930 . S
H722 C710 0.956 . S
H723 C710 0.961 . S
H724 C710 0.961 . S
H725 C711 0.958 . S
H726 C711 0.961 . S
H727 C711 0.960 . S
C728 C729 1.391 . S
C728 C730 1.394 . S
C728 H744 0.931 . S
C729 C728 1.391 . S
C729 C733 1.376 . S
C730 C728 1.394 . S
C730 C731 1.369 . S
C730 C734 1.531 . S
C731 C730 1.369 . S
C731 C732 1.410 . S
C731 C739 1.503 . S
C732 C731 1.410 . S
C732 C733 1.392 . S
C732 C735 1.511 . S
C733 C729 1.376 . S
C733 C732 1.392 . S
C733 H745 0.929 . S
C734 C730 1.531 . S
C734 H746 0.960 . S
C734 H747 0.962 . S
C734 H748 0.960 . S
C735 C732 1.511 . S
C735 H749 0.961 . S
C735 H750 0.961 . S
C735 H751 0.961 . S
C736 C737 1.370 . S
C736 C738 1.363 . S
C736 H752 0.931 . S
C737 C736 1.370 . S
C737 C741 1.408 . S
C738 C736 1.363 . S
C738 C739 1.370 . S
C738 C742 1.524 . S
C739 C731 1.503 . S
C739 C738 1.370 . S
C739 C740 1.403 . S
C740 C739 1.403 . S
C740 C741 1.404 . S
C740 C743 1.539 . S
C741 C737 1.408 . S
C741 C740 1.404 . S
C741 H753 0.930 . S
C742 C738 1.524 . S
C742 H754 0.956 . S
C742 H755 0.961 . S
C742 H756 0.961 . S
C743 C740 1.539 . S
C743 H757 0.958 . S
C743 H758 0.961 . S
C743 H759 0.960 . S
H744 C728 0.931 . S
H745 C733 0.929 . S
H746 C734 0.960 . S
H747 C734 0.962 . S
H748 C734 0.960 . S
H749 C735 0.961 . S
H750 C735 0.961 . S
H751 C735 0.961 . S
H752 C736 0.931 . S
H753 C741 0.930 . S
H754 C742 0.956 . S
H755 C742 0.961 . S
H756 C742 0.961 . S
H757 C743 0.958 . S
H758 C743 0.961 . S
H759 C743 0.960 . S
C760 C761 1.391 . S
C760 C762 1.394 . S
C760 H776 0.931 . S
C761 C760 1.391 . S
C761 C765 1.376 . S
C762 C760 1.394 . S
C762 C763 1.369 . S
C762 C766 1.531 . S
C763 C762 1.369 . S
C763 C764 1.410 . S
C763 C771 1.503 . S
C764 C763 1.410 . S
C764 C765 1.392 . S
C764 C767 1.511 . S
C765 C761 1.376 . S
C765 C764 1.392 . S
C765 H777 0.929 . S
C766 C762 1.531 . S
C766 H778 0.960 . S
C766 H779 0.962 . S
C766 H780 0.960 . S
C767 C764 1.511 . S
C767 H781 0.961 . S
C767 H782 0.961 . S
C767 H783 0.961 . S
C768 C769 1.370 . S
C768 C770 1.363 . S
C768 H784 0.931 . S
C769 C768 1.370 . S
C769 C773 1.408 . S
C770 C768 1.363 . S
C770 C771 1.370 . S
C770 C774 1.524 . S
C771 C763 1.503 . S
C771 C770 1.370 . S
C771 C772 1.403 . S
C772 C771 1.403 . S
C772 C773 1.404 . S
C772 C775 1.539 . S
C773 C769 1.408 . S
C773 C772 1.404 . S
C773 H785 0.930 . S
C774 C770 1.524 . S
C774 H786 0.956 . S
C774 H787 0.961 . S
C774 H788 0.961 . S
C775 C772 1.539 . S
C775 H789 0.958 . S
C775 H790 0.961 . S
C775 H791 0.960 . S
H776 C760 0.931 . S
H777 C765 0.929 . S
H778 C766 0.960 . S
H779 C766 0.962 . S
H780 C766 0.960 . S
H781 C767 0.961 . S
H782 C767 0.961 . S
H783 C767 0.961 . S
H784 C768 0.931 . S
H785 C773 0.930 . S
H786 C774 0.956 . S
H787 C774 0.961 . S
H788 C774 0.961 . S
H789 C775 0.958 . S
H790 C775 0.961 . S
H791 C775 0.960 . S
C792 C793 1.391 . S
C792 C794 1.394 . S
C792 H808 0.931 . S
C793 C792 1.391 . S
C793 C797 1.376 . S
C794 C792 1.394 . S
C794 C795 1.369 . S
C794 C798 1.531 . S
C795 C794 1.369 . S
C795 C796 1.410 . S
C795 C803 1.503 . S
C796 C795 1.410 . S
C796 C797 1.392 . S
C796 C799 1.511 . S
C797 C793 1.376 . S
C797 C796 1.392 . S
C797 H809 0.929 . S
C798 C794 1.531 . S
C798 H810 0.960 . S
C798 H811 0.962 . S
C798 H812 0.960 . S
C799 C796 1.511 . S
C799 H813 0.961 . S
C799 H814 0.961 . S
C799 H815 0.961 . S
C800 C801 1.370 . S
C800 C802 1.363 . S
C800 H816 0.931 . S
C801 C800 1.370 . S
C801 C805 1.408 . S
C802 C800 1.363 . S
C802 C803 1.370 . S
C802 C806 1.524 . S
C803 C795 1.503 . S
C803 C802 1.370 . S
C803 C804 1.403 . S
C804 C803 1.403 . S
C804 C805 1.404 . S
C804 C807 1.539 . S
C805 C801 1.408 . S
C805 C804 1.404 . S
C805 H817 0.930 . S
C806 C802 1.524 . S
C806 H818 0.956 . S
C806 H819 0.961 . S
C806 H820 0.961 . S
C807 C804 1.539 . S
C807 H821 0.958 . S
C807 H822 0.961 . S
C807 H823 0.960 . S
H808 C792 0.931 . S
H809 C797 0.929 . S
H810 C798 0.960 . S
H811 C798 0.962 . S
H812 C798 0.960 . S
H813 C799 0.961 . S
H814 C799 0.961 . S
H815 C799 0.961 . S
H816 C800 0.931 . S
H817 C805 0.930 . S
H818 C806 0.956 . S
H819 C806 0.961 . S
H820 C806 0.961 . S
H821 C807 0.958 . S
H822 C807 0.961 . S
H823 C807 0.960 . S
C824 C825 1.391 . S
C824 C826 1.394 . S
C824 H840 0.931 . S
C825 C824 1.391 . S
C825 C829 1.376 . S
C826 C824 1.394 . S
C826 C827 1.369 . S
C826 C830 1.531 . S
C827 C826 1.369 . S
C827 C828 1.410 . S
C827 C835 1.503 . S
C828 C827 1.410 . S
C828 C829 1.392 . S
C828 C831 1.511 . S
C829 C825 1.376 . S
C829 C828 1.392 . S
C829 H841 0.929 . S
C830 C826 1.531 . S
C830 H842 0.960 . S
C830 H843 0.962 . S
C830 H844 0.960 . S
C831 C828 1.511 . S
C831 H845 0.961 . S
C831 H846 0.961 . S
C831 H847 0.961 . S
C832 C833 1.370 . S
C832 C834 1.363 . S
C832 H848 0.931 . S
C833 C832 1.370 . S
C833 C837 1.408 1_545 S
C834 C832 1.363 . S
C834 C835 1.370 1_545 S
C834 C838 1.524 . S
C835 C827 1.503 . S
C835 C834 1.370 1_565 S
C835 C836 1.403 . S
C836 C835 1.403 . S
C836 C837 1.404 . S
C836 C839 1.539 . S
C837 C833 1.408 1_565 S
C837 C836 1.404 . S
C837 H849 0.930 . S
C838 C834 1.524 . S
C838 H850 0.956 . S
C838 H851 0.961 . S
C838 H852 0.961 . S
C839 C836 1.539 . S
C839 H853 0.958 . S
C839 H854 0.961 . S
C839 H855 0.960 . S
H840 C824 0.931 . S
H841 C829 0.929 . S
H842 C830 0.960 . S
H843 C830 0.962 . S
H844 C830 0.960 . S
H845 C831 0.961 . S
H846 C831 0.961 . S
H847 C831 0.961 . S
H848 C832 0.931 . S
H849 C837 0.930 . S
H850 C838 0.956 . S
H851 C838 0.961 . S
H852 C838 0.961 . S
H853 C839 0.958 . S
H854 C839 0.961 . S
H855 C839 0.960 . S
C856 C857 1.391 1_565 S
C856 C858 1.394 . S
C856 H872 0.931 . S
C857 C856 1.391 1_545 S
C857 C861 1.376 . S
C858 C856 1.394 . S
C858 C859 1.369 . S
C858 C862 1.531 . S
C859 C858 1.369 . S
C859 C860 1.410 1_565 S
C859 C867 1.503 . S
C860 C859 1.410 1_545 S
C860 C861 1.392 . S
C860 C863 1.511 . S
C861 C857 1.376 . S
C861 C860 1.392 . S
C861 H873 0.929 . S
C862 C858 1.531 . S
C862 H874 0.960 . S
C862 H875 0.962 . S
C862 H876 0.960 . S
C863 C860 1.511 . S
C863 H877 0.961 . S
C863 H878 0.961 . S
C863 H879 0.961 . S
C864 C865 1.370 . S
C864 C866 1.363 . S
C864 H880 0.931 . S
C865 C864 1.370 . S
C865 C869 1.408 . S
C866 C864 1.363 . S
C866 C867 1.370 . S
C866 C870 1.524 1_565 S
C867 C859 1.503 . S
C867 C866 1.370 . S
C867 C868 1.403 . S
C868 C867 1.403 . S
C868 C869 1.404 . S
C868 C871 1.539 . S
C869 C865 1.408 . S
C869 C868 1.404 . S
C869 H881 0.930 . S
C870 C866 1.524 1_545 S
C870 H882 0.956 . S
C870 H883 0.961 . S
C870 H884 0.961 . S
C871 C868 1.539 . S
C871 H885 0.958 . S
C871 H886 0.961 . S
C871 H887 0.960 . S
H872 C856 0.931 . S
H873 C861 0.929 . S
H874 C862 0.960 . S
H875 C862 0.962 . S
H876 C862 0.960 . S
H877 C863 0.961 . S
H878 C863 0.961 . S
H879 C863 0.961 . S
H880 C864 0.931 . S
H881 C869 0.930 . S
H882 C870 0.956 . S
H883 C870 0.961 . S
H884 C870 0.961 . S
H885 C871 0.958 . S
H886 C871 0.961 . S
H887 C871 0.960 . S
C888 C889 1.391 . S
C888 C890 1.394 1_565 S
C888 H904 0.931 . S
C889 C888 1.391 . S
C889 C893 1.376 . S
C890 C888 1.394 1_545 S
C890 C891 1.369 . S
C890 C894 1.531 . S
C891 C890 1.369 . S
C891 C892 1.397 1_545 S
C891 C899 1.503 . S
C892 C891 1.397 1_565 S
C892 C893 1.408 . S
C892 C895 1.510 1_565 S
C893 C889 1.376 . S
C893 C892 1.408 . S
C893 H905 0.929 . S
C894 C890 1.531 . S
C894 H906 0.960 . S
C894 H907 0.962 . S
C894 H908 0.960 . S
C895 C892 1.510 1_545 S
C895 H909 0.939 1_545 S
C895 H910 0.959 1_545 S
C895 H911 0.985 . S
C896 C897 1.370 . S
C896 C898 1.363 . S
C896 H912 0.931 1_545 S
C897 C896 1.370 . S
C897 C901 1.408 . S
C898 C896 1.363 . S
C898 C899 1.370 . S
C898 C902 1.524 1_545 S
C899 C891 1.503 . S
C899 C898 1.370 . S
C899 C900 1.403 . S
C900 C899 1.403 . S
C900 C901 1.404 . S
C900 C903 1.539 . S
C901 C897 1.408 . S
C901 C900 1.404 . S
C901 H913 0.930 . S
C902 C898 1.524 1_565 S
C902 H914 0.956 . S
C902 H915 0.961 . S
C902 H916 0.961 . S
C903 C900 1.539 . S
C903 H917 0.958 . S
C903 H918 0.961 . S
C903 H919 0.960 . S
H904 C888 0.931 . S
H905 C893 0.929 . S
H906 C894 0.960 . S
H907 C894 0.962 . S
H908 C894 0.960 . S
H909 C895 0.939 1_565 S
H910 C895 0.959 1_565 S
H911 C895 0.985 . S
H912 C896 0.931 1_565 S
H913 C901 0.930 . S
H914 C902 0.956 . S
H915 C902 0.961 . S
H916 C902 0.961 . S
H917 C903 0.958 . S
H918 C903 0.961 . S
H919 C903 0.960 . S
C920 C921 1.391 . S
C920 C922 1.402 . S
C920 H936 0.931 . S
C921 C920 1.391 . S
C921 C925 1.376 . S
C922 C920 1.402 . S
C922 C923 1.376 . S
C922 C926 1.515 1_545 S
C923 C922 1.376 . S
C923 C924 1.410 . S
C923 C931 1.516 . S
C924 C923 1.410 . S
C924 C925 1.392 . S
C924 C927 1.511 . S
C925 C921 1.376 . S
C925 C924 1.392 . S
C925 H937 0.929 . S
C926 C922 1.515 1_565 S
C926 H938 0.960 . S
C926 H939 0.962 . S
C926 H940 0.960 . S
C927 C924 1.511 . S
C927 H941 0.961 . S
C927 H942 0.961 . S
C927 H943 0.961 . S
C928 C929 1.370 1_545 S
C928 C930 1.363 . S
C928 H944 0.931 . S
C929 C928 1.370 1_565 S
C929 C933 1.408 . S
C930 C928 1.363 . S
C930 C931 1.386 . S
C930 C934 1.524 . S
C931 C923 1.516 . S
C931 C930 1.386 . S
C931 C932 1.375 1_545 S
C932 C931 1.375 1_565 S
C932 C933 1.404 . S
C932 C935 1.539 . S
C933 C929 1.408 . S
C933 C932 1.404 . S
C933 H945 0.930 . S
C934 C930 1.524 . S
C934 H946 0.956 . S
C934 H947 0.961 . S
C934 H948 0.961 . S
C935 C932 1.539 . S
C935 H949 0.958 . S
C935 H950 0.961 . S
C935 H951 0.960 . S
H936 C920 0.931 . S
H937 C925 0.929 . S
H938 C926 0.960 . S
H939 C926 0.962 . S
H940 C926 0.960 . S
H941 C927 0.961 . S
H942 C927 0.961 . S
H943 C927 0.961 . S
H944 C928 0.931 . S
H945 C933 0.930 . S
H946 C934 0.956 . S
H947 C934 0.961 . S
H948 C934 0.961 . S
H949 C935 0.958 . S
H950 C935 0.961 . S
H951 C935 0.960 . S
C185 C40 1.410 . S
C193 C17 1.423 . S
C217 C63 1.417 . S
C225 C86 1.422 . S
C249 C132 1.418 . S
C257 C109 1.423 . S
C281 C155 1.409 . S
C289 C178 1.426 . S
C313 C20 1.365 . S
C321 C158 1.368 . S
C345 C43 1.363 . S
C353 C181 1.368 . S
C377 C112 1.362 . S
C385 C66 1.368 . S
C409 C89 1.358 . S
C417 C135 1.370 . S
C441 C62 1.145 . S
C449 C16 1.162 . S
C473 C85 1.126 . S
C481 C39 1.174 . S
C505 C108 1.195 . S
C513 C154 1.144 . S
C537 C131 1.120 . S
C545 C177 1.174 . S
C569 C18 1.319 . S
C577 C41 1.298 . S
C601 C87 1.322 . S
C609 C64 1.296 . S
C633 C133 1.304 . S
C641 C110 1.303 . S
C665 C179 1.319 . S
C673 C156 1.300 . S
C697 C21 1.529 1_556 S
C705 C88 1.465 . S
C729 C44 1.545 . S
C737 C65 1.466 . S
C761 C42 1.470 . S
C769 C67 1.538 1_554 S
C793 C19 1.473 . S
C801 C90 1.545 . S
C825 C113 1.533 1_556 S
C833 C180 1.473 . S
C857 C157 1.500 . S
C865 C136 1.543 . S
C889 C134 1.480 . S
C897 C159 1.539 1_554 S
C921 C182 1.535 . S
C929 C111 1.452 . S
